# Generated by pormake.
# Topology pyr, (3,6)-cn, num edge types: 1
# Building blocks:
#     Node 0, Type 0, BuildingBlock: VETTIZ_charged_linker_0, # of connection points: 3
#     Node 1, Type 0, BuildingBlock: VETTIZ_charged_linker_0, # of connection points: 3
#     Node 2, Type 0, BuildingBlock: VETTIZ_charged_linker_0, # of connection points: 3
#     Node 3, Type 0, BuildingBlock: VETTIZ_charged_linker_0, # of connection points: 3
#     Node 4, Type 0, BuildingBlock: VETTIZ_charged_linker_0, # of connection points: 3
#     Node 5, Type 0, BuildingBlock: VETTIZ_charged_linker_0, # of connection points: 3
#     Node 6, Type 0, BuildingBlock: VETTIZ_charged_linker_0, # of connection points: 3
#     Node 7, Type 0, BuildingBlock: VETTIZ_charged_linker_0, # of connection points: 3
#     Node 8, Type 1, BuildingBlock: CIFDUS_clean_sbu_1, # of connection points: 6
#     Node 9, Type 1, BuildingBlock: CIFDUS_clean_sbu_1, # of connection points: 6
#     Node 10, Type 1, BuildingBlock: CIFDUS_clean_sbu_1, # of connection points: 6
#     Node 11, Type 1, BuildingBlock: CIFDUS_clean_sbu_1, # of connection points: 6
#     Edge 12, Type (0, 1), BuildingBlock: KIFKEQ_clean_linker_1, # of connection points: 2
#     Edge 13, Type (0, 1), BuildingBlock: KIFKEQ_clean_linker_1, # of connection points: 2
#     Edge 14, Type (0, 1), BuildingBlock: KIFKEQ_clean_linker_1, # of connection points: 2
#     Edge 15, Type (0, 1), BuildingBlock: KIFKEQ_clean_linker_1, # of connection points: 2
#     Edge 16, Type (0, 1), BuildingBlock: KIFKEQ_clean_linker_1, # of connection points: 2
#     Edge 17, Type (0, 1), BuildingBlock: KIFKEQ_clean_linker_1, # of connection points: 2
#     Edge 18, Type (0, 1), BuildingBlock: KIFKEQ_clean_linker_1, # of connection points: 2
#     Edge 19, Type (0, 1), BuildingBlock: KIFKEQ_clean_linker_1, # of connection points: 2
#     Edge 20, Type (0, 1), BuildingBlock: KIFKEQ_clean_linker_1, # of connection points: 2
#     Edge 21, Type (0, 1), BuildingBlock: KIFKEQ_clean_linker_1, # of connection points: 2
#     Edge 22, Type (0, 1), BuildingBlock: KIFKEQ_clean_linker_1, # of connection points: 2
#     Edge 23, Type (0, 1), BuildingBlock: KIFKEQ_clean_linker_1, # of connection points: 2
#     Edge 24, Type (0, 1), BuildingBlock: KIFKEQ_clean_linker_1, # of connection points: 2
#     Edge 25, Type (0, 1), BuildingBlock: KIFKEQ_clean_linker_1, # of connection points: 2
#     Edge 26, Type (0, 1), BuildingBlock: KIFKEQ_clean_linker_1, # of connection points: 2
#     Edge 27, Type (0, 1), BuildingBlock: KIFKEQ_clean_linker_1, # of connection points: 2
#     Edge 28, Type (0, 1), BuildingBlock: KIFKEQ_clean_linker_1, # of connection points: 2
#     Edge 29, Type (0, 1), BuildingBlock: KIFKEQ_clean_linker_1, # of connection points: 2
#     Edge 30, Type (0, 1), BuildingBlock: KIFKEQ_clean_linker_1, # of connection points: 2
#     Edge 31, Type (0, 1), BuildingBlock: KIFKEQ_clean_linker_1, # of connection points: 2
#     Edge 32, Type (0, 1), BuildingBlock: KIFKEQ_clean_linker_1, # of connection points: 2
#     Edge 33, Type (0, 1), BuildingBlock: KIFKEQ_clean_linker_1, # of connection points: 2
#     Edge 34, Type (0, 1), BuildingBlock: KIFKEQ_clean_linker_1, # of connection points: 2
#     Edge 35, Type (0, 1), BuildingBlock: KIFKEQ_clean_linker_1, # of connection points: 2
# Relax obj value: 0.036
# Max RMSD: 0.112
# Mean RMSD: 0.047
data_MOF--net-pry--node1-CIFDUS_clean_sbu_1--node2-VETTIZ_charged_linker_0--edge1-KIFKEQ_clean_linker_1
_symmetry_space_group_name_H-M    P1
_symmetry_Int_Tables_number       1
_symmetry_cell_setting            triclinic
loop_
_symmetry_equiv_pos_as_xyz
'x, y, z'
_cell_length_a     45.869471
_cell_length_b     44.29979
_cell_length_c     44.066094
_cell_angle_alpha  92.140348
_cell_angle_beta   91.223209
_cell_angle_gamma 93.482636
loop_
_atom_site_label
_atom_site_type_symbol
_atom_site_fract_x
_atom_site_fract_y
_atom_site_fract_z
_atom_type_partial_charge
C0 C 0.12303 0.09802 0.23239 0.0
C1 C 0.10047 0.11019 0.24941 0.0
C2 C 0.08647 0.13498 0.23763 0.0
C3 C 0.11804 0.1357 0.19402 0.0
C4 C 0.13152 0.11119 0.20512 0.0
C5 C 0.15613 0.102 0.18534 0.0
H6 H 0.24863 0.13292 0.07134 0.0
C7 C 0.13309 0.14502 0.166 0.0
C8 C 0.15559 0.12542 0.16094 0.0
H9 H 0.2468 0.05751 0.13132 0.0
H10 H 0.20365 0.07445 0.15405 0.0
H11 H 0.22795 0.18506 0.11839 0.0
H12 H 0.17697 0.12336 0.05698 0.0
H13 H 0.16225 0.15899 0.05608 0.0
H14 H 0.19904 0.15472 0.0435 0.0
H15 H 0.23019 0.18657 0.0778 0.0
H16 H 0.20229 0.20509 0.0981 0.0
C17 C 0.18473 0.10523 0.20488 0.0
C18 C 0.14821 0.06958 0.172 0.0
C19 C 0.10079 0.23677 0.11029 0.0
C20 C 0.11058 0.25162 0.08418 0.0
C21 C 0.13416 0.2395 0.0685 0.0
C22 C 0.14796 0.21418 0.07887 0.0
C23 C 0.13802 0.19999 0.10503 0.0
C24 C 0.11447 0.21106 0.11997 0.0
C25 C 0.10647 0.19282 0.14711 0.0
C26 C 0.1291 0.16913 0.14608 0.0
C27 C 0.14773 0.17343 0.12141 0.0
C28 C 0.11016 0.21392 0.17599 0.0
C29 C 0.07518 0.17828 0.14154 0.0
C30 C 0.23892 0.11987 0.08922 0.0
C31 C 0.25239 0.0943 0.10012 0.0
C32 C 0.23823 0.07802 0.12318 0.0
C33 C 0.21272 0.08771 0.13629 0.0
C34 C 0.20041 0.11386 0.12618 0.0
C35 C 0.21287 0.12899 0.10236 0.0
C36 C 0.19511 0.15505 0.09333 0.0
C37 C 0.17101 0.15388 0.1167 0.0
C38 C 0.17451 0.12976 0.13605 0.0
C39 C 0.2148 0.18462 0.09685 0.0
C40 C 0.18277 0.148 0.0607 0.0
H41 H 0.08348 0.16648 0.20276 0.0
H42 H 0.1341 0.07871 0.24009 0.0
H43 H 0.12418 0.06556 0.16841 0.0
H44 H 0.15732 0.06559 0.14927 0.0
H45 H 0.15557 0.05219 0.18747 0.0
H46 H 0.18505 0.12571 0.22031 0.0
H47 H 0.18685 0.08532 0.21918 0.0
H48 H 0.20456 0.10833 0.19136 0.0
H49 H 0.08318 0.24514 0.1235 0.0
H50 H 0.14201 0.24934 0.04789 0.0
H51 H 0.16596 0.20662 0.06607 0.0
H52 H 0.12754 0.23217 0.17319 0.0
H53 H 0.0896 0.22492 0.18108 0.0
H54 H 0.11734 0.20204 0.19619 0.0
H55 H 0.07223 0.16935 0.11766 0.0
H56 H 0.0703 0.15866 0.15572 0.0
H57 H 0.05857 0.19512 0.1456 0.0
H58 H 0.06938 0.14539 0.25006 0.0
C59 C 0.09495 0.14757 0.21014 0.0
C60 C 0.28345 0.90377 0.57266 0.0
C61 C 0.26841 0.92855 0.58342 0.0
C62 C 0.28 0.94592 0.6089 0.0
C63 C 0.3208 0.9139 0.6124 0.0
C64 C 0.30953 0.89699 0.58736 0.0
C65 C 0.32818 0.87145 0.57881 0.0
H66 H 0.44475 0.78994 0.60797 0.0
C67 C 0.34795 0.90056 0.62259 0.0
C68 C 0.35237 0.87571 0.60292 0.0
H69 H 0.37879 0.77454 0.53682 0.0
H70 H 0.3557 0.81961 0.55335 0.0
H71 H 0.45336 0.86344 0.60239 0.0
H72 H 0.40038 0.80685 0.65961 0.0
H73 H 0.41501 0.83774 0.68229 0.0
H74 H 0.43931 0.81216 0.66472 0.0
H75 H 0.46863 0.84374 0.63323 0.0
H76 H 0.45481 0.88076 0.63895 0.0
C77 C 0.33981 0.87681 0.54655 0.0
C78 C 0.3096 0.8413 0.58184 0.0
C79 C 0.40343 0.94357 0.71738 0.0
C80 C 0.42808 0.93448 0.73334 0.0
C81 C 0.44332 0.91025 0.72126 0.0
C82 C 0.43378 0.8948 0.6942 0.0
C83 C 0.40852 0.90343 0.67905 0.0
C84 C 0.39397 0.92767 0.69048 0.0
C85 C 0.36718 0.93315 0.67165 0.0
C86 C 0.36793 0.90813 0.64721 0.0
C87 C 0.39221 0.89079 0.65168 0.0
C88 C 0.37151 0.96494 0.65836 0.0
C89 C 0.34014 0.92892 0.69192 0.0
C90 C 0.42554 0.79672 0.59588 0.0
C91 C 0.41347 0.77915 0.57103 0.0
C92 C 0.38831 0.78806 0.55595 0.0
C93 C 0.37494 0.81413 0.56568 0.0
C94 C 0.38669 0.83123 0.59105 0.0
C95 C 0.4117 0.82262 0.60559 0.0
C96 C 0.42047 0.84322 0.63262 0.0
C97 C 0.39666 0.8656 0.63177 0.0
C98 C 0.37693 0.8583 0.60746 0.0
C99 C 0.45099 0.85856 0.62683 0.0
C100 C 0.41899 0.82419 0.66143 0.0
H101 H 0.31354 0.95275 0.64272 0.0
H102 H 0.27528 0.89009 0.55307 0.0
H103 H 0.29392 0.84311 0.60066 0.0
H104 H 0.32278 0.82224 0.5878 0.0
H105 H 0.29672 0.8351 0.56066 0.0
H106 H 0.34442 0.90139 0.54311 0.0
H107 H 0.3236 0.8681 0.52877 0.0
H108 H 0.36082 0.86661 0.54248 0.0
H109 H 0.39106 0.96185 0.72629 0.0
H110 H 0.46252 0.90301 0.73302 0.0
H111 H 0.44617 0.87639 0.68642 0.0
H112 H 0.39463 0.96964 0.65193 0.0
H113 H 0.36603 0.98287 0.67521 0.0
H114 H 0.35861 0.96724 0.63724 0.0
H115 H 0.34298 0.91052 0.70804 0.0
H116 H 0.3199 0.92188 0.67888 0.0
H117 H 0.33663 0.94995 0.70552 0.0
H118 H 0.26862 0.96484 0.61801 0.0
C119 C 0.30604 0.93876 0.62338 0.0
C120 C 0.60916 0.29043 0.91428 0.0
C121 C 0.58611 0.27295 0.89949 0.0
C122 C 0.57005 0.28573 0.87612 0.0
C123 C 0.6022 0.33127 0.88018 0.0
C124 C 0.61669 0.31946 0.90439 0.0
C125 C 0.64142 0.34048 0.91678 0.0
H126 H 0.73415 0.46207 0.89882 0.0
C127 C 0.61747 0.36053 0.8735 0.0
C128 C 0.64027 0.36618 0.89506 0.0
H129 H 0.73341 0.39824 0.97076 0.0
H130 H 0.68867 0.37385 0.95029 0.0
H131 H 0.66496 0.47252 0.90005 0.0
H132 H 0.71493 0.41328 0.8448 0.0
H133 H 0.69013 0.43043 0.82096 0.0
H134 H 0.71749 0.4537 0.84218 0.0
H135 H 0.68659 0.48624 0.86943 0.0
H136 H 0.64933 0.47126 0.86325 0.0
C137 C 0.63406 0.35082 0.94961 0.0
C138 C 0.67008 0.32379 0.91412 0.0
C139 C 0.59275 0.41141 0.77589 0.0
C140 C 0.60571 0.43635 0.76128 0.0
C141 C 0.62807 0.4545 0.77674 0.0
C142 C 0.63831 0.44706 0.80552 0.0
C143 C 0.62619 0.42112 0.81905 0.0
C144 C 0.60323 0.4043 0.80463 0.0
C145 C 0.59313 0.37739 0.82228 0.0
C146 C 0.61442 0.3803 0.84918 0.0
C147 C 0.63376 0.40596 0.84717 0.0
C148 C 0.56142 0.38175 0.8322 0.0
C149 C 0.59679 0.34842 0.80216 0.0
C150 C 0.72418 0.44293 0.91018 0.0
C151 C 0.73732 0.43203 0.93643 0.0
C152 C 0.72354 0.4073 0.95077 0.0
C153 C 0.69763 0.393 0.93871 0.0
C154 C 0.68532 0.40338 0.9119 0.0
C155 C 0.69811 0.42839 0.89845 0.0
C156 C 0.68144 0.43639 0.87036 0.0
C157 C 0.65674 0.41182 0.86913 0.0
C158 C 0.65954 0.39231 0.89323 0.0
C159 C 0.67006 0.46833 0.87573 0.0
C160 C 0.70192 0.43356 0.84301 0.0
H161 H 0.5654 0.32299 0.84796 0.0
H162 H 0.62142 0.28146 0.93282 0.0
H163 H 0.67007 0.30996 0.89251 0.0
H164 H 0.68984 0.33918 0.91347 0.0
H165 H 0.67262 0.3083 0.93312 0.0
H166 H 0.61004 0.35082 0.95264 0.0
H167 H 0.64291 0.33563 0.96655 0.0
H168 H 0.64218 0.37443 0.95534 0.0
H169 H 0.57564 0.39685 0.76471 0.0
H170 H 0.63788 0.47435 0.76643 0.0
H171 H 0.65569 0.46146 0.81585 0.0
H172 H 0.5584 0.40595 0.83832 0.0
H173 H 0.54544 0.37463 0.81363 0.0
H174 H 0.55566 0.36947 0.85281 0.0
H175 H 0.6162 0.35125 0.78758 0.0
H176 H 0.60083 0.32836 0.81533 0.0
H177 H 0.57738 0.34317 0.78695 0.0
H178 H 0.55207 0.27275 0.86453 0.0
C179 C 0.57794 0.31482 0.86643 0.0
C180 C 0.93339 0.71333 0.42743 0.0
C181 C 0.92468 0.72897 0.45372 0.0
C182 C 0.90228 0.71589 0.47117 0.0
C183 C 0.89621 0.67295 0.4352 0.0
C184 C 0.91906 0.68528 0.41878 0.0
C185 C 0.9248 0.66607 0.39087 0.0
H186 H 0.88075 0.55101 0.29198 0.0
C187 C 0.88453 0.64475 0.41888 0.0
C188 C 0.90133 0.6405 0.39299 0.0
H189 H 0.95123 0.61923 0.28367 0.0
H190 H 0.94351 0.63841 0.33453 0.0
H191 H 0.89621 0.53657 0.3648 0.0
H192 H 0.83662 0.59414 0.32154 0.0
H193 H 0.81794 0.57483 0.35008 0.0
H194 H 0.8321 0.55357 0.31881 0.0
H195 H 0.8634 0.52156 0.34537 0.0
H196 H 0.86345 0.53444 0.38477 0.0
C197 C 0.9558 0.65442 0.39442 0.0
C198 C 0.9203 0.68527 0.36256 0.0
C199 C 0.79035 0.59119 0.45309 0.0
C200 C 0.77322 0.56575 0.44144 0.0
C201 C 0.78445 0.54789 0.4177 0.0
C202 C 0.81112 0.55633 0.40448 0.0
C203 C 0.82687 0.583 0.41494 0.0
C204 C 0.81702 0.59927 0.43963 0.0
C205 C 0.83724 0.62636 0.4484 0.0
C206 C 0.8602 0.62433 0.42419 0.0
C207 C 0.85375 0.59913 0.4043 0.0
C208 C 0.85018 0.62181 0.48056 0.0
C209 C 0.81987 0.6551 0.44571 0.0
C210 C 0.89472 0.56978 0.30144 0.0
C211 C 0.91632 0.584 0.28373 0.0
C212 C 0.93411 0.60834 0.29672 0.0
C213 C 0.92958 0.61944 0.32627 0.0
C214 C 0.90671 0.6064 0.34302 0.0
C215 C 0.89015 0.58151 0.33094 0.0
C216 C 0.86627 0.57132 0.35192 0.0
C217 C 0.8707 0.59485 0.37799 0.0
C218 C 0.89448 0.6153 0.37257 0.0
C219 C 0.87232 0.5392 0.36221 0.0
C220 C 0.83657 0.57331 0.33488 0.0
H221 H 0.87064 0.67953 0.47598 0.0
H222 H 0.95048 0.72306 0.41355 0.0
H223 H 0.90457 0.70299 0.367 0.0
H224 H 0.91056 0.67184 0.34285 0.0
H225 H 0.94116 0.69689 0.35581 0.0
H226 H 0.96 0.64788 0.41819 0.0
H227 H 0.97281 0.67219 0.38896 0.0
H228 H 0.95886 0.63381 0.38026 0.0
H229 H 0.78258 0.60544 0.47131 0.0
H230 H 0.77227 0.52764 0.40883 0.0
H231 H 0.81805 0.54218 0.38605 0.0
H232 H 0.85213 0.59738 0.48471 0.0
H233 H 0.83615 0.63109 0.49844 0.0
H234 H 0.87268 0.63206 0.48374 0.0
H235 H 0.80547 0.65331 0.42499 0.0
H236 H 0.83392 0.67592 0.44333 0.0
H237 H 0.80581 0.65828 0.46565 0.0
H238 H 0.89522 0.72777 0.49139 0.0
C239 C 0.88801 0.68797 0.4621 0.0
C240 C 0.90011 0.79631 0.94468 0.0
C241 C 0.92471 0.78138 0.93459 0.0
C242 C 0.94063 0.79373 0.91041 0.0
C243 C 0.9065 0.83313 0.90518 0.0
C244 C 0.89149 0.82209 0.92972 0.0
C245 C 0.86556 0.8404 0.93685 0.0
H246 H 0.7812 0.9568 0.90244 0.0
C247 C 0.89125 0.85916 0.89363 0.0
C248 C 0.86737 0.86388 0.9124 0.0
H249 H 0.76835 0.89326 0.97354 0.0
H250 H 0.8122 0.86895 0.95922 0.0
H251 H 0.79352 0.90859 0.85382 0.0
H252 H 0.854 0.96637 0.90868 0.0
H253 H 0.8659 0.96639 0.87093 0.0
H254 H 0.8306 0.97981 0.87959 0.0
H255 H 0.80248 0.94702 0.84441 0.0
H256 H 0.82357 0.91633 0.83092 0.0
C257 C 0.83751 0.81922 0.93306 0.0
C258 C 0.87048 0.85513 0.96907 0.0
C259 C 0.92306 0.90646 0.79469 0.0
C260 C 0.91184 0.92941 0.77726 0.0
C261 C 0.88852 0.9453 0.789 0.0
C262 C 0.87629 0.93822 0.81694 0.0
C263 C 0.88712 0.91471 0.83357 0.0
C264 C 0.91041 0.89955 0.82263 0.0
C265 C 0.91892 0.87516 0.84351 0.0
C266 C 0.89612 0.87739 0.86801 0.0
C267 C 0.87767 0.90076 0.86213 0.0
C268 C 0.91577 0.84448 0.82534 0.0
C269 C 0.95015 0.88381 0.85635 0.0
C270 C 0.78822 0.93803 0.91526 0.0
C271 C 0.77156 0.9272 0.93944 0.0
C272 C 0.78093 0.9021 0.95495 0.0
C273 C 0.80637 0.88799 0.94654 0.0
C274 C 0.82251 0.89864 0.9219 0.0
C275 C 0.81326 0.92326 0.90668 0.0
C276 C 0.83174 0.93011 0.87967 0.0
C277 C 0.85403 0.90617 0.8816 0.0
C278 C 0.84872 0.88779 0.90651 0.0
C279 C 0.81199 0.92556 0.85061 0.0
C280 C 0.84628 0.96243 0.88466 0.0
H281 H 0.94474 0.82719 0.87739 0.0
H282 H 0.88731 0.78762 0.96315 0.0
H283 H 0.89364 0.86378 0.97257 0.0
H284 H 0.85745 0.87496 0.97307 0.0
H285 H 0.86546 0.83847 0.98674 0.0
H286 H 0.83925 0.80292 0.91344 0.0
H287 H 0.83376 0.80594 0.95365 0.0
H288 H 0.81784 0.83144 0.92797 0.0
H289 H 0.94122 0.89405 0.78677 0.0
H290 H 0.87904 0.96279 0.77618 0.0
H291 H 0.85848 0.95108 0.82426 0.0
H292 H 0.89585 0.84323 0.81037 0.0
H293 H 0.93487 0.8415 0.81069 0.0
H294 H 0.91305 0.82483 0.83986 0.0
H295 H 0.95399 0.90881 0.85932 0.0
H296 H 0.95391 0.87523 0.87925 0.0
H297 H 0.96699 0.8756 0.84085 0.0
H298 H 0.96005 0.78342 0.90255 0.0
C299 C 0.93175 0.81935 0.8958 0.0
C300 C 0.74001 0.12655 0.44606 0.0
C301 C 0.75512 0.10228 0.4339 0.0
C302 C 0.74376 0.08652 0.40743 0.0
C303 C 0.70296 0.11858 0.40581 0.0
C304 C 0.71396 0.1342 0.43171 0.0
C305 C 0.69477 0.15905 0.44158 0.0
H306 H 0.57773 0.241 0.41191 0.0
C307 C 0.67568 0.13197 0.39638 0.0
C308 C 0.67058 0.15566 0.41729 0.0
H309 H 0.63874 0.25292 0.48792 0.0
H310 H 0.66372 0.20912 0.47025 0.0
H311 H 0.56752 0.17077 0.41718 0.0
H312 H 0.6244 0.22324 0.36015 0.0
H313 H 0.60563 0.19429 0.33762 0.0
H314 H 0.58522 0.22198 0.35728 0.0
H315 H 0.55432 0.18571 0.38257 0.0
H316 H 0.5698 0.14916 0.38323 0.0
C317 C 0.68321 0.15205 0.47348 0.0
C318 C 0.71285 0.1896 0.44013 0.0
C319 C 0.62246 0.09267 0.29904 0.0
C320 C 0.59654 0.10037 0.28431 0.0
C321 C 0.57973 0.12233 0.29852 0.0
C322 C 0.58917 0.13725 0.32587 0.0
C323 C 0.61557 0.13002 0.33965 0.0
C324 C 0.63131 0.1075 0.32668 0.0
C325 C 0.65806 0.10178 0.34541 0.0
C326 C 0.65616 0.12517 0.37128 0.0
C327 C 0.63141 0.14185 0.36759 0.0
C328 C 0.65448 0.06902 0.35664 0.0
C329 C 0.68524 0.10828 0.32582 0.0
C330 C 0.59647 0.23401 0.42465 0.0
C331 C 0.60657 0.25025 0.45111 0.0
C332 C 0.63071 0.24052 0.46747 0.0
C333 C 0.64519 0.21523 0.45708 0.0
C334 C 0.63521 0.19942 0.4302 0.0
C335 C 0.61086 0.20856 0.41481 0.0
C336 C 0.60251 0.18836 0.38747 0.0
C337 C 0.62637 0.16613 0.38837 0.0
C338 C 0.64567 0.17284 0.41327 0.0
C339 C 0.5719 0.17275 0.39257 0.0
C340 C 0.60431 0.20781 0.359 0.0
H341 H 0.71055 0.08153 0.37336 0.0
H342 H 0.74803 0.139 0.46647 0.0
H343 H 0.72614 0.19009 0.41929 0.0
H344 H 0.69924 0.2092 0.43883 0.0
H345 H 0.72808 0.1932 0.46005 0.0
H346 H 0.67915 0.12725 0.47587 0.0
H347 H 0.69921 0.16045 0.4916 0.0
H348 H 0.66194 0.16159 0.47786 0.0
H349 H 0.63606 0.076 0.28907 0.0
H350 H 0.55915 0.12812 0.28851 0.0
H351 H 0.5756 0.15404 0.3351 0.0
H352 H 0.63112 0.06228 0.36048 0.0
H353 H 0.66266 0.05251 0.33975 0.0
H354 H 0.6655 0.06637 0.37885 0.0
H355 H 0.68201 0.12765 0.31098 0.0
H356 H 0.70519 0.1151 0.33945 0.0
H357 H 0.68952 0.08835 0.3109 0.0
H358 H 0.75517 0.06816 0.3972 0.0
C359 C 0.71785 0.09445 0.39344 0.0
C360 C 0.41776 0.63277 0.24816 0.0
C361 C 0.40543 0.60689 0.26166 0.0
C362 C 0.38241 0.58963 0.24638 0.0
C363 C 0.38308 0.6248 0.20569 0.0
C364 C 0.40645 0.64109 0.22006 0.0
C365 C 0.41686 0.6679 0.20236 0.0
H366 H 0.39044 0.76385 0.09083 0.0
C367 C 0.3752 0.64048 0.17799 0.0
C368 C 0.39502 0.66573 0.17582 0.0
H369 H 0.46178 0.76995 0.1569 0.0
H370 H 0.44612 0.72101 0.1752 0.0
H371 H 0.34243 0.74069 0.13282 0.0
H372 H 0.39703 0.69222 0.07266 0.0
H373 H 0.36242 0.67296 0.07004 0.0
H374 H 0.36652 0.7119 0.05927 0.0
H375 H 0.33637 0.73855 0.09242 0.0
H376 H 0.32017 0.71054 0.11663 0.0
C377 C 0.41419 0.69685 0.22271 0.0
C378 C 0.44827 0.66287 0.19179 0.0
C379 C 0.28336 0.60531 0.11605 0.0
C380 C 0.26914 0.61773 0.09125 0.0
C381 C 0.28185 0.64368 0.07818 0.0
C382 C 0.30824 0.65737 0.08974 0.0
C383 C 0.32187 0.64536 0.11506 0.0
C384 C 0.30957 0.61966 0.12775 0.0
C385 C 0.32684 0.61084 0.15517 0.0
C386 C 0.35164 0.63533 0.15654 0.0
C387 C 0.3484 0.65549 0.13307 0.0
C388 C 0.30695 0.61304 0.18306 0.0
C389 C 0.33798 0.57898 0.14864 0.0
C390 C 0.40263 0.75462 0.10928 0.0
C391 C 0.427 0.77097 0.12287 0.0
C392 C 0.44282 0.75783 0.1462 0.0
C393 C 0.43359 0.72951 0.15692 0.0
C394 C 0.40823 0.71418 0.14422 0.0
C395 C 0.39379 0.72632 0.12014 0.0
C396 C 0.36773 0.70654 0.10894 0.0
C397 C 0.36837 0.681 0.13086 0.0
C398 C 0.39189 0.68575 0.15171 0.0
C399 C 0.34014 0.72486 0.11258 0.0
C400 C 0.3734 0.69538 0.07594 0.0
H401 H 0.35348 0.58449 0.20824 0.0
H402 H 0.43583 0.64612 0.25917 0.0
H403 H 0.45122 0.63841 0.18699 0.0
H404 H 0.45334 0.6738 0.17023 0.0
H405 H 0.46479 0.67108 0.20947 0.0
H406 H 0.39375 0.69523 0.23585 0.0
H407 H 0.43285 0.70015 0.23923 0.0
H408 H 0.41284 0.71754 0.20978 0.0
H409 H 0.27385 0.58545 0.12662 0.0
H410 H 0.27128 0.65338 0.05893 0.0
H411 H 0.31672 0.67713 0.07878 0.0
H412 H 0.29386 0.63334 0.18206 0.0
H413 H 0.29144 0.59284 0.18381 0.0
H414 H 0.31918 0.61578 0.20489 0.0
H415 H 0.34256 0.57541 0.12412 0.0
H416 H 0.35893 0.57564 0.16053 0.0
H417 H 0.32154 0.56094 0.15484 0.0
H418 H 0.37262 0.56957 0.25636 0.0
C419 C 0.37121 0.59841 0.21852 0.0
C420 C 0.06833 0.30325 0.59777 0.0
C421 C 0.07643 0.28866 0.57055 0.0
C422 C 0.09881 0.30244 0.55344 0.0
C423 C 0.10605 0.34334 0.59148 0.0
C424 C 0.08321 0.33063 0.60762 0.0
C425 C 0.07758 0.34918 0.63603 0.0
H426 H 0.12263 0.46226 0.73708 0.0
C427 C 0.11827 0.37065 0.60878 0.0
C428 C 0.10151 0.37443 0.63478 0.0
H429 H 0.04707 0.39942 0.74142 0.0
H430 H 0.057 0.37851 0.6917 0.0
H431 H 0.1109 0.47704 0.66393 0.0
H432 H 0.1657 0.41708 0.71047 0.0
H433 H 0.18606 0.43275 0.68104 0.0
H434 H 0.17373 0.45727 0.71103 0.0
H435 H 0.14232 0.49052 0.68663 0.0
H436 H 0.14537 0.47906 0.64715 0.0
C437 C 0.04673 0.36134 0.63288 0.0
C438 C 0.08173 0.32907 0.66362 0.0
C439 C 0.21316 0.42312 0.57531 0.0
C440 C 0.23159 0.44692 0.58826 0.0
C441 C 0.22219 0.46305 0.61412 0.0
C442 C 0.1956 0.45478 0.62762 0.0
C443 C 0.17817 0.42992 0.61533 0.0
C444 C 0.18675 0.41501 0.5892 0.0
C445 C 0.16563 0.389 0.57944 0.0
C446 C 0.14324 0.3904 0.60426 0.0
C447 C 0.1508 0.41427 0.62539 0.0
C448 C 0.15229 0.39571 0.54796 0.0
C449 C 0.18222 0.35955 0.58009 0.0
C450 C 0.10828 0.44396 0.72728 0.0
C451 C 0.08423 0.43222 0.74338 0.0
C452 C 0.06571 0.40888 0.72952 0.0
C453 C 0.07162 0.39662 0.70069 0.0
C454 C 0.09633 0.40777 0.68538 0.0
C455 C 0.11374 0.43161 0.69831 0.0
C456 C 0.13863 0.44099 0.67828 0.0
C457 C 0.13378 0.41824 0.65169 0.0
C458 C 0.10905 0.3987 0.6561 0.0
C459 C 0.13441 0.47369 0.66853 0.0
C460 C 0.16766 0.4371 0.69597 0.0
H461 H 0.13083 0.33853 0.54995 0.0
H462 H 0.05092 0.29345 0.6112 0.0
H463 H 0.10089 0.31511 0.6605 0.0
H464 H 0.08631 0.34215 0.68514 0.0
H465 H 0.06222 0.31341 0.66645 0.0
H466 H 0.0412 0.36555 0.60875 0.0
H467 H 0.02971 0.34491 0.64111 0.0
H468 H 0.04501 0.38346 0.64494 0.0
H469 H 0.21975 0.4101 0.55561 0.0
H470 H 0.2357 0.48183 0.62426 0.0
H471 H 0.18999 0.46763 0.64754 0.0
H472 H 0.15127 0.42048 0.54511 0.0
H473 H 0.16549 0.38667 0.52924 0.0
H474 H 0.12938 0.38657 0.54492 0.0
H475 H 0.19733 0.36002 0.60023 0.0
H476 H 0.16777 0.33898 0.58219 0.0
H477 H 0.19547 0.35682 0.55948 0.0
H478 H 0.1056 0.29162 0.53253 0.0
C479 C 0.11361 0.32961 0.56373 0.0
O480 O 0.96892 0.028 0.50228 0.0
Mn481 Mn 0.00896 0.00919 0.51098 0.0
O482 O 0.95041 0.00605 0.45879 0.0
Mn483 Mn 0.98243 0.98357 0.4517 0.0
O484 O 0.04979 0.99114 0.52096 0.0
O485 O 0.02119 0.04857 0.53487 0.0
Mn486 Mn 0.03299 0.03758 0.57089 0.0
O487 O 0.98987 0.98857 0.54947 0.0
O488 O 0.06491 0.01542 0.56479 0.0
O489 O 0.02828 0.02983 0.4725 0.0
O490 O 0.01252 1.002 0.43132 0.0
O491 O 0.03782 0.07846 0.57347 0.0
O492 O 1.00256 0.01862 0.59024 0.0
C493 C 0.987 0.94327 0.4739 0.0
C494 C 0.94878 0.02419 0.48162 0.0
C495 C 0.06885 0.99675 0.54282 0.0
C496 C 0.02784 0.07601 0.54571 0.0
C497 C 0.98797 0.9961 0.57791 0.0
C498 C 0.02891 0.02309 0.44376 0.0
O499 O 0.99526 0.96974 0.48673 0.0
O500 O 0.97653 0.9432 0.44636 0.0
O501 O 0.49725 0.01587 0.96247 0.0
Mn502 Mn 0.51245 0.01847 0.00828 0.0
O503 O 0.49562 0.9666 0.94769 0.0
Mn504 Mn 0.51751 0.95483 0.9799 0.0
O505 O 0.52698 0.02101 0.05417 0.0
O506 O 0.52061 0.06384 1.00413 0.0
Mn507 Mn 0.50518 0.08153 0.03604 0.0
O508 O 0.46849 0.02431 0.02172 0.0
O509 O 0.52351 0.06938 0.0705 0.0
O510 O 0.55641 0.0121 0.99491 0.0
O511 O 0.55707 0.96347 0.97822 0.0
O512 O 0.52108 0.11285 0.01552 0.0
O513 O 0.46548 0.07361 0.0343 0.0
C514 C 0.49675 0.9463 0.02102 0.0
C515 C 0.49032 0.99388 0.94318 0.0
C516 C 0.53016 0.04243 0.07478 0.0
C517 C 0.52821 0.09138 0.99684 0.0
C518 C 0.4537 0.04714 0.02973 0.0
C519 C 0.56994 0.98928 0.9843 0.0
O520 O 0.50455 0.97331 0.01256 0.0
O521 O 0.503 0.92423 1.00266 0.0
O522 O 0.54433 0.52566 0.50434 0.0
Mn523 Mn 0.50034 0.51064 0.50952 0.0
O524 O 0.55539 0.51073 0.45662 0.0
Mn525 Mn 0.52048 0.48918 0.44673 0.0
O526 O 0.4563 0.49526 0.51454 0.0
O527 O 0.50726 0.51192 0.55506 0.0
Mn528 Mn 0.47901 0.53105 0.57231 0.0
O529 O 0.48853 0.5559 0.51019 0.0
O530 O 0.44491 0.50815 0.56266 0.0
O531 O 0.51281 0.46548 0.50895 0.0
O532 O 0.51683 0.45042 0.4601 0.0
O533 O 0.50226 0.52063 0.60388 0.0
O534 O 0.4813 0.56983 0.55894 0.0
C535 C 0.48392 0.51404 0.4366 0.0
C536 C 0.56208 0.5242 0.48212 0.0
C537 C 0.43853 0.49536 0.53682 0.0
C538 C 0.51704 0.50846 0.58244 0.0
C539 C 0.48362 0.57585 0.53113 0.0
C540 C 0.51662 0.44499 0.48816 0.0
O541 O 0.49331 0.50977 0.46398 0.0
O542 O 0.49789 0.50081 0.41516 0.0
O543 O 0.9625 0.49499 0.01118 0.0
Mn544 Mn 0.0054 0.51378 0.01548 0.0
O545 O 0.94664 0.51218 0.96746 0.0
Mn546 Mn 0.98282 0.52828 0.9576 0.0
O547 O 0.04876 0.53192 0.02121 0.0
O548 O 0.99752 0.51835 0.06173 0.0
Mn549 Mn 0.02652 0.49768 0.07585 0.0
O550 O 0.02001 0.46857 0.01764 0.0
O551 O 0.06231 0.51512 0.06646 0.0
O552 O 0.99053 0.55936 0.01343 0.0
O553 O 0.98972 0.56858 0.96459 0.0
O554 O 0.01053 0.51007 0.11011 0.0
O555 O 0.02095 0.4573 0.06627 0.0
C556 C 0.01457 0.50603 0.9384 0.0
C557 C 0.94227 0.49791 0.99134 0.0
C558 C 0.06806 0.52884 0.04232 0.0
C559 C 0.99256 0.52123 0.09102 0.0
C560 C 0.02217 0.44922 0.03866 0.0
C561 C 0.98792 0.5779 0.99168 0.0
O562 O 0.01353 0.508 0.96854 0.0
O563 O 0.99398 0.51627 0.92174 0.0
H564 H 0.04615 0.10679 0.27547 0.0
H565 H 0.13565 0.08551 0.29254 0.0
H566 H 0.03326 0.08963 0.32552 0.0
H567 H 0.12226 0.06723 0.34214 0.0
H568 H 0.07309 1.00326 0.41039 0.0
H569 H 0.0922 0.02536 0.3643 0.0
H570 H 0.04192 0.10339 0.38066 0.0
H571 H 0.023 0.08109 0.42704 0.0
C572 C 0.06323 0.09875 0.28984 0.0
C573 C 0.09212 0.09796 0.27964 0.0
C574 C 0.05575 0.08884 0.31867 0.0
C575 C 0.07678 0.07739 0.33812 0.0
C576 C 0.10548 0.07588 0.32778 0.0
C577 C 0.11309 0.08619 0.29909 0.0
C578 C 0.06719 0.02575 0.40483 0.0
C579 C 0.04724 0.04085 0.42277 0.0
C580 C 0.07791 0.03832 0.37824 0.0
C581 C 0.06843 0.06607 0.36855 0.0
C582 C 0.04949 0.08186 0.38731 0.0
C583 C 0.03908 0.06942 0.4142 0.0
H584 H 0.44034 0.90548 0.78479 0.0
H585 H 0.43465 0.99495 0.75028 0.0
H586 H 0.45246 0.92756 0.83528 0.0
H587 H 0.44709 0.01721 0.80132 0.0
H588 H 0.51111 0.02543 0.89516 0.0
H589 H 0.49434 0.01546 0.84206 0.0
H590 H 0.42099 0.96 0.8727 0.0
H591 H 0.43755 0.97004 0.92522 0.0
C592 C 0.44198 0.9299 0.78795 0.0
C593 C 0.43661 0.94849 0.7636 0.0
C594 C 0.44867 0.94253 0.81689 0.0
C595 C 0.45042 0.97406 0.82216 0.0
C596 C 0.44579 0.99284 0.79777 0.0
C597 C 0.43859 0.98012 0.76872 0.0
C598 C 0.49058 0.01253 0.89047 0.0
C599 C 0.47536 0.99877 0.91413 0.0
C600 C 0.48116 0.00656 0.86017 0.0
C601 C 0.45665 0.9866 0.85342 0.0
C602 C 0.44008 0.97525 0.87733 0.0
C603 C 0.44934 0.9813 0.90736 0.0
H604 H 0.55054 0.43175 0.73574 0.0
H605 H 0.64066 0.45493 0.71508 0.0
H606 H 0.53602 0.44198 0.6839 0.0
H607 H 0.62596 0.46569 0.66325 0.0
H608 H 0.57172 0.52812 0.59945 0.0
H609 H 0.59793 0.50526 0.64043 0.0
H610 H 0.53968 0.42502 0.6299 0.0
H611 H 0.51348 0.44826 0.58888 0.0
C612 C 0.56732 0.43864 0.72005 0.0
C613 C 0.59675 0.44266 0.72966 0.0
C614 C 0.55902 0.44433 0.69025 0.0
C615 C 0.57993 0.4543 0.66934 0.0
C616 C 0.60938 0.45806 0.67884 0.0
C617 C 0.61772 0.45219 0.70862 0.0
C618 C 0.56586 0.5048 0.60449 0.0
C619 C 0.54083 0.48981 0.59094 0.0
C620 C 0.5806 0.49181 0.6283 0.0
C621 C 0.57036 0.46365 0.6389 0.0
C622 C 0.54772 0.447 0.62254 0.0
C623 C 0.53314 0.45997 0.59859 0.0
H624 H 0.91632 0.62084 0.23602 0.0
H625 H 0.92312 0.52751 0.25821 0.0
H626 H 0.92491 0.60811 0.18284 0.0
H627 H 0.93296 0.51467 0.20509 0.0
H628 H 0.94231 0.49317 0.10811 0.0
H629 H 0.91664 0.50905 0.15337 0.0
H630 H 0.96518 0.59582 0.15387 0.0
H631 H 0.98996 0.57993 0.10835 0.0
C632 C 0.91968 0.59753 0.2294 0.0
C633 C 0.91939 0.5752 0.25121 0.0
C634 C 0.92465 0.59021 0.19893 0.0
C635 C 0.92985 0.5604 0.18948 0.0
C636 C 0.92857 0.53781 0.21127 0.0
C637 C 0.92316 0.54512 0.2418 0.0
C638 C 0.94592 0.51635 0.11677 0.0
C639 C 0.96762 0.5356 0.10431 0.0
C640 C 0.93185 0.52518 0.14326 0.0
C641 C 0.93929 0.55347 0.15785 0.0
C642 C 0.95863 0.57393 0.14333 0.0
C643 C 0.97261 0.56505 0.11682 0.0
H644 H 0.29548 0.06699 0.1314 0.0
H645 H 0.27569 0.09965 0.04253 0.0
H646 H 0.34027 0.04854 0.11319 0.0
H647 H 0.32276 0.08402 0.02502 0.0
H648 H 0.40362 0.03777 0.99387 0.0
H649 H 0.35374 0.04666 0.00983 0.0
H650 H 0.3863 0.06313 0.10223 0.0
H651 H 0.43479 0.05245 0.08639 0.0
C652 C 0.30048 0.07026 0.10782 0.0
C653 C 0.28119 0.08456 0.08849 0.0
C654 C 0.32689 0.06013 0.09742 0.0
C655 C 0.33584 0.06482 0.0675 0.0
C656 C 0.31676 0.07943 0.04808 0.0
C657 C 0.2898 0.08899 0.05836 0.0
C658 C 0.39958 0.04188 0.01776 0.0
C659 C 0.4229 0.04346 0.03906 0.0
C660 C 0.37111 0.04773 0.02691 0.0
C661 C 0.36547 0.0558 0.05749 0.0
C662 C 0.38898 0.0563 0.07869 0.0
C663 C 0.41706 0.05008 0.06963 0.0
H664 H 0.22213 0.89 0.56341 0.0
H665 H 0.25164 0.98455 0.5701 0.0
H666 H 0.17361 0.90398 0.54639 0.0
H667 H 0.2034 0.99828 0.55346 0.0
H668 H 0.11059 0.00504 0.58719 0.0
H669 H 0.15864 0.98687 0.58921 0.0
H670 H 0.1424 0.93763 0.50364 0.0
H671 H 0.09277 0.95664 0.5009 0.0
C672 C 0.21851 0.91366 0.5605 0.0
C673 C 0.24051 0.93625 0.56872 0.0
C674 C 0.19082 0.92158 0.5506 0.0
C675 C 0.18483 0.95216 0.54875 0.0
C676 C 0.20747 0.97452 0.55481 0.0
C677 C 0.23498 0.96667 0.56466 0.0
C678 C 0.11673 0.99039 0.56847 0.0
C679 C 0.09752 0.98266 0.54358 0.0
C680 C 0.14458 0.98006 0.56974 0.0
C681 C 0.1544 0.96137 0.54637 0.0
C682 C 0.13525 0.95232 0.52184 0.0
C683 C 0.10695 0.96313 0.52031 0.0
H684 H 0.78539 0.44532 0.90309 0.0
H685 H 0.75498 0.44625 0.99522 0.0
H686 H 0.8349 0.45949 0.92194 0.0
H687 H 0.80481 0.46011 0.01412 0.0
H688 H 0.89675 0.51887 0.02247 0.0
H689 H 0.84508 0.50362 0.01154 0.0
H690 H 0.87104 0.43065 0.95228 0.0
H691 H 0.92233 0.44596 0.96325 0.0
C692 C 0.78921 0.44902 0.92733 0.0
C693 C 0.76639 0.44451 0.94771 0.0
C694 C 0.81758 0.45674 0.93814 0.0
C695 C 0.82369 0.46027 0.96951 0.0
C696 C 0.80067 0.4573 0.98985 0.0
C697 C 0.77227 0.44931 0.97904 0.0
C698 C 0.89121 0.49873 0.0083 0.0
C699 C 0.9132 0.48309 0.99413 0.0
C700 C 0.86178 0.49023 1.00177 0.0
C701 C 0.85421 0.46632 0.98064 0.0
C702 C 0.87634 0.44944 0.96828 0.0
C703 C 0.9056 0.45781 0.97494 0.0
H704 H 0.72522 0.54648 0.40683 0.0
H705 H 0.75193 0.57128 0.49956 0.0
H706 H 0.67496 0.53965 0.42219 0.0
H707 H 0.70078 0.56542 0.51477 0.0
H708 H 0.60487 0.51385 0.52429 0.0
H709 H 0.65763 0.52505 0.51812 0.0
H710 H 0.63898 0.57585 0.43897 0.0
H711 H 0.58693 0.56417 0.44482 0.0
C712 C 0.7205 0.55014 0.43061 0.0
C713 C 0.7428 0.55945 0.4519 0.0
C714 C 0.69151 0.54667 0.43935 0.0
C715 C 0.6838 0.5526 0.46959 0.0
C716 C 0.70605 0.56086 0.49127 0.0
C717 C 0.73528 0.56441 0.48248 0.0
C718 C 0.61219 0.52834 0.50634 0.0
C719 C 0.59201 0.53819 0.48499 0.0
C720 C 0.64231 0.53458 0.50266 0.0
C721 C 0.65242 0.55068 0.4776 0.0
C722 C 0.63191 0.56275 0.45806 0.0
C723 C 0.6021 0.5564 0.4616 0.0
H724 H 0.0538 0.26887 0.09161 0.0
H725 H 0.13551 0.29897 0.05225 0.0
H726 H 0.03267 0.31473 0.07676 0.0
H727 H 0.11337 0.34266 0.03376 0.0
H728 H 0.07812 0.43615 0.03072 0.0
H729 H 0.09914 0.38862 0.04042 0.0
H730 H 0.0121 0.34551 0.04563 0.0
H731 H 0.99171 0.39432 0.0387 0.0
C732 C 0.0674 0.28504 0.07961 0.0
C733 C 0.09672 0.2796 0.07349 0.0
C734 C 0.05488 0.31147 0.07027 0.0
C735 C 0.07086 0.33327 0.05361 0.0
C736 C 0.09999 0.32738 0.04695 0.0
C737 C 0.11275 0.30146 0.0571 0.0
C738 C 0.06354 0.41618 0.0328 0.0
C739 C 0.03323 0.41883 0.03291 0.0
C740 C 0.07561 0.38854 0.03864 0.0
C741 C 0.05771 0.3623 0.04429 0.0
C742 C 0.02711 0.36482 0.04238 0.0
C743 C 0.01513 0.39277 0.03744 0.0
H744 H 0.62506 0.22971 0.90716 0.0
H745 H 0.53295 0.24425 0.90942 0.0
H746 H 0.61508 0.17723 0.92044 0.0
H747 H 0.52285 0.19213 0.9237 0.0
H748 H 0.50453 0.09808 0.94111 0.0
H749 H 0.52114 0.13976 0.9098 0.0
H750 H 0.60137 0.15074 0.96347 0.0
H751 H 0.58499 0.10857 0.99358 0.0
C752 C 0.60266 0.22165 0.91066 0.0
C753 C 0.57978 0.24106 0.90744 0.0
C754 C 0.59691 0.19154 0.91818 0.0
C755 C 0.56814 0.1802 0.92298 0.0
C756 C 0.54522 0.19968 0.91938 0.0
C757 C 0.55097 0.22969 0.91152 0.0
C758 C 0.52656 0.10806 0.94466 0.0
C759 C 0.54361 0.10007 0.96955 0.0
C760 C 0.53578 0.13253 0.92732 0.0
C761 C 0.56216 0.14937 0.93475 0.0
C762 C 0.58093 0.13847 0.95695 0.0
C763 C 0.57175 0.1139 0.97405 0.0
H764 H 0.90863 0.78075 0.42956 0.0
H765 H 0.96767 0.74692 0.49575 0.0
H766 H 0.9261 0.83278 0.44411 0.0
H767 H 0.98582 0.79922 0.51 0.0
H768 H 0.02676 0.90047 0.47912 0.0
H769 H 0.01286 0.84604 0.47851 0.0
H770 H 0.92389 0.86594 0.49652 0.0
H771 H 0.93799 0.92001 0.49808 0.0
C772 C 0.9255 0.78457 0.44711 0.0
C773 C 0.93688 0.76005 0.46156 0.0
C774 C 0.93536 0.81425 0.45558 0.0
C775 C 0.95709 0.82002 0.47844 0.0
C776 C 0.96901 0.79539 0.49241 0.0
C777 C 0.95872 0.7656 0.48426 0.0
C778 C 1.00474 0.89312 0.48509 0.0
C779 C 0.98365 0.9145 0.48946 0.0
C780 C 0.99664 0.86198 0.48419 0.0
C781 C 0.9672 0.85183 0.48698 0.0
C782 C 0.9467 0.87313 0.49416 0.0
C783 C 0.95492 0.90409 0.4957 0.0
H784 H 0.46228 0.77083 0.53842 0.0
H785 H 0.39149 0.7232 0.58286 0.0
H786 H 0.48052 0.72232 0.52078 0.0
H787 H 0.40981 0.67483 0.56609 0.0
H788 H 0.43128 0.59326 0.51282 0.0
H789 H 0.41461 0.64444 0.51898 0.0
H790 H 0.50283 0.67816 0.54281 0.0
H791 H 0.51926 0.62681 0.53655 0.0
C792 C 0.45088 0.74987 0.54455 0.0
C793 C 0.42563 0.75037 0.56187 0.0
C794 C 0.4612 0.72223 0.53448 0.0
C795 C 0.44636 0.69478 0.54166 0.0
C796 C 0.4213 0.69556 0.55948 0.0
C797 C 0.41097 0.72312 0.56936 0.0
C798 C 0.44725 0.61193 0.51786 0.0
C799 C 0.4766 0.60645 0.5235 0.0
C800 C 0.43768 0.64109 0.52197 0.0
C801 C 0.45736 0.66524 0.53181 0.0
C802 C 0.48719 0.66007 0.53504 0.0
C803 C 0.49668 0.63079 0.5312 0.0
H804 H 0.93053 0.88993 0.73284 0.0
H805 H 0.91981 0.98491 0.75196 0.0
H806 H 0.94589 0.90137 0.68152 0.0
H807 H 0.93475 0.99619 0.70088 0.0
H808 H 0.93617 0.0087 0.60173 0.0
H809 H 0.91689 0.98997 0.64919 0.0
H810 H 0.98453 0.92635 0.65236 0.0
H811 H 1.00316 0.94479 0.60432 0.0
C812 C 0.93169 0.91328 0.72629 0.0
C813 C 0.92348 0.93641 0.74661 0.0
C814 C 0.94038 0.91982 0.69674 0.0
C815 C 0.94097 0.94964 0.68668 0.0
C816 C 0.93367 0.97282 0.70736 0.0
C817 C 0.92514 0.96633 0.73682 0.0
C818 C 0.94596 0.9897 0.61185 0.0
C819 C 0.97057 0.97757 0.59889 0.0
C820 C 0.93538 0.97939 0.63942 0.0
C821 C 0.94946 0.95699 0.65503 0.0
C822 C 0.97296 0.94344 0.64097 0.0
C823 C 0.98346 0.95373 0.61324 0.0
H824 H 0.60402 0.0423 0.26147 0.0
H825 H 0.56871 0.12692 0.23758 0.0
H826 H 0.58875 0.02038 0.21132 0.0
H827 H 0.55217 0.10428 0.18877 0.0
H828 H 0.49633 0.04639 0.12303 0.0
H829 H 0.51319 0.05574 0.17558 0.0
H830 H 0.60085 0.03744 0.15008 0.0
H831 H 0.58385 0.02845 0.09687 0.0
C832 C 0.59313 0.0563 0.24571 0.0
C833 C 0.58734 0.08641 0.25396 0.0
C834 C 0.58429 0.0436 0.2171 0.0
C835 C 0.56904 0.06057 0.19651 0.0
C836 C 0.56351 0.09059 0.20453 0.0
C837 C 0.57278 0.10344 0.2327 0.0
C838 C 0.51894 0.043 0.1289 0.0
C839 C 0.53878 0.03638 0.10613 0.0
C840 C 0.52861 0.04862 0.15885 0.0
C841 C 0.5583 0.04755 0.16667 0.0
C842 C 0.5778 0.03818 0.1445 0.0
C843 C 0.56809 0.03279 0.11422 0.0
H844 H 0.41408 0.64171 0.31424 0.0
H845 H 0.42077 0.55114 0.27653 0.0
H846 H 0.42687 0.62432 0.36492 0.0
H847 H 0.43362 0.53391 0.32659 0.0
H848 H 0.42951 0.49922 0.4154 0.0
H849 H 0.4072 0.52652 0.37489 0.0
H850 H 0.46965 0.60224 0.39315 0.0
H851 H 0.49153 0.57488 0.43423 0.0
C852 C 0.41858 0.6182 0.31679 0.0
C853 C 0.41606 0.5976 0.29165 0.0
C854 C 0.42571 0.60826 0.34573 0.0
C855 C 0.43033 0.57759 0.34987 0.0
C856 C 0.42908 0.55745 0.32436 0.0
C857 C 0.42195 0.56731 0.29565 0.0
C858 C 0.43714 0.52249 0.41216 0.0
C859 C 0.46205 0.53505 0.428 0.0
C860 C 0.42483 0.53789 0.38849 0.0
C861 C 0.43735 0.56606 0.38022 0.0
C862 C 0.45964 0.58048 0.39889 0.0
C863 C 0.4719 0.56501 0.42274 0.0
H864 H 0.03231 0.4469 0.76752 0.0
H865 H 0.12398 0.44263 0.7904 0.0
H866 H 0.0231 0.46303 0.82009 0.0
H867 H 0.11456 0.45907 0.84297 0.0
H868 H 0.02967 0.44751 0.93062 0.0
H869 H 0.05101 0.42817 0.88346 0.0
H870 H 0.07053 0.5196 0.8567 0.0
H871 H 0.05003 0.5388 0.90372 0.0
C872 C 0.05042 0.44923 0.78379 0.0
C873 C 0.07885 0.4434 0.77486 0.0
C874 C 0.04513 0.45838 0.81378 0.0
C875 C 0.06811 0.4617 0.83543 0.0
C876 C 0.09655 0.45629 0.82661 0.0
C877 C 0.1019 0.44721 0.79655 0.0
C878 C 0.04036 0.46334 0.91566 0.0
C879 C 0.03897 0.49462 0.92123 0.0
C880 C 0.052 0.45234 0.88846 0.0
C881 C 0.06226 0.47254 0.86667 0.0
C882 C 0.06315 0.50368 0.87341 0.0
C883 C 0.05186 0.5146 0.90056 0.0
H884 H 0.71774 0.89814 0.93901 0.0
H885 H 0.76171 0.98602 0.95672 0.0
H886 H 0.67084 0.91923 0.94973 0.0
H887 H 0.71449 0.00719 0.96834 0.0
H888 H 0.61861 0.00931 0.01994 0.0
H889 H 0.66959 0.99771 0.00957 0.0
H890 H 0.64215 0.9599 0.92121 0.0
H891 H 0.5921 0.97179 0.9312 0.0
C892 C 0.71736 0.92193 0.94552 0.0
C893 C 0.74336 0.94041 0.94705 0.0
C894 C 0.69051 0.93406 0.95158 0.0
C895 C 0.68893 0.96491 0.9599 0.0
C896 C 0.71502 0.98335 0.96213 0.0
C897 C 0.74196 0.97129 0.95535 0.0
C898 C 0.6238 0.99972 0.99788 0.0
C899 C 0.60134 0.99162 0.97632 0.0
C900 C 0.65289 0.9928 0.99204 0.0
C901 C 0.65975 0.97739 0.96474 0.0
C902 C 0.63756 0.97137 0.94258 0.0
C903 C 0.60889 0.97846 0.94823 0.0
H904 H 0.80153 0.13874 0.45723 0.0
H905 H 0.77117 0.045 0.44278 0.0
H906 H 0.84862 0.12294 0.47603 0.0
H907 H 0.81823 0.02929 0.46002 0.0
H908 H 0.8985 1.00413 0.50679 0.0
H909 H 0.85088 0.02565 0.50191 0.0
H910 H 0.89082 0.10078 0.45468 0.0
H911 H 0.93851 0.07942 0.46061 0.0
C912 C 0.80478 0.11479 0.45839 0.0
C913 C 0.78271 0.09313 0.44821 0.0
C914 C 0.83186 0.10573 0.46886 0.0
C915 C 0.83735 0.07483 0.46948 0.0
C916 C 0.81479 0.05327 0.46033 0.0
C917 C 0.78785 0.06229 0.44999 0.0
C918 C 0.89707 0.02573 0.49627 0.0
C919 C 0.92194 0.04039 0.48433 0.0
C920 C 0.86982 0.03791 0.49311 0.0
C921 C 0.86688 0.06478 0.47753 0.0
C922 C 0.89224 0.08024 0.46707 0.0
C923 C 0.91955 0.06807 0.47039 0.0
H924 H 0.21853 0.64589 0.085 0.0
H925 H 0.25603 0.55978 0.07038 0.0
H926 H 0.17115 0.624 0.06631 0.0
H927 H 0.20922 0.53804 0.04988 0.0
H928 H 0.11518 0.50083 0.06028 0.0
H929 H 0.16446 0.52218 0.06795 0.0
H930 H 0.14052 0.60406 0.02569 0.0
H931 H 0.08997 0.58262 0.01939 0.0
C932 C 0.2166 0.62232 0.0773 0.0
C933 C 0.2407 0.60437 0.07932 0.0
C934 C 0.18956 0.60982 0.06624 0.0
C935 C 0.18616 0.57918 0.05646 0.0
C936 C 0.21072 0.56154 0.05772 0.0
C937 C 0.23759 0.57391 0.0694 0.0
C938 C 0.12051 0.52325 0.05215 0.0
C939 C 0.09871 0.54024 0.03956 0.0
C940 C 0.14899 0.53547 0.05631 0.0
C941 C 0.15668 0.56505 0.04772 0.0
C942 C 0.13526 0.5814 0.03313 0.0
C943 C 0.10643 0.56906 0.02906 0.0
H944 H 0.24868 0.44936 0.52874 0.0
H945 H 0.28221 0.45817 0.6212 0.0
H946 H 0.29864 0.45661 0.51019 0.0
H947 H 0.33153 0.46594 0.60282 0.0
H948 H 0.41769 0.44817 0.56799 0.0
H949 H 0.36641 0.43412 0.57658 0.0
H950 H 0.34097 0.49731 0.51008 0.0
H951 H 0.39277 0.51094 0.50112 0.0
C952 C 0.26665 0.45293 0.54507 0.0
C953 C 0.26145 0.45323 0.57647 0.0
C954 C 0.29519 0.4572 0.53444 0.0
C955 C 0.31906 0.46139 0.55503 0.0
C956 C 0.31369 0.46218 0.58634 0.0
C957 C 0.28532 0.45816 0.5969 0.0
C958 C 0.40113 0.4581 0.55431 0.0
C959 C 0.40906 0.48036 0.53371 0.0
C960 C 0.37178 0.45041 0.55952 0.0
C961 C 0.34965 0.46513 0.54453 0.0
C962 C 0.35754 0.48558 0.52196 0.0
C963 C 0.38712 0.49321 0.51663 0.0
H964 H 0.94311 0.73137 0.90422 0.0
H965 H 0.92562 0.76508 0.99483 0.0
H966 H 0.95732 0.68401 0.92456 0.0
H967 H 0.93982 0.7169 0.01524 0.0
H968 H 0.00676 0.63081 0.02523 0.0
H969 H 0.99052 0.68199 0.0155 0.0
H970 H 0.9244 0.64266 0.95246 0.0
H971 H 0.93941 0.59251 0.96293 0.0
C972 C 0.94258 0.72889 0.92856 0.0
C973 C 0.93331 0.75234 0.94781 0.0
C974 C 0.95062 0.70157 0.94022 0.0
C975 C 0.94983 0.6967 0.97155 0.0
C976 C 0.94094 0.72011 0.99104 0.0
C977 C 0.93252 0.74755 0.97928 0.0
C978 C 0.98796 0.63315 0.01041 0.0
C979 C 0.97433 0.60753 0.99498 0.0
C980 C 0.97885 0.66242 1.00457 0.0
C981 C 0.95648 0.66635 0.98278 0.0
C982 C 0.9418 0.64052 0.96913 0.0
C983 C 0.95033 0.6117 0.97538 0.0
H984 H 0.48141 0.79523 0.11068 0.0
H985 H 0.39103 0.81685 0.11429 0.0
H986 H 0.49479 0.84621 0.09495 0.0
H987 H 0.40437 0.86826 0.09936 0.0
H988 H 0.43922 0.93329 0.02442 0.0
H989 H 0.41979 0.89293 0.05532 0.0
H990 H 0.5001 0.89873 0.10898 0.0
H991 H 0.51975 0.93845 0.07687 0.0
C992 C 0.46449 0.81111 0.10856 0.0
C993 C 0.43521 0.80208 0.1136 0.0
C994 C 0.47214 0.84047 0.09984 0.0
C995 C 0.45071 0.86163 0.09628 0.0
C996 C 0.42142 0.8526 0.10172 0.0
C997 C 0.41376 0.82312 0.11016 0.0
C998 C 0.45193 0.92727 0.04407 0.0
C999 C 0.48088 0.93897 0.04841 0.0
C1000 C 0.44096 0.90376 0.06163 0.0
C1001 C 0.45876 0.89183 0.08406 0.0
C1002 C 0.48615 0.90677 0.09127 0.0
C1003 C 0.49717 0.93012 0.07345 0.0
H1004 H 0.0669 0.23943 0.60518 0.0
H1005 H 0.05659 0.26918 0.51355 0.0
H1006 H 0.04947 0.1881 0.58816 0.0
H1007 H 0.03949 0.21747 0.49658 0.0
H1008 H 0.98298 0.11243 0.54545 0.0
H1009 H 0.99088 0.16765 0.5467 0.0
H1010 H 0.07834 0.15912 0.51511 0.0
H1011 H 0.07055 0.10393 0.51421 0.0
C1012 C 0.06036 0.23516 0.58156 0.0
C1013 C 0.06306 0.25835 0.56071 0.0
C1014 C 0.05052 0.20582 0.57184 0.0
C1015 C 0.04313 0.1991 0.54114 0.0
C1016 C 0.04511 0.22226 0.52035 0.0
C1017 C 0.05494 0.25169 0.53007 0.0
C1018 C 1.00312 0.12237 0.53669 0.0
C1019 C 0.02595 0.10393 0.52916 0.0
C1020 C 0.0078 0.15393 0.53791 0.0
C1021 C 0.03522 0.1674 0.53113 0.0
C1022 C 0.0569 0.14915 0.52008 0.0
C1023 C 0.05226 0.11758 0.51907 0.0
H1024 H 0.60724 0.30288 0.42196 0.0
H1025 H 0.57481 0.2599 0.5018 0.0
H1026 H 0.58515 0.34972 0.43797 0.0
H1027 H 0.55183 0.30669 0.51751 0.0
H1028 H 0.48749 0.39001 0.49498 0.0
H1029 H 0.50961 0.34083 0.48984 0.0
H1030 H 0.59514 0.38692 0.48818 0.0
H1031 H 0.5732 0.43561 0.49434 0.0
C1032 C 0.59526 0.30355 0.44288 0.0
C1033 C 0.59273 0.27809 0.4608 0.0
C1034 C 0.58274 0.33025 0.45207 0.0
C1035 C 0.56699 0.33172 0.47905 0.0
C1036 C 0.56393 0.30602 0.49668 0.0
C1037 C 0.57706 0.27944 0.48779 0.0
C1038 C 0.51106 0.38936 0.49515 0.0
C1039 C 0.52878 0.41635 0.4959 0.0
C1040 C 0.52368 0.36139 0.49188 0.0
C1041 C 0.55401 0.36028 0.48842 0.0
C1042 C 0.57172 0.38724 0.49084 0.0
C1043 C 0.55922 0.41499 0.49478 0.0
loop_
_geom_bond_atom_site_label_1
_geom_bond_atom_site_label_2
_geom_bond_distance
_geom_bond_site_symmetry_2
_ccdc_geom_bond_type
C0 C1 1.391 . S
C0 C4 1.391 . S
C0 H42 0.948 . S
C1 C0 1.391 . S
C1 C2 1.391 . S
C2 C1 1.391 . S
C2 H58 0.947 . S
C2 C59 1.392 . S
C3 C4 1.391 . S
C3 C7 1.397 . S
C3 C59 1.419 . S
C4 C0 1.391 . S
C4 C3 1.391 . S
C4 C5 1.399 . S
C5 C4 1.399 . S
C5 C8 1.396 . S
C5 C17 1.453 . S
C5 C18 1.684 . S
H6 C30 0.948 . S
C7 C3 1.397 . S
C7 C8 1.394 . S
C7 C26 1.723 . S
C8 C5 1.396 . S
C8 C7 1.394 . S
C8 C38 1.723 . S
H9 C32 0.947 . S
H10 C33 0.948 . S
H11 C39 0.982 . S
H12 C40 0.979 . S
H13 C40 0.980 . S
H14 C40 0.983 . S
H15 C39 0.979 . S
H16 C39 0.977 . S
C17 C5 1.453 . S
C17 H46 0.982 . S
C17 H47 0.979 . S
C17 H48 0.977 . S
C18 C5 1.684 . S
C18 H43 0.979 . S
C18 H44 0.980 . S
C18 H45 0.983 . S
C19 C20 1.391 . S
C19 C24 1.391 . S
C19 H49 0.948 . S
C20 C19 1.391 . S
C20 C21 1.391 . S
C21 C20 1.391 . S
C21 C22 1.392 . S
C21 H50 0.947 . S
C22 C21 1.392 . S
C22 C23 1.419 . S
C22 H51 0.948 . S
C23 C22 1.419 . S
C23 C24 1.391 . S
C23 C27 1.397 . S
C24 C19 1.391 . S
C24 C23 1.391 . S
C24 C25 1.399 . S
C25 C24 1.399 . S
C25 C26 1.396 . S
C25 C28 1.453 . S
C25 C29 1.684 . S
C26 C7 1.723 . S
C26 C25 1.396 . S
C26 C27 1.394 . S
C27 C23 1.397 . S
C27 C26 1.394 . S
C27 C37 1.723 . S
C28 C25 1.453 . S
C28 H52 0.982 . S
C28 H53 0.979 . S
C28 H54 0.977 . S
C29 C25 1.684 . S
C29 H55 0.979 . S
C29 H56 0.980 . S
C29 H57 0.983 . S
C30 H6 0.948 . S
C30 C31 1.391 . S
C30 C35 1.391 . S
C31 C30 1.391 . S
C31 C32 1.391 . S
C32 H9 0.947 . S
C32 C31 1.391 . S
C32 C33 1.392 . S
C33 H10 0.948 . S
C33 C32 1.392 . S
C33 C34 1.419 . S
C34 C33 1.419 . S
C34 C35 1.391 . S
C34 C38 1.397 . S
C35 C30 1.391 . S
C35 C34 1.391 . S
C35 C36 1.399 . S
C36 C35 1.399 . S
C36 C37 1.396 . S
C36 C39 1.453 . S
C36 C40 1.684 . S
C37 C27 1.723 . S
C37 C36 1.396 . S
C37 C38 1.394 . S
C38 C8 1.723 . S
C38 C34 1.397 . S
C38 C37 1.394 . S
C39 H11 0.982 . S
C39 H15 0.979 . S
C39 H16 0.977 . S
C39 C36 1.453 . S
C40 H12 0.979 . S
C40 H13 0.980 . S
C40 H14 0.983 . S
C40 C36 1.684 . S
H41 C59 0.948 . S
H42 C0 0.948 . S
H43 C18 0.979 . S
H44 C18 0.980 . S
H45 C18 0.983 . S
H46 C17 0.982 . S
H47 C17 0.979 . S
H48 C17 0.977 . S
H49 C19 0.948 . S
H50 C21 0.947 . S
H51 C22 0.948 . S
H52 C28 0.982 . S
H53 C28 0.979 . S
H54 C28 0.977 . S
H55 C29 0.979 . S
H56 C29 0.980 . S
H57 C29 0.983 . S
H58 C2 0.947 . S
C59 C2 1.392 . S
C59 C3 1.419 . S
C59 H41 0.948 . S
C60 C61 1.391 . S
C60 C64 1.391 . S
C60 H102 0.948 . S
C61 C60 1.391 . S
C61 C62 1.391 . S
C62 C61 1.391 . S
C62 H118 0.947 . S
C62 C119 1.392 . S
C63 C64 1.391 . S
C63 C67 1.397 . S
C63 C119 1.419 . S
C64 C60 1.391 . S
C64 C63 1.391 . S
C64 C65 1.399 . S
C65 C64 1.399 . S
C65 C68 1.396 . S
C65 C77 1.453 . S
C65 C78 1.684 . S
H66 C90 0.948 . S
C67 C63 1.397 . S
C67 C68 1.394 . S
C67 C86 1.723 . S
C68 C65 1.396 . S
C68 C67 1.394 . S
C68 C98 1.723 . S
H69 C92 0.947 . S
H70 C93 0.948 . S
H71 C99 0.982 . S
H72 C100 0.979 . S
H73 C100 0.980 . S
H74 C100 0.983 . S
H75 C99 0.979 . S
H76 C99 0.977 . S
C77 C65 1.453 . S
C77 H106 0.982 . S
C77 H107 0.979 . S
C77 H108 0.977 . S
C78 C65 1.684 . S
C78 H103 0.979 . S
C78 H104 0.980 . S
C78 H105 0.983 . S
C79 C80 1.391 . S
C79 C84 1.391 . S
C79 H109 0.948 . S
C80 C79 1.391 . S
C80 C81 1.391 . S
C81 C80 1.391 . S
C81 C82 1.392 . S
C81 H110 0.947 . S
C82 C81 1.392 . S
C82 C83 1.419 . S
C82 H111 0.948 . S
C83 C82 1.419 . S
C83 C84 1.391 . S
C83 C87 1.397 . S
C84 C79 1.391 . S
C84 C83 1.391 . S
C84 C85 1.399 . S
C85 C84 1.399 . S
C85 C86 1.396 . S
C85 C88 1.453 . S
C85 C89 1.684 . S
C86 C67 1.723 . S
C86 C85 1.396 . S
C86 C87 1.394 . S
C87 C83 1.397 . S
C87 C86 1.394 . S
C87 C97 1.723 . S
C88 C85 1.453 . S
C88 H112 0.982 . S
C88 H113 0.979 . S
C88 H114 0.977 . S
C89 C85 1.684 . S
C89 H115 0.979 . S
C89 H116 0.980 . S
C89 H117 0.983 . S
C90 H66 0.948 . S
C90 C91 1.391 . S
C90 C95 1.391 . S
C91 C90 1.391 . S
C91 C92 1.391 . S
C92 H69 0.947 . S
C92 C91 1.391 . S
C92 C93 1.392 . S
C93 H70 0.948 . S
C93 C92 1.392 . S
C93 C94 1.419 . S
C94 C93 1.419 . S
C94 C95 1.391 . S
C94 C98 1.397 . S
C95 C90 1.391 . S
C95 C94 1.391 . S
C95 C96 1.399 . S
C96 C95 1.399 . S
C96 C97 1.396 . S
C96 C99 1.453 . S
C96 C100 1.684 . S
C97 C87 1.723 . S
C97 C96 1.396 . S
C97 C98 1.394 . S
C98 C68 1.723 . S
C98 C94 1.397 . S
C98 C97 1.394 . S
C99 H71 0.982 . S
C99 H75 0.979 . S
C99 H76 0.977 . S
C99 C96 1.453 . S
C100 H72 0.979 . S
C100 H73 0.980 . S
C100 H74 0.983 . S
C100 C96 1.684 . S
H101 C119 0.948 . S
H102 C60 0.948 . S
H103 C78 0.979 . S
H104 C78 0.980 . S
H105 C78 0.983 . S
H106 C77 0.982 . S
H107 C77 0.979 . S
H108 C77 0.977 . S
H109 C79 0.948 . S
H110 C81 0.947 . S
H111 C82 0.948 . S
H112 C88 0.982 . S
H113 C88 0.979 . S
H114 C88 0.977 . S
H115 C89 0.979 . S
H116 C89 0.980 . S
H117 C89 0.983 . S
H118 C62 0.947 . S
C119 C62 1.392 . S
C119 C63 1.419 . S
C119 H101 0.948 . S
C120 C121 1.391 . S
C120 C124 1.391 . S
C120 H162 0.948 . S
C121 C120 1.391 . S
C121 C122 1.391 . S
C122 C121 1.391 . S
C122 H178 0.947 . S
C122 C179 1.392 . S
C123 C124 1.391 . S
C123 C127 1.397 . S
C123 C179 1.419 . S
C124 C120 1.391 . S
C124 C123 1.391 . S
C124 C125 1.399 . S
C125 C124 1.399 . S
C125 C128 1.396 . S
C125 C137 1.453 . S
C125 C138 1.684 . S
H126 C150 0.948 . S
C127 C123 1.397 . S
C127 C128 1.394 . S
C127 C146 1.723 . S
C128 C125 1.396 . S
C128 C127 1.394 . S
C128 C158 1.723 . S
H129 C152 0.947 . S
H130 C153 0.948 . S
H131 C159 0.982 . S
H132 C160 0.979 . S
H133 C160 0.980 . S
H134 C160 0.983 . S
H135 C159 0.979 . S
H136 C159 0.977 . S
C137 C125 1.453 . S
C137 H166 0.982 . S
C137 H167 0.979 . S
C137 H168 0.977 . S
C138 C125 1.684 . S
C138 H163 0.979 . S
C138 H164 0.980 . S
C138 H165 0.983 . S
C139 C140 1.391 . S
C139 C144 1.391 . S
C139 H169 0.948 . S
C140 C139 1.391 . S
C140 C141 1.391 . S
C141 C140 1.391 . S
C141 C142 1.392 . S
C141 H170 0.947 . S
C142 C141 1.392 . S
C142 C143 1.419 . S
C142 H171 0.948 . S
C143 C142 1.419 . S
C143 C144 1.391 . S
C143 C147 1.397 . S
C144 C139 1.391 . S
C144 C143 1.391 . S
C144 C145 1.399 . S
C145 C144 1.399 . S
C145 C146 1.396 . S
C145 C148 1.453 . S
C145 C149 1.684 . S
C146 C127 1.723 . S
C146 C145 1.396 . S
C146 C147 1.394 . S
C147 C143 1.397 . S
C147 C146 1.394 . S
C147 C157 1.723 . S
C148 C145 1.453 . S
C148 H172 0.982 . S
C148 H173 0.979 . S
C148 H174 0.977 . S
C149 C145 1.684 . S
C149 H175 0.979 . S
C149 H176 0.980 . S
C149 H177 0.983 . S
C150 H126 0.948 . S
C150 C151 1.391 . S
C150 C155 1.391 . S
C151 C150 1.391 . S
C151 C152 1.391 . S
C152 H129 0.947 . S
C152 C151 1.391 . S
C152 C153 1.392 . S
C153 H130 0.948 . S
C153 C152 1.392 . S
C153 C154 1.419 . S
C154 C153 1.419 . S
C154 C155 1.391 . S
C154 C158 1.397 . S
C155 C150 1.391 . S
C155 C154 1.391 . S
C155 C156 1.399 . S
C156 C155 1.399 . S
C156 C157 1.396 . S
C156 C159 1.453 . S
C156 C160 1.684 . S
C157 C147 1.723 . S
C157 C156 1.396 . S
C157 C158 1.394 . S
C158 C128 1.723 . S
C158 C154 1.397 . S
C158 C157 1.394 . S
C159 H131 0.982 . S
C159 H135 0.979 . S
C159 H136 0.977 . S
C159 C156 1.453 . S
C160 H132 0.979 . S
C160 H133 0.980 . S
C160 H134 0.983 . S
C160 C156 1.684 . S
H161 C179 0.948 . S
H162 C120 0.948 . S
H163 C138 0.979 . S
H164 C138 0.980 . S
H165 C138 0.983 . S
H166 C137 0.982 . S
H167 C137 0.979 . S
H168 C137 0.977 . S
H169 C139 0.948 . S
H170 C141 0.947 . S
H171 C142 0.948 . S
H172 C148 0.982 . S
H173 C148 0.979 . S
H174 C148 0.977 . S
H175 C149 0.979 . S
H176 C149 0.980 . S
H177 C149 0.983 . S
H178 C122 0.947 . S
C179 C122 1.392 . S
C179 C123 1.419 . S
C179 H161 0.948 . S
C180 C181 1.391 . S
C180 C184 1.391 . S
C180 H222 0.948 . S
C181 C180 1.391 . S
C181 C182 1.391 . S
C182 C181 1.391 . S
C182 H238 0.947 . S
C182 C239 1.392 . S
C183 C184 1.391 . S
C183 C187 1.397 . S
C183 C239 1.419 . S
C184 C180 1.391 . S
C184 C183 1.391 . S
C184 C185 1.399 . S
C185 C184 1.399 . S
C185 C188 1.396 . S
C185 C197 1.453 . S
C185 C198 1.684 . S
H186 C210 0.948 . S
C187 C183 1.397 . S
C187 C188 1.394 . S
C187 C206 1.723 . S
C188 C185 1.396 . S
C188 C187 1.394 . S
C188 C218 1.723 . S
H189 C212 0.947 . S
H190 C213 0.948 . S
H191 C219 0.982 . S
H192 C220 0.979 . S
H193 C220 0.980 . S
H194 C220 0.983 . S
H195 C219 0.979 . S
H196 C219 0.977 . S
C197 C185 1.453 . S
C197 H226 0.982 . S
C197 H227 0.979 . S
C197 H228 0.977 . S
C198 C185 1.684 . S
C198 H223 0.979 . S
C198 H224 0.980 . S
C198 H225 0.983 . S
C199 C200 1.391 . S
C199 C204 1.391 . S
C199 H229 0.948 . S
C200 C199 1.391 . S
C200 C201 1.391 . S
C201 C200 1.391 . S
C201 C202 1.392 . S
C201 H230 0.947 . S
C202 C201 1.392 . S
C202 C203 1.419 . S
C202 H231 0.948 . S
C203 C202 1.419 . S
C203 C204 1.391 . S
C203 C207 1.397 . S
C204 C199 1.391 . S
C204 C203 1.391 . S
C204 C205 1.399 . S
C205 C204 1.399 . S
C205 C206 1.396 . S
C205 C208 1.453 . S
C205 C209 1.684 . S
C206 C187 1.723 . S
C206 C205 1.396 . S
C206 C207 1.394 . S
C207 C203 1.397 . S
C207 C206 1.394 . S
C207 C217 1.723 . S
C208 C205 1.453 . S
C208 H232 0.982 . S
C208 H233 0.979 . S
C208 H234 0.977 . S
C209 C205 1.684 . S
C209 H235 0.979 . S
C209 H236 0.980 . S
C209 H237 0.983 . S
C210 H186 0.948 . S
C210 C211 1.391 . S
C210 C215 1.391 . S
C211 C210 1.391 . S
C211 C212 1.391 . S
C212 H189 0.947 . S
C212 C211 1.391 . S
C212 C213 1.392 . S
C213 H190 0.948 . S
C213 C212 1.392 . S
C213 C214 1.419 . S
C214 C213 1.419 . S
C214 C215 1.391 . S
C214 C218 1.397 . S
C215 C210 1.391 . S
C215 C214 1.391 . S
C215 C216 1.399 . S
C216 C215 1.399 . S
C216 C217 1.396 . S
C216 C219 1.453 . S
C216 C220 1.684 . S
C217 C207 1.723 . S
C217 C216 1.396 . S
C217 C218 1.394 . S
C218 C188 1.723 . S
C218 C214 1.397 . S
C218 C217 1.394 . S
C219 H191 0.982 . S
C219 H195 0.979 . S
C219 H196 0.977 . S
C219 C216 1.453 . S
C220 H192 0.979 . S
C220 H193 0.980 . S
C220 H194 0.983 . S
C220 C216 1.684 . S
H221 C239 0.948 . S
H222 C180 0.948 . S
H223 C198 0.979 . S
H224 C198 0.980 . S
H225 C198 0.983 . S
H226 C197 0.982 . S
H227 C197 0.979 . S
H228 C197 0.977 . S
H229 C199 0.948 . S
H230 C201 0.947 . S
H231 C202 0.948 . S
H232 C208 0.982 . S
H233 C208 0.979 . S
H234 C208 0.977 . S
H235 C209 0.979 . S
H236 C209 0.980 . S
H237 C209 0.983 . S
H238 C182 0.947 . S
C239 C182 1.392 . S
C239 C183 1.419 . S
C239 H221 0.948 . S
C240 C241 1.391 . S
C240 C244 1.391 . S
C240 H282 0.948 . S
C241 C240 1.391 . S
C241 C242 1.391 . S
C242 C241 1.391 . S
C242 H298 0.947 . S
C242 C299 1.392 . S
C243 C244 1.391 . S
C243 C247 1.397 . S
C243 C299 1.419 . S
C244 C240 1.391 . S
C244 C243 1.391 . S
C244 C245 1.399 . S
C245 C244 1.399 . S
C245 C248 1.396 . S
C245 C257 1.453 . S
C245 C258 1.684 . S
H246 C270 0.948 . S
C247 C243 1.397 . S
C247 C248 1.394 . S
C247 C266 1.723 . S
C248 C245 1.396 . S
C248 C247 1.394 . S
C248 C278 1.723 . S
H249 C272 0.947 . S
H250 C273 0.948 . S
H251 C279 0.982 . S
H252 C280 0.979 . S
H253 C280 0.980 . S
H254 C280 0.983 . S
H255 C279 0.979 . S
H256 C279 0.977 . S
C257 C245 1.453 . S
C257 H286 0.982 . S
C257 H287 0.979 . S
C257 H288 0.977 . S
C258 C245 1.684 . S
C258 H283 0.979 . S
C258 H284 0.980 . S
C258 H285 0.983 . S
C259 C260 1.391 . S
C259 C264 1.391 . S
C259 H289 0.948 . S
C260 C259 1.391 . S
C260 C261 1.391 . S
C261 C260 1.391 . S
C261 C262 1.392 . S
C261 H290 0.947 . S
C262 C261 1.392 . S
C262 C263 1.419 . S
C262 H291 0.948 . S
C263 C262 1.419 . S
C263 C264 1.391 . S
C263 C267 1.397 . S
C264 C259 1.391 . S
C264 C263 1.391 . S
C264 C265 1.399 . S
C265 C264 1.399 . S
C265 C266 1.396 . S
C265 C268 1.453 . S
C265 C269 1.684 . S
C266 C247 1.723 . S
C266 C265 1.396 . S
C266 C267 1.394 . S
C267 C263 1.397 . S
C267 C266 1.394 . S
C267 C277 1.723 . S
C268 C265 1.453 . S
C268 H292 0.982 . S
C268 H293 0.979 . S
C268 H294 0.977 . S
C269 C265 1.684 . S
C269 H295 0.979 . S
C269 H296 0.980 . S
C269 H297 0.983 . S
C270 H246 0.948 . S
C270 C271 1.391 . S
C270 C275 1.391 . S
C271 C270 1.391 . S
C271 C272 1.391 . S
C272 H249 0.947 . S
C272 C271 1.391 . S
C272 C273 1.392 . S
C273 H250 0.948 . S
C273 C272 1.392 . S
C273 C274 1.419 . S
C274 C273 1.419 . S
C274 C275 1.391 . S
C274 C278 1.397 . S
C275 C270 1.391 . S
C275 C274 1.391 . S
C275 C276 1.399 . S
C276 C275 1.399 . S
C276 C277 1.396 . S
C276 C279 1.453 . S
C276 C280 1.684 . S
C277 C267 1.723 . S
C277 C276 1.396 . S
C277 C278 1.394 . S
C278 C248 1.723 . S
C278 C274 1.397 . S
C278 C277 1.394 . S
C279 H251 0.982 . S
C279 H255 0.979 . S
C279 H256 0.977 . S
C279 C276 1.453 . S
C280 H252 0.979 . S
C280 H253 0.980 . S
C280 H254 0.983 . S
C280 C276 1.684 . S
H281 C299 0.948 . S
H282 C240 0.948 . S
H283 C258 0.979 . S
H284 C258 0.980 . S
H285 C258 0.983 . S
H286 C257 0.982 . S
H287 C257 0.979 . S
H288 C257 0.977 . S
H289 C259 0.948 . S
H290 C261 0.947 . S
H291 C262 0.948 . S
H292 C268 0.982 . S
H293 C268 0.979 . S
H294 C268 0.977 . S
H295 C269 0.979 . S
H296 C269 0.980 . S
H297 C269 0.983 . S
H298 C242 0.947 . S
C299 C242 1.392 . S
C299 C243 1.419 . S
C299 H281 0.948 . S
C300 C301 1.391 . S
C300 C304 1.391 . S
C300 H342 0.948 . S
C301 C300 1.391 . S
C301 C302 1.391 . S
C302 C301 1.391 . S
C302 H358 0.947 . S
C302 C359 1.392 . S
C303 C304 1.391 . S
C303 C307 1.397 . S
C303 C359 1.419 . S
C304 C300 1.391 . S
C304 C303 1.391 . S
C304 C305 1.399 . S
C305 C304 1.399 . S
C305 C308 1.396 . S
C305 C317 1.453 . S
C305 C318 1.684 . S
H306 C330 0.948 . S
C307 C303 1.397 . S
C307 C308 1.394 . S
C307 C326 1.723 . S
C308 C305 1.396 . S
C308 C307 1.394 . S
C308 C338 1.723 . S
H309 C332 0.947 . S
H310 C333 0.948 . S
H311 C339 0.982 . S
H312 C340 0.979 . S
H313 C340 0.980 . S
H314 C340 0.983 . S
H315 C339 0.979 . S
H316 C339 0.977 . S
C317 C305 1.453 . S
C317 H346 0.982 . S
C317 H347 0.979 . S
C317 H348 0.977 . S
C318 C305 1.684 . S
C318 H343 0.979 . S
C318 H344 0.980 . S
C318 H345 0.983 . S
C319 C320 1.391 . S
C319 C324 1.391 . S
C319 H349 0.948 . S
C320 C319 1.391 . S
C320 C321 1.391 . S
C321 C320 1.391 . S
C321 C322 1.392 . S
C321 H350 0.947 . S
C322 C321 1.392 . S
C322 C323 1.419 . S
C322 H351 0.948 . S
C323 C322 1.419 . S
C323 C324 1.391 . S
C323 C327 1.397 . S
C324 C319 1.391 . S
C324 C323 1.391 . S
C324 C325 1.399 . S
C325 C324 1.399 . S
C325 C326 1.396 . S
C325 C328 1.453 . S
C325 C329 1.684 . S
C326 C307 1.723 . S
C326 C325 1.396 . S
C326 C327 1.394 . S
C327 C323 1.397 . S
C327 C326 1.394 . S
C327 C337 1.723 . S
C328 C325 1.453 . S
C328 H352 0.982 . S
C328 H353 0.979 . S
C328 H354 0.977 . S
C329 C325 1.684 . S
C329 H355 0.979 . S
C329 H356 0.980 . S
C329 H357 0.983 . S
C330 H306 0.948 . S
C330 C331 1.391 . S
C330 C335 1.391 . S
C331 C330 1.391 . S
C331 C332 1.391 . S
C332 H309 0.947 . S
C332 C331 1.391 . S
C332 C333 1.392 . S
C333 H310 0.948 . S
C333 C332 1.392 . S
C333 C334 1.419 . S
C334 C333 1.419 . S
C334 C335 1.391 . S
C334 C338 1.397 . S
C335 C330 1.391 . S
C335 C334 1.391 . S
C335 C336 1.399 . S
C336 C335 1.399 . S
C336 C337 1.396 . S
C336 C339 1.453 . S
C336 C340 1.684 . S
C337 C327 1.723 . S
C337 C336 1.396 . S
C337 C338 1.394 . S
C338 C308 1.723 . S
C338 C334 1.397 . S
C338 C337 1.394 . S
C339 H311 0.982 . S
C339 H315 0.979 . S
C339 H316 0.977 . S
C339 C336 1.453 . S
C340 H312 0.979 . S
C340 H313 0.980 . S
C340 H314 0.983 . S
C340 C336 1.684 . S
H341 C359 0.948 . S
H342 C300 0.948 . S
H343 C318 0.979 . S
H344 C318 0.980 . S
H345 C318 0.983 . S
H346 C317 0.982 . S
H347 C317 0.979 . S
H348 C317 0.977 . S
H349 C319 0.948 . S
H350 C321 0.947 . S
H351 C322 0.948 . S
H352 C328 0.982 . S
H353 C328 0.979 . S
H354 C328 0.977 . S
H355 C329 0.979 . S
H356 C329 0.980 . S
H357 C329 0.983 . S
H358 C302 0.947 . S
C359 C302 1.392 . S
C359 C303 1.419 . S
C359 H341 0.948 . S
C360 C361 1.391 . S
C360 C364 1.391 . S
C360 H402 0.948 . S
C361 C360 1.391 . S
C361 C362 1.391 . S
C362 C361 1.391 . S
C362 H418 0.947 . S
C362 C419 1.392 . S
C363 C364 1.391 . S
C363 C367 1.397 . S
C363 C419 1.419 . S
C364 C360 1.391 . S
C364 C363 1.391 . S
C364 C365 1.399 . S
C365 C364 1.399 . S
C365 C368 1.396 . S
C365 C377 1.453 . S
C365 C378 1.684 . S
H366 C390 0.948 . S
C367 C363 1.397 . S
C367 C368 1.394 . S
C367 C386 1.723 . S
C368 C365 1.396 . S
C368 C367 1.394 . S
C368 C398 1.723 . S
H369 C392 0.947 . S
H370 C393 0.948 . S
H371 C399 0.982 . S
H372 C400 0.979 . S
H373 C400 0.980 . S
H374 C400 0.983 . S
H375 C399 0.979 . S
H376 C399 0.977 . S
C377 C365 1.453 . S
C377 H406 0.982 . S
C377 H407 0.979 . S
C377 H408 0.977 . S
C378 C365 1.684 . S
C378 H403 0.979 . S
C378 H404 0.980 . S
C378 H405 0.983 . S
C379 C380 1.391 . S
C379 C384 1.391 . S
C379 H409 0.948 . S
C380 C379 1.391 . S
C380 C381 1.391 . S
C381 C380 1.391 . S
C381 C382 1.392 . S
C381 H410 0.947 . S
C382 C381 1.392 . S
C382 C383 1.419 . S
C382 H411 0.948 . S
C383 C382 1.419 . S
C383 C384 1.391 . S
C383 C387 1.397 . S
C384 C379 1.391 . S
C384 C383 1.391 . S
C384 C385 1.399 . S
C385 C384 1.399 . S
C385 C386 1.396 . S
C385 C388 1.453 . S
C385 C389 1.684 . S
C386 C367 1.723 . S
C386 C385 1.396 . S
C386 C387 1.394 . S
C387 C383 1.397 . S
C387 C386 1.394 . S
C387 C397 1.723 . S
C388 C385 1.453 . S
C388 H412 0.982 . S
C388 H413 0.979 . S
C388 H414 0.977 . S
C389 C385 1.684 . S
C389 H415 0.979 . S
C389 H416 0.980 . S
C389 H417 0.983 . S
C390 H366 0.948 . S
C390 C391 1.391 . S
C390 C395 1.391 . S
C391 C390 1.391 . S
C391 C392 1.391 . S
C392 H369 0.947 . S
C392 C391 1.391 . S
C392 C393 1.392 . S
C393 H370 0.948 . S
C393 C392 1.392 . S
C393 C394 1.419 . S
C394 C393 1.419 . S
C394 C395 1.391 . S
C394 C398 1.397 . S
C395 C390 1.391 . S
C395 C394 1.391 . S
C395 C396 1.399 . S
C396 C395 1.399 . S
C396 C397 1.396 . S
C396 C399 1.453 . S
C396 C400 1.684 . S
C397 C387 1.723 . S
C397 C396 1.396 . S
C397 C398 1.394 . S
C398 C368 1.723 . S
C398 C394 1.397 . S
C398 C397 1.394 . S
C399 H371 0.982 . S
C399 H375 0.979 . S
C399 H376 0.977 . S
C399 C396 1.453 . S
C400 H372 0.979 . S
C400 H373 0.980 . S
C400 H374 0.983 . S
C400 C396 1.684 . S
H401 C419 0.948 . S
H402 C360 0.948 . S
H403 C378 0.979 . S
H404 C378 0.980 . S
H405 C378 0.983 . S
H406 C377 0.982 . S
H407 C377 0.979 . S
H408 C377 0.977 . S
H409 C379 0.948 . S
H410 C381 0.947 . S
H411 C382 0.948 . S
H412 C388 0.982 . S
H413 C388 0.979 . S
H414 C388 0.977 . S
H415 C389 0.979 . S
H416 C389 0.980 . S
H417 C389 0.983 . S
H418 C362 0.947 . S
C419 C362 1.392 . S
C419 C363 1.419 . S
C419 H401 0.948 . S
C420 C421 1.391 . S
C420 C424 1.391 . S
C420 H462 0.948 . S
C421 C420 1.391 . S
C421 C422 1.391 . S
C422 C421 1.391 . S
C422 H478 0.947 . S
C422 C479 1.392 . S
C423 C424 1.391 . S
C423 C427 1.397 . S
C423 C479 1.419 . S
C424 C420 1.391 . S
C424 C423 1.391 . S
C424 C425 1.399 . S
C425 C424 1.399 . S
C425 C428 1.396 . S
C425 C437 1.453 . S
C425 C438 1.684 . S
H426 C450 0.948 . S
C427 C423 1.397 . S
C427 C428 1.394 . S
C427 C446 1.723 . S
C428 C425 1.396 . S
C428 C427 1.394 . S
C428 C458 1.723 . S
H429 C452 0.947 . S
H430 C453 0.948 . S
H431 C459 0.982 . S
H432 C460 0.979 . S
H433 C460 0.980 . S
H434 C460 0.983 . S
H435 C459 0.979 . S
H436 C459 0.977 . S
C437 C425 1.453 . S
C437 H466 0.982 . S
C437 H467 0.979 . S
C437 H468 0.977 . S
C438 C425 1.684 . S
C438 H463 0.979 . S
C438 H464 0.980 . S
C438 H465 0.983 . S
C439 C440 1.391 . S
C439 C444 1.391 . S
C439 H469 0.948 . S
C440 C439 1.391 . S
C440 C441 1.391 . S
C441 C440 1.391 . S
C441 C442 1.392 . S
C441 H470 0.947 . S
C442 C441 1.392 . S
C442 C443 1.419 . S
C442 H471 0.948 . S
C443 C442 1.419 . S
C443 C444 1.391 . S
C443 C447 1.397 . S
C444 C439 1.391 . S
C444 C443 1.391 . S
C444 C445 1.399 . S
C445 C444 1.399 . S
C445 C446 1.396 . S
C445 C448 1.453 . S
C445 C449 1.684 . S
C446 C427 1.723 . S
C446 C445 1.396 . S
C446 C447 1.394 . S
C447 C443 1.397 . S
C447 C446 1.394 . S
C447 C457 1.723 . S
C448 C445 1.453 . S
C448 H472 0.982 . S
C448 H473 0.979 . S
C448 H474 0.977 . S
C449 C445 1.684 . S
C449 H475 0.979 . S
C449 H476 0.980 . S
C449 H477 0.983 . S
C450 H426 0.948 . S
C450 C451 1.391 . S
C450 C455 1.391 . S
C451 C450 1.391 . S
C451 C452 1.391 . S
C452 H429 0.947 . S
C452 C451 1.391 . S
C452 C453 1.392 . S
C453 H430 0.948 . S
C453 C452 1.392 . S
C453 C454 1.419 . S
C454 C453 1.419 . S
C454 C455 1.391 . S
C454 C458 1.397 . S
C455 C450 1.391 . S
C455 C454 1.391 . S
C455 C456 1.399 . S
C456 C455 1.399 . S
C456 C457 1.396 . S
C456 C459 1.453 . S
C456 C460 1.684 . S
C457 C447 1.723 . S
C457 C456 1.396 . S
C457 C458 1.394 . S
C458 C428 1.723 . S
C458 C454 1.397 . S
C458 C457 1.394 . S
C459 H431 0.982 . S
C459 H435 0.979 . S
C459 H436 0.977 . S
C459 C456 1.453 . S
C460 H432 0.979 . S
C460 H433 0.980 . S
C460 H434 0.983 . S
C460 C456 1.684 . S
H461 C479 0.948 . S
H462 C420 0.948 . S
H463 C438 0.979 . S
H464 C438 0.980 . S
H465 C438 0.983 . S
H466 C437 0.982 . S
H467 C437 0.979 . S
H468 C437 0.977 . S
H469 C439 0.948 . S
H470 C441 0.947 . S
H471 C442 0.948 . S
H472 C448 0.982 . S
H473 C448 0.979 . S
H474 C448 0.977 . S
H475 C449 0.979 . S
H476 C449 0.980 . S
H477 C449 0.983 . S
H478 C422 0.947 . S
C479 C422 1.392 . S
C479 C423 1.419 . S
C479 H461 0.948 . S
O480 Mn481 2.163 1_655 S
O480 C494 1.244 . S
Mn481 O480 2.163 1_455 S
Mn481 O484 2.160 1_545 S
Mn481 O485 2.221 . S
Mn481 O487 2.163 1_445 S
Mn481 O489 2.160 . S
Mn481 O499 2.221 1_445 S
O482 Mn483 2.087 1_545 S
O482 C494 1.256 . S
Mn483 O482 2.087 1_565 S
Mn483 O490 2.089 1_565 S
Mn483 O499 2.290 . S
Mn483 O500 2.251 . S
O484 Mn481 2.160 1_565 S
O484 C495 1.239 . S
O485 Mn481 2.221 . S
O485 Mn486 2.290 . S
O485 C496 1.278 . S
Mn486 O485 2.290 . S
Mn486 O488 2.089 1_545 S
Mn486 O491 2.251 . S
Mn486 O492 2.087 . S
O487 Mn481 2.163 1_665 S
O487 C497 1.244 . S
O488 Mn486 2.089 1_565 S
O488 C495 1.256 . S
O489 Mn481 2.160 . S
O489 C498 1.239 . S
O490 Mn483 2.089 1_545 S
O490 C498 1.256 1_655 S
O491 Mn486 2.251 . S
O491 C496 1.241 . S
O492 Mn486 2.087 . S
O492 C497 1.256 1_445 S
C493 O499 1.278 . S
C493 O500 1.241 . S
C494 O480 1.244 . S
C494 O482 1.256 . S
C495 O484 1.239 . S
C495 O488 1.256 . S
C496 O485 1.278 . S
C496 O491 1.241 . S
C497 O487 1.244 . S
C497 O492 1.256 1_665 S
C498 O489 1.239 . S
C498 O490 1.256 1_455 S
O499 Mn481 2.221 1_665 S
O499 Mn483 2.290 . S
O499 C493 1.278 . S
O500 Mn483 2.251 . S
O500 C493 1.241 . S
O501 Mn502 2.163 1_556 S
O501 C515 1.244 1_545 S
Mn502 O501 2.163 1_554 S
Mn502 O505 2.160 . S
Mn502 O506 2.221 1_554 S
Mn502 O508 2.163 . S
Mn502 O510 2.160 1_554 S
Mn502 O520 2.221 1_545 S
O503 Mn504 2.087 . S
O503 C515 1.256 . S
Mn504 O503 2.087 . S
Mn504 O511 2.089 . S
Mn504 O520 2.290 1_556 S
Mn504 O521 2.251 1_556 S
O505 Mn502 2.160 . S
O505 C516 1.239 . S
O506 Mn502 2.221 1_556 S
O506 Mn507 2.290 1_556 S
O506 C517 1.278 . S
Mn507 O506 2.290 1_554 S
Mn507 O509 2.089 . S
Mn507 O512 2.251 1_554 S
Mn507 O513 2.087 . S
O508 Mn502 2.163 . S
O508 C518 1.244 . S
O509 Mn507 2.089 . S
O509 C516 1.256 . S
O510 Mn502 2.160 1_556 S
O510 C519 1.239 1_545 S
O511 Mn504 2.089 . S
O511 C519 1.256 . S
O512 Mn507 2.251 1_556 S
O512 C517 1.241 . S
O513 Mn507 2.087 . S
O513 C518 1.256 . S
C514 O520 1.278 . S
C514 O521 1.241 . S
C515 O501 1.244 1_565 S
C515 O503 1.256 . S
C516 O505 1.239 . S
C516 O509 1.256 . S
C517 O506 1.278 . S
C517 O512 1.241 . S
C518 O508 1.244 . S
C518 O513 1.256 . S
C519 O510 1.239 1_565 S
C519 O511 1.256 . S
O520 Mn502 2.221 1_565 S
O520 Mn504 2.290 1_554 S
O520 C514 1.278 . S
O521 Mn504 2.251 1_554 S
O521 C514 1.241 . S
O522 Mn523 2.163 . S
O522 C536 1.244 . S
Mn523 O522 2.163 . S
Mn523 O526 2.160 . S
Mn523 O527 2.221 . S
Mn523 O529 2.163 . S
Mn523 O531 2.160 . S
Mn523 O541 2.221 . S
O524 Mn525 2.087 . S
O524 C536 1.256 . S
Mn525 O524 2.087 . S
Mn525 O532 2.089 . S
Mn525 O541 2.290 . S
Mn525 O542 2.251 . S
O526 Mn523 2.160 . S
O526 C537 1.239 . S
O527 Mn523 2.221 . S
O527 Mn528 2.290 . S
O527 C538 1.278 . S
Mn528 O527 2.290 . S
Mn528 O530 2.089 . S
Mn528 O533 2.251 . S
Mn528 O534 2.087 . S
O529 Mn523 2.163 . S
O529 C539 1.244 . S
O530 Mn528 2.089 . S
O530 C537 1.256 . S
O531 Mn523 2.160 . S
O531 C540 1.239 . S
O532 Mn525 2.089 . S
O532 C540 1.256 . S
O533 Mn528 2.251 . S
O533 C538 1.241 . S
O534 Mn528 2.087 . S
O534 C539 1.256 . S
C535 O541 1.278 . S
C535 O542 1.241 . S
C536 O522 1.244 . S
C536 O524 1.256 . S
C537 O526 1.239 . S
C537 O530 1.256 . S
C538 O527 1.278 . S
C538 O533 1.241 . S
C539 O529 1.244 . S
C539 O534 1.256 . S
C540 O531 1.239 . S
C540 O532 1.256 . S
O541 Mn523 2.221 . S
O541 Mn525 2.290 . S
O541 C535 1.278 . S
O542 Mn525 2.251 . S
O542 C535 1.241 . S
O543 Mn544 2.163 1_655 S
O543 C557 1.244 1_554 S
Mn544 O543 2.163 1_455 S
Mn544 O547 2.160 . S
Mn544 O548 2.221 1_455 S
Mn544 O550 2.163 . S
Mn544 O552 2.160 1_454 S
Mn544 O562 2.221 1_554 S
O545 Mn546 2.087 . S
O545 C557 1.256 . S
Mn546 O545 2.087 . S
Mn546 O553 2.089 . S
Mn546 O562 2.290 1_655 S
Mn546 O563 2.251 . S
O547 Mn544 2.160 . S
O547 C558 1.239 . S
O548 Mn544 2.221 1_655 S
O548 Mn549 2.290 1_655 S
O548 C559 1.278 . S
Mn549 O548 2.290 1_455 S
Mn549 O551 2.089 . S
Mn549 O554 2.251 1_455 S
Mn549 O555 2.087 . S
O550 Mn544 2.163 . S
O550 C560 1.244 . S
O551 Mn549 2.089 . S
O551 C558 1.256 . S
O552 Mn544 2.160 1_656 S
O552 C561 1.239 . S
O553 Mn546 2.089 . S
O553 C561 1.256 . S
O554 Mn549 2.251 1_655 S
O554 C559 1.241 . S
O555 Mn549 2.087 . S
O555 C560 1.256 . S
C556 O562 1.278 . S
C556 O563 1.241 1_455 S
C557 O543 1.244 1_556 S
C557 O545 1.256 . S
C558 O547 1.239 . S
C558 O551 1.256 . S
C559 O548 1.278 . S
C559 O554 1.241 . S
C560 O550 1.244 . S
C560 O555 1.256 . S
C561 O552 1.239 . S
C561 O553 1.256 . S
O562 Mn544 2.221 1_556 S
O562 Mn546 2.290 1_455 S
O562 C556 1.278 . S
O563 Mn546 2.251 . S
O563 C556 1.241 1_655 S
H564 C572 0.950 . S
H565 C577 0.950 . S
H566 C574 0.950 . S
H567 C576 0.950 . S
H568 C578 0.950 . S
H569 C580 0.950 . S
H570 C582 0.950 . S
H571 C583 0.950 . S
C572 H564 0.950 . S
C572 C573 1.386 . S
C572 C574 1.391 . S
C573 C572 1.386 . S
C573 C577 1.393 . S
C574 H566 0.950 . S
C574 C572 1.391 . S
C574 C575 1.400 . S
C575 C574 1.400 . S
C575 C576 1.398 . S
C575 C581 1.491 . S
C576 H567 0.950 . S
C576 C575 1.398 . S
C576 C577 1.391 . S
C577 H565 0.950 . S
C577 C573 1.393 . S
C577 C576 1.391 . S
C578 H568 0.950 . S
C578 C579 1.386 . S
C578 C580 1.391 . S
C579 C578 1.386 . S
C579 C583 1.393 . S
C580 H569 0.950 . S
C580 C578 1.391 . S
C580 C581 1.400 . S
C581 C575 1.491 . S
C581 C580 1.400 . S
C581 C582 1.398 . S
C582 H570 0.950 . S
C582 C581 1.398 . S
C582 C583 1.391 . S
C583 H571 0.950 . S
C583 C579 1.393 . S
C583 C582 1.391 . S
H584 C592 0.950 . S
H585 C597 0.950 . S
H586 C594 0.950 . S
H587 C596 0.950 1_545 S
H588 C598 0.950 . S
H589 C600 0.963 . S
H590 C602 0.950 . S
H591 C603 0.950 . S
C592 H584 0.950 . S
C592 C593 1.386 . S
C592 C594 1.391 . S
C593 C592 1.386 . S
C593 C597 1.393 . S
C594 H586 0.950 . S
C594 C592 1.391 . S
C594 C595 1.400 . S
C595 C594 1.400 . S
C595 C596 1.398 . S
C595 C601 1.491 . S
C596 H587 0.950 1_565 S
C596 C595 1.398 . S
C596 C597 1.391 . S
C597 H585 0.950 . S
C597 C593 1.393 . S
C597 C596 1.391 . S
C598 H588 0.950 . S
C598 C599 1.386 1_545 S
C598 C600 1.396 . S
C599 C598 1.386 1_565 S
C599 C603 1.393 . S
C600 H589 0.963 . S
C600 C598 1.396 . S
C600 C601 1.383 1_545 S
C601 C595 1.491 . S
C601 C600 1.383 1_565 S
C601 C602 1.398 . S
C602 H590 0.950 . S
C602 C601 1.398 . S
C602 C603 1.391 . S
C603 H591 0.950 . S
C603 C599 1.393 . S
C603 C602 1.391 . S
H604 C612 0.950 . S
H605 C617 0.950 . S
H606 C614 0.950 . S
H607 C616 0.950 . S
H608 C618 0.950 . S
H609 C620 0.950 . S
H610 C622 0.950 . S
H611 C623 0.950 . S
C612 H604 0.950 . S
C612 C613 1.386 . S
C612 C614 1.391 . S
C613 C612 1.386 . S
C613 C617 1.393 . S
C614 H606 0.950 . S
C614 C612 1.391 . S
C614 C615 1.400 . S
C615 C614 1.400 . S
C615 C616 1.398 . S
C615 C621 1.491 . S
C616 H607 0.950 . S
C616 C615 1.398 . S
C616 C617 1.391 . S
C617 H605 0.950 . S
C617 C613 1.393 . S
C617 C616 1.391 . S
C618 H608 0.950 . S
C618 C619 1.386 . S
C618 C620 1.391 . S
C619 C618 1.386 . S
C619 C623 1.393 . S
C620 H609 0.950 . S
C620 C618 1.391 . S
C620 C621 1.400 . S
C621 C615 1.491 . S
C621 C620 1.400 . S
C621 C622 1.398 . S
C622 H610 0.950 . S
C622 C621 1.398 . S
C622 C623 1.391 . S
C623 H611 0.950 . S
C623 C619 1.393 . S
C623 C622 1.391 . S
H624 C632 0.950 . S
H625 C637 0.950 . S
H626 C634 0.950 . S
H627 C636 0.950 . S
H628 C638 0.950 . S
H629 C640 0.950 . S
H630 C642 0.950 . S
H631 C643 0.950 . S
C632 H624 0.950 . S
C632 C633 1.386 . S
C632 C634 1.391 . S
C633 C632 1.386 . S
C633 C637 1.393 . S
C634 H626 0.950 . S
C634 C632 1.391 . S
C634 C635 1.400 . S
C635 C634 1.400 . S
C635 C636 1.398 . S
C635 C641 1.491 . S
C636 H627 0.950 . S
C636 C635 1.398 . S
C636 C637 1.391 . S
C637 H625 0.950 . S
C637 C633 1.393 . S
C637 C636 1.391 . S
C638 H628 0.950 . S
C638 C639 1.386 . S
C638 C640 1.391 . S
C639 C638 1.386 . S
C639 C643 1.393 . S
C640 H629 0.950 . S
C640 C638 1.391 . S
C640 C641 1.400 . S
C641 C635 1.491 . S
C641 C640 1.400 . S
C641 C642 1.398 . S
C642 H630 0.950 . S
C642 C641 1.398 . S
C642 C643 1.391 . S
C643 H631 0.950 . S
C643 C639 1.393 . S
C643 C642 1.391 . S
H644 C652 0.950 . S
H645 C657 0.950 . S
H646 C654 0.950 . S
H647 C656 0.950 . S
H648 C658 0.950 1_556 S
H649 C660 0.950 . S
H650 C662 0.950 . S
H651 C663 0.950 . S
C652 H644 0.950 . S
C652 C653 1.386 . S
C652 C654 1.391 . S
C653 C652 1.386 . S
C653 C657 1.393 . S
C654 H646 0.950 . S
C654 C652 1.391 . S
C654 C655 1.400 . S
C655 C654 1.400 . S
C655 C656 1.398 . S
C655 C661 1.491 . S
C656 H647 0.950 . S
C656 C655 1.398 . S
C656 C657 1.391 . S
C657 H645 0.950 . S
C657 C653 1.393 . S
C657 C656 1.391 . S
C658 H648 0.950 1_554 S
C658 C659 1.386 . S
C658 C660 1.391 . S
C659 C658 1.386 . S
C659 C663 1.393 . S
C660 H649 0.950 . S
C660 C658 1.391 . S
C660 C661 1.400 . S
C661 C655 1.491 . S
C661 C660 1.400 . S
C661 C662 1.398 . S
C662 H650 0.950 . S
C662 C661 1.398 . S
C662 C663 1.391 . S
C663 H651 0.950 . S
C663 C659 1.393 . S
C663 C662 1.391 . S
H664 C672 0.950 . S
H665 C677 0.950 . S
H666 C674 0.950 . S
H667 C676 0.950 . S
H668 C678 0.950 1_545 S
H669 C680 0.950 . S
H670 C682 0.950 . S
H671 C683 0.950 . S
C672 H664 0.950 . S
C672 C673 1.386 . S
C672 C674 1.391 . S
C673 C672 1.386 . S
C673 C677 1.393 . S
C674 H666 0.950 . S
C674 C672 1.391 . S
C674 C675 1.400 . S
C675 C674 1.400 . S
C675 C676 1.398 . S
C675 C681 1.491 . S
C676 H667 0.950 . S
C676 C675 1.398 . S
C676 C677 1.391 . S
C677 H665 0.950 . S
C677 C673 1.393 . S
C677 C676 1.391 . S
C678 H668 0.950 1_565 S
C678 C679 1.386 . S
C678 C680 1.391 . S
C679 C678 1.386 . S
C679 C683 1.393 . S
C680 H669 0.950 . S
C680 C678 1.391 . S
C680 C681 1.400 . S
C681 C675 1.491 . S
C681 C680 1.400 . S
C681 C682 1.398 . S
C682 H670 0.950 . S
C682 C681 1.398 . S
C682 C683 1.391 . S
C683 H671 0.950 . S
C683 C679 1.393 . S
C683 C682 1.391 . S
H684 C692 0.950 . S
H685 C697 0.950 . S
H686 C694 0.950 . S
H687 C696 0.950 . S
H688 C698 0.950 . S
H689 C700 0.950 1_554 S
H690 C702 0.950 . S
H691 C703 0.950 . S
C692 H684 0.950 . S
C692 C693 1.386 . S
C692 C694 1.391 . S
C693 C692 1.386 . S
C693 C697 1.393 . S
C694 H686 0.950 . S
C694 C692 1.391 . S
C694 C695 1.400 . S
C695 C694 1.400 . S
C695 C696 1.398 . S
C695 C701 1.491 . S
C696 H687 0.950 . S
C696 C695 1.398 . S
C696 C697 1.391 . S
C697 H685 0.950 . S
C697 C693 1.393 . S
C697 C696 1.391 . S
C698 H688 0.950 . S
C698 C699 1.386 1_554 S
C698 C700 1.391 1_554 S
C699 C698 1.386 1_556 S
C699 C703 1.393 . S
C700 H689 0.950 1_556 S
C700 C698 1.391 1_556 S
C700 C701 1.400 . S
C701 C695 1.491 . S
C701 C700 1.400 . S
C701 C702 1.398 . S
C702 H690 0.950 . S
C702 C701 1.398 . S
C702 C703 1.391 . S
C703 H691 0.950 . S
C703 C699 1.393 . S
C703 C702 1.391 . S
H704 C712 0.950 . S
H705 C717 0.950 . S
H706 C714 0.950 . S
H707 C716 0.950 . S
H708 C718 0.950 . S
H709 C720 0.950 . S
H710 C722 0.950 . S
H711 C723 0.950 . S
C712 H704 0.950 . S
C712 C713 1.386 . S
C712 C714 1.391 . S
C713 C712 1.386 . S
C713 C717 1.393 . S
C714 H706 0.950 . S
C714 C712 1.391 . S
C714 C715 1.400 . S
C715 C714 1.400 . S
C715 C716 1.398 . S
C715 C721 1.491 . S
C716 H707 0.950 . S
C716 C715 1.398 . S
C716 C717 1.391 . S
C717 H705 0.950 . S
C717 C713 1.393 . S
C717 C716 1.391 . S
C718 H708 0.950 . S
C718 C719 1.386 . S
C718 C720 1.391 . S
C719 C718 1.386 . S
C719 C723 1.393 . S
C720 H709 0.950 . S
C720 C718 1.391 . S
C720 C721 1.400 . S
C721 C715 1.491 . S
C721 C720 1.400 . S
C721 C722 1.398 . S
C722 H710 0.950 . S
C722 C721 1.398 . S
C722 C723 1.391 . S
C723 H711 0.950 . S
C723 C719 1.393 . S
C723 C722 1.391 . S
H724 C732 0.950 . S
H725 C737 0.950 . S
H726 C734 0.950 . S
H727 C736 0.950 . S
H728 C738 0.950 . S
H729 C740 0.950 . S
H730 C742 0.950 . S
H731 C743 0.950 1_655 S
C732 H724 0.950 . S
C732 C733 1.386 . S
C732 C734 1.391 . S
C733 C732 1.386 . S
C733 C737 1.393 . S
C734 H726 0.950 . S
C734 C732 1.391 . S
C734 C735 1.400 . S
C735 C734 1.400 . S
C735 C736 1.398 . S
C735 C741 1.491 . S
C736 H727 0.950 . S
C736 C735 1.398 . S
C736 C737 1.391 . S
C737 H725 0.950 . S
C737 C733 1.393 . S
C737 C736 1.391 . S
C738 H728 0.950 . S
C738 C739 1.386 . S
C738 C740 1.391 . S
C739 C738 1.386 . S
C739 C743 1.393 . S
C740 H729 0.950 . S
C740 C738 1.391 . S
C740 C741 1.400 . S
C741 C735 1.491 . S
C741 C740 1.400 . S
C741 C742 1.398 . S
C742 H730 0.950 . S
C742 C741 1.398 . S
C742 C743 1.391 . S
C743 H731 0.950 1_455 S
C743 C739 1.393 . S
C743 C742 1.391 . S
H744 C752 0.950 . S
H745 C757 0.950 . S
H746 C754 0.950 . S
H747 C756 0.950 . S
H748 C758 0.950 . S
H749 C760 0.950 . S
H750 C762 0.950 . S
H751 C763 0.950 . S
C752 H744 0.950 . S
C752 C753 1.386 . S
C752 C754 1.391 . S
C753 C752 1.386 . S
C753 C757 1.393 . S
C754 H746 0.950 . S
C754 C752 1.391 . S
C754 C755 1.400 . S
C755 C754 1.400 . S
C755 C756 1.398 . S
C755 C761 1.491 . S
C756 H747 0.950 . S
C756 C755 1.398 . S
C756 C757 1.391 . S
C757 H745 0.950 . S
C757 C753 1.393 . S
C757 C756 1.391 . S
C758 H748 0.950 . S
C758 C759 1.386 . S
C758 C760 1.391 . S
C759 C758 1.386 . S
C759 C763 1.393 . S
C760 H749 0.950 . S
C760 C758 1.391 . S
C760 C761 1.400 . S
C761 C755 1.491 . S
C761 C760 1.400 . S
C761 C762 1.398 . S
C762 H750 0.950 . S
C762 C761 1.398 . S
C762 C763 1.391 . S
C763 H751 0.950 . S
C763 C759 1.393 . S
C763 C762 1.391 . S
H764 C772 0.950 . S
H765 C777 0.950 . S
H766 C774 0.950 . S
H767 C776 0.950 . S
H768 C778 0.950 1_455 S
H769 C780 0.950 . S
H770 C782 0.950 . S
H771 C783 0.950 . S
C772 H764 0.950 . S
C772 C773 1.386 . S
C772 C774 1.391 . S
C773 C772 1.386 . S
C773 C777 1.393 . S
C774 H766 0.950 . S
C774 C772 1.391 . S
C774 C775 1.400 . S
C775 C774 1.400 . S
C775 C776 1.398 . S
C775 C781 1.491 . S
C776 H767 0.950 . S
C776 C775 1.398 . S
C776 C777 1.391 . S
C777 H765 0.950 . S
C777 C773 1.393 . S
C777 C776 1.391 . S
C778 H768 0.950 1_655 S
C778 C779 1.386 . S
C778 C780 1.391 . S
C779 C778 1.386 . S
C779 C783 1.393 . S
C780 H769 0.950 . S
C780 C778 1.391 . S
C780 C781 1.400 . S
C781 C775 1.491 . S
C781 C780 1.400 . S
C781 C782 1.398 . S
C782 H770 0.950 . S
C782 C781 1.398 . S
C782 C783 1.391 . S
C783 H771 0.950 . S
C783 C779 1.393 . S
C783 C782 1.391 . S
H784 C792 0.950 . S
H785 C797 0.950 . S
H786 C794 0.950 . S
H787 C796 0.950 . S
H788 C798 0.950 . S
H789 C800 0.950 . S
H790 C802 0.950 . S
H791 C803 0.950 . S
C792 H784 0.950 . S
C792 C793 1.386 . S
C792 C794 1.391 . S
C793 C792 1.386 . S
C793 C797 1.393 . S
C794 H786 0.950 . S
C794 C792 1.391 . S
C794 C795 1.400 . S
C795 C794 1.400 . S
C795 C796 1.398 . S
C795 C801 1.491 . S
C796 H787 0.950 . S
C796 C795 1.398 . S
C796 C797 1.391 . S
C797 H785 0.950 . S
C797 C793 1.393 . S
C797 C796 1.391 . S
C798 H788 0.950 . S
C798 C799 1.386 . S
C798 C800 1.391 . S
C799 C798 1.386 . S
C799 C803 1.393 . S
C800 H789 0.950 . S
C800 C798 1.391 . S
C800 C801 1.400 . S
C801 C795 1.491 . S
C801 C800 1.400 . S
C801 C802 1.398 . S
C802 H790 0.950 . S
C802 C801 1.398 . S
C802 C803 1.391 . S
C803 H791 0.950 . S
C803 C799 1.393 . S
C803 C802 1.391 . S
H804 C812 0.950 . S
H805 C817 0.950 . S
H806 C814 0.950 . S
H807 C816 0.950 . S
H808 C818 0.950 1_545 S
H809 C820 0.950 . S
H810 C822 0.950 . S
H811 C823 0.950 . S
C812 H804 0.950 . S
C812 C813 1.386 . S
C812 C814 1.391 . S
C813 C812 1.386 . S
C813 C817 1.393 . S
C814 H806 0.950 . S
C814 C812 1.391 . S
C814 C815 1.400 . S
C815 C814 1.400 . S
C815 C816 1.398 . S
C815 C821 1.491 . S
C816 H807 0.950 . S
C816 C815 1.398 . S
C816 C817 1.391 . S
C817 H805 0.950 . S
C817 C813 1.393 . S
C817 C816 1.391 . S
C818 H808 0.950 1_565 S
C818 C819 1.386 . S
C818 C820 1.391 . S
C819 C818 1.386 . S
C819 C823 1.393 . S
C820 H809 0.950 . S
C820 C818 1.391 . S
C820 C821 1.400 . S
C821 C815 1.491 . S
C821 C820 1.400 . S
C821 C822 1.398 . S
C822 H810 0.950 . S
C822 C821 1.398 . S
C822 C823 1.391 . S
C823 H811 0.950 . S
C823 C819 1.393 . S
C823 C822 1.391 . S
H824 C832 0.950 . S
H825 C837 0.950 . S
H826 C834 0.950 . S
H827 C836 0.950 . S
H828 C838 0.950 . S
H829 C840 0.950 . S
H830 C842 0.950 . S
H831 C843 0.950 . S
C832 H824 0.950 . S
C832 C833 1.386 . S
C832 C834 1.391 . S
C833 C832 1.386 . S
C833 C837 1.393 . S
C834 H826 0.950 . S
C834 C832 1.391 . S
C834 C835 1.400 . S
C835 C834 1.400 . S
C835 C836 1.398 . S
C835 C841 1.491 . S
C836 H827 0.950 . S
C836 C835 1.398 . S
C836 C837 1.391 . S
C837 H825 0.950 . S
C837 C833 1.393 . S
C837 C836 1.391 . S
C838 H828 0.950 . S
C838 C839 1.386 . S
C838 C840 1.391 . S
C839 C838 1.386 . S
C839 C843 1.393 . S
C840 H829 0.950 . S
C840 C838 1.391 . S
C840 C841 1.400 . S
C841 C835 1.491 . S
C841 C840 1.400 . S
C841 C842 1.398 . S
C842 H830 0.950 . S
C842 C841 1.398 . S
C842 C843 1.391 . S
C843 H831 0.950 . S
C843 C839 1.393 . S
C843 C842 1.391 . S
H844 C852 0.950 . S
H845 C857 0.950 . S
H846 C854 0.950 . S
H847 C856 0.950 . S
H848 C858 0.950 . S
H849 C860 0.950 . S
H850 C862 0.950 . S
H851 C863 0.950 . S
C852 H844 0.950 . S
C852 C853 1.386 . S
C852 C854 1.391 . S
C853 C852 1.386 . S
C853 C857 1.393 . S
C854 H846 0.950 . S
C854 C852 1.391 . S
C854 C855 1.400 . S
C855 C854 1.400 . S
C855 C856 1.398 . S
C855 C861 1.491 . S
C856 H847 0.950 . S
C856 C855 1.398 . S
C856 C857 1.391 . S
C857 H845 0.950 . S
C857 C853 1.393 . S
C857 C856 1.391 . S
C858 H848 0.950 . S
C858 C859 1.386 . S
C858 C860 1.391 . S
C859 C858 1.386 . S
C859 C863 1.393 . S
C860 H849 0.950 . S
C860 C858 1.391 . S
C860 C861 1.400 . S
C861 C855 1.491 . S
C861 C860 1.400 . S
C861 C862 1.398 . S
C862 H850 0.950 . S
C862 C861 1.398 . S
C862 C863 1.391 . S
C863 H851 0.950 . S
C863 C859 1.393 . S
C863 C862 1.391 . S
H864 C872 0.950 . S
H865 C877 0.950 . S
H866 C874 0.950 . S
H867 C876 0.950 . S
H868 C878 0.950 . S
H869 C880 0.950 . S
H870 C882 0.950 . S
H871 C883 0.950 1_655 S
C872 H864 0.950 . S
C872 C873 1.386 . S
C872 C874 1.391 . S
C873 C872 1.386 . S
C873 C877 1.393 . S
C874 H866 0.950 . S
C874 C872 1.391 . S
C874 C875 1.400 . S
C875 C874 1.400 . S
C875 C876 1.398 . S
C875 C881 1.491 . S
C876 H867 0.950 . S
C876 C875 1.398 . S
C876 C877 1.391 . S
C877 H865 0.950 . S
C877 C873 1.393 . S
C877 C876 1.391 . S
C878 H868 0.950 . S
C878 C879 1.386 . S
C878 C880 1.391 . S
C879 C878 1.386 . S
C879 C883 1.393 . S
C880 H869 0.950 . S
C880 C878 1.391 . S
C880 C881 1.400 . S
C881 C875 1.491 . S
C881 C880 1.400 . S
C881 C882 1.398 . S
C882 H870 0.950 . S
C882 C881 1.398 . S
C882 C883 1.391 . S
C883 H871 0.950 1_455 S
C883 C879 1.393 . S
C883 C882 1.391 . S
H884 C892 0.950 . S
H885 C897 0.950 . S
H886 C894 0.950 . S
H887 C896 0.950 . S
H888 C898 0.950 1_545 S
H889 C900 0.950 1_545 S
H890 C902 0.950 . S
H891 C903 0.950 . S
C892 H884 0.950 . S
C892 C893 1.386 . S
C892 C894 1.391 . S
C893 C892 1.386 . S
C893 C897 1.393 . S
C894 H886 0.950 . S
C894 C892 1.391 . S
C894 C895 1.400 . S
C895 C894 1.400 . S
C895 C896 1.398 . S
C895 C901 1.491 . S
C896 H887 0.950 . S
C896 C895 1.398 . S
C896 C897 1.391 . S
C897 H885 0.950 . S
C897 C893 1.393 . S
C897 C896 1.391 . S
C898 H888 0.950 1_565 S
C898 C899 1.386 . S
C898 C900 1.391 . S
C899 C898 1.386 . S
C899 C903 1.393 . S
C900 H889 0.950 1_565 S
C900 C898 1.391 . S
C900 C901 1.400 . S
C901 C895 1.491 . S
C901 C900 1.400 . S
C901 C902 1.398 . S
C902 H890 0.950 . S
C902 C901 1.398 . S
C902 C903 1.391 . S
C903 H891 0.950 . S
C903 C899 1.393 . S
C903 C902 1.391 . S
H904 C912 0.950 . S
H905 C917 0.950 . S
H906 C914 0.950 . S
H907 C916 0.950 . S
H908 C918 0.950 . S
H909 C920 0.950 . S
H910 C922 0.950 . S
H911 C923 0.950 . S
C912 H904 0.950 . S
C912 C913 1.386 . S
C912 C914 1.391 . S
C913 C912 1.386 . S
C913 C917 1.393 . S
C914 H906 0.950 . S
C914 C912 1.391 . S
C914 C915 1.400 . S
C915 C914 1.400 . S
C915 C916 1.398 . S
C915 C921 1.491 . S
C916 H907 0.950 . S
C916 C915 1.398 . S
C916 C917 1.391 . S
C917 H905 0.950 . S
C917 C913 1.393 . S
C917 C916 1.391 . S
C918 H908 0.950 . S
C918 C919 1.386 . S
C918 C920 1.391 . S
C919 C918 1.386 . S
C919 C923 1.393 . S
C920 H909 0.950 . S
C920 C918 1.391 . S
C920 C921 1.400 . S
C921 C915 1.491 . S
C921 C920 1.400 . S
C921 C922 1.398 . S
C922 H910 0.950 . S
C922 C921 1.398 . S
C922 C923 1.391 . S
C923 H911 0.950 . S
C923 C919 1.393 . S
C923 C922 1.391 . S
H924 C932 0.950 . S
H925 C937 0.950 . S
H926 C934 0.950 . S
H927 C936 0.950 . S
H928 C938 0.950 . S
H929 C940 0.950 . S
H930 C942 0.950 . S
H931 C943 0.950 . S
C932 H924 0.950 . S
C932 C933 1.386 . S
C932 C934 1.391 . S
C933 C932 1.386 . S
C933 C937 1.393 . S
C934 H926 0.950 . S
C934 C932 1.391 . S
C934 C935 1.400 . S
C935 C934 1.400 . S
C935 C936 1.398 . S
C935 C941 1.491 . S
C936 H927 0.950 . S
C936 C935 1.398 . S
C936 C937 1.391 . S
C937 H925 0.950 . S
C937 C933 1.393 . S
C937 C936 1.391 . S
C938 H928 0.950 . S
C938 C939 1.386 . S
C938 C940 1.391 . S
C939 C938 1.386 . S
C939 C943 1.393 . S
C940 H929 0.950 . S
C940 C938 1.391 . S
C940 C941 1.400 . S
C941 C935 1.491 . S
C941 C940 1.400 . S
C941 C942 1.398 . S
C942 H930 0.950 . S
C942 C941 1.398 . S
C942 C943 1.391 . S
C943 H931 0.950 . S
C943 C939 1.393 . S
C943 C942 1.391 . S
H944 C952 0.950 . S
H945 C957 0.950 . S
H946 C954 0.950 . S
H947 C956 0.950 . S
H948 C958 0.950 . S
H949 C960 0.950 . S
H950 C962 0.950 . S
H951 C963 0.950 . S
C952 H944 0.950 . S
C952 C953 1.386 . S
C952 C954 1.391 . S
C953 C952 1.386 . S
C953 C957 1.393 . S
C954 H946 0.950 . S
C954 C952 1.391 . S
C954 C955 1.400 . S
C955 C954 1.400 . S
C955 C956 1.398 . S
C955 C961 1.491 . S
C956 H947 0.950 . S
C956 C955 1.398 . S
C956 C957 1.391 . S
C957 H945 0.950 . S
C957 C953 1.393 . S
C957 C956 1.391 . S
C958 H948 0.950 . S
C958 C959 1.386 . S
C958 C960 1.391 . S
C959 C958 1.386 . S
C959 C963 1.393 . S
C960 H949 0.950 . S
C960 C958 1.391 . S
C960 C961 1.400 . S
C961 C955 1.491 . S
C961 C960 1.400 . S
C961 C962 1.398 . S
C962 H950 0.950 . S
C962 C961 1.398 . S
C962 C963 1.391 . S
C963 H951 0.950 . S
C963 C959 1.393 . S
C963 C962 1.391 . S
H964 C972 0.950 . S
H965 C977 0.950 . S
H966 C974 0.950 . S
H967 C976 0.950 . S
H968 C978 0.988 . S
H969 C980 0.950 1_554 S
H970 C982 0.950 . S
H971 C983 0.950 . S
C972 H964 0.950 . S
C972 C973 1.386 . S
C972 C974 1.391 . S
C973 C972 1.386 . S
C973 C977 1.393 . S
C974 H966 0.950 . S
C974 C972 1.391 . S
C974 C975 1.400 . S
C975 C974 1.400 . S
C975 C976 1.398 . S
C975 C981 1.491 . S
C976 H967 0.950 . S
C976 C975 1.398 . S
C976 C977 1.391 . S
C977 H965 0.950 . S
C977 C973 1.393 . S
C977 C976 1.391 . S
C978 H968 0.988 . S
C978 C979 1.358 1_554 S
C978 C980 1.381 1_554 S
C979 C978 1.358 1_556 S
C979 C983 1.393 . S
C980 H969 0.950 1_556 S
C980 C978 1.381 1_556 S
C980 C981 1.400 . S
C981 C975 1.491 . S
C981 C980 1.400 . S
C981 C982 1.398 . S
C982 H970 0.950 . S
C982 C981 1.398 . S
C982 C983 1.391 . S
C983 H971 0.950 . S
C983 C979 1.393 . S
C983 C982 1.391 . S
H984 C992 0.950 . S
H985 C997 0.950 . S
H986 C994 0.950 . S
H987 C996 0.950 . S
H988 C998 0.950 . S
H989 C1000 0.950 . S
H990 C1002 0.950 . S
H991 C1003 0.950 . S
C992 H984 0.950 . S
C992 C993 1.386 . S
C992 C994 1.391 . S
C993 C992 1.386 . S
C993 C997 1.393 . S
C994 H986 0.950 . S
C994 C992 1.391 . S
C994 C995 1.400 . S
C995 C994 1.400 . S
C995 C996 1.398 . S
C995 C1001 1.491 . S
C996 H987 0.950 . S
C996 C995 1.398 . S
C996 C997 1.391 . S
C997 H985 0.950 . S
C997 C993 1.393 . S
C997 C996 1.391 . S
C998 H988 0.950 . S
C998 C999 1.386 . S
C998 C1000 1.391 . S
C999 C998 1.386 . S
C999 C1003 1.393 . S
C1000 H989 0.950 . S
C1000 C998 1.391 . S
C1000 C1001 1.400 . S
C1001 C995 1.491 . S
C1001 C1000 1.400 . S
C1001 C1002 1.398 . S
C1002 H990 0.950 . S
C1002 C1001 1.398 . S
C1002 C1003 1.391 . S
C1003 H991 0.950 . S
C1003 C999 1.393 . S
C1003 C1002 1.391 . S
H1004 C1012 0.950 . S
H1005 C1017 0.950 . S
H1006 C1014 0.950 . S
H1007 C1016 0.950 . S
H1008 C1018 0.950 1_655 S
H1009 C1020 0.950 . S
H1010 C1022 0.950 . S
H1011 C1023 0.950 . S
C1012 H1004 0.950 . S
C1012 C1013 1.386 . S
C1012 C1014 1.391 . S
C1013 C1012 1.386 . S
C1013 C1017 1.393 . S
C1014 H1006 0.950 . S
C1014 C1012 1.391 . S
C1014 C1015 1.400 . S
C1015 C1014 1.400 . S
C1015 C1016 1.398 . S
C1015 C1021 1.491 . S
C1016 H1007 0.950 . S
C1016 C1015 1.398 . S
C1016 C1017 1.391 . S
C1017 H1005 0.950 . S
C1017 C1013 1.393 . S
C1017 C1016 1.391 . S
C1018 H1008 0.950 1_455 S
C1018 C1019 1.386 . S
C1018 C1020 1.391 . S
C1019 C1018 1.386 . S
C1019 C1023 1.393 . S
C1020 H1009 0.950 . S
C1020 C1018 1.391 . S
C1020 C1021 1.400 . S
C1021 C1015 1.491 . S
C1021 C1020 1.400 . S
C1021 C1022 1.398 . S
C1022 H1010 0.950 . S
C1022 C1021 1.398 . S
C1022 C1023 1.391 . S
C1023 H1011 0.950 . S
C1023 C1019 1.393 . S
C1023 C1022 1.391 . S
H1024 C1032 0.950 . S
H1025 C1037 0.950 . S
H1026 C1034 0.950 . S
H1027 C1036 0.950 . S
H1028 C1038 0.950 . S
H1029 C1040 0.950 . S
H1030 C1042 0.950 . S
H1031 C1043 0.950 . S
C1032 H1024 0.950 . S
C1032 C1033 1.386 . S
C1032 C1034 1.391 . S
C1033 C1032 1.386 . S
C1033 C1037 1.393 . S
C1034 H1026 0.950 . S
C1034 C1032 1.391 . S
C1034 C1035 1.400 . S
C1035 C1034 1.400 . S
C1035 C1036 1.398 . S
C1035 C1041 1.491 . S
C1036 H1027 0.950 . S
C1036 C1035 1.398 . S
C1036 C1037 1.391 . S
C1037 H1025 0.950 . S
C1037 C1033 1.393 . S
C1037 C1036 1.391 . S
C1038 H1028 0.950 . S
C1038 C1039 1.386 . S
C1038 C1040 1.391 . S
C1039 C1038 1.386 . S
C1039 C1043 1.393 . S
C1040 H1029 0.950 . S
C1040 C1038 1.391 . S
C1040 C1041 1.400 . S
C1041 C1035 1.491 . S
C1041 C1040 1.400 . S
C1041 C1042 1.398 . S
C1042 H1030 0.950 . S
C1042 C1041 1.398 . S
C1042 C1043 1.391 . S
C1043 H1031 0.950 . S
C1043 C1039 1.393 . S
C1043 C1042 1.391 . S
C573 C1 1.602 . S
C579 C498 1.581 . S
C593 C80 1.471 . S
C599 C515 1.472 . S
C619 C538 1.219 . S
C613 C140 1.406 . S
C633 C211 1.771 . S
C639 C559 1.523 . S
C659 C518 1.755 . S
C653 C31 1.784 . S
C679 C495 1.676 . S
C673 C61 1.649 . S
C699 C557 1.317 . S
C693 C151 1.337 . S
C719 C536 1.463 . S
C713 C200 1.466 . S
C733 C20 1.760 . S
C739 C560 1.731 . S
C759 C517 1.354 . S
C753 C121 1.595 . S
C773 C181 1.642 . S
C779 C493 1.531 . S
C793 C91 1.494 . S
C799 C539 1.531 . S
C819 C497 1.575 . S
C813 C260 1.644 . S
C833 C320 1.290 . S
C839 C516 1.280 . S
C853 C361 1.497 . S
C859 C535 1.268 . S
C873 C451 1.676 . S
C879 C556 1.409 . S
C893 C271 1.761 . S
C899 C519 1.744 . S
C919 C494 1.744 . S
C913 C301 1.752 . S
C939 C558 1.185 . S
C933 C380 1.228 . S
C959 C537 1.572 . S
C953 C440 1.564 . S
C973 C241 1.561 . S
C979 C561 1.544 . S
C999 C514 1.271 . S
C993 C391 1.507 . S
C1019 C496 1.339 . S
C1013 C421 1.446 . S
C1033 C331 1.459 . S
C1039 C540 1.463 . S
