# Generated by pormake.
# Topology ctn, (3,4)-cn, num edge types: 1
# Building blocks:
#     Node 0, Type 0, BuildingBlock: QEWDON_clean_linker_0, # of connection points: 3
#     Node 1, Type 0, BuildingBlock: QEWDON_clean_linker_0, # of connection points: 3
#     Node 2, Type 0, BuildingBlock: QEWDON_clean_linker_0, # of connection points: 3
#     Node 3, Type 0, BuildingBlock: QEWDON_clean_linker_0, # of connection points: 3
#     Node 4, Type 0, BuildingBlock: QEWDON_clean_linker_0, # of connection points: 3
#     Node 5, Type 0, BuildingBlock: QEWDON_clean_linker_0, # of connection points: 3
#     Node 6, Type 0, BuildingBlock: QEWDON_clean_linker_0, # of connection points: 3
#     Node 7, Type 0, BuildingBlock: QEWDON_clean_linker_0, # of connection points: 3
#     Node 8, Type 0, BuildingBlock: QEWDON_clean_linker_0, # of connection points: 3
#     Node 9, Type 0, BuildingBlock: QEWDON_clean_linker_0, # of connection points: 3
#     Node 10, Type 0, BuildingBlock: QEWDON_clean_linker_0, # of connection points: 3
#     Node 11, Type 0, BuildingBlock: QEWDON_clean_linker_0, # of connection points: 3
#     Node 12, Type 0, BuildingBlock: QEWDON_clean_linker_0, # of connection points: 3
#     Node 13, Type 0, BuildingBlock: QEWDON_clean_linker_0, # of connection points: 3
#     Node 14, Type 0, BuildingBlock: QEWDON_clean_linker_0, # of connection points: 3
#     Node 15, Type 0, BuildingBlock: QEWDON_clean_linker_0, # of connection points: 3
#     Node 16, Type 1, BuildingBlock: KUFVIS_clean_sbu_0, # of connection points: 4
#     Node 17, Type 1, BuildingBlock: KUFVIS_clean_sbu_0, # of connection points: 4
#     Node 18, Type 1, BuildingBlock: KUFVIS_clean_sbu_0, # of connection points: 4
#     Node 19, Type 1, BuildingBlock: KUFVIS_clean_sbu_0, # of connection points: 4
#     Node 20, Type 1, BuildingBlock: KUFVIS_clean_sbu_0, # of connection points: 4
#     Node 21, Type 1, BuildingBlock: KUFVIS_clean_sbu_0, # of connection points: 4
#     Node 22, Type 1, BuildingBlock: KUFVIS_clean_sbu_0, # of connection points: 4
#     Node 23, Type 1, BuildingBlock: KUFVIS_clean_sbu_0, # of connection points: 4
#     Node 24, Type 1, BuildingBlock: KUFVIS_clean_sbu_0, # of connection points: 4
#     Node 25, Type 1, BuildingBlock: KUFVIS_clean_sbu_0, # of connection points: 4
#     Node 26, Type 1, BuildingBlock: KUFVIS_clean_sbu_0, # of connection points: 4
#     Node 27, Type 1, BuildingBlock: KUFVIS_clean_sbu_0, # of connection points: 4
#     Edge 28, Type (0, 1), BuildingBlock: CIFDUS_clean_linker_0, # of connection points: 2
#     Edge 29, Type (0, 1), BuildingBlock: CIFDUS_clean_linker_0, # of connection points: 2
#     Edge 30, Type (0, 1), BuildingBlock: CIFDUS_clean_linker_0, # of connection points: 2
#     Edge 31, Type (0, 1), BuildingBlock: CIFDUS_clean_linker_0, # of connection points: 2
#     Edge 32, Type (0, 1), BuildingBlock: CIFDUS_clean_linker_0, # of connection points: 2
#     Edge 33, Type (0, 1), BuildingBlock: CIFDUS_clean_linker_0, # of connection points: 2
#     Edge 34, Type (0, 1), BuildingBlock: CIFDUS_clean_linker_0, # of connection points: 2
#     Edge 35, Type (0, 1), BuildingBlock: CIFDUS_clean_linker_0, # of connection points: 2
#     Edge 36, Type (0, 1), BuildingBlock: CIFDUS_clean_linker_0, # of connection points: 2
#     Edge 37, Type (0, 1), BuildingBlock: CIFDUS_clean_linker_0, # of connection points: 2
#     Edge 38, Type (0, 1), BuildingBlock: CIFDUS_clean_linker_0, # of connection points: 2
#     Edge 39, Type (0, 1), BuildingBlock: CIFDUS_clean_linker_0, # of connection points: 2
#     Edge 40, Type (0, 1), BuildingBlock: CIFDUS_clean_linker_0, # of connection points: 2
#     Edge 41, Type (0, 1), BuildingBlock: CIFDUS_clean_linker_0, # of connection points: 2
#     Edge 42, Type (0, 1), BuildingBlock: CIFDUS_clean_linker_0, # of connection points: 2
#     Edge 43, Type (0, 1), BuildingBlock: CIFDUS_clean_linker_0, # of connection points: 2
#     Edge 44, Type (0, 1), BuildingBlock: CIFDUS_clean_linker_0, # of connection points: 2
#     Edge 45, Type (0, 1), BuildingBlock: CIFDUS_clean_linker_0, # of connection points: 2
#     Edge 46, Type (0, 1), BuildingBlock: CIFDUS_clean_linker_0, # of connection points: 2
#     Edge 47, Type (0, 1), BuildingBlock: CIFDUS_clean_linker_0, # of connection points: 2
#     Edge 48, Type (0, 1), BuildingBlock: CIFDUS_clean_linker_0, # of connection points: 2
#     Edge 49, Type (0, 1), BuildingBlock: CIFDUS_clean_linker_0, # of connection points: 2
#     Edge 50, Type (0, 1), BuildingBlock: CIFDUS_clean_linker_0, # of connection points: 2
#     Edge 51, Type (0, 1), BuildingBlock: CIFDUS_clean_linker_0, # of connection points: 2
#     Edge 52, Type (0, 1), BuildingBlock: CIFDUS_clean_linker_0, # of connection points: 2
#     Edge 53, Type (0, 1), BuildingBlock: CIFDUS_clean_linker_0, # of connection points: 2
#     Edge 54, Type (0, 1), BuildingBlock: CIFDUS_clean_linker_0, # of connection points: 2
#     Edge 55, Type (0, 1), BuildingBlock: CIFDUS_clean_linker_0, # of connection points: 2
#     Edge 56, Type (0, 1), BuildingBlock: CIFDUS_clean_linker_0, # of connection points: 2
#     Edge 57, Type (0, 1), BuildingBlock: CIFDUS_clean_linker_0, # of connection points: 2
#     Edge 58, Type (0, 1), BuildingBlock: CIFDUS_clean_linker_0, # of connection points: 2
#     Edge 59, Type (0, 1), BuildingBlock: CIFDUS_clean_linker_0, # of connection points: 2
#     Edge 60, Type (0, 1), BuildingBlock: CIFDUS_clean_linker_0, # of connection points: 2
#     Edge 61, Type (0, 1), BuildingBlock: CIFDUS_clean_linker_0, # of connection points: 2
#     Edge 62, Type (0, 1), BuildingBlock: CIFDUS_clean_linker_0, # of connection points: 2
#     Edge 63, Type (0, 1), BuildingBlock: CIFDUS_clean_linker_0, # of connection points: 2
#     Edge 64, Type (0, 1), BuildingBlock: CIFDUS_clean_linker_0, # of connection points: 2
#     Edge 65, Type (0, 1), BuildingBlock: CIFDUS_clean_linker_0, # of connection points: 2
#     Edge 66, Type (0, 1), BuildingBlock: CIFDUS_clean_linker_0, # of connection points: 2
#     Edge 67, Type (0, 1), BuildingBlock: CIFDUS_clean_linker_0, # of connection points: 2
#     Edge 68, Type (0, 1), BuildingBlock: CIFDUS_clean_linker_0, # of connection points: 2
#     Edge 69, Type (0, 1), BuildingBlock: CIFDUS_clean_linker_0, # of connection points: 2
#     Edge 70, Type (0, 1), BuildingBlock: CIFDUS_clean_linker_0, # of connection points: 2
#     Edge 71, Type (0, 1), BuildingBlock: CIFDUS_clean_linker_0, # of connection points: 2
#     Edge 72, Type (0, 1), BuildingBlock: CIFDUS_clean_linker_0, # of connection points: 2
#     Edge 73, Type (0, 1), BuildingBlock: CIFDUS_clean_linker_0, # of connection points: 2
#     Edge 74, Type (0, 1), BuildingBlock: CIFDUS_clean_linker_0, # of connection points: 2
#     Edge 75, Type (0, 1), BuildingBlock: CIFDUS_clean_linker_0, # of connection points: 2
# Relax obj value: 0.127
# Max RMSD: 0.268
# Mean RMSD: 0.160
data_MOF--net-ctn--node1-KUFVIS_clean_sbu_0--node2-QEWDON_clean_linker_0--edge1-CIFDUS_clean_linker_0
_symmetry_space_group_name_H-M    P1
_symmetry_Int_Tables_number       1
_symmetry_cell_setting            triclinic
loop_
_symmetry_equiv_pos_as_xyz
'x, y, z'
_cell_length_a     45.364347
_cell_length_b     47.408893
_cell_length_c     50.91751
_cell_angle_alpha  99.664752
_cell_angle_beta   92.651936
_cell_angle_gamma 96.913528
loop_
_atom_site_label
_atom_site_type_symbol
_atom_site_fract_x
_atom_site_fract_y
_atom_site_fract_z
_atom_type_partial_charge
H0 H 0.11945 0.05343 0.04557 0.0
C1 C 0.10866 0.04902 0.06325 0.0
C2 C 0.1138 0.02457 0.07448 0.0
C3 C 0.09117 0.06913 0.07555 0.0
H4 H 0.1039 1.00202 0.1074 0.0
C5 C 0.09946 0.02 0.09792 0.0
C6 C 0.08093 0.03975 0.11013 0.0
C7 C 0.07682 0.06393 0.09831 0.0
C8 C 0.09323 0.0984 0.06856 0.0
H9 H 0.06309 0.07962 0.10728 0.0
C10 C 0.0805 0.10388 0.04438 0.0
C11 C 0.084 0.13223 0.0387 0.0
C12 C 0.10906 0.12133 0.08683 0.0
H13 H 0.11904 0.11754 0.10547 0.0
C14 C 0.11257 0.1492 0.08116 0.0
H15 H 0.06816 0.08637 0.03018 0.0
C16 C 0.10024 0.15464 0.05726 0.0
H17 H 0.10307 0.17655 0.05336 0.0
H18 H 0.12492 0.16668 0.09535 0.0
H19 H 0.38627 0.7269 0.22592 0.0
C20 C 0.37325 0.70622 0.22596 0.0
C21 C 0.38438 0.68582 0.23981 0.0
C22 C 0.3441 0.7012 0.21415 0.0
H23 H 0.37341 0.64423 0.25169 0.0
C24 C 0.36614 0.65964 0.24015 0.0
C25 C 0.33737 0.654 0.2275 0.0
C26 C 0.3267 0.67475 0.21428 0.0
C27 C 0.32909 0.72562 0.20816 0.0
H28 H 0.30378 0.67147 0.20616 0.0
C29 C 0.33588 0.73954 0.18638 0.0
C30 C 0.3205 0.76256 0.18149 0.0
C31 C 0.3072 0.73491 0.22498 0.0
H32 H 0.30175 0.7245 0.24186 0.0
C33 C 0.29214 0.75764 0.22031 0.0
H34 H 0.35272 0.73237 0.17334 0.0
C35 C 0.2986 0.7713 0.19873 0.0
H36 H 0.28588 0.78839 0.19521 0.0
H37 H 0.27519 0.76452 0.23332 0.0
H38 H 0.04785 0.50626 0.07294 0.0
C39 C 0.02843 0.51635 0.06843 0.0
C40 C 0.01572 0.53339 0.08896 0.0
C41 C 0.01793 0.51378 0.04181 0.0
H42 H 0.98299 0.56214 0.09806 0.0
C43 C 0.99191 0.54811 0.08225 0.0
C44 C 0.98021 0.54523 0.0554 0.0
C45 C 0.99362 0.52763 0.03536 0.0
C46 C 0.03579 0.50025 0.02092 0.0
H47 H 0.98573 0.52482 0.01459 0.0
C48 C 0.03119 0.47033 0.01141 0.0
C49 C 0.05178 0.45694 0.99502 0.0
C50 C 0.06039 0.51714 0.0134 0.0
H51 H 0.0644 0.54015 0.02085 0.0
C52 C 0.08075 0.50432 0.99728 0.0
H53 H 0.0118 0.45778 0.01718 0.0
C54 C 0.07688 0.47454 0.98858 0.0
H55 H 0.09414 0.4655 0.97727 0.0
H56 H 0.10011 0.51742 0.9921 0.0
H57 H 0.77462 0.8349 0.23698 0.0
C58 C 0.77741 0.82706 0.2162 0.0
C59 C 0.79586 0.84372 0.20119 0.0
C60 C 0.76368 0.79918 0.20502 0.0
H61 H 0.81428 0.84282 0.16229 0.0
C62 C 0.79912 0.83182 0.17418 0.0
C63 C 0.7835 0.80497 0.16227 0.0
C64 C 0.76562 0.78908 0.17773 0.0
C65 C 0.75169 0.77868 0.22234 0.0
H66 H 0.75472 0.76776 0.16881 0.0
C67 C 0.73369 0.78676 0.24356 0.0
C68 C 0.72472 0.76705 0.26048 0.0
C69 C 0.76017 0.75071 0.21835 0.0
H70 H 0.77456 0.74399 0.20272 0.0
C71 C 0.75099 0.73123 0.23486 0.0
H72 H 0.72698 0.80818 0.24707 0.0
C73 C 0.73348 0.73931 0.25582 0.0
H74 H 0.72659 0.72376 0.26842 0.0
H75 H 0.75773 0.70984 0.23155 0.0
H76 H 0.12542 0.97595 0.49539 0.0
C77 C 0.10987 0.98358 0.48226 0.0
C78 C 0.1189 1.00821 0.47101 0.0
C79 C 0.08186 0.96722 0.4744 0.0
H80 H 0.10673 0.03512 0.44311 0.0
C81 C 0.09947 0.01663 0.45223 0.0
C82 C 0.07118 1.00102 0.44461 0.0
C83 C 0.06258 0.97653 0.45607 0.0
C84 C 0.075 0.93731 0.4799 0.0
H85 H 0.04152 0.96333 0.44929 0.0
C86 C 0.06945 0.93092 0.50559 0.0
C87 C 0.06035 0.90201 0.50873 0.0
C88 C 0.07252 0.9146 0.45797 0.0
H89 H 0.07683 0.9189 0.43816 0.0
C90 C 0.06427 0.88622 0.46115 0.0
H91 H 0.07118 0.94822 0.52266 0.0
C92 C 0.05807 0.87996 0.48621 0.0
H93 H 0.05175 0.85763 0.48804 0.0
H94 H 0.06248 0.86897 0.44405 0.0
H95 H 0.28984 0.69323 0.79503 0.0
C96 C 0.28591 0.70112 0.81566 0.0
C97 C 0.30161 0.6917 0.83642 0.0
C98 C 0.26635 0.72182 0.82123 0.0
H99 H 0.31042 0.69763 0.87925 0.0
C100 C 0.29747 0.70366 0.86313 0.0
C101 C 0.27802 0.72474 0.86898 0.0
C102 C 0.26217 0.73312 0.84783 0.0
C103 C 0.25605 0.73677 0.79993 0.0
H104 H 0.24853 0.75044 0.85197 0.0
C105 C 0.22691 0.73048 0.78766 0.0
C106 C 0.21742 0.74677 0.76864 0.0
C107 C 0.27566 0.75918 0.79315 0.0
H108 H 0.29803 0.76442 0.80256 0.0
C109 C 0.26642 0.77554 0.77483 0.0
H110 H 0.21198 0.71296 0.79282 0.0
C111 C 0.23758 0.76966 0.76289 0.0
H112 H 0.23105 0.78353 0.74941 0.0
H113 H 0.28157 0.79315 0.7701 0.0
H114 H 1.0046 0.58184 0.48048 0.0
C115 C 0.987 0.56776 0.48723 0.0
C116 C 0.97784 0.57454 0.51343 0.0
C117 C 0.97141 0.5446 0.46894 0.0
H118 H 0.94552 0.56284 0.54113 0.0
C119 C 0.95346 0.55726 0.52141 0.0
C120 C 0.93821 0.5338 0.50346 0.0
C121 C 0.94766 0.52738 0.47758 0.0
C122 C 0.97583 0.54105 0.43981 0.0
H123 H 0.93516 0.5098 0.46351 0.0
C124 C 1.00406 0.53932 0.42941 0.0
C125 C 1.00655 0.53527 0.4015 0.0
C126 C 0.95069 0.53924 0.422 0.0
H127 H 0.92884 0.54102 0.42937 0.0
C128 C 0.95331 0.53536 0.39455 0.0
H129 H 0.02371 0.54085 0.44276 0.0
C130 C 0.98102 0.53333 0.38434 0.0
H131 H 0.9826 0.53037 0.3629 0.0
H132 H 0.93377 0.534 0.38114 0.0
H133 H 0.87725 0.8459 0.80068 0.0
C134 C 0.86901 0.82886 0.81124 0.0
C135 C 0.88264 0.80332 0.80915 0.0
C136 C 0.84592 0.83343 0.82835 0.0
H137 H 0.882 0.76243 0.82341 0.0
C138 C 0.87255 0.7825 0.82486 0.0
C139 C 0.84969 0.78703 0.84221 0.0
C140 C 0.8364 0.81242 0.84356 0.0
C141 C 0.83565 0.86216 0.83479 0.0
H142 H 0.81934 0.81649 0.85745 0.0
C143 C 0.81339 0.87122 0.81889 0.0
C144 C 0.8029 0.89809 0.82722 0.0
C145 C 0.84725 0.87994 0.85876 0.0
H146 H 0.86412 0.87323 0.87127 0.0
C147 C 0.83684 0.90616 0.86714 0.0
H148 H 0.80437 0.85749 0.80039 0.0
C149 C 0.81478 0.91506 0.85172 0.0
H150 H 0.80675 0.93528 0.85929 0.0
H151 H 0.84568 0.91952 0.88586 0.0
H152 H 0.37605 0.33823 0.30735 0.0
C153 C 0.36917 0.3204 0.31743 0.0
C154 C 0.38392 0.29544 0.31372 0.0
C155 C 0.34665 0.32317 0.3355 0.0
H156 H 0.38539 0.25351 0.32555 0.0
C157 C 0.37523 0.27324 0.32839 0.0
C158 C 0.35275 0.27583 0.34635 0.0
C159 C 0.33852 0.30068 0.34954 0.0
C160 C 0.33364 0.35056 0.34271 0.0
H161 H 0.32136 0.30285 0.36363 0.0
C162 C 0.31653 0.36204 0.32411 0.0
C163 C 0.30219 0.38651 0.33283 0.0
C164 C 0.33677 0.36427 0.3696 0.0
H165 H 0.34979 0.35592 0.38422 0.0
C166 C 0.32295 0.38859 0.37803 0.0
H167 H 0.31382 0.35171 0.30333 0.0
C168 C 0.30565 0.39956 0.35983 0.0
H169 H 0.29504 0.41847 0.36681 0.0
H170 H 0.32551 0.39887 0.3988 0.0
H171 H 0.55059 0.98377 0.54579 0.0
C172 C 0.53088 0.99442 0.5444 0.0
C173 C 0.52132 0.0109 0.56739 0.0
C174 C 0.5162 0.99265 0.51929 0.0
H175 H 0.48782 0.03758 0.58218 0.0
C176 C 0.49543 0.02456 0.56488 0.0
C177 C 0.47974 0.02178 0.5397 0.0
C178 C 0.49053 1.00599 0.51718 0.0
C179 C 0.52923 0.97927 0.49485 0.0
H180 H 0.47922 1.00464 0.49767 0.0
C181 C 0.5363 0.95084 0.49177 0.0
C182 C 0.54873 0.93854 0.46834 0.0
C183 C 0.535 0.99543 0.4745 0.0
H184 H 0.52998 0.01744 0.47656 0.0
C185 C 0.54767 0.98353 0.45149 0.0
H186 H 0.53183 0.93829 0.50742 0.0
C187 C 0.55445 0.9553 0.44834 0.0
H188 H 0.56348 0.94635 0.4299 0.0
H189 H 0.55203 0.99615 0.43591 0.0
H190 H 0.26478 0.34688 0.72316 0.0
C191 C 0.2641 0.33762 0.70224 0.0
C192 C 0.27818 0.35295 0.68359 0.0
C193 C 0.25056 0.30903 0.69452 0.0
H194 H 0.28772 0.34903 0.64158 0.0
C195 C 0.27626 0.33907 0.65649 0.0
C196 C 0.2603 0.3114 0.64835 0.0
C197 C 0.24765 0.29662 0.66747 0.0
C198 C 0.24482 0.29019 0.71471 0.0
H199 H 0.2372 0.27449 0.66148 0.0
C200 C 0.22678 0.29711 0.73608 0.0
C201 C 0.22295 0.27892 0.75528 0.0
C202 C 0.2589 0.26513 0.71283 0.0
H203 H 0.27322 0.25958 0.69682 0.0
C204 C 0.25517 0.24724 0.73178 0.0
H205 H 0.21587 0.31639 0.73774 0.0
C206 C 0.23735 0.25402 0.75284 0.0
H207 H 0.23443 0.23946 0.76708 0.0
H208 H 0.26612 0.22801 0.73012 0.0
H209 H 0.90383 0.20123 0.71451 0.0
C210 C 0.88164 0.19203 0.71815 0.0
C211 C 0.87695 0.18086 0.74165 0.0
C212 C 0.85807 0.19069 0.69895 0.0
H213 H 0.84521 0.15877 0.76363 0.0
C214 C 0.84845 0.16809 0.74578 0.0
C215 C 0.82435 0.16697 0.72699 0.0
C216 C 0.82938 0.17867 0.70366 0.0
C217 C 0.86423 0.19906 0.67283 0.0
H218 H 0.81126 0.17767 0.68876 0.0
C219 C 0.85034 0.22086 0.66351 0.0
C220 C 0.85641 0.22831 0.63837 0.0
C221 C 0.88416 0.18467 0.65696 0.0
H222 H 0.89498 0.16777 0.66376 0.0
C223 C 0.88981 0.19146 0.63196 0.0
H224 H 0.83547 0.23231 0.67612 0.0
C225 C 0.87598 0.21291 0.62263 0.0
H226 H 0.88042 0.21711 0.60285 0.0
H227 H 0.90485 0.1799 0.61966 0.0
H228 H 0.61002 0.53916 0.5492 0.0
C229 C 0.59914 0.5331 0.56627 0.0
C230 C 0.60558 0.50835 0.5764 0.0
C231 C 0.57987 0.55128 0.57881 0.0
H232 H 0.59589 0.48307 0.60743 0.0
C233 C 0.59062 0.50136 0.59879 0.0
C234 C 0.56995 0.51875 0.61096 0.0
C235 C 0.56491 0.54358 0.60056 0.0
C236 C 0.57891 0.58051 0.57212 0.0
H237 H 0.54939 0.55744 0.60946 0.0
C238 C 0.57144 0.58493 0.54598 0.0
C239 C 0.5723 0.61325 0.5405 0.0
C240 C 0.58694 0.60458 0.59247 0.0
H241 H 0.593 0.60177 0.61262 0.0
C242 C 0.58795 0.63248 0.587 0.0
H243 H 0.56507 0.56658 0.53012 0.0
C244 C 0.58081 0.63683 0.56122 0.0
H245 H 0.58146 0.65874 0.5575 0.0
H246 H 0.59433 0.65082 0.60282 0.0
H247 H 0.63337 0.48679 0.99867 0.0
C248 C 0.6157 0.48876 0.98424 0.0
C249 C 0.61962 0.51074 0.9689 0.0
C250 C 0.59065 0.46752 0.97929 0.0
H251 H 0.60131 0.52824 0.93629 0.0
C252 C 0.59763 0.512 0.94887 0.0
C253 C 0.57214 0.49127 0.94368 0.0
C254 C 0.56866 0.4693 0.95942 0.0
C255 C 0.59149 0.44032 0.99014 0.0
H256 H 0.54986 0.45244 0.95508 0.0
C257 C 0.56982 0.42993 1.00662 0.0
C258 C 0.57234 0.40391 0.01624 0.0
C259 C 0.61498 0.42426 0.98332 0.0
H260 H 0.63168 0.4316 0.97056 0.0
C261 C 0.61715 0.39853 0.99256 0.0
H262 H 0.55163 0.44208 0.01215 0.0
C263 C 0.59605 0.38844 1.00892 0.0
H264 H 0.59835 0.36848 0.01608 0.0
H265 H 0.63534 0.38639 0.98709 0.0
H266 H 0.79255 0.17867 0.28864 0.0
C267 C 0.7881 0.18922 0.30839 0.0
C268 C 0.80202 0.1818 0.3311 0.0
C269 C 0.76894 0.21061 0.31087 0.0
H270 H 0.80864 0.1922 0.37414 0.0
C271 C 0.79704 0.19678 0.35655 0.0
C272 C 0.77825 0.21866 0.35929 0.0
C273 C 0.76368 0.2248 0.33635 0.0
C274 C 0.759 0.22193 0.28699 0.0
H275 H 0.75025 0.24239 0.33817 0.0
C276 C 0.72857 0.221 0.2791 0.0
C277 C 0.71991 0.23357 0.25705 0.0
C278 C 0.78068 0.23544 0.27285 0.0
H279 H 0.80412 0.23659 0.27874 0.0
C280 C 0.77239 0.24851 0.25165 0.0
H281 H 0.71198 0.2101 0.28985 0.0
C282 C 0.74241 0.2479 0.24398 0.0
H283 H 0.737 0.25906 0.22788 0.0
H284 H 0.78929 0.25947 0.24126 0.0
H285 H 0.48436 0.09872 0.97749 0.0
C286 C 0.47286 0.08113 0.98569 0.0
C287 C 0.46511 0.0858 0.01245 0.0
C288 C 0.46345 0.05445 0.969 0.0
H289 H 0.44192 0.06713 0.0429 0.0
C290 C 0.44842 0.06341 0.0225 0.0
C291 C 0.44001 0.03632 1.00632 0.0
C292 C 0.44785 0.03211 0.97974 0.0
C293 C 0.46531 0.05051 0.93957 0.0
H294 H 0.44027 0.01166 0.96677 0.0
C295 C 0.49265 0.05321 0.92744 0.0
C296 C 0.49317 0.04598 0.89937 0.0
C297 C 0.43874 0.04191 0.92331 0.0
H298 H 0.41745 0.03996 0.93211 0.0
C299 C 0.43925 0.03538 0.89567 0.0
H300 H 0.5133 0.05975 0.9397 0.0
C301 C 0.46625 0.03713 0.88377 0.0
H302 H 0.4661 0.03185 0.86221 0.0
H303 H 0.41864 0.02869 0.88343 0.0
Mn304 Mn 0.26748 0.87048 0.03632 0.0
Mn305 Mn 0.26306 0.89135 0.97644 0.0
C306 C 0.251 0.83663 0.99823 0.0
C307 C 0.29331 0.85507 0.0708 0.0
C308 C 0.22132 0.90715 0.02026 0.0
O309 O 0.29453 0.90942 0.04196 0.0
O310 O 0.29527 0.91731 0.99931 0.0
C311 C 0.32097 0.87825 0.95628 0.0
N312 N 0.29068 0.87431 0.95341 0.0
C313 C 0.29091 0.84149 0.91187 0.0
C314 C 0.32211 0.84532 0.91433 0.0
C315 C 0.33719 0.86372 0.93667 0.0
C316 C 0.27594 0.85656 0.93205 0.0
H317 H 0.33264 0.8923 0.97345 0.0
C318 C 0.30435 0.92347 0.02406 0.0
O319 O 0.27076 0.86919 0.07495 0.0
O320 O 0.30147 0.8501 0.04649 0.0
N321 N 0.23285 0.86711 0.95261 0.0
C322 C 0.20276 0.86425 0.95415 0.0
C323 C 0.1844 0.84595 0.9337 0.0
C324 C 0.19713 0.83086 0.91187 0.0
C325 C 0.22815 0.83417 0.91068 0.0
C326 C 0.24531 0.85285 0.93156 0.0
H327 H 0.19284 0.87581 0.97086 0.0
O328 O 0.24386 0.83169 0.02162 0.0
O329 O 0.26677 0.86129 0.99812 0.0
O330 O 0.23021 0.89069 0.03541 0.0
O331 O 0.23309 0.9103 0.99841 0.0
C332 C 0.24273 0.81917 0.88991 0.0
C333 C 0.27409 0.82277 0.89054 0.0
H334 H 0.3347 0.83399 0.89934 0.0
H335 H 0.36126 0.86665 0.93879 0.0
H336 H 0.16049 0.84344 0.9348 0.0
H337 H 0.1829 0.81658 0.89626 0.0
H338 H 0.23005 0.80443 0.8736 0.0
H339 H 0.28504 0.8107 0.87473 0.0
Mn340 Mn 0.16433 0.51148 0.25623 0.0
Mn341 Mn 0.15844 0.58211 0.25779 0.0
C342 C 0.19749 0.53961 0.2349 0.0
C343 C 0.18545 0.47545 0.27425 0.0
C344 C 0.11833 0.53409 0.22119 0.0
O345 O 0.1376 0.52032 0.28732 0.0
O346 O 0.13647 0.56755 0.28662 0.0
C347 C 0.19294 0.6048 0.30939 0.0
N348 N 0.18865 0.6046 0.2827 0.0
C349 C 0.23029 0.64154 0.28397 0.0
C350 C 0.23507 0.64224 0.31148 0.0
C351 C 0.21638 0.62371 0.32422 0.0
C352 C 0.20672 0.6221 0.2702 0.0
H353 H 0.17861 0.59063 0.31927 0.0
C354 C 0.12938 0.54476 0.29657 0.0
O355 O 0.16102 0.46926 0.25889 0.0
O356 O 0.19629 0.5024 0.28032 0.0
N357 N 0.179 0.59926 0.2312 0.0
C358 C 0.17192 0.59536 0.20441 0.0
C359 C 0.18877 0.612 0.18866 0.0
C360 C 0.21246 0.63269 0.20063 0.0
C361 C 0.21904 0.63662 0.22827 0.0
C362 C 0.20144 0.61946 0.24296 0.0
H363 H 0.15362 0.57964 0.19512 0.0
O364 O 0.19342 0.5118 0.22769 0.0
O365 O 0.18195 0.54999 0.2541 0.0
O366 O 0.12964 0.51301 0.22877 0.0
O367 O 0.12726 0.56053 0.23108 0.0
C368 C 0.24252 0.65675 0.2418 0.0
C369 C 0.24821 0.65914 0.26961 0.0
H370 H 0.25312 0.65679 0.32299 0.0
H371 H 0.21999 0.62404 0.34543 0.0
H372 H 0.1835 0.60888 0.16734 0.0
H373 H 0.2255 0.64537 0.18839 0.0
H374 H 0.25653 0.67028 0.23098 0.0
H375 H 0.2666 0.67438 0.27972 0.0
Mn376 Mn 0.81182 0.65347 0.997 0.0
Mn377 Mn 0.74726 0.66787 0.96877 0.0
C378 C 0.76674 0.62501 1.00022 0.0
C379 C 0.85487 0.63064 0.9989 0.0
C380 C 0.77692 0.70249 0.02067 0.0
O381 O 0.82698 0.67887 0.96986 0.0
O382 O 0.78223 0.68616 0.95303 0.0
C383 C 0.75118 0.63594 0.91405 0.0
N384 N 0.73589 0.64115 0.93638 0.0
C385 C 0.69321 0.60861 0.91555 0.0
C386 C 0.70847 0.60299 0.89229 0.0
C387 C 0.73763 0.6166 0.8916 0.0
C388 C 0.70796 0.62788 0.93737 0.0
H389 H 0.77351 0.64654 0.91335 0.0
C390 C 0.81072 0.68952 0.95367 0.0
O391 O 0.85219 0.65454 0.01455 0.0
O392 O 0.83334 0.62067 0.98074 0.0
N393 N 0.71126 0.65135 0.98156 0.0
C394 C 0.70025 0.65788 1.00599 0.0
C395 C 0.67164 0.6453 0.0103 0.0
C396 C 0.65447 0.62651 0.98938 0.0
C397 C 0.66611 0.6204 0.96432 0.0
C398 C 0.6948 0.6335 0.96123 0.0
H399 H 0.71329 0.67236 0.02212 0.0
O400 O 0.78889 0.62665 0.01769 0.0
O401 O 0.77126 0.64014 0.9814 0.0
O402 O 0.79921 0.68858 0.02095 0.0
O403 O 0.75604 0.69644 1.00218 0.0
C404 C 0.65053 0.60152 0.9424 0.0
C405 C 0.66409 0.59561 0.91803 0.0
H406 H 0.69807 0.58815 0.87491 0.0
H407 H 0.74958 0.61231 0.87375 0.0
H408 H 0.66284 0.65008 0.02972 0.0
H409 H 0.63247 0.61675 0.99282 0.0
H410 H 0.62833 0.59102 0.94421 0.0
H411 H 0.65209 0.58066 0.90147 0.0
Mn412 Mn 0.94046 0.02849 0.26934 0.0
Mn413 Mn 0.95851 0.96066 0.26696 0.0
C414 C 0.90904 0.9889 0.24592 0.0
C415 C 0.91719 0.06869 0.28774 0.0
C416 C 0.98628 1.00186 0.23268 0.0
O417 O 0.97168 0.03385 0.30094 0.0
O418 O 0.9818 0.98788 0.29691 0.0
C419 C 0.9351 0.94922 0.31807 0.0
N420 N 0.93617 0.94139 0.29118 0.0
C421 C 0.90573 0.89618 0.29132 0.0
C422 C 0.90444 0.90371 0.31903 0.0
C423 C 0.91903 0.93043 0.33243 0.0
C424 C 0.92183 0.91593 0.27804 0.0
H425 H 0.94653 0.96958 0.32846 0.0
C426 C 0.98545 0.0143 0.30857 0.0
O427 O 0.93925 0.07095 0.27258 0.0
O428 O 0.90952 0.04326 0.29347 0.0
N429 N 0.93782 0.93148 0.2395 0.0
C430 C 0.93925 0.92852 0.21252 0.0
C431 C 0.92462 0.90355 0.19602 0.0
C432 C 0.90911 0.88167 0.20744 0.0
C433 C 0.90816 0.88508 0.23526 0.0
C434 C 0.92293 0.91056 0.25067 0.0
H435 H 0.95112 0.94524 0.20365 0.0
O436 O 0.90843 0.01445 0.24012 0.0
O437 O 0.9281 0.98694 0.26525 0.0
O438 O 0.97288 0.0232 0.24213 0.0
O439 O 0.98242 0.97766 0.24068 0.0
C440 C 0.89267 0.86445 0.24828 0.0
C441 C 0.89141 0.87002 0.27629 0.0
H442 H 0.89215 0.88923 0.3302 0.0
H443 H 0.91805 0.93644 0.35381 0.0
H444 H 0.92533 0.90116 0.17456 0.0
H445 H 0.89778 0.86249 0.19464 0.0
H446 H 0.88107 0.84453 0.23689 0.0
H447 H 0.8789 0.85427 0.28602 0.0
Mn448 Mn 0.31433 0.14404 0.50157 0.0
Mn449 Mn 0.2504 0.15837 0.47221 0.0
C450 C 0.26842 0.1177 0.50666 0.0
C451 C 0.3573 0.12136 0.50593 0.0
C452 C 0.2823 0.1965 0.52123 0.0
O453 O 0.3299 0.16596 0.47209 0.0
O454 O 0.28552 0.17364 0.45463 0.0
C455 C 0.25208 0.12159 0.4193 0.0
N456 N 0.23759 0.12934 0.44169 0.0
C457 C 0.19371 0.09683 0.42371 0.0
C458 C 0.20813 0.08856 0.40041 0.0
C459 C 0.2375 0.10087 0.39827 0.0
C460 C 0.2095 0.11731 0.44411 0.0
H461 H 0.27454 0.13121 0.41747 0.0
C462 C 0.314 0.17592 0.45512 0.0
O463 O 0.35484 0.14667 0.51904 0.0
O464 O 0.33524 0.10938 0.48885 0.0
N465 N 0.21445 0.14467 0.48688 0.0
C466 C 0.20422 0.15402 0.51115 0.0
C467 C 0.17549 0.14315 0.51685 0.0
C468 C 0.15741 0.12316 0.4974 0.0
C469 C 0.16829 0.11415 0.47246 0.0
C470 C 0.19716 0.12559 0.46798 0.0
H471 H 0.21793 0.16954 0.52609 0.0
O472 O 0.29042 0.12025 0.5245 0.0
O473 O 0.27353 0.13106 0.48675 0.0
O474 O 0.30341 0.18137 0.52244 0.0
O475 O 0.26064 0.18975 0.50355 0.0
C476 C 0.15169 0.09411 0.45193 0.0
C477 C 0.1644 0.0854 0.42758 0.0
H478 H 0.19693 0.07267 0.38411 0.0
H479 H 0.2488 0.09454 0.38038 0.0
H480 H 0.16726 0.15022 0.53615 0.0
H481 H 0.13528 0.11479 0.50188 0.0
H482 H 0.12925 0.08506 0.4548 0.0
H483 H 0.15157 0.06961 0.41212 0.0
Mn484 Mn 0.42652 0.5269 0.77799 0.0
Mn485 Mn 0.44609 0.45929 0.76624 0.0
C486 C 0.39468 0.48863 0.75255 0.0
C487 C 0.40253 0.56371 0.80214 0.0
C488 C 0.47228 0.50712 0.738 0.0
O489 O 0.45931 0.52855 0.80799 0.0
O490 O 0.46871 0.48233 0.79866 0.0
C491 C 0.42324 0.4381 0.81393 0.0
N492 N 0.42396 0.4351 0.7869 0.0
C493 C 0.3914 0.39015 0.78054 0.0
C494 C 0.39052 0.39264 0.80832 0.0
C495 C 0.40641 0.41678 0.82507 0.0
C496 C 0.40861 0.41203 0.77059 0.0
H497 H 0.43536 0.45662 0.8269 0.0
C498 C 0.47257 0.50747 0.81329 0.0
O499 O 0.42357 0.56934 0.78664 0.0
O500 O 0.39656 0.53691 0.8048 0.0
N501 N 0.42514 0.43458 0.73577 0.0
C502 C 0.42622 0.43669 0.70945 0.0
C503 C 0.41033 0.41493 0.69005 0.0
C504 C 0.39369 0.39115 0.69787 0.0
C505 C 0.39298 0.38941 0.72505 0.0
C506 C 0.40929 0.41173 0.74349 0.0
H507 H 0.43891 0.45493 0.70332 0.0
O508 O 0.39269 0.51499 0.74953 0.0
O509 O 0.41557 0.48545 0.76962 0.0
O510 O 0.45757 0.52649 0.74949 0.0
O511 O 0.46992 0.48158 0.74323 0.0
C512 C 0.37614 0.36676 0.73461 0.0
C513 C 0.37531 0.36715 0.76233 0.0
H514 H 0.37745 0.37633 0.81699 0.0
H515 H 0.40569 0.41896 0.84652 0.0
H516 H 0.41084 0.41653 0.66912 0.0
H517 H 0.38124 0.37455 0.68286 0.0
H518 H 0.36324 0.34925 0.72082 0.0
H519 H 0.36181 0.34992 0.76944 0.0
Mn520 Mn 0.7683 0.36183 0.52714 0.0
Mn521 Mn 0.75787 0.38845 0.47066 0.0
C522 C 0.74883 0.33125 0.48788 0.0
C523 C 0.79779 0.34133 0.55561 0.0
C524 C 0.71954 0.39911 0.51802 0.0
O525 O 0.79564 0.40066 0.53429 0.0
O526 O 0.79031 0.41379 0.49379 0.0
C527 C 0.81514 0.3795 0.447 0.0
N528 N 0.78485 0.37454 0.44527 0.0
C529 C 0.78417 0.34369 0.40252 0.0
C530 C 0.81534 0.34861 0.40377 0.0
C531 C 0.83088 0.36658 0.42612 0.0
C532 C 0.76967 0.35728 0.42386 0.0
H533 H 0.8272 0.39306 0.46426 0.0
C534 C 0.80253 0.41743 0.51757 0.0
O535 O 0.7757 0.35451 0.56421 0.0
O536 O 0.80339 0.34097 0.53082 0.0
N537 N 0.72728 0.36497 0.44671 0.0
C538 C 0.69742 0.36085 0.44943 0.0
C539 C 0.67868 0.34295 0.42901 0.0
C540 C 0.69083 0.32943 0.40605 0.0
C541 C 0.72164 0.334 0.4037 0.0
C542 C 0.73916 0.35238 0.42453 0.0
H543 H 0.68797 0.37107 0.46708 0.0
O544 O 0.7438 0.324 0.51089 0.0
O545 O 0.76406 0.3564 0.48893 0.0
O546 O 0.73093 0.38231 0.53154 0.0
O547 O 0.72862 0.40379 0.49553 0.0
C548 C 0.73572 0.32046 0.38181 0.0
C549 C 0.76697 0.32523 0.38126 0.0
H550 H 0.82758 0.33846 0.38783 0.0
H551 H 0.85495 0.37032 0.42733 0.0
H552 H 0.65494 0.33944 0.43102 0.0
H553 H 0.67634 0.31536 0.3905 0.0
H554 H 0.72277 0.30594 0.36551 0.0
H555 H 0.77757 0.31427 0.36456 0.0
Mn556 Mn 0.65494 0.01887 0.74951 0.0
Mn557 Mn 0.62907 0.08314 0.75282 0.0
C558 C 0.68064 0.05524 0.73118 0.0
C559 C 0.68634 0.99105 0.76955 0.0
C560 C 0.60303 0.02942 0.71324 0.0
O561 O 0.6244 0.01783 0.77783 0.0
O562 O 0.61209 0.06298 0.78112 0.0
C563 C 0.65831 0.11213 0.80521 0.0
N564 N 0.65334 0.11153 0.77852 0.0
C565 C 0.68562 0.15617 0.78084 0.0
C566 C 0.69073 0.15747 0.80841 0.0
C567 C 0.67708 0.13531 0.82062 0.0
C568 C 0.66644 0.1327 0.76654 0.0
H569 H 0.64821 0.09495 0.81463 0.0
C570 C 0.61074 0.03841 0.7887 0.0
O571 O 0.66496 0.97864 0.75195 0.0
O572 O 0.68783 0.01869 0.77634 0.0
N573 N 0.64433 0.10498 0.72687 0.0
C574 C 0.6391 0.09928 0.69981 0.0
C575 C 0.65241 0.1186 0.6844 0.0
C576 C 0.67085 0.14362 0.69695 0.0
C577 C 0.67575 0.14914 0.72483 0.0
C578 C 0.66166 0.12924 0.73918 0.0
H579 H 0.62508 0.08004 0.69002 0.0
O580 O 0.68488 0.02862 0.72377 0.0
O581 O 0.66167 0.05973 0.74929 0.0
O582 O 0.62134 0.01256 0.71935 0.0
O583 O 0.60333 0.05543 0.72522 0.0
C584 C 0.69462 0.17325 0.73888 0.0
C585 C 0.69953 0.17679 0.76687 0.0
H586 H 0.70546 0.17514 0.82032 0.0
H587 H 0.68117 0.13599 0.84185 0.0
H588 H 0.64858 0.11415 0.66288 0.0
H589 H 0.68133 0.15831 0.68497 0.0
H590 H 0.70589 0.18896 0.72831 0.0
H591 H 0.71453 0.19512 0.77739 0.0
Mn592 Mn 0.05523 0.24669 0.87494 0.0
Mn593 Mn 0.99026 0.24465 0.90445 0.0
C594 C 0.01234 0.2206 0.85246 0.0
C595 C 0.09009 0.26707 0.84895 0.0
C596 C 0.04113 0.21349 0.92045 0.0
O597 O 0.06172 0.28219 0.90421 0.0
O598 O 0.01613 0.28113 0.92063 0.0
C599 C 0.96645 0.29378 0.8856 0.0
N600 N 0.96375 0.26512 0.88689 0.0
C601 C 0.91781 0.25602 0.85943 0.0
C602 C 0.92003 0.28546 0.85796 0.0
C603 C 0.94447 0.30441 0.87109 0.0
C604 C 0.94028 0.24671 0.87436 0.0
H605 H 0.98533 0.30842 0.89543 0.0
C606 C 0.04278 0.2933 0.91928 0.0
O607 O 0.09754 0.25164 0.86634 0.0
O608 O 0.06236 0.27127 0.847 0.0
N609 N 0.96357 0.2107 0.88942 0.0
C610 C 0.96579 0.18266 0.8912 0.0
C611 C 0.94347 0.16087 0.87855 0.0
C612 C 0.91915 0.1681 0.86414 0.0
C613 C 0.91736 0.19708 0.86254 0.0
C614 C 0.94011 0.21791 0.87581 0.0
H615 H 0.98453 0.17692 0.90205 0.0
O616 O 0.03823 0.21364 0.84598 0.0
O617 O 0.01286 0.24137 0.87259 0.0
O618 O 0.05775 0.22016 0.90238 0.0
O619 O 0.01569 0.22212 0.92364 0.0
C620 C 0.89432 0.20602 0.84769 0.0
C621 C 0.89456 0.23547 0.84611 0.0
H622 H 0.90326 0.2937 0.84658 0.0
H623 H 0.94643 0.32713 0.86991 0.0
H624 H 0.9451 0.13853 0.87975 0.0
H625 H 0.90218 0.15119 0.85412 0.0
H626 H 0.87658 0.19037 0.83703 0.0
H627 H 0.87697 0.24202 0.83429 0.0
Mn628 Mn 0.55736 0.72947 0.37569 0.0
Mn629 Mn 0.48852 0.71668 0.39706 0.0
C630 C 0.51995 0.69972 0.34817 0.0
C631 C 0.59276 0.75515 0.35371 0.0
C632 C 0.54155 0.69101 0.41718 0.0
O633 O 0.55647 0.76321 0.40617 0.0
O634 O 0.50913 0.7539 0.41757 0.0
C635 C 0.46094 0.76475 0.3799 0.0
N636 N 0.4613 0.7359 0.37888 0.0
C637 C 0.41709 0.72468 0.3491 0.0
C638 C 0.41616 0.75427 0.34997 0.0
C639 C 0.43823 0.77438 0.36538 0.0
C640 C 0.44016 0.71636 0.36412 0.0
H641 H 0.47785 0.78032 0.39169 0.0
C642 C 0.53449 0.76976 0.41984 0.0
O643 O 0.60043 0.74022 0.37146 0.0
O644 O 0.5645 0.75623 0.34958 0.0
N645 N 0.46661 0.68166 0.37782 0.0
C646 C 0.47186 0.65394 0.37767 0.0
C647 C 0.45256 0.63119 0.36222 0.0
C648 C 0.42809 0.63716 0.34713 0.0
C649 C 0.42314 0.66586 0.34759 0.0
C650 C 0.44303 0.68764 0.36347 0.0
H651 H 0.49073 0.64923 0.38911 0.0
O652 O 0.54764 0.69665 0.3447 0.0
O653 O 0.51535 0.71896 0.36831 0.0
O654 O 0.56009 0.70189 0.40241 0.0
O655 O 0.51429 0.69528 0.4169 0.0
C656 C 0.39959 0.67373 0.33251 0.0
C657 C 0.39651 0.70311 0.33333 0.0
H658 H 0.39884 0.76178 0.3386 0.0
H659 H 0.43776 0.79725 0.36602 0.0
H660 H 0.45661 0.6091 0.36187 0.0
H661 H 0.4134 0.61957 0.33507 0.0
H662 H 0.38394 0.65737 0.31994 0.0
H663 H 0.37857 0.7089 0.32135 0.0
Mn664 Mn 0.02629 0.76854 0.64267 0.0
Mn665 Mn 1.00253 0.70948 0.66923 0.0
C666 C 0.02066 0.72247 0.61672 0.0
C667 C 0.02047 0.80676 0.61939 0.0
C668 C 0.0649 0.74125 0.68045 0.0
O669 O 1.00561 0.78578 0.67587 0.0
O670 O 0.99084 0.74453 0.69119 0.0
C671 C 0.93755 0.70911 0.65989 0.0
N672 N 0.96226 0.69554 0.6564 0.0
C673 C 0.93335 0.65276 0.63138 0.0
C674 C 0.90758 0.66622 0.63483 0.0
C675 C 0.90971 0.69454 0.64909 0.0
C676 C 0.96047 0.66831 0.64267 0.0
H677 H 0.93907 0.73089 0.67078 0.0
C678 C 0.99245 0.77194 0.69259 0.0
O679 O 0.04349 0.80721 0.63555 0.0
O680 O 0.99976 0.78497 0.61808 0.0
N681 N 0.01207 0.67405 0.6495 0.0
C682 C 0.03923 0.6648 0.6466 0.0
C683 C 0.0411 0.63717 0.63216 0.0
C684 C 0.01504 0.61929 0.62099 0.0
C685 C 0.98734 0.62921 0.62439 0.0
C686 C 0.98684 0.65687 0.63912 0.0
H687 H 0.05933 0.67846 0.65512 0.0
O688 O 0.03898 0.74311 0.61043 0.0
O689 O 1.00696 0.72918 0.63826 0.0
O690 O 0.06112 0.76007 0.66588 0.0
O691 O 0.0444 0.72142 0.68355 0.0
C692 C 0.96025 0.61296 0.61326 0.0
C693 C 0.93328 0.62474 0.61673 0.0
H694 H 0.88609 0.65511 0.62642 0.0
H695 H 0.88994 0.70512 0.65173 0.0
H696 H 0.06257 0.62971 0.62954 0.0
H697 H 0.0166 0.59812 0.60962 0.0
H698 H 0.95996 0.59157 0.60163 0.0
H699 H 0.91266 0.61221 0.60773 0.0
Mn700 Mn 0.527 0.2727 0.14565 0.0
Mn701 Mn 0.50033 0.21021 0.16553 0.0
C702 C 0.52435 0.22889 0.11657 0.0
C703 C 0.52487 0.31438 0.12645 0.0
C704 C 0.56238 0.24043 0.18167 0.0
O705 O 0.50352 0.28694 0.17788 0.0
O706 O 0.48868 0.2439 0.18972 0.0
C707 C 0.43613 0.21275 0.15423 0.0
N708 N 0.46034 0.19844 0.15078 0.0
C709 C 0.4308 0.15712 0.124 0.0
C710 C 0.40553 0.17137 0.12736 0.0
C711 C 0.40824 0.19935 0.14244 0.0
C712 C 0.45804 0.17164 0.13605 0.0
H713 H 0.43807 0.23419 0.16592 0.0
C714 C 0.49001 0.27143 0.1931 0.0
O715 O 0.54568 0.31242 0.14404 0.0
O716 O 0.50387 0.2926 0.12092 0.0
N717 N 0.5094 0.17553 0.1441 0.0
C718 C 0.53613 0.16526 0.14182 0.0
C719 C 0.53742 0.13783 0.12672 0.0
C720 C 0.51119 0.12105 0.11451 0.0
C721 C 0.48388 0.13187 0.11751 0.0
C722 C 0.48398 0.1594 0.13272 0.0
H723 H 0.55635 0.17797 0.15132 0.0
O724 O 0.5432 0.2508 0.11357 0.0
O725 O 0.50767 0.23298 0.13665 0.0
O726 O 0.55953 0.26161 0.16977 0.0
O727 O 0.54174 0.21964 0.18149 0.0
C728 C 0.45661 0.11657 0.10573 0.0
C729 C 0.43009 0.12921 0.10893 0.0
H730 H 0.38396 0.1611 0.11834 0.0
H731 H 0.38885 0.21053 0.14506 0.0
H732 H 0.55858 0.12962 0.12453 0.0
H733 H 0.51229 0.09996 0.10277 0.0
H734 H 0.45585 0.09528 0.09379 0.0
H735 H 0.40934 0.11743 0.09941 0.0
H736 H 0.22958 0.73749 0.89672 0.0
H737 H 0.32554 0.75146 0.90211 0.0
H738 H 0.32548 0.78664 0.94309 0.0
H739 H 0.29819 0.81659 0.97519 0.0
H740 H 0.20248 0.80174 0.97161 0.0
H741 H 0.20223 0.76367 0.93225 0.0
C742 C 0.25046 0.74782 0.90722 0.0
C743 C 0.27756 0.74174 0.89639 0.0
C744 C 0.25025 0.76809 0.93089 0.0
C745 C 0.30443 0.75536 0.91017 0.0
C746 C 0.3044 0.77569 0.9335 0.0
C747 C 0.2773 0.80484 0.96582 0.0
C748 C 0.25032 0.81243 0.9756 0.0
C749 C 0.27747 0.78272 0.94366 0.0
C750 C 0.22344 0.79656 0.96399 0.0
C751 C 0.22335 0.7748 0.94156 0.0
H752 H 0.03982 0.57823 0.38431 0.0
H753 H 0.0355 0.48812 0.38901 0.0
H754 H 0.07496 0.48285 0.35773 0.0
H755 H 0.10655 0.50313 0.32499 0.0
H756 H 0.10895 0.59369 0.32063 0.0
H757 H 0.07468 0.59942 0.35558 0.0
C758 C 0.04831 0.55771 0.37912 0.0
C759 C 0.03532 0.53373 0.38919 0.0
C760 C 0.07025 0.55475 0.36064 0.0
C761 C 0.04576 0.50699 0.38187 0.0
C762 C 0.068 0.50393 0.36372 0.0
C763 C 0.0998 0.52415 0.33185 0.0
C764 C 0.11016 0.54774 0.31964 0.0
C765 C 0.07977 0.5275 0.35227 0.0
C766 C 0.10125 0.5749 0.32916 0.0
C767 C 0.0816 0.57835 0.34933 0.0
H768 H 0.88253 0.76465 0.87871 0.0
H769 H 0.79328 0.7621 0.84448 0.0
H770 H 0.77405 0.73112 0.87517 0.0
H771 H 0.78181 0.70697 0.91271 0.0
H772 H 0.87016 0.7095 0.94912 0.0
H773 H 0.89054 0.73818 0.91656 0.0
C774 C 0.85896 0.75692 0.87782 0.0
C775 C 0.8393 0.76567 0.8593 0.0
C776 C 0.84788 0.7394 0.89605 0.0
C777 C 0.80879 0.75577 0.85855 0.0
C778 C 0.79779 0.7381 0.87614 0.0
C779 C 0.80561 0.71371 0.91378 0.0
C780 C 0.82432 0.70619 0.93375 0.0
C781 C 0.81702 0.7302 0.89522 0.0
C782 C 0.85512 0.71498 0.93418 0.0
C783 C 0.86678 0.73142 0.91553 0.0
H784 H 0.08702 0.01669 0.39721 0.0
H785 H 0.0109 1.00174 0.44316 0.0
H786 H 0.97783 1.0086 0.40615 0.0
H787 H 0.97005 0.01434 0.35914 0.0
H788 H 0.04568 0.02668 0.31239 0.0
H789 H 0.07945 0.0263 0.35136 0.0
C790 C 0.06326 0.01554 0.39938 0.0
C791 C 0.05153 1.0085 0.42301 0.0
C792 C 0.04426 0.01918 0.3778 0.0
C793 C 0.02057 1.00671 0.42516 0.0
C794 C 1.00162 0.01074 0.404 0.0
C795 C 0.99397 0.01775 0.35779 0.0
C796 C 1.00547 0.02112 0.33316 0.0
C797 C 0.01312 0.01639 0.38002 0.0
C798 C 0.03643 0.02472 0.33134 0.0
C799 C 0.05568 0.02416 0.35354 0.0
H800 H 0.30733 0.29689 0.62079 0.0
H801 H 0.21163 0.28928 0.61473 0.0
H802 H 0.20987 0.2551 0.57267 0.0
H803 H 0.23547 0.22321 0.54046 0.0
H804 H 0.33116 0.22835 0.54902 0.0
H805 H 0.33308 0.26766 0.58689 0.0
C806 C 0.2862 0.28832 0.60979 0.0
C807 C 0.25967 0.29571 0.62055 0.0
C808 C 0.28536 0.26785 0.58624 0.0
C809 C 0.23232 0.28399 0.60658 0.0
C810 C 0.23132 0.26433 0.58267 0.0
C811 C 0.25674 0.23323 0.55037 0.0
C812 C 0.28307 0.2226 0.54206 0.0
C813 C 0.25767 0.25541 0.57271 0.0
C814 C 0.31048 0.23583 0.5552 0.0
C815 C 0.31164 0.25838 0.57687 0.0
H816 H 0.55363 0.55617 0.65372 0.0
H817 H 0.5497 0.46519 0.62229 0.0
H818 H 0.52107 0.45374 0.65943 0.0
H819 H 0.49475 0.46943 0.69956 0.0
H820 H 0.49512 0.56045 0.72852 0.0
H821 H 0.52681 0.57184 0.69319 0.0
C822 C 0.54624 0.53377 0.65458 0.0
C823 C 0.55385 0.51164 0.63473 0.0
C824 C 0.52883 0.52729 0.67555 0.0
C825 C 0.54468 0.4828 0.63717 0.0
C826 C 0.52798 0.47619 0.65836 0.0
C827 C 0.50182 0.49181 0.69828 0.0
C828 C 0.4924 0.51405 0.71686 0.0
C829 C 0.51962 0.49825 0.6775 0.0
C830 C 0.50179 0.54286 0.71458 0.0
C831 C 0.52001 0.5494 0.69435 0.0
H832 H 0.88087 0.26623 0.608 0.0
H833 H 0.80011 0.24333 0.64563 0.0
H834 H 0.77626 0.27914 0.6261 0.0
H835 H 0.77673 0.31385 0.59491 0.0
H836 H 0.85551 0.33188 0.5532 0.0
H837 H 0.88155 0.30075 0.57736 0.0
C838 C 0.85793 0.26872 0.61178 0.0
C839 C 0.84234 0.25165 0.62812 0.0
C840 C 0.8439 0.28846 0.59957 0.0
C841 C 0.81291 0.25617 0.6334 0.0
C842 C 0.7991 0.27653 0.62201 0.0
C843 C 0.79976 0.31128 0.59148 0.0
C844 C 0.8143 0.3252 0.57245 0.0
C845 C 0.81419 0.29241 0.60466 0.0
C846 C 0.84392 0.32136 0.56779 0.0
C847 C 0.85877 0.30353 0.58154 0.0
H848 H 0.50328 0.01066 0.61857 0.0
H849 H 0.58181 0.02044 0.57444 0.0
H850 H 0.61339 0.02285 0.61478 0.0
H851 H 0.61945 0.02351 0.66295 0.0
H852 H 0.54228 0.01891 0.70879 0.0
H853 H 0.50959 0.01282 0.66779 0.0
C854 C 0.52728 0.01352 0.61784 0.0
C855 C 0.53995 0.01475 0.59318 0.0
C856 C 0.54567 0.01541 0.64148 0.0
C857 C 0.57122 0.01859 0.59282 0.0
C858 C 0.58944 0.02009 0.61597 0.0
C859 C 0.59544 0.02043 0.66379 0.0
C860 C 0.58318 0.02067 0.68862 0.0
C861 C 0.57698 0.01834 0.64037 0.0
C862 C 0.55211 0.01797 0.68973 0.0
C863 C 0.53348 0.01483 0.66633 0.0
H864 H 0.91274 0.22871 0.7652 0.0
H865 H 0.89631 0.13709 0.76385 0.0
H866 H 0.93775 0.14056 0.79749 0.0
H867 H 0.979 0.17025 0.82753 0.0
H868 H 0.99201 0.26232 0.83036 0.0
H869 H 0.95204 0.25816 0.79575 0.0
C870 C 0.91843 0.20951 0.77217 0.0
C871 C 0.90186 0.1827 0.76197 0.0
C872 C 0.94179 0.21178 0.79171 0.0
C873 C 0.90893 0.15799 0.77148 0.0
C874 C 0.93263 0.15995 0.7906 0.0
C875 C 0.97296 0.18923 0.82041 0.0
C876 C 0.98803 0.21654 0.83153 0.0
C877 C 0.9493 0.18677 0.80087 0.0
C878 C 0.98031 0.24111 0.82223 0.0
C879 C 0.95754 0.23878 0.80242 0.0
H880 H 0.51255 0.89207 0.47853 0.0
H881 H 0.59692 0.91596 0.44716 0.0
H882 H 0.60186 0.86515 0.43224 0.0
H883 H 0.57933 0.8145 0.42331 0.0
H884 H 0.49442 0.79082 0.4541 0.0
H885 H 0.49307 0.84083 0.4746 0.0
C886 C 0.53238 0.88616 0.46905 0.0
C887 C 0.5541 0.90781 0.46362 0.0
C888 C 0.53493 0.85689 0.46023 0.0
C889 C 0.57956 0.89973 0.45111 0.0
C890 C 0.58245 0.87066 0.44262 0.0
C891 C 0.5608 0.8201 0.43496 0.0
C892 C 0.53683 0.79883 0.43674 0.0
C893 C 0.55981 0.84909 0.4463 0.0
C894 C 0.51309 0.80666 0.45207 0.0
C895 C 0.5122 0.83535 0.46377 0.0
H896 H 0.16559 0.29062 0.75249 0.0
H897 H 0.23616 0.27906 0.80784 0.0
H898 H 0.20142 0.27737 0.84288 0.0
H899 H 0.15007 0.27267 0.85591 0.0
H900 H 0.0789 0.28381 0.80099 0.0
H901 H 0.11473 0.2926 0.76782 0.0
C902 C 0.17343 0.28854 0.77244 0.0
C903 C 0.20326 0.28456 0.77751 0.0
C904 C 0.15316 0.2871 0.79244 0.0
C905 C 0.21318 0.28176 0.8034 0.0
C906 C 0.19333 0.28071 0.82342 0.0
C907 C 0.14245 0.27744 0.83683 0.0
C908 C 0.11189 0.27716 0.83074 0.0
C909 C 0.16309 0.28226 0.81786 0.0
C910 C 0.10235 0.2838 0.8061 0.0
C911 C 0.12281 0.2887 0.78708 0.0
H912 H 0.6063 0.64263 0.50923 0.0
H913 H 0.51828 0.59846 0.51271 0.0
H914 H 0.50087 0.61742 0.47359 0.0
H915 H 0.50978 0.6508 0.44137 0.0
H916 H 0.59859 0.69375 0.43762 0.0
H917 H 0.6166 0.67096 0.47365 0.0
C918 C 0.58348 0.63667 0.50098 0.0
C919 C 0.56355 0.61922 0.51373 0.0
C920 C 0.57369 0.64777 0.47866 0.0
C921 C 0.53404 0.61163 0.50301 0.0
C922 C 0.52405 0.62272 0.48083 0.0
C923 C 0.53313 0.65493 0.44826 0.0
C924 C 0.55269 0.67429 0.43695 0.0
C925 C 0.5435 0.64149 0.46895 0.0
C926 C 0.58298 0.67904 0.4459 0.0
C927 C 0.59333 0.66607 0.46661 0.0
H928 H 0.89281 0.8221 0.76124 0.0
H929 H 0.93066 0.77463 0.81703 0.0
H930 H 0.9691 0.76303 0.78695 0.0
H931 H 0.99019 0.76316 0.74349 0.0
H932 H 0.95536 0.81285 0.68863 0.0
H933 H 0.91849 0.82782 0.72019 0.0
C934 C 0.9097 0.80968 0.7672 0.0
C935 C 0.90787 0.79863 0.79134 0.0
C936 C 0.93264 0.80369 0.75003 0.0
C937 C 0.93031 0.78253 0.79829 0.0
C938 C 0.95274 0.77614 0.78119 0.0
C939 C 0.97497 0.77784 0.73872 0.0
C940 C 0.97554 0.78692 0.71377 0.0
C941 C 0.9538 0.78612 0.75683 0.0
C942 C 0.95567 0.80589 0.70783 0.0
C943 C 0.93433 0.81412 0.72576 0.0
H944 H 0.01076 0.86949 0.52017 0.0
H945 H 0.09507 0.91444 0.5558 0.0
H946 H 0.08866 0.89109 0.59506 0.0
H947 H 0.06205 0.85293 0.6163 0.0
H948 H 0.97817 0.80746 0.57963 0.0
H949 H 0.98135 0.836 0.54393 0.0
C950 C 0.02746 0.87461 0.5368 0.0
C951 C 0.05349 0.89354 0.53497 0.0
C952 C 0.02385 0.86066 0.55899 0.0
C953 C 0.07479 0.90013 0.55674 0.0
C954 C 0.07124 0.88651 0.57907 0.0
C955 C 0.04417 0.84962 0.60078 0.0
C956 C 0.02 0.82776 0.60061 0.0
C957 C 0.04632 0.86598 0.58 0.0
C958 C 0.99705 0.82395 0.58032 0.0
C959 C 0.99892 0.84024 0.55978 0.0
H960 H 0.20079 0.75273 0.71779 0.0
H961 H 0.16434 0.72722 0.7884 0.0
H962 H 0.11418 0.72121 0.76677 0.0
H963 H 0.08015 0.72629 0.72859 0.0
H964 H 0.11753 0.75735 0.66076 0.0
H965 H 0.16764 0.75901 0.68092 0.0
C966 C 0.18199 0.74631 0.72882 0.0
C967 C 0.18671 0.74085 0.75499 0.0
C968 C 0.15315 0.74419 0.71678 0.0
C969 C 0.16176 0.73139 0.76822 0.0
C970 C 0.13291 0.72822 0.75594 0.0
C971 C 0.09932 0.73332 0.71825 0.0
C972 C 0.09508 0.74179 0.69323 0.0
C973 C 0.12828 0.735 0.73035 0.0
C974 C 0.12013 0.75102 0.68013 0.0
C975 C 0.14882 0.75185 0.6916 0.0
H976 H 0.94893 0.61655 0.53916 0.0
H977 H 0.03695 0.59341 0.52744 0.0
H978 H 0.05862 0.6379 0.55748 0.0
H979 H 0.05209 0.68304 0.58842 0.0
H980 H 0.96359 0.70543 0.59893 0.0
H981 H 0.94259 0.66208 0.56766 0.0
C982 C 0.97286 0.62119 0.54326 0.0
C983 C 0.9913 0.60155 0.5314 0.0
C984 C 0.98508 0.64687 0.56018 0.0
C985 C 0.02231 0.60817 0.53644 0.0
C986 C 0.03468 0.6336 0.55358 0.0
C987 C 0.02827 0.67833 0.58369 0.0
C988 C 1.00926 0.69679 0.59655 0.0
C989 C 0.01626 0.65309 0.56572 0.0
C990 C 0.97851 0.691 0.58983 0.0
C991 C 0.9665 0.66629 0.5719 0.0
H992 H 0.81918 0.88928 0.17733 0.0
H993 H 0.813 0.86381 0.255 0.0
H994 H 0.84252 0.90838 0.27538 0.0
H995 H 0.87613 0.95181 0.2713 0.0
H996 H 0.88884 0.97399 0.19368 0.0
H997 H 0.85217 0.93294 0.17323 0.0
C998 C 0.82466 0.89275 0.19863 0.0
C999 C 0.81337 0.87221 0.2141 0.0
C1000 C 0.84381 0.91774 0.21039 0.0
C1001 C 0.82012 0.87875 0.24201 0.0
C1002 C 0.83765 0.90435 0.25394 0.0
C1003 C 0.87101 0.94741 0.24988 0.0
C1004 C 0.88601 0.96497 0.23381 0.0
C1005 C 0.85048 0.92345 0.23827 0.0
C1006 C 0.8781 0.96016 0.20629 0.0
C1007 C 0.85717 0.93672 0.19465 0.0
H1008 H 0.84896 0.17876 0.2997 0.0
H1009 H 0.80161 0.13441 0.35538 0.0
H1010 H 0.83334 0.09579 0.34776 0.0
H1011 H 0.8734 0.07342 0.32347 0.0
H1012 H 0.92184 0.11963 0.26942 0.0
H1013 H 0.89112 0.15849 0.27825 0.0
C1014 C 0.84565 0.16066 0.31021 0.0
C1015 C 0.82273 0.15935 0.32789 0.0
C1016 C 0.86425 0.13874 0.30598 0.0
C1017 C 0.81907 0.13597 0.34169 0.0
C1018 C 0.83717 0.11382 0.33725 0.0
C1019 C 0.87741 0.09212 0.31383 0.0
C1020 C 0.89994 0.09337 0.29566 0.0
C1021 C 0.85969 0.11478 0.31921 0.0
C1022 C 0.9048 0.11793 0.28349 0.0
C1023 C 0.88711 0.14022 0.28845 0.0
H1024 H 0.38836 0.03963 0.03157 0.0
H1025 H 0.44859 0.97997 1.00155 0.0
H1026 H 0.41299 0.93941 1.00846 0.0
H1027 H 0.36209 0.92063 0.01686 0.0
H1028 H 0.30068 0.97954 0.045 0.0
H1029 H 0.33935 0.02069 0.04559 0.0
C1030 C 0.39397 0.0178 0.02727 0.0
C1031 C 0.42095 0.01277 0.01581 0.0
C1032 C 0.37304 0.99445 0.03081 0.0
C1033 C 0.42782 0.98434 0.0101 0.0
C1034 C 0.40747 0.96114 0.01401 0.0
C1035 C 0.35758 0.94249 0.02391 0.0
C1036 C 0.3289 0.94723 0.0312 0.0
C1037 C 0.37962 0.96587 0.02345 0.0
C1038 C 0.32287 0.97553 0.03979 0.0
C1039 C 0.34488 0.99899 0.03984 0.0
H1040 H 0.24208 0.37776 0.3223 0.0
H1041 H 0.32238 0.4272 0.30452 0.0
H1042 H 0.29298 0.45887 0.28408 0.0
H1043 H 0.24474 0.4754 0.27553 0.0
H1044 H 0.1638 0.4253 0.2911 0.0
H1045 H 0.19293 0.39087 0.30815 0.0
C1046 C 0.25297 0.39491 0.31312 0.0
C1047 C 0.28431 0.39999 0.31448 0.0
C1048 C 0.23582 0.4132 0.30159 0.0
C1049 C 0.29832 0.42263 0.30316 0.0
C1050 C 0.28151 0.44092 0.2918 0.0
C1051 C 0.23348 0.45681 0.28252 0.0
C1052 C 0.20224 0.45311 0.28257 0.0
C1053 C 0.25032 0.43691 0.29163 0.0
C1054 C 0.18785 0.42866 0.29108 0.0
C1055 C 0.20451 0.40903 0.30081 0.0
H1056 H 0.14608 0.04171 0.517 0.0
H1057 H 0.16081 1.00874 0.43519 0.0
H1058 H 0.2098 0.03754 0.43989 0.0
H1059 H 0.24613 0.07591 0.46562 0.0
H1060 H 0.23208 0.11023 0.54715 0.0
H1061 H 0.18544 0.07722 0.54446 0.0
C1062 C 0.16032 0.04058 0.50043 0.0
C1063 C 0.14989 0.02323 0.47574 0.0
C1064 C 0.18838 0.05776 0.50315 0.0
C1065 C 0.16841 0.02198 0.45433 0.0
C1066 C 0.1964 0.03844 0.45702 0.0
C1067 C 0.23287 0.07601 0.48282 0.0
C1068 C 0.24183 0.09608 0.50624 0.0
C1069 C 0.20621 0.05706 0.48103 0.0
C1070 C 0.22519 0.09533 0.52874 0.0
C1071 C 0.19854 0.07649 0.52716 0.0
H1072 H 0.78487 0.13175 0.68983 0.0
H1073 H 0.79683 0.16819 0.77385 0.0
H1074 H 0.75233 0.13767 0.78226 0.0
H1075 H 0.71304 0.09726 0.76645 0.0
H1076 H 0.69915 0.06243 0.68251 0.0
H1077 H 0.7414 0.09591 0.67322 0.0
C1078 C 0.77738 0.13364 0.70988 0.0
C1079 C 0.79465 0.15188 0.73124 0.0
C1080 C 0.75152 0.11623 0.71459 0.0
C1081 C 0.78455 0.15375 0.75712 0.0
C1082 C 0.75901 0.1364 0.76197 0.0
C1083 C 0.71864 0.09781 0.74605 0.0
C1084 C 0.7026 0.07822 0.72506 0.0
C1085 C 0.74278 0.11707 0.74097 0.0
C1086 C 0.71094 0.07788 0.69884 0.0
C1087 C 0.73508 0.09691 0.69359 0.0
H1088 H 0.47501 0.07936 0.54889 0.0
H1089 H 0.42484 0.99613 0.51934 0.0
H1090 H 0.38294 0.01915 0.5048 0.0
H1091 H 0.36097 0.06324 0.49908 0.0
H1092 H 0.41145 0.14648 0.52867 0.0
H1093 H 0.45267 0.12339 0.54405 0.0
C1094 C 0.45462 0.06636 0.53981 0.0
C1095 C 0.45284 0.0361 0.53556 0.0
C1096 C 0.43083 0.07979 0.5309 0.0
C1097 C 0.42657 0.01947 0.52313 0.0
C1098 C 0.40271 0.03263 0.51457 0.0
C1099 C 0.38114 0.07628 0.50858 0.0
C1100 C 0.38315 0.10657 0.51242 0.0
C1101 C 0.40472 0.0628 0.51793 0.0
C1102 C 0.4093 0.12312 0.52528 0.0
C1103 C 0.43289 0.10994 0.53426 0.0
H1104 H 0.6098 0.44987 0.57293 0.0
H1105 H 0.65613 0.52813 0.55349 0.0
H1106 H 0.69298 0.50109 0.53199 0.0
H1107 H 0.7134 0.45545 0.51903 0.0
H1108 H 0.67192 0.3783 0.5434 0.0
H1109 H 0.63253 0.40463 0.56293 0.0
C1110 C 0.62806 0.46121 0.56432 0.0
C1111 C 0.62916 0.4912 0.56442 0.0
C1112 C 0.65037 0.44563 0.55279 0.0
C1113 C 0.65339 0.50505 0.55294 0.0
C1114 C 0.67497 0.48961 0.54082 0.0
C1115 C 0.6956 0.44438 0.52847 0.0
C1116 C 0.69536 0.41489 0.52946 0.0
C1117 C 0.67366 0.4599 0.54049 0.0
C1118 C 0.67253 0.40098 0.54229 0.0
C1119 C 0.65001 0.41606 0.55347 0.0
H1120 H 0.72918 0.23243 0.38568 0.0
H1121 H 0.82497 0.24962 0.39049 0.0
H1122 H 0.82407 0.28638 0.43023 0.0
H1123 H 0.79614 0.3148 0.46278 0.0
H1124 H 0.70079 0.29583 0.46085 0.0
H1125 H 0.70122 0.2585 0.42097 0.0
C1126 C 0.74982 0.24397 0.39574 0.0
C1127 C 0.77715 0.23816 0.38529 0.0
C1128 C 0.74915 0.26484 0.41894 0.0
C1129 C 0.80373 0.25335 0.39839 0.0
C1130 C 0.80322 0.2745 0.421 0.0
C1131 C 0.77547 0.30246 0.45354 0.0
C1132 C 0.74837 0.30851 0.46408 0.0
C1133 C 0.77608 0.28061 0.43128 0.0
C1134 C 0.72181 0.29183 0.45264 0.0
C1135 C 0.72212 0.2705 0.42994 0.0
H1136 H 0.5143 1.00296 0.86668 0.0
H1137 H 0.53377 0.0934 0.90008 0.0
H1138 H 0.57346 0.09879 0.86947 0.0
H1139 H 0.5985 0.07876 0.82996 0.0
H1140 H 0.58004 0.9879 0.79736 0.0
H1141 H 0.54407 0.98158 0.83096 0.0
C1142 C 0.52774 0.02368 0.8676 0.0
C1143 C 0.52117 0.04781 0.88547 0.0
C1144 C 0.5503 0.02658 0.84984 0.0
C1145 C 0.53864 0.07454 0.88661 0.0
C1146 C 0.56109 0.07765 0.86894 0.0
C1147 C 0.58685 0.0575 0.83037 0.0
C1148 C 0.59164 0.03389 0.81091 0.0
C1149 C 0.56646 0.054 0.84993 0.0
C1150 C 0.57671 1.00642 0.81202 0.0
C1151 C 0.55607 1.00282 0.83119 0.0
H1152 H 0.38563 0.25528 0.38394 0.0
H1153 H 0.29821 0.24535 0.34391 0.0
H1154 H 0.27951 0.21177 0.37261 0.0
H1155 H 0.28672 0.18832 0.41081 0.0
H1156 H 0.37296 0.19899 0.45337 0.0
H1157 H 0.39353 0.22885 0.4218 0.0
C1158 C 0.36265 0.2453 0.38131 0.0
C1159 C 0.34326 0.25269 0.36179 0.0
C1160 C 0.35181 0.2264 0.39845 0.0
C1161 C 0.31346 0.23996 0.35875 0.0
C1162 C 0.30277 0.22084 0.37521 0.0
C1163 C 0.31012 0.19701 0.41331 0.0
C1164 C 0.32813 0.19158 0.4348 0.0
C1165 C 0.32155 0.21442 0.39546 0.0
C1166 C 0.35848 0.20278 0.43716 0.0
C1167 C 0.37022 0.21998 0.41913 0.0
H1168 H 0.55062 0.53639 0.92416 0.0
H1169 H 0.54849 0.44372 0.90778 0.0
H1170 H 0.5183 0.44116 0.86659 0.0
H1171 H 0.4937 0.46458 0.83464 0.0
H1172 H 0.49424 0.55703 0.84955 0.0
H1173 H 0.52436 0.56028 0.89159 0.0
C1174 C 0.54349 0.51564 0.91159 0.0
C1175 C 0.55171 0.49023 0.91944 0.0
C1176 C 0.52617 0.51426 0.88747 0.0
C1177 C 0.54207 0.46357 0.90283 0.0
C1178 C 0.52503 0.46208 0.879 0.0
C1179 C 0.50039 0.48563 0.84686 0.0
C1180 C 0.49176 0.51059 0.83858 0.0
C1181 C 0.51715 0.48724 0.87105 0.0
C1182 C 0.50058 0.53745 0.85518 0.0
C1183 C 0.51776 0.53928 0.87929 0.0
H1184 H 0.74144 0.78516 0.12161 0.0
H1185 H 0.83582 0.79361 0.14135 0.0
H1186 H 0.84261 0.76382 0.09839 0.0
H1187 H 0.8209 0.73172 0.05709 0.0
H1188 H 0.72657 0.72499 0.03667 0.0
H1189 H 0.72061 0.75784 0.07781 0.0
C1190 C 0.76353 0.78085 0.11621 0.0
C1191 C 0.7881 0.79145 0.13454 0.0
C1192 C 0.76722 0.76376 0.09149 0.0
C1193 C 0.81664 0.78585 0.12742 0.0
C1194 C 0.82047 0.76864 0.10297 0.0
C1195 C 0.79907 0.73764 0.0615 0.0
C1196 C 0.77415 0.72538 0.04395 0.0
C1197 C 0.79581 0.75689 0.08513 0.0
C1198 C 0.74613 0.73378 0.04983 0.0
C1199 C 0.74266 0.75258 0.07343 0.0
H1200 H 0.05744 0.99017 0.12765 0.0
H1201 H 0.07364 0.08277 0.15185 0.0
H1202 H 0.04562 0.07952 0.19094 0.0
H1203 H 0.01442 0.0508 0.21783 0.0
H1204 H 1.00275 0.95794 0.19657 0.0
H1205 H 0.03117 0.96102 0.15751 0.0
C1206 C 0.05526 1.00963 0.14162 0.0
C1207 C 0.06695 0.03674 0.13594 0.0
C1208 C 0.03967 1.00766 0.16482 0.0
C1209 C 0.06393 0.0616 0.15473 0.0
C1210 C 0.04806 0.05982 0.17741 0.0
C1211 C 0.01817 0.03122 0.20473 0.0
C1212 C 1.00584 1.00424 0.21009 0.0
C1213 C 0.03533 0.03303 0.18246 0.0
C1214 C 0.01154 0.97911 0.193 0.0
C1215 C 0.02791 0.9808 0.17052 0.0
H1216 H 0.32525 0.81981 0.18027 0.0
H1217 H 0.32621 0.73742 0.1296 0.0
H1218 H 0.32308 0.76019 0.08995 0.0
H1219 H 0.31165 0.80224 0.06985 0.0
H1220 H 0.30519 0.88286 0.12154 0.0
H1221 H 0.31884 0.86226 0.16051 0.0
C1222 C 0.32511 0.80686 0.16054 0.0
C1223 C 0.32541 0.77688 0.15789 0.0
C1224 C 0.32195 0.81984 0.13796 0.0
C1225 C 0.32599 0.76054 0.13223 0.0
C1226 C 0.32389 0.77352 0.10953 0.0
C1227 C 0.31406 0.81539 0.08962 0.0
C1228 C 0.30743 0.84397 0.09295 0.0
C1229 C 0.32065 0.80296 0.11213 0.0
C1230 C 0.31012 0.86078 0.11861 0.0
C1231 C 0.31782 0.849 0.14088 0.0
H1232 H 0.03494 0.49239 0.11513 0.0
H1233 H 0.0282 0.58356 0.12544 0.0
H1234 H 0.05705 0.59125 0.16833 0.0
H1235 H 0.08813 0.57296 0.20073 0.0
H1236 H 0.09658 0.48201 0.18975 0.0
H1237 H 0.06328 0.4735 0.14931 0.0
C1238 C 0.03963 0.51395 0.12683 0.0
C1239 C 0.02948 0.53739 0.11685 0.0
C1240 C 0.05683 0.51833 0.15127 0.0
C1241 C 0.03538 0.56506 0.13259 0.0
C1242 C 0.05217 0.56952 0.15705 0.0
C1243 C 0.08252 0.55115 0.18974 0.0
C1244 C 0.09523 0.5282 0.19837 0.0
C1245 C 0.0636 0.54643 0.16628 0.0
C1246 C 0.08735 0.50015 0.18373 0.0
C1247 C 0.06832 0.49526 0.16049 0.0
H1248 H 0.42394 0.64965 0.253 0.0
H1249 H 0.40876 0.73922 0.26705 0.0
H1250 H 0.45131 0.75108 0.29906 0.0
H1251 H 0.48924 0.73585 0.32702 0.0
H1252 H 0.50236 0.64636 0.31741 0.0
H1253 H 0.46349 0.63447 0.28045 0.0
C1254 C 0.42968 0.67177 0.26313 0.0
C1255 C 0.41272 0.69337 0.25723 0.0
C1256 C 0.45342 0.67839 0.28287 0.0
C1257 C 0.42142 0.72203 0.27027 0.0
C1258 C 0.44565 0.7289 0.28904 0.0
C1259 C 0.48348 0.7137 0.31684 0.0
C1260 C 0.49773 0.69179 0.32531 0.0
C1261 C 0.46116 0.70718 0.29605 0.0
C1262 C 0.49109 0.6634 0.31145 0.0
C1263 C 0.46895 0.65669 0.29038 0.0
H1264 H 0.07237 0.42755 0.94973 0.0
H1265 H 0.02207 0.413 0.01749 0.0
H1266 H 0.01494 0.36143 1.00033 0.0
H1267 H 0.02266 0.32006 0.96567 0.0
H1268 H 0.07905 0.33512 0.9021 0.0
H1269 H 0.08555 0.38677 0.91917 0.0
C1270 C 0.06059 0.41341 0.96149 0.0
C1271 C 0.04777 0.42491 0.98503 0.0
C1272 C 0.05798 0.38354 0.95243 0.0
C1273 C 0.03164 0.40547 0.99895 0.0
C1274 C 0.02785 0.3757 0.98935 0.0
C1275 C 0.03675 0.33465 0.95586 0.0
C1276 C 0.05035 0.32372 0.93265 0.0
C1277 C 0.04087 0.36448 0.96605 0.0
C1278 C 0.0686 0.34287 0.92016 0.0
C1279 C 0.07209 0.37248 0.92974 0.0
H1280 H 0.66871 0.78211 0.25873 0.0
H1281 H 0.73864 0.76658 0.3126 0.0
H1282 H 0.70428 0.76553 0.34807 0.0
H1283 H 0.65293 0.76123 0.36128 0.0
H1284 H 0.5822 0.77515 0.30725 0.0
H1285 H 0.61816 0.78507 0.27459 0.0
C1286 C 0.67652 0.77946 0.27852 0.0
C1287 C 0.70602 0.77429 0.28311 0.0
C1288 C 0.65636 0.77808 0.29865 0.0
C1289 C 0.71594 0.77054 0.30869 0.0
C1290 C 0.69628 0.76974 0.3289 0.0
C1291 C 0.64545 0.76699 0.34258 0.0
C1292 C 0.6149 0.76698 0.33655 0.0
C1293 C 0.66617 0.77223 0.32374 0.0
C1294 C 0.60559 0.77483 0.31235 0.0
C1295 C 0.62614 0.78038 0.29358 0.0
H1296 H 0.11325 0.1551 1.0008 0.0
H1297 H 0.02513 0.1272 0.02215 0.0
H1298 H 1.00342 0.14921 0.98667 0.0
H1299 H 1.01007 0.1805 0.95224 0.0
H1300 H 0.09898 0.20709 0.93102 0.0
H1301 H 0.11971 0.18159 0.96365 0.0
C1302 C 0.08927 0.15333 0.99724 0.0
C1303 C 0.07077 0.13957 0.01393 0.0
C1304 C 0.07711 0.16623 0.97708 0.0
C1305 C 0.03976 0.13743 0.0093 0.0
C1306 C 0.0274 0.1503 0.98922 0.0
C1307 C 0.03395 0.18056 0.95467 0.0
C1308 C 0.05288 0.19604 0.93931 0.0
C1309 C 0.04591 0.16546 0.97344 0.0
C1310 C 0.08379 0.19549 0.9425 0.0
C1311 C 0.09575 0.1809 0.96123 0.0
H1312 H 0.39134 0.31645 0.26643 0.0
H1313 H 0.43358 0.26844 0.3192 0.0
H1314 H 0.47087 0.25862 0.28747 0.0
H1315 H 0.48972 0.26032 0.24331 0.0
H1316 H 0.4509 0.31101 0.19155 0.0
H1317 H 0.41489 0.32398 0.22468 0.0
C1318 C 0.40895 0.3043 0.27135 0.0
C1319 C 0.40866 0.29246 0.2951 0.0
C1320 C 0.43122 0.29933 0.25319 0.0
C1321 C 0.43204 0.27684 0.30077 0.0
C1322 C 0.45379 0.27145 0.28271 0.0
C1323 C 0.47378 0.27475 0.23956 0.0
C1324 C 0.47298 0.28472 0.21505 0.0
C1325 C 0.45325 0.28204 0.25864 0.0
C1326 C 0.45222 0.30336 0.21041 0.0
C1327 C 0.43141 0.31049 0.22924 0.0
H1328 H 0.5767 0.41555 0.07011 0.0
H1329 H 0.52376 0.36353 1.00305 0.0
H1330 H 0.5002 0.3328 0.03247 0.0
H1331 H 0.50125 0.31603 0.0761 0.0
H1332 H 0.5568 0.36714 0.14236 0.0
H1333 H 0.57224 0.40295 0.11485 0.0
C1334 C 0.55908 0.39821 0.06221 0.0
C1335 C 0.55153 0.3921 0.03458 0.0
C1336 C 0.54649 0.38004 0.07914 0.0
C1337 C 0.5294 0.369 0.02436 0.0
C1338 C 0.51624 0.3512 0.04116 0.0
C1339 C 0.51601 0.33544 0.0847 0.0
C1340 C 0.528 0.33871 0.11126 0.0
C1341 C 0.52551 0.35578 0.06844 0.0
C1342 C 0.54737 0.3639 0.12197 0.0
C1343 C 0.55633 0.38442 0.1062 0.0
H1344 H 0.69734 0.23039 0.2058 0.0
H1345 H 0.66964 0.23318 0.28613 0.0
H1346 H 0.61811 0.23342 0.26987 0.0
H1347 H 0.5809 0.23562 0.23274 0.0
H1348 H 0.61128 0.23918 0.15424 0.0
H1349 H 0.66184 0.23467 0.17005 0.0
C1350 C 0.68034 0.23166 0.22006 0.0
C1351 C 0.68789 0.23217 0.24735 0.0
C1352 C 0.65105 0.23321 0.21084 0.0
C1353 C 0.66484 0.23251 0.265 0.0
C1354 C 0.63526 0.23295 0.25574 0.0
C1355 C 0.59871 0.23538 0.21924 0.0
C1356 C 0.59255 0.2378 0.19239 0.0
C1357 C 0.62812 0.23369 0.22872 0.0
C1358 C 0.61567 0.2376 0.17502 0.0
C1359 C 0.64451 0.23491 0.18402 0.0
H1360 H 0.51969 0.11506 0.0306 0.0
H1361 H 0.42575 0.12089 0.03251 0.0
H1362 H 0.43592 0.16708 0.06318 0.0
H1363 H 0.47128 0.20384 0.09228 0.0
H1364 H 0.56515 0.19763 0.09213 0.0
H1365 H 0.55553 0.15373 0.05805 0.0
C1366 C 0.50158 0.12668 0.03762 0.0
C1367 C 0.47202 0.11469 0.02946 0.0
C1368 C 0.5076 0.15291 0.05583 0.0
C1369 C 0.44864 0.12976 0.03866 0.0
C1370 C 0.45446 0.15614 0.05614 0.0
C1371 C 0.48956 0.19273 0.0848 0.0
C1372 C 0.51874 0.20313 0.09531 0.0
C1373 C 0.48377 0.16754 0.06538 0.0
C1374 C 0.54243 0.18947 0.08471 0.0
C1375 C 0.53692 0.16442 0.06526 0.0
H1376 H 0.30292 0.37749 0.73439 0.0
H1377 H 0.29643 0.39569 0.65386 0.0
H1378 H 0.33137 0.43916 0.66772 0.0
H1379 H 0.36625 0.47125 0.70258 0.0
H1380 H 0.36579 0.45551 0.78349 0.0
H1381 H 0.32888 0.41315 0.76976 0.0
C1382 C 0.3077 0.39099 0.71963 0.0
C1383 C 0.2968 0.38198 0.69268 0.0
C1384 C 0.3265 0.41703 0.72794 0.0
C1385 C 0.30498 0.4006 0.67449 0.0
C1386 C 0.32479 0.42603 0.68248 0.0
C1387 C 0.35776 0.45859 0.71712 0.0
C1388 C 0.36971 0.46547 0.74373 0.0
C1389 C 0.33618 0.4342 0.70908 0.0
C1390 C 0.3578 0.44976 0.76266 0.0
C1391 C 0.33661 0.42563 0.75485 0.0
H1392 H 0.30863 0.64147 0.85501 0.0
H1393 H 0.34588 0.69696 0.80264 0.0
H1394 H 0.38157 0.66358 0.78898 0.0
H1395 H 0.40078 0.61743 0.78998 0.0
H1396 H 0.36232 0.56032 0.84044 0.0
H1397 H 0.329 0.59536 0.85685 0.0
C1398 C 0.32476 0.64632 0.84081 0.0
C1399 C 0.32437 0.67166 0.82975 0.0
C1400 C 0.34507 0.62664 0.83261 0.0
C1401 C 0.34537 0.6775 0.81123 0.0
C1402 C 0.3659 0.65843 0.80345 0.0
C1403 C 0.38538 0.61275 0.80482 0.0
C1404 C 0.38424 0.58621 0.814 0.0
C1405 C 0.36575 0.63275 0.81372 0.0
C1406 C 0.3638 0.58052 0.83302 0.0
C1407 C 0.34464 0.60058 0.84238 0.0
H1408 H 0.92782 0.49426 0.5368 0.0
H1409 H 0.88428 0.53928 0.48257 0.0
H1410 H 0.83704 0.50958 0.48519 0.0
H1411 H 0.80971 0.46729 0.49832 0.0
H1412 H 0.85233 0.42031 0.55141 0.0
H1413 H 0.89802 0.45451 0.55438 0.0
C1414 C 0.90776 0.49785 0.52611 0.0
C1415 C 0.90937 0.51879 0.50943 0.0
C1416 C 0.8806 0.48022 0.52736 0.0
C1417 C 0.88342 0.52323 0.49547 0.0
C1418 C 0.85647 0.50621 0.4969 0.0
C1419 C 0.82882 0.46478 0.51094 0.0
C1420 C 0.82769 0.44111 0.5244 0.0
C1421 C 0.85502 0.48409 0.51209 0.0
C1422 C 0.85254 0.43839 0.54091 0.0
C1423 C 0.87878 0.45781 0.5424 0.0
H1424 H 0.80171 0.95299 0.81932 0.0
H1425 H 0.75143 0.8683 0.79913 0.0
H1426 H 0.71093 0.88881 0.77826 0.0
H1427 H 0.68832 0.9322 0.7685 0.0
H1428 H 0.73931 0.01638 0.79322 0.0
H1429 H 0.78024 0.99478 0.81008 0.0
C1430 C 0.78183 0.93888 0.81057 0.0
C1431 C 0.77958 0.90916 0.81127 0.0
C1432 C 0.75834 0.95091 0.79966 0.0
C1433 C 0.75395 0.89126 0.7989 0.0
C1434 C 0.7306 0.90306 0.78718 0.0
C1435 C 0.70838 0.94571 0.77761 0.0
C1436 C 0.71038 0.97601 0.77974 0.0
C1437 C 0.73225 0.93305 0.78791 0.0
C1438 C 0.73671 0.99312 0.79153 0.0
C1439 C 0.76039 0.98078 0.80112 0.0
H1440 H 0.6482 0.54508 0.0136 0.0
H1441 H 0.65621 0.51828 0.92932 0.0
H1442 H 0.70388 0.54907 0.93215 0.0
H1443 H 0.74172 0.58611 0.95786 0.0
H1444 H 0.73361 0.61452 0.04173 0.0
H1445 H 0.68783 0.58065 0.04 0.0
C1446 C 0.66045 0.54608 0.99592 0.0
C1447 C 0.6485 0.52981 0.9712 0.0
C1448 C 0.68772 0.56426 0.99761 0.0
C1449 C 0.66469 0.53102 0.94846 0.0
C1450 C 0.69205 0.54844 0.9501 0.0
C1451 C 0.72979 0.58489 0.97569 0.0
C1452 C 0.7402 0.60345 0.99965 0.0
C1453 C 0.70346 0.56561 0.97442 0.0
C1454 C 0.72549 0.60085 0.02294 0.0
C1455 C 0.69933 0.58155 0.02192 0.0
H1456 H 0.29988 0.61638 0.19073 0.0
H1457 H 0.32723 0.63658 0.2748 0.0
H1458 H 0.28744 0.601 0.28402 0.0
H1459 H 0.24164 0.56831 0.26898 0.0
H1460 H 0.21386 0.54695 0.18527 0.0
H1461 H 0.25715 0.5787 0.17491 0.0
C1462 C 0.29736 0.61256 0.21097 0.0
C1463 C 0.31642 0.62907 0.23204 0.0
C1464 C 0.27421 0.5922 0.21618 0.0
C1465 C 0.31311 0.62389 0.25819 0.0
C1466 C 0.29023 0.60371 0.26353 0.0
C1467 C 0.24527 0.57057 0.24847 0.0
C1468 C 0.22433 0.55647 0.22793 0.0
C1469 C 0.27015 0.58845 0.24281 0.0
C1470 C 0.22955 0.55836 0.20134 0.0
C1471 C 0.25423 0.57641 0.19549 0.0
H1472 H 0.96632 0.56367 1.00771 0.0
H1473 H 0.93521 0.56261 0.08672 0.0
H1474 H 0.89573 0.59004 0.07654 0.0
H1475 H 0.86921 0.61428 0.04537 0.0
H1476 H 0.89492 0.60922 0.96455 0.0
H1477 H 0.93663 0.58334 0.97503 0.0
C1478 C 0.95073 0.56869 0.02272 0.0
C1479 C 0.95474 0.56107 0.04832 0.0
C1480 C 0.92678 0.58337 0.01632 0.0
C1481 C 0.934 0.56874 0.06722 0.0
C1482 C 0.91091 0.58423 0.06131 0.0
C1483 C 0.88398 0.60744 0.03006 0.0
C1484 C 0.87933 0.61388 1.00432 0.0
C1485 C 0.90716 0.59177 0.03601 0.0
C1486 C 0.89818 0.60453 0.9845 0.0
C1487 C 0.92202 0.58981 0.99055 0.0
H1488 H 0.11394 0.96566 0.07187 0.0
H1489 H 0.16523 0.04076 0.05122 0.0
H1490 H 0.20032 0.01094 0.03026 0.0
H1491 H 0.21815 0.96374 0.01863 0.0
H1492 H 0.17108 0.88944 0.04369 0.0
H1493 H 0.13322 0.91853 0.06205 0.0
C1494 C 0.13286 0.97563 0.06299 0.0
C1495 C 0.13604 1.00561 0.06272 0.0
C1496 C 0.15398 0.95836 0.05159 0.0
C1497 C 0.16105 0.01776 0.05101 0.0
C1498 C 0.18156 1.00071 0.03916 0.0
C1499 C 0.19936 0.95387 0.02779 0.0
C1500 C 0.19721 0.92438 0.02942 0.0
C1501 C 0.17828 0.97098 0.03924 0.0
C1502 C 0.17315 0.91206 0.042 0.0
C1503 C 0.15153 0.92873 0.0526 0.0
loop_
_geom_bond_atom_site_label_1
_geom_bond_atom_site_label_2
_geom_bond_distance
_geom_bond_site_symmetry_2
_ccdc_geom_bond_type
H0 C1 0.949 . S
C1 H0 0.949 . S
C1 C2 1.392 . S
C1 C3 1.391 . S
C2 C1 1.392 . S
C2 C5 1.391 1_545 S
C3 C1 1.391 . S
C3 C7 1.387 . S
C3 C8 1.491 . S
H4 C5 0.950 . S
C5 C2 1.391 1_565 S
C5 H4 0.950 . S
C5 C6 1.378 1_565 S
C6 C5 1.378 1_545 S
C6 C7 1.409 . S
C7 C3 1.387 . S
C7 C6 1.409 . S
C7 H9 0.951 . S
C8 C3 1.491 . S
C8 C10 1.373 1_554 S
C8 C12 1.404 . S
H9 C7 0.951 . S
C10 C8 1.373 1_556 S
C10 C11 1.395 . S
C10 H15 0.952 . S
C11 C10 1.395 . S
C11 C16 1.399 1_556 S
C12 C8 1.404 . S
C12 H13 0.950 . S
C12 C14 1.375 . S
H13 C12 0.950 . S
C14 C12 1.375 . S
C14 C16 1.382 . S
C14 H18 0.950 . S
H15 C10 0.952 . S
C16 C11 1.399 1_554 S
C16 C14 1.382 . S
C16 H17 0.952 1_554 S
H17 C16 0.952 1_556 S
H18 C14 0.950 . S
H19 C20 0.949 . S
C20 H19 0.949 . S
C20 C21 1.395 . S
C20 C22 1.391 . S
C21 C20 1.395 . S
C21 C24 1.390 . S
C22 C20 1.391 . S
C22 C26 1.387 . S
C22 C27 1.491 . S
H23 C24 0.950 . S
C24 C21 1.390 . S
C24 H23 0.950 . S
C24 C25 1.378 . S
C25 C24 1.378 . S
C25 C26 1.409 . S
C26 C22 1.387 . S
C26 C25 1.409 . S
C26 H28 0.951 . S
C27 C22 1.491 . S
C27 C29 1.382 . S
C27 C31 1.404 . S
H28 C26 0.951 . S
C29 C27 1.382 . S
C29 C30 1.390 . S
C29 H34 0.949 . S
C30 C29 1.390 . S
C30 C35 1.399 . S
C31 C27 1.404 . S
C31 H32 0.950 . S
C31 C33 1.375 . S
H32 C31 0.950 . S
C33 C31 1.375 . S
C33 C35 1.382 . S
C33 H37 0.950 . S
H34 C29 0.949 . S
C35 C30 1.399 . S
C35 C33 1.382 . S
C35 H36 0.952 . S
H36 C35 0.952 . S
H37 C33 0.950 . S
H38 C39 0.949 . S
C39 H38 0.949 . S
C39 C40 1.395 . S
C39 C41 1.391 1_455 S
C40 C39 1.395 . S
C40 C43 1.390 1_455 S
C41 C39 1.391 1_655 S
C41 C45 1.387 . S
C41 C46 1.490 1_554 S
H42 C43 0.950 . S
C43 C40 1.390 1_655 S
C43 H42 0.950 . S
C43 C44 1.378 . S
C44 C43 1.378 . S
C44 C45 1.409 . S
C45 C41 1.387 . S
C45 C44 1.409 . S
C45 H47 0.951 1_554 S
C46 C41 1.490 1_556 S
C46 C48 1.382 1_655 S
C46 C50 1.404 . S
H47 C45 0.951 1_556 S
C48 C46 1.382 1_455 S
C48 C49 1.390 . S
C48 H53 0.949 1_556 S
C49 C48 1.390 . S
C49 C54 1.399 . S
C50 C46 1.404 . S
C50 H51 0.949 . S
C50 C52 1.375 1_655 S
H51 C50 0.949 . S
C52 C50 1.375 1_455 S
C52 C54 1.382 . S
C52 H56 0.950 . S
H53 C48 0.949 1_554 S
C54 C49 1.399 . S
C54 C52 1.382 . S
C54 H55 0.952 . S
H55 C54 0.952 . S
H56 C52 0.950 . S
H57 C58 0.949 . S
C58 H57 0.949 . S
C58 C59 1.395 . S
C58 C60 1.391 . S
C59 C58 1.395 . S
C59 C62 1.390 . S
C60 C58 1.391 . S
C60 C64 1.387 . S
C60 C65 1.491 . S
H61 C62 0.950 . S
C62 C59 1.390 . S
C62 H61 0.950 . S
C62 C63 1.378 . S
C63 C62 1.378 . S
C63 C64 1.409 . S
C64 C60 1.387 . S
C64 C63 1.409 . S
C64 H66 0.951 . S
C65 C60 1.491 . S
C65 C67 1.382 . S
C65 C69 1.404 . S
H66 C64 0.951 . S
C67 C65 1.382 . S
C67 C68 1.390 . S
C67 H72 0.949 . S
C68 C67 1.390 . S
C68 C73 1.399 . S
C69 C65 1.404 . S
C69 H70 0.950 . S
C69 C71 1.375 . S
H70 C69 0.950 . S
C71 C69 1.375 . S
C71 C73 1.382 . S
C71 H75 0.950 . S
H72 C67 0.949 . S
C73 C68 1.399 . S
C73 C71 1.382 . S
C73 H74 0.952 . S
H74 C73 0.952 . S
H75 C71 0.950 . S
H76 C77 0.949 . S
C77 H76 0.949 . S
C77 C78 1.395 . S
C77 C79 1.391 . S
C78 C77 1.395 . S
C78 C81 1.390 1_565 S
C79 C77 1.391 . S
C79 C83 1.387 . S
C79 C84 1.491 . S
H80 C81 0.950 . S
C81 C78 1.390 1_545 S
C81 H80 0.950 . S
C81 C82 1.378 1_545 S
C82 C81 1.378 1_565 S
C82 C83 1.409 . S
C83 C79 1.387 . S
C83 C82 1.409 . S
C83 H85 0.951 . S
C84 C79 1.491 . S
C84 C86 1.382 . S
C84 C88 1.404 . S
H85 C83 0.951 . S
C86 C84 1.382 . S
C86 C87 1.390 . S
C86 H91 0.949 . S
C87 C86 1.390 . S
C87 C92 1.399 . S
C88 C84 1.404 . S
C88 H89 0.950 . S
C88 C90 1.375 . S
H89 C88 0.950 . S
C90 C88 1.375 . S
C90 C92 1.382 . S
C90 H94 0.950 . S
H91 C86 0.949 . S
C92 C87 1.399 . S
C92 C90 1.382 . S
C92 H93 0.952 . S
H93 C92 0.952 . S
H94 C90 0.950 . S
H95 C96 0.949 . S
C96 H95 0.949 . S
C96 C97 1.395 . S
C96 C98 1.391 . S
C97 C96 1.395 . S
C97 C100 1.390 . S
C98 C96 1.391 . S
C98 C102 1.387 . S
C98 C103 1.491 . S
H99 C100 0.950 . S
C100 C97 1.390 . S
C100 H99 0.950 . S
C100 C101 1.378 . S
C101 C100 1.378 . S
C101 C102 1.409 . S
C102 C98 1.387 . S
C102 C101 1.409 . S
C102 H104 0.951 . S
C103 C98 1.491 . S
C103 C105 1.382 . S
C103 C107 1.404 . S
H104 C102 0.951 . S
C105 C103 1.382 . S
C105 C106 1.390 . S
C105 H110 0.949 . S
C106 C105 1.390 . S
C106 C111 1.399 . S
C107 C103 1.404 . S
C107 H108 0.950 . S
C107 C109 1.375 . S
H108 C107 0.950 . S
C109 C107 1.375 . S
C109 C111 1.382 . S
C109 H113 0.950 . S
H110 C105 0.949 . S
C111 C106 1.399 . S
C111 C109 1.382 . S
C111 H112 0.952 . S
H112 C111 0.952 . S
H113 C109 0.950 . S
H114 C115 0.949 1_455 S
C115 H114 0.949 1_655 S
C115 C116 1.395 . S
C115 C117 1.391 . S
C116 C115 1.395 . S
C116 C119 1.390 . S
C117 C115 1.391 . S
C117 C121 1.387 . S
C117 C122 1.491 . S
H118 C119 0.950 . S
C119 C116 1.390 . S
C119 H118 0.950 . S
C119 C120 1.378 . S
C120 C119 1.378 . S
C120 C121 1.409 . S
C121 C117 1.387 . S
C121 C120 1.409 . S
C121 H123 0.951 . S
C122 C117 1.491 . S
C122 C124 1.382 1_655 S
C122 C126 1.404 . S
H123 C121 0.951 . S
C124 C122 1.382 1_455 S
C124 C125 1.390 . S
C124 H129 0.949 . S
C125 C124 1.390 . S
C125 C130 1.399 . S
C126 C122 1.404 . S
C126 H127 0.950 . S
C126 C128 1.375 . S
H127 C126 0.950 . S
C128 C126 1.375 . S
C128 C130 1.382 1_655 S
C128 H132 0.950 . S
H129 C124 0.949 . S
C130 C125 1.399 . S
C130 C128 1.382 1_455 S
C130 H131 0.952 . S
H131 C130 0.952 . S
H132 C128 0.950 . S
H133 C134 0.949 . S
C134 H133 0.949 . S
C134 C135 1.395 . S
C134 C136 1.391 . S
C135 C134 1.395 . S
C135 C138 1.390 . S
C136 C134 1.391 . S
C136 C140 1.387 . S
C136 C141 1.491 . S
H137 C138 0.950 . S
C138 C135 1.390 . S
C138 H137 0.950 . S
C138 C139 1.378 . S
C139 C138 1.378 . S
C139 C140 1.409 . S
C140 C136 1.387 . S
C140 C139 1.409 . S
C140 H142 0.951 . S
C141 C136 1.491 . S
C141 C143 1.382 . S
C141 C145 1.404 . S
H142 C140 0.951 . S
C143 C141 1.382 . S
C143 C144 1.390 . S
C143 H148 0.949 . S
C144 C143 1.390 . S
C144 C149 1.399 . S
C145 C141 1.404 . S
C145 H146 0.950 . S
C145 C147 1.375 . S
H146 C145 0.950 . S
C147 C145 1.375 . S
C147 C149 1.382 . S
C147 H151 0.950 . S
H148 C143 0.949 . S
C149 C144 1.399 . S
C149 C147 1.382 . S
C149 H150 0.952 . S
H150 C149 0.952 . S
H151 C147 0.950 . S
H152 C153 0.949 . S
C153 H152 0.949 . S
C153 C154 1.395 . S
C153 C155 1.391 . S
C154 C153 1.395 . S
C154 C157 1.390 . S
C155 C153 1.391 . S
C155 C159 1.387 . S
C155 C160 1.491 . S
H156 C157 0.950 . S
C157 C154 1.390 . S
C157 H156 0.950 . S
C157 C158 1.378 . S
C158 C157 1.378 . S
C158 C159 1.409 . S
C159 C155 1.387 . S
C159 C158 1.409 . S
C159 H161 0.951 . S
C160 C155 1.491 . S
C160 C162 1.382 . S
C160 C164 1.404 . S
H161 C159 0.951 . S
C162 C160 1.382 . S
C162 C163 1.390 . S
C162 H167 0.949 . S
C163 C162 1.390 . S
C163 C168 1.399 . S
C164 C160 1.404 . S
C164 H165 0.950 . S
C164 C166 1.375 . S
H165 C164 0.950 . S
C166 C164 1.375 . S
C166 C168 1.382 . S
C166 H170 0.950 . S
H167 C162 0.949 . S
C168 C163 1.399 . S
C168 C166 1.382 . S
C168 H169 0.952 . S
H169 C168 0.952 . S
H170 C166 0.950 . S
H171 C172 0.949 . S
C172 H171 0.949 . S
C172 C173 1.395 . S
C172 C174 1.391 . S
C173 C172 1.395 . S
C173 C176 1.390 1_565 S
C174 C172 1.391 . S
C174 C178 1.387 . S
C174 C179 1.491 . S
H175 C176 0.950 . S
C176 C173 1.390 1_545 S
C176 H175 0.950 . S
C176 C177 1.378 . S
C177 C176 1.378 . S
C177 C178 1.409 1_545 S
C178 C174 1.387 . S
C178 C177 1.409 1_565 S
C178 H180 0.951 . S
C179 C174 1.491 . S
C179 C181 1.382 . S
C179 C183 1.404 . S
H180 C178 0.951 . S
C181 C179 1.382 . S
C181 C182 1.390 . S
C181 H186 0.949 . S
C182 C181 1.390 . S
C182 C187 1.399 . S
C183 C179 1.404 . S
C183 H184 0.950 . S
C183 C185 1.375 . S
H184 C183 0.950 . S
C185 C183 1.375 . S
C185 C187 1.382 . S
C185 H189 0.950 . S
H186 C181 0.949 . S
C187 C182 1.399 . S
C187 C185 1.382 . S
C187 H188 0.952 . S
H188 C187 0.952 . S
H189 C185 0.950 . S
H190 C191 0.949 . S
C191 H190 0.949 . S
C191 C192 1.395 . S
C191 C193 1.391 . S
C192 C191 1.395 . S
C192 C195 1.390 . S
C193 C191 1.391 . S
C193 C197 1.387 . S
C193 C198 1.491 . S
H194 C195 0.950 . S
C195 C192 1.390 . S
C195 H194 0.950 . S
C195 C196 1.378 . S
C196 C195 1.378 . S
C196 C197 1.409 . S
C197 C193 1.387 . S
C197 C196 1.409 . S
C197 H199 0.951 . S
C198 C193 1.491 . S
C198 C200 1.382 . S
C198 C202 1.404 . S
H199 C197 0.951 . S
C200 C198 1.382 . S
C200 C201 1.390 . S
C200 H205 0.949 . S
C201 C200 1.390 . S
C201 C206 1.399 . S
C202 C198 1.404 . S
C202 H203 0.950 . S
C202 C204 1.375 . S
H203 C202 0.950 . S
C204 C202 1.375 . S
C204 C206 1.382 . S
C204 H208 0.950 . S
H205 C200 0.949 . S
C206 C201 1.399 . S
C206 C204 1.382 . S
C206 H207 0.952 . S
H207 C206 0.952 . S
H208 C204 0.950 . S
H209 C210 0.949 . S
C210 H209 0.949 . S
C210 C211 1.395 . S
C210 C212 1.391 . S
C211 C210 1.395 . S
C211 C214 1.390 . S
C212 C210 1.391 . S
C212 C216 1.387 . S
C212 C217 1.491 . S
H213 C214 0.950 . S
C214 C211 1.390 . S
C214 H213 0.950 . S
C214 C215 1.378 . S
C215 C214 1.378 . S
C215 C216 1.409 . S
C216 C212 1.387 . S
C216 C215 1.409 . S
C216 H218 0.951 . S
C217 C212 1.491 . S
C217 C219 1.382 . S
C217 C221 1.404 . S
H218 C216 0.951 . S
C219 C217 1.382 . S
C219 C220 1.390 . S
C219 H224 0.949 . S
C220 C219 1.390 . S
C220 C225 1.399 . S
C221 C217 1.404 . S
C221 H222 0.950 . S
C221 C223 1.375 . S
H222 C221 0.950 . S
C223 C221 1.375 . S
C223 C225 1.382 . S
C223 H227 0.950 . S
H224 C219 0.949 . S
C225 C220 1.399 . S
C225 C223 1.382 . S
C225 H226 0.952 . S
H226 C225 0.952 . S
H227 C223 0.950 . S
H228 C229 0.949 . S
C229 H228 0.949 . S
C229 C230 1.395 . S
C229 C231 1.391 . S
C230 C229 1.395 . S
C230 C233 1.390 . S
C231 C229 1.391 . S
C231 C235 1.387 . S
C231 C236 1.491 . S
H232 C233 0.950 . S
C233 C230 1.390 . S
C233 H232 0.950 . S
C233 C234 1.378 . S
C234 C233 1.378 . S
C234 C235 1.409 . S
C235 C231 1.387 . S
C235 C234 1.409 . S
C235 H237 0.951 . S
C236 C231 1.491 . S
C236 C238 1.382 . S
C236 C240 1.404 . S
H237 C235 0.951 . S
C238 C236 1.382 . S
C238 C239 1.390 . S
C238 H243 0.949 . S
C239 C238 1.390 . S
C239 C244 1.399 . S
C240 C236 1.404 . S
C240 H241 0.950 . S
C240 C242 1.375 . S
H241 C240 0.950 . S
C242 C240 1.375 . S
C242 C244 1.382 . S
C242 H246 0.950 . S
H243 C238 0.949 . S
C244 C239 1.399 . S
C244 C242 1.382 . S
C244 H245 0.952 . S
H245 C244 0.952 . S
H246 C242 0.950 . S
H247 C248 0.949 1_554 S
C248 H247 0.949 1_556 S
C248 C249 1.395 . S
C248 C250 1.391 . S
C249 C248 1.395 . S
C249 C252 1.390 . S
C250 C248 1.391 . S
C250 C254 1.387 . S
C250 C255 1.491 . S
H251 C252 0.950 . S
C252 C249 1.390 . S
C252 H251 0.950 . S
C252 C253 1.378 . S
C253 C252 1.378 . S
C253 C254 1.409 . S
C254 C250 1.387 . S
C254 C253 1.409 . S
C254 H256 0.951 . S
C255 C250 1.491 . S
C255 C257 1.382 1_556 S
C255 C259 1.404 . S
H256 C254 0.951 . S
C257 C255 1.382 1_554 S
C257 C258 1.390 . S
C257 H262 0.949 . S
C258 C257 1.390 . S
C258 C263 1.399 . S
C259 C255 1.404 . S
C259 H260 0.950 . S
C259 C261 1.375 . S
H260 C259 0.950 . S
C261 C259 1.375 . S
C261 C263 1.382 1_556 S
C261 H265 0.950 . S
H262 C257 0.949 . S
C263 C258 1.399 . S
C263 C261 1.382 1_554 S
C263 H264 0.952 . S
H264 C263 0.952 . S
H265 C261 0.950 . S
H266 C267 0.949 . S
C267 H266 0.949 . S
C267 C268 1.395 . S
C267 C269 1.391 . S
C268 C267 1.395 . S
C268 C271 1.390 . S
C269 C267 1.391 . S
C269 C273 1.387 . S
C269 C274 1.491 . S
H270 C271 0.950 . S
C271 C268 1.390 . S
C271 H270 0.950 . S
C271 C272 1.378 . S
C272 C271 1.378 . S
C272 C273 1.409 . S
C273 C269 1.387 . S
C273 C272 1.409 . S
C273 H275 0.951 . S
C274 C269 1.491 . S
C274 C276 1.382 . S
C274 C278 1.404 . S
H275 C273 0.951 . S
C276 C274 1.382 . S
C276 C277 1.390 . S
C276 H281 0.949 . S
C277 C276 1.390 . S
C277 C282 1.399 . S
C278 C274 1.404 . S
C278 H279 0.950 . S
C278 C280 1.375 . S
H279 C278 0.950 . S
C280 C278 1.375 . S
C280 C282 1.382 . S
C280 H284 0.950 . S
H281 C276 0.949 . S
C282 C277 1.399 . S
C282 C280 1.382 . S
C282 H283 0.952 . S
H283 C282 0.952 . S
H284 C280 0.950 . S
H285 C286 0.949 . S
C286 H285 0.949 . S
C286 C287 1.395 . S
C286 C288 1.391 . S
C287 C286 1.395 . S
C287 C290 1.390 1_556 S
C288 C286 1.391 . S
C288 C292 1.387 . S
C288 C293 1.491 . S
H289 C290 0.950 . S
C290 C287 1.390 1_554 S
C290 H289 0.950 . S
C290 C291 1.378 1_554 S
C291 C290 1.378 1_556 S
C291 C292 1.409 . S
C292 C288 1.387 . S
C292 C291 1.409 . S
C292 H294 0.951 . S
C293 C288 1.491 . S
C293 C295 1.382 . S
C293 C297 1.404 . S
H294 C292 0.951 . S
C295 C293 1.382 . S
C295 C296 1.390 . S
C295 H300 0.949 . S
C296 C295 1.390 . S
C296 C301 1.399 . S
C297 C293 1.404 . S
C297 H298 0.950 . S
C297 C299 1.375 . S
H298 C297 0.950 . S
C299 C297 1.375 . S
C299 C301 1.382 . S
C299 H303 0.950 . S
H300 C295 0.949 . S
C301 C296 1.399 . S
C301 C299 1.382 . S
C301 H302 0.952 . S
H302 C301 0.952 . S
H303 C299 0.950 . S
Mn304 O309 2.095 . S
Mn304 O319 2.162 . S
Mn304 O320 2.297 . S
Mn304 O328 2.385 . S
Mn304 O329 2.209 . S
Mn304 O330 2.094 . S
Mn305 O310 2.121 1_556 S
Mn305 N312 2.257 . S
Mn305 N321 2.282 . S
Mn305 O329 2.215 1_556 S
Mn305 O331 2.117 1_556 S
C306 O328 1.234 . S
C306 O329 1.283 . S
C307 O319 1.281 . S
C307 O320 1.236 . S
C308 O330 1.240 . S
C308 O331 1.264 . S
O309 Mn304 2.095 . S
O309 C318 1.250 . S
O310 Mn305 2.121 1_554 S
O310 C318 1.258 . S
C311 N312 1.326 . S
C311 C315 1.460 . S
C311 H317 0.929 . S
N312 Mn305 2.257 . S
N312 C311 1.326 . S
N312 C316 1.362 . S
C313 C314 1.258 . S
C313 C316 1.431 . S
C313 C333 1.449 . S
C314 C313 1.258 . S
C314 C315 1.477 . S
C314 H334 0.931 . S
C315 C311 1.460 . S
C315 C314 1.477 . S
C315 H335 0.930 . S
C316 N312 1.362 . S
C316 C313 1.431 . S
C316 C326 1.476 . S
H317 C311 0.929 . S
C318 O309 1.250 . S
C318 O310 1.258 . S
O319 Mn304 2.162 . S
O319 C307 1.281 . S
O320 Mn304 2.297 . S
O320 C307 1.236 . S
N321 Mn305 2.282 . S
N321 C322 1.328 . S
N321 C326 1.318 . S
C322 N321 1.328 . S
C322 C323 1.457 . S
C322 H327 0.929 . S
C323 C322 1.457 . S
C323 C324 1.291 . S
C323 H336 0.931 . S
C324 C323 1.291 . S
C324 C325 1.373 . S
C324 H337 0.929 . S
C325 C324 1.373 . S
C325 C326 1.396 . S
C325 C332 1.403 . S
C326 C316 1.476 . S
C326 N321 1.318 . S
C326 C325 1.396 . S
H327 C322 0.929 . S
O328 Mn304 2.385 . S
O328 C306 1.234 . S
O329 Mn304 2.209 . S
O329 Mn305 2.215 1_554 S
O329 C306 1.283 . S
O330 Mn304 2.094 . S
O330 C308 1.240 . S
O331 Mn305 2.117 1_554 S
O331 C308 1.264 . S
C332 C325 1.403 . S
C332 C333 1.399 . S
C332 H338 0.929 . S
C333 C313 1.449 . S
C333 C332 1.399 . S
C333 H339 0.930 . S
H334 C314 0.931 . S
H335 C315 0.930 . S
H336 C323 0.931 . S
H337 C324 0.929 . S
H338 C332 0.929 . S
H339 C333 0.930 . S
Mn340 O345 2.095 . S
Mn340 O355 2.162 . S
Mn340 O356 2.297 . S
Mn340 O364 2.385 . S
Mn340 O365 2.209 . S
Mn340 O366 2.094 . S
Mn341 O346 2.121 . S
Mn341 N348 2.257 . S
Mn341 N357 2.282 . S
Mn341 O365 2.215 . S
Mn341 O367 2.117 . S
C342 O364 1.234 . S
C342 O365 1.283 . S
C343 O355 1.281 . S
C343 O356 1.236 . S
C344 O366 1.240 . S
C344 O367 1.264 . S
O345 Mn340 2.095 . S
O345 C354 1.250 . S
O346 Mn341 2.121 . S
O346 C354 1.258 . S
C347 N348 1.326 . S
C347 C351 1.460 . S
C347 H353 0.929 . S
N348 Mn341 2.257 . S
N348 C347 1.326 . S
N348 C352 1.362 . S
C349 C350 1.258 . S
C349 C352 1.431 . S
C349 C369 1.449 . S
C350 C349 1.258 . S
C350 C351 1.477 . S
C350 H370 0.931 . S
C351 C347 1.460 . S
C351 C350 1.477 . S
C351 H371 0.930 . S
C352 N348 1.362 . S
C352 C349 1.431 . S
C352 C362 1.476 . S
H353 C347 0.929 . S
C354 O345 1.250 . S
C354 O346 1.258 . S
O355 Mn340 2.162 . S
O355 C343 1.281 . S
O356 Mn340 2.297 . S
O356 C343 1.236 . S
N357 Mn341 2.282 . S
N357 C358 1.328 . S
N357 C362 1.318 . S
C358 N357 1.328 . S
C358 C359 1.457 . S
C358 H363 0.929 . S
C359 C358 1.457 . S
C359 C360 1.291 . S
C359 H372 0.931 . S
C360 C359 1.291 . S
C360 C361 1.373 . S
C360 H373 0.929 . S
C361 C360 1.373 . S
C361 C362 1.396 . S
C361 C368 1.403 . S
C362 C352 1.476 . S
C362 N357 1.318 . S
C362 C361 1.396 . S
H363 C358 0.929 . S
O364 Mn340 2.385 . S
O364 C342 1.234 . S
O365 Mn340 2.209 . S
O365 Mn341 2.215 . S
O365 C342 1.283 . S
O366 Mn340 2.094 . S
O366 C344 1.240 . S
O367 Mn341 2.117 . S
O367 C344 1.264 . S
C368 C361 1.403 . S
C368 C369 1.399 . S
C368 H374 0.929 . S
C369 C349 1.449 . S
C369 C368 1.399 . S
C369 H375 0.930 . S
H370 C350 0.931 . S
H371 C351 0.930 . S
H372 C359 0.931 . S
H373 C360 0.929 . S
H374 C368 0.929 . S
H375 C369 0.930 . S
Mn376 O381 2.095 1_554 S
Mn376 O391 2.162 . S
Mn376 O392 2.297 1_554 S
Mn376 O400 2.385 . S
Mn376 O401 2.209 1_554 S
Mn376 O402 2.094 . S
Mn377 O382 2.121 . S
Mn377 N384 2.257 . S
Mn377 N393 2.282 1_556 S
Mn377 O401 2.215 . S
Mn377 O403 2.117 1_556 S
C378 O400 1.209 1_556 S
C378 O401 1.305 . S
C379 O391 1.281 1_556 S
C379 O392 1.236 . S
C380 O402 1.240 . S
C380 O403 1.264 . S
O381 Mn376 2.095 1_556 S
O381 C390 1.250 . S
O382 Mn377 2.121 . S
O382 C390 1.258 . S
C383 N384 1.326 . S
C383 C387 1.460 . S
C383 H389 0.929 . S
N384 Mn377 2.257 . S
N384 C383 1.326 . S
N384 C388 1.362 . S
C385 C386 1.258 . S
C385 C388 1.431 . S
C385 C405 1.449 . S
C386 C385 1.258 . S
C386 C387 1.477 . S
C386 H406 0.931 . S
C387 C383 1.460 . S
C387 C386 1.477 . S
C387 H407 0.930 . S
C388 N384 1.362 . S
C388 C385 1.431 . S
C388 C398 1.476 . S
H389 C383 0.929 . S
C390 O381 1.250 . S
C390 O382 1.258 . S
O391 Mn376 2.162 . S
O391 C379 1.281 1_554 S
O392 Mn376 2.297 1_556 S
O392 C379 1.236 . S
N393 Mn377 2.282 1_554 S
N393 C394 1.328 . S
N393 C398 1.318 1_554 S
C394 N393 1.328 . S
C394 C395 1.457 . S
C394 H399 0.929 . S
C395 C394 1.457 . S
C395 C396 1.291 . S
C395 H408 0.931 . S
C396 C395 1.291 . S
C396 C397 1.373 1_554 S
C396 H409 0.929 . S
C397 C396 1.373 1_556 S
C397 C398 1.396 . S
C397 C404 1.403 . S
C398 C388 1.476 . S
C398 N393 1.318 1_556 S
C398 C397 1.396 . S
H399 C394 0.929 . S
O400 Mn376 2.385 . S
O400 C378 1.209 1_554 S
O401 Mn376 2.209 1_556 S
O401 Mn377 2.215 . S
O401 C378 1.305 . S
O402 Mn376 2.094 . S
O402 C380 1.240 . S
O403 Mn377 2.117 1_554 S
O403 C380 1.264 . S
C404 C397 1.403 . S
C404 C405 1.399 . S
C404 H410 0.929 . S
C405 C385 1.449 . S
C405 C404 1.399 . S
C405 H411 0.930 . S
H406 C386 0.931 . S
H407 C387 0.930 . S
H408 C395 0.931 . S
H409 C396 0.929 . S
H410 C404 0.929 . S
H411 C405 0.930 . S
Mn412 O417 2.095 . S
Mn412 O427 2.162 . S
Mn412 O428 2.297 . S
Mn412 O436 2.385 . S
Mn412 O437 2.209 1_545 S
Mn412 O438 2.094 . S
Mn413 O418 2.121 . S
Mn413 N420 2.257 . S
Mn413 N429 2.282 . S
Mn413 O437 2.215 . S
Mn413 O439 2.117 1_565 S
C414 O436 1.234 1_565 S
C414 O437 1.283 . S
C415 O427 1.281 . S
C415 O428 1.236 . S
C416 O438 1.240 . S
C416 O439 1.264 . S
O417 Mn412 2.095 . S
O417 C426 1.250 . S
O418 Mn413 2.121 . S
O418 C426 1.258 1_565 S
C419 N420 1.326 . S
C419 C423 1.460 . S
C419 H425 0.929 . S
N420 Mn413 2.257 . S
N420 C419 1.326 . S
N420 C424 1.362 . S
C421 C422 1.258 . S
C421 C424 1.431 . S
C421 C441 1.449 . S
C422 C421 1.258 . S
C422 C423 1.477 . S
C422 H442 0.931 . S
C423 C419 1.460 . S
C423 C422 1.477 . S
C423 H443 0.930 . S
C424 N420 1.362 . S
C424 C421 1.431 . S
C424 C434 1.476 . S
H425 C419 0.929 . S
C426 O417 1.250 . S
C426 O418 1.258 1_545 S
O427 Mn412 2.162 . S
O427 C415 1.281 . S
O428 Mn412 2.297 . S
O428 C415 1.236 . S
N429 Mn413 2.282 . S
N429 C430 1.328 . S
N429 C434 1.318 . S
C430 N429 1.328 . S
C430 C431 1.457 . S
C430 H435 0.929 . S
C431 C430 1.457 . S
C431 C432 1.291 . S
C431 H444 0.931 . S
C432 C431 1.291 . S
C432 C433 1.373 . S
C432 H445 0.929 . S
C433 C432 1.373 . S
C433 C434 1.396 . S
C433 C440 1.403 . S
C434 C424 1.476 . S
C434 N429 1.318 . S
C434 C433 1.396 . S
H435 C430 0.929 . S
O436 Mn412 2.385 . S
O436 C414 1.234 1_545 S
O437 Mn412 2.209 1_565 S
O437 Mn413 2.215 . S
O437 C414 1.283 . S
O438 Mn412 2.094 . S
O438 C416 1.240 . S
O439 Mn413 2.117 1_545 S
O439 C416 1.264 . S
C440 C433 1.403 . S
C440 C441 1.399 . S
C440 H446 0.929 . S
C441 C421 1.449 . S
C441 C440 1.399 . S
C441 H447 0.930 . S
H442 C422 0.931 . S
H443 C423 0.930 . S
H444 C431 0.931 . S
H445 C432 0.929 . S
H446 C440 0.929 . S
H447 C441 0.930 . S
Mn448 O453 2.095 . S
Mn448 O463 2.162 . S
Mn448 O464 2.297 . S
Mn448 O472 2.385 . S
Mn448 O473 2.209 . S
Mn448 O474 2.094 . S
Mn449 O454 2.121 . S
Mn449 N456 2.257 . S
Mn449 N465 2.282 . S
Mn449 O473 2.215 . S
Mn449 O475 2.117 . S
C450 O472 1.234 . S
C450 O473 1.283 . S
C451 O463 1.281 . S
C451 O464 1.236 . S
C452 O474 1.240 . S
C452 O475 1.264 . S
O453 Mn448 2.095 . S
O453 C462 1.250 . S
O454 Mn449 2.121 . S
O454 C462 1.258 . S
C455 N456 1.326 . S
C455 C459 1.460 . S
C455 H461 0.929 . S
N456 Mn449 2.257 . S
N456 C455 1.326 . S
N456 C460 1.362 . S
C457 C458 1.258 . S
C457 C460 1.431 . S
C457 C477 1.449 . S
C458 C457 1.258 . S
C458 C459 1.477 . S
C458 H478 0.931 . S
C459 C455 1.460 . S
C459 C458 1.477 . S
C459 H479 0.930 . S
C460 N456 1.362 . S
C460 C457 1.431 . S
C460 C470 1.476 . S
H461 C455 0.929 . S
C462 O453 1.250 . S
C462 O454 1.258 . S
O463 Mn448 2.162 . S
O463 C451 1.281 . S
O464 Mn448 2.297 . S
O464 C451 1.236 . S
N465 Mn449 2.282 . S
N465 C466 1.328 . S
N465 C470 1.318 . S
C466 N465 1.328 . S
C466 C467 1.457 . S
C466 H471 0.929 . S
C467 C466 1.457 . S
C467 C468 1.291 . S
C467 H480 0.931 . S
C468 C467 1.291 . S
C468 C469 1.373 . S
C468 H481 0.929 . S
C469 C468 1.373 . S
C469 C470 1.396 . S
C469 C476 1.403 . S
C470 C460 1.476 . S
C470 N465 1.318 . S
C470 C469 1.396 . S
H471 C466 0.929 . S
O472 Mn448 2.385 . S
O472 C450 1.234 . S
O473 Mn448 2.209 . S
O473 Mn449 2.215 . S
O473 C450 1.283 . S
O474 Mn448 2.094 . S
O474 C452 1.240 . S
O475 Mn449 2.117 . S
O475 C452 1.264 . S
C476 C469 1.403 . S
C476 C477 1.399 . S
C476 H482 0.929 . S
C477 C457 1.449 . S
C477 C476 1.399 . S
C477 H483 0.930 . S
H478 C458 0.931 . S
H479 C459 0.930 . S
H480 C467 0.931 . S
H481 C468 0.929 . S
H482 C476 0.929 . S
H483 C477 0.930 . S
Mn484 O489 2.095 . S
Mn484 O499 2.162 . S
Mn484 O500 2.297 . S
Mn484 O508 2.385 . S
Mn484 O509 2.209 . S
Mn484 O510 2.094 . S
Mn485 O490 2.121 . S
Mn485 N492 2.257 . S
Mn485 N501 2.282 . S
Mn485 O509 2.215 . S
Mn485 O511 2.117 . S
C486 O508 1.234 . S
C486 O509 1.283 . S
C487 O499 1.281 . S
C487 O500 1.236 . S
C488 O510 1.240 . S
C488 O511 1.264 . S
O489 Mn484 2.095 . S
O489 C498 1.250 . S
O490 Mn485 2.121 . S
O490 C498 1.258 . S
C491 N492 1.326 . S
C491 C495 1.460 . S
C491 H497 0.929 . S
N492 Mn485 2.257 . S
N492 C491 1.326 . S
N492 C496 1.362 . S
C493 C494 1.258 . S
C493 C496 1.431 . S
C493 C513 1.449 . S
C494 C493 1.258 . S
C494 C495 1.477 . S
C494 H514 0.931 . S
C495 C491 1.460 . S
C495 C494 1.477 . S
C495 H515 0.930 . S
C496 N492 1.362 . S
C496 C493 1.431 . S
C496 C506 1.476 . S
H497 C491 0.929 . S
C498 O489 1.250 . S
C498 O490 1.258 . S
O499 Mn484 2.162 . S
O499 C487 1.281 . S
O500 Mn484 2.297 . S
O500 C487 1.236 . S
N501 Mn485 2.282 . S
N501 C502 1.328 . S
N501 C506 1.318 . S
C502 N501 1.328 . S
C502 C503 1.457 . S
C502 H507 0.929 . S
C503 C502 1.457 . S
C503 C504 1.291 . S
C503 H516 0.931 . S
C504 C503 1.291 . S
C504 C505 1.373 . S
C504 H517 0.929 . S
C505 C504 1.373 . S
C505 C506 1.396 . S
C505 C512 1.403 . S
C506 C496 1.476 . S
C506 N501 1.318 . S
C506 C505 1.396 . S
H507 C502 0.929 . S
O508 Mn484 2.385 . S
O508 C486 1.234 . S
O509 Mn484 2.209 . S
O509 Mn485 2.215 . S
O509 C486 1.283 . S
O510 Mn484 2.094 . S
O510 C488 1.240 . S
O511 Mn485 2.117 . S
O511 C488 1.264 . S
C512 C505 1.403 . S
C512 C513 1.399 . S
C512 H518 0.929 . S
C513 C493 1.449 . S
C513 C512 1.399 . S
C513 H519 0.930 . S
H514 C494 0.931 . S
H515 C495 0.930 . S
H516 C503 0.931 . S
H517 C504 0.929 . S
H518 C512 0.929 . S
H519 C513 0.930 . S
Mn520 O525 2.095 . S
Mn520 O535 2.162 . S
Mn520 O536 2.297 . S
Mn520 O544 2.385 . S
Mn520 O545 2.209 . S
Mn520 O546 2.094 . S
Mn521 O526 2.121 . S
Mn521 N528 2.257 . S
Mn521 N537 2.282 . S
Mn521 O545 2.215 . S
Mn521 O547 2.117 . S
C522 O544 1.234 . S
C522 O545 1.283 . S
C523 O535 1.281 . S
C523 O536 1.236 . S
C524 O546 1.240 . S
C524 O547 1.264 . S
O525 Mn520 2.095 . S
O525 C534 1.250 . S
O526 Mn521 2.121 . S
O526 C534 1.258 . S
C527 N528 1.326 . S
C527 C531 1.460 . S
C527 H533 0.929 . S
N528 Mn521 2.257 . S
N528 C527 1.326 . S
N528 C532 1.362 . S
C529 C530 1.258 . S
C529 C532 1.431 . S
C529 C549 1.449 . S
C530 C529 1.258 . S
C530 C531 1.477 . S
C530 H550 0.931 . S
C531 C527 1.460 . S
C531 C530 1.477 . S
C531 H551 0.930 . S
C532 N528 1.362 . S
C532 C529 1.431 . S
C532 C542 1.476 . S
H533 C527 0.929 . S
C534 O525 1.250 . S
C534 O526 1.258 . S
O535 Mn520 2.162 . S
O535 C523 1.281 . S
O536 Mn520 2.297 . S
O536 C523 1.236 . S
N537 Mn521 2.282 . S
N537 C538 1.328 . S
N537 C542 1.318 . S
C538 N537 1.328 . S
C538 C539 1.457 . S
C538 H543 0.929 . S
C539 C538 1.457 . S
C539 C540 1.291 . S
C539 H552 0.931 . S
C540 C539 1.291 . S
C540 C541 1.373 . S
C540 H553 0.929 . S
C541 C540 1.373 . S
C541 C542 1.396 . S
C541 C548 1.403 . S
C542 C532 1.476 . S
C542 N537 1.318 . S
C542 C541 1.396 . S
H543 C538 0.929 . S
O544 Mn520 2.385 . S
O544 C522 1.234 . S
O545 Mn520 2.209 . S
O545 Mn521 2.215 . S
O545 C522 1.283 . S
O546 Mn520 2.094 . S
O546 C524 1.240 . S
O547 Mn521 2.117 . S
O547 C524 1.264 . S
C548 C541 1.403 . S
C548 C549 1.399 . S
C548 H554 0.929 . S
C549 C529 1.449 . S
C549 C548 1.399 . S
C549 H555 0.930 . S
H550 C530 0.931 . S
H551 C531 0.930 . S
H552 C539 0.931 . S
H553 C540 0.929 . S
H554 C548 0.929 . S
H555 C549 0.930 . S
Mn556 O561 2.095 . S
Mn556 O571 2.162 1_545 S
Mn556 O572 2.297 . S
Mn556 O580 2.385 . S
Mn556 O581 2.209 . S
Mn556 O582 2.094 . S
Mn557 O562 2.121 . S
Mn557 N564 2.257 . S
Mn557 N573 2.282 . S
Mn557 O581 2.215 . S
Mn557 O583 2.117 . S
C558 O580 1.234 . S
C558 O581 1.283 . S
C559 O571 1.281 . S
C559 O572 1.236 1_565 S
C560 O582 1.240 . S
C560 O583 1.264 . S
O561 Mn556 2.095 . S
O561 C570 1.250 . S
O562 Mn557 2.121 . S
O562 C570 1.258 . S
C563 N564 1.326 . S
C563 C567 1.460 . S
C563 H569 0.929 . S
N564 Mn557 2.257 . S
N564 C563 1.326 . S
N564 C568 1.362 . S
C565 C566 1.258 . S
C565 C568 1.431 . S
C565 C585 1.449 . S
C566 C565 1.258 . S
C566 C567 1.477 . S
C566 H586 0.931 . S
C567 C563 1.460 . S
C567 C566 1.477 . S
C567 H587 0.930 . S
C568 N564 1.362 . S
C568 C565 1.431 . S
C568 C578 1.476 . S
H569 C563 0.929 . S
C570 O561 1.250 . S
C570 O562 1.258 . S
O571 Mn556 2.162 1_565 S
O571 C559 1.281 . S
O572 Mn556 2.297 . S
O572 C559 1.236 1_545 S
N573 Mn557 2.282 . S
N573 C574 1.328 . S
N573 C578 1.318 . S
C574 N573 1.328 . S
C574 C575 1.457 . S
C574 H579 0.929 . S
C575 C574 1.457 . S
C575 C576 1.291 . S
C575 H588 0.931 . S
C576 C575 1.291 . S
C576 C577 1.373 . S
C576 H589 0.929 . S
C577 C576 1.373 . S
C577 C578 1.396 . S
C577 C584 1.403 . S
C578 C568 1.476 . S
C578 N573 1.318 . S
C578 C577 1.396 . S
H579 C574 0.929 . S
O580 Mn556 2.385 . S
O580 C558 1.234 . S
O581 Mn556 2.209 . S
O581 Mn557 2.215 . S
O581 C558 1.283 . S
O582 Mn556 2.094 . S
O582 C560 1.240 . S
O583 Mn557 2.117 . S
O583 C560 1.264 . S
C584 C577 1.403 . S
C584 C585 1.399 . S
C584 H590 0.929 . S
C585 C565 1.449 . S
C585 C584 1.399 . S
C585 H591 0.930 . S
H586 C566 0.931 . S
H587 C567 0.930 . S
H588 C575 0.931 . S
H589 C576 0.929 . S
H590 C584 0.929 . S
H591 C585 0.930 . S
Mn592 O597 2.095 . S
Mn592 O607 2.162 . S
Mn592 O608 2.297 . S
Mn592 O616 2.380 1_455 S
Mn592 O617 2.209 1_455 S
Mn592 O618 2.094 . S
Mn593 O598 2.121 . S
Mn593 N600 2.257 . S
Mn593 N609 2.282 . S
Mn593 O617 2.215 . S
Mn593 O619 2.117 . S
C594 O616 1.246 . S
C594 O617 1.283 . S
C595 O607 1.281 . S
C595 O608 1.236 . S
C596 O618 1.240 . S
C596 O619 1.264 1_455 S
O597 Mn592 2.095 . S
O597 C606 1.250 . S
O598 Mn593 2.121 . S
O598 C606 1.258 1_655 S
C599 N600 1.326 . S
C599 C603 1.460 . S
C599 H605 0.929 . S
N600 Mn593 2.257 . S
N600 C599 1.326 . S
N600 C604 1.362 . S
C601 C602 1.258 . S
C601 C604 1.431 . S
C601 C621 1.449 . S
C602 C601 1.258 . S
C602 C603 1.477 . S
C602 H622 0.931 . S
C603 C599 1.460 . S
C603 C602 1.477 . S
C603 H623 0.930 . S
C604 N600 1.362 . S
C604 C601 1.431 . S
C604 C614 1.476 . S
H605 C599 0.929 . S
C606 O597 1.250 . S
C606 O598 1.258 1_455 S
O607 Mn592 2.162 . S
O607 C595 1.281 . S
O608 Mn592 2.297 . S
O608 C595 1.236 . S
N609 Mn593 2.282 . S
N609 C610 1.328 . S
N609 C614 1.318 . S
C610 N609 1.328 . S
C610 C611 1.457 . S
C610 H615 0.929 . S
C611 C610 1.457 . S
C611 C612 1.291 . S
C611 H624 0.931 . S
C612 C611 1.291 . S
C612 C613 1.373 . S
C612 H625 0.929 . S
C613 C612 1.373 . S
C613 C614 1.396 . S
C613 C620 1.403 . S
C614 C604 1.476 . S
C614 N609 1.318 . S
C614 C613 1.396 . S
H615 C610 0.929 . S
O616 Mn592 2.380 1_655 S
O616 C594 1.246 . S
O617 Mn592 2.209 1_655 S
O617 Mn593 2.215 . S
O617 C594 1.283 . S
O618 Mn592 2.094 . S
O618 C596 1.240 . S
O619 Mn593 2.117 . S
O619 C596 1.264 1_655 S
C620 C613 1.403 . S
C620 C621 1.399 . S
C620 H626 0.929 . S
C621 C601 1.449 . S
C621 C620 1.399 . S
C621 H627 0.930 . S
H622 C602 0.931 . S
H623 C603 0.930 . S
H624 C611 0.931 . S
H625 C612 0.929 . S
H626 C620 0.929 . S
H627 C621 0.930 . S
Mn628 O633 2.095 . S
Mn628 O643 2.162 . S
Mn628 O644 2.297 . S
Mn628 O652 2.385 . S
Mn628 O653 2.209 . S
Mn628 O654 2.094 . S
Mn629 O634 2.121 . S
Mn629 N636 2.257 . S
Mn629 N645 2.282 . S
Mn629 O653 2.215 . S
Mn629 O655 2.117 . S
C630 O652 1.234 . S
C630 O653 1.283 . S
C631 O643 1.281 . S
C631 O644 1.236 . S
C632 O654 1.240 . S
C632 O655 1.264 . S
O633 Mn628 2.095 . S
O633 C642 1.250 . S
O634 Mn629 2.121 . S
O634 C642 1.258 . S
C635 N636 1.326 . S
C635 C639 1.460 . S
C635 H641 0.929 . S
N636 Mn629 2.257 . S
N636 C635 1.326 . S
N636 C640 1.362 . S
C637 C638 1.258 . S
C637 C640 1.431 . S
C637 C657 1.449 . S
C638 C637 1.258 . S
C638 C639 1.477 . S
C638 H658 0.931 . S
C639 C635 1.460 . S
C639 C638 1.477 . S
C639 H659 0.930 . S
C640 N636 1.362 . S
C640 C637 1.431 . S
C640 C650 1.476 . S
H641 C635 0.929 . S
C642 O633 1.250 . S
C642 O634 1.258 . S
O643 Mn628 2.162 . S
O643 C631 1.281 . S
O644 Mn628 2.297 . S
O644 C631 1.236 . S
N645 Mn629 2.282 . S
N645 C646 1.328 . S
N645 C650 1.318 . S
C646 N645 1.328 . S
C646 C647 1.457 . S
C646 H651 0.929 . S
C647 C646 1.457 . S
C647 C648 1.291 . S
C647 H660 0.931 . S
C648 C647 1.291 . S
C648 C649 1.373 . S
C648 H661 0.929 . S
C649 C648 1.373 . S
C649 C650 1.396 . S
C649 C656 1.403 . S
C650 C640 1.476 . S
C650 N645 1.318 . S
C650 C649 1.396 . S
H651 C646 0.929 . S
O652 Mn628 2.385 . S
O652 C630 1.234 . S
O653 Mn628 2.209 . S
O653 Mn629 2.215 . S
O653 C630 1.283 . S
O654 Mn628 2.094 . S
O654 C632 1.240 . S
O655 Mn629 2.117 . S
O655 C632 1.264 . S
C656 C649 1.403 . S
C656 C657 1.399 . S
C656 H662 0.929 . S
C657 C637 1.449 . S
C657 C656 1.399 . S
C657 H663 0.930 . S
H658 C638 0.931 . S
H659 C639 0.930 . S
H660 C647 0.931 . S
H661 C648 0.929 . S
H662 C656 0.929 . S
H663 C657 0.930 . S
Mn664 O669 2.095 1_455 S
Mn664 O679 2.162 . S
Mn664 O680 2.297 1_455 S
Mn664 O688 2.385 . S
Mn664 O689 2.209 1_455 S
Mn664 O690 2.094 . S
Mn665 O670 2.121 . S
Mn665 N672 2.257 . S
Mn665 N681 2.282 . S
Mn665 O689 2.215 . S
Mn665 O691 2.117 1_655 S
C666 O688 1.234 . S
C666 O689 1.283 1_455 S
C667 O679 1.281 . S
C667 O680 1.236 1_455 S
C668 O690 1.240 . S
C668 O691 1.264 . S
O669 Mn664 2.095 1_655 S
O669 C678 1.250 . S
O670 Mn665 2.121 . S
O670 C678 1.258 . S
C671 N672 1.326 . S
C671 C675 1.460 . S
C671 H677 0.929 . S
N672 Mn665 2.257 . S
N672 C671 1.326 . S
N672 C676 1.362 . S
C673 C674 1.258 . S
C673 C676 1.431 . S
C673 C693 1.449 . S
C674 C673 1.258 . S
C674 C675 1.477 . S
C674 H694 0.931 . S
C675 C671 1.460 . S
C675 C674 1.477 . S
C675 H695 0.930 . S
C676 N672 1.362 . S
C676 C673 1.431 . S
C676 C686 1.476 . S
H677 C671 0.929 . S
C678 O669 1.250 . S
C678 O670 1.258 . S
O679 Mn664 2.162 . S
O679 C667 1.281 . S
O680 Mn664 2.297 1_655 S
O680 C667 1.236 1_655 S
N681 Mn665 2.282 . S
N681 C682 1.328 1_655 S
N681 C686 1.318 . S
C682 N681 1.328 1_455 S
C682 C683 1.457 . S
C682 H687 0.929 . S
C683 C682 1.457 . S
C683 C684 1.291 . S
C683 H696 0.931 . S
C684 C683 1.291 . S
C684 C685 1.373 1_455 S
C684 H697 0.929 . S
C685 C684 1.373 1_655 S
C685 C686 1.396 . S
C685 C692 1.403 . S
C686 C676 1.476 . S
C686 N681 1.318 . S
C686 C685 1.396 . S
H687 C682 0.929 . S
O688 Mn664 2.385 . S
O688 C666 1.234 . S
O689 Mn664 2.209 1_655 S
O689 Mn665 2.215 . S
O689 C666 1.283 1_655 S
O690 Mn664 2.094 . S
O690 C668 1.240 . S
O691 Mn665 2.117 1_455 S
O691 C668 1.264 . S
C692 C685 1.403 . S
C692 C693 1.399 . S
C692 H698 0.929 . S
C693 C673 1.449 . S
C693 C692 1.399 . S
C693 H699 0.930 . S
H694 C674 0.931 . S
H695 C675 0.930 . S
H696 C683 0.931 . S
H697 C684 0.929 . S
H698 C692 0.929 . S
H699 C693 0.930 . S
Mn700 O705 2.095 . S
Mn700 O715 2.162 . S
Mn700 O716 2.297 . S
Mn700 O724 2.385 . S
Mn700 O725 2.209 . S
Mn700 O726 2.094 . S
Mn701 O706 2.121 . S
Mn701 N708 2.257 . S
Mn701 N717 2.282 . S
Mn701 O725 2.215 . S
Mn701 O727 2.117 . S
C702 O724 1.234 . S
C702 O725 1.283 . S
C703 O715 1.281 . S
C703 O716 1.236 . S
C704 O726 1.240 . S
C704 O727 1.264 . S
O705 Mn700 2.095 . S
O705 C714 1.250 . S
O706 Mn701 2.121 . S
O706 C714 1.258 . S
C707 N708 1.326 . S
C707 C711 1.460 . S
C707 H713 0.929 . S
N708 Mn701 2.257 . S
N708 C707 1.326 . S
N708 C712 1.362 . S
C709 C710 1.258 . S
C709 C712 1.431 . S
C709 C729 1.449 . S
C710 C709 1.258 . S
C710 C711 1.477 . S
C710 H730 0.931 . S
C711 C707 1.460 . S
C711 C710 1.477 . S
C711 H731 0.930 . S
C712 N708 1.362 . S
C712 C709 1.431 . S
C712 C722 1.476 . S
H713 C707 0.929 . S
C714 O705 1.250 . S
C714 O706 1.258 . S
O715 Mn700 2.162 . S
O715 C703 1.281 . S
O716 Mn700 2.297 . S
O716 C703 1.236 . S
N717 Mn701 2.282 . S
N717 C718 1.328 . S
N717 C722 1.318 . S
C718 N717 1.328 . S
C718 C719 1.457 . S
C718 H723 0.929 . S
C719 C718 1.457 . S
C719 C720 1.291 . S
C719 H732 0.931 . S
C720 C719 1.291 . S
C720 C721 1.373 . S
C720 H733 0.929 . S
C721 C720 1.373 . S
C721 C722 1.396 . S
C721 C728 1.403 . S
C722 C712 1.476 . S
C722 N717 1.318 . S
C722 C721 1.396 . S
H723 C718 0.929 . S
O724 Mn700 2.385 . S
O724 C702 1.234 . S
O725 Mn700 2.209 . S
O725 Mn701 2.215 . S
O725 C702 1.283 . S
O726 Mn700 2.094 . S
O726 C704 1.240 . S
O727 Mn701 2.117 . S
O727 C704 1.264 . S
C728 C721 1.403 . S
C728 C729 1.399 . S
C728 H734 0.929 . S
C729 C709 1.449 . S
C729 C728 1.399 . S
C729 H735 0.930 . S
H730 C710 0.931 . S
H731 C711 0.930 . S
H732 C719 0.931 . S
H733 C720 0.929 . S
H734 C728 0.929 . S
H735 C729 0.930 . S
H736 C742 0.930 . S
H737 C745 0.930 . S
H738 C746 0.930 . S
H739 C747 0.930 . S
H740 C750 0.930 . S
H741 C751 0.930 . S
C742 H736 0.930 . S
C742 C743 1.355 . S
C742 C744 1.415 . S
C743 C742 1.355 . S
C743 C745 1.419 . S
C744 C742 1.415 . S
C744 C749 1.425 . S
C744 C751 1.409 . S
C745 H737 0.930 . S
C745 C743 1.419 . S
C745 C746 1.362 . S
C746 H738 0.930 . S
C746 C745 1.362 . S
C746 C749 1.409 . S
C747 H739 0.930 . S
C747 C748 1.355 . S
C747 C749 1.415 . S
C748 C747 1.355 . S
C748 C750 1.419 . S
C749 C744 1.425 . S
C749 C746 1.409 . S
C749 C747 1.415 . S
C750 H740 0.930 . S
C750 C748 1.419 . S
C750 C751 1.362 . S
C751 H741 0.930 . S
C751 C744 1.409 . S
C751 C750 1.362 . S
H752 C758 0.930 . S
H753 C761 0.930 . S
H754 C762 0.930 . S
H755 C763 0.930 . S
H756 C766 0.930 . S
H757 C767 0.930 . S
C758 H752 0.930 . S
C758 C759 1.355 . S
C758 C760 1.415 . S
C759 C758 1.355 . S
C759 C761 1.419 . S
C760 C758 1.415 . S
C760 C765 1.425 . S
C760 C767 1.409 . S
C761 H753 0.930 . S
C761 C759 1.419 . S
C761 C762 1.362 . S
C762 H754 0.930 . S
C762 C761 1.362 . S
C762 C765 1.409 . S
C763 H755 0.930 . S
C763 C764 1.355 . S
C763 C765 1.415 . S
C764 C763 1.355 . S
C764 C766 1.419 . S
C765 C760 1.425 . S
C765 C762 1.409 . S
C765 C763 1.415 . S
C766 H756 0.930 . S
C766 C764 1.419 . S
C766 C767 1.362 . S
C767 H757 0.930 . S
C767 C760 1.409 . S
C767 C766 1.362 . S
H768 C774 0.930 . S
H769 C777 0.930 . S
H770 C778 0.930 . S
H771 C779 0.930 . S
H772 C782 0.930 . S
H773 C783 0.930 . S
C774 H768 0.930 . S
C774 C775 1.355 . S
C774 C776 1.415 . S
C775 C774 1.355 . S
C775 C777 1.419 . S
C776 C774 1.415 . S
C776 C781 1.425 . S
C776 C783 1.409 . S
C777 H769 0.930 . S
C777 C775 1.419 . S
C777 C778 1.362 . S
C778 H770 0.930 . S
C778 C777 1.362 . S
C778 C781 1.409 . S
C779 H771 0.930 . S
C779 C780 1.355 . S
C779 C781 1.415 . S
C780 C779 1.355 . S
C780 C782 1.419 . S
C781 C776 1.425 . S
C781 C778 1.409 . S
C781 C779 1.415 . S
C782 H772 0.930 . S
C782 C780 1.419 . S
C782 C783 1.362 . S
C783 H773 0.930 . S
C783 C776 1.409 . S
C783 C782 1.362 . S
H784 C790 0.930 . S
H785 C793 0.930 . S
H786 C794 0.930 1_655 S
H787 C795 0.930 . S
H788 C798 0.930 . S
H789 C799 0.930 . S
C790 H784 0.930 . S
C790 C791 1.355 1_545 S
C790 C792 1.415 . S
C791 C790 1.355 1_565 S
C791 C793 1.419 . S
C792 C790 1.415 . S
C792 C797 1.425 . S
C792 C799 1.409 . S
C793 H785 0.930 . S
C793 C791 1.419 . S
C793 C794 1.362 . S
C794 H786 0.930 1_455 S
C794 C793 1.362 . S
C794 C797 1.409 1_565 S
C795 H787 0.930 . S
C795 C796 1.355 1_655 S
C795 C797 1.415 1_655 S
C796 C795 1.355 1_455 S
C796 C798 1.419 . S
C797 C792 1.425 . S
C797 C794 1.409 1_545 S
C797 C795 1.415 1_455 S
C798 H788 0.930 . S
C798 C796 1.419 . S
C798 C799 1.362 . S
C799 H789 0.930 . S
C799 C792 1.409 . S
C799 C798 1.362 . S
H800 C806 0.930 . S
H801 C809 0.930 . S
H802 C810 0.930 . S
H803 C811 0.930 . S
H804 C814 0.930 . S
H805 C815 0.930 . S
C806 H800 0.930 . S
C806 C807 1.355 . S
C806 C808 1.415 . S
C807 C806 1.355 . S
C807 C809 1.419 . S
C808 C806 1.415 . S
C808 C813 1.425 . S
C808 C815 1.409 . S
C809 H801 0.930 . S
C809 C807 1.419 . S
C809 C810 1.362 . S
C810 H802 0.930 . S
C810 C809 1.362 . S
C810 C813 1.409 . S
C811 H803 0.930 . S
C811 C812 1.355 . S
C811 C813 1.415 . S
C812 C811 1.355 . S
C812 C814 1.419 . S
C813 C808 1.425 . S
C813 C810 1.409 . S
C813 C811 1.415 . S
C814 H804 0.930 . S
C814 C812 1.419 . S
C814 C815 1.362 . S
C815 H805 0.930 . S
C815 C808 1.409 . S
C815 C814 1.362 . S
H816 C822 0.930 . S
H817 C825 0.930 . S
H818 C826 0.930 . S
H819 C827 0.930 . S
H820 C830 0.930 . S
H821 C831 0.930 . S
C822 H816 0.930 . S
C822 C823 1.355 . S
C822 C824 1.415 . S
C823 C822 1.355 . S
C823 C825 1.419 . S
C824 C822 1.415 . S
C824 C829 1.425 . S
C824 C831 1.409 . S
C825 H817 0.930 . S
C825 C823 1.419 . S
C825 C826 1.362 . S
C826 H818 0.930 . S
C826 C825 1.362 . S
C826 C829 1.409 . S
C827 H819 0.930 . S
C827 C828 1.355 . S
C827 C829 1.415 . S
C828 C827 1.355 . S
C828 C830 1.419 . S
C829 C824 1.425 . S
C829 C826 1.409 . S
C829 C827 1.415 . S
C830 H820 0.930 . S
C830 C828 1.419 . S
C830 C831 1.362 . S
C831 H821 0.930 . S
C831 C824 1.409 . S
C831 C830 1.362 . S
H832 C838 0.930 . S
H833 C841 0.930 . S
H834 C842 0.930 . S
H835 C843 0.930 . S
H836 C846 0.930 . S
H837 C847 0.930 . S
C838 H832 0.930 . S
C838 C839 1.355 . S
C838 C840 1.415 . S
C839 C838 1.355 . S
C839 C841 1.419 . S
C840 C838 1.415 . S
C840 C845 1.425 . S
C840 C847 1.409 . S
C841 H833 0.930 . S
C841 C839 1.419 . S
C841 C842 1.362 . S
C842 H834 0.930 . S
C842 C841 1.362 . S
C842 C845 1.409 . S
C843 H835 0.930 . S
C843 C844 1.355 . S
C843 C845 1.415 . S
C844 C843 1.355 . S
C844 C846 1.419 . S
C845 C840 1.425 . S
C845 C842 1.409 . S
C845 C843 1.415 . S
C846 H836 0.930 . S
C846 C844 1.419 . S
C846 C847 1.362 . S
C847 H837 0.930 . S
C847 C840 1.409 . S
C847 C846 1.362 . S
H848 C854 0.930 . S
H849 C857 0.930 . S
H850 C858 0.930 . S
H851 C859 0.930 . S
H852 C862 0.930 . S
H853 C863 0.930 . S
C854 H848 0.930 . S
C854 C855 1.355 . S
C854 C856 1.415 . S
C855 C854 1.355 . S
C855 C857 1.419 1_565 S
C856 C854 1.415 . S
C856 C861 1.425 1_565 S
C856 C863 1.409 . S
C857 H849 0.930 . S
C857 C855 1.419 1_545 S
C857 C858 1.362 . S
C858 H850 0.930 . S
C858 C857 1.362 . S
C858 C861 1.409 . S
C859 H851 0.930 . S
C859 C860 1.355 . S
C859 C861 1.415 . S
C860 C859 1.355 . S
C860 C862 1.419 1_545 S
C861 C856 1.425 1_545 S
C861 C858 1.409 . S
C861 C859 1.415 . S
C862 H852 0.930 . S
C862 C860 1.419 1_565 S
C862 C863 1.362 . S
C863 H853 0.930 . S
C863 C856 1.409 . S
C863 C862 1.362 . S
H864 C870 0.930 . S
H865 C873 0.930 . S
H866 C874 0.930 . S
H867 C875 0.930 . S
H868 C878 0.930 . S
H869 C879 0.930 . S
C870 H864 0.930 . S
C870 C871 1.355 . S
C870 C872 1.415 . S
C871 C870 1.355 . S
C871 C873 1.419 . S
C872 C870 1.415 . S
C872 C877 1.425 . S
C872 C879 1.409 . S
C873 H865 0.930 . S
C873 C871 1.419 . S
C873 C874 1.362 . S
C874 H866 0.930 . S
C874 C873 1.362 . S
C874 C877 1.409 . S
C875 H867 0.930 . S
C875 C876 1.355 . S
C875 C877 1.415 . S
C876 C875 1.355 . S
C876 C878 1.419 . S
C877 C872 1.425 . S
C877 C874 1.409 . S
C877 C875 1.415 . S
C878 H868 0.930 . S
C878 C876 1.419 . S
C878 C879 1.362 . S
C879 H869 0.930 . S
C879 C872 1.409 . S
C879 C878 1.362 . S
H880 C886 0.930 . S
H881 C889 0.930 . S
H882 C890 0.930 . S
H883 C891 0.930 . S
H884 C894 0.930 . S
H885 C895 0.930 . S
C886 H880 0.930 . S
C886 C887 1.355 . S
C886 C888 1.415 . S
C887 C886 1.355 . S
C887 C889 1.419 . S
C888 C886 1.415 . S
C888 C893 1.425 . S
C888 C895 1.409 . S
C889 H881 0.930 . S
C889 C887 1.419 . S
C889 C890 1.362 . S
C890 H882 0.930 . S
C890 C889 1.362 . S
C890 C893 1.409 . S
C891 H883 0.930 . S
C891 C892 1.355 . S
C891 C893 1.415 . S
C892 C891 1.355 . S
C892 C894 1.419 . S
C893 C888 1.425 . S
C893 C890 1.409 . S
C893 C891 1.415 . S
C894 H884 0.930 . S
C894 C892 1.419 . S
C894 C895 1.362 . S
C895 H885 0.930 . S
C895 C888 1.409 . S
C895 C894 1.362 . S
H896 C902 0.930 . S
H897 C905 0.930 . S
H898 C906 0.930 . S
H899 C907 0.930 . S
H900 C910 0.930 . S
H901 C911 0.930 . S
C902 H896 0.930 . S
C902 C903 1.355 . S
C902 C904 1.415 . S
C903 C902 1.355 . S
C903 C905 1.419 . S
C904 C902 1.415 . S
C904 C909 1.425 . S
C904 C911 1.409 . S
C905 H897 0.930 . S
C905 C903 1.419 . S
C905 C906 1.362 . S
C906 H898 0.930 . S
C906 C905 1.362 . S
C906 C909 1.409 . S
C907 H899 0.930 . S
C907 C908 1.355 . S
C907 C909 1.415 . S
C908 C907 1.355 . S
C908 C910 1.419 . S
C909 C904 1.425 . S
C909 C906 1.409 . S
C909 C907 1.415 . S
C910 H900 0.930 . S
C910 C908 1.419 . S
C910 C911 1.362 . S
C911 H901 0.930 . S
C911 C904 1.409 . S
C911 C910 1.362 . S
H912 C918 0.930 . S
H913 C921 0.930 . S
H914 C922 0.930 . S
H915 C923 0.930 . S
H916 C926 0.930 . S
H917 C927 0.930 . S
C918 H912 0.930 . S
C918 C919 1.355 . S
C918 C920 1.415 . S
C919 C918 1.355 . S
C919 C921 1.419 . S
C920 C918 1.415 . S
C920 C925 1.425 . S
C920 C927 1.409 . S
C921 H913 0.930 . S
C921 C919 1.419 . S
C921 C922 1.362 . S
C922 H914 0.930 . S
C922 C921 1.362 . S
C922 C925 1.409 . S
C923 H915 0.930 . S
C923 C924 1.355 . S
C923 C925 1.415 . S
C924 C923 1.355 . S
C924 C926 1.419 . S
C925 C920 1.425 . S
C925 C922 1.409 . S
C925 C923 1.415 . S
C926 H916 0.930 . S
C926 C924 1.419 . S
C926 C927 1.362 . S
C927 H917 0.930 . S
C927 C920 1.409 . S
C927 C926 1.362 . S
H928 C934 0.930 . S
H929 C937 0.930 . S
H930 C938 0.930 . S
H931 C939 0.930 . S
H932 C942 0.930 . S
H933 C943 0.930 . S
C934 H928 0.930 . S
C934 C935 1.355 . S
C934 C936 1.415 . S
C935 C934 1.355 . S
C935 C937 1.419 . S
C936 C934 1.415 . S
C936 C941 1.425 . S
C936 C943 1.409 . S
C937 H929 0.930 . S
C937 C935 1.419 . S
C937 C938 1.362 . S
C938 H930 0.930 . S
C938 C937 1.362 . S
C938 C941 1.409 . S
C939 H931 0.930 . S
C939 C940 1.355 . S
C939 C941 1.415 . S
C940 C939 1.355 . S
C940 C942 1.419 . S
C941 C936 1.425 . S
C941 C938 1.409 . S
C941 C939 1.415 . S
C942 H932 0.930 . S
C942 C940 1.419 . S
C942 C943 1.362 . S
C943 H933 0.930 . S
C943 C936 1.409 . S
C943 C942 1.362 . S
H944 C950 0.930 . S
H945 C953 0.930 . S
H946 C954 0.930 . S
H947 C955 0.930 . S
H948 C958 0.930 1_655 S
H949 C959 0.930 . S
C950 H944 0.930 . S
C950 C951 1.355 . S
C950 C952 1.415 . S
C951 C950 1.355 . S
C951 C953 1.419 . S
C952 C950 1.415 . S
C952 C957 1.425 . S
C952 C959 1.409 . S
C953 H945 0.930 . S
C953 C951 1.419 . S
C953 C954 1.362 . S
C954 H946 0.930 . S
C954 C953 1.362 . S
C954 C957 1.409 . S
C955 H947 0.930 . S
C955 C956 1.355 . S
C955 C957 1.415 . S
C956 C955 1.355 . S
C956 C958 1.419 . S
C957 C952 1.425 . S
C957 C954 1.409 . S
C957 C955 1.415 . S
C958 H948 0.930 1_455 S
C958 C956 1.419 . S
C958 C959 1.362 . S
C959 H949 0.930 . S
C959 C952 1.409 . S
C959 C958 1.362 . S
H960 C966 0.930 . S
H961 C969 0.930 . S
H962 C970 0.930 . S
H963 C971 0.930 . S
H964 C974 0.930 . S
H965 C975 0.930 . S
C966 H960 0.930 . S
C966 C967 1.355 . S
C966 C968 1.415 . S
C967 C966 1.355 . S
C967 C969 1.419 . S
C968 C966 1.415 . S
C968 C973 1.425 . S
C968 C975 1.409 . S
C969 H961 0.930 . S
C969 C967 1.419 . S
C969 C970 1.362 . S
C970 H962 0.930 . S
C970 C969 1.362 . S
C970 C973 1.409 . S
C971 H963 0.930 . S
C971 C972 1.355 . S
C971 C973 1.415 . S
C972 C971 1.355 . S
C972 C974 1.419 . S
C973 C968 1.425 . S
C973 C970 1.409 . S
C973 C971 1.415 . S
C974 H964 0.930 . S
C974 C972 1.419 . S
C974 C975 1.362 . S
C975 H965 0.930 . S
C975 C968 1.409 . S
C975 C974 1.362 . S
H976 C982 0.930 . S
H977 C985 0.930 . S
H978 C986 0.930 . S
H979 C987 0.930 . S
H980 C990 0.930 . S
H981 C991 0.930 . S
C982 H976 0.930 . S
C982 C983 1.355 . S
C982 C984 1.415 . S
C983 C982 1.355 . S
C983 C985 1.419 1_655 S
C984 C982 1.415 . S
C984 C989 1.425 1_655 S
C984 C991 1.409 . S
C985 H977 0.930 . S
C985 C983 1.419 1_455 S
C985 C986 1.362 . S
C986 H978 0.930 . S
C986 C985 1.362 . S
C986 C989 1.409 . S
C987 H979 0.930 . S
C987 C988 1.355 1_455 S
C987 C989 1.415 . S
C988 C987 1.355 1_655 S
C988 C990 1.419 . S
C989 C984 1.425 1_455 S
C989 C986 1.409 . S
C989 C987 1.415 . S
C990 H980 0.930 . S
C990 C988 1.419 . S
C990 C991 1.362 . S
C991 H981 0.930 . S
C991 C984 1.409 . S
C991 C990 1.362 . S
H992 C998 0.930 . S
H993 C1001 0.930 . S
H994 C1002 0.930 . S
H995 C1003 0.930 . S
H996 C1006 0.930 . S
H997 C1007 0.930 . S
C998 H992 0.930 . S
C998 C999 1.355 . S
C998 C1000 1.415 . S
C999 C998 1.355 . S
C999 C1001 1.419 . S
C1000 C998 1.415 . S
C1000 C1005 1.425 . S
C1000 C1007 1.409 . S
C1001 H993 0.930 . S
C1001 C999 1.419 . S
C1001 C1002 1.362 . S
C1002 H994 0.930 . S
C1002 C1001 1.362 . S
C1002 C1005 1.409 . S
C1003 H995 0.930 . S
C1003 C1004 1.355 . S
C1003 C1005 1.415 . S
C1004 C1003 1.355 . S
C1004 C1006 1.419 . S
C1005 C1000 1.425 . S
C1005 C1002 1.409 . S
C1005 C1003 1.415 . S
C1006 H996 0.930 . S
C1006 C1004 1.419 . S
C1006 C1007 1.362 . S
C1007 H997 0.930 . S
C1007 C1000 1.409 . S
C1007 C1006 1.362 . S
H1008 C1014 0.930 . S
H1009 C1017 0.930 . S
H1010 C1018 0.930 . S
H1011 C1019 0.930 . S
H1012 C1022 0.930 . S
H1013 C1023 0.930 . S
C1014 H1008 0.930 . S
C1014 C1015 1.355 . S
C1014 C1016 1.415 . S
C1015 C1014 1.355 . S
C1015 C1017 1.419 . S
C1016 C1014 1.415 . S
C1016 C1021 1.425 . S
C1016 C1023 1.409 . S
C1017 H1009 0.930 . S
C1017 C1015 1.419 . S
C1017 C1018 1.362 . S
C1018 H1010 0.930 . S
C1018 C1017 1.362 . S
C1018 C1021 1.409 . S
C1019 H1011 0.930 . S
C1019 C1020 1.355 . S
C1019 C1021 1.415 . S
C1020 C1019 1.355 . S
C1020 C1022 1.419 . S
C1021 C1016 1.425 . S
C1021 C1018 1.409 . S
C1021 C1019 1.415 . S
C1022 H1012 0.930 . S
C1022 C1020 1.419 . S
C1022 C1023 1.362 . S
C1023 H1013 0.930 . S
C1023 C1016 1.409 . S
C1023 C1022 1.362 . S
H1024 C1030 0.930 . S
H1025 C1033 0.930 . S
H1026 C1034 0.930 . S
H1027 C1035 0.930 . S
H1028 C1038 0.930 . S
H1029 C1039 0.930 . S
C1030 H1024 0.930 . S
C1030 C1031 1.355 1_565 S
C1030 C1032 1.415 . S
C1031 C1030 1.355 1_545 S
C1031 C1033 1.419 1_556 S
C1032 C1030 1.415 . S
C1032 C1037 1.425 1_556 S
C1032 C1039 1.409 . S
C1033 H1025 0.930 . S
C1033 C1031 1.419 1_554 S
C1033 C1034 1.362 1_545 S
C1034 H1026 0.930 . S
C1034 C1033 1.362 1_565 S
C1034 C1037 1.409 . S
C1035 H1027 0.930 . S
C1035 C1036 1.355 . S
C1035 C1037 1.415 . S
C1036 C1035 1.355 . S
C1036 C1038 1.419 1_554 S
C1037 C1032 1.425 1_554 S
C1037 C1034 1.409 . S
C1037 C1035 1.415 . S
C1038 H1028 0.930 . S
C1038 C1036 1.419 1_556 S
C1038 C1039 1.362 . S
C1039 H1029 0.930 . S
C1039 C1032 1.409 . S
C1039 C1038 1.362 . S
H1040 C1046 0.930 . S
H1041 C1049 0.930 . S
H1042 C1050 0.930 . S
H1043 C1051 0.930 . S
H1044 C1054 0.930 . S
H1045 C1055 0.930 . S
C1046 H1040 0.930 . S
C1046 C1047 1.355 . S
C1046 C1048 1.415 . S
C1047 C1046 1.355 . S
C1047 C1049 1.419 . S
C1048 C1046 1.415 . S
C1048 C1053 1.425 . S
C1048 C1055 1.409 . S
C1049 H1041 0.930 . S
C1049 C1047 1.419 . S
C1049 C1050 1.362 . S
C1050 H1042 0.930 . S
C1050 C1049 1.362 . S
C1050 C1053 1.409 . S
C1051 H1043 0.930 . S
C1051 C1052 1.355 . S
C1051 C1053 1.415 . S
C1052 C1051 1.355 . S
C1052 C1054 1.419 . S
C1053 C1048 1.425 . S
C1053 C1050 1.409 . S
C1053 C1051 1.415 . S
C1054 H1044 0.930 . S
C1054 C1052 1.419 . S
C1054 C1055 1.362 . S
C1055 H1045 0.930 . S
C1055 C1048 1.409 . S
C1055 C1054 1.362 . S
H1056 C1062 0.930 . S
H1057 C1065 0.930 1_565 S
H1058 C1066 0.930 . S
H1059 C1067 0.930 . S
H1060 C1070 0.930 . S
H1061 C1071 0.930 . S
C1062 H1056 0.930 . S
C1062 C1063 1.355 . S
C1062 C1064 1.415 . S
C1063 C1062 1.355 . S
C1063 C1065 1.419 . S
C1064 C1062 1.415 . S
C1064 C1069 1.425 . S
C1064 C1071 1.409 . S
C1065 H1057 0.930 1_545 S
C1065 C1063 1.419 . S
C1065 C1066 1.362 . S
C1066 H1058 0.930 . S
C1066 C1065 1.362 . S
C1066 C1069 1.409 . S
C1067 H1059 0.930 . S
C1067 C1068 1.355 . S
C1067 C1069 1.415 . S
C1068 C1067 1.355 . S
C1068 C1070 1.419 . S
C1069 C1064 1.425 . S
C1069 C1066 1.409 . S
C1069 C1067 1.415 . S
C1070 H1060 0.930 . S
C1070 C1068 1.419 . S
C1070 C1071 1.362 . S
C1071 H1061 0.930 . S
C1071 C1064 1.409 . S
C1071 C1070 1.362 . S
H1072 C1078 0.930 . S
H1073 C1081 0.930 . S
H1074 C1082 0.930 . S
H1075 C1083 0.930 . S
H1076 C1086 0.930 . S
H1077 C1087 0.930 . S
C1078 H1072 0.930 . S
C1078 C1079 1.355 . S
C1078 C1080 1.415 . S
C1079 C1078 1.355 . S
C1079 C1081 1.419 . S
C1080 C1078 1.415 . S
C1080 C1085 1.425 . S
C1080 C1087 1.409 . S
C1081 H1073 0.930 . S
C1081 C1079 1.419 . S
C1081 C1082 1.362 . S
C1082 H1074 0.930 . S
C1082 C1081 1.362 . S
C1082 C1085 1.409 . S
C1083 H1075 0.930 . S
C1083 C1084 1.355 . S
C1083 C1085 1.415 . S
C1084 C1083 1.355 . S
C1084 C1086 1.419 . S
C1085 C1080 1.425 . S
C1085 C1082 1.409 . S
C1085 C1083 1.415 . S
C1086 H1076 0.930 . S
C1086 C1084 1.419 . S
C1086 C1087 1.362 . S
C1087 H1077 0.930 . S
C1087 C1080 1.409 . S
C1087 C1086 1.362 . S
H1088 C1094 0.930 . S
H1089 C1097 0.930 1_565 S
H1090 C1098 0.930 . S
H1091 C1099 0.930 . S
H1092 C1102 0.930 . S
H1093 C1103 0.930 . S
C1094 H1088 0.930 . S
C1094 C1095 1.355 . S
C1094 C1096 1.415 . S
C1095 C1094 1.355 . S
C1095 C1097 1.419 . S
C1096 C1094 1.415 . S
C1096 C1101 1.425 . S
C1096 C1103 1.409 . S
C1097 H1089 0.930 1_545 S
C1097 C1095 1.419 . S
C1097 C1098 1.362 . S
C1098 H1090 0.930 . S
C1098 C1097 1.362 . S
C1098 C1101 1.409 . S
C1099 H1091 0.930 . S
C1099 C1100 1.355 . S
C1099 C1101 1.415 . S
C1100 C1099 1.355 . S
C1100 C1102 1.419 . S
C1101 C1096 1.425 . S
C1101 C1098 1.409 . S
C1101 C1099 1.415 . S
C1102 H1092 0.930 . S
C1102 C1100 1.419 . S
C1102 C1103 1.362 . S
C1103 H1093 0.930 . S
C1103 C1096 1.409 . S
C1103 C1102 1.362 . S
H1104 C1110 0.930 . S
H1105 C1113 0.930 . S
H1106 C1114 0.930 . S
H1107 C1115 0.930 . S
H1108 C1118 0.930 . S
H1109 C1119 0.930 . S
C1110 H1104 0.930 . S
C1110 C1111 1.355 . S
C1110 C1112 1.415 . S
C1111 C1110 1.355 . S
C1111 C1113 1.419 . S
C1112 C1110 1.415 . S
C1112 C1117 1.425 . S
C1112 C1119 1.409 . S
C1113 H1105 0.930 . S
C1113 C1111 1.419 . S
C1113 C1114 1.362 . S
C1114 H1106 0.930 . S
C1114 C1113 1.362 . S
C1114 C1117 1.409 . S
C1115 H1107 0.930 . S
C1115 C1116 1.355 . S
C1115 C1117 1.415 . S
C1116 C1115 1.355 . S
C1116 C1118 1.419 . S
C1117 C1112 1.425 . S
C1117 C1114 1.409 . S
C1117 C1115 1.415 . S
C1118 H1108 0.930 . S
C1118 C1116 1.419 . S
C1118 C1119 1.362 . S
C1119 H1109 0.930 . S
C1119 C1112 1.409 . S
C1119 C1118 1.362 . S
H1120 C1126 0.930 . S
H1121 C1129 0.930 . S
H1122 C1130 0.930 . S
H1123 C1131 0.930 . S
H1124 C1134 0.930 . S
H1125 C1135 0.930 . S
C1126 H1120 0.930 . S
C1126 C1127 1.355 . S
C1126 C1128 1.415 . S
C1127 C1126 1.355 . S
C1127 C1129 1.419 . S
C1128 C1126 1.415 . S
C1128 C1133 1.425 . S
C1128 C1135 1.409 . S
C1129 H1121 0.930 . S
C1129 C1127 1.419 . S
C1129 C1130 1.362 . S
C1130 H1122 0.930 . S
C1130 C1129 1.362 . S
C1130 C1133 1.409 . S
C1131 H1123 0.930 . S
C1131 C1132 1.355 . S
C1131 C1133 1.415 . S
C1132 C1131 1.355 . S
C1132 C1134 1.419 . S
C1133 C1128 1.425 . S
C1133 C1130 1.409 . S
C1133 C1131 1.415 . S
C1134 H1124 0.930 . S
C1134 C1132 1.419 . S
C1134 C1135 1.362 . S
C1135 H1125 0.930 . S
C1135 C1128 1.409 . S
C1135 C1134 1.362 . S
H1136 C1142 0.930 . S
H1137 C1145 0.930 . S
H1138 C1146 0.930 . S
H1139 C1147 0.930 . S
H1140 C1150 0.930 . S
H1141 C1151 0.930 . S
C1142 H1136 0.930 . S
C1142 C1143 1.355 . S
C1142 C1144 1.415 . S
C1143 C1142 1.355 . S
C1143 C1145 1.419 . S
C1144 C1142 1.415 . S
C1144 C1149 1.425 . S
C1144 C1151 1.409 . S
C1145 H1137 0.930 . S
C1145 C1143 1.419 . S
C1145 C1146 1.362 . S
C1146 H1138 0.930 . S
C1146 C1145 1.362 . S
C1146 C1149 1.409 . S
C1147 H1139 0.930 . S
C1147 C1148 1.355 . S
C1147 C1149 1.415 . S
C1148 C1147 1.355 . S
C1148 C1150 1.419 . S
C1149 C1144 1.425 . S
C1149 C1146 1.409 . S
C1149 C1147 1.415 . S
C1150 H1140 0.930 . S
C1150 C1148 1.419 . S
C1150 C1151 1.362 . S
C1151 H1141 0.930 . S
C1151 C1144 1.409 . S
C1151 C1150 1.362 . S
H1152 C1158 0.930 . S
H1153 C1161 0.930 . S
H1154 C1162 0.930 . S
H1155 C1163 0.930 . S
H1156 C1166 0.930 . S
H1157 C1167 0.930 . S
C1158 H1152 0.930 . S
C1158 C1159 1.355 . S
C1158 C1160 1.415 . S
C1159 C1158 1.355 . S
C1159 C1161 1.419 . S
C1160 C1158 1.415 . S
C1160 C1165 1.425 . S
C1160 C1167 1.409 . S
C1161 H1153 0.930 . S
C1161 C1159 1.419 . S
C1161 C1162 1.362 . S
C1162 H1154 0.930 . S
C1162 C1161 1.362 . S
C1162 C1165 1.409 . S
C1163 H1155 0.930 . S
C1163 C1164 1.355 . S
C1163 C1165 1.415 . S
C1164 C1163 1.355 . S
C1164 C1166 1.419 . S
C1165 C1160 1.425 . S
C1165 C1162 1.409 . S
C1165 C1163 1.415 . S
C1166 H1156 0.930 . S
C1166 C1164 1.419 . S
C1166 C1167 1.362 . S
C1167 H1157 0.930 . S
C1167 C1160 1.409 . S
C1167 C1166 1.362 . S
H1168 C1174 0.930 . S
H1169 C1177 0.930 . S
H1170 C1178 0.930 . S
H1171 C1179 0.930 . S
H1172 C1182 0.930 . S
H1173 C1183 0.930 . S
C1174 H1168 0.930 . S
C1174 C1175 1.355 . S
C1174 C1176 1.415 . S
C1175 C1174 1.355 . S
C1175 C1177 1.419 . S
C1176 C1174 1.415 . S
C1176 C1181 1.425 . S
C1176 C1183 1.409 . S
C1177 H1169 0.930 . S
C1177 C1175 1.419 . S
C1177 C1178 1.362 . S
C1178 H1170 0.930 . S
C1178 C1177 1.362 . S
C1178 C1181 1.409 . S
C1179 H1171 0.930 . S
C1179 C1180 1.355 . S
C1179 C1181 1.415 . S
C1180 C1179 1.355 . S
C1180 C1182 1.419 . S
C1181 C1176 1.425 . S
C1181 C1178 1.409 . S
C1181 C1179 1.415 . S
C1182 H1172 0.930 . S
C1182 C1180 1.419 . S
C1182 C1183 1.362 . S
C1183 H1173 0.930 . S
C1183 C1176 1.409 . S
C1183 C1182 1.362 . S
H1184 C1190 0.930 . S
H1185 C1193 0.930 . S
H1186 C1194 0.930 . S
H1187 C1195 0.930 . S
H1188 C1198 0.930 . S
H1189 C1199 0.930 . S
C1190 H1184 0.930 . S
C1190 C1191 1.355 . S
C1190 C1192 1.415 . S
C1191 C1190 1.355 . S
C1191 C1193 1.419 . S
C1192 C1190 1.415 . S
C1192 C1197 1.425 . S
C1192 C1199 1.409 . S
C1193 H1185 0.930 . S
C1193 C1191 1.419 . S
C1193 C1194 1.362 . S
C1194 H1186 0.930 . S
C1194 C1193 1.362 . S
C1194 C1197 1.409 . S
C1195 H1187 0.930 . S
C1195 C1196 1.355 . S
C1195 C1197 1.415 . S
C1196 C1195 1.355 . S
C1196 C1198 1.419 . S
C1197 C1192 1.425 . S
C1197 C1194 1.409 . S
C1197 C1195 1.415 . S
C1198 H1188 0.930 . S
C1198 C1196 1.419 . S
C1198 C1199 1.362 . S
C1199 H1189 0.930 . S
C1199 C1192 1.409 . S
C1199 C1198 1.362 . S
H1200 C1206 0.950 . S
H1201 C1209 0.930 . S
H1202 C1210 0.930 . S
H1203 C1211 0.930 . S
H1204 C1214 0.930 . S
H1205 C1215 0.930 . S
C1206 H1200 0.950 . S
C1206 C1207 1.338 1_565 S
C1206 C1208 1.412 1_565 S
C1207 C1206 1.338 1_545 S
C1207 C1209 1.419 . S
C1208 C1206 1.412 1_545 S
C1208 C1213 1.425 . S
C1208 C1215 1.409 1_445 S
C1209 H1201 0.930 . S
C1209 C1207 1.419 . S
C1209 C1210 1.362 . S
C1210 H1202 0.930 . S
C1210 C1209 1.362 . S
C1210 C1213 1.409 . S
C1211 H1203 0.930 . S
C1211 C1212 1.355 1_455 S
C1211 C1213 1.415 . S
C1212 C1211 1.355 1_655 S
C1212 C1214 1.419 1_545 S
C1213 C1208 1.425 . S
C1213 C1210 1.409 . S
C1213 C1211 1.415 . S
C1214 H1204 0.930 . S
C1214 C1212 1.419 1_565 S
C1214 C1215 1.362 . S
C1215 H1205 0.930 . S
C1215 C1208 1.409 1_665 S
C1215 C1214 1.362 . S
H1216 C1222 0.930 . S
H1217 C1225 0.930 . S
H1218 C1226 0.930 . S
H1219 C1227 0.930 . S
H1220 C1230 0.930 . S
H1221 C1231 0.930 . S
C1222 H1216 0.930 . S
C1222 C1223 1.355 . S
C1222 C1224 1.415 . S
C1223 C1222 1.355 . S
C1223 C1225 1.419 . S
C1224 C1222 1.415 . S
C1224 C1229 1.425 . S
C1224 C1231 1.409 . S
C1225 H1217 0.930 . S
C1225 C1223 1.419 . S
C1225 C1226 1.362 . S
C1226 H1218 0.930 . S
C1226 C1225 1.362 . S
C1226 C1229 1.409 . S
C1227 H1219 0.930 . S
C1227 C1228 1.355 . S
C1227 C1229 1.415 . S
C1228 C1227 1.355 . S
C1228 C1230 1.419 . S
C1229 C1224 1.425 . S
C1229 C1226 1.409 . S
C1229 C1227 1.415 . S
C1230 H1220 0.930 . S
C1230 C1228 1.419 . S
C1230 C1231 1.362 . S
C1231 H1221 0.930 . S
C1231 C1224 1.409 . S
C1231 C1230 1.362 . S
H1232 C1238 0.930 . S
H1233 C1241 0.930 . S
H1234 C1242 0.930 . S
H1235 C1243 0.930 . S
H1236 C1246 0.930 . S
H1237 C1247 0.930 . S
C1238 H1232 0.930 . S
C1238 C1239 1.355 . S
C1238 C1240 1.415 . S
C1239 C1238 1.355 . S
C1239 C1241 1.419 . S
C1240 C1238 1.415 . S
C1240 C1245 1.425 . S
C1240 C1247 1.409 . S
C1241 H1233 0.930 . S
C1241 C1239 1.419 . S
C1241 C1242 1.362 . S
C1242 H1234 0.930 . S
C1242 C1241 1.362 . S
C1242 C1245 1.409 . S
C1243 H1235 0.930 . S
C1243 C1244 1.355 . S
C1243 C1245 1.415 . S
C1244 C1243 1.355 . S
C1244 C1246 1.419 . S
C1245 C1240 1.425 . S
C1245 C1242 1.409 . S
C1245 C1243 1.415 . S
C1246 H1236 0.930 . S
C1246 C1244 1.419 . S
C1246 C1247 1.362 . S
C1247 H1237 0.930 . S
C1247 C1240 1.409 . S
C1247 C1246 1.362 . S
H1248 C1254 0.930 . S
H1249 C1257 0.930 . S
H1250 C1258 0.930 . S
H1251 C1259 0.930 . S
H1252 C1262 0.930 . S
H1253 C1263 0.930 . S
C1254 H1248 0.930 . S
C1254 C1255 1.355 . S
C1254 C1256 1.415 . S
C1255 C1254 1.355 . S
C1255 C1257 1.419 . S
C1256 C1254 1.415 . S
C1256 C1261 1.425 . S
C1256 C1263 1.409 . S
C1257 H1249 0.930 . S
C1257 C1255 1.419 . S
C1257 C1258 1.362 . S
C1258 H1250 0.930 . S
C1258 C1257 1.362 . S
C1258 C1261 1.409 . S
C1259 H1251 0.930 . S
C1259 C1260 1.355 . S
C1259 C1261 1.415 . S
C1260 C1259 1.355 . S
C1260 C1262 1.419 . S
C1261 C1256 1.425 . S
C1261 C1258 1.409 . S
C1261 C1259 1.415 . S
C1262 H1252 0.930 . S
C1262 C1260 1.419 . S
C1262 C1263 1.362 . S
C1263 H1253 0.930 . S
C1263 C1256 1.409 . S
C1263 C1262 1.362 . S
H1264 C1270 0.930 . S
H1265 C1273 0.930 . S
H1266 C1274 0.930 . S
H1267 C1275 0.930 . S
H1268 C1278 0.930 . S
H1269 C1279 0.930 . S
C1270 H1264 0.930 . S
C1270 C1271 1.355 1_655 S
C1270 C1272 1.415 1_655 S
C1271 C1270 1.355 1_455 S
C1271 C1273 1.419 . S
C1272 C1270 1.415 1_455 S
C1272 C1277 1.425 . S
C1272 C1279 1.409 1_455 S
C1273 H1265 0.930 . S
C1273 C1271 1.419 . S
C1273 C1274 1.362 . S
C1274 H1266 0.930 . S
C1274 C1273 1.362 . S
C1274 C1277 1.409 . S
C1275 H1267 0.930 . S
C1275 C1276 1.355 . S
C1275 C1277 1.415 . S
C1276 C1275 1.355 . S
C1276 C1278 1.419 1_455 S
C1277 C1272 1.425 . S
C1277 C1274 1.409 . S
C1277 C1275 1.415 . S
C1278 H1268 0.930 . S
C1278 C1276 1.419 1_655 S
C1278 C1279 1.362 . S
C1279 H1269 0.930 . S
C1279 C1272 1.409 1_655 S
C1279 C1278 1.362 . S
H1280 C1286 0.930 . S
H1281 C1289 0.930 . S
H1282 C1290 0.930 . S
H1283 C1291 0.930 . S
H1284 C1294 0.930 . S
H1285 C1295 0.930 . S
C1286 H1280 0.930 . S
C1286 C1287 1.355 . S
C1286 C1288 1.415 . S
C1287 C1286 1.355 . S
C1287 C1289 1.419 . S
C1288 C1286 1.415 . S
C1288 C1293 1.425 . S
C1288 C1295 1.409 . S
C1289 H1281 0.930 . S
C1289 C1287 1.419 . S
C1289 C1290 1.362 . S
C1290 H1282 0.930 . S
C1290 C1289 1.362 . S
C1290 C1293 1.409 . S
C1291 H1283 0.930 . S
C1291 C1292 1.355 . S
C1291 C1293 1.415 . S
C1292 C1291 1.355 . S
C1292 C1294 1.419 . S
C1293 C1288 1.425 . S
C1293 C1290 1.409 . S
C1293 C1291 1.415 . S
C1294 H1284 0.930 . S
C1294 C1292 1.419 . S
C1294 C1295 1.362 . S
C1295 H1285 0.930 . S
C1295 C1288 1.409 . S
C1295 C1294 1.362 . S
H1296 C1302 0.930 . S
H1297 C1305 0.930 . S
H1298 C1306 0.930 . S
H1299 C1307 0.930 . S
H1300 C1310 0.930 . S
H1301 C1311 0.930 . S
C1302 H1296 0.930 . S
C1302 C1303 1.355 . S
C1302 C1304 1.415 . S
C1303 C1302 1.355 . S
C1303 C1305 1.419 . S
C1304 C1302 1.415 . S
C1304 C1309 1.425 . S
C1304 C1311 1.409 . S
C1305 H1297 0.930 . S
C1305 C1303 1.419 . S
C1305 C1306 1.362 . S
C1306 H1298 0.930 . S
C1306 C1305 1.362 . S
C1306 C1309 1.409 . S
C1307 H1299 0.930 . S
C1307 C1308 1.355 . S
C1307 C1309 1.415 . S
C1308 C1307 1.355 . S
C1308 C1310 1.419 . S
C1309 C1304 1.425 . S
C1309 C1306 1.409 . S
C1309 C1307 1.415 . S
C1310 H1300 0.930 . S
C1310 C1308 1.419 . S
C1310 C1311 1.362 . S
C1311 H1301 0.930 . S
C1311 C1304 1.409 . S
C1311 C1310 1.362 . S
H1312 C1318 0.930 . S
H1313 C1321 0.930 . S
H1314 C1322 0.930 . S
H1315 C1323 0.930 . S
H1316 C1326 0.930 . S
H1317 C1327 0.930 . S
C1318 H1312 0.930 . S
C1318 C1319 1.355 . S
C1318 C1320 1.415 . S
C1319 C1318 1.355 . S
C1319 C1321 1.419 . S
C1320 C1318 1.415 . S
C1320 C1325 1.425 . S
C1320 C1327 1.409 . S
C1321 H1313 0.930 . S
C1321 C1319 1.419 . S
C1321 C1322 1.362 . S
C1322 H1314 0.930 . S
C1322 C1321 1.362 . S
C1322 C1325 1.409 . S
C1323 H1315 0.930 . S
C1323 C1324 1.355 . S
C1323 C1325 1.415 . S
C1324 C1323 1.355 . S
C1324 C1326 1.419 . S
C1325 C1320 1.425 . S
C1325 C1322 1.409 . S
C1325 C1323 1.415 . S
C1326 H1316 0.930 . S
C1326 C1324 1.419 . S
C1326 C1327 1.362 . S
C1327 H1317 0.930 . S
C1327 C1320 1.409 . S
C1327 C1326 1.362 . S
H1328 C1334 0.930 . S
H1329 C1337 0.930 . S
H1330 C1338 0.930 . S
H1331 C1339 0.930 . S
H1332 C1342 0.930 . S
H1333 C1343 0.930 . S
C1334 H1328 0.930 . S
C1334 C1335 1.355 . S
C1334 C1336 1.415 . S
C1335 C1334 1.355 . S
C1335 C1337 1.419 . S
C1336 C1334 1.415 . S
C1336 C1341 1.425 . S
C1336 C1343 1.409 . S
C1337 H1329 0.930 . S
C1337 C1335 1.419 . S
C1337 C1338 1.362 . S
C1338 H1330 0.930 . S
C1338 C1337 1.362 . S
C1338 C1341 1.409 . S
C1339 H1331 0.930 . S
C1339 C1340 1.355 . S
C1339 C1341 1.415 . S
C1340 C1339 1.355 . S
C1340 C1342 1.419 . S
C1341 C1336 1.425 . S
C1341 C1338 1.409 . S
C1341 C1339 1.415 . S
C1342 H1332 0.930 . S
C1342 C1340 1.419 . S
C1342 C1343 1.362 . S
C1343 H1333 0.930 . S
C1343 C1336 1.409 . S
C1343 C1342 1.362 . S
H1344 C1350 0.930 . S
H1345 C1353 0.930 . S
H1346 C1354 0.930 . S
H1347 C1355 0.930 . S
H1348 C1358 0.930 . S
H1349 C1359 0.930 . S
C1350 H1344 0.930 . S
C1350 C1351 1.355 . S
C1350 C1352 1.415 . S
C1351 C1350 1.355 . S
C1351 C1353 1.419 . S
C1352 C1350 1.415 . S
C1352 C1357 1.425 . S
C1352 C1359 1.409 . S
C1353 H1345 0.930 . S
C1353 C1351 1.419 . S
C1353 C1354 1.362 . S
C1354 H1346 0.930 . S
C1354 C1353 1.362 . S
C1354 C1357 1.409 . S
C1355 H1347 0.930 . S
C1355 C1356 1.355 . S
C1355 C1357 1.415 . S
C1356 C1355 1.355 . S
C1356 C1358 1.419 . S
C1357 C1352 1.425 . S
C1357 C1354 1.409 . S
C1357 C1355 1.415 . S
C1358 H1348 0.930 . S
C1358 C1356 1.419 . S
C1358 C1359 1.362 . S
C1359 H1349 0.930 . S
C1359 C1352 1.409 . S
C1359 C1358 1.362 . S
H1360 C1366 0.930 . S
H1361 C1369 0.930 1_556 S
H1362 C1370 0.930 . S
H1363 C1371 0.930 . S
H1364 C1374 0.930 . S
H1365 C1375 0.930 . S
C1366 H1360 0.930 . S
C1366 C1367 1.355 . S
C1366 C1368 1.415 . S
C1367 C1366 1.355 . S
C1367 C1369 1.419 . S
C1368 C1366 1.415 . S
C1368 C1373 1.425 . S
C1368 C1375 1.409 . S
C1369 H1361 0.930 1_554 S
C1369 C1367 1.419 . S
C1369 C1370 1.362 . S
C1370 H1362 0.930 . S
C1370 C1369 1.362 . S
C1370 C1373 1.409 . S
C1371 H1363 0.930 . S
C1371 C1372 1.355 . S
C1371 C1373 1.415 . S
C1372 C1371 1.355 . S
C1372 C1374 1.419 . S
C1373 C1368 1.425 . S
C1373 C1370 1.409 . S
C1373 C1371 1.415 . S
C1374 H1364 0.930 . S
C1374 C1372 1.419 . S
C1374 C1375 1.362 . S
C1375 H1365 0.930 . S
C1375 C1368 1.409 . S
C1375 C1374 1.362 . S
H1376 C1382 0.930 . S
H1377 C1385 0.930 . S
H1378 C1386 0.930 . S
H1379 C1387 0.930 . S
H1380 C1390 0.930 . S
H1381 C1391 0.930 . S
C1382 H1376 0.930 . S
C1382 C1383 1.355 . S
C1382 C1384 1.415 . S
C1383 C1382 1.355 . S
C1383 C1385 1.419 . S
C1384 C1382 1.415 . S
C1384 C1389 1.425 . S
C1384 C1391 1.409 . S
C1385 H1377 0.930 . S
C1385 C1383 1.419 . S
C1385 C1386 1.362 . S
C1386 H1378 0.930 . S
C1386 C1385 1.362 . S
C1386 C1389 1.409 . S
C1387 H1379 0.930 . S
C1387 C1388 1.355 . S
C1387 C1389 1.415 . S
C1388 C1387 1.355 . S
C1388 C1390 1.419 . S
C1389 C1384 1.425 . S
C1389 C1386 1.409 . S
C1389 C1387 1.415 . S
C1390 H1380 0.930 . S
C1390 C1388 1.419 . S
C1390 C1391 1.362 . S
C1391 H1381 0.930 . S
C1391 C1384 1.409 . S
C1391 C1390 1.362 . S
H1392 C1398 0.930 . S
H1393 C1401 0.930 . S
H1394 C1402 0.930 . S
H1395 C1403 0.930 . S
H1396 C1406 0.930 . S
H1397 C1407 0.930 . S
C1398 H1392 0.930 . S
C1398 C1399 1.355 . S
C1398 C1400 1.415 . S
C1399 C1398 1.355 . S
C1399 C1401 1.419 . S
C1400 C1398 1.415 . S
C1400 C1405 1.425 . S
C1400 C1407 1.409 . S
C1401 H1393 0.930 . S
C1401 C1399 1.419 . S
C1401 C1402 1.362 . S
C1402 H1394 0.930 . S
C1402 C1401 1.362 . S
C1402 C1405 1.409 . S
C1403 H1395 0.930 . S
C1403 C1404 1.355 . S
C1403 C1405 1.415 . S
C1404 C1403 1.355 . S
C1404 C1406 1.419 . S
C1405 C1400 1.425 . S
C1405 C1402 1.409 . S
C1405 C1403 1.415 . S
C1406 H1396 0.930 . S
C1406 C1404 1.419 . S
C1406 C1407 1.362 . S
C1407 H1397 0.930 . S
C1407 C1400 1.409 . S
C1407 C1406 1.362 . S
H1408 C1414 0.930 . S
H1409 C1417 0.930 . S
H1410 C1418 0.930 . S
H1411 C1419 0.930 . S
H1412 C1422 0.930 . S
H1413 C1423 0.930 . S
C1414 H1408 0.930 . S
C1414 C1415 1.355 . S
C1414 C1416 1.415 . S
C1415 C1414 1.355 . S
C1415 C1417 1.419 . S
C1416 C1414 1.415 . S
C1416 C1421 1.425 . S
C1416 C1423 1.409 . S
C1417 H1409 0.930 . S
C1417 C1415 1.419 . S
C1417 C1418 1.362 . S
C1418 H1410 0.930 . S
C1418 C1417 1.362 . S
C1418 C1421 1.409 . S
C1419 H1411 0.930 . S
C1419 C1420 1.355 . S
C1419 C1421 1.415 . S
C1420 C1419 1.355 . S
C1420 C1422 1.419 . S
C1421 C1416 1.425 . S
C1421 C1418 1.409 . S
C1421 C1419 1.415 . S
C1422 H1412 0.930 . S
C1422 C1420 1.419 . S
C1422 C1423 1.362 . S
C1423 H1413 0.930 . S
C1423 C1416 1.409 . S
C1423 C1422 1.362 . S
H1424 C1430 0.930 . S
H1425 C1433 0.930 . S
H1426 C1434 0.930 . S
H1427 C1435 0.930 . S
H1428 C1438 0.930 . S
H1429 C1439 0.930 . S
C1430 H1424 0.930 . S
C1430 C1431 1.355 . S
C1430 C1432 1.415 . S
C1431 C1430 1.355 . S
C1431 C1433 1.419 . S
C1432 C1430 1.415 . S
C1432 C1437 1.425 . S
C1432 C1439 1.409 . S
C1433 H1425 0.930 . S
C1433 C1431 1.419 . S
C1433 C1434 1.362 . S
C1434 H1426 0.930 . S
C1434 C1433 1.362 . S
C1434 C1437 1.409 . S
C1435 H1427 0.930 . S
C1435 C1436 1.355 . S
C1435 C1437 1.415 . S
C1436 C1435 1.355 . S
C1436 C1438 1.419 . S
C1437 C1432 1.425 . S
C1437 C1434 1.409 . S
C1437 C1435 1.415 . S
C1438 H1428 0.930 . S
C1438 C1436 1.419 . S
C1438 C1439 1.362 . S
C1439 H1429 0.930 . S
C1439 C1432 1.409 . S
C1439 C1438 1.362 . S
H1440 C1446 0.930 . S
H1441 C1449 0.930 . S
H1442 C1450 0.930 . S
H1443 C1451 0.930 . S
H1444 C1454 0.930 1_554 S
H1445 C1455 0.924 1_554 S
C1446 H1440 0.930 . S
C1446 C1447 1.355 . S
C1446 C1448 1.415 . S
C1447 C1446 1.355 . S
C1447 C1449 1.419 . S
C1448 C1446 1.415 . S
C1448 C1453 1.425 . S
C1448 C1455 1.412 . S
C1449 H1441 0.930 . S
C1449 C1447 1.419 . S
C1449 C1450 1.362 . S
C1450 H1442 0.930 . S
C1450 C1449 1.362 . S
C1450 C1453 1.409 . S
C1451 H1443 0.930 . S
C1451 C1452 1.355 . S
C1451 C1453 1.415 . S
C1452 C1451 1.355 . S
C1452 C1454 1.419 . S
C1453 C1448 1.425 . S
C1453 C1450 1.409 . S
C1453 C1451 1.415 . S
C1454 H1444 0.930 1_556 S
C1454 C1452 1.419 . S
C1454 C1455 1.367 . S
C1455 H1445 0.924 1_556 S
C1455 C1448 1.412 . S
C1455 C1454 1.367 . S
H1456 C1462 0.930 . S
H1457 C1465 0.930 . S
H1458 C1466 0.930 . S
H1459 C1467 0.930 . S
H1460 C1470 0.930 . S
H1461 C1471 0.930 . S
C1462 H1456 0.930 . S
C1462 C1463 1.355 . S
C1462 C1464 1.415 . S
C1463 C1462 1.355 . S
C1463 C1465 1.419 . S
C1464 C1462 1.415 . S
C1464 C1469 1.425 . S
C1464 C1471 1.409 . S
C1465 H1457 0.930 . S
C1465 C1463 1.419 . S
C1465 C1466 1.362 . S
C1466 H1458 0.930 . S
C1466 C1465 1.362 . S
C1466 C1469 1.409 . S
C1467 H1459 0.930 . S
C1467 C1468 1.355 . S
C1467 C1469 1.415 . S
C1468 C1467 1.355 . S
C1468 C1470 1.419 . S
C1469 C1464 1.425 . S
C1469 C1466 1.409 . S
C1469 C1467 1.415 . S
C1470 H1460 0.930 . S
C1470 C1468 1.419 . S
C1470 C1471 1.362 . S
C1471 H1461 0.930 . S
C1471 C1464 1.409 . S
C1471 C1470 1.362 . S
H1472 C1478 0.930 . S
H1473 C1481 0.930 . S
H1474 C1482 0.930 . S
H1475 C1483 0.930 . S
H1476 C1486 0.930 . S
H1477 C1487 0.930 1_556 S
C1478 H1472 0.930 . S
C1478 C1479 1.355 . S
C1478 C1480 1.415 . S
C1479 C1478 1.355 . S
C1479 C1481 1.419 . S
C1480 C1478 1.415 . S
C1480 C1485 1.425 . S
C1480 C1487 1.409 . S
C1481 H1473 0.930 . S
C1481 C1479 1.419 . S
C1481 C1482 1.362 . S
C1482 H1474 0.930 . S
C1482 C1481 1.362 . S
C1482 C1485 1.409 . S
C1483 H1475 0.930 . S
C1483 C1484 1.357 1_554 S
C1483 C1485 1.415 . S
C1484 C1483 1.357 1_556 S
C1484 C1486 1.418 . S
C1485 C1480 1.425 . S
C1485 C1482 1.409 . S
C1485 C1483 1.415 . S
C1486 H1476 0.930 . S
C1486 C1484 1.418 . S
C1486 C1487 1.362 1_556 S
C1487 H1477 0.930 1_554 S
C1487 C1480 1.409 . S
C1487 C1486 1.362 1_554 S
H1488 C1494 0.930 . S
H1489 C1497 0.930 1_545 S
H1490 C1498 0.930 . S
H1491 C1499 0.930 . S
H1492 C1502 0.930 . S
H1493 C1503 0.930 . S
C1494 H1488 0.930 . S
C1494 C1495 1.355 . S
C1494 C1496 1.415 . S
C1495 C1494 1.355 . S
C1495 C1497 1.419 . S
C1496 C1494 1.415 . S
C1496 C1501 1.425 . S
C1496 C1503 1.409 . S
C1497 H1489 0.930 1_565 S
C1497 C1495 1.419 . S
C1497 C1498 1.362 . S
C1498 H1490 0.930 . S
C1498 C1497 1.362 . S
C1498 C1501 1.409 . S
C1499 H1491 0.930 . S
C1499 C1500 1.355 . S
C1499 C1501 1.415 . S
C1500 C1499 1.355 . S
C1500 C1502 1.419 . S
C1501 C1496 1.425 . S
C1501 C1498 1.409 . S
C1501 C1499 1.415 . S
C1502 H1492 0.930 . S
C1502 C1500 1.419 . S
C1502 C1503 1.362 . S
C1503 H1493 0.930 . S
C1503 C1496 1.409 . S
C1503 C1502 1.362 . S
C748 C306 1.817 1_556 S
C743 C101 1.789 . S
C764 C354 1.229 . S
C759 C125 1.214 . S
C775 C139 1.887 . S
C780 C390 1.761 . S
C796 C426 1.740 1_455 S
C791 C82 1.837 . S
C812 C452 1.509 . S
C807 C196 1.515 . S
C828 C488 1.895 . S
C823 C234 1.914 . S
C839 C220 0.908 . S
C844 C523 1.134 . S
C860 C560 1.749 . S
C855 C173 1.737 . S
C871 C211 1.136 . S
C876 C594 1.152 . S
C892 C642 1.145 . S
C887 C182 1.113 . S
C903 C201 1.232 . S
C908 C595 1.360 . S
C924 C632 1.490 . S
C919 C239 1.314 . S
C935 C135 1.595 . S
C940 C678 1.572 . S
C951 C87 1.770 . S
C956 C667 1.943 . S
C967 C106 1.252 . S
C972 C668 1.382 . S
C983 C116 1.346 . S
C988 C666 1.343 1_655 S
C999 C59 1.693 . S
C1004 C414 1.709 . S
C1015 C268 2.128 . S
C1020 C415 2.143 . S
C1036 C318 1.301 . S
C1031 C291 1.435 . S
C1052 C343 1.408 . S
C1047 C163 1.342 . S
C1063 C78 2.092 1_545 S
C1068 C450 2.098 . S
C1084 C558 1.242 . S
C1079 C215 1.261 . S
C1100 C451 1.604 . S
C1095 C177 1.610 . S
C1116 C524 1.856 . S
C1111 C230 1.861 . S
C1132 C522 1.837 . S
C1127 C272 1.819 . S
C1143 C296 1.221 . S
C1148 C570 1.239 . S
C1159 C158 1.887 . S
C1164 C462 1.754 . S
C1180 C498 1.763 . S
C1175 C253 1.829 . S
C1191 C63 1.484 . S
C1196 C380 1.485 . S
C1212 C416 1.851 . S
C1207 C6 1.888 . S
C1228 C307 1.148 . S
C1223 C30 0.913 . S
C1244 C344 1.745 . S
C1239 C40 1.753 . S
C1255 C21 1.177 . S
C1260 C630 1.184 . S
C1271 C49 1.189 . S
C1276 C606 1.188 . S
C1287 C68 1.197 . S
C1292 C631 1.356 . S
C1303 C11 1.297 . S
C1308 C596 1.496 . S
C1324 C714 1.569 . S
C1319 C154 1.599 . S
C1340 C703 1.930 . S
C1335 C258 1.763 . S
C1356 C704 1.377 . S
C1351 C277 1.208 . S
C1367 C287 1.303 1_554 S
C1372 C702 1.299 . S
C1383 C192 1.719 . S
C1388 C486 1.734 . S
C1404 C487 2.139 . S
C1399 C97 2.114 . S
C1420 C534 1.385 . S
C1415 C120 1.443 . S
C1436 C559 1.411 . S
C1431 C144 1.289 . S
C1447 C249 2.090 . S
C1452 C378 2.096 . S
C1468 C342 1.235 . S
C1463 C25 1.255 . S
C1479 C44 1.615 . S
C1484 C379 1.607 . S
C1500 C308 1.860 . S
C1495 C2 1.867 1_565 S
