# Generated by pormake.
# Topology rtl, (3,6)-cn, num edge types: 1
# Building blocks:
#     Node 0, Type 0, BuildingBlock: BELTOD_clean_linker_0, # of connection points: 3
#     Node 1, Type 0, BuildingBlock: BELTOD_clean_linker_0, # of connection points: 3
#     Node 2, Type 0, BuildingBlock: BELTOD_clean_linker_0, # of connection points: 3
#     Node 3, Type 0, BuildingBlock: BELTOD_clean_linker_0, # of connection points: 3
#     Node 4, Type 1, BuildingBlock: KUMJIN_clean_sbu_1, # of connection points: 6
#     Node 5, Type 1, BuildingBlock: KUMJIN_clean_sbu_1, # of connection points: 6
#     Edge 6, Type (0, 1), BuildingBlock: UVAHIK_clean_linker_0, # of connection points: 2
#     Edge 7, Type (0, 1), BuildingBlock: UVAHIK_clean_linker_0, # of connection points: 2
#     Edge 8, Type (0, 1), BuildingBlock: UVAHIK_clean_linker_0, # of connection points: 2
#     Edge 9, Type (0, 1), BuildingBlock: UVAHIK_clean_linker_0, # of connection points: 2
#     Edge 10, Type (0, 1), BuildingBlock: UVAHIK_clean_linker_0, # of connection points: 2
#     Edge 11, Type (0, 1), BuildingBlock: UVAHIK_clean_linker_0, # of connection points: 2
#     Edge 12, Type (0, 1), BuildingBlock: UVAHIK_clean_linker_0, # of connection points: 2
#     Edge 13, Type (0, 1), BuildingBlock: UVAHIK_clean_linker_0, # of connection points: 2
#     Edge 14, Type (0, 1), BuildingBlock: UVAHIK_clean_linker_0, # of connection points: 2
#     Edge 15, Type (0, 1), BuildingBlock: UVAHIK_clean_linker_0, # of connection points: 2
#     Edge 16, Type (0, 1), BuildingBlock: UVAHIK_clean_linker_0, # of connection points: 2
#     Edge 17, Type (0, 1), BuildingBlock: UVAHIK_clean_linker_0, # of connection points: 2
# Relax obj value: 0.018
# Max RMSD: 0.086
# Mean RMSD: 0.057
data_MOF--net-rtl--node1-KUMJIN_clean_sbu_1--node2-BELTOD_clean_linker_0--edge1-UVAHIK_clean_linker_0
_symmetry_space_group_name_H-M    P1
_symmetry_Int_Tables_number       1
_symmetry_cell_setting            triclinic
loop_
_symmetry_equiv_pos_as_xyz
'x, y, z'
_cell_length_a     46.782909
_cell_length_b     47.121554
_cell_length_c     40.212878
_cell_angle_alpha  81.619159
_cell_angle_beta   99.937575
_cell_angle_gamma 90.175444
loop_
_atom_site_label
_atom_site_type_symbol
_atom_site_fract_x
_atom_site_fract_y
_atom_site_fract_z
_atom_type_partial_charge
P0 P 0.25806 0.89456 0.02527 0.0
H1 H 0.27498 0.92014 0.08747 0.0
H2 H 0.25018 0.92587 0.13476 0.0
H3 H 0.17763 0.87875 0.08992 0.0
H4 H 0.20228 0.87412 0.04199 0.0
H5 H 0.30913 0.87879 0.99952 0.0
H6 H 0.33476 0.83323 0.00234 0.0
H7 H 0.27504 0.79053 0.06291 0.0
H8 H 0.24965 0.83639 0.06028 0.0
H9 H 0.21744 0.94125 0.99398 0.0
H10 H 0.24161 0.85922 0.9702 0.0
O11 O 0.28164 0.92111 0.02273 0.0
H12 H 0.18438 0.95056 0.9392 0.0
H13 H 0.20924 0.86864 0.91523 0.0
C14 C 0.24024 0.89712 0.06101 0.0
C15 C 0.2537 0.91111 0.08779 0.0
C16 C 0.23956 0.91415 0.11501 0.0
C17 C 0.21177 0.90292 0.11616 0.0
C18 C 0.19873 0.8882 0.08957 0.0
C19 C 0.21285 0.88536 0.06224 0.0
C20 C 0.27787 0.86108 0.03025 0.0
C21 C 0.30179 0.8597 0.0138 0.0
C22 C 0.31624 0.83358 0.01515 0.0
C23 C 0.30691 0.80824 0.03281 0.0
C24 C 0.28297 0.80973 0.04947 0.0
C25 C 0.26843 0.83593 0.04797 0.0
C26 C 0.23205 0.89965 0.98616 0.0
C27 C 0.21553 0.9252 0.97702 0.0
C28 C 0.1968 0.93056 0.94561 0.0
C29 C 0.19432 0.91043 0.92268 0.0
C30 C 0.21041 0.88448 0.93238 0.0
C31 C 0.22912 0.87915 0.96383 0.0
P32 P 0.68779 0.68239 0.59496 0.0
H33 H 0.70053 0.69484 0.5263 0.0
H34 H 0.6732 0.68871 0.47039 0.0
H35 H 0.59906 0.66182 0.51686 0.0
H36 H 0.62635 0.66845 0.57274 0.0
H37 H 0.73334 0.69909 0.64651 0.0
H38 H 0.76307 0.74168 0.64881 0.0
H39 H 0.71138 0.78195 0.55408 0.0
H40 H 0.68095 0.73991 0.55299 0.0
H41 H 0.67045 0.6262 0.62308 0.0
H42 H 0.66194 0.71326 0.64194 0.0
O43 O 0.71432 0.65811 0.59783 0.0
H44 H 0.64632 0.60903 0.67108 0.0
H45 H 0.63824 0.69616 0.69079 0.0
C46 C 0.66548 0.6823 0.55367 0.0
C47 C 0.67815 0.68831 0.52436 0.0
C48 C 0.66249 0.68486 0.4924 0.0
C49 C 0.63398 0.67479 0.48926 0.0
C50 C 0.62103 0.6695 0.51857 0.0
C51 C 0.63663 0.67335 0.55053 0.0
C52 C 0.70536 0.71607 0.59925 0.0
C53 C 0.7281 0.71735 0.62661 0.0
C54 C 0.74524 0.74163 0.6277 0.0
C55 C 0.74008 0.76507 0.60123 0.0
C56 C 0.71603 0.76438 0.57495 0.0
C57 C 0.69871 0.74014 0.57409 0.0
C58 C 0.66846 0.67089 0.62941 0.0
C59 C 0.66347 0.64162 0.63772 0.0
C60 C 0.6498 0.63183 0.6653 0.0
C61 C 0.64077 0.65116 0.68517 0.0
C62 C 0.64491 0.6807 0.676 0.0
C63 C 0.65861 0.6905 0.64823 0.0
P64 P 0.80602 0.17734 0.01566 0.0
H65 H 0.78715 0.1915 0.94235 0.0
H66 H 0.79191 0.16563 0.89507 0.0
H67 H 0.82218 0.09011 0.9671 0.0
H68 H 0.81767 0.11615 0.01415 0.0
H69 H 0.79798 0.22551 0.04996 0.0
H70 H 0.75579 0.25449 0.0532 0.0
H71 H 0.70112 0.20295 0.98867 0.0
H72 H 0.74385 0.17398 0.98537 0.0
H73 H 0.86338 0.15931 0.05353 0.0
H74 H 0.77453 0.14816 0.06764 0.0
O75 O 0.83193 0.20072 0.00857 0.0
H76 H 0.88015 0.13299 0.11046 0.0
H77 H 0.79113 0.12132 0.12465 0.0
C78 C 0.80199 0.15581 0.98174 0.0
C79 C 0.79399 0.16912 0.94789 0.0
C80 C 0.79667 0.15426 0.92088 0.0
C81 C 0.80768 0.12588 0.92735 0.0
C82 C 0.81399 0.11208 0.96131 0.0
C83 C 0.81124 0.12695 0.98828 0.0
C84 C 0.77409 0.19799 0.01699 0.0
C85 C 0.77693 0.22049 0.03642 0.0
C86 C 0.75273 0.23687 0.03849 0.0
C87 C 0.72506 0.23098 0.02127 0.0
C88 C 0.7222 0.20818 0.00194 0.0
C89 C 0.74656 0.19162 4e-05 0.0
C90 C 0.81779 0.15623 0.05677 0.0
C91 C 0.84748 0.15108 0.0689 0.0
C92 C 0.85702 0.13579 0.10135 0.0
C93 C 0.83697 0.12519 0.12221 0.0
C94 C 0.80711 0.12961 0.10944 0.0
C95 C 0.7976 0.14488 0.07685 0.0
P96 P 0.37575 0.25774 0.46996 0.0
H97 H 0.41123 0.24485 0.53804 0.0
H98 H 0.42017 0.27134 0.58672 0.0
H99 H 0.3608 0.33862 0.53079 0.0
H100 H 0.35242 0.31234 0.48181 0.0
H101 H 0.35953 0.20116 0.45247 0.0
H102 H 0.3146 0.17447 0.45107 0.0
H103 H 0.27244 0.24654 0.47942 0.0
H104 H 0.3175 0.27298 0.48109 0.0
H105 H 0.41239 0.30632 0.45547 0.0
H106 H 0.34352 0.26209 0.39959 0.0
O107 O 0.40298 0.2339 0.47454 0.0
H108 H 0.4179 0.33736 0.40296 0.0
H109 H 0.34872 0.29334 0.34683 0.0
C110 C 0.3813 0.27673 0.50626 0.0
C111 C 0.40017 0.26531 0.53619 0.0
C112 C 0.4053 0.28046 0.56396 0.0
C113 C 0.39122 0.30703 0.56245 0.0
C114 C 0.37178 0.31809 0.5327 0.0
C115 C 0.36701 0.30313 0.50474 0.0
C116 C 0.34211 0.2388 0.46771 0.0
C117 C 0.34065 0.21121 0.45846 0.0
C118 C 0.31486 0.19605 0.45738 0.0
C119 C 0.29 0.20829 0.4654 0.0
C120 C 0.29135 0.23631 0.47371 0.0
C121 C 0.31714 0.25149 0.47464 0.0
C122 C 0.37714 0.28231 0.43159 0.0
C123 C 0.39804 0.30367 0.43199 0.0
C124 C 0.40113 0.32146 0.40192 0.0
C125 C 0.38362 0.31796 0.37071 0.0
C126 C 0.36262 0.2965 0.37043 0.0
C127 C 0.35947 0.27877 0.40063 0.0
Eu128 Eu 0.01824 0.96542 0.50714 0.0
C129 C 0.95211 0.08221 0.48259 0.0
N130 N 0.9795 0.0762 0.50007 0.0
C131 C 0.99678 0.11888 0.47049 0.0
C132 C 0.94618 0.10671 0.45757 0.0
C133 C 0.00169 0.0942 0.49482 0.0
C134 C 0.96894 0.1251 0.45166 0.0
C135 C 0.90164 0.06886 0.47097 0.0
C136 C 0.9302 0.06322 0.48901 0.0
C137 C 0.89576 0.09299 0.44564 0.0
C138 C 0.91796 0.11185 0.43897 0.0
Eu139 Eu 0.98608 0.03394 0.54011 0.0
N140 N 0.93658 0.03973 0.51339 0.0
C141 C 0.87966 0.05047 0.47949 0.0
C142 C 0.91468 0.02346 0.52385 0.0
C143 C 0.88612 0.02803 0.50652 0.0
H144 H 0.02314 0.08949 0.50952 0.0
H145 H 0.86901 0.0146 0.51451 0.0
H146 H 0.97982 0.91071 0.53736 0.0
H147 H 0.13574 0.98237 0.53339 0.0
H148 H 0.91872 0.00754 0.54625 0.0
H149 H 0.85746 0.05409 0.46628 0.0
H150 H 0.08609 0.99102 0.50207 0.0
H151 H 0.01446 0.13304 0.46623 0.0
H152 H 0.87401 0.09747 0.43137 0.0
H153 H 0.91304 0.13043 0.41945 0.0
H154 H 0.98767 0.86669 0.57991 0.0
H155 H 0.96525 0.14412 0.43264 0.0
H156 H 0.14663 0.94176 0.58036 0.0
N157 N 0.02386 0.92288 0.54674 0.0
C158 C 0.05122 0.91601 0.56386 0.0
C159 C 0.00568 0.88043 0.57575 0.0
C160 C 0.05668 0.89114 0.58839 0.0
C161 C 0.00124 0.90542 0.55188 0.0
C162 C 0.03349 0.87331 0.59419 0.0
N163 N 0.06765 0.95842 0.53383 0.0
C164 C 0.08985 0.97455 0.5239 0.0
C165 C 0.10209 0.928 0.57543 0.0
C166 C 0.07359 0.9345 0.55765 0.0
C167 C 0.12446 0.94604 0.56733 0.0
C168 C 0.11837 0.9691 0.54101 0.0
H169 H 0.03682 0.85402 0.61283 0.0
H170 H 0.08948 0.86615 0.62571 0.0
H171 H 0.12926 0.89827 0.6142 0.0
O172 O 0.03748 0.95946 0.46196 0.0
O173 O 0.01964 0.96403 0.56434 0.0
O174 O 0.02643 0.01103 0.5715 0.0
O175 O 0.00781 0.92809 0.4818 0.0
O176 O 0.03745 0.00926 0.49221 0.0
O177 O 0.03387 0.03382 0.53715 0.0
O178 O 0.9666 0.03987 0.58495 0.0
O179 O 0.98598 0.03537 0.48333 0.0
O180 O 0.97808 0.9887 0.47548 0.0
O181 O 0.99641 0.07135 0.56557 0.0
O182 O 0.96787 0.98992 0.55573 0.0
O183 O 0.97044 0.96577 0.51029 0.0
C184 C 0.02958 0.98358 0.5832 0.0
C185 C 0.02617 0.91768 0.43206 0.0
C186 C 0.04495 0.90859 0.38144 0.0
C187 C 0.02725 0.88453 0.37965 0.0
C188 C 0.00883 0.89337 0.42979 0.0
C189 C 0.00945 0.87694 0.40378 0.0
C190 C 0.04454 0.92506 0.40795 0.0
C191 C 0.04564 0.02982 0.51069 0.0
C192 C 0.02394 0.93551 0.45889 0.0
C193 C 0.0849 0.88506 0.60662 0.0
C194 C 0.10753 0.90343 0.60017 0.0
C195 C 0.97542 0.01625 0.46421 0.0
C196 C 0.97756 0.08128 0.61526 0.0
C197 C 0.95693 0.09022 0.66461 0.0
C198 C 0.97587 0.11313 0.6687 0.0
C199 C 0.9961 0.10449 0.61964 0.0
C200 C 0.95768 0.07442 0.63765 0.0
C201 C 0.99518 0.1203 0.64618 0.0
C202 C 0.9592 0.9696 0.53715 0.0
C203 C 0.98013 0.06378 0.58829 0.0
H204 H 0.02741 0.8714 0.35969 0.0
H205 H 0.9945 0.88714 0.44794 0.0
H206 H 0.99596 0.85831 0.40223 0.0
H207 H 0.05795 0.94379 0.4093 0.0
H208 H 0.97552 0.12566 0.68919 0.0
H209 H 0.01163 0.11024 0.60282 0.0
H210 H 0.9433 0.05654 0.63465 0.0
H211 H 0.00963 0.13805 0.64944 0.0
Eu212 Eu 0.45943 0.49022 0.98858 0.0
C213 C 0.57315 0.5497 0.01127 0.0
N214 N 0.56808 0.52298 0.02666 0.0
C215 C 0.61088 0.50447 0.01148 0.0
C216 C 0.59691 0.55456 0.99401 0.0
C217 C 0.58685 0.50059 0.02793 0.0
C218 C 0.6158 0.5315 0.99418 0.0
C219 C 0.55864 0.59992 0.99598 0.0
C220 C 0.55408 0.57205 0.01217 0.0
C221 C 0.5818 0.60469 0.9779 0.0
C222 C 0.60091 0.5821 0.97698 0.0
Eu223 Eu 0.5271 0.51816 0.05357 0.0
N224 N 0.53165 0.56675 0.0296 0.0
C225 C 0.54019 0.62233 0.99909 0.0
C226 C 0.51539 0.589 0.03526 0.0
C227 C 0.51885 0.61693 0.01939 0.0
H228 H 0.58289 0.47969 0.04121 0.0
H229 H 0.50538 0.63435 0.02333 0.0
H230 H 0.41254 0.54601 0.96132 0.0
H231 H 0.43789 0.37961 0.03775 0.0
H232 H 0.50025 0.58561 0.05273 0.0
H233 H 0.54296 0.64403 0.98703 0.0
H234 H 0.46647 0.41941 0.01367 0.0
H235 H 0.62551 0.4866 0.012 0.0
H236 H 0.58541 0.62591 0.96502 0.0
H237 H 0.61882 0.58618 0.96322 0.0
H238 H 0.36242 0.55933 0.96564 0.0
H239 H 0.63429 0.53438 0.98119 0.0
H240 H 0.3881 0.38921 0.04707 0.0
N241 N 0.41123 0.5044 0.98954 0.0
C242 C 0.3944 0.48409 0.00355 0.0
C243 C 0.37125 0.5382 0.97678 0.0
C244 C 0.36537 0.49039 0.00565 0.0
C245 C 0.39979 0.53079 0.97492 0.0
C246 C 0.35405 0.51802 0.9926 0.0
N247 N 0.43357 0.45103 0.0111 0.0
C248 C 0.44478 0.42363 0.01786 0.0
C249 C 0.38859 0.4345 0.02749 0.0
C250 C 0.40578 0.4565 0.01425 0.0
C251 C 0.40056 0.40667 0.03664 0.0
C252 C 0.42867 0.40116 0.03142 0.0
H253 H 0.33185 0.52372 0.99371 0.0
H254 H 0.32611 0.47326 0.02186 0.0
H255 H 0.34649 0.42435 0.0411 0.0
O256 O 0.47192 0.46772 0.94943 0.0
O257 O 0.46322 0.47103 0.04454 0.0
O258 O 0.49013 0.50059 0.07946 0.0
O259 O 0.43055 0.49024 0.93958 0.0
O260 O 0.50141 0.46369 0.00038 0.0
O261 O 0.52663 0.47004 0.05392 0.0
O262 O 0.5457 0.54208 0.09485 0.0
O263 O 0.52844 0.51208 0.99863 0.0
O264 O 0.48413 0.52928 0.97152 0.0
O265 O 0.5594 0.49748 0.09619 0.0
O266 O 0.48241 0.53746 0.05253 0.0
O267 O 0.46151 0.53692 0.99661 0.0
C268 C 0.47183 0.47974 0.07425 0.0
C269 C 0.45358 0.48657 0.8925 0.0
C270 C 0.45396 0.47808 0.83425 0.0
C271 C 0.46673 0.50486 0.82746 0.0
C272 C 0.46556 0.51357 0.8851 0.0
C273 C 0.4723 0.52258 0.85276 0.0
C274 C 0.44748 0.46905 0.86695 0.0
C275 C 0.52038 0.45513 0.02837 0.0
C276 C 0.44872 0.47572 0.92711 0.0
C277 C 0.3484 0.46878 0.01983 0.0
C278 C 0.35998 0.4409 0.03074 0.0
C279 C 0.51208 0.52716 0.97235 0.0
C280 C 0.58186 0.52149 0.14348 0.0
C281 C 0.59417 0.53982 0.1978 0.0
C282 C 0.61829 0.52085 0.20678 0.0
C283 C 0.60613 0.50278 0.15293 0.0
C284 C 0.57623 0.54042 0.16578 0.0
C285 C 0.62433 0.50266 0.18432 0.0
C286 C 0.46216 0.54619 0.026 0.0
C287 C 0.56201 0.52037 0.11102 0.0
H288 H 0.47194 0.51226 0.80246 0.0
H289 H 0.46979 0.52751 0.90436 0.0
H290 H 0.48185 0.54332 0.84728 0.0
H291 H 0.43824 0.44814 0.8727 0.0
H292 H 0.63253 0.5202 0.2312 0.0
H293 H 0.61099 0.4882 0.13607 0.0
H294 H 0.55739 0.55477 0.15886 0.0
H295 H 0.64303 0.48819 0.19143 0.0
C296 C 0.25327 0.17449 0.44068 0.0
C297 C 0.26305 0.19158 0.46608 0.0
C298 C 0.22841 0.15808 0.44208 0.0
C299 C 0.16269 0.15065 0.48267 0.0
H300 H 0.1635 0.07272 0.4623 0.0
C301 C 0.08213 0.06686 0.52558 0.0
C302 C 0.06962 0.04874 0.50245 0.0
C303 C 0.10448 0.08503 0.51812 0.0
C304 C 0.16279 0.09457 0.46761 0.0
H305 H 0.25452 0.20459 0.51305 0.0
H306 H 0.21141 0.17591 0.51567 0.0
H307 H 0.20483 0.1033 0.45484 0.0
H308 H 0.07088 0.03557 0.45323 0.0
H309 H 0.11038 0.06724 0.44037 0.0
H310 H 0.12096 0.14167 0.4962 0.0
C311 C 0.22254 0.1756 0.49423 0.0
C312 C 0.18646 0.11212 0.46332 0.0
C313 C 0.2473 0.19205 0.49276 0.0
C314 C 0.08015 0.04915 0.47168 0.0
C315 C 0.10277 0.06723 0.46433 0.0
C316 C 0.13914 0.13307 0.48711 0.0
C317 C 0.21281 0.15834 0.46897 0.0
C318 C 0.18687 0.14025 0.47127 0.0
C319 C 0.11506 0.08547 0.48744 0.0
C320 C 0.13911 0.10471 0.48011 0.0
H321 H 0.26473 0.17395 0.41956 0.0
H322 H 0.2213 0.14535 0.42196 0.0
H323 H 0.16198 0.17239 0.48833 0.0
H324 H 0.07473 0.06703 0.54964 0.0
H325 H 0.1138 0.09848 0.5367 0.0
C326 C 0.32822 0.76054 0.06323 0.0
C327 C 0.32184 0.78038 0.03312 0.0
C328 C 0.34301 0.7347 0.06349 0.0
C329 C 0.39086 0.70094 0.01534 0.0
H330 H 0.36882 0.62968 0.06484 0.0
C331 C 0.43552 0.59163 0.99779 0.0
C332 C 0.44434 0.57168 0.02731 0.0
C333 C 0.42019 0.61661 0.99938 0.0
C334 C 0.37541 0.64946 0.05119 0.0
H335 H 0.32501 0.78818 0.97941 0.0
H336 H 0.35055 0.74319 0.97977 0.0
H337 H 0.34274 0.67426 0.06608 0.0
H338 H 0.44408 0.56211 0.0816 0.0
H339 H 0.41727 0.60597 0.08445 0.0
H340 H 0.42338 0.67619 0.00029 0.0
C341 C 0.34479 0.74782 0.00341 0.0
C342 C 0.3605 0.67501 0.05192 0.0
C343 C 0.33012 0.77361 0.00318 0.0
C344 C 0.43737 0.5771 0.05843 0.0
C345 C 0.42193 0.6021 0.06001 0.0
C346 C 0.40568 0.67544 0.01455 0.0
C347 C 0.35164 0.72814 0.0336 0.0
C348 C 0.36791 0.70102 0.03378 0.0
C349 C 0.4134 0.62226 0.03054 0.0
C350 C 0.39799 0.64938 0.03223 0.0
H351 H 0.32235 0.76525 0.08678 0.0
H352 H 0.3482 0.72016 0.08726 0.0
H353 H 0.39756 0.72066 0.00168 0.0
H354 H 0.44107 0.5883 0.97356 0.0
H355 H 0.41368 0.63158 0.97615 0.0
C356 C 0.79101 0.78313 0.60899 0.0
C357 C 0.76098 0.78897 0.59964 0.0
C358 C 0.81095 0.80496 0.60526 0.0
C359 C 0.81887 0.87487 0.55474 0.0
H360 H 0.88937 0.87753 0.62095 0.0
C361 C 0.91979 0.93539 0.52167 0.0
C362 C 0.9352 0.951 0.54592 0.0
C363 C 0.8972 0.91774 0.52977 0.0
C364 C 0.86966 0.87729 0.60237 0.0
H365 H 0.72848 0.82278 0.57999 0.0
H366 H 0.76343 0.86092 0.5731 0.0
H367 H 0.85201 0.84335 0.63368 0.0
H368 H 0.93901 0.96031 0.59772 0.0
H369 H 0.89944 0.92939 0.6119 0.0
H370 H 0.83661 0.90864 0.52332 0.0
C371 C 0.77144 0.83928 0.58311 0.0
C372 C 0.84838 0.85754 0.60953 0.0
C373 C 0.75143 0.81741 0.58702 0.0
C374 C 0.9275 0.94858 0.57847 0.0
C375 C 0.90496 0.93078 0.58664 0.0
C376 C 0.84021 0.89452 0.54751 0.0
C377 C 0.80144 0.83323 0.59189 0.0
C378 C 0.82291 0.85584 0.5856 0.0
C379 C 0.88955 0.91516 0.56236 0.0
C380 C 0.86602 0.89568 0.57105 0.0
H381 H 0.79927 0.76143 0.61809 0.0
H382 H 0.8339 0.79947 0.61171 0.0
H383 H 0.79962 0.87396 0.53565 0.0
H384 H 0.92515 0.93681 0.49633 0.0
H385 H 0.88604 0.90569 0.51065 0.0
C386 C 0.67931 0.25922 0.99396 0.0
C387 C 0.69966 0.24911 0.02332 0.0
C388 C 0.6573 0.27883 0.99548 0.0
C389 C 0.64264 0.33448 0.04577 0.0
H390 H 0.56335 0.33246 0.99825 0.0
C391 C 0.55684 0.41714 0.05935 0.0
C392 C 0.5377 0.4286 0.02954 0.0
C393 C 0.57457 0.39325 0.05962 0.0
C394 C 0.58548 0.33347 0.01142 0.0
H395 H 0.71161 0.25007 0.0777 0.0
H396 H 0.67338 0.28422 0.08031 0.0
H397 H 0.5978 0.29406 0.99633 0.0
H398 H 0.5217 0.42335 0.97682 0.0
H399 H 0.55299 0.38222 0.97715 0.0
H400 H 0.6308 0.37406 0.06024 0.0
C401 C 0.67479 0.27752 0.05598 0.0
C402 C 0.60518 0.31145 0.01034 0.0
C403 C 0.69668 0.25795 0.05447 0.0
C404 C 0.53615 0.41512 0.00029 0.0
C405 C 0.55401 0.39135 0.00051 0.0
C406 C 0.62307 0.35651 0.04669 0.0
C407 C 0.65526 0.2887 0.02638 0.0
C408 C 0.63396 0.31169 0.02759 0.0
C409 C 0.57374 0.38034 0.03004 0.0
C410 C 0.59422 0.35632 0.02958 0.0
H411 H 0.68114 0.25294 0.96954 0.0
H412 H 0.64266 0.28717 0.9722 0.0
H413 H 0.66483 0.33562 0.05875 0.0
H414 H 0.55842 0.42678 0.08244 0.0
H415 H 0.58907 0.38499 0.08303 0.0
C416 C 0.21155 0.90569 0.17824 0.0
C417 C 0.19632 0.90697 0.14465 0.0
C418 C 0.19704 0.90986 0.20484 0.0
C419 C 0.12767 0.9386 0.22174 0.0
H420 H 0.1487 0.89021 0.30928 0.0
C421 C 0.05171 0.91772 0.3206 0.0
C422 C 0.06363 0.91605 0.35538 0.0
C423 C 0.06956 0.92121 0.29592 0.0
C424 C 0.14289 0.90423 0.28517 0.0
H425 H 0.15379 0.91406 0.11282 0.0
H426 H 0.12839 0.92014 0.15925 0.0
H427 H 0.17656 0.88647 0.26412 0.0
H428 H 0.10338 0.91766 0.39165 0.0
H429 H 0.13488 0.92351 0.34831 0.0
H430 H 0.09328 0.95551 0.24255 0.0
C431 C 0.15168 0.91648 0.16501 0.0
C432 C 0.15886 0.9021 0.25923 0.0
C433 C 0.16621 0.9125 0.1384 0.0
C434 C 0.09368 0.91902 0.36497 0.0
C435 C 0.11166 0.92213 0.34024 0.0
C436 C 0.11157 0.94054 0.24759 0.0
C437 C 0.16689 0.91526 0.1986 0.0
C438 C 0.15118 0.91894 0.22699 0.0
C439 C 0.09979 0.92278 0.3055 0.0
C440 C 0.11875 0.92307 0.2794 0.0
H441 H 0.2347 0.90117 0.18413 0.0
H442 H 0.20954 0.90903 0.23029 0.0
H443 H 0.12152 0.95239 0.19754 0.0
H444 H 0.02857 0.91562 0.31257 0.0
H445 H 0.05979 0.9214 0.26942 0.0
C446 C 0.60366 0.65427 0.72325 0.0
C447 C 0.62769 0.64021 0.71566 0.0
C448 C 0.59091 0.64309 0.75131 0.0
C449 C 0.58433 0.57506 0.80786 0.0
H450 H 0.55925 0.62382 0.86764 0.0
C451 C 0.54929 0.52815 0.93462 0.0
C452 C 0.52496 0.54078 0.94315 0.0
C453 C 0.56162 0.54103 0.90707 0.0
C454 C 0.56584 0.60996 0.85095 0.0
H455 H 0.65795 0.6041 0.7326 0.0
H456 H 0.63576 0.58465 0.78122 0.0
H457 H 0.58103 0.64524 0.81908 0.0
H458 H 0.49447 0.57679 0.92998 0.0
H459 H 0.51571 0.59919 0.88136 0.0
H460 H 0.56913 0.53981 0.83951 0.0
C461 C 0.62633 0.60396 0.76512 0.0
C462 C 0.57832 0.62223 0.82314 0.0
C463 C 0.63905 0.61512 0.7372 0.0
C464 C 0.51317 0.56658 0.92375 0.0
C465 C 0.52551 0.57951 0.89616 0.0
C466 C 0.57184 0.56283 0.83556 0.0
C467 C 0.60192 0.6176 0.77234 0.0
C468 C 0.58791 0.60489 0.80142 0.0
C469 C 0.54981 0.5668 0.88739 0.0
C470 C 0.56261 0.58008 0.85759 0.0
H471 H 0.59425 0.67352 0.70704 0.0
H472 H 0.57199 0.654 0.75603 0.0
H473 H 0.59094 0.56113 0.79125 0.0
H474 H 0.55875 0.50822 0.94918 0.0
H475 H 0.5806 0.5309 0.90137 0.0
C476 C 0.83439 0.11698 0.18474 0.0
C477 C 0.84738 0.11064 0.15758 0.0
C478 C 0.84565 0.10506 0.21835 0.0
C479 C 0.89412 0.04697 0.27047 0.0
H480 H 0.90247 0.09817 0.33865 0.0
C481 C 0.93935 0.00809 0.413 0.0
C482 C 0.95923 0.02608 0.42956 0.0
C483 C 0.92374 0.01763 0.38039 0.0
C484 C 0.90038 0.08363 0.31988 0.0
H485 H 0.88162 0.08584 0.14433 0.0
H486 H 0.90156 0.06545 0.20296 0.0
H487 H 0.87867 0.1156 0.28042 0.0
H488 H 0.97904 0.06777 0.42458 0.0
H489 H 0.95169 0.08453 0.36789 0.0
H490 H 0.91666 0.01527 0.30971 0.0
C491 C 0.88256 0.0795 0.1983 0.0
C492 C 0.88642 0.09351 0.2866 0.0
C493 C 0.87133 0.09143 0.16472 0.0
C494 C 0.96338 0.05367 0.41278 0.0
C495 C 0.94771 0.06326 0.38029 0.0
C496 C 0.90805 0.03707 0.30377 0.0
C497 C 0.8701 0.08649 0.22557 0.0
C498 C 0.88338 0.07538 0.26141 0.0
C499 C 0.92773 0.04534 0.36368 0.0
C500 C 0.91162 0.05539 0.32876 0.0
H501 H 0.81607 0.13187 0.18016 0.0
H502 H 0.83533 0.11061 0.23874 0.0
H503 H 0.89186 0.03237 0.25176 0.0
H504 H 0.9356 0.98674 0.42538 0.0
H505 H 0.90831 0.00341 0.36842 0.0
C506 C 0.37442 0.33486 0.60434 0.0
C507 C 0.39726 0.32343 0.59155 0.0
C508 C 0.38021 0.35052 0.63164 0.0
C509 C 0.43959 0.36633 0.70098 0.0
H510 H 0.38908 0.431 0.70275 0.0
C511 C 0.46879 0.45309 0.78883 0.0
C512 C 0.44738 0.45953 0.80732 0.0
C513 C 0.46254 0.43551 0.76346 0.0
C514 C 0.40323 0.41286 0.70266 0.0
H515 H 0.44399 0.31974 0.59676 0.0
H516 H 0.45422 0.34788 0.64349 0.0
H517 H 0.37855 0.40248 0.65634 0.0
H518 H 0.40269 0.45296 0.81374 0.0
H519 H 0.39154 0.42269 0.76875 0.0
H520 H 0.4648 0.3776 0.74679 0.0
C521 C 0.4318 0.34406 0.63338 0.0
C522 C 0.39715 0.39638 0.67618 0.0
C523 C 0.42598 0.32803 0.60645 0.0
C524 C 0.41959 0.4482 0.79991 0.0
C525 C 0.41318 0.43105 0.77412 0.0
C526 C 0.44591 0.38312 0.72714 0.0
C527 C 0.40899 0.35551 0.64641 0.0
C528 C 0.41525 0.37286 0.67494 0.0
C529 C 0.43462 0.4245 0.75572 0.0
C530 C 0.42778 0.40652 0.72822 0.0
H531 H 0.35207 0.33136 0.5935 0.0
H532 H 0.36205 0.35847 0.64133 0.0
H533 H 0.45371 0.34808 0.70139 0.0
H534 H 0.49043 0.46144 0.79425 0.0
H535 H 0.47938 0.43089 0.74949 0.0
C536 C 0.60632 0.64044 0.4546 0.0
C537 C 0.61909 0.66733 0.45608 0.0
C538 C 0.59597 0.63151 0.42316 0.0
C539 C 0.60757 0.64519 0.33359 0.0
H540 H 0.54748 0.58884 0.32198 0.0
C541 C 0.5855 0.58816 0.21399 0.0
C542 C 0.58761 0.55817 0.22257 0.0
C543 C 0.58275 0.60541 0.23892 0.0
C544 C 0.56417 0.60473 0.32478 0.0
H545 H 0.62929 0.70676 0.42589 0.0
H546 H 0.61042 0.6916 0.37089 0.0
H547 H 0.55402 0.61306 0.37237 0.0
H548 H 0.58677 0.52257 0.263 0.0
H549 H 0.58147 0.55255 0.30633 0.0
H550 H 0.61787 0.6365 0.28615 0.0
C551 C 0.60918 0.67698 0.39398 0.0
C552 C 0.56807 0.6185 0.35374 0.0
C553 C 0.61986 0.68576 0.42547 0.0
C554 C 0.58536 0.54567 0.25588 0.0
C555 C 0.58211 0.56282 0.28056 0.0
C556 C 0.60339 0.6317 0.30444 0.0
C557 C 0.59785 0.64939 0.39237 0.0
C558 C 0.59048 0.63821 0.35912 0.0
C559 C 0.58147 0.59287 0.27259 0.0
C560 C 0.58227 0.61068 0.30027 0.0
H561 H 0.60575 0.62563 0.47775 0.0
H562 H 0.58789 0.60996 0.42315 0.0
H563 H 0.6253 0.65991 0.33689 0.0
H564 H 0.58722 0.59825 0.18845 0.0
H565 H 0.58222 0.62853 0.2321 0.0
C566 C 0.84303 0.09808 0.90387 0.0
C567 C 0.81587 0.11212 0.89924 0.0
C568 C 0.85278 0.08841 0.87652 0.0
C569 C 0.84272 0.10402 0.78276 0.0
H570 H 0.89792 0.04047 0.79546 0.0
C571 C 0.90657 0.08354 0.67734 0.0
C572 C 0.93668 0.0831 0.68888 0.0
C573 C 0.88743 0.08075 0.70078 0.0
C574 C 0.88236 0.05814 0.79147 0.0
H575 H 0.77693 0.12556 0.86265 0.0
H576 H 0.79375 0.10817 0.8148 0.0
H577 H 0.87102 0.04665 0.8409 0.0
H578 H 0.97054 0.07778 0.73352 0.0
H579 H 0.93724 0.07237 0.77446 0.0
H580 H 0.85456 0.11573 0.73354 0.0
C581 C 0.80779 0.1052 0.8395 0.0
C582 C 0.86705 0.06181 0.81753 0.0
C583 C 0.7981 0.11509 0.86691 0.0
C584 C 0.94738 0.07826 0.72409 0.0
C585 C 0.92833 0.07499 0.74745 0.0
C586 C 0.85779 0.10013 0.75655 0.0
C587 C 0.83556 0.09234 0.84379 0.0
C588 C 0.84782 0.0854 0.81401 0.0
C589 C 0.89817 0.07693 0.73606 0.0
C590 C 0.87846 0.07773 0.76111 0.0
H591 H 0.8575 0.0959 0.92827 0.0
H592 H 0.87449 0.07916 0.88079 0.0
H593 H 0.82838 0.12261 0.77916 0.0
H594 H 0.89787 0.08737 0.65027 0.0
H595 H 0.86427 0.08225 0.69137 0.0
C596 C 0.38876 0.32344 0.30891 0.0
C597 C 0.38828 0.33588 0.33854 0.0
C598 C 0.3955 0.33984 0.27949 0.0
C599 C 0.43361 0.40583 0.25271 0.0
H600 H 0.39765 0.39383 0.16166 0.0
C601 C 0.48064 0.4543 0.13407 0.0
C602 C 0.46111 0.4643 0.1041 0.0
C603 C 0.47072 0.43884 0.1621 0.0
C604 C 0.40775 0.39768 0.18688 0.0
H605 H 0.39306 0.37564 0.35992 0.0
H606 H 0.40455 0.4043 0.30858 0.0
H607 H 0.38069 0.36746 0.21113 0.0
H608 H 0.41591 0.46732 0.08038 0.0
H609 H 0.39834 0.44056 0.12925 0.0
H610 H 0.4602 0.43648 0.22865 0.0
C611 C 0.4004 0.3817 0.30828 0.0
C612 C 0.39824 0.38228 0.21528 0.0
C613 C 0.39375 0.3653 0.33771 0.0
C614 C 0.43145 0.45902 0.10279 0.0
C615 C 0.42144 0.44377 0.1309 0.0
C616 C 0.44304 0.42127 0.22437 0.0
C617 C 0.40185 0.36909 0.27897 0.0
C618 C 0.41114 0.38608 0.24857 0.0
C619 C 0.44096 0.43342 0.16095 0.0
C620 C 0.43039 0.41729 0.19107 0.0
H621 H 0.38497 0.30076 0.30883 0.0
H622 H 0.39674 0.32932 0.25755 0.0
H623 H 0.44434 0.40906 0.27793 0.0
H624 H 0.50368 0.45795 0.13555 0.0
H625 H 0.48648 0.43081 0.18453 0.0
C626 C 0.17557 0.94455 0.86942 0.0
C627 C 0.17589 0.91696 0.88832 0.0
C628 C 0.15881 0.95072 0.83687 0.0
C629 C 0.12278 0.91664 0.76405 0.0
H630 H 0.08199 0.99013 0.73737 0.0
C631 C 0.04375 0.94677 0.6353 0.0
C632 C 0.04589 0.97466 0.61808 0.0
C633 C 0.05915 0.93866 0.66839 0.0
C634 C 0.09347 0.96961 0.74431 0.0
H635 H 0.15852 0.87427 0.88784 0.0
H636 H 0.12915 0.88507 0.8309 0.0
H637 H 0.10928 0.97797 0.79501 0.0
H638 H 0.06593 0.0159 0.62203 0.0
H639 H 0.09257 0.00185 0.67963 0.0
H640 H 0.10693 0.9084 0.71314 0.0
C641 C 0.1422 0.90184 0.84118 0.0
C642 C 0.10912 0.96264 0.77736 0.0
C643 C 0.15901 0.89566 0.87382 0.0
C644 C 0.06365 0.99429 0.63465 0.0
C645 C 0.07887 0.98626 0.66773 0.0
C646 C 0.10706 0.92361 0.73092 0.0
C647 C 0.1419 0.92946 0.82233 0.0
C648 C 0.12422 0.9362 0.78755 0.0
C649 C 0.0767 0.95841 0.68507 0.0
C650 C 0.09248 0.95032 0.72059 0.0
H651 H 0.18877 0.96131 0.87951 0.0
H652 H 0.15953 0.97206 0.82281 0.0
H653 H 0.13442 0.89621 0.77095 0.0
H654 H 0.02975 0.93138 0.62349 0.0
H655 H 0.05677 0.91713 0.6812 0.0
loop_
_geom_bond_atom_site_label_1
_geom_bond_atom_site_label_2
_geom_bond_distance
_geom_bond_site_symmetry_2
_ccdc_geom_bond_type
P0 O11 1.490 . S
P0 C14 1.812 . S
P0 C20 1.803 . S
P0 C26 1.819 1_554 S
H1 C15 0.941 . S
H2 C16 0.939 . S
H3 C18 0.940 . S
H4 C19 0.940 . S
H5 C21 0.939 . S
H6 C22 0.942 . S
H7 C24 0.940 . S
H8 C25 0.939 . S
H9 C27 0.941 . S
H10 C31 0.939 . S
O11 P0 1.490 . S
H12 C28 0.939 . S
H13 C30 0.940 . S
C14 P0 1.812 . S
C14 C15 1.389 . S
C14 C19 1.391 . S
C15 H1 0.941 . S
C15 C14 1.389 . S
C15 C16 1.397 . S
C16 H2 0.939 . S
C16 C15 1.397 . S
C16 C17 1.378 . S
C17 C16 1.378 . S
C17 C18 1.378 . S
C18 H3 0.940 . S
C18 C17 1.378 . S
C18 C19 1.396 . S
C19 H4 0.940 . S
C19 C14 1.391 . S
C19 C18 1.396 . S
C20 P0 1.803 . S
C20 C21 1.378 . S
C20 C25 1.400 . S
C21 H5 0.939 . S
C21 C20 1.378 . S
C21 C22 1.361 . S
C22 H6 0.942 . S
C22 C21 1.361 . S
C22 C23 1.369 . S
C23 C22 1.369 . S
C23 C24 1.404 . S
C24 H7 0.940 . S
C24 C23 1.404 . S
C24 C25 1.389 . S
C25 H8 0.939 . S
C25 C20 1.400 . S
C25 C24 1.389 . S
C26 P0 1.819 1_556 S
C26 C27 1.391 . S
C26 C31 1.391 . S
C27 H9 0.941 . S
C27 C26 1.391 . S
C27 C28 1.396 . S
C28 H12 0.939 . S
C28 C27 1.396 . S
C28 C29 1.397 . S
C29 C28 1.397 . S
C29 C30 1.385 . S
C30 H13 0.940 . S
C30 C29 1.385 . S
C30 C31 1.388 . S
C31 H10 0.939 . S
C31 C26 1.391 . S
C31 C30 1.388 . S
P32 O43 1.490 . S
P32 C46 1.812 . S
P32 C52 1.803 . S
P32 C58 1.819 . S
H33 C47 0.941 . S
H34 C48 0.939 . S
H35 C50 0.940 . S
H36 C51 0.940 . S
H37 C53 0.939 . S
H38 C54 0.942 . S
H39 C56 0.940 . S
H40 C57 0.939 . S
H41 C59 0.941 . S
H42 C63 0.939 . S
O43 P32 1.490 . S
H44 C60 0.939 . S
H45 C62 0.940 . S
C46 P32 1.812 . S
C46 C47 1.389 . S
C46 C51 1.391 . S
C47 H33 0.941 . S
C47 C46 1.389 . S
C47 C48 1.397 . S
C48 H34 0.939 . S
C48 C47 1.397 . S
C48 C49 1.378 . S
C49 C48 1.378 . S
C49 C50 1.378 . S
C50 H35 0.940 . S
C50 C49 1.378 . S
C50 C51 1.396 . S
C51 H36 0.940 . S
C51 C46 1.391 . S
C51 C50 1.396 . S
C52 P32 1.803 . S
C52 C53 1.378 . S
C52 C57 1.400 . S
C53 H37 0.939 . S
C53 C52 1.378 . S
C53 C54 1.361 . S
C54 H38 0.942 . S
C54 C53 1.361 . S
C54 C55 1.369 . S
C55 C54 1.369 . S
C55 C56 1.404 . S
C56 H39 0.940 . S
C56 C55 1.404 . S
C56 C57 1.389 . S
C57 H40 0.939 . S
C57 C52 1.400 . S
C57 C56 1.389 . S
C58 P32 1.819 . S
C58 C59 1.391 . S
C58 C63 1.391 . S
C59 H41 0.941 . S
C59 C58 1.391 . S
C59 C60 1.396 . S
C60 H44 0.939 . S
C60 C59 1.396 . S
C60 C61 1.397 . S
C61 C60 1.397 . S
C61 C62 1.385 . S
C62 H45 0.940 . S
C62 C61 1.385 . S
C62 C63 1.388 . S
C63 H42 0.939 . S
C63 C58 1.391 . S
C63 C62 1.388 . S
P64 O75 1.490 . S
P64 C78 1.812 1_554 S
P64 C84 1.803 . S
P64 C90 1.819 . S
H65 C79 0.941 . S
H66 C80 0.939 . S
H67 C82 0.940 . S
H68 C83 0.940 1_554 S
H69 C85 0.939 . S
H70 C86 0.942 . S
H71 C88 0.940 1_556 S
H72 C89 0.937 1_556 S
H73 C91 0.941 . S
H74 C95 0.939 . S
O75 P64 1.490 . S
H76 C92 0.939 . S
H77 C94 0.940 . S
C78 P64 1.812 1_556 S
C78 C79 1.389 . S
C78 C83 1.391 . S
C79 H65 0.941 . S
C79 C78 1.389 . S
C79 C80 1.397 . S
C80 H66 0.939 . S
C80 C79 1.397 . S
C80 C81 1.378 . S
C81 C80 1.378 . S
C81 C82 1.378 . S
C82 H67 0.940 . S
C82 C81 1.378 . S
C82 C83 1.396 . S
C83 H68 0.940 1_556 S
C83 C78 1.391 . S
C83 C82 1.396 . S
C84 P64 1.803 . S
C84 C85 1.378 . S
C84 C89 1.400 . S
C85 H69 0.939 . S
C85 C84 1.378 . S
C85 C86 1.361 . S
C86 H70 0.942 . S
C86 C85 1.361 . S
C86 C87 1.369 . S
C87 C86 1.369 . S
C87 C88 1.404 . S
C88 H71 0.940 1_554 S
C88 C87 1.404 . S
C88 C89 1.389 . S
C89 H72 0.937 1_554 S
C89 C84 1.400 . S
C89 C88 1.389 . S
C90 P64 1.819 . S
C90 C91 1.391 . S
C90 C95 1.391 . S
C91 H73 0.941 . S
C91 C90 1.391 . S
C91 C92 1.396 . S
C92 H76 0.939 . S
C92 C91 1.396 . S
C92 C93 1.397 . S
C93 C92 1.397 . S
C93 C94 1.385 . S
C94 H77 0.940 . S
C94 C93 1.385 . S
C94 C95 1.388 . S
C95 H74 0.939 . S
C95 C90 1.391 . S
C95 C94 1.388 . S
P96 O107 1.490 . S
P96 C110 1.812 . S
P96 C116 1.803 . S
P96 C122 1.819 . S
H97 C111 0.941 . S
H98 C112 0.939 . S
H99 C114 0.940 . S
H100 C115 0.940 . S
H101 C117 0.939 . S
H102 C118 0.942 . S
H103 C120 0.940 . S
H104 C121 0.939 . S
H105 C123 0.941 . S
H106 C127 0.939 . S
O107 P96 1.490 . S
H108 C124 0.939 . S
H109 C126 0.940 . S
C110 P96 1.812 . S
C110 C111 1.389 . S
C110 C115 1.391 . S
C111 H97 0.941 . S
C111 C110 1.389 . S
C111 C112 1.397 . S
C112 H98 0.939 . S
C112 C111 1.397 . S
C112 C113 1.378 . S
C113 C112 1.378 . S
C113 C114 1.378 . S
C114 H99 0.940 . S
C114 C113 1.378 . S
C114 C115 1.396 . S
C115 H100 0.940 . S
C115 C110 1.391 . S
C115 C114 1.396 . S
C116 P96 1.803 . S
C116 C117 1.378 . S
C116 C121 1.400 . S
C117 H101 0.939 . S
C117 C116 1.378 . S
C117 C118 1.361 . S
C118 H102 0.942 . S
C118 C117 1.361 . S
C118 C119 1.369 . S
C119 C118 1.369 . S
C119 C120 1.404 . S
C120 H103 0.940 . S
C120 C119 1.404 . S
C120 C121 1.389 . S
C121 H104 0.939 . S
C121 C116 1.400 . S
C121 C120 1.389 . S
C122 P96 1.819 . S
C122 C123 1.391 . S
C122 C127 1.391 . S
C123 H105 0.941 . S
C123 C122 1.391 . S
C123 C124 1.396 . S
C124 H108 0.939 . S
C124 C123 1.396 . S
C124 C125 1.397 . S
C125 C124 1.397 . S
C125 C126 1.385 . S
C126 H109 0.940 . S
C126 C125 1.385 . S
C126 C127 1.388 . S
C127 H106 0.939 . S
C127 C122 1.391 . S
C127 C126 1.388 . S
Eu128 N157 2.600 . S
Eu128 N163 2.562 . S
Eu128 O172 2.462 . S
Eu128 O173 2.373 . S
Eu128 O175 2.432 . S
Eu128 O176 2.291 1_565 S
Eu128 O180 2.339 1_455 S
Eu128 O183 2.372 1_455 S
Eu128 C192 2.787 . S
C129 N130 1.365 . S
C129 C132 1.405 . S
C129 C136 1.448 . S
N130 C129 1.365 . S
N130 C133 1.319 1_655 S
N130 Eu139 2.600 . S
C131 C133 1.397 1_655 S
C131 C134 1.368 . S
C131 H151 0.929 1_655 S
C132 C129 1.405 . S
C132 C134 1.403 . S
C132 C138 1.439 . S
C133 N130 1.319 1_455 S
C133 C131 1.397 1_455 S
C133 H144 0.930 . S
C134 C131 1.368 . S
C134 C132 1.403 . S
C134 H155 0.929 . S
C135 C136 1.430 . S
C135 C137 1.387 . S
C135 C141 1.404 . S
C136 C129 1.448 . S
C136 C135 1.430 . S
C136 N140 1.351 . S
C137 C135 1.387 . S
C137 C138 1.374 . S
C137 H152 0.931 . S
C138 C132 1.439 . S
C138 C137 1.374 . S
C138 H153 0.931 . S
Eu139 N130 2.600 . S
Eu139 N140 2.562 . S
Eu139 O174 2.335 1_655 S
Eu139 O177 2.372 1_655 S
Eu139 O178 2.462 . S
Eu139 O179 2.373 . S
Eu139 O181 2.432 . S
Eu139 O182 2.291 1_545 S
Eu139 C203 2.787 . S
N140 C136 1.351 . S
N140 Eu139 2.562 . S
N140 C142 1.325 . S
C141 C135 1.404 . S
C141 C143 1.366 . S
C141 H149 0.930 . S
C142 N140 1.325 . S
C142 C143 1.416 . S
C142 H148 0.929 . S
C143 C141 1.366 . S
C143 C142 1.416 . S
C143 H145 0.930 . S
H144 C133 0.930 . S
H145 C143 0.930 . S
H146 C161 0.930 1_655 S
H147 C168 0.930 . S
H148 C142 0.929 . S
H149 C141 0.930 . S
H150 C164 0.929 . S
H151 C131 0.929 1_455 S
H152 C137 0.931 . S
H153 C138 0.931 . S
H154 C159 0.931 1_655 S
H155 C134 0.929 . S
H156 C167 0.930 . S
N157 Eu128 2.600 . S
N157 C158 1.365 . S
N157 C161 1.319 . S
C158 N157 1.365 . S
C158 C160 1.405 . S
C158 C166 1.448 . S
C159 H154 0.931 1_455 S
C159 C161 1.397 . S
C159 C162 1.367 . S
C160 C158 1.405 . S
C160 C162 1.403 . S
C160 C193 1.439 . S
C161 H146 0.930 1_455 S
C161 N157 1.319 . S
C161 C159 1.397 . S
C162 C159 1.367 . S
C162 C160 1.403 . S
C162 H169 0.929 . S
N163 Eu128 2.562 . S
N163 C164 1.325 . S
N163 C166 1.351 . S
C164 H150 0.929 . S
C164 N163 1.325 . S
C164 C168 1.416 . S
C165 C166 1.430 . S
C165 C167 1.404 . S
C165 C194 1.387 . S
C166 C158 1.448 . S
C166 N163 1.351 . S
C166 C165 1.430 . S
C167 H156 0.930 . S
C167 C165 1.404 . S
C167 C168 1.366 . S
C168 H147 0.930 . S
C168 C164 1.416 . S
C168 C167 1.366 . S
H169 C162 0.929 . S
H170 C193 0.931 . S
H171 C194 0.931 . S
O172 Eu128 2.462 . S
O172 C192 1.252 . S
O173 Eu128 2.373 . S
O173 C184 1.249 . S
O174 Eu139 2.335 1_455 S
O174 C184 1.264 1_545 S
O175 Eu128 2.432 . S
O175 C192 1.268 . S
O176 Eu128 2.291 1_545 S
O176 C191 1.255 . S
O177 Eu139 2.372 1_455 S
O177 C191 1.257 . S
O178 Eu139 2.462 . S
O178 C203 1.252 . S
O179 Eu139 2.373 . S
O179 C195 1.249 . S
O180 Eu128 2.339 1_655 S
O180 C195 1.258 1_565 S
O181 Eu139 2.432 . S
O181 C203 1.268 . S
O182 Eu139 2.291 1_565 S
O182 C202 1.255 . S
O183 Eu128 2.372 1_655 S
O183 C202 1.257 . S
C184 O173 1.249 . S
C184 O174 1.264 1_565 S
C185 C188 1.382 . S
C185 C190 1.390 . S
C185 C192 1.506 . S
C186 C187 1.398 . S
C186 C190 1.392 . S
C187 C186 1.398 . S
C187 C189 1.372 . S
C187 H204 0.931 . S
C188 C185 1.382 . S
C188 C189 1.390 . S
C188 H205 0.931 . S
C189 C187 1.372 . S
C189 C188 1.390 . S
C189 H206 0.929 . S
C190 C185 1.390 . S
C190 C186 1.392 . S
C190 H207 0.930 . S
C191 O176 1.255 . S
C191 O177 1.257 . S
C192 Eu128 2.787 . S
C192 O172 1.252 . S
C192 O175 1.268 . S
C192 C185 1.506 . S
C193 C160 1.439 . S
C193 H170 0.931 . S
C193 C194 1.374 . S
C194 C165 1.387 . S
C194 H171 0.931 . S
C194 C193 1.374 . S
C195 O179 1.249 . S
C195 O180 1.258 1_545 S
C196 C199 1.382 . S
C196 C200 1.390 . S
C196 C203 1.506 . S
C197 C198 1.398 . S
C197 C200 1.392 . S
C198 C197 1.398 . S
C198 C201 1.372 . S
C198 H208 0.931 . S
C199 C196 1.382 . S
C199 C201 1.390 . S
C199 H209 0.931 . S
C200 C196 1.390 . S
C200 C197 1.392 . S
C200 H210 0.930 . S
C201 C198 1.372 . S
C201 C199 1.390 . S
C201 H211 0.929 . S
C202 O182 1.255 . S
C202 O183 1.257 . S
C203 Eu139 2.787 . S
C203 O178 1.252 . S
C203 O181 1.268 . S
C203 C196 1.506 . S
H204 C187 0.931 . S
H205 C188 0.931 . S
H206 C189 0.929 . S
H207 C190 0.930 . S
H208 C198 0.931 . S
H209 C199 0.931 . S
H210 C200 0.930 . S
H211 C201 0.929 . S
Eu212 N241 2.600 . S
Eu212 N247 2.562 1_556 S
Eu212 O256 2.462 . S
Eu212 O257 2.373 1_556 S
Eu212 O259 2.432 . S
Eu212 O260 2.291 1_556 S
Eu212 O264 2.335 . S
Eu212 O267 2.372 . S
Eu212 C276 2.787 . S
C213 N214 1.365 . S
C213 C216 1.405 . S
C213 C220 1.448 . S
N214 C213 1.365 . S
N214 C217 1.319 . S
N214 Eu223 2.600 . S
C215 C217 1.397 . S
C215 C218 1.367 . S
C215 H235 0.931 . S
C216 C213 1.405 . S
C216 C218 1.403 . S
C216 C222 1.439 . S
C217 N214 1.319 . S
C217 C215 1.397 . S
C217 H228 0.930 . S
C218 C215 1.367 . S
C218 C216 1.403 . S
C218 H239 0.929 . S
C219 C220 1.430 . S
C219 C221 1.387 . S
C219 C225 1.404 . S
C220 C213 1.448 . S
C220 C219 1.430 . S
C220 N224 1.351 . S
C221 C219 1.387 . S
C221 C222 1.374 . S
C221 H236 0.931 . S
C222 C216 1.439 . S
C222 C221 1.374 . S
C222 H237 0.931 . S
Eu223 N214 2.600 . S
Eu223 N224 2.562 . S
Eu223 O258 2.335 . S
Eu223 O261 2.372 . S
Eu223 O262 2.462 . S
Eu223 O263 2.373 1_554 S
Eu223 O265 2.432 . S
Eu223 O266 2.291 . S
Eu223 C287 2.787 . S
N224 C220 1.351 . S
N224 Eu223 2.562 . S
N224 C226 1.325 . S
C225 C219 1.404 . S
C225 C227 1.366 . S
C225 H233 0.930 . S
C226 N224 1.325 . S
C226 C227 1.416 . S
C226 H232 0.929 . S
C227 C225 1.366 . S
C227 C226 1.416 . S
C227 H229 0.930 . S
H228 C217 0.930 . S
H229 C227 0.930 . S
H230 C245 0.930 . S
H231 C252 0.930 . S
H232 C226 0.929 . S
H233 C225 0.930 . S
H234 C248 0.929 . S
H235 C215 0.931 . S
H236 C221 0.931 . S
H237 C222 0.931 . S
H238 C243 0.931 . S
H239 C218 0.929 . S
H240 C251 0.930 . S
N241 Eu212 2.600 . S
N241 C242 1.365 1_556 S
N241 C245 1.319 . S
C242 N241 1.365 1_554 S
C242 C244 1.405 . S
C242 C250 1.448 . S
C243 H238 0.931 . S
C243 C245 1.397 . S
C243 C246 1.367 1_556 S
C244 C242 1.405 . S
C244 C246 1.403 . S
C244 C277 1.439 . S
C245 H230 0.930 . S
C245 N241 1.319 . S
C245 C243 1.397 . S
C246 C243 1.367 1_554 S
C246 C244 1.403 . S
C246 H253 0.929 . S
N247 Eu212 2.562 1_554 S
N247 C248 1.325 . S
N247 C250 1.351 . S
C248 H234 0.929 . S
C248 N247 1.325 . S
C248 C252 1.416 . S
C249 C250 1.430 . S
C249 C251 1.404 . S
C249 C278 1.387 . S
C250 C242 1.448 . S
C250 N247 1.351 . S
C250 C249 1.430 . S
C251 H240 0.930 . S
C251 C249 1.404 . S
C251 C252 1.366 . S
C252 H231 0.930 . S
C252 C248 1.416 . S
C252 C251 1.366 . S
H253 C246 0.929 . S
H254 C277 0.931 . S
H255 C278 0.931 . S
O256 Eu212 2.462 . S
O256 C276 1.252 . S
O257 Eu212 2.373 1_554 S
O257 C268 1.249 . S
O258 Eu223 2.335 . S
O258 C268 1.264 . S
O259 Eu212 2.432 . S
O259 C276 1.268 . S
O260 Eu212 2.291 1_554 S
O260 C275 1.255 . S
O261 Eu223 2.372 . S
O261 C275 1.257 . S
O262 Eu223 2.462 . S
O262 C287 1.252 . S
O263 Eu223 2.373 1_556 S
O263 C279 1.249 . S
O264 Eu212 2.335 . S
O264 C279 1.264 . S
O265 Eu223 2.432 . S
O265 C287 1.268 . S
O266 Eu223 2.291 . S
O266 C286 1.255 . S
O267 Eu212 2.372 . S
O267 C286 1.257 1_556 S
C268 O257 1.249 . S
C268 O258 1.264 . S
C269 C272 1.382 . S
C269 C274 1.390 . S
C269 C276 1.506 . S
C270 C271 1.398 . S
C270 C274 1.392 . S
C271 C270 1.398 . S
C271 C273 1.372 . S
C271 H288 0.931 . S
C272 C269 1.382 . S
C272 C273 1.390 . S
C272 H289 0.931 . S
C273 C271 1.372 . S
C273 C272 1.390 . S
C273 H290 0.929 . S
C274 C269 1.390 . S
C274 C270 1.392 . S
C274 H291 0.930 . S
C275 O260 1.255 . S
C275 O261 1.257 . S
C276 Eu212 2.787 . S
C276 O256 1.252 . S
C276 O259 1.268 . S
C276 C269 1.506 . S
C277 C244 1.439 . S
C277 H254 0.931 . S
C277 C278 1.374 . S
C278 C249 1.387 . S
C278 H255 0.931 . S
C278 C277 1.374 . S
C279 O263 1.249 . S
C279 O264 1.264 . S
C280 C283 1.382 . S
C280 C284 1.390 . S
C280 C287 1.506 . S
C281 C282 1.398 . S
C281 C284 1.392 . S
C282 C281 1.398 . S
C282 C285 1.372 . S
C282 H292 0.931 . S
C283 C280 1.382 . S
C283 C285 1.390 . S
C283 H293 0.931 . S
C284 C280 1.390 . S
C284 C281 1.392 . S
C284 H294 0.930 . S
C285 C282 1.372 . S
C285 C283 1.390 . S
C285 H295 0.929 . S
C286 O266 1.255 . S
C286 O267 1.257 1_554 S
C287 Eu223 2.787 . S
C287 O262 1.252 . S
C287 O265 1.268 . S
C287 C280 1.506 . S
H288 C271 0.931 . S
H289 C272 0.931 . S
H290 C273 0.929 . S
H291 C274 0.930 . S
H292 C282 0.931 . S
H293 C283 0.931 . S
H294 C284 0.930 . S
H295 C285 0.929 . S
C296 C297 1.349 . S
C296 C298 1.327 . S
C296 H321 0.950 . S
C297 C296 1.349 . S
C297 C313 1.349 . S
C298 C296 1.327 . S
C298 C317 1.429 . S
C298 H322 0.950 . S
C299 C316 1.574 . S
C299 C318 1.368 . S
C299 H323 0.949 . S
H300 C304 0.949 . S
C301 C302 1.349 . S
C301 C303 1.327 . S
C301 H324 0.950 . S
C302 C301 1.349 . S
C302 C314 1.349 . S
C303 C301 1.327 . S
C303 C319 1.429 . S
C303 H325 0.950 . S
C304 H300 0.949 . S
C304 C312 1.574 . S
C304 C320 1.368 . S
H305 C313 0.950 . S
H306 C311 0.950 . S
H307 C312 0.949 . S
H308 C314 0.950 . S
H309 C315 0.950 . S
H310 C316 0.949 . S
C311 H306 0.950 . S
C311 C313 1.327 . S
C311 C317 1.429 . S
C312 C304 1.574 . S
C312 H307 0.949 . S
C312 C318 1.368 . S
C313 C297 1.349 . S
C313 H305 0.950 . S
C313 C311 1.327 . S
C314 C302 1.349 . S
C314 H308 0.950 . S
C314 C315 1.327 . S
C315 H309 0.950 . S
C315 C314 1.327 . S
C315 C319 1.429 . S
C316 C299 1.574 . S
C316 H310 0.949 . S
C316 C320 1.368 . S
C317 C298 1.429 . S
C317 C311 1.429 . S
C317 C318 1.523 . S
C318 C299 1.368 . S
C318 C312 1.368 . S
C318 C317 1.523 . S
C319 C303 1.429 . S
C319 C315 1.429 . S
C319 C320 1.523 . S
C320 C304 1.368 . S
C320 C316 1.368 . S
C320 C319 1.523 . S
H321 C296 0.950 . S
H322 C298 0.950 . S
H323 C299 0.949 . S
H324 C301 0.950 . S
H325 C303 0.950 . S
C326 C327 1.349 . S
C326 C328 1.327 . S
C326 H351 0.950 . S
C327 C326 1.349 . S
C327 C343 1.349 . S
C328 C326 1.327 . S
C328 C347 1.429 . S
C328 H352 0.950 . S
C329 C346 1.574 . S
C329 C348 1.368 . S
C329 H353 0.949 1_554 S
H330 C334 0.949 . S
C331 C332 1.349 . S
C331 C333 1.327 . S
C331 H354 0.950 1_554 S
C332 C331 1.349 . S
C332 C344 1.349 . S
C333 C331 1.327 . S
C333 C349 1.429 . S
C333 H355 0.950 1_554 S
C334 H330 0.949 . S
C334 C342 1.574 . S
C334 C350 1.368 . S
H335 C343 0.950 1_556 S
H336 C341 0.950 1_556 S
H337 C342 0.949 . S
H338 C344 0.950 . S
H339 C345 0.950 . S
H340 C346 0.949 1_556 S
C341 H336 0.950 1_554 S
C341 C343 1.327 . S
C341 C347 1.429 . S
C342 C334 1.574 . S
C342 H337 0.949 . S
C342 C348 1.368 . S
C343 C327 1.349 . S
C343 H335 0.950 1_554 S
C343 C341 1.327 . S
C344 C332 1.349 . S
C344 H338 0.950 . S
C344 C345 1.327 . S
C345 H339 0.950 . S
C345 C344 1.327 . S
C345 C349 1.429 . S
C346 C329 1.574 . S
C346 H340 0.949 1_554 S
C346 C350 1.368 . S
C347 C328 1.429 . S
C347 C341 1.429 . S
C347 C348 1.523 . S
C348 C329 1.368 . S
C348 C342 1.368 . S
C348 C347 1.523 . S
C349 C333 1.429 . S
C349 C345 1.429 . S
C349 C350 1.523 . S
C350 C334 1.368 . S
C350 C346 1.368 . S
C350 C349 1.523 . S
H351 C326 0.950 . S
H352 C328 0.950 . S
H353 C329 0.949 1_556 S
H354 C331 0.950 1_556 S
H355 C333 0.950 1_556 S
C356 C357 1.349 . S
C356 C358 1.327 . S
C356 H381 0.950 . S
C357 C356 1.349 . S
C357 C373 1.349 . S
C358 C356 1.327 . S
C358 C377 1.429 . S
C358 H382 0.950 . S
C359 C376 1.574 . S
C359 C378 1.368 . S
C359 H383 0.949 . S
H360 C364 0.949 . S
C361 C362 1.349 . S
C361 C363 1.327 . S
C361 H384 0.950 . S
C362 C361 1.349 . S
C362 C374 1.349 . S
C363 C361 1.327 . S
C363 C379 1.429 . S
C363 H385 0.950 . S
C364 H360 0.949 . S
C364 C372 1.574 . S
C364 C380 1.368 . S
H365 C373 0.950 . S
H366 C371 0.950 . S
H367 C372 0.949 . S
H368 C374 0.950 . S
H369 C375 0.950 . S
H370 C376 0.949 . S
C371 H366 0.950 . S
C371 C373 1.327 . S
C371 C377 1.429 . S
C372 C364 1.574 . S
C372 H367 0.949 . S
C372 C378 1.368 . S
C373 C357 1.349 . S
C373 H365 0.950 . S
C373 C371 1.327 . S
C374 C362 1.349 . S
C374 H368 0.950 . S
C374 C375 1.327 . S
C375 H369 0.950 . S
C375 C374 1.327 . S
C375 C379 1.429 . S
C376 C359 1.574 . S
C376 H370 0.949 . S
C376 C380 1.368 . S
C377 C358 1.429 . S
C377 C371 1.429 . S
C377 C378 1.523 . S
C378 C359 1.368 . S
C378 C372 1.368 . S
C378 C377 1.523 . S
C379 C363 1.429 . S
C379 C375 1.429 . S
C379 C380 1.523 . S
C380 C364 1.368 . S
C380 C376 1.368 . S
C380 C379 1.523 . S
H381 C356 0.950 . S
H382 C358 0.950 . S
H383 C359 0.949 . S
H384 C361 0.950 . S
H385 C363 0.950 . S
C386 C387 1.349 1_556 S
C386 C388 1.327 . S
C386 H411 0.950 . S
C387 C386 1.349 1_554 S
C387 C403 1.349 . S
C388 C386 1.327 . S
C388 C407 1.429 1_556 S
C388 H412 0.950 . S
C389 C406 1.574 . S
C389 C408 1.368 . S
C389 H413 0.949 . S
H390 C394 0.949 . S
C391 C392 1.349 . S
C391 C393 1.327 . S
C391 H414 0.950 . S
C392 C391 1.349 . S
C392 C404 1.349 1_554 S
C393 C391 1.327 . S
C393 C409 1.429 . S
C393 H415 0.950 . S
C394 H390 0.949 . S
C394 C402 1.574 . S
C394 C410 1.368 1_556 S
H395 C403 0.950 . S
H396 C401 0.950 . S
H397 C402 0.949 . S
H398 C404 0.950 . S
H399 C405 0.950 . S
H400 C406 0.949 . S
C401 H396 0.950 . S
C401 C403 1.327 . S
C401 C407 1.429 . S
C402 C394 1.574 . S
C402 H397 0.949 . S
C402 C408 1.368 1_556 S
C403 C387 1.349 . S
C403 H395 0.950 . S
C403 C401 1.327 . S
C404 C392 1.349 1_556 S
C404 H398 0.950 . S
C404 C405 1.327 . S
C405 H399 0.950 . S
C405 C404 1.327 . S
C405 C409 1.429 1_556 S
C406 C389 1.574 . S
C406 H400 0.949 . S
C406 C410 1.368 . S
C407 C388 1.429 1_554 S
C407 C401 1.429 . S
C407 C408 1.523 . S
C408 C389 1.368 . S
C408 C402 1.368 1_554 S
C408 C407 1.523 . S
C409 C393 1.429 . S
C409 C405 1.429 1_554 S
C409 C410 1.523 . S
C410 C394 1.368 1_554 S
C410 C406 1.368 . S
C410 C409 1.523 . S
H411 C386 0.950 . S
H412 C388 0.950 . S
H413 C389 0.949 . S
H414 C391 0.950 . S
H415 C393 0.950 . S
C416 C417 1.349 . S
C416 C418 1.327 . S
C416 H441 0.950 . S
C417 C416 1.349 . S
C417 C433 1.349 . S
C418 C416 1.327 . S
C418 C437 1.429 . S
C418 H442 0.950 . S
C419 C436 1.574 . S
C419 C438 1.368 . S
C419 H443 0.949 . S
H420 C424 0.949 . S
C421 C422 1.349 . S
C421 C423 1.327 . S
C421 H444 0.950 . S
C422 C421 1.349 . S
C422 C434 1.349 . S
C423 C421 1.327 . S
C423 C439 1.429 . S
C423 H445 0.950 . S
C424 H420 0.949 . S
C424 C432 1.574 . S
C424 C440 1.368 . S
H425 C433 0.950 . S
H426 C431 0.950 . S
H427 C432 0.949 . S
H428 C434 0.950 . S
H429 C435 0.950 . S
H430 C436 0.949 . S
C431 H426 0.950 . S
C431 C433 1.327 . S
C431 C437 1.429 . S
C432 C424 1.574 . S
C432 H427 0.949 . S
C432 C438 1.368 . S
C433 C417 1.349 . S
C433 H425 0.950 . S
C433 C431 1.327 . S
C434 C422 1.349 . S
C434 H428 0.950 . S
C434 C435 1.327 . S
C435 H429 0.950 . S
C435 C434 1.327 . S
C435 C439 1.429 . S
C436 C419 1.574 . S
C436 H430 0.949 . S
C436 C440 1.368 . S
C437 C418 1.429 . S
C437 C431 1.429 . S
C437 C438 1.523 . S
C438 C419 1.368 . S
C438 C432 1.368 . S
C438 C437 1.523 . S
C439 C423 1.429 . S
C439 C435 1.429 . S
C439 C440 1.523 . S
C440 C424 1.368 . S
C440 C436 1.368 . S
C440 C439 1.523 . S
H441 C416 0.950 . S
H442 C418 0.950 . S
H443 C419 0.949 . S
H444 C421 0.950 . S
H445 C423 0.950 . S
C446 C447 1.349 . S
C446 C448 1.327 . S
C446 H471 0.950 . S
C447 C446 1.349 . S
C447 C463 1.349 . S
C448 C446 1.327 . S
C448 C467 1.429 . S
C448 H472 0.950 . S
C449 C466 1.574 . S
C449 C468 1.368 . S
C449 H473 0.949 . S
H450 C454 0.949 . S
C451 C452 1.349 . S
C451 C453 1.327 . S
C451 H474 0.950 . S
C452 C451 1.349 . S
C452 C464 1.349 . S
C453 C451 1.327 . S
C453 C469 1.429 . S
C453 H475 0.950 . S
C454 H450 0.949 . S
C454 C462 1.574 . S
C454 C470 1.368 . S
H455 C463 0.950 . S
H456 C461 0.950 . S
H457 C462 0.949 . S
H458 C464 0.950 . S
H459 C465 0.950 . S
H460 C466 0.949 . S
C461 H456 0.950 . S
C461 C463 1.327 . S
C461 C467 1.429 . S
C462 C454 1.574 . S
C462 H457 0.949 . S
C462 C468 1.368 . S
C463 C447 1.349 . S
C463 H455 0.950 . S
C463 C461 1.327 . S
C464 C452 1.349 . S
C464 H458 0.950 . S
C464 C465 1.327 . S
C465 H459 0.950 . S
C465 C464 1.327 . S
C465 C469 1.429 . S
C466 C449 1.574 . S
C466 H460 0.949 . S
C466 C470 1.368 . S
C467 C448 1.429 . S
C467 C461 1.429 . S
C467 C468 1.523 . S
C468 C449 1.368 . S
C468 C462 1.368 . S
C468 C467 1.523 . S
C469 C453 1.429 . S
C469 C465 1.429 . S
C469 C470 1.523 . S
C470 C454 1.368 . S
C470 C466 1.368 . S
C470 C469 1.523 . S
H471 C446 0.950 . S
H472 C448 0.950 . S
H473 C449 0.949 . S
H474 C451 0.950 . S
H475 C453 0.950 . S
C476 C477 1.349 . S
C476 C478 1.327 . S
C476 H501 0.950 . S
C477 C476 1.349 . S
C477 C493 1.349 . S
C478 C476 1.327 . S
C478 C497 1.429 . S
C478 H502 0.950 . S
C479 C496 1.574 . S
C479 C498 1.368 . S
C479 H503 0.949 . S
H480 C484 0.949 . S
C481 C482 1.349 . S
C481 C483 1.327 . S
C481 H504 0.950 1_545 S
C482 C481 1.349 . S
C482 C494 1.349 . S
C483 C481 1.327 . S
C483 C499 1.429 . S
C483 H505 0.950 . S
C484 H480 0.949 . S
C484 C492 1.574 . S
C484 C500 1.368 . S
H485 C493 0.950 . S
H486 C491 0.950 . S
H487 C492 0.949 . S
H488 C494 0.950 . S
H489 C495 0.950 . S
H490 C496 0.949 . S
C491 H486 0.950 . S
C491 C493 1.327 . S
C491 C497 1.429 . S
C492 C484 1.574 . S
C492 H487 0.949 . S
C492 C498 1.368 . S
C493 C477 1.349 . S
C493 H485 0.950 . S
C493 C491 1.327 . S
C494 C482 1.349 . S
C494 H488 0.950 . S
C494 C495 1.327 . S
C495 H489 0.950 . S
C495 C494 1.327 . S
C495 C499 1.429 . S
C496 C479 1.574 . S
C496 H490 0.949 . S
C496 C500 1.368 . S
C497 C478 1.429 . S
C497 C491 1.429 . S
C497 C498 1.523 . S
C498 C479 1.368 . S
C498 C492 1.368 . S
C498 C497 1.523 . S
C499 C483 1.429 . S
C499 C495 1.429 . S
C499 C500 1.523 . S
C500 C484 1.368 . S
C500 C496 1.368 . S
C500 C499 1.523 . S
H501 C476 0.950 . S
H502 C478 0.950 . S
H503 C479 0.949 . S
H504 C481 0.950 1_565 S
H505 C483 0.950 . S
C506 C507 1.349 . S
C506 C508 1.327 . S
C506 H531 0.950 . S
C507 C506 1.349 . S
C507 C523 1.349 . S
C508 C506 1.327 . S
C508 C527 1.429 . S
C508 H532 0.950 . S
C509 C526 1.574 . S
C509 C528 1.368 . S
C509 H533 0.949 . S
H510 C514 0.949 . S
C511 C512 1.349 . S
C511 C513 1.327 . S
C511 H534 0.950 . S
C512 C511 1.349 . S
C512 C524 1.349 . S
C513 C511 1.327 . S
C513 C529 1.429 . S
C513 H535 0.950 . S
C514 H510 0.949 . S
C514 C522 1.574 . S
C514 C530 1.368 . S
H515 C523 0.950 . S
H516 C521 0.950 . S
H517 C522 0.949 . S
H518 C524 0.950 . S
H519 C525 0.950 . S
H520 C526 0.949 . S
C521 H516 0.950 . S
C521 C523 1.327 . S
C521 C527 1.429 . S
C522 C514 1.574 . S
C522 H517 0.949 . S
C522 C528 1.368 . S
C523 C507 1.349 . S
C523 H515 0.950 . S
C523 C521 1.327 . S
C524 C512 1.349 . S
C524 H518 0.950 . S
C524 C525 1.327 . S
C525 H519 0.950 . S
C525 C524 1.327 . S
C525 C529 1.429 . S
C526 C509 1.574 . S
C526 H520 0.949 . S
C526 C530 1.368 . S
C527 C508 1.429 . S
C527 C521 1.429 . S
C527 C528 1.523 . S
C528 C509 1.368 . S
C528 C522 1.368 . S
C528 C527 1.523 . S
C529 C513 1.429 . S
C529 C525 1.429 . S
C529 C530 1.523 . S
C530 C514 1.368 . S
C530 C526 1.368 . S
C530 C529 1.523 . S
H531 C506 0.950 . S
H532 C508 0.950 . S
H533 C509 0.949 . S
H534 C511 0.950 . S
H535 C513 0.950 . S
C536 C537 1.349 . S
C536 C538 1.327 . S
C536 H561 0.950 . S
C537 C536 1.349 . S
C537 C553 1.349 . S
C538 C536 1.327 . S
C538 C557 1.429 . S
C538 H562 0.950 . S
C539 C556 1.574 . S
C539 C558 1.368 . S
C539 H563 0.949 . S
H540 C544 0.949 . S
C541 C542 1.349 . S
C541 C543 1.327 . S
C541 H564 0.950 . S
C542 C541 1.349 . S
C542 C554 1.349 . S
C543 C541 1.327 . S
C543 C559 1.429 . S
C543 H565 0.950 . S
C544 H540 0.949 . S
C544 C552 1.574 . S
C544 C560 1.368 . S
H545 C553 0.950 . S
H546 C551 0.950 . S
H547 C552 0.949 . S
H548 C554 0.950 . S
H549 C555 0.950 . S
H550 C556 0.949 . S
C551 H546 0.950 . S
C551 C553 1.327 . S
C551 C557 1.429 . S
C552 C544 1.574 . S
C552 H547 0.949 . S
C552 C558 1.368 . S
C553 C537 1.349 . S
C553 H545 0.950 . S
C553 C551 1.327 . S
C554 C542 1.349 . S
C554 H548 0.950 . S
C554 C555 1.327 . S
C555 H549 0.950 . S
C555 C554 1.327 . S
C555 C559 1.429 . S
C556 C539 1.574 . S
C556 H550 0.949 . S
C556 C560 1.368 . S
C557 C538 1.429 . S
C557 C551 1.429 . S
C557 C558 1.523 . S
C558 C539 1.368 . S
C558 C552 1.368 . S
C558 C557 1.523 . S
C559 C543 1.429 . S
C559 C555 1.429 . S
C559 C560 1.523 . S
C560 C544 1.368 . S
C560 C556 1.368 . S
C560 C559 1.523 . S
H561 C536 0.950 . S
H562 C538 0.950 . S
H563 C539 0.949 . S
H564 C541 0.950 . S
H565 C543 0.950 . S
C566 C567 1.349 . S
C566 C568 1.327 . S
C566 H591 0.950 . S
C567 C566 1.349 . S
C567 C583 1.349 . S
C568 C566 1.327 . S
C568 C587 1.429 . S
C568 H592 0.950 . S
C569 C586 1.574 . S
C569 C588 1.368 . S
C569 H593 0.949 . S
H570 C574 0.949 . S
C571 C572 1.349 . S
C571 C573 1.327 . S
C571 H594 0.950 . S
C572 C571 1.349 . S
C572 C584 1.349 . S
C573 C571 1.327 . S
C573 C589 1.429 . S
C573 H595 0.950 . S
C574 H570 0.949 . S
C574 C582 1.574 . S
C574 C590 1.368 . S
H575 C583 0.950 . S
H576 C581 0.950 . S
H577 C582 0.949 . S
H578 C584 0.950 . S
H579 C585 0.950 . S
H580 C586 0.949 . S
C581 H576 0.950 . S
C581 C583 1.327 . S
C581 C587 1.429 . S
C582 C574 1.574 . S
C582 H577 0.949 . S
C582 C588 1.368 . S
C583 C567 1.349 . S
C583 H575 0.950 . S
C583 C581 1.327 . S
C584 C572 1.349 . S
C584 H578 0.950 . S
C584 C585 1.327 . S
C585 H579 0.950 . S
C585 C584 1.327 . S
C585 C589 1.429 . S
C586 C569 1.574 . S
C586 H580 0.949 . S
C586 C590 1.368 . S
C587 C568 1.429 . S
C587 C581 1.429 . S
C587 C588 1.523 . S
C588 C569 1.368 . S
C588 C582 1.368 . S
C588 C587 1.523 . S
C589 C573 1.429 . S
C589 C585 1.429 . S
C589 C590 1.523 . S
C590 C574 1.368 . S
C590 C586 1.368 . S
C590 C589 1.523 . S
H591 C566 0.950 . S
H592 C568 0.950 . S
H593 C569 0.949 . S
H594 C571 0.950 . S
H595 C573 0.950 . S
C596 C597 1.349 . S
C596 C598 1.327 . S
C596 H621 0.950 . S
C597 C596 1.349 . S
C597 C613 1.349 . S
C598 C596 1.327 . S
C598 C617 1.429 . S
C598 H622 0.950 . S
C599 C616 1.574 . S
C599 C618 1.368 . S
C599 H623 0.949 . S
H600 C604 0.949 . S
C601 C602 1.349 . S
C601 C603 1.327 . S
C601 H624 0.950 . S
C602 C601 1.349 . S
C602 C614 1.349 . S
C603 C601 1.327 . S
C603 C619 1.429 . S
C603 H625 0.950 . S
C604 H600 0.949 . S
C604 C612 1.574 . S
C604 C620 1.368 . S
H605 C613 0.950 . S
H606 C611 0.950 . S
H607 C612 0.949 . S
H608 C614 0.950 . S
H609 C615 0.950 . S
H610 C616 0.949 . S
C611 H606 0.950 . S
C611 C613 1.327 . S
C611 C617 1.429 . S
C612 C604 1.574 . S
C612 H607 0.949 . S
C612 C618 1.368 . S
C613 C597 1.349 . S
C613 H605 0.950 . S
C613 C611 1.327 . S
C614 C602 1.349 . S
C614 H608 0.950 . S
C614 C615 1.327 . S
C615 H609 0.950 . S
C615 C614 1.327 . S
C615 C619 1.429 . S
C616 C599 1.574 . S
C616 H610 0.949 . S
C616 C620 1.368 . S
C617 C598 1.429 . S
C617 C611 1.429 . S
C617 C618 1.523 . S
C618 C599 1.368 . S
C618 C612 1.368 . S
C618 C617 1.523 . S
C619 C603 1.429 . S
C619 C615 1.429 . S
C619 C620 1.523 . S
C620 C604 1.368 . S
C620 C616 1.368 . S
C620 C619 1.523 . S
H621 C596 0.950 . S
H622 C598 0.950 . S
H623 C599 0.949 . S
H624 C601 0.950 . S
H625 C603 0.950 . S
C626 C627 1.349 . S
C626 C628 1.327 . S
C626 H651 0.950 . S
C627 C626 1.349 . S
C627 C643 1.349 . S
C628 C626 1.327 . S
C628 C647 1.429 . S
C628 H652 0.950 . S
C629 C646 1.574 . S
C629 C648 1.368 . S
C629 H653 0.949 . S
H630 C634 0.949 . S
C631 C632 1.349 . S
C631 C633 1.327 . S
C631 H654 0.950 . S
C632 C631 1.349 . S
C632 C644 1.349 . S
C633 C631 1.327 . S
C633 C649 1.429 . S
C633 H655 0.950 . S
C634 H630 0.949 . S
C634 C642 1.574 . S
C634 C650 1.368 . S
H635 C643 0.950 . S
H636 C641 0.950 . S
H637 C642 0.949 . S
H638 C644 0.950 1_545 S
H639 C645 0.950 1_545 S
H640 C646 0.949 . S
C641 H636 0.950 . S
C641 C643 1.327 . S
C641 C647 1.429 . S
C642 C634 1.574 . S
C642 H637 0.949 . S
C642 C648 1.368 . S
C643 C627 1.349 . S
C643 H635 0.950 . S
C643 C641 1.327 . S
C644 C632 1.349 . S
C644 H638 0.950 1_565 S
C644 C645 1.327 . S
C645 H639 0.950 1_565 S
C645 C644 1.327 . S
C645 C649 1.429 . S
C646 C629 1.574 . S
C646 H640 0.949 . S
C646 C650 1.368 . S
C647 C628 1.429 . S
C647 C641 1.429 . S
C647 C648 1.523 . S
C648 C629 1.368 . S
C648 C642 1.368 . S
C648 C647 1.523 . S
C649 C633 1.429 . S
C649 C645 1.429 . S
C649 C650 1.523 . S
C650 C634 1.368 . S
C650 C646 1.368 . S
C650 C649 1.523 . S
H651 C626 0.950 . S
H652 C628 0.950 . S
H653 C629 0.949 . S
H654 C631 0.950 . S
H655 C633 0.950 . S
C302 C191 1.616 . S
C297 C119 1.617 . S
C327 C23 1.607 . S
C332 C286 1.590 . S
C357 C55 1.569 . S
C362 C202 1.616 . S
C387 C87 1.540 . S
C392 C275 1.590 . S
C422 C186 1.402 . S
C417 C17 1.550 . S
C452 C279 1.605 . S
C447 C61 1.542 . S
C477 C93 1.503 . S
C482 C195 1.588 . S
C507 C113 1.530 . S
C512 C270 1.401 . S
C542 C281 1.401 . S
C537 C49 1.501 . S
C572 C197 1.402 . S
C567 C81 1.509 . S
C602 C268 1.605 . S
C597 C125 1.595 . S
C627 C29 1.580 . S
C632 C184 1.588 . S
