# Generated by pormake.
# Topology anh, (6,3)-cn, num edge types: 1
# Building blocks:
#     Node 0, Type 0, BuildingBlock: PAMTUU_clean_sbu_0, # of connection points: 6
#     Node 1, Type 0, BuildingBlock: PAMTUU_clean_sbu_0, # of connection points: 6
#     Node 2, Type 0, BuildingBlock: PAMTUU_clean_sbu_0, # of connection points: 6
#     Node 3, Type 1, BuildingBlock: PAMTOO_clean_linker_0, # of connection points: 3
#     Node 4, Type 1, BuildingBlock: PAMTOO_clean_linker_0, # of connection points: 3
#     Node 5, Type 1, BuildingBlock: PAMTOO_clean_linker_0, # of connection points: 3
#     Node 6, Type 1, BuildingBlock: PAMTOO_clean_linker_0, # of connection points: 3
#     Node 7, Type 1, BuildingBlock: PAMTOO_clean_linker_0, # of connection points: 3
#     Node 8, Type 1, BuildingBlock: PAMTOO_clean_linker_0, # of connection points: 3
#     Edge 9, Type (0, 1), BuildingBlock: EZIPEK_clean_linker_0, # of connection points: 2
#     Edge 10, Type (0, 1), BuildingBlock: EZIPEK_clean_linker_0, # of connection points: 2
#     Edge 11, Type (0, 1), BuildingBlock: EZIPEK_clean_linker_0, # of connection points: 2
#     Edge 12, Type (0, 1), BuildingBlock: EZIPEK_clean_linker_0, # of connection points: 2
#     Edge 13, Type (0, 1), BuildingBlock: EZIPEK_clean_linker_0, # of connection points: 2
#     Edge 14, Type (0, 1), BuildingBlock: EZIPEK_clean_linker_0, # of connection points: 2
#     Edge 15, Type (0, 1), BuildingBlock: EZIPEK_clean_linker_0, # of connection points: 2
#     Edge 16, Type (0, 1), BuildingBlock: EZIPEK_clean_linker_0, # of connection points: 2
#     Edge 17, Type (0, 1), BuildingBlock: EZIPEK_clean_linker_0, # of connection points: 2
#     Edge 18, Type (0, 1), BuildingBlock: EZIPEK_clean_linker_0, # of connection points: 2
#     Edge 19, Type (0, 1), BuildingBlock: EZIPEK_clean_linker_0, # of connection points: 2
#     Edge 20, Type (0, 1), BuildingBlock: EZIPEK_clean_linker_0, # of connection points: 2
#     Edge 21, Type (0, 1), BuildingBlock: EZIPEK_clean_linker_0, # of connection points: 2
#     Edge 22, Type (0, 1), BuildingBlock: EZIPEK_clean_linker_0, # of connection points: 2
#     Edge 23, Type (0, 1), BuildingBlock: EZIPEK_clean_linker_0, # of connection points: 2
#     Edge 24, Type (0, 1), BuildingBlock: EZIPEK_clean_linker_0, # of connection points: 2
#     Edge 25, Type (0, 1), BuildingBlock: EZIPEK_clean_linker_0, # of connection points: 2
#     Edge 26, Type (0, 1), BuildingBlock: EZIPEK_clean_linker_0, # of connection points: 2
# Relax obj value: 0.401
# Max RMSD: 0.171
# Mean RMSD: 0.134
data_MOF--net-anh--node1-PAMTUU_clean_sbu_0--node2-PAMTOO_clean_linker_0--edge1-EZIPEK_clean_linker_0
_symmetry_space_group_name_H-M    P1
_symmetry_Int_Tables_number       1
_symmetry_cell_setting            triclinic
loop_
_symmetry_equiv_pos_as_xyz
'x, y, z'
_cell_length_a     22.055913
_cell_length_b     22.462248
_cell_length_c     36.419108
_cell_angle_alpha  87.955566
_cell_angle_beta   92.443801
_cell_angle_gamma 119.41569
loop_
_atom_site_label
_atom_site_type_symbol
_atom_site_fract_x
_atom_site_fract_y
_atom_site_fract_z
_atom_type_partial_charge
Tb0 Tb 0.25023 0.71151 0.17633 0.0
Tb1 Tb 0.33948 0.63667 0.16536 0.0
C2 C 0.27082 0.67052 0.0965 0.0
C3 C 1.09617 0.73035 0.18305 0.0
C4 C 0.95029 0.64988 0.17907 0.0
C5 C 0.98873 0.66918 0.14698 0.0
C6 C 1.0609 0.70913 0.14887 0.0
C7 C 1.05714 0.71351 0.21514 0.0
C8 C 0.98445 0.6735 0.21316 0.0
C9 C 1.17299 0.76305 0.18557 0.0
O10 O 1.16599 0.60325 0.17081 0.0
O11 O 0.2323 0.55061 0.17859 0.0
O12 O 0.36337 0.67627 0.22019 0.0
O13 O 0.25728 0.66493 0.2287 0.0
O14 O 0.37526 0.57284 0.18852 0.0
O15 O 0.40526 0.61655 0.13407 0.0
O16 O 0.41992 0.74799 0.16136 0.0
O17 O 0.35988 0.79629 0.18541 0.0
O18 O 0.26115 0.71263 0.11652 0.0
O19 O 0.29113 0.62925 0.11146 0.0
C20 C 1.16979 0.54655 0.1768 0.0
O21 O 0.19846 0.74161 0.21241 0.0
O22 O 0.20439 0.76871 0.15512 0.0
C23 C 0.31502 0.66889 0.24209 0.0
C24 C 0.38939 0.50607 0.14562 0.0
C25 C 0.36217 0.37651 0.12422 0.0
C26 C 0.30725 0.38602 0.13486 0.0
C27 C 0.32081 0.45085 0.14543 0.0
C28 C 0.44374 0.4964 0.13462 0.0
C29 C 0.43022 0.43211 0.12398 0.0
C30 C 0.40595 0.57332 0.15873 0.0
C31 C 0.41964 0.8023 0.17477 0.0
H32 H 0.96282 0.65184 0.12042 0.0
H33 H 1.089 0.72124 0.12356 0.0
H34 H 1.08302 0.72929 0.24181 0.0
H35 H 0.95515 0.6594 0.23813 0.0
H36 H 0.25454 0.34353 0.1352 0.0
H37 H 0.27818 0.4577 0.15391 0.0
H38 H 0.49682 0.53837 0.13473 0.0
H39 H 0.4732 0.42552 0.11593 0.0
Tb40 Tb 0.66978 0.15605 0.48376 0.0
Tb41 Tb 0.82694 0.22731 0.51823 0.0
C42 C 0.79714 0.22283 0.43046 0.0
C43 C 0.47892 1.06064 0.47858 0.0
C44 C 0.36912 0.93413 0.49999 0.0
C45 C 0.36239 0.96789 0.46773 0.0
C46 C 0.41869 1.02957 0.45631 0.0
C47 C 0.47749 1.03665 0.51478 0.0
C48 C 0.42185 0.97449 0.52587 0.0
C49 C 0.54459 0.11273 0.46313 0.0
O50 O 0.68744 1.06504 0.49287 0.0
O51 O 0.80181 0.11984 0.51298 0.0
O52 O 0.75917 0.18841 0.56587 0.0
O53 O 0.65192 0.11936 0.53928 0.0
O54 O 0.92277 0.22934 0.52224 0.0
O55 O 0.90039 0.28998 0.55806 0.0
O56 O 0.81456 0.31942 0.51122 0.0
O57 O 0.69885 0.26487 0.49443 0.0
O58 O 0.72988 0.18612 0.43463 0.0
O59 O 0.8424 0.24672 0.45849 0.0
C60 C 0.74474 1.06265 0.50432 0.0
O61 O 0.58019 0.16576 0.48362 0.0
O62 O 0.58401 1.09049 0.45018 0.0
C63 C 0.69279 0.14296 0.5681 0.0
C64 C 1.01675 0.33028 0.54365 0.0
C65 C 1.15374 0.4323 0.53291 0.0
C66 C 1.13711 0.39231 0.56517 0.0
C67 C 1.06857 0.34108 0.57045 0.0
C68 C 1.0332 0.37133 0.51182 0.0
C69 C 1.10154 0.42211 0.50646 0.0
C70 C 0.94656 0.27391 0.54836 0.0
C71 C 0.7567 0.32181 0.5035 0.0
H72 H 0.31925 0.94205 0.44836 0.0
H73 H 0.41736 1.04967 0.42897 0.0
H74 H 0.52173 1.06253 0.53345 0.0
H75 H 0.42638 0.95416 0.5526 0.0
H76 H 1.17709 0.4003 0.58583 0.0
H77 H 1.05612 0.30937 0.59513 0.0
H78 H 0.99346 0.36332 0.49097 0.0
H79 H 1.11398 0.45322 0.48154 0.0
Tb80 Tb 0.74535 0.58832 0.81571 0.0
Tb81 Tb 0.82639 0.7465 0.83717 0.0
C82 C 0.79344 0.70433 0.75438 0.0
C83 C 0.64031 0.39227 0.80395 0.0
C84 C 0.55567 0.25005 0.79876 0.0
C85 C 0.53258 0.28827 0.81736 0.0
C86 C 0.57474 0.35867 0.82026 0.0
C87 C 0.66583 0.35301 0.78817 0.0
C88 C 0.62402 0.28196 0.78607 0.0
C89 C 0.67203 0.46611 0.79554 0.0
O90 O 0.85545 0.60909 0.82362 0.0
O91 O 0.9119 0.72229 0.83973 0.0
O92 O 0.77206 0.68343 0.8854 0.0
O93 O 0.77478 0.58684 0.87241 0.0
O94 O 0.86846 0.85082 0.82459 0.0
O95 O 0.87375 0.81689 0.88004 0.0
O96 O 0.71854 0.72625 0.82581 0.0
O97 O 0.66414 0.61071 0.83568 0.0
O98 O 0.74755 0.64342 0.7656 0.0
O99 O 0.83886 0.74937 0.77745 0.0
C100 C 0.91323 0.66505 0.83437 0.0
O101 O 0.64942 0.49995 0.81343 0.0
O102 O 0.73805 0.50283 0.78847 0.0
C103 C 0.76738 0.62473 0.89603 0.0
C104 C 0.83926 0.90049 0.87009 0.0
C105 C 0.73436 0.93451 0.85734 0.0
C106 C 0.80264 0.98058 0.84713 0.0
C107 C 0.85518 0.96366 0.8536 0.0
C108 C 0.77368 0.86019 0.88573 0.0
C109 C 0.72125 0.87727 0.87939 0.0
C110 C 0.87837 0.86716 0.85912 0.0
C111 C 0.66115 0.66815 0.83222 0.0
H112 H 0.48018 0.2642 0.82755 0.0
H113 H 0.5532 0.38719 0.83254 0.0
H114 H 0.71572 0.37751 0.77505 0.0
H115 H 0.64252 0.25277 0.77176 0.0
H116 H 0.81332 1.02509 0.83016 0.0
H117 H 0.90524 0.9952 0.84126 0.0
H118 H 0.75993 0.81098 0.89845 0.0
H119 H 0.66866 0.84127 0.88737 0.0
H120 H 0.93265 0.33193 0.26935 0.0
H121 H 0.74835 0.13531 0.26903 0.0
H122 H 0.85668 0.21999 0.16784 0.0
H123 H 0.67285 1.10868 0.1613 0.0
C124 C 0.67296 1.08703 0.18918 0.0
O125 O 0.74346 1.10784 0.19967 0.0
H126 H 0.6536 0.1138 0.20627 0.0
C127 C 0.89478 0.28813 0.25387 0.0
C128 C 0.9041 0.28546 0.2159 0.0
C129 C 0.83963 0.23455 0.27292 0.0
C130 C 0.78949 0.17663 0.2538 0.0
C131 C 0.79214 0.17007 0.21569 0.0
C132 C 0.85105 0.22511 0.19675 0.0
H133 H 0.75266 0.8268 0.59462 0.0
H134 H 0.78415 0.65376 0.58475 0.0
H135 H 0.76875 0.7587 0.48828 0.0
H136 H 0.69575 0.57597 0.48405 0.0
C137 C 0.72359 0.57716 0.51038 0.0
O138 O 0.77717 0.64568 0.51597 0.0
H139 H 0.6865 0.5663 0.53259 0.0
C140 C 0.75402 0.78866 0.57821 0.0
C141 C 0.75861 0.80145 0.53959 0.0
C142 C 0.75631 0.73204 0.59578 0.0
C143 C 0.77067 0.69067 0.57312 0.0
C144 C 0.76934 0.69475 0.53477 0.0
C145 C 0.76469 0.75175 0.51779 0.0
H146 H 1.14368 0.66118 0.93282 0.0
H147 H 0.33673 0.66009 0.93094 0.0
H148 H 0.23404 0.66728 0.82844 0.0
H149 H 0.43198 0.73494 0.88289 0.0
C150 C 0.41463 0.70553 0.85701 0.0
O151 O 0.34371 0.65531 0.85936 0.0
H152 H 0.41938 0.74436 0.83589 0.0
C153 C 0.18447 0.66204 0.91682 0.0
C154 C 1.17978 0.66472 0.878 0.0
C155 C 0.24158 0.66255 0.93572 0.0
C156 C 0.29429 0.66158 0.91585 0.0
C157 C 0.29317 0.66276 0.87716 0.0
C158 C 0.23574 0.66564 0.85818 0.0
H159 H 0.31033 0.57697 0.41422 0.0
H160 H 0.48255 0.77138 0.38333 0.0
H161 H 0.45748 0.70608 0.49659 0.0
H162 H 0.53139 0.89587 0.43225 0.0
C163 C 0.51937 0.86334 0.45741 0.0
O164 O 0.52821 0.80763 0.45116 0.0
H165 H 0.56013 0.89689 0.47752 0.0
C166 C 0.35829 0.62288 0.42152 0.0
C167 C 0.38107 0.63515 0.45834 0.0
C168 C 0.3947 0.67186 0.39443 0.0
C169 C 0.45485 0.73264 0.40412 0.0
C170 C 0.47646 0.74553 0.44105 0.0
C171 C 0.44107 0.69578 0.46799 0.0
H172 H 0.63362 1.0261 0.72777 0.0
H173 H 0.44279 1.00936 0.68216 0.0
H174 H 0.4437 0.91286 0.78617 0.0
H175 H 0.31476 0.94044 0.78378 0.0
C176 C 0.34191 0.97317 0.75993 0.0
O177 O 0.3671 0.94004 0.73887 0.0
H178 H 0.29797 0.97466 0.74484 0.0
C179 C 0.57847 1.00863 0.72998 0.0
C180 C 0.54311 0.97011 0.76075 0.0
C181 C 0.54255 1.02229 0.70138 0.0
C182 C 0.47099 0.99903 0.70423 0.0
C183 C 0.43549 0.96046 0.73519 0.0
C184 C 0.47137 0.94448 0.76289 0.0
H185 H 0.7773 0.55989 0.06735 0.0
H186 H 0.57351 0.4253 0.02118 0.0
H187 H 0.61645 0.41103 0.13607 0.0
H188 H 0.53355 0.27372 0.09495 0.0
C189 C 0.50184 0.28989 0.07716 0.0
O190 O 0.52385 0.35827 0.08225 0.0
H191 H 0.50904 0.28151 0.04815 0.0
C192 C 0.72456 0.51815 0.07041 0.0
C193 C 0.70214 0.48871 0.1053 0.0
C194 C 0.67842 0.49672 0.03988 0.0
C195 C 0.61038 0.44235 0.04429 0.0
C196 C 0.5896 0.40926 0.0784 0.0
C197 C 0.63451 0.43381 0.10922 0.0
C198 C 0.37622 0.27568 0.13869 0.0
C199 C 0.35175 0.30921 0.11359 0.0
C200 C 0.38046 0.26187 0.06237 0.0
C201 C 0.42591 0.25161 0.08684 0.0
N202 N 0.4386 0.2113 0.14665 0.0
N203 N 0.31097 0.31846 0.05265 0.0
C204 C 0.4123 0.24404 0.12468 0.0
C205 C 0.34508 0.29479 0.07568 0.0
N206 N 0.37044 0.28036 0.17548 0.0
N207 N 0.37654 0.24505 0.02646 0.0
H208 H 0.28431 0.34181 0.06271 0.0
H209 H 0.30927 0.31531 0.02416 0.0
H210 H 0.40354 0.2212 0.01746 0.0
H211 H 0.34339 0.24968 0.00679 0.0
H212 H 0.39178 0.26182 0.19577 0.0
H213 H 0.34322 0.3033 0.18538 0.0
H214 H 0.43069 0.20296 0.17475 0.0
H215 H 0.46482 0.18842 0.13545 0.0
C216 C 0.24008 0.55465 0.52835 0.0
C217 C 0.22539 0.48628 0.52598 0.0
C218 C 0.33092 0.52306 0.49159 0.0
C219 C 0.33591 0.58811 0.48688 0.0
N220 N 0.29278 0.66575 0.49873 0.0
N221 N 0.25666 0.40337 0.50715 0.0
C222 C 0.29097 0.60467 0.50544 0.0
C223 C 0.27172 0.46993 0.50886 0.0
N224 N 0.20349 0.57076 0.55158 0.0
N225 N 0.38216 0.51231 0.47898 0.0
H226 H 0.21466 0.3636 0.52052 0.0
H227 H 0.28379 0.38717 0.49126 0.0
H228 H 0.42589 0.55086 0.46608 0.0
H229 H 0.38445 0.46755 0.48411 0.0
H230 H 0.21575 0.62082 0.55679 0.0
H231 H 1.16535 0.53407 0.56843 0.0
H232 H 0.25611 0.67737 0.5084 0.0
H233 H 0.32755 0.70288 0.4809 0.0
C234 C 0.65457 0.98333 0.84583 0.0
C235 C 0.67629 0.9362 0.83653 0.0
C236 C 0.59555 0.89959 0.7833 0.0
C237 C 0.58172 0.95346 0.78953 0.0
N238 N 0.60045 1.05031 0.82466 0.0
N239 N 0.6747 0.85511 0.79381 0.0
C240 C 0.61121 0.996 0.82052 0.0
C241 C 0.64812 0.89511 0.8048 0.0
N242 N 0.67556 1.01574 0.87877 0.0
N243 N 0.55867 0.85309 0.75658 0.0
H244 H 0.71331 0.8497 0.80851 0.0
H245 H 0.6628 0.83162 0.76836 0.0
H246 H 0.51998 0.85526 0.74004 0.0
H247 H 0.5621 0.80914 0.75288 0.0
H248 H 0.6566 1.04613 0.88873 0.0
H249 H 0.70789 1.00754 0.89757 0.0
H250 H 0.62619 1.08747 0.8445 0.0
H251 H 0.56881 1.06076 0.80657 0.0
C252 C 0.84878 0.5323 0.17519 0.0
C253 C 0.87421 0.60373 0.17562 0.0
C254 C 0.76595 0.5881 0.14628 0.0
C255 C 0.74938 0.52076 0.13746 0.0
N256 N 0.76688 0.42372 0.1476 0.0
N257 N 0.85507 0.69983 0.16708 0.0
C258 C 0.78728 0.49059 0.15405 0.0
C259 C 0.83123 0.63144 0.16368 0.0
N260 N 0.88492 0.50546 0.19403 0.0
N261 N 0.71947 0.61023 0.13721 0.0
H262 H 0.90153 0.73167 0.18127 0.0
H263 H 0.83026 0.72528 0.1552 0.0
H264 H 0.67107 0.57843 0.12469 0.0
H265 H 0.7259 0.65726 0.14479 0.0
H266 H 0.86664 0.45333 0.19771 0.0
H267 H 0.93086 0.53582 0.20897 0.0
H268 H 0.79441 0.39934 0.15684 0.0
H269 H 0.72207 0.39211 0.13225 0.0
C270 C 0.33253 0.83227 0.46424 0.0
C271 C 0.34149 0.85781 0.49977 0.0
C272 C 0.43576 0.8326 0.51059 0.0
C273 C 0.44799 0.84372 0.47202 0.0
N274 N 0.3984 0.84401 0.41078 0.0
N275 N 0.35581 0.8178 0.55928 0.0
C276 C 0.39248 0.83813 0.44797 0.0
C277 C 0.37641 0.83364 0.52395 0.0
N278 N 0.27098 0.81141 0.44556 0.0
N279 N 0.48151 0.82488 0.53395 0.0
H280 H 0.31382 0.82238 0.56811 0.0
H281 H 0.37724 0.79722 0.57838 0.0
H282 H 0.52357 0.82112 0.52467 0.0
H283 H 0.47797 0.8229 0.56243 0.0
H284 H 0.26144 0.79129 0.41927 0.0
H285 H 0.22922 0.81141 0.4581 0.0
H286 H 0.36199 0.8489 0.39358 0.0
H287 H 0.44053 0.84724 0.39727 0.0
C288 C 0.4751 0.16562 0.75245 0.0
C289 C 0.50464 0.1789 0.78863 0.0
C290 C 0.43332 1.05798 0.80573 0.0
C291 C 0.39827 1.0455 0.77057 0.0
N292 N 0.38546 1.0883 0.71031 0.0
N293 N 0.50835 0.14106 0.85092 0.0
C294 C 0.41931 1.09959 0.74389 0.0
C295 C 0.48253 0.12605 0.8156 0.0
N296 N 0.50106 0.21612 0.72598 0.0
N297 N 0.42281 1.00494 0.82915 0.0
H298 H 0.54827 0.18915 0.85867 0.0
H299 H 0.48733 1.1072 0.87304 0.0
H300 H 0.38876 0.95375 0.82384 0.0
H301 H 0.45345 1.01071 0.85273 0.0
H302 H 0.4899 0.2074 0.69799 0.0
H303 H 0.53743 0.26682 0.73144 0.0
H304 H 0.39018 0.12724 0.69227 0.0
H305 H 0.35035 1.0401 0.70038 0.0
C306 C 0.78527 0.98685 0.5421 0.0
C307 C 0.74684 0.99393 0.51109 0.0
C308 C 0.71671 0.87331 0.49556 0.0
C309 C 0.75968 0.86934 0.52526 0.0
N310 N 0.8571 0.9391 0.56552 0.0
N311 N 0.69152 0.94604 0.45284 0.0
C312 C 0.80063 0.93137 0.54488 0.0
C313 C 0.71712 0.9376 0.48619 0.0
N314 N 0.80505 1.03123 0.57055 0.0
N315 N 0.67401 0.8155 0.4766 0.0
H316 H 0.69195 0.99133 0.44503 0.0
H317 H 0.67582 0.91083 0.43181 0.0
H318 H 0.66765 0.76775 0.48426 0.0
H319 H 0.6417 0.81378 0.45463 0.0
H320 H 0.82754 1.02445 0.59498 0.0
H321 H 0.79113 1.06916 0.57198 0.0
H322 H 0.89232 0.9851 0.57786 0.0
H323 H 0.8733 0.90252 0.56632 0.0
C324 C 1.00485 0.6245 0.82349 0.0
C325 C 0.98276 0.66456 0.84308 0.0
C326 C 1.09931 0.71743 0.87498 0.0
C327 C 1.11628 0.66918 0.86083 0.0
N328 N 1.07519 0.56786 0.82471 0.0
N329 N 1.00685 0.73343 0.8972 0.0
C330 C 1.06626 0.62032 0.8358 0.0
C331 C 1.02965 0.70691 0.87139 0.0
N332 N 0.96941 0.59236 0.79219 0.0
N333 N 1.15006 0.77424 0.89208 0.0
H334 H 0.95474 0.7202 0.89932 0.0
H335 H 1.03776 0.76023 0.91977 0.0
H336 H 0.20193 0.78535 0.89393 0.0
H337 H 1.14185 0.81362 0.90038 0.0
H338 H 0.98658 0.56772 0.77514 0.0
H339 H 0.92767 0.59705 0.78101 0.0
H340 H 1.03718 0.5269 0.80973 0.0
H341 H 1.11781 0.56223 0.83325 0.0
C342 C 0.5105 0.90497 0.21465 0.0
C343 C 0.48946 0.87188 0.17976 0.0
C344 C 0.60176 0.96832 0.15574 0.0
C345 C 0.61703 1.00664 0.18874 0.0
N346 N 0.5839 1.00674 0.25082 0.0
N347 N 0.51634 0.87841 0.11587 0.0
C348 C 0.5708 0.97309 0.21848 0.0
C349 C 0.53613 0.90515 0.1502 0.0
N350 N 0.47477 0.86965 0.24497 0.0
N351 N 0.65117 0.99173 0.12957 0.0
H352 H 0.46987 0.83364 0.11048 0.0
H353 H 0.5428 0.9035 0.09225 0.0
H354 H 0.69952 1.03553 0.13317 0.0
H355 H 0.64763 0.9641 0.10646 0.0
H356 H 0.49058 0.88621 0.27178 0.0
H357 H 0.43255 0.82023 0.24374 0.0
H358 H 0.54806 0.99174 0.27163 0.0
H359 H 0.63045 1.05127 0.25645 0.0
C360 C 0.69828 0.39005 0.52504 0.0
C361 C 0.75411 0.38995 0.50684 0.0
C362 C 0.79952 0.51642 0.49482 0.0
C363 C 0.73942 0.51428 0.51024 0.0
N364 N 0.61919 0.43517 0.52564 0.0
N365 N 0.85312 0.45459 0.46885 0.0
C366 C 0.68559 0.44719 0.52127 0.0
C367 C 0.80385 0.45394 0.49059 0.0
N368 N 0.657 0.33569 0.5471 0.0
N369 N 0.85253 0.57771 0.48329 0.0
H370 H 0.85708 0.4111 0.46434 0.0
H371 H 0.88592 0.49633 0.4526 0.0
H372 H 0.84919 0.62228 0.48173 0.0
H373 H 0.90128 0.58506 0.4768 0.0
H374 H 0.62012 0.33596 0.56398 0.0
H375 H 0.66511 0.29406 0.55188 0.0
H376 H 0.57752 0.38631 0.5303 0.0
H377 H 0.60287 0.47076 0.51941 0.0
C378 C 0.56505 0.6605 0.87359 0.0
C379 C 0.59213 0.66822 0.83774 0.0
C380 C 0.49142 0.68133 0.81303 0.0
C381 C 0.46786 0.67937 0.84928 0.0
N382 N 0.47019 0.64427 0.9121 0.0
N383 N 0.57999 0.68521 0.77295 0.0
C384 C 0.50135 0.6622 0.8789 0.0
C385 C 0.55449 0.678 0.80737 0.0
N386 N 0.60219 0.65475 0.90316 0.0
N387 N 0.45136 0.68333 0.78387 0.0
H388 H 0.62379 0.68079 0.76785 0.0
H389 H 0.56012 0.69808 0.74951 0.0
H390 H 0.40358 0.68118 0.7872 0.0
H391 H 0.46137 0.68085 0.75651 0.0
H392 H 0.59174 0.65842 0.93032 0.0
H393 H 0.64688 0.65082 0.90056 0.0
H394 H 0.48685 0.62474 0.93419 0.0
H395 H 0.42245 0.64136 0.91615 0.0
C396 C 1.03808 0.45471 0.16233 0.0
C397 C 1.10157 0.47636 0.18384 0.0
C398 C 1.0387 0.36318 0.21724 0.0
C399 C 0.97283 0.34595 0.19976 0.0
N400 N 0.91159 0.38133 0.1561 0.0
N401 N 1.15222 0.45243 0.2385 0.0
C402 C 0.97342 0.39338 0.17223 0.0
C403 C 1.09901 0.43041 0.21285 0.0
N404 N 1.03945 0.49159 0.13145 0.0
N405 N 1.0444 0.31423 0.23798 0.0
H406 H 0.19391 0.50211 0.23867 0.0
H407 H 1.15052 0.4244 0.26223 0.0
H408 H 1.00294 0.26458 0.24095 0.0
H409 H 1.09183 0.32055 0.24854 0.0
H410 H 0.99854 0.47538 0.11214 0.0
H411 H 1.08391 0.53568 0.12323 0.0
H412 H 0.90611 0.41639 0.13881 0.0
H413 H 0.86459 0.33779 0.16201 0.0
C414 C 0.21609 0.60651 0.03747 0.0
C415 C 0.25987 0.66957 0.05537 0.0
C416 C 0.28471 0.72871 -0.00515 0.0
C417 C 0.24667 0.66491 0.977 0.0
N418 N 0.18272 0.54207 0.98095 0.0
N419 N 0.34535 0.78926 0.05022 0.0
C420 C 0.21414 0.60354 -0.00174 0.0
C421 C 0.29634 0.73044 0.03383 0.0
N422 N 1.17418 0.54971 0.05789 0.0
N423 N 0.30908 0.78798 0.97454 0.0
H424 H 0.35661 0.79282 0.07838 0.0
H425 H 0.37939 0.83299 0.0356 0.0
H426 H 0.30323 0.78884 0.94598 0.0
H427 H 0.33006 0.83606 0.98616 0.0
H428 H 1.13539 0.50438 0.04655 0.0
H429 H 1.1738 0.54949 0.08648 0.0
H430 H 1.16537 0.49534 -0.00528 0.0
H431 H 1.17858 0.53789 0.9524 0.0
C432 C 0.85149 0.20013 0.37652 0.0
C433 C 0.8209 0.23639 0.39153 0.0
C434 C 0.80432 0.27324 0.32897 0.0
C435 C 0.83594 0.23792 0.31398 0.0
N436 N 0.90227 0.17945 0.32377 0.0
N437 N 0.78128 0.31851 0.3832 0.0
C438 C 0.86357 0.20512 0.33793 0.0
C439 C 0.80144 0.27642 0.36799 0.0
N440 N 0.86569 0.15801 0.39884 0.0
N441 N 0.77485 0.30179 0.30581 0.0
H442 H 0.77927 0.32221 0.41157 0.0
H443 H 0.77265 0.35406 0.36817 0.0
H444 H 0.7773 0.30177 0.27727 0.0
H445 H 0.74406 0.32148 0.3146 0.0
H446 H 0.87969 0.12355 0.38911 0.0
H447 H 0.85929 0.15435 0.4272 0.0
H448 H 0.93021 0.16154 0.33992 0.0
H449 H 0.91107 0.18105 0.29574 0.0
C450 C 0.77142 0.76716 0.70045 0.0
C451 C 0.7909 0.71849 0.71395 0.0
C452 C 0.75626 0.66312 0.65407 0.0
C453 C 0.75259 0.71982 0.63793 0.0
N454 N 0.70181 0.78828 0.65436 0.0
N455 N 0.81025 0.62463 0.70076 0.0
C456 C 0.74587 0.76327 0.66319 0.0
C457 C 0.78643 0.66837 0.68972 0.0
N458 N 0.7749 0.81572 0.72326 0.0
N459 N 0.71921 0.60028 0.63863 0.0
H460 H 0.83472 0.6279 0.72638 0.0
H461 H 0.81171 0.5901 0.68287 0.0
H462 H 0.68515 0.59177 0.61611 0.0
H463 H 0.71498 0.55597 0.6512 0.0
H464 H 0.76807 0.85647 0.71385 0.0
H465 H 0.78981 0.81831 0.75094 0.0
H466 H 0.68958 0.8154 0.67249 0.0
H467 H 0.66826 0.77124 0.63132 0.0
C468 C 0.62357 1.04188 0.60907 0.0
C469 C 0.66066 0.1142 0.6042 0.0
C470 C 0.62111 0.12694 0.66408 0.0
C471 C 0.57958 1.05479 0.66705 0.0
N472 N 0.53306 0.94343 0.64043 0.0
N473 N 0.68718 0.22576 0.62461 0.0
C474 C 0.57829 1.0123 0.6389 0.0
C475 C 0.6579 0.15698 0.63119 0.0
N476 N 0.63383 1.00132 0.58591 0.0
N477 N 0.62568 0.16658 0.69285 0.0
H478 H 0.71503 0.24985 0.60115 0.0
H479 H 0.67989 0.25852 0.64109 0.0
H480 H 0.59671 0.14648 0.7165 0.0
H481 H 0.66099 0.21866 0.6943 0.0
H482 H 0.61477 0.94914 0.59029 0.0
H483 H 0.66734 1.02091 0.56411 0.0
H484 H 0.52306 0.91111 0.61847 0.0
H485 H 0.50102 0.91896 0.66257 0.0
C486 C 0.76296 0.63492 0.96522 0.0
C487 C 0.74221 0.5945 0.93317 0.0
C488 C 0.68997 0.49134 0.97189 0.0
C489 C 0.70121 0.53114 0.00332 0.0
N490 N 0.73148 0.64211 0.02701 0.0
N491 N 0.66016 0.4843 0.90755 0.0
C492 C 0.73269 0.6035 -0.00076 0.0
C493 C 0.69811 0.52261 0.93685 0.0
N494 N 0.81332 0.70203 0.96395 0.0
N495 N 0.6733 0.42428 0.97512 0.0
H496 H 0.65645 0.50631 0.88255 0.0
H497 H 0.6244 0.43228 0.90998 0.0
H498 H 0.67149 0.40023 0.0004 0.0
H499 H 0.66956 0.39543 0.95244 0.0
H500 H 0.83359 0.73135 0.98749 0.0
H501 H 0.84044 0.72607 0.94031 0.0
H502 H 0.74892 0.69432 0.02391 0.0
H503 H 0.70581 0.62085 0.05144 0.0
C504 C 0.31526 0.70286 0.30729 0.0
C505 C 0.32567 0.66228 0.28208 0.0
C506 C 0.37875 0.6244 0.33129 0.0
C507 C 0.36571 0.6629 0.35647 0.0
N508 N 0.29786 0.71602 0.37081 0.0
N509 N 0.34399 0.56633 0.27327 0.0
C510 C 0.32632 0.69491 0.34526 0.0
C511 C 0.3506 0.61755 0.295 0.0
N512 N 0.29924 0.7519 0.29524 0.0
N513 N 0.41841 0.59507 0.34182 0.0
H514 H 0.31762 0.55624 0.24789 0.0
H515 H 0.35632 0.52893 0.28233 0.0
H516 H 0.43816 0.59749 0.36861 0.0
H517 H 0.4355 0.5725 0.32333 0.0
H518 H 0.29789 0.78682 0.31284 0.0
H519 H 0.29456 0.76253 0.26754 0.0
H520 H 0.26291 0.73348 0.36375 0.0
H521 H 0.30337 0.70908 0.399 0.0
loop_
_geom_bond_atom_site_label_1
_geom_bond_atom_site_label_2
_geom_bond_distance
_geom_bond_site_symmetry_2
_ccdc_geom_bond_type
Tb0 C9 2.764 . S
Tb0 O10 2.325 . S
Tb0 O13 2.306 . S
Tb0 O17 2.322 1_655 S
Tb0 O18 2.349 . S
Tb0 O21 2.415 . S
Tb0 O22 2.399 . S
Tb1 O11 2.322 1_455 S
Tb1 O12 2.349 . S
Tb1 O14 2.415 . S
Tb1 O15 2.399 . S
Tb1 O16 2.325 . S
Tb1 O19 2.303 . S
Tb1 C30 2.764 . S
C2 O18 1.261 1_455 S
C2 O19 1.257 . S
C3 C6 1.358 . S
C3 C7 1.332 . S
C3 C9 1.504 . S
C4 C5 1.373 . S
C4 C8 1.308 . S
C5 C4 1.373 . S
C5 C6 1.429 . S
C5 H32 0.932 . S
C6 C3 1.358 . S
C6 C5 1.429 . S
C6 H33 0.930 . S
C7 C3 1.332 . S
C7 C8 1.394 . S
C7 H34 0.932 . S
C8 C4 1.308 . S
C8 C7 1.394 . S
C8 H35 0.929 . S
C9 Tb0 2.764 . S
C9 C3 1.504 . S
C9 O21 1.239 . S
C9 O22 1.263 . S
O10 Tb0 2.325 . S
O10 C20 1.236 . S
O11 Tb1 2.322 1_655 S
O11 C20 1.257 . S
O12 Tb1 2.349 . S
O12 C23 1.261 . S
O13 Tb0 2.306 . S
O13 C23 1.254 1_655 S
O14 Tb1 2.415 . S
O14 C30 1.239 . S
O15 Tb1 2.399 . S
O15 C30 1.263 . S
O16 Tb1 2.325 . S
O16 C31 1.236 . S
O17 Tb0 2.322 1_455 S
O17 C31 1.257 . S
O18 Tb0 2.349 . S
O18 C2 1.261 1_655 S
O19 Tb1 2.303 . S
O19 C2 1.257 . S
C20 O10 1.236 . S
C20 O11 1.257 . S
O21 Tb0 2.415 . S
O21 C9 1.239 . S
O22 Tb0 2.399 . S
O22 C9 1.263 . S
C23 O12 1.261 . S
C23 O13 1.254 1_455 S
C24 C27 1.358 . S
C24 C28 1.332 . S
C24 C30 1.504 . S
C25 C26 1.373 . S
C25 C29 1.308 . S
C26 C25 1.373 . S
C26 C27 1.429 . S
C26 H36 0.932 . S
C27 C24 1.358 . S
C27 C26 1.429 . S
C27 H37 0.930 . S
C28 C24 1.332 . S
C28 C29 1.394 . S
C28 H38 0.932 . S
C29 C25 1.308 . S
C29 C28 1.394 . S
C29 H39 0.929 . S
C30 Tb1 2.764 . S
C30 O14 1.239 . S
C30 O15 1.263 . S
C30 C24 1.504 . S
C31 O16 1.236 . S
C31 O17 1.257 . S
H32 C5 0.932 . S
H33 C6 0.930 . S
H34 C7 0.932 . S
H35 C8 0.929 . S
H36 C26 0.932 . S
H37 C27 0.930 . S
H38 C28 0.932 . S
H39 C29 0.929 . S
Tb40 C49 2.764 . S
Tb40 O50 2.325 . S
Tb40 O53 2.303 1_565 S
Tb40 O57 2.322 1_565 S
Tb40 O58 2.349 . S
Tb40 O61 2.415 . S
Tb40 O62 2.399 . S
Tb41 O51 2.322 1_545 S
Tb41 O52 2.349 . S
Tb41 O54 2.415 . S
Tb41 O55 2.399 . S
Tb41 O56 2.325 . S
Tb41 O59 2.303 . S
Tb41 C70 2.764 . S
C42 O58 1.261 1_545 S
C42 O59 1.257 . S
C43 C46 1.358 . S
C43 C47 1.332 . S
C43 C49 1.504 . S
C44 C45 1.373 . S
C44 C48 1.308 . S
C45 C44 1.373 . S
C45 C46 1.429 . S
C45 H72 0.932 . S
C46 C43 1.358 . S
C46 C45 1.429 . S
C46 H73 0.930 . S
C47 C43 1.332 . S
C47 C48 1.394 . S
C47 H74 0.932 . S
C48 C44 1.308 . S
C48 C47 1.394 . S
C48 H75 0.929 . S
C49 Tb40 2.764 . S
C49 C43 1.504 . S
C49 O61 1.239 . S
C49 O62 1.263 . S
O50 Tb40 2.325 . S
O50 C60 1.236 . S
O51 Tb41 2.322 1_565 S
O51 C60 1.257 . S
O52 Tb41 2.349 . S
O52 C63 1.261 . S
O53 Tb40 2.303 1_545 S
O53 C63 1.257 . S
O54 Tb41 2.415 . S
O54 C70 1.239 . S
O55 Tb41 2.399 . S
O55 C70 1.263 . S
O56 Tb41 2.325 . S
O56 C71 1.236 . S
O57 Tb40 2.322 1_545 S
O57 C71 1.257 . S
O58 Tb40 2.349 . S
O58 C42 1.261 1_565 S
O59 Tb41 2.303 . S
O59 C42 1.257 . S
C60 O50 1.236 . S
C60 O51 1.257 . S
O61 Tb40 2.415 . S
O61 C49 1.239 . S
O62 Tb40 2.399 . S
O62 C49 1.263 . S
C63 O52 1.261 . S
C63 O53 1.257 . S
C64 C67 1.358 . S
C64 C68 1.332 . S
C64 C70 1.504 . S
C65 C66 1.373 . S
C65 C69 1.308 . S
C66 C65 1.373 . S
C66 C67 1.429 . S
C66 H76 0.932 . S
C67 C64 1.358 . S
C67 C66 1.429 . S
C67 H77 0.930 . S
C68 C64 1.332 . S
C68 C69 1.394 . S
C68 H78 0.932 . S
C69 C65 1.308 . S
C69 C68 1.394 . S
C69 H79 0.929 . S
C70 Tb41 2.764 . S
C70 O54 1.239 . S
C70 O55 1.263 . S
C70 C64 1.504 . S
C71 O56 1.236 . S
C71 O57 1.257 . S
H72 C45 0.932 . S
H73 C46 0.930 . S
H74 C47 0.932 . S
H75 C48 0.929 . S
H76 C66 0.932 . S
H77 C67 0.930 . S
H78 C68 0.932 . S
H79 C69 0.929 . S
Tb80 C89 2.764 . S
Tb80 O90 2.325 . S
Tb80 O93 2.303 . S
Tb80 O97 2.322 . S
Tb80 O98 2.349 . S
Tb80 O101 2.415 . S
Tb80 O102 2.399 . S
Tb81 O91 2.322 . S
Tb81 O92 2.349 . S
Tb81 O94 2.415 . S
Tb81 O95 2.399 . S
Tb81 O96 2.325 . S
Tb81 O99 2.303 . S
Tb81 C110 2.764 . S
C82 O98 1.261 . S
C82 O99 1.257 . S
C83 C86 1.358 . S
C83 C87 1.332 . S
C83 C89 1.504 . S
C84 C85 1.373 . S
C84 C88 1.308 . S
C85 C84 1.373 . S
C85 C86 1.429 . S
C85 H112 0.932 . S
C86 C83 1.358 . S
C86 C85 1.429 . S
C86 H113 0.930 . S
C87 C83 1.332 . S
C87 C88 1.394 . S
C87 H114 0.932 . S
C88 C84 1.308 . S
C88 C87 1.394 . S
C88 H115 0.929 . S
C89 Tb80 2.764 . S
C89 C83 1.504 . S
C89 O101 1.239 . S
C89 O102 1.263 . S
O90 Tb80 2.325 . S
O90 C100 1.236 . S
O91 Tb81 2.322 . S
O91 C100 1.257 . S
O92 Tb81 2.349 . S
O92 C103 1.261 . S
O93 Tb80 2.303 . S
O93 C103 1.257 . S
O94 Tb81 2.415 . S
O94 C110 1.239 . S
O95 Tb81 2.399 . S
O95 C110 1.263 . S
O96 Tb81 2.325 . S
O96 C111 1.236 . S
O97 Tb80 2.322 . S
O97 C111 1.257 . S
O98 Tb80 2.349 . S
O98 C82 1.261 . S
O99 Tb81 2.303 . S
O99 C82 1.257 . S
C100 O90 1.236 . S
C100 O91 1.257 . S
O101 Tb80 2.415 . S
O101 C89 1.239 . S
O102 Tb80 2.399 . S
O102 C89 1.263 . S
C103 O92 1.261 . S
C103 O93 1.257 . S
C104 C107 1.358 . S
C104 C108 1.332 . S
C104 C110 1.504 . S
C105 C106 1.373 . S
C105 C109 1.308 . S
C106 C105 1.373 . S
C106 C107 1.429 . S
C106 H116 0.932 . S
C107 C104 1.358 . S
C107 C106 1.429 . S
C107 H117 0.930 . S
C108 C104 1.332 . S
C108 C109 1.394 . S
C108 H118 0.932 . S
C109 C105 1.308 . S
C109 C108 1.394 . S
C109 H119 0.929 . S
C110 Tb81 2.764 . S
C110 O94 1.239 . S
C110 O95 1.263 . S
C110 C104 1.504 . S
C111 O96 1.236 . S
C111 O97 1.257 . S
H112 C85 0.932 . S
H113 C86 0.930 . S
H114 C87 0.932 . S
H115 C88 0.929 . S
H116 C106 0.932 . S
H117 C107 0.930 . S
H118 C108 0.932 . S
H119 C109 0.929 . S
H120 C127 0.929 . S
H121 C130 0.930 . S
H122 C132 0.929 . S
H123 C124 0.969 . S
C124 H123 0.969 . S
C124 O125 1.550 . S
C124 H126 0.973 . S
O125 C124 1.550 . S
O125 C131 1.412 . S
H126 C124 0.973 . S
C127 H120 0.929 . S
C127 C128 1.400 . S
C127 C129 1.364 . S
C128 C127 1.400 . S
C128 C132 1.377 . S
C129 C127 1.364 . S
C129 C130 1.374 1_545 S
C130 H121 0.930 . S
C130 C129 1.374 1_565 S
C130 C131 1.383 . S
C131 O125 1.412 . S
C131 C130 1.383 . S
C131 C132 1.394 1_565 S
C132 H122 0.929 . S
C132 C128 1.377 . S
C132 C131 1.394 1_545 S
H133 C140 0.929 . S
H134 C143 0.930 . S
H135 C145 0.929 . S
H136 C137 0.969 . S
C137 H136 0.969 . S
C137 O138 1.550 . S
C137 H139 0.973 . S
O138 C137 1.550 . S
O138 C144 1.412 . S
H139 C137 0.973 . S
C140 H133 0.929 . S
C140 C141 1.400 . S
C140 C142 1.364 . S
C141 C140 1.400 . S
C141 C145 1.377 . S
C142 C140 1.364 . S
C142 C143 1.374 . S
C143 H134 0.930 . S
C143 C142 1.374 . S
C143 C144 1.383 . S
C144 O138 1.412 . S
C144 C143 1.383 . S
C144 C145 1.394 . S
C145 H135 0.929 . S
C145 C141 1.377 . S
C145 C144 1.394 . S
H146 C153 0.929 1_655 S
H147 C156 0.930 . S
H148 C158 0.929 . S
H149 C150 0.969 . S
C150 H149 0.969 . S
C150 O151 1.550 . S
C150 H152 0.973 . S
O151 C150 1.550 . S
O151 C157 1.412 . S
H152 C150 0.973 . S
C153 H146 0.929 1_455 S
C153 C154 1.400 . S
C153 C155 1.364 . S
C154 C153 1.400 . S
C154 C158 1.377 . S
C155 C153 1.364 . S
C155 C156 1.374 . S
C156 H147 0.930 . S
C156 C155 1.374 . S
C156 C157 1.383 . S
C157 O151 1.412 . S
C157 C156 1.383 . S
C157 C158 1.394 . S
C158 H148 0.929 . S
C158 C154 1.377 . S
C158 C157 1.394 . S
H159 C166 0.929 . S
H160 C169 0.930 . S
H161 C171 0.929 . S
H162 C163 0.969 . S
C163 H162 0.969 . S
C163 O164 1.550 . S
C163 H165 0.973 . S
O164 C163 1.550 . S
O164 C170 1.412 . S
H165 C163 0.973 . S
C166 H159 0.929 . S
C166 C167 1.400 . S
C166 C168 1.364 . S
C167 C166 1.400 . S
C167 C171 1.377 . S
C168 C166 1.364 . S
C168 C169 1.374 1_655 S
C169 H160 0.930 . S
C169 C168 1.374 1_455 S
C169 C170 1.383 . S
C170 O164 1.412 . S
C170 C169 1.383 . S
C170 C171 1.394 1_455 S
C171 H161 0.929 . S
C171 C167 1.377 . S
C171 C170 1.394 1_655 S
H172 C179 0.929 . S
H173 C182 0.930 . S
H174 C184 0.929 . S
H175 C176 0.969 . S
C176 H175 0.969 . S
C176 O177 1.550 . S
C176 H178 0.973 . S
O177 C176 1.550 . S
O177 C183 1.412 . S
H178 C176 0.973 . S
C179 H172 0.929 . S
C179 C180 1.400 . S
C179 C181 1.364 . S
C180 C179 1.400 . S
C180 C184 1.377 . S
C181 C179 1.364 . S
C181 C182 1.374 1_565 S
C182 H173 0.930 . S
C182 C181 1.374 1_545 S
C182 C183 1.383 . S
C183 O177 1.412 . S
C183 C182 1.383 . S
C183 C184 1.394 1_545 S
C184 H174 0.929 . S
C184 C180 1.377 . S
C184 C183 1.394 1_565 S
H185 C192 0.929 . S
H186 C195 0.930 . S
H187 C197 0.929 . S
H188 C189 0.969 . S
C189 H188 0.969 . S
C189 O190 1.550 . S
C189 H191 0.973 . S
O190 C189 1.550 . S
O190 C196 1.412 . S
H191 C189 0.973 . S
C192 H185 0.929 . S
C192 C193 1.400 . S
C192 C194 1.364 . S
C193 C192 1.400 . S
C193 C197 1.377 . S
C194 C192 1.364 . S
C194 C195 1.374 . S
C195 H186 0.930 . S
C195 C194 1.374 . S
C195 C196 1.383 . S
C196 O190 1.412 . S
C196 C195 1.383 . S
C196 C197 1.394 . S
C197 H187 0.929 . S
C197 C193 1.377 . S
C197 C196 1.394 . S
C198 C199 1.363 . S
C198 C204 1.379 . S
C198 N206 1.356 . S
C199 C198 1.363 . S
C199 C205 1.363 . S
C200 C201 1.363 . S
C200 C205 1.379 . S
C200 N207 1.356 . S
C201 C200 1.363 . S
C201 C204 1.363 . S
N202 C204 1.356 . S
N202 H214 0.984 . S
N202 H215 0.985 . S
N203 C205 1.356 . S
N203 H208 0.984 . S
N203 H209 0.985 . S
C204 C198 1.379 . S
C204 C201 1.363 . S
C204 N202 1.356 . S
C205 C199 1.363 . S
C205 C200 1.379 . S
C205 N203 1.356 . S
N206 C198 1.356 . S
N206 H212 0.984 . S
N206 H213 0.984 . S
N207 C200 1.356 . S
N207 H210 0.984 . S
N207 H211 0.985 . S
H208 N203 0.984 . S
H209 N203 0.985 . S
H210 N207 0.984 . S
H211 N207 0.985 . S
H212 N206 0.984 . S
H213 N206 0.984 . S
H214 N202 0.984 . S
H215 N202 0.985 . S
C216 C217 1.363 . S
C216 C222 1.379 . S
C216 N224 1.356 . S
C217 C216 1.363 . S
C217 C223 1.363 . S
C218 C219 1.363 . S
C218 C223 1.379 . S
C218 N225 1.356 . S
C219 C218 1.363 . S
C219 C222 1.363 . S
N220 C222 1.356 . S
N220 H232 0.984 . S
N220 H233 0.985 . S
N221 C223 1.356 . S
N221 H226 0.984 . S
N221 H227 0.985 . S
C222 C216 1.379 . S
C222 C219 1.363 . S
C222 N220 1.356 . S
C223 C217 1.363 . S
C223 C218 1.379 . S
C223 N221 1.356 . S
N224 C216 1.356 . S
N224 H230 0.984 . S
N224 H231 0.984 . S
N225 C218 1.356 . S
N225 H228 0.984 . S
N225 H229 0.985 . S
H226 N221 0.984 . S
H227 N221 0.985 . S
H228 N225 0.984 . S
H229 N225 0.985 . S
H230 N224 0.984 . S
H231 N224 0.984 . S
H232 N220 0.984 . S
H233 N220 0.985 . S
C234 C235 1.363 . S
C234 C240 1.379 . S
C234 N242 1.356 . S
C235 C234 1.363 . S
C235 C241 1.363 . S
C236 C237 1.363 . S
C236 C241 1.379 . S
C236 N243 1.356 . S
C237 C236 1.363 . S
C237 C240 1.363 . S
N238 C240 1.356 . S
N238 H250 0.984 1_565 S
N238 H251 0.985 . S
N239 C241 1.356 . S
N239 H244 0.984 . S
N239 H245 0.985 . S
C240 C234 1.379 . S
C240 C237 1.363 . S
C240 N238 1.356 . S
C241 C235 1.363 . S
C241 C236 1.379 . S
C241 N239 1.356 . S
N242 C234 1.356 . S
N242 H248 0.984 1_565 S
N242 H249 0.984 . S
N243 C236 1.356 . S
N243 H246 0.984 . S
N243 H247 0.985 . S
H244 N239 0.984 . S
H245 N239 0.985 . S
H246 N243 0.984 . S
H247 N243 0.985 . S
H248 N242 0.984 1_545 S
H249 N242 0.984 . S
H250 N238 0.984 1_545 S
H251 N238 0.985 . S
C252 C253 1.363 . S
C252 C258 1.379 . S
C252 N260 1.356 . S
C253 C252 1.363 . S
C253 C259 1.363 . S
C254 C255 1.363 . S
C254 C259 1.379 . S
C254 N261 1.356 . S
C255 C254 1.363 . S
C255 C258 1.363 . S
N256 C258 1.356 . S
N256 H268 0.984 . S
N256 H269 0.985 . S
N257 C259 1.356 . S
N257 H262 0.984 . S
N257 H263 0.985 . S
C258 C252 1.379 . S
C258 C255 1.363 . S
C258 N256 1.356 . S
C259 C253 1.363 . S
C259 C254 1.379 . S
C259 N257 1.356 . S
N260 C252 1.356 . S
N260 H266 0.984 . S
N260 H267 0.984 . S
N261 C254 1.356 . S
N261 H264 0.984 . S
N261 H265 0.985 . S
H262 N257 0.984 . S
H263 N257 0.985 . S
H264 N261 0.984 . S
H265 N261 0.985 . S
H266 N260 0.984 . S
H267 N260 0.984 . S
H268 N256 0.984 . S
H269 N256 0.985 . S
C270 C271 1.363 . S
C270 C276 1.379 . S
C270 N278 1.356 . S
C271 C270 1.363 . S
C271 C277 1.363 . S
C272 C273 1.363 . S
C272 C277 1.379 . S
C272 N279 1.356 . S
C273 C272 1.363 . S
C273 C276 1.363 . S
N274 C276 1.356 . S
N274 H286 0.984 . S
N274 H287 0.985 . S
N275 C277 1.356 . S
N275 H280 0.984 . S
N275 H281 0.985 . S
C276 C270 1.379 . S
C276 C273 1.363 . S
C276 N274 1.356 . S
C277 C271 1.363 . S
C277 C272 1.379 . S
C277 N275 1.356 . S
N278 C270 1.356 . S
N278 H284 0.984 . S
N278 H285 0.984 . S
N279 C272 1.356 . S
N279 H282 0.984 . S
N279 H283 0.985 . S
H280 N275 0.984 . S
H281 N275 0.985 . S
H282 N279 0.984 . S
H283 N279 0.985 . S
H284 N278 0.984 . S
H285 N278 0.984 . S
H286 N274 0.984 . S
H287 N274 0.985 . S
C288 C289 1.363 . S
C288 C294 1.379 . S
C288 N296 1.356 . S
C289 C288 1.363 . S
C289 C295 1.363 . S
C290 C291 1.363 . S
C290 C295 1.379 . S
C290 N297 1.356 . S
C291 C290 1.363 . S
C291 C294 1.363 . S
N292 C294 1.356 . S
N292 H304 0.984 . S
N292 H305 0.985 . S
N293 C295 1.356 . S
N293 H298 0.984 . S
N293 H299 0.985 . S
C294 C288 1.379 . S
C294 C291 1.363 . S
C294 N292 1.356 . S
C295 C289 1.363 . S
C295 C290 1.379 . S
C295 N293 1.356 . S
N296 C288 1.356 . S
N296 H302 0.984 . S
N296 H303 0.984 . S
N297 C290 1.356 . S
N297 H300 0.984 . S
N297 H301 0.985 . S
H298 N293 0.984 . S
H299 N293 0.985 . S
H300 N297 0.984 . S
H301 N297 0.985 . S
H302 N296 0.984 . S
H303 N296 0.984 . S
H304 N292 0.984 . S
H305 N292 0.985 . S
C306 C307 1.363 . S
C306 C312 1.379 . S
C306 N314 1.356 . S
C307 C306 1.363 . S
C307 C313 1.363 . S
C308 C309 1.363 . S
C308 C313 1.379 . S
C308 N315 1.356 . S
C309 C308 1.363 . S
C309 C312 1.363 . S
N310 C312 1.356 . S
N310 H322 0.984 . S
N310 H323 0.985 . S
N311 C313 1.356 . S
N311 H316 0.984 . S
N311 H317 0.985 . S
C312 C306 1.379 . S
C312 C309 1.363 . S
C312 N310 1.356 . S
C313 C307 1.363 . S
C313 C308 1.379 . S
C313 N311 1.356 . S
N314 C306 1.356 . S
N314 H320 0.984 . S
N314 H321 0.984 . S
N315 C308 1.356 . S
N315 H318 0.984 . S
N315 H319 0.985 . S
H316 N311 0.984 . S
H317 N311 0.985 . S
H318 N315 0.984 . S
H319 N315 0.985 . S
H320 N314 0.984 . S
H321 N314 0.984 . S
H322 N310 0.984 . S
H323 N310 0.985 . S
C324 C325 1.363 . S
C324 C330 1.379 . S
C324 N332 1.356 . S
C325 C324 1.363 . S
C325 C331 1.363 . S
C326 C327 1.363 . S
C326 C331 1.379 . S
C326 N333 1.356 . S
C327 C326 1.363 . S
C327 C330 1.363 . S
N328 C330 1.356 . S
N328 H340 0.984 . S
N328 H341 0.985 . S
N329 C331 1.356 . S
N329 H334 0.984 . S
N329 H335 0.985 . S
C330 C324 1.379 . S
C330 C327 1.363 . S
C330 N328 1.356 . S
C331 C325 1.363 . S
C331 C326 1.379 . S
C331 N329 1.356 . S
N332 C324 1.356 . S
N332 H338 0.984 . S
N332 H339 0.984 . S
N333 C326 1.356 . S
N333 H336 0.984 . S
N333 H337 0.985 . S
H334 N329 0.984 . S
H335 N329 0.985 . S
H336 N333 0.984 . S
H337 N333 0.985 . S
H338 N332 0.984 . S
H339 N332 0.984 . S
H340 N328 0.984 . S
H341 N328 0.985 . S
C342 C343 1.363 . S
C342 C348 1.379 . S
C342 N350 1.356 . S
C343 C342 1.363 . S
C343 C349 1.363 . S
C344 C345 1.363 . S
C344 C349 1.379 . S
C344 N351 1.356 . S
C345 C344 1.363 . S
C345 C348 1.363 . S
N346 C348 1.356 . S
N346 H358 0.984 . S
N346 H359 0.985 . S
N347 C349 1.356 . S
N347 H352 0.984 . S
N347 H353 0.985 . S
C348 C342 1.379 . S
C348 C345 1.363 . S
C348 N346 1.356 . S
C349 C343 1.363 . S
C349 C344 1.379 . S
C349 N347 1.356 . S
N350 C342 1.356 . S
N350 H356 0.984 . S
N350 H357 0.984 . S
N351 C344 1.356 . S
N351 H354 0.984 . S
N351 H355 0.985 . S
H352 N347 0.984 . S
H353 N347 0.985 . S
H354 N351 0.984 . S
H355 N351 0.985 . S
H356 N350 0.984 . S
H357 N350 0.984 . S
H358 N346 0.984 . S
H359 N346 0.985 . S
C360 C361 1.363 . S
C360 C366 1.379 . S
C360 N368 1.356 . S
C361 C360 1.363 . S
C361 C367 1.363 . S
C362 C363 1.363 . S
C362 C367 1.379 . S
C362 N369 1.356 . S
C363 C362 1.363 . S
C363 C366 1.363 . S
N364 C366 1.356 . S
N364 H376 0.984 . S
N364 H377 0.985 . S
N365 C367 1.356 . S
N365 H370 0.984 . S
N365 H371 0.985 . S
C366 C360 1.379 . S
C366 C363 1.363 . S
C366 N364 1.356 . S
C367 C361 1.363 . S
C367 C362 1.379 . S
C367 N365 1.356 . S
N368 C360 1.356 . S
N368 H374 0.984 . S
N368 H375 0.984 . S
N369 C362 1.356 . S
N369 H372 0.984 . S
N369 H373 0.985 . S
H370 N365 0.984 . S
H371 N365 0.985 . S
H372 N369 0.984 . S
H373 N369 0.985 . S
H374 N368 0.984 . S
H375 N368 0.984 . S
H376 N364 0.984 . S
H377 N364 0.985 . S
C378 C379 1.363 . S
C378 C384 1.379 . S
C378 N386 1.356 . S
C379 C378 1.363 . S
C379 C385 1.363 . S
C380 C381 1.363 . S
C380 C385 1.379 . S
C380 N387 1.356 . S
C381 C380 1.363 . S
C381 C384 1.363 . S
N382 C384 1.356 . S
N382 H394 0.984 . S
N382 H395 0.985 . S
N383 C385 1.356 . S
N383 H388 0.984 . S
N383 H389 0.985 . S
C384 C378 1.379 . S
C384 C381 1.363 . S
C384 N382 1.356 . S
C385 C379 1.363 . S
C385 C380 1.379 . S
C385 N383 1.356 . S
N386 C378 1.356 . S
N386 H392 0.984 . S
N386 H393 0.984 . S
N387 C380 1.356 . S
N387 H390 0.984 . S
N387 H391 0.985 . S
H388 N383 0.984 . S
H389 N383 0.985 . S
H390 N387 0.984 . S
H391 N387 0.985 . S
H392 N386 0.984 . S
H393 N386 0.984 . S
H394 N382 0.984 . S
H395 N382 0.985 . S
C396 C397 1.363 . S
C396 C402 1.379 . S
C396 N404 1.356 . S
C397 C396 1.363 . S
C397 C403 1.363 . S
C398 C399 1.363 . S
C398 C403 1.379 . S
C398 N405 1.356 . S
C399 C398 1.363 . S
C399 C402 1.363 . S
N400 C402 1.356 . S
N400 H412 0.984 . S
N400 H413 0.985 . S
N401 C403 1.356 . S
N401 H406 0.984 . S
N401 H407 0.985 . S
C402 C396 1.379 . S
C402 C399 1.363 . S
C402 N400 1.356 . S
C403 C397 1.363 . S
C403 C398 1.379 . S
C403 N401 1.356 . S
N404 C396 1.356 . S
N404 H410 0.984 . S
N404 H411 0.984 . S
N405 C398 1.356 . S
N405 H408 0.984 . S
N405 H409 0.985 . S
H406 N401 0.984 . S
H407 N401 0.985 . S
H408 N405 0.984 . S
H409 N405 0.985 . S
H410 N404 0.984 . S
H411 N404 0.984 . S
H412 N400 0.984 . S
H413 N400 0.985 . S
C414 C415 1.363 . S
C414 C420 1.382 . S
C414 N422 1.356 . S
C415 C414 1.363 . S
C415 C421 1.363 . S
C416 C417 1.363 1_554 S
C416 C421 1.379 . S
C416 N423 1.356 1_554 S
C417 C416 1.363 1_556 S
C417 C420 1.362 1_556 S
N418 C420 1.354 1_556 S
N418 H430 0.984 . S
N418 H431 0.985 . S
N419 C421 1.356 . S
N419 H424 0.984 . S
N419 H425 0.985 . S
C420 C414 1.382 . S
C420 C417 1.362 1_554 S
C420 N418 1.354 1_554 S
C421 C415 1.363 . S
C421 C416 1.379 . S
C421 N419 1.356 . S
N422 C414 1.356 . S
N422 H428 0.984 . S
N422 H429 0.984 . S
N423 C416 1.356 1_556 S
N423 H426 0.984 . S
N423 H427 0.985 . S
H424 N419 0.984 . S
H425 N419 0.985 . S
H426 N423 0.984 . S
H427 N423 0.985 . S
H428 N422 0.984 . S
H429 N422 0.984 . S
H430 N418 0.984 . S
H431 N418 0.985 . S
C432 C433 1.363 1_565 S
C432 C438 1.379 . S
C432 N440 1.356 . S
C433 C432 1.363 1_545 S
C433 C439 1.363 . S
C434 C435 1.363 . S
C434 C439 1.379 . S
C434 N441 1.356 . S
C435 C434 1.363 . S
C435 C438 1.363 1_545 S
N436 C438 1.356 . S
N436 H448 0.984 . S
N436 H449 0.985 . S
N437 C439 1.356 . S
N437 H442 0.984 . S
N437 H443 0.985 . S
C438 C432 1.379 . S
C438 C435 1.363 1_565 S
C438 N436 1.356 . S
C439 C433 1.363 . S
C439 C434 1.379 . S
C439 N437 1.356 . S
N440 C432 1.356 . S
N440 H446 0.984 . S
N440 H447 0.984 . S
N441 C434 1.356 . S
N441 H444 0.984 . S
N441 H445 0.985 . S
H442 N437 0.984 . S
H443 N437 0.985 . S
H444 N441 0.984 . S
H445 N441 0.985 . S
H446 N440 0.984 . S
H447 N440 0.984 . S
H448 N436 0.984 . S
H449 N436 0.985 . S
C450 C451 1.363 . S
C450 C456 1.379 . S
C450 N458 1.356 . S
C451 C450 1.363 . S
C451 C457 1.363 . S
C452 C453 1.363 . S
C452 C457 1.379 . S
C452 N459 1.356 . S
C453 C452 1.363 . S
C453 C456 1.363 . S
N454 C456 1.356 . S
N454 H466 0.984 . S
N454 H467 0.985 . S
N455 C457 1.356 . S
N455 H460 0.984 . S
N455 H461 0.985 . S
C456 C450 1.379 . S
C456 C453 1.363 . S
C456 N454 1.356 . S
C457 C451 1.363 . S
C457 C452 1.379 . S
C457 N455 1.356 . S
N458 C450 1.356 . S
N458 H464 0.984 . S
N458 H465 0.984 . S
N459 C452 1.356 . S
N459 H462 0.984 . S
N459 H463 0.985 . S
H460 N455 0.984 . S
H461 N455 0.985 . S
H462 N459 0.984 . S
H463 N459 0.985 . S
H464 N458 0.984 . S
H465 N458 0.984 . S
H466 N454 0.984 . S
H467 N454 0.985 . S
C468 C469 1.363 1_565 S
C468 C474 1.379 . S
C468 N476 1.356 . S
C469 C468 1.363 1_545 S
C469 C475 1.363 . S
C470 C471 1.363 1_545 S
C470 C475 1.379 . S
C470 N477 1.356 . S
C471 C470 1.363 1_565 S
C471 C474 1.363 . S
N472 C474 1.356 . S
N472 H484 0.984 . S
N472 H485 0.985 . S
N473 C475 1.356 . S
N473 H478 0.984 . S
N473 H479 0.985 . S
C474 C468 1.379 . S
C474 C471 1.363 . S
C474 N472 1.356 . S
C475 C469 1.363 . S
C475 C470 1.379 . S
C475 N473 1.356 . S
N476 C468 1.356 . S
N476 H482 0.984 . S
N476 H483 0.984 . S
N477 C470 1.356 . S
N477 H480 0.984 . S
N477 H481 0.985 . S
H478 N473 0.984 . S
H479 N473 0.985 . S
H480 N477 0.984 . S
H481 N477 0.985 . S
H482 N476 0.984 . S
H483 N476 0.984 . S
H484 N472 0.984 . S
H485 N472 0.985 . S
C486 C487 1.363 . S
C486 C492 1.379 1_556 S
C486 N494 1.356 . S
C487 C486 1.363 . S
C487 C493 1.363 . S
C488 C489 1.363 1_556 S
C488 C493 1.379 . S
C488 N495 1.356 . S
C489 C488 1.363 1_554 S
C489 C492 1.363 . S
N490 C492 1.356 . S
N490 H502 0.984 . S
N490 H503 0.985 . S
N491 C493 1.356 . S
N491 H496 0.984 . S
N491 H497 0.985 . S
C492 C486 1.379 1_554 S
C492 C489 1.363 . S
C492 N490 1.356 . S
C493 C487 1.363 . S
C493 C488 1.379 . S
C493 N491 1.356 . S
N494 C486 1.356 . S
N494 H500 0.984 . S
N494 H501 0.984 . S
N495 C488 1.356 . S
N495 H498 0.984 1_556 S
N495 H499 0.985 . S
H496 N491 0.984 . S
H497 N491 0.985 . S
H498 N495 0.984 1_554 S
H499 N495 0.985 . S
H500 N494 0.984 . S
H501 N494 0.984 . S
H502 N490 0.984 . S
H503 N490 0.985 . S
C504 C505 1.358 1_455 S
C504 C510 1.379 . S
C504 N512 1.356 . S
C505 C504 1.358 1_655 S
C505 C511 1.373 . S
C506 C507 1.363 . S
C506 C511 1.379 . S
C506 N513 1.356 . S
C507 C506 1.363 . S
C507 C510 1.363 1_655 S
N508 C510 1.356 . S
N508 H520 0.984 . S
N508 H521 0.985 . S
N509 C511 1.356 . S
N509 H514 0.984 . S
N509 H515 0.985 . S
C510 C504 1.379 . S
C510 C507 1.363 1_455 S
C510 N508 1.356 . S
C511 C505 1.373 . S
C511 C506 1.379 . S
C511 N509 1.356 . S
N512 C504 1.356 . S
N512 H518 0.984 . S
N512 H519 0.984 . S
N513 C506 1.356 . S
N513 H516 0.984 . S
N513 H517 0.985 . S
H514 N509 0.984 . S
H515 N509 0.985 . S
H516 N513 0.984 . S
H517 N513 0.985 . S
H518 N512 0.984 . S
H519 N512 0.984 . S
H520 N508 0.984 . S
H521 N508 0.985 . S
C199 C25 0.727 . S
C201 C189 0.714 . S
C217 C65 0.727 . S
C219 C167 0.709 . S
C235 C105 0.779 . S
C237 C180 0.800 . S
C253 C4 0.743 . S
C255 C193 0.738 . S
C273 C163 0.817 . S
C271 C44 0.793 . S
C291 C176 0.840 . S
C289 C84 0.809 . S
C307 C60 2.980 . S
C309 C141 2.940 . S
C325 C100 3.068 . S
C327 C154 3.018 1_655 S
C343 C31 3.156 . S
C345 C124 2.924 . S
C363 C137 2.958 . S
C361 C71 3.169 . S
C381 C150 2.883 . S
C379 C111 3.064 . S
C397 C20 2.994 . S
C399 C128 2.956 . S
C417 C155 1.796 . S
C415 C2 1.745 . S
C433 C42 1.738 . S
C435 C129 1.818 . S
C451 C82 1.749 . S
C453 C142 1.841 . S
C471 C181 1.181 . S
C469 C63 1.195 . S
C489 C194 1.233 . S
C487 C103 1.245 . S
C505 C23 1.136 1_655 S
C507 C168 1.149 . S
