# Generated by pormake.
# Topology pyr, (3,6)-cn, num edge types: 1
# Building blocks:
#     Node 0, Type 0, BuildingBlock: QEWDON_clean_linker_0, # of connection points: 3
#     Node 1, Type 0, BuildingBlock: QEWDON_clean_linker_0, # of connection points: 3
#     Node 2, Type 0, BuildingBlock: QEWDON_clean_linker_0, # of connection points: 3
#     Node 3, Type 0, BuildingBlock: QEWDON_clean_linker_0, # of connection points: 3
#     Node 4, Type 0, BuildingBlock: QEWDON_clean_linker_0, # of connection points: 3
#     Node 5, Type 0, BuildingBlock: QEWDON_clean_linker_0, # of connection points: 3
#     Node 6, Type 0, BuildingBlock: QEWDON_clean_linker_0, # of connection points: 3
#     Node 7, Type 0, BuildingBlock: QEWDON_clean_linker_0, # of connection points: 3
#     Node 8, Type 1, BuildingBlock: VOLQOD_clean_sbu_1, # of connection points: 6
#     Node 9, Type 1, BuildingBlock: VOLQOD_clean_sbu_1, # of connection points: 6
#     Node 10, Type 1, BuildingBlock: VOLQOD_clean_sbu_1, # of connection points: 6
#     Node 11, Type 1, BuildingBlock: VOLQOD_clean_sbu_1, # of connection points: 6
#     Edge 12, Type (0, 1), BuildingBlock: AJUNOK_clean_linker_0, # of connection points: 2
#     Edge 13, Type (0, 1), BuildingBlock: AJUNOK_clean_linker_0, # of connection points: 2
#     Edge 14, Type (0, 1), BuildingBlock: AJUNOK_clean_linker_0, # of connection points: 2
#     Edge 15, Type (0, 1), BuildingBlock: AJUNOK_clean_linker_0, # of connection points: 2
#     Edge 16, Type (0, 1), BuildingBlock: AJUNOK_clean_linker_0, # of connection points: 2
#     Edge 17, Type (0, 1), BuildingBlock: AJUNOK_clean_linker_0, # of connection points: 2
#     Edge 18, Type (0, 1), BuildingBlock: AJUNOK_clean_linker_0, # of connection points: 2
#     Edge 19, Type (0, 1), BuildingBlock: AJUNOK_clean_linker_0, # of connection points: 2
#     Edge 20, Type (0, 1), BuildingBlock: AJUNOK_clean_linker_0, # of connection points: 2
#     Edge 21, Type (0, 1), BuildingBlock: AJUNOK_clean_linker_0, # of connection points: 2
#     Edge 22, Type (0, 1), BuildingBlock: AJUNOK_clean_linker_0, # of connection points: 2
#     Edge 23, Type (0, 1), BuildingBlock: AJUNOK_clean_linker_0, # of connection points: 2
#     Edge 24, Type (0, 1), BuildingBlock: AJUNOK_clean_linker_0, # of connection points: 2
#     Edge 25, Type (0, 1), BuildingBlock: AJUNOK_clean_linker_0, # of connection points: 2
#     Edge 26, Type (0, 1), BuildingBlock: AJUNOK_clean_linker_0, # of connection points: 2
#     Edge 27, Type (0, 1), BuildingBlock: AJUNOK_clean_linker_0, # of connection points: 2
#     Edge 28, Type (0, 1), BuildingBlock: AJUNOK_clean_linker_0, # of connection points: 2
#     Edge 29, Type (0, 1), BuildingBlock: AJUNOK_clean_linker_0, # of connection points: 2
#     Edge 30, Type (0, 1), BuildingBlock: AJUNOK_clean_linker_0, # of connection points: 2
#     Edge 31, Type (0, 1), BuildingBlock: AJUNOK_clean_linker_0, # of connection points: 2
#     Edge 32, Type (0, 1), BuildingBlock: AJUNOK_clean_linker_0, # of connection points: 2
#     Edge 33, Type (0, 1), BuildingBlock: AJUNOK_clean_linker_0, # of connection points: 2
#     Edge 34, Type (0, 1), BuildingBlock: AJUNOK_clean_linker_0, # of connection points: 2
#     Edge 35, Type (0, 1), BuildingBlock: AJUNOK_clean_linker_0, # of connection points: 2
# Relax obj value: 0.175
# Max RMSD: 0.273
# Mean RMSD: 0.201
data_MOF--net-pry--node1-VOLQOD_clean_sbu_1--node2-QEWDON_clean_linker_0--edge1-AJUNOK_clean_linker_0
_symmetry_space_group_name_H-M    P1
_symmetry_Int_Tables_number       1
_symmetry_cell_setting            triclinic
loop_
_symmetry_equiv_pos_as_xyz
'x, y, z'
_cell_length_a     27.743038
_cell_length_b     27.882823
_cell_length_c     29.942726
_cell_angle_alpha  89.646561
_cell_angle_beta   90.448764
_cell_angle_gamma 98.754889
loop_
_atom_site_label
_atom_site_type_symbol
_atom_site_fract_x
_atom_site_fract_y
_atom_site_fract_z
_atom_type_partial_charge
H0 H 0.25162 0.23778 0.14153 0.0
C1 C 0.23055 0.21662 0.16713 0.0
C2 C 0.24103 0.1702 0.17873 0.0
C3 C 0.19489 0.23738 0.19017 0.0
H4 H 0.22177 0.10856 0.2225 0.0
C5 C 0.21362 0.14395 0.21268 0.0
C6 C 0.17787 0.16412 0.23618 0.0
C7 C 0.16832 0.21071 0.22431 0.0
C8 C 0.19437 0.29035 0.18632 0.0
H9 H 0.14281 0.22765 0.24379 0.0
C10 C 0.15953 0.31041 0.16033 0.0
C11 C 0.1615 0.36134 0.15789 0.0
C12 C 0.23048 0.32141 0.20959 0.0
H13 H 0.2575 0.30668 0.22964 0.0
C14 C 0.23212 0.37155 0.20734 0.0
H15 H 0.1317 0.28683 0.14196 0.0
C16 C 0.19794 0.39143 0.18167 0.0
H17 H 0.20009 0.43054 0.18006 0.0
H18 H 0.26014 0.39513 0.22542 0.0
H19 H 0.36392 0.95205 0.81734 0.0
C20 C 0.37942 0.92444 0.79938 0.0
C21 C 0.42052 0.90704 0.81684 0.0
C22 C 0.35644 0.90544 0.76025 0.0
H23 H 0.47182 0.85714 0.80632 0.0
C24 C 0.44097 0.87182 0.79242 0.0
C25 C 0.41955 0.85369 0.75142 0.0
C26 C 0.37751 0.87149 0.73572 0.0
C27 C 0.30713 0.91644 0.74879 0.0
H28 H 0.35974 0.85739 0.70515 0.0
C29 C 0.29407 0.92743 0.70473 0.0
C30 C 0.24637 0.93592 0.69519 0.0
C31 C 0.27194 0.91412 0.78272 0.0
H32 H 0.28065 0.90486 0.81673 0.0
C33 C 0.22479 0.92262 0.7731 0.0
H34 H 0.32063 0.92941 0.67817 0.0
C35 C 0.21199 0.93339 0.72958 0.0
H36 H 0.17512 0.93992 0.72266 0.0
H37 H 0.19802 0.92059 0.79942 0.0
H38 H 0.6497 0.5131 0.98728 0.0
C39 C 0.63944 0.47534 0.99679 0.0
C40 C 0.6755 0.44698 1.00743 0.0
C41 C 0.59006 0.4551 0.99752 0.0
H42 H 0.68959 0.37583 0.02643 0.0
C43 C 0.6617 0.39822 0.01938 0.0
C44 C 0.61228 0.3777 0.02059 0.0
C45 C 0.57645 0.40637 0.00963 0.0
C46 C 0.55377 0.48318 0.97932 0.0
H47 H 0.53825 0.39052 0.00929 0.0
C48 C 0.55557 0.4948 0.93386 0.0
C49 C 0.52205 0.52175 0.91491 0.0
C50 C 0.51794 0.4985 1.00623 0.0
H51 H 0.5161 0.48956 0.04149 0.0
C52 C 0.48474 0.52618 0.98754 0.0
H53 H 0.58306 0.48246 0.91303 0.0
C54 C 0.48678 0.53795 0.94198 0.0
H55 H 0.4604 0.55872 0.92776 0.0
H56 H 0.45725 0.5383 0.00832 0.0
H57 H 0.84958 0.74126 0.35401 0.0
C58 C 0.83128 0.72536 0.38364 0.0
C59 C 0.84384 0.74637 0.42519 0.0
C60 C 0.79427 0.68525 0.37991 0.0
H61 H 0.82894 0.74359 0.49583 0.0
C62 C 0.81988 0.72677 0.46366 0.0
C63 C 0.78296 0.68673 0.46062 0.0
C64 C 0.77019 0.66607 0.41861 0.0
C65 C 0.77978 0.66548 0.33515 0.0
H66 H 0.74083 0.63574 0.41596 0.0
C67 C 0.81572 0.66164 0.30318 0.0
C68 C 0.80275 0.64865 0.25919 0.0
C69 C 0.73034 0.65374 0.32296 0.0
H70 H 0.70179 0.65682 0.34676 0.0
C71 C 0.71732 0.63968 0.27923 0.0
H72 H 0.85402 0.66989 0.31216 0.0
C73 C 0.75334 0.63765 0.24723 0.0
H74 H 0.74276 0.6273 0.21332 0.0
H75 H 0.6792 0.63113 0.26994 0.0
H76 H 0.91105 0.92018 0.93575 0.0
C77 C 0.91902 0.92831 0.90089 0.0
C78 C 0.94062 0.89552 0.87492 0.0
C79 C 0.90839 0.9719 0.8825 0.0
H80 H 0.96989 0.88304 0.80987 0.0
C81 C 0.95183 0.90726 0.82973 0.0
C82 C 0.94132 0.95105 0.81065 0.0
C83 C 0.91849 0.98223 0.83728 0.0
C84 C 0.88951 0.00847 0.91078 0.0
H85 H 0.90837 0.01501 0.82278 0.0
C86 C 0.84983 0.99554 0.93991 0.0
C87 C 0.83149 0.03137 0.96511 0.0
C88 C 0.91152 0.05726 0.90819 0.0
H89 H 0.94249 0.06811 0.88662 0.0
C90 C 0.89415 0.09255 0.93358 0.0
H91 H 0.83299 0.95794 0.94241 0.0
C92 C 0.85435 0.07989 0.9616 0.0
H93 H 0.84082 0.1084 0.97992 0.0
H94 H 0.9113 0.13003 0.93117 0.0
H95 H 0.71336 0.17799 0.50491 0.0
C96 C 0.69727 0.17111 0.47202 0.0
C97 C 0.72306 0.15004 0.43907 0.0
C98 C 0.65028 0.18245 0.46346 0.0
H99 H 0.71914 0.12177 0.37207 0.0
C100 C 0.70106 0.14057 0.39699 0.0
C101 C 0.65488 0.15302 0.38709 0.0
C102 C 0.6294 0.17381 0.42068 0.0
C103 C 0.62157 0.19723 0.50138 0.0
H104 H 0.59302 0.18186 0.41397 0.0
C105 C 0.60372 0.24213 0.50229 0.0
C106 C 0.57939 0.2558 0.5406 0.0
C107 C 0.61411 0.16607 0.53853 0.0
H108 H 0.62733 0.13144 0.53858 0.0
C109 C 0.59022 0.17931 0.57614 0.0
H110 H 0.60954 0.26649 0.47385 0.0
C111 C 0.57351 0.22389 0.57745 0.0
H112 H 0.55687 0.23382 0.60796 0.0
H113 H 0.58532 0.1552 0.60477 0.0
H114 H 0.41918 0.70963 0.23137 0.0
C115 C 0.38492 0.70582 0.2131 0.0
C116 C 0.37316 0.74513 0.1882 0.0
C117 C 0.35309 0.66149 0.21371 0.0
H118 H 0.32101 0.77053 0.14371 0.0
C119 C 0.3294 0.7404 0.16391 0.0
C120 C 0.29769 0.69635 0.16362 0.0
C121 C 0.30965 0.65693 0.18853 0.0
C122 C 0.36586 0.61989 0.23991 0.0
H123 H 0.28482 0.62291 0.18862 0.0
C124 C 0.38555 0.627 0.28323 0.0
C125 C 0.39974 0.58816 0.30737 0.0
C126 C 0.35951 0.57307 0.22145 0.0
H127 H 0.34485 0.56662 0.18802 0.0
C128 C 0.37315 0.53427 0.24563 0.0
H129 H 0.39024 0.66277 0.29811 0.0
C130 C 0.39339 0.54172 0.28831 0.0
H131 H 0.40379 0.5112 0.3066 0.0
H132 H 0.36833 0.49837 0.23113 0.0
H133 H 0.15891 0.44942 0.69228 0.0
C134 C 0.14688 0.42551 0.66467 0.0
C135 C 0.17671 0.42598 0.627 0.0
C136 C 0.10325 0.39262 0.6676 0.0
H137 H 0.18821 0.39073 0.56489 0.0
C138 C 0.16363 0.39258 0.5926 0.0
C139 C 0.12119 0.35857 0.59602 0.0
C140 C 0.09007 0.36058 0.63228 0.0
C141 C 0.07328 0.38871 0.70868 0.0
H142 H 0.05693 0.33455 0.63441 0.0
C143 C 0.06883 0.43021 0.73363 0.0
C144 C 0.04082 0.4263 0.77241 0.0
C145 C 0.0494 0.34317 0.72369 0.0
H146 H 0.05341 0.31001 0.70646 0.0
C147 C 0.02061 0.33962 0.76188 0.0
H148 H 0.08678 0.46566 0.72304 0.0
C149 C 0.01618 0.38108 0.7862 0.0
H150 H 0.99461 0.37779 0.81639 0.0
H151 H 0.00235 0.30455 0.77302 0.0
O152 O 0.02857 0.14544 0.54916 0.0
Zn153 Zn 0.99062 0.0784 0.54661 0.0
O154 O 0.02566 0.04039 0.50747 0.0
Zn155 Zn 0.99342 0.0351 0.44912 0.0
Zn156 Zn 0.09305 0.07026 0.49856 0.0
Zn157 Zn 0.02616 0.97811 0.53629 0.0
O158 O 0.96926 0.96435 0.4374 0.0
O159 O 0.9916 0.92624 0.49788 0.0
O160 O 0.92459 0.08648 0.52044 0.0
O161 O 0.93382 0.06934 0.44889 0.0
O162 O 0.03898 0.06296 0.39892 0.0
O163 O 0.11079 0.0761 0.43333 0.0
O164 O 0.14061 0.03562 0.53317 0.0
O165 O 0.98227 0.04905 0.60957 0.0
O166 O 0.09419 0.96579 0.54894 0.0
O167 O 0.99498 0.97361 0.59756 0.0
C168 C 0.07136 0.16382 0.53703 0.0
C169 C 0.9708 0.92555 0.45981 0.0
C170 C 0.08516 0.07562 0.39779 0.0
C171 C 0.90943 0.08507 0.48007 0.0
C172 C 0.13549 0.99287 0.54951 0.0
C173 C 0.98301 0.00577 0.62352 0.0
O174 O 0.10035 0.13862 0.51903 0.0
O175 O 0.52755 0.1467 0.03904 0.0
Zn176 Zn 0.49191 0.07921 0.05314 0.0
O177 O 0.52993 0.0477 0.09763 0.0
Zn178 Zn 0.54377 0.98605 0.07365 0.0
Zn179 Zn 0.59226 0.08703 0.11096 0.0
Zn180 Zn 0.49405 0.03899 0.15394 0.0
O181 O 0.51589 0.93135 0.11462 0.0
O182 O 0.47624 0.96783 0.1656 0.0
O183 O 0.47817 0.03751 0.9965 0.0
O184 O 0.51247 0.97243 0.01314 0.0
O185 O 0.61552 0.98664 0.0615 0.0
O186 O 0.64868 0.06011 0.08365 0.0
O187 O 0.60428 0.09807 0.17689 0.0
O188 O 0.42773 0.09248 0.07962 0.0
O189 O 0.53335 0.06923 0.20738 0.0
O190 O 0.43183 0.06863 0.15043 0.0
C191 C 0.56511 0.17131 0.05716 0.0
C192 C 0.48829 0.92958 0.14866 0.0
C193 C 0.6524 0.01965 0.06553 0.0
C194 C 0.48891 0.99593 0.98634 0.0
C195 C 0.57706 0.091 0.21106 0.0
C196 C 0.40996 0.08746 0.11881 0.0
O197 O 0.59134 0.15224 0.08507 0.0
O198 O 0.55188 0.58835 0.70521 0.0
Zn199 Zn 0.54858 0.61816 0.64405 0.0
O200 O 0.50393 0.57355 0.60619 0.0
Zn201 Zn 0.53742 0.55411 0.55454 0.0
Zn202 Zn 0.4795 0.51307 0.63723 0.0
Zn203 Zn 0.45048 0.60789 0.58722 0.0
O204 O 0.50558 0.57301 0.49871 0.0
O205 O 0.45068 0.61833 0.51986 0.0
O206 O 0.61597 0.63416 0.61578 0.0
O207 O 0.6049 0.58755 0.55535 0.0
O208 O 0.5424 0.48289 0.55089 0.0
O209 O 0.50219 0.45289 0.61076 0.0
O210 O 0.40661 0.50183 0.63547 0.0
O211 O 0.52192 0.68049 0.65769 0.0
O212 O 0.38656 0.56622 0.59987 0.0
O213 O 0.45056 0.67057 0.62241 0.0
C214 C 0.52848 0.5505 0.72349 0.0
C215 C 0.47331 0.59939 0.48921 0.0
C216 C 0.52661 0.44703 0.57584 0.0
C217 C 0.6319 0.6172 0.58023 0.0
C218 C 0.37472 0.52549 0.6193 0.0
C219 C 0.4815 0.69488 0.64864 0.0
O220 O 0.49968 0.51937 0.70128 0.0
O221 O 0.95173 0.58845 0.11775 0.0
Zn222 Zn 0.97086 0.55471 0.06375 0.0
O223 O 0.00204 0.60274 0.02151 0.0
Zn224 Zn 0.96023 0.60691 0.97038 0.0
Zn225 Zn 0.01311 0.66701 0.04761 0.0
Zn226 Zn 0.06275 0.5823 1.00422 0.0
O227 O 0.98739 0.57576 0.91918 0.0
O228 O 0.06376 0.56991 0.93817 0.0
O229 O 0.90657 0.52285 0.03893 0.0
O230 O 0.89355 0.57002 0.98138 0.0
O231 O 0.95635 0.67577 0.9514 0.0
O232 O 0.99973 0.71991 1.00302 0.0
O233 O 0.08317 0.67955 0.06915 0.0
O234 O 0.01198 0.50301 0.08188 0.0
O235 O 0.11871 0.6301 0.02652 0.0
O236 O 0.07329 0.51947 0.03478 0.0
C237 C 0.94832 0.63259 0.12567 0.0
C238 C 0.029 0.56509 0.90964 0.0
C239 C 0.97518 0.71698 0.96658 0.0
C240 C 0.87889 0.53532 0.00821 0.0
C241 C 0.12123 0.66332 0.05591 0.0
C242 C 0.05159 0.49306 0.0656 0.0
O243 O 0.96752 0.66701 0.10017 0.0
C244 C 0.10355 0.13144 0.28116 0.0
C245 C 0.15455 0.13884 0.27635 0.0
C246 C 0.08129 0.10923 0.31968 0.0
C247 C 0.10919 0.09419 0.35528 0.0
H248 H 0.0807 0.14311 0.25499 0.0
H249 H 0.04193 0.10513 0.32203 0.0
S250 S 0.24444 0.10563 0.35898 0.0
N251 N 0.23239 0.12949 0.31035 0.0
N252 N 0.19099 0.08775 0.38235 0.0
C253 C 0.16032 0.10094 0.35048 0.0
C254 C 0.18284 0.12325 0.31121 0.0
C255 C 0.48853 0.94449 0.86851 0.0
C256 C 0.43913 0.92499 0.86175 0.0
C257 C 0.50459 0.96763 0.90894 0.0
C258 C 0.47168 0.97271 0.94358 0.0
H259 H 0.51458 0.94315 0.84197 0.0
H260 H 0.54283 0.98237 0.91285 0.0
S261 S 0.34034 0.92241 0.94539 0.0
N262 N 0.3588 0.90765 0.89572 0.0
N263 N 0.38885 0.95275 0.97027 0.0
C264 C 0.42284 0.95191 0.93796 0.0
C265 C 0.40664 0.92763 0.89745 0.0
C266 C 0.51866 0.49081 0.83725 0.0
C267 C 0.52345 0.53058 0.86637 0.0
C268 C 0.52167 0.49765 0.79103 0.0
C269 C 0.53048 0.54453 0.77238 0.0
H270 H 0.51211 0.45409 0.85036 0.0
H271 H 0.51687 0.46597 0.76975 0.0
S272 S 0.54648 0.66059 0.83482 0.0
N273 N 0.5378 0.6182 0.87396 0.0
N274 N 0.54402 0.63148 0.78678 0.0
C275 C 0.53606 0.58468 0.8013 0.0
C276 C 0.53225 0.5776 0.84842 0.0
C277 C 0.87443 0.61426 0.2314 0.0
C278 C 0.84132 0.64724 0.22593 0.0
C279 C 0.91068 0.61141 0.19972 0.0
C280 C 0.91567 0.64221 0.16208 0.0
H281 H 0.87143 0.58966 0.25974 0.0
H282 H 0.93434 0.58419 0.20423 0.0
S283 S 0.83968 0.7371 0.13458 0.0
N284 N 0.8167 0.7127 0.18169 0.0
N285 N 0.88548 0.70809 0.12223 0.0
C286 C 0.88395 0.67677 0.15732 0.0
C287 C 0.84647 0.67901 0.18921 0.0
C288 C 0.27956 0.10119 0.14745 0.0
C289 C 0.28356 0.15068 0.15905 0.0
C290 C 0.32028 0.08092 0.13322 0.0
C291 C 0.36633 0.10951 0.12954 0.0
H292 H 0.2448 0.07771 0.15008 0.0
H293 H 0.31588 0.04253 0.12572 0.0
S294 S 0.39764 0.23999 0.15652 0.0
N295 N 0.33868 0.22708 0.16679 0.0
N296 N 0.41421 0.18911 0.1385 0.0
C297 C 0.37089 0.15892 0.14008 0.0
C298 C 0.32977 0.17952 0.1551 0.0
C299 C 0.19703 0.91373 0.62707 0.0
C300 C 0.23082 0.94771 0.64977 0.0
C301 C 0.16983 0.92787 0.59109 0.0
C302 C 0.17493 0.97671 0.57698 0.0
H303 H 0.18903 0.87673 0.6393 0.0
H304 H 0.14198 0.90092 0.57651 0.0
S305 S 0.2642 0.078 0.62211 0.0
N306 N 0.27246 0.03059 0.65299 0.0
N307 N 0.2213 0.05778 0.58534 0.0
C308 C 0.21216 0.01005 0.59683 0.0
C309 C 0.24 0.99541 0.63344 0.0
C310 C 0.75814 0.46249 0.04246 0.0
C311 C 0.72766 0.46806 1.00574 0.0
C312 C 0.80724 0.48348 0.04246 0.0
C313 C 0.82771 0.51088 1.00571 0.0
H314 H 0.74365 0.44262 0.07184 0.0
H315 H 0.82893 0.47904 0.07201 0.0
S316 S 0.76402 0.53179 0.89939 0.0
N317 N 0.7218 0.49958 0.93037 0.0
N318 N 0.81413 0.53957 0.9303 0.0
C319 C 0.79781 0.51551 0.96818 0.0
C320 C 0.74778 0.494 0.96823 0.0
C321 C 0.73112 0.70206 0.52523 0.0
C322 C 0.75418 0.66938 0.50042 0.0
C323 C 0.69483 0.68514 0.55631 0.0
C324 C 0.68077 0.63515 0.56318 0.0
H325 H 0.73826 0.7406 0.51798 0.0
H326 H 0.67455 0.71094 0.57157 0.0
S327 S 0.73759 0.53582 0.51402 0.0
N328 N 0.76642 0.5857 0.4905 0.0
N329 N 0.69782 0.5538 0.54852 0.0
C330 C 0.70731 0.60265 0.54223 0.0
C331 C 0.7441 0.6198 0.51078 0.0
C332 C 0.08605 0.3997 0.14921 0.0
C333 C 0.12744 0.38505 0.12992 0.0
C334 C 0.06005 0.43254 0.12711 0.0
C335 C 0.07501 0.45268 0.08516 0.0
H336 H 0.0752 0.38762 0.18261 0.0
H337 H 0.02955 0.44411 0.14418 0.0
S338 S 0.1793 0.42238 0.01927 0.0
N339 N 0.18056 0.39034 0.06572 0.0
N340 N 0.13225 0.45183 0.02392 0.0
C341 C 0.1151 0.43617 0.06469 0.0
C342 C 0.14121 0.40254 0.08717 0.0
C343 C 0.56829 0.29497 1.00232 0.0
C344 C 0.59868 0.32568 0.03137 0.0
C345 C 0.55757 0.24497 0.01071 0.0
C346 C 0.57707 0.22405 0.04833 0.0
H347 H 0.55353 0.30955 0.97244 0.0
H348 H 0.53437 0.22255 0.98728 0.0
S349 S 0.65494 0.29029 0.1368 0.0
N350 N 0.64531 0.33268 0.10055 0.0
N351 N 0.6258 0.23896 0.11648 0.0
C352 C 0.60667 0.25485 0.07816 0.0
C353 C 0.6173 0.30559 0.06963 0.0
C354 C 0.91863 0.79255 0.45909 0.0
C355 C 0.88 0.79068 0.4284 0.0
C356 C 0.94991 0.83587 0.46679 0.0
C357 C 0.9434 0.87899 0.44431 0.0
H358 H 0.92382 0.76057 0.4782 0.0
H359 H 0.97823 0.83585 0.49191 0.0
S360 S 0.84911 0.89181 0.35816 0.0
N361 N 0.83809 0.83424 0.37349 0.0
N362 N 0.89708 0.91605 0.38769 0.0
C363 C 0.90641 0.87686 0.41161 0.0
C364 C 0.87456 0.83258 0.40379 0.0
C365 C 0.40344 0.77612 0.70724 0.0
C366 C 0.43747 0.81352 0.72604 0.0
C367 C 0.41808 0.73927 0.68122 0.0
C368 C 0.46762 0.73714 0.67336 0.0
H369 H 0.36477 0.77485 0.71296 0.0
H370 H 0.39012 0.71142 0.66815 0.0
S371 S 0.57195 0.82587 0.71428 0.0
N372 N 0.52345 0.84635 0.73381 0.0
N373 N 0.5511 0.77588 0.68653 0.0
C374 C 0.5023 0.7738 0.6923 0.0
C375 C 0.48727 0.81204 0.71828 0.0
C376 C 0.9442 0.93113 0.72841 0.0
C377 C 0.95409 0.96509 0.76319 0.0
C378 C 0.95338 0.94458 0.68346 0.0
C379 C 0.97226 0.9927 0.67126 0.0
H380 H 0.9284 0.89402 0.73584 0.0
H381 H 0.94498 0.91711 0.65797 0.0
S382 S 0.00984 0.09432 0.74966 0.0
N383 N 0.98843 0.04813 0.78224 0.0
N384 N 0.00369 0.07352 0.69811 0.0
C385 C 0.98318 0.02677 0.70572 0.0
C386 C 0.97466 0.01295 0.75147 0.0
C387 C 0.58742 0.11252 0.33714 0.0
C388 C 0.63324 0.14159 0.34196 0.0
C389 C 0.56934 0.09666 0.29481 0.0
C390 C 0.59637 0.10928 0.25558 0.0
H391 H 0.56609 0.10061 0.36642 0.0
H392 H 0.53427 0.07358 0.293 0.0
S393 S 0.71647 0.18928 0.25026 0.0
N394 N 0.70362 0.18542 0.304 0.0
N395 N 0.6702 0.15598 0.22476 0.0
C396 C 0.64158 0.13989 0.26008 0.0
C397 C 0.65983 0.15592 0.3031 0.0
C398 C 0.39492 0.61388 0.38689 0.0
C399 C 0.42131 0.59596 0.35252 0.0
C400 C 0.41309 0.61734 0.43081 0.0
C401 C 0.45842 0.60324 0.44174 0.0
H402 H 0.35917 0.6235 0.38009 0.0
H403 H 0.39048 0.62923 0.4566 0.0
S404 S 0.54464 0.56119 0.36158 0.0
N405 N 0.49676 0.56891 0.33082 0.0
N406 N 0.5316 0.5759 0.41294 0.0
C407 C 0.48638 0.5881 0.4068 0.0
C408 C 0.46762 0.58427 0.36231 0.0
C409 C 0.08115 0.4872 0.82574 0.0
C410 C 0.03977 0.46887 0.80048 0.0
C411 C 0.07853 0.52172 0.8589 0.0
C412 C 0.03439 0.53896 0.86761 0.0
H413 H 0.1149 0.47263 0.82162 0.0
H414 H 0.11054 0.53268 0.8795 0.0
S415 S 0.91835 0.50786 0.80372 0.0
N416 N 0.95569 0.47397 0.78151 0.0
N417 N 0.95027 0.53991 0.84306 0.0
C418 C 0.99399 0.52395 0.83931 0.0
C419 C 0.99674 0.48838 0.806 0.0
C420 C 0.78649 0.04194 0.03589 0.0
C421 C 0.7874 0.01985 0.99375 0.0
C422 C 0.74316 0.0394 0.06016 0.0
C423 C 0.69904 0.0139 0.04372 0.0
H424 H 0.81925 0.0631 0.04949 0.0
H425 H 0.74391 0.05897 0.09137 0.0
S426 S 0.68188 0.94701 0.93653 0.0
N427 N 0.74037 0.96993 0.93752 0.0
N428 N 0.65932 0.96372 0.98384 0.0
C429 C 0.69992 0.98898 1.00302 0.0
C430 C 0.74398 0.99223 0.9779 0.0
C431 C 0.7797 0.11256 0.49034 0.0
C432 C 0.77166 0.1353 0.44933 0.0
C433 C 0.82441 0.0969 0.50019 0.0
C434 C 0.86269 0.10252 0.46914 0.0
H435 H 0.7509 0.10593 0.51484 0.0
H436 H 0.82865 0.07933 0.53204 0.0
S437 S 0.86241 0.1635 0.35865 0.0
N438 N 0.8077 0.16602 0.37895 0.0
N439 N 0.89071 0.1347 0.3967 0.0
C440 C 0.85551 0.12565 0.42827 0.0
C441 C 0.81033 0.14246 0.41856 0.0
C442 C 0.24615 0.65348 0.10348 0.0
C443 C 0.25347 0.69074 0.13516 0.0
C444 C 0.20453 0.64683 0.07629 0.0
C445 C 0.16815 0.67682 0.08011 0.0
H446 H 0.27277 0.62911 0.0998 0.0
H447 H 0.2002 0.61669 0.05321 0.0
S448 S 0.17165 0.78125 0.15706 0.0
N449 N 0.22256 0.75936 0.16801 0.0
N450 N 0.14369 0.74675 0.11715 0.0
C451 C 0.17581 0.71518 0.11099 0.0
C452 C 0.2186 0.72216 0.13844 0.0
C453 C 0.25911 0.44923 0.66019 0.0
C454 C 0.22521 0.45592 0.62654 0.0
C455 C 0.30726 0.47272 0.65797 0.0
C456 C 0.32289 0.50423 0.62235 0.0
H457 H 0.24878 0.42427 0.68757 0.0
H458 H 0.33256 0.46568 0.68408 0.0
S459 S 0.24707 0.53532 0.52689 0.0
N460 N 0.20954 0.49687 0.55737 0.0
N461 N 0.30013 0.54201 0.55335 0.0
C462 C 0.28878 0.51248 0.58923 0.0
C463 C 0.2399 0.48794 0.59123 0.0
C464 C 0.9754 0.85093 0.938 0.0
C465 C 0.95193 0.84967 0.89599 0.0
C466 C 0.98339 0.80817 0.96014 0.0
C467 C 0.96796 0.76207 0.94146 0.0
H468 H 0.98755 0.88539 0.95409 0.0
H469 H 1.00123 0.81141 0.99252 0.0
S470 S 0.90512 0.73891 0.83163 0.0
N471 N 0.91368 0.79855 0.83636 0.0
N472 N 0.92873 0.71829 0.87736 0.0
C473 C 0.94505 0.76041 0.899 0.0
C474 C 0.93714 0.80407 0.87644 0.0
C475 C 0.39165 0.83436 0.19774 0.0
C476 C 0.40726 0.7909 0.1852 0.0
C477 C 0.41991 0.87911 0.1884 0.0
C478 C 0.46437 0.88192 0.16537 0.0
H479 H 0.35646 0.83375 0.21338 0.0
H480 H 0.40532 0.91169 0.19709 0.0
S481 S 0.52306 0.77764 0.12928 0.0
N482 N 0.47119 0.75255 0.15204 0.0
N483 N 0.52453 0.83686 0.13383 0.0
C484 C 0.48156 0.83841 0.15484 0.0
C485 C 0.45292 0.79279 0.16493 0.0
C486 C 0.06626 0.29681 0.55275 0.0
C487 C 0.11351 0.31445 0.56838 0.0
C488 C 0.05332 0.24813 0.54107 0.0
C489 C 0.0875 0.21587 0.54374 0.0
H490 H 0.03818 0.3199 0.5529 0.0
H491 H 0.01585 0.23528 0.53148 0.0
S492 S 0.21759 0.24544 0.5768 0.0
N493 N 0.19571 0.29693 0.58208 0.0
N494 N 0.1717 0.2057 0.55823 0.0
C495 C 0.13599 0.234 0.55516 0.0
C496 C 0.14901 0.28341 0.56778 0.0
C497 C 0.59387 0.34704 0.53292 0.0
C498 C 0.56259 0.30417 0.54439 0.0
C499 C 0.58149 0.39304 0.54234 0.0
C500 C 0.53765 0.39802 0.56415 0.0
H501 H 0.62903 0.34509 0.51816 0.0
H502 H 0.60727 0.42493 0.53382 0.0
S503 S 0.43987 0.29761 0.59507 0.0
N504 N 0.48303 0.27015 0.57371 0.0
N505 N 0.46087 0.35625 0.59284 0.0
C506 C 0.5052 0.3556 0.57405 0.0
C507 C 0.51735 0.30887 0.56376 0.0
loop_
_geom_bond_atom_site_label_1
_geom_bond_atom_site_label_2
_geom_bond_distance
_geom_bond_site_symmetry_2
_ccdc_geom_bond_type
H0 C1 0.949 . S
C1 H0 0.949 . S
C1 C2 1.395 . S
C1 C3 1.391 . S
C2 C1 1.395 . S
C2 C5 1.390 . S
C3 C1 1.391 . S
C3 C7 1.387 . S
C3 C8 1.491 . S
H4 C5 0.950 . S
C5 C2 1.390 . S
C5 H4 0.950 . S
C5 C6 1.378 . S
C6 C5 1.378 . S
C6 C7 1.409 . S
C7 C3 1.387 . S
C7 C6 1.409 . S
C7 H9 0.951 . S
C8 C3 1.491 . S
C8 C10 1.382 . S
C8 C12 1.404 . S
H9 C7 0.951 . S
C10 C8 1.382 . S
C10 C11 1.390 . S
C10 H15 0.949 . S
C11 C10 1.390 . S
C11 C16 1.399 . S
C12 C8 1.404 . S
C12 H13 0.950 . S
C12 C14 1.375 . S
H13 C12 0.950 . S
C14 C12 1.375 . S
C14 C16 1.382 . S
C14 H18 0.950 . S
H15 C10 0.949 . S
C16 C11 1.399 . S
C16 C14 1.382 . S
C16 H17 0.952 . S
H17 C16 0.952 . S
H18 C14 0.950 . S
H19 C20 0.949 . S
C20 H19 0.949 . S
C20 C21 1.395 . S
C20 C22 1.391 . S
C21 C20 1.395 . S
C21 C24 1.390 . S
C22 C20 1.391 . S
C22 C26 1.387 . S
C22 C27 1.491 . S
H23 C24 0.950 . S
C24 C21 1.390 . S
C24 H23 0.950 . S
C24 C25 1.378 . S
C25 C24 1.378 . S
C25 C26 1.409 . S
C26 C22 1.387 . S
C26 C25 1.409 . S
C26 H28 0.951 . S
C27 C22 1.491 . S
C27 C29 1.382 . S
C27 C31 1.404 . S
H28 C26 0.951 . S
C29 C27 1.382 . S
C29 C30 1.390 . S
C29 H34 0.949 . S
C30 C29 1.390 . S
C30 C35 1.399 . S
C31 C27 1.404 . S
C31 H32 0.950 . S
C31 C33 1.375 . S
H32 C31 0.950 . S
C33 C31 1.375 . S
C33 C35 1.382 . S
C33 H37 0.950 . S
H34 C29 0.949 . S
C35 C30 1.399 . S
C35 C33 1.382 . S
C35 H36 0.952 . S
H36 C35 0.952 . S
H37 C33 0.950 . S
H38 C39 0.949 . S
C39 H38 0.949 . S
C39 C40 1.395 . S
C39 C41 1.391 . S
C40 C39 1.395 . S
C40 C43 1.390 1_556 S
C41 C39 1.391 . S
C41 C45 1.387 . S
C41 C46 1.491 . S
H42 C43 0.950 . S
C43 C40 1.390 1_554 S
C43 H42 0.950 . S
C43 C44 1.378 1_554 S
C44 C43 1.378 1_556 S
C44 C45 1.409 . S
C45 C41 1.387 . S
C45 C44 1.409 . S
C45 H47 0.951 . S
C46 C41 1.491 . S
C46 C48 1.382 . S
C46 C50 1.404 . S
H47 C45 0.951 . S
C48 C46 1.382 . S
C48 C49 1.390 . S
C48 H53 0.949 . S
C49 C48 1.390 . S
C49 C54 1.399 . S
C50 C46 1.404 . S
C50 H51 0.950 . S
C50 C52 1.375 . S
H51 C50 0.950 . S
C52 C50 1.375 . S
C52 C54 1.382 . S
C52 H56 0.950 . S
H53 C48 0.949 . S
C54 C49 1.399 . S
C54 C52 1.382 . S
C54 H55 0.952 . S
H55 C54 0.952 . S
H56 C52 0.950 . S
H57 C58 0.949 . S
C58 H57 0.949 . S
C58 C59 1.395 . S
C58 C60 1.391 . S
C59 C58 1.395 . S
C59 C62 1.390 . S
C60 C58 1.391 . S
C60 C64 1.387 . S
C60 C65 1.491 . S
H61 C62 0.950 . S
C62 C59 1.390 . S
C62 H61 0.950 . S
C62 C63 1.378 . S
C63 C62 1.378 . S
C63 C64 1.409 . S
C64 C60 1.387 . S
C64 C63 1.409 . S
C64 H66 0.951 . S
C65 C60 1.491 . S
C65 C67 1.382 . S
C65 C69 1.404 . S
H66 C64 0.951 . S
C67 C65 1.382 . S
C67 C68 1.390 . S
C67 H72 0.949 . S
C68 C67 1.390 . S
C68 C73 1.399 . S
C69 C65 1.404 . S
C69 H70 0.950 . S
C69 C71 1.375 . S
H70 C69 0.950 . S
C71 C69 1.375 . S
C71 C73 1.382 . S
C71 H75 0.950 . S
H72 C67 0.949 . S
C73 C68 1.399 . S
C73 C71 1.382 . S
C73 H74 0.952 . S
H74 C73 0.952 . S
H75 C71 0.950 . S
H76 C77 0.949 . S
C77 H76 0.949 . S
C77 C78 1.395 . S
C77 C79 1.380 1_565 S
C78 C77 1.395 . S
C78 C81 1.390 . S
C79 C77 1.380 1_545 S
C79 C83 1.391 . S
C79 C84 1.498 . S
H80 C81 0.950 1_455 S
C81 C78 1.390 . S
C81 H80 0.950 1_655 S
C81 C82 1.378 1_565 S
C82 C81 1.378 1_545 S
C82 C83 1.409 . S
C83 C79 1.391 . S
C83 C82 1.409 . S
C83 H85 0.951 . S
C84 C79 1.498 . S
C84 C86 1.382 . S
C84 C88 1.404 . S
H85 C83 0.951 . S
C86 C84 1.382 . S
C86 C87 1.390 . S
C86 H91 0.949 1_556 S
C87 C86 1.390 . S
C87 C92 1.399 . S
C88 C84 1.404 . S
C88 H89 0.950 . S
C88 C90 1.375 . S
H89 C88 0.950 . S
C90 C88 1.375 . S
C90 C92 1.382 . S
C90 H94 0.950 . S
H91 C86 0.949 1_554 S
C92 C87 1.399 . S
C92 C90 1.382 . S
C92 H93 0.952 . S
H93 C92 0.952 . S
H94 C90 0.950 . S
H95 C96 0.949 . S
C96 H95 0.949 . S
C96 C97 1.395 . S
C96 C98 1.391 . S
C97 C96 1.395 . S
C97 C100 1.390 . S
C98 C96 1.391 . S
C98 C102 1.387 . S
C98 C103 1.491 . S
H99 C100 0.950 . S
C100 C97 1.390 . S
C100 H99 0.950 . S
C100 C101 1.378 . S
C101 C100 1.378 . S
C101 C102 1.409 . S
C102 C98 1.387 . S
C102 C101 1.409 . S
C102 H104 0.951 . S
C103 C98 1.491 . S
C103 C105 1.382 . S
C103 C107 1.404 . S
H104 C102 0.951 . S
C105 C103 1.382 . S
C105 C106 1.390 . S
C105 H110 0.949 . S
C106 C105 1.390 . S
C106 C111 1.399 . S
C107 C103 1.404 . S
C107 H108 0.950 . S
C107 C109 1.375 . S
H108 C107 0.950 . S
C109 C107 1.375 . S
C109 C111 1.382 . S
C109 H113 0.950 . S
H110 C105 0.949 . S
C111 C106 1.399 . S
C111 C109 1.382 . S
C111 H112 0.952 . S
H112 C111 0.952 . S
H113 C109 0.950 . S
H114 C115 0.949 . S
C115 H114 0.949 . S
C115 C116 1.395 . S
C115 C117 1.391 . S
C116 C115 1.395 . S
C116 C119 1.390 . S
C117 C115 1.391 . S
C117 C121 1.387 . S
C117 C122 1.491 . S
H118 C119 0.950 . S
C119 C116 1.390 . S
C119 H118 0.950 . S
C119 C120 1.378 . S
C120 C119 1.378 . S
C120 C121 1.409 . S
C121 C117 1.387 . S
C121 C120 1.409 . S
C121 H123 0.951 . S
C122 C117 1.491 . S
C122 C124 1.382 . S
C122 C126 1.404 . S
H123 C121 0.951 . S
C124 C122 1.382 . S
C124 C125 1.390 . S
C124 H129 0.949 . S
C125 C124 1.390 . S
C125 C130 1.399 . S
C126 C122 1.404 . S
C126 H127 0.950 . S
C126 C128 1.375 . S
H127 C126 0.950 . S
C128 C126 1.375 . S
C128 C130 1.382 . S
C128 H132 0.950 . S
H129 C124 0.949 . S
C130 C125 1.399 . S
C130 C128 1.382 . S
C130 H131 0.952 . S
H131 C130 0.952 . S
H132 C128 0.950 . S
H133 C134 0.949 . S
C134 H133 0.949 . S
C134 C135 1.395 . S
C134 C136 1.391 . S
C135 C134 1.395 . S
C135 C138 1.390 . S
C136 C134 1.391 . S
C136 C140 1.387 . S
C136 C141 1.491 . S
H137 C138 0.950 . S
C138 C135 1.390 . S
C138 H137 0.950 . S
C138 C139 1.378 . S
C139 C138 1.378 . S
C139 C140 1.409 . S
C140 C136 1.387 . S
C140 C139 1.409 . S
C140 H142 0.951 . S
C141 C136 1.491 . S
C141 C143 1.382 . S
C141 C145 1.404 . S
H142 C140 0.951 . S
C143 C141 1.382 . S
C143 C144 1.390 . S
C143 H148 0.949 . S
C144 C143 1.390 . S
C144 C149 1.399 . S
C145 C141 1.404 . S
C145 H146 0.950 . S
C145 C147 1.375 . S
H146 C145 0.950 . S
C147 C145 1.375 . S
C147 C149 1.382 . S
C147 H151 0.950 . S
H148 C143 0.949 . S
C149 C144 1.399 . S
C149 C147 1.382 . S
C149 H150 0.952 . S
H150 C149 0.952 . S
H151 C147 0.950 . S
O152 Zn153 1.947 1_455 S
O152 C168 1.245 . S
Zn153 O152 1.947 1_655 S
Zn153 O154 1.949 1_655 S
Zn153 O160 1.919 . S
Zn153 O165 1.924 . S
O154 Zn153 1.949 1_455 S
O154 Zn155 1.923 1_455 S
O154 Zn156 1.950 . S
O154 Zn157 1.945 1_545 S
Zn155 O154 1.923 1_655 S
Zn155 O158 1.933 1_545 S
Zn155 O161 1.941 . S
Zn155 O162 1.965 1_655 S
Zn156 O154 1.950 . S
Zn156 O163 1.938 . S
Zn156 O164 1.906 . S
Zn156 O174 1.953 . S
Zn157 O154 1.945 1_565 S
Zn157 O159 1.932 1_455 S
Zn157 O166 1.977 . S
Zn157 O167 1.910 1_455 S
O158 Zn155 1.933 1_565 S
O158 C169 1.226 . S
O159 Zn157 1.932 1_655 S
O159 C169 1.307 . S
O160 Zn153 1.919 . S
O160 C171 1.253 . S
O161 Zn155 1.941 . S
O161 C171 1.283 . S
O162 Zn155 1.965 1_455 S
O162 C170 1.303 . S
O163 Zn156 1.938 . S
O163 C170 1.247 . S
O164 Zn156 1.906 . S
O164 C172 1.304 . S
O165 Zn153 1.924 . S
O165 C173 1.311 . S
O166 Zn157 1.977 . S
O166 C172 1.272 1_565 S
O167 Zn157 1.910 1_655 S
O167 C173 1.231 1_565 S
C168 O152 1.245 . S
C168 O174 1.298 . S
C169 O158 1.226 . S
C169 O159 1.307 . S
C170 O162 1.303 . S
C170 O163 1.247 . S
C171 O160 1.253 . S
C171 O161 1.283 . S
C172 O164 1.304 . S
C172 O166 1.272 1_545 S
C173 O165 1.311 . S
C173 O167 1.231 1_545 S
O174 Zn156 1.953 . S
O174 C168 1.298 . S
O175 Zn176 1.953 . S
O175 C191 1.225 . S
Zn176 O175 1.953 . S
Zn176 O177 1.949 . S
Zn176 O183 1.919 1_554 S
Zn176 O188 1.924 . S
O177 Zn176 1.949 . S
O177 Zn178 1.923 1_545 S
O177 Zn179 1.950 . S
O177 Zn180 1.945 . S
Zn178 O177 1.923 1_565 S
Zn178 O181 1.933 . S
Zn178 O184 1.942 . S
Zn178 O185 1.965 . S
Zn179 O177 1.950 . S
Zn179 O186 1.938 . S
Zn179 O187 1.906 . S
Zn179 O197 1.953 . S
Zn180 O177 1.945 . S
Zn180 O182 1.932 1_545 S
Zn180 O189 1.977 . S
Zn180 O190 1.910 . S
O181 Zn178 1.933 . S
O181 C192 1.226 . S
O182 Zn180 1.932 1_565 S
O182 C192 1.307 . S
O183 Zn176 1.919 1_556 S
O183 C194 1.253 1_545 S
O184 Zn178 1.942 . S
O184 C194 1.283 1_554 S
O185 Zn178 1.965 . S
O185 C193 1.303 1_565 S
O186 Zn179 1.938 . S
O186 C193 1.247 . S
O187 Zn179 1.906 . S
O187 C195 1.304 . S
O188 Zn176 1.924 . S
O188 C196 1.311 . S
O189 Zn180 1.977 . S
O189 C195 1.272 . S
O190 Zn180 1.910 . S
O190 C196 1.231 . S
C191 O175 1.225 . S
C191 O197 1.298 . S
C192 O181 1.226 . S
C192 O182 1.307 . S
C193 O185 1.303 1_545 S
C193 O186 1.247 . S
C194 O183 1.253 1_565 S
C194 O184 1.283 1_556 S
C195 O187 1.304 . S
C195 O189 1.272 . S
C196 O188 1.311 . S
C196 O190 1.231 . S
O197 Zn179 1.953 . S
O197 C191 1.298 . S
O198 Zn199 1.953 . S
O198 C214 1.225 . S
Zn199 O198 1.953 . S
Zn199 O200 1.949 . S
Zn199 O206 1.919 . S
Zn199 O211 1.924 . S
O200 Zn199 1.949 . S
O200 Zn201 1.923 . S
O200 Zn202 1.950 . S
O200 Zn203 1.945 . S
Zn201 O200 1.923 . S
Zn201 O204 1.933 . S
Zn201 O207 1.941 . S
Zn201 O208 1.965 . S
Zn202 O200 1.950 . S
Zn202 O209 1.938 . S
Zn202 O210 1.906 . S
Zn202 O220 1.953 . S
Zn203 O200 1.945 . S
Zn203 O205 1.932 . S
Zn203 O212 1.977 . S
Zn203 O213 1.910 . S
O204 Zn201 1.933 . S
O204 C215 1.226 . S
O205 Zn203 1.932 . S
O205 C215 1.307 . S
O206 Zn199 1.919 . S
O206 C217 1.253 . S
O207 Zn201 1.941 . S
O207 C217 1.283 . S
O208 Zn201 1.965 . S
O208 C216 1.303 . S
O209 Zn202 1.938 . S
O209 C216 1.247 . S
O210 Zn202 1.906 . S
O210 C218 1.304 . S
O211 Zn199 1.924 . S
O211 C219 1.311 . S
O212 Zn203 1.977 . S
O212 C218 1.272 . S
O213 Zn203 1.910 . S
O213 C219 1.231 . S
C214 O198 1.225 . S
C214 O220 1.298 . S
C215 O204 1.226 . S
C215 O205 1.307 . S
C216 O208 1.303 . S
C216 O209 1.247 . S
C217 O206 1.253 . S
C217 O207 1.283 . S
C218 O210 1.304 . S
C218 O212 1.272 . S
C219 O211 1.311 . S
C219 O213 1.231 . S
O220 Zn202 1.953 . S
O220 C214 1.298 . S
O221 Zn222 1.953 . S
O221 C237 1.225 . S
Zn222 O221 1.953 . S
Zn222 O223 1.949 1_655 S
Zn222 O229 1.919 . S
Zn222 O234 1.924 . S
O223 Zn222 1.949 1_455 S
O223 Zn224 1.923 1_454 S
O223 Zn225 1.950 . S
O223 Zn226 1.945 . S
Zn224 O223 1.923 1_656 S
Zn224 O227 1.933 1_655 S
Zn224 O230 1.941 . S
Zn224 O231 1.965 . S
Zn225 O223 1.950 . S
Zn225 O232 1.938 . S
Zn225 O233 1.906 . S
Zn225 O243 1.953 . S
Zn226 O223 1.945 . S
Zn226 O228 1.932 1_554 S
Zn226 O235 1.977 . S
Zn226 O236 1.910 . S
O227 Zn224 1.933 1_455 S
O227 C238 1.226 . S
O228 Zn226 1.932 1_556 S
O228 C238 1.307 . S
O229 Zn222 1.919 . S
O229 C240 1.253 1_554 S
O230 Zn224 1.941 . S
O230 C240 1.283 . S
O231 Zn224 1.965 . S
O231 C239 1.303 1_656 S
O232 Zn225 1.938 . S
O232 C239 1.247 . S
O233 Zn225 1.906 . S
O233 C241 1.304 . S
O234 Zn222 1.924 . S
O234 C242 1.311 1_655 S
O235 Zn226 1.977 . S
O235 C241 1.272 . S
O236 Zn226 1.910 . S
O236 C242 1.231 . S
C237 O221 1.225 . S
C237 O243 1.298 1_655 S
C238 O227 1.226 . S
C238 O228 1.307 . S
C239 O231 1.303 1_454 S
C239 O232 1.247 . S
C240 O229 1.253 1_556 S
C240 O230 1.283 . S
C241 O233 1.304 . S
C241 O235 1.272 . S
C242 O234 1.311 1_455 S
C242 O236 1.231 . S
O243 Zn225 1.953 . S
O243 C237 1.298 1_455 S
C244 C245 1.369 . S
C244 C246 1.419 . S
C244 H248 0.930 . S
C245 C244 1.369 . S
C245 C254 1.429 . S
C246 C244 1.419 . S
C246 C247 1.363 . S
C246 H249 0.929 . S
C247 C246 1.363 . S
C247 C253 1.428 . S
H248 C244 0.930 . S
H249 C246 0.929 . S
S250 N251 1.613 . S
S250 N252 1.610 . S
N251 S250 1.613 . S
N251 C254 1.350 . S
N252 S250 1.610 . S
N252 C253 1.351 . S
C253 C247 1.428 . S
C253 N252 1.351 . S
C253 C254 1.434 . S
C254 C245 1.429 . S
C254 N251 1.350 . S
C254 C253 1.434 . S
C255 C256 1.369 . S
C255 C257 1.419 . S
C255 H259 0.930 . S
C256 C255 1.369 . S
C256 C265 1.429 . S
C257 C255 1.419 . S
C257 C258 1.363 . S
C257 H260 0.929 . S
C258 C257 1.363 . S
C258 C264 1.428 . S
H259 C255 0.930 . S
H260 C257 0.929 . S
S261 N262 1.613 . S
S261 N263 1.610 . S
N262 S261 1.613 . S
N262 C265 1.350 . S
N263 S261 1.610 . S
N263 C264 1.351 . S
C264 C258 1.428 . S
C264 N263 1.351 . S
C264 C265 1.434 . S
C265 C256 1.429 . S
C265 N262 1.350 . S
C265 C264 1.434 . S
C266 C267 1.369 . S
C266 C268 1.419 . S
C266 H270 0.930 . S
C267 C266 1.369 . S
C267 C276 1.429 . S
C268 C266 1.419 . S
C268 C269 1.363 . S
C268 H271 0.929 . S
C269 C268 1.363 . S
C269 C275 1.428 . S
H270 C266 0.930 . S
H271 C268 0.929 . S
S272 N273 1.613 . S
S272 N274 1.610 . S
N273 S272 1.613 . S
N273 C276 1.350 . S
N274 S272 1.610 . S
N274 C275 1.351 . S
C275 C269 1.428 . S
C275 N274 1.351 . S
C275 C276 1.434 . S
C276 C267 1.429 . S
C276 N273 1.350 . S
C276 C275 1.434 . S
C277 C278 1.369 . S
C277 C279 1.419 . S
C277 H281 0.930 1_655 S
C278 C277 1.369 . S
C278 C287 1.429 . S
C279 C277 1.419 . S
C279 C280 1.363 . S
C279 H282 0.929 1_655 S
C280 C279 1.363 . S
C280 C286 1.428 . S
H281 C277 0.930 1_455 S
H282 C279 0.929 1_455 S
S283 N284 1.613 . S
S283 N285 1.610 . S
N284 S283 1.613 . S
N284 C287 1.350 . S
N285 S283 1.610 . S
N285 C286 1.351 . S
C286 C280 1.428 . S
C286 N285 1.351 . S
C286 C287 1.434 . S
C287 C278 1.429 . S
C287 N284 1.350 . S
C287 C286 1.434 . S
C288 C289 1.369 . S
C288 C290 1.419 . S
C288 H292 0.930 . S
C289 C288 1.369 . S
C289 C298 1.429 . S
C290 C288 1.419 . S
C290 C291 1.363 . S
C290 H293 0.929 . S
C291 C290 1.363 . S
C291 C297 1.428 . S
H292 C288 0.930 . S
H293 C290 0.929 . S
S294 N295 1.613 . S
S294 N296 1.610 . S
N295 S294 1.613 . S
N295 C298 1.350 . S
N296 S294 1.610 . S
N296 C297 1.351 . S
C297 C291 1.428 . S
C297 N296 1.351 . S
C297 C298 1.434 . S
C298 C289 1.429 . S
C298 N295 1.350 . S
C298 C297 1.434 . S
C299 C300 1.369 1_545 S
C299 C301 1.419 . S
C299 H303 0.930 . S
C300 C299 1.369 1_565 S
C300 C309 1.429 . S
C301 C299 1.419 . S
C301 C302 1.363 1_545 S
C301 H304 0.929 . S
C302 C301 1.363 1_565 S
C302 C308 1.428 . S
H303 C299 0.930 . S
H304 C301 0.929 . S
S305 N306 1.613 . S
S305 N307 1.610 . S
N306 S305 1.613 . S
N306 C309 1.350 . S
N307 S305 1.610 . S
N307 C308 1.351 . S
C308 C302 1.428 . S
C308 N307 1.351 . S
C308 C309 1.434 . S
C309 C300 1.429 . S
C309 N306 1.350 . S
C309 C308 1.434 . S
C310 C311 1.369 1_554 S
C310 C312 1.419 . S
C310 H314 0.930 . S
C311 C310 1.369 1_556 S
C311 C320 1.429 . S
C312 C310 1.419 . S
C312 C313 1.363 1_554 S
C312 H315 0.929 . S
C313 C312 1.363 1_556 S
C313 C319 1.428 . S
H314 C310 0.930 . S
H315 C312 0.929 . S
S316 N317 1.613 . S
S316 N318 1.610 . S
N317 S316 1.613 . S
N317 C320 1.350 . S
N318 S316 1.610 . S
N318 C319 1.351 . S
C319 C313 1.428 . S
C319 N318 1.351 . S
C319 C320 1.434 . S
C320 C311 1.429 . S
C320 N317 1.350 . S
C320 C319 1.434 . S
C321 C322 1.369 . S
C321 C323 1.419 . S
C321 H325 0.930 . S
C322 C321 1.369 . S
C322 C331 1.429 . S
C323 C321 1.419 . S
C323 C324 1.363 . S
C323 H326 0.929 . S
C324 C323 1.363 . S
C324 C330 1.428 . S
H325 C321 0.930 . S
H326 C323 0.929 . S
S327 N328 1.613 . S
S327 N329 1.610 . S
N328 S327 1.613 . S
N328 C331 1.350 . S
N329 S327 1.610 . S
N329 C330 1.351 . S
C330 C324 1.428 . S
C330 N329 1.351 . S
C330 C331 1.434 . S
C331 C322 1.429 . S
C331 N328 1.350 . S
C331 C330 1.434 . S
C332 C333 1.369 . S
C332 C334 1.419 . S
C332 H336 0.930 . S
C333 C332 1.369 . S
C333 C342 1.429 . S
C334 C332 1.419 . S
C334 C335 1.363 . S
C334 H337 0.929 1_455 S
C335 C334 1.363 . S
C335 C341 1.428 . S
H336 C332 0.930 . S
H337 C334 0.929 1_655 S
S338 N339 1.613 . S
S338 N340 1.610 . S
N339 S338 1.613 . S
N339 C342 1.350 . S
N340 S338 1.610 . S
N340 C341 1.351 . S
C341 C335 1.428 . S
C341 N340 1.351 . S
C341 C342 1.434 . S
C342 C333 1.429 . S
C342 N339 1.350 . S
C342 C341 1.434 . S
C343 C344 1.369 1_556 S
C343 C345 1.419 . S
C343 H347 0.930 . S
C344 C343 1.369 1_554 S
C344 C353 1.429 . S
C345 C343 1.419 . S
C345 C346 1.363 1_556 S
C345 H348 0.929 . S
C346 C345 1.363 1_554 S
C346 C352 1.428 . S
H347 C343 0.930 . S
H348 C345 0.929 . S
S349 N350 1.613 . S
S349 N351 1.610 . S
N350 S349 1.613 . S
N350 C353 1.350 . S
N351 S349 1.610 . S
N351 C352 1.351 . S
C352 C346 1.428 . S
C352 N351 1.351 . S
C352 C353 1.434 . S
C353 C344 1.429 . S
C353 N350 1.350 . S
C353 C352 1.434 . S
C354 C355 1.369 . S
C354 C356 1.419 . S
C354 H358 0.930 . S
C355 C354 1.369 . S
C355 C364 1.429 . S
C356 C354 1.419 . S
C356 C357 1.363 . S
C356 H359 0.929 . S
C357 C356 1.363 . S
C357 C363 1.428 . S
H358 C354 0.930 . S
H359 C356 0.929 . S
S360 N361 1.613 . S
S360 N362 1.610 . S
N361 S360 1.613 . S
N361 C364 1.350 . S
N362 S360 1.610 . S
N362 C363 1.351 . S
C363 C357 1.428 . S
C363 N362 1.351 . S
C363 C364 1.434 . S
C364 C355 1.429 . S
C364 N361 1.350 . S
C364 C363 1.434 . S
C365 C366 1.369 . S
C365 C367 1.419 . S
C365 H369 0.930 . S
C366 C365 1.369 . S
C366 C375 1.429 . S
C367 C365 1.419 . S
C367 C368 1.363 . S
C367 H370 0.929 . S
C368 C367 1.363 . S
C368 C374 1.428 . S
H369 C365 0.930 . S
H370 C367 0.929 . S
S371 N372 1.613 . S
S371 N373 1.610 . S
N372 S371 1.613 . S
N372 C375 1.350 . S
N373 S371 1.610 . S
N373 C374 1.351 . S
C374 C368 1.428 . S
C374 N373 1.351 . S
C374 C375 1.434 . S
C375 C366 1.429 . S
C375 N372 1.350 . S
C375 C374 1.434 . S
C376 C377 1.371 . S
C376 C378 1.420 . S
C376 H380 0.926 1_545 S
C377 C376 1.371 . S
C377 C386 1.429 1_655 S
C378 C376 1.420 . S
C378 C379 1.363 . S
C378 H381 0.929 1_545 S
C379 C378 1.363 . S
C379 C385 1.428 1_655 S
H380 C376 0.926 1_565 S
H381 C378 0.929 1_565 S
S382 N383 1.613 . S
S382 N384 1.610 . S
N383 S382 1.613 . S
N383 C386 1.350 . S
N384 S382 1.610 . S
N384 C385 1.351 . S
C385 C379 1.428 1_455 S
C385 N384 1.351 . S
C385 C386 1.434 . S
C386 C377 1.429 1_455 S
C386 N383 1.350 . S
C386 C385 1.434 . S
C387 C388 1.369 . S
C387 C389 1.419 . S
C387 H391 0.930 . S
C388 C387 1.369 . S
C388 C397 1.429 . S
C389 C387 1.419 . S
C389 C390 1.363 . S
C389 H392 0.929 . S
C390 C389 1.363 . S
C390 C396 1.428 . S
H391 C387 0.930 . S
H392 C389 0.929 . S
S393 N394 1.613 . S
S393 N395 1.610 . S
N394 S393 1.613 . S
N394 C397 1.350 . S
N395 S393 1.610 . S
N395 C396 1.351 . S
C396 C390 1.428 . S
C396 N395 1.351 . S
C396 C397 1.434 . S
C397 C388 1.429 . S
C397 N394 1.350 . S
C397 C396 1.434 . S
C398 C399 1.369 . S
C398 C400 1.419 . S
C398 H402 0.930 . S
C399 C398 1.369 . S
C399 C408 1.429 . S
C400 C398 1.419 . S
C400 C401 1.363 . S
C400 H403 0.929 . S
C401 C400 1.363 . S
C401 C407 1.428 . S
H402 C398 0.930 . S
H403 C400 0.929 . S
S404 N405 1.613 . S
S404 N406 1.610 . S
N405 S404 1.613 . S
N405 C408 1.350 . S
N406 S404 1.610 . S
N406 C407 1.351 . S
C407 C401 1.428 . S
C407 N406 1.351 . S
C407 C408 1.434 . S
C408 C399 1.429 . S
C408 N405 1.350 . S
C408 C407 1.434 . S
C409 C410 1.369 . S
C409 C411 1.419 . S
C409 H413 0.930 . S
C410 C409 1.369 . S
C410 C419 1.429 . S
C411 C409 1.419 . S
C411 C412 1.363 . S
C411 H414 0.929 . S
C412 C411 1.363 . S
C412 C418 1.428 . S
H413 C409 0.930 . S
H414 C411 0.929 . S
S415 N416 1.613 . S
S415 N417 1.610 . S
N416 S415 1.613 . S
N416 C419 1.350 1_655 S
N417 S415 1.610 . S
N417 C418 1.351 1_655 S
C418 C412 1.428 . S
C418 N417 1.351 1_455 S
C418 C419 1.434 . S
C419 C410 1.429 . S
C419 N416 1.350 1_455 S
C419 C418 1.434 . S
C420 C421 1.369 . S
C420 C422 1.419 . S
C420 H424 0.930 . S
C421 C420 1.369 . S
C421 C430 1.429 1_554 S
C422 C420 1.419 . S
C422 C423 1.363 . S
C422 H425 0.929 . S
C423 C422 1.363 . S
C423 C429 1.428 1_554 S
H424 C420 0.930 . S
H425 C422 0.929 . S
S426 N427 1.613 . S
S426 N428 1.610 . S
N427 S426 1.613 . S
N427 C430 1.350 . S
N428 S426 1.610 . S
N428 C429 1.351 . S
C429 C423 1.428 1_556 S
C429 N428 1.351 . S
C429 C430 1.434 . S
C430 C421 1.429 1_556 S
C430 N427 1.350 . S
C430 C429 1.434 . S
C431 C432 1.369 . S
C431 C433 1.419 . S
C431 H435 0.930 . S
C432 C431 1.369 . S
C432 C441 1.429 . S
C433 C431 1.419 . S
C433 C434 1.363 . S
C433 H436 0.929 . S
C434 C433 1.363 . S
C434 C440 1.428 . S
H435 C431 0.930 . S
H436 C433 0.929 . S
S437 N438 1.613 . S
S437 N439 1.610 . S
N438 S437 1.613 . S
N438 C441 1.350 . S
N439 S437 1.610 . S
N439 C440 1.351 . S
C440 C434 1.428 . S
C440 N439 1.351 . S
C440 C441 1.434 . S
C441 C432 1.429 . S
C441 N438 1.350 . S
C441 C440 1.434 . S
C442 C443 1.369 . S
C442 C444 1.419 . S
C442 H446 0.930 . S
C443 C442 1.369 . S
C443 C452 1.429 . S
C444 C442 1.419 . S
C444 C445 1.363 . S
C444 H447 0.929 1_554 S
C445 C444 1.363 . S
C445 C451 1.428 . S
H446 C442 0.930 . S
H447 C444 0.929 1_556 S
S448 N449 1.613 . S
S448 N450 1.610 . S
N449 S448 1.613 . S
N449 C452 1.350 . S
N450 S448 1.610 . S
N450 C451 1.351 . S
C451 C445 1.428 . S
C451 N450 1.351 . S
C451 C452 1.434 . S
C452 C443 1.429 . S
C452 N449 1.350 . S
C452 C451 1.434 . S
C453 C454 1.369 . S
C453 C455 1.419 . S
C453 H457 0.930 . S
C454 C453 1.369 . S
C454 C463 1.429 . S
C455 C453 1.419 . S
C455 C456 1.363 . S
C455 H458 0.929 . S
C456 C455 1.363 . S
C456 C462 1.428 . S
H457 C453 0.930 . S
H458 C455 0.929 . S
S459 N460 1.613 . S
S459 N461 1.610 . S
N460 S459 1.613 . S
N460 C463 1.350 . S
N461 S459 1.610 . S
N461 C462 1.351 . S
C462 C456 1.428 . S
C462 N461 1.351 . S
C462 C463 1.434 . S
C463 C454 1.429 . S
C463 N460 1.350 . S
C463 C462 1.434 . S
C464 C465 1.369 1_554 S
C464 C466 1.419 . S
C464 H468 0.930 . S
C465 C464 1.369 1_556 S
C465 C474 1.429 . S
C466 C464 1.419 . S
C466 C467 1.363 1_554 S
C466 H469 0.929 . S
C467 C466 1.363 1_556 S
C467 C473 1.428 . S
H468 C464 0.930 . S
H469 C466 0.929 . S
S470 N471 1.613 1_455 S
S470 N472 1.610 . S
N471 S470 1.613 1_655 S
N471 C474 1.350 . S
N472 S470 1.610 . S
N472 C473 1.351 1_455 S
C473 C467 1.428 . S
C473 N472 1.351 1_655 S
C473 C474 1.434 . S
C474 C465 1.429 . S
C474 N471 1.350 . S
C474 C473 1.434 . S
C475 C476 1.369 . S
C475 C477 1.419 . S
C475 H479 0.930 . S
C476 C475 1.369 . S
C476 C485 1.429 . S
C477 C475 1.419 . S
C477 C478 1.363 . S
C477 H480 0.929 . S
C478 C477 1.363 . S
C478 C484 1.428 . S
H479 C475 0.930 . S
H480 C477 0.929 . S
S481 N482 1.613 . S
S481 N483 1.610 . S
N482 S481 1.613 . S
N482 C485 1.350 . S
N483 S481 1.610 . S
N483 C484 1.351 . S
C484 C478 1.428 . S
C484 N483 1.351 . S
C484 C485 1.434 . S
C485 C476 1.429 . S
C485 N482 1.350 . S
C485 C484 1.434 . S
C486 C487 1.369 . S
C486 C488 1.419 . S
C486 H490 0.930 . S
C487 C486 1.369 . S
C487 C496 1.429 . S
C488 C486 1.419 . S
C488 C489 1.363 . S
C488 H491 0.929 . S
C489 C488 1.363 . S
C489 C495 1.428 . S
H490 C486 0.930 . S
H491 C488 0.929 . S
S492 N493 1.613 . S
S492 N494 1.610 . S
N493 S492 1.613 . S
N493 C496 1.350 . S
N494 S492 1.610 . S
N494 C495 1.351 . S
C495 C489 1.428 . S
C495 N494 1.351 . S
C495 C496 1.434 . S
C496 C487 1.429 . S
C496 N493 1.350 . S
C496 C495 1.434 . S
C497 C498 1.369 . S
C497 C499 1.419 . S
C497 H501 0.930 . S
C498 C497 1.369 . S
C498 C507 1.429 . S
C499 C497 1.419 . S
C499 C500 1.363 . S
C499 H502 0.929 . S
C500 C499 1.363 . S
C500 C506 1.428 . S
H501 C497 0.930 . S
H502 C499 0.929 . S
S503 N504 1.613 . S
S503 N505 1.610 . S
N504 S503 1.613 . S
N504 C507 1.350 . S
N505 S503 1.610 . S
N505 C506 1.351 . S
C506 C500 1.428 . S
C506 N505 1.351 . S
C506 C507 1.434 . S
C507 C498 1.429 . S
C507 N504 1.350 . S
C507 C506 1.434 . S
C245 C6 1.822 . S
C247 C170 1.783 . S
C256 C21 2.093 . S
C258 C194 2.012 . S
C269 C214 1.027 . S
C267 C49 1.005 . S
C278 C68 1.184 . S
C280 C237 1.358 . S
C291 C196 2.212 . S
C289 C2 2.230 . S
C302 C172 1.408 1_565 S
C300 C30 1.280 . S
C313 C240 1.534 . S
C311 C40 1.620 . S
C324 C217 1.385 . S
C322 C63 1.415 . S
C333 C11 1.346 . S
C335 C242 1.504 . S
C346 C191 1.765 . S
C344 C44 1.744 1_554 S
C355 C59 1.305 . S
C357 C169 1.326 . S
C366 C25 1.728 . S
C368 C219 1.705 . S
C379 C173 2.056 . S
C377 C82 2.012 . S
C388 C101 1.830 . S
C390 C195 1.867 . S
C399 C125 1.533 . S
C401 C215 1.579 . S
C410 C144 1.182 . S
C412 C238 1.377 . S
C421 C87 1.178 1_554 S
C423 C193 1.390 . S
C434 C171 2.072 . S
C432 C97 2.065 . S
C445 C241 1.359 . S
C443 C120 1.454 . S
C456 C218 1.451 . S
C454 C135 1.433 . S
C465 C78 2.059 . S
C467 C239 2.036 1_656 S
C478 C192 1.270 . S
C476 C116 1.246 . S
C489 C168 1.727 . S
C487 C139 1.673 . S
C498 C106 1.631 . S
C500 C216 1.702 . S
