# Generated by pormake.
# Topology csq, (4,8)-cn, num edge types: 1
# Building blocks:
#     Node 0, Type 0, BuildingBlock: MIFKUJ_clean_linker_1, # of connection points: 4
#     Node 1, Type 0, BuildingBlock: MIFKUJ_clean_linker_1, # of connection points: 4
#     Node 2, Type 0, BuildingBlock: MIFKUJ_clean_linker_1, # of connection points: 4
#     Node 3, Type 0, BuildingBlock: MIFKUJ_clean_linker_1, # of connection points: 4
#     Node 4, Type 0, BuildingBlock: MIFKUJ_clean_linker_1, # of connection points: 4
#     Node 5, Type 0, BuildingBlock: MIFKUJ_clean_linker_1, # of connection points: 4
#     Node 6, Type 1, BuildingBlock: TAGTUT_clean_sbu_1, # of connection points: 8
#     Node 7, Type 1, BuildingBlock: TAGTUT_clean_sbu_1, # of connection points: 8
#     Node 8, Type 1, BuildingBlock: TAGTUT_clean_sbu_1, # of connection points: 8
#     Edge 9, Type (0, 1), BuildingBlock: CIFDUS_clean_linker_0, # of connection points: 2
#     Edge 10, Type (0, 1), BuildingBlock: CIFDUS_clean_linker_0, # of connection points: 2
#     Edge 11, Type (0, 1), BuildingBlock: CIFDUS_clean_linker_0, # of connection points: 2
#     Edge 12, Type (0, 1), BuildingBlock: CIFDUS_clean_linker_0, # of connection points: 2
#     Edge 13, Type (0, 1), BuildingBlock: CIFDUS_clean_linker_0, # of connection points: 2
#     Edge 14, Type (0, 1), BuildingBlock: CIFDUS_clean_linker_0, # of connection points: 2
#     Edge 15, Type (0, 1), BuildingBlock: CIFDUS_clean_linker_0, # of connection points: 2
#     Edge 16, Type (0, 1), BuildingBlock: CIFDUS_clean_linker_0, # of connection points: 2
#     Edge 17, Type (0, 1), BuildingBlock: CIFDUS_clean_linker_0, # of connection points: 2
#     Edge 18, Type (0, 1), BuildingBlock: CIFDUS_clean_linker_0, # of connection points: 2
#     Edge 19, Type (0, 1), BuildingBlock: CIFDUS_clean_linker_0, # of connection points: 2
#     Edge 20, Type (0, 1), BuildingBlock: CIFDUS_clean_linker_0, # of connection points: 2
#     Edge 21, Type (0, 1), BuildingBlock: CIFDUS_clean_linker_0, # of connection points: 2
#     Edge 22, Type (0, 1), BuildingBlock: CIFDUS_clean_linker_0, # of connection points: 2
#     Edge 23, Type (0, 1), BuildingBlock: CIFDUS_clean_linker_0, # of connection points: 2
#     Edge 24, Type (0, 1), BuildingBlock: CIFDUS_clean_linker_0, # of connection points: 2
#     Edge 25, Type (0, 1), BuildingBlock: CIFDUS_clean_linker_0, # of connection points: 2
#     Edge 26, Type (0, 1), BuildingBlock: CIFDUS_clean_linker_0, # of connection points: 2
#     Edge 27, Type (0, 1), BuildingBlock: CIFDUS_clean_linker_0, # of connection points: 2
#     Edge 28, Type (0, 1), BuildingBlock: CIFDUS_clean_linker_0, # of connection points: 2
#     Edge 29, Type (0, 1), BuildingBlock: CIFDUS_clean_linker_0, # of connection points: 2
#     Edge 30, Type (0, 1), BuildingBlock: CIFDUS_clean_linker_0, # of connection points: 2
#     Edge 31, Type (0, 1), BuildingBlock: CIFDUS_clean_linker_0, # of connection points: 2
#     Edge 32, Type (0, 1), BuildingBlock: CIFDUS_clean_linker_0, # of connection points: 2
# Relax obj value: 0.033
# Max RMSD: 0.126
# Mean RMSD: 0.058
data_MOF--net-csq--node1-TAGTUT_clean_sbu_1--node2-MIFKUJ_clean_linker_1--edge1-CIFDUS_clean_linker_0
_symmetry_space_group_name_H-M    P1
_symmetry_Int_Tables_number       1
_symmetry_cell_setting            triclinic
loop_
_symmetry_equiv_pos_as_xyz
'x, y, z'
_cell_length_a     56.509143
_cell_length_b     55.795818
_cell_length_c     19.856599
_cell_angle_alpha  93.191952
_cell_angle_beta   91.44847
_cell_angle_gamma 119.89514
loop_
_atom_site_label
_atom_site_type_symbol
_atom_site_fract_x
_atom_site_fract_y
_atom_site_fract_z
_atom_type_partial_charge
H0 H 0.26185 0.4458 0.28589 0.0
H1 H 0.29426 0.44474 0.36788 0.0
H2 H 0.35673 0.52529 0.3145 0.0
H3 H 0.32398 0.52658 0.23404 0.0
H4 H 0.24413 0.48166 0.2915 0.0
H5 H 0.296 0.45839 0.14075 0.0
H6 H 0.33301 0.46085 0.07438 0.0
H7 H 0.34096 0.53294 0.98479 0.0
H8 H 0.30522 0.53169 0.05406 0.0
H9 H 0.23729 0.53211 0.04884 0.0
H10 H 0.20623 0.52765 0.95534 0.0
H11 H 0.14524 0.4482 0.01839 0.0
H12 H 0.17703 0.45214 0.10961 0.0
H13 H 0.25595 0.49768 0.04883 0.0
H14 H 0.21514 0.52865 0.22997 0.0
H15 H 0.1777 0.52598 0.29602 0.0
H16 H 0.14829 0.4392 0.3168 0.0
H17 H 0.18613 0.44213 0.25268 0.0
C18 C 0.29063 0.48618 0.25362 0.0
C19 C 0.28257 0.46318 0.29179 0.0
C20 C 0.30107 0.46257 0.33848 0.0
C21 C 0.32789 0.48503 0.34797 0.0
C22 C 0.33601 0.5079 0.30908 0.0
C23 C 0.31749 0.5085 0.26239 0.0
C24 C 0.27023 0.48769 0.20898 0.0
C25 C 0.24671 0.48502 0.23822 0.0
C26 C 0.27407 0.49288 0.13987 0.0
C27 C 0.29788 0.4951 0.1036 0.0
C28 C 0.30615 0.47525 0.10848 0.0
C29 C 0.32707 0.47642 0.06987 0.0
C30 C 0.33958 0.49695 0.02417 0.0
C31 C 0.3314 0.51676 0.01914 0.0
C32 C 0.31101 0.51602 0.05891 0.0
C33 C 0.20941 0.49256 0.08646 0.0
C34 C 0.21702 0.51397 0.04322 0.0
C35 C 0.19924 0.51138 0.98975 0.0
C36 C 0.17342 0.48737 0.9788 0.0
C37 C 0.16525 0.46666 0.02457 0.0
C38 C 0.18316 0.46916 0.07773 0.0
C39 C 0.23046 0.49242 0.13177 0.0
C40 C 0.2539 0.495 0.10249 0.0
C41 C 0.22685 0.48748 0.20069 0.0
C42 C 0.20317 0.48551 0.23587 0.0
C43 C 0.20056 0.50906 0.24862 0.0
C44 C 0.17943 0.5076 0.28687 0.0
C45 C 0.16034 0.48244 0.31184 0.0
C46 C 0.16284 0.45884 0.29832 0.0
C47 C 0.18429 0.46046 0.26147 0.0
H48 H 0.78794 0.29267 0.99751 0.0
H49 H 0.82723 0.33055 0.94821 0.0
H50 H 0.88116 0.30805 0.04925 0.0
H51 H 0.84184 0.27013 0.0976 0.0
H52 H 0.76649 0.23316 0.00123 0.0
H53 H 0.80501 0.31694 0.14519 0.0
H54 H 0.84359 0.35869 0.20218 0.0
H55 H 0.86345 0.3075 0.31999 0.0
H56 H 0.82565 0.26594 0.26056 0.0
H57 H 0.7606 0.19304 0.25622 0.0
H58 H 0.73185 0.1635 0.34007 0.0
H59 H 0.6631 0.16774 0.25384 0.0
H60 H 0.6927 0.1987 0.17146 0.0
H61 H 0.77126 0.24572 0.25122 0.0
H62 H 0.71914 0.15919 0.10956 0.0
H63 H 0.6807 0.12208 0.04269 0.0
H64 H 0.68428 0.18121 0.90471 0.0
H65 H 0.71916 0.21836 0.97845 0.0
C66 C 0.81209 0.27874 0.05115 0.0
C67 C 0.80817 0.29558 0.00771 0.0
C68 C 0.83063 0.31738 0.98044 0.0
C69 C 0.85725 0.32241 0.99567 0.0
C70 C 0.86089 0.30461 0.03651 0.0
C71 C 0.83848 0.28296 0.06403 0.0
C72 C 0.78932 0.25905 0.08973 0.0
C73 C 0.76692 0.2358 0.05586 0.0
C74 C 0.79037 0.26306 0.16061 0.0
C75 C 0.81268 0.28835 0.19814 0.0
C76 C 0.81786 0.31476 0.18291 0.0
C77 C 0.83979 0.3386 0.21582 0.0
C78 C 0.85677 0.33645 0.26514 0.0
C79 C 0.85115 0.30991 0.28117 0.0
C80 C 0.82933 0.28611 0.24797 0.0
C81 C 0.72875 0.19792 0.20727 0.0
C82 C 0.73926 0.18745 0.25499 0.0
C83 C 0.72273 0.17043 0.30285 0.0
C84 C 0.69512 0.16322 0.30396 0.0
C85 C 0.68439 0.17325 0.25512 0.0
C86 C 0.70113 0.19059 0.20733 0.0
C87 C 0.74792 0.21879 0.1633 0.0
C88 C 0.77 0.24274 0.19647 0.0
C89 C 0.74563 0.21558 0.09135 0.0
C90 C 0.72193 0.19203 0.05085 0.0
C91 C 0.71087 0.16437 0.06666 0.0
C92 C 0.68916 0.14279 0.02643 0.0
C93 C 0.67877 0.14799 0.96686 0.0
C94 C 0.69053 0.17575 0.95053 0.0
C95 C 0.71121 0.19734 0.99252 0.0
H96 H 0.55563 0.74078 0.92541 0.0
H97 H 0.55409 0.69787 0.88489 0.0
H98 H 0.48884 0.65205 0.01561 0.0
H99 H 0.48975 0.69497 0.0538 0.0
H100 H 0.52046 0.76057 0.92716 0.0
H101 H 0.5699 0.73842 0.08203 0.0
H102 H 0.57348 0.70353 0.14415 0.0
H103 H 0.51047 0.69774 0.27171 0.0
H104 H 0.50572 0.73158 0.20701 0.0
H105 H 0.49515 0.80014 0.16423 0.0
H106 H 0.49461 0.84179 0.20723 0.0
H107 H 0.56798 0.89252 0.10513 0.0
H108 H 0.56864 0.85069 0.06317 0.0
H109 H 0.53674 0.78419 0.17527 0.0
H110 H 0.49154 0.81177 0.0086 0.0
H111 H 0.49525 0.84959 0.94576 0.0
H112 H 0.55983 0.84871 0.83491 0.0
H113 H 0.55767 0.8127 0.90279 0.0
C114 C 0.52295 0.72107 0.99287 0.0
C115 C 0.54068 0.72142 0.94439 0.0
C116 C 0.54009 0.69695 0.92227 0.0
C117 C 0.52173 0.67165 0.94821 0.0
C118 C 0.50325 0.67119 0.99482 0.0
C119 C 0.50375 0.69568 0.01666 0.0
C120 C 0.52628 0.74749 0.02328 0.0
C121 C 0.52413 0.76581 0.98129 0.0
C122 C 0.53175 0.75457 0.09379 0.0
C123 C 0.53705 0.73712 0.1388 0.0
C124 C 0.5568 0.72967 0.12331 0.0
C125 C 0.55889 0.70981 0.1587 0.0
C126 C 0.54201 0.69789 0.21184 0.0
C127 C 0.52358 0.70668 0.23055 0.0
C128 C 0.521 0.72607 0.19399 0.0
C129 C 0.53189 0.82241 0.11058 0.0
C130 C 0.51129 0.82027 0.15186 0.0
C131 C 0.51077 0.84402 0.17541 0.0
C132 C 0.531 0.87035 0.15854 0.0
C133 C 0.55211 0.87249 0.11877 0.0
C134 C 0.55256 0.84869 0.09502 0.0
C135 C 0.53028 0.79694 0.07929 0.0
C136 C 0.53291 0.77885 0.12119 0.0
C137 C 0.52618 0.79058 0.00839 0.0
C138 C 0.52487 0.80993 0.96189 0.0
C139 C 0.50661 0.81986 0.97101 0.0
C140 C 0.50856 0.84135 0.93424 0.0
C141 C 0.52821 0.85275 0.88571 0.0
C142 C 0.54507 0.84124 0.87332 0.0
C143 C 0.54355 0.82023 0.91132 0.0
H144 H 0.78425 0.46979 0.11562 0.0
H145 H 0.8086 0.45786 0.19885 0.0
H146 H 0.8532 0.54368 0.2794 0.0
H147 H 0.82749 0.55478 0.19896 0.0
H148 H 0.76622 0.52126 0.19918 0.0
H149 H 0.7808 0.48967 0.92016 0.0
H150 H 0.81626 0.49181 0.84965 0.0
H151 H 0.87792 0.5489 0.00159 0.0
H152 H 0.84257 0.54908 0.06765 0.0
H153 H 0.74865 0.554 0.93182 0.0
H154 H 0.71209 0.54456 0.8489 0.0
H155 H 0.65379 0.48188 0.97026 0.0
H156 H 0.69081 0.48921 0.04842 0.0
H157 H 0.76639 0.52281 0.95018 0.0
H158 H 0.7318 0.5648 0.11321 0.0
H159 H 0.70191 0.57102 0.19113 0.0
H160 H 0.68419 0.49516 0.27914 0.0
H161 H 0.7136 0.48888 0.20081 0.0
C162 C 0.80449 0.51318 0.15095 0.0
C163 C 0.79962 0.48599 0.15073 0.0
C164 C 0.81346 0.47923 0.19849 0.0
C165 C 0.83255 0.4997 0.24665 0.0
C166 C 0.83802 0.52718 0.24462 0.0
C167 C 0.8238 0.53374 0.19786 0.0
C168 C 0.78622 0.51909 0.11031 0.0
C169 C 0.76616 0.5217 0.14458 0.0
C170 C 0.78692 0.52007 0.03939 0.0
C171 C 0.80871 0.51899 1.00016 0.0
C172 C 0.80198 0.50282 0.93822 0.0
C173 C 0.82243 0.50381 0.89801 0.0
C174 C 0.85029 0.52065 0.91909 0.0
C175 C 0.85688 0.53614 0.9822 0.0
C176 C 0.83646 0.53569 0.02145 0.0
C177 C 0.72259 0.52245 0.9968 0.0
C178 C 0.72795 0.53827 0.94064 0.0
C179 C 0.70691 0.53294 0.89332 0.0
C180 C 0.6799 0.51212 0.90202 0.0
C181 C 0.67441 0.49747 0.9605 0.0
C182 C 0.69556 0.50223 0.00666 0.0
C183 C 0.74549 0.52408 0.03866 0.0
C184 C 0.76643 0.52264 0.00474 0.0
C185 C 0.74562 0.52407 0.11003 0.0
C186 C 0.72498 0.52637 0.15098 0.0
C187 C 0.72109 0.54928 0.14847 0.0
C188 C 0.70423 0.55295 0.19359 0.0
C189 C 0.69079 0.53369 0.24184 0.0
C190 C 0.69402 0.5103 0.24248 0.0
C191 C 0.71096 0.50675 0.19782 0.0
H192 H 0.24316 0.80877 0.95082 0.0
H193 H 0.27675 0.83164 0.86933 0.0
H194 H 0.33917 0.83391 0.00514 0.0
H195 H 0.30445 0.80726 0.0819 0.0
H196 H 0.22265 0.76218 0.98455 0.0
H197 H 0.27465 0.84954 0.12478 0.0
H198 H 0.31412 0.8879 0.18925 0.0
H199 H 0.32333 0.82929 0.30468 0.0
H200 H 0.28363 0.79114 0.24075 0.0
H201 H 0.20408 0.71923 0.23733 0.0
H202 H 0.16414 0.68581 0.29441 0.0
H203 H 0.11641 0.71915 0.21055 0.0
H204 H 0.15625 0.75213 0.15205 0.0
H205 H 0.2319 0.78064 0.23368 0.0
H206 H 0.17881 0.69461 0.09832 0.0
H207 H 0.13698 0.65654 0.04216 0.0
H208 H 0.13068 0.71419 0.91621 0.0
H209 H 0.17131 0.75237 0.97635 0.0
C210 C 0.27104 0.80634 0.02348 0.0
C211 C 0.26404 0.81388 0.96293 0.0
C212 C 0.28359 0.82752 0.91636 0.0
C213 C 0.31114 0.8351 0.92986 0.0
C214 C 0.31824 0.82809 0.99144 0.0
C215 C 0.29838 0.8134 0.03685 0.0
C216 C 0.24913 0.78927 0.06898 0.0
C217 C 0.22471 0.76685 0.03886 0.0
C218 C 0.25186 0.79415 0.14058 0.0
C219 C 0.27642 0.81749 0.17738 0.0
C220 C 0.28532 0.84499 0.16362 0.0
C221 C 0.30785 0.86687 0.20063 0.0
C222 C 0.3219 0.86166 0.25222 0.0
C223 C 0.31276 0.83407 0.26611 0.0
C224 C 0.29022 0.81223 0.2292 0.0
C225 C 0.18299 0.738 0.19055 0.0
C226 C 0.18515 0.71963 0.23222 0.0
C227 C 0.16236 0.70048 0.26417 0.0
C228 C 0.13732 0.69992 0.25612 0.0
C229 C 0.13556 0.71928 0.21729 0.0
C230 C 0.15822 0.73808 0.1842 0.0
C231 C 0.2057 0.755 0.14828 0.0
C232 C 0.23012 0.77675 0.17912 0.0
C233 C 0.20304 0.74977 0.07742 0.0
C234 C 0.17794 0.72643 0.04235 0.0
C235 C 0.16804 0.69912 0.0597 0.0
C236 C 0.14428 0.67729 0.02684 0.0
C237 C 0.1303 0.68222 0.97467 0.0
C238 C 0.14047 0.70962 0.95711 0.0
C239 C 0.16397 0.73148 0.99077 0.0
H240 H 0.50944 0.20093 0.19239 0.0
H241 H 0.50976 0.15914 0.15001 0.0
H242 H 0.44317 0.14028 0.00507 0.0
H243 H 0.44178 0.18092 0.05086 0.0
H244 H 0.47696 0.235 0.05887 0.0
H245 H 0.5036 0.22405 0.32894 0.0
H246 H 0.49972 0.18618 0.394 0.0
H247 H 0.42307 0.12961 0.28357 0.0
H248 H 0.42712 0.16742 0.21876 0.0
H249 H 0.43069 0.26189 0.29048 0.0
H250 H 0.42607 0.30059 0.33571 0.0
H251 H 0.49638 0.35667 0.22961 0.0
H252 H 0.50302 0.31843 0.19327 0.0
H253 H 0.46524 0.24549 0.30388 0.0
H254 H 0.43103 0.27108 0.10972 0.0
H255 H 0.43367 0.30808 0.0438 0.0
H256 H 0.51541 0.32936 0.99297 0.0
H257 H 0.51274 0.29253 0.0596 0.0
C258 C 0.47529 0.19376 0.12545 0.0
C259 C 0.49471 0.18755 0.15203 0.0
C260 C 0.49501 0.16378 0.1274 0.0
C261 C 0.47623 0.1461 0.07483 0.0
C262 C 0.45741 0.15295 0.04695 0.0
C263 C 0.45687 0.17646 0.07223 0.0
C264 C 0.47331 0.21761 0.1549 0.0
C265 C 0.47443 0.23735 0.11238 0.0
C266 C 0.46944 0.22032 0.22436 0.0
C267 C 0.46562 0.19848 0.26926 0.0
C268 C 0.4858 0.20357 0.31959 0.0
C269 C 0.48372 0.18189 0.35603 0.0
C270 C 0.46119 0.15494 0.34344 0.0
C271 C 0.44059 0.15018 0.29453 0.0
C272 C 0.44284 0.17174 0.25763 0.0
C273 C 0.46692 0.28706 0.23738 0.0
C274 C 0.44541 0.28263 0.27814 0.0
C275 C 0.44244 0.30487 0.30273 0.0
C276 C 0.46053 0.33206 0.28573 0.0
C277 C 0.48216 0.33633 0.24503 0.0
C278 C 0.48574 0.31426 0.2229 0.0
C279 C 0.46902 0.26317 0.20787 0.0
C280 C 0.46783 0.2433 0.25037 0.0
C281 C 0.47182 0.25978 0.13773 0.0
C282 C 0.4718 0.27929 0.09001 0.0
C283 C 0.44935 0.28348 0.08354 0.0
C284 C 0.45087 0.30457 0.04582 0.0
C285 C 0.47487 0.3218 0.01392 0.0
C286 C 0.49683 0.31668 0.01792 0.0
C287 C 0.49523 0.29548 0.05528 0.0
C288 C 0.98361 0.43112 0.80622 0.0
C289 C 0.06315 0.48508 0.72985 0.0
C290 C 0.03085 0.55812 0.71191 0.0
Mg291 Mg 0.0065 0.4453 0.66423 0.0
O292 O 0.99558 0.47183 0.68184 0.0
Mg293 Mg 0.01197 0.49761 0.76576 0.0
Mg294 Mg 0.00446 0.49995 0.61554 0.0
O295 O 0.01339 0.52815 0.54946 0.0
Mg296 Mg 0.00269 0.55483 0.56774 0.0
Mg297 Mg 0.99625 0.50221 0.46609 0.0
C298 C 0.97848 0.44201 0.5196 0.0
C299 C 0.04898 0.49813 0.51527 0.0
O300 O 0.99161 0.45688 0.82156 0.0
O301 O 0.98725 0.42216 0.74876 0.0
O302 O 0.05169 0.49662 0.76172 0.0
O303 O 0.05007 0.46509 0.68472 0.0
O304 O 0.98772 0.43123 0.56104 0.0
O305 O 0.98007 0.46553 0.53381 0.0
C306 C 0.95911 0.50102 0.71414 0.0
O307 O 0.9661 0.50129 0.65292 0.0
O308 O 0.973 0.49957 0.76392 0.0
O309 O 0.01616 0.54268 0.4094 0.0
O310 O 0.02149 0.57775 0.48216 0.0
O311 O 0.95697 0.50364 0.47217 0.0
C312 C 0.02456 0.56856 0.42428 0.0
O313 O 0.95885 0.53475 0.55049 0.0
O314 O 0.02205 0.56923 0.67028 0.0
C315 C 0.94554 0.51498 0.50495 0.0
O316 O 0.02855 0.53429 0.69778 0.0
O317 O 0.04273 0.49837 0.57716 0.0
O318 O 0.03473 0.49973 0.46652 0.0
C319 C 0.45586 0.02106 0.83445 0.0
C320 C 0.41914 0.94685 0.70554 0.0
C321 C 0.52174 0.96776 0.67565 0.0
Mg322 Mg 0.44608 0.008 0.67835 0.0
O323 O 0.48106 0.01269 0.69218 0.0
Mg324 Mg 0.48615 0.98909 0.7576 0.0
Mg325 Mg 0.49839 0.0059 0.61342 0.0
O326 O 0.51636 -0.00074 0.53602 0.0
Mg327 Mg 0.55175 0.00507 0.55455 0.0
Mg328 Mg 0.51214 0.02327 0.47103 0.0
C329 C 0.47457 0.04369 0.55266 0.0
C330 C 0.45192 0.97092 0.49075 0.0
O331 O 0.47084 0.00971 0.83696 0.0
O332 O 0.44477 0.02289 0.7793 0.0
O333 O 0.44168 0.95316 0.73745 0.0
O334 O 0.41675 0.96433 0.67131 0.0
O335 O 0.45475 0.03398 0.59253 0.0
O336 O 0.49408 0.03815 0.55712 0.0
C337 C 0.54603 0.0411 0.73362 0.0
O338 O 0.53915 0.03884 0.67048 0.0
O339 O 0.5298 0.02478 0.775 0.0
O340 O 0.52956 0.00359 0.39352 0.0
O341 O 0.5554 0.99119 0.45501 0.0
O342 O 0.55564 0.05961 0.49556 0.0
C343 C 0.54512 0.99291 0.39844 0.0
O344 O 0.58073 0.04899 0.56289 0.0
O345 O 0.54246 0.97809 0.63865 0.0
C346 C 0.57792 0.06636 0.52921 0.0
O347 O 0.5025 0.97357 0.66963 0.0
O348 O 0.45742 0.97322 0.55489 0.0
O349 O 0.4694 0.9872 0.45135 0.0
C350 C 0.54999 0.59182 0.45194 0.0
C351 C 0.58104 0.53575 0.48431 0.0
C352 C 0.47656 0.4593 0.51277 0.0
Mg353 Mg 0.5651 0.5706 0.57876 0.0
O354 O 0.5277 0.54422 0.56292 0.0
Mg355 Mg 0.5156 0.52292 0.47236 0.0
Mg356 Mg 0.5106 0.51283 0.62163 0.0
O357 O 0.49329 0.4812 0.67992 0.0
Mg358 Mg 0.4556 0.45596 0.66313 0.0
Mg359 Mg 0.50519 0.50238 0.77045 0.0
C360 C 0.54479 0.5661 0.73041 0.0
C361 C 0.55877 0.5085 0.69956 0.0
O362 O 0.53331 0.56656 0.42915 0.0
O363 O 0.56372 0.59801 0.50891 0.0
O364 O 0.55652 0.52417 0.45872 0.0
O365 O 0.58931 0.5538 0.53489 0.0
O366 O 0.56317 0.57883 0.68805 0.0
O367 O 0.52291 0.54289 0.71381 0.0
C368 C 0.46199 0.51654 0.54356 0.0
O369 O 0.47051 0.51264 0.59994 0.0
O370 O 0.47539 0.52092 0.49034 0.0
O371 O 0.48684 0.4589 0.81311 0.0
O372 O 0.45426 0.42808 0.73624 0.0
O373 O 0.46424 0.50088 0.78506 0.0
C374 C 0.46849 0.43393 0.79238 0.0
O375 O 0.43264 0.47492 0.70273 0.0
O376 O 0.45793 0.44669 0.55462 0.0
C377 C 0.44023 0.49091 0.75716 0.0
O378 O 0.49821 0.48269 0.52959 0.0
O379 O 0.55082 0.51325 0.64349 0.0
O380 O 0.54494 0.50362 0.75211 0.0
H381 H 0.16131 0.51149 0.42863 0.0
H382 H 0.10678 0.4483 0.27624 0.0
H383 H 0.06732 0.4458 0.33027 0.0
H384 H 0.04855 0.46382 0.41544 0.0
H385 H 0.10177 0.52564 0.57157 0.0
H386 H 0.1416 0.52607 0.5228 0.0
C387 C 0.14073 0.49712 0.40778 0.0
C388 C 0.13684 0.48027 0.34821 0.0
C389 C 0.11804 0.49547 0.43994 0.0
C390 C 0.11017 0.46144 0.32193 0.0
C391 C 0.08766 0.46002 0.35276 0.0
C392 C 0.06887 0.47707 0.43941 0.0
C393 C 0.07238 0.49485 0.4965 0.0
C394 C 0.09138 0.4772 0.41106 0.0
C395 C 0.09865 0.51171 0.5277 0.0
C396 C 0.12138 0.51213 0.49939 0.0
H397 H 0.65576 0.1673 0.37276 0.0
H398 H 0.69553 0.11848 0.35234 0.0
H399 H 0.66666 0.08809 0.43493 0.0
H400 H 0.62648 0.07179 0.50155 0.0
H401 H 0.58274 0.11668 0.51139 0.0
H402 H 0.61709 0.15252 0.44598 0.0
C403 C 0.65806 0.14997 0.3862 0.0
C404 C 0.67777 0.1452 0.35587 0.0
C405 C 0.64083 0.132 0.43259 0.0
C406 C 0.68079 0.12292 0.37514 0.0
C407 C 0.6642 0.10541 0.42233 0.0
C408 C 0.62508 0.08998 0.49165 0.0
C409 C 0.60236 0.09183 0.51186 0.0
C410 C 0.64381 0.10941 0.45033 0.0
C411 C 0.60031 0.11508 0.49702 0.0
C412 C 0.61969 0.13531 0.45877 0.0
H413 H 0.55736 0.69932 0.34254 0.0
H414 H 0.529 0.6469 0.1569 0.0
H415 H 0.52916 0.60911 0.21409 0.0
H416 H 0.53644 0.5908 0.31817 0.0
H417 H 0.56742 0.64471 0.50205 0.0
H418 H 0.56744 0.68208 0.44439 0.0
C419 C 0.55128 0.67958 0.31492 0.0
C420 C 0.54299 0.67561 0.24616 0.0
C421 C 0.55198 0.65828 0.34774 0.0
C422 C 0.53543 0.65021 0.21012 0.0
C423 C 0.5355 0.62868 0.24275 0.0
C424 C 0.54332 0.61077 0.34544 0.0
C425 C 0.55181 0.61484 0.41438 0.0
C426 C 0.54361 0.63243 0.31172 0.0
C427 C 0.5609 0.64096 0.44888 0.0
C428 C 0.5608 0.66238 0.41607 0.0
H429 H 0.84707 0.52073 0.37789 0.0
H430 H 0.85126 0.46305 0.23087 0.0
H431 H 0.88165 0.45735 0.30882 0.0
H432 H 0.91343 0.47536 0.40742 0.0
H433 H 0.91508 0.53846 0.54697 0.0
H434 H 0.87573 0.53516 0.4837 0.0
C435 C 0.85464 0.50692 0.36281 0.0
C436 C 0.84741 0.4929 0.29784 0.0
C437 C 0.87331 0.50488 0.40639 0.0
C438 C 0.85646 0.47417 0.28034 0.0
C439 C 0.87405 0.47105 0.32473 0.0
C440 C 0.90495 0.48808 0.425 0.0
C441 C 0.91769 0.50775 0.48064 0.0
C442 C 0.88355 0.48728 0.38634 0.0
C443 C 0.90594 0.5235 0.50361 0.0
C444 C 0.88359 0.52177 0.46713 0.0
H445 H 0.33677 0.86832 0.38759 0.0
H446 H 0.36288 0.90706 0.20034 0.0
H447 H 0.40426 0.94457 0.25892 0.0
H448 H 0.4337 0.96543 0.36077 0.0
H449 H 0.40968 0.92713 0.54912 0.0
H450 H 0.36671 0.89024 0.49233 0.0
C451 C 0.35158 0.88492 0.35962 0.0
C452 C 0.34662 0.88484 0.28953 0.0
C453 C 0.37567 0.90641 0.39362 0.0
C454 C 0.36588 0.90674 0.25431 0.0
C455 C 0.38968 0.92813 0.28769 0.0
C456 C 0.41917 0.94908 0.38991 0.0
C457 C 0.42509 0.94901 0.45921 0.0
C458 C 0.39485 0.92803 0.35703 0.0
C459 C 0.40572 0.92772 0.49577 0.0
C460 C 0.38119 0.9066 0.46323 0.0
H461 H 0.50105 0.38604 0.31597 0.0
H462 H 0.41342 0.33248 0.31728 0.0
H463 H 0.40994 0.36915 0.38025 0.0
H464 H 0.43268 0.41403 0.44799 0.0
H465 H 0.51969 0.46812 0.43869 0.0
H466 H 0.52202 0.43408 0.36149 0.0
C467 C 0.48095 0.38237 0.32757 0.0
C468 C 0.45769 0.3559 0.31345 0.0
C469 C 0.47888 0.4038 0.362 0.0
C470 C 0.43197 0.35207 0.32999 0.0
C471 C 0.42984 0.37319 0.36535 0.0
C472 C 0.45201 0.41868 0.42755 0.0
C473 C 0.47606 0.44328 0.45042 0.0
C474 C 0.45331 0.39879 0.38379 0.0
C475 C 0.50087 0.44928 0.42244 0.0
C476 C 0.50229 0.42965 0.3788 0.0
H477 H 0.48876 0.8649 0.84565 0.0
H478 H 0.57575 0.89588 0.84523 0.0
H479 H 0.5815 0.93447 0.7826 0.0
H480 H 0.56185 0.95888 0.72491 0.0
H481 H 0.47547 0.92971 0.73164 0.0
H482 H 0.4698 0.89173 0.79738 0.0
C483 C 0.50909 0.88027 0.83307 0.0
C484 C 0.53166 0.87696 0.84949 0.0
C485 C 0.51248 0.90301 0.79863 0.0
C486 C 0.55777 0.89716 0.83165 0.0
C487 C 0.56119 0.91954 0.79641 0.0
C488 C 0.54182 0.94437 0.74129 0.0
C489 C 0.51912 0.94708 0.72297 0.0
C490 C 0.53867 0.92252 0.77906 0.0
C491 C 0.49335 0.92824 0.74523 0.0
C492 C 0.49004 0.90634 0.78243 0.0
H493 H 0.67415 0.54765 0.82229 0.0
H494 H 0.63529 0.46129 0.86382 0.0
H495 H 0.59521 0.45142 0.79332 0.0
H496 H 0.56881 0.46878 0.73451 0.0
H497 H 0.60797 0.55416 0.68804 0.0
H498 H 0.65114 0.5627 0.74286 0.0
C499 C 0.65735 0.52648 0.81458 0.0
C500 C 0.65746 0.5055 0.85065 0.0
C501 C 0.63455 0.52072 0.77248 0.0
C502 C 0.63534 0.4782 0.83945 0.0
C503 C 0.6125 0.47239 0.79834 0.0
C504 C 0.58717 0.48892 0.73413 0.0
C505 C 0.58557 0.51086 0.70785 0.0
C506 C 0.61151 0.49369 0.76677 0.0
C507 C 0.60912 0.53699 0.70756 0.0
C508 C 0.63358 0.54192 0.73977 0.0
H509 H 0.12213 0.63069 0.93751 0.0
H510 H 0.08408 0.68105 0.92426 0.0
H511 H 0.04797 0.64541 0.84672 0.0
H512 H 0.03008 0.60233 0.77376 0.0
H513 H 0.06756 0.55161 0.78925 0.0
H514 H 0.10035 0.58456 0.87721 0.0
C515 C 0.1056 0.63366 0.91926 0.0
C516 C 0.10622 0.65886 0.93578 0.0
C517 C 0.08475 0.61299 0.87511 0.0
C518 C 0.08462 0.66226 0.9109 0.0
C519 C 0.06383 0.64179 0.86689 0.0
C520 C 0.04515 0.59826 0.79718 0.0
C521 C 0.04665 0.57478 0.77426 0.0
C522 C 0.06416 0.61747 0.84711 0.0
C523 C 0.06597 0.56953 0.80585 0.0
C524 C 0.0849 0.5885 0.85581 0.0
H525 H 0.43269 0.0957 0.03347 0.0
H526 H 0.52095 0.14034 0.05339 0.0
H527 H 0.52179 0.10164 0.9924 0.0
H528 H 0.49784 0.05886 0.91715 0.0
H529 H 0.41023 0.01791 0.88374 0.0
H530 H 0.40857 0.05122 0.96627 0.0
C531 C 0.45213 0.09697 0.02458 0.0
C532 C 0.4767 0.12113 0.04684 0.0
C533 C 0.45251 0.07526 0.98675 0.0
C534 C 0.50169 0.12202 0.03692 0.0
C535 C 0.50221 0.09997 0.00155 0.0
C536 C 0.47837 0.05681 0.92984 0.0
C537 C 0.45416 0.03608 0.89526 0.0
C538 C 0.47781 0.07696 0.9741 0.0
C539 C 0.42903 0.03376 0.9104 0.0
C540 C 0.42814 0.05288 0.95703 0.0
H541 H 0.34027 0.49408 0.88676 0.0
H542 H 0.38762 0.50188 0.06872 0.0
H543 H 0.42398 0.50339 0.00155 0.0
H544 H 0.44141 0.50067 0.892 0.0
H545 H 0.39289 0.48848 0.70857 0.0
H546 H 0.3579 0.49075 0.77515 0.0
C547 C 0.35865 0.49623 0.91138 0.0
C548 C 0.3614 0.49792 0.98249 0.0
C549 C 0.37917 0.49634 0.87223 0.0
C550 C 0.38509 0.50042 0.0141 0.0
C551 C 0.40586 0.50136 0.97572 0.0
C552 C 0.42338 0.4989 0.86628 0.0
C553 C 0.41991 0.4947 0.79527 0.0
C554 C 0.40304 0.49916 0.90487 0.0
C555 C 0.3961 0.49184 0.7631 0.0
C556 C 0.37608 0.49305 0.8012 0.0
H557 H 0.90078 0.32337 0.93836 0.0
H558 H 0.86744 0.3756 0.99702 0.0
H559 H 0.90612 0.41521 0.95175 0.0
H560 H 0.94743 0.43398 0.88784 0.0
H561 H 0.97923 0.38101 0.82314 0.0
H562 H 0.94363 0.34289 0.88034 0.0
C563 C 0.9022 0.34352 0.94194 0.0
C564 C 0.88121 0.34654 0.97032 0.0
C565 C 0.92431 0.36608 0.91524 0.0
C566 C 0.88314 0.37269 0.97421 0.0
C567 C 0.90532 0.39536 0.94884 0.0
C568 C 0.94697 0.4143 0.88781 0.0
C569 C 0.96594 0.41028 0.85173 0.0
C570 C 0.9258 0.3922 0.91831 0.0
C571 C 0.96482 0.38454 0.85081 0.0
C572 C 0.94439 0.36271 0.88306 0.0
H573 H 0.84918 0.48037 0.82927 0.0
H574 H 0.9016 0.56549 0.90839 0.0
H575 H 0.93904 0.56761 0.84667 0.0
H576 H 0.9583 0.5443 0.77747 0.0
H577 H 0.90581 0.46068 0.69196 0.0
H578 H 0.8667 0.45941 0.74642 0.0
C579 C 0.86851 0.49966 0.83215 0.0
C580 C 0.87242 0.52246 0.8756 0.0
C581 C 0.88999 0.50114 0.79457 0.0
C582 C 0.89797 0.54711 0.87809 0.0
C583 C 0.91946 0.54855 0.84191 0.0
C584 C 0.93805 0.52615 0.76917 0.0
C585 C 0.93469 0.50273 0.73034 0.0
C586 C 0.91587 0.52555 0.80111 0.0
C587 C 0.90863 0.4791 0.72067 0.0
C588 C 0.88641 0.47829 0.75253 0.0
H589 H 0.31131 0.87049 0.83825 0.0
H590 H 0.35903 0.83453 0.90801 0.0
H591 H 0.3955 0.86349 0.83736 0.0
H592 H 0.4157 0.90231 0.76449 0.0
H593 H 0.36622 0.93514 0.68849 0.0
H594 H 0.32785 0.90241 0.74934 0.0
C595 C 0.32916 0.86807 0.83704 0.0
C596 C 0.33229 0.85056 0.88063 0.0
C597 C 0.34976 0.88402 0.79421 0.0
C598 C 0.35615 0.84852 0.87778 0.0
C599 C 0.37701 0.86483 0.8364 0.0
C600 C 0.39629 0.90182 0.75973 0.0
C601 C 0.39411 0.9216 0.723 0.0
C602 C 0.37431 0.88317 0.79573 0.0
C603 C 0.36865 0.92034 0.71659 0.0
C604 C 0.34673 0.90181 0.75215 0.0
H605 H 0.43765 0.32262 0.92575 0.0
H606 H 0.51787 0.37474 0.02418 0.0
H607 H 0.52244 0.41438 0.96708 0.0
H608 H 0.50405 0.43403 0.88749 0.0
H609 H 0.42431 0.38159 0.7865 0.0
H610 H 0.419 0.34244 0.84701 0.0
C611 C 0.45604 0.34271 0.93497 0.0
C612 C 0.47743 0.34571 0.97883 0.0
C613 C 0.45858 0.36539 0.90174 0.0
C614 C 0.50127 0.37181 0.98984 0.0
C615 C 0.50383 0.39452 0.95757 0.0
C616 C 0.48539 0.41412 0.87923 0.0
C617 C 0.4646 0.4108 0.83264 0.0
C618 C 0.48267 0.39154 0.91321 0.0
C619 C 0.44068 0.38473 0.82195 0.0
C620 C 0.43762 0.3623 0.85649 0.0
H621 H 0.1647 0.52641 0.92607 0.0
H622 H 0.1417 0.44008 0.89694 0.0
H623 H 0.10872 0.43298 0.8053 0.0
H624 H 0.08238 0.44997 0.74437 0.0
H625 H 0.10436 0.53582 0.77726 0.0
H626 H 0.14286 0.54483 0.85393 0.0
C627 C 0.15294 0.50618 0.89875 0.0
C628 C 0.15525 0.4837 0.91926 0.0
C629 C 0.13405 0.50224 0.84621 0.0
C630 C 0.1397 0.45756 0.88348 0.0
C631 C 0.12105 0.45353 0.8306 0.0
C632 C 0.09625 0.47084 0.76637 0.0
C633 C 0.09059 0.49218 0.75579 0.0
C634 C 0.11749 0.47554 0.81288 0.0
C635 C 0.1084 0.51909 0.78511 0.0
C636 C 0.13019 0.52417 0.82945 0.0
H637 H 0.64206 0.15046 0.87615 0.0
H638 H 0.66357 0.09226 0.95359 0.0
H639 H 0.625 0.05456 0.88783 0.0
H640 H 0.58382 0.03745 0.81119 0.0
H641 H 0.56673 0.09606 0.72096 0.0
H642 H 0.60608 0.13449 0.78619 0.0
C643 C 0.63922 0.12985 0.87788 0.0
C644 C 0.65602 0.1248 0.92213 0.0
C645 C 0.61784 0.10817 0.83663 0.0
C646 C 0.65077 0.09729 0.92309 0.0
C647 C 0.62881 0.0755 0.88436 0.0
C648 C 0.58914 0.05873 0.80496 0.0
C649 C 0.57254 0.06409 0.76178 0.0
C650 C 0.61203 0.08065 0.8416 0.0
C651 C 0.57946 0.09159 0.75362 0.0
C652 C 0.60176 0.11348 0.79137 0.0
H653 H 0.56566 0.66513 0.9291 0.0
H654 H 0.4774 0.62014 0.91559 0.0
H655 H 0.47722 0.57977 0.8609 0.0
H656 H 0.50187 0.56097 0.7985 0.0
H657 H 0.58997 0.60801 0.80092 0.0
H658 H 0.59055 0.64362 0.8795 0.0
C659 C 0.54639 0.64642 0.91451 0.0
C660 C 0.5216 0.64586 0.92491 0.0
C661 C 0.54644 0.62368 0.88096 0.0
C662 C 0.49678 0.62118 0.90787 0.0
C663 C 0.49666 0.59813 0.87625 0.0
C664 C 0.52127 0.57853 0.81799 0.0
C665 C 0.54584 0.5821 0.79323 0.0
C666 C 0.52134 0.5996 0.86002 0.0
C667 C 0.57079 0.60499 0.81883 0.0
C668 C 0.5711 0.62545 0.86323 0.0
H669 H 0.50036 0.14092 0.36571 0.0
H670 H 0.41699 0.11685 0.40499 0.0
H671 H 0.41318 0.079 0.46871 0.0
H672 H 0.43404 0.05413 0.51735 0.0
H673 H 0.51747 0.07782 0.4789 0.0
H674 H 0.52063 0.11416 0.40999 0.0
C675 C 0.48142 0.1274 0.38849 0.0
C676 C 0.45905 0.13178 0.38116 0.0
C677 C 0.47933 0.10555 0.42481 0.0
C678 C 0.43445 0.11384 0.4098 0.0
C679 C 0.43228 0.09224 0.44632 0.0
C680 C 0.45289 0.06706 0.49353 0.0
C681 C 0.47553 0.06329 0.50377 0.0
C682 C 0.45465 0.08805 0.4546 0.0
C683 C 0.49968 0.08014 0.47184 0.0
C684 C 0.50157 0.10108 0.43276 0.0
H685 H 0.36383 0.52666 0.43795 0.0
H686 H 0.33629 0.44178 0.36709 0.0
H687 H 0.37302 0.44252 0.43602 0.0
H688 H 0.41711 0.46965 0.50053 0.0
H689 H 0.44708 0.55554 0.56324 0.0
H690 H 0.40507 0.55213 0.51453 0.0
C691 C 0.36579 0.50829 0.43813 0.0
C692 C 0.34774 0.48438 0.3967 0.0
C693 C 0.38735 0.50909 0.47652 0.0
C694 C 0.34998 0.46045 0.39853 0.0
C695 C 0.37104 0.46089 0.43766 0.0
C696 C 0.41381 0.48723 0.50557 0.0
C697 C 0.4346 0.51268 0.53559 0.0
C698 C 0.39036 0.48537 0.47483 0.0
C699 C 0.43087 0.53568 0.54104 0.0
C700 C 0.4071 0.53379 0.5125 0.0
H701 H 0.90765 0.34567 0.29948 0.0
H702 H 0.85755 0.3839 0.31252 0.0
H703 H 0.89347 0.42289 0.38351 0.0
H704 H 0.93636 0.4429 0.45393 0.0
H705 H 0.98446 0.40239 0.44865 0.0
H706 H 0.95223 0.36767 0.36224 0.0
C707 C 0.90461 0.36256 0.31777 0.0
C708 C 0.87978 0.36162 0.30156 0.0
C709 C 0.925 0.38451 0.36012 0.0
C710 C 0.87647 0.38407 0.32407 0.0
C711 C 0.89696 0.40634 0.36503 0.0
C712 C 0.94014 0.42688 0.43259 0.0
C713 C 0.9626 0.42503 0.45786 0.0
C714 C 0.92096 0.40637 0.38496 0.0
C715 C 0.96716 0.40405 0.43026 0.0
C716 C 0.94869 0.38415 0.38113 0.0
H717 H 0.57365 0.91814 0.21591 0.0
H718 H 0.48726 0.87859 0.16154 0.0
H719 H 0.48514 0.91694 0.22125 0.0
H720 H 0.50656 0.95795 0.30299 0.0
H721 H 0.59213 0.99515 0.36377 0.0
H722 H 0.59621 0.96219 0.28556 0.0
C723 C 0.55452 0.91828 0.21567 0.0
C724 C 0.53059 0.89544 0.1853 0.0
C725 C 0.55336 0.94005 0.25126 0.0
C726 C 0.50586 0.89575 0.18581 0.0
C727 C 0.50466 0.9177 0.21968 0.0
C728 C 0.52625 0.95937 0.29712 0.0
C729 C 0.54902 0.97881 0.33869 0.0
C730 C 0.52809 0.93947 0.2546 0.0
C731 C 0.57437 0.98027 0.33197 0.0
C732 C 0.57664 0.9613 0.28777 0.0
H733 H 0.64134 0.4956 0.28485 0.0
H734 H 0.70299 0.58215 0.31397 0.0
H735 H 0.67599 0.58984 0.3977 0.0
H736 H 0.63369 0.57239 0.45913 0.0
H737 H 0.57128 0.48634 0.42532 0.0
H738 H 0.6 0.47786 0.34886 0.0
C739 C 0.64902 0.5161 0.30998 0.0
C740 C 0.67414 0.53828 0.29271 0.0
C741 C 0.63332 0.5204 0.35796 0.0
C742 C 0.68354 0.56478 0.32531 0.0
C743 C 0.66821 0.56915 0.37371 0.0
C744 C 0.62672 0.55167 0.43622 0.0
C745 C 0.60053 0.52995 0.44843 0.0
C746 C 0.64296 0.54717 0.39016 0.0
C747 C 0.59143 0.50335 0.41704 0.0
C748 C 0.60777 0.49853 0.37295 0.0
H749 H 0.11461 0.64454 0.23355 0.0
H750 H 0.10558 0.70757 0.34565 0.0
H751 H 0.06743 0.67189 0.40317 0.0
H752 H 0.03957 0.62318 0.42803 0.0
H753 H 0.04837 0.56009 0.31427 0.0
H754 H 0.08326 0.59534 0.24966 0.0
C755 C 0.10409 0.65032 0.27033 0.0
C756 C 0.11294 0.67845 0.28646 0.0
C757 C 0.08216 0.62975 0.30254 0.0
C758 C 0.09904 0.68594 0.33304 0.0
C759 C 0.07733 0.66559 0.36583 0.0
C760 C 0.04882 0.61706 0.38845 0.0
C761 C 0.04159 0.58904 0.37673 0.0
C762 C 0.06909 0.63747 0.35191 0.0
C763 C 0.05353 0.58147 0.32457 0.0
C764 C 0.07367 0.60165 0.28787 0.0
loop_
_geom_bond_atom_site_label_1
_geom_bond_atom_site_label_2
_geom_bond_distance
_geom_bond_site_symmetry_2
_ccdc_geom_bond_type
H0 C19 0.949 . S
H1 C20 0.950 . S
H2 C22 0.950 . S
H3 C23 0.950 . S
H4 C25 0.950 . S
H5 C28 0.950 . S
H6 C29 0.950 . S
H7 C31 0.951 1_556 S
H8 C32 0.949 . S
H9 C34 0.949 . S
H10 C35 0.950 1_556 S
H11 C37 0.950 . S
H12 C38 0.950 . S
H13 C40 0.950 . S
H14 C43 0.950 . S
H15 C44 0.950 . S
H16 C46 0.951 . S
H17 C47 0.949 . S
C18 C19 1.376 . S
C18 C23 1.386 . S
C18 C24 1.483 . S
C19 H0 0.949 . S
C19 C18 1.376 . S
C19 C20 1.397 . S
C20 H1 0.950 . S
C20 C19 1.397 . S
C20 C21 1.391 . S
C21 C20 1.391 . S
C21 C22 1.405 . S
C22 H2 0.950 . S
C22 C21 1.405 . S
C22 C23 1.367 . S
C23 H3 0.950 . S
C23 C18 1.386 . S
C23 C22 1.367 . S
C24 C18 1.483 . S
C24 C25 1.382 . S
C24 C26 1.403 . S
C25 H4 0.950 . S
C25 C24 1.382 . S
C25 C41 1.411 . S
C26 C24 1.403 . S
C26 C27 1.489 . S
C26 C40 1.411 . S
C27 C26 1.489 . S
C27 C28 1.383 . S
C27 C32 1.382 . S
C28 H5 0.950 . S
C28 C27 1.383 . S
C28 C29 1.395 . S
C29 H6 0.950 . S
C29 C28 1.395 . S
C29 C30 1.288 . S
C30 C29 1.288 . S
C30 C31 1.392 . S
C31 H7 0.951 1_554 S
C31 C30 1.392 . S
C31 C32 1.392 . S
C32 H8 0.949 . S
C32 C27 1.382 . S
C32 C31 1.392 . S
C33 C34 1.376 . S
C33 C38 1.386 . S
C33 C39 1.483 . S
C34 H9 0.949 . S
C34 C33 1.376 . S
C34 C35 1.397 . S
C35 H10 0.950 1_554 S
C35 C34 1.397 . S
C35 C36 1.391 . S
C36 C35 1.391 . S
C36 C37 1.405 . S
C37 H11 0.950 . S
C37 C36 1.405 . S
C37 C38 1.367 . S
C38 H12 0.950 . S
C38 C33 1.386 . S
C38 C37 1.367 . S
C39 C33 1.483 . S
C39 C40 1.382 . S
C39 C41 1.403 . S
C40 H13 0.950 . S
C40 C26 1.411 . S
C40 C39 1.382 . S
C41 C25 1.411 . S
C41 C39 1.403 . S
C41 C42 1.489 . S
C42 C41 1.489 . S
C42 C43 1.383 . S
C42 C47 1.382 . S
C43 H14 0.950 . S
C43 C42 1.383 . S
C43 C44 1.395 . S
C44 H15 0.950 . S
C44 C43 1.395 . S
C44 C45 1.288 . S
C45 C44 1.288 . S
C45 C46 1.392 . S
C46 H16 0.951 . S
C46 C45 1.392 . S
C46 C47 1.392 . S
C47 H17 0.949 . S
C47 C42 1.382 . S
C47 C46 1.392 . S
H48 C67 0.949 . S
H49 C68 0.950 . S
H50 C70 0.950 . S
H51 C71 0.950 . S
H52 C73 0.950 . S
H53 C76 0.950 . S
H54 C77 0.950 . S
H55 C79 0.951 . S
H56 C80 0.949 . S
H57 C82 0.949 . S
H58 C83 0.950 . S
H59 C85 0.950 . S
H60 C86 0.950 . S
H61 C88 0.950 . S
H62 C91 0.950 . S
H63 C92 0.950 . S
H64 C94 0.951 . S
H65 C95 0.949 . S
C66 C67 1.376 . S
C66 C71 1.386 . S
C66 C72 1.483 . S
C67 H48 0.949 . S
C67 C66 1.376 . S
C67 C68 1.397 1_554 S
C68 H49 0.950 . S
C68 C67 1.397 1_556 S
C68 C69 1.391 . S
C69 C68 1.391 . S
C69 C70 1.405 1_556 S
C70 H50 0.950 . S
C70 C69 1.405 1_554 S
C70 C71 1.367 . S
C71 H51 0.950 . S
C71 C66 1.386 . S
C71 C70 1.367 . S
C72 C66 1.483 . S
C72 C73 1.382 . S
C72 C74 1.403 . S
C73 H52 0.950 . S
C73 C72 1.382 . S
C73 C89 1.411 . S
C74 C72 1.403 . S
C74 C75 1.489 . S
C74 C88 1.411 . S
C75 C74 1.489 . S
C75 C76 1.383 . S
C75 C80 1.382 . S
C76 H53 0.950 . S
C76 C75 1.383 . S
C76 C77 1.395 . S
C77 H54 0.950 . S
C77 C76 1.395 . S
C77 C78 1.288 . S
C78 C77 1.288 . S
C78 C79 1.392 . S
C79 H55 0.951 . S
C79 C78 1.392 . S
C79 C80 1.392 . S
C80 H56 0.949 . S
C80 C75 1.382 . S
C80 C79 1.392 . S
C81 C82 1.376 . S
C81 C86 1.386 . S
C81 C87 1.483 . S
C82 H57 0.949 . S
C82 C81 1.376 . S
C82 C83 1.397 . S
C83 H58 0.950 . S
C83 C82 1.397 . S
C83 C84 1.391 . S
C84 C83 1.391 . S
C84 C85 1.405 . S
C85 H59 0.950 . S
C85 C84 1.405 . S
C85 C86 1.367 . S
C86 H60 0.950 . S
C86 C81 1.386 . S
C86 C85 1.367 . S
C87 C81 1.483 . S
C87 C88 1.382 . S
C87 C89 1.403 . S
C88 H61 0.950 . S
C88 C74 1.411 . S
C88 C87 1.382 . S
C89 C73 1.411 . S
C89 C87 1.403 . S
C89 C90 1.489 . S
C90 C89 1.489 . S
C90 C91 1.383 . S
C90 C95 1.382 . S
C91 H62 0.950 . S
C91 C90 1.383 . S
C91 C92 1.395 . S
C92 H63 0.950 . S
C92 C91 1.395 . S
C92 C93 1.288 1_554 S
C93 C92 1.288 1_556 S
C93 C94 1.392 . S
C94 H64 0.951 . S
C94 C93 1.392 . S
C94 C95 1.392 1_556 S
C95 H65 0.949 . S
C95 C90 1.382 . S
C95 C94 1.392 1_554 S
H96 C115 0.949 . S
H97 C116 0.950 . S
H98 C118 0.950 . S
H99 C119 0.950 . S
H100 C121 0.950 . S
H101 C124 0.950 . S
H102 C125 0.950 . S
H103 C127 0.951 . S
H104 C128 0.949 . S
H105 C130 0.949 . S
H106 C131 0.950 . S
H107 C133 0.950 . S
H108 C134 0.950 . S
H109 C136 0.950 . S
H110 C139 0.950 . S
H111 C140 0.950 . S
H112 C142 0.951 . S
H113 C143 0.949 . S
C114 C115 1.376 . S
C114 C119 1.386 . S
C114 C120 1.483 . S
C115 H96 0.949 . S
C115 C114 1.376 . S
C115 C116 1.397 . S
C116 H97 0.950 . S
C116 C115 1.397 . S
C116 C117 1.391 . S
C117 C116 1.391 . S
C117 C118 1.405 . S
C118 H98 0.950 . S
C118 C117 1.405 . S
C118 C119 1.367 . S
C119 H99 0.950 . S
C119 C114 1.386 . S
C119 C118 1.367 . S
C120 C114 1.483 . S
C120 C121 1.382 . S
C120 C122 1.403 1_556 S
C121 H100 0.950 . S
C121 C120 1.382 . S
C121 C137 1.411 . S
C122 C120 1.403 1_554 S
C122 C123 1.489 . S
C122 C136 1.411 . S
C123 C122 1.489 . S
C123 C124 1.383 . S
C123 C128 1.382 . S
C124 H101 0.950 . S
C124 C123 1.383 . S
C124 C125 1.395 . S
C125 H102 0.950 . S
C125 C124 1.395 . S
C125 C126 1.288 . S
C126 C125 1.288 . S
C126 C127 1.392 . S
C127 H103 0.951 . S
C127 C126 1.392 . S
C127 C128 1.392 . S
C128 H104 0.949 . S
C128 C123 1.382 . S
C128 C127 1.392 . S
C129 C130 1.376 . S
C129 C134 1.386 . S
C129 C135 1.483 . S
C130 H105 0.949 . S
C130 C129 1.376 . S
C130 C131 1.397 . S
C131 H106 0.950 . S
C131 C130 1.397 . S
C131 C132 1.391 . S
C132 C131 1.391 . S
C132 C133 1.405 . S
C133 H107 0.950 . S
C133 C132 1.405 . S
C133 C134 1.367 . S
C134 H108 0.950 . S
C134 C129 1.386 . S
C134 C133 1.367 . S
C135 C129 1.483 . S
C135 C136 1.382 . S
C135 C137 1.403 1_554 S
C136 H109 0.950 . S
C136 C122 1.411 . S
C136 C135 1.382 . S
C137 C121 1.411 . S
C137 C135 1.403 1_556 S
C137 C138 1.489 . S
C138 C137 1.489 . S
C138 C139 1.383 . S
C138 C143 1.382 . S
C139 H110 0.950 . S
C139 C138 1.383 . S
C139 C140 1.395 . S
C140 H111 0.950 . S
C140 C139 1.395 . S
C140 C141 1.288 . S
C141 C140 1.288 . S
C141 C142 1.392 . S
C142 H112 0.951 . S
C142 C141 1.392 . S
C142 C143 1.392 . S
C143 H113 0.949 . S
C143 C138 1.382 . S
C143 C142 1.392 . S
H144 C163 0.949 . S
H145 C164 0.950 . S
H146 C166 0.950 . S
H147 C167 0.950 . S
H148 C169 0.950 . S
H149 C172 0.950 1_554 S
H150 C173 0.950 . S
H151 C175 0.951 . S
H152 C176 0.949 . S
H153 C178 0.949 . S
H154 C179 0.950 . S
H155 C181 0.950 . S
H156 C182 0.950 1_554 S
H157 C184 0.950 . S
H158 C187 0.950 . S
H159 C188 0.950 . S
H160 C190 0.951 . S
H161 C191 0.949 . S
C162 C163 1.376 . S
C162 C167 1.386 . S
C162 C168 1.483 . S
C163 H144 0.949 . S
C163 C162 1.376 . S
C163 C164 1.397 . S
C164 H145 0.950 . S
C164 C163 1.397 . S
C164 C165 1.391 . S
C165 C164 1.391 . S
C165 C166 1.405 . S
C166 H146 0.950 . S
C166 C165 1.405 . S
C166 C167 1.367 . S
C167 H147 0.950 . S
C167 C162 1.386 . S
C167 C166 1.367 . S
C168 C162 1.483 . S
C168 C169 1.382 . S
C168 C170 1.403 . S
C169 H148 0.950 . S
C169 C168 1.382 . S
C169 C185 1.411 . S
C170 C168 1.403 . S
C170 C171 1.489 1_554 S
C170 C184 1.411 1_554 S
C171 C170 1.489 1_556 S
C171 C172 1.383 . S
C171 C176 1.382 . S
C172 H149 0.950 1_556 S
C172 C171 1.383 . S
C172 C173 1.395 . S
C173 H150 0.950 . S
C173 C172 1.395 . S
C173 C174 1.288 . S
C174 C173 1.288 . S
C174 C175 1.392 . S
C175 H151 0.951 . S
C175 C174 1.392 . S
C175 C176 1.392 . S
C176 H152 0.949 . S
C176 C171 1.382 . S
C176 C175 1.392 . S
C177 C178 1.376 . S
C177 C182 1.386 . S
C177 C183 1.483 1_556 S
C178 H153 0.949 . S
C178 C177 1.376 . S
C178 C179 1.397 . S
C179 H154 0.950 . S
C179 C178 1.397 . S
C179 C180 1.391 . S
C180 C179 1.391 . S
C180 C181 1.405 . S
C181 H155 0.950 . S
C181 C180 1.405 . S
C181 C182 1.367 . S
C182 H156 0.950 1_556 S
C182 C177 1.386 . S
C182 C181 1.367 . S
C183 C177 1.483 1_554 S
C183 C184 1.382 1_554 S
C183 C185 1.403 . S
C184 H157 0.950 . S
C184 C170 1.411 1_556 S
C184 C183 1.382 1_556 S
C185 C169 1.411 . S
C185 C183 1.403 . S
C185 C186 1.489 . S
C186 C185 1.489 . S
C186 C187 1.383 . S
C186 C191 1.382 . S
C187 H158 0.950 . S
C187 C186 1.383 . S
C187 C188 1.395 . S
C188 H159 0.950 . S
C188 C187 1.395 . S
C188 C189 1.288 . S
C189 C188 1.288 . S
C189 C190 1.392 . S
C190 H160 0.951 . S
C190 C189 1.392 . S
C190 C191 1.392 . S
C191 H161 0.949 . S
C191 C186 1.382 . S
C191 C190 1.392 . S
H192 C211 0.949 . S
H193 C212 0.950 . S
H194 C214 0.950 . S
H195 C215 0.950 . S
H196 C217 0.950 1_556 S
H197 C220 0.950 . S
H198 C221 0.950 . S
H199 C223 0.951 . S
H200 C224 0.949 . S
H201 C226 0.949 . S
H202 C227 0.950 . S
H203 C229 0.950 . S
H204 C230 0.950 . S
H205 C232 0.950 . S
H206 C235 0.950 . S
H207 C236 0.950 . S
H208 C238 0.951 . S
H209 C239 0.949 . S
C210 C211 1.376 1_554 S
C210 C215 1.386 . S
C210 C216 1.483 . S
C211 H192 0.949 . S
C211 C210 1.376 1_556 S
C211 C212 1.397 . S
C212 H193 0.950 . S
C212 C211 1.397 . S
C212 C213 1.391 . S
C213 C212 1.391 . S
C213 C214 1.405 . S
C214 H194 0.950 . S
C214 C213 1.405 . S
C214 C215 1.367 1_556 S
C215 H195 0.950 . S
C215 C210 1.386 . S
C215 C214 1.367 1_554 S
C216 C210 1.483 . S
C216 C217 1.382 . S
C216 C218 1.403 . S
C217 H196 0.950 1_554 S
C217 C216 1.382 . S
C217 C233 1.411 . S
C218 C216 1.403 . S
C218 C219 1.489 . S
C218 C232 1.411 . S
C219 C218 1.489 . S
C219 C220 1.383 . S
C219 C224 1.382 . S
C220 H197 0.950 . S
C220 C219 1.383 . S
C220 C221 1.395 . S
C221 H198 0.950 . S
C221 C220 1.395 . S
C221 C222 1.288 . S
C222 C221 1.288 . S
C222 C223 1.392 . S
C223 H199 0.951 . S
C223 C222 1.392 . S
C223 C224 1.392 . S
C224 H200 0.949 . S
C224 C219 1.382 . S
C224 C223 1.392 . S
C225 C226 1.376 . S
C225 C230 1.386 . S
C225 C231 1.483 . S
C226 H201 0.949 . S
C226 C225 1.376 . S
C226 C227 1.397 . S
C227 H202 0.950 . S
C227 C226 1.397 . S
C227 C228 1.391 . S
C228 C227 1.391 . S
C228 C229 1.405 . S
C229 H203 0.950 . S
C229 C228 1.405 . S
C229 C230 1.367 . S
C230 H204 0.950 . S
C230 C225 1.386 . S
C230 C229 1.367 . S
C231 C225 1.483 . S
C231 C232 1.382 . S
C231 C233 1.403 . S
C232 H205 0.950 . S
C232 C218 1.411 . S
C232 C231 1.382 . S
C233 C217 1.411 . S
C233 C231 1.403 . S
C233 C234 1.489 . S
C234 C233 1.489 . S
C234 C235 1.383 . S
C234 C239 1.382 1_554 S
C235 H206 0.950 . S
C235 C234 1.383 . S
C235 C236 1.395 1_554 S
C236 H207 0.950 . S
C236 C235 1.395 1_556 S
C236 C237 1.288 . S
C237 C236 1.288 . S
C237 C238 1.392 . S
C238 H208 0.951 . S
C238 C237 1.392 . S
C238 C239 1.392 . S
C239 H209 0.949 . S
C239 C234 1.382 1_556 S
C239 C238 1.392 . S
H240 C259 0.949 . S
H241 C260 0.950 . S
H242 C262 0.950 . S
H243 C263 0.950 . S
H244 C265 0.950 . S
H245 C268 0.950 . S
H246 C269 0.950 . S
H247 C271 0.951 . S
H248 C272 0.949 . S
H249 C274 0.949 . S
H250 C275 0.950 . S
H251 C277 0.950 . S
H252 C278 0.950 . S
H253 C280 0.950 . S
H254 C283 0.950 . S
H255 C284 0.950 . S
H256 C286 0.951 . S
H257 C287 0.949 . S
C258 C259 1.376 . S
C258 C263 1.386 . S
C258 C264 1.483 . S
C259 H240 0.949 . S
C259 C258 1.376 . S
C259 C260 1.397 . S
C260 H241 0.950 . S
C260 C259 1.397 . S
C260 C261 1.391 . S
C261 C260 1.391 . S
C261 C262 1.405 . S
C262 H242 0.950 . S
C262 C261 1.405 . S
C262 C263 1.367 . S
C263 H243 0.950 . S
C263 C258 1.386 . S
C263 C262 1.367 . S
C264 C258 1.483 . S
C264 C265 1.382 . S
C264 C266 1.403 . S
C265 H244 0.950 . S
C265 C264 1.382 . S
C265 C281 1.411 . S
C266 C264 1.403 . S
C266 C267 1.489 . S
C266 C280 1.411 . S
C267 C266 1.489 . S
C267 C268 1.383 . S
C267 C272 1.382 . S
C268 H245 0.950 . S
C268 C267 1.383 . S
C268 C269 1.395 . S
C269 H246 0.950 . S
C269 C268 1.395 . S
C269 C270 1.288 . S
C270 C269 1.288 . S
C270 C271 1.392 . S
C271 H247 0.951 . S
C271 C270 1.392 . S
C271 C272 1.392 . S
C272 H248 0.949 . S
C272 C267 1.382 . S
C272 C271 1.392 . S
C273 C274 1.376 . S
C273 C278 1.386 . S
C273 C279 1.483 . S
C274 H249 0.949 . S
C274 C273 1.376 . S
C274 C275 1.397 . S
C275 H250 0.950 . S
C275 C274 1.397 . S
C275 C276 1.391 . S
C276 C275 1.391 . S
C276 C277 1.405 . S
C277 H251 0.950 . S
C277 C276 1.405 . S
C277 C278 1.367 . S
C278 H252 0.950 . S
C278 C273 1.386 . S
C278 C277 1.367 . S
C279 C273 1.483 . S
C279 C280 1.382 . S
C279 C281 1.403 . S
C280 H253 0.950 . S
C280 C266 1.411 . S
C280 C279 1.382 . S
C281 C265 1.411 . S
C281 C279 1.403 . S
C281 C282 1.489 . S
C282 C281 1.489 . S
C282 C283 1.383 . S
C282 C287 1.382 . S
C283 H254 0.950 . S
C283 C282 1.383 . S
C283 C284 1.395 . S
C284 H255 0.950 . S
C284 C283 1.395 . S
C284 C285 1.288 . S
C285 C284 1.288 . S
C285 C286 1.392 . S
C286 H256 0.951 . S
C286 C285 1.392 . S
C286 C287 1.392 . S
C287 H257 0.949 . S
C287 C282 1.382 . S
C287 C286 1.392 . S
C288 O300 1.241 . S
C288 O301 1.280 . S
C289 O302 1.277 . S
C289 O303 1.245 . S
C290 O314 1.247 . S
C290 O316 1.289 . S
Mg291 O292 1.926 . S
Mg291 O301 1.984 . S
Mg291 O303 1.988 1_655 S
Mg291 O304 2.061 . S
O292 Mg291 1.926 . S
O292 Mg293 1.986 1_655 S
O292 Mg294 1.917 1_655 S
Mg293 O292 1.986 1_455 S
Mg293 O300 2.042 1_455 S
Mg293 O302 2.041 . S
Mg293 O308 2.038 1_455 S
Mg293 O316 2.238 . S
Mg294 O292 1.917 1_455 S
Mg294 O295 1.917 . S
Mg294 O305 2.106 1_455 S
Mg294 O307 2.079 1_455 S
Mg294 O316 2.106 . S
Mg294 O317 2.079 . S
O295 Mg294 1.917 . S
O295 Mg296 1.926 . S
O295 Mg297 1.986 . S
Mg296 O295 1.926 . S
Mg296 O310 1.984 . S
Mg296 O313 1.988 1_455 S
Mg296 O314 2.061 . S
Mg297 O295 1.986 . S
Mg297 O305 2.238 1_455 S
Mg297 O309 2.042 . S
Mg297 O311 2.041 1_455 S
Mg297 O318 2.038 . S
C298 O304 1.247 . S
C298 O305 1.289 . S
C299 O317 1.245 . S
C299 O318 1.274 . S
O300 C288 1.241 . S
O300 Mg293 2.042 1_655 S
O301 C288 1.280 . S
O301 Mg291 1.984 . S
O302 C289 1.277 . S
O302 Mg293 2.041 . S
O303 C289 1.245 . S
O303 Mg291 1.988 1_455 S
O304 Mg291 2.061 . S
O304 C298 1.247 . S
O305 Mg294 2.106 1_655 S
O305 Mg297 2.238 1_655 S
O305 C298 1.289 . S
C306 O307 1.245 . S
C306 O308 1.274 . S
O307 Mg294 2.079 1_655 S
O307 C306 1.245 . S
O308 Mg293 2.038 1_655 S
O308 C306 1.274 . S
O309 Mg297 2.042 . S
O309 C312 1.241 . S
O310 Mg296 1.984 . S
O310 C312 1.280 . S
O311 Mg297 2.041 1_655 S
O311 C315 1.277 . S
C312 O309 1.241 . S
C312 O310 1.280 . S
O313 Mg296 1.988 1_655 S
O313 C315 1.245 . S
O314 C290 1.247 . S
O314 Mg296 2.061 . S
C315 O311 1.277 . S
C315 O313 1.245 . S
O316 C290 1.289 . S
O316 Mg293 2.238 . S
O316 Mg294 2.106 . S
O317 Mg294 2.079 . S
O317 C299 1.245 . S
O318 Mg297 2.038 . S
O318 C299 1.274 . S
C319 O331 1.241 . S
C319 O332 1.280 . S
C320 O333 1.277 . S
C320 O334 1.245 . S
C321 O345 1.247 . S
C321 O347 1.289 . S
Mg322 O323 1.926 . S
Mg322 O332 1.984 . S
Mg322 O334 1.988 1_545 S
Mg322 O335 2.061 . S
O323 Mg322 1.926 . S
O323 Mg324 1.986 . S
O323 Mg325 1.917 . S
Mg324 O323 1.986 . S
Mg324 O331 2.042 . S
Mg324 O333 2.041 1_545 S
Mg324 O339 2.038 . S
Mg324 O347 2.238 1_545 S
Mg325 O323 1.917 . S
Mg325 O326 1.917 1_545 S
Mg325 O336 2.106 . S
Mg325 O338 2.079 . S
Mg325 O347 2.106 1_545 S
Mg325 O348 2.079 1_545 S
O326 Mg325 1.917 1_565 S
O326 Mg327 1.926 . S
O326 Mg328 1.986 1_565 S
Mg327 O326 1.926 . S
Mg327 O341 1.984 . S
Mg327 O344 1.988 1_565 S
Mg327 O345 2.061 . S
Mg328 O326 1.986 1_545 S
Mg328 O336 2.238 . S
Mg328 O340 2.042 1_545 S
Mg328 O342 2.041 . S
Mg328 O349 2.038 1_545 S
C329 O335 1.247 . S
C329 O336 1.289 . S
C330 O348 1.245 . S
C330 O349 1.274 . S
O331 C319 1.241 . S
O331 Mg324 2.042 . S
O332 C319 1.280 . S
O332 Mg322 1.984 . S
O333 C320 1.277 . S
O333 Mg324 2.041 1_565 S
O334 C320 1.245 . S
O334 Mg322 1.988 1_565 S
O335 Mg322 2.061 . S
O335 C329 1.247 . S
O336 Mg325 2.106 . S
O336 Mg328 2.238 . S
O336 C329 1.289 . S
C337 O338 1.245 . S
C337 O339 1.274 . S
O338 Mg325 2.079 . S
O338 C337 1.245 . S
O339 Mg324 2.038 . S
O339 C337 1.274 . S
O340 Mg328 2.042 1_565 S
O340 C343 1.241 . S
O341 Mg327 1.984 . S
O341 C343 1.280 . S
O342 Mg328 2.041 . S
O342 C346 1.277 . S
C343 O340 1.241 . S
C343 O341 1.280 . S
O344 Mg327 1.988 1_545 S
O344 C346 1.245 . S
O345 C321 1.247 . S
O345 Mg327 2.061 . S
C346 O342 1.277 . S
C346 O344 1.245 . S
O347 C321 1.289 . S
O347 Mg324 2.238 1_565 S
O347 Mg325 2.106 1_565 S
O348 Mg325 2.079 1_565 S
O348 C330 1.245 . S
O349 Mg328 2.038 1_565 S
O349 C330 1.274 . S
C350 O362 1.241 . S
C350 O363 1.280 . S
C351 O364 1.277 . S
C351 O365 1.245 . S
C352 O376 1.247 . S
C352 O378 1.289 . S
Mg353 O354 1.926 . S
Mg353 O363 1.984 . S
Mg353 O365 1.988 . S
Mg353 O366 2.061 . S
O354 Mg353 1.926 . S
O354 Mg355 1.986 . S
O354 Mg356 1.917 . S
Mg355 O354 1.986 . S
Mg355 O362 2.042 . S
Mg355 O364 2.041 . S
Mg355 O370 2.038 . S
Mg355 O378 2.238 . S
Mg356 O354 1.917 . S
Mg356 O357 1.917 . S
Mg356 O367 2.106 . S
Mg356 O369 2.079 . S
Mg356 O378 2.106 . S
Mg356 O379 2.079 . S
O357 Mg356 1.917 . S
O357 Mg358 1.926 . S
O357 Mg359 1.986 . S
Mg358 O357 1.926 . S
Mg358 O372 1.984 . S
Mg358 O375 1.988 . S
Mg358 O376 2.061 . S
Mg359 O357 1.986 . S
Mg359 O367 2.238 . S
Mg359 O371 2.042 . S
Mg359 O373 2.041 . S
Mg359 O380 2.038 . S
C360 O366 1.247 . S
C360 O367 1.289 . S
C361 O379 1.245 . S
C361 O380 1.274 . S
O362 C350 1.241 . S
O362 Mg355 2.042 . S
O363 C350 1.280 . S
O363 Mg353 1.984 . S
O364 C351 1.277 . S
O364 Mg355 2.041 . S
O365 C351 1.245 . S
O365 Mg353 1.988 . S
O366 Mg353 2.061 . S
O366 C360 1.247 . S
O367 Mg356 2.106 . S
O367 Mg359 2.238 . S
O367 C360 1.289 . S
C368 O369 1.245 . S
C368 O370 1.274 . S
O369 Mg356 2.079 . S
O369 C368 1.245 . S
O370 Mg355 2.038 . S
O370 C368 1.274 . S
O371 Mg359 2.042 . S
O371 C374 1.241 . S
O372 Mg358 1.984 . S
O372 C374 1.280 . S
O373 Mg359 2.041 . S
O373 C377 1.277 . S
C374 O371 1.241 . S
C374 O372 1.280 . S
O375 Mg358 1.988 . S
O375 C377 1.245 . S
O376 C352 1.247 . S
O376 Mg358 2.061 . S
C377 O373 1.277 . S
C377 O375 1.245 . S
O378 C352 1.289 . S
O378 Mg355 2.238 . S
O378 Mg356 2.106 . S
O379 Mg356 2.079 . S
O379 C361 1.245 . S
O380 Mg359 2.038 . S
O380 C361 1.274 . S
H381 C387 0.930 . S
H382 C390 0.930 . S
H383 C391 0.930 . S
H384 C392 0.930 . S
H385 C395 0.930 . S
H386 C396 0.930 . S
C387 H381 0.930 . S
C387 C388 1.355 . S
C387 C389 1.415 . S
C388 C387 1.355 . S
C388 C390 1.419 . S
C389 C387 1.415 . S
C389 C394 1.425 . S
C389 C396 1.409 . S
C390 H382 0.930 . S
C390 C388 1.419 . S
C390 C391 1.362 . S
C391 H383 0.930 . S
C391 C390 1.362 . S
C391 C394 1.409 . S
C392 H384 0.930 . S
C392 C393 1.355 . S
C392 C394 1.415 . S
C393 C392 1.355 . S
C393 C395 1.419 . S
C394 C389 1.425 . S
C394 C391 1.409 . S
C394 C392 1.415 . S
C395 H385 0.930 . S
C395 C393 1.419 . S
C395 C396 1.362 . S
C396 H386 0.930 . S
C396 C389 1.409 . S
C396 C395 1.362 . S
H397 C403 0.930 . S
H398 C406 0.930 . S
H399 C407 0.930 . S
H400 C408 0.930 . S
H401 C411 0.930 . S
H402 C412 0.930 . S
C403 H397 0.930 . S
C403 C404 1.355 . S
C403 C405 1.415 . S
C404 C403 1.355 . S
C404 C406 1.419 . S
C405 C403 1.415 . S
C405 C410 1.425 . S
C405 C412 1.409 . S
C406 H398 0.930 . S
C406 C404 1.419 . S
C406 C407 1.362 . S
C407 H399 0.930 . S
C407 C406 1.362 . S
C407 C410 1.409 . S
C408 H400 0.930 . S
C408 C409 1.355 . S
C408 C410 1.415 . S
C409 C408 1.355 . S
C409 C411 1.419 . S
C410 C405 1.425 . S
C410 C407 1.409 . S
C410 C408 1.415 . S
C411 H401 0.930 . S
C411 C409 1.419 . S
C411 C412 1.362 . S
C412 H402 0.930 . S
C412 C405 1.409 . S
C412 C411 1.362 . S
H413 C419 0.930 . S
H414 C422 0.930 . S
H415 C423 0.930 . S
H416 C424 0.930 . S
H417 C427 0.930 . S
H418 C428 0.930 . S
C419 H413 0.930 . S
C419 C420 1.355 . S
C419 C421 1.415 . S
C420 C419 1.355 . S
C420 C422 1.419 . S
C421 C419 1.415 . S
C421 C426 1.425 . S
C421 C428 1.409 . S
C422 H414 0.930 . S
C422 C420 1.419 . S
C422 C423 1.362 . S
C423 H415 0.930 . S
C423 C422 1.362 . S
C423 C426 1.409 . S
C424 H416 0.930 . S
C424 C425 1.355 . S
C424 C426 1.415 . S
C425 C424 1.355 . S
C425 C427 1.419 . S
C426 C421 1.425 . S
C426 C423 1.409 . S
C426 C424 1.415 . S
C427 H417 0.930 . S
C427 C425 1.419 . S
C427 C428 1.362 . S
C428 H418 0.930 . S
C428 C421 1.409 . S
C428 C427 1.362 . S
H429 C435 0.930 . S
H430 C438 0.930 . S
H431 C439 0.930 . S
H432 C440 0.930 . S
H433 C443 0.930 . S
H434 C444 0.930 . S
C435 H429 0.930 . S
C435 C436 1.355 . S
C435 C437 1.415 . S
C436 C435 1.355 . S
C436 C438 1.419 . S
C437 C435 1.415 . S
C437 C442 1.425 . S
C437 C444 1.409 . S
C438 H430 0.930 . S
C438 C436 1.419 . S
C438 C439 1.362 . S
C439 H431 0.930 . S
C439 C438 1.362 . S
C439 C442 1.409 . S
C440 H432 0.930 . S
C440 C441 1.355 . S
C440 C442 1.415 . S
C441 C440 1.355 . S
C441 C443 1.419 . S
C442 C437 1.425 . S
C442 C439 1.409 . S
C442 C440 1.415 . S
C443 H433 0.930 . S
C443 C441 1.419 . S
C443 C444 1.362 . S
C444 H434 0.930 . S
C444 C437 1.409 . S
C444 C443 1.362 . S
H445 C451 0.930 . S
H446 C454 0.930 . S
H447 C455 0.930 . S
H448 C456 0.930 . S
H449 C459 0.930 . S
H450 C460 0.930 . S
C451 H445 0.930 . S
C451 C452 1.355 . S
C451 C453 1.415 . S
C452 C451 1.355 . S
C452 C454 1.419 . S
C453 C451 1.415 . S
C453 C458 1.425 . S
C453 C460 1.409 . S
C454 H446 0.930 . S
C454 C452 1.419 . S
C454 C455 1.362 . S
C455 H447 0.930 . S
C455 C454 1.362 . S
C455 C458 1.409 . S
C456 H448 0.930 . S
C456 C457 1.355 . S
C456 C458 1.415 . S
C457 C456 1.355 . S
C457 C459 1.419 . S
C458 C453 1.425 . S
C458 C455 1.409 . S
C458 C456 1.415 . S
C459 H449 0.930 . S
C459 C457 1.419 . S
C459 C460 1.362 . S
C460 H450 0.930 . S
C460 C453 1.409 . S
C460 C459 1.362 . S
H461 C467 0.930 . S
H462 C470 0.930 . S
H463 C471 0.930 . S
H464 C472 0.930 . S
H465 C475 0.930 . S
H466 C476 0.930 . S
C467 H461 0.930 . S
C467 C468 1.355 . S
C467 C469 1.415 . S
C468 C467 1.355 . S
C468 C470 1.419 . S
C469 C467 1.415 . S
C469 C474 1.425 . S
C469 C476 1.409 . S
C470 H462 0.930 . S
C470 C468 1.419 . S
C470 C471 1.362 . S
C471 H463 0.930 . S
C471 C470 1.362 . S
C471 C474 1.409 . S
C472 H464 0.930 . S
C472 C473 1.355 . S
C472 C474 1.415 . S
C473 C472 1.355 . S
C473 C475 1.419 . S
C474 C469 1.425 . S
C474 C471 1.409 . S
C474 C472 1.415 . S
C475 H465 0.930 . S
C475 C473 1.419 . S
C475 C476 1.362 . S
C476 H466 0.930 . S
C476 C469 1.409 . S
C476 C475 1.362 . S
H477 C483 0.930 . S
H478 C486 0.930 . S
H479 C487 0.930 . S
H480 C488 0.930 . S
H481 C491 0.930 . S
H482 C492 0.930 . S
C483 H477 0.930 . S
C483 C484 1.355 . S
C483 C485 1.415 . S
C484 C483 1.355 . S
C484 C486 1.419 . S
C485 C483 1.415 . S
C485 C490 1.425 . S
C485 C492 1.409 . S
C486 H478 0.930 . S
C486 C484 1.419 . S
C486 C487 1.362 . S
C487 H479 0.930 . S
C487 C486 1.362 . S
C487 C490 1.409 . S
C488 H480 0.930 . S
C488 C489 1.355 . S
C488 C490 1.415 . S
C489 C488 1.355 . S
C489 C491 1.419 . S
C490 C485 1.425 . S
C490 C487 1.409 . S
C490 C488 1.415 . S
C491 H481 0.930 . S
C491 C489 1.419 . S
C491 C492 1.362 . S
C492 H482 0.930 . S
C492 C485 1.409 . S
C492 C491 1.362 . S
H493 C499 0.930 . S
H494 C502 0.930 . S
H495 C503 0.930 . S
H496 C504 0.930 . S
H497 C507 0.930 . S
H498 C508 0.930 . S
C499 H493 0.930 . S
C499 C500 1.355 . S
C499 C501 1.415 . S
C500 C499 1.355 . S
C500 C502 1.419 . S
C501 C499 1.415 . S
C501 C506 1.425 . S
C501 C508 1.409 . S
C502 H494 0.930 . S
C502 C500 1.419 . S
C502 C503 1.362 . S
C503 H495 0.930 . S
C503 C502 1.362 . S
C503 C506 1.409 . S
C504 H496 0.930 . S
C504 C505 1.355 . S
C504 C506 1.415 . S
C505 C504 1.355 . S
C505 C507 1.419 . S
C506 C501 1.425 . S
C506 C503 1.409 . S
C506 C504 1.415 . S
C507 H497 0.930 . S
C507 C505 1.419 . S
C507 C508 1.362 . S
C508 H498 0.930 . S
C508 C501 1.409 . S
C508 C507 1.362 . S
H509 C515 0.930 . S
H510 C518 0.930 . S
H511 C519 0.930 . S
H512 C520 0.930 . S
H513 C523 0.930 . S
H514 C524 0.930 . S
C515 H509 0.930 . S
C515 C516 1.355 . S
C515 C517 1.415 . S
C516 C515 1.355 . S
C516 C518 1.419 . S
C517 C515 1.415 . S
C517 C522 1.425 . S
C517 C524 1.409 . S
C518 H510 0.930 . S
C518 C516 1.419 . S
C518 C519 1.362 . S
C519 H511 0.930 . S
C519 C518 1.362 . S
C519 C522 1.409 . S
C520 H512 0.930 . S
C520 C521 1.355 . S
C520 C522 1.415 . S
C521 C520 1.355 . S
C521 C523 1.419 . S
C522 C517 1.425 . S
C522 C519 1.409 . S
C522 C520 1.415 . S
C523 H513 0.930 . S
C523 C521 1.419 . S
C523 C524 1.362 . S
C524 H514 0.930 . S
C524 C517 1.409 . S
C524 C523 1.362 . S
H525 C531 0.930 . S
H526 C534 0.930 . S
H527 C535 0.930 . S
H528 C536 0.930 . S
H529 C539 0.930 . S
H530 C540 0.930 1_554 S
C531 H525 0.930 . S
C531 C532 1.355 . S
C531 C533 1.415 1_554 S
C532 C531 1.355 . S
C532 C534 1.419 1_554 S
C533 C531 1.415 1_556 S
C533 C538 1.425 . S
C533 C540 1.409 . S
C534 H526 0.930 . S
C534 C532 1.419 1_556 S
C534 C535 1.362 . S
C535 H527 0.930 . S
C535 C534 1.362 . S
C535 C538 1.409 . S
C536 H528 0.930 . S
C536 C537 1.355 . S
C536 C538 1.415 . S
C537 C536 1.355 . S
C537 C539 1.419 . S
C538 C533 1.425 . S
C538 C535 1.409 . S
C538 C536 1.415 . S
C539 H529 0.930 . S
C539 C537 1.419 . S
C539 C540 1.362 . S
C540 H530 0.930 1_556 S
C540 C533 1.409 . S
C540 C539 1.362 . S
H541 C547 0.930 . S
H542 C550 0.930 1_554 S
H543 C551 0.930 . S
H544 C552 0.930 . S
H545 C555 0.930 . S
H546 C556 0.930 . S
C547 H541 0.930 . S
C547 C548 1.355 . S
C547 C549 1.415 . S
C548 C547 1.355 . S
C548 C550 1.419 . S
C549 C547 1.415 . S
C549 C554 1.425 . S
C549 C556 1.409 . S
C550 H542 0.930 1_556 S
C550 C548 1.419 . S
C550 C551 1.362 . S
C551 H543 0.930 . S
C551 C550 1.362 . S
C551 C554 1.409 . S
C552 H544 0.930 . S
C552 C553 1.355 . S
C552 C554 1.415 . S
C553 C552 1.355 . S
C553 C555 1.419 . S
C554 C549 1.425 . S
C554 C551 1.409 . S
C554 C552 1.415 . S
C555 H545 0.930 . S
C555 C553 1.419 . S
C555 C556 1.362 . S
C556 H546 0.930 . S
C556 C549 1.409 . S
C556 C555 1.362 . S
H557 C563 0.930 . S
H558 C566 0.930 . S
H559 C567 0.930 . S
H560 C568 0.930 . S
H561 C571 0.930 . S
H562 C572 0.930 . S
C563 H557 0.930 . S
C563 C564 1.355 . S
C563 C565 1.415 . S
C564 C563 1.355 . S
C564 C566 1.419 . S
C565 C563 1.415 . S
C565 C570 1.425 . S
C565 C572 1.409 . S
C566 H558 0.930 . S
C566 C564 1.419 . S
C566 C567 1.362 . S
C567 H559 0.930 . S
C567 C566 1.362 . S
C567 C570 1.409 . S
C568 H560 0.930 . S
C568 C569 1.355 . S
C568 C570 1.415 . S
C569 C568 1.355 . S
C569 C571 1.419 . S
C570 C565 1.425 . S
C570 C567 1.409 . S
C570 C568 1.415 . S
C571 H561 0.930 . S
C571 C569 1.419 . S
C571 C572 1.362 . S
C572 H562 0.930 . S
C572 C565 1.409 . S
C572 C571 1.362 . S
H573 C579 0.930 . S
H574 C582 0.930 . S
H575 C583 0.930 . S
H576 C584 0.930 . S
H577 C587 0.930 . S
H578 C588 0.930 . S
C579 H573 0.930 . S
C579 C580 1.355 . S
C579 C581 1.415 . S
C580 C579 1.355 . S
C580 C582 1.419 . S
C581 C579 1.415 . S
C581 C586 1.425 . S
C581 C588 1.409 . S
C582 H574 0.930 . S
C582 C580 1.419 . S
C582 C583 1.362 . S
C583 H575 0.930 . S
C583 C582 1.362 . S
C583 C586 1.409 . S
C584 H576 0.930 . S
C584 C585 1.355 . S
C584 C586 1.415 . S
C585 C584 1.355 . S
C585 C587 1.419 . S
C586 C581 1.425 . S
C586 C583 1.409 . S
C586 C584 1.415 . S
C587 H577 0.930 . S
C587 C585 1.419 . S
C587 C588 1.362 . S
C588 H578 0.930 . S
C588 C581 1.409 . S
C588 C587 1.362 . S
H589 C595 0.930 . S
H590 C598 0.930 . S
H591 C599 0.930 . S
H592 C600 0.930 . S
H593 C603 0.930 . S
H594 C604 0.930 . S
C595 H589 0.930 . S
C595 C596 1.355 . S
C595 C597 1.415 . S
C596 C595 1.355 . S
C596 C598 1.419 . S
C597 C595 1.415 . S
C597 C602 1.425 . S
C597 C604 1.409 . S
C598 H590 0.930 . S
C598 C596 1.419 . S
C598 C599 1.362 . S
C599 H591 0.930 . S
C599 C598 1.362 . S
C599 C602 1.409 . S
C600 H592 0.930 . S
C600 C601 1.355 . S
C600 C602 1.415 . S
C601 C600 1.355 . S
C601 C603 1.419 . S
C602 C597 1.425 . S
C602 C599 1.409 . S
C602 C600 1.415 . S
C603 H593 0.930 . S
C603 C601 1.419 . S
C603 C604 1.362 . S
C604 H594 0.930 . S
C604 C597 1.409 . S
C604 C603 1.362 . S
H605 C611 0.930 . S
H606 C614 0.930 . S
H607 C615 0.930 . S
H608 C616 0.930 . S
H609 C619 0.930 . S
H610 C620 0.930 . S
C611 H605 0.930 . S
C611 C612 1.355 1_556 S
C611 C613 1.415 . S
C612 C611 1.355 1_554 S
C612 C614 1.419 . S
C613 C611 1.415 . S
C613 C618 1.425 . S
C613 C620 1.409 . S
C614 H606 0.930 . S
C614 C612 1.419 . S
C614 C615 1.362 . S
C615 H607 0.930 . S
C615 C614 1.362 . S
C615 C618 1.409 1_554 S
C616 H608 0.930 . S
C616 C617 1.355 . S
C616 C618 1.415 . S
C617 C616 1.355 . S
C617 C619 1.419 . S
C618 C613 1.425 . S
C618 C615 1.409 1_556 S
C618 C616 1.415 . S
C619 H609 0.930 . S
C619 C617 1.419 . S
C619 C620 1.362 . S
C620 H610 0.930 . S
C620 C613 1.409 . S
C620 C619 1.362 . S
H621 C627 0.930 1_554 S
H622 C630 0.930 . S
H623 C631 0.930 . S
H624 C632 0.930 . S
H625 C635 0.930 . S
H626 C636 0.930 . S
C627 H621 0.930 1_556 S
C627 C628 1.355 . S
C627 C629 1.415 . S
C628 C627 1.355 . S
C628 C630 1.419 . S
C629 C627 1.415 . S
C629 C634 1.425 . S
C629 C636 1.409 . S
C630 H622 0.930 . S
C630 C628 1.419 . S
C630 C631 1.362 . S
C631 H623 0.930 . S
C631 C630 1.362 . S
C631 C634 1.409 . S
C632 H624 0.930 . S
C632 C633 1.355 . S
C632 C634 1.415 . S
C633 C632 1.355 . S
C633 C635 1.419 . S
C634 C629 1.425 . S
C634 C631 1.409 . S
C634 C632 1.415 . S
C635 H625 0.930 . S
C635 C633 1.419 . S
C635 C636 1.362 . S
C636 H626 0.930 . S
C636 C629 1.409 . S
C636 C635 1.362 . S
H637 C643 0.930 . S
H638 C646 0.930 . S
H639 C647 0.930 . S
H640 C648 0.930 . S
H641 C651 0.930 . S
H642 C652 0.930 . S
C643 H637 0.930 . S
C643 C644 1.355 . S
C643 C645 1.415 . S
C644 C643 1.355 . S
C644 C646 1.419 . S
C645 C643 1.415 . S
C645 C650 1.425 . S
C645 C652 1.409 . S
C646 H638 0.930 . S
C646 C644 1.419 . S
C646 C647 1.362 . S
C647 H639 0.930 . S
C647 C646 1.362 . S
C647 C650 1.409 . S
C648 H640 0.930 . S
C648 C649 1.355 . S
C648 C650 1.415 . S
C649 C648 1.355 . S
C649 C651 1.419 . S
C650 C645 1.425 . S
C650 C647 1.409 . S
C650 C648 1.415 . S
C651 H641 0.930 . S
C651 C649 1.419 . S
C651 C652 1.362 . S
C652 H642 0.930 . S
C652 C645 1.409 . S
C652 C651 1.362 . S
H653 C659 0.930 . S
H654 C662 0.930 . S
H655 C663 0.930 . S
H656 C664 0.930 . S
H657 C667 0.930 . S
H658 C668 0.930 . S
C659 H653 0.930 . S
C659 C660 1.355 . S
C659 C661 1.415 . S
C660 C659 1.355 . S
C660 C662 1.419 . S
C661 C659 1.415 . S
C661 C666 1.425 . S
C661 C668 1.409 . S
C662 H654 0.930 . S
C662 C660 1.419 . S
C662 C663 1.362 . S
C663 H655 0.930 . S
C663 C662 1.362 . S
C663 C666 1.409 . S
C664 H656 0.930 . S
C664 C665 1.355 . S
C664 C666 1.415 . S
C665 C664 1.355 . S
C665 C667 1.419 . S
C666 C661 1.425 . S
C666 C663 1.409 . S
C666 C664 1.415 . S
C667 H657 0.930 . S
C667 C665 1.419 . S
C667 C668 1.362 . S
C668 H658 0.930 . S
C668 C661 1.409 . S
C668 C667 1.362 . S
H669 C675 0.930 . S
H670 C678 0.930 . S
H671 C679 0.930 . S
H672 C680 0.930 . S
H673 C683 0.930 . S
H674 C684 0.930 . S
C675 H669 0.930 . S
C675 C676 1.355 . S
C675 C677 1.415 . S
C676 C675 1.355 . S
C676 C678 1.419 . S
C677 C675 1.415 . S
C677 C682 1.425 . S
C677 C684 1.409 . S
C678 H670 0.930 . S
C678 C676 1.419 . S
C678 C679 1.362 . S
C679 H671 0.930 . S
C679 C678 1.362 . S
C679 C682 1.409 . S
C680 H672 0.930 . S
C680 C681 1.355 . S
C680 C682 1.415 . S
C681 C680 1.355 . S
C681 C683 1.419 . S
C682 C677 1.425 . S
C682 C679 1.409 . S
C682 C680 1.415 . S
C683 H673 0.930 . S
C683 C681 1.419 . S
C683 C684 1.362 . S
C684 H674 0.930 . S
C684 C677 1.409 . S
C684 C683 1.362 . S
H685 C691 0.930 . S
H686 C694 0.930 . S
H687 C695 0.930 . S
H688 C696 0.930 . S
H689 C699 0.930 . S
H690 C700 0.930 . S
C691 H685 0.930 . S
C691 C692 1.355 . S
C691 C693 1.415 . S
C692 C691 1.355 . S
C692 C694 1.419 . S
C693 C691 1.415 . S
C693 C698 1.425 . S
C693 C700 1.409 . S
C694 H686 0.930 . S
C694 C692 1.419 . S
C694 C695 1.362 . S
C695 H687 0.930 . S
C695 C694 1.362 . S
C695 C698 1.409 . S
C696 H688 0.930 . S
C696 C697 1.355 . S
C696 C698 1.415 . S
C697 C696 1.355 . S
C697 C699 1.419 . S
C698 C693 1.425 . S
C698 C695 1.409 . S
C698 C696 1.415 . S
C699 H689 0.930 . S
C699 C697 1.419 . S
C699 C700 1.362 . S
C700 H690 0.930 . S
C700 C693 1.409 . S
C700 C699 1.362 . S
H701 C707 0.930 . S
H702 C710 0.930 . S
H703 C711 0.930 . S
H704 C712 0.930 . S
H705 C715 0.930 . S
H706 C716 0.930 . S
C707 H701 0.930 . S
C707 C708 1.355 . S
C707 C709 1.415 . S
C708 C707 1.355 . S
C708 C710 1.419 . S
C709 C707 1.415 . S
C709 C714 1.425 . S
C709 C716 1.409 . S
C710 H702 0.930 . S
C710 C708 1.419 . S
C710 C711 1.362 . S
C711 H703 0.930 . S
C711 C710 1.362 . S
C711 C714 1.409 . S
C712 H704 0.930 . S
C712 C713 1.355 . S
C712 C714 1.415 . S
C713 C712 1.355 . S
C713 C715 1.419 . S
C714 C709 1.425 . S
C714 C711 1.409 . S
C714 C712 1.415 . S
C715 H705 0.930 . S
C715 C713 1.419 . S
C715 C716 1.362 . S
C716 H706 0.930 . S
C716 C709 1.409 . S
C716 C715 1.362 . S
H717 C723 0.930 . S
H718 C726 0.930 . S
H719 C727 0.930 . S
H720 C728 0.930 . S
H721 C731 0.930 . S
H722 C732 0.930 . S
C723 H717 0.930 . S
C723 C724 1.355 . S
C723 C725 1.415 . S
C724 C723 1.355 . S
C724 C726 1.419 . S
C725 C723 1.415 . S
C725 C730 1.425 . S
C725 C732 1.409 . S
C726 H718 0.930 . S
C726 C724 1.419 . S
C726 C727 1.362 . S
C727 H719 0.930 . S
C727 C726 1.362 . S
C727 C730 1.409 . S
C728 H720 0.930 . S
C728 C729 1.355 . S
C728 C730 1.415 . S
C729 C728 1.355 . S
C729 C731 1.419 . S
C730 C725 1.425 . S
C730 C727 1.409 . S
C730 C728 1.415 . S
C731 H721 0.930 . S
C731 C729 1.419 . S
C731 C732 1.362 . S
C732 H722 0.930 . S
C732 C725 1.409 . S
C732 C731 1.362 . S
H733 C739 0.930 . S
H734 C742 0.930 . S
H735 C743 0.930 . S
H736 C744 0.930 . S
H737 C747 0.930 . S
H738 C748 0.930 . S
C739 H733 0.930 . S
C739 C740 1.355 . S
C739 C741 1.415 . S
C740 C739 1.355 . S
C740 C742 1.419 . S
C741 C739 1.415 . S
C741 C746 1.425 . S
C741 C748 1.409 . S
C742 H734 0.930 . S
C742 C740 1.419 . S
C742 C743 1.362 . S
C743 H735 0.930 . S
C743 C742 1.362 . S
C743 C746 1.409 . S
C744 H736 0.930 . S
C744 C745 1.355 . S
C744 C746 1.415 . S
C745 C744 1.355 . S
C745 C747 1.419 . S
C746 C741 1.425 . S
C746 C743 1.409 . S
C746 C744 1.415 . S
C747 H737 0.930 . S
C747 C745 1.419 . S
C747 C748 1.362 . S
C748 H738 0.930 . S
C748 C741 1.409 . S
C748 C747 1.362 . S
H749 C755 0.930 . S
H750 C758 0.930 . S
H751 C759 0.930 . S
H752 C760 0.930 . S
H753 C763 0.930 . S
H754 C764 0.930 . S
C755 H749 0.930 . S
C755 C756 1.355 . S
C755 C757 1.415 . S
C756 C755 1.355 . S
C756 C758 1.419 . S
C757 C755 1.415 . S
C757 C762 1.425 . S
C757 C764 1.409 . S
C758 H750 0.930 . S
C758 C756 1.419 . S
C758 C759 1.362 . S
C759 H751 0.930 . S
C759 C758 1.362 . S
C759 C762 1.409 . S
C760 H752 0.930 . S
C760 C761 1.355 . S
C760 C762 1.415 . S
C761 C760 1.355 . S
C761 C763 1.419 . S
C762 C757 1.425 . S
C762 C759 1.409 . S
C762 C760 1.415 . S
C763 H753 0.930 . S
C763 C761 1.419 . S
C763 C764 1.362 . S
C764 H754 0.930 . S
C764 C757 1.409 . S
C764 C763 1.362 . S
C388 C45 1.924 . S
C393 C299 1.822 . S
C404 C84 1.653 . S
C409 C346 1.624 . S
C425 C350 1.814 . S
C420 C126 1.847 . S
C441 C315 1.549 . S
C436 C165 1.567 . S
C452 C222 1.768 . S
C457 C330 1.752 . S
C473 C352 1.121 . S
C468 C276 1.140 . S
C489 C321 1.517 . S
C484 C141 1.569 . S
C500 C180 1.479 . S
C505 C361 1.406 . S
C521 C290 1.368 . S
C516 C237 1.463 . S
C532 C261 1.473 . S
C537 C319 1.415 . S
C548 C30 1.917 1_556 S
C553 C377 1.898 . S
C569 C288 1.490 . S
C564 C69 1.542 . S
C585 C306 1.818 . S
C580 C174 1.923 . S
C601 C320 1.580 . S
C596 C213 1.635 . S
C617 C374 1.767 . S
C612 C285 1.814 . S
C633 C289 1.502 . S
C628 C36 1.560 1_556 S
C649 C337 1.781 . S
C644 C93 1.809 . S
C660 C117 1.163 . S
C665 C360 1.113 . S
C681 C329 1.510 . S
C676 C270 1.571 . S
C697 C368 1.478 . S
C692 C21 1.483 . S
C713 C298 1.346 . S
C708 C78 1.448 . S
C729 C343 1.401 . S
C724 C132 1.466 . S
C740 C189 1.893 . S
C745 C351 1.848 . S
C756 C228 1.587 . S
C761 C312 1.559 . S
