# Generated by pormake.
# Topology rtl, (3,6)-cn, num edge types: 1
# Building blocks:
#     Node 0, Type 0, BuildingBlock: BELTOD_clean_linker_0, # of connection points: 3
#     Node 1, Type 0, BuildingBlock: BELTOD_clean_linker_0, # of connection points: 3
#     Node 2, Type 0, BuildingBlock: BELTOD_clean_linker_0, # of connection points: 3
#     Node 3, Type 0, BuildingBlock: BELTOD_clean_linker_0, # of connection points: 3
#     Node 4, Type 1, BuildingBlock: FUNLAD_clean_sbu_0, # of connection points: 6
#     Node 5, Type 1, BuildingBlock: FUNLAD_clean_sbu_0, # of connection points: 6
#     Edge 6, Type (0, 1), BuildingBlock: FUNLAD_clean_linker_0, # of connection points: 2
#     Edge 7, Type (0, 1), BuildingBlock: FUNLAD_clean_linker_0, # of connection points: 2
#     Edge 8, Type (0, 1), BuildingBlock: FUNLAD_clean_linker_0, # of connection points: 2
#     Edge 9, Type (0, 1), BuildingBlock: FUNLAD_clean_linker_0, # of connection points: 2
#     Edge 10, Type (0, 1), BuildingBlock: FUNLAD_clean_linker_0, # of connection points: 2
#     Edge 11, Type (0, 1), BuildingBlock: FUNLAD_clean_linker_0, # of connection points: 2
#     Edge 12, Type (0, 1), BuildingBlock: FUNLAD_clean_linker_0, # of connection points: 2
#     Edge 13, Type (0, 1), BuildingBlock: FUNLAD_clean_linker_0, # of connection points: 2
#     Edge 14, Type (0, 1), BuildingBlock: FUNLAD_clean_linker_0, # of connection points: 2
#     Edge 15, Type (0, 1), BuildingBlock: FUNLAD_clean_linker_0, # of connection points: 2
#     Edge 16, Type (0, 1), BuildingBlock: FUNLAD_clean_linker_0, # of connection points: 2
#     Edge 17, Type (0, 1), BuildingBlock: FUNLAD_clean_linker_0, # of connection points: 2
# Relax obj value: 0.023
# Max RMSD: 0.082
# Mean RMSD: 0.071
data_MOF--net-rtl--node1-FUNLAD_clean_sbu_0--node2-BELTOD_clean_linker_0--edge1-FUNLAD_clean_linker_0
_symmetry_space_group_name_H-M    P1
_symmetry_Int_Tables_number       1
_symmetry_cell_setting            triclinic
loop_
_symmetry_equiv_pos_as_xyz
'x, y, z'
_cell_length_a     51.783992
_cell_length_b     42.778877
_cell_length_c     29.819468
_cell_angle_alpha  89.101639
_cell_angle_beta   90.913953
_cell_angle_gamma 90.654565
loop_
_atom_site_label
_atom_site_type_symbol
_atom_site_fract_x
_atom_site_fract_y
_atom_site_fract_z
_atom_type_partial_charge
P0 P 0.15063 0.80106 0.02944 0.0
H1 H 0.15964 0.81299 0.12408 0.0
H2 H 0.13052 0.82052 0.18636 0.0
H3 H 0.06543 0.79631 0.10065 0.0
H4 H 0.09482 0.78919 0.0382 0.0
H5 H 0.19224 0.78285 0.97224 0.0
H6 H 0.21944 0.73673 0.97063 0.0
H7 H 0.17413 0.69369 0.07584 0.0
H8 H 0.1472 0.7403 0.07766 0.0
H9 H 0.12586 0.85805 -0.00031 0.0
H10 H 0.13591 0.76525 0.94872 0.0
O11 O 0.17265 0.82933 0.03713 0.0
H12 H 0.10277 0.87318 0.93086 0.0
H13 H 0.11272 0.78023 0.87955 0.0
C14 C 0.1293 0.80134 0.0764 0.0
C15 C 0.13913 0.80894 0.11886 0.0
C16 C 0.12244 0.81298 0.15454 0.0
C17 C 0.09558 0.80931 0.14837 0.0
C18 C 0.08597 0.79983 0.10626 0.0
C19 C 0.10274 0.79571 0.07059 0.0
C20 C 0.16789 0.76504 0.02521 0.0
C21 C 0.18798 0.7633 0.99455 0.0
C22 C 0.2034 0.7368 0.99348 0.0
C23 C 0.19899 0.7115 0.02319 0.0
C24 C 0.17819 0.71293 0.05289 0.0
C25 C 0.16272 0.73951 0.05385 0.0
C26 C 0.13295 0.81077 0.97891 0.0
C27 C 0.12301 0.84092 0.97364 0.0
C28 C 0.10963 0.84943 0.93447 0.0
C29 C 0.10594 0.82788 0.89978 0.0
C30 C 0.11552 0.79741 0.90554 0.0
C31 C 0.12878 0.78884 0.94502 0.0
P32 P 0.64862 0.72538 0.51103 0.0
H33 H 0.66841 0.70784 0.4244 0.0
H34 H 0.64785 0.6852 0.35809 0.0
H35 H 0.57312 0.69455 0.41866 0.0
H36 H 0.59379 0.71808 0.48439 0.0
H37 H 0.65291 0.7706 0.58374 0.0
H38 H 0.67434 0.82139 0.58773 0.0
H39 H 0.68773 0.81908 0.44504 0.0
H40 H 0.66482 0.76931 0.441 0.0
H41 H 0.65031 0.66858 0.56529 0.0
H42 H 0.60477 0.75234 0.55864 0.0
O43 O 0.67675 0.70674 0.51406 0.0
H44 H 0.62537 0.64948 0.6287 0.0
H45 H 0.57967 0.73339 0.62309 0.0
C46 C 0.6327 0.71393 0.45973 0.0
C47 C 0.64757 0.70544 0.42316 0.0
C48 C 0.63579 0.69236 0.38536 0.0
C49 C 0.6089 0.68747 0.38353 0.0
C50 C 0.59387 0.69799 0.41904 0.0
C51 C 0.60571 0.71124 0.45684 0.0
C52 C 0.65674 0.76634 0.51189 0.0
C53 C 0.65933 0.78168 0.55294 0.0
C54 C 0.67204 0.8106 0.55529 0.0
C55 C 0.68323 0.82423 0.51686 0.0
C56 C 0.67915 0.80964 0.4753 0.0
C57 C 0.66605 0.78097 0.47292 0.0
C58 C 0.62989 0.71227 0.55818 0.0
C59 C 0.63512 0.68308 0.57788 0.0
C60 C 0.62086 0.67219 0.61422 0.0
C61 C 0.60086 0.69019 0.6314 0.0
C62 C 0.59504 0.71907 0.61066 0.0
C63 C 0.60946 0.73002 0.57416 0.0
P64 P 0.90421 0.28913 0.99632 0.0
H65 H 0.92458 0.30562 0.90809 0.0
H66 H 0.93128 0.27521 0.84048 0.0
H67 H 0.90131 0.19278 0.90829 0.0
H68 H 0.89427 0.22339 0.97524 0.0
H69 H 0.88035 0.33561 0.05158 0.0
H70 H 0.83611 0.35453 0.05654 0.0
H71 H 0.81278 0.29387 0.94825 0.0
H72 H 0.85681 0.27465 0.9442 0.0
H73 H 0.95086 0.27449 0.04821 0.0
H74 H 0.87 0.24938 0.05064 0.0
O75 O 0.92497 0.31925 0.99723 0.0
H76 H 0.95909 0.23951 0.11246 0.0
H77 H 0.87799 0.2147 0.11513 0.0
C78 C 0.90947 0.2666 0.94694 0.0
C79 C 0.91959 0.28097 0.90841 0.0
C80 C 0.92345 0.26355 0.86985 0.0
C81 C 0.91696 0.23154 0.86911 0.0
C82 C 0.90633 0.21743 0.90764 0.0
C83 C 0.90255 0.23485 0.94614 0.0
C84 C 0.87194 0.30412 0.99716 0.0
C85 C 0.86571 0.32663 0.02868 0.0
C86 C 0.84045 0.33745 0.03139 0.0
C87 C 0.82092 0.32578 0.00267 0.0
C88 C 0.8273 0.30311 0.97114 0.0
C89 C 0.85258 0.2923 0.96852 0.0
C90 C 0.90978 0.26497 0.04531 0.0
C91 C 0.93484 0.26178 0.06299 0.0
C92 C 0.93949 0.24183 0.09972 0.0
C93 C 0.91916 0.22445 0.11897 0.0
C94 C 0.89407 0.22762 0.10088 0.0
C95 C 0.88944 0.24767 0.06429 0.0
P96 P 0.4129 0.2081 0.51049 0.0
H97 H 0.42859 0.19671 0.60375 0.0
H98 H 0.43354 0.23108 0.66822 0.0
H99 H 0.41116 0.31 0.58464 0.0
H100 H 0.40585 0.27541 0.52068 0.0
H101 H 0.38885 0.14572 0.50977 0.0
H102 H 0.3438 0.12809 0.5097 0.0
H103 H 0.31908 0.22429 0.50856 0.0
H104 H 0.36419 0.24167 0.50941 0.0
H105 H 0.45759 0.24564 0.48509 0.0
H106 H 0.38627 0.21463 0.42266 0.0
O107 O 0.43253 0.17762 0.51667 0.0
H108 H 0.46861 0.27487 0.41678 0.0
H109 H 0.39725 0.24351 0.35422 0.0
C110 C 0.41744 0.23366 0.55731 0.0
C111 C 0.42495 0.22146 0.5993 0.0
C112 C 0.4278 0.24113 0.63607 0.0
C113 C 0.42289 0.27332 0.63149 0.0
C114 C 0.41491 0.28531 0.58939 0.0
C115 C 0.41211 0.26561 0.55268 0.0
C116 C 0.37981 0.19498 0.51002 0.0
C117 C 0.37374 0.163 0.50963 0.0
C118 C 0.34796 0.15296 0.5093 0.0
C119 C 0.32784 0.17479 0.50924 0.0
C120 C 0.3341 0.20687 0.50933 0.0
C121 C 0.35987 0.21685 0.50968 0.0
C122 C 0.42094 0.22847 0.45926 0.0
C123 C 0.44434 0.24508 0.45663 0.0
C124 C 0.45067 0.26161 0.41749 0.0
C125 C 0.43372 0.26164 0.38016 0.0
C126 C 0.4105 0.24438 0.38266 0.0
C127 C 0.40422 0.22779 0.42182 0.0
C128 C 0.01268 0.96624 0.44681 0.0
N129 N 0.05584 0.03777 0.50682 0.0
C130 C 0.07568 0.0172 0.50933 0.0
C131 C 0.1012 0.02794 0.5085 0.0
C132 C 0.10641 0.06017 0.5051 0.0
C133 C 0.08556 0.08089 0.5028 0.0
C134 C 0.0603 0.06912 0.50367 0.0
Zn135 Zn 0.01884 0.02081 0.50732 0.0
C136 C 0.98586 0.05134 0.43707 0.0
N137 N 0.94185 0.98432 0.50765 0.0
C138 C 0.93822 0.95287 0.51148 0.0
C139 C 0.92148 0.00417 0.50634 0.0
C140 C 0.89625 0.99253 0.50985 0.0
C141 C 0.892 0.9602 0.51494 0.0
C142 C 0.91338 0.94027 0.51515 0.0
Zn143 Zn 0.97875 0.0016 0.50669 0.0
O144 O 0.02885 0.98628 0.46149 0.0
C145 C 0.01198 0.97121 0.57697 0.0
O146 O 0.98939 0.96711 0.45964 0.0
H147 H 0.92482 0.02911 0.50338 0.0
H148 H 0.07172 0.99237 0.51197 0.0
H149 H 0.95467 0.93751 0.51234 0.0
O150 O 0.02855 0.99024 0.56092 0.0
O151 O 0.98916 0.97087 0.56063 0.0
H152 H 0.04423 0.08504 0.50159 0.0
O153 O 0.96884 0.03618 0.55377 0.0
O154 O 0.0084 0.05507 0.55357 0.0
O155 O 0.96893 0.03267 0.45302 0.0
O156 O 0.00864 0.05116 0.45353 0.0
C157 C 0.98545 0.05598 0.56787 0.0
H158 H 0.11669 0.01117 0.51099 0.0
H159 H 0.08871 0.10589 0.49969 0.0
H160 H 0.88032 0.00873 0.50985 0.0
H161 H 0.91096 0.91515 0.51824 0.0
C162 C 0.48351 0.45259 0.93977 0.0
N163 N 0.55269 0.46553 0.01185 0.0
C164 C 0.55643 0.43414 0.01027 0.0
C165 C 0.58144 0.42221 0.01003 0.0
C166 C 0.60276 0.44281 0.01131 0.0
C167 C 0.59827 0.47505 0.01352 0.0
C168 C 0.573 0.48594 0.01376 0.0
Zn169 Zn 0.51616 0.48306 0.00968 0.0
C170 C 0.51275 0.53719 0.94542 0.0
N171 N 0.44046 0.5214 0.00359 0.0
C172 C 0.41948 0.50201 0.00122 0.0
C173 C 0.43778 0.55294 0.00539 0.0
C174 C 0.41328 0.56613 0.00538 0.0
C175 C 0.39125 0.54671 0.0034 0.0
C176 C 0.39456 0.51424 0.00095 0.0
Zn177 Zn 0.4768 0.50334 0.0058 0.0
O178 O 0.50593 0.45249 0.95766 0.0
C179 C 0.48073 0.44942 0.07084 0.0
O180 O 0.46685 0.47175 0.95344 0.0
H181 H 0.45471 0.56794 0.00707 0.0
H182 H 0.54 0.41834 0.00866 0.0
H183 H 0.42206 0.47699 -6e-05 0.0
O184 O 0.50392 0.44959 0.05753 0.0
O185 O 0.46503 0.46946 0.05469 0.0
H186 H 0.56963 0.51081 0.01513 0.0
O187 O 0.48754 0.5347 0.0583 0.0
O188 O 0.526 0.5138 0.06135 0.0
O189 O 0.48923 0.537 0.957 0.0
O190 O 0.52797 0.51695 0.96222 0.0
C191 C 0.51017 0.53371 0.07541 0.0
H192 H 0.58403 0.3972 0.00789 0.0
H193 H 0.61414 0.49173 0.01525 0.0
H194 H 0.41161 0.59132 0.00659 0.0
H195 H 0.37809 0.49843 -0.00028 0.0
C196 C 0.29225 0.13911 0.48227 0.0
C197 C 0.30045 0.16415 0.50913 0.0
C198 C 0.2665 0.12899 0.48229 0.0
C199 C 0.24839 0.14359 0.50951 0.0
C200 C 0.25651 0.16892 0.53575 0.0
C201 C 0.28226 0.17903 0.53575 0.0
C202 C 0.2208 0.13365 0.51065 0.0
C203 C 0.21257 0.10452 0.50075 0.0
C204 C 0.18507 0.09421 0.50209 0.0
C205 C 0.17757 0.06752 0.47815 0.0
C206 C 0.15207 0.0566 0.47889 0.0
C207 C 0.13345 0.07203 0.5039 0.0
H208 H 0.17148 0.12953 0.54769 0.0
C209 C 0.14092 0.09863 0.52815 0.0
C210 C 0.16646 0.10955 0.52746 0.0
H211 H 0.12714 0.11065 0.54848 0.0
H212 H 0.30567 0.12764 0.46059 0.0
H213 H 0.2609 0.11017 0.46024 0.0
H214 H 0.24295 0.18073 0.55679 0.0
H215 H 0.28798 0.19823 0.55711 0.0
H216 H 0.20706 0.15102 0.52084 0.0
H217 H 0.22645 0.08723 0.49081 0.0
H218 H 0.19148 0.05513 0.45852 0.0
H219 H 0.14688 0.03621 0.45949 0.0
C220 C 0.22788 0.6733 0.98582 0.0
C221 C 0.2173 0.685 0.02522 0.0
C222 C 0.24764 0.65132 0.98799 0.0
C223 C 0.25716 0.64033 0.02979 0.0
C224 C 0.24581 0.65108 0.06905 0.0
C225 C 0.22608 0.67308 0.06685 0.0
C226 C 0.28044 0.62037 0.03416 0.0
C227 C 0.29045 0.60418 0.00026 0.0
C228 C 0.31582 0.58831 0.00378 0.0
C229 C 0.321 0.56364 0.97485 0.0
C230 C 0.3453 0.54966 0.97526 0.0
C231 C 0.36505 0.5604 0.00422 0.0
H232 H 0.3327 0.6184 0.0549 0.0
C233 C 0.35982 0.58495 0.03334 0.0
C234 C 0.33555 0.59883 0.03306 0.0
H235 H 0.37457 0.59361 0.05627 0.0
H236 H 0.22136 0.6818 0.9532 0.0
H237 H 0.25603 0.64425 0.95684 0.0
H238 H 0.25282 0.64322 0.1017 0.0
H239 H 0.21861 0.68186 0.09789 0.0
H240 H 0.28997 0.61951 0.06686 0.0
H241 H 0.27991 0.60234 0.96866 0.0
H242 H 0.30628 0.55535 0.95156 0.0
H243 H 0.34883 0.53101 0.95206 0.0
C244 C 0.71942 0.85158 0.55769 0.0
C245 C 0.70209 0.85064 0.5209 0.0
C246 C 0.73996 0.87293 0.55844 0.0
C247 C 0.74402 0.89355 0.52198 0.0
C248 C 0.72569 0.89432 0.48681 0.0
C249 C 0.70495 0.87303 0.48617 0.0
C250 C 0.76782 0.91322 0.51873 0.0
C251 C 0.79058 0.9038 0.53663 0.0
C252 C 0.81577 0.92048 0.53161 0.0
C253 C 0.83677 0.90993 0.55786 0.0
C254 C 0.86132 0.92311 0.55281 0.0
C255 C 0.86557 0.94719 0.52117 0.0
H256 H 0.80448 0.95364 0.47885 0.0
C257 C 0.84454 0.95829 0.49536 0.0
C258 C 0.81988 0.94503 0.50037 0.0
H259 H 0.84728 0.97665 0.47041 0.0
H260 H 0.71805 0.83474 0.58505 0.0
H261 H 0.75299 0.87257 0.58717 0.0
H262 H 0.72806 0.91042 0.45873 0.0
H263 H 0.69165 0.87348 0.45779 0.0
H264 H 0.7667 0.93454 0.49872 0.0
H265 H 0.79122 0.88177 0.55519 0.0
H266 H 0.83427 0.89113 0.58224 0.0
H267 H 0.877 0.9144 0.5738 0.0
C268 C 0.78907 0.36886 0.01239 0.0
C269 C 0.79399 0.33704 0.00581 0.0
C270 C 0.76375 0.37948 0.01533 0.0
C271 C 0.74272 0.35848 0.01136 0.0
C272 C 0.74768 0.32663 0.0055 0.0
C273 C 0.77301 0.31602 0.00256 0.0
C274 C 0.71547 0.36875 0.01431 0.0
C275 C 0.70789 0.39815 0.00457 0.0
C276 C 0.68064 0.40856 0.00661 0.0
C277 C 0.67342 0.43545 0.98216 0.0
C278 C 0.64816 0.44643 0.98351 0.0
C279 C 0.62954 0.43088 0.00969 0.0
H280 H 0.66698 0.3729 0.0537 0.0
C281 C 0.63675 0.40407 0.03446 0.0
C282 C 0.66205 0.39308 0.03314 0.0
H283 H 0.62297 0.39192 0.0556 0.0
H284 H 0.8048 0.38568 0.01492 0.0
H285 H 0.76087 0.40405 0.02133 0.0
H286 H 0.73189 0.30988 0.00291 0.0
H287 H 0.77615 0.29126 -0.00169 0.0
H288 H 0.70113 0.35095 0.02248 0.0
H289 H 0.72193 0.41514 0.99235 0.0
H290 H 0.68733 0.44794 0.96163 0.0
H291 H 0.64317 0.46696 0.96364 0.0
C292 C 0.08395 0.81129 0.22972 0.0
C293 C 0.07783 0.81818 0.18457 0.0
C294 C 0.06964 0.8241 0.26409 0.0
C295 C 0.04898 0.84424 0.25398 0.0
C296 C 0.04159 0.84909 0.20897 0.0
C297 C 0.05594 0.83634 0.17456 0.0
C298 C 0.03607 0.86229 0.28921 0.0
C299 C 0.04916 0.87285 0.32543 0.0
C300 C 0.0388 0.89595 0.3569 0.0
C301 C 0.05644 0.91534 0.37972 0.0
C302 C 0.04786 0.93816 0.40861 0.0
C303 C 0.02134 0.94188 0.41595 0.0
H304 H 0.99808 0.88424 0.34837 0.0
C305 C 0.00358 0.92203 0.39396 0.0
C306 C 0.01221 0.89929 0.36456 0.0
H307 H 0.98303 0.92417 0.39925 0.0
H308 H 0.10028 0.7967 0.23851 0.0
H309 H 0.07521 0.81884 0.29851 0.0
H310 H 0.02559 0.86425 0.20029 0.0
H311 H 0.05074 0.84222 0.14016 0.0
H312 H 0.01661 0.87042 0.28217 0.0
H313 H 0.06943 0.86701 0.3297 0.0
H314 H 0.07702 0.91318 0.37466 0.0
H315 H 0.0621 0.95284 0.42532 0.0
C316 C 0.59991 0.66451 0.70713 0.0
C317 C 0.58647 0.67854 0.67102 0.0
C318 C 0.58664 0.651 0.74292 0.0
C319 C 0.55947 0.65151 0.74386 0.0
C320 C 0.54601 0.66613 0.70816 0.0
C321 C 0.55938 0.67971 0.67218 0.0
C322 C 0.54477 0.63464 0.77945 0.0
C323 C 0.55507 0.62779 0.82015 0.0
C324 C 0.54312 0.60565 0.85267 0.0
C325 C 0.55958 0.58837 0.88114 0.0
C326 C 0.54961 0.56613 0.91097 0.0
C327 C 0.52283 0.56105 0.91371 0.0
H328 H 0.50296 0.61446 0.83494 0.0
C329 C 0.50618 0.57898 0.8862 0.0
C330 C 0.51624 0.60101 0.85569 0.0
H331 H 0.48544 0.57572 0.88788 0.0
H332 H 0.62081 0.66345 0.70737 0.0
H333 H 0.59789 0.63914 0.76871 0.0
H334 H 0.52509 0.66655 0.70771 0.0
H335 H 0.54849 0.69013 0.64458 0.0
H336 H 0.52549 0.62625 0.77076 0.0
H337 H 0.57419 0.63662 0.82897 0.0
H338 H 0.58034 0.59159 0.87965 0.0
H339 H 0.56296 0.55297 0.93205 0.0
C340 C 0.94064 0.21169 0.1929 0.0
C341 C 0.9242 0.20273 0.15733 0.0
C342 C 0.94569 0.1911 0.22873 0.0
C343 C 0.93461 0.16087 0.22948 0.0
C344 C 0.91781 0.15219 0.1943 0.0
C345 C 0.9127 0.17282 0.15856 0.0
C346 C 0.93966 0.138 0.2666 0.0
C347 C 0.96085 0.13914 0.2934 0.0
C348 C 0.9665 0.11597 0.32989 0.0
C349 C 0.99197 0.11382 0.34641 0.0
C350 C 0.99825 0.09275 0.381 0.0
C351 C 0.97914 0.07336 0.40006 0.0
H352 H 0.92727 0.09829 0.33871 0.0
C353 C 0.95359 0.0756 0.38386 0.0
C354 C 0.94728 0.09677 0.34931 0.0
H355 H 0.93837 0.06122 0.39818 0.0
H356 H 0.94934 0.23484 0.19335 0.0
H357 H 0.95794 0.19926 0.25592 0.0
H358 H 0.90885 0.12917 0.19413 0.0
H359 H 0.90008 0.16514 0.13149 0.0
H360 H 0.92605 0.11868 0.27006 0.0
H361 H 0.97553 0.15692 0.28718 0.0
H362 H 0.00714 0.12845 0.33242 0.0
H363 H 0.01812 0.09172 0.3928 0.0
C364 C 0.44782 0.29116 0.69938 0.0
C365 C 0.42638 0.29439 0.67027 0.0
C366 C 0.45156 0.3115 0.73514 0.0
C367 C 0.43399 0.33571 0.74244 0.0
C368 C 0.41221 0.33839 0.71409 0.0
C369 C 0.4085 0.31809 0.67822 0.0
C370 C 0.43758 0.35817 0.77963 0.0
C371 C 0.46105 0.36614 0.79627 0.0
C372 C 0.46565 0.38845 0.83343 0.0
C373 C 0.49008 0.38874 0.8545 0.0
C374 C 0.49575 0.40943 0.88906 0.0
C375 C 0.47713 0.43057 0.90335 0.0
H376 H 0.42809 0.41097 0.83171 0.0
C377 C 0.45266 0.43049 0.88228 0.0
C378 C 0.44696 0.40972 0.84759 0.0
H379 H 0.43795 0.44663 0.89235 0.0
H380 H 0.46196 0.27318 0.69414 0.0
H381 H 0.4681 0.30789 0.75715 0.0
H382 H 0.39819 0.35654 0.71932 0.0
H383 H 0.39154 0.32084 0.65686 0.0
H384 H 0.42034 0.36876 0.7925 0.0
H385 H 0.47808 0.35574 0.78217 0.0
H386 H 0.50492 0.37279 0.84426 0.0
H387 H 0.51483 0.40885 0.90449 0.0
C388 C 0.57317 0.67745 0.32692 0.0
C389 C 0.59701 0.66909 0.34661 0.0
C390 C 0.56186 0.65912 0.2932 0.0
C391 C 0.57423 0.63198 0.27869 0.0
C392 C 0.59796 0.62372 0.29867 0.0
C393 C 0.60922 0.642 0.33207 0.0
C394 C 0.5634 0.6111 0.24351 0.0
C395 C 0.54372 0.61819 0.21515 0.0
C396 C 0.53525 0.59668 0.17893 0.0
C397 C 0.50944 0.59678 0.16366 0.0
C398 C 0.50109 0.57637 0.12998 0.0
C399 C 0.5185 0.55563 0.1108 0.0
H400 H 0.57304 0.57669 0.16794 0.0
C401 C 0.54443 0.55615 0.12535 0.0
C402 C 0.55275 0.57654 0.15869 0.0
H403 H 0.55849 0.54093 0.11073 0.0
H404 H 0.5633 0.6982 0.33748 0.0
H405 H 0.54339 0.66618 0.27933 0.0
H406 H 0.60791 0.60291 0.28847 0.0
H407 H 0.62731 0.63448 0.34719 0.0
H408 H 0.57266 0.58859 0.24056 0.0
H409 H 0.53334 0.63989 0.21825 0.0
H410 H 0.49566 0.61239 0.17822 0.0
H411 H 0.48102 0.57671 0.11918 0.0
C412 C 0.94466 0.2164 0.80483 0.0
C413 C 0.9216 0.21272 0.82866 0.0
C414 C 0.94956 0.19772 0.76797 0.0
C415 C 0.93151 0.17479 0.75425 0.0
C416 C 0.90813 0.17184 0.77718 0.0
C417 C 0.90326 0.19046 0.81411 0.0
C418 C 0.93629 0.15362 0.71627 0.0
C419 C 0.96016 0.14547 0.70375 0.0
C420 C 0.96548 0.12306 0.66746 0.0
C421 C 0.99038 0.12278 0.64951 0.0
C422 C 0.99675 0.10132 0.61677 0.0
C423 C 0.97836 0.07944 0.60134 0.0
H424 H 0.92781 0.09984 0.66552 0.0
C425 C 0.95338 0.07972 0.61906 0.0
C426 C 0.947 0.10119 0.65187 0.0
H427 H 0.93881 0.06301 0.6081 0.0
H428 H 0.95919 0.23333 0.8152 0.0
H429 H 0.96743 0.20153 0.7503 0.0
H430 H 0.89374 0.15467 0.76698 0.0
H431 H 0.8851 0.18745 0.83126 0.0
H432 H 0.91944 0.14371 0.6995 0.0
H433 H 0.97687 0.15533 0.7211 0.0
H434 H 0.00506 0.13917 0.66102 0.0
H435 H 0.01619 0.10174 0.60389 0.0
C436 C 0.42111 0.29787 0.3167 0.0
C437 C 0.4401 0.28003 0.3391 0.0
C438 C 0.42733 0.31611 0.27902 0.0
C439 C 0.45277 0.31699 0.26302 0.0
C440 C 0.47153 0.29846 0.28468 0.0
C441 C 0.46533 0.28032 0.32244 0.0
C442 C 0.46053 0.33666 0.22386 0.0
C443 C 0.44822 0.36302 0.21103 0.0
C444 C 0.4569 0.38394 0.17373 0.0
C445 C 0.4392 0.40509 0.1545 0.0
C446 C 0.44678 0.42609 0.12067 0.0
C447 C 0.47234 0.42653 0.10552 0.0
H448 H 0.49707 0.36936 0.17323 0.0
C449 C 0.49006 0.40537 0.12467 0.0
C450 C 0.48251 0.38441 0.1585 0.0
H451 H 0.50997 0.40526 0.11404 0.0
H452 H 0.4015 0.29817 0.32876 0.0
H453 H 0.41208 0.32921 0.26249 0.0
H454 H 0.49119 0.29839 0.27278 0.0
H455 H 0.4803 0.26642 0.3385 0.0
H456 H 0.47762 0.32953 0.20629 0.0
H457 H 0.43115 0.37006 0.22874 0.0
H458 H 0.41942 0.40547 0.16579 0.0
H459 H 0.43265 0.44215 0.10671 0.0
C460 C 0.07115 0.85676 0.85759 0.0
C461 C 0.09314 0.83784 0.85715 0.0
C462 C 0.06074 0.86903 0.81766 0.0
C463 C 0.07209 0.86253 0.7763 0.0
C464 C 0.0936 0.84284 0.77582 0.0
C465 C 0.10394 0.83046 0.81577 0.0
C466 C 0.06373 0.87829 0.73385 0.0
C467 C 0.0402 0.89083 0.72724 0.0
C468 C 0.03349 0.91019 0.68706 0.0
C469 C 0.00757 0.91222 0.67287 0.0
C470 C 0.00054 0.93165 0.63665 0.0
C471 C 0.01929 0.94985 0.6144 0.0
H472 H 0.07229 0.9282 0.67545 0.0
C473 C 0.04522 0.94787 0.62869 0.0
C474 C 0.05225 0.92831 0.66461 0.0
H475 H 0.06013 0.96168 0.6124 0.0
H476 H 0.06232 0.86268 0.88899 0.0
H477 H 0.04455 0.88467 0.81976 0.0
H478 H 0.10286 0.83766 0.7445 0.0
H479 H 0.12107 0.81624 0.81438 0.0
H480 H 0.07773 0.8798 0.70713 0.0
H481 H 0.02521 0.88678 0.75176 0.0
H482 H 0.99272 0.89879 0.68994 0.0
H483 H 0.98038 0.93275 0.62654 0.0
loop_
_geom_bond_atom_site_label_1
_geom_bond_atom_site_label_2
_geom_bond_distance
_geom_bond_site_symmetry_2
_ccdc_geom_bond_type
P0 O11 1.490 . S
P0 C14 1.812 . S
P0 C20 1.803 . S
P0 C26 1.819 1_554 S
H1 C15 0.941 . S
H2 C16 0.939 . S
H3 C18 0.940 . S
H4 C19 0.940 . S
H5 C21 0.939 1_556 S
H6 C22 0.942 1_556 S
H7 C24 0.940 . S
H8 C25 0.939 . S
H9 C27 0.941 . S
H10 C31 0.939 . S
O11 P0 1.490 . S
H12 C28 0.939 . S
H13 C30 0.940 . S
C14 P0 1.812 . S
C14 C15 1.389 . S
C14 C19 1.391 . S
C15 H1 0.941 . S
C15 C14 1.389 . S
C15 C16 1.397 . S
C16 H2 0.939 . S
C16 C15 1.397 . S
C16 C17 1.378 . S
C17 C16 1.378 . S
C17 C18 1.378 . S
C18 H3 0.940 . S
C18 C17 1.378 . S
C18 C19 1.396 . S
C19 H4 0.940 . S
C19 C14 1.391 . S
C19 C18 1.396 . S
C20 P0 1.803 . S
C20 C21 1.378 . S
C20 C25 1.400 . S
C21 H5 0.939 1_554 S
C21 C20 1.378 . S
C21 C22 1.361 . S
C22 H6 0.942 1_554 S
C22 C21 1.361 . S
C22 C23 1.369 . S
C23 C22 1.369 . S
C23 C24 1.404 . S
C24 H7 0.940 . S
C24 C23 1.404 . S
C24 C25 1.389 . S
C25 H8 0.939 . S
C25 C20 1.400 . S
C25 C24 1.389 . S
C26 P0 1.819 1_556 S
C26 C27 1.391 . S
C26 C31 1.391 . S
C27 H9 0.941 . S
C27 C26 1.391 . S
C27 C28 1.396 . S
C28 H12 0.939 . S
C28 C27 1.396 . S
C28 C29 1.397 . S
C29 C28 1.397 . S
C29 C30 1.385 . S
C30 H13 0.940 . S
C30 C29 1.385 . S
C30 C31 1.388 . S
C31 H10 0.939 . S
C31 C26 1.391 . S
C31 C30 1.388 . S
P32 O43 1.490 . S
P32 C46 1.812 . S
P32 C52 1.803 . S
P32 C58 1.819 . S
H33 C47 0.941 . S
H34 C48 0.939 . S
H35 C50 0.940 . S
H36 C51 0.940 . S
H37 C53 0.939 . S
H38 C54 0.942 . S
H39 C56 0.940 . S
H40 C57 0.939 . S
H41 C59 0.941 . S
H42 C63 0.939 . S
O43 P32 1.490 . S
H44 C60 0.939 . S
H45 C62 0.940 . S
C46 P32 1.812 . S
C46 C47 1.389 . S
C46 C51 1.391 . S
C47 H33 0.941 . S
C47 C46 1.389 . S
C47 C48 1.397 . S
C48 H34 0.939 . S
C48 C47 1.397 . S
C48 C49 1.378 . S
C49 C48 1.378 . S
C49 C50 1.378 . S
C50 H35 0.940 . S
C50 C49 1.378 . S
C50 C51 1.396 . S
C51 H36 0.940 . S
C51 C46 1.391 . S
C51 C50 1.396 . S
C52 P32 1.803 . S
C52 C53 1.378 . S
C52 C57 1.400 . S
C53 H37 0.939 . S
C53 C52 1.378 . S
C53 C54 1.361 . S
C54 H38 0.942 . S
C54 C53 1.361 . S
C54 C55 1.369 . S
C55 C54 1.369 . S
C55 C56 1.404 . S
C56 H39 0.940 . S
C56 C55 1.404 . S
C56 C57 1.389 . S
C57 H40 0.939 . S
C57 C52 1.400 . S
C57 C56 1.389 . S
C58 P32 1.819 . S
C58 C59 1.391 . S
C58 C63 1.391 . S
C59 H41 0.941 . S
C59 C58 1.391 . S
C59 C60 1.396 . S
C60 H44 0.939 . S
C60 C59 1.396 . S
C60 C61 1.397 . S
C61 C60 1.397 . S
C61 C62 1.385 . S
C62 H45 0.940 . S
C62 C61 1.385 . S
C62 C63 1.388 . S
C63 H42 0.939 . S
C63 C58 1.391 . S
C63 C62 1.388 . S
P64 O75 1.490 . S
P64 C78 1.812 1_554 S
P64 C84 1.803 . S
P64 C90 1.819 . S
H65 C79 0.941 . S
H66 C80 0.939 . S
H67 C82 0.940 . S
H68 C83 0.940 . S
H69 C85 0.939 . S
H70 C86 0.942 . S
H71 C88 0.940 . S
H72 C89 0.939 . S
H73 C91 0.941 . S
H74 C95 0.939 . S
O75 P64 1.490 . S
H76 C92 0.939 . S
H77 C94 0.940 . S
C78 P64 1.812 1_556 S
C78 C79 1.389 . S
C78 C83 1.391 . S
C79 H65 0.941 . S
C79 C78 1.389 . S
C79 C80 1.397 . S
C80 H66 0.939 . S
C80 C79 1.397 . S
C80 C81 1.378 . S
C81 C80 1.378 . S
C81 C82 1.378 . S
C82 H67 0.940 . S
C82 C81 1.378 . S
C82 C83 1.396 . S
C83 H68 0.940 . S
C83 C78 1.391 . S
C83 C82 1.396 . S
C84 P64 1.803 . S
C84 C85 1.378 . S
C84 C89 1.400 1_554 S
C85 H69 0.939 . S
C85 C84 1.378 . S
C85 C86 1.361 . S
C86 H70 0.942 . S
C86 C85 1.361 . S
C86 C87 1.369 . S
C87 C86 1.369 . S
C87 C88 1.404 1_554 S
C88 H71 0.940 . S
C88 C87 1.404 1_556 S
C88 C89 1.389 . S
C89 H72 0.939 . S
C89 C84 1.400 1_556 S
C89 C88 1.389 . S
C90 P64 1.819 . S
C90 C91 1.391 . S
C90 C95 1.391 . S
C91 H73 0.941 . S
C91 C90 1.391 . S
C91 C92 1.396 . S
C92 H76 0.939 . S
C92 C91 1.396 . S
C92 C93 1.397 . S
C93 C92 1.397 . S
C93 C94 1.385 . S
C94 H77 0.940 . S
C94 C93 1.385 . S
C94 C95 1.388 . S
C95 H74 0.939 . S
C95 C90 1.391 . S
C95 C94 1.388 . S
P96 O107 1.490 . S
P96 C110 1.812 . S
P96 C116 1.803 . S
P96 C122 1.819 . S
H97 C111 0.941 . S
H98 C112 0.939 . S
H99 C114 0.940 . S
H100 C115 0.940 . S
H101 C117 0.939 . S
H102 C118 0.942 . S
H103 C120 0.940 . S
H104 C121 0.939 . S
H105 C123 0.941 . S
H106 C127 0.939 . S
O107 P96 1.490 . S
H108 C124 0.939 . S
H109 C126 0.940 . S
C110 P96 1.812 . S
C110 C111 1.389 . S
C110 C115 1.391 . S
C111 H97 0.941 . S
C111 C110 1.389 . S
C111 C112 1.397 . S
C112 H98 0.939 . S
C112 C111 1.397 . S
C112 C113 1.378 . S
C113 C112 1.378 . S
C113 C114 1.378 . S
C114 H99 0.940 . S
C114 C113 1.378 . S
C114 C115 1.396 . S
C115 H100 0.940 . S
C115 C110 1.391 . S
C115 C114 1.396 . S
C116 P96 1.803 . S
C116 C117 1.378 . S
C116 C121 1.400 . S
C117 H101 0.939 . S
C117 C116 1.378 . S
C117 C118 1.361 . S
C118 H102 0.942 . S
C118 C117 1.361 . S
C118 C119 1.369 . S
C119 C118 1.369 . S
C119 C120 1.404 . S
C120 H103 0.940 . S
C120 C119 1.404 . S
C120 C121 1.389 . S
C121 H104 0.939 . S
C121 C116 1.400 . S
C121 C120 1.389 . S
C122 P96 1.819 . S
C122 C123 1.391 . S
C122 C127 1.391 . S
C123 H105 0.941 . S
C123 C122 1.391 . S
C123 C124 1.396 . S
C124 H108 0.939 . S
C124 C123 1.396 . S
C124 C125 1.397 . S
C125 C124 1.397 . S
C125 C126 1.385 . S
C126 H109 0.940 . S
C126 C125 1.385 . S
C126 C127 1.388 . S
C127 H106 0.939 . S
C127 C122 1.391 . S
C127 C126 1.388 . S
C128 O144 1.251 . S
C128 O146 1.254 1_455 S
N129 C130 1.333 . S
N129 C134 1.307 . S
N129 Zn135 2.020 . S
C130 N129 1.333 . S
C130 C131 1.379 . S
C130 H148 0.952 . S
C131 C130 1.379 . S
C131 C132 1.390 . S
C131 H158 0.949 . S
C132 C131 1.390 . S
C132 C133 1.357 . S
C133 C132 1.357 . S
C133 C134 1.370 . S
C133 H159 0.950 . S
C134 N129 1.307 . S
C134 C133 1.370 . S
C134 H152 0.948 . S
Zn135 N129 2.020 . S
Zn135 O144 2.039 1_545 S
Zn135 O150 2.034 1_545 S
Zn135 O154 2.025 . S
Zn135 O156 2.024 . S
C136 O155 1.246 . S
C136 O156 1.249 1_655 S
N137 C138 1.307 . S
N137 C139 1.333 . S
N137 Zn143 2.020 . S
C138 N137 1.307 . S
C138 C142 1.370 . S
C138 H149 0.948 . S
C139 N137 1.333 . S
C139 C140 1.379 . S
C139 H147 0.952 . S
C140 C139 1.379 . S
C140 C141 1.390 . S
C140 H160 0.949 . S
C141 C140 1.390 . S
C141 C142 1.357 . S
C142 C138 1.370 . S
C142 C141 1.357 . S
C142 H161 0.950 . S
Zn143 N137 2.020 . S
Zn143 O146 2.025 . S
Zn143 O151 2.024 . S
Zn143 O153 2.039 1_565 S
Zn143 O155 2.034 1_565 S
O144 C128 1.251 . S
O144 Zn135 2.039 1_565 S
C145 O150 1.246 . S
C145 O151 1.249 1_455 S
O146 C128 1.254 1_655 S
O146 Zn143 2.025 . S
H147 C139 0.952 . S
H148 C130 0.952 . S
H149 C138 0.948 . S
O150 Zn135 2.034 1_565 S
O150 C145 1.246 . S
O151 Zn143 2.024 . S
O151 C145 1.249 1_655 S
H152 C134 0.948 . S
O153 Zn143 2.039 1_545 S
O153 C157 1.251 . S
O154 Zn135 2.025 . S
O154 C157 1.254 1_455 S
O155 C136 1.246 . S
O155 Zn143 2.034 1_545 S
O156 Zn135 2.024 . S
O156 C136 1.249 1_455 S
C157 O153 1.251 . S
C157 O154 1.254 1_655 S
H158 C131 0.949 . S
H159 C133 0.950 . S
H160 C140 0.949 . S
H161 C142 0.950 . S
C162 O178 1.251 . S
C162 O180 1.254 . S
N163 C164 1.335 . S
N163 C168 1.307 . S
N163 Zn169 2.020 . S
C164 N163 1.335 . S
C164 C165 1.379 1_554 S
C164 H182 0.949 1_554 S
C165 C164 1.379 1_556 S
C165 C166 1.385 1_556 S
C165 H192 0.955 . S
C166 C165 1.385 1_554 S
C166 C167 1.357 . S
C167 C166 1.357 . S
C167 C168 1.370 . S
C167 H193 0.950 . S
C168 N163 1.307 . S
C168 C167 1.370 . S
C168 H186 0.948 . S
Zn169 N163 2.020 . S
Zn169 O178 2.039 1_554 S
Zn169 O184 2.034 . S
Zn169 O188 2.025 . S
Zn169 O190 2.024 1_554 S
C170 O189 1.246 . S
C170 O190 1.249 . S
N171 C172 1.311 . S
N171 C173 1.333 . S
N171 Zn177 2.020 . S
C172 N171 1.311 . S
C172 C176 1.371 . S
C172 H183 0.944 1_554 S
C173 N171 1.333 . S
C173 C174 1.379 . S
C173 H181 0.952 . S
C174 C173 1.379 . S
C174 C175 1.390 . S
C174 H194 0.949 . S
C175 C174 1.390 . S
C175 C176 1.357 . S
C176 C172 1.371 . S
C176 C175 1.357 . S
C176 H195 0.950 1_554 S
Zn177 N171 2.020 . S
Zn177 O180 2.025 1_554 S
Zn177 O185 2.024 . S
Zn177 O187 2.039 . S
Zn177 O189 2.034 1_554 S
O178 C162 1.251 . S
O178 Zn169 2.039 1_556 S
C179 O184 1.246 . S
C179 O185 1.249 . S
O180 C162 1.254 . S
O180 Zn177 2.025 1_556 S
H181 C173 0.952 . S
H182 C164 0.949 1_556 S
H183 C172 0.944 1_556 S
O184 Zn169 2.034 . S
O184 C179 1.246 . S
O185 Zn177 2.024 . S
O185 C179 1.249 . S
H186 C168 0.948 . S
O187 Zn177 2.039 . S
O187 C191 1.251 . S
O188 Zn169 2.025 . S
O188 C191 1.254 . S
O189 C170 1.246 . S
O189 Zn177 2.034 1_556 S
O190 Zn169 2.024 1_556 S
O190 C170 1.249 . S
C191 O187 1.251 . S
C191 O188 1.254 . S
H192 C165 0.955 . S
H193 C167 0.950 . S
H194 C174 0.949 . S
H195 C176 0.950 1_556 S
C196 C197 1.386 . S
C196 C198 1.383 . S
C196 H212 0.951 . S
C197 C196 1.386 . S
C197 C201 1.383 . S
C198 C196 1.383 . S
C198 C199 1.402 . S
C198 H213 0.951 . S
C199 C198 1.402 . S
C199 C200 1.375 . S
C199 C202 1.481 . S
C200 C199 1.375 . S
C200 C201 1.367 . S
C200 H214 0.951 . S
C201 C197 1.383 . S
C201 C200 1.367 . S
C201 H215 0.950 . S
C202 C199 1.481 . S
C202 C203 1.297 . S
C202 H216 0.950 . S
C203 C202 1.297 . S
C203 C204 1.479 . S
C203 H217 0.950 . S
C204 C203 1.479 . S
C204 C205 1.375 . S
C204 C210 1.404 . S
C205 C204 1.375 . S
C205 C206 1.369 . S
C205 H218 0.950 . S
C206 C205 1.369 . S
C206 C207 1.392 . S
C206 H219 0.951 . S
C207 C206 1.392 . S
C207 C209 1.384 . S
H208 C210 0.949 . S
C209 C207 1.384 . S
C209 C210 1.385 . S
C209 H211 0.950 . S
C210 C204 1.404 . S
C210 H208 0.949 . S
C210 C209 1.385 . S
H211 C209 0.950 . S
H212 C196 0.951 . S
H213 C198 0.951 . S
H214 C200 0.951 . S
H215 C201 0.950 . S
H216 C202 0.950 . S
H217 C203 0.950 . S
H218 C205 0.950 . S
H219 C206 0.951 . S
C220 C221 1.386 1_556 S
C220 C222 1.383 . S
C220 H236 0.951 . S
C221 C220 1.386 1_554 S
C221 C225 1.383 . S
C222 C220 1.383 . S
C222 C223 1.402 1_556 S
C222 H237 0.951 . S
C223 C222 1.402 1_554 S
C223 C224 1.375 . S
C223 C226 1.481 . S
C224 C223 1.375 . S
C224 C225 1.367 . S
C224 H238 0.951 . S
C225 C221 1.383 . S
C225 C224 1.367 . S
C225 H239 0.950 . S
C226 C223 1.481 . S
C226 C227 1.297 1_554 S
C226 H240 0.950 . S
C227 C226 1.297 1_556 S
C227 C228 1.479 . S
C227 H241 0.950 . S
C228 C227 1.479 . S
C228 C229 1.375 . S
C228 C234 1.404 1_556 S
C229 C228 1.375 . S
C229 C230 1.369 . S
C229 H242 0.950 . S
C230 C229 1.369 . S
C230 C231 1.392 1_556 S
C230 H243 0.951 . S
C231 C230 1.392 1_554 S
C231 C233 1.384 . S
H232 C234 0.949 . S
C233 C231 1.384 . S
C233 C234 1.385 . S
C233 H235 0.950 . S
C234 C228 1.404 1_554 S
C234 H232 0.949 . S
C234 C233 1.385 . S
H235 C233 0.950 . S
H236 C220 0.951 . S
H237 C222 0.951 . S
H238 C224 0.951 . S
H239 C225 0.950 . S
H240 C226 0.950 . S
H241 C227 0.950 . S
H242 C229 0.950 . S
H243 C230 0.951 . S
C244 C245 1.386 . S
C244 C246 1.383 . S
C244 H260 0.951 . S
C245 C244 1.386 . S
C245 C249 1.383 . S
C246 C244 1.383 . S
C246 C247 1.402 . S
C246 H261 0.951 . S
C247 C246 1.402 . S
C247 C248 1.375 . S
C247 C250 1.481 . S
C248 C247 1.375 . S
C248 C249 1.367 . S
C248 H262 0.951 . S
C249 C245 1.383 . S
C249 C248 1.367 . S
C249 H263 0.950 . S
C250 C247 1.481 . S
C250 C251 1.297 . S
C250 H264 0.950 . S
C251 C250 1.297 . S
C251 C252 1.479 . S
C251 H265 0.950 . S
C252 C251 1.479 . S
C252 C253 1.375 . S
C252 C258 1.404 . S
C253 C252 1.375 . S
C253 C254 1.369 . S
C253 H266 0.950 . S
C254 C253 1.369 . S
C254 C255 1.392 . S
C254 H267 0.951 . S
C255 C254 1.392 . S
C255 C257 1.384 . S
H256 C258 0.949 . S
C257 C255 1.384 . S
C257 C258 1.385 . S
C257 H259 0.950 . S
C258 C252 1.404 . S
C258 H256 0.949 . S
C258 C257 1.385 . S
H259 C257 0.950 . S
H260 C244 0.951 . S
H261 C246 0.951 . S
H262 C248 0.951 . S
H263 C249 0.950 . S
H264 C250 0.950 . S
H265 C251 0.950 . S
H266 C253 0.950 . S
H267 C254 0.951 . S
C268 C269 1.386 . S
C268 C270 1.383 . S
C268 H284 0.951 . S
C269 C268 1.386 . S
C269 C273 1.383 1_554 S
C270 C268 1.383 . S
C270 C271 1.402 1_554 S
C270 H285 0.951 . S
C271 C270 1.402 1_556 S
C271 C272 1.375 . S
C271 C274 1.481 . S
C272 C271 1.375 . S
C272 C273 1.367 . S
C272 H286 0.951 . S
C273 C269 1.383 1_556 S
C273 C272 1.367 . S
C273 H287 0.950 . S
C274 C271 1.481 . S
C274 C275 1.297 . S
C274 H288 0.950 . S
C275 C274 1.297 . S
C275 C276 1.479 . S
C275 H289 0.950 . S
C276 C275 1.479 . S
C276 C277 1.375 1_556 S
C276 C282 1.404 . S
C277 C276 1.375 1_554 S
C277 C278 1.369 . S
C277 H290 0.950 . S
C278 C277 1.369 . S
C278 C279 1.392 . S
C278 H291 0.951 . S
C279 C278 1.392 . S
C279 C281 1.384 1_554 S
H280 C282 0.949 . S
C281 C279 1.384 1_556 S
C281 C282 1.385 . S
C281 H283 0.950 . S
C282 C276 1.404 . S
C282 H280 0.949 . S
C282 C281 1.385 . S
H283 C281 0.950 . S
H284 C268 0.951 . S
H285 C270 0.951 . S
H286 C272 0.951 . S
H287 C273 0.950 . S
H288 C274 0.950 . S
H289 C275 0.950 . S
H290 C277 0.950 . S
H291 C278 0.951 . S
C292 C293 1.386 . S
C292 C294 1.383 . S
C292 H308 0.951 . S
C293 C292 1.386 . S
C293 C297 1.383 . S
C294 C292 1.383 . S
C294 C295 1.402 . S
C294 H309 0.951 . S
C295 C294 1.402 . S
C295 C296 1.375 . S
C295 C298 1.481 . S
C296 C295 1.375 . S
C296 C297 1.367 . S
C296 H310 0.951 . S
C297 C293 1.383 . S
C297 C296 1.367 . S
C297 H311 0.950 . S
C298 C295 1.481 . S
C298 C299 1.297 . S
C298 H312 0.950 . S
C299 C298 1.297 . S
C299 C300 1.479 . S
C299 H313 0.950 . S
C300 C299 1.479 . S
C300 C301 1.375 . S
C300 C306 1.404 . S
C301 C300 1.375 . S
C301 C302 1.369 . S
C301 H314 0.950 . S
C302 C301 1.369 . S
C302 C303 1.392 . S
C302 H315 0.951 . S
C303 C302 1.392 . S
C303 C305 1.384 . S
H304 C306 0.949 . S
C305 C303 1.384 . S
C305 C306 1.385 . S
C305 H307 0.950 1_455 S
C306 C300 1.404 . S
C306 H304 0.949 . S
C306 C305 1.385 . S
H307 C305 0.950 1_655 S
H308 C292 0.951 . S
H309 C294 0.951 . S
H310 C296 0.951 . S
H311 C297 0.950 . S
H312 C298 0.950 . S
H313 C299 0.950 . S
H314 C301 0.950 . S
H315 C302 0.951 . S
C316 C317 1.386 . S
C316 C318 1.383 . S
C316 H332 0.951 . S
C317 C316 1.386 . S
C317 C321 1.383 . S
C318 C316 1.383 . S
C318 C319 1.402 . S
C318 H333 0.951 . S
C319 C318 1.402 . S
C319 C320 1.375 . S
C319 C322 1.481 . S
C320 C319 1.375 . S
C320 C321 1.367 . S
C320 H334 0.951 . S
C321 C317 1.383 . S
C321 C320 1.367 . S
C321 H335 0.950 . S
C322 C319 1.481 . S
C322 C323 1.297 . S
C322 H336 0.950 . S
C323 C322 1.297 . S
C323 C324 1.479 . S
C323 H337 0.950 . S
C324 C323 1.479 . S
C324 C325 1.375 . S
C324 C330 1.404 . S
C325 C324 1.375 . S
C325 C326 1.369 . S
C325 H338 0.950 . S
C326 C325 1.369 . S
C326 C327 1.392 . S
C326 H339 0.951 . S
C327 C326 1.392 . S
C327 C329 1.384 . S
H328 C330 0.949 . S
C329 C327 1.384 . S
C329 C330 1.385 . S
C329 H331 0.950 . S
C330 C324 1.404 . S
C330 H328 0.949 . S
C330 C329 1.385 . S
H331 C329 0.950 . S
H332 C316 0.951 . S
H333 C318 0.951 . S
H334 C320 0.951 . S
H335 C321 0.950 . S
H336 C322 0.950 . S
H337 C323 0.950 . S
H338 C325 0.950 . S
H339 C326 0.951 . S
C340 C341 1.386 . S
C340 C342 1.383 . S
C340 H356 0.951 . S
C341 C340 1.386 . S
C341 C345 1.383 . S
C342 C340 1.383 . S
C342 C343 1.402 . S
C342 H357 0.951 . S
C343 C342 1.402 . S
C343 C344 1.375 . S
C343 C346 1.481 . S
C344 C343 1.375 . S
C344 C345 1.367 . S
C344 H358 0.951 . S
C345 C341 1.383 . S
C345 C344 1.367 . S
C345 H359 0.950 . S
C346 C343 1.481 . S
C346 C347 1.297 . S
C346 H360 0.950 . S
C347 C346 1.297 . S
C347 C348 1.479 . S
C347 H361 0.950 . S
C348 C347 1.479 . S
C348 C349 1.375 . S
C348 C354 1.404 . S
C349 C348 1.375 . S
C349 C350 1.369 . S
C349 H362 0.950 . S
C350 C349 1.369 . S
C350 C351 1.392 . S
C350 H363 0.951 . S
C351 C350 1.392 . S
C351 C353 1.384 . S
H352 C354 0.949 . S
C353 C351 1.384 . S
C353 C354 1.385 . S
C353 H355 0.950 . S
C354 C348 1.404 . S
C354 H352 0.949 . S
C354 C353 1.385 . S
H355 C353 0.950 . S
H356 C340 0.951 . S
H357 C342 0.951 . S
H358 C344 0.951 . S
H359 C345 0.950 . S
H360 C346 0.950 . S
H361 C347 0.950 . S
H362 C349 0.950 . S
H363 C350 0.951 . S
C364 C365 1.386 . S
C364 C366 1.383 . S
C364 H380 0.951 . S
C365 C364 1.386 . S
C365 C369 1.383 . S
C366 C364 1.383 . S
C366 C367 1.402 . S
C366 H381 0.951 . S
C367 C366 1.402 . S
C367 C368 1.375 . S
C367 C370 1.481 . S
C368 C367 1.375 . S
C368 C369 1.367 . S
C368 H382 0.951 . S
C369 C365 1.383 . S
C369 C368 1.367 . S
C369 H383 0.950 . S
C370 C367 1.481 . S
C370 C371 1.297 . S
C370 H384 0.950 . S
C371 C370 1.297 . S
C371 C372 1.479 . S
C371 H385 0.950 . S
C372 C371 1.479 . S
C372 C373 1.375 . S
C372 C378 1.404 . S
C373 C372 1.375 . S
C373 C374 1.369 . S
C373 H386 0.950 . S
C374 C373 1.369 . S
C374 C375 1.392 . S
C374 H387 0.951 . S
C375 C374 1.392 . S
C375 C377 1.384 . S
H376 C378 0.949 . S
C377 C375 1.384 . S
C377 C378 1.385 . S
C377 H379 0.950 . S
C378 C372 1.404 . S
C378 H376 0.949 . S
C378 C377 1.385 . S
H379 C377 0.950 . S
H380 C364 0.951 . S
H381 C366 0.951 . S
H382 C368 0.951 . S
H383 C369 0.950 . S
H384 C370 0.950 . S
H385 C371 0.950 . S
H386 C373 0.950 . S
H387 C374 0.951 . S
C388 C389 1.386 . S
C388 C390 1.383 . S
C388 H404 0.951 . S
C389 C388 1.386 . S
C389 C393 1.383 . S
C390 C388 1.383 . S
C390 C391 1.402 . S
C390 H405 0.951 . S
C391 C390 1.402 . S
C391 C392 1.375 . S
C391 C394 1.481 . S
C392 C391 1.375 . S
C392 C393 1.367 . S
C392 H406 0.951 . S
C393 C389 1.383 . S
C393 C392 1.367 . S
C393 H407 0.950 . S
C394 C391 1.481 . S
C394 C395 1.297 . S
C394 H408 0.950 . S
C395 C394 1.297 . S
C395 C396 1.479 . S
C395 H409 0.950 . S
C396 C395 1.479 . S
C396 C397 1.375 . S
C396 C402 1.404 . S
C397 C396 1.375 . S
C397 C398 1.369 . S
C397 H410 0.950 . S
C398 C397 1.369 . S
C398 C399 1.392 . S
C398 H411 0.951 . S
C399 C398 1.392 . S
C399 C401 1.384 . S
H400 C402 0.949 . S
C401 C399 1.384 . S
C401 C402 1.385 . S
C401 H403 0.950 . S
C402 C396 1.404 . S
C402 H400 0.949 . S
C402 C401 1.385 . S
H403 C401 0.950 . S
H404 C388 0.951 . S
H405 C390 0.951 . S
H406 C392 0.951 . S
H407 C393 0.950 . S
H408 C394 0.950 . S
H409 C395 0.950 . S
H410 C397 0.950 . S
H411 C398 0.951 . S
C412 C413 1.386 . S
C412 C414 1.383 . S
C412 H428 0.951 . S
C413 C412 1.386 . S
C413 C417 1.383 . S
C414 C412 1.383 . S
C414 C415 1.402 . S
C414 H429 0.951 . S
C415 C414 1.402 . S
C415 C416 1.375 . S
C415 C418 1.481 . S
C416 C415 1.375 . S
C416 C417 1.367 . S
C416 H430 0.951 . S
C417 C413 1.383 . S
C417 C416 1.367 . S
C417 H431 0.950 . S
C418 C415 1.481 . S
C418 C419 1.297 . S
C418 H432 0.950 . S
C419 C418 1.297 . S
C419 C420 1.479 . S
C419 H433 0.950 . S
C420 C419 1.479 . S
C420 C421 1.375 . S
C420 C426 1.404 . S
C421 C420 1.375 . S
C421 C422 1.369 . S
C421 H434 0.950 1_655 S
C422 C421 1.369 . S
C422 C423 1.392 . S
C422 H435 0.951 1_655 S
C423 C422 1.392 . S
C423 C425 1.384 . S
H424 C426 0.949 . S
C425 C423 1.384 . S
C425 C426 1.385 . S
C425 H427 0.950 . S
C426 C420 1.404 . S
C426 H424 0.949 . S
C426 C425 1.385 . S
H427 C425 0.950 . S
H428 C412 0.951 . S
H429 C414 0.951 . S
H430 C416 0.951 . S
H431 C417 0.950 . S
H432 C418 0.950 . S
H433 C419 0.950 . S
H434 C421 0.950 1_455 S
H435 C422 0.951 1_455 S
C436 C437 1.386 . S
C436 C438 1.383 . S
C436 H452 0.951 . S
C437 C436 1.386 . S
C437 C441 1.383 . S
C438 C436 1.383 . S
C438 C439 1.402 . S
C438 H453 0.951 . S
C439 C438 1.402 . S
C439 C440 1.375 . S
C439 C442 1.481 . S
C440 C439 1.375 . S
C440 C441 1.367 . S
C440 H454 0.951 . S
C441 C437 1.383 . S
C441 C440 1.367 . S
C441 H455 0.950 . S
C442 C439 1.481 . S
C442 C443 1.297 . S
C442 H456 0.950 . S
C443 C442 1.297 . S
C443 C444 1.479 . S
C443 H457 0.950 . S
C444 C443 1.479 . S
C444 C445 1.375 . S
C444 C450 1.404 . S
C445 C444 1.375 . S
C445 C446 1.369 . S
C445 H458 0.950 . S
C446 C445 1.369 . S
C446 C447 1.392 . S
C446 H459 0.951 . S
C447 C446 1.392 . S
C447 C449 1.384 . S
H448 C450 0.949 . S
C449 C447 1.384 . S
C449 C450 1.385 . S
C449 H451 0.950 . S
C450 C444 1.404 . S
C450 H448 0.949 . S
C450 C449 1.385 . S
H451 C449 0.950 . S
H452 C436 0.951 . S
H453 C438 0.951 . S
H454 C440 0.951 . S
H455 C441 0.950 . S
H456 C442 0.950 . S
H457 C443 0.950 . S
H458 C445 0.950 . S
H459 C446 0.951 . S
C460 C461 1.386 . S
C460 C462 1.383 . S
C460 H476 0.951 . S
C461 C460 1.386 . S
C461 C465 1.383 . S
C462 C460 1.383 . S
C462 C463 1.402 . S
C462 H477 0.951 . S
C463 C462 1.402 . S
C463 C464 1.375 . S
C463 C466 1.481 . S
C464 C463 1.375 . S
C464 C465 1.367 . S
C464 H478 0.951 . S
C465 C461 1.383 . S
C465 C464 1.367 . S
C465 H479 0.950 . S
C466 C463 1.481 . S
C466 C467 1.297 . S
C466 H480 0.950 . S
C467 C466 1.297 . S
C467 C468 1.479 . S
C467 H481 0.950 . S
C468 C467 1.479 . S
C468 C469 1.375 . S
C468 C474 1.404 . S
C469 C468 1.375 . S
C469 C470 1.369 . S
C469 H482 0.953 . S
C470 C469 1.369 . S
C470 C471 1.392 . S
C470 H483 0.951 1_455 S
C471 C470 1.392 . S
C471 C473 1.384 . S
H472 C474 0.949 . S
C473 C471 1.384 . S
C473 C474 1.385 . S
C473 H475 0.950 . S
C474 C468 1.404 . S
C474 H472 0.949 . S
C474 C473 1.385 . S
H475 C473 0.950 . S
H476 C460 0.951 . S
H477 C462 0.951 . S
H478 C464 0.951 . S
H479 C465 0.950 . S
H480 C466 0.950 . S
H481 C467 0.950 . S
H482 C469 0.953 . S
H483 C470 0.951 1_655 S
C207 C132 1.581 . S
C197 C119 1.591 . S
C221 C23 1.428 . S
C231 C175 1.526 . S
C245 C55 1.514 . S
C255 C141 1.583 . S
C269 C87 1.537 . S
C279 C166 1.529 . S
C303 C128 1.566 . S
C293 C17 1.487 . S
C327 C170 1.628 . S
C317 C61 1.556 . S
C341 C93 1.568 . S
C351 C136 1.557 . S
C365 C113 1.641 . S
C375 C162 1.633 . S
C399 C191 1.630 . S
C389 C49 1.522 . S
C423 C157 1.562 . S
C413 C81 1.571 . S
C447 C179 1.645 . S
C437 C125 1.643 . S
C461 C29 1.433 . S
C471 C145 1.562 . S
