# Generated by pormake.
# Topology pyr, (3,6)-cn, num edge types: 1
# Building blocks:
#     Node 0, Type 0, BuildingBlock: MIDCAF_clean_linker_0, # of connection points: 3
#     Node 1, Type 0, BuildingBlock: MIDCAF_clean_linker_0, # of connection points: 3
#     Node 2, Type 0, BuildingBlock: MIDCAF_clean_linker_0, # of connection points: 3
#     Node 3, Type 0, BuildingBlock: MIDCAF_clean_linker_0, # of connection points: 3
#     Node 4, Type 0, BuildingBlock: MIDCAF_clean_linker_0, # of connection points: 3
#     Node 5, Type 0, BuildingBlock: MIDCAF_clean_linker_0, # of connection points: 3
#     Node 6, Type 0, BuildingBlock: MIDCAF_clean_linker_0, # of connection points: 3
#     Node 7, Type 0, BuildingBlock: MIDCAF_clean_linker_0, # of connection points: 3
#     Node 8, Type 1, BuildingBlock: FUNLAD_clean_sbu_0, # of connection points: 6
#     Node 9, Type 1, BuildingBlock: FUNLAD_clean_sbu_0, # of connection points: 6
#     Node 10, Type 1, BuildingBlock: FUNLAD_clean_sbu_0, # of connection points: 6
#     Node 11, Type 1, BuildingBlock: FUNLAD_clean_sbu_0, # of connection points: 6
#     Edge 12, Type (0, 1), BuildingBlock: TEMPAE_clean_linker_10, # of connection points: 2
#     Edge 13, Type (0, 1), BuildingBlock: TEMPAE_clean_linker_10, # of connection points: 2
#     Edge 14, Type (0, 1), BuildingBlock: TEMPAE_clean_linker_10, # of connection points: 2
#     Edge 15, Type (0, 1), BuildingBlock: TEMPAE_clean_linker_10, # of connection points: 2
#     Edge 16, Type (0, 1), BuildingBlock: TEMPAE_clean_linker_10, # of connection points: 2
#     Edge 17, Type (0, 1), BuildingBlock: TEMPAE_clean_linker_10, # of connection points: 2
#     Edge 18, Type (0, 1), BuildingBlock: TEMPAE_clean_linker_10, # of connection points: 2
#     Edge 19, Type (0, 1), BuildingBlock: TEMPAE_clean_linker_10, # of connection points: 2
#     Edge 20, Type (0, 1), BuildingBlock: TEMPAE_clean_linker_10, # of connection points: 2
#     Edge 21, Type (0, 1), BuildingBlock: TEMPAE_clean_linker_10, # of connection points: 2
#     Edge 22, Type (0, 1), BuildingBlock: TEMPAE_clean_linker_10, # of connection points: 2
#     Edge 23, Type (0, 1), BuildingBlock: TEMPAE_clean_linker_10, # of connection points: 2
#     Edge 24, Type (0, 1), BuildingBlock: TEMPAE_clean_linker_10, # of connection points: 2
#     Edge 25, Type (0, 1), BuildingBlock: TEMPAE_clean_linker_10, # of connection points: 2
#     Edge 26, Type (0, 1), BuildingBlock: TEMPAE_clean_linker_10, # of connection points: 2
#     Edge 27, Type (0, 1), BuildingBlock: TEMPAE_clean_linker_10, # of connection points: 2
#     Edge 28, Type (0, 1), BuildingBlock: TEMPAE_clean_linker_10, # of connection points: 2
#     Edge 29, Type (0, 1), BuildingBlock: TEMPAE_clean_linker_10, # of connection points: 2
#     Edge 30, Type (0, 1), BuildingBlock: TEMPAE_clean_linker_10, # of connection points: 2
#     Edge 31, Type (0, 1), BuildingBlock: TEMPAE_clean_linker_10, # of connection points: 2
#     Edge 32, Type (0, 1), BuildingBlock: TEMPAE_clean_linker_10, # of connection points: 2
#     Edge 33, Type (0, 1), BuildingBlock: TEMPAE_clean_linker_10, # of connection points: 2
#     Edge 34, Type (0, 1), BuildingBlock: TEMPAE_clean_linker_10, # of connection points: 2
#     Edge 35, Type (0, 1), BuildingBlock: TEMPAE_clean_linker_10, # of connection points: 2
# Relax obj value: 0.056
# Max RMSD: 0.063
# Mean RMSD: 0.027
data_MOF--net-pry--node1-FUNLAD_clean_sbu_0--node2-MIDCAF_clean_linker_0--edge1-TEMPAE_clean_linker_10
_symmetry_space_group_name_H-M    P1
_symmetry_Int_Tables_number       1
_symmetry_cell_setting            triclinic
loop_
_symmetry_equiv_pos_as_xyz
'x, y, z'
_cell_length_a     44.384454
_cell_length_b     46.954431
_cell_length_c     47.261027
_cell_angle_alpha  90.104063
_cell_angle_beta   90.198374
_cell_angle_gamma 86.108552
loop_
_atom_site_label
_atom_site_type_symbol
_atom_site_fract_x
_atom_site_fract_y
_atom_site_fract_z
_atom_type_partial_charge
C0 C 0.096 0.14685 0.26857 0.0
C1 C 0.10933 0.12086 0.27917 0.0
C2 C 0.13382 0.10767 0.26414 0.0
C3 C 0.14478 0.12005 0.23957 0.0
H4 H 0.22001 0.11472 0.18679 0.0
H5 H 0.26492 0.09243 0.16372 0.0
H6 H 0.24757 0.14611 0.09066 0.0
H7 H 0.20282 0.16839 0.11352 0.0
H8 H 0.16354 0.22552 0.12336 0.0
H9 H 0.14177 0.26889 0.10157 0.0
H10 H 0.06688 0.27021 0.15965 0.0
H11 H 0.08866 0.22616 0.18161 0.0
H12 H 0.09619 0.1793 0.23657 0.0
H13 H 0.07734 0.15792 0.27961 0.0
H14 H 0.14443 0.08745 0.27114 0.0
H15 H 0.16365 0.10899 0.22882 0.0
N16 N 0.16877 0.14635 0.18998 0.0
N17 N 0.16671 0.18176 0.1551 0.0
N18 N 0.13046 0.18357 0.19129 0.0
C19 C 0.18034 0.15748 0.16612 0.0
C20 C 0.14188 0.19509 0.16737 0.0
C21 C 0.14382 0.15908 0.20276 0.0
C22 C 0.20763 0.14345 0.15212 0.0
C23 C 0.22569 0.12176 0.16578 0.0
C24 C 0.25157 0.10906 0.15262 0.0
C25 C 0.25988 0.11744 0.1253 0.0
C26 C 0.2417 0.13892 0.11157 0.0
C27 C 0.21607 0.15183 0.12482 0.0
C28 C 0.12798 0.22205 0.15444 0.0
C29 C 0.14241 0.23487 0.13168 0.0
C30 C 0.12999 0.26002 0.11917 0.0
C31 C 0.10259 0.27331 0.12885 0.0
C32 C 0.08792 0.26051 0.15148 0.0
C33 C 0.10051 0.23529 0.1642 0.0
C34 C 0.13161 0.14608 0.229 0.0
C35 C 0.10696 0.15926 0.24387 0.0
C36 C 0.2624 0.91359 0.65201 0.0
C37 C 0.25348 0.90481 0.62494 0.0
C38 C 0.27101 0.88277 0.6114 0.0
C39 C 0.29672 0.86977 0.6246 0.0
H40 H 0.34275 0.78337 0.64662 0.0
H41 H 0.36356 0.73957 0.6249 0.0
H42 H 0.45365 0.76797 0.63576 0.0
H43 H 0.43241 0.81085 0.65973 0.0
H44 H 0.41934 0.84601 0.73505 0.0
H45 H 0.43813 0.86836 0.7778 0.0
H46 H 0.37148 0.93893 0.76727 0.0
H47 H 0.35232 0.91646 0.72522 0.0
H48 H 0.29457 0.90829 0.68586 0.0
H49 H 0.24953 0.93064 0.66295 0.0
H50 H 0.26463 0.8753 0.59068 0.0
H51 H 0.30956 0.85284 0.61346 0.0
N52 N 0.34679 0.8403 0.655 0.0
N53 N 0.38478 0.84061 0.68985 0.0
N54 N 0.34596 0.87729 0.68835 0.0
C55 C 0.37235 0.82792 0.66696 0.0
C56 C 0.37151 0.86534 0.70083 0.0
C57 C 0.33352 0.86506 0.66538 0.0
C58 C 0.3859 0.80063 0.65492 0.0
C59 C 0.36704 0.7801 0.64457 0.0
C60 C 0.37913 0.75498 0.63169 0.0
C61 C 0.41055 0.74987 0.62779 0.0
C62 C 0.42944 0.77049 0.6385 0.0
C63 C 0.41728 0.79531 0.6522 0.0
C64 C 0.38413 0.87921 0.7265 0.0
C65 C 0.4087 0.86631 0.74179 0.0
C66 C 0.41961 0.87926 0.76633 0.0
C67 C 0.4063 0.9055 0.77631 0.0
C68 C 0.38203 0.91851 0.76075 0.0
C69 C 0.37112 0.90559 0.73635 0.0
C70 C 0.30585 0.87868 0.65159 0.0
C71 C 0.28835 0.90083 0.66508 0.0
C72 C 0.59393 0.34708 0.99713 0.0
C73 C 0.56583 0.33841 0.98794 0.0
C74 C 0.54573 0.3582 0.97414 0.0
C75 C 0.55457 0.38534 0.96753 0.0
H76 H 0.54414 0.43205 0.89788 0.0
H77 H 0.52816 0.43954 0.84907 0.0
H78 H 0.59832 0.49758 0.83703 0.0
H79 H 0.61473 0.49012 0.886 0.0
H80 H 0.67115 0.4842 0.92653 0.0
H81 H 0.72348 0.4931 0.93629 0.0
H82 H 0.72134 0.442 0.01209 0.0
H83 H 0.66915 0.43243 1.00204 0.0
H84 H 0.62521 0.37975 0.99665 0.0
H85 H 0.60966 0.33232 0.00819 0.0
H86 H 0.52395 0.35209 0.96677 0.0
H87 H 0.53918 0.39953 0.95545 0.0
N88 N 0.58165 0.43054 0.93853 0.0
N89 N 0.62112 0.46047 0.93222 0.0
N90 N 0.62233 0.42833 0.97025 0.0
C91 C 0.59421 0.45128 0.92358 0.0
C92 C 0.6352 0.44931 0.95571 0.0
C93 C 0.5954 0.419 0.96188 0.0
C94 C 0.58112 0.46011 0.89582 0.0
C95 C 0.55597 0.4468 0.88511 0.0
C96 C 0.5468 0.45097 0.8571 0.0
C97 C 0.5623 0.46877 0.83929 0.0
C98 C 0.58601 0.48373 0.85042 0.0
C99 C 0.59542 0.47937 0.87844 0.0
C100 C 0.66591 0.45738 0.96336 0.0
C101 C 0.68165 0.47505 0.94545 0.0
C102 C 0.71169 0.48027 0.95109 0.0
C103 C 0.72667 0.46807 0.97485 0.0
C104 C 0.71061 0.45127 0.99332 0.0
C105 C 0.6806 0.44595 0.98763 0.0
C106 C 0.58365 0.39325 0.97465 0.0
C107 C 0.60273 0.37432 0.99067 0.0
C108 C 0.79366 0.58555 0.47885 0.0
C109 C 0.78338 0.55827 0.47397 0.0
C110 C 0.80395 0.53667 0.46343 0.0
C111 C 0.83367 0.54248 0.45712 0.0
H112 H 0.89201 0.53319 0.38495 0.0
H113 H 0.9079 0.5243 0.33605 0.0
H114 H 0.98379 0.57562 0.34892 0.0
H115 H 0.96851 0.58433 0.39765 0.0
H116 H 0.9708 0.62556 0.44845 0.0
H117 H 0.98721 0.67314 0.4575 0.0
H118 H 0.90258 0.69636 0.49905 0.0
H119 H 0.88582 0.64884 0.48977 0.0
H120 H 0.83044 0.61256 0.47669 0.0
H121 H 0.77849 0.60295 0.48634 0.0
H122 H 0.79714 0.51524 0.45996 0.0
H123 H 0.84882 0.52557 0.44859 0.0
N124 N 0.88854 0.56293 0.43149 0.0
N125 N 0.92833 0.59302 0.43523 0.0
N126 N 0.88737 0.59895 0.46612 0.0
C127 C 0.91562 0.57103 0.42218 0.0
C128 C 0.91455 0.60701 0.45723 0.0
C129 C 0.87445 0.57667 0.45365 0.0
C130 C 0.92857 0.55999 0.39512 0.0
C131 C 0.91253 0.54197 0.37764 0.0
C132 C 0.9216 0.53684 0.34965 0.0
C133 C 0.9467 0.54976 0.33875 0.0
C134 C 0.96407 0.56582 0.3568 0.0
C135 C 0.95525 0.57072 0.38475 0.0
C136 C 0.92677 0.63353 0.46794 0.0
C137 C 0.95585 0.64059 0.45998 0.0
C138 C 0.96537 0.66781 0.46529 0.0
C139 C 0.94597 0.68852 0.47858 0.0
C140 C 0.91777 0.68088 0.48834 0.0
C141 C 0.90828 0.65359 0.48318 0.0
C142 C 0.84369 0.56981 0.46184 0.0
C143 C 0.82351 0.59115 0.47316 0.0
C144 C 0.76314 0.91504 0.86715 0.0
C145 C 0.75466 0.90665 0.89441 0.0
C146 C 0.77274 0.88515 0.90822 0.0
C147 C 0.79845 0.87224 0.89509 0.0
H148 H 0.85102 0.79855 0.89653 0.0
H149 H 0.87262 0.7551 0.91827 0.0
H150 H 0.94778 0.75383 0.86051 0.0
H151 H 0.92617 0.79797 0.83858 0.0
H152 H 0.91866 0.84521 0.78341 0.0
H153 H 0.93738 0.86692 0.74046 0.0
H154 H 0.87036 0.93736 0.74965 0.0
H155 H 0.85129 0.91552 0.79184 0.0
H156 H 0.79488 0.90941 0.83315 0.0
H157 H 0.74986 0.93169 0.85599 0.0
H158 H 0.76674 0.87795 0.92909 0.0
H159 H 0.81164 0.85567 0.90643 0.0
N160 N 0.84801 0.84235 0.86494 0.0
N161 N 0.88441 0.84069 0.82886 0.0
N162 N 0.84608 0.87788 0.83019 0.0
C163 C 0.8729 0.82907 0.8527 0.0
C164 C 0.87107 0.86522 0.81745 0.0
C165 C 0.83441 0.86666 0.85395 0.0
C166 C 0.88672 0.80206 0.8656 0.0
C167 C 0.87217 0.7892 0.88827 0.0
C168 C 0.8845 0.764 0.90074 0.0
C169 C 0.91192 0.75069 0.89115 0.0
C170 C 0.92672 0.76354 0.86862 0.0
C171 C 0.91422 0.78881 0.85592 0.0
C172 C 0.88329 0.87839 0.7913 0.0
C173 C 0.90788 0.86531 0.77628 0.0
C174 C 0.91876 0.87791 0.75164 0.0
C175 C 0.90539 0.90397 0.74125 0.0
C176 C 0.88099 0.91707 0.75646 0.0
C177 C 0.87012 0.90452 0.78096 0.0
C178 C 0.80705 0.88065 0.86785 0.0
C179 C 0.78909 0.90235 0.85411 0.0
C180 C 0.63391 0.10694 0.25624 0.0
C181 C 0.60926 0.11966 0.24096 0.0
C182 C 0.59549 0.14557 0.25129 0.0
C183 C 0.60604 0.15827 0.27609 0.0
H184 H 0.60894 0.23986 0.32779 0.0
H185 H 0.58723 0.28412 0.34979 0.0
H186 H 0.60988 0.25002 0.43237 0.0
H187 H 0.63241 0.20635 0.41056 0.0
H188 H 0.69808 0.1668 0.4098 0.0
H189 H 0.74334 0.14531 0.43281 0.0
H190 H 0.763 0.09372 0.35862 0.0
H191 H 0.71776 0.11522 0.33545 0.0
H192 H 0.66339 0.10888 0.29195 0.0
H193 H 0.64487 0.08681 0.24941 0.0
H194 H 0.57672 0.15629 0.24002 0.0
H195 H 0.59482 0.17817 0.28327 0.0
N196 N 0.62778 0.18253 0.32949 0.0
N197 N 0.66205 0.18018 0.36763 0.0
N198 N 0.66654 0.14585 0.33159 0.0
C199 C 0.63769 0.19342 0.35441 0.0
C200 C 0.67681 0.15655 0.35632 0.0
C201 C 0.64198 0.15846 0.31804 0.0
C202 C 0.62246 0.21956 0.36739 0.0
C203 C 0.60912 0.24176 0.35063 0.0
C204 C 0.59684 0.26713 0.36319 0.0
C205 C 0.59687 0.27049 0.3928 0.0
C206 C 0.60944 0.248 0.40953 0.0
C207 C 0.62241 0.22303 0.39699 0.0
C208 C 0.70411 0.14285 0.37066 0.0
C209 C 0.71196 0.15085 0.39833 0.0
C210 C 0.73787 0.1384 0.41164 0.0
C211 C 0.75687 0.11779 0.39758 0.0
C212 C 0.74904 0.10972 0.36997 0.0
C213 C 0.72295 0.12196 0.35674 0.0
C214 C 0.63071 0.14548 0.29131 0.0
C215 C 0.64447 0.11963 0.28091 0.0
C216 C 0.30198 0.54267 0.06695 0.0
C217 C 0.28677 0.55594 0.04386 0.0
C218 C 0.30261 0.57372 0.02617 0.0
C219 C 0.33264 0.57889 0.032 0.0
H220 H 0.38848 0.64503 0.02516 0.0
H221 H 0.40425 0.69262 0.01468 0.0
H222 H 0.48935 0.67207 0.05689 0.0
H223 H 0.47391 0.62445 0.06719 0.0
H224 H 0.46765 0.5901 0.12402 0.0
H225 H 0.48305 0.57951 0.17229 0.0
H226 H 0.417 0.51623 0.17743 0.0
H227 H 0.4007 0.52751 0.12923 0.0
H228 H 0.34269 0.53766 0.09114 0.0
H229 H 0.29037 0.52909 0.08119 0.0
H230 H 0.29171 0.58386 1.0079 0.0
H231 H 0.34393 0.59316 0.01824 0.0
N232 N 0.39104 0.59584 0.05021 0.0
N233 N 0.43182 0.59209 0.08185 0.0
N234 N 0.39251 0.56168 0.08644 0.0
C235 C 0.41796 0.60481 0.0591 0.0
C236 C 0.41937 0.57049 0.09561 0.0
C237 C 0.37829 0.57407 0.06361 0.0
C238 C 0.42972 0.63108 0.04746 0.0
C239 C 0.41085 0.65036 0.03161 0.0
C240 C 0.41977 0.67768 0.02576 0.0
C241 C 0.4478 0.68613 0.03539 0.0
C242 C 0.46763 0.66613 0.04919 0.0
C243 C 0.45867 0.63888 0.05521 0.0
C244 C 0.4325 0.56003 0.12283 0.0
C245 C 0.45664 0.57358 0.13518 0.0
C246 C 0.46565 0.5674 0.16291 0.0
C247 C 0.45096 0.54733 0.17888 0.0
C248 C 0.42829 0.5323 0.16588 0.0
C249 C 0.41909 0.53864 0.13817 0.0
C250 C 0.34756 0.56631 0.05563 0.0
C251 C 0.33202 0.54771 0.07272 0.0
C252 C 0.0872 0.34565 0.52846 0.0
C253 C 0.0577 0.33987 0.53635 0.0
C254 C 0.03829 0.3622 0.54696 0.0
C255 C 0.04897 0.38898 0.55211 0.0
H256 H 0.04148 0.43607 0.62217 0.0
H257 H 0.02658 0.44392 0.67114 0.0
H258 H 0.10051 0.4978 0.68344 0.0
H259 H 0.11588 0.48991 0.63431 0.0
H260 H 0.17035 0.48336 0.59257 0.0
H261 H 0.2225 0.49171 0.58205 0.0
H262 H 0.21872 0.43877 0.50743 0.0
H263 H 0.16663 0.42968 0.51831 0.0
H264 H 0.1213 0.37576 0.52896 0.0
H265 H 0.10274 0.32886 0.52029 0.0
H266 H 0.01522 0.35858 0.55258 0.0
H267 H 0.03391 0.40526 0.56184 0.0
N268 N 0.07918 0.43191 0.58196 0.0
N269 N 0.11991 0.46046 0.58773 0.0
N270 N 0.11961 0.42761 0.55022 0.0
C271 C 0.09271 0.45238 0.59659 0.0
C272 C 0.13338 0.44842 0.56438 0.0
C273 C 0.0923 0.41948 0.55878 0.0
C274 C 0.08028 0.46193 0.62435 0.0
C275 C 0.05438 0.45001 0.63503 0.0
C276 C 0.04582 0.4544 0.66313 0.0
C277 C 0.06269 0.47107 0.68106 0.0
C278 C 0.08716 0.48482 0.66996 0.0
C279 C 0.09596 0.48023 0.64184 0.0
C280 C 0.16423 0.45566 0.55641 0.0
C281 C 0.18045 0.47363 0.57377 0.0
C282 C 0.2104 0.47856 0.56767 0.0
C283 C 0.22485 0.46581 0.54397 0.0
C284 C 0.2084 0.44853 0.52612 0.0
C285 C 0.17845 0.44348 0.53228 0.0
C286 C 0.07925 0.39403 0.54661 0.0
C287 C 0.09786 0.37256 0.53345 0.0
C288 C 0.03207 0.0314 0.45972 0.0
N289 N 0.01609 0.07335 0.53706 0.0
C290 C 0.04317 0.08427 0.53206 0.0
C291 C 0.04695 0.11307 0.53693 0.0
C292 C 0.02256 0.13085 0.54688 0.0
C293 C 0.99538 0.11869 0.55342 0.0
C294 C 0.99263 0.08967 0.54836 0.0
Zn295 Zn 0.00954 0.03395 0.52121 0.0
C296 C 0.95022 0.03415 0.48998 0.0
N297 N 0.99674 0.95342 0.48405 0.0
C298 C 0.01974 0.93626 0.47303 0.0
C299 C 0.96938 0.94331 0.48959 0.0
C300 C 0.96494 0.91451 0.48597 0.0
C301 C 0.98887 0.89592 0.47656 0.0
C302 C 0.0162 0.90716 0.46895 0.0
Zn303 Zn 1.0037 0.99284 0.49963 0.0
O304 O 0.02909 0.04677 0.48189 0.0
C305 C 0.06293 0.99251 0.53091 0.0
O306 O 0.02356 1.00602 0.46053 0.0
H307 H 0.95149 0.95721 0.49857 0.0
H308 H 0.06138 0.07101 0.52271 0.0
H309 H 0.04136 0.94476 0.46899 0.0
O310 O 0.05302 0.01794 0.5366 0.0
O311 O 0.04701 0.97721 0.51537 0.0
H312 H 0.97128 0.08053 0.55208 0.0
O313 O 0.98415 0.98006 0.53889 0.0
O314 O 0.98978 0.02065 0.56041 0.0
O315 O 0.96035 0.00885 0.48418 0.0
O316 O 0.96603 0.04952 0.50554 0.0
C317 C 0.98126 0.99529 0.56113 0.0
H318 H 0.06817 0.12164 0.5313 0.0
H319 H 0.97616 0.13168 0.56142 0.0
H320 H 0.94341 0.90661 0.49167 0.0
H321 H 0.03514 0.89336 0.46164 0.0
C322 C 0.56315 0.99142 0.98839 0.0
N323 N 0.51721 0.07274 0.98452 0.0
C324 C 0.54467 0.08244 0.99068 0.0
C325 C 0.5493 0.11133 0.98845 0.0
C326 C 0.52547 0.13046 0.97976 0.0
C327 C 0.49804 0.11972 0.97143 0.0
C328 C 0.4943 0.0905 0.97413 0.0
Zn329 Zn 0.50982 0.03295 0.99874 0.0
C330 C 0.4814 0.99564 0.95791 0.0
N331 N 0.49685 0.95175 0.03393 0.0
C332 C 0.5197 0.93423 0.04479 0.0
C333 C 0.46948 0.94188 0.02772 0.0
C334 C 0.46489 0.91302 0.03049 0.0
C335 C 0.48865 0.89412 0.03978 0.0
C336 C 0.516 0.90508 0.04805 0.0
Zn337 Zn 0.50419 0.9915 0.01959 0.0
O338 O 0.55308 0.01687 0.98308 0.0
C339 C 0.53269 0.02884 0.06035 0.0
O340 O 0.54743 0.97588 1.00371 0.0
H341 H 0.4517 0.95608 0.01891 0.0
H342 H 0.56249 0.06806 0.99917 0.0
H343 H 0.54134 0.94254 0.04935 0.0
O344 O 0.52953 0.04444 0.03843 0.0
O345 O 0.5242 1.00348 0.0592 0.0
H346 H 0.47259 0.08235 0.96961 0.0
O347 O 0.46093 0.00753 0.03525 0.0
O348 O 0.46654 0.04857 0.0147 0.0
O349 O 0.4845 0.97999 0.97982 0.0
O350 O 0.48984 0.02102 0.95916 0.0
C351 C 0.45085 0.03299 0.03002 0.0
H352 H 0.5709 0.11885 0.99469 0.0
H353 H 0.47916 0.13393 0.96465 0.0
H354 H 0.44334 0.90535 0.02431 0.0
H355 H 0.53483 0.89105 0.05527 0.0
C356 C 0.52128 0.45555 0.4891 0.0
N357 N 0.51981 0.48945 0.57185 0.0
C358 C 0.50775 0.46652 0.58391 0.0
C359 C 0.51253 0.46066 0.61263 0.0
C360 C 0.53024 0.47835 0.62876 0.0
C361 C 0.54303 0.50133 0.61559 0.0
C362 C 0.5373 0.50666 0.58707 0.0
Zn363 Zn 0.50983 0.50128 0.53128 0.0
C364 C 0.56354 0.52403 0.50298 0.0
N365 N 0.48957 0.53044 0.44788 0.0
C366 C 0.47227 0.51268 0.43314 0.0
C367 C 0.5024 0.55246 0.43495 0.0
C368 C 0.49908 0.55644 0.40573 0.0
C369 C 0.48243 0.53754 0.3899 0.0
C370 C 0.46822 0.516 0.40414 0.0
Zn371 Zn 0.49947 0.51906 0.48864 0.0
O372 O 0.52337 0.45938 0.51569 0.0
C373 C 0.44575 0.49612 0.51684 0.0
O374 O 0.5116 0.47638 0.47363 0.0
H375 H 0.51622 0.56621 0.44704 0.0
H376 H 0.49386 0.45318 0.57143 0.0
H377 H 0.46256 0.49507 0.44365 0.0
O378 O 0.46483 0.48983 0.53632 0.0
O379 O 0.45428 0.50857 0.49474 0.0
H380 H 0.54617 0.52511 0.57728 0.0
O381 O 0.48762 0.56149 0.50416 0.0
O382 O 0.49599 0.54343 0.54647 0.0
O383 O 0.54468 0.5296 0.48316 0.0
O384 O 0.55482 0.51256 0.52555 0.0
C385 C 0.48783 0.56472 0.53094 0.0
H386 H 0.50237 0.4427 0.62218 0.0
H387 H 0.55644 0.51566 0.6275 0.0
H388 H 0.51048 0.5733 0.39552 0.0
H389 H 0.45466 0.50133 0.39286 0.0
C390 C 0.9903 0.56607 0.9879 0.0
N391 N 0.99051 0.53335 0.07152 0.0
C392 C 1.00281 0.55594 0.08414 0.0
C393 C 0.99756 0.56167 0.11283 0.0
C394 C 0.97913 0.54424 0.1283 0.0
C395 C 0.96606 0.52168 0.11452 0.0
C396 C 0.9723 0.51643 0.08611 0.0
Zn397 Zn 1.00138 0.52094 0.03125 0.0
C398 C 0.9479 0.49766 1.00221 0.0
N399 N 0.0227 0.49011 0.94861 0.0
C400 C 0.04078 0.50686 0.93367 0.0
C401 C 0.01024 0.4674 0.93638 0.0
C402 C 0.01506 0.46142 0.90769 0.0
C403 C 0.03326 0.47871 0.89182 0.0
C404 C 0.04661 0.50134 0.90521 0.0
Zn405 Zn 0.01198 0.50272 0.98883 0.0
O406 O 0.98897 0.56292 0.01464 0.0
C407 C 0.06544 0.52606 0.01777 0.0
O408 O 0.99926 0.54469 0.97279 0.0
H409 H 0.99587 0.45444 0.94863 0.0
H410 H 0.01735 0.56901 0.0722 0.0
H411 H 0.04994 0.52518 0.94354 0.0
O412 O 0.04645 0.53195 0.03731 0.0
O413 O 0.05685 0.51398 0.99538 0.0
H414 H 0.96331 0.49816 0.07598 0.0
O415 O 0.0245 0.46077 1.00544 0.0
O416 O 0.01406 0.47893 0.04726 0.0
O417 O 0.96697 0.49164 0.98279 0.0
O418 O 0.95644 0.50981 0.02458 0.0
C419 C 0.02313 0.45759 0.03217 0.0
H420 H 0.00799 0.57929 0.12289 0.0
H421 H 0.95213 0.50752 0.12591 0.0
H422 H 0.00445 0.44374 0.89794 0.0
H423 H 0.0604 0.51537 0.89348 0.0
C424 C 0.06692 0.10838 0.31186 0.0
C425 C 0.09796 0.10751 0.30572 0.0
C426 C 0.05609 0.09565 0.33654 0.0
C427 C 0.07665 0.08154 0.35578 0.0
C428 C 0.10796 0.08056 0.34974 0.0
C429 C 0.11818 0.09354 0.32498 0.0
C430 C 0.02253 0.09732 0.34203 0.0
C431 C 0.13079 0.06593 0.36958 0.0
C432 C 0.05209 0.07221 0.43261 0.0
C433 C 0.04425 0.04369 0.43319 0.0
C434 C 0.06258 0.08468 0.40772 0.0
C435 C 0.0655 0.06836 0.38249 0.0
C436 C 0.05786 0.03949 0.38294 0.0
C437 C 0.04732 0.02755 0.40817 0.0
C438 C 0.07037 0.11548 0.4084 0.0
C439 C 0.06071 0.02121 0.35667 0.0
H440 H 0.05094 0.11869 0.29712 0.0
H441 H 0.14222 0.09304 0.32093 0.0
H442 H 0.01458 0.0755 0.3438 0.0
H443 H 0.01759 0.10831 0.36246 0.0
H444 H 0.00944 0.10891 0.32505 0.0
H445 H 0.15427 0.06639 0.36161 0.0
H446 H 0.12947 0.07642 0.39063 0.0
H447 H 0.12562 0.04335 0.37266 0.0
H448 H 0.04983 0.08502 0.45168 0.0
H449 H 0.04133 1.00555 0.40823 0.0
H450 H 0.05621 0.12808 0.39288 0.0
H451 H 0.09427 0.11707 0.40218 0.0
H452 H 0.06695 0.1253 0.42966 0.0
H453 H 0.04626 0.03093 0.33956 0.0
H454 H 0.0541 0.99914 0.36042 0.0
H455 H 0.08435 0.02014 0.34897 0.0
C456 C 0.39685 0.93339 0.82168 0.0
C457 C 0.41734 0.91924 0.80287 0.0
C458 C 0.40673 0.94661 0.84653 0.0
C459 C 0.43795 0.94569 0.85311 0.0
C460 C 0.45879 0.93144 0.8343 0.0
C461 C 0.44829 0.91847 0.80951 0.0
C462 C 0.38363 0.96137 0.86593 0.0
C463 C 0.49226 0.92984 0.8404 0.0
C464 C 0.46659 0.99969 0.90619 0.0
C465 C 0.46932 0.98353 0.93116 0.0
C466 C 0.45636 0.98775 0.88073 0.0
C467 C 0.4487 0.95889 0.88005 0.0
C468 C 0.45123 0.94257 0.90524 0.0
C469 C 0.46141 0.95503 0.93035 0.0
C470 C 0.4539 1.00601 0.85447 0.0
C471 C 0.44339 0.91178 0.90567 0.0
H472 H 0.37286 0.93381 0.81721 0.0
H473 H 0.46446 0.908 0.79511 0.0
H474 H 0.38455 0.9509 0.88697 0.0
H475 H 0.38884 0.98392 0.86919 0.0
H476 H 0.36028 0.96097 0.85747 0.0
H477 H 0.5056 0.91828 0.82359 0.0
H478 H 0.50016 0.95167 0.84244 0.0
H479 H 0.49695 0.91882 0.86086 0.0
H480 H 0.47265 0.02166 0.90645 0.0
H481 H 0.46342 0.9422 0.94939 0.0
H482 H 0.43039 1.00704 0.84629 0.0
H483 H 0.46863 0.99628 0.83764 0.0
H484 H 0.46042 0.02809 0.85844 0.0
H485 H 0.41958 0.91021 0.89898 0.0
H486 H 0.44648 0.90198 0.92695 0.0
H487 H 0.45776 0.89914 0.89038 0.0
C488 C 0.55425 0.44413 0.79348 0.0
C489 C 0.55546 0.4697 0.80866 0.0
C490 C 0.54948 0.44429 0.76417 0.0
C491 C 0.54545 0.47068 0.74982 0.0
C492 C 0.54606 0.49661 0.76514 0.0
C493 C 0.55135 0.4958 0.79442 0.0
C494 C 0.5495 0.41623 0.74847 0.0
C495 C 0.54143 0.52515 0.75054 0.0
C496 C 0.56317 0.47392 0.67157 0.0
C497 C 0.53429 0.47402 0.65951 0.0
C498 C 0.56716 0.47228 0.70096 0.0
C499 C 0.54159 0.47117 0.71863 0.0
C500 C 0.51239 0.47082 0.70652 0.0
C501 C 0.50911 0.47204 0.67701 0.0
C502 C 0.5987 0.47215 0.7131 0.0
C503 C 0.4846 0.46995 0.72475 0.0
H504 H 0.55789 0.42393 0.80446 0.0
H505 H 0.55219 0.51555 0.80624 0.0
H506 H 0.52807 0.41497 0.73653 0.0
H507 H 0.56813 0.41477 0.73283 0.0
H508 H 0.55231 0.39758 0.7629 0.0
H509 H 0.54115 0.54328 0.7657 0.0
H510 H 0.55977 0.52759 0.73502 0.0
H511 H 0.51981 0.52638 0.7386 0.0
H512 H 0.58262 0.47531 0.65795 0.0
H513 H 0.48676 0.47248 0.66763 0.0
H514 H 0.60327 0.45319 0.72682 0.0
H515 H 0.60077 0.49134 0.72651 0.0
H516 H 0.61624 0.47192 0.69637 0.0
H517 H 0.48656 0.45095 0.73872 0.0
H518 H 0.4636 0.46928 0.71198 0.0
H519 H 0.48259 0.48906 0.73863 0.0
C520 C 0.95583 0.52338 0.29318 0.0
C521 C 0.95292 0.5492 0.30807 0.0
C522 C 0.96101 0.52308 0.26388 0.0
C523 C 0.96258 0.54926 0.24925 0.0
C524 C 0.95947 0.57537 0.26426 0.0
C525 C 0.95492 0.575 0.29355 0.0
C526 C 0.96468 0.49482 0.24858 0.0
C527 C 0.96037 0.60371 0.24931 0.0
C528 C 0.99982 0.5489 0.17708 0.0
C529 C 0.97477 0.54812 0.15907 0.0
C530 C 0.9962 0.54932 0.20656 0.0
C531 C 0.9668 0.54941 0.21812 0.0
C532 C 0.94138 0.54954 0.19994 0.0
C533 C 0.9457 0.54865 0.17059 0.0
C534 C 0.02383 0.54887 0.22532 0.0
C535 C 0.90965 0.55022 0.2115 0.0
H536 H 0.9543 0.50348 0.30451 0.0
H537 H 0.95218 0.59499 0.30508 0.0
H538 H 0.94642 0.49341 0.23265 0.0
H539 H 0.98645 0.49312 0.23701 0.0
H540 H 0.96406 0.47639 0.26322 0.0
H541 H 0.95772 0.62208 0.26415 0.0
H542 H 0.98208 0.60477 0.23793 0.0
H543 H 0.94207 0.60591 0.23325 0.0
H544 H 0.02231 0.5481 0.16812 0.0
H545 H 0.92635 0.54815 0.15657 0.0
H546 H 0.02498 0.52944 0.23871 0.0
H547 H 0.02237 0.56755 0.23977 0.0
H548 H 0.04506 0.54915 0.21297 0.0
H549 H 0.90681 0.53078 0.22425 0.0
H550 H 0.8923 0.55141 0.19446 0.0
H551 H 0.90549 0.56887 0.22574 0.0
C552 C 0.31483 0.09981 0.12607 0.0
C553 C 0.28747 0.10405 0.11117 0.0
C554 C 0.34118 0.08804 0.11275 0.0
C555 C 0.34021 0.07993 0.08386 0.0
C556 C 0.31256 0.0838 0.06883 0.0
C557 C 0.28664 0.09592 0.08257 0.0
C558 C 0.3702 0.08464 0.12953 0.0
C559 C 0.31033 0.07513 0.03815 0.0
C560 C 0.41384 0.07423 0.04189 0.0
C561 C 0.42189 0.04479 0.04273 0.0
C562 C 0.3874 0.0859 0.05512 0.0
C563 C 0.36819 0.06772 0.06931 0.0
C564 C 0.37591 0.03793 0.0698 0.0
C565 C 0.40269 0.02687 0.0567 0.0
C566 C 0.38026 0.11778 0.05426 0.0
C567 C 0.35596 0.01771 0.08435 0.0
H568 H 0.3158 0.10629 0.14806 0.0
H569 H 0.26555 0.09879 0.07097 0.0
H570 H 0.37895 0.06195 0.12954 0.0
H571 H 0.38762 0.09712 0.11948 0.0
H572 H 0.36723 0.09188 0.1518 0.0
H573 H 0.28706 0.07892 0.02961 0.0
H574 H 0.32581 0.08727 0.02518 0.0
H575 H 0.31748 0.05215 0.03573 0.0
H576 H 0.42853 0.08833 0.03132 0.0
H577 H 0.4086 1.0041 0.05744 0.0
H578 H 0.37909 0.12644 0.07612 0.0
H579 H 0.35784 0.12268 0.04431 0.0
H580 H 0.3974 0.129 0.04229 0.0
H581 H 0.35429 0.02298 0.10721 0.0
H582 H 0.3646 0.99506 0.08212 0.0
H583 H 0.33278 0.02015 0.07543 0.0
C584 C 0.19887 0.92331 0.62589 0.0
C585 C 0.22597 0.9185 0.61087 0.0
C586 C 0.17262 0.93563 0.61272 0.0
C587 C 0.17348 0.94374 0.58386 0.0
C588 C 0.20089 0.93928 0.5687 0.0
C589 C 0.22669 0.92657 0.5823 0.0
C590 C 0.14382 0.9396 0.6296 0.0
C591 C 0.20299 0.94795 0.53806 0.0
C592 C 0.09943 0.95079 0.54228 0.0
C593 C 0.0919 0.98032 0.54337 0.0
C594 C 0.12584 0.93867 0.55528 0.0
C595 C 0.14559 0.95647 0.56946 0.0
C596 C 0.13842 0.98635 0.57016 0.0
C597 C 0.11162 0.99788 0.55731 0.0
C598 C 0.13236 0.90671 0.55425 0.0
C599 C 0.15899 1.00617 0.58468 0.0
H600 H 0.19801 0.91689 0.64787 0.0
H601 H 0.24761 0.92324 0.57062 0.0
H602 H 0.13562 0.96244 0.62976 0.0
H603 H 0.12597 0.92756 0.61953 0.0
H604 H 0.14686 0.93224 0.65182 0.0
H605 H 0.22612 0.94373 0.52944 0.0
H606 H 0.18709 0.93615 0.52507 0.0
H607 H 0.1963 0.97103 0.53576 0.0
H608 H 0.08432 0.93698 0.53173 0.0
H609 H 0.1061 0.0207 0.55823 0.0
H610 H 0.1336 0.898 0.57606 0.0
H611 H 0.15459 0.90143 0.54421 0.0
H612 H 0.11485 0.89582 0.54229 0.0
H613 H 0.1608 1.0009 0.60753 0.0
H614 H 0.15081 0.02895 0.58252 0.0
H615 H 0.18206 1.00327 0.57569 0.0
C616 C 0.77089 0.49862 0.97508 0.0
C617 C 0.75921 0.47202 0.97973 0.0
C618 C 0.80176 0.50233 0.97872 0.0
C619 C 0.82138 0.47891 0.98737 0.0
C620 C 0.80973 0.45206 0.99231 0.0
C621 C 0.7788 0.44892 0.98835 0.0
C622 C 0.8134 0.5313 0.97328 0.0
C623 C 0.82997 0.42662 1.00162 0.0
C624 C 0.90508 0.48232 0.97249 0.0
C625 C 0.91585 0.49155 0.99865 0.0
C626 C 0.87439 0.47788 0.96857 0.0
C627 C 0.85409 0.4826 0.99141 0.0
C628 C 0.86493 0.49136 0.01801 0.0
C629 C 0.89566 0.49581 0.02129 0.0
C630 C 0.8636 0.46861 0.93987 0.0
C631 C 0.844 0.49637 0.04292 0.0
H632 H 0.75584 0.51664 0.96875 0.0
H633 H 0.77004 0.42817 0.99153 0.0
H634 H 0.824 0.53931 0.99276 0.0
H635 H 0.83108 0.52959 0.95671 0.0
H636 H 0.79522 0.54724 0.96637 0.0
H637 H 0.81729 0.40731 1.00494 0.0
H638 H 0.84767 0.42166 0.98549 0.0
H639 H 0.84166 0.43161 0.02163 0.0
H640 H 0.92054 0.47903 0.9549 0.0
H641 H 0.90382 0.50282 0.04162 0.0
H642 H 0.84687 0.485 0.93127 0.0
H643 H 0.85206 0.44847 0.94179 0.0
H644 H 0.88238 0.46524 0.92449 0.0
H645 H 0.82655 0.51368 0.0379 0.0
H646 H 0.85617 0.50233 0.0624 0.0
H647 H 0.83205 0.47685 0.0473 0.0
C648 C 0.73616 0.53431 0.46125 0.0
C649 C 0.75116 0.55272 0.4791 0.0
C650 C 0.70567 0.52939 0.46545 0.0
C651 C 0.68949 0.54382 0.48754 0.0
C652 C 0.70431 0.56253 0.50554 0.0
C653 C 0.73504 0.56641 0.50138 0.0
C654 C 0.69075 0.50882 0.44616 0.0
C655 C 0.68765 0.57864 0.52906 0.0
C656 C 0.60403 0.55069 0.48058 0.0
C657 C 0.59558 0.52974 0.49949 0.0
C658 C 0.63453 0.55591 0.47689 0.0
C659 C 0.65705 0.53921 0.49189 0.0
C660 C 0.6486 0.5179 0.51087 0.0
C661 C 0.61792 0.51368 0.51472 0.0
C662 C 0.64266 0.5793 0.457 0.0
C663 C 0.67198 0.4992 0.52671 0.0
H664 H 0.74806 0.52401 0.44364 0.0
H665 H 0.74641 0.58021 0.5157 0.0
H666 H 0.6807 0.49204 0.45888 0.0
H667 H 0.6721 0.52025 0.43421 0.0
H668 H 0.70684 0.49835 0.43079 0.0
H669 H 0.7022 0.59318 0.54056 0.0
H670 H 0.66785 0.59144 0.5203 0.0
H671 H 0.67896 0.56341 0.54445 0.0
H672 H 0.58675 0.56322 0.46891 0.0
H673 H 0.61145 0.49727 0.52917 0.0
H674 H 0.65677 0.57012 0.43947 0.0
H675 H 0.65624 0.59471 0.46839 0.0
H676 H 0.62239 0.59107 0.4478 0.0
H677 H 0.68732 0.48758 0.51147 0.0
H678 H 0.66165 0.48337 0.54043 0.0
H679 H 0.68605 0.51252 0.54009 0.0
C680 C 0.10867 0.3219 0.10761 0.0
C681 C 0.08971 0.30038 0.11522 0.0
C682 C 0.09728 0.34705 0.09397 0.0
C683 C 0.06606 0.35103 0.08754 0.0
C684 C 0.04674 0.32949 0.09528 0.0
C685 C 0.05873 0.30456 0.10908 0.0
C686 C 0.11874 0.36947 0.0865 0.0
C687 C 0.01337 0.33268 0.08877 0.0
C688 C 0.03329 0.42756 0.07571 0.0
C689 C 0.0329 0.42981 0.04603 0.0
C690 C 0.04359 0.40208 0.08938 0.0
C691 C 0.05371 0.37791 0.07313 0.0
C692 C 0.05291 0.37984 0.04316 0.0
C693 C 0.04262 0.40571 0.03001 0.0
C694 C 0.04414 0.40119 0.12131 0.0
C695 C 0.0633 0.35465 0.02496 0.0
H696 H 0.13255 0.31919 0.11257 0.0
H697 H 0.04388 0.28803 0.11454 0.0
H698 H 0.11818 0.37339 0.06336 0.0
H699 H 0.11158 0.38994 0.09704 0.0
H700 H 0.14238 0.3632 0.09288 0.0
H701 H 1.00135 0.31405 0.09602 0.0
H702 H 1.00305 0.3522 0.0991 0.0
H703 H 0.00983 0.33525 0.06564 0.0
H704 H 0.02589 0.44595 0.08842 0.0
H705 H 0.04243 0.40708 1.00712 0.0
H706 H 0.06769 0.39687 0.12889 0.0
H707 H 0.03093 0.38356 0.12902 0.0
H708 H 0.03479 0.4215 0.13092 0.0
H709 H 0.08758 0.3488 0.02899 0.0
H710 H 0.06015 0.35913 1.00203 0.0
H711 H 0.05069 0.33585 0.03053 0.0
C712 C 0.53023 0.30041 0.99781 0.0
C713 C 0.55891 0.30806 0.98959 0.0
C714 C 0.52289 0.2718 0.99701 0.0
C715 C 0.54467 0.25053 0.98748 0.0
C716 C 0.57372 0.25814 0.97942 0.0
C717 C 0.58051 0.2868 0.98067 0.0
C718 C 0.49183 0.26435 1.00612 0.0
C719 C 0.59748 0.23607 0.96899 0.0
C720 C 0.53999 0.17285 1.00693 0.0
C721 C 0.52867 0.16151 0.9819 0.0
C722 C 0.54431 0.202 0.00937 0.0
C723 C 0.53738 0.22019 0.98609 0.0
C724 C 0.52522 0.20899 0.96097 0.0
C725 C 0.5208 0.17971 0.95924 0.0
C726 C 0.55696 0.2132 0.03661 0.0
C727 C 0.5178 0.22776 0.93565 0.0
H728 H 0.51354 0.31683 1.00476 0.0
H729 H 0.6025 0.29271 0.97377 0.0
H730 H 0.48007 0.25448 0.98823 0.0
H731 H 0.49371 0.24841 0.02345 0.0
H732 H 0.47771 0.28334 0.01353 0.0
H733 H 0.61895 0.24556 0.96347 0.0
H734 H 0.60229 0.21954 0.98543 0.0
H735 H 0.58904 0.22514 0.95 0.0
H736 H 0.54552 0.15882 0.02468 0.0
H737 H 0.51203 0.17088 0.93992 0.0
H738 H 0.5422 0.23145 0.04461 0.0
H739 H 0.57954 0.22117 0.03269 0.0
H740 H 0.55924 0.19658 0.05333 0.0
H741 H 0.50235 0.24626 0.94186 0.0
H742 H 0.50711 0.21604 0.91827 0.0
H743 H 0.53876 0.23638 0.9275 0.0
C744 C 0.9829 0.72556 0.4879 0.0
C745 C 0.95392 0.71861 0.47968 0.0
C746 C 0.99089 0.75398 0.48749 0.0
C747 C 0.96943 0.77576 0.4784 0.0
C748 C 0.94019 0.76881 0.47 0.0
C749 C 0.93277 0.74032 0.47082 0.0
C750 C 0.02216 0.76072 0.49689 0.0
C751 C 0.91676 0.79145 0.46002 0.0
C752 C 0.97459 0.85236 0.5016 0.0
C753 C 0.98583 0.86479 0.47721 0.0
C754 C 0.97018 0.82316 0.50259 0.0
C755 C 0.97699 0.80604 0.4785 0.0
C756 C 0.98917 0.8183 0.45405 0.0
C757 C 0.99365 0.84763 0.45376 0.0
C758 C 0.95747 0.81081 0.52915 0.0
C759 C 0.9965 0.80067 0.42793 0.0
H760 H 0.99924 0.70878 0.49479 0.0
H761 H 0.91055 0.73492 0.4639 0.0
H762 H 0.03368 0.77167 0.47964 0.0
H763 H 0.02061 0.77552 0.51522 0.0
H764 H 0.0363 0.74126 0.50301 0.0
H765 H 0.8953 0.78236 0.45359 0.0
H766 H 0.9118 0.80727 0.47713 0.0
H767 H 0.92556 0.80313 0.44177 0.0
H768 H 0.96911 0.86558 0.51995 0.0
H769 H 1.00238 0.8573 0.43494 0.0
H770 H 0.97212 0.79213 0.53638 0.0
H771 H 0.93483 0.80318 0.52465 0.0
H772 H 0.95531 0.82665 0.54665 0.0
H773 H 0.01164 0.7817 0.43342 0.0
H774 H 0.0075 0.81304 0.41133 0.0
H775 H 0.97545 0.79276 0.41903 0.0
C776 C 0.4061 0.71021 0.59163 0.0
C777 C 0.42321 0.7234 0.61248 0.0
C778 C 0.41688 0.68482 0.57802 0.0
C779 C 0.44614 0.67253 0.58434 0.0
C780 C 0.46405 0.68612 0.60452 0.0
C781 C 0.45227 0.71095 0.61861 0.0
C782 C 0.39662 0.67084 0.55718 0.0
C783 C 0.49567 0.67425 0.61147 0.0
C784 C 0.46388 0.59279 0.5711 0.0
C785 C 0.47757 0.59246 0.54435 0.0
C786 C 0.45336 0.61856 0.58412 0.0
C787 C 0.45748 0.64494 0.5706 0.0
C788 C 0.47186 0.64477 0.5438 0.0
C789 C 0.48122 0.61856 0.53078 0.0
C790 C 0.43731 0.61748 0.61218 0.0
C791 C 0.47761 0.67231 0.52899 0.0
H792 H 0.38407 0.71967 0.58572 0.0
H793 H 0.46585 0.72028 0.63479 0.0
H794 H 0.4074 0.66946 0.53605 0.0
H795 H 0.39322 0.64869 0.56403 0.0
H796 H 0.37417 0.68263 0.55505 0.0
H797 H 0.50771 0.68859 0.62567 0.0
H798 H 0.49483 0.6532 0.62194 0.0
H799 H 0.50895 0.67082 0.59175 0.0
H800 H 0.46073 0.57272 0.58163 0.0
H801 H 0.49197 0.6185 0.51022 0.0
H802 H 0.41435 0.62828 0.61036 0.0
H803 H 0.44967 0.62909 0.6285 0.0
H804 H 0.43519 0.59526 0.61958 0.0
H805 H 0.45588 0.68435 0.52407 0.0
H806 H 0.49038 0.66865 0.50899 0.0
H807 H 0.49055 0.68596 0.54312 0.0
C808 C 0.89622 0.93162 0.69569 0.0
C809 C 0.91659 0.91753 0.71474 0.0
C810 C 0.90626 0.94488 0.67102 0.0
C811 C 0.93754 0.94405 0.66484 0.0
C812 C 0.95825 0.92979 0.68386 0.0
C813 C 0.94758 0.91678 0.70846 0.0
C814 C 0.88329 0.95966 0.65142 0.0
C815 C 0.99176 0.92826 0.6782 0.0
C816 C 0.96151 0.95421 0.58798 0.0
C817 C 0.96926 0.98277 0.58762 0.0
C818 C 0.95126 0.94146 0.61282 0.0
C819 C 0.94848 0.95752 0.6382 0.0
C820 C 0.95602 0.98643 0.63798 0.0
C821 C 0.96633 0.99866 0.6128 0.0
C822 C 0.94358 0.91063 0.61188 0.0
C823 C 0.9533 1.00445 0.66444 0.0
H824 H 0.87221 0.93202 0.69985 0.0
H825 H 0.96367 0.90636 0.72303 0.0
H826 H 0.88838 0.98228 0.64853 0.0
H827 H 0.88452 0.94937 0.63026 0.0
H828 H 0.85986 0.95904 0.65948 0.0
H829 H 0.00498 0.91652 0.69501 0.0
H830 H 0.99662 0.91749 0.65764 0.0
H831 H 0.99965 0.95012 0.67661 0.0
H832 H 0.96367 0.94158 0.56878 0.0
H833 H 0.97226 0.02068 0.6129 0.0
H834 H 0.91972 0.90891 0.61818 0.0
H835 H 0.95785 0.89793 0.62724 0.0
H836 H 0.94693 0.90102 0.59053 0.0
H837 H 0.92972 1.00538 0.67227 0.0
H838 H 0.95982 0.02658 0.66085 0.0
H839 H 0.96789 0.99459 0.68137 0.0
C840 C 0.56707 0.10618 0.20828 0.0
C841 C 0.59811 0.10585 0.21449 0.0
C842 C 0.5564 0.09307 0.18365 0.0
C843 C 0.57713 0.07908 0.16458 0.0
C844 C 0.60844 0.07858 0.17073 0.0
C845 C 0.6185 0.09196 0.19543 0.0
C846 C 0.52285 0.09426 0.17799 0.0
C847 C 0.63142 0.06407 0.15105 0.0
C848 C 0.54826 0.02483 0.1119 0.0
C849 C 0.54496 0.04102 0.08698 0.0
C850 C 0.5588 0.03683 0.13721 0.0
C851 C 0.56617 0.06578 0.13779 0.0
C852 C 0.56304 0.08213 0.11265 0.0
C853 C 0.5526 0.0696 0.08769 0.0
C854 C 0.56191 0.01854 0.16341 0.0
C855 C 0.57051 0.11303 0.11213 0.0
H856 H 0.55098 0.11641 0.2229 0.0
H857 H 0.64253 0.09186 0.19957 0.0
H858 H 0.51771 0.10522 0.15758 0.0
H859 H 0.51523 0.07231 0.17608 0.0
H860 H 0.50961 0.10567 0.19495 0.0
H861 H 0.65486 0.06473 0.15922 0.0
H862 H 0.62645 0.04145 0.14785 0.0
H863 H 0.63007 0.07455 0.13002 0.0
H864 H 0.54243 1.00279 0.1117 0.0
H865 H 0.55016 0.08245 0.06869 0.0
H866 H 0.54732 0.02806 0.18045 0.0
H867 H 0.58554 0.01778 0.17128 0.0
H868 H 0.55564 0.99636 0.1595 0.0
H869 H 0.55624 0.1255 0.12762 0.0
H870 H 0.56698 0.12283 0.0909 0.0
H871 H 0.59439 0.11484 0.1185 0.0
C872 C 0.43369 0.54205 0.22878 0.0
C873 C 0.4575 0.54398 0.20958 0.0
C874 C 0.43903 0.54097 0.25799 0.0
C875 C 0.46888 0.54213 0.26831 0.0
C876 C 0.49309 0.5438 0.24911 0.0
C877 C 0.48712 0.54457 0.21994 0.0
C878 C 0.41265 0.53895 0.27785 0.0
C879 C 0.52521 0.54509 0.25941 0.0
C880 C 0.47613 0.56552 0.34481 0.0
C881 C 0.48078 0.53917 0.35859 0.0
C882 C 0.47307 0.56688 0.31526 0.0
C883 C 0.47462 0.54129 0.29925 0.0
C884 C 0.48015 0.51472 0.31298 0.0
C885 C 0.48332 0.51401 0.34245 0.0
C886 C 0.4674 0.59562 0.30124 0.0
C887 C 0.48191 0.48699 0.29662 0.0
H888 H 0.41067 0.54216 0.22102 0.0
H889 H 0.50566 0.54577 0.20522 0.0
H890 H 0.41631 0.5198 0.29148 0.0
H891 H 0.41082 0.55786 0.292 0.0
H892 H 0.3909 0.53767 0.26637 0.0
H893 H 0.54147 0.54639 0.24172 0.0
H894 H 0.527 0.56397 0.27332 0.0
H895 H 0.53186 0.52591 0.27225 0.0
H896 H 0.47405 0.58501 0.35718 0.0
H897 H 0.48766 0.49361 0.35292 0.0
H898 H 0.44464 0.59713 0.29134 0.0
H899 H 0.48405 0.59813 0.28412 0.0
H900 H 0.46876 0.61355 0.31645 0.0
H901 H 0.45993 0.48411 0.28612 0.0
H902 H 0.48758 0.46822 0.31039 0.0
H903 H 0.49918 0.48747 0.27975 0.0
C904 C 0.05383 0.49777 0.72647 0.0
C905 C 0.05648 0.47183 0.71176 0.0
C906 C 0.049 0.49834 0.75581 0.0
C907 C 0.04741 0.47231 0.77068 0.0
C908 C 0.05005 0.44607 0.75585 0.0
C909 C 0.05435 0.44617 0.72651 0.0
C910 C 0.04584 0.52674 0.77092 0.0
C911 C 0.04902 0.41789 0.77105 0.0
C912 C 0.06584 0.47362 0.849 0.0
C913 C 0.037 0.47458 0.86102 0.0
C914 C 0.06958 0.4723 0.81959 0.0
C915 C 0.04379 0.47246 0.80187 0.0
C916 C 0.01461 0.47302 0.81395 0.0
C917 C 0.01157 0.47384 0.84347 0.0
C918 C 0.10109 0.47115 0.80748 0.0
C919 C 0.9866 0.47355 0.79568 0.0
H920 H 0.0554 0.51758 0.71499 0.0
H921 H 0.05687 0.42608 0.71514 0.0
H922 H 0.02432 0.52868 0.78288 0.0
H923 H 0.06445 0.52816 0.78648 0.0
H924 H 0.04628 0.54504 0.75609 0.0
H925 H 0.05101 0.3994 0.75631 0.0
H926 H 0.0677 0.41552 0.78672 0.0
H927 H 0.02757 0.41723 0.78292 0.0
H928 H 0.08547 0.47409 0.86268 0.0
H929 H 0.98925 0.47497 0.85283 0.0
H930 H 0.10392 0.49041 0.79446 0.0
H931 H 0.10475 0.45233 0.79337 0.0
H932 H 0.11877 0.46993 0.82422 0.0
H933 H 0.98536 0.49289 0.78214 0.0
H934 H 0.96561 0.47356 0.80841 0.0
H935 H 0.9876 0.45477 0.78137 0.0
C936 C 0.72764 0.92824 0.93695 0.0
C937 C 0.72699 0.92004 0.90837 0.0
C938 C 0.70165 0.94045 0.95052 0.0
C939 C 0.6741 0.9443 0.93531 0.0
C940 C 0.67331 0.93609 0.90644 0.0
C941 C 0.69973 0.92426 0.89331 0.0
C942 C 0.70369 0.94922 0.98117 0.0
C943 C 0.6444 0.93946 0.88949 0.0
C944 C 0.6002 0.95015 0.9768 0.0
C945 C 0.59216 0.97959 0.97582 0.0
C946 C 0.62673 0.93844 0.96378 0.0
C947 C 0.64604 0.95657 0.94965 0.0
C948 C 0.63833 0.98636 0.94903 0.0
C949 C 0.61146 0.99747 0.96193 0.0
C950 C 0.63385 0.90656 0.96477 0.0
C951 C 0.6584 1.00652 0.93455 0.0
H952 H 0.74865 0.92539 0.94868 0.0
H953 H 0.69891 0.91771 0.87133 0.0
H954 H 0.69654 0.9722 0.9835 0.0
H955 H 0.6881 0.93713 0.99409 0.0
H956 H 0.7269 0.94543 0.98986 0.0
H957 H 0.6475 0.93215 0.86725 0.0
H958 H 0.6269 0.92705 0.89948 0.0
H959 H 0.63568 0.96217 0.88936 0.0
H960 H 0.58544 0.93609 0.98733 0.0
H961 H 0.60556 0.02023 0.96109 0.0
H962 H 0.6562 0.90168 0.97487 0.0
H963 H 0.63519 0.89782 0.94294 0.0
H964 H 0.61663 0.89538 0.97666 0.0
H965 H 0.68152 1.0041 0.94362 0.0
H966 H 0.64976 0.02919 0.93666 0.0
H967 H 0.66023 1.00118 0.91172 0.0
C968 C 0.78443 0.09617 0.43995 0.0
C969 C 0.78488 0.105 0.41158 0.0
C970 C 0.81068 0.08425 0.45342 0.0
C971 C 0.83826 0.0813 0.43832 0.0
C972 C 0.83887 0.09024 0.4097 0.0
C973 C 0.81221 0.10181 0.39668 0.0
C974 C 0.80888 0.0747 0.48381 0.0
C975 C 0.86779 0.08783 0.39288 0.0
C976 C 0.91248 0.07529 0.47975 0.0
C977 C 0.92095 0.04598 0.47782 0.0
C978 C 0.88565 0.08701 0.46713 0.0
C979 C 0.86651 0.06901 0.45244 0.0
C980 C 0.87466 0.03934 0.45087 0.0
C981 C 0.90178 0.02823 0.46341 0.0
C982 C 0.87804 0.11878 0.46915 0.0
C983 C 0.8548 0.01931 0.43572 0.0
H984 H 0.76337 0.09824 0.45155 0.0
H985 H 0.81289 0.10887 0.37488 0.0
H986 H 0.81623 0.0517 0.4855 0.0
H987 H 0.82442 0.08657 0.49713 0.0
H988 H 0.78569 0.07808 0.49251 0.0
H989 H 0.86456 0.09582 0.3709 0.0
H990 H 0.8851 0.10017 0.40345 0.0
H991 H 0.87684 0.06524 0.39203 0.0
H992 H 0.92712 0.08926 0.49071 0.0
H993 H 0.90802 1.00556 0.46184 0.0
H994 H 0.85564 0.12304 0.47922 0.0
H995 H 0.87656 0.12816 0.44761 0.0
H996 H 0.89508 0.12984 0.48154 0.0
H997 H 0.83171 0.02121 0.44475 0.0
H998 H 0.86375 0.99668 0.43721 0.0
H999 H 0.8528 0.02523 0.41305 0.0
C1000 C 0.24268 0.52524 0.04268 0.0
C1001 C 0.25421 0.55206 0.03895 0.0
C1002 C 0.21178 0.52156 0.03924 0.0
C1003 C 0.19197 0.54523 0.03167 0.0
C1004 C 0.20346 0.57229 0.02755 0.0
C1005 C 0.23443 0.5754 0.03134 0.0
C1006 C 0.20033 0.49237 0.04381 0.0
C1007 C 0.18301 0.59799 0.01934 0.0
C1008 C 0.1173 0.52899 0.99814 0.0
C1009 C 0.09747 0.53234 0.02114 0.0
C1010 C 0.14801 0.53361 1.00116 0.0
C1011 C 0.15922 0.54157 0.02789 0.0
C1012 C 0.13927 0.54539 0.05111 0.0
C1013 C 0.10856 0.54084 0.04743 0.0
C1014 C 0.16855 0.52961 0.97584 0.0
C1015 C 0.15047 0.55375 0.07996 0.0
H1016 H 0.25787 0.50703 0.04819 0.0
H1017 H 0.24306 0.5963 0.02886 0.0
H1018 H 0.1829 0.49343 0.06063 0.0
H1019 H 0.18945 0.48502 0.02419 0.0
H1020 H 0.21865 0.47625 0.04996 0.0
H1021 H 0.1956 0.61743 0.01645 0.0
H1022 H 0.17097 0.59364 0.99935 0.0
H1023 H 0.16562 0.60237 0.03587 0.0
H1024 H 0.10886 0.52258 0.9777 0.0
H1025 H 0.09338 0.54343 0.0653 0.0
H1026 H 0.18612 0.51217 0.98002 0.0
H1027 H 0.18037 0.54932 0.97204 0.0
H1028 H 0.15608 0.52435 0.95631 0.0
H1029 H 0.16738 0.53712 0.08785 0.0
H1030 H 0.13191 0.55653 0.09566 0.0
H1031 H 0.1619 0.57398 0.07856 0.0
C1032 C 0.26888 0.49656 0.5427 0.0
C1033 C 0.25725 0.46982 0.5385 0.0
C1034 C 0.29968 0.50032 0.53887 0.0
C1035 C 0.3193 0.47684 0.53044 0.0
C1036 C 0.30767 0.4499 0.52575 0.0
C1037 C 0.27681 0.44668 0.52994 0.0
C1038 C 0.31127 0.52939 0.54406 0.0
C1039 C 0.3279 0.4244 0.51662 0.0
C1040 C 0.39364 0.49381 0.49718 0.0
C1041 C 0.41372 0.48985 0.52005 0.0
C1042 C 0.36294 0.48914 0.50013 0.0
C1043 C 0.35202 0.48051 0.52664 0.0
C1044 C 0.37223 0.47609 0.54971 0.0
C1045 C 0.40289 0.48071 0.54611 0.0
C1046 C 0.34212 0.4938 0.47498 0.0
C1047 C 0.36135 0.46702 0.57835 0.0
H1048 H 0.25386 0.51462 0.54892 0.0
H1049 H 0.2681 0.42586 0.52706 0.0
H1050 H 0.32888 0.52795 0.56082 0.0
H1051 H 0.32196 0.5371 0.52459 0.0
H1052 H 0.29306 0.54543 0.55061 0.0
H1053 H 0.31518 0.40512 0.51312 0.0
H1054 H 0.33973 0.42931 0.49676 0.0
H1055 H 0.34548 0.41944 0.53296 0.0
H1056 H 0.40187 0.50072 0.47692 0.0
H1057 H 0.41826 0.47765 0.56389 0.0
H1058 H 0.32466 0.51119 0.47966 0.0
H1059 H 0.33018 0.47424 0.47068 0.0
H1060 H 0.35439 0.4995 0.45556 0.0
H1061 H 0.34455 0.48345 0.58673 0.0
H1062 H 0.38007 0.46381 0.59392 0.0
H1063 H 0.34986 0.44684 0.5764 0.0
C1064 C 0.90561 0.70208 0.91224 0.0
C1065 C 0.92467 0.72356 0.90475 0.0
C1066 C 0.91685 0.67688 0.92589 0.0
C1067 C 0.94802 0.67282 0.93247 0.0
C1068 C 0.96746 0.69431 0.92485 0.0
C1069 C 0.95561 0.71929 0.91103 0.0
C1070 C 0.89527 0.65452 0.93322 0.0
C1071 C 1.00079 0.69102 0.93151 0.0
C1072 C 0.97096 0.61801 0.99004 0.0
C1073 C 0.98067 0.59389 0.97403 0.0
C1074 C 0.96085 0.64392 0.97687 0.0
C1075 C 0.96021 0.64588 0.9469 0.0
C1076 C 0.97032 0.62171 0.93067 0.0
C1077 C 0.98044 0.59617 0.94435 0.0
C1078 C 0.95045 0.66912 0.99505 0.0
C1079 C 0.96996 0.62263 0.89873 0.0
H1080 H 0.88176 0.70485 0.90716 0.0
H1081 H 0.97054 0.73578 0.90567 0.0
H1082 H 0.90244 0.63404 0.92269 0.0
H1083 H 0.8957 0.65058 0.95636 0.0
H1084 H 0.87169 0.66085 0.92674 0.0
H1085 H 0.01291 0.70962 0.92432 0.0
H1086 H 0.00421 0.68843 0.95465 0.0
H1087 H 0.0111 0.67148 0.92121 0.0
H1088 H 0.97103 0.61662 0.01292 0.0
H1089 H 0.98784 0.57778 0.93165 0.0
H1090 H 0.92622 0.67506 0.99092 0.0
H1091 H 0.96318 0.68788 0.98956 0.0
H1092 H 0.95347 0.66462 0.01799 0.0
H1093 H 0.94646 0.62702 0.89104 0.0
H1094 H 0.9793 0.6023 0.88914 0.0
H1095 H 0.98328 0.64023 0.89112 0.0
C1096 C 0.48379 0.72383 0.02569 0.0
C1097 C 0.45501 0.71641 0.03383 0.0
C1098 C 0.49125 0.75241 0.02614 0.0
C1099 C 0.46948 0.77389 0.03523 0.0
C1100 C 0.44037 0.76649 0.04336 0.0
C1101 C 0.43347 0.73785 0.04247 0.0
C1102 C 0.52237 0.75962 0.01698 0.0
C1103 C 0.41661 0.78879 0.05334 0.0
C1104 C 0.49324 0.84545 0.06162 0.0
C1105 C 0.48545 0.86302 0.03847 0.0
C1106 C 0.48883 0.81613 0.06067 0.0
C1107 C 0.47674 0.80426 0.03584 0.0
C1108 C 0.46987 0.8218 0.01209 0.0
C1109 C 0.4742 0.85101 0.01374 0.0
C1110 C 0.49618 0.79805 0.08648 0.0
C1111 C 0.4573 0.80987 0.98514 0.0
H1112 H 0.50043 0.70726 0.01896 0.0
H1113 H 0.41139 0.73211 0.04931 0.0
H1114 H 0.5206 0.77496 0.99913 0.0
H1115 H 0.53394 0.77012 0.03461 0.0
H1116 H 0.5366 0.74043 0.01027 0.0
H1117 H 0.39518 0.77942 0.0592 0.0
H1118 H 0.42509 0.80023 0.072 0.0
H1119 H 0.41172 0.80487 0.03649 0.0
H1120 H 0.50195 0.85479 0.08071 0.0
H1121 H 0.46873 0.86455 0.99562 0.0
H1122 H 0.51163 0.77938 0.08077 0.0
H1123 H 0.4752 0.78968 0.09486 0.0
H1124 H 0.50685 0.81022 0.10355 0.0
H1125 H 0.4721 0.79144 0.97761 0.0
H1126 H 0.45501 0.82604 0.968 0.0
H1127 H 0.43473 0.80197 0.98927 0.0
C1128 C 0.05633 0.29117 0.51457 0.0
C1129 C 0.04845 0.31009 0.53672 0.0
C1130 C 0.05026 0.26227 0.51627 0.0
C1131 C 0.03606 0.25215 0.54073 0.0
C1132 C 0.02727 0.27131 0.56276 0.0
C1133 C 0.03361 0.30003 0.56051 0.0
C1134 C 0.05979 0.24243 0.49227 0.0
C1135 C 0.01214 0.26128 0.58918 0.0
C1136 C 1.00169 0.18047 0.53627 0.0
C1137 C 0.02483 0.16218 0.54782 0.0
C1138 C 0.00484 0.20991 0.53417 0.0
C1139 C 0.03174 0.22125 0.54387 0.0
C1140 C 0.05482 0.20301 0.55626 0.0
C1141 C 0.05108 0.17366 0.55807 0.0
C1142 C 0.97974 0.22874 0.52088 0.0
C1143 C 0.08373 0.2144 0.56708 0.0
H1144 H 0.06758 0.2989 0.49607 0.0
H1145 H 0.02795 0.3144 0.57796 0.0
H1146 H 0.07722 0.22613 0.49986 0.0
H1147 H 0.04028 0.2309 0.48472 0.0
H1148 H 0.06914 0.25393 0.47413 0.0
H1149 H 0.00499 0.27922 0.60354 0.0
H1150 H 0.99202 0.24965 0.58353 0.0
H1151 H 0.02791 0.24615 0.60086 0.0
H1152 H 0.98155 0.17163 0.52792 0.0
H1153 H 0.06889 0.1596 0.56722 0.0
H1154 H 0.98802 0.2385 0.50126 0.0
H1155 H 0.97256 0.24645 0.53545 0.0
H1156 H 0.95975 0.21676 0.51549 0.0
H1157 H 0.09579 0.22414 0.54941 0.0
H1158 H 0.09907 0.19748 0.57685 0.0
H1159 H 0.07857 0.2314 0.58301 0.0
C1160 C 0.59621 0.32365 0.39963 0.0
C1161 C 0.58448 0.29753 0.40635 0.0
C1162 C 0.58593 0.34912 0.41343 0.0
C1163 C 0.56268 0.34867 0.43394 0.0
C1164 C 0.55032 0.32236 0.44032 0.0
C1165 C 0.56167 0.2971 0.4268 0.0
C1166 C 0.60034 0.37643 0.40643 0.0
C1167 C 0.52497 0.3209 0.46136 0.0
C1168 C 0.55318 0.40908 0.48845 0.0
C1169 C 0.53088 0.42756 0.47583 0.0
C1170 C 0.56385 0.38351 0.47502 0.0
C1171 C 0.55134 0.37569 0.44868 0.0
C1172 C 0.52821 0.39394 0.43626 0.0
C1173 C 0.51863 0.41977 0.44972 0.0
C1174 C 0.58906 0.36518 0.48872 0.0
C1175 C 0.51357 0.38621 0.40867 0.0
H1176 H 0.61406 0.32402 0.38405 0.0
H1177 H 0.55248 0.27695 0.43198 0.0
H1178 H 0.58309 0.39244 0.39801 0.0
H1179 H 0.60984 0.38559 0.42592 0.0
H1180 H 0.61868 0.37311 0.39058 0.0
H1181 H 0.51698 0.29907 0.46315 0.0
H1182 H 0.53254 0.32775 0.48254 0.0
H1183 H 0.50564 0.33578 0.45501 0.0
H1184 H 0.56299 0.41506 0.50846 0.0
H1185 H 0.5013 0.43385 0.43986 0.0
H1186 H 0.60864 0.36274 0.47417 0.0
H1187 H 0.58161 0.34351 0.49284 0.0
H1188 H 0.59665 0.37435 0.50901 0.0
H1189 H 0.53059 0.3851 0.39151 0.0
H1190 H 0.49483 0.40189 0.40253 0.0
H1191 H 0.50459 0.36479 0.41033 0.0
loop_
_geom_bond_atom_site_label_1
_geom_bond_atom_site_label_2
_geom_bond_distance
_geom_bond_site_symmetry_2
_ccdc_geom_bond_type
C0 C1 1.384 . S
C0 H13 0.947 . S
C0 C35 1.382 . S
C1 C0 1.384 . S
C1 C2 1.378 . S
C2 C1 1.378 . S
C2 C3 1.378 . S
C2 H14 0.952 . S
C3 C2 1.378 . S
C3 H15 0.950 . S
C3 C34 1.383 . S
H4 C23 0.947 . S
H5 C24 0.946 . S
H6 C26 0.953 . S
H7 C27 0.945 . S
H8 C29 0.952 . S
H9 C30 0.949 . S
H10 C32 0.950 . S
H11 C33 0.948 . S
H12 C35 0.951 . S
H13 C0 0.947 . S
H14 C2 0.952 . S
H15 C3 0.950 . S
N16 C19 1.382 . S
N16 C21 1.363 . S
N17 C19 1.371 . S
N17 C20 1.372 . S
N18 C20 1.361 . S
N18 C21 1.377 . S
C19 N16 1.382 . S
C19 N17 1.371 . S
C19 C22 1.480 . S
C20 N17 1.372 . S
C20 N18 1.361 . S
C20 C28 1.457 . S
C21 N16 1.363 . S
C21 N18 1.377 . S
C21 C34 1.479 . S
C22 C19 1.480 . S
C22 C23 1.383 . S
C22 C27 1.385 . S
C23 H4 0.947 . S
C23 C22 1.383 . S
C23 C24 1.388 . S
C24 H5 0.946 . S
C24 C23 1.388 . S
C24 C25 1.384 . S
C25 C24 1.384 . S
C25 C26 1.377 . S
C26 H6 0.953 . S
C26 C25 1.377 . S
C26 C27 1.369 . S
C27 H7 0.945 . S
C27 C22 1.385 . S
C27 C26 1.369 . S
C28 C20 1.457 . S
C28 C29 1.372 . S
C28 C33 1.364 . S
C29 H8 0.952 . S
C29 C28 1.372 . S
C29 C30 1.389 . S
C30 H9 0.949 . S
C30 C29 1.389 . S
C30 C31 1.387 . S
C31 C30 1.387 . S
C31 C32 1.372 . S
C32 H10 0.950 . S
C32 C31 1.372 . S
C32 C33 1.379 . S
C33 H11 0.948 . S
C33 C28 1.364 . S
C33 C32 1.379 . S
C34 C3 1.383 . S
C34 C21 1.479 . S
C34 C35 1.398 . S
C35 C0 1.382 . S
C35 H12 0.951 . S
C35 C34 1.398 . S
C36 C37 1.384 . S
C36 H49 0.947 . S
C36 C71 1.382 . S
C37 C36 1.384 . S
C37 C38 1.378 . S
C38 C37 1.378 . S
C38 C39 1.378 . S
C38 H50 0.952 . S
C39 C38 1.378 . S
C39 H51 0.950 . S
C39 C70 1.383 . S
H40 C59 0.947 . S
H41 C60 0.946 . S
H42 C62 0.953 . S
H43 C63 0.945 . S
H44 C65 0.952 . S
H45 C66 0.949 . S
H46 C68 0.950 . S
H47 C69 0.948 . S
H48 C71 0.951 . S
H49 C36 0.947 . S
H50 C38 0.952 . S
H51 C39 0.950 . S
N52 C55 1.382 . S
N52 C57 1.363 . S
N53 C55 1.371 . S
N53 C56 1.372 . S
N54 C56 1.361 . S
N54 C57 1.377 . S
C55 N52 1.382 . S
C55 N53 1.371 . S
C55 C58 1.480 . S
C56 N53 1.372 . S
C56 N54 1.361 . S
C56 C64 1.457 . S
C57 N52 1.363 . S
C57 N54 1.377 . S
C57 C70 1.479 . S
C58 C55 1.480 . S
C58 C59 1.383 . S
C58 C63 1.385 . S
C59 H40 0.947 . S
C59 C58 1.383 . S
C59 C60 1.388 . S
C60 H41 0.946 . S
C60 C59 1.388 . S
C60 C61 1.384 . S
C61 C60 1.384 . S
C61 C62 1.377 . S
C62 H42 0.953 . S
C62 C61 1.377 . S
C62 C63 1.369 . S
C63 H43 0.945 . S
C63 C58 1.385 . S
C63 C62 1.369 . S
C64 C56 1.457 . S
C64 C65 1.372 . S
C64 C69 1.364 . S
C65 H44 0.952 . S
C65 C64 1.372 . S
C65 C66 1.389 . S
C66 H45 0.949 . S
C66 C65 1.389 . S
C66 C67 1.387 . S
C67 C66 1.387 . S
C67 C68 1.372 . S
C68 H46 0.950 . S
C68 C67 1.372 . S
C68 C69 1.379 . S
C69 H47 0.948 . S
C69 C64 1.364 . S
C69 C68 1.379 . S
C70 C39 1.383 . S
C70 C57 1.479 . S
C70 C71 1.398 . S
C71 C36 1.382 . S
C71 H48 0.951 . S
C71 C70 1.398 . S
C72 C73 1.384 . S
C72 H85 0.947 . S
C72 C107 1.382 . S
C73 C72 1.384 . S
C73 C74 1.378 . S
C74 C73 1.378 . S
C74 C75 1.378 . S
C74 H86 0.952 . S
C75 C74 1.378 . S
C75 H87 0.950 . S
C75 C106 1.383 . S
H76 C95 0.947 . S
H77 C96 0.946 . S
H78 C98 0.953 . S
H79 C99 0.945 . S
H80 C101 0.952 . S
H81 C102 0.949 . S
H82 C104 0.950 . S
H83 C105 0.948 . S
H84 C107 0.951 . S
H85 C72 0.947 . S
H86 C74 0.952 . S
H87 C75 0.950 . S
N88 C91 1.382 . S
N88 C93 1.363 . S
N89 C91 1.371 . S
N89 C92 1.372 . S
N90 C92 1.361 . S
N90 C93 1.377 . S
C91 N88 1.382 . S
C91 N89 1.371 . S
C91 C94 1.480 . S
C92 N89 1.372 . S
C92 N90 1.361 . S
C92 C100 1.457 . S
C93 N88 1.363 . S
C93 N90 1.377 . S
C93 C106 1.479 . S
C94 C91 1.480 . S
C94 C95 1.383 . S
C94 C99 1.385 . S
C95 H76 0.947 . S
C95 C94 1.383 . S
C95 C96 1.388 . S
C96 H77 0.946 . S
C96 C95 1.388 . S
C96 C97 1.384 . S
C97 C96 1.384 . S
C97 C98 1.377 . S
C98 H78 0.953 . S
C98 C97 1.377 . S
C98 C99 1.369 . S
C99 H79 0.945 . S
C99 C94 1.385 . S
C99 C98 1.369 . S
C100 C92 1.457 . S
C100 C101 1.372 . S
C100 C105 1.364 . S
C101 H80 0.952 . S
C101 C100 1.372 . S
C101 C102 1.389 . S
C102 H81 0.949 . S
C102 C101 1.389 . S
C102 C103 1.387 . S
C103 C102 1.387 . S
C103 C104 1.372 . S
C104 H82 0.950 . S
C104 C103 1.372 . S
C104 C105 1.379 . S
C105 H83 0.948 . S
C105 C100 1.364 . S
C105 C104 1.379 . S
C106 C75 1.383 . S
C106 C93 1.479 . S
C106 C107 1.398 . S
C107 C72 1.382 . S
C107 H84 0.951 . S
C107 C106 1.398 . S
C108 C109 1.384 . S
C108 H121 0.947 . S
C108 C143 1.382 . S
C109 C108 1.384 . S
C109 C110 1.378 . S
C110 C109 1.378 . S
C110 C111 1.378 . S
C110 H122 0.952 . S
C111 C110 1.378 . S
C111 H123 0.950 . S
C111 C142 1.383 . S
H112 C131 0.947 . S
H113 C132 0.946 . S
H114 C134 0.953 . S
H115 C135 0.945 . S
H116 C137 0.952 . S
H117 C138 0.949 . S
H118 C140 0.950 . S
H119 C141 0.948 . S
H120 C143 0.951 . S
H121 C108 0.947 . S
H122 C110 0.952 . S
H123 C111 0.950 . S
N124 C127 1.382 . S
N124 C129 1.363 . S
N125 C127 1.371 . S
N125 C128 1.372 . S
N126 C128 1.361 . S
N126 C129 1.377 . S
C127 N124 1.382 . S
C127 N125 1.371 . S
C127 C130 1.480 . S
C128 N125 1.372 . S
C128 N126 1.361 . S
C128 C136 1.457 . S
C129 N124 1.363 . S
C129 N126 1.377 . S
C129 C142 1.479 . S
C130 C127 1.480 . S
C130 C131 1.383 . S
C130 C135 1.385 . S
C131 H112 0.947 . S
C131 C130 1.383 . S
C131 C132 1.388 . S
C132 H113 0.946 . S
C132 C131 1.388 . S
C132 C133 1.384 . S
C133 C132 1.384 . S
C133 C134 1.377 . S
C134 H114 0.953 . S
C134 C133 1.377 . S
C134 C135 1.369 . S
C135 H115 0.945 . S
C135 C130 1.385 . S
C135 C134 1.369 . S
C136 C128 1.457 . S
C136 C137 1.372 . S
C136 C141 1.364 . S
C137 H116 0.952 . S
C137 C136 1.372 . S
C137 C138 1.389 . S
C138 H117 0.949 . S
C138 C137 1.389 . S
C138 C139 1.387 . S
C139 C138 1.387 . S
C139 C140 1.372 . S
C140 H118 0.950 . S
C140 C139 1.372 . S
C140 C141 1.379 . S
C141 H119 0.948 . S
C141 C136 1.364 . S
C141 C140 1.379 . S
C142 C111 1.383 . S
C142 C129 1.479 . S
C142 C143 1.398 . S
C143 C108 1.382 . S
C143 H120 0.951 . S
C143 C142 1.398 . S
C144 C145 1.384 . S
C144 H157 0.947 . S
C144 C179 1.382 . S
C145 C144 1.384 . S
C145 C146 1.378 . S
C146 C145 1.378 . S
C146 C147 1.378 . S
C146 H158 0.952 . S
C147 C146 1.378 . S
C147 H159 0.950 . S
C147 C178 1.383 . S
H148 C167 0.947 . S
H149 C168 0.946 . S
H150 C170 0.953 . S
H151 C171 0.945 . S
H152 C173 0.952 . S
H153 C174 0.949 . S
H154 C176 0.950 . S
H155 C177 0.948 . S
H156 C179 0.951 . S
H157 C144 0.947 . S
H158 C146 0.952 . S
H159 C147 0.950 . S
N160 C163 1.382 . S
N160 C165 1.363 . S
N161 C163 1.371 . S
N161 C164 1.372 . S
N162 C164 1.361 . S
N162 C165 1.377 . S
C163 N160 1.382 . S
C163 N161 1.371 . S
C163 C166 1.480 . S
C164 N161 1.372 . S
C164 N162 1.361 . S
C164 C172 1.457 . S
C165 N160 1.363 . S
C165 N162 1.377 . S
C165 C178 1.479 . S
C166 C163 1.480 . S
C166 C167 1.383 . S
C166 C171 1.385 . S
C167 H148 0.947 . S
C167 C166 1.383 . S
C167 C168 1.388 . S
C168 H149 0.946 . S
C168 C167 1.388 . S
C168 C169 1.384 . S
C169 C168 1.384 . S
C169 C170 1.377 . S
C170 H150 0.953 . S
C170 C169 1.377 . S
C170 C171 1.369 . S
C171 H151 0.945 . S
C171 C166 1.385 . S
C171 C170 1.369 . S
C172 C164 1.457 . S
C172 C173 1.372 . S
C172 C177 1.364 . S
C173 H152 0.952 . S
C173 C172 1.372 . S
C173 C174 1.389 . S
C174 H153 0.949 . S
C174 C173 1.389 . S
C174 C175 1.387 . S
C175 C174 1.387 . S
C175 C176 1.372 . S
C176 H154 0.950 . S
C176 C175 1.372 . S
C176 C177 1.379 . S
C177 H155 0.948 . S
C177 C172 1.364 . S
C177 C176 1.379 . S
C178 C147 1.383 . S
C178 C165 1.479 . S
C178 C179 1.398 . S
C179 C144 1.382 . S
C179 H156 0.951 . S
C179 C178 1.398 . S
C180 C181 1.384 . S
C180 H193 0.947 . S
C180 C215 1.382 . S
C181 C180 1.384 . S
C181 C182 1.378 . S
C182 C181 1.378 . S
C182 C183 1.378 . S
C182 H194 0.952 . S
C183 C182 1.378 . S
C183 H195 0.950 . S
C183 C214 1.383 . S
H184 C203 0.947 . S
H185 C204 0.946 . S
H186 C206 0.953 . S
H187 C207 0.945 . S
H188 C209 0.952 . S
H189 C210 0.949 . S
H190 C212 0.950 . S
H191 C213 0.948 . S
H192 C215 0.951 . S
H193 C180 0.947 . S
H194 C182 0.952 . S
H195 C183 0.950 . S
N196 C199 1.382 . S
N196 C201 1.363 . S
N197 C199 1.371 . S
N197 C200 1.372 . S
N198 C200 1.361 . S
N198 C201 1.377 . S
C199 N196 1.382 . S
C199 N197 1.371 . S
C199 C202 1.480 . S
C200 N197 1.372 . S
C200 N198 1.361 . S
C200 C208 1.457 . S
C201 N196 1.363 . S
C201 N198 1.377 . S
C201 C214 1.479 . S
C202 C199 1.480 . S
C202 C203 1.383 . S
C202 C207 1.385 . S
C203 H184 0.947 . S
C203 C202 1.383 . S
C203 C204 1.388 . S
C204 H185 0.946 . S
C204 C203 1.388 . S
C204 C205 1.384 . S
C205 C204 1.384 . S
C205 C206 1.377 . S
C206 H186 0.953 . S
C206 C205 1.377 . S
C206 C207 1.369 . S
C207 H187 0.945 . S
C207 C202 1.385 . S
C207 C206 1.369 . S
C208 C200 1.457 . S
C208 C209 1.372 . S
C208 C213 1.364 . S
C209 H188 0.952 . S
C209 C208 1.372 . S
C209 C210 1.389 . S
C210 H189 0.949 . S
C210 C209 1.389 . S
C210 C211 1.387 . S
C211 C210 1.387 . S
C211 C212 1.372 . S
C212 H190 0.950 . S
C212 C211 1.372 . S
C212 C213 1.379 . S
C213 H191 0.948 . S
C213 C208 1.364 . S
C213 C212 1.379 . S
C214 C183 1.383 . S
C214 C201 1.479 . S
C214 C215 1.398 . S
C215 C180 1.382 . S
C215 H192 0.951 . S
C215 C214 1.398 . S
C216 C217 1.384 . S
C216 H229 0.947 . S
C216 C251 1.382 . S
C217 C216 1.384 . S
C217 C218 1.378 . S
C218 C217 1.378 . S
C218 C219 1.378 . S
C218 H230 0.952 . S
C219 C218 1.378 . S
C219 H231 0.950 . S
C219 C250 1.383 . S
H220 C239 0.947 . S
H221 C240 0.946 . S
H222 C242 0.953 . S
H223 C243 0.945 . S
H224 C245 0.952 . S
H225 C246 0.949 . S
H226 C248 0.950 . S
H227 C249 0.948 . S
H228 C251 0.951 . S
H229 C216 0.947 . S
H230 C218 0.952 . S
H231 C219 0.950 . S
N232 C235 1.382 . S
N232 C237 1.363 . S
N233 C235 1.371 . S
N233 C236 1.372 . S
N234 C236 1.361 . S
N234 C237 1.377 . S
C235 N232 1.382 . S
C235 N233 1.371 . S
C235 C238 1.480 . S
C236 N233 1.372 . S
C236 N234 1.361 . S
C236 C244 1.457 . S
C237 N232 1.363 . S
C237 N234 1.377 . S
C237 C250 1.479 . S
C238 C235 1.480 . S
C238 C239 1.383 . S
C238 C243 1.385 . S
C239 H220 0.947 . S
C239 C238 1.383 . S
C239 C240 1.388 . S
C240 H221 0.946 . S
C240 C239 1.388 . S
C240 C241 1.384 . S
C241 C240 1.384 . S
C241 C242 1.377 . S
C242 H222 0.953 . S
C242 C241 1.377 . S
C242 C243 1.369 . S
C243 H223 0.945 . S
C243 C238 1.385 . S
C243 C242 1.369 . S
C244 C236 1.457 . S
C244 C245 1.372 . S
C244 C249 1.364 . S
C245 H224 0.952 . S
C245 C244 1.372 . S
C245 C246 1.389 . S
C246 H225 0.949 . S
C246 C245 1.389 . S
C246 C247 1.387 . S
C247 C246 1.387 . S
C247 C248 1.372 . S
C248 H226 0.950 . S
C248 C247 1.372 . S
C248 C249 1.379 . S
C249 H227 0.948 . S
C249 C244 1.364 . S
C249 C248 1.379 . S
C250 C219 1.383 . S
C250 C237 1.479 . S
C250 C251 1.398 . S
C251 C216 1.382 . S
C251 H228 0.951 . S
C251 C250 1.398 . S
C252 C253 1.384 . S
C252 H265 0.947 . S
C252 C287 1.382 . S
C253 C252 1.384 . S
C253 C254 1.378 . S
C254 C253 1.378 . S
C254 C255 1.378 . S
C254 H266 0.952 . S
C255 C254 1.378 . S
C255 H267 0.950 . S
C255 C286 1.383 . S
H256 C275 0.947 . S
H257 C276 0.946 . S
H258 C278 0.953 . S
H259 C279 0.945 . S
H260 C281 0.952 . S
H261 C282 0.949 . S
H262 C284 0.950 . S
H263 C285 0.948 . S
H264 C287 0.951 . S
H265 C252 0.947 . S
H266 C254 0.952 . S
H267 C255 0.950 . S
N268 C271 1.382 . S
N268 C273 1.363 . S
N269 C271 1.371 . S
N269 C272 1.372 . S
N270 C272 1.361 . S
N270 C273 1.377 . S
C271 N268 1.382 . S
C271 N269 1.371 . S
C271 C274 1.480 . S
C272 N269 1.372 . S
C272 N270 1.361 . S
C272 C280 1.457 . S
C273 N268 1.363 . S
C273 N270 1.377 . S
C273 C286 1.479 . S
C274 C271 1.480 . S
C274 C275 1.383 . S
C274 C279 1.385 . S
C275 H256 0.947 . S
C275 C274 1.383 . S
C275 C276 1.388 . S
C276 H257 0.946 . S
C276 C275 1.388 . S
C276 C277 1.384 . S
C277 C276 1.384 . S
C277 C278 1.377 . S
C278 H258 0.953 . S
C278 C277 1.377 . S
C278 C279 1.369 . S
C279 H259 0.945 . S
C279 C274 1.385 . S
C279 C278 1.369 . S
C280 C272 1.457 . S
C280 C281 1.372 . S
C280 C285 1.364 . S
C281 H260 0.952 . S
C281 C280 1.372 . S
C281 C282 1.389 . S
C282 H261 0.949 . S
C282 C281 1.389 . S
C282 C283 1.387 . S
C283 C282 1.387 . S
C283 C284 1.372 . S
C284 H262 0.950 . S
C284 C283 1.372 . S
C284 C285 1.379 . S
C285 H263 0.948 . S
C285 C280 1.364 . S
C285 C284 1.379 . S
C286 C255 1.383 . S
C286 C273 1.479 . S
C286 C287 1.398 . S
C287 C252 1.382 . S
C287 H264 0.951 . S
C287 C286 1.398 . S
C288 O304 1.251 . S
C288 O306 1.254 1_545 S
N289 C290 1.333 . S
N289 C294 1.307 . S
N289 Zn295 2.020 . S
C290 N289 1.333 . S
C290 C291 1.379 . S
C290 H308 0.952 . S
C291 C290 1.379 . S
C291 C292 1.390 . S
C291 H318 0.949 . S
C292 C291 1.390 . S
C292 C293 1.357 . S
C293 C292 1.357 . S
C293 C294 1.370 . S
C293 H319 0.950 . S
C294 N289 1.307 . S
C294 C293 1.370 . S
C294 H312 0.948 1_455 S
Zn295 N289 2.020 . S
Zn295 O304 2.039 . S
Zn295 O310 2.034 . S
Zn295 O314 2.025 1_455 S
Zn295 O316 2.024 1_455 S
C296 O315 1.246 1_545 S
C296 O316 1.249 . S
N297 C298 1.307 . S
N297 C299 1.333 . S
N297 Zn303 2.020 . S
C298 N297 1.307 . S
C298 C302 1.370 . S
C298 H309 0.948 1_655 S
C299 N297 1.333 . S
C299 C300 1.379 . S
C299 H307 0.952 . S
C300 C299 1.379 . S
C300 C301 1.390 . S
C300 H320 0.949 . S
C301 C300 1.390 . S
C301 C302 1.357 . S
C302 C298 1.370 . S
C302 C301 1.357 . S
C302 H321 0.967 . S
Zn303 N297 2.020 . S
Zn303 O306 2.025 1_655 S
Zn303 O311 2.024 1_655 S
Zn303 O313 2.039 . S
Zn303 O315 2.034 . S
O304 C288 1.251 . S
O304 Zn295 2.039 . S
C305 O310 1.246 1_565 S
C305 O311 1.249 . S
O306 C288 1.254 1_565 S
O306 Zn303 2.025 1_455 S
H307 C299 0.952 . S
H308 C290 0.952 . S
H309 C298 0.948 1_455 S
O310 Zn295 2.034 . S
O310 C305 1.246 1_545 S
O311 Zn303 2.024 1_455 S
O311 C305 1.249 . S
H312 C294 0.948 1_655 S
O313 Zn303 2.039 . S
O313 C317 1.251 . S
O314 Zn295 2.025 1_655 S
O314 C317 1.254 1_545 S
O315 C296 1.246 1_565 S
O315 Zn303 2.034 . S
O316 Zn295 2.024 1_655 S
O316 C296 1.249 . S
C317 O313 1.251 . S
C317 O314 1.254 1_565 S
H318 C291 0.949 . S
H319 C293 0.950 . S
H320 C300 0.949 . S
H321 C302 0.967 . S
C322 O338 1.251 1_565 S
C322 O340 1.254 . S
N323 C324 1.333 . S
N323 C328 1.307 . S
N323 Zn329 2.020 . S
C324 N323 1.333 . S
C324 C325 1.379 . S
C324 H342 0.952 . S
C325 C324 1.379 . S
C325 C326 1.390 . S
C325 H352 0.949 . S
C326 C325 1.390 . S
C326 C327 1.357 . S
C327 C326 1.357 . S
C327 C328 1.370 . S
C327 H353 0.950 . S
C328 N323 1.307 . S
C328 C327 1.370 . S
C328 H346 0.948 . S
Zn329 N323 2.020 . S
Zn329 O338 2.039 . S
Zn329 O344 2.034 1_556 S
Zn329 O348 2.025 1_556 S
Zn329 O350 2.024 . S
C330 O349 1.246 . S
C330 O350 1.249 1_565 S
N331 C332 1.307 . S
N331 C333 1.333 . S
N331 Zn337 2.020 . S
C332 N331 1.307 . S
C332 C336 1.370 . S
C332 H343 0.948 . S
C333 N331 1.333 . S
C333 C334 1.379 . S
C333 H341 0.952 . S
C334 C333 1.379 . S
C334 C335 1.390 . S
C334 H354 0.949 . S
C335 C334 1.390 . S
C335 C336 1.357 . S
C336 C332 1.370 . S
C336 C335 1.357 . S
C336 H355 0.950 . S
Zn337 N331 2.020 . S
Zn337 O340 2.025 1_554 S
Zn337 O345 2.024 . S
Zn337 O347 2.039 . S
Zn337 O349 2.034 1_554 S
O338 C322 1.251 1_545 S
O338 Zn329 2.039 . S
C339 O344 1.246 . S
C339 O345 1.249 1_545 S
O340 C322 1.254 . S
O340 Zn337 2.025 1_556 S
H341 C333 0.952 . S
H342 C324 0.952 . S
H343 C332 0.948 . S
O344 Zn329 2.034 1_554 S
O344 C339 1.246 . S
O345 Zn337 2.024 . S
O345 C339 1.249 1_565 S
H346 C328 0.948 . S
O347 Zn337 2.039 . S
O347 C351 1.251 1_565 S
O348 Zn329 2.025 1_554 S
O348 C351 1.254 . S
O349 C330 1.246 . S
O349 Zn337 2.034 1_556 S
O350 Zn329 2.024 . S
O350 C330 1.249 1_545 S
C351 O347 1.251 1_545 S
C351 O348 1.254 . S
H352 C325 0.949 . S
H353 C327 0.950 . S
H354 C334 0.949 . S
H355 C336 0.950 . S
C356 O372 1.251 . S
C356 O374 1.254 . S
N357 C358 1.333 . S
N357 C362 1.307 . S
N357 Zn363 2.020 . S
C358 N357 1.333 . S
C358 C359 1.379 . S
C358 H376 0.952 . S
C359 C358 1.379 . S
C359 C360 1.390 . S
C359 H386 0.949 . S
C360 C359 1.390 . S
C360 C361 1.357 . S
C361 C360 1.357 . S
C361 C362 1.370 . S
C361 H387 0.950 . S
C362 N357 1.307 . S
C362 C361 1.370 . S
C362 H380 0.948 . S
Zn363 N357 2.020 . S
Zn363 O372 2.039 . S
Zn363 O378 2.034 . S
Zn363 O382 2.025 . S
Zn363 O384 2.024 . S
C364 O383 1.246 . S
C364 O384 1.249 . S
N365 C366 1.307 . S
N365 C367 1.333 . S
N365 Zn371 2.020 . S
C366 N365 1.307 . S
C366 C370 1.370 . S
C366 H377 0.948 . S
C367 N365 1.333 . S
C367 C368 1.379 . S
C367 H375 0.952 . S
C368 C367 1.379 . S
C368 C369 1.390 . S
C368 H388 0.949 . S
C369 C368 1.390 . S
C369 C370 1.357 . S
C370 C366 1.370 . S
C370 C369 1.357 . S
C370 H389 0.950 . S
Zn371 N365 2.020 . S
Zn371 O374 2.025 . S
Zn371 O379 2.024 . S
Zn371 O381 2.039 . S
Zn371 O383 2.034 . S
O372 C356 1.251 . S
O372 Zn363 2.039 . S
C373 O378 1.246 . S
C373 O379 1.249 . S
O374 C356 1.254 . S
O374 Zn371 2.025 . S
H375 C367 0.952 . S
H376 C358 0.952 . S
H377 C366 0.948 . S
O378 Zn363 2.034 . S
O378 C373 1.246 . S
O379 Zn371 2.024 . S
O379 C373 1.249 . S
H380 C362 0.948 . S
O381 Zn371 2.039 . S
O381 C385 1.251 . S
O382 Zn363 2.025 . S
O382 C385 1.254 . S
O383 C364 1.246 . S
O383 Zn371 2.034 . S
O384 Zn363 2.024 . S
O384 C364 1.249 . S
C385 O381 1.251 . S
C385 O382 1.254 . S
H386 C359 0.949 . S
H387 C361 0.950 . S
H388 C368 0.949 . S
H389 C370 0.950 . S
C390 O406 1.251 1_556 S
C390 O408 1.254 . S
N391 C392 1.333 . S
N391 C396 1.307 . S
N391 Zn397 2.020 . S
C392 N391 1.333 . S
C392 C393 1.379 . S
C392 H410 0.952 . S
C393 C392 1.379 . S
C393 C394 1.390 . S
C393 H420 0.949 . S
C394 C393 1.390 . S
C394 C395 1.357 . S
C395 C394 1.357 . S
C395 C396 1.370 . S
C395 H421 0.950 . S
C396 N391 1.307 . S
C396 C395 1.370 . S
C396 H414 0.948 . S
Zn397 N391 2.020 . S
Zn397 O406 2.039 . S
Zn397 O412 2.034 1_655 S
Zn397 O416 2.025 1_655 S
Zn397 O418 2.024 . S
C398 O417 1.246 . S
C398 O418 1.249 1_556 S
N399 C400 1.307 . S
N399 C401 1.333 . S
N399 Zn405 2.020 . S
C400 N399 1.307 . S
C400 C404 1.370 . S
C400 H411 0.948 . S
C401 N399 1.333 . S
C401 C402 1.379 . S
C401 H409 0.952 . S
C402 C401 1.379 . S
C402 C403 1.390 . S
C402 H422 0.949 . S
C403 C402 1.390 . S
C403 C404 1.357 . S
C404 C400 1.370 . S
C404 C403 1.357 . S
C404 H423 0.950 . S
Zn405 N399 2.020 . S
Zn405 O408 2.025 1_455 S
Zn405 O413 2.024 . S
Zn405 O415 2.039 . S
Zn405 O417 2.034 1_455 S
O406 C390 1.251 1_554 S
O406 Zn397 2.039 . S
C407 O412 1.246 . S
C407 O413 1.249 1_554 S
O408 C390 1.254 . S
O408 Zn405 2.025 1_655 S
H409 C401 0.952 . S
H410 C392 0.952 . S
H411 C400 0.948 . S
O412 Zn397 2.034 1_455 S
O412 C407 1.246 . S
O413 Zn405 2.024 . S
O413 C407 1.249 1_556 S
H414 C396 0.948 . S
O415 Zn405 2.039 . S
O415 C419 1.251 1_556 S
O416 Zn397 2.025 1_455 S
O416 C419 1.254 . S
O417 C398 1.246 . S
O417 Zn405 2.034 1_655 S
O418 Zn397 2.024 . S
O418 C398 1.249 1_554 S
C419 O415 1.251 1_554 S
C419 O416 1.254 . S
H420 C393 0.949 . S
H421 C395 0.950 . S
H422 C402 0.949 . S
H423 C404 0.950 . S
C424 C425 1.391 . S
C424 C426 1.394 . S
C424 H440 0.931 . S
C425 C424 1.391 . S
C425 C429 1.376 . S
C426 C424 1.394 . S
C426 C427 1.369 . S
C426 C430 1.531 . S
C427 C426 1.369 . S
C427 C428 1.410 . S
C427 C435 1.503 . S
C428 C427 1.410 . S
C428 C429 1.392 . S
C428 C431 1.511 . S
C429 C425 1.376 . S
C429 C428 1.392 . S
C429 H441 0.929 . S
C430 C426 1.531 . S
C430 H442 0.960 . S
C430 H443 0.962 1_455 S
C430 H444 0.960 . S
C431 C428 1.511 . S
C431 H445 0.961 . S
C431 H446 0.961 . S
C431 H447 0.961 . S
C432 C433 1.370 . S
C432 C434 1.363 . S
C432 H448 0.931 . S
C433 C432 1.370 . S
C433 C437 1.408 . S
C434 C432 1.363 . S
C434 C435 1.370 . S
C434 C438 1.524 . S
C435 C427 1.503 . S
C435 C434 1.370 . S
C435 C436 1.403 . S
C436 C435 1.403 . S
C436 C437 1.404 . S
C436 C439 1.551 . S
C437 C433 1.408 . S
C437 C436 1.404 . S
C437 H449 0.930 1_545 S
C438 C434 1.524 . S
C438 H450 0.956 1_455 S
C438 H451 0.961 . S
C438 H452 0.961 1_455 S
C439 C436 1.551 . S
C439 H453 0.941 1_545 S
C439 H454 0.954 1_545 S
C439 H455 0.972 . S
H440 C424 0.931 . S
H441 C429 0.929 . S
H442 C430 0.960 . S
H443 C430 0.962 1_655 S
H444 C430 0.960 . S
H445 C431 0.961 . S
H446 C431 0.961 . S
H447 C431 0.961 . S
H448 C432 0.931 . S
H449 C437 0.930 1_565 S
H450 C438 0.956 1_655 S
H451 C438 0.961 . S
H452 C438 0.961 1_655 S
H453 C439 0.941 1_565 S
H454 C439 0.954 1_565 S
H455 C439 0.972 . S
C456 C457 1.391 . S
C456 C458 1.394 . S
C456 H472 0.931 . S
C457 C456 1.391 . S
C457 C461 1.376 . S
C458 C456 1.394 . S
C458 C459 1.369 . S
C458 C462 1.531 . S
C459 C458 1.369 . S
C459 C460 1.410 . S
C459 C467 1.503 . S
C460 C459 1.410 . S
C460 C461 1.392 . S
C460 C463 1.511 . S
C461 C457 1.376 . S
C461 C460 1.392 . S
C461 H473 0.929 . S
C462 C458 1.531 . S
C462 H474 0.960 . S
C462 H475 0.962 . S
C462 H476 0.960 . S
C463 C460 1.511 . S
C463 H477 0.961 . S
C463 H478 0.961 . S
C463 H479 0.961 . S
C464 C465 1.370 . S
C464 C466 1.363 . S
C464 H480 0.931 1_565 S
C465 C464 1.370 . S
C465 C469 1.408 . S
C466 C464 1.363 . S
C466 C467 1.370 . S
C466 C470 1.524 1_565 S
C467 C459 1.503 . S
C467 C466 1.370 . S
C467 C468 1.403 . S
C468 C467 1.403 . S
C468 C469 1.404 . S
C468 C471 1.539 . S
C469 C465 1.408 . S
C469 C468 1.404 . S
C469 H481 0.930 . S
C470 C466 1.524 1_545 S
C470 H482 0.956 1_545 S
C470 H483 0.961 . S
C470 H484 0.961 . S
C471 C468 1.539 . S
C471 H485 0.958 . S
C471 H486 0.961 . S
C471 H487 0.960 . S
H472 C456 0.931 . S
H473 C461 0.929 . S
H474 C462 0.960 . S
H475 C462 0.962 . S
H476 C462 0.960 . S
H477 C463 0.961 . S
H478 C463 0.961 . S
H479 C463 0.961 . S
H480 C464 0.931 1_545 S
H481 C469 0.930 . S
H482 C470 0.956 1_565 S
H483 C470 0.961 . S
H484 C470 0.961 . S
H485 C471 0.958 . S
H486 C471 0.961 . S
H487 C471 0.960 . S
C488 C489 1.391 . S
C488 C490 1.394 . S
C488 H504 0.931 . S
C489 C488 1.391 . S
C489 C493 1.376 . S
C490 C488 1.394 . S
C490 C491 1.369 . S
C490 C494 1.531 . S
C491 C490 1.369 . S
C491 C492 1.410 . S
C491 C499 1.503 . S
C492 C491 1.410 . S
C492 C493 1.392 . S
C492 C495 1.511 . S
C493 C489 1.376 . S
C493 C492 1.392 . S
C493 H505 0.929 . S
C494 C490 1.531 . S
C494 H506 0.960 . S
C494 H507 0.962 . S
C494 H508 0.960 . S
C495 C492 1.511 . S
C495 H509 0.961 . S
C495 H510 0.961 . S
C495 H511 0.961 . S
C496 C497 1.370 . S
C496 C498 1.363 . S
C496 H512 0.931 . S
C497 C496 1.370 . S
C497 C501 1.408 . S
C498 C496 1.363 . S
C498 C499 1.370 . S
C498 C502 1.524 . S
C499 C491 1.503 . S
C499 C498 1.370 . S
C499 C500 1.403 . S
C500 C499 1.403 . S
C500 C501 1.404 . S
C500 C503 1.539 . S
C501 C497 1.408 . S
C501 C500 1.404 . S
C501 H513 0.930 . S
C502 C498 1.524 . S
C502 H514 0.956 . S
C502 H515 0.961 . S
C502 H516 0.961 . S
C503 C500 1.539 . S
C503 H517 0.958 . S
C503 H518 0.961 . S
C503 H519 0.960 . S
H504 C488 0.931 . S
H505 C493 0.929 . S
H506 C494 0.960 . S
H507 C494 0.962 . S
H508 C494 0.960 . S
H509 C495 0.961 . S
H510 C495 0.961 . S
H511 C495 0.961 . S
H512 C496 0.931 . S
H513 C501 0.930 . S
H514 C502 0.956 . S
H515 C502 0.961 . S
H516 C502 0.961 . S
H517 C503 0.958 . S
H518 C503 0.961 . S
H519 C503 0.960 . S
C520 C521 1.391 . S
C520 C522 1.394 . S
C520 H536 0.931 . S
C521 C520 1.391 . S
C521 C525 1.376 . S
C522 C520 1.394 . S
C522 C523 1.369 . S
C522 C526 1.531 . S
C523 C522 1.369 . S
C523 C524 1.410 . S
C523 C531 1.503 . S
C524 C523 1.410 . S
C524 C525 1.392 . S
C524 C527 1.511 . S
C525 C521 1.376 . S
C525 C524 1.392 . S
C525 H537 0.929 . S
C526 C522 1.531 . S
C526 H538 0.960 . S
C526 H539 0.962 . S
C526 H540 0.960 . S
C527 C524 1.511 . S
C527 H541 0.961 . S
C527 H542 0.961 . S
C527 H543 0.961 . S
C528 C529 1.370 . S
C528 C530 1.363 . S
C528 H544 0.931 . S
C529 C528 1.370 . S
C529 C533 1.408 . S
C530 C528 1.363 . S
C530 C531 1.370 . S
C530 C534 1.524 . S
C531 C523 1.503 . S
C531 C530 1.370 . S
C531 C532 1.403 . S
C532 C531 1.403 . S
C532 C533 1.404 . S
C532 C535 1.539 . S
C533 C529 1.408 . S
C533 C532 1.404 . S
C533 H545 0.930 . S
C534 C530 1.524 . S
C534 H546 0.956 . S
C534 H547 0.961 . S
C534 H548 0.961 . S
C535 C532 1.539 . S
C535 H549 0.958 . S
C535 H550 0.961 . S
C535 H551 0.960 . S
H536 C520 0.931 . S
H537 C525 0.929 . S
H538 C526 0.960 . S
H539 C526 0.962 . S
H540 C526 0.960 . S
H541 C527 0.961 . S
H542 C527 0.961 . S
H543 C527 0.961 . S
H544 C528 0.931 . S
H545 C533 0.930 . S
H546 C534 0.956 . S
H547 C534 0.961 . S
H548 C534 0.961 . S
H549 C535 0.958 . S
H550 C535 0.961 . S
H551 C535 0.960 . S
C552 C553 1.391 . S
C552 C554 1.394 . S
C552 H568 0.931 . S
C553 C552 1.391 . S
C553 C557 1.376 . S
C554 C552 1.394 . S
C554 C555 1.369 . S
C554 C558 1.531 . S
C555 C554 1.369 . S
C555 C556 1.410 . S
C555 C563 1.503 . S
C556 C555 1.410 . S
C556 C557 1.392 . S
C556 C559 1.511 . S
C557 C553 1.376 . S
C557 C556 1.392 . S
C557 H569 0.929 . S
C558 C554 1.531 . S
C558 H570 0.960 . S
C558 H571 0.962 . S
C558 H572 0.960 . S
C559 C556 1.511 . S
C559 H573 0.955 1_554 S
C559 H574 0.961 . S
C559 H575 0.961 . S
C560 C561 1.370 . S
C560 C562 1.363 . S
C560 H576 0.931 . S
C561 C560 1.370 . S
C561 C565 1.408 . S
C562 C560 1.363 . S
C562 C563 1.370 . S
C562 C566 1.524 . S
C563 C555 1.503 . S
C563 C562 1.370 . S
C563 C564 1.403 . S
C564 C563 1.403 . S
C564 C565 1.404 . S
C564 C567 1.539 1_545 S
C565 C561 1.408 . S
C565 C564 1.404 . S
C565 H577 0.930 1_545 S
C566 C562 1.524 . S
C566 H578 0.956 . S
C566 H579 0.961 . S
C566 H580 0.961 . S
C567 C564 1.539 1_565 S
C567 H581 0.958 . S
C567 H582 0.961 . S
C567 H583 0.960 . S
H568 C552 0.931 . S
H569 C557 0.929 . S
H570 C558 0.960 . S
H571 C558 0.962 . S
H572 C558 0.960 . S
H573 C559 0.955 1_556 S
H574 C559 0.961 . S
H575 C559 0.961 . S
H576 C560 0.931 . S
H577 C565 0.930 1_565 S
H578 C566 0.956 . S
H579 C566 0.961 . S
H580 C566 0.961 . S
H581 C567 0.958 . S
H582 C567 0.961 . S
H583 C567 0.960 . S
C584 C585 1.391 . S
C584 C586 1.394 . S
C584 H600 0.931 . S
C585 C584 1.391 . S
C585 C589 1.376 . S
C586 C584 1.394 . S
C586 C587 1.369 . S
C586 C590 1.531 . S
C587 C586 1.369 . S
C587 C588 1.410 . S
C587 C595 1.503 . S
C588 C587 1.410 . S
C588 C589 1.392 . S
C588 C591 1.511 . S
C589 C585 1.376 . S
C589 C588 1.392 . S
C589 H601 0.929 . S
C590 C586 1.531 . S
C590 H602 0.960 . S
C590 H603 0.962 . S
C590 H604 0.960 . S
C591 C588 1.511 . S
C591 H605 0.961 . S
C591 H606 0.961 . S
C591 H607 0.961 . S
C592 C593 1.370 . S
C592 C594 1.363 . S
C592 H608 0.931 . S
C593 C592 1.370 . S
C593 C597 1.415 . S
C594 C592 1.363 . S
C594 C595 1.370 . S
C594 C598 1.524 . S
C595 C587 1.503 . S
C595 C594 1.370 . S
C595 C596 1.403 . S
C596 C595 1.403 . S
C596 C597 1.405 . S
C596 C599 1.539 1_565 S
C597 C593 1.415 . S
C597 C596 1.405 . S
C597 H609 0.922 1_565 S
C598 C594 1.524 . S
C598 H610 0.956 . S
C598 H611 0.961 . S
C598 H612 0.961 . S
C599 C596 1.539 1_545 S
C599 H613 0.958 . S
C599 H614 0.961 . S
C599 H615 0.960 . S
H600 C584 0.931 . S
H601 C589 0.929 . S
H602 C590 0.960 . S
H603 C590 0.962 . S
H604 C590 0.960 . S
H605 C591 0.961 . S
H606 C591 0.961 . S
H607 C591 0.961 . S
H608 C592 0.931 . S
H609 C597 0.922 1_545 S
H610 C598 0.956 . S
H611 C598 0.961 . S
H612 C598 0.961 . S
H613 C599 0.958 . S
H614 C599 0.961 . S
H615 C599 0.960 . S
C616 C617 1.391 . S
C616 C618 1.394 . S
C616 H632 0.931 . S
C617 C616 1.391 . S
C617 C621 1.376 . S
C618 C616 1.394 . S
C618 C619 1.369 . S
C618 C622 1.531 . S
C619 C618 1.369 . S
C619 C620 1.410 . S
C619 C627 1.503 . S
C620 C619 1.410 . S
C620 C621 1.392 . S
C620 C623 1.511 . S
C621 C617 1.376 . S
C621 C620 1.392 . S
C621 H633 0.929 . S
C622 C618 1.531 . S
C622 H634 0.960 . S
C622 H635 0.962 . S
C622 H636 0.960 . S
C623 C620 1.511 . S
C623 H637 0.961 . S
C623 H638 0.961 . S
C623 H639 0.961 . S
C624 C625 1.370 . S
C624 C626 1.363 . S
C624 H640 0.931 . S
C625 C624 1.370 . S
C625 C629 1.408 1_556 S
C626 C624 1.363 . S
C626 C627 1.370 . S
C626 C630 1.524 . S
C627 C619 1.503 . S
C627 C626 1.370 . S
C627 C628 1.403 1_556 S
C628 C627 1.403 1_554 S
C628 C629 1.404 . S
C628 C631 1.539 . S
C629 C625 1.408 1_554 S
C629 C628 1.404 . S
C629 H641 0.930 . S
C630 C626 1.524 . S
C630 H642 0.956 . S
C630 H643 0.961 . S
C630 H644 0.961 . S
C631 C628 1.539 . S
C631 H645 0.958 . S
C631 H646 0.961 . S
C631 H647 0.960 . S
H632 C616 0.931 . S
H633 C621 0.929 . S
H634 C622 0.960 . S
H635 C622 0.962 . S
H636 C622 0.960 . S
H637 C623 0.961 . S
H638 C623 0.961 . S
H639 C623 0.961 . S
H640 C624 0.931 . S
H641 C629 0.930 . S
H642 C630 0.956 . S
H643 C630 0.961 . S
H644 C630 0.961 . S
H645 C631 0.958 . S
H646 C631 0.961 . S
H647 C631 0.960 . S
C648 C649 1.391 . S
C648 C650 1.394 . S
C648 H664 0.931 . S
C649 C648 1.391 . S
C649 C653 1.376 . S
C650 C648 1.394 . S
C650 C651 1.369 . S
C650 C654 1.531 . S
C651 C650 1.369 . S
C651 C652 1.410 . S
C651 C659 1.503 . S
C652 C651 1.410 . S
C652 C653 1.392 . S
C652 C655 1.511 . S
C653 C649 1.376 . S
C653 C652 1.392 . S
C653 H665 0.929 . S
C654 C650 1.531 . S
C654 H666 0.960 . S
C654 H667 0.962 . S
C654 H668 0.960 . S
C655 C652 1.511 . S
C655 H669 0.961 . S
C655 H670 0.961 . S
C655 H671 0.961 . S
C656 C657 1.370 . S
C656 C658 1.363 . S
C656 H672 0.931 . S
C657 C656 1.370 . S
C657 C661 1.408 . S
C658 C656 1.363 . S
C658 C659 1.370 . S
C658 C662 1.524 . S
C659 C651 1.503 . S
C659 C658 1.370 . S
C659 C660 1.403 . S
C660 C659 1.403 . S
C660 C661 1.404 . S
C660 C663 1.539 . S
C661 C657 1.408 . S
C661 C660 1.404 . S
C661 H673 0.930 . S
C662 C658 1.524 . S
C662 H674 0.956 . S
C662 H675 0.961 . S
C662 H676 0.961 . S
C663 C660 1.539 . S
C663 H677 0.958 . S
C663 H678 0.961 . S
C663 H679 0.960 . S
H664 C648 0.931 . S
H665 C653 0.929 . S
H666 C654 0.960 . S
H667 C654 0.962 . S
H668 C654 0.960 . S
H669 C655 0.961 . S
H670 C655 0.961 . S
H671 C655 0.961 . S
H672 C656 0.931 . S
H673 C661 0.930 . S
H674 C662 0.956 . S
H675 C662 0.961 . S
H676 C662 0.961 . S
H677 C663 0.958 . S
H678 C663 0.961 . S
H679 C663 0.960 . S
C680 C681 1.391 . S
C680 C682 1.394 . S
C680 H696 0.931 . S
C681 C680 1.391 . S
C681 C685 1.376 . S
C682 C680 1.394 . S
C682 C683 1.369 . S
C682 C686 1.531 . S
C683 C682 1.369 . S
C683 C684 1.410 . S
C683 C691 1.503 . S
C684 C683 1.410 . S
C684 C685 1.392 . S
C684 C687 1.511 . S
C685 C681 1.376 . S
C685 C684 1.392 . S
C685 H697 0.929 . S
C686 C682 1.531 . S
C686 H698 0.960 . S
C686 H699 0.962 . S
C686 H700 0.960 . S
C687 C684 1.511 . S
C687 H701 0.961 1_455 S
C687 H702 0.957 1_455 S
C687 H703 0.961 . S
C688 C689 1.370 . S
C688 C690 1.363 . S
C688 H704 0.931 . S
C689 C688 1.370 . S
C689 C693 1.408 . S
C690 C688 1.363 . S
C690 C691 1.370 . S
C690 C694 1.524 . S
C691 C683 1.503 . S
C691 C690 1.370 . S
C691 C692 1.403 . S
C692 C691 1.403 . S
C692 C693 1.404 . S
C692 C695 1.539 1_554 S
C693 C689 1.408 . S
C693 C692 1.404 . S
C693 H705 0.930 1_554 S
C694 C690 1.524 . S
C694 H706 0.956 . S
C694 H707 0.961 . S
C694 H708 0.961 . S
C695 C692 1.539 1_556 S
C695 H709 0.958 1_556 S
C695 H710 0.961 . S
C695 H711 0.964 . S
H696 C680 0.931 . S
H697 C685 0.929 . S
H698 C686 0.960 . S
H699 C686 0.962 . S
H700 C686 0.960 . S
H701 C687 0.961 1_655 S
H702 C687 0.957 1_655 S
H703 C687 0.961 . S
H704 C688 0.931 . S
H705 C693 0.930 1_556 S
H706 C694 0.956 . S
H707 C694 0.961 . S
H708 C694 0.961 . S
H709 C695 0.958 1_554 S
H710 C695 0.961 . S
H711 C695 0.964 . S
C712 C713 1.391 . S
C712 C714 1.394 . S
C712 H728 0.931 . S
C713 C712 1.391 . S
C713 C717 1.376 . S
C714 C712 1.394 . S
C714 C715 1.369 . S
C714 C718 1.531 . S
C715 C714 1.369 . S
C715 C716 1.410 . S
C715 C723 1.503 . S
C716 C715 1.410 . S
C716 C717 1.392 . S
C716 C719 1.511 . S
C717 C713 1.376 . S
C717 C716 1.392 . S
C717 H729 0.929 . S
C718 C714 1.531 . S
C718 H730 0.960 . S
C718 H731 0.962 . S
C718 H732 0.960 . S
C719 C716 1.511 . S
C719 H733 0.961 . S
C719 H734 0.961 . S
C719 H735 0.961 . S
C720 C721 1.370 . S
C720 C722 1.363 . S
C720 H736 0.931 . S
C721 C720 1.370 . S
C721 C725 1.408 . S
C722 C720 1.363 . S
C722 C723 1.370 . S
C722 C726 1.524 1_556 S
C723 C715 1.503 . S
C723 C722 1.370 . S
C723 C724 1.403 . S
C724 C723 1.403 . S
C724 C725 1.404 . S
C724 C727 1.539 . S
C725 C721 1.408 . S
C725 C724 1.404 . S
C725 H737 0.930 . S
C726 C722 1.524 1_554 S
C726 H738 0.956 . S
C726 H739 0.961 . S
C726 H740 0.961 . S
C727 C724 1.539 . S
C727 H741 0.958 . S
C727 H742 0.961 . S
C727 H743 0.960 . S
H728 C712 0.931 . S
H729 C717 0.929 . S
H730 C718 0.960 . S
H731 C718 0.962 . S
H732 C718 0.960 . S
H733 C719 0.961 . S
H734 C719 0.961 . S
H735 C719 0.961 . S
H736 C720 0.931 . S
H737 C725 0.930 . S
H738 C726 0.956 . S
H739 C726 0.961 . S
H740 C726 0.961 . S
H741 C727 0.958 . S
H742 C727 0.961 . S
H743 C727 0.960 . S
C744 C745 1.391 . S
C744 C746 1.394 . S
C744 H760 0.931 . S
C745 C744 1.391 . S
C745 C749 1.376 . S
C746 C744 1.394 . S
C746 C747 1.369 . S
C746 C750 1.531 . S
C747 C746 1.369 . S
C747 C748 1.410 . S
C747 C755 1.503 . S
C748 C747 1.410 . S
C748 C749 1.392 . S
C748 C751 1.511 . S
C749 C745 1.376 . S
C749 C748 1.392 . S
C749 H761 0.929 . S
C750 C746 1.531 . S
C750 H762 0.960 . S
C750 H763 0.962 . S
C750 H764 0.960 . S
C751 C748 1.511 . S
C751 H765 0.961 . S
C751 H766 0.961 . S
C751 H767 0.961 . S
C752 C753 1.370 . S
C752 C754 1.363 . S
C752 H768 0.931 . S
C753 C752 1.370 . S
C753 C757 1.408 . S
C754 C752 1.363 . S
C754 C755 1.370 . S
C754 C758 1.524 . S
C755 C747 1.503 . S
C755 C754 1.370 . S
C755 C756 1.403 . S
C756 C755 1.403 . S
C756 C757 1.404 . S
C756 C759 1.539 . S
C757 C753 1.408 . S
C757 C756 1.404 . S
C757 H769 0.930 . S
C758 C754 1.524 . S
C758 H770 0.956 . S
C758 H771 0.961 . S
C758 H772 0.961 . S
C759 C756 1.539 . S
C759 H773 0.958 . S
C759 H774 0.961 . S
C759 H775 0.960 . S
H760 C744 0.931 . S
H761 C749 0.929 . S
H762 C750 0.960 . S
H763 C750 0.962 . S
H764 C750 0.960 . S
H765 C751 0.961 . S
H766 C751 0.961 . S
H767 C751 0.961 . S
H768 C752 0.931 . S
H769 C757 0.930 . S
H770 C758 0.956 . S
H771 C758 0.961 . S
H772 C758 0.961 . S
H773 C759 0.958 . S
H774 C759 0.961 . S
H775 C759 0.960 . S
C776 C777 1.391 . S
C776 C778 1.394 . S
C776 H792 0.931 . S
C777 C776 1.391 . S
C777 C781 1.376 . S
C778 C776 1.394 . S
C778 C779 1.369 . S
C778 C782 1.531 . S
C779 C778 1.369 . S
C779 C780 1.410 . S
C779 C787 1.503 . S
C780 C779 1.410 . S
C780 C781 1.392 . S
C780 C783 1.511 . S
C781 C777 1.376 . S
C781 C780 1.392 . S
C781 H793 0.929 . S
C782 C778 1.531 . S
C782 H794 0.960 . S
C782 H795 0.962 . S
C782 H796 0.960 . S
C783 C780 1.511 . S
C783 H797 0.961 . S
C783 H798 0.961 . S
C783 H799 0.961 . S
C784 C785 1.370 . S
C784 C786 1.363 . S
C784 H800 0.931 . S
C785 C784 1.370 . S
C785 C789 1.408 . S
C786 C784 1.363 . S
C786 C787 1.370 . S
C786 C790 1.524 . S
C787 C779 1.503 . S
C787 C786 1.370 . S
C787 C788 1.403 . S
C788 C787 1.403 . S
C788 C789 1.404 . S
C788 C791 1.539 . S
C789 C785 1.408 . S
C789 C788 1.404 . S
C789 H801 0.930 . S
C790 C786 1.524 . S
C790 H802 0.956 . S
C790 H803 0.961 . S
C790 H804 0.961 . S
C791 C788 1.539 . S
C791 H805 0.958 . S
C791 H806 0.961 . S
C791 H807 0.960 . S
H792 C776 0.931 . S
H793 C781 0.929 . S
H794 C782 0.960 . S
H795 C782 0.962 . S
H796 C782 0.960 . S
H797 C783 0.961 . S
H798 C783 0.961 . S
H799 C783 0.961 . S
H800 C784 0.931 . S
H801 C789 0.930 . S
H802 C790 0.956 . S
H803 C790 0.961 . S
H804 C790 0.961 . S
H805 C791 0.958 . S
H806 C791 0.961 . S
H807 C791 0.960 . S
C808 C809 1.391 . S
C808 C810 1.394 . S
C808 H824 0.931 . S
C809 C808 1.391 . S
C809 C813 1.376 . S
C810 C808 1.394 . S
C810 C811 1.369 . S
C810 C814 1.531 . S
C811 C810 1.369 . S
C811 C812 1.410 . S
C811 C819 1.503 . S
C812 C811 1.410 . S
C812 C813 1.392 . S
C812 C815 1.511 . S
C813 C809 1.376 . S
C813 C812 1.392 . S
C813 H825 0.929 . S
C814 C810 1.531 . S
C814 H826 0.960 1_565 S
C814 H827 0.962 . S
C814 H828 0.960 1_565 S
C815 C812 1.511 . S
C815 H829 0.961 . S
C815 H830 0.961 . S
C815 H831 0.961 1_655 S
C816 C817 1.370 . S
C816 C818 1.363 . S
C816 H832 0.931 . S
C817 C816 1.370 . S
C817 C821 1.408 . S
C818 C816 1.363 . S
C818 C819 1.370 . S
C818 C822 1.524 . S
C819 C811 1.503 . S
C819 C818 1.370 . S
C819 C820 1.403 . S
C820 C819 1.403 . S
C820 C821 1.404 . S
C820 C823 1.543 1_655 S
C821 C817 1.408 . S
C821 C820 1.404 . S
C821 H833 0.930 1_665 S
C822 C818 1.524 . S
C822 H834 0.956 . S
C822 H835 0.961 . S
C822 H836 0.961 . S
C823 C820 1.543 1_455 S
C823 H837 0.951 1_465 S
C823 H838 0.960 1_565 S
C823 H839 0.964 . S
H824 C808 0.931 . S
H825 C813 0.929 . S
H826 C814 0.960 1_545 S
H827 C814 0.962 . S
H828 C814 0.960 1_545 S
H829 C815 0.961 . S
H830 C815 0.961 . S
H831 C815 0.961 1_455 S
H832 C816 0.931 . S
H833 C821 0.930 1_445 S
H834 C822 0.956 . S
H835 C822 0.961 . S
H836 C822 0.961 . S
H837 C823 0.951 1_645 S
H838 C823 0.960 1_545 S
H839 C823 0.964 . S
C840 C841 1.391 . S
C840 C842 1.394 . S
C840 H856 0.931 . S
C841 C840 1.391 . S
C841 C845 1.376 . S
C842 C840 1.394 . S
C842 C843 1.369 . S
C842 C846 1.531 . S
C843 C842 1.369 . S
C843 C844 1.410 . S
C843 C851 1.503 . S
C844 C843 1.410 . S
C844 C845 1.392 . S
C844 C847 1.511 . S
C845 C841 1.376 . S
C845 C844 1.392 . S
C845 H857 0.929 . S
C846 C842 1.531 . S
C846 H858 0.960 . S
C846 H859 0.962 . S
C846 H860 0.960 . S
C847 C844 1.511 . S
C847 H861 0.961 . S
C847 H862 0.961 . S
C847 H863 0.961 . S
C848 C849 1.370 . S
C848 C850 1.363 . S
C848 H864 0.931 . S
C849 C848 1.370 . S
C849 C853 1.408 . S
C850 C848 1.363 . S
C850 C851 1.370 . S
C850 C854 1.524 . S
C851 C843 1.503 . S
C851 C850 1.370 . S
C851 C852 1.403 . S
C852 C851 1.403 . S
C852 C853 1.404 . S
C852 C855 1.539 . S
C853 C849 1.408 . S
C853 C852 1.404 . S
C853 H865 0.930 . S
C854 C850 1.524 . S
C854 H866 0.956 . S
C854 H867 0.961 . S
C854 H868 0.961 1_545 S
C855 C852 1.539 . S
C855 H869 0.958 . S
C855 H870 0.961 . S
C855 H871 0.960 . S
H856 C840 0.931 . S
H857 C845 0.929 . S
H858 C846 0.960 . S
H859 C846 0.962 . S
H860 C846 0.960 . S
H861 C847 0.961 . S
H862 C847 0.961 . S
H863 C847 0.961 . S
H864 C848 0.931 . S
H865 C853 0.930 . S
H866 C854 0.956 . S
H867 C854 0.961 . S
H868 C854 0.961 1_565 S
H869 C855 0.958 . S
H870 C855 0.961 . S
H871 C855 0.960 . S
C872 C873 1.391 . S
C872 C874 1.394 . S
C872 H888 0.931 . S
C873 C872 1.391 . S
C873 C877 1.376 . S
C874 C872 1.394 . S
C874 C875 1.369 . S
C874 C878 1.531 . S
C875 C874 1.369 . S
C875 C876 1.410 . S
C875 C883 1.503 . S
C876 C875 1.410 . S
C876 C877 1.392 . S
C876 C879 1.511 . S
C877 C873 1.376 . S
C877 C876 1.392 . S
C877 H889 0.929 . S
C878 C874 1.531 . S
C878 H890 0.960 . S
C878 H891 0.962 . S
C878 H892 0.960 . S
C879 C876 1.511 . S
C879 H893 0.961 . S
C879 H894 0.961 . S
C879 H895 0.961 . S
C880 C881 1.370 . S
C880 C882 1.363 . S
C880 H896 0.931 . S
C881 C880 1.370 . S
C881 C885 1.408 . S
C882 C880 1.363 . S
C882 C883 1.370 . S
C882 C886 1.524 . S
C883 C875 1.503 . S
C883 C882 1.370 . S
C883 C884 1.403 . S
C884 C883 1.403 . S
C884 C885 1.404 . S
C884 C887 1.539 . S
C885 C881 1.408 . S
C885 C884 1.404 . S
C885 H897 0.930 . S
C886 C882 1.524 . S
C886 H898 0.956 . S
C886 H899 0.961 . S
C886 H900 0.961 . S
C887 C884 1.539 . S
C887 H901 0.958 . S
C887 H902 0.961 . S
C887 H903 0.960 . S
H888 C872 0.931 . S
H889 C877 0.929 . S
H890 C878 0.960 . S
H891 C878 0.962 . S
H892 C878 0.960 . S
H893 C879 0.961 . S
H894 C879 0.961 . S
H895 C879 0.961 . S
H896 C880 0.931 . S
H897 C885 0.930 . S
H898 C886 0.956 . S
H899 C886 0.961 . S
H900 C886 0.961 . S
H901 C887 0.958 . S
H902 C887 0.961 . S
H903 C887 0.960 . S
C904 C905 1.391 . S
C904 C906 1.394 . S
C904 H920 0.931 . S
C905 C904 1.391 . S
C905 C909 1.376 . S
C906 C904 1.394 . S
C906 C907 1.369 . S
C906 C910 1.531 . S
C907 C906 1.369 . S
C907 C908 1.410 . S
C907 C915 1.503 . S
C908 C907 1.410 . S
C908 C909 1.392 . S
C908 C911 1.511 . S
C909 C905 1.376 . S
C909 C908 1.392 . S
C909 H921 0.929 . S
C910 C906 1.531 . S
C910 H922 0.960 . S
C910 H923 0.962 . S
C910 H924 0.960 . S
C911 C908 1.511 . S
C911 H925 0.961 . S
C911 H926 0.961 . S
C911 H927 0.961 . S
C912 C913 1.370 . S
C912 C914 1.363 . S
C912 H928 0.931 . S
C913 C912 1.370 . S
C913 C917 1.408 . S
C914 C912 1.363 . S
C914 C915 1.370 . S
C914 C918 1.524 . S
C915 C907 1.503 . S
C915 C914 1.370 . S
C915 C916 1.403 . S
C916 C915 1.403 . S
C916 C917 1.404 . S
C916 C919 1.539 . S
C917 C913 1.408 . S
C917 C916 1.404 . S
C917 H929 0.930 . S
C918 C914 1.524 . S
C918 H930 0.956 . S
C918 H931 0.961 . S
C918 H932 0.961 . S
C919 C916 1.539 . S
C919 H933 0.958 1_455 S
C919 H934 0.954 1_455 S
C919 H935 0.960 . S
H920 C904 0.931 . S
H921 C909 0.929 . S
H922 C910 0.960 . S
H923 C910 0.962 . S
H924 C910 0.960 . S
H925 C911 0.961 . S
H926 C911 0.961 . S
H927 C911 0.961 . S
H928 C912 0.931 . S
H929 C917 0.930 . S
H930 C918 0.956 . S
H931 C918 0.961 . S
H932 C918 0.961 . S
H933 C919 0.958 1_655 S
H934 C919 0.954 1_655 S
H935 C919 0.960 . S
C936 C937 1.391 . S
C936 C938 1.394 . S
C936 H952 0.931 . S
C937 C936 1.391 . S
C937 C941 1.376 . S
C938 C936 1.394 . S
C938 C939 1.369 . S
C938 C942 1.531 . S
C939 C938 1.369 . S
C939 C940 1.410 . S
C939 C947 1.503 . S
C940 C939 1.410 . S
C940 C941 1.392 . S
C940 C943 1.511 . S
C941 C937 1.376 . S
C941 C940 1.392 . S
C941 H953 0.929 . S
C942 C938 1.531 . S
C942 H954 0.960 . S
C942 H955 0.962 1_556 S
C942 H956 0.960 1_556 S
C943 C940 1.511 . S
C943 H957 0.961 . S
C943 H958 0.961 . S
C943 H959 0.961 . S
C944 C945 1.370 . S
C944 C946 1.363 . S
C944 H960 0.931 . S
C945 C944 1.370 . S
C945 C949 1.423 . S
C946 C944 1.363 . S
C946 C947 1.370 . S
C946 C950 1.524 . S
C947 C939 1.503 . S
C947 C946 1.370 . S
C947 C948 1.403 . S
C948 C947 1.403 . S
C948 C949 1.406 . S
C948 C951 1.539 1_565 S
C949 C945 1.423 . S
C949 C948 1.406 . S
C949 H961 0.913 1_565 S
C950 C946 1.524 . S
C950 H962 0.956 . S
C950 H963 0.961 . S
C950 H964 0.961 . S
C951 C948 1.539 1_545 S
C951 H965 0.958 . S
C951 H966 0.961 . S
C951 H967 0.960 . S
H952 C936 0.931 . S
H953 C941 0.929 . S
H954 C942 0.960 . S
H955 C942 0.962 1_554 S
H956 C942 0.960 1_554 S
H957 C943 0.961 . S
H958 C943 0.961 . S
H959 C943 0.961 . S
H960 C944 0.931 . S
H961 C949 0.913 1_545 S
H962 C950 0.956 . S
H963 C950 0.961 . S
H964 C950 0.961 . S
H965 C951 0.958 . S
H966 C951 0.961 . S
H967 C951 0.960 . S
C968 C969 1.391 . S
C968 C970 1.394 . S
C968 H984 0.931 . S
C969 C968 1.391 . S
C969 C973 1.376 . S
C970 C968 1.394 . S
C970 C971 1.369 . S
C970 C974 1.531 . S
C971 C970 1.369 . S
C971 C972 1.410 . S
C971 C979 1.503 . S
C972 C971 1.410 . S
C972 C973 1.392 . S
C972 C975 1.511 . S
C973 C969 1.376 . S
C973 C972 1.392 . S
C973 H985 0.929 . S
C974 C970 1.531 . S
C974 H986 0.960 . S
C974 H987 0.962 . S
C974 H988 0.960 . S
C975 C972 1.511 . S
C975 H989 0.961 . S
C975 H990 0.961 . S
C975 H991 0.961 . S
C976 C977 1.370 . S
C976 C978 1.363 . S
C976 H992 0.931 . S
C977 C976 1.370 . S
C977 C981 1.408 . S
C978 C976 1.363 . S
C978 C979 1.370 . S
C978 C982 1.524 . S
C979 C971 1.503 . S
C979 C978 1.370 . S
C979 C980 1.403 . S
C980 C979 1.403 . S
C980 C981 1.404 . S
C980 C983 1.539 1_545 S
C981 C977 1.408 . S
C981 C980 1.404 . S
C981 H993 0.930 1_545 S
C982 C978 1.524 . S
C982 H994 0.956 . S
C982 H995 0.961 . S
C982 H996 0.961 . S
C983 C980 1.539 1_565 S
C983 H997 0.958 . S
C983 H998 0.961 . S
C983 H999 0.960 . S
H984 C968 0.931 . S
H985 C973 0.929 . S
H986 C974 0.960 . S
H987 C974 0.962 . S
H988 C974 0.960 . S
H989 C975 0.961 . S
H990 C975 0.961 . S
H991 C975 0.961 . S
H992 C976 0.931 . S
H993 C981 0.930 1_565 S
H994 C982 0.956 . S
H995 C982 0.961 . S
H996 C982 0.961 . S
H997 C983 0.958 . S
H998 C983 0.961 . S
H999 C983 0.960 . S
C1000 C1001 1.391 . S
C1000 C1002 1.394 . S
C1000 H1016 0.931 . S
C1001 C1000 1.391 . S
C1001 C1005 1.376 . S
C1002 C1000 1.394 . S
C1002 C1003 1.369 . S
C1002 C1006 1.531 . S
C1003 C1002 1.369 . S
C1003 C1004 1.410 . S
C1003 C1011 1.503 . S
C1004 C1003 1.410 . S
C1004 C1005 1.392 . S
C1004 C1007 1.511 . S
C1005 C1001 1.376 . S
C1005 C1004 1.392 . S
C1005 H1017 0.929 . S
C1006 C1002 1.531 . S
C1006 H1018 0.960 . S
C1006 H1019 0.962 1_554 S
C1006 H1020 0.964 . S
C1007 C1004 1.511 . S
C1007 H1021 0.961 . S
C1007 H1022 0.961 . S
C1007 H1023 0.961 . S
C1008 C1009 1.370 . S
C1008 C1010 1.363 . S
C1008 H1024 0.931 1_554 S
C1009 C1008 1.370 . S
C1009 C1013 1.408 . S
C1010 C1008 1.363 . S
C1010 C1011 1.370 . S
C1010 C1014 1.524 . S
C1011 C1003 1.503 . S
C1011 C1010 1.370 . S
C1011 C1012 1.403 . S
C1012 C1011 1.403 . S
C1012 C1013 1.404 . S
C1012 C1015 1.539 . S
C1013 C1009 1.408 . S
C1013 C1012 1.404 . S
C1013 H1025 0.930 . S
C1014 C1010 1.524 . S
C1014 H1026 0.956 1_554 S
C1014 H1027 0.961 . S
C1014 H1028 0.961 1_554 S
C1015 C1012 1.539 . S
C1015 H1029 0.958 . S
C1015 H1030 0.961 . S
C1015 H1031 0.960 . S
H1016 C1000 0.931 . S
H1017 C1005 0.929 . S
H1018 C1006 0.960 . S
H1019 C1006 0.962 1_556 S
H1020 C1006 0.964 . S
H1021 C1007 0.961 . S
H1022 C1007 0.961 . S
H1023 C1007 0.961 . S
H1024 C1008 0.931 1_556 S
H1025 C1013 0.930 . S
H1026 C1014 0.956 1_556 S
H1027 C1014 0.961 . S
H1028 C1014 0.961 1_556 S
H1029 C1015 0.958 . S
H1030 C1015 0.961 . S
H1031 C1015 0.960 . S
C1032 C1033 1.391 . S
C1032 C1034 1.394 . S
C1032 H1048 0.931 . S
C1033 C1032 1.391 . S
C1033 C1037 1.376 . S
C1034 C1032 1.394 . S
C1034 C1035 1.369 . S
C1034 C1038 1.531 . S
C1035 C1034 1.369 . S
C1035 C1036 1.410 . S
C1035 C1043 1.503 . S
C1036 C1035 1.410 . S
C1036 C1037 1.392 . S
C1036 C1039 1.511 . S
C1037 C1033 1.376 . S
C1037 C1036 1.392 . S
C1037 H1049 0.929 . S
C1038 C1034 1.531 . S
C1038 H1050 0.960 . S
C1038 H1051 0.962 . S
C1038 H1052 0.960 . S
C1039 C1036 1.511 . S
C1039 H1053 0.961 . S
C1039 H1054 0.961 . S
C1039 H1055 0.961 . S
C1040 C1041 1.370 . S
C1040 C1042 1.363 . S
C1040 H1056 0.931 . S
C1041 C1040 1.370 . S
C1041 C1045 1.408 . S
C1042 C1040 1.363 . S
C1042 C1043 1.370 . S
C1042 C1046 1.524 . S
C1043 C1035 1.503 . S
C1043 C1042 1.370 . S
C1043 C1044 1.403 . S
C1044 C1043 1.403 . S
C1044 C1045 1.404 . S
C1044 C1047 1.539 . S
C1045 C1041 1.408 . S
C1045 C1044 1.404 . S
C1045 H1057 0.930 . S
C1046 C1042 1.524 . S
C1046 H1058 0.956 . S
C1046 H1059 0.961 . S
C1046 H1060 0.961 . S
C1047 C1044 1.539 . S
C1047 H1061 0.958 . S
C1047 H1062 0.961 . S
C1047 H1063 0.960 . S
H1048 C1032 0.931 . S
H1049 C1037 0.929 . S
H1050 C1038 0.960 . S
H1051 C1038 0.962 . S
H1052 C1038 0.960 . S
H1053 C1039 0.961 . S
H1054 C1039 0.961 . S
H1055 C1039 0.961 . S
H1056 C1040 0.931 . S
H1057 C1045 0.930 . S
H1058 C1046 0.956 . S
H1059 C1046 0.961 . S
H1060 C1046 0.961 . S
H1061 C1047 0.958 . S
H1062 C1047 0.961 . S
H1063 C1047 0.960 . S
C1064 C1065 1.391 . S
C1064 C1066 1.394 . S
C1064 H1080 0.931 . S
C1065 C1064 1.391 . S
C1065 C1069 1.376 . S
C1066 C1064 1.394 . S
C1066 C1067 1.369 . S
C1066 C1070 1.531 . S
C1067 C1066 1.369 . S
C1067 C1068 1.410 . S
C1067 C1075 1.503 . S
C1068 C1067 1.410 . S
C1068 C1069 1.392 . S
C1068 C1071 1.511 1_655 S
C1069 C1065 1.376 . S
C1069 C1068 1.392 . S
C1069 H1081 0.929 . S
C1070 C1066 1.531 . S
C1070 H1082 0.960 . S
C1070 H1083 0.962 . S
C1070 H1084 0.960 . S
C1071 C1068 1.511 1_455 S
C1071 H1085 0.961 . S
C1071 H1086 0.963 . S
C1071 H1087 0.961 . S
C1072 C1073 1.370 . S
C1072 C1074 1.363 . S
C1072 H1088 0.931 1_556 S
C1073 C1072 1.370 . S
C1073 C1077 1.408 . S
C1074 C1072 1.363 . S
C1074 C1075 1.370 . S
C1074 C1078 1.524 . S
C1075 C1067 1.503 . S
C1075 C1074 1.370 . S
C1075 C1076 1.403 . S
C1076 C1075 1.403 . S
C1076 C1077 1.404 . S
C1076 C1079 1.542 . S
C1077 C1073 1.408 . S
C1077 C1076 1.404 . S
C1077 H1089 0.928 1_655 S
C1078 C1074 1.524 . S
C1078 H1090 0.956 . S
C1078 H1091 0.961 . S
C1078 H1092 0.961 1_556 S
C1079 C1076 1.542 . S
C1079 H1093 0.961 . S
C1079 H1094 0.957 1_655 S
C1079 H1095 0.959 1_655 S
H1080 C1064 0.931 . S
H1081 C1069 0.929 . S
H1082 C1070 0.960 . S
H1083 C1070 0.962 . S
H1084 C1070 0.960 . S
H1085 C1071 0.961 . S
H1086 C1071 0.963 . S
H1087 C1071 0.961 . S
H1088 C1072 0.931 1_554 S
H1089 C1077 0.928 1_455 S
H1090 C1078 0.956 . S
H1091 C1078 0.961 . S
H1092 C1078 0.961 1_554 S
H1093 C1079 0.961 . S
H1094 C1079 0.957 1_455 S
H1095 C1079 0.959 1_455 S
C1096 C1097 1.391 . S
C1096 C1098 1.394 . S
C1096 H1112 0.931 . S
C1097 C1096 1.391 . S
C1097 C1101 1.376 . S
C1098 C1096 1.394 . S
C1098 C1099 1.369 . S
C1098 C1102 1.531 . S
C1099 C1098 1.369 . S
C1099 C1100 1.410 . S
C1099 C1107 1.503 . S
C1100 C1099 1.410 . S
C1100 C1101 1.392 . S
C1100 C1103 1.511 . S
C1101 C1097 1.376 . S
C1101 C1100 1.392 . S
C1101 H1113 0.929 . S
C1102 C1098 1.531 . S
C1102 H1114 0.960 . S
C1102 H1115 0.962 . S
C1102 H1116 0.960 1_554 S
C1103 C1100 1.511 . S
C1103 H1117 0.961 . S
C1103 H1118 0.961 . S
C1103 H1119 0.961 . S
C1104 C1105 1.370 . S
C1104 C1106 1.363 . S
C1104 H1120 0.931 . S
C1105 C1104 1.370 . S
C1105 C1109 1.408 . S
C1106 C1104 1.363 . S
C1106 C1107 1.370 . S
C1106 C1110 1.524 . S
C1107 C1099 1.503 . S
C1107 C1106 1.370 . S
C1107 C1108 1.403 . S
C1108 C1107 1.403 . S
C1108 C1109 1.404 . S
C1108 C1111 1.539 . S
C1109 C1105 1.408 . S
C1109 C1108 1.404 . S
C1109 H1121 0.930 . S
C1110 C1106 1.524 . S
C1110 H1122 0.956 . S
C1110 H1123 0.961 . S
C1110 H1124 0.961 . S
C1111 C1108 1.539 . S
C1111 H1125 0.958 1_554 S
C1111 H1126 0.961 . S
C1111 H1127 0.960 . S
H1112 C1096 0.931 . S
H1113 C1101 0.929 . S
H1114 C1102 0.960 . S
H1115 C1102 0.962 . S
H1116 C1102 0.960 1_556 S
H1117 C1103 0.961 . S
H1118 C1103 0.961 . S
H1119 C1103 0.961 . S
H1120 C1104 0.931 . S
H1121 C1109 0.930 . S
H1122 C1110 0.956 . S
H1123 C1110 0.961 . S
H1124 C1110 0.961 . S
H1125 C1111 0.958 1_556 S
H1126 C1111 0.961 . S
H1127 C1111 0.960 . S
C1128 C1129 1.391 . S
C1128 C1130 1.394 . S
C1128 H1144 0.931 . S
C1129 C1128 1.391 . S
C1129 C1133 1.376 . S
C1130 C1128 1.394 . S
C1130 C1131 1.369 . S
C1130 C1134 1.531 . S
C1131 C1130 1.369 . S
C1131 C1132 1.410 . S
C1131 C1139 1.503 . S
C1132 C1131 1.410 . S
C1132 C1133 1.392 . S
C1132 C1135 1.511 . S
C1133 C1129 1.376 . S
C1133 C1132 1.392 . S
C1133 H1145 0.929 . S
C1134 C1130 1.531 . S
C1134 H1146 0.960 . S
C1134 H1147 0.962 . S
C1134 H1148 0.960 . S
C1135 C1132 1.511 . S
C1135 H1149 0.961 . S
C1135 H1150 0.961 . S
C1135 H1151 0.961 . S
C1136 C1137 1.370 . S
C1136 C1138 1.363 . S
C1136 H1152 0.931 . S
C1137 C1136 1.370 . S
C1137 C1141 1.408 . S
C1138 C1136 1.363 . S
C1138 C1139 1.370 . S
C1138 C1142 1.524 . S
C1139 C1131 1.503 . S
C1139 C1138 1.370 . S
C1139 C1140 1.403 . S
C1140 C1139 1.403 . S
C1140 C1141 1.404 . S
C1140 C1143 1.539 . S
C1141 C1137 1.408 . S
C1141 C1140 1.404 . S
C1141 H1153 0.930 . S
C1142 C1138 1.524 . S
C1142 H1154 0.956 . S
C1142 H1155 0.961 . S
C1142 H1156 0.961 . S
C1143 C1140 1.539 . S
C1143 H1157 0.958 . S
C1143 H1158 0.961 . S
C1143 H1159 0.960 . S
H1144 C1128 0.931 . S
H1145 C1133 0.929 . S
H1146 C1134 0.960 . S
H1147 C1134 0.962 . S
H1148 C1134 0.960 . S
H1149 C1135 0.961 . S
H1150 C1135 0.961 . S
H1151 C1135 0.961 . S
H1152 C1136 0.931 . S
H1153 C1141 0.930 . S
H1154 C1142 0.956 . S
H1155 C1142 0.961 . S
H1156 C1142 0.961 . S
H1157 C1143 0.958 . S
H1158 C1143 0.961 . S
H1159 C1143 0.960 . S
C1160 C1161 1.391 . S
C1160 C1162 1.394 . S
C1160 H1176 0.931 . S
C1161 C1160 1.391 . S
C1161 C1165 1.376 . S
C1162 C1160 1.394 . S
C1162 C1163 1.369 . S
C1162 C1166 1.531 . S
C1163 C1162 1.369 . S
C1163 C1164 1.410 . S
C1163 C1171 1.503 . S
C1164 C1163 1.410 . S
C1164 C1165 1.392 . S
C1164 C1167 1.511 . S
C1165 C1161 1.376 . S
C1165 C1164 1.392 . S
C1165 H1177 0.929 . S
C1166 C1162 1.531 . S
C1166 H1178 0.960 . S
C1166 H1179 0.962 . S
C1166 H1180 0.960 . S
C1167 C1164 1.511 . S
C1167 H1181 0.961 . S
C1167 H1182 0.961 . S
C1167 H1183 0.961 . S
C1168 C1169 1.370 . S
C1168 C1170 1.363 . S
C1168 H1184 0.931 . S
C1169 C1168 1.370 . S
C1169 C1173 1.408 . S
C1170 C1168 1.363 . S
C1170 C1171 1.370 . S
C1170 C1174 1.524 . S
C1171 C1163 1.503 . S
C1171 C1170 1.370 . S
C1171 C1172 1.403 . S
C1172 C1171 1.403 . S
C1172 C1173 1.404 . S
C1172 C1175 1.539 . S
C1173 C1169 1.408 . S
C1173 C1172 1.404 . S
C1173 H1185 0.930 . S
C1174 C1170 1.524 . S
C1174 H1186 0.956 . S
C1174 H1187 0.961 . S
C1174 H1188 0.961 . S
C1175 C1172 1.539 . S
C1175 H1189 0.958 . S
C1175 H1190 0.961 . S
C1175 H1191 0.960 . S
H1176 C1160 0.931 . S
H1177 C1165 0.929 . S
H1178 C1166 0.960 . S
H1179 C1166 0.962 . S
H1180 C1166 0.960 . S
H1181 C1167 0.961 . S
H1182 C1167 0.961 . S
H1183 C1167 0.961 . S
H1184 C1168 0.931 . S
H1185 C1173 0.930 . S
H1186 C1174 0.956 . S
H1187 C1174 0.961 . S
H1188 C1174 0.961 . S
H1189 C1175 0.958 . S
H1190 C1175 0.961 . S
H1191 C1175 0.960 . S
C425 C1 2.289 . S
C433 C288 2.333 . S
C457 C67 2.262 . S
C465 C330 2.309 . S
C497 C360 1.007 . S
C489 C97 0.975 . S
C521 C133 1.091 . S
C529 C394 1.072 . S
C561 C351 1.874 . S
C553 C25 1.841 . S
C593 C305 1.867 . S
C585 C37 1.850 . S
C625 C398 1.377 . S
C617 C103 1.357 . S
C657 C364 1.429 . S
C649 C109 1.436 . S
C681 C31 2.194 . S
C689 C419 2.233 . S
C721 C326 1.159 . S
C713 C73 1.084 . S
C745 C139 1.143 . S
C753 C301 1.177 . S
C777 C61 2.169 . S
C785 C385 2.193 . S
C817 C317 2.342 . S
C809 C175 2.338 . S
C841 C181 2.240 . S
C849 C339 2.293 . S
C873 C247 1.042 . S
C881 C369 1.008 . S
C905 C277 1.084 . S
C913 C403 1.075 . S
C937 C145 1.868 . S
C945 C322 1.870 . S
C977 C296 1.871 . S
C969 C211 1.854 . S
C1009 C407 1.368 . S
C1001 C217 1.357 . S
C1041 C373 1.455 . S
C1033 C283 1.424 . S
C1065 C169 2.221 . S
C1073 C390 2.223 . S
C1105 C335 1.143 . S
C1097 C241 1.159 . S
C1137 C292 1.169 . S
C1129 C253 1.126 . S
C1161 C205 2.170 . S
C1169 C356 2.200 . S
