# Generated by pormake.
# Topology pyr, (3,6)-cn, num edge types: 1
# Building blocks:
#     Node 0, Type 0, BuildingBlock: QEWDON_clean_linker_0, # of connection points: 3
#     Node 1, Type 0, BuildingBlock: QEWDON_clean_linker_0, # of connection points: 3
#     Node 2, Type 0, BuildingBlock: QEWDON_clean_linker_0, # of connection points: 3
#     Node 3, Type 0, BuildingBlock: QEWDON_clean_linker_0, # of connection points: 3
#     Node 4, Type 0, BuildingBlock: QEWDON_clean_linker_0, # of connection points: 3
#     Node 5, Type 0, BuildingBlock: QEWDON_clean_linker_0, # of connection points: 3
#     Node 6, Type 0, BuildingBlock: QEWDON_clean_linker_0, # of connection points: 3
#     Node 7, Type 0, BuildingBlock: QEWDON_clean_linker_0, # of connection points: 3
#     Node 8, Type 1, BuildingBlock: BETFAJ_clean_sbu_0, # of connection points: 6
#     Node 9, Type 1, BuildingBlock: BETFAJ_clean_sbu_0, # of connection points: 6
#     Node 10, Type 1, BuildingBlock: BETFAJ_clean_sbu_0, # of connection points: 6
#     Node 11, Type 1, BuildingBlock: BETFAJ_clean_sbu_0, # of connection points: 6
#     Edge 12, Type (0, 1), BuildingBlock: XIVTED_clean_linker_0, # of connection points: 2
#     Edge 13, Type (0, 1), BuildingBlock: XIVTED_clean_linker_0, # of connection points: 2
#     Edge 14, Type (0, 1), BuildingBlock: XIVTED_clean_linker_0, # of connection points: 2
#     Edge 15, Type (0, 1), BuildingBlock: XIVTED_clean_linker_0, # of connection points: 2
#     Edge 16, Type (0, 1), BuildingBlock: XIVTED_clean_linker_0, # of connection points: 2
#     Edge 17, Type (0, 1), BuildingBlock: XIVTED_clean_linker_0, # of connection points: 2
#     Edge 18, Type (0, 1), BuildingBlock: XIVTED_clean_linker_0, # of connection points: 2
#     Edge 19, Type (0, 1), BuildingBlock: XIVTED_clean_linker_0, # of connection points: 2
#     Edge 20, Type (0, 1), BuildingBlock: XIVTED_clean_linker_0, # of connection points: 2
#     Edge 21, Type (0, 1), BuildingBlock: XIVTED_clean_linker_0, # of connection points: 2
#     Edge 22, Type (0, 1), BuildingBlock: XIVTED_clean_linker_0, # of connection points: 2
#     Edge 23, Type (0, 1), BuildingBlock: XIVTED_clean_linker_0, # of connection points: 2
#     Edge 24, Type (0, 1), BuildingBlock: XIVTED_clean_linker_0, # of connection points: 2
#     Edge 25, Type (0, 1), BuildingBlock: XIVTED_clean_linker_0, # of connection points: 2
#     Edge 26, Type (0, 1), BuildingBlock: XIVTED_clean_linker_0, # of connection points: 2
#     Edge 27, Type (0, 1), BuildingBlock: XIVTED_clean_linker_0, # of connection points: 2
#     Edge 28, Type (0, 1), BuildingBlock: XIVTED_clean_linker_0, # of connection points: 2
#     Edge 29, Type (0, 1), BuildingBlock: XIVTED_clean_linker_0, # of connection points: 2
#     Edge 30, Type (0, 1), BuildingBlock: XIVTED_clean_linker_0, # of connection points: 2
#     Edge 31, Type (0, 1), BuildingBlock: XIVTED_clean_linker_0, # of connection points: 2
#     Edge 32, Type (0, 1), BuildingBlock: XIVTED_clean_linker_0, # of connection points: 2
#     Edge 33, Type (0, 1), BuildingBlock: XIVTED_clean_linker_0, # of connection points: 2
#     Edge 34, Type (0, 1), BuildingBlock: XIVTED_clean_linker_0, # of connection points: 2
#     Edge 35, Type (0, 1), BuildingBlock: XIVTED_clean_linker_0, # of connection points: 2
# Relax obj value: 0.171
# Max RMSD: 0.266
# Mean RMSD: 0.196
data_MOF--net-pyr--node1-BETFAJ_clean_sbu_0--node2-QEWDON_clean_linker_0--edge1-XIVTED_clean_linker_0
_symmetry_space_group_name_H-M    P1
_symmetry_Int_Tables_number       1
_symmetry_cell_setting            triclinic
loop_
_symmetry_equiv_pos_as_xyz
'x, y, z'
_cell_length_a     38.62839
_cell_length_b     41.95895
_cell_length_c     39.932713
_cell_angle_alpha  92.057292
_cell_angle_beta   89.543932
_cell_angle_gamma 109.34971
loop_
_atom_site_label
_atom_site_type_symbol
_atom_site_fract_x
_atom_site_fract_y
_atom_site_fract_z
_atom_type_partial_charge
H0 H 0.43099 0.32486 0.20538 0.0
C1 C 0.41028 0.31755 0.2247 0.0
C2 C 0.40248 0.28591 0.23916 0.0
C3 C 0.38988 0.33886 0.23347 0.0
H4 H 0.36908 0.25207 0.27497 0.0
C5 C 0.37452 0.27605 0.2631 0.0
C6 C 0.35303 0.29635 0.27142 0.0
C7 C 0.36134 0.32801 0.25696 0.0
C8 C 0.39689 0.37148 0.21664 0.0
H9 H 0.34497 0.34388 0.26334 0.0
C10 C 0.36743 0.38186 0.20692 0.0
C11 C 0.37365 0.41242 0.19068 0.0
C12 C 0.43291 0.39222 0.20973 0.0
H13 H 0.45622 0.3852 0.21721 0.0
C14 C 0.43924 0.4225 0.19337 0.0
H15 H 0.33948 0.36572 0.21116 0.0
C16 C 0.40985 0.43258 0.18381 0.0
H17 H 0.41543 0.45634 0.1715 0.0
H18 H 0.46707 0.43831 0.18823 0.0
H19 H 0.24553 0.92208 0.71324 0.0
C20 C 0.26533 0.90986 0.70614 0.0
C21 C 0.29871 0.9185 0.72366 0.0
C22 C 0.25757 0.88567 0.67943 0.0
H23 H 0.34962 0.90852 0.72854 0.0
C24 C 0.32402 0.90224 0.71478 0.0
C25 C 0.31645 0.87757 0.68876 0.0
C26 C 0.28336 0.86969 0.67096 0.0
C27 C 0.22323 0.8778 0.65953 0.0
H28 H 0.27766 0.85098 0.6505 0.0
C29 C 0.21031 0.90391 0.6504 0.0
C30 C 0.17968 0.89739 0.62908 0.0
C31 C 0.2042 0.84452 0.64819 0.0
H32 H 0.21304 0.82374 0.65529 0.0
C33 C 0.17359 0.83769 0.6274 0.0
H34 H 0.22463 0.92944 0.65957 0.0
C35 C 0.1616 0.86387 0.61757 0.0
H36 H 0.13853 0.85775 0.60048 0.0
H37 H 0.15936 0.81202 0.61849 0.0
H38 H 0.71967 0.45665 0.90958 0.0
C39 C 0.70771 0.42988 0.91388 0.0
C40 C 0.72638 0.4139 0.93425 0.0
C41 C 0.67198 0.41263 0.90165 0.0
H42 H 0.72255 0.36682 0.95682 0.0
C43 C 0.70871 0.37952 0.94134 0.0
C44 C 0.67256 0.36175 0.93042 0.0
C45 C 0.65454 0.3787 0.91039 0.0
C46 C 0.64961 0.43289 0.88915 0.0
H47 H 0.62631 0.36605 0.90278 0.0
C48 C 0.6454 0.43897 0.8547 0.0
C49 C 0.62397 0.4593 0.84551 0.0
C50 C 0.63289 0.44754 0.91369 0.0
H51 H 0.63585 0.44346 0.94002 0.0
C52 C 0.61272 0.46791 0.90489 0.0
H53 H 0.65813 0.42776 0.83549 0.0
C54 C 0.60843 0.47385 0.87139 0.0
H55 H 0.59294 0.49032 0.86577 0.0
H56 H 0.60038 0.47933 0.92423 0.0
H57 H 0.91489 0.80352 0.38053 0.0
C58 C 0.89385 0.78582 0.3951 0.0
C59 C 0.88602 0.79547 0.42777 0.0
C60 C 0.87368 0.75401 0.38037 0.0
H61 H 0.85014 0.78037 0.47008 0.0
C62 C 0.85745 0.77253 0.44566 0.0
C63 C 0.83629 0.7408 0.43146 0.0
C64 C 0.84491 0.73176 0.39873 0.0
C65 C 0.87659 0.74812 0.34345 0.0
H66 H 0.82831 0.70802 0.38691 0.0
C67 C 0.89613 0.72775 0.32869 0.0
C68 C 0.89908 0.7251 0.29316 0.0
C69 C 0.85959 0.76467 0.32249 0.0
H70 H 0.84449 0.78024 0.3331 0.0
C71 C 0.8618 0.76153 0.28781 0.0
H72 H 0.90959 0.71498 0.34456 0.0
C73 C 0.88137 0.74212 0.2733 0.0
H74 H 0.8825 0.74026 0.2462 0.0
H75 H 0.8484 0.7744 0.27203 0.0
H76 H 0.70104 0.78395 0.94374 0.0
C77 C 0.71652 0.7998 0.92419 0.0
C78 C 0.75063 0.79755 0.91439 0.0
C79 C 0.70202 0.822 0.90822 0.0
H80 H 0.79668 0.81635 0.88144 0.0
C81 C 0.77001 0.81761 0.88861 0.0
C82 C 0.75589 0.83973 0.87238 0.0
C83 C 0.72208 0.84229 0.88269 0.0
C84 C 0.66455 0.82195 0.91602 0.0
H85 H 0.71057 0.85884 0.86985 0.0
C86 C 0.65803 0.85202 0.92581 0.0
C87 C 0.62195 0.85208 0.93158 0.0
C88 C 0.63491 0.79178 0.91214 0.0
H89 H 0.63939 0.76845 0.90439 0.0
C90 C 0.59916 0.79169 0.91712 0.0
H91 H 0.6812 0.875 0.92955 0.0
C92 C 0.59262 0.82153 0.92645 0.0
H93 H 0.56442 0.82056 0.92936 0.0
H94 H 0.57636 0.76844 0.91344 0.0
H95 H 0.73515 0.16322 0.56914 0.0
C96 C 0.72753 0.15951 0.54287 0.0
C97 C 0.75028 0.15021 0.51964 0.0
C98 C 0.69552 0.16519 0.53239 0.0
H99 H 0.75733 0.13875 0.46741 0.0
C100 C 0.74039 0.14642 0.48559 0.0
C101 C 0.70888 0.15261 0.47458 0.0
C102 C 0.68663 0.1622 0.49809 0.0
C103 C 0.67156 0.17435 0.55744 0.0
H104 H 0.66189 0.1664 0.48979 0.0
C105 C 0.65837 0.20118 0.55199 0.0
C106 C 0.6367 0.21072 0.57623 0.0
C107 C 0.66245 0.15674 0.58731 0.0
H108 H 0.67199 0.13577 0.592 0.0
C109 C 0.64067 0.16589 0.6113 0.0
H110 H 0.66607 0.21539 0.5294 0.0
C111 C 0.62793 0.19277 0.60592 0.0
H112 H 0.61099 0.19935 0.62486 0.0
H113 H 0.63369 0.15212 0.63418 0.0
H114 H 0.4474 0.80708 0.25495 0.0
C115 C 0.41917 0.79431 0.24741 0.0
C116 C 0.40132 0.81065 0.22645 0.0
C117 C 0.4016 0.76073 0.25719 0.0
H118 H 0.35228 0.80401 0.19775 0.0
C119 C 0.36533 0.7925 0.21534 0.0
C120 C 0.34721 0.75876 0.22425 0.0
C121 C 0.36561 0.74344 0.24565 0.0
C122 C 0.42396 0.74057 0.26993 0.0
H123 H 0.35276 0.71727 0.25202 0.0
C124 C 0.42887 0.73532 0.30447 0.0
C125 C 0.45053 0.71523 0.31378 0.0
C126 C 0.44014 0.72528 0.24549 0.0
H127 H 0.43664 0.72872 0.2191 0.0
C128 C 0.46054 0.70517 0.25446 0.0
H129 H 0.41659 0.747 0.32364 0.0
C130 C 0.4656 0.70011 0.28804 0.0
H131 H 0.48141 0.68397 0.29388 0.0
H132 H 0.47252 0.69332 0.2352 0.0
H133 H 0.25016 0.47084 0.76708 0.0
C134 C 0.23289 0.44852 0.75344 0.0
C135 C 0.24162 0.44185 0.71992 0.0
C136 C 0.20302 0.42543 0.77001 0.0
H137 H 0.22731 0.40548 0.67834 0.0
C138 C 0.2198 0.41168 0.70333 0.0
C139 C 0.19029 0.38801 0.71935 0.0
C140 C 0.182 0.39541 0.75256 0.0
C141 C 0.19867 0.42775 0.8073 0.0
H142 H 0.15991 0.37705 0.76552 0.0
C143 C 0.18628 0.45229 0.82463 0.0
C144 C 0.18142 0.45138 0.86017 0.0
C145 C 0.20615 0.40294 0.82579 0.0
H146 H 0.21565 0.38401 0.81334 0.0
C147 C 0.20117 0.4018 0.86026 0.0
H148 H 0.1804 0.47158 0.81069 0.0
C149 C 0.18875 0.42543 0.87719 0.0
H150 H 0.18434 0.42291 0.90392 0.0
H151 H 0.20666 0.38218 0.87397 0.0
Sm152 Sm 0.04145 0.1094 0.53548 0.0
Sm153 Sm 0.03304 0.07898 0.60352 0.0
C154 C 0.04625 0.14615 0.48197 0.0
C155 C 0.07793 0.16634 0.46274 0.0
C156 C 0.0743 0.18929 0.43948 0.0
C157 C 0.10432 0.20687 0.41987 0.0
C158 C 0.13807 0.20131 0.42314 0.0
C159 C 0.14177 0.17906 0.44721 0.0
C160 C 0.11201 0.16187 0.46697 0.0
C161 C 0.09635 0.08411 0.55167 0.0
C162 C 0.07458 0.15857 0.60249 0.0
C163 C 0.0289 0.04286 0.65727 0.0
C164 C 0.99792 1.02085 0.67602 0.0
C165 C 1.00324 0.99744 0.69776 0.0
C166 C 0.97381 0.97706 0.7162 0.0
C167 C 0.93872 0.98 0.71325 0.0
C168 C 0.93349 1.0033 0.69112 0.0
C169 C 0.96283 0.02343 0.67251 0.0
C170 C 0.97671 0.10213 0.58635 0.0
C171 C 1.00078 0.02909 0.53698 0.0
O172 O 0.04342 0.15751 0.5124 0.0
O173 O 0.04023 0.11363 0.4804 0.0
O174 O 0.08235 0.10054 0.57118 0.0
O175 O 0.08393 0.0835 0.52161 0.0
O176 O 0.05862 0.15621 0.57285 0.0
O177 O 0.07489 0.13103 0.61724 0.0
O178 O 0.03372 0.03192 0.62712 0.0
O179 O 0.03221 0.07488 0.65863 0.0
O180 O 0.99184 0.0866 0.56704 0.0
O181 O 0.98845 0.10298 0.6167 0.0
O182 O 0.01615 0.03193 0.56694 0.0
O183 O 1.0005 0.05641 0.52156 0.0
H184 H 0.04817 0.19309 0.43606 0.0
H185 H 0.10082 0.22383 0.40137 0.0
H186 H 0.16762 0.17466 0.45047 0.0
H187 H 0.11539 0.14452 0.48511 0.0
H188 H 0.03017 0.99514 0.70067 0.0
H189 H 0.97865 0.95948 0.73328 0.0
H190 H 0.90668 1.00578 0.68803 0.0
H191 H 0.95819 0.04121 0.65554 0.0
Sm192 Sm 0.5702 0.09655 0.09182 0.0
Sm193 Sm 0.49939 0.07754 0.0664 0.0
C194 C 0.63399 0.12684 0.12227 0.0
C195 C 0.64429 0.12936 0.15786 0.0
C196 C 0.672 0.15792 0.17083 0.0
C197 C 0.68003 0.16118 0.20517 0.0
C198 C 0.66053 0.13582 0.22693 0.0
C199 C 0.63291 0.10718 0.21371 0.0
C200 C 0.62472 0.10408 0.17955 0.0
C201 C 0.52748 0.03458 0.11693 0.0
C202 C 0.51018 0.12218 0.13142 0.0
C203 C 0.43308 0.04861 0.03985 0.0
C204 C 0.41575 0.04405 1.00669 0.0
C205 C 0.38512 1.01544 0.99976 0.0
C206 C 0.36933 1.00966 0.96784 0.0
C207 C 0.38388 0.03251 0.94226 0.0
C208 C 0.41417 0.06164 0.94963 0.0
C209 C 0.43009 0.06729 0.98155 0.0
C210 C 0.54255 0.13953 0.04155 0.0
C211 C 0.55828 0.04864 0.02823 0.0
O212 O 0.61146 0.14269 0.11447 0.0
O213 O 0.62512 0.09673 0.10804 0.0
O214 O 0.517 0.05998 0.1145 0.0
O215 O 0.56087 0.04178 0.1067 0.0
O216 O 0.54426 0.13181 0.12085 0.0
O217 O 0.4867 0.09443 0.11842 0.0
O218 O 0.4562 0.03245 0.04437 0.0
O219 O 0.44454 0.07933 0.05276 0.0
O220 O 0.55272 0.11389 0.04355 0.0
O221 O 0.50946 0.13271 0.05255 0.0
O222 O 0.52385 0.04179 0.03731 0.0
O223 O 0.58351 0.07521 0.04166 0.0
H224 H 0.6871 0.17782 0.15448 0.0
H225 H 0.70158 0.18344 0.21467 0.0
H226 H 0.61702 0.08751 0.22991 0.0
H227 H 0.60271 0.08212 0.17014 0.0
H228 H 0.37385 0.99719 1.01887 0.0
H229 H 0.34651 0.98665 0.96294 0.0
H230 H 0.42583 0.07992 0.93066 0.0
H231 H 0.45385 0.08953 0.98648 0.0
Sm232 Sm 0.53915 0.56011 0.55668 0.0
Sm233 Sm 0.54442 0.618 0.5998 0.0
C234 C 0.55038 0.51041 0.52031 0.0
C235 C 0.55415 0.47751 0.52635 0.0
C236 C 0.56755 0.46107 0.50087 0.0
C237 C 0.57358 0.43075 0.50691 0.0
C238 C 0.56629 0.41641 0.53861 0.0
C239 C 0.55231 0.43287 0.56398 0.0
C240 C 0.54638 0.46324 0.5579 0.0
C241 C 0.47437 0.55264 0.59117 0.0
C242 C 0.56832 0.55993 0.63466 0.0
C243 C 0.53617 0.6686 0.63694 0.0
C244 C 0.52005 0.69556 0.63527 0.0
C245 C 0.48987 0.69211 0.61442 0.0
C246 C 0.47202 0.71614 0.6164 0.0
C247 C 0.48418 0.74393 0.63924 0.0
C248 C 0.51571 0.74815 0.65866 0.0
C249 C 0.53342 0.72408 0.65673 0.0
C250 C 0.60912 0.62442 0.5658 0.0
C251 C 0.51443 0.61779 0.52295 0.0
O252 O 0.57688 0.53656 0.53232 0.0
O253 O 0.51788 0.51294 0.52521 0.0
O254 O 0.50633 0.56416 0.60344 0.0
O255 O 0.47585 0.54458 0.55964 0.0
O256 O 0.56792 0.5475 0.60365 0.0
O257 O 0.55708 0.58601 0.64059 0.0
O258 O 0.5131 0.63775 0.63682 0.0
O259 O 0.56522 0.67158 0.61876 0.0
O260 O 0.57728 0.61382 0.55317 0.0
O261 O 0.60744 0.63104 0.59766 0.0
O262 O 0.51099 0.62726 0.55444 0.0
O263 O 0.53014 0.59472 0.51655 0.0
H264 H 0.574 0.472 0.47647 0.0
H265 H 0.5849 0.41906 0.487 0.0
H266 H 0.546 0.42231 0.58853 0.0
H267 H 0.53615 0.4758 0.57791 0.0
H268 H 0.47928 0.67023 0.59756 0.0
H269 H 0.44768 0.71205 0.60128 0.0
H270 H 0.52614 0.76962 0.67601 0.0
H271 H 0.55686 0.72719 0.67282 0.0
Sm272 Sm 0.03983 0.55284 0.09292 0.0
Sm273 Sm 0.03703 0.62322 0.0584 0.0
C274 C 0.05703 0.49804 0.10304 0.0
C275 C 0.0907 0.49084 0.11167 0.0
C276 C 0.10053 0.46628 0.0929 0.0
C277 C 0.13219 0.45896 0.10099 0.0
C278 C 0.15438 0.47591 0.12821 0.0
C279 C 0.14469 0.50077 0.14673 0.0
C280 C 0.11329 0.50832 0.13844 0.0
C281 C 1.00616 0.58872 0.13464 0.0
C282 C 0.10838 0.6259 0.10587 0.0
C283 C 0.02103 0.67846 0.04675 0.0
C284 C 0.98858 0.68666 0.03606 0.0
C285 C 0.95476 0.67429 0.05272 0.0
C286 C 0.92423 0.68187 0.04152 0.0
C287 C 0.9269 0.70156 1.01327 0.0
C288 C 0.9608 0.71401 0.99682 0.0
C289 C 0.99134 0.70672 1.00819 0.0
C290 C 0.07096 0.58727 1.01696 0.0
C291 C 0.96802 0.55019 0.04621 0.0
O292 O 0.05575 0.50942 0.07311 0.0
O293 O 0.04347 0.51318 0.12639 0.0
O294 O 0.01947 0.59566 0.10574 0.0
O295 O 1.00917 0.55981 0.14214 0.0
O296 O 0.09635 0.59233 0.10715 0.0
O297 O 0.09006 0.64315 0.0906 0.0
O298 O 0.0202 0.66638 0.07661 0.0
O299 O 0.03554 0.66339 0.02418 0.0
O300 O 0.05843 0.58096 0.04618 0.0
O301 O 0.06611 0.61516 1.00862 0.0
O302 O 0.98048 0.58369 0.04403 0.0
O303 O 0.98609 0.53302 0.0619 0.0
H304 H 0.08359 0.45262 0.07207 0.0
H305 H 0.1389 0.43955 0.0864 0.0
H306 H 0.16157 0.51457 0.16752 0.0
H307 H 0.10669 0.52777 0.15307 0.0
H308 H 0.95177 0.65857 0.07421 0.0
H309 H 0.89839 0.67179 0.05453 0.0
H310 H 0.9638 0.72965 0.97527 0.0
H311 H 0.01714 0.7166 0.99504 0.0
H312 H 0.30474 0.23185 0.27242 0.0
H313 H 0.16797 0.26805 0.40721 0.0
H314 H 0.32613 0.33075 0.31975 0.0
H315 H 0.17782 0.16975 0.38707 0.0
H316 H 0.22016 0.29265 0.36962 0.0
H317 H 0.25216 0.20974 0.30884 0.0
C318 C 0.29868 0.24893 0.29072 0.0
C319 C 0.32045 0.28317 0.29337 0.0
C320 C 0.21083 0.26573 0.37356 0.0
C321 C 0.2593 0.25797 0.33464 0.0
C322 C 0.18106 0.25172 0.39477 0.0
C323 C 0.16887 0.21692 0.4003 0.0
C324 C 0.22785 0.24458 0.35742 0.0
C325 C 0.1867 0.19676 0.38375 0.0
C326 C 0.26842 0.23627 0.31136 0.0
C327 C 0.31015 0.30422 0.31675 0.0
N328 N 0.21517 0.21086 0.36298 0.0
N329 N 0.28027 0.29127 0.33655 0.0
H330 H 0.25398 0.92351 0.77581 0.0
H331 H 0.42225 0.04283 0.88335 0.0
H332 H 0.36278 0.97001 0.73653 0.0
H333 H 0.31199 1.00356 0.92191 0.0
H334 H 0.39875 0.02307 0.82735 0.0
H335 H 0.27211 0.95896 0.827 0.0
C336 C 0.28145 0.94166 0.77771 0.0
C337 C 0.30713 0.94345 0.7522 0.0
C338 C 0.37957 1.0191 0.84796 0.0
C339 C 0.32822 0.98364 0.81072 0.0
C340 C 0.39297 0.03062 0.88002 0.0
C341 C 0.36915 0.0245 0.90757 0.0
C342 C 0.3421 1.00096 0.84334 0.0
C343 C 0.33151 1.00811 0.90156 0.0
C344 C 0.29186 0.96176 0.80698 0.0
C345 C 0.34239 0.9673 0.75596 0.0
N346 N 0.31921 0.99652 0.87017 0.0
N347 N 0.35203 0.98614 0.78484 0.0
H348 H 0.67184 0.47696 0.79097 0.0
H349 H 0.54421 0.55966 0.699 0.0
H350 H 0.5589 0.45866 0.81848 0.0
H351 H 0.61436 0.52094 0.63724 0.0
H352 H 0.55819 0.53125 0.74682 0.0
H353 H 0.65955 0.49906 0.73719 0.0
C354 C 0.6444 0.47695 0.7856 0.0
C355 C 0.6166 0.46639 0.80987 0.0
C356 C 0.57066 0.52897 0.72285 0.0
C357 C 0.60273 0.4926 0.74886 0.0
C358 C 0.56285 0.5454 0.69546 0.0
C359 C 0.5781 0.54286 0.66383 0.0
C360 C 0.59474 0.51028 0.71927 0.0
C361 C 0.60187 0.52359 0.66107 0.0
C362 C 0.63749 0.48979 0.75498 0.0
C363 C 0.5816 0.46725 0.80122 0.0
N364 N 0.60978 0.50834 0.68847 0.0
N365 N 0.57596 0.48065 0.77205 0.0
H366 H 0.89408 0.65805 0.29922 0.0
H367 H 0.02081 0.6579 0.13739 0.0
H368 H 0.95124 0.74694 0.24482 0.0
H369 H 0.9596 0.56738 0.18728 0.0
H370 H 0.99743 0.69111 0.17786 0.0
H371 H 0.92102 0.6248 0.26148 0.0
C372 C 0.91289 0.67072 0.27987 0.0
C373 C 0.92032 0.7054 0.27529 0.0
C374 C 0.98877 0.66393 0.17985 0.0
C375 C 0.95077 0.66737 0.23138 0.0
C376 C 1.00166 0.6449 0.15623 0.0
C377 C 0.99121 0.60964 0.15802 0.0
C378 C 0.96541 0.64773 0.20592 0.0
C379 C 0.96803 0.59446 0.18455 0.0
C380 C 0.92797 0.65166 0.25802 0.0
C381 C 0.94453 0.72027 0.24929 0.0
N382 N 0.95588 0.61345 0.20726 0.0
N383 N 0.95859 0.70128 0.22838 0.0
H384 H 0.47557 0.29875 0.224 0.0
H385 H 0.443 0.10777 0.16084 0.0
H386 H 0.37161 0.2179 0.22692 0.0
H387 H 0.54728 0.18743 0.15276 0.0
H388 H 0.41871 0.14709 0.19113 0.0
H389 H 0.5043 0.25803 0.20255 0.0
C390 C 0.45883 0.27248 0.22024 0.0
C391 C 0.42114 0.26175 0.22741 0.0
C392 C 0.44702 0.15599 0.18301 0.0
C393 C 0.4538 0.21508 0.20318 0.0
C394 C 0.46094 0.13347 0.16577 0.0
C395 C 0.49711 0.14442 0.15397 0.0
C396 C 0.46929 0.18984 0.18832 0.0
C397 C 0.51916 0.17797 0.16131 0.0
C398 C 0.47526 0.24924 0.20819 0.0
C399 C 0.40085 0.22732 0.22235 0.0
N400 N 0.50478 0.19964 0.17772 0.0
N401 N 0.41739 0.20534 0.21048 0.0
H402 H 0.10935 0.89555 0.61414 0.0
H403 H 0.14157 0.08831 0.60504 0.0
H404 H 0.2213 0.96408 0.61931 0.0
H405 H 0.08304 1.02097 0.52474 0.0
H406 H 0.16289 0.04289 0.62487 0.0
H407 H 0.09019 0.94172 0.59478 0.0
C408 C 0.13001 0.92004 0.6112 0.0
C409 C 0.16719 0.92555 0.61838 0.0
C410 C 0.14551 0.03837 0.60285 0.0
C411 C 0.14478 0.97865 0.5978 0.0
C412 C 0.13346 0.06407 0.59159 0.0
C413 C 0.1111 0.05831 0.56305 0.0
C414 C 0.13382 1.00665 0.58608 0.0
C415 C 0.1008 0.02646 0.54655 0.0
C416 C 0.11887 0.94637 0.60044 0.0
C417 C 0.19227 0.95845 0.61495 0.0
N418 N 0.11186 1.00157 0.55859 0.0
N419 N 0.18055 0.98383 0.60516 0.0
H420 H 0.75338 0.40541 0.99628 0.0
H421 H 0.93145 0.57048 0.99664 0.0
H422 H 0.78291 0.46882 0.91057 0.0
H423 H 0.92266 0.4854 0.05769 0.0
H424 H 0.87351 0.53755 0.96886 0.0
H425 H 0.81168 0.43777 0.02251 0.0
C426 C 0.7721 0.42574 0.98253 0.0
C427 C 0.76273 0.43372 0.95057 0.0
C428 C 0.8843 0.52612 0.98833 0.0
C429 C 0.82984 0.47218 0.98177 0.0
C430 C 0.91732 0.54497 1.00438 0.0
C431 C 0.9322 0.5308 0.02966 0.0
C432 C 0.86543 0.49296 0.99794 0.0
C433 C 0.91252 0.49746 0.03833 0.0
C434 C 0.80546 0.4445 0.99788 0.0
C435 C 0.78825 0.46157 0.93521 0.0
N436 N 0.88018 0.47986 0.02272 0.0
N437 N 0.82037 0.47978 0.95095 0.0
H438 H 0.76748 0.70337 0.40681 0.0
H439 H 0.67958 0.65382 0.58883 0.0
H440 H 0.8296 0.72837 0.49902 0.0
H441 H 0.61703 0.62535 0.49715 0.0
H442 H 0.73517 0.67885 0.55595 0.0
H443 H 0.71306 0.67212 0.43867 0.0
C444 C 0.76995 0.70196 0.43366 0.0
C445 C 0.80349 0.71883 0.45009 0.0
C446 C 0.70938 0.66699 0.54292 0.0
C447 C 0.74062 0.6833 0.48703 0.0
C448 C 0.67755 0.65262 0.56174 0.0
C449 C 0.64346 0.63749 0.54581 0.0
C450 C 0.70735 0.66645 0.50772 0.0
C451 C 0.64267 0.63674 0.51056 0.0
C452 C 0.73865 0.68427 0.45192 0.0
C453 C 0.80443 0.71633 0.48514 0.0
N454 N 0.67399 0.65114 0.49277 0.0
N455 N 0.77361 0.69916 0.50231 0.0
H456 H 0.36187 0.43778 0.13108 0.0
H457 H 0.1753 0.46527 0.19086 0.0
H458 H 0.31403 0.41139 0.2285 0.0
H459 H 0.20797 0.46698 0.0872 0.0
H460 H 0.22936 0.45096 0.20624 0.0
H461 H 0.30897 0.45417 0.11566 0.0
C462 C 0.34033 0.43563 0.14927 0.0
C463 C 0.34225 0.42312 0.18108 0.0
C464 C 0.22472 0.45445 0.18012 0.0
C465 C 0.28177 0.44173 0.16364 0.0
C466 C 0.194 0.46281 0.17136 0.0
C467 C 0.18718 0.46732 0.13771 0.0
C468 C 0.24905 0.45088 0.1551 0.0
C469 C 0.21206 0.46342 0.11341 0.0
C470 C 0.31008 0.44477 0.14039 0.0
C471 C 0.31343 0.42055 0.20358 0.0
N472 N 0.242 0.45554 0.12259 0.0
N473 N 0.28445 0.42985 0.19447 0.0
H474 H 0.69921 0.30869 0.93851 0.0
H475 H 0.51765 0.19176 0.03002 0.0
H476 H 0.60095 0.33488 0.95221 0.0
H477 H 0.61177 0.16013 1.01217 0.0
H478 H 0.54822 0.24387 1.00117 0.0
H479 H 0.66839 0.2544 0.96431 0.0
C480 C 0.67112 0.3031 0.94678 0.0
C481 C 0.65287 0.32685 0.94303 0.0
C482 C 0.56233 0.22563 1.00339 0.0
C483 C 0.61718 0.26411 0.97288 0.0
C484 C 0.54483 0.19571 1.01998 0.0
C485 C 0.56202 0.17126 0.0236 0.0
C486 C 0.59769 0.23172 0.9902 0.0
C487 C 0.59737 0.17813 1.00999 0.0
C488 C 0.65349 0.27192 0.96149 0.0
C489 C 0.61623 0.31756 0.954 0.0
N490 N 0.61401 0.20767 0.994 0.0
N491 N 0.59985 0.28725 0.96848 0.0
H492 H 0.90539 0.85696 0.3971 0.0
H493 H 0.99193 0.9674 0.56359 0.0
H494 H 0.91063 0.81387 0.49258 0.0
H495 H 0.97184 1.01173 0.47307 0.0
H496 H 0.96575 0.91129 0.53676 0.0
H497 H 0.93364 0.9136 0.42289 0.0
C498 C 0.91283 0.85929 0.42338 0.0
C499 C 0.90549 0.8303 0.44258 0.0
C500 C 0.96697 0.93323 0.52271 0.0
C501 C 0.93771 0.89554 0.47251 0.0
C502 C 0.98196 0.96545 0.53807 0.0
C503 C 0.98407 0.99464 0.52073 0.0
C504 C 0.95404 0.92979 0.48951 0.0
C505 C 0.97071 0.99011 0.48758 0.0
C506 C 0.92871 0.89176 0.43819 0.0
C507 C 0.91533 0.83528 0.47674 0.0
N508 N 0.9564 0.95844 0.47309 0.0
N509 N 0.93086 0.86706 0.49048 0.0
H510 H 0.35411 0.85312 0.733 0.0
H511 H 0.44982 0.77018 0.5927 0.0
H512 H 0.33849 0.86049 0.62699 0.0
H513 H 0.4679 0.7688 0.69912 0.0
H514 H 0.41008 0.80428 0.60399 0.0
H515 H 0.39724 0.82333 0.72036 0.0
C516 C 0.36 0.84872 0.70701 0.0
C517 C 0.34277 0.85945 0.68101 0.0
C518 C 0.42299 0.79669 0.6248 0.0
C519 C 0.39184 0.82476 0.66628 0.0
C520 C 0.44556 0.77716 0.61839 0.0
C521 C 0.46228 0.76668 0.645 0.0
C522 C 0.41697 0.80557 0.65806 0.0
C523 C 0.45609 0.77671 0.67777 0.0
C524 C 0.38452 0.83152 0.69979 0.0
C525 C 0.35089 0.85236 0.6478 0.0
N526 N 0.43385 0.79543 0.68335 0.0
N527 N 0.37486 0.83541 0.64136 0.0
H528 H 0.78848 0.81696 0.8204 0.0
H529 H 0.88788 1.00013 0.74834 0.0
H530 H 0.77075 0.90711 0.8606 0.0
H531 H 0.91918 0.91241 0.72414 0.0
H532 H 0.83835 0.96542 0.78344 0.0
H533 H 0.82939 0.85055 0.77847 0.0
C534 C 0.79313 0.84388 0.82027 0.0
C535 C 0.77676 0.85942 0.84437 0.0
C536 C 0.85596 0.95378 0.77031 0.0
C537 C 0.82352 0.89805 0.79633 0.0
C538 C 0.8841 0.9735 0.75019 0.0
C539 C 0.90778 0.95912 0.73351 0.0
C540 C 0.85136 0.91941 0.77353 0.0
C541 C 0.90188 0.92459 0.73696 0.0
C542 C 0.81645 0.86303 0.79631 0.0
C543 C 0.78296 0.8942 0.84253 0.0
N544 N 0.8743 0.90594 0.75662 0.0
N545 N 0.8062 0.91248 0.8191 0.0
H546 H 0.70776 0.10069 0.43092 0.0
H547 H 0.67111 0.19155 0.26874 0.0
H548 H 0.68939 0.1967 0.436 0.0
H549 H 0.66748 0.08764 0.26812 0.0
H550 H 0.68182 0.19564 0.32939 0.0
H551 H 0.69628 0.09683 0.3706 0.0
C552 C 0.70126 0.12095 0.41927 0.0
C553 C 0.69962 0.14911 0.43839 0.0
C554 C 0.67864 0.17195 0.31596 0.0
C555 C 0.68653 0.14493 0.36936 0.0
C556 C 0.67283 0.16969 0.28135 0.0
C557 C 0.66837 0.13919 0.26341 0.0
C558 C 0.68032 0.1436 0.33267 0.0
C559 C 0.6704 0.11152 0.28104 0.0
C560 C 0.69459 0.1187 0.38487 0.0
C561 C 0.69067 0.17446 0.42215 0.0
N562 N 0.67631 0.11442 0.31465 0.0
N563 N 0.68468 0.17189 0.38848 0.0
H564 H 0.40342 0.6954 0.36848 0.0
H565 H 0.54221 0.62391 0.45966 0.0
H566 H 0.51695 0.71978 0.34031 0.0
H567 H 0.46238 0.65061 0.52021 0.0
H568 H 0.52623 0.65173 0.41244 0.0
H569 H 0.4178 0.67411 0.42194 0.0
C570 C 0.43142 0.697 0.37372 0.0
C571 C 0.45885 0.7091 0.34941 0.0
C572 C 0.51211 0.65157 0.43601 0.0
C573 C 0.4752 0.6838 0.41002 0.0
C574 C 0.5211 0.63545 0.46306 0.0
C575 C 0.50369 0.63475 0.49419 0.0
C576 C 0.48476 0.66672 0.43937 0.0
C577 C 0.47666 0.65055 0.49678 0.0
C578 C 0.43954 0.6846 0.40414 0.0
C579 C 0.49462 0.71017 0.35776 0.0
N580 N 0.46773 0.66557 0.46968 0.0
N581 N 0.50149 0.69721 0.38676 0.0
H582 H 0.20525 0.4798 0.92249 0.0
H583 H 0.06688 0.58347 0.94893 0.0
H584 H 0.12696 0.47922 0.84585 0.0
H585 H 0.10957 0.54401 0.03123 0.0
H586 H 0.09391 0.55226 0.90945 0.0
H587 H 0.17711 0.51088 0.96036 0.0
C588 C 0.18215 0.48624 0.91342 0.0
C589 C 0.16814 0.47596 0.88079 0.0
C590 C 0.09718 0.55019 0.93611 0.0
C591 C 0.13597 0.51272 0.92461 0.0
C592 C 0.08177 0.56803 0.95875 0.0
C593 C 0.08556 0.56613 0.99358 0.0
C594 C 0.11758 0.53086 0.94817 0.0
C595 C 0.10535 0.54581 1.00471 0.0
C596 C 0.16606 0.50405 0.93528 0.0
C597 C 0.13885 0.48637 0.87058 0.0
N598 N 0.1209 0.52931 0.98213 0.0
N599 N 0.12374 0.50406 0.89238 0.0
H600 H 0.66007 0.91894 0.9174 0.0
H601 H 0.5124 0.98864 1.00282 0.0
H602 H 0.56712 0.85736 0.97337 0.0
H603 H 0.62691 0.0501 1.00628 0.0
H604 H 0.52918 0.94263 0.97668 0.0
H605 H 0.64613 0.96937 0.93736 0.0
C606 C 0.63688 0.91583 0.93387 0.0
C607 C 0.61458 0.88345 0.94335 0.0
C608 C 0.5506 0.96631 0.98287 0.0
C609 C 0.59802 0.94104 0.96512 0.0
C610 C 0.54109 0.99274 0.99765 0.0
C611 C 0.56836 0.02325 1.00722 0.0
C612 C 0.58759 0.97035 0.97709 0.0
C613 C 0.60505 0.02694 0.99954 0.0
C614 C 0.62891 0.94467 0.94501 0.0
C615 C 0.58458 0.88135 0.96438 0.0
N616 N 0.6137 1.00064 0.985 0.0
N617 N 0.57707 0.90961 0.97424 0.0
H618 H 0.76216 0.12169 0.57761 0.0
H619 H 0.95579 0.11108 0.52361 0.0
H620 H 0.81659 0.16608 0.48723 0.0
H621 H 0.92517 0.11391 0.62752 0.0
H622 H 0.90119 0.12456 0.50781 0.0
H623 H 0.81847 0.11234 0.59488 0.0
C624 C 0.78592 0.12974 0.56148 0.0
C625 C 0.78442 0.14463 0.5308 0.0
C626 C 0.90655 0.12239 0.53407 0.0
C627 C 0.84856 0.13315 0.55014 0.0
C628 C 0.93753 0.11461 0.54305 0.0
C629 C 0.94474 0.11138 0.57685 0.0
C630 C 0.88238 0.12632 0.55906 0.0
C631 C 0.92046 0.11628 0.60117 0.0
C632 C 0.81798 0.12423 0.57133 0.0
C633 C 0.81603 0.15385 0.51072 0.0
N634 N 0.89005 0.1232 0.59177 0.0
N635 N 0.84669 0.14772 0.52062 0.0
H636 H 0.28913 0.78052 0.2087 0.0
H637 H 0.15961 0.60115 0.13259 0.0
H638 H 0.32132 0.69127 0.2033 0.0
H639 H 0.13838 0.69462 0.11923 0.0
H640 H 0.21661 0.63281 0.1621 0.0
H641 H 0.23183 0.74868 0.17983 0.0
C642 C 0.28434 0.75427 0.20152 0.0
C643 C 0.31062 0.73884 0.20865 0.0
C644 C 0.19954 0.64643 0.15266 0.0
C645 C 0.24415 0.70183 0.17565 0.0
C646 C 0.16685 0.62833 0.13575 0.0
C647 C 0.14389 0.6451 0.12314 0.0
C648 C 0.20949 0.6817 0.15748 0.0
C649 C 0.15507 0.68045 0.12823 0.0
C650 C 0.25139 0.73604 0.18505 0.0
C651 C 0.30201 0.7044 0.19905 0.0
N652 N 0.18685 0.69745 0.14503 0.0
N653 N 0.26972 0.68721 0.18314 0.0
H654 H 0.24833 0.46036 0.65418 0.0
H655 H 0.46711 0.55284 0.65994 0.0
H656 H 0.31173 0.47412 0.74521 0.0
H657 H 0.40342 0.52502 0.56887 0.0
H658 H 0.41047 0.52984 0.69248 0.0
H659 H 0.30425 0.48986 0.62385 0.0
C660 C 0.27398 0.46975 0.66793 0.0
C661 C 0.27506 0.46428 0.70242 0.0
C662 C 0.40885 0.52892 0.66539 0.0
C663 C 0.3399 0.49854 0.66745 0.0
C664 C 0.44121 0.54213 0.64677 0.0
C665 C 0.44013 0.54077 0.61153 0.0
C666 C 0.37498 0.5144 0.64873 0.0
C667 C 0.4057 0.52654 0.59592 0.0
C668 C 0.30603 0.48667 0.6505 0.0
C669 C 0.30929 0.47777 0.71876 0.0
N670 N 0.37469 0.51394 0.61454 0.0
N671 N 0.34027 0.49399 0.70113 0.0
H672 H 0.77787 0.75205 0.88381 0.0
H673 H 0.877 0.72257 0.04926 0.0
H674 H 0.76119 0.79162 0.98147 0.0
H675 H 0.90324 0.69773 0.94859 0.0
H676 H 0.82666 0.7391 0.02686 0.0
H677 H 0.81509 0.72239 0.90926 0.0
C678 C 0.78169 0.75406 0.91075 0.0
C679 C 0.76693 0.77463 0.93057 0.0
C680 C 0.84327 0.72976 1.00975 0.0
C681 C 0.80991 0.74111 0.95991 0.0
C682 C 0.87187 0.72022 0.0225 0.0
C683 C 0.89458 0.70917 1.00068 0.0
C684 C 0.83723 0.72795 0.97498 0.0
C685 C 0.88685 0.70672 0.96624 0.0
C686 C 0.80301 0.73722 0.92528 0.0
C687 C 0.77222 0.77603 0.96537 0.0
N688 N 0.85899 0.71617 0.95448 0.0
N689 N 0.79378 0.75988 0.97896 0.0
H690 H 0.47356 0.83787 0.20633 0.0
H691 H 0.45744 1.01342 0.14422 0.0
H692 H 0.37409 0.86281 0.21559 0.0
H693 H 0.55275 0.98282 0.12993 0.0
H694 H 0.42691 0.96011 0.1726 0.0
H695 H 0.50366 0.89251 0.18144 0.0
C696 C 0.45806 0.85492 0.20361 0.0
C697 C 0.42101 0.84531 0.21331 0.0
C698 C 0.45454 0.96513 0.1633 0.0
C699 C 0.45557 0.90847 0.18392 0.0
C700 C 0.47198 0.9956 0.1471 0.0
C701 C 0.5078 1.00278 0.13463 0.0
C702 C 0.47305 0.9416 0.16721 0.0
C703 C 0.52519 0.97857 0.13908 0.0
C704 C 0.47527 0.88617 0.18901 0.0
C705 C 0.40249 0.86868 0.20828 0.0
N706 N 0.50778 0.94933 0.1549 0.0
N707 N 0.41985 0.89894 0.19399 0.0
H708 H 0.167 0.37464 0.65357 0.0
H709 H 0.1028 0.17267 0.66645 0.0
H710 H 0.16902 0.32445 0.74555 0.0
H711 H 0.08505 0.22197 0.5784 0.0
H712 H 0.12914 0.228 0.69496 0.0
H713 H 0.1388 0.31938 0.62513 0.0
C714 C 0.16145 0.35204 0.66787 0.0
C715 C 0.17048 0.35446 0.70216 0.0
C716 C 0.1195 0.22678 0.66941 0.0
C717 C 0.13814 0.29068 0.66946 0.0
C718 C 0.10451 0.19509 0.65299 0.0
C719 C 0.0916 0.19241 0.61981 0.0
C720 C 0.12198 0.25636 0.65264 0.0
C721 C 0.09457 0.22261 0.60392 0.0
C722 C 0.14522 0.32042 0.65157 0.0
C723 C 0.16222 0.32408 0.71927 0.0
N724 N 0.10947 0.25319 0.62039 0.0
N725 N 0.14681 0.29363 0.70276 0.0
H726 H 0.60824 0.22639 0.51894 0.0
H727 H 0.59629 0.40121 0.59536 0.0
H728 H 0.63664 0.26149 0.62122 0.0
H729 H 0.55504 0.36015 0.49727 0.0
H730 H 0.61138 0.35028 0.60526 0.0
H731 H 0.58942 0.27566 0.51016 0.0
C732 C 0.61054 0.2445 0.53953 0.0
C733 C 0.62405 0.23987 0.57085 0.0
C734 C 0.59888 0.35234 0.58162 0.0
C735 C 0.60244 0.29621 0.56106 0.0
C736 C 0.59003 0.38135 0.57602 0.0
C737 C 0.57436 0.38502 0.54541 0.0
C738 C 0.59218 0.32681 0.5564 0.0
C739 C 0.56757 0.35866 0.52105 0.0
C740 C 0.59962 0.27252 0.53457 0.0
C741 C 0.62602 0.26389 0.59679 0.0
N742 N 0.57661 0.33074 0.52703 0.0
N743 N 0.61549 0.2911 0.59127 0.0
loop_
_geom_bond_atom_site_label_1
_geom_bond_atom_site_label_2
_geom_bond_distance
_geom_bond_site_symmetry_2
_ccdc_geom_bond_type
H0 C1 0.949 . S
C1 H0 0.949 . S
C1 C2 1.395 . S
C1 C3 1.391 . S
C2 C1 1.395 . S
C2 C5 1.390 . S
C3 C1 1.391 . S
C3 C7 1.387 . S
C3 C8 1.491 . S
H4 C5 0.950 . S
C5 C2 1.390 . S
C5 H4 0.950 . S
C5 C6 1.378 . S
C6 C5 1.378 . S
C6 C7 1.409 . S
C7 C3 1.387 . S
C7 C6 1.409 . S
C7 H9 0.951 . S
C8 C3 1.491 . S
C8 C10 1.382 . S
C8 C12 1.404 . S
H9 C7 0.951 . S
C10 C8 1.382 . S
C10 C11 1.390 . S
C10 H15 0.949 . S
C11 C10 1.390 . S
C11 C16 1.399 . S
C12 C8 1.404 . S
C12 H13 0.950 . S
C12 C14 1.375 . S
H13 C12 0.950 . S
C14 C12 1.375 . S
C14 C16 1.382 . S
C14 H18 0.950 . S
H15 C10 0.949 . S
C16 C11 1.399 . S
C16 C14 1.382 . S
C16 H17 0.952 . S
H17 C16 0.952 . S
H18 C14 0.950 . S
H19 C20 0.949 . S
C20 H19 0.949 . S
C20 C21 1.395 . S
C20 C22 1.391 . S
C21 C20 1.395 . S
C21 C24 1.390 . S
C22 C20 1.391 . S
C22 C26 1.387 . S
C22 C27 1.491 . S
H23 C24 0.950 . S
C24 C21 1.390 . S
C24 H23 0.950 . S
C24 C25 1.378 . S
C25 C24 1.378 . S
C25 C26 1.409 . S
C26 C22 1.387 . S
C26 C25 1.409 . S
C26 H28 0.951 . S
C27 C22 1.491 . S
C27 C29 1.382 . S
C27 C31 1.404 . S
H28 C26 0.951 . S
C29 C27 1.382 . S
C29 C30 1.390 . S
C29 H34 0.949 . S
C30 C29 1.390 . S
C30 C35 1.399 . S
C31 C27 1.404 . S
C31 H32 0.950 . S
C31 C33 1.375 . S
H32 C31 0.950 . S
C33 C31 1.375 . S
C33 C35 1.382 . S
C33 H37 0.950 . S
H34 C29 0.949 . S
C35 C30 1.399 . S
C35 C33 1.382 . S
C35 H36 0.952 . S
H36 C35 0.952 . S
H37 C33 0.950 . S
H38 C39 0.949 . S
C39 H38 0.949 . S
C39 C40 1.395 . S
C39 C41 1.391 . S
C40 C39 1.395 . S
C40 C43 1.390 . S
C41 C39 1.391 . S
C41 C45 1.387 . S
C41 C46 1.491 . S
H42 C43 0.950 . S
C43 C40 1.390 . S
C43 H42 0.950 . S
C43 C44 1.378 . S
C44 C43 1.378 . S
C44 C45 1.409 . S
C45 C41 1.387 . S
C45 C44 1.409 . S
C45 H47 0.951 . S
C46 C41 1.491 . S
C46 C48 1.382 . S
C46 C50 1.404 . S
H47 C45 0.951 . S
C48 C46 1.382 . S
C48 C49 1.390 . S
C48 H53 0.949 . S
C49 C48 1.390 . S
C49 C54 1.399 . S
C50 C46 1.404 . S
C50 H51 0.950 . S
C50 C52 1.375 . S
H51 C50 0.950 . S
C52 C50 1.375 . S
C52 C54 1.382 . S
C52 H56 0.950 . S
H53 C48 0.949 . S
C54 C49 1.399 . S
C54 C52 1.382 . S
C54 H55 0.952 . S
H55 C54 0.952 . S
H56 C52 0.950 . S
H57 C58 0.949 . S
C58 H57 0.949 . S
C58 C59 1.395 . S
C58 C60 1.391 . S
C59 C58 1.395 . S
C59 C62 1.390 . S
C60 C58 1.391 . S
C60 C64 1.387 . S
C60 C65 1.491 . S
H61 C62 0.950 . S
C62 C59 1.390 . S
C62 H61 0.950 . S
C62 C63 1.378 . S
C63 C62 1.378 . S
C63 C64 1.409 . S
C64 C60 1.387 . S
C64 C63 1.409 . S
C64 H66 0.951 . S
C65 C60 1.491 . S
C65 C67 1.382 . S
C65 C69 1.404 . S
H66 C64 0.951 . S
C67 C65 1.382 . S
C67 C68 1.390 . S
C67 H72 0.949 . S
C68 C67 1.390 . S
C68 C73 1.399 . S
C69 C65 1.404 . S
C69 H70 0.950 . S
C69 C71 1.375 . S
H70 C69 0.950 . S
C71 C69 1.375 . S
C71 C73 1.382 . S
C71 H75 0.950 . S
H72 C67 0.949 . S
C73 C68 1.399 . S
C73 C71 1.382 . S
C73 H74 0.952 . S
H74 C73 0.952 . S
H75 C71 0.950 . S
H76 C77 0.949 . S
C77 H76 0.949 . S
C77 C78 1.395 . S
C77 C79 1.391 . S
C78 C77 1.395 . S
C78 C81 1.390 . S
C79 C77 1.391 . S
C79 C83 1.387 . S
C79 C84 1.491 . S
H80 C81 0.950 . S
C81 C78 1.390 . S
C81 H80 0.950 . S
C81 C82 1.378 . S
C82 C81 1.378 . S
C82 C83 1.409 . S
C83 C79 1.387 . S
C83 C82 1.409 . S
C83 H85 0.951 . S
C84 C79 1.491 . S
C84 C86 1.382 . S
C84 C88 1.404 . S
H85 C83 0.951 . S
C86 C84 1.382 . S
C86 C87 1.390 . S
C86 H91 0.949 . S
C87 C86 1.390 . S
C87 C92 1.399 . S
C88 C84 1.404 . S
C88 H89 0.950 . S
C88 C90 1.375 . S
H89 C88 0.950 . S
C90 C88 1.375 . S
C90 C92 1.382 . S
C90 H94 0.950 . S
H91 C86 0.949 . S
C92 C87 1.399 . S
C92 C90 1.382 . S
C92 H93 0.952 . S
H93 C92 0.952 . S
H94 C90 0.950 . S
H95 C96 0.949 . S
C96 H95 0.949 . S
C96 C97 1.395 . S
C96 C98 1.391 . S
C97 C96 1.395 . S
C97 C100 1.390 . S
C98 C96 1.391 . S
C98 C102 1.387 . S
C98 C103 1.491 . S
H99 C100 0.950 . S
C100 C97 1.390 . S
C100 H99 0.950 . S
C100 C101 1.378 . S
C101 C100 1.378 . S
C101 C102 1.409 . S
C102 C98 1.387 . S
C102 C101 1.409 . S
C102 H104 0.951 . S
C103 C98 1.491 . S
C103 C105 1.382 . S
C103 C107 1.404 . S
H104 C102 0.951 . S
C105 C103 1.382 . S
C105 C106 1.390 . S
C105 H110 0.949 . S
C106 C105 1.390 . S
C106 C111 1.399 . S
C107 C103 1.404 . S
C107 H108 0.950 . S
C107 C109 1.375 . S
H108 C107 0.950 . S
C109 C107 1.375 . S
C109 C111 1.382 . S
C109 H113 0.950 . S
H110 C105 0.949 . S
C111 C106 1.399 . S
C111 C109 1.382 . S
C111 H112 0.952 . S
H112 C111 0.952 . S
H113 C109 0.950 . S
H114 C115 0.949 . S
C115 H114 0.949 . S
C115 C116 1.395 . S
C115 C117 1.391 . S
C116 C115 1.395 . S
C116 C119 1.390 . S
C117 C115 1.391 . S
C117 C121 1.387 . S
C117 C122 1.491 . S
H118 C119 0.950 . S
C119 C116 1.390 . S
C119 H118 0.950 . S
C119 C120 1.378 . S
C120 C119 1.378 . S
C120 C121 1.409 . S
C121 C117 1.387 . S
C121 C120 1.409 . S
C121 H123 0.951 . S
C122 C117 1.491 . S
C122 C124 1.382 . S
C122 C126 1.404 . S
H123 C121 0.951 . S
C124 C122 1.382 . S
C124 C125 1.390 . S
C124 H129 0.949 . S
C125 C124 1.390 . S
C125 C130 1.399 . S
C126 C122 1.404 . S
C126 H127 0.950 . S
C126 C128 1.375 . S
H127 C126 0.950 . S
C128 C126 1.375 . S
C128 C130 1.382 . S
C128 H132 0.950 . S
H129 C124 0.949 . S
C130 C125 1.399 . S
C130 C128 1.382 . S
C130 H131 0.952 . S
H131 C130 0.952 . S
H132 C128 0.950 . S
H133 C134 0.949 . S
C134 H133 0.949 . S
C134 C135 1.395 . S
C134 C136 1.391 . S
C135 C134 1.395 . S
C135 C138 1.390 . S
C136 C134 1.391 . S
C136 C140 1.387 . S
C136 C141 1.491 . S
H137 C138 0.950 . S
C138 C135 1.390 . S
C138 H137 0.950 . S
C138 C139 1.378 . S
C139 C138 1.378 . S
C139 C140 1.409 . S
C140 C136 1.387 . S
C140 C139 1.409 . S
C140 H142 0.951 . S
C141 C136 1.491 . S
C141 C143 1.382 . S
C141 C145 1.404 . S
H142 C140 0.951 . S
C143 C141 1.382 . S
C143 C144 1.390 . S
C143 H148 0.949 . S
C144 C143 1.390 . S
C144 C149 1.399 . S
C145 C141 1.404 . S
C145 H146 0.950 . S
C145 C147 1.375 . S
H146 C145 0.950 . S
C147 C145 1.375 . S
C147 C149 1.382 . S
C147 H151 0.950 . S
H148 C143 0.949 . S
C149 C144 1.399 . S
C149 C147 1.382 . S
C149 H150 0.952 . S
H150 C149 0.952 . S
H151 C147 0.950 . S
Sm152 C154 2.846 . S
Sm152 O172 2.543 . S
Sm152 O173 2.450 . S
Sm152 O174 2.681 . S
Sm152 O175 2.464 . S
Sm152 O176 2.396 . S
Sm152 O180 2.386 1_455 S
Sm152 O183 2.408 1_545 S
Sm153 C163 2.846 1_545 S
Sm153 O174 2.386 1_655 S
Sm153 O177 2.408 1_655 S
Sm153 O178 2.543 1_545 S
Sm153 O179 2.450 1_545 S
Sm153 O180 2.681 . S
Sm153 O181 2.464 . S
Sm153 O182 2.396 1_545 S
C154 Sm152 2.846 . S
C154 C155 1.506 . S
C154 O172 1.261 . S
C154 O173 1.242 . S
C155 C154 1.506 . S
C155 C156 1.358 . S
C155 C160 1.382 . S
C156 C155 1.358 . S
C156 C157 1.385 . S
C156 H184 0.930 . S
C157 C156 1.385 . S
C157 C158 1.395 . S
C157 H185 0.929 . S
C158 C157 1.395 . S
C158 C159 1.335 . S
C159 C158 1.335 . S
C159 C160 1.398 . S
C159 H186 0.930 . S
C160 C155 1.382 . S
C160 C159 1.398 . S
C160 H187 0.929 . S
C161 O174 1.271 . S
C161 O175 1.251 . S
C162 O176 1.252 . S
C162 O177 1.272 . S
C163 Sm153 2.846 1_565 S
C163 C164 1.506 . S
C163 O178 1.261 . S
C163 O179 1.242 . S
C164 C163 1.506 . S
C164 C165 1.358 . S
C164 C169 1.382 . S
C165 C164 1.358 . S
C165 C166 1.385 . S
C165 H188 0.930 . S
C166 C165 1.385 . S
C166 C167 1.395 . S
C166 H189 0.929 . S
C167 C166 1.395 . S
C167 C168 1.335 . S
C168 C167 1.335 . S
C168 C169 1.398 . S
C168 H190 0.930 . S
C169 C164 1.382 . S
C169 C168 1.398 . S
C169 H191 0.929 . S
C170 O180 1.271 . S
C170 O181 1.251 . S
C171 O182 1.252 . S
C171 O183 1.272 1_655 S
O172 Sm152 2.543 . S
O172 C154 1.261 . S
O173 Sm152 2.450 . S
O173 C154 1.242 . S
O174 Sm152 2.681 . S
O174 Sm153 2.386 1_455 S
O174 C161 1.271 . S
O175 Sm152 2.464 . S
O175 C161 1.251 . S
O176 Sm152 2.396 . S
O176 C162 1.252 . S
O177 Sm153 2.408 1_455 S
O177 C162 1.272 . S
O178 Sm153 2.543 1_565 S
O178 C163 1.261 . S
O179 Sm153 2.450 1_565 S
O179 C163 1.242 . S
O180 Sm152 2.386 1_655 S
O180 Sm153 2.681 . S
O180 C170 1.271 . S
O181 Sm153 2.464 . S
O181 C170 1.251 . S
O182 Sm153 2.396 1_565 S
O182 C171 1.252 . S
O183 Sm152 2.408 1_565 S
O183 C171 1.272 1_455 S
H184 C156 0.930 . S
H185 C157 0.929 . S
H186 C159 0.930 . S
H187 C160 0.929 . S
H188 C165 0.930 . S
H189 C166 0.929 . S
H190 C168 0.930 . S
H191 C169 0.929 . S
Sm192 C194 2.846 . S
Sm192 O212 2.543 . S
Sm192 O213 2.450 . S
Sm192 O214 2.672 1_545 S
Sm192 O215 2.464 1_545 S
Sm192 O216 2.396 . S
Sm192 O220 2.386 . S
Sm192 O223 2.408 . S
Sm193 C203 2.846 1_544 S
Sm193 O214 2.365 1_545 S
Sm193 O217 2.408 . S
Sm193 O218 2.543 1_545 S
Sm193 O219 2.450 1_554 S
Sm193 O220 2.681 . S
Sm193 O221 2.464 . S
Sm193 O222 2.396 . S
C194 Sm192 2.846 . S
C194 C195 1.506 . S
C194 O212 1.261 . S
C194 O213 1.242 . S
C195 C194 1.506 . S
C195 C196 1.358 . S
C195 C200 1.382 . S
C196 C195 1.358 . S
C196 C197 1.385 . S
C196 H224 0.930 . S
C197 C196 1.385 . S
C197 C198 1.395 . S
C197 H225 0.929 . S
C198 C197 1.395 . S
C198 C199 1.335 . S
C199 C198 1.335 . S
C199 C200 1.398 . S
C199 H226 0.930 . S
C200 C195 1.382 . S
C200 C199 1.398 . S
C200 H227 0.929 . S
C201 O214 1.290 . S
C201 O215 1.251 . S
C202 O216 1.252 . S
C202 O217 1.272 . S
C203 Sm193 2.846 1_566 S
C203 C204 1.506 . S
C203 O218 1.261 1_556 S
C203 O219 1.242 1_565 S
C204 C203 1.506 . S
C204 C205 1.358 . S
C204 C209 1.382 . S
C205 C204 1.358 . S
C205 C206 1.385 . S
C205 H228 0.930 . S
C206 C205 1.385 . S
C206 C207 1.395 . S
C206 H229 0.929 . S
C207 C206 1.395 . S
C207 C208 1.335 . S
C208 C207 1.335 . S
C208 C209 1.398 . S
C208 H230 0.930 . S
C209 C204 1.382 . S
C209 C208 1.398 . S
C209 H231 0.929 1_565 S
C210 O220 1.271 . S
C210 O221 1.251 . S
C211 O222 1.252 1_565 S
C211 O223 1.272 1_565 S
O212 Sm192 2.543 . S
O212 C194 1.261 . S
O213 Sm192 2.450 . S
O213 C194 1.242 . S
O214 Sm192 2.672 1_565 S
O214 Sm193 2.365 1_565 S
O214 C201 1.290 . S
O215 Sm192 2.464 1_565 S
O215 C201 1.251 . S
O216 Sm192 2.396 . S
O216 C202 1.252 . S
O217 Sm193 2.408 . S
O217 C202 1.272 . S
O218 Sm193 2.543 1_565 S
O218 C203 1.261 1_554 S
O219 Sm193 2.450 1_556 S
O219 C203 1.242 1_545 S
O220 Sm192 2.386 . S
O220 Sm193 2.681 . S
O220 C210 1.271 . S
O221 Sm193 2.464 . S
O221 C210 1.251 . S
O222 Sm193 2.396 . S
O222 C211 1.252 1_545 S
O223 Sm192 2.408 . S
O223 C211 1.272 1_545 S
H224 C196 0.930 . S
H225 C197 0.929 . S
H226 C199 0.930 . S
H227 C200 0.929 . S
H228 C205 0.930 . S
H229 C206 0.929 . S
H230 C208 0.930 . S
H231 C209 0.929 1_545 S
Sm232 C234 2.846 . S
Sm232 O252 2.543 . S
Sm232 O253 2.450 . S
Sm232 O254 2.681 . S
Sm232 O255 2.464 . S
Sm232 O256 2.396 . S
Sm232 O260 2.386 . S
Sm232 O263 2.408 . S
Sm233 C243 2.846 . S
Sm233 O254 2.386 . S
Sm233 O257 2.408 . S
Sm233 O258 2.543 . S
Sm233 O259 2.450 . S
Sm233 O260 2.681 . S
Sm233 O261 2.464 . S
Sm233 O262 2.396 . S
C234 Sm232 2.846 . S
C234 C235 1.506 . S
C234 O252 1.261 . S
C234 O253 1.242 . S
C235 C234 1.506 . S
C235 C236 1.358 . S
C235 C240 1.382 . S
C236 C235 1.358 . S
C236 C237 1.385 . S
C236 H264 0.930 . S
C237 C236 1.385 . S
C237 C238 1.395 . S
C237 H265 0.929 . S
C238 C237 1.395 . S
C238 C239 1.335 . S
C239 C238 1.335 . S
C239 C240 1.398 . S
C239 H266 0.930 . S
C240 C235 1.382 . S
C240 C239 1.398 . S
C240 H267 0.929 . S
C241 O254 1.271 . S
C241 O255 1.251 . S
C242 O256 1.252 . S
C242 O257 1.272 . S
C243 Sm233 2.846 . S
C243 C244 1.506 . S
C243 O258 1.261 . S
C243 O259 1.242 . S
C244 C243 1.506 . S
C244 C245 1.358 . S
C244 C249 1.382 . S
C245 C244 1.358 . S
C245 C246 1.385 . S
C245 H268 0.930 . S
C246 C245 1.385 . S
C246 C247 1.395 . S
C246 H269 0.929 . S
C247 C246 1.395 . S
C247 C248 1.335 . S
C248 C247 1.335 . S
C248 C249 1.398 . S
C248 H270 0.930 . S
C249 C244 1.382 . S
C249 C248 1.398 . S
C249 H271 0.929 . S
C250 O260 1.271 . S
C250 O261 1.251 . S
C251 O262 1.252 . S
C251 O263 1.272 . S
O252 Sm232 2.543 . S
O252 C234 1.261 . S
O253 Sm232 2.450 . S
O253 C234 1.242 . S
O254 Sm232 2.681 . S
O254 Sm233 2.386 . S
O254 C241 1.271 . S
O255 Sm232 2.464 . S
O255 C241 1.251 . S
O256 Sm232 2.396 . S
O256 C242 1.252 . S
O257 Sm233 2.408 . S
O257 C242 1.272 . S
O258 Sm233 2.543 . S
O258 C243 1.261 . S
O259 Sm233 2.450 . S
O259 C243 1.242 . S
O260 Sm232 2.386 . S
O260 Sm233 2.681 . S
O260 C250 1.271 . S
O261 Sm233 2.464 . S
O261 C250 1.251 . S
O262 Sm233 2.396 . S
O262 C251 1.252 . S
O263 Sm232 2.408 . S
O263 C251 1.272 . S
H264 C236 0.930 . S
H265 C237 0.929 . S
H266 C239 0.930 . S
H267 C240 0.929 . S
H268 C245 0.930 . S
H269 C246 0.929 . S
H270 C248 0.930 . S
H271 C249 0.929 . S
Sm272 C274 2.846 . S
Sm272 O292 2.543 . S
Sm272 O293 2.450 . S
Sm272 O294 2.681 . S
Sm272 O295 2.464 . S
Sm272 O296 2.396 . S
Sm272 O300 2.386 1_554 S
Sm272 O303 2.408 1_455 S
Sm273 C283 2.846 1_455 S
Sm273 O294 2.386 1_556 S
Sm273 O297 2.408 1_556 S
Sm273 O298 2.543 1_455 S
Sm273 O299 2.450 . S
Sm273 O300 2.681 . S
Sm273 O301 2.464 . S
Sm273 O302 2.396 1_455 S
C274 Sm272 2.846 . S
C274 C275 1.506 . S
C274 O292 1.261 . S
C274 O293 1.242 . S
C275 C274 1.506 . S
C275 C276 1.358 . S
C275 C280 1.382 . S
C276 C275 1.358 . S
C276 C277 1.385 . S
C276 H304 0.930 . S
C277 C276 1.385 . S
C277 C278 1.395 . S
C277 H305 0.929 . S
C278 C277 1.395 . S
C278 C279 1.335 . S
C279 C278 1.335 . S
C279 C280 1.398 . S
C279 H306 0.930 . S
C280 C275 1.382 . S
C280 C279 1.398 . S
C280 H307 0.929 . S
C281 O294 1.271 . S
C281 O295 1.251 . S
C282 O296 1.252 . S
C282 O297 1.272 . S
C283 Sm273 2.846 1_655 S
C283 C284 1.506 . S
C283 O298 1.261 . S
C283 O299 1.242 1_655 S
C284 C283 1.506 . S
C284 C285 1.358 . S
C284 C289 1.382 . S
C285 C284 1.358 . S
C285 C286 1.385 . S
C285 H308 0.930 . S
C286 C285 1.385 . S
C286 C287 1.395 . S
C286 H309 0.929 . S
C287 C286 1.395 . S
C287 C288 1.335 . S
C288 C287 1.335 . S
C288 C289 1.398 . S
C288 H310 0.930 . S
C289 C284 1.382 . S
C289 C288 1.398 . S
C289 H311 0.929 . S
C290 O300 1.271 . S
C290 O301 1.251 . S
C291 O302 1.252 . S
C291 O303 1.272 1_556 S
O292 Sm272 2.543 . S
O292 C274 1.261 . S
O293 Sm272 2.450 . S
O293 C274 1.242 . S
O294 Sm272 2.681 . S
O294 Sm273 2.386 1_554 S
O294 C281 1.271 . S
O295 Sm272 2.464 . S
O295 C281 1.251 . S
O296 Sm272 2.396 . S
O296 C282 1.252 . S
O297 Sm273 2.408 1_554 S
O297 C282 1.272 . S
O298 Sm273 2.543 1_655 S
O298 C283 1.261 . S
O299 Sm273 2.450 . S
O299 C283 1.242 1_455 S
O300 Sm272 2.386 1_556 S
O300 Sm273 2.681 . S
O300 C290 1.271 . S
O301 Sm273 2.464 . S
O301 C290 1.251 . S
O302 Sm273 2.396 1_655 S
O302 C291 1.252 . S
O303 Sm272 2.408 1_655 S
O303 C291 1.272 1_554 S
H304 C276 0.930 . S
H305 C277 0.929 . S
H306 C279 0.930 . S
H307 C280 0.929 . S
H308 C285 0.930 . S
H309 C286 0.929 . S
H310 C288 0.930 . S
H311 C289 0.929 . S
H312 C318 0.930 . S
H313 C322 0.930 . S
H314 C327 0.929 . S
H315 C325 0.929 . S
H316 C320 0.929 . S
H317 C326 0.929 . S
C318 H312 0.930 . S
C318 C319 1.367 . S
C318 C326 1.378 . S
C319 C318 1.367 . S
C319 C327 1.433 . S
C320 H316 0.929 . S
C320 C322 1.378 . S
C320 C324 1.350 . S
C321 C324 1.463 . S
C321 C326 1.350 . S
C321 N329 1.427 . S
C322 H313 0.930 . S
C322 C320 1.378 . S
C322 C323 1.367 . S
C323 C322 1.367 . S
C323 C325 1.433 . S
C324 C320 1.350 . S
C324 C321 1.463 . S
C324 N328 1.427 . S
C325 H315 0.929 . S
C325 C323 1.433 . S
C325 N328 1.384 . S
C326 H317 0.929 . S
C326 C318 1.378 . S
C326 C321 1.350 . S
C327 H314 0.929 . S
C327 C319 1.433 . S
C327 N329 1.384 . S
N328 C324 1.427 . S
N328 C325 1.384 . S
N329 C321 1.427 . S
N329 C327 1.384 . S
H330 C336 0.930 . S
H331 C340 0.930 . S
H332 C345 0.929 . S
H333 C343 0.929 . S
H334 C338 0.929 . S
H335 C344 0.929 . S
C336 H330 0.930 . S
C336 C337 1.367 . S
C336 C344 1.378 . S
C337 C336 1.367 . S
C337 C345 1.433 . S
C338 H334 0.929 . S
C338 C340 1.378 . S
C338 C342 1.350 . S
C339 C342 1.463 . S
C339 C344 1.350 . S
C339 N347 1.427 . S
C340 H331 0.930 . S
C340 C338 1.378 . S
C340 C341 1.367 . S
C341 C340 1.367 . S
C341 C343 1.433 . S
C342 C338 1.350 . S
C342 C339 1.463 . S
C342 N346 1.427 . S
C343 H333 0.929 . S
C343 C341 1.433 . S
C343 N346 1.384 . S
C344 H335 0.929 . S
C344 C336 1.378 . S
C344 C339 1.350 . S
C345 H332 0.929 . S
C345 C337 1.433 . S
C345 N347 1.384 . S
N346 C342 1.427 . S
N346 C343 1.384 . S
N347 C339 1.427 . S
N347 C345 1.384 . S
H348 C354 0.930 . S
H349 C358 0.930 . S
H350 C363 0.929 . S
H351 C361 0.929 . S
H352 C356 0.929 . S
H353 C362 0.929 . S
C354 H348 0.930 . S
C354 C355 1.367 . S
C354 C362 1.378 . S
C355 C354 1.367 . S
C355 C363 1.433 . S
C356 H352 0.929 . S
C356 C358 1.378 . S
C356 C360 1.350 . S
C357 C360 1.463 . S
C357 C362 1.350 . S
C357 N365 1.427 . S
C358 H349 0.930 . S
C358 C356 1.378 . S
C358 C359 1.367 . S
C359 C358 1.367 . S
C359 C361 1.433 . S
C360 C356 1.350 . S
C360 C357 1.463 . S
C360 N364 1.427 . S
C361 H351 0.929 . S
C361 C359 1.433 . S
C361 N364 1.384 . S
C362 H353 0.929 . S
C362 C354 1.378 . S
C362 C357 1.350 . S
C363 H350 0.929 . S
C363 C355 1.433 . S
C363 N365 1.384 . S
N364 C360 1.427 . S
N364 C361 1.384 . S
N365 C357 1.427 . S
N365 C363 1.384 . S
H366 C372 0.930 . S
H367 C376 0.930 1_455 S
H368 C381 0.929 . S
H369 C379 0.929 . S
H370 C374 0.929 . S
H371 C380 0.929 . S
C372 H366 0.930 . S
C372 C373 1.367 . S
C372 C380 1.378 . S
C373 C372 1.367 . S
C373 C381 1.433 . S
C374 H370 0.929 . S
C374 C376 1.378 . S
C374 C378 1.350 . S
C375 C378 1.463 . S
C375 C380 1.350 . S
C375 N383 1.427 . S
C376 H367 0.930 1_655 S
C376 C374 1.378 . S
C376 C377 1.367 . S
C377 C376 1.367 . S
C377 C379 1.433 . S
C378 C374 1.350 . S
C378 C375 1.463 . S
C378 N382 1.427 . S
C379 H369 0.929 . S
C379 C377 1.433 . S
C379 N382 1.384 . S
C380 H371 0.929 . S
C380 C372 1.378 . S
C380 C375 1.350 . S
C381 H368 0.929 . S
C381 C373 1.433 . S
C381 N383 1.384 . S
N382 C378 1.427 . S
N382 C379 1.384 . S
N383 C375 1.427 . S
N383 C381 1.384 . S
H384 C390 0.930 . S
H385 C394 0.930 . S
H386 C399 0.929 . S
H387 C397 0.929 . S
H388 C392 0.929 . S
H389 C398 0.929 . S
C390 H384 0.930 . S
C390 C391 1.367 . S
C390 C398 1.378 . S
C391 C390 1.367 . S
C391 C399 1.433 . S
C392 H388 0.929 . S
C392 C394 1.378 . S
C392 C396 1.350 . S
C393 C396 1.463 . S
C393 C398 1.350 . S
C393 N401 1.427 . S
C394 H385 0.930 . S
C394 C392 1.378 . S
C394 C395 1.367 . S
C395 C394 1.367 . S
C395 C397 1.433 . S
C396 C392 1.350 . S
C396 C393 1.463 . S
C396 N400 1.427 . S
C397 H387 0.929 . S
C397 C395 1.433 . S
C397 N400 1.384 . S
C398 H389 0.929 . S
C398 C390 1.378 . S
C398 C393 1.350 . S
C399 H386 0.929 . S
C399 C391 1.433 . S
C399 N401 1.384 . S
N400 C396 1.427 . S
N400 C397 1.384 . S
N401 C393 1.427 . S
N401 C399 1.384 . S
H402 C408 0.930 . S
H403 C412 0.930 . S
H404 C417 0.929 . S
H405 C415 0.929 . S
H406 C410 0.929 . S
H407 C416 0.929 . S
C408 H402 0.930 . S
C408 C409 1.367 . S
C408 C416 1.378 . S
C409 C408 1.367 . S
C409 C417 1.433 . S
C410 H406 0.929 . S
C410 C412 1.378 . S
C410 C414 1.350 1_545 S
C411 C414 1.463 . S
C411 C416 1.350 . S
C411 N419 1.427 . S
C412 H403 0.930 . S
C412 C410 1.378 . S
C412 C413 1.367 . S
C413 C412 1.367 . S
C413 C415 1.433 1_545 S
C414 C410 1.350 1_565 S
C414 C411 1.463 . S
C414 N418 1.427 . S
C415 H405 0.929 . S
C415 C413 1.433 1_565 S
C415 N418 1.384 . S
C416 H407 0.929 . S
C416 C408 1.378 . S
C416 C411 1.350 . S
C417 H404 0.929 . S
C417 C409 1.433 . S
C417 N419 1.384 . S
N418 C414 1.427 . S
N418 C415 1.384 . S
N419 C411 1.427 . S
N419 C417 1.384 . S
H420 C426 0.930 . S
H421 C430 0.930 . S
H422 C435 0.929 . S
H423 C433 0.929 1_554 S
H424 C428 0.929 . S
H425 C434 0.929 . S
C426 H420 0.930 . S
C426 C427 1.367 . S
C426 C434 1.378 . S
C427 C426 1.367 . S
C427 C435 1.433 . S
C428 H424 0.929 . S
C428 C430 1.378 . S
C428 C432 1.350 . S
C429 C432 1.463 . S
C429 C434 1.350 . S
C429 N437 1.427 . S
C430 H421 0.930 . S
C430 C428 1.378 . S
C430 C431 1.367 . S
C431 C430 1.367 . S
C431 C433 1.433 . S
C432 C428 1.350 . S
C432 C429 1.463 . S
C432 N436 1.427 . S
C433 H423 0.929 1_556 S
C433 C431 1.433 . S
C433 N436 1.384 . S
C434 H425 0.929 . S
C434 C426 1.378 . S
C434 C429 1.350 . S
C435 H422 0.929 . S
C435 C427 1.433 . S
C435 N437 1.384 . S
N436 C432 1.427 . S
N436 C433 1.384 . S
N437 C429 1.427 . S
N437 C435 1.384 . S
H438 C444 0.930 . S
H439 C448 0.930 . S
H440 C453 0.929 . S
H441 C451 0.929 . S
H442 C446 0.929 . S
H443 C452 0.929 . S
C444 H438 0.930 . S
C444 C445 1.367 . S
C444 C452 1.378 . S
C445 C444 1.367 . S
C445 C453 1.433 . S
C446 H442 0.929 . S
C446 C448 1.378 . S
C446 C450 1.350 . S
C447 C450 1.463 . S
C447 C452 1.350 . S
C447 N455 1.427 . S
C448 H439 0.930 . S
C448 C446 1.378 . S
C448 C449 1.367 . S
C449 C448 1.367 . S
C449 C451 1.433 . S
C450 C446 1.350 . S
C450 C447 1.463 . S
C450 N454 1.427 . S
C451 H441 0.929 . S
C451 C449 1.433 . S
C451 N454 1.384 . S
C452 H443 0.929 . S
C452 C444 1.378 . S
C452 C447 1.350 . S
C453 H440 0.929 . S
C453 C445 1.433 . S
C453 N455 1.384 . S
N454 C450 1.427 . S
N454 C451 1.384 . S
N455 C447 1.427 . S
N455 C453 1.384 . S
H456 C462 0.930 . S
H457 C466 0.930 . S
H458 C471 0.929 . S
H459 C469 0.929 . S
H460 C464 0.929 . S
H461 C470 0.929 . S
C462 H456 0.930 . S
C462 C463 1.367 . S
C462 C470 1.378 . S
C463 C462 1.367 . S
C463 C471 1.433 . S
C464 H460 0.929 . S
C464 C466 1.378 . S
C464 C468 1.350 . S
C465 C468 1.463 . S
C465 C470 1.350 . S
C465 N473 1.427 . S
C466 H457 0.930 . S
C466 C464 1.378 . S
C466 C467 1.367 . S
C467 C466 1.367 . S
C467 C469 1.433 . S
C468 C464 1.350 . S
C468 C465 1.463 . S
C468 N472 1.427 . S
C469 H459 0.929 . S
C469 C467 1.433 . S
C469 N472 1.384 . S
C470 H461 0.929 . S
C470 C462 1.378 . S
C470 C465 1.350 . S
C471 H458 0.929 . S
C471 C463 1.433 . S
C471 N473 1.384 . S
N472 C468 1.427 . S
N472 C469 1.384 . S
N473 C465 1.427 . S
N473 C471 1.384 . S
H474 C480 0.930 . S
H475 C484 0.930 . S
H476 C489 0.929 . S
H477 C487 0.929 . S
H478 C482 0.929 . S
H479 C488 0.929 . S
C480 H474 0.930 . S
C480 C481 1.367 . S
C480 C488 1.378 . S
C481 C480 1.367 . S
C481 C489 1.433 . S
C482 H478 0.929 . S
C482 C484 1.378 . S
C482 C486 1.350 1_554 S
C483 C486 1.463 . S
C483 C488 1.350 . S
C483 N491 1.427 . S
C484 H475 0.930 . S
C484 C482 1.378 . S
C484 C485 1.367 . S
C485 C484 1.367 . S
C485 C487 1.433 1_554 S
C486 C482 1.350 1_556 S
C486 C483 1.463 . S
C486 N490 1.427 . S
C487 H477 0.929 . S
C487 C485 1.433 1_556 S
C487 N490 1.384 . S
C488 H479 0.929 . S
C488 C480 1.378 . S
C488 C483 1.350 . S
C489 H476 0.929 . S
C489 C481 1.433 . S
C489 N491 1.384 . S
N490 C486 1.427 . S
N490 C487 1.384 . S
N491 C483 1.427 . S
N491 C489 1.384 . S
H492 C498 0.930 . S
H493 C502 0.930 . S
H494 C507 0.929 . S
H495 C505 0.929 . S
H496 C500 0.929 . S
H497 C506 0.929 . S
C498 H492 0.930 . S
C498 C499 1.367 . S
C498 C506 1.378 . S
C499 C498 1.367 . S
C499 C507 1.433 . S
C500 H496 0.929 . S
C500 C502 1.378 . S
C500 C504 1.350 . S
C501 C504 1.463 . S
C501 C506 1.350 . S
C501 N509 1.427 . S
C502 H493 0.930 . S
C502 C500 1.378 . S
C502 C503 1.367 . S
C503 C502 1.367 . S
C503 C505 1.433 . S
C504 C500 1.350 . S
C504 C501 1.463 . S
C504 N508 1.427 . S
C505 H495 0.929 . S
C505 C503 1.433 . S
C505 N508 1.384 . S
C506 H497 0.929 . S
C506 C498 1.378 . S
C506 C501 1.350 . S
C507 H494 0.929 . S
C507 C499 1.433 . S
C507 N509 1.384 . S
N508 C504 1.427 . S
N508 C505 1.384 . S
N509 C501 1.427 . S
N509 C507 1.384 . S
H510 C516 0.930 . S
H511 C520 0.930 . S
H512 C525 0.929 . S
H513 C523 0.929 . S
H514 C518 0.929 . S
H515 C524 0.929 . S
C516 H510 0.930 . S
C516 C517 1.367 . S
C516 C524 1.378 . S
C517 C516 1.367 . S
C517 C525 1.433 . S
C518 H514 0.929 . S
C518 C520 1.378 . S
C518 C522 1.350 . S
C519 C522 1.463 . S
C519 C524 1.350 . S
C519 N527 1.427 . S
C520 H511 0.930 . S
C520 C518 1.378 . S
C520 C521 1.367 . S
C521 C520 1.367 . S
C521 C523 1.433 . S
C522 C518 1.350 . S
C522 C519 1.463 . S
C522 N526 1.427 . S
C523 H513 0.929 . S
C523 C521 1.433 . S
C523 N526 1.384 . S
C524 H515 0.929 . S
C524 C516 1.378 . S
C524 C519 1.350 . S
C525 H512 0.929 . S
C525 C517 1.433 . S
C525 N527 1.384 . S
N526 C522 1.427 . S
N526 C523 1.384 . S
N527 C519 1.427 . S
N527 C525 1.384 . S
H528 C534 0.930 . S
H529 C538 0.930 . S
H530 C543 0.929 . S
H531 C541 0.929 . S
H532 C536 0.929 . S
H533 C542 0.929 . S
C534 H528 0.930 . S
C534 C535 1.367 . S
C534 C542 1.378 . S
C535 C534 1.367 . S
C535 C543 1.433 . S
C536 H532 0.929 . S
C536 C538 1.378 . S
C536 C540 1.350 . S
C537 C540 1.463 . S
C537 C542 1.350 . S
C537 N545 1.427 . S
C538 H529 0.930 . S
C538 C536 1.378 . S
C538 C539 1.367 . S
C539 C538 1.367 . S
C539 C541 1.433 . S
C540 C536 1.350 . S
C540 C537 1.463 . S
C540 N544 1.427 . S
C541 H531 0.929 . S
C541 C539 1.433 . S
C541 N544 1.384 . S
C542 H533 0.929 . S
C542 C534 1.378 . S
C542 C537 1.350 . S
C543 H530 0.929 . S
C543 C535 1.433 . S
C543 N545 1.384 . S
N544 C540 1.427 . S
N544 C541 1.384 . S
N545 C537 1.427 . S
N545 C543 1.384 . S
H546 C552 0.930 . S
H547 C556 0.930 . S
H548 C561 0.929 . S
H549 C559 0.929 . S
H550 C554 0.929 . S
H551 C560 0.929 . S
C552 H546 0.930 . S
C552 C553 1.367 . S
C552 C560 1.378 . S
C553 C552 1.367 . S
C553 C561 1.433 . S
C554 H550 0.929 . S
C554 C556 1.378 . S
C554 C558 1.350 . S
C555 C558 1.463 . S
C555 C560 1.350 . S
C555 N563 1.427 . S
C556 H547 0.930 . S
C556 C554 1.378 . S
C556 C557 1.367 . S
C557 C556 1.367 . S
C557 C559 1.433 . S
C558 C554 1.350 . S
C558 C555 1.463 . S
C558 N562 1.427 . S
C559 H549 0.929 . S
C559 C557 1.433 . S
C559 N562 1.384 . S
C560 H551 0.929 . S
C560 C552 1.378 . S
C560 C555 1.350 . S
C561 H548 0.929 . S
C561 C553 1.433 . S
C561 N563 1.384 . S
N562 C558 1.427 . S
N562 C559 1.384 . S
N563 C555 1.427 . S
N563 C561 1.384 . S
H564 C570 0.930 . S
H565 C574 0.930 . S
H566 C579 0.929 . S
H567 C577 0.929 . S
H568 C572 0.929 . S
H569 C578 0.929 . S
C570 H564 0.930 . S
C570 C571 1.367 . S
C570 C578 1.378 . S
C571 C570 1.367 . S
C571 C579 1.433 . S
C572 H568 0.929 . S
C572 C574 1.378 . S
C572 C576 1.350 . S
C573 C576 1.463 . S
C573 C578 1.350 . S
C573 N581 1.427 . S
C574 H565 0.930 . S
C574 C572 1.378 . S
C574 C575 1.367 . S
C575 C574 1.367 . S
C575 C577 1.433 . S
C576 C572 1.350 . S
C576 C573 1.463 . S
C576 N580 1.427 . S
C577 H567 0.929 . S
C577 C575 1.433 . S
C577 N580 1.384 . S
C578 H569 0.929 . S
C578 C570 1.378 . S
C578 C573 1.350 . S
C579 H566 0.929 . S
C579 C571 1.433 . S
C579 N581 1.384 . S
N580 C576 1.427 . S
N580 C577 1.384 . S
N581 C573 1.427 . S
N581 C579 1.384 . S
H582 C588 0.930 . S
H583 C592 0.930 . S
H584 C597 0.929 . S
H585 C595 0.929 . S
H586 C590 0.929 . S
H587 C596 0.929 . S
C588 H582 0.930 . S
C588 C589 1.367 . S
C588 C596 1.378 . S
C589 C588 1.367 . S
C589 C597 1.433 . S
C590 H586 0.929 . S
C590 C592 1.378 . S
C590 C594 1.350 . S
C591 C594 1.463 . S
C591 C596 1.350 . S
C591 N599 1.427 . S
C592 H583 0.930 . S
C592 C590 1.378 . S
C592 C593 1.367 . S
C593 C592 1.367 . S
C593 C595 1.433 . S
C594 C590 1.350 . S
C594 C591 1.463 . S
C594 N598 1.427 . S
C595 H585 0.929 . S
C595 C593 1.433 . S
C595 N598 1.384 . S
C596 H587 0.929 . S
C596 C588 1.378 . S
C596 C591 1.350 . S
C597 H584 0.929 . S
C597 C589 1.433 . S
C597 N599 1.384 . S
N598 C594 1.427 . S
N598 C595 1.384 . S
N599 C591 1.427 . S
N599 C597 1.384 . S
H600 C606 0.930 . S
H601 C610 0.932 . S
H602 C615 0.929 . S
H603 C613 0.929 . S
H604 C608 0.929 . S
H605 C614 0.929 . S
C606 H600 0.930 . S
C606 C607 1.367 . S
C606 C614 1.378 . S
C607 C606 1.367 . S
C607 C615 1.433 . S
C608 H604 0.929 . S
C608 C610 1.378 . S
C608 C612 1.350 . S
C609 C612 1.463 . S
C609 C614 1.350 . S
C609 N617 1.427 . S
C610 H601 0.932 . S
C610 C608 1.378 . S
C610 C611 1.367 1_556 S
C611 C610 1.367 1_554 S
C611 C613 1.433 . S
C612 C608 1.350 . S
C612 C609 1.463 . S
C612 N616 1.427 . S
C613 H603 0.929 . S
C613 C611 1.433 . S
C613 N616 1.384 1_554 S
C614 H605 0.929 . S
C614 C606 1.378 . S
C614 C609 1.350 . S
C615 H602 0.929 . S
C615 C607 1.433 . S
C615 N617 1.384 . S
N616 C612 1.427 . S
N616 C613 1.384 1_556 S
N617 C609 1.427 . S
N617 C615 1.384 . S
H618 C624 0.930 . S
H619 C628 0.930 . S
H620 C633 0.929 . S
H621 C631 0.929 . S
H622 C626 0.929 . S
H623 C632 0.929 . S
C624 H618 0.930 . S
C624 C625 1.367 . S
C624 C632 1.378 . S
C625 C624 1.367 . S
C625 C633 1.433 . S
C626 H622 0.929 . S
C626 C628 1.378 . S
C626 C630 1.350 . S
C627 C630 1.463 . S
C627 C632 1.350 . S
C627 N635 1.427 . S
C628 H619 0.930 . S
C628 C626 1.378 . S
C628 C629 1.367 . S
C629 C628 1.367 . S
C629 C631 1.433 . S
C630 C626 1.350 . S
C630 C627 1.463 . S
C630 N634 1.427 . S
C631 H621 0.929 . S
C631 C629 1.433 . S
C631 N634 1.384 . S
C632 H623 0.929 . S
C632 C624 1.378 . S
C632 C627 1.350 . S
C633 H620 0.929 . S
C633 C625 1.433 . S
C633 N635 1.384 . S
N634 C630 1.427 . S
N634 C631 1.384 . S
N635 C627 1.427 . S
N635 C633 1.384 . S
H636 C642 0.930 . S
H637 C646 0.930 . S
H638 C651 0.929 . S
H639 C649 0.929 . S
H640 C644 0.929 . S
H641 C650 0.929 . S
C642 H636 0.930 . S
C642 C643 1.367 . S
C642 C650 1.378 . S
C643 C642 1.367 . S
C643 C651 1.433 . S
C644 H640 0.929 . S
C644 C646 1.378 . S
C644 C648 1.350 . S
C645 C648 1.463 . S
C645 C650 1.350 . S
C645 N653 1.427 . S
C646 H637 0.930 . S
C646 C644 1.378 . S
C646 C647 1.367 . S
C647 C646 1.367 . S
C647 C649 1.433 . S
C648 C644 1.350 . S
C648 C645 1.463 . S
C648 N652 1.427 . S
C649 H639 0.929 . S
C649 C647 1.433 . S
C649 N652 1.384 . S
C650 H641 0.929 . S
C650 C642 1.378 . S
C650 C645 1.350 . S
C651 H638 0.929 . S
C651 C643 1.433 . S
C651 N653 1.384 . S
N652 C648 1.427 . S
N652 C649 1.384 . S
N653 C645 1.427 . S
N653 C651 1.384 . S
H654 C660 0.930 . S
H655 C664 0.930 . S
H656 C669 0.929 . S
H657 C667 0.929 . S
H658 C662 0.929 . S
H659 C668 0.929 . S
C660 H654 0.930 . S
C660 C661 1.367 . S
C660 C668 1.378 . S
C661 C660 1.367 . S
C661 C669 1.433 . S
C662 H658 0.929 . S
C662 C664 1.378 . S
C662 C666 1.350 . S
C663 C666 1.463 . S
C663 C668 1.350 . S
C663 N671 1.427 . S
C664 H655 0.930 . S
C664 C662 1.378 . S
C664 C665 1.367 . S
C665 C664 1.367 . S
C665 C667 1.433 . S
C666 C662 1.350 . S
C666 C663 1.463 . S
C666 N670 1.427 . S
C667 H657 0.929 . S
C667 C665 1.433 . S
C667 N670 1.384 . S
C668 H659 0.929 . S
C668 C660 1.378 . S
C668 C663 1.350 . S
C669 H656 0.929 . S
C669 C661 1.433 . S
C669 N671 1.384 . S
N670 C666 1.427 . S
N670 C667 1.384 . S
N671 C663 1.427 . S
N671 C669 1.384 . S
H672 C678 0.930 . S
H673 C682 0.930 . S
H674 C687 0.929 . S
H675 C685 0.929 . S
H676 C680 0.929 . S
H677 C686 0.929 . S
C678 H672 0.930 . S
C678 C679 1.367 . S
C678 C686 1.378 . S
C679 C678 1.367 . S
C679 C687 1.433 . S
C680 H676 0.929 . S
C680 C682 1.378 . S
C680 C684 1.350 . S
C681 C684 1.463 . S
C681 C686 1.350 . S
C681 N689 1.427 . S
C682 H673 0.930 . S
C682 C680 1.378 . S
C682 C683 1.367 . S
C683 C682 1.367 . S
C683 C685 1.433 . S
C684 C680 1.350 . S
C684 C681 1.463 . S
C684 N688 1.427 . S
C685 H675 0.929 . S
C685 C683 1.433 . S
C685 N688 1.384 . S
C686 H677 0.929 . S
C686 C678 1.378 . S
C686 C681 1.350 . S
C687 H674 0.929 . S
C687 C679 1.433 . S
C687 N689 1.384 . S
N688 C684 1.427 . S
N688 C685 1.384 . S
N689 C681 1.427 . S
N689 C687 1.384 . S
H690 C696 0.930 . S
H691 C700 0.930 . S
H692 C705 0.929 . S
H693 C703 0.929 . S
H694 C698 0.929 . S
H695 C704 0.929 . S
C696 H690 0.930 . S
C696 C697 1.367 . S
C696 C704 1.378 . S
C697 C696 1.367 . S
C697 C705 1.433 . S
C698 H694 0.929 . S
C698 C700 1.378 . S
C698 C702 1.350 . S
C699 C702 1.463 . S
C699 C704 1.350 . S
C699 N707 1.427 . S
C700 H691 0.930 . S
C700 C698 1.378 . S
C700 C701 1.367 . S
C701 C700 1.367 . S
C701 C703 1.433 . S
C702 C698 1.350 . S
C702 C699 1.463 . S
C702 N706 1.427 . S
C703 H693 0.929 . S
C703 C701 1.433 . S
C703 N706 1.384 . S
C704 H695 0.929 . S
C704 C696 1.378 . S
C704 C699 1.350 . S
C705 H692 0.929 . S
C705 C697 1.433 . S
C705 N707 1.384 . S
N706 C702 1.427 . S
N706 C703 1.384 . S
N707 C699 1.427 . S
N707 C705 1.384 . S
H708 C714 0.930 . S
H709 C718 0.930 . S
H710 C723 0.929 . S
H711 C721 0.929 . S
H712 C716 0.929 . S
H713 C722 0.929 . S
C714 H708 0.930 . S
C714 C715 1.367 . S
C714 C722 1.378 . S
C715 C714 1.367 . S
C715 C723 1.433 . S
C716 H712 0.929 . S
C716 C718 1.378 . S
C716 C720 1.350 . S
C717 C720 1.463 . S
C717 C722 1.350 . S
C717 N725 1.427 . S
C718 H709 0.930 . S
C718 C716 1.378 . S
C718 C719 1.367 . S
C719 C718 1.367 . S
C719 C721 1.433 . S
C720 C716 1.350 . S
C720 C717 1.463 . S
C720 N724 1.427 . S
C721 H711 0.929 . S
C721 C719 1.433 . S
C721 N724 1.384 . S
C722 H713 0.929 . S
C722 C714 1.378 . S
C722 C717 1.350 . S
C723 H710 0.929 . S
C723 C715 1.433 . S
C723 N725 1.384 . S
N724 C720 1.427 . S
N724 C721 1.384 . S
N725 C717 1.427 . S
N725 C723 1.384 . S
H726 C732 0.930 . S
H727 C736 0.930 . S
H728 C741 0.929 . S
H729 C739 0.929 . S
H730 C734 0.929 . S
H731 C740 0.929 . S
C732 H726 0.930 . S
C732 C733 1.367 . S
C732 C740 1.378 . S
C733 C732 1.367 . S
C733 C741 1.433 . S
C734 H730 0.929 . S
C734 C736 1.378 . S
C734 C738 1.350 . S
C735 C738 1.463 . S
C735 C740 1.350 . S
C735 N743 1.427 . S
C736 H727 0.930 . S
C736 C734 1.378 . S
C736 C737 1.367 . S
C737 C736 1.367 . S
C737 C739 1.433 . S
C738 C734 1.350 . S
C738 C735 1.463 . S
C738 N742 1.427 . S
C739 H729 0.929 . S
C739 C737 1.433 . S
C739 N742 1.384 . S
C740 H731 0.929 . S
C740 C732 1.378 . S
C740 C735 1.350 . S
C741 H728 0.929 . S
C741 C733 1.433 . S
C741 N743 1.384 . S
N742 C738 1.427 . S
N742 C739 1.384 . S
N743 C735 1.427 . S
N743 C741 1.384 . S
C319 C6 1.185 . S
C323 C158 1.212 . S
C337 C21 1.468 . S
C341 C207 1.481 . S
C359 C242 1.851 . S
C355 C49 1.831 . S
C373 C68 2.075 . S
C377 C281 2.134 1_655 S
C395 C202 3.006 . S
C391 C2 2.897 . S
C413 C161 0.378 . S
C409 C30 0.415 . S
C431 C291 1.894 . S
C427 C40 1.936 . S
C449 C250 1.534 . S
C445 C63 1.529 . S
C463 C11 1.398 . S
C467 C278 1.559 . S
C485 C210 2.599 . S
C481 C44 2.683 . S
C499 C59 1.964 . S
C503 C171 1.968 . S
C517 C25 1.236 . S
C521 C247 1.227 . S
C539 C167 1.442 . S
C535 C82 1.447 . S
C553 C101 1.242 . S
C557 C198 1.244 . S
C571 C125 2.266 . S
C575 C251 2.372 . S
C589 C144 1.810 . S
C593 C290 1.896 . S
C607 C87 1.889 . S
C611 C211 2.025 . S
C629 C170 1.763 . S
C625 C97 1.809 . S
C647 C282 1.672 . S
C643 C120 1.739 . S
C665 C241 1.551 . S
C661 C135 1.630 . S
C679 C78 1.918 . S
C683 C287 2.027 . S
C701 C201 1.886 . S
C697 C116 1.939 . S
C719 C162 2.639 . S
C715 C139 2.645 . S
C733 C106 0.839 . S
C737 C238 0.921 . S
