# Generated by pormake.
# Topology rtl, (3,6)-cn, num edge types: 1
# Building blocks:
#     Node 0, Type 0, BuildingBlock: INOVEN_clean_linker_0, # of connection points: 3
#     Node 1, Type 0, BuildingBlock: INOVEN_clean_linker_0, # of connection points: 3
#     Node 2, Type 0, BuildingBlock: INOVEN_clean_linker_0, # of connection points: 3
#     Node 3, Type 0, BuildingBlock: INOVEN_clean_linker_0, # of connection points: 3
#     Node 4, Type 1, BuildingBlock: FUNLAD_clean_sbu_0, # of connection points: 6
#     Node 5, Type 1, BuildingBlock: FUNLAD_clean_sbu_0, # of connection points: 6
#     Edge 6, Type (0, 1), BuildingBlock: ZUJKAS_clean_linker_0, # of connection points: 2
#     Edge 7, Type (0, 1), BuildingBlock: ZUJKAS_clean_linker_0, # of connection points: 2
#     Edge 8, Type (0, 1), BuildingBlock: ZUJKAS_clean_linker_0, # of connection points: 2
#     Edge 9, Type (0, 1), BuildingBlock: ZUJKAS_clean_linker_0, # of connection points: 2
#     Edge 10, Type (0, 1), BuildingBlock: ZUJKAS_clean_linker_0, # of connection points: 2
#     Edge 11, Type (0, 1), BuildingBlock: ZUJKAS_clean_linker_0, # of connection points: 2
#     Edge 12, Type (0, 1), BuildingBlock: ZUJKAS_clean_linker_0, # of connection points: 2
#     Edge 13, Type (0, 1), BuildingBlock: ZUJKAS_clean_linker_0, # of connection points: 2
#     Edge 14, Type (0, 1), BuildingBlock: ZUJKAS_clean_linker_0, # of connection points: 2
#     Edge 15, Type (0, 1), BuildingBlock: ZUJKAS_clean_linker_0, # of connection points: 2
#     Edge 16, Type (0, 1), BuildingBlock: ZUJKAS_clean_linker_0, # of connection points: 2
#     Edge 17, Type (0, 1), BuildingBlock: ZUJKAS_clean_linker_0, # of connection points: 2
# Relax obj value: 0.003
# Max RMSD: 0.052
# Mean RMSD: 0.034
data_MOF--net-rtl--node1-FUNLAD_clean_sbu_0--node2-INOVEN_clean_linker_0--edge1-ZUJKAS_clean_linker_0
_symmetry_space_group_name_H-M    P1
_symmetry_Int_Tables_number       1
_symmetry_cell_setting            triclinic
loop_
_symmetry_equiv_pos_as_xyz
'x, y, z'
_cell_length_a     50.923147
_cell_length_b     50.912799
_cell_length_c     27.600515
_cell_angle_alpha  91.158249
_cell_angle_beta   92.213542
_cell_angle_gamma 89.979656
loop_
_atom_site_label
_atom_site_type_symbol
_atom_site_fract_x
_atom_site_fract_y
_atom_site_fract_z
_atom_type_partial_charge
H0 H 0.18747 0.81403 0.93778 0.0
H1 H 0.13149 0.8604 0.01526 0.0
H2 H 0.1871 0.81238 0.09366 0.0
N3 N 0.21087 0.7929 0.01408 0.0
N4 N 0.22068 0.78306 0.05164 0.0
C5 C 0.17923 0.82065 0.97152 0.0
C6 C 0.15796 0.83824 0.97097 0.0
C7 C 0.18978 0.81112 0.01543 0.0
C8 C 0.1791 0.81955 0.05947 0.0
C9 C 0.15778 0.83701 0.05937 0.0
C10 C 0.14739 0.84622 0.01511 0.0
H11 H 0.68052 0.69852 0.62201 0.0
H12 H 0.63471 0.64143 0.53785 0.0
H13 H 0.6896 0.69039 0.46815 0.0
N14 N 0.70732 0.71612 0.54957 0.0
N15 N 0.72301 0.7194 0.51661 0.0
C16 C 0.67516 0.68879 0.58779 0.0
C17 C 0.65579 0.66902 0.58553 0.0
C18 C 0.68782 0.69617 0.5459 0.0
C19 C 0.68052 0.68423 0.50092 0.0
C20 C 0.66073 0.6651 0.49787 0.0
C21 C 0.64899 0.65723 0.5403 0.0
H22 H 0.81645 0.18907 0.92587 0.0
H23 H 0.86007 0.12992 0.00331 0.0
H24 H 0.81073 0.18361 0.08053 0.0
N25 N 0.79349 0.21006 0.00125 0.0
N26 N 0.77884 0.21523 0.03536 0.0
C27 C 0.82202 0.17963 0.95959 0.0
C28 C 0.83906 0.15798 0.95942 0.0
C29 C 0.81137 0.18867 0.00291 0.0
C30 C 0.81862 0.17649 0.04683 0.0
C31 C 0.83621 0.15521 0.04728 0.0
C32 C 0.84608 0.14598 0.0033 0.0
H33 H 0.31601 0.31855 0.43085 0.0
H34 H 0.36112 0.3745 0.51846 0.0
H35 H 0.31292 0.31799 0.58652 0.0
N36 N 0.29427 0.2946 0.50275 0.0
N37 N 0.28507 0.28376 0.53852 0.0
C38 C 0.32224 0.32664 0.46606 0.0
C39 C 0.33968 0.34804 0.46939 0.0
C40 C 0.31242 0.31573 0.50795 0.0
C41 C 0.32036 0.32622 0.55385 0.0
C42 C 0.33758 0.34773 0.55761 0.0
C43 C 0.34713 0.35844 0.51535 0.0
C44 C 0.02887 0.97482 0.43878 0.0
N45 N 0.04738 0.04619 0.51055 0.0
C46 C 0.07306 0.03873 0.51211 0.0
C47 C 0.093 0.05757 0.51279 0.0
C48 C 0.08651 0.08439 0.51179 0.0
C49 C 0.05982 0.09149 0.51004 0.0
C50 C 0.04051 0.072 0.50948 0.0
Zn51 Zn 0.01869 0.01806 0.51014 0.0
C52 C 0.97457 0.0295 0.43968 0.0
N53 N 0.959 0.95901 0.50913 0.0
C54 C 0.96552 0.93322 0.50402 0.0
C55 C 0.93365 0.96648 0.51499 0.0
C56 C 0.91376 0.9477 0.51661 0.0
C57 C 0.91984 0.92086 0.51137 0.0
C58 C 0.94618 0.91379 0.50465 0.0
Zn59 Zn 0.98773 0.98715 0.50918 0.0
O60 O 0.03843 0.99609 0.45675 0.0
C61 C 0.03164 0.97549 0.57956 0.0
O62 O 0.00704 0.96652 0.45328 0.0
H63 H 0.92882 0.98708 0.51886 0.0
H64 H 0.07811 0.01811 0.51303 0.0
H65 H 0.98579 0.92766 0.49951 0.0
O66 O 0.03986 0.99749 0.56523 0.0
O67 O 0.01009 0.96628 0.56174 0.0
H68 H 0.01998 0.07752 0.50816 0.0
O69 O 0.96907 0.00836 0.56513 0.0
O70 O 0.99857 0.03967 0.56354 0.0
O71 O 0.96571 0.00836 0.45657 0.0
O72 O 0.99691 0.03804 0.45502 0.0
C73 C 0.97774 0.0305 0.58064 0.0
H74 H 0.11329 0.05117 0.5148 0.0
H75 H 0.05388 0.11189 0.50856 0.0
H76 H 0.8939 0.95421 0.5227 0.0
H77 H 0.95188 0.89347 0.49955 0.0
C78 C 0.47382 0.47656 0.9569 0.0
N79 N 0.54685 0.45915 0.02383 0.0
C80 C 0.54011 0.43352 0.02881 0.0
C81 C 0.55931 0.41393 0.02865 0.0
C82 C 0.58577 0.42063 0.02255 0.0
C83 C 0.59203 0.44727 0.01676 0.0
C84 C 0.57226 0.46626 0.01793 0.0
Zn85 Zn 0.51848 0.48761 0.02642 0.0
C86 C 0.52822 0.53122 0.95909 0.0
N87 N 0.45963 0.54727 0.03288 0.0
C88 C 0.43384 0.54025 0.03226 0.0
C89 C 0.46699 0.57297 0.03562 0.0
C90 C 0.44808 0.59277 0.03789 0.0
C91 C 0.42129 0.58612 0.03742 0.0
C92 C 0.41428 0.55942 0.03455 0.0
Zn93 Zn 0.48787 0.51874 0.02993 0.0
O94 O 0.49522 0.46688 0.97367 0.0
C95 C 0.47784 0.47554 0.09762 0.0
O96 O 0.46618 0.49878 0.97292 0.0
H97 H 0.48759 0.57814 0.03599 0.0
H98 H 0.5198 0.42823 0.03336 0.0
H99 H 0.42841 0.51971 0.03019 0.0
O100 O 0.49957 0.46727 0.08204 0.0
O101 O 0.46816 0.49676 0.08134 0.0
H102 H 0.57726 0.48674 0.01422 0.0
O103 O 0.51006 0.53803 0.08646 0.0
O104 O 0.54146 0.50882 0.07944 0.0
O105 O 0.50805 0.54052 0.97892 0.0
O106 O 0.53664 0.50859 0.97062 0.0
C107 C 0.53275 0.52964 0.09927 0.0
H108 H 0.55344 0.3938 0.03409 0.0
H109 H 0.61198 0.45348 0.01104 0.0
H110 H 0.45439 0.61309 0.03939 0.0
H111 H 0.39391 0.55335 0.03475 0.0
H112 H 0.26475 0.25809 0.61059 0.0
H113 H 0.23173 0.22286 0.60431 0.0
H114 H 0.23044 0.22755 0.44836 0.0
H115 H 0.26323 0.26278 0.45459 0.0
H116 H 0.18023 0.22761 0.48826 0.0
H117 H 0.24224 0.14605 0.55866 0.0
H118 H 0.24223 0.17494 0.59715 0.0
H119 H 0.25593 0.17643 0.53824 0.0
C120 C 0.25746 0.25136 0.57509 0.0
C121 C 0.26653 0.26297 0.53332 0.0
C122 C 0.23877 0.23125 0.57148 0.0
C123 C 0.22892 0.22239 0.52583 0.0
C124 C 0.23792 0.23403 0.48389 0.0
H125 H 0.13289 0.08343 0.4645 0.0
H126 H 0.16736 0.11695 0.46678 0.0
C127 C 0.25666 0.25411 0.48751 0.0
C128 C 0.20854 0.20163 0.52192 0.0
H129 H 0.19638 0.1377 0.54879 0.0
C130 C 0.18377 0.20792 0.50129 0.0
C131 C 0.21334 0.1759 0.53849 0.0
C132 C 0.23993 0.16776 0.559 0.0
C133 C 0.16345 0.18928 0.4977 0.0
C134 C 0.16798 0.16381 0.51574 0.0
C135 C 0.19292 0.15734 0.5354 0.0
C136 C 0.14706 0.14358 0.51454 0.0
C137 C 0.13737 0.1969 0.47423 0.0
C138 C 0.1244 0.14735 0.54114 0.0
C139 C 0.10474 0.12818 0.54019 0.0
C140 C 0.10742 0.1048 0.51274 0.0
C141 C 0.1303 0.10105 0.48643 0.0
C142 C 0.14997 0.12022 0.48748 0.0
H143 H 0.13909 0.21469 0.45188 0.0
H144 H 0.12921 0.18061 0.45091 0.0
H145 H 0.12321 0.20126 0.50288 0.0
H146 H 0.12203 0.16503 0.56304 0.0
H147 H 0.08763 0.1315 0.5616 0.0
H148 H 0.24275 0.75962 0.12764 0.0
H149 H 0.27828 0.72689 0.12744 0.0
H150 H 0.28078 0.73187 0.97185 0.0
H151 H 0.24556 0.76461 0.97205 0.0
H152 H 0.27794 0.6778 0.07839 0.0
H153 H 0.35809 0.74192 0.01819 0.0
H154 H 0.32793 0.75485 0.04142 0.0
H155 H 0.32869 0.74245 0.98007 0.0
C156 C 0.2511 0.75375 0.09359 0.0
C157 C 0.24156 0.7646 0.05014 0.0
C158 C 0.27128 0.73512 0.09343 0.0
C159 C 0.28236 0.72723 0.04969 0.0
C160 C 0.27282 0.73806 0.00607 0.0
H161 H 0.37371 0.5879 0.98764 0.0
H162 H 0.33998 0.62195 0.99234 0.0
C163 C 0.25261 0.75665 0.00622 0.0
C164 C 0.30326 0.70699 0.04952 0.0
H165 H 0.36685 0.69606 0.01965 0.0
C166 C 0.29742 0.68179 0.06573 0.0
C167 C 0.32871 0.71238 0.03347 0.0
C168 C 0.3364 0.73942 0.01769 0.0
C169 C 0.31622 0.66163 0.06541 0.0
C170 C 0.3414 0.66679 0.0479 0.0
C171 C 0.34743 0.69213 0.03263 0.0
C172 C 0.36178 0.64612 0.04523 0.0
C173 C 0.3091 0.63506 0.08428 0.0
C174 C 0.3854 0.64868 0.07276 0.0
C175 C 0.40469 0.62921 0.07032 0.0
C176 C 0.40079 0.60688 0.03998 0.0
C177 C 0.37716 0.60457 0.01205 0.0
C178 C 0.35787 0.62403 0.01461 0.0
H179 H 0.29156 0.63609 0.10699 0.0
H180 H 0.30455 0.62145 0.05317 0.0
H181 H 0.32573 0.62664 0.10607 0.0
H182 H 0.38878 0.66563 0.09655 0.0
H183 H 0.4225 0.63149 0.09273 0.0
H184 H 0.72492 0.76235 0.57715 0.0
H185 H 0.75735 0.79789 0.57643 0.0
H186 H 0.79709 0.75736 0.46154 0.0
H187 H 0.76388 0.72246 0.46083 0.0
H188 H 0.8082 0.79937 0.5942 0.0
H189 H 0.78915 0.82808 0.40396 0.0
H190 H 0.76813 0.80559 0.43396 0.0
H191 H 0.79802 0.7941 0.40777 0.0
C192 C 0.74057 0.76111 0.55174 0.0
C193 C 0.74205 0.73977 0.51879 0.0
C194 C 0.75907 0.7814 0.55131 0.0
C195 C 0.77938 0.78062 0.51822 0.0
C196 C 0.78117 0.75888 0.48635 0.0
H197 H 0.92363 0.87124 0.54874 0.0
H198 H 0.88955 0.83776 0.55021 0.0
C199 C 0.76243 0.73885 0.48622 0.0
C200 C 0.79895 0.80224 0.51767 0.0
H201 H 0.82863 0.84475 0.44288 0.0
C202 C 0.81251 0.80944 0.56117 0.0
C203 C 0.80425 0.81579 0.4748 0.0
C204 C 0.7889 0.81069 0.42765 0.0
C205 C 0.83161 0.82936 0.56282 0.0
C206 C 0.83801 0.8418 0.51937 0.0
C207 C 0.82403 0.83499 0.47608 0.0
C208 C 0.85896 0.86205 0.51787 0.0
C209 C 0.84425 0.83719 0.61133 0.0
C210 C 0.85353 0.88652 0.49721 0.0
C211 C 0.87326 0.90546 0.49471 0.0
C212 C 0.89889 0.90046 0.51322 0.0
C213 C 0.90428 0.87581 0.53362 0.0
C214 C 0.88463 0.85674 0.53537 0.0
H215 H 0.8314 0.83239 0.64157 0.0
H216 H 0.86287 0.82613 0.61684 0.0
H217 H 0.84873 0.85853 0.61338 0.0
H218 H 0.83395 0.89101 0.48297 0.0
H219 H 0.8684 0.9239 0.47773 0.0
H220 H 0.77896 0.25664 0.97449 0.0
H221 H 0.7478 0.29326 0.97355 0.0
H222 H 0.70675 0.25835 0.09014 0.0
H223 H 0.73879 0.22236 0.09255 0.0
H224 H 0.69759 0.29469 0.95394 0.0
H225 H 0.71417 0.33127 0.14256 0.0
H226 H 0.7353 0.30715 0.11543 0.0
H227 H 0.70481 0.29733 0.14079 0.0
C228 C 0.76339 0.25693 0.00012 0.0
C229 C 0.76114 0.23676 0.03382 0.0
C230 C 0.74558 0.27784 -0.00044 0.0
C231 C 0.72514 0.27888 0.03235 0.0
C232 C 0.72277 0.25849 0.06549 0.0
H233 H 0.58224 0.36966 0.98766 0.0
H234 H 0.61604 0.33584 0.99042 0.0
C235 C 0.74087 0.23784 0.06663 0.0
C236 C 0.70577 0.30072 0.03054 0.0
H237 H 0.67536 0.34669 0.10054 0.0
C238 C 0.69291 0.30621 0.98594 0.0
C239 C 0.69994 0.31613 0.07205 0.0
C240 C 0.71451 0.31287 0.12024 0.0
C241 C 0.67408 0.32627 0.98187 0.0
C242 C 0.66713 0.34061 0.02397 0.0
C243 C 0.68037 0.33548 0.06837 0.0
C244 C 0.64634 0.36112 0.02286 0.0
C245 C 0.66231 0.33217 0.93225 0.0
C246 C 0.65168 0.38638 0.04208 0.0
C247 C 0.63208 0.40559 0.04216 0.0
C248 C 0.60667 0.40008 0.0226 0.0
C249 C 0.6014 0.37468 0.00351 0.0
C250 C 0.62091 0.35536 0.00422 0.0
H251 H 0.67563 0.32599 0.90317 0.0
H252 H 0.64367 0.32107 0.9264 0.0
H253 H 0.65806 0.35343 0.9285 0.0
H254 H 0.67107 0.39126 0.05713 0.0
H255 H 0.63682 0.42465 0.05823 0.0
H256 H 0.1837 0.85827 0.13934 0.0
H257 H 0.16398 0.8792 0.21034 0.0
H258 H 0.08674 0.85831 0.15274 0.0
H259 H 0.10623 0.83759 0.08172 0.0
H260 H 0.11767 0.92185 0.19007 0.0
H261 H 0.09638 0.83738 0.30762 0.0
H262 H 0.12386 0.83722 0.268 0.0
H263 H 0.09107 0.83354 0.24287 0.0
C264 C 0.16256 0.85769 0.14244 0.0
C265 C 0.14643 0.84643 0.10513 0.0
C266 C 0.15137 0.86969 0.18277 0.0
C267 C 0.12398 0.87014 0.18657 0.0
C268 C 0.10793 0.85796 0.1504 0.0
H269 H 0.01121 0.93293 0.38309 0.0
H270 H 0.03533 0.90796 0.32257 0.0
C271 C 0.11905 0.84625 0.10992 0.0
C272 C 0.11185 0.88532 0.22592 0.0
H273 H 0.07981 0.87884 0.33123 0.0
C274 C 0.10959 0.91258 0.22126 0.0
C275 C 0.10108 0.87295 0.26587 0.0
C276 C 0.10319 0.84365 0.27188 0.0
C277 C 0.09623 0.92788 0.25523 0.0
C278 C 0.08553 0.91558 0.2956 0.0
C279 C 0.08807 0.88825 0.30037 0.0
C280 C 0.07114 0.93065 0.33269 0.0
C281 C 0.09288 0.95689 0.24647 0.0
C282 C 0.08335 0.9515 0.35884 0.0
C283 C 0.06951 0.96602 0.39294 0.0
C284 C 0.04333 0.95965 0.40215 0.0
C285 C 0.03132 0.93839 0.37667 0.0
C286 C 0.0451 0.92406 0.34219 0.0
H287 H 0.09548 0.96165 0.20784 0.0
H288 H 0.07317 0.9638 0.25695 0.0
H289 H 0.10795 0.96798 0.26861 0.0
H290 H 0.10364 0.9565 0.35303 0.0
H291 H 0.07945 0.98205 0.41243 0.0
H292 H 0.6772 0.66443 0.67837 0.0
H293 H 0.65652 0.64581 0.74834 0.0
H294 H 0.58515 0.63268 0.66186 0.0
H295 H 0.60459 0.65363 0.59371 0.0
H296 H 0.5726 0.64631 0.74622 0.0
H297 H 0.6493 0.56963 0.76742 0.0
H298 H 0.66216 0.60221 0.77595 0.0
H299 H 0.64841 0.59188 0.71751 0.0
C300 C 0.65691 0.65815 0.67451 0.0
C301 C 0.64282 0.66003 0.62981 0.0
C302 C 0.64525 0.64701 0.7144 0.0
C303 C 0.61958 0.63687 0.70999 0.0
C304 C 0.60512 0.63995 0.66617 0.0
H305 H 0.5547 0.51387 0.88061 0.0
H306 H 0.57663 0.54064 0.82147 0.0
C307 C 0.61645 0.65166 0.62684 0.0
C308 C 0.60763 0.62259 0.75017 0.0
H309 H 0.61655 0.57077 0.82571 0.0
C310 C 0.58222 0.62975 0.76352 0.0
C311 C 0.61996 0.60069 0.77233 0.0
C312 C 0.64633 0.59046 0.75726 0.0
C313 C 0.56858 0.61537 0.79734 0.0
C314 C 0.58125 0.59403 0.8207 0.0
C315 C 0.60687 0.5872 0.80811 0.0
C316 C 0.56801 0.57789 0.8569 0.0
C317 C 0.54031 0.62257 0.8057 0.0
C318 C 0.55613 0.58976 0.89687 0.0
C319 C 0.54286 0.57454 0.92963 0.0
C320 C 0.54214 0.54707 0.92416 0.0
C321 C 0.55493 0.53504 0.88545 0.0
C322 C 0.56751 0.55033 0.85181 0.0
H323 H 0.5313 0.63303 0.77425 0.0
H324 H 0.52825 0.60492 0.81218 0.0
H325 H 0.53951 0.63598 0.83779 0.0
H326 H 0.5571 0.61082 0.90286 0.0
H327 H 0.53357 0.58424 0.95978 0.0
H328 H 0.85175 0.1802 0.13242 0.0
H329 H 0.8729 0.1604 0.2042 0.0
H330 H 0.86347 0.0835 0.13758 0.0
H331 H 0.84203 0.10301 0.06611 0.0
H332 H 0.85624 0.11743 0.26792 0.0
H333 H 0.94475 0.0948 0.16294 0.0
H334 H 0.92016 0.11819 0.14304 0.0
H335 H 0.91407 0.08358 0.13551 0.0
C336 C 0.85364 0.15903 0.13354 0.0
C337 C 0.84551 0.14317 0.0934 0.0
C338 C 0.86583 0.14779 0.17443 0.0
C339 C 0.87009 0.12059 0.17566 0.0
C340 C 0.8607 0.10459 0.13686 0.0
H341 H 0.92531 0.01779 0.40257 0.0
H342 H 0.89968 0.04156 0.34092 0.0
C343 C 0.84852 0.11577 0.09609 0.0
C344 C 0.88574 0.10898 0.21606 0.0
H345 H 0.94357 0.07737 0.24173 0.0
C346 C 0.87537 0.10875 0.26239 0.0
C347 C 0.91083 0.09805 0.20867 0.0
C348 C 0.9233 0.09879 0.15999 0.0
C349 C 0.88924 0.09716 0.30142 0.0
C350 C 0.91394 0.08539 0.29357 0.0
C351 C 0.92455 0.08627 0.24751 0.0
C352 C 0.92901 0.07168 0.3324 0.0
C353 C 0.87748 0.09774 0.35076 0.0
C354 C 0.95419 0.08049 0.34736 0.0
C355 C 0.96898 0.06689 0.38243 0.0
C356 C 0.9589 0.04408 0.40283 0.0
C357 C 0.93364 0.03531 0.38766 0.0
C358 C 0.91887 0.04897 0.3527 0.0
H359 H 0.86202 0.11303 0.35353 0.0
H360 H 0.86836 0.0784 0.35727 0.0
H361 H 0.89284 0.10145 0.37975 0.0
H362 H 0.96242 0.09789 0.3318 0.0
H363 H 0.98835 0.07416 0.39329 0.0
H364 H 0.35869 0.32176 0.63549 0.0
H365 H 0.37869 0.34142 0.71022 0.0
H366 H 0.35665 0.41853 0.66133 0.0
H367 H 0.33688 0.39908 0.58658 0.0
H368 H 0.42072 0.38666 0.6994 0.0
H369 H 0.3351 0.41012 0.81217 0.0
H370 H 0.33478 0.38292 0.76896 0.0
H371 H 0.33218 0.41593 0.74796 0.0
C372 C 0.35764 0.34283 0.64129 0.0
C373 C 0.34636 0.35896 0.60539 0.0
C374 C 0.3691 0.354 0.68375 0.0
C375 C 0.36896 0.38135 0.69113 0.0
C376 C 0.35672 0.39736 0.6563 0.0
H377 H 0.43215 0.49453 0.90138 0.0
H378 H 0.40679 0.47036 0.83785 0.0
C379 C 0.34557 0.38627 0.61368 0.0
C380 C 0.38379 0.39352 0.73271 0.0
H381 H 0.37651 0.42659 0.84004 0.0
C382 C 0.41118 0.39519 0.73047 0.0
C383 C 0.37108 0.40489 0.7725 0.0
C384 C 0.34166 0.40339 0.77605 0.0
C385 C 0.42628 0.40853 0.76671 0.0
C386 C 0.41363 0.4198 0.80695 0.0
C387 C 0.38618 0.41787 0.80929 0.0
C388 C 0.42853 0.4341 0.84645 0.0
C389 C 0.45547 0.41127 0.76049 0.0
C390 C 0.44887 0.42161 0.8729 0.0
C391 C 0.4636 0.43545 0.90868 0.0
C392 C 0.45795 0.46194 0.91934 0.0
C393 C 0.43705 0.47419 0.89386 0.0
C394 C 0.42251 0.46039 0.85766 0.0
H395 H 0.46067 0.40835 0.72202 0.0
H396 H 0.46264 0.4309 0.77326 0.0
H397 H 0.46599 0.39611 0.78208 0.0
H398 H 0.4534 0.40114 0.86581 0.0
H399 H 0.47933 0.42534 0.92814 0.0
H400 H 0.61023 0.65941 0.46419 0.0
H401 H 0.5943 0.63747 0.38907 0.0
H402 H 0.67412 0.62274 0.34953 0.0
H403 H 0.69035 0.64477 0.4251 0.0
H404 H 0.61569 0.64888 0.2806 0.0
H405 H 0.62639 0.54915 0.3591 0.0
H406 H 0.62024 0.57745 0.39752 0.0
H407 H 0.65147 0.5738 0.37048 0.0
C408 C 0.6244 0.65158 0.43942 0.0
C409 C 0.65151 0.65356 0.45055 0.0
C410 C 0.61528 0.63921 0.39653 0.0
C411 C 0.63307 0.6285 0.36416 0.0
C412 C 0.66017 0.63097 0.37431 0.0
H413 H 0.58393 0.5203 0.12751 0.0
H414 H 0.61104 0.54508 0.18757 0.0
C415 C 0.66937 0.64357 0.41724 0.0
C416 C 0.62287 0.61373 0.32098 0.0
H417 H 0.60405 0.55216 0.28333 0.0
C418 C 0.61344 0.6277 0.2807 0.0
C419 C 0.62014 0.58616 0.32149 0.0
C420 C 0.63003 0.57055 0.36434 0.0
C421 C 0.60065 0.61475 0.24111 0.0
C422 C 0.59661 0.58726 0.2427 0.0
C423 C 0.60703 0.57323 0.28228 0.0
C424 C 0.5805 0.57287 0.20503 0.0
C425 C 0.59151 0.63065 0.19812 0.0
C426 C 0.55422 0.58004 0.19547 0.0
C427 C 0.53871 0.56602 0.16108 0.0
C428 C 0.54909 0.5443 0.13608 0.0
C429 C 0.57533 0.53693 0.14618 0.0
C430 C 0.59088 0.55108 0.1804 0.0
H431 H 0.60336 0.64885 0.19535 0.0
H432 H 0.59269 0.61911 0.1637 0.0
H433 H 0.57076 0.6366 0.20257 0.0
H434 H 0.54557 0.59631 0.21507 0.0
H435 H 0.51853 0.5721 0.15438 0.0
H436 H 0.86388 0.18553 0.8905 0.0
H437 H 0.88597 0.16747 0.81946 0.0
H438 H 0.86123 0.08951 0.85547 0.0
H439 H 0.83935 0.10734 0.92643 0.0
H440 H 0.92703 0.1234 0.83102 0.0
H441 H 0.84214 0.10027 0.7045 0.0
H442 H 0.84086 0.12557 0.75128 0.0
H443 H 0.83894 0.09162 0.76693 0.0
C444 C 0.86281 0.16462 0.88265 0.0
C445 C 0.85001 0.14778 0.91385 0.0
C446 C 0.87547 0.15436 0.84232 0.0
C447 C 0.87503 0.12723 0.83229 0.0
C448 C 0.86155 0.11053 0.8625 0.0
H449 H 0.93728 0.01369 0.63426 0.0
H450 H 0.91319 0.03889 0.69434 0.0
C451 C 0.8492 0.1207 0.90303 0.0
C452 C 0.89021 0.11589 0.79246 0.0
H453 H 0.88345 0.08255 0.68431 0.0
C454 C 0.91764 0.11474 0.79856 0.0
C455 C 0.87772 0.10444 0.75068 0.0
C456 C 0.84829 0.10559 0.74249 0.0
C457 C 0.93295 0.10152 0.76461 0.0
C458 C 0.92045 0.08979 0.72284 0.0
C459 C 0.893 0.09153 0.71632 0.0
C460 C 0.93532 0.07474 0.68641 0.0
C461 C 0.96218 0.09924 0.77496 0.0
C462 C 0.95566 0.08657 0.66174 0.0
C463 C 0.96971 0.0721 0.62783 0.0
C464 C 0.96336 0.04566 0.61738 0.0
C465 C 0.94271 0.03399 0.64159 0.0
C466 C 0.92887 0.04839 0.67583 0.0
H467 H 0.96746 0.10296 0.81393 0.0
H468 H 0.96947 0.07945 0.76445 0.0
H469 H 0.97252 0.11403 0.75369 0.0
H470 H 0.96055 0.10706 0.66841 0.0
H471 H 0.9853 0.08175 0.60934 0.0
H472 H 0.34611 0.39991 0.44957 0.0
H473 H 0.36885 0.41863 0.38198 0.0
H474 H 0.38111 0.34091 0.32212 0.0
H475 H 0.35868 0.32189 0.39026 0.0
H476 H 0.42266 0.4052 0.36013 0.0
H477 H 0.35106 0.38549 0.20609 0.0
H478 H 0.34158 0.38602 0.26852 0.0
H479 H 0.35927 0.35843 0.24485 0.0
C480 C 0.35356 0.38677 0.42196 0.0
C481 C 0.35078 0.35939 0.42545 0.0
C482 C 0.36644 0.39751 0.38331 0.0
C483 C 0.37657 0.38114 0.34713 0.0
C484 C 0.37313 0.35386 0.34948 0.0
H485 H 0.49386 0.43087 0.14401 0.0
H486 H 0.46988 0.4062 0.20355 0.0
C487 C 0.36027 0.34305 0.38832 0.0
C488 C 0.39208 0.39274 0.30874 0.0
H489 H 0.39123 0.40547 0.18774 0.0
C490 C 0.41591 0.40515 0.32237 0.0
C491 C 0.38305 0.39269 0.25969 0.0
C492 C 0.35727 0.38012 0.24363 0.0
C493 C 0.43091 0.41778 0.2882 0.0
C494 C 0.42187 0.41779 0.23915 0.0
C495 C 0.39813 0.40522 0.2254 0.0
C496 C 0.43615 0.43204 0.20214 0.0
C497 C 0.45591 0.43167 0.30498 0.0
C498 C 0.42491 0.45449 0.18132 0.0
C499 C 0.43853 0.46865 0.14754 0.0
C500 C 0.4636 0.4605 0.13367 0.0
C501 C 0.47466 0.43775 0.15413 0.0
C502 C 0.46103 0.42364 0.18814 0.0
H503 H 0.45772 0.4337 0.34512 0.0
H504 H 0.47304 0.4203 0.29243 0.0
H505 H 0.45679 0.45153 0.28918 0.0
H506 H 0.40571 0.46123 0.19173 0.0
H507 H 0.42937 0.48599 0.13229 0.0
H508 H 0.18474 0.85581 0.89355 0.0
H509 H 0.16636 0.87791 0.82167 0.0
H510 H 0.08824 0.86771 0.87306 0.0
H511 H 0.10626 0.84516 0.94426 0.0
H512 H 0.12249 0.85992 0.74906 0.0
H513 H 0.1018 0.95 0.85844 0.0
H514 H 0.12552 0.92564 0.87802 0.0
H515 H 0.09102 0.91949 0.88281 0.0
C516 C 0.16362 0.85781 0.88904 0.0
C517 C 0.14697 0.84901 0.92487 0.0
C518 C 0.1532 0.87052 0.84813 0.0
C519 C 0.12603 0.87469 0.84264 0.0
C520 C 0.1093 0.86494 0.87714 0.0
H521 H 0.02086 0.92691 0.61413 0.0
H522 H 0.04611 0.90247 0.67533 0.0
C523 C 0.11964 0.85217 0.91783 0.0
C524 C 0.11505 0.89028 0.80214 0.0
H525 H 0.08397 0.94818 0.77786 0.0
C526 C 0.11423 0.8793 0.75512 0.0
C527 C 0.10462 0.91564 0.81032 0.0
C528 C 0.10589 0.92859 0.86002 0.0
C529 C 0.10237 0.89277 0.71612 0.0
C530 C 0.09094 0.91769 0.72472 0.0
C531 C 0.09261 0.92901 0.77149 0.0
C532 C 0.07638 0.93205 0.68612 0.0
C533 C 0.10212 0.88026 0.6661 0.0
C534 C 0.0848 0.957 0.67263 0.0
C535 C 0.07035 0.97111 0.6378 0.0
C536 C 0.04708 0.96058 0.61623 0.0
C537 C 0.03871 0.93557 0.62997 0.0
C538 C 0.05321 0.92147 0.66466 0.0
H539 H 0.11743 0.86481 0.66324 0.0
H540 H 0.08269 0.87094 0.65813 0.0
H541 H 0.10529 0.89519 0.63812 0.0
H542 H 0.10254 0.96556 0.68913 0.0
H543 H 0.07734 0.99031 0.62803 0.0
loop_
_geom_bond_atom_site_label_1
_geom_bond_atom_site_label_2
_geom_bond_distance
_geom_bond_site_symmetry_2
_ccdc_geom_bond_type
H0 C5 0.929 . S
H1 C10 0.931 . S
H2 C8 0.930 . S
N3 N4 1.234 . S
N3 C7 1.453 . S
N4 N3 1.234 . S
C5 H0 0.929 . S
C5 C6 1.373 . S
C5 C7 1.368 1_556 S
C6 C5 1.373 . S
C6 C10 1.397 1_556 S
C7 N3 1.453 . S
C7 C5 1.368 1_554 S
C7 C8 1.373 . S
C8 H2 0.930 . S
C8 C7 1.373 . S
C8 C9 1.371 . S
C9 C8 1.371 . S
C9 C10 1.383 . S
C10 H1 0.931 . S
C10 C6 1.397 1_554 S
C10 C9 1.383 . S
H11 C16 0.929 . S
H12 C21 0.931 . S
H13 C19 0.930 . S
N14 N15 1.234 . S
N14 C18 1.453 . S
N15 N14 1.234 . S
C16 H11 0.929 . S
C16 C17 1.373 . S
C16 C18 1.368 . S
C17 C16 1.373 . S
C17 C21 1.397 . S
C18 N14 1.453 . S
C18 C16 1.368 . S
C18 C19 1.373 . S
C19 H13 0.930 . S
C19 C18 1.373 . S
C19 C20 1.371 . S
C20 C19 1.371 . S
C20 C21 1.383 . S
C21 H12 0.931 . S
C21 C17 1.397 . S
C21 C20 1.383 . S
H22 C27 0.929 . S
H23 C32 0.931 . S
H24 C30 0.930 . S
N25 N26 1.234 1_556 S
N25 C29 1.453 . S
N26 N25 1.234 1_554 S
C27 H22 0.929 . S
C27 C28 1.373 . S
C27 C29 1.368 . S
C28 C27 1.373 . S
C28 C32 1.397 1_556 S
C29 N25 1.453 . S
C29 C27 1.368 . S
C29 C30 1.373 1_556 S
C30 H24 0.930 . S
C30 C29 1.373 1_554 S
C30 C31 1.371 . S
C31 C30 1.371 . S
C31 C32 1.383 . S
C32 H23 0.931 . S
C32 C28 1.397 1_554 S
C32 C31 1.383 . S
H33 C38 0.929 . S
H34 C43 0.931 . S
H35 C41 0.930 . S
N36 N37 1.234 . S
N36 C40 1.453 . S
N37 N36 1.234 . S
C38 H33 0.929 . S
C38 C39 1.373 . S
C38 C40 1.368 . S
C39 C38 1.373 . S
C39 C43 1.397 . S
C40 N36 1.453 . S
C40 C38 1.368 . S
C40 C41 1.373 . S
C41 H35 0.930 . S
C41 C40 1.373 . S
C41 C42 1.371 . S
C42 C41 1.371 . S
C42 C43 1.383 . S
C43 H34 0.931 . S
C43 C39 1.397 . S
C43 C42 1.383 . S
C44 O60 1.274 . S
C44 O62 1.254 . S
N45 C46 1.333 . S
N45 C50 1.307 . S
N45 Zn51 2.020 . S
C46 N45 1.333 . S
C46 C47 1.379 . S
C46 H64 0.952 . S
C47 C46 1.379 . S
C47 C48 1.390 . S
C47 H74 0.949 . S
C48 C47 1.390 . S
C48 C49 1.357 . S
C49 C48 1.357 . S
C49 C50 1.370 . S
C49 H75 0.950 . S
C50 N45 1.307 . S
C50 C49 1.370 . S
C50 H68 0.948 . S
Zn51 N45 2.020 . S
Zn51 O60 2.024 1_545 S
Zn51 O66 2.034 1_545 S
Zn51 O70 2.025 1_455 S
Zn51 O72 2.024 1_455 S
C52 O71 1.246 . S
C52 O72 1.249 . S
N53 C54 1.307 . S
N53 C55 1.333 . S
N53 Zn59 2.020 . S
C54 N53 1.307 . S
C54 C58 1.370 . S
C54 H65 0.948 . S
C55 N53 1.333 . S
C55 C56 1.379 . S
C55 H63 0.952 . S
C56 C55 1.379 . S
C56 C57 1.390 . S
C56 H76 0.949 . S
C57 C56 1.390 . S
C57 C58 1.357 . S
C58 C54 1.370 . S
C58 C57 1.357 . S
C58 H77 0.950 . S
Zn59 N53 2.020 . S
Zn59 O62 2.025 1_655 S
Zn59 O67 2.024 1_655 S
Zn59 O69 2.039 1_565 S
Zn59 O71 2.034 1_565 S
O60 C44 1.274 . S
O60 Zn51 2.024 1_565 S
C61 O66 1.246 . S
C61 O67 1.249 . S
O62 C44 1.254 . S
O62 Zn59 2.025 1_455 S
H63 C55 0.952 . S
H64 C46 0.952 . S
H65 C54 0.948 . S
O66 Zn51 2.034 1_565 S
O66 C61 1.246 . S
O67 Zn59 2.024 1_455 S
O67 C61 1.249 . S
H68 C50 0.948 . S
O69 Zn59 2.039 1_545 S
O69 C73 1.251 . S
O70 Zn51 2.025 1_655 S
O70 C73 1.254 . S
O71 C52 1.246 . S
O71 Zn59 2.034 1_545 S
O72 Zn51 2.024 1_655 S
O72 C52 1.249 . S
C73 O69 1.251 . S
C73 O70 1.254 . S
H74 C47 0.949 . S
H75 C49 0.950 . S
H76 C56 0.949 . S
H77 C58 0.950 . S
C78 O94 1.251 . S
C78 O96 1.254 . S
N79 C80 1.333 . S
N79 C84 1.307 . S
N79 Zn85 2.020 . S
C80 N79 1.333 . S
C80 C81 1.379 . S
C80 H98 0.952 . S
C81 C80 1.379 . S
C81 C82 1.390 . S
C81 H108 0.949 . S
C82 C81 1.390 . S
C82 C83 1.357 . S
C83 C82 1.357 . S
C83 C84 1.370 . S
C83 H109 0.950 . S
C84 N79 1.307 . S
C84 C83 1.370 . S
C84 H102 0.948 . S
Zn85 N79 2.020 . S
Zn85 O94 2.039 1_554 S
Zn85 O100 2.034 . S
Zn85 O104 2.025 . S
Zn85 O106 2.024 1_554 S
C86 O105 1.246 . S
C86 O106 1.249 . S
N87 C88 1.307 . S
N87 C89 1.333 . S
N87 Zn93 2.020 . S
C88 N87 1.307 . S
C88 C92 1.370 . S
C88 H99 0.948 . S
C89 N87 1.333 . S
C89 C90 1.379 . S
C89 H97 0.952 . S
C90 C89 1.379 . S
C90 C91 1.390 . S
C90 H110 0.949 . S
C91 C90 1.390 . S
C91 C92 1.357 . S
C92 C88 1.370 . S
C92 C91 1.357 . S
C92 H111 0.950 . S
Zn93 N87 2.020 . S
Zn93 O96 2.025 1_554 S
Zn93 O101 2.024 . S
Zn93 O103 2.039 . S
Zn93 O105 2.034 1_554 S
O94 C78 1.251 . S
O94 Zn85 2.039 1_556 S
C95 O100 1.246 . S
C95 O101 1.249 . S
O96 C78 1.254 . S
O96 Zn93 2.025 1_556 S
H97 C89 0.952 . S
H98 C80 0.952 . S
H99 C88 0.948 . S
O100 Zn85 2.034 . S
O100 C95 1.246 . S
O101 Zn93 2.024 . S
O101 C95 1.249 . S
H102 C84 0.948 . S
O103 Zn93 2.039 . S
O103 C107 1.251 . S
O104 Zn85 2.025 . S
O104 C107 1.254 . S
O105 C86 1.246 . S
O105 Zn93 2.034 1_556 S
O106 Zn85 2.024 1_556 S
O106 C86 1.249 . S
C107 O103 1.251 . S
C107 O104 1.254 . S
H108 C81 0.949 . S
H109 C83 0.950 . S
H110 C90 0.949 . S
H111 C92 0.950 . S
H112 C120 0.929 . S
H113 C122 0.930 . S
H114 C124 0.930 . S
H115 C127 0.929 . S
H116 C130 0.930 . S
H117 C132 0.960 . S
H118 C132 0.960 . S
H119 C132 0.960 . S
C120 H112 0.929 . S
C120 C121 1.377 . S
C120 C122 1.384 . S
C121 C120 1.377 . S
C121 C127 1.390 . S
C122 H113 0.930 . S
C122 C120 1.384 . S
C122 C123 1.372 . S
C123 C122 1.372 . S
C123 C124 1.400 . S
C123 C128 1.490 . S
C124 H114 0.930 . S
C124 C123 1.400 . S
C124 C127 1.386 . S
H125 C141 0.930 . S
H126 C142 0.931 . S
C127 H115 0.929 . S
C127 C121 1.390 . S
C127 C124 1.386 . S
C128 C123 1.490 . S
C128 C130 1.395 . S
C128 C131 1.403 . S
H129 C135 0.930 . S
C130 H116 0.930 . S
C130 C128 1.395 . S
C130 C133 1.403 . S
C131 C128 1.403 . S
C131 C132 1.524 . S
C131 C135 1.400 . S
C132 H117 0.960 . S
C132 H118 0.960 . S
C132 H119 0.960 . S
C132 C131 1.524 . S
C133 C130 1.403 . S
C133 C134 1.392 . S
C133 C137 1.495 . S
C134 C133 1.392 . S
C134 C135 1.385 . S
C134 C136 1.478 . S
C135 H129 0.930 . S
C135 C131 1.400 . S
C135 C134 1.385 . S
C136 C134 1.478 . S
C136 C138 1.381 . S
C136 C142 1.383 . S
C137 C133 1.495 . S
C137 H143 0.959 . S
C137 H144 0.961 . S
C137 H145 0.960 . S
C138 C136 1.381 . S
C138 C139 1.394 . S
C138 H146 0.930 . S
C139 C138 1.394 . S
C139 C140 1.383 . S
C139 H147 0.929 . S
C140 C139 1.383 . S
C140 C141 1.377 . S
C141 H125 0.930 . S
C141 C140 1.377 . S
C141 C142 1.379 . S
C142 H126 0.931 . S
C142 C136 1.383 . S
C142 C141 1.379 . S
H143 C137 0.959 . S
H144 C137 0.961 . S
H145 C137 0.960 . S
H146 C138 0.930 . S
H147 C139 0.929 . S
H148 C156 0.929 . S
H149 C158 0.930 . S
H150 C160 0.930 . S
H151 C163 0.929 . S
H152 C166 0.930 . S
H153 C168 0.960 . S
H154 C168 0.960 . S
H155 C168 0.960 . S
C156 H148 0.929 . S
C156 C157 1.377 . S
C156 C158 1.384 . S
C157 C156 1.377 . S
C157 C163 1.390 1_554 S
C158 H149 0.930 . S
C158 C156 1.384 . S
C158 C159 1.372 . S
C159 C158 1.372 . S
C159 C160 1.400 1_554 S
C159 C164 1.490 . S
C160 H150 0.930 . S
C160 C159 1.400 1_556 S
C160 C163 1.386 . S
H161 C177 0.930 1_556 S
H162 C178 0.931 1_556 S
C163 H151 0.929 . S
C163 C157 1.390 1_556 S
C163 C160 1.386 . S
C164 C159 1.490 . S
C164 C166 1.395 . S
C164 C167 1.404 1_554 S
H165 C171 0.930 1_556 S
C166 H152 0.930 . S
C166 C164 1.395 . S
C166 C169 1.403 . S
C167 C164 1.404 1_556 S
C167 C168 1.522 . S
C167 C171 1.400 1_556 S
C168 H153 0.960 . S
C168 H154 0.960 . S
C168 H155 0.960 . S
C168 C167 1.522 . S
C169 C166 1.403 . S
C169 C170 1.392 . S
C169 C173 1.495 . S
C170 C169 1.392 . S
C170 C171 1.385 . S
C170 C172 1.478 . S
C171 H165 0.930 1_554 S
C171 C167 1.400 1_554 S
C171 C170 1.385 . S
C172 C170 1.478 . S
C172 C174 1.381 . S
C172 C178 1.383 . S
C173 C169 1.495 . S
C173 H179 0.959 . S
C173 H180 0.961 . S
C173 H181 0.960 . S
C174 C172 1.381 . S
C174 C175 1.394 . S
C174 H182 0.930 . S
C175 C174 1.394 . S
C175 C176 1.383 . S
C175 H183 0.929 . S
C176 C175 1.383 . S
C176 C177 1.377 . S
C177 H161 0.930 1_554 S
C177 C176 1.377 . S
C177 C178 1.379 . S
C178 H162 0.931 1_554 S
C178 C172 1.383 . S
C178 C177 1.379 . S
H179 C173 0.959 . S
H180 C173 0.961 . S
H181 C173 0.960 . S
H182 C174 0.930 . S
H183 C175 0.929 . S
H184 C192 0.929 . S
H185 C194 0.930 . S
H186 C196 0.930 . S
H187 C199 0.929 . S
H188 C202 0.930 . S
H189 C204 0.960 . S
H190 C204 0.960 . S
H191 C204 0.960 . S
C192 H184 0.929 . S
C192 C193 1.377 . S
C192 C194 1.384 . S
C193 C192 1.377 . S
C193 C199 1.390 . S
C194 H185 0.930 . S
C194 C192 1.384 . S
C194 C195 1.372 . S
C195 C194 1.372 . S
C195 C196 1.400 . S
C195 C200 1.490 . S
C196 H186 0.930 . S
C196 C195 1.400 . S
C196 C199 1.386 . S
H197 C213 0.930 . S
H198 C214 0.931 . S
C199 H187 0.929 . S
C199 C193 1.390 . S
C199 C196 1.386 . S
C200 C195 1.490 . S
C200 C202 1.395 . S
C200 C203 1.403 . S
H201 C207 0.930 . S
C202 H188 0.930 . S
C202 C200 1.395 . S
C202 C205 1.403 . S
C203 C200 1.403 . S
C203 C204 1.524 . S
C203 C207 1.400 . S
C204 H189 0.960 . S
C204 H190 0.960 . S
C204 H191 0.960 . S
C204 C203 1.524 . S
C205 C202 1.403 . S
C205 C206 1.392 . S
C205 C209 1.495 . S
C206 C205 1.392 . S
C206 C207 1.385 . S
C206 C208 1.478 . S
C207 H201 0.930 . S
C207 C203 1.400 . S
C207 C206 1.385 . S
C208 C206 1.478 . S
C208 C210 1.381 . S
C208 C214 1.383 . S
C209 C205 1.495 . S
C209 H215 0.959 . S
C209 H216 0.961 . S
C209 H217 0.960 . S
C210 C208 1.381 . S
C210 C211 1.394 . S
C210 H218 0.930 . S
C211 C210 1.394 . S
C211 C212 1.383 . S
C211 H219 0.929 . S
C212 C211 1.383 . S
C212 C213 1.377 . S
C213 H197 0.930 . S
C213 C212 1.377 . S
C213 C214 1.379 . S
C214 H198 0.931 . S
C214 C208 1.383 . S
C214 C213 1.379 . S
H215 C209 0.959 . S
H216 C209 0.961 . S
H217 C209 0.960 . S
H218 C210 0.930 . S
H219 C211 0.929 . S
H220 C228 0.929 . S
H221 C230 0.930 . S
H222 C232 0.930 . S
H223 C235 0.929 . S
H224 C238 0.930 . S
H225 C240 0.960 . S
H226 C240 0.960 . S
H227 C240 0.960 . S
C228 H220 0.929 . S
C228 C229 1.377 . S
C228 C230 1.384 . S
C229 C228 1.377 . S
C229 C235 1.390 . S
C230 H221 0.930 . S
C230 C228 1.384 . S
C230 C231 1.372 . S
C231 C230 1.372 . S
C231 C232 1.400 . S
C231 C236 1.490 . S
C232 H222 0.930 . S
C232 C231 1.400 . S
C232 C235 1.386 . S
H233 C249 0.930 . S
H234 C250 0.931 1_556 S
C235 H223 0.929 . S
C235 C229 1.390 . S
C235 C232 1.386 . S
C236 C231 1.490 . S
C236 C238 1.395 1_554 S
C236 C239 1.403 . S
H237 C243 0.930 . S
C238 H224 0.930 . S
C238 C236 1.395 1_556 S
C238 C241 1.403 . S
C239 C236 1.403 . S
C239 C240 1.524 . S
C239 C243 1.400 . S
C240 H225 0.960 . S
C240 H226 0.960 . S
C240 H227 0.960 . S
C240 C239 1.524 . S
C241 C238 1.403 . S
C241 C242 1.392 1_556 S
C241 C245 1.495 . S
C242 C241 1.392 1_554 S
C242 C243 1.385 . S
C242 C244 1.478 . S
C243 H237 0.930 . S
C243 C239 1.400 . S
C243 C242 1.385 . S
C244 C242 1.478 . S
C244 C246 1.381 . S
C244 C250 1.383 . S
C245 C241 1.495 . S
C245 H251 0.959 . S
C245 H252 0.961 . S
C245 H253 0.960 . S
C246 C244 1.381 . S
C246 C247 1.394 . S
C246 H254 0.930 . S
C247 C246 1.394 . S
C247 C248 1.383 . S
C247 H255 0.929 . S
C248 C247 1.383 . S
C248 C249 1.377 . S
C249 H233 0.930 . S
C249 C248 1.377 . S
C249 C250 1.379 . S
C250 H234 0.931 1_554 S
C250 C244 1.383 . S
C250 C249 1.379 . S
H251 C245 0.959 . S
H252 C245 0.961 . S
H253 C245 0.960 . S
H254 C246 0.930 . S
H255 C247 0.929 . S
H256 C264 0.929 . S
H257 C266 0.930 . S
H258 C268 0.930 . S
H259 C271 0.929 . S
H260 C274 0.930 . S
H261 C276 0.960 . S
H262 C276 0.960 . S
H263 C276 0.960 . S
C264 H256 0.929 . S
C264 C265 1.377 . S
C264 C266 1.384 . S
C265 C264 1.377 . S
C265 C271 1.390 . S
C266 H257 0.930 . S
C266 C264 1.384 . S
C266 C267 1.372 . S
C267 C266 1.372 . S
C267 C268 1.400 . S
C267 C272 1.490 . S
C268 H258 0.930 . S
C268 C267 1.400 . S
C268 C271 1.386 . S
H269 C285 0.930 . S
H270 C286 0.931 . S
C271 H259 0.929 . S
C271 C265 1.390 . S
C271 C268 1.386 . S
C272 C267 1.490 . S
C272 C274 1.395 . S
C272 C275 1.403 . S
H273 C279 0.930 . S
C274 H260 0.930 . S
C274 C272 1.395 . S
C274 C277 1.403 . S
C275 C272 1.403 . S
C275 C276 1.524 . S
C275 C279 1.400 . S
C276 H261 0.960 . S
C276 H262 0.960 . S
C276 H263 0.960 . S
C276 C275 1.524 . S
C277 C274 1.403 . S
C277 C278 1.392 . S
C277 C281 1.495 . S
C278 C277 1.392 . S
C278 C279 1.385 . S
C278 C280 1.478 . S
C279 H273 0.930 . S
C279 C275 1.400 . S
C279 C278 1.385 . S
C280 C278 1.478 . S
C280 C282 1.381 . S
C280 C286 1.383 . S
C281 C277 1.495 . S
C281 H287 0.959 . S
C281 H288 0.961 . S
C281 H289 0.960 . S
C282 C280 1.381 . S
C282 C283 1.394 . S
C282 H290 0.930 . S
C283 C282 1.394 . S
C283 C284 1.383 . S
C283 H291 0.929 . S
C284 C283 1.383 . S
C284 C285 1.377 . S
C285 H269 0.930 . S
C285 C284 1.377 . S
C285 C286 1.379 . S
C286 H270 0.931 . S
C286 C280 1.383 . S
C286 C285 1.379 . S
H287 C281 0.959 . S
H288 C281 0.961 . S
H289 C281 0.960 . S
H290 C282 0.930 . S
H291 C283 0.929 . S
H292 C300 0.929 . S
H293 C302 0.930 . S
H294 C304 0.930 . S
H295 C307 0.929 . S
H296 C310 0.930 . S
H297 C312 0.960 . S
H298 C312 0.960 . S
H299 C312 0.960 . S
C300 H292 0.929 . S
C300 C301 1.377 . S
C300 C302 1.384 . S
C301 C300 1.377 . S
C301 C307 1.390 . S
C302 H293 0.930 . S
C302 C300 1.384 . S
C302 C303 1.372 . S
C303 C302 1.372 . S
C303 C304 1.400 . S
C303 C308 1.490 . S
C304 H294 0.930 . S
C304 C303 1.400 . S
C304 C307 1.386 . S
H305 C321 0.930 . S
H306 C322 0.931 . S
C307 H295 0.929 . S
C307 C301 1.390 . S
C307 C304 1.386 . S
C308 C303 1.490 . S
C308 C310 1.395 . S
C308 C311 1.403 . S
H309 C315 0.930 . S
C310 H296 0.930 . S
C310 C308 1.395 . S
C310 C313 1.403 . S
C311 C308 1.403 . S
C311 C312 1.524 . S
C311 C315 1.400 . S
C312 H297 0.960 . S
C312 H298 0.960 . S
C312 H299 0.960 . S
C312 C311 1.524 . S
C313 C310 1.403 . S
C313 C314 1.392 . S
C313 C317 1.495 . S
C314 C313 1.392 . S
C314 C315 1.385 . S
C314 C316 1.478 . S
C315 H309 0.930 . S
C315 C311 1.400 . S
C315 C314 1.385 . S
C316 C314 1.478 . S
C316 C318 1.381 . S
C316 C322 1.383 . S
C317 C313 1.495 . S
C317 H323 0.959 . S
C317 H324 0.961 . S
C317 H325 0.960 . S
C318 C316 1.381 . S
C318 C319 1.394 . S
C318 H326 0.930 . S
C319 C318 1.394 . S
C319 C320 1.383 . S
C319 H327 0.929 . S
C320 C319 1.383 . S
C320 C321 1.377 . S
C321 H305 0.930 . S
C321 C320 1.377 . S
C321 C322 1.379 . S
C322 H306 0.931 . S
C322 C316 1.383 . S
C322 C321 1.379 . S
H323 C317 0.959 . S
H324 C317 0.961 . S
H325 C317 0.960 . S
H326 C318 0.930 . S
H327 C319 0.929 . S
H328 C336 0.929 . S
H329 C338 0.930 . S
H330 C340 0.930 . S
H331 C343 0.929 . S
H332 C346 0.930 . S
H333 C348 0.960 . S
H334 C348 0.960 . S
H335 C348 0.960 . S
C336 H328 0.929 . S
C336 C337 1.377 . S
C336 C338 1.384 . S
C337 C336 1.377 . S
C337 C343 1.390 . S
C338 H329 0.930 . S
C338 C336 1.384 . S
C338 C339 1.372 . S
C339 C338 1.372 . S
C339 C340 1.400 . S
C339 C344 1.490 . S
C340 H330 0.930 . S
C340 C339 1.400 . S
C340 C343 1.386 . S
H341 C357 0.930 . S
H342 C358 0.931 . S
C343 H331 0.929 . S
C343 C337 1.390 . S
C343 C340 1.386 . S
C344 C339 1.490 . S
C344 C346 1.395 . S
C344 C347 1.403 . S
H345 C351 0.930 . S
C346 H332 0.930 . S
C346 C344 1.395 . S
C346 C349 1.403 . S
C347 C344 1.403 . S
C347 C348 1.524 . S
C347 C351 1.400 . S
C348 H333 0.960 . S
C348 H334 0.960 . S
C348 H335 0.960 . S
C348 C347 1.524 . S
C349 C346 1.403 . S
C349 C350 1.392 . S
C349 C353 1.495 . S
C350 C349 1.392 . S
C350 C351 1.385 . S
C350 C352 1.478 . S
C351 H345 0.930 . S
C351 C347 1.400 . S
C351 C350 1.385 . S
C352 C350 1.478 . S
C352 C354 1.381 . S
C352 C358 1.383 . S
C353 C349 1.495 . S
C353 H359 0.959 . S
C353 H360 0.961 . S
C353 H361 0.960 . S
C354 C352 1.381 . S
C354 C355 1.394 . S
C354 H362 0.930 . S
C355 C354 1.394 . S
C355 C356 1.383 . S
C355 H363 0.929 . S
C356 C355 1.383 . S
C356 C357 1.377 . S
C357 H341 0.930 . S
C357 C356 1.377 . S
C357 C358 1.379 . S
C358 H342 0.931 . S
C358 C352 1.383 . S
C358 C357 1.379 . S
H359 C353 0.959 . S
H360 C353 0.961 . S
H361 C353 0.960 . S
H362 C354 0.930 . S
H363 C355 0.929 . S
H364 C372 0.929 . S
H365 C374 0.930 . S
H366 C376 0.930 . S
H367 C379 0.929 . S
H368 C382 0.930 . S
H369 C384 0.960 . S
H370 C384 0.960 . S
H371 C384 0.960 . S
C372 H364 0.929 . S
C372 C373 1.377 . S
C372 C374 1.384 . S
C373 C372 1.377 . S
C373 C379 1.390 . S
C374 H365 0.930 . S
C374 C372 1.384 . S
C374 C375 1.372 . S
C375 C374 1.372 . S
C375 C376 1.400 . S
C375 C380 1.490 . S
C376 H366 0.930 . S
C376 C375 1.400 . S
C376 C379 1.386 . S
H377 C393 0.930 . S
H378 C394 0.931 . S
C379 H367 0.929 . S
C379 C373 1.390 . S
C379 C376 1.386 . S
C380 C375 1.490 . S
C380 C382 1.395 . S
C380 C383 1.403 . S
H381 C387 0.930 . S
C382 H368 0.930 . S
C382 C380 1.395 . S
C382 C385 1.403 . S
C383 C380 1.403 . S
C383 C384 1.524 . S
C383 C387 1.400 . S
C384 H369 0.960 . S
C384 H370 0.960 . S
C384 H371 0.960 . S
C384 C383 1.524 . S
C385 C382 1.403 . S
C385 C386 1.392 . S
C385 C389 1.495 . S
C386 C385 1.392 . S
C386 C387 1.385 . S
C386 C388 1.478 . S
C387 H381 0.930 . S
C387 C383 1.400 . S
C387 C386 1.385 . S
C388 C386 1.478 . S
C388 C390 1.381 . S
C388 C394 1.383 . S
C389 C385 1.495 . S
C389 H395 0.959 . S
C389 H396 0.961 . S
C389 H397 0.960 . S
C390 C388 1.381 . S
C390 C391 1.394 . S
C390 H398 0.930 . S
C391 C390 1.394 . S
C391 C392 1.383 . S
C391 H399 0.929 . S
C392 C391 1.383 . S
C392 C393 1.377 . S
C393 H377 0.930 . S
C393 C392 1.377 . S
C393 C394 1.379 . S
C394 H378 0.931 . S
C394 C388 1.383 . S
C394 C393 1.379 . S
H395 C389 0.959 . S
H396 C389 0.961 . S
H397 C389 0.960 . S
H398 C390 0.930 . S
H399 C391 0.929 . S
H400 C408 0.929 . S
H401 C410 0.930 . S
H402 C412 0.930 . S
H403 C415 0.929 . S
H404 C418 0.930 . S
H405 C420 0.960 . S
H406 C420 0.960 . S
H407 C420 0.960 . S
C408 H400 0.929 . S
C408 C409 1.377 . S
C408 C410 1.384 . S
C409 C408 1.377 . S
C409 C415 1.390 . S
C410 H401 0.930 . S
C410 C408 1.384 . S
C410 C411 1.372 . S
C411 C410 1.372 . S
C411 C412 1.400 . S
C411 C416 1.490 . S
C412 H402 0.930 . S
C412 C411 1.400 . S
C412 C415 1.386 . S
H413 C429 0.930 . S
H414 C430 0.931 . S
C415 H403 0.929 . S
C415 C409 1.390 . S
C415 C412 1.386 . S
C416 C411 1.490 . S
C416 C418 1.395 . S
C416 C419 1.403 . S
H417 C423 0.930 . S
C418 H404 0.930 . S
C418 C416 1.395 . S
C418 C421 1.403 . S
C419 C416 1.403 . S
C419 C420 1.524 . S
C419 C423 1.400 . S
C420 H405 0.960 . S
C420 H406 0.960 . S
C420 H407 0.960 . S
C420 C419 1.524 . S
C421 C418 1.403 . S
C421 C422 1.392 . S
C421 C425 1.495 . S
C422 C421 1.392 . S
C422 C423 1.385 . S
C422 C424 1.478 . S
C423 H417 0.930 . S
C423 C419 1.400 . S
C423 C422 1.385 . S
C424 C422 1.478 . S
C424 C426 1.381 . S
C424 C430 1.383 . S
C425 C421 1.495 . S
C425 H431 0.959 . S
C425 H432 0.961 . S
C425 H433 0.960 . S
C426 C424 1.381 . S
C426 C427 1.394 . S
C426 H434 0.930 . S
C427 C426 1.394 . S
C427 C428 1.383 . S
C427 H435 0.929 . S
C428 C427 1.383 . S
C428 C429 1.377 . S
C429 H413 0.930 . S
C429 C428 1.377 . S
C429 C430 1.379 . S
C430 H414 0.931 . S
C430 C424 1.383 . S
C430 C429 1.379 . S
H431 C425 0.959 . S
H432 C425 0.961 . S
H433 C425 0.960 . S
H434 C426 0.930 . S
H435 C427 0.929 . S
H436 C444 0.929 . S
H437 C446 0.930 . S
H438 C448 0.930 . S
H439 C451 0.929 . S
H440 C454 0.930 . S
H441 C456 0.960 . S
H442 C456 0.960 . S
H443 C456 0.960 . S
C444 H436 0.929 . S
C444 C445 1.377 . S
C444 C446 1.384 . S
C445 C444 1.377 . S
C445 C451 1.390 . S
C446 H437 0.930 . S
C446 C444 1.384 . S
C446 C447 1.372 . S
C447 C446 1.372 . S
C447 C448 1.400 . S
C447 C452 1.490 . S
C448 H438 0.930 . S
C448 C447 1.400 . S
C448 C451 1.386 . S
H449 C465 0.930 . S
H450 C466 0.931 . S
C451 H439 0.929 . S
C451 C445 1.390 . S
C451 C448 1.386 . S
C452 C447 1.490 . S
C452 C454 1.395 . S
C452 C455 1.403 . S
H453 C459 0.930 . S
C454 H440 0.930 . S
C454 C452 1.395 . S
C454 C457 1.403 . S
C455 C452 1.403 . S
C455 C456 1.524 . S
C455 C459 1.400 . S
C456 H441 0.960 . S
C456 H442 0.960 . S
C456 H443 0.960 . S
C456 C455 1.524 . S
C457 C454 1.403 . S
C457 C458 1.392 . S
C457 C461 1.495 . S
C458 C457 1.392 . S
C458 C459 1.385 . S
C458 C460 1.478 . S
C459 H453 0.930 . S
C459 C455 1.400 . S
C459 C458 1.385 . S
C460 C458 1.478 . S
C460 C462 1.381 . S
C460 C466 1.383 . S
C461 C457 1.495 . S
C461 H467 0.959 . S
C461 H468 0.961 . S
C461 H469 0.960 . S
C462 C460 1.381 . S
C462 C463 1.394 . S
C462 H470 0.930 . S
C463 C462 1.394 . S
C463 C464 1.383 . S
C463 H471 0.929 . S
C464 C463 1.383 . S
C464 C465 1.377 . S
C465 H449 0.930 . S
C465 C464 1.377 . S
C465 C466 1.379 . S
C466 H450 0.931 . S
C466 C460 1.383 . S
C466 C465 1.379 . S
H467 C461 0.959 . S
H468 C461 0.961 . S
H469 C461 0.960 . S
H470 C462 0.930 . S
H471 C463 0.929 . S
H472 C480 0.929 . S
H473 C482 0.930 . S
H474 C484 0.930 . S
H475 C487 0.929 . S
H476 C490 0.930 . S
H477 C492 0.960 . S
H478 C492 0.960 . S
H479 C492 0.960 . S
C480 H472 0.929 . S
C480 C481 1.377 . S
C480 C482 1.384 . S
C481 C480 1.377 . S
C481 C487 1.390 . S
C482 H473 0.930 . S
C482 C480 1.384 . S
C482 C483 1.372 . S
C483 C482 1.372 . S
C483 C484 1.400 . S
C483 C488 1.490 . S
C484 H474 0.930 . S
C484 C483 1.400 . S
C484 C487 1.386 . S
H485 C501 0.930 . S
H486 C502 0.931 . S
C487 H475 0.929 . S
C487 C481 1.390 . S
C487 C484 1.386 . S
C488 C483 1.490 . S
C488 C490 1.395 . S
C488 C491 1.403 . S
H489 C495 0.930 . S
C490 H476 0.930 . S
C490 C488 1.395 . S
C490 C493 1.403 . S
C491 C488 1.403 . S
C491 C492 1.524 . S
C491 C495 1.400 . S
C492 H477 0.960 . S
C492 H478 0.960 . S
C492 H479 0.960 . S
C492 C491 1.524 . S
C493 C490 1.403 . S
C493 C494 1.392 . S
C493 C497 1.495 . S
C494 C493 1.392 . S
C494 C495 1.385 . S
C494 C496 1.478 . S
C495 H489 0.930 . S
C495 C491 1.400 . S
C495 C494 1.385 . S
C496 C494 1.478 . S
C496 C498 1.381 . S
C496 C502 1.383 . S
C497 C493 1.495 . S
C497 H503 0.959 . S
C497 H504 0.961 . S
C497 H505 0.960 . S
C498 C496 1.381 . S
C498 C499 1.394 . S
C498 H506 0.930 . S
C499 C498 1.394 . S
C499 C500 1.383 . S
C499 H507 0.929 . S
C500 C499 1.383 . S
C500 C501 1.377 . S
C501 H485 0.930 . S
C501 C500 1.377 . S
C501 C502 1.379 . S
C502 H486 0.931 . S
C502 C496 1.383 . S
C502 C501 1.379 . S
H503 C497 0.959 . S
H504 C497 0.961 . S
H505 C497 0.960 . S
H506 C498 0.930 . S
H507 C499 0.929 . S
H508 C516 0.929 . S
H509 C518 0.930 . S
H510 C520 0.930 . S
H511 C523 0.929 . S
H512 C526 0.930 . S
H513 C528 0.960 . S
H514 C528 0.960 . S
H515 C528 0.960 . S
C516 H508 0.929 . S
C516 C517 1.377 . S
C516 C518 1.384 . S
C517 C516 1.377 . S
C517 C523 1.390 . S
C518 H509 0.930 . S
C518 C516 1.384 . S
C518 C519 1.372 . S
C519 C518 1.372 . S
C519 C520 1.400 . S
C519 C524 1.490 . S
C520 H510 0.930 . S
C520 C519 1.400 . S
C520 C523 1.386 . S
H521 C537 0.930 . S
H522 C538 0.931 . S
C523 H511 0.929 . S
C523 C517 1.390 . S
C523 C520 1.386 . S
C524 C519 1.490 . S
C524 C526 1.395 . S
C524 C527 1.403 . S
H525 C531 0.930 . S
C526 H512 0.930 . S
C526 C524 1.395 . S
C526 C529 1.403 . S
C527 C524 1.403 . S
C527 C528 1.524 . S
C527 C531 1.400 . S
C528 H513 0.960 . S
C528 H514 0.960 . S
C528 H515 0.960 . S
C528 C527 1.524 . S
C529 C526 1.403 . S
C529 C530 1.392 . S
C529 C533 1.495 . S
C530 C529 1.392 . S
C530 C531 1.385 . S
C530 C532 1.478 . S
C531 H525 0.930 . S
C531 C527 1.400 . S
C531 C530 1.385 . S
C532 C530 1.478 . S
C532 C534 1.381 . S
C532 C538 1.383 . S
C533 C529 1.495 . S
C533 H539 0.959 . S
C533 H540 0.961 . S
C533 H541 0.960 . S
C534 C532 1.381 . S
C534 C535 1.394 . S
C534 H542 0.930 . S
C535 C534 1.394 . S
C535 C536 1.383 . S
C535 H543 0.929 . S
C536 C535 1.383 . S
C536 C537 1.377 . S
C537 H521 0.930 . S
C537 C536 1.377 . S
C537 C538 1.379 . S
C538 H522 0.931 . S
C538 C532 1.383 . S
C538 C537 1.379 . S
H539 C533 0.959 . S
H540 C533 0.961 . S
H541 C533 0.960 . S
H542 C534 0.930 . S
H543 C535 0.929 . S
C140 C48 1.502 . S
C121 N37 1.502 . S
C157 N4 1.507 . S
C176 C91 1.508 . S
C193 N15 1.500 . S
C212 C57 1.509 . S
C229 N26 1.502 . S
C248 C82 1.506 . S
C284 C44 1.567 . S
C265 C9 1.548 . S
C320 C86 1.545 . S
C301 C17 1.548 . S
C337 C31 1.544 . S
C356 C52 1.555 . S
C373 C42 1.531 . S
C392 C78 1.547 . S
C428 C107 1.461 . S
C409 C20 1.442 . S
C464 C73 1.444 . S
C445 C28 1.443 . S
C500 C95 1.465 . S
C481 C39 1.459 . S
C517 C6 1.444 . S
C536 C61 1.436 . S
