# Generated by pormake.
# Topology llk, (3,12)-cn, num edge types: 1
# Building blocks:
#     Node 0, Type 0, BuildingBlock: BETDAH_clean_linker_0, # of connection points: 3
#     Node 1, Type 0, BuildingBlock: BETDAH_clean_linker_0, # of connection points: 3
#     Node 2, Type 0, BuildingBlock: BETDAH_clean_linker_0, # of connection points: 3
#     Node 3, Type 0, BuildingBlock: BETDAH_clean_linker_0, # of connection points: 3
#     Node 4, Type 0, BuildingBlock: BETDAH_clean_linker_0, # of connection points: 3
#     Node 5, Type 0, BuildingBlock: BETDAH_clean_linker_0, # of connection points: 3
#     Node 6, Type 0, BuildingBlock: BETDAH_clean_linker_0, # of connection points: 3
#     Node 7, Type 0, BuildingBlock: BETDAH_clean_linker_0, # of connection points: 3
#     Node 8, Type 0, BuildingBlock: BETDAH_clean_linker_0, # of connection points: 3
#     Node 9, Type 0, BuildingBlock: BETDAH_clean_linker_0, # of connection points: 3
#     Node 10, Type 0, BuildingBlock: BETDAH_clean_linker_0, # of connection points: 3
#     Node 11, Type 0, BuildingBlock: BETDAH_clean_linker_0, # of connection points: 3
#     Node 12, Type 0, BuildingBlock: BETDAH_clean_linker_0, # of connection points: 3
#     Node 13, Type 0, BuildingBlock: BETDAH_clean_linker_0, # of connection points: 3
#     Node 14, Type 0, BuildingBlock: BETDAH_clean_linker_0, # of connection points: 3
#     Node 15, Type 0, BuildingBlock: BETDAH_clean_linker_0, # of connection points: 3
#     Node 16, Type 0, BuildingBlock: BETDAH_clean_linker_0, # of connection points: 3
#     Node 17, Type 0, BuildingBlock: BETDAH_clean_linker_0, # of connection points: 3
#     Node 18, Type 0, BuildingBlock: BETDAH_clean_linker_0, # of connection points: 3
#     Node 19, Type 0, BuildingBlock: BETDAH_clean_linker_0, # of connection points: 3
#     Node 20, Type 0, BuildingBlock: BETDAH_clean_linker_0, # of connection points: 3
#     Node 21, Type 0, BuildingBlock: BETDAH_clean_linker_0, # of connection points: 3
#     Node 22, Type 0, BuildingBlock: BETDAH_clean_linker_0, # of connection points: 3
#     Node 23, Type 0, BuildingBlock: BETDAH_clean_linker_0, # of connection points: 3
#     Node 24, Type 1, BuildingBlock: EZIPEK_clean_sbu_0, # of connection points: 12
#     Node 25, Type 1, BuildingBlock: EZIPEK_clean_sbu_0, # of connection points: 12
#     Node 26, Type 1, BuildingBlock: EZIPEK_clean_sbu_0, # of connection points: 12
#     Node 27, Type 1, BuildingBlock: EZIPEK_clean_sbu_0, # of connection points: 12
#     Node 28, Type 1, BuildingBlock: EZIPEK_clean_sbu_0, # of connection points: 12
#     Node 29, Type 1, BuildingBlock: EZIPEK_clean_sbu_0, # of connection points: 12
#     Edge 30, Type (0, 1), BuildingBlock: UVAHIK_clean_linker_0, # of connection points: 2
#     Edge 31, Type (0, 1), BuildingBlock: UVAHIK_clean_linker_0, # of connection points: 2
#     Edge 32, Type (0, 1), BuildingBlock: UVAHIK_clean_linker_0, # of connection points: 2
#     Edge 33, Type (0, 1), BuildingBlock: UVAHIK_clean_linker_0, # of connection points: 2
#     Edge 34, Type (0, 1), BuildingBlock: UVAHIK_clean_linker_0, # of connection points: 2
#     Edge 35, Type (0, 1), BuildingBlock: UVAHIK_clean_linker_0, # of connection points: 2
#     Edge 36, Type (0, 1), BuildingBlock: UVAHIK_clean_linker_0, # of connection points: 2
#     Edge 37, Type (0, 1), BuildingBlock: UVAHIK_clean_linker_0, # of connection points: 2
#     Edge 38, Type (0, 1), BuildingBlock: UVAHIK_clean_linker_0, # of connection points: 2
#     Edge 39, Type (0, 1), BuildingBlock: UVAHIK_clean_linker_0, # of connection points: 2
#     Edge 40, Type (0, 1), BuildingBlock: UVAHIK_clean_linker_0, # of connection points: 2
#     Edge 41, Type (0, 1), BuildingBlock: UVAHIK_clean_linker_0, # of connection points: 2
#     Edge 42, Type (0, 1), BuildingBlock: UVAHIK_clean_linker_0, # of connection points: 2
#     Edge 43, Type (0, 1), BuildingBlock: UVAHIK_clean_linker_0, # of connection points: 2
#     Edge 44, Type (0, 1), BuildingBlock: UVAHIK_clean_linker_0, # of connection points: 2
#     Edge 45, Type (0, 1), BuildingBlock: UVAHIK_clean_linker_0, # of connection points: 2
#     Edge 46, Type (0, 1), BuildingBlock: UVAHIK_clean_linker_0, # of connection points: 2
#     Edge 47, Type (0, 1), BuildingBlock: UVAHIK_clean_linker_0, # of connection points: 2
#     Edge 48, Type (0, 1), BuildingBlock: UVAHIK_clean_linker_0, # of connection points: 2
#     Edge 49, Type (0, 1), BuildingBlock: UVAHIK_clean_linker_0, # of connection points: 2
#     Edge 50, Type (0, 1), BuildingBlock: UVAHIK_clean_linker_0, # of connection points: 2
#     Edge 51, Type (0, 1), BuildingBlock: UVAHIK_clean_linker_0, # of connection points: 2
#     Edge 52, Type (0, 1), BuildingBlock: UVAHIK_clean_linker_0, # of connection points: 2
#     Edge 53, Type (0, 1), BuildingBlock: UVAHIK_clean_linker_0, # of connection points: 2
#     Edge 54, Type (0, 1), BuildingBlock: UVAHIK_clean_linker_0, # of connection points: 2
#     Edge 55, Type (0, 1), BuildingBlock: UVAHIK_clean_linker_0, # of connection points: 2
#     Edge 56, Type (0, 1), BuildingBlock: UVAHIK_clean_linker_0, # of connection points: 2
#     Edge 57, Type (0, 1), BuildingBlock: UVAHIK_clean_linker_0, # of connection points: 2
#     Edge 58, Type (0, 1), BuildingBlock: UVAHIK_clean_linker_0, # of connection points: 2
#     Edge 59, Type (0, 1), BuildingBlock: UVAHIK_clean_linker_0, # of connection points: 2
#     Edge 60, Type (0, 1), BuildingBlock: UVAHIK_clean_linker_0, # of connection points: 2
#     Edge 61, Type (0, 1), BuildingBlock: UVAHIK_clean_linker_0, # of connection points: 2
#     Edge 62, Type (0, 1), BuildingBlock: UVAHIK_clean_linker_0, # of connection points: 2
#     Edge 63, Type (0, 1), BuildingBlock: UVAHIK_clean_linker_0, # of connection points: 2
#     Edge 64, Type (0, 1), BuildingBlock: UVAHIK_clean_linker_0, # of connection points: 2
#     Edge 65, Type (0, 1), BuildingBlock: UVAHIK_clean_linker_0, # of connection points: 2
#     Edge 66, Type (0, 1), BuildingBlock: UVAHIK_clean_linker_0, # of connection points: 2
#     Edge 67, Type (0, 1), BuildingBlock: UVAHIK_clean_linker_0, # of connection points: 2
#     Edge 68, Type (0, 1), BuildingBlock: UVAHIK_clean_linker_0, # of connection points: 2
#     Edge 69, Type (0, 1), BuildingBlock: UVAHIK_clean_linker_0, # of connection points: 2
#     Edge 70, Type (0, 1), BuildingBlock: UVAHIK_clean_linker_0, # of connection points: 2
#     Edge 71, Type (0, 1), BuildingBlock: UVAHIK_clean_linker_0, # of connection points: 2
#     Edge 72, Type (0, 1), BuildingBlock: UVAHIK_clean_linker_0, # of connection points: 2
#     Edge 73, Type (0, 1), BuildingBlock: UVAHIK_clean_linker_0, # of connection points: 2
#     Edge 74, Type (0, 1), BuildingBlock: UVAHIK_clean_linker_0, # of connection points: 2
#     Edge 75, Type (0, 1), BuildingBlock: UVAHIK_clean_linker_0, # of connection points: 2
#     Edge 76, Type (0, 1), BuildingBlock: UVAHIK_clean_linker_0, # of connection points: 2
#     Edge 77, Type (0, 1), BuildingBlock: UVAHIK_clean_linker_0, # of connection points: 2
#     Edge 78, Type (0, 1), BuildingBlock: UVAHIK_clean_linker_0, # of connection points: 2
#     Edge 79, Type (0, 1), BuildingBlock: UVAHIK_clean_linker_0, # of connection points: 2
#     Edge 80, Type (0, 1), BuildingBlock: UVAHIK_clean_linker_0, # of connection points: 2
#     Edge 81, Type (0, 1), BuildingBlock: UVAHIK_clean_linker_0, # of connection points: 2
#     Edge 82, Type (0, 1), BuildingBlock: UVAHIK_clean_linker_0, # of connection points: 2
#     Edge 83, Type (0, 1), BuildingBlock: UVAHIK_clean_linker_0, # of connection points: 2
#     Edge 84, Type (0, 1), BuildingBlock: UVAHIK_clean_linker_0, # of connection points: 2
#     Edge 85, Type (0, 1), BuildingBlock: UVAHIK_clean_linker_0, # of connection points: 2
#     Edge 86, Type (0, 1), BuildingBlock: UVAHIK_clean_linker_0, # of connection points: 2
#     Edge 87, Type (0, 1), BuildingBlock: UVAHIK_clean_linker_0, # of connection points: 2
#     Edge 88, Type (0, 1), BuildingBlock: UVAHIK_clean_linker_0, # of connection points: 2
#     Edge 89, Type (0, 1), BuildingBlock: UVAHIK_clean_linker_0, # of connection points: 2
#     Edge 90, Type (0, 1), BuildingBlock: UVAHIK_clean_linker_0, # of connection points: 2
#     Edge 91, Type (0, 1), BuildingBlock: UVAHIK_clean_linker_0, # of connection points: 2
#     Edge 92, Type (0, 1), BuildingBlock: UVAHIK_clean_linker_0, # of connection points: 2
#     Edge 93, Type (0, 1), BuildingBlock: UVAHIK_clean_linker_0, # of connection points: 2
#     Edge 94, Type (0, 1), BuildingBlock: UVAHIK_clean_linker_0, # of connection points: 2
#     Edge 95, Type (0, 1), BuildingBlock: UVAHIK_clean_linker_0, # of connection points: 2
#     Edge 96, Type (0, 1), BuildingBlock: UVAHIK_clean_linker_0, # of connection points: 2
#     Edge 97, Type (0, 1), BuildingBlock: UVAHIK_clean_linker_0, # of connection points: 2
#     Edge 98, Type (0, 1), BuildingBlock: UVAHIK_clean_linker_0, # of connection points: 2
#     Edge 99, Type (0, 1), BuildingBlock: UVAHIK_clean_linker_0, # of connection points: 2
#     Edge 100, Type (0, 1), BuildingBlock: UVAHIK_clean_linker_0, # of connection points: 2
#     Edge 101, Type (0, 1), BuildingBlock: UVAHIK_clean_linker_0, # of connection points: 2
# Relax obj value: 0.068
# Max RMSD: 0.164
# Mean RMSD: 0.121
data_MOF--net-llk--node1-EZIPEK_clean_sbu_0--node2-BETDAH_clean_linker_0--edge1-UVAHIK_clean_linker_0
_symmetry_space_group_name_H-M    P1
_symmetry_Int_Tables_number       1
_symmetry_cell_setting            triclinic
loop_
_symmetry_equiv_pos_as_xyz
'x, y, z'
_cell_length_a     59.575894
_cell_length_b     59.965399
_cell_length_c     60.384187
_cell_angle_alpha  90.02173
_cell_angle_beta   90.040743
_cell_angle_gamma 90.011177
loop_
_atom_site_label
_atom_site_type_symbol
_atom_site_fract_x
_atom_site_fract_y
_atom_site_fract_z
_atom_type_partial_charge
H0 H 0.02298 0.25012 0.31833 0.0
H1 H 0.01005 0.28619 0.25831 0.0
H2 H 0.00549 0.21453 0.25892 0.0
C3 C 0.01911 0.25013 0.30078 0.0
C4 C 0.01476 0.22987 0.28999 0.0
C5 C 0.01722 0.27048 0.28949 0.0
C6 C 0.01146 0.27047 0.26695 0.0
C7 C 0.00748 0.25025 0.25575 0.0
C8 C 0.00884 0.23008 0.26746 0.0
N9 N 0.00189 0.2496 0.23287 0.0
C10 C 0.00198 0.26816 0.21904 0.0
H11 H 0.69897 0.0074 0.25356 0.0
H12 H 0.75934 0.99305 0.28958 0.0
H13 H 0.75941 0.9907 0.21835 0.0
C14 C 0.71673 0.00344 0.25365 0.0
C15 C 0.72784 -0.00047 0.23355 0.0
C16 C 0.72799 0.00102 0.2739 0.0
C17 C 0.75076 0.99506 0.27393 0.0
C18 C 0.76227 0.99167 0.25384 0.0
C19 C 0.75062 0.99361 0.23379 0.0
N20 N 0.78544 0.98618 0.25318 0.0
C21 C 0.79929 0.9864 0.27169 0.0
H22 H 0.00768 0.68489 0.25488 0.0
H23 H 0.01782 0.74617 0.29043 0.0
H24 H 0.00942 0.74703 0.21959 0.0
C25 C 0.00936 0.70289 0.25501 0.0
C26 C 0.00817 0.71457 0.23496 0.0
C27 C 0.0131 0.7141 0.27509 0.0
C28 C 0.01477 0.73748 0.27502 0.0
C29 C 0.01322 0.74947 0.25501 0.0
C30 C 0.01033 0.73786 0.23503 0.0
N31 N 0.01464 0.77312 0.25435 0.0
C32 C 0.01545 0.78658 0.2731 0.0
H33 H 0.26339 -0.00073 0.31981 0.0
H34 H 0.29847 0.00269 0.25789 0.0
H35 H 0.22718 0.99065 0.25882 0.0
C36 C 0.26321 0.99854 0.30187 0.0
C37 C 0.2429 0.99448 0.29084 0.0
C38 C 0.28329 0.00161 0.29016 0.0
C39 C 0.283 0.00033 0.26694 0.0
C40 C 0.26269 0.99648 0.25556 0.0
C41 C 0.24274 0.99377 0.26761 0.0
N42 N 0.26167 0.9952 0.23209 0.0
C43 C 0.28036 0.99575 0.21833 0.0
H44 H 0.0201 0.74871 0.68998 0.0
H45 H 0.0183 0.71314 0.75153 0.0
H46 H 0.01821 0.78498 0.75137 0.0
C47 C 0.02009 0.74885 0.70793 0.0
C48 C 0.01981 0.76934 0.71914 0.0
C49 C 0.01986 0.72854 0.71943 0.0
C50 C 0.01848 0.72877 0.74263 0.0
C51 C 0.01774 0.74917 0.75423 0.0
C52 C 0.01843 0.76933 0.74238 0.0
N53 N 0.01655 0.75003 0.77773 0.0
C54 C 0.016 0.73133 0.79138 0.0
H55 H 0.26424 0.00886 0.6905 0.0
H56 H 0.29843 0.99652 0.75169 0.0
H57 H 0.2262 -0.00021 0.75043 0.0
C58 C 0.26353 0.00629 0.70826 0.0
C59 C 0.24267 0.00505 0.71896 0.0
C60 C 0.28359 0.00328 0.71996 0.0
C61 C 0.28287 0.99892 0.74276 0.0
C62 C 0.26209 0.99777 0.75384 0.0
C63 C 0.24213 0.00066 0.74182 0.0
N64 N 0.2606 0.99371 0.77697 0.0
C65 C 0.27896 0.99378 0.7912 0.0
H66 H 0.01885 0.31558 0.75404 0.0
H67 H 0.0167 0.25384 0.71821 0.0
H68 H 0.01855 0.25342 0.78948 0.0
C69 C 0.01896 0.2975 0.754 0.0
C70 C 0.01936 0.28603 0.77424 0.0
C71 C 0.01831 0.28608 0.73373 0.0
C72 C 0.01715 0.2627 0.7338 0.0
C73 C 0.01705 0.25085 0.75395 0.0
C74 C 0.01819 0.26261 0.77404 0.0
N75 N 0.01613 0.22716 0.75461 0.0
C76 C 0.01506 0.21362 0.73591 0.0
H77 H 0.76218 0.9983 0.69133 0.0
H78 H 0.72763 0.00513 0.75326 0.0
H79 H 0.79867 0.99218 0.75247 0.0
C80 C 0.76246 0.99837 0.70928 0.0
C81 C 0.78279 0.99467 0.72039 0.0
C82 C 0.74251 0.00223 0.72097 0.0
C83 C 0.74298 0.00211 0.74422 0.0
C84 C 0.76333 0.9986 0.75562 0.0
C85 C 0.7831 0.99502 0.74361 0.0
N86 N 0.7646 0.99864 0.77909 0.0
C87 C 0.74599 -6e-05 0.79285 0.0
H88 H 0.32248 0.24688 0.01434 0.0
H89 H 0.264 0.28343 0.9943 0.0
H90 H 0.26277 0.21168 0.99479 0.0
C91 C 0.30502 0.24709 0.00923 0.0
C92 C 0.29385 0.2269 0.00531 0.0
C93 C 0.29438 0.26754 0.0052 0.0
C94 C 0.27209 0.26766 0.99766 0.0
C95 C 0.2605 0.24745 0.99427 0.0
C96 C 0.2716 0.22721 0.99778 0.0
N97 N 0.2378 0.24688 0.98717 0.0
C98 C 0.22392 0.26545 0.98728 0.0
H99 H 0.32623 0.75034 0.99579 0.0
H100 H 0.26426 0.71494 0.00519 0.0
H101 H 0.26537 0.78663 0.00781 0.0
C102 C 0.30823 0.75033 0.99837 0.0
C103 C 0.29713 0.77071 0.00118 0.0
C104 C 0.29655 0.73005 0.99981 0.0
C105 C 0.27336 0.73047 0.00412 0.0
C106 C 0.26204 0.75094 0.00693 0.0
C107 C 0.27408 0.7709 0.00563 0.0
N108 N 0.23862 0.75211 0.01106 0.0
C109 C 0.22468 0.73359 0.01151 0.0
H110 H 0.76104 0.31169 0.99462 0.0
H111 H 0.72766 0.25119 0.01297 0.0
H112 H 0.79972 0.25255 0.00794 0.0
C113 C 0.76192 0.29409 0.99861 0.0
C114 C 0.78288 0.28356 0.00033 0.0
C115 C 0.74202 0.28252 0.00312 0.0
C116 C 0.74307 0.26003 0.0094 0.0
C117 C 0.76397 0.24915 0.01105 0.0
C118 C 0.78372 0.26103 0.00665 0.0
N119 N 0.76576 0.22638 0.01721 0.0
C120 C 0.74752 0.212 0.01803 0.0
H121 H 0.76139 0.68663 0.99194 0.0
H122 H 0.72682 0.74706 0.00824 0.0
H123 H 0.79893 0.7469 0.00335 0.0
C124 C 0.76193 0.70437 0.99539 0.0
C125 C 0.78269 0.71532 0.99687 0.0
C126 C 0.74179 0.71573 0.99934 0.0
C127 C 0.7424 0.73842 0.00494 0.0
C128 C 0.76309 0.74977 0.00618 0.0
C129 C 0.78308 0.73808 0.00233 0.0
N130 N 0.76444 0.77285 0.01127 0.0
C131 C 0.74595 0.78693 0.01193 0.0
H132 H 0.50941 0.75097 0.8204 0.0
H133 H 0.5188 0.78593 0.75898 0.0
H134 H 0.51194 0.71445 0.75926 0.0
C135 C 0.5111 0.75083 0.80252 0.0
C136 C 0.51028 0.73043 0.79124 0.0
C137 C 0.51447 0.77093 0.79108 0.0
C138 C 0.51611 0.77051 0.76787 0.0
C139 C 0.51504 0.75012 0.75628 0.0
C140 C 0.51253 0.73016 0.76813 0.0
N141 N 0.51662 0.74904 0.73283 0.0
C142 C 0.51652 0.76759 0.71901 0.0
H143 H 0.19858 0.50767 0.75467 0.0
H144 H 0.25928 0.49355 0.79024 0.0
H145 H 0.2588 0.49108 0.71902 0.0
C146 C 0.21636 0.50375 0.75463 0.0
C147 C 0.22731 0.49984 0.73445 0.0
C148 C 0.22779 0.50139 0.7748 0.0
C149 C 0.25058 0.4955 0.77466 0.0
C150 C 0.26194 0.49212 0.75448 0.0
C151 C 0.25012 0.49399 0.73452 0.0
N152 N 0.28513 0.48672 0.75367 0.0
C153 C 0.29906 0.48682 0.77213 0.0
H154 H 0.51153 0.18402 0.75809 0.0
H155 H 0.51092 0.24758 0.7907 0.0
H156 H 0.52268 0.24389 0.72048 0.0
C157 C 0.51303 0.20201 0.75733 0.0
C158 C 0.51729 0.2123 0.73689 0.0
C159 C 0.51078 0.21456 0.77683 0.0
C160 C 0.51287 0.23785 0.77575 0.0
C161 C 0.51716 0.2485 0.75539 0.0
C162 C 0.51921 0.23565 0.73607 0.0
N163 N 0.51963 0.27203 0.7538 0.0
C164 C 0.51854 0.28636 0.77189 0.0
H165 H 0.76382 0.49958 0.81924 0.0
H166 H 0.79854 0.50234 0.7571 0.0
H167 H 0.72722 0.49057 0.75853 0.0
C168 C 0.76352 0.4987 0.80131 0.0
C169 C 0.74313 0.49462 0.79044 0.0
C170 C 0.78355 0.50158 0.78946 0.0
C171 C 0.78312 0.50013 0.76626 0.0
C172 C 0.76272 0.49628 0.75503 0.0
C173 C 0.74284 0.49372 0.76721 0.0
N174 N 0.76154 0.49485 0.73157 0.0
C175 C 0.78012 0.49555 0.71766 0.0
H176 H 0.50567 0.24674 0.19102 0.0
H177 H 0.51383 0.21217 0.25284 0.0
H178 H 0.51914 0.28375 0.25042 0.0
C179 C 0.50833 0.24702 0.20878 0.0
C180 C 0.51172 0.26756 0.21933 0.0
C181 C 0.50919 0.22691 0.22065 0.0
C182 C 0.51346 0.22758 0.24354 0.0
C183 C 0.51713 0.2481 0.25436 0.0
C184 C 0.51642 0.26796 0.2421 0.0
N185 N 0.52151 0.24937 0.27747 0.0
C186 C 0.52124 0.23108 0.29163 0.0
H187 H 0.76353 0.50991 0.19108 0.0
H188 H 0.79825 0.49714 0.25189 0.0
H189 H 0.72596 0.49943 0.25106 0.0
C190 C 0.76297 0.50709 0.20881 0.0
C191 C 0.74219 0.50542 0.2196 0.0
C192 C 0.78313 0.50416 0.22035 0.0
C193 C 0.78261 0.49947 0.24308 0.0
C194 C 0.7619 0.49788 0.25426 0.0
C195 C 0.74183 0.50067 0.24239 0.0
N196 N 0.76062 0.49346 0.27734 0.0
C197 C 0.77908 0.49359 0.29143 0.0
H198 H 0.5093 0.815 0.25177 0.0
H199 H 0.51091 0.75252 0.21726 0.0
H200 H 0.51261 0.75371 0.28855 0.0
C201 C 0.5095 0.79694 0.25216 0.0
C202 C 0.51026 0.78594 0.27266 0.0
C203 C 0.50948 0.78507 0.23213 0.0
C204 C 0.51105 0.76172 0.23266 0.0
C205 C 0.51244 0.75035 0.25305 0.0
C206 C 0.51198 0.76256 0.27292 0.0
N207 N 0.5141 0.72672 0.25417 0.0
C208 C 0.51395 0.71275 0.23575 0.0
H209 H 0.26162 0.49814 0.1908 0.0
H210 H 0.22762 0.50462 0.25309 0.0
H211 H 0.29865 0.49184 0.2516 0.0
C212 C 0.26206 0.49813 0.20874 0.0
C213 C 0.2825 0.49447 0.21967 0.0
C214 C 0.24219 0.50187 0.22063 0.0
C215 C 0.24288 0.50167 0.24388 0.0
C216 C 0.26336 0.49817 0.25508 0.0
C217 C 0.28301 0.4947 0.24288 0.0
N218 N 0.26489 0.49813 0.27853 0.0
C219 C 0.24644 0.4993 0.2925 0.0
H220 H 0.82505 0.74834 0.51243 0.0
H221 H 0.76347 0.78362 0.50051 0.0
H222 H 0.76469 0.71193 0.49838 0.0
C223 C 0.80714 0.74832 0.50924 0.0
C224 C 0.79616 0.72792 0.50609 0.0
C225 C 0.79552 0.76857 0.50729 0.0
C226 C 0.77251 0.7681 0.5021 0.0
C227 C 0.76132 0.74759 0.49899 0.0
C228 C 0.7733 0.72767 0.50082 0.0
N229 N 0.73808 0.74633 0.49402 0.0
C230 C 0.72403 0.76473 0.49399 0.0
H231 H 0.82524 0.25143 0.49627 0.0
H232 H 0.76329 0.21586 0.50522 0.0
H233 H 0.76429 0.28753 0.5084 0.0
C234 C 0.80723 0.25137 0.4988 0.0
C235 C 0.79608 0.2717 0.50175 0.0
C236 C 0.79558 0.23106 0.50003 0.0
C237 C 0.77238 0.23142 0.50429 0.0
C238 C 0.76102 0.25185 0.50723 0.0
C239 C 0.77303 0.27183 0.50612 0.0
N240 N 0.7376 0.25298 0.51129 0.0
C241 C 0.72367 0.23446 0.5115 0.0
H242 H 0.26044 0.81278 0.49543 0.0
H243 H 0.22698 0.75212 0.51324 0.0
H244 H 0.29901 0.75335 0.50783 0.0
C245 C 0.26129 0.79513 0.49923 0.0
C246 C 0.28223 0.78451 0.50072 0.0
C247 C 0.24138 0.78355 0.50368 0.0
C248 C 0.24239 0.76098 0.50969 0.0
C249 C 0.26328 0.75003 0.51109 0.0
C250 C 0.28303 0.76191 0.50675 0.0
N251 N 0.26508 0.72718 0.51695 0.0
C252 C 0.24691 0.71271 0.51751 0.0
H253 H 0.26181 0.18492 0.50399 0.0
H254 H 0.2277 0.24759 0.49781 0.0
H255 H 0.29885 0.24608 0.51047 0.0
C256 C 0.26224 0.20299 0.50405 0.0
C257 C 0.28265 0.21397 0.50786 0.0
C258 C 0.24239 0.21495 0.50029 0.0
C259 C 0.24301 0.23835 0.50066 0.0
C260 C 0.26351 0.24962 0.50416 0.0
C261 C 0.28319 0.23734 0.5076 0.0
N262 N 0.26503 0.27324 0.50428 0.0
C263 C 0.24656 0.28728 0.50331 0.0
C264 C 0.01146 0.94657 0.55906 0.0
C265 C 0.01148 0.94511 0.45148 0.0
C266 C 0.01039 0.05455 0.55774 0.0
C267 C 0.01082 0.05313 0.4501 0.0
C268 C 0.9559 0.05345 0.50388 0.0
C269 C 0.95626 0.94585 0.50529 0.0
C270 C 0.06476 0.0542 0.50302 0.0
C271 C 0.06506 0.94564 0.50517 0.0
C272 C 0.06504 0.99853 0.45079 0.0
C273 C 0.95654 0.99824 0.45093 0.0
C274 C 0.06525 0.00133 0.55818 0.0
C275 C 0.95693 -0.00051 0.55841 0.0
Eu276 Eu 0.01075 0.95754 0.50511 0.0
O277 O 0.99085 0.97967 0.48514 0.0
O278 O 0.03089 0.98021 0.52441 0.0
Eu279 Eu 0.96834 -0.00032 0.50462 0.0
Eu280 Eu 0.05337 -0.0001 0.50452 0.0
O281 O 0.99091 0.98018 0.52453 0.0
O282 O 0.03072 0.9798 0.48526 0.0
Eu283 Eu 0.01099 0.00034 0.54631 0.0
Eu284 Eu 0.01083 -0.00069 0.46283 0.0
O285 O 0.99078 0.01991 0.52405 0.0
O286 O 0.99069 0.01942 0.48464 0.0
O287 O 0.03063 0.01953 0.4848 0.0
O288 O 0.03072 0.02003 0.52385 0.0
Eu289 Eu 0.01049 0.04219 0.50406 0.0
O290 O 0.01188 0.93942 0.5381 0.0
O291 O 0.0107 0.93843 0.47258 0.0
O292 O 0.01031 0.06126 0.53662 0.0
O293 O 0.01047 0.06034 0.47105 0.0
O294 O 0.94928 0.03223 0.50492 0.0
O295 O 0.94952 0.96702 0.5042 0.0
O296 O 0.07178 0.03303 0.50268 0.0
O297 O 0.07208 0.96682 0.50566 0.0
O298 O 0.04371 -0.00067 0.44412 0.0
O299 O 0.97791 0.99808 0.44435 0.0
O300 O 0.04395 0.00042 0.56491 0.0
O301 O 0.97827 0.00052 0.56495 0.0
O302 O 0.04343 0.06092 0.50393 0.0
O303 O 0.97716 0.06053 0.50311 0.0
O304 O 0.04369 0.93899 0.50466 0.0
O305 O 0.97756 0.93891 0.50622 0.0
O306 O 0.01178 0.96629 0.4447 0.0
O307 O 0.01101 0.03181 0.44375 0.0
O308 O 0.01074 0.96786 0.56547 0.0
O309 O 0.01069 0.03336 0.56452 0.0
O310 O 0.9498 0.99874 0.53744 0.0
O311 O 0.94954 -0.00078 0.47192 0.0
O312 O 0.07216 0.00169 0.53715 0.0
O313 O 0.07201 0.99827 0.47182 0.0
C314 C 0.51279 0.94328 0.05462 0.0
C315 C 0.51192 0.05107 0.06134 0.0
C316 C 0.51343 0.94996 0.94739 0.0
C317 C 0.51056 0.05795 0.95419 0.0
C318 C 0.56622 0.00339 0.95027 0.0
C319 C 0.56752 0.99862 0.05716 0.0
C320 C 0.45739 0.00247 0.95126 0.0
C321 C 0.45865 0.99695 0.05834 0.0
C322 C 0.45751 0.0536 0.00824 0.0
C323 C 0.56637 0.05503 0.00678 0.0
C324 C 0.45874 0.94628 0.00125 0.0
C325 C 0.56759 0.9473 0.00248 0.0
Eu326 Eu 0.51295 0.99799 0.04618 0.0
O327 O 0.53236 0.01948 0.02505 0.0
O328 O 0.4931 0.97925 0.02296 0.0
Eu329 Eu 0.55464 0.00107 0.00391 0.0
Eu330 Eu 0.47033 7e-05 0.00469 0.0
O331 O 0.53282 0.97973 0.02265 0.0
O332 O 0.49269 0.01895 0.02534 0.0
Eu333 Eu 0.51305 0.95829 0.00181 0.0
Eu334 Eu 0.51206 0.04283 0.00694 0.0
O335 O 0.53227 0.9822 0.98323 0.0
O336 O 0.53189 0.0219 0.98557 0.0
O337 O 0.4922 0.02144 0.98601 0.0
O338 O 0.49271 0.98165 0.98362 0.0
Eu339 Eu 0.51194 0.00316 0.96236 0.0
O340 O 0.51244 0.96407 0.06254 0.0
O341 O 0.51317 0.02953 0.06676 0.0
O342 O 0.51233 0.9715 0.94188 0.0
O343 O 0.51023 0.03721 0.9461 0.0
O344 O 0.57307 0.00181 0.97125 0.0
O345 O 0.57392 0.00062 0.0361 0.0
O346 O 0.45098 0.00183 0.97243 0.0
O347 O 0.45178 0.99756 0.0373 0.0
O348 O 0.47868 0.0609 0.0079 0.0
O349 O 0.54504 0.06175 0.00822 0.0
O350 O 0.48007 0.93944 0.00095 0.0
O351 O 0.5464 0.94011 0.00139 0.0
O352 O 0.47862 0.00289 0.94419 0.0
O353 O 0.54488 0.00461 0.94359 0.0
O354 O 0.48002 0.99721 0.06503 0.0
O355 O 0.54634 0.9969 0.06422 0.0
O356 O 0.51106 0.05924 0.04078 0.0
O357 O 0.51168 0.06347 0.97557 0.0
O358 O 0.51338 0.9376 0.03324 0.0
O359 O 0.514 0.94187 0.968 0.0
O360 O 0.57398 0.9686 0.0035 0.0
O361 O 0.57315 0.03393 0.00477 0.0
O362 O 0.45185 0.96739 0.00243 0.0
O363 O 0.45109 0.03232 0.00742 0.0
C364 C 0.01081 0.44547 0.05892 0.0
C365 C 0.01443 0.44511 0.95188 0.0
C366 C 0.01139 0.55374 0.05862 0.0
C367 C 0.01474 0.55352 0.95136 0.0
C368 C 0.95928 0.55387 0.00257 0.0
C369 C 0.95868 0.44578 0.00278 0.0
C370 C 0.06765 0.55328 0.00761 0.0
C371 C 0.06705 0.44523 0.00534 0.0
C372 C 0.06941 0.49975 0.95333 0.0
C373 C 0.96067 0.50026 0.94969 0.0
C374 C 0.06574 0.49966 0.06072 0.0
C375 C 0.95741 0.50064 0.05739 0.0
Eu376 Eu 0.01285 0.45756 0.00533 0.0
O377 O 0.99369 0.47987 0.98486 0.0
O378 O 0.03261 0.47956 0.02566 0.0
Eu379 Eu 0.97059 0.49975 0.00385 0.0
Eu380 Eu 0.05575 0.49934 0.00657 0.0
O381 O 0.99234 0.47991 0.02438 0.0
O382 O 0.03362 0.4797 0.98625 0.0
Eu383 Eu 0.01196 0.49955 0.04705 0.0
Eu384 Eu 0.01459 0.49937 0.9632 0.0
O385 O 0.99272 0.51939 0.02419 0.0
O386 O 0.99405 0.51922 0.98488 0.0
O387 O 0.03392 0.5192 0.98604 0.0
O388 O 0.03262 0.51925 0.02543 0.0
Eu389 Eu 0.01336 0.54158 0.0051 0.0
O390 O 0.01175 0.43881 0.03785 0.0
O391 O 0.0129 0.43857 0.97294 0.0
O392 O 0.01156 0.56041 0.03753 0.0
O393 O 0.01428 0.5602 0.97246 0.0
O394 O 0.95217 0.53276 0.0023 0.0
O395 O 0.95181 0.46695 0.00196 0.0
O396 O 0.0746 0.53213 0.00728 0.0
O397 O 0.07425 0.4663 0.00635 0.0
O398 O 0.04828 0.49934 0.94593 0.0
O399 O 0.98218 0.49926 0.94359 0.0
O400 O 0.04421 0.4992 0.0667 0.0
O401 O 0.9786 0.50065 0.06451 0.0
O402 O 0.04633 0.56005 0.007 0.0
O403 O 0.98059 0.56053 0.00386 0.0
O404 O 0.04564 0.43874 0.00497 0.0
O405 O 0.97991 0.43895 0.00455 0.0
O406 O 0.01563 0.46623 0.94493 0.0
O407 O 0.01501 0.5323 0.94457 0.0
O408 O 0.0107 0.46669 0.06572 0.0
O409 O 0.01187 0.53256 0.06548 0.0
O410 O 0.95088 0.49999 0.03619 0.0
O411 O 0.95312 0.50077 0.97051 0.0
O412 O 0.0734 0.49989 0.03993 0.0
O413 O 0.07563 0.49996 0.97458 0.0
C414 C 0.51227 0.44458 0.05833 0.0
C415 C 0.51123 0.55263 0.0582 0.0
C416 C 0.51111 0.44438 0.95073 0.0
C417 C 0.5104 0.55237 0.95064 0.0
C418 C 0.56512 0.49799 0.95038 0.0
C419 C 0.566 0.49939 0.05783 0.0
C420 C 0.45654 0.49692 0.95129 0.0
C421 C 0.45777 0.49768 0.05873 0.0
C422 C 0.45633 0.55199 0.00439 0.0
C423 C 0.56521 0.55297 0.00382 0.0
C424 C 0.45687 0.44426 0.00553 0.0
C425 C 0.56565 0.4444 0.00418 0.0
Eu426 Eu 0.51172 0.49854 0.04619 0.0
O427 O 0.53129 0.51849 0.02386 0.0
O428 O 0.49159 0.47851 0.02432 0.0
Eu429 Eu 0.55384 0.49864 0.00423 0.0
Eu430 Eu 0.46878 0.49821 0.00491 0.0
O431 O 0.53153 0.47863 0.02395 0.0
O432 O 0.49131 0.51832 0.02433 0.0
Eu433 Eu 0.51133 0.45616 0.0045 0.0
Eu434 Eu 0.51093 0.54077 0.00443 0.0
O435 O 0.53109 0.47872 0.9848 0.0
O436 O 0.53097 0.51839 0.98473 0.0
O437 O 0.49096 0.51818 0.98496 0.0
O438 O 0.4912 0.47849 0.98501 0.0
Eu439 Eu 0.51093 0.49842 0.96273 0.0
O440 O 0.51189 0.46582 0.06493 0.0
O441 O 0.51156 0.53137 0.06477 0.0
O442 O 0.51109 0.46563 0.94416 0.0
O443 O 0.50995 0.53113 0.94401 0.0
O444 O 0.57221 0.49768 0.97137 0.0
O445 O 0.57283 0.49986 0.03678 0.0
O446 O 0.4497 0.49758 0.97235 0.0
O447 O 0.45048 0.49735 0.03781 0.0
O448 O 0.47758 0.55908 0.00363 0.0
O449 O 0.54381 0.55956 0.00413 0.0
O450 O 0.47822 0.43743 0.00505 0.0
O451 O 0.54431 0.4377 0.00374 0.0
O452 O 0.47785 0.49713 0.94453 0.0
O453 O 0.54373 0.49869 0.94383 0.0
O454 O 0.47916 0.49841 0.06513 0.0
O455 O 0.54474 0.49852 0.06464 0.0
O456 O 0.51097 0.55953 0.03715 0.0
O457 O 0.51108 0.55927 0.97166 0.0
O458 O 0.51228 0.43766 0.03728 0.0
O459 O 0.51118 0.43745 0.97176 0.0
O460 O 0.57263 0.4656 0.00483 0.0
O461 O 0.57228 0.5318 0.0037 0.0
O462 O 0.45006 0.46545 0.00552 0.0
O463 O 0.44971 0.53076 0.00534 0.0
C464 C 0.01301 0.44368 0.55542 0.0
C465 C 0.0133 0.44817 0.44818 0.0
C466 C 0.01321 0.55164 0.56004 0.0
C467 C 0.01346 0.55633 0.45275 0.0
C468 C 0.95873 0.55379 0.50679 0.0
C469 C 0.95817 0.44656 0.50176 0.0
C470 C 0.06749 0.5537 0.50597 0.0
C471 C 0.06692 0.44587 0.50288 0.0
C472 C 0.06725 0.50119 0.45055 0.0
C473 C 0.9584 0.5021 0.45043 0.0
C474 C 0.06732 0.49855 0.55754 0.0
C475 C 0.95839 0.49764 0.55757 0.0
Eu476 Eu 0.01261 0.45776 0.50237 0.0
O477 O 0.99293 0.48101 0.48344 0.0
O478 O 0.0326 0.47927 0.52299 0.0
Eu479 Eu 0.97073 0.50012 0.50402 0.0
Eu480 Eu 0.05504 0.49984 0.50408 0.0
O481 O 0.99286 0.47936 0.52306 0.0
O482 O 0.03257 0.4809 0.48358 0.0
Eu483 Eu 0.01284 0.49823 0.54606 0.0
Eu484 Eu 0.01288 0.50171 0.46204 0.0
O485 O 0.99314 0.51909 0.52458 0.0
O486 O 0.9931 0.52077 0.48508 0.0
O487 O 0.0328 0.52061 0.48513 0.0
O488 O 0.03274 0.51892 0.52461 0.0
Eu489 Eu 0.01306 0.54223 0.50581 0.0
O490 O 0.01233 0.43765 0.53415 0.0
O491 O 0.01268 0.44057 0.46896 0.0
O492 O 0.01366 0.55931 0.53927 0.0
O493 O 0.01302 0.56227 0.47406 0.0
O494 O 0.952 0.53263 0.50605 0.0
O495 O 0.95163 0.46779 0.50223 0.0
O496 O 0.07406 0.53246 0.50474 0.0
O497 O 0.07369 0.46705 0.50394 0.0
O498 O 0.04599 0.50222 0.44363 0.0
O499 O 0.97971 0.50209 0.44352 0.0
O500 O 0.04604 0.49767 0.56446 0.0
O501 O 0.97969 0.49749 0.5645 0.0
O502 O 0.04624 0.56071 0.50667 0.0
O503 O 0.97999 0.56082 0.50664 0.0
O504 O 0.04563 0.43901 0.50187 0.0
O505 O 0.97938 0.43938 0.50189 0.0
O506 O 0.01356 0.46962 0.44223 0.0
O507 O 0.01358 0.53543 0.44507 0.0
O508 O 0.01346 0.46459 0.56301 0.0
O509 O 0.01257 0.53022 0.56599 0.0
O510 O 0.95176 0.4984 0.53646 0.0
O511 O 0.95179 0.50173 0.47154 0.0
O512 O 0.07398 0.49959 0.53649 0.0
O513 O 0.07389 0.50008 0.47163 0.0
C514 C 0.51316 0.94441 0.55826 0.0
C515 C 0.5145 0.94519 0.45107 0.0
C516 C 0.51346 0.05264 0.55898 0.0
C517 C 0.51489 0.05351 0.45168 0.0
C518 C 0.45946 0.05286 0.5056 0.0
C519 C 0.45985 0.94483 0.50232 0.0
C520 C 0.56787 0.05322 0.50701 0.0
C521 C 0.56828 0.9453 0.50435 0.0
C522 C 0.56922 -0.00022 0.45234 0.0
C523 C 0.46044 0.00042 0.45045 0.0
C524 C 0.56719 -0.00096 0.55979 0.0
C525 C 0.4589 0.99862 0.55811 0.0
Eu526 Eu 0.51399 0.95696 0.50472 0.0
O527 O 0.49429 0.97941 0.48492 0.0
O528 O 0.53378 0.979 0.52497 0.0
Eu529 Eu 0.47129 0.99887 0.50443 0.0
Eu530 Eu 0.55642 -0.00079 0.50578 0.0
O531 O 0.49352 0.9789 0.52434 0.0
O532 O 0.5342 0.97954 0.48556 0.0
Eu533 Eu 0.51327 0.99857 0.54685 0.0
Eu534 Eu 0.51455 -0.0007 0.46307 0.0
O535 O 0.4936 0.01851 0.52452 0.0
O536 O 0.49408 0.01885 0.48513 0.0
O537 O 0.5341 0.01904 0.48578 0.0
O538 O 0.53336 0.01867 0.5251 0.0
Eu539 Eu 0.51367 0.04108 0.50529 0.0
O540 O 0.51368 0.9379 0.53712 0.0
O541 O 0.51469 0.93831 0.47208 0.0
O542 O 0.5129 0.05959 0.53799 0.0
O543 O 0.51433 0.06002 0.47283 0.0
O544 O 0.45256 0.03168 0.50586 0.0
O545 O 0.45282 0.96596 0.502 0.0
O546 O 0.575 0.03213 0.50645 0.0
O547 O 0.57526 0.96643 0.50537 0.0
O548 O 0.54799 -0.00085 0.44525 0.0
O549 O 0.48185 -0.00046 0.44403 0.0
O550 O 0.54576 0.99817 0.56603 0.0
O551 O 0.48018 -0.00075 0.5649 0.0
O552 O 0.54649 0.05982 0.50677 0.0
O553 O 0.48075 0.05969 0.50491 0.0
O554 O 0.54696 0.93854 0.50403 0.0
O555 O 0.48114 0.93811 0.50379 0.0
O556 O 0.51422 0.96643 0.44439 0.0
O557 O 0.51513 0.03236 0.44472 0.0
O558 O 0.51284 0.96556 0.56521 0.0
O559 O 0.5139 0.03138 0.56556 0.0
O560 O 0.45209 0.99781 0.53701 0.0
O561 O 0.4532 0.00072 0.47139 0.0
O562 O 0.57457 -0.00027 0.5389 0.0
O563 O 0.57575 0.0001 0.4735 0.0
C564 C 0.20157 0.20768 0.50812 0.0
C565 C 0.22126 0.20247 0.49638 0.0
C566 C 0.18299 0.19338 0.5072 0.0
C567 C 0.17172 0.13441 0.5006 0.0
H568 H 0.10943 0.15066 0.49161 0.0
C569 C 0.10328 0.06739 0.49299 0.0
C570 C 0.08207 0.07184 0.50207 0.0
C571 C 0.11946 0.08419 0.49167 0.0
C572 C 0.12671 0.14588 0.49448 0.0
H573 H 0.23618 0.17948 0.47289 0.0
H574 H 0.20396 0.15448 0.47156 0.0
H575 H 0.13853 0.17942 0.48989 0.0
H576 H 0.06127 0.09733 0.51721 0.0
H577 H 0.08975 0.12641 0.51563 0.0
H578 H 0.16022 0.10115 0.50589 0.0
C579 C 0.20302 0.16934 0.48174 0.0
C580 C 0.14333 0.16235 0.49338 0.0
C581 C 0.22143 0.18363 0.48252 0.0
C582 C 0.07742 0.09342 0.50994 0.0
C583 C 0.09372 0.11015 0.50891 0.0
C584 C 0.15517 0.11805 0.50201 0.0
C585 C 0.18392 0.17368 0.49461 0.0
C586 C 0.166 0.15667 0.49617 0.0
C587 C 0.11495 0.10577 0.49973 0.0
C588 C 0.13245 0.12348 0.49874 0.0
H589 H 0.201 0.22206 0.51896 0.0
H590 H 0.1684 0.19707 0.51726 0.0
H591 H 0.18907 0.12968 0.50325 0.0
H592 H 0.10728 0.05101 0.48652 0.0
H593 H 0.13543 0.08027 0.48405 0.0
C594 C 0.80353 0.19144 0.51138 0.0
C595 C 0.80807 0.20973 0.49754 0.0
C596 C 0.81709 0.1724 0.51066 0.0
C597 C 0.86262 0.14486 0.4778 0.0
H598 H 0.87792 0.11861 0.53452 0.0
C599 C 0.94166 0.09106 0.4927 0.0
C600 C 0.93802 0.07048 0.50321 0.0
C601 C 0.92436 0.10674 0.4913 0.0
C602 C 0.87364 0.12568 0.51856 0.0
H603 H 0.82949 0.22169 0.47103 0.0
H604 H 0.85366 0.18924 0.47054 0.0
H605 H 0.8495 0.14778 0.53274 0.0
H606 H 0.91364 0.05034 0.5209 0.0
H607 H 0.88363 0.07806 0.51891 0.0
H608 H 0.88767 0.12334 0.4639 0.0
C609 C 0.83949 0.18927 0.48175 0.0
C610 C 0.85723 0.14229 0.51747 0.0
C611 C 0.8258 0.20811 0.48227 0.0
C612 C 0.9169 0.06603 0.51261 0.0
C613 C 0.89976 0.08188 0.51156 0.0
C614 C 0.87929 0.12853 0.47897 0.0
C615 C 0.83561 0.17132 0.49623 0.0
C616 C 0.85166 0.15228 0.4971 0.0
C617 C 0.90329 0.10228 0.50073 0.0
C618 C 0.88507 0.11896 0.49938 0.0
H619 H 0.79005 0.19212 0.52338 0.0
H620 H 0.81328 0.15872 0.52174 0.0
H621 H 0.85847 0.15177 0.46175 0.0
H622 H 0.95771 0.09488 0.4852 0.0
H623 H 0.92751 0.12245 0.48301 0.0
C624 C 0.82507 0.79184 0.52577 0.0
C625 C 0.80791 0.78995 0.50989 0.0
C626 C 0.83883 0.81064 0.52641 0.0
C627 C 0.85802 0.85676 0.49032 0.0
H628 H 0.88696 0.87661 0.54441 0.0
C629 C 0.91753 0.93309 0.49579 0.0
C630 C 0.93844 0.92876 0.50571 0.0
C631 C 0.90039 0.91723 0.49659 0.0
C632 C 0.87901 0.87116 0.5292 0.0
H633 H 0.79089 0.8071 0.48308 0.0
H634 H 0.81418 0.84046 0.48492 0.0
H635 H 0.85752 0.84839 0.54623 0.0
H636 H 0.95778 0.90456 0.52436 0.0
H637 H 0.92752 0.87697 0.52615 0.0
H638 H 0.87934 0.88001 0.47346 0.0
C639 C 0.81753 0.82699 0.49639 0.0
C640 C 0.8622 0.85495 0.53018 0.0
C641 C 0.80392 0.80799 0.49556 0.0
C642 C 0.94188 0.90828 0.51647 0.0
C643 C 0.92456 0.8926 0.51764 0.0
C644 C 0.87455 0.87326 0.48941 0.0
C645 C 0.83555 0.8283 0.51144 0.0
C646 C 0.85176 0.84721 0.5107 0.0
C647 C 0.90369 0.89695 0.50769 0.0
C648 C 0.88543 0.88031 0.5088 0.0
H649 H 0.82831 0.77846 0.5374 0.0
H650 H 0.8526 0.81083 0.53811 0.0
H651 H 0.85073 0.851 0.47492 0.0
H652 H 0.91444 0.94869 0.48727 0.0
H653 H 0.88442 0.92096 0.48884 0.0
C654 C 0.21449 0.80875 0.48426 0.0
C655 C 0.21981 0.79572 0.50285 0.0
C656 C 0.19581 0.82277 0.4845 0.0
C657 C 0.16213 0.85527 0.52286 0.0
H658 H 0.12199 0.86252 0.47277 0.0
C659 C 0.10455 0.9322 0.51133 0.0
C660 C 0.08224 0.92779 0.5051 0.0
C661 C 0.1205 0.91508 0.51153 0.0
C662 C 0.133 0.8606 0.48693 0.0
H663 H 0.2095 0.78648 0.53598 0.0
H664 H 0.17674 0.81126 0.53651 0.0
H665 H 0.15026 0.83298 0.47221 0.0
H666 H 0.05933 0.90191 0.4939 0.0
H667 H 0.08718 0.87226 0.49411 0.0
H668 H 0.14507 0.88311 0.53744 0.0
C669 C 0.18706 0.81057 0.52177 0.0
C670 C 0.14921 0.84378 0.48656 0.0
C671 C 0.20563 0.79628 0.5214 0.0
C672 C 0.07632 0.90594 0.4989 0.0
C673 C 0.0923 0.88893 0.49887 0.0
C674 C 0.14607 0.87226 0.52312 0.0
C675 C 0.18223 0.82423 0.50345 0.0
C676 C 0.164 0.84101 0.50447 0.0
C677 C 0.11452 0.89329 0.50524 0.0
C678 C 0.13141 0.87515 0.50512 0.0
H679 H 0.22519 0.80855 0.46976 0.0
H680 H 0.19257 0.83321 0.47022 0.0
H681 H 0.17348 0.85367 0.53679 0.0
H682 H 0.10966 0.94882 0.51625 0.0
H683 H 0.13759 0.91894 0.51632 0.0
C684 C 0.4908 0.20363 0.19127 0.0
C685 C 0.50633 0.20538 0.20872 0.0
C686 C 0.49 0.18454 0.17811 0.0
C687 C 0.52568 0.137 0.16121 0.0
H688 H 0.47117 0.11848 0.13124 0.0
C689 C 0.52041 0.06194 0.1005 0.0
C690 C 0.51102 0.06723 0.07978 0.0
C691 C 0.51929 0.07715 0.11802 0.0
C692 C 0.48649 0.1235 0.13953 0.0
H693 H 0.53233 0.18777 0.22681 0.0
H694 H 0.53023 0.15399 0.20445 0.0
H695 H 0.46927 0.14688 0.1601 0.0
H696 H 0.49287 0.09242 0.06124 0.0
H697 H 0.49057 0.1188 0.09202 0.0
H698 H 0.54275 0.11327 0.14066 0.0
C699 C 0.51915 0.16772 0.20048 0.0
C700 C 0.48547 0.13983 0.15599 0.0
C701 C 0.52013 0.18699 0.21353 0.0
C702 C 0.50038 0.08794 0.07697 0.0
C703 C 0.4989 0.10295 0.09459 0.0
C704 C 0.52662 0.1204 0.14499 0.0
C705 C 0.50446 0.16648 0.18225 0.0
C706 C 0.50512 0.1472 0.16669 0.0
C707 C 0.50838 0.0977 0.11524 0.0
C708 C 0.50711 0.11387 0.13369 0.0
H709 H 0.47959 0.2173 0.18738 0.0
H710 H 0.47861 0.1844 0.16413 0.0
H711 H 0.54123 0.14243 0.16878 0.0
H712 H 0.5288 0.04613 0.10313 0.0
H713 H 0.5267 0.07275 0.13381 0.0
C714 C 0.81913 0.48702 0.20756 0.0
C715 C 0.80448 0.50533 0.20798 0.0
C716 C 0.83727 0.48671 0.19286 0.0
C717 C 0.87307 0.52216 0.15779 0.0
H718 H 0.87771 0.46984 0.12024 0.0
C719 C 0.94563 0.50891 0.0962 0.0
C720 C 0.93995 0.50156 0.07478 0.0
C721 C 0.92957 0.50945 0.11297 0.0
C722 C 0.87653 0.48457 0.13056 0.0
H723 H 0.79778 0.5381 0.19446 0.0
H724 H 0.82968 0.5378 0.1691 0.0
H725 H 0.84996 0.4707 0.15008 0.0
H726 H 0.91288 0.48907 0.0542 0.0
H727 H 0.88471 0.48991 0.08374 0.0
H728 H 0.89947 0.53614 0.13817 0.0
C729 C 0.82716 0.52364 0.17996 0.0
C730 C 0.86088 0.48496 0.14778 0.0
C731 C 0.80891 0.52381 0.1944 0.0
C732 C 0.91776 0.49486 0.0705 0.0
C733 C 0.9017 0.49519 0.08742 0.0
C734 C 0.88887 0.52169 0.14073 0.0
C735 C 0.84118 0.50486 0.17862 0.0
C736 C 0.8589 0.50383 0.16146 0.0
C737 C 0.90749 0.50251 0.10881 0.0
C738 C 0.89065 0.50295 0.12685 0.0
H739 H 0.8159 0.47252 0.21778 0.0
H740 H 0.84797 0.47212 0.19227 0.0
H741 H 0.87192 0.5369 0.16812 0.0
H742 H 0.96252 0.51434 0.10009 0.0
H743 H 0.93455 0.515 0.12933 0.0
C744 C 0.49368 0.81612 0.20931 0.0
C745 C 0.50792 0.79749 0.2109 0.0
C746 C 0.49422 0.8298 0.19069 0.0
C747 C 0.50799 0.83486 0.13266 0.0
H748 H 0.52063 0.89654 0.14754 0.0
C749 C 0.52075 0.9038 0.06604 0.0
C750 C 0.51229 0.92508 0.0711 0.0
C751 C 0.52084 0.88695 0.08208 0.0
C752 C 0.51677 0.87948 0.14305 0.0
H753 H 0.53279 0.77775 0.19344 0.0
H754 H 0.53326 0.80161 0.16041 0.0
H755 H 0.51858 0.86877 0.17678 0.0
H756 H 0.49642 0.94511 0.09658 0.0
H757 H 0.49586 0.91573 0.12414 0.0
H758 H 0.50536 0.84572 0.09894 0.0
C759 C 0.52194 0.8056 0.17386 0.0
C760 C 0.51575 0.86357 0.15981 0.0
C761 C 0.5216 0.79197 0.19271 0.0
C762 C 0.50343 0.92901 0.09227 0.0
C763 C 0.50322 0.91215 0.10814 0.0
C764 C 0.50867 0.85091 0.11581 0.0
C765 C 0.50874 0.82498 0.17307 0.0
C766 C 0.51107 0.84121 0.15482 0.0
C767 C 0.51223 0.89099 0.10341 0.0
C768 C 0.51274 0.87349 0.12087 0.0
H769 H 0.48249 0.82049 0.22276 0.0
H770 H 0.48362 0.84447 0.19026 0.0
H771 H 0.50434 0.81767 0.12847 0.0
H772 H 0.52777 0.90031 0.04986 0.0
H773 H 0.52807 0.87093 0.07791 0.0
C774 C 0.20103 0.49472 0.21461 0.0
C775 C 0.22091 0.50565 0.20838 0.0
C776 C 0.18186 0.49612 0.20126 0.0
C777 C 0.15751 0.5267 0.15289 0.0
H778 H 0.12608 0.47095 0.14284 0.0
C779 C 0.10386 0.50952 0.07523 0.0
C780 C 0.08243 0.50043 0.07882 0.0
C781 C 0.1192 0.51122 0.09267 0.0
C782 C 0.13457 0.48668 0.14566 0.0
H783 H 0.23578 0.52795 0.18422 0.0
H784 H 0.2029 0.52973 0.16065 0.0
H785 H 0.15503 0.47296 0.17133 0.0
H786 H 0.06045 0.48555 0.10338 0.0
H787 H 0.08748 0.48814 0.1337 0.0
H788 H 0.13762 0.54004 0.12645 0.0
C789 C 0.20183 0.52024 0.17586 0.0
C790 C 0.15105 0.48791 0.16208 0.0
C791 C 0.22085 0.51897 0.18924 0.0
C792 C 0.0768 0.49273 0.10011 0.0
C793 C 0.09226 0.49411 0.11744 0.0
C794 C 0.14124 0.52537 0.13628 0.0
C795 C 0.18223 0.50844 0.18141 0.0
C796 C 0.16299 0.50785 0.16568 0.0
C797 C 0.11352 0.50355 0.11392 0.0
C798 C 0.12985 0.50527 0.13232 0.0
H799 H 0.20055 0.48434 0.22927 0.0
H800 H 0.16692 0.48716 0.20625 0.0
H801 H 0.16599 0.54245 0.1555 0.0
H802 H 0.10865 0.51572 0.05906 0.0
H803 H 0.13558 0.51836 0.08949 0.0
C804 C 0.52919 0.79245 0.82349 0.0
C805 C 0.51678 0.79209 0.8037 0.0
C806 C 0.53028 0.81172 0.83634 0.0
C807 C 0.49964 0.86392 0.84739 0.0
H808 H 0.55287 0.87728 0.88197 0.0
C809 C 0.50659 0.93918 0.9078 0.0
C810 C 0.51443 0.93361 0.92908 0.0
C811 C 0.50764 0.92365 0.89054 0.0
C812 C 0.53789 0.87373 0.87241 0.0
H813 H 0.49639 0.81199 0.78147 0.0
H814 H 0.49875 0.846 0.80373 0.0
H815 H 0.55407 0.84764 0.85436 0.0
H816 H 0.52979 0.9075 0.94883 0.0
H817 H 0.53182 0.88057 0.91866 0.0
H818 H 0.48354 0.89012 0.8656 0.0
C819 C 0.50729 0.83116 0.80949 0.0
C820 C 0.53853 0.85672 0.85664 0.0
C821 C 0.50612 0.81175 0.79662 0.0
C822 C 0.52349 0.91228 0.93268 0.0
C823 C 0.52483 0.89691 0.91537 0.0
C824 C 0.49909 0.88112 0.86303 0.0
C825 C 0.51917 0.83127 0.82965 0.0
C826 C 0.51925 0.85121 0.84433 0.0
C827 C 0.5169 0.90242 0.89416 0.0
C828 C 0.51806 0.88581 0.87604 0.0
H829 H 0.53794 0.77771 0.82922 0.0
H830 H 0.53934 0.81104 0.85187 0.0
H831 H 0.48442 0.85999 0.83839 0.0
H832 H 0.49943 0.95545 0.90452 0.0
H833 H 0.50146 0.92831 0.87432 0.0
C834 C 0.2011 0.52242 0.79898 0.0
C835 C 0.2154 0.50408 0.79588 0.0
C836 C 0.18745 0.52374 0.8177 0.0
C837 C 0.17687 0.49881 0.87324 0.0
H838 H 0.11602 0.51848 0.86152 0.0
C839 C 0.10937 0.50665 0.94204 0.0
C840 C 0.08738 0.50026 0.93642 0.0
C841 C 0.12605 0.50789 0.9258 0.0
C842 C 0.13288 0.51277 0.86506 0.0
H843 H 0.22725 0.47313 0.81018 0.0
H844 H 0.20304 0.47512 0.84271 0.0
H845 H 0.14365 0.51956 0.83207 0.0
H846 H 0.06588 0.48944 0.90942 0.0
H847 H 0.09495 0.49116 0.88133 0.0
H848 H 0.16569 0.49115 0.90607 0.0
C849 C 0.20264 0.48872 0.83093 0.0
C850 C 0.14887 0.51373 0.84824 0.0
C851 C 0.21648 0.48753 0.81228 0.0
C852 C 0.08255 0.49472 0.91431 0.0
C853 C 0.09923 0.49581 0.89814 0.0
C854 C 0.16079 0.49773 0.89009 0.0
C855 C 0.18758 0.50661 0.83361 0.0
C856 C 0.17104 0.50665 0.85205 0.0
C857 C 0.12112 0.50265 0.90362 0.0
C858 C 0.13855 0.5045 0.88611 0.0
H859 H 0.20021 0.53556 0.7867 0.0
H860 H 0.17646 0.53801 0.81949 0.0
H861 H 0.19384 0.49343 0.87681 0.0
H862 H 0.11364 0.51114 0.9589 0.0
H863 H 0.14268 0.51342 0.93054 0.0
C864 C 0.49253 0.18443 0.79926 0.0
C865 C 0.5069 0.20298 0.79826 0.0
C866 C 0.49093 0.17174 0.81854 0.0
C867 C 0.52354 0.15835 0.86882 0.0
H868 H 0.46961 0.1255 0.88399 0.0
C869 C 0.5174 0.09775 0.94352 0.0
C870 C 0.50923 0.07643 0.93807 0.0
C871 C 0.51606 0.11521 0.92825 0.0
C872 C 0.48477 0.1346 0.87992 0.0
H873 H 0.52991 0.22352 0.81722 0.0
H874 H 0.52647 0.20186 0.85124 0.0
H875 H 0.46819 0.15374 0.85495 0.0
H876 H 0.49291 0.05682 0.91249 0.0
H877 H 0.49031 0.08745 0.88599 0.0
H878 H 0.54 0.13915 0.89398 0.0
C879 C 0.51691 0.19673 0.83686 0.0
C880 C 0.48401 0.15072 0.86325 0.0
C881 C 0.51866 0.20934 0.81744 0.0
C882 C 0.4995 0.07301 0.91714 0.0
C883 C 0.49782 0.09056 0.90204 0.0
C884 C 0.5242 0.14245 0.88572 0.0
C885 C 0.50344 0.17745 0.83747 0.0
C886 C 0.50352 0.16242 0.85709 0.0
C887 C 0.50616 0.11178 0.90743 0.0
C888 C 0.50494 0.13009 0.89106 0.0
H889 H 0.48288 0.17933 0.78491 0.0
H890 H 0.48055 0.15693 0.81823 0.0
H891 H 0.53898 0.16675 0.86436 0.0
H892 H 0.52507 0.10089 0.9595 0.0
H893 H 0.52258 0.13146 0.93279 0.0
C894 C 0.82427 0.4933 0.7969 0.0
C895 C 0.80473 0.50548 0.80183 0.0
C896 C 0.84292 0.49435 0.81101 0.0
C897 C 0.85443 0.50187 0.86929 0.0
H898 H 0.91674 0.51065 0.85306 0.0
C899 C 0.9225 0.51052 0.93589 0.0
C900 C 0.94372 0.50121 0.93183 0.0
C901 C 0.9065 0.51169 0.91905 0.0
C902 C 0.89946 0.50784 0.85784 0.0
H903 H 0.79018 0.52987 0.82415 0.0
H904 H 0.82249 0.53133 0.84888 0.0
H905 H 0.88761 0.51202 0.82447 0.0
H906 H 0.9648 0.48572 0.90693 0.0
H907 H 0.93658 0.487 0.8777 0.0
H908 H 0.86594 0.49694 0.90237 0.0
C909 C 0.82326 0.52075 0.83435 0.0
C910 C 0.88282 0.50875 0.84146 0.0
C911 C 0.80479 0.51986 0.82022 0.0
C912 C 0.94861 0.49309 0.91054 0.0
C913 C 0.93246 0.49396 0.89374 0.0
C914 C 0.871 0.50063 0.88555 0.0
C915 C 0.8422 0.50748 0.83027 0.0
C916 C 0.86015 0.50605 0.84714 0.0
C917 C 0.91117 0.50323 0.89779 0.0
C918 C 0.89372 0.50388 0.88013 0.0
H919 H 0.82469 0.48204 0.78287 0.0
H920 H 0.85738 0.48397 0.80753 0.0
H921 H 0.83708 0.49929 0.87402 0.0
H922 H 0.91832 0.51723 0.95203 0.0
H923 H 0.89051 0.51944 0.92269 0.0
C924 C 0.71582 0.68985 0.97966 0.0
C925 C 0.72041 0.70326 0.99817 0.0
C926 C 0.6975 0.67539 0.97969 0.0
C927 C 0.64485 0.66066 0.0092 0.0
H928 H 0.65739 0.60211 0.98485 0.0
C929 C 0.57643 0.59301 0.99929 0.0
C930 C 0.58249 0.57074 0.00355 0.0
C931 C 0.59267 0.6098 0.99885 0.0
C932 C 0.65365 0.61829 0.99192 0.0
H933 H 0.70903 0.71286 0.03084 0.0
H934 H 0.67707 0.68722 0.03115 0.0
H935 H 0.68605 0.63085 0.98348 0.0
H936 H 0.61043 0.5488 0.0111 0.0
H937 H 0.63868 0.57813 0.01064 0.0
H938 H 0.61264 0.64775 0.01827 0.0
C939 C 0.68744 0.6881 0.01645 0.0
C940 C 0.66998 0.63492 0.99082 0.0
C941 C 0.70571 0.70278 0.01631 0.0
C942 C 0.60517 0.56571 0.00755 0.0
C943 C 0.6214 0.58254 0.00721 0.0
C944 C 0.6285 0.64395 0.01038 0.0
C945 C 0.68349 0.67379 0.99836 0.0
C946 C 0.66578 0.65634 0.99937 0.0
C947 C 0.61536 0.60477 0.00275 0.0
C948 C 0.63272 0.62256 0.00174 0.0
H949 H 0.72681 0.69014 0.96537 0.0
H950 H 0.69461 0.66506 0.96525 0.0
H951 H 0.64102 0.677 0.01585 0.0
H952 H 0.55914 0.59752 0.996 0.0
H953 H 0.58747 0.62668 0.99504 0.0
C954 C 0.30439 0.69049 0.01147 0.0
C955 C 0.309 0.70867 0.9975 0.0
C956 C 0.31786 0.67139 0.01086 0.0
C957 C 0.3632 0.64343 0.9781 0.0
H958 H 0.37842 0.61737 0.03493 0.0
C959 C 0.44213 0.58962 0.99328 0.0
C960 C 0.43845 0.56903 0.00374 0.0
C961 C 0.42485 0.60531 0.99184 0.0
C962 C 0.37416 0.62439 0.01894 0.0
H963 H 0.33045 0.72036 0.97089 0.0
H964 H 0.35448 0.6878 0.97061 0.0
H965 H 0.35014 0.64668 0.03304 0.0
H966 H 0.41402 0.54887 0.02133 0.0
H967 H 0.38402 0.57663 0.01931 0.0
H968 H 0.38814 0.62174 0.96429 0.0
C969 C 0.34032 0.68797 0.98183 0.0
C970 C 0.35783 0.64107 0.01779 0.0
C971 C 0.32671 0.70687 0.98223 0.0
C972 C 0.41731 0.56458 0.01308 0.0
C973 C 0.40017 0.58044 0.01201 0.0
C974 C 0.37979 0.62703 0.97934 0.0
C975 C 0.33636 0.67012 0.99642 0.0
C976 C 0.3523 0.651 0.99737 0.0
C977 C 0.40374 0.60084 0.00121 0.0
C978 C 0.38555 0.61753 0.99979 0.0
H979 H 0.29092 0.69131 0.02348 0.0
H980 H 0.314 0.65781 0.02203 0.0
H981 H 0.35907 0.65028 0.96202 0.0
H982 H 0.4582 0.59345 0.98582 0.0
H983 H 0.42802 0.62103 0.98358 0.0
C984 C 0.32066 0.29199 0.02652 0.0
C985 C 0.30727 0.28851 0.00768 0.0
C986 C 0.3351 0.31028 0.02768 0.0
C987 C 0.34916 0.36452 0.00128 0.0
H988 H 0.40843 0.35174 0.02465 0.0
C989 C 0.41688 0.43272 0.01144 0.0
C990 C 0.43916 0.42694 0.00628 0.0
C991 C 0.40014 0.41644 0.01229 0.0
C992 C 0.39203 0.35556 0.0179 0.0
H993 H 0.29786 0.30176 0.97564 0.0
H994 H 0.32334 0.33359 0.97745 0.0
H995 H 0.37981 0.32287 0.02506 0.0
H996 H 0.46121 0.39944 0.99775 0.0
H997 H 0.43194 0.37113 0.99885 0.0
H998 H 0.36171 0.39698 0.99336 0.0
C999 C 0.32246 0.32241 0.99151 0.0
C1000 C 0.37548 0.33909 0.01845 0.0
C1001 C 0.30786 0.30418 0.99043 0.0
C1002 C 0.44428 0.40448 0.00193 0.0
C1003 C 0.4275 0.38822 0.00267 0.0
C1004 C 0.36576 0.38098 0.00064 0.0
C1005 C 0.33663 0.32538 0.00993 0.0
C1006 C 0.35385 0.34333 0.0101 0.0
C1007 C 0.40524 0.39399 0.00791 0.0
C1008 C 0.38743 0.37665 0.00886 0.0
H1009 H 0.32029 0.28028 0.04017 0.0
H1010 H 0.34537 0.31236 0.04234 0.0
H1011 H 0.33263 0.36841 0.99487 0.0
H1012 H 0.41233 0.44982 0.01509 0.0
H1013 H 0.38326 0.42143 0.01672 0.0
C1014 C 0.71519 0.30761 0.98347 0.0
C1015 C 0.72043 0.29462 0.00212 0.0
C1016 C 0.69648 0.32159 0.98358 0.0
C1017 C 0.66255 0.35402 0.02178 0.0
H1018 H 0.62283 0.36146 0.97139 0.0
C1019 C 0.60513 0.43098 0.01028 0.0
C1020 C 0.58287 0.4266 0.0039 0.0
C1021 C 0.62109 0.41387 0.01041 0.0
C1022 C 0.63372 0.35948 0.98563 0.0
H1023 H 0.70992 0.28539 0.03519 0.0
H1024 H 0.67709 0.31007 0.03547 0.0
H1025 H 0.65106 0.33188 0.97097 0.0
H1026 H 0.56003 0.40084 0.99229 0.0
H1027 H 0.58789 0.3712 0.99241 0.0
H1028 H 0.64541 0.38181 0.03631 0.0
C1029 C 0.68752 0.30939 0.0208 0.0
C1030 C 0.64991 0.34264 0.98534 0.0
C1031 C 0.70612 0.29516 0.02057 0.0
C1032 C 0.577 0.40482 0.99742 0.0
C1033 C 0.59297 0.38782 0.99734 0.0
C1034 C 0.64651 0.37101 0.02197 0.0
C1035 C 0.68278 0.32303 0.00245 0.0
C1036 C 0.66455 0.33981 0.00337 0.0
C1037 C 0.61515 0.39213 0.00391 0.0
C1038 C 0.63201 0.37397 0.00385 0.0
H1039 H 0.72598 0.30741 0.96904 0.0
H1040 H 0.69332 0.33201 0.96927 0.0
H1041 H 0.6738 0.35237 0.03579 0.0
H1042 H 0.6102 0.44755 0.0154 0.0
H1043 H 0.63814 0.41768 0.01535 0.0
C1044 C 0.03519 0.70583 0.6882 0.0
C1045 C 0.021 0.70734 0.70673 0.0
C1046 C 0.03423 0.68739 0.67422 0.0
C1047 C 0.01929 0.62935 0.6681 0.0
H1048 H 0.00694 0.64558 0.60711 0.0
C1049 C 0.0051 0.56339 0.59908 0.0
C1050 C 0.01364 0.56841 0.57797 0.0
C1051 C 0.00526 0.57948 0.61586 0.0
C1052 C 0.01072 0.64071 0.62397 0.0
H1053 H 0.99579 0.68989 0.726 0.0
H1054 H 0.99459 0.65712 0.70162 0.0
H1055 H 0.00964 0.67453 0.63519 0.0
H1056 H 0.0297 0.59393 0.55808 0.0
H1057 H 0.03068 0.62163 0.58738 0.0
H1058 H 0.02121 0.59556 0.65678 0.0
C1059 C 0.00619 0.67052 0.69792 0.0
C1060 C 0.01211 0.65731 0.64006 0.0
C1061 C 0.00694 0.6892 0.71186 0.0
C1062 C 0.02267 0.58966 0.57407 0.0
C1063 C 0.02312 0.6056 0.59089 0.0
C1064 C 0.01825 0.61268 0.65189 0.0
C1065 C 0.01934 0.66985 0.67864 0.0
C1066 C 0.01666 0.65182 0.66219 0.0
C1067 C 0.01421 0.60083 0.61194 0.0
C1068 C 0.01423 0.61821 0.62955 0.0
H1069 H 0.04666 0.71924 0.68412 0.0
H1070 H 0.04482 0.68703 0.65964 0.0
H1071 H 0.02286 0.62479 0.6851 0.0
H1072 H -0.00209 0.54716 0.60254 0.0
H1073 H -0.00198 0.57528 0.63177 0.0
C1074 C 0.31952 0.98561 0.70765 0.0
C1075 C 0.30504 0.00407 0.70773 0.0
C1076 C 0.33786 0.98501 0.6932 0.0
C1077 C 0.37463 0.01984 0.65854 0.0
H1078 H 0.37903 0.96744 0.62105 0.0
C1079 C 0.4474 0.00603 0.59723 0.0
C1080 C 0.4416 -0.00091 0.5757 0.0
C1081 C 0.43139 0.00647 0.61404 0.0
C1082 C 0.37794 0.98218 0.63137 0.0
H1083 H 0.29884 0.03678 0.69386 0.0
H1084 H 0.33112 0.03597 0.66894 0.0
H1085 H 0.35093 0.96867 0.65058 0.0
H1086 H 0.41435 0.9871 0.55504 0.0
H1087 H 0.38629 0.98774 0.58464 0.0
H1088 H 0.40146 0.03345 0.63924 0.0
C1089 C 0.32829 0.02193 0.67987 0.0
C1090 C 0.36207 0.98278 0.64841 0.0
C1091 C 0.30983 0.02238 0.69405 0.0
C1092 C 0.41935 0.99257 0.57141 0.0
C1093 C 0.40334 0.99279 0.58837 0.0
C1094 C 0.39065 0.01914 0.64168 0.0
C1095 C 0.34216 0.00302 0.6789 0.0
C1096 C 0.36014 0.0017 0.66203 0.0
C1097 C 0.40922 -0.00019 0.60982 0.0
C1098 C 0.39234 0.00038 0.62782 0.0
H1099 H 0.31602 0.97124 0.71796 0.0
H1100 H 0.34843 0.97032 0.69288 0.0
H1101 H 0.37352 0.0346 0.66883 0.0
H1102 H 0.46434 0.0113 0.60114 0.0
H1103 H 0.43642 0.01179 0.63046 0.0
C1104 C 0.00506 0.2934 0.6947 0.0
C1105 C 0.01899 0.29896 0.71271 0.0
C1106 C 0.00426 0.30714 0.67594 0.0
C1107 C 0.0102 0.36519 0.66155 0.0
H1108 H 0.02001 0.34676 0.60078 0.0
C1109 C 0.02249 0.42987 0.59323 0.0
C1110 C 0.01344 0.42574 0.57216 0.0
C1111 C 0.02265 0.41321 0.60932 0.0
C1112 C 0.01686 0.35211 0.61762 0.0
H1113 H 0.04429 0.32226 0.72436 0.0
H1114 H 0.04232 0.34642 0.69205 0.0
H1115 H 0.02114 0.31898 0.63053 0.0
H1116 H -0.00247 0.40084 0.55134 0.0
H1117 H 0.99717 0.37183 0.57974 0.0
H1118 H 0.00543 0.39809 0.64902 0.0
C1119 C 0.03187 0.33163 0.69256 0.0
C1120 C 0.01759 0.33622 0.63459 0.0
C1121 C 0.03289 0.31785 0.71108 0.0
C1122 C 0.00471 0.40448 0.56743 0.0
C1123 C 0.00459 0.38784 0.58368 0.0
C1124 C 0.00914 0.38096 0.64466 0.0
C1125 C 0.01722 0.32668 0.67506 0.0
C1126 C 0.01472 0.34277 0.65672 0.0
C1127 C 0.01342 0.39207 0.60488 0.0
C1128 C 0.01296 0.37476 0.62252 0.0
H1129 H 0.99412 0.279 0.69546 0.0
H1130 H 0.99284 0.30303 0.66258 0.0
H1131 H 0.00755 0.37055 0.67849 0.0
H1132 H 0.02969 0.44596 0.59728 0.0
H1133 H 0.03016 0.41692 0.62523 0.0
C1134 C 0.72154 0.01934 0.68936 0.0
C1135 C 0.72138 0.00603 0.7085 0.0
C1136 C 0.70272 0.0205 0.6757 0.0
C1137 C 0.65253 0.98771 0.66117 0.0
H1138 H 0.63897 0.0397 0.62537 0.0
C1139 C 0.57862 0.99177 0.59897 0.0
C1140 C 0.58404 -0.00024 0.57774 0.0
C1141 C 0.59411 0.99323 0.61625 0.0
C1142 C 0.64265 0.02505 0.63522 0.0
H1143 H 0.70082 0.98466 0.72914 0.0
H1144 H 0.66752 0.98729 0.70562 0.0
H1145 H 0.66698 0.0424 0.65474 0.0
H1146 H 0.60995 0.01557 0.558 0.0
H1147 H 0.63699 0.01831 0.58837 0.0
H1148 H 0.62799 0.97048 0.64164 0.0
C1149 C 0.68249 0.99633 0.70084 0.0
C1150 C 0.65869 0.02656 0.65203 0.0
C1151 C 0.70146 0.99504 0.71447 0.0
C1152 C 0.60533 0.00916 0.57413 0.0
C1153 C 0.62071 0.01091 0.59153 0.0
C1154 C 0.63628 0.9863 0.64454 0.0
C1155 C 0.68311 0.0086 0.68097 0.0
C1156 C 0.66417 0.00779 0.66493 0.0
C1157 C 0.61521 0.003 0.61275 0.0
C1158 C 0.6315 0.00484 0.63116 0.0
H1159 H 0.73652 0.02836 0.68454 0.0
H1160 H 0.70397 0.02997 0.66049 0.0
H1161 H 0.65654 0.97281 0.67049 0.0
H1162 H 0.56238 0.98434 0.60226 0.0
H1163 H 0.58944 0.98707 0.63248 0.0
C1164 C 0.03831 0.29458 0.31616 0.0
C1165 C 0.01999 0.29164 0.30182 0.0
C1166 C 0.0395 0.31326 0.3299 0.0
C1167 C 0.01401 0.36895 0.34103 0.0
H1168 H 0.03349 0.35636 0.40101 0.0
C1169 C 0.02049 0.43733 0.40866 0.0
C1170 C 0.01412 0.43132 0.43027 0.0
C1171 C 0.02207 0.42119 0.39201 0.0
C1172 C 0.02781 0.36015 0.38439 0.0
H1173 H 0.98895 0.30621 0.29 0.0
H1174 H 0.9907 0.33863 0.31436 0.0
H1175 H 0.03504 0.32716 0.37326 0.0
H1176 H 0.00375 0.4037 0.45113 0.0
H1177 H 0.00599 0.37578 0.42208 0.0
H1178 H 0.00585 0.40173 0.35255 0.0
C1179 C 0.00441 0.32678 0.31473 0.0
C1180 C 0.02906 0.34347 0.36833 0.0
C1181 C 0.00336 0.30819 0.30079 0.0
C1182 C 0.00896 0.4089 0.43474 0.0
C1183 C 0.01037 0.39283 0.41809 0.0
C1184 C 0.01262 0.38563 0.35717 0.0
C1185 C 0.02224 0.32928 0.32983 0.0
C1186 C 0.02206 0.34759 0.34647 0.0
C1187 C 0.01717 0.39871 0.39657 0.0
C1188 C 0.01931 0.38135 0.3791 0.0
H1189 H 0.05149 0.28217 0.31704 0.0
H1190 H 0.05376 0.31491 0.34092 0.0
H1191 H 0.00868 0.37278 0.32431 0.0
H1192 H 0.02471 0.45442 0.40465 0.0
H1193 H 0.02758 0.42626 0.37568 0.0
C1194 C 0.7163 0.98707 0.31123 0.0
C1195 C 0.71542 0.00368 0.29488 0.0
C1196 C 0.70228 0.98824 0.32976 0.0
C1197 C 0.64851 0.01349 0.34687 0.0
H1198 H 0.66501 0.99071 0.4047 0.0
C1199 C 0.58198 0.99517 0.4131 0.0
C1200 C 0.58701 0.00042 0.43524 0.0
C1201 C 0.59857 0.99621 0.39684 0.0
C1202 C 0.6602 0.99736 0.38872 0.0
H1203 H 0.70038 0.03522 0.28566 0.0
H1204 H 0.67635 0.03764 0.31825 0.0
H1205 H 0.69324 0.99281 0.37554 0.0
H1206 H 0.61354 0.01089 0.45762 0.0
H1207 H 0.64239 0.0131 0.42913 0.0
H1208 H 0.61566 0.01851 0.36008 0.0
C1209 C 0.6873 0.02333 0.31651 0.0
C1210 C 0.67632 0.99832 0.37192 0.0
C1211 C 0.70113 0.02204 0.29791 0.0
C1212 C 0.6091 0.00659 0.44075 0.0
C1213 C 0.62568 0.00778 0.42443 0.0
C1214 C 0.63247 0.01265 0.36366 0.0
C1215 C 0.68725 0.00615 0.33237 0.0
C1216 C 0.67062 0.00624 0.35073 0.0
C1217 C 0.62059 0.00271 0.40225 0.0
C1218 C 0.63802 0.00434 0.38472 0.0
H1219 H 0.72705 0.97264 0.30919 0.0
H1220 H 0.70254 0.97459 0.3415 0.0
H1221 H 0.64339 0.01938 0.33069 0.0
H1222 H 0.56521 0.99012 0.40828 0.0
H1223 H 0.59415 0.99173 0.38002 0.0
C1224 C 0.02782 0.68104 0.29578 0.0
C1225 C 0.01564 0.7011 0.29588 0.0
C1226 C 0.02904 0.66783 0.31472 0.0
C1227 C -0.00092 0.65656 0.36694 0.0
H1228 H 0.05197 0.62084 0.37904 0.0
C1229 C 0.00677 0.59607 0.44171 0.0
C1230 C 0.01421 0.5745 0.43623 0.0
C1231 C 0.00768 0.61326 0.42609 0.0
C1232 C 0.03708 0.6307 0.37582 0.0
H1233 H 0.99586 0.72345 0.31627 0.0
H1234 H -0.00148 0.7006 0.34969 0.0
H1235 H 0.05306 0.64875 0.34973 0.0
H1236 H 0.02863 0.55411 0.41017 0.0
H1237 H 0.03041 0.58418 0.38305 0.0
H1238 H 0.98321 0.6384 0.39319 0.0
C1239 C 0.00673 0.69488 0.33474 0.0
C1240 C 0.03766 0.64665 0.35901 0.0
C1241 C 0.0054 0.70809 0.31567 0.0
C1242 C 0.02266 0.5705 0.41488 0.0
C1243 C 0.02386 0.58774 0.3994 0.0
C1244 C -0.0014 0.64076 0.38395 0.0
C1245 C 0.01833 0.67443 0.33439 0.0
C1246 C 0.01851 0.65941 0.35399 0.0
C1247 C 0.01637 0.60927 0.40485 0.0
C1248 C 0.01744 0.62736 0.38821 0.0
H1249 H 0.03626 0.67536 0.28094 0.0
H1250 H 0.03788 0.65209 0.3137 0.0
H1251 H 0.98394 0.66589 0.36338 0.0
H1252 H 7e-05 0.59966 0.458 0.0
H1253 H 0.00186 0.62973 0.4307 0.0
C1254 C 0.30421 0.01983 0.32116 0.0
C1255 C 0.30436 0.00556 0.30268 0.0
C1256 C 0.32259 0.02075 0.3354 0.0
C1257 C 0.38221 0.0091 0.34263 0.0
H1258 H 0.3653 0.99706 0.4035 0.0
C1259 C 0.44807 0.99327 0.41144 0.0
C1260 C 0.4433 0.00134 0.43278 0.0
C1261 C 0.43183 0.99414 0.39474 0.0
C1262 C 0.37036 0.00083 0.38669 0.0
H1263 H 0.32459 0.98238 0.28369 0.0
H1264 H 0.35712 0.98438 0.30855 0.0
H1265 H 0.33647 -0.0006 0.37511 0.0
H1266 H 0.41796 0.01714 0.45322 0.0
H1267 H 0.38995 0.01935 0.42402 0.0
H1268 H 0.4161 0.01108 0.35427 0.0
C1269 C 0.34257 0.99463 0.31201 0.0
C1270 C 0.35381 0.00205 0.37041 0.0
C1271 C 0.32401 0.99354 0.29779 0.0
C1272 C 0.42205 0.01051 0.43702 0.0
C1273 C 0.40595 0.01168 0.42026 0.0
C1274 C 0.39883 0.0082 0.35902 0.0
C1275 C 0.34164 0.00765 0.33135 0.0
C1276 C 0.35955 0.00629 0.34827 0.0
C1277 C 0.41055 0.00337 0.39893 0.0
C1278 C 0.39308 0.00412 0.3813 0.0
H1279 H 0.28951 0.02971 0.32506 0.0
H1280 H 0.32166 0.03124 0.34999 0.0
H1281 H 0.38702 0.01244 0.32565 0.0
H1282 H 0.46425 0.98594 0.4077 0.0
H1283 H 0.43588 0.98725 0.37866 0.0
C1284 C 0.03373 0.20425 0.31684 0.0
C1285 C 0.01548 0.20879 0.3028 0.0
C1286 C 0.03341 0.18566 0.33078 0.0
C1287 C 0.99422 0.14998 0.36051 0.0
H1288 H 0.04598 0.11186 0.36976 0.0
C1289 C 0.00385 0.09208 0.43653 0.0
C1290 C 0.01111 0.07018 0.43235 0.0
C1291 C 0.00401 0.10807 0.41967 0.0
C1292 C 0.03135 0.12229 0.36726 0.0
H1293 H 0.98284 0.19724 0.29192 0.0
H1294 H 0.98218 0.16473 0.3165 0.0
H1295 H 0.04717 0.14074 0.34117 0.0
H1296 H 0.0245 0.04798 0.40719 0.0
H1297 H 0.025 0.076 0.37789 0.0
H1298 H 0.97853 0.13178 0.38683 0.0
C1299 C 0.99673 0.17557 0.31666 0.0
C1300 C 0.03209 0.13888 0.351 0.0
C1301 C 0.99718 0.19402 0.30248 0.0
C1302 C 0.01867 0.06467 0.41096 0.0
C1303 C 0.0191 0.08073 0.3942 0.0
C1304 C 0.99359 0.13358 0.37695 0.0
C1305 C 0.01471 0.17139 0.33117 0.0
C1306 C 0.01355 0.15295 0.34752 0.0
C1307 C 0.01171 0.10257 0.39835 0.0
C1308 C 0.01218 0.11963 0.38056 0.0
H1309 H 0.04808 0.21534 0.31734 0.0
H1310 H 0.04745 0.18295 0.34188 0.0
H1311 H 0.97977 0.16072 0.35834 0.0
H1312 H -0.00216 0.09686 0.45278 0.0
H1313 H -0.00161 0.12484 0.42338 0.0
C1314 C 0.80665 0.99531 0.31085 0.0
C1315 C 0.81408 0.98686 0.29052 0.0
C1316 C 0.82115 0.99591 0.32903 0.0
C1317 C 0.87425 0.97172 0.35015 0.0
H1318 H 0.87403 0.02341 0.38879 0.0
C1319 C 0.94535 0.9901 0.41185 0.0
C1320 C 0.93928 0.99677 0.43336 0.0
C1321 C 0.9292 0.98833 0.39522 0.0
C1322 C 0.87408 0.00877 0.37829 0.0
H1323 H 0.84212 0.97264 0.27274 0.0
H1324 H 0.86777 0.97406 0.30435 0.0
H1325 H 0.84756 0.02144 0.35799 0.0
H1326 H 0.91142 0.00694 0.4542 0.0
H1327 H 0.88318 0.004 0.42494 0.0
H1328 H 0.90113 0.95932 0.3702 0.0
C1329 C 0.85068 0.97978 0.30655 0.0
C1330 C 0.85892 0.0076 0.36066 0.0
C1331 C 0.83611 0.97909 0.28842 0.0
C1332 C 0.91666 0.00173 0.43782 0.0
C1333 C 0.90051 0.00016 0.42107 0.0
C1334 C 0.8895 0.97297 0.36766 0.0
C1335 C 0.84336 0.98819 0.32709 0.0
C1336 C 0.85894 0.98913 0.34628 0.0
C1337 C 0.90663 0.99334 0.39965 0.0
C1338 C 0.88968 0.99158 0.38179 0.0
H1339 H 0.7897 0.00151 0.31274 0.0
H1340 H 0.81489 0.00224 0.34465 0.0
H1341 H 0.87442 0.95705 0.33968 0.0
H1342 H 0.96258 0.98603 0.40781 0.0
H1343 H 0.93444 0.98329 0.37879 0.0
C1344 C 0.0215 0.82387 0.28887 0.0
C1345 C 0.01608 0.80138 0.29191 0.0
C1346 C 0.02178 0.83847 0.30693 0.0
C1347 C 0.00012 0.84513 0.36402 0.0
H1348 H 0.0454 0.89149 0.36716 0.0
C1349 C 0.0092 0.90502 0.43917 0.0
C1350 C 0.01237 0.92769 0.43401 0.0
C1351 C 0.01019 0.88875 0.42255 0.0
C1352 C 0.03255 0.87872 0.36645 0.0
H1353 H 0.00666 0.77617 0.31579 0.0
H1354 H 0.00751 0.80155 0.34756 0.0
H1355 H 0.04638 0.86458 0.33694 0.0
H1356 H 0.01918 0.95089 0.40719 0.0
H1357 H 0.02085 0.9226 0.37844 0.0
H1358 H 0.98634 0.85937 0.3936 0.0
C1359 C 0.01129 0.8081 0.33128 0.0
C1360 C 0.03308 0.86331 0.3491 0.0
C1361 C 0.01096 0.79352 0.31316 0.0
C1362 C 0.01661 0.93364 0.41186 0.0
C1363 C 0.01774 0.91739 0.39534 0.0
C1364 C -0.00034 0.86051 0.38146 0.0
C1365 C 0.01668 0.83078 0.32837 0.0
C1366 C 0.01672 0.84648 0.3475 0.0
C1367 C 0.01457 0.89476 0.40047 0.0
C1368 C 0.01572 0.87764 0.3827 0.0
H1369 H 0.02537 0.83022 0.27251 0.0
H1370 H 0.02563 0.85587 0.30399 0.0
H1371 H 0.9871 0.83256 0.36318 0.0
H1372 H 0.00589 0.8998 0.45602 0.0
H1373 H 0.00782 0.87142 0.42704 0.0
C1374 C 0.2228 0.97839 0.32347 0.0
C1375 C 0.22213 0.99127 0.30403 0.0
C1376 C 0.20454 0.97797 0.33786 0.0
C1377 C 0.14445 0.9883 0.34407 0.0
H1378 H 0.16058 0.00295 0.4046 0.0
C1379 C 0.07768 0.00497 0.41173 0.0
C1380 C 0.08241 0.99759 0.43333 0.0
C1381 C 0.09409 0.00399 0.39523 0.0
C1382 C 0.15575 0.99847 0.38789 0.0
H1383 H 0.20118 0.01259 0.28369 0.0
H1384 H 0.16887 0.01148 0.30884 0.0
H1385 H 0.18969 0.00031 0.37655 0.0
H1386 H 0.10791 0.98292 0.45443 0.0
H1387 H 0.13626 0.98057 0.42559 0.0
H1388 H 0.11053 0.98594 0.35549 0.0
C1389 C 0.18373 0.0019 0.31291 0.0
C1390 C 0.17246 0.99707 0.3718 0.0
C1391 C 0.20216 0.00248 0.29852 0.0
C1392 C 0.10382 0.98902 0.43803 0.0
C1393 C 0.12012 0.98776 0.42147 0.0
C1394 C 0.12769 0.98942 0.36027 0.0
C1395 C 0.18507 0.9902 0.33303 0.0
C1396 C 0.16701 0.99186 0.34977 0.0
C1397 C 0.11554 0.99536 0.39988 0.0
C1398 C 0.13316 0.99443 0.38243 0.0
H1399 H 0.23775 0.96913 0.3279 0.0
H1400 H 0.20582 0.96845 0.35305 0.0
H1401 H 0.13986 0.98418 0.32719 0.0
H1402 H 0.06138 0.01182 0.40762 0.0
H1403 H 0.09004 0.01032 0.37892 0.0
C1404 C 0.03489 0.79155 0.68735 0.0
C1405 C 0.02091 0.79038 0.70609 0.0
C1406 C 0.03386 0.80977 0.67307 0.0
C1407 C 0.01881 0.86798 0.66658 0.0
H1408 H 0.00714 0.85152 0.60552 0.0
C1409 C 0.00383 0.93414 0.59802 0.0
C1410 C 0.01202 0.92943 0.5767 0.0
C1411 C 0.0043 0.91787 0.61462 0.0
C1412 C 0.01076 0.85649 0.62239 0.0
H1413 H 0.99595 0.80826 0.72527 0.0
H1414 H 0.99466 0.84064 0.7004 0.0
H1415 H 0.01012 0.82265 0.63363 0.0
H1416 H 0.02767 0.90411 0.55625 0.0
H1417 H 0.02927 0.87609 0.58524 0.0
H1418 H 0.0203 0.90178 0.65529 0.0
C1419 C 0.00614 0.82713 0.69677 0.0
C1420 C 0.01231 0.8399 0.63851 0.0
C1421 C 0.00696 0.80866 0.71101 0.0
C1422 C 0.02093 0.90819 0.57241 0.0
C1423 C 0.02173 0.89205 0.58907 0.0
C1424 C 0.01763 0.88463 0.65034 0.0
C1425 C 0.01911 0.82748 0.67733 0.0
C1426 C 0.01653 0.84545 0.66071 0.0
C1427 C 0.01326 0.89657 0.61038 0.0
C1428 C 0.01378 0.87908 0.62796 0.0
H1429 H 0.04629 0.77806 0.68338 0.0
H1430 H 0.04434 0.80985 0.65841 0.0
H1431 H 0.02217 0.87264 0.6836 0.0
H1432 H 0.9967 0.95032 0.60182 0.0
H1433 H 0.99731 0.92192 0.63067 0.0
C1434 C 0.20325 0.99342 0.70919 0.0
C1435 C 0.22174 0.00761 0.70578 0.0
C1436 C 0.18486 0.99399 0.69475 0.0
C1437 C 0.17279 0.00482 0.63723 0.0
H1438 H 0.11021 0.00931 0.65413 0.0
C1439 C 0.10343 0.01237 0.57144 0.0
C1440 C 0.08265 0.0022 0.57559 0.0
C1441 C 0.11971 0.01359 0.58804 0.0
C1442 C 0.12757 0.00767 0.64912 0.0
H1443 H 0.23454 0.03475 0.6856 0.0
H1444 H 0.20281 0.03518 0.66012 0.0
H1445 H 0.13935 0.01057 0.68263 0.0
H1446 H 0.0627 0.98497 0.60026 0.0
H1447 H 0.0914 0.98621 0.62894 0.0
H1448 H 0.16137 0.00106 0.60396 0.0
C1449 C 0.20269 0.02352 0.67382 0.0
C1450 C 0.14422 0.00854 0.66547 0.0
C1451 C 0.22086 0.02318 0.68836 0.0
C1452 C 0.07852 0.99309 0.59663 0.0
C1453 C 0.09495 0.99395 0.61313 0.0
C1454 C 0.15621 0.00356 0.62096 0.0
C1455 C 0.18479 0.00859 0.67658 0.0
C1456 C 0.16695 0.00734 0.6596 0.0
C1457 C 0.11577 0.00427 0.60909 0.0
C1458 C 0.13336 0.00518 0.62663 0.0
H1459 H 0.20344 0.98116 0.72235 0.0
H1460 H 0.17122 0.9823 0.69716 0.0
H1461 H 0.19024 0.0035 0.63235 0.0
H1462 H 0.10698 0.0198 0.55546 0.0
H1463 H 0.13529 0.02212 0.5844 0.0
C1464 C 0.00775 0.17635 0.72056 0.0
C1465 C 0.01385 0.19864 0.71725 0.0
C1466 C 0.00669 0.16161 0.70264 0.0
C1467 C 0.02695 0.15381 0.64514 0.0
H1468 H 0.97984 0.10923 0.64303 0.0
C1469 C 0.01414 0.0945 0.57013 0.0
C1470 C 0.01007 0.07196 0.57524 0.0
C1471 C 0.01404 0.11073 0.58681 0.0
C1472 C 0.9932 0.12148 0.64346 0.0
H1473 H 0.02366 0.2233 0.69297 0.0
H1474 H 0.02149 0.19769 0.66146 0.0
H1475 H 0.98061 0.13615 0.67325 0.0
H1476 H 0.00247 0.04897 0.60201 0.0
H1477 H 0.00238 0.07718 0.63091 0.0
H1478 H 0.0395 0.13904 0.61528 0.0
C1479 C 0.01778 0.19141 0.67786 0.0
C1480 C 0.99367 0.1369 0.66081 0.0
C1481 C 0.01888 0.20612 0.69584 0.0
C1482 C 0.00575 0.06612 0.5974 0.0
C1483 C 0.00551 0.08234 0.614 0.0
C1484 C 0.02642 0.13841 0.62772 0.0
C1485 C 0.01168 0.16894 0.68104 0.0
C1486 C 0.01068 0.15313 0.66202 0.0
C1487 C 0.00968 0.10483 0.60894 0.0
C1488 C 0.00967 0.12192 0.62681 0.0
H1489 H 0.00392 0.17028 0.73703 0.0
H1490 H 0.0023 0.14438 0.70578 0.0
H1491 H 0.04046 0.16588 0.64567 0.0
H1492 H 0.01757 0.09962 0.55327 0.0
H1493 H 0.01715 0.12795 0.58236 0.0
C1494 C 0.80306 0.97783 0.68822 0.0
C1495 C 0.80358 0.99106 0.70742 0.0
C1496 C 0.8216 0.97681 0.67422 0.0
C1497 C 0.87112 0.01007 0.65903 0.0
H1498 H 0.88514 0.95819 0.62324 0.0
C1499 C 0.94509 0.00675 0.59737 0.0
C1500 C 0.93992 0.99865 0.57611 0.0
C1501 C 0.92949 0.00512 0.61449 0.0
C1502 C 0.8813 0.9728 0.63309 0.0
H1503 H 0.82447 0.01249 0.72775 0.0
H1504 H 0.85726 0.01005 0.70367 0.0
H1505 H 0.85731 0.95519 0.65273 0.0
H1506 H 0.91439 0.98253 0.5561 0.0
H1507 H 0.88711 0.97954 0.58621 0.0
H1508 H 0.8953 0.02758 0.63941 0.0
C1509 C 0.84223 0.00097 0.69912 0.0
C1510 C 0.86538 0.97112 0.64996 0.0
C1511 C 0.82356 0.00214 0.71307 0.0
C1512 C 0.91878 0.98902 0.57227 0.0
C1513 C 0.90328 0.98713 0.58952 0.0
C1514 C 0.88722 0.01166 0.64234 0.0
C1515 C 0.84124 0.98879 0.67922 0.0
C1516 C 0.85983 0.98984 0.6629 0.0
C1517 C 0.90855 0.99512 0.61077 0.0
C1518 C 0.89219 0.99314 0.62902 0.0
H1519 H 0.78803 0.96875 0.68365 0.0
H1520 H 0.82013 0.96739 0.65898 0.0
H1521 H 0.86699 0.02493 0.66837 0.0
H1522 H 0.96122 0.01436 0.60082 0.0
H1523 H 0.93396 0.01134 0.63076 0.0
C1524 C 0.32071 0.00053 0.21022 0.0
C1525 C 0.29889 0.99574 0.20299 0.0
C1526 C 0.33858 0.00023 0.1952 0.0
C1527 C 0.3548 0.97821 0.14016 0.0
H1528 H 0.40093 0.02377 0.14289 0.0
C1529 C 0.41849 0.99204 0.06975 0.0
C1530 C 0.44099 0.99603 0.07562 0.0
C1531 C 0.40174 0.99142 0.0859 0.0
C1532 C 0.38832 0.01078 0.14209 0.0
H1533 H 0.27822 0.98707 0.17484 0.0
H1534 H 0.30932 0.98681 0.14843 0.0
H1535 H 0.37047 0.024 0.16991 0.0
H1536 H 0.46344 0.0025 0.10324 0.0
H1537 H 0.43411 0.00141 0.13142 0.0
H1538 H 0.37249 0.96517 0.11216 0.0
C1539 C 0.31285 0.99045 0.16565 0.0
C1540 C 0.37087 0.01089 0.15757 0.0
C1541 C 0.29503 0.99074 0.18068 0.0
C1542 C 0.44631 -0.00065 0.09809 0.0
C1543 C 0.42949 0.99887 0.11425 0.0
C1544 C 0.37218 0.97814 0.12465 0.0
C1545 C 0.33487 0.99513 0.17273 0.0
C1546 C 0.35381 0.99469 0.1567 0.0
C1547 C 0.40703 0.99488 0.10831 0.0
C1548 C 0.38905 0.99451 0.12534 0.0
H1549 H 0.32401 0.0044 0.22742 0.0
H1550 H 0.35534 0.00368 0.20126 0.0
H1551 H 0.34219 0.96522 0.13926 0.0
H1552 H 0.41372 0.98938 0.05264 0.0
H1553 H 0.38455 0.98857 0.08077 0.0
C1554 C -0.00051 0.28251 0.18099 0.0
C1555 C 0.00217 0.28658 0.20366 0.0
C1556 C -0.00013 0.30018 0.16588 0.0
C1557 C 0.01917 0.35844 0.15942 0.0
H1558 H 0.97783 0.35855 0.1098 0.0
C1559 C 0.01137 0.43303 0.09875 0.0
C1560 C 0.00959 0.42778 0.0761 0.0
C1561 C 0.01009 0.41625 0.11482 0.0
C1562 C 0.98963 0.35867 0.12345 0.0
H1563 H 0.00725 0.31198 0.22863 0.0
H1564 H 0.00777 0.34299 0.20232 0.0
H1565 H 0.97617 0.3285 0.1369 0.0
H1566 H 0.00502 0.4006 0.05271 0.0
H1567 H 0.00297 0.37153 0.08065 0.0
H1568 H 0.03266 0.38863 0.14589 0.0
C1569 C 0.00562 0.32619 0.19607 0.0
C1570 C 0.98869 0.34143 0.13899 0.0
C1571 C 0.00521 0.30849 0.21116 0.0
C1572 C 0.0065 0.40535 0.06996 0.0
C1573 C 0.00513 0.38863 0.08601 0.0
C1574 C 0.0201 0.37572 0.14388 0.0
C1575 C 0.00297 0.32225 0.17323 0.0
C1576 C 0.00355 0.341 0.15708 0.0
C1577 C 0.00689 0.39387 0.10863 0.0
C1578 C 0.00545 0.37595 0.12561 0.0
H1579 H 0.9972 0.26565 0.17492 0.0
H1580 H -0.00191 0.29649 0.14841 0.0
H1581 H 0.03106 0.35849 0.173 0.0
H1582 H 0.01378 0.45009 0.10413 0.0
H1583 H 0.01131 0.42087 0.13212 0.0
C1584 C 0.71605 0.98289 0.19738 0.0
C1585 C 0.71516 0.00064 0.21253 0.0
C1586 C 0.70212 0.98278 0.17877 0.0
C1587 C 0.66742 0.01828 0.1428 0.0
H1588 H 0.63183 0.96477 0.13419 0.0
C1589 C 0.60714 0.00617 0.06874 0.0
C1590 C 0.5855 0.99844 0.07404 0.0
C1591 C 0.62413 0.00623 0.08466 0.0
C1592 C 0.64166 0.9798 0.13642 0.0
H1593 H 0.69991 0.03265 0.21965 0.0
H1594 H 0.67566 0.03256 0.187 0.0
H1595 H 0.66044 0.96569 0.1632 0.0
H1596 H 0.56484 0.9845 0.10019 0.0
H1597 H 0.59465 0.98449 0.12795 0.0
H1598 H 0.64841 0.03249 0.1162 0.0
C1599 C 0.68706 0.01872 0.18954 0.0
C1600 C 0.65816 0.98026 0.15284 0.0
C1601 C 0.7008 0.01872 0.20826 0.0
C1602 C 0.58129 0.99063 0.09558 0.0
C1603 C 0.59837 0.99047 0.11143 0.0
C1604 C 0.65108 0.01774 0.12621 0.0
C1605 C 0.68726 0.00054 0.17487 0.0
C1606 C 0.67102 -0.00042 0.15634 0.0
C1607 C 0.61992 0.99835 0.10613 0.0
C1608 C 0.63788 0.99859 0.12306 0.0
H1609 H 0.72688 0.9687 0.20039 0.0
H1610 H 0.70269 0.96865 0.1676 0.0
H1611 H 0.67718 0.03335 0.14512 0.0
H1612 H 0.61095 0.0124 0.05233 0.0
H1613 H 0.64064 0.01227 0.08011 0.0
C1614 C 0.02134 0.70368 0.19711 0.0
C1615 C 0.00537 0.70194 0.21408 0.0
C1616 C 0.02059 0.68916 0.17897 0.0
C1617 C -0.00185 0.63349 0.16396 0.0
H1618 H 0.01853 0.64954 0.10515 0.0
C1619 C 0.01607 0.56661 0.09788 0.0
C1620 C 0.01041 0.57137 0.07579 0.0
C1621 C 0.01505 0.58324 0.11407 0.0
C1622 C 0.01255 0.64481 0.12141 0.0
H1623 H 0.97531 0.68485 0.22487 0.0
H1624 H 0.97338 0.66012 0.19287 0.0
H1625 H 0.0159 0.67814 0.13371 0.0
H1626 H -0.001 0.59738 0.05346 0.0
H1627 H 0.99668 0.62617 0.08175 0.0
H1628 H 0.99412 0.60037 0.15159 0.0
C1629 C 0.98699 0.67206 0.19381 0.0
C1630 C 0.01131 0.66118 0.13789 0.0
C1631 C 0.98793 0.68634 0.21205 0.0
C1632 C 0.00368 0.59316 0.07028 0.0
C1633 C 0.00244 0.60973 0.08651 0.0
C1634 C -0.0008 0.6172 0.14747 0.0
C1635 C 0.0037 0.67279 0.17736 0.0
C1636 C 0.00419 0.65572 0.15942 0.0
C1637 C 0.00809 0.605 0.10863 0.0
C1638 C 0.00657 0.62258 0.12602 0.0
H1639 H 0.03506 0.71546 0.19845 0.0
H1640 H 0.03386 0.69012 0.16676 0.0
H1641 H 0.99296 0.6285 0.1804 0.0
H1642 H 0.02153 0.55007 0.10268 0.0
H1643 H 0.01996 0.57905 0.13083 0.0
C1644 C 0.2929 -0.00058 0.82907 0.0
C1645 C 0.29723 0.99448 0.80683 0.0
C1646 C 0.31052 0.0005 0.84433 0.0
C1647 C 0.36943 0.98278 0.85308 0.0
H1648 H 0.36862 0.02883 0.89819 0.0
C1649 C 0.44456 -0.00089 0.91174 0.0
C1650 C 0.43941 0.0024 0.93424 0.0
C1651 C 0.4275 0.99847 0.89582 0.0
C1652 C 0.36899 0.01576 0.88581 0.0
H1653 H 0.32292 0.98664 0.78277 0.0
H1654 H 0.35392 0.98883 0.80932 0.0
H1655 H 0.33836 0.02698 0.87107 0.0
H1656 H 0.41217 0.00783 0.95753 0.0
H1657 H 0.38256 0.0067 0.92978 0.0
H1658 H 0.40016 0.97166 0.86783 0.0
C1659 C 0.33697 0.99161 0.81516 0.0
C1660 C 0.35163 0.01467 0.87028 0.0
C1661 C 0.3193 0.99049 0.79992 0.0
C1662 C 0.41681 0.00524 0.94038 0.0
C1663 C 0.39981 0.00474 0.92445 0.0
C1664 C 0.38685 0.98394 0.86857 0.0
C1665 C 0.3328 0.9967 0.83755 0.0
C1666 C 0.35155 0.99809 0.85379 0.0
C1667 C 0.40494 0.00126 0.90201 0.0
C1668 C 0.38676 0.00037 0.88518 0.0
H1669 H 0.27589 0.00247 0.83466 0.0
H1670 H 0.30664 0.00409 0.86148 0.0
H1671 H 0.36975 0.96961 0.84081 0.0
H1672 H 0.46174 0.9968 0.90637 0.0
H1673 H 0.43201 0.99597 0.87862 0.0
C1674 C 0.03521 0.31771 0.79633 0.0
C1675 C 0.02116 0.2989 0.79526 0.0
C1676 C 0.03543 0.33135 0.81503 0.0
C1677 C 0.00065 0.34649 0.86358 0.0
H1678 H 0.05428 0.37916 0.88023 0.0
C1679 C 0.00602 0.40613 0.93936 0.0
C1680 C 0.01509 0.42732 0.93488 0.0
C1681 C 0.00695 0.38918 0.92348 0.0
C1682 C 0.03917 0.37019 0.8757 0.0
H1683 H 0.99707 0.27909 0.81358 0.0
H1684 H -0.00196 0.30251 0.84673 0.0
H1685 H 0.05646 0.35059 0.8516 0.0
H1686 H 0.03238 0.44727 0.91027 0.0
H1687 H 0.03434 0.41749 0.88267 0.0
H1688 H 0.98353 0.36603 0.88808 0.0
C1689 C 0.00845 0.30705 0.83276 0.0
C1690 C 0.04036 0.35385 0.85924 0.0
C1691 C 0.0081 0.29344 0.81387 0.0
C1692 C 0.02514 0.43118 0.91419 0.0
C1693 C 0.02642 0.4141 0.89846 0.0
C1694 C -0.00045 0.36263 0.88029 0.0
C1695 C 0.02184 0.32642 0.83342 0.0
C1696 C 0.02102 0.34209 0.8526 0.0
C1697 C 0.01733 0.39295 0.90295 0.0
C1698 C 0.01871 0.37491 0.88621 0.0
H1699 H 0.04582 0.32219 0.78246 0.0
H1700 H 0.04576 0.34619 0.81469 0.0
H1701 H 0.98534 0.33805 0.85876 0.0
H1702 H -0.00195 0.40266 0.95511 0.0
H1703 H -0.00011 0.37301 0.92737 0.0
C1704 C 0.70621 0.00806 0.80056 0.0
C1705 C 0.72723 0.00057 0.80779 0.0
C1706 C 0.68798 0.0082 0.81512 0.0
C1707 C 0.66835 0.9832 0.86764 0.0
H1708 H 0.62688 0.03306 0.86827 0.0
C1709 C 0.60608 0.99758 0.93865 0.0
C1710 C 0.5839 0.00333 0.93306 0.0
C1711 C 0.62278 0.997 0.92251 0.0
C1712 C 0.63818 0.01891 0.86809 0.0
H1713 H 0.74622 0.98766 0.83548 0.0
H1714 H 0.71453 0.98825 0.86117 0.0
H1715 H 0.65778 0.03264 0.8417 0.0
H1716 H 0.56199 0.01321 0.90603 0.0
H1717 H 0.59135 0.01228 0.87781 0.0
H1718 H 0.64899 0.96968 0.89427 0.0
C1719 C 0.71185 0.99361 0.84424 0.0
C1720 C 0.65586 0.01865 0.85288 0.0
C1721 C 0.73001 0.99342 0.82966 0.0
C1722 C 0.57888 0.00867 0.91092 0.0
C1723 C 0.59569 0.00825 0.89476 0.0
C1724 C 0.65078 0.98353 0.88289 0.0
C1725 C 0.69058 0.00091 0.83712 0.0
C1726 C 0.67127 0.00088 0.85264 0.0
C1727 C 0.61776 0.00227 0.90041 0.0
C1728 C 0.63566 0.00148 0.88341 0.0
H1729 H 0.7038 0.01369 0.7837 0.0
H1730 H 0.67179 0.01372 0.80905 0.0
H1731 H 0.67963 0.96904 0.86758 0.0
H1732 H 0.6106 0.9933 0.9555 0.0
H1733 H 0.63971 0.99261 0.92738 0.0
C1734 C 0.01072 0.71667 0.82904 0.0
C1735 C 0.01533 0.71281 0.80663 0.0
C1736 C 0.01019 0.69892 0.84403 0.0
C1737 C 0.02959 0.6407 0.85162 0.0
H1738 H 0.98503 0.64029 0.89839 0.0
C1739 C 0.01782 0.56596 0.91162 0.0
C1740 C 0.01471 0.57122 0.93413 0.0
C1741 C 0.0176 0.58273 0.89549 0.0
C1742 C -0.00229 0.64024 0.88554 0.0
H1743 H 0.02302 0.68771 0.78204 0.0
H1744 H 0.02179 0.6565 0.80813 0.0
H1745 H 0.98501 0.67035 0.87127 0.0
H1746 H 0.00889 0.59845 0.95718 0.0
H1747 H 0.00861 0.6275 0.92914 0.0
H1748 H 0.04224 0.61052 0.86596 0.0
C1749 C 0.01885 0.6732 0.81429 0.0
C1750 C -0.00228 0.65751 0.86999 0.0
C1751 C 0.01941 0.69102 0.7993 0.0
C1752 C 0.01137 0.59368 0.94005 0.0
C1753 C 0.01103 0.61038 0.92394 0.0
C1754 C 0.02953 0.62337 0.86715 0.0
C1755 C 0.01424 0.67693 0.83686 0.0
C1756 C 0.01378 0.65808 0.85293 0.0
C1757 C 0.01411 0.60513 0.90146 0.0
C1758 C 0.01371 0.62305 0.88441 0.0
H1759 H 0.00764 0.73345 0.83498 0.0
H1760 H 0.00694 0.70248 0.86132 0.0
H1761 H 0.04239 0.64073 0.83889 0.0
H1762 H 0.02046 0.54888 0.9064 0.0
H1763 H 0.01984 0.57811 0.87829 0.0
C1764 C 0.18725 0.2826 0.98009 0.0
C1765 C 0.20921 0.28442 0.98807 0.0
C1766 C 0.17268 0.30079 0.98143 0.0
C1767 C 0.16429 0.35376 0.01164 0.0
H1768 H 0.12212 0.36566 0.96414 0.0
C1769 C 0.10677 0.4317 0.00892 0.0
C1770 C 0.08415 0.42744 0.00378 0.0
C1771 C 0.12285 0.41486 0.00683 0.0
C1772 C 0.13375 0.36245 0.97757 0.0
H1773 H 0.23351 0.30616 0.00371 0.0
H1774 H 0.20834 0.33822 0.00556 0.0
H1775 H 0.14892 0.33517 0.9604 0.0
H1776 H 0.06073 0.40214 0.9923 0.0
H1777 H 0.08876 0.37294 0.98866 0.0
H1778 H 0.1491 0.38121 0.02871 0.0
C1779 C 0.20213 0.32277 0.99856 0.0
C1780 C 0.14904 0.34496 0.97547 0.0
C1781 C 0.21662 0.30452 0.99732 0.0
C1782 C 0.07797 0.40601 0.99653 0.0
C1783 C 0.09404 0.3893 0.99425 0.0
C1784 C 0.14909 0.37137 0.01366 0.0
C1785 C 0.17995 0.32109 0.99073 0.0
C1786 C 0.16433 0.34026 0.99258 0.0
C1787 C 0.11662 0.39356 0.99931 0.0
C1788 C 0.13353 0.37571 0.99674 0.0
H1789 H 0.18128 0.26707 0.97304 0.0
H1790 H 0.15561 0.29881 0.97558 0.0
H1791 H 0.17562 0.3504 0.02526 0.0
H1792 H 0.11207 0.44802 0.01458 0.0
H1793 H 0.14019 0.41857 0.01075 0.0
C1794 C 0.2169 0.69423 0.00307 0.0
C1795 C 0.20994 0.71466 0.01193 0.0
C1796 C 0.20249 0.67587 0.00346 0.0
C1797 C 0.15124 0.65443 0.03085 0.0
H1798 H 0.14817 0.61573 0.97944 0.0
C1799 C 0.07918 0.59242 0.01598 0.0
C1800 C 0.08497 0.57084 0.00893 0.0
C1801 C 0.09541 0.60912 0.01722 0.0
C1802 C 0.14906 0.62625 0.994 0.0
H1803 H 0.18288 0.73248 0.02789 0.0
H1804 H 0.15732 0.70056 0.02816 0.0
H1805 H 0.17458 0.64681 0.9798 0.0
H1806 H 0.11234 0.54984 0.9976 0.0
H1807 H 0.14071 0.57923 0.99959 0.0
H1808 H 0.12527 0.63414 0.04476 0.0
C1809 C 0.174 0.69842 0.02137 0.0
C1810 C 0.16419 0.64403 0.99425 0.0
C1811 C 0.18849 0.71671 0.02109 0.0
C1812 C 0.10737 0.56629 0.00316 0.0
C1813 C 0.12357 0.5831 0.00418 0.0
C1814 C 0.136 0.63677 0.03052 0.0
C1815 C 0.18085 0.67777 0.01257 0.0
C1816 C 0.16533 0.65842 0.01261 0.0
C1817 C 0.11772 0.60465 0.01124 0.0
C1818 C 0.13467 0.62263 0.01203 0.0
H1819 H 0.2334 0.6924 0.99581 0.0
H1820 H 0.20838 0.66016 0.99678 0.0
H1821 H 0.152 0.66493 0.04543 0.0
H1822 H 0.06211 0.59645 0.02068 0.0
H1823 H 0.09042 0.62565 0.02251 0.0
C1824 C 0.3194 0.20179 0.02663 0.0
C1825 C 0.30615 0.20567 0.00778 0.0
C1826 C 0.33338 0.18316 0.02767 0.0
C1827 C 0.36548 0.14766 0.99104 0.0
H1828 H 0.37433 0.1107 0.04304 0.0
C1829 C 0.44361 0.09262 0.00314 0.0
C1830 C 0.43951 0.07044 0.00942 0.0
C1831 C 0.42626 0.10826 0.00343 0.0
C1832 C 0.37193 0.12085 0.02839 0.0
H1833 H 0.29636 0.19282 0.97564 0.0
H1834 H 0.32093 0.1602 0.97743 0.0
H1835 H 0.34427 0.13856 0.04273 0.0
H1836 H 0.4142 0.04739 0.02154 0.0
H1837 H 0.38402 0.07484 0.02219 0.0
H1838 H 0.39331 0.13024 0.97681 0.0
C1839 C 0.32049 0.1716 0.99135 0.0
C1840 C 0.35484 0.13679 0.02825 0.0
C1841 C 0.30634 0.19011 0.99041 0.0
C1842 C 0.41786 0.06433 0.01644 0.0
C1843 C 0.40061 0.08003 0.01697 0.0
C1844 C 0.3827 0.13192 0.99128 0.0
C1845 C 0.33449 0.16825 0.00977 0.0
C1846 C 0.35154 0.15037 0.00959 0.0
C1847 C 0.40461 0.10206 0.01025 0.0
C1848 C 0.38614 0.11847 0.00999 0.0
H1849 H 0.31941 0.21351 0.04029 0.0
H1850 H 0.34411 0.18101 0.042 0.0
H1851 H 0.36345 0.15811 0.97655 0.0
H1852 H 0.46009 0.09783 0.99762 0.0
H1853 H 0.42979 0.12523 0.99837 0.0
C1854 C 0.80433 0.31299 0.97984 0.0
C1855 C 0.80368 0.29665 0.99653 0.0
C1856 C 0.82245 0.32761 0.97828 0.0
C1857 C 0.88089 0.33746 0.99314 0.0
H1858 H 0.86302 0.3995 0.9976 0.0
C1859 C 0.94498 0.40729 0.01085 0.0
C1860 C 0.94139 0.42828 0.0012 0.0
C1861 C 0.92874 0.39059 0.0091 0.0
C1862 C 0.86839 0.38233 0.9959 0.0
H1863 H 0.8223 0.28198 0.02379 0.0
H1864 H 0.85434 0.30723 0.02058 0.0
H1865 H 0.83447 0.37063 0.99516 0.0
H1866 H 0.91833 0.44818 0.9817 0.0
H1867 H 0.89036 0.41886 0.97789 0.0
H1868 H 0.91481 0.34907 0.99338 0.0
C1869 C 0.84062 0.30874 0.00888 0.0
C1870 C 0.85199 0.3658 0.9946 0.0
C1871 C 0.82232 0.29426 0.01065 0.0
C1872 C 0.92138 0.43223 0.98958 0.0
C1873 C 0.90532 0.41542 0.98748 0.0
C1874 C 0.89736 0.35404 0.99404 0.0
C1875 C 0.84048 0.32594 0.99313 0.0
C1876 C 0.85809 0.34325 0.99336 0.0
C1877 C 0.90872 0.3944 0.99732 0.0
C1878 C 0.89131 0.3767 0.99562 0.0
H1879 H 0.79051 0.31491 0.96833 0.0
H1880 H 0.82216 0.34058 0.96579 0.0
H1881 H 0.88594 0.32014 0.99209 0.0
H1882 H 0.96021 0.40385 0.02005 0.0
H1883 H 0.93179 0.37482 0.01729 0.0
C1884 C 0.73047 0.82414 0.01929 0.0
C1885 C 0.72732 0.80218 0.01208 0.0
C1886 C 0.71264 0.83926 0.01878 0.0
C1887 C 0.65769 0.84893 0.9919 0.0
H1888 H 0.65035 0.89235 0.03895 0.0
C1889 C 0.58088 0.90779 0.99818 0.0
C1890 C 0.58555 0.93023 0.00316 0.0
C1891 C 0.5978 0.89168 0.99938 0.0
C1892 C 0.6523 0.88042 0.02561 0.0
H1893 H 0.70351 0.77845 0.99876 0.0
H1894 H 0.6721 0.80468 0.99827 0.0
H1895 H 0.68041 0.86487 0.04132 0.0
H1896 H 0.61175 0.95328 0.01332 0.0
H1897 H 0.64114 0.92519 0.01539 0.0
H1898 H 0.62944 0.86448 0.9763 0.0
C1899 C 0.68832 0.81043 0.00403 0.0
C1900 C 0.66954 0.8647 0.02694 0.0
C1901 C 0.7062 0.79535 0.00448 0.0
C1902 C 0.60753 0.93619 0.0093 0.0
C1903 C 0.62436 0.92007 0.01066 0.0
C1904 C 0.64037 0.86458 0.99065 0.0
C1905 C 0.69136 0.83261 0.01107 0.0
C1906 C 0.67255 0.84886 0.01002 0.0
C1907 C 0.61967 0.89765 0.00578 0.0
C1908 C 0.63761 0.88059 0.00741 0.0
H1909 H 0.74677 0.82967 0.02508 0.0
H1910 H 0.71567 0.85628 0.024 0.0
H1911 H 0.65973 0.8372 0.97841 0.0
H1912 H 0.56416 0.90261 0.99335 0.0
H1913 H 0.59368 0.87449 0.99566 0.0
C1914 C 0.8222 0.70549 0.00782 0.0
C1915 C 0.80373 0.70246 0.9936 0.0
C1916 C 0.84069 0.69116 0.00666 0.0
C1917 C 0.85261 0.63375 0.99411 0.0
H1918 H 0.91536 0.6507 0.9924 0.0
C1919 C 0.92195 0.56741 0.98949 0.0
C1920 C 0.94209 0.57147 0.00085 0.0
C1921 C 0.90591 0.58422 0.98734 0.0
C1922 C 0.89793 0.64568 0.99322 0.0
H1923 H 0.79106 0.68322 0.96581 0.0
H1924 H 0.823 0.65786 0.96431 0.0
H1925 H 0.88636 0.6795 0.99057 0.0
H1926 H 0.9612 0.59614 0.01913 0.0
H1927 H 0.9328 0.6252 0.01629 0.0
H1928 H 0.86377 0.60018 0.99774 0.0
C1929 C 0.82304 0.6712 0.97643 0.0
C1930 C 0.88138 0.66218 0.99202 0.0
C1931 C 0.80474 0.68565 0.97738 0.0
C1932 C 0.94586 0.59261 0.01015 0.0
C1933 C 0.92962 0.60932 0.00836 0.0
C1934 C 0.86907 0.61732 0.9957 0.0
C1935 C 0.84088 0.67348 0.99142 0.0
C1936 C 0.85861 0.6563 0.99233 0.0
C1937 C 0.90944 0.60536 0.99689 0.0
C1938 C 0.89197 0.62302 0.99518 0.0
H1939 H 0.82191 0.71818 0.02059 0.0
H1940 H 0.85427 0.69316 0.01843 0.0
H1941 H 0.83511 0.62886 0.99476 0.0
H1942 H 0.91877 0.55136 0.98187 0.0
H1943 H 0.89084 0.58066 0.97795 0.0
C1944 C 0.32432 0.79553 0.98189 0.0
C1945 C 0.31 0.79165 0.99992 0.0
C1946 C 0.33823 0.81421 0.9816 0.0
C1947 C 0.36817 0.85063 0.01898 0.0
H1948 H 0.37712 0.88764 0.96703 0.0
C1949 C 0.44552 0.90712 0.00704 0.0
C1950 C 0.44104 0.92912 0.00042 0.0
C1951 C 0.42841 0.89122 0.00708 0.0
C1952 C 0.37468 0.87749 0.98168 0.0
H1953 H 0.29842 0.80432 0.0315 0.0
H1954 H 0.32307 0.83707 0.03115 0.0
H1955 H 0.34775 0.85909 0.96685 0.0
H1956 H 0.4153 0.95162 0.98814 0.0
H1957 H 0.38556 0.92371 0.98798 0.0
H1958 H 0.39537 0.86873 0.03367 0.0
C1959 C 0.32342 0.82565 0.01724 0.0
C1960 C 0.35799 0.86117 0.98154 0.0
C1961 C 0.30927 0.80709 0.01738 0.0
C1962 C 0.41925 0.93482 0.99347 0.0
C1963 C 0.40225 0.91886 0.99325 0.0
C1964 C 0.38504 0.86676 0.01902 0.0
C1965 C 0.33823 0.82917 0.99949 0.0
C1966 C 0.3547 0.84753 0.00015 0.0
C1967 C 0.40664 0.89698 0.00021 0.0
C1968 C 0.38851 0.88022 0.00032 0.0
H1969 H 0.32505 0.78385 0.96821 0.0
H1970 H 0.34962 0.81648 0.96781 0.0
H1971 H 0.36609 0.84015 0.03345 0.0
H1972 H 0.46212 0.90227 0.01257 0.0
H1973 H 0.43221 0.87436 0.01233 0.0
C1974 C 0.7075 0.20396 0.02435 0.0
C1975 C 0.72885 0.19681 0.01776 0.0
C1976 C 0.68923 0.18937 0.02314 0.0
C1977 C 0.67071 0.13772 0.99513 0.0
H1978 H 0.62615 0.13556 0.04189 0.0
C1979 C 0.60645 0.06668 0.0023 0.0
C1980 C 0.58414 0.0723 0.0075 0.0
C1981 C 0.62336 0.08273 0.00316 0.0
C1982 C 0.63832 0.13619 0.02858 0.0
H1983 H 0.7484 0.16924 0.00514 0.0
H1984 H 0.71661 0.14348 0.00335 0.0
H1985 H 0.65738 0.16183 0.04458 0.0
H1986 H 0.56219 0.09932 0.0177 0.0
H1987 H 0.5919 0.12738 0.0192 0.0
H1988 H 0.65185 0.11188 0.97929 0.0
C1989 C 0.71373 0.16036 0.00907 0.0
C1990 C 0.6562 0.15122 0.03011 0.0
C1991 C 0.73194 0.17497 0.01024 0.0
C1992 C 0.57917 0.09441 0.01355 0.0
C1993 C 0.59619 0.11046 0.01455 0.0
C1994 C 0.65291 0.12266 0.99365 0.0
C1995 C 0.69212 0.16743 0.01533 0.0
C1996 C 0.67271 0.152 0.01349 0.0
C1997 C 0.61845 0.10477 0.00932 0.0
C1998 C 0.63665 0.12159 0.01044 0.0
H1999 H 0.70489 0.22084 0.03019 0.0
H2000 H 0.67279 0.19539 0.0279 0.0
H2001 H 0.68286 0.13823 0.98181 0.0
H2002 H 0.61095 0.04986 0.99753 0.0
H2003 H 0.64041 0.07778 0.99931 0.0
C2004 C 0.49014 0.70756 0.81946 0.0
C2005 C 0.50763 0.70957 0.80405 0.0
C2006 C 0.48913 0.68923 0.83366 0.0
C2007 C 0.51315 0.6328 0.84441 0.0
H2008 H 0.49529 0.64635 0.90467 0.0
C2009 C 0.5036 0.56438 0.91139 0.0
C2010 C 0.51003 0.56973 0.93317 0.0
C2011 C 0.50292 0.58083 0.89499 0.0
C2012 C 0.50056 0.64227 0.88799 0.0
H2013 H 0.53742 0.6938 0.79084 0.0
H2014 H 0.53612 0.66195 0.81606 0.0
H2015 H 0.49473 0.67556 0.87693 0.0
H2016 H 0.52132 0.59652 0.95463 0.0
H2017 H 0.52067 0.625 0.926 0.0
H2018 H 0.51991 0.59969 0.85583 0.0
C2019 C 0.52285 0.67425 0.81692 0.0
C2020 C 0.49986 0.65898 0.87192 0.0
C2021 C 0.52366 0.69249 0.80248 0.0
C2022 C 0.51603 0.59184 0.9381 0.0
C2023 C 0.51556 0.60823 0.92166 0.0
C2024 C 0.51403 0.61609 0.86057 0.0
C2025 C 0.50583 0.67264 0.83304 0.0
C2026 C 0.50612 0.6545 0.8499 0.0
C2027 C 0.50884 0.60299 0.89992 0.0
C2028 C 0.50779 0.62064 0.88259 0.0
H2029 H 0.47746 0.72044 0.82081 0.0
H2030 H 0.47544 0.68828 0.84541 0.0
H2031 H 0.5179 0.62866 0.8276 0.0
H2032 H 0.49873 0.54754 0.90702 0.0
H2033 H 0.49736 0.57622 0.87854 0.0
C2034 C 0.33571 0.47883 0.78895 0.0
C2035 C 0.31387 0.48713 0.79095 0.0
C2036 C 0.35027 0.47932 0.80709 0.0
C2037 C 0.35905 0.50728 0.86108 0.0
H2038 H 0.40023 0.45819 0.87091 0.0
C2039 C 0.41666 0.50077 0.93829 0.0
C2040 C 0.43919 0.49543 0.93382 0.0
C2041 C 0.40045 0.49933 0.92158 0.0
C2042 C 0.38888 0.47206 0.8683 0.0
H2043 H 0.28982 0.50252 0.81303 0.0
H2044 H 0.31497 0.5029 0.84497 0.0
H2045 H 0.37352 0.45632 0.84037 0.0
H2046 H 0.46226 0.48407 0.90834 0.0
H2047 H 0.43402 0.48154 0.87938 0.0
H2048 H 0.37445 0.52291 0.88916 0.0
C2049 C 0.3211 0.4963 0.82941 0.0
C2050 C 0.37363 0.47104 0.85076 0.0
C2051 C 0.30662 0.49591 0.81121 0.0
C2052 C 0.4451 0.48845 0.91236 0.0
C2053 C 0.42889 0.48681 0.89578 0.0
C2054 C 0.37421 0.50822 0.87873 0.0
C2055 C 0.34313 0.48804 0.82756 0.0
C2056 C 0.3587 0.48875 0.84678 0.0
C2057 C 0.40643 0.49225 0.90019 0.0
C2058 C 0.38944 0.49072 0.88234 0.0
H2059 H 0.34158 0.47212 0.77332 0.0
H2060 H 0.36723 0.47318 0.80495 0.0
H2061 H 0.348 0.52135 0.85832 0.0
H2062 H 0.41156 0.50623 0.95463 0.0
H2063 H 0.3832 0.50351 0.92544 0.0
C2064 C 0.52254 0.29405 0.81182 0.0
C2065 C 0.51736 0.30146 0.79043 0.0
C2066 C 0.5213 0.30875 0.82978 0.0
C2067 C 0.49629 0.36276 0.84683 0.0
H2068 H 0.54199 0.36119 0.89257 0.0
C2069 C 0.5067 0.43316 0.91095 0.0
C2070 C 0.51106 0.42715 0.93307 0.0
C2071 C 0.50684 0.41711 0.89419 0.0
C2072 C 0.52895 0.36165 0.88007 0.0
H2073 H 0.50706 0.32966 0.77059 0.0
H2074 H 0.5052 0.35558 0.80184 0.0
H2075 H 0.54359 0.3346 0.86201 0.0
H2076 H 0.51898 0.39941 0.9548 0.0
H2077 H 0.51919 0.37139 0.92543 0.0
H2078 H 0.48184 0.39 0.86474 0.0
C2079 C 0.50982 0.3384 0.80498 0.0
C2080 C 0.52985 0.34641 0.86255 0.0
C2081 C 0.51102 0.32367 0.78707 0.0
C2082 C 0.51551 0.40465 0.93798 0.0
C2083 C 0.51578 0.3886 0.92114 0.0
C2084 C 0.49544 0.37803 0.86429 0.0
C2085 C 0.5149 0.33113 0.82658 0.0
C2086 C 0.51361 0.34688 0.84562 0.0
C2087 C 0.51142 0.39466 0.89905 0.0
C2088 C 0.51185 0.37777 0.88103 0.0
H2089 H 0.52752 0.27691 0.81468 0.0
H2090 H 0.52508 0.30251 0.84619 0.0
H2091 H 0.48325 0.36332 0.83433 0.0
H2092 H 0.50314 0.45029 0.9065 0.0
H2093 H 0.50368 0.42238 0.87732 0.0
C2094 C 0.70237 0.50263 0.7981 0.0
C2095 C 0.7224 0.49159 0.80374 0.0
C2096 C 0.68393 0.5021 0.81247 0.0
C2097 C 0.6725 0.49777 0.87138 0.0
H2098 H 0.61076 0.48566 0.85502 0.0
C2099 C 0.60398 0.48895 0.93755 0.0
C2100 C 0.58244 0.49721 0.93286 0.0
C2101 C 0.62028 0.48788 0.92099 0.0
C2102 C 0.62787 0.48941 0.85981 0.0
H2103 H 0.73813 0.46982 0.8279 0.0
H2104 H 0.70619 0.46928 0.85303 0.0
H2105 H 0.64019 0.48407 0.8268 0.0
H2106 H 0.56116 0.511 0.90712 0.0
H2107 H 0.58983 0.50982 0.87838 0.0
H2108 H 0.66046 0.50373 0.90411 0.0
C2109 C 0.70487 0.47861 0.83773 0.0
C2110 C 0.64468 0.4884 0.84365 0.0
C2111 C 0.72314 0.47897 0.82335 0.0
C2112 C 0.57757 0.50442 0.91124 0.0
C2113 C 0.59398 0.50362 0.89471 0.0
C2114 C 0.65573 0.49907 0.88742 0.0
C2115 C 0.68532 0.49064 0.83273 0.0
C2116 C 0.66718 0.49229 0.84939 0.0
C2117 C 0.61557 0.49535 0.89938 0.0
C2118 C 0.63322 0.49465 0.88195 0.0
H2119 H 0.70133 0.51253 0.78314 0.0
H2120 H 0.66901 0.51152 0.80827 0.0
H2121 H 0.68968 0.50127 0.87614 0.0
H2122 H 0.60819 0.48296 0.95396 0.0
H2123 H 0.63653 0.48094 0.92512 0.0
C2124 C 0.49222 0.29184 0.19183 0.0
C2125 C 0.51048 0.28834 0.20611 0.0
C2126 C 0.49201 0.30997 0.17735 0.0
C2127 C 0.51962 0.36406 0.1644 0.0
H2128 H 0.4969 0.35144 0.10552 0.0
C2129 C 0.50799 0.43279 0.09802 0.0
C2130 C 0.51265 0.42724 0.07585 0.0
C2131 C 0.50803 0.4164 0.11448 0.0
C2132 C 0.50353 0.35523 0.12179 0.0
H2133 H 0.5425 0.30138 0.21705 0.0
H2134 H 0.54243 0.33297 0.19139 0.0
H2135 H 0.49643 0.32239 0.13346 0.0
H2136 H 0.52153 0.40007 0.05377 0.0
H2137 H 0.52201 0.37164 0.08248 0.0
H2138 H 0.52742 0.39674 0.15238 0.0
C2139 C 0.52807 0.3219 0.19159 0.0
C2140 C 0.50293 0.33864 0.13798 0.0
C2141 C 0.52816 0.30382 0.20628 0.0
C2142 C 0.51762 0.40494 0.07061 0.0
C2143 C 0.51781 0.38859 0.08709 0.0
C2144 C 0.52033 0.38067 0.14813 0.0
C2145 C 0.5102 0.32491 0.1766 0.0
C2146 C 0.51087 0.34283 0.15953 0.0
C2147 C 0.51285 0.39406 0.10922 0.0
C2148 C 0.51229 0.37645 0.12661 0.0
H2149 H 0.47823 0.28029 0.1916 0.0
H2150 H 0.47768 0.31207 0.1665 0.0
H2151 H 0.52574 0.36793 0.18085 0.0
H2152 H 0.50398 0.44977 0.10267 0.0
H2153 H 0.50382 0.42119 0.13126 0.0
C2154 C 0.70303 0.49316 0.20966 0.0
C2155 C 0.72119 0.50783 0.20653 0.0
C2156 C 0.68472 0.49349 0.19512 0.0
C2157 C 0.67296 0.50455 0.13765 0.0
H2158 H 0.6101 0.50743 0.15389 0.0
C2159 C 0.60402 0.51079 0.07121 0.0
C2160 C 0.58341 0.50021 0.07521 0.0
C2161 C 0.62018 0.51221 0.08793 0.0
C2162 C 0.62756 0.50623 0.14906 0.0
H2163 H 0.73341 0.53558 0.18685 0.0
H2164 H 0.70182 0.53563 0.16119 0.0
H2165 H 0.63888 0.50923 0.18271 0.0
H2166 H 0.56368 0.48239 0.09962 0.0
H2167 H 0.5922 0.48396 0.12847 0.0
H2168 H 0.66201 0.50068 0.10423 0.0
C2169 C 0.70191 0.52377 0.17473 0.0
C2170 C 0.64398 0.50741 0.16559 0.0
C2171 C 0.72 0.52366 0.18938 0.0
C2172 C 0.57937 0.49083 0.09614 0.0
C2173 C 0.59568 0.49188 0.11273 0.0
C2174 C 0.6566 0.50297 0.12119 0.0
C2175 C 0.6844 0.50834 0.17714 0.0
C2176 C 0.6668 0.50679 0.15996 0.0
C2177 C 0.61628 0.5027 0.1089 0.0
C2178 C 0.63366 0.50398 0.12661 0.0
H2179 H 0.70347 0.48069 0.22261 0.0
H2180 H 0.67137 0.48141 0.19725 0.0
H2181 H 0.69049 0.50369 0.13296 0.0
H2182 H 0.60748 0.51843 0.05532 0.0
H2183 H 0.6356 0.5211 0.08444 0.0
C2184 C 0.50845 0.67492 0.22102 0.0
C2185 C 0.51353 0.6974 0.21735 0.0
C2186 C 0.5079 0.65989 0.20332 0.0
C2187 C 0.52753 0.65214 0.14554 0.0
H2188 H 0.48186 0.60606 0.1446 0.0
C2189 C 0.51454 0.59256 0.07078 0.0
C2190 C 0.51108 0.56991 0.07585 0.0
C2191 C 0.51455 0.6087 0.08756 0.0
C2192 C 0.49484 0.61871 0.14471 0.0
H2193 H 0.52214 0.7221 0.19267 0.0
H2194 H 0.52083 0.69596 0.16153 0.0
H2195 H 0.48239 0.63314 0.17467 0.0
H2196 H 0.50478 0.54662 0.10269 0.0
H2197 H 0.50487 0.57467 0.13175 0.0
H2198 H 0.5399 0.63765 0.11547 0.0
C2199 C 0.51754 0.68976 0.17805 0.0
C2200 C 0.49517 0.63423 0.16198 0.0
C2201 C 0.51814 0.70477 0.19581 0.0
C2202 C 0.50754 0.56385 0.09809 0.0
C2203 C 0.50742 0.57998 0.11479 0.0
C2204 C 0.52713 0.63664 0.1282 0.0
C2205 C 0.51236 0.66711 0.18157 0.0
C2206 C 0.51164 0.65104 0.16274 0.0
C2207 C 0.51093 0.60259 0.10975 0.0
C2208 C 0.51089 0.61963 0.12768 0.0
H2209 H 0.50495 0.66894 0.2376 0.0
H2210 H 0.50423 0.64254 0.20673 0.0
H2211 H 0.54062 0.66466 0.14572 0.0
H2212 H 0.51736 0.59787 0.05387 0.0
H2213 H 0.51712 0.62601 0.08311 0.0
C2214 C 0.30264 0.4779 0.18725 0.0
C2215 C 0.30323 0.49097 0.20656 0.0
C2216 C 0.32126 0.47672 0.17337 0.0
C2217 C 0.3716 0.50909 0.15883 0.0
H2218 H 0.38513 0.45694 0.12323 0.0
C2219 C 0.44609 0.50457 0.09782 0.0
C2220 C 0.44083 0.49676 0.07648 0.0
C2221 C 0.43041 0.50306 0.11488 0.0
C2222 C 0.38144 0.47162 0.13304 0.0
H2223 H 0.32427 0.51204 0.22711 0.0
H2224 H 0.35716 0.50931 0.20325 0.0
H2225 H 0.35682 0.45448 0.15233 0.0
H2226 H 0.41509 0.48118 0.05628 0.0
H2227 H 0.3877 0.4784 0.08628 0.0
H2228 H 0.3964 0.52613 0.13954 0.0
C2229 C 0.34205 0.50047 0.19854 0.0
C2230 C 0.36525 0.47025 0.14967 0.0
C2231 C 0.3233 0.50181 0.21236 0.0
C2232 C 0.41956 0.48746 0.07252 0.0
C2233 C 0.40398 0.48568 0.0897 0.0
C2234 C 0.38798 0.51037 0.14238 0.0
C2235 C 0.34104 0.48837 0.17859 0.0
C2236 C 0.35986 0.48908 0.16251 0.0
C2237 C 0.4093 0.49346 0.11101 0.0
C2238 C 0.39277 0.49175 0.12913 0.0
H2239 H 0.28755 0.469 0.18256 0.0
H2240 H 0.31978 0.46739 0.15808 0.0
H2241 H 0.36762 0.52403 0.16811 0.0
H2242 H 0.46232 0.51192 0.10135 0.0
H2243 H 0.43491 0.5091 0.13121 0.0
C2244 C 0.79448 0.49106 0.67983 0.0
C2245 C 0.79851 0.49575 0.70218 0.0
C2246 C 0.81218 0.49101 0.66465 0.0
C2247 C 0.87011 0.51164 0.65645 0.0
H2248 H 0.87163 0.46639 0.61056 0.0
C2249 C 0.94569 0.50028 0.59718 0.0
C2250 C 0.94054 0.49696 0.57468 0.0
C2251 C 0.92875 0.49988 0.6132 0.0
C2252 C 0.87134 0.47925 0.62317 0.0
H2253 H 0.82383 0.50409 0.72653 0.0
H2254 H 0.85494 0.50378 0.70011 0.0
H2255 H 0.84137 0.46618 0.63771 0.0
H2256 H 0.91343 0.49048 0.55147 0.0
H2257 H 0.88402 0.48983 0.57937 0.0
H2258 H 0.90016 0.52465 0.64186 0.0
C2259 C 0.83814 0.5004 0.69414 0.0
C2260 C 0.85398 0.47915 0.63871 0.0
C2261 C 0.82039 0.50046 0.7093 0.0
C2262 C 0.91807 0.49313 0.56862 0.0
C2263 C 0.90118 0.4926 0.58464 0.0
C2264 C 0.88753 0.51168 0.64093 0.0
C2265 C 0.83425 0.49562 0.67163 0.0
C2266 C 0.85307 0.49544 0.65545 0.0
C2267 C 0.90631 0.49599 0.6071 0.0
C2268 C 0.88824 0.49558 0.62403 0.0
H2269 H 0.77762 0.48746 0.67407 0.0
H2270 H 0.80852 0.48761 0.64741 0.0
H2271 H 0.86976 0.5246 0.66894 0.0
H2272 H 0.9628 0.50334 0.60247 0.0
H2273 H 0.93325 0.50237 0.63041 0.0
C2274 C 0.51783 0.80795 0.71087 0.0
C2275 C 0.51596 0.78587 0.70352 0.0
C2276 C 0.51708 0.82556 0.69567 0.0
C2277 C 0.49846 0.83931 0.63875 0.0
H2278 H 0.5394 0.88923 0.64478 0.0
C2279 C 0.51103 0.90408 0.56929 0.0
C2280 C 0.51294 0.92665 0.5754 0.0
C2281 C 0.5109 0.88733 0.58536 0.0
C2282 C 0.52766 0.87555 0.64301 0.0
H2283 H 0.51198 0.7645 0.67495 0.0
H2284 H 0.51091 0.79515 0.64825 0.0
H2285 H 0.54015 0.85922 0.67205 0.0
H2286 H 0.5162 0.94917 0.60341 0.0
H2287 H 0.51583 0.9199 0.63139 0.0
H2288 H 0.48607 0.85555 0.60965 0.0
C2289 C 0.51262 0.79905 0.66568 0.0
C2290 C 0.52809 0.85834 0.65865 0.0
C2291 C 0.51338 0.7815 0.68089 0.0
C2292 C 0.5147 0.932 0.59803 0.0
C2293 C 0.51463 0.91521 0.61411 0.0
C2294 C 0.49805 0.85649 0.62312 0.0
C2295 C 0.51442 0.82131 0.67288 0.0
C2296 C 0.51359 0.83994 0.65663 0.0
C2297 C 0.51271 0.89267 0.60796 0.0
C2298 C 0.51274 0.87474 0.62498 0.0
H2299 H 0.51978 0.81165 0.72832 0.0
H2300 H 0.51827 0.84249 0.70179 0.0
H2301 H 0.48676 0.8256 0.63691 0.0
H2302 H 0.50963 0.89926 0.55206 0.0
H2303 H 0.50969 0.87012 0.58004 0.0
C2304 C 0.21524 0.48313 0.69839 0.0
C2305 C 0.21446 0.5009 0.71352 0.0
C2306 C 0.20119 0.483 0.67986 0.0
C2307 C 0.16655 0.51853 0.64391 0.0
H2308 H 0.13085 0.4651 0.63529 0.0
C2309 C 0.10681 0.50618 0.56944 0.0
C2310 C 0.08512 0.49853 0.5746 0.0
C2311 C 0.12365 0.50633 0.58553 0.0
C2312 C 0.1407 0.48011 0.63753 0.0
H2313 H 0.19926 0.53292 0.72069 0.0
H2314 H 0.17483 0.53281 0.68817 0.0
H2315 H 0.15937 0.466 0.66441 0.0
H2316 H 0.06417 0.48478 0.60063 0.0
H2317 H 0.09372 0.4849 0.62869 0.0
H2318 H 0.14769 0.53272 0.61719 0.0
C2319 C 0.18623 0.51897 0.69067 0.0
C2320 C 0.15715 0.48056 0.65401 0.0
C2321 C 0.20007 0.51897 0.70932 0.0
C2322 C 0.08067 0.49088 0.59615 0.0
C2323 C 0.09761 0.49079 0.61217 0.0
C2324 C 0.15028 0.518 0.62726 0.0
C2325 C 0.18633 0.50078 0.67601 0.0
C2326 C 0.17006 0.49985 0.6575 0.0
C2327 C 0.11922 0.4986 0.60701 0.0
C2328 C 0.13704 0.49886 0.62409 0.0
H2329 H 0.22609 0.46894 0.70135 0.0
H2330 H 0.2017 0.46886 0.6687 0.0
H2331 H 0.17635 0.53358 0.64622 0.0
H2332 H 0.11078 0.51229 0.55302 0.0
H2333 H 0.14021 0.51231 0.5811 0.0
C2334 C 0.50907 0.20455 0.69665 0.0
C2335 C 0.51951 0.19835 0.71663 0.0
C2336 C 0.50914 0.19005 0.67845 0.0
C2337 C 0.5114 0.13054 0.66642 0.0
H2338 H 0.52615 0.14756 0.60624 0.0
C2339 C 0.52119 0.06474 0.59794 0.0
C2340 C 0.5139 0.06999 0.57644 0.0
C2341 C 0.52191 0.0811 0.61438 0.0
C2342 C 0.52164 0.14259 0.62289 0.0
H2343 H 0.53963 0.17278 0.73255 0.0
H2344 H 0.5393 0.14742 0.70105 0.0
H2345 H 0.52763 0.17545 0.63579 0.0
H2346 H 0.50142 0.09659 0.55542 0.0
H2347 H 0.50204 0.12499 0.58428 0.0
H2348 H 0.50488 0.09794 0.65376 0.0
C2349 C 0.53078 0.16331 0.69959 0.0
C2350 C 0.52259 0.15857 0.63979 0.0
C2351 C 0.53091 0.17783 0.71762 0.0
C2352 C 0.50726 0.092 0.57179 0.0
C2353 C 0.50774 0.10834 0.58832 0.0
C2354 C 0.51018 0.11468 0.64955 0.0
C2355 C 0.51951 0.16905 0.67999 0.0
C2356 C 0.51776 0.15259 0.66175 0.0
C2357 C 0.51508 0.1031 0.60985 0.0
C2358 C 0.51556 0.12038 0.6276 0.0
H2359 H 0.50006 0.22018 0.69537 0.0
H2360 H 0.5003 0.19484 0.66351 0.0
H2361 H 0.50718 0.12558 0.68316 0.0
H2362 H 0.5267 0.04802 0.60205 0.0
H2363 H 0.52813 0.07651 0.63061 0.0
C2364 C 0.81948 0.48996 0.29972 0.0
C2365 C 0.79755 0.49438 0.30682 0.0
C2366 C 0.83736 0.49118 0.31471 0.0
C2367 C 0.85299 0.51521 0.36916 0.0
H2368 H 0.9008 0.47138 0.36724 0.0
C2369 C 0.91797 0.50564 0.43931 0.0
C2370 C 0.94053 0.50224 0.4333 0.0
C2371 C 0.90102 0.50529 0.42334 0.0
C2372 C 0.88771 0.48389 0.36781 0.0
H2373 H 0.77669 0.50326 0.33473 0.0
H2374 H 0.8078 0.50506 0.36112 0.0
H2375 H 0.87017 0.4693 0.34045 0.0
H2376 H 0.96284 0.49585 0.40559 0.0
H2377 H 0.93317 0.49526 0.37773 0.0
H2378 H 0.87039 0.52962 0.39669 0.0
C2379 C 0.81141 0.50105 0.344 0.0
C2380 C 0.87016 0.48272 0.35246 0.0
C2381 C 0.79358 0.49987 0.32899 0.0
C2382 C 0.94569 0.49858 0.41085 0.0
C2383 C 0.92867 0.49809 0.39488 0.0
C2384 C 0.87048 0.51633 0.38454 0.0
C2385 C 0.83355 0.49681 0.33703 0.0
C2386 C 0.85251 0.4983 0.35302 0.0
C2387 C 0.90615 0.50141 0.40096 0.0
C2388 C 0.88797 0.50062 0.38412 0.0
H2389 H 0.82282 0.48567 0.28261 0.0
H2390 H 0.8542 0.48804 0.30872 0.0
H2391 H 0.83992 0.52775 0.36981 0.0
H2392 H 0.91332 0.50854 0.45641 0.0
H2393 H 0.8838 0.50766 0.42859 0.0
C2394 C 0.52307 0.79443 0.3117 0.0
C2395 C 0.50922 0.79932 0.29344 0.0
C2396 C 0.52361 0.8087 0.33012 0.0
C2397 C 0.51627 0.86721 0.34356 0.0
H2398 H 0.50811 0.84905 0.40461 0.0
C2399 C 0.50566 0.93234 0.41259 0.0
C2400 C 0.51445 0.92777 0.43368 0.0
C2401 C 0.50537 0.91587 0.39622 0.0
C2402 C 0.51082 0.8544 0.3877 0.0
H2403 H 0.48381 0.82211 0.28107 0.0
H2404 H 0.48533 0.84716 0.31274 0.0
H2405 H 0.50713 0.82104 0.37514 0.0
H2406 H 0.5301 0.90239 0.45408 0.0
H2407 H 0.53037 0.87389 0.42529 0.0
H2408 H 0.52058 0.90033 0.35576 0.0
C2409 C 0.49594 0.83248 0.31269 0.0
C2410 C 0.51015 0.83832 0.37085 0.0
C2411 C 0.49517 0.81816 0.29452 0.0
C2412 C 0.52304 0.90638 0.43802 0.0
C2413 C 0.52308 0.88998 0.42152 0.0
C2414 C 0.51729 0.88319 0.36034 0.0
C2415 C 0.51047 0.82817 0.33045 0.0
C2416 C 0.51252 0.84468 0.34861 0.0
C2417 C 0.51423 0.89449 0.40036 0.0
C2418 C 0.51422 0.87711 0.38264 0.0
H2419 H 0.53414 0.78011 0.3114 0.0
H2420 H 0.53495 0.80502 0.34366 0.0
H2421 H 0.5185 0.87249 0.32654 0.0
H2422 H 0.49863 0.94856 0.40881 0.0
H2423 H 0.4979 0.91989 0.38037 0.0
C2424 C 0.23111 0.49287 0.32958 0.0
C2425 C 0.22791 0.4998 0.3077 0.0
C2426 C 0.21315 0.49293 0.34441 0.0
C2427 C 0.15696 0.51725 0.35357 0.0
H2428 H 0.151 0.46829 0.3951 0.0
C2429 C 0.08013 0.50633 0.41131 0.0
C2430 C 0.08504 0.50104 0.43348 0.0
C2431 C 0.09704 0.50606 0.39528 0.0
C2432 C 0.15255 0.48214 0.3837 0.0
H2433 H 0.20395 0.51237 0.28382 0.0
H2434 H 0.17232 0.51217 0.30961 0.0
H2435 H 0.18154 0.46803 0.36828 0.0
H2436 H 0.11164 0.49123 0.45613 0.0
H2437 H 0.14099 0.49082 0.4282 0.0
H2438 H 0.12786 0.53128 0.36904 0.0
C2439 C 0.18867 0.50694 0.3155 0.0
C2440 C 0.17005 0.48203 0.36837 0.0
C2441 C 0.20668 0.50693 0.30069 0.0
C2442 C 0.10722 0.49545 0.43924 0.0
C2443 C 0.12404 0.49504 0.42321 0.0
C2444 C 0.13937 0.5173 0.36886 0.0
C2445 C 0.19169 0.49987 0.33751 0.0
C2446 C 0.1726 0.49969 0.35327 0.0
C2447 C 0.11914 0.50032 0.40108 0.0
C2448 C 0.13714 0.49985 0.3842 0.0
H2449 H 0.24748 0.48739 0.33521 0.0
H2450 H 0.21614 0.48774 0.36134 0.0
H2451 H 0.15861 0.53123 0.34233 0.0
H2452 H 0.06325 0.51077 0.4063 0.0
H2453 H 0.09278 0.51007 0.3783 0.0
C2454 C 0.52506 0.19095 0.30004 0.0
C2455 C 0.52078 0.21279 0.30712 0.0
C2456 C 0.52462 0.17332 0.31522 0.0
C2457 C 0.52939 0.1614 0.37508 0.0
H2458 H 0.5004 0.10553 0.35993 0.0
C2459 C 0.51221 0.09378 0.44062 0.0
C2460 C 0.51543 0.07134 0.4346 0.0
C2461 C 0.51301 0.11066 0.4247 0.0
C2462 C 0.50882 0.12091 0.36433 0.0
H2463 H 0.51266 0.23369 0.33517 0.0
H2464 H 0.51178 0.20294 0.3618 0.0
H2465 H 0.5017 0.13565 0.33277 0.0
H2466 H 0.52196 0.04916 0.40692 0.0
H2467 H 0.52362 0.07866 0.37921 0.0
H2468 H 0.53659 0.14674 0.40657 0.0
C2469 C 0.5157 0.19932 0.34466 0.0
C2470 C 0.50954 0.13819 0.34876 0.0
C2471 C 0.51607 0.21689 0.32946 0.0
C2472 C 0.51931 0.06622 0.41219 0.0
C2473 C 0.52017 0.08315 0.39625 0.0
C2474 C 0.52872 0.14414 0.3906 0.0
C2475 C 0.52 0.17731 0.33774 0.0
C2476 C 0.5197 0.15869 0.35401 0.0
C2477 C 0.51712 0.10559 0.40233 0.0
C2478 C 0.51829 0.12372 0.3855 0.0
H2479 H 0.52883 0.18752 0.28282 0.0
H2480 H 0.52824 0.15662 0.3094 0.0
H2481 H 0.5377 0.17683 0.37952 0.0
H2482 H 0.50897 0.0984 0.45766 0.0
H2483 H 0.51016 0.1277 0.42992 0.0
C2484 C 0.71627 0.80335 0.50501 0.0
C2485 C 0.70952 0.78379 0.49427 0.0
C2486 C 0.70211 0.82187 0.50536 0.0
C2487 C 0.65242 0.84601 0.47746 0.0
H2488 H 0.64725 0.88041 0.53165 0.0
C2489 C 0.57994 0.90668 0.49437 0.0
C2490 C 0.58554 0.92777 0.5029 0.0
C2491 C 0.59617 0.89007 0.49263 0.0
C2492 C 0.64875 0.87109 0.51635 0.0
H2493 H 0.6831 0.7676 0.47571 0.0
H2494 H 0.6579 0.79979 0.47674 0.0
H2495 H 0.67345 0.8492 0.52998 0.0
H2496 H 0.61251 0.94798 0.51639 0.0
H2497 H 0.64091 0.91866 0.51358 0.0
H2498 H 0.62719 0.86758 0.46412 0.0
C2499 C 0.67426 0.80117 0.48444 0.0
C2500 C 0.66376 0.85327 0.51535 0.0
C2501 C 0.68853 0.78272 0.48397 0.0
C2502 C 0.60771 0.9319 0.50972 0.0
C2503 C 0.62392 0.91514 0.50821 0.0
C2504 C 0.63728 0.8637 0.47854 0.0
C2505 C 0.68091 0.82096 0.49514 0.0
C2506 C 0.66562 0.84042 0.49594 0.0
C2507 C 0.61827 0.89414 0.49957 0.0
C2508 C 0.6352 0.87626 0.49805 0.0
H2509 H 0.73241 0.80436 0.5132 0.0
H2510 H 0.70783 0.83692 0.51352 0.0
H2511 H 0.65378 0.83673 0.46213 0.0
H2512 H 0.56304 0.90301 0.48881 0.0
H2513 H 0.59137 0.87392 0.48611 0.0
C2514 C 0.71597 0.19524 0.50246 0.0
C2515 C 0.709 0.21549 0.5117 0.0
C2516 C 0.70166 0.17682 0.50269 0.0
C2517 C 0.65088 0.15471 0.53031 0.0
H2518 H 0.64743 0.11671 0.47841 0.0
C2519 C 0.57915 0.09238 0.51555 0.0
C2520 C 0.58504 0.07091 0.50823 0.0
C2521 C 0.59524 0.1092 0.51674 0.0
C2522 C 0.64843 0.12704 0.4931 0.0
H2523 H 0.682 0.23295 0.52814 0.0
H2524 H 0.65659 0.20091 0.52814 0.0
H2525 H 0.67361 0.14798 0.47887 0.0
H2526 H 0.61243 0.05026 0.49635 0.0
H2527 H 0.64057 0.07987 0.49827 0.0
H2528 H 0.62525 0.13403 0.54426 0.0
C2529 C 0.67322 0.19895 0.52117 0.0
C2530 C 0.66343 0.14492 0.4934 0.0
C2531 C 0.68762 0.21731 0.52105 0.0
C2532 C 0.60739 0.06661 0.50213 0.0
C2533 C 0.62346 0.08355 0.5031 0.0
C2534 C 0.63577 0.13695 0.52993 0.0
C2535 C 0.68009 0.17848 0.51201 0.0
C2536 C 0.66471 0.15905 0.51196 0.0
C2537 C 0.61751 0.10497 0.51045 0.0
C2538 C 0.63431 0.12306 0.51127 0.0
H2539 H 0.73242 0.1936 0.49504 0.0
H2540 H 0.70756 0.16124 0.49572 0.0
H2541 H 0.65176 0.16501 0.54503 0.0
H2542 H 0.56211 0.09621 0.52051 0.0
H2543 H 0.59018 0.12564 0.52226 0.0
C2544 C 0.80841 0.69144 0.49033 0.0
C2545 C 0.809 0.707 0.50769 0.0
C2546 C 0.82256 0.67292 0.49073 0.0
C2547 C 0.85745 0.63799 0.52677 0.0
H2548 H 0.89466 0.63052 0.47456 0.0
C2549 C 0.9193 0.56496 0.51495 0.0
C2550 C 0.94094 0.57079 0.50769 0.0
C2551 C 0.90219 0.58078 0.51527 0.0
C2552 C 0.88438 0.63247 0.48923 0.0
H2553 H 0.82371 0.71502 0.53953 0.0
H2554 H 0.84838 0.68249 0.54033 0.0
H2555 H 0.8651 0.65876 0.4747 0.0
H2556 H 0.96168 0.59773 0.49515 0.0
H2557 H 0.93158 0.62541 0.4956 0.0
H2558 H 0.87696 0.61187 0.5414 0.0
C2559 C 0.83707 0.68463 0.52643 0.0
C2560 C 0.86735 0.6484 0.48922 0.0
C2561 C 0.82312 0.70326 0.52592 0.0
C2562 C 0.94519 0.59279 0.5009 0.0
C2563 C 0.92797 0.60855 0.50099 0.0
C2564 C 0.87433 0.62189 0.5267 0.0
C2565 C 0.83726 0.66959 0.50862 0.0
C2566 C 0.85392 0.65144 0.50807 0.0
C2567 C 0.90635 0.60264 0.50813 0.0
C2568 C 0.88809 0.6192 0.50801 0.0
H2569 H 0.7977 0.6941 0.47607 0.0
H2570 H 0.82235 0.66142 0.47689 0.0
H2571 H 0.84724 0.64004 0.54147 0.0
H2572 H 0.91555 0.54817 0.52042 0.0
H2573 H 0.88561 0.57583 0.52074 0.0
C2574 C 0.32186 0.79477 0.51079 0.0
C2575 C 0.30308 0.79754 0.49692 0.0
C2576 C 0.34034 0.80901 0.50893 0.0
C2577 C 0.35241 0.86601 0.495 0.0
H2578 H 0.41494 0.84832 0.49254 0.0
C2579 C 0.42248 0.93151 0.48919 0.0
C2580 C 0.44259 0.92732 0.50054 0.0
C2581 C 0.40627 0.91484 0.48715 0.0
C2582 C 0.39758 0.85355 0.49355 0.0
H2583 H 0.28977 0.8163 0.46911 0.0
H2584 H 0.32173 0.84157 0.46644 0.0
H2585 H 0.38558 0.81984 0.49155 0.0
H2586 H 0.46153 0.90257 0.51886 0.0
H2587 H 0.43283 0.87376 0.51621 0.0
H2588 H 0.36403 0.8995 0.49804 0.0
C2589 C 0.32201 0.82847 0.47879 0.0
C2590 C 0.38083 0.83723 0.49282 0.0
C2591 C 0.30371 0.81408 0.48043 0.0
C2592 C 0.4462 0.90619 0.50988 0.0
C2593 C 0.4298 0.88963 0.50821 0.0
C2594 C 0.36909 0.88227 0.49612 0.0
C2595 C 0.34023 0.82637 0.49335 0.0
C2596 C 0.35813 0.84338 0.49347 0.0
C2597 C 0.40961 0.89373 0.4968 0.0
C2598 C 0.39191 0.87629 0.49536 0.0
H2599 H 0.32186 0.78233 0.52379 0.0
H2600 H 0.3542 0.80718 0.52042 0.0
H2601 H 0.33499 0.87111 0.4959 0.0
H2602 H 0.41941 0.94756 0.48153 0.0
H2603 H 0.39119 0.91849 0.47781 0.0
C2604 C 0.2071 0.29575 0.49459 0.0
C2605 C 0.22791 0.30245 0.50306 0.0
C2606 C 0.18894 0.31049 0.4948 0.0
C2607 C 0.16878 0.36196 0.52207 0.0
H2608 H 0.12874 0.36548 0.47151 0.0
C2609 C 0.10657 0.43409 0.50971 0.0
C2610 C 0.08463 0.42861 0.50307 0.0
C2611 C 0.12335 0.41789 0.51007 0.0
C2612 C 0.13965 0.36448 0.48584 0.0
H2613 H 0.24663 0.32938 0.5181 0.0
H2614 H 0.21507 0.35543 0.51813 0.0
H2615 H 0.15964 0.33874 0.47126 0.0
H2616 H 0.06316 0.40178 0.49144 0.0
H2617 H 0.09264 0.37347 0.49198 0.0
H2618 H 0.14902 0.388 0.53644 0.0
C2619 C 0.21248 0.33876 0.51172 0.0
C2620 C 0.15732 0.34917 0.48572 0.0
C2621 C 0.23057 0.32398 0.51157 0.0
C2622 C 0.07987 0.40654 0.49671 0.0
C2623 C 0.09675 0.39036 0.49689 0.0
C2624 C 0.15122 0.37734 0.52212 0.0
C2625 C 0.19142 0.33215 0.50343 0.0
C2626 C 0.17219 0.34787 0.50378 0.0
C2627 C 0.11862 0.39589 0.50366 0.0
C2628 C 0.13659 0.37887 0.50394 0.0
H2629 H 0.20481 0.27914 0.48792 0.0
H2630 H 0.1729 0.30481 0.48849 0.0
H2631 H 0.17965 0.36107 0.53643 0.0
H2632 H 0.11083 0.45089 0.5148 0.0
H2633 H 0.14012 0.42266 0.51513 0.0
C2634 C 0.30234 0.18155 0.52505 0.0
C2635 C 0.30323 0.20067 0.51163 0.0
C2636 C 0.32052 0.16702 0.52607 0.0
C2637 C 0.38048 0.16012 0.51625 0.0
H2638 H 0.36405 0.09921 0.5018 0.0
C2639 C 0.4467 0.092 0.49894 0.0
C2640 C 0.44208 0.07033 0.50653 0.0
C2641 C 0.43032 0.10859 0.50007 0.0
C2642 C 0.36893 0.11603 0.50622 0.0
H2643 H 0.3244 0.22036 0.48994 0.0
H2644 H 0.35654 0.19497 0.49209 0.0
H2645 H 0.33506 0.12762 0.50437 0.0
H2646 H 0.41688 0.04913 0.52164 0.0
H2647 H 0.38855 0.07818 0.52421 0.0
H2648 H 0.41434 0.14847 0.51855 0.0
C2649 C 0.34161 0.19127 0.50165 0.0
C2650 C 0.35232 0.1323 0.5076 0.0
C2651 C 0.32328 0.20578 0.50046 0.0
C2652 C 0.42084 0.0656 0.51539 0.0
C2653 C 0.40457 0.08226 0.51679 0.0
C2654 C 0.39714 0.14374 0.51516 0.0
C2655 C 0.34006 0.17143 0.5139 0.0
C2656 C 0.35793 0.15445 0.51268 0.0
C2657 C 0.40907 0.10393 0.50905 0.0
C2658 C 0.39153 0.12148 0.51016 0.0
H2659 H 0.28729 0.17747 0.53426 0.0
H2660 H 0.31912 0.152 0.53594 0.0
H2661 H 0.38515 0.17711 0.52025 0.0
H2662 H 0.46289 0.09609 0.49187 0.0
H2663 H 0.43424 0.12498 0.49361 0.0
C2664 C 0.82328 0.29671 0.48273 0.0
C2665 C 0.8089 0.29268 0.50068 0.0
C2666 C 0.83707 0.31547 0.48258 0.0
C2667 C 0.86662 0.35189 0.52023 0.0
H2668 H 0.87587 0.38883 0.46829 0.0
C2669 C 0.94439 0.4077 0.50822 0.0
C2670 C 0.94022 0.42966 0.50126 0.0
C2671 C 0.92708 0.39203 0.50846 0.0
C2672 C 0.87334 0.37872 0.48294 0.0
H2673 H 0.79709 0.30515 0.53226 0.0
H2674 H 0.82154 0.33804 0.53215 0.0
H2675 H 0.84645 0.36037 0.468 0.0
H2676 H 0.91477 0.45233 0.48871 0.0
H2677 H 0.88466 0.42483 0.48894 0.0
H2678 H 0.89379 0.36994 0.53502 0.0
C2679 C 0.82203 0.32668 0.5182 0.0
C2680 C 0.85662 0.36244 0.48274 0.0
C2681 C 0.808 0.30803 0.5182 0.0
C2682 C 0.9185 0.43556 0.49428 0.0
C2683 C 0.90128 0.41983 0.49428 0.0
C2684 C 0.8835 0.368 0.52034 0.0
C2685 C 0.83688 0.33036 0.50052 0.0
C2686 C 0.85324 0.34879 0.50132 0.0
C2687 C 0.90539 0.39799 0.5015 0.0
C2688 C 0.8871 0.38141 0.50163 0.0
H2689 H 0.82413 0.2851 0.469 0.0
H2690 H 0.84851 0.31786 0.46885 0.0
H2691 H 0.86447 0.3414 0.53468 0.0
H2692 H 0.96093 0.4027 0.5138 0.0
H2693 H 0.93067 0.37519 0.5139 0.0
C2694 C 0.20691 0.70403 0.52305 0.0
C2695 C 0.22853 0.69719 0.51707 0.0
C2696 C 0.18898 0.68902 0.52185 0.0
C2697 C 0.17206 0.63627 0.49489 0.0
H2698 H 0.12669 0.6346 0.5409 0.0
C2699 C 0.10775 0.56505 0.50205 0.0
C2700 C 0.08538 0.57084 0.50674 0.0
C2701 C 0.12471 0.58106 0.50299 0.0
C2702 C 0.1391 0.63506 0.5278 0.0
H2703 H 0.24891 0.66975 0.50548 0.0
H2704 H 0.21772 0.64328 0.50367 0.0
H2705 H 0.15747 0.66137 0.54351 0.0
H2706 H 0.06336 0.59808 0.5162 0.0
H2707 H 0.09309 0.62604 0.5178 0.0
H2708 H 0.15384 0.6098 0.47933 0.0
C2709 C 0.21437 0.66022 0.50893 0.0
C2710 C 0.15672 0.65038 0.52929 0.0
C2711 C 0.23223 0.67525 0.5101 0.0
C2712 C 0.08039 0.59305 0.5124 0.0
C2713 C 0.09742 0.60904 0.51348 0.0
C2714 C 0.15451 0.62092 0.49346 0.0
C2715 C 0.1925 0.66697 0.51464 0.0
C2716 C 0.17347 0.65106 0.51291 0.0
C2717 C 0.11975 0.60321 0.50876 0.0
C2718 C 0.13793 0.62005 0.50996 0.0
H2719 H 0.20382 0.72098 0.52846 0.0
H2720 H 0.17233 0.6948 0.52616 0.0
H2721 H 0.18443 0.63666 0.48177 0.0
H2722 H 0.11224 0.54813 0.49759 0.0
H2723 H 0.14181 0.57601 0.49951 0.0
loop_
_geom_bond_atom_site_label_1
_geom_bond_atom_site_label_2
_geom_bond_distance
_geom_bond_site_symmetry_2
_ccdc_geom_bond_type
H0 C3 0.929 . S
H1 C6 0.929 . S
H2 C8 0.930 . S
C3 H0 0.929 . S
C3 C4 1.398 . S
C3 C5 1.396 . S
C4 C3 1.398 . S
C4 C8 1.407 . S
C5 C3 1.396 . S
C5 C6 1.394 . S
C6 H1 0.929 . S
C6 C5 1.394 . S
C6 C7 1.382 . S
C7 C6 1.382 . S
C7 C8 1.392 . S
C7 N9 1.420 . S
C8 H2 0.930 . S
C8 C4 1.407 . S
C8 C7 1.392 . S
N9 C7 1.420 . S
N9 C10 1.244 . S
C10 N9 1.244 . S
H11 C14 0.929 . S
H12 C17 0.929 . S
H13 C19 0.930 . S
C14 H11 0.929 . S
C14 C15 1.395 1_545 S
C14 C16 1.395 1_545 S
C15 C14 1.395 1_565 S
C15 C19 1.413 . S
C16 C14 1.395 1_565 S
C16 C17 1.396 . S
C17 H12 0.929 . S
C17 C16 1.396 . S
C17 C18 1.382 . S
C18 C17 1.382 . S
C18 C19 1.392 . S
C18 N20 1.420 . S
C19 H13 0.930 . S
C19 C15 1.413 . S
C19 C18 1.392 . S
N20 C18 1.420 . S
N20 C21 1.232 1_565 S
C21 N20 1.232 1_545 S
H22 C25 0.929 . S
H23 C28 0.929 . S
H24 C30 0.930 . S
C25 H22 0.929 . S
C25 C26 1.398 . S
C25 C27 1.396 . S
C26 C25 1.398 . S
C26 C30 1.407 . S
C27 C25 1.396 . S
C27 C28 1.394 . S
C28 H23 0.929 . S
C28 C27 1.394 . S
C28 C29 1.382 . S
C29 C28 1.382 . S
C29 C30 1.392 . S
C29 N31 1.420 . S
C30 H24 0.930 . S
C30 C26 1.407 . S
C30 C29 1.392 . S
N31 C29 1.420 . S
N31 C32 1.244 . S
C32 N31 1.244 . S
H33 C36 0.929 . S
H34 C39 0.929 . S
H35 C41 0.930 . S
C36 H33 0.929 . S
C36 C37 1.395 1_545 S
C36 C38 1.395 1_545 S
C37 C36 1.395 1_565 S
C37 C41 1.413 . S
C38 C36 1.395 1_565 S
C38 C39 1.396 . S
C39 H34 0.929 . S
C39 C38 1.396 . S
C39 C40 1.382 . S
C40 C39 1.382 . S
C40 C41 1.392 . S
C40 N42 1.420 . S
C41 H35 0.930 . S
C41 C37 1.413 . S
C41 C40 1.392 . S
N42 C40 1.420 . S
N42 C43 1.232 1_565 S
C43 N42 1.232 1_545 S
H44 C47 0.929 . S
H45 C50 0.929 . S
H46 C52 0.930 . S
C47 H44 0.929 . S
C47 C48 1.398 . S
C47 C49 1.396 . S
C48 C47 1.398 . S
C48 C52 1.407 . S
C49 C47 1.396 . S
C49 C50 1.394 . S
C50 H45 0.929 . S
C50 C49 1.394 . S
C50 C51 1.382 . S
C51 C50 1.382 . S
C51 C52 1.392 . S
C51 N53 1.420 . S
C52 H46 0.930 . S
C52 C48 1.407 . S
C52 C51 1.392 . S
N53 C51 1.420 . S
N53 C54 1.244 . S
C54 N53 1.244 . S
H55 C58 0.936 . S
H56 C61 0.929 . S
H57 C63 0.930 . S
C58 H55 0.936 . S
C58 C59 1.395 1_565 S
C58 C60 1.393 1_565 S
C59 C58 1.395 1_545 S
C59 C63 1.407 . S
C60 C58 1.393 1_545 S
C60 C61 1.394 . S
C61 H56 0.929 . S
C61 C60 1.394 . S
C61 C62 1.382 . S
C62 C61 1.382 . S
C62 C63 1.392 . S
C62 N64 1.420 . S
C63 H57 0.930 . S
C63 C59 1.407 . S
C63 C62 1.392 . S
N64 C62 1.420 . S
N64 C65 1.257 . S
C65 N64 1.257 . S
H66 C69 0.929 . S
H67 C72 0.929 . S
H68 C74 0.930 . S
C69 H66 0.929 . S
C69 C70 1.398 . S
C69 C71 1.396 . S
C70 C69 1.398 . S
C70 C74 1.407 . S
C71 C69 1.396 . S
C71 C72 1.394 . S
C72 H67 0.929 . S
C72 C71 1.394 . S
C72 C73 1.382 . S
C73 C72 1.382 . S
C73 C74 1.392 . S
C73 N75 1.420 . S
C74 H68 0.930 . S
C74 C70 1.407 . S
C74 C73 1.392 . S
N75 C73 1.420 . S
N75 C76 1.244 . S
C76 N75 1.244 . S
H77 C80 0.929 . S
H78 C83 0.929 . S
H79 C85 0.930 . S
C80 H77 0.929 . S
C80 C81 1.400 . S
C80 C82 1.399 . S
C81 C80 1.400 . S
C81 C85 1.405 1_545 S
C82 C80 1.399 . S
C82 C83 1.389 1_545 S
C83 H78 0.929 . S
C83 C82 1.389 1_565 S
C83 C84 1.382 . S
C84 C83 1.382 . S
C84 C85 1.392 . S
C84 N86 1.420 . S
C85 H79 0.930 . S
C85 C81 1.405 1_565 S
C85 C84 1.392 . S
N86 C84 1.420 . S
N86 C87 1.244 1_565 S
C87 N86 1.244 1_545 S
H88 C91 0.929 . S
H89 C94 0.926 1_556 S
H90 C96 0.931 1_556 S
C91 H88 0.929 . S
C91 C92 1.398 . S
C91 C93 1.396 . S
C92 C91 1.398 . S
C92 C96 1.407 . S
C93 C91 1.396 . S
C93 C94 1.400 . S
C94 H89 0.926 1_554 S
C94 C93 1.400 . S
C94 C95 1.379 1_554 S
C95 C94 1.379 1_556 S
C95 C96 1.391 1_556 S
C95 N97 1.426 . S
C96 H90 0.931 1_554 S
C96 C92 1.407 . S
C96 C95 1.391 1_554 S
N97 C95 1.426 . S
N97 C98 1.244 1_556 S
C98 N97 1.244 1_554 S
H99 C102 0.927 1_556 S
H100 C105 0.929 . S
H101 C107 0.930 . S
C102 H99 0.927 1_554 S
C102 C103 1.398 . S
C102 C104 1.396 . S
C103 C102 1.398 . S
C103 C107 1.407 . S
C104 C102 1.396 . S
C104 C105 1.394 . S
C105 H100 0.929 . S
C105 C104 1.394 . S
C105 C106 1.382 . S
C106 C105 1.382 . S
C106 C107 1.392 . S
C106 N108 1.420 . S
C107 H101 0.930 . S
C107 C103 1.407 . S
C107 C106 1.392 . S
N108 C106 1.420 . S
N108 C109 1.244 . S
C109 N108 1.244 . S
H110 C113 0.929 . S
H111 C116 0.925 1_556 S
H112 C118 0.935 . S
C113 H110 0.929 . S
C113 C114 1.398 . S
C113 C115 1.396 . S
C114 C113 1.398 . S
C114 C118 1.402 1_554 S
C115 C113 1.396 . S
C115 C116 1.398 . S
C116 H111 0.925 1_554 S
C116 C115 1.398 . S
C116 C117 1.379 1_554 S
C117 C116 1.379 1_556 S
C117 C118 1.392 . S
C117 N119 1.428 . S
C118 H112 0.935 . S
C118 C114 1.402 1_556 S
C118 C117 1.392 . S
N119 C117 1.428 . S
N119 C120 1.244 1_556 S
C120 N119 1.244 1_554 S
H121 C124 0.929 1_556 S
H122 C127 0.929 . S
H123 C129 0.930 . S
C124 H121 0.929 1_554 S
C124 C125 1.398 . S
C124 C126 1.396 . S
C125 C124 1.398 . S
C125 C129 1.407 . S
C126 C124 1.396 . S
C126 C127 1.394 . S
C127 H122 0.929 . S
C127 C126 1.394 . S
C127 C128 1.382 . S
C128 C127 1.382 . S
C128 C129 1.392 . S
C128 N130 1.420 . S
C129 H123 0.930 . S
C129 C125 1.407 . S
C129 C128 1.392 . S
N130 C128 1.420 . S
N130 C131 1.244 . S
C131 N130 1.244 . S
H132 C135 0.929 . S
H133 C138 0.929 . S
H134 C140 0.930 . S
C135 H132 0.929 . S
C135 C136 1.398 . S
C135 C137 1.396 . S
C136 C135 1.398 . S
C136 C140 1.407 . S
C137 C135 1.396 . S
C137 C138 1.394 . S
C138 H133 0.929 . S
C138 C137 1.394 . S
C138 C139 1.382 . S
C139 C138 1.382 . S
C139 C140 1.392 . S
C139 N141 1.420 . S
C140 H134 0.930 . S
C140 C136 1.407 . S
C140 C139 1.392 . S
N141 C139 1.420 . S
N141 C142 1.244 . S
C142 N141 1.244 . S
H143 C146 0.929 . S
H144 C149 0.929 . S
H145 C151 0.930 . S
C146 H143 0.929 . S
C146 C147 1.398 . S
C146 C148 1.396 . S
C147 C146 1.398 . S
C147 C151 1.407 . S
C148 C146 1.396 . S
C148 C149 1.394 . S
C149 H144 0.929 . S
C149 C148 1.394 . S
C149 C150 1.382 . S
C150 C149 1.382 . S
C150 C151 1.392 . S
C150 N152 1.420 . S
C151 H145 0.930 . S
C151 C147 1.407 . S
C151 C150 1.392 . S
N152 C150 1.420 . S
N152 C153 1.244 . S
C153 N152 1.244 . S
H154 C157 0.929 . S
H155 C160 0.929 . S
H156 C162 0.930 . S
C157 H154 0.929 . S
C157 C158 1.398 . S
C157 C159 1.396 . S
C158 C157 1.398 . S
C158 C162 1.407 . S
C159 C157 1.396 . S
C159 C160 1.394 . S
C160 H155 0.929 . S
C160 C159 1.394 . S
C160 C161 1.382 . S
C161 C160 1.382 . S
C161 C162 1.392 . S
C161 N163 1.420 . S
C162 H156 0.930 . S
C162 C158 1.407 . S
C162 C161 1.392 . S
N163 C161 1.420 . S
N163 C164 1.244 . S
C164 N163 1.244 . S
H165 C168 0.929 . S
H166 C171 0.929 . S
H167 C173 0.930 . S
C168 H165 0.929 . S
C168 C169 1.398 . S
C168 C170 1.396 . S
C169 C168 1.398 . S
C169 C173 1.407 . S
C170 C168 1.396 . S
C170 C171 1.394 . S
C171 H166 0.929 . S
C171 C170 1.394 . S
C171 C172 1.382 . S
C172 C171 1.382 . S
C172 C173 1.392 . S
C172 N174 1.420 . S
C173 H167 0.930 . S
C173 C169 1.407 . S
C173 C172 1.392 . S
N174 C172 1.420 . S
N174 C175 1.244 . S
C175 N174 1.244 . S
H176 C179 0.929 . S
H177 C182 0.929 . S
H178 C184 0.930 . S
C179 H176 0.929 . S
C179 C180 1.398 . S
C179 C181 1.396 . S
C180 C179 1.398 . S
C180 C184 1.407 . S
C181 C179 1.396 . S
C181 C182 1.394 . S
C182 H177 0.929 . S
C182 C181 1.394 . S
C182 C183 1.382 . S
C183 C182 1.382 . S
C183 C184 1.392 . S
C183 N185 1.420 . S
C184 H178 0.930 . S
C184 C180 1.407 . S
C184 C183 1.392 . S
N185 C183 1.420 . S
N185 C186 1.244 . S
C186 N185 1.244 . S
H187 C190 0.929 . S
H188 C193 0.929 . S
H189 C195 0.930 . S
C190 H187 0.929 . S
C190 C191 1.398 . S
C190 C192 1.396 . S
C191 C190 1.398 . S
C191 C195 1.407 . S
C192 C190 1.396 . S
C192 C193 1.394 . S
C193 H188 0.929 . S
C193 C192 1.394 . S
C193 C194 1.382 . S
C194 C193 1.382 . S
C194 C195 1.392 . S
C194 N196 1.420 . S
C195 H189 0.930 . S
C195 C191 1.407 . S
C195 C194 1.392 . S
N196 C194 1.420 . S
N196 C197 1.244 . S
C197 N196 1.244 . S
H198 C201 0.929 . S
H199 C204 0.929 . S
H200 C206 0.930 . S
C201 H198 0.929 . S
C201 C202 1.398 . S
C201 C203 1.396 . S
C202 C201 1.398 . S
C202 C206 1.407 . S
C203 C201 1.396 . S
C203 C204 1.394 . S
C204 H199 0.929 . S
C204 C203 1.394 . S
C204 C205 1.382 . S
C205 C204 1.382 . S
C205 C206 1.392 . S
C205 N207 1.420 . S
C206 H200 0.930 . S
C206 C202 1.407 . S
C206 C205 1.392 . S
N207 C205 1.420 . S
N207 C208 1.244 . S
C208 N207 1.244 . S
H209 C212 0.929 . S
H210 C215 0.929 . S
H211 C217 0.930 . S
C212 H209 0.929 . S
C212 C213 1.398 . S
C212 C214 1.396 . S
C213 C212 1.398 . S
C213 C217 1.407 . S
C214 C212 1.396 . S
C214 C215 1.394 . S
C215 H210 0.929 . S
C215 C214 1.394 . S
C215 C216 1.382 . S
C216 C215 1.382 . S
C216 C217 1.392 . S
C216 N218 1.420 . S
C217 H211 0.930 . S
C217 C213 1.407 . S
C217 C216 1.392 . S
N218 C216 1.420 . S
N218 C219 1.244 . S
C219 N218 1.244 . S
H220 C223 0.929 . S
H221 C226 0.929 . S
H222 C228 0.930 . S
C223 H220 0.929 . S
C223 C224 1.398 . S
C223 C225 1.396 . S
C224 C223 1.398 . S
C224 C228 1.407 . S
C225 C223 1.396 . S
C225 C226 1.394 . S
C226 H221 0.929 . S
C226 C225 1.394 . S
C226 C227 1.382 . S
C227 C226 1.382 . S
C227 C228 1.392 . S
C227 N229 1.420 . S
C228 H222 0.930 . S
C228 C224 1.407 . S
C228 C227 1.392 . S
N229 C227 1.420 . S
N229 C230 1.244 . S
C230 N229 1.244 . S
H231 C234 0.929 . S
H232 C237 0.929 . S
H233 C239 0.930 . S
C234 H231 0.929 . S
C234 C235 1.398 . S
C234 C236 1.396 . S
C235 C234 1.398 . S
C235 C239 1.407 . S
C236 C234 1.396 . S
C236 C237 1.394 . S
C237 H232 0.929 . S
C237 C236 1.394 . S
C237 C238 1.382 . S
C238 C237 1.382 . S
C238 C239 1.392 . S
C238 N240 1.420 . S
C239 H233 0.930 . S
C239 C235 1.407 . S
C239 C238 1.392 . S
N240 C238 1.420 . S
N240 C241 1.244 . S
C241 N240 1.244 . S
H242 C245 0.929 . S
H243 C248 0.929 . S
H244 C250 0.930 . S
C245 H242 0.929 . S
C245 C246 1.398 . S
C245 C247 1.396 . S
C246 C245 1.398 . S
C246 C250 1.407 . S
C247 C245 1.396 . S
C247 C248 1.394 . S
C248 H243 0.929 . S
C248 C247 1.394 . S
C248 C249 1.382 . S
C249 C248 1.382 . S
C249 C250 1.392 . S
C249 N251 1.420 . S
C250 H244 0.930 . S
C250 C246 1.407 . S
C250 C249 1.392 . S
N251 C249 1.420 . S
N251 C252 1.244 . S
C252 N251 1.244 . S
H253 C256 0.929 . S
H254 C259 0.929 . S
H255 C261 0.930 . S
C256 H253 0.929 . S
C256 C257 1.398 . S
C256 C258 1.396 . S
C257 C256 1.398 . S
C257 C261 1.407 . S
C258 C256 1.396 . S
C258 C259 1.394 . S
C259 H254 0.929 . S
C259 C258 1.394 . S
C259 C260 1.382 . S
C260 C259 1.382 . S
C260 C261 1.392 . S
C260 N262 1.420 . S
C261 H255 0.930 . S
C261 C257 1.407 . S
C261 C260 1.392 . S
N262 C260 1.420 . S
N262 C263 1.244 . S
C263 N262 1.244 . S
C264 O290 1.283 . S
C264 O308 1.283 . S
C265 O291 1.283 . S
C265 O306 1.283 . S
C266 O292 1.283 . S
C266 O309 1.283 . S
C267 O293 1.283 . S
C267 O307 1.283 . S
C268 O294 1.283 . S
C268 O303 1.283 . S
C269 O295 1.283 . S
C269 O305 1.283 . S
C270 O296 1.283 . S
C270 O302 1.283 . S
C271 O297 1.283 . S
C271 O304 1.283 . S
C272 O298 1.283 . S
C272 O313 1.283 . S
C273 O299 1.283 . S
C273 O311 1.283 . S
C274 O300 1.283 . S
C274 O312 1.283 . S
C275 O301 1.283 . S
C275 O310 1.283 . S
Eu276 O277 2.370 . S
Eu276 O278 2.370 . S
Eu276 O281 2.370 . S
Eu276 O282 2.370 . S
Eu276 O290 2.363 . S
Eu276 O291 2.363 . S
Eu276 O304 2.363 . S
Eu276 O305 2.363 1_455 S
O277 Eu276 2.370 . S
O277 Eu279 2.357 1_465 S
O277 Eu284 2.358 1_565 S
O278 Eu276 2.370 . S
O278 Eu280 2.357 1_565 S
O278 Eu283 2.355 1_565 S
Eu279 O277 2.357 1_645 S
Eu279 O281 2.357 1_645 S
Eu279 O285 2.384 1_655 S
Eu279 O286 2.384 1_655 S
Eu279 O294 2.386 . S
Eu279 O295 2.340 1_545 S
Eu279 O310 2.363 . S
Eu279 O311 2.363 . S
Eu280 O278 2.357 1_545 S
Eu280 O282 2.357 1_545 S
Eu280 O287 2.384 . S
Eu280 O288 2.384 . S
Eu280 O296 2.386 . S
Eu280 O297 2.340 1_545 S
Eu280 O312 2.363 . S
Eu280 O313 2.363 . S
O281 Eu276 2.370 . S
O281 Eu279 2.357 1_465 S
O281 Eu283 2.355 1_565 S
O282 Eu276 2.370 . S
O282 Eu280 2.357 1_565 S
O282 Eu284 2.358 1_565 S
Eu283 O278 2.355 1_545 S
Eu283 O281 2.355 1_545 S
Eu283 O285 2.385 . S
Eu283 O288 2.385 . S
Eu283 O300 2.363 . S
Eu283 O301 2.363 1_455 S
Eu283 O308 2.337 1_545 S
Eu283 O309 2.389 . S
Eu284 O277 2.358 1_545 S
Eu284 O282 2.358 1_545 S
Eu284 O286 2.382 . S
Eu284 O287 2.382 . S
Eu284 O298 2.363 . S
Eu284 O299 2.363 1_455 S
Eu284 O306 2.343 1_545 S
Eu284 O307 2.383 . S
O285 Eu279 2.384 1_455 S
O285 Eu283 2.385 . S
O285 Eu289 2.370 . S
O286 Eu279 2.384 1_455 S
O286 Eu284 2.382 . S
O286 Eu289 2.370 . S
O287 Eu280 2.384 . S
O287 Eu284 2.382 . S
O287 Eu289 2.370 . S
O288 Eu280 2.384 . S
O288 Eu283 2.385 . S
O288 Eu289 2.370 . S
Eu289 O285 2.370 . S
Eu289 O286 2.370 . S
Eu289 O287 2.370 . S
Eu289 O288 2.370 . S
Eu289 O292 2.363 . S
Eu289 O293 2.363 . S
Eu289 O302 2.363 . S
Eu289 O303 2.363 1_455 S
O290 C264 1.283 . S
O290 Eu276 2.363 . S
O291 C265 1.283 . S
O291 Eu276 2.363 . S
O292 C266 1.283 . S
O292 Eu289 2.363 . S
O293 C267 1.283 . S
O293 Eu289 2.363 . S
O294 C268 1.283 . S
O294 Eu279 2.386 . S
O295 C269 1.283 . S
O295 Eu279 2.340 1_565 S
O296 C270 1.283 . S
O296 Eu280 2.386 . S
O297 C271 1.283 . S
O297 Eu280 2.340 1_565 S
O298 C272 1.283 . S
O298 Eu284 2.363 . S
O299 C273 1.283 . S
O299 Eu284 2.363 1_655 S
O300 C274 1.283 . S
O300 Eu283 2.363 . S
O301 C275 1.283 . S
O301 Eu283 2.363 1_655 S
O302 C270 1.283 . S
O302 Eu289 2.363 . S
O303 C268 1.283 . S
O303 Eu289 2.363 1_655 S
O304 C271 1.283 . S
O304 Eu276 2.363 . S
O305 C269 1.283 . S
O305 Eu276 2.363 1_655 S
O306 C265 1.283 . S
O306 Eu284 2.343 1_565 S
O307 C267 1.283 . S
O307 Eu284 2.383 . S
O308 C264 1.283 . S
O308 Eu283 2.337 1_565 S
O309 C266 1.283 . S
O309 Eu283 2.389 . S
O310 C275 1.283 . S
O310 Eu279 2.363 . S
O311 C273 1.283 . S
O311 Eu279 2.363 . S
O312 C274 1.283 . S
O312 Eu280 2.363 . S
O313 C272 1.283 . S
O313 Eu280 2.363 . S
C314 O340 1.283 . S
C314 O358 1.283 . S
C315 O341 1.283 . S
C315 O356 1.283 . S
C316 O342 1.283 . S
C316 O359 1.283 . S
C317 O343 1.283 . S
C317 O357 1.283 . S
C318 O344 1.283 . S
C318 O353 1.283 . S
C319 O345 1.283 . S
C319 O355 1.283 . S
C320 O346 1.283 . S
C320 O352 1.283 . S
C321 O347 1.283 . S
C321 O354 1.283 . S
C322 O348 1.283 . S
C322 O363 1.283 . S
C323 O349 1.283 . S
C323 O361 1.283 . S
C324 O350 1.283 . S
C324 O362 1.283 . S
C325 O351 1.283 . S
C325 O360 1.283 . S
Eu326 O327 2.378 . S
Eu326 O328 2.362 1_545 S
Eu326 O331 2.362 1_545 S
Eu326 O332 2.378 . S
Eu326 O340 2.349 1_545 S
Eu326 O341 2.377 . S
Eu326 O354 2.363 . S
Eu326 O355 2.363 . S
O327 Eu326 2.378 . S
O327 Eu329 2.384 . S
O327 Eu334 2.370 . S
O328 Eu326 2.362 1_565 S
O328 Eu330 2.357 1_565 S
O328 Eu333 2.370 . S
Eu329 O327 2.384 . S
Eu329 O331 2.357 1_545 S
Eu329 O335 2.357 1_544 S
Eu329 O336 2.384 1_554 S
Eu329 O344 2.363 1_554 S
Eu329 O345 2.363 . S
Eu329 O360 2.340 1_545 S
Eu329 O361 2.386 . S
Eu330 O328 2.357 1_545 S
Eu330 O332 2.384 . S
Eu330 O337 2.384 1_554 S
Eu330 O338 2.357 1_544 S
Eu330 O346 2.363 1_554 S
Eu330 O347 2.363 . S
Eu330 O362 2.340 1_545 S
Eu330 O363 2.386 . S
O331 Eu326 2.362 1_565 S
O331 Eu329 2.357 1_565 S
O331 Eu333 2.370 . S
O332 Eu326 2.378 . S
O332 Eu330 2.384 . S
O332 Eu334 2.370 . S
Eu333 O328 2.370 . S
Eu333 O331 2.370 . S
Eu333 O335 2.370 1_554 S
Eu333 O338 2.370 1_554 S
Eu333 O350 2.363 . S
Eu333 O351 2.363 . S
Eu333 O358 2.363 . S
Eu333 O359 2.363 1_554 S
Eu334 O327 2.370 . S
Eu334 O332 2.370 . S
Eu334 O336 2.370 1_554 S
Eu334 O337 2.370 1_554 S
Eu334 O348 2.363 . S
Eu334 O349 2.363 . S
Eu334 O356 2.363 . S
Eu334 O357 2.363 1_554 S
O335 Eu329 2.357 1_566 S
O335 Eu333 2.370 1_556 S
O335 Eu339 2.351 1_565 S
O336 Eu329 2.384 1_556 S
O336 Eu334 2.370 1_556 S
O336 Eu339 2.389 . S
O337 Eu330 2.384 1_556 S
O337 Eu334 2.370 1_556 S
O337 Eu339 2.389 . S
O338 Eu330 2.357 1_566 S
O338 Eu333 2.370 1_556 S
O338 Eu339 2.351 1_565 S
Eu339 O335 2.351 1_545 S
Eu339 O336 2.389 . S
Eu339 O337 2.389 . S
Eu339 O338 2.351 1_545 S
Eu339 O342 2.331 1_545 S
Eu339 O343 2.395 . S
Eu339 O352 2.363 . S
Eu339 O353 2.363 . S
O340 C314 1.283 . S
O340 Eu326 2.349 1_565 S
O341 C315 1.283 . S
O341 Eu326 2.377 . S
O342 C316 1.283 . S
O342 Eu339 2.331 1_565 S
O343 C317 1.283 . S
O343 Eu339 2.395 . S
O344 C318 1.283 . S
O344 Eu329 2.363 1_556 S
O345 C319 1.283 . S
O345 Eu329 2.363 . S
O346 C320 1.283 . S
O346 Eu330 2.363 1_556 S
O347 C321 1.283 . S
O347 Eu330 2.363 . S
O348 C322 1.283 . S
O348 Eu334 2.363 . S
O349 C323 1.283 . S
O349 Eu334 2.363 . S
O350 C324 1.283 . S
O350 Eu333 2.363 . S
O351 C325 1.283 . S
O351 Eu333 2.363 . S
O352 C320 1.283 . S
O352 Eu339 2.363 . S
O353 C318 1.283 . S
O353 Eu339 2.363 . S
O354 C321 1.283 . S
O354 Eu326 2.363 . S
O355 C319 1.283 . S
O355 Eu326 2.363 . S
O356 C315 1.283 . S
O356 Eu334 2.363 . S
O357 C317 1.283 . S
O357 Eu334 2.363 1_556 S
O358 C314 1.283 . S
O358 Eu333 2.363 . S
O359 C316 1.283 . S
O359 Eu333 2.363 1_556 S
O360 C325 1.283 . S
O360 Eu329 2.340 1_565 S
O361 C323 1.283 . S
O361 Eu329 2.386 . S
O362 C324 1.283 . S
O362 Eu330 2.340 1_565 S
O363 C322 1.283 . S
O363 Eu330 2.386 . S
C364 O390 1.283 . S
C364 O408 1.283 . S
C365 O391 1.283 . S
C365 O406 1.283 . S
C366 O392 1.283 . S
C366 O409 1.283 . S
C367 O393 1.283 . S
C367 O407 1.283 . S
C368 O394 1.283 . S
C368 O403 1.283 . S
C369 O395 1.283 . S
C369 O405 1.283 . S
C370 O396 1.283 . S
C370 O402 1.283 . S
C371 O397 1.283 . S
C371 O404 1.283 . S
C372 O398 1.283 . S
C372 O413 1.283 . S
C373 O399 1.283 . S
C373 O411 1.283 . S
C374 O400 1.283 . S
C374 O412 1.283 . S
C375 O401 1.283 . S
C375 O410 1.283 . S
Eu376 O377 2.345 1_454 S
Eu376 O378 2.396 . S
Eu376 O381 2.396 1_455 S
Eu376 O382 2.345 1_554 S
Eu376 O390 2.406 . S
Eu376 O391 2.320 1_554 S
Eu376 O404 2.363 . S
Eu376 O405 2.363 1_455 S
O377 Eu376 2.345 1_656 S
O377 Eu379 2.349 1_556 S
O377 Eu384 2.370 1_655 S
O378 Eu376 2.396 . S
O378 Eu380 2.397 . S
O378 Eu383 2.370 . S
Eu379 O377 2.349 1_554 S
Eu379 O381 2.392 . S
Eu379 O385 2.392 . S
Eu379 O386 2.349 1_554 S
Eu379 O394 2.363 . S
Eu379 O395 2.363 . S
Eu379 O410 2.399 . S
Eu379 O411 2.327 1_554 S
Eu380 O378 2.397 . S
Eu380 O382 2.344 1_554 S
Eu380 O387 2.344 1_554 S
Eu380 O388 2.397 . S
Eu380 O396 2.363 . S
Eu380 O397 2.363 . S
Eu380 O412 2.407 . S
Eu380 O413 2.319 1_554 S
O381 Eu376 2.396 1_655 S
O381 Eu379 2.392 . S
O381 Eu383 2.370 1_655 S
O382 Eu376 2.345 1_556 S
O382 Eu380 2.344 1_556 S
O382 Eu384 2.370 . S
Eu383 O378 2.370 . S
Eu383 O381 2.370 1_455 S
Eu383 O385 2.370 1_455 S
Eu383 O388 2.370 . S
Eu383 O400 2.363 . S
Eu383 O401 2.363 1_455 S
Eu383 O408 2.363 . S
Eu383 O409 2.363 . S
Eu384 O377 2.370 1_455 S
Eu384 O382 2.370 . S
Eu384 O386 2.370 1_455 S
Eu384 O387 2.370 . S
Eu384 O398 2.363 . S
Eu384 O399 2.363 1_455 S
Eu384 O406 2.363 . S
Eu384 O407 2.363 . S
O385 Eu379 2.392 . S
O385 Eu383 2.370 1_655 S
O385 Eu389 2.392 1_655 S
O386 Eu379 2.349 1_556 S
O386 Eu384 2.370 1_655 S
O386 Eu389 2.348 1_656 S
O387 Eu380 2.344 1_556 S
O387 Eu384 2.370 . S
O387 Eu389 2.348 1_556 S
O388 Eu380 2.397 . S
O388 Eu383 2.370 . S
O388 Eu389 2.392 . S
Eu389 O385 2.392 1_455 S
Eu389 O386 2.348 1_454 S
Eu389 O387 2.348 1_554 S
Eu389 O388 2.392 . S
Eu389 O392 2.400 . S
Eu389 O393 2.326 1_554 S
Eu389 O402 2.363 . S
Eu389 O403 2.363 1_455 S
O390 C364 1.283 . S
O390 Eu376 2.406 . S
O391 C365 1.283 . S
O391 Eu376 2.320 1_556 S
O392 C366 1.283 . S
O392 Eu389 2.400 . S
O393 C367 1.283 . S
O393 Eu389 2.326 1_556 S
O394 C368 1.283 . S
O394 Eu379 2.363 . S
O395 C369 1.283 . S
O395 Eu379 2.363 . S
O396 C370 1.283 . S
O396 Eu380 2.363 . S
O397 C371 1.283 . S
O397 Eu380 2.363 . S
O398 C372 1.283 . S
O398 Eu384 2.363 . S
O399 C373 1.283 . S
O399 Eu384 2.363 1_655 S
O400 C374 1.283 . S
O400 Eu383 2.363 . S
O401 C375 1.283 . S
O401 Eu383 2.363 1_655 S
O402 C370 1.283 . S
O402 Eu389 2.363 . S
O403 C368 1.283 . S
O403 Eu389 2.363 1_655 S
O404 C371 1.283 . S
O404 Eu376 2.363 . S
O405 C369 1.283 . S
O405 Eu376 2.363 1_655 S
O406 C365 1.283 . S
O406 Eu384 2.363 . S
O407 C367 1.283 . S
O407 Eu384 2.363 . S
O408 C364 1.283 . S
O408 Eu383 2.363 . S
O409 C366 1.283 . S
O409 Eu383 2.363 . S
O410 C375 1.283 . S
O410 Eu379 2.399 . S
O411 C373 1.283 . S
O411 Eu379 2.327 1_556 S
O412 C374 1.283 . S
O412 Eu380 2.407 . S
O413 C372 1.283 . S
O413 Eu380 2.319 1_556 S
C414 O440 1.283 . S
C414 O458 1.283 . S
C415 O441 1.283 . S
C415 O456 1.283 . S
C416 O442 1.283 . S
C416 O459 1.283 . S
C417 O443 1.283 . S
C417 O457 1.283 . S
C418 O444 1.283 . S
C418 O453 1.283 . S
C419 O445 1.283 . S
C419 O455 1.283 . S
C420 O446 1.283 . S
C420 O452 1.283 . S
C421 O447 1.283 . S
C421 O454 1.283 . S
C422 O448 1.283 . S
C422 O463 1.283 . S
C423 O449 1.283 . S
C423 O461 1.283 . S
C424 O450 1.283 . S
C424 O462 1.283 . S
C425 O451 1.283 . S
C425 O460 1.283 . S
Eu426 O427 2.370 . S
Eu426 O428 2.370 . S
Eu426 O431 2.370 . S
Eu426 O432 2.370 . S
Eu426 O440 2.363 . S
Eu426 O441 2.363 . S
Eu426 O454 2.363 . S
Eu426 O455 2.363 . S
O427 Eu426 2.370 . S
O427 Eu429 2.370 . S
O427 Eu434 2.370 . S
O428 Eu426 2.370 . S
O428 Eu430 2.370 . S
O428 Eu433 2.370 . S
Eu429 O427 2.370 . S
Eu429 O431 2.370 . S
Eu429 O435 2.370 1_554 S
Eu429 O436 2.370 1_554 S
Eu429 O444 2.363 1_554 S
Eu429 O445 2.363 . S
Eu429 O460 2.363 . S
Eu429 O461 2.363 . S
Eu430 O428 2.370 . S
Eu430 O432 2.370 . S
Eu430 O437 2.370 1_554 S
Eu430 O438 2.370 1_554 S
Eu430 O446 2.363 1_554 S
Eu430 O447 2.363 . S
Eu430 O462 2.363 . S
Eu430 O463 2.363 . S
O431 Eu426 2.370 . S
O431 Eu429 2.370 . S
O431 Eu433 2.370 . S
O432 Eu426 2.370 . S
O432 Eu430 2.370 . S
O432 Eu434 2.370 . S
Eu433 O428 2.370 . S
Eu433 O431 2.370 . S
Eu433 O435 2.370 1_554 S
Eu433 O438 2.370 1_554 S
Eu433 O450 2.363 . S
Eu433 O451 2.363 . S
Eu433 O458 2.363 . S
Eu433 O459 2.363 1_554 S
Eu434 O427 2.370 . S
Eu434 O432 2.370 . S
Eu434 O436 2.370 1_554 S
Eu434 O437 2.370 1_554 S
Eu434 O448 2.363 . S
Eu434 O449 2.363 . S
Eu434 O456 2.363 . S
Eu434 O457 2.363 1_554 S
O435 Eu429 2.370 1_556 S
O435 Eu433 2.370 1_556 S
O435 Eu439 2.370 . S
O436 Eu429 2.370 1_556 S
O436 Eu434 2.370 1_556 S
O436 Eu439 2.370 . S
O437 Eu430 2.370 1_556 S
O437 Eu434 2.370 1_556 S
O437 Eu439 2.370 . S
O438 Eu430 2.370 1_556 S
O438 Eu433 2.370 1_556 S
O438 Eu439 2.370 . S
Eu439 O435 2.370 . S
Eu439 O436 2.370 . S
Eu439 O437 2.370 . S
Eu439 O438 2.370 . S
Eu439 O442 2.363 . S
Eu439 O443 2.363 . S
Eu439 O452 2.363 . S
Eu439 O453 2.363 . S
O440 C414 1.283 . S
O440 Eu426 2.363 . S
O441 C415 1.283 . S
O441 Eu426 2.363 . S
O442 C416 1.283 . S
O442 Eu439 2.363 . S
O443 C417 1.283 . S
O443 Eu439 2.363 . S
O444 C418 1.283 . S
O444 Eu429 2.363 1_556 S
O445 C419 1.283 . S
O445 Eu429 2.363 . S
O446 C420 1.283 . S
O446 Eu430 2.363 1_556 S
O447 C421 1.283 . S
O447 Eu430 2.363 . S
O448 C422 1.283 . S
O448 Eu434 2.363 . S
O449 C423 1.283 . S
O449 Eu434 2.363 . S
O450 C424 1.283 . S
O450 Eu433 2.363 . S
O451 C425 1.283 . S
O451 Eu433 2.363 . S
O452 C420 1.283 . S
O452 Eu439 2.363 . S
O453 C418 1.283 . S
O453 Eu439 2.363 . S
O454 C421 1.283 . S
O454 Eu426 2.363 . S
O455 C419 1.283 . S
O455 Eu426 2.363 . S
O456 C415 1.283 . S
O456 Eu434 2.363 . S
O457 C417 1.283 . S
O457 Eu434 2.363 1_556 S
O458 C414 1.283 . S
O458 Eu433 2.363 . S
O459 C416 1.283 . S
O459 Eu433 2.363 1_556 S
O460 C425 1.283 . S
O460 Eu429 2.363 . S
O461 C423 1.283 . S
O461 Eu429 2.363 . S
O462 C424 1.283 . S
O462 Eu430 2.363 . S
O463 C422 1.283 . S
O463 Eu430 2.363 . S
C464 O490 1.283 . S
C464 O508 1.283 . S
C465 O491 1.283 . S
C465 O506 1.283 . S
C466 O492 1.283 . S
C466 O509 1.283 . S
C467 O493 1.283 . S
C467 O507 1.283 . S
C468 O494 1.283 . S
C468 O503 1.283 . S
C469 O495 1.283 . S
C469 O505 1.283 . S
C470 O496 1.283 . S
C470 O502 1.283 . S
C471 O497 1.283 . S
C471 O504 1.283 . S
C472 O498 1.283 . S
C472 O513 1.283 . S
C473 O499 1.283 . S
C473 O511 1.283 . S
C474 O500 1.283 . S
C474 O512 1.283 . S
C475 O501 1.283 . S
C475 O510 1.283 . S
Eu476 O477 2.370 1_455 S
Eu476 O478 2.370 . S
Eu476 O481 2.370 1_455 S
Eu476 O482 2.370 . S
Eu476 O490 2.363 . S
Eu476 O491 2.363 . S
Eu476 O504 2.363 . S
Eu476 O505 2.363 1_455 S
O477 Eu476 2.370 1_655 S
O477 Eu479 2.370 . S
O477 Eu484 2.370 1_655 S
O478 Eu476 2.370 . S
O478 Eu480 2.370 . S
O478 Eu483 2.370 . S
Eu479 O477 2.370 . S
Eu479 O481 2.370 . S
Eu479 O485 2.370 . S
Eu479 O486 2.370 . S
Eu479 O494 2.363 . S
Eu479 O495 2.363 . S
Eu479 O510 2.363 . S
Eu479 O511 2.363 . S
Eu480 O478 2.370 . S
Eu480 O482 2.370 . S
Eu480 O487 2.370 . S
Eu480 O488 2.370 . S
Eu480 O496 2.363 . S
Eu480 O497 2.363 . S
Eu480 O512 2.363 . S
Eu480 O513 2.363 . S
O481 Eu476 2.370 1_655 S
O481 Eu479 2.370 . S
O481 Eu483 2.370 1_655 S
O482 Eu476 2.370 . S
O482 Eu480 2.370 . S
O482 Eu484 2.370 . S
Eu483 O478 2.370 . S
Eu483 O481 2.370 1_455 S
Eu483 O485 2.370 1_455 S
Eu483 O488 2.370 . S
Eu483 O500 2.363 . S
Eu483 O501 2.363 1_455 S
Eu483 O508 2.363 . S
Eu483 O509 2.363 . S
Eu484 O477 2.370 1_455 S
Eu484 O482 2.370 . S
Eu484 O486 2.370 1_455 S
Eu484 O487 2.370 . S
Eu484 O498 2.363 . S
Eu484 O499 2.363 1_455 S
Eu484 O506 2.363 . S
Eu484 O507 2.363 . S
O485 Eu479 2.370 . S
O485 Eu483 2.370 1_655 S
O485 Eu489 2.370 1_655 S
O486 Eu479 2.370 . S
O486 Eu484 2.370 1_655 S
O486 Eu489 2.370 1_655 S
O487 Eu480 2.370 . S
O487 Eu484 2.370 . S
O487 Eu489 2.370 . S
O488 Eu480 2.370 . S
O488 Eu483 2.370 . S
O488 Eu489 2.370 . S
Eu489 O485 2.370 1_455 S
Eu489 O486 2.370 1_455 S
Eu489 O487 2.370 . S
Eu489 O488 2.370 . S
Eu489 O492 2.363 . S
Eu489 O493 2.363 . S
Eu489 O502 2.363 . S
Eu489 O503 2.363 1_455 S
O490 C464 1.283 . S
O490 Eu476 2.363 . S
O491 C465 1.283 . S
O491 Eu476 2.363 . S
O492 C466 1.283 . S
O492 Eu489 2.363 . S
O493 C467 1.283 . S
O493 Eu489 2.363 . S
O494 C468 1.283 . S
O494 Eu479 2.363 . S
O495 C469 1.283 . S
O495 Eu479 2.363 . S
O496 C470 1.283 . S
O496 Eu480 2.363 . S
O497 C471 1.283 . S
O497 Eu480 2.363 . S
O498 C472 1.283 . S
O498 Eu484 2.363 . S
O499 C473 1.283 . S
O499 Eu484 2.363 1_655 S
O500 C474 1.283 . S
O500 Eu483 2.363 . S
O501 C475 1.283 . S
O501 Eu483 2.363 1_655 S
O502 C470 1.283 . S
O502 Eu489 2.363 . S
O503 C468 1.283 . S
O503 Eu489 2.363 1_655 S
O504 C471 1.283 . S
O504 Eu476 2.363 . S
O505 C469 1.283 . S
O505 Eu476 2.363 1_655 S
O506 C465 1.283 . S
O506 Eu484 2.363 . S
O507 C467 1.283 . S
O507 Eu484 2.363 . S
O508 C464 1.283 . S
O508 Eu483 2.363 . S
O509 C466 1.283 . S
O509 Eu483 2.363 . S
O510 C475 1.283 . S
O510 Eu479 2.363 . S
O511 C473 1.283 . S
O511 Eu479 2.363 . S
O512 C474 1.283 . S
O512 Eu480 2.363 . S
O513 C472 1.283 . S
O513 Eu480 2.363 . S
C514 O540 1.283 . S
C514 O558 1.283 . S
C515 O541 1.283 . S
C515 O556 1.283 . S
C516 O542 1.283 . S
C516 O559 1.283 . S
C517 O543 1.283 . S
C517 O557 1.283 . S
C518 O544 1.283 . S
C518 O553 1.283 . S
C519 O545 1.283 . S
C519 O555 1.283 . S
C520 O546 1.283 . S
C520 O552 1.283 . S
C521 O547 1.283 . S
C521 O554 1.283 . S
C522 O548 1.283 . S
C522 O563 1.283 . S
C523 O549 1.283 . S
C523 O561 1.283 . S
C524 O550 1.283 . S
C524 O562 1.283 . S
C525 O551 1.283 . S
C525 O560 1.283 . S
Eu526 O527 2.370 . S
Eu526 O528 2.370 . S
Eu526 O531 2.370 . S
Eu526 O532 2.370 . S
Eu526 O540 2.363 . S
Eu526 O541 2.363 . S
Eu526 O554 2.363 . S
Eu526 O555 2.363 . S
O527 Eu526 2.370 . S
O527 Eu529 2.356 1_565 S
O527 Eu534 2.358 1_565 S
O528 Eu526 2.370 . S
O528 Eu530 2.356 1_565 S
O528 Eu533 2.354 1_565 S
Eu529 O527 2.356 1_545 S
Eu529 O531 2.356 1_545 S
Eu529 O535 2.385 . S
Eu529 O536 2.385 . S
Eu529 O544 2.387 . S
Eu529 O545 2.339 1_545 S
Eu529 O560 2.363 . S
Eu529 O561 2.363 . S
Eu530 O528 2.356 1_545 S
Eu530 O532 2.356 1_545 S
Eu530 O537 2.384 . S
Eu530 O538 2.385 . S
Eu530 O546 2.387 . S
Eu530 O547 2.339 1_545 S
Eu530 O562 2.363 . S
Eu530 O563 2.363 . S
O531 Eu526 2.370 . S
O531 Eu529 2.356 1_565 S
O531 Eu533 2.354 1_565 S
O532 Eu526 2.370 . S
O532 Eu530 2.356 1_565 S
O532 Eu534 2.358 1_565 S
Eu533 O528 2.354 1_545 S
Eu533 O531 2.354 1_545 S
Eu533 O535 2.386 . S
Eu533 O538 2.386 . S
Eu533 O550 2.363 . S
Eu533 O551 2.363 . S
Eu533 O558 2.336 1_545 S
Eu533 O559 2.390 . S
Eu534 O527 2.358 1_545 S
Eu534 O532 2.358 1_545 S
Eu534 O536 2.383 . S
Eu534 O537 2.383 . S
Eu534 O548 2.363 . S
Eu534 O549 2.363 . S
Eu534 O556 2.342 1_545 S
Eu534 O557 2.384 . S
O535 Eu529 2.385 . S
O535 Eu533 2.386 . S
O535 Eu539 2.370 . S
O536 Eu529 2.385 . S
O536 Eu534 2.383 . S
O536 Eu539 2.370 . S
O537 Eu530 2.384 . S
O537 Eu534 2.383 . S
O537 Eu539 2.370 . S
O538 Eu530 2.385 . S
O538 Eu533 2.386 . S
O538 Eu539 2.370 . S
Eu539 O535 2.370 . S
Eu539 O536 2.370 . S
Eu539 O537 2.370 . S
Eu539 O538 2.370 . S
Eu539 O542 2.363 . S
Eu539 O543 2.363 . S
Eu539 O552 2.363 . S
Eu539 O553 2.363 . S
O540 C514 1.283 . S
O540 Eu526 2.363 . S
O541 C515 1.283 . S
O541 Eu526 2.363 . S
O542 C516 1.283 . S
O542 Eu539 2.363 . S
O543 C517 1.283 . S
O543 Eu539 2.363 . S
O544 C518 1.283 . S
O544 Eu529 2.387 . S
O545 C519 1.283 . S
O545 Eu529 2.339 1_565 S
O546 C520 1.283 . S
O546 Eu530 2.387 . S
O547 C521 1.283 . S
O547 Eu530 2.339 1_565 S
O548 C522 1.283 . S
O548 Eu534 2.363 . S
O549 C523 1.283 . S
O549 Eu534 2.363 . S
O550 C524 1.283 . S
O550 Eu533 2.363 . S
O551 C525 1.283 . S
O551 Eu533 2.363 . S
O552 C520 1.283 . S
O552 Eu539 2.363 . S
O553 C518 1.283 . S
O553 Eu539 2.363 . S
O554 C521 1.283 . S
O554 Eu526 2.363 . S
O555 C519 1.283 . S
O555 Eu526 2.363 . S
O556 C515 1.283 . S
O556 Eu534 2.342 1_565 S
O557 C517 1.283 . S
O557 Eu534 2.384 . S
O558 C514 1.283 . S
O558 Eu533 2.336 1_565 S
O559 C516 1.283 . S
O559 Eu533 2.390 . S
O560 C525 1.283 . S
O560 Eu529 2.363 . S
O561 C523 1.283 . S
O561 Eu529 2.363 . S
O562 C524 1.283 . S
O562 Eu530 2.363 . S
O563 C522 1.283 . S
O563 Eu530 2.363 . S
C564 C565 1.349 . S
C564 C566 1.327 . S
C564 H589 0.950 . S
C565 C564 1.349 . S
C565 C581 1.349 . S
C566 C564 1.327 . S
C566 C585 1.429 . S
C566 H590 0.950 . S
C567 C584 1.574 . S
C567 C586 1.368 . S
C567 H591 0.949 . S
H568 C572 0.949 . S
C569 C570 1.349 . S
C569 C571 1.327 . S
C569 H592 0.950 . S
C570 C569 1.349 . S
C570 C582 1.349 . S
C571 C569 1.327 . S
C571 C587 1.429 . S
C571 H593 0.950 . S
C572 H568 0.949 . S
C572 C580 1.574 . S
C572 C588 1.368 . S
H573 C581 0.950 . S
H574 C579 0.950 . S
H575 C580 0.949 . S
H576 C582 0.950 . S
H577 C583 0.950 . S
H578 C584 0.949 . S
C579 H574 0.950 . S
C579 C581 1.327 . S
C579 C585 1.429 . S
C580 C572 1.574 . S
C580 H575 0.949 . S
C580 C586 1.368 . S
C581 C565 1.349 . S
C581 H573 0.950 . S
C581 C579 1.327 . S
C582 C570 1.349 . S
C582 H576 0.950 . S
C582 C583 1.327 . S
C583 H577 0.950 . S
C583 C582 1.327 . S
C583 C587 1.429 . S
C584 C567 1.574 . S
C584 H578 0.949 . S
C584 C588 1.368 . S
C585 C566 1.429 . S
C585 C579 1.429 . S
C585 C586 1.523 . S
C586 C567 1.368 . S
C586 C580 1.368 . S
C586 C585 1.523 . S
C587 C571 1.429 . S
C587 C583 1.429 . S
C587 C588 1.523 . S
C588 C572 1.368 . S
C588 C584 1.368 . S
C588 C587 1.523 . S
H589 C564 0.950 . S
H590 C566 0.950 . S
H591 C567 0.949 . S
H592 C569 0.950 . S
H593 C571 0.950 . S
C594 C595 1.349 . S
C594 C596 1.327 . S
C594 H619 0.950 . S
C595 C594 1.349 . S
C595 C611 1.349 . S
C596 C594 1.327 . S
C596 C615 1.429 . S
C596 H620 0.950 . S
C597 C614 1.574 . S
C597 C616 1.368 . S
C597 H621 0.949 . S
H598 C602 0.949 . S
C599 C600 1.349 . S
C599 C601 1.327 . S
C599 H622 0.950 . S
C600 C599 1.349 . S
C600 C612 1.349 . S
C601 C599 1.327 . S
C601 C617 1.429 . S
C601 H623 0.950 . S
C602 H598 0.949 . S
C602 C610 1.574 . S
C602 C618 1.368 . S
H603 C611 0.950 . S
H604 C609 0.950 . S
H605 C610 0.949 . S
H606 C612 0.950 . S
H607 C613 0.950 . S
H608 C614 0.949 . S
C609 H604 0.950 . S
C609 C611 1.327 . S
C609 C615 1.429 . S
C610 C602 1.574 . S
C610 H605 0.949 . S
C610 C616 1.368 . S
C611 C595 1.349 . S
C611 H603 0.950 . S
C611 C609 1.327 . S
C612 C600 1.349 . S
C612 H606 0.950 . S
C612 C613 1.327 . S
C613 H607 0.950 . S
C613 C612 1.327 . S
C613 C617 1.429 . S
C614 C597 1.574 . S
C614 H608 0.949 . S
C614 C618 1.368 . S
C615 C596 1.429 . S
C615 C609 1.429 . S
C615 C616 1.523 . S
C616 C597 1.368 . S
C616 C610 1.368 . S
C616 C615 1.523 . S
C617 C601 1.429 . S
C617 C613 1.429 . S
C617 C618 1.523 . S
C618 C602 1.368 . S
C618 C614 1.368 . S
C618 C617 1.523 . S
H619 C594 0.950 . S
H620 C596 0.950 . S
H621 C597 0.949 . S
H622 C599 0.950 . S
H623 C601 0.950 . S
C624 C625 1.349 . S
C624 C626 1.327 . S
C624 H649 0.950 . S
C625 C624 1.349 . S
C625 C641 1.349 . S
C626 C624 1.327 . S
C626 C645 1.429 . S
C626 H650 0.950 . S
C627 C644 1.574 . S
C627 C646 1.368 . S
C627 H651 0.949 . S
H628 C632 0.949 . S
C629 C630 1.349 . S
C629 C631 1.327 . S
C629 H652 0.950 . S
C630 C629 1.349 . S
C630 C642 1.349 . S
C631 C629 1.327 . S
C631 C647 1.429 . S
C631 H653 0.950 . S
C632 H628 0.949 . S
C632 C640 1.574 . S
C632 C648 1.368 . S
H633 C641 0.950 . S
H634 C639 0.950 . S
H635 C640 0.949 . S
H636 C642 0.950 . S
H637 C643 0.950 . S
H638 C644 0.949 . S
C639 H634 0.950 . S
C639 C641 1.327 . S
C639 C645 1.429 . S
C640 C632 1.574 . S
C640 H635 0.949 . S
C640 C646 1.368 . S
C641 C625 1.349 . S
C641 H633 0.950 . S
C641 C639 1.327 . S
C642 C630 1.349 . S
C642 H636 0.950 . S
C642 C643 1.327 . S
C643 H637 0.950 . S
C643 C642 1.327 . S
C643 C647 1.429 . S
C644 C627 1.574 . S
C644 H638 0.949 . S
C644 C648 1.368 . S
C645 C626 1.429 . S
C645 C639 1.429 . S
C645 C646 1.523 . S
C646 C627 1.368 . S
C646 C640 1.368 . S
C646 C645 1.523 . S
C647 C631 1.429 . S
C647 C643 1.429 . S
C647 C648 1.523 . S
C648 C632 1.368 . S
C648 C644 1.368 . S
C648 C647 1.523 . S
H649 C624 0.950 . S
H650 C626 0.950 . S
H651 C627 0.949 . S
H652 C629 0.950 . S
H653 C631 0.950 . S
C654 C655 1.349 . S
C654 C656 1.327 . S
C654 H679 0.950 . S
C655 C654 1.349 . S
C655 C671 1.349 . S
C656 C654 1.327 . S
C656 C675 1.429 . S
C656 H680 0.950 . S
C657 C674 1.574 . S
C657 C676 1.368 . S
C657 H681 0.949 . S
H658 C662 0.949 . S
C659 C660 1.349 . S
C659 C661 1.327 . S
C659 H682 0.950 . S
C660 C659 1.349 . S
C660 C672 1.349 . S
C661 C659 1.327 . S
C661 C677 1.429 . S
C661 H683 0.950 . S
C662 H658 0.949 . S
C662 C670 1.574 . S
C662 C678 1.368 . S
H663 C671 0.950 . S
H664 C669 0.950 . S
H665 C670 0.949 . S
H666 C672 0.950 . S
H667 C673 0.950 . S
H668 C674 0.949 . S
C669 H664 0.950 . S
C669 C671 1.327 . S
C669 C675 1.429 . S
C670 C662 1.574 . S
C670 H665 0.949 . S
C670 C676 1.368 . S
C671 C655 1.349 . S
C671 H663 0.950 . S
C671 C669 1.327 . S
C672 C660 1.349 . S
C672 H666 0.950 . S
C672 C673 1.327 . S
C673 H667 0.950 . S
C673 C672 1.327 . S
C673 C677 1.429 . S
C674 C657 1.574 . S
C674 H668 0.949 . S
C674 C678 1.368 . S
C675 C656 1.429 . S
C675 C669 1.429 . S
C675 C676 1.523 . S
C676 C657 1.368 . S
C676 C670 1.368 . S
C676 C675 1.523 . S
C677 C661 1.429 . S
C677 C673 1.429 . S
C677 C678 1.523 . S
C678 C662 1.368 . S
C678 C674 1.368 . S
C678 C677 1.523 . S
H679 C654 0.950 . S
H680 C656 0.950 . S
H681 C657 0.949 . S
H682 C659 0.950 . S
H683 C661 0.950 . S
C684 C685 1.349 . S
C684 C686 1.327 . S
C684 H709 0.950 . S
C685 C684 1.349 . S
C685 C701 1.349 . S
C686 C684 1.327 . S
C686 C705 1.429 . S
C686 H710 0.950 . S
C687 C704 1.574 . S
C687 C706 1.368 . S
C687 H711 0.949 . S
H688 C692 0.949 . S
C689 C690 1.349 . S
C689 C691 1.327 . S
C689 H712 0.950 . S
C690 C689 1.349 . S
C690 C702 1.349 . S
C691 C689 1.327 . S
C691 C707 1.429 . S
C691 H713 0.950 . S
C692 H688 0.949 . S
C692 C700 1.574 . S
C692 C708 1.368 . S
H693 C701 0.950 . S
H694 C699 0.950 . S
H695 C700 0.949 . S
H696 C702 0.950 . S
H697 C703 0.950 . S
H698 C704 0.949 . S
C699 H694 0.950 . S
C699 C701 1.327 . S
C699 C705 1.429 . S
C700 C692 1.574 . S
C700 H695 0.949 . S
C700 C706 1.368 . S
C701 C685 1.349 . S
C701 H693 0.950 . S
C701 C699 1.327 . S
C702 C690 1.349 . S
C702 H696 0.950 . S
C702 C703 1.327 . S
C703 H697 0.950 . S
C703 C702 1.327 . S
C703 C707 1.429 . S
C704 C687 1.574 . S
C704 H698 0.949 . S
C704 C708 1.368 . S
C705 C686 1.429 . S
C705 C699 1.429 . S
C705 C706 1.523 . S
C706 C687 1.368 . S
C706 C700 1.368 . S
C706 C705 1.523 . S
C707 C691 1.429 . S
C707 C703 1.429 . S
C707 C708 1.523 . S
C708 C692 1.368 . S
C708 C704 1.368 . S
C708 C707 1.523 . S
H709 C684 0.950 . S
H710 C686 0.950 . S
H711 C687 0.949 . S
H712 C689 0.950 . S
H713 C691 0.950 . S
C714 C715 1.349 . S
C714 C716 1.327 . S
C714 H739 0.950 . S
C715 C714 1.349 . S
C715 C731 1.349 . S
C716 C714 1.327 . S
C716 C735 1.429 . S
C716 H740 0.950 . S
C717 C734 1.574 . S
C717 C736 1.368 . S
C717 H741 0.949 . S
H718 C722 0.949 . S
C719 C720 1.349 . S
C719 C721 1.327 . S
C719 H742 0.950 . S
C720 C719 1.349 . S
C720 C732 1.349 . S
C721 C719 1.327 . S
C721 C737 1.429 . S
C721 H743 0.950 . S
C722 H718 0.949 . S
C722 C730 1.574 . S
C722 C738 1.368 . S
H723 C731 0.950 . S
H724 C729 0.950 . S
H725 C730 0.949 . S
H726 C732 0.950 . S
H727 C733 0.950 . S
H728 C734 0.949 . S
C729 H724 0.950 . S
C729 C731 1.327 . S
C729 C735 1.429 . S
C730 C722 1.574 . S
C730 H725 0.949 . S
C730 C736 1.368 . S
C731 C715 1.349 . S
C731 H723 0.950 . S
C731 C729 1.327 . S
C732 C720 1.349 . S
C732 H726 0.950 . S
C732 C733 1.327 . S
C733 H727 0.950 . S
C733 C732 1.327 . S
C733 C737 1.429 . S
C734 C717 1.574 . S
C734 H728 0.949 . S
C734 C738 1.368 . S
C735 C716 1.429 . S
C735 C729 1.429 . S
C735 C736 1.523 . S
C736 C717 1.368 . S
C736 C730 1.368 . S
C736 C735 1.523 . S
C737 C721 1.429 . S
C737 C733 1.429 . S
C737 C738 1.523 . S
C738 C722 1.368 . S
C738 C734 1.368 . S
C738 C737 1.523 . S
H739 C714 0.950 . S
H740 C716 0.950 . S
H741 C717 0.949 . S
H742 C719 0.950 . S
H743 C721 0.950 . S
C744 C745 1.349 . S
C744 C746 1.327 . S
C744 H769 0.950 . S
C745 C744 1.349 . S
C745 C761 1.349 . S
C746 C744 1.327 . S
C746 C765 1.429 . S
C746 H770 0.950 . S
C747 C764 1.574 . S
C747 C766 1.368 . S
C747 H771 0.949 . S
H748 C752 0.949 . S
C749 C750 1.349 . S
C749 C751 1.327 . S
C749 H772 0.950 . S
C750 C749 1.349 . S
C750 C762 1.349 . S
C751 C749 1.327 . S
C751 C767 1.429 . S
C751 H773 0.950 . S
C752 H748 0.949 . S
C752 C760 1.574 . S
C752 C768 1.368 . S
H753 C761 0.950 . S
H754 C759 0.950 . S
H755 C760 0.949 . S
H756 C762 0.950 . S
H757 C763 0.950 . S
H758 C764 0.949 . S
C759 H754 0.950 . S
C759 C761 1.327 . S
C759 C765 1.429 . S
C760 C752 1.574 . S
C760 H755 0.949 . S
C760 C766 1.368 . S
C761 C745 1.349 . S
C761 H753 0.950 . S
C761 C759 1.327 . S
C762 C750 1.349 . S
C762 H756 0.950 . S
C762 C763 1.327 . S
C763 H757 0.950 . S
C763 C762 1.327 . S
C763 C767 1.429 . S
C764 C747 1.574 . S
C764 H758 0.949 . S
C764 C768 1.368 . S
C765 C746 1.429 . S
C765 C759 1.429 . S
C765 C766 1.523 . S
C766 C747 1.368 . S
C766 C760 1.368 . S
C766 C765 1.523 . S
C767 C751 1.429 . S
C767 C763 1.429 . S
C767 C768 1.523 . S
C768 C752 1.368 . S
C768 C764 1.368 . S
C768 C767 1.523 . S
H769 C744 0.950 . S
H770 C746 0.950 . S
H771 C747 0.949 . S
H772 C749 0.950 . S
H773 C751 0.950 . S
C774 C775 1.349 . S
C774 C776 1.327 . S
C774 H799 0.950 . S
C775 C774 1.349 . S
C775 C791 1.349 . S
C776 C774 1.327 . S
C776 C795 1.429 . S
C776 H800 0.950 . S
C777 C794 1.574 . S
C777 C796 1.368 . S
C777 H801 0.949 . S
H778 C782 0.949 . S
C779 C780 1.349 . S
C779 C781 1.327 . S
C779 H802 0.950 . S
C780 C779 1.349 . S
C780 C792 1.349 . S
C781 C779 1.327 . S
C781 C797 1.429 . S
C781 H803 0.950 . S
C782 H778 0.949 . S
C782 C790 1.574 . S
C782 C798 1.368 . S
H783 C791 0.950 . S
H784 C789 0.950 . S
H785 C790 0.949 . S
H786 C792 0.950 . S
H787 C793 0.950 . S
H788 C794 0.949 . S
C789 H784 0.950 . S
C789 C791 1.327 . S
C789 C795 1.429 . S
C790 C782 1.574 . S
C790 H785 0.949 . S
C790 C796 1.368 . S
C791 C775 1.349 . S
C791 H783 0.950 . S
C791 C789 1.327 . S
C792 C780 1.349 . S
C792 H786 0.950 . S
C792 C793 1.327 . S
C793 H787 0.950 . S
C793 C792 1.327 . S
C793 C797 1.429 . S
C794 C777 1.574 . S
C794 H788 0.949 . S
C794 C798 1.368 . S
C795 C776 1.429 . S
C795 C789 1.429 . S
C795 C796 1.523 . S
C796 C777 1.368 . S
C796 C790 1.368 . S
C796 C795 1.523 . S
C797 C781 1.429 . S
C797 C793 1.429 . S
C797 C798 1.523 . S
C798 C782 1.368 . S
C798 C794 1.368 . S
C798 C797 1.523 . S
H799 C774 0.950 . S
H800 C776 0.950 . S
H801 C777 0.949 . S
H802 C779 0.950 . S
H803 C781 0.950 . S
C804 C805 1.349 . S
C804 C806 1.327 . S
C804 H829 0.950 . S
C805 C804 1.349 . S
C805 C821 1.349 . S
C806 C804 1.327 . S
C806 C825 1.429 . S
C806 H830 0.950 . S
C807 C824 1.574 . S
C807 C826 1.368 . S
C807 H831 0.949 . S
H808 C812 0.949 . S
C809 C810 1.349 . S
C809 C811 1.327 . S
C809 H832 0.950 . S
C810 C809 1.349 . S
C810 C822 1.349 . S
C811 C809 1.327 . S
C811 C827 1.429 . S
C811 H833 0.950 . S
C812 H808 0.949 . S
C812 C820 1.574 . S
C812 C828 1.368 . S
H813 C821 0.950 . S
H814 C819 0.950 . S
H815 C820 0.949 . S
H816 C822 0.950 . S
H817 C823 0.950 . S
H818 C824 0.949 . S
C819 H814 0.950 . S
C819 C821 1.327 . S
C819 C825 1.429 . S
C820 C812 1.574 . S
C820 H815 0.949 . S
C820 C826 1.368 . S
C821 C805 1.349 . S
C821 H813 0.950 . S
C821 C819 1.327 . S
C822 C810 1.349 . S
C822 H816 0.950 . S
C822 C823 1.327 . S
C823 H817 0.950 . S
C823 C822 1.327 . S
C823 C827 1.429 . S
C824 C807 1.574 . S
C824 H818 0.949 . S
C824 C828 1.368 . S
C825 C806 1.429 . S
C825 C819 1.429 . S
C825 C826 1.523 . S
C826 C807 1.368 . S
C826 C820 1.368 . S
C826 C825 1.523 . S
C827 C811 1.429 . S
C827 C823 1.429 . S
C827 C828 1.523 . S
C828 C812 1.368 . S
C828 C824 1.368 . S
C828 C827 1.523 . S
H829 C804 0.950 . S
H830 C806 0.950 . S
H831 C807 0.949 . S
H832 C809 0.950 . S
H833 C811 0.950 . S
C834 C835 1.349 . S
C834 C836 1.327 . S
C834 H859 0.950 . S
C835 C834 1.349 . S
C835 C851 1.349 . S
C836 C834 1.327 . S
C836 C855 1.429 . S
C836 H860 0.950 . S
C837 C854 1.574 . S
C837 C856 1.368 . S
C837 H861 0.949 . S
H838 C842 0.949 . S
C839 C840 1.349 . S
C839 C841 1.327 . S
C839 H862 0.950 . S
C840 C839 1.349 . S
C840 C852 1.349 . S
C841 C839 1.327 . S
C841 C857 1.429 . S
C841 H863 0.950 . S
C842 H838 0.949 . S
C842 C850 1.574 . S
C842 C858 1.368 . S
H843 C851 0.950 . S
H844 C849 0.950 . S
H845 C850 0.949 . S
H846 C852 0.950 . S
H847 C853 0.950 . S
H848 C854 0.949 . S
C849 H844 0.950 . S
C849 C851 1.327 . S
C849 C855 1.429 . S
C850 C842 1.574 . S
C850 H845 0.949 . S
C850 C856 1.368 . S
C851 C835 1.349 . S
C851 H843 0.950 . S
C851 C849 1.327 . S
C852 C840 1.349 . S
C852 H846 0.950 . S
C852 C853 1.327 . S
C853 H847 0.950 . S
C853 C852 1.327 . S
C853 C857 1.429 . S
C854 C837 1.574 . S
C854 H848 0.949 . S
C854 C858 1.368 . S
C855 C836 1.429 . S
C855 C849 1.429 . S
C855 C856 1.523 . S
C856 C837 1.368 . S
C856 C850 1.368 . S
C856 C855 1.523 . S
C857 C841 1.429 . S
C857 C853 1.429 . S
C857 C858 1.523 . S
C858 C842 1.368 . S
C858 C854 1.368 . S
C858 C857 1.523 . S
H859 C834 0.950 . S
H860 C836 0.950 . S
H861 C837 0.949 . S
H862 C839 0.950 . S
H863 C841 0.950 . S
C864 C865 1.349 . S
C864 C866 1.327 . S
C864 H889 0.950 . S
C865 C864 1.349 . S
C865 C881 1.349 . S
C866 C864 1.327 . S
C866 C885 1.429 . S
C866 H890 0.950 . S
C867 C884 1.574 . S
C867 C886 1.368 . S
C867 H891 0.949 . S
H868 C872 0.949 . S
C869 C870 1.349 . S
C869 C871 1.327 . S
C869 H892 0.950 . S
C870 C869 1.349 . S
C870 C882 1.349 . S
C871 C869 1.327 . S
C871 C887 1.429 . S
C871 H893 0.950 . S
C872 H868 0.949 . S
C872 C880 1.574 . S
C872 C888 1.368 . S
H873 C881 0.950 . S
H874 C879 0.950 . S
H875 C880 0.949 . S
H876 C882 0.950 . S
H877 C883 0.950 . S
H878 C884 0.949 . S
C879 H874 0.950 . S
C879 C881 1.327 . S
C879 C885 1.429 . S
C880 C872 1.574 . S
C880 H875 0.949 . S
C880 C886 1.368 . S
C881 C865 1.349 . S
C881 H873 0.950 . S
C881 C879 1.327 . S
C882 C870 1.349 . S
C882 H876 0.950 . S
C882 C883 1.327 . S
C883 H877 0.950 . S
C883 C882 1.327 . S
C883 C887 1.429 . S
C884 C867 1.574 . S
C884 H878 0.949 . S
C884 C888 1.368 . S
C885 C866 1.429 . S
C885 C879 1.429 . S
C885 C886 1.523 . S
C886 C867 1.368 . S
C886 C880 1.368 . S
C886 C885 1.523 . S
C887 C871 1.429 . S
C887 C883 1.429 . S
C887 C888 1.523 . S
C888 C872 1.368 . S
C888 C884 1.368 . S
C888 C887 1.523 . S
H889 C864 0.950 . S
H890 C866 0.950 . S
H891 C867 0.949 . S
H892 C869 0.950 . S
H893 C871 0.950 . S
C894 C895 1.349 . S
C894 C896 1.327 . S
C894 H919 0.950 . S
C895 C894 1.349 . S
C895 C911 1.349 . S
C896 C894 1.327 . S
C896 C915 1.429 . S
C896 H920 0.950 . S
C897 C914 1.574 . S
C897 C916 1.368 . S
C897 H921 0.949 . S
H898 C902 0.949 . S
C899 C900 1.349 . S
C899 C901 1.327 . S
C899 H922 0.950 . S
C900 C899 1.349 . S
C900 C912 1.349 . S
C901 C899 1.327 . S
C901 C917 1.429 . S
C901 H923 0.950 . S
C902 H898 0.949 . S
C902 C910 1.574 . S
C902 C918 1.368 . S
H903 C911 0.950 . S
H904 C909 0.950 . S
H905 C910 0.949 . S
H906 C912 0.950 . S
H907 C913 0.950 . S
H908 C914 0.949 . S
C909 H904 0.950 . S
C909 C911 1.327 . S
C909 C915 1.429 . S
C910 C902 1.574 . S
C910 H905 0.949 . S
C910 C916 1.368 . S
C911 C895 1.349 . S
C911 H903 0.950 . S
C911 C909 1.327 . S
C912 C900 1.349 . S
C912 H906 0.950 . S
C912 C913 1.327 . S
C913 H907 0.950 . S
C913 C912 1.327 . S
C913 C917 1.429 . S
C914 C897 1.574 . S
C914 H908 0.949 . S
C914 C918 1.368 . S
C915 C896 1.429 . S
C915 C909 1.429 . S
C915 C916 1.523 . S
C916 C897 1.368 . S
C916 C910 1.368 . S
C916 C915 1.523 . S
C917 C901 1.429 . S
C917 C913 1.429 . S
C917 C918 1.523 . S
C918 C902 1.368 . S
C918 C914 1.368 . S
C918 C917 1.523 . S
H919 C894 0.950 . S
H920 C896 0.950 . S
H921 C897 0.949 . S
H922 C899 0.950 . S
H923 C901 0.950 . S
C924 C925 1.349 1_556 S
C924 C926 1.327 . S
C924 H949 0.950 . S
C925 C924 1.349 1_554 S
C925 C941 1.349 . S
C926 C924 1.327 . S
C926 C945 1.429 1_556 S
C926 H950 0.950 . S
C927 C944 1.574 . S
C927 C946 1.368 . S
C927 H951 0.949 . S
H928 C932 0.949 . S
C929 C930 1.349 . S
C929 C931 1.327 . S
C929 H952 0.950 . S
C930 C929 1.349 . S
C930 C942 1.349 1_554 S
C931 C929 1.327 . S
C931 C947 1.429 . S
C931 H953 0.950 . S
C932 H928 0.949 . S
C932 C940 1.574 . S
C932 C948 1.368 1_556 S
H933 C941 0.950 . S
H934 C939 0.950 . S
H935 C940 0.949 . S
H936 C942 0.950 . S
H937 C943 0.950 . S
H938 C944 0.949 . S
C939 H934 0.950 . S
C939 C941 1.327 . S
C939 C945 1.429 . S
C940 C932 1.574 . S
C940 H935 0.949 . S
C940 C946 1.368 1_556 S
C941 C925 1.349 . S
C941 H933 0.950 . S
C941 C939 1.327 . S
C942 C930 1.349 1_556 S
C942 H936 0.950 . S
C942 C943 1.327 . S
C943 H937 0.950 . S
C943 C942 1.327 . S
C943 C947 1.429 1_556 S
C944 C927 1.574 . S
C944 H938 0.949 . S
C944 C948 1.368 . S
C945 C926 1.429 1_554 S
C945 C939 1.429 . S
C945 C946 1.523 . S
C946 C927 1.368 . S
C946 C940 1.368 1_554 S
C946 C945 1.523 . S
C947 C931 1.429 . S
C947 C943 1.429 1_554 S
C947 C948 1.523 . S
C948 C932 1.368 1_554 S
C948 C944 1.368 . S
C948 C947 1.523 . S
H949 C924 0.950 . S
H950 C926 0.950 . S
H951 C927 0.949 . S
H952 C929 0.950 . S
H953 C931 0.950 . S
C954 C955 1.349 . S
C954 C956 1.327 . S
C954 H979 0.950 . S
C955 C954 1.349 . S
C955 C971 1.349 1_554 S
C956 C954 1.327 . S
C956 C975 1.429 . S
C956 H980 0.950 . S
C957 C974 1.574 . S
C957 C976 1.368 1_556 S
C957 H981 0.949 . S
H958 C962 0.949 . S
C959 C960 1.349 1_556 S
C959 C961 1.327 . S
C959 H982 0.950 . S
C960 C959 1.349 1_554 S
C960 C972 1.349 . S
C961 C959 1.327 . S
C961 C977 1.429 1_556 S
C961 H983 0.950 . S
C962 H958 0.949 . S
C962 C970 1.574 . S
C962 C978 1.368 . S
H963 C971 0.950 . S
H964 C969 0.950 . S
H965 C970 0.949 . S
H966 C972 0.950 . S
H967 C973 0.950 . S
H968 C974 0.949 . S
C969 H964 0.950 . S
C969 C971 1.327 . S
C969 C975 1.429 1_556 S
C970 C962 1.574 . S
C970 H965 0.949 . S
C970 C976 1.368 . S
C971 C955 1.349 1_556 S
C971 H963 0.950 . S
C971 C969 1.327 . S
C972 C960 1.349 . S
C972 H966 0.950 . S
C972 C973 1.327 . S
C973 H967 0.950 . S
C973 C972 1.327 . S
C973 C977 1.429 . S
C974 C957 1.574 . S
C974 H968 0.949 . S
C974 C978 1.368 1_556 S
C975 C956 1.429 . S
C975 C969 1.429 1_554 S
C975 C976 1.523 . S
C976 C957 1.368 1_554 S
C976 C970 1.368 . S
C976 C975 1.523 . S
C977 C961 1.429 1_554 S
C977 C973 1.429 . S
C977 C978 1.523 . S
C978 C962 1.368 . S
C978 C974 1.368 1_554 S
C978 C977 1.523 . S
H979 C954 0.950 . S
H980 C956 0.950 . S
H981 C957 0.949 . S
H982 C959 0.950 . S
H983 C961 0.950 . S
C984 C985 1.349 . S
C984 C986 1.327 . S
C984 H1009 0.950 . S
C985 C984 1.349 . S
C985 C1001 1.349 1_554 S
C986 C984 1.327 . S
C986 C1005 1.429 . S
C986 H1010 0.950 . S
C987 C1004 1.574 . S
C987 C1006 1.368 1_556 S
C987 H1011 0.949 . S
H988 C992 0.949 . S
C989 C990 1.349 1_556 S
C989 C991 1.327 . S
C989 H1012 0.950 . S
C990 C989 1.349 1_554 S
C990 C1002 1.349 . S
C991 C989 1.327 . S
C991 C1007 1.429 1_556 S
C991 H1013 0.950 . S
C992 H988 0.949 . S
C992 C1000 1.574 . S
C992 C1008 1.368 . S
H993 C1001 0.950 . S
H994 C999 0.950 . S
H995 C1000 0.949 . S
H996 C1002 0.950 . S
H997 C1003 0.950 . S
H998 C1004 0.949 . S
C999 H994 0.950 . S
C999 C1001 1.327 . S
C999 C1005 1.429 1_556 S
C1000 C992 1.574 . S
C1000 H995 0.949 . S
C1000 C1006 1.368 . S
C1001 C985 1.349 1_556 S
C1001 H993 0.950 . S
C1001 C999 1.327 . S
C1002 C990 1.349 . S
C1002 H996 0.950 . S
C1002 C1003 1.327 . S
C1003 H997 0.950 . S
C1003 C1002 1.327 . S
C1003 C1007 1.429 . S
C1004 C987 1.574 . S
C1004 H998 0.949 . S
C1004 C1008 1.368 1_556 S
C1005 C986 1.429 . S
C1005 C999 1.429 1_554 S
C1005 C1006 1.523 . S
C1006 C987 1.368 1_554 S
C1006 C1000 1.368 . S
C1006 C1005 1.523 . S
C1007 C991 1.429 1_554 S
C1007 C1003 1.429 . S
C1007 C1008 1.523 . S
C1008 C992 1.368 . S
C1008 C1004 1.368 1_554 S
C1008 C1007 1.523 . S
H1009 C984 0.950 . S
H1010 C986 0.950 . S
H1011 C987 0.949 . S
H1012 C989 0.950 . S
H1013 C991 0.950 . S
C1014 C1015 1.349 1_556 S
C1014 C1016 1.327 . S
C1014 H1039 0.950 . S
C1015 C1014 1.349 1_554 S
C1015 C1031 1.349 . S
C1016 C1014 1.327 . S
C1016 C1035 1.429 1_556 S
C1016 H1040 0.950 . S
C1017 C1034 1.574 . S
C1017 C1036 1.368 . S
C1017 H1041 0.949 . S
H1018 C1022 0.949 . S
C1019 C1020 1.349 . S
C1019 C1021 1.327 . S
C1019 H1042 0.950 . S
C1020 C1019 1.349 . S
C1020 C1032 1.349 1_554 S
C1021 C1019 1.327 . S
C1021 C1037 1.429 . S
C1021 H1043 0.950 . S
C1022 H1018 0.949 . S
C1022 C1030 1.574 . S
C1022 C1038 1.368 1_556 S
H1023 C1031 0.950 . S
H1024 C1029 0.950 . S
H1025 C1030 0.949 . S
H1026 C1032 0.950 . S
H1027 C1033 0.950 . S
H1028 C1034 0.949 . S
C1029 H1024 0.950 . S
C1029 C1031 1.327 . S
C1029 C1035 1.429 . S
C1030 C1022 1.574 . S
C1030 H1025 0.949 . S
C1030 C1036 1.368 1_556 S
C1031 C1015 1.349 . S
C1031 H1023 0.950 . S
C1031 C1029 1.327 . S
C1032 C1020 1.349 1_556 S
C1032 H1026 0.950 . S
C1032 C1033 1.327 . S
C1033 H1027 0.950 . S
C1033 C1032 1.327 . S
C1033 C1037 1.429 1_556 S
C1034 C1017 1.574 . S
C1034 H1028 0.949 . S
C1034 C1038 1.368 . S
C1035 C1016 1.429 1_554 S
C1035 C1029 1.429 . S
C1035 C1036 1.523 . S
C1036 C1017 1.368 . S
C1036 C1030 1.368 1_554 S
C1036 C1035 1.523 . S
C1037 C1021 1.429 . S
C1037 C1033 1.429 1_554 S
C1037 C1038 1.523 . S
C1038 C1022 1.368 1_554 S
C1038 C1034 1.368 . S
C1038 C1037 1.523 . S
H1039 C1014 0.950 . S
H1040 C1016 0.950 . S
H1041 C1017 0.949 . S
H1042 C1019 0.950 . S
H1043 C1021 0.950 . S
C1044 C1045 1.349 . S
C1044 C1046 1.327 . S
C1044 H1069 0.950 . S
C1045 C1044 1.349 . S
C1045 C1061 1.349 . S
C1046 C1044 1.327 . S
C1046 C1065 1.429 . S
C1046 H1070 0.950 . S
C1047 C1064 1.574 . S
C1047 C1066 1.368 . S
C1047 H1071 0.949 . S
H1048 C1052 0.949 . S
C1049 C1050 1.349 . S
C1049 C1051 1.327 . S
C1049 H1072 0.950 . S
C1050 C1049 1.349 . S
C1050 C1062 1.349 . S
C1051 C1049 1.327 . S
C1051 C1067 1.429 . S
C1051 H1073 0.950 . S
C1052 H1048 0.949 . S
C1052 C1060 1.574 . S
C1052 C1068 1.368 . S
H1053 C1061 0.950 . S
H1054 C1059 0.950 . S
H1055 C1060 0.949 . S
H1056 C1062 0.950 . S
H1057 C1063 0.950 . S
H1058 C1064 0.949 . S
C1059 H1054 0.950 . S
C1059 C1061 1.327 . S
C1059 C1065 1.429 . S
C1060 C1052 1.574 . S
C1060 H1055 0.949 . S
C1060 C1066 1.368 . S
C1061 C1045 1.349 . S
C1061 H1053 0.950 . S
C1061 C1059 1.327 . S
C1062 C1050 1.349 . S
C1062 H1056 0.950 . S
C1062 C1063 1.327 . S
C1063 H1057 0.950 . S
C1063 C1062 1.327 . S
C1063 C1067 1.429 . S
C1064 C1047 1.574 . S
C1064 H1058 0.949 . S
C1064 C1068 1.368 . S
C1065 C1046 1.429 . S
C1065 C1059 1.429 . S
C1065 C1066 1.523 . S
C1066 C1047 1.368 . S
C1066 C1060 1.368 . S
C1066 C1065 1.523 . S
C1067 C1051 1.429 . S
C1067 C1063 1.429 . S
C1067 C1068 1.523 . S
C1068 C1052 1.368 . S
C1068 C1064 1.368 . S
C1068 C1067 1.523 . S
H1069 C1044 0.950 . S
H1070 C1046 0.950 . S
H1071 C1047 0.949 . S
H1072 C1049 0.950 . S
H1073 C1051 0.950 . S
C1074 C1075 1.349 1_565 S
C1074 C1076 1.327 . S
C1074 H1099 0.950 . S
C1075 C1074 1.349 1_545 S
C1075 C1091 1.349 . S
C1076 C1074 1.327 . S
C1076 C1095 1.395 1_565 S
C1076 H1100 0.950 . S
C1077 C1094 1.574 . S
C1077 C1096 1.404 . S
C1077 H1101 0.949 . S
H1078 C1082 0.949 . S
C1079 C1080 1.372 . S
C1079 C1081 1.327 . S
C1079 H1102 0.950 . S
C1080 C1079 1.372 . S
C1080 C1092 1.326 1_545 S
C1081 C1079 1.327 . S
C1081 C1097 1.455 . S
C1081 H1103 0.950 . S
C1082 H1078 0.949 . S
C1082 C1090 1.574 . S
C1082 C1098 1.337 1_565 S
H1083 C1091 0.950 . S
H1084 C1089 0.950 . S
H1085 C1090 0.949 . S
H1086 C1092 0.950 . S
H1087 C1093 0.950 . S
H1088 C1094 0.949 . S
C1089 H1084 0.950 . S
C1089 C1091 1.327 . S
C1089 C1095 1.463 . S
C1090 C1082 1.574 . S
C1090 H1085 0.949 . S
C1090 C1096 1.333 1_565 S
C1091 C1075 1.349 . S
C1091 H1083 0.950 . S
C1091 C1089 1.327 . S
C1092 C1080 1.326 1_565 S
C1092 H1086 0.950 . S
C1092 C1093 1.327 . S
C1093 H1087 0.950 . S
C1093 C1092 1.327 . S
C1093 C1097 1.403 1_565 S
C1094 C1077 1.574 . S
C1094 H1088 0.949 . S
C1094 C1098 1.400 . S
C1095 C1076 1.395 1_545 S
C1095 C1089 1.463 . S
C1095 C1096 1.523 . S
C1096 C1077 1.404 . S
C1096 C1090 1.333 1_545 S
C1096 C1095 1.523 . S
C1097 C1081 1.455 . S
C1097 C1093 1.403 1_545 S
C1097 C1098 1.523 . S
C1098 C1082 1.337 1_545 S
C1098 C1094 1.400 . S
C1098 C1097 1.523 . S
H1099 C1074 0.950 . S
H1100 C1076 0.950 . S
H1101 C1077 0.949 . S
H1102 C1079 0.950 . S
H1103 C1081 0.950 . S
C1104 C1105 1.349 . S
C1104 C1106 1.327 . S
C1104 H1129 0.950 1_455 S
C1105 C1104 1.349 . S
C1105 C1121 1.349 . S
C1106 C1104 1.327 . S
C1106 C1125 1.429 . S
C1106 H1130 0.950 1_455 S
C1107 C1124 1.574 . S
C1107 C1126 1.368 . S
C1107 H1131 0.949 . S
H1108 C1112 0.949 1_655 S
C1109 C1110 1.349 . S
C1109 C1111 1.327 . S
C1109 H1132 0.950 . S
C1110 C1109 1.349 . S
C1110 C1122 1.349 . S
C1111 C1109 1.327 . S
C1111 C1127 1.429 . S
C1111 H1133 0.950 . S
C1112 H1108 0.949 1_455 S
C1112 C1120 1.574 . S
C1112 C1128 1.368 . S
H1113 C1121 0.950 . S
H1114 C1119 0.950 . S
H1115 C1120 0.949 1_655 S
H1116 C1122 0.950 1_655 S
H1117 C1123 0.950 1_655 S
H1118 C1124 0.949 . S
C1119 H1114 0.950 . S
C1119 C1121 1.327 . S
C1119 C1125 1.429 . S
C1120 C1112 1.574 . S
C1120 H1115 0.949 1_455 S
C1120 C1126 1.368 . S
C1121 C1105 1.349 . S
C1121 H1113 0.950 . S
C1121 C1119 1.327 . S
C1122 C1110 1.349 . S
C1122 H1116 0.950 1_455 S
C1122 C1123 1.327 . S
C1123 H1117 0.950 1_455 S
C1123 C1122 1.327 . S
C1123 C1127 1.429 . S
C1124 C1107 1.574 . S
C1124 H1118 0.949 . S
C1124 C1128 1.368 . S
C1125 C1106 1.429 . S
C1125 C1119 1.429 . S
C1125 C1126 1.523 . S
C1126 C1107 1.368 . S
C1126 C1120 1.368 . S
C1126 C1125 1.523 . S
C1127 C1111 1.429 . S
C1127 C1123 1.429 . S
C1127 C1128 1.523 . S
C1128 C1112 1.368 . S
C1128 C1124 1.368 . S
C1128 C1127 1.523 . S
H1129 C1104 0.950 1_655 S
H1130 C1106 0.950 1_655 S
H1131 C1107 0.949 . S
H1132 C1109 0.950 . S
H1133 C1111 0.950 . S
C1134 C1135 1.349 . S
C1134 C1136 1.327 . S
C1134 H1159 0.950 . S
C1135 C1134 1.349 . S
C1135 C1151 1.349 1_545 S
C1136 C1134 1.327 . S
C1136 C1155 1.463 . S
C1136 H1160 0.950 . S
C1137 C1154 1.574 . S
C1137 C1156 1.334 1_565 S
C1137 H1161 0.949 . S
H1138 C1142 0.949 . S
C1139 C1140 1.326 1_565 S
C1139 C1141 1.327 . S
C1139 H1162 0.950 . S
C1140 C1139 1.326 1_545 S
C1140 C1152 1.372 . S
C1141 C1139 1.327 . S
C1141 C1157 1.402 1_565 S
C1141 H1163 0.950 . S
C1142 H1138 0.949 . S
C1142 C1150 1.574 . S
C1142 C1158 1.400 . S
H1143 C1151 0.950 . S
H1144 C1149 0.950 . S
H1145 C1150 0.949 . S
H1146 C1152 0.950 . S
H1147 C1153 0.950 . S
H1148 C1154 0.949 . S
C1149 H1144 0.950 . S
C1149 C1151 1.327 . S
C1149 C1155 1.395 1_565 S
C1150 C1142 1.574 . S
C1150 H1145 0.949 . S
C1150 C1156 1.404 . S
C1151 C1135 1.349 1_565 S
C1151 H1143 0.950 . S
C1151 C1149 1.327 . S
C1152 C1140 1.372 . S
C1152 H1146 0.950 . S
C1152 C1153 1.327 . S
C1153 H1147 0.950 . S
C1153 C1152 1.327 . S
C1153 C1157 1.455 . S
C1154 C1137 1.574 . S
C1154 H1148 0.949 . S
C1154 C1158 1.337 1_565 S
C1155 C1136 1.463 . S
C1155 C1149 1.395 1_545 S
C1155 C1156 1.523 . S
C1156 C1137 1.334 1_545 S
C1156 C1150 1.404 . S
C1156 C1155 1.523 . S
C1157 C1141 1.402 1_545 S
C1157 C1153 1.455 . S
C1157 C1158 1.523 . S
C1158 C1142 1.400 . S
C1158 C1154 1.337 1_545 S
C1158 C1157 1.523 . S
H1159 C1134 0.950 . S
H1160 C1136 0.950 . S
H1161 C1137 0.949 . S
H1162 C1139 0.950 . S
H1163 C1141 0.950 . S
C1164 C1165 1.349 . S
C1164 C1166 1.327 . S
C1164 H1189 0.950 . S
C1165 C1164 1.349 . S
C1165 C1181 1.349 . S
C1166 C1164 1.327 . S
C1166 C1185 1.429 . S
C1166 H1190 0.950 . S
C1167 C1184 1.574 . S
C1167 C1186 1.388 . S
C1167 H1191 0.932 1_455 S
H1168 C1172 0.949 . S
C1169 C1170 1.349 . S
C1169 C1171 1.327 . S
C1169 H1192 0.950 1_455 S
C1170 C1169 1.349 . S
C1170 C1182 1.349 . S
C1171 C1169 1.327 . S
C1171 C1187 1.429 . S
C1171 H1193 0.950 1_455 S
C1172 H1168 0.949 . S
C1172 C1180 1.574 . S
C1172 C1188 1.368 . S
H1173 C1181 0.950 1_655 S
H1174 C1179 0.950 1_655 S
H1175 C1180 0.949 . S
H1176 C1182 0.950 . S
H1177 C1183 0.950 . S
H1178 C1184 0.930 1_655 S
C1179 H1174 0.950 1_455 S
C1179 C1181 1.327 . S
C1179 C1185 1.429 . S
C1180 C1172 1.574 . S
C1180 H1175 0.949 . S
C1180 C1186 1.368 . S
C1181 C1165 1.349 . S
C1181 H1173 0.950 1_455 S
C1181 C1179 1.327 . S
C1182 C1170 1.349 . S
C1182 H1176 0.950 . S
C1182 C1183 1.327 . S
C1183 H1177 0.950 . S
C1183 C1182 1.327 . S
C1183 C1187 1.429 . S
C1184 C1167 1.574 . S
C1184 H1178 0.930 1_455 S
C1184 C1188 1.390 . S
C1185 C1166 1.429 . S
C1185 C1179 1.429 . S
C1185 C1186 1.523 . S
C1186 C1167 1.388 . S
C1186 C1180 1.368 . S
C1186 C1185 1.523 . S
C1187 C1171 1.429 . S
C1187 C1183 1.429 . S
C1187 C1188 1.523 . S
C1188 C1172 1.368 . S
C1188 C1184 1.390 . S
C1188 C1187 1.523 . S
H1189 C1164 0.950 . S
H1190 C1166 0.950 . S
H1191 C1167 0.932 1_655 S
H1192 C1169 0.950 1_655 S
H1193 C1171 0.950 1_655 S
C1194 C1195 1.352 1_565 S
C1194 C1196 1.327 . S
C1194 H1219 0.950 . S
C1195 C1194 1.352 1_545 S
C1195 C1211 1.346 . S
C1196 C1194 1.327 . S
C1196 C1215 1.427 1_565 S
C1196 H1220 0.950 . S
C1197 C1214 1.574 . S
C1197 C1216 1.372 . S
C1197 H1221 0.949 . S
H1198 C1202 0.949 . S
C1199 C1200 1.363 . S
C1199 C1201 1.327 . S
C1199 H1222 0.950 . S
C1200 C1199 1.363 . S
C1200 C1212 1.335 1_545 S
C1201 C1199 1.327 . S
C1201 C1217 1.438 . S
C1201 H1223 0.950 . S
C1202 H1198 0.949 . S
C1202 C1210 1.574 . S
C1202 C1218 1.360 1_565 S
H1203 C1211 0.950 . S
H1204 C1209 0.950 . S
H1205 C1210 0.949 . S
H1206 C1212 0.950 . S
H1207 C1213 0.950 . S
H1208 C1214 0.949 . S
C1209 H1204 0.950 . S
C1209 C1211 1.327 . S
C1209 C1215 1.430 . S
C1210 C1202 1.574 . S
C1210 H1205 0.949 . S
C1210 C1216 1.364 1_565 S
C1211 C1195 1.346 . S
C1211 H1203 0.950 . S
C1211 C1209 1.327 . S
C1212 C1200 1.335 1_565 S
C1212 H1206 0.950 . S
C1212 C1213 1.327 . S
C1213 H1207 0.950 . S
C1213 C1212 1.327 . S
C1213 C1217 1.419 1_565 S
C1214 C1197 1.574 . S
C1214 H1208 0.949 . S
C1214 C1218 1.376 . S
C1215 C1196 1.427 1_545 S
C1215 C1209 1.430 . S
C1215 C1216 1.523 . S
C1216 C1197 1.372 . S
C1216 C1210 1.364 1_545 S
C1216 C1215 1.523 . S
C1217 C1201 1.438 . S
C1217 C1213 1.419 1_545 S
C1217 C1218 1.523 . S
C1218 C1202 1.360 1_545 S
C1218 C1214 1.376 . S
C1218 C1217 1.523 . S
H1219 C1194 0.950 . S
H1220 C1196 0.950 . S
H1221 C1197 0.949 . S
H1222 C1199 0.950 . S
H1223 C1201 0.950 . S
C1224 C1225 1.349 . S
C1224 C1226 1.327 . S
C1224 H1249 0.950 . S
C1225 C1224 1.349 . S
C1225 C1241 1.349 1_455 S
C1226 C1224 1.327 . S
C1226 C1245 1.429 . S
C1226 H1250 0.950 . S
C1227 C1244 1.574 . S
C1227 C1246 1.368 1_655 S
C1227 H1251 0.949 . S
H1228 C1232 0.949 . S
C1229 C1230 1.349 1_655 S
C1229 C1231 1.327 . S
C1229 H1252 0.950 . S
C1230 C1229 1.349 1_455 S
C1230 C1242 1.349 . S
C1231 C1229 1.327 . S
C1231 C1247 1.429 1_655 S
C1231 H1253 0.950 . S
C1232 H1228 0.949 . S
C1232 C1240 1.574 . S
C1232 C1248 1.368 . S
H1233 C1241 0.950 . S
H1234 C1239 0.950 . S
H1235 C1240 0.949 . S
H1236 C1242 0.950 . S
H1237 C1243 0.950 . S
H1238 C1244 0.949 . S
C1239 H1234 0.950 . S
C1239 C1241 1.327 . S
C1239 C1245 1.429 1_655 S
C1240 C1232 1.574 . S
C1240 H1235 0.949 . S
C1240 C1246 1.368 . S
C1241 C1225 1.349 1_655 S
C1241 H1233 0.950 . S
C1241 C1239 1.327 . S
C1242 C1230 1.349 . S
C1242 H1236 0.950 . S
C1242 C1243 1.327 . S
C1243 H1237 0.950 . S
C1243 C1242 1.327 . S
C1243 C1247 1.429 . S
C1244 C1227 1.574 . S
C1244 H1238 0.949 . S
C1244 C1248 1.368 1_655 S
C1245 C1226 1.429 . S
C1245 C1239 1.429 1_455 S
C1245 C1246 1.523 . S
C1246 C1227 1.368 1_455 S
C1246 C1240 1.368 . S
C1246 C1245 1.523 . S
C1247 C1231 1.429 1_455 S
C1247 C1243 1.429 . S
C1247 C1248 1.523 . S
C1248 C1232 1.368 . S
C1248 C1244 1.368 1_455 S
C1248 C1247 1.523 . S
H1249 C1224 0.950 . S
H1250 C1226 0.950 . S
H1251 C1227 0.949 . S
H1252 C1229 0.950 . S
H1253 C1231 0.950 . S
C1254 C1255 1.345 . S
C1254 C1256 1.327 . S
C1254 H1279 0.950 . S
C1255 C1254 1.345 . S
C1255 C1271 1.352 1_545 S
C1256 C1254 1.327 . S
C1256 C1275 1.430 . S
C1256 H1280 0.950 . S
C1257 C1274 1.574 . S
C1257 C1276 1.365 1_565 S
C1257 H1281 0.949 . S
H1258 C1262 0.949 . S
C1259 C1260 1.334 1_565 S
C1259 C1261 1.327 . S
C1259 H1282 0.950 . S
C1260 C1259 1.334 1_545 S
C1260 C1272 1.364 . S
C1261 C1259 1.327 . S
C1261 C1277 1.419 1_565 S
C1261 H1283 0.950 . S
C1262 H1258 0.949 . S
C1262 C1270 1.574 . S
C1262 C1278 1.377 . S
H1263 C1271 0.950 . S
H1264 C1269 0.950 . S
H1265 C1270 0.949 . S
H1266 C1272 0.950 . S
H1267 C1273 0.950 . S
H1268 C1274 0.949 . S
C1269 H1264 0.950 . S
C1269 C1271 1.327 . S
C1269 C1275 1.427 1_565 S
C1270 C1262 1.574 . S
C1270 H1265 0.949 . S
C1270 C1276 1.372 . S
C1271 C1255 1.352 1_565 S
C1271 H1263 0.950 . S
C1271 C1269 1.327 . S
C1272 C1260 1.364 . S
C1272 H1266 0.950 . S
C1272 C1273 1.327 . S
C1273 H1267 0.950 . S
C1273 C1272 1.327 . S
C1273 C1277 1.439 . S
C1274 C1257 1.574 . S
C1274 H1268 0.949 . S
C1274 C1278 1.360 1_565 S
C1275 C1256 1.430 . S
C1275 C1269 1.427 1_545 S
C1275 C1276 1.523 . S
C1276 C1257 1.365 1_545 S
C1276 C1270 1.372 . S
C1276 C1275 1.523 . S
C1277 C1261 1.419 1_545 S
C1277 C1273 1.439 . S
C1277 C1278 1.523 . S
C1278 C1262 1.377 . S
C1278 C1274 1.360 1_545 S
C1278 C1277 1.523 . S
H1279 C1254 0.950 . S
H1280 C1256 0.950 . S
H1281 C1257 0.949 . S
H1282 C1259 0.950 . S
H1283 C1261 0.950 . S
C1284 C1285 1.349 . S
C1284 C1286 1.327 . S
C1284 H1309 0.950 . S
C1285 C1284 1.349 . S
C1285 C1301 1.349 . S
C1286 C1284 1.327 . S
C1286 C1305 1.429 . S
C1286 H1310 0.950 . S
C1287 C1304 1.574 . S
C1287 C1306 1.368 . S
C1287 H1311 0.949 1_455 S
H1288 C1292 0.949 . S
C1289 C1290 1.349 . S
C1289 C1291 1.327 . S
C1289 H1312 0.950 1_455 S
C1290 C1289 1.349 . S
C1290 C1302 1.349 . S
C1291 C1289 1.327 . S
C1291 C1307 1.429 . S
C1291 H1313 0.950 1_455 S
C1292 H1288 0.949 . S
C1292 C1300 1.574 . S
C1292 C1308 1.368 . S
H1293 C1301 0.950 1_655 S
H1294 C1299 0.950 1_655 S
H1295 C1300 0.949 . S
H1296 C1302 0.950 . S
H1297 C1303 0.950 . S
H1298 C1304 0.949 1_655 S
C1299 H1294 0.950 1_455 S
C1299 C1301 1.327 . S
C1299 C1305 1.429 . S
C1300 C1292 1.574 . S
C1300 H1295 0.949 . S
C1300 C1306 1.368 . S
C1301 C1285 1.349 . S
C1301 H1293 0.950 1_455 S
C1301 C1299 1.327 . S
C1302 C1290 1.349 . S
C1302 H1296 0.950 . S
C1302 C1303 1.327 . S
C1303 H1297 0.950 . S
C1303 C1302 1.327 . S
C1303 C1307 1.429 . S
C1304 C1287 1.574 . S
C1304 H1298 0.949 1_455 S
C1304 C1308 1.368 . S
C1305 C1286 1.429 . S
C1305 C1299 1.429 . S
C1305 C1306 1.523 . S
C1306 C1287 1.368 . S
C1306 C1300 1.368 . S
C1306 C1305 1.523 . S
C1307 C1291 1.429 . S
C1307 C1303 1.429 . S
C1307 C1308 1.523 . S
C1308 C1292 1.368 . S
C1308 C1304 1.368 . S
C1308 C1307 1.523 . S
H1309 C1284 0.950 . S
H1310 C1286 0.950 . S
H1311 C1287 0.949 1_655 S
H1312 C1289 0.950 1_655 S
H1313 C1291 0.950 1_655 S
C1314 C1315 1.350 . S
C1314 C1316 1.327 . S
C1314 H1339 0.950 . S
C1315 C1314 1.350 . S
C1315 C1331 1.348 1_545 S
C1316 C1314 1.327 . S
C1316 C1335 1.433 . S
C1316 H1340 0.950 . S
C1317 C1334 1.574 . S
C1317 C1336 1.361 1_565 S
C1317 H1341 0.949 . S
H1318 C1322 0.949 . S
C1319 C1320 1.331 1_565 S
C1319 C1321 1.327 . S
C1319 H1342 0.950 . S
C1320 C1319 1.331 1_545 S
C1320 C1332 1.367 . S
C1321 C1319 1.327 . S
C1321 C1337 1.416 1_565 S
C1321 H1343 0.950 . S
C1322 H1318 0.949 . S
C1322 C1330 1.574 . S
C1322 C1338 1.380 . S
H1323 C1331 0.950 . S
H1324 C1329 0.950 . S
H1325 C1330 0.949 . S
H1326 C1332 0.950 . S
H1327 C1333 0.950 . S
H1328 C1334 0.949 . S
C1329 H1324 0.950 . S
C1329 C1331 1.327 . S
C1329 C1335 1.424 1_565 S
C1330 C1322 1.574 . S
C1330 H1325 0.949 . S
C1330 C1336 1.376 . S
C1331 C1315 1.348 1_565 S
C1331 H1323 0.950 . S
C1331 C1329 1.327 . S
C1332 C1320 1.367 . S
C1332 H1326 0.950 . S
C1332 C1333 1.327 . S
C1333 H1327 0.950 . S
C1333 C1332 1.327 . S
C1333 C1337 1.442 . S
C1334 C1317 1.574 . S
C1334 H1328 0.949 . S
C1334 C1338 1.356 1_565 S
C1335 C1316 1.433 . S
C1335 C1329 1.424 1_545 S
C1335 C1336 1.523 . S
C1336 C1317 1.361 1_545 S
C1336 C1330 1.376 . S
C1336 C1335 1.523 . S
C1337 C1321 1.416 1_545 S
C1337 C1333 1.442 . S
C1337 C1338 1.523 . S
C1338 C1322 1.380 . S
C1338 C1334 1.356 1_545 S
C1338 C1337 1.523 . S
H1339 C1314 0.950 . S
H1340 C1316 0.950 . S
H1341 C1317 0.949 . S
H1342 C1319 0.950 . S
H1343 C1321 0.950 . S
C1344 C1345 1.349 . S
C1344 C1346 1.327 . S
C1344 H1369 0.950 . S
C1345 C1344 1.349 . S
C1345 C1361 1.349 . S
C1346 C1344 1.327 . S
C1346 C1365 1.429 . S
C1346 H1370 0.950 . S
C1347 C1364 1.574 . S
C1347 C1366 1.368 . S
C1347 H1371 0.949 1_455 S
H1348 C1352 0.949 . S
C1349 C1350 1.349 . S
C1349 C1351 1.327 . S
C1349 H1372 0.950 . S
C1350 C1349 1.349 . S
C1350 C1362 1.349 . S
C1351 C1349 1.327 . S
C1351 C1367 1.429 . S
C1351 H1373 0.926 1_455 S
C1352 H1348 0.949 . S
C1352 C1360 1.574 . S
C1352 C1368 1.368 . S
H1353 C1361 0.950 1_655 S
H1354 C1359 0.950 1_655 S
H1355 C1360 0.949 . S
H1356 C1362 0.950 . S
H1357 C1363 0.950 . S
H1358 C1364 0.949 1_655 S
C1359 H1354 0.950 1_455 S
C1359 C1361 1.327 . S
C1359 C1365 1.429 . S
C1360 C1352 1.574 . S
C1360 H1355 0.949 . S
C1360 C1366 1.368 . S
C1361 C1345 1.349 . S
C1361 H1353 0.950 1_455 S
C1361 C1359 1.327 . S
C1362 C1350 1.349 . S
C1362 H1356 0.950 . S
C1362 C1363 1.327 . S
C1363 H1357 0.950 . S
C1363 C1362 1.327 . S
C1363 C1367 1.429 . S
C1364 C1347 1.574 . S
C1364 H1358 0.949 1_455 S
C1364 C1368 1.368 . S
C1365 C1346 1.429 . S
C1365 C1359 1.429 . S
C1365 C1366 1.523 . S
C1366 C1347 1.368 . S
C1366 C1360 1.368 . S
C1366 C1365 1.523 . S
C1367 C1351 1.429 . S
C1367 C1363 1.429 . S
C1367 C1368 1.523 . S
C1368 C1352 1.368 . S
C1368 C1364 1.368 . S
C1368 C1367 1.523 . S
H1369 C1344 0.950 . S
H1370 C1346 0.950 . S
H1371 C1347 0.949 1_655 S
H1372 C1349 0.950 . S
H1373 C1351 0.926 1_655 S
C1374 C1375 1.348 1_565 S
C1374 C1376 1.327 . S
C1374 H1399 0.950 . S
C1375 C1374 1.348 1_545 S
C1375 C1391 1.350 . S
C1376 C1374 1.327 . S
C1376 C1395 1.424 1_565 S
C1376 H1400 0.950 . S
C1377 C1394 1.574 . S
C1377 C1396 1.376 . S
C1377 H1401 0.949 . S
H1378 C1382 0.949 . S
C1379 C1380 1.367 . S
C1379 C1381 1.327 . S
C1379 H1402 0.950 . S
C1380 C1379 1.367 . S
C1380 C1392 1.331 1_545 S
C1381 C1379 1.327 . S
C1381 C1397 1.442 . S
C1381 H1403 0.950 . S
C1382 H1378 0.949 . S
C1382 C1390 1.574 . S
C1382 C1398 1.356 1_565 S
H1383 C1391 0.950 . S
H1384 C1389 0.950 . S
H1385 C1390 0.949 . S
H1386 C1392 0.950 . S
H1387 C1393 0.950 . S
H1388 C1394 0.949 . S
C1389 H1384 0.950 . S
C1389 C1391 1.327 . S
C1389 C1395 1.433 . S
C1390 C1382 1.574 . S
C1390 H1385 0.949 . S
C1390 C1396 1.361 1_565 S
C1391 C1375 1.350 . S
C1391 H1383 0.950 . S
C1391 C1389 1.327 . S
C1392 C1380 1.331 1_565 S
C1392 H1386 0.950 . S
C1392 C1393 1.327 . S
C1393 H1387 0.950 . S
C1393 C1392 1.327 . S
C1393 C1397 1.416 1_565 S
C1394 C1377 1.574 . S
C1394 H1388 0.949 . S
C1394 C1398 1.380 . S
C1395 C1376 1.424 1_545 S
C1395 C1389 1.433 . S
C1395 C1396 1.523 . S
C1396 C1377 1.376 . S
C1396 C1390 1.361 1_545 S
C1396 C1395 1.523 . S
C1397 C1381 1.442 . S
C1397 C1393 1.416 1_545 S
C1397 C1398 1.523 . S
C1398 C1382 1.356 1_545 S
C1398 C1394 1.380 . S
C1398 C1397 1.523 . S
H1399 C1374 0.950 . S
H1400 C1376 0.950 . S
H1401 C1377 0.949 . S
H1402 C1379 0.950 . S
H1403 C1381 0.950 . S
C1404 C1405 1.349 . S
C1404 C1406 1.327 . S
C1404 H1429 0.950 . S
C1405 C1404 1.349 . S
C1405 C1421 1.349 . S
C1406 C1404 1.327 . S
C1406 C1425 1.429 . S
C1406 H1430 0.950 . S
C1407 C1424 1.574 . S
C1407 C1426 1.368 . S
C1407 H1431 0.949 . S
H1408 C1412 0.949 . S
C1409 C1410 1.349 . S
C1409 C1411 1.327 . S
C1409 H1432 0.950 . S
C1410 C1409 1.349 . S
C1410 C1422 1.349 . S
C1411 C1409 1.327 . S
C1411 C1427 1.429 . S
C1411 H1433 0.950 . S
C1412 H1408 0.949 . S
C1412 C1420 1.574 . S
C1412 C1428 1.368 . S
H1413 C1421 0.950 . S
H1414 C1419 0.950 . S
H1415 C1420 0.949 . S
H1416 C1422 0.950 . S
H1417 C1423 0.950 . S
H1418 C1424 0.949 . S
C1419 H1414 0.950 . S
C1419 C1421 1.327 . S
C1419 C1425 1.429 . S
C1420 C1412 1.574 . S
C1420 H1415 0.949 . S
C1420 C1426 1.368 . S
C1421 C1405 1.349 . S
C1421 H1413 0.950 . S
C1421 C1419 1.327 . S
C1422 C1410 1.349 . S
C1422 H1416 0.950 . S
C1422 C1423 1.327 . S
C1423 H1417 0.950 . S
C1423 C1422 1.327 . S
C1423 C1427 1.429 . S
C1424 C1407 1.574 . S
C1424 H1418 0.949 . S
C1424 C1428 1.368 . S
C1425 C1406 1.429 . S
C1425 C1419 1.429 . S
C1425 C1426 1.523 . S
C1426 C1407 1.368 . S
C1426 C1420 1.368 . S
C1426 C1425 1.523 . S
C1427 C1411 1.429 . S
C1427 C1423 1.429 . S
C1427 C1428 1.523 . S
C1428 C1412 1.368 . S
C1428 C1424 1.368 . S
C1428 C1427 1.523 . S
H1429 C1404 0.950 . S
H1430 C1406 0.950 . S
H1431 C1407 0.949 . S
H1432 C1409 0.950 . S
H1433 C1411 0.950 . S
C1434 C1435 1.349 1_565 S
C1434 C1436 1.327 . S
C1434 H1459 0.950 . S
C1435 C1434 1.349 1_545 S
C1435 C1451 1.349 . S
C1436 C1434 1.327 . S
C1436 C1455 1.395 1_565 S
C1436 H1460 0.950 . S
C1437 C1454 1.574 . S
C1437 C1456 1.403 . S
C1437 H1461 0.949 . S
H1438 C1442 0.949 . S
C1439 C1440 1.371 . S
C1439 C1441 1.327 . S
C1439 H1462 0.950 . S
C1440 C1439 1.371 . S
C1440 C1452 1.327 1_545 S
C1441 C1439 1.327 . S
C1441 C1457 1.454 . S
C1441 H1463 0.950 . S
C1442 H1438 0.949 . S
C1442 C1450 1.574 . S
C1442 C1458 1.338 1_565 S
H1443 C1451 0.950 . S
H1444 C1449 0.950 . S
H1445 C1450 0.949 . S
H1446 C1452 0.950 . S
H1447 C1453 0.950 . S
H1448 C1454 0.949 . S
C1449 H1444 0.950 . S
C1449 C1451 1.327 . S
C1449 C1455 1.463 . S
C1450 C1442 1.574 . S
C1450 H1445 0.949 . S
C1450 C1456 1.334 1_565 S
C1451 C1435 1.349 . S
C1451 H1443 0.950 . S
C1451 C1449 1.327 . S
C1452 C1440 1.327 1_565 S
C1452 H1446 0.950 . S
C1452 C1453 1.327 . S
C1453 H1447 0.950 . S
C1453 C1452 1.327 . S
C1453 C1457 1.403 1_565 S
C1454 C1437 1.574 . S
C1454 H1448 0.949 . S
C1454 C1458 1.399 . S
C1455 C1436 1.395 1_545 S
C1455 C1449 1.463 . S
C1455 C1456 1.523 . S
C1456 C1437 1.403 . S
C1456 C1450 1.334 1_545 S
C1456 C1455 1.523 . S
C1457 C1441 1.454 . S
C1457 C1453 1.403 1_545 S
C1457 C1458 1.523 . S
C1458 C1442 1.338 1_545 S
C1458 C1454 1.399 . S
C1458 C1457 1.523 . S
H1459 C1434 0.950 . S
H1460 C1436 0.950 . S
H1461 C1437 0.949 . S
H1462 C1439 0.950 . S
H1463 C1441 0.950 . S
C1464 C1465 1.349 . S
C1464 C1466 1.327 . S
C1464 H1489 0.950 1_455 S
C1465 C1464 1.349 . S
C1465 C1481 1.349 . S
C1466 C1464 1.327 . S
C1466 C1485 1.429 . S
C1466 H1490 0.950 1_455 S
C1467 C1484 1.574 . S
C1467 C1486 1.368 . S
C1467 H1491 0.949 . S
H1468 C1472 0.959 . S
C1469 C1470 1.349 . S
C1469 C1471 1.327 . S
C1469 H1492 0.950 . S
C1470 C1469 1.349 . S
C1470 C1482 1.349 . S
C1471 C1469 1.327 . S
C1471 C1487 1.429 . S
C1471 H1493 0.950 . S
C1472 H1468 0.959 . S
C1472 C1480 1.574 . S
C1472 C1488 1.368 . S
H1473 C1481 0.950 . S
H1474 C1479 0.950 . S
H1475 C1480 0.949 1_655 S
H1476 C1482 0.950 . S
H1477 C1483 0.950 . S
H1478 C1484 0.949 . S
C1479 H1474 0.950 . S
C1479 C1481 1.327 . S
C1479 C1485 1.429 . S
C1480 C1472 1.574 . S
C1480 H1475 0.949 1_455 S
C1480 C1486 1.368 . S
C1481 C1465 1.349 . S
C1481 H1473 0.950 . S
C1481 C1479 1.327 . S
C1482 C1470 1.349 . S
C1482 H1476 0.950 . S
C1482 C1483 1.327 . S
C1483 H1477 0.950 . S
C1483 C1482 1.327 . S
C1483 C1487 1.429 . S
C1484 C1467 1.574 . S
C1484 H1478 0.949 . S
C1484 C1488 1.368 . S
C1485 C1466 1.429 . S
C1485 C1479 1.429 . S
C1485 C1486 1.523 . S
C1486 C1467 1.368 . S
C1486 C1480 1.368 . S
C1486 C1485 1.523 . S
C1487 C1471 1.429 . S
C1487 C1483 1.429 . S
C1487 C1488 1.523 . S
C1488 C1472 1.368 . S
C1488 C1484 1.368 . S
C1488 C1487 1.523 . S
H1489 C1464 0.950 1_655 S
H1490 C1466 0.950 1_655 S
H1491 C1467 0.949 . S
H1492 C1469 0.950 . S
H1493 C1471 0.950 . S
C1494 C1495 1.349 1_565 S
C1494 C1496 1.327 . S
C1494 H1519 0.950 . S
C1495 C1494 1.349 1_545 S
C1495 C1511 1.349 . S
C1496 C1494 1.327 . S
C1496 C1515 1.395 1_565 S
C1496 H1520 0.950 . S
C1497 C1514 1.574 . S
C1497 C1516 1.404 . S
C1497 H1521 0.949 . S
H1498 C1502 0.949 . S
C1499 C1500 1.372 . S
C1499 C1501 1.327 . S
C1499 H1522 0.950 . S
C1500 C1499 1.372 . S
C1500 C1512 1.326 1_545 S
C1501 C1499 1.327 . S
C1501 C1517 1.455 . S
C1501 H1523 0.950 . S
C1502 H1498 0.949 . S
C1502 C1510 1.574 . S
C1502 C1518 1.337 1_565 S
H1503 C1511 0.950 . S
H1504 C1509 0.950 . S
H1505 C1510 0.949 . S
H1506 C1512 0.950 . S
H1507 C1513 0.950 . S
H1508 C1514 0.949 . S
C1509 H1504 0.950 . S
C1509 C1511 1.327 . S
C1509 C1515 1.463 . S
C1510 C1502 1.574 . S
C1510 H1505 0.949 . S
C1510 C1516 1.333 1_565 S
C1511 C1495 1.349 . S
C1511 H1503 0.950 . S
C1511 C1509 1.327 . S
C1512 C1500 1.326 1_565 S
C1512 H1506 0.950 . S
C1512 C1513 1.327 . S
C1513 H1507 0.950 . S
C1513 C1512 1.327 . S
C1513 C1517 1.402 1_565 S
C1514 C1497 1.574 . S
C1514 H1508 0.949 . S
C1514 C1518 1.400 . S
C1515 C1496 1.395 1_545 S
C1515 C1509 1.463 . S
C1515 C1516 1.523 . S
C1516 C1497 1.404 . S
C1516 C1510 1.333 1_545 S
C1516 C1515 1.523 . S
C1517 C1501 1.455 . S
C1517 C1513 1.402 1_545 S
C1517 C1518 1.523 . S
C1518 C1502 1.337 1_545 S
C1518 C1514 1.400 . S
C1518 C1517 1.523 . S
H1519 C1494 0.950 . S
H1520 C1496 0.950 . S
H1521 C1497 0.949 . S
H1522 C1499 0.950 . S
H1523 C1501 0.950 . S
C1524 C1525 1.345 . S
C1524 C1526 1.327 . S
C1524 H1549 0.950 . S
C1525 C1524 1.345 . S
C1525 C1541 1.353 1_545 S
C1526 C1524 1.327 . S
C1526 C1545 1.428 . S
C1526 H1550 0.950 . S
C1527 C1544 1.574 . S
C1527 C1546 1.368 1_565 S
C1527 H1551 0.949 . S
H1528 C1532 0.949 . S
C1529 C1530 1.342 1_565 S
C1529 C1531 1.327 . S
C1529 H1552 0.950 . S
C1530 C1529 1.342 1_545 S
C1530 C1542 1.356 . S
C1531 C1529 1.327 . S
C1531 C1547 1.424 1_565 S
C1531 H1553 0.950 . S
C1532 H1528 0.949 . S
C1532 C1540 1.574 . S
C1532 C1548 1.372 . S
H1533 C1541 0.950 . S
H1534 C1539 0.950 . S
H1535 C1540 0.949 . S
H1536 C1542 0.950 . S
H1537 C1543 0.950 . S
H1538 C1544 0.949 . S
C1539 H1534 0.950 . S
C1539 C1541 1.327 . S
C1539 C1545 1.430 1_565 S
C1540 C1532 1.574 . S
C1540 H1535 0.949 . S
C1540 C1546 1.369 . S
C1541 C1525 1.353 1_565 S
C1541 H1533 0.950 . S
C1541 C1539 1.327 . S
C1542 C1530 1.356 . S
C1542 H1536 0.950 . S
C1542 C1543 1.327 . S
C1543 H1537 0.950 . S
C1543 C1542 1.327 . S
C1543 C1547 1.433 . S
C1544 C1527 1.574 . S
C1544 H1538 0.949 . S
C1544 C1548 1.365 1_565 S
C1545 C1526 1.428 . S
C1545 C1539 1.430 1_545 S
C1545 C1546 1.523 . S
C1546 C1527 1.368 1_545 S
C1546 C1540 1.369 . S
C1546 C1545 1.523 . S
C1547 C1531 1.424 1_545 S
C1547 C1543 1.433 . S
C1547 C1548 1.523 . S
C1548 C1532 1.372 . S
C1548 C1544 1.365 1_545 S
C1548 C1547 1.523 . S
H1549 C1524 0.950 . S
H1550 C1526 0.950 . S
H1551 C1527 0.949 . S
H1552 C1529 0.950 . S
H1553 C1531 0.950 . S
C1554 C1555 1.361 . S
C1554 C1556 1.325 1_455 S
C1554 H1579 0.939 1_455 S
C1555 C1554 1.361 . S
C1555 C1571 1.349 . S
C1556 C1554 1.325 1_655 S
C1556 C1575 1.412 1_655 S
C1556 H1580 0.970 . S
C1557 C1574 1.574 . S
C1557 C1576 1.368 . S
C1557 H1581 0.949 . S
H1558 C1562 0.949 . S
C1559 C1560 1.349 . S
C1559 C1561 1.327 . S
C1559 H1582 0.950 . S
C1560 C1559 1.349 . S
C1560 C1572 1.349 1_455 S
C1561 C1559 1.327 . S
C1561 C1577 1.429 . S
C1561 H1583 0.950 . S
C1562 H1558 0.949 . S
C1562 C1570 1.574 . S
C1562 C1578 1.368 1_655 S
H1563 C1571 0.950 . S
H1564 C1569 0.950 . S
H1565 C1570 0.949 . S
H1566 C1572 0.950 . S
H1567 C1573 0.950 . S
H1568 C1574 0.949 . S
C1569 H1564 0.950 . S
C1569 C1571 1.327 . S
C1569 C1575 1.429 . S
C1570 C1562 1.574 . S
C1570 H1565 0.949 . S
C1570 C1576 1.368 1_655 S
C1571 C1555 1.349 . S
C1571 H1563 0.950 . S
C1571 C1569 1.327 . S
C1572 C1560 1.349 1_655 S
C1572 H1566 0.950 . S
C1572 C1573 1.327 . S
C1573 H1567 0.950 . S
C1573 C1572 1.327 . S
C1573 C1577 1.429 1_655 S
C1574 C1557 1.574 . S
C1574 H1568 0.949 . S
C1574 C1578 1.368 . S
C1575 C1556 1.412 1_455 S
C1575 C1569 1.429 . S
C1575 C1576 1.523 . S
C1576 C1557 1.368 . S
C1576 C1570 1.368 1_455 S
C1576 C1575 1.523 . S
C1577 C1561 1.429 . S
C1577 C1573 1.429 1_455 S
C1577 C1578 1.523 . S
C1578 C1562 1.368 1_455 S
C1578 C1574 1.368 . S
C1578 C1577 1.523 . S
H1579 C1554 0.939 1_655 S
H1580 C1556 0.970 . S
H1581 C1557 0.949 . S
H1582 C1559 0.950 . S
H1583 C1561 0.950 . S
C1584 C1585 1.352 1_565 S
C1584 C1586 1.327 . S
C1584 H1609 0.950 . S
C1585 C1584 1.352 1_545 S
C1585 C1601 1.345 . S
C1586 C1584 1.327 . S
C1586 C1605 1.429 1_565 S
C1586 H1610 0.950 . S
C1587 C1604 1.574 . S
C1587 C1606 1.369 . S
C1587 H1611 0.949 . S
H1588 C1592 0.949 . S
C1589 C1590 1.356 . S
C1589 C1591 1.327 . S
C1589 H1612 0.950 . S
C1590 C1589 1.356 . S
C1590 C1602 1.342 1_545 S
C1591 C1589 1.327 . S
C1591 C1607 1.433 . S
C1591 H1613 0.950 . S
C1592 H1588 0.949 . S
C1592 C1600 1.574 . S
C1592 C1608 1.365 1_565 S
H1593 C1601 0.950 . S
H1594 C1599 0.950 . S
H1595 C1600 0.949 . S
H1596 C1602 0.950 . S
H1597 C1603 0.950 . S
H1598 C1604 0.949 . S
C1599 H1594 0.950 . S
C1599 C1601 1.327 . S
C1599 C1605 1.428 . S
C1600 C1592 1.574 . S
C1600 H1595 0.949 . S
C1600 C1606 1.368 1_565 S
C1601 C1585 1.345 . S
C1601 H1593 0.950 . S
C1601 C1599 1.327 . S
C1602 C1590 1.342 1_565 S
C1602 H1596 0.950 . S
C1602 C1603 1.327 . S
C1603 H1597 0.950 . S
C1603 C1602 1.327 . S
C1603 C1607 1.424 1_565 S
C1604 C1587 1.574 . S
C1604 H1598 0.949 . S
C1604 C1608 1.372 . S
C1605 C1586 1.429 1_545 S
C1605 C1599 1.428 . S
C1605 C1606 1.523 . S
C1606 C1587 1.369 . S
C1606 C1600 1.368 1_545 S
C1606 C1605 1.523 . S
C1607 C1591 1.433 . S
C1607 C1603 1.424 1_545 S
C1607 C1608 1.523 . S
C1608 C1592 1.365 1_545 S
C1608 C1604 1.372 . S
C1608 C1607 1.523 . S
H1609 C1584 0.950 . S
H1610 C1586 0.950 . S
H1611 C1587 0.949 . S
H1612 C1589 0.950 . S
H1613 C1591 0.950 . S
C1614 C1615 1.349 . S
C1614 C1616 1.327 . S
C1614 H1639 0.950 . S
C1615 C1614 1.349 . S
C1615 C1631 1.349 1_455 S
C1616 C1614 1.327 . S
C1616 C1635 1.429 . S
C1616 H1640 0.950 . S
C1617 C1634 1.574 . S
C1617 C1636 1.368 1_655 S
C1617 H1641 0.949 . S
H1618 C1622 0.949 . S
C1619 C1620 1.349 1_655 S
C1619 C1621 1.327 . S
C1619 H1642 0.950 . S
C1620 C1619 1.349 1_455 S
C1620 C1632 1.349 . S
C1621 C1619 1.327 . S
C1621 C1637 1.429 1_655 S
C1621 H1643 0.950 . S
C1622 H1618 0.949 . S
C1622 C1630 1.574 . S
C1622 C1638 1.368 . S
H1623 C1631 0.950 . S
H1624 C1629 0.950 . S
H1625 C1630 0.949 . S
H1626 C1632 0.950 . S
H1627 C1633 0.950 . S
H1628 C1634 0.949 . S
C1629 H1624 0.950 . S
C1629 C1631 1.327 . S
C1629 C1635 1.429 1_655 S
C1630 C1622 1.574 . S
C1630 H1625 0.949 . S
C1630 C1636 1.368 . S
C1631 C1615 1.349 1_655 S
C1631 H1623 0.950 . S
C1631 C1629 1.327 . S
C1632 C1620 1.349 . S
C1632 H1626 0.950 . S
C1632 C1633 1.327 . S
C1633 H1627 0.950 . S
C1633 C1632 1.327 . S
C1633 C1637 1.429 . S
C1634 C1617 1.574 . S
C1634 H1628 0.949 . S
C1634 C1638 1.368 1_655 S
C1635 C1616 1.429 . S
C1635 C1629 1.429 1_455 S
C1635 C1636 1.523 . S
C1636 C1617 1.368 1_455 S
C1636 C1630 1.368 . S
C1636 C1635 1.523 . S
C1637 C1621 1.429 1_455 S
C1637 C1633 1.429 . S
C1637 C1638 1.523 . S
C1638 C1622 1.368 . S
C1638 C1634 1.368 1_455 S
C1638 C1637 1.523 . S
H1639 C1614 0.950 . S
H1640 C1616 0.950 . S
H1641 C1617 0.949 . S
H1642 C1619 0.950 . S
H1643 C1621 0.950 . S
C1644 C1645 1.349 . S
C1644 C1646 1.327 . S
C1644 H1669 0.950 . S
C1645 C1644 1.349 . S
C1645 C1661 1.349 1_545 S
C1646 C1644 1.327 . S
C1646 C1665 1.465 . S
C1646 H1670 0.950 . S
C1647 C1664 1.574 . S
C1647 C1666 1.331 1_565 S
C1647 H1671 0.949 . S
H1648 C1652 0.949 . S
C1649 C1650 1.321 1_565 S
C1649 C1651 1.327 . S
C1649 H1672 0.950 . S
C1650 C1649 1.321 1_545 S
C1650 C1662 1.377 . S
C1651 C1649 1.327 . S
C1651 C1667 1.399 1_565 S
C1651 H1673 0.950 . S
C1652 H1648 0.949 . S
C1652 C1660 1.574 . S
C1652 C1668 1.403 . S
H1653 C1661 0.950 . S
H1654 C1659 0.950 . S
H1655 C1660 0.949 . S
H1656 C1662 0.950 . S
H1657 C1663 0.950 . S
H1658 C1664 0.949 . S
C1659 H1654 0.950 . S
C1659 C1661 1.327 . S
C1659 C1665 1.394 1_565 S
C1660 C1652 1.574 . S
C1660 H1655 0.949 . S
C1660 C1666 1.406 . S
C1661 C1645 1.349 1_565 S
C1661 H1653 0.950 . S
C1661 C1659 1.327 . S
C1662 C1650 1.377 . S
C1662 H1656 0.950 . S
C1662 C1663 1.327 . S
C1663 H1657 0.950 . S
C1663 C1662 1.327 . S
C1663 C1667 1.459 . S
C1664 C1647 1.574 . S
C1664 H1658 0.949 . S
C1664 C1668 1.334 1_565 S
C1665 C1646 1.465 . S
C1665 C1659 1.394 1_545 S
C1665 C1666 1.523 . S
C1666 C1647 1.331 1_545 S
C1666 C1660 1.406 . S
C1666 C1665 1.523 . S
C1667 C1651 1.399 1_545 S
C1667 C1663 1.459 . S
C1667 C1668 1.523 . S
C1668 C1652 1.403 . S
C1668 C1664 1.334 1_545 S
C1668 C1667 1.523 . S
H1669 C1644 0.950 . S
H1670 C1646 0.950 . S
H1671 C1647 0.949 . S
H1672 C1649 0.950 . S
H1673 C1651 0.950 . S
C1674 C1675 1.349 . S
C1674 C1676 1.327 . S
C1674 H1699 0.950 . S
C1675 C1674 1.349 . S
C1675 C1691 1.349 1_455 S
C1676 C1674 1.327 . S
C1676 C1695 1.429 . S
C1676 H1700 0.950 . S
C1677 C1694 1.574 . S
C1677 C1696 1.368 1_655 S
C1677 H1701 0.949 . S
H1678 C1682 0.949 . S
C1679 C1680 1.349 1_655 S
C1679 C1681 1.327 . S
C1679 H1702 0.950 . S
C1680 C1679 1.349 1_455 S
C1680 C1692 1.349 . S
C1681 C1679 1.327 . S
C1681 C1697 1.429 1_655 S
C1681 H1703 0.950 . S
C1682 H1678 0.949 . S
C1682 C1690 1.574 . S
C1682 C1698 1.368 . S
H1683 C1691 0.950 . S
H1684 C1689 0.950 . S
H1685 C1690 0.949 . S
H1686 C1692 0.950 . S
H1687 C1693 0.950 . S
H1688 C1694 0.949 . S
C1689 H1684 0.950 . S
C1689 C1691 1.327 . S
C1689 C1695 1.429 1_655 S
C1690 C1682 1.574 . S
C1690 H1685 0.949 . S
C1690 C1696 1.368 . S
C1691 C1675 1.349 1_655 S
C1691 H1683 0.950 . S
C1691 C1689 1.327 . S
C1692 C1680 1.349 . S
C1692 H1686 0.950 . S
C1692 C1693 1.327 . S
C1693 H1687 0.950 . S
C1693 C1692 1.327 . S
C1693 C1697 1.429 . S
C1694 C1677 1.574 . S
C1694 H1688 0.949 . S
C1694 C1698 1.368 1_655 S
C1695 C1676 1.429 . S
C1695 C1689 1.429 1_455 S
C1695 C1696 1.523 . S
C1696 C1677 1.368 1_455 S
C1696 C1690 1.368 . S
C1696 C1695 1.523 . S
C1697 C1681 1.429 1_455 S
C1697 C1693 1.429 . S
C1697 C1698 1.523 . S
C1698 C1682 1.368 . S
C1698 C1694 1.368 1_455 S
C1698 C1697 1.523 . S
H1699 C1674 0.950 . S
H1700 C1676 0.950 . S
H1701 C1677 0.949 . S
H1702 C1679 0.950 . S
H1703 C1681 0.950 . S
C1704 C1705 1.349 . S
C1704 C1706 1.327 . S
C1704 H1729 0.950 . S
C1705 C1704 1.349 . S
C1705 C1721 1.349 1_545 S
C1706 C1704 1.327 . S
C1706 C1725 1.465 . S
C1706 H1730 0.950 . S
C1707 C1724 1.574 . S
C1707 C1726 1.331 1_565 S
C1707 H1731 0.949 . S
H1708 C1712 0.949 . S
C1709 C1710 1.321 1_565 S
C1709 C1711 1.327 . S
C1709 H1732 0.950 . S
C1710 C1709 1.321 1_545 S
C1710 C1722 1.377 . S
C1711 C1709 1.327 . S
C1711 C1727 1.399 1_565 S
C1711 H1733 0.950 . S
C1712 H1708 0.949 . S
C1712 C1720 1.574 . S
C1712 C1728 1.403 . S
H1713 C1721 0.950 . S
H1714 C1719 0.950 . S
H1715 C1720 0.949 . S
H1716 C1722 0.950 . S
H1717 C1723 0.950 . S
H1718 C1724 0.949 . S
C1719 H1714 0.950 . S
C1719 C1721 1.327 . S
C1719 C1725 1.394 1_565 S
C1720 C1712 1.574 . S
C1720 H1715 0.949 . S
C1720 C1726 1.406 . S
C1721 C1705 1.349 1_565 S
C1721 H1713 0.950 . S
C1721 C1719 1.327 . S
C1722 C1710 1.377 . S
C1722 H1716 0.950 . S
C1722 C1723 1.327 . S
C1723 H1717 0.950 . S
C1723 C1722 1.327 . S
C1723 C1727 1.459 . S
C1724 C1707 1.574 . S
C1724 H1718 0.949 . S
C1724 C1728 1.334 1_565 S
C1725 C1706 1.465 . S
C1725 C1719 1.394 1_545 S
C1725 C1726 1.523 . S
C1726 C1707 1.331 1_545 S
C1726 C1720 1.406 . S
C1726 C1725 1.523 . S
C1727 C1711 1.399 1_545 S
C1727 C1723 1.459 . S
C1727 C1728 1.523 . S
C1728 C1712 1.403 . S
C1728 C1724 1.334 1_545 S
C1728 C1727 1.523 . S
H1729 C1704 0.950 . S
H1730 C1706 0.950 . S
H1731 C1707 0.949 . S
H1732 C1709 0.950 . S
H1733 C1711 0.950 . S
C1734 C1735 1.349 . S
C1734 C1736 1.329 . S
C1734 H1759 0.950 1_455 S
C1735 C1734 1.349 . S
C1735 C1751 1.349 . S
C1736 C1734 1.329 . S
C1736 C1755 1.441 . S
C1736 H1760 0.936 1_455 S
C1737 C1754 1.574 . S
C1737 C1756 1.368 . S
C1737 H1761 0.949 . S
H1738 C1742 0.949 . S
C1739 C1740 1.349 . S
C1739 C1741 1.327 . S
C1739 H1762 0.950 . S
C1740 C1739 1.349 . S
C1740 C1752 1.349 1_455 S
C1741 C1739 1.327 . S
C1741 C1757 1.429 . S
C1741 H1763 0.950 . S
C1742 H1738 0.949 . S
C1742 C1750 1.574 . S
C1742 C1758 1.368 1_655 S
H1743 C1751 0.950 . S
H1744 C1749 0.950 . S
H1745 C1750 0.949 . S
H1746 C1752 0.950 . S
H1747 C1753 0.950 . S
H1748 C1754 0.949 . S
C1749 H1744 0.950 . S
C1749 C1751 1.327 . S
C1749 C1755 1.429 . S
C1750 C1742 1.574 . S
C1750 H1745 0.949 . S
C1750 C1756 1.368 1_655 S
C1751 C1735 1.349 . S
C1751 H1743 0.950 . S
C1751 C1749 1.327 . S
C1752 C1740 1.349 1_655 S
C1752 H1746 0.950 . S
C1752 C1753 1.327 . S
C1753 H1747 0.950 . S
C1753 C1752 1.327 . S
C1753 C1757 1.429 1_655 S
C1754 C1737 1.574 . S
C1754 H1748 0.949 . S
C1754 C1758 1.368 . S
C1755 C1736 1.441 . S
C1755 C1749 1.429 . S
C1755 C1756 1.523 . S
C1756 C1737 1.368 . S
C1756 C1750 1.368 1_455 S
C1756 C1755 1.523 . S
C1757 C1741 1.429 . S
C1757 C1753 1.429 1_455 S
C1757 C1758 1.523 . S
C1758 C1742 1.368 1_455 S
C1758 C1754 1.368 . S
C1758 C1757 1.523 . S
H1759 C1734 0.950 1_655 S
H1760 C1736 0.936 1_655 S
H1761 C1737 0.949 . S
H1762 C1739 0.950 . S
H1763 C1741 0.950 . S
C1764 C1765 1.349 1_556 S
C1764 C1766 1.327 . S
C1764 H1789 0.950 . S
C1765 C1764 1.349 1_554 S
C1765 C1781 1.349 . S
C1766 C1764 1.327 . S
C1766 C1785 1.429 1_556 S
C1766 H1790 0.950 . S
C1767 C1784 1.574 . S
C1767 C1786 1.368 . S
C1767 H1791 0.949 . S
H1768 C1772 0.949 . S
C1769 C1770 1.349 . S
C1769 C1771 1.327 . S
C1769 H1792 0.950 . S
C1770 C1769 1.349 . S
C1770 C1782 1.349 1_554 S
C1771 C1769 1.327 . S
C1771 C1787 1.429 . S
C1771 H1793 0.950 . S
C1772 H1768 0.949 . S
C1772 C1780 1.574 . S
C1772 C1788 1.368 1_556 S
H1773 C1781 0.950 . S
H1774 C1779 0.950 . S
H1775 C1780 0.949 . S
H1776 C1782 0.950 . S
H1777 C1783 0.950 . S
H1778 C1784 0.949 . S
C1779 H1774 0.950 . S
C1779 C1781 1.327 . S
C1779 C1785 1.429 . S
C1780 C1772 1.574 . S
C1780 H1775 0.949 . S
C1780 C1786 1.368 1_556 S
C1781 C1765 1.349 . S
C1781 H1773 0.950 . S
C1781 C1779 1.327 . S
C1782 C1770 1.349 1_556 S
C1782 H1776 0.950 . S
C1782 C1783 1.327 . S
C1783 H1777 0.950 . S
C1783 C1782 1.327 . S
C1783 C1787 1.429 1_556 S
C1784 C1767 1.574 . S
C1784 H1778 0.949 . S
C1784 C1788 1.368 . S
C1785 C1766 1.429 1_554 S
C1785 C1779 1.429 . S
C1785 C1786 1.523 . S
C1786 C1767 1.368 . S
C1786 C1780 1.368 1_554 S
C1786 C1785 1.523 . S
C1787 C1771 1.429 . S
C1787 C1783 1.429 1_554 S
C1787 C1788 1.523 . S
C1788 C1772 1.368 1_554 S
C1788 C1784 1.368 . S
C1788 C1787 1.523 . S
H1789 C1764 0.950 . S
H1790 C1766 0.950 . S
H1791 C1767 0.949 . S
H1792 C1769 0.950 . S
H1793 C1771 0.950 . S
C1794 C1795 1.349 1_556 S
C1794 C1796 1.327 . S
C1794 H1819 0.950 . S
C1795 C1794 1.349 1_554 S
C1795 C1811 1.349 . S
C1796 C1794 1.327 . S
C1796 C1815 1.429 1_556 S
C1796 H1820 0.950 . S
C1797 C1814 1.574 . S
C1797 C1816 1.368 . S
C1797 H1821 0.949 . S
H1798 C1802 0.949 . S
C1799 C1800 1.388 . S
C1799 C1801 1.327 . S
C1799 H1822 0.950 . S
C1800 C1799 1.388 . S
C1800 C1812 1.311 1_554 S
C1801 C1799 1.327 . S
C1801 C1817 1.429 . S
C1801 H1823 0.950 . S
C1802 H1798 0.949 . S
C1802 C1810 1.574 . S
C1802 C1818 1.368 1_556 S
H1803 C1811 0.950 . S
H1804 C1809 0.950 . S
H1805 C1810 0.949 . S
H1806 C1812 0.950 . S
H1807 C1813 0.950 . S
H1808 C1814 0.949 . S
C1809 H1804 0.950 . S
C1809 C1811 1.327 . S
C1809 C1815 1.429 . S
C1810 C1802 1.574 . S
C1810 H1805 0.949 . S
C1810 C1816 1.368 1_556 S
C1811 C1795 1.349 . S
C1811 H1803 0.950 . S
C1811 C1809 1.327 . S
C1812 C1800 1.311 1_556 S
C1812 H1806 0.950 . S
C1812 C1813 1.327 . S
C1813 H1807 0.950 . S
C1813 C1812 1.327 . S
C1813 C1817 1.429 1_556 S
C1814 C1797 1.574 . S
C1814 H1808 0.949 . S
C1814 C1818 1.368 . S
C1815 C1796 1.429 1_554 S
C1815 C1809 1.429 . S
C1815 C1816 1.523 . S
C1816 C1797 1.368 . S
C1816 C1810 1.368 1_554 S
C1816 C1815 1.523 . S
C1817 C1801 1.429 . S
C1817 C1813 1.429 1_554 S
C1817 C1818 1.523 . S
C1818 C1802 1.368 1_554 S
C1818 C1814 1.368 . S
C1818 C1817 1.523 . S
H1819 C1794 0.950 . S
H1820 C1796 0.950 . S
H1821 C1797 0.949 . S
H1822 C1799 0.950 . S
H1823 C1801 0.950 . S
C1824 C1825 1.349 . S
C1824 C1826 1.327 . S
C1824 H1849 0.950 . S
C1825 C1824 1.349 . S
C1825 C1841 1.349 1_554 S
C1826 C1824 1.327 . S
C1826 C1845 1.429 . S
C1826 H1850 0.950 . S
C1827 C1844 1.574 . S
C1827 C1846 1.368 1_556 S
C1827 H1851 0.949 . S
H1828 C1832 0.949 . S
C1829 C1830 1.349 1_556 S
C1829 C1831 1.327 . S
C1829 H1852 0.950 . S
C1830 C1829 1.349 1_554 S
C1830 C1842 1.349 . S
C1831 C1829 1.327 . S
C1831 C1847 1.429 1_556 S
C1831 H1853 0.950 . S
C1832 H1828 0.949 . S
C1832 C1840 1.574 . S
C1832 C1848 1.368 . S
H1833 C1841 0.950 . S
H1834 C1839 0.950 . S
H1835 C1840 0.949 . S
H1836 C1842 0.950 . S
H1837 C1843 0.950 . S
H1838 C1844 0.949 . S
C1839 H1834 0.950 . S
C1839 C1841 1.327 . S
C1839 C1845 1.429 1_556 S
C1840 C1832 1.574 . S
C1840 H1835 0.949 . S
C1840 C1846 1.368 . S
C1841 C1825 1.349 1_556 S
C1841 H1833 0.950 . S
C1841 C1839 1.327 . S
C1842 C1830 1.349 . S
C1842 H1836 0.950 . S
C1842 C1843 1.327 . S
C1843 H1837 0.950 . S
C1843 C1842 1.327 . S
C1843 C1847 1.429 . S
C1844 C1827 1.574 . S
C1844 H1838 0.949 . S
C1844 C1848 1.368 1_556 S
C1845 C1826 1.429 . S
C1845 C1839 1.429 1_554 S
C1845 C1846 1.523 . S
C1846 C1827 1.368 1_554 S
C1846 C1840 1.368 . S
C1846 C1845 1.523 . S
C1847 C1831 1.429 1_554 S
C1847 C1843 1.429 . S
C1847 C1848 1.523 . S
C1848 C1832 1.368 . S
C1848 C1844 1.368 1_554 S
C1848 C1847 1.523 . S
H1849 C1824 0.950 . S
H1850 C1826 0.950 . S
H1851 C1827 0.949 . S
H1852 C1829 0.950 . S
H1853 C1831 0.950 . S
C1854 C1855 1.349 1_556 S
C1854 C1856 1.327 . S
C1854 H1879 0.950 . S
C1855 C1854 1.349 1_554 S
C1855 C1871 1.349 . S
C1856 C1854 1.327 . S
C1856 C1875 1.429 1_556 S
C1856 H1880 0.950 . S
C1857 C1874 1.574 . S
C1857 C1876 1.368 . S
C1857 H1881 0.949 . S
H1858 C1862 0.949 . S
C1859 C1860 1.388 . S
C1859 C1861 1.327 . S
C1859 H1882 0.950 . S
C1860 C1859 1.388 . S
C1860 C1872 1.312 1_554 S
C1861 C1859 1.327 . S
C1861 C1877 1.429 . S
C1861 H1883 0.950 . S
C1862 H1858 0.949 . S
C1862 C1870 1.574 . S
C1862 C1878 1.368 1_556 S
H1863 C1871 0.950 . S
H1864 C1869 0.950 . S
H1865 C1870 0.949 . S
H1866 C1872 0.950 . S
H1867 C1873 0.950 . S
H1868 C1874 0.949 . S
C1869 H1864 0.950 . S
C1869 C1871 1.327 . S
C1869 C1875 1.429 . S
C1870 C1862 1.574 . S
C1870 H1865 0.949 . S
C1870 C1876 1.368 1_556 S
C1871 C1855 1.349 . S
C1871 H1863 0.950 . S
C1871 C1869 1.327 . S
C1872 C1860 1.312 1_556 S
C1872 H1866 0.950 . S
C1872 C1873 1.327 . S
C1873 H1867 0.950 . S
C1873 C1872 1.327 . S
C1873 C1877 1.429 1_556 S
C1874 C1857 1.574 . S
C1874 H1868 0.949 . S
C1874 C1878 1.368 . S
C1875 C1856 1.429 1_554 S
C1875 C1869 1.429 . S
C1875 C1876 1.523 . S
C1876 C1857 1.368 . S
C1876 C1870 1.368 1_554 S
C1876 C1875 1.523 . S
C1877 C1861 1.429 . S
C1877 C1873 1.429 1_554 S
C1877 C1878 1.523 . S
C1878 C1862 1.368 1_554 S
C1878 C1874 1.368 . S
C1878 C1877 1.523 . S
H1879 C1854 0.950 . S
H1880 C1856 0.950 . S
H1881 C1857 0.949 . S
H1882 C1859 0.950 . S
H1883 C1861 0.950 . S
C1884 C1885 1.349 . S
C1884 C1886 1.327 . S
C1884 H1909 0.950 . S
C1885 C1884 1.349 . S
C1885 C1901 1.349 1_554 S
C1886 C1884 1.327 . S
C1886 C1905 1.429 . S
C1886 H1910 0.950 . S
C1887 C1904 1.574 . S
C1887 C1906 1.368 1_556 S
C1887 H1911 0.949 . S
H1888 C1892 0.949 . S
C1889 C1890 1.349 1_556 S
C1889 C1891 1.327 . S
C1889 H1912 0.950 . S
C1890 C1889 1.349 1_554 S
C1890 C1902 1.349 . S
C1891 C1889 1.327 . S
C1891 C1907 1.429 1_556 S
C1891 H1913 0.950 . S
C1892 H1888 0.949 . S
C1892 C1900 1.574 . S
C1892 C1908 1.368 . S
H1893 C1901 0.950 . S
H1894 C1899 0.950 . S
H1895 C1900 0.949 . S
H1896 C1902 0.950 . S
H1897 C1903 0.950 . S
H1898 C1904 0.949 . S
C1899 H1894 0.950 . S
C1899 C1901 1.327 . S
C1899 C1905 1.429 1_556 S
C1900 C1892 1.574 . S
C1900 H1895 0.949 . S
C1900 C1906 1.368 . S
C1901 C1885 1.349 1_556 S
C1901 H1893 0.950 . S
C1901 C1899 1.327 . S
C1902 C1890 1.349 . S
C1902 H1896 0.950 . S
C1902 C1903 1.327 . S
C1903 H1897 0.950 . S
C1903 C1902 1.327 . S
C1903 C1907 1.429 . S
C1904 C1887 1.574 . S
C1904 H1898 0.949 . S
C1904 C1908 1.368 1_556 S
C1905 C1886 1.429 . S
C1905 C1899 1.429 1_554 S
C1905 C1906 1.523 . S
C1906 C1887 1.368 1_554 S
C1906 C1900 1.368 . S
C1906 C1905 1.523 . S
C1907 C1891 1.429 1_554 S
C1907 C1903 1.429 . S
C1907 C1908 1.523 . S
C1908 C1892 1.368 . S
C1908 C1904 1.368 1_554 S
C1908 C1907 1.523 . S
H1909 C1884 0.950 . S
H1910 C1886 0.950 . S
H1911 C1887 0.949 . S
H1912 C1889 0.950 . S
H1913 C1891 0.950 . S
C1914 C1915 1.349 . S
C1914 C1916 1.327 . S
C1914 H1939 0.950 . S
C1915 C1914 1.349 . S
C1915 C1931 1.349 1_554 S
C1916 C1914 1.327 . S
C1916 C1935 1.429 . S
C1916 H1940 0.950 . S
C1917 C1934 1.574 . S
C1917 C1936 1.368 1_556 S
C1917 H1941 0.949 . S
H1918 C1922 0.949 . S
C1919 C1920 1.340 1_556 S
C1919 C1921 1.327 . S
C1919 H1942 0.950 . S
C1920 C1919 1.340 1_554 S
C1920 C1932 1.359 . S
C1921 C1919 1.327 . S
C1921 C1937 1.429 1_556 S
C1921 H1943 0.950 . S
C1922 H1918 0.949 . S
C1922 C1930 1.574 . S
C1922 C1938 1.368 . S
H1923 C1931 0.950 . S
H1924 C1929 0.950 . S
H1925 C1930 0.949 . S
H1926 C1932 0.950 . S
H1927 C1933 0.950 . S
H1928 C1934 0.949 . S
C1929 H1924 0.950 . S
C1929 C1931 1.327 . S
C1929 C1935 1.429 1_556 S
C1930 C1922 1.574 . S
C1930 H1925 0.949 . S
C1930 C1936 1.368 . S
C1931 C1915 1.349 1_556 S
C1931 H1923 0.950 . S
C1931 C1929 1.327 . S
C1932 C1920 1.359 . S
C1932 H1926 0.950 . S
C1932 C1933 1.327 . S
C1933 H1927 0.950 . S
C1933 C1932 1.327 . S
C1933 C1937 1.429 . S
C1934 C1917 1.574 . S
C1934 H1928 0.949 . S
C1934 C1938 1.368 1_556 S
C1935 C1916 1.429 . S
C1935 C1929 1.429 1_554 S
C1935 C1936 1.523 . S
C1936 C1917 1.368 1_554 S
C1936 C1930 1.368 . S
C1936 C1935 1.523 . S
C1937 C1921 1.429 1_554 S
C1937 C1933 1.429 . S
C1937 C1938 1.523 . S
C1938 C1922 1.368 . S
C1938 C1934 1.368 1_554 S
C1938 C1937 1.523 . S
H1939 C1914 0.950 . S
H1940 C1916 0.950 . S
H1941 C1917 0.949 . S
H1942 C1919 0.950 . S
H1943 C1921 0.950 . S
C1944 C1945 1.349 1_556 S
C1944 C1946 1.327 . S
C1944 H1969 0.950 . S
C1945 C1944 1.349 1_554 S
C1945 C1961 1.349 . S
C1946 C1944 1.327 . S
C1946 C1965 1.429 1_556 S
C1946 H1970 0.950 . S
C1947 C1964 1.574 . S
C1947 C1966 1.368 . S
C1947 H1971 0.949 . S
H1948 C1952 0.949 . S
C1949 C1950 1.349 . S
C1949 C1951 1.327 . S
C1949 H1972 0.950 . S
C1950 C1949 1.349 . S
C1950 C1962 1.349 1_554 S
C1951 C1949 1.327 . S
C1951 C1967 1.429 . S
C1951 H1973 0.950 . S
C1952 H1948 0.949 . S
C1952 C1960 1.574 . S
C1952 C1968 1.368 1_556 S
H1953 C1961 0.950 . S
H1954 C1959 0.950 . S
H1955 C1960 0.949 . S
H1956 C1962 0.950 . S
H1957 C1963 0.950 . S
H1958 C1964 0.949 . S
C1959 H1954 0.950 . S
C1959 C1961 1.327 . S
C1959 C1965 1.429 . S
C1960 C1952 1.574 . S
C1960 H1955 0.949 . S
C1960 C1966 1.368 1_556 S
C1961 C1945 1.349 . S
C1961 H1953 0.950 . S
C1961 C1959 1.327 . S
C1962 C1950 1.349 1_556 S
C1962 H1956 0.950 . S
C1962 C1963 1.327 . S
C1963 H1957 0.950 . S
C1963 C1962 1.327 . S
C1963 C1967 1.429 1_556 S
C1964 C1947 1.574 . S
C1964 H1958 0.949 . S
C1964 C1968 1.368 . S
C1965 C1946 1.429 1_554 S
C1965 C1959 1.429 . S
C1965 C1966 1.523 . S
C1966 C1947 1.368 . S
C1966 C1960 1.368 1_554 S
C1966 C1965 1.523 . S
C1967 C1951 1.429 . S
C1967 C1963 1.429 1_554 S
C1967 C1968 1.523 . S
C1968 C1952 1.368 1_554 S
C1968 C1964 1.368 . S
C1968 C1967 1.523 . S
H1969 C1944 0.950 . S
H1970 C1946 0.950 . S
H1971 C1947 0.949 . S
H1972 C1949 0.950 . S
H1973 C1951 0.950 . S
C1974 C1975 1.349 . S
C1974 C1976 1.327 . S
C1974 H1999 0.950 . S
C1975 C1974 1.349 . S
C1975 C1991 1.349 1_554 S
C1976 C1974 1.327 . S
C1976 C1995 1.429 . S
C1976 H2000 0.950 . S
C1977 C1994 1.574 . S
C1977 C1996 1.368 1_556 S
C1977 H2001 0.949 . S
H1978 C1982 0.949 . S
C1979 C1980 1.349 1_556 S
C1979 C1981 1.327 . S
C1979 H2002 0.950 . S
C1980 C1979 1.349 1_554 S
C1980 C1992 1.349 . S
C1981 C1979 1.327 . S
C1981 C1997 1.429 1_556 S
C1981 H2003 0.950 . S
C1982 H1978 0.949 . S
C1982 C1990 1.574 . S
C1982 C1998 1.368 . S
H1983 C1991 0.950 . S
H1984 C1989 0.950 . S
H1985 C1990 0.949 . S
H1986 C1992 0.950 . S
H1987 C1993 0.950 . S
H1988 C1994 0.949 . S
C1989 H1984 0.950 . S
C1989 C1991 1.327 . S
C1989 C1995 1.429 1_556 S
C1990 C1982 1.574 . S
C1990 H1985 0.949 . S
C1990 C1996 1.368 . S
C1991 C1975 1.349 1_556 S
C1991 H1983 0.950 . S
C1991 C1989 1.327 . S
C1992 C1980 1.349 . S
C1992 H1986 0.950 . S
C1992 C1993 1.327 . S
C1993 H1987 0.950 . S
C1993 C1992 1.327 . S
C1993 C1997 1.429 . S
C1994 C1977 1.574 . S
C1994 H1988 0.949 . S
C1994 C1998 1.368 1_556 S
C1995 C1976 1.429 . S
C1995 C1989 1.429 1_554 S
C1995 C1996 1.523 . S
C1996 C1977 1.368 1_554 S
C1996 C1990 1.368 . S
C1996 C1995 1.523 . S
C1997 C1981 1.429 1_554 S
C1997 C1993 1.429 . S
C1997 C1998 1.523 . S
C1998 C1982 1.368 . S
C1998 C1994 1.368 1_554 S
C1998 C1997 1.523 . S
H1999 C1974 0.950 . S
H2000 C1976 0.950 . S
H2001 C1977 0.949 . S
H2002 C1979 0.950 . S
H2003 C1981 0.950 . S
C2004 C2005 1.349 . S
C2004 C2006 1.327 . S
C2004 H2029 0.950 . S
C2005 C2004 1.349 . S
C2005 C2021 1.349 . S
C2006 C2004 1.327 . S
C2006 C2025 1.429 . S
C2006 H2030 0.950 . S
C2007 C2024 1.574 . S
C2007 C2026 1.368 . S
C2007 H2031 0.949 . S
H2008 C2012 0.949 . S
C2009 C2010 1.349 . S
C2009 C2011 1.327 . S
C2009 H2032 0.950 . S
C2010 C2009 1.349 . S
C2010 C2022 1.349 . S
C2011 C2009 1.327 . S
C2011 C2027 1.429 . S
C2011 H2033 0.950 . S
C2012 H2008 0.949 . S
C2012 C2020 1.574 . S
C2012 C2028 1.368 . S
H2013 C2021 0.950 . S
H2014 C2019 0.950 . S
H2015 C2020 0.949 . S
H2016 C2022 0.950 . S
H2017 C2023 0.950 . S
H2018 C2024 0.949 . S
C2019 H2014 0.950 . S
C2019 C2021 1.327 . S
C2019 C2025 1.429 . S
C2020 C2012 1.574 . S
C2020 H2015 0.949 . S
C2020 C2026 1.368 . S
C2021 C2005 1.349 . S
C2021 H2013 0.950 . S
C2021 C2019 1.327 . S
C2022 C2010 1.349 . S
C2022 H2016 0.950 . S
C2022 C2023 1.327 . S
C2023 H2017 0.950 . S
C2023 C2022 1.327 . S
C2023 C2027 1.429 . S
C2024 C2007 1.574 . S
C2024 H2018 0.949 . S
C2024 C2028 1.368 . S
C2025 C2006 1.429 . S
C2025 C2019 1.429 . S
C2025 C2026 1.523 . S
C2026 C2007 1.368 . S
C2026 C2020 1.368 . S
C2026 C2025 1.523 . S
C2027 C2011 1.429 . S
C2027 C2023 1.429 . S
C2027 C2028 1.523 . S
C2028 C2012 1.368 . S
C2028 C2024 1.368 . S
C2028 C2027 1.523 . S
H2029 C2004 0.950 . S
H2030 C2006 0.950 . S
H2031 C2007 0.949 . S
H2032 C2009 0.950 . S
H2033 C2011 0.950 . S
C2034 C2035 1.349 . S
C2034 C2036 1.327 . S
C2034 H2059 0.950 . S
C2035 C2034 1.349 . S
C2035 C2051 1.349 . S
C2036 C2034 1.327 . S
C2036 C2055 1.429 . S
C2036 H2060 0.950 . S
C2037 C2054 1.574 . S
C2037 C2056 1.368 . S
C2037 H2061 0.949 . S
H2038 C2042 0.949 . S
C2039 C2040 1.349 . S
C2039 C2041 1.327 . S
C2039 H2062 0.950 . S
C2040 C2039 1.349 . S
C2040 C2052 1.349 . S
C2041 C2039 1.327 . S
C2041 C2057 1.429 . S
C2041 H2063 0.950 . S
C2042 H2038 0.949 . S
C2042 C2050 1.574 . S
C2042 C2058 1.368 . S
H2043 C2051 0.950 . S
H2044 C2049 0.950 . S
H2045 C2050 0.949 . S
H2046 C2052 0.950 . S
H2047 C2053 0.950 . S
H2048 C2054 0.949 . S
C2049 H2044 0.950 . S
C2049 C2051 1.327 . S
C2049 C2055 1.429 . S
C2050 C2042 1.574 . S
C2050 H2045 0.949 . S
C2050 C2056 1.368 . S
C2051 C2035 1.349 . S
C2051 H2043 0.950 . S
C2051 C2049 1.327 . S
C2052 C2040 1.349 . S
C2052 H2046 0.950 . S
C2052 C2053 1.327 . S
C2053 H2047 0.950 . S
C2053 C2052 1.327 . S
C2053 C2057 1.429 . S
C2054 C2037 1.574 . S
C2054 H2048 0.949 . S
C2054 C2058 1.368 . S
C2055 C2036 1.429 . S
C2055 C2049 1.429 . S
C2055 C2056 1.523 . S
C2056 C2037 1.368 . S
C2056 C2050 1.368 . S
C2056 C2055 1.523 . S
C2057 C2041 1.429 . S
C2057 C2053 1.429 . S
C2057 C2058 1.523 . S
C2058 C2042 1.368 . S
C2058 C2054 1.368 . S
C2058 C2057 1.523 . S
H2059 C2034 0.950 . S
H2060 C2036 0.950 . S
H2061 C2037 0.949 . S
H2062 C2039 0.950 . S
H2063 C2041 0.950 . S
C2064 C2065 1.349 . S
C2064 C2066 1.327 . S
C2064 H2089 0.950 . S
C2065 C2064 1.349 . S
C2065 C2081 1.349 . S
C2066 C2064 1.327 . S
C2066 C2085 1.429 . S
C2066 H2090 0.950 . S
C2067 C2084 1.574 . S
C2067 C2086 1.368 . S
C2067 H2091 0.949 . S
H2068 C2072 0.949 . S
C2069 C2070 1.349 . S
C2069 C2071 1.327 . S
C2069 H2092 0.950 . S
C2070 C2069 1.349 . S
C2070 C2082 1.349 . S
C2071 C2069 1.327 . S
C2071 C2087 1.429 . S
C2071 H2093 0.950 . S
C2072 H2068 0.949 . S
C2072 C2080 1.574 . S
C2072 C2088 1.368 . S
H2073 C2081 0.950 . S
H2074 C2079 0.950 . S
H2075 C2080 0.949 . S
H2076 C2082 0.950 . S
H2077 C2083 0.950 . S
H2078 C2084 0.949 . S
C2079 H2074 0.950 . S
C2079 C2081 1.327 . S
C2079 C2085 1.429 . S
C2080 C2072 1.574 . S
C2080 H2075 0.949 . S
C2080 C2086 1.368 . S
C2081 C2065 1.349 . S
C2081 H2073 0.950 . S
C2081 C2079 1.327 . S
C2082 C2070 1.349 . S
C2082 H2076 0.950 . S
C2082 C2083 1.327 . S
C2083 H2077 0.950 . S
C2083 C2082 1.327 . S
C2083 C2087 1.429 . S
C2084 C2067 1.574 . S
C2084 H2078 0.949 . S
C2084 C2088 1.368 . S
C2085 C2066 1.429 . S
C2085 C2079 1.429 . S
C2085 C2086 1.523 . S
C2086 C2067 1.368 . S
C2086 C2080 1.368 . S
C2086 C2085 1.523 . S
C2087 C2071 1.429 . S
C2087 C2083 1.429 . S
C2087 C2088 1.523 . S
C2088 C2072 1.368 . S
C2088 C2084 1.368 . S
C2088 C2087 1.523 . S
H2089 C2064 0.950 . S
H2090 C2066 0.950 . S
H2091 C2067 0.949 . S
H2092 C2069 0.950 . S
H2093 C2071 0.950 . S
C2094 C2095 1.349 . S
C2094 C2096 1.327 . S
C2094 H2119 0.950 . S
C2095 C2094 1.349 . S
C2095 C2111 1.349 . S
C2096 C2094 1.327 . S
C2096 C2115 1.429 . S
C2096 H2120 0.950 . S
C2097 C2114 1.574 . S
C2097 C2116 1.368 . S
C2097 H2121 0.949 . S
H2098 C2102 0.949 . S
C2099 C2100 1.349 . S
C2099 C2101 1.327 . S
C2099 H2122 0.950 . S
C2100 C2099 1.349 . S
C2100 C2112 1.349 . S
C2101 C2099 1.327 . S
C2101 C2117 1.429 . S
C2101 H2123 0.950 . S
C2102 H2098 0.949 . S
C2102 C2110 1.574 . S
C2102 C2118 1.368 . S
H2103 C2111 0.950 . S
H2104 C2109 0.950 . S
H2105 C2110 0.949 . S
H2106 C2112 0.950 . S
H2107 C2113 0.950 . S
H2108 C2114 0.949 . S
C2109 H2104 0.950 . S
C2109 C2111 1.327 . S
C2109 C2115 1.429 . S
C2110 C2102 1.574 . S
C2110 H2105 0.949 . S
C2110 C2116 1.368 . S
C2111 C2095 1.349 . S
C2111 H2103 0.950 . S
C2111 C2109 1.327 . S
C2112 C2100 1.349 . S
C2112 H2106 0.950 . S
C2112 C2113 1.327 . S
C2113 H2107 0.950 . S
C2113 C2112 1.327 . S
C2113 C2117 1.429 . S
C2114 C2097 1.574 . S
C2114 H2108 0.949 . S
C2114 C2118 1.368 . S
C2115 C2096 1.429 . S
C2115 C2109 1.429 . S
C2115 C2116 1.523 . S
C2116 C2097 1.368 . S
C2116 C2110 1.368 . S
C2116 C2115 1.523 . S
C2117 C2101 1.429 . S
C2117 C2113 1.429 . S
C2117 C2118 1.523 . S
C2118 C2102 1.368 . S
C2118 C2114 1.368 . S
C2118 C2117 1.523 . S
H2119 C2094 0.950 . S
H2120 C2096 0.950 . S
H2121 C2097 0.949 . S
H2122 C2099 0.950 . S
H2123 C2101 0.950 . S
C2124 C2125 1.349 . S
C2124 C2126 1.327 . S
C2124 H2149 0.950 . S
C2125 C2124 1.349 . S
C2125 C2141 1.349 . S
C2126 C2124 1.327 . S
C2126 C2145 1.429 . S
C2126 H2150 0.950 . S
C2127 C2144 1.574 . S
C2127 C2146 1.368 . S
C2127 H2151 0.949 . S
H2128 C2132 0.949 . S
C2129 C2130 1.349 . S
C2129 C2131 1.327 . S
C2129 H2152 0.950 . S
C2130 C2129 1.349 . S
C2130 C2142 1.349 . S
C2131 C2129 1.327 . S
C2131 C2147 1.429 . S
C2131 H2153 0.950 . S
C2132 H2128 0.949 . S
C2132 C2140 1.574 . S
C2132 C2148 1.368 . S
H2133 C2141 0.950 . S
H2134 C2139 0.950 . S
H2135 C2140 0.949 . S
H2136 C2142 0.950 . S
H2137 C2143 0.950 . S
H2138 C2144 0.949 . S
C2139 H2134 0.950 . S
C2139 C2141 1.327 . S
C2139 C2145 1.429 . S
C2140 C2132 1.574 . S
C2140 H2135 0.949 . S
C2140 C2146 1.368 . S
C2141 C2125 1.349 . S
C2141 H2133 0.950 . S
C2141 C2139 1.327 . S
C2142 C2130 1.349 . S
C2142 H2136 0.950 . S
C2142 C2143 1.327 . S
C2143 H2137 0.950 . S
C2143 C2142 1.327 . S
C2143 C2147 1.429 . S
C2144 C2127 1.574 . S
C2144 H2138 0.949 . S
C2144 C2148 1.368 . S
C2145 C2126 1.429 . S
C2145 C2139 1.429 . S
C2145 C2146 1.523 . S
C2146 C2127 1.368 . S
C2146 C2140 1.368 . S
C2146 C2145 1.523 . S
C2147 C2131 1.429 . S
C2147 C2143 1.429 . S
C2147 C2148 1.523 . S
C2148 C2132 1.368 . S
C2148 C2144 1.368 . S
C2148 C2147 1.523 . S
H2149 C2124 0.950 . S
H2150 C2126 0.950 . S
H2151 C2127 0.949 . S
H2152 C2129 0.950 . S
H2153 C2131 0.950 . S
C2154 C2155 1.349 . S
C2154 C2156 1.327 . S
C2154 H2179 0.950 . S
C2155 C2154 1.349 . S
C2155 C2171 1.349 . S
C2156 C2154 1.327 . S
C2156 C2175 1.429 . S
C2156 H2180 0.950 . S
C2157 C2174 1.574 . S
C2157 C2176 1.368 . S
C2157 H2181 0.949 . S
H2158 C2162 0.949 . S
C2159 C2160 1.349 . S
C2159 C2161 1.327 . S
C2159 H2182 0.950 . S
C2160 C2159 1.349 . S
C2160 C2172 1.349 . S
C2161 C2159 1.327 . S
C2161 C2177 1.429 . S
C2161 H2183 0.950 . S
C2162 H2158 0.949 . S
C2162 C2170 1.574 . S
C2162 C2178 1.368 . S
H2163 C2171 0.950 . S
H2164 C2169 0.950 . S
H2165 C2170 0.949 . S
H2166 C2172 0.950 . S
H2167 C2173 0.950 . S
H2168 C2174 0.949 . S
C2169 H2164 0.950 . S
C2169 C2171 1.327 . S
C2169 C2175 1.429 . S
C2170 C2162 1.574 . S
C2170 H2165 0.949 . S
C2170 C2176 1.368 . S
C2171 C2155 1.349 . S
C2171 H2163 0.950 . S
C2171 C2169 1.327 . S
C2172 C2160 1.349 . S
C2172 H2166 0.950 . S
C2172 C2173 1.327 . S
C2173 H2167 0.950 . S
C2173 C2172 1.327 . S
C2173 C2177 1.429 . S
C2174 C2157 1.574 . S
C2174 H2168 0.949 . S
C2174 C2178 1.368 . S
C2175 C2156 1.429 . S
C2175 C2169 1.429 . S
C2175 C2176 1.523 . S
C2176 C2157 1.368 . S
C2176 C2170 1.368 . S
C2176 C2175 1.523 . S
C2177 C2161 1.429 . S
C2177 C2173 1.429 . S
C2177 C2178 1.523 . S
C2178 C2162 1.368 . S
C2178 C2174 1.368 . S
C2178 C2177 1.523 . S
H2179 C2154 0.950 . S
H2180 C2156 0.950 . S
H2181 C2157 0.949 . S
H2182 C2159 0.950 . S
H2183 C2161 0.950 . S
C2184 C2185 1.349 . S
C2184 C2186 1.327 . S
C2184 H2209 0.950 . S
C2185 C2184 1.349 . S
C2185 C2201 1.349 . S
C2186 C2184 1.327 . S
C2186 C2205 1.429 . S
C2186 H2210 0.950 . S
C2187 C2204 1.574 . S
C2187 C2206 1.368 . S
C2187 H2211 0.949 . S
H2188 C2192 0.949 . S
C2189 C2190 1.349 . S
C2189 C2191 1.327 . S
C2189 H2212 0.950 . S
C2190 C2189 1.349 . S
C2190 C2202 1.349 . S
C2191 C2189 1.327 . S
C2191 C2207 1.429 . S
C2191 H2213 0.950 . S
C2192 H2188 0.949 . S
C2192 C2200 1.574 . S
C2192 C2208 1.368 . S
H2193 C2201 0.950 . S
H2194 C2199 0.950 . S
H2195 C2200 0.949 . S
H2196 C2202 0.950 . S
H2197 C2203 0.950 . S
H2198 C2204 0.949 . S
C2199 H2194 0.950 . S
C2199 C2201 1.327 . S
C2199 C2205 1.429 . S
C2200 C2192 1.574 . S
C2200 H2195 0.949 . S
C2200 C2206 1.368 . S
C2201 C2185 1.349 . S
C2201 H2193 0.950 . S
C2201 C2199 1.327 . S
C2202 C2190 1.349 . S
C2202 H2196 0.950 . S
C2202 C2203 1.327 . S
C2203 H2197 0.950 . S
C2203 C2202 1.327 . S
C2203 C2207 1.429 . S
C2204 C2187 1.574 . S
C2204 H2198 0.949 . S
C2204 C2208 1.368 . S
C2205 C2186 1.429 . S
C2205 C2199 1.429 . S
C2205 C2206 1.523 . S
C2206 C2187 1.368 . S
C2206 C2200 1.368 . S
C2206 C2205 1.523 . S
C2207 C2191 1.429 . S
C2207 C2203 1.429 . S
C2207 C2208 1.523 . S
C2208 C2192 1.368 . S
C2208 C2204 1.368 . S
C2208 C2207 1.523 . S
H2209 C2184 0.950 . S
H2210 C2186 0.950 . S
H2211 C2187 0.949 . S
H2212 C2189 0.950 . S
H2213 C2191 0.950 . S
C2214 C2215 1.349 . S
C2214 C2216 1.327 . S
C2214 H2239 0.950 . S
C2215 C2214 1.349 . S
C2215 C2231 1.349 . S
C2216 C2214 1.327 . S
C2216 C2235 1.429 . S
C2216 H2240 0.950 . S
C2217 C2234 1.574 . S
C2217 C2236 1.368 . S
C2217 H2241 0.949 . S
H2218 C2222 0.949 . S
C2219 C2220 1.349 . S
C2219 C2221 1.327 . S
C2219 H2242 0.950 . S
C2220 C2219 1.349 . S
C2220 C2232 1.349 . S
C2221 C2219 1.327 . S
C2221 C2237 1.429 . S
C2221 H2243 0.950 . S
C2222 H2218 0.949 . S
C2222 C2230 1.574 . S
C2222 C2238 1.368 . S
H2223 C2231 0.950 . S
H2224 C2229 0.950 . S
H2225 C2230 0.949 . S
H2226 C2232 0.950 . S
H2227 C2233 0.950 . S
H2228 C2234 0.949 . S
C2229 H2224 0.950 . S
C2229 C2231 1.327 . S
C2229 C2235 1.429 . S
C2230 C2222 1.574 . S
C2230 H2225 0.949 . S
C2230 C2236 1.368 . S
C2231 C2215 1.349 . S
C2231 H2223 0.950 . S
C2231 C2229 1.327 . S
C2232 C2220 1.349 . S
C2232 H2226 0.950 . S
C2232 C2233 1.327 . S
C2233 H2227 0.950 . S
C2233 C2232 1.327 . S
C2233 C2237 1.429 . S
C2234 C2217 1.574 . S
C2234 H2228 0.949 . S
C2234 C2238 1.368 . S
C2235 C2216 1.429 . S
C2235 C2229 1.429 . S
C2235 C2236 1.523 . S
C2236 C2217 1.368 . S
C2236 C2230 1.368 . S
C2236 C2235 1.523 . S
C2237 C2221 1.429 . S
C2237 C2233 1.429 . S
C2237 C2238 1.523 . S
C2238 C2222 1.368 . S
C2238 C2234 1.368 . S
C2238 C2237 1.523 . S
H2239 C2214 0.950 . S
H2240 C2216 0.950 . S
H2241 C2217 0.949 . S
H2242 C2219 0.950 . S
H2243 C2221 0.950 . S
C2244 C2245 1.349 . S
C2244 C2246 1.327 . S
C2244 H2269 0.950 . S
C2245 C2244 1.349 . S
C2245 C2261 1.349 . S
C2246 C2244 1.327 . S
C2246 C2265 1.429 . S
C2246 H2270 0.950 . S
C2247 C2264 1.574 . S
C2247 C2266 1.368 . S
C2247 H2271 0.949 . S
H2248 C2252 0.949 . S
C2249 C2250 1.349 . S
C2249 C2251 1.327 . S
C2249 H2272 0.950 . S
C2250 C2249 1.349 . S
C2250 C2262 1.349 . S
C2251 C2249 1.327 . S
C2251 C2267 1.429 . S
C2251 H2273 0.950 . S
C2252 H2248 0.949 . S
C2252 C2260 1.574 . S
C2252 C2268 1.368 . S
H2253 C2261 0.950 . S
H2254 C2259 0.950 . S
H2255 C2260 0.949 . S
H2256 C2262 0.950 . S
H2257 C2263 0.950 . S
H2258 C2264 0.949 . S
C2259 H2254 0.950 . S
C2259 C2261 1.327 . S
C2259 C2265 1.429 . S
C2260 C2252 1.574 . S
C2260 H2255 0.949 . S
C2260 C2266 1.368 . S
C2261 C2245 1.349 . S
C2261 H2253 0.950 . S
C2261 C2259 1.327 . S
C2262 C2250 1.349 . S
C2262 H2256 0.950 . S
C2262 C2263 1.327 . S
C2263 H2257 0.950 . S
C2263 C2262 1.327 . S
C2263 C2267 1.429 . S
C2264 C2247 1.574 . S
C2264 H2258 0.949 . S
C2264 C2268 1.368 . S
C2265 C2246 1.429 . S
C2265 C2259 1.429 . S
C2265 C2266 1.523 . S
C2266 C2247 1.368 . S
C2266 C2260 1.368 . S
C2266 C2265 1.523 . S
C2267 C2251 1.429 . S
C2267 C2263 1.429 . S
C2267 C2268 1.523 . S
C2268 C2252 1.368 . S
C2268 C2264 1.368 . S
C2268 C2267 1.523 . S
H2269 C2244 0.950 . S
H2270 C2246 0.950 . S
H2271 C2247 0.949 . S
H2272 C2249 0.950 . S
H2273 C2251 0.950 . S
C2274 C2275 1.349 . S
C2274 C2276 1.327 . S
C2274 H2299 0.950 . S
C2275 C2274 1.349 . S
C2275 C2291 1.349 . S
C2276 C2274 1.327 . S
C2276 C2295 1.429 . S
C2276 H2300 0.950 . S
C2277 C2294 1.574 . S
C2277 C2296 1.368 . S
C2277 H2301 0.949 . S
H2278 C2282 0.949 . S
C2279 C2280 1.349 . S
C2279 C2281 1.327 . S
C2279 H2302 0.950 . S
C2280 C2279 1.349 . S
C2280 C2292 1.349 . S
C2281 C2279 1.327 . S
C2281 C2297 1.429 . S
C2281 H2303 0.950 . S
C2282 H2278 0.949 . S
C2282 C2290 1.574 . S
C2282 C2298 1.368 . S
H2283 C2291 0.950 . S
H2284 C2289 0.950 . S
H2285 C2290 0.949 . S
H2286 C2292 0.950 . S
H2287 C2293 0.950 . S
H2288 C2294 0.949 . S
C2289 H2284 0.950 . S
C2289 C2291 1.327 . S
C2289 C2295 1.429 . S
C2290 C2282 1.574 . S
C2290 H2285 0.949 . S
C2290 C2296 1.368 . S
C2291 C2275 1.349 . S
C2291 H2283 0.950 . S
C2291 C2289 1.327 . S
C2292 C2280 1.349 . S
C2292 H2286 0.950 . S
C2292 C2293 1.327 . S
C2293 H2287 0.950 . S
C2293 C2292 1.327 . S
C2293 C2297 1.429 . S
C2294 C2277 1.574 . S
C2294 H2288 0.949 . S
C2294 C2298 1.368 . S
C2295 C2276 1.429 . S
C2295 C2289 1.429 . S
C2295 C2296 1.523 . S
C2296 C2277 1.368 . S
C2296 C2290 1.368 . S
C2296 C2295 1.523 . S
C2297 C2281 1.429 . S
C2297 C2293 1.429 . S
C2297 C2298 1.523 . S
C2298 C2282 1.368 . S
C2298 C2294 1.368 . S
C2298 C2297 1.523 . S
H2299 C2274 0.950 . S
H2300 C2276 0.950 . S
H2301 C2277 0.949 . S
H2302 C2279 0.950 . S
H2303 C2281 0.950 . S
C2304 C2305 1.349 . S
C2304 C2306 1.327 . S
C2304 H2329 0.950 . S
C2305 C2304 1.349 . S
C2305 C2321 1.349 . S
C2306 C2304 1.327 . S
C2306 C2325 1.429 . S
C2306 H2330 0.950 . S
C2307 C2324 1.574 . S
C2307 C2326 1.368 . S
C2307 H2331 0.949 . S
H2308 C2312 0.949 . S
C2309 C2310 1.349 . S
C2309 C2311 1.327 . S
C2309 H2332 0.950 . S
C2310 C2309 1.349 . S
C2310 C2322 1.349 . S
C2311 C2309 1.327 . S
C2311 C2327 1.429 . S
C2311 H2333 0.950 . S
C2312 H2308 0.949 . S
C2312 C2320 1.574 . S
C2312 C2328 1.368 . S
H2313 C2321 0.950 . S
H2314 C2319 0.950 . S
H2315 C2320 0.949 . S
H2316 C2322 0.950 . S
H2317 C2323 0.950 . S
H2318 C2324 0.949 . S
C2319 H2314 0.950 . S
C2319 C2321 1.327 . S
C2319 C2325 1.429 . S
C2320 C2312 1.574 . S
C2320 H2315 0.949 . S
C2320 C2326 1.368 . S
C2321 C2305 1.349 . S
C2321 H2313 0.950 . S
C2321 C2319 1.327 . S
C2322 C2310 1.349 . S
C2322 H2316 0.950 . S
C2322 C2323 1.327 . S
C2323 H2317 0.950 . S
C2323 C2322 1.327 . S
C2323 C2327 1.429 . S
C2324 C2307 1.574 . S
C2324 H2318 0.949 . S
C2324 C2328 1.368 . S
C2325 C2306 1.429 . S
C2325 C2319 1.429 . S
C2325 C2326 1.523 . S
C2326 C2307 1.368 . S
C2326 C2320 1.368 . S
C2326 C2325 1.523 . S
C2327 C2311 1.429 . S
C2327 C2323 1.429 . S
C2327 C2328 1.523 . S
C2328 C2312 1.368 . S
C2328 C2324 1.368 . S
C2328 C2327 1.523 . S
H2329 C2304 0.950 . S
H2330 C2306 0.950 . S
H2331 C2307 0.949 . S
H2332 C2309 0.950 . S
H2333 C2311 0.950 . S
C2334 C2335 1.349 . S
C2334 C2336 1.327 . S
C2334 H2359 0.950 . S
C2335 C2334 1.349 . S
C2335 C2351 1.349 . S
C2336 C2334 1.327 . S
C2336 C2355 1.429 . S
C2336 H2360 0.950 . S
C2337 C2354 1.574 . S
C2337 C2356 1.368 . S
C2337 H2361 0.949 . S
H2338 C2342 0.949 . S
C2339 C2340 1.349 . S
C2339 C2341 1.327 . S
C2339 H2362 0.950 . S
C2340 C2339 1.349 . S
C2340 C2352 1.349 . S
C2341 C2339 1.327 . S
C2341 C2357 1.429 . S
C2341 H2363 0.950 . S
C2342 H2338 0.949 . S
C2342 C2350 1.574 . S
C2342 C2358 1.368 . S
H2343 C2351 0.950 . S
H2344 C2349 0.950 . S
H2345 C2350 0.949 . S
H2346 C2352 0.950 . S
H2347 C2353 0.950 . S
H2348 C2354 0.949 . S
C2349 H2344 0.950 . S
C2349 C2351 1.327 . S
C2349 C2355 1.429 . S
C2350 C2342 1.574 . S
C2350 H2345 0.949 . S
C2350 C2356 1.368 . S
C2351 C2335 1.349 . S
C2351 H2343 0.950 . S
C2351 C2349 1.327 . S
C2352 C2340 1.349 . S
C2352 H2346 0.950 . S
C2352 C2353 1.327 . S
C2353 H2347 0.950 . S
C2353 C2352 1.327 . S
C2353 C2357 1.429 . S
C2354 C2337 1.574 . S
C2354 H2348 0.949 . S
C2354 C2358 1.368 . S
C2355 C2336 1.429 . S
C2355 C2349 1.429 . S
C2355 C2356 1.523 . S
C2356 C2337 1.368 . S
C2356 C2350 1.368 . S
C2356 C2355 1.523 . S
C2357 C2341 1.429 . S
C2357 C2353 1.429 . S
C2357 C2358 1.523 . S
C2358 C2342 1.368 . S
C2358 C2354 1.368 . S
C2358 C2357 1.523 . S
H2359 C2334 0.950 . S
H2360 C2336 0.950 . S
H2361 C2337 0.949 . S
H2362 C2339 0.950 . S
H2363 C2341 0.950 . S
C2364 C2365 1.349 . S
C2364 C2366 1.327 . S
C2364 H2389 0.950 . S
C2365 C2364 1.349 . S
C2365 C2381 1.349 . S
C2366 C2364 1.327 . S
C2366 C2385 1.429 . S
C2366 H2390 0.950 . S
C2367 C2384 1.574 . S
C2367 C2386 1.368 . S
C2367 H2391 0.949 . S
H2368 C2372 0.949 . S
C2369 C2370 1.349 . S
C2369 C2371 1.327 . S
C2369 H2392 0.950 . S
C2370 C2369 1.349 . S
C2370 C2382 1.349 . S
C2371 C2369 1.327 . S
C2371 C2387 1.429 . S
C2371 H2393 0.950 . S
C2372 H2368 0.949 . S
C2372 C2380 1.574 . S
C2372 C2388 1.368 . S
H2373 C2381 0.950 . S
H2374 C2379 0.950 . S
H2375 C2380 0.949 . S
H2376 C2382 0.950 . S
H2377 C2383 0.950 . S
H2378 C2384 0.949 . S
C2379 H2374 0.950 . S
C2379 C2381 1.327 . S
C2379 C2385 1.429 . S
C2380 C2372 1.574 . S
C2380 H2375 0.949 . S
C2380 C2386 1.368 . S
C2381 C2365 1.349 . S
C2381 H2373 0.950 . S
C2381 C2379 1.327 . S
C2382 C2370 1.349 . S
C2382 H2376 0.950 . S
C2382 C2383 1.327 . S
C2383 H2377 0.950 . S
C2383 C2382 1.327 . S
C2383 C2387 1.429 . S
C2384 C2367 1.574 . S
C2384 H2378 0.949 . S
C2384 C2388 1.368 . S
C2385 C2366 1.429 . S
C2385 C2379 1.429 . S
C2385 C2386 1.523 . S
C2386 C2367 1.368 . S
C2386 C2380 1.368 . S
C2386 C2385 1.523 . S
C2387 C2371 1.429 . S
C2387 C2383 1.429 . S
C2387 C2388 1.523 . S
C2388 C2372 1.368 . S
C2388 C2384 1.368 . S
C2388 C2387 1.523 . S
H2389 C2364 0.950 . S
H2390 C2366 0.950 . S
H2391 C2367 0.949 . S
H2392 C2369 0.950 . S
H2393 C2371 0.950 . S
C2394 C2395 1.349 . S
C2394 C2396 1.327 . S
C2394 H2419 0.950 . S
C2395 C2394 1.349 . S
C2395 C2411 1.349 . S
C2396 C2394 1.327 . S
C2396 C2415 1.429 . S
C2396 H2420 0.950 . S
C2397 C2414 1.574 . S
C2397 C2416 1.368 . S
C2397 H2421 0.949 . S
H2398 C2402 0.949 . S
C2399 C2400 1.349 . S
C2399 C2401 1.327 . S
C2399 H2422 0.950 . S
C2400 C2399 1.349 . S
C2400 C2412 1.349 . S
C2401 C2399 1.327 . S
C2401 C2417 1.429 . S
C2401 H2423 0.950 . S
C2402 H2398 0.949 . S
C2402 C2410 1.574 . S
C2402 C2418 1.368 . S
H2403 C2411 0.950 . S
H2404 C2409 0.950 . S
H2405 C2410 0.949 . S
H2406 C2412 0.950 . S
H2407 C2413 0.950 . S
H2408 C2414 0.949 . S
C2409 H2404 0.950 . S
C2409 C2411 1.327 . S
C2409 C2415 1.429 . S
C2410 C2402 1.574 . S
C2410 H2405 0.949 . S
C2410 C2416 1.368 . S
C2411 C2395 1.349 . S
C2411 H2403 0.950 . S
C2411 C2409 1.327 . S
C2412 C2400 1.349 . S
C2412 H2406 0.950 . S
C2412 C2413 1.327 . S
C2413 H2407 0.950 . S
C2413 C2412 1.327 . S
C2413 C2417 1.429 . S
C2414 C2397 1.574 . S
C2414 H2408 0.949 . S
C2414 C2418 1.368 . S
C2415 C2396 1.429 . S
C2415 C2409 1.429 . S
C2415 C2416 1.523 . S
C2416 C2397 1.368 . S
C2416 C2410 1.368 . S
C2416 C2415 1.523 . S
C2417 C2401 1.429 . S
C2417 C2413 1.429 . S
C2417 C2418 1.523 . S
C2418 C2402 1.368 . S
C2418 C2414 1.368 . S
C2418 C2417 1.523 . S
H2419 C2394 0.950 . S
H2420 C2396 0.950 . S
H2421 C2397 0.949 . S
H2422 C2399 0.950 . S
H2423 C2401 0.950 . S
C2424 C2425 1.349 . S
C2424 C2426 1.327 . S
C2424 H2449 0.950 . S
C2425 C2424 1.349 . S
C2425 C2441 1.349 . S
C2426 C2424 1.327 . S
C2426 C2445 1.429 . S
C2426 H2450 0.950 . S
C2427 C2444 1.574 . S
C2427 C2446 1.368 . S
C2427 H2451 0.949 . S
H2428 C2432 0.949 . S
C2429 C2430 1.349 . S
C2429 C2431 1.327 . S
C2429 H2452 0.950 . S
C2430 C2429 1.349 . S
C2430 C2442 1.349 . S
C2431 C2429 1.327 . S
C2431 C2447 1.429 . S
C2431 H2453 0.950 . S
C2432 H2428 0.949 . S
C2432 C2440 1.574 . S
C2432 C2448 1.368 . S
H2433 C2441 0.950 . S
H2434 C2439 0.950 . S
H2435 C2440 0.949 . S
H2436 C2442 0.950 . S
H2437 C2443 0.950 . S
H2438 C2444 0.949 . S
C2439 H2434 0.950 . S
C2439 C2441 1.327 . S
C2439 C2445 1.429 . S
C2440 C2432 1.574 . S
C2440 H2435 0.949 . S
C2440 C2446 1.368 . S
C2441 C2425 1.349 . S
C2441 H2433 0.950 . S
C2441 C2439 1.327 . S
C2442 C2430 1.349 . S
C2442 H2436 0.950 . S
C2442 C2443 1.327 . S
C2443 H2437 0.950 . S
C2443 C2442 1.327 . S
C2443 C2447 1.429 . S
C2444 C2427 1.574 . S
C2444 H2438 0.949 . S
C2444 C2448 1.368 . S
C2445 C2426 1.429 . S
C2445 C2439 1.429 . S
C2445 C2446 1.523 . S
C2446 C2427 1.368 . S
C2446 C2440 1.368 . S
C2446 C2445 1.523 . S
C2447 C2431 1.429 . S
C2447 C2443 1.429 . S
C2447 C2448 1.523 . S
C2448 C2432 1.368 . S
C2448 C2444 1.368 . S
C2448 C2447 1.523 . S
H2449 C2424 0.950 . S
H2450 C2426 0.950 . S
H2451 C2427 0.949 . S
H2452 C2429 0.950 . S
H2453 C2431 0.950 . S
C2454 C2455 1.349 . S
C2454 C2456 1.327 . S
C2454 H2479 0.950 . S
C2455 C2454 1.349 . S
C2455 C2471 1.349 . S
C2456 C2454 1.327 . S
C2456 C2475 1.429 . S
C2456 H2480 0.950 . S
C2457 C2474 1.574 . S
C2457 C2476 1.368 . S
C2457 H2481 0.949 . S
H2458 C2462 0.949 . S
C2459 C2460 1.349 . S
C2459 C2461 1.327 . S
C2459 H2482 0.950 . S
C2460 C2459 1.349 . S
C2460 C2472 1.349 . S
C2461 C2459 1.327 . S
C2461 C2477 1.429 . S
C2461 H2483 0.950 . S
C2462 H2458 0.949 . S
C2462 C2470 1.574 . S
C2462 C2478 1.368 . S
H2463 C2471 0.950 . S
H2464 C2469 0.950 . S
H2465 C2470 0.949 . S
H2466 C2472 0.950 . S
H2467 C2473 0.950 . S
H2468 C2474 0.949 . S
C2469 H2464 0.950 . S
C2469 C2471 1.327 . S
C2469 C2475 1.429 . S
C2470 C2462 1.574 . S
C2470 H2465 0.949 . S
C2470 C2476 1.368 . S
C2471 C2455 1.349 . S
C2471 H2463 0.950 . S
C2471 C2469 1.327 . S
C2472 C2460 1.349 . S
C2472 H2466 0.950 . S
C2472 C2473 1.327 . S
C2473 H2467 0.950 . S
C2473 C2472 1.327 . S
C2473 C2477 1.429 . S
C2474 C2457 1.574 . S
C2474 H2468 0.949 . S
C2474 C2478 1.368 . S
C2475 C2456 1.429 . S
C2475 C2469 1.429 . S
C2475 C2476 1.523 . S
C2476 C2457 1.368 . S
C2476 C2470 1.368 . S
C2476 C2475 1.523 . S
C2477 C2461 1.429 . S
C2477 C2473 1.429 . S
C2477 C2478 1.523 . S
C2478 C2462 1.368 . S
C2478 C2474 1.368 . S
C2478 C2477 1.523 . S
H2479 C2454 0.950 . S
H2480 C2456 0.950 . S
H2481 C2457 0.949 . S
H2482 C2459 0.950 . S
H2483 C2461 0.950 . S
C2484 C2485 1.349 . S
C2484 C2486 1.327 . S
C2484 H2509 0.950 . S
C2485 C2484 1.349 . S
C2485 C2501 1.349 . S
C2486 C2484 1.327 . S
C2486 C2505 1.429 . S
C2486 H2510 0.950 . S
C2487 C2504 1.574 . S
C2487 C2506 1.368 . S
C2487 H2511 0.949 . S
H2488 C2492 0.949 . S
C2489 C2490 1.349 . S
C2489 C2491 1.327 . S
C2489 H2512 0.950 . S
C2490 C2489 1.349 . S
C2490 C2502 1.349 . S
C2491 C2489 1.327 . S
C2491 C2507 1.429 . S
C2491 H2513 0.950 . S
C2492 H2488 0.949 . S
C2492 C2500 1.574 . S
C2492 C2508 1.368 . S
H2493 C2501 0.950 . S
H2494 C2499 0.950 . S
H2495 C2500 0.949 . S
H2496 C2502 0.950 . S
H2497 C2503 0.950 . S
H2498 C2504 0.949 . S
C2499 H2494 0.950 . S
C2499 C2501 1.327 . S
C2499 C2505 1.429 . S
C2500 C2492 1.574 . S
C2500 H2495 0.949 . S
C2500 C2506 1.368 . S
C2501 C2485 1.349 . S
C2501 H2493 0.950 . S
C2501 C2499 1.327 . S
C2502 C2490 1.349 . S
C2502 H2496 0.950 . S
C2502 C2503 1.327 . S
C2503 H2497 0.950 . S
C2503 C2502 1.327 . S
C2503 C2507 1.429 . S
C2504 C2487 1.574 . S
C2504 H2498 0.949 . S
C2504 C2508 1.368 . S
C2505 C2486 1.429 . S
C2505 C2499 1.429 . S
C2505 C2506 1.523 . S
C2506 C2487 1.368 . S
C2506 C2500 1.368 . S
C2506 C2505 1.523 . S
C2507 C2491 1.429 . S
C2507 C2503 1.429 . S
C2507 C2508 1.523 . S
C2508 C2492 1.368 . S
C2508 C2504 1.368 . S
C2508 C2507 1.523 . S
H2509 C2484 0.950 . S
H2510 C2486 0.950 . S
H2511 C2487 0.949 . S
H2512 C2489 0.950 . S
H2513 C2491 0.950 . S
C2514 C2515 1.349 . S
C2514 C2516 1.327 . S
C2514 H2539 0.950 . S
C2515 C2514 1.349 . S
C2515 C2531 1.349 . S
C2516 C2514 1.327 . S
C2516 C2535 1.429 . S
C2516 H2540 0.950 . S
C2517 C2534 1.574 . S
C2517 C2536 1.368 . S
C2517 H2541 0.949 . S
H2518 C2522 0.949 . S
C2519 C2520 1.349 . S
C2519 C2521 1.327 . S
C2519 H2542 0.950 . S
C2520 C2519 1.349 . S
C2520 C2532 1.349 . S
C2521 C2519 1.327 . S
C2521 C2537 1.429 . S
C2521 H2543 0.950 . S
C2522 H2518 0.949 . S
C2522 C2530 1.574 . S
C2522 C2538 1.368 . S
H2523 C2531 0.950 . S
H2524 C2529 0.950 . S
H2525 C2530 0.949 . S
H2526 C2532 0.950 . S
H2527 C2533 0.950 . S
H2528 C2534 0.949 . S
C2529 H2524 0.950 . S
C2529 C2531 1.327 . S
C2529 C2535 1.429 . S
C2530 C2522 1.574 . S
C2530 H2525 0.949 . S
C2530 C2536 1.368 . S
C2531 C2515 1.349 . S
C2531 H2523 0.950 . S
C2531 C2529 1.327 . S
C2532 C2520 1.349 . S
C2532 H2526 0.950 . S
C2532 C2533 1.327 . S
C2533 H2527 0.950 . S
C2533 C2532 1.327 . S
C2533 C2537 1.429 . S
C2534 C2517 1.574 . S
C2534 H2528 0.949 . S
C2534 C2538 1.368 . S
C2535 C2516 1.429 . S
C2535 C2529 1.429 . S
C2535 C2536 1.523 . S
C2536 C2517 1.368 . S
C2536 C2530 1.368 . S
C2536 C2535 1.523 . S
C2537 C2521 1.429 . S
C2537 C2533 1.429 . S
C2537 C2538 1.523 . S
C2538 C2522 1.368 . S
C2538 C2534 1.368 . S
C2538 C2537 1.523 . S
H2539 C2514 0.950 . S
H2540 C2516 0.950 . S
H2541 C2517 0.949 . S
H2542 C2519 0.950 . S
H2543 C2521 0.950 . S
C2544 C2545 1.349 . S
C2544 C2546 1.327 . S
C2544 H2569 0.950 . S
C2545 C2544 1.349 . S
C2545 C2561 1.349 . S
C2546 C2544 1.327 . S
C2546 C2565 1.429 . S
C2546 H2570 0.950 . S
C2547 C2564 1.574 . S
C2547 C2566 1.368 . S
C2547 H2571 0.949 . S
H2548 C2552 0.949 . S
C2549 C2550 1.349 . S
C2549 C2551 1.327 . S
C2549 H2572 0.950 . S
C2550 C2549 1.349 . S
C2550 C2562 1.349 . S
C2551 C2549 1.327 . S
C2551 C2567 1.429 . S
C2551 H2573 0.950 . S
C2552 H2548 0.949 . S
C2552 C2560 1.574 . S
C2552 C2568 1.368 . S
H2553 C2561 0.950 . S
H2554 C2559 0.950 . S
H2555 C2560 0.949 . S
H2556 C2562 0.950 . S
H2557 C2563 0.950 . S
H2558 C2564 0.949 . S
C2559 H2554 0.950 . S
C2559 C2561 1.327 . S
C2559 C2565 1.429 . S
C2560 C2552 1.574 . S
C2560 H2555 0.949 . S
C2560 C2566 1.368 . S
C2561 C2545 1.349 . S
C2561 H2553 0.950 . S
C2561 C2559 1.327 . S
C2562 C2550 1.349 . S
C2562 H2556 0.950 . S
C2562 C2563 1.327 . S
C2563 H2557 0.950 . S
C2563 C2562 1.327 . S
C2563 C2567 1.429 . S
C2564 C2547 1.574 . S
C2564 H2558 0.949 . S
C2564 C2568 1.368 . S
C2565 C2546 1.429 . S
C2565 C2559 1.429 . S
C2565 C2566 1.523 . S
C2566 C2547 1.368 . S
C2566 C2560 1.368 . S
C2566 C2565 1.523 . S
C2567 C2551 1.429 . S
C2567 C2563 1.429 . S
C2567 C2568 1.523 . S
C2568 C2552 1.368 . S
C2568 C2564 1.368 . S
C2568 C2567 1.523 . S
H2569 C2544 0.950 . S
H2570 C2546 0.950 . S
H2571 C2547 0.949 . S
H2572 C2549 0.950 . S
H2573 C2551 0.950 . S
C2574 C2575 1.349 . S
C2574 C2576 1.327 . S
C2574 H2599 0.950 . S
C2575 C2574 1.349 . S
C2575 C2591 1.349 . S
C2576 C2574 1.327 . S
C2576 C2595 1.429 . S
C2576 H2600 0.950 . S
C2577 C2594 1.574 . S
C2577 C2596 1.368 . S
C2577 H2601 0.949 . S
H2578 C2582 0.949 . S
C2579 C2580 1.349 . S
C2579 C2581 1.327 . S
C2579 H2602 0.950 . S
C2580 C2579 1.349 . S
C2580 C2592 1.349 . S
C2581 C2579 1.327 . S
C2581 C2597 1.429 . S
C2581 H2603 0.950 . S
C2582 H2578 0.949 . S
C2582 C2590 1.574 . S
C2582 C2598 1.368 . S
H2583 C2591 0.950 . S
H2584 C2589 0.950 . S
H2585 C2590 0.949 . S
H2586 C2592 0.950 . S
H2587 C2593 0.950 . S
H2588 C2594 0.949 . S
C2589 H2584 0.950 . S
C2589 C2591 1.327 . S
C2589 C2595 1.429 . S
C2590 C2582 1.574 . S
C2590 H2585 0.949 . S
C2590 C2596 1.368 . S
C2591 C2575 1.349 . S
C2591 H2583 0.950 . S
C2591 C2589 1.327 . S
C2592 C2580 1.349 . S
C2592 H2586 0.950 . S
C2592 C2593 1.327 . S
C2593 H2587 0.950 . S
C2593 C2592 1.327 . S
C2593 C2597 1.429 . S
C2594 C2577 1.574 . S
C2594 H2588 0.949 . S
C2594 C2598 1.368 . S
C2595 C2576 1.429 . S
C2595 C2589 1.429 . S
C2595 C2596 1.523 . S
C2596 C2577 1.368 . S
C2596 C2590 1.368 . S
C2596 C2595 1.523 . S
C2597 C2581 1.429 . S
C2597 C2593 1.429 . S
C2597 C2598 1.523 . S
C2598 C2582 1.368 . S
C2598 C2594 1.368 . S
C2598 C2597 1.523 . S
H2599 C2574 0.950 . S
H2600 C2576 0.950 . S
H2601 C2577 0.949 . S
H2602 C2579 0.950 . S
H2603 C2581 0.950 . S
C2604 C2605 1.349 . S
C2604 C2606 1.327 . S
C2604 H2629 0.950 . S
C2605 C2604 1.349 . S
C2605 C2621 1.349 . S
C2606 C2604 1.327 . S
C2606 C2625 1.429 . S
C2606 H2630 0.950 . S
C2607 C2624 1.574 . S
C2607 C2626 1.368 . S
C2607 H2631 0.949 . S
H2608 C2612 0.949 . S
C2609 C2610 1.349 . S
C2609 C2611 1.327 . S
C2609 H2632 0.950 . S
C2610 C2609 1.349 . S
C2610 C2622 1.349 . S
C2611 C2609 1.327 . S
C2611 C2627 1.429 . S
C2611 H2633 0.950 . S
C2612 H2608 0.949 . S
C2612 C2620 1.574 . S
C2612 C2628 1.368 . S
H2613 C2621 0.950 . S
H2614 C2619 0.950 . S
H2615 C2620 0.949 . S
H2616 C2622 0.950 . S
H2617 C2623 0.950 . S
H2618 C2624 0.949 . S
C2619 H2614 0.950 . S
C2619 C2621 1.327 . S
C2619 C2625 1.429 . S
C2620 C2612 1.574 . S
C2620 H2615 0.949 . S
C2620 C2626 1.368 . S
C2621 C2605 1.349 . S
C2621 H2613 0.950 . S
C2621 C2619 1.327 . S
C2622 C2610 1.349 . S
C2622 H2616 0.950 . S
C2622 C2623 1.327 . S
C2623 H2617 0.950 . S
C2623 C2622 1.327 . S
C2623 C2627 1.429 . S
C2624 C2607 1.574 . S
C2624 H2618 0.949 . S
C2624 C2628 1.368 . S
C2625 C2606 1.429 . S
C2625 C2619 1.429 . S
C2625 C2626 1.523 . S
C2626 C2607 1.368 . S
C2626 C2620 1.368 . S
C2626 C2625 1.523 . S
C2627 C2611 1.429 . S
C2627 C2623 1.429 . S
C2627 C2628 1.523 . S
C2628 C2612 1.368 . S
C2628 C2624 1.368 . S
C2628 C2627 1.523 . S
H2629 C2604 0.950 . S
H2630 C2606 0.950 . S
H2631 C2607 0.949 . S
H2632 C2609 0.950 . S
H2633 C2611 0.950 . S
C2634 C2635 1.349 . S
C2634 C2636 1.327 . S
C2634 H2659 0.950 . S
C2635 C2634 1.349 . S
C2635 C2651 1.349 . S
C2636 C2634 1.327 . S
C2636 C2655 1.429 . S
C2636 H2660 0.950 . S
C2637 C2654 1.574 . S
C2637 C2656 1.368 . S
C2637 H2661 0.949 . S
H2638 C2642 0.949 . S
C2639 C2640 1.349 . S
C2639 C2641 1.327 . S
C2639 H2662 0.950 . S
C2640 C2639 1.349 . S
C2640 C2652 1.349 . S
C2641 C2639 1.327 . S
C2641 C2657 1.429 . S
C2641 H2663 0.950 . S
C2642 H2638 0.949 . S
C2642 C2650 1.574 . S
C2642 C2658 1.368 . S
H2643 C2651 0.950 . S
H2644 C2649 0.950 . S
H2645 C2650 0.949 . S
H2646 C2652 0.950 . S
H2647 C2653 0.950 . S
H2648 C2654 0.949 . S
C2649 H2644 0.950 . S
C2649 C2651 1.327 . S
C2649 C2655 1.429 . S
C2650 C2642 1.574 . S
C2650 H2645 0.949 . S
C2650 C2656 1.368 . S
C2651 C2635 1.349 . S
C2651 H2643 0.950 . S
C2651 C2649 1.327 . S
C2652 C2640 1.349 . S
C2652 H2646 0.950 . S
C2652 C2653 1.327 . S
C2653 H2647 0.950 . S
C2653 C2652 1.327 . S
C2653 C2657 1.429 . S
C2654 C2637 1.574 . S
C2654 H2648 0.949 . S
C2654 C2658 1.368 . S
C2655 C2636 1.429 . S
C2655 C2649 1.429 . S
C2655 C2656 1.523 . S
C2656 C2637 1.368 . S
C2656 C2650 1.368 . S
C2656 C2655 1.523 . S
C2657 C2641 1.429 . S
C2657 C2653 1.429 . S
C2657 C2658 1.523 . S
C2658 C2642 1.368 . S
C2658 C2654 1.368 . S
C2658 C2657 1.523 . S
H2659 C2634 0.950 . S
H2660 C2636 0.950 . S
H2661 C2637 0.949 . S
H2662 C2639 0.950 . S
H2663 C2641 0.950 . S
C2664 C2665 1.349 . S
C2664 C2666 1.327 . S
C2664 H2689 0.950 . S
C2665 C2664 1.349 . S
C2665 C2681 1.349 . S
C2666 C2664 1.327 . S
C2666 C2685 1.429 . S
C2666 H2690 0.950 . S
C2667 C2684 1.574 . S
C2667 C2686 1.368 . S
C2667 H2691 0.949 . S
H2668 C2672 0.949 . S
C2669 C2670 1.349 . S
C2669 C2671 1.327 . S
C2669 H2692 0.950 . S
C2670 C2669 1.349 . S
C2670 C2682 1.349 . S
C2671 C2669 1.327 . S
C2671 C2687 1.429 . S
C2671 H2693 0.950 . S
C2672 H2668 0.949 . S
C2672 C2680 1.574 . S
C2672 C2688 1.368 . S
H2673 C2681 0.950 . S
H2674 C2679 0.950 . S
H2675 C2680 0.949 . S
H2676 C2682 0.950 . S
H2677 C2683 0.950 . S
H2678 C2684 0.949 . S
C2679 H2674 0.950 . S
C2679 C2681 1.327 . S
C2679 C2685 1.429 . S
C2680 C2672 1.574 . S
C2680 H2675 0.949 . S
C2680 C2686 1.368 . S
C2681 C2665 1.349 . S
C2681 H2673 0.950 . S
C2681 C2679 1.327 . S
C2682 C2670 1.349 . S
C2682 H2676 0.950 . S
C2682 C2683 1.327 . S
C2683 H2677 0.950 . S
C2683 C2682 1.327 . S
C2683 C2687 1.429 . S
C2684 C2667 1.574 . S
C2684 H2678 0.949 . S
C2684 C2688 1.368 . S
C2685 C2666 1.429 . S
C2685 C2679 1.429 . S
C2685 C2686 1.523 . S
C2686 C2667 1.368 . S
C2686 C2680 1.368 . S
C2686 C2685 1.523 . S
C2687 C2671 1.429 . S
C2687 C2683 1.429 . S
C2687 C2688 1.523 . S
C2688 C2672 1.368 . S
C2688 C2684 1.368 . S
C2688 C2687 1.523 . S
H2689 C2664 0.950 . S
H2690 C2666 0.950 . S
H2691 C2667 0.949 . S
H2692 C2669 0.950 . S
H2693 C2671 0.950 . S
C2694 C2695 1.349 . S
C2694 C2696 1.327 . S
C2694 H2719 0.950 . S
C2695 C2694 1.349 . S
C2695 C2711 1.349 . S
C2696 C2694 1.327 . S
C2696 C2715 1.429 . S
C2696 H2720 0.950 . S
C2697 C2714 1.574 . S
C2697 C2716 1.368 . S
C2697 H2721 0.949 . S
H2698 C2702 0.949 . S
C2699 C2700 1.349 . S
C2699 C2701 1.327 . S
C2699 H2722 0.950 . S
C2700 C2699 1.349 . S
C2700 C2712 1.349 . S
C2701 C2699 1.327 . S
C2701 C2717 1.429 . S
C2701 H2723 0.950 . S
C2702 H2698 0.949 . S
C2702 C2710 1.574 . S
C2702 C2718 1.368 . S
H2703 C2711 0.950 . S
H2704 C2709 0.950 . S
H2705 C2710 0.949 . S
H2706 C2712 0.950 . S
H2707 C2713 0.950 . S
H2708 C2714 0.949 . S
C2709 H2704 0.950 . S
C2709 C2711 1.327 . S
C2709 C2715 1.429 . S
C2710 C2702 1.574 . S
C2710 H2705 0.949 . S
C2710 C2716 1.368 . S
C2711 C2695 1.349 . S
C2711 H2703 0.950 . S
C2711 C2709 1.327 . S
C2712 C2700 1.349 . S
C2712 H2706 0.950 . S
C2712 C2713 1.327 . S
C2713 H2707 0.950 . S
C2713 C2712 1.327 . S
C2713 C2717 1.429 . S
C2714 C2697 1.574 . S
C2714 H2708 0.949 . S
C2714 C2718 1.368 . S
C2715 C2696 1.429 . S
C2715 C2709 1.429 . S
C2715 C2716 1.523 . S
C2716 C2697 1.368 . S
C2716 C2710 1.368 . S
C2716 C2715 1.523 . S
C2717 C2701 1.429 . S
C2717 C2713 1.429 . S
C2717 C2718 1.523 . S
C2718 C2702 1.368 . S
C2718 C2714 1.368 . S
C2718 C2717 1.523 . S
H2719 C2694 0.950 . S
H2720 C2696 0.950 . S
H2721 C2697 0.949 . S
H2722 C2699 0.950 . S
H2723 C2701 0.950 . S
C570 C270 1.218 . S
C565 C258 1.216 . S
C595 C236 1.542 . S
C600 C268 1.545 . S
C630 C269 1.545 . S
C625 C225 1.542 . S
C655 C247 1.216 . S
C660 C271 1.218 . S
C690 C315 1.378 . S
C685 C181 1.377 . S
C720 C375 1.298 . S
C715 C192 1.295 . S
C745 C203 1.376 . S
C750 C314 1.377 . S
C780 C374 1.628 . S
C775 C214 1.628 . S
C805 C137 1.486 . S
C810 C316 1.487 . S
C840 C372 1.523 . S
C835 C148 1.521 . S
C865 C159 1.493 . S
C870 C317 1.493 . S
C895 C170 1.182 . S
C900 C373 1.184 . S
C930 C423 1.218 . S
C925 C126 1.216 . S
C955 C104 1.542 . S
C960 C422 1.545 . S
C985 C93 1.542 . S
C990 C424 1.545 . S
C1020 C425 1.218 . S
C1015 C115 1.216 . S
C1045 C49 1.377 . S
C1050 C466 1.378 . S
C1075 C60 1.295 . S
C1080 C525 1.298 . S
C1105 C71 1.376 . S
C1110 C464 1.377 . S
C1135 C82 1.629 . S
C1140 C524 1.628 . S
C1170 C465 1.487 . S
C1165 C5 1.486 . S
C1200 C522 1.523 . S
C1195 C16 1.520 1_545 S
C1225 C27 1.493 . S
C1230 C467 1.493 . S
C1260 C523 1.184 . S
C1255 C38 1.182 1_545 S
C1290 C267 1.721 . S
C1285 C4 1.679 . S
C1315 C21 1.349 . S
C1320 C273 1.427 . S
C1345 C32 1.295 . S
C1350 C265 1.377 . S
C1375 C37 1.388 1_545 S
C1380 C272 1.434 . S
C1405 C48 1.665 . S
C1410 C264 1.707 . S
C1440 C274 1.490 . S
C1435 C59 1.443 . S
C1465 C76 1.283 . S
C1470 C266 1.364 . S
C1500 C275 1.843 . S
C1495 C81 1.807 . S
C1530 C321 1.287 . S
C1525 C43 1.211 . S
C1555 C10 1.377 . S
C1560 C364 1.458 . S
C1590 C319 1.704 . S
C1585 C15 1.662 1_545 S
C1620 C366 1.814 . S
C1615 C26 1.777 . S
C1645 C65 1.299 . S
C1650 C320 1.373 . S
C1680 C365 1.685 . S
C1675 C70 1.643 . S
C1710 C318 1.450 . S
C1705 C87 1.370 . S
C1740 C367 1.343 . S
C1735 C54 1.262 . S
C1770 C371 1.417 . S
C1765 C98 1.340 . S
C1795 C109 1.340 . S
C1800 C370 1.415 . S
C1830 C322 1.707 . S
C1825 C92 1.666 . S
C1860 C369 1.449 . S
C1855 C114 1.403 . S
C1885 C131 1.167 . S
C1890 C325 1.238 . S
C1915 C125 1.402 . S
C1920 C368 1.448 . S
C1950 C324 1.706 . S
C1945 C103 1.666 . S
C1980 C323 1.238 . S
C1975 C120 1.167 . S
C2010 C417 1.721 . S
C2005 C136 1.679 . S
C2040 C420 1.427 . S
C2035 C153 1.350 . S
C2065 C164 1.295 . S
C2070 C416 1.377 . S
C2100 C418 1.435 . S
C2095 C169 1.389 . S
C2130 C414 1.707 . S
C2125 C180 1.665 . S
C2155 C191 1.443 . S
C2160 C419 1.490 . S
C2185 C208 1.283 . S
C2190 C415 1.365 . S
C2220 C421 1.843 . S
C2215 C213 1.806 . S
C2250 C475 1.287 . S
C2245 C175 1.211 . S
C2275 C142 1.377 . S
C2280 C514 1.458 . S
C2310 C474 1.704 . S
C2305 C147 1.663 . S
C2340 C516 1.814 . S
C2335 C158 1.776 . S
C2370 C473 1.373 . S
C2365 C197 1.298 . S
C2395 C202 1.643 . S
C2400 C515 1.685 . S
C2430 C472 1.450 . S
C2425 C219 1.370 . S
C2460 C517 1.343 . S
C2455 C186 1.262 . S
C2490 C521 1.416 . S
C2485 C230 1.340 . S
C2515 C241 1.339 . S
C2520 C520 1.415 . S
C2550 C468 1.707 . S
C2545 C224 1.666 . S
C2575 C246 1.403 . S
C2580 C519 1.449 . S
C2610 C471 1.238 . S
C2605 C263 1.167 . S
C2640 C518 1.448 . S
C2635 C257 1.403 . S
C2670 C469 1.706 . S
C2665 C235 1.666 . S
C2695 C252 1.167 . S
C2700 C470 1.238 . S
