# Generated by pormake.
# Topology zzz, (3,6)-cn, num edge types: 1
# Building blocks:
#     Node 0, Type 0, BuildingBlock: QEWDON_clean_linker_0, # of connection points: 3
#     Node 1, Type 0, BuildingBlock: QEWDON_clean_linker_0, # of connection points: 3
#     Node 2, Type 0, BuildingBlock: QEWDON_clean_linker_0, # of connection points: 3
#     Node 3, Type 0, BuildingBlock: QEWDON_clean_linker_0, # of connection points: 3
#     Node 4, Type 0, BuildingBlock: QEWDON_clean_linker_0, # of connection points: 3
#     Node 5, Type 0, BuildingBlock: QEWDON_clean_linker_0, # of connection points: 3
#     Node 6, Type 0, BuildingBlock: QEWDON_clean_linker_0, # of connection points: 3
#     Node 7, Type 0, BuildingBlock: QEWDON_clean_linker_0, # of connection points: 3
#     Node 8, Type 1, BuildingBlock: CUKXOW_clean_sbu_0, # of connection points: 6
#     Node 9, Type 1, BuildingBlock: CUKXOW_clean_sbu_0, # of connection points: 6
#     Node 10, Type 1, BuildingBlock: CUKXOW_clean_sbu_0, # of connection points: 6
#     Node 11, Type 1, BuildingBlock: CUKXOW_clean_sbu_0, # of connection points: 6
#     Edge 12, Type (0, 1), BuildingBlock: CIFDUS_clean_linker_0, # of connection points: 2
#     Edge 13, Type (0, 1), BuildingBlock: CIFDUS_clean_linker_0, # of connection points: 2
#     Edge 14, Type (0, 1), BuildingBlock: CIFDUS_clean_linker_0, # of connection points: 2
#     Edge 15, Type (0, 1), BuildingBlock: CIFDUS_clean_linker_0, # of connection points: 2
#     Edge 16, Type (0, 1), BuildingBlock: CIFDUS_clean_linker_0, # of connection points: 2
#     Edge 17, Type (0, 1), BuildingBlock: CIFDUS_clean_linker_0, # of connection points: 2
#     Edge 18, Type (0, 1), BuildingBlock: CIFDUS_clean_linker_0, # of connection points: 2
#     Edge 19, Type (0, 1), BuildingBlock: CIFDUS_clean_linker_0, # of connection points: 2
#     Edge 20, Type (0, 1), BuildingBlock: CIFDUS_clean_linker_0, # of connection points: 2
#     Edge 21, Type (0, 1), BuildingBlock: CIFDUS_clean_linker_0, # of connection points: 2
#     Edge 22, Type (0, 1), BuildingBlock: CIFDUS_clean_linker_0, # of connection points: 2
#     Edge 23, Type (0, 1), BuildingBlock: CIFDUS_clean_linker_0, # of connection points: 2
#     Edge 24, Type (0, 1), BuildingBlock: CIFDUS_clean_linker_0, # of connection points: 2
#     Edge 25, Type (0, 1), BuildingBlock: CIFDUS_clean_linker_0, # of connection points: 2
#     Edge 26, Type (0, 1), BuildingBlock: CIFDUS_clean_linker_0, # of connection points: 2
#     Edge 27, Type (0, 1), BuildingBlock: CIFDUS_clean_linker_0, # of connection points: 2
#     Edge 28, Type (0, 1), BuildingBlock: CIFDUS_clean_linker_0, # of connection points: 2
#     Edge 29, Type (0, 1), BuildingBlock: CIFDUS_clean_linker_0, # of connection points: 2
#     Edge 30, Type (0, 1), BuildingBlock: CIFDUS_clean_linker_0, # of connection points: 2
#     Edge 31, Type (0, 1), BuildingBlock: CIFDUS_clean_linker_0, # of connection points: 2
#     Edge 32, Type (0, 1), BuildingBlock: CIFDUS_clean_linker_0, # of connection points: 2
#     Edge 33, Type (0, 1), BuildingBlock: CIFDUS_clean_linker_0, # of connection points: 2
#     Edge 34, Type (0, 1), BuildingBlock: CIFDUS_clean_linker_0, # of connection points: 2
#     Edge 35, Type (0, 1), BuildingBlock: CIFDUS_clean_linker_0, # of connection points: 2
# Relax obj value: 0.024
# Max RMSD: 0.091
# Mean RMSD: 0.034
data_MOF--net-zzz--node1-CUKXOW_clean_sbu_0--node2-QEWDON_clean_linker_0--edge1-CIFDUS_clean_linker_0
_symmetry_space_group_name_H-M    P1
_symmetry_Int_Tables_number       1
_symmetry_cell_setting            triclinic
loop_
_symmetry_equiv_pos_as_xyz
'x, y, z'
_cell_length_a     47.277623
_cell_length_b     49.542426
_cell_length_c     13.899087
_cell_angle_alpha  93.956946
_cell_angle_beta   86.783676
_cell_angle_gamma 93.25023
loop_
_atom_site_label
_atom_site_type_symbol
_atom_site_fract_x
_atom_site_fract_y
_atom_site_fract_z
_atom_type_partial_charge
H0 H 0.78772 0.52893 0.94909 0.0
C1 C 0.7918 0.5242 0.02186 0.0
C2 C 0.81738 0.51286 0.03979 0.0
C3 C 0.77289 0.53195 0.09971 0.0
H4 H 0.84331 0.49975 0.1476 0.0
C5 C 0.82305 0.50771 0.13416 0.0
C6 C 0.80543 0.51664 0.2124 0.0
C7 C 0.78029 0.52883 0.19524 0.0
C8 C 0.74777 0.54719 0.08255 0.0
H9 H 0.76709 0.5367 0.25588 0.0
C10 C 0.72619 0.53592 0.02356 0.0
C11 C 0.70263 0.55102 0.00773 0.0
C12 C 0.74561 0.57357 0.12524 0.0
H13 H 0.76202 0.58266 0.17036 0.0
C14 C 0.72251 0.5886 0.10909 0.0
H15 H 0.72768 0.51553 -0.00933 0.0
C16 C 0.70118 0.57748 0.05085 0.0
H17 H 0.68319 0.58944 0.04106 0.0
H18 H 0.72107 0.60894 0.14221 0.0
H19 H 1.00132 0.79315 0.8531 0.0
C20 C 1.00252 0.79848 0.92976 0.0
C21 C 0.01323 0.82449 0.96183 0.0
C22 C 0.99148 0.78 -0.00302 0.0
H23 H 0.01994 0.85163 0.08782 0.0
C24 C 0.01325 0.83127 0.06145 0.0
C25 C 1.00171 0.81348 0.1285 0.0
C26 C 0.99086 0.78776 0.09653 0.0
C27 C 0.97536 0.75502 0.96347 0.0
H28 H 0.98064 0.77443 0.14818 0.0
C29 C 0.98889 0.73138 0.92823 0.0
C30 C 0.97257 0.7078 0.89837 0.0
C31 C 0.94566 0.75499 0.96873 0.0
H32 H 0.93496 0.77297 -0.00418 0.0
C33 C 0.9295 0.73184 0.93938 0.0
H34 H 0.01185 0.73139 0.92419 0.0
C35 C 0.94275 0.70843 0.90479 0.0
H36 H 0.92954 0.69058 0.88459 0.0
H37 H 0.90657 0.73196 0.94413 0.0
H38 H 0.73421 0.99757 0.00224 0.0
C39 C 0.72616 1.00636 0.07126 0.0
C40 C 0.69972 0.01817 0.07841 0.0
C41 C 0.74091 1.00386 0.15554 0.0
H42 H 0.66858 0.03776 0.17324 0.0
C43 C 0.68921 0.02901 0.16792 0.0
C44 C 0.70301 0.02589 0.25208 0.0
C45 C 0.72884 0.01321 0.24606 0.0
C46 C 0.76691 0.98837 0.1519 0.0
H47 H 0.73905 0.00989 0.31186 0.0
C48 C 0.79125 0.99583 0.09437 0.0
C49 C 0.81599 0.98114 0.09462 0.0
C50 C 0.76744 0.96605 0.20872 0.0
H51 H 0.74893 0.95987 0.25308 0.0
C52 C 0.79172 0.95141 0.20866 0.0
H53 H 0.79096 0.01303 0.05036 0.0
C54 C 0.81584 0.95889 0.15242 0.0
H55 H 0.8346 0.94745 0.15533 0.0
H56 H 0.79192 0.93428 0.2529 0.0
H57 H 0.56137 0.72734 0.94462 0.0
C58 C 0.55471 0.72208 0.01715 0.0
C59 C 0.54029 0.69702 0.03179 0.0
C60 C 0.56236 0.73939 0.09751 0.0
H61 H 0.52216 0.67025 0.13597 0.0
C62 C 0.53259 0.69003 0.12573 0.0
C63 C 0.54078 0.70649 0.20624 0.0
C64 C 0.55587 0.7312 0.19187 0.0
C65 C 0.58035 0.76437 0.08431 0.0
H66 H 0.56303 0.74378 0.25366 0.0
C67 C 0.56937 0.78753 0.0499 0.0
C68 C 0.58624 0.8119 0.04724 0.0
C69 C 0.60845 0.76547 0.11255 0.0
H70 H 0.61719 0.74785 0.13933 0.0
C71 C 0.6254 0.78933 0.10736 0.0
H72 H 0.54753 0.78694 0.0296 0.0
C73 C 0.61435 0.81247 0.07571 0.0
H74 H 0.62775 0.83093 0.07372 0.0
H75 H 0.64705 0.79001 0.12931 0.0
H76 H 0.21807 0.50879 0.46392 0.0
C77 C 0.21297 0.50708 0.38861 0.0
C78 C 0.18579 0.49693 0.36281 0.0
C79 C 0.2327 0.51724 0.31822 0.0
H80 H 0.15795 0.48961 0.24486 0.0
C81 C 0.17926 0.49585 0.26535 0.0
C82 C 0.19822 0.50636 0.1951 0.0
C83 C 0.22494 0.51706 0.22148 0.0
C84 C 0.25947 0.53191 0.34759 0.0
H85 H 0.23921 0.52614 0.16754 0.0
C86 C 0.27844 0.52048 0.40655 0.0
C87 C 0.30328 0.53541 0.435 0.0
C88 C 0.2657 0.55823 0.31773 0.0
H89 H 0.25135 0.56765 0.27371 0.0
C90 C 0.29018 0.57294 0.3456 0.0
H91 H 0.27389 0.50021 0.43007 0.0
C92 C 0.30883 0.56168 0.40367 0.0
H93 H 0.32792 0.57346 0.42309 0.0
H94 H 0.29473 0.59318 0.32209 0.0
H95 H 1.00212 0.21149 0.52666 0.0
C96 C 0.00887 0.20573 0.45265 0.0
C97 C 0.01904 0.17982 0.42877 0.0
C98 C 1.00545 0.2235 0.37958 0.0
H99 H 0.03227 0.15197 0.31118 0.0
C100 C 0.02639 0.17249 0.33162 0.0
C101 C 0.02322 0.18979 0.2581 0.0
C102 C 0.01245 0.21531 0.28232 0.0
C103 C 0.98981 0.24837 0.40206 0.0
H104 H 0.00856 0.22839 0.22559 0.0
C105 C 1.00142 0.27096 0.45684 0.0
C106 C 0.98555 0.29416 0.47749 0.0
C107 C 0.96249 0.24919 0.36815 0.0
H108 H 0.95325 0.23201 0.32612 0.0
C109 C 0.94675 0.27197 0.38885 0.0
H110 H 0.02256 0.27048 0.48282 0.0
C111 C 0.95812 0.29428 0.443 0.0
H112 H 0.94559 0.31193 0.45636 0.0
H113 H 0.92569 0.2724 0.3624 0.0
H114 H 0.30813 0.02119 0.45733 0.0
C115 C 0.31792 0.02826 0.39072 0.0
C116 C 0.34687 0.03716 0.38558 0.0
C117 C 0.30219 0.0258 0.30706 0.0
H118 H 0.38122 0.05087 0.28764 0.0
C119 C 0.35873 0.04564 0.29677 0.0
C120 C 0.34327 0.04365 0.21377 0.0
C121 C 0.31508 0.03356 0.21872 0.0
C122 C 0.27476 0.00983 0.30656 0.0
H123 H 0.30376 0.03013 0.15287 0.0
C124 C 0.25077 0.01792 0.36398 0.0
C125 C 0.22487 1.00232 0.35918 0.0
C126 C 0.27289 0.98579 0.24694 0.0
H127 H 0.29117 0.97906 0.20311 0.0
C128 C 0.24765 0.97 0.24411 0.0
H129 H 0.25205 0.03657 0.40946 0.0
C130 C 0.22383 0.97813 0.29962 0.0
H131 H 0.20453 0.9653 0.29628 0.0
H132 H 0.24651 0.95138 0.19858 0.0
H133 H 0.51497 0.31277 0.4442 0.0
C134 C 0.50924 0.31801 0.37368 0.0
C135 C 0.49773 0.34319 0.36313 0.0
C136 C 0.51522 0.30042 0.29172 0.0
H137 H 0.48488 0.37005 0.26056 0.0
C138 C 0.49171 0.34995 0.27043 0.0
C139 C 0.49745 0.33285 0.18828 0.0
C140 C 0.50942 0.30807 0.19915 0.0
C141 C 0.53122 0.27592 0.30004 0.0
H142 H 0.51501 0.29513 0.13563 0.0
C143 C 0.5199 0.254 0.35223 0.0
C144 C 0.53506 0.23031 0.35264 0.0
C145 C 0.55802 0.27422 0.25157 0.0
H146 H 0.56713 0.29089 0.2115 0.0
C147 C 0.57326 0.25105 0.25408 0.0
H148 H 0.49908 0.25494 0.38877 0.0
C149 C 0.5618 0.22914 0.30363 0.0
H150 H 0.57373 0.21107 0.30315 0.0
H151 H 0.59388 0.24992 0.21641 0.0
Tb152 Tb 1.00737 0.97968 0.6126 0.0
C153 C 0.06825 0.00786 0.59224 0.0
Tb154 Tb 0.02502 0.02431 0.77011 0.0
O155 O 1.00819 0.01021 0.50555 0.0
O156 O 0.99923 0.0206 0.65085 0.0
O157 O 0.05157 0.98636 0.56713 0.0
C158 C 0.0376 0.07238 0.86164 0.0
O159 O 0.0613 0.02623 0.66311 0.0
C160 C 0.02972 0.97426 0.81333 0.0
C161 C 0.96512 0.99374 0.794 0.0
O162 O 0.05139 0.05059 0.86629 0.0
O163 O 0.0166 0.06702 0.80598 0.0
O164 O 0.02748 0.99436 0.87835 0.0
O165 O 0.03325 0.98349 0.73137 0.0
O166 O 0.9807 0.0161 0.81873 0.0
O167 O 0.97315 0.97583 0.72358 0.0
C168 C 0.9931 0.93298 0.51554 0.0
O169 O 0.97915 0.95492 0.5181 0.0
O170 O 0.01527 0.93752 0.56644 0.0
C171 C 1.00388 0.03013 0.56967 0.0
Tb172 Tb 0.52172 0.05118 0.71163 0.0
C173 C 0.5707 0.01651 0.61489 0.0
Tb174 Tb 0.52277 0.99004 0.75357 0.0
O175 O 0.56155 0.06082 0.78143 0.0
O176 O 0.53504 0.02808 0.82218 0.0
O177 O 0.55561 0.03815 0.60881 0.0
C178 C 0.53449 0.94151 0.80979 0.0
O179 O 0.56285 0.99663 0.67156 0.0
C180 C 0.48554 1.00164 0.6317 0.0
C181 C 0.47374 0.024 0.85014 0.0
O182 O 0.52851 0.94657 0.72295 0.0
O183 O 0.53392 0.96379 0.86469 0.0
O184 O 0.48294 0.98053 0.68256 0.0
O185 O 0.50978 0.01311 0.64272 0.0
O186 O 0.48941 1.00283 0.85694 0.0
O187 O 0.48118 0.04413 0.7935 0.0
C188 C 0.51246 0.10009 0.65213 0.0
O189 O 0.51556 0.09477 0.74111 0.0
O190 O 0.51431 0.07788 0.59769 0.0
C191 C 0.55932 0.03962 0.83159 0.0
Tb192 Tb 0.50387 0.54399 0.63973 0.0
C193 C 0.44372 0.52172 0.69774 0.0
Tb194 Tb 0.49726 0.49844 0.78056 0.0
O195 O 0.49328 0.51442 0.51908 0.0
O196 O 0.51255 0.50252 0.63743 0.0
O197 O 0.45953 0.54439 0.68844 0.0
C198 C 0.48657 0.45088 0.85785 0.0
O199 O 0.45513 0.4991 0.71894 0.0
C200 C 0.5029 0.54794 0.86012 0.0
C201 C 0.55849 0.52547 0.73822 0.0
O202 O 0.47387 0.47301 0.88374 0.0
O203 O 0.50568 0.45563 0.78954 0.0
O204 O 0.50975 0.52657 0.90117 0.0
O205 O 0.49021 0.54033 0.78514 0.0
O206 O 0.54357 0.5042 0.77239 0.0
O207 O 0.54713 0.54368 0.68773 0.0
C208 C 0.50783 0.59048 0.55193 0.0
O209 O 0.48977 0.57034 0.53492 0.0
O210 O 0.52458 0.58427 0.61707 0.0
C211 C 0.50123 0.49389 0.56163 0.0
Tb212 Tb 0.97608 0.49778 0.63258 0.0
C213 C 1.00018 0.44428 0.69355 0.0
Tb214 Tb 0.02672 0.50271 0.76713 0.0
O215 O 1.00422 0.48328 0.5108 0.0
O216 O 0.02002 0.50894 0.62221 0.0
O217 O 0.97793 0.45569 0.66301 0.0
C218 C 0.07893 0.50083 0.8315 0.0
O219 O 0.02238 0.45848 0.72998 0.0
C220 C 0.97615 0.50436 0.85501 0.0
C221 C 0.99911 0.55525 0.71608 0.0
O222 O 0.06714 0.48319 0.77099 0.0
O223 O 0.06119 0.51937 0.85697 0.0
O224 O 0.99914 0.51376 0.89551 0.0
O225 O 0.98317 0.49168 0.77733 0.0
O226 O 0.02364 0.54486 0.73202 0.0
O227 O 0.97648 0.53978 0.69116 0.0
C228 C 0.92511 0.4987 0.55909 0.0
O229 O 0.94625 0.51603 0.5437 0.0
O230 O 0.93284 0.48068 0.61405 0.0
C231 C 0.027 0.49429 0.5486 0.0
H232 H 0.17217 1.00136 0.2933 0.0
H233 H 0.21842 0.02204 0.54901 0.0
H234 H 0.17366 0.02904 0.64342 0.0
H235 H 0.12082 0.02393 0.65604 0.0
H236 H 0.07604 0.99923 0.39989 0.0
H237 H 0.12061 0.99902 0.30308 0.0
C238 C 0.17251 0.00746 0.36974 0.0
C239 C 0.19855 0.01069 0.41439 0.0
C240 C 0.14683 0.01049 0.42366 0.0
C241 C 0.19865 0.01938 0.51286 0.0
C242 C 0.17304 0.02316 0.56698 0.0
C243 C 0.12095 0.01896 0.57881 0.0
C244 C 0.09529 0.0114 0.53503 0.0
C245 C 0.14692 0.01802 0.52369 0.0
C246 C 0.0956 1.00481 0.43513 0.0
C247 C 0.12106 1.00471 0.37973 0.0
H248 H 0.5284 0.22193 0.54448 0.0
H249 H 0.51643 0.18353 0.26106 0.0
H250 H 0.50537 0.13989 0.33047 0.0
H251 H 0.5045 0.11185 0.46918 0.0
H252 H 0.51816 0.14932 0.75311 0.0
H253 H 0.52285 0.19408 0.68701 0.0
C254 C 0.52263 0.20407 0.49871 0.0
C255 C 0.523 0.20579 0.39809 0.0
C256 C 0.51699 0.17886 0.53914 0.0
C257 C 0.51602 0.18256 0.33879 0.0
C258 C 0.5099 0.15763 0.37837 0.0
C259 C 0.5081 0.12987 0.51678 0.0
C260 C 0.51125 0.12733 0.61562 0.0
C261 C 0.51115 0.15539 0.47804 0.0
C262 C 0.51574 0.1508 0.67664 0.0
C263 C 0.51853 0.17638 0.63879 0.0
H264 H 0.32611 0.55921 0.59545 0.0
H265 H 0.32822 0.48658 0.40672 0.0
H266 H 0.37017 0.47307 0.48418 0.0
H267 H 0.41059 0.48591 0.58859 0.0
H268 H 0.40916 0.56058 0.76704 0.0
H269 H 0.36262 0.56916 0.71207 0.0
C270 C 0.33547 0.54017 0.5725 0.0
C271 C 0.32434 0.52409 0.49478 0.0
C272 C 0.35992 0.53303 0.61533 0.0
C273 C 0.33639 0.49929 0.46654 0.0
C274 C 0.36053 0.4917 0.5103 0.0
C275 C 0.39959 0.50356 0.61742 0.0
C276 C 0.41319 0.52262 0.68176 0.0
C277 C 0.37312 0.50892 0.58243 0.0
C278 C 0.39904 0.54568 0.7175 0.0
C279 C 0.3725 0.55066 0.68569 0.0
H280 H 0.96 0.3229 0.62703 0.0
H281 H 0.03698 0.32149 0.44606 0.0
H282 H 0.05119 0.36731 0.51051 0.0
H283 H 0.03768 0.41044 0.59943 0.0
H284 H 0.9587 0.41178 0.76983 0.0
H285 H 0.9494 0.36346 0.72973 0.0
C286 C 0.98013 0.33247 0.60298 0.0
C287 C 0.99723 0.319 0.53104 0.0
C288 C 0.98767 0.35897 0.63821 0.0
C289 C 0.02346 0.33143 0.50151 0.0
C290 C 0.03145 0.35773 0.53777 0.0
C291 C 0.01897 0.39981 0.6301 0.0
C292 C 0.99894 0.41443 0.68795 0.0
C293 C 0.01322 0.3721 0.60355 0.0
C294 C 0.97442 0.40077 0.72564 0.0
C295 C 0.96901 0.37321 0.70221 0.0
H296 H 0.84976 0.94766 0.98423 0.0
H297 H 0.84144 0.03188 0.07579 0.0
H298 H 0.88714 0.04352 -0.00764 0.0
H299 H 0.93045 0.02924 0.89723 0.0
H300 H 0.93755 0.94457 0.80745 0.0
H301 H 0.89173 0.93366 0.88774 0.0
C302 C 0.85796 0.96858 0.98612 0.0
C303 C 0.84231 0.98883 0.03672 0.0
C304 C 0.88424 0.97503 0.93902 0.0
C305 C 0.85297 0.01591 0.03679 0.0
C306 C 0.87922 0.02254 0.98979 0.0
C307 C 0.92199 0.00842 0.89578 0.0
C308 C 0.93752 0.98779 0.84643 0.0
C309 C 0.89524 1.0022 0.94152 0.0
C310 C 0.92608 0.96092 0.84435 0.0
C311 C 0.89983 0.9546 0.89032 0.0
H312 H 0.56239 0.82108 0.87903 0.0
H313 H 0.58486 0.85971 0.15363 0.0
H314 H 0.56987 0.90305 0.10593 0.0
H315 H 0.55243 0.93047 0.9836 0.0
H316 H 0.5318 0.89277 0.70571 0.0
H317 H 0.54398 0.84868 0.75662 0.0
C318 C 0.56362 0.83897 0.92851 0.0
C319 C 0.57466 0.8373 0.01963 0.0
C320 C 0.55553 0.86402 0.89965 0.0
C321 C 0.57651 0.86062 0.08297 0.0
C322 C 0.56798 0.88538 0.05572 0.0
C323 C 0.55048 0.91256 0.93442 0.0
C324 C 0.54126 0.91481 0.84113 0.0
C325 C 0.55783 0.88741 0.96381 0.0
C326 C 0.53893 0.89151 0.7779 0.0
C327 C 0.54585 0.8663 0.80702 0.0
H328 H 0.67751 0.57435 0.86613 0.0
H329 H 0.6739 0.50175 0.02119 0.0
H330 H 0.63001 0.48592 0.94437 0.0
H331 H 0.59012 0.49516 0.8459 0.0
H332 H 0.59424 0.56847 0.69311 0.0
H333 H 0.64032 0.58143 0.75608 0.0
C334 C 0.66725 0.55492 0.88231 0.0
C335 C 0.67877 0.53937 0.94995 0.0
C336 C 0.64192 0.54616 0.83885 0.0
C337 C 0.66552 0.51405 0.96911 0.0
C338 C 0.6403 0.50511 0.92574 0.0
C339 C 0.60126 0.51375 0.82506 0.0
C340 C 0.58841 0.53084 0.7652 0.0
C341 C 0.62791 0.52133 0.86232 0.0
C342 C 0.60337 0.55485 0.73906 0.0
C343 C 0.6298 0.5624 0.77537 0.0
H344 H 0.95795 0.67401 0.74534 0.0
H345 H 0.01672 0.68351 0.97291 0.0
H346 H 0.03282 0.63783 0.92963 0.0
H347 H 0.02603 0.5931 0.83829 0.0
H348 H 0.96448 0.58391 0.61891 0.0
H349 H 0.95355 0.63128 0.64816 0.0
C350 C 0.97439 0.66616 0.78534 0.0
C351 C 0.98579 0.68205 0.86316 0.0
C352 C 0.98286 0.63971 0.76201 0.0
C353 C 1.00759 0.67178 0.91254 0.0
C354 C 0.01662 0.64554 0.88832 0.0
C355 C 0.01063 0.60167 0.79588 0.0
C356 C 0.99597 0.58493 0.7269 0.0
C357 C 1.00384 0.629 0.81481 0.0
C358 C 0.97587 0.59625 0.67302 0.0
C359 C 0.96959 0.62337 0.68964 0.0
H360 H 0.05707 0.14141 0.44111 0.0
H361 H 0.97792 0.1687 0.57172 0.0
H362 H 0.96839 0.12491 0.6418 0.0
H363 H 0.97792 0.07588 0.63699 0.0
H364 H 0.051 0.04748 0.4687 0.0
H365 H 0.06701 0.09389 0.43878 0.0
C366 C 0.03779 0.13791 0.48565 0.0
C367 C 0.01789 0.15811 0.49846 0.0
C368 C 0.03092 0.11189 0.51604 0.0
C369 C 0.99363 0.15358 0.55987 0.0
C370 C 0.98788 0.12828 0.59842 0.0
C371 C 0.99744 0.08006 0.59457 0.0
C372 C 0.01339 0.05844 0.55532 0.0
C373 C 1.00555 0.10681 0.57211 0.0
C374 C 0.03848 0.06384 0.49972 0.0
C375 C 0.04766 0.09037 0.48279 0.0
H376 H 0.39717 0.06507 0.42712 0.0
H377 H 0.34166 0.99855 0.52204 0.0
H378 H 0.37908 0.98392 0.61603 0.0
H379 H 0.42985 0.98534 0.6502 0.0
H380 H 0.48749 0.04269 0.51132 0.0
H381 H 0.44771 0.06466 0.45094 0.0
C382 C 0.39312 0.047 0.46648 0.0
C383 C 0.36652 0.03257 0.46342 0.0
C384 C 0.41566 0.03666 0.51108 0.0
C385 C 0.3616 0.01037 0.52162 0.0
C386 C 0.3833 1.00153 0.57428 0.0
C387 C 0.43365 1.00267 0.60674 0.0
C388 C 0.46153 0.01339 0.58905 0.0
C389 C 0.41076 0.01371 0.56565 0.0
C390 C 0.46619 0.0354 0.53115 0.0
C391 C 0.44342 0.04758 0.49527 0.0
H392 H 0.45641 0.37888 0.40159 0.0
H393 H 0.53667 0.35764 0.49977 0.0
H394 H 0.54288 0.40256 0.5828 0.0
H395 H 0.53035 0.45057 0.59755 0.0
H396 H 0.45476 0.47324 0.47064 0.0
H397 H 0.44248 0.42565 0.4243 0.0
C398 C 0.47509 0.38394 0.44247 0.0
C399 C 0.49639 0.36513 0.44205 0.0
C400 C 0.47992 0.41056 0.48108 0.0
C401 C 0.51996 0.37164 0.49824 0.0
C402 C 0.52381 0.39758 0.54406 0.0
C403 C 0.51108 0.44492 0.56052 0.0
C404 C 0.49358 0.46519 0.5363 0.0
C405 C 0.50479 0.41764 0.53085 0.0
C406 C 0.46871 0.4579 0.48836 0.0
C407 C 0.4616 0.43073 0.4627 0.0
H408 H 0.14327 0.4575 0.35786 0.0
H409 H 0.17363 0.52802 0.52939 0.0
H410 H 0.12685 0.53136 0.6116 0.0
H411 H 0.0754 0.51998 0.61044 0.0
H412 H 0.04421 0.45308 0.4235 0.0
H413 H 0.09284 0.4433 0.36843 0.0
C414 C 0.13977 0.47333 0.41454 0.0
C415 C 0.16181 0.49285 0.43554 0.0
C416 C 0.1123 0.47647 0.45571 0.0
C417 C 0.15718 0.5127 0.51129 0.0
C418 C 0.13021 0.51497 0.55706 0.0
C419 C 0.07934 0.50311 0.5583 0.0
C420 C 0.05636 0.48755 0.51952 0.0
C421 C 0.1073 0.49797 0.5257 0.0
C422 C 0.06161 0.46563 0.45279 0.0
C423 C 0.08938 0.45992 0.42192 0.0
H424 H 0.0559 0.86351 0.97233 0.0
H425 H 0.98428 0.83632 0.80522 0.0
H426 H 0.98544 0.8802 0.73421 0.0
H427 H 1.00087 0.92885 0.7444 0.0
H428 H 0.06769 0.95717 0.93041 0.0
H429 H 0.07347 0.91079 0.97355 0.0
C430 C 0.04077 0.86704 0.91927 0.0
C431 C 0.01969 0.84677 0.89579 0.0
C432 C 0.04006 0.89293 0.88506 0.0
C433 C 1.00079 0.85142 0.82478 0.0
C434 C 1.00109 0.87674 0.78549 0.0
C435 C 0.01714 0.92464 0.79229 0.0
C436 C 0.03402 0.94613 0.83381 0.0
C437 C 0.01968 0.89804 0.8189 0.0
C438 C 0.05444 0.94079 0.89823 0.0
C439 C 0.05782 0.91433 0.92237 0.0
H440 H 0.64953 0.99061 0.07396 0.0
H441 H 0.70553 0.04385 0.90965 0.0
H442 H 0.66635 0.05307 0.80981 0.0
H443 H 0.6148 0.05173 0.78905 0.0
H444 H 0.55834 1.00249 0.9676 0.0
H445 H 0.59896 0.98582 0.04288 0.0
C446 C 0.65326 1.00353 0.01405 0.0
C447 C 0.6802 0.01659 -0.00135 0.0
C448 C 0.63038 0.00993 0.96171 0.0
C449 C 0.685 0.03343 0.92179 0.0
C450 C 0.6625 0.03901 0.86607 0.0
C451 C 0.61146 0.0372 0.84405 0.0
C452 C 0.58368 0.02825 0.87311 0.0
C453 C 0.63487 0.0284 0.88869 0.0
C454 C 0.57954 0.00926 0.94336 0.0
C455 C 0.60275 0.99992 0.98669 0.0
H456 H 0.57102 0.65371 0.0043 0.0
H457 H 0.49996 0.69059 0.89664 0.0
H458 H 0.48341 0.64661 0.82113 0.0
H459 H 0.48462 0.59637 0.81371 0.0
H460 H 0.55228 0.56013 0.94612 0.0
H461 H 0.57462 0.60479 0.98499 0.0
C462 C 0.55257 0.65222 0.9607 0.0
C463 C 0.53686 0.67521 0.95477 0.0
C464 C 0.54202 0.62669 0.92543 0.0
C465 C 0.51262 0.67317 0.90039 0.0
C466 C 0.50289 0.64794 0.85914 0.0
C467 C 0.50434 0.59841 0.8505 0.0
C468 C 0.51654 0.57514 0.87888 0.0
C469 C 0.51658 0.62434 0.87586 0.0
C470 C 0.54219 0.57782 0.92564 0.0
C471 C 0.55509 0.60333 0.94717 0.0
H472 H 0.86194 0.54782 0.03859 0.0
H473 H 0.82794 0.47512 0.88983 0.0
H474 H 0.87493 0.46718 0.81097 0.0
H475 H 0.92692 0.47753 0.80577 0.0
H476 H 0.96067 0.54776 0.9708 0.0
H477 H 0.91266 0.55989 0.02443 0.0
C478 C 0.86473 0.53075 0.98624 0.0
C479 C 0.84171 0.51222 0.96865 0.0
C480 C 0.89192 0.52546 0.94724 0.0
C481 C 0.84538 0.48983 0.90271 0.0
C482 C 0.87229 0.4851 0.85922 0.0
C483 C 0.9236 0.49567 0.85233 0.0
C484 C 0.94712 0.51168 0.88509 0.0
C485 C 0.89592 0.50218 0.88431 0.0
C486 C 0.94281 0.53497 0.94613 0.0
C487 C 0.91541 0.542 0.97608 0.0
H488 H 0.0682 0.16345 0.17853 0.0
H489 H 0.98625 0.18909 0.11313 0.0
H490 H 0.9855 0.15685 0.97147 0.0
H491 H 1.00387 0.11529 0.88711 0.0
H492 H 0.08337 0.08684 0.9664 0.0
H493 H 0.08931 0.1259 0.08198 0.0
C494 C 0.05057 0.1625 0.13143 0.0
C495 C 0.02717 0.17835 0.15683 0.0
C496 C 0.0495 0.14277 0.05424 0.0
C497 C 1.00457 0.1772 0.09498 0.0
C498 C 1.00393 0.15841 0.01491 0.0
C499 C 0.02272 0.11798 0.92852 0.0
C500 C 0.04297 0.09807 0.91958 0.0
C501 C 0.02556 0.1401 -0.00289 0.0
C502 C 0.06736 0.10176 0.97305 0.0
C503 C 0.07078 0.12409 0.03903 0.0
H504 H 0.36099 1.00202 0.09968 0.0
H505 H 0.36454 0.08912 0.1291 0.0
H506 H 0.40452 0.09096 0.00866 0.0
H507 H 0.44286 0.06733 0.91446 0.0
H508 H 0.44158 0.97997 0.9026 0.0
H509 H 0.39662 0.97855 -0.00323 0.0
C510 C 0.36985 0.02135 0.07643 0.0
C511 C 0.35964 0.04539 0.12084 0.0
C512 C 0.39387 0.02212 0.01269 0.0
C513 C 0.37177 0.07042 0.09357 0.0
C514 C 0.39488 0.07141 0.02612 0.0
C515 C 0.43255 0.04803 0.93189 0.0
C516 C 0.4458 0.02384 0.90333 0.0
C517 C 0.40688 0.04736 0.98837 0.0
C518 C 0.43217 0.99893 0.92581 0.0
C519 C 0.40632 0.99806 0.97899 0.0
H520 H 0.45269 0.35752 0.12874 0.0
H521 H 0.53695 0.33444 0.03639 0.0
H522 H 0.53914 0.36705 0.91121 0.0
H523 H 0.52103 0.40859 0.8527 0.0
H524 H 0.43971 0.43539 0.96501 0.0
H525 H 0.43253 0.39541 0.05863 0.0
C526 C 0.47122 0.35913 0.07925 0.0
C527 C 0.49479 0.34397 0.09277 0.0
C528 C 0.47318 0.37934 0.01318 0.0
C529 C 0.5185 0.34586 0.02751 0.0
C530 C 0.51996 0.36489 0.95708 0.0
C531 C 0.50157 0.40534 0.89646 0.0
C532 C 0.48107 0.42498 0.90336 0.0
C533 C 0.49809 0.3828 0.95318 0.0
C534 C 0.45591 0.42066 0.95989 0.0
C535 C 0.45177 0.39779 0.01312 0.0
H536 H 0.18077 0.46815 0.05948 0.0
H537 H 0.18751 0.55433 0.12688 0.0
H538 H 0.1519 0.56092 0.01075 0.0
H539 H 0.11275 0.54109 0.91353 0.0
H540 H 0.1068 0.45492 0.84321 0.0
H541 H 0.1482 0.44928 0.93639 0.0
C542 C 0.17532 0.48843 0.04519 0.0
C543 C 0.18668 0.51074 0.10107 0.0
C544 C 0.15437 0.49194 0.98001 0.0
C545 C 0.17929 0.53693 0.08348 0.0
C546 C 0.15856 0.54064 0.01836 0.0
C547 C 0.12091 0.52118 0.91735 0.0
C548 C 0.1065 0.49836 0.87375 0.0
C549 C 0.14494 0.51816 0.97004 0.0
C550 C 0.11745 0.47272 0.87724 0.0
C551 C 0.14109 0.46949 0.93054 0.0
H552 H 0.95897 0.84331 0.19754 0.0
H553 H 0.03645 0.81132 0.27707 0.0
H554 H 0.03861 0.84444 0.4164 0.0
H555 H 0.02309 0.88764 0.4955 0.0
H556 H 0.94788 0.92187 0.40443 0.0
H557 H 0.94001 0.88286 0.28983 0.0
C558 C 0.97556 0.84289 0.24825 0.0
C559 C 0.99728 0.82478 0.22872 0.0
C560 C 0.97749 0.86298 0.32411 0.0
C561 C 0.01923 0.82476 0.29245 0.0
C562 C 0.0207 0.844 0.37088 0.0
C563 C 1.00474 0.88628 0.45161 0.0
C564 C 0.98633 0.90773 0.45695 0.0
C565 C 1.00072 0.86406 0.38433 0.0
C566 C 0.9625 0.90571 0.40057 0.0
C567 C 0.95798 0.88341 0.33516 0.0
H568 H 0.6825 0.98827 0.37056 0.0
H569 H 0.68447 0.07383 0.33167 0.0
H570 H 0.64358 0.07888 0.44646 0.0
H571 H 0.60334 0.05761 0.5386 0.0
H572 H 0.60037 0.9714 0.57035 0.0
H573 H 0.64535 0.96785 0.47706 0.0
C574 C 0.67466 0.00816 0.39065 0.0
C575 C 0.68652 0.03071 0.3442 0.0
C576 C 0.65036 0.01059 0.45262 0.0
C577 C 0.67583 0.05633 0.36823 0.0
C578 C 0.6522 0.05909 0.43239 0.0
C579 C 0.61254 0.03806 0.52503 0.0
C580 C 0.59821 0.01473 0.55955 0.0
C581 C 0.63853 0.03614 0.47148 0.0
C582 C 0.61077 0.98964 0.54355 0.0
C583 C 0.63658 0.98758 0.49055 0.0
H584 H 0.49231 0.68435 0.28484 0.0
H585 H 0.58057 0.70137 0.33866 0.0
H586 H 0.57727 0.66868 0.46398 0.0
H587 H 0.55135 0.62908 0.53515 0.0
H588 H 0.46468 0.60941 0.46324 0.0
H589 H 0.46526 0.64885 0.3678 0.0
C590 C 0.51059 0.68144 0.32615 0.0
C591 C 0.53667 0.69497 0.30207 0.0
C592 C 0.50898 0.66145 0.39295 0.0
C593 C 0.5602 0.69128 0.3563 0.0
C594 C 0.55843 0.67223 0.42676 0.0
C595 C 0.53255 0.63379 0.49969 0.0
C596 C 0.50815 0.61622 0.50471 0.0
C597 C 0.53331 0.65617 0.44203 0.0
C598 C 0.48384 0.62245 0.45895 0.0
C599 C 0.4841 0.64505 0.40469 0.0
H600 H 0.81742 0.4752 0.31781 0.0
H601 H 0.82345 0.56215 0.31385 0.0
H602 H 0.86097 0.56479 0.42886 0.0
H603 H 0.89769 0.54154 0.50642 0.0
H604 H 0.89059 0.45463 0.51495 0.0
H605 H 0.84792 0.45262 0.42236 0.0
C606 C 0.82607 0.49474 0.34596 0.0
C607 C 0.81772 0.51845 0.30811 0.0
C608 C 0.84806 0.49599 0.41024 0.0
C609 C 0.82928 0.5437 0.34343 0.0
C610 C 0.85111 0.54515 0.4077 0.0
C611 C 0.88648 0.52226 0.48904 0.0
C612 C 0.89747 0.49821 0.515 0.0
C613 C 0.86164 0.52134 0.43756 0.0
C614 C 0.88258 0.47335 0.49443 0.0
C615 C 0.8582 0.4722 0.44163 0.0
loop_
_geom_bond_atom_site_label_1
_geom_bond_atom_site_label_2
_geom_bond_distance
_geom_bond_site_symmetry_2
_ccdc_geom_bond_type
H0 C1 0.960 . S
C1 H0 0.960 . S
C1 C2 1.394 1_556 S
C1 C3 1.382 1_556 S
C2 C1 1.394 1_554 S
C2 C5 1.390 . S
C3 C1 1.382 1_554 S
C3 C7 1.387 . S
C3 C8 1.491 . S
H4 C5 0.950 . S
C5 C2 1.390 . S
C5 H4 0.950 . S
C5 C6 1.378 . S
C6 C5 1.378 . S
C6 C7 1.409 . S
C7 C3 1.387 . S
C7 C6 1.409 . S
C7 H9 0.951 . S
C8 C3 1.491 . S
C8 C10 1.382 . S
C8 C12 1.404 . S
H9 C7 0.951 . S
C10 C8 1.382 . S
C10 C11 1.390 . S
C10 H15 0.949 1_554 S
C11 C10 1.390 . S
C11 C16 1.399 . S
C12 C8 1.404 . S
C12 H13 0.950 . S
C12 C14 1.375 . S
H13 C12 0.950 . S
C14 C12 1.375 . S
C14 C16 1.382 . S
C14 H18 0.950 . S
H15 C10 0.949 1_556 S
C16 C11 1.399 . S
C16 C14 1.382 . S
C16 H17 0.952 . S
H17 C16 0.952 . S
H18 C14 0.950 . S
H19 C20 0.949 . S
C20 H19 0.949 . S
C20 C21 1.395 . S
C20 C22 1.391 1_556 S
C21 C20 1.395 . S
C21 C24 1.390 1_556 S
C22 C20 1.391 1_554 S
C22 C26 1.387 . S
C22 C27 1.491 . S
H23 C24 0.950 . S
C24 C21 1.390 1_554 S
C24 H23 0.950 . S
C24 C25 1.378 . S
C25 C24 1.378 . S
C25 C26 1.409 . S
C26 C22 1.387 . S
C26 C25 1.409 . S
C26 H28 0.951 . S
C27 C22 1.491 . S
C27 C29 1.382 1_554 S
C27 C31 1.404 . S
H28 C26 0.951 . S
C29 C27 1.382 1_556 S
C29 C30 1.390 . S
C29 H34 0.949 . S
C30 C29 1.390 . S
C30 C35 1.399 1_556 S
C31 C27 1.404 . S
C31 H32 0.950 . S
C31 C33 1.375 . S
H32 C31 0.950 . S
C33 C31 1.375 . S
C33 C35 1.382 . S
C33 H37 0.950 . S
H34 C29 0.949 . S
C35 C30 1.399 1_554 S
C35 C33 1.382 . S
C35 H36 0.952 . S
H36 C35 0.952 . S
H37 C33 0.950 . S
H38 C39 0.949 1_556 S
C39 H38 0.949 1_554 S
C39 C40 1.395 . S
C39 C41 1.391 . S
C40 C39 1.395 . S
C40 C43 1.390 . S
C41 C39 1.391 . S
C41 C45 1.387 . S
C41 C46 1.491 . S
H42 C43 0.950 . S
C43 C40 1.390 . S
C43 H42 0.950 . S
C43 C44 1.378 . S
C44 C43 1.378 . S
C44 C45 1.409 . S
C45 C41 1.387 . S
C45 C44 1.409 . S
C45 H47 0.951 . S
C46 C41 1.491 . S
C46 C48 1.382 . S
C46 C50 1.404 . S
H47 C45 0.951 . S
C48 C46 1.382 . S
C48 C49 1.390 . S
C48 H53 0.949 1_554 S
C49 C48 1.390 . S
C49 C54 1.399 . S
C50 C46 1.404 . S
C50 H51 0.950 . S
C50 C52 1.375 . S
H51 C50 0.950 . S
C52 C50 1.375 . S
C52 C54 1.382 . S
C52 H56 0.950 . S
H53 C48 0.949 1_556 S
C54 C49 1.399 . S
C54 C52 1.382 . S
C54 H55 0.952 . S
H55 C54 0.952 . S
H56 C52 0.950 . S
H57 C58 0.949 1_556 S
C58 H57 0.949 1_554 S
C58 C59 1.395 . S
C58 C60 1.391 . S
C59 C58 1.395 . S
C59 C62 1.390 . S
C60 C58 1.391 . S
C60 C64 1.387 . S
C60 C65 1.491 . S
H61 C62 0.950 . S
C62 C59 1.390 . S
C62 H61 0.950 . S
C62 C63 1.378 . S
C63 C62 1.378 . S
C63 C64 1.409 . S
C64 C60 1.387 . S
C64 C63 1.409 . S
C64 H66 0.951 . S
C65 C60 1.491 . S
C65 C67 1.382 . S
C65 C69 1.404 . S
H66 C64 0.951 . S
C67 C65 1.382 . S
C67 C68 1.390 . S
C67 H72 0.949 1_554 S
C68 C67 1.390 . S
C68 C73 1.399 . S
C69 C65 1.404 . S
C69 H70 0.950 . S
C69 C71 1.375 . S
H70 C69 0.950 . S
C71 C69 1.375 . S
C71 C73 1.382 . S
C71 H75 0.950 . S
H72 C67 0.949 1_556 S
C73 C68 1.399 . S
C73 C71 1.382 . S
C73 H74 0.952 . S
H74 C73 0.952 . S
H75 C71 0.950 . S
H76 C77 0.949 . S
C77 H76 0.949 . S
C77 C78 1.395 . S
C77 C79 1.391 . S
C78 C77 1.395 . S
C78 C81 1.390 . S
C79 C77 1.391 . S
C79 C83 1.387 . S
C79 C84 1.491 . S
H80 C81 0.950 . S
C81 C78 1.390 . S
C81 H80 0.950 . S
C81 C82 1.378 . S
C82 C81 1.378 . S
C82 C83 1.409 . S
C83 C79 1.387 . S
C83 C82 1.409 . S
C83 H85 0.951 . S
C84 C79 1.491 . S
C84 C86 1.382 . S
C84 C88 1.404 . S
H85 C83 0.951 . S
C86 C84 1.382 . S
C86 C87 1.390 . S
C86 H91 0.949 . S
C87 C86 1.390 . S
C87 C92 1.399 . S
C88 C84 1.404 . S
C88 H89 0.950 . S
C88 C90 1.375 . S
H89 C88 0.950 . S
C90 C88 1.375 . S
C90 C92 1.382 . S
C90 H94 0.950 . S
H91 C86 0.949 . S
C92 C87 1.399 . S
C92 C90 1.382 . S
C92 H93 0.952 . S
H93 C92 0.952 . S
H94 C90 0.950 . S
H95 C96 0.949 . S
C96 H95 0.949 . S
C96 C97 1.395 . S
C96 C98 1.391 . S
C97 C96 1.395 . S
C97 C100 1.390 . S
C98 C96 1.391 . S
C98 C102 1.387 . S
C98 C103 1.491 . S
H99 C100 0.950 . S
C100 C97 1.390 . S
C100 H99 0.950 . S
C100 C101 1.378 . S
C101 C100 1.378 . S
C101 C102 1.409 . S
C102 C98 1.387 . S
C102 C101 1.409 . S
C102 H104 0.951 . S
C103 C98 1.491 . S
C103 C105 1.382 . S
C103 C107 1.404 . S
H104 C102 0.951 . S
C105 C103 1.382 . S
C105 C106 1.390 . S
C105 H110 0.949 . S
C106 C105 1.390 . S
C106 C111 1.399 . S
C107 C103 1.404 . S
C107 H108 0.950 . S
C107 C109 1.375 . S
H108 C107 0.950 . S
C109 C107 1.375 . S
C109 C111 1.382 . S
C109 H113 0.950 1_455 S
H110 C105 0.949 . S
C111 C106 1.399 . S
C111 C109 1.382 . S
C111 H112 0.952 . S
H112 C111 0.952 . S
H113 C109 0.950 1_655 S
H114 C115 0.949 . S
C115 H114 0.949 . S
C115 C116 1.395 . S
C115 C117 1.391 . S
C116 C115 1.395 . S
C116 C119 1.390 . S
C117 C115 1.391 . S
C117 C121 1.387 . S
C117 C122 1.491 . S
H118 C119 0.950 . S
C119 C116 1.390 . S
C119 H118 0.950 . S
C119 C120 1.378 . S
C120 C119 1.378 . S
C120 C121 1.409 . S
C121 C117 1.387 . S
C121 C120 1.409 . S
C121 H123 0.951 . S
C122 C117 1.491 . S
C122 C124 1.382 . S
C122 C126 1.404 . S
H123 C121 0.951 . S
C124 C122 1.382 . S
C124 C125 1.390 . S
C124 H129 0.949 . S
C125 C124 1.390 . S
C125 C130 1.399 . S
C126 C122 1.404 . S
C126 H127 0.950 . S
C126 C128 1.375 . S
H127 C126 0.950 . S
C128 C126 1.375 . S
C128 C130 1.382 . S
C128 H132 0.968 . S
H129 C124 0.949 . S
C130 C125 1.399 . S
C130 C128 1.382 . S
C130 H131 0.952 . S
H131 C130 0.952 . S
H132 C128 0.968 . S
H133 C134 0.949 . S
C134 H133 0.949 . S
C134 C135 1.395 . S
C134 C136 1.391 . S
C135 C134 1.395 . S
C135 C138 1.390 . S
C136 C134 1.391 . S
C136 C140 1.387 . S
C136 C141 1.491 . S
H137 C138 0.950 . S
C138 C135 1.390 . S
C138 H137 0.950 . S
C138 C139 1.378 . S
C139 C138 1.378 . S
C139 C140 1.409 . S
C140 C136 1.387 . S
C140 C139 1.409 . S
C140 H142 0.951 . S
C141 C136 1.491 . S
C141 C143 1.382 . S
C141 C145 1.404 . S
H142 C140 0.951 . S
C143 C141 1.382 . S
C143 C144 1.390 . S
C143 H148 0.949 . S
C144 C143 1.390 . S
C144 C149 1.399 . S
C145 C141 1.404 . S
C145 H146 0.950 . S
C145 C147 1.375 . S
H146 C145 0.950 . S
C147 C145 1.375 . S
C147 C149 1.382 . S
C147 H151 0.950 . S
H148 C143 0.949 . S
C149 C144 1.399 . S
C149 C147 1.382 . S
C149 H150 0.952 . S
H150 C149 0.952 . S
H151 C147 0.950 . S
Tb152 O155 2.453 1_565 S
Tb152 O156 2.596 1_665 S
Tb152 O157 2.374 1_665 S
Tb152 O165 2.343 1_655 S
Tb152 O167 2.353 1_565 S
Tb152 O169 2.427 . S
Tb152 O170 2.513 1_655 S
C153 O157 1.251 . S
C153 O159 1.263 . S
Tb154 O156 2.343 . S
Tb154 O159 2.353 . S
Tb154 O162 2.427 . S
Tb154 O163 2.513 1_455 S
Tb154 O164 2.453 1_545 S
Tb154 O165 2.596 1_545 S
Tb154 O166 2.374 1_455 S
O155 Tb152 2.453 1_545 S
O155 C171 1.245 1_655 S
O156 Tb152 2.596 1_445 S
O156 Tb154 2.343 . S
O156 C171 1.259 . S
O157 Tb152 2.374 1_445 S
O157 C153 1.251 . S
C158 O162 1.275 . S
C158 O163 1.246 1_455 S
O159 C153 1.263 . S
O159 Tb154 2.353 . S
C160 O164 1.245 . S
C160 O165 1.259 . S
C161 O166 1.250 . S
C161 O167 1.263 . S
O162 Tb154 2.427 . S
O162 C158 1.275 . S
O163 Tb154 2.513 1_655 S
O163 C158 1.246 1_655 S
O164 Tb154 2.453 1_565 S
O164 C160 1.245 . S
O165 Tb152 2.343 1_455 S
O165 Tb154 2.596 1_565 S
O165 C160 1.259 . S
O166 Tb154 2.374 1_655 S
O166 C161 1.250 . S
O167 Tb152 2.353 1_545 S
O167 C161 1.263 . S
C168 O169 1.275 . S
C168 O170 1.246 1_655 S
O169 Tb152 2.427 . S
O169 C168 1.275 . S
O170 Tb152 2.513 1_455 S
O170 C168 1.246 1_455 S
C171 O155 1.245 1_455 S
C171 O156 1.259 . S
Tb172 O175 2.453 . S
Tb172 O176 2.596 1_545 S
Tb172 O177 2.374 . S
Tb172 O185 2.343 . S
Tb172 O187 2.353 . S
Tb172 O189 2.427 . S
Tb172 O190 2.513 . S
C173 O177 1.251 1_565 S
C173 O179 1.263 . S
Tb174 O176 2.343 . S
Tb174 O179 2.353 . S
Tb174 O182 2.427 . S
Tb174 O183 2.513 . S
Tb174 O184 2.453 . S
Tb174 O185 2.596 1_565 S
Tb174 O186 2.374 . S
O175 Tb172 2.453 . S
O175 C191 1.245 . S
O176 Tb172 2.596 1_565 S
O176 Tb174 2.343 . S
O176 C191 1.259 1_565 S
O177 Tb172 2.374 . S
O177 C173 1.251 1_545 S
C178 O182 1.275 . S
C178 O183 1.246 . S
O179 C173 1.263 . S
O179 Tb174 2.353 . S
C180 O184 1.245 1_545 S
C180 O185 1.259 . S
C181 O186 1.250 1_545 S
C181 O187 1.263 . S
O182 Tb174 2.427 . S
O182 C178 1.275 . S
O183 Tb174 2.513 . S
O183 C178 1.246 . S
O184 Tb174 2.453 . S
O184 C180 1.245 1_565 S
O185 Tb172 2.343 . S
O185 Tb174 2.596 1_545 S
O185 C180 1.259 . S
O186 Tb174 2.374 . S
O186 C181 1.250 1_565 S
O187 Tb172 2.353 . S
O187 C181 1.263 . S
C188 O189 1.275 . S
C188 O190 1.246 . S
O189 Tb172 2.427 . S
O189 C188 1.275 . S
O190 Tb172 2.513 . S
O190 C188 1.246 . S
C191 O175 1.245 . S
C191 O176 1.259 1_545 S
Tb192 O195 2.453 . S
Tb192 O196 2.596 . S
Tb192 O197 2.374 . S
Tb192 O205 2.343 . S
Tb192 O207 2.353 . S
Tb192 O209 2.427 . S
Tb192 O210 2.513 . S
C193 O197 1.251 . S
C193 O199 1.263 . S
Tb194 O196 2.343 . S
Tb194 O199 2.353 . S
Tb194 O202 2.427 . S
Tb194 O203 2.513 . S
Tb194 O204 2.453 . S
Tb194 O205 2.596 . S
Tb194 O206 2.374 . S
O195 Tb192 2.453 . S
O195 C211 1.245 . S
O196 Tb192 2.596 . S
O196 Tb194 2.343 . S
O196 C211 1.259 . S
O197 Tb192 2.374 . S
O197 C193 1.251 . S
C198 O202 1.275 . S
C198 O203 1.246 . S
O199 C193 1.263 . S
O199 Tb194 2.353 . S
C200 O204 1.245 . S
C200 O205 1.259 . S
C201 O206 1.250 . S
C201 O207 1.263 . S
O202 Tb194 2.427 . S
O202 C198 1.275 . S
O203 Tb194 2.513 . S
O203 C198 1.246 . S
O204 Tb194 2.453 . S
O204 C200 1.245 . S
O205 Tb192 2.343 . S
O205 Tb194 2.596 . S
O205 C200 1.259 . S
O206 Tb194 2.374 . S
O206 C201 1.250 . S
O207 Tb192 2.353 . S
O207 C201 1.263 . S
C208 O209 1.275 . S
C208 O210 1.246 . S
O209 Tb192 2.427 . S
O209 C208 1.275 . S
O210 Tb192 2.513 . S
O210 C208 1.246 . S
C211 O195 1.245 . S
C211 O196 1.259 . S
Tb212 O215 2.453 1_655 S
Tb212 O216 2.596 1_655 S
Tb212 O217 2.375 . S
Tb212 O225 2.343 . S
Tb212 O227 2.353 1_655 S
Tb212 O229 2.427 . S
Tb212 O230 2.513 . S
C213 O217 1.247 1_455 S
C213 O219 1.263 . S
Tb214 O216 2.343 . S
Tb214 O219 2.353 . S
Tb214 O222 2.427 . S
Tb214 O223 2.513 . S
Tb214 O224 2.453 1_455 S
Tb214 O225 2.596 1_455 S
Tb214 O226 2.374 . S
O215 Tb212 2.453 1_455 S
O215 C231 1.245 . S
O216 Tb212 2.596 1_455 S
O216 Tb214 2.343 . S
O216 C231 1.259 . S
O217 Tb212 2.375 . S
O217 C213 1.247 1_655 S
C218 O222 1.275 . S
C218 O223 1.246 . S
O219 C213 1.263 . S
O219 Tb214 2.353 . S
C220 O224 1.245 . S
C220 O225 1.259 . S
C221 O226 1.250 . S
C221 O227 1.263 . S
O222 Tb214 2.427 . S
O222 C218 1.275 . S
O223 Tb214 2.513 . S
O223 C218 1.246 . S
O224 Tb214 2.453 1_655 S
O224 C220 1.245 . S
O225 Tb212 2.343 . S
O225 Tb214 2.596 1_655 S
O225 C220 1.259 . S
O226 Tb214 2.374 . S
O226 C221 1.250 . S
O227 Tb212 2.353 1_455 S
O227 C221 1.263 . S
C228 O229 1.275 . S
C228 O230 1.246 . S
O229 Tb212 2.427 . S
O229 C228 1.275 . S
O230 Tb212 2.513 . S
O230 C228 1.246 . S
C231 O215 1.245 . S
C231 O216 1.259 . S
H232 C238 0.930 . S
H233 C241 0.930 . S
H234 C242 0.930 . S
H235 C243 0.930 . S
H236 C246 0.930 . S
H237 C247 0.930 . S
C238 H232 0.930 . S
C238 C239 1.355 . S
C238 C240 1.415 . S
C239 C238 1.355 . S
C239 C241 1.419 . S
C240 C238 1.415 . S
C240 C245 1.425 . S
C240 C247 1.409 . S
C241 H233 0.930 . S
C241 C239 1.419 . S
C241 C242 1.362 . S
C242 H234 0.930 . S
C242 C241 1.362 . S
C242 C245 1.409 . S
C243 H235 0.930 . S
C243 C244 1.355 . S
C243 C245 1.415 . S
C244 C243 1.355 . S
C244 C246 1.419 . S
C245 C240 1.425 . S
C245 C242 1.409 . S
C245 C243 1.415 . S
C246 H236 0.930 . S
C246 C244 1.419 . S
C246 C247 1.362 . S
C247 H237 0.930 . S
C247 C240 1.409 . S
C247 C246 1.362 . S
H248 C254 0.930 . S
H249 C257 0.930 . S
H250 C258 0.930 . S
H251 C259 0.930 . S
H252 C262 0.930 . S
H253 C263 0.930 . S
C254 H248 0.930 . S
C254 C255 1.355 . S
C254 C256 1.415 . S
C255 C254 1.355 . S
C255 C257 1.419 . S
C256 C254 1.415 . S
C256 C261 1.425 . S
C256 C263 1.409 . S
C257 H249 0.930 . S
C257 C255 1.419 . S
C257 C258 1.362 . S
C258 H250 0.930 . S
C258 C257 1.362 . S
C258 C261 1.409 . S
C259 H251 0.930 . S
C259 C260 1.355 . S
C259 C261 1.415 . S
C260 C259 1.355 . S
C260 C262 1.419 . S
C261 C256 1.425 . S
C261 C258 1.409 . S
C261 C259 1.415 . S
C262 H252 0.930 . S
C262 C260 1.419 . S
C262 C263 1.362 . S
C263 H253 0.930 . S
C263 C256 1.409 . S
C263 C262 1.362 . S
H264 C270 0.930 . S
H265 C273 0.930 . S
H266 C274 0.930 . S
H267 C275 0.930 . S
H268 C278 0.930 . S
H269 C279 0.930 . S
C270 H264 0.930 . S
C270 C271 1.355 . S
C270 C272 1.415 . S
C271 C270 1.355 . S
C271 C273 1.419 . S
C272 C270 1.415 . S
C272 C277 1.425 . S
C272 C279 1.409 . S
C273 H265 0.930 . S
C273 C271 1.419 . S
C273 C274 1.362 . S
C274 H266 0.930 . S
C274 C273 1.362 . S
C274 C277 1.409 . S
C275 H267 0.930 . S
C275 C276 1.355 . S
C275 C277 1.415 . S
C276 C275 1.355 . S
C276 C278 1.419 . S
C277 C272 1.425 . S
C277 C274 1.409 . S
C277 C275 1.415 . S
C278 H268 0.930 . S
C278 C276 1.419 . S
C278 C279 1.362 . S
C279 H269 0.930 . S
C279 C272 1.409 . S
C279 C278 1.362 . S
H280 C286 0.930 . S
H281 C289 0.930 . S
H282 C290 0.930 . S
H283 C291 0.930 . S
H284 C294 0.930 . S
H285 C295 0.930 . S
C286 H280 0.930 . S
C286 C287 1.355 . S
C286 C288 1.415 . S
C287 C286 1.355 . S
C287 C289 1.419 . S
C288 C286 1.415 . S
C288 C293 1.425 . S
C288 C295 1.409 1_455 S
C289 H281 0.930 . S
C289 C287 1.419 . S
C289 C290 1.362 . S
C290 H282 0.930 . S
C290 C289 1.362 . S
C290 C293 1.409 . S
C291 H283 0.930 . S
C291 C292 1.355 . S
C291 C293 1.415 . S
C292 C291 1.355 . S
C292 C294 1.419 1_455 S
C293 C288 1.425 . S
C293 C290 1.409 . S
C293 C291 1.415 . S
C294 H284 0.930 . S
C294 C292 1.419 1_655 S
C294 C295 1.362 . S
C295 H285 0.930 . S
C295 C288 1.409 1_655 S
C295 C294 1.362 . S
H296 C302 0.930 . S
H297 C305 0.930 1_545 S
H298 C306 0.930 . S
H299 C307 0.930 . S
H300 C310 0.930 . S
H301 C311 0.930 . S
C302 H296 0.930 . S
C302 C303 1.355 . S
C302 C304 1.415 . S
C303 C302 1.355 . S
C303 C305 1.419 . S
C304 C302 1.415 . S
C304 C309 1.425 . S
C304 C311 1.409 . S
C305 H297 0.930 1_565 S
C305 C303 1.419 . S
C305 C306 1.362 1_565 S
C306 H298 0.930 . S
C306 C305 1.362 1_545 S
C306 C309 1.409 1_545 S
C307 H299 0.930 . S
C307 C308 1.355 1_545 S
C307 C309 1.415 1_545 S
C308 C307 1.355 1_565 S
C308 C310 1.419 . S
C309 C304 1.425 . S
C309 C306 1.409 1_565 S
C309 C307 1.415 1_565 S
C310 H300 0.930 . S
C310 C308 1.419 . S
C310 C311 1.362 . S
C311 H301 0.930 . S
C311 C304 1.409 . S
C311 C310 1.362 . S
H312 C318 0.930 . S
H313 C321 0.930 . S
H314 C322 0.930 . S
H315 C323 0.930 . S
H316 C326 0.930 . S
H317 C327 0.930 . S
C318 H312 0.930 . S
C318 C319 1.355 . S
C318 C320 1.415 . S
C319 C318 1.355 . S
C319 C321 1.419 1_556 S
C320 C318 1.415 . S
C320 C325 1.425 . S
C320 C327 1.409 . S
C321 H313 0.930 . S
C321 C319 1.419 1_554 S
C321 C322 1.362 . S
C322 H314 0.930 . S
C322 C321 1.362 . S
C322 C325 1.409 1_554 S
C323 H315 0.930 . S
C323 C324 1.355 . S
C323 C325 1.415 . S
C324 C323 1.355 . S
C324 C326 1.419 . S
C325 C320 1.425 . S
C325 C322 1.409 1_556 S
C325 C323 1.415 . S
C326 H316 0.930 . S
C326 C324 1.419 . S
C326 C327 1.362 . S
C327 H317 0.930 . S
C327 C320 1.409 . S
C327 C326 1.362 . S
H328 C334 0.930 1_554 S
H329 C337 0.930 . S
H330 C338 0.930 . S
H331 C339 0.930 . S
H332 C342 0.930 . S
H333 C343 0.930 . S
C334 H328 0.930 1_556 S
C334 C335 1.355 . S
C334 C336 1.415 . S
C335 C334 1.355 . S
C335 C337 1.419 . S
C336 C334 1.415 . S
C336 C341 1.425 . S
C336 C343 1.409 . S
C337 H329 0.930 . S
C337 C335 1.419 . S
C337 C338 1.362 . S
C338 H330 0.930 . S
C338 C337 1.362 . S
C338 C341 1.409 . S
C339 H331 0.930 . S
C339 C340 1.355 . S
C339 C341 1.415 . S
C340 C339 1.355 . S
C340 C342 1.419 . S
C341 C336 1.425 . S
C341 C338 1.409 . S
C341 C339 1.415 . S
C342 H332 0.930 . S
C342 C340 1.419 . S
C342 C343 1.362 . S
C343 H333 0.930 . S
C343 C336 1.409 . S
C343 C342 1.362 . S
H344 C350 0.930 . S
H345 C353 0.944 . S
H346 C354 0.930 . S
H347 C355 0.930 . S
H348 C358 0.930 . S
H349 C359 0.930 . S
C350 H344 0.930 . S
C350 C351 1.355 . S
C350 C352 1.415 . S
C351 C350 1.355 . S
C351 C353 1.394 1_655 S
C352 C350 1.415 . S
C352 C357 1.425 . S
C352 C359 1.409 . S
C353 H345 0.944 . S
C353 C351 1.394 1_455 S
C353 C354 1.374 . S
C354 H346 0.930 . S
C354 C353 1.374 . S
C354 C357 1.409 1_455 S
C355 H347 0.930 . S
C355 C356 1.355 1_455 S
C355 C357 1.415 1_455 S
C356 C355 1.355 1_655 S
C356 C358 1.419 . S
C357 C352 1.425 . S
C357 C354 1.409 1_655 S
C357 C355 1.415 1_655 S
C358 H348 0.930 . S
C358 C356 1.419 . S
C358 C359 1.362 . S
C359 H349 0.930 . S
C359 C352 1.409 . S
C359 C358 1.362 . S
H360 C366 0.930 . S
H361 C369 0.930 . S
H362 C370 0.913 1_655 S
H363 C371 0.930 1_655 S
H364 C374 0.930 . S
H365 C375 0.930 . S
C366 H360 0.930 . S
C366 C367 1.355 . S
C366 C368 1.415 . S
C367 C366 1.355 . S
C367 C369 1.419 . S
C368 C366 1.415 . S
C368 C373 1.425 . S
C368 C375 1.409 . S
C369 H361 0.930 . S
C369 C367 1.419 . S
C369 C370 1.369 . S
C370 H362 0.913 1_455 S
C370 C369 1.369 . S
C370 C373 1.420 . S
C371 H363 0.930 1_455 S
C371 C372 1.355 . S
C371 C373 1.415 . S
C372 C371 1.355 . S
C372 C374 1.419 . S
C373 C368 1.425 . S
C373 C370 1.420 . S
C373 C371 1.415 . S
C374 H364 0.930 . S
C374 C372 1.419 . S
C374 C375 1.362 . S
C375 H365 0.930 . S
C375 C368 1.409 . S
C375 C374 1.362 . S
H376 C382 0.930 . S
H377 C385 0.930 . S
H378 C386 0.930 1_565 S
H379 C387 0.930 1_565 S
H380 C390 0.930 . S
H381 C391 0.930 . S
C382 H376 0.930 . S
C382 C383 1.355 . S
C382 C384 1.415 . S
C383 C382 1.355 . S
C383 C385 1.419 . S
C384 C382 1.415 . S
C384 C389 1.425 . S
C384 C391 1.409 . S
C385 H377 0.930 . S
C385 C383 1.419 . S
C385 C386 1.362 . S
C386 H378 0.930 1_545 S
C386 C385 1.362 . S
C386 C389 1.409 . S
C387 H379 0.930 1_545 S
C387 C388 1.355 . S
C387 C389 1.415 . S
C388 C387 1.355 . S
C388 C390 1.419 . S
C389 C384 1.425 . S
C389 C386 1.409 . S
C389 C387 1.415 . S
C390 H380 0.930 . S
C390 C388 1.419 . S
C390 C391 1.362 . S
C391 H381 0.930 . S
C391 C384 1.409 . S
C391 C390 1.362 . S
H392 C398 0.930 . S
H393 C401 0.930 . S
H394 C402 0.930 . S
H395 C403 0.930 . S
H396 C406 0.930 . S
H397 C407 0.930 . S
C398 H392 0.930 . S
C398 C399 1.355 . S
C398 C400 1.415 . S
C399 C398 1.355 . S
C399 C401 1.419 . S
C400 C398 1.415 . S
C400 C405 1.425 . S
C400 C407 1.409 . S
C401 H393 0.930 . S
C401 C399 1.419 . S
C401 C402 1.362 . S
C402 H394 0.930 . S
C402 C401 1.362 . S
C402 C405 1.409 . S
C403 H395 0.930 . S
C403 C404 1.355 . S
C403 C405 1.415 . S
C404 C403 1.355 . S
C404 C406 1.419 . S
C405 C400 1.425 . S
C405 C402 1.409 . S
C405 C403 1.415 . S
C406 H396 0.930 . S
C406 C404 1.419 . S
C406 C407 1.362 . S
C407 H397 0.930 . S
C407 C400 1.409 . S
C407 C406 1.362 . S
H408 C414 0.930 . S
H409 C417 0.930 . S
H410 C418 0.930 . S
H411 C419 0.930 . S
H412 C422 0.930 . S
H413 C423 0.930 . S
C414 H408 0.930 . S
C414 C415 1.355 . S
C414 C416 1.415 . S
C415 C414 1.355 . S
C415 C417 1.419 . S
C416 C414 1.415 . S
C416 C421 1.425 . S
C416 C423 1.409 . S
C417 H409 0.930 . S
C417 C415 1.419 . S
C417 C418 1.362 . S
C418 H410 0.930 . S
C418 C417 1.362 . S
C418 C421 1.409 . S
C419 H411 0.930 . S
C419 C420 1.355 . S
C419 C421 1.415 . S
C420 C419 1.355 . S
C420 C422 1.419 . S
C421 C416 1.425 . S
C421 C418 1.409 . S
C421 C419 1.415 . S
C422 H412 0.930 . S
C422 C420 1.419 . S
C422 C423 1.362 . S
C423 H413 0.930 . S
C423 C416 1.409 . S
C423 C422 1.362 . S
H424 C430 0.930 1_455 S
H425 C433 0.930 . S
H426 C434 0.930 . S
H427 C435 0.930 . S
H428 C438 0.930 . S
H429 C439 0.930 . S
C430 H424 0.930 1_655 S
C430 C431 1.355 . S
C430 C432 1.415 . S
C431 C430 1.355 . S
C431 C433 1.419 . S
C432 C430 1.415 . S
C432 C437 1.425 . S
C432 C439 1.409 1_655 S
C433 H425 0.930 . S
C433 C431 1.419 . S
C433 C434 1.362 . S
C434 H426 0.930 . S
C434 C433 1.362 . S
C434 C437 1.409 . S
C435 H427 0.930 . S
C435 C436 1.355 . S
C435 C437 1.415 . S
C436 C435 1.355 . S
C436 C438 1.419 1_655 S
C437 C432 1.425 . S
C437 C434 1.409 . S
C437 C435 1.415 . S
C438 H428 0.930 . S
C438 C436 1.419 1_455 S
C438 C439 1.362 . S
C439 H429 0.930 . S
C439 C432 1.409 1_455 S
C439 C438 1.362 . S
H440 C446 0.930 . S
H441 C449 0.913 1_545 S
H442 C450 0.930 . S
H443 C451 0.930 . S
H444 C454 0.930 . S
H445 C455 0.930 . S
C446 H440 0.930 . S
C446 C447 1.355 . S
C446 C448 1.415 . S
C447 C446 1.355 . S
C447 C449 1.419 . S
C448 C446 1.415 . S
C448 C453 1.425 . S
C448 C455 1.409 . S
C449 H441 0.913 1_565 S
C449 C447 1.419 . S
C449 C450 1.362 1_565 S
C450 H442 0.930 . S
C450 C449 1.362 1_545 S
C450 C453 1.409 1_545 S
C451 H443 0.930 . S
C451 C452 1.355 1_545 S
C451 C453 1.415 1_545 S
C452 C451 1.355 1_565 S
C452 C454 1.419 . S
C453 C448 1.425 . S
C453 C450 1.409 1_565 S
C453 C451 1.415 1_565 S
C454 H444 0.930 . S
C454 C452 1.419 . S
C454 C455 1.362 . S
C455 H445 0.930 . S
C455 C448 1.409 . S
C455 C454 1.362 . S
H456 C462 0.930 . S
H457 C465 0.930 . S
H458 C466 0.930 . S
H459 C467 0.930 . S
H460 C470 0.930 . S
H461 C471 0.930 . S
C462 H456 0.930 . S
C462 C463 1.355 . S
C462 C464 1.415 . S
C463 C462 1.355 . S
C463 C465 1.419 . S
C464 C462 1.415 . S
C464 C469 1.425 . S
C464 C471 1.409 . S
C465 H457 0.930 . S
C465 C463 1.419 . S
C465 C466 1.362 . S
C466 H458 0.930 . S
C466 C465 1.362 . S
C466 C469 1.409 . S
C467 H459 0.930 . S
C467 C468 1.355 . S
C467 C469 1.415 . S
C468 C467 1.355 . S
C468 C470 1.419 . S
C469 C464 1.425 . S
C469 C466 1.409 . S
C469 C467 1.415 . S
C470 H460 0.930 . S
C470 C468 1.419 . S
C470 C471 1.362 . S
C471 H461 0.930 . S
C471 C464 1.409 . S
C471 C470 1.362 . S
H472 C478 0.930 . S
H473 C481 0.930 . S
H474 C482 0.930 . S
H475 C483 0.930 . S
H476 C486 0.930 . S
H477 C487 0.930 . S
C478 H472 0.930 . S
C478 C479 1.355 . S
C478 C480 1.415 . S
C479 C478 1.355 . S
C479 C481 1.419 . S
C480 C478 1.415 . S
C480 C485 1.425 . S
C480 C487 1.409 . S
C481 H473 0.930 . S
C481 C479 1.419 . S
C481 C482 1.362 . S
C482 H474 0.930 . S
C482 C481 1.362 . S
C482 C485 1.409 . S
C483 H475 0.930 . S
C483 C484 1.355 . S
C483 C485 1.415 . S
C484 C483 1.355 . S
C484 C486 1.419 . S
C485 C480 1.425 . S
C485 C482 1.409 . S
C485 C483 1.415 . S
C486 H476 0.930 . S
C486 C484 1.419 . S
C486 C487 1.362 . S
C487 H477 0.930 . S
C487 C480 1.409 . S
C487 C486 1.362 . S
H488 C494 0.930 . S
H489 C497 0.930 . S
H490 C498 0.930 1_556 S
H491 C499 0.930 . S
H492 C502 0.930 . S
H493 C503 0.930 . S
C494 H488 0.930 . S
C494 C495 1.355 . S
C494 C496 1.415 . S
C495 C494 1.355 . S
C495 C497 1.419 . S
C496 C494 1.415 . S
C496 C501 1.425 . S
C496 C503 1.409 . S
C497 H489 0.930 . S
C497 C495 1.419 . S
C497 C498 1.362 . S
C498 H490 0.930 1_554 S
C498 C497 1.362 . S
C498 C501 1.409 . S
C499 H491 0.930 . S
C499 C500 1.355 . S
C499 C501 1.415 1_556 S
C500 C499 1.355 . S
C500 C502 1.419 1_556 S
C501 C496 1.425 . S
C501 C498 1.409 . S
C501 C499 1.415 1_554 S
C502 H492 0.930 . S
C502 C500 1.419 1_554 S
C502 C503 1.362 . S
C503 H493 0.930 . S
C503 C496 1.409 . S
C503 C502 1.362 . S
H504 C510 0.930 . S
H505 C513 0.930 . S
H506 C514 0.930 . S
H507 C515 0.930 . S
H508 C518 0.930 . S
H509 C519 0.930 . S
C510 H504 0.930 . S
C510 C511 1.355 . S
C510 C512 1.415 . S
C511 C510 1.355 . S
C511 C513 1.419 . S
C512 C510 1.415 . S
C512 C517 1.425 . S
C512 C519 1.409 1_554 S
C513 H505 0.930 . S
C513 C511 1.419 . S
C513 C514 1.362 . S
C514 H506 0.930 . S
C514 C513 1.362 . S
C514 C517 1.409 . S
C515 H507 0.930 . S
C515 C516 1.355 1_554 S
C515 C517 1.415 . S
C516 C515 1.355 1_556 S
C516 C518 1.419 . S
C517 C512 1.425 . S
C517 C514 1.409 . S
C517 C515 1.415 . S
C518 H508 0.930 . S
C518 C516 1.419 . S
C518 C519 1.362 . S
C519 H509 0.930 . S
C519 C512 1.409 1_556 S
C519 C518 1.362 . S
H520 C526 0.930 . S
H521 C529 0.930 . S
H522 C530 0.930 . S
H523 C531 0.930 . S
H524 C534 0.930 . S
H525 C535 0.930 . S
C526 H520 0.930 . S
C526 C527 1.355 . S
C526 C528 1.415 . S
C527 C526 1.355 . S
C527 C529 1.419 . S
C528 C526 1.415 . S
C528 C533 1.425 . S
C528 C535 1.409 1_554 S
C529 H521 0.930 . S
C529 C527 1.419 . S
C529 C530 1.362 . S
C530 H522 0.930 . S
C530 C529 1.362 . S
C530 C533 1.409 . S
C531 H523 0.930 . S
C531 C532 1.355 1_554 S
C531 C533 1.415 . S
C532 C531 1.355 1_556 S
C532 C534 1.419 . S
C533 C528 1.425 . S
C533 C530 1.409 . S
C533 C531 1.415 . S
C534 H524 0.930 . S
C534 C532 1.419 . S
C534 C535 1.362 . S
C535 H525 0.930 . S
C535 C528 1.409 1_556 S
C535 C534 1.362 . S
H536 C542 0.930 . S
H537 C545 0.930 . S
H538 C546 0.930 . S
H539 C547 0.930 . S
H540 C550 0.930 . S
H541 C551 0.930 . S
C542 H536 0.930 . S
C542 C543 1.355 . S
C542 C544 1.415 . S
C543 C542 1.355 . S
C543 C545 1.419 . S
C544 C542 1.415 . S
C544 C549 1.425 . S
C544 C551 1.409 1_554 S
C545 H537 0.930 . S
C545 C543 1.419 . S
C545 C546 1.362 . S
C546 H538 0.930 . S
C546 C545 1.362 . S
C546 C549 1.409 . S
C547 H539 0.930 . S
C547 C548 1.355 1_554 S
C547 C549 1.415 . S
C548 C547 1.355 1_556 S
C548 C550 1.419 . S
C549 C544 1.425 . S
C549 C546 1.409 . S
C549 C547 1.415 . S
C550 H540 0.930 . S
C550 C548 1.419 . S
C550 C551 1.362 . S
C551 H541 0.930 . S
C551 C544 1.409 1_556 S
C551 C550 1.362 . S
H552 C558 0.930 . S
H553 C561 0.930 . S
H554 C562 0.930 . S
H555 C563 0.930 . S
H556 C566 0.930 . S
H557 C567 0.930 . S
C558 H552 0.930 . S
C558 C559 1.355 . S
C558 C560 1.415 . S
C559 C558 1.355 . S
C559 C561 1.419 . S
C560 C558 1.415 . S
C560 C565 1.425 . S
C560 C567 1.409 . S
C561 H553 0.930 . S
C561 C559 1.419 . S
C561 C562 1.362 . S
C562 H554 0.930 . S
C562 C561 1.362 . S
C562 C565 1.409 . S
C563 H555 0.930 . S
C563 C564 1.355 . S
C563 C565 1.415 . S
C564 C563 1.355 . S
C564 C566 1.419 . S
C565 C560 1.425 . S
C565 C562 1.409 . S
C565 C563 1.415 . S
C566 H556 0.930 . S
C566 C564 1.419 . S
C566 C567 1.362 . S
C567 H557 0.930 . S
C567 C560 1.409 . S
C567 C566 1.362 . S
H568 C574 0.930 . S
H569 C577 0.930 1_545 S
H570 C578 0.930 . S
H571 C579 0.939 . S
H572 C582 0.930 . S
H573 C583 0.930 . S
C574 H568 0.930 . S
C574 C575 1.355 . S
C574 C576 1.415 . S
C575 C574 1.355 . S
C575 C577 1.419 . S
C576 C574 1.415 . S
C576 C581 1.425 . S
C576 C583 1.409 . S
C577 H569 0.930 1_565 S
C577 C575 1.419 . S
C577 C578 1.362 1_565 S
C578 H570 0.930 . S
C578 C577 1.362 1_545 S
C578 C581 1.409 1_545 S
C579 H571 0.939 . S
C579 C580 1.350 1_545 S
C579 C581 1.410 1_545 S
C580 C579 1.350 1_565 S
C580 C582 1.419 . S
C581 C576 1.425 . S
C581 C578 1.409 1_565 S
C581 C579 1.410 1_565 S
C582 H572 0.930 . S
C582 C580 1.419 . S
C582 C583 1.362 . S
C583 H573 0.930 . S
C583 C576 1.409 . S
C583 C582 1.362 . S
H584 C590 0.930 . S
H585 C593 0.930 . S
H586 C594 0.930 . S
H587 C595 0.930 . S
H588 C598 0.930 . S
H589 C599 0.930 . S
C590 H584 0.930 . S
C590 C591 1.355 . S
C590 C592 1.415 . S
C591 C590 1.355 . S
C591 C593 1.419 . S
C592 C590 1.415 . S
C592 C597 1.425 . S
C592 C599 1.409 . S
C593 H585 0.930 . S
C593 C591 1.419 . S
C593 C594 1.362 . S
C594 H586 0.930 . S
C594 C593 1.362 . S
C594 C597 1.409 . S
C595 H587 0.930 . S
C595 C596 1.355 . S
C595 C597 1.415 . S
C596 C595 1.355 . S
C596 C598 1.419 . S
C597 C592 1.425 . S
C597 C594 1.409 . S
C597 C595 1.415 . S
C598 H588 0.930 . S
C598 C596 1.419 . S
C598 C599 1.362 . S
C599 H589 0.930 . S
C599 C592 1.409 . S
C599 C598 1.362 . S
H600 C606 0.930 . S
H601 C609 0.930 . S
H602 C610 0.930 . S
H603 C611 0.930 . S
H604 C614 0.930 . S
H605 C615 0.930 . S
C606 H600 0.930 . S
C606 C607 1.355 . S
C606 C608 1.415 . S
C607 C606 1.355 . S
C607 C609 1.419 . S
C608 C606 1.415 . S
C608 C613 1.425 . S
C608 C615 1.409 . S
C609 H601 0.930 . S
C609 C607 1.419 . S
C609 C610 1.362 . S
C610 H602 0.930 . S
C610 C609 1.362 . S
C610 C613 1.409 . S
C611 H603 0.930 . S
C611 C612 1.355 . S
C611 C613 1.415 . S
C612 C611 1.355 . S
C612 C614 1.419 . S
C613 C608 1.425 . S
C613 C610 1.409 . S
C613 C611 1.415 . S
C614 H604 0.930 . S
C614 C612 1.419 . S
C614 C615 1.362 . S
C615 H605 0.930 . S
C615 C608 1.409 . S
C615 C614 1.362 . S
C239 C125 1.525 . S
C244 C153 1.637 . S
C260 C188 1.575 . S
C255 C144 1.413 . S
C276 C193 1.397 . S
C271 C87 1.300 . S
C292 C213 1.509 . S
C287 C106 1.405 . S
C308 C161 1.650 1_565 S
C303 C49 1.611 1_556 S
C319 C68 1.530 1_556 S
C324 C178 1.570 . S
C335 C11 1.384 1_556 S
C340 C201 1.402 . S
C351 C30 1.446 . S
C356 C221 1.525 1_655 S
C372 C171 1.448 . S
C367 C97 1.315 . S
C388 C180 1.229 . S
C383 C116 1.131 . S
C404 C211 1.472 . S
C399 C135 1.346 . S
C415 C78 1.126 . S
C420 C231 1.118 . S
C431 C21 1.383 . S
C436 C160 1.398 1_655 S
C452 C191 1.219 1_565 S
C447 C40 1.179 1_556 S
C468 C200 1.426 . S
C463 C59 1.403 1_556 S
C479 C2 1.107 1_556 S
C484 C220 1.135 . S
C495 C101 1.468 . S
C500 C158 1.419 . S
C511 C120 1.456 . S
C516 C181 1.544 . S
C532 C198 1.555 . S
C527 C139 1.476 . S
C548 C218 1.588 . S
C543 C82 1.531 . S
C559 C25 1.463 . S
C564 C168 1.423 . S
C580 C173 1.538 . S
C575 C44 1.483 . S
C596 C208 1.523 . S
C591 C63 1.538 . S
C607 C6 1.544 . S
C612 C228 1.588 . S
