# Generated by pormake.
# Topology pto, (3,4)-cn, num edge types: 1
# Building blocks:
#     Node 0, Type 0, BuildingBlock: PAMTOO_clean_linker_0, # of connection points: 3
#     Node 1, Type 0, BuildingBlock: PAMTOO_clean_linker_0, # of connection points: 3
#     Node 2, Type 0, BuildingBlock: PAMTOO_clean_linker_0, # of connection points: 3
#     Node 3, Type 0, BuildingBlock: PAMTOO_clean_linker_0, # of connection points: 3
#     Node 4, Type 0, BuildingBlock: PAMTOO_clean_linker_0, # of connection points: 3
#     Node 5, Type 0, BuildingBlock: PAMTOO_clean_linker_0, # of connection points: 3
#     Node 6, Type 0, BuildingBlock: PAMTOO_clean_linker_0, # of connection points: 3
#     Node 7, Type 0, BuildingBlock: PAMTOO_clean_linker_0, # of connection points: 3
#     Node 8, Type 1, BuildingBlock: NAWXER_clean_sbu_0, # of connection points: 4
#     Node 9, Type 1, BuildingBlock: NAWXER_clean_sbu_0, # of connection points: 4
#     Node 10, Type 1, BuildingBlock: NAWXER_clean_sbu_0, # of connection points: 4
#     Node 11, Type 1, BuildingBlock: NAWXER_clean_sbu_0, # of connection points: 4
#     Node 12, Type 1, BuildingBlock: NAWXER_clean_sbu_0, # of connection points: 4
#     Node 13, Type 1, BuildingBlock: NAWXER_clean_sbu_0, # of connection points: 4
#     Edge 14, Type (0, 1), BuildingBlock: XIVTED_clean_linker_0, # of connection points: 2
#     Edge 15, Type (0, 1), BuildingBlock: XIVTED_clean_linker_0, # of connection points: 2
#     Edge 16, Type (0, 1), BuildingBlock: XIVTED_clean_linker_0, # of connection points: 2
#     Edge 17, Type (0, 1), BuildingBlock: XIVTED_clean_linker_0, # of connection points: 2
#     Edge 18, Type (0, 1), BuildingBlock: XIVTED_clean_linker_0, # of connection points: 2
#     Edge 19, Type (0, 1), BuildingBlock: XIVTED_clean_linker_0, # of connection points: 2
#     Edge 20, Type (0, 1), BuildingBlock: XIVTED_clean_linker_0, # of connection points: 2
#     Edge 21, Type (0, 1), BuildingBlock: XIVTED_clean_linker_0, # of connection points: 2
#     Edge 22, Type (0, 1), BuildingBlock: XIVTED_clean_linker_0, # of connection points: 2
#     Edge 23, Type (0, 1), BuildingBlock: XIVTED_clean_linker_0, # of connection points: 2
#     Edge 24, Type (0, 1), BuildingBlock: XIVTED_clean_linker_0, # of connection points: 2
#     Edge 25, Type (0, 1), BuildingBlock: XIVTED_clean_linker_0, # of connection points: 2
#     Edge 26, Type (0, 1), BuildingBlock: XIVTED_clean_linker_0, # of connection points: 2
#     Edge 27, Type (0, 1), BuildingBlock: XIVTED_clean_linker_0, # of connection points: 2
#     Edge 28, Type (0, 1), BuildingBlock: XIVTED_clean_linker_0, # of connection points: 2
#     Edge 29, Type (0, 1), BuildingBlock: XIVTED_clean_linker_0, # of connection points: 2
#     Edge 30, Type (0, 1), BuildingBlock: XIVTED_clean_linker_0, # of connection points: 2
#     Edge 31, Type (0, 1), BuildingBlock: XIVTED_clean_linker_0, # of connection points: 2
#     Edge 32, Type (0, 1), BuildingBlock: XIVTED_clean_linker_0, # of connection points: 2
#     Edge 33, Type (0, 1), BuildingBlock: XIVTED_clean_linker_0, # of connection points: 2
#     Edge 34, Type (0, 1), BuildingBlock: XIVTED_clean_linker_0, # of connection points: 2
#     Edge 35, Type (0, 1), BuildingBlock: XIVTED_clean_linker_0, # of connection points: 2
#     Edge 36, Type (0, 1), BuildingBlock: XIVTED_clean_linker_0, # of connection points: 2
#     Edge 37, Type (0, 1), BuildingBlock: XIVTED_clean_linker_0, # of connection points: 2
# Relax obj value: 0.016
# Max RMSD: 0.152
# Mean RMSD: 0.065
data_MOF--net-pto--node1-NAWXER_clean_sbu_0--node2-PAMTOO_clean_linker_0--edge1-XIVTED_clean_linker_0
_symmetry_space_group_name_H-M    P1
_symmetry_Int_Tables_number       1
_symmetry_cell_setting            triclinic
loop_
_symmetry_equiv_pos_as_xyz
'x, y, z'
_cell_length_a     43.663974
_cell_length_b     39.306758
_cell_length_c     38.143919
_cell_angle_alpha  81.918545
_cell_angle_beta   83.755398
_cell_angle_gamma 99.844103
loop_
_atom_site_label
_atom_site_type_symbol
_atom_site_fract_x
_atom_site_fract_y
_atom_site_fract_z
_atom_type_partial_charge
H0 H 0.16576 0.29774 0.37638 0.0
H1 H 0.24376 0.27076 0.31372 0.0
H2 H 0.20341 0.3567 0.2718 0.0
H3 H 0.23075 0.3183 0.21239 0.0
C4 C 0.24348 0.30354 0.23111 0.0
O5 O 0.24711 0.32036 0.26022 0.0
H6 H 0.22936 0.2766 0.2395 0.0
C7 C 0.18229 0.30224 0.35211 0.0
C8 C 0.18131 0.32972 0.32443 0.0
C9 C 0.20489 0.28084 0.34867 0.0
C10 C 0.2263 0.28702 0.31716 0.0
C11 C 0.22543 0.314 0.28959 0.0
C12 C 0.2031 0.33528 0.29315 0.0
H13 H 0.20038 0.77941 0.84258 0.0
H14 H 0.26591 0.73431 0.90198 0.0
H15 H 0.29113 0.84056 0.84888 0.0
H16 H 0.34272 0.80833 0.84669 0.0
C17 C 0.33566 0.78666 0.86981 0.0
O18 O 0.30908 0.79145 0.89013 0.0
H19 H 0.33078 0.76166 0.85903 0.0
C20 C 0.2229 0.78222 0.8524 0.0
C21 C 0.24472 0.81386 0.8425 0.0
C22 C 0.23044 0.75333 0.87343 0.0
C23 C 0.25964 0.75651 0.88605 0.0
C24 C 0.28098 0.78836 0.87789 0.0
C25 C 0.27357 0.81681 0.85621 0.0
H26 H 0.7192 0.8256 0.30452 0.0
H27 H 0.77175 0.7544 0.26099 0.0
H28 H 0.79838 0.79766 0.35242 0.0
H29 H 0.84742 0.79562 0.2931 0.0
C30 C 0.83984 0.76771 0.29026 0.0
O31 O 0.81029 0.75487 0.30902 0.0
H32 H 0.83905 0.76621 0.26148 0.0
C33 C 0.73864 0.81181 0.3049 0.0
C34 C 0.75821 0.81487 0.3317 0.0
C35 C 0.74344 0.79054 0.27889 0.0
C36 C 0.76751 0.77096 0.28073 0.0
C37 C 0.78694 0.77342 0.30753 0.0
C38 C 0.78243 0.79542 0.33266 0.0
H39 H 0.77453 0.2887 0.89335 0.0
H40 H 0.71033 0.22027 0.84439 0.0
H41 H 0.80572 0.25378 0.79565 0.0
H42 H 0.75361 0.25997 0.7507 0.0
C43 C 0.73932 0.23342 0.76098 0.0
O44 O 0.75094 0.21782 0.79008 0.0
H45 H 0.7148 0.23645 0.76912 0.0
C46 C 0.76998 0.27319 0.87249 0.0
C47 C 0.7942 0.27353 0.84479 0.0
C48 C 0.73958 0.254 0.8728 0.0
C49 C 0.73371 0.2345 0.84531 0.0
C50 C 0.75747 0.23487 0.81751 0.0
C51 C 0.78762 0.25399 0.81739 0.0
H52 H 0.75668 0.79961 0.79074 0.0
H53 H 0.78991 0.70793 0.83496 0.0
H54 H 0.83774 0.77052 0.73673 0.0
H55 H 0.83099 0.69564 0.73764 0.0
C56 C 0.83241 0.68671 0.76634 0.0
O57 O 0.83684 0.7152 0.78386 0.0
H58 H 0.80997 0.6688 0.77819 0.0
C59 C 0.77324 0.78206 0.78929 0.0
C60 C 0.79746 0.7888 0.76029 0.0
C61 C 0.77015 0.75305 0.81652 0.0
C62 C 0.79161 0.73032 0.81424 0.0
C63 C 0.81594 0.73681 0.78553 0.0
C64 C 0.81896 0.76605 0.75885 0.0
H65 H 0.85444 0.32671 0.28397 0.0
H66 H 0.75764 0.27945 0.28358 0.0
H67 H 0.79387 0.38257 0.22634 0.0
H68 H 0.7328 0.37336 0.26634 0.0
C69 C 0.72251 0.34651 0.26222 0.0
O70 O 0.74463 0.33272 0.24293 0.0
H71 H 0.71497 0.33003 0.28899 0.0
C72 C 0.83174 0.3276 0.2753 0.0
C73 C 0.82722 0.3582 0.2541 0.0
C74 C 0.80689 0.2987 0.28628 0.0
C75 C 0.77747 0.30077 0.27497 0.0
C76 C 0.77299 0.33089 0.25336 0.0
C77 C 0.7978 0.35934 0.24284 0.0
H78 H 0.24758 0.31672 0.72658 0.0
H79 H 0.2915 0.37855 0.79856 0.0
H80 H 0.33357 0.29629 0.76378 0.0
H81 H 0.32334 0.30048 0.84254 0.0
C82 C 0.33148 0.32926 0.84017 0.0
O83 O 0.33727 0.34448 0.80464 0.0
H84 H 0.31238 0.33986 0.85418 0.0
C85 C 0.26671 0.32307 0.74184 0.0
C86 C 0.29095 0.30351 0.74174 0.0
C87 C 0.2664 0.34997 0.76255 0.0
C88 C 0.29122 0.35797 0.78237 0.0
C89 C 0.31525 0.3386 0.78275 0.0
C90 C 0.31524 0.31165 0.76235 0.0
H91 H 0.2591 0.80748 0.38054 0.0
H92 H 0.31607 0.75009 0.32153 0.0
H93 H 0.36033 0.83357 0.37044 0.0
H94 H 0.40641 0.82309 0.30719 0.0
C95 C 0.38667 0.8043 0.30055 0.0
O96 O 0.36963 0.78539 0.33195 0.0
H97 H 0.37218 0.82024 0.2853 0.0
C98 C 0.28216 0.80363 0.37024 0.0
C99 C 0.30937 0.82433 0.37846 0.0
C100 C 0.28442 0.77677 0.34989 0.0
C101 C 0.31403 0.77064 0.33736 0.0
C102 C 0.34119 0.79116 0.34482 0.0
C103 C 0.33891 0.81773 0.3654 0.0
C104 C 1.00173 0.55021 0.26363 0.0
C105 C 0.09141 0.62485 0.29768 0.0
O106 O 1.00127 0.54856 0.29747 0.0
Zn107 Zn 0.02925 0.56989 0.33472 0.0
O108 O 0.02436 0.56975 0.24228 0.0
Zn109 Zn 0.04668 0.58808 0.27916 0.0
O110 O 0.06162 0.54211 0.3024 0.0
O111 O 0.04134 0.52815 0.35927 0.0
O112 O 0.08524 0.62243 0.26622 0.0
O113 O 0.07262 0.60682 0.32462 0.0
O114 O 0.99982 0.59382 0.35907 0.0
O115 O 0.01491 0.61711 0.30235 0.0
C116 C 0.05807 0.52167 0.33243 0.0
C117 C 0.99855 0.61677 0.33246 0.0
C118 C 0.99263 0.44722 0.83917 0.0
C119 C 0.07464 0.54456 0.85074 0.0
O120 O 1.00176 0.45622 0.86761 0.0
Zn121 Zn 0.03364 0.49595 0.84526 0.0
O122 O 0.00609 0.46451 0.80875 0.0
Zn123 Zn 0.04313 0.50898 0.7889 0.0
O124 O 0.0737 0.48922 0.7619 0.0
O125 O 0.06958 0.47227 0.82015 0.0
O126 O 0.07223 0.54167 0.81801 0.0
O127 O 0.05612 0.52373 0.87563 0.0
O128 O 0.00641 0.53141 0.82151 0.0
O129 O 0.02137 0.54145 0.76333 0.0
C130 C 0.08257 0.4719 0.78837 0.0
C131 C 0.00396 0.54668 0.79021 0.0
C132 C 0.23721 0.99788 0.63647 0.0
C133 C 0.23191 0.08265 0.53208 0.0
O134 O 0.21287 0.00341 0.62284 0.0
Zn135 Zn 0.23394 0.0385 0.58284 0.0
O136 O 0.26437 0.01403 0.621 0.0
Zn137 Zn 0.28382 0.05155 0.57424 0.0
O138 O 0.30626 0.08918 0.59484 0.0
O139 O 0.25476 0.08077 0.60838 0.0
O140 O 0.2601 0.08062 0.53744 0.0
O141 O 0.209 0.06232 0.55224 0.0
O142 O 0.25588 0.00874 0.54797 0.0
O143 O 0.30705 0.02561 0.54448 0.0
C144 C 0.28217 0.09764 0.6107 0.0
C145 C 0.28375 0.00614 0.53565 0.0
C146 C 0.59321 0.77899 0.0975 0.0
C147 C 0.51241 0.77589 0.01764 0.0
O148 O 0.58182 0.74827 0.09191 0.0
Zn149 Zn 0.54815 0.72312 0.06278 0.0
O150 O 0.58341 0.80528 0.08237 0.0
Zn151 Zn 0.55357 0.7794 0.05667 0.0
O152 O 0.51926 0.75102 0.0993 0.0
O153 O 0.51805 0.69418 0.10199 0.0
O154 O 0.52807 0.80307 0.02637 0.0
O155 O 0.51806 0.74568 0.02934 0.0
O156 O 0.57466 0.70281 0.02972 0.0
O157 O 0.58382 0.76051 0.01959 0.0
C158 C 0.50795 0.71941 0.114 0.0
C159 C 0.59008 0.73157 0.01179 0.0
C160 C 0.80026 0.99877 0.5749 0.0
C161 C 0.80526 0.09235 0.47331 0.0
O162 O 0.77344 0.00441 0.56745 0.0
Zn163 Zn 0.75407 0.03841 0.5306 0.0
O164 O 0.82517 0.01779 0.55707 0.0
Zn165 Zn 0.80435 0.04661 0.52498 0.0
O166 O 0.7834 0.07633 0.56025 0.0
O167 O 0.73202 0.06386 0.56174 0.0
O168 O 0.82844 0.08285 0.48683 0.0
O169 O 0.77728 0.07773 0.48731 0.0
O170 O 0.73063 0.00537 0.50575 0.0
O171 O 0.78196 0.00773 0.49697 0.0
C172 C 0.75598 0.0807 0.5721 0.0
C173 C 0.75418 0.99444 0.49189 0.0
C174 C 0.54906 0.34582 0.10992 0.0
C175 C 0.48983 0.34538 0.00805 0.0
O176 O 0.53555 0.31514 0.10626 0.0
Zn177 Zn 0.50596 0.29123 0.07184 0.0
O178 O 0.54497 0.37235 0.08897 0.0
Zn179 Zn 0.51839 0.34717 0.05968 0.0
O180 O 0.47522 0.3275 0.09411 0.0
O181 O 0.46736 0.26985 0.10325 0.0
O182 O 0.50415 0.37223 0.01869 0.0
O183 O 0.48916 0.31483 0.02546 0.0
O184 O 0.53248 0.26223 0.05108 0.0
O185 O 0.55024 0.31902 0.0349 0.0
C186 C 0.45816 0.29794 0.10851 0.0
C187 C 0.55332 0.28733 0.03364 0.0
H188 H 0.1476 0.35531 0.27391 0.0
H189 H 0.07025 0.47994 0.39211 0.0
H190 H 0.16288 0.35836 0.38342 0.0
H191 H 0.07938 0.49187 0.277 0.0
H192 H 0.09694 0.42948 0.39258 0.0
H193 H 0.1146 0.39906 0.27798 0.0
C194 C 0.14397 0.36515 0.29887 0.0
C195 C 0.15845 0.35349 0.32817 0.0
C196 C 0.09293 0.44319 0.36732 0.0
C197 C 0.12037 0.40365 0.33314 0.0
C198 C 0.07768 0.47187 0.36704 0.0
C199 C 0.07285 0.49035 0.33446 0.0
C200 C 0.10288 0.43276 0.33483 0.0
C201 C 0.0829 0.47875 0.30275 0.0
C202 C 0.12504 0.3901 0.30122 0.0
C203 C 0.15216 0.36656 0.36016 0.0
N204 N 0.09736 0.45082 0.30377 0.0
N205 N 0.13377 0.39119 0.36173 0.0
H206 H 0.16873 0.73728 0.90287 0.0
H207 H 0.1318 0.5713 0.81207 0.0
H208 H 0.24296 0.69248 0.85449 0.0
H209 H 0.07315 0.58017 0.90766 0.0
H210 H 0.17143 0.61892 0.82367 0.0
H211 H 0.13154 0.68277 0.9026 0.0
C212 C 0.17721 0.71568 0.89279 0.0
C213 C 0.20884 0.71913 0.87877 0.0
C214 C 0.15002 0.61021 0.84228 0.0
C215 C 0.1666 0.65755 0.87746 0.0
C216 C 0.12734 0.58325 0.83557 0.0
C217 C 0.09918 0.57196 0.8589 0.0
C218 C 0.14415 0.62664 0.87201 0.0
C219 C 0.09464 0.58813 0.88911 0.0
C220 C 0.15608 0.6847 0.89266 0.0
C221 C 0.21877 0.69063 0.86577 0.0
N222 N 0.11672 0.61514 0.89453 0.0
N223 N 0.19759 0.66121 0.86483 0.0
H224 H 0.90316 0.78767 0.27853 0.0
H225 H 0.94175 0.60814 0.37487 0.0
H226 H 0.83101 0.70042 0.32997 0.0
H227 H 0.00565 0.68159 0.29346 0.0
H228 H 0.90295 0.64662 0.36969 0.0
H229 H 0.943 0.75365 0.29457 0.0
C230 C 0.89576 0.76151 0.29366 0.0
C231 C 0.86378 0.74712 0.3033 0.0
C232 C 0.92564 0.65441 0.35334 0.0
C233 C 0.90919 0.70779 0.32148 0.0
C234 C 0.94783 0.63267 0.3565 0.0
C235 C 0.97685 0.64167 0.33443 0.0
C236 C 0.93282 0.68552 0.32836 0.0
C237 C 0.98346 0.67355 0.31079 0.0
C238 C 0.91845 0.74207 0.30271 0.0
C239 C 0.8554 0.71281 0.32238 0.0
N240 N 0.96163 0.69424 0.30833 0.0
N241 N 0.87799 0.6943 0.33087 0.0
H242 H 0.83223 0.31328 0.7861 0.0
H243 H 0.95752 0.40482 0.89855 0.0
H244 H 0.82777 0.28539 0.9004 0.0
H245 H 0.96597 0.42371 0.78332 0.0
H246 H 0.91087 0.35981 0.90004 0.0
H247 H 0.88224 0.35237 0.78471 0.0
C248 C 0.84192 0.31498 0.81089 0.0
C249 C 0.82562 0.29594 0.84344 0.0
C250 C 0.92307 0.37367 0.87444 0.0
C251 C 0.88284 0.34142 0.84209 0.0
C252 C 0.94972 0.39937 0.87356 0.0
C253 C 0.96564 0.41823 0.84076 0.0
C254 C 0.91217 0.36689 0.8423 0.0
C255 C 0.95445 0.40997 0.80925 0.0
C256 C 0.87045 0.33756 0.8101 0.0
C257 C 0.8392 0.29991 0.87475 0.0
N258 N 0.92835 0.38511 0.81082 0.0
N259 N 0.86692 0.32231 0.87332 0.0
H260 H 0.15696 0.23214 0.39007 0.0
H261 H 0.27631 0.12838 0.48458 0.0
H262 H 0.25768 0.26479 0.37364 0.0
H263 H 0.176 0.10028 0.51559 0.0
H264 H 0.26873 0.17656 0.44127 0.0
H265 H 0.16221 0.18283 0.43493 0.0
C266 C 0.18011 0.22912 0.39612 0.0
C267 C 0.20695 0.25238 0.37782 0.0
C268 C 0.24828 0.15992 0.45746 0.0
C269 C 0.21312 0.19603 0.42853 0.0
C270 C 0.25259 0.13221 0.48219 0.0
C271 C 0.22675 0.11024 0.50391 0.0
C272 C 0.21787 0.16594 0.45417 0.0
C273 C 0.19659 0.11658 0.49939 0.0
C274 C 0.18309 0.20089 0.42151 0.0
C275 C 0.23638 0.24713 0.38651 0.0
N276 N 0.19296 0.14396 0.47502 0.0
N277 N 0.23864 0.2195 0.41105 0.0
H278 H 0.37549 0.84248 0.88614 0.0
H279 H 0.47404 0.72205 0.99719 0.0
H280 H 0.35453 0.72976 0.9051 0.0
H281 H 0.49228 0.83472 0.98722 0.0
H282 H 0.43112 0.72513 0.96205 0.0
H283 H 0.41881 0.84098 0.92212 0.0
C284 C 0.38015 0.81745 0.89787 0.0
C285 C 0.36192 0.78618 0.89224 0.0
C286 C 0.44444 0.74924 0.96747 0.0
C287 C 0.41103 0.78417 0.93343 0.0
C288 C 0.46911 0.74754 0.98752 0.0
C289 C 0.48691 0.77821 0.99522 0.0
C290 C 0.43735 0.78187 0.95478 0.0
C291 C 0.47923 0.81041 0.98192 0.0
C292 C 0.40477 0.81659 0.91837 0.0
C293 C 0.3684 0.75441 0.90841 0.0
N294 N 0.455 0.81141 0.96232 0.0
N295 N 0.39251 0.75422 0.92809 0.0
H296 H 0.76785 0.80696 0.40241 0.0
H297 H 0.71107 0.98011 0.44612 0.0
H298 H 0.73832 0.87801 0.32129 0.0
H299 H 0.7885 0.94342 0.49054 0.0
H300 H 0.70847 0.93377 0.40856 0.0
H301 H 0.76353 0.84869 0.44363 0.0
C302 C 0.76049 0.83121 0.39312 0.0
C303 C 0.75378 0.83893 0.35798 0.0
C304 C 0.7258 0.93586 0.42681 0.0
C305 C 0.74769 0.88609 0.40566 0.0
C306 C 0.7272 0.96205 0.44823 0.0
C307 C 0.75021 0.9656 0.47106 0.0
C308 C 0.747 0.91274 0.42919 0.0
C309 C 0.77067 0.94171 0.47289 0.0
C310 C 0.75779 0.85483 0.41683 0.0
C311 C 0.74337 0.87048 0.34812 0.0
N312 N 0.76852 0.91617 0.45231 0.0
N313 N 0.74063 0.89289 0.37184 0.0
H314 H 0.69147 0.20181 0.90835 0.0
H315 H 0.60409 0.33575 0.00086 0.0
H316 H 0.72757 0.31254 0.89849 0.0
H317 H 0.56697 0.22473 0.01742 0.0
H318 H 0.65008 0.32644 0.96458 0.0
H319 H 0.64645 0.20838 0.94953 0.0
C320 C 0.69001 0.22745 0.91496 0.0
C321 C 0.71338 0.25667 0.89995 0.0
C322 C 0.632 0.304 0.97613 0.0
C323 C 0.66205 0.26432 0.94698 0.0
C324 C 0.60557 0.3093 0.99687 0.0
C325 C 0.58146 0.28097 0.01212 0.0
C326 C 0.63452 0.27009 0.97025 0.0
C327 C 0.58496 0.24732 0.00611 0.0
C328 C 0.66438 0.23113 0.93853 0.0
C329 C 0.71045 0.28917 0.90974 0.0
N330 N 0.61099 0.2428 0.98546 0.0
N331 N 0.68523 0.2921 0.93244 0.0
H332 H 0.21227 0.80787 0.78493 0.0
H333 H 0.27799 0.99908 0.68549 0.0
H334 H 0.26355 0.88538 0.83759 0.0
H335 H 0.19118 0.94053 0.66353 0.0
H336 H 0.27591 0.95611 0.7391 0.0
H337 H 0.20617 0.85437 0.73843 0.0
C338 C 0.22178 0.83461 0.78729 0.0
C339 C 0.23856 0.84244 0.81556 0.0
C340 C 0.25716 0.95286 0.72275 0.0
C341 C 0.23249 0.89578 0.76122 0.0
C342 C 0.25841 0.97721 0.69207 0.0
C343 C 0.23479 0.97317 0.66999 0.0
C344 C 0.23252 0.92381 0.73096 0.0
C345 C 0.20983 0.94456 0.67989 0.0
C346 C 0.21841 0.86115 0.76043 0.0
C347 C 0.25103 0.87779 0.81611 0.0
N348 N 0.20958 0.92059 0.70943 0.0
N349 N 0.24811 0.90307 0.7891 0.0
H350 H 0.71818 0.73323 0.25069 0.0
H351 H 0.62139 0.83865 0.12072 0.0
H352 H 0.72276 0.84479 0.241 0.0
H353 H 0.61982 0.72755 0.13028 0.0
H354 H 0.65977 0.84234 0.16321 0.0
H355 H 0.68353 0.73145 0.20462 0.0
C356 C 0.71211 0.7574 0.23868 0.0
C357 C 0.72327 0.78915 0.24993 0.0
C358 C 0.65104 0.81722 0.15584 0.0
C359 C 0.68323 0.78731 0.19735 0.0
C360 C 0.62916 0.81512 0.1316 0.0
C361 C 0.61723 0.78275 0.12201 0.0
C362 C 0.66099 0.78673 0.17053 0.0
C363 C 0.62818 0.75309 0.13694 0.0
C364 C 0.69216 0.75637 0.21249 0.0
C365 C 0.71427 0.81961 0.23363 0.0
N366 N 0.6493 0.7558 0.16044 0.0
N367 N 0.69472 0.81792 0.20827 0.0
H368 H 0.69098 0.18865 0.74108 0.0
H369 H 0.80287 0.1249 0.59348 0.0
H370 H 0.79052 0.22774 0.71596 0.0
H371 H 0.7022 0.09117 0.61063 0.0
H372 H 0.79835 0.16256 0.63842 0.0
H373 H 0.69412 0.15235 0.69392 0.0
C374 C 0.71345 0.18966 0.72542 0.0
C375 C 0.7405 0.21142 0.7319 0.0
C376 C 0.77718 0.14705 0.63235 0.0
C377 C 0.74439 0.16992 0.67843 0.0
C378 C 0.77974 0.12546 0.60665 0.0
C379 C 0.75286 0.10471 0.59831 0.0
C380 C 0.74753 0.14792 0.65015 0.0
C381 C 0.72353 0.10672 0.61621 0.0
C382 C 0.71525 0.169 0.69858 0.0
C383 C 0.76913 0.21152 0.71139 0.0
N384 N 0.72165 0.12785 0.64144 0.0
N385 N 0.77033 0.1911 0.68555 0.0
H386 H 0.28619 0.35711 0.19031 0.0
H387 H 0.41431 0.24083 0.14346 0.0
H388 H 0.27323 0.24701 0.23132 0.0
H389 H 0.43121 0.35371 0.12016 0.0
H390 H 0.36198 0.24143 0.17403 0.0
H391 H 0.33884 0.35542 0.16192 0.0
C392 C 0.29449 0.33255 0.19306 0.0
C393 C 0.27536 0.3021 0.21264 0.0
C394 C 0.37728 0.26603 0.16235 0.0
C395 C 0.33555 0.29982 0.18067 0.0
C396 C 0.40714 0.2657 0.14494 0.0
C397 C 0.42722 0.29725 0.12915 0.0
C398 C 0.3674 0.2981 0.16371 0.0
C399 C 0.41663 0.3287 0.13186 0.0
C400 C 0.32452 0.33155 0.17704 0.0
C401 C 0.28722 0.27096 0.21599 0.0
N402 N 0.38748 0.32829 0.14859 0.0
N403 N 0.31655 0.27055 0.20001 0.0
H404 H 0.84579 0.6493 0.82683 0.0
H405 H 0.99176 0.58415 0.72837 0.0
H406 H 0.87929 0.6803 0.71443 0.0
H407 H 0.96192 0.56067 0.84223 0.0
H408 H 0.95103 0.61959 0.72234 0.0
H409 H 0.88851 0.61665 0.83283 0.0
C410 C 0.86224 0.64916 0.80346 0.0
C411 C 0.85899 0.66719 0.7701 0.0
C412 C 0.9535 0.60676 0.74864 0.0
C413 C 0.90789 0.63005 0.77655 0.0
C414 C 0.97675 0.58652 0.7521 0.0
C415 C 0.98027 0.56931 0.78585 0.0
C416 C 0.93354 0.60973 0.77912 0.0
C417 C 0.96012 0.57338 0.81566 0.0
C418 C 0.88661 0.63061 0.80683 0.0
C419 C 0.88093 0.6665 0.74058 0.0
N420 N 0.93762 0.59302 0.81156 0.0
N421 N 0.9044 0.64809 0.74446 0.0
H422 H 0.82146 0.42522 0.25991 0.0
H423 H 0.00517 0.50535 0.21507 0.0
H424 H 0.89008 0.3634 0.23102 0.0
H425 H 0.93986 0.54451 0.28477 0.0
H426 H 0.96163 0.4605 0.20478 0.0
H427 H 0.86342 0.47644 0.25281 0.0
C428 C 0.84532 0.42255 0.25146 0.0
C429 C 0.85233 0.38994 0.24628 0.0
C430 C 0.95685 0.47942 0.22172 0.0
C431 C 0.90047 0.44848 0.23833 0.0
C432 C 0.98152 0.5051 0.22728 0.0
C433 C 0.97586 0.52845 0.25074 0.0
C434 C 0.92648 0.47775 0.23931 0.0
C435 C 0.94504 0.52684 0.26652 0.0
C436 C 0.86925 0.45176 0.24761 0.0
C437 C 0.88375 0.38798 0.23574 0.0
N438 N 0.92151 0.50185 0.26061 0.0
N439 N 0.90675 0.41685 0.23227 0.0
H440 H 0.23592 0.36471 0.82331 0.0
H441 H 0.11485 0.46299 0.72516 0.0
H442 H 0.23439 0.37555 0.70939 0.0
H443 H 0.10994 0.43699 0.8397 0.0
H444 H 0.15937 0.4329 0.71798 0.0
H445 H 0.19094 0.3936 0.82894 0.0
C446 C 0.22626 0.37345 0.79939 0.0
C447 C 0.23913 0.36793 0.76577 0.0
C448 C 0.14843 0.4337 0.74464 0.0
C449 C 0.18712 0.40076 0.7721 0.0
C450 C 0.12301 0.45086 0.74878 0.0
C451 C 0.1086 0.45257 0.7831 0.0
C452 C 0.15963 0.41835 0.77504 0.0
C453 C 0.12022 0.43638 0.81271 0.0
C454 C 0.20037 0.38972 0.80266 0.0
C455 C 0.22514 0.37916 0.73583 0.0
N456 N 0.14506 0.42013 0.80798 0.0
N457 N 0.19995 0.39518 0.73967 0.0
H458 H 0.26586 0.70644 0.36984 0.0
H459 H 0.12493 0.68456 0.25475 0.0
H460 H 0.23871 0.79653 0.31236 0.0
H461 H 0.12341 0.61708 0.3547 0.0
H462 H 0.17214 0.72253 0.26722 0.0
H463 H 0.21879 0.66934 0.35636 0.0
C464 C 0.24991 0.7183 0.35434 0.0
C465 C 0.25588 0.75445 0.34229 0.0
C466 C 0.16135 0.69938 0.28631 0.0
C467 C 0.20264 0.71237 0.32624 0.0
C468 C 0.13462 0.67767 0.27916 0.0
C469 C 0.12025 0.64774 0.3038 0.0
C470 C 0.17413 0.6905 0.31783 0.0
C471 C 0.13365 0.64004 0.33511 0.0
C472 C 0.22314 0.69724 0.34675 0.0
C473 C 0.23465 0.76872 0.32228 0.0
N474 N 0.15998 0.66111 0.34109 0.0
N475 N 0.20901 0.74757 0.31456 0.0
H476 H 0.8504 0.83505 0.72553 0.0
H477 H 0.7506 0.95539 0.61691 0.0
H478 H 0.74969 0.81231 0.72948 0.0
H479 H 0.85182 0.97388 0.59722 0.0
H480 H 0.75101 0.90472 0.6609 0.0
H481 H 0.85258 0.88678 0.68027 0.0
C482 C 0.82879 0.84076 0.71675 0.0
C483 C 0.79977 0.81942 0.73164 0.0
C484 C 0.77322 0.91973 0.64707 0.0
C485 C 0.8021 0.8787 0.68029 0.0
C486 C 0.77304 0.9489 0.62189 0.0
C487 C 0.80125 0.96903 0.60313 0.0
C488 C 0.80182 0.9103 0.65392 0.0
C489 C 0.82951 0.95913 0.61103 0.0
C490 C 0.83006 0.87039 0.69108 0.0
C491 C 0.77254 0.8283 0.71942 0.0
N492 N 0.8291 0.93038 0.63585 0.0
N493 N 0.77439 0.85721 0.69467 0.0
H494 H 0.67116 0.29495 0.26472 0.0
H495 H 0.59269 0.40342 0.11627 0.0
H496 H 0.71159 0.4004 0.21382 0.0
H497 H 0.55686 0.29555 0.16343 0.0
H498 H 0.63365 0.40517 0.15556 0.0
H499 H 0.62672 0.29655 0.23091 0.0
C500 C 0.67045 0.31853 0.24657 0.0
C501 C 0.69469 0.34775 0.24235 0.0
C502 C 0.61664 0.38123 0.15746 0.0
C503 C 0.64423 0.34981 0.20324 0.0
C504 C 0.59315 0.38028 0.13519 0.0
C505 C 0.57142 0.34923 0.13637 0.0
C506 C 0.61832 0.35093 0.1811 0.0
C507 C 0.57323 0.32 0.16134 0.0
C508 C 0.64515 0.31948 0.22725 0.0
C509 C 0.69306 0.37751 0.21808 0.0
N510 N 0.59633 0.32153 0.1825 0.0
N511 N 0.66823 0.37782 0.19942 0.0
H512 H 0.23978 0.25435 0.73624 0.0
H513 H 0.33548 0.14379 0.61789 0.0
H514 H 0.3397 0.28318 0.7029 0.0
H515 H 0.23518 0.11956 0.64944 0.0
H516 H 0.33833 0.19408 0.64977 0.0
H517 H 0.23832 0.2044 0.70484 0.0
C518 C 0.26141 0.25042 0.722 0.0
C519 C 0.28987 0.27327 0.72205 0.0
C520 C 0.31574 0.17766 0.64972 0.0
C521 C 0.28847 0.2154 0.68638 0.0
C522 C 0.31411 0.14891 0.63161 0.0
C523 C 0.28505 0.12739 0.63091 0.0
C524 C 0.28812 0.18488 0.66728 0.0
C525 C 0.25812 0.13537 0.64912 0.0
C526 C 0.2606 0.22164 0.70427 0.0
C527 C 0.31725 0.26616 0.70381 0.0
N528 N 0.26032 0.16339 0.66644 0.0
N529 N 0.31587 0.2379 0.68669 0.0
H530 H 0.36197 0.77787 0.24457 0.0
H531 H 0.51505 0.7029 0.1839 0.0
H532 H 0.4395 0.77564 0.30516 0.0
H533 H 0.44777 0.72773 0.11452 0.0
H534 H 0.48055 0.71387 0.23475 0.0
H535 H 0.38624 0.7447 0.20306 0.0
C536 C 0.38399 0.77004 0.24924 0.0
C537 C 0.39928 0.78023 0.27761 0.0
C538 C 0.47289 0.7159 0.2086 0.0
C539 C 0.42703 0.74212 0.23063 0.0
C540 C 0.49235 0.70916 0.17975 0.0
C541 C 0.48386 0.71393 0.14529 0.0
C542 C 0.44492 0.72767 0.20269 0.0
C543 C 0.4548 0.72329 0.1409 0.0
C544 C 0.39782 0.75112 0.22564 0.0
C545 C 0.42738 0.76883 0.28309 0.0
N546 N 0.43649 0.73019 0.16919 0.0
N547 N 0.4406 0.75077 0.25953 0.0
H548 H 0.84247 0.29545 0.34185 0.0
H549 H 0.76633 0.09921 0.4231 0.0
H550 H 0.78082 0.22962 0.28708 0.0
H551 H 0.85352 0.14926 0.45244 0.0
H552 H 0.77011 0.14797 0.37463 0.0
H553 H 0.84626 0.24374 0.38373 0.0
C554 C 0.83006 0.27017 0.33818 0.0
C555 C 0.8111 0.26715 0.31078 0.0
C556 C 0.78862 0.14821 0.39138 0.0
C557 C 0.81484 0.20788 0.35945 0.0
C558 C 0.78644 0.12043 0.41914 0.0
C559 C 0.80961 0.12029 0.44189 0.0
C560 C 0.81383 0.17658 0.38666 0.0
C561 C 0.83522 0.14835 0.43541 0.0
C562 C 0.83217 0.24066 0.3623 0.0
C563 C 0.79515 0.23356 0.30812 0.0
N564 N 0.83644 0.17569 0.40865 0.0
N565 N 0.79713 0.2054 0.33231 0.0
H566 H 0.37735 0.29003 0.84588 0.0
H567 H 0.46612 0.40161 0.97801 0.0
H568 H 0.35171 0.3849 0.87364 0.0
H569 H 0.47446 0.29572 0.96689 0.0
H570 H 0.43207 0.40204 0.9307 0.0
H571 H 0.42129 0.2982 0.88059 0.0
C572 C 0.38123 0.31274 0.85911 0.0
C573 C 0.36058 0.33636 0.85779 0.0
C574 C 0.4417 0.3789 0.93841 0.0
C575 C 0.41068 0.34604 0.89738 0.0
C576 C 0.46121 0.37871 0.96524 0.0
C577 C 0.47279 0.34844 0.97665 0.0
C578 C 0.43413 0.34876 0.92274 0.0
C579 C 0.46568 0.31945 0.95928 0.0
C580 C 0.40622 0.31741 0.87893 0.0
C581 C 0.36688 0.36579 0.8747 0.0
N582 N 0.44673 0.32028 0.93338 0.0
N583 N 0.39118 0.36962 0.89422 0.0
H584 H 0.34733 0.84558 0.42779 0.0
H585 H 0.24044 0.97316 0.49903 0.0
H586 H 0.26576 0.86746 0.38062 0.0
H587 H 0.33712 0.98063 0.51684 0.0
H588 H 0.2474 0.93012 0.45994 0.0
H589 H 0.34241 0.8911 0.46441 0.0
C590 C 0.32854 0.86004 0.42478 0.0
C591 C 0.30692 0.85238 0.40085 0.0
C592 C 0.26714 0.94125 0.47228 0.0
C593 C 0.30079 0.90414 0.44365 0.0
C594 C 0.26317 0.96575 0.49474 0.0
C595 C 0.28824 0.98055 0.5113 0.0
C596 C 0.29627 0.93093 0.46666 0.0
C597 C 0.31718 0.96999 0.50455 0.0
C598 C 0.32569 0.88595 0.44593 0.0
C599 C 0.28268 0.87173 0.39903 0.0
N600 N 0.32035 0.94562 0.48296 0.0
N601 N 0.2802 0.89648 0.42023 0.0
H602 H 0.73167 0.69113 0.85002 0.0
H603 H 0.6269 0.78967 0.9716 0.0
H604 H 0.75067 0.80195 0.85339 0.0
H605 H 0.61309 0.67688 0.98598 0.0
H606 H 0.67081 0.79328 0.9259 0.0
H607 H 0.68772 0.68391 0.89831 0.0
C608 C 0.72679 0.71387 0.86106 0.0
C609 C 0.74468 0.74729 0.84728 0.0
C610 C 0.65833 0.76764 0.93895 0.0
C611 C 0.69436 0.73924 0.90208 0.0
C612 C 0.63302 0.7655 0.96513 0.0
C613 C 0.61615 0.73286 0.98287 0.0
C614 C 0.66713 0.73693 0.92997 0.0
C615 C 0.62542 0.70259 0.97302 0.0
C616 C 0.70162 0.70973 0.88847 0.0
C617 C 0.73716 0.77581 0.86249 0.0
N618 N 0.65033 0.70534 0.94715 0.0
N619 N 0.7126 0.77113 0.88881 0.0
loop_
_geom_bond_atom_site_label_1
_geom_bond_atom_site_label_2
_geom_bond_distance
_geom_bond_site_symmetry_2
_ccdc_geom_bond_type
H0 C7 0.929 . S
H1 C10 0.930 . S
H2 C12 0.929 . S
H3 C4 0.969 . S
C4 H3 0.969 . S
C4 O5 1.550 . S
C4 H6 0.973 . S
O5 C4 1.550 . S
O5 C11 1.412 . S
H6 C4 0.973 . S
C7 H0 0.929 . S
C7 C8 1.400 . S
C7 C9 1.364 . S
C8 C7 1.400 . S
C8 C12 1.377 . S
C9 C7 1.364 . S
C9 C10 1.374 . S
C10 H1 0.930 . S
C10 C9 1.374 . S
C10 C11 1.383 . S
C11 O5 1.412 . S
C11 C10 1.383 . S
C11 C12 1.394 . S
C12 H2 0.929 . S
C12 C8 1.377 . S
C12 C11 1.394 . S
H13 C20 0.929 . S
H14 C23 0.930 . S
H15 C25 0.929 . S
H16 C17 0.969 . S
C17 H16 0.969 . S
C17 O18 1.550 . S
C17 H19 0.973 . S
O18 C17 1.550 . S
O18 C24 1.412 . S
H19 C17 0.973 . S
C20 H13 0.929 . S
C20 C21 1.400 . S
C20 C22 1.364 . S
C21 C20 1.400 . S
C21 C25 1.377 . S
C22 C20 1.364 . S
C22 C23 1.374 . S
C23 H14 0.930 . S
C23 C22 1.374 . S
C23 C24 1.383 . S
C24 O18 1.412 . S
C24 C23 1.383 . S
C24 C25 1.394 . S
C25 H15 0.929 . S
C25 C21 1.377 . S
C25 C24 1.394 . S
H26 C33 0.929 . S
H27 C36 0.930 . S
H28 C38 0.929 . S
H29 C30 0.969 . S
C30 H29 0.969 . S
C30 O31 1.550 . S
C30 H32 0.973 . S
O31 C30 1.550 . S
O31 C37 1.412 . S
H32 C30 0.973 . S
C33 H26 0.929 . S
C33 C34 1.400 . S
C33 C35 1.364 . S
C34 C33 1.400 . S
C34 C38 1.377 . S
C35 C33 1.364 . S
C35 C36 1.374 . S
C36 H27 0.930 . S
C36 C35 1.374 . S
C36 C37 1.383 . S
C37 O31 1.412 . S
C37 C36 1.383 . S
C37 C38 1.394 . S
C38 H28 0.929 . S
C38 C34 1.377 . S
C38 C37 1.394 . S
H39 C46 0.929 . S
H40 C49 0.930 . S
H41 C51 0.929 . S
H42 C43 0.969 . S
C43 H42 0.969 . S
C43 O44 1.550 . S
C43 H45 0.973 . S
O44 C43 1.550 . S
O44 C50 1.412 . S
H45 C43 0.973 . S
C46 H39 0.929 . S
C46 C47 1.400 . S
C46 C48 1.364 . S
C47 C46 1.400 . S
C47 C51 1.377 . S
C48 C46 1.364 . S
C48 C49 1.374 . S
C49 H40 0.930 . S
C49 C48 1.374 . S
C49 C50 1.383 . S
C50 O44 1.412 . S
C50 C49 1.383 . S
C50 C51 1.394 . S
C51 H41 0.929 . S
C51 C47 1.377 . S
C51 C50 1.394 . S
H52 C59 0.929 . S
H53 C62 0.930 . S
H54 C64 0.929 . S
H55 C56 0.969 . S
C56 H55 0.969 . S
C56 O57 1.550 . S
C56 H58 0.973 . S
O57 C56 1.550 . S
O57 C63 1.412 . S
H58 C56 0.973 . S
C59 H52 0.929 . S
C59 C60 1.400 . S
C59 C61 1.364 . S
C60 C59 1.400 . S
C60 C64 1.377 . S
C61 C59 1.364 . S
C61 C62 1.374 . S
C62 H53 0.930 . S
C62 C61 1.374 . S
C62 C63 1.383 . S
C63 O57 1.412 . S
C63 C62 1.383 . S
C63 C64 1.394 . S
C64 H54 0.929 . S
C64 C60 1.377 . S
C64 C63 1.394 . S
H65 C72 0.929 . S
H66 C75 0.930 . S
H67 C77 0.929 . S
H68 C69 0.969 . S
C69 H68 0.969 . S
C69 O70 1.550 . S
C69 H71 0.973 . S
O70 C69 1.550 . S
O70 C76 1.412 . S
H71 C69 0.973 . S
C72 H65 0.929 . S
C72 C73 1.400 . S
C72 C74 1.364 . S
C73 C72 1.400 . S
C73 C77 1.377 . S
C74 C72 1.364 . S
C74 C75 1.374 . S
C75 H66 0.930 . S
C75 C74 1.374 . S
C75 C76 1.383 . S
C76 O70 1.412 . S
C76 C75 1.383 . S
C76 C77 1.394 . S
C77 H67 0.929 . S
C77 C73 1.377 . S
C77 C76 1.394 . S
H78 C85 0.929 . S
H79 C88 0.930 . S
H80 C90 0.929 . S
H81 C82 0.969 . S
C82 H81 0.969 . S
C82 O83 1.550 . S
C82 H84 0.973 . S
O83 C82 1.550 . S
O83 C89 1.412 . S
H84 C82 0.973 . S
C85 H78 0.929 . S
C85 C86 1.400 . S
C85 C87 1.364 . S
C86 C85 1.400 . S
C86 C90 1.377 . S
C87 C85 1.364 . S
C87 C88 1.374 . S
C88 H79 0.930 . S
C88 C87 1.374 . S
C88 C89 1.383 . S
C89 O83 1.412 . S
C89 C88 1.383 . S
C89 C90 1.394 . S
C90 H80 0.929 . S
C90 C86 1.377 . S
C90 C89 1.394 . S
H91 C98 0.929 . S
H92 C101 0.930 . S
H93 C103 0.929 . S
H94 C95 0.969 . S
C95 H94 0.969 . S
C95 O96 1.550 . S
C95 H97 0.973 . S
O96 C95 1.550 . S
O96 C102 1.412 . S
H97 C95 0.973 . S
C98 H91 0.929 . S
C98 C99 1.400 . S
C98 C100 1.364 . S
C99 C98 1.400 . S
C99 C103 1.377 . S
C100 C98 1.364 . S
C100 C101 1.374 . S
C101 H92 0.930 . S
C101 C100 1.374 . S
C101 C102 1.383 . S
C102 O96 1.412 . S
C102 C101 1.383 . S
C102 C103 1.394 . S
C103 H93 0.929 . S
C103 C99 1.377 . S
C103 C102 1.394 . S
C104 O106 1.247 . S
C104 O108 1.258 . S
C105 O112 1.247 . S
C105 O113 1.258 . S
O106 C104 1.247 . S
O106 Zn107 2.028 1_655 S
Zn107 O106 2.028 1_455 S
Zn107 O111 2.035 . S
Zn107 O113 2.035 . S
Zn107 O114 2.028 1_455 S
O108 C104 1.258 . S
O108 Zn109 2.035 1_655 S
Zn109 O108 2.035 1_455 S
Zn109 O110 2.028 . S
Zn109 O112 2.028 . S
Zn109 O115 2.035 1_455 S
O110 Zn109 2.028 . S
O110 C116 1.247 . S
O111 Zn107 2.035 . S
O111 C116 1.258 . S
O112 C105 1.247 . S
O112 Zn109 2.028 . S
O113 C105 1.258 . S
O113 Zn107 2.035 . S
O114 Zn107 2.028 1_655 S
O114 C117 1.247 . S
O115 Zn109 2.035 1_655 S
O115 C117 1.258 . S
C116 O110 1.247 . S
C116 O111 1.258 . S
C117 O114 1.247 . S
C117 O115 1.258 . S
C118 O120 1.247 1_655 S
C118 O122 1.258 1_655 S
C119 O126 1.247 . S
C119 O127 1.258 . S
O120 C118 1.247 1_455 S
O120 Zn121 2.028 . S
Zn121 O120 2.028 . S
Zn121 O125 2.035 . S
Zn121 O127 2.035 . S
Zn121 O128 2.028 . S
O122 C118 1.258 1_455 S
O122 Zn123 2.035 . S
Zn123 O122 2.035 . S
Zn123 O124 2.028 . S
Zn123 O126 2.028 . S
Zn123 O129 2.035 . S
O124 Zn123 2.028 . S
O124 C130 1.247 . S
O125 Zn121 2.035 . S
O125 C130 1.258 . S
O126 C119 1.247 . S
O126 Zn123 2.028 . S
O127 C119 1.258 . S
O127 Zn121 2.035 . S
O128 Zn121 2.028 . S
O128 C131 1.258 . S
O129 Zn123 2.035 . S
O129 C131 1.273 . S
C130 O124 1.247 . S
C130 O125 1.258 . S
C131 O128 1.258 . S
C131 O129 1.273 . S
C132 O134 1.247 . S
C132 O136 1.258 1_565 S
C133 O140 1.247 . S
C133 O141 1.258 . S
O134 C132 1.247 . S
O134 Zn135 2.028 1_565 S
Zn135 O134 2.028 1_545 S
Zn135 O139 2.035 . S
Zn135 O141 2.035 . S
Zn135 O142 2.028 1_545 S
O136 C132 1.258 1_545 S
O136 Zn137 2.035 . S
Zn137 O136 2.035 . S
Zn137 O138 2.028 . S
Zn137 O140 2.028 . S
Zn137 O143 2.035 . S
O138 Zn137 2.028 . S
O138 C144 1.247 . S
O139 Zn135 2.035 . S
O139 C144 1.258 . S
O140 C133 1.247 . S
O140 Zn137 2.028 . S
O141 C133 1.258 . S
O141 Zn135 2.035 . S
O142 Zn135 2.028 1_565 S
O142 C145 1.247 . S
O143 Zn137 2.035 . S
O143 C145 1.258 1_545 S
C144 O138 1.247 . S
C144 O139 1.258 . S
C145 O142 1.247 . S
C145 O143 1.258 1_565 S
C146 O148 1.247 . S
C146 O150 1.258 . S
C147 O154 1.247 . S
C147 O155 1.258 . S
O148 C146 1.247 . S
O148 Zn149 2.028 . S
Zn149 O148 2.028 . S
Zn149 O153 2.035 . S
Zn149 O155 2.035 . S
Zn149 O156 2.028 . S
O150 C146 1.258 . S
O150 Zn151 2.035 . S
Zn151 O150 2.035 . S
Zn151 O152 2.028 . S
Zn151 O154 2.028 . S
Zn151 O157 2.035 . S
O152 Zn151 2.028 . S
O152 C158 1.247 . S
O153 Zn149 2.035 . S
O153 C158 1.258 . S
O154 C147 1.247 . S
O154 Zn151 2.028 . S
O155 C147 1.258 . S
O155 Zn149 2.035 . S
O156 Zn149 2.028 . S
O156 C159 1.247 . S
O157 Zn151 2.035 . S
O157 C159 1.258 . S
C158 O152 1.247 . S
C158 O153 1.258 . S
C159 O156 1.247 . S
C159 O157 1.258 . S
C160 O162 1.247 . S
C160 O164 1.258 . S
C161 O168 1.247 . S
C161 O169 1.258 . S
O162 C160 1.247 . S
O162 Zn163 2.028 . S
Zn163 O162 2.028 . S
Zn163 O167 2.035 1_565 S
Zn163 O169 2.035 1_565 S
Zn163 O170 2.028 . S
O164 C160 1.258 . S
O164 Zn165 2.035 1_565 S
Zn165 O164 2.035 1_545 S
Zn165 O166 2.028 . S
Zn165 O168 2.028 . S
Zn165 O171 2.035 1_545 S
O166 Zn165 2.028 . S
O166 C172 1.247 . S
O167 Zn163 2.035 1_545 S
O167 C172 1.258 . S
O168 C161 1.247 . S
O168 Zn165 2.028 . S
O169 C161 1.258 . S
O169 Zn163 2.035 1_545 S
O170 Zn163 2.028 . S
O170 C173 1.247 . S
O171 Zn165 2.035 1_565 S
O171 C173 1.258 . S
C172 O166 1.247 . S
C172 O167 1.258 . S
C173 O170 1.247 . S
C173 O171 1.258 . S
C174 O176 1.247 . S
C174 O178 1.258 . S
C175 O182 1.247 . S
C175 O183 1.258 . S
O176 C174 1.247 . S
O176 Zn177 2.028 . S
Zn177 O176 2.028 . S
Zn177 O181 2.035 . S
Zn177 O183 2.035 1_554 S
Zn177 O184 2.028 1_554 S
O178 C174 1.258 . S
O178 Zn179 2.035 1_554 S
Zn179 O178 2.035 1_556 S
Zn179 O180 2.028 1_556 S
Zn179 O182 2.028 . S
Zn179 O185 2.035 . S
O180 Zn179 2.028 1_554 S
O180 C186 1.247 . S
O181 Zn177 2.035 . S
O181 C186 1.258 . S
O182 C175 1.247 . S
O182 Zn179 2.028 . S
O183 C175 1.258 . S
O183 Zn177 2.035 1_556 S
O184 Zn177 2.028 1_556 S
O184 C187 1.247 . S
O185 Zn179 2.035 . S
O185 C187 1.258 . S
C186 O180 1.247 . S
C186 O181 1.258 . S
C187 O184 1.247 . S
C187 O185 1.258 . S
H188 C194 0.930 . S
H189 C198 0.930 . S
H190 C203 0.929 . S
H191 C201 0.929 . S
H192 C196 0.929 . S
H193 C202 0.929 . S
C194 H188 0.930 . S
C194 C195 1.367 . S
C194 C202 1.378 . S
C195 C194 1.367 . S
C195 C203 1.433 . S
C196 H192 0.929 . S
C196 C198 1.378 . S
C196 C200 1.350 . S
C197 C200 1.463 . S
C197 C202 1.350 . S
C197 N205 1.427 . S
C198 H189 0.930 . S
C198 C196 1.378 . S
C198 C199 1.367 . S
C199 C198 1.367 . S
C199 C201 1.433 . S
C200 C196 1.350 . S
C200 C197 1.463 . S
C200 N204 1.427 . S
C201 H191 0.929 . S
C201 C199 1.433 . S
C201 N204 1.384 . S
C202 H193 0.929 . S
C202 C194 1.378 . S
C202 C197 1.350 . S
C203 H190 0.929 . S
C203 C195 1.433 . S
C203 N205 1.384 . S
N204 C200 1.427 . S
N204 C201 1.384 . S
N205 C197 1.427 . S
N205 C203 1.384 . S
H206 C212 0.930 . S
H207 C216 0.930 . S
H208 C221 0.929 . S
H209 C219 0.929 . S
H210 C214 0.929 . S
H211 C220 0.929 . S
C212 H206 0.930 . S
C212 C213 1.367 . S
C212 C220 1.378 . S
C213 C212 1.367 . S
C213 C221 1.433 . S
C214 H210 0.929 . S
C214 C216 1.378 . S
C214 C218 1.350 . S
C215 C218 1.463 . S
C215 C220 1.350 . S
C215 N223 1.427 . S
C216 H207 0.930 . S
C216 C214 1.378 . S
C216 C217 1.367 . S
C217 C216 1.367 . S
C217 C219 1.433 . S
C218 C214 1.350 . S
C218 C215 1.463 . S
C218 N222 1.427 . S
C219 H209 0.929 . S
C219 C217 1.433 . S
C219 N222 1.384 . S
C220 H211 0.929 . S
C220 C212 1.378 . S
C220 C215 1.350 . S
C221 H208 0.929 . S
C221 C213 1.433 . S
C221 N223 1.384 . S
N222 C218 1.427 . S
N222 C219 1.384 . S
N223 C215 1.427 . S
N223 C221 1.384 . S
H224 C230 0.930 . S
H225 C234 0.930 . S
H226 C239 0.929 . S
H227 C237 0.929 . S
H228 C232 0.929 . S
H229 C238 0.929 . S
C230 H224 0.930 . S
C230 C231 1.367 . S
C230 C238 1.378 . S
C231 C230 1.367 . S
C231 C239 1.433 . S
C232 H228 0.929 . S
C232 C234 1.378 . S
C232 C236 1.350 . S
C233 C236 1.463 . S
C233 C238 1.350 . S
C233 N241 1.427 . S
C234 H225 0.930 . S
C234 C232 1.378 . S
C234 C235 1.367 . S
C235 C234 1.367 . S
C235 C237 1.433 . S
C236 C232 1.350 . S
C236 C233 1.463 . S
C236 N240 1.427 . S
C237 H227 0.929 . S
C237 C235 1.433 . S
C237 N240 1.384 . S
C238 H229 0.929 . S
C238 C230 1.378 . S
C238 C233 1.350 . S
C239 H226 0.929 . S
C239 C231 1.433 . S
C239 N241 1.384 . S
N240 C236 1.427 . S
N240 C237 1.384 . S
N241 C233 1.427 . S
N241 C239 1.384 . S
H242 C248 0.930 . S
H243 C252 0.930 . S
H244 C257 0.929 . S
H245 C255 0.929 . S
H246 C250 0.929 . S
H247 C256 0.929 . S
C248 H242 0.930 . S
C248 C249 1.367 . S
C248 C256 1.378 . S
C249 C248 1.367 . S
C249 C257 1.433 . S
C250 H246 0.929 . S
C250 C252 1.378 . S
C250 C254 1.350 . S
C251 C254 1.463 . S
C251 C256 1.350 . S
C251 N259 1.427 . S
C252 H243 0.930 . S
C252 C250 1.378 . S
C252 C253 1.367 . S
C253 C252 1.367 . S
C253 C255 1.433 . S
C254 C250 1.350 . S
C254 C251 1.463 . S
C254 N258 1.427 . S
C255 H245 0.929 . S
C255 C253 1.433 . S
C255 N258 1.384 . S
C256 H247 0.929 . S
C256 C248 1.378 . S
C256 C251 1.350 . S
C257 H244 0.929 . S
C257 C249 1.433 . S
C257 N259 1.384 . S
N258 C254 1.427 . S
N258 C255 1.384 . S
N259 C251 1.427 . S
N259 C257 1.384 . S
H260 C266 0.930 . S
H261 C270 0.930 . S
H262 C275 0.929 . S
H263 C273 0.929 . S
H264 C268 0.929 . S
H265 C274 0.929 . S
C266 H260 0.930 . S
C266 C267 1.367 . S
C266 C274 1.378 . S
C267 C266 1.367 . S
C267 C275 1.433 . S
C268 H264 0.929 . S
C268 C270 1.378 . S
C268 C272 1.350 . S
C269 C272 1.463 . S
C269 C274 1.350 . S
C269 N277 1.427 . S
C270 H261 0.930 . S
C270 C268 1.378 . S
C270 C271 1.367 . S
C271 C270 1.367 . S
C271 C273 1.433 . S
C272 C268 1.350 . S
C272 C269 1.463 . S
C272 N276 1.427 . S
C273 H263 0.929 . S
C273 C271 1.433 . S
C273 N276 1.384 . S
C274 H265 0.929 . S
C274 C266 1.378 . S
C274 C269 1.350 . S
C275 H262 0.929 . S
C275 C267 1.433 . S
C275 N277 1.384 . S
N276 C272 1.427 . S
N276 C273 1.384 . S
N277 C269 1.427 . S
N277 C275 1.384 . S
H278 C284 0.930 . S
H279 C288 0.930 . S
H280 C293 0.929 . S
H281 C291 0.929 . S
H282 C286 0.929 . S
H283 C292 0.929 . S
C284 H278 0.930 . S
C284 C285 1.367 . S
C284 C292 1.378 . S
C285 C284 1.367 . S
C285 C293 1.433 . S
C286 H282 0.929 . S
C286 C288 1.378 1_556 S
C286 C290 1.350 . S
C287 C290 1.463 . S
C287 C292 1.350 . S
C287 N295 1.427 . S
C288 H279 0.930 . S
C288 C286 1.378 1_554 S
C288 C289 1.367 . S
C289 C288 1.367 . S
C289 C291 1.433 1_554 S
C290 C286 1.350 . S
C290 C287 1.463 . S
C290 N294 1.427 . S
C291 H281 0.929 . S
C291 C289 1.433 1_556 S
C291 N294 1.384 . S
C292 H283 0.929 . S
C292 C284 1.378 . S
C292 C287 1.350 . S
C293 H280 0.929 . S
C293 C285 1.433 . S
C293 N295 1.384 . S
N294 C290 1.427 . S
N294 C291 1.384 . S
N295 C287 1.427 . S
N295 C293 1.384 . S
H296 C302 0.930 . S
H297 C306 0.930 . S
H298 C311 0.929 . S
H299 C309 0.929 . S
H300 C304 0.929 . S
H301 C310 0.929 . S
C302 H296 0.930 . S
C302 C303 1.367 . S
C302 C310 1.378 . S
C303 C302 1.367 . S
C303 C311 1.433 . S
C304 H300 0.929 . S
C304 C306 1.378 . S
C304 C308 1.350 . S
C305 C308 1.463 . S
C305 C310 1.350 . S
C305 N313 1.427 . S
C306 H297 0.930 . S
C306 C304 1.378 . S
C306 C307 1.367 . S
C307 C306 1.367 . S
C307 C309 1.433 . S
C308 C304 1.350 . S
C308 C305 1.463 . S
C308 N312 1.427 . S
C309 H299 0.929 . S
C309 C307 1.433 . S
C309 N312 1.384 . S
C310 H301 0.929 . S
C310 C302 1.378 . S
C310 C305 1.350 . S
C311 H298 0.929 . S
C311 C303 1.433 . S
C311 N313 1.384 . S
N312 C308 1.427 . S
N312 C309 1.384 . S
N313 C305 1.427 . S
N313 C311 1.384 . S
H314 C320 0.930 . S
H315 C324 0.930 . S
H316 C329 0.929 . S
H317 C327 0.929 . S
H318 C322 0.929 . S
H319 C328 0.929 . S
C320 H314 0.930 . S
C320 C321 1.367 . S
C320 C328 1.378 . S
C321 C320 1.367 . S
C321 C329 1.433 . S
C322 H318 0.929 . S
C322 C324 1.378 . S
C322 C326 1.350 . S
C323 C326 1.463 . S
C323 C328 1.350 . S
C323 N331 1.427 . S
C324 H315 0.930 . S
C324 C322 1.378 . S
C324 C325 1.367 . S
C325 C324 1.367 . S
C325 C327 1.433 . S
C326 C322 1.350 . S
C326 C323 1.463 . S
C326 N330 1.427 . S
C327 H317 0.929 . S
C327 C325 1.433 . S
C327 N330 1.384 . S
C328 H319 0.929 . S
C328 C320 1.378 . S
C328 C323 1.350 . S
C329 H316 0.929 . S
C329 C321 1.433 . S
C329 N331 1.384 . S
N330 C326 1.427 . S
N330 C327 1.384 . S
N331 C323 1.427 . S
N331 C329 1.384 . S
H332 C338 0.930 . S
H333 C342 0.930 . S
H334 C347 0.929 . S
H335 C345 0.929 . S
H336 C340 0.929 . S
H337 C346 0.929 . S
C338 H332 0.930 . S
C338 C339 1.367 . S
C338 C346 1.378 . S
C339 C338 1.367 . S
C339 C347 1.433 . S
C340 H336 0.929 . S
C340 C342 1.378 . S
C340 C344 1.350 . S
C341 C344 1.463 . S
C341 C346 1.350 . S
C341 N349 1.427 . S
C342 H333 0.930 . S
C342 C340 1.378 . S
C342 C343 1.367 . S
C343 C342 1.367 . S
C343 C345 1.433 . S
C344 C340 1.350 . S
C344 C341 1.463 . S
C344 N348 1.427 . S
C345 H335 0.929 . S
C345 C343 1.433 . S
C345 N348 1.384 . S
C346 H337 0.929 . S
C346 C338 1.378 . S
C346 C341 1.350 . S
C347 H334 0.929 . S
C347 C339 1.433 . S
C347 N349 1.384 . S
N348 C344 1.427 . S
N348 C345 1.384 . S
N349 C341 1.427 . S
N349 C347 1.384 . S
H350 C356 0.930 . S
H351 C360 0.930 . S
H352 C365 0.929 . S
H353 C363 0.929 . S
H354 C358 0.929 . S
H355 C364 0.929 . S
C356 H350 0.930 . S
C356 C357 1.367 . S
C356 C364 1.378 . S
C357 C356 1.367 . S
C357 C365 1.433 . S
C358 H354 0.929 . S
C358 C360 1.378 . S
C358 C362 1.350 . S
C359 C362 1.463 . S
C359 C364 1.350 . S
C359 N367 1.427 . S
C360 H351 0.930 . S
C360 C358 1.378 . S
C360 C361 1.367 . S
C361 C360 1.367 . S
C361 C363 1.433 . S
C362 C358 1.350 . S
C362 C359 1.463 . S
C362 N366 1.427 . S
C363 H353 0.929 . S
C363 C361 1.433 . S
C363 N366 1.384 . S
C364 H355 0.929 . S
C364 C356 1.378 . S
C364 C359 1.350 . S
C365 H352 0.929 . S
C365 C357 1.433 . S
C365 N367 1.384 . S
N366 C362 1.427 . S
N366 C363 1.384 . S
N367 C359 1.427 . S
N367 C365 1.384 . S
H368 C374 0.930 . S
H369 C378 0.930 . S
H370 C383 0.929 . S
H371 C381 0.929 . S
H372 C376 0.929 . S
H373 C382 0.929 . S
C374 H368 0.930 . S
C374 C375 1.367 . S
C374 C382 1.378 . S
C375 C374 1.367 . S
C375 C383 1.433 . S
C376 H372 0.929 . S
C376 C378 1.378 . S
C376 C380 1.350 . S
C377 C380 1.463 . S
C377 C382 1.350 . S
C377 N385 1.427 . S
C378 H369 0.930 . S
C378 C376 1.378 . S
C378 C379 1.367 . S
C379 C378 1.367 . S
C379 C381 1.433 . S
C380 C376 1.350 . S
C380 C377 1.463 . S
C380 N384 1.427 . S
C381 H371 0.929 . S
C381 C379 1.433 . S
C381 N384 1.384 . S
C382 H373 0.929 . S
C382 C374 1.378 . S
C382 C377 1.350 . S
C383 H370 0.929 . S
C383 C375 1.433 . S
C383 N385 1.384 . S
N384 C380 1.427 . S
N384 C381 1.384 . S
N385 C377 1.427 . S
N385 C383 1.384 . S
H386 C392 0.930 . S
H387 C396 0.930 . S
H388 C401 0.929 . S
H389 C399 0.929 . S
H390 C394 0.929 . S
H391 C400 0.929 . S
C392 H386 0.930 . S
C392 C393 1.367 . S
C392 C400 1.378 . S
C393 C392 1.367 . S
C393 C401 1.433 . S
C394 H390 0.929 . S
C394 C396 1.378 . S
C394 C398 1.350 . S
C395 C398 1.463 . S
C395 C400 1.350 . S
C395 N403 1.427 . S
C396 H387 0.930 . S
C396 C394 1.378 . S
C396 C397 1.367 . S
C397 C396 1.367 . S
C397 C399 1.433 . S
C398 C394 1.350 . S
C398 C395 1.463 . S
C398 N402 1.427 . S
C399 H389 0.929 . S
C399 C397 1.433 . S
C399 N402 1.384 . S
C400 H391 0.929 . S
C400 C392 1.378 . S
C400 C395 1.350 . S
C401 H388 0.929 . S
C401 C393 1.433 . S
C401 N403 1.384 . S
N402 C398 1.427 . S
N402 C399 1.384 . S
N403 C395 1.427 . S
N403 C401 1.384 . S
H404 C410 0.930 . S
H405 C414 0.930 1_455 S
H406 C419 0.929 . S
H407 C417 0.929 . S
H408 C412 0.929 . S
H409 C418 0.929 . S
C410 H404 0.930 . S
C410 C411 1.367 . S
C410 C418 1.378 . S
C411 C410 1.367 . S
C411 C419 1.433 . S
C412 H408 0.929 . S
C412 C414 1.378 . S
C412 C416 1.350 . S
C413 C416 1.463 . S
C413 C418 1.350 . S
C413 N421 1.427 . S
C414 H405 0.930 1_655 S
C414 C412 1.378 . S
C414 C415 1.367 . S
C415 C414 1.367 . S
C415 C417 1.433 . S
C416 C412 1.350 . S
C416 C413 1.463 . S
C416 N420 1.427 . S
C417 H407 0.929 . S
C417 C415 1.433 . S
C417 N420 1.384 . S
C418 H409 0.929 . S
C418 C410 1.378 . S
C418 C413 1.350 . S
C419 H406 0.929 . S
C419 C411 1.433 . S
C419 N421 1.384 . S
N420 C416 1.427 . S
N420 C417 1.384 . S
N421 C413 1.427 . S
N421 C419 1.384 . S
H422 C428 0.930 . S
H423 C432 0.930 . S
H424 C437 0.929 . S
H425 C435 0.929 . S
H426 C430 0.929 . S
H427 C436 0.929 . S
C428 H422 0.930 . S
C428 C429 1.367 . S
C428 C436 1.378 . S
C429 C428 1.367 . S
C429 C437 1.433 . S
C430 H426 0.929 . S
C430 C432 1.378 . S
C430 C434 1.350 . S
C431 C434 1.463 . S
C431 C436 1.350 . S
C431 N439 1.427 . S
C432 H423 0.930 . S
C432 C430 1.378 . S
C432 C433 1.367 . S
C433 C432 1.367 . S
C433 C435 1.433 . S
C434 C430 1.350 . S
C434 C431 1.463 . S
C434 N438 1.427 . S
C435 H425 0.929 . S
C435 C433 1.433 . S
C435 N438 1.384 . S
C436 H427 0.929 . S
C436 C428 1.378 . S
C436 C431 1.350 . S
C437 H424 0.929 . S
C437 C429 1.433 . S
C437 N439 1.384 . S
N438 C434 1.427 . S
N438 C435 1.384 . S
N439 C431 1.427 . S
N439 C437 1.384 . S
H440 C446 0.930 . S
H441 C450 0.930 . S
H442 C455 0.929 . S
H443 C453 0.929 . S
H444 C448 0.929 . S
H445 C454 0.929 . S
C446 H440 0.930 . S
C446 C447 1.367 . S
C446 C454 1.378 . S
C447 C446 1.367 . S
C447 C455 1.433 . S
C448 H444 0.929 . S
C448 C450 1.378 . S
C448 C452 1.350 . S
C449 C452 1.463 . S
C449 C454 1.350 . S
C449 N457 1.427 . S
C450 H441 0.930 . S
C450 C448 1.378 . S
C450 C451 1.367 . S
C451 C450 1.367 . S
C451 C453 1.433 . S
C452 C448 1.350 . S
C452 C449 1.463 . S
C452 N456 1.427 . S
C453 H443 0.929 . S
C453 C451 1.433 . S
C453 N456 1.384 . S
C454 H445 0.929 . S
C454 C446 1.378 . S
C454 C449 1.350 . S
C455 H442 0.929 . S
C455 C447 1.433 . S
C455 N457 1.384 . S
N456 C452 1.427 . S
N456 C453 1.384 . S
N457 C449 1.427 . S
N457 C455 1.384 . S
H458 C464 0.930 . S
H459 C468 0.930 . S
H460 C473 0.929 . S
H461 C471 0.929 . S
H462 C466 0.929 . S
H463 C472 0.929 . S
C464 H458 0.930 . S
C464 C465 1.367 . S
C464 C472 1.378 . S
C465 C464 1.367 . S
C465 C473 1.433 . S
C466 H462 0.929 . S
C466 C468 1.378 . S
C466 C470 1.350 . S
C467 C470 1.463 . S
C467 C472 1.350 . S
C467 N475 1.427 . S
C468 H459 0.930 . S
C468 C466 1.378 . S
C468 C469 1.367 . S
C469 C468 1.367 . S
C469 C471 1.433 . S
C470 C466 1.350 . S
C470 C467 1.463 . S
C470 N474 1.427 . S
C471 H461 0.929 . S
C471 C469 1.433 . S
C471 N474 1.384 . S
C472 H463 0.929 . S
C472 C464 1.378 . S
C472 C467 1.350 . S
C473 H460 0.929 . S
C473 C465 1.433 . S
C473 N475 1.384 . S
N474 C470 1.427 . S
N474 C471 1.384 . S
N475 C467 1.427 . S
N475 C473 1.384 . S
H476 C482 0.930 . S
H477 C486 0.930 . S
H478 C491 0.929 . S
H479 C489 0.929 . S
H480 C484 0.929 . S
H481 C490 0.929 . S
C482 H476 0.930 . S
C482 C483 1.367 . S
C482 C490 1.378 . S
C483 C482 1.367 . S
C483 C491 1.433 . S
C484 H480 0.929 . S
C484 C486 1.378 . S
C484 C488 1.350 . S
C485 C488 1.463 . S
C485 C490 1.350 . S
C485 N493 1.427 . S
C486 H477 0.930 . S
C486 C484 1.378 . S
C486 C487 1.367 . S
C487 C486 1.367 . S
C487 C489 1.433 . S
C488 C484 1.350 . S
C488 C485 1.463 . S
C488 N492 1.427 . S
C489 H479 0.929 . S
C489 C487 1.433 . S
C489 N492 1.384 . S
C490 H481 0.929 . S
C490 C482 1.378 . S
C490 C485 1.350 . S
C491 H478 0.929 . S
C491 C483 1.433 . S
C491 N493 1.384 . S
N492 C488 1.427 . S
N492 C489 1.384 . S
N493 C485 1.427 . S
N493 C491 1.384 . S
H494 C500 0.930 . S
H495 C504 0.930 . S
H496 C509 0.929 . S
H497 C507 0.929 . S
H498 C502 0.929 . S
H499 C508 0.929 . S
C500 H494 0.930 . S
C500 C501 1.367 . S
C500 C508 1.378 . S
C501 C500 1.367 . S
C501 C509 1.433 . S
C502 H498 0.929 . S
C502 C504 1.378 . S
C502 C506 1.350 . S
C503 C506 1.463 . S
C503 C508 1.350 . S
C503 N511 1.427 . S
C504 H495 0.930 . S
C504 C502 1.378 . S
C504 C505 1.367 . S
C505 C504 1.367 . S
C505 C507 1.433 . S
C506 C502 1.350 . S
C506 C503 1.463 . S
C506 N510 1.427 . S
C507 H497 0.929 . S
C507 C505 1.433 . S
C507 N510 1.384 . S
C508 H499 0.929 . S
C508 C500 1.378 . S
C508 C503 1.350 . S
C509 H496 0.929 . S
C509 C501 1.433 . S
C509 N511 1.384 . S
N510 C506 1.427 . S
N510 C507 1.384 . S
N511 C503 1.427 . S
N511 C509 1.384 . S
H512 C518 0.930 . S
H513 C522 0.930 . S
H514 C527 0.929 . S
H515 C525 0.929 . S
H516 C520 0.929 . S
H517 C526 0.929 . S
C518 H512 0.930 . S
C518 C519 1.367 . S
C518 C526 1.378 . S
C519 C518 1.367 . S
C519 C527 1.433 . S
C520 H516 0.929 . S
C520 C522 1.378 . S
C520 C524 1.350 . S
C521 C524 1.463 . S
C521 C526 1.350 . S
C521 N529 1.427 . S
C522 H513 0.930 . S
C522 C520 1.378 . S
C522 C523 1.367 . S
C523 C522 1.367 . S
C523 C525 1.433 . S
C524 C520 1.350 . S
C524 C521 1.463 . S
C524 N528 1.427 . S
C525 H515 0.929 . S
C525 C523 1.433 . S
C525 N528 1.384 . S
C526 H517 0.929 . S
C526 C518 1.378 . S
C526 C521 1.350 . S
C527 H514 0.929 . S
C527 C519 1.433 . S
C527 N529 1.384 . S
N528 C524 1.427 . S
N528 C525 1.384 . S
N529 C521 1.427 . S
N529 C527 1.384 . S
H530 C536 0.930 . S
H531 C540 0.930 . S
H532 C545 0.929 . S
H533 C543 0.929 . S
H534 C538 0.929 . S
H535 C544 0.929 . S
C536 H530 0.930 . S
C536 C537 1.367 . S
C536 C544 1.378 . S
C537 C536 1.367 . S
C537 C545 1.433 . S
C538 H534 0.929 . S
C538 C540 1.378 . S
C538 C542 1.350 . S
C539 C542 1.463 . S
C539 C544 1.350 . S
C539 N547 1.427 . S
C540 H531 0.930 . S
C540 C538 1.378 . S
C540 C541 1.367 . S
C541 C540 1.367 . S
C541 C543 1.433 . S
C542 C538 1.350 . S
C542 C539 1.463 . S
C542 N546 1.427 . S
C543 H533 0.929 . S
C543 C541 1.433 . S
C543 N546 1.384 . S
C544 H535 0.929 . S
C544 C536 1.378 . S
C544 C539 1.350 . S
C545 H532 0.929 . S
C545 C537 1.433 . S
C545 N547 1.384 . S
N546 C542 1.427 . S
N546 C543 1.384 . S
N547 C539 1.427 . S
N547 C545 1.384 . S
H548 C554 0.930 . S
H549 C558 0.930 . S
H550 C563 0.929 . S
H551 C561 0.929 . S
H552 C556 0.929 . S
H553 C562 0.929 . S
C554 H548 0.930 . S
C554 C555 1.367 . S
C554 C562 1.378 . S
C555 C554 1.367 . S
C555 C563 1.433 . S
C556 H552 0.929 . S
C556 C558 1.378 . S
C556 C560 1.350 . S
C557 C560 1.463 . S
C557 C562 1.350 . S
C557 N565 1.427 . S
C558 H549 0.930 . S
C558 C556 1.378 . S
C558 C559 1.367 . S
C559 C558 1.367 . S
C559 C561 1.433 . S
C560 C556 1.350 . S
C560 C557 1.463 . S
C560 N564 1.427 . S
C561 H551 0.929 . S
C561 C559 1.433 . S
C561 N564 1.384 . S
C562 H553 0.929 . S
C562 C554 1.378 . S
C562 C557 1.350 . S
C563 H550 0.929 . S
C563 C555 1.433 . S
C563 N565 1.384 . S
N564 C560 1.427 . S
N564 C561 1.384 . S
N565 C557 1.427 . S
N565 C563 1.384 . S
H566 C572 0.930 . S
H567 C576 0.930 . S
H568 C581 0.929 . S
H569 C579 0.929 . S
H570 C574 0.929 . S
H571 C580 0.929 . S
C572 H566 0.930 . S
C572 C573 1.367 . S
C572 C580 1.378 . S
C573 C572 1.367 . S
C573 C581 1.433 . S
C574 H570 0.929 . S
C574 C576 1.378 . S
C574 C578 1.350 . S
C575 C578 1.463 . S
C575 C580 1.350 . S
C575 N583 1.427 . S
C576 H567 0.930 . S
C576 C574 1.378 . S
C576 C577 1.367 . S
C577 C576 1.367 . S
C577 C579 1.433 . S
C578 C574 1.350 . S
C578 C575 1.463 . S
C578 N582 1.427 . S
C579 H569 0.929 . S
C579 C577 1.433 . S
C579 N582 1.384 . S
C580 H571 0.929 . S
C580 C572 1.378 . S
C580 C575 1.350 . S
C581 H568 0.929 . S
C581 C573 1.433 . S
C581 N583 1.384 . S
N582 C578 1.427 . S
N582 C579 1.384 . S
N583 C575 1.427 . S
N583 C581 1.384 . S
H584 C590 0.930 . S
H585 C594 0.930 . S
H586 C599 0.929 . S
H587 C597 0.929 . S
H588 C592 0.929 . S
H589 C598 0.929 . S
C590 H584 0.930 . S
C590 C591 1.367 . S
C590 C598 1.378 . S
C591 C590 1.367 . S
C591 C599 1.433 . S
C592 H588 0.929 . S
C592 C594 1.378 . S
C592 C596 1.350 . S
C593 C596 1.463 . S
C593 C598 1.350 . S
C593 N601 1.427 . S
C594 H585 0.930 . S
C594 C592 1.378 . S
C594 C595 1.367 . S
C595 C594 1.367 . S
C595 C597 1.433 . S
C596 C592 1.350 . S
C596 C593 1.463 . S
C596 N600 1.427 . S
C597 H587 0.929 . S
C597 C595 1.433 . S
C597 N600 1.384 . S
C598 H589 0.929 . S
C598 C590 1.378 . S
C598 C593 1.350 . S
C599 H586 0.929 . S
C599 C591 1.433 . S
C599 N601 1.384 . S
N600 C596 1.427 . S
N600 C597 1.384 . S
N601 C593 1.427 . S
N601 C599 1.384 . S
H602 C608 0.930 . S
H603 C612 0.930 . S
H604 C617 0.929 . S
H605 C615 0.929 . S
H606 C610 0.929 . S
H607 C616 0.929 . S
C608 H602 0.930 . S
C608 C609 1.367 . S
C608 C616 1.378 . S
C609 C608 1.367 . S
C609 C617 1.433 . S
C610 H606 0.929 . S
C610 C612 1.378 . S
C610 C614 1.350 . S
C611 C614 1.463 . S
C611 C616 1.350 . S
C611 N619 1.427 . S
C612 H603 0.930 . S
C612 C610 1.378 . S
C612 C613 1.367 . S
C613 C612 1.367 . S
C613 C615 1.433 . S
C614 C610 1.350 . S
C614 C611 1.463 . S
C614 N618 1.427 . S
C615 H605 0.929 . S
C615 C613 1.433 . S
C615 N618 1.384 . S
C616 H607 0.929 . S
C616 C608 1.378 . S
C616 C611 1.350 . S
C617 H604 0.929 . S
C617 C609 1.433 . S
C617 N619 1.384 . S
N618 C614 1.427 . S
N618 C615 1.384 . S
N619 C611 1.427 . S
N619 C617 1.384 . S
C199 C116 1.641 . S
C195 C8 1.652 . S
C217 C119 1.569 . S
C213 C22 1.559 . S
C235 C117 1.581 . S
C231 C30 1.579 . S
C253 C118 1.390 . S
C249 C47 1.388 . S
C271 C133 1.691 . S
C267 C9 1.701 . S
C289 C147 1.644 . S
C285 C17 1.604 . S
C303 C34 1.524 . S
C307 C173 1.512 . S
C325 C187 1.604 . S
C321 C48 1.602 . S
C343 C132 1.707 . S
C339 C21 1.725 . S
C357 C35 1.648 . S
C361 C146 1.673 . S
C379 C172 1.369 . S
C375 C43 1.318 . S
C397 C186 1.593 . S
C393 C4 1.566 . S
C411 C56 1.401 . S
C415 C131 1.429 1_655 S
C433 C104 1.591 . S
C429 C73 1.595 . S
C447 C87 1.594 . S
C451 C130 1.596 . S
C465 C100 1.731 . S
C469 C105 1.714 . S
C487 C160 1.617 . S
C483 C60 1.626 . S
C505 C174 1.487 . S
C501 C69 1.415 . S
C523 C144 1.783 . S
C519 C86 1.810 . S
C537 C95 1.425 . S
C541 C158 1.495 . S
C559 C161 1.613 . S
C555 C74 1.618 . S
C577 C175 1.487 . S
C573 C82 1.430 . S
C595 C145 1.846 . S
C591 C99 1.865 . S
C609 C61 1.542 . S
C613 C159 1.556 1_556 S
