# Generated by pormake.
# Topology pth, (4,4)-cn, num edge types: 1
# Building blocks:
#     Node 0, Type 0, BuildingBlock: QUQFOY_clean_sbu_1, # of connection points: 4
#     Node 1, Type 0, BuildingBlock: QUQFOY_clean_sbu_1, # of connection points: 4
#     Node 2, Type 0, BuildingBlock: QUQFOY_clean_sbu_1, # of connection points: 4
#     Node 3, Type 1, BuildingBlock: NAWXER_clean_linker_0, # of connection points: 4
#     Node 4, Type 1, BuildingBlock: NAWXER_clean_linker_0, # of connection points: 4
#     Node 5, Type 1, BuildingBlock: NAWXER_clean_linker_0, # of connection points: 4
#     Edge 6, Type (0, 1), BuildingBlock: OJICUG_clean_linker_0, # of connection points: 2
#     Edge 7, Type (0, 1), BuildingBlock: OJICUG_clean_linker_0, # of connection points: 2
#     Edge 8, Type (0, 1), BuildingBlock: OJICUG_clean_linker_0, # of connection points: 2
#     Edge 9, Type (0, 1), BuildingBlock: OJICUG_clean_linker_0, # of connection points: 2
#     Edge 10, Type (0, 1), BuildingBlock: OJICUG_clean_linker_0, # of connection points: 2
#     Edge 11, Type (0, 1), BuildingBlock: OJICUG_clean_linker_0, # of connection points: 2
#     Edge 12, Type (0, 1), BuildingBlock: OJICUG_clean_linker_0, # of connection points: 2
#     Edge 13, Type (0, 1), BuildingBlock: OJICUG_clean_linker_0, # of connection points: 2
#     Edge 14, Type (0, 1), BuildingBlock: OJICUG_clean_linker_0, # of connection points: 2
#     Edge 15, Type (0, 1), BuildingBlock: OJICUG_clean_linker_0, # of connection points: 2
#     Edge 16, Type (0, 1), BuildingBlock: OJICUG_clean_linker_0, # of connection points: 2
#     Edge 17, Type (0, 1), BuildingBlock: OJICUG_clean_linker_0, # of connection points: 2
# Relax obj value: 0.024
# Max RMSD: 0.124
# Mean RMSD: 0.071
data_MOF--net-pth--node1-QUQFOY_clean_sbu_1--node2-NAWXER_clean_linker_0--edge1-OJICUG_clean_linker_0
_symmetry_space_group_name_H-M    P1
_symmetry_Int_Tables_number       1
_symmetry_cell_setting            triclinic
loop_
_symmetry_equiv_pos_as_xyz
'x, y, z'
_cell_length_a     22.415411
_cell_length_b     23.686725
_cell_length_c     51.116207
_cell_angle_alpha  89.849431
_cell_angle_beta   90.166835
_cell_angle_gamma 120.16514
loop_
_atom_site_label
_atom_site_type_symbol
_atom_site_fract_x
_atom_site_fract_y
_atom_site_fract_z
_atom_type_partial_charge
O0 O 0.03379 0.09503 0.03076 0.0
Cd1 Cd 0.95541 0.03835 0.05616 0.0
Cd2 Cd 0.02832 0.9787 0.05996 0.0
O3 O 0.10696 0.06472 0.04428 0.0
O4 O 0.91581 0.09412 0.06559 0.0
O5 O 0.96837 0.06348 0.09422 0.0
C6 C 0.93915 0.09738 0.08898 0.0
C7 C 0.04516 0.92137 0.09363 0.0
C8 C 0.09377 0.10206 0.03059 0.0
C9 C 0.89204 0.91066 0.03115 0.0
O10 O 0.95102 0.91661 0.03479 0.0
O11 O 0.87808 0.95187 0.041 0.0
O12 O 0.06921 0.92445 0.07047 0.0
O13 O 0.01571 0.95524 0.09831 0.0
O14 O 0.92891 0.04726 0.41621 0.0
Cd15 Cd 0.0057 0.06177 0.39046 0.0
Cd16 Cd 0.93939 0.93176 0.39202 0.0
O17 O 0.86306 0.94097 0.41053 0.0
O18 O 0.04336 0.15188 0.37646 0.0
O19 O -0.01589 0.06296 0.35232 0.0
C20 C 0.01499 0.12579 0.3544 0.0
C21 C 0.91752 0.85464 0.35952 0.0
C22 C 0.8732 0.99411 0.42064 0.0
C23 C 0.0799 0.00468 0.41705 0.0
O24 O 0.02319 0.9514 0.41475 0.0
O25 O 0.0877 0.05635 0.40624 0.0
O26 O 0.90058 0.83774 0.38356 0.0
O27 O 0.94298 0.91551 0.35352 0.0
O28 O 0.88229 0.96691 0.70219 0.0
Cd29 Cd 0.94948 0.94991 0.72364 0.0
Cd30 Cd 0.01845 0.07883 0.72577 0.0
O31 O 0.93002 0.07213 0.71033 0.0
O32 O 0.89365 0.85627 0.73372 0.0
O33 O 0.9347 0.93671 0.76253 0.0
C34 C 0.89787 0.87497 0.75766 0.0
C35 C 0.07415 0.13908 0.76287 0.0
C36 C 0.8821 0.02024 0.70002 0.0
C37 C 0.08162 0.01619 0.69434 0.0
O38 O 0.08147 0.06856 0.6995 0.0
O39 O 0.03583 0.96216 0.70408 0.0
O40 O 0.07397 0.16741 0.74131 0.0
O41 O 0.03961 0.07602 0.7638 0.0
C42 C 0.94431 0.28251 0.26146 0.0
C43 C -0.00956 0.30241 0.28281 0.0
C44 C 0.93526 0.32804 0.24705 0.0
C45 C 0.97443 0.39506 0.25281 0.0
C46 C 0.02677 0.36929 0.28928 0.0
C47 C 0.01928 0.41483 0.27438 0.0
C48 C 0.96902 0.44558 0.23728 0.0
C49 C 0.009 0.32665 0.17712 0.0
C50 C 0.95092 0.29186 0.16082 0.0
C51 C 0.01518 0.37742 0.19302 0.0
C52 C 0.96331 0.39411 0.19295 0.0
C53 C 0.89926 0.30907 0.16094 0.0
C54 C 0.90577 0.36 0.17663 0.0
C55 C 0.96783 0.44694 0.20963 0.0
C56 C 0.04124 0.72568 0.18891 0.0
C57 C 0.00982 0.71661 0.16431 0.0
C58 C 0.02897 0.67173 0.20417 0.0
C59 C 0.98298 0.60774 0.19553 0.0
C60 C 0.96484 0.65285 0.15546 0.0
C61 C 0.95141 0.59903 0.17094 0.0
C62 C 0.9717 0.54966 0.21083 0.0
C63 C 0.90278 0.65717 0.26352 0.0
C64 C 0.93627 0.67627 0.28784 0.0
C65 C 0.9121 0.61451 0.24743 0.0
C66 C 0.95698 0.59193 0.25496 0.0
C67 C 0.97989 0.65263 0.29562 0.0
C68 C -0.0098 0.61101 0.27935 0.0
C69 C 0.96641 0.54544 0.23844 0.0
H70 H 0.91519 0.23179 0.25565 0.0
H71 H 0.89745 0.31043 0.23146 0.0
H72 H 0.06071 0.38694 0.30608 0.0
H73 H 0.04911 0.46595 0.27971 0.0
H74 H 0.05033 0.31555 0.17723 0.0
H75 H 0.0604 0.40375 0.2053 0.0
H76 H 0.85333 0.28287 0.14902 0.0
H77 H 0.86516 0.37214 0.17634 0.0
H78 H 0.07694 0.7744 0.19594 0.0
H79 H 0.05657 0.68023 0.22248 0.0
H80 H 0.93998 0.64469 0.13653 0.0
H81 H 0.9165 0.55043 0.16359 0.0
H82 H 0.86807 0.67394 0.25726 0.0
H83 H 0.88347 0.59862 0.22925 0.0
H84 H 0.00651 0.66682 0.31427 0.0
H85 H 0.02441 0.59384 0.28582 0.0
N86 N 0.96729 0.49456 0.2505 0.0
N87 N 0.97006 0.49918 0.19757 0.0
C88 C 0.70429 0.04473 0.51502 0.0
C89 C 0.68129 0.99605 0.49563 0.0
C90 C 0.65733 0.04822 0.53191 0.0
C91 C 0.58661 1.00241 0.53002 0.0
C92 C 0.61059 0.94972 0.49411 0.0
C93 C 0.56385 0.95298 0.51109 0.0
C94 C 0.53486 0.00943 0.54532 0.0
C95 C 0.66044 0.97835 0.60704 0.0
C96 C 0.68856 0.0264 0.6267 0.0
C97 C 0.61345 0.9778 0.58888 0.0
C98 C 0.59469 0.0261 0.58966 0.0
C99 C 0.66977 0.07475 0.62734 0.0
C100 C 0.62329 0.07449 0.60905 0.0
C101 C 0.54003 0.023 0.5724 0.0
C102 C 0.2615 0.97762 0.60061 0.0
C103 C 0.28093 0.02533 0.6202 0.0
C104 C 0.31084 0.97871 0.58363 0.0
C105 C 0.38038 0.02783 0.58582 0.0
C106 C 0.3504 0.07491 0.62206 0.0
C107 C 0.39961 0.07592 0.60513 0.0
C108 C 0.43458 0.02504 0.57048 0.0
C109 C 0.31012 0.05828 0.50895 0.0
C110 C 0.28132 0.00989 0.48948 0.0
C111 C 0.35712 0.05851 0.52707 0.0
C112 C 0.37569 0.01004 0.52614 0.0
C113 C 0.30017 0.96161 0.48863 0.0
C114 C 0.34698 0.96185 0.5067 0.0
C115 C 0.43009 0.0126 0.54336 0.0
H116 H 0.75852 0.08078 0.5169 0.0
H117 H 0.67611 0.08794 0.54583 0.0
H118 H 0.59088 0.91222 0.47919 0.0
H119 H 0.50942 0.91756 0.50903 0.0
H120 H 0.67433 0.94077 0.60578 0.0
H121 H 0.59052 0.93861 0.57472 0.0
H122 H 0.6895 0.11187 0.64241 0.0
H123 H 0.60879 0.11169 0.61032 0.0
H124 H 0.20828 0.93906 0.59857 0.0
H125 H 0.29494 0.93991 0.56941 0.0
H126 H 0.3672 0.11183 0.63716 0.0
H127 H 0.45312 0.11369 0.60745 0.0
H128 H 0.29624 0.09588 0.51021 0.0
H129 H 0.38011 0.09742 0.54135 0.0
H130 H 0.27975 0.92425 0.47366 0.0
H131 H 0.36131 0.92455 0.50534 0.0
N132 N 0.48017 0.00491 0.53199 0.0
N133 N 0.48961 0.03022 0.5838 0.0
C134 C 0.30009 0.2861 0.85998 0.0
C135 C 0.27933 0.30783 0.83793 0.0
C136 C 0.35678 0.32991 0.87509 0.0
C137 C 0.39258 0.39701 0.86916 0.0
C138 C 0.31728 0.37466 0.83149 0.0
C139 C 0.37258 0.4185 0.84697 0.0
C140 C 0.45146 0.44599 0.88518 0.0
C141 C 0.28442 0.34296 0.94869 0.0
C142 C 0.29896 0.29958 0.9625 0.0
C143 C 0.33343 0.39016 0.93197 0.0
C144 C 0.39807 0.39541 0.92907 0.0
C145 C 0.36406 0.30517 0.95923 0.0
C146 C 0.41342 0.35327 0.94298 0.0
C147 C 0.45168 0.44706 0.91281 0.0
C148 C 0.62924 0.67994 0.96446 0.0
C149 C 0.70075 0.70628 0.96179 0.0
C150 C 0.58335 0.62974 0.94809 0.0
C151 C 0.60771 0.60473 0.92863 0.0
C152 C 0.72521 0.68122 0.94224 0.0
C153 C 0.67908 0.63053 0.92594 0.0
C154 C 0.55703 0.54917 0.91265 0.0
C155 C 0.70239 0.62397 0.83546 0.0
C156 C 0.71851 0.68956 0.83555 0.0
C157 C 0.65118 0.57814 0.85187 0.0
C158 C 0.61582 0.59697 0.86909 0.0
C159 C 0.68351 0.70849 0.85314 0.0
C160 C 0.63253 0.66255 0.86974 0.0
C161 C 0.55923 0.54663 0.88511 0.0
H162 H 0.27263 0.23524 0.86573 0.0
H163 H 0.37272 0.31072 0.89114 0.0
H164 H 0.30515 0.39351 0.81422 0.0
H165 H 0.39966 0.46968 0.84156 0.0
H166 H 0.23564 0.34136 0.95108 0.0
H167 H 0.32139 0.42323 0.92165 0.0
H168 H 0.37694 0.2721 0.96901 0.0
H169 H 0.46345 0.3571 0.94098 0.0
H170 H 0.60849 0.69709 0.97958 0.0
H171 H 0.52845 0.61012 0.95074 0.0
H172 H 0.78001 0.70069 0.93952 0.0
H173 H 0.69923 0.61092 0.91159 0.0
H174 H 0.72899 0.60777 0.82254 0.0
H175 H 0.63903 0.52775 0.85108 0.0
H176 H 0.69376 0.75829 0.85347 0.0
H177 H 0.605 0.67789 0.8826 0.0
N178 N 0.50603 0.49559 0.87248 0.0
N179 N 0.50379 0.49875 0.92538 0.0
C180 C 0.96407 0.14866 0.13369 0.0
C181 C 0.93724 0.14295 0.10832 0.0
H182 H -0.01148 0.19934 0.17035 0.0
C183 C 0.91306 0.18499 0.10074 0.0
H184 H 0.98319 0.11704 0.14012 0.0
C185 C 0.91716 0.23268 0.11782 0.0
C186 C 0.94497 0.23937 0.14308 0.0
H187 H 0.8926 0.18239 0.08128 0.0
H188 H 0.90017 0.26553 0.11086 0.0
C189 C 0.96775 0.19628 0.15092 0.0
C190 C 0.76839 0.93524 0.44901 0.0
C191 C 0.82214 0.99408 0.4389 0.0
H192 H 0.68306 0.88968 0.47541 0.0
C193 C 0.82896 0.05339 0.44745 0.0
H194 H 0.76212 0.88874 0.443 0.0
C195 C 0.78339 0.05394 0.46584 0.0
C196 C 0.73018 0.9952 0.47628 0.0
H197 H 0.86966 0.09961 0.43996 0.0
H198 H 0.78948 0.10049 0.47165 0.0
C199 C 0.72306 0.9358 0.46758 0.0
C200 C 0.81342 0.76126 0.77183 0.0
C201 C 0.85727 0.82717 0.77836 0.0
H202 H 0.73469 0.667 0.78438 0.0
C203 C 0.85772 0.8472 0.80427 0.0
H204 H 0.81142 0.74417 0.75203 0.0
C205 C 0.81384 0.80246 0.82304 0.0
C206 C 0.76855 0.73682 0.81628 0.0
H207 H 0.89093 0.89766 0.80993 0.0
H208 H 0.8151 0.81939 0.8428 0.0
C209 C 0.76954 0.71678 0.79049 0.0
C210 C 0.02338 0.87341 0.139 0.0
C211 C 0.04446 0.87444 0.11302 0.0
H212 H -0.00327 0.82264 0.17585 0.0
C213 C 0.05852 0.82569 0.10479 0.0
H214 H 0.01206 0.91022 0.14589 0.0
C215 C 0.04846 0.77529 0.12168 0.0
C216 C 0.02536 0.77308 0.14733 0.0
H217 H 0.07463 0.82482 0.08491 0.0
H218 H 0.05777 0.73734 0.11457 0.0
C219 C 0.01457 0.82342 0.15611 0.0
C220 C 0.19359 0.06592 0.4406 0.0
C221 C 0.13437 0.00651 0.43407 0.0
H222 H 0.28678 0.11363 0.46321 0.0
C223 C 0.12496 0.94845 0.44542 0.0
H224 H 0.20228 0.1115 0.43224 0.0
C225 C 0.17277 0.94977 0.46325 0.0
C226 C 0.23136 0.00913 0.47017 0.0
H227 H 0.07986 0.9018 0.44092 0.0
H228 H 0.16296 0.90425 0.47207 0.0
C229 C 0.24159 0.06721 0.45853 0.0
C230 C 0.1312 0.24182 0.78894 0.0
C231 C 0.11828 0.17815 0.78483 0.0
H232 H 0.18866 0.33113 0.80987 0.0
C233 C 0.15403 0.15505 0.79988 0.0
H234 H 0.10383 0.26056 0.7777 0.0
C235 C 0.2051 0.1964 0.81757 0.0
C236 C 0.2203 0.26133 0.82107 0.0
H237 H 0.14547 0.10627 0.79684 0.0
H238 H 0.23459 0.17805 0.82753 0.0
C239 C 0.18068 0.28251 0.80716 0.0
C240 C 0.83906 0.08232 0.67393 0.0
C241 C 0.82929 0.0225 0.68337 0.0
H242 H 0.80358 0.1305 0.64812 0.0
C243 C 0.77134 0.96425 0.67495 0.0
H244 H 0.88351 0.12804 0.67988 0.0
C245 C 0.72519 0.96566 0.65694 0.0
C246 C 0.73619 0.02531 0.64673 0.0
H247 H 0.76207 0.91734 0.68198 0.0
H248 H 0.68094 0.91984 0.65097 0.0
C249 C 0.79318 0.08371 0.65572 0.0
C250 C 0.85349 0.80703 1.0064 0.0
C251 C 0.84138 0.85721 1.01431 0.0
H252 H 0.81831 0.71975 0.98407 0.0
C253 C 0.78233 0.85717 1.00502 0.0
H254 H 0.89834 0.80541 1.0133 0.0
C255 C 0.73693 0.80849 0.98787 0.0
C256 C 0.74931 0.7585 0.97981 0.0
H257 H 0.77184 0.89544 1.01057 0.0
H258 H 0.6927 0.81067 0.9806 0.0
C259 C 0.8079 0.75817 0.98943 0.0
C260 C 0.90238 0.74533 0.34895 0.0
C261 C 0.91432 0.80655 0.34027 0.0
H262 H 0.90041 0.65655 0.33916 0.0
C263 C 0.92914 0.82289 0.31368 0.0
H264 H 0.89094 0.73114 0.36929 0.0
C265 C 0.93394 0.7796 0.29634 0.0
C266 C 0.92515 0.7198 0.30541 0.0
H267 H 0.93868 0.8697 0.30641 0.0
H268 H 0.9471 0.79389 0.27608 0.0
C269 C 0.90824 0.7027 0.33176 0.0
C270 C 0.18315 0.07795 0.66483 0.0
C271 C 0.13355 0.01825 0.67594 0.0
H272 H 0.2675 0.12676 0.63821 0.0
C273 C 0.13266 0.96073 0.66853 0.0
H274 H 0.18514 0.12319 0.66998 0.0
C275 C 0.18014 0.9629 0.6503 0.0
C276 C 0.22954 0.02262 0.63914 0.0
H277 H 0.0951 0.91394 0.6767 0.0
H278 H 0.17874 0.9179 0.64519 0.0
C279 C 0.23054 0.08009 0.64665 0.0
C280 C 0.12662 0.17214 0.99081 0.0
C281 C 0.14677 0.15226 1.01344 0.0
H282 H 0.15822 0.23162 0.95656 0.0
C283 C 0.2172 0.18067 0.01931 0.0
H284 H 0.07259 0.15041 0.98563 0.0
C285 C 0.26658 0.229 1.00301 0.0
C286 C 0.24658 0.24875 0.98015 0.0
H287 H 0.23403 0.16649 0.03675 0.0
H288 H 0.32035 0.25138 1.00859 0.0
C289 C 0.17586 0.2192 0.97422 0.0
C290 C 0.06789 0.23034 0.3294 0.0
C291 C 0.01245 0.16692 0.33323 0.0
H292 H 0.10634 0.32118 0.30945 0.0
C293 C 0.95149 0.1461 0.31888 0.0
H294 H 0.11562 0.24736 0.34016 0.0
C295 C 0.9446 0.1894 0.30215 0.0
C296 C -0.00067 0.25405 0.29885 0.0
H297 H 0.90762 0.09759 0.32178 0.0
H298 H 0.89518 0.17265 0.29278 0.0
C299 C 0.06194 0.27295 0.31205 0.0
loop_
_geom_bond_atom_site_label_1
_geom_bond_atom_site_label_2
_geom_bond_distance
_geom_bond_site_symmetry_2
_ccdc_geom_bond_type
O0 Cd1 2.223 1_455 S
O0 C8 1.315 . S
Cd1 O0 2.223 1_655 S
Cd1 O4 2.297 . S
Cd1 O5 2.439 . S
Cd1 O11 2.240 1_545 S
Cd2 O3 2.240 1_565 S
Cd2 O10 2.223 1_455 S
Cd2 O12 2.297 . S
Cd2 O13 2.439 . S
O3 Cd2 2.240 1_545 S
O3 C8 1.279 . S
O4 Cd1 2.297 . S
O4 C6 1.247 . S
O5 Cd1 2.439 . S
O5 C6 1.208 . S
C6 O4 1.247 . S
C6 O5 1.208 . S
C7 O12 1.247 . S
C7 O13 1.208 . S
C8 O0 1.315 . S
C8 O3 1.279 . S
C9 O10 1.315 . S
C9 O11 1.279 . S
O10 Cd2 2.223 1_655 S
O10 C9 1.315 . S
O11 Cd1 2.240 1_565 S
O11 C9 1.279 . S
O12 Cd2 2.297 . S
O12 C7 1.247 . S
O13 Cd2 2.439 . S
O13 C7 1.208 . S
O14 Cd15 2.223 1_655 S
O14 C22 1.315 . S
Cd15 O14 2.223 1_455 S
Cd15 O18 2.297 . S
Cd15 O19 2.439 . S
Cd15 O25 2.240 . S
Cd16 O17 2.240 . S
Cd16 O24 2.223 1_655 S
Cd16 O26 2.297 . S
Cd16 O27 2.439 . S
O17 Cd16 2.240 . S
O17 C22 1.279 1_565 S
O18 Cd15 2.297 . S
O18 C20 1.247 . S
O19 Cd15 2.439 . S
O19 C20 1.208 . S
C20 O18 1.247 . S
C20 O19 1.208 . S
C21 O26 1.247 . S
C21 O27 1.208 . S
C22 O14 1.315 . S
C22 O17 1.279 1_545 S
C23 O24 1.315 . S
C23 O25 1.279 1_565 S
O24 Cd16 2.223 1_455 S
O24 C23 1.315 . S
O25 Cd15 2.240 . S
O25 C23 1.279 1_545 S
O26 Cd16 2.297 . S
O26 C21 1.247 . S
O27 Cd16 2.439 . S
O27 C21 1.208 . S
O28 Cd29 2.223 . S
O28 C36 1.315 . S
Cd29 O28 2.223 . S
Cd29 O32 2.297 . S
Cd29 O33 2.439 . S
Cd29 O39 2.240 1_655 S
Cd30 O31 2.240 1_455 S
Cd30 O38 2.223 . S
Cd30 O40 2.297 . S
Cd30 O41 2.439 . S
O31 Cd30 2.240 1_655 S
O31 C36 1.279 1_545 S
O32 Cd29 2.297 . S
O32 C34 1.247 . S
O33 Cd29 2.439 . S
O33 C34 1.208 . S
C34 O32 1.247 . S
C34 O33 1.208 . S
C35 O40 1.247 . S
C35 O41 1.208 . S
C36 O28 1.315 . S
C36 O31 1.279 1_565 S
C37 O38 1.315 . S
C37 O39 1.279 1_545 S
O38 Cd30 2.223 . S
O38 C37 1.315 . S
O39 Cd29 2.240 1_455 S
O39 C37 1.279 1_565 S
O40 Cd30 2.297 . S
O40 C35 1.247 . S
O41 Cd30 2.439 . S
O41 C35 1.208 . S
C42 C43 1.384 1_655 S
C42 C44 1.384 . S
C42 H70 0.931 . S
C43 C42 1.384 1_455 S
C43 C46 1.382 . S
C44 C42 1.384 . S
C44 C45 1.381 1_655 S
C44 H71 0.930 . S
C45 C44 1.381 1_455 S
C45 C47 1.381 . S
C45 C48 1.487 . S
C46 C43 1.382 . S
C46 C47 1.387 . S
C46 H72 0.930 . S
C47 C45 1.381 . S
C47 C46 1.387 . S
C47 H73 0.931 . S
C48 C45 1.487 . S
C48 C55 1.399 1_455 S
C48 N86 1.343 . S
C49 C50 1.384 1_455 S
C49 C51 1.384 . S
C49 H74 0.931 . S
C50 C49 1.384 1_655 S
C50 C53 1.382 . S
C51 C49 1.384 . S
C51 C52 1.381 1_455 S
C51 H75 0.930 . S
C52 C51 1.381 1_655 S
C52 C54 1.381 . S
C52 C55 1.487 . S
C53 C50 1.382 . S
C53 C54 1.387 . S
C53 H76 0.930 . S
C54 C52 1.381 . S
C54 C53 1.387 . S
C54 H77 0.931 . S
C55 C48 1.399 1_655 S
C55 C52 1.487 . S
C55 N87 1.343 . S
C56 C57 1.384 1_455 S
C56 C58 1.384 . S
C56 H78 0.931 . S
C57 C56 1.384 1_655 S
C57 C60 1.382 . S
C58 C56 1.384 . S
C58 C59 1.381 1_455 S
C58 H79 0.930 . S
C59 C58 1.381 1_655 S
C59 C61 1.381 . S
C59 C62 1.487 . S
C60 C57 1.382 . S
C60 C61 1.387 . S
C60 H80 0.930 . S
C61 C59 1.381 . S
C61 C60 1.387 . S
C61 H81 0.931 . S
C62 C59 1.487 . S
C62 C69 1.399 1_655 S
C62 N87 1.343 . S
C63 C64 1.384 1_655 S
C63 C65 1.384 . S
C63 H82 0.931 . S
C64 C63 1.384 1_455 S
C64 C67 1.382 . S
C65 C63 1.384 . S
C65 C66 1.381 1_655 S
C65 H83 0.930 . S
C66 C65 1.381 1_455 S
C66 C68 1.381 . S
C66 C69 1.487 . S
C67 C64 1.382 . S
C67 C68 1.387 . S
C67 H84 0.930 . S
C68 C66 1.381 . S
C68 C67 1.387 . S
C68 H85 0.931 . S
C69 C62 1.399 1_455 S
C69 C66 1.487 . S
C69 N86 1.343 . S
H70 C42 0.931 . S
H71 C44 0.930 . S
H72 C46 0.930 . S
H73 C47 0.931 . S
H74 C49 0.931 . S
H75 C51 0.930 . S
H76 C53 0.930 . S
H77 C54 0.931 . S
H78 C56 0.931 . S
H79 C58 0.930 . S
H80 C60 0.930 . S
H81 C61 0.931 . S
H82 C63 0.931 . S
H83 C65 0.930 . S
H84 C67 0.930 . S
H85 C68 0.931 . S
N86 C48 1.343 . S
N86 C69 1.343 . S
N87 C55 1.343 . S
N87 C62 1.343 . S
C88 C89 1.384 1_545 S
C88 C90 1.384 . S
C88 H116 0.931 . S
C89 C88 1.384 1_565 S
C89 C92 1.382 . S
C90 C88 1.384 . S
C90 C91 1.381 1_545 S
C90 H117 0.930 . S
C91 C90 1.381 1_565 S
C91 C93 1.381 . S
C91 C94 1.487 . S
C92 C89 1.382 . S
C92 C93 1.387 . S
C92 H118 0.930 . S
C93 C91 1.381 . S
C93 C92 1.387 . S
C93 H119 0.931 . S
C94 C91 1.487 . S
C94 C101 1.399 1_565 S
C94 N132 1.343 . S
C95 C96 1.384 1_565 S
C95 C97 1.384 . S
C95 H120 0.931 . S
C96 C95 1.384 1_545 S
C96 C99 1.382 . S
C97 C95 1.384 . S
C97 C98 1.381 1_565 S
C97 H121 0.930 . S
C98 C97 1.381 1_545 S
C98 C100 1.381 . S
C98 C101 1.487 . S
C99 C96 1.382 . S
C99 C100 1.387 . S
C99 H122 0.930 . S
C100 C98 1.381 . S
C100 C99 1.387 . S
C100 H123 0.931 . S
C101 C94 1.399 1_545 S
C101 C98 1.487 . S
C101 N133 1.343 . S
C102 C103 1.384 1_565 S
C102 C104 1.384 . S
C102 H124 0.931 . S
C103 C102 1.384 1_545 S
C103 C106 1.382 . S
C104 C102 1.384 . S
C104 C105 1.381 1_565 S
C104 H125 0.930 . S
C105 C104 1.381 1_545 S
C105 C107 1.381 . S
C105 C108 1.487 . S
C106 C103 1.382 . S
C106 C107 1.387 . S
C106 H126 0.930 . S
C107 C105 1.381 . S
C107 C106 1.387 . S
C107 H127 0.931 . S
C108 C105 1.487 . S
C108 C115 1.399 1_545 S
C108 N133 1.343 . S
C109 C110 1.384 1_545 S
C109 C111 1.384 . S
C109 H128 0.931 . S
C110 C109 1.384 1_565 S
C110 C113 1.382 . S
C111 C109 1.384 . S
C111 C112 1.381 1_545 S
C111 H129 0.930 . S
C112 C111 1.381 1_565 S
C112 C114 1.381 . S
C112 C115 1.487 . S
C113 C110 1.382 . S
C113 C114 1.387 . S
C113 H130 0.930 . S
C114 C112 1.381 . S
C114 C113 1.387 . S
C114 H131 0.931 . S
C115 C108 1.399 1_565 S
C115 C112 1.487 . S
C115 N132 1.343 . S
H116 C88 0.931 . S
H117 C90 0.930 . S
H118 C92 0.930 . S
H119 C93 0.931 . S
H120 C95 0.931 . S
H121 C97 0.930 . S
H122 C99 0.930 . S
H123 C100 0.931 . S
H124 C102 0.931 . S
H125 C104 0.930 . S
H126 C106 0.930 . S
H127 C107 0.931 . S
H128 C109 0.931 . S
H129 C111 0.930 . S
H130 C113 0.930 . S
H131 C114 0.931 . S
N132 C94 1.343 . S
N132 C115 1.343 . S
N133 C101 1.343 . S
N133 C108 1.343 . S
C134 C135 1.384 . S
C134 C136 1.384 . S
C134 H162 0.931 . S
C135 C134 1.384 . S
C135 C138 1.382 . S
C136 C134 1.384 . S
C136 C137 1.381 . S
C136 H163 0.930 . S
C137 C136 1.381 . S
C137 C139 1.381 . S
C137 C140 1.487 . S
C138 C135 1.382 . S
C138 C139 1.387 . S
C138 H164 0.930 . S
C139 C137 1.381 . S
C139 C138 1.387 . S
C139 H165 0.931 . S
C140 C137 1.487 . S
C140 C147 1.399 . S
C140 N178 1.343 . S
C141 C142 1.384 . S
C141 C143 1.384 . S
C141 H166 0.931 . S
C142 C141 1.384 . S
C142 C145 1.382 . S
C143 C141 1.384 . S
C143 C144 1.381 . S
C143 H167 0.930 . S
C144 C143 1.381 . S
C144 C146 1.381 . S
C144 C147 1.487 . S
C145 C142 1.382 . S
C145 C146 1.387 . S
C145 H168 0.930 . S
C146 C144 1.381 . S
C146 C145 1.387 . S
C146 H169 0.931 . S
C147 C140 1.399 . S
C147 C144 1.487 . S
C147 N179 1.343 . S
C148 C149 1.384 . S
C148 C150 1.384 . S
C148 H170 0.931 . S
C149 C148 1.384 . S
C149 C152 1.382 . S
C150 C148 1.384 . S
C150 C151 1.381 . S
C150 H171 0.930 . S
C151 C150 1.381 . S
C151 C153 1.381 . S
C151 C154 1.487 . S
C152 C149 1.382 . S
C152 C153 1.387 . S
C152 H172 0.930 . S
C153 C151 1.381 . S
C153 C152 1.387 . S
C153 H173 0.931 . S
C154 C151 1.487 . S
C154 C161 1.399 . S
C154 N179 1.343 . S
C155 C156 1.384 . S
C155 C157 1.384 . S
C155 H174 0.931 . S
C156 C155 1.384 . S
C156 C159 1.382 . S
C157 C155 1.384 . S
C157 C158 1.381 . S
C157 H175 0.930 . S
C158 C157 1.381 . S
C158 C160 1.381 . S
C158 C161 1.487 . S
C159 C156 1.382 . S
C159 C160 1.387 . S
C159 H176 0.930 . S
C160 C158 1.381 . S
C160 C159 1.387 . S
C160 H177 0.931 . S
C161 C154 1.399 . S
C161 C158 1.487 . S
C161 N178 1.343 . S
H162 C134 0.931 . S
H163 C136 0.930 . S
H164 C138 0.930 . S
H165 C139 0.931 . S
H166 C141 0.931 . S
H167 C143 0.930 . S
H168 C145 0.930 . S
H169 C146 0.931 . S
H170 C148 0.931 . S
H171 C150 0.930 . S
H172 C152 0.930 . S
H173 C153 0.931 . S
H174 C155 0.931 . S
H175 C157 0.930 . S
H176 C159 0.930 . S
H177 C160 0.931 . S
N178 C140 1.343 . S
N178 C161 1.343 . S
N179 C147 1.343 . S
N179 C154 1.343 . S
C180 C181 1.388 . S
C180 H184 0.950 . S
C180 C189 1.390 . S
C181 C180 1.388 . S
C181 C183 1.387 1_655 S
H182 C189 0.950 . S
C183 C181 1.387 1_455 S
C183 C185 1.390 . S
C183 H187 0.950 . S
H184 C180 0.950 . S
C185 C183 1.390 . S
C185 C186 1.390 . S
C185 H188 0.950 . S
C186 C185 1.390 . S
C186 C189 1.387 1_455 S
H187 C183 0.950 . S
H188 C185 0.950 . S
C189 C180 1.390 . S
C189 H182 0.950 . S
C189 C186 1.387 1_655 S
C190 C191 1.387 1_565 S
C190 H194 0.950 . S
C190 C199 1.390 . S
C191 C190 1.387 1_545 S
C191 C193 1.387 . S
H192 C199 0.950 . S
C193 C191 1.387 . S
C193 C195 1.390 . S
C193 H197 0.950 . S
H194 C190 0.950 . S
C195 C193 1.390 . S
C195 C196 1.387 . S
C195 H198 0.950 . S
C196 C195 1.387 . S
C196 C199 1.387 1_545 S
H197 C193 0.950 . S
H198 C195 0.950 . S
C199 C190 1.390 . S
C199 H192 0.950 . S
C199 C196 1.387 1_565 S
C200 C201 1.387 . S
C200 H204 0.950 . S
C200 C209 1.390 . S
C201 C200 1.387 . S
C201 C203 1.387 . S
H202 C209 0.950 . S
C203 C201 1.387 . S
C203 C205 1.390 . S
C203 H207 0.950 . S
H204 C200 0.950 . S
C205 C203 1.390 . S
C205 C206 1.387 . S
C205 H208 0.950 . S
C206 C205 1.387 . S
C206 C209 1.387 . S
H207 C203 0.950 . S
H208 C205 0.950 . S
C209 C200 1.390 . S
C209 H202 0.950 . S
C209 C206 1.387 . S
C210 C211 1.388 . S
C210 H214 0.950 . S
C210 C219 1.390 . S
C211 C210 1.388 . S
C211 C213 1.390 1_455 S
H212 C219 0.950 . S
C213 C211 1.390 1_655 S
C213 C215 1.390 . S
C213 H217 0.950 . S
H214 C210 0.950 . S
C215 C213 1.390 . S
C215 C216 1.387 . S
C215 H218 0.950 . S
C216 C215 1.387 . S
C216 C219 1.389 1_655 S
H217 C213 0.950 . S
H218 C215 0.950 . S
C219 C210 1.390 . S
C219 H212 0.950 . S
C219 C216 1.389 1_455 S
C220 C221 1.387 1_545 S
C220 H224 0.950 . S
C220 C229 1.390 . S
C221 C220 1.387 1_565 S
C221 C223 1.387 . S
H222 C229 0.950 . S
C223 C221 1.387 . S
C223 C225 1.390 . S
C223 H227 0.950 . S
H224 C220 0.950 . S
C225 C223 1.390 . S
C225 C226 1.397 . S
C225 H228 0.950 . S
C226 C225 1.397 . S
C226 C229 1.371 1_565 S
H227 C223 0.950 . S
H228 C225 0.950 . S
C229 C220 1.390 . S
C229 H222 0.950 . S
C229 C226 1.371 1_545 S
C230 C231 1.387 . S
C230 H234 0.950 . S
C230 C239 1.390 . S
C231 C230 1.387 . S
C231 C233 1.387 . S
H232 C239 0.950 . S
C233 C231 1.387 . S
C233 C235 1.390 . S
C233 H237 0.950 . S
H234 C230 0.950 . S
C235 C233 1.390 . S
C235 C236 1.387 . S
C235 H238 0.950 . S
C236 C235 1.387 . S
C236 C239 1.387 . S
H237 C233 0.950 . S
H238 C235 0.950 . S
C239 C230 1.390 . S
C239 H232 0.950 . S
C239 C236 1.387 . S
C240 C241 1.387 1_545 S
C240 H244 0.950 . S
C240 C249 1.390 . S
C241 C240 1.387 1_565 S
C241 C243 1.387 . S
H242 C249 0.950 . S
C243 C241 1.387 . S
C243 C245 1.390 . S
C243 H247 0.950 . S
H244 C240 0.950 . S
C245 C243 1.390 . S
C245 C246 1.387 . S
C245 H248 0.950 . S
C246 C245 1.387 . S
C246 C249 1.387 1_565 S
H247 C243 0.950 . S
H248 C245 0.950 . S
C249 C240 1.390 . S
C249 H242 0.950 . S
C249 C246 1.387 1_545 S
C250 C251 1.373 1_554 S
C250 H254 0.984 . S
C250 C259 1.372 1_554 S
C251 C250 1.373 1_556 S
C251 C253 1.387 . S
H252 C259 0.950 . S
C253 C251 1.387 . S
C253 C255 1.390 . S
C253 H257 0.950 . S
H254 C250 0.984 . S
C255 C253 1.390 . S
C255 C256 1.387 . S
C255 H258 0.950 . S
C256 C255 1.387 . S
C256 C259 1.387 . S
H257 C253 0.950 . S
H258 C255 0.950 . S
C259 C250 1.372 1_556 S
C259 H252 0.950 . S
C259 C256 1.387 . S
C260 C261 1.387 1_655 S
C260 H264 0.950 . S
C260 C269 1.390 . S
C261 C260 1.387 1_455 S
C261 C263 1.387 . S
H262 C269 0.950 . S
C263 C261 1.387 . S
C263 C265 1.390 . S
C263 H267 0.950 . S
H264 C260 0.950 . S
C265 C263 1.390 . S
C265 C266 1.381 . S
C265 H268 0.950 . S
C266 C265 1.381 . S
C266 C269 1.387 1_455 S
H267 C263 0.950 . S
H268 C265 0.950 . S
C269 C260 1.390 . S
C269 H262 0.950 . S
C269 C266 1.387 1_655 S
C270 C271 1.387 . S
C270 H274 0.950 . S
C270 C279 1.390 . S
C271 C270 1.387 . S
C271 C273 1.387 1_545 S
H272 C279 0.950 . S
C273 C271 1.387 1_565 S
C273 C275 1.390 . S
C273 H277 0.950 . S
H274 C270 0.950 . S
C275 C273 1.390 . S
C275 C276 1.387 1_565 S
C275 H278 0.950 . S
C276 C275 1.387 1_545 S
C276 C279 1.387 . S
H277 C273 0.950 . S
H278 C275 0.950 . S
C279 C270 1.390 . S
C279 H272 0.950 . S
C279 C276 1.387 . S
C280 C281 1.387 . S
C280 H284 0.950 . S
C280 C289 1.390 . S
C281 C280 1.387 . S
C281 C283 1.388 1_556 S
H282 C289 0.950 . S
C283 C281 1.388 1_554 S
C283 C285 1.391 1_554 S
C283 H287 0.949 . S
H284 C280 0.950 . S
C285 C283 1.391 1_556 S
C285 C286 1.387 . S
C285 H288 0.950 . S
C286 C285 1.387 . S
C286 C289 1.387 . S
H287 C283 0.949 . S
H288 C285 0.950 . S
C289 C280 1.390 . S
C289 H282 0.950 . S
C289 C286 1.387 . S
C290 C291 1.387 1_455 S
C290 H294 0.950 . S
C290 C299 1.390 . S
C291 C290 1.387 1_655 S
C291 C293 1.387 . S
H292 C299 0.950 . S
C293 C291 1.387 . S
C293 C295 1.390 . S
C293 H297 0.950 . S
H294 C290 0.950 . S
C295 C293 1.390 . S
C295 C296 1.393 . S
C295 H298 0.950 . S
C296 C295 1.393 . S
C296 C299 1.376 1_655 S
H297 C293 0.950 . S
H298 C295 0.950 . S
C299 C290 1.390 . S
C299 H292 0.950 . S
C299 C296 1.376 1_455 S
C186 C50 1.484 1_455 S
C181 C6 1.464 . S
C191 C22 1.568 . S
C196 C89 1.593 1_545 S
C201 C34 1.295 . S
C206 C156 1.316 . S
C211 C7 1.465 . S
C216 C57 1.486 . S
C226 C110 1.597 . S
C221 C23 1.566 . S
C231 C35 1.294 . S
C236 C135 1.314 . S
C246 C96 1.591 1_565 S
C241 C36 1.577 . S
C251 C9 1.750 1_556 S
C256 C149 1.791 . S
C266 C64 1.490 . S
C261 C21 1.461 1_455 S
C276 C103 1.590 . S
C271 C37 1.575 . S
C286 C142 1.789 . S
C281 C8 1.750 1_556 S
C291 C20 1.459 1_655 S
C296 C43 1.488 1_655 S
