# Generated by pormake.
# Topology pto, (3,4)-cn, num edge types: 1
# Building blocks:
#     Node 0, Type 0, BuildingBlock: BETDAH_clean_linker_0, # of connection points: 3
#     Node 1, Type 0, BuildingBlock: BETDAH_clean_linker_0, # of connection points: 3
#     Node 2, Type 0, BuildingBlock: BETDAH_clean_linker_0, # of connection points: 3
#     Node 3, Type 0, BuildingBlock: BETDAH_clean_linker_0, # of connection points: 3
#     Node 4, Type 0, BuildingBlock: BETDAH_clean_linker_0, # of connection points: 3
#     Node 5, Type 0, BuildingBlock: BETDAH_clean_linker_0, # of connection points: 3
#     Node 6, Type 0, BuildingBlock: BETDAH_clean_linker_0, # of connection points: 3
#     Node 7, Type 0, BuildingBlock: BETDAH_clean_linker_0, # of connection points: 3
#     Node 8, Type 1, BuildingBlock: NAWXER_clean_sbu_0, # of connection points: 4
#     Node 9, Type 1, BuildingBlock: NAWXER_clean_sbu_0, # of connection points: 4
#     Node 10, Type 1, BuildingBlock: NAWXER_clean_sbu_0, # of connection points: 4
#     Node 11, Type 1, BuildingBlock: NAWXER_clean_sbu_0, # of connection points: 4
#     Node 12, Type 1, BuildingBlock: NAWXER_clean_sbu_0, # of connection points: 4
#     Node 13, Type 1, BuildingBlock: NAWXER_clean_sbu_0, # of connection points: 4
#     Edge 14, Type (0, 1), BuildingBlock: MIFKUJ_clean_linker_0, # of connection points: 2
#     Edge 15, Type (0, 1), BuildingBlock: MIFKUJ_clean_linker_0, # of connection points: 2
#     Edge 16, Type (0, 1), BuildingBlock: MIFKUJ_clean_linker_0, # of connection points: 2
#     Edge 17, Type (0, 1), BuildingBlock: MIFKUJ_clean_linker_0, # of connection points: 2
#     Edge 18, Type (0, 1), BuildingBlock: MIFKUJ_clean_linker_0, # of connection points: 2
#     Edge 19, Type (0, 1), BuildingBlock: MIFKUJ_clean_linker_0, # of connection points: 2
#     Edge 20, Type (0, 1), BuildingBlock: MIFKUJ_clean_linker_0, # of connection points: 2
#     Edge 21, Type (0, 1), BuildingBlock: MIFKUJ_clean_linker_0, # of connection points: 2
#     Edge 22, Type (0, 1), BuildingBlock: MIFKUJ_clean_linker_0, # of connection points: 2
#     Edge 23, Type (0, 1), BuildingBlock: MIFKUJ_clean_linker_0, # of connection points: 2
#     Edge 24, Type (0, 1), BuildingBlock: MIFKUJ_clean_linker_0, # of connection points: 2
#     Edge 25, Type (0, 1), BuildingBlock: MIFKUJ_clean_linker_0, # of connection points: 2
#     Edge 26, Type (0, 1), BuildingBlock: MIFKUJ_clean_linker_0, # of connection points: 2
#     Edge 27, Type (0, 1), BuildingBlock: MIFKUJ_clean_linker_0, # of connection points: 2
#     Edge 28, Type (0, 1), BuildingBlock: MIFKUJ_clean_linker_0, # of connection points: 2
#     Edge 29, Type (0, 1), BuildingBlock: MIFKUJ_clean_linker_0, # of connection points: 2
#     Edge 30, Type (0, 1), BuildingBlock: MIFKUJ_clean_linker_0, # of connection points: 2
#     Edge 31, Type (0, 1), BuildingBlock: MIFKUJ_clean_linker_0, # of connection points: 2
#     Edge 32, Type (0, 1), BuildingBlock: MIFKUJ_clean_linker_0, # of connection points: 2
#     Edge 33, Type (0, 1), BuildingBlock: MIFKUJ_clean_linker_0, # of connection points: 2
#     Edge 34, Type (0, 1), BuildingBlock: MIFKUJ_clean_linker_0, # of connection points: 2
#     Edge 35, Type (0, 1), BuildingBlock: MIFKUJ_clean_linker_0, # of connection points: 2
#     Edge 36, Type (0, 1), BuildingBlock: MIFKUJ_clean_linker_0, # of connection points: 2
#     Edge 37, Type (0, 1), BuildingBlock: MIFKUJ_clean_linker_0, # of connection points: 2
# Relax obj value: 0.010
# Max RMSD: 0.138
# Mean RMSD: 0.058
data_MOF--net-pto--node1-NAWXER_clean_sbu_0--node2-BETDAH_clean_linker_0--edge1-MIFKUJ_clean_linker_0
_symmetry_space_group_name_H-M    P1
_symmetry_Int_Tables_number       1
_symmetry_cell_setting            triclinic
loop_
_symmetry_equiv_pos_as_xyz
'x, y, z'
_cell_length_a     56.199742
_cell_length_b     51.41792
_cell_length_c     49.812487
_cell_angle_alpha  108.77712
_cell_angle_beta   95.501528
_cell_angle_gamma 99.13714
loop_
_atom_site_label
_atom_site_type_symbol
_atom_site_fract_x
_atom_site_fract_y
_atom_site_fract_z
_atom_type_partial_charge
H0 H 0.30687 0.2215 0.40756 0.0
H1 H 0.29357 0.30426 0.4174 0.0
H2 H 0.27187 0.26432 0.47706 0.0
C3 C 0.29948 0.23953 0.41868 0.0
C4 C 0.28832 0.2396 0.44276 0.0
C5 C 0.3017 0.2628 0.40932 0.0
C6 C 0.29203 0.2861 0.42414 0.0
C7 C 0.28125 0.28648 0.44852 0.0
C8 C 0.2797 0.26345 0.4578 0.0
N9 N 0.27361 0.3106 0.46555 0.0
C10 C 0.2588 0.3251 0.45447 0.0
H11 H 0.29127 0.71897 0.86994 0.0
H12 H 0.33284 0.73521 0.80689 0.0
H13 H 0.25705 0.73985 0.80051 0.0
C14 C 0.29245 0.72484 0.851 0.0
C15 C 0.27143 0.7291 0.83658 0.0
C16 C 0.31481 0.72726 0.84072 0.0
C17 C 0.31595 0.73405 0.81568 0.0
C18 C 0.29542 0.7392 0.80156 0.0
C19 C 0.27312 0.73675 0.812 0.0
N20 N 0.29741 0.74476 0.77571 0.0
C21 C 0.28744 0.76521 0.76868 0.0
H22 H 0.83259 0.72086 0.40951 0.0
H23 H 0.76605 0.70896 0.35225 0.0
H24 H 0.80965 0.64604 0.33508 0.0
C25 C 0.81952 0.70816 0.39059 0.0
C26 C 0.82397 0.68237 0.37314 0.0
C27 C 0.7986 0.71799 0.38334 0.0
C28 C 0.78232 0.70186 0.35793 0.0
C29 C 0.78654 0.676 0.34049 0.0
C30 C 0.80702 0.66635 0.34844 0.0
N31 N 0.7704 0.65868 0.31508 0.0
C32 C 0.75254 0.66742 0.30076 0.0
H33 H 0.81142 0.29855 0.92439 0.0
H34 H 0.74721 0.27379 0.95794 0.0
H35 H 0.79507 0.35342 0.00291 0.0
C36 C 0.80006 0.30286 0.94106 0.0
C37 C 0.80627 0.32844 0.96409 0.0
C38 C 0.77901 0.28289 0.93878 0.0
C39 C 0.76351 0.28899 0.95958 0.0
C40 C 0.76934 0.3147 0.9826 0.0
C41 C 0.7906 0.33407 0.98467 0.0
N42 N 0.75445 0.32219 0.0042 0.0
C43 C 0.73506 0.30443 0.00867 0.0
H44 H 0.80114 0.69537 0.8705 0.0
H45 H 0.83218 0.69794 0.79551 0.0
H46 H 0.7793 0.74799 0.82447 0.0
C47 C 0.80277 0.70372 0.85322 0.0
C48 C 0.78828 0.72281 0.84998 0.0
C49 C 0.81867 0.6945 0.83368 0.0
C50 C 0.81986 0.70453 0.81067 0.0
C51 C 0.80612 0.72404 0.80753 0.0
C52 C 0.79026 0.7332 0.82716 0.0
N53 N 0.80828 0.73328 0.7838 0.0
C54 C 0.80591 0.75977 0.78386 0.0
H55 H 0.78448 0.30538 0.39094 0.0
H56 H 0.81677 0.25986 0.43895 0.0
H57 H 0.74002 0.23721 0.40618 0.0
C58 C 0.78269 0.28941 0.40087 0.0
C59 C 0.7597 0.27244 0.39743 0.0
C60 C 0.80349 0.2852 0.4158 0.0
C61 C 0.80098 0.26343 0.42743 0.0
C62 C 0.77799 0.24601 0.4237 0.0
C63 C 0.75765 0.25059 0.40865 0.0
N64 N 0.77445 0.2231 0.43387 0.0
C65 C 0.79003 0.21925 0.45504 0.0
H66 H 0.34325 0.29156 0.91139 0.0
H67 H 0.32821 0.37488 0.94079 0.0
H68 H 0.30389 0.32182 0.85305 0.0
C69 C 0.335 0.3079 0.90738 0.0
C70 C 0.32319 0.30342 0.87964 0.0
C71 C 0.33678 0.33349 0.92975 0.0
C72 C 0.32668 0.35481 0.92399 0.0
C73 C 0.3145 0.35039 0.89654 0.0
C74 C 0.31262 0.32469 0.87446 0.0
N75 N 0.30643 0.37287 0.89051 0.0
C76 C 0.28222 0.37556 0.88965 0.0
H77 H 0.27622 0.72676 0.33233 0.0
H78 H 0.33315 0.74405 0.28511 0.0
H79 H 0.28005 0.66688 0.25018 0.0
C80 C 0.28468 0.72058 0.31321 0.0
C81 C 0.27522 0.69455 0.29152 0.0
C82 C 0.30533 0.73866 0.31093 0.0
C83 C 0.3172 0.7302 0.28692 0.0
C84 C 0.30805 0.70408 0.26508 0.0
C85 C 0.28715 0.6866 0.2675 0.0
N86 N 0.31909 0.69458 0.24019 0.0
C87 C 0.33875 0.71002 0.23341 0.0
C88 C 0.01286 0.45928 0.37472 0.0
C89 C 0.07247 0.5247 0.35047 0.0
O90 O 0.02506 0.47924 0.39688 0.0
Zn91 Zn 0.05296 0.51603 0.40637 0.0
O92 O 0.01683 0.45853 0.34981 0.0
Zn93 Zn 0.04238 0.49186 0.36194 0.0
O94 O 0.07141 0.48015 0.38373 0.0
O95 O 0.07915 0.50811 0.42899 0.0
O96 O 0.05829 0.50258 0.33329 0.0
O97 O 0.07197 0.53181 0.37755 0.0
O98 O 0.03625 0.54584 0.42446 0.0
O99 O 0.02256 0.52451 0.37821 0.0
C100 C 0.08381 0.48784 0.40894 0.0
C101 C 0.02174 0.54337 0.40216 0.0
C102 C 0.01672 0.50835 0.93871 0.0
C103 C 0.07296 0.57476 0.91143 0.0
O104 O 0.03013 0.53135 0.95524 0.0
Zn105 Zn 0.04518 0.5417 0.92576 0.0
O106 O 0.01724 0.50044 0.91163 0.0
Zn107 Zn 0.03514 0.5157 0.88188 0.0
O108 O 0.05284 0.48672 0.8652 0.0
O109 O 0.06701 0.51067 0.9109 0.0
O110 O 0.06164 0.55348 0.88988 0.0
O111 O 0.0689 0.57648 0.93655 0.0
O112 O 0.01477 0.55012 0.90283 0.0
O113 O 0.00797 0.5207 0.8582 0.0
C114 C 0.06812 0.49118 0.88752 0.0
C115 C 1.0023 0.54077 0.87753 0.0
C116 C 0.28153 0.96418 0.62794 0.0
C117 C 0.28441 0.02644 0.57144 0.0
O118 O 0.26373 0.96903 0.61383 0.0
Zn119 Zn 0.28241 0.99515 0.59929 0.0
O120 O 0.30334 0.9762 0.6279 0.0
Zn121 Zn 0.32118 0.00493 0.60953 0.0
O122 O 0.33725 0.0367 0.64301 0.0
O123 O 0.29712 0.03099 0.63699 0.0
O124 O 0.3056 0.02533 0.5826 0.0
O125 O 0.26548 0.01214 0.57581 0.0
O126 O 0.30113 0.96933 0.56902 0.0
O127 O 0.34071 0.98293 0.58473 0.0
C128 C 0.31808 0.04477 0.65123 0.0
C129 C 0.32311 0.96677 0.56575 0.0
C130 C 0.58814 0.70679 0.08531 0.0
C131 C 0.52897 0.70813 0.00767 0.0
O132 O 0.57352 0.68616 0.06651 0.0
Zn133 Zn 0.55887 0.70698 0.04565 0.0
O134 O 0.58845 0.73162 0.0848 0.0
Zn135 Zn 0.56978 0.75132 0.05965 0.0
O136 O 0.5535 0.77518 0.08764 0.0
O137 O 0.53798 0.72989 0.07522 0.0
O138 O 0.54117 0.73271 0.02286 0.0
O139 O 0.53357 0.68685 0.01331 0.0
O140 O 0.58808 0.72222 0.02623 0.0
O141 O 0.59589 0.76843 0.04441 0.0
C142 C 0.53774 0.75544 0.08952 0.0
C143 C 0.60048 0.74596 0.02759 0.0
C144 C 0.80912 0.98628 0.67704 0.0
C145 C 0.81546 0.05389 0.62648 0.0
O146 O 0.7884 0.98874 0.66597 0.0
Zn147 Zn 0.77424 0.01142 0.64079 0.0
O148 O 0.82862 1.00046 0.67371 0.0
Zn149 Zn 0.8131 0.0196 0.65132 0.0
O150 O 0.79464 0.04538 0.68215 0.0
O151 O 0.755 0.03314 0.66638 0.0
O152 O 0.83292 0.04643 0.6384 0.0
O153 O 0.79337 0.04243 0.62611 0.0
O154 O 0.75823 0.98135 0.60547 0.0
O155 O 0.7982 0.9858 0.61222 0.0
C156 C 0.7728 0.04855 0.68557 0.0
C157 C 0.77731 0.97314 0.5971 0.0
C158 C 0.54704 0.30517 0.237 0.0
C159 C 0.48716 0.31906 0.16787 0.0
O160 O 0.53422 0.28207 0.21911 0.0
Zn161 Zn 0.50481 0.26852 0.18345 0.0
O162 O 0.54272 0.32839 0.2359 0.0
Zn163 Zn 0.51701 0.31271 0.2032 0.0
O164 O 0.48778 0.2946 0.22054 0.0
O165 O 0.47869 0.24904 0.19689 0.0
O166 O 0.50269 0.33775 0.18763 0.0
O167 O 0.48634 0.29313 0.1645 0.0
O168 O 0.51995 0.24754 0.15207 0.0
O169 O 0.53692 0.29257 0.17048 0.0
C170 C 0.47483 0.27032 0.21636 0.0
C171 C 0.53637 0.26797 0.15278 0.0
H172 H 0.26496 0.36277 0.4268 0.0
H173 H 0.23556 0.39124 0.41856 0.0
H174 H 0.18449 0.351 0.45956 0.0
H175 H 0.21361 0.32235 0.46716 0.0
H176 H 0.16116 0.35587 0.4141 0.0
H177 H 0.21978 0.4171 0.49504 0.0
H178 H 0.26085 0.44195 0.52133 0.0
H179 H 0.27018 0.4844 0.46045 0.0
H180 H 0.22926 0.45951 0.43358 0.0
H181 H 0.1112 0.49403 0.46027 0.0
H182 H 0.14171 0.46692 0.46821 0.0
H183 H 0.13095 0.42099 0.37725 0.0
H184 H 0.10037 0.44745 0.36921 0.0
H185 H 0.18478 0.45975 0.4498 0.0
H186 H 0.13364 0.35335 0.3661 0.0
H187 H 0.09136 0.32886 0.34421 0.0
H188 H 0.06499 0.37707 0.41879 0.0
H189 H 0.10711 0.40155 0.44128 0.0
C190 C 0.24731 0.35994 0.43368 0.0
C191 C 0.2413 0.34049 0.44745 0.0
C192 C 0.23063 0.37627 0.4292 0.0
C193 C 0.20789 0.3735 0.43875 0.0
C194 C 0.20185 0.35351 0.45197 0.0
C195 C 0.21845 0.33718 0.45632 0.0
C196 C 0.19039 0.39152 0.43541 0.0
C197 C 0.16639 0.37857 0.42182 0.0
C198 C 0.197 0.42119 0.446 0.0
C199 C 0.22157 0.43623 0.46215 0.0
C200 C 0.23067 0.43158 0.48714 0.0
C201 C 0.2539 0.44569 0.50217 0.0
C202 C 0.26814 0.46469 0.49252 0.0
C203 C 0.25914 0.46965 0.46787 0.0
C204 C 0.23593 0.45556 0.45275 0.0
C205 C 0.1154 0.4782 0.44198 0.0
C206 C 0.10315 0.47272 0.41416 0.0
C207 C 0.13289 0.4628 0.44653 0.0
C208 C 0.13836 0.44166 0.42336 0.0
C209 C 0.12672 0.43684 0.39551 0.0
C210 C 0.10923 0.45206 0.39097 0.0
C211 C 0.15572 0.42403 0.42817 0.0
C212 C 0.17964 0.43704 0.44198 0.0
C213 C 0.14891 0.3944 0.41838 0.0
C214 C 0.12352 0.37946 0.40523 0.0
C215 C 0.11882 0.35863 0.37787 0.0
C216 C 0.09489 0.34476 0.36536 0.0
C217 C 0.0755 0.35147 0.38006 0.0
C218 C 0.08001 0.37197 0.40738 0.0
C219 C 0.10392 0.38586 0.42 0.0
H220 H 0.05698 0.34074 0.37032 0.0
H221 H 0.28613 0.4756 0.50418 0.0
H222 H 0.26064 0.74589 0.8912 0.0
H223 H 0.22391 0.72781 0.90755 0.0
H224 H 0.1919 0.67937 0.8198 0.0
H225 H 0.22852 0.69754 0.80333 0.0
H226 H 0.15742 0.69895 0.85171 0.0
H227 H 0.22339 0.65077 0.85975 0.0
H228 H 0.26553 0.64827 0.87608 0.0
H229 H 0.25523 0.68271 0.96393 0.0
H230 H 0.21314 0.68591 0.94808 0.0
H231 H 0.08193 0.57937 0.86016 0.0
H232 H 0.11288 0.61348 0.85166 0.0
H233 H 0.13593 0.6538 0.94295 0.0
H234 H 0.10491 0.61942 0.95174 0.0
H235 H 0.17424 0.64396 0.91448 0.0
H236 H 0.10563 0.68608 0.9054 0.0
H237 H 0.06354 0.68775 0.88795 0.0
H238 H 0.07833 0.66344 0.80128 0.0
H239 H 0.12043 0.66121 0.81815 0.0
C240 C 0.24557 0.73179 0.87538 0.0
C241 C 0.24755 0.72285 0.84601 0.0
C242 C 0.22461 0.72148 0.88473 0.0
C243 C 0.20538 0.70179 0.86493 0.0
C244 C 0.20654 0.69449 0.83546 0.0
C245 C 0.22746 0.70493 0.82606 0.0
C246 C 0.18531 0.68663 0.87492 0.0
C247 C 0.16105 0.68684 0.86534 0.0
C248 C 0.19008 0.67126 0.89318 0.0
C249 C 0.21523 0.66888 0.90274 0.0
C250 C 0.23017 0.65799 0.88255 0.0
C251 C 0.25404 0.65644 0.89171 0.0
C252 C 0.26308 0.66539 0.92102 0.0
C253 C 0.24822 0.67584 0.94123 0.0
C254 C 0.22436 0.67753 0.93217 0.0
C255 C 0.09342 0.59559 0.87852 0.0
C256 C 0.09095 0.59662 0.90666 0.0
C257 C 0.11103 0.61522 0.87359 0.0
C258 C 0.12655 0.6364 0.89667 0.0
C259 C 0.12405 0.63769 0.92483 0.0
C260 C 0.1063 0.61807 0.92981 0.0
C261 C 0.14627 0.656 0.89106 0.0
C262 C 0.17053 0.65649 0.90132 0.0
C263 C 0.14145 0.67184 0.8733 0.0
C264 C 0.11616 0.67329 0.86305 0.0
C265 C 0.09987 0.68088 0.8826 0.0
C266 C 0.07601 0.68197 0.87281 0.0
C267 C 0.06825 0.67566 0.84352 0.0
C268 C 0.08436 0.66831 0.82396 0.0
C269 C 0.10824 0.66718 0.83363 0.0
H270 H 0.04977 0.6765 0.83599 0.0
H271 H 0.28156 0.66418 0.92808 0.0
H272 H 0.84601 0.6855 0.42631 0.0
H273 H 0.88088 0.66515 0.43695 0.0
H274 H 0.88643 0.63452 0.34688 0.0
H275 H 0.85237 0.65545 0.33616 0.0
H276 H 0.88475 0.5933 0.37307 0.0
H277 H 0.92696 0.68845 0.38981 0.0
H278 H 0.93509 0.73981 0.41348 0.0
H279 H 0.95103 0.73054 0.49557 0.0
H280 H 0.94264 0.67906 0.4724 0.0
H281 H 0.99414 0.5488 0.35711 0.0
H282 H 0.96172 0.57517 0.35826 0.0
H283 H 0.97441 0.60448 0.45085 0.0
H284 H 0.00753 0.57834 0.4499 0.0
H285 H 0.96517 0.64598 0.43074 0.0
H286 H 0.92695 0.55194 0.41506 0.0
H287 H 0.91864 0.50043 0.39272 0.0
H288 H 0.89393 0.50686 0.31127 0.0
H289 H 0.90242 0.55844 0.33299 0.0
C290 C 0.85493 0.67486 0.40883 0.0
C291 C 0.84615 0.67186 0.38031 0.0
C292 C 0.87478 0.66314 0.41495 0.0
C293 C 0.88612 0.64818 0.39266 0.0
C294 C 0.87778 0.64574 0.36436 0.0
C295 C 0.85818 0.65761 0.35827 0.0
C296 C 0.90614 0.63406 0.39833 0.0
C297 C 0.90239 0.60482 0.38554 0.0
C298 C 0.9288 0.649 0.41554 0.0
C299 C 0.93388 0.67991 0.42942 0.0
C300 C 0.93196 0.69735 0.41294 0.0
C301 C 0.93667 0.72648 0.42625 0.0
C302 C 0.94349 0.73843 0.45602 0.0
C303 C 0.94569 0.72126 0.47252 0.0
C304 C 0.94098 0.69211 0.45931 0.0
C305 C 0.9902 0.56093 0.37779 0.0
C306 C 0.00329 0.56122 0.40343 0.0
C307 C 0.97156 0.57596 0.3784 0.0
C308 C 0.96526 0.59133 0.40462 0.0
C309 C 0.97887 0.59261 0.43036 0.0
C310 C 0.99775 0.57765 0.42978 0.0
C311 C 0.94402 0.60528 0.40467 0.0
C312 C 0.94745 0.63439 0.4186 0.0
C313 C 0.92088 0.59019 0.38878 0.0
C314 C 0.91548 0.55911 0.37564 0.0
C315 C 0.91989 0.5424 0.39234 0.0
C316 C 0.91513 0.51318 0.3798 0.0
C317 C 0.90581 0.50039 0.35059 0.0
C318 C 0.90116 0.5168 0.33389 0.0
C319 C 0.90591 0.54603 0.34631 0.0
H320 H 0.90215 0.47777 0.34092 0.0
H321 H 0.94714 0.76098 0.46629 0.0
H322 H 0.85046 0.31746 0.9493 0.0
H323 H 0.88717 0.35071 0.95172 0.0
H324 H 0.85191 0.41946 0.9895 0.0
H325 H 0.81425 0.38623 0.98476 0.0
H326 H 0.87585 0.43212 0.95372 0.0
H327 H 0.89775 0.39919 0.02924 0.0
H328 H 0.90272 0.36501 0.05345 0.0
H329 H 0.95184 0.33156 0.99673 0.0
H330 H 0.9469 0.36528 0.97188 0.0
H331 H 0.99172 0.52669 0.98334 0.0
H332 H 0.95762 0.49877 0.99582 0.0
H333 H 0.9682 0.42402 0.93134 0.0
H334 H 1.00167 0.45181 0.91823 0.0
H335 H 0.95761 0.41966 0.98839 0.0
H336 H 0.92986 0.45229 0.91063 0.0
H337 H 0.92637 0.49031 0.89133 0.0
H338 H 0.8886 0.52874 0.95984 0.0
H339 H 0.8924 0.49126 0.97994 0.0
C340 C 0.85025 0.33962 0.95774 0.0
C341 C 0.82916 0.34899 0.96673 0.0
C342 C 0.87155 0.35871 0.95965 0.0
C343 C 0.87264 0.38772 0.97142 0.0
C344 C 0.85168 0.39721 0.98052 0.0
C345 C 0.83017 0.3781 0.97809 0.0
C346 C 0.89534 0.40799 0.97305 0.0
C347 C 0.89363 0.42963 0.96189 0.0
C348 C 0.91872 0.40499 0.98367 0.0
C349 C 0.92181 0.38466 0.99856 0.0
C350 C 0.90948 0.38442 0.02179 0.0
C351 C 0.91232 0.36514 0.03565 0.0
C352 C 0.92755 0.34609 0.0266 0.0
C353 C 0.94003 0.34632 0.0037 0.0
C354 C 0.93725 0.36554 0.98975 0.0
C355 C 0.98708 0.50421 0.97231 0.0
C356 C 0.9992 0.49136 0.94976 0.0
C357 C 0.96761 0.48835 0.9794 0.0
C358 C 0.96044 0.4594 0.96442 0.0
C359 C 0.97355 0.44632 0.94318 0.0
C360 C 0.99257 0.46221 0.93565 0.0
C361 C 0.93787 0.44303 0.96866 0.0
C362 C 0.93968 0.42221 0.98079 0.0
C363 C 0.91459 0.44717 0.9596 0.0
C364 C 0.91169 0.46918 0.94699 0.0
C365 C 0.921 0.46897 0.92171 0.0
C366 C 0.91895 0.49042 0.91062 0.0
C367 C 0.90734 0.51198 0.9244 0.0
C368 C 0.89764 0.51206 0.94923 0.0
C369 C 0.89975 0.49074 0.96049 0.0
H370 H 0.90581 0.52859 0.91583 0.0
H371 H 0.92972 0.33118 0.03736 0.0
H372 H 0.32311 0.20911 0.44835 0.0
H373 H 0.31995 0.17025 0.46688 0.0
H374 H 0.2457 0.17626 0.4787 0.0
H375 H 0.24881 0.21522 0.46032 0.0
H376 H 0.27023 0.17219 0.52497 0.0
H377 H 0.25896 0.12252 0.42358 0.0
H378 H 0.26924 0.11152 0.37465 0.0
H379 H 0.3366 0.09173 0.40267 0.0
H380 H 0.32688 0.10298 0.45188 0.0
H381 H 0.24408 0.04539 0.55587 0.0
H382 H 0.24233 0.07912 0.53069 0.0
H383 H 0.31856 0.08311 0.52334 0.0
H384 H 0.3205 0.04966 0.54846 0.0
H385 H 0.29055 0.08051 0.47321 0.0
H386 H 0.30339 0.13286 0.57448 0.0
H387 H 0.29404 0.14435 0.62384 0.0
H388 H 0.22446 0.15955 0.59615 0.0
H389 H 0.23323 0.14767 0.54648 0.0
C390 C 0.30601 0.2019 0.45453 0.0
C391 C 0.2862 0.21521 0.45284 0.0
C392 C 0.30422 0.17969 0.46514 0.0
C393 C 0.28249 0.17014 0.47393 0.0
C394 C 0.26265 0.18329 0.47209 0.0
C395 C 0.26447 0.20558 0.46163 0.0
C396 C 0.28071 0.14704 0.48591 0.0
C397 C 0.27424 0.15197 0.5134 0.0
C398 C 0.28648 0.12085 0.47113 0.0
C399 C 0.29227 0.11382 0.44148 0.0
C400 C 0.27604 0.116 0.41936 0.0
C401 C 0.28176 0.1097 0.39156 0.0
C402 C 0.30358 0.101 0.38557 0.0
C403 C 0.31971 0.0985 0.40735 0.0
C404 C 0.31409 0.1048 0.43519 0.0
C405 C 0.26038 0.05325 0.54863 0.0
C406 C 0.28246 0.04502 0.55434 0.0
C407 C 0.25938 0.07256 0.53434 0.0
C408 C 0.28038 0.08375 0.52537 0.0
C409 C 0.30216 0.07474 0.53009 0.0
C410 C 0.30325 0.05572 0.54459 0.0
C411 C 0.28008 0.10575 0.51215 0.0
C412 C 0.28625 0.10064 0.48455 0.0
C413 C 0.27411 0.1318 0.52684 0.0
C414 C 0.26884 0.13904 0.5567 0.0
C415 C 0.286 0.1384 0.57886 0.0
C416 C 0.28083 0.14503 0.6069 0.0
C417 C 0.25865 0.15261 0.61311 0.0
C418 C 0.24161 0.15362 0.59129 0.0
C419 C 0.24667 0.14694 0.56319 0.0
H420 H 0.25469 0.15775 0.63484 0.0
H421 H 0.30798 0.09614 0.36405 0.0
H422 H 0.36157 0.75726 0.85176 0.0
H423 H 0.39781 0.74913 0.87652 0.0
H424 H 0.3543 0.67808 0.8889 0.0
H425 H 0.31792 0.68597 0.86395 0.0
H426 H 0.38455 0.71079 0.93743 0.0
H427 H 0.3922 0.66835 0.83896 0.0
H428 H 0.3933 0.66565 0.78879 0.0
H429 H 0.45536 0.73382 0.81628 0.0
H430 H 0.45442 0.73721 0.8667 0.0
H431 H 0.48883 0.66562 0.98611 0.0
H432 H 0.45234 0.66437 0.95412 0.0
H433 H 0.48605 0.74291 0.94728 0.0
H434 H 0.52238 0.74456 0.97957 0.0
H435 H 0.46005 0.70167 0.89399 0.0
H436 H 0.44952 0.74744 0.99181 0.0
H437 H 0.44848 0.7516 0.04237 0.0
H438 H 0.39211 0.67746 0.01585 0.0
H439 H 0.39299 0.6727 0.96502 0.0
C440 C 0.35974 0.73971 0.85946 0.0
C441 C 0.33686 0.72223 0.85579 0.0
C442 C 0.38048 0.73509 0.87363 0.0
C443 C 0.37883 0.71277 0.88425 0.0
C444 C 0.356 0.69541 0.88086 0.0
C445 C 0.33521 0.70002 0.86669 0.0
C446 C 0.4009 0.70803 0.89944 0.0
C447 C 0.40088 0.70823 0.92769 0.0
C448 C 0.42239 0.70524 0.88696 0.0
C449 C 0.42311 0.70317 0.85665 0.0
C450 C 0.40597 0.68291 0.83434 0.0
C451 C 0.40658 0.68123 0.80585 0.0
C452 C 0.42435 0.69959 0.79936 0.0
C453 C 0.44159 0.71962 0.82135 0.0
C454 C 0.44104 0.72141 0.84988 0.0
C455 C 0.48863 0.68236 0.97737 0.0
C456 C 0.5084 0.70525 0.9854 0.0
C457 C 0.46776 0.68166 0.95922 0.0
C458 C 0.46652 0.70363 0.94852 0.0
C459 C 0.48671 0.72576 0.95531 0.0
C460 C 0.50739 0.72671 0.97382 0.0
C461 C 0.44362 0.70463 0.93186 0.0
C462 C 0.44355 0.70381 0.90345 0.0
C463 C 0.42204 0.70687 0.94415 0.0
C464 C 0.42152 0.70954 0.97463 0.0
C465 C 0.43708 0.73186 0.99674 0.0
C466 C 0.43648 0.73436 0.02544 0.0
C467 C 0.42028 0.71477 0.0323 0.0
C468 C 0.40466 0.6926 0.01048 0.0
C469 C 0.40518 0.69001 0.98172 0.0
H470 H 0.41974 0.71689 0.05453 0.0
H471 H 0.4248 0.69826 0.77729 0.0
H472 H 0.8047 0.7376 0.44209 0.0
H473 H 0.79642 0.78139 0.47369 0.0
H474 H 0.77187 0.80244 0.40002 0.0
H475 H 0.78097 0.75905 0.3682 0.0
H476 H 0.80009 0.84687 0.43959 0.0
H477 H 0.73083 0.78005 0.43832 0.0
H478 H 0.70839 0.73628 0.44183 0.0
H479 H 0.74143 0.76135 0.53001 0.0
H480 H 0.76435 0.8051 0.52693 0.0
H481 H 0.73638 0.93719 0.5616 0.0
H482 H 0.73502 0.89485 0.52014 0.0
H483 H 0.8137 0.91056 0.53282 0.0
H484 H 0.81523 0.95274 0.57357 0.0
H485 H 0.75093 0.84809 0.51744 0.0
H486 H 0.83475 0.88835 0.47082 0.0
H487 H 0.8544 0.93221 0.46499 0.0
H488 H 0.78649 0.96049 0.46764 0.0
H489 H 0.76633 0.91664 0.47306 0.0
C490 C 0.79776 0.75164 0.43256 0.0
C491 C 0.79353 0.74476 0.40256 0.0
C492 C 0.79274 0.77654 0.45068 0.0
C493 C 0.78316 0.79506 0.43925 0.0
C494 C 0.77911 0.78842 0.40933 0.0
C495 C 0.78417 0.7635 0.39117 0.0
C496 C 0.77801 0.82163 0.45867 0.0
C497 C 0.78924 0.84713 0.45651 0.0
C498 C 0.76328 0.82201 0.48029 0.0
C499 C 0.74944 0.79578 0.48233 0.0
C500 C 0.73344 0.77615 0.45841 0.0
C501 C 0.72062 0.75135 0.46033 0.0
C502 C 0.72351 0.74602 0.48611 0.0
C503 C 0.73921 0.7655 0.51005 0.0
C504 C 0.7521 0.79033 0.50824 0.0
C505 C 0.75336 0.93178 0.5553 0.0
C506 C 0.7759 0.94843 0.57091 0.0
C507 C 0.75256 0.90753 0.53168 0.0
C508 C 0.77426 0.89966 0.52313 0.0
C509 C 0.7967 0.91642 0.53858 0.0
C510 C 0.79752 0.94054 0.56206 0.0
C511 C 0.77378 0.87331 0.49901 0.0
C512 C 0.76153 0.84784 0.5003 0.0
C513 C 0.78716 0.87296 0.47624 0.0
C514 C 0.79907 0.89925 0.47254 0.0
C515 C 0.82397 0.90385 0.46999 0.0
C516 C 0.8352 0.92873 0.4668 0.0
C517 C 0.82171 0.94915 0.46601 0.0
C518 C 0.79693 0.9447 0.46834 0.0
C519 C 0.7856 0.91984 0.47151 0.0
H520 H 0.83046 0.96841 0.46357 0.0
H521 H 0.71357 0.7268 0.48755 0.0
H522 H 0.73051 0.31448 0.06357 0.0
H523 H 0.69543 0.29693 0.08269 0.0
H524 H 0.6597 0.24699 0.99656 0.0
H525 H 0.69493 0.26541 0.97736 0.0
H526 H 0.62922 0.27393 0.02479 0.0
H527 H 0.68077 0.2164 0.04551 0.0
H528 H 0.71839 0.20389 0.06294 0.0
H529 H 0.71642 0.257 0.14882 0.0
H530 H 0.67902 0.27021 0.13188 0.0
H531 H 0.53372 0.22924 0.09893 0.0
H532 H 0.56616 0.22483 0.06871 0.0
H533 H 0.61509 0.29231 0.13625 0.0
H534 H 0.58286 0.29728 0.16597 0.0
H535 H 0.63568 0.24396 0.10999 0.0
H536 H 0.5895 0.30808 0.08555 0.0
H537 H 0.55242 0.32122 0.06771 0.0
H538 H 0.54439 0.25343 0.98771 0.0
H539 H 0.58135 0.23967 0.0053 0.0
C540 C 0.71533 0.29935 0.0488 0.0
C541 C 0.71531 0.29102 0.01914 0.0
C542 C 0.69533 0.28918 0.05972 0.0
C543 C 0.675 0.27018 0.04115 0.0
C544 C 0.67522 0.26144 0.01134 0.0
C545 C 0.69529 0.27182 1.00038 0.0
C546 C 0.65296 0.26163 0.05311 0.0
C547 C 0.63053 0.26658 0.04289 0.0
C548 C 0.65457 0.25229 0.07696 0.0
C549 C 0.67711 0.24441 0.08735 0.0
C550 C 0.68844 0.22558 0.06808 0.0
C551 C 0.70973 0.21834 0.07789 0.0
C552 C 0.7198 0.22967 0.10696 0.0
C553 C 0.70859 0.24824 0.1263 0.0
C554 C 0.68732 0.25558 0.11661 0.0
C555 C 0.55145 0.24299 0.10727 0.0
C556 C 0.55574 0.26376 0.13465 0.0
C557 C 0.5699 0.24048 0.09004 0.0
C558 C 0.59297 0.25829 0.10028 0.0
C559 C 0.59743 0.27836 0.12796 0.0
C560 C 0.57894 0.28128 0.14483 0.0
C561 C 0.61248 0.25713 0.08214 0.0
C562 C 0.63435 0.25043 0.09129 0.0
C563 C 0.61034 0.26465 0.05724 0.0
C564 C 0.58794 0.2726 0.04688 0.0
C565 C 0.57965 0.29576 0.06429 0.0
C566 C 0.5587 0.30338 0.05419 0.0
C567 C 0.54599 0.28811 0.02661 0.0
C568 C 0.55422 0.26519 0.00909 0.0
C569 C 0.57516 0.25748 0.01911 0.0
H570 H 0.52983 0.2941 0.01875 0.0
H571 H 0.73628 0.22404 0.1145 0.0
H572 H 0.24401 0.76669 0.74076 0.0
H573 H 0.236 0.80239 0.71982 0.0
H574 H 0.30999 0.84821 0.75325 0.0
H575 H 0.31763 0.81303 0.77461 0.0
H576 H 0.28041 0.88373 0.75832 0.0
H577 H 0.29215 0.80184 0.68266 0.0
H578 H 0.2828 0.75184 0.65233 0.0
H579 H 0.21028 0.75892 0.62396 0.0
H580 H 0.21913 0.80891 0.65442 0.0
H581 H 0.31517 0.95519 0.66539 0.0
H582 H 0.30926 0.92297 0.69199 0.0
H583 H 0.23315 0.8969 0.65467 0.0
H584 H 0.23892 0.9293 0.62772 0.0
H585 H 0.25569 0.85214 0.65272 0.0
H586 H 0.24778 0.93731 0.72324 0.0
H587 H 0.25927 0.98759 0.7523 0.0
H588 H 0.32657 0.97471 0.78961 0.0
H589 H 0.31566 0.9244 0.76046 0.0
C590 C 0.25829 0.78473 0.74399 0.0
C591 C 0.28136 0.78741 0.75925 0.0
C592 C 0.25381 0.80497 0.7319 0.0
C593 C 0.2725 0.82784 0.73461 0.0
C594 C 0.29526 0.83086 0.75088 0.0
C595 C 0.29965 0.81078 0.76305 0.0
C596 C 0.26912 0.84795 0.71942 0.0
C597 C 0.27505 0.8768 0.73522 0.0
C598 C 0.26151 0.83899 0.68935 0.0
C599 C 0.25619 0.80898 0.67107 0.0
C600 C 0.27415 0.79266 0.67012 0.0
C601 C 0.26896 0.76435 0.65289 0.0
C602 C 0.24593 0.75219 0.63631 0.0
C603 C 0.22808 0.76835 0.63687 0.0
C604 C 0.23317 0.79667 0.6541 0.0
C605 C 0.29711 0.94272 0.66284 0.0
C606 C 0.2775 0.94486 0.64441 0.0
C607 C 0.29374 0.9244 0.67822 0.0
C608 C 0.2707 0.90777 0.67559 0.0
C609 C 0.25106 0.90966 0.65711 0.0
C610 C 0.25438 0.92821 0.64179 0.0
C611 C 0.26765 0.88784 0.69154 0.0
C612 C 0.26053 0.85905 0.67589 0.0
C613 C 0.27439 0.89686 0.72171 0.0
C614 C 0.28094 0.92708 0.73952 0.0
C615 C 0.2651 0.94522 0.7375 0.0
C616 C 0.27151 0.97373 0.75402 0.0
C617 C 0.29365 0.98434 0.77276 0.0
C618 C 0.30942 0.96645 0.77508 0.0
C619 C 0.30311 0.93793 0.7586 0.0
H620 H 0.29858 0.00643 0.78552 0.0
H621 H 0.24194 0.73026 0.62297 0.0
H622 H 0.75291 0.71538 0.28929 0.0
H623 H 0.7236 0.72281 0.25385 0.0
H624 H 0.68212 0.63911 0.23512 0.0
H625 H 0.71154 0.63171 0.27029 0.0
H626 H 0.69079 0.64933 0.18666 0.0
H627 H 0.66113 0.69648 0.27336 0.0
H628 H 0.66475 0.73059 0.3222 0.0
H629 H 0.68751 0.79828 0.29164 0.0
H630 H 0.68435 0.76453 0.24267 0.0
H631 H 0.58778 0.65907 0.09882 0.0
H632 H 0.6148 0.6529 0.13687 0.0
H633 H 0.65319 0.73862 0.16043 0.0
H634 H 0.62587 0.74515 0.12307 0.0
H635 H 0.64591 0.72743 0.20688 0.0
H636 H 0.67713 0.68225 0.1215 0.0
H637 H 0.67526 0.64944 0.07239 0.0
H638 H 0.65191 0.57974 0.09984 0.0
H639 H 0.65334 0.61219 0.14907 0.0
C640 C 0.73728 0.69884 0.27785 0.0
C641 C 0.73416 0.67311 0.28243 0.0
C642 C 0.72058 0.70305 0.25767 0.0
C643 C 0.70058 0.68154 0.24193 0.0
C644 C 0.69739 0.65597 0.24699 0.0
C645 C 0.71406 0.65181 0.26714 0.0
C646 C 0.68356 0.68517 0.2193 0.0
C647 C 0.68068 0.66616 0.19115 0.0
C648 C 0.67098 0.70763 0.22499 0.0
C649 C 0.67271 0.72795 0.2544 0.0
C650 C 0.66708 0.71862 0.27709 0.0
C651 C 0.66902 0.73789 0.3048 0.0
C652 C 0.67642 0.76657 0.31004 0.0
C653 C 0.68181 0.77605 0.28756 0.0
C654 C 0.67992 0.75686 0.25982 0.0
C655 C 0.60201 0.67657 0.11206 0.0
C656 C 0.6047 0.70257 0.10786 0.0
C657 C 0.61751 0.673 0.13376 0.0
C658 C 0.63624 0.69521 0.15135 0.0
C659 C 0.63887 0.72119 0.1472 0.0
C660 C 0.62326 0.72485 0.12573 0.0
C661 C 0.65305 0.69152 0.17419 0.0
C662 C 0.65594 0.71053 0.20237 0.0
C663 C 0.66589 0.66925 0.16847 0.0
C664 C 0.66511 0.64967 0.13891 0.0
C665 C 0.67143 0.65994 0.11702 0.0
C666 C 0.67047 0.64141 0.08917 0.0
C667 C 0.66341 0.61253 0.08298 0.0
C668 C 0.65735 0.60212 0.10466 0.0
C669 C 0.65824 0.62057 0.13254 0.0
H670 H 0.66268 0.59821 0.0614 0.0
H671 H 0.67792 0.78146 0.3315 0.0
H672 H 0.73575 0.25617 0.9025 0.0
H673 H 0.72925 0.21456 0.85882 0.0
H674 H 0.80411 0.20739 0.87671 0.0
H675 H 0.81064 0.24869 0.92 0.0
H676 H 0.79304 0.20663 0.82299 0.0
H677 H 0.75641 0.16146 0.88479 0.0
H678 H 0.72724 0.15439 0.91698 0.0
H679 H 0.66732 0.13928 0.84993 0.0
H680 H 0.69617 0.14665 0.81745 0.0
H681 H 0.80581 0.07692 0.73384 0.0
H682 H 0.80114 0.11491 0.77592 0.0
H683 H 0.7268 0.10831 0.73923 0.0
H684 H 0.73119 0.06949 0.6968 0.0
H685 H 0.73224 0.11793 0.79821 0.0
H686 H 0.76966 0.1588 0.73497 0.0
H687 H 0.79943 0.16425 0.70289 0.0
H688 H 0.85825 0.18747 0.77313 0.0
H689 H 0.82888 0.18171 0.80553 0.0
C690 C 0.75063 0.24534 0.89732 0.0
C691 C 0.77377 0.25582 0.91446 0.0
C692 C 0.74693 0.22163 0.87236 0.0
C693 C 0.76625 0.20795 0.8644 0.0
C694 C 0.78901 0.21776 0.88224 0.0
C695 C 0.79272 0.24136 0.90698 0.0
C696 C 0.76356 0.18443 0.83678 0.0
C697 C 0.77983 0.18719 0.8177 0.0
C698 C 0.74575 0.15942 0.82933 0.0
C699 C 0.72843 0.15495 0.84881 0.0
C700 C 0.73701 0.15688 0.877 0.0
C701 C 0.72054 0.15277 0.89528 0.0
C702 C 0.69544 0.14648 0.88554 0.0
C703 C 0.68676 0.14421 0.85746 0.0
C704 C 0.70317 0.14834 0.83911 0.0
C705 C 0.78838 0.08337 0.73463 0.0
C706 C 0.76895 0.07039 0.71175 0.0
C707 C 0.78576 0.10515 0.75877 0.0
C708 C 0.76379 0.11482 0.76048 0.0
C709 C 0.74396 0.10124 0.73825 0.0
C710 C 0.74652 0.07915 0.71402 0.0
C711 C 0.76229 0.13989 0.78507 0.0
C712 C 0.7452 0.13753 0.80339 0.0
C713 C 0.77936 0.16538 0.79193 0.0
C714 C 0.79705 0.16966 0.77265 0.0
C715 C 0.78895 0.16496 0.74355 0.0
C716 C 0.80576 0.16809 0.72531 0.0
C717 C 0.83072 0.17613 0.73596 0.0
C718 C 0.83891 0.18122 0.76491 0.0
C719 C 0.82219 0.17807 0.78324 0.0
H720 H 0.84373 0.17842 0.72181 0.0
H721 H 0.68271 0.1433 0.89972 0.0
H722 H 0.30071 0.22 0.35881 0.0
H723 H 0.32719 0.21941 0.32249 0.0
H724 H 0.36067 0.30595 0.36925 0.0
H725 H 0.33457 0.30662 0.40588 0.0
H726 H 0.35234 0.29488 0.31096 0.0
H727 H 0.388 0.25462 0.37643 0.0
H728 H 0.3878 0.22122 0.40257 0.0
H729 H 0.37302 0.15236 0.32262 0.0
H730 H 0.37277 0.18536 0.296 0.0
H731 H 0.46465 0.31135 0.26164 0.0
H732 H 0.43245 0.30774 0.29042 0.0
H733 H 0.40841 0.21996 0.24014 0.0
H734 H 0.44108 0.22328 0.21136 0.0
H735 H 0.40895 0.22839 0.29617 0.0
H736 H 0.37643 0.26842 0.23038 0.0
H737 H 0.37629 0.30151 0.20392 0.0
H738 H 0.38443 0.37008 0.28328 0.0
H739 H 0.38498 0.33745 0.31027 0.0
C740 C 0.31367 0.23894 0.36136 0.0
C741 C 0.31563 0.2633 0.38543 0.0
C742 C 0.32875 0.23857 0.34053 0.0
C743 C 0.34614 0.26252 0.34336 0.0
C744 C 0.34738 0.28723 0.36663 0.0
C745 C 0.33235 0.2876 0.3875 0.0
C746 C 0.3638 0.26157 0.32287 0.0
C747 C 0.36486 0.28051 0.30788 0.0
C748 C 0.37967 0.24227 0.31825 0.0
C749 C 0.38009 0.22244 0.33423 0.0
C750 C 0.38452 0.23234 0.36443 0.0
C751 C 0.38452 0.21349 0.37933 0.0
C752 C 0.38033 0.18468 0.36427 0.0
C753 C 0.37622 0.17468 0.33426 0.0
C754 C 0.37616 0.19345 0.31925 0.0
C755 C 0.45255 0.29122 0.2566 0.0
C756 C 0.4554 0.26762 0.23404 0.0
C757 C 0.43403 0.28924 0.27304 0.0
C758 C 0.4177 0.2637 0.26714 0.0
C759 C 0.42071 0.23993 0.24498 0.0
C760 C 0.43937 0.24187 0.22853 0.0
C761 C 0.39776 0.26199 0.2845 0.0
C762 C 0.39628 0.24257 0.29895 0.0
C763 C 0.38143 0.28079 0.28853 0.0
C764 C 0.38093 0.30049 0.27237 0.0
C765 C 0.37836 0.29058 0.24221 0.0
C766 C 0.37818 0.30925 0.22711 0.0
C767 C 0.3804 0.33789 0.24191 0.0
C768 C 0.38273 0.34789 0.27185 0.0
C769 C 0.38294 0.32931 0.28706 0.0
H770 H 0.38026 0.35231 0.23018 0.0
H771 H 0.38032 0.17011 0.37584 0.0
H772 H 0.8442 0.6954 0.8837 0.0
H773 H 0.8731 0.66602 0.88947 0.0
H774 H 0.85891 0.62104 0.7982 0.0
H775 H 0.82929 0.64967 0.79238 0.0
H776 H 0.86359 0.5858 0.8277 0.0
H777 H 0.90865 0.67282 0.82719 0.0
H778 H 0.92118 0.72425 0.8424 0.0
H779 H 0.94613 0.72803 0.92805 0.0
H780 H 0.93342 0.67662 0.91344 0.0
H781 H 0.97377 0.53049 0.82567 0.0
H782 H 0.94048 0.5536 0.81637 0.0
H783 H 0.95049 0.60272 0.90649 0.0
H784 H 0.98376 0.58022 0.91585 0.0
H785 H 0.94798 0.6351 0.87453 0.0
H786 H 0.90166 0.54752 0.87465 0.0
H787 H 0.88881 0.49602 0.85872 0.0
H788 H 0.86695 0.49323 0.77271 0.0
H789 H 0.87979 0.54468 0.78808 0.0
C790 C 0.84686 0.67891 0.86492 0.0
C791 C 0.83461 0.67507 0.83754 0.0
C792 C 0.86356 0.6623 0.86821 0.0
C793 C 0.86849 0.64168 0.84418 0.0
C794 C 0.85551 0.63695 0.817 0.0
C795 C 0.83876 0.6535 0.81369 0.0
C796 C 0.88795 0.62596 0.8473 0.0
C797 C 0.88212 0.59654 0.83763 0.0
C798 C 0.91208 0.63998 0.86045 0.0
C799 C 0.91987 0.67089 0.86927 0.0
C800 C 0.91665 0.68463 0.84932 0.0
C801 C 0.9238 0.71378 0.85783 0.0
C802 C 0.93439 0.72941 0.88619 0.0
C803 C 0.9379 0.7159 0.90609 0.0
C804 C 0.93074 0.68676 0.8977 0.0
C805 C 0.96878 0.54612 0.84349 0.0
C806 C 0.98153 0.55362 0.87146 0.0
C807 C 0.94969 0.55922 0.83817 0.0
C808 C 0.94294 0.57982 0.86077 0.0
C809 C 0.95544 0.58698 0.8887 0.0
C810 C 0.97448 0.57404 0.894 0.0
C811 C 0.92354 0.59491 0.8555 0.0
C812 C 0.92945 0.6243 0.86461 0.0
C813 C 0.89957 0.58082 0.84173 0.0
C814 C 0.89193 0.5499 0.83246 0.0
C815 C 0.8943 0.53589 0.8523 0.0
C816 C 0.88699 0.50673 0.84339 0.0
C817 C 0.87719 0.49137 0.81472 0.0
C818 C 0.87459 0.50514 0.79491 0.0
C819 C 0.88184 0.53431 0.80371 0.0
H820 H 0.87154 0.46879 0.80787 0.0
H821 H 0.93992 0.75197 0.89274 0.0
H822 H 0.81402 0.34149 0.42513 0.0
H823 H 0.85147 0.36884 0.41955 0.0
H824 H 0.88607 0.29758 0.40729 0.0
H825 H 0.84787 0.26934 0.41072 0.0
H826 H 0.89479 0.38737 0.44405 0.0
H827 H 0.92664 0.29702 0.36117 0.0
H828 H 0.909 0.25087 0.32421 0.0
H829 H 0.8405 0.27634 0.31414 0.0
H830 H 0.85782 0.32272 0.35076 0.0
H831 H 0.00988 0.44455 0.42222 0.0
H832 H 0.9768 0.41262 0.43066 0.0
H833 H 0.9391 0.395 0.34515 0.0
H834 H 0.97277 0.42616 0.33619 0.0
H835 H 0.93247 0.34926 0.35729 0.0
H836 H 0.92449 0.44327 0.40529 0.0
H837 H 0.93777 0.49239 0.43765 0.0
H838 H 0.95035 0.46479 0.5095 0.0
H839 H 0.93752 0.41545 0.47751 0.0
C840 C 0.82954 0.33152 0.42111 0.0
C841 C 0.8277 0.30298 0.41768 0.0
C842 C 0.8511 0.34733 0.41822 0.0
C843 C 0.87152 0.33517 0.41231 0.0
C844 C 0.87037 0.30727 0.41107 0.0
C845 C 0.8486 0.29123 0.41346 0.0
C846 C 0.89342 0.35151 0.40623 0.0
C847 C 0.90308 0.37892 0.42516 0.0
C848 C 0.90397 0.3409 0.38119 0.0
C849 C 0.89345 0.31319 0.35894 0.0
C850 C 0.90783 0.29277 0.351 0.0
C851 C 0.89789 0.26658 0.33012 0.0
C852 C 0.87362 0.26064 0.31692 0.0
C853 C 0.85927 0.28092 0.32447 0.0
C854 C 0.86913 0.30716 0.34529 0.0
C855 C 0.99464 0.43367 0.40511 0.0
C856 C 0.99378 0.43805 0.37863 0.0
C857 C 0.97569 0.4155 0.41 0.0
C858 C 0.95516 0.40187 0.3888 0.0
C859 C 0.9547 0.40534 0.36189 0.0
C860 C 0.97392 0.42318 0.35679 0.0
C861 C 0.93379 0.38501 0.39515 0.0
C862 C 0.92428 0.35757 0.37631 0.0
C863 C 0.92268 0.396 0.41962 0.0
C864 C 0.93028 0.42566 0.43896 0.0
C865 C 0.93025 0.44766 0.42796 0.0
C866 C 0.93768 0.47554 0.44623 0.0
C867 C 0.94495 0.4817 0.47559 0.0
C868 C 0.94475 0.45998 0.48675 0.0
C869 C 0.9374 0.43206 0.46857 0.0
H870 H 0.95068 0.50329 0.4897 0.0
H871 H 0.86595 0.24035 0.30078 0.0
H872 H 0.24391 0.35149 0.84677 0.0
H873 H 0.20383 0.36487 0.8448 0.0
H874 H 0.22665 0.4269 0.92957 0.0
H875 H 0.26645 0.41316 0.93161 0.0
H876 H 0.1801 0.40039 0.92344 0.0
H877 H 0.2288 0.44471 0.86905 0.0
H878 H 0.25353 0.44533 0.83086 0.0
H879 H 0.19311 0.39286 0.7669 0.0
H880 H 0.16812 0.39165 0.80478 0.0
H881 H 0.10599 0.4995 0.9299 0.0
H882 H 0.13894 0.47378 0.9284 0.0
H883 H 0.10747 0.41953 0.8422 0.0
H884 H 0.07455 0.44574 0.84327 0.0
H885 H 0.15501 0.43587 0.84572 0.0
H886 H 0.10461 0.39636 0.90031 0.0
H887 H 0.07997 0.39673 0.93876 0.0
H888 H 0.14317 0.44021 0.00248 0.0
H889 H 0.16813 0.44046 0.96443 0.0
C890 C 0.2401 0.36769 0.86504 0.0
C891 C 0.25798 0.38139 0.88933 0.0
C892 C 0.21733 0.37542 0.86388 0.0
C893 C 0.21233 0.39714 0.88691 0.0
C894 C 0.23007 0.41009 0.91158 0.0
C895 C 0.25276 0.40231 0.91273 0.0
C896 C 0.18918 0.40741 0.88498 0.0
C897 C 0.17466 0.40829 0.90654 0.0
C898 C 0.18172 0.41702 0.8625 0.0
C899 C 0.1967 0.41783 0.83974 0.0
C900 C 0.22086 0.43314 0.84685 0.0
C901 C 0.23491 0.43362 0.82526 0.0
C902 C 0.22493 0.41907 0.79648 0.0
C903 C 0.20084 0.40407 0.78921 0.0
C904 C 0.18672 0.40349 0.81072 0.0
C905 C 0.10591 0.48198 0.91064 0.0
C906 C 0.08756 0.47465 0.88671 0.0
C907 C 0.12474 0.46716 0.90989 0.0
C908 C 0.12551 0.44439 0.88537 0.0
C909 C 0.1072 0.43694 0.86141 0.0
C910 C 0.08838 0.45192 0.86207 0.0
C911 C 0.14608 0.42931 0.88447 0.0
C912 C 0.16017 0.42756 0.86239 0.0
C913 C 0.15313 0.41891 0.9065 0.0
C914 C 0.13821 0.41858 0.92948 0.0
C915 C 0.11323 0.40616 0.92252 0.0
C916 C 0.09921 0.40624 0.94425 0.0
C917 C 0.10999 0.41853 0.97304 0.0
C918 C 0.13484 0.4307 0.98017 0.0
C919 C 0.14894 0.4307 0.95852 0.0
H920 H 0.0991 0.41858 0.98984 0.0
H921 H 0.23583 0.41947 0.77979 0.0
H922 H 0.26447 0.63677 0.27359 0.0
H923 H 0.22828 0.60666 0.27907 0.0
H924 H 0.19994 0.67956 0.32204 0.0
H925 H 0.23513 0.70986 0.31515 0.0
H926 H 0.20525 0.63491 0.35086 0.0
H927 H 0.17214 0.64985 0.26407 0.0
H928 H 0.17244 0.64845 0.21416 0.0
H929 H 0.16986 0.55972 0.18644 0.0
H930 H 0.16992 0.56069 0.23631 0.0
H931 H 0.09086 0.58059 0.37423 0.0
H932 H 0.12365 0.60818 0.3602 0.0
H933 H 0.12871 0.53453 0.29008 0.0
H934 H 0.09484 0.50714 0.30324 0.0
H935 H 0.13689 0.57712 0.27337 0.0
H936 H 0.16869 0.55885 0.35585 0.0
H937 H 0.17099 0.55677 0.40477 0.0
H938 H 0.18012 0.64638 0.43989 0.0
H939 H 0.17751 0.64896 0.39112 0.0
C940 C 0.25035 0.64649 0.28366 0.0
C941 C 0.25294 0.6759 0.29407 0.0
C942 C 0.22976 0.6292 0.28692 0.0
C943 C 0.21158 0.64098 0.30098 0.0
C944 C 0.21391 0.67016 0.31123 0.0
C945 C 0.2342 0.68743 0.30749 0.0
C946 C 0.19055 0.623 0.30618 0.0
C947 C 0.19012 0.6225 0.33406 0.0
C948 C 0.17147 0.60599 0.28391 0.0
C949 C 0.17135 0.60541 0.25396 0.0
C950 C 0.17191 0.6301 0.24738 0.0
C951 C 0.17195 0.62937 0.21909 0.0
C952 C 0.17125 0.60403 0.19715 0.0
C953 C 0.17044 0.57934 0.20346 0.0
C954 C 0.17042 0.57997 0.23173 0.0
C955 C 0.09878 0.57037 0.35562 0.0
C956 C 0.09049 0.5417 0.33996 0.0
C957 C 0.11764 0.5861 0.34771 0.0
C958 C 0.12922 0.57328 0.3246 0.0
C959 C 0.12022 0.54487 0.30813 0.0
C960 C 0.10088 0.52924 0.31564 0.0
C961 C 0.15115 0.5894 0.3184 0.0
C962 C 0.15194 0.58944 0.2903 0.0
C963 C 0.17096 0.60549 0.34038 0.0
C964 C 0.17269 0.60407 0.3698 0.0
C965 C 0.17102 0.5781 0.37399 0.0
C966 C 0.1724 0.57683 0.4017 0.0
C967 C 0.17565 0.60142 0.42542 0.0
C968 C 0.17758 0.62734 0.42149 0.0
C969 C 0.17617 0.62873 0.39382 0.0
H970 H 0.17671 0.6004 0.44686 0.0
H971 H 0.17128 0.6035 0.17526 0.0
H972 H 0.76749 0.78438 0.77815 0.0
H973 H 0.76822 0.82693 0.76549 0.0
H974 H 0.84616 0.83662 0.76732 0.0
H975 H 0.84539 0.79452 0.7805 0.0
H976 H 0.83412 0.88683 0.78896 0.0
H977 H 0.80683 0.8047 0.70431 0.0
H978 H 0.78051 0.75931 0.67462 0.0
H979 H 0.71785 0.79778 0.67941 0.0
H980 H 0.74377 0.84334 0.70946 0.0
H981 H 0.84891 0.9687 0.69679 0.0
H982 H 0.84879 0.93334 0.72011 0.0
H983 H 0.77079 0.92401 0.71674 0.0
H984 H 0.77068 0.95872 0.69311 0.0
H985 H 0.78263 0.87454 0.6974 0.0
H986 H 0.81091 0.95778 0.78028 0.0
H987 H 0.83787 0.00299 0.8092 0.0
H988 H 0.8993 0.96262 0.80698 0.0
H989 H 0.87276 0.91722 0.7777 0.0
C990 C 0.78475 0.79603 0.77636 0.0
C991 C 0.80639 0.78651 0.78024 0.0
C992 C 0.78518 0.82016 0.769 0.0
C993 C 0.80722 0.83473 0.76503 0.0
C994 C 0.82897 0.82576 0.77025 0.0
C995 C 0.82853 0.80175 0.77772 0.0
C996 C 0.80748 0.85812 0.7536 0.0
C997 C 0.823 0.88412 0.76884 0.0
C998 C 0.79278 0.8547 0.72751 0.0
C999 C 0.77719 0.82734 0.70938 0.0
C1000 C 0.78741 0.80343 0.6992 0.0
C1001 C 0.77257 0.77768 0.68229 0.0
C1002 C 0.74751 0.77564 0.6752 0.0
C1003 C 0.73725 0.79937 0.68496 0.0
C1004 C 0.75201 0.82516 0.70192 0.0
C1005 C 0.83178 0.95928 0.70126 0.0
C1006 C 0.8098 0.96644 0.69294 0.0
C1007 C 0.83174 0.93915 0.7147 0.0
C1008 C 0.80977 0.92609 0.72031 0.0
C1009 C 0.78794 0.9337 0.71255 0.0
C1010 C 0.78794 0.95361 0.69904 0.0
C1011 C 0.80912 0.90342 0.73284 0.0
C1012 C 0.79361 0.87742 0.71767 0.0
C1013 C 0.8239 0.90689 0.75889 0.0
C1014 C 0.83988 0.93415 0.77656 0.0
C1015 C 0.8302 0.95858 0.78577 0.0
C1016 C 0.8454 0.98423 0.80226 0.0
C1017 C 0.87029 0.98569 0.80986 0.0
C1018 C 0.88002 0.96147 0.80105 0.0
C1019 C 0.8649 0.93577 0.78453 0.0
H1020 H 0.88203 0.00557 0.82264 0.0
H1021 H 0.73606 0.75569 0.6621 0.0
H1022 H 0.74713 0.32277 0.40184 0.0
H1023 H 0.71154 0.33108 0.37591 0.0
H1024 H 0.68721 0.24195 0.33253 0.0
H1025 H 0.72313 0.23352 0.35776 0.0
H1026 H 0.68372 0.27054 0.29567 0.0
H1027 H 0.66096 0.27733 0.3883 0.0
H1028 H 0.666 0.2957 0.44118 0.0
H1029 H 0.6657 0.37869 0.43973 0.0
H1030 H 0.66099 0.36086 0.38682 0.0
H1031 H 0.56139 0.25881 0.24271 0.0
H1032 H 0.59797 0.25674 0.27174 0.0
H1033 H 0.61693 0.34708 0.30554 0.0
H1034 H 0.5801 0.34945 0.27639 0.0
H1035 H 0.62468 0.3219 0.34727 0.0
H1036 H 0.64485 0.31499 0.25476 0.0
H1037 H 0.63918 0.29684 0.20185 0.0
H1038 H 0.64467 0.21482 0.20287 0.0
H1039 H 0.64989 0.23234 0.2558 0.0
C1040 C 0.73429 0.30495 0.38661 0.0
C1041 C 0.73793 0.27747 0.38189 0.0
C1042 C 0.71386 0.30972 0.372 0.0
C1043 C 0.6966 0.28712 0.35249 0.0
C1044 C 0.70028 0.2597 0.34755 0.0
C1045 C 0.72069 0.2549 0.36217 0.0
C1046 C 0.67473 0.29198 0.33709 0.0
C1047 C 0.67069 0.2815 0.30696 0.0
C1048 C 0.65813 0.30709 0.35183 0.0
C1049 C 0.66089 0.31781 0.38362 0.0
C1050 C 0.66217 0.29953 0.39927 0.0
C1051 C 0.66493 0.30984 0.42924 0.0
C1052 C 0.66624 0.33836 0.44381 0.0
C1053 C 0.66472 0.35662 0.42842 0.0
C1054 C 0.66199 0.34642 0.39844 0.0
C1055 C 0.57315 0.27832 0.25648 0.0
C1056 C 0.5679 0.30432 0.25704 0.0
C1057 C 0.59411 0.27706 0.273 0.0
C1058 C 0.61032 0.30174 0.2904 0.0
C1059 C 0.60467 0.32779 0.2921 0.0
C1060 C 0.58365 0.3291 0.27543 0.0
C1061 C 0.6335 0.3 0.30594 0.0
C1062 C 0.63782 0.3111 0.33602 0.0
C1063 C 0.65042 0.28555 0.29117 0.0
C1064 C 0.64755 0.27495 0.25929 0.0
C1065 C 0.64465 0.29303 0.24371 0.0
C1066 C 0.64154 0.28286 0.21371 0.0
C1067 C 0.64153 0.25468 0.199 0.0
C1068 C 0.64467 0.23664 0.21429 0.0
C1069 C 0.64771 0.24668 0.2443 0.0
H1070 H 0.63913 0.24686 0.17577 0.0
H1071 H 0.66837 0.34629 0.46702 0.0
H1072 H 0.28432 0.26882 0.84024 0.0
H1073 H 0.28426 0.2245 0.8019 0.0
H1074 H 0.36167 0.23454 0.82723 0.0
H1075 H 0.36181 0.27868 0.86557 0.0
H1076 H 0.34688 0.21862 0.76706 0.0
H1077 H 0.32592 0.19089 0.84682 0.0
H1078 H 0.30206 0.1891 0.88545 0.0
H1079 H 0.237 0.15099 0.82332 0.0
H1080 H 0.26042 0.15295 0.78433 0.0
H1081 H 0.35904 0.08064 0.68637 0.0
H1082 H 0.36075 0.12444 0.72596 0.0
H1083 H 0.28216 0.11132 0.71144 0.0
H1084 H 0.28026 0.06751 0.67243 0.0
H1085 H 0.29842 0.12907 0.76699 0.0
H1086 H 0.31744 0.15744 0.6875 0.0
H1087 H 0.33978 0.15988 0.64783 0.0
H1088 H 0.40632 0.19737 0.70754 0.0
H1089 H 0.38444 0.1948 0.74756 0.0
C1090 C 0.30131 0.26158 0.83748 0.0
C1091 C 0.32303 0.27702 0.85595 0.0
C1092 C 0.30124 0.23628 0.81571 0.0
C1093 C 0.32295 0.22622 0.8119 0.0
C1094 C 0.34474 0.24194 0.82988 0.0
C1095 C 0.34476 0.26701 0.85185 0.0
C1096 C 0.32291 0.19909 0.78937 0.0
C1097 C 0.33655 0.19896 0.76719 0.0
C1098 C 0.30897 0.17361 0.78928 0.0
C1099 C 0.29488 0.17234 0.81269 0.0
C1100 C 0.30648 0.18237 0.84141 0.0
C1101 C 0.29305 0.18128 0.86337 0.0
C1102 C 0.26802 0.17001 0.85685 0.0
C1103 C 0.25638 0.15975 0.82835 0.0
C1104 C 0.26973 0.16083 0.8063 0.0
C1105 C 0.34213 0.08701 0.69174 0.0
C1106 C 0.31953 0.07059 0.67616 0.0
C1107 C 0.34313 0.11212 0.71427 0.0
C1108 C 0.32158 0.12135 0.72144 0.0
C1109 C 0.29902 0.10466 0.70631 0.0
C1110 C 0.298 0.0796 0.68393 0.0
C1111 C 0.32234 0.14849 0.74448 0.0
C1112 C 0.30882 0.14867 0.7668 0.0
C1113 C 0.33616 0.17406 0.7445 0.0
C1114 C 0.34936 0.17565 0.72049 0.0
C1115 C 0.33688 0.16599 0.69215 0.0
C1116 C 0.34944 0.16744 0.6696 0.0
C1117 C 0.37446 0.1787 0.67515 0.0
C1118 C 0.38695 0.1886 0.70328 0.0
C1119 C 0.37448 0.18718 0.7259 0.0
H1120 H 0.38415 0.1798 0.65767 0.0
H1121 H 0.25765 0.16918 0.87389 0.0
H1122 H 0.38511 0.73339 0.26044 0.0
H1123 H 0.41965 0.74872 0.23847 0.0
H1124 H 0.37103 0.72885 0.15895 0.0
H1125 H 0.33672 0.7135 0.18087 0.0
H1126 H 0.41028 0.70417 0.15159 0.0
H1127 H 0.39542 0.79629 0.19948 0.0
H1128 H 0.39012 0.83553 0.24114 0.0
H1129 H 0.46256 0.84138 0.28202 0.0
H1130 H 0.46817 0.8019 0.24075 0.0
H1131 H 0.49004 0.74712 0.06929 0.0
H1132 H 0.45609 0.74735 0.09664 0.0
H1133 H 0.50731 0.77386 0.17527 0.0
H1134 H 0.54136 0.77493 0.1478 0.0
H1135 H 0.46765 0.79622 0.18493 0.0
H1136 H 0.48291 0.70461 0.13843 0.0
H1137 H 0.48897 0.66511 0.09755 0.0
H1138 H 0.41631 0.65677 0.05573 0.0
H1139 H 0.40993 0.6965 0.09619 0.0
C1140 C 0.38188 0.7329 0.23847 0.0
C1141 C 0.35848 0.72249 0.22222 0.0
C1142 C 0.40152 0.74166 0.22597 0.0
C1143 C 0.39789 0.74 0.19708 0.0
C1144 C 0.37424 0.73033 0.18124 0.0
C1145 C 0.35468 0.72168 0.19375 0.0
C1146 C 0.41886 0.74604 0.18253 0.0
C1147 C 0.4226 0.72444 0.15862 0.0
C1148 C 0.43544 0.77215 0.19237 0.0
C1149 C 0.43212 0.79594 0.21715 0.0
C1150 C 0.41014 0.80578 0.21746 0.0
C1151 C 0.4071 0.8281 0.24098 0.0
C1152 C 0.42597 0.84089 0.26425 0.0
C1153 C 0.44795 0.83143 0.264 0.0
C1154 C 0.45108 0.8091 0.24054 0.0
C1155 C 0.49395 0.75384 0.0925 0.0
C1156 C 0.51811 0.76116 0.10661 0.0
C1157 C 0.47461 0.75374 0.10809 0.0
C1158 C 0.47914 0.75993 0.13795 0.0
C1159 C 0.50337 0.76892 0.15226 0.0
C1160 C 0.52278 0.76957 0.13664 0.0
C1161 C 0.45874 0.75449 0.15361 0.0
C1162 C 0.45525 0.77601 0.17783 0.0
C1163 C 0.44244 0.72814 0.14428 0.0
C1164 C 0.44606 0.70378 0.12021 0.0
C1165 C 0.46828 0.69447 0.12045 0.0
C1166 C 0.47176 0.67202 0.09735 0.0
C1167 C 0.45307 0.65849 0.07402 0.0
C1168 C 0.43079 0.66728 0.07381 0.0
C1169 C 0.42722 0.68975 0.09683 0.0
H1170 H 0.45582 0.64115 0.05613 0.0
H1171 H 0.42358 0.85817 0.28244 0.0
H1172 H 0.83277 0.20111 0.45747 0.0
H1173 H 0.84742 0.17936 0.49158 0.0
H1174 H 0.78556 0.19481 0.5352 0.0
H1175 H 0.77155 0.21716 0.50181 0.0
H1176 H 0.82317 0.20137 0.57317 0.0
H1177 H 0.78631 0.13093 0.48132 0.0
H1178 H 0.78213 0.1072 0.42897 0.0
H1179 H 0.85489 0.09204 0.43875 0.0
H1180 H 0.85959 0.11599 0.49117 0.0
H1181 H 0.78467 0.08702 0.6177 0.0
H1182 H 0.79067 0.12149 0.59362 0.0
H1183 H 0.86219 0.10458 0.5804 0.0
H1184 H 0.85646 0.07013 0.60516 0.0
H1185 H 0.83039 0.10209 0.52978 0.0
H1186 H 0.86158 0.16491 0.62508 0.0
H1187 H 0.86199 0.1867 0.67708 0.0
H1188 H 0.79547 0.21391 0.66046 0.0
H1189 H 0.79447 0.19199 0.60835 0.0
C1190 C 0.82279 0.20043 0.47487 0.0
C1191 C 0.80119 0.2108 0.47733 0.0
C1192 C 0.831 0.18783 0.49417 0.0
C1193 C 0.81739 0.185 0.51575 0.0
C1194 C 0.79644 0.19674 0.51887 0.0
C1195 C 0.78841 0.20949 0.49979 0.0
C1196 C 0.82354 0.16807 0.53375 0.0
C1197 C 0.82478 0.17968 0.56365 0.0
C1198 C 0.8262 0.13989 0.52151 0.0
C1199 C 0.82342 0.12557 0.49006 0.0
C1200 C 0.80148 0.12272 0.47226 0.0
C1201 C 0.799 0.10921 0.4426 0.0
C1202 C 0.81826 0.09822 0.43053 0.0
C1203 C 0.84001 0.10064 0.44812 0.0
C1204 C 0.8426 0.11418 0.4778 0.0
C1205 C 0.80178 0.09074 0.60989 0.0
C1206 C 0.82007 0.07579 0.61322 0.0
C1207 C 0.80523 0.11058 0.59628 0.0
C1208 C 0.82692 0.11571 0.5854 0.0
C1209 C 0.84536 0.101 0.58881 0.0
C1210 C 0.8421 0.08141 0.60297 0.0
C1211 C 0.82927 0.1352 0.56896 0.0
C1212 C 0.82951 0.12403 0.53935 0.0
C1213 C 0.82748 0.16358 0.5814 0.0
C1214 C 0.82792 0.17669 0.61277 0.0
C1215 C 0.84693 0.17535 0.6325 0.0
C1216 C 0.84729 0.18777 0.66201 0.0
C1217 C 0.82877 0.20169 0.67206 0.0
C1218 C 0.80982 0.20316 0.65264 0.0
C1219 C 0.80938 0.19079 0.62311 0.0
H1220 H 0.82912 0.21139 0.6949 0.0
H1221 H 0.81631 0.08775 0.40756 0.0
H1222 H 0.33344 0.29738 0.95978 0.0
H1223 H 0.35747 0.30316 0.00558 0.0
H1224 H 0.39377 0.38568 0.01125 0.0
H1225 H 0.37014 0.37972 0.96494 0.0
H1226 H 0.42593 0.35512 0.02146 0.0
H1227 H 0.35327 0.37833 0.05605 0.0
H1228 H 0.30908 0.37269 0.05755 0.0
H1229 H 0.30863 0.29526 0.07322 0.0
H1230 H 0.35276 0.3002 0.0714 0.0
H1231 H 0.48987 0.36928 0.15864 0.0
H1232 H 0.46273 0.3798 0.12354 0.0
H1233 H 0.419 0.29639 0.09835 0.0
H1234 H 0.44586 0.28574 0.13305 0.0
H1235 H 0.39084 0.33662 0.10279 0.0
H1236 H 0.46091 0.3096 0.06049 0.0
H1237 H 0.50481 0.31351 0.05811 0.0
H1238 H 0.50964 0.39691 0.05569 0.0
H1239 H 0.46574 0.39371 0.05879 0.0
C1240 C 0.34648 0.3168 0.97082 0.0
C1241 C 0.34995 0.33806 0.95871 0.0
C1242 C 0.36003 0.3202 0.99714 0.0
C1243 C 0.37724 0.34499 0.01201 0.0
C1244 C 0.38049 0.36645 1.00022 0.0
C1245 C 0.36687 0.36309 0.97387 0.0
C1246 C 0.39289 0.34748 0.03882 0.0
C1247 C 0.41828 0.35179 0.03957 0.0
C1248 C 0.38289 0.34261 0.06221 0.0
C1249 C 0.35633 0.33957 0.06341 0.0
C1250 C 0.34372 0.35999 0.05961 0.0
C1251 C 0.31868 0.35693 0.06055 0.0
C1252 C 0.30605 0.33361 0.06543 0.0
C1253 C 0.31844 0.31331 0.06944 0.0
C1254 C 0.34348 0.31625 0.06849 0.0
C1255 C 0.47432 0.35332 0.14581 0.0
C1256 C 0.47013 0.3266 0.14842 0.0
C1257 C 0.45887 0.35934 0.12578 0.0
C1258 C 0.43894 0.33881 0.10827 0.0
C1259 C 0.43423 0.31255 0.11169 0.0
C1260 C 0.44973 0.30645 0.13141 0.0
C1261 C 0.42372 0.34369 0.08506 0.0
C1262 C 0.39846 0.34066 0.08497 0.0
C1263 C 0.43379 0.34961 0.0622 0.0
C1264 C 0.46014 0.35157 0.06029 0.0
C1265 C 0.47138 0.32889 0.05976 0.0
C1266 C 0.49627 0.33096 0.05822 0.0
C1267 C 0.51005 0.35546 0.05677 0.0
C1268 C 0.49895 0.37796 0.05687 0.0
C1269 C 0.47407 0.37605 0.05857 0.0
H1270 H 0.52931 0.35701 0.05549 0.0
H1271 H 0.28666 0.33129 0.06616 0.0
H1272 H 0.35183 0.76315 0.33973 0.0
H1273 H 0.36431 0.80686 0.3813 0.0
H1274 H 0.29029 0.81986 0.37514 0.0
H1275 H 0.27793 0.77674 0.33372 0.0
H1276 H 0.32272 0.86862 0.38768 0.0
H1277 H 0.31145 0.7884 0.42048 0.0
H1278 H 0.32064 0.74407 0.42376 0.0
H1279 H 0.39527 0.78463 0.45848 0.0
H1280 H 0.38656 0.82914 0.45505 0.0
H1281 H 0.28958 0.93491 0.51895 0.0
H1282 H 0.29616 0.90125 0.47463 0.0
H1283 H 0.37284 0.91692 0.50744 0.0
H1284 H 0.36643 0.9511 0.55239 0.0
H1285 H 0.35092 0.85916 0.48097 0.0
H1286 H 0.35822 0.94252 0.458 0.0
H1287 H 0.34706 0.9864 0.456 0.0
H1288 H 0.27877 0.94 0.40333 0.0
H1289 H 0.28934 0.89586 0.40538 0.0
C1290 C 0.3384 0.77569 0.34701 0.0
C1291 C 0.31387 0.76647 0.33377 0.0
C1292 C 0.3455 0.80051 0.37079 0.0
C1293 C 0.32816 0.81646 0.38149 0.0
C1294 C 0.30397 0.80792 0.36729 0.0
C1295 C 0.29689 0.78318 0.34376 0.0
C1296 C 0.33436 0.84101 0.40851 0.0
C1297 C 0.329 0.86662 0.40807 0.0
C1298 C 0.34324 0.83864 0.43504 0.0
C1299 C 0.34844 0.81195 0.43715 0.0
C1300 C 0.32986 0.78779 0.42859 0.0
C1301 C 0.33497 0.76265 0.43051 0.0
C1302 C 0.35855 0.76151 0.44122 0.0
C1303 C 0.37704 0.78553 0.45012 0.0
C1304 C 0.37203 0.81071 0.44819 0.0
C1305 C 0.3079 0.93129 0.51693 0.0
C1306 C 0.3275 0.94578 0.53926 0.0
C1307 C 0.31163 0.91211 0.49144 0.0
C1308 C 0.33503 0.9069 0.48759 0.0
C1309 C 0.35466 0.92083 0.50997 0.0
C1310 C 0.35097 0.94032 0.53557 0.0
C1311 C 0.33836 0.88637 0.46017 0.0
C1312 C 0.34544 0.86151 0.46053 0.0
C1313 C 0.33094 0.88937 0.43355 0.0
C1314 C 0.32456 0.91585 0.43194 0.0
C1315 C 0.34076 0.94167 0.44613 0.0
C1316 C 0.33454 0.9666 0.44497 0.0
C1317 C 0.31221 0.966 0.42957 0.0
C1318 C 0.29607 0.94044 0.41524 0.0
C1319 C 0.30219 0.91545 0.41635 0.0
H1320 H 0.30742 0.98532 0.42872 0.0
H1321 H 0.36247 0.74204 0.44271 0.0
H1322 H 0.74045 0.72468 0.83624 0.0
H1323 H 0.71019 0.73346 0.86852 0.0
H1324 H 0.76555 0.74766 0.94082 0.0
H1325 H 0.79576 0.7384 0.90852 0.0
H1326 H 0.72721 0.71445 0.94417 0.0
H1327 H 0.74106 0.80207 0.92866 0.0
H1328 H 0.74481 0.83363 0.90039 0.0
H1329 H 0.66984 0.80136 0.86113 0.0
H1330 H 0.66574 0.76931 0.88888 0.0
H1331 H 0.6338 0.79172 0.02863 0.0
H1332 H 0.66731 0.79215 1.00059 0.0
H1333 H 0.64474 0.70271 0.95809 0.0
H1334 H 0.61167 0.70199 0.98628 0.0
H1335 H 0.66967 0.7784 0.94451 0.0
H1336 H 0.69361 0.67315 0.94623 0.0
H1337 H 0.69191 0.64461 0.97771 0.0
H1338 H 0.69602 0.71841 0.05104 0.0
H1339 H 0.69811 0.74745 0.02008 0.0
C1340 C 0.74624 0.73016 0.85908 0.0
C1341 C 0.77047 0.73083 0.86985 0.0
C1342 C 0.72893 0.73519 0.87754 0.0
C1343 C 0.73558 0.74144 0.9072 0.0
C1344 C 0.75992 0.74278 0.91804 0.0
C1345 C 0.77718 0.73749 0.89957 0.0
C1346 C 0.71692 0.74508 0.9267 0.0
C1347 C 0.71471 0.72853 0.94428 0.0
C1348 C 0.70081 0.76377 0.9273 0.0
C1349 C 0.70316 0.78313 0.91069 0.0
C1350 C 0.72542 0.80157 0.91385 0.0
C1351 C 0.7276 0.81957 0.89794 0.0
C1352 C 0.70759 0.81946 0.87893 0.0
C1353 C 0.68533 0.80141 0.87585 0.0
C1354 C 0.68306 0.78334 0.89169 0.0
C1355 C 0.63596 0.77216 0.01328 0.0
C1356 C 0.62017 0.74679 0.0099 0.0
C1357 C 0.65508 0.77246 0.99721 0.0
C1358 C 0.65877 0.74741 0.97754 0.0
C1359 C 0.64257 0.72222 0.97355 0.0
C1360 C 0.6236 0.72188 0.98966 0.0
C1361 C 0.67972 0.74735 0.96142 0.0
C1362 C 0.6823 0.76448 0.94447 0.0
C1363 C 0.69654 0.72965 0.96185 0.0
C1364 C 0.69581 0.71243 0.98076 0.0
C1365 C 0.69429 0.68331 0.96909 0.0
C1366 C 0.69323 0.66704 0.98684 0.0
C1367 C 0.69378 0.67968 0.01634 0.0
C1368 C 0.69551 0.70864 0.02817 0.0
C1369 C 0.69661 0.725 0.01053 0.0
H1370 H 0.69292 0.66704 0.03004 0.0
H1371 H 0.70932 0.83341 0.86663 0.0
loop_
_geom_bond_atom_site_label_1
_geom_bond_atom_site_label_2
_geom_bond_distance
_geom_bond_site_symmetry_2
_ccdc_geom_bond_type
H0 C3 0.929 . S
H1 C6 0.929 . S
H2 C8 0.930 . S
C3 H0 0.929 . S
C3 C4 1.398 . S
C3 C5 1.396 . S
C4 C3 1.398 . S
C4 C8 1.407 . S
C5 C3 1.396 . S
C5 C6 1.394 . S
C6 H1 0.929 . S
C6 C5 1.394 . S
C6 C7 1.382 . S
C7 C6 1.382 . S
C7 C8 1.392 . S
C7 N9 1.420 . S
C8 H2 0.930 . S
C8 C4 1.407 . S
C8 C7 1.392 . S
N9 C7 1.420 . S
N9 C10 1.244 . S
C10 N9 1.244 . S
H11 C14 0.929 . S
H12 C17 0.929 . S
H13 C19 0.930 . S
C14 H11 0.929 . S
C14 C15 1.398 . S
C14 C16 1.396 . S
C15 C14 1.398 . S
C15 C19 1.407 . S
C16 C14 1.396 . S
C16 C17 1.394 . S
C17 H12 0.929 . S
C17 C16 1.394 . S
C17 C18 1.382 . S
C18 C17 1.382 . S
C18 C19 1.392 . S
C18 N20 1.420 . S
C19 H13 0.930 . S
C19 C15 1.407 . S
C19 C18 1.392 . S
N20 C18 1.420 . S
N20 C21 1.244 . S
C21 N20 1.244 . S
H22 C25 0.929 . S
H23 C28 0.929 . S
H24 C30 0.930 . S
C25 H22 0.929 . S
C25 C26 1.398 . S
C25 C27 1.396 . S
C26 C25 1.398 . S
C26 C30 1.407 . S
C27 C25 1.396 . S
C27 C28 1.394 . S
C28 H23 0.929 . S
C28 C27 1.394 . S
C28 C29 1.382 . S
C29 C28 1.382 . S
C29 C30 1.392 . S
C29 N31 1.420 . S
C30 H24 0.930 . S
C30 C26 1.407 . S
C30 C29 1.392 . S
N31 C29 1.420 . S
N31 C32 1.244 . S
C32 N31 1.244 . S
H33 C36 0.929 . S
H34 C39 0.929 . S
H35 C41 0.930 1_554 S
C36 H33 0.929 . S
C36 C37 1.398 . S
C36 C38 1.396 . S
C37 C36 1.398 . S
C37 C41 1.407 . S
C38 C36 1.396 . S
C38 C39 1.394 . S
C39 H34 0.929 . S
C39 C38 1.394 . S
C39 C40 1.382 . S
C40 C39 1.382 . S
C40 C41 1.392 . S
C40 N42 1.420 1_556 S
C41 H35 0.930 1_556 S
C41 C37 1.407 . S
C41 C40 1.392 . S
N42 C40 1.420 1_554 S
N42 C43 1.244 1_554 S
C43 N42 1.244 1_556 S
H44 C47 0.929 . S
H45 C50 0.929 . S
H46 C52 0.930 . S
C47 H44 0.929 . S
C47 C48 1.398 . S
C47 C49 1.396 . S
C48 C47 1.398 . S
C48 C52 1.407 . S
C49 C47 1.396 . S
C49 C50 1.394 . S
C50 H45 0.929 . S
C50 C49 1.394 . S
C50 C51 1.382 . S
C51 C50 1.382 . S
C51 C52 1.392 . S
C51 N53 1.420 . S
C52 H46 0.930 . S
C52 C48 1.407 . S
C52 C51 1.392 . S
N53 C51 1.420 . S
N53 C54 1.244 . S
C54 N53 1.244 . S
H55 C58 0.929 . S
H56 C61 0.929 . S
H57 C63 0.930 . S
C58 H55 0.929 . S
C58 C59 1.398 . S
C58 C60 1.396 . S
C59 C58 1.398 . S
C59 C63 1.407 . S
C60 C58 1.396 . S
C60 C61 1.394 . S
C61 H56 0.929 . S
C61 C60 1.394 . S
C61 C62 1.382 . S
C62 C61 1.382 . S
C62 C63 1.392 . S
C62 N64 1.420 . S
C63 H57 0.930 . S
C63 C59 1.407 . S
C63 C62 1.392 . S
N64 C62 1.420 . S
N64 C65 1.244 . S
C65 N64 1.244 . S
H66 C69 0.929 . S
H67 C72 0.929 . S
H68 C74 0.930 . S
C69 H66 0.929 . S
C69 C70 1.398 . S
C69 C71 1.396 . S
C70 C69 1.398 . S
C70 C74 1.407 . S
C71 C69 1.396 . S
C71 C72 1.394 . S
C72 H67 0.929 . S
C72 C71 1.394 . S
C72 C73 1.382 . S
C73 C72 1.382 . S
C73 C74 1.392 . S
C73 N75 1.420 . S
C74 H68 0.930 . S
C74 C70 1.407 . S
C74 C73 1.392 . S
N75 C73 1.420 . S
N75 C76 1.244 . S
C76 N75 1.244 . S
H77 C80 0.929 . S
H78 C83 0.929 . S
H79 C85 0.930 . S
C80 H77 0.929 . S
C80 C81 1.398 . S
C80 C82 1.396 . S
C81 C80 1.398 . S
C81 C85 1.407 . S
C82 C80 1.396 . S
C82 C83 1.394 . S
C83 H78 0.929 . S
C83 C82 1.394 . S
C83 C84 1.382 . S
C84 C83 1.382 . S
C84 C85 1.392 . S
C84 N86 1.420 . S
C85 H79 0.930 . S
C85 C81 1.407 . S
C85 C84 1.392 . S
N86 C84 1.420 . S
N86 C87 1.244 . S
C87 N86 1.244 . S
C88 O90 1.247 1_655 S
C88 O92 1.267 . S
C89 O96 1.247 . S
C89 O97 1.258 . S
O90 C88 1.247 1_455 S
O90 Zn91 2.028 . S
Zn91 O90 2.028 . S
Zn91 O95 2.035 . S
Zn91 O97 2.035 . S
Zn91 O98 2.028 . S
O92 C88 1.267 . S
O92 Zn93 2.016 1_655 S
Zn93 O92 2.016 1_455 S
Zn93 O94 2.028 . S
Zn93 O96 2.028 . S
Zn93 O99 2.063 . S
O94 Zn93 2.028 . S
O94 C100 1.247 . S
O95 Zn91 2.035 . S
O95 C100 1.258 . S
O96 C89 1.247 . S
O96 Zn93 2.028 . S
O97 C89 1.258 . S
O97 Zn91 2.035 . S
O98 Zn91 2.028 . S
O98 C101 1.247 1_455 S
O99 Zn93 2.063 . S
O99 C101 1.246 1_455 S
C100 O94 1.247 . S
C100 O95 1.258 . S
C101 O98 1.247 1_655 S
C101 O99 1.246 1_655 S
C102 O104 1.247 . S
C102 O106 1.258 . S
C103 O110 1.247 . S
C103 O111 1.258 . S
O104 C102 1.247 . S
O104 Zn105 2.028 . S
Zn105 O104 2.028 . S
Zn105 O109 2.035 . S
Zn105 O111 2.035 . S
Zn105 O112 2.028 . S
O106 C102 1.258 . S
O106 Zn107 2.035 . S
Zn107 O106 2.035 . S
Zn107 O108 2.028 . S
Zn107 O110 2.028 . S
Zn107 O113 2.035 . S
O108 Zn107 2.028 . S
O108 C114 1.247 . S
O109 Zn105 2.035 . S
O109 C114 1.258 . S
O110 C103 1.247 . S
O110 Zn107 2.028 . S
O111 C103 1.258 . S
O111 Zn105 2.035 . S
O112 Zn105 2.028 . S
O112 C115 1.247 . S
O113 Zn107 2.035 . S
O113 C115 1.258 . S
C114 O108 1.247 . S
C114 O109 1.258 . S
C115 O112 1.247 . S
C115 O113 1.258 . S
C116 O118 1.247 . S
C116 O120 1.258 1_565 S
C117 O124 1.247 . S
C117 O125 1.258 . S
O118 C116 1.247 . S
O118 Zn119 2.028 1_565 S
Zn119 O118 2.028 1_545 S
Zn119 O123 2.035 . S
Zn119 O125 2.035 . S
Zn119 O126 2.028 1_545 S
O120 C116 1.258 1_545 S
O120 Zn121 2.035 . S
Zn121 O120 2.035 . S
Zn121 O122 2.028 . S
Zn121 O124 2.028 . S
Zn121 O127 2.035 . S
O122 Zn121 2.028 . S
O122 C128 1.247 . S
O123 Zn119 2.035 . S
O123 C128 1.258 . S
O124 C117 1.247 . S
O124 Zn121 2.028 . S
O125 C117 1.258 . S
O125 Zn119 2.035 . S
O126 Zn119 2.028 1_565 S
O126 C129 1.247 . S
O127 Zn121 2.035 . S
O127 C129 1.258 1_545 S
C128 O122 1.247 . S
C128 O123 1.258 . S
C129 O126 1.247 . S
C129 O127 1.258 1_565 S
C130 O132 1.247 . S
C130 O134 1.258 . S
C131 O138 1.247 . S
C131 O139 1.258 . S
O132 C130 1.247 . S
O132 Zn133 2.028 1_554 S
Zn133 O132 2.028 1_556 S
Zn133 O137 2.035 1_556 S
Zn133 O139 2.035 . S
Zn133 O140 2.028 . S
O134 C130 1.258 . S
O134 Zn135 2.035 . S
Zn135 O134 2.035 . S
Zn135 O136 2.028 . S
Zn135 O138 2.028 1_554 S
Zn135 O141 2.035 1_554 S
O136 Zn135 2.028 . S
O136 C142 1.247 . S
O137 Zn133 2.035 1_554 S
O137 C142 1.258 . S
O138 C131 1.247 . S
O138 Zn135 2.028 1_556 S
O139 C131 1.258 . S
O139 Zn133 2.035 . S
O140 Zn133 2.028 . S
O140 C143 1.247 . S
O141 Zn135 2.035 1_556 S
O141 C143 1.258 . S
C142 O136 1.247 . S
C142 O137 1.258 . S
C143 O140 1.247 . S
C143 O141 1.258 . S
C144 O146 1.247 . S
C144 O148 1.258 . S
C145 O152 1.247 . S
C145 O153 1.258 . S
O146 C144 1.247 . S
O146 Zn147 2.028 1_565 S
Zn147 O146 2.028 1_545 S
Zn147 O151 2.035 . S
Zn147 O153 2.035 . S
Zn147 O154 2.028 1_545 S
O148 C144 1.258 . S
O148 Zn149 2.035 1_565 S
Zn149 O148 2.035 1_545 S
Zn149 O150 2.028 . S
Zn149 O152 2.028 . S
Zn149 O155 2.035 1_545 S
O150 Zn149 2.028 . S
O150 C156 1.247 . S
O151 Zn147 2.035 . S
O151 C156 1.258 . S
O152 C145 1.247 . S
O152 Zn149 2.028 . S
O153 C145 1.258 . S
O153 Zn147 2.035 . S
O154 Zn147 2.028 1_565 S
O154 C157 1.247 . S
O155 Zn149 2.035 1_565 S
O155 C157 1.258 . S
C156 O150 1.247 . S
C156 O151 1.258 . S
C157 O154 1.247 . S
C157 O155 1.258 . S
C158 O160 1.247 . S
C158 O162 1.258 . S
C159 O166 1.247 . S
C159 O167 1.258 . S
O160 C158 1.247 . S
O160 Zn161 2.028 . S
Zn161 O160 2.028 . S
Zn161 O165 2.035 . S
Zn161 O167 2.035 . S
Zn161 O168 2.028 . S
O162 C158 1.258 . S
O162 Zn163 2.035 . S
Zn163 O162 2.035 . S
Zn163 O164 2.028 . S
Zn163 O166 2.028 . S
Zn163 O169 2.035 . S
O164 Zn163 2.028 . S
O164 C170 1.247 . S
O165 Zn161 2.035 . S
O165 C170 1.258 . S
O166 C159 1.247 . S
O166 Zn163 2.028 . S
O167 C159 1.258 . S
O167 Zn161 2.035 . S
O168 Zn161 2.028 . S
O168 C171 1.247 . S
O169 Zn163 2.035 . S
O169 C171 1.258 . S
C170 O164 1.247 . S
C170 O165 1.258 . S
C171 O168 1.247 . S
C171 O169 1.258 . S
H172 C190 0.951 . S
H173 C192 0.951 . S
H174 C194 0.950 . S
H175 C195 0.950 . S
H176 C197 0.950 . S
H177 C200 0.950 . S
H178 C201 0.950 . S
H179 C203 0.950 . S
H180 C204 0.950 . S
H181 C205 0.951 . S
H182 C207 0.951 . S
H183 C209 0.950 . S
H184 C210 0.950 . S
H185 C212 0.950 . S
H186 C215 0.950 . S
H187 C216 0.950 . S
H188 C218 0.950 . S
H189 C219 0.950 . S
C190 H172 0.951 . S
C190 C191 1.366 . S
C190 C192 1.388 . S
C191 C190 1.366 . S
C191 C195 1.385 . S
C192 H173 0.951 . S
C192 C190 1.388 . S
C192 C193 1.366 . S
C193 C192 1.366 . S
C193 C194 1.414 . S
C193 C196 1.499 . S
C194 H174 0.950 . S
C194 C193 1.414 . S
C194 C195 1.374 . S
C195 H175 0.950 . S
C195 C191 1.385 . S
C195 C194 1.374 . S
C196 C193 1.499 . S
C196 C197 1.373 . S
C196 C198 1.389 . S
C197 H176 0.950 . S
C197 C196 1.373 . S
C197 C213 1.377 . S
C198 C196 1.389 . S
C198 C199 1.524 . S
C198 C212 1.377 . S
C199 C198 1.524 . S
C199 C200 1.397 . S
C199 C204 1.363 . S
C200 H177 0.950 . S
C200 C199 1.397 . S
C200 C201 1.334 . S
C201 H178 0.950 . S
C201 C200 1.334 . S
C201 C202 1.287 . S
C202 C201 1.287 . S
C202 C203 1.524 . S
C202 H221 0.913 . S
C203 H179 0.950 . S
C203 C202 1.524 . S
C203 C204 1.415 . S
C204 H180 0.950 . S
C204 C199 1.363 . S
C204 C203 1.415 . S
C205 H181 0.951 . S
C205 C206 1.366 . S
C205 C207 1.388 . S
C206 C205 1.366 . S
C206 C210 1.385 . S
C207 H182 0.951 . S
C207 C205 1.388 . S
C207 C208 1.366 . S
C208 C207 1.366 . S
C208 C209 1.414 . S
C208 C211 1.499 . S
C209 H183 0.950 . S
C209 C208 1.414 . S
C209 C210 1.374 . S
C210 H184 0.950 . S
C210 C206 1.385 . S
C210 C209 1.374 . S
C211 C208 1.499 . S
C211 C212 1.373 . S
C211 C213 1.389 . S
C212 H185 0.950 . S
C212 C198 1.377 . S
C212 C211 1.373 . S
C213 C197 1.377 . S
C213 C211 1.389 . S
C213 C214 1.524 . S
C214 C213 1.524 . S
C214 C215 1.397 . S
C214 C219 1.363 . S
C215 H186 0.950 . S
C215 C214 1.397 . S
C215 C216 1.334 . S
C216 H187 0.950 . S
C216 C215 1.334 . S
C216 C217 1.287 . S
C217 C216 1.287 . S
C217 C218 1.524 . S
C217 H220 0.999 . S
C218 H188 0.950 . S
C218 C217 1.524 . S
C218 C219 1.415 . S
C219 H189 0.950 . S
C219 C214 1.363 . S
C219 C218 1.415 . S
H220 C217 0.999 . S
H221 C202 0.913 . S
H222 C240 0.951 . S
H223 C242 0.951 . S
H224 C244 0.950 . S
H225 C245 0.950 . S
H226 C247 0.950 . S
H227 C250 0.950 . S
H228 C251 0.950 . S
H229 C253 0.950 . S
H230 C254 0.950 . S
H231 C255 0.951 . S
H232 C257 0.951 . S
H233 C259 0.950 . S
H234 C260 0.950 . S
H235 C262 0.950 . S
H236 C265 0.950 . S
H237 C266 0.950 . S
H238 C268 0.950 . S
H239 C269 0.950 . S
C240 H222 0.951 . S
C240 C241 1.366 . S
C240 C242 1.388 . S
C241 C240 1.366 . S
C241 C245 1.385 . S
C242 H223 0.951 . S
C242 C240 1.388 . S
C242 C243 1.366 . S
C243 C242 1.366 . S
C243 C244 1.414 . S
C243 C246 1.499 . S
C244 H224 0.950 . S
C244 C243 1.414 . S
C244 C245 1.374 . S
C245 H225 0.950 . S
C245 C241 1.385 . S
C245 C244 1.374 . S
C246 C243 1.499 . S
C246 C247 1.373 . S
C246 C248 1.389 . S
C247 H226 0.950 . S
C247 C246 1.373 . S
C247 C263 1.377 . S
C248 C246 1.389 . S
C248 C249 1.524 . S
C248 C262 1.377 . S
C249 C248 1.524 . S
C249 C250 1.397 . S
C249 C254 1.363 . S
C250 H227 0.950 . S
C250 C249 1.397 . S
C250 C251 1.334 . S
C251 H228 0.950 . S
C251 C250 1.334 . S
C251 C252 1.287 . S
C252 C251 1.287 . S
C252 C253 1.524 . S
C252 H271 0.913 . S
C253 H229 0.950 . S
C253 C252 1.524 . S
C253 C254 1.415 . S
C254 H230 0.950 . S
C254 C249 1.363 . S
C254 C253 1.415 . S
C255 H231 0.951 . S
C255 C256 1.366 . S
C255 C257 1.388 . S
C256 C255 1.366 . S
C256 C260 1.385 . S
C257 H232 0.951 . S
C257 C255 1.388 . S
C257 C258 1.366 . S
C258 C257 1.366 . S
C258 C259 1.414 . S
C258 C261 1.499 . S
C259 H233 0.950 . S
C259 C258 1.414 . S
C259 C260 1.374 . S
C260 H234 0.950 . S
C260 C256 1.385 . S
C260 C259 1.374 . S
C261 C258 1.499 . S
C261 C262 1.373 . S
C261 C263 1.389 . S
C262 H235 0.950 . S
C262 C248 1.377 . S
C262 C261 1.373 . S
C263 C247 1.377 . S
C263 C261 1.389 . S
C263 C264 1.524 . S
C264 C263 1.524 . S
C264 C265 1.397 . S
C264 C269 1.363 . S
C265 H236 0.950 . S
C265 C264 1.397 . S
C265 C266 1.334 . S
C266 H237 0.950 . S
C266 C265 1.334 . S
C266 C267 1.287 . S
C267 C266 1.287 . S
C267 C268 1.524 . S
C267 H270 0.999 . S
C268 H238 0.950 . S
C268 C267 1.524 . S
C268 C269 1.415 . S
C269 H239 0.950 . S
C269 C264 1.363 . S
C269 C268 1.415 . S
H270 C267 0.999 . S
H271 C252 0.913 . S
H272 C290 0.951 . S
H273 C292 0.951 . S
H274 C294 0.950 . S
H275 C295 0.950 . S
H276 C297 0.950 . S
H277 C300 0.950 . S
H278 C301 0.950 . S
H279 C303 0.950 . S
H280 C304 0.950 . S
H281 C305 0.926 1_455 S
H282 C307 0.951 . S
H283 C309 0.950 . S
H284 C310 0.950 . S
H285 C312 0.950 . S
H286 C315 0.950 . S
H287 C316 0.950 . S
H288 C318 0.950 . S
H289 C319 0.950 . S
C290 H272 0.951 . S
C290 C291 1.366 . S
C290 C292 1.388 . S
C291 C290 1.366 . S
C291 C295 1.385 . S
C292 H273 0.951 . S
C292 C290 1.388 . S
C292 C293 1.366 . S
C293 C292 1.366 . S
C293 C294 1.414 . S
C293 C296 1.499 . S
C294 H274 0.950 . S
C294 C293 1.414 . S
C294 C295 1.374 . S
C295 H275 0.950 . S
C295 C291 1.385 . S
C295 C294 1.374 . S
C296 C293 1.499 . S
C296 C297 1.373 . S
C296 C298 1.389 . S
C297 H276 0.950 . S
C297 C296 1.373 . S
C297 C313 1.377 . S
C298 C296 1.389 . S
C298 C299 1.524 . S
C298 C312 1.377 . S
C299 C298 1.524 . S
C299 C300 1.397 . S
C299 C304 1.363 . S
C300 H277 0.950 . S
C300 C299 1.397 . S
C300 C301 1.334 . S
C301 H278 0.950 . S
C301 C300 1.334 . S
C301 C302 1.287 . S
C302 C301 1.287 . S
C302 C303 1.524 . S
C302 H321 0.913 . S
C303 H279 0.950 . S
C303 C302 1.524 . S
C303 C304 1.415 . S
C304 H280 0.950 . S
C304 C299 1.363 . S
C304 C303 1.415 . S
C305 H281 0.926 1_655 S
C305 C306 1.366 . S
C305 C307 1.388 . S
C306 C305 1.366 . S
C306 C310 1.385 . S
C307 H282 0.951 . S
C307 C305 1.388 . S
C307 C308 1.366 . S
C308 C307 1.366 . S
C308 C309 1.414 . S
C308 C311 1.499 . S
C309 H283 0.950 . S
C309 C308 1.414 . S
C309 C310 1.374 . S
C310 H284 0.950 . S
C310 C306 1.385 . S
C310 C309 1.374 . S
C311 C308 1.499 . S
C311 C312 1.373 . S
C311 C313 1.389 . S
C312 H285 0.950 . S
C312 C298 1.377 . S
C312 C311 1.373 . S
C313 C297 1.377 . S
C313 C311 1.389 . S
C313 C314 1.524 . S
C314 C313 1.524 . S
C314 C315 1.397 . S
C314 C319 1.363 . S
C315 H286 0.950 . S
C315 C314 1.397 . S
C315 C316 1.334 . S
C316 H287 0.950 . S
C316 C315 1.334 . S
C316 C317 1.287 . S
C317 C316 1.287 . S
C317 C318 1.524 . S
C317 H320 0.999 . S
C318 H288 0.950 . S
C318 C317 1.524 . S
C318 C319 1.415 . S
C319 H289 0.950 . S
C319 C314 1.363 . S
C319 C318 1.415 . S
H320 C317 0.999 . S
H321 C302 0.913 . S
H322 C340 0.951 . S
H323 C342 0.951 . S
H324 C344 0.950 . S
H325 C345 0.950 . S
H326 C347 0.950 . S
H327 C350 0.950 . S
H328 C351 0.950 . S
H329 C353 0.950 . S
H330 C354 0.950 . S
H331 C355 0.951 . S
H332 C357 0.951 . S
H333 C359 0.950 . S
H334 C360 0.950 1_455 S
H335 C362 0.950 . S
H336 C365 0.950 . S
H337 C366 0.950 . S
H338 C368 0.950 . S
H339 C369 0.950 . S
C340 H322 0.951 . S
C340 C341 1.366 . S
C340 C342 1.388 . S
C341 C340 1.366 . S
C341 C345 1.385 . S
C342 H323 0.951 . S
C342 C340 1.388 . S
C342 C343 1.366 . S
C343 C342 1.366 . S
C343 C344 1.414 . S
C343 C346 1.499 . S
C344 H324 0.950 . S
C344 C343 1.414 . S
C344 C345 1.374 . S
C345 H325 0.950 . S
C345 C341 1.385 . S
C345 C344 1.374 . S
C346 C343 1.499 . S
C346 C347 1.373 . S
C346 C348 1.389 . S
C347 H326 0.950 . S
C347 C346 1.373 . S
C347 C363 1.377 . S
C348 C346 1.389 . S
C348 C349 1.524 . S
C348 C362 1.377 . S
C349 C348 1.524 . S
C349 C350 1.397 1_556 S
C349 C354 1.363 . S
C350 H327 0.950 . S
C350 C349 1.397 1_554 S
C350 C351 1.334 . S
C351 H328 0.950 . S
C351 C350 1.334 . S
C351 C352 1.287 . S
C352 C351 1.287 . S
C352 C353 1.524 . S
C352 H371 0.913 . S
C353 H329 0.950 . S
C353 C352 1.524 . S
C353 C354 1.415 1_554 S
C354 H330 0.950 . S
C354 C349 1.363 . S
C354 C353 1.415 1_556 S
C355 H331 0.951 . S
C355 C356 1.366 . S
C355 C357 1.388 . S
C356 C355 1.366 . S
C356 C360 1.385 . S
C357 H332 0.951 . S
C357 C355 1.388 . S
C357 C358 1.366 . S
C358 C357 1.366 . S
C358 C359 1.414 . S
C358 C361 1.499 . S
C359 H333 0.950 . S
C359 C358 1.414 . S
C359 C360 1.374 . S
C360 H334 0.950 1_655 S
C360 C356 1.385 . S
C360 C359 1.374 . S
C361 C358 1.499 . S
C361 C362 1.373 . S
C361 C363 1.389 . S
C362 H335 0.950 . S
C362 C348 1.377 . S
C362 C361 1.373 . S
C363 C347 1.377 . S
C363 C361 1.389 . S
C363 C364 1.524 . S
C364 C363 1.524 . S
C364 C365 1.397 . S
C364 C369 1.363 . S
C365 H336 0.950 . S
C365 C364 1.397 . S
C365 C366 1.334 . S
C366 H337 0.950 . S
C366 C365 1.334 . S
C366 C367 1.287 . S
C367 C366 1.287 . S
C367 C368 1.524 . S
C367 H370 0.999 . S
C368 H338 0.950 . S
C368 C367 1.524 . S
C368 C369 1.415 . S
C369 H339 0.950 . S
C369 C364 1.363 . S
C369 C368 1.415 . S
H370 C367 0.999 . S
H371 C352 0.913 . S
H372 C390 0.951 . S
H373 C392 0.951 . S
H374 C394 0.950 . S
H375 C395 0.950 . S
H376 C397 0.950 . S
H377 C400 0.950 . S
H378 C401 0.950 . S
H379 C403 0.950 . S
H380 C404 0.950 . S
H381 C405 0.951 . S
H382 C407 0.951 . S
H383 C409 0.950 . S
H384 C410 0.950 . S
H385 C412 0.950 . S
H386 C415 0.950 . S
H387 C416 0.950 . S
H388 C418 0.950 . S
H389 C419 0.950 . S
C390 H372 0.951 . S
C390 C391 1.366 . S
C390 C392 1.388 . S
C391 C390 1.366 . S
C391 C395 1.385 . S
C392 H373 0.951 . S
C392 C390 1.388 . S
C392 C393 1.366 . S
C393 C392 1.366 . S
C393 C394 1.414 . S
C393 C396 1.499 . S
C394 H374 0.950 . S
C394 C393 1.414 . S
C394 C395 1.374 . S
C395 H375 0.950 . S
C395 C391 1.385 . S
C395 C394 1.374 . S
C396 C393 1.499 . S
C396 C397 1.373 . S
C396 C398 1.389 . S
C397 H376 0.950 . S
C397 C396 1.373 . S
C397 C413 1.377 . S
C398 C396 1.389 . S
C398 C399 1.524 . S
C398 C412 1.377 . S
C399 C398 1.524 . S
C399 C400 1.397 . S
C399 C404 1.363 . S
C400 H377 0.950 . S
C400 C399 1.397 . S
C400 C401 1.334 . S
C401 H378 0.950 . S
C401 C400 1.334 . S
C401 C402 1.287 . S
C402 C401 1.287 . S
C402 C403 1.524 . S
C402 H421 0.913 . S
C403 H379 0.950 . S
C403 C402 1.524 . S
C403 C404 1.415 . S
C404 H380 0.950 . S
C404 C399 1.363 . S
C404 C403 1.415 . S
C405 H381 0.951 . S
C405 C406 1.366 . S
C405 C407 1.388 . S
C406 C405 1.366 . S
C406 C410 1.385 . S
C407 H382 0.951 . S
C407 C405 1.388 . S
C407 C408 1.366 . S
C408 C407 1.366 . S
C408 C409 1.414 . S
C408 C411 1.499 . S
C409 H383 0.950 . S
C409 C408 1.414 . S
C409 C410 1.374 . S
C410 H384 0.950 . S
C410 C406 1.385 . S
C410 C409 1.374 . S
C411 C408 1.499 . S
C411 C412 1.373 . S
C411 C413 1.389 . S
C412 H385 0.950 . S
C412 C398 1.377 . S
C412 C411 1.373 . S
C413 C397 1.377 . S
C413 C411 1.389 . S
C413 C414 1.524 . S
C414 C413 1.524 . S
C414 C415 1.397 . S
C414 C419 1.363 . S
C415 H386 0.950 . S
C415 C414 1.397 . S
C415 C416 1.334 . S
C416 H387 0.950 . S
C416 C415 1.334 . S
C416 C417 1.287 . S
C417 C416 1.287 . S
C417 C418 1.524 . S
C417 H420 0.999 . S
C418 H388 0.950 . S
C418 C417 1.524 . S
C418 C419 1.415 . S
C419 H389 0.950 . S
C419 C414 1.363 . S
C419 C418 1.415 . S
H420 C417 0.999 . S
H421 C402 0.913 . S
H422 C440 0.951 . S
H423 C442 0.951 . S
H424 C444 0.950 . S
H425 C445 0.950 . S
H426 C447 0.950 . S
H427 C450 0.950 . S
H428 C451 0.950 . S
H429 C453 0.950 . S
H430 C454 0.950 . S
H431 C455 0.951 . S
H432 C457 0.951 . S
H433 C459 0.950 . S
H434 C460 0.950 . S
H435 C462 0.950 . S
H436 C465 0.950 . S
H437 C466 0.950 . S
H438 C468 0.950 . S
H439 C469 0.950 . S
C440 H422 0.951 . S
C440 C441 1.366 . S
C440 C442 1.388 . S
C441 C440 1.366 . S
C441 C445 1.385 . S
C442 H423 0.951 . S
C442 C440 1.388 . S
C442 C443 1.366 . S
C443 C442 1.366 . S
C443 C444 1.414 . S
C443 C446 1.499 . S
C444 H424 0.950 . S
C444 C443 1.414 . S
C444 C445 1.374 . S
C445 H425 0.950 . S
C445 C441 1.385 . S
C445 C444 1.374 . S
C446 C443 1.499 . S
C446 C447 1.373 . S
C446 C448 1.389 . S
C447 H426 0.950 . S
C447 C446 1.373 . S
C447 C463 1.377 . S
C448 C446 1.389 . S
C448 C449 1.524 . S
C448 C462 1.377 . S
C449 C448 1.524 . S
C449 C450 1.397 . S
C449 C454 1.363 . S
C450 H427 0.950 . S
C450 C449 1.397 . S
C450 C451 1.334 . S
C451 H428 0.950 . S
C451 C450 1.334 . S
C451 C452 1.287 . S
C452 C451 1.287 . S
C452 C453 1.524 . S
C452 H471 0.913 . S
C453 H429 0.950 . S
C453 C452 1.524 . S
C453 C454 1.415 . S
C454 H430 0.950 . S
C454 C449 1.363 . S
C454 C453 1.415 . S
C455 H431 0.951 . S
C455 C456 1.366 . S
C455 C457 1.388 . S
C456 C455 1.366 . S
C456 C460 1.385 . S
C457 H432 0.951 . S
C457 C455 1.388 . S
C457 C458 1.366 . S
C458 C457 1.366 . S
C458 C459 1.414 . S
C458 C461 1.499 . S
C459 H433 0.950 . S
C459 C458 1.414 . S
C459 C460 1.374 . S
C460 H434 0.950 . S
C460 C456 1.385 . S
C460 C459 1.374 . S
C461 C458 1.499 . S
C461 C462 1.373 . S
C461 C463 1.389 . S
C462 H435 0.950 . S
C462 C448 1.377 . S
C462 C461 1.373 . S
C463 C447 1.377 . S
C463 C461 1.389 . S
C463 C464 1.524 . S
C464 C463 1.524 . S
C464 C465 1.397 . S
C464 C469 1.363 . S
C465 H436 0.950 . S
C465 C464 1.397 . S
C465 C466 1.334 . S
C466 H437 0.950 . S
C466 C465 1.334 . S
C466 C467 1.287 . S
C467 C466 1.287 . S
C467 C468 1.524 . S
C467 H470 0.999 . S
C468 H438 0.950 . S
C468 C467 1.524 . S
C468 C469 1.415 . S
C469 H439 0.950 . S
C469 C464 1.363 . S
C469 C468 1.415 . S
H470 C467 0.999 . S
H471 C452 0.913 . S
H472 C490 0.951 . S
H473 C492 0.951 . S
H474 C494 0.950 . S
H475 C495 0.950 . S
H476 C497 0.950 . S
H477 C500 0.950 . S
H478 C501 0.950 . S
H479 C503 0.950 . S
H480 C504 0.950 . S
H481 C505 0.951 . S
H482 C507 0.951 . S
H483 C509 0.950 . S
H484 C510 0.950 . S
H485 C512 0.950 . S
H486 C515 0.950 . S
H487 C516 0.950 . S
H488 C518 0.950 . S
H489 C519 0.950 . S
C490 H472 0.951 . S
C490 C491 1.366 . S
C490 C492 1.388 . S
C491 C490 1.366 . S
C491 C495 1.385 . S
C492 H473 0.951 . S
C492 C490 1.388 . S
C492 C493 1.366 . S
C493 C492 1.366 . S
C493 C494 1.414 . S
C493 C496 1.499 . S
C494 H474 0.950 . S
C494 C493 1.414 . S
C494 C495 1.374 . S
C495 H475 0.950 . S
C495 C491 1.385 . S
C495 C494 1.374 . S
C496 C493 1.499 . S
C496 C497 1.373 . S
C496 C498 1.389 . S
C497 H476 0.950 . S
C497 C496 1.373 . S
C497 C513 1.377 . S
C498 C496 1.389 . S
C498 C499 1.524 . S
C498 C512 1.377 . S
C499 C498 1.524 . S
C499 C500 1.397 . S
C499 C504 1.363 . S
C500 H477 0.950 . S
C500 C499 1.397 . S
C500 C501 1.334 . S
C501 H478 0.950 . S
C501 C500 1.334 . S
C501 C502 1.287 . S
C502 C501 1.287 . S
C502 C503 1.524 . S
C502 H521 0.913 . S
C503 H479 0.950 . S
C503 C502 1.524 . S
C503 C504 1.415 . S
C504 H480 0.950 . S
C504 C499 1.363 . S
C504 C503 1.415 . S
C505 H481 0.951 . S
C505 C506 1.366 . S
C505 C507 1.388 . S
C506 C505 1.366 . S
C506 C510 1.385 . S
C507 H482 0.951 . S
C507 C505 1.388 . S
C507 C508 1.366 . S
C508 C507 1.366 . S
C508 C509 1.414 . S
C508 C511 1.499 . S
C509 H483 0.950 . S
C509 C508 1.414 . S
C509 C510 1.374 . S
C510 H484 0.950 . S
C510 C506 1.385 . S
C510 C509 1.374 . S
C511 C508 1.499 . S
C511 C512 1.373 . S
C511 C513 1.389 . S
C512 H485 0.950 . S
C512 C498 1.377 . S
C512 C511 1.373 . S
C513 C497 1.377 . S
C513 C511 1.389 . S
C513 C514 1.524 . S
C514 C513 1.524 . S
C514 C515 1.397 . S
C514 C519 1.363 . S
C515 H486 0.950 . S
C515 C514 1.397 . S
C515 C516 1.334 . S
C516 H487 0.950 . S
C516 C515 1.334 . S
C516 C517 1.287 . S
C517 C516 1.287 . S
C517 C518 1.524 . S
C517 H520 0.999 . S
C518 H488 0.950 . S
C518 C517 1.524 . S
C518 C519 1.415 . S
C519 H489 0.950 . S
C519 C514 1.363 . S
C519 C518 1.415 . S
H520 C517 0.999 . S
H521 C502 0.913 . S
H522 C540 0.951 . S
H523 C542 0.951 . S
H524 C544 0.950 . S
H525 C545 0.950 1_556 S
H526 C547 0.950 . S
H527 C550 0.950 . S
H528 C551 0.950 . S
H529 C553 0.950 . S
H530 C554 0.950 . S
H531 C555 0.951 . S
H532 C557 0.951 . S
H533 C559 0.950 . S
H534 C560 0.950 . S
H535 C562 0.950 . S
H536 C565 0.950 . S
H537 C566 0.950 . S
H538 C568 0.950 . S
H539 C569 0.950 . S
C540 H522 0.951 . S
C540 C541 1.366 . S
C540 C542 1.388 . S
C541 C540 1.366 . S
C541 C545 1.385 . S
C542 H523 0.951 . S
C542 C540 1.388 . S
C542 C543 1.366 . S
C543 C542 1.366 . S
C543 C544 1.414 . S
C543 C546 1.499 . S
C544 H524 0.950 . S
C544 C543 1.414 . S
C544 C545 1.374 . S
C545 H525 0.950 1_554 S
C545 C541 1.385 . S
C545 C544 1.374 . S
C546 C543 1.499 . S
C546 C547 1.373 . S
C546 C548 1.389 . S
C547 H526 0.950 . S
C547 C546 1.373 . S
C547 C563 1.377 . S
C548 C546 1.389 . S
C548 C549 1.524 . S
C548 C562 1.377 . S
C549 C548 1.524 . S
C549 C550 1.397 . S
C549 C554 1.363 . S
C550 H527 0.950 . S
C550 C549 1.397 . S
C550 C551 1.334 . S
C551 H528 0.950 . S
C551 C550 1.334 . S
C551 C552 1.287 . S
C552 C551 1.287 . S
C552 C553 1.524 . S
C552 H571 0.913 . S
C553 H529 0.950 . S
C553 C552 1.524 . S
C553 C554 1.415 . S
C554 H530 0.950 . S
C554 C549 1.363 . S
C554 C553 1.415 . S
C555 H531 0.951 . S
C555 C556 1.366 . S
C555 C557 1.388 . S
C556 C555 1.366 . S
C556 C560 1.385 . S
C557 H532 0.951 . S
C557 C555 1.388 . S
C557 C558 1.366 . S
C558 C557 1.366 . S
C558 C559 1.414 . S
C558 C561 1.499 . S
C559 H533 0.950 . S
C559 C558 1.414 . S
C559 C560 1.374 . S
C560 H534 0.950 . S
C560 C556 1.385 . S
C560 C559 1.374 . S
C561 C558 1.499 . S
C561 C562 1.373 . S
C561 C563 1.389 . S
C562 H535 0.950 . S
C562 C548 1.377 . S
C562 C561 1.373 . S
C563 C547 1.377 . S
C563 C561 1.389 . S
C563 C564 1.524 . S
C564 C563 1.524 . S
C564 C565 1.397 . S
C564 C569 1.363 . S
C565 H536 0.950 . S
C565 C564 1.397 . S
C565 C566 1.334 . S
C566 H537 0.950 . S
C566 C565 1.334 . S
C566 C567 1.287 . S
C567 C566 1.287 . S
C567 C568 1.524 . S
C567 H570 0.999 . S
C568 H538 0.950 . S
C568 C567 1.524 . S
C568 C569 1.415 . S
C569 H539 0.950 . S
C569 C564 1.363 . S
C569 C568 1.415 . S
H570 C567 0.999 . S
H571 C552 0.913 . S
H572 C590 0.951 . S
H573 C592 0.951 . S
H574 C594 0.950 . S
H575 C595 0.950 . S
H576 C597 0.950 . S
H577 C600 0.950 . S
H578 C601 0.950 . S
H579 C603 0.950 . S
H580 C604 0.950 . S
H581 C605 0.951 . S
H582 C607 0.951 . S
H583 C609 0.950 . S
H584 C610 0.950 . S
H585 C612 0.950 . S
H586 C615 0.950 . S
H587 C616 0.950 . S
H588 C618 0.950 . S
H589 C619 0.950 . S
C590 H572 0.951 . S
C590 C591 1.366 . S
C590 C592 1.388 . S
C591 C590 1.366 . S
C591 C595 1.385 . S
C592 H573 0.951 . S
C592 C590 1.388 . S
C592 C593 1.366 . S
C593 C592 1.366 . S
C593 C594 1.414 . S
C593 C596 1.499 . S
C594 H574 0.950 . S
C594 C593 1.414 . S
C594 C595 1.374 . S
C595 H575 0.950 . S
C595 C591 1.385 . S
C595 C594 1.374 . S
C596 C593 1.499 . S
C596 C597 1.373 . S
C596 C598 1.389 . S
C597 H576 0.950 . S
C597 C596 1.373 . S
C597 C613 1.377 . S
C598 C596 1.389 . S
C598 C599 1.524 . S
C598 C612 1.377 . S
C599 C598 1.524 . S
C599 C600 1.397 . S
C599 C604 1.363 . S
C600 H577 0.950 . S
C600 C599 1.397 . S
C600 C601 1.334 . S
C601 H578 0.950 . S
C601 C600 1.334 . S
C601 C602 1.287 . S
C602 C601 1.287 . S
C602 C603 1.524 . S
C602 H621 0.913 . S
C603 H579 0.950 . S
C603 C602 1.524 . S
C603 C604 1.415 . S
C604 H580 0.950 . S
C604 C599 1.363 . S
C604 C603 1.415 . S
C605 H581 0.951 . S
C605 C606 1.366 . S
C605 C607 1.388 . S
C606 C605 1.366 . S
C606 C610 1.385 . S
C607 H582 0.951 . S
C607 C605 1.388 . S
C607 C608 1.366 . S
C608 C607 1.366 . S
C608 C609 1.414 . S
C608 C611 1.499 . S
C609 H583 0.950 . S
C609 C608 1.414 . S
C609 C610 1.374 . S
C610 H584 0.950 . S
C610 C606 1.385 . S
C610 C609 1.374 . S
C611 C608 1.499 . S
C611 C612 1.373 . S
C611 C613 1.389 . S
C612 H585 0.950 . S
C612 C598 1.377 . S
C612 C611 1.373 . S
C613 C597 1.377 . S
C613 C611 1.389 . S
C613 C614 1.524 . S
C614 C613 1.524 . S
C614 C615 1.397 . S
C614 C619 1.363 . S
C615 H586 0.950 . S
C615 C614 1.397 . S
C615 C616 1.334 . S
C616 H587 0.950 . S
C616 C615 1.334 . S
C616 C617 1.287 . S
C617 C616 1.287 . S
C617 C618 1.524 . S
C617 H620 0.999 . S
C618 H588 0.950 . S
C618 C617 1.524 . S
C618 C619 1.415 . S
C619 H589 0.950 . S
C619 C614 1.363 . S
C619 C618 1.415 . S
H620 C617 0.999 . S
H621 C602 0.913 . S
H622 C640 0.951 . S
H623 C642 0.951 . S
H624 C644 0.950 . S
H625 C645 0.950 . S
H626 C647 0.950 . S
H627 C650 0.950 . S
H628 C651 0.950 . S
H629 C653 0.950 . S
H630 C654 0.950 . S
H631 C655 0.951 . S
H632 C657 0.951 . S
H633 C659 0.950 . S
H634 C660 0.950 . S
H635 C662 0.950 . S
H636 C665 0.950 . S
H637 C666 0.950 . S
H638 C668 0.950 . S
H639 C669 0.950 . S
C640 H622 0.951 . S
C640 C641 1.366 . S
C640 C642 1.388 . S
C641 C640 1.366 . S
C641 C645 1.385 . S
C642 H623 0.951 . S
C642 C640 1.388 . S
C642 C643 1.366 . S
C643 C642 1.366 . S
C643 C644 1.414 . S
C643 C646 1.499 . S
C644 H624 0.950 . S
C644 C643 1.414 . S
C644 C645 1.374 . S
C645 H625 0.950 . S
C645 C641 1.385 . S
C645 C644 1.374 . S
C646 C643 1.499 . S
C646 C647 1.373 . S
C646 C648 1.389 . S
C647 H626 0.950 . S
C647 C646 1.373 . S
C647 C663 1.377 . S
C648 C646 1.389 . S
C648 C649 1.524 . S
C648 C662 1.377 . S
C649 C648 1.524 . S
C649 C650 1.397 . S
C649 C654 1.363 . S
C650 H627 0.950 . S
C650 C649 1.397 . S
C650 C651 1.334 . S
C651 H628 0.950 . S
C651 C650 1.334 . S
C651 C652 1.287 . S
C652 C651 1.287 . S
C652 C653 1.524 . S
C652 H671 0.913 . S
C653 H629 0.950 . S
C653 C652 1.524 . S
C653 C654 1.415 . S
C654 H630 0.950 . S
C654 C649 1.363 . S
C654 C653 1.415 . S
C655 H631 0.951 . S
C655 C656 1.366 . S
C655 C657 1.388 . S
C656 C655 1.366 . S
C656 C660 1.385 . S
C657 H632 0.951 . S
C657 C655 1.388 . S
C657 C658 1.366 . S
C658 C657 1.366 . S
C658 C659 1.414 . S
C658 C661 1.499 . S
C659 H633 0.950 . S
C659 C658 1.414 . S
C659 C660 1.374 . S
C660 H634 0.950 . S
C660 C656 1.385 . S
C660 C659 1.374 . S
C661 C658 1.499 . S
C661 C662 1.373 . S
C661 C663 1.389 . S
C662 H635 0.950 . S
C662 C648 1.377 . S
C662 C661 1.373 . S
C663 C647 1.377 . S
C663 C661 1.389 . S
C663 C664 1.524 . S
C664 C663 1.524 . S
C664 C665 1.397 . S
C664 C669 1.363 . S
C665 H636 0.950 . S
C665 C664 1.397 . S
C665 C666 1.334 . S
C666 H637 0.950 . S
C666 C665 1.334 . S
C666 C667 1.287 . S
C667 C666 1.287 . S
C667 C668 1.524 . S
C667 H670 0.999 . S
C668 H638 0.950 . S
C668 C667 1.524 . S
C668 C669 1.415 . S
C669 H639 0.950 . S
C669 C664 1.363 . S
C669 C668 1.415 . S
H670 C667 0.999 . S
H671 C652 0.913 . S
H672 C690 0.951 . S
H673 C692 0.951 . S
H674 C694 0.950 . S
H675 C695 0.950 . S
H676 C697 0.950 . S
H677 C700 0.950 . S
H678 C701 0.950 . S
H679 C703 0.950 . S
H680 C704 0.950 . S
H681 C705 0.951 . S
H682 C707 0.951 . S
H683 C709 0.950 . S
H684 C710 0.950 . S
H685 C712 0.950 . S
H686 C715 0.950 . S
H687 C716 0.950 . S
H688 C718 0.950 . S
H689 C719 0.950 . S
C690 H672 0.951 . S
C690 C691 1.366 . S
C690 C692 1.388 . S
C691 C690 1.366 . S
C691 C695 1.385 . S
C692 H673 0.951 . S
C692 C690 1.388 . S
C692 C693 1.366 . S
C693 C692 1.366 . S
C693 C694 1.414 . S
C693 C696 1.499 . S
C694 H674 0.950 . S
C694 C693 1.414 . S
C694 C695 1.374 . S
C695 H675 0.950 . S
C695 C691 1.385 . S
C695 C694 1.374 . S
C696 C693 1.499 . S
C696 C697 1.373 . S
C696 C698 1.389 . S
C697 H676 0.950 . S
C697 C696 1.373 . S
C697 C713 1.377 . S
C698 C696 1.389 . S
C698 C699 1.524 . S
C698 C712 1.377 . S
C699 C698 1.524 . S
C699 C700 1.397 . S
C699 C704 1.363 . S
C700 H677 0.950 . S
C700 C699 1.397 . S
C700 C701 1.334 . S
C701 H678 0.950 . S
C701 C700 1.334 . S
C701 C702 1.287 . S
C702 C701 1.287 . S
C702 C703 1.524 . S
C702 H721 0.913 . S
C703 H679 0.950 . S
C703 C702 1.524 . S
C703 C704 1.415 . S
C704 H680 0.950 . S
C704 C699 1.363 . S
C704 C703 1.415 . S
C705 H681 0.951 . S
C705 C706 1.366 . S
C705 C707 1.388 . S
C706 C705 1.366 . S
C706 C710 1.385 . S
C707 H682 0.951 . S
C707 C705 1.388 . S
C707 C708 1.366 . S
C708 C707 1.366 . S
C708 C709 1.414 . S
C708 C711 1.499 . S
C709 H683 0.950 . S
C709 C708 1.414 . S
C709 C710 1.374 . S
C710 H684 0.950 . S
C710 C706 1.385 . S
C710 C709 1.374 . S
C711 C708 1.499 . S
C711 C712 1.373 . S
C711 C713 1.389 . S
C712 H685 0.950 . S
C712 C698 1.377 . S
C712 C711 1.373 . S
C713 C697 1.377 . S
C713 C711 1.389 . S
C713 C714 1.524 . S
C714 C713 1.524 . S
C714 C715 1.397 . S
C714 C719 1.363 . S
C715 H686 0.950 . S
C715 C714 1.397 . S
C715 C716 1.334 . S
C716 H687 0.950 . S
C716 C715 1.334 . S
C716 C717 1.287 . S
C717 C716 1.287 . S
C717 C718 1.524 . S
C717 H720 0.999 . S
C718 H688 0.950 . S
C718 C717 1.524 . S
C718 C719 1.415 . S
C719 H689 0.950 . S
C719 C714 1.363 . S
C719 C718 1.415 . S
H720 C717 0.999 . S
H721 C702 0.913 . S
H722 C740 0.951 . S
H723 C742 0.951 . S
H724 C744 0.950 . S
H725 C745 0.950 . S
H726 C747 0.950 . S
H727 C750 0.950 . S
H728 C751 0.950 . S
H729 C753 0.950 . S
H730 C754 0.950 . S
H731 C755 0.951 . S
H732 C757 0.951 . S
H733 C759 0.950 . S
H734 C760 0.950 . S
H735 C762 0.950 . S
H736 C765 0.950 . S
H737 C766 0.950 . S
H738 C768 0.950 . S
H739 C769 0.950 . S
C740 H722 0.951 . S
C740 C741 1.366 . S
C740 C742 1.388 . S
C741 C740 1.366 . S
C741 C745 1.385 . S
C742 H723 0.951 . S
C742 C740 1.388 . S
C742 C743 1.366 . S
C743 C742 1.366 . S
C743 C744 1.414 . S
C743 C746 1.499 . S
C744 H724 0.950 . S
C744 C743 1.414 . S
C744 C745 1.374 . S
C745 H725 0.950 . S
C745 C741 1.385 . S
C745 C744 1.374 . S
C746 C743 1.499 . S
C746 C747 1.373 . S
C746 C748 1.389 . S
C747 H726 0.950 . S
C747 C746 1.373 . S
C747 C763 1.377 . S
C748 C746 1.389 . S
C748 C749 1.524 . S
C748 C762 1.377 . S
C749 C748 1.524 . S
C749 C750 1.397 . S
C749 C754 1.363 . S
C750 H727 0.950 . S
C750 C749 1.397 . S
C750 C751 1.334 . S
C751 H728 0.950 . S
C751 C750 1.334 . S
C751 C752 1.287 . S
C752 C751 1.287 . S
C752 C753 1.524 . S
C752 H771 0.913 . S
C753 H729 0.950 . S
C753 C752 1.524 . S
C753 C754 1.415 . S
C754 H730 0.950 . S
C754 C749 1.363 . S
C754 C753 1.415 . S
C755 H731 0.951 . S
C755 C756 1.366 . S
C755 C757 1.388 . S
C756 C755 1.366 . S
C756 C760 1.385 . S
C757 H732 0.951 . S
C757 C755 1.388 . S
C757 C758 1.366 . S
C758 C757 1.366 . S
C758 C759 1.414 . S
C758 C761 1.499 . S
C759 H733 0.950 . S
C759 C758 1.414 . S
C759 C760 1.374 . S
C760 H734 0.950 . S
C760 C756 1.385 . S
C760 C759 1.374 . S
C761 C758 1.499 . S
C761 C762 1.373 . S
C761 C763 1.389 . S
C762 H735 0.950 . S
C762 C748 1.377 . S
C762 C761 1.373 . S
C763 C747 1.377 . S
C763 C761 1.389 . S
C763 C764 1.524 . S
C764 C763 1.524 . S
C764 C765 1.397 . S
C764 C769 1.363 . S
C765 H736 0.950 . S
C765 C764 1.397 . S
C765 C766 1.334 . S
C766 H737 0.950 . S
C766 C765 1.334 . S
C766 C767 1.287 . S
C767 C766 1.287 . S
C767 C768 1.524 . S
C767 H770 0.999 . S
C768 H738 0.950 . S
C768 C767 1.524 . S
C768 C769 1.415 . S
C769 H739 0.950 . S
C769 C764 1.363 . S
C769 C768 1.415 . S
H770 C767 0.999 . S
H771 C752 0.913 . S
H772 C790 0.951 . S
H773 C792 0.951 . S
H774 C794 0.950 . S
H775 C795 0.950 . S
H776 C797 0.950 . S
H777 C800 0.950 . S
H778 C801 0.950 . S
H779 C803 0.950 . S
H780 C804 0.950 . S
H781 C805 0.951 . S
H782 C807 0.951 . S
H783 C809 0.950 . S
H784 C810 0.950 . S
H785 C812 0.950 . S
H786 C815 0.950 . S
H787 C816 0.950 . S
H788 C818 0.950 . S
H789 C819 0.950 . S
C790 H772 0.951 . S
C790 C791 1.366 . S
C790 C792 1.388 . S
C791 C790 1.366 . S
C791 C795 1.385 . S
C792 H773 0.951 . S
C792 C790 1.388 . S
C792 C793 1.366 . S
C793 C792 1.366 . S
C793 C794 1.414 . S
C793 C796 1.499 . S
C794 H774 0.950 . S
C794 C793 1.414 . S
C794 C795 1.374 . S
C795 H775 0.950 . S
C795 C791 1.385 . S
C795 C794 1.374 . S
C796 C793 1.499 . S
C796 C797 1.373 . S
C796 C798 1.389 . S
C797 H776 0.950 . S
C797 C796 1.373 . S
C797 C813 1.377 . S
C798 C796 1.389 . S
C798 C799 1.524 . S
C798 C812 1.377 . S
C799 C798 1.524 . S
C799 C800 1.397 . S
C799 C804 1.363 . S
C800 H777 0.950 . S
C800 C799 1.397 . S
C800 C801 1.334 . S
C801 H778 0.950 . S
C801 C800 1.334 . S
C801 C802 1.287 . S
C802 C801 1.287 . S
C802 C803 1.524 . S
C802 H821 0.913 . S
C803 H779 0.950 . S
C803 C802 1.524 . S
C803 C804 1.415 . S
C804 H780 0.950 . S
C804 C799 1.363 . S
C804 C803 1.415 . S
C805 H781 0.951 . S
C805 C806 1.366 . S
C805 C807 1.388 . S
C806 C805 1.366 . S
C806 C810 1.385 . S
C807 H782 0.951 . S
C807 C805 1.388 . S
C807 C808 1.366 . S
C808 C807 1.366 . S
C808 C809 1.414 . S
C808 C811 1.499 . S
C809 H783 0.950 . S
C809 C808 1.414 . S
C809 C810 1.374 . S
C810 H784 0.950 . S
C810 C806 1.385 . S
C810 C809 1.374 . S
C811 C808 1.499 . S
C811 C812 1.373 . S
C811 C813 1.389 . S
C812 H785 0.950 . S
C812 C798 1.377 . S
C812 C811 1.373 . S
C813 C797 1.377 . S
C813 C811 1.389 . S
C813 C814 1.524 . S
C814 C813 1.524 . S
C814 C815 1.397 . S
C814 C819 1.363 . S
C815 H786 0.950 . S
C815 C814 1.397 . S
C815 C816 1.334 . S
C816 H787 0.950 . S
C816 C815 1.334 . S
C816 C817 1.287 . S
C817 C816 1.287 . S
C817 C818 1.524 . S
C817 H820 0.999 . S
C818 H788 0.950 . S
C818 C817 1.524 . S
C818 C819 1.415 . S
C819 H789 0.950 . S
C819 C814 1.363 . S
C819 C818 1.415 . S
H820 C817 0.999 . S
H821 C802 0.913 . S
H822 C840 0.951 . S
H823 C842 0.951 . S
H824 C844 0.950 . S
H825 C845 0.950 . S
H826 C847 0.950 . S
H827 C850 0.950 . S
H828 C851 0.950 . S
H829 C853 0.950 . S
H830 C854 0.950 . S
H831 C855 0.951 . S
H832 C857 0.951 . S
H833 C859 0.950 . S
H834 C860 0.950 . S
H835 C862 0.950 . S
H836 C865 0.950 . S
H837 C866 0.950 . S
H838 C868 0.950 . S
H839 C869 0.950 . S
C840 H822 0.951 . S
C840 C841 1.366 . S
C840 C842 1.388 . S
C841 C840 1.366 . S
C841 C845 1.385 . S
C842 H823 0.951 . S
C842 C840 1.388 . S
C842 C843 1.366 . S
C843 C842 1.366 . S
C843 C844 1.414 . S
C843 C846 1.499 . S
C844 H824 0.950 . S
C844 C843 1.414 . S
C844 C845 1.374 . S
C845 H825 0.950 . S
C845 C841 1.385 . S
C845 C844 1.374 . S
C846 C843 1.499 . S
C846 C847 1.373 . S
C846 C848 1.389 . S
C847 H826 0.950 . S
C847 C846 1.373 . S
C847 C863 1.377 . S
C848 C846 1.389 . S
C848 C849 1.524 . S
C848 C862 1.377 . S
C849 C848 1.524 . S
C849 C850 1.397 . S
C849 C854 1.363 . S
C850 H827 0.950 . S
C850 C849 1.397 . S
C850 C851 1.334 . S
C851 H828 0.950 . S
C851 C850 1.334 . S
C851 C852 1.287 . S
C852 C851 1.287 . S
C852 C853 1.524 . S
C852 H871 0.913 . S
C853 H829 0.950 . S
C853 C852 1.524 . S
C853 C854 1.415 . S
C854 H830 0.950 . S
C854 C849 1.363 . S
C854 C853 1.415 . S
C855 H831 0.951 . S
C855 C856 1.366 . S
C855 C857 1.388 . S
C856 C855 1.366 . S
C856 C860 1.385 . S
C857 H832 0.951 . S
C857 C855 1.388 . S
C857 C858 1.366 . S
C858 C857 1.366 . S
C858 C859 1.414 . S
C858 C861 1.499 . S
C859 H833 0.950 . S
C859 C858 1.414 . S
C859 C860 1.374 . S
C860 H834 0.950 . S
C860 C856 1.385 . S
C860 C859 1.374 . S
C861 C858 1.499 . S
C861 C862 1.373 . S
C861 C863 1.389 . S
C862 H835 0.950 . S
C862 C848 1.377 . S
C862 C861 1.373 . S
C863 C847 1.377 . S
C863 C861 1.389 . S
C863 C864 1.524 . S
C864 C863 1.524 . S
C864 C865 1.397 . S
C864 C869 1.363 . S
C865 H836 0.950 . S
C865 C864 1.397 . S
C865 C866 1.334 . S
C866 H837 0.950 . S
C866 C865 1.334 . S
C866 C867 1.287 . S
C867 C866 1.287 . S
C867 C868 1.524 . S
C867 H870 0.999 . S
C868 H838 0.950 . S
C868 C867 1.524 . S
C868 C869 1.415 . S
C869 H839 0.950 . S
C869 C864 1.363 . S
C869 C868 1.415 . S
H870 C867 0.999 . S
H871 C852 0.913 . S
H872 C890 0.951 . S
H873 C892 0.951 . S
H874 C894 0.950 . S
H875 C895 0.950 . S
H876 C897 0.950 . S
H877 C900 0.950 . S
H878 C901 0.950 . S
H879 C903 0.950 . S
H880 C904 0.950 . S
H881 C905 0.951 . S
H882 C907 0.951 . S
H883 C909 0.950 . S
H884 C910 0.950 . S
H885 C912 0.950 . S
H886 C915 0.950 . S
H887 C916 0.950 . S
H888 C918 0.950 . S
H889 C919 0.950 1_556 S
C890 H872 0.951 . S
C890 C891 1.366 . S
C890 C892 1.388 . S
C891 C890 1.366 . S
C891 C895 1.385 . S
C892 H873 0.951 . S
C892 C890 1.388 . S
C892 C893 1.366 . S
C893 C892 1.366 . S
C893 C894 1.414 . S
C893 C896 1.499 . S
C894 H874 0.950 . S
C894 C893 1.414 . S
C894 C895 1.374 . S
C895 H875 0.950 . S
C895 C891 1.385 . S
C895 C894 1.374 . S
C896 C893 1.499 . S
C896 C897 1.373 . S
C896 C898 1.389 . S
C897 H876 0.950 . S
C897 C896 1.373 . S
C897 C913 1.377 . S
C898 C896 1.389 . S
C898 C899 1.524 . S
C898 C912 1.377 . S
C899 C898 1.524 . S
C899 C900 1.397 . S
C899 C904 1.363 . S
C900 H877 0.950 . S
C900 C899 1.397 . S
C900 C901 1.334 . S
C901 H878 0.950 . S
C901 C900 1.334 . S
C901 C902 1.287 . S
C902 C901 1.287 . S
C902 C903 1.524 . S
C902 H921 0.913 . S
C903 H879 0.950 . S
C903 C902 1.524 . S
C903 C904 1.415 . S
C904 H880 0.950 . S
C904 C899 1.363 . S
C904 C903 1.415 . S
C905 H881 0.951 . S
C905 C906 1.366 . S
C905 C907 1.388 . S
C906 C905 1.366 . S
C906 C910 1.385 . S
C907 H882 0.951 . S
C907 C905 1.388 . S
C907 C908 1.366 . S
C908 C907 1.366 . S
C908 C909 1.414 . S
C908 C911 1.499 . S
C909 H883 0.950 . S
C909 C908 1.414 . S
C909 C910 1.374 . S
C910 H884 0.950 . S
C910 C906 1.385 . S
C910 C909 1.374 . S
C911 C908 1.499 . S
C911 C912 1.373 . S
C911 C913 1.389 . S
C912 H885 0.950 . S
C912 C898 1.377 . S
C912 C911 1.373 . S
C913 C897 1.377 . S
C913 C911 1.389 . S
C913 C914 1.523 1_556 S
C914 C913 1.523 1_554 S
C914 C915 1.399 . S
C914 C919 1.363 . S
C915 H886 0.950 . S
C915 C914 1.399 . S
C915 C916 1.334 . S
C916 H887 0.950 . S
C916 C915 1.334 . S
C916 C917 1.287 . S
C917 C916 1.287 . S
C917 C918 1.524 . S
C917 H920 0.999 . S
C918 H888 0.950 . S
C918 C917 1.524 . S
C918 C919 1.415 . S
C919 H889 0.950 1_554 S
C919 C914 1.363 . S
C919 C918 1.415 . S
H920 C917 0.999 . S
H921 C902 0.913 . S
H922 C940 0.951 . S
H923 C942 0.951 . S
H924 C944 0.950 . S
H925 C945 0.950 . S
H926 C947 0.950 . S
H927 C950 0.950 . S
H928 C951 0.950 . S
H929 C953 0.950 . S
H930 C954 0.950 . S
H931 C955 0.951 . S
H932 C957 0.951 . S
H933 C959 0.950 . S
H934 C960 0.950 . S
H935 C962 0.950 . S
H936 C965 0.950 . S
H937 C966 0.950 . S
H938 C968 0.950 . S
H939 C969 0.950 . S
C940 H922 0.951 . S
C940 C941 1.366 . S
C940 C942 1.388 . S
C941 C940 1.366 . S
C941 C945 1.385 . S
C942 H923 0.951 . S
C942 C940 1.388 . S
C942 C943 1.366 . S
C943 C942 1.366 . S
C943 C944 1.414 . S
C943 C946 1.499 . S
C944 H924 0.950 . S
C944 C943 1.414 . S
C944 C945 1.374 . S
C945 H925 0.950 . S
C945 C941 1.385 . S
C945 C944 1.374 . S
C946 C943 1.499 . S
C946 C947 1.373 . S
C946 C948 1.389 . S
C947 H926 0.950 . S
C947 C946 1.373 . S
C947 C963 1.377 . S
C948 C946 1.389 . S
C948 C949 1.524 . S
C948 C962 1.377 . S
C949 C948 1.524 . S
C949 C950 1.397 . S
C949 C954 1.363 . S
C950 H927 0.950 . S
C950 C949 1.397 . S
C950 C951 1.334 . S
C951 H928 0.950 . S
C951 C950 1.334 . S
C951 C952 1.287 . S
C952 C951 1.287 . S
C952 C953 1.524 . S
C952 H971 0.913 . S
C953 H929 0.950 . S
C953 C952 1.524 . S
C953 C954 1.415 . S
C954 H930 0.950 . S
C954 C949 1.363 . S
C954 C953 1.415 . S
C955 H931 0.951 . S
C955 C956 1.366 . S
C955 C957 1.388 . S
C956 C955 1.366 . S
C956 C960 1.385 . S
C957 H932 0.951 . S
C957 C955 1.388 . S
C957 C958 1.366 . S
C958 C957 1.366 . S
C958 C959 1.414 . S
C958 C961 1.499 . S
C959 H933 0.950 . S
C959 C958 1.414 . S
C959 C960 1.374 . S
C960 H934 0.950 . S
C960 C956 1.385 . S
C960 C959 1.374 . S
C961 C958 1.499 . S
C961 C962 1.373 . S
C961 C963 1.389 . S
C962 H935 0.950 . S
C962 C948 1.377 . S
C962 C961 1.373 . S
C963 C947 1.377 . S
C963 C961 1.389 . S
C963 C964 1.524 . S
C964 C963 1.524 . S
C964 C965 1.397 . S
C964 C969 1.363 . S
C965 H936 0.950 . S
C965 C964 1.397 . S
C965 C966 1.334 . S
C966 H937 0.950 . S
C966 C965 1.334 . S
C966 C967 1.287 . S
C967 C966 1.287 . S
C967 C968 1.524 . S
C967 H970 0.999 . S
C968 H938 0.950 . S
C968 C967 1.524 . S
C968 C969 1.415 . S
C969 H939 0.950 . S
C969 C964 1.363 . S
C969 C968 1.415 . S
H970 C967 0.999 . S
H971 C952 0.913 . S
H972 C990 0.951 . S
H973 C992 0.951 . S
H974 C994 0.950 . S
H975 C995 0.950 . S
H976 C997 0.950 . S
H977 C1000 0.950 . S
H978 C1001 0.950 . S
H979 C1003 0.950 . S
H980 C1004 0.950 . S
H981 C1005 0.951 . S
H982 C1007 0.951 . S
H983 C1009 0.950 . S
H984 C1010 0.950 . S
H985 C1012 0.950 . S
H986 C1015 0.950 . S
H987 C1016 0.950 . S
H988 C1018 0.950 . S
H989 C1019 0.950 . S
C990 H972 0.951 . S
C990 C991 1.366 . S
C990 C992 1.388 . S
C991 C990 1.366 . S
C991 C995 1.385 . S
C992 H973 0.951 . S
C992 C990 1.388 . S
C992 C993 1.366 . S
C993 C992 1.366 . S
C993 C994 1.414 . S
C993 C996 1.499 . S
C994 H974 0.950 . S
C994 C993 1.414 . S
C994 C995 1.374 . S
C995 H975 0.950 . S
C995 C991 1.385 . S
C995 C994 1.374 . S
C996 C993 1.499 . S
C996 C997 1.373 . S
C996 C998 1.389 . S
C997 H976 0.950 . S
C997 C996 1.373 . S
C997 C1013 1.377 . S
C998 C996 1.389 . S
C998 C999 1.524 . S
C998 C1012 1.377 . S
C999 C998 1.524 . S
C999 C1000 1.397 . S
C999 C1004 1.363 . S
C1000 H977 0.950 . S
C1000 C999 1.397 . S
C1000 C1001 1.334 . S
C1001 H978 0.950 . S
C1001 C1000 1.334 . S
C1001 C1002 1.287 . S
C1002 C1001 1.287 . S
C1002 C1003 1.524 . S
C1002 H1021 0.913 . S
C1003 H979 0.950 . S
C1003 C1002 1.524 . S
C1003 C1004 1.415 . S
C1004 H980 0.950 . S
C1004 C999 1.363 . S
C1004 C1003 1.415 . S
C1005 H981 0.951 . S
C1005 C1006 1.366 . S
C1005 C1007 1.388 . S
C1006 C1005 1.366 . S
C1006 C1010 1.385 . S
C1007 H982 0.951 . S
C1007 C1005 1.388 . S
C1007 C1008 1.366 . S
C1008 C1007 1.366 . S
C1008 C1009 1.414 . S
C1008 C1011 1.499 . S
C1009 H983 0.950 . S
C1009 C1008 1.414 . S
C1009 C1010 1.374 . S
C1010 H984 0.950 . S
C1010 C1006 1.385 . S
C1010 C1009 1.374 . S
C1011 C1008 1.499 . S
C1011 C1012 1.373 . S
C1011 C1013 1.389 . S
C1012 H985 0.950 . S
C1012 C998 1.377 . S
C1012 C1011 1.373 . S
C1013 C997 1.377 . S
C1013 C1011 1.389 . S
C1013 C1014 1.524 . S
C1014 C1013 1.524 . S
C1014 C1015 1.397 . S
C1014 C1019 1.363 . S
C1015 H986 0.950 . S
C1015 C1014 1.397 . S
C1015 C1016 1.334 . S
C1016 H987 0.950 . S
C1016 C1015 1.334 . S
C1016 C1017 1.287 . S
C1017 C1016 1.287 . S
C1017 C1018 1.524 . S
C1017 H1020 0.999 . S
C1018 H988 0.950 . S
C1018 C1017 1.524 . S
C1018 C1019 1.415 . S
C1019 H989 0.950 . S
C1019 C1014 1.363 . S
C1019 C1018 1.415 . S
H1020 C1017 0.999 . S
H1021 C1002 0.913 . S
H1022 C1040 0.951 . S
H1023 C1042 0.951 . S
H1024 C1044 0.950 . S
H1025 C1045 0.950 . S
H1026 C1047 0.950 . S
H1027 C1050 0.950 . S
H1028 C1051 0.950 . S
H1029 C1053 0.950 . S
H1030 C1054 0.950 . S
H1031 C1055 0.951 . S
H1032 C1057 0.951 . S
H1033 C1059 0.950 . S
H1034 C1060 0.950 . S
H1035 C1062 0.950 . S
H1036 C1065 0.950 . S
H1037 C1066 0.950 . S
H1038 C1068 0.950 . S
H1039 C1069 0.950 . S
C1040 H1022 0.951 . S
C1040 C1041 1.366 . S
C1040 C1042 1.388 . S
C1041 C1040 1.366 . S
C1041 C1045 1.385 . S
C1042 H1023 0.951 . S
C1042 C1040 1.388 . S
C1042 C1043 1.366 . S
C1043 C1042 1.366 . S
C1043 C1044 1.414 . S
C1043 C1046 1.499 . S
C1044 H1024 0.950 . S
C1044 C1043 1.414 . S
C1044 C1045 1.374 . S
C1045 H1025 0.950 . S
C1045 C1041 1.385 . S
C1045 C1044 1.374 . S
C1046 C1043 1.499 . S
C1046 C1047 1.373 . S
C1046 C1048 1.389 . S
C1047 H1026 0.950 . S
C1047 C1046 1.373 . S
C1047 C1063 1.377 . S
C1048 C1046 1.389 . S
C1048 C1049 1.524 . S
C1048 C1062 1.377 . S
C1049 C1048 1.524 . S
C1049 C1050 1.397 . S
C1049 C1054 1.363 . S
C1050 H1027 0.950 . S
C1050 C1049 1.397 . S
C1050 C1051 1.334 . S
C1051 H1028 0.950 . S
C1051 C1050 1.334 . S
C1051 C1052 1.287 . S
C1052 C1051 1.287 . S
C1052 C1053 1.524 . S
C1052 H1071 0.913 . S
C1053 H1029 0.950 . S
C1053 C1052 1.524 . S
C1053 C1054 1.415 . S
C1054 H1030 0.950 . S
C1054 C1049 1.363 . S
C1054 C1053 1.415 . S
C1055 H1031 0.951 . S
C1055 C1056 1.366 . S
C1055 C1057 1.388 . S
C1056 C1055 1.366 . S
C1056 C1060 1.385 . S
C1057 H1032 0.951 . S
C1057 C1055 1.388 . S
C1057 C1058 1.366 . S
C1058 C1057 1.366 . S
C1058 C1059 1.414 . S
C1058 C1061 1.499 . S
C1059 H1033 0.950 . S
C1059 C1058 1.414 . S
C1059 C1060 1.374 . S
C1060 H1034 0.950 . S
C1060 C1056 1.385 . S
C1060 C1059 1.374 . S
C1061 C1058 1.499 . S
C1061 C1062 1.373 . S
C1061 C1063 1.389 . S
C1062 H1035 0.950 . S
C1062 C1048 1.377 . S
C1062 C1061 1.373 . S
C1063 C1047 1.377 . S
C1063 C1061 1.389 . S
C1063 C1064 1.524 . S
C1064 C1063 1.524 . S
C1064 C1065 1.397 . S
C1064 C1069 1.363 . S
C1065 H1036 0.950 . S
C1065 C1064 1.397 . S
C1065 C1066 1.334 . S
C1066 H1037 0.950 . S
C1066 C1065 1.334 . S
C1066 C1067 1.287 . S
C1067 C1066 1.287 . S
C1067 C1068 1.524 . S
C1067 H1070 0.999 . S
C1068 H1038 0.950 . S
C1068 C1067 1.524 . S
C1068 C1069 1.415 . S
C1069 H1039 0.950 . S
C1069 C1064 1.363 . S
C1069 C1068 1.415 . S
H1070 C1067 0.999 . S
H1071 C1052 0.913 . S
H1072 C1090 0.951 . S
H1073 C1092 0.951 . S
H1074 C1094 0.950 . S
H1075 C1095 0.950 . S
H1076 C1097 0.950 . S
H1077 C1100 0.950 . S
H1078 C1101 0.950 . S
H1079 C1103 0.950 . S
H1080 C1104 0.950 . S
H1081 C1105 0.951 . S
H1082 C1107 0.951 . S
H1083 C1109 0.950 . S
H1084 C1110 0.950 . S
H1085 C1112 0.950 . S
H1086 C1115 0.950 . S
H1087 C1116 0.950 . S
H1088 C1118 0.950 . S
H1089 C1119 0.950 . S
C1090 H1072 0.951 . S
C1090 C1091 1.366 . S
C1090 C1092 1.388 . S
C1091 C1090 1.366 . S
C1091 C1095 1.385 . S
C1092 H1073 0.951 . S
C1092 C1090 1.388 . S
C1092 C1093 1.366 . S
C1093 C1092 1.366 . S
C1093 C1094 1.414 . S
C1093 C1096 1.499 . S
C1094 H1074 0.950 . S
C1094 C1093 1.414 . S
C1094 C1095 1.374 . S
C1095 H1075 0.950 . S
C1095 C1091 1.385 . S
C1095 C1094 1.374 . S
C1096 C1093 1.499 . S
C1096 C1097 1.373 . S
C1096 C1098 1.389 . S
C1097 H1076 0.950 . S
C1097 C1096 1.373 . S
C1097 C1113 1.377 . S
C1098 C1096 1.389 . S
C1098 C1099 1.524 . S
C1098 C1112 1.377 . S
C1099 C1098 1.524 . S
C1099 C1100 1.397 . S
C1099 C1104 1.363 . S
C1100 H1077 0.950 . S
C1100 C1099 1.397 . S
C1100 C1101 1.334 . S
C1101 H1078 0.950 . S
C1101 C1100 1.334 . S
C1101 C1102 1.287 . S
C1102 C1101 1.287 . S
C1102 C1103 1.524 . S
C1102 H1121 0.913 . S
C1103 H1079 0.950 . S
C1103 C1102 1.524 . S
C1103 C1104 1.415 . S
C1104 H1080 0.950 . S
C1104 C1099 1.363 . S
C1104 C1103 1.415 . S
C1105 H1081 0.951 . S
C1105 C1106 1.366 . S
C1105 C1107 1.388 . S
C1106 C1105 1.366 . S
C1106 C1110 1.385 . S
C1107 H1082 0.951 . S
C1107 C1105 1.388 . S
C1107 C1108 1.366 . S
C1108 C1107 1.366 . S
C1108 C1109 1.414 . S
C1108 C1111 1.499 . S
C1109 H1083 0.950 . S
C1109 C1108 1.414 . S
C1109 C1110 1.374 . S
C1110 H1084 0.950 . S
C1110 C1106 1.385 . S
C1110 C1109 1.374 . S
C1111 C1108 1.499 . S
C1111 C1112 1.373 . S
C1111 C1113 1.389 . S
C1112 H1085 0.950 . S
C1112 C1098 1.377 . S
C1112 C1111 1.373 . S
C1113 C1097 1.377 . S
C1113 C1111 1.389 . S
C1113 C1114 1.524 . S
C1114 C1113 1.524 . S
C1114 C1115 1.397 . S
C1114 C1119 1.363 . S
C1115 H1086 0.950 . S
C1115 C1114 1.397 . S
C1115 C1116 1.334 . S
C1116 H1087 0.950 . S
C1116 C1115 1.334 . S
C1116 C1117 1.287 . S
C1117 C1116 1.287 . S
C1117 C1118 1.524 . S
C1117 H1120 0.999 . S
C1118 H1088 0.950 . S
C1118 C1117 1.524 . S
C1118 C1119 1.415 . S
C1119 H1089 0.950 . S
C1119 C1114 1.363 . S
C1119 C1118 1.415 . S
H1120 C1117 0.999 . S
H1121 C1102 0.913 . S
H1122 C1140 0.951 . S
H1123 C1142 0.951 . S
H1124 C1144 0.950 . S
H1125 C1145 0.950 . S
H1126 C1147 0.950 . S
H1127 C1150 0.950 . S
H1128 C1151 0.950 . S
H1129 C1153 0.950 . S
H1130 C1154 0.950 . S
H1131 C1155 0.951 . S
H1132 C1157 0.951 . S
H1133 C1159 0.950 . S
H1134 C1160 0.950 . S
H1135 C1162 0.950 . S
H1136 C1165 0.950 . S
H1137 C1166 0.950 . S
H1138 C1168 0.950 . S
H1139 C1169 0.950 . S
C1140 H1122 0.951 . S
C1140 C1141 1.366 . S
C1140 C1142 1.388 . S
C1141 C1140 1.366 . S
C1141 C1145 1.385 . S
C1142 H1123 0.951 . S
C1142 C1140 1.388 . S
C1142 C1143 1.366 . S
C1143 C1142 1.366 . S
C1143 C1144 1.414 . S
C1143 C1146 1.499 . S
C1144 H1124 0.950 . S
C1144 C1143 1.414 . S
C1144 C1145 1.374 . S
C1145 H1125 0.950 . S
C1145 C1141 1.385 . S
C1145 C1144 1.374 . S
C1146 C1143 1.499 . S
C1146 C1147 1.373 . S
C1146 C1148 1.389 . S
C1147 H1126 0.950 . S
C1147 C1146 1.373 . S
C1147 C1163 1.377 . S
C1148 C1146 1.389 . S
C1148 C1149 1.524 . S
C1148 C1162 1.377 . S
C1149 C1148 1.524 . S
C1149 C1150 1.397 . S
C1149 C1154 1.363 . S
C1150 H1127 0.950 . S
C1150 C1149 1.397 . S
C1150 C1151 1.334 . S
C1151 H1128 0.950 . S
C1151 C1150 1.334 . S
C1151 C1152 1.287 . S
C1152 C1151 1.287 . S
C1152 C1153 1.524 . S
C1152 H1171 0.913 . S
C1153 H1129 0.950 . S
C1153 C1152 1.524 . S
C1153 C1154 1.415 . S
C1154 H1130 0.950 . S
C1154 C1149 1.363 . S
C1154 C1153 1.415 . S
C1155 H1131 0.951 . S
C1155 C1156 1.366 . S
C1155 C1157 1.388 . S
C1156 C1155 1.366 . S
C1156 C1160 1.385 . S
C1157 H1132 0.951 . S
C1157 C1155 1.388 . S
C1157 C1158 1.366 . S
C1158 C1157 1.366 . S
C1158 C1159 1.414 . S
C1158 C1161 1.499 . S
C1159 H1133 0.950 . S
C1159 C1158 1.414 . S
C1159 C1160 1.374 . S
C1160 H1134 0.950 . S
C1160 C1156 1.385 . S
C1160 C1159 1.374 . S
C1161 C1158 1.499 . S
C1161 C1162 1.373 . S
C1161 C1163 1.389 . S
C1162 H1135 0.950 . S
C1162 C1148 1.377 . S
C1162 C1161 1.373 . S
C1163 C1147 1.377 . S
C1163 C1161 1.389 . S
C1163 C1164 1.524 . S
C1164 C1163 1.524 . S
C1164 C1165 1.397 . S
C1164 C1169 1.363 . S
C1165 H1136 0.950 . S
C1165 C1164 1.397 . S
C1165 C1166 1.334 . S
C1166 H1137 0.950 . S
C1166 C1165 1.334 . S
C1166 C1167 1.287 . S
C1167 C1166 1.287 . S
C1167 C1168 1.524 . S
C1167 H1170 0.999 . S
C1168 H1138 0.950 . S
C1168 C1167 1.524 . S
C1168 C1169 1.415 . S
C1169 H1139 0.950 . S
C1169 C1164 1.363 . S
C1169 C1168 1.415 . S
H1170 C1167 0.999 . S
H1171 C1152 0.913 . S
H1172 C1190 0.951 . S
H1173 C1192 0.951 . S
H1174 C1194 0.950 . S
H1175 C1195 0.950 . S
H1176 C1197 0.950 . S
H1177 C1200 0.950 . S
H1178 C1201 0.950 . S
H1179 C1203 0.950 . S
H1180 C1204 0.950 . S
H1181 C1205 0.951 . S
H1182 C1207 0.951 . S
H1183 C1209 0.950 . S
H1184 C1210 0.950 . S
H1185 C1212 0.950 . S
H1186 C1215 0.950 . S
H1187 C1216 0.950 . S
H1188 C1218 0.950 . S
H1189 C1219 0.950 . S
C1190 H1172 0.951 . S
C1190 C1191 1.366 . S
C1190 C1192 1.388 . S
C1191 C1190 1.366 . S
C1191 C1195 1.385 . S
C1192 H1173 0.951 . S
C1192 C1190 1.388 . S
C1192 C1193 1.366 . S
C1193 C1192 1.366 . S
C1193 C1194 1.414 . S
C1193 C1196 1.499 . S
C1194 H1174 0.950 . S
C1194 C1193 1.414 . S
C1194 C1195 1.374 . S
C1195 H1175 0.950 . S
C1195 C1191 1.385 . S
C1195 C1194 1.374 . S
C1196 C1193 1.499 . S
C1196 C1197 1.373 . S
C1196 C1198 1.389 . S
C1197 H1176 0.950 . S
C1197 C1196 1.373 . S
C1197 C1213 1.377 . S
C1198 C1196 1.389 . S
C1198 C1199 1.524 . S
C1198 C1212 1.377 . S
C1199 C1198 1.524 . S
C1199 C1200 1.397 . S
C1199 C1204 1.363 . S
C1200 H1177 0.950 . S
C1200 C1199 1.397 . S
C1200 C1201 1.334 . S
C1201 H1178 0.950 . S
C1201 C1200 1.334 . S
C1201 C1202 1.287 . S
C1202 C1201 1.287 . S
C1202 C1203 1.524 . S
C1202 H1221 0.913 . S
C1203 H1179 0.950 . S
C1203 C1202 1.524 . S
C1203 C1204 1.415 . S
C1204 H1180 0.950 . S
C1204 C1199 1.363 . S
C1204 C1203 1.415 . S
C1205 H1181 0.951 . S
C1205 C1206 1.366 . S
C1205 C1207 1.388 . S
C1206 C1205 1.366 . S
C1206 C1210 1.385 . S
C1207 H1182 0.951 . S
C1207 C1205 1.388 . S
C1207 C1208 1.366 . S
C1208 C1207 1.366 . S
C1208 C1209 1.414 . S
C1208 C1211 1.499 . S
C1209 H1183 0.950 . S
C1209 C1208 1.414 . S
C1209 C1210 1.374 . S
C1210 H1184 0.950 . S
C1210 C1206 1.385 . S
C1210 C1209 1.374 . S
C1211 C1208 1.499 . S
C1211 C1212 1.373 . S
C1211 C1213 1.389 . S
C1212 H1185 0.950 . S
C1212 C1198 1.377 . S
C1212 C1211 1.373 . S
C1213 C1197 1.377 . S
C1213 C1211 1.389 . S
C1213 C1214 1.524 . S
C1214 C1213 1.524 . S
C1214 C1215 1.397 . S
C1214 C1219 1.363 . S
C1215 H1186 0.950 . S
C1215 C1214 1.397 . S
C1215 C1216 1.334 . S
C1216 H1187 0.950 . S
C1216 C1215 1.334 . S
C1216 C1217 1.287 . S
C1217 C1216 1.287 . S
C1217 C1218 1.524 . S
C1217 H1220 0.999 . S
C1218 H1188 0.950 . S
C1218 C1217 1.524 . S
C1218 C1219 1.415 . S
C1219 H1189 0.950 . S
C1219 C1214 1.363 . S
C1219 C1218 1.415 . S
H1220 C1217 0.999 . S
H1221 C1202 0.913 . S
H1222 C1240 0.951 . S
H1223 C1242 0.951 . S
H1224 C1244 0.950 . S
H1225 C1245 0.950 . S
H1226 C1247 0.950 . S
H1227 C1250 0.950 . S
H1228 C1251 0.950 . S
H1229 C1253 0.950 . S
H1230 C1254 0.950 . S
H1231 C1255 0.951 . S
H1232 C1257 0.951 . S
H1233 C1259 0.950 . S
H1234 C1260 0.950 . S
H1235 C1262 0.950 . S
H1236 C1265 0.950 . S
H1237 C1266 0.950 . S
H1238 C1268 0.950 . S
H1239 C1269 0.950 . S
C1240 H1222 0.951 . S
C1240 C1241 1.366 . S
C1240 C1242 1.388 1_556 S
C1241 C1240 1.366 . S
C1241 C1245 1.385 . S
C1242 H1223 0.951 . S
C1242 C1240 1.388 1_554 S
C1242 C1243 1.366 . S
C1243 C1242 1.366 . S
C1243 C1244 1.414 . S
C1243 C1246 1.499 . S
C1244 H1224 0.950 . S
C1244 C1243 1.414 . S
C1244 C1245 1.374 1_554 S
C1245 H1225 0.950 . S
C1245 C1241 1.385 . S
C1245 C1244 1.374 1_556 S
C1246 C1243 1.499 . S
C1246 C1247 1.373 . S
C1246 C1248 1.389 . S
C1247 H1226 0.950 . S
C1247 C1246 1.373 . S
C1247 C1263 1.377 . S
C1248 C1246 1.389 . S
C1248 C1249 1.524 . S
C1248 C1262 1.377 . S
C1249 C1248 1.524 . S
C1249 C1250 1.397 . S
C1249 C1254 1.363 . S
C1250 H1227 0.950 . S
C1250 C1249 1.397 . S
C1250 C1251 1.334 . S
C1251 H1228 0.950 . S
C1251 C1250 1.334 . S
C1251 C1252 1.287 . S
C1252 C1251 1.287 . S
C1252 C1253 1.524 . S
C1252 H1271 0.913 . S
C1253 H1229 0.950 . S
C1253 C1252 1.524 . S
C1253 C1254 1.415 . S
C1254 H1230 0.950 . S
C1254 C1249 1.363 . S
C1254 C1253 1.415 . S
C1255 H1231 0.951 . S
C1255 C1256 1.366 . S
C1255 C1257 1.388 . S
C1256 C1255 1.366 . S
C1256 C1260 1.385 . S
C1257 H1232 0.951 . S
C1257 C1255 1.388 . S
C1257 C1258 1.366 . S
C1258 C1257 1.366 . S
C1258 C1259 1.414 . S
C1258 C1261 1.499 . S
C1259 H1233 0.950 . S
C1259 C1258 1.414 . S
C1259 C1260 1.374 . S
C1260 H1234 0.950 . S
C1260 C1256 1.385 . S
C1260 C1259 1.374 . S
C1261 C1258 1.499 . S
C1261 C1262 1.373 . S
C1261 C1263 1.389 . S
C1262 H1235 0.950 . S
C1262 C1248 1.377 . S
C1262 C1261 1.373 . S
C1263 C1247 1.377 . S
C1263 C1261 1.389 . S
C1263 C1264 1.524 . S
C1264 C1263 1.524 . S
C1264 C1265 1.397 . S
C1264 C1269 1.363 . S
C1265 H1236 0.950 . S
C1265 C1264 1.397 . S
C1265 C1266 1.334 . S
C1266 H1237 0.950 . S
C1266 C1265 1.334 . S
C1266 C1267 1.287 . S
C1267 C1266 1.287 . S
C1267 C1268 1.524 . S
C1267 H1270 0.999 . S
C1268 H1238 0.950 . S
C1268 C1267 1.524 . S
C1268 C1269 1.415 . S
C1269 H1239 0.950 . S
C1269 C1264 1.363 . S
C1269 C1268 1.415 . S
H1270 C1267 0.999 . S
H1271 C1252 0.913 . S
H1272 C1290 0.951 . S
H1273 C1292 0.951 . S
H1274 C1294 0.950 . S
H1275 C1295 0.950 . S
H1276 C1297 0.950 . S
H1277 C1300 0.950 . S
H1278 C1301 0.950 . S
H1279 C1303 0.950 . S
H1280 C1304 0.950 . S
H1281 C1305 0.951 . S
H1282 C1307 0.951 . S
H1283 C1309 0.950 . S
H1284 C1310 0.950 . S
H1285 C1312 0.950 . S
H1286 C1315 0.950 . S
H1287 C1316 0.950 . S
H1288 C1318 0.950 . S
H1289 C1319 0.950 . S
C1290 H1272 0.951 . S
C1290 C1291 1.366 . S
C1290 C1292 1.388 . S
C1291 C1290 1.366 . S
C1291 C1295 1.385 . S
C1292 H1273 0.951 . S
C1292 C1290 1.388 . S
C1292 C1293 1.366 . S
C1293 C1292 1.366 . S
C1293 C1294 1.414 . S
C1293 C1296 1.499 . S
C1294 H1274 0.950 . S
C1294 C1293 1.414 . S
C1294 C1295 1.374 . S
C1295 H1275 0.950 . S
C1295 C1291 1.385 . S
C1295 C1294 1.374 . S
C1296 C1293 1.499 . S
C1296 C1297 1.373 . S
C1296 C1298 1.389 . S
C1297 H1276 0.950 . S
C1297 C1296 1.373 . S
C1297 C1313 1.377 . S
C1298 C1296 1.389 . S
C1298 C1299 1.524 . S
C1298 C1312 1.377 . S
C1299 C1298 1.524 . S
C1299 C1300 1.397 . S
C1299 C1304 1.363 . S
C1300 H1277 0.950 . S
C1300 C1299 1.397 . S
C1300 C1301 1.334 . S
C1301 H1278 0.950 . S
C1301 C1300 1.334 . S
C1301 C1302 1.287 . S
C1302 C1301 1.287 . S
C1302 C1303 1.524 . S
C1302 H1321 0.913 . S
C1303 H1279 0.950 . S
C1303 C1302 1.524 . S
C1303 C1304 1.415 . S
C1304 H1280 0.950 . S
C1304 C1299 1.363 . S
C1304 C1303 1.415 . S
C1305 H1281 0.951 . S
C1305 C1306 1.366 . S
C1305 C1307 1.388 . S
C1306 C1305 1.366 . S
C1306 C1310 1.385 . S
C1307 H1282 0.951 . S
C1307 C1305 1.388 . S
C1307 C1308 1.366 . S
C1308 C1307 1.366 . S
C1308 C1309 1.414 . S
C1308 C1311 1.499 . S
C1309 H1283 0.950 . S
C1309 C1308 1.414 . S
C1309 C1310 1.374 . S
C1310 H1284 0.950 . S
C1310 C1306 1.385 . S
C1310 C1309 1.374 . S
C1311 C1308 1.499 . S
C1311 C1312 1.373 . S
C1311 C1313 1.389 . S
C1312 H1285 0.950 . S
C1312 C1298 1.377 . S
C1312 C1311 1.373 . S
C1313 C1297 1.377 . S
C1313 C1311 1.389 . S
C1313 C1314 1.524 . S
C1314 C1313 1.524 . S
C1314 C1315 1.397 . S
C1314 C1319 1.363 . S
C1315 H1286 0.950 . S
C1315 C1314 1.397 . S
C1315 C1316 1.334 . S
C1316 H1287 0.950 . S
C1316 C1315 1.334 . S
C1316 C1317 1.287 . S
C1317 C1316 1.287 . S
C1317 C1318 1.524 . S
C1317 H1320 0.999 . S
C1318 H1288 0.950 . S
C1318 C1317 1.524 . S
C1318 C1319 1.415 . S
C1319 H1289 0.950 . S
C1319 C1314 1.363 . S
C1319 C1318 1.415 . S
H1320 C1317 0.999 . S
H1321 C1302 0.913 . S
H1322 C1340 0.951 . S
H1323 C1342 0.951 . S
H1324 C1344 0.950 . S
H1325 C1345 0.950 . S
H1326 C1347 0.950 . S
H1327 C1350 0.950 . S
H1328 C1351 0.950 . S
H1329 C1353 0.950 . S
H1330 C1354 0.950 . S
H1331 C1355 0.951 . S
H1332 C1357 0.951 . S
H1333 C1359 0.950 . S
H1334 C1360 0.950 . S
H1335 C1362 0.950 . S
H1336 C1365 0.950 . S
H1337 C1366 0.950 . S
H1338 C1368 0.950 . S
H1339 C1369 0.950 . S
C1340 H1322 0.951 . S
C1340 C1341 1.366 . S
C1340 C1342 1.388 . S
C1341 C1340 1.366 . S
C1341 C1345 1.385 . S
C1342 H1323 0.951 . S
C1342 C1340 1.388 . S
C1342 C1343 1.366 . S
C1343 C1342 1.366 . S
C1343 C1344 1.414 . S
C1343 C1346 1.499 . S
C1344 H1324 0.950 . S
C1344 C1343 1.414 . S
C1344 C1345 1.374 . S
C1345 H1325 0.950 . S
C1345 C1341 1.385 . S
C1345 C1344 1.374 . S
C1346 C1343 1.499 . S
C1346 C1347 1.373 . S
C1346 C1348 1.389 . S
C1347 H1326 0.950 . S
C1347 C1346 1.373 . S
C1347 C1363 1.377 . S
C1348 C1346 1.389 . S
C1348 C1349 1.524 . S
C1348 C1362 1.377 . S
C1349 C1348 1.524 . S
C1349 C1350 1.397 . S
C1349 C1354 1.363 . S
C1350 H1327 0.950 . S
C1350 C1349 1.397 . S
C1350 C1351 1.334 . S
C1351 H1328 0.950 . S
C1351 C1350 1.334 . S
C1351 C1352 1.287 . S
C1352 C1351 1.287 . S
C1352 C1353 1.524 . S
C1352 H1371 0.913 . S
C1353 H1329 0.950 . S
C1353 C1352 1.524 . S
C1353 C1354 1.415 . S
C1354 H1330 0.950 . S
C1354 C1349 1.363 . S
C1354 C1353 1.415 . S
C1355 H1331 0.951 . S
C1355 C1356 1.366 . S
C1355 C1357 1.388 . S
C1356 C1355 1.366 . S
C1356 C1360 1.385 . S
C1357 H1332 0.951 . S
C1357 C1355 1.388 . S
C1357 C1358 1.366 . S
C1358 C1357 1.366 . S
C1358 C1359 1.414 . S
C1358 C1361 1.499 . S
C1359 H1333 0.950 . S
C1359 C1358 1.414 . S
C1359 C1360 1.374 . S
C1360 H1334 0.950 . S
C1360 C1356 1.385 . S
C1360 C1359 1.374 . S
C1361 C1358 1.499 . S
C1361 C1362 1.373 . S
C1361 C1363 1.389 . S
C1362 H1335 0.950 . S
C1362 C1348 1.377 . S
C1362 C1361 1.373 . S
C1363 C1347 1.377 . S
C1363 C1361 1.389 . S
C1363 C1364 1.524 . S
C1364 C1363 1.524 . S
C1364 C1365 1.397 . S
C1364 C1369 1.363 . S
C1365 H1336 0.950 . S
C1365 C1364 1.397 . S
C1365 C1366 1.334 . S
C1366 H1337 0.950 . S
C1366 C1365 1.334 . S
C1366 C1367 1.287 . S
C1367 C1366 1.287 . S
C1367 C1368 1.524 . S
C1367 H1370 0.999 . S
C1368 H1338 0.950 . S
C1368 C1367 1.524 . S
C1368 C1369 1.415 . S
C1369 H1339 0.950 . S
C1369 C1364 1.363 . S
C1369 C1368 1.415 . S
H1370 C1367 0.999 . S
H1371 C1352 0.913 . S
C206 C100 1.520 . S
C191 C10 1.516 . S
C256 C103 1.703 . S
C241 C15 1.704 . S
C306 C101 1.402 . S
C291 C26 1.402 . S
C356 C102 1.487 1_655 S
C341 C37 1.497 . S
C406 C117 1.805 . S
C391 C4 1.808 . S
C456 C131 1.686 . S
C441 C16 1.674 . S
C491 C27 1.616 . S
C506 C157 1.621 . S
C556 C171 1.389 . S
C541 C43 1.386 1_554 S
C606 C116 1.723 . S
C591 C21 1.715 . S
C641 C32 1.422 . S
C656 C130 1.410 . S
C706 C156 1.607 . S
C691 C38 1.592 . S
C756 C170 1.581 . S
C741 C5 1.573 . S
C791 C49 1.761 . S
C806 C115 1.759 1_655 S
C856 C88 1.593 . S
C841 C60 1.586 . S
C891 C76 1.599 . S
C906 C114 1.590 . S
C941 C81 1.533 . S
C956 C89 1.548 . S
C1006 C144 1.461 . S
C991 C54 1.459 . S
C1056 C158 1.612 . S
C1041 C59 1.612 . S
C1106 C128 1.607 . S
C1091 C70 1.612 . S
C1141 C87 1.651 . S
C1156 C142 1.641 . S
C1206 C145 1.532 . S
C1191 C65 1.523 . S
C1256 C159 1.647 . S
C1241 C71 1.625 . S
C1306 C129 1.602 . S
C1291 C82 1.593 . S
C1341 C48 1.743 . S
C1356 C143 1.731 . S
