# Generated by pormake.
# Topology zzz, (3,6)-cn, num edge types: 1
# Building blocks:
#     Node 0, Type 0, BuildingBlock: BETDIP_clean_linker_0, # of connection points: 3
#     Node 1, Type 0, BuildingBlock: BETDIP_clean_linker_0, # of connection points: 3
#     Node 2, Type 0, BuildingBlock: BETDIP_clean_linker_0, # of connection points: 3
#     Node 3, Type 0, BuildingBlock: BETDIP_clean_linker_0, # of connection points: 3
#     Node 4, Type 0, BuildingBlock: BETDIP_clean_linker_0, # of connection points: 3
#     Node 5, Type 0, BuildingBlock: BETDIP_clean_linker_0, # of connection points: 3
#     Node 6, Type 0, BuildingBlock: BETDIP_clean_linker_0, # of connection points: 3
#     Node 7, Type 0, BuildingBlock: BETDIP_clean_linker_0, # of connection points: 3
#     Node 8, Type 1, BuildingBlock: HISSIN_clean_sbu_0, # of connection points: 6
#     Node 9, Type 1, BuildingBlock: HISSIN_clean_sbu_0, # of connection points: 6
#     Node 10, Type 1, BuildingBlock: HISSIN_clean_sbu_0, # of connection points: 6
#     Node 11, Type 1, BuildingBlock: HISSIN_clean_sbu_0, # of connection points: 6
#     Edge 12, Type (0, 1), BuildingBlock: ZUJKAS_clean_linker_0, # of connection points: 2
#     Edge 13, Type (0, 1), BuildingBlock: ZUJKAS_clean_linker_0, # of connection points: 2
#     Edge 14, Type (0, 1), BuildingBlock: ZUJKAS_clean_linker_0, # of connection points: 2
#     Edge 15, Type (0, 1), BuildingBlock: ZUJKAS_clean_linker_0, # of connection points: 2
#     Edge 16, Type (0, 1), BuildingBlock: ZUJKAS_clean_linker_0, # of connection points: 2
#     Edge 17, Type (0, 1), BuildingBlock: ZUJKAS_clean_linker_0, # of connection points: 2
#     Edge 18, Type (0, 1), BuildingBlock: ZUJKAS_clean_linker_0, # of connection points: 2
#     Edge 19, Type (0, 1), BuildingBlock: ZUJKAS_clean_linker_0, # of connection points: 2
#     Edge 20, Type (0, 1), BuildingBlock: ZUJKAS_clean_linker_0, # of connection points: 2
#     Edge 21, Type (0, 1), BuildingBlock: ZUJKAS_clean_linker_0, # of connection points: 2
#     Edge 22, Type (0, 1), BuildingBlock: ZUJKAS_clean_linker_0, # of connection points: 2
#     Edge 23, Type (0, 1), BuildingBlock: ZUJKAS_clean_linker_0, # of connection points: 2
#     Edge 24, Type (0, 1), BuildingBlock: ZUJKAS_clean_linker_0, # of connection points: 2
#     Edge 25, Type (0, 1), BuildingBlock: ZUJKAS_clean_linker_0, # of connection points: 2
#     Edge 26, Type (0, 1), BuildingBlock: ZUJKAS_clean_linker_0, # of connection points: 2
#     Edge 27, Type (0, 1), BuildingBlock: ZUJKAS_clean_linker_0, # of connection points: 2
#     Edge 28, Type (0, 1), BuildingBlock: ZUJKAS_clean_linker_0, # of connection points: 2
#     Edge 29, Type (0, 1), BuildingBlock: ZUJKAS_clean_linker_0, # of connection points: 2
#     Edge 30, Type (0, 1), BuildingBlock: ZUJKAS_clean_linker_0, # of connection points: 2
#     Edge 31, Type (0, 1), BuildingBlock: ZUJKAS_clean_linker_0, # of connection points: 2
#     Edge 32, Type (0, 1), BuildingBlock: ZUJKAS_clean_linker_0, # of connection points: 2
#     Edge 33, Type (0, 1), BuildingBlock: ZUJKAS_clean_linker_0, # of connection points: 2
#     Edge 34, Type (0, 1), BuildingBlock: ZUJKAS_clean_linker_0, # of connection points: 2
#     Edge 35, Type (0, 1), BuildingBlock: ZUJKAS_clean_linker_0, # of connection points: 2
# Relax obj value: 0.220
# Max RMSD: 0.171
# Mean RMSD: 0.092
data_MOF--net-zzz--node1-HISSIN_clean_sbu_0--node2-BETDIP_clean_linker_0--edge1-ZUJKAS_clean_linker_0
_symmetry_space_group_name_H-M    P1
_symmetry_Int_Tables_number       1
_symmetry_cell_setting            triclinic
loop_
_symmetry_equiv_pos_as_xyz
'x, y, z'
_cell_length_a     65.073343
_cell_length_b     65.324816
_cell_length_c     20.972431
_cell_angle_alpha  89.828544
_cell_angle_beta   91.93349
_cell_angle_gamma 90.71073
loop_
_atom_site_label
_atom_site_type_symbol
_atom_site_fract_x
_atom_site_fract_y
_atom_site_fract_z
_atom_type_partial_charge
H0 H 0.75212 0.54168 0.35147 0.0
H1 H 0.74474 0.56099 0.15539 0.0
H2 H 0.80448 0.56266 0.24843 0.0
H3 H 0.71278 0.57772 0.23514 0.0
C4 C 0.70964 0.56149 0.22793 0.0
C5 C 0.75857 0.54803 0.30866 0.0
C6 C 0.77986 0.55263 0.30717 0.0
C7 C 0.74565 0.55192 0.25436 0.0
C8 C 0.75434 0.55924 0.19827 0.0
C9 C 0.7755 0.56295 0.19575 0.0
C10 C 0.78799 0.56027 0.25076 0.0
N11 N 0.72418 0.54727 0.25379 0.0
H12 H 1.0111 0.76542 0.30046 0.0
H13 H 0.97215 0.7564 0.13202 0.0
H14 H 0.96909 0.8123 0.23772 0.0
H15 H 0.9711 0.72155 0.20346 0.0
C16 C 0.98697 0.7212 0.18877 0.0
C17 C 0.99904 0.77072 0.26785 0.0
C18 C 0.99022 0.79022 0.27681 0.0
C19 C 0.99178 0.75795 0.21693 0.0
C20 C 0.97678 0.76544 0.17344 0.0
C21 C 0.96868 0.78501 0.18051 0.0
C22 C 0.97496 0.79691 0.23322 0.0
N23 N 1.00011 0.7381 0.20667 0.0
H24 H 0.77502 0.02 0.26962 0.0
H25 H 0.78252 0.97448 0.12335 0.0
H26 H 0.73025 0.97145 0.24173 0.0
H27 H 0.81868 0.97906 0.18255 0.0
C28 C 0.81812 0.99438 0.16216 0.0
C29 C 0.76984 1.00617 0.24537 0.0
C30 C 0.75129 0.99622 0.26359 0.0
C31 C 0.7819 0.99768 0.19649 0.0
C32 C 0.7744 0.98022 0.16375 0.0
C33 C 0.75589 0.9708 0.18007 0.0
C34 C 0.74492 0.97848 0.23081 0.0
N35 N 0.80097 1.00686 0.17762 0.0
H36 H 0.54005 0.77291 0.28849 0.0
H37 H 0.52101 0.78717 0.09532 0.0
H38 H 0.5113 0.72656 0.16834 0.0
H39 H 0.56679 0.80043 0.14006 0.0
C40 C 0.55425 0.81024 0.15318 0.0
C41 C 0.53313 0.76806 0.24325 0.0
C42 C 0.52528 0.74782 0.23582 0.0
C43 C 0.5321 0.78204 0.19151 0.0
C44 C 0.52256 0.77606 0.13361 0.0
C45 C 0.51438 0.7563 0.1257 0.0
C46 C 0.51643 0.74222 0.17613 0.0
N47 N 0.53987 0.80244 0.19727 0.0
H48 H 0.28662 0.50723 0.94295 0.0
H49 H 0.29612 0.49946 0.14606 0.0
H50 H 0.23664 0.48759 0.05913 0.0
H51 H 0.31468 0.53804 0.09119 0.0
C52 C 0.3238 0.52459 0.08205 0.0
C53 C 0.2808 0.50284 0.98887 0.0
C54 C 0.25989 0.49696 0.99405 0.0
C55 C 0.294 0.50354 0.04397 0.0
C56 C 0.28618 0.49856 0.10358 0.0
C57 C 0.26568 0.49242 0.10885 0.0
C58 C 0.25278 0.49141 0.05415 0.0
N59 N 0.31511 0.50931 0.04053 0.0
H60 H 0.02691 0.27821 0.01955 0.0
H61 H 0.06455 0.28354 0.19247 0.0
H62 H 0.07186 0.23243 0.06843 0.0
H63 H 0.02842 0.29223 0.22149 0.0
C64 C 0.02973 0.30547 0.19021 0.0
C65 C 0.03923 0.27264 0.0507 0.0
C66 C 0.04933 0.25419 0.03566 0.0
C67 C 0.0448 0.28349 0.10747 0.0
C68 C 0.06039 0.27566 0.14842 0.0
C69 C 0.07024 0.25741 0.1343 0.0
C70 C 0.06491 0.2471 0.07761 0.0
N71 N 0.03451 0.3018 0.12509 0.0
H72 H 0.27233 0.03378 0.03452 0.0
H73 H 0.26611 0.04603 0.23437 0.0
H74 H 0.32377 0.05787 0.1475 0.0
H75 H 0.24864 0.01 0.20715 0.0
C76 C 0.2378 0.02051 0.18441 0.0
C77 C 0.27887 0.03929 0.07951 0.0
C78 C 0.29986 0.04594 0.08378 0.0
C79 C 0.26652 0.03956 0.13442 0.0
C80 C 0.27535 0.04637 0.19241 0.0
C81 C 0.29588 0.0529 0.19774 0.0
C82 C 0.30783 0.05291 0.14322 0.0
N83 N 0.24539 0.03289 0.13335 0.0
H84 H 0.50794 0.26862 0.03918 0.0
H85 H 0.55524 0.25751 0.18384 0.0
H86 H 0.55669 0.31279 0.07291 0.0
H87 H 0.54987 0.22375 0.12694 0.0
C88 C 0.53417 0.22374 0.14317 0.0
C89 C 0.52197 0.27331 0.06462 0.0
C90 C 0.5317 0.2921 0.04923 0.0
C91 C 0.53086 0.26034 0.11198 0.0
C92 C 0.54879 0.26692 0.1457 0.0
C93 C 0.55818 0.28576 0.13197 0.0
C94 C 0.54974 0.298 0.08299 0.0
N95 N 0.5217 0.24099 0.12717 0.0
Eu96 Eu 1.0072 0.03252 0.5905 0.0
Eu97 Eu 0.03571 0.0146 0.70652 0.0
C98 C 0.02826 0.06373 0.69581 0.0
C99 C 0.99829 0.06193 0.4438 0.0
C100 C 0.99279 0.08263 0.44091 0.0
C101 C 0.02854 0.0699 0.38287 0.0
C102 C 1.00552 0.09697 0.41158 0.0
C103 C 0.01581 0.05558 0.41192 0.0
C104 C 0.02396 0.09079 0.38474 0.0
C105 C 0.98867 0.04823 0.49064 0.0
O106 O 1.00263 1.00716 0.73234 0.0
O107 O 0.98519 0.03089 0.67212 0.0
C108 C 0.98601 0.01804 0.72051 0.0
O109 O 1.0009 0.99819 0.58802 0.0
O110 O 0.04174 0.01141 0.80904 0.0
O111 O 0.06038 0.99499 0.74344 0.0
O112 O 0.03099 0.98836 0.63709 0.0
C113 C 0.01464 0.98404 0.60109 0.0
O114 O 0.03906 0.02952 0.54991 0.0
O115 O 0.05975 0.02727 0.64027 0.0
O116 O 0.03319 0.04806 0.73245 0.0
O117 O 0.99517 0.02942 0.49254 0.0
O118 O 0.98732 0.0559 0.54767 0.0
O119 O 0.02118 0.0611 0.63684 0.0
C120 C 0.04655 0.97661 0.82974 0.0
C121 C 0.04231 0.95957 0.79033 0.0
C122 C 0.02668 0.96059 0.91267 0.0
C123 C 0.02976 0.94361 0.81098 0.0
C124 C 0.03931 0.97657 0.89202 0.0
C125 C 0.02118 0.94434 0.87143 0.0
C126 C 0.05391 0.99596 0.80158 0.0
C127 C 0.05747 0.02954 0.57797 0.0
H128 H 0.97945 0.08794 0.46534 0.0
H129 H 0.04244 0.06472 0.36126 0.0
H130 H 1.00162 0.11302 0.41362 0.0
H131 H 0.02052 0.03974 0.41293 0.0
H132 H 0.04747 0.95914 0.74181 0.0
H133 H 0.02063 0.96131 0.96008 0.0
H134 H 0.02578 0.93134 0.77802 0.0
H135 H 0.04223 0.98957 0.92312 0.0
Eu136 Eu 0.5351 0.03785 0.72286 0.0
Eu137 Eu 0.51387 1.00831 0.61638 0.0
C138 C 0.53398 0.98847 0.74144 0.0
C139 C 0.56557 0.04667 0.871 0.0
C140 C 0.55693 0.03112 0.90867 0.0
C141 C 0.59956 0.03665 0.90982 0.0
C142 C 0.56954 0.01794 0.94429 0.0
C143 C 0.58694 0.0499 0.87431 0.0
C144 C 0.59099 0.02001 0.94286 0.0
C145 C 0.55318 0.0564 0.81929 0.0
O146 O 0.49043 0.01312 0.69282 0.0
O147 O 0.50085 0.04449 0.72772 0.0
C148 C 0.48651 0.03019 0.7226 0.0
O149 O 0.53088 0.05968 0.64059 0.0
O150 O 0.49619 0.9802 0.59802 0.0
O151 O 0.50146 1.00131 0.52052 0.0
O152 O 0.50727 0.04073 0.58137 0.0
C153 C 0.51771 0.05787 0.59206 0.0
O154 O 0.56209 0.02627 0.66631 0.0
O155 O 0.54611 0.01099 0.57881 0.0
O156 O 0.53194 0.98646 0.67937 0.0
O157 O 0.56107 0.05563 0.76304 0.0
O158 O 0.53361 0.05188 0.81691 0.0
O159 O 0.53216 1.00646 0.76819 0.0
C160 C 0.46736 0.99047 0.53857 0.0
C161 C 0.46054 0.0108 0.53829 0.0
C162 C 0.43294 0.97907 0.56534 0.0
C163 C 0.44044 0.01525 0.55308 0.0
C164 C 0.4533 0.97458 0.55112 0.0
C165 C 0.42658 0.99953 0.56833 0.0
C166 C 0.48964 0.98674 0.54234 0.0
C167 C 0.56286 0.01795 0.60905 0.0
H168 H 0.5405 0.02819 0.90747 0.0
H169 H 0.61607 0.03864 0.90779 0.0
H170 H 0.56253 1.00551 0.97048 0.0
H171 H 0.59398 0.06171 0.84564 0.0
H172 H 0.47099 0.02348 0.52992 0.0
H173 H 0.4224 0.96667 0.57608 0.0
H174 H 0.43579 0.03112 0.55308 0.0
H175 H 0.45833 0.95884 0.55312 0.0
Eu176 Eu 0.50384 0.52745 0.68775 0.0
Eu177 Eu 0.53945 0.51071 0.59606 0.0
C178 C 0.55073 0.52588 0.73889 0.0
C179 C 0.46937 0.56507 0.7591 0.0
C180 C 0.48426 0.57996 0.74531 0.0
C181 C 0.44448 0.59189 0.77362 0.0
C182 C 0.47934 0.60062 0.74529 0.0
C183 C 0.44942 0.57108 0.77313 0.0
C184 C 0.45938 0.60684 0.75911 0.0
C185 C 0.47431 0.54342 0.75147 0.0
O186 O 0.5255 0.48196 0.63955 0.0
O187 O 0.50963 0.4956 0.72583 0.0
C188 C 0.51673 0.4798 0.69505 0.0
O189 O 0.48841 0.50962 0.6067 0.0
O190 O 0.57179 0.50811 0.57178 0.0
O191 O 0.54783 0.49369 0.51232 0.0
O192 O 0.51163 0.51798 0.53271 0.0
C193 C 0.49282 0.51275 0.54692 0.0
O194 O 0.51147 0.55478 0.62589 0.0
O195 O 0.54197 0.54509 0.58326 0.0
O196 O 0.55359 0.51171 0.69595 0.0
O197 O 0.47194 0.53682 0.69315 0.0
O198 O 0.49165 0.53748 0.77818 0.0
O199 O 0.53412 0.53714 0.73611 0.0
C200 C 0.57961 0.47669 0.5225 0.0
C201 C 0.57 0.45745 0.52807 0.0
C202 C 0.61177 0.45985 0.50147 0.0
C203 C 0.58093 0.43963 0.51763 0.0
C204 C 0.60069 0.47775 0.51098 0.0
C205 C 0.60185 0.44057 0.5024 0.0
C206 C 0.56756 0.4956 0.52464 0.0
C207 C 0.52799 0.55897 0.59365 0.0
H208 H 0.49971 0.57558 0.73389 0.0
H209 H 0.42901 0.59629 0.78465 0.0
H210 H 0.4913 0.61176 0.73549 0.0
H211 H 0.43766 0.55971 0.78281 0.0
H212 H 0.55378 0.45616 0.53777 0.0
H213 H 0.62793 0.46121 0.49129 0.0
H214 H 0.57252 0.42524 0.51791 0.0
H215 H 0.60845 0.49246 0.50731 0.0
Eu216 Eu 0.02633 0.5379 0.60352 0.0
Eu217 Eu 1.01099 0.50642 0.71144 0.0
C218 C 0.05928 0.51559 0.69774 0.0
C219 C 0.06029 0.55537 0.47931 0.0
C220 C 0.06352 0.5347 0.46479 0.0
C221 C 0.09524 0.56338 0.44999 0.0
C222 C 0.08256 0.52835 0.44478 0.0
C223 C 0.0761 0.56976 0.47033 0.0
C224 C 0.09878 0.54251 0.43918 0.0
C225 C 0.04246 0.56074 0.51642 0.0
O226 O 1.00267 0.53785 0.74815 0.0
O227 O 0.02613 0.55675 0.69399 0.0
C228 C 0.01341 0.55483 0.74101 0.0
O229 O 0.99205 0.54328 0.60427 0.0
O230 O 1.00526 0.49851 0.81065 0.0
O231 O 0.99789 0.47665 0.73587 0.0
O232 O 0.98307 0.51224 0.64648 0.0
C233 C 0.97808 0.52915 0.61585 0.0
O234 O 0.02082 0.50764 0.55221 0.0
O235 O 0.02512 0.48621 0.63753 0.0
O236 O 0.04456 0.51225 0.73805 0.0
O237 O 0.02582 0.54972 0.5059 0.0
O238 O 0.04673 0.56302 0.57713 0.0
O239 O 0.05489 0.52119 0.63864 0.0
C240 C 0.97344 0.48157 0.81439 0.0
C241 C 0.95741 0.4835 0.76814 0.0
C242 C 0.94923 0.48816 0.89709 0.0
C243 C 0.93772 0.48866 0.78596 0.0
C244 C 0.96904 0.48318 0.87914 0.0
C245 C 0.93367 0.49177 0.85037 0.0
C246 C 0.99491 0.48197 0.79469 0.0
C247 C 0.02394 0.4892 0.57554 0.0
H248 H 0.05171 0.5232 0.47233 0.0
H249 H 0.10755 0.57458 0.44593 0.0
H250 H 0.08477 0.51224 0.4355 0.0
H251 H 0.07401 0.58569 0.48253 0.0
H252 H 0.96033 0.48229 0.7178 0.0
H253 H 0.94647 0.49059 0.94713 0.0
H254 H 0.9259 0.49114 0.74921 0.0
H255 H 0.9812 0.48193 0.91547 0.0
H256 H 0.22705 1.00317 0.29522 0.0
H257 H 0.19615 1.00773 0.35626 0.0
H258 H 0.17251 0.0496 0.21355 0.0
H259 H 0.20395 0.04528 0.15197 0.0
H260 H 0.17971 0.04779 0.40331 0.0
H261 H 0.12528 1.00425 0.24276 0.0
H262 H 0.15269 1.0001 0.24284 0.0
H263 H 0.14222 0.02297 0.20822 0.0
C264 C 0.2153 0.01337 0.27645 0.0
C265 C 0.21809 0.02381 0.21838 0.0
C266 C 0.19758 0.01598 0.31171 0.0
C267 C 0.18179 0.02893 0.28985 0.0
C268 C 0.18435 0.03939 0.23152 0.0
H269 H 0.05925 0.0425 0.4533 0.0
H270 H 0.08891 0.0441 0.38481 0.0
C271 C 0.20236 0.03694 0.19627 0.0
C272 C 0.163 0.03135 0.32919 0.0
H273 H 0.11239 0.01672 0.33818 0.0
C274 C 0.16494 0.04113 0.3888 0.0
C275 C 0.14362 0.02275 0.3107 0.0
C276 C 0.14063 0.01182 0.24782 0.0
C277 C 0.14823 0.04256 0.43 0.0
C278 C 0.12897 0.03325 0.41274 0.0
C279 C 0.12698 0.0238 0.35238 0.0
C280 C 0.11083 0.03299 0.45633 0.0
C281 C 0.1514 0.05452 0.49104 0.0
C282 C 0.11278 0.02619 0.5202 0.0
C283 C 0.09574 0.0256 0.56008 0.0
C284 C 0.07604 0.03134 0.53708 0.0
C285 C 0.07407 0.03797 0.47309 0.0
C286 C 0.09114 0.03883 0.43354 0.0
H287 H 0.1638 0.06624 0.48678 0.0
H288 H 0.13712 0.06231 0.50446 0.0
H289 H 0.15613 0.04391 0.53011 0.0
H290 H 0.12745 0.0209 0.53917 0.0
H291 H 0.09794 0.02011 0.60858 0.0
H292 H 0.55673 0.19094 0.17614 0.0
H293 H 0.54871 0.16315 0.24936 0.0
H294 H 0.48946 0.1895 0.28042 0.0
H295 H 0.49768 0.21783 0.20713 0.0
H296 H 0.50868 0.17761 0.39288 0.0
H297 H 0.51166 0.11389 0.22133 0.0
H298 H 0.5347 0.12921 0.22073 0.0
H299 H 0.51048 0.14031 0.19611 0.0
C300 C 0.54186 0.19074 0.19795 0.0
C301 C 0.52779 0.20652 0.18531 0.0
C302 C 0.53724 0.17472 0.23966 0.0
C303 C 0.51829 0.17385 0.2697 0.0
C304 C 0.50412 0.18966 0.25744 0.0
H305 H 0.49105 0.06131 0.48752 0.0
H306 H 0.48828 0.08976 0.41133 0.0
C307 C 0.50878 0.20582 0.21538 0.0
C308 C 0.514 0.15687 0.31577 0.0
H309 H 0.51579 0.10476 0.33233 0.0
C310 C 0.50995 0.16168 0.37937 0.0
C311 C 0.51526 0.13596 0.29842 0.0
C312 C 0.51804 0.12952 0.23026 0.0
C313 C 0.50819 0.14631 0.42639 0.0
C314 C 0.51098 0.1255 0.40991 0.0
C315 C 0.51396 0.12065 0.34564 0.0
C316 C 0.5117 0.10864 0.45864 0.0
C317 C 0.50332 0.15261 0.49329 0.0
C318 C 0.52582 0.10955 0.51082 0.0
C319 C 0.52735 0.09335 0.55468 0.0
C320 C 0.51499 0.0756 0.54729 0.0
C321 C 0.50079 0.0747 0.49509 0.0
C322 C 0.49921 0.091 0.45129 0.0
H323 H 0.49484 0.16727 0.49337 0.0
H324 H 0.49399 0.14072 0.51734 0.0
H325 H 0.5179 0.15495 0.52146 0.0
H326 H 0.53608 0.12262 0.51692 0.0
H327 H 0.53862 0.0946 0.59372 0.0
H328 H 0.34507 0.55372 0.14787 0.0
H329 H 0.37482 0.54982 0.22089 0.0
H330 H 0.375 0.48498 0.1823 0.0
H331 H 0.34558 0.48907 0.10695 0.0
H332 H 0.37747 0.52999 0.32805 0.0
H333 H 0.43503 0.49728 0.16986 0.0
H334 H 0.41122 0.50796 0.13936 0.0
H335 H 0.4117 0.48239 0.17158 0.0
C336 C 0.35171 0.53869 0.15399 0.0
C337 C 0.34311 0.52177 0.12113 0.0
C338 C 0.36869 0.53643 0.19609 0.0
C339 C 0.37746 0.51713 0.2071 0.0
C340 C 0.36897 0.50015 0.17374 0.0
H341 H 0.45381 0.4967 0.55535 0.0
H342 H 0.42618 0.49626 0.47332 0.0
C343 C 0.35207 0.50247 0.13073 0.0
C344 C 0.39462 0.51492 0.25617 0.0
H345 H 0.44375 0.49765 0.28087 0.0
C346 C 0.39197 0.52293 0.31749 0.0
C347 C 0.41372 0.50593 0.24275 0.0
C348 C 0.41822 0.49808 0.17717 0.0
C349 C 0.40769 0.52234 0.36524 0.0
C350 C 0.42656 0.51279 0.35251 0.0
C351 C 0.42927 0.50477 0.29119 0.0
C352 C 0.44387 0.51165 0.40142 0.0
C353 C 0.40407 0.53263 0.42817 0.0
C354 C 0.46347 0.51952 0.38793 0.0
C355 C 0.47948 0.51941 0.43453 0.0
C356 C 0.47627 0.51151 0.49599 0.0
C357 C 0.45681 0.50312 0.50887 0.0
C358 C 0.4409 0.503 0.46199 0.0
H359 H 0.39177 0.54425 0.42357 0.0
H360 H 0.39908 0.52096 0.46316 0.0
H361 H 0.41828 0.54026 0.44745 0.0
H362 H 0.4663 0.52619 0.34164 0.0
H363 H 0.49423 0.526 0.42279 0.0
H364 H 0.02415 0.31311 0.31427 0.0
H365 H 0.02414 0.34584 0.37008 0.0
H366 H 0.03367 0.37756 0.19283 0.0
H367 H 0.03375 0.34446 0.13619 0.0
H368 H 0.05671 0.37562 0.37614 0.0
H369 H 0.98433 0.40786 0.27151 0.0
H370 H 0.98997 0.38089 0.26781 0.0
H371 H 1.00282 0.39865 0.21682 0.0
C372 C 0.02611 0.32704 0.28685 0.0
C373 C 0.02888 0.32612 0.22067 0.0
C374 C 0.02614 0.34579 0.319 0.0
C375 C 0.02876 0.3643 0.28596 0.0
C376 C 0.03136 0.36355 0.21948 0.0
H377 H 0.02534 0.48947 0.44426 0.0
H378 H 0.02767 0.46017 0.3722 0.0
C379 C 0.03146 0.34462 0.18708 0.0
C380 C 0.02934 0.38405 0.32243 0.0
H381 H 1.00239 0.42778 0.3487 0.0
C382 C 0.04488 0.38708 0.3698 0.0
C383 C 0.01402 0.39913 0.31427 0.0
C384 C 0.99671 0.39656 0.26521 0.0
C385 C 0.04545 0.40454 0.40927 0.0
C386 C 0.02969 0.41929 0.40284 0.0
C387 C 0.01444 0.41653 0.35425 0.0
C388 C 0.02847 0.4373 0.44706 0.0
C389 C 0.06316 0.40707 0.457 0.0
C390 C 0.0279 0.43444 0.51354 0.0
C391 C 0.0267 0.45121 0.55499 0.0
C392 C 0.02576 0.47138 0.53121 0.0
C393 C 0.02609 0.47423 0.46457 0.0
C394 C 0.02739 0.45742 0.42312 0.0
H395 H 0.07689 0.39859 0.44211 0.0
H396 H 0.06752 0.42344 0.46343 0.0
H397 H 0.05862 0.40078 0.50374 0.0
H398 H 0.02813 0.41915 0.53357 0.0
H399 H 0.02626 0.4483 0.60578 0.0
H400 H 0.85393 0.97479 0.14997 0.0
H401 H 0.88114 0.98082 0.07483 0.0
H402 H 0.84784 0.03215 0.99576 0.0
H403 H 0.82065 0.02643 0.07326 0.0
H404 H 0.88077 0.97794 0.95154 0.0
H405 H 0.90373 0.0579 0.00931 0.0
H406 H 0.887 0.0431 0.05907 0.0
H407 H 0.87699 0.05493 0.98709 0.0
C408 C 0.8525 0.98762 0.11733 0.0
C409 C 0.83511 1.00023 0.11839 0.0
C410 C 0.86812 0.99101 0.07385 0.0
C411 C 0.86698 1.00709 0.02921 0.0
C412 C 0.84961 0.01991 0.03031 0.0
H413 H 0.94979 0.03969 0.71704 0.0
H414 H 0.92097 0.03707 0.78909 0.0
C415 C 0.83394 0.01661 0.07465 0.0
C416 C 0.88357 1.00948 0.98059 0.0
H417 H 0.91906 0.04302 0.91991 0.0
C418 C 0.88911 0.99223 0.94502 0.0
C419 C 0.89467 0.02804 0.97097 0.0
C420 C 0.89048 0.04701 0.00898 0.0
C421 C 0.9051 0.99296 0.901 0.0
C422 C 0.91634 0.01142 0.89197 0.0
C423 C 0.91061 0.0288 0.92649 0.0
C424 C 0.93413 0.01291 0.84752 0.0
C425 C 0.90958 0.97389 0.86373 0.0
C426 C 0.9515 1.00037 0.85585 0.0
C427 C 0.96809 1.00183 0.81449 0.0
C428 C 0.96793 0.01593 0.76337 0.0
C429 C 0.95056 0.02853 0.75529 0.0
C430 C 0.934 0.02711 0.79686 0.0
H431 H 0.89625 0.96309 0.86224 0.0
H432 H 0.91362 0.97771 0.81403 0.0
H433 H 0.92279 0.96592 0.88704 0.0
H434 H 0.95238 0.98955 0.89503 0.0
H435 H 0.98116 0.99196 0.82303 0.0
H436 H 0.51901 0.83304 0.133 0.0
H437 H 0.51484 0.86308 0.06296 0.0
H438 H 0.57957 0.86205 0.02513 0.0
H439 H 0.58347 0.83158 0.09211 0.0
H440 H 0.52877 0.90062 0.05997 0.0
H441 H 0.5577 0.86246 0.84708 0.0
H442 H 0.55263 0.84862 0.91942 0.0
H443 H 0.57668 0.86222 0.91092 0.0
C444 C 0.53234 0.83935 0.11001 0.0
C445 C 0.55157 0.82991 0.11785 0.0
C446 C 0.52995 0.8565 0.06973 0.0
C447 C 0.54676 0.86463 0.03682 0.0
C448 C 0.56615 0.85575 0.0476 0.0
H449 H 0.54961 0.9869 0.86401 0.0
H450 H 0.55261 0.95716 0.93454 0.0
C451 C 0.56844 0.83845 0.08669 0.0
C452 C 0.54416 0.88233 0.99145 0.0
H453 H 0.55557 0.89894 0.84154 0.0
C454 C 0.53451 0.90016 0.01205 0.0
C455 C 0.55116 0.88178 0.92807 0.0
C456 C 0.5599 0.86265 0.89986 0.0
C457 C 0.53214 0.91745 0.9721 0.0
C458 C 0.54035 0.91736 0.91018 0.0
C459 C 0.54955 0.89934 0.8891 0.0
C460 C 0.53934 0.93556 0.86618 0.0
C461 C 0.52034 0.93539 0.99648 0.0
C462 C 0.53198 0.93343 0.80255 0.0
C463 C 0.53084 0.95043 0.7614 0.0
C464 C 0.53684 0.97005 0.78297 0.0
C465 C 0.54463 0.97209 0.84606 0.0
C466 C 0.54613 0.95505 0.88678 0.0
H467 H 0.50938 0.93052 0.03323 0.0
H468 H 0.53128 0.94657 0.01914 0.0
H469 H 0.51159 0.9432 0.95731 0.0
H470 H 0.52676 0.91863 0.78487 0.0
H471 H 0.52469 0.94827 0.71321 0.0
H472 H 0.7014 0.52446 0.16698 0.0
H473 H 0.67415 0.51738 0.08542 0.0
H474 H 0.65096 0.57834 0.10895 0.0
H475 H 0.67838 0.58561 0.18839 0.0
H476 H 0.6323 0.5172 0.08336 0.0
H477 H 0.65876 0.57803 0.92029 0.0
H478 H 0.67388 0.57002 0.98933 0.0
H479 H 0.65329 0.58791 0.99744 0.0
C480 C 0.69038 0.53626 0.15502 0.0
C481 C 0.69209 0.55565 0.18389 0.0
C482 C 0.67482 0.53223 0.10824 0.0
C483 C 0.66072 0.5475 0.0895 0.0
C484 C 0.66194 0.56649 0.12074 0.0
H485 H 0.55404 0.55708 0.82699 0.0
H486 H 0.58037 0.56168 0.91262 0.0
C487 C 0.67753 0.57057 0.16673 0.0
C488 C 0.64483 0.54382 0.0372 0.0
H489 H 0.62555 0.56358 0.89625 0.0
C490 C 0.63096 0.52726 0.04226 0.0
C491 C 0.643 0.55685 0.98305 0.0
C492 C 0.65816 0.57406 0.97175 0.0
C493 C 0.61509 0.52376 0.99588 0.0
C494 C 0.61302 0.53709 0.94274 0.0
C495 C 0.62697 0.5535 0.93731 0.0
C496 C 0.59675 0.53403 0.89155 0.0
C497 C 0.60036 0.50605 1.0046 0.0
C498 C 0.59727 0.51709 0.85066 0.0
C499 C 0.58238 0.51451 0.80132 0.0
C500 C 0.56649 0.52879 0.79173 0.0
C501 C 0.56597 0.54574 0.83294 0.0
C502 C 0.58103 0.54841 0.88196 0.0
H503 H 0.60146 0.49967 0.05375 0.0
H504 H 0.58429 0.51085 0.99413 0.0
H505 H 0.60397 0.49369 0.97071 0.0
H506 H 0.60937 0.50593 0.85644 0.0
H507 H 0.58333 0.50126 0.77072 0.0
H508 H 0.96558 0.68619 0.16776 0.0
H509 H 0.97226 0.6585 0.09372 0.0
H510 H 0.02758 0.68964 0.03707 0.0
H511 H 0.02117 0.71726 0.1133 0.0
H512 H 0.97312 0.65937 0.96897 0.0
H513 H 0.04934 0.63288 0.05918 0.0
H514 H 0.03395 0.65019 0.1038 0.0
H515 H 0.04889 0.65959 0.03901 0.0
C516 C 0.97939 0.687 0.14035 0.0
C517 C 0.99292 0.70387 0.14699 0.0
C518 C 0.98316 0.67115 0.09763 0.0
C519 C 1.00055 0.67165 0.05968 0.0
C520 C 0.01429 0.68847 0.06658 0.0
H521 H 0.0363 0.59047 0.74926 0.0
H522 H 0.03338 0.61865 0.82501 0.0
C523 C 1.01059 0.70435 0.11011 0.0
C524 C 1.00339 0.65503 0.01121 0.0
H525 H 0.03657 0.61835 0.96188 0.0
C526 C 0.98701 0.6504 0.9678 0.0
C527 C 0.0215 0.6432 0.00886 0.0
C528 C 0.03936 0.64654 0.05554 0.0
C529 C 0.98819 0.63451 0.92272 0.0
C530 C 1.00619 0.6226 0.92077 0.0
C531 C 0.02273 0.62739 0.96329 0.0
C532 C 1.00805 0.60512 0.87503 0.0
C533 C 0.97019 0.63078 0.87681 0.0
C534 C 0.99494 0.58786 0.87787 0.0
C535 C 0.99661 0.5716 0.83459 0.0
C536 C 1.01143 0.57217 0.78711 0.0
C537 C 0.02461 0.58944 0.78471 0.0
C538 C 0.02302 0.60561 0.82828 0.0
H539 H 0.95977 0.64412 0.87394 0.0
H540 H 0.97553 0.62742 0.82825 0.0
H541 H 0.96119 0.61735 0.89327 0.0
H542 H 0.98345 0.58689 0.91396 0.0
H543 H 0.98625 0.55858 0.83836 0.0
H544 H 0.0609 0.25045 0.25727 0.0
H545 H 0.0728 0.22168 0.3204 0.0
H546 H 0.12004 0.21042 0.18554 0.0
H547 H 0.10753 0.23913 0.12061 0.0
H548 H 0.09459 0.18085 0.18191 0.0
H549 H 0.11134 0.19265 0.43612 0.0
H550 H 0.08925 0.20775 0.41689 0.0
H551 H 0.11333 0.21349 0.37965 0.0
C552 C 0.07457 0.24262 0.24284 0.0
C553 C 0.08298 0.24666 0.18332 0.0
C554 C 0.08154 0.22612 0.27946 0.0
C555 C 0.09724 0.21361 0.25757 0.0
C556 C 0.10781 0.21973 0.20321 0.0
H557 H 0.06525 0.09208 0.41255 0.0
H558 H 0.09004 0.11879 0.38257 0.0
C559 C 0.10063 0.2361 0.16605 0.0
C560 C 0.09771 0.19193 0.2789 0.0
H561 H 0.08617 0.16349 0.40983 0.0
C562 C 0.09368 0.17691 0.23202 0.0
C563 C 0.09685 0.18636 0.34403 0.0
C564 C 0.10318 0.20098 0.39677 0.0
C565 C 0.08591 0.15761 0.24818 0.0
C566 C 0.08193 0.15333 0.31253 0.0
C567 C 0.08869 0.1671 0.36017 0.0
C568 C 0.06759 0.13667 0.3293 0.0
C569 C 0.08031 0.14258 0.19577 0.0
C570 C 0.04684 0.13807 0.30936 0.0
C571 C 0.03271 0.12299 0.32638 0.0
C572 C 0.03911 0.1062 0.36348 0.0
C573 C 0.05998 0.10473 0.38302 0.0
C574 C 0.07411 0.11997 0.3664 0.0
H575 H 0.08983 0.14517 0.15341 0.0
H576 H 0.08229 0.12655 0.2125 0.0
H577 H 0.06395 0.14462 0.18066 0.0
H578 H 0.04153 0.15103 0.28126 0.0
H579 H 0.01676 0.12447 0.3107 0.0
H580 H 0.27841 0.07254 0.29866 0.0
H581 H 0.29158 0.07351 0.40956 0.0
H582 H 0.34762 0.04538 0.35262 0.0
H583 H 0.33432 0.04311 0.24345 0.0
H584 H 0.30449 0.03421 0.47468 0.0
H585 H 0.36543 0.09368 0.47775 0.0
H586 H 0.34316 0.09445 0.42364 0.0
H587 H 0.36501 0.07918 0.40509 0.0
C588 C 0.29361 0.06667 0.30967 0.0
C589 C 0.30521 0.05753 0.26193 0.0
C590 C 0.30112 0.06744 0.37293 0.0
C591 C 0.32057 0.05968 0.38884 0.0
C592 C 0.33267 0.05178 0.34085 0.0
H593 H 0.39128 0.98334 0.51609 0.0
H594 H 0.35819 1.00009 0.51085 0.0
C595 C 0.32507 0.05061 0.27816 0.0
C596 C 0.32774 0.05703 0.4557 0.0
H597 H 0.37321 0.06232 0.53804 0.0
C598 C 0.31912 0.0409 0.4906 0.0
C599 C 0.34635 0.06621 0.47767 0.0
C600 C 0.35542 0.08452 0.44438 0.0
C601 C 0.33047 0.03147 0.54032 0.0
C602 C 0.35085 0.03823 0.55392 0.0
C603 C 0.35777 0.05668 0.5268 0.0
C604 C 0.36685 0.02402 0.57851 0.0
C605 C 0.32133 0.01319 0.57348 0.0
C606 C 0.38246 0.0311 0.62098 0.0
C607 C 0.40159 0.02164 0.62306 0.0
C608 C 0.40527 1.00494 0.58295 0.0
C609 C 0.38883 0.99617 0.54745 0.0
C610 C 0.36976 1.0057 0.54499 0.0
H611 H 0.30483 0.01579 0.58229 0.0
H612 H 0.32215 0.99957 0.54219 0.0
H613 H 0.32954 1.0099 0.6196 0.0
H614 H 0.38057 0.04515 0.64735 0.0
H615 H 0.41401 0.02849 0.65163 0.0
H616 H 0.59348 0.30473 0.09412 0.0
H617 H 0.61695 0.32575 0.16084 0.0
H618 H 0.58475 0.30683 0.32796 0.0
H619 H 0.56139 0.28585 0.26181 0.0
H620 H 0.59845 0.35674 0.21976 0.0
H621 H 0.64321 0.31297 0.40076 0.0
H622 H 0.63255 0.30141 0.32849 0.0
H623 H 0.61675 0.30489 0.39641 0.0
C624 C 0.59187 0.30456 0.14537 0.0
C625 C 0.57544 0.29391 0.17271 0.0
C626 C 0.60537 0.31642 0.18344 0.0
C627 C 0.60269 0.31778 0.24943 0.0
C628 C 0.58746 0.30566 0.27744 0.0
H629 H 0.59657 0.40064 0.5421 0.0
H630 H 0.60411 0.37026 0.48056 0.0
C631 C 0.574 0.29374 0.23942 0.0
C632 C 0.61198 0.33514 0.28589 0.0
H633 H 0.63457 0.34789 0.42982 0.0
C634 C 0.60692 0.35488 0.26481 0.0
C635 C 0.62279 0.33261 0.3449 0.0
C636 C 0.62931 0.3118 0.36865 0.0
C637 C 0.61077 0.37204 0.30329 0.0
C638 C 0.62075 0.36948 0.3639 0.0
C639 C 0.62704 0.34985 0.38332 0.0
C640 C 0.62181 0.3865 0.41053 0.0
C641 C 0.60242 0.39241 0.28067 0.0
C642 C 0.6306 0.40547 0.39457 0.0
C643 C 0.62554 0.42307 0.42801 0.0
C644 C 0.61213 0.42183 0.47932 0.0
C645 C 0.60612 0.40232 0.50108 0.0
C646 C 0.61071 0.38483 0.4665 0.0
H647 H 0.59155 0.39076 0.23893 0.0
H648 H 0.59427 0.40016 0.31932 0.0
H649 H 0.61532 0.40245 0.26608 0.0
H650 H 0.63981 0.40697 0.35272 0.0
H651 H 0.63071 0.4377 0.40985 0.0
H652 H 0.26663 0.51958 0.20603 0.0
H653 H 0.24273 0.52034 0.29281 0.0
H654 H 0.22007 0.46014 0.23994 0.0
H655 H 0.24355 0.45975 0.15121 0.0
H656 H 0.19133 0.48708 0.22656 0.0
H657 H 0.22791 0.49929 0.46433 0.0
H658 H 0.23878 0.51672 0.40824 0.0
H659 H 0.24197 0.48954 0.39827 0.0
C660 C 0.25722 0.50614 0.21483 0.0
C661 C 0.25664 0.48972 0.17182 0.0
C662 C 0.24364 0.5065 0.26483 0.0
C663 C 0.22959 0.49028 0.27301 0.0
C664 C 0.23078 0.47281 0.23448 0.0
H665 H 0.11908 0.51019 0.49277 0.0
H666 H 0.15168 0.49574 0.46033 0.0
C667 C 0.24413 0.47259 0.18384 0.0
C668 C 0.21087 0.49385 0.30928 0.0
H669 H 0.19402 0.51503 0.44637 0.0
C670 C 0.19193 0.49263 0.27529 0.0
C671 C 0.21155 0.50113 0.37279 0.0
C672 C 0.23117 0.50152 0.41309 0.0
C673 C 0.17392 0.49974 0.30145 0.0
C674 C 0.17494 0.50863 0.36269 0.0
C675 C 0.19349 0.5086 0.3987 0.0
C676 C 0.15689 0.51873 0.38813 0.0
C677 C 0.15402 0.49836 0.26244 0.0
C678 C 0.14948 0.5367 0.35915 0.0
C679 C 0.13087 0.5449 0.37716 0.0
C680 C 0.11943 0.53517 0.42424 0.0
C681 C 0.12744 0.51773 0.45538 0.0
C682 C 0.14609 0.50958 0.43746 0.0
H683 H 0.15483 0.48691 0.22356 0.0
H684 H 0.14099 0.49419 0.293 0.0
H685 H 0.15075 0.51349 0.2404 0.0
H686 H 0.15778 0.54396 0.32108 0.0
H687 H 0.12504 0.55834 0.35254 0.0
H688 H 0.97975 0.78724 0.05767 0.0
H689 H 0.97099 0.81514 0.98544 0.0
H690 H 0.92336 0.83408 0.10989 0.0
H691 H 0.93273 0.80642 0.1842 0.0
H692 H 0.94085 0.8369 0.92028 0.0
H693 H 0.96768 0.877 0.14358 0.0
H694 H 0.96793 0.84954 0.13756 0.0
H695 H 0.94403 0.86266 0.1461 0.0
C696 C 0.96672 0.79667 0.06821 0.0
C697 C 0.95729 0.7951 0.12725 0.0
C698 C 0.96171 0.81269 0.02679 0.0
C699 C 0.94711 0.82716 0.04373 0.0
C700 C 0.93514 0.82342 0.09708 0.0
H701 H 0.98507 0.95059 0.93107 0.0
H702 H 0.96001 0.92469 0.96405 0.0
C703 C 0.94041 0.80757 0.13926 0.0
C704 C 0.9485 0.84783 0.01507 0.0
H705 H 0.97024 0.89454 0.0485 0.0
C706 C 0.94669 0.84975 0.9484 0.0
C707 C 0.95616 0.86463 0.05191 0.0
C708 C 0.95921 0.86346 0.12365 0.0
C709 C 0.95396 0.86733 0.91734 0.0
C710 C 0.96329 0.88322 0.95401 0.0
C711 C 0.96313 0.88222 0.02068 0.0
C712 C 0.97642 0.89919 0.92548 0.0
C713 C 0.9526 0.86827 0.8455 0.0
C714 C 0.994 0.89337 0.89344 0.0
C715 C 1.00848 0.90802 0.87556 0.0
C716 C 1.0057 0.92878 0.88979 0.0
C717 C 0.98783 0.93465 0.92064 0.0
C718 C 0.97336 0.91994 0.93861 0.0
H719 H 0.93911 0.85935 0.82646 0.0
H720 H 0.95146 0.88431 0.82816 0.0
H721 H 0.96661 0.86144 0.82614 0.0
H722 H 0.99701 0.87736 0.88474 0.0
H723 H 0.02216 0.90302 0.85236 0.0
H724 H 0.74605 0.97684 0.05585 0.0
H725 H 0.71431 0.96411 1.00617 0.0
H726 H 0.70896 0.91884 0.15513 0.0
H727 H 0.74035 0.93264 0.2076 0.0
H728 H 0.6886 0.93403 0.96762 0.0
H729 H 0.668 0.9593 0.2117 0.0
H730 H 0.69409 0.96111 0.18676 0.0
H731 H 0.6828 0.93651 0.20464 0.0
C732 C 0.73878 0.96344 0.07624 0.0
C733 C 0.74514 0.95619 0.13659 0.0
C734 C 0.7205 0.95613 0.04779 0.0
C735 C 0.70864 0.9413 0.07906 0.0
C736 C 0.71741 0.93096 0.13188 0.0
H737 H 0.58583 0.9785 0.93372 0.0
H738 H 0.60975 0.95198 0.97098 0.0
C739 C 0.73547 0.93867 0.16142 0.0
C740 C 0.68604 0.94155 0.06683 0.0
H741 H 0.64435 0.96439 0.12941 0.0
C742 C 0.67859 0.93996 1.00335 0.0
C743 C 0.67291 0.94921 0.11381 0.0
C744 C 0.67976 0.95173 0.18299 0.0
C745 C 0.65964 0.94844 0.98409 0.0
C746 C 0.64774 0.95818 0.03002 0.0
C747 C 0.65377 0.95708 0.09456 0.0
C748 C 0.63209 0.97346 0.01148 0.0
C749 C 0.65355 0.94895 0.91406 0.0
C750 C 0.63646 0.9942 0.02388 0.0
C751 C 0.62278 1.00929 1.00363 0.0
C752 C 0.60443 1.00392 0.97054 0.0
C753 C 0.59975 0.98306 0.95989 0.0
C754 C 0.61348 0.96791 0.98036 0.0
H755 H 0.66505 0.94148 0.88416 0.0
H756 H 0.63854 0.94095 0.90623 0.0
H757 H 0.6517 0.96503 0.8978 0.0
H758 H 0.65078 0.99877 0.04802 0.0
H759 H 0.62671 0.02519 0.013 0.0
H760 H 0.47993 0.73229 0.11145 0.0
H761 H 0.46505 0.71801 0.01325 0.0
H762 H 0.50768 0.75362 0.90377 0.0
H763 H 0.52381 0.76684 1.0026 0.0
H764 H 0.44704 0.73109 0.90241 0.0
H765 H 0.5233 0.6967 0.85692 0.0
H766 H 0.51851 0.70963 0.93049 0.0
H767 H 0.52219 0.72411 0.85861 0.0
C768 C 0.48629 0.73701 0.06659 0.0
C769 C 0.50354 0.75015 0.06511 0.0
C770 C 0.47751 0.7291 0.01032 0.0
C771 C 0.48556 0.73439 0.95122 0.0
C772 C 0.50157 0.74894 0.949 0.0
H773 H 0.47022 0.63713 0.67599 0.0
H774 H 0.47158 0.67385 0.6985 0.0
C775 C 0.51066 0.75661 1.00558 0.0
C776 C 0.47873 0.72246 0.89427 0.0
H777 H 0.49488 0.68342 0.80182 0.0
C778 C 0.45755 0.72101 0.87906 0.0
C779 C 0.49247 0.70946 0.86321 0.0
C780 C 0.51536 0.70987 0.87813 0.0
C781 C 0.4496 0.70561 0.8384 0.0
C782 C 0.46319 0.6914 0.81258 0.0
C783 C 0.48448 0.69432 0.82195 0.0
C784 C 0.45613 0.67123 0.78795 0.0
C785 C 0.42668 0.70396 0.82642 0.0
C786 C 0.44611 0.65772 0.82927 0.0
C787 C 0.44547 0.63675 0.81681 0.0
C788 C 0.45499 0.62897 0.76308 0.0
C789 C 0.46309 0.64273 0.71841 0.0
C790 C 0.46371 0.66371 0.73085 0.0
H791 H 0.41957 0.71934 0.82659 0.0
H792 H 0.42279 0.69637 0.78017 0.0
H793 H 0.41983 0.69483 0.86524 0.0
H794 H 0.44057 0.66307 0.87434 0.0
H795 H 0.43922 0.62652 0.85223 0.0
H796 H 0.77039 0.53861 0.09242 0.0
H797 H 0.79516 0.53454 0.00911 0.0
H798 H 0.82799 0.58857 0.07574 0.0
H799 H 0.80359 0.59217 0.16152 0.0
H800 H 0.81537 0.55337 0.91252 0.0
H801 H 0.8666 0.54307 0.12824 0.0
H802 H 0.83933 0.54656 0.13352 0.0
H803 H 0.85596 0.56813 0.11844 0.0
C804 C 0.78237 0.55014 0.08768 0.0
C805 C 0.78541 0.56546 0.13394 0.0
C806 C 0.79654 0.54779 0.04001 0.0
C807 C 0.81377 0.56085 0.03776 0.0
C808 C 0.81508 0.578 0.07798 0.0
H809 H 0.91573 0.52549 0.79809 0.0
H810 H 0.88603 0.54375 0.83655 0.0
C811 C 0.80112 0.58012 0.12661 0.0
C812 C 0.83186 0.55396 1.00324 0.0
H813 H 0.87996 0.53496 0.03013 0.0
C814 C 0.82963 0.54957 0.93784 0.0
C815 C 0.85027 0.54864 0.03699 0.0
C816 C 0.85322 0.55165 0.1082 0.0
C817 C 0.84507 0.53936 0.90568 0.0
C818 C 0.86331 0.53388 0.93979 0.0
C819 C 0.86586 0.53909 1.00436 0.0
C820 C 0.87971 0.52183 0.9112 0.0
C821 C 0.84129 0.53367 0.83656 0.0
C822 C 0.88604 0.50348 0.94054 0.0
C823 C 0.9032 0.49324 0.91946 0.0
C824 C 0.91415 0.50107 0.8682 0.0
C825 C 0.90732 0.51898 0.83716 0.0
C826 C 0.89032 0.52939 0.85888 0.0
H827 H 0.82471 0.53432 0.8223 0.0
H828 H 0.84972 0.54461 0.80607 0.0
H829 H 0.84692 0.51804 0.82696 0.0
H830 H 0.87804 0.49741 0.98108 0.0
H831 H 0.90817 0.47944 0.94394 0.0
H832 H 0.07398 0.23917 0.94501 0.0
H833 H 0.06749 0.20925 0.87781 0.0
H834 H 1.00471 0.20675 0.93718 0.0
H835 H 1.01151 0.23652 1.0067 0.0
H836 H 0.02079 0.17041 0.94981 0.0
H837 H 0.04045 0.19726 0.70994 0.0
H838 H 0.06134 0.20233 0.76569 0.0
H839 H 0.03703 0.21476 0.77499 0.0
C840 C 0.05856 0.23272 0.94201 0.0
C841 C 0.0432 0.24048 0.98078 0.0
C842 C 0.05483 0.21551 0.90331 0.0
C843 C 0.0355 0.2056 0.90128 0.0
C844 C 0.01976 0.21402 0.93734 0.0
H845 H 1.01275 0.09965 0.64549 0.0
H846 H 0.01327 0.13372 0.69414 0.0
C847 C 0.02354 0.23128 0.97647 0.0
C848 C 0.03254 0.18547 0.86692 0.0
H849 H 0.04175 0.16072 0.72694 0.0
C850 C 0.02515 0.16843 0.90078 0.0
C851 C 0.03791 0.18261 0.80251 0.0
C852 C 0.0444 0.20028 0.76104 0.0
C853 C 0.02365 0.14874 0.87322 0.0
C854 C 0.03032 0.14561 0.81023 0.0
C855 C 0.03699 0.1628 0.77553 0.0
C856 C 0.03047 0.12474 0.77965 0.0
C857 C 0.01459 0.13157 0.91198 0.0
C858 C 0.04039 0.10816 0.81012 0.0
C859 C 0.03995 0.08856 0.78258 0.0
C860 C 0.02992 0.08496 0.72299 0.0
C861 C 0.02065 0.10172 0.69135 0.0
C862 C 0.02091 0.1213 0.71929 0.0
H863 H 1.00419 0.1375 0.9484 0.0
H864 H 1.0058 0.12051 0.88122 0.0
H865 H 0.02719 0.1233 0.93757 0.0
H866 H 0.04852 0.11034 0.85552 0.0
H867 H 0.04745 0.07618 0.8083 0.0
H868 H 0.32564 0.07631 0.04289 0.0
H869 H 0.35503 0.07334 0.97416 0.0
H870 H 0.33826 0.01054 0.93477 0.0
H871 H 0.30868 0.01346 1.00443 0.0
H872 H 0.38758 0.04716 0.99666 0.0
H873 H 0.35261 0.03164 0.75642 0.0
H874 H 0.33807 0.04199 0.82049 0.0
H875 H 0.34388 0.01519 0.81909 0.0
C876 C 0.32786 0.06195 0.01852 0.0
C877 C 0.31458 0.04515 0.02947 0.0
C878 C 0.34484 0.06024 0.97923 0.0
C879 C 0.34914 0.04173 0.94866 0.0
C880 C 0.33531 0.02514 0.95671 0.0
H881 H 0.45396 1.00279 0.72357 0.0
H882 H 0.42133 1.00561 0.7772 0.0
C883 C 0.31825 0.02684 0.99648 0.0
C884 C 0.36892 0.0396 0.91326 0.0
H885 H 0.38883 0.02935 0.76734 0.0
C886 C 0.38777 0.04334 0.9464 0.0
C887 C 0.36949 0.03443 0.84766 0.0
C888 C 0.34997 0.03073 0.80843 0.0
C889 C 0.4069 0.04187 0.91665 0.0
C890 C 0.40752 0.03711 0.85065 0.0
C891 C 0.38864 0.03316 0.81756 0.0
C892 C 0.42752 0.03584 0.81572 0.0
C893 C 0.42629 0.04479 0.95725 0.0
C894 C 0.44212 0.05201 0.81738 0.0
C895 C 0.46107 0.05035 0.78703 0.0
C896 C 0.46598 0.03256 0.75315 0.0
C897 C 0.45104 0.01669 0.74963 0.0
C898 C 0.43218 0.0183 0.78034 0.0
H899 H 0.42355 0.04183 0.00848 0.0
H900 H 0.43865 0.03451 0.94198 0.0
H901 H 0.43176 0.06087 0.95285 0.0
H902 H 0.4389 0.06604 0.84226 0.0
H903 H 0.47193 0.06303 0.79043 0.0
H904 H 0.54724 0.30029 0.93319 0.0
H905 H 0.54064 0.33061 0.86659 0.0
H906 H 0.49272 0.34853 0.99115 0.0
H907 H 0.49932 0.31809 0.0578 0.0
H908 H 0.50432 0.34826 0.80165 0.0
H909 H 0.53597 0.39619 1.00123 0.0
H910 H 0.53934 0.36882 0.99876 0.0
H911 H 0.51511 0.37918 0.02027 0.0
C912 C 0.53476 0.31029 0.94486 0.0
C913 C 0.52352 0.30661 0.99998 0.0
C914 C 0.53111 0.32772 0.90709 0.0
C915 C 0.51638 0.34207 0.92421 0.0
C916 C 0.5043 0.33781 0.97721 0.0
H917 H 0.4959 0.46851 0.80158 0.0
H918 H 0.49459 0.435 0.85341 0.0
C919 C 0.50786 0.32026 0.01479 0.0
C920 C 0.51495 0.36214 0.88976 0.0
H921 H 0.52446 0.41346 0.90845 0.0
C922 C 0.50866 0.36253 0.825 0.0
C923 C 0.52068 0.38082 0.92001 0.0
C924 C 0.52832 0.38137 0.98874 0.0
C925 C 0.50764 0.38104 0.79011 0.0
C926 C 0.51363 0.39973 0.82018 0.0
C927 C 0.51983 0.39927 0.88508 0.0
C928 C 0.51366 0.41992 0.78571 0.0
C929 C 0.4997 0.3804 0.72174 0.0
C930 C 0.52485 0.4229 0.73006 0.0
C931 C 0.5255 0.44213 0.6998 0.0
C932 C 0.51521 0.459 0.7249 0.0
C933 C 0.50402 0.45596 0.7806 0.0
C934 C 0.50327 0.43673 0.8105 0.0
H935 H 0.48996 0.36657 0.71226 0.0
H936 H 0.49056 0.39418 0.70942 0.0
H937 H 0.51291 0.37983 0.68975 0.0
H938 H 0.5335 0.41046 0.71064 0.0
H939 H 0.53446 0.44386 0.65748 0.0
H940 H 0.24954 0.53023 0.92006 0.0
H941 H 0.21769 0.53433 0.85491 0.0
H942 H 0.20216 0.47084 0.88622 0.0
H943 H 0.23396 0.46668 0.95036 0.0
H944 H 0.19059 0.48401 0.76331 0.0
H945 H 0.16328 0.53726 0.94749 0.0
H946 H 0.18688 0.54474 0.91144 0.0
H947 H 0.186 0.52201 0.95978 0.0
C948 C 0.2397 0.51699 0.91099 0.0
C949 C 0.24431 0.49812 0.94021 0.0
C950 C 0.22131 0.51941 0.87458 0.0
C951 C 0.20719 0.50301 0.86678 0.0
C952 C 0.21264 0.48377 0.89169 0.0
H953 H 0.07455 0.5041 0.8161 0.0
H954 H 0.11051 0.50121 0.85238 0.0
C955 C 0.23091 0.48138 0.92814 0.0
C956 C 0.18611 0.50603 0.83747 0.0
H957 H 0.14065 0.5304 0.86014 0.0
C958 C 0.17972 0.49429 0.78414 0.0
C959 C 0.17171 0.51914 0.86525 0.0
C960 C 0.17716 0.5314 0.92446 0.0
C961 C 0.15946 0.49526 0.75807 0.0
C962 C 0.14512 0.50852 0.78557 0.0
C963 C 0.15157 0.52032 0.83869 0.0
C964 C 0.12316 0.50982 0.7619 0.0
C965 C 0.15341 0.48154 0.70266 0.0
C966 C 0.11807 0.51571 0.69882 0.0
C967 C 0.09741 0.51732 0.67775 0.0
C968 C 0.08128 0.51321 0.71938 0.0
C969 C 0.08646 0.50734 0.78251 0.0
C970 C 0.10709 0.50572 0.80346 0.0
H971 H 0.16433 0.46874 0.69778 0.0
H972 H 0.13772 0.47503 0.70807 0.0
H973 H 0.15344 0.49062 0.65787 0.0
H974 H 0.13006 0.51941 0.66599 0.0
H975 H 0.09411 0.52202 0.62894 0.0
H976 H 0.9682 0.80364 0.37597 0.0
H977 H 0.97422 0.83512 0.43742 0.0
H978 H 0.03262 0.84357 0.34929 0.0
H979 H 0.02647 0.81202 0.28729 0.0
H980 H 1.00409 0.85071 0.52288 0.0
H981 H 1.00197 0.89582 0.29814 0.0
H982 H 0.9945 0.86915 0.30087 0.0
H983 H 0.02125 0.87638 0.30221 0.0
C984 C 0.98268 0.81179 0.37154 0.0
C985 C 0.99702 0.80508 0.32759 0.0
C986 C 0.98603 0.82995 0.40624 0.0
C987 C 1.00369 0.84211 0.39728 0.0
C988 C 0.01868 0.83475 0.35641 0.0
H989 H 0.03941 0.95082 0.6227 0.0
H990 H 0.03667 0.9168 0.57517 0.0
C991 C 0.01536 0.81648 0.32181 0.0
C992 C 1.00563 0.8629 0.42774 0.0
H993 H 1.0087 0.9142 0.39362 0.0
C994 C 1.00519 0.86457 0.49454 0.0
C995 C 1.0066 0.88116 0.39107 0.0
C996 C 1.00592 0.88067 0.3191 0.0
C997 C 1.006 0.88378 0.52544 0.0
C998 C 1.00753 0.90202 0.48885 0.0
C999 C 1.00769 0.90035 0.42201 0.0
C1000 C 1.00895 0.92292 0.51884 0.0
C1001 C 1.00467 0.88435 0.5971 0.0
C1002 C 0.99456 0.93816 0.5025 0.0
C1003 C 0.99612 0.95784 0.52968 0.0
C1004 C 1.01225 0.9629 0.57355 0.0
C1005 C 0.02666 0.94761 0.58957 0.0
C1006 C 0.02506 0.92797 0.56256 0.0
H1007 H 0.99774 0.87003 0.61599 0.0
H1008 H 0.02038 0.88602 0.61882 0.0
H1009 H 0.99542 0.89751 0.61245 0.0
H1010 H 0.98202 0.9348 0.46871 0.0
H1011 H 0.98478 0.96915 0.51576 0.0
H1012 H 0.72955 0.03234 0.26697 0.0
H1013 H 0.69942 0.03922 0.33132 0.0
H1014 H 0.70858 0.98206 0.43081 0.0
H1015 H 0.73883 0.97568 0.36873 0.0
H1016 H 0.66417 0.01987 0.33398 0.0
H1017 H 0.69615 0.01564 0.58003 0.0
H1018 H 0.71242 0.01716 0.51225 0.0
H1019 H 0.702 0.99284 0.53745 0.0
C1020 C 0.7257 0.02175 0.30471 0.0
C1021 C 0.73707 1.0037 0.3136 0.0
C1022 C 0.70817 0.0255 0.34094 0.0
C1023 C 0.70152 0.01133 0.38723 0.0
C1024 C 0.71339 0.99367 0.39738 0.0
H1025 H 0.57296 0.99596 0.50226 0.0
H1026 H 0.60593 0.99479 0.4497 0.0
C1027 C 0.73086 0.99002 0.36165 0.0
C1028 C 0.6815 0.01402 0.42124 0.0
H1029 H 0.65959 0.01035 0.56762 0.0
C1030 C 0.6633 0.01799 0.38521 0.0
C1031 C 0.67995 0.01193 0.48842 0.0
C1032 C 0.69872 1.00939 0.53177 0.0
C1033 C 0.6439 0.01934 0.41362 0.0
C1034 C 0.64218 0.01597 0.4803 0.0
C1035 C 0.66048 0.0126 0.51654 0.0
C1036 C 0.62179 0.01618 0.51357 0.0
C1037 C 0.62554 0.02487 0.3715 0.0
C1038 C 0.61944 0.02776 0.56947 0.0
C1039 C 0.60059 0.02804 0.60075 0.0
C1040 C 0.5833 0.01682 0.57717 0.0
C1041 C 0.58572 1.00499 0.52181 0.0
C1042 C 0.60467 1.0045 0.49105 0.0
H1043 H 0.63025 0.0336 0.32872 0.0
H1044 H 0.61767 0.01064 0.35456 0.0
H1045 H 0.61442 0.03419 0.39754 0.0
H1046 H 0.63219 0.03688 0.58874 0.0
H1047 H 0.5995 0.03739 0.64303 0.0
H1048 H 0.49586 0.7191 0.26355 0.0
H1049 H 0.49878 0.68978 0.33386 0.0
H1050 H 0.55836 0.71139 0.40258 0.0
H1051 H 0.55629 0.74018 0.32693 0.0
H1052 H 0.56105 0.67307 0.38692 0.0
H1053 H 0.48946 0.68197 0.51432 0.0
H1054 H 0.48303 0.68077 0.43085 0.0
H1055 H 0.49877 0.70168 0.46203 0.0
C1056 C 0.5097 0.71773 0.2933 0.0
C1057 C 0.526 0.73203 0.2883 0.0
C1058 C 0.51117 0.70099 0.33484 0.0
C1059 C 0.5286 0.6983 0.37518 0.0
C1060 C 0.54464 0.71299 0.37237 0.0
H1061 H 0.51719 0.59548 0.64574 0.0
H1062 H 0.51983 0.62974 0.5992 0.0
C1063 C 0.54336 0.72965 0.32949 0.0
C1064 C 0.5304 0.67946 0.41649 0.0
H1065 H 0.50246 0.64736 0.51048 0.0
C1066 C 0.54833 0.66767 0.4148 0.0
C1067 C 0.51417 0.67235 0.45474 0.0
C1068 C 0.49543 0.68504 0.46615 0.0
C1069 C 0.5501 0.6488 0.44748 0.0
C1070 C 0.53305 0.64074 0.48046 0.0
C1071 C 0.51548 0.65299 0.48438 0.0
C1072 C 0.53289 0.61977 0.51085 0.0
C1073 C 0.57049 0.63806 0.4471 0.0
C1074 C 0.53936 0.60237 0.47771 0.0
C1075 C 0.53852 0.58279 0.50551 0.0
C1076 C 0.53037 0.57991 0.56616 0.0
C1077 C 0.52356 0.59716 0.59896 0.0
C1078 C 0.52502 0.61682 0.57207 0.0
H1079 H 0.58339 0.64924 0.4428 0.0
H1080 H 0.57326 0.62889 0.49111 0.0
H1081 H 0.57075 0.62779 0.40511 0.0
H1082 H 0.54465 0.60376 0.42953 0.0
H1083 H 0.54352 0.56976 0.47846 0.0
H1084 H 0.79767 0.5799 0.3905 0.0
H1085 H 0.82957 0.57501 0.45453 0.0
H1086 H 0.82939 0.5113 0.40193 0.0
H1087 H 0.79737 0.51616 0.33836 0.0
H1088 H 0.8432 0.54387 0.55763 0.0
H1089 H 0.88316 0.53966 0.32767 0.0
H1090 H 0.85789 0.55049 0.33347 0.0
H1091 H 0.86099 0.52325 0.33629 0.0
C1092 C 0.80396 0.56467 0.39503 0.0
C1093 C 0.79476 0.5483 0.36076 0.0
C1094 C 0.8223 0.56192 0.43112 0.0
C1095 C 0.83201 0.54283 0.43272 0.0
C1096 C 0.82222 0.52618 0.40142 0.0
H1097 H 0.94443 0.50475 0.63906 0.0
H1098 H 0.90909 0.50849 0.5982 0.0
C1099 C 0.80378 0.52889 0.36577 0.0
C1100 C 0.85324 0.54087 0.4615 0.0
H1101 H 0.90348 0.53548 0.42178 0.0
C1102 C 0.85638 0.54196 0.52803 0.0
C1103 C 0.87051 0.53869 0.42285 0.0
C1104 C 0.86815 0.53808 0.35104 0.0
C1105 C 0.87626 0.54064 0.55684 0.0
C1106 C 0.89351 0.53814 0.51814 0.0
C1107 C 0.89033 0.53733 0.45158 0.0
C1108 C 0.91498 0.53634 0.54547 0.0
C1109 C 0.87868 0.5423 0.62845 0.0
C1110 C 0.93035 0.55056 0.52905 0.0
C1111 C 0.9507 0.54848 0.55259 0.0
C1112 C 0.95628 0.53194 0.59253 0.0
C1113 C 0.94082 0.51773 0.60882 0.0
C1114 C 0.92047 0.51991 0.58567 0.0
H1115 H 0.86495 0.54915 0.64971 0.0
H1116 H 0.88072 0.52678 0.64915 0.0
H1117 H 0.89245 0.55169 0.64233 0.0
H1118 H 0.92658 0.56332 0.49784 0.0
H1119 H 0.96211 0.55969 0.53871 0.0
loop_
_geom_bond_atom_site_label_1
_geom_bond_atom_site_label_2
_geom_bond_distance
_geom_bond_site_symmetry_2
_ccdc_geom_bond_type
H0 C5 0.930 . S
H1 C8 0.930 . S
H2 C10 0.930 . S
H3 C4 1.016 . S
C4 H3 1.016 . S
C4 N11 1.286 . S
C5 H0 0.930 . S
C5 C6 1.397 . S
C5 C7 1.361 . S
C6 C5 1.397 . S
C6 C10 1.390 . S
C7 C5 1.361 . S
C7 C8 1.393 . S
C7 N11 1.413 . S
C8 H1 0.930 . S
C8 C7 1.393 . S
C8 C9 1.399 . S
C9 C8 1.399 . S
C9 C10 1.381 . S
C10 H2 0.930 . S
C10 C6 1.390 . S
C10 C9 1.381 . S
N11 C4 1.286 . S
N11 C7 1.413 . S
H12 C17 0.930 . S
H13 C20 0.930 . S
H14 C22 0.930 . S
H15 C16 1.016 . S
C16 H15 1.016 . S
C16 N23 1.286 . S
C17 H12 0.930 . S
C17 C18 1.397 . S
C17 C19 1.361 . S
C18 C17 1.397 . S
C18 C22 1.390 . S
C19 C17 1.361 . S
C19 C20 1.393 . S
C19 N23 1.413 . S
C20 H13 0.930 . S
C20 C19 1.393 . S
C20 C21 1.399 . S
C21 C20 1.399 . S
C21 C22 1.381 . S
C22 H14 0.930 . S
C22 C18 1.390 . S
C22 C21 1.381 . S
N23 C16 1.286 . S
N23 C19 1.413 . S
H24 C29 0.930 . S
H25 C32 0.930 . S
H26 C34 0.930 . S
H27 C28 1.016 . S
C28 H27 1.016 . S
C28 N35 1.286 . S
C29 H24 0.930 . S
C29 C30 1.397 . S
C29 C31 1.361 . S
C30 C29 1.397 . S
C30 C34 1.390 . S
C31 C29 1.361 . S
C31 C32 1.393 . S
C31 N35 1.413 . S
C32 H25 0.930 . S
C32 C31 1.393 . S
C32 C33 1.399 . S
C33 C32 1.399 . S
C33 C34 1.381 . S
C34 H26 0.930 . S
C34 C30 1.390 . S
C34 C33 1.381 . S
N35 C28 1.286 . S
N35 C31 1.413 . S
H36 C41 0.930 . S
H37 C44 0.930 . S
H38 C46 0.930 . S
H39 C40 1.016 . S
C40 H39 1.016 . S
C40 N47 1.286 . S
C41 H36 0.930 . S
C41 C42 1.397 . S
C41 C43 1.361 . S
C42 C41 1.397 . S
C42 C46 1.390 . S
C43 C41 1.361 . S
C43 C44 1.393 . S
C43 N47 1.413 . S
C44 H37 0.930 . S
C44 C43 1.393 . S
C44 C45 1.399 . S
C45 C44 1.399 . S
C45 C46 1.381 . S
C46 H38 0.930 . S
C46 C42 1.390 . S
C46 C45 1.381 . S
N47 C40 1.286 . S
N47 C43 1.413 . S
H48 C53 0.930 1_556 S
H49 C56 0.930 . S
H50 C58 0.930 . S
H51 C52 1.016 . S
C52 H51 1.016 . S
C52 N59 1.286 . S
C53 H48 0.930 1_554 S
C53 C54 1.397 . S
C53 C55 1.361 . S
C54 C53 1.397 . S
C54 C58 1.390 . S
C55 C53 1.361 . S
C55 C56 1.393 . S
C55 N59 1.413 . S
C56 H49 0.930 . S
C56 C55 1.393 . S
C56 C57 1.399 . S
C57 C56 1.399 . S
C57 C58 1.381 . S
C58 H50 0.930 . S
C58 C54 1.390 . S
C58 C57 1.381 . S
N59 C52 1.286 . S
N59 C55 1.413 . S
H60 C65 0.930 . S
H61 C68 0.930 . S
H62 C70 0.930 . S
H63 C64 1.016 . S
C64 H63 1.016 . S
C64 N71 1.286 . S
C65 H60 0.930 . S
C65 C66 1.397 . S
C65 C67 1.361 1_556 S
C66 C65 1.397 . S
C66 C70 1.390 1_556 S
C67 C65 1.361 1_554 S
C67 C68 1.393 . S
C67 N71 1.413 . S
C68 H61 0.930 . S
C68 C67 1.393 . S
C68 C69 1.399 . S
C69 C68 1.399 . S
C69 C70 1.381 . S
C70 H62 0.930 . S
C70 C66 1.390 1_554 S
C70 C69 1.381 . S
N71 C64 1.286 . S
N71 C67 1.413 . S
H72 C77 0.930 . S
H73 C80 0.930 . S
H74 C82 0.930 . S
H75 C76 1.016 . S
C76 H75 1.016 . S
C76 N83 1.286 . S
C77 H72 0.930 . S
C77 C78 1.397 . S
C77 C79 1.361 1_556 S
C78 C77 1.397 . S
C78 C82 1.390 . S
C79 C77 1.361 1_554 S
C79 C80 1.393 . S
C79 N83 1.413 . S
C80 H73 0.930 . S
C80 C79 1.393 . S
C80 C81 1.399 . S
C81 C80 1.399 . S
C81 C82 1.381 1_554 S
C82 H74 0.930 . S
C82 C78 1.390 . S
C82 C81 1.381 1_556 S
N83 C76 1.286 . S
N83 C79 1.413 . S
H84 C89 0.930 1_556 S
H85 C92 0.930 . S
H86 C94 0.930 . S
H87 C88 1.016 . S
C88 H87 1.016 . S
C88 N95 1.286 . S
C89 H84 0.930 1_554 S
C89 C90 1.397 1_554 S
C89 C91 1.361 . S
C90 C89 1.397 1_556 S
C90 C94 1.390 1_556 S
C91 C89 1.361 . S
C91 C92 1.393 . S
C91 N95 1.413 . S
C92 H85 0.930 . S
C92 C91 1.393 . S
C92 C93 1.399 . S
C93 C92 1.399 . S
C93 C94 1.381 . S
C94 H86 0.930 . S
C94 C90 1.390 1_554 S
C94 C93 1.381 . S
N95 C88 1.286 . S
N95 C91 1.413 . S
Eu96 C105 2.828 . S
Eu96 O107 2.392 . S
Eu96 O109 2.418 1_545 S
Eu96 O114 2.373 1_655 S
Eu96 O117 2.488 . S
Eu96 O118 2.471 1_655 S
Eu96 O119 2.349 1_655 S
Eu97 O106 2.371 1_465 S
Eu97 O110 2.488 . S
Eu97 O111 2.471 . S
Eu97 O112 2.349 . S
Eu97 O115 2.392 1_565 S
Eu97 O116 2.418 1_565 S
Eu97 C126 2.828 . S
C98 O116 1.244 . S
C98 O119 1.265 . S
C99 C100 1.379 . S
C99 C103 1.373 1_455 S
C99 C105 1.505 1_455 S
C100 C99 1.379 . S
C100 C102 1.369 . S
C100 H128 0.930 . S
C101 C103 1.383 . S
C101 C104 1.382 1_655 S
C101 H129 0.930 . S
C102 C100 1.369 . S
C102 C104 1.392 . S
C102 H130 0.930 . S
C103 C99 1.373 1_655 S
C103 C101 1.383 . S
C103 H131 0.931 . S
C104 C101 1.382 1_455 S
C104 C102 1.392 . S
C105 Eu96 2.828 . S
C105 C99 1.505 1_655 S
C105 O117 1.249 . S
C105 O118 1.244 1_655 S
O106 Eu97 2.371 1_645 S
O106 C108 1.261 . S
O107 Eu96 2.392 . S
O107 C108 1.242 . S
C108 O106 1.261 . S
C108 O107 1.242 . S
O109 Eu96 2.418 1_565 S
O109 C113 1.244 . S
O110 Eu97 2.488 . S
O110 C126 1.249 . S
O111 Eu97 2.471 . S
O111 C126 1.244 . S
O112 Eu97 2.349 . S
O112 C113 1.265 1_455 S
C113 O109 1.244 . S
C113 O112 1.265 1_655 S
O114 Eu96 2.373 1_455 S
O114 C127 1.258 . S
O115 Eu97 2.392 1_545 S
O115 C127 1.242 . S
O116 Eu97 2.418 1_545 S
O116 C98 1.244 . S
O117 Eu96 2.488 . S
O117 C105 1.249 . S
O118 Eu96 2.471 1_455 S
O118 C105 1.244 1_455 S
O119 Eu96 2.349 1_455 S
O119 C98 1.265 . S
C120 C121 1.379 . S
C120 C124 1.373 . S
C120 C126 1.505 . S
C121 C120 1.379 . S
C121 C123 1.357 1_455 S
C121 H132 0.930 1_455 S
C122 C124 1.383 . S
C122 C125 1.382 . S
C122 H133 0.930 1_556 S
C123 C121 1.357 1_655 S
C123 C125 1.372 1_655 S
C123 H134 0.966 . S
C124 C120 1.373 . S
C124 C122 1.383 . S
C124 H135 0.931 . S
C125 C122 1.382 . S
C125 C123 1.372 1_455 S
C126 Eu97 2.828 . S
C126 O110 1.249 . S
C126 O111 1.244 . S
C126 C120 1.505 . S
C127 O114 1.258 . S
C127 O115 1.242 . S
H128 C100 0.930 . S
H129 C101 0.930 . S
H130 C102 0.930 . S
H131 C103 0.931 . S
H132 C121 0.930 1_655 S
H133 C122 0.930 1_554 S
H134 C123 0.966 . S
H135 C124 0.931 . S
Eu136 C145 2.828 . S
Eu136 O147 2.392 . S
Eu136 O149 2.418 . S
Eu136 O154 2.373 . S
Eu136 O157 2.488 . S
Eu136 O158 2.471 . S
Eu136 O159 2.349 1_545 S
Eu137 O146 2.373 1_565 S
Eu137 O150 2.488 . S
Eu137 O151 2.471 1_565 S
Eu137 O152 2.349 1_565 S
Eu137 O155 2.392 . S
Eu137 O156 2.418 . S
Eu137 C166 2.828 . S
C138 O156 1.244 . S
C138 O159 1.265 . S
C139 C140 1.379 . S
C139 C143 1.373 . S
C139 C145 1.505 . S
C140 C139 1.379 . S
C140 C142 1.369 . S
C140 H168 0.930 1_545 S
C141 C143 1.383 . S
C141 C144 1.382 . S
C141 H169 0.930 . S
C142 C140 1.369 . S
C142 C144 1.392 . S
C142 H170 0.930 1_545 S
C143 C139 1.373 . S
C143 C141 1.383 . S
C143 H171 0.931 . S
C144 C141 1.382 . S
C144 C142 1.392 . S
C145 Eu136 2.828 . S
C145 C139 1.505 . S
C145 O157 1.249 . S
C145 O158 1.244 . S
O146 Eu137 2.373 1_545 S
O146 C148 1.258 . S
O147 Eu136 2.392 . S
O147 C148 1.242 . S
C148 O146 1.258 . S
C148 O147 1.242 . S
O149 Eu136 2.418 . S
O149 C153 1.244 . S
O150 Eu137 2.488 . S
O150 C166 1.249 . S
O151 Eu137 2.471 1_545 S
O151 C166 1.244 1_545 S
O152 Eu137 2.349 1_545 S
O152 C153 1.265 . S
C153 O149 1.244 . S
C153 O152 1.265 . S
O154 Eu136 2.373 . S
O154 C167 1.233 1_545 S
O155 Eu137 2.392 . S
O155 C167 1.258 . S
O156 Eu137 2.418 . S
O156 C138 1.244 . S
O157 Eu136 2.488 . S
O157 C145 1.249 . S
O158 Eu136 2.471 . S
O158 C145 1.244 . S
O159 Eu136 2.349 1_565 S
O159 C138 1.265 . S
C160 C161 1.375 1_565 S
C160 C164 1.376 . S
C160 C166 1.505 . S
C161 C160 1.375 1_545 S
C161 C163 1.369 . S
C161 H172 0.930 . S
C162 C164 1.383 . S
C162 C165 1.382 1_565 S
C162 H173 0.930 . S
C163 C161 1.369 . S
C163 C165 1.392 . S
C163 H174 0.930 . S
C164 C160 1.376 . S
C164 C162 1.383 . S
C164 H175 0.931 . S
C165 C162 1.382 1_545 S
C165 C163 1.392 . S
C166 Eu137 2.828 . S
C166 O150 1.249 . S
C166 O151 1.244 1_565 S
C166 C160 1.505 . S
C167 O154 1.233 1_565 S
C167 O155 1.258 . S
H168 C140 0.930 1_565 S
H169 C141 0.930 . S
H170 C142 0.930 1_565 S
H171 C143 0.931 . S
H172 C161 0.930 . S
H173 C162 0.930 . S
H174 C163 0.930 . S
H175 C164 0.931 . S
Eu176 C185 2.828 . S
Eu176 O187 2.392 . S
Eu176 O189 2.418 . S
Eu176 O194 2.373 . S
Eu176 O197 2.488 . S
Eu176 O198 2.471 . S
Eu176 O199 2.349 . S
Eu177 O186 2.373 . S
Eu177 O190 2.488 . S
Eu177 O191 2.471 . S
Eu177 O192 2.349 . S
Eu177 O195 2.392 . S
Eu177 O196 2.418 . S
Eu177 C206 2.828 . S
C178 O196 1.244 . S
C178 O199 1.265 . S
C179 C180 1.379 . S
C179 C183 1.373 . S
C179 C185 1.505 . S
C180 C179 1.379 . S
C180 C182 1.369 . S
C180 H208 0.930 . S
C181 C183 1.383 . S
C181 C184 1.382 . S
C181 H209 0.930 . S
C182 C180 1.369 . S
C182 C184 1.392 . S
C182 H210 0.930 . S
C183 C179 1.373 . S
C183 C181 1.383 . S
C183 H211 0.931 . S
C184 C181 1.382 . S
C184 C182 1.392 . S
C185 Eu176 2.828 . S
C185 C179 1.505 . S
C185 O197 1.249 . S
C185 O198 1.244 . S
O186 Eu177 2.373 . S
O186 C188 1.258 . S
O187 Eu176 2.392 . S
O187 C188 1.242 . S
C188 O186 1.258 . S
C188 O187 1.242 . S
O189 Eu176 2.418 . S
O189 C193 1.244 . S
O190 Eu177 2.488 . S
O190 C206 1.249 . S
O191 Eu177 2.471 . S
O191 C206 1.244 . S
O192 Eu177 2.349 . S
O192 C193 1.265 . S
C193 O189 1.244 . S
C193 O192 1.265 . S
O194 Eu176 2.373 . S
O194 C207 1.258 . S
O195 Eu177 2.392 . S
O195 C207 1.242 . S
O196 Eu177 2.418 . S
O196 C178 1.244 . S
O197 Eu176 2.488 . S
O197 C185 1.249 . S
O198 Eu176 2.471 . S
O198 C185 1.244 . S
O199 Eu176 2.349 . S
O199 C178 1.265 . S
C200 C201 1.379 . S
C200 C204 1.373 . S
C200 C206 1.505 . S
C201 C200 1.379 . S
C201 C203 1.369 . S
C201 H212 0.930 . S
C202 C204 1.383 . S
C202 C205 1.382 . S
C202 H213 0.930 . S
C203 C201 1.369 . S
C203 C205 1.392 . S
C203 H214 0.930 . S
C204 C200 1.373 . S
C204 C202 1.383 . S
C204 H215 0.931 . S
C205 C202 1.382 . S
C205 C203 1.392 . S
C206 Eu177 2.828 . S
C206 O190 1.249 . S
C206 O191 1.244 . S
C206 C200 1.505 . S
C207 O194 1.258 . S
C207 O195 1.242 . S
H208 C180 0.930 . S
H209 C181 0.930 . S
H210 C182 0.930 . S
H211 C183 0.931 . S
H212 C201 0.930 . S
H213 C202 0.930 . S
H214 C203 0.930 . S
H215 C204 0.931 . S
Eu216 C225 2.828 . S
Eu216 O227 2.392 . S
Eu216 O229 2.418 1_455 S
Eu216 O234 2.373 . S
Eu216 O237 2.488 . S
Eu216 O238 2.471 . S
Eu216 O239 2.349 . S
Eu217 O226 2.373 . S
Eu217 O230 2.488 . S
Eu217 O231 2.471 . S
Eu217 O232 2.349 . S
Eu217 O235 2.392 1_655 S
Eu217 O236 2.418 1_655 S
Eu217 C246 2.828 . S
C218 O236 1.244 . S
C218 O239 1.265 . S
C219 C220 1.379 . S
C219 C223 1.373 . S
C219 C225 1.505 . S
C220 C219 1.379 . S
C220 C222 1.369 . S
C220 H248 0.930 . S
C221 C223 1.383 . S
C221 C224 1.382 . S
C221 H249 0.930 . S
C222 C220 1.369 . S
C222 C224 1.392 . S
C222 H250 0.930 . S
C223 C219 1.373 . S
C223 C221 1.383 . S
C223 H251 0.931 . S
C224 C221 1.382 . S
C224 C222 1.392 . S
C225 Eu216 2.828 . S
C225 C219 1.505 . S
C225 O237 1.249 . S
C225 O238 1.244 . S
O226 Eu217 2.373 . S
O226 C228 1.258 1_655 S
O227 Eu216 2.392 . S
O227 C228 1.242 . S
C228 O226 1.258 1_455 S
C228 O227 1.242 . S
O229 Eu216 2.418 1_655 S
O229 C233 1.244 . S
O230 Eu217 2.488 . S
O230 C246 1.249 . S
O231 Eu217 2.471 . S
O231 C246 1.244 . S
O232 Eu217 2.349 . S
O232 C233 1.265 . S
C233 O229 1.244 . S
C233 O232 1.265 . S
O234 Eu216 2.373 . S
O234 C247 1.258 . S
O235 Eu217 2.392 1_455 S
O235 C247 1.242 . S
O236 Eu217 2.418 1_455 S
O236 C218 1.244 . S
O237 Eu216 2.488 . S
O237 C225 1.249 . S
O238 Eu216 2.471 . S
O238 C225 1.244 . S
O239 Eu216 2.349 . S
O239 C218 1.265 . S
C240 C241 1.379 . S
C240 C244 1.373 . S
C240 C246 1.505 . S
C241 C240 1.379 . S
C241 C243 1.369 . S
C241 H252 0.930 . S
C242 C244 1.383 . S
C242 C245 1.382 . S
C242 H253 0.930 . S
C243 C241 1.369 . S
C243 C245 1.392 . S
C243 H254 0.930 . S
C244 C240 1.373 . S
C244 C242 1.383 . S
C244 H255 0.931 . S
C245 C242 1.382 . S
C245 C243 1.392 . S
C246 Eu217 2.828 . S
C246 O230 1.249 . S
C246 O231 1.244 . S
C246 C240 1.505 . S
C247 O234 1.258 . S
C247 O235 1.242 . S
H248 C220 0.930 . S
H249 C221 0.930 . S
H250 C222 0.930 . S
H251 C223 0.931 . S
H252 C241 0.930 . S
H253 C242 0.930 . S
H254 C243 0.930 . S
H255 C244 0.931 . S
H256 C264 0.929 . S
H257 C266 0.930 . S
H258 C268 0.930 . S
H259 C271 0.929 . S
H260 C274 0.930 . S
H261 C276 0.960 . S
H262 C276 0.960 . S
H263 C276 0.960 . S
C264 H256 0.929 . S
C264 C265 1.377 . S
C264 C266 1.384 . S
C265 C264 1.377 . S
C265 C271 1.390 . S
C266 H257 0.930 . S
C266 C264 1.384 . S
C266 C267 1.372 . S
C267 C266 1.372 . S
C267 C268 1.400 . S
C267 C272 1.490 . S
C268 H258 0.930 . S
C268 C267 1.400 . S
C268 C271 1.386 . S
H269 C285 0.930 . S
H270 C286 0.931 . S
C271 H259 0.929 . S
C271 C265 1.390 . S
C271 C268 1.386 . S
C272 C267 1.490 . S
C272 C274 1.395 . S
C272 C275 1.403 . S
H273 C279 0.930 . S
C274 H260 0.930 . S
C274 C272 1.395 . S
C274 C277 1.403 . S
C275 C272 1.403 . S
C275 C276 1.524 . S
C275 C279 1.400 . S
C276 H261 0.960 . S
C276 H262 0.960 . S
C276 H263 0.960 . S
C276 C275 1.524 . S
C277 C274 1.403 . S
C277 C278 1.392 . S
C277 C281 1.495 . S
C278 C277 1.392 . S
C278 C279 1.385 . S
C278 C280 1.478 . S
C279 H273 0.930 . S
C279 C275 1.400 . S
C279 C278 1.385 . S
C280 C278 1.478 . S
C280 C282 1.381 . S
C280 C286 1.383 . S
C281 C277 1.495 . S
C281 H287 0.959 . S
C281 H288 0.961 . S
C281 H289 0.960 . S
C282 C280 1.381 . S
C282 C283 1.394 . S
C282 H290 0.930 . S
C283 C282 1.394 . S
C283 C284 1.383 . S
C283 H291 0.929 . S
C284 C283 1.383 . S
C284 C285 1.377 . S
C285 H269 0.930 . S
C285 C284 1.377 . S
C285 C286 1.379 . S
C286 H270 0.931 . S
C286 C280 1.383 . S
C286 C285 1.379 . S
H287 C281 0.959 . S
H288 C281 0.961 . S
H289 C281 0.960 . S
H290 C282 0.930 . S
H291 C283 0.929 . S
H292 C300 0.929 . S
H293 C302 0.930 . S
H294 C304 0.930 . S
H295 C307 0.929 . S
H296 C310 0.930 . S
H297 C312 0.960 . S
H298 C312 0.960 . S
H299 C312 0.960 . S
C300 H292 0.929 . S
C300 C301 1.377 . S
C300 C302 1.384 . S
C301 C300 1.377 . S
C301 C307 1.390 . S
C302 H293 0.930 . S
C302 C300 1.384 . S
C302 C303 1.372 . S
C303 C302 1.372 . S
C303 C304 1.400 . S
C303 C308 1.490 . S
C304 H294 0.930 . S
C304 C303 1.400 . S
C304 C307 1.386 . S
H305 C321 0.930 . S
H306 C322 0.931 . S
C307 H295 0.929 . S
C307 C301 1.390 . S
C307 C304 1.386 . S
C308 C303 1.490 . S
C308 C310 1.395 . S
C308 C311 1.403 . S
H309 C315 0.930 . S
C310 H296 0.930 . S
C310 C308 1.395 . S
C310 C313 1.403 . S
C311 C308 1.403 . S
C311 C312 1.524 . S
C311 C315 1.400 . S
C312 H297 0.960 . S
C312 H298 0.960 . S
C312 H299 0.960 . S
C312 C311 1.524 . S
C313 C310 1.403 . S
C313 C314 1.392 . S
C313 C317 1.495 . S
C314 C313 1.392 . S
C314 C315 1.385 . S
C314 C316 1.478 . S
C315 H309 0.930 . S
C315 C311 1.400 . S
C315 C314 1.385 . S
C316 C314 1.478 . S
C316 C318 1.381 . S
C316 C322 1.383 . S
C317 C313 1.495 . S
C317 H323 0.959 . S
C317 H324 0.961 . S
C317 H325 0.960 . S
C318 C316 1.381 . S
C318 C319 1.394 . S
C318 H326 0.930 . S
C319 C318 1.394 . S
C319 C320 1.383 . S
C319 H327 0.929 . S
C320 C319 1.383 . S
C320 C321 1.377 . S
C321 H305 0.930 . S
C321 C320 1.377 . S
C321 C322 1.379 . S
C322 H306 0.931 . S
C322 C316 1.383 . S
C322 C321 1.379 . S
H323 C317 0.959 . S
H324 C317 0.961 . S
H325 C317 0.960 . S
H326 C318 0.930 . S
H327 C319 0.929 . S
H328 C336 0.929 . S
H329 C338 0.930 . S
H330 C340 0.930 . S
H331 C343 0.929 . S
H332 C346 0.930 . S
H333 C348 0.960 . S
H334 C348 0.960 . S
H335 C348 0.960 . S
C336 H328 0.929 . S
C336 C337 1.377 . S
C336 C338 1.384 . S
C337 C336 1.377 . S
C337 C343 1.390 . S
C338 H329 0.930 . S
C338 C336 1.384 . S
C338 C339 1.372 . S
C339 C338 1.372 . S
C339 C340 1.400 . S
C339 C344 1.490 . S
C340 H330 0.930 . S
C340 C339 1.400 . S
C340 C343 1.386 . S
H341 C357 0.930 . S
H342 C358 0.931 . S
C343 H331 0.929 . S
C343 C337 1.390 . S
C343 C340 1.386 . S
C344 C339 1.490 . S
C344 C346 1.395 . S
C344 C347 1.403 . S
H345 C351 0.930 . S
C346 H332 0.930 . S
C346 C344 1.395 . S
C346 C349 1.403 . S
C347 C344 1.403 . S
C347 C348 1.524 . S
C347 C351 1.400 . S
C348 H333 0.960 . S
C348 H334 0.960 . S
C348 H335 0.960 . S
C348 C347 1.524 . S
C349 C346 1.403 . S
C349 C350 1.392 . S
C349 C353 1.495 . S
C350 C349 1.392 . S
C350 C351 1.385 . S
C350 C352 1.478 . S
C351 H345 0.930 . S
C351 C347 1.400 . S
C351 C350 1.385 . S
C352 C350 1.478 . S
C352 C354 1.381 . S
C352 C358 1.383 . S
C353 C349 1.495 . S
C353 H359 0.959 . S
C353 H360 0.961 . S
C353 H361 0.960 . S
C354 C352 1.381 . S
C354 C355 1.394 . S
C354 H362 0.930 . S
C355 C354 1.394 . S
C355 C356 1.383 . S
C355 H363 0.929 . S
C356 C355 1.383 . S
C356 C357 1.377 . S
C357 H341 0.930 . S
C357 C356 1.377 . S
C357 C358 1.379 . S
C358 H342 0.931 . S
C358 C352 1.383 . S
C358 C357 1.379 . S
H359 C353 0.959 . S
H360 C353 0.961 . S
H361 C353 0.960 . S
H362 C354 0.930 . S
H363 C355 0.929 . S
H364 C372 0.929 . S
H365 C374 0.930 . S
H366 C376 0.930 . S
H367 C379 0.929 . S
H368 C382 0.930 . S
H369 C384 0.960 1_655 S
H370 C384 0.960 . S
H371 C384 0.972 . S
C372 H364 0.929 . S
C372 C373 1.377 . S
C372 C374 1.384 . S
C373 C372 1.377 . S
C373 C379 1.390 . S
C374 H365 0.930 . S
C374 C372 1.384 . S
C374 C375 1.372 . S
C375 C374 1.372 . S
C375 C376 1.400 . S
C375 C380 1.490 . S
C376 H366 0.930 . S
C376 C375 1.400 . S
C376 C379 1.386 . S
H377 C393 0.930 . S
H378 C394 0.931 . S
C379 H367 0.929 . S
C379 C373 1.390 . S
C379 C376 1.386 . S
C380 C375 1.490 . S
C380 C382 1.395 . S
C380 C383 1.403 . S
H381 C387 0.930 . S
C382 H368 0.930 . S
C382 C380 1.395 . S
C382 C385 1.403 . S
C383 C380 1.403 . S
C383 C384 1.524 . S
C383 C387 1.400 . S
C384 H369 0.960 1_455 S
C384 H370 0.960 . S
C384 H371 0.972 . S
C384 C383 1.524 . S
C385 C382 1.403 . S
C385 C386 1.392 . S
C385 C389 1.495 . S
C386 C385 1.392 . S
C386 C387 1.385 . S
C386 C388 1.478 . S
C387 H381 0.930 . S
C387 C383 1.400 . S
C387 C386 1.385 . S
C388 C386 1.478 . S
C388 C390 1.381 . S
C388 C394 1.383 . S
C389 C385 1.495 . S
C389 H395 0.959 . S
C389 H396 0.961 . S
C389 H397 0.960 . S
C390 C388 1.381 . S
C390 C391 1.394 . S
C390 H398 0.930 . S
C391 C390 1.394 . S
C391 C392 1.383 . S
C391 H399 0.929 . S
C392 C391 1.383 . S
C392 C393 1.377 . S
C393 H377 0.930 . S
C393 C392 1.377 . S
C393 C394 1.379 . S
C394 H378 0.931 . S
C394 C388 1.383 . S
C394 C393 1.379 . S
H395 C389 0.959 . S
H396 C389 0.961 . S
H397 C389 0.960 . S
H398 C390 0.930 . S
H399 C391 0.929 . S
H400 C408 0.929 . S
H401 C410 0.930 . S
H402 C412 0.933 1_545 S
H403 C415 0.929 . S
H404 C418 0.930 . S
H405 C420 0.960 . S
H406 C420 0.960 . S
H407 C420 0.960 . S
C408 H400 0.929 . S
C408 C409 1.377 . S
C408 C410 1.384 . S
C409 C408 1.377 . S
C409 C415 1.390 . S
C410 H401 0.930 . S
C410 C408 1.384 . S
C410 C411 1.372 . S
C411 C410 1.372 . S
C411 C412 1.400 . S
C411 C416 1.490 . S
C412 H402 0.933 1_565 S
C412 C411 1.400 . S
C412 C415 1.386 . S
H413 C429 0.930 . S
H414 C430 0.944 . S
C415 H403 0.929 . S
C415 C409 1.390 . S
C415 C412 1.386 . S
C416 C411 1.490 . S
C416 C418 1.395 . S
C416 C419 1.403 1_565 S
H417 C423 0.930 . S
C418 H404 0.930 . S
C418 C416 1.395 . S
C418 C421 1.403 1_554 S
C419 C416 1.403 1_545 S
C419 C420 1.524 . S
C419 C423 1.400 1_554 S
C420 H405 0.960 . S
C420 H406 0.960 . S
C420 H407 0.960 . S
C420 C419 1.524 . S
C421 C418 1.403 1_556 S
C421 C422 1.392 . S
C421 C425 1.495 . S
C422 C421 1.392 . S
C422 C423 1.385 1_565 S
C422 C424 1.478 . S
C423 H417 0.930 . S
C423 C419 1.400 1_556 S
C423 C422 1.385 1_545 S
C424 C422 1.478 . S
C424 C426 1.381 . S
C424 C430 1.365 1_565 S
C425 C421 1.495 . S
C425 H431 0.959 . S
C425 H432 0.961 . S
C425 H433 0.960 . S
C426 C424 1.381 . S
C426 C427 1.394 . S
C426 H434 0.930 . S
C427 C426 1.394 . S
C427 C428 1.383 . S
C427 H435 0.929 . S
C428 C427 1.383 . S
C428 C429 1.377 1_565 S
C429 H413 0.930 . S
C429 C428 1.377 1_545 S
C429 C430 1.386 . S
C430 H414 0.944 . S
C430 C424 1.365 1_545 S
C430 C429 1.386 . S
H431 C425 0.959 . S
H432 C425 0.961 . S
H433 C425 0.960 . S
H434 C426 0.930 . S
H435 C427 0.929 . S
H436 C444 0.929 . S
H437 C446 0.930 . S
H438 C448 0.930 . S
H439 C451 0.929 . S
H440 C454 0.930 . S
H441 C456 0.960 . S
H442 C456 0.960 . S
H443 C456 0.960 . S
C444 H436 0.929 . S
C444 C445 1.377 . S
C444 C446 1.384 . S
C445 C444 1.377 . S
C445 C451 1.390 . S
C446 H437 0.930 . S
C446 C444 1.384 . S
C446 C447 1.372 . S
C447 C446 1.372 . S
C447 C448 1.400 . S
C447 C452 1.490 . S
C448 H438 0.930 . S
C448 C447 1.400 . S
C448 C451 1.386 . S
H449 C465 0.930 . S
H450 C466 0.931 . S
C451 H439 0.929 . S
C451 C445 1.390 . S
C451 C448 1.386 . S
C452 C447 1.490 . S
C452 C454 1.395 . S
C452 C455 1.403 1_554 S
H453 C459 0.930 . S
C454 H440 0.930 . S
C454 C452 1.395 . S
C454 C457 1.403 1_554 S
C455 C452 1.403 1_556 S
C455 C456 1.524 . S
C455 C459 1.400 . S
C456 H441 0.960 . S
C456 H442 0.960 . S
C456 H443 0.960 . S
C456 C455 1.524 . S
C457 C454 1.403 1_556 S
C457 C458 1.392 . S
C457 C461 1.495 . S
C458 C457 1.392 . S
C458 C459 1.385 . S
C458 C460 1.478 . S
C459 H453 0.930 . S
C459 C455 1.400 . S
C459 C458 1.385 . S
C460 C458 1.478 . S
C460 C462 1.381 . S
C460 C466 1.383 . S
C461 C457 1.495 . S
C461 H467 0.959 . S
C461 H468 0.961 . S
C461 H469 0.960 . S
C462 C460 1.381 . S
C462 C463 1.394 . S
C462 H470 0.930 . S
C463 C462 1.394 . S
C463 C464 1.383 . S
C463 H471 0.929 . S
C464 C463 1.383 . S
C464 C465 1.377 . S
C465 H449 0.930 . S
C465 C464 1.377 . S
C465 C466 1.379 . S
C466 H450 0.931 . S
C466 C460 1.383 . S
C466 C465 1.379 . S
H467 C461 0.959 . S
H468 C461 0.961 . S
H469 C461 0.960 . S
H470 C462 0.930 . S
H471 C463 0.929 . S
H472 C480 0.929 . S
H473 C482 0.930 1_556 S
H474 C484 0.930 . S
H475 C487 0.929 . S
H476 C490 0.930 . S
H477 C492 0.960 . S
H478 C492 0.960 . S
H479 C492 0.960 1_554 S
C480 H472 0.929 . S
C480 C481 1.377 . S
C480 C482 1.384 . S
C481 C480 1.377 . S
C481 C487 1.390 . S
C482 H473 0.930 1_554 S
C482 C480 1.384 . S
C482 C483 1.372 . S
C483 C482 1.372 . S
C483 C484 1.400 . S
C483 C488 1.490 1_554 S
C484 H474 0.930 . S
C484 C483 1.400 . S
C484 C487 1.386 . S
H485 C501 0.930 . S
H486 C502 0.931 . S
C487 H475 0.929 . S
C487 C481 1.390 . S
C487 C484 1.386 . S
C488 C483 1.490 1_556 S
C488 C490 1.395 . S
C488 C491 1.403 . S
H489 C495 0.930 . S
C490 H476 0.930 . S
C490 C488 1.395 . S
C490 C493 1.403 . S
C491 C488 1.403 . S
C491 C492 1.524 . S
C491 C495 1.400 . S
C492 H477 0.960 . S
C492 H478 0.960 . S
C492 H479 0.960 1_556 S
C492 C491 1.524 . S
C493 C490 1.403 . S
C493 C494 1.392 . S
C493 C497 1.495 . S
C494 C493 1.392 . S
C494 C495 1.385 . S
C494 C496 1.478 . S
C495 H489 0.930 . S
C495 C491 1.400 . S
C495 C494 1.385 . S
C496 C494 1.478 . S
C496 C498 1.381 . S
C496 C502 1.383 . S
C497 C493 1.495 . S
C497 H503 0.959 . S
C497 H504 0.961 . S
C497 H505 0.960 . S
C498 C496 1.381 . S
C498 C499 1.394 . S
C498 H506 0.930 . S
C499 C498 1.394 . S
C499 C500 1.383 . S
C499 H507 0.929 . S
C500 C499 1.383 . S
C500 C501 1.377 . S
C501 H485 0.930 . S
C501 C500 1.377 . S
C501 C502 1.379 . S
C502 H486 0.931 . S
C502 C496 1.383 . S
C502 C501 1.379 . S
H503 C497 0.959 . S
H504 C497 0.961 . S
H505 C497 0.960 . S
H506 C498 0.930 . S
H507 C499 0.929 . S
H508 C516 0.929 . S
H509 C518 0.930 . S
H510 C520 0.930 1_455 S
H511 C523 0.929 . S
H512 C526 0.930 . S
H513 C528 0.960 . S
H514 C528 0.960 . S
H515 C528 0.960 . S
C516 H508 0.929 . S
C516 C517 1.377 . S
C516 C518 1.384 . S
C517 C516 1.377 . S
C517 C523 1.390 . S
C518 H509 0.930 . S
C518 C516 1.384 . S
C518 C519 1.372 . S
C519 C518 1.372 . S
C519 C520 1.400 . S
C519 C524 1.490 . S
C520 H510 0.930 1_655 S
C520 C519 1.400 . S
C520 C523 1.386 . S
H521 C537 0.930 . S
H522 C538 0.931 . S
C523 H511 0.929 . S
C523 C517 1.390 . S
C523 C520 1.386 . S
C524 C519 1.490 . S
C524 C526 1.395 1_554 S
C524 C527 1.403 . S
H525 C531 0.930 1_455 S
C526 H512 0.930 . S
C526 C524 1.395 1_556 S
C526 C529 1.403 . S
C527 C524 1.403 . S
C527 C528 1.524 1_655 S
C527 C531 1.400 1_554 S
C528 H513 0.960 . S
C528 H514 0.960 . S
C528 H515 0.960 . S
C528 C527 1.524 1_455 S
C529 C526 1.403 . S
C529 C530 1.392 . S
C529 C533 1.495 . S
C530 C529 1.392 . S
C530 C531 1.385 . S
C530 C532 1.478 . S
C531 H525 0.930 1_655 S
C531 C527 1.400 1_556 S
C531 C530 1.385 . S
C532 C530 1.478 . S
C532 C534 1.381 . S
C532 C538 1.383 1_655 S
C533 C529 1.495 . S
C533 H539 0.959 . S
C533 H540 0.961 . S
C533 H541 0.960 . S
C534 C532 1.381 . S
C534 C535 1.394 . S
C534 H542 0.930 . S
C535 C534 1.394 . S
C535 C536 1.383 . S
C535 H543 0.929 . S
C536 C535 1.383 . S
C536 C537 1.377 1_655 S
C537 H521 0.930 . S
C537 C536 1.377 1_455 S
C537 C538 1.379 . S
C538 H522 0.931 . S
C538 C532 1.383 1_455 S
C538 C537 1.379 . S
H539 C533 0.959 . S
H540 C533 0.961 . S
H541 C533 0.960 . S
H542 C534 0.930 . S
H543 C535 0.929 . S
H544 C552 0.929 . S
H545 C554 0.930 . S
H546 C556 0.930 . S
H547 C559 0.929 . S
H548 C562 0.930 . S
H549 C564 0.960 . S
H550 C564 0.960 . S
H551 C564 0.960 . S
C552 H544 0.929 . S
C552 C553 1.377 . S
C552 C554 1.384 . S
C553 C552 1.377 . S
C553 C559 1.390 . S
C554 H545 0.930 . S
C554 C552 1.384 . S
C554 C555 1.372 . S
C555 C554 1.372 . S
C555 C556 1.400 . S
C555 C560 1.490 . S
C556 H546 0.930 . S
C556 C555 1.400 . S
C556 C559 1.386 . S
H557 C573 0.930 . S
H558 C574 0.931 . S
C559 H547 0.929 . S
C559 C553 1.390 . S
C559 C556 1.386 . S
C560 C555 1.490 . S
C560 C562 1.395 . S
C560 C563 1.403 . S
H561 C567 0.930 . S
C562 H548 0.930 . S
C562 C560 1.395 . S
C562 C565 1.403 . S
C563 C560 1.403 . S
C563 C564 1.524 . S
C563 C567 1.400 . S
C564 H549 0.960 . S
C564 H550 0.960 . S
C564 H551 0.960 . S
C564 C563 1.524 . S
C565 C562 1.403 . S
C565 C566 1.392 . S
C565 C569 1.495 1_455 S
C566 C565 1.392 . S
C566 C567 1.385 . S
C566 C568 1.478 . S
C567 H561 0.930 . S
C567 C563 1.400 . S
C567 C566 1.385 . S
C568 C566 1.478 . S
C568 C570 1.381 . S
C568 C574 1.383 . S
C569 C565 1.495 1_655 S
C569 H575 0.959 . S
C569 H576 0.961 . S
C569 H577 0.960 . S
C570 C568 1.381 . S
C570 C571 1.394 . S
C570 H578 0.930 . S
C571 C570 1.394 . S
C571 C572 1.383 . S
C571 H579 0.922 1_455 S
C572 C571 1.383 . S
C572 C573 1.377 . S
C573 H557 0.930 . S
C573 C572 1.377 . S
C573 C574 1.379 . S
C574 H558 0.931 . S
C574 C568 1.383 . S
C574 C573 1.379 . S
H575 C569 0.959 . S
H576 C569 0.961 . S
H577 C569 0.960 . S
H578 C570 0.930 . S
H579 C571 0.922 1_655 S
H580 C588 0.929 . S
H581 C590 0.930 . S
H582 C592 0.930 . S
H583 C595 0.929 . S
H584 C598 0.930 . S
H585 C600 0.960 . S
H586 C600 0.960 . S
H587 C600 0.960 . S
C588 H580 0.929 . S
C588 C589 1.377 . S
C588 C590 1.384 . S
C589 C588 1.377 . S
C589 C595 1.390 . S
C590 H581 0.930 . S
C590 C588 1.384 . S
C590 C591 1.372 . S
C591 C590 1.372 . S
C591 C592 1.400 . S
C591 C596 1.490 . S
C592 H582 0.930 . S
C592 C591 1.400 . S
C592 C595 1.386 . S
H593 C609 0.930 . S
H594 C610 0.931 1_565 S
C595 H583 0.929 . S
C595 C589 1.390 . S
C595 C592 1.386 . S
C596 C591 1.490 . S
C596 C598 1.395 . S
C596 C599 1.403 . S
H597 C603 0.930 . S
C598 H584 0.930 . S
C598 C596 1.395 . S
C598 C601 1.403 . S
C599 C596 1.403 . S
C599 C600 1.524 . S
C599 C603 1.400 . S
C600 H585 0.960 . S
C600 H586 0.960 . S
C600 H587 0.960 . S
C600 C599 1.524 . S
C601 C598 1.403 . S
C601 C602 1.392 . S
C601 C605 1.480 1_545 S
C602 C601 1.392 . S
C602 C603 1.385 . S
C602 C604 1.478 . S
C603 H597 0.930 . S
C603 C599 1.400 . S
C603 C602 1.385 . S
C604 C602 1.478 . S
C604 C606 1.381 . S
C604 C610 1.383 . S
C605 C601 1.480 1_565 S
C605 H611 0.963 . S
C605 H612 0.984 . S
C605 H613 0.948 1_565 S
C606 C604 1.381 . S
C606 C607 1.394 . S
C606 H614 0.930 . S
C607 C606 1.394 . S
C607 C608 1.383 . S
C607 H615 0.929 . S
C608 C607 1.383 . S
C608 C609 1.377 1_545 S
C609 H593 0.930 . S
C609 C608 1.377 1_565 S
C609 C610 1.379 1_565 S
C610 H594 0.931 1_545 S
C610 C604 1.383 . S
C610 C609 1.379 1_545 S
H611 C605 0.963 . S
H612 C605 0.984 . S
H613 C605 0.948 1_545 S
H614 C606 0.930 . S
H615 C607 0.929 . S
H616 C624 0.929 . S
H617 C626 0.930 . S
H618 C628 0.930 . S
H619 C631 0.929 . S
H620 C634 0.930 . S
H621 C636 0.960 . S
H622 C636 0.960 . S
H623 C636 0.960 . S
C624 H616 0.929 . S
C624 C625 1.377 . S
C624 C626 1.384 . S
C625 C624 1.377 . S
C625 C631 1.390 . S
C626 H617 0.930 . S
C626 C624 1.384 . S
C626 C627 1.372 . S
C627 C626 1.372 . S
C627 C628 1.400 . S
C627 C632 1.490 . S
C628 H618 0.930 . S
C628 C627 1.400 . S
C628 C631 1.386 . S
H629 C645 0.930 . S
H630 C646 0.931 . S
C631 H619 0.929 . S
C631 C625 1.390 . S
C631 C628 1.386 . S
C632 C627 1.490 . S
C632 C634 1.395 . S
C632 C635 1.403 . S
H633 C639 0.930 . S
C634 H620 0.930 . S
C634 C632 1.395 . S
C634 C637 1.403 . S
C635 C632 1.403 . S
C635 C636 1.524 . S
C635 C639 1.400 . S
C636 H621 0.960 . S
C636 H622 0.960 . S
C636 H623 0.960 . S
C636 C635 1.524 . S
C637 C634 1.403 . S
C637 C638 1.392 . S
C637 C641 1.495 . S
C638 C637 1.392 . S
C638 C639 1.385 . S
C638 C640 1.478 . S
C639 H633 0.930 . S
C639 C635 1.400 . S
C639 C638 1.385 . S
C640 C638 1.478 . S
C640 C642 1.381 . S
C640 C646 1.383 . S
C641 C637 1.495 . S
C641 H647 0.959 . S
C641 H648 0.961 . S
C641 H649 0.960 . S
C642 C640 1.381 . S
C642 C643 1.394 . S
C642 H650 0.930 . S
C643 C642 1.394 . S
C643 C644 1.383 . S
C643 H651 0.929 . S
C644 C643 1.383 . S
C644 C645 1.377 . S
C645 H629 0.930 . S
C645 C644 1.377 . S
C645 C646 1.379 . S
C646 H630 0.931 . S
C646 C640 1.383 . S
C646 C645 1.379 . S
H647 C641 0.959 . S
H648 C641 0.961 . S
H649 C641 0.960 . S
H650 C642 0.930 . S
H651 C643 0.929 . S
H652 C660 0.929 . S
H653 C662 0.930 . S
H654 C664 0.930 . S
H655 C667 0.929 . S
H656 C670 0.930 . S
H657 C672 0.960 . S
H658 C672 0.960 . S
H659 C672 0.960 . S
C660 H652 0.929 . S
C660 C661 1.377 . S
C660 C662 1.384 . S
C661 C660 1.377 . S
C661 C667 1.390 . S
C662 H653 0.930 . S
C662 C660 1.384 . S
C662 C663 1.372 . S
C663 C662 1.372 . S
C663 C664 1.400 . S
C663 C668 1.490 . S
C664 H654 0.930 . S
C664 C663 1.400 . S
C664 C667 1.386 . S
H665 C681 0.930 . S
H666 C682 0.931 . S
C667 H655 0.929 . S
C667 C661 1.390 . S
C667 C664 1.386 . S
C668 C663 1.490 . S
C668 C670 1.395 . S
C668 C671 1.403 . S
H669 C675 0.930 . S
C670 H656 0.930 . S
C670 C668 1.395 . S
C670 C673 1.403 . S
C671 C668 1.403 . S
C671 C672 1.524 . S
C671 C675 1.400 . S
C672 H657 0.960 . S
C672 H658 0.960 . S
C672 H659 0.960 . S
C672 C671 1.524 . S
C673 C670 1.403 . S
C673 C674 1.392 . S
C673 C677 1.495 . S
C674 C673 1.392 . S
C674 C675 1.385 . S
C674 C676 1.478 . S
C675 H669 0.930 . S
C675 C671 1.400 . S
C675 C674 1.385 . S
C676 C674 1.478 . S
C676 C678 1.381 . S
C676 C682 1.383 . S
C677 C673 1.495 . S
C677 H683 0.959 . S
C677 H684 0.961 . S
C677 H685 0.960 . S
C678 C676 1.381 . S
C678 C679 1.394 . S
C678 H686 0.930 . S
C679 C678 1.394 . S
C679 C680 1.383 . S
C679 H687 0.929 . S
C680 C679 1.383 . S
C680 C681 1.377 . S
C681 H665 0.930 . S
C681 C680 1.377 . S
C681 C682 1.379 . S
C682 H666 0.931 . S
C682 C676 1.383 . S
C682 C681 1.379 . S
H683 C677 0.959 . S
H684 C677 0.961 . S
H685 C677 0.960 . S
H686 C678 0.930 . S
H687 C679 0.929 . S
H688 C696 0.929 . S
H689 C698 0.930 . S
H690 C700 0.930 . S
H691 C703 0.929 . S
H692 C706 0.930 . S
H693 C708 0.960 . S
H694 C708 0.960 . S
H695 C708 0.960 . S
C696 H688 0.929 . S
C696 C697 1.377 . S
C696 C698 1.384 . S
C697 C696 1.377 . S
C697 C703 1.390 . S
C698 H689 0.930 . S
C698 C696 1.384 . S
C698 C699 1.372 . S
C699 C698 1.372 . S
C699 C700 1.400 . S
C699 C704 1.490 . S
C700 H690 0.930 . S
C700 C699 1.400 . S
C700 C703 1.386 . S
H701 C717 0.930 . S
H702 C718 0.931 . S
C703 H691 0.929 . S
C703 C697 1.390 . S
C703 C700 1.386 . S
C704 C699 1.490 . S
C704 C706 1.395 . S
C704 C707 1.403 . S
H705 C711 0.931 1_455 S
C706 H692 0.930 . S
C706 C704 1.395 . S
C706 C709 1.403 . S
C707 C704 1.403 . S
C707 C708 1.524 1_655 S
C707 C711 1.400 . S
C708 H693 0.960 . S
C708 H694 0.960 . S
C708 H695 0.960 . S
C708 C707 1.524 1_455 S
C709 C706 1.403 . S
C709 C710 1.392 . S
C709 C713 1.495 1_554 S
C710 C709 1.392 . S
C710 C711 1.385 . S
C710 C712 1.478 . S
C711 H705 0.931 1_655 S
C711 C707 1.400 . S
C711 C710 1.385 . S
C712 C710 1.478 . S
C712 C714 1.381 1_654 S
C712 C718 1.383 . S
C713 C709 1.495 1_556 S
C713 H719 0.959 . S
C713 H720 0.961 . S
C713 H721 0.960 . S
C714 C712 1.381 1_456 S
C714 C715 1.394 . S
C714 H722 0.930 . S
C715 C714 1.394 . S
C715 C716 1.383 . S
C715 H723 0.929 . S
C716 C715 1.383 . S
C716 C717 1.377 1_456 S
C717 H701 0.930 . S
C717 C716 1.377 1_654 S
C717 C718 1.379 . S
C718 H702 0.931 . S
C718 C712 1.383 . S
C718 C717 1.379 . S
H719 C713 0.959 . S
H720 C713 0.961 . S
H721 C713 0.960 . S
H722 C714 0.930 . S
H723 C715 0.929 . S
H724 C732 0.929 1_545 S
H725 C734 0.930 1_545 S
H726 C736 0.930 . S
H727 C739 0.929 . S
H728 C742 0.926 1_545 S
H729 C744 0.960 . S
H730 C744 0.960 . S
H731 C744 0.960 . S
C732 H724 0.929 1_565 S
C732 C733 1.377 . S
C732 C734 1.384 . S
C733 C732 1.377 . S
C733 C739 1.390 . S
C734 H725 0.930 1_565 S
C734 C732 1.384 . S
C734 C735 1.372 . S
C735 C734 1.372 . S
C735 C736 1.400 . S
C735 C740 1.490 . S
C736 H726 0.930 . S
C736 C735 1.400 . S
C736 C739 1.386 . S
H737 C753 0.973 . S
H738 C754 0.931 . S
C739 H727 0.929 . S
C739 C733 1.390 . S
C739 C736 1.386 . S
C740 C735 1.490 . S
C740 C742 1.408 . S
C740 C743 1.403 . S
H741 C747 0.930 . S
C742 H728 0.926 1_565 S
C742 C740 1.408 . S
C742 C745 1.394 1_564 S
C743 C740 1.403 . S
C743 C744 1.524 . S
C743 C747 1.400 . S
C744 H729 0.960 . S
C744 H730 0.960 . S
C744 H731 0.960 . S
C744 C743 1.524 . S
C745 C742 1.394 1_546 S
C745 C746 1.392 1_556 S
C745 C749 1.495 . S
C746 C745 1.392 1_554 S
C746 C747 1.385 1_545 S
C746 C748 1.478 1_554 S
C747 H741 0.930 . S
C747 C743 1.400 . S
C747 C746 1.385 1_565 S
C748 C746 1.478 1_556 S
C748 C750 1.381 . S
C748 C754 1.383 1_545 S
C749 C745 1.495 . S
C749 H755 0.959 . S
C749 H756 0.961 . S
C749 H757 0.960 . S
C750 C748 1.381 . S
C750 C751 1.394 . S
C750 H758 0.930 . S
C751 C750 1.394 . S
C751 C752 1.383 . S
C751 H759 0.929 . S
C752 C751 1.383 . S
C752 C753 1.320 1_545 S
C753 H737 0.973 . S
C753 C752 1.320 1_565 S
C753 C754 1.395 . S
C754 H738 0.931 . S
C754 C748 1.383 1_565 S
C754 C753 1.395 . S
H755 C749 0.959 . S
H756 C749 0.961 . S
H757 C749 0.960 . S
H758 C750 0.930 . S
H759 C751 0.929 . S
H760 C768 0.929 . S
H761 C770 0.930 . S
H762 C772 0.930 . S
H763 C775 0.929 . S
H764 C778 0.930 . S
H765 C780 0.960 1_556 S
H766 C780 0.960 . S
H767 C780 0.960 . S
C768 H760 0.929 . S
C768 C769 1.377 . S
C768 C770 1.384 . S
C769 C768 1.377 . S
C769 C775 1.390 . S
C770 H761 0.930 . S
C770 C768 1.384 . S
C770 C771 1.372 . S
C771 C770 1.372 . S
C771 C772 1.400 . S
C771 C776 1.490 . S
C772 H762 0.930 . S
C772 C771 1.400 . S
C772 C775 1.386 . S
H773 C789 0.930 . S
H774 C790 0.931 . S
C775 H763 0.929 . S
C775 C769 1.390 . S
C775 C772 1.386 . S
C776 C771 1.490 . S
C776 C778 1.395 . S
C776 C779 1.403 . S
H777 C783 0.930 . S
C778 H764 0.930 . S
C778 C776 1.395 . S
C778 C781 1.403 . S
C779 C776 1.403 . S
C779 C780 1.524 . S
C779 C783 1.400 1_554 S
C780 H765 0.960 1_554 S
C780 H766 0.960 . S
C780 H767 0.960 . S
C780 C779 1.524 . S
C781 C778 1.403 . S
C781 C782 1.392 1_554 S
C781 C785 1.495 . S
C782 C781 1.392 1_556 S
C782 C783 1.385 . S
C782 C784 1.478 . S
C783 H777 0.930 . S
C783 C779 1.400 1_556 S
C783 C782 1.385 . S
C784 C782 1.478 . S
C784 C786 1.381 . S
C784 C790 1.383 . S
C785 C781 1.495 . S
C785 H791 0.959 . S
C785 H792 0.961 1_554 S
C785 H793 0.960 . S
C786 C784 1.381 . S
C786 C787 1.394 . S
C786 H794 0.930 1_556 S
C787 C786 1.394 . S
C787 C788 1.383 . S
C787 H795 0.929 . S
C788 C787 1.383 . S
C788 C789 1.377 . S
C789 H773 0.930 . S
C789 C788 1.377 . S
C789 C790 1.379 . S
C790 H774 0.931 . S
C790 C784 1.383 . S
C790 C789 1.379 . S
H791 C785 0.959 . S
H792 C785 0.961 1_556 S
H793 C785 0.960 . S
H794 C786 0.930 1_554 S
H795 C787 0.929 . S
H796 C804 0.929 . S
H797 C806 0.930 . S
H798 C808 0.930 . S
H799 C811 0.929 . S
H800 C814 0.930 . S
H801 C816 0.960 . S
H802 C816 0.960 . S
H803 C816 0.960 . S
C804 H796 0.929 . S
C804 C805 1.377 . S
C804 C806 1.384 . S
C805 C804 1.377 . S
C805 C811 1.390 . S
C806 H797 0.930 . S
C806 C804 1.384 . S
C806 C807 1.372 . S
C807 C806 1.372 . S
C807 C808 1.400 . S
C807 C812 1.490 . S
C808 H798 0.930 . S
C808 C807 1.400 . S
C808 C811 1.386 . S
H809 C825 0.930 . S
H810 C826 0.931 . S
C811 H799 0.929 . S
C811 C805 1.390 . S
C811 C808 1.386 . S
C812 C807 1.490 . S
C812 C814 1.395 . S
C812 C815 1.403 . S
H813 C819 0.930 . S
C814 H800 0.930 . S
C814 C812 1.395 . S
C814 C817 1.403 . S
C815 C812 1.403 . S
C815 C816 1.524 . S
C815 C819 1.400 . S
C816 H801 0.960 . S
C816 H802 0.960 . S
C816 H803 0.960 . S
C816 C815 1.524 . S
C817 C814 1.403 . S
C817 C818 1.392 . S
C817 C821 1.495 . S
C818 C817 1.392 . S
C818 C819 1.385 . S
C818 C820 1.478 1_554 S
C819 H813 0.930 . S
C819 C815 1.400 . S
C819 C818 1.385 . S
C820 C818 1.478 1_556 S
C820 C822 1.381 1_556 S
C820 C826 1.383 . S
C821 C817 1.495 . S
C821 H827 0.959 . S
C821 H828 0.961 1_554 S
C821 H829 0.960 . S
C822 C820 1.381 1_554 S
C822 C823 1.394 1_554 S
C822 H830 0.930 . S
C823 C822 1.394 1_556 S
C823 C824 1.383 . S
C823 H831 0.929 1_556 S
C824 C823 1.383 . S
C824 C825 1.377 . S
C825 H809 0.930 . S
C825 C824 1.377 . S
C825 C826 1.379 . S
C826 H810 0.931 . S
C826 C820 1.383 . S
C826 C825 1.379 . S
H827 C821 0.959 . S
H828 C821 0.961 1_556 S
H829 C821 0.960 . S
H830 C822 0.930 . S
H831 C823 0.929 1_554 S
H832 C840 0.929 . S
H833 C842 0.930 . S
H834 C844 0.930 . S
H835 C847 0.929 . S
H836 C850 0.930 . S
H837 C852 0.960 1_655 S
H838 C852 0.960 . S
H839 C852 0.960 . S
C840 H832 0.929 . S
C840 C841 1.377 . S
C840 C842 1.384 . S
C841 C840 1.377 . S
C841 C847 1.390 . S
C842 H833 0.930 . S
C842 C840 1.384 . S
C842 C843 1.372 . S
C843 C842 1.372 . S
C843 C844 1.400 . S
C843 C848 1.490 . S
C844 H834 0.930 . S
C844 C843 1.400 . S
C844 C847 1.386 . S
H845 C861 0.930 . S
H846 C862 0.931 . S
C847 H835 0.929 . S
C847 C841 1.390 . S
C847 C844 1.386 . S
C848 C843 1.490 . S
C848 C850 1.395 . S
C848 C851 1.403 . S
H849 C855 0.930 . S
C850 H836 0.930 . S
C850 C848 1.395 . S
C850 C853 1.403 . S
C851 C848 1.403 . S
C851 C852 1.524 . S
C851 C855 1.400 . S
C852 H837 0.960 1_455 S
C852 H838 0.960 . S
C852 H839 0.960 . S
C852 C851 1.524 . S
C853 C850 1.403 . S
C853 C854 1.392 . S
C853 C857 1.495 . S
C854 C853 1.392 . S
C854 C855 1.385 . S
C854 C856 1.478 . S
C855 H849 0.930 . S
C855 C851 1.400 . S
C855 C854 1.385 . S
C856 C854 1.478 . S
C856 C858 1.381 . S
C856 C862 1.383 . S
C857 C853 1.495 . S
C857 H863 0.959 . S
C857 H864 0.961 . S
C857 H865 0.960 . S
C858 C856 1.381 . S
C858 C859 1.394 . S
C858 H866 0.930 . S
C859 C858 1.394 . S
C859 C860 1.383 . S
C859 H867 0.929 . S
C860 C859 1.383 . S
C860 C861 1.377 . S
C861 H845 0.930 . S
C861 C860 1.377 . S
C861 C862 1.379 . S
C862 H846 0.931 . S
C862 C856 1.383 . S
C862 C861 1.379 . S
H863 C857 0.959 . S
H864 C857 0.961 . S
H865 C857 0.960 . S
H866 C858 0.930 . S
H867 C859 0.929 . S
H868 C876 0.929 . S
H869 C878 0.930 . S
H870 C880 0.930 . S
H871 C883 0.929 . S
H872 C886 0.930 . S
H873 C888 0.929 1_565 S
H874 C888 0.960 . S
H875 C888 0.960 . S
C876 H868 0.929 . S
C876 C877 1.377 . S
C876 C878 1.384 . S
C877 C876 1.377 . S
C877 C883 1.390 . S
C878 H869 0.930 . S
C878 C876 1.384 . S
C878 C879 1.372 . S
C879 C878 1.372 . S
C879 C880 1.400 . S
C879 C884 1.490 . S
C880 H870 0.930 . S
C880 C879 1.400 . S
C880 C883 1.386 . S
H881 C897 0.930 . S
H882 C898 0.931 . S
C883 H871 0.929 . S
C883 C877 1.390 . S
C883 C880 1.386 . S
C884 C879 1.490 . S
C884 C886 1.395 . S
C884 C887 1.403 . S
H885 C891 0.930 . S
C886 H872 0.930 . S
C886 C884 1.395 . S
C886 C889 1.403 . S
C887 C884 1.403 . S
C887 C888 1.524 . S
C887 C891 1.400 . S
C888 H873 0.929 1_545 S
C888 H874 0.960 . S
C888 H875 0.960 . S
C888 C887 1.524 . S
C889 C886 1.403 . S
C889 C890 1.392 . S
C889 C893 1.495 . S
C890 C889 1.392 . S
C890 C891 1.385 . S
C890 C892 1.478 . S
C891 H885 0.930 . S
C891 C887 1.400 . S
C891 C890 1.385 . S
C892 C890 1.478 . S
C892 C894 1.381 . S
C892 C898 1.383 . S
C893 C889 1.495 . S
C893 H899 0.959 . S
C893 H900 0.961 . S
C893 H901 0.960 . S
C894 C892 1.381 . S
C894 C895 1.394 . S
C894 H902 0.930 . S
C895 C894 1.394 . S
C895 C896 1.383 . S
C895 H903 0.929 . S
C896 C895 1.383 . S
C896 C897 1.377 . S
C897 H881 0.930 . S
C897 C896 1.377 . S
C897 C898 1.379 . S
C898 H882 0.931 . S
C898 C892 1.383 . S
C898 C897 1.379 . S
H899 C893 0.959 . S
H900 C893 0.961 . S
H901 C893 0.960 . S
H902 C894 0.930 . S
H903 C895 0.929 . S
H904 C912 0.929 . S
H905 C914 0.930 . S
H906 C916 0.930 . S
H907 C919 0.929 1_554 S
H908 C922 0.930 . S
H909 C924 0.960 . S
H910 C924 0.960 . S
H911 C924 0.960 . S
C912 H904 0.929 . S
C912 C913 1.377 . S
C912 C914 1.384 . S
C913 C912 1.377 . S
C913 C919 1.390 . S
C914 H905 0.930 . S
C914 C912 1.384 . S
C914 C915 1.372 . S
C915 C914 1.372 . S
C915 C916 1.400 . S
C915 C920 1.490 . S
C916 H906 0.930 . S
C916 C915 1.400 . S
C916 C919 1.386 . S
H917 C933 0.930 . S
H918 C934 0.931 . S
C919 H907 0.929 1_556 S
C919 C913 1.390 . S
C919 C916 1.386 . S
C920 C915 1.490 . S
C920 C922 1.395 . S
C920 C923 1.403 . S
H921 C927 0.930 . S
C922 H908 0.930 . S
C922 C920 1.395 . S
C922 C925 1.403 . S
C923 C920 1.403 . S
C923 C924 1.524 . S
C923 C927 1.400 . S
C924 H909 0.960 . S
C924 H910 0.960 . S
C924 H911 0.960 . S
C924 C923 1.524 . S
C925 C922 1.403 . S
C925 C926 1.392 . S
C925 C929 1.495 . S
C926 C925 1.392 . S
C926 C927 1.385 . S
C926 C928 1.478 . S
C927 H921 0.930 . S
C927 C923 1.400 . S
C927 C926 1.385 . S
C928 C926 1.478 . S
C928 C930 1.381 . S
C928 C934 1.383 . S
C929 C925 1.495 . S
C929 H935 0.959 . S
C929 H936 0.961 . S
C929 H937 0.960 . S
C930 C928 1.381 . S
C930 C931 1.394 . S
C930 H938 0.930 . S
C931 C930 1.394 . S
C931 C932 1.383 . S
C931 H939 0.929 . S
C932 C931 1.383 . S
C932 C933 1.377 . S
C933 H917 0.930 . S
C933 C932 1.377 . S
C933 C934 1.379 . S
C934 H918 0.931 . S
C934 C928 1.383 . S
C934 C933 1.379 . S
H935 C929 0.959 . S
H936 C929 0.961 . S
H937 C929 0.960 . S
H938 C930 0.930 . S
H939 C931 0.929 . S
H940 C948 0.929 . S
H941 C950 0.930 . S
H942 C952 0.930 . S
H943 C955 0.929 1_554 S
H944 C958 0.930 . S
H945 C960 0.960 1_554 S
H946 C960 0.960 . S
H947 C960 0.960 1_554 S
C948 H940 0.929 . S
C948 C949 1.377 . S
C948 C950 1.384 . S
C949 C948 1.377 . S
C949 C955 1.390 . S
C950 H941 0.930 . S
C950 C948 1.384 . S
C950 C951 1.372 . S
C951 C950 1.372 . S
C951 C952 1.400 . S
C951 C956 1.490 . S
C952 H942 0.930 . S
C952 C951 1.400 . S
C952 C955 1.386 . S
H953 C969 0.930 . S
H954 C970 0.931 . S
C955 H943 0.929 1_556 S
C955 C949 1.390 . S
C955 C952 1.386 . S
C956 C951 1.490 . S
C956 C958 1.395 . S
C956 C959 1.403 . S
H957 C963 0.930 . S
C958 H944 0.930 . S
C958 C956 1.395 . S
C958 C961 1.403 . S
C959 C956 1.403 . S
C959 C960 1.524 . S
C959 C963 1.400 . S
C960 H945 0.960 1_556 S
C960 H946 0.960 . S
C960 H947 0.960 1_556 S
C960 C959 1.524 . S
C961 C958 1.403 . S
C961 C962 1.392 . S
C961 C965 1.495 . S
C962 C961 1.392 . S
C962 C963 1.385 . S
C962 C964 1.478 . S
C963 H957 0.930 . S
C963 C959 1.400 . S
C963 C962 1.385 . S
C964 C962 1.478 . S
C964 C966 1.381 . S
C964 C970 1.383 . S
C965 C961 1.495 . S
C965 H971 0.959 . S
C965 H972 0.961 . S
C965 H973 0.960 . S
C966 C964 1.381 . S
C966 C967 1.394 . S
C966 H974 0.930 . S
C967 C966 1.394 . S
C967 C968 1.383 . S
C967 H975 0.929 . S
C968 C967 1.383 . S
C968 C969 1.377 . S
C969 H953 0.930 . S
C969 C968 1.377 . S
C969 C970 1.379 . S
C970 H954 0.931 . S
C970 C964 1.383 . S
C970 C969 1.379 . S
H971 C965 0.959 . S
H972 C965 0.961 . S
H973 C965 0.960 . S
H974 C966 0.930 . S
H975 C967 0.929 . S
H976 C984 0.929 . S
H977 C986 0.930 . S
H978 C988 0.930 . S
H979 C991 0.929 . S
H980 C994 0.930 . S
H981 C996 0.960 . S
H982 C996 0.960 . S
H983 C996 0.960 . S
C984 H976 0.929 . S
C984 C985 1.377 . S
C984 C986 1.384 . S
C985 C984 1.377 . S
C985 C991 1.390 . S
C986 H977 0.930 . S
C986 C984 1.384 . S
C986 C987 1.372 . S
C987 C986 1.372 . S
C987 C988 1.400 . S
C987 C992 1.490 . S
C988 H978 0.930 . S
C988 C987 1.400 . S
C988 C991 1.386 . S
H989 C1005 0.942 . S
H990 C1006 0.931 1_455 S
C991 H979 0.929 . S
C991 C985 1.390 . S
C991 C988 1.386 . S
C992 C987 1.490 . S
C992 C994 1.395 . S
C992 C995 1.403 . S
H993 C999 0.930 1_455 S
C994 H980 0.930 . S
C994 C992 1.395 . S
C994 C997 1.403 . S
C995 C992 1.403 . S
C995 C996 1.524 1_655 S
C995 C999 1.400 . S
C996 H981 0.960 . S
C996 H982 0.960 . S
C996 H983 0.960 . S
C996 C995 1.524 1_455 S
C997 C994 1.403 . S
C997 C998 1.392 . S
C997 C1001 1.495 . S
C998 C997 1.392 . S
C998 C999 1.385 . S
C998 C1000 1.478 . S
C999 H993 0.930 1_655 S
C999 C995 1.400 . S
C999 C998 1.385 . S
C1000 C998 1.478 . S
C1000 C1002 1.381 . S
C1000 C1006 1.383 . S
C1001 C997 1.495 . S
C1001 H1007 0.959 . S
C1001 H1008 0.961 . S
C1001 H1009 0.960 . S
C1002 C1000 1.381 . S
C1002 C1003 1.394 . S
C1002 H1010 0.930 . S
C1003 C1002 1.394 . S
C1003 C1004 1.383 . S
C1003 H1011 0.929 . S
C1004 C1003 1.383 . S
C1004 C1005 1.369 1_655 S
C1005 H989 0.942 . S
C1005 C1004 1.369 1_455 S
C1005 C1006 1.375 1_455 S
C1006 H990 0.931 1_655 S
C1006 C1000 1.383 . S
C1006 C1005 1.375 1_655 S
H1007 C1001 0.959 . S
H1008 C1001 0.961 . S
H1009 C1001 0.960 . S
H1010 C1002 0.930 . S
H1011 C1003 0.929 . S
H1012 C1020 0.929 1_545 S
H1013 C1022 0.930 1_545 S
H1014 C1024 0.930 . S
H1015 C1027 0.929 . S
H1016 C1030 0.930 . S
H1017 C1032 0.960 . S
H1018 C1032 0.960 . S
H1019 C1032 0.960 . S
C1020 H1012 0.929 1_565 S
C1020 C1021 1.377 . S
C1020 C1022 1.384 . S
C1021 C1020 1.377 . S
C1021 C1027 1.390 . S
C1022 H1013 0.930 1_565 S
C1022 C1020 1.384 . S
C1022 C1023 1.372 . S
C1023 C1022 1.372 . S
C1023 C1024 1.400 . S
C1023 C1028 1.490 . S
C1024 H1014 0.930 . S
C1024 C1023 1.400 . S
C1024 C1027 1.386 . S
H1025 C1041 0.930 . S
H1026 C1042 0.931 . S
C1027 H1015 0.929 . S
C1027 C1021 1.390 . S
C1027 C1024 1.386 . S
C1028 C1023 1.490 . S
C1028 C1030 1.395 . S
C1028 C1031 1.403 . S
H1029 C1035 0.930 . S
C1030 H1016 0.930 . S
C1030 C1028 1.395 . S
C1030 C1033 1.403 . S
C1031 C1028 1.403 . S
C1031 C1032 1.524 . S
C1031 C1035 1.400 . S
C1032 H1017 0.960 . S
C1032 H1018 0.960 . S
C1032 H1019 0.960 . S
C1032 C1031 1.524 . S
C1033 C1030 1.403 . S
C1033 C1034 1.392 . S
C1033 C1037 1.495 1_565 S
C1034 C1033 1.392 . S
C1034 C1035 1.385 . S
C1034 C1036 1.478 . S
C1035 H1029 0.930 . S
C1035 C1031 1.400 . S
C1035 C1034 1.385 . S
C1036 C1034 1.478 . S
C1036 C1038 1.381 1_565 S
C1036 C1042 1.383 . S
C1037 C1033 1.495 1_545 S
C1037 H1043 0.959 . S
C1037 H1044 0.961 1_545 S
C1037 H1045 0.960 . S
C1038 C1036 1.381 1_545 S
C1038 C1039 1.394 . S
C1038 H1046 0.930 . S
C1039 C1038 1.394 . S
C1039 C1040 1.383 1_545 S
C1039 H1047 0.929 . S
C1040 C1039 1.383 1_565 S
C1040 C1041 1.377 . S
C1041 H1025 0.930 . S
C1041 C1040 1.377 . S
C1041 C1042 1.379 . S
C1042 H1026 0.931 . S
C1042 C1036 1.383 . S
C1042 C1041 1.379 . S
H1043 C1037 0.959 . S
H1044 C1037 0.961 1_565 S
H1045 C1037 0.960 . S
H1046 C1038 0.930 . S
H1047 C1039 0.929 . S
H1048 C1056 0.929 . S
H1049 C1058 0.930 . S
H1050 C1060 0.930 . S
H1051 C1063 0.929 . S
H1052 C1066 0.930 . S
H1053 C1068 0.960 . S
H1054 C1068 0.960 . S
H1055 C1068 0.960 . S
C1056 H1048 0.929 . S
C1056 C1057 1.377 . S
C1056 C1058 1.384 . S
C1057 C1056 1.377 . S
C1057 C1063 1.390 . S
C1058 H1049 0.930 . S
C1058 C1056 1.384 . S
C1058 C1059 1.372 . S
C1059 C1058 1.372 . S
C1059 C1060 1.400 . S
C1059 C1064 1.490 . S
C1060 H1050 0.930 . S
C1060 C1059 1.400 . S
C1060 C1063 1.386 . S
H1061 C1077 0.930 . S
H1062 C1078 0.931 . S
C1063 H1051 0.929 . S
C1063 C1057 1.390 . S
C1063 C1060 1.386 . S
C1064 C1059 1.490 . S
C1064 C1066 1.395 . S
C1064 C1067 1.403 . S
H1065 C1071 0.930 . S
C1066 H1052 0.930 . S
C1066 C1064 1.395 . S
C1066 C1069 1.403 . S
C1067 C1064 1.403 . S
C1067 C1068 1.524 . S
C1067 C1071 1.400 . S
C1068 H1053 0.960 . S
C1068 H1054 0.960 . S
C1068 H1055 0.960 . S
C1068 C1067 1.524 . S
C1069 C1066 1.403 . S
C1069 C1070 1.392 . S
C1069 C1073 1.495 . S
C1070 C1069 1.392 . S
C1070 C1071 1.385 . S
C1070 C1072 1.478 . S
C1071 H1065 0.930 . S
C1071 C1067 1.400 . S
C1071 C1070 1.385 . S
C1072 C1070 1.478 . S
C1072 C1074 1.381 . S
C1072 C1078 1.383 . S
C1073 C1069 1.495 . S
C1073 H1079 0.959 . S
C1073 H1080 0.961 . S
C1073 H1081 0.960 . S
C1074 C1072 1.381 . S
C1074 C1075 1.394 . S
C1074 H1082 0.930 . S
C1075 C1074 1.394 . S
C1075 C1076 1.383 . S
C1075 H1083 0.929 . S
C1076 C1075 1.383 . S
C1076 C1077 1.377 . S
C1077 H1061 0.930 . S
C1077 C1076 1.377 . S
C1077 C1078 1.379 . S
C1078 H1062 0.931 . S
C1078 C1072 1.383 . S
C1078 C1077 1.379 . S
H1079 C1073 0.959 . S
H1080 C1073 0.961 . S
H1081 C1073 0.960 . S
H1082 C1074 0.930 . S
H1083 C1075 0.929 . S
H1084 C1092 0.929 . S
H1085 C1094 0.930 . S
H1086 C1096 0.930 . S
H1087 C1099 0.929 . S
H1088 C1102 0.930 . S
H1089 C1104 0.960 . S
H1090 C1104 0.960 . S
H1091 C1104 0.960 . S
C1092 H1084 0.929 . S
C1092 C1093 1.377 . S
C1092 C1094 1.384 . S
C1093 C1092 1.377 . S
C1093 C1099 1.390 . S
C1094 H1085 0.930 . S
C1094 C1092 1.384 . S
C1094 C1095 1.372 . S
C1095 C1094 1.372 . S
C1095 C1096 1.400 . S
C1095 C1100 1.490 . S
C1096 H1086 0.930 . S
C1096 C1095 1.400 . S
C1096 C1099 1.386 . S
H1097 C1113 0.930 . S
H1098 C1114 0.931 . S
C1099 H1087 0.929 . S
C1099 C1093 1.390 . S
C1099 C1096 1.386 . S
C1100 C1095 1.490 . S
C1100 C1102 1.395 . S
C1100 C1103 1.403 . S
H1101 C1107 0.930 . S
C1102 H1088 0.930 . S
C1102 C1100 1.395 . S
C1102 C1105 1.403 . S
C1103 C1100 1.403 . S
C1103 C1104 1.524 . S
C1103 C1107 1.400 . S
C1104 H1089 0.960 . S
C1104 H1090 0.960 . S
C1104 H1091 0.960 . S
C1104 C1103 1.524 . S
C1105 C1102 1.403 . S
C1105 C1106 1.392 . S
C1105 C1109 1.495 . S
C1106 C1105 1.392 . S
C1106 C1107 1.385 . S
C1106 C1108 1.478 . S
C1107 H1101 0.930 . S
C1107 C1103 1.400 . S
C1107 C1106 1.385 . S
C1108 C1106 1.478 . S
C1108 C1110 1.381 . S
C1108 C1114 1.383 . S
C1109 C1105 1.495 . S
C1109 H1115 0.959 . S
C1109 H1116 0.961 . S
C1109 H1117 0.960 . S
C1110 C1108 1.381 . S
C1110 C1111 1.394 . S
C1110 H1118 0.930 . S
C1111 C1110 1.394 . S
C1111 C1112 1.383 . S
C1111 H1119 0.929 . S
C1112 C1111 1.383 . S
C1112 C1113 1.377 . S
C1113 H1097 0.930 . S
C1113 C1112 1.377 . S
C1113 C1114 1.379 . S
C1114 H1098 0.931 . S
C1114 C1108 1.383 . S
C1114 C1113 1.379 . S
H1115 C1109 0.959 . S
H1116 C1109 0.961 . S
H1117 C1109 0.960 . S
H1118 C1110 0.930 . S
H1119 C1111 0.929 . S
C265 C76 2.119 . S
C284 C127 2.286 . S
C320 C153 1.681 . S
C301 C88 1.572 . S
C356 C193 1.822 . S
C337 C52 1.730 . S
C392 C247 2.368 . S
C373 C64 2.226 . S
C428 C108 2.283 1_565 S
C409 C28 2.135 . S
C445 C40 1.558 . S
C464 C138 1.677 . S
C481 C4 1.728 . S
C500 C178 1.824 . S
C517 C16 2.245 . S
C536 C228 2.374 1_655 S
C572 C104 0.314 . S
C553 C69 0.377 . S
C608 C165 0.576 . S
C589 C81 0.535 . S
C644 C205 0.374 . S
C625 C93 0.420 . S
C661 C57 0.331 . S
C680 C224 0.311 . S
C697 C21 0.380 . S
C716 C125 0.246 . S
C752 C144 0.573 . S
C733 C33 0.525 . S
C788 C184 0.425 . S
C769 C45 0.412 . S
C805 C9 0.349 . S
C824 C245 0.192 . S
C841 C66 1.786 . S
C860 C98 1.928 . S
C877 C78 2.394 . S
C896 C148 2.564 . S
C932 C188 2.308 . S
C913 C90 2.149 . S
C968 C218 1.677 . S
C949 C54 1.555 1_556 S
C985 C18 1.760 . S
C1004 C113 1.929 . S
C1040 C167 2.565 . S
C1021 C30 2.382 . S
C1076 C207 2.308 . S
C1057 C42 2.152 . S
C1093 C6 1.546 . S
C1112 C233 1.682 . S
