# Generated by pormake.
# Topology ptr, (4,4)-cn, num edge types: 1
# Building blocks:
#     Node 0, Type 0, BuildingBlock: NAHDIM_clean_sbu_0, # of connection points: 4
#     Node 1, Type 0, BuildingBlock: NAHDIM_clean_sbu_0, # of connection points: 4
#     Node 2, Type 0, BuildingBlock: NAHDIM_clean_sbu_0, # of connection points: 4
#     Node 3, Type 0, BuildingBlock: NAHDIM_clean_sbu_0, # of connection points: 4
#     Node 4, Type 0, BuildingBlock: NAHDIM_clean_sbu_0, # of connection points: 4
#     Node 5, Type 0, BuildingBlock: NAHDIM_clean_sbu_0, # of connection points: 4
#     Node 6, Type 0, BuildingBlock: NAHDIM_clean_sbu_0, # of connection points: 4
#     Node 7, Type 0, BuildingBlock: NAHDIM_clean_sbu_0, # of connection points: 4
#     Node 8, Type 0, BuildingBlock: NAHDIM_clean_sbu_0, # of connection points: 4
#     Node 9, Type 0, BuildingBlock: NAHDIM_clean_sbu_0, # of connection points: 4
#     Node 10, Type 0, BuildingBlock: NAHDIM_clean_sbu_0, # of connection points: 4
#     Node 11, Type 0, BuildingBlock: NAHDIM_clean_sbu_0, # of connection points: 4
#     Node 12, Type 0, BuildingBlock: NAHDIM_clean_sbu_0, # of connection points: 4
#     Node 13, Type 0, BuildingBlock: NAHDIM_clean_sbu_0, # of connection points: 4
#     Node 14, Type 0, BuildingBlock: NAHDIM_clean_sbu_0, # of connection points: 4
#     Node 15, Type 0, BuildingBlock: NAHDIM_clean_sbu_0, # of connection points: 4
#     Node 16, Type 0, BuildingBlock: NAHDIM_clean_sbu_0, # of connection points: 4
#     Node 17, Type 0, BuildingBlock: NAHDIM_clean_sbu_0, # of connection points: 4
#     Node 18, Type 1, BuildingBlock: AZAVOO_clean_linker_0, # of connection points: 4
#     Node 19, Type 1, BuildingBlock: AZAVOO_clean_linker_0, # of connection points: 4
#     Node 20, Type 1, BuildingBlock: AZAVOO_clean_linker_0, # of connection points: 4
#     Node 21, Type 1, BuildingBlock: AZAVOO_clean_linker_0, # of connection points: 4
#     Node 22, Type 1, BuildingBlock: AZAVOO_clean_linker_0, # of connection points: 4
#     Node 23, Type 1, BuildingBlock: AZAVOO_clean_linker_0, # of connection points: 4
#     Node 24, Type 1, BuildingBlock: AZAVOO_clean_linker_0, # of connection points: 4
#     Node 25, Type 1, BuildingBlock: AZAVOO_clean_linker_0, # of connection points: 4
#     Node 26, Type 1, BuildingBlock: AZAVOO_clean_linker_0, # of connection points: 4
#     Node 27, Type 1, BuildingBlock: AZAVOO_clean_linker_0, # of connection points: 4
#     Node 28, Type 1, BuildingBlock: AZAVOO_clean_linker_0, # of connection points: 4
#     Node 29, Type 1, BuildingBlock: AZAVOO_clean_linker_0, # of connection points: 4
#     Node 30, Type 1, BuildingBlock: AZAVOO_clean_linker_0, # of connection points: 4
#     Node 31, Type 1, BuildingBlock: AZAVOO_clean_linker_0, # of connection points: 4
#     Node 32, Type 1, BuildingBlock: AZAVOO_clean_linker_0, # of connection points: 4
#     Node 33, Type 1, BuildingBlock: AZAVOO_clean_linker_0, # of connection points: 4
#     Node 34, Type 1, BuildingBlock: AZAVOO_clean_linker_0, # of connection points: 4
#     Node 35, Type 1, BuildingBlock: AZAVOO_clean_linker_0, # of connection points: 4
#     Edge 36, Type (0, 1), BuildingBlock: UVAHIK_clean_linker_0, # of connection points: 2
#     Edge 37, Type (0, 1), BuildingBlock: UVAHIK_clean_linker_0, # of connection points: 2
#     Edge 38, Type (0, 1), BuildingBlock: UVAHIK_clean_linker_0, # of connection points: 2
#     Edge 39, Type (0, 1), BuildingBlock: UVAHIK_clean_linker_0, # of connection points: 2
#     Edge 40, Type (0, 1), BuildingBlock: UVAHIK_clean_linker_0, # of connection points: 2
#     Edge 41, Type (0, 1), BuildingBlock: UVAHIK_clean_linker_0, # of connection points: 2
#     Edge 42, Type (0, 1), BuildingBlock: UVAHIK_clean_linker_0, # of connection points: 2
#     Edge 43, Type (0, 1), BuildingBlock: UVAHIK_clean_linker_0, # of connection points: 2
#     Edge 44, Type (0, 1), BuildingBlock: UVAHIK_clean_linker_0, # of connection points: 2
#     Edge 45, Type (0, 1), BuildingBlock: UVAHIK_clean_linker_0, # of connection points: 2
#     Edge 46, Type (0, 1), BuildingBlock: UVAHIK_clean_linker_0, # of connection points: 2
#     Edge 47, Type (0, 1), BuildingBlock: UVAHIK_clean_linker_0, # of connection points: 2
#     Edge 48, Type (0, 1), BuildingBlock: UVAHIK_clean_linker_0, # of connection points: 2
#     Edge 49, Type (0, 1), BuildingBlock: UVAHIK_clean_linker_0, # of connection points: 2
#     Edge 50, Type (0, 1), BuildingBlock: UVAHIK_clean_linker_0, # of connection points: 2
#     Edge 51, Type (0, 1), BuildingBlock: UVAHIK_clean_linker_0, # of connection points: 2
#     Edge 52, Type (0, 1), BuildingBlock: UVAHIK_clean_linker_0, # of connection points: 2
#     Edge 53, Type (0, 1), BuildingBlock: UVAHIK_clean_linker_0, # of connection points: 2
#     Edge 54, Type (0, 1), BuildingBlock: UVAHIK_clean_linker_0, # of connection points: 2
#     Edge 55, Type (0, 1), BuildingBlock: UVAHIK_clean_linker_0, # of connection points: 2
#     Edge 56, Type (0, 1), BuildingBlock: UVAHIK_clean_linker_0, # of connection points: 2
#     Edge 57, Type (0, 1), BuildingBlock: UVAHIK_clean_linker_0, # of connection points: 2
#     Edge 58, Type (0, 1), BuildingBlock: UVAHIK_clean_linker_0, # of connection points: 2
#     Edge 59, Type (0, 1), BuildingBlock: UVAHIK_clean_linker_0, # of connection points: 2
#     Edge 60, Type (0, 1), BuildingBlock: UVAHIK_clean_linker_0, # of connection points: 2
#     Edge 61, Type (0, 1), BuildingBlock: UVAHIK_clean_linker_0, # of connection points: 2
#     Edge 62, Type (0, 1), BuildingBlock: UVAHIK_clean_linker_0, # of connection points: 2
#     Edge 63, Type (0, 1), BuildingBlock: UVAHIK_clean_linker_0, # of connection points: 2
#     Edge 64, Type (0, 1), BuildingBlock: UVAHIK_clean_linker_0, # of connection points: 2
#     Edge 65, Type (0, 1), BuildingBlock: UVAHIK_clean_linker_0, # of connection points: 2
#     Edge 66, Type (0, 1), BuildingBlock: UVAHIK_clean_linker_0, # of connection points: 2
#     Edge 67, Type (0, 1), BuildingBlock: UVAHIK_clean_linker_0, # of connection points: 2
#     Edge 68, Type (0, 1), BuildingBlock: UVAHIK_clean_linker_0, # of connection points: 2
#     Edge 69, Type (0, 1), BuildingBlock: UVAHIK_clean_linker_0, # of connection points: 2
#     Edge 70, Type (0, 1), BuildingBlock: UVAHIK_clean_linker_0, # of connection points: 2
#     Edge 71, Type (0, 1), BuildingBlock: UVAHIK_clean_linker_0, # of connection points: 2
#     Edge 72, Type (0, 1), BuildingBlock: UVAHIK_clean_linker_0, # of connection points: 2
#     Edge 73, Type (0, 1), BuildingBlock: UVAHIK_clean_linker_0, # of connection points: 2
#     Edge 74, Type (0, 1), BuildingBlock: UVAHIK_clean_linker_0, # of connection points: 2
#     Edge 75, Type (0, 1), BuildingBlock: UVAHIK_clean_linker_0, # of connection points: 2
#     Edge 76, Type (0, 1), BuildingBlock: UVAHIK_clean_linker_0, # of connection points: 2
#     Edge 77, Type (0, 1), BuildingBlock: UVAHIK_clean_linker_0, # of connection points: 2
#     Edge 78, Type (0, 1), BuildingBlock: UVAHIK_clean_linker_0, # of connection points: 2
#     Edge 79, Type (0, 1), BuildingBlock: UVAHIK_clean_linker_0, # of connection points: 2
#     Edge 80, Type (0, 1), BuildingBlock: UVAHIK_clean_linker_0, # of connection points: 2
#     Edge 81, Type (0, 1), BuildingBlock: UVAHIK_clean_linker_0, # of connection points: 2
#     Edge 82, Type (0, 1), BuildingBlock: UVAHIK_clean_linker_0, # of connection points: 2
#     Edge 83, Type (0, 1), BuildingBlock: UVAHIK_clean_linker_0, # of connection points: 2
#     Edge 84, Type (0, 1), BuildingBlock: UVAHIK_clean_linker_0, # of connection points: 2
#     Edge 85, Type (0, 1), BuildingBlock: UVAHIK_clean_linker_0, # of connection points: 2
#     Edge 86, Type (0, 1), BuildingBlock: UVAHIK_clean_linker_0, # of connection points: 2
#     Edge 87, Type (0, 1), BuildingBlock: UVAHIK_clean_linker_0, # of connection points: 2
#     Edge 88, Type (0, 1), BuildingBlock: UVAHIK_clean_linker_0, # of connection points: 2
#     Edge 89, Type (0, 1), BuildingBlock: UVAHIK_clean_linker_0, # of connection points: 2
#     Edge 90, Type (0, 1), BuildingBlock: UVAHIK_clean_linker_0, # of connection points: 2
#     Edge 91, Type (0, 1), BuildingBlock: UVAHIK_clean_linker_0, # of connection points: 2
#     Edge 92, Type (0, 1), BuildingBlock: UVAHIK_clean_linker_0, # of connection points: 2
#     Edge 93, Type (0, 1), BuildingBlock: UVAHIK_clean_linker_0, # of connection points: 2
#     Edge 94, Type (0, 1), BuildingBlock: UVAHIK_clean_linker_0, # of connection points: 2
#     Edge 95, Type (0, 1), BuildingBlock: UVAHIK_clean_linker_0, # of connection points: 2
#     Edge 96, Type (0, 1), BuildingBlock: UVAHIK_clean_linker_0, # of connection points: 2
#     Edge 97, Type (0, 1), BuildingBlock: UVAHIK_clean_linker_0, # of connection points: 2
#     Edge 98, Type (0, 1), BuildingBlock: UVAHIK_clean_linker_0, # of connection points: 2
#     Edge 99, Type (0, 1), BuildingBlock: UVAHIK_clean_linker_0, # of connection points: 2
#     Edge 100, Type (0, 1), BuildingBlock: UVAHIK_clean_linker_0, # of connection points: 2
#     Edge 101, Type (0, 1), BuildingBlock: UVAHIK_clean_linker_0, # of connection points: 2
#     Edge 102, Type (0, 1), BuildingBlock: UVAHIK_clean_linker_0, # of connection points: 2
#     Edge 103, Type (0, 1), BuildingBlock: UVAHIK_clean_linker_0, # of connection points: 2
#     Edge 104, Type (0, 1), BuildingBlock: UVAHIK_clean_linker_0, # of connection points: 2
#     Edge 105, Type (0, 1), BuildingBlock: UVAHIK_clean_linker_0, # of connection points: 2
#     Edge 106, Type (0, 1), BuildingBlock: UVAHIK_clean_linker_0, # of connection points: 2
#     Edge 107, Type (0, 1), BuildingBlock: UVAHIK_clean_linker_0, # of connection points: 2
# Relax obj value: 0.097
# Max RMSD: 0.290
# Mean RMSD: 0.174
data_MOF--net-ptr--node1-NAHDIM_clean_sbu_0--node2-AZAVOO_clean_linker_0--edge1-UVAHIK_clean_linker_0
_symmetry_space_group_name_H-M    P1
_symmetry_Int_Tables_number       1
_symmetry_cell_setting            triclinic
loop_
_symmetry_equiv_pos_as_xyz
'x, y, z'
_cell_length_a     103.0802
_cell_length_b     99.856001
_cell_length_c     84.58712
_cell_angle_alpha  93.912552
_cell_angle_beta   91.509253
_cell_angle_gamma 122.09027
loop_
_atom_site_label
_atom_site_type_symbol
_atom_site_fract_x
_atom_site_fract_y
_atom_site_fract_z
_atom_type_partial_charge
C0 C 0.03528 0.36734 0.03794 0.0
O1 O 0.03183 0.37652 0.04617 0.0
O2 O 0.9981 0.34708 0.00275 0.0
Zn3 Zn 0.01586 0.3679 0.01281 0.0
O4 O 0.00909 0.37843 0.02883 0.0
C5 C 0.02383 0.37766 0.98128 0.0
O6 O 0.01683 0.36229 0.97737 0.0
O7 O 0.03041 0.36301 0.0234 0.0
C8 C 0.99572 0.37267 0.03366 0.0
O9 O 0.98462 0.35829 0.02813 0.0
C10 C 0.99183 0.33484 0.01033 0.0
O11 O 0.99636 0.33608 0.02532 0.0
O12 O 0.02547 0.38276 0.99583 0.0
C13 C 0.659 0.63522 0.0417 0.0
O14 O 0.65015 0.64029 0.03725 0.0
O15 O 0.63954 0.64174 0.07292 0.0
Zn16 Zn 0.63495 0.62123 0.06128 0.0
O17 O 0.6196 0.61473 0.04263 0.0
C18 C 0.63118 0.60797 0.09105 0.0
O19 O 0.64156 0.62285 0.09592 0.0
O20 O 0.6548 0.62584 0.05257 0.0
C21 C 0.60513 0.6077 0.04316 0.0
O22 O 0.59905 0.60391 0.05687 0.0
C23 C 0.63611 0.65101 0.0672 0.0
O24 O 0.62843 0.64687 0.05326 0.0
O25 O 0.62684 0.60417 0.07634 0.0
C26 C 0.36953 0.02318 0.00945 0.0
O27 O 0.36312 0.00839 0.00334 0.0
O28 O 0.36698 0.99624 0.03572 0.0
Zn29 Zn 0.3855 0.01246 0.02539 0.0
O30 O 0.38903 0.00343 0.0052 0.0
C31 C 0.40385 0.02741 0.05471 0.0
O32 O 0.39205 0.02848 0.05814 0.0
O33 O 0.38079 0.02879 0.0198 0.0
C34 C 0.3954 0.99549 0.00472 0.0
O35 O 0.3995 0.99228 0.01808 0.0
C36 C 0.35623 0.98274 0.02941 0.0
O37 O 0.35726 0.97774 0.01501 0.0
O38 O 0.4039 0.02146 0.04097 0.0
C39 C 0.97289 0.64242 0.02369 0.0
O40 O 0.98454 0.64361 0.0165 0.0
O41 O 0.00453 0.65902 0.05625 0.0
Zn42 Zn 0.98794 0.63669 0.04798 0.0
O43 O 0.9951 0.62727 0.03115 0.0
C44 C 0.99086 0.62644 0.07766 0.0
O45 O 0.00436 0.63965 0.0778 0.0
O46 O 0.97114 0.63869 0.03791 0.0
C47 C 0.00436 0.62271 0.03331 0.0
O48 O 0.01053 0.62438 0.04766 0.0
C49 C 0.01845 0.66654 0.05283 0.0
O50 O 0.02324 0.65962 0.04295 0.0
O51 O 0.98109 0.62257 0.066 0.0
C52 C 0.33537 0.3608 0.0163 0.0
O53 O 0.34204 0.35284 0.01829 0.0
O54 O 0.35933 0.35828 0.99146 0.0
Zn55 Zn 0.36299 0.37847 0.00275 0.0
O56 O 0.3773 0.38457 0.02229 0.0
C57 C 0.38647 0.40097 0.98572 0.0
O58 O 0.39337 0.39494 0.99298 0.0
O59 O 0.34249 0.3736 0.00959 0.0
C60 C 0.38498 0.39889 0.02843 0.0
O61 O 0.3833 0.40954 0.022 0.0
C62 C 0.3561 0.35507 0.97655 0.0
O63 O 0.35616 0.36565 0.96809 0.0
O64 O 0.3725 0.39578 0.98801 0.0
C65 C 0.63174 0.97909 0.06087 0.0
O66 O 0.62854 0.98559 0.07293 0.0
O67 O 0.64397 0.01824 0.03935 0.0
Zn68 Zn 0.62444 0.99842 0.04393 0.0
O69 O 0.61625 0.00242 0.06379 0.0
C70 C 0.61369 0.99615 0.01177 0.0
O71 O 0.62854 0.0042 0.01017 0.0
O72 O 0.63 0.98211 0.04689 0.0
C73 C 0.61228 0.01245 0.06556 0.0
O74 O 0.61348 0.02094 0.05384 0.0
C75 C 0.65668 0.0233 0.04717 0.0
O76 O 0.65687 0.01641 0.05979 0.0
O77 O 0.60888 0.99165 0.02528 0.0
C78 C 0.68771 0.69529 0.37657 0.0
O79 O 0.67425 0.69169 0.38121 0.0
O80 O 0.66137 0.68335 0.33999 0.0
Zn81 Zn 0.67692 0.70467 0.35131 0.0
O82 O 0.66644 0.71192 0.3662 0.0
C83 C 0.67706 0.72266 0.32764 0.0
O84 O 0.66271 0.71502 0.33135 0.0
O85 O 0.69211 0.7019 0.36378 0.0
C86 C 0.67283 0.72644 0.3714 0.0
O87 O 0.6865 0.7368 0.367 0.0
C88 C 0.64881 0.67392 0.34587 0.0
O89 O 0.64571 0.67835 0.35948 0.0
O90 O 0.68648 0.72027 0.33493 0.0
C91 C 0.31102 0.94569 0.37685 0.0
O92 O 0.29749 0.93839 0.36897 0.0
O93 O 0.30576 0.97681 0.41054 0.0
Zn94 Zn 0.29597 0.95479 0.39954 0.0
O95 O 0.28117 0.95183 0.38148 0.0
C96 C 0.27554 0.9395 0.42352 0.0
O97 O 0.27221 0.95022 0.42098 0.0
O98 O 0.31288 0.95299 0.39044 0.0
C99 C 0.26749 0.93999 0.37855 0.0
O100 O 0.26181 0.92864 0.38809 0.0
C101 C 0.30984 0.98846 0.40237 0.0
O102 O 0.30721 0.9858 0.38684 0.0
O103 O 0.28548 0.93893 0.41546 0.0
C104 C 0.06433 0.3644 0.34354 0.0
O105 O 0.07589 0.36427 0.33753 0.0
O106 O 0.03931 0.32046 0.367 0.0
Zn107 Zn 0.05898 0.33657 0.35825 0.0
O108 O 0.06375 0.32802 0.33855 0.0
C109 C 0.07769 0.3547 0.38653 0.0
O110 O 0.06756 0.35886 0.38721 0.0
O111 O 0.05603 0.35399 0.35269 0.0
C112 C 0.05771 0.31353 0.33336 0.0
O113 O 0.04722 0.30234 0.34131 0.0
C114 C 0.02674 0.31392 0.35845 0.0
O115 O 0.027 0.3167 0.34347 0.0
O116 O 0.0764 0.34512 0.37499 0.0
C117 C 0.647 0.96955 0.35592 0.0
O118 O 0.65984 0.9734 0.34946 0.0
O119 O 0.67698 0.9833 0.39191 0.0
Zn120 Zn 0.66129 0.96214 0.38015 0.0
O121 O 0.6706 0.95532 0.36334 0.0
C122 C 0.64665 0.94669 0.40811 0.0
O123 O 0.64606 0.9594 0.41141 0.0
O124 O 0.64468 0.96406 0.3694 0.0
C125 C 0.68315 0.95584 0.36511 0.0
O126 O 0.6913 0.96158 0.37883 0.0
C127 C 0.68671 0.99484 0.38462 0.0
O128 O 0.68702 0.9927 0.36917 0.0
O129 O 0.65244 0.9454 0.39546 0.0
C130 C 0.00462 0.70026 0.35452 0.0
O131 O 0.01226 0.69354 0.35785 0.0
O132 O 0.02949 0.6986 0.33008 0.0
Zn133 Zn 0.03206 0.71872 0.34058 0.0
O134 O 0.04636 0.72694 0.36041 0.0
C135 C 0.04793 0.73454 0.31412 0.0
O136 O 0.05041 0.7229 0.31344 0.0
O137 O 0.01103 0.71252 0.34693 0.0
C138 C 0.06073 0.73274 0.36052 0.0
O139 O 0.067 0.73348 0.34702 0.0
C140 C 0.03626 0.69179 0.33448 0.0
O141 O 0.04626 0.69807 0.34689 0.0
O142 O 0.04006 0.73542 0.32501 0.0
C143 C 0.28285 0.30803 0.39824 0.0
O144 O 0.28093 0.31651 0.4094 0.0
O145 O 0.30116 0.34358 0.36945 0.0
Zn146 Zn 0.28065 0.32886 0.37773 0.0
O147 O 0.27698 0.33915 0.39702 0.0
C148 C 0.26542 0.3308 0.35003 0.0
O149 O 0.27777 0.34519 0.35132 0.0
O150 O 0.28217 0.31058 0.38383 0.0
C151 C 0.27211 0.34846 0.3968 0.0
O152 O 0.26929 0.35223 0.38311 0.0
C153 C 0.30968 0.3586 0.37191 0.0
O154 O 0.30507 0.3665 0.38059 0.0
O155 O 0.26387 0.32138 0.36024 0.0
C156 C 0.36066 0.02578 0.68797 0.0
O157 O 0.3542 0.01657 0.67466 0.0
O158 O 0.32557 0.01461 0.66914 0.0
Zn159 Zn 0.34082 0.03655 0.67937 0.0
O160 O 0.33007 0.0435 0.69416 0.0
C161 C 0.34031 0.05423 0.65527 0.0
O162 O 0.326 0.04687 0.6591 0.0
O163 O 0.35714 0.03586 0.69218 0.0
C164 C 0.33646 0.05807 0.69916 0.0
O165 O 0.35005 0.06837 0.69451 0.0
C166 C 0.31684 0.00395 0.67786 0.0
O167 O 0.31777 0.0077 0.69322 0.0
O168 O 0.34963 0.05166 0.66251 0.0
C169 C 0.00124 0.29686 0.72157 0.0
O170 O 0.00108 0.30442 0.73483 0.0
O171 O 0.97095 0.30007 0.73364 0.0
Zn172 Zn 0.96819 0.28032 0.7222 0.0
O173 O 0.95368 0.27374 0.70283 0.0
C174 C 0.96479 0.26706 0.75168 0.0
O175 O 0.97542 0.28193 0.75628 0.0
O176 O 0.9886 0.28565 0.71462 0.0
C177 C 0.93939 0.26829 0.70298 0.0
O178 O 0.9331 0.26616 0.71663 0.0
C179 C 0.97035 0.31046 0.72637 0.0
O180 O 0.96736 0.30809 0.71088 0.0
O181 O 0.96001 0.26314 0.73709 0.0
C182 C 0.70811 0.68602 0.67099 0.0
O183 O 0.70225 0.6714 0.66461 0.0
O184 O 0.70476 0.65981 0.6999 0.0
Zn185 Zn 0.72341 0.67577 0.68955 0.0
O186 O 0.72787 0.66597 0.67054 0.0
C187 C 0.74787 0.6787 0.70894 0.0
O188 O 0.74305 0.66498 0.7008 0.0
O189 O 0.71853 0.69146 0.68227 0.0
C190 C 0.73992 0.67523 0.66379 0.0
O191 O 0.74864 0.69012 0.66975 0.0
C192 C 0.69396 0.64637 0.69354 0.0
O193 O 0.69501 0.64139 0.67913 0.0
O194 O 0.74133 0.68613 0.70597 0.0
C195 C 0.30903 0.31248 0.70587 0.0
O196 O 0.31582 0.31991 0.71986 0.0
O197 O 0.34371 0.31901 0.72115 0.0
Zn198 Zn 0.32635 0.29795 0.71072 0.0
O199 O 0.33415 0.28914 0.69407 0.0
C200 C 0.31388 0.28554 0.74066 0.0
O201 O 0.31772 0.30017 0.74491 0.0
O202 O 0.31135 0.302 0.69977 0.0
C203 C 0.34691 0.29007 0.69565 0.0
O204 O 0.35581 0.29726 0.70876 0.0
C205 C 0.35193 0.32101 0.73362 0.0
O206 O 0.34973 0.30858 0.7404 0.0
O207 O 0.31619 0.282 0.72674 0.0
C208 C 0.67522 0.03362 0.68063 0.0
O209 O 0.67833 0.02253 0.68147 0.0
O210 O 0.70069 0.02834 0.65852 0.0
Zn211 Zn 0.70487 0.0494 0.66837 0.0
O212 O 0.71985 0.05717 0.68753 0.0
C213 C 0.71277 0.06099 0.63765 0.0
O214 O 0.70539 0.04573 0.63302 0.0
O215 O 0.68499 0.04658 0.67525 0.0
C216 C 0.73266 0.05818 0.6871 0.0
O217 O 0.73632 0.05399 0.67371 0.0
C218 C 0.70169 0.01825 0.66595 0.0
O219 O 0.70611 0.02147 0.68118 0.0
O220 O 0.7138 0.06549 0.6523 0.0
C221 C 0.93337 0.63584 0.72681 0.0
O222 O 0.92742 0.64161 0.73656 0.0
O223 O 0.96267 0.6763 0.70231 0.0
Zn224 Zn 0.94136 0.66317 0.70958 0.0
O225 O 0.9386 0.67358 0.72937 0.0
C226 C 0.92864 0.66824 0.68161 0.0
O227 O 0.94199 0.68175 0.68291 0.0
O228 O 0.93929 0.6428 0.71455 0.0
C229 C 0.93593 0.68464 0.72966 0.0
O230 O 0.9351 0.69023 0.71632 0.0
C231 C 0.97256 0.6909 0.70631 0.0
O232 O 0.96903 0.6992 0.71593 0.0
O233 O 0.92565 0.65847 0.69189 0.0
H234 H 0.14593 0.31187 0.04258 0.0
H235 H 0.22938 0.27292 0.16302 0.0
H236 H 0.14521 0.31752 0.13314 0.0
H237 H 0.1272 0.32427 0.12302 0.0
H238 H 0.09135 0.27449 0.11691 0.0
H239 H 0.10956 0.26781 0.12741 0.0
H240 H 0.16516 0.31581 0.1093 0.0
H241 H 0.16052 0.31886 0.08164 0.0
H242 H 0.12414 0.26922 0.07481 0.0
H243 H 0.12901 0.26632 0.10247 0.0
H244 H 0.19015 0.31644 0.12968 0.0
H245 H 0.20979 0.32438 0.11063 0.0
H246 H 0.18288 0.27784 0.08477 0.0
H247 H 0.16317 0.26993 0.10408 0.0
H248 H 0.19141 0.31013 0.16337 0.0
H249 H 0.21414 0.30975 0.17163 0.0
H250 H 0.19409 0.26317 0.14625 0.0
H251 H 0.17135 0.26363 0.13823 0.0
H252 H 0.16424 0.31069 0.17918 0.0
H253 H 0.17368 0.31368 0.20669 0.0
H254 H 0.16733 0.26717 0.20009 0.0
H255 H 0.15699 0.26393 0.17268 0.0
H256 H 0.13985 0.31151 0.16266 0.0
H257 H 0.12487 0.31235 0.184 0.0
H258 H 0.10947 0.26381 0.1915 0.0
H259 H 0.12371 0.26277 0.16923 0.0
O260 O 0.14761 0.31039 0.05345 0.0
O261 O 0.12899 0.28482 0.05058 0.0
O262 O 0.2303 0.29731 0.17284 0.0
O263 O 0.22052 0.27338 0.15993 0.0
C264 C 0.14021 0.28853 0.13594 0.0
C265 C 0.15021 0.28898 0.12462 0.0
C266 C 0.16319 0.28858 0.12942 0.0
C267 C 0.16581 0.28697 0.14543 0.0
C268 C 0.15567 0.28625 0.15679 0.0
C269 C 0.1428 0.28697 0.15201 0.0
C270 C 0.1286 0.29222 0.13121 0.0
C271 C 0.13338 0.30809 0.12993 0.0
C272 C 0.1231 0.31192 0.12418 0.0
C273 C 0.10787 0.2999 0.1193 0.0
C274 C 0.10303 0.28396 0.12064 0.0
C275 C 0.11334 0.28014 0.12668 0.0
C276 C 0.1475 0.29081 0.1078 0.0
C277 C 0.15627 0.30559 0.10176 0.0
C278 C 0.15356 0.30731 0.08598 0.0
C279 C 0.14197 0.29427 0.076 0.0
C280 C 0.13317 0.27949 0.08216 0.0
C281 C 0.13592 0.27779 0.09794 0.0
C282 C 0.17533 0.2926 0.11828 0.0
C283 C 0.18857 0.30791 0.11999 0.0
C284 C 0.19967 0.31247 0.10902 0.0
C285 C 0.19777 0.30177 0.09616 0.0
C286 C 0.18463 0.28629 0.09462 0.0
C287 C 0.17341 0.28176 0.10558 0.0
C288 C 0.17968 0.28683 0.15035 0.0
C289 C 0.19191 0.29981 0.1597 0.0
C290 C 0.2049 0.29959 0.16435 0.0
C291 C 0.20591 0.2864 0.15963 0.0
C292 C 0.19367 0.27349 0.15012 0.0
C293 C 0.18067 0.27372 0.14552 0.0
C294 C 0.15982 0.28705 0.17394 0.0
C295 C 0.16447 0.30096 0.18379 0.0
C296 C 0.17009 0.30273 0.19945 0.0
C297 C 0.17148 0.29076 0.20554 0.0
C298 C 0.16631 0.27657 0.19582 0.0
C299 C 0.16048 0.27473 0.18014 0.0
C300 C 0.13261 0.28697 0.16412 0.0
C301 C 0.1328 0.30087 0.1685 0.0
C302 C 0.12447 0.30142 0.18097 0.0
C303 C 0.11606 0.28819 0.18962 0.0
C304 C 0.11565 0.27415 0.18499 0.0
C305 C 0.12383 0.27355 0.17232 0.0
C306 C 0.13909 0.29614 0.05925 0.0
C307 C 0.21967 0.28609 0.16456 0.0
H308 H 0.6984 0.84424 0.05834 0.0
H309 H 0.73918 0.97016 0.19329 0.0
H310 H 0.68873 0.8357 0.14323 0.0
H311 H 0.68029 0.80898 0.13194 0.0
H312 H 0.72491 0.8173 0.14542 0.0
H313 H 0.73333 0.84431 0.15679 0.0
H314 H 0.6929 0.85948 0.12484 0.0
H315 H 0.6909 0.85228 0.09627 0.0
H316 H 0.73677 0.86106 0.10014 0.0
H317 H 0.73868 0.86842 0.1287 0.0
H318 H 0.6925 0.88299 0.14917 0.0
H319 H 0.68533 0.89576 0.13031 0.0
H320 H 0.72957 0.91572 0.11082 0.0
H321 H 0.73675 0.9028 0.13 0.0
H322 H 0.69896 0.89092 0.18337 0.0
H323 H 0.70102 0.91563 0.19326 0.0
H324 H 0.74641 0.94249 0.17622 0.0
H325 H 0.74426 0.91766 0.16656 0.0
H326 H 0.696 0.86157 0.19732 0.0
H327 H 0.69359 0.86948 0.22445 0.0
H328 H 0.74041 0.90963 0.22675 0.0
H329 H 0.74292 0.90116 0.1997 0.0
H330 H 0.69234 0.83405 0.17759 0.0
H331 H 0.68907 0.81549 0.19672 0.0
H332 H 0.73637 0.84724 0.21489 0.0
H333 H 0.73973 0.86541 0.19504 0.0
O334 O 0.69947 0.84723 0.06965 0.0
O335 O 0.72309 0.85188 0.07229 0.0
O336 O 0.71473 0.94584 0.19815 0.0
O337 O 0.73807 0.96021 0.18953 0.0
C338 C 0.71651 0.85834 0.15689 0.0
C339 C 0.71727 0.86895 0.14618 0.0
C340 C 0.71861 0.88324 0.15199 0.0
C341 C 0.72034 0.88751 0.16851 0.0
C342 C 0.72008 0.87715 0.17929 0.0
C343 C 0.71803 0.86246 0.17347 0.0
C344 C 0.7117 0.842 0.1506 0.0
C345 C 0.69673 0.83181 0.14365 0.0
C346 C 0.69195 0.81657 0.13718 0.0
C347 C 0.70202 0.81113 0.13759 0.0
C348 C 0.71693 0.8212 0.14494 0.0
C349 C 0.72176 0.83659 0.15138 0.0
C350 C 0.71602 0.86469 0.12878 0.0
C351 C 0.70257 0.86002 0.11946 0.0
C352 C 0.70143 0.85582 0.10316 0.0
C353 C 0.7137 0.85614 0.0959 0.0
C354 C 0.72713 0.86074 0.10534 0.0
C355 C 0.72826 0.86495 0.12164 0.0
C356 C 0.71517 0.89207 0.141 0.0
C357 C 0.70071 0.89023 0.14093 0.0
C358 C 0.69657 0.89737 0.13003 0.0
C359 C 0.70682 0.90654 0.11897 0.0
C360 C 0.72146 0.90868 0.11922 0.0
C361 C 0.72558 0.90137 0.13013 0.0
C362 C 0.72154 0.90252 0.17444 0.0
C363 C 0.70938 0.90215 0.18191 0.0
C364 C 0.71057 0.91628 0.18749 0.0
C365 C 0.72391 0.93105 0.18557 0.0
C366 C 0.736 0.93134 0.17793 0.0
C367 C 0.73481 0.91719 0.17239 0.0
C368 C 0.71966 0.88073 0.19655 0.0
C369 C 0.7059 0.87178 0.20384 0.0
C370 C 0.70448 0.87646 0.21927 0.0
C371 C 0.71674 0.89032 0.22767 0.0
C372 C 0.73079 0.89884 0.22064 0.0
C373 C 0.73223 0.89406 0.20519 0.0
C374 C 0.71633 0.85097 0.18476 0.0
C375 C 0.70209 0.83684 0.18547 0.0
C376 C 0.70019 0.82637 0.19659 0.0
C377 C 0.71243 0.82992 0.20743 0.0
C378 C 0.72676 0.84405 0.2066 0.0
C379 C 0.72868 0.85448 0.19534 0.0
C380 C 0.71243 0.85163 0.07858 0.0
C381 C 0.72523 0.9461 0.19148 0.0
H382 H 0.14483 0.85347 0.05359 0.0
H383 H 0.26899 0.96612 0.17971 0.0
H384 H 0.13312 0.85941 0.13607 0.0
H385 H 0.11272 0.83269 0.12484 0.0
H386 H 0.13552 0.81285 0.14841 0.0
H387 H 0.15588 0.83951 0.15939 0.0
H388 H 0.1616 0.88748 0.11717 0.0
H389 H 0.15401 0.87677 0.08928 0.0
H390 H 0.16 0.8383 0.09882 0.0
H391 H 0.16778 0.84926 0.1266 0.0
H392 H 0.19511 0.91873 0.13336 0.0
H393 H 0.21516 0.93095 0.11458 0.0
H394 H 0.21771 0.88905 0.1108 0.0
H395 H 0.198 0.87711 0.12967 0.0
H396 H 0.19235 0.92451 0.17262 0.0
H397 H 0.21669 0.94961 0.18007 0.0
H398 H 0.24139 0.92705 0.16684 0.0
H399 H 0.21699 0.902 0.15964 0.0
H400 H 0.16583 0.8982 0.19561 0.0
H401 H 0.1752 0.90753 0.22371 0.0
H402 H 0.21238 0.90023 0.21643 0.0
H403 H 0.20266 0.89028 0.18876 0.0
H404 H 0.13585 0.86852 0.17381 0.0
H405 H 0.11854 0.85315 0.1938 0.0
H406 H 0.15199 0.84322 0.21154 0.0
H407 H 0.16921 0.85867 0.19159 0.0
O408 O 0.14792 0.85753 0.06465 0.0
O409 O 0.1511 0.83795 0.0702 0.0
O410 O 0.24597 0.96737 0.18361 0.0
O411 O 0.25921 0.95636 0.17688 0.0
C412 C 0.15975 0.86745 0.1528 0.0
C413 C 0.16957 0.87561 0.14087 0.0
C414 C 0.18383 0.88986 0.14503 0.0
C415 C 0.18806 0.89627 0.16109 0.0
C416 C 0.17827 0.88807 0.17307 0.0
C417 C 0.16405 0.8737 0.16889 0.0
C418 C 0.14596 0.85136 0.14852 0.0
C419 C 0.13348 0.84923 0.13909 0.0
C420 C 0.12187 0.83401 0.13271 0.0
C421 C 0.12267 0.82076 0.13562 0.0
C422 C 0.13474 0.82289 0.14581 0.0
C423 C 0.14627 0.83806 0.15222 0.0
C424 C 0.16509 0.86906 0.12392 0.0
C425 C 0.16128 0.87675 0.11319 0.0
C426 C 0.15693 0.8706 0.09728 0.0
C427 C 0.15634 0.85665 0.09182 0.0
C428 C 0.16028 0.84904 0.10263 0.0
C429 C 0.16467 0.85523 0.11852 0.0
C430 C 0.19506 0.89701 0.1328 0.0
C431 C 0.19994 0.91218 0.12836 0.0
C432 C 0.21138 0.91913 0.11769 0.0
C433 C 0.21792 0.9109 0.11119 0.0
C434 C 0.2127 0.89556 0.11541 0.0
C435 C 0.20146 0.88873 0.12618 0.0
C436 C 0.20291 0.91149 0.16546 0.0
C437 C 0.20304 0.92503 0.17134 0.0
C438 C 0.21695 0.93934 0.17558 0.0
C439 C 0.23099 0.94035 0.17401 0.0
C440 C 0.23079 0.92671 0.16816 0.0
C441 C 0.21688 0.9124 0.16397 0.0
C442 C 0.18368 0.89376 0.19008 0.0
C443 C 0.17594 0.89853 0.20014 0.0
C444 C 0.18127 0.90384 0.21611 0.0
C445 C 0.19458 0.90473 0.22208 0.0
C446 C 0.20222 0.89986 0.21201 0.0
C447 C 0.19672 0.89424 0.19623 0.0
C448 C 0.15381 0.86479 0.18134 0.0
C449 C 0.13944 0.86307 0.18208 0.0
C450 C 0.12956 0.85425 0.19345 0.0
C451 C 0.13391 0.84701 0.20428 0.0
C452 C 0.1484 0.84888 0.20355 0.0
C453 C 0.15824 0.85764 0.19215 0.0
C454 C 0.15164 0.8501 0.07493 0.0
C455 C 0.2458 0.95552 0.17847 0.0
H456 H 0.2911 0.16317 0.99916 0.0
H457 H 0.30456 0.05373 0.87843 0.0
H458 H 0.27308 0.15617 0.91497 0.0
H459 H 0.27753 0.1826 0.9225 0.0
H460 H 0.32125 0.20423 0.90172 0.0
H461 H 0.317 0.17799 0.89478 0.0
H462 H 0.27351 0.1291 0.93558 0.0
H463 H 0.27667 0.13978 0.9633 0.0
H464 H 0.32207 0.17898 0.95554 0.0
H465 H 0.31883 0.16807 0.92791 0.0
H466 H 0.27444 0.09868 0.92094 0.0
H467 H 0.28129 0.0858 0.94028 0.0
H468 H 0.32789 0.12656 0.94514 0.0
H469 H 0.32086 0.13933 0.9261 0.0
H470 H 0.26758 0.09198 0.88179 0.0
H471 H 0.26726 0.06751 0.87542 0.0
H472 H 0.31572 0.09252 0.88998 0.0
H473 H 0.31591 0.11693 0.89612 0.0
H474 H 0.26682 0.11374 0.85804 0.0
H475 H 0.26771 0.10474 0.83049 0.0
H476 H 0.3162 0.12371 0.83938 0.0
H477 H 0.31519 0.13266 0.86667 0.0
H478 H 0.26679 0.14492 0.8736 0.0
H479 H 0.26701 0.16221 0.85406 0.0
H480 H 0.31464 0.17969 0.84758 0.0
H481 H 0.31425 0.16208 0.8667 0.0
O482 O 0.29011 0.15914 0.98818 0.0
O483 O 0.31335 0.17908 0.98355 0.0
O484 O 0.2795 0.05097 0.87332 0.0
O485 O 0.30438 0.06324 0.88078 0.0
C486 C 0.29262 0.14942 0.90047 0.0
C487 C 0.29386 0.14132 0.91292 0.0
C488 C 0.29364 0.12718 0.90935 0.0
C489 C 0.29181 0.12094 0.89337 0.0
C490 C 0.29062 0.12908 0.88096 0.0
C491 C 0.29094 0.14325 0.8845 0.0
C492 C 0.29462 0.16518 0.90413 0.0
C493 C 0.28354 0.16664 0.91196 0.0
C494 C 0.28609 0.18167 0.91625 0.0
C495 C 0.29966 0.19539 0.91254 0.0
C496 C 0.31057 0.19383 0.90445 0.0
C497 C 0.30815 0.17887 0.90044 0.0
C498 C 0.29588 0.14788 0.92973 0.0
C499 C 0.28413 0.13998 0.93991 0.0
C500 C 0.28596 0.14612 0.95573 0.0
C501 C 0.29961 0.16026 0.96163 0.0
C502 C 0.3114 0.16809 0.95137 0.0
C503 C 0.30956 0.16192 0.93557 0.0
C504 C 0.29715 0.11993 0.92218 0.0
C505 C 0.28605 0.10487 0.9264 0.0
C506 C 0.29001 0.09753 0.93736 0.0
C507 C 0.30515 0.10515 0.94424 0.0
C508 C 0.31608 0.12047 0.94031 0.0
C509 C 0.3121 0.12777 0.92938 0.0
C510 C 0.29173 0.10616 0.88952 0.0
C511 C 0.27811 0.09213 0.88357 0.0
C512 C 0.27796 0.07819 0.87996 0.0
C513 C 0.29147 0.07805 0.88224 0.0
C514 C 0.30512 0.09219 0.88813 0.0
C515 C 0.30525 0.10614 0.89169 0.0
C516 C 0.29094 0.12378 0.86427 0.0
C517 C 0.2776 0.11596 0.85394 0.0
C518 C 0.27813 0.11081 0.8383 0.0
C519 C 0.29204 0.11361 0.83279 0.0
C520 C 0.30537 0.1216 0.8432 0.0
C521 C 0.30481 0.12661 0.85881 0.0
C522 C 0.2905 0.15227 0.8715 0.0
C523 C 0.27716 0.15225 0.8677 0.0
C524 C 0.2773 0.16209 0.85662 0.0
C525 C 0.29087 0.17225 0.84948 0.0
C526 C 0.30409 0.17196 0.85302 0.0
C527 C 0.30385 0.16189 0.86383 0.0
C528 C 0.3015 0.16677 0.97843 0.0
C529 C 0.29136 0.06325 0.87849 0.0
H530 H 0.83228 0.14744 0.00977 0.0
H531 H 0.74694 0.0254 0.87026 0.0
H532 H 0.84009 0.1586 0.92654 0.0
H533 H 0.86089 0.18446 0.93828 0.0
H534 H 0.89377 0.17203 0.92523 0.0
H535 H 0.87259 0.1456 0.9144 0.0
H536 H 0.81552 0.13439 0.9414 0.0
H537 H 0.81923 0.14092 0.97021 0.0
H538 H 0.85488 0.13043 0.97203 0.0
H539 H 0.8509 0.12372 0.94321 0.0
H540 H 0.79081 0.11047 0.91603 0.0
H541 H 0.77091 0.09923 0.93468 0.0
H542 H 0.79413 0.07932 0.95743 0.0
H543 H 0.81433 0.09112 0.93882 0.0
H544 H 0.79188 0.10447 0.88089 0.0
H545 H 0.7683 0.08052 0.86914 0.0
H546 H 0.78199 0.05156 0.89101 0.0
H547 H 0.80561 0.07562 0.90254 0.0
H548 H 0.82121 0.13259 0.8687 0.0
H549 H 0.81457 0.12593 0.84015 0.0
H550 H 0.81819 0.08491 0.84252 0.0
H551 H 0.82477 0.09168 0.87124 0.0
H552 H 0.84772 0.1602 0.89063 0.0
H553 H 0.86663 0.17769 0.8729 0.0
H554 H 0.87649 0.14159 0.85983 0.0
H555 H 0.85781 0.12428 0.87793 0.0
O556 O 0.83098 0.14477 0.99839 0.0
O557 O 0.8493 0.13935 0.99867 0.0
O558 O 0.74968 0.05048 0.86372 0.0
O559 O 0.75617 0.03506 0.87475 0.0
C560 C 0.8418 0.13441 0.91286 0.0
C561 C 0.8305 0.12428 0.92275 0.0
C562 C 0.8169 0.11042 0.916 0.0
C563 C 0.81489 0.10629 0.89943 0.0
C564 C 0.82636 0.11622 0.88954 0.0
C565 C 0.83982 0.13031 0.89624 0.0
C566 C 0.85481 0.15015 0.91979 0.0
C567 C 0.85177 0.16138 0.92642 0.0
C568 C 0.86373 0.17627 0.93291 0.0
C569 C 0.87907 0.18044 0.9326 0.0
C570 C 0.8821 0.16917 0.92585 0.0
C571 C 0.87004 0.15411 0.91955 0.0
C572 C 0.83282 0.12841 0.94025 0.0
C573 C 0.82403 0.13338 0.94806 0.0
C574 C 0.82622 0.13716 0.96451 0.0
C575 C 0.83732 0.13615 0.97344 0.0
C576 C 0.84621 0.1313 0.96552 0.0
C577 C 0.84397 0.12747 0.94907 0.0
C578 C 0.80394 0.10154 0.92604 0.0
C579 C 0.79143 0.10341 0.92484 0.0
C580 C 0.78005 0.09694 0.93553 0.0
C581 C 0.7809 0.08835 0.9476 0.0
C582 C 0.79323 0.08604 0.94842 0.0
C583 C 0.80469 0.09262 0.93773 0.0
C584 C 0.8005 0.09176 0.89244 0.0
C585 C 0.7898 0.09294 0.88304 0.0
C586 C 0.77632 0.07924 0.87639 0.0
C587 C 0.77327 0.06411 0.8791 0.0
C588 C 0.78399 0.06301 0.88865 0.0
C589 C 0.79748 0.07672 0.89527 0.0
C590 C 0.82352 0.11265 0.87201 0.0
C591 C 0.82082 0.12232 0.863 0.0
C592 C 0.81707 0.11851 0.84668 0.0
C593 C 0.81589 0.1049 0.83905 0.0
C594 C 0.81889 0.09539 0.84808 0.0
C595 C 0.8227 0.09926 0.86444 0.0
C596 C 0.85152 0.14104 0.88571 0.0
C597 C 0.85414 0.15617 0.88413 0.0
C598 C 0.8649 0.16611 0.874 0.0
C599 C 0.87304 0.16099 0.86505 0.0
C600 C 0.87032 0.14579 0.86655 0.0
C601 C 0.85971 0.13593 0.87688 0.0
C602 C 0.83961 0.14017 0.99092 0.0
C603 C 0.75899 0.04952 0.87204 0.0
H604 H 0.87278 0.7205 0.02716 0.0
H605 H 0.75501 0.69749 0.89919 0.0
H606 H 0.88701 0.73538 0.94723 0.0
H607 H 0.90565 0.72983 0.9586 0.0
H608 H 0.8828 0.68459 0.93018 0.0
H609 H 0.864 0.68992 0.91935 0.0
H610 H 0.85914 0.73507 0.96539 0.0
H611 H 0.86554 0.73326 0.99292 0.0
H612 H 0.85713 0.68658 0.97944 0.0
H613 H 0.85054 0.68846 0.95203 0.0
H614 H 0.82771 0.7316 0.94893 0.0
H615 H 0.80669 0.72373 0.96646 0.0
H616 H 0.79988 0.67708 0.96597 0.0
H617 H 0.82076 0.68502 0.94853 0.0
H618 H 0.8314 0.73858 0.91146 0.0
H619 H 0.80783 0.73768 0.90393 0.0
H620 H 0.78116 0.68764 0.91058 0.0
H621 H 0.80482 0.68868 0.91792 0.0
H622 H 0.85516 0.74034 0.88947 0.0
H623 H 0.84764 0.73895 0.86126 0.0
H624 H 0.81561 0.68838 0.86101 0.0
H625 H 0.82315 0.68989 0.88905 0.0
H626 H 0.88436 0.74111 0.90396 0.0
H627 H 0.89948 0.74148 0.88177 0.0
H628 H 0.86717 0.69122 0.86993 0.0
H629 H 0.85215 0.691 0.89193 0.0
O630 O 0.87007 0.72091 0.01625 0.0
O631 O 0.86572 0.69701 0.00868 0.0
O632 O 0.77875 0.72388 0.89868 0.0
O633 O 0.76451 0.69817 0.90206 0.0
C634 C 0.86107 0.71472 0.92816 0.0
C635 C 0.85104 0.71337 0.93995 0.0
C636 C 0.83745 0.7129 0.93576 0.0
C637 C 0.83413 0.71439 0.9199 0.0
C638 C 0.84415 0.71578 0.90816 0.0
C639 C 0.85755 0.71584 0.91225 0.0
C640 C 0.87423 0.71313 0.93234 0.0
C641 C 0.88629 0.72446 0.94318 0.0
C642 C 0.89684 0.72124 0.94972 0.0
C643 C 0.89562 0.70678 0.94526 0.0
C644 C 0.88413 0.69592 0.93366 0.0
C645 C 0.87344 0.69901 0.92736 0.0
C646 C 0.85452 0.71197 0.95671 0.0
C647 C 0.85863 0.72445 0.96844 0.0
C648 C 0.86231 0.72339 0.98413 0.0
C649 C 0.86191 0.7098 0.98837 0.0
C650 C 0.8576 0.69723 0.97658 0.0
C651 C 0.85388 0.69829 0.96091 0.0
C652 C 0.82578 0.7089 0.94753 0.0
C653 C 0.82177 0.71976 0.95279 0.0
C654 C 0.80975 0.71523 0.96273 0.0
C655 C 0.80165 0.69979 0.96761 0.0
C656 C 0.80605 0.68913 0.96265 0.0
C657 C 0.81795 0.69363 0.95266 0.0
C658 C 0.81979 0.71373 0.91533 0.0
C659 C 0.82045 0.72744 0.91126 0.0
C660 C 0.80698 0.72689 0.90698 0.0
C661 C 0.7926 0.71259 0.9067 0.0
C662 C 0.79202 0.69885 0.91072 0.0
C663 C 0.80551 0.69942 0.91495 0.0
C664 C 0.83964 0.71522 0.89123 0.0
C665 C 0.84651 0.72901 0.88327 0.0
C666 C 0.8422 0.7282 0.86723 0.0
C667 C 0.83112 0.71354 0.85895 0.0
C668 C 0.82433 0.69979 0.86703 0.0
C669 C 0.82852 0.70064 0.88304 0.0
C670 C 0.86726 0.716 0.89957 0.0
C671 C 0.88067 0.73019 0.89663 0.0
C672 C 0.88921 0.73039 0.88395 0.0
C673 C 0.88452 0.71636 0.87421 0.0
C674 C 0.87117 0.70215 0.87737 0.0
C675 C 0.86257 0.70201 0.88988 0.0
C676 C 0.86599 0.70879 0.00501 0.0
C677 C 0.77825 0.71195 0.90223 0.0
H678 H 0.80783 0.64027 0.36914 0.0
H679 H 0.89066 0.60374 0.49238 0.0
H680 H 0.81154 0.65332 0.45702 0.0
H681 H 0.79354 0.66062 0.44839 0.0
H682 H 0.75557 0.6132 0.45398 0.0
H683 H 0.77386 0.60591 0.46257 0.0
H684 H 0.82985 0.64912 0.43575 0.0
H685 H 0.82421 0.64999 0.4077 0.0
H686 H 0.78573 0.60138 0.40555 0.0
H687 H 0.79162 0.60064 0.43359 0.0
H688 H 0.85395 0.65126 0.45767 0.0
H689 H 0.87359 0.65859 0.43872 0.0
H690 H 0.84741 0.61105 0.41498 0.0
H691 H 0.82754 0.60376 0.43409 0.0
H692 H 0.85706 0.64532 0.49092 0.0
H693 H 0.87906 0.6436 0.49899 0.0
H694 H 0.85563 0.59552 0.47645 0.0
H695 H 0.83364 0.59736 0.4686 0.0
H696 H 0.83219 0.64926 0.50666 0.0
H697 H 0.84229 0.65344 0.53412 0.0
H698 H 0.83158 0.60515 0.53102 0.0
H699 H 0.82075 0.60084 0.50361 0.0
H700 H 0.80804 0.65089 0.48988 0.0
H701 H 0.79569 0.65544 0.51196 0.0
H702 H 0.7775 0.60743 0.52374 0.0
H703 H 0.78932 0.60274 0.50102 0.0
O704 O 0.80989 0.63965 0.3802 0.0
O705 O 0.7902 0.61467 0.37974 0.0
O706 O 0.89366 0.62949 0.50078 0.0
O707 O 0.88211 0.60475 0.48934 0.0
C708 C 0.80529 0.62499 0.46513 0.0
C709 C 0.8146 0.62417 0.45365 0.0
C710 C 0.82738 0.62339 0.45842 0.0
C711 C 0.83026 0.62233 0.47454 0.0
C712 C 0.82086 0.62297 0.48606 0.0
C713 C 0.80836 0.62434 0.48135 0.0
C714 C 0.79398 0.62909 0.46036 0.0
C715 C 0.79933 0.6445 0.4564 0.0
C716 C 0.78904 0.64869 0.45161 0.0
C717 C 0.77315 0.6375 0.45061 0.0
C718 C 0.76777 0.62202 0.4546 0.0
C719 C 0.77814 0.61786 0.45954 0.0
C720 C 0.81126 0.62475 0.43661 0.0
C721 C 0.8203 0.63863 0.42915 0.0
C722 C 0.81701 0.63911 0.41315 0.0
C723 C 0.80454 0.62573 0.40436 0.0
C724 C 0.79544 0.61188 0.41195 0.0
C725 C 0.79877 0.61141 0.42795 0.0
C726 C 0.8394 0.62699 0.44724 0.0
C727 C 0.85249 0.64239 0.44844 0.0
C728 C 0.8636 0.64659 0.43755 0.0
C729 C 0.8619 0.63542 0.42532 0.0
C730 C 0.84894 0.61985 0.42431 0.0
C731 C 0.83764 0.61568 0.43516 0.0
C732 C 0.8437 0.62139 0.47935 0.0
C733 C 0.85667 0.6344 0.48784 0.0
C734 C 0.86923 0.6334 0.49239 0.0
C735 C 0.86908 0.6194 0.48841 0.0
C736 C 0.85611 0.60646 0.47974 0.0
C737 C 0.84354 0.60747 0.47524 0.0
C738 C 0.82561 0.62471 0.50318 0.0
C739 C 0.83166 0.63945 0.51203 0.0
C740 C 0.83763 0.64188 0.52765 0.0
C741 C 0.83791 0.62968 0.53471 0.0
C742 C 0.83142 0.61474 0.52598 0.0
C743 C 0.8253 0.61228 0.51032 0.0
C744 C 0.79939 0.62641 0.49367 0.0
C745 C 0.80098 0.64119 0.4969 0.0
C746 C 0.79413 0.64385 0.50971 0.0
C747 C 0.78573 0.63185 0.51973 0.0
C748 C 0.78376 0.61687 0.51618 0.0
C749 C 0.79054 0.61418 0.50324 0.0
C750 C 0.80106 0.62629 0.38737 0.0
C751 C 0.88238 0.61825 0.49324 0.0
H752 H 0.36079 0.18148 0.39053 0.0
H753 H 0.40174 0.30397 0.52797 0.0
H754 H 0.35671 0.17055 0.47346 0.0
H755 H 0.35037 0.14413 0.46362 0.0
H756 H 0.39596 0.15652 0.47957 0.0
H757 H 0.40245 0.18339 0.48884 0.0
H758 H 0.35671 0.19391 0.45819 0.0
H759 H 0.35398 0.18754 0.42941 0.0
H760 H 0.4012 0.20026 0.43045 0.0
H761 H 0.40383 0.20678 0.45924 0.0
H762 H 0.35456 0.21366 0.48657 0.0
H763 H 0.34327 0.22586 0.47235 0.0
H764 H 0.38427 0.25125 0.44714 0.0
H765 H 0.3957 0.23887 0.46171 0.0
H766 H 0.36432 0.22484 0.51845 0.0
H767 H 0.36576 0.249 0.52919 0.0
H768 H 0.40951 0.27738 0.50919 0.0
H769 H 0.40801 0.2531 0.4987 0.0
H770 H 0.36301 0.1955 0.52995 0.0
H771 H 0.3604 0.20279 0.5572 0.0
H772 H 0.40619 0.24468 0.55923 0.0
H773 H 0.40899 0.23679 0.53206 0.0
H774 H 0.35982 0.16935 0.50801 0.0
H775 H 0.35645 0.15039 0.52664 0.0
H776 H 0.40326 0.18244 0.54615 0.0
H777 H 0.40676 0.2011 0.52676 0.0
O778 O 0.36215 0.18417 0.40192 0.0
O779 O 0.38648 0.19083 0.4031 0.0
O780 O 0.37843 0.2791 0.53406 0.0
O781 O 0.40091 0.29422 0.52393 0.0
C782 C 0.38331 0.19466 0.48841 0.0
C783 C 0.38228 0.20482 0.47828 0.0
C784 C 0.38246 0.21828 0.48488 0.0
C785 C 0.38537 0.22259 0.50142 0.0
C786 C 0.38644 0.21251 0.51161 0.0
C787 C 0.38506 0.19833 0.50511 0.0
C788 C 0.38011 0.17898 0.48165 0.0
C789 C 0.36546 0.1677 0.47451 0.0
C790 C 0.36178 0.15251 0.46914 0.0
C791 C 0.37262 0.14816 0.47096 0.0
C792 C 0.38741 0.15956 0.47789 0.0
C793 C 0.39112 0.17486 0.48323 0.0
C794 C 0.38054 0.20104 0.46077 0.0
C795 C 0.3665 0.1955 0.45216 0.0
C796 C 0.36495 0.19178 0.43572 0.0
C797 C 0.37738 0.19343 0.42761 0.0
C798 C 0.3914 0.19889 0.43632 0.0
C799 C 0.39295 0.20263 0.45275 0.0
C800 C 0.37601 0.22558 0.47533 0.0
C801 C 0.36116 0.2219 0.47803 0.0
C802 C 0.35475 0.2289 0.46993 0.0
C803 C 0.363 0.23968 0.45885 0.0
C804 C 0.37772 0.243 0.45569 0.0
C805 C 0.38425 0.23602 0.46397 0.0
C806 C 0.38619 0.23724 0.50803 0.0
C807 C 0.37428 0.23629 0.51656 0.0
C808 C 0.3751 0.25011 0.52261 0.0
C809 C 0.38779 0.26513 0.5201 0.0
C810 C 0.39961 0.26601 0.51139 0.0
C811 C 0.39879 0.25217 0.50538 0.0
C812 C 0.38623 0.21555 0.52903 0.0
C813 C 0.37271 0.20592 0.53645 0.0
C814 C 0.37115 0.21025 0.55196 0.0
C815 C 0.38299 0.22446 0.56028 0.0
C816 C 0.39689 0.23362 0.55317 0.0
C817 C 0.39851 0.22916 0.53765 0.0
C818 C 0.3836 0.18651 0.51586 0.0
C819 C 0.36947 0.17212 0.51603 0.0
C820 C 0.3675 0.16141 0.52687 0.0
C821 C 0.37954 0.16497 0.53801 0.0
C822 C 0.3938 0.17928 0.53764 0.0
C823 C 0.39581 0.18998 0.52664 0.0
C824 C 0.37568 0.18942 0.41015 0.0
C825 C 0.3887 0.27986 0.52647 0.0
H826 H 0.81172 0.18914 0.37887 0.0
H827 H 0.9396 0.29197 0.50514 0.0
H828 H 0.80199 0.19112 0.46158 0.0
H829 H 0.77967 0.16491 0.45173 0.0
H830 H 0.80052 0.14247 0.47396 0.0
H831 H 0.82289 0.16854 0.48324 0.0
H832 H 0.83077 0.22015 0.44375 0.0
H833 H 0.82246 0.21093 0.41565 0.0
H834 H 0.82558 0.17005 0.42168 0.0
H835 H 0.83408 0.1795 0.4497 0.0
H836 H 0.86502 0.2503 0.46163 0.0
H837 H 0.88555 0.26374 0.44357 0.0
H838 H 0.88473 0.22038 0.43298 0.0
H839 H 0.86484 0.20726 0.4515 0.0
H840 H 0.8631 0.25396 0.49993 0.0
H841 H 0.88817 0.27806 0.50773 0.0
H842 H 0.91045 0.25383 0.49117 0.0
H843 H 0.88531 0.22976 0.48361 0.0
H844 H 0.83679 0.22844 0.52136 0.0
H845 H 0.84649 0.23681 0.54939 0.0
H846 H 0.88032 0.22457 0.54119 0.0
H847 H 0.87056 0.21623 0.51336 0.0
H848 H 0.8063 0.19922 0.50301 0.0
H849 H 0.78957 0.18183 0.52246 0.0
H850 H 0.82159 0.16742 0.53173 0.0
H851 H 0.83831 0.18494 0.51251 0.0
O852 O 0.81507 0.19259 0.39 0.0
O853 O 0.81677 0.17173 0.39375 0.0
O854 O 0.91752 0.29447 0.51069 0.0
O855 O 0.92954 0.28259 0.50222 0.0
C856 C 0.8283 0.19743 0.47776 0.0
C857 C 0.83788 0.20611 0.46586 0.0
C858 C 0.85241 0.22003 0.47019 0.0
C859 C 0.85712 0.22558 0.48642 0.0
C860 C 0.84748 0.21698 0.4983 0.0
C861 C 0.83311 0.20293 0.49396 0.0
C862 C 0.814 0.18174 0.47326 0.0
C863 C 0.80162 0.18053 0.46446 0.0
C864 C 0.78894 0.1656 0.45883 0.0
C865 C 0.78837 0.1517 0.46218 0.0
C866 C 0.80055 0.15298 0.47144 0.0
C867 C 0.81331 0.16786 0.47679 0.0
C868 C 0.83289 0.20043 0.44879 0.0
C869 C 0.82966 0.20922 0.43897 0.0
C870 C 0.8249 0.20391 0.42293 0.0
C871 C 0.82331 0.18972 0.41642 0.0
C872 C 0.82665 0.18099 0.42631 0.0
C873 C 0.83144 0.18634 0.44233 0.0
C874 C 0.8634 0.22778 0.45786 0.0
C875 C 0.86919 0.24369 0.4553 0.0
C876 C 0.88087 0.25132 0.44502 0.0
C877 C 0.88661 0.24303 0.43689 0.0
C878 C 0.88034 0.22695 0.43896 0.0
C879 C 0.86896 0.21945 0.44948 0.0
C880 C 0.8724 0.24017 0.4911 0.0
C881 C 0.87341 0.25389 0.49802 0.0
C882 C 0.88774 0.26763 0.50245 0.0
C883 C 0.90132 0.26788 0.50003 0.0
C884 C 0.90023 0.25406 0.49316 0.0
C885 C 0.8859 0.24031 0.48879 0.0
C886 C 0.8531 0.22191 0.51532 0.0
C887 C 0.84627 0.22756 0.52568 0.0
C888 C 0.85178 0.23227 0.54165 0.0
C889 C 0.86425 0.23148 0.54744 0.0
C890 C 0.87089 0.2256 0.53702 0.0
C891 C 0.86532 0.22081 0.52114 0.0
C892 C 0.82348 0.19331 0.50641 0.0
C893 C 0.80974 0.19243 0.5094 0.0
C894 C 0.80026 0.18257 0.52048 0.0
C895 C 0.80431 0.17328 0.52847 0.0
C896 C 0.8182 0.17439 0.52561 0.0
C897 C 0.82776 0.18442 0.51475 0.0
C898 C 0.81819 0.18409 0.39939 0.0
C899 C 0.91657 0.28247 0.50466 0.0
H900 H 0.99726 0.51093 0.33637 0.0
H901 H 0.006 0.40522 0.20557 0.0
H902 H 0.97125 0.50301 0.25296 0.0
H903 H 0.97611 0.52895 0.26352 0.0
H904 H 0.01959 0.55225 0.24221 0.0
H905 H 0.01467 0.52636 0.23176 0.0
H906 H 0.97532 0.47699 0.2728 0.0
H907 H 0.98045 0.48756 0.30078 0.0
H908 H 0.02457 0.52719 0.29025 0.0
H909 H 0.01937 0.51638 0.26238 0.0
H910 H 0.97713 0.44701 0.25594 0.0
H911 H 0.98689 0.4348 0.27288 0.0
H912 H 0.03223 0.47738 0.27517 0.0
H913 H 0.02248 0.48925 0.25793 0.0
H914 H 0.96647 0.44009 0.2177 0.0
H915 H 0.96691 0.41637 0.20936 0.0
H916 H 0.01627 0.44339 0.21877 0.0
H917 H 0.01567 0.46704 0.22689 0.0
H918 H 0.96178 0.46144 0.19625 0.0
H919 H 0.95936 0.45046 0.16863 0.0
H920 H 0.00823 0.46985 0.17117 0.0
H921 H 0.01051 0.48087 0.19847 0.0
H922 H 0.9633 0.49397 0.21459 0.0
H923 H 0.96117 0.51048 0.19573 0.0
H924 H 0.00641 0.52529 0.18115 0.0
H925 H 0.00848 0.50896 0.20009 0.0
O926 O 0.99549 0.50693 0.32526 0.0
O927 O 0.01802 0.5271 0.31921 0.0
O928 O 0.98012 0.40107 0.20402 0.0
O929 O 0.00549 0.41441 0.20877 0.0
C930 C 0.99078 0.49737 0.23698 0.0
C931 C 0.99364 0.48955 0.2486 0.0
C932 C 0.99383 0.4758 0.24402 0.0
C933 C 0.99067 0.46959 0.22791 0.0
C934 C 0.98779 0.47741 0.21632 0.0
C935 C 0.98786 0.49131 0.22084 0.0
C936 C 0.99259 0.51288 0.24159 0.0
C937 C 0.98167 0.51375 0.25035 0.0
C938 C 0.98445 0.52852 0.25633 0.0
C939 C 0.99827 0.54254 0.25374 0.0
C940 C 0.00892 0.5416 0.24448 0.0
C941 C 0.00607 0.52688 0.23841 0.0
C942 C 0.9969 0.496 0.26556 0.0
C943 C 0.98608 0.48795 0.27659 0.0
C944 C 0.98904 0.49402 0.29254 0.0
C945 C 0.0029 0.50826 0.29775 0.0
C946 C 0.01376 0.51623 0.28664 0.0
C947 C 0.0108 0.51012 0.2707 0.0
C948 C 0.9991 0.469 0.25575 0.0
C949 C 0.98912 0.45373 0.26029 0.0
C950 C 0.9947 0.44682 0.27 0.0
C951 C 0.01035 0.45511 0.27527 0.0
C952 C 0.02017 0.47063 0.27112 0.0
C953 C 0.0146 0.47748 0.26142 0.0
C954 C 0.99102 0.45522 0.223 0.0
C955 C 0.97736 0.44084 0.21794 0.0
C956 C 0.97765 0.42732 0.2132 0.0
C957 C 0.99163 0.42798 0.21344 0.0
C958 C 0.00531 0.44246 0.21848 0.0
C959 C 0.005 0.45597 0.22317 0.0
C960 C 0.98631 0.47188 0.19929 0.0
C961 C 0.97194 0.46345 0.19069 0.0
C962 C 0.97058 0.45715 0.17501 0.0
C963 C 0.98361 0.45932 0.16772 0.0
C964 C 0.99802 0.46818 0.17632 0.0
C965 C -0.00066 0.47439 0.19195 0.0
C966 C 0.986 0.50023 0.20861 0.0
C967 C 0.97265 0.50067 0.20717 0.0
C968 C 0.97145 0.51004 0.1964 0.0
C969 C 0.98366 0.51922 0.18703 0.0
C970 C 0.99689 0.51849 0.18834 0.0
C971 C 0.99804 0.50907 0.19902 0.0
C972 C 0.00598 0.51471 0.31469 0.0
C973 C 0.992 0.41365 0.20845 0.0
H974 H 0.49412 0.48653 0.34483 0.0
H975 H 0.40984 0.36364 0.20458 0.0
H976 H 0.50248 0.4969 0.26075 0.0
H977 H 0.52309 0.52249 0.27352 0.0
H978 H 0.55575 0.50872 0.26481 0.0
H979 H 0.53484 0.48287 0.25203 0.0
H980 H 0.47788 0.4728 0.27636 0.0
H981 H 0.48139 0.47964 0.30512 0.0
H982 H 0.51629 0.46814 0.30799 0.0
H983 H 0.51252 0.46113 0.27922 0.0
H984 H 0.4533 0.4489 0.25069 0.0
H985 H 0.43275 0.43744 0.26876 0.0
H986 H 0.45523 0.41739 0.29255 0.0
H987 H 0.47583 0.42888 0.27424 0.0
H988 H 0.45437 0.44269 0.21629 0.0
H989 H 0.43092 0.41879 0.20424 0.0
H990 H 0.44475 0.38971 0.22561 0.0
H991 H 0.46824 0.41372 0.23743 0.0
H992 H 0.48364 0.47127 0.2051 0.0
H993 H 0.47581 0.46473 0.1768 0.0
H994 H 0.47973 0.42373 0.1773 0.0
H995 H 0.48738 0.43033 0.20586 0.0
H996 H 0.51038 0.49838 0.22656 0.0
H997 H 0.52959 0.51618 0.20927 0.0
H998 H 0.53968 0.48028 0.19604 0.0
H999 H 0.52065 0.46263 0.2137 0.0
O1000 O 0.49287 0.48369 0.33348 0.0
O1001 O 0.51077 0.47769 0.33431 0.0
O1002 O 0.41247 0.38876 0.1984 0.0
O1003 O 0.41902 0.37328 0.20918 0.0
C1004 C 0.50424 0.47233 0.24854 0.0
C1005 C 0.49276 0.46217 0.25826 0.0
C1006 C 0.47919 0.44842 0.25133 0.0
C1007 C 0.47739 0.44441 0.23476 0.0
C1008 C 0.489 0.45444 0.22503 0.0
C1009 C 0.50244 0.46842 0.23191 0.0
C1010 C 0.51715 0.48798 0.25568 0.0
C1011 C 0.51406 0.49936 0.26168 0.0
C1012 C 0.52583 0.51394 0.26899 0.0
C1013 C 0.54098 0.51749 0.27033 0.0
C1014 C 0.54417 0.50626 0.26392 0.0
C1015 C 0.53229 0.49154 0.25667 0.0
C1016 C 0.49482 0.46629 0.27575 0.0
C1017 C 0.48617 0.47162 0.28325 0.0
C1018 C 0.48825 0.47559 0.29967 0.0
C1019 C 0.4991 0.4744 0.30887 0.0
C1020 C 0.50782 0.46915 0.30127 0.0
C1021 C 0.50569 0.46514 0.28485 0.0
C1022 C 0.46599 0.43965 0.26113 0.0
C1023 C 0.45365 0.44179 0.25961 0.0
C1024 C 0.44203 0.4354 0.27004 0.0
C1025 C 0.44251 0.42669 0.28215 0.0
C1026 C 0.45459 0.42403 0.28329 0.0
C1027 C 0.46631 0.43054 0.27287 0.0
C1028 C 0.46306 0.42992 0.22759 0.0
C1029 C 0.45235 0.43114 0.21826 0.0
C1030 C 0.43895 0.41747 0.21144 0.0
C1031 C 0.43598 0.40232 0.21392 0.0
C1032 C 0.44669 0.40118 0.22342 0.0
C1033 C 0.46011 0.41486 0.2302 0.0
C1034 C 0.48612 0.4513 0.2075 0.0
C1035 C 0.48313 0.46107 0.19902 0.0
C1036 C 0.47869 0.45732 0.18283 0.0
C1037 C 0.47715 0.4437 0.17476 0.0
C1038 C 0.48066 0.43421 0.1832 0.0
C1039 C 0.48511 0.43799 0.19946 0.0
C1040 C 0.51428 0.4793 0.22158 0.0
C1041 C 0.51691 0.49446 0.22014 0.0
C1042 C 0.52785 0.50458 0.21025 0.0
C1043 C 0.53616 0.49962 0.20139 0.0
C1044 C 0.53339 0.48437 0.2027 0.0
C1045 C 0.52258 0.47432 0.21278 0.0
C1046 C 0.50131 0.47867 0.32631 0.0
C1047 C 0.42177 0.38776 0.20668 0.0
H1048 H 0.50657 0.9824 0.34724 0.0
H1049 H 0.41016 0.00247 0.21027 0.0
H1050 H 0.53355 0.02231 0.26137 0.0
H1051 H 0.55308 0.01808 0.27278 0.0
H1052 H 0.51982 0.96753 0.26897 0.0
H1053 H 0.50045 0.97185 0.25751 0.0
H1054 H 0.5115 0.01407 0.29001 0.0
H1055 H 0.51303 0.00514 0.31583 0.0
H1056 H 0.47434 0.95815 0.2999 0.0
H1057 H 0.47306 0.9672 0.27406 0.0
H1058 H 0.47887 0.01383 0.28745 0.0
H1059 H 0.45729 0.00557 0.30417 0.0
H1060 H 0.42939 0.96328 0.27175 0.0
H1061 H 0.45087 0.97196 0.25495 0.0
H1062 H 0.47287 0.02584 0.25756 0.0
H1063 H 0.45168 0.02893 0.24952 0.0
H1064 H 0.43509 0.98939 0.2135 0.0
H1065 H 0.45622 0.98633 0.22179 0.0
H1066 H 0.49528 0.03652 0.22959 0.0
H1067 H 0.49099 0.04485 0.20445 0.0
H1068 H 0.48033 0.00026 0.18019 0.0
H1069 H 0.48477 0.99211 0.20538 0.0
H1070 H 0.52496 0.03368 0.22894 0.0
H1071 H 0.54292 0.0376 0.20866 0.0
H1072 H 0.52445 0.98711 0.20351 0.0
H1073 H 0.50666 0.98335 0.22378 0.0
O1074 O 0.50572 0.98569 0.33697 0.0
O1075 O 0.4857 0.96178 0.32826 0.0
O1076 O 0.42753 0.02166 0.23252 0.0
O1077 O 0.4186 0.00147 0.21375 0.0
C1078 C 0.50321 6e-05 0.25402 0.0
C1079 C 0.49155 0.99672 0.26443 0.0
C1080 C 0.47932 0.99845 0.25979 0.0
C1081 C 0.47903 0.00415 0.24507 0.0
C1082 C 0.49089 0.0079 0.23482 0.0
C1083 C 0.50286 0.00561 0.23918 0.0
C1084 C 0.51558 0.9974 0.25875 0.0
C1085 C 0.5306 0.01031 0.26272 0.0
C1086 C 0.54171 0.00788 0.26922 0.0
C1087 C 0.5379 0.99249 0.27193 0.0
C1088 C 0.52301 0.97953 0.26726 0.0
C1089 C 0.51197 0.98197 0.26065 0.0
C1090 C 0.49213 0.9913 0.28022 0.0
C1091 C 0.50336 0.00186 0.29214 0.0
C1092 C 0.5042 0.99673 0.30687 0.0
C1093 C 0.4938 0.98093 0.30994 0.0
C1094 C 0.48251 0.9704 0.29794 0.0
C1095 C 0.48171 0.97554 0.2832 0.0
C1096 C 0.46635 0.99351 0.27 0.0
C1097 C 0.46806 0.00281 0.28401 0.0
C1098 C 0.45576 0.998 0.29357 0.0
C1099 C 0.44158 0.98375 0.2893 0.0
C1100 C 0.44003 0.97445 0.27526 0.0
C1101 C 0.45229 0.97932 0.26568 0.0
C1102 C 0.46608 0.00589 0.24023 0.0
C1103 C 0.4646 0.01783 0.24798 0.0
C1104 C 0.45252 0.01958 0.24334 0.0
C1105 C 0.4417 0.00941 0.23084 0.0
C1106 C 0.44322 0.99743 0.22314 0.0
C1107 C 0.45529 0.99567 0.22783 0.0
C1108 C 0.4903 0.01371 0.21929 0.0
C1109 C 0.49226 0.02868 0.21879 0.0
C1110 C 0.48972 0.03337 0.20445 0.0
C1111 C 0.48521 0.02316 0.19035 0.0
C1112 C 0.48395 0.00846 0.1908 0.0
C1113 C 0.48645 0.00376 0.20516 0.0
C1114 C 0.51455 0.00824 0.22784 0.0
C1115 C 0.52492 0.02351 0.2235 0.0
C1116 C 0.5351 0.02571 0.21188 0.0
C1117 C 0.5351 0.01266 0.20447 0.0
C1118 C 0.5249 0.99743 0.20914 0.0
C1119 C 0.51471 0.99525 0.2207 0.0
C1120 C 0.49477 0.9755 0.32558 0.0
C1121 C 0.42888 0.01127 0.2258 0.0
H1122 H 0.497 0.02282 0.71872 0.0
H1123 H 0.581 0.97744 0.83156 0.0
H1124 H 0.49293 0.02134 0.80548 0.0
H1125 H 0.47253 0.02392 0.79378 0.0
H1126 H 0.44088 0.9732 0.79296 0.0
H1127 H 0.46153 0.97075 0.80458 0.0
H1128 H 0.51752 0.02309 0.78394 0.0
H1129 H 0.51252 0.0276 0.75699 0.0
H1130 H 0.47434 0.97882 0.74918 0.0
H1131 H 0.4796 0.97443 0.77609 0.0
H1132 H 0.54334 0.02146 0.80162 0.0
H1133 H 0.56203 0.02676 0.78189 0.0
H1134 H 0.53011 0.981 0.75631 0.0
H1135 H 0.51158 0.97569 0.77634 0.0
H1136 H 0.54334 0.01492 0.8364 0.0
H1137 H 0.56601 0.01404 0.84358 0.0
H1138 H 0.54571 0.9686 0.81574 0.0
H1139 H 0.52303 0.96955 0.80881 0.0
H1140 H 0.5178 0.01339 0.85471 0.0
H1141 H 0.52739 0.01256 0.88121 0.0
H1142 H 0.51537 0.96451 0.86814 0.0
H1143 H 0.50576 0.96543 0.84163 0.0
H1144 H 0.49006 0.01462 0.83833 0.0
H1145 H 0.47406 0.01292 0.85985 0.0
H1146 H 0.46032 0.96413 0.86324 0.0
H1147 H 0.47583 0.96577 0.84117 0.0
O1148 O 0.49883 0.02075 0.7293 0.0
O1149 O 0.47925 0.99561 0.72593 0.0
O1150 O 0.58206 0.00142 0.84314 0.0
O1151 O 0.57217 0.97808 0.82892 0.0
C1152 C 0.49173 0.99419 0.81007 0.0
C1153 C 0.50187 0.99578 0.79836 0.0
C1154 C 0.51492 0.99521 0.80237 0.0
C1155 C 0.51769 0.99272 0.81799 0.0
C1156 C 0.50747 0.99094 0.82966 0.0
C1157 C 0.49446 0.99167 0.82571 0.0
C1158 C 0.47867 0.99587 0.80583 0.0
C1159 C 0.48149 0.01085 0.80312 0.0
C1160 C 0.46981 0.0123 0.79649 0.0
C1161 C 0.45512 0.99874 0.79238 0.0
C1162 C 0.45214 0.98382 0.79587 0.0
C1163 C 0.46384 0.9824 0.80261 0.0
C1164 C 0.49896 0.99843 0.78192 0.0
C1165 C 0.50815 0.01337 0.77634 0.0
C1166 C 0.50523 0.01592 0.76097 0.0
C1167 C 0.49302 0.00357 0.75093 0.0
C1168 C 0.48383 0.98859 0.7566 0.0
C1169 C 0.4868 0.98605 0.77195 0.0
C1170 C 0.52618 0.99817 0.79041 0.0
C1171 C 0.54044 0.01257 0.79178 0.0
C1172 C 0.55101 0.01562 0.78043 0.0
C1173 C 0.5475 0.00432 0.76751 0.0
C1174 C 0.53318 0.98987 0.7662 0.0
C1175 C 0.52258 0.98684 0.77756 0.0
C1176 C 0.53152 0.99225 0.82218 0.0
C1177 C 0.54379 0.00475 0.83194 0.0
C1178 C 0.55673 0.00424 0.83598 0.0
C1179 C 0.55766 0.99123 0.83025 0.0
C1180 C 0.54536 0.97877 0.82037 0.0
C1181 C 0.53241 0.97929 0.81638 0.0
C1182 C 0.51113 0.98948 0.84629 0.0
C1183 C 0.51695 0.00258 0.85769 0.0
C1184 C 0.5225 0.00212 0.87274 0.0
C1185 C 0.5222 0.98851 0.87666 0.0
C1186 C 0.51563 0.97511 0.86547 0.0
C1187 C 0.51019 0.97562 0.85035 0.0
C1188 C 0.48403 0.99029 0.83813 0.0
C1189 C 0.48337 0.00349 0.84353 0.0
C1190 C 0.47436 0.00254 0.85596 0.0
C1191 C 0.46598 0.98842 0.86336 0.0
C1192 C 0.46648 0.97513 0.8577 0.0
C1193 C 0.4754 0.97606 0.84517 0.0
C1194 C 0.4899 0.00634 0.73463 0.0
C1195 C 0.57138 0.99061 0.83452 0.0
H1196 H 0.97195 0.47761 0.73133 0.0
H1197 H 0.02148 0.60926 0.86299 0.0
H1198 H 0.98175 0.47433 0.81522 0.0
H1199 H 0.9785 0.44944 0.80421 0.0
H1200 H 0.02735 0.46987 0.8124 0.0
H1201 H 0.03055 0.49508 0.82282 0.0
H1202 H 0.97645 0.49599 0.79937 0.0
H1203 H 0.97004 0.48682 0.77105 0.0
H1204 H 0.01745 0.50233 0.76528 0.0
H1205 H 0.02373 0.51161 0.79359 0.0
H1206 H 0.97659 0.51948 0.82352 0.0
H1207 H 0.96532 0.53094 0.80788 0.0
H1208 H 0.00656 0.55493 0.78268 0.0
H1209 H 0.0176 0.54295 0.79823 0.0
H1210 H 0.98883 0.53061 0.8573 0.0
H1211 H 0.98933 0.55428 0.868 0.0
H1212 H 0.02982 0.58355 0.84318 0.0
H1213 H 0.02931 0.55978 0.83277 0.0
H1214 H 0.99381 0.50717 0.87149 0.0
H1215 H 0.99615 0.519 0.89858 0.0
H1216 H 0.04099 0.55879 0.89052 0.0
H1217 H 0.03852 0.54694 0.86335 0.0
H1218 H 0.99155 0.47767 0.85055 0.0
H1219 H 0.99626 0.46155 0.86747 0.0
H1220 H 0.0439 0.49962 0.87567 0.0
H1221 H 0.03911 0.51563 0.85849 0.0
O1222 O 0.97475 0.48141 0.74248 0.0
O1223 O -0.00074 0.48956 0.74016 0.0
O1224 O 0.00031 0.58415 0.87163 0.0
O1225 O 0.02104 0.59971 0.85897 0.0
C1226 C 0.00814 0.5017 0.8259 0.0
C1227 C 0.0045 0.51006 0.81569 0.0
C1228 C 0.00445 0.52349 0.82191 0.0
C1229 C 0.00896 0.52918 0.83807 0.0
C1230 C 0.01287 0.521 0.84825 0.0
C1231 C 0.0122 0.50709 0.84224 0.0
C1232 C 0.0064 0.48654 0.81965 0.0
C1233 C 0.99176 0.47346 0.81453 0.0
C1234 C 0.98991 0.45918 0.80843 0.0
C1235 C 0.00266 0.45764 0.80747 0.0
C1236 C 0.01733 0.47074 0.81281 0.0
C1237 C 0.01917 0.48509 0.81884 0.0
C1238 C 0.00058 0.50461 0.79848 0.0
C1239 C 0.98546 0.49753 0.79193 0.0
C1240 C 0.98182 0.49224 0.77577 0.0
C1241 C 0.99324 0.49387 0.76589 0.0
C1242 C 0.00839 0.50092 0.77254 0.0
C1243 C 0.01201 0.50623 0.7887 0.0
C1244 C 0.99791 0.5305 0.81205 0.0
C1245 C 0.98317 0.52721 0.81461 0.0
C1246 C 0.9768 0.53383 0.80572 0.0
C1247 C 0.98509 0.54397 0.79413 0.0
C1248 C -0.00017 0.54706 0.79142 0.0
C1249 C 0.00619 0.54034 0.80032 0.0
C1250 C 0.00913 0.54352 0.84441 0.0
C1251 C 0.99786 0.54216 0.85429 0.0
C1252 C 0.99814 0.55569 0.86033 0.0
C1253 C 0.00964 0.57083 0.85647 0.0
C1254 C 0.02083 0.5721 0.84642 0.0
C1255 C 0.02056 0.55855 0.84044 0.0
C1256 C 0.01599 0.52623 0.8655 0.0
C1257 C 0.00434 0.51818 0.87575 0.0
C1258 C 0.00564 0.52498 0.89114 0.0
C1259 C 0.0187 0.53984 0.89653 0.0
C1260 C 0.03087 0.54728 0.88666 0.0
C1261 C 0.02948 0.54055 0.87118 0.0
C1262 C 0.01502 0.49774 0.85316 0.0
C1263 C 0.00301 0.4825 0.85594 0.0
C1264 C 0.00573 0.47331 0.86556 0.0
C1265 C 0.02048 0.47929 0.87276 0.0
C1266 C 0.03241 0.49474 0.87031 0.0
C1267 C 0.02971 0.50388 0.86052 0.0
C1268 C 0.98933 0.48818 0.74874 0.0
C1269 C 0.00999 0.58525 0.86284 0.0
H1270 H 0.48302 0.51467 0.71831 0.0
H1271 H 0.60773 0.62425 0.84545 0.0
H1272 H 0.47083 0.51928 0.80195 0.0
H1273 H 0.4489 0.49247 0.79334 0.0
H1274 H 0.47267 0.47254 0.81482 0.0
H1275 H 0.49426 0.49923 0.82351 0.0
H1276 H 0.49981 0.54782 0.78229 0.0
H1277 H 0.49222 0.5375 0.75431 0.0
H1278 H 0.49769 0.49855 0.76312 0.0
H1279 H 0.50545 0.50911 0.79102 0.0
H1280 H 0.53324 0.57888 0.79883 0.0
H1281 H 0.55337 0.59152 0.78023 0.0
H1282 H 0.55585 0.54959 0.77529 0.0
H1283 H 0.536 0.53721 0.79396 0.0
H1284 H 0.53118 0.58472 0.83727 0.0
H1285 H 0.55584 0.6094 0.84491 0.0
H1286 H 0.57942 0.58543 0.83253 0.0
H1287 H 0.55468 0.56081 0.8251 0.0
H1288 H 0.50486 0.56039 0.85888 0.0
H1289 H 0.51231 0.56818 0.88741 0.0
H1290 H 0.54647 0.5558 0.88329 0.0
H1291 H 0.53877 0.5478 0.85497 0.0
H1292 H 0.47503 0.52964 0.84138 0.0
H1293 H 0.45909 0.51479 0.86249 0.0
H1294 H 0.49151 0.50148 0.87465 0.0
H1295 H 0.50746 0.5167 0.8539 0.0
O1296 O 0.48608 0.51856 0.72941 0.0
O1297 O 0.48899 0.49873 0.73458 0.0
O1298 O 0.58515 0.6264 0.84881 0.0
O1299 O 0.59782 0.61465 0.84254 0.0
C1300 C 0.49789 0.52722 0.8176 0.0
C1301 C 0.50762 0.53551 0.80566 0.0
C1302 C 0.52191 0.54978 0.80988 0.0
C1303 C 0.52615 0.5561 0.82597 0.0
C1304 C 0.51628 0.54793 0.83786 0.0
C1305 C 0.5022 0.53346 0.83366 0.0
C1306 C 0.48404 0.51116 0.81343 0.0
C1307 C 0.47114 0.50908 0.80494 0.0
C1308 C 0.4587 0.49378 0.79996 0.0
C1309 C 0.45902 0.48035 0.80341 0.0
C1310 C 0.47189 0.48257 0.81222 0.0
C1311 C 0.48427 0.49782 0.81717 0.0
C1312 C 0.50303 0.52913 0.7887 0.0
C1313 C 0.49936 0.53706 0.77814 0.0
C1314 C 0.49502 0.53113 0.76217 0.0
C1315 C 0.4943 0.51717 0.75649 0.0
C1316 C 0.49808 0.5093 0.76712 0.0
C1317 C 0.50245 0.51526 0.78307 0.0
C1318 C 0.53312 0.55711 0.79767 0.0
C1319 C 0.53806 0.57242 0.7936 0.0
C1320 C 0.54956 0.5796 0.78304 0.0
C1321 C 0.55613 0.5715 0.77628 0.0
C1322 C 0.55084 0.55602 0.7801 0.0
C1323 C 0.53951 0.54894 0.79076 0.0
C1324 C 0.54116 0.57103 0.83053 0.0
C1325 C 0.54169 0.58484 0.83623 0.0
C1326 C 0.55579 0.59891 0.84057 0.0
C1327 C 0.56961 0.5994 0.83929 0.0
C1328 C 0.56901 0.58549 0.83362 0.0
C1329 C 0.5549 0.57142 0.82933 0.0
C1330 C 0.52134 0.55363 0.85488 0.0
C1331 C 0.514 0.55947 0.86417 0.0
C1332 C 0.51829 0.56393 0.88042 0.0
C1333 C 0.52991 0.56251 0.8876 0.0
C1334 C 0.53733 0.55681 0.87816 0.0
C1335 C 0.53307 0.55241 0.86196 0.0
C1336 C 0.49241 0.5243 0.84624 0.0
C1337 C 0.47864 0.52353 0.84867 0.0
C1338 C 0.46954 0.51499 0.86067 0.0
C1339 C 0.47406 0.50702 0.87035 0.0
C1340 C 0.48783 0.50774 0.86768 0.0
C1341 C 0.49693 0.51634 0.85577 0.0
C1342 C 0.48964 0.51088 0.73952 0.0
C1343 C 0.58462 0.61432 0.84385 0.0
H1344 H 0.62937 0.82723 0.6719 0.0
H1345 H 0.63915 0.71969 0.54556 0.0
H1346 H 0.60924 0.8216 0.59033 0.0
H1347 H 0.61523 0.84801 0.60075 0.0
H1348 H 0.65633 0.86968 0.57528 0.0
H1349 H 0.65059 0.8434 0.56538 0.0
H1350 H 0.6096 0.79377 0.60803 0.0
H1351 H 0.61377 0.80413 0.636 0.0
H1352 H 0.65855 0.84367 0.62702 0.0
H1353 H 0.65432 0.83308 0.59914 0.0
H1354 H 0.6098 0.76327 0.59096 0.0
H1355 H 0.61731 0.74949 0.60839 0.0
H1356 H 0.66369 0.7906 0.61373 0.0
H1357 H 0.65606 0.80422 0.59646 0.0
H1358 H 0.60208 0.75772 0.55223 0.0
H1359 H 0.60173 0.73341 0.54475 0.0
H1360 H 0.65038 0.75826 0.55833 0.0
H1361 H 0.65059 0.78252 0.56557 0.0
H1362 H 0.60098 0.78051 0.5293 0.0
H1363 H 0.60164 0.772 0.50145 0.0
H1364 H 0.64995 0.78997 0.50991 0.0
H1365 H 0.64918 0.79837 0.53747 0.0
H1366 H 0.60192 0.81373 0.55009 0.0
H1367 H 0.60039 0.82952 0.52996 0.0
H1368 H 0.64457 0.84078 0.51494 0.0
H1369 H 0.64605 0.82516 0.53511 0.0
O1370 O 0.628 0.8233 0.66081 0.0
O1371 O 0.65089 0.84344 0.65555 0.0
O1372 O 0.614 0.71696 0.54138 0.0
O1373 O 0.63897 0.72915 0.54835 0.0
C1374 C 0.62723 0.81482 0.57262 0.0
C1375 C 0.62891 0.80646 0.58455 0.0
C1376 C 0.62858 0.79236 0.58029 0.0
C1377 C 0.6264 0.7865 0.56413 0.0
C1378 C 0.6249 0.79493 0.55222 0.0
C1379 C 0.62515 0.809 0.55644 0.0
C1380 C 0.62944 0.83059 0.57705 0.0
C1381 C 0.61941 0.83207 0.58684 0.0
C1382 C 0.62285 0.8471 0.59279 0.0
C1383 C 0.63623 0.86083 0.58878 0.0
C1384 C 0.64585 0.85929 0.57838 0.0
C1385 C 0.64255 0.8443 0.57267 0.0
C1386 C 0.6316 0.81274 0.60155 0.0
C1387 C 0.62031 0.80465 0.61215 0.0
C1388 C 0.62272 0.81061 0.62811 0.0
C1389 C 0.63647 0.82476 0.63374 0.0
C1390 C 0.64781 0.83277 0.62307 0.0
C1391 C 0.64541 0.82677 0.60714 0.0
C1392 C 0.63238 0.78474 0.5925 0.0
C1393 C 0.6215 0.76936 0.59616 0.0
C1394 C 0.62583 0.7615 0.60602 0.0
C1395 C 0.64112 0.76894 0.6124 0.0
C1396 C 0.65179 0.78462 0.60922 0.0
C1397 C 0.64746 0.79242 0.59934 0.0
C1398 C 0.62632 0.77182 0.55955 0.0
C1399 C 0.61264 0.75788 0.55355 0.0
C1400 C 0.61248 0.74402 0.54931 0.0
C1401 C 0.62603 0.74388 0.551 0.0
C1402 C 0.63974 0.75794 0.55693 0.0
C1403 C 0.63989 0.7718 0.56112 0.0
C1404 C 0.62503 0.79001 0.53533 0.0
C1405 C 0.61167 0.78263 0.52504 0.0
C1406 C 0.61206 0.77777 0.50923 0.0
C1407 C 0.62587 0.78044 0.50352 0.0
C1408 C 0.63921 0.78798 0.5139 0.0
C1409 C 0.63877 0.79267 0.52965 0.0
C1410 C 0.62398 0.8181 0.54389 0.0
C1411 C 0.6112 0.81955 0.54237 0.0
C1412 C 0.61039 0.82861 0.53094 0.0
C1413 C 0.62232 0.8363 0.52081 0.0
C1414 C 0.63507 0.83476 0.52237 0.0
C1415 C 0.63592 0.82582 0.53386 0.0
C1416 C 0.63895 0.83111 0.65067 0.0
C1417 C 0.62591 0.72916 0.5466 0.0
H1418 H 0.16622 0.80788 0.68769 0.0
H1419 H 0.07449 0.69206 0.54498 0.0
H1420 H 0.16898 0.82329 0.60589 0.0
H1421 H 0.19041 0.84859 0.61829 0.0
H1422 H 0.22232 0.83681 0.60026 0.0
H1423 H 0.20061 0.81109 0.58814 0.0
H1424 H 0.14575 0.79874 0.62053 0.0
H1425 H 0.15109 0.80368 0.64937 0.0
H1426 H 0.18548 0.79156 0.64549 0.0
H1427 H 0.17986 0.78645 0.61664 0.0
H1428 H 0.12053 0.77809 0.59382 0.0
H1429 H 0.10051 0.76686 0.61246 0.0
H1430 H 0.12095 0.743 0.63238 0.0
H1431 H 0.14118 0.75442 0.61355 0.0
H1432 H 0.11823 0.77094 0.55984 0.0
H1433 H 0.09444 0.74721 0.54814 0.0
H1434 H 0.11032 0.71784 0.5644 0.0
H1435 H 0.13415 0.74169 0.57588 0.0
H1436 H 0.14556 0.80013 0.54875 0.0
H1437 H 0.13666 0.79526 0.52067 0.0
H1438 H 0.1428 0.75566 0.51549 0.0
H1439 H 0.15191 0.76076 0.5437 0.0
H1440 H 0.17292 0.82672 0.5706 0.0
H1441 H 0.18916 0.84602 0.55259 0.0
H1442 H 0.19998 0.81266 0.53168 0.0
H1443 H 0.18435 0.79377 0.55045 0.0
O1444 O 0.16423 0.80578 0.67627 0.0
O1445 O 0.18182 0.79949 0.67363 0.0
O1446 O 0.07619 0.71727 0.54132 0.0
O1447 O 0.0838 0.70164 0.54948 0.0
C1448 C 0.16991 0.79986 0.5891 0.0
C1449 C 0.1591 0.78903 0.59897 0.0
C1450 C 0.14516 0.77566 0.59217 0.0
C1451 C 0.14251 0.7724 0.57551 0.0
C1452 C 0.15338 0.78308 0.56559 0.0
C1453 C 0.16701 0.79693 0.57239 0.0
C1454 C 0.18322 0.81522 0.59639 0.0
C1455 C 0.18057 0.82602 0.60483 0.0
C1456 C 0.19281 0.84046 0.61187 0.0
C1457 C 0.20799 0.84454 0.61037 0.0
C1458 C 0.2107 0.83389 0.6016 0.0
C1459 C 0.19837 0.81926 0.59472 0.0
C1460 C 0.16227 0.79202 0.61652 0.0
C1461 C 0.15431 0.79699 0.62595 0.0
C1462 C 0.15744 0.79989 0.64242 0.0
C1463 C 0.16869 0.79798 0.64975 0.0
C1464 C 0.17672 0.79311 0.64023 0.0
C1465 C 0.17354 0.79017 0.62376 0.0
C1466 C 0.13224 0.767 0.60231 0.0
C1467 C 0.12056 0.77022 0.60202 0.0
C1468 C 0.10925 0.76396 0.61276 0.0
C1469 C 0.10934 0.75425 0.62395 0.0
C1470 C 0.12068 0.75047 0.62385 0.0
C1471 C 0.13217 0.75692 0.61314 0.0
C1472 C 0.12798 0.75802 0.56851 0.0
C1473 C 0.1166 0.75938 0.56074 0.0
C1474 C 0.103 0.7458 0.55413 0.0
C1475 C 0.1005 0.73062 0.55529 0.0
C1476 C 0.11189 0.72934 0.56325 0.0
C1477 C 0.1255 0.74293 0.56982 0.0
C1478 C 0.14942 0.78084 0.54822 0.0
C1479 C 0.14523 0.79058 0.54149 0.0
C1480 C 0.14004 0.7877 0.52551 0.0
C1481 C 0.13894 0.77501 0.51595 0.0
C1482 C 0.14363 0.76557 0.52258 0.0
C1483 C 0.14877 0.76843 0.53865 0.0
C1484 C 0.17759 0.80891 0.56196 0.0
C1485 C 0.17906 0.82372 0.56236 0.0
C1486 C 0.18818 0.83464 0.55188 0.0
C1487 C 0.19581 0.83086 0.54057 0.0
C1488 C 0.19445 0.81606 0.54035 0.0
C1489 C 0.18545 0.8052 0.55098 0.0
C1490 C 0.17202 0.80111 0.66725 0.0
C1491 C 0.08608 0.71616 0.54826 0.0
H1492 H 0.2012 0.3723 0.69365 0.0
H1493 H 0.09799 0.37046 0.55449 0.0
H1494 H 0.2242 0.39729 0.60983 0.0
H1495 H 0.24261 0.39156 0.62147 0.0
H1496 H 0.21204 0.3419 0.60493 0.0
H1497 H 0.1939 0.3478 0.59334 0.0
H1498 H 0.19812 0.39564 0.63296 0.0
H1499 H 0.20146 0.3905 0.66019 0.0
H1500 H 0.1794 0.34047 0.64479 0.0
H1501 H 0.17607 0.3458 0.61763 0.0
H1502 H 0.16727 0.39447 0.62262 0.0
H1503 H 0.14544 0.38573 0.63921 0.0
H1504 H 0.12821 0.33689 0.62223 0.0
H1505 H 0.14969 0.34579 0.60544 0.0
H1506 H 0.16707 0.40375 0.59314 0.0
H1507 H 0.145 0.40528 0.58478 0.0
H1508 H 0.12302 0.35788 0.56076 0.0
H1509 H 0.14513 0.35651 0.5693 0.0
H1510 H 0.18494 0.40716 0.56387 0.0
H1511 H 0.1781 0.40953 0.53664 0.0
H1512 H 0.16526 0.36126 0.52307 0.0
H1513 H 0.17208 0.35904 0.5502 0.0
H1514 H 0.21585 0.4052 0.56695 0.0
H1515 H 0.23103 0.40599 0.54474 0.0
H1516 H 0.21016 0.35522 0.54365 0.0
H1517 H 0.19498 0.35455 0.56561 0.0
O1518 O 0.19971 0.37405 0.68283 0.0
O1519 O 0.18837 0.34847 0.67429 0.0
O1520 O 0.11862 0.39447 0.57056 0.0
O1521 O 0.10683 0.37015 0.55802 0.0
C1522 C 0.19571 0.37586 0.59579 0.0
C1523 C 0.18515 0.37439 0.6069 0.0
C1524 C 0.17266 0.37568 0.60229 0.0
C1525 C 0.1711 0.37922 0.58678 0.0
C1526 C 0.18175 0.3809 0.57567 0.0
C1527 C 0.194 0.37906 0.58013 0.0
C1528 C 0.20789 0.373 0.60053 0.0
C1529 C 0.22173 0.38527 0.60841 0.0
C1530 C 0.23212 0.38194 0.61516 0.0
C1531 C 0.22878 0.36627 0.61411 0.0
C1532 C 0.2151 0.35413 0.6057 0.0
C1533 C 0.20473 0.35747 0.59904 0.0
C1534 C 0.18694 0.3711 0.62338 0.0
C1535 C 0.19401 0.38359 0.63553 0.0
C1536 C 0.19591 0.38061 0.65105 0.0
C1537 C 0.19073 0.36507 0.65467 0.0
C1538 C 0.18355 0.35258 0.64241 0.0
C1539 C 0.18165 0.35558 0.6269 0.0
C1540 C 0.15993 0.37074 0.61281 0.0
C1541 C 0.15872 0.38191 0.62253 0.0
C1542 C 0.14633 0.37688 0.63204 0.0
C1543 C 0.13502 0.36061 0.63195 0.0
C1544 C 0.13653 0.34951 0.62235 0.0
C1545 C 0.14883 0.35454 0.61284 0.0
C1546 C 0.15764 0.38002 0.58183 0.0
C1547 C 0.15744 0.3937 0.58613 0.0
C1548 C 0.14484 0.39455 0.58131 0.0
C1549 C 0.13224 0.38169 0.57209 0.0
C1550 C 0.13252 0.36799 0.56784 0.0
C1551 C 0.14512 0.36716 0.57269 0.0
C1552 C 0.17907 0.38296 0.55895 0.0
C1553 C 0.18083 0.3972 0.55493 0.0
C1554 C 0.17687 0.3985 0.53942 0.0
C1555 C 0.17116 0.38559 0.52771 0.0
C1556 C 0.16986 0.37151 0.53173 0.0
C1557 C 0.17372 0.3702 0.54723 0.0
C1558 C 0.20456 0.37987 0.5681 0.0
C1559 C 0.2148 0.39432 0.56208 0.0
C1560 C 0.22335 0.39473 0.54935 0.0
C1561 C 0.22182 0.38067 0.5425 0.0
C1562 C 0.21181 0.36629 0.54886 0.0
C1563 C 0.20319 0.36589 0.56147 0.0
C1564 C 0.19283 0.36197 0.67115 0.0
C1565 C 0.11885 0.38255 0.56688 0.0
C1566 C 0.97942 0.37507 0.05377 0.0
C1567 C 0.99291 0.38214 0.04568 0.0
C1568 C 0.97724 0.38397 0.06569 0.0
C1569 C -0.00042 0.42045 0.0933 0.0
H1570 H 0.95973 0.41403 0.1005 0.0
C1571 C 0.99345 0.45981 0.14088 0.0
C1572 C 0.98225 0.45166 0.15159 0.0
C1573 C 0.99352 0.45194 0.12664 0.0
C1574 C 0.9709 0.4159 0.09862 0.0
H1575 H 0.0144 0.40423 0.04326 0.0
H1576 H 0.01045 0.41977 0.06366 0.0
H1577 H 0.9623 0.39903 0.07802 0.0
H1578 H 0.96187 0.42907 0.1554 0.0
H1579 H 0.96195 0.41533 0.13041 0.0
H1580 H 0.00819 0.43726 0.11384 0.0
C1581 C 0.00172 0.40727 0.06118 0.0
C1582 C 0.97238 0.40728 0.08581 0.0
C1583 C 0.00396 0.39837 0.0494 0.0
C1584 C 0.97058 0.43571 0.14733 0.0
C1585 C 0.97063 0.42783 0.13303 0.0
C1586 C 0.99812 0.42911 0.10598 0.0
C1587 C 0.98847 0.40014 0.06967 0.0
C1588 C 0.98675 0.40944 0.08302 0.0
C1589 C 0.98237 0.43575 0.12278 0.0
C1590 C 0.98378 0.42692 0.10881 0.0
H1591 H 0.9707 0.36258 0.05117 0.0
H1592 H 0.96697 0.37805 0.07209 0.0
H1593 H 0.01074 0.42216 0.09177 0.0
H1594 H 0.00241 0.47219 0.1437 0.0
H1595 H 0.00254 0.45842 0.11881 0.0
C1596 C 0.61264 0.58016 0.09764 0.0
C1597 C 0.62354 0.59619 0.10271 0.0
C1598 C 0.60451 0.56938 0.1087 0.0
C1599 C 0.59103 0.56827 0.14838 0.0
H1600 H 0.58305 0.52559 0.14599 0.0
C1601 C 0.55813 0.52632 0.19582 0.0
C1602 C 0.5475 0.51029 0.19062 0.0
C1603 C 0.5684 0.53657 0.1855 0.0
C1604 C 0.58503 0.53741 0.14673 0.0
H1605 H 0.63478 0.61333 0.1234 0.0
H1606 H 0.62052 0.59452 0.14262 0.0
H1607 H 0.59926 0.54381 0.12708 0.0
H1608 H 0.5393 0.49238 0.17057 0.0
H1609 H 0.55697 0.51033 0.15239 0.0
H1610 H 0.57652 0.56188 0.16765 0.0
C1611 C 0.61822 0.59034 0.1301 0.0
C1612 C 0.59435 0.54785 0.13592 0.0
C1613 C 0.62643 0.60109 0.11908 0.0
C1614 C 0.54749 0.50465 0.17494 0.0
C1615 C 0.55765 0.51495 0.16455 0.0
C1616 C 0.58161 0.55782 0.15908 0.0
C1617 C 0.60701 0.57443 0.12502 0.0
C1618 C 0.59745 0.56339 0.13665 0.0
C1619 C 0.56816 0.53108 0.16965 0.0
C1620 C 0.57848 0.54225 0.1584 0.0
H1621 H 0.61016 0.57601 0.08512 0.0
H1622 H 0.59587 0.55721 0.10443 0.0
H1623 H 0.59299 0.58009 0.14906 0.0
H1624 H 0.55854 0.53092 0.20793 0.0
H1625 H 0.57654 0.54882 0.18996 0.0
C1626 C 0.41548 0.03702 0.08268 0.0
C1627 C 0.41596 0.03125 0.06723 0.0
C1628 C 0.42589 0.03899 0.09493 0.0
C1629 C 0.44913 0.02293 0.10632 0.0
H1630 H 0.46567 0.05685 0.14056 0.0
C1631 C 0.4847 0.02391 0.16068 0.0
C1632 C 0.48069 0.02729 0.17551 0.0
C1633 C 0.47933 0.02665 0.14667 0.0
C1634 C 0.46109 0.04727 0.13111 0.0
H1635 H 0.42825 0.02376 0.05235 0.0
H1636 H 0.44645 0.02726 0.07373 0.0
H1637 H 0.45176 0.05783 0.1173 0.0
H1638 H 0.46799 0.03631 0.18725 0.0
H1639 H 0.45862 0.04102 0.1629 0.0
H1640 H 0.458 0.01209 0.12028 0.0
C1641 C 0.43788 0.03007 0.0764 0.0
C1642 C 0.45314 0.04784 0.11779 0.0
C1643 C 0.4275 0.02814 0.06414 0.0
C1644 C 0.47153 0.03384 0.17604 0.0
C1645 C 0.46615 0.03655 0.16206 0.0
C1646 C 0.45704 0.02233 0.11964 0.0
C1647 C 0.437 0.0352 0.092 0.0
C1648 C 0.44683 0.03553 0.10537 0.0
C1649 C 0.46981 0.03279 0.14718 0.0
C1650 C 0.46287 0.03435 0.13233 0.0
H1651 H 0.40676 0.03956 0.08546 0.0
H1652 H 0.4248 0.04283 0.10683 0.0
H1653 H 0.44423 0.01314 0.09707 0.0
H1654 H 0.49189 0.01904 0.1599 0.0
H1655 H 0.48253 0.02383 0.13541 0.0
C1656 C 0.40826 0.98436 0.98861 0.0
C1657 C 0.39956 0.99144 0.9893 0.0
C1658 C 0.41354 0.98214 0.9742 0.0
C1659 C 0.41806 0.9731 0.94035 0.0
H1660 H 0.43629 0.00973 0.91608 0.0
C1661 C 0.44283 0.97408 0.87923 0.0
C1662 C 0.45719 0.98776 0.87726 0.0
C1663 C 0.43473 0.97352 0.89244 0.0
C1664 C 0.43126 0.99941 0.92273 0.0
H1665 H 0.38887 0.00091 0.97523 0.0
H1666 H 0.39803 0.99697 0.95018 0.0
H1667 H 0.42363 0.00994 0.93991 0.0
H1668 H 0.47443 0.01141 0.8879 0.0
H1669 H 0.46021 0.0105 0.91073 0.0
H1670 H 0.42604 0.96274 0.92326 0.0
C1671 C 0.40097 0.99338 0.9608 0.0
C1672 C 0.42386 -0.00054 0.93629 0.0
C1673 C 0.39568 0.99557 0.97516 0.0
C1674 C 0.46326 0.00082 0.88883 0.0
C1675 C 0.45513 0.00029 0.90195 0.0
C1676 C 0.42539 0.97301 0.92669 0.0
C1677 C 0.41025 0.98697 0.96022 0.0
C1678 C 0.41729 0.98637 0.94533 0.0
C1679 C 0.44078 0.98665 0.90389 0.0
C1680 C 0.43223 0.98626 0.91786 0.0
H1681 H 0.41141 0.98101 0.99927 0.0
H1682 H 0.42074 0.97725 0.97414 0.0
H1683 H 0.41301 0.9628 0.94703 0.0
H1684 H 0.43775 0.96387 0.87046 0.0
H1685 H 0.42362 0.9629 0.89357 0.0
C1686 C 0.03445 0.40503 0.973 0.0
C1687 C 0.02754 0.38865 0.96883 0.0
C1688 C 0.03597 0.41509 0.96151 0.0
C1689 C 0.01694 0.41367 0.92387 0.0
H1690 H 0.05192 0.45653 0.92235 0.0
C1691 C 0.01746 0.45335 0.87748 0.0
C1692 C 0.02332 0.46933 0.88272 0.0
C1693 C 0.01952 0.4437 0.88708 0.0
C1694 C 0.04202 0.44463 0.92272 0.0
H1695 H 0.01761 0.37015 0.94917 0.0
H1696 H 0.02029 0.38773 0.92914 0.0
H1697 H 0.05324 0.43932 0.94069 0.0
H1698 H 0.03609 0.48781 0.90199 0.0
H1699 H 0.03946 0.47088 0.91895 0.0
H1700 H 0.0055 0.41901 0.90634 0.0
C1701 C 0.02435 0.39274 0.94133 0.0
C1702 C 0.0428 0.43477 0.93318 0.0
C1703 C 0.02291 0.38269 0.9528 0.0
C1704 C 0.03156 0.47556 0.89762 0.0
C1705 C 0.03353 0.46587 0.90729 0.0
C1706 C 0.01612 0.42353 0.91351 0.0
C1707 C 0.03054 0.40897 0.94564 0.0
C1708 C 0.03024 0.41921 0.93391 0.0
C1709 C 0.02738 0.44976 0.90221 0.0
C1710 C 0.02861 0.43916 0.91285 0.0
H1711 H 0.03819 0.41002 0.98524 0.0
H1712 H 0.04071 0.42753 0.96521 0.0
H1713 H 0.00696 0.40185 0.92438 0.0
H1714 H 0.01129 0.44831 0.86592 0.0
H1715 H 0.01492 0.43145 0.88264 0.0
C1716 C 0.60218 0.60907 0.014 0.0
C1717 C 0.59537 0.60384 0.02833 0.0
C1718 C 0.59314 0.60523 -0.00014 0.0
C1719 C 0.55518 0.57567 0.9806 0.0
H1720 H 0.56764 0.60605 0.94921 0.0
C1721 C 0.53709 0.5572 0.91392 0.0
C1722 C 0.53436 0.56688 0.90488 0.0
C1723 C 0.54229 0.56176 0.92994 0.0
C1724 C 0.56384 0.59748 0.95791 0.0
H1725 H 0.57365 0.59065 0.03905 0.0
H1726 H 0.55781 0.5839 0.01423 0.0
H1727 H 0.58102 0.61452 0.97558 0.0
H1728 H 0.53449 0.58869 0.90568 0.0
H1729 H 0.54347 0.59662 0.93377 0.0
H1730 H 0.53809 0.55859 0.96285 0.0
C1731 C 0.57019 0.59091 0.014 0.0
C1732 C 0.57162 0.60229 0.97297 0.0
C1733 C 0.57926 0.59482 0.02821 0.0
C1734 C 0.53646 0.58097 0.91235 0.0
C1735 C 0.54171 0.58557 0.92839 0.0
C1736 C 0.5474 0.57084 0.96552 0.0
C1737 C 0.57705 0.59604 -0.00034 0.0
C1738 C 0.56762 0.59136 0.98436 0.0
C1739 C 0.54489 0.57612 0.93731 0.0
C1740 C 0.55186 0.58161 0.95389 0.0
H1741 H 0.61456 0.61605 0.01365 0.0
H1742 H 0.5988 0.60915 0.98899 0.0
H1743 H 0.55186 0.56695 0.98909 0.0
H1744 H 0.53536 0.54616 0.90855 0.0
H1745 H 0.54477 0.55428 0.93639 0.0
C1746 C 0.01953 0.61213 0.0211 0.0
C1747 C 0.00783 0.61533 0.01967 0.0
C1748 C 0.02259 0.60503 0.0081 0.0
C1749 C 0.01526 0.59656 0.9641 0.0
H1750 H 0.024 0.56389 0.97022 0.0
C1751 C 0.0064 0.55033 0.91401 0.0
C1752 C 0.01875 0.54841 0.91152 0.0
C1753 C 0.00667 0.5593 0.92752 0.0
C1754 C 0.02174 0.57312 0.9684 0.0
H1755 H 0.99007 0.61341 0.00354 0.0
H1756 H 0.99506 0.6007 0.98118 0.0
H1757 H 0.02152 0.57828 0.99334 0.0
H1758 H 0.04097 0.55411 0.92121 0.0
H1759 H 0.04124 0.56959 0.94528 0.0
H1760 H 0.01483 0.59088 0.93915 0.0
C1761 C 0.00221 0.60404 0.99213 0.0
C1762 C 0.02037 0.58141 0.98161 0.0
C1763 C -0.00074 0.61125 0.00503 0.0
C1764 C 0.0313 0.55542 0.92293 0.0
C1765 C 0.03144 0.5642 0.93665 0.0
C1766 C 0.01642 0.58814 0.95095 0.0
C1767 C 0.01395 0.60089 0.99345 0.0
C1768 C 0.01682 0.59303 0.9796 0.0
C1769 C 0.0192 0.56638 0.93892 0.0
C1770 C 0.01941 0.57618 0.95297 0.0
H1771 H 0.02637 0.61519 0.03222 0.0
H1772 H 0.03181 0.60292 0.0095 0.0
H1773 H 0.01295 0.60571 0.96209 0.0
H1774 H 0.9967 0.54524 0.90527 0.0
H1775 H 0.99705 0.56072 0.92907 0.0
C1776 C 0.38707 0.41632 0.96318 0.0
C1777 C 0.3949 0.41334 0.97488 0.0
C1778 C 0.39523 0.4273 0.95227 0.0
C1779 C 0.43328 0.44739 0.9354 0.0
H1780 H 0.42037 0.47417 0.91899 0.0
C1781 C 0.4714 0.49777 0.89758 0.0
C1782 C 0.46445 0.4978 0.88307 0.0
C1783 C 0.46253 0.48822 0.90912 0.0
C1784 C 0.42403 0.46669 0.92345 0.0
H1785 H 0.41737 0.42003 0.98488 0.0
H1786 H 0.43157 0.4395 0.96634 0.0
H1787 H 0.40564 0.45619 0.93882 0.0
H1788 H 0.44261 0.48817 0.86956 0.0
H1789 H 0.42708 0.47172 0.88996 0.0
H1790 H 0.4518 0.45808 0.92026 0.0
C1791 C 0.41915 0.43301 0.96513 0.0
C1792 C 0.41559 0.45635 0.93474 0.0
C1793 C 0.41101 0.42191 0.97584 0.0
C1794 C 0.44833 0.48854 0.88065 0.0
C1795 C 0.43943 0.4791 0.8923 0.0
C1796 C 0.44178 0.45782 0.9243 0.0
C1797 C 0.41138 0.43563 0.95299 0.0
C1798 C 0.42016 0.44661 0.9409 0.0
C1799 C 0.44648 0.47863 0.90649 0.0
C1800 C 0.43729 0.46761 0.91825 0.0
H1801 H 0.37464 0.40983 0.96215 0.0
H1802 H 0.38886 0.4289 0.94301 0.0
H1803 H 0.43693 0.43978 0.93951 0.0
H1804 H 0.48375 0.50505 0.90001 0.0
H1805 H 0.46822 0.48826 0.92008 0.0
C1806 C 0.58704 0.98288 0.99859 0.0
C1807 C 0.60293 0.99378 0.99839 0.0
C1808 C 0.57694 0.98137 0.98618 0.0
C1809 C 0.57314 0.00406 0.95673 0.0
H1810 H 0.54479 0.9639 0.93217 0.0
C1811 C 0.54476 0.00161 0.89658 0.0
C1812 C 0.52985 0.98878 0.89185 0.0
C1813 C 0.55244 0.00172 0.91046 0.0
C1814 C 0.5524 0.97516 0.93908 0.0
H1815 H 0.62069 0.01153 0.985 0.0
H1816 H 0.60305 0.0091 0.96362 0.0
H1817 H 0.56035 0.9647 0.95498 0.0
H1818 H 0.51117 0.9661 0.89799 0.0
H1819 H 0.52442 0.96646 0.9226 0.0
H1820 H 0.5652 0.0146 0.94119 0.0
C1821 C 0.59844 0.00169 0.9733 0.0
C1822 C 0.56135 0.9756 0.95209 0.0
C1823 C 0.60852 0.003 0.9855 0.0
C1824 C 0.52269 0.9761 0.90136 0.0
C1825 C 0.53032 0.9763 0.9154 0.0
C1826 C 0.56406 0.00361 0.94393 0.0
C1827 C 0.58256 0.99096 0.97358 0.0
C1828 C 0.57202 0.99011 0.96078 0.0
C1829 C 0.54534 0.98909 0.92009 0.0
C1830 C 0.55384 0.98922 0.93468 0.0
H1831 H 0.58241 0.9756 0.00836 0.0
H1832 H 0.56472 0.97302 0.98663 0.0
H1833 H 0.58114 0.01536 0.96343 0.0
H1834 H 0.55068 0.01138 0.88929 0.0
H1835 H 0.56412 0.01159 0.9134 0.0
C1836 C 0.60538 0.0054 0.0932 0.0
C1837 C 0.60598 0.01411 0.08056 0.0
C1838 C 0.59892 0.0064 0.10718 0.0
C1839 C 0.58748 0.03073 0.13047 0.0
H1840 H 0.56072 0.99129 0.14881 0.0
C1841 C 0.54693 0.02455 0.1795 0.0
C1842 C 0.5452 0.01472 0.19146 0.0
C1843 C 0.55548 0.02553 0.16658 0.0
C1844 C 0.56833 0.00245 0.14398 0.0
H1845 H 0.60054 0.03095 0.07282 0.0
H1846 H 0.58905 0.03253 0.09721 0.0
H1847 H 0.57338 0.99102 0.12505 0.0
H1848 H 0.55169 0.99882 0.19962 0.0
H1849 H 0.56661 0.00052 0.17709 0.0
H1850 H 0.58223 0.04209 0.14939 0.0
C1851 C 0.59374 0.02506 0.09634 0.0
C1852 C 0.57559 0.00229 0.13035 0.0
C1853 C 0.60024 0.02409 0.08234 0.0
C1854 C 0.55259 0.00628 0.19046 0.0
C1855 C 0.56112 0.00725 0.17755 0.0
C1856 C 0.58019 0.03088 0.14413 0.0
C1857 C 0.59286 0.01609 0.10885 0.0
C1858 C 0.58526 0.01642 0.12343 0.0
C1859 C 0.56246 0.01668 0.16534 0.0
C1860 C 0.57053 0.01673 0.15104 0.0
H1861 H 0.60981 0.9977 0.0923 0.0
H1862 H 0.59867 -0.00044 0.11669 0.0
H1863 H 0.59501 0.04184 0.12553 0.0
H1864 H 0.54122 0.03106 0.17982 0.0
H1865 H 0.55615 0.03277 0.15728 0.0
C1866 C 0.99915 0.62008 0.10252 0.0
C1867 C 0.98791 0.61556 0.09005 0.0
C1868 C 0.99737 0.6094 0.11333 0.0
C1869 C 0.96978 0.57232 0.12994 0.0
H1870 H 0.00578 0.57006 0.13785 0.0
C1871 C 0.96971 0.52483 0.16626 0.0
C1872 C 0.98291 0.52997 0.17631 0.0
C1873 C 0.96937 0.53493 0.15578 0.0
C1874 C 0.99567 0.57066 0.13595 0.0
H1875 H 0.96561 0.59647 0.07959 0.0
H1876 H 0.9625 0.57771 0.09862 0.0
H1877 H 0.00666 0.58841 0.11983 0.0
H1878 H 0.0058 0.54993 0.18385 0.0
H1879 H 0.00518 0.56757 0.16581 0.0
H1880 H 0.95886 0.55461 0.14626 0.0
C1881 C 0.97268 0.58958 0.09996 0.0
C1882 C 0.99618 0.58117 0.12559 0.0
C1883 C 0.97449 0.6003 0.08906 0.0
C1884 C 0.99559 0.54552 0.17599 0.0
C1885 C 0.99523 0.55561 0.16563 0.0
C1886 C 0.9693 0.56181 0.14042 0.0
C1887 C 0.9843 0.59392 0.11196 0.0
C1888 C 0.98332 0.58226 0.1226 0.0
C1889 C 0.98222 0.55039 0.15523 0.0
C1890 C 0.98232 0.56101 0.14368 0.0
H1891 H 0.00956 0.63179 0.10375 0.0
H1892 H 0.00637 0.61318 0.12265 0.0
H1893 H 0.95971 0.57295 0.12788 0.0
H1894 H 0.95979 0.51287 0.16621 0.0
H1895 H 0.95921 0.53049 0.14785 0.0
C1896 C 0.39566 0.39205 0.05125 0.0
C1897 C 0.39593 0.40359 0.04241 0.0
C1898 C 0.4059 0.39654 0.06459 0.0
C1899 C 0.43098 0.43106 0.09387 0.0
H1900 H 0.44747 0.40558 0.10482 0.0
C1901 C 0.4748 0.45045 0.14721 0.0
C1902 C 0.47082 0.43892 0.15794 0.0
C1903 C 0.46728 0.44624 0.13205 0.0
C1904 C 0.44292 0.41278 0.10189 0.0
H1905 H 0.40741 0.42887 0.04033 0.0
H1906 H 0.42552 0.43671 0.06329 0.0
H1907 H 0.43114 0.39818 0.08029 0.0
H1908 H 0.45625 0.4138 0.16086 0.0
H1909 H 0.44335 0.40643 0.13427 0.0
H1910 H 0.44283 0.44568 0.11544 0.0
C1911 C 0.41714 0.42419 0.06023 0.0
C1912 C 0.43351 0.40851 0.0879 0.0
C1913 C 0.4068 0.4197 0.04701 0.0
C1914 C 0.45974 0.42295 0.15284 0.0
C1915 C 0.4523 0.41872 0.13763 0.0
C1916 C 0.44051 0.4354 0.10775 0.0
C1917 C 0.41674 0.41268 0.06928 0.0
C1918 C 0.4273 0.41752 0.08379 0.0
C1919 C 0.45572 0.43039 0.12725 0.0
C1920 C 0.44647 0.42624 0.11197 0.0
H1921 H 0.38737 0.37953 0.04802 0.0
H1922 H 0.40507 0.38736 0.0714 0.0
H1923 H 0.42619 0.43811 0.09129 0.0
H1924 H 0.48349 0.46281 0.15065 0.0
H1925 H 0.4703 0.45543 0.12418 0.0
C1926 C 0.67219 0.74753 0.38849 0.0
C1927 C 0.66508 0.73152 0.38253 0.0
C1928 C 0.66513 0.75225 0.39945 0.0
C1929 C 0.63729 0.73659 0.42985 0.0
H1930 H 0.64064 0.77714 0.42963 0.0
C1931 C 0.61565 0.75942 0.48053 0.0
C1932 C 0.6265 0.77499 0.487 0.0
C1933 C 0.61756 0.75363 0.46582 0.0
C1934 C 0.63961 0.76578 0.42985 0.0
H1935 H 0.64477 0.70794 0.38311 0.0
H1936 H 0.63243 0.71621 0.40219 0.0
H1937 H 0.64944 0.76778 0.40748 0.0
H1938 H 0.64723 0.79705 0.48275 0.0
H1939 H 0.65067 0.78696 0.45722 0.0
H1940 H 0.62789 0.73479 0.45241 0.0
C1941 C 0.64355 0.72508 0.39851 0.0
C1942 C 0.64468 0.76044 0.41719 0.0
C1943 C 0.6506 0.72037 0.38754 0.0
C1944 C 0.63879 0.78494 0.4781 0.0
C1945 C 0.64066 0.77919 0.4634 0.0
C1946 C 0.63222 0.74193 0.4425 0.0
C1947 C 0.6508 0.74106 0.40471 0.0
C1948 C 0.64389 0.74595 0.41722 0.0
C1949 C 0.6303 0.76335 0.45728 0.0
C1950 C 0.63364 0.75675 0.44281 0.0
H1951 H 0.68333 0.75642 0.38487 0.0
H1952 H 0.67113 0.76461 0.40416 0.0
H1953 H 0.63668 0.72547 0.43035 0.0
H1954 H 0.6061 0.75148 0.48716 0.0
H1955 H 0.6093 0.74142 0.46131 0.0
C1956 C 0.27293 0.91847 0.44015 0.0
C1957 C 0.2678 0.92827 0.4356 0.0
C1958 C 0.26575 0.90807 0.45177 0.0
C1959 C 0.24022 0.9007 0.48458 0.0
H1960 H 0.2339 0.85867 0.48013 0.0
C1961 C 0.19934 0.85101 0.52211 0.0
C1962 C 0.20472 0.84215 0.52877 0.0
C1963 C 0.20764 0.86166 0.51107 0.0
C1964 C 0.23573 0.87043 0.4816 0.0
H1965 H 0.25097 0.93466 0.43949 0.0
H1966 H 0.23822 0.91627 0.45942 0.0
H1967 H 0.24707 0.8769 0.46005 0.0
H1968 H 0.22311 0.83762 0.52899 0.0
H1969 H 0.23746 0.85606 0.5094 0.0
H1970 H 0.22855 0.89405 0.50594 0.0
C1971 C 0.24802 0.91687 0.45433 0.0
C1972 C 0.24331 0.8809 0.47012 0.0
C1973 C 0.25527 0.92735 0.44281 0.0
C1974 C 0.21854 0.8441 0.52396 0.0
C1975 C 0.22678 0.85468 0.51278 0.0
C1976 C 0.23254 0.89019 0.49596 0.0
C1977 C 0.25321 0.90715 0.45902 0.0
C1978 C 0.24555 0.89613 0.47142 0.0
C1979 C 0.22144 0.86361 0.5063 0.0
C1980 C 0.23013 0.87493 0.49453 0.0
H1981 H 0.28261 0.91895 0.43486 0.0
H1982 H 0.27019 0.90092 0.45523 0.0
H1983 H 0.24204 0.91245 0.48617 0.0
H1984 H 0.18857 0.84955 0.52523 0.0
H1985 H 0.20312 0.8682 0.50606 0.0
C1986 C 0.09085 0.37026 0.41264 0.0
C1987 C 0.09005 0.36056 0.39934 0.0
C1988 C 0.10202 0.37511 0.42514 0.0
C1989 C 0.12643 0.36302 0.44357 0.0
H1990 H 0.14583 0.40447 0.46737 0.0
C1991 C 0.16831 0.37947 0.49809 0.0
C1992 C 0.16553 0.38627 0.51165 0.0
C1993 C 0.16144 0.37841 0.48321 0.0
C1994 C 0.14047 0.39283 0.46086 0.0
H1995 H 0.10069 0.34879 0.38845 0.0
H1996 H 0.12027 0.35737 0.4102 0.0
H1997 H 0.12934 0.39866 0.44334 0.0
H1998 H 0.15378 0.39774 0.52014 0.0
H1999 H 0.1418 0.39588 0.4942 0.0
H2000 H 0.13724 0.35704 0.46121 0.0
C2001 C 0.1121 0.36102 0.41109 0.0
C2002 C 0.13102 0.3895 0.44711 0.0
C2003 C 0.10092 0.35616 0.3986 0.0
C2004 C 0.1563 0.39262 0.50989 0.0
C2005 C 0.14943 0.39155 0.49501 0.0
C2006 C 0.13588 0.36635 0.45728 0.0
C2007 C 0.11265 0.37038 0.4246 0.0
C2008 C 0.12371 0.37446 0.43844 0.0
C2009 C 0.15165 0.3841 0.48157 0.0
C2010 C 0.14283 0.38122 0.46621 0.0
H2011 H 0.08265 0.37387 0.41358 0.0
H2012 H 0.102 0.38214 0.43546 0.0
H2013 H 0.12079 0.35123 0.43733 0.0
H2014 H 0.17557 0.37471 0.49904 0.0
H2015 H 0.16359 0.37286 0.47302 0.0
C2016 C 0.07477 0.32145 0.3109 0.0
C2017 C 0.06236 0.30949 0.31827 0.0
C2018 C 0.07908 0.31792 0.2965 0.0
C2019 C 0.07588 0.28497 0.27029 0.0
H2020 H 0.09003 0.31616 0.23958 0.0
C2021 C 0.09418 0.27647 0.20755 0.0
C2022 C 0.10842 0.28938 0.20386 0.0
C2023 C 0.08719 0.27778 0.22103 0.0
C2024 C 0.08612 0.30736 0.24806 0.0
H2025 H 0.04476 0.28436 0.31632 0.0
H2026 H 0.05216 0.27821 0.29092 0.0
H2027 H 0.08008 0.32042 0.26392 0.0
H2028 H 0.12667 0.3136 0.21186 0.0
H2029 H 0.11426 0.31597 0.23496 0.0
H2030 H 0.08196 0.27193 0.25422 0.0
C2031 C 0.05868 0.2903 0.29644 0.0
C2032 C 0.08049 0.30981 0.26203 0.0
C2033 C 0.05441 0.29384 0.31095 0.0
C2034 C 0.11551 0.30356 0.21403 0.0
C2035 C 0.10845 0.30491 0.22733 0.0
C2036 C 0.08141 0.28245 0.25618 0.0
C2037 C 0.07102 0.30234 0.28899 0.0
C2038 C 0.07564 0.29885 0.2735 0.0
C2039 C 0.09421 0.29208 0.23095 0.0
C2040 C 0.08689 0.2938 0.24512 0.0
H2041 H 0.08124 0.33361 0.31627 0.0
H2042 H 0.08887 0.32742 0.29132 0.0
H2043 H 0.07233 0.27635 0.27891 0.0
H2044 H 0.08833 0.26542 0.19992 0.0
H2045 H 0.07617 0.26773 0.22355 0.0
C2046 C 0.67151 0.73703 0.30825 0.0
C2047 C 0.68194 0.73376 0.31517 0.0
C2048 C 0.6758 0.74725 0.29631 0.0
C2049 C 0.70936 0.77933 0.27861 0.0
H2050 H 0.6791 0.76862 0.24388 0.0
C2051 C 0.72143 0.81597 0.22409 0.0
C2052 C 0.71006 0.81907 0.21979 0.0
C2053 C 0.71891 0.80547 0.2355 0.0
C2054 C 0.68765 0.7718 0.25354 0.0
H2055 H 0.70516 0.73878 0.31507 0.0
H2056 H 0.71263 0.75657 0.29396 0.0
H2057 H 0.67312 0.75027 0.26403 0.0
H2058 H 0.68738 0.81402 0.22461 0.0
H2059 H 0.68292 0.79557 0.2442 0.0
H2060 H 0.72386 0.80092 0.26797 0.0
C2061 C 0.70116 0.75131 0.29793 0.0
C2062 C 0.68422 0.76132 0.26511 0.0
C2063 C 0.69686 0.74107 0.30997 0.0
C2064 C 0.69623 0.81162 0.22732 0.0
C2065 C 0.69368 0.80107 0.23859 0.0
C2066 C 0.71283 0.78981 0.26694 0.0
C2067 C 0.69062 0.75442 0.2909 0.0
C2068 C 0.6949 0.76508 0.27797 0.0
C2069 C 0.70493 0.79779 0.24272 0.0
C2070 C 0.70188 0.78626 0.25446 0.0
H2071 H 0.65997 0.73171 0.31206 0.0
H2072 H 0.66751 0.74965 0.29141 0.0
H2073 H 0.7178 0.78263 0.28841 0.0
H2074 H 0.73216 0.82141 0.21843 0.0
H2075 H 0.72775 0.80309 0.23842 0.0
C2076 C 0.24335 0.92573 0.36043 0.0
C2077 C 0.25871 0.93833 0.36363 0.0
C2078 C 0.23554 0.92347 0.34574 0.0
C2079 C 0.24333 0.93065 0.30445 0.0
H2080 H 0.20163 0.92091 0.29881 0.0
C2081 C 0.21608 0.92305 0.2421 0.0
C2082 C 0.2007 0.91071 0.23875 0.0
C2083 C 0.22249 0.92771 0.25774 0.0
C2084 C 0.21322 0.92345 0.30017 0.0
H2085 H 0.27773 0.95879 0.35412 0.0
H2086 H 0.26414 0.95473 0.32851 0.0
H2087 H 0.21392 0.92647 0.32563 0.0
H2088 H 0.17976 0.89382 0.24897 0.0
H2089 H 0.19106 0.90155 0.27639 0.0
H2090 H 0.24262 0.92714 0.27923 0.0
C2091 C 0.25818 0.94657 0.33734 0.0
C2092 C 0.22025 0.92668 0.31553 0.0
C2093 C 0.26592 0.94892 0.35204 0.0
C2094 C 0.19165 0.90344 0.25133 0.0
C2095 C 0.19813 0.90792 0.26701 0.0
C2096 C 0.23627 0.92726 0.28917 0.0
C2097 C 0.24301 0.93368 0.33394 0.0
C2098 C 0.23541 0.93039 0.31779 0.0
C2099 C 0.21374 0.91991 0.27037 0.0
C2100 C 0.22115 0.9237 0.28679 0.0
H2101 H 0.23746 0.9174 0.36914 0.0
H2102 H 0.22387 0.91339 0.3434 0.0
H2103 H 0.25491 0.93316 0.30584 0.0
H2104 H 0.22322 0.92895 0.23257 0.0
H2105 H 0.23441 0.93728 0.25987 0.0
C2106 C 0.70192 0.94987 0.35339 0.0
C2107 C 0.68802 0.94933 0.35196 0.0
C2108 C 0.70609 0.94316 0.34103 0.0
C2109 C 0.68906 0.91321 0.30643 0.0
H2110 H 0.72969 0.93598 0.29081 0.0
C2111 C 0.70068 0.89606 0.24504 0.0
C2112 C 0.71438 0.89645 0.24311 0.0
C2113 C 0.69831 0.90195 0.25934 0.0
C2114 C 0.71837 0.92936 0.2952 0.0
H2115 H 0.66774 0.94155 0.33629 0.0
H2116 H 0.67501 0.92993 0.31487 0.0
H2117 H 0.72409 0.94751 0.3141 0.0
H2118 H 0.73639 0.90348 0.2547 0.0
H2119 H 0.73222 0.91386 0.27985 0.0
H2120 H 0.68322 0.89517 0.28754 0.0
C2121 C 0.68261 0.93536 0.32559 0.0
C2122 C 0.71517 0.93597 0.30851 0.0
C2123 C 0.67849 0.94212 0.33785 0.0
C2124 C 0.72574 0.90306 0.25581 0.0
C2125 C 0.72336 0.90901 0.27019 0.0
C2126 C 0.69226 0.9066 0.29321 0.0
C2127 C 0.69637 0.93567 0.32708 0.0
C2128 C 0.70037 0.92811 0.31402 0.0
C2129 C 0.70957 0.90844 0.27211 0.0
C2130 C 0.70683 0.91477 0.2872 0.0
H2131 H 0.70952 0.95536 0.3641 0.0
H2132 H 0.71676 0.94354 0.3425 0.0
H2133 H 0.67764 0.90671 0.31062 0.0
H2134 H 0.69186 0.89145 0.23537 0.0
H2135 H 0.68772 0.90169 0.26028 0.0
C2136 C 0.05395 0.76028 0.30421 0.0
C2137 C 0.05457 0.74653 0.30254 0.0
C2138 C 0.06078 0.77177 0.29344 0.0
C2139 C 0.0748 0.77751 0.25316 0.0
H2140 H 0.10138 0.82175 0.26947 0.0
C2141 C 0.12869 0.83788 0.23162 0.0
C2142 C 0.12322 0.83709 0.21597 0.0
C2143 C 0.11882 0.82778 0.24231 0.0
C2144 C 0.09398 0.80944 0.26475 0.0
H2145 H 0.06264 0.73395 0.28811 0.0
H2146 H 0.07451 0.7539 0.26945 0.0
H2147 H 0.08667 0.80184 0.28772 0.0
H2148 H 0.10304 0.82532 0.19937 0.0
H2149 H 0.08577 0.80784 0.2181 0.0
H2150 H 0.0825 0.78494 0.23031 0.0
C2151 C 0.06866 0.75579 0.27898 0.0
C2152 C 0.08544 0.79807 0.27517 0.0
C2153 C 0.06194 0.7444 0.28976 0.0
C2154 C 0.10758 0.8263 0.21138 0.0
C2155 C 0.09772 0.81618 0.22206 0.0
C2156 C 0.08328 0.78886 0.24275 0.0
C2157 C 0.06823 0.76964 0.28072 0.0
C2158 C 0.076 0.78194 0.26952 0.0
C2159 C 0.10328 0.81665 0.23757 0.0
C2160 C 0.09318 0.80491 0.24846 0.0
H2161 H 0.04835 0.76226 0.31394 0.0
H2162 H 0.06019 0.78229 0.29501 0.0
H2163 H 0.06748 0.76519 0.24843 0.0
H2164 H 0.14064 0.8462 0.23557 0.0
H2165 H 0.1235 0.82834 0.25412 0.0
C2166 C 0.25554 0.33631 0.32563 0.0
C2167 C 0.25373 0.32562 0.33664 0.0
C2168 C 0.24481 0.33148 0.31273 0.0
C2169 C 0.21535 0.29608 0.28747 0.0
H2170 H 0.20453 0.32531 0.27337 0.0
C2171 C 0.17389 0.28143 0.23182 0.0
C2172 C 0.17918 0.29358 0.22161 0.0
C2173 C 0.18139 0.28431 0.24687 0.0
C2174 C 0.20747 0.31703 0.27714 0.0
H2175 H 0.2391 0.30148 0.3428 0.0
H2176 H 0.22026 0.29305 0.3202 0.0
H2177 H 0.22041 0.33224 0.29805 0.0
H2178 H 0.19684 0.31811 0.21905 0.0
H2179 H 0.20968 0.32313 0.24521 0.0
H2180 H 0.20256 0.281 0.26635 0.0
C2181 C 0.23009 0.30514 0.32154 0.0
C2182 C 0.21658 0.321 0.29126 0.0
C2183 C 0.24084 0.31 0.33451 0.0
C2184 C 0.19218 0.30859 0.22674 0.0
C2185 C 0.19958 0.31148 0.24175 0.0
C2186 C 0.20618 0.29208 0.27333 0.0
C2187 C 0.23198 0.31584 0.31049 0.0
C2188 C 0.22093 0.31076 0.2964 0.0
C2189 C 0.19426 0.29941 0.252 0.0
C2190 C 0.20246 0.3027 0.26784 0.0
H2191 H 0.26535 0.34842 0.32687 0.0
H2192 H 0.24676 0.33995 0.3043 0.0
H2193 H 0.21858 0.28798 0.29105 0.0
H2194 H 0.16386 0.26977 0.22827 0.0
H2195 H 0.17702 0.2748 0.25456 0.0
C2196 C 0.27123 0.34957 0.42638 0.0
C2197 C 0.26918 0.35453 0.41187 0.0
C2198 C 0.26788 0.35472 0.44057 0.0
C2199 C 0.24477 0.37028 0.45587 0.0
H2200 H 0.26912 0.37868 0.49526 0.0
C2201 C 0.2301 0.3891 0.5154 0.0
C2202 C 0.2299 0.38075 0.52821 0.0
C2203 C 0.23649 0.38801 0.50137 0.0
C2204 C 0.26218 0.37632 0.48436 0.0
H2205 H 0.26236 0.36911 0.40095 0.0
H2206 H 0.2567 0.37827 0.42578 0.0
H2207 H 0.2774 0.37302 0.47028 0.0
H2208 H 0.23681 0.36526 0.53661 0.0
H2209 H 0.24788 0.36327 0.51209 0.0
H2210 H 0.22947 0.37339 0.46998 0.0
C2211 C 0.26067 0.37019 0.42614 0.0
C2212 C 0.2669 0.37305 0.47005 0.0
C2213 C 0.26398 0.365 0.41192 0.0
C2214 C 0.23668 0.37172 0.52689 0.0
C2215 C 0.24315 0.3707 0.5129 0.0
C2216 C 0.24009 0.37361 0.47017 0.0
C2217 C 0.26245 0.365 0.44062 0.0
C2218 C 0.25813 0.36975 0.45566 0.0
C2219 C 0.24291 0.37864 0.49989 0.0
C2220 C 0.24861 0.37643 0.4846 0.0
H2221 H 0.27518 0.34148 0.42679 0.0
H2222 H 0.26917 0.35029 0.45146 0.0
H2223 H 0.23762 0.36758 0.44505 0.0
H2224 H 0.22483 0.39604 0.51602 0.0
H2225 H 0.23626 0.39438 0.49161 0.0
C2226 C 0.63531 0.93573 0.4336 0.0
C2227 C 0.6413 0.93429 0.4193 0.0
C2228 C 0.63093 0.92433 0.44443 0.0
C2229 C 0.62148 0.88325 0.44803 0.0
H2230 H 0.63426 0.89818 0.49257 0.0
C2231 C 0.62616 0.84532 0.49344 0.0
C2232 C 0.62172 0.8462 0.50885 0.0
C2233 C 0.62645 0.85526 0.48242 0.0
C2234 C 0.63039 0.89379 0.48021 0.0
H2235 H 0.64714 0.91957 0.40504 0.0
H2236 H 0.63972 0.89988 0.42395 0.0
H2237 H 0.63855 0.91709 0.47346 0.0
H2238 H 0.61388 0.85801 0.52473 0.0
H2239 H 0.61429 0.87533 0.5054 0.0
H2240 H 0.61366 0.85999 0.45476 0.0
C2241 C 0.63819 0.90968 0.42674 0.0
C2242 C 0.63284 0.90463 0.46926 0.0
C2243 C 0.64255 0.92105 0.41593 0.0
C2244 C 0.61726 0.85699 0.5129 0.0
C2245 C 0.61763 0.86701 0.5019 0.0
C2246 C 0.61907 0.87242 0.45898 0.0
C2247 C 0.63243 0.91123 0.44118 0.0
C2248 C 0.62863 0.89953 0.45299 0.0
C2249 C 0.62236 0.86634 0.48658 0.0
C2250 C 0.62371 0.8776 0.47516 0.0
H2251 H 0.63414 0.94576 0.43652 0.0
H2252 H 0.62637 0.92578 0.45536 0.0
H2253 H 0.61784 0.87889 0.43564 0.0
H2254 H 0.62951 0.83701 0.48993 0.0
H2255 H 0.6303 0.85456 0.47078 0.0
C2256 C 0.06413 0.74021 0.38981 0.0
C2257 C 0.07015 0.73815 0.3758 0.0
C2258 C 0.07287 0.74516 0.40432 0.0
C2259 C 0.10418 0.74531 0.42555 0.0
H2260 H 0.10553 0.77835 0.45379 0.0
C2261 C 0.13906 0.76794 0.48687 0.0
C2262 C 0.13215 0.77123 0.49937 0.0
C2263 C 0.1326 0.76463 0.47124 0.0
C2264 C 0.10514 0.76898 0.44613 0.0
H2265 H 0.09004 0.73956 0.36602 0.0
H2266 H 0.10527 0.74803 0.39152 0.0
H2267 H 0.09216 0.77123 0.4275 0.0
H2268 H 0.11281 0.77305 0.50544 0.0
H2269 H 0.10142 0.76701 0.47836 0.0
H2270 H 0.11675 0.74269 0.44435 0.0
C2271 C 0.09379 0.74586 0.39119 0.0
C2272 C 0.09754 0.76497 0.43105 0.0
C2273 C 0.0851 0.7411 0.37661 0.0
C2274 C 0.11856 0.77088 0.49599 0.0
C2275 C 0.11207 0.76747 0.48045 0.0
C2276 C 0.11168 0.74922 0.44073 0.0
C2277 C 0.08776 0.74798 0.40517 0.0
C2278 C 0.0968 0.75295 0.42069 0.0
C2279 C 0.11906 0.76443 0.46784 0.0
C2280 C 0.11205 0.76095 0.4513 0.0
H2281 H 0.05265 0.73804 0.3896 0.0
H2282 H 0.06787 0.74653 0.41494 0.0
H2283 H 0.10368 0.73592 0.41782 0.0
H2284 H 0.14958 0.76821 0.48915 0.0
H2285 H 0.13836 0.76248 0.4618 0.0
C2286 C 0.31456 0.05228 0.71573 0.0
C2287 C 0.32893 0.06331 0.71044 0.0
C2288 C 0.30781 0.05715 0.72695 0.0
C2289 C 0.30971 0.0928 0.74608 0.0
H2290 H 0.29355 0.0673 0.78151 0.0
C2291 C 0.30506 0.11771 0.80743 0.0
C2292 C 0.29277 0.1079 0.8164 0.0
C2293 C 0.30679 0.11183 0.79272 0.0
C2294 C 0.29772 0.07441 0.77156 0.0
H2295 H 0.34729 0.08817 0.71248 0.0
H2296 H 0.33563 0.09661 0.73217 0.0
H2297 H 0.30167 0.05772 0.759 0.0
H2298 H 0.2723 0.08446 0.81673 0.0
H2299 H 0.27526 0.07418 0.79089 0.0
H2300 H 0.3062 0.10972 0.75892 0.0
C2301 C 0.32947 0.08423 0.72752 0.0
C2302 C 0.30239 0.06892 0.75865 0.0
C2303 C 0.33622 0.07936 0.71631 0.0
C2304 C 0.28185 0.0923 0.81004 0.0
C2305 C 0.28362 0.08638 0.79533 0.0
C2306 C 0.30505 0.0983 0.759 0.0
C2307 C 0.31527 0.07316 0.7331 0.0
C2308 C 0.30875 0.07821 0.74592 0.0
C2309 C 0.29629 0.096 0.78667 0.0
C2310 C 0.29932 0.08932 0.77204 0.0
H2311 H 0.30859 0.03983 0.71137 0.0
H2312 H 0.29677 0.04836 0.73088 0.0
H2313 H 0.31429 0.1001 0.73632 0.0
H2314 H 0.31355 0.12984 0.81196 0.0
H2315 H 0.31675 0.11952 0.78643 0.0
C2316 C 0.96099 0.26057 0.77988 0.0
C2317 C 0.95749 0.25547 0.76357 0.0
C2318 C 0.95314 0.25003 0.79117 0.0
C2319 C 0.92934 0.20776 0.79773 0.0
H2320 H 0.91267 0.22252 0.83015 0.0
C2321 C 0.88365 0.16551 0.83827 0.0
C2322 C 0.88411 0.17142 0.85396 0.0
C2323 C 0.89355 0.17557 0.82756 0.0
C2324 C 0.91745 0.21827 0.82138 0.0
H2325 H 0.94343 0.23513 0.74634 0.0
H2326 H 0.92977 0.21667 0.76614 0.0
H2327 H 0.92857 0.24033 0.81099 0.0
H2328 H 0.89564 0.19226 0.87097 0.0
H2329 H 0.91321 0.20977 0.85247 0.0
H2330 H 0.91831 0.18571 0.80819 0.0
C2331 C 0.93859 0.22885 0.77014 0.0
C2332 C 0.92653 0.22848 0.81037 0.0
C2333 C 0.94637 0.23944 0.75881 0.0
C2334 C 0.89491 0.18747 0.85887 0.0
C2335 C 0.90492 0.19749 0.84823 0.0
C2336 C 0.92036 0.19756 0.80887 0.0
C2337 C 0.9417 0.23412 0.78642 0.0
C2338 C 0.93251 0.22333 0.79838 0.0
C2339 C 0.90423 0.19173 0.83237 0.0
C2340 C 0.91423 0.20266 0.8208 0.0
H2341 H 0.96953 0.27283 0.78396 0.0
H2342 H 0.9559 0.25437 0.80365 0.0
H2343 H 0.93392 0.20353 0.78869 0.0
H2344 H 0.87531 0.1532 0.83414 0.0
H2345 H 0.89251 0.17076 0.81541 0.0
C2346 C 0.76366 0.69825 0.73232 0.0
C2347 C 0.75974 0.68461 0.72229 0.0
C2348 C 0.77376 0.70288 0.74582 0.0
C2349 C 0.78697 0.68548 0.77394 0.0
H2350 H 0.81708 0.72924 0.78942 0.0
C2351 C 0.82475 0.70024 0.83126 0.0
C2352 C 0.82632 0.71245 0.84201 0.0
C2353 C 0.81875 0.69814 0.81567 0.0
C2354 C 0.80865 0.71697 0.78529 0.0
H2355 H 0.76397 0.66561 0.71813 0.0
H2356 H 0.78165 0.67376 0.74157 0.0
H2357 H 0.80272 0.72325 0.76372 0.0
H2358 H 0.82339 0.7324 0.84477 0.0
H2359 H 0.81266 0.7286 0.81754 0.0
H2360 H 0.79253 0.67913 0.79553 0.0
C2361 C 0.77671 0.68072 0.73916 0.0
C2362 C 0.80044 0.71355 0.77058 0.0
C2363 C 0.76663 0.67609 0.72568 0.0
C2364 C 0.82238 0.72294 0.83668 0.0
C2365 C 0.81627 0.72077 0.82108 0.0
C2366 C 0.79512 0.68888 0.78861 0.0
C2367 C 0.78014 0.69395 0.74957 0.0
C2368 C 0.78947 0.69775 0.76478 0.0
C2369 C 0.81407 0.70812 0.8105 0.0
C2370 C 0.80602 0.70466 0.79451 0.0
H2371 H 0.75858 0.7051 0.73002 0.0
H2372 H 0.77608 0.71307 0.75366 0.0
H2373 H 0.77838 0.67321 0.76999 0.0
H2374 H 0.82796 0.69216 0.83498 0.0
H2375 H 0.81755 0.68851 0.80772 0.0
C2376 C 0.73387 0.65419 0.64167 0.0
C2377 C 0.74385 0.66961 0.64913 0.0
C2378 C 0.73743 0.64924 0.62746 0.0
C2379 C 0.76128 0.66547 0.59355 0.0
H2380 H 0.75477 0.62351 0.58601 0.0
C2381 C 0.78888 0.64997 0.54351 0.0
C2382 C 0.77984 0.63531 0.53429 0.0
C2383 C 0.78352 0.65341 0.55719 0.0
C2384 C 0.75647 0.63519 0.58788 0.0
H2385 H 0.76556 0.69177 0.64773 0.0
H2386 H 0.77185 0.68309 0.62318 0.0
H2387 H 0.74728 0.63086 0.61073 0.0
H2388 H 0.75809 0.61268 0.53236 0.0
H2389 H 0.74875 0.6187 0.55646 0.0
H2390 H 0.77065 0.6699 0.57086 0.0
C2391 C 0.76112 0.67491 0.62809 0.0
C2392 C 0.75218 0.6394 0.60202 0.0
C2393 C 0.75756 0.67986 0.64224 0.0
C2394 C 0.76537 0.62405 0.53925 0.0
C2395 C 0.76002 0.62748 0.55303 0.0
C2396 C 0.76559 0.66128 0.57948 0.0
C2397 C 0.75104 0.65961 0.62043 0.0
C2398 C 0.75475 0.65469 0.6051 0.0
C2399 C 0.76901 0.64226 0.56207 0.0
C2400 C 0.76344 0.64619 0.57658 0.0
H2401 H 0.7232 0.64601 0.64668 0.0
H2402 H 0.72937 0.63741 0.6218 0.0
H2403 H 0.76308 0.6772 0.59538 0.0
H2404 H 0.80024 0.65876 0.54029 0.0
H2405 H 0.79085 0.66477 0.56408 0.0
C2406 C 0.3352 0.06899 0.63595 0.0
C2407 C 0.34542 0.06546 0.64292 0.0
C2408 C 0.33985 0.07957 0.62431 0.0
C2409 C 0.37411 0.11219 0.60803 0.0
H2410 H 0.3449 0.10291 0.57269 0.0
C2411 C 0.38812 0.15071 0.55473 0.0
C2412 C 0.37689 0.15396 0.55025 0.0
C2413 C 0.38522 0.13988 0.56589 0.0
C2414 C 0.35316 0.1057 0.58253 0.0
H2415 H 0.36859 0.07033 0.64318 0.0
H2416 H 0.37668 0.08871 0.62261 0.0
H2417 H 0.33811 0.0838 0.5922 0.0
H2418 H 0.35414 0.14897 0.5546 0.0
H2419 H 0.34904 0.12999 0.57378 0.0
H2420 H 0.38915 0.13415 0.59822 0.0
C2421 C 0.3651 0.0834 0.62631 0.0
C2422 C 0.34926 0.09477 0.59373 0.0
C2423 C 0.36045 0.07281 0.63803 0.0
C2424 C 0.36288 0.14643 0.55744 0.0
C2425 C 0.35996 0.13558 0.56847 0.0
C2426 C 0.37805 0.12311 0.59673 0.0
C2427 C 0.35482 0.08685 0.61928 0.0
C2428 C 0.35956 0.09801 0.60678 0.0
C2429 C 0.37101 0.13206 0.57269 0.0
C2430 C 0.36748 0.12008 0.58404 0.0
H2431 H 0.32358 0.06364 0.63953 0.0
H2432 H 0.33173 0.0822 0.61939 0.0
H2433 H 0.38227 0.11509 0.618 0.0
H2434 H 0.399 0.15625 0.54934 0.0
H2435 H 0.39392 0.13734 0.56891 0.0
C2436 C 0.93753 0.26933 0.67363 0.0
C2437 C 0.93021 0.26505 0.68786 0.0
C2438 C 0.92909 0.26664 0.65934 0.0
C2439 C 0.89068 0.24185 0.63909 0.0
H2440 H 0.90745 0.27407 0.60945 0.0
C2441 C 0.86073 0.23251 0.57671 0.0
C2442 C 0.87052 0.23685 0.56422 0.0
C2443 C 0.86681 0.23693 0.59253 0.0
C2444 C 0.90264 0.26493 0.61757 0.0
H2445 H 0.90821 0.25447 0.69819 0.0
H2446 H 0.89338 0.24964 0.67304 0.0
H2447 H 0.92027 0.27978 0.63588 0.0
H2448 H 0.89431 0.24973 0.55848 0.0
H2449 H 0.9049 0.25722 0.58596 0.0
H2450 H 0.87327 0.22685 0.62059 0.0
C2451 C 0.9057 0.2551 0.67305 0.0
C2452 C 0.90998 0.2682 0.6327 0.0
C2453 C 0.91419 0.2579 0.68743 0.0
C2454 C 0.88647 0.24604 0.56785 0.0
C2455 C 0.89254 0.25049 0.58361 0.0
C2456 C 0.88334 0.23855 0.6239 0.0
C2457 C 0.91309 0.25953 0.65887 0.0
C2458 C 0.90429 0.25658 0.6435 0.0
C2459 C 0.8828 0.24588 0.59615 0.0
C2460 C 0.88945 0.24994 0.61285 0.0
H2461 H 0.94985 0.27485 0.67351 0.0
H2462 H 0.93509 0.26994 0.64858 0.0
H2463 H 0.88608 0.23263 0.64712 0.0
H2464 H 0.84838 0.22536 0.57426 0.0
H2465 H 0.85901 0.2333 0.60193 0.0
C2466 C 0.36591 0.28443 0.68408 0.0
C2467 C 0.35153 0.2829 0.68288 0.0
C2468 C 0.37015 0.27754 0.67197 0.0
C2469 C 0.35358 0.24622 0.63843 0.0
H2470 H 0.3938 0.27046 0.62211 0.0
C2471 C 0.36606 0.22898 0.57748 0.0
C2472 C 0.38021 0.23033 0.57564 0.0
C2473 C 0.36331 0.23474 0.59163 0.0
C2474 C 0.38262 0.26344 0.62671 0.0
H2475 H 0.33037 0.27297 0.66801 0.0
H2476 H 0.33778 0.26106 0.64696 0.0
H2477 H 0.3876 0.28183 0.64499 0.0
H2478 H 0.40262 0.23889 0.58724 0.0
H2479 H 0.3978 0.24905 0.61212 0.0
H2480 H 0.34848 0.22794 0.62008 0.0
C2481 C 0.34572 0.26742 0.65732 0.0
C2482 C 0.37906 0.26996 0.63979 0.0
C2483 C 0.34151 0.27435 0.66934 0.0
C2484 C 0.39162 0.23772 0.58829 0.0
C2485 C 0.38887 0.24354 0.60251 0.0
C2486 C 0.35713 0.23971 0.62541 0.0
C2487 C 0.36006 0.2689 0.6585 0.0
C2488 C 0.36439 0.26154 0.64557 0.0
C2489 C 0.37465 0.24205 0.60432 0.0
C2490 C 0.37157 0.24838 0.61918 0.0
H2491 H 0.3739 0.29094 0.69436 0.0
H2492 H 0.38124 0.27881 0.67325 0.0
H2493 H 0.34229 0.2393 0.64283 0.0
H2494 H 0.35716 0.22376 0.56783 0.0
H2495 H 0.35237 0.23375 0.59248 0.0
C2496 C 0.72285 0.06785 0.61093 0.0
C2497 C 0.72068 0.07275 0.62607 0.0
C2498 C 0.73122 0.07899 0.6003 0.0
C2499 C 0.7443 0.11879 0.58966 0.0
H2500 H 0.77751 0.11676 0.57169 0.0
C2501 C 0.78826 0.16698 0.55184 0.0
C2502 C 0.79387 0.16198 0.53935 0.0
C2503 C 0.7789 0.1563 0.56246 0.0
C2504 C 0.76814 0.11737 0.57635 0.0
H2505 H 0.7251 0.09309 0.64173 0.0
H2506 H 0.73955 0.11257 0.62294 0.0
H2507 H 0.76153 0.0976 0.58983 0.0
H2508 H 0.79364 0.14189 0.52762 0.0
H2509 H 0.7769 0.12311 0.54568 0.0
H2510 H 0.75062 0.1383 0.57588 0.0
C2511 C 0.73483 0.1001 0.61942 0.0
C2512 C 0.75904 0.10643 0.58682 0.0
C2513 C 0.72664 0.08897 0.63017 0.0
C2514 C 0.78965 0.14607 0.53734 0.0
C2515 C 0.78012 0.13535 0.54776 0.0
C2516 C 0.75328 0.12963 0.57898 0.0
C2517 C 0.7374 0.09521 0.6045 0.0
C2518 C 0.74703 0.107 0.59353 0.0
C2519 C 0.77481 0.14036 0.56062 0.0
C2520 C 0.76528 0.12902 0.57214 0.0
H2521 H 0.71841 0.05545 0.6074 0.0
H2522 H 0.73293 0.07492 0.5888 0.0
H2523 H 0.73504 0.1194 0.59464 0.0
H2524 H 0.79144 0.17923 0.55363 0.0
H2525 H 0.77518 0.16064 0.5723 0.0
C2526 C 0.9035 0.64938 0.66603 0.0
C2527 C 0.91754 0.66411 0.66788 0.0
C2528 C 0.89338 0.64522 0.65265 0.0
C2529 C 0.88436 0.66227 0.61974 0.0
H2530 H 0.86603 0.62005 0.59789 0.0
C2531 C 0.85961 0.64742 0.55501 0.0
C2532 C 0.8457 0.63292 0.55079 0.0
C2533 C 0.86704 0.6507 0.57006 0.0
C2534 C 0.87087 0.63181 0.60399 0.0
H2535 H 0.93186 0.68611 0.65725 0.0
H2536 H 0.91431 0.6788 0.6339 0.0
H2537 H 0.8814 0.62691 0.623 0.0
H2538 H 0.82875 0.61043 0.5591 0.0
H2539 H 0.84189 0.61614 0.58551 0.0
H2540 H 0.8741 0.66728 0.60059 0.0
C2541 C 0.91101 0.67053 0.64286 0.0
C2542 C 0.87967 0.63574 0.61837 0.0
C2543 C 0.92112 0.67469 0.65622 0.0
C2544 C 0.8395 0.62166 0.56195 0.0
C2545 C 0.847 0.62494 0.57706 0.0
C2546 C 0.8756 0.65836 0.60537 0.0
C2547 C 0.89708 0.65571 0.64086 0.0
C2548 C 0.88672 0.6511 0.62627 0.0
C2549 C 0.86082 0.63954 0.58129 0.0
C2550 C 0.86898 0.64317 0.5972 0.0
H2551 H 0.90037 0.64097 0.67483 0.0
H2552 H 0.88266 0.63379 0.65154 0.0
H2553 H 0.88937 0.67411 0.62569 0.0
H2554 H 0.86491 0.6562 0.54657 0.0
H2555 H 0.87785 0.66191 0.57282 0.0
C2556 C 0.93257 0.68349 0.75882 0.0
C2557 C 0.93335 0.69075 0.74492 0.0
C2558 C 0.92955 0.68878 0.77313 0.0
C2559 C 0.91216 0.71055 0.789 0.0
H2560 H 0.93035 0.70922 0.82912 0.0
C2561 C 0.89738 0.72778 0.84951 0.0
C2562 C 0.89319 0.71645 0.86048 0.0
C2563 C 0.90433 0.72694 0.83581 0.0
C2564 C 0.92518 0.70964 0.818 0.0
H2565 H 0.93195 0.70954 0.73523 0.0
H2566 H 0.92692 0.71896 0.76032 0.0
H2567 H 0.93888 0.70374 0.80425 0.0
H2568 H 0.89354 0.6958 0.86614 0.0
H2569 H 0.90572 0.69436 0.84228 0.0
H2570 H 0.89836 0.71632 0.80283 0.0
C2571 C 0.92838 0.70898 0.76008 0.0
C2572 C 0.93002 0.70645 0.80375 0.0
C2573 C 0.93133 0.70363 0.74572 0.0
C2574 C 0.89656 0.70462 0.85781 0.0
C2575 C 0.90364 0.70388 0.84423 0.0
C2576 C 0.9074 0.71385 0.80327 0.0
C2577 C 0.92733 0.70153 0.77394 0.0
C2578 C 0.92333 0.70652 0.78907 0.0
C2579 C 0.90738 0.71487 0.83296 0.0
C2580 C 0.91364 0.71311 0.81791 0.0
H2581 H 0.93401 0.6735 0.75863 0.0
H2582 H 0.92856 0.68256 0.78347 0.0
H2583 H 0.90661 0.71053 0.77794 0.0
H2584 H 0.89481 0.73696 0.85125 0.0
H2585 H 0.90718 0.73562 0.82736 0.0
C2586 C 0.31221 0.27882 0.76877 0.0
C2587 C 0.3087 0.27378 0.75245 0.0
C2588 C 0.30885 0.26783 0.77984 0.0
C2589 C 0.28494 0.22625 0.78717 0.0
H2590 H 0.32008 0.2342 0.81361 0.0
C2591 C 0.28231 0.17864 0.82472 0.0
C2592 C 0.29155 0.18378 0.83899 0.0
C2593 C 0.28353 0.18968 0.81456 0.0
C2594 C 0.31003 0.23189 0.80662 0.0
H2595 H 0.29824 0.25325 0.73498 0.0
H2596 H 0.29199 0.23399 0.75444 0.0
H2597 H 0.32313 0.25348 0.7956 0.0
H2598 H 0.30878 0.20427 0.85431 0.0
H2599 H 0.31043 0.22363 0.83708 0.0
H2600 H 0.2717 0.20487 0.7984 0.0
C2601 C 0.29749 0.24646 0.75858 0.0
C2602 C 0.31184 0.24294 0.79622 0.0
C2603 C 0.30112 0.25747 0.74748 0.0
C2604 C 0.30169 0.20008 0.84322 0.0
C2605 C 0.30269 0.21113 0.83326 0.0
C2606 C 0.28304 0.21531 0.79781 0.0
C2607 C 0.30163 0.25159 0.77481 0.0
C2608 C 0.29935 0.24017 0.78634 0.0
C2609 C 0.29381 0.2061 0.81865 0.0
C2610 C 0.2956 0.21792 0.80761 0.0
H2611 H 0.31809 0.29131 0.77295 0.0
H2612 H 0.31209 0.27204 0.79231 0.0
H2613 H 0.27513 0.22391 0.77969 0.0
H2614 H 0.27444 0.16608 0.82126 0.0
H2615 H 0.27666 0.18529 0.80335 0.0
C2616 C 0.73994 0.06984 0.71542 0.0
C2617 C 0.74313 0.06372 0.70166 0.0
C2618 C 0.74966 0.07493 0.72925 0.0
C2619 C 0.77791 0.06959 0.75013 0.0
H2620 H 0.788 0.10842 0.77506 0.0
C2621 C 0.79967 0.08437 0.81649 0.0
C2622 C 0.81065 0.10026 0.82192 0.0
C2623 C 0.79345 0.08026 0.80075 0.0
C2624 C 0.78546 0.09765 0.76815 0.0
H2625 H 0.75904 0.05812 0.69162 0.0
H2626 H 0.77603 0.06698 0.71589 0.0
H2627 H 0.77326 0.10092 0.74951 0.0
H2628 H 0.82443 0.12415 0.81484 0.0
H2629 H 0.8135 0.11698 0.78738 0.0
H2630 H 0.78998 0.06625 0.76893 0.0
C2631 C 0.76596 0.06779 0.71593 0.0
C2632 C 0.77688 0.09327 0.7536 0.0
C2633 C 0.75628 0.0628 0.70202 0.0
C2634 C 0.81577 0.11184 0.81109 0.0
C2635 C 0.80953 0.10774 0.79537 0.0
C2636 C 0.78643 0.07392 0.76477 0.0
C2637 C 0.76276 0.07394 0.72967 0.0
C2638 C 0.77283 0.0791 0.74454 0.0
C2639 C 0.79807 0.09196 0.79012 0.0
C2640 C 0.79014 0.08791 0.77401 0.0
H2641 H 0.72989 0.07069 0.71555 0.0
H2642 H 0.74678 0.07942 0.73971 0.0
H2643 H 0.77489 0.05856 0.74344 0.0
H2644 H 0.79534 0.07519 0.82457 0.0
H2645 H 0.78452 0.06803 0.79711 0.0
C2646 C 0.049 0.36564 0.06187 0.0
C2647 C 0.04318 0.3606 0.04594 0.0
C2648 C 0.05533 0.35836 0.06981 0.0
C2649 C 0.07105 0.33272 0.06308 0.0
H2650 H 0.06243 0.32504 0.10705 0.0
C2651 C 0.08956 0.29677 0.09719 0.0
C2652 C 0.09752 0.30421 0.11203 0.0
C2653 C 0.08155 0.30238 0.08929 0.0
C2654 C 0.06497 0.32715 0.09479 0.0
H2655 H 0.03967 0.34409 0.02576 0.0
H2656 H 0.05047 0.33125 0.03966 0.0
H2657 H 0.05184 0.33791 0.0927 0.0
H2658 H 0.10271 0.32273 0.13065 0.0
H2659 H 0.08865 0.33247 0.11692 0.0
H2660 H 0.08414 0.3219 0.0652 0.0
C2661 C 0.05037 0.34099 0.04598 0.0
C2662 C 0.05898 0.33461 0.08658 0.0
C2663 C 0.04413 0.34833 0.03801 0.0
C2664 C 0.09672 0.31684 0.11917 0.0
C2665 C 0.0886 0.32235 0.11136 0.0
C2666 C 0.07695 0.32517 0.07126 0.0
C2667 C 0.05591 0.3458 0.06203 0.0
C2668 C 0.06206 0.33761 0.07066 0.0
C2669 C 0.08124 0.31542 0.09618 0.0
C2670 C 0.07407 0.32243 0.08723 0.0
H2671 H 0.0485 0.37511 0.06829 0.0
H2672 H 0.05976 0.36258 0.08207 0.0
H2673 H 0.07383 0.33504 0.05091 0.0
H2674 H 0.0901 0.28708 0.09138 0.0
H2675 H 0.07584 0.29672 0.07766 0.0
C2676 C 0.6396 0.67787 0.06856 0.0
C2677 C 0.64199 0.66691 0.07553 0.0
C2678 C 0.64606 0.69326 0.07591 0.0
C2679 C 0.67755 0.72282 0.10469 0.0
H2680 H 0.65483 0.74371 0.10429 0.0
C2681 C 0.69946 0.7847 0.13827 0.0
C2682 C 0.69675 0.79497 0.13028 0.0
C2683 C 0.69321 0.769 0.13187 0.0
C2684 C 0.66138 0.73809 0.10436 0.0
H2685 H 0.65273 0.66339 0.0959 0.0
H2686 H 0.66382 0.69019 0.1088 0.0
H2687 H 0.64253 0.71623 0.093 0.0
H2688 H 0.68619 0.79717 0.10892 0.0
H2689 H 0.67537 0.76989 0.09776 0.0
H2690 H 0.69642 0.74476 0.11606 0.0
C2691 C 0.65716 0.68696 0.09753 0.0
C2692 C 0.65433 0.72235 0.0979 0.0
C2693 C 0.65071 0.67157 0.09018 0.0
C2694 C 0.6882 0.78943 0.11551 0.0
C2695 C 0.68198 0.7738 0.10913 0.0
C2696 C 0.68461 0.7386 0.11119 0.0
C2697 C 0.65503 0.69802 0.0904 0.0
C2698 C 0.66236 0.71457 0.09786 0.0
C2699 C 0.68416 0.76332 0.11737 0.0
C2700 C 0.67664 0.74644 0.11095 0.0
H2701 H 0.63299 0.67469 0.05726 0.0
H2702 H 0.64434 0.70155 0.07001 0.0
H2703 H 0.68412 0.71723 0.10466 0.0
H2704 H 0.70593 0.78863 0.14973 0.0
H2705 H 0.69504 0.76118 0.13852 0.0
C2706 C 0.32929 0.9594 0.03049 0.0
C2707 C 0.34186 0.97389 0.03752 0.0
C2708 C 0.31527 0.95197 0.03754 0.0
C2709 C 0.29305 0.96136 0.0641 0.0
H2710 H 0.26994 0.91646 0.06982 0.0
C2711 C 0.24328 0.93401 0.10504 0.0
C2712 C 0.23077 0.9185 0.10076 0.0
C2713 C 0.25611 0.94063 0.0961 0.0
C2714 C 0.27611 0.92897 0.06807 0.0
H2715 H 0.34972 0.99164 0.05779 0.0
H2716 H 0.32537 0.9787 0.06998 0.0
H2717 H 0.29389 0.92785 0.05666 0.0
H2718 H 0.22152 0.898 0.0834 0.0
H2719 H 0.24382 0.90967 0.06758 0.0
H2720 H 0.27534 0.96256 0.0754 0.0
C2721 C 0.32628 0.97318 0.05894 0.0
C2722 C 0.28985 0.93548 0.06058 0.0
C2723 C 0.34027 0.98053 0.05198 0.0
C2724 C 0.23111 0.90993 0.08706 0.0
C2725 C 0.2439 0.91659 0.07806 0.0
C2726 C 0.27928 0.95485 0.07146 0.0
C2727 C 0.31357 0.95898 0.05167 0.0
C2728 C 0.29857 0.95179 0.05875 0.0
C2729 C 0.25666 0.93192 0.08261 0.0
C2730 C 0.27075 0.93862 0.07375 0.0
H2731 H 0.33014 0.95399 0.01935 0.0
H2732 H 0.30564 0.94102 0.0317 0.0
H2733 H 0.29941 0.97393 0.06258 0.0
H2734 H 0.24342 0.9408 0.11566 0.0
H2735 H 0.26582 0.95238 0.1001 0.0
C2736 C 0.36891 0.04809 0.01192 0.0
C2737 C 0.36304 0.0326 0.00485 0.0
C2738 C 0.36221 0.05656 0.0078 0.0
C2739 C 0.32621 0.05055 0.98953 0.0
H2740 H 0.35185 0.09438 0.98035 0.0
C2741 C 0.30465 0.08072 0.95054 0.0
C2742 C 0.30992 0.0968 0.95453 0.0
C2743 C 0.31033 0.07325 0.95916 0.0
C2744 C 0.34452 0.08223 0.98314 0.0
H2745 H 0.34567 0.01395 0.98777 0.0
H2746 H 0.33421 0.0287 0.9805 0.0
H2747 H 0.36374 0.08086 0.99072 0.0
H2748 H 0.32473 0.11739 0.97122 0.0
H2749 H 0.33477 0.10433 0.98619 0.0
H2750 H 0.30702 0.05178 0.98154 0.0
C2751 C 0.34378 0.03424 0.98943 0.0
C2752 C 0.35134 0.07449 0.98907 0.0
C2753 C 0.35046 0.02583 0.99351 0.0
C2754 C 0.32062 0.10507 0.96769 0.0
C2755 C 0.32636 0.0976 0.97627 0.0
C2756 C 0.31941 0.05827 0.98358 0.0
C2757 C 0.34949 0.04965 0.99658 0.0
C2758 C 0.34226 0.05845 0.99198 0.0
C2759 C 0.32145 0.08168 0.97194 0.0
C2760 C 0.32851 0.07409 0.98 0.0
H2761 H 0.37858 0.05362 0.02073 0.0
H2762 H 0.36683 0.0684 0.01355 0.0
H2763 H 0.31888 0.03829 0.99198 0.0
H2764 H 0.29662 0.07407 0.94032 0.0
H2765 H 0.30648 0.06103 0.95538 0.0
C2766 C 0.97929 0.31675 0.98542 0.0
C2767 C 0.98027 0.3192 0.00206 0.0
C2768 C 0.96891 0.30178 0.97756 0.0
C2769 C 0.94438 0.25909 0.98452 0.0
H2770 H 0.92532 0.25612 0.94324 0.0
C2771 C 0.9047 0.19862 0.94785 0.0
C2772 C 0.89172 0.19649 0.93937 0.0
C2773 C 0.91616 0.21364 0.95486 0.0
C2774 C 0.93039 0.25669 0.95484 0.0
H2775 H 0.97096 0.30805 0.02354 0.0
H2776 H 0.95232 0.28208 0.00982 0.0
H2777 H 0.94307 0.28202 0.95719 0.0
H2778 H 0.88098 0.20872 0.9311 0.0
H2779 H 0.90038 0.23454 0.94397 0.0
H2780 H 0.93101 0.23372 0.98254 0.0
C2781 C 0.95991 0.29154 0.00282 0.0
C2782 C 0.94081 0.2716 0.96276 0.0
C2783 C 0.9705 0.30646 0.01069 0.0
C2784 C 0.89065 0.20981 0.93781 0.0
C2785 C 0.90196 0.22474 0.94499 0.0
C2786 C 0.93377 0.24415 0.9767 0.0
C2787 C 0.95905 0.28897 0.98614 0.0
C2788 C 0.94795 0.27303 0.97771 0.0
C2789 C 0.91483 0.22687 0.95369 0.0
C2790 C 0.92659 0.24275 0.96177 0.0
H2791 H 0.98681 0.32631 0.97845 0.0
H2792 H 0.96884 0.30024 0.96476 0.0
H2793 H 0.94983 0.25967 0.99588 0.0
H2794 H 0.90588 0.18863 0.94939 0.0
H2795 H 0.92603 0.21485 0.96123 0.0
C2796 C 0.67765 0.65092 0.02214 0.0
C2797 C 0.67372 0.64092 0.03442 0.0
C2798 C 0.69165 0.65681 0.0154 0.0
C2799 C 0.73074 0.6654 0.0231 0.0
H2800 H 0.73201 0.66779 0.97754 0.0
C2801 C 0.78541 0.68465 0.98931 0.0
C2802 C 0.78803 0.69436 0.97696 0.0
C2803 C 0.77182 0.67825 0.99704 0.0
C2804 C 0.73188 0.66737 0.9903 0.0
H2805 H 0.68141 0.62918 0.04922 0.0
H2806 H 0.70598 0.63945 0.03729 0.0
H2807 H 0.70743 0.65556 0.98934 0.0
H2808 H 0.77859 0.70526 0.96331 0.0
H2809 H 0.75501 0.69434 0.97699 0.0
H2810 H 0.75526 0.67726 0.02398 0.0
C2811 C 0.6982 0.64281 0.03301 0.0
C2812 C 0.71779 0.66033 0.99706 0.0
C2813 C 0.68411 0.63686 0.03976 0.0
C2814 C 0.77698 0.69794 0.97286 0.0
C2815 C 0.76339 0.69152 0.98056 0.0
C2816 C 0.74487 0.67244 0.01631 0.0
C2817 C 0.70211 0.65285 0.02074 0.0
C2818 C 0.71706 0.65942 0.01355 0.0
C2819 C 0.76054 0.68138 0.99254 0.0
C2820 C 0.74559 0.67366 -0.00015 0.0
H2821 H 0.66996 0.65434 0.01775 0.0
H2822 H 0.6944 0.66472 0.00615 0.0
H2823 H 0.73056 0.66502 0.03586 0.0
H2824 H 0.79379 0.68181 0.99283 0.0
H2825 H 0.76994 0.67045 0.00618 0.0
C2826 C 0.96347 0.64842 0.99939 0.0
C2827 C 0.96321 0.64721 0.01583 0.0
C2828 C 0.95588 0.65472 0.99205 0.0
C2829 C 0.92694 0.66567 0.99768 0.0
H2830 H 0.94811 0.69332 0.96486 0.0
C2831 C 0.90652 0.70347 0.97037 0.0
C2832 C 0.90527 0.70223 0.95368 0.0
C2833 C 0.91408 0.69745 0.97837 0.0
C2834 C 0.94204 0.68557 0.97395 0.0
H2835 H 0.95437 0.65118 0.03744 0.0
H2836 H 0.94134 0.66253 0.02467 0.0
H2837 H 0.95965 0.68076 0.97803 0.0
H2838 H 0.91133 0.69426 0.93228 0.0
H2839 H 0.92474 0.6839 0.94628 0.0
H2840 H 0.90942 0.67073 0.99367 0.0
C2841 C 0.94722 0.65838 0.01738 0.0
C2842 C 0.94859 0.67829 0.98145 0.0
C2843 C 0.95471 0.6519 0.02472 0.0
C2844 C 0.91215 0.69534 0.94515 0.0
C2845 C 0.91985 0.68949 0.95316 0.0
C2846 C 0.92045 0.67308 0.99026 0.0
C2847 C 0.94798 0.66016 0.001 0.0
C2848 C 0.94105 0.66811 0.9933 0.0
C2849 C 0.92066 0.69023 0.96984 0.0
C2850 C 0.92788 0.68299 0.97823 0.0
H2851 H 0.96979 0.64474 0.99219 0.0
H2852 H 0.95636 0.65549 0.97935 0.0
H2853 H 0.92073 0.65778 0.00662 0.0
H2854 H 0.90115 0.70854 0.97722 0.0
H2855 H 0.91465 0.69829 0.99124 0.0
C2856 C 0.34898 0.33575 0.95253 0.0
C2857 C 0.35074 0.33898 0.96914 0.0
C2858 C 0.34294 0.32027 0.94559 0.0
C2859 C 0.31788 0.27888 0.95347 0.0
H2860 H 0.33801 0.26965 0.92027 0.0
C2861 C 0.3017 0.21519 0.93377 0.0
C2862 C 0.30298 0.21138 0.91785 0.0
C2863 C 0.30647 0.23075 0.93925 0.0
C2864 C 0.33206 0.27203 0.92931 0.0
H2865 H 0.34774 0.32858 0.99152 0.0
H2866 H 0.33708 0.30159 0.97938 0.0
H2867 H 0.34882 0.29704 0.93125 0.0
H2868 H 0.30951 0.22055 0.89497 0.0
H2869 H 0.31742 0.24767 0.9044 0.0
H2870 H 0.30102 0.25398 0.95148 0.0
C2871 C 0.34035 0.31102 0.97175 0.0
C2872 C 0.33832 0.28772 0.93564 0.0
C2873 C 0.34656 0.32649 0.97868 0.0
C2874 C 0.30855 0.22326 0.90735 0.0
C2875 C 0.31317 0.23878 0.91279 0.0
C2876 C 0.31152 0.26322 0.94702 0.0
C2877 C 0.33837 0.30775 0.95516 0.0
C2878 C 0.33139 0.29125 0.94792 0.0
C2879 C 0.31248 0.2428 0.92888 0.0
C2880 C 0.31864 0.25957 0.935 0.0
H2881 H 0.35212 0.34513 0.94488 0.0
H2882 H 0.34149 0.31803 0.93276 0.0
H2883 H 0.3122 0.28134 0.96277 0.0
H2884 H 0.29763 0.20628 0.94214 0.0
H2885 H 0.30599 0.23342 0.95176 0.0
C2886 C 0.67083 0.0399 0.02545 0.0
C2887 C 0.67119 0.03465 0.04036 0.0
C2888 C 0.68426 0.04841 0.01768 0.0
C2889 C 0.72236 0.05373 0.01598 0.0
H2890 H 0.72783 0.08386 0.98617 0.0
C2891 C 0.77361 0.08336 0.97574 0.0
C2892 C 0.76927 0.08251 0.9596 0.0
C2893 C 0.76281 0.07892 0.98714 0.0
C2894 C 0.72644 0.07546 0.99447 0.0
H2895 H 0.68612 0.03521 0.0593 0.0
H2896 H 0.70968 0.05045 0.04588 0.0
H2897 H 0.70737 0.07512 0.00426 0.0
H2898 H 0.74999 0.07566 0.94279 0.0
H2899 H 0.73131 0.06833 0.96273 0.0
H2900 H 0.74149 0.05414 0.00606 0.0
C2901 C 0.69892 0.0476 0.04002 0.0
C2902 C 0.71471 0.07043 0.0048 0.0
C2903 C 0.68544 0.03898 0.04777 0.0
C2904 C 0.75382 0.07681 0.95513 0.0
C2905 C 0.74311 0.07259 0.96653 0.0
C2906 C 0.73422 0.05894 0.00576 0.0
C2907 C 0.69843 0.05202 0.02468 0.0
C2908 C 0.71225 0.05916 0.01539 0.0
C2909 C 0.74753 0.07375 0.98265 0.0
C2910 C 0.73609 0.06952 0.99463 0.0
H2911 H 0.66006 0.03679 0.01939 0.0
H2912 H 0.68336 0.05142 0.00582 0.0
H2913 H 0.72071 0.0449 0.02382 0.0
H2914 H 0.78544 0.0879 0.97965 0.0
H2915 H 0.76648 0.07993 -0.00048 0.0
C2916 C 0.64179 0.96777 0.07946 0.0
C2917 C 0.63932 0.97032 0.06383 0.0
C2918 C 0.65045 0.96116 0.08266 0.0
C2919 C 0.66486 0.93733 0.06525 0.0
H2920 H 0.69387 0.95672 0.10232 0.0
C2921 C 0.68733 0.9052 0.09965 0.0
C2922 C 0.70207 0.91401 0.10753 0.0
C2923 C 0.68172 0.91268 0.09096 0.0
C2924 C 0.68606 0.95132 0.09175 0.0
H2925 H 0.64352 0.96734 0.03922 0.0
H2926 H 0.65864 0.95565 0.04488 0.0
H2927 H 0.67958 0.96841 0.09402 0.0
H2928 H 0.72293 0.93731 0.1116 0.0
H2929 H 0.71316 0.95045 0.09624 0.0
H2930 H 0.67122 0.92007 0.06316 0.0
C2931 C 0.65386 0.95883 0.05461 0.0
C2932 C 0.6777 0.9579 0.08714 0.0
C2933 C 0.64521 0.96552 0.05139 0.0
C2934 C 0.71152 0.93025 0.10564 0.0
C2935 C 0.70588 0.93778 0.09697 0.0
C2936 C 0.67322 0.9307 0.0699 0.0
C2937 C 0.65683 0.95691 0.07034 0.0
C2938 C 0.66673 0.95074 0.0741 0.0
C2939 C 0.69073 0.92915 0.08998 0.0
C2940 C 0.68365 0.93743 0.08343 0.0
H2941 H 0.63734 0.97122 0.08931 0.0
H2942 H 0.65224 0.95948 0.09486 0.0
H2943 H 0.6565 0.93158 0.05513 0.0
H2944 H 0.6799 0.8926 0.10074 0.0
H2945 H 0.66998 0.9057 0.08583 0.0
C2946 C 0.04512 0.6902 0.0594 0.0
C2947 C 0.0292 0.6828 0.06042 0.0
C2948 C 0.05522 0.70534 0.06715 0.0
C2949 C 0.05754 0.74155 0.08391 0.0
H2950 H 0.09267 0.74842 0.10953 0.0
C2951 C 0.09584 0.79878 0.12605 0.0
C2952 C 0.11169 0.80496 0.12713 0.0
C2953 C 0.08565 0.78391 0.11781 0.0
C2954 C 0.08304 0.74679 0.10226 0.0
H2955 H 0.01138 0.6856 0.07008 0.0
H2956 H 0.02902 0.71202 0.08349 0.0
H2957 H 0.07539 0.72265 0.09473 0.0
H2958 H 0.12937 0.80074 0.12002 0.0
H2959 H 0.1117 0.77501 0.10546 0.0
H2960 H 0.06526 0.76574 0.09124 0.0
C2961 C 0.03367 0.70613 0.0767 0.0
C2962 C 0.07314 0.73201 0.0938 0.0
C2963 C 0.02359 0.69096 0.06909 0.0
C2964 C 0.11717 0.7961 0.11967 0.0
C2965 C 0.10703 0.78134 0.11134 0.0
C2966 C 0.06752 0.7564 0.09226 0.0
C2967 C 0.04959 0.71341 0.07592 0.0
C2968 C 0.06028 0.72924 0.08456 0.0
C2969 C 0.09113 0.77501 0.11036 0.0
C2970 C 0.08039 0.75919 0.10156 0.0
H2971 H 0.04979 0.68423 0.05281 0.0
H2972 H 0.06745 0.71075 0.06624 0.0
H2973 H 0.04778 0.73977 0.07675 0.0
H2974 H 0.09133 0.80535 0.13175 0.0
H2975 H 0.07346 0.7793 0.11747 0.0
C2976 C 0.31326 0.36394 0.02191 0.0
C2977 C 0.31986 0.35473 0.02176 0.0
C2978 C 0.29875 0.35815 0.02759 0.0
C2979 C 0.26342 0.32116 0.03639 0.0
H2980 H 0.25918 0.34868 0.0675 0.0
C2981 C 0.21547 0.2975 0.07989 0.0
C2982 C 0.2096 0.30692 0.08449 0.0
C2983 C 0.22768 0.30314 0.07008 0.0
C2984 C 0.26003 0.34091 0.05861 0.0
H2985 H 0.31628 0.33208 0.0271 0.0
H2986 H 0.29112 0.32207 0.03698 0.0
H2987 H 0.28282 0.35914 0.05406 0.0
H2988 H 0.21118 0.32915 0.08169 0.0
H2989 H 0.2323 0.33889 0.06438 0.0
H2990 H 0.24071 0.30285 0.0411 0.0
C2991 C 0.29706 0.3337 0.03264 0.0
C2992 C 0.2736 0.34692 0.05092 0.0
C2993 C 0.31156 0.33952 0.02709 0.0
C2994 C 0.21569 0.32176 0.07855 0.0
C2995 C 0.2278 0.32735 0.06867 0.0
C2996 C 0.24981 0.31515 0.04403 0.0
C2997 C 0.29054 0.34298 0.03307 0.0
C2998 C 0.27554 0.33704 0.03994 0.0
C2999 C 0.23416 0.31826 0.06458 0.0
C3000 C 0.24805 0.32489 0.05543 0.0
H3001 H 0.31937 0.37569 0.01784 0.0
H3002 H 0.29394 0.36552 0.02771 0.0
H3003 H 0.26452 0.31332 0.02781 0.0
H3004 H 0.21105 0.28606 0.0844 0.0
H3005 H 0.23241 0.2959 0.06732 0.0
C3006 C 0.7102 0.69212 0.37947 0.0
C3007 C 0.69683 0.69036 0.3854 0.0
C3008 C 0.71806 0.68629 0.38725 0.0
C3009 C 0.72305 0.67352 0.42571 0.0
H3010 H 0.73717 0.65067 0.40011 0.0
C3011 C 0.76472 0.65682 0.45055 0.0
C3012 C 0.76244 0.64209 0.44498 0.0
C3013 C 0.75573 0.66199 0.44408 0.0
C3014 C 0.73315 0.65687 0.40743 0.0
H3015 H 0.68146 0.68148 0.40439 0.0
H3016 H 0.69514 0.6713 0.41789 0.0
H3017 H 0.72393 0.66167 0.38718 0.0
H3018 H 0.74862 0.62097 0.42863 0.0
H3019 H 0.73273 0.62994 0.41738 0.0
H3020 H 0.73216 0.6686 0.44597 0.0
C3021 C 0.6996 0.67725 0.40729 0.0
C3022 C 0.72576 0.66337 0.40001 0.0
C3023 C 0.69172 0.68303 0.3995 0.0
C3024 C 0.75058 0.63235 0.4332 0.0
C3025 C 0.74161 0.63756 0.42666 0.0
C3026 C 0.73048 0.66707 0.43313 0.0
C3027 C 0.71275 0.67864 0.40115 0.0
C3028 C 0.72068 0.67182 0.40906 0.0
C3029 C 0.74427 0.65255 0.43185 0.0
C3030 C 0.73567 0.65872 0.42407 0.0
H3031 H 0.71445 0.69773 0.36865 0.0
H3032 H 0.7283 0.68774 0.38236 0.0
H3033 H 0.71934 0.68005 0.433 0.0
H3034 H 0.77369 0.66451 0.45974 0.0
H3035 H 0.75814 0.67364 0.44827 0.0
C3036 C 0.32027 0.01744 0.40155 0.0
C3037 C 0.31771 0.00484 0.4102 0.0
C3038 C 0.3277 0.03292 0.40894 0.0
C3039 C 0.33726 0.05531 0.4486 0.0
H3040 H 0.36398 0.09107 0.42525 0.0
C3041 C 0.35363 0.11882 0.46862 0.0
C3042 C 0.36823 0.13168 0.46584 0.0
C3043 C 0.34894 0.10335 0.46292 0.0
C3044 C 0.35675 0.08123 0.43204 0.0
H3045 H 0.32117 0.99862 0.43334 0.0
H3046 H 0.33442 0.02566 0.44614 0.0
H3047 H 0.35335 0.06414 0.41306 0.0
H3048 H 0.38956 0.13831 0.45533 0.0
H3049 H 0.3815 0.11117 0.44568 0.0
H3050 H 0.34087 0.07239 0.46768 0.0
C3051 C 0.33041 0.02356 0.43372 0.0
C3052 C 0.35045 0.06577 0.42496 0.0
C3053 C 0.32286 0.00806 0.42637 0.0
C3054 C 0.37826 0.12865 0.4577 0.0
C3055 C 0.37357 0.11312 0.45203 0.0
C3056 C 0.34364 0.07076 0.45572 0.0
C3057 C 0.33287 0.03618 0.42512 0.0
C3058 C 0.34042 0.05262 0.43304 0.0
C3059 C 0.35877 0.10031 0.45439 0.0
C3060 C 0.35324 0.08392 0.44742 0.0
H3061 H 0.31639 0.01535 0.38909 0.0
H3062 H 0.32913 0.04229 0.402 0.0
H3063 H 0.3295 0.0455 0.45515 0.0
H3064 H 0.34573 0.12071 0.4751 0.0
H3065 H 0.33741 0.09384 0.46483 0.0
C3066 C 0.99816 0.29537 0.35632 0.0
C3067 C 0.01196 0.30509 0.36579 0.0
C3068 C 0.98407 0.28822 0.3632 0.0
C3069 C 0.96577 0.29445 0.39626 0.0
H3070 H 0.93566 0.24918 0.39037 0.0
C3071 C 0.91352 0.26495 0.43384 0.0
C3072 C 0.8999 0.2513 0.42719 0.0
C3073 C 0.9267 0.27177 0.42543 0.0
C3074 C 0.94377 0.2619 0.3919 0.0
H3075 H 0.02188 0.31471 0.38992 0.0
H3076 H 0.99725 0.30248 0.40184 0.0
H3077 H 0.95962 0.26011 0.37733 0.0
H3078 H 0.88906 0.23441 0.40637 0.0
H3079 H 0.91186 0.2467 0.3913 0.0
H3080 H 0.94994 0.29648 0.41041 0.0
C3081 C 0.99737 0.30035 0.38913 0.0
C3082 C 0.95754 0.2681 0.3845 0.0
C3083 C 0.01144 0.30724 0.38231 0.0
C3084 C 0.89949 0.2449 0.41176 0.0
C3085 C 0.9126 0.25188 0.40321 0.0
C3086 C 0.95192 0.28832 0.40341 0.0
C3087 C 0.98358 0.29093 0.37962 0.0
C3088 C 0.96873 0.28439 0.38682 0.0
C3089 C 0.92647 0.26523 0.41006 0.0
C3090 C 0.9408 0.27192 0.40153 0.0
H3091 H 0.99822 0.29349 0.34356 0.0
H3092 H 0.97355 0.281 0.35565 0.0
H3093 H 0.97418 0.30711 0.39801 0.0
H3094 H 0.91416 0.26994 0.44583 0.0
H3095 H 0.93719 0.28183 0.43125 0.0
C3096 C 0.06834 0.38646 0.32766 0.0
C3097 C 0.06021 0.37576 0.33888 0.0
C3098 C 0.06365 0.39633 0.32246 0.0
C3099 C 0.02918 0.39833 0.31835 0.0
H3100 H 0.05793 0.44199 0.31034 0.0
C3101 C 0.00869 0.43801 0.29655 0.0
C3102 C 0.01663 0.44733 0.28432 0.0
C3103 C 0.01445 0.43027 0.30463 0.0
C3104 C 0.04977 0.42978 0.31242 0.0
H3105 H 0.04113 0.36749 0.35392 0.0
H3106 H 0.03306 0.38477 0.34493 0.0
H3107 H 0.06744 0.42678 0.32193 0.0
H3108 H 0.03675 0.45572 0.27086 0.0
H3109 H 0.04672 0.44218 0.28485 0.0
H3110 H 0.01154 0.40116 0.30858 0.0
C3111 C 0.0429 0.38535 0.33996 0.0
C3112 C 0.05522 0.42108 0.31905 0.0
C3113 C 0.04759 0.3755 0.34516 0.0
C3114 C 0.0305 0.44886 0.28043 0.0
C3115 C 0.03623 0.44111 0.28846 0.0
C3116 C 0.02374 0.407 0.31169 0.0
C3117 C 0.05072 0.39569 0.32838 0.0
C3118 C 0.04499 0.40523 0.32198 0.0
C3119 C 0.02823 0.43165 0.30059 0.0
C3120 C 0.03398 0.42278 0.30852 0.0
H3121 H 0.07811 0.38695 0.3226 0.0
H3122 H 0.06984 0.40409 0.31342 0.0
H3123 H 0.02103 0.38605 0.32023 0.0
H3124 H 0.99806 0.43677 0.29992 0.0
H3125 H 0.00811 0.42324 0.31406 0.0
C3126 C 0.64166 0.65283 0.32354 0.0
C3127 C 0.63803 0.65792 0.33771 0.0
C3128 C 0.6316 0.63759 0.31604 0.0
C3129 C 0.5911 0.60473 0.31332 0.0
H3130 H 0.60669 0.57912 0.29689 0.0
C3131 C 0.55059 0.53868 0.29292 0.0
C3132 C 0.55324 0.53291 0.27855 0.0
C3133 C 0.5615 0.55375 0.30011 0.0
C3134 C 0.60219 0.5862 0.30127 0.0
H3135 H 0.621 0.65102 0.3551 0.0
H3136 H 0.60351 0.62443 0.34203 0.0
H3137 H 0.62458 0.60604 0.30931 0.0
H3138 H 0.56955 0.53816 0.26068 0.0
H3139 H 0.58871 0.56468 0.27327 0.0
H3140 H 0.56875 0.58498 0.30531 0.0
C3141 C 0.61406 0.63227 0.33665 0.0
C3142 C 0.61242 0.6016 0.30837 0.0
C3143 C 0.62412 0.64749 0.34417 0.0
C3144 C 0.56727 0.5423 0.2718 0.0
C3145 C 0.57821 0.55746 0.279 0.0
C3146 C 0.5809 0.58938 0.30623 0.0
C3147 C 0.61769 0.62715 0.32251 0.0
C3148 C 0.60696 0.61097 0.31457 0.0
C3149 C 0.5753 0.56344 0.29309 0.0
C3150 C 0.58631 0.57989 0.30025 0.0
H3151 H 0.6523 0.66059 0.31825 0.0
H3152 H 0.63464 0.63403 0.30507 0.0
H3153 H 0.58656 0.61177 0.31771 0.0
H3154 H 0.53999 0.53155 0.29854 0.0
H3155 H 0.55907 0.55786 0.31116 0.0
C3156 C 0.33868 0.95405 0.37789 0.0
C3157 C 0.32432 0.94686 0.3693 0.0
C3158 C 0.35155 0.95646 0.37035 0.0
C3159 C 0.3636 0.94505 0.33333 0.0
H3160 H 0.40134 0.98601 0.34357 0.0
C3161 C 0.41339 0.97142 0.29228 0.0
C3162 C 0.4284 0.97863 0.29934 0.0
C3163 C 0.40097 0.96652 0.30165 0.0
C3164 C 0.39094 0.97445 0.34073 0.0
H3165 H 0.31214 0.93615 0.34618 0.0
H3166 H 0.3346 0.94066 0.33296 0.0
H3167 H 0.37905 0.97893 0.35855 0.0
H3168 H 0.44206 0.98617 0.32185 0.0
H3169 H 0.42034 0.97791 0.33821 0.0
H3170 H 0.37544 0.94085 0.31513 0.0
C3171 C 0.33591 0.94419 0.34558 0.0
C3172 C 0.37817 0.97034 0.34934 0.0
C3173 C 0.32302 0.94168 0.35315 0.0
C3174 C 0.43069 0.98088 0.31602 0.0
C3175 C 0.41826 0.9761 0.32539 0.0
C3176 C 0.37634 0.94921 0.32464 0.0
C3177 C 0.35038 0.95183 0.35403 0.0
C3178 C 0.36428 0.95566 0.34563 0.0
C3179 C 0.40328 0.96884 0.31829 0.0
C3180 C 0.39008 0.96402 0.32814 0.0
H3181 H 0.34004 0.95807 0.39039 0.0
H3182 H 0.36246 0.96211 0.37728 0.0
H3183 H 0.35319 0.93353 0.33035 0.0
H3184 H 0.41123 0.96978 0.27948 0.0
H3185 H 0.38957 0.9612 0.29585 0.0
C3186 C 0.6209 0.96574 0.35303 0.0
C3187 C 0.63563 0.97187 0.34763 0.0
C3188 C 0.61023 0.96794 0.345 0.0
C3189 C 0.60737 0.99377 0.31805 0.0
H3190 H 0.56564 0.9581 0.30799 0.0
C3191 C 0.56444 0.9977 0.27643 0.0
C3192 C 0.54912 0.98999 0.28038 0.0
C3193 C 0.57498 0.99544 0.28464 0.0
C3194 C 0.57719 0.96825 0.31088 0.0
H3195 H 0.65074 0.98523 0.32965 0.0
H3196 H 0.63217 0.98912 0.31576 0.0
H3197 H 0.58396 0.9544 0.32276 0.0
H3198 H 0.53287 0.97418 0.29627 0.0
H3199 H 0.55125 0.97041 0.31074 0.0
H3200 H 0.60062 0.0077 0.30638 0.0
C3201 C 0.62889 0.98266 0.3262 0.0
C3202 C 0.58768 0.9661 0.31933 0.0
C3203 C 0.63949 0.98033 0.33412 0.0
C3204 C 0.54455 0.98005 0.29276 0.0
C3205 C 0.55509 0.97788 0.30104 0.0
C3206 C 0.59686 0.99596 0.30971 0.0
C3207 C 0.61414 0.97646 0.33153 0.0
C3208 C 0.60289 0.97882 0.32294 0.0
C3209 C 0.57044 0.98552 0.29708 0.0
C3210 C 0.58164 0.98321 0.30597 0.0
H3211 H 0.61759 0.95917 0.36341 0.0
H3212 H 0.59897 0.96314 0.34944 0.0
H3213 H 0.61898 0.00384 0.32084 0.0
H3214 H 0.56824 0.00533 0.26686 0.0
H3215 H 0.58665 0.00132 0.28111 0.0
C3216 C 0.04174 0.67044 0.32843 0.0
C3217 C 0.03249 0.67664 0.32587 0.0
C3218 C 0.03807 0.65608 0.32026 0.0
C3219 C 0.0059 0.61899 0.30044 0.0
H3220 H 0.03723 0.6158 0.27937 0.0
C3221 C 0.9914 0.56271 0.26073 0.0
C3222 C 0.00205 0.55805 0.26146 0.0
C3223 C 0.99508 0.57736 0.2682 0.0
C3224 C 0.02837 0.61641 0.28536 0.0
H3225 H 0.0121 0.67261 0.31285 0.0
H3226 H 0.00563 0.64745 0.29877 0.0
H3227 H 0.04383 0.64096 0.29355 0.0
H3228 H 0.02468 0.56475 0.27085 0.0
H3229 H 0.03098 0.59007 0.28421 0.0
H3230 H 0.99049 0.5944 0.29265 0.0
C3231 C 0.01571 0.65372 0.30706 0.0
C3232 C 0.03217 0.63084 0.29344 0.0
C3233 C 0.01948 0.66817 0.31505 0.0
C3234 C 0.01637 0.5682 0.26988 0.0
C3235 C 0.01998 0.58273 0.27749 0.0
C3236 C 0.00212 0.6045 0.29252 0.0
C3237 C 0.02499 0.64756 0.30956 0.0
C3238 C 0.02097 0.63226 0.30105 0.0
C3239 C 0.00941 0.58754 0.27671 0.0
C3240 C 0.01332 0.60302 0.28489 0.0
H3241 H 0.05185 0.67672 0.33668 0.0
H3242 H 0.04535 0.6515 0.32248 0.0
H3243 H 0.99708 0.61975 0.30636 0.0
H3244 H 0.98031 0.55512 0.25422 0.0
H3245 H 0.98675 0.58077 0.26715 0.0
C3246 C 0.33044 0.35816 0.35778 0.0
C3247 C 0.32469 0.36693 0.36488 0.0
C3248 C 0.3444 0.36579 0.35079 0.0
C3249 C 0.36999 0.40161 0.33191 0.0
H3250 H 0.39908 0.38856 0.33715 0.0
C3251 C 0.42634 0.43101 0.30072 0.0
C3252 C 0.43062 0.42087 0.29377 0.0
C3253 C 0.41458 0.42543 0.31104 0.0
C3254 C 0.39102 0.39224 0.33546 0.0
H3255 H 0.3292 0.39064 0.37037 0.0
H3256 H 0.35366 0.40401 0.35796 0.0
H3257 H 0.37636 0.37712 0.35234 0.0
H3258 H 0.42623 0.39706 0.29239 0.0
H3259 H 0.40543 0.38714 0.31022 0.0
H3260 H 0.3843 0.41635 0.31469 0.0
C3261 C 0.34727 0.3912 0.35784 0.0
C3262 C 0.37804 0.38574 0.3442 0.0
C3263 C 0.33331 0.38355 0.36498 0.0
C3264 C 0.42319 0.40514 0.29766 0.0
C3265 C 0.41132 0.3995 0.30791 0.0
C3266 C 0.3829 0.40805 0.3231 0.0
C3267 C 0.35292 0.38237 0.35064 0.0
C3268 C 0.36731 0.39022 0.34238 0.0
C3269 C 0.40676 0.40954 0.31457 0.0
C3270 C 0.3935 0.40332 0.32464 0.0
H3271 H 0.32411 0.34534 0.35753 0.0
H3272 H 0.34836 0.35865 0.34516 0.0
H3273 H 0.3618 0.40513 0.3301 0.0
H3274 H 0.43209 0.44329 0.29814 0.0
H3275 H 0.4116 0.43358 0.31622 0.0
C3276 C 0.28936 0.29508 0.41856 0.0
C3277 C 0.28818 0.29754 0.40258 0.0
C3278 C 0.29629 0.28697 0.42299 0.0
C3279 C 0.32492 0.27825 0.4102 0.0
H3280 H 0.31052 0.25047 0.44404 0.0
C3281 C 0.35526 0.24749 0.43439 0.0
C3282 C 0.35604 0.24741 0.45099 0.0
C3283 C 0.34681 0.25297 0.42707 0.0
C3284 C 0.31473 0.25828 0.43463 0.0
H3285 H 0.29273 0.2928 0.3786 0.0
H3286 H 0.30477 0.27854 0.38638 0.0
H3287 H 0.29489 0.25994 0.43358 0.0
H3288 H 0.34963 0.25401 0.473 0.0
H3289 H 0.33509 0.26366 0.46031 0.0
H3290 H 0.34493 0.27676 0.41151 0.0
C3291 C 0.30049 0.28307 0.39548 0.0
C3292 C 0.30576 0.26367 0.42863 0.0
C3293 C 0.29349 0.29113 0.39103 0.0
C3294 C 0.34895 0.25365 0.46016 0.0
C3295 C 0.34057 0.25909 0.45289 0.0
C3296 C 0.33392 0.27283 0.41622 0.0
C3297 C 0.30222 0.28117 0.41155 0.0
C3298 C 0.3109 0.27399 0.41659 0.0
C3299 C 0.33906 0.25843 0.43627 0.0
C3300 C 0.32906 0.26309 0.42876 0.0
H3301 H 0.2854 0.29986 0.42775 0.0
H3302 H 0.29757 0.28584 0.4355 0.0
H3303 H 0.32926 0.28631 0.40101 0.0
H3304 H 0.36059 0.24268 0.42707 0.0
H3305 H 0.34587 0.25236 0.41422 0.0
C3306 C 0.70536 0.0241 0.3848 0.0
C3307 C 0.69686 0.01076 0.39324 0.0
C3308 C 0.71435 0.03927 0.39284 0.0
C3309 C 0.73462 0.06044 0.43119 0.0
H3310 H 0.73215 0.09494 0.41621 0.0
C3311 C 0.76862 0.12307 0.46454 0.0
C3312 C 0.77568 0.13589 0.45519 0.0
C3313 C 0.75778 0.1078 0.4576 0.0
C3314 C 0.73311 0.08549 0.42046 0.0
H3315 H 0.69137 0.00283 0.41677 0.0
H3316 H 0.70728 0.02936 0.43083 0.0
H3317 H 0.71612 0.06822 0.40273 0.0
H3318 H 0.77682 0.14288 0.43134 0.0
H3319 H 0.75816 0.11622 0.41912 0.0
H3320 H 0.75191 0.07768 0.4486 0.0
C3321 C 0.70691 0.02804 0.41798 0.0
C3322 C 0.7239 0.07019 0.41275 0.0
C3323 C 0.69778 0.01287 0.40992 0.0
C3324 C 0.77139 0.13324 0.43885 0.0
C3325 C 0.76067 0.11794 0.43187 0.0
C3326 C 0.74395 0.07578 0.4388 0.0
C3327 C 0.71517 0.0414 0.40951 0.0
C3328 C 0.72463 0.05753 0.41798 0.0
C3329 C 0.75389 0.10498 0.44112 0.0
C3330 C 0.74338 0.08852 0.43348 0.0
H3331 H 0.7049 0.02289 0.37194 0.0
H3332 H 0.72075 0.04934 0.38603 0.0
H3333 H 0.73552 0.05094 0.43537 0.0
H3334 H 0.77164 0.12485 0.4772 0.0
H3335 H 0.75256 0.09818 0.46515 0.0
C3336 C 0.98128 0.67854 0.36563 0.0
C3337 C 0.98873 0.69328 0.35925 0.0
C3338 C 0.96632 0.6718 0.37022 0.0
C3339 C 0.93925 0.68231 0.38366 0.0
H3340 H 0.90935 0.6371 0.37513 0.0
C3341 C 0.87931 0.65442 0.40675 0.0
C3342 C 0.87387 0.64025 0.41388 0.0
C3343 C 0.89193 0.66019 0.39757 0.0
C3344 C 0.9176 0.64973 0.37769 0.0
H3345 H 0.98627 0.71244 0.35253 0.0
H3346 H 0.96007 0.70066 0.36072 0.0
H3347 H 0.93429 0.64881 0.36389 0.0
H3348 H 0.87689 0.62064 0.41652 0.0
H3349 H 0.8992 0.63085 0.40072 0.0
H3350 H 0.92289 0.68323 0.39788 0.0
C3351 C 0.96588 0.69437 0.36217 0.0
C3352 C 0.93185 0.65643 0.37123 0.0
C3353 C 0.98085 0.70109 0.35745 0.0
C3354 C 0.88083 0.63155 0.41106 0.0
C3355 C 0.89358 0.63741 0.40198 0.0
C3356 C 0.92505 0.67561 0.39019 0.0
C3357 C 0.95849 0.67966 0.36862 0.0
C3358 C 0.9429 0.67276 0.37431 0.0
C3359 C 0.8995 0.652 0.39545 0.0
C3360 C 0.91411 0.6592 0.38745 0.0
H3361 H 0.987 0.67218 0.36714 0.0
H3362 H 0.96101 0.66056 0.37535 0.0
H3363 H 0.9476 0.69489 0.38643 0.0
H3364 H 0.87397 0.66122 0.40857 0.0
H3365 H 0.89595 0.67126 0.3924 0.0
C3366 C 0.37321 0.01108 0.69481 0.0
C3367 C 0.37086 0.02353 0.69856 0.0
C3368 C 0.38205 0.00828 0.70525 0.0
C3369 C 0.39659 0.0159 0.74739 0.0
H3370 H 0.42392 0.00355 0.73105 0.0
C3371 C 0.44143 0.01276 0.78702 0.0
C3372 C 0.4435 0.00012 0.78319 0.0
C3373 C 0.43178 0.01506 0.77724 0.0
C3374 C 0.41619 0.00679 0.73579 0.0
H3375 H 0.37622 0.04302 0.71607 0.0
H3376 H 0.3919 0.03831 0.73415 0.0
H3377 H 0.40929 0.00926 0.71267 0.0
H3378 H 0.43681 0.9798 0.76628 0.0
H3379 H 0.41979 0.98368 0.74935 0.0
H3380 H 0.40367 0.01358 0.77055 0.0
C3381 C 0.38666 0.03053 0.72327 0.0
C3382 C 0.40781 0.01008 0.72525 0.0
C3383 C 0.37777 0.0333 0.71285 0.0
C3384 C 0.43533 0.98954 0.76965 0.0
C3385 C 0.42574 0.99188 0.75984 0.0
C3386 C 0.40502 0.01266 0.75794 0.0
C3387 C 0.3888 0.0179 0.71966 0.0
C3388 C 0.39788 0.01464 0.73092 0.0
C3389 C 0.42407 0.00483 0.76337 0.0
C3390 C 0.41489 0.00804 0.75224 0.0
H3391 H 0.36798 0.00328 0.68394 0.0
H3392 H 0.3833 0.99834 0.70218 0.0
H3393 H 0.38886 0.01914 0.75214 0.0
H3394 H 0.44751 0.02104 0.79743 0.0
H3395 H 0.43078 0.02518 0.78023 0.0
C3396 C 0.97963 0.32917 0.75113 0.0
C3397 C 0.97367 0.32536 0.7352 0.0
C3398 C 0.98324 0.34347 0.75937 0.0
C3399 C 0.99143 0.3835 0.75298 0.0
H3400 H 0.98349 0.38471 0.79743 0.0
C3401 C 0.01104 0.4425 0.79023 0.0
C3402 C 0.00058 0.44248 0.80058 0.0
C3403 C 0.00848 0.42824 0.78292 0.0
C3404 C 0.98569 0.38457 0.785 0.0
H3405 H 0.96657 0.33342 0.71551 0.0
H3406 H 0.97251 0.3582 0.73002 0.0
H3407 H 0.97683 0.35966 0.78308 0.0
H3408 H 0.97957 0.42741 0.81186 0.0
H3409 H 0.97485 0.40263 0.79874 0.0
H3410 H -0.00027 0.40827 0.75472 0.0
C3411 C 0.97474 0.35031 0.73604 0.0
C3412 C 0.98205 0.37023 0.77681 0.0
C3413 C 0.97123 0.33606 0.72775 0.0
C3414 C 0.98773 0.42786 0.80376 0.0
C3415 C 0.98513 0.41362 0.79639 0.0
C3416 C 0.99498 0.39781 0.76114 0.0
C3417 C 0.98087 0.35423 0.75193 0.0
C3418 C 0.98483 0.36951 0.76068 0.0
C3419 C 0.99537 0.41364 0.78574 0.0
C3420 C 0.99211 0.39852 0.77724 0.0
H3421 H 0.98174 0.32122 0.75719 0.0
H3422 H 0.98816 0.34619 0.77151 0.0
H3423 H 0.99394 0.38343 0.74063 0.0
H3424 H 0.02099 0.45355 0.78743 0.0
H3425 H 0.01673 0.42867 0.77497 0.0
C3426 C 0.66716 0.62281 0.69473 0.0
C3427 C 0.67964 0.63741 0.7017 0.0
C3428 C 0.65325 0.61514 0.70195 0.0
C3429 C 0.63088 0.62369 0.72922 0.0
H3430 H 0.60866 0.57869 0.73445 0.0
C3431 C 0.58145 0.5949 0.77045 0.0
C3432 C 0.56904 0.57937 0.76596 0.0
C3433 C 0.59427 0.60185 0.76151 0.0
C3434 C 0.61458 0.59122 0.73285 0.0
H3435 H 0.68741 0.65513 0.72196 0.0
H3436 H 0.66323 0.64176 0.73445 0.0
H3437 H 0.63247 0.59071 0.72101 0.0
H3438 H 0.56003 0.55916 0.74827 0.0
H3439 H 0.58232 0.57139 0.73248 0.0
H3440 H 0.61305 0.62429 0.74096 0.0
C3441 C 0.66413 0.63635 0.72333 0.0
C3442 C 0.62824 0.5981 0.72519 0.0
C3443 C 0.67803 0.64394 0.71621 0.0
C3444 C 0.56952 0.57109 0.7521 0.0
C3445 C 0.58231 0.57807 0.7431 0.0
C3446 C 0.61719 0.61682 0.73676 0.0
C3447 C 0.65153 0.62199 0.71618 0.0
C3448 C 0.63663 0.61444 0.72351 0.0
C3449 C 0.59494 0.59345 0.74782 0.0
C3450 C 0.60897 0.60055 0.73887 0.0
H3451 H 0.66804 0.61747 0.68356 0.0
H3452 H 0.6437 0.60408 0.69616 0.0
H3453 H 0.63697 0.63628 0.72782 0.0
H3454 H 0.5815 0.60148 0.7812 0.0
H3455 H 0.60388 0.61361 0.76564 0.0
C3456 C 0.68986 0.68886 0.65372 0.0
C3457 C 0.70172 0.69537 0.66589 0.0
C3458 C 0.68305 0.69712 0.64945 0.0
C3459 C 0.68909 0.73696 0.65115 0.0
H3460 H 0.64487 0.71324 0.64231 0.0
C3461 C 0.65703 0.76754 0.63446 0.0
C3462 C 0.64629 0.76006 0.62123 0.0
C3463 C 0.66314 0.75968 0.64167 0.0
C3464 C 0.65723 0.72001 0.64467 0.0
H3465 H 0.71592 0.71582 0.68295 0.0
H3466 H 0.70396 0.73027 0.67549 0.0
H3467 H 0.65725 0.69973 0.65127 0.0
H3468 H 0.63336 0.73838 0.60538 0.0
H3469 H 0.64393 0.72467 0.61799 0.0
H3470 H 0.68908 0.75719 0.64432 0.0
C3471 C 0.70001 0.71878 0.66921 0.0
C3472 C 0.66433 0.71227 0.64978 0.0
C3473 C 0.70683 0.71049 0.6735 0.0
C3474 C 0.64141 0.74437 0.61572 0.0
C3475 C 0.6475 0.73652 0.62293 0.0
C3476 C 0.68198 0.74471 0.64605 0.0
C3477 C 0.68793 0.71209 0.65725 0.0
C3478 C 0.68036 0.7206 0.65283 0.0
C3479 C 0.65862 0.74418 0.63581 0.0
C3480 C 0.66599 0.73626 0.64253 0.0
H3481 H 0.68569 0.67727 0.64755 0.0
H3482 H 0.67399 0.69177 0.63998 0.0
H3483 H 0.70147 0.74367 0.65328 0.0
H3484 H 0.66087 0.77955 0.63912 0.0
H3485 H 0.67152 0.7658 0.65173 0.0
C3486 C 0.29537 0.97602 0.68022 0.0
C3487 C 0.30611 0.98743 0.6709 0.0
C3488 C 0.28531 0.96037 0.67372 0.0
C3489 C 0.28022 0.93108 0.64142 0.0
H3490 H 0.23722 0.91016 0.64969 0.0
C3491 C 0.233 0.87031 0.60907 0.0
C3492 C 0.2208 0.86001 0.61786 0.0
C3493 C 0.24415 0.88562 0.61573 0.0
C3494 C 0.24923 0.91572 0.64746 0.0
H3495 H 0.31481 0.99135 0.64748 0.0
H3496 H 0.29723 0.96397 0.63615 0.0
H3497 H 0.2551 0.93739 0.66089 0.0
H3498 H 0.21115 0.85719 0.64074 0.0
H3499 H 0.23075 0.88371 0.65251 0.0
H3500 H 0.27436 0.90935 0.62806 0.0
C3501 C 0.29665 0.96715 0.6485 0.0
C3502 C 0.25946 0.93135 0.65384 0.0
C3503 C 0.30664 0.98284 0.65496 0.0
C3504 C 0.22032 0.86501 0.63364 0.0
C3505 C 0.2315 0.88022 0.64033 0.0
C3506 C 0.26999 0.91538 0.63509 0.0
C3507 C 0.28586 0.95577 0.6578 0.0
C3508 C 0.27506 0.93919 0.65092 0.0
C3509 C 0.24334 0.89085 0.63135 0.0
C3510 C 0.25437 0.9075 0.63808 0.0
H3511 H 0.29469 0.97916 0.69255 0.0
H3512 H 0.27721 0.95181 0.68122 0.0
H3513 H 0.29223 0.9368 0.6391 0.0
H3514 H 0.23355 0.86675 0.59684 0.0
H3515 H 0.25305 0.89354 0.60844 0.0
C3516 C 0.02965 0.31567 0.72083 0.0
C3517 C 0.01572 0.30263 0.71374 0.0
C3518 C 0.04301 0.32213 0.71266 0.0
C3519 C 0.05512 0.32558 0.67199 0.0
H3520 H 0.09491 0.33832 0.69174 0.0
C3521 C 0.10694 0.34268 0.63535 0.0
C3522 C 0.12157 0.35509 0.64164 0.0
C3523 C 0.09433 0.33694 0.64453 0.0
C3524 C 0.08392 0.33504 0.68612 0.0
H3525 H 0.00505 0.28576 0.69277 0.0
H3526 H 0.02834 0.297 0.67861 0.0
H3527 H 0.07241 0.32654 0.70733 0.0
H3528 H 0.13437 0.37136 0.6625 0.0
H3529 H 0.1122 0.36159 0.67847 0.0
H3530 H 0.06652 0.33415 0.65084 0.0
C3531 C 0.02888 0.30236 0.69038 0.0
C3532 C 0.07104 0.32825 0.69503 0.0
C3533 C 0.01556 0.29585 0.69856 0.0
C3534 C 0.12323 0.36185 0.65727 0.0
C3535 C 0.11057 0.35612 0.66648 0.0
C3536 C 0.06798 0.33244 0.66311 0.0
C3537 C 0.04268 0.31573 0.69723 0.0
C3538 C 0.05648 0.32328 0.688 0.0
C3539 C 0.09598 0.34354 0.66023 0.0
C3540 C 0.0825 0.33709 0.67 0.0
H3541 H 0.03017 0.32116 0.73251 0.0
H3542 H 0.05347 0.33247 0.71821 0.0
H3543 H 0.04411 0.32219 0.66633 0.0
H3544 H 0.10521 0.33735 0.62327 0.0
H3545 H 0.08332 0.32712 0.63938 0.0
C3546 C 0.29412 0.31063 0.68104 0.0
C3547 C 0.29999 0.3173 0.69672 0.0
C3548 C 0.28656 0.31603 0.67201 0.0
C3549 C 0.28304 0.35075 0.66945 0.0
H3550 H 0.24704 0.32141 0.64136 0.0
C3551 C 0.24476 0.36888 0.63838 0.0
C3552 C 0.23885 0.36228 0.6227 0.0
C3553 C 0.25292 0.36392 0.64706 0.0
C3554 C 0.2572 0.32978 0.649 0.0
H3555 H 0.30213 0.33457 0.71533 0.0
H3556 H 0.28874 0.34379 0.69965 0.0
H3557 H 0.25925 0.31125 0.65754 0.0
H3558 H 0.23747 0.34584 0.6036 0.0
H3559 H 0.25175 0.33721 0.61876 0.0
H3560 H 0.2809 0.36926 0.66097 0.0
C3561 C 0.29024 0.3346 0.69425 0.0
C3562 C 0.26419 0.32395 0.65828 0.0
C3563 C 0.29781 0.32922 0.70327 0.0
C3564 C 0.24169 0.35098 0.61573 0.0
C3565 C 0.24984 0.34601 0.62442 0.0
C3566 C 0.27603 0.35657 0.66018 0.0
C3567 C 0.28468 0.32819 0.67845 0.0
C3568 C 0.27718 0.33437 0.66864 0.0
C3569 C 0.25533 0.35224 0.64027 0.0
C3570 C 0.26303 0.34615 0.64986 0.0
H3571 H 0.29564 0.30146 0.67561 0.0
H3572 H 0.28255 0.31094 0.65983 0.0
H3573 H 0.29319 0.35912 0.6771 0.0
H3574 H 0.24256 0.37741 0.64417 0.0
H3575 H 0.25686 0.36882 0.6593 0.0
C3576 C 0.69328 -0.00046 0.64128 0.0
C3577 C 0.69612 0.00234 0.65789 0.0
C3578 C 0.68687 0.98425 0.63372 0.0
C3579 C 0.66239 0.94256 0.6407 0.0
H3580 H 0.6786 0.93461 0.60282 0.0
C3581 C 0.6413 0.87924 0.61293 0.0
C3582 C 0.64091 0.8767 0.59636 0.0
C3583 C 0.64742 0.89455 0.62033 0.0
C3584 C 0.67375 0.93664 0.61323 0.0
H3585 H 0.69476 0.99137 0.67957 0.0
H3586 H 0.68343 0.9646 0.66631 0.0
H3587 H 0.69114 0.96146 0.61601 0.0
H3588 H 0.64591 0.88794 0.57442 0.0
H3589 H 0.65617 0.91465 0.58725 0.0
H3590 H 0.64483 0.91785 0.63781 0.0
C3591 C 0.68614 0.97426 0.6592 0.0
C3592 C 0.68101 0.95202 0.62082 0.0
C3593 C 0.69272 0.98959 0.66676 0.0
C3594 C 0.64621 0.88964 0.58724 0.0
C3595 C 0.65218 0.90493 0.59461 0.0
C3596 C 0.65503 0.9272 0.63301 0.0
C3597 C 0.68302 0.97143 0.64263 0.0
C3598 C 0.67543 0.95511 0.63466 0.0
C3599 C 0.65315 0.90762 0.61127 0.0
C3600 C 0.66065 0.92404 0.61921 0.0
H3601 H 0.6958 0.00912 0.63412 0.0
H3602 H 0.68451 0.98238 0.62093 0.0
H3603 H 0.65772 0.94467 0.65122 0.0
H3604 H 0.63749 0.86948 0.62024 0.0
H3605 H 0.64816 0.89618 0.63318 0.0
C3606 C 0.99842 0.71479 0.70242 0.0
C3607 C 0.98798 0.69828 0.7002 0.0
C3608 C 0.01285 0.72164 0.69631 0.0
C3609 C 0.04108 0.71251 0.68192 0.0
H3610 H 0.05389 0.74826 0.65719 0.0
C3611 C 0.08863 0.7323 0.63795 0.0
C3612 C 0.09771 0.7485 0.63581 0.0
C3613 C 0.07649 0.72681 0.64785 0.0
C3614 C 0.05067 0.73848 0.6643 0.0
H3615 H 0.98462 0.67597 0.69012 0.0
H3616 H 0.00974 0.68791 0.67952 0.0
H3617 H 0.03042 0.73774 0.6709 0.0
H3618 H 0.10203 0.77183 0.6431 0.0
H3619 H 0.08114 0.76237 0.66067 0.0
H3620 H 0.06129 0.71318 0.67523 0.0
C3621 C 0.00682 0.69556 0.68603 0.0
C3622 C 0.03719 0.73244 0.67214 0.0
C3623 C 0.99237 0.68874 0.692 0.0
C3624 C 0.09499 0.75923 0.64435 0.0
C3625 C 0.083 0.75379 0.65435 0.0
C3626 C 0.05465 0.71863 0.67417 0.0
C3627 C 0.01717 0.71208 0.68802 0.0
C3628 C 0.03214 0.71926 0.68084 0.0
C3629 C 0.07333 0.73747 0.65591 0.0
C3630 C 0.05951 0.73156 0.66509 0.0
H3631 H 0.99538 0.72245 0.70871 0.0
H3632 H 0.02066 0.73441 0.69809 0.0
H3633 H 0.03755 0.70245 0.68872 0.0
H3634 H 0.09049 0.72381 0.63142 0.0
H3635 H 0.0692 0.71415 0.64865 0.0
C3636 C 0.93127 0.61686 0.74597 0.0
C3637 C 0.93503 0.62267 0.73102 0.0
C3638 C 0.93467 0.60587 0.75071 0.0
C3639 C 0.96168 0.59323 0.74305 0.0
H3640 H 0.93671 0.56075 0.77056 0.0
C3641 C 0.98011 0.55303 0.7689 0.0
C3642 C 0.97842 0.5515 0.78524 0.0
C3643 C 0.97361 0.55998 0.76064 0.0
C3644 C 0.94381 0.5698 0.7629 0.0
H3645 H 0.94444 0.62076 0.70893 0.0
H3646 H 0.95016 0.60141 0.71714 0.0
H3647 H 0.92675 0.57541 0.75867 0.0
H3648 H 0.96892 0.55648 0.80578 0.0
H3649 H 0.95752 0.56844 0.79138 0.0
H3650 H 0.97884 0.58779 0.74752 0.0
C3651 C 0.94489 0.60561 0.72533 0.0
C3652 C 0.93812 0.5782 0.75611 0.0
C3653 C 0.94153 0.61664 0.7206 0.0
C3654 C 0.97016 0.55714 0.79313 0.0
C3655 C 0.96361 0.56399 0.78488 0.0
C3656 C 0.96735 0.58478 0.7498 0.0
C3657 C 0.94185 0.6004 0.74058 0.0
C3658 C 0.94711 0.59024 0.74637 0.0
C3659 C 0.96524 0.56547 0.76856 0.0
C3660 C 0.9586 0.57322 0.76006 0.0
H3661 H 0.92625 0.62127 0.75428 0.0
H3662 H 0.93231 0.60223 0.76261 0.0
H3663 H 0.969 0.60257 0.73578 0.0
H3664 H 0.98627 0.54864 0.76245 0.0
H3665 H 0.97498 0.56091 0.74803 0.0
C3666 C 0.3702 0.33979 0.75621 0.0
C3667 C 0.36314 0.33727 0.74094 0.0
C3668 C 0.38015 0.35521 0.76341 0.0
C3669 C 0.39043 0.39668 0.76117 0.0
H3670 H 0.42711 0.40717 0.78647 0.0
C3671 C 0.43971 0.46107 0.78165 0.0
C3672 C 0.4464 0.46409 0.79722 0.0
C3673 C 0.42879 0.44556 0.77536 0.0
C3674 C 0.41681 0.40437 0.77959 0.0
H3675 H 0.36127 0.34896 0.72108 0.0
H3676 H 0.37888 0.37578 0.73345 0.0
H3677 H 0.40998 0.38017 0.77412 0.0
H3678 H 0.44631 0.45323 0.81862 0.0
H3679 H 0.42737 0.42615 0.80753 0.0
H3680 H 0.39749 0.42102 0.76643 0.0
C3681 C 0.37647 0.36588 0.74006 0.0
C3682 C 0.40698 0.38889 0.77252 0.0
C3683 C 0.36646 0.35049 0.73291 0.0
C3684 C 0.44159 0.45129 0.80649 0.0
C3685 C 0.43075 0.43578 0.80016 0.0
C3686 C 0.40032 0.41219 0.76815 0.0
C3687 C 0.38333 0.36844 0.75546 0.0
C3688 C 0.39369 0.38486 0.76318 0.0
C3689 C 0.42439 0.43274 0.78446 0.0
C3690 C 0.41363 0.41619 0.77741 0.0
H3691 H 0.36782 0.32985 0.76275 0.0
H3692 H 0.38509 0.35673 0.77536 0.0
H3693 H 0.38015 0.39393 0.75431 0.0
H3694 H 0.44332 0.47062 0.77411 0.0
H3695 H 0.42419 0.44355 0.76317 0.0
C3696 C 0.65801 0.04346 0.68781 0.0
C3697 C 0.66076 0.03108 0.68646 0.0
C3698 C 0.64464 0.0411 0.69419 0.0
C3699 C 0.60568 0.00969 0.70361 0.0
H3700 H 0.61059 0.04115 0.73678 0.0
C3701 C 0.5617 0.99569 0.75031 0.0
C3702 C 0.55892 0.00751 0.75567 0.0
C3703 C 0.57308 0.99898 0.73987 0.0
C3704 C 0.60894 0.03238 0.72735 0.0
H3705 H 0.65143 0.0064 0.6903 0.0
H3706 H 0.62826 0.00234 0.70144 0.0
H3707 H 0.6324 0.04632 0.72178 0.0
H3708 H 0.56545 0.03184 0.75377 0.0
H3709 H 0.58533 0.03757 0.73549 0.0
H3710 H 0.58231 0.99559 0.7094 0.0
C3711 C 0.63633 0.01382 0.69748 0.0
C3712 C 0.62145 0.03535 0.71875 0.0
C3713 C 0.64969 0.0162 0.69121 0.0
C3714 C 0.56751 0.02257 0.75005 0.0
C3715 C 0.57888 0.02585 0.73958 0.0
C3716 C 0.59317 0.00673 0.71218 0.0
C3717 C 0.63372 0.02628 0.69921 0.0
C3718 C 0.62003 0.0239 0.70701 0.0
C3719 C 0.58192 0.01414 0.73453 0.0
C3720 C 0.59474 0.0179 0.72436 0.0
H3721 H 0.66631 0.05505 0.68422 0.0
H3722 H 0.64287 0.05087 0.69527 0.0
H3723 H 0.60418 0.00075 0.69445 0.0
H3724 H 0.5554 0.98404 0.75459 0.0
H3725 H 0.57529 0.98977 0.73641 0.0
loop_
_geom_bond_atom_site_label_1
_geom_bond_atom_site_label_2
_geom_bond_distance
_geom_bond_site_symmetry_2
_ccdc_geom_bond_type
C0 O1 1.160 . S
C0 O7 1.185 . S
O1 C0 1.160 . S
O2 Zn3 1.899 1_655 S
O2 C10 1.284 . S
Zn3 O2 1.899 1_455 S
Zn3 O4 2.032 . S
Zn3 O7 2.086 . S
Zn3 O12 1.977 . S
O4 Zn3 2.032 . S
O4 C8 1.272 1_455 S
C5 O6 1.203 1_455 S
C5 O12 1.267 1_556 S
O6 C5 1.203 1_655 S
O7 C0 1.185 . S
O7 Zn3 2.086 . S
C8 O4 1.272 1_655 S
C8 O9 1.215 . S
O9 C8 1.215 . S
C10 O2 1.284 . S
C10 O11 1.273 . S
O11 C10 1.273 . S
O12 Zn3 1.977 . S
O12 C5 1.267 1_554 S
C13 O14 1.160 . S
C13 O20 1.185 . S
O14 C13 1.160 . S
O15 Zn16 1.899 . S
O15 C23 1.284 . S
Zn16 O15 1.899 . S
Zn16 O17 2.032 . S
Zn16 O20 2.086 . S
Zn16 O25 1.977 . S
O17 Zn16 2.032 . S
O17 C21 1.278 . S
C18 O19 1.203 . S
C18 O25 1.267 . S
O19 C18 1.203 . S
O20 C13 1.185 . S
O20 Zn16 2.086 . S
C21 O17 1.278 . S
C21 O22 1.211 . S
O22 C21 1.211 . S
C23 O15 1.284 . S
C23 O24 1.273 . S
O24 C23 1.273 . S
O25 Zn16 1.977 . S
O25 C18 1.267 . S
C26 O27 1.160 . S
C26 O33 1.185 . S
O27 C26 1.160 . S
O28 Zn29 1.901 1_565 S
O28 C36 1.277 . S
Zn29 O28 1.901 1_545 S
Zn29 O30 2.032 . S
Zn29 O33 2.086 . S
Zn29 O38 1.977 . S
O30 Zn29 2.032 . S
O30 C34 1.241 1_545 S
C31 O32 1.251 . S
C31 O38 1.267 . S
O32 C31 1.251 . S
O33 C26 1.185 . S
O33 Zn29 2.086 . S
C34 O30 1.241 1_565 S
C34 O35 1.238 . S
O35 C34 1.238 . S
C36 O28 1.277 . S
C36 O37 1.273 . S
O37 C36 1.273 . S
O38 Zn29 1.977 . S
O38 C31 1.267 . S
C39 O40 1.160 . S
C39 O46 1.185 . S
O40 C39 1.160 . S
O41 Zn42 1.899 1_455 S
O41 C49 1.284 . S
Zn42 O41 1.899 1_655 S
Zn42 O43 2.019 1_655 S
Zn42 O46 2.086 . S
Zn42 O51 1.977 . S
O43 Zn42 2.019 1_455 S
O43 C47 1.307 . S
C44 O45 1.203 1_655 S
C44 O51 1.267 . S
O45 C44 1.203 1_455 S
O46 C39 1.185 . S
O46 Zn42 2.086 . S
C47 O43 1.307 . S
C47 O48 1.211 . S
O48 C47 1.211 . S
C49 O41 1.284 . S
C49 O50 1.273 . S
O50 C49 1.273 . S
O51 Zn42 1.977 . S
O51 C44 1.267 . S
C52 O53 1.160 . S
C52 O59 1.185 . S
O53 C52 1.160 . S
O54 Zn55 1.899 1_556 S
O54 C62 1.284 . S
Zn55 O54 1.899 1_554 S
Zn55 O56 2.032 . S
Zn55 O59 2.086 . S
Zn55 O64 1.977 1_554 S
O56 Zn55 2.032 . S
O56 C60 1.278 . S
C57 O58 1.203 . S
C57 O64 1.267 . S
O58 C57 1.203 . S
O59 C52 1.185 . S
O59 Zn55 2.086 . S
C60 O56 1.278 . S
C60 O61 1.211 . S
O61 C60 1.211 . S
C62 O54 1.284 . S
C62 O63 1.253 1_556 S
O63 C62 1.253 1_554 S
O64 Zn55 1.977 1_556 S
O64 C57 1.267 . S
C65 O66 1.160 . S
C65 O72 1.185 . S
O66 C65 1.160 . S
O67 Zn68 1.899 1_545 S
O67 C75 1.284 . S
Zn68 O67 1.899 1_565 S
Zn68 O69 2.032 1_565 S
Zn68 O72 2.086 . S
Zn68 O77 1.977 . S
O69 Zn68 2.032 1_545 S
O69 C73 1.278 . S
C70 O71 1.203 1_565 S
C70 O77 1.267 . S
O71 C70 1.203 1_545 S
O72 C65 1.185 . S
O72 Zn68 2.086 . S
C73 O69 1.278 . S
C73 O74 1.211 . S
O74 C73 1.211 . S
C75 O67 1.284 . S
C75 O76 1.273 . S
O76 C75 1.273 . S
O77 Zn68 1.977 . S
O77 C70 1.267 . S
C78 O79 1.160 . S
C78 O85 1.185 . S
O79 C78 1.160 . S
O80 Zn81 1.899 . S
O80 C88 1.284 . S
Zn81 O80 1.899 . S
Zn81 O82 2.032 . S
Zn81 O85 2.086 . S
Zn81 O90 1.977 . S
O82 Zn81 2.032 . S
O82 C86 1.278 . S
C83 O84 1.203 . S
C83 O90 1.267 . S
O84 C83 1.203 . S
O85 C78 1.185 . S
O85 Zn81 2.086 . S
C86 O82 1.278 . S
C86 O87 1.211 . S
O87 C86 1.211 . S
C88 O80 1.284 . S
C88 O89 1.273 . S
O89 C88 1.273 . S
O90 Zn81 1.977 . S
O90 C83 1.267 . S
C91 O92 1.160 . S
C91 O98 1.185 . S
O92 C91 1.160 . S
O93 Zn94 1.899 . S
O93 C101 1.284 . S
Zn94 O93 1.899 . S
Zn94 O95 2.032 . S
Zn94 O98 2.086 . S
Zn94 O103 1.977 . S
O95 Zn94 2.032 . S
O95 C99 1.278 . S
C96 O97 1.203 . S
C96 O103 1.267 . S
O97 C96 1.203 . S
O98 C91 1.185 . S
O98 Zn94 2.086 . S
C99 O95 1.278 . S
C99 O100 1.211 . S
O100 C99 1.211 . S
C101 O93 1.284 . S
C101 O102 1.273 . S
O102 C101 1.273 . S
O103 Zn94 1.977 . S
O103 C96 1.267 . S
C104 O105 1.160 . S
C104 O111 1.185 . S
O105 C104 1.160 . S
O106 Zn107 1.899 . S
O106 C114 1.284 . S
Zn107 O106 1.899 . S
Zn107 O108 2.032 . S
Zn107 O111 2.086 . S
Zn107 O116 1.977 . S
O108 Zn107 2.032 . S
O108 C112 1.278 . S
C109 O110 1.203 . S
C109 O116 1.267 . S
O110 C109 1.203 . S
O111 C104 1.185 . S
O111 Zn107 2.086 . S
C112 O108 1.278 . S
C112 O113 1.211 . S
O113 C112 1.211 . S
C114 O106 1.284 . S
C114 O115 1.273 . S
O115 C114 1.273 . S
O116 Zn107 1.977 . S
O116 C109 1.267 . S
C117 O118 1.160 . S
C117 O124 1.185 . S
O118 C117 1.160 . S
O119 Zn120 1.899 . S
O119 C127 1.284 . S
Zn120 O119 1.899 . S
Zn120 O121 2.032 . S
Zn120 O124 2.086 . S
Zn120 O129 1.977 . S
O121 Zn120 2.032 . S
O121 C125 1.278 . S
C122 O123 1.203 . S
C122 O129 1.267 . S
O123 C122 1.203 . S
O124 C117 1.185 . S
O124 Zn120 2.086 . S
C125 O121 1.278 . S
C125 O126 1.211 . S
O126 C125 1.211 . S
C127 O119 1.284 . S
C127 O128 1.273 . S
O128 C127 1.273 . S
O129 Zn120 1.977 . S
O129 C122 1.267 . S
C130 O131 1.160 . S
C130 O137 1.185 . S
O131 C130 1.160 . S
O132 Zn133 1.899 . S
O132 C140 1.284 . S
Zn133 O132 1.899 . S
Zn133 O134 2.032 . S
Zn133 O137 2.086 . S
Zn133 O142 1.977 . S
O134 Zn133 2.032 . S
O134 C138 1.278 . S
C135 O136 1.203 . S
C135 O142 1.267 . S
O136 C135 1.203 . S
O137 C130 1.185 . S
O137 Zn133 2.086 . S
C138 O134 1.278 . S
C138 O139 1.211 . S
O139 C138 1.211 . S
C140 O132 1.284 . S
C140 O141 1.273 . S
O141 C140 1.273 . S
O142 Zn133 1.977 . S
O142 C135 1.267 . S
C143 O144 1.160 . S
C143 O150 1.185 . S
O144 C143 1.160 . S
O145 Zn146 1.899 . S
O145 C153 1.284 . S
Zn146 O145 1.899 . S
Zn146 O147 2.032 . S
Zn146 O150 2.086 . S
Zn146 O155 1.977 . S
O147 Zn146 2.032 . S
O147 C151 1.278 . S
C148 O149 1.203 . S
C148 O155 1.267 . S
O149 C148 1.203 . S
O150 C143 1.185 . S
O150 Zn146 2.086 . S
C151 O147 1.278 . S
C151 O152 1.211 . S
O152 C151 1.211 . S
C153 O145 1.284 . S
C153 O154 1.273 . S
O154 C153 1.273 . S
O155 Zn146 1.977 . S
O155 C148 1.267 . S
C156 O157 1.160 . S
C156 O163 1.185 . S
O157 C156 1.160 . S
O158 Zn159 1.899 . S
O158 C166 1.284 . S
Zn159 O158 1.899 . S
Zn159 O160 2.032 . S
Zn159 O163 2.086 . S
Zn159 O168 1.977 . S
O160 Zn159 2.032 . S
O160 C164 1.278 . S
C161 O162 1.203 . S
C161 O168 1.267 . S
O162 C161 1.203 . S
O163 C156 1.185 . S
O163 Zn159 2.086 . S
C164 O160 1.278 . S
C164 O165 1.211 . S
O165 C164 1.211 . S
C166 O158 1.284 . S
C166 O167 1.273 . S
O167 C166 1.273 . S
O168 Zn159 1.977 . S
O168 C161 1.267 . S
C169 O170 1.160 . S
C169 O176 1.185 1_455 S
O170 C169 1.160 . S
O171 Zn172 1.899 . S
O171 C179 1.284 . S
Zn172 O171 1.899 . S
Zn172 O173 2.032 . S
Zn172 O176 2.086 . S
Zn172 O181 1.977 . S
O173 Zn172 2.032 . S
O173 C177 1.278 . S
C174 O175 1.203 . S
C174 O181 1.267 . S
O175 C174 1.203 . S
O176 C169 1.185 1_655 S
O176 Zn172 2.086 . S
C177 O173 1.278 . S
C177 O178 1.211 . S
O178 C177 1.211 . S
C179 O171 1.284 . S
C179 O180 1.273 . S
O180 C179 1.273 . S
O181 Zn172 1.977 . S
O181 C174 1.267 . S
C182 O183 1.160 . S
C182 O189 1.185 . S
O183 C182 1.160 . S
O184 Zn185 1.899 . S
O184 C192 1.284 . S
Zn185 O184 1.899 . S
Zn185 O186 2.032 . S
Zn185 O189 2.086 . S
Zn185 O194 1.977 . S
O186 Zn185 2.032 . S
O186 C190 1.278 . S
C187 O188 1.203 . S
C187 O194 1.267 . S
O188 C187 1.203 . S
O189 C182 1.185 . S
O189 Zn185 2.086 . S
C190 O186 1.278 . S
C190 O191 1.211 . S
O191 C190 1.211 . S
C192 O184 1.284 . S
C192 O193 1.273 . S
O193 C192 1.273 . S
O194 Zn185 1.977 . S
O194 C187 1.267 . S
C195 O196 1.160 . S
C195 O202 1.185 . S
O196 C195 1.160 . S
O197 Zn198 1.899 . S
O197 C205 1.284 . S
Zn198 O197 1.899 . S
Zn198 O199 2.032 . S
Zn198 O202 2.086 . S
Zn198 O207 1.977 . S
O199 Zn198 2.032 . S
O199 C203 1.278 . S
C200 O201 1.203 . S
C200 O207 1.267 . S
O201 C200 1.203 . S
O202 C195 1.185 . S
O202 Zn198 2.086 . S
C203 O199 1.278 . S
C203 O204 1.211 . S
O204 C203 1.211 . S
C205 O197 1.284 . S
C205 O206 1.273 . S
O206 C205 1.273 . S
O207 Zn198 1.977 . S
O207 C200 1.267 . S
C208 O209 1.160 . S
C208 O215 1.185 . S
O209 C208 1.160 . S
O210 Zn211 1.899 . S
O210 C218 1.284 . S
Zn211 O210 1.899 . S
Zn211 O212 2.032 . S
Zn211 O215 2.086 . S
Zn211 O220 1.977 . S
O212 Zn211 2.032 . S
O212 C216 1.278 . S
C213 O214 1.203 . S
C213 O220 1.267 . S
O214 C213 1.203 . S
O215 C208 1.185 . S
O215 Zn211 2.086 . S
C216 O212 1.278 . S
C216 O217 1.211 . S
O217 C216 1.211 . S
C218 O210 1.284 . S
C218 O219 1.273 . S
O219 C218 1.273 . S
O220 Zn211 1.977 . S
O220 C213 1.267 . S
C221 O222 1.160 . S
C221 O228 1.185 . S
O222 C221 1.160 . S
O223 Zn224 1.899 . S
O223 C231 1.284 . S
Zn224 O223 1.899 . S
Zn224 O225 2.032 . S
Zn224 O228 2.086 . S
Zn224 O233 1.977 . S
O225 Zn224 2.032 . S
O225 C229 1.278 . S
C226 O227 1.203 . S
C226 O233 1.267 . S
O227 C226 1.203 . S
O228 C221 1.185 . S
O228 Zn224 2.086 . S
C229 O225 1.278 . S
C229 O230 1.211 . S
O230 C229 1.211 . S
C231 O223 1.284 . S
C231 O232 1.273 . S
O232 C231 1.273 . S
O233 Zn224 1.977 . S
O233 C226 1.267 . S
H234 O260 0.856 . S
H235 O263 0.854 . S
H236 C271 0.930 . S
H237 C272 0.930 . S
H238 C274 0.930 . S
H239 C275 0.930 . S
H240 C277 0.931 . S
H241 C278 0.930 . S
H242 C280 0.930 . S
H243 C281 0.929 . S
H244 C283 0.930 . S
H245 C284 0.931 . S
H246 C286 0.930 . S
H247 C287 0.929 . S
H248 C289 0.931 . S
H249 C290 0.930 . S
H250 C292 0.930 . S
H251 C293 0.932 . S
H252 C295 0.930 . S
H253 C296 0.929 . S
H254 C298 0.931 . S
H255 C299 0.930 . S
H256 C301 0.929 . S
H257 C302 0.931 . S
H258 C304 0.930 . S
H259 C305 0.929 . S
O260 H234 0.856 . S
O260 C306 1.300 . S
O261 C306 1.209 . S
O262 C307 1.199 . S
O263 H235 0.854 . S
O263 C307 1.297 . S
C264 C265 1.404 . S
C264 C269 1.397 . S
C264 C270 1.492 . S
C265 C264 1.404 . S
C265 C266 1.396 . S
C265 C276 1.492 . S
C266 C265 1.396 . S
C266 C267 1.397 . S
C266 C282 1.509 . S
C267 C266 1.397 . S
C267 C268 1.412 . S
C267 C288 1.485 . S
C268 C267 1.412 . S
C268 C269 1.388 . S
C268 C294 1.490 . S
C269 C264 1.397 . S
C269 C268 1.388 . S
C269 C300 1.519 . S
C270 C264 1.492 . S
C270 C271 1.363 . S
C270 C275 1.390 . S
C271 H236 0.930 . S
C271 C270 1.363 . S
C271 C272 1.372 . S
C272 H237 0.930 . S
C272 C271 1.372 . S
C272 C273 1.383 . S
C273 C272 1.383 . S
C273 C274 1.395 . S
C274 H238 0.930 . S
C274 C273 1.395 . S
C274 C275 1.362 . S
C275 H239 0.930 . S
C275 C270 1.390 . S
C275 C274 1.362 . S
C276 C265 1.492 . S
C276 C277 1.377 . S
C276 C281 1.397 . S
C277 H240 0.931 . S
C277 C276 1.377 . S
C277 C278 1.376 . S
C278 H241 0.930 . S
C278 C277 1.376 . S
C278 C279 1.376 . S
C279 C278 1.376 . S
C279 C280 1.378 . S
C279 C306 1.486 . S
C280 H242 0.930 . S
C280 C279 1.378 . S
C280 C281 1.376 . S
C281 H243 0.929 . S
C281 C276 1.397 . S
C281 C280 1.376 . S
C282 C266 1.509 . S
C282 C283 1.391 . S
C282 C287 1.386 . S
C283 H244 0.930 . S
C283 C282 1.391 . S
C283 C284 1.375 . S
C284 H245 0.931 . S
C284 C283 1.375 . S
C284 C285 1.375 . S
C285 C284 1.375 . S
C285 C286 1.361 . S
C286 H246 0.930 . S
C286 C285 1.361 . S
C286 C287 1.399 . S
C287 H247 0.929 . S
C287 C282 1.386 . S
C287 C286 1.399 . S
C288 C267 1.485 . S
C288 C289 1.394 . S
C288 C293 1.360 . S
C289 H248 0.931 . S
C289 C288 1.394 . S
C289 C290 1.372 . S
C290 H249 0.930 . S
C290 C289 1.372 . S
C290 C291 1.397 . S
C291 C290 1.397 . S
C291 C292 1.390 . S
C291 C307 1.476 . S
C292 H250 0.930 . S
C292 C291 1.390 . S
C292 C293 1.366 . S
C293 H251 0.932 . S
C293 C288 1.360 . S
C293 C292 1.366 . S
C294 C268 1.490 . S
C294 C295 1.380 . S
C294 C299 1.386 . S
C295 H252 0.930 . S
C295 C294 1.380 . S
C295 C296 1.381 . S
C296 H253 0.929 . S
C296 C295 1.381 . S
C296 C297 1.371 . S
C297 C296 1.371 . S
C297 C298 1.380 . S
C298 H254 0.931 . S
C298 C297 1.380 . S
C298 C299 1.387 . S
C299 H255 0.930 . S
C299 C294 1.386 . S
C299 C298 1.387 . S
C300 C269 1.519 . S
C300 C301 1.377 . S
C300 C305 1.361 . S
C301 H256 0.929 . S
C301 C300 1.377 . S
C301 C302 1.386 . S
C302 H257 0.931 . S
C302 C301 1.386 . S
C302 C303 1.363 . S
C303 C302 1.363 . S
C303 C304 1.385 . S
C304 H258 0.930 . S
C304 C303 1.385 . S
C304 C305 1.396 . S
C305 H259 0.929 . S
C305 C300 1.361 . S
C305 C304 1.396 . S
C306 O260 1.300 . S
C306 O261 1.209 . S
C306 C279 1.486 . S
C307 O262 1.199 . S
C307 O263 1.297 . S
C307 C291 1.476 . S
H308 O334 0.856 . S
H309 O337 0.854 . S
H310 C345 0.930 . S
H311 C346 0.930 . S
H312 C348 0.930 . S
H313 C349 0.930 . S
H314 C351 0.931 . S
H315 C352 0.930 . S
H316 C354 0.930 . S
H317 C355 0.929 . S
H318 C357 0.930 . S
H319 C358 0.931 . S
H320 C360 0.930 . S
H321 C361 0.929 . S
H322 C363 0.931 . S
H323 C364 0.930 . S
H324 C366 0.930 . S
H325 C367 0.932 . S
H326 C369 0.930 . S
H327 C370 0.929 . S
H328 C372 0.931 . S
H329 C373 0.930 . S
H330 C375 0.929 . S
H331 C376 0.931 . S
H332 C378 0.930 . S
H333 C379 0.929 . S
O334 H308 0.856 . S
O334 C380 1.300 . S
O335 C380 1.209 . S
O336 C381 1.199 . S
O337 H309 0.854 . S
O337 C381 1.297 . S
C338 C339 1.404 . S
C338 C343 1.397 . S
C338 C344 1.492 . S
C339 C338 1.404 . S
C339 C340 1.396 . S
C339 C350 1.492 . S
C340 C339 1.396 . S
C340 C341 1.397 . S
C340 C356 1.509 . S
C341 C340 1.397 . S
C341 C342 1.412 . S
C341 C362 1.485 . S
C342 C341 1.412 . S
C342 C343 1.388 . S
C342 C368 1.490 . S
C343 C338 1.397 . S
C343 C342 1.388 . S
C343 C374 1.519 . S
C344 C338 1.492 . S
C344 C345 1.363 . S
C344 C349 1.390 . S
C345 H310 0.930 . S
C345 C344 1.363 . S
C345 C346 1.372 . S
C346 H311 0.930 . S
C346 C345 1.372 . S
C346 C347 1.383 . S
C347 C346 1.383 . S
C347 C348 1.395 . S
C348 H312 0.930 . S
C348 C347 1.395 . S
C348 C349 1.362 . S
C349 H313 0.930 . S
C349 C344 1.390 . S
C349 C348 1.362 . S
C350 C339 1.492 . S
C350 C351 1.377 . S
C350 C355 1.397 . S
C351 H314 0.931 . S
C351 C350 1.377 . S
C351 C352 1.376 . S
C352 H315 0.930 . S
C352 C351 1.376 . S
C352 C353 1.376 . S
C353 C352 1.376 . S
C353 C354 1.378 . S
C353 C380 1.486 . S
C354 H316 0.930 . S
C354 C353 1.378 . S
C354 C355 1.376 . S
C355 H317 0.929 . S
C355 C350 1.397 . S
C355 C354 1.376 . S
C356 C340 1.509 . S
C356 C357 1.391 . S
C356 C361 1.386 . S
C357 H318 0.930 . S
C357 C356 1.391 . S
C357 C358 1.375 . S
C358 H319 0.931 . S
C358 C357 1.375 . S
C358 C359 1.375 . S
C359 C358 1.375 . S
C359 C360 1.361 . S
C360 H320 0.930 . S
C360 C359 1.361 . S
C360 C361 1.399 . S
C361 H321 0.929 . S
C361 C356 1.386 . S
C361 C360 1.399 . S
C362 C341 1.485 . S
C362 C363 1.394 . S
C362 C367 1.360 . S
C363 H322 0.931 . S
C363 C362 1.394 . S
C363 C364 1.372 . S
C364 H323 0.930 . S
C364 C363 1.372 . S
C364 C365 1.397 . S
C365 C364 1.397 . S
C365 C366 1.390 . S
C365 C381 1.476 . S
C366 H324 0.930 . S
C366 C365 1.390 . S
C366 C367 1.366 . S
C367 H325 0.932 . S
C367 C362 1.360 . S
C367 C366 1.366 . S
C368 C342 1.490 . S
C368 C369 1.380 . S
C368 C373 1.386 . S
C369 H326 0.930 . S
C369 C368 1.380 . S
C369 C370 1.381 . S
C370 H327 0.929 . S
C370 C369 1.381 . S
C370 C371 1.371 . S
C371 C370 1.371 . S
C371 C372 1.380 . S
C372 H328 0.931 . S
C372 C371 1.380 . S
C372 C373 1.387 . S
C373 H329 0.930 . S
C373 C368 1.386 . S
C373 C372 1.387 . S
C374 C343 1.519 . S
C374 C375 1.377 . S
C374 C379 1.361 . S
C375 H330 0.929 . S
C375 C374 1.377 . S
C375 C376 1.386 . S
C376 H331 0.931 . S
C376 C375 1.386 . S
C376 C377 1.363 . S
C377 C376 1.363 . S
C377 C378 1.385 . S
C378 H332 0.930 . S
C378 C377 1.385 . S
C378 C379 1.396 . S
C379 H333 0.929 . S
C379 C374 1.361 . S
C379 C378 1.396 . S
C380 O334 1.300 . S
C380 O335 1.209 . S
C380 C353 1.486 . S
C381 O336 1.199 . S
C381 O337 1.297 . S
C381 C365 1.476 . S
H382 O408 0.856 . S
H383 O411 0.854 . S
H384 C419 0.930 . S
H385 C420 0.930 . S
H386 C422 0.930 . S
H387 C423 0.930 . S
H388 C425 0.931 . S
H389 C426 0.930 . S
H390 C428 0.930 . S
H391 C429 0.929 . S
H392 C431 0.930 . S
H393 C432 0.931 . S
H394 C434 0.930 . S
H395 C435 0.929 . S
H396 C437 0.931 . S
H397 C438 0.930 . S
H398 C440 0.930 . S
H399 C441 0.932 . S
H400 C443 0.930 . S
H401 C444 0.929 . S
H402 C446 0.931 . S
H403 C447 0.930 . S
H404 C449 0.929 . S
H405 C450 0.931 . S
H406 C452 0.930 . S
H407 C453 0.929 . S
O408 H382 0.856 . S
O408 C454 1.300 . S
O409 C454 1.209 . S
O410 C455 1.199 . S
O411 H383 0.854 . S
O411 C455 1.297 . S
C412 C413 1.404 . S
C412 C417 1.397 . S
C412 C418 1.492 . S
C413 C412 1.404 . S
C413 C414 1.396 . S
C413 C424 1.492 . S
C414 C413 1.396 . S
C414 C415 1.397 . S
C414 C430 1.509 . S
C415 C414 1.397 . S
C415 C416 1.412 . S
C415 C436 1.485 . S
C416 C415 1.412 . S
C416 C417 1.388 . S
C416 C442 1.490 . S
C417 C412 1.397 . S
C417 C416 1.388 . S
C417 C448 1.519 . S
C418 C412 1.492 . S
C418 C419 1.363 . S
C418 C423 1.390 . S
C419 H384 0.930 . S
C419 C418 1.363 . S
C419 C420 1.372 . S
C420 H385 0.930 . S
C420 C419 1.372 . S
C420 C421 1.383 . S
C421 C420 1.383 . S
C421 C422 1.395 . S
C422 H386 0.930 . S
C422 C421 1.395 . S
C422 C423 1.362 . S
C423 H387 0.930 . S
C423 C418 1.390 . S
C423 C422 1.362 . S
C424 C413 1.492 . S
C424 C425 1.377 . S
C424 C429 1.397 . S
C425 H388 0.931 . S
C425 C424 1.377 . S
C425 C426 1.376 . S
C426 H389 0.930 . S
C426 C425 1.376 . S
C426 C427 1.376 . S
C427 C426 1.376 . S
C427 C428 1.378 . S
C427 C454 1.486 . S
C428 H390 0.930 . S
C428 C427 1.378 . S
C428 C429 1.376 . S
C429 H391 0.929 . S
C429 C424 1.397 . S
C429 C428 1.376 . S
C430 C414 1.509 . S
C430 C431 1.391 . S
C430 C435 1.386 . S
C431 H392 0.930 . S
C431 C430 1.391 . S
C431 C432 1.375 . S
C432 H393 0.931 . S
C432 C431 1.375 . S
C432 C433 1.375 . S
C433 C432 1.375 . S
C433 C434 1.361 . S
C434 H394 0.930 . S
C434 C433 1.361 . S
C434 C435 1.399 . S
C435 H395 0.929 . S
C435 C430 1.386 . S
C435 C434 1.399 . S
C436 C415 1.485 . S
C436 C437 1.394 . S
C436 C441 1.360 . S
C437 H396 0.931 . S
C437 C436 1.394 . S
C437 C438 1.372 . S
C438 H397 0.930 . S
C438 C437 1.372 . S
C438 C439 1.397 . S
C439 C438 1.397 . S
C439 C440 1.390 . S
C439 C455 1.476 . S
C440 H398 0.930 . S
C440 C439 1.390 . S
C440 C441 1.366 . S
C441 H399 0.932 . S
C441 C436 1.360 . S
C441 C440 1.366 . S
C442 C416 1.490 . S
C442 C443 1.380 . S
C442 C447 1.386 . S
C443 H400 0.930 . S
C443 C442 1.380 . S
C443 C444 1.381 . S
C444 H401 0.929 . S
C444 C443 1.381 . S
C444 C445 1.371 . S
C445 C444 1.371 . S
C445 C446 1.380 . S
C446 H402 0.931 . S
C446 C445 1.380 . S
C446 C447 1.387 . S
C447 H403 0.930 . S
C447 C442 1.386 . S
C447 C446 1.387 . S
C448 C417 1.519 . S
C448 C449 1.377 . S
C448 C453 1.361 . S
C449 H404 0.929 . S
C449 C448 1.377 . S
C449 C450 1.386 . S
C450 H405 0.931 . S
C450 C449 1.386 . S
C450 C451 1.363 . S
C451 C450 1.363 . S
C451 C452 1.385 . S
C452 H406 0.930 . S
C452 C451 1.385 . S
C452 C453 1.396 . S
C453 H407 0.929 . S
C453 C448 1.361 . S
C453 C452 1.396 . S
C454 O408 1.300 . S
C454 O409 1.209 . S
C454 C427 1.486 . S
C455 O410 1.199 . S
C455 O411 1.297 . S
C455 C439 1.476 . S
H456 O482 0.856 . S
H457 O485 0.854 . S
H458 C493 0.930 . S
H459 C494 0.930 . S
H460 C496 0.930 . S
H461 C497 0.930 . S
H462 C499 0.931 . S
H463 C500 0.930 . S
H464 C502 0.930 . S
H465 C503 0.929 . S
H466 C505 0.930 . S
H467 C506 0.931 . S
H468 C508 0.930 . S
H469 C509 0.929 . S
H470 C511 0.931 . S
H471 C512 0.930 . S
H472 C514 0.930 . S
H473 C515 0.932 . S
H474 C517 0.930 . S
H475 C518 0.929 . S
H476 C520 0.931 . S
H477 C521 0.930 . S
H478 C523 0.929 . S
H479 C524 0.931 . S
H480 C526 0.930 . S
H481 C527 0.929 . S
O482 H456 0.856 . S
O482 C528 1.300 . S
O483 C528 1.209 . S
O484 C529 1.199 . S
O485 H457 0.854 . S
O485 C529 1.297 . S
C486 C487 1.404 . S
C486 C491 1.397 . S
C486 C492 1.492 . S
C487 C486 1.404 . S
C487 C488 1.396 . S
C487 C498 1.492 . S
C488 C487 1.396 . S
C488 C489 1.397 . S
C488 C504 1.509 . S
C489 C488 1.397 . S
C489 C490 1.412 . S
C489 C510 1.485 . S
C490 C489 1.412 . S
C490 C491 1.388 . S
C490 C516 1.490 . S
C491 C486 1.397 . S
C491 C490 1.388 . S
C491 C522 1.519 . S
C492 C486 1.492 . S
C492 C493 1.363 . S
C492 C497 1.390 . S
C493 H458 0.930 . S
C493 C492 1.363 . S
C493 C494 1.372 . S
C494 H459 0.930 . S
C494 C493 1.372 . S
C494 C495 1.383 . S
C495 C494 1.383 . S
C495 C496 1.395 . S
C496 H460 0.930 . S
C496 C495 1.395 . S
C496 C497 1.362 . S
C497 H461 0.930 . S
C497 C492 1.390 . S
C497 C496 1.362 . S
C498 C487 1.492 . S
C498 C499 1.377 . S
C498 C503 1.397 . S
C499 H462 0.931 . S
C499 C498 1.377 . S
C499 C500 1.376 . S
C500 H463 0.930 . S
C500 C499 1.376 . S
C500 C501 1.376 . S
C501 C500 1.376 . S
C501 C502 1.378 . S
C501 C528 1.486 . S
C502 H464 0.930 . S
C502 C501 1.378 . S
C502 C503 1.376 . S
C503 H465 0.929 . S
C503 C498 1.397 . S
C503 C502 1.376 . S
C504 C488 1.509 . S
C504 C505 1.391 . S
C504 C509 1.386 . S
C505 H466 0.930 . S
C505 C504 1.391 . S
C505 C506 1.375 . S
C506 H467 0.931 . S
C506 C505 1.375 . S
C506 C507 1.375 . S
C507 C506 1.375 . S
C507 C508 1.361 . S
C508 H468 0.930 . S
C508 C507 1.361 . S
C508 C509 1.399 . S
C509 H469 0.929 . S
C509 C504 1.386 . S
C509 C508 1.399 . S
C510 C489 1.485 . S
C510 C511 1.394 . S
C510 C515 1.360 . S
C511 H470 0.931 . S
C511 C510 1.394 . S
C511 C512 1.372 . S
C512 H471 0.930 . S
C512 C511 1.372 . S
C512 C513 1.397 . S
C513 C512 1.397 . S
C513 C514 1.390 . S
C513 C529 1.476 . S
C514 H472 0.930 . S
C514 C513 1.390 . S
C514 C515 1.366 . S
C515 H473 0.932 . S
C515 C510 1.360 . S
C515 C514 1.366 . S
C516 C490 1.490 . S
C516 C517 1.380 . S
C516 C521 1.386 . S
C517 H474 0.930 . S
C517 C516 1.380 . S
C517 C518 1.381 . S
C518 H475 0.929 . S
C518 C517 1.381 . S
C518 C519 1.371 . S
C519 C518 1.371 . S
C519 C520 1.380 . S
C520 H476 0.931 . S
C520 C519 1.380 . S
C520 C521 1.387 . S
C521 H477 0.930 . S
C521 C516 1.386 . S
C521 C520 1.387 . S
C522 C491 1.519 . S
C522 C523 1.377 . S
C522 C527 1.361 . S
C523 H478 0.929 . S
C523 C522 1.377 . S
C523 C524 1.386 . S
C524 H479 0.931 . S
C524 C523 1.386 . S
C524 C525 1.363 . S
C525 C524 1.363 . S
C525 C526 1.385 . S
C526 H480 0.930 . S
C526 C525 1.385 . S
C526 C527 1.396 . S
C527 H481 0.929 . S
C527 C522 1.361 . S
C527 C526 1.396 . S
C528 O482 1.300 . S
C528 O483 1.209 . S
C528 C501 1.486 . S
C529 O484 1.199 . S
C529 O485 1.297 . S
C529 C513 1.476 . S
H530 O556 0.856 1_554 S
H531 O559 0.854 . S
H532 C567 0.930 . S
H533 C568 0.930 . S
H534 C570 0.930 . S
H535 C571 0.930 . S
H536 C573 0.931 . S
H537 C574 0.930 . S
H538 C576 0.930 . S
H539 C577 0.929 . S
H540 C579 0.930 . S
H541 C580 0.931 . S
H542 C582 0.930 . S
H543 C583 0.929 . S
H544 C585 0.931 . S
H545 C586 0.930 . S
H546 C588 0.930 . S
H547 C589 0.932 . S
H548 C591 0.930 . S
H549 C592 0.929 . S
H550 C594 0.931 . S
H551 C595 0.930 . S
H552 C597 0.929 . S
H553 C598 0.931 . S
H554 C600 0.930 . S
H555 C601 0.929 . S
O556 H530 0.856 1_556 S
O556 C602 1.300 . S
O557 C602 1.209 . S
O558 C603 1.199 . S
O559 H531 0.854 . S
O559 C603 1.297 . S
C560 C561 1.404 . S
C560 C565 1.397 . S
C560 C566 1.492 . S
C561 C560 1.404 . S
C561 C562 1.396 . S
C561 C572 1.492 . S
C562 C561 1.396 . S
C562 C563 1.397 . S
C562 C578 1.509 . S
C563 C562 1.397 . S
C563 C564 1.412 . S
C563 C584 1.485 . S
C564 C563 1.412 . S
C564 C565 1.388 . S
C564 C590 1.490 . S
C565 C560 1.397 . S
C565 C564 1.388 . S
C565 C596 1.519 . S
C566 C560 1.492 . S
C566 C567 1.363 . S
C566 C571 1.390 . S
C567 H532 0.930 . S
C567 C566 1.363 . S
C567 C568 1.372 . S
C568 H533 0.930 . S
C568 C567 1.372 . S
C568 C569 1.383 . S
C569 C568 1.383 . S
C569 C570 1.395 . S
C570 H534 0.930 . S
C570 C569 1.395 . S
C570 C571 1.362 . S
C571 H535 0.930 . S
C571 C566 1.390 . S
C571 C570 1.362 . S
C572 C561 1.492 . S
C572 C573 1.377 . S
C572 C577 1.397 . S
C573 H536 0.931 . S
C573 C572 1.377 . S
C573 C574 1.376 . S
C574 H537 0.930 . S
C574 C573 1.376 . S
C574 C575 1.376 . S
C575 C574 1.376 . S
C575 C576 1.378 . S
C575 C602 1.486 . S
C576 H538 0.930 . S
C576 C575 1.378 . S
C576 C577 1.376 . S
C577 H539 0.929 . S
C577 C572 1.397 . S
C577 C576 1.376 . S
C578 C562 1.509 . S
C578 C579 1.391 . S
C578 C583 1.386 . S
C579 H540 0.930 . S
C579 C578 1.391 . S
C579 C580 1.375 . S
C580 H541 0.931 . S
C580 C579 1.375 . S
C580 C581 1.375 . S
C581 C580 1.375 . S
C581 C582 1.361 . S
C582 H542 0.930 . S
C582 C581 1.361 . S
C582 C583 1.399 . S
C583 H543 0.929 . S
C583 C578 1.386 . S
C583 C582 1.399 . S
C584 C563 1.485 . S
C584 C585 1.394 . S
C584 C589 1.360 . S
C585 H544 0.931 . S
C585 C584 1.394 . S
C585 C586 1.372 . S
C586 H545 0.930 . S
C586 C585 1.372 . S
C586 C587 1.397 . S
C587 C586 1.397 . S
C587 C588 1.390 . S
C587 C603 1.476 . S
C588 H546 0.930 . S
C588 C587 1.390 . S
C588 C589 1.366 . S
C589 H547 0.932 . S
C589 C584 1.360 . S
C589 C588 1.366 . S
C590 C564 1.490 . S
C590 C591 1.380 . S
C590 C595 1.386 . S
C591 H548 0.930 . S
C591 C590 1.380 . S
C591 C592 1.381 . S
C592 H549 0.929 . S
C592 C591 1.381 . S
C592 C593 1.371 . S
C593 C592 1.371 . S
C593 C594 1.380 . S
C594 H550 0.931 . S
C594 C593 1.380 . S
C594 C595 1.387 . S
C595 H551 0.930 . S
C595 C590 1.386 . S
C595 C594 1.387 . S
C596 C565 1.519 . S
C596 C597 1.377 . S
C596 C601 1.361 . S
C597 H552 0.929 . S
C597 C596 1.377 . S
C597 C598 1.386 . S
C598 H553 0.931 . S
C598 C597 1.386 . S
C598 C599 1.363 . S
C599 C598 1.363 . S
C599 C600 1.385 . S
C600 H554 0.930 . S
C600 C599 1.385 . S
C600 C601 1.396 . S
C601 H555 0.929 . S
C601 C596 1.361 . S
C601 C600 1.396 . S
C602 O556 1.300 . S
C602 O557 1.209 . S
C602 C575 1.486 . S
C603 O558 1.199 . S
C603 O559 1.297 . S
C603 C587 1.476 . S
H604 O630 0.856 . S
H605 O633 0.854 . S
H606 C641 0.930 . S
H607 C642 0.930 . S
H608 C644 0.930 . S
H609 C645 0.930 . S
H610 C647 0.931 . S
H611 C648 0.930 . S
H612 C650 0.930 . S
H613 C651 0.929 . S
H614 C653 0.930 . S
H615 C654 0.931 . S
H616 C656 0.930 . S
H617 C657 0.929 . S
H618 C659 0.931 . S
H619 C660 0.930 . S
H620 C662 0.930 . S
H621 C663 0.932 . S
H622 C665 0.930 . S
H623 C666 0.929 . S
H624 C668 0.931 . S
H625 C669 0.930 . S
H626 C671 0.929 . S
H627 C672 0.931 . S
H628 C674 0.930 . S
H629 C675 0.929 . S
O630 H604 0.856 . S
O630 C676 1.300 1_554 S
O631 C676 1.209 . S
O632 C677 1.199 . S
O633 H605 0.854 . S
O633 C677 1.297 . S
C634 C635 1.404 . S
C634 C639 1.397 . S
C634 C640 1.492 . S
C635 C634 1.404 . S
C635 C636 1.396 . S
C635 C646 1.492 . S
C636 C635 1.396 . S
C636 C637 1.397 . S
C636 C652 1.509 . S
C637 C636 1.397 . S
C637 C638 1.412 . S
C637 C658 1.485 . S
C638 C637 1.412 . S
C638 C639 1.388 . S
C638 C664 1.490 . S
C639 C634 1.397 . S
C639 C638 1.388 . S
C639 C670 1.519 . S
C640 C634 1.492 . S
C640 C641 1.363 . S
C640 C645 1.390 . S
C641 H606 0.930 . S
C641 C640 1.363 . S
C641 C642 1.372 . S
C642 H607 0.930 . S
C642 C641 1.372 . S
C642 C643 1.383 . S
C643 C642 1.383 . S
C643 C644 1.395 . S
C644 H608 0.930 . S
C644 C643 1.395 . S
C644 C645 1.362 . S
C645 H609 0.930 . S
C645 C640 1.390 . S
C645 C644 1.362 . S
C646 C635 1.492 . S
C646 C647 1.377 . S
C646 C651 1.397 . S
C647 H610 0.931 . S
C647 C646 1.377 . S
C647 C648 1.376 . S
C648 H611 0.930 . S
C648 C647 1.376 . S
C648 C649 1.376 . S
C649 C648 1.376 . S
C649 C650 1.378 . S
C649 C676 1.486 . S
C650 H612 0.930 . S
C650 C649 1.378 . S
C650 C651 1.376 . S
C651 H613 0.929 . S
C651 C646 1.397 . S
C651 C650 1.376 . S
C652 C636 1.509 . S
C652 C653 1.391 . S
C652 C657 1.386 . S
C653 H614 0.930 . S
C653 C652 1.391 . S
C653 C654 1.375 . S
C654 H615 0.931 . S
C654 C653 1.375 . S
C654 C655 1.375 . S
C655 C654 1.375 . S
C655 C656 1.361 . S
C656 H616 0.930 . S
C656 C655 1.361 . S
C656 C657 1.399 . S
C657 H617 0.929 . S
C657 C652 1.386 . S
C657 C656 1.399 . S
C658 C637 1.485 . S
C658 C659 1.394 . S
C658 C663 1.360 . S
C659 H618 0.931 . S
C659 C658 1.394 . S
C659 C660 1.372 . S
C660 H619 0.930 . S
C660 C659 1.372 . S
C660 C661 1.397 . S
C661 C660 1.397 . S
C661 C662 1.390 . S
C661 C677 1.476 . S
C662 H620 0.930 . S
C662 C661 1.390 . S
C662 C663 1.366 . S
C663 H621 0.932 . S
C663 C658 1.360 . S
C663 C662 1.366 . S
C664 C638 1.490 . S
C664 C665 1.380 . S
C664 C669 1.386 . S
C665 H622 0.930 . S
C665 C664 1.380 . S
C665 C666 1.381 . S
C666 H623 0.929 . S
C666 C665 1.381 . S
C666 C667 1.371 . S
C667 C666 1.371 . S
C667 C668 1.380 . S
C668 H624 0.931 . S
C668 C667 1.380 . S
C668 C669 1.387 . S
C669 H625 0.930 . S
C669 C664 1.386 . S
C669 C668 1.387 . S
C670 C639 1.519 . S
C670 C671 1.377 . S
C670 C675 1.361 . S
C671 H626 0.929 . S
C671 C670 1.377 . S
C671 C672 1.386 . S
C672 H627 0.931 . S
C672 C671 1.386 . S
C672 C673 1.363 . S
C673 C672 1.363 . S
C673 C674 1.385 . S
C674 H628 0.930 . S
C674 C673 1.385 . S
C674 C675 1.396 . S
C675 H629 0.929 . S
C675 C670 1.361 . S
C675 C674 1.396 . S
C676 O630 1.300 1_556 S
C676 O631 1.209 . S
C676 C649 1.486 . S
C677 O632 1.199 . S
C677 O633 1.297 . S
C677 C661 1.476 . S
H678 O704 0.856 . S
H679 O707 0.854 . S
H680 C715 0.930 . S
H681 C716 0.930 . S
H682 C718 0.930 . S
H683 C719 0.930 . S
H684 C721 0.931 . S
H685 C722 0.930 . S
H686 C724 0.930 . S
H687 C725 0.929 . S
H688 C727 0.930 . S
H689 C728 0.931 . S
H690 C730 0.930 . S
H691 C731 0.929 . S
H692 C733 0.931 . S
H693 C734 0.930 . S
H694 C736 0.930 . S
H695 C737 0.932 . S
H696 C739 0.930 . S
H697 C740 0.929 . S
H698 C742 0.931 . S
H699 C743 0.930 . S
H700 C745 0.929 . S
H701 C746 0.931 . S
H702 C748 0.930 . S
H703 C749 0.929 . S
O704 H678 0.856 . S
O704 C750 1.300 . S
O705 C750 1.209 . S
O706 C751 1.199 . S
O707 H679 0.854 . S
O707 C751 1.297 . S
C708 C709 1.404 . S
C708 C713 1.397 . S
C708 C714 1.492 . S
C709 C708 1.404 . S
C709 C710 1.396 . S
C709 C720 1.492 . S
C710 C709 1.396 . S
C710 C711 1.397 . S
C710 C726 1.509 . S
C711 C710 1.397 . S
C711 C712 1.412 . S
C711 C732 1.485 . S
C712 C711 1.412 . S
C712 C713 1.388 . S
C712 C738 1.490 . S
C713 C708 1.397 . S
C713 C712 1.388 . S
C713 C744 1.519 . S
C714 C708 1.492 . S
C714 C715 1.363 . S
C714 C719 1.390 . S
C715 H680 0.930 . S
C715 C714 1.363 . S
C715 C716 1.372 . S
C716 H681 0.930 . S
C716 C715 1.372 . S
C716 C717 1.383 . S
C717 C716 1.383 . S
C717 C718 1.395 . S
C718 H682 0.930 . S
C718 C717 1.395 . S
C718 C719 1.362 . S
C719 H683 0.930 . S
C719 C714 1.390 . S
C719 C718 1.362 . S
C720 C709 1.492 . S
C720 C721 1.377 . S
C720 C725 1.397 . S
C721 H684 0.931 . S
C721 C720 1.377 . S
C721 C722 1.376 . S
C722 H685 0.930 . S
C722 C721 1.376 . S
C722 C723 1.376 . S
C723 C722 1.376 . S
C723 C724 1.378 . S
C723 C750 1.486 . S
C724 H686 0.930 . S
C724 C723 1.378 . S
C724 C725 1.376 . S
C725 H687 0.929 . S
C725 C720 1.397 . S
C725 C724 1.376 . S
C726 C710 1.509 . S
C726 C727 1.391 . S
C726 C731 1.386 . S
C727 H688 0.930 . S
C727 C726 1.391 . S
C727 C728 1.375 . S
C728 H689 0.931 . S
C728 C727 1.375 . S
C728 C729 1.375 . S
C729 C728 1.375 . S
C729 C730 1.361 . S
C730 H690 0.930 . S
C730 C729 1.361 . S
C730 C731 1.399 . S
C731 H691 0.929 . S
C731 C726 1.386 . S
C731 C730 1.399 . S
C732 C711 1.485 . S
C732 C733 1.394 . S
C732 C737 1.360 . S
C733 H692 0.931 . S
C733 C732 1.394 . S
C733 C734 1.372 . S
C734 H693 0.930 . S
C734 C733 1.372 . S
C734 C735 1.397 . S
C735 C734 1.397 . S
C735 C736 1.390 . S
C735 C751 1.476 . S
C736 H694 0.930 . S
C736 C735 1.390 . S
C736 C737 1.366 . S
C737 H695 0.932 . S
C737 C732 1.360 . S
C737 C736 1.366 . S
C738 C712 1.490 . S
C738 C739 1.380 . S
C738 C743 1.386 . S
C739 H696 0.930 . S
C739 C738 1.380 . S
C739 C740 1.381 . S
C740 H697 0.929 . S
C740 C739 1.381 . S
C740 C741 1.371 . S
C741 C740 1.371 . S
C741 C742 1.380 . S
C742 H698 0.931 . S
C742 C741 1.380 . S
C742 C743 1.387 . S
C743 H699 0.930 . S
C743 C738 1.386 . S
C743 C742 1.387 . S
C744 C713 1.519 . S
C744 C745 1.377 . S
C744 C749 1.361 . S
C745 H700 0.929 . S
C745 C744 1.377 . S
C745 C746 1.386 . S
C746 H701 0.931 . S
C746 C745 1.386 . S
C746 C747 1.363 . S
C747 C746 1.363 . S
C747 C748 1.385 . S
C748 H702 0.930 . S
C748 C747 1.385 . S
C748 C749 1.396 . S
C749 H703 0.929 . S
C749 C744 1.361 . S
C749 C748 1.396 . S
C750 O704 1.300 . S
C750 O705 1.209 . S
C750 C723 1.486 . S
C751 O706 1.199 . S
C751 O707 1.297 . S
C751 C735 1.476 . S
H752 O778 0.856 . S
H753 O781 0.854 . S
H754 C789 0.930 . S
H755 C790 0.930 . S
H756 C792 0.930 . S
H757 C793 0.930 . S
H758 C795 0.931 . S
H759 C796 0.930 . S
H760 C798 0.930 . S
H761 C799 0.929 . S
H762 C801 0.930 . S
H763 C802 0.931 . S
H764 C804 0.930 . S
H765 C805 0.929 . S
H766 C807 0.931 . S
H767 C808 0.930 . S
H768 C810 0.930 . S
H769 C811 0.932 . S
H770 C813 0.930 . S
H771 C814 0.929 . S
H772 C816 0.931 . S
H773 C817 0.930 . S
H774 C819 0.929 . S
H775 C820 0.931 . S
H776 C822 0.930 . S
H777 C823 0.929 . S
O778 H752 0.856 . S
O778 C824 1.300 . S
O779 C824 1.209 . S
O780 C825 1.199 . S
O781 H753 0.854 . S
O781 C825 1.297 . S
C782 C783 1.404 . S
C782 C787 1.397 . S
C782 C788 1.492 . S
C783 C782 1.404 . S
C783 C784 1.396 . S
C783 C794 1.492 . S
C784 C783 1.396 . S
C784 C785 1.397 . S
C784 C800 1.509 . S
C785 C784 1.397 . S
C785 C786 1.412 . S
C785 C806 1.485 . S
C786 C785 1.412 . S
C786 C787 1.388 . S
C786 C812 1.490 . S
C787 C782 1.397 . S
C787 C786 1.388 . S
C787 C818 1.519 . S
C788 C782 1.492 . S
C788 C789 1.363 . S
C788 C793 1.390 . S
C789 H754 0.930 . S
C789 C788 1.363 . S
C789 C790 1.372 . S
C790 H755 0.930 . S
C790 C789 1.372 . S
C790 C791 1.383 . S
C791 C790 1.383 . S
C791 C792 1.395 . S
C792 H756 0.930 . S
C792 C791 1.395 . S
C792 C793 1.362 . S
C793 H757 0.930 . S
C793 C788 1.390 . S
C793 C792 1.362 . S
C794 C783 1.492 . S
C794 C795 1.377 . S
C794 C799 1.397 . S
C795 H758 0.931 . S
C795 C794 1.377 . S
C795 C796 1.376 . S
C796 H759 0.930 . S
C796 C795 1.376 . S
C796 C797 1.376 . S
C797 C796 1.376 . S
C797 C798 1.378 . S
C797 C824 1.486 . S
C798 H760 0.930 . S
C798 C797 1.378 . S
C798 C799 1.376 . S
C799 H761 0.929 . S
C799 C794 1.397 . S
C799 C798 1.376 . S
C800 C784 1.509 . S
C800 C801 1.391 . S
C800 C805 1.386 . S
C801 H762 0.930 . S
C801 C800 1.391 . S
C801 C802 1.375 . S
C802 H763 0.931 . S
C802 C801 1.375 . S
C802 C803 1.375 . S
C803 C802 1.375 . S
C803 C804 1.361 . S
C804 H764 0.930 . S
C804 C803 1.361 . S
C804 C805 1.399 . S
C805 H765 0.929 . S
C805 C800 1.386 . S
C805 C804 1.399 . S
C806 C785 1.485 . S
C806 C807 1.394 . S
C806 C811 1.360 . S
C807 H766 0.931 . S
C807 C806 1.394 . S
C807 C808 1.372 . S
C808 H767 0.930 . S
C808 C807 1.372 . S
C808 C809 1.397 . S
C809 C808 1.397 . S
C809 C810 1.390 . S
C809 C825 1.476 . S
C810 H768 0.930 . S
C810 C809 1.390 . S
C810 C811 1.366 . S
C811 H769 0.932 . S
C811 C806 1.360 . S
C811 C810 1.366 . S
C812 C786 1.490 . S
C812 C813 1.380 . S
C812 C817 1.386 . S
C813 H770 0.930 . S
C813 C812 1.380 . S
C813 C814 1.381 . S
C814 H771 0.929 . S
C814 C813 1.381 . S
C814 C815 1.371 . S
C815 C814 1.371 . S
C815 C816 1.380 . S
C816 H772 0.931 . S
C816 C815 1.380 . S
C816 C817 1.387 . S
C817 H773 0.930 . S
C817 C812 1.386 . S
C817 C816 1.387 . S
C818 C787 1.519 . S
C818 C819 1.377 . S
C818 C823 1.361 . S
C819 H774 0.929 . S
C819 C818 1.377 . S
C819 C820 1.386 . S
C820 H775 0.931 . S
C820 C819 1.386 . S
C820 C821 1.363 . S
C821 C820 1.363 . S
C821 C822 1.385 . S
C822 H776 0.930 . S
C822 C821 1.385 . S
C822 C823 1.396 . S
C823 H777 0.929 . S
C823 C818 1.361 . S
C823 C822 1.396 . S
C824 O778 1.300 . S
C824 O779 1.209 . S
C824 C797 1.486 . S
C825 O780 1.199 . S
C825 O781 1.297 . S
C825 C809 1.476 . S
H826 O852 0.856 . S
H827 O855 0.854 . S
H828 C863 0.930 . S
H829 C864 0.930 . S
H830 C866 0.930 . S
H831 C867 0.930 . S
H832 C869 0.931 . S
H833 C870 0.930 . S
H834 C872 0.930 . S
H835 C873 0.929 . S
H836 C875 0.930 . S
H837 C876 0.931 . S
H838 C878 0.930 . S
H839 C879 0.929 . S
H840 C881 0.931 . S
H841 C882 0.930 . S
H842 C884 0.930 . S
H843 C885 0.932 . S
H844 C887 0.930 . S
H845 C888 0.929 . S
H846 C890 0.931 . S
H847 C891 0.930 . S
H848 C893 0.929 . S
H849 C894 0.931 . S
H850 C896 0.930 . S
H851 C897 0.929 . S
O852 H826 0.856 . S
O852 C898 1.300 . S
O853 C898 1.209 . S
O854 C899 1.199 . S
O855 H827 0.854 . S
O855 C899 1.297 . S
C856 C857 1.404 . S
C856 C861 1.397 . S
C856 C862 1.492 . S
C857 C856 1.404 . S
C857 C858 1.396 . S
C857 C868 1.492 . S
C858 C857 1.396 . S
C858 C859 1.397 . S
C858 C874 1.509 . S
C859 C858 1.397 . S
C859 C860 1.412 . S
C859 C880 1.485 . S
C860 C859 1.412 . S
C860 C861 1.388 . S
C860 C886 1.490 . S
C861 C856 1.397 . S
C861 C860 1.388 . S
C861 C892 1.519 . S
C862 C856 1.492 . S
C862 C863 1.363 . S
C862 C867 1.390 . S
C863 H828 0.930 . S
C863 C862 1.363 . S
C863 C864 1.372 . S
C864 H829 0.930 . S
C864 C863 1.372 . S
C864 C865 1.383 . S
C865 C864 1.383 . S
C865 C866 1.395 . S
C866 H830 0.930 . S
C866 C865 1.395 . S
C866 C867 1.362 . S
C867 H831 0.930 . S
C867 C862 1.390 . S
C867 C866 1.362 . S
C868 C857 1.492 . S
C868 C869 1.377 . S
C868 C873 1.397 . S
C869 H832 0.931 . S
C869 C868 1.377 . S
C869 C870 1.376 . S
C870 H833 0.930 . S
C870 C869 1.376 . S
C870 C871 1.376 . S
C871 C870 1.376 . S
C871 C872 1.378 . S
C871 C898 1.486 . S
C872 H834 0.930 . S
C872 C871 1.378 . S
C872 C873 1.376 . S
C873 H835 0.929 . S
C873 C868 1.397 . S
C873 C872 1.376 . S
C874 C858 1.509 . S
C874 C875 1.391 . S
C874 C879 1.386 . S
C875 H836 0.930 . S
C875 C874 1.391 . S
C875 C876 1.375 . S
C876 H837 0.931 . S
C876 C875 1.375 . S
C876 C877 1.375 . S
C877 C876 1.375 . S
C877 C878 1.361 . S
C878 H838 0.930 . S
C878 C877 1.361 . S
C878 C879 1.399 . S
C879 H839 0.929 . S
C879 C874 1.386 . S
C879 C878 1.399 . S
C880 C859 1.485 . S
C880 C881 1.394 . S
C880 C885 1.360 . S
C881 H840 0.931 . S
C881 C880 1.394 . S
C881 C882 1.372 . S
C882 H841 0.930 . S
C882 C881 1.372 . S
C882 C883 1.397 . S
C883 C882 1.397 . S
C883 C884 1.390 . S
C883 C899 1.476 . S
C884 H842 0.930 . S
C884 C883 1.390 . S
C884 C885 1.366 . S
C885 H843 0.932 . S
C885 C880 1.360 . S
C885 C884 1.366 . S
C886 C860 1.490 . S
C886 C887 1.380 . S
C886 C891 1.386 . S
C887 H844 0.930 . S
C887 C886 1.380 . S
C887 C888 1.381 . S
C888 H845 0.929 . S
C888 C887 1.381 . S
C888 C889 1.371 . S
C889 C888 1.371 . S
C889 C890 1.380 . S
C890 H846 0.931 . S
C890 C889 1.380 . S
C890 C891 1.387 . S
C891 H847 0.930 . S
C891 C886 1.386 . S
C891 C890 1.387 . S
C892 C861 1.519 . S
C892 C893 1.377 . S
C892 C897 1.361 . S
C893 H848 0.929 . S
C893 C892 1.377 . S
C893 C894 1.386 . S
C894 H849 0.931 . S
C894 C893 1.386 . S
C894 C895 1.363 . S
C895 C894 1.363 . S
C895 C896 1.385 . S
C896 H850 0.930 . S
C896 C895 1.385 . S
C896 C897 1.396 . S
C897 H851 0.929 . S
C897 C892 1.361 . S
C897 C896 1.396 . S
C898 O852 1.300 . S
C898 O853 1.209 . S
C898 C871 1.486 . S
C899 O854 1.199 . S
C899 O855 1.297 . S
C899 C883 1.476 . S
H900 O926 0.856 . S
H901 O929 0.854 . S
H902 C937 0.930 . S
H903 C938 0.930 . S
H904 C940 0.930 . S
H905 C941 0.930 . S
H906 C943 0.931 . S
H907 C944 0.899 1_655 S
H908 C946 0.930 . S
H909 C947 0.929 . S
H910 C949 0.930 . S
H911 C950 0.931 1_655 S
H912 C952 0.930 . S
H913 C953 0.929 . S
H914 C955 0.931 . S
H915 C956 0.930 . S
H916 C958 0.930 . S
H917 C959 0.932 . S
H918 C961 0.930 . S
H919 C962 0.929 . S
H920 C964 0.931 . S
H921 C965 0.930 . S
H922 C967 0.929 . S
H923 C968 0.931 . S
H924 C970 0.930 . S
H925 C971 0.929 . S
O926 H900 0.856 . S
O926 C972 1.300 . S
O927 C972 1.209 . S
O928 C973 1.199 1_655 S
O929 H901 0.854 . S
O929 C973 1.297 . S
C930 C931 1.404 . S
C930 C935 1.393 . S
C930 C936 1.492 . S
C931 C930 1.404 . S
C931 C932 1.396 . S
C931 C942 1.492 . S
C932 C931 1.396 . S
C932 C933 1.397 . S
C932 C948 1.509 . S
C933 C932 1.397 . S
C933 C934 1.440 . S
C933 C954 1.485 . S
C934 C933 1.440 . S
C934 C935 1.391 . S
C934 C960 1.492 1_455 S
C935 C930 1.393 . S
C935 C934 1.391 . S
C935 C966 1.482 1_455 S
C936 C930 1.492 . S
C936 C937 1.363 1_455 S
C936 C941 1.390 . S
C937 H902 0.930 . S
C937 C936 1.363 1_655 S
C937 C938 1.372 . S
C938 H903 0.930 . S
C938 C937 1.372 . S
C938 C939 1.383 . S
C939 C938 1.383 . S
C939 C940 1.395 1_655 S
C940 H904 0.930 . S
C940 C939 1.395 1_455 S
C940 C941 1.362 . S
C941 H905 0.930 . S
C941 C936 1.390 . S
C941 C940 1.362 . S
C942 C931 1.492 . S
C942 C943 1.377 1_455 S
C942 C947 1.397 . S
C943 H906 0.931 . S
C943 C942 1.377 1_655 S
C943 C944 1.383 1_655 S
C944 H907 0.899 1_455 S
C944 C943 1.383 1_455 S
C944 C945 1.404 . S
C945 C944 1.404 . S
C945 C946 1.378 . S
C945 C972 1.486 . S
C946 H908 0.930 . S
C946 C945 1.378 . S
C946 C947 1.376 . S
C947 H909 0.929 . S
C947 C942 1.397 . S
C947 C946 1.376 . S
C948 C932 1.509 . S
C948 C949 1.391 1_455 S
C948 C953 1.386 . S
C949 H910 0.930 . S
C949 C948 1.391 1_655 S
C949 C950 1.375 1_655 S
C950 H911 0.931 1_455 S
C950 C949 1.375 1_455 S
C950 C951 1.375 . S
C951 C950 1.375 . S
C951 C952 1.361 . S
C952 H912 0.930 . S
C952 C951 1.361 . S
C952 C953 1.399 . S
C953 H913 0.929 . S
C953 C948 1.386 . S
C953 C952 1.399 . S
C954 C933 1.485 . S
C954 C955 1.394 1_455 S
C954 C959 1.360 . S
C955 H914 0.931 . S
C955 C954 1.394 1_655 S
C955 C956 1.372 . S
C956 H915 0.930 . S
C956 C955 1.372 . S
C956 C957 1.397 1_655 S
C957 C956 1.397 1_455 S
C957 C958 1.390 . S
C957 C973 1.476 . S
C958 H916 0.930 . S
C958 C957 1.390 . S
C958 C959 1.366 . S
C959 H917 0.932 . S
C959 C954 1.360 . S
C959 C958 1.366 . S
C960 C934 1.492 1_655 S
C960 C961 1.380 . S
C960 C965 1.386 1_655 S
C961 H918 0.930 . S
C961 C960 1.380 . S
C961 C962 1.381 . S
C962 H919 0.929 . S
C962 C961 1.381 . S
C962 C963 1.371 . S
C963 C962 1.371 . S
C963 C964 1.380 1_655 S
C964 H920 0.931 . S
C964 C963 1.380 1_455 S
C964 C965 1.387 . S
C965 H921 0.930 . S
C965 C960 1.386 1_455 S
C965 C964 1.387 . S
C966 C935 1.482 1_655 S
C966 C967 1.416 . S
C966 C971 1.337 1_655 S
C967 H922 0.929 . S
C967 C966 1.416 . S
C967 C968 1.386 . S
C968 H923 0.931 . S
C968 C967 1.386 . S
C968 C969 1.399 . S
C969 C968 1.399 . S
C969 C970 1.328 1_655 S
C970 H924 0.930 . S
C970 C969 1.328 1_455 S
C970 C971 1.396 . S
C971 H925 0.929 . S
C971 C966 1.337 1_455 S
C971 C970 1.396 . S
C972 O926 1.300 . S
C972 O927 1.209 . S
C972 C945 1.486 . S
C973 O928 1.199 1_455 S
C973 O929 1.297 . S
C973 C957 1.476 . S
H974 O1000 0.856 . S
H975 O1003 0.854 . S
H976 C1011 0.930 . S
H977 C1012 0.930 . S
H978 C1014 0.930 . S
H979 C1015 0.930 . S
H980 C1017 0.931 . S
H981 C1018 0.930 . S
H982 C1020 0.930 . S
H983 C1021 0.929 . S
H984 C1023 0.930 . S
H985 C1024 0.931 . S
H986 C1026 0.930 . S
H987 C1027 0.929 . S
H988 C1029 0.931 . S
H989 C1030 0.930 . S
H990 C1032 0.930 . S
H991 C1033 0.932 . S
H992 C1035 0.930 . S
H993 C1036 0.929 . S
H994 C1038 0.931 . S
H995 C1039 0.930 . S
H996 C1041 0.929 . S
H997 C1042 0.931 . S
H998 C1044 0.930 . S
H999 C1045 0.929 . S
O1000 H974 0.856 . S
O1000 C1046 1.300 . S
O1001 C1046 1.209 . S
O1002 C1047 1.199 . S
O1003 H975 0.854 . S
O1003 C1047 1.297 . S
C1004 C1005 1.404 . S
C1004 C1009 1.397 . S
C1004 C1010 1.492 . S
C1005 C1004 1.404 . S
C1005 C1006 1.396 . S
C1005 C1016 1.492 . S
C1006 C1005 1.396 . S
C1006 C1007 1.397 . S
C1006 C1022 1.509 . S
C1007 C1006 1.397 . S
C1007 C1008 1.412 . S
C1007 C1028 1.485 . S
C1008 C1007 1.412 . S
C1008 C1009 1.388 . S
C1008 C1034 1.490 . S
C1009 C1004 1.397 . S
C1009 C1008 1.388 . S
C1009 C1040 1.519 . S
C1010 C1004 1.492 . S
C1010 C1011 1.363 . S
C1010 C1015 1.390 . S
C1011 H976 0.930 . S
C1011 C1010 1.363 . S
C1011 C1012 1.372 . S
C1012 H977 0.930 . S
C1012 C1011 1.372 . S
C1012 C1013 1.383 . S
C1013 C1012 1.383 . S
C1013 C1014 1.395 . S
C1014 H978 0.930 . S
C1014 C1013 1.395 . S
C1014 C1015 1.362 . S
C1015 H979 0.930 . S
C1015 C1010 1.390 . S
C1015 C1014 1.362 . S
C1016 C1005 1.492 . S
C1016 C1017 1.377 . S
C1016 C1021 1.397 . S
C1017 H980 0.931 . S
C1017 C1016 1.377 . S
C1017 C1018 1.376 . S
C1018 H981 0.930 . S
C1018 C1017 1.376 . S
C1018 C1019 1.376 . S
C1019 C1018 1.376 . S
C1019 C1020 1.378 . S
C1019 C1046 1.486 . S
C1020 H982 0.930 . S
C1020 C1019 1.378 . S
C1020 C1021 1.376 . S
C1021 H983 0.929 . S
C1021 C1016 1.397 . S
C1021 C1020 1.376 . S
C1022 C1006 1.509 . S
C1022 C1023 1.391 . S
C1022 C1027 1.386 . S
C1023 H984 0.930 . S
C1023 C1022 1.391 . S
C1023 C1024 1.375 . S
C1024 H985 0.931 . S
C1024 C1023 1.375 . S
C1024 C1025 1.375 . S
C1025 C1024 1.375 . S
C1025 C1026 1.361 . S
C1026 H986 0.930 . S
C1026 C1025 1.361 . S
C1026 C1027 1.399 . S
C1027 H987 0.929 . S
C1027 C1022 1.386 . S
C1027 C1026 1.399 . S
C1028 C1007 1.485 . S
C1028 C1029 1.394 . S
C1028 C1033 1.360 . S
C1029 H988 0.931 . S
C1029 C1028 1.394 . S
C1029 C1030 1.372 . S
C1030 H989 0.930 . S
C1030 C1029 1.372 . S
C1030 C1031 1.397 . S
C1031 C1030 1.397 . S
C1031 C1032 1.390 . S
C1031 C1047 1.476 . S
C1032 H990 0.930 . S
C1032 C1031 1.390 . S
C1032 C1033 1.366 . S
C1033 H991 0.932 . S
C1033 C1028 1.360 . S
C1033 C1032 1.366 . S
C1034 C1008 1.490 . S
C1034 C1035 1.380 . S
C1034 C1039 1.386 . S
C1035 H992 0.930 . S
C1035 C1034 1.380 . S
C1035 C1036 1.381 . S
C1036 H993 0.929 . S
C1036 C1035 1.381 . S
C1036 C1037 1.371 . S
C1037 C1036 1.371 . S
C1037 C1038 1.380 . S
C1038 H994 0.931 . S
C1038 C1037 1.380 . S
C1038 C1039 1.387 . S
C1039 H995 0.930 . S
C1039 C1034 1.386 . S
C1039 C1038 1.387 . S
C1040 C1009 1.519 . S
C1040 C1041 1.377 . S
C1040 C1045 1.361 . S
C1041 H996 0.929 . S
C1041 C1040 1.377 . S
C1041 C1042 1.386 . S
C1042 H997 0.931 . S
C1042 C1041 1.386 . S
C1042 C1043 1.363 . S
C1043 C1042 1.363 . S
C1043 C1044 1.385 . S
C1044 H998 0.930 . S
C1044 C1043 1.385 . S
C1044 C1045 1.396 . S
C1045 H999 0.929 . S
C1045 C1040 1.361 . S
C1045 C1044 1.396 . S
C1046 O1000 1.300 . S
C1046 O1001 1.209 . S
C1046 C1019 1.486 . S
C1047 O1002 1.199 . S
C1047 O1003 1.297 . S
C1047 C1031 1.476 . S
H1048 O1074 0.856 . S
H1049 O1077 0.854 . S
H1050 C1085 0.930 . S
H1051 C1086 0.930 . S
H1052 C1088 0.930 . S
H1053 C1089 0.930 . S
H1054 C1091 0.931 . S
H1055 C1092 0.923 1_545 S
H1056 C1094 0.930 . S
H1057 C1095 0.929 . S
H1058 C1097 0.930 . S
H1059 C1098 0.931 . S
H1060 C1100 0.930 . S
H1061 C1101 0.929 . S
H1062 C1103 0.931 . S
H1063 C1104 0.930 . S
H1064 C1106 0.930 . S
H1065 C1107 0.932 . S
H1066 C1109 0.930 . S
H1067 C1110 0.929 . S
H1068 C1112 0.931 . S
H1069 C1113 0.930 . S
H1070 C1115 0.929 . S
H1071 C1116 0.931 . S
H1072 C1118 0.930 . S
H1073 C1119 0.929 . S
O1074 H1048 0.856 . S
O1074 C1120 1.300 . S
O1075 C1120 1.209 . S
O1076 C1121 1.199 1_545 S
O1077 H1049 0.854 . S
O1077 C1121 1.297 . S
C1078 C1079 1.404 . S
C1078 C1083 1.415 . S
C1078 C1084 1.492 . S
C1079 C1078 1.404 . S
C1079 C1080 1.396 . S
C1079 C1090 1.492 . S
C1080 C1079 1.396 . S
C1080 C1081 1.397 . S
C1080 C1096 1.509 . S
C1081 C1080 1.397 . S
C1081 C1082 1.411 1_565 S
C1081 C1102 1.485 . S
C1082 C1081 1.411 1_545 S
C1082 C1083 1.364 1_545 S
C1082 C1108 1.488 . S
C1083 C1078 1.415 . S
C1083 C1082 1.364 1_565 S
C1083 C1114 1.531 1_565 S
C1084 C1078 1.492 . S
C1084 C1085 1.363 1_565 S
C1084 C1089 1.390 . S
C1085 H1050 0.930 . S
C1085 C1084 1.363 1_545 S
C1085 C1086 1.372 . S
C1086 H1051 0.930 . S
C1086 C1085 1.372 . S
C1086 C1087 1.442 . S
C1087 C1086 1.442 . S
C1087 C1088 1.366 1_545 S
C1088 H1052 0.930 . S
C1088 C1087 1.366 1_565 S
C1088 C1089 1.362 . S
C1089 H1053 0.930 . S
C1089 C1084 1.390 . S
C1089 C1088 1.362 . S
C1090 C1079 1.492 . S
C1090 C1091 1.377 1_565 S
C1090 C1095 1.397 . S
C1091 H1054 0.931 . S
C1091 C1090 1.377 1_545 S
C1091 C1092 1.372 1_545 S
C1092 H1055 0.923 1_565 S
C1092 C1091 1.372 1_565 S
C1092 C1093 1.387 . S
C1093 C1092 1.387 . S
C1093 C1094 1.378 . S
C1093 C1120 1.486 . S
C1094 H1056 0.930 . S
C1094 C1093 1.378 . S
C1094 C1095 1.376 . S
C1095 H1057 0.929 . S
C1095 C1090 1.397 . S
C1095 C1094 1.376 . S
C1096 C1080 1.509 . S
C1096 C1097 1.391 1_565 S
C1096 C1101 1.386 . S
C1097 H1058 0.930 . S
C1097 C1096 1.391 1_545 S
C1097 C1098 1.375 . S
C1098 H1059 0.931 . S
C1098 C1097 1.375 . S
C1098 C1099 1.375 1_545 S
C1099 C1098 1.375 1_565 S
C1099 C1100 1.361 . S
C1100 H1060 0.930 . S
C1100 C1099 1.361 . S
C1100 C1101 1.399 . S
C1101 H1061 0.929 . S
C1101 C1096 1.386 . S
C1101 C1100 1.399 . S
C1102 C1081 1.485 . S
C1102 C1103 1.394 1_565 S
C1102 C1107 1.360 . S
C1103 H1062 0.931 . S
C1103 C1102 1.394 1_545 S
C1103 C1104 1.372 . S
C1104 H1063 0.930 . S
C1104 C1103 1.372 . S
C1104 C1105 1.397 1_545 S
C1105 C1104 1.397 1_565 S
C1105 C1106 1.390 . S
C1105 C1121 1.476 . S
C1106 H1064 0.930 . S
C1106 C1105 1.390 . S
C1106 C1107 1.366 . S
C1107 H1065 0.932 . S
C1107 C1102 1.360 . S
C1107 C1106 1.366 . S
C1108 C1082 1.488 . S
C1108 C1109 1.380 . S
C1108 C1113 1.386 1_545 S
C1109 H1066 0.930 . S
C1109 C1108 1.380 . S
C1109 C1110 1.381 . S
C1110 H1067 0.929 . S
C1110 C1109 1.381 . S
C1110 C1111 1.371 . S
C1111 C1110 1.371 . S
C1111 C1112 1.380 1_545 S
C1112 H1068 0.931 . S
C1112 C1111 1.380 1_565 S
C1112 C1113 1.387 . S
C1113 H1069 0.930 . S
C1113 C1108 1.386 1_565 S
C1113 C1112 1.387 . S
C1114 C1083 1.531 1_545 S
C1114 C1115 1.374 . S
C1114 C1119 1.366 1_545 S
C1115 H1070 0.929 . S
C1115 C1114 1.374 . S
C1115 C1116 1.386 . S
C1116 H1071 0.931 . S
C1116 C1115 1.386 . S
C1116 C1117 1.312 1_545 S
C1117 C1116 1.312 1_565 S
C1117 C1118 1.411 . S
C1118 H1072 0.930 . S
C1118 C1117 1.411 . S
C1118 C1119 1.396 . S
C1119 H1073 0.929 . S
C1119 C1114 1.366 1_565 S
C1119 C1118 1.396 . S
C1120 O1074 1.300 . S
C1120 O1075 1.209 . S
C1120 C1093 1.486 . S
C1121 O1076 1.199 1_565 S
C1121 O1077 1.297 . S
C1121 C1105 1.476 . S
H1122 O1148 0.856 . S
H1123 O1151 0.854 . S
H1124 C1159 0.930 . S
H1125 C1160 0.930 . S
H1126 C1162 0.930 . S
H1127 C1163 0.930 . S
H1128 C1165 0.931 . S
H1129 C1166 0.930 . S
H1130 C1168 0.930 . S
H1131 C1169 0.929 . S
H1132 C1171 0.930 . S
H1133 C1172 0.931 . S
H1134 C1174 0.930 . S
H1135 C1175 0.929 . S
H1136 C1177 0.931 . S
H1137 C1178 0.930 . S
H1138 C1180 0.930 . S
H1139 C1181 0.932 . S
H1140 C1183 0.930 . S
H1141 C1184 0.929 . S
H1142 C1186 0.931 . S
H1143 C1187 0.930 . S
H1144 C1189 0.929 . S
H1145 C1190 0.931 . S
H1146 C1192 0.930 . S
H1147 C1193 0.929 . S
O1148 H1122 0.856 . S
O1148 C1194 1.300 . S
O1149 C1194 1.209 1_565 S
O1150 C1195 1.199 1_545 S
O1151 H1123 0.854 . S
O1151 C1195 1.297 . S
C1152 C1153 1.404 . S
C1152 C1157 1.397 1_545 S
C1152 C1158 1.492 . S
C1153 C1152 1.404 . S
C1153 C1154 1.412 . S
C1153 C1164 1.492 . S
C1154 C1153 1.412 . S
C1154 C1155 1.375 1_545 S
C1154 C1170 1.499 . S
C1155 C1154 1.375 1_565 S
C1155 C1156 1.412 . S
C1155 C1176 1.523 . S
C1156 C1155 1.412 . S
C1156 C1157 1.354 . S
C1156 C1182 1.487 . S
C1157 C1152 1.397 1_565 S
C1157 C1156 1.354 . S
C1157 C1188 1.519 . S
C1158 C1152 1.492 . S
C1158 C1159 1.363 . S
C1158 C1163 1.390 1_545 S
C1159 H1124 0.930 . S
C1159 C1158 1.363 . S
C1159 C1160 1.372 . S
C1160 H1125 0.930 . S
C1160 C1159 1.372 . S
C1160 C1161 1.383 . S
C1161 C1160 1.383 . S
C1161 C1162 1.395 1_545 S
C1162 H1126 0.930 . S
C1162 C1161 1.395 1_565 S
C1162 C1163 1.362 . S
C1163 H1127 0.930 . S
C1163 C1158 1.390 1_565 S
C1163 C1162 1.362 . S
C1164 C1153 1.492 . S
C1164 C1165 1.377 . S
C1164 C1169 1.397 1_545 S
C1165 H1128 0.931 . S
C1165 C1164 1.377 . S
C1165 C1166 1.376 . S
C1166 H1129 0.930 . S
C1166 C1165 1.376 . S
C1166 C1167 1.376 . S
C1167 C1166 1.376 . S
C1167 C1168 1.378 1_545 S
C1167 C1194 1.486 . S
C1168 H1130 0.930 . S
C1168 C1167 1.378 1_565 S
C1168 C1169 1.376 . S
C1169 H1131 0.929 . S
C1169 C1164 1.397 1_565 S
C1169 C1168 1.376 . S
C1170 C1154 1.499 . S
C1170 C1171 1.390 . S
C1170 C1175 1.389 1_545 S
C1171 H1132 0.930 . S
C1171 C1170 1.390 . S
C1171 C1172 1.375 . S
C1172 H1133 0.931 . S
C1172 C1171 1.375 . S
C1172 C1173 1.341 1_545 S
C1173 C1172 1.341 1_565 S
C1173 C1174 1.381 . S
C1174 H1134 0.930 . S
C1174 C1173 1.381 . S
C1174 C1175 1.399 . S
C1175 H1135 0.929 . S
C1175 C1170 1.389 1_565 S
C1175 C1174 1.399 . S
C1176 C1155 1.523 . S
C1176 C1177 1.394 1_565 S
C1176 C1181 1.360 . S
C1177 H1136 0.931 . S
C1177 C1176 1.394 1_545 S
C1177 C1178 1.372 . S
C1178 H1137 0.930 . S
C1178 C1177 1.372 . S
C1178 C1179 1.397 1_545 S
C1179 C1178 1.397 1_565 S
C1179 C1180 1.390 . S
C1179 C1195 1.476 . S
C1180 H1138 0.930 . S
C1180 C1179 1.390 . S
C1180 C1181 1.366 . S
C1181 H1139 0.932 . S
C1181 C1176 1.360 . S
C1181 C1180 1.366 . S
C1182 C1156 1.487 . S
C1182 C1183 1.324 1_565 S
C1182 C1187 1.460 . S
C1183 H1140 0.930 . S
C1183 C1182 1.324 1_545 S
C1183 C1184 1.381 . S
C1184 H1141 0.929 . S
C1184 C1183 1.381 . S
C1184 C1185 1.368 1_545 S
C1185 C1184 1.368 1_565 S
C1185 C1186 1.382 . S
C1186 H1142 0.931 . S
C1186 C1185 1.382 . S
C1186 C1187 1.387 . S
C1187 H1143 0.930 . S
C1187 C1182 1.460 . S
C1187 C1186 1.387 . S
C1188 C1157 1.519 . S
C1188 C1189 1.377 1_565 S
C1188 C1193 1.361 . S
C1189 H1144 0.929 . S
C1189 C1188 1.377 1_545 S
C1189 C1190 1.386 . S
C1190 H1145 0.931 . S
C1190 C1189 1.386 . S
C1190 C1191 1.363 1_545 S
C1191 C1190 1.363 1_565 S
C1191 C1192 1.385 . S
C1192 H1146 0.930 . S
C1192 C1191 1.385 . S
C1192 C1193 1.396 . S
C1193 H1147 0.929 . S
C1193 C1188 1.361 . S
C1193 C1192 1.396 . S
C1194 O1148 1.300 . S
C1194 O1149 1.209 1_545 S
C1194 C1167 1.486 . S
C1195 O1150 1.199 1_565 S
C1195 O1151 1.297 . S
C1195 C1179 1.476 . S
H1196 O1222 0.856 . S
H1197 O1225 0.854 . S
H1198 C1233 0.930 . S
H1199 C1234 0.930 . S
H1200 C1236 0.930 . S
H1201 C1237 0.930 . S
H1202 C1239 0.931 . S
H1203 C1240 0.930 . S
H1204 C1242 0.930 . S
H1205 C1243 0.929 . S
H1206 C1245 0.930 . S
H1207 C1246 0.931 . S
H1208 C1248 0.930 . S
H1209 C1249 0.929 . S
H1210 C1251 0.931 . S
H1211 C1252 0.930 . S
H1212 C1254 0.930 . S
H1213 C1255 0.932 . S
H1214 C1257 0.930 . S
H1215 C1258 0.929 . S
H1216 C1260 0.931 . S
H1217 C1261 0.930 . S
H1218 C1263 0.929 . S
H1219 C1264 0.931 . S
H1220 C1266 0.930 . S
H1221 C1267 0.929 . S
O1222 H1196 0.856 . S
O1222 C1268 1.300 . S
O1223 C1268 1.209 1_455 S
O1224 C1269 1.199 1_655 S
O1225 H1197 0.854 . S
O1225 C1269 1.297 . S
C1226 C1227 1.404 . S
C1226 C1231 1.398 . S
C1226 C1232 1.492 . S
C1227 C1226 1.404 . S
C1227 C1228 1.396 . S
C1227 C1238 1.492 . S
C1228 C1227 1.396 . S
C1228 C1229 1.393 . S
C1228 C1244 1.509 . S
C1229 C1228 1.393 . S
C1229 C1230 1.390 1_655 S
C1229 C1250 1.512 1_655 S
C1230 C1229 1.390 1_455 S
C1230 C1231 1.391 1_455 S
C1230 C1256 1.501 . S
C1231 C1226 1.398 . S
C1231 C1230 1.391 1_655 S
C1231 C1262 1.521 1_655 S
C1232 C1226 1.492 . S
C1232 C1233 1.363 . S
C1232 C1237 1.390 1_655 S
C1233 H1198 0.930 . S
C1233 C1232 1.363 . S
C1233 C1234 1.372 . S
C1234 H1199 0.930 . S
C1234 C1233 1.372 . S
C1234 C1235 1.383 . S
C1235 C1234 1.383 . S
C1235 C1236 1.395 1_655 S
C1236 H1200 0.930 . S
C1236 C1235 1.395 1_455 S
C1236 C1237 1.362 . S
C1237 H1201 0.930 . S
C1237 C1232 1.390 1_455 S
C1237 C1236 1.362 . S
C1238 C1227 1.492 . S
C1238 C1239 1.377 . S
C1238 C1243 1.397 1_655 S
C1239 H1202 0.931 . S
C1239 C1238 1.377 . S
C1239 C1240 1.376 . S
C1240 H1203 0.930 . S
C1240 C1239 1.376 . S
C1240 C1241 1.376 . S
C1241 C1240 1.376 . S
C1241 C1242 1.378 1_655 S
C1241 C1268 1.486 . S
C1242 H1204 0.930 . S
C1242 C1241 1.378 1_455 S
C1242 C1243 1.376 . S
C1243 H1205 0.929 . S
C1243 C1238 1.397 1_455 S
C1243 C1242 1.376 . S
C1244 C1228 1.509 . S
C1244 C1245 1.391 . S
C1244 C1249 1.386 1_655 S
C1245 H1206 0.930 . S
C1245 C1244 1.391 . S
C1245 C1246 1.375 . S
C1246 H1207 0.931 . S
C1246 C1245 1.375 . S
C1246 C1247 1.375 . S
C1247 C1246 1.375 . S
C1247 C1248 1.361 1_655 S
C1248 H1208 0.930 . S
C1248 C1247 1.361 1_455 S
C1248 C1249 1.399 . S
C1249 H1209 0.929 . S
C1249 C1244 1.386 1_455 S
C1249 C1248 1.399 . S
C1250 C1229 1.512 1_455 S
C1250 C1251 1.391 1_455 S
C1250 C1255 1.361 . S
C1251 H1210 0.931 . S
C1251 C1250 1.391 1_655 S
C1251 C1252 1.372 . S
C1252 H1211 0.930 . S
C1252 C1251 1.372 . S
C1252 C1253 1.397 1_655 S
C1253 C1252 1.397 1_455 S
C1253 C1254 1.390 . S
C1253 C1269 1.476 . S
C1254 H1212 0.930 . S
C1254 C1253 1.390 . S
C1254 C1255 1.366 . S
C1255 H1213 0.932 . S
C1255 C1250 1.361 . S
C1255 C1254 1.366 . S
C1256 C1230 1.501 . S
C1256 C1257 1.341 1_455 S
C1256 C1261 1.415 . S
C1257 H1214 0.930 . S
C1257 C1256 1.341 1_655 S
C1257 C1258 1.381 . S
C1258 H1215 0.929 . S
C1258 C1257 1.381 . S
C1258 C1259 1.342 1_655 S
C1259 C1258 1.342 1_455 S
C1259 C1260 1.429 . S
C1260 H1216 0.931 . S
C1260 C1259 1.429 . S
C1260 C1261 1.387 . S
C1261 H1217 0.930 . S
C1261 C1256 1.415 . S
C1261 C1260 1.387 . S
C1262 C1231 1.521 1_455 S
C1262 C1263 1.377 1_455 S
C1262 C1267 1.361 . S
C1263 H1218 0.929 . S
C1263 C1262 1.377 1_655 S
C1263 C1264 1.386 . S
C1264 H1219 0.931 . S
C1264 C1263 1.386 . S
C1264 C1265 1.363 1_655 S
C1265 C1264 1.363 1_455 S
C1265 C1266 1.385 . S
C1266 H1220 0.930 . S
C1266 C1265 1.385 . S
C1266 C1267 1.396 . S
C1267 H1221 0.929 . S
C1267 C1262 1.361 . S
C1267 C1266 1.396 . S
C1268 O1222 1.300 . S
C1268 O1223 1.209 1_655 S
C1268 C1241 1.486 . S
C1269 O1224 1.199 1_455 S
C1269 O1225 1.297 . S
C1269 C1253 1.476 . S
H1270 O1296 0.856 . S
H1271 O1299 0.854 . S
H1272 C1307 0.930 . S
H1273 C1308 0.930 . S
H1274 C1310 0.930 . S
H1275 C1311 0.930 . S
H1276 C1313 0.931 . S
H1277 C1314 0.930 . S
H1278 C1316 0.930 . S
H1279 C1317 0.929 . S
H1280 C1319 0.930 . S
H1281 C1320 0.931 . S
H1282 C1322 0.930 . S
H1283 C1323 0.929 . S
H1284 C1325 0.931 . S
H1285 C1326 0.930 . S
H1286 C1328 0.930 . S
H1287 C1329 0.932 . S
H1288 C1331 0.930 . S
H1289 C1332 0.929 . S
H1290 C1334 0.931 . S
H1291 C1335 0.930 . S
H1292 C1337 0.929 . S
H1293 C1338 0.931 . S
H1294 C1340 0.930 . S
H1295 C1341 0.929 . S
O1296 H1270 0.856 . S
O1296 C1342 1.300 . S
O1297 C1342 1.209 . S
O1298 C1343 1.199 . S
O1299 H1271 0.854 . S
O1299 C1343 1.297 . S
C1300 C1301 1.404 . S
C1300 C1305 1.397 . S
C1300 C1306 1.492 . S
C1301 C1300 1.404 . S
C1301 C1302 1.396 . S
C1301 C1312 1.492 . S
C1302 C1301 1.396 . S
C1302 C1303 1.397 . S
C1302 C1318 1.509 . S
C1303 C1302 1.397 . S
C1303 C1304 1.412 . S
C1303 C1324 1.485 . S
C1304 C1303 1.412 . S
C1304 C1305 1.388 . S
C1304 C1330 1.490 . S
C1305 C1300 1.397 . S
C1305 C1304 1.388 . S
C1305 C1336 1.519 . S
C1306 C1300 1.492 . S
C1306 C1307 1.363 . S
C1306 C1311 1.390 . S
C1307 H1272 0.930 . S
C1307 C1306 1.363 . S
C1307 C1308 1.372 . S
C1308 H1273 0.930 . S
C1308 C1307 1.372 . S
C1308 C1309 1.383 . S
C1309 C1308 1.383 . S
C1309 C1310 1.395 . S
C1310 H1274 0.930 . S
C1310 C1309 1.395 . S
C1310 C1311 1.362 . S
C1311 H1275 0.930 . S
C1311 C1306 1.390 . S
C1311 C1310 1.362 . S
C1312 C1301 1.492 . S
C1312 C1313 1.377 . S
C1312 C1317 1.397 . S
C1313 H1276 0.931 . S
C1313 C1312 1.377 . S
C1313 C1314 1.376 . S
C1314 H1277 0.930 . S
C1314 C1313 1.376 . S
C1314 C1315 1.376 . S
C1315 C1314 1.376 . S
C1315 C1316 1.378 . S
C1315 C1342 1.486 . S
C1316 H1278 0.930 . S
C1316 C1315 1.378 . S
C1316 C1317 1.376 . S
C1317 H1279 0.929 . S
C1317 C1312 1.397 . S
C1317 C1316 1.376 . S
C1318 C1302 1.509 . S
C1318 C1319 1.391 . S
C1318 C1323 1.386 . S
C1319 H1280 0.930 . S
C1319 C1318 1.391 . S
C1319 C1320 1.375 . S
C1320 H1281 0.931 . S
C1320 C1319 1.375 . S
C1320 C1321 1.375 . S
C1321 C1320 1.375 . S
C1321 C1322 1.361 . S
C1322 H1282 0.930 . S
C1322 C1321 1.361 . S
C1322 C1323 1.399 . S
C1323 H1283 0.929 . S
C1323 C1318 1.386 . S
C1323 C1322 1.399 . S
C1324 C1303 1.485 . S
C1324 C1325 1.394 . S
C1324 C1329 1.360 . S
C1325 H1284 0.931 . S
C1325 C1324 1.394 . S
C1325 C1326 1.372 . S
C1326 H1285 0.930 . S
C1326 C1325 1.372 . S
C1326 C1327 1.397 . S
C1327 C1326 1.397 . S
C1327 C1328 1.390 . S
C1327 C1343 1.476 . S
C1328 H1286 0.930 . S
C1328 C1327 1.390 . S
C1328 C1329 1.366 . S
C1329 H1287 0.932 . S
C1329 C1324 1.360 . S
C1329 C1328 1.366 . S
C1330 C1304 1.490 . S
C1330 C1331 1.380 . S
C1330 C1335 1.386 . S
C1331 H1288 0.930 . S
C1331 C1330 1.380 . S
C1331 C1332 1.381 . S
C1332 H1289 0.929 . S
C1332 C1331 1.381 . S
C1332 C1333 1.371 . S
C1333 C1332 1.371 . S
C1333 C1334 1.380 . S
C1334 H1290 0.931 . S
C1334 C1333 1.380 . S
C1334 C1335 1.387 . S
C1335 H1291 0.930 . S
C1335 C1330 1.386 . S
C1335 C1334 1.387 . S
C1336 C1305 1.519 . S
C1336 C1337 1.377 . S
C1336 C1341 1.361 . S
C1337 H1292 0.929 . S
C1337 C1336 1.377 . S
C1337 C1338 1.386 . S
C1338 H1293 0.931 . S
C1338 C1337 1.386 . S
C1338 C1339 1.363 . S
C1339 C1338 1.363 . S
C1339 C1340 1.385 . S
C1340 H1294 0.930 . S
C1340 C1339 1.385 . S
C1340 C1341 1.396 . S
C1341 H1295 0.929 . S
C1341 C1336 1.361 . S
C1341 C1340 1.396 . S
C1342 O1296 1.300 . S
C1342 O1297 1.209 . S
C1342 C1315 1.486 . S
C1343 O1298 1.199 . S
C1343 O1299 1.297 . S
C1343 C1327 1.476 . S
H1344 O1370 0.856 . S
H1345 O1373 0.854 . S
H1346 C1381 0.930 . S
H1347 C1382 0.930 . S
H1348 C1384 0.930 . S
H1349 C1385 0.930 . S
H1350 C1387 0.931 . S
H1351 C1388 0.930 . S
H1352 C1390 0.930 . S
H1353 C1391 0.929 . S
H1354 C1393 0.930 . S
H1355 C1394 0.931 . S
H1356 C1396 0.930 . S
H1357 C1397 0.929 . S
H1358 C1399 0.931 . S
H1359 C1400 0.930 . S
H1360 C1402 0.930 . S
H1361 C1403 0.932 . S
H1362 C1405 0.930 . S
H1363 C1406 0.929 . S
H1364 C1408 0.931 . S
H1365 C1409 0.930 . S
H1366 C1411 0.929 . S
H1367 C1412 0.931 . S
H1368 C1414 0.930 . S
H1369 C1415 0.929 . S
O1370 H1344 0.856 . S
O1370 C1416 1.300 . S
O1371 C1416 1.209 . S
O1372 C1417 1.199 . S
O1373 H1345 0.854 . S
O1373 C1417 1.297 . S
C1374 C1375 1.404 . S
C1374 C1379 1.397 . S
C1374 C1380 1.492 . S
C1375 C1374 1.404 . S
C1375 C1376 1.396 . S
C1375 C1386 1.492 . S
C1376 C1375 1.396 . S
C1376 C1377 1.397 . S
C1376 C1392 1.509 . S
C1377 C1376 1.397 . S
C1377 C1378 1.412 . S
C1377 C1398 1.485 . S
C1378 C1377 1.412 . S
C1378 C1379 1.388 . S
C1378 C1404 1.490 . S
C1379 C1374 1.397 . S
C1379 C1378 1.388 . S
C1379 C1410 1.519 . S
C1380 C1374 1.492 . S
C1380 C1381 1.363 . S
C1380 C1385 1.390 . S
C1381 H1346 0.930 . S
C1381 C1380 1.363 . S
C1381 C1382 1.372 . S
C1382 H1347 0.930 . S
C1382 C1381 1.372 . S
C1382 C1383 1.383 . S
C1383 C1382 1.383 . S
C1383 C1384 1.395 . S
C1384 H1348 0.930 . S
C1384 C1383 1.395 . S
C1384 C1385 1.362 . S
C1385 H1349 0.930 . S
C1385 C1380 1.390 . S
C1385 C1384 1.362 . S
C1386 C1375 1.492 . S
C1386 C1387 1.377 . S
C1386 C1391 1.397 . S
C1387 H1350 0.931 . S
C1387 C1386 1.377 . S
C1387 C1388 1.376 . S
C1388 H1351 0.930 . S
C1388 C1387 1.376 . S
C1388 C1389 1.376 . S
C1389 C1388 1.376 . S
C1389 C1390 1.378 . S
C1389 C1416 1.486 . S
C1390 H1352 0.930 . S
C1390 C1389 1.378 . S
C1390 C1391 1.376 . S
C1391 H1353 0.929 . S
C1391 C1386 1.397 . S
C1391 C1390 1.376 . S
C1392 C1376 1.509 . S
C1392 C1393 1.391 . S
C1392 C1397 1.386 . S
C1393 H1354 0.930 . S
C1393 C1392 1.391 . S
C1393 C1394 1.375 . S
C1394 H1355 0.931 . S
C1394 C1393 1.375 . S
C1394 C1395 1.375 . S
C1395 C1394 1.375 . S
C1395 C1396 1.361 . S
C1396 H1356 0.930 . S
C1396 C1395 1.361 . S
C1396 C1397 1.399 . S
C1397 H1357 0.929 . S
C1397 C1392 1.386 . S
C1397 C1396 1.399 . S
C1398 C1377 1.485 . S
C1398 C1399 1.394 . S
C1398 C1403 1.360 . S
C1399 H1358 0.931 . S
C1399 C1398 1.394 . S
C1399 C1400 1.372 . S
C1400 H1359 0.930 . S
C1400 C1399 1.372 . S
C1400 C1401 1.397 . S
C1401 C1400 1.397 . S
C1401 C1402 1.390 . S
C1401 C1417 1.476 . S
C1402 H1360 0.930 . S
C1402 C1401 1.390 . S
C1402 C1403 1.366 . S
C1403 H1361 0.932 . S
C1403 C1398 1.360 . S
C1403 C1402 1.366 . S
C1404 C1378 1.490 . S
C1404 C1405 1.380 . S
C1404 C1409 1.386 . S
C1405 H1362 0.930 . S
C1405 C1404 1.380 . S
C1405 C1406 1.381 . S
C1406 H1363 0.929 . S
C1406 C1405 1.381 . S
C1406 C1407 1.371 . S
C1407 C1406 1.371 . S
C1407 C1408 1.380 . S
C1408 H1364 0.931 . S
C1408 C1407 1.380 . S
C1408 C1409 1.387 . S
C1409 H1365 0.930 . S
C1409 C1404 1.386 . S
C1409 C1408 1.387 . S
C1410 C1379 1.519 . S
C1410 C1411 1.377 . S
C1410 C1415 1.361 . S
C1411 H1366 0.929 . S
C1411 C1410 1.377 . S
C1411 C1412 1.386 . S
C1412 H1367 0.931 . S
C1412 C1411 1.386 . S
C1412 C1413 1.363 . S
C1413 C1412 1.363 . S
C1413 C1414 1.385 . S
C1414 H1368 0.930 . S
C1414 C1413 1.385 . S
C1414 C1415 1.396 . S
C1415 H1369 0.929 . S
C1415 C1410 1.361 . S
C1415 C1414 1.396 . S
C1416 O1370 1.300 . S
C1416 O1371 1.209 . S
C1416 C1389 1.486 . S
C1417 O1372 1.199 . S
C1417 O1373 1.297 . S
C1417 C1401 1.476 . S
H1418 O1444 0.856 . S
H1419 O1447 0.854 . S
H1420 C1455 0.930 . S
H1421 C1456 0.930 . S
H1422 C1458 0.930 . S
H1423 C1459 0.930 . S
H1424 C1461 0.931 . S
H1425 C1462 0.930 . S
H1426 C1464 0.930 . S
H1427 C1465 0.929 . S
H1428 C1467 0.930 . S
H1429 C1468 0.931 . S
H1430 C1470 0.930 . S
H1431 C1471 0.929 . S
H1432 C1473 0.931 . S
H1433 C1474 0.930 . S
H1434 C1476 0.930 . S
H1435 C1477 0.932 . S
H1436 C1479 0.930 . S
H1437 C1480 0.929 . S
H1438 C1482 0.931 . S
H1439 C1483 0.930 . S
H1440 C1485 0.929 . S
H1441 C1486 0.931 . S
H1442 C1488 0.930 . S
H1443 C1489 0.929 . S
O1444 H1418 0.856 . S
O1444 C1490 1.300 . S
O1445 C1490 1.209 . S
O1446 C1491 1.199 . S
O1447 H1419 0.854 . S
O1447 C1491 1.297 . S
C1448 C1449 1.404 . S
C1448 C1453 1.397 . S
C1448 C1454 1.492 . S
C1449 C1448 1.404 . S
C1449 C1450 1.396 . S
C1449 C1460 1.492 . S
C1450 C1449 1.396 . S
C1450 C1451 1.397 . S
C1450 C1466 1.509 . S
C1451 C1450 1.397 . S
C1451 C1452 1.412 . S
C1451 C1472 1.485 . S
C1452 C1451 1.412 . S
C1452 C1453 1.388 . S
C1452 C1478 1.490 . S
C1453 C1448 1.397 . S
C1453 C1452 1.388 . S
C1453 C1484 1.519 . S
C1454 C1448 1.492 . S
C1454 C1455 1.363 . S
C1454 C1459 1.390 . S
C1455 H1420 0.930 . S
C1455 C1454 1.363 . S
C1455 C1456 1.372 . S
C1456 H1421 0.930 . S
C1456 C1455 1.372 . S
C1456 C1457 1.383 . S
C1457 C1456 1.383 . S
C1457 C1458 1.395 . S
C1458 H1422 0.930 . S
C1458 C1457 1.395 . S
C1458 C1459 1.362 . S
C1459 H1423 0.930 . S
C1459 C1454 1.390 . S
C1459 C1458 1.362 . S
C1460 C1449 1.492 . S
C1460 C1461 1.377 . S
C1460 C1465 1.397 . S
C1461 H1424 0.931 . S
C1461 C1460 1.377 . S
C1461 C1462 1.376 . S
C1462 H1425 0.930 . S
C1462 C1461 1.376 . S
C1462 C1463 1.376 . S
C1463 C1462 1.376 . S
C1463 C1464 1.378 . S
C1463 C1490 1.486 . S
C1464 H1426 0.930 . S
C1464 C1463 1.378 . S
C1464 C1465 1.376 . S
C1465 H1427 0.929 . S
C1465 C1460 1.397 . S
C1465 C1464 1.376 . S
C1466 C1450 1.509 . S
C1466 C1467 1.391 . S
C1466 C1471 1.386 . S
C1467 H1428 0.930 . S
C1467 C1466 1.391 . S
C1467 C1468 1.375 . S
C1468 H1429 0.931 . S
C1468 C1467 1.375 . S
C1468 C1469 1.375 . S
C1469 C1468 1.375 . S
C1469 C1470 1.361 . S
C1470 H1430 0.930 . S
C1470 C1469 1.361 . S
C1470 C1471 1.399 . S
C1471 H1431 0.929 . S
C1471 C1466 1.386 . S
C1471 C1470 1.399 . S
C1472 C1451 1.485 . S
C1472 C1473 1.394 . S
C1472 C1477 1.360 . S
C1473 H1432 0.931 . S
C1473 C1472 1.394 . S
C1473 C1474 1.372 . S
C1474 H1433 0.930 . S
C1474 C1473 1.372 . S
C1474 C1475 1.397 . S
C1475 C1474 1.397 . S
C1475 C1476 1.390 . S
C1475 C1491 1.476 . S
C1476 H1434 0.930 . S
C1476 C1475 1.390 . S
C1476 C1477 1.366 . S
C1477 H1435 0.932 . S
C1477 C1472 1.360 . S
C1477 C1476 1.366 . S
C1478 C1452 1.490 . S
C1478 C1479 1.380 . S
C1478 C1483 1.386 . S
C1479 H1436 0.930 . S
C1479 C1478 1.380 . S
C1479 C1480 1.381 . S
C1480 H1437 0.929 . S
C1480 C1479 1.381 . S
C1480 C1481 1.371 . S
C1481 C1480 1.371 . S
C1481 C1482 1.380 . S
C1482 H1438 0.931 . S
C1482 C1481 1.380 . S
C1482 C1483 1.387 . S
C1483 H1439 0.930 . S
C1483 C1478 1.386 . S
C1483 C1482 1.387 . S
C1484 C1453 1.519 . S
C1484 C1485 1.377 . S
C1484 C1489 1.361 . S
C1485 H1440 0.929 . S
C1485 C1484 1.377 . S
C1485 C1486 1.386 . S
C1486 H1441 0.931 . S
C1486 C1485 1.386 . S
C1486 C1487 1.363 . S
C1487 C1486 1.363 . S
C1487 C1488 1.385 . S
C1488 H1442 0.930 . S
C1488 C1487 1.385 . S
C1488 C1489 1.396 . S
C1489 H1443 0.929 . S
C1489 C1484 1.361 . S
C1489 C1488 1.396 . S
C1490 O1444 1.300 . S
C1490 O1445 1.209 . S
C1490 C1463 1.486 . S
C1491 O1446 1.199 . S
C1491 O1447 1.297 . S
C1491 C1475 1.476 . S
H1492 O1518 0.856 . S
H1493 O1521 0.854 . S
H1494 C1529 0.930 . S
H1495 C1530 0.930 . S
H1496 C1532 0.930 . S
H1497 C1533 0.930 . S
H1498 C1535 0.931 . S
H1499 C1536 0.930 . S
H1500 C1538 0.930 . S
H1501 C1539 0.929 . S
H1502 C1541 0.930 . S
H1503 C1542 0.931 . S
H1504 C1544 0.930 . S
H1505 C1545 0.929 . S
H1506 C1547 0.931 . S
H1507 C1548 0.930 . S
H1508 C1550 0.930 . S
H1509 C1551 0.932 . S
H1510 C1553 0.930 . S
H1511 C1554 0.929 . S
H1512 C1556 0.931 . S
H1513 C1557 0.930 . S
H1514 C1559 0.929 . S
H1515 C1560 0.931 . S
H1516 C1562 0.930 . S
H1517 C1563 0.929 . S
O1518 H1492 0.856 . S
O1518 C1564 1.300 . S
O1519 C1564 1.209 . S
O1520 C1565 1.199 . S
O1521 H1493 0.854 . S
O1521 C1565 1.297 . S
C1522 C1523 1.404 . S
C1522 C1527 1.397 . S
C1522 C1528 1.492 . S
C1523 C1522 1.404 . S
C1523 C1524 1.396 . S
C1523 C1534 1.492 . S
C1524 C1523 1.396 . S
C1524 C1525 1.397 . S
C1524 C1540 1.509 . S
C1525 C1524 1.397 . S
C1525 C1526 1.412 . S
C1525 C1546 1.485 . S
C1526 C1525 1.412 . S
C1526 C1527 1.388 . S
C1526 C1552 1.490 . S
C1527 C1522 1.397 . S
C1527 C1526 1.388 . S
C1527 C1558 1.519 . S
C1528 C1522 1.492 . S
C1528 C1529 1.363 . S
C1528 C1533 1.390 . S
C1529 H1494 0.930 . S
C1529 C1528 1.363 . S
C1529 C1530 1.372 . S
C1530 H1495 0.930 . S
C1530 C1529 1.372 . S
C1530 C1531 1.383 . S
C1531 C1530 1.383 . S
C1531 C1532 1.395 . S
C1532 H1496 0.930 . S
C1532 C1531 1.395 . S
C1532 C1533 1.362 . S
C1533 H1497 0.930 . S
C1533 C1528 1.390 . S
C1533 C1532 1.362 . S
C1534 C1523 1.492 . S
C1534 C1535 1.377 . S
C1534 C1539 1.397 . S
C1535 H1498 0.931 . S
C1535 C1534 1.377 . S
C1535 C1536 1.376 . S
C1536 H1499 0.930 . S
C1536 C1535 1.376 . S
C1536 C1537 1.376 . S
C1537 C1536 1.376 . S
C1537 C1538 1.378 . S
C1537 C1564 1.486 . S
C1538 H1500 0.930 . S
C1538 C1537 1.378 . S
C1538 C1539 1.376 . S
C1539 H1501 0.929 . S
C1539 C1534 1.397 . S
C1539 C1538 1.376 . S
C1540 C1524 1.509 . S
C1540 C1541 1.391 . S
C1540 C1545 1.386 . S
C1541 H1502 0.930 . S
C1541 C1540 1.391 . S
C1541 C1542 1.375 . S
C1542 H1503 0.931 . S
C1542 C1541 1.375 . S
C1542 C1543 1.375 . S
C1543 C1542 1.375 . S
C1543 C1544 1.361 . S
C1544 H1504 0.930 . S
C1544 C1543 1.361 . S
C1544 C1545 1.399 . S
C1545 H1505 0.929 . S
C1545 C1540 1.386 . S
C1545 C1544 1.399 . S
C1546 C1525 1.485 . S
C1546 C1547 1.394 . S
C1546 C1551 1.360 . S
C1547 H1506 0.931 . S
C1547 C1546 1.394 . S
C1547 C1548 1.372 . S
C1548 H1507 0.930 . S
C1548 C1547 1.372 . S
C1548 C1549 1.397 . S
C1549 C1548 1.397 . S
C1549 C1550 1.390 . S
C1549 C1565 1.476 . S
C1550 H1508 0.930 . S
C1550 C1549 1.390 . S
C1550 C1551 1.366 . S
C1551 H1509 0.932 . S
C1551 C1546 1.360 . S
C1551 C1550 1.366 . S
C1552 C1526 1.490 . S
C1552 C1553 1.380 . S
C1552 C1557 1.386 . S
C1553 H1510 0.930 . S
C1553 C1552 1.380 . S
C1553 C1554 1.381 . S
C1554 H1511 0.929 . S
C1554 C1553 1.381 . S
C1554 C1555 1.371 . S
C1555 C1554 1.371 . S
C1555 C1556 1.380 . S
C1556 H1512 0.931 . S
C1556 C1555 1.380 . S
C1556 C1557 1.387 . S
C1557 H1513 0.930 . S
C1557 C1552 1.386 . S
C1557 C1556 1.387 . S
C1558 C1527 1.519 . S
C1558 C1559 1.377 . S
C1558 C1563 1.361 . S
C1559 H1514 0.929 . S
C1559 C1558 1.377 . S
C1559 C1560 1.386 . S
C1560 H1515 0.931 . S
C1560 C1559 1.386 . S
C1560 C1561 1.363 . S
C1561 C1560 1.363 . S
C1561 C1562 1.385 . S
C1562 H1516 0.930 . S
C1562 C1561 1.385 . S
C1562 C1563 1.396 . S
C1563 H1517 0.929 . S
C1563 C1558 1.361 . S
C1563 C1562 1.396 . S
C1564 O1518 1.300 . S
C1564 O1519 1.209 . S
C1564 C1537 1.486 . S
C1565 O1520 1.199 . S
C1565 O1521 1.297 . S
C1565 C1549 1.476 . S
C1566 C1567 1.349 . S
C1566 C1568 1.327 . S
C1566 H1591 0.950 . S
C1567 C1566 1.349 . S
C1567 C1583 1.349 1_655 S
C1568 C1566 1.327 . S
C1568 C1587 1.429 . S
C1568 H1592 0.950 . S
C1569 C1586 1.574 . S
C1569 C1588 1.368 1_455 S
C1569 H1593 0.949 . S
H1570 C1574 0.949 . S
C1571 C1572 1.278 1_455 S
C1571 C1573 1.370 . S
C1571 H1594 0.985 . S
C1572 C1571 1.278 1_655 S
C1572 C1584 1.349 . S
C1573 C1571 1.370 . S
C1573 C1589 1.429 1_455 S
C1573 H1595 0.950 . S
C1574 H1570 0.949 . S
C1574 C1582 1.574 . S
C1574 C1590 1.368 . S
H1575 C1583 0.950 . S
H1576 C1581 0.950 . S
H1577 C1582 0.949 . S
H1578 C1584 0.950 . S
H1579 C1585 0.950 . S
H1580 C1586 0.949 . S
C1581 H1576 0.950 . S
C1581 C1583 1.327 . S
C1581 C1587 1.429 1_455 S
C1582 C1574 1.574 . S
C1582 H1577 0.949 . S
C1582 C1588 1.368 . S
C1583 C1567 1.349 1_455 S
C1583 H1575 0.950 . S
C1583 C1581 1.327 . S
C1584 C1572 1.349 . S
C1584 H1578 0.950 . S
C1584 C1585 1.327 . S
C1585 H1579 0.950 . S
C1585 C1584 1.327 . S
C1585 C1589 1.429 . S
C1586 C1569 1.574 . S
C1586 H1580 0.949 . S
C1586 C1590 1.368 1_455 S
C1587 C1568 1.429 . S
C1587 C1581 1.429 1_655 S
C1587 C1588 1.523 . S
C1588 C1569 1.368 1_655 S
C1588 C1582 1.368 . S
C1588 C1587 1.523 . S
C1589 C1573 1.429 1_655 S
C1589 C1585 1.429 . S
C1589 C1590 1.523 . S
C1590 C1574 1.368 . S
C1590 C1586 1.368 1_655 S
C1590 C1589 1.523 . S
H1591 C1566 0.950 . S
H1592 C1568 0.950 . S
H1593 C1569 0.949 . S
H1594 C1571 0.985 . S
H1595 C1573 0.950 . S
C1596 C1597 1.349 . S
C1596 C1598 1.327 . S
C1596 H1621 0.950 . S
C1597 C1596 1.349 . S
C1597 C1613 1.349 . S
C1598 C1596 1.327 . S
C1598 C1617 1.429 . S
C1598 H1622 0.950 . S
C1599 C1616 1.574 . S
C1599 C1618 1.368 . S
C1599 H1623 0.949 . S
H1600 C1604 0.949 . S
C1601 C1602 1.349 . S
C1601 C1603 1.327 . S
C1601 H1624 0.950 . S
C1602 C1601 1.349 . S
C1602 C1614 1.349 . S
C1603 C1601 1.327 . S
C1603 C1619 1.429 . S
C1603 H1625 0.950 . S
C1604 H1600 0.949 . S
C1604 C1612 1.574 . S
C1604 C1620 1.368 . S
H1605 C1613 0.950 . S
H1606 C1611 0.950 . S
H1607 C1612 0.949 . S
H1608 C1614 0.950 . S
H1609 C1615 0.950 . S
H1610 C1616 0.949 . S
C1611 H1606 0.950 . S
C1611 C1613 1.327 . S
C1611 C1617 1.429 . S
C1612 C1604 1.574 . S
C1612 H1607 0.949 . S
C1612 C1618 1.368 . S
C1613 C1597 1.349 . S
C1613 H1605 0.950 . S
C1613 C1611 1.327 . S
C1614 C1602 1.349 . S
C1614 H1608 0.950 . S
C1614 C1615 1.327 . S
C1615 H1609 0.950 . S
C1615 C1614 1.327 . S
C1615 C1619 1.429 . S
C1616 C1599 1.574 . S
C1616 H1610 0.949 . S
C1616 C1620 1.368 . S
C1617 C1598 1.429 . S
C1617 C1611 1.429 . S
C1617 C1618 1.523 . S
C1618 C1599 1.368 . S
C1618 C1612 1.368 . S
C1618 C1617 1.523 . S
C1619 C1603 1.429 . S
C1619 C1615 1.429 . S
C1619 C1620 1.523 . S
C1620 C1604 1.368 . S
C1620 C1616 1.368 . S
C1620 C1619 1.523 . S
H1621 C1596 0.950 . S
H1622 C1598 0.950 . S
H1623 C1599 0.949 . S
H1624 C1601 0.950 . S
H1625 C1603 0.950 . S
C1626 C1627 1.349 . S
C1626 C1628 1.327 . S
C1626 H1651 0.950 . S
C1627 C1626 1.349 . S
C1627 C1643 1.349 . S
C1628 C1626 1.327 . S
C1628 C1647 1.429 . S
C1628 H1652 0.950 . S
C1629 C1646 1.574 . S
C1629 C1648 1.368 . S
C1629 H1653 0.949 1_545 S
H1630 C1634 0.949 . S
C1631 C1632 1.349 . S
C1631 C1633 1.327 . S
C1631 H1654 0.950 1_545 S
C1632 C1631 1.349 . S
C1632 C1644 1.349 . S
C1633 C1631 1.327 . S
C1633 C1649 1.429 . S
C1633 H1655 0.950 1_545 S
C1634 H1630 0.949 . S
C1634 C1642 1.574 . S
C1634 C1650 1.368 . S
H1635 C1643 0.950 . S
H1636 C1641 0.944 1_565 S
H1637 C1642 0.949 . S
H1638 C1644 0.950 . S
H1639 C1645 0.950 . S
H1640 C1646 0.949 1_565 S
C1641 H1636 0.944 1_545 S
C1641 C1643 1.327 . S
C1641 C1647 1.429 . S
C1642 C1634 1.574 . S
C1642 H1637 0.949 . S
C1642 C1648 1.368 . S
C1643 C1627 1.349 . S
C1643 H1635 0.950 . S
C1643 C1641 1.327 . S
C1644 C1632 1.349 . S
C1644 H1638 0.950 . S
C1644 C1645 1.327 . S
C1645 H1639 0.950 . S
C1645 C1644 1.327 . S
C1645 C1649 1.429 . S
C1646 C1629 1.574 . S
C1646 H1640 0.949 1_545 S
C1646 C1650 1.368 . S
C1647 C1628 1.429 . S
C1647 C1641 1.429 . S
C1647 C1648 1.523 . S
C1648 C1629 1.368 . S
C1648 C1642 1.368 . S
C1648 C1647 1.523 . S
C1649 C1633 1.429 . S
C1649 C1645 1.429 . S
C1649 C1650 1.523 . S
C1650 C1634 1.368 . S
C1650 C1646 1.368 . S
C1650 C1649 1.523 . S
H1651 C1626 0.950 . S
H1652 C1628 0.950 . S
H1653 C1629 0.949 1_565 S
H1654 C1631 0.950 1_565 S
H1655 C1633 0.950 1_565 S
C1656 C1657 1.349 1_545 S
C1656 C1658 1.327 . S
C1656 H1681 0.950 . S
C1657 C1656 1.349 1_565 S
C1657 C1673 1.349 . S
C1658 C1656 1.327 . S
C1658 C1677 1.429 1_545 S
C1658 H1682 0.950 . S
C1659 C1676 1.574 . S
C1659 C1678 1.368 . S
C1659 H1683 0.949 . S
H1660 C1664 0.949 . S
C1661 C1662 1.349 . S
C1661 C1663 1.327 . S
C1661 H1684 0.950 . S
C1662 C1661 1.349 . S
C1662 C1674 1.349 1_565 S
C1663 C1661 1.327 . S
C1663 C1679 1.429 . S
C1663 H1685 0.950 . S
C1664 H1660 0.949 . S
C1664 C1672 1.574 . S
C1664 C1680 1.368 1_545 S
H1665 C1673 0.950 . S
H1666 C1671 0.950 . S
H1667 C1672 0.949 . S
H1668 C1674 0.950 . S
H1669 C1675 0.950 . S
H1670 C1676 0.949 . S
C1671 H1666 0.950 . S
C1671 C1673 1.327 . S
C1671 C1677 1.429 . S
C1672 C1664 1.574 . S
C1672 H1667 0.949 . S
C1672 C1678 1.368 1_545 S
C1673 C1657 1.349 . S
C1673 H1665 0.950 . S
C1673 C1671 1.327 . S
C1674 C1662 1.349 1_545 S
C1674 H1668 0.950 . S
C1674 C1675 1.327 . S
C1675 H1669 0.950 . S
C1675 C1674 1.327 . S
C1675 C1679 1.429 1_545 S
C1676 C1659 1.574 . S
C1676 H1670 0.949 . S
C1676 C1680 1.368 . S
C1677 C1658 1.429 1_565 S
C1677 C1671 1.429 . S
C1677 C1678 1.523 . S
C1678 C1659 1.368 . S
C1678 C1672 1.368 1_565 S
C1678 C1677 1.523 . S
C1679 C1663 1.429 . S
C1679 C1675 1.429 1_565 S
C1679 C1680 1.523 . S
C1680 C1664 1.368 1_565 S
C1680 C1676 1.368 . S
C1680 C1679 1.523 . S
H1681 C1656 0.950 . S
H1682 C1658 0.950 . S
H1683 C1659 0.949 . S
H1684 C1661 0.950 . S
H1685 C1663 0.950 . S
C1686 C1687 1.349 . S
C1686 C1688 1.327 . S
C1686 H1711 0.950 . S
C1687 C1686 1.349 . S
C1687 C1703 1.349 . S
C1688 C1686 1.327 . S
C1688 C1707 1.429 . S
C1688 H1712 0.950 . S
C1689 C1706 1.561 . S
C1689 C1708 1.370 1_655 S
C1689 H1713 0.948 . S
H1690 C1694 0.949 . S
C1691 C1692 1.336 1_655 S
C1691 C1693 1.328 . S
C1691 H1714 0.974 . S
C1692 C1691 1.336 1_455 S
C1692 C1704 1.349 . S
C1693 C1691 1.328 . S
C1693 C1709 1.404 1_655 S
C1693 H1715 0.964 . S
C1694 H1690 0.949 . S
C1694 C1702 1.574 . S
C1694 C1710 1.368 . S
H1695 C1703 0.950 1_655 S
H1696 C1701 0.950 1_655 S
H1697 C1702 0.949 . S
H1698 C1704 0.950 . S
H1699 C1705 0.950 . S
H1700 C1706 0.976 . S
C1701 H1696 0.950 1_455 S
C1701 C1703 1.327 . S
C1701 C1707 1.429 . S
C1702 C1694 1.574 . S
C1702 H1697 0.949 . S
C1702 C1708 1.368 . S
C1703 C1687 1.349 . S
C1703 H1695 0.950 1_455 S
C1703 C1701 1.327 . S
C1704 C1692 1.349 . S
C1704 H1698 0.950 . S
C1704 C1705 1.327 . S
C1705 H1699 0.950 . S
C1705 C1704 1.327 . S
C1705 C1709 1.429 . S
C1706 C1689 1.561 . S
C1706 H1700 0.976 . S
C1706 C1710 1.352 1_655 S
C1707 C1688 1.429 . S
C1707 C1701 1.429 . S
C1707 C1708 1.523 . S
C1708 C1689 1.370 1_455 S
C1708 C1702 1.368 . S
C1708 C1707 1.523 . S
C1709 C1693 1.404 1_455 S
C1709 C1705 1.429 . S
C1709 C1710 1.523 . S
C1710 C1694 1.368 . S
C1710 C1706 1.352 1_455 S
C1710 C1709 1.523 . S
H1711 C1686 0.950 . S
H1712 C1688 0.950 . S
H1713 C1689 0.948 . S
H1714 C1691 0.974 . S
H1715 C1693 0.964 . S
C1716 C1717 1.349 . S
C1716 C1718 1.327 1_554 S
C1716 H1741 0.950 . S
C1717 C1716 1.349 . S
C1717 C1733 1.349 . S
C1718 C1716 1.327 1_556 S
C1718 C1737 1.429 . S
C1718 H1742 0.950 . S
C1719 C1736 1.574 . S
C1719 C1738 1.368 . S
C1719 H1743 0.949 . S
H1720 C1724 0.949 . S
C1721 C1722 1.349 . S
C1721 C1723 1.327 . S
C1721 H1744 0.950 . S
C1722 C1721 1.349 . S
C1722 C1734 1.349 . S
C1723 C1721 1.327 . S
C1723 C1739 1.429 . S
C1723 H1745 0.950 . S
C1724 H1720 0.949 . S
C1724 C1732 1.574 . S
C1724 C1740 1.368 . S
H1725 C1733 0.950 . S
H1726 C1731 0.950 . S
H1727 C1732 0.949 . S
H1728 C1734 0.950 . S
H1729 C1735 0.950 . S
H1730 C1736 0.949 . S
C1731 H1726 0.950 . S
C1731 C1733 1.327 . S
C1731 C1737 1.429 1_554 S
C1732 C1724 1.574 . S
C1732 H1727 0.949 . S
C1732 C1738 1.368 . S
C1733 C1717 1.349 . S
C1733 H1725 0.950 . S
C1733 C1731 1.327 . S
C1734 C1722 1.349 . S
C1734 H1728 0.950 . S
C1734 C1735 1.327 . S
C1735 H1729 0.950 . S
C1735 C1734 1.327 . S
C1735 C1739 1.429 . S
C1736 C1719 1.574 . S
C1736 H1730 0.949 . S
C1736 C1740 1.368 . S
C1737 C1718 1.429 . S
C1737 C1731 1.429 1_556 S
C1737 C1738 1.523 . S
C1738 C1719 1.368 . S
C1738 C1732 1.368 . S
C1738 C1737 1.523 . S
C1739 C1723 1.429 . S
C1739 C1735 1.429 . S
C1739 C1740 1.523 . S
C1740 C1724 1.368 . S
C1740 C1736 1.368 . S
C1740 C1739 1.523 . S
H1741 C1716 0.950 . S
H1742 C1718 0.950 . S
H1743 C1719 0.949 . S
H1744 C1721 0.950 . S
H1745 C1723 0.950 . S
C1746 C1747 1.349 . S
C1746 C1748 1.327 1_554 S
C1746 H1771 0.950 . S
C1747 C1746 1.349 . S
C1747 C1763 1.349 1_454 S
C1748 C1746 1.327 1_556 S
C1748 C1767 1.429 . S
C1748 H1772 0.950 1_556 S
C1749 C1766 1.574 . S
C1749 C1768 1.368 1_655 S
C1749 H1773 0.949 . S
H1750 C1754 0.949 . S
C1751 C1752 1.279 1_655 S
C1751 C1753 1.327 . S
C1751 H1774 0.950 . S
C1752 C1751 1.279 1_455 S
C1752 C1764 1.393 . S
C1753 C1751 1.327 . S
C1753 C1769 1.429 1_655 S
C1753 H1775 0.950 . S
C1754 H1750 0.949 . S
C1754 C1762 1.574 . S
C1754 C1770 1.368 . S
H1755 C1763 0.950 . S
H1756 C1761 0.950 . S
H1757 C1762 0.949 . S
H1758 C1764 0.950 . S
H1759 C1765 0.950 . S
H1760 C1766 0.949 . S
C1761 H1756 0.950 . S
C1761 C1763 1.327 . S
C1761 C1767 1.429 1_655 S
C1762 C1754 1.574 . S
C1762 H1757 0.949 . S
C1762 C1768 1.368 . S
C1763 C1747 1.349 1_656 S
C1763 H1755 0.950 . S
C1763 C1761 1.327 . S
C1764 C1752 1.393 . S
C1764 H1758 0.950 . S
C1764 C1765 1.327 . S
C1765 H1759 0.950 . S
C1765 C1764 1.327 . S
C1765 C1769 1.429 . S
C1766 C1749 1.574 . S
C1766 H1760 0.949 . S
C1766 C1770 1.368 1_655 S
C1767 C1748 1.429 . S
C1767 C1761 1.429 1_455 S
C1767 C1768 1.523 . S
C1768 C1749 1.368 1_455 S
C1768 C1762 1.368 . S
C1768 C1767 1.523 . S
C1769 C1753 1.429 1_455 S
C1769 C1765 1.429 . S
C1769 C1770 1.523 . S
C1770 C1754 1.368 . S
C1770 C1766 1.368 1_455 S
C1770 C1769 1.523 . S
H1771 C1746 0.950 . S
H1772 C1748 0.950 1_554 S
H1773 C1749 0.949 . S
H1774 C1751 0.950 . S
H1775 C1753 0.950 . S
C1776 C1777 1.349 . S
C1776 C1778 1.327 . S
C1776 H1801 0.950 . S
C1777 C1776 1.349 . S
C1777 C1793 1.349 . S
C1778 C1776 1.327 . S
C1778 C1797 1.429 . S
C1778 H1802 0.950 . S
C1779 C1796 1.574 . S
C1779 C1798 1.368 . S
C1779 H1803 0.949 . S
H1780 C1784 0.949 . S
C1781 C1782 1.349 . S
C1781 C1783 1.327 . S
C1781 H1804 0.950 . S
C1782 C1781 1.349 . S
C1782 C1794 1.349 . S
C1783 C1781 1.327 . S
C1783 C1799 1.429 . S
C1783 H1805 0.950 . S
C1784 H1780 0.949 . S
C1784 C1792 1.574 . S
C1784 C1800 1.368 . S
H1785 C1793 0.950 . S
H1786 C1791 0.950 . S
H1787 C1792 0.949 . S
H1788 C1794 0.950 . S
H1789 C1795 0.950 . S
H1790 C1796 0.949 . S
C1791 H1786 0.950 . S
C1791 C1793 1.327 . S
C1791 C1797 1.429 . S
C1792 C1784 1.574 . S
C1792 H1787 0.949 . S
C1792 C1798 1.368 . S
C1793 C1777 1.349 . S
C1793 H1785 0.950 . S
C1793 C1791 1.327 . S
C1794 C1782 1.349 . S
C1794 H1788 0.950 . S
C1794 C1795 1.327 . S
C1795 H1789 0.950 . S
C1795 C1794 1.327 . S
C1795 C1799 1.429 . S
C1796 C1779 1.574 . S
C1796 H1790 0.949 . S
C1796 C1800 1.368 . S
C1797 C1778 1.429 . S
C1797 C1791 1.429 . S
C1797 C1798 1.523 . S
C1798 C1779 1.368 . S
C1798 C1792 1.368 . S
C1798 C1797 1.523 . S
C1799 C1783 1.429 . S
C1799 C1795 1.429 . S
C1799 C1800 1.523 . S
C1800 C1784 1.368 . S
C1800 C1796 1.368 . S
C1800 C1799 1.523 . S
H1801 C1776 0.950 . S
H1802 C1778 0.950 . S
H1803 C1779 0.949 . S
H1804 C1781 0.950 . S
H1805 C1783 0.950 . S
C1806 C1807 1.349 . S
C1806 C1808 1.327 1_554 S
C1806 H1831 0.950 . S
C1807 C1806 1.349 . S
C1807 C1823 1.379 1_554 S
C1808 C1806 1.327 1_556 S
C1808 C1827 1.429 . S
C1808 H1832 0.950 . S
C1809 C1826 1.574 . S
C1809 C1828 1.368 1_545 S
C1809 H1833 0.949 . S
H1810 C1814 0.949 . S
C1811 C1812 1.349 . S
C1811 C1813 1.327 . S
C1811 H1834 0.950 . S
C1812 C1811 1.349 . S
C1812 C1824 1.352 1_545 S
C1813 C1811 1.327 . S
C1813 C1829 1.429 1_545 S
C1813 H1835 0.950 . S
C1814 H1810 0.949 . S
C1814 C1822 1.574 . S
C1814 C1830 1.368 . S
H1815 C1823 0.954 1_545 S
H1816 C1821 0.975 . S
H1817 C1822 0.949 . S
H1818 C1824 0.950 . S
H1819 C1825 0.950 . S
H1820 C1826 0.949 . S
C1821 H1816 0.975 . S
C1821 C1823 1.274 1_545 S
C1821 C1827 1.433 1_545 S
C1822 C1814 1.574 . S
C1822 H1817 0.949 . S
C1822 C1828 1.368 . S
C1823 C1807 1.379 1_556 S
C1823 H1815 0.954 1_565 S
C1823 C1821 1.274 1_565 S
C1824 C1812 1.352 1_565 S
C1824 H1818 0.950 . S
C1824 C1825 1.327 . S
C1825 H1819 0.950 . S
C1825 C1824 1.327 . S
C1825 C1829 1.429 . S
C1826 C1809 1.574 . S
C1826 H1820 0.949 . S
C1826 C1830 1.368 1_545 S
C1827 C1808 1.429 . S
C1827 C1821 1.433 1_565 S
C1827 C1828 1.523 . S
C1828 C1809 1.368 1_565 S
C1828 C1822 1.368 . S
C1828 C1827 1.523 . S
C1829 C1813 1.429 1_565 S
C1829 C1825 1.429 . S
C1829 C1830 1.523 . S
C1830 C1814 1.368 . S
C1830 C1826 1.368 1_565 S
C1830 C1829 1.523 . S
H1831 C1806 0.950 . S
H1832 C1808 0.950 . S
H1833 C1809 0.949 . S
H1834 C1811 0.950 . S
H1835 C1813 0.950 . S
C1836 C1837 1.349 1_565 S
C1836 C1838 1.327 . S
C1836 H1861 0.950 . S
C1837 C1836 1.349 1_545 S
C1837 C1853 1.349 . S
C1838 C1836 1.327 . S
C1838 C1857 1.429 1_565 S
C1838 H1862 0.950 . S
C1839 C1856 1.574 . S
C1839 C1858 1.368 . S
C1839 H1863 0.949 . S
H1840 C1844 0.949 . S
C1841 C1842 1.341 1_545 S
C1841 C1843 1.327 . S
C1841 H1864 0.950 . S
C1842 C1841 1.341 1_565 S
C1842 C1854 1.360 . S
C1843 C1841 1.327 . S
C1843 C1859 1.429 . S
C1843 H1865 0.950 . S
C1844 H1840 0.949 . S
C1844 C1852 1.574 . S
C1844 C1860 1.368 1_565 S
H1845 C1853 0.950 . S
H1846 C1851 0.950 . S
H1847 C1852 0.949 . S
H1848 C1854 0.950 . S
H1849 C1855 0.950 . S
H1850 C1856 0.949 . S
C1851 H1846 0.950 . S
C1851 C1853 1.327 . S
C1851 C1857 1.429 . S
C1852 C1844 1.574 . S
C1852 H1847 0.949 . S
C1852 C1858 1.368 1_565 S
C1853 C1837 1.349 . S
C1853 H1845 0.950 . S
C1853 C1851 1.327 . S
C1854 C1842 1.360 . S
C1854 H1848 0.950 . S
C1854 C1855 1.327 . S
C1855 H1849 0.950 . S
C1855 C1854 1.327 . S
C1855 C1859 1.429 1_565 S
C1856 C1839 1.574 . S
C1856 H1850 0.949 . S
C1856 C1860 1.368 . S
C1857 C1838 1.429 1_545 S
C1857 C1851 1.429 . S
C1857 C1858 1.523 . S
C1858 C1839 1.368 . S
C1858 C1852 1.368 1_545 S
C1858 C1857 1.523 . S
C1859 C1843 1.429 . S
C1859 C1855 1.429 1_545 S
C1859 C1860 1.523 . S
C1860 C1844 1.368 1_545 S
C1860 C1856 1.368 . S
C1860 C1859 1.523 . S
H1861 C1836 0.950 . S
H1862 C1838 0.950 . S
H1863 C1839 0.949 . S
H1864 C1841 0.950 . S
H1865 C1843 0.950 . S
C1866 C1867 1.349 1_455 S
C1866 C1868 1.327 . S
C1866 H1891 0.950 . S
C1867 C1866 1.349 1_655 S
C1867 C1883 1.349 . S
C1868 C1866 1.327 . S
C1868 C1887 1.429 1_455 S
C1868 H1892 0.950 . S
C1869 C1886 1.574 . S
C1869 C1888 1.368 . S
C1869 H1893 0.949 . S
H1870 C1874 0.949 . S
C1871 C1872 1.384 . S
C1871 C1873 1.327 . S
C1871 H1894 0.950 . S
C1872 C1871 1.384 . S
C1872 C1884 1.350 1_655 S
C1873 C1871 1.327 . S
C1873 C1889 1.429 . S
C1873 H1895 0.950 . S
C1874 H1870 0.949 . S
C1874 C1882 1.574 . S
C1874 C1890 1.368 1_455 S
H1875 C1883 0.950 . S
H1876 C1881 0.950 . S
H1877 C1882 0.949 . S
H1878 C1884 0.950 . S
H1879 C1885 0.950 . S
H1880 C1886 0.949 . S
C1881 H1876 0.950 . S
C1881 C1883 1.327 . S
C1881 C1887 1.429 . S
C1882 C1874 1.574 . S
C1882 H1877 0.949 . S
C1882 C1888 1.368 1_455 S
C1883 C1867 1.349 . S
C1883 H1875 0.950 . S
C1883 C1881 1.327 . S
C1884 C1872 1.350 1_455 S
C1884 H1878 0.950 . S
C1884 C1885 1.327 . S
C1885 H1879 0.950 . S
C1885 C1884 1.327 . S
C1885 C1889 1.429 1_455 S
C1886 C1869 1.574 . S
C1886 H1880 0.949 . S
C1886 C1890 1.368 . S
C1887 C1868 1.429 1_655 S
C1887 C1881 1.429 . S
C1887 C1888 1.523 . S
C1888 C1869 1.368 . S
C1888 C1882 1.368 1_655 S
C1888 C1887 1.523 . S
C1889 C1873 1.429 . S
C1889 C1885 1.429 1_655 S
C1889 C1890 1.523 . S
C1890 C1874 1.368 1_655 S
C1890 C1886 1.368 . S
C1890 C1889 1.523 . S
H1891 C1866 0.950 . S
H1892 C1868 0.950 . S
H1893 C1869 0.949 . S
H1894 C1871 0.950 . S
H1895 C1873 0.950 . S
C1896 C1897 1.349 . S
C1896 C1898 1.327 . S
C1896 H1921 0.950 . S
C1897 C1896 1.349 . S
C1897 C1913 1.349 . S
C1898 C1896 1.327 . S
C1898 C1917 1.429 . S
C1898 H1922 0.950 . S
C1899 C1916 1.574 . S
C1899 C1918 1.368 . S
C1899 H1923 0.949 . S
H1900 C1904 0.949 . S
C1901 C1902 1.349 . S
C1901 C1903 1.327 . S
C1901 H1924 0.950 . S
C1902 C1901 1.349 . S
C1902 C1914 1.349 . S
C1903 C1901 1.327 . S
C1903 C1919 1.429 . S
C1903 H1925 0.950 . S
C1904 H1900 0.949 . S
C1904 C1912 1.574 . S
C1904 C1920 1.368 . S
H1905 C1913 0.950 . S
H1906 C1911 0.950 . S
H1907 C1912 0.949 . S
H1908 C1914 0.950 . S
H1909 C1915 0.950 . S
H1910 C1916 0.949 . S
C1911 H1906 0.950 . S
C1911 C1913 1.327 . S
C1911 C1917 1.429 . S
C1912 C1904 1.574 . S
C1912 H1907 0.949 . S
C1912 C1918 1.368 . S
C1913 C1897 1.349 . S
C1913 H1905 0.950 . S
C1913 C1911 1.327 . S
C1914 C1902 1.349 . S
C1914 H1908 0.950 . S
C1914 C1915 1.327 . S
C1915 H1909 0.950 . S
C1915 C1914 1.327 . S
C1915 C1919 1.429 . S
C1916 C1899 1.574 . S
C1916 H1910 0.949 . S
C1916 C1920 1.368 . S
C1917 C1898 1.429 . S
C1917 C1911 1.429 . S
C1917 C1918 1.523 . S
C1918 C1899 1.368 . S
C1918 C1912 1.368 . S
C1918 C1917 1.523 . S
C1919 C1903 1.429 . S
C1919 C1915 1.429 . S
C1919 C1920 1.523 . S
C1920 C1904 1.368 . S
C1920 C1916 1.368 . S
C1920 C1919 1.523 . S
H1921 C1896 0.950 . S
H1922 C1898 0.950 . S
H1923 C1899 0.949 . S
H1924 C1901 0.950 . S
H1925 C1903 0.950 . S
C1926 C1927 1.349 . S
C1926 C1928 1.327 . S
C1926 H1951 0.950 . S
C1927 C1926 1.349 . S
C1927 C1943 1.349 . S
C1928 C1926 1.327 . S
C1928 C1947 1.429 . S
C1928 H1952 0.950 . S
C1929 C1946 1.574 . S
C1929 C1948 1.368 . S
C1929 H1953 0.949 . S
H1930 C1934 0.949 . S
C1931 C1932 1.349 . S
C1931 C1933 1.327 . S
C1931 H1954 0.950 . S
C1932 C1931 1.349 . S
C1932 C1944 1.349 . S
C1933 C1931 1.327 . S
C1933 C1949 1.429 . S
C1933 H1955 0.950 . S
C1934 H1930 0.949 . S
C1934 C1942 1.574 . S
C1934 C1950 1.368 . S
H1935 C1943 0.950 . S
H1936 C1941 0.950 . S
H1937 C1942 0.949 . S
H1938 C1944 0.950 . S
H1939 C1945 0.950 . S
H1940 C1946 0.949 . S
C1941 H1936 0.950 . S
C1941 C1943 1.327 . S
C1941 C1947 1.429 . S
C1942 C1934 1.574 . S
C1942 H1937 0.949 . S
C1942 C1948 1.368 . S
C1943 C1927 1.349 . S
C1943 H1935 0.950 . S
C1943 C1941 1.327 . S
C1944 C1932 1.349 . S
C1944 H1938 0.950 . S
C1944 C1945 1.327 . S
C1945 H1939 0.950 . S
C1945 C1944 1.327 . S
C1945 C1949 1.429 . S
C1946 C1929 1.574 . S
C1946 H1940 0.949 . S
C1946 C1950 1.368 . S
C1947 C1928 1.429 . S
C1947 C1941 1.429 . S
C1947 C1948 1.523 . S
C1948 C1929 1.368 . S
C1948 C1942 1.368 . S
C1948 C1947 1.523 . S
C1949 C1933 1.429 . S
C1949 C1945 1.429 . S
C1949 C1950 1.523 . S
C1950 C1934 1.368 . S
C1950 C1946 1.368 . S
C1950 C1949 1.523 . S
H1951 C1926 0.950 . S
H1952 C1928 0.950 . S
H1953 C1929 0.949 . S
H1954 C1931 0.950 . S
H1955 C1933 0.950 . S
C1956 C1957 1.349 . S
C1956 C1958 1.327 . S
C1956 H1981 0.950 . S
C1957 C1956 1.349 . S
C1957 C1973 1.349 . S
C1958 C1956 1.327 . S
C1958 C1977 1.429 . S
C1958 H1982 0.950 . S
C1959 C1976 1.574 . S
C1959 C1978 1.368 . S
C1959 H1983 0.949 . S
H1960 C1964 0.949 . S
C1961 C1962 1.349 . S
C1961 C1963 1.327 . S
C1961 H1984 0.950 . S
C1962 C1961 1.349 . S
C1962 C1974 1.349 . S
C1963 C1961 1.327 . S
C1963 C1979 1.429 . S
C1963 H1985 0.950 . S
C1964 H1960 0.949 . S
C1964 C1972 1.574 . S
C1964 C1980 1.368 . S
H1965 C1973 0.950 . S
H1966 C1971 0.950 . S
H1967 C1972 0.949 . S
H1968 C1974 0.950 . S
H1969 C1975 0.950 . S
H1970 C1976 0.949 . S
C1971 H1966 0.950 . S
C1971 C1973 1.327 . S
C1971 C1977 1.429 . S
C1972 C1964 1.574 . S
C1972 H1967 0.949 . S
C1972 C1978 1.368 . S
C1973 C1957 1.349 . S
C1973 H1965 0.950 . S
C1973 C1971 1.327 . S
C1974 C1962 1.349 . S
C1974 H1968 0.950 . S
C1974 C1975 1.327 . S
C1975 H1969 0.950 . S
C1975 C1974 1.327 . S
C1975 C1979 1.429 . S
C1976 C1959 1.574 . S
C1976 H1970 0.949 . S
C1976 C1980 1.368 . S
C1977 C1958 1.429 . S
C1977 C1971 1.429 . S
C1977 C1978 1.523 . S
C1978 C1959 1.368 . S
C1978 C1972 1.368 . S
C1978 C1977 1.523 . S
C1979 C1963 1.429 . S
C1979 C1975 1.429 . S
C1979 C1980 1.523 . S
C1980 C1964 1.368 . S
C1980 C1976 1.368 . S
C1980 C1979 1.523 . S
H1981 C1956 0.950 . S
H1982 C1958 0.950 . S
H1983 C1959 0.949 . S
H1984 C1961 0.950 . S
H1985 C1963 0.950 . S
C1986 C1987 1.349 . S
C1986 C1988 1.327 . S
C1986 H2011 0.950 . S
C1987 C1986 1.349 . S
C1987 C2003 1.349 . S
C1988 C1986 1.327 . S
C1988 C2007 1.429 . S
C1988 H2012 0.950 . S
C1989 C2006 1.574 . S
C1989 C2008 1.368 . S
C1989 H2013 0.949 . S
H1990 C1994 0.949 . S
C1991 C1992 1.349 . S
C1991 C1993 1.327 . S
C1991 H2014 0.950 . S
C1992 C1991 1.349 . S
C1992 C2004 1.349 . S
C1993 C1991 1.327 . S
C1993 C2009 1.429 . S
C1993 H2015 0.950 . S
C1994 H1990 0.949 . S
C1994 C2002 1.574 . S
C1994 C2010 1.368 . S
H1995 C2003 0.950 . S
H1996 C2001 0.950 . S
H1997 C2002 0.949 . S
H1998 C2004 0.950 . S
H1999 C2005 0.950 . S
H2000 C2006 0.949 . S
C2001 H1996 0.950 . S
C2001 C2003 1.327 . S
C2001 C2007 1.429 . S
C2002 C1994 1.574 . S
C2002 H1997 0.949 . S
C2002 C2008 1.368 . S
C2003 C1987 1.349 . S
C2003 H1995 0.950 . S
C2003 C2001 1.327 . S
C2004 C1992 1.349 . S
C2004 H1998 0.950 . S
C2004 C2005 1.327 . S
C2005 H1999 0.950 . S
C2005 C2004 1.327 . S
C2005 C2009 1.429 . S
C2006 C1989 1.574 . S
C2006 H2000 0.949 . S
C2006 C2010 1.368 . S
C2007 C1988 1.429 . S
C2007 C2001 1.429 . S
C2007 C2008 1.523 . S
C2008 C1989 1.368 . S
C2008 C2002 1.368 . S
C2008 C2007 1.523 . S
C2009 C1993 1.429 . S
C2009 C2005 1.429 . S
C2009 C2010 1.523 . S
C2010 C1994 1.368 . S
C2010 C2006 1.368 . S
C2010 C2009 1.523 . S
H2011 C1986 0.950 . S
H2012 C1988 0.950 . S
H2013 C1989 0.949 . S
H2014 C1991 0.950 . S
H2015 C1993 0.950 . S
C2016 C2017 1.349 . S
C2016 C2018 1.327 . S
C2016 H2041 0.950 . S
C2017 C2016 1.349 . S
C2017 C2033 1.349 . S
C2018 C2016 1.327 . S
C2018 C2037 1.429 . S
C2018 H2042 0.950 . S
C2019 C2036 1.574 . S
C2019 C2038 1.368 . S
C2019 H2043 0.949 . S
H2020 C2024 0.949 . S
C2021 C2022 1.349 . S
C2021 C2023 1.327 . S
C2021 H2044 0.950 . S
C2022 C2021 1.349 . S
C2022 C2034 1.349 . S
C2023 C2021 1.327 . S
C2023 C2039 1.429 . S
C2023 H2045 0.950 . S
C2024 H2020 0.949 . S
C2024 C2032 1.574 . S
C2024 C2040 1.368 . S
H2025 C2033 0.950 . S
H2026 C2031 0.950 . S
H2027 C2032 0.949 . S
H2028 C2034 0.950 . S
H2029 C2035 0.950 . S
H2030 C2036 0.949 . S
C2031 H2026 0.950 . S
C2031 C2033 1.327 . S
C2031 C2037 1.429 . S
C2032 C2024 1.574 . S
C2032 H2027 0.949 . S
C2032 C2038 1.368 . S
C2033 C2017 1.349 . S
C2033 H2025 0.950 . S
C2033 C2031 1.327 . S
C2034 C2022 1.349 . S
C2034 H2028 0.950 . S
C2034 C2035 1.327 . S
C2035 H2029 0.950 . S
C2035 C2034 1.327 . S
C2035 C2039 1.429 . S
C2036 C2019 1.574 . S
C2036 H2030 0.949 . S
C2036 C2040 1.368 . S
C2037 C2018 1.429 . S
C2037 C2031 1.429 . S
C2037 C2038 1.523 . S
C2038 C2019 1.368 . S
C2038 C2032 1.368 . S
C2038 C2037 1.523 . S
C2039 C2023 1.429 . S
C2039 C2035 1.429 . S
C2039 C2040 1.523 . S
C2040 C2024 1.368 . S
C2040 C2036 1.368 . S
C2040 C2039 1.523 . S
H2041 C2016 0.950 . S
H2042 C2018 0.950 . S
H2043 C2019 0.949 . S
H2044 C2021 0.950 . S
H2045 C2023 0.950 . S
C2046 C2047 1.349 . S
C2046 C2048 1.327 . S
C2046 H2071 0.950 . S
C2047 C2046 1.349 . S
C2047 C2063 1.349 . S
C2048 C2046 1.327 . S
C2048 C2067 1.429 . S
C2048 H2072 0.950 . S
C2049 C2066 1.574 . S
C2049 C2068 1.368 . S
C2049 H2073 0.949 . S
H2050 C2054 0.949 . S
C2051 C2052 1.349 . S
C2051 C2053 1.327 . S
C2051 H2074 0.950 . S
C2052 C2051 1.349 . S
C2052 C2064 1.349 . S
C2053 C2051 1.327 . S
C2053 C2069 1.429 . S
C2053 H2075 0.950 . S
C2054 H2050 0.949 . S
C2054 C2062 1.574 . S
C2054 C2070 1.368 . S
H2055 C2063 0.950 . S
H2056 C2061 0.950 . S
H2057 C2062 0.949 . S
H2058 C2064 0.950 . S
H2059 C2065 0.950 . S
H2060 C2066 0.949 . S
C2061 H2056 0.950 . S
C2061 C2063 1.327 . S
C2061 C2067 1.429 . S
C2062 C2054 1.574 . S
C2062 H2057 0.949 . S
C2062 C2068 1.368 . S
C2063 C2047 1.349 . S
C2063 H2055 0.950 . S
C2063 C2061 1.327 . S
C2064 C2052 1.349 . S
C2064 H2058 0.950 . S
C2064 C2065 1.327 . S
C2065 H2059 0.950 . S
C2065 C2064 1.327 . S
C2065 C2069 1.429 . S
C2066 C2049 1.574 . S
C2066 H2060 0.949 . S
C2066 C2070 1.368 . S
C2067 C2048 1.429 . S
C2067 C2061 1.429 . S
C2067 C2068 1.523 . S
C2068 C2049 1.368 . S
C2068 C2062 1.368 . S
C2068 C2067 1.523 . S
C2069 C2053 1.429 . S
C2069 C2065 1.429 . S
C2069 C2070 1.523 . S
C2070 C2054 1.368 . S
C2070 C2066 1.368 . S
C2070 C2069 1.523 . S
H2071 C2046 0.950 . S
H2072 C2048 0.950 . S
H2073 C2049 0.949 . S
H2074 C2051 0.950 . S
H2075 C2053 0.950 . S
C2076 C2077 1.349 . S
C2076 C2078 1.327 . S
C2076 H2101 0.950 . S
C2077 C2076 1.349 . S
C2077 C2093 1.349 . S
C2078 C2076 1.327 . S
C2078 C2097 1.429 . S
C2078 H2102 0.950 . S
C2079 C2096 1.574 . S
C2079 C2098 1.368 . S
C2079 H2103 0.949 . S
H2080 C2084 0.949 . S
C2081 C2082 1.349 . S
C2081 C2083 1.327 . S
C2081 H2104 0.950 . S
C2082 C2081 1.349 . S
C2082 C2094 1.349 . S
C2083 C2081 1.327 . S
C2083 C2099 1.429 . S
C2083 H2105 0.950 . S
C2084 H2080 0.949 . S
C2084 C2092 1.574 . S
C2084 C2100 1.368 . S
H2085 C2093 0.950 . S
H2086 C2091 0.950 . S
H2087 C2092 0.949 . S
H2088 C2094 0.950 . S
H2089 C2095 0.950 . S
H2090 C2096 0.949 . S
C2091 H2086 0.950 . S
C2091 C2093 1.327 . S
C2091 C2097 1.429 . S
C2092 C2084 1.574 . S
C2092 H2087 0.949 . S
C2092 C2098 1.368 . S
C2093 C2077 1.349 . S
C2093 H2085 0.950 . S
C2093 C2091 1.327 . S
C2094 C2082 1.349 . S
C2094 H2088 0.950 . S
C2094 C2095 1.327 . S
C2095 H2089 0.950 . S
C2095 C2094 1.327 . S
C2095 C2099 1.429 . S
C2096 C2079 1.574 . S
C2096 H2090 0.949 . S
C2096 C2100 1.368 . S
C2097 C2078 1.429 . S
C2097 C2091 1.429 . S
C2097 C2098 1.523 . S
C2098 C2079 1.368 . S
C2098 C2092 1.368 . S
C2098 C2097 1.523 . S
C2099 C2083 1.429 . S
C2099 C2095 1.429 . S
C2099 C2100 1.523 . S
C2100 C2084 1.368 . S
C2100 C2096 1.368 . S
C2100 C2099 1.523 . S
H2101 C2076 0.950 . S
H2102 C2078 0.950 . S
H2103 C2079 0.949 . S
H2104 C2081 0.950 . S
H2105 C2083 0.950 . S
C2106 C2107 1.349 . S
C2106 C2108 1.327 . S
C2106 H2131 0.950 . S
C2107 C2106 1.349 . S
C2107 C2123 1.349 . S
C2108 C2106 1.327 . S
C2108 C2127 1.429 . S
C2108 H2132 0.950 . S
C2109 C2126 1.574 . S
C2109 C2128 1.368 . S
C2109 H2133 0.949 . S
H2110 C2114 0.949 . S
C2111 C2112 1.349 . S
C2111 C2113 1.327 . S
C2111 H2134 0.950 . S
C2112 C2111 1.349 . S
C2112 C2124 1.349 . S
C2113 C2111 1.327 . S
C2113 C2129 1.429 . S
C2113 H2135 0.950 . S
C2114 H2110 0.949 . S
C2114 C2122 1.574 . S
C2114 C2130 1.368 . S
H2115 C2123 0.950 . S
H2116 C2121 0.950 . S
H2117 C2122 0.949 . S
H2118 C2124 0.950 . S
H2119 C2125 0.950 . S
H2120 C2126 0.949 . S
C2121 H2116 0.950 . S
C2121 C2123 1.327 . S
C2121 C2127 1.429 . S
C2122 C2114 1.574 . S
C2122 H2117 0.949 . S
C2122 C2128 1.368 . S
C2123 C2107 1.349 . S
C2123 H2115 0.950 . S
C2123 C2121 1.327 . S
C2124 C2112 1.349 . S
C2124 H2118 0.950 . S
C2124 C2125 1.327 . S
C2125 H2119 0.950 . S
C2125 C2124 1.327 . S
C2125 C2129 1.429 . S
C2126 C2109 1.574 . S
C2126 H2120 0.949 . S
C2126 C2130 1.368 . S
C2127 C2108 1.429 . S
C2127 C2121 1.429 . S
C2127 C2128 1.523 . S
C2128 C2109 1.368 . S
C2128 C2122 1.368 . S
C2128 C2127 1.523 . S
C2129 C2113 1.429 . S
C2129 C2125 1.429 . S
C2129 C2130 1.523 . S
C2130 C2114 1.368 . S
C2130 C2126 1.368 . S
C2130 C2129 1.523 . S
H2131 C2106 0.950 . S
H2132 C2108 0.950 . S
H2133 C2109 0.949 . S
H2134 C2111 0.950 . S
H2135 C2113 0.950 . S
C2136 C2137 1.349 . S
C2136 C2138 1.327 . S
C2136 H2161 0.950 . S
C2137 C2136 1.349 . S
C2137 C2153 1.349 . S
C2138 C2136 1.327 . S
C2138 C2157 1.429 . S
C2138 H2162 0.950 . S
C2139 C2156 1.574 . S
C2139 C2158 1.368 . S
C2139 H2163 0.949 . S
H2140 C2144 0.949 . S
C2141 C2142 1.349 . S
C2141 C2143 1.327 . S
C2141 H2164 0.950 . S
C2142 C2141 1.349 . S
C2142 C2154 1.349 . S
C2143 C2141 1.327 . S
C2143 C2159 1.429 . S
C2143 H2165 0.950 . S
C2144 H2140 0.949 . S
C2144 C2152 1.574 . S
C2144 C2160 1.368 . S
H2145 C2153 0.950 . S
H2146 C2151 0.950 . S
H2147 C2152 0.949 . S
H2148 C2154 0.950 . S
H2149 C2155 0.950 . S
H2150 C2156 0.949 . S
C2151 H2146 0.950 . S
C2151 C2153 1.327 . S
C2151 C2157 1.429 . S
C2152 C2144 1.574 . S
C2152 H2147 0.949 . S
C2152 C2158 1.368 . S
C2153 C2137 1.349 . S
C2153 H2145 0.950 . S
C2153 C2151 1.327 . S
C2154 C2142 1.349 . S
C2154 H2148 0.950 . S
C2154 C2155 1.327 . S
C2155 H2149 0.950 . S
C2155 C2154 1.327 . S
C2155 C2159 1.429 . S
C2156 C2139 1.574 . S
C2156 H2150 0.949 . S
C2156 C2160 1.368 . S
C2157 C2138 1.429 . S
C2157 C2151 1.429 . S
C2157 C2158 1.523 . S
C2158 C2139 1.368 . S
C2158 C2152 1.368 . S
C2158 C2157 1.523 . S
C2159 C2143 1.429 . S
C2159 C2155 1.429 . S
C2159 C2160 1.523 . S
C2160 C2144 1.368 . S
C2160 C2156 1.368 . S
C2160 C2159 1.523 . S
H2161 C2136 0.950 . S
H2162 C2138 0.950 . S
H2163 C2139 0.949 . S
H2164 C2141 0.950 . S
H2165 C2143 0.950 . S
C2166 C2167 1.349 . S
C2166 C2168 1.327 . S
C2166 H2191 0.950 . S
C2167 C2166 1.349 . S
C2167 C2183 1.349 . S
C2168 C2166 1.327 . S
C2168 C2187 1.429 . S
C2168 H2192 0.950 . S
C2169 C2186 1.574 . S
C2169 C2188 1.368 . S
C2169 H2193 0.949 . S
H2170 C2174 0.949 . S
C2171 C2172 1.349 . S
C2171 C2173 1.327 . S
C2171 H2194 0.950 . S
C2172 C2171 1.349 . S
C2172 C2184 1.349 . S
C2173 C2171 1.327 . S
C2173 C2189 1.429 . S
C2173 H2195 0.950 . S
C2174 H2170 0.949 . S
C2174 C2182 1.574 . S
C2174 C2190 1.368 . S
H2175 C2183 0.950 . S
H2176 C2181 0.950 . S
H2177 C2182 0.949 . S
H2178 C2184 0.950 . S
H2179 C2185 0.950 . S
H2180 C2186 0.949 . S
C2181 H2176 0.950 . S
C2181 C2183 1.327 . S
C2181 C2187 1.429 . S
C2182 C2174 1.574 . S
C2182 H2177 0.949 . S
C2182 C2188 1.368 . S
C2183 C2167 1.349 . S
C2183 H2175 0.950 . S
C2183 C2181 1.327 . S
C2184 C2172 1.349 . S
C2184 H2178 0.950 . S
C2184 C2185 1.327 . S
C2185 H2179 0.950 . S
C2185 C2184 1.327 . S
C2185 C2189 1.429 . S
C2186 C2169 1.574 . S
C2186 H2180 0.949 . S
C2186 C2190 1.368 . S
C2187 C2168 1.429 . S
C2187 C2181 1.429 . S
C2187 C2188 1.523 . S
C2188 C2169 1.368 . S
C2188 C2182 1.368 . S
C2188 C2187 1.523 . S
C2189 C2173 1.429 . S
C2189 C2185 1.429 . S
C2189 C2190 1.523 . S
C2190 C2174 1.368 . S
C2190 C2186 1.368 . S
C2190 C2189 1.523 . S
H2191 C2166 0.950 . S
H2192 C2168 0.950 . S
H2193 C2169 0.949 . S
H2194 C2171 0.950 . S
H2195 C2173 0.950 . S
C2196 C2197 1.349 . S
C2196 C2198 1.327 . S
C2196 H2221 0.950 . S
C2197 C2196 1.349 . S
C2197 C2213 1.349 . S
C2198 C2196 1.327 . S
C2198 C2217 1.429 . S
C2198 H2222 0.950 . S
C2199 C2216 1.574 . S
C2199 C2218 1.368 . S
C2199 H2223 0.949 . S
H2200 C2204 0.949 . S
C2201 C2202 1.349 . S
C2201 C2203 1.327 . S
C2201 H2224 0.950 . S
C2202 C2201 1.349 . S
C2202 C2214 1.349 . S
C2203 C2201 1.327 . S
C2203 C2219 1.429 . S
C2203 H2225 0.950 . S
C2204 H2200 0.949 . S
C2204 C2212 1.574 . S
C2204 C2220 1.368 . S
H2205 C2213 0.950 . S
H2206 C2211 0.950 . S
H2207 C2212 0.949 . S
H2208 C2214 0.950 . S
H2209 C2215 0.950 . S
H2210 C2216 0.949 . S
C2211 H2206 0.950 . S
C2211 C2213 1.327 . S
C2211 C2217 1.429 . S
C2212 C2204 1.574 . S
C2212 H2207 0.949 . S
C2212 C2218 1.368 . S
C2213 C2197 1.349 . S
C2213 H2205 0.950 . S
C2213 C2211 1.327 . S
C2214 C2202 1.349 . S
C2214 H2208 0.950 . S
C2214 C2215 1.327 . S
C2215 H2209 0.950 . S
C2215 C2214 1.327 . S
C2215 C2219 1.429 . S
C2216 C2199 1.574 . S
C2216 H2210 0.949 . S
C2216 C2220 1.368 . S
C2217 C2198 1.429 . S
C2217 C2211 1.429 . S
C2217 C2218 1.523 . S
C2218 C2199 1.368 . S
C2218 C2212 1.368 . S
C2218 C2217 1.523 . S
C2219 C2203 1.429 . S
C2219 C2215 1.429 . S
C2219 C2220 1.523 . S
C2220 C2204 1.368 . S
C2220 C2216 1.368 . S
C2220 C2219 1.523 . S
H2221 C2196 0.950 . S
H2222 C2198 0.950 . S
H2223 C2199 0.949 . S
H2224 C2201 0.950 . S
H2225 C2203 0.950 . S
C2226 C2227 1.349 . S
C2226 C2228 1.327 . S
C2226 H2251 0.950 . S
C2227 C2226 1.349 . S
C2227 C2243 1.349 . S
C2228 C2226 1.327 . S
C2228 C2247 1.429 . S
C2228 H2252 0.950 . S
C2229 C2246 1.574 . S
C2229 C2248 1.368 . S
C2229 H2253 0.949 . S
H2230 C2234 0.949 . S
C2231 C2232 1.349 . S
C2231 C2233 1.327 . S
C2231 H2254 0.950 . S
C2232 C2231 1.349 . S
C2232 C2244 1.349 . S
C2233 C2231 1.327 . S
C2233 C2249 1.429 . S
C2233 H2255 0.950 . S
C2234 H2230 0.949 . S
C2234 C2242 1.574 . S
C2234 C2250 1.368 . S
H2235 C2243 0.950 . S
H2236 C2241 0.950 . S
H2237 C2242 0.949 . S
H2238 C2244 0.950 . S
H2239 C2245 0.950 . S
H2240 C2246 0.949 . S
C2241 H2236 0.950 . S
C2241 C2243 1.327 . S
C2241 C2247 1.429 . S
C2242 C2234 1.574 . S
C2242 H2237 0.949 . S
C2242 C2248 1.368 . S
C2243 C2227 1.349 . S
C2243 H2235 0.950 . S
C2243 C2241 1.327 . S
C2244 C2232 1.349 . S
C2244 H2238 0.950 . S
C2244 C2245 1.327 . S
C2245 H2239 0.950 . S
C2245 C2244 1.327 . S
C2245 C2249 1.429 . S
C2246 C2229 1.574 . S
C2246 H2240 0.949 . S
C2246 C2250 1.368 . S
C2247 C2228 1.429 . S
C2247 C2241 1.429 . S
C2247 C2248 1.523 . S
C2248 C2229 1.368 . S
C2248 C2242 1.368 . S
C2248 C2247 1.523 . S
C2249 C2233 1.429 . S
C2249 C2245 1.429 . S
C2249 C2250 1.523 . S
C2250 C2234 1.368 . S
C2250 C2246 1.368 . S
C2250 C2249 1.523 . S
H2251 C2226 0.950 . S
H2252 C2228 0.950 . S
H2253 C2229 0.949 . S
H2254 C2231 0.950 . S
H2255 C2233 0.950 . S
C2256 C2257 1.349 . S
C2256 C2258 1.327 . S
C2256 H2281 0.950 . S
C2257 C2256 1.349 . S
C2257 C2273 1.349 . S
C2258 C2256 1.327 . S
C2258 C2277 1.429 . S
C2258 H2282 0.950 . S
C2259 C2276 1.574 . S
C2259 C2278 1.368 . S
C2259 H2283 0.949 . S
H2260 C2264 0.949 . S
C2261 C2262 1.349 . S
C2261 C2263 1.327 . S
C2261 H2284 0.950 . S
C2262 C2261 1.349 . S
C2262 C2274 1.349 . S
C2263 C2261 1.327 . S
C2263 C2279 1.429 . S
C2263 H2285 0.950 . S
C2264 H2260 0.949 . S
C2264 C2272 1.574 . S
C2264 C2280 1.368 . S
H2265 C2273 0.950 . S
H2266 C2271 0.950 . S
H2267 C2272 0.949 . S
H2268 C2274 0.950 . S
H2269 C2275 0.950 . S
H2270 C2276 0.949 . S
C2271 H2266 0.950 . S
C2271 C2273 1.327 . S
C2271 C2277 1.429 . S
C2272 C2264 1.574 . S
C2272 H2267 0.949 . S
C2272 C2278 1.368 . S
C2273 C2257 1.349 . S
C2273 H2265 0.950 . S
C2273 C2271 1.327 . S
C2274 C2262 1.349 . S
C2274 H2268 0.950 . S
C2274 C2275 1.327 . S
C2275 H2269 0.950 . S
C2275 C2274 1.327 . S
C2275 C2279 1.429 . S
C2276 C2259 1.574 . S
C2276 H2270 0.949 . S
C2276 C2280 1.368 . S
C2277 C2258 1.429 . S
C2277 C2271 1.429 . S
C2277 C2278 1.523 . S
C2278 C2259 1.368 . S
C2278 C2272 1.368 . S
C2278 C2277 1.523 . S
C2279 C2263 1.429 . S
C2279 C2275 1.429 . S
C2279 C2280 1.523 . S
C2280 C2264 1.368 . S
C2280 C2276 1.368 . S
C2280 C2279 1.523 . S
H2281 C2256 0.950 . S
H2282 C2258 0.950 . S
H2283 C2259 0.949 . S
H2284 C2261 0.950 . S
H2285 C2263 0.950 . S
C2286 C2287 1.349 . S
C2286 C2288 1.327 . S
C2286 H2311 0.950 . S
C2287 C2286 1.349 . S
C2287 C2303 1.349 . S
C2288 C2286 1.327 . S
C2288 C2307 1.429 . S
C2288 H2312 0.950 . S
C2289 C2306 1.574 . S
C2289 C2308 1.368 . S
C2289 H2313 0.949 . S
H2290 C2294 0.949 . S
C2291 C2292 1.349 . S
C2291 C2293 1.327 . S
C2291 H2314 0.950 . S
C2292 C2291 1.349 . S
C2292 C2304 1.349 . S
C2293 C2291 1.327 . S
C2293 C2309 1.429 . S
C2293 H2315 0.950 . S
C2294 H2290 0.949 . S
C2294 C2302 1.574 . S
C2294 C2310 1.368 . S
H2295 C2303 0.950 . S
H2296 C2301 0.950 . S
H2297 C2302 0.949 . S
H2298 C2304 0.950 . S
H2299 C2305 0.950 . S
H2300 C2306 0.949 . S
C2301 H2296 0.950 . S
C2301 C2303 1.327 . S
C2301 C2307 1.429 . S
C2302 C2294 1.574 . S
C2302 H2297 0.949 . S
C2302 C2308 1.368 . S
C2303 C2287 1.349 . S
C2303 H2295 0.950 . S
C2303 C2301 1.327 . S
C2304 C2292 1.349 . S
C2304 H2298 0.950 . S
C2304 C2305 1.327 . S
C2305 H2299 0.950 . S
C2305 C2304 1.327 . S
C2305 C2309 1.429 . S
C2306 C2289 1.574 . S
C2306 H2300 0.949 . S
C2306 C2310 1.368 . S
C2307 C2288 1.429 . S
C2307 C2301 1.429 . S
C2307 C2308 1.523 . S
C2308 C2289 1.368 . S
C2308 C2302 1.368 . S
C2308 C2307 1.523 . S
C2309 C2293 1.429 . S
C2309 C2305 1.429 . S
C2309 C2310 1.523 . S
C2310 C2294 1.368 . S
C2310 C2306 1.368 . S
C2310 C2309 1.523 . S
H2311 C2286 0.950 . S
H2312 C2288 0.950 . S
H2313 C2289 0.949 . S
H2314 C2291 0.950 . S
H2315 C2293 0.950 . S
C2316 C2317 1.349 . S
C2316 C2318 1.327 . S
C2316 H2341 0.950 . S
C2317 C2316 1.349 . S
C2317 C2333 1.349 . S
C2318 C2316 1.327 . S
C2318 C2337 1.429 . S
C2318 H2342 0.950 . S
C2319 C2336 1.574 . S
C2319 C2338 1.368 . S
C2319 H2343 0.949 . S
H2320 C2324 0.949 . S
C2321 C2322 1.349 . S
C2321 C2323 1.327 . S
C2321 H2344 0.950 . S
C2322 C2321 1.349 . S
C2322 C2334 1.349 . S
C2323 C2321 1.327 . S
C2323 C2339 1.429 . S
C2323 H2345 0.950 . S
C2324 H2320 0.949 . S
C2324 C2332 1.574 . S
C2324 C2340 1.368 . S
H2325 C2333 0.950 . S
H2326 C2331 0.950 . S
H2327 C2332 0.949 . S
H2328 C2334 0.950 . S
H2329 C2335 0.950 . S
H2330 C2336 0.949 . S
C2331 H2326 0.950 . S
C2331 C2333 1.327 . S
C2331 C2337 1.429 . S
C2332 C2324 1.574 . S
C2332 H2327 0.949 . S
C2332 C2338 1.368 . S
C2333 C2317 1.349 . S
C2333 H2325 0.950 . S
C2333 C2331 1.327 . S
C2334 C2322 1.349 . S
C2334 H2328 0.950 . S
C2334 C2335 1.327 . S
C2335 H2329 0.950 . S
C2335 C2334 1.327 . S
C2335 C2339 1.429 . S
C2336 C2319 1.574 . S
C2336 H2330 0.949 . S
C2336 C2340 1.368 . S
C2337 C2318 1.429 . S
C2337 C2331 1.429 . S
C2337 C2338 1.523 . S
C2338 C2319 1.368 . S
C2338 C2332 1.368 . S
C2338 C2337 1.523 . S
C2339 C2323 1.429 . S
C2339 C2335 1.429 . S
C2339 C2340 1.523 . S
C2340 C2324 1.368 . S
C2340 C2336 1.368 . S
C2340 C2339 1.523 . S
H2341 C2316 0.950 . S
H2342 C2318 0.950 . S
H2343 C2319 0.949 . S
H2344 C2321 0.950 . S
H2345 C2323 0.950 . S
C2346 C2347 1.349 . S
C2346 C2348 1.327 . S
C2346 H2371 0.950 . S
C2347 C2346 1.349 . S
C2347 C2363 1.349 . S
C2348 C2346 1.327 . S
C2348 C2367 1.429 . S
C2348 H2372 0.950 . S
C2349 C2366 1.574 . S
C2349 C2368 1.368 . S
C2349 H2373 0.949 . S
H2350 C2354 0.949 . S
C2351 C2352 1.349 . S
C2351 C2353 1.327 . S
C2351 H2374 0.950 . S
C2352 C2351 1.349 . S
C2352 C2364 1.349 . S
C2353 C2351 1.327 . S
C2353 C2369 1.429 . S
C2353 H2375 0.950 . S
C2354 H2350 0.949 . S
C2354 C2362 1.574 . S
C2354 C2370 1.368 . S
H2355 C2363 0.950 . S
H2356 C2361 0.950 . S
H2357 C2362 0.949 . S
H2358 C2364 0.950 . S
H2359 C2365 0.950 . S
H2360 C2366 0.949 . S
C2361 H2356 0.950 . S
C2361 C2363 1.327 . S
C2361 C2367 1.429 . S
C2362 C2354 1.574 . S
C2362 H2357 0.949 . S
C2362 C2368 1.368 . S
C2363 C2347 1.349 . S
C2363 H2355 0.950 . S
C2363 C2361 1.327 . S
C2364 C2352 1.349 . S
C2364 H2358 0.950 . S
C2364 C2365 1.327 . S
C2365 H2359 0.950 . S
C2365 C2364 1.327 . S
C2365 C2369 1.429 . S
C2366 C2349 1.574 . S
C2366 H2360 0.949 . S
C2366 C2370 1.368 . S
C2367 C2348 1.429 . S
C2367 C2361 1.429 . S
C2367 C2368 1.523 . S
C2368 C2349 1.368 . S
C2368 C2362 1.368 . S
C2368 C2367 1.523 . S
C2369 C2353 1.429 . S
C2369 C2365 1.429 . S
C2369 C2370 1.523 . S
C2370 C2354 1.368 . S
C2370 C2366 1.368 . S
C2370 C2369 1.523 . S
H2371 C2346 0.950 . S
H2372 C2348 0.950 . S
H2373 C2349 0.949 . S
H2374 C2351 0.950 . S
H2375 C2353 0.950 . S
C2376 C2377 1.349 . S
C2376 C2378 1.327 . S
C2376 H2401 0.950 . S
C2377 C2376 1.349 . S
C2377 C2393 1.349 . S
C2378 C2376 1.327 . S
C2378 C2397 1.429 . S
C2378 H2402 0.950 . S
C2379 C2396 1.574 . S
C2379 C2398 1.368 . S
C2379 H2403 0.949 . S
H2380 C2384 0.949 . S
C2381 C2382 1.349 . S
C2381 C2383 1.327 . S
C2381 H2404 0.950 . S
C2382 C2381 1.349 . S
C2382 C2394 1.349 . S
C2383 C2381 1.327 . S
C2383 C2399 1.429 . S
C2383 H2405 0.950 . S
C2384 H2380 0.949 . S
C2384 C2392 1.574 . S
C2384 C2400 1.368 . S
H2385 C2393 0.950 . S
H2386 C2391 0.950 . S
H2387 C2392 0.949 . S
H2388 C2394 0.950 . S
H2389 C2395 0.950 . S
H2390 C2396 0.949 . S
C2391 H2386 0.950 . S
C2391 C2393 1.327 . S
C2391 C2397 1.429 . S
C2392 C2384 1.574 . S
C2392 H2387 0.949 . S
C2392 C2398 1.368 . S
C2393 C2377 1.349 . S
C2393 H2385 0.950 . S
C2393 C2391 1.327 . S
C2394 C2382 1.349 . S
C2394 H2388 0.950 . S
C2394 C2395 1.327 . S
C2395 H2389 0.950 . S
C2395 C2394 1.327 . S
C2395 C2399 1.429 . S
C2396 C2379 1.574 . S
C2396 H2390 0.949 . S
C2396 C2400 1.368 . S
C2397 C2378 1.429 . S
C2397 C2391 1.429 . S
C2397 C2398 1.523 . S
C2398 C2379 1.368 . S
C2398 C2392 1.368 . S
C2398 C2397 1.523 . S
C2399 C2383 1.429 . S
C2399 C2395 1.429 . S
C2399 C2400 1.523 . S
C2400 C2384 1.368 . S
C2400 C2396 1.368 . S
C2400 C2399 1.523 . S
H2401 C2376 0.950 . S
H2402 C2378 0.950 . S
H2403 C2379 0.949 . S
H2404 C2381 0.950 . S
H2405 C2383 0.950 . S
C2406 C2407 1.349 . S
C2406 C2408 1.327 . S
C2406 H2431 0.950 . S
C2407 C2406 1.349 . S
C2407 C2423 1.349 . S
C2408 C2406 1.327 . S
C2408 C2427 1.429 . S
C2408 H2432 0.950 . S
C2409 C2426 1.574 . S
C2409 C2428 1.368 . S
C2409 H2433 0.949 . S
H2410 C2414 0.949 . S
C2411 C2412 1.349 . S
C2411 C2413 1.327 . S
C2411 H2434 0.950 . S
C2412 C2411 1.349 . S
C2412 C2424 1.349 . S
C2413 C2411 1.327 . S
C2413 C2429 1.429 . S
C2413 H2435 0.950 . S
C2414 H2410 0.949 . S
C2414 C2422 1.574 . S
C2414 C2430 1.368 . S
H2415 C2423 0.950 . S
H2416 C2421 0.950 . S
H2417 C2422 0.949 . S
H2418 C2424 0.950 . S
H2419 C2425 0.950 . S
H2420 C2426 0.949 . S
C2421 H2416 0.950 . S
C2421 C2423 1.327 . S
C2421 C2427 1.429 . S
C2422 C2414 1.574 . S
C2422 H2417 0.949 . S
C2422 C2428 1.368 . S
C2423 C2407 1.349 . S
C2423 H2415 0.950 . S
C2423 C2421 1.327 . S
C2424 C2412 1.349 . S
C2424 H2418 0.950 . S
C2424 C2425 1.327 . S
C2425 H2419 0.950 . S
C2425 C2424 1.327 . S
C2425 C2429 1.429 . S
C2426 C2409 1.574 . S
C2426 H2420 0.949 . S
C2426 C2430 1.368 . S
C2427 C2408 1.429 . S
C2427 C2421 1.429 . S
C2427 C2428 1.523 . S
C2428 C2409 1.368 . S
C2428 C2422 1.368 . S
C2428 C2427 1.523 . S
C2429 C2413 1.429 . S
C2429 C2425 1.429 . S
C2429 C2430 1.523 . S
C2430 C2414 1.368 . S
C2430 C2426 1.368 . S
C2430 C2429 1.523 . S
H2431 C2406 0.950 . S
H2432 C2408 0.950 . S
H2433 C2409 0.949 . S
H2434 C2411 0.950 . S
H2435 C2413 0.950 . S
C2436 C2437 1.349 . S
C2436 C2438 1.327 . S
C2436 H2461 0.950 . S
C2437 C2436 1.349 . S
C2437 C2453 1.349 . S
C2438 C2436 1.327 . S
C2438 C2457 1.429 . S
C2438 H2462 0.950 . S
C2439 C2456 1.574 . S
C2439 C2458 1.368 . S
C2439 H2463 0.949 . S
H2440 C2444 0.949 . S
C2441 C2442 1.349 . S
C2441 C2443 1.327 . S
C2441 H2464 0.950 . S
C2442 C2441 1.349 . S
C2442 C2454 1.349 . S
C2443 C2441 1.327 . S
C2443 C2459 1.429 . S
C2443 H2465 0.950 . S
C2444 H2440 0.949 . S
C2444 C2452 1.574 . S
C2444 C2460 1.368 . S
H2445 C2453 0.950 . S
H2446 C2451 0.950 . S
H2447 C2452 0.949 . S
H2448 C2454 0.950 . S
H2449 C2455 0.950 . S
H2450 C2456 0.949 . S
C2451 H2446 0.950 . S
C2451 C2453 1.327 . S
C2451 C2457 1.429 . S
C2452 C2444 1.574 . S
C2452 H2447 0.949 . S
C2452 C2458 1.368 . S
C2453 C2437 1.349 . S
C2453 H2445 0.950 . S
C2453 C2451 1.327 . S
C2454 C2442 1.349 . S
C2454 H2448 0.950 . S
C2454 C2455 1.327 . S
C2455 H2449 0.950 . S
C2455 C2454 1.327 . S
C2455 C2459 1.429 . S
C2456 C2439 1.574 . S
C2456 H2450 0.949 . S
C2456 C2460 1.368 . S
C2457 C2438 1.429 . S
C2457 C2451 1.429 . S
C2457 C2458 1.523 . S
C2458 C2439 1.368 . S
C2458 C2452 1.368 . S
C2458 C2457 1.523 . S
C2459 C2443 1.429 . S
C2459 C2455 1.429 . S
C2459 C2460 1.523 . S
C2460 C2444 1.368 . S
C2460 C2456 1.368 . S
C2460 C2459 1.523 . S
H2461 C2436 0.950 . S
H2462 C2438 0.950 . S
H2463 C2439 0.949 . S
H2464 C2441 0.950 . S
H2465 C2443 0.950 . S
C2466 C2467 1.349 . S
C2466 C2468 1.327 . S
C2466 H2491 0.950 . S
C2467 C2466 1.349 . S
C2467 C2483 1.349 . S
C2468 C2466 1.327 . S
C2468 C2487 1.429 . S
C2468 H2492 0.950 . S
C2469 C2486 1.574 . S
C2469 C2488 1.368 . S
C2469 H2493 0.949 . S
H2470 C2474 0.949 . S
C2471 C2472 1.349 . S
C2471 C2473 1.327 . S
C2471 H2494 0.950 . S
C2472 C2471 1.349 . S
C2472 C2484 1.349 . S
C2473 C2471 1.327 . S
C2473 C2489 1.429 . S
C2473 H2495 0.950 . S
C2474 H2470 0.949 . S
C2474 C2482 1.574 . S
C2474 C2490 1.368 . S
H2475 C2483 0.950 . S
H2476 C2481 0.950 . S
H2477 C2482 0.949 . S
H2478 C2484 0.950 . S
H2479 C2485 0.950 . S
H2480 C2486 0.949 . S
C2481 H2476 0.950 . S
C2481 C2483 1.327 . S
C2481 C2487 1.429 . S
C2482 C2474 1.574 . S
C2482 H2477 0.949 . S
C2482 C2488 1.368 . S
C2483 C2467 1.349 . S
C2483 H2475 0.950 . S
C2483 C2481 1.327 . S
C2484 C2472 1.349 . S
C2484 H2478 0.950 . S
C2484 C2485 1.327 . S
C2485 H2479 0.950 . S
C2485 C2484 1.327 . S
C2485 C2489 1.429 . S
C2486 C2469 1.574 . S
C2486 H2480 0.949 . S
C2486 C2490 1.368 . S
C2487 C2468 1.429 . S
C2487 C2481 1.429 . S
C2487 C2488 1.523 . S
C2488 C2469 1.368 . S
C2488 C2482 1.368 . S
C2488 C2487 1.523 . S
C2489 C2473 1.429 . S
C2489 C2485 1.429 . S
C2489 C2490 1.523 . S
C2490 C2474 1.368 . S
C2490 C2486 1.368 . S
C2490 C2489 1.523 . S
H2491 C2466 0.950 . S
H2492 C2468 0.950 . S
H2493 C2469 0.949 . S
H2494 C2471 0.950 . S
H2495 C2473 0.950 . S
C2496 C2497 1.349 . S
C2496 C2498 1.327 . S
C2496 H2521 0.950 . S
C2497 C2496 1.349 . S
C2497 C2513 1.349 . S
C2498 C2496 1.327 . S
C2498 C2517 1.429 . S
C2498 H2522 0.950 . S
C2499 C2516 1.574 . S
C2499 C2518 1.368 . S
C2499 H2523 0.949 . S
H2500 C2504 0.949 . S
C2501 C2502 1.349 . S
C2501 C2503 1.327 . S
C2501 H2524 0.950 . S
C2502 C2501 1.349 . S
C2502 C2514 1.349 . S
C2503 C2501 1.327 . S
C2503 C2519 1.429 . S
C2503 H2525 0.950 . S
C2504 H2500 0.949 . S
C2504 C2512 1.574 . S
C2504 C2520 1.368 . S
H2505 C2513 0.950 . S
H2506 C2511 0.950 . S
H2507 C2512 0.949 . S
H2508 C2514 0.950 . S
H2509 C2515 0.950 . S
H2510 C2516 0.949 . S
C2511 H2506 0.950 . S
C2511 C2513 1.327 . S
C2511 C2517 1.429 . S
C2512 C2504 1.574 . S
C2512 H2507 0.949 . S
C2512 C2518 1.368 . S
C2513 C2497 1.349 . S
C2513 H2505 0.950 . S
C2513 C2511 1.327 . S
C2514 C2502 1.349 . S
C2514 H2508 0.950 . S
C2514 C2515 1.327 . S
C2515 H2509 0.950 . S
C2515 C2514 1.327 . S
C2515 C2519 1.429 . S
C2516 C2499 1.574 . S
C2516 H2510 0.949 . S
C2516 C2520 1.368 . S
C2517 C2498 1.429 . S
C2517 C2511 1.429 . S
C2517 C2518 1.523 . S
C2518 C2499 1.368 . S
C2518 C2512 1.368 . S
C2518 C2517 1.523 . S
C2519 C2503 1.429 . S
C2519 C2515 1.429 . S
C2519 C2520 1.523 . S
C2520 C2504 1.368 . S
C2520 C2516 1.368 . S
C2520 C2519 1.523 . S
H2521 C2496 0.950 . S
H2522 C2498 0.950 . S
H2523 C2499 0.949 . S
H2524 C2501 0.950 . S
H2525 C2503 0.950 . S
C2526 C2527 1.349 . S
C2526 C2528 1.327 . S
C2526 H2551 0.950 . S
C2527 C2526 1.349 . S
C2527 C2543 1.349 . S
C2528 C2526 1.327 . S
C2528 C2547 1.429 . S
C2528 H2552 0.950 . S
C2529 C2546 1.574 . S
C2529 C2548 1.368 . S
C2529 H2553 0.949 . S
H2530 C2534 0.949 . S
C2531 C2532 1.349 . S
C2531 C2533 1.327 . S
C2531 H2554 0.950 . S
C2532 C2531 1.349 . S
C2532 C2544 1.349 . S
C2533 C2531 1.327 . S
C2533 C2549 1.429 . S
C2533 H2555 0.950 . S
C2534 H2530 0.949 . S
C2534 C2542 1.574 . S
C2534 C2550 1.368 . S
H2535 C2543 0.950 . S
H2536 C2541 0.950 . S
H2537 C2542 0.949 . S
H2538 C2544 0.950 . S
H2539 C2545 0.950 . S
H2540 C2546 0.949 . S
C2541 H2536 0.950 . S
C2541 C2543 1.327 . S
C2541 C2547 1.429 . S
C2542 C2534 1.574 . S
C2542 H2537 0.949 . S
C2542 C2548 1.368 . S
C2543 C2527 1.349 . S
C2543 H2535 0.950 . S
C2543 C2541 1.327 . S
C2544 C2532 1.349 . S
C2544 H2538 0.950 . S
C2544 C2545 1.327 . S
C2545 H2539 0.950 . S
C2545 C2544 1.327 . S
C2545 C2549 1.429 . S
C2546 C2529 1.574 . S
C2546 H2540 0.949 . S
C2546 C2550 1.368 . S
C2547 C2528 1.429 . S
C2547 C2541 1.429 . S
C2547 C2548 1.523 . S
C2548 C2529 1.368 . S
C2548 C2542 1.368 . S
C2548 C2547 1.523 . S
C2549 C2533 1.429 . S
C2549 C2545 1.429 . S
C2549 C2550 1.523 . S
C2550 C2534 1.368 . S
C2550 C2546 1.368 . S
C2550 C2549 1.523 . S
H2551 C2526 0.950 . S
H2552 C2528 0.950 . S
H2553 C2529 0.949 . S
H2554 C2531 0.950 . S
H2555 C2533 0.950 . S
C2556 C2557 1.349 . S
C2556 C2558 1.327 . S
C2556 H2581 0.950 . S
C2557 C2556 1.349 . S
C2557 C2573 1.349 . S
C2558 C2556 1.327 . S
C2558 C2577 1.429 . S
C2558 H2582 0.950 . S
C2559 C2576 1.574 . S
C2559 C2578 1.368 . S
C2559 H2583 0.949 . S
H2560 C2564 0.949 . S
C2561 C2562 1.349 . S
C2561 C2563 1.327 . S
C2561 H2584 0.950 . S
C2562 C2561 1.349 . S
C2562 C2574 1.349 . S
C2563 C2561 1.327 . S
C2563 C2579 1.429 . S
C2563 H2585 0.950 . S
C2564 H2560 0.949 . S
C2564 C2572 1.574 . S
C2564 C2580 1.368 . S
H2565 C2573 0.950 . S
H2566 C2571 0.950 . S
H2567 C2572 0.949 . S
H2568 C2574 0.950 . S
H2569 C2575 0.950 . S
H2570 C2576 0.949 . S
C2571 H2566 0.950 . S
C2571 C2573 1.327 . S
C2571 C2577 1.429 . S
C2572 C2564 1.574 . S
C2572 H2567 0.949 . S
C2572 C2578 1.368 . S
C2573 C2557 1.349 . S
C2573 H2565 0.950 . S
C2573 C2571 1.327 . S
C2574 C2562 1.349 . S
C2574 H2568 0.950 . S
C2574 C2575 1.327 . S
C2575 H2569 0.950 . S
C2575 C2574 1.327 . S
C2575 C2579 1.429 . S
C2576 C2559 1.574 . S
C2576 H2570 0.949 . S
C2576 C2580 1.368 . S
C2577 C2558 1.429 . S
C2577 C2571 1.429 . S
C2577 C2578 1.523 . S
C2578 C2559 1.368 . S
C2578 C2572 1.368 . S
C2578 C2577 1.523 . S
C2579 C2563 1.429 . S
C2579 C2575 1.429 . S
C2579 C2580 1.523 . S
C2580 C2564 1.368 . S
C2580 C2576 1.368 . S
C2580 C2579 1.523 . S
H2581 C2556 0.950 . S
H2582 C2558 0.950 . S
H2583 C2559 0.949 . S
H2584 C2561 0.950 . S
H2585 C2563 0.950 . S
C2586 C2587 1.349 . S
C2586 C2588 1.327 . S
C2586 H2611 0.950 . S
C2587 C2586 1.349 . S
C2587 C2603 1.349 . S
C2588 C2586 1.327 . S
C2588 C2607 1.429 . S
C2588 H2612 0.950 . S
C2589 C2606 1.574 . S
C2589 C2608 1.368 . S
C2589 H2613 0.949 . S
H2590 C2594 0.949 . S
C2591 C2592 1.349 . S
C2591 C2593 1.327 . S
C2591 H2614 0.950 . S
C2592 C2591 1.349 . S
C2592 C2604 1.349 . S
C2593 C2591 1.327 . S
C2593 C2609 1.429 . S
C2593 H2615 0.950 . S
C2594 H2590 0.949 . S
C2594 C2602 1.574 . S
C2594 C2610 1.368 . S
H2595 C2603 0.950 . S
H2596 C2601 0.950 . S
H2597 C2602 0.949 . S
H2598 C2604 0.950 . S
H2599 C2605 0.950 . S
H2600 C2606 0.949 . S
C2601 H2596 0.950 . S
C2601 C2603 1.327 . S
C2601 C2607 1.429 . S
C2602 C2594 1.574 . S
C2602 H2597 0.949 . S
C2602 C2608 1.368 . S
C2603 C2587 1.349 . S
C2603 H2595 0.950 . S
C2603 C2601 1.327 . S
C2604 C2592 1.349 . S
C2604 H2598 0.950 . S
C2604 C2605 1.327 . S
C2605 H2599 0.950 . S
C2605 C2604 1.327 . S
C2605 C2609 1.429 . S
C2606 C2589 1.574 . S
C2606 H2600 0.949 . S
C2606 C2610 1.368 . S
C2607 C2588 1.429 . S
C2607 C2601 1.429 . S
C2607 C2608 1.523 . S
C2608 C2589 1.368 . S
C2608 C2602 1.368 . S
C2608 C2607 1.523 . S
C2609 C2593 1.429 . S
C2609 C2605 1.429 . S
C2609 C2610 1.523 . S
C2610 C2594 1.368 . S
C2610 C2606 1.368 . S
C2610 C2609 1.523 . S
H2611 C2586 0.950 . S
H2612 C2588 0.950 . S
H2613 C2589 0.949 . S
H2614 C2591 0.950 . S
H2615 C2593 0.950 . S
C2616 C2617 1.349 . S
C2616 C2618 1.327 . S
C2616 H2641 0.950 . S
C2617 C2616 1.349 . S
C2617 C2633 1.349 . S
C2618 C2616 1.327 . S
C2618 C2637 1.429 . S
C2618 H2642 0.950 . S
C2619 C2636 1.574 . S
C2619 C2638 1.368 . S
C2619 H2643 0.949 . S
H2620 C2624 0.949 . S
C2621 C2622 1.349 . S
C2621 C2623 1.327 . S
C2621 H2644 0.950 . S
C2622 C2621 1.349 . S
C2622 C2634 1.349 . S
C2623 C2621 1.327 . S
C2623 C2639 1.429 . S
C2623 H2645 0.950 . S
C2624 H2620 0.949 . S
C2624 C2632 1.574 . S
C2624 C2640 1.368 . S
H2625 C2633 0.950 . S
H2626 C2631 0.950 . S
H2627 C2632 0.949 . S
H2628 C2634 0.950 . S
H2629 C2635 0.950 . S
H2630 C2636 0.949 . S
C2631 H2626 0.950 . S
C2631 C2633 1.327 . S
C2631 C2637 1.429 . S
C2632 C2624 1.574 . S
C2632 H2627 0.949 . S
C2632 C2638 1.368 . S
C2633 C2617 1.349 . S
C2633 H2625 0.950 . S
C2633 C2631 1.327 . S
C2634 C2622 1.349 . S
C2634 H2628 0.950 . S
C2634 C2635 1.327 . S
C2635 H2629 0.950 . S
C2635 C2634 1.327 . S
C2635 C2639 1.429 . S
C2636 C2619 1.574 . S
C2636 H2630 0.949 . S
C2636 C2640 1.368 . S
C2637 C2618 1.429 . S
C2637 C2631 1.429 . S
C2637 C2638 1.523 . S
C2638 C2619 1.368 . S
C2638 C2632 1.368 . S
C2638 C2637 1.523 . S
C2639 C2623 1.429 . S
C2639 C2635 1.429 . S
C2639 C2640 1.523 . S
C2640 C2624 1.368 . S
C2640 C2636 1.368 . S
C2640 C2639 1.523 . S
H2641 C2616 0.950 . S
H2642 C2618 0.950 . S
H2643 C2619 0.949 . S
H2644 C2621 0.950 . S
H2645 C2623 0.950 . S
C2646 C2647 1.349 . S
C2646 C2648 1.327 . S
C2646 H2671 0.950 . S
C2647 C2646 1.349 . S
C2647 C2663 1.349 . S
C2648 C2646 1.327 . S
C2648 C2667 1.429 . S
C2648 H2672 0.950 . S
C2649 C2666 1.574 . S
C2649 C2668 1.368 . S
C2649 H2673 0.949 . S
H2650 C2654 0.949 . S
C2651 C2652 1.349 . S
C2651 C2653 1.327 . S
C2651 H2674 0.950 . S
C2652 C2651 1.349 . S
C2652 C2664 1.349 . S
C2653 C2651 1.327 . S
C2653 C2669 1.429 . S
C2653 H2675 0.950 . S
C2654 H2650 0.949 . S
C2654 C2662 1.574 . S
C2654 C2670 1.368 . S
H2655 C2663 0.950 . S
H2656 C2661 0.950 . S
H2657 C2662 0.949 . S
H2658 C2664 0.950 . S
H2659 C2665 0.950 . S
H2660 C2666 0.949 . S
C2661 H2656 0.950 . S
C2661 C2663 1.327 . S
C2661 C2667 1.429 . S
C2662 C2654 1.574 . S
C2662 H2657 0.949 . S
C2662 C2668 1.368 . S
C2663 C2647 1.349 . S
C2663 H2655 0.950 . S
C2663 C2661 1.327 . S
C2664 C2652 1.349 . S
C2664 H2658 0.950 . S
C2664 C2665 1.327 . S
C2665 H2659 0.950 . S
C2665 C2664 1.327 . S
C2665 C2669 1.429 . S
C2666 C2649 1.574 . S
C2666 H2660 0.949 . S
C2666 C2670 1.368 . S
C2667 C2648 1.429 . S
C2667 C2661 1.429 . S
C2667 C2668 1.523 . S
C2668 C2649 1.368 . S
C2668 C2662 1.368 . S
C2668 C2667 1.523 . S
C2669 C2653 1.429 . S
C2669 C2665 1.429 . S
C2669 C2670 1.523 . S
C2670 C2654 1.368 . S
C2670 C2666 1.368 . S
C2670 C2669 1.523 . S
H2671 C2646 0.950 . S
H2672 C2648 0.950 . S
H2673 C2649 0.949 . S
H2674 C2651 0.950 . S
H2675 C2653 0.950 . S
C2676 C2677 1.349 . S
C2676 C2678 1.327 . S
C2676 H2701 0.950 . S
C2677 C2676 1.349 . S
C2677 C2693 1.349 . S
C2678 C2676 1.327 . S
C2678 C2697 1.429 . S
C2678 H2702 0.950 . S
C2679 C2696 1.574 . S
C2679 C2698 1.368 . S
C2679 H2703 0.949 . S
H2680 C2684 0.949 . S
C2681 C2682 1.349 . S
C2681 C2683 1.327 . S
C2681 H2704 0.950 . S
C2682 C2681 1.349 . S
C2682 C2694 1.349 . S
C2683 C2681 1.327 . S
C2683 C2699 1.429 . S
C2683 H2705 0.950 . S
C2684 H2680 0.949 . S
C2684 C2692 1.574 . S
C2684 C2700 1.368 . S
H2685 C2693 0.950 . S
H2686 C2691 0.950 . S
H2687 C2692 0.949 . S
H2688 C2694 0.950 . S
H2689 C2695 0.950 . S
H2690 C2696 0.949 . S
C2691 H2686 0.950 . S
C2691 C2693 1.327 . S
C2691 C2697 1.429 . S
C2692 C2684 1.574 . S
C2692 H2687 0.949 . S
C2692 C2698 1.368 . S
C2693 C2677 1.349 . S
C2693 H2685 0.950 . S
C2693 C2691 1.327 . S
C2694 C2682 1.349 . S
C2694 H2688 0.950 . S
C2694 C2695 1.327 . S
C2695 H2689 0.950 . S
C2695 C2694 1.327 . S
C2695 C2699 1.429 . S
C2696 C2679 1.574 . S
C2696 H2690 0.949 . S
C2696 C2700 1.368 . S
C2697 C2678 1.429 . S
C2697 C2691 1.429 . S
C2697 C2698 1.523 . S
C2698 C2679 1.368 . S
C2698 C2692 1.368 . S
C2698 C2697 1.523 . S
C2699 C2683 1.429 . S
C2699 C2695 1.429 . S
C2699 C2700 1.523 . S
C2700 C2684 1.368 . S
C2700 C2696 1.368 . S
C2700 C2699 1.523 . S
H2701 C2676 0.950 . S
H2702 C2678 0.950 . S
H2703 C2679 0.949 . S
H2704 C2681 0.950 . S
H2705 C2683 0.950 . S
C2706 C2707 1.349 . S
C2706 C2708 1.327 . S
C2706 H2731 0.950 . S
C2707 C2706 1.349 . S
C2707 C2723 1.349 . S
C2708 C2706 1.327 . S
C2708 C2727 1.429 . S
C2708 H2732 0.950 . S
C2709 C2726 1.574 . S
C2709 C2728 1.368 . S
C2709 H2733 0.949 . S
H2710 C2714 0.949 . S
C2711 C2712 1.349 . S
C2711 C2713 1.327 . S
C2711 H2734 0.950 . S
C2712 C2711 1.349 . S
C2712 C2724 1.349 . S
C2713 C2711 1.327 . S
C2713 C2729 1.429 . S
C2713 H2735 0.950 . S
C2714 H2710 0.949 . S
C2714 C2722 1.574 . S
C2714 C2730 1.368 . S
H2715 C2723 0.950 . S
H2716 C2721 0.950 . S
H2717 C2722 0.949 . S
H2718 C2724 0.950 . S
H2719 C2725 0.950 . S
H2720 C2726 0.949 . S
C2721 H2716 0.950 . S
C2721 C2723 1.327 . S
C2721 C2727 1.429 . S
C2722 C2714 1.574 . S
C2722 H2717 0.949 . S
C2722 C2728 1.368 . S
C2723 C2707 1.349 . S
C2723 H2715 0.950 . S
C2723 C2721 1.327 . S
C2724 C2712 1.349 . S
C2724 H2718 0.950 . S
C2724 C2725 1.327 . S
C2725 H2719 0.950 . S
C2725 C2724 1.327 . S
C2725 C2729 1.429 . S
C2726 C2709 1.574 . S
C2726 H2720 0.949 . S
C2726 C2730 1.368 . S
C2727 C2708 1.429 . S
C2727 C2721 1.429 . S
C2727 C2728 1.523 . S
C2728 C2709 1.368 . S
C2728 C2722 1.368 . S
C2728 C2727 1.523 . S
C2729 C2713 1.429 . S
C2729 C2725 1.429 . S
C2729 C2730 1.523 . S
C2730 C2714 1.368 . S
C2730 C2726 1.368 . S
C2730 C2729 1.523 . S
H2731 C2706 0.950 . S
H2732 C2708 0.950 . S
H2733 C2709 0.949 . S
H2734 C2711 0.950 . S
H2735 C2713 0.950 . S
C2736 C2737 1.349 . S
C2736 C2738 1.352 . S
C2736 H2761 0.950 . S
C2737 C2736 1.349 . S
C2737 C2753 1.349 . S
C2738 C2736 1.352 . S
C2738 C2757 1.414 1_554 S
C2738 H2762 0.942 1_554 S
C2739 C2756 1.574 . S
C2739 C2758 1.368 . S
C2739 H2763 0.949 . S
H2740 C2744 0.949 . S
C2741 C2742 1.349 . S
C2741 C2743 1.327 . S
C2741 H2764 0.950 . S
C2742 C2741 1.349 . S
C2742 C2754 1.349 . S
C2743 C2741 1.327 . S
C2743 C2759 1.429 . S
C2743 H2765 0.950 . S
C2744 H2740 0.949 . S
C2744 C2752 1.574 . S
C2744 C2760 1.368 . S
H2745 C2753 0.950 . S
H2746 C2751 0.950 . S
H2747 C2752 0.949 . S
H2748 C2754 0.950 . S
H2749 C2755 0.950 . S
H2750 C2756 0.949 . S
C2751 H2746 0.950 . S
C2751 C2753 1.327 1_556 S
C2751 C2757 1.429 . S
C2752 C2744 1.574 . S
C2752 H2747 0.949 . S
C2752 C2758 1.368 . S
C2753 C2737 1.349 . S
C2753 H2745 0.950 . S
C2753 C2751 1.327 1_554 S
C2754 C2742 1.349 . S
C2754 H2748 0.950 . S
C2754 C2755 1.327 . S
C2755 H2749 0.950 . S
C2755 C2754 1.327 . S
C2755 C2759 1.429 . S
C2756 C2739 1.574 . S
C2756 H2750 0.949 . S
C2756 C2760 1.368 . S
C2757 C2738 1.414 1_556 S
C2757 C2751 1.429 . S
C2757 C2758 1.523 . S
C2758 C2739 1.368 . S
C2758 C2752 1.368 . S
C2758 C2757 1.523 . S
C2759 C2743 1.429 . S
C2759 C2755 1.429 . S
C2759 C2760 1.523 . S
C2760 C2744 1.368 . S
C2760 C2756 1.368 . S
C2760 C2759 1.523 . S
H2761 C2736 0.950 . S
H2762 C2738 0.942 1_556 S
H2763 C2739 0.949 . S
H2764 C2741 0.950 . S
H2765 C2743 0.950 . S
C2766 C2767 1.349 1_556 S
C2766 C2768 1.327 . S
C2766 H2791 0.950 . S
C2767 C2766 1.349 1_554 S
C2767 C2783 1.349 . S
C2768 C2766 1.327 . S
C2768 C2787 1.429 . S
C2768 H2792 0.950 . S
C2769 C2786 1.574 . S
C2769 C2788 1.368 . S
C2769 H2793 0.949 . S
H2770 C2774 0.949 . S
C2771 C2772 1.349 . S
C2771 C2773 1.327 . S
C2771 H2794 0.950 . S
C2772 C2771 1.349 . S
C2772 C2784 1.349 . S
C2773 C2771 1.327 . S
C2773 C2789 1.429 . S
C2773 H2795 0.950 . S
C2774 H2770 0.949 . S
C2774 C2782 1.574 . S
C2774 C2790 1.368 . S
H2775 C2783 0.950 . S
H2776 C2781 0.950 . S
H2777 C2782 0.949 . S
H2778 C2784 0.950 . S
H2779 C2785 0.950 . S
H2780 C2786 0.949 . S
C2781 H2776 0.950 . S
C2781 C2783 1.327 . S
C2781 C2787 1.429 1_554 S
C2782 C2774 1.574 . S
C2782 H2777 0.949 . S
C2782 C2788 1.368 . S
C2783 C2767 1.349 . S
C2783 H2775 0.950 . S
C2783 C2781 1.327 . S
C2784 C2772 1.349 . S
C2784 H2778 0.950 . S
C2784 C2785 1.327 . S
C2785 H2779 0.950 . S
C2785 C2784 1.327 . S
C2785 C2789 1.429 . S
C2786 C2769 1.574 . S
C2786 H2780 0.949 . S
C2786 C2790 1.368 . S
C2787 C2768 1.429 . S
C2787 C2781 1.429 1_556 S
C2787 C2788 1.523 . S
C2788 C2769 1.368 . S
C2788 C2782 1.368 . S
C2788 C2787 1.523 . S
C2789 C2773 1.429 . S
C2789 C2785 1.429 . S
C2789 C2790 1.523 . S
C2790 C2774 1.368 . S
C2790 C2786 1.368 . S
C2790 C2789 1.523 . S
H2791 C2766 0.950 . S
H2792 C2768 0.950 . S
H2793 C2769 0.949 . S
H2794 C2771 0.950 . S
H2795 C2773 0.950 . S
C2796 C2797 1.349 . S
C2796 C2798 1.327 . S
C2796 H2821 0.950 . S
C2797 C2796 1.349 . S
C2797 C2813 1.349 . S
C2798 C2796 1.327 . S
C2798 C2817 1.429 . S
C2798 H2822 0.950 . S
C2799 C2816 1.574 . S
C2799 C2818 1.368 . S
C2799 H2823 0.949 . S
H2800 C2804 0.949 . S
C2801 C2802 1.349 . S
C2801 C2803 1.327 . S
C2801 H2824 0.950 . S
C2802 C2801 1.349 . S
C2802 C2814 1.349 . S
C2803 C2801 1.327 . S
C2803 C2819 1.429 . S
C2803 H2825 0.950 1_556 S
C2804 H2800 0.949 . S
C2804 C2812 1.574 . S
C2804 C2820 1.368 . S
H2805 C2813 0.950 . S
H2806 C2811 0.950 . S
H2807 C2812 0.949 . S
H2808 C2814 0.950 . S
H2809 C2815 0.950 . S
H2810 C2816 0.949 . S
C2811 H2806 0.950 . S
C2811 C2813 1.327 . S
C2811 C2817 1.429 . S
C2812 C2804 1.574 . S
C2812 H2807 0.949 . S
C2812 C2818 1.368 1_556 S
C2813 C2797 1.349 . S
C2813 H2805 0.950 . S
C2813 C2811 1.327 . S
C2814 C2802 1.349 . S
C2814 H2808 0.950 . S
C2814 C2815 1.327 . S
C2815 H2809 0.950 . S
C2815 C2814 1.327 . S
C2815 C2819 1.429 . S
C2816 C2799 1.574 . S
C2816 H2810 0.949 . S
C2816 C2820 1.368 1_554 S
C2817 C2798 1.429 . S
C2817 C2811 1.429 . S
C2817 C2818 1.523 . S
C2818 C2799 1.368 . S
C2818 C2812 1.368 1_554 S
C2818 C2817 1.523 . S
C2819 C2803 1.429 . S
C2819 C2815 1.429 . S
C2819 C2820 1.523 . S
C2820 C2804 1.368 . S
C2820 C2816 1.368 1_556 S
C2820 C2819 1.523 . S
H2821 C2796 0.950 . S
H2822 C2798 0.950 . S
H2823 C2799 0.949 . S
H2824 C2801 0.950 . S
H2825 C2803 0.950 1_554 S
C2826 C2827 1.349 . S
C2826 C2828 1.327 1_554 S
C2826 H2851 0.942 1_554 S
C2827 C2826 1.349 . S
C2827 C2843 1.349 . S
C2828 C2826 1.327 1_556 S
C2828 C2847 1.429 . S
C2828 H2852 0.950 . S
C2829 C2846 1.574 . S
C2829 C2848 1.368 . S
C2829 H2853 0.949 1_556 S
H2830 C2834 0.949 . S
C2831 C2832 1.349 . S
C2831 C2833 1.327 . S
C2831 H2854 0.950 . S
C2832 C2831 1.349 . S
C2832 C2844 1.349 . S
C2833 C2831 1.327 . S
C2833 C2849 1.429 . S
C2833 H2855 0.950 . S
C2834 H2830 0.949 . S
C2834 C2842 1.574 . S
C2834 C2850 1.368 . S
H2835 C2843 0.950 . S
H2836 C2841 0.950 . S
H2837 C2842 0.949 . S
H2838 C2844 0.950 . S
H2839 C2845 0.950 . S
H2840 C2846 0.949 . S
C2841 H2836 0.950 . S
C2841 C2843 1.327 . S
C2841 C2847 1.429 1_554 S
C2842 C2834 1.574 . S
C2842 H2837 0.949 . S
C2842 C2848 1.368 . S
C2843 C2827 1.349 . S
C2843 H2835 0.950 . S
C2843 C2841 1.327 . S
C2844 C2832 1.349 . S
C2844 H2838 0.950 . S
C2844 C2845 1.327 . S
C2845 H2839 0.950 . S
C2845 C2844 1.327 . S
C2845 C2849 1.429 . S
C2846 C2829 1.574 . S
C2846 H2840 0.949 . S
C2846 C2850 1.368 . S
C2847 C2828 1.429 . S
C2847 C2841 1.429 1_556 S
C2847 C2848 1.523 . S
C2848 C2829 1.368 . S
C2848 C2842 1.368 . S
C2848 C2847 1.523 . S
C2849 C2833 1.429 . S
C2849 C2845 1.429 . S
C2849 C2850 1.523 . S
C2850 C2834 1.368 . S
C2850 C2846 1.368 . S
C2850 C2849 1.523 . S
H2851 C2826 0.942 1_556 S
H2852 C2828 0.950 . S
H2853 C2829 0.949 1_554 S
H2854 C2831 0.950 . S
H2855 C2833 0.950 . S
C2856 C2857 1.349 . S
C2856 C2858 1.327 . S
C2856 H2881 0.950 . S
C2857 C2856 1.349 . S
C2857 C2873 1.349 . S
C2858 C2856 1.327 . S
C2858 C2877 1.429 . S
C2858 H2882 0.950 . S
C2859 C2876 1.574 . S
C2859 C2878 1.368 . S
C2859 H2883 0.949 . S
H2860 C2864 0.949 . S
C2861 C2862 1.349 . S
C2861 C2863 1.327 . S
C2861 H2884 0.950 . S
C2862 C2861 1.349 . S
C2862 C2874 1.349 . S
C2863 C2861 1.327 . S
C2863 C2879 1.429 . S
C2863 H2885 0.950 . S
C2864 H2860 0.949 . S
C2864 C2872 1.574 . S
C2864 C2880 1.368 . S
H2865 C2873 0.950 . S
H2866 C2871 0.950 . S
H2867 C2872 0.949 . S
H2868 C2874 0.950 . S
H2869 C2875 0.950 . S
H2870 C2876 0.949 . S
C2871 H2866 0.950 . S
C2871 C2873 1.327 . S
C2871 C2877 1.429 . S
C2872 C2864 1.574 . S
C2872 H2867 0.949 . S
C2872 C2878 1.368 . S
C2873 C2857 1.349 . S
C2873 H2865 0.950 . S
C2873 C2871 1.327 . S
C2874 C2862 1.349 . S
C2874 H2868 0.950 . S
C2874 C2875 1.327 . S
C2875 H2869 0.950 . S
C2875 C2874 1.327 . S
C2875 C2879 1.429 . S
C2876 C2859 1.574 . S
C2876 H2870 0.949 . S
C2876 C2880 1.368 . S
C2877 C2858 1.429 . S
C2877 C2871 1.429 . S
C2877 C2878 1.523 . S
C2878 C2859 1.368 . S
C2878 C2872 1.368 . S
C2878 C2877 1.523 . S
C2879 C2863 1.429 . S
C2879 C2875 1.429 . S
C2879 C2880 1.523 . S
C2880 C2864 1.368 . S
C2880 C2876 1.368 . S
C2880 C2879 1.523 . S
H2881 C2856 0.950 . S
H2882 C2858 0.950 . S
H2883 C2859 0.949 . S
H2884 C2861 0.950 . S
H2885 C2863 0.950 . S
C2886 C2887 1.349 . S
C2886 C2888 1.367 . S
C2886 H2911 0.950 . S
C2887 C2886 1.349 . S
C2887 C2903 1.349 . S
C2888 C2886 1.367 . S
C2888 C2907 1.459 . S
C2888 H2912 0.880 1_554 S
C2889 C2906 1.574 . S
C2889 C2908 1.375 . S
C2889 H2913 0.949 . S
H2890 C2894 0.949 . S
C2891 C2892 1.349 . S
C2891 C2893 1.327 . S
C2891 H2914 0.950 . S
C2892 C2891 1.349 . S
C2892 C2904 1.349 . S
C2893 C2891 1.327 . S
C2893 C2909 1.429 . S
C2893 H2915 0.950 . S
C2894 H2890 0.949 . S
C2894 C2902 1.574 . S
C2894 C2910 1.368 . S
H2895 C2903 0.950 . S
H2896 C2901 0.950 . S
H2897 C2902 0.949 . S
H2898 C2904 0.950 . S
H2899 C2905 0.950 . S
H2900 C2906 0.949 . S
C2901 H2896 0.950 . S
C2901 C2903 1.327 . S
C2901 C2907 1.429 . S
C2902 C2894 1.574 . S
C2902 H2897 0.949 . S
C2902 C2908 1.357 1_556 S
C2903 C2887 1.349 . S
C2903 H2895 0.950 . S
C2903 C2901 1.327 . S
C2904 C2892 1.349 . S
C2904 H2898 0.950 . S
C2904 C2905 1.327 . S
C2905 H2899 0.950 . S
C2905 C2904 1.327 . S
C2905 C2909 1.429 . S
C2906 C2889 1.574 . S
C2906 H2900 0.949 . S
C2906 C2910 1.368 1_554 S
C2907 C2888 1.459 . S
C2907 C2901 1.429 . S
C2907 C2908 1.529 . S
C2908 C2889 1.375 . S
C2908 C2902 1.357 1_554 S
C2908 C2907 1.529 . S
C2909 C2893 1.429 . S
C2909 C2905 1.429 . S
C2909 C2910 1.523 . S
C2910 C2894 1.368 . S
C2910 C2906 1.368 1_556 S
C2910 C2909 1.523 . S
H2911 C2886 0.950 . S
H2912 C2888 0.880 1_556 S
H2913 C2889 0.949 . S
H2914 C2891 0.950 . S
H2915 C2893 0.950 . S
C2916 C2917 1.349 . S
C2916 C2918 1.327 . S
C2916 H2941 0.950 . S
C2917 C2916 1.349 . S
C2917 C2933 1.349 . S
C2918 C2916 1.327 . S
C2918 C2937 1.429 . S
C2918 H2942 0.950 . S
C2919 C2936 1.574 . S
C2919 C2938 1.368 . S
C2919 H2943 0.949 . S
H2920 C2924 0.949 . S
C2921 C2922 1.349 . S
C2921 C2923 1.327 . S
C2921 H2944 0.950 . S
C2922 C2921 1.349 . S
C2922 C2934 1.349 . S
C2923 C2921 1.327 . S
C2923 C2939 1.429 . S
C2923 H2945 0.950 . S
C2924 H2920 0.949 . S
C2924 C2932 1.574 . S
C2924 C2940 1.368 . S
H2925 C2933 0.950 . S
H2926 C2931 0.950 . S
H2927 C2932 0.949 . S
H2928 C2934 0.950 . S
H2929 C2935 0.950 . S
H2930 C2936 0.949 . S
C2931 H2926 0.950 . S
C2931 C2933 1.327 . S
C2931 C2937 1.429 . S
C2932 C2924 1.574 . S
C2932 H2927 0.949 . S
C2932 C2938 1.368 . S
C2933 C2917 1.349 . S
C2933 H2925 0.950 . S
C2933 C2931 1.327 . S
C2934 C2922 1.349 . S
C2934 H2928 0.950 . S
C2934 C2935 1.327 . S
C2935 H2929 0.950 . S
C2935 C2934 1.327 . S
C2935 C2939 1.429 . S
C2936 C2919 1.574 . S
C2936 H2930 0.949 . S
C2936 C2940 1.368 . S
C2937 C2918 1.429 . S
C2937 C2931 1.429 . S
C2937 C2938 1.523 . S
C2938 C2919 1.368 . S
C2938 C2932 1.368 . S
C2938 C2937 1.523 . S
C2939 C2923 1.429 . S
C2939 C2935 1.429 . S
C2939 C2940 1.523 . S
C2940 C2924 1.368 . S
C2940 C2936 1.368 . S
C2940 C2939 1.523 . S
H2941 C2916 0.950 . S
H2942 C2918 0.950 . S
H2943 C2919 0.949 . S
H2944 C2921 0.950 . S
H2945 C2923 0.950 . S
C2946 C2947 1.349 . S
C2946 C2948 1.327 . S
C2946 H2971 0.950 . S
C2947 C2946 1.349 . S
C2947 C2963 1.349 . S
C2948 C2946 1.327 . S
C2948 C2967 1.429 . S
C2948 H2972 0.950 . S
C2949 C2966 1.574 . S
C2949 C2968 1.368 . S
C2949 H2973 0.949 . S
H2950 C2954 0.949 . S
C2951 C2952 1.349 . S
C2951 C2953 1.327 . S
C2951 H2974 0.950 . S
C2952 C2951 1.349 . S
C2952 C2964 1.349 . S
C2953 C2951 1.327 . S
C2953 C2969 1.429 . S
C2953 H2975 0.950 . S
C2954 H2950 0.949 . S
C2954 C2962 1.574 . S
C2954 C2970 1.368 . S
H2955 C2963 0.950 . S
H2956 C2961 0.950 . S
H2957 C2962 0.949 . S
H2958 C2964 0.950 . S
H2959 C2965 0.950 . S
H2960 C2966 0.949 . S
C2961 H2956 0.950 . S
C2961 C2963 1.327 . S
C2961 C2967 1.429 . S
C2962 C2954 1.574 . S
C2962 H2957 0.949 . S
C2962 C2968 1.368 . S
C2963 C2947 1.349 . S
C2963 H2955 0.950 . S
C2963 C2961 1.327 . S
C2964 C2952 1.349 . S
C2964 H2958 0.950 . S
C2964 C2965 1.327 . S
C2965 H2959 0.950 . S
C2965 C2964 1.327 . S
C2965 C2969 1.429 . S
C2966 C2949 1.574 . S
C2966 H2960 0.949 . S
C2966 C2970 1.368 . S
C2967 C2948 1.429 . S
C2967 C2961 1.429 . S
C2967 C2968 1.523 . S
C2968 C2949 1.368 . S
C2968 C2962 1.368 . S
C2968 C2967 1.523 . S
C2969 C2953 1.429 . S
C2969 C2965 1.429 . S
C2969 C2970 1.523 . S
C2970 C2954 1.368 . S
C2970 C2966 1.368 . S
C2970 C2969 1.523 . S
H2971 C2946 0.950 . S
H2972 C2948 0.950 . S
H2973 C2949 0.949 . S
H2974 C2951 0.950 . S
H2975 C2953 0.950 . S
C2976 C2977 1.349 . S
C2976 C2978 1.327 . S
C2976 H3001 0.950 . S
C2977 C2976 1.349 . S
C2977 C2993 1.349 . S
C2978 C2976 1.327 . S
C2978 C2997 1.429 . S
C2978 H3002 0.950 . S
C2979 C2996 1.574 . S
C2979 C2998 1.368 . S
C2979 H3003 0.949 . S
H2980 C2984 0.949 . S
C2981 C2982 1.349 . S
C2981 C2983 1.327 . S
C2981 H3004 0.950 . S
C2982 C2981 1.349 . S
C2982 C2994 1.349 . S
C2983 C2981 1.327 . S
C2983 C2999 1.429 . S
C2983 H3005 0.950 . S
C2984 H2980 0.949 . S
C2984 C2992 1.574 . S
C2984 C3000 1.368 . S
H2985 C2993 0.950 . S
H2986 C2991 0.950 . S
H2987 C2992 0.949 . S
H2988 C2994 0.950 . S
H2989 C2995 0.950 . S
H2990 C2996 0.949 . S
C2991 H2986 0.950 . S
C2991 C2993 1.327 . S
C2991 C2997 1.429 . S
C2992 C2984 1.574 . S
C2992 H2987 0.949 . S
C2992 C2998 1.368 . S
C2993 C2977 1.349 . S
C2993 H2985 0.950 . S
C2993 C2991 1.327 . S
C2994 C2982 1.349 . S
C2994 H2988 0.950 . S
C2994 C2995 1.327 . S
C2995 H2989 0.950 . S
C2995 C2994 1.327 . S
C2995 C2999 1.429 . S
C2996 C2979 1.574 . S
C2996 H2990 0.949 . S
C2996 C3000 1.368 . S
C2997 C2978 1.429 . S
C2997 C2991 1.429 . S
C2997 C2998 1.523 . S
C2998 C2979 1.368 . S
C2998 C2992 1.368 . S
C2998 C2997 1.523 . S
C2999 C2983 1.429 . S
C2999 C2995 1.429 . S
C2999 C3000 1.523 . S
C3000 C2984 1.368 . S
C3000 C2996 1.368 . S
C3000 C2999 1.523 . S
H3001 C2976 0.950 . S
H3002 C2978 0.950 . S
H3003 C2979 0.949 . S
H3004 C2981 0.950 . S
H3005 C2983 0.950 . S
C3006 C3007 1.349 . S
C3006 C3008 1.327 . S
C3006 H3031 0.950 . S
C3007 C3006 1.349 . S
C3007 C3023 1.349 . S
C3008 C3006 1.327 . S
C3008 C3027 1.429 . S
C3008 H3032 0.950 . S
C3009 C3026 1.574 . S
C3009 C3028 1.368 . S
C3009 H3033 0.949 . S
H3010 C3014 0.949 . S
C3011 C3012 1.349 . S
C3011 C3013 1.327 . S
C3011 H3034 0.950 . S
C3012 C3011 1.349 . S
C3012 C3024 1.349 . S
C3013 C3011 1.327 . S
C3013 C3029 1.429 . S
C3013 H3035 0.950 . S
C3014 H3010 0.949 . S
C3014 C3022 1.574 . S
C3014 C3030 1.368 . S
H3015 C3023 0.950 . S
H3016 C3021 0.950 . S
H3017 C3022 0.949 . S
H3018 C3024 0.950 . S
H3019 C3025 0.950 . S
H3020 C3026 0.949 . S
C3021 H3016 0.950 . S
C3021 C3023 1.327 . S
C3021 C3027 1.429 . S
C3022 C3014 1.574 . S
C3022 H3017 0.949 . S
C3022 C3028 1.368 . S
C3023 C3007 1.349 . S
C3023 H3015 0.950 . S
C3023 C3021 1.327 . S
C3024 C3012 1.349 . S
C3024 H3018 0.950 . S
C3024 C3025 1.327 . S
C3025 H3019 0.950 . S
C3025 C3024 1.327 . S
C3025 C3029 1.429 . S
C3026 C3009 1.574 . S
C3026 H3020 0.949 . S
C3026 C3030 1.368 . S
C3027 C3008 1.429 . S
C3027 C3021 1.429 . S
C3027 C3028 1.523 . S
C3028 C3009 1.368 . S
C3028 C3022 1.368 . S
C3028 C3027 1.523 . S
C3029 C3013 1.429 . S
C3029 C3025 1.429 . S
C3029 C3030 1.523 . S
C3030 C3014 1.368 . S
C3030 C3026 1.368 . S
C3030 C3029 1.523 . S
H3031 C3006 0.950 . S
H3032 C3008 0.950 . S
H3033 C3009 0.949 . S
H3034 C3011 0.950 . S
H3035 C3013 0.950 . S
C3036 C3037 1.349 . S
C3036 C3038 1.327 . S
C3036 H3061 0.950 . S
C3037 C3036 1.349 . S
C3037 C3053 1.349 . S
C3038 C3036 1.327 . S
C3038 C3057 1.429 . S
C3038 H3062 0.950 . S
C3039 C3056 1.574 . S
C3039 C3058 1.368 . S
C3039 H3063 0.949 . S
H3040 C3044 0.949 . S
C3041 C3042 1.349 . S
C3041 C3043 1.327 . S
C3041 H3064 0.950 . S
C3042 C3041 1.349 . S
C3042 C3054 1.349 . S
C3043 C3041 1.327 . S
C3043 C3059 1.429 . S
C3043 H3065 0.950 . S
C3044 H3040 0.949 . S
C3044 C3052 1.574 . S
C3044 C3060 1.368 . S
H3045 C3053 0.950 1_565 S
H3046 C3051 0.950 . S
H3047 C3052 0.949 . S
H3048 C3054 0.950 . S
H3049 C3055 0.950 . S
H3050 C3056 0.949 . S
C3051 H3046 0.950 . S
C3051 C3053 1.327 . S
C3051 C3057 1.429 . S
C3052 C3044 1.574 . S
C3052 H3047 0.949 . S
C3052 C3058 1.368 . S
C3053 C3037 1.349 . S
C3053 H3045 0.950 1_545 S
C3053 C3051 1.327 . S
C3054 C3042 1.349 . S
C3054 H3048 0.950 . S
C3054 C3055 1.327 . S
C3055 H3049 0.950 . S
C3055 C3054 1.327 . S
C3055 C3059 1.429 . S
C3056 C3039 1.574 . S
C3056 H3050 0.949 . S
C3056 C3060 1.368 . S
C3057 C3038 1.429 . S
C3057 C3051 1.429 . S
C3057 C3058 1.523 . S
C3058 C3039 1.368 . S
C3058 C3052 1.368 . S
C3058 C3057 1.523 . S
C3059 C3043 1.429 . S
C3059 C3055 1.429 . S
C3059 C3060 1.523 . S
C3060 C3044 1.368 . S
C3060 C3056 1.368 . S
C3060 C3059 1.523 . S
H3061 C3036 0.950 . S
H3062 C3038 0.950 . S
H3063 C3039 0.949 . S
H3064 C3041 0.950 . S
H3065 C3043 0.950 . S
C3066 C3067 1.349 . S
C3066 C3068 1.327 1_455 S
C3066 H3091 0.950 . S
C3067 C3066 1.349 . S
C3067 C3083 1.349 . S
C3068 C3066 1.327 1_655 S
C3068 C3087 1.429 . S
C3068 H3092 0.950 . S
C3069 C3086 1.574 . S
C3069 C3088 1.368 . S
C3069 H3093 0.949 . S
H3070 C3074 0.949 . S
C3071 C3072 1.349 . S
C3071 C3073 1.327 . S
C3071 H3094 0.950 . S
C3072 C3071 1.349 . S
C3072 C3084 1.349 . S
C3073 C3071 1.327 . S
C3073 C3089 1.429 . S
C3073 H3095 0.950 . S
C3074 H3070 0.949 . S
C3074 C3082 1.574 . S
C3074 C3090 1.368 . S
H3075 C3083 0.950 . S
H3076 C3081 0.950 . S
H3077 C3082 0.949 . S
H3078 C3084 0.950 . S
H3079 C3085 0.950 . S
H3080 C3086 0.949 . S
C3081 H3076 0.950 . S
C3081 C3083 1.327 1_655 S
C3081 C3087 1.429 . S
C3082 C3074 1.574 . S
C3082 H3077 0.949 . S
C3082 C3088 1.368 . S
C3083 C3067 1.349 . S
C3083 H3075 0.950 . S
C3083 C3081 1.327 1_455 S
C3084 C3072 1.349 . S
C3084 H3078 0.950 . S
C3084 C3085 1.327 . S
C3085 H3079 0.950 . S
C3085 C3084 1.327 . S
C3085 C3089 1.429 . S
C3086 C3069 1.574 . S
C3086 H3080 0.949 . S
C3086 C3090 1.368 . S
C3087 C3068 1.429 . S
C3087 C3081 1.429 . S
C3087 C3088 1.523 . S
C3088 C3069 1.368 . S
C3088 C3082 1.368 . S
C3088 C3087 1.523 . S
C3089 C3073 1.429 . S
C3089 C3085 1.429 . S
C3089 C3090 1.523 . S
C3090 C3074 1.368 . S
C3090 C3086 1.368 . S
C3090 C3089 1.523 . S
H3091 C3066 0.950 . S
H3092 C3068 0.950 . S
H3093 C3069 0.949 . S
H3094 C3071 0.950 . S
H3095 C3073 0.950 . S
C3096 C3097 1.349 . S
C3096 C3098 1.327 . S
C3096 H3121 0.950 . S
C3097 C3096 1.349 . S
C3097 C3113 1.349 . S
C3098 C3096 1.327 . S
C3098 C3117 1.429 . S
C3098 H3122 0.950 . S
C3099 C3116 1.574 . S
C3099 C3118 1.368 . S
C3099 H3123 0.949 . S
H3100 C3104 0.949 . S
C3101 C3102 1.349 . S
C3101 C3103 1.327 . S
C3101 H3124 0.950 . S
C3102 C3101 1.349 . S
C3102 C3114 1.349 . S
C3103 C3101 1.327 . S
C3103 C3119 1.429 . S
C3103 H3125 0.950 . S
C3104 H3100 0.949 . S
C3104 C3112 1.574 . S
C3104 C3120 1.368 . S
H3105 C3113 0.950 . S
H3106 C3111 0.950 . S
H3107 C3112 0.949 . S
H3108 C3114 0.950 . S
H3109 C3115 0.950 . S
H3110 C3116 0.949 . S
C3111 H3106 0.950 . S
C3111 C3113 1.327 . S
C3111 C3117 1.429 . S
C3112 C3104 1.574 . S
C3112 H3107 0.949 . S
C3112 C3118 1.368 . S
C3113 C3097 1.349 . S
C3113 H3105 0.950 . S
C3113 C3111 1.327 . S
C3114 C3102 1.349 . S
C3114 H3108 0.950 . S
C3114 C3115 1.327 . S
C3115 H3109 0.950 . S
C3115 C3114 1.327 . S
C3115 C3119 1.429 . S
C3116 C3099 1.574 . S
C3116 H3110 0.949 . S
C3116 C3120 1.368 . S
C3117 C3098 1.429 . S
C3117 C3111 1.429 . S
C3117 C3118 1.523 . S
C3118 C3099 1.368 . S
C3118 C3112 1.368 . S
C3118 C3117 1.523 . S
C3119 C3103 1.429 . S
C3119 C3115 1.429 . S
C3119 C3120 1.523 . S
C3120 C3104 1.368 . S
C3120 C3116 1.368 . S
C3120 C3119 1.523 . S
H3121 C3096 0.950 . S
H3122 C3098 0.950 . S
H3123 C3099 0.949 . S
H3124 C3101 0.950 . S
H3125 C3103 0.950 . S
C3126 C3127 1.349 . S
C3126 C3128 1.327 . S
C3126 H3151 0.950 . S
C3127 C3126 1.349 . S
C3127 C3143 1.349 . S
C3128 C3126 1.327 . S
C3128 C3147 1.429 . S
C3128 H3152 0.950 . S
C3129 C3146 1.574 . S
C3129 C3148 1.368 . S
C3129 H3153 0.949 . S
H3130 C3134 0.949 . S
C3131 C3132 1.349 . S
C3131 C3133 1.327 . S
C3131 H3154 0.950 . S
C3132 C3131 1.349 . S
C3132 C3144 1.349 . S
C3133 C3131 1.327 . S
C3133 C3149 1.429 . S
C3133 H3155 0.950 . S
C3134 H3130 0.949 . S
C3134 C3142 1.574 . S
C3134 C3150 1.368 . S
H3135 C3143 0.950 . S
H3136 C3141 0.950 . S
H3137 C3142 0.949 . S
H3138 C3144 0.950 . S
H3139 C3145 0.950 . S
H3140 C3146 0.949 . S
C3141 H3136 0.950 . S
C3141 C3143 1.327 . S
C3141 C3147 1.429 . S
C3142 C3134 1.574 . S
C3142 H3137 0.949 . S
C3142 C3148 1.368 . S
C3143 C3127 1.349 . S
C3143 H3135 0.950 . S
C3143 C3141 1.327 . S
C3144 C3132 1.349 . S
C3144 H3138 0.950 . S
C3144 C3145 1.327 . S
C3145 H3139 0.950 . S
C3145 C3144 1.327 . S
C3145 C3149 1.429 . S
C3146 C3129 1.574 . S
C3146 H3140 0.949 . S
C3146 C3150 1.368 . S
C3147 C3128 1.429 . S
C3147 C3141 1.429 . S
C3147 C3148 1.523 . S
C3148 C3129 1.368 . S
C3148 C3142 1.368 . S
C3148 C3147 1.523 . S
C3149 C3133 1.429 . S
C3149 C3145 1.429 . S
C3149 C3150 1.523 . S
C3150 C3134 1.368 . S
C3150 C3146 1.368 . S
C3150 C3149 1.523 . S
H3151 C3126 0.950 . S
H3152 C3128 0.950 . S
H3153 C3129 0.949 . S
H3154 C3131 0.950 . S
H3155 C3133 0.950 . S
C3156 C3157 1.349 . S
C3156 C3158 1.327 . S
C3156 H3181 0.950 . S
C3157 C3156 1.349 . S
C3157 C3173 1.349 . S
C3158 C3156 1.327 . S
C3158 C3177 1.429 . S
C3158 H3182 0.950 . S
C3159 C3176 1.574 . S
C3159 C3178 1.368 . S
C3159 H3183 0.949 . S
H3160 C3164 0.949 . S
C3161 C3162 1.349 . S
C3161 C3163 1.327 . S
C3161 H3184 0.950 . S
C3162 C3161 1.349 . S
C3162 C3174 1.349 . S
C3163 C3161 1.327 . S
C3163 C3179 1.429 . S
C3163 H3185 0.950 . S
C3164 H3160 0.949 . S
C3164 C3172 1.574 . S
C3164 C3180 1.368 . S
H3165 C3173 0.950 . S
H3166 C3171 0.950 . S
H3167 C3172 0.949 . S
H3168 C3174 0.950 . S
H3169 C3175 0.950 . S
H3170 C3176 0.949 . S
C3171 H3166 0.950 . S
C3171 C3173 1.327 . S
C3171 C3177 1.429 . S
C3172 C3164 1.574 . S
C3172 H3167 0.949 . S
C3172 C3178 1.368 . S
C3173 C3157 1.349 . S
C3173 H3165 0.950 . S
C3173 C3171 1.327 . S
C3174 C3162 1.349 . S
C3174 H3168 0.950 . S
C3174 C3175 1.327 . S
C3175 H3169 0.950 . S
C3175 C3174 1.327 . S
C3175 C3179 1.429 . S
C3176 C3159 1.574 . S
C3176 H3170 0.949 . S
C3176 C3180 1.368 . S
C3177 C3158 1.429 . S
C3177 C3171 1.429 . S
C3177 C3178 1.523 . S
C3178 C3159 1.368 . S
C3178 C3172 1.368 . S
C3178 C3177 1.523 . S
C3179 C3163 1.429 . S
C3179 C3175 1.429 . S
C3179 C3180 1.523 . S
C3180 C3164 1.368 . S
C3180 C3176 1.368 . S
C3180 C3179 1.523 . S
H3181 C3156 0.950 . S
H3182 C3158 0.950 . S
H3183 C3159 0.949 . S
H3184 C3161 0.950 . S
H3185 C3163 0.950 . S
C3186 C3187 1.349 . S
C3186 C3188 1.327 . S
C3186 H3211 0.950 . S
C3187 C3186 1.349 . S
C3187 C3203 1.349 . S
C3188 C3186 1.327 . S
C3188 C3207 1.429 . S
C3188 H3212 0.950 . S
C3189 C3206 1.574 . S
C3189 C3208 1.368 . S
C3189 H3213 0.952 1_565 S
H3190 C3194 0.949 . S
C3191 C3192 1.347 1_545 S
C3191 C3193 1.327 . S
C3191 H3214 0.950 . S
C3192 C3191 1.347 1_565 S
C3192 C3204 1.383 . S
C3193 C3191 1.327 . S
C3193 C3209 1.429 1_545 S
C3193 H3215 0.950 . S
C3194 H3190 0.949 . S
C3194 C3202 1.574 . S
C3194 C3210 1.368 . S
H3195 C3203 0.950 . S
H3196 C3201 0.950 . S
H3197 C3202 0.949 . S
H3198 C3204 0.950 . S
H3199 C3205 0.950 . S
H3200 C3206 0.949 1_545 S
C3201 H3196 0.950 . S
C3201 C3203 1.327 . S
C3201 C3207 1.429 . S
C3202 C3194 1.574 . S
C3202 H3197 0.949 . S
C3202 C3208 1.368 . S
C3203 C3187 1.349 . S
C3203 H3195 0.950 . S
C3203 C3201 1.327 . S
C3204 C3192 1.383 . S
C3204 H3198 0.950 . S
C3204 C3205 1.327 . S
C3205 H3199 0.950 . S
C3205 C3204 1.327 . S
C3205 C3209 1.429 . S
C3206 C3189 1.574 . S
C3206 H3200 0.949 1_565 S
C3206 C3210 1.368 . S
C3207 C3188 1.429 . S
C3207 C3201 1.429 . S
C3207 C3208 1.523 . S
C3208 C3189 1.368 . S
C3208 C3202 1.368 . S
C3208 C3207 1.523 . S
C3209 C3193 1.429 1_565 S
C3209 C3205 1.429 . S
C3209 C3210 1.523 . S
C3210 C3194 1.368 . S
C3210 C3206 1.368 . S
C3210 C3209 1.523 . S
H3211 C3186 0.950 . S
H3212 C3188 0.950 . S
H3213 C3189 0.952 1_545 S
H3214 C3191 0.950 . S
H3215 C3193 0.950 . S
C3216 C3217 1.349 . S
C3216 C3218 1.327 . S
C3216 H3241 0.950 . S
C3217 C3216 1.349 . S
C3217 C3233 1.349 . S
C3218 C3216 1.327 . S
C3218 C3237 1.429 . S
C3218 H3242 0.950 . S
C3219 C3236 1.574 1_455 S
C3219 C3238 1.368 . S
C3219 H3243 0.949 1_455 S
H3220 C3224 0.949 . S
C3221 C3222 1.349 . S
C3221 C3223 1.327 . S
C3221 H3244 0.950 . S
C3222 C3221 1.349 . S
C3222 C3234 1.349 1_655 S
C3223 C3221 1.327 . S
C3223 C3239 1.429 1_655 S
C3223 H3245 0.950 . S
C3224 H3220 0.949 . S
C3224 C3232 1.574 . S
C3224 C3240 1.368 . S
H3225 C3233 0.950 . S
H3226 C3231 0.949 . S
H3227 C3232 0.949 . S
H3228 C3234 0.950 . S
H3229 C3235 0.950 . S
H3230 C3236 0.949 . S
C3231 H3226 0.949 . S
C3231 C3233 1.327 . S
C3231 C3237 1.429 . S
C3232 C3224 1.574 . S
C3232 H3227 0.949 . S
C3232 C3238 1.368 . S
C3233 C3217 1.349 . S
C3233 H3225 0.950 . S
C3233 C3231 1.327 . S
C3234 C3222 1.349 1_455 S
C3234 H3228 0.950 . S
C3234 C3235 1.327 . S
C3235 H3229 0.950 . S
C3235 C3234 1.327 . S
C3235 C3239 1.429 . S
C3236 C3219 1.574 1_655 S
C3236 H3230 0.949 . S
C3236 C3240 1.368 1_655 S
C3237 C3218 1.429 . S
C3237 C3231 1.429 . S
C3237 C3238 1.523 . S
C3238 C3219 1.368 . S
C3238 C3232 1.368 . S
C3238 C3237 1.523 . S
C3239 C3223 1.429 1_455 S
C3239 C3235 1.429 . S
C3239 C3240 1.523 . S
C3240 C3224 1.368 . S
C3240 C3236 1.368 1_455 S
C3240 C3239 1.523 . S
H3241 C3216 0.950 . S
H3242 C3218 0.950 . S
H3243 C3219 0.949 1_655 S
H3244 C3221 0.950 . S
H3245 C3223 0.950 . S
C3246 C3247 1.349 . S
C3246 C3248 1.327 . S
C3246 H3271 0.950 . S
C3247 C3246 1.349 . S
C3247 C3263 1.349 . S
C3248 C3246 1.327 . S
C3248 C3267 1.429 . S
C3248 H3272 0.950 . S
C3249 C3266 1.574 . S
C3249 C3268 1.368 . S
C3249 H3273 0.949 . S
H3250 C3254 0.949 . S
C3251 C3252 1.349 . S
C3251 C3253 1.327 . S
C3251 H3274 0.950 . S
C3252 C3251 1.349 . S
C3252 C3264 1.349 . S
C3253 C3251 1.327 . S
C3253 C3269 1.429 . S
C3253 H3275 0.950 . S
C3254 H3250 0.949 . S
C3254 C3262 1.574 . S
C3254 C3270 1.368 . S
H3255 C3263 0.950 . S
H3256 C3261 0.950 . S
H3257 C3262 0.949 . S
H3258 C3264 0.950 . S
H3259 C3265 0.950 . S
H3260 C3266 0.949 . S
C3261 H3256 0.950 . S
C3261 C3263 1.327 . S
C3261 C3267 1.429 . S
C3262 C3254 1.574 . S
C3262 H3257 0.949 . S
C3262 C3268 1.368 . S
C3263 C3247 1.349 . S
C3263 H3255 0.950 . S
C3263 C3261 1.327 . S
C3264 C3252 1.349 . S
C3264 H3258 0.950 . S
C3264 C3265 1.327 . S
C3265 H3259 0.950 . S
C3265 C3264 1.327 . S
C3265 C3269 1.429 . S
C3266 C3249 1.574 . S
C3266 H3260 0.949 . S
C3266 C3270 1.368 . S
C3267 C3248 1.429 . S
C3267 C3261 1.429 . S
C3267 C3268 1.523 . S
C3268 C3249 1.368 . S
C3268 C3262 1.368 . S
C3268 C3267 1.523 . S
C3269 C3253 1.429 . S
C3269 C3265 1.429 . S
C3269 C3270 1.523 . S
C3270 C3254 1.368 . S
C3270 C3266 1.368 . S
C3270 C3269 1.523 . S
H3271 C3246 0.950 . S
H3272 C3248 0.950 . S
H3273 C3249 0.949 . S
H3274 C3251 0.950 . S
H3275 C3253 0.950 . S
C3276 C3277 1.349 . S
C3276 C3278 1.327 . S
C3276 H3301 0.950 . S
C3277 C3276 1.349 . S
C3277 C3293 1.349 . S
C3278 C3276 1.327 . S
C3278 C3297 1.429 . S
C3278 H3302 0.950 . S
C3279 C3296 1.574 . S
C3279 C3298 1.368 . S
C3279 H3303 0.949 . S
H3280 C3284 0.949 . S
C3281 C3282 1.349 . S
C3281 C3283 1.327 . S
C3281 H3304 0.950 . S
C3282 C3281 1.349 . S
C3282 C3294 1.349 . S
C3283 C3281 1.327 . S
C3283 C3299 1.429 . S
C3283 H3305 0.950 . S
C3284 H3280 0.949 . S
C3284 C3292 1.574 . S
C3284 C3300 1.368 . S
H3285 C3293 0.950 . S
H3286 C3291 0.950 . S
H3287 C3292 0.949 . S
H3288 C3294 0.950 . S
H3289 C3295 0.950 . S
H3290 C3296 0.949 . S
C3291 H3286 0.950 . S
C3291 C3293 1.327 . S
C3291 C3297 1.429 . S
C3292 C3284 1.574 . S
C3292 H3287 0.949 . S
C3292 C3298 1.368 . S
C3293 C3277 1.349 . S
C3293 H3285 0.950 . S
C3293 C3291 1.327 . S
C3294 C3282 1.349 . S
C3294 H3288 0.950 . S
C3294 C3295 1.327 . S
C3295 H3289 0.950 . S
C3295 C3294 1.327 . S
C3295 C3299 1.429 . S
C3296 C3279 1.574 . S
C3296 H3290 0.949 . S
C3296 C3300 1.368 . S
C3297 C3278 1.429 . S
C3297 C3291 1.429 . S
C3297 C3298 1.523 . S
C3298 C3279 1.368 . S
C3298 C3292 1.368 . S
C3298 C3297 1.523 . S
C3299 C3283 1.429 . S
C3299 C3295 1.429 . S
C3299 C3300 1.523 . S
C3300 C3284 1.368 . S
C3300 C3296 1.368 . S
C3300 C3299 1.523 . S
H3301 C3276 0.950 . S
H3302 C3278 0.950 . S
H3303 C3279 0.949 . S
H3304 C3281 0.950 . S
H3305 C3283 0.950 . S
C3306 C3307 1.349 . S
C3306 C3308 1.327 . S
C3306 H3331 0.950 . S
C3307 C3306 1.349 . S
C3307 C3323 1.349 . S
C3308 C3306 1.327 . S
C3308 C3327 1.429 . S
C3308 H3332 0.950 . S
C3309 C3326 1.574 . S
C3309 C3328 1.368 . S
C3309 H3333 0.949 . S
H3310 C3314 0.949 . S
C3311 C3312 1.349 . S
C3311 C3313 1.327 . S
C3311 H3334 0.950 . S
C3312 C3311 1.349 . S
C3312 C3324 1.349 . S
C3313 C3311 1.327 . S
C3313 C3329 1.429 . S
C3313 H3335 0.950 . S
C3314 H3310 0.949 . S
C3314 C3322 1.574 . S
C3314 C3330 1.368 . S
H3315 C3323 0.950 . S
H3316 C3321 0.950 . S
H3317 C3322 0.949 . S
H3318 C3324 0.950 . S
H3319 C3325 0.950 . S
H3320 C3326 0.949 . S
C3321 H3316 0.950 . S
C3321 C3323 1.327 . S
C3321 C3327 1.429 . S
C3322 C3314 1.574 . S
C3322 H3317 0.949 . S
C3322 C3328 1.368 . S
C3323 C3307 1.349 . S
C3323 H3315 0.950 . S
C3323 C3321 1.327 . S
C3324 C3312 1.349 . S
C3324 H3318 0.950 . S
C3324 C3325 1.327 . S
C3325 H3319 0.950 . S
C3325 C3324 1.327 . S
C3325 C3329 1.429 . S
C3326 C3309 1.574 . S
C3326 H3320 0.949 . S
C3326 C3330 1.368 . S
C3327 C3308 1.429 . S
C3327 C3321 1.429 . S
C3327 C3328 1.523 . S
C3328 C3309 1.368 . S
C3328 C3322 1.368 . S
C3328 C3327 1.523 . S
C3329 C3313 1.429 . S
C3329 C3325 1.429 . S
C3329 C3330 1.523 . S
C3330 C3314 1.368 . S
C3330 C3326 1.368 . S
C3330 C3329 1.523 . S
H3331 C3306 0.950 . S
H3332 C3308 0.950 . S
H3333 C3309 0.949 . S
H3334 C3311 0.950 . S
H3335 C3313 0.950 . S
C3336 C3337 1.349 . S
C3336 C3338 1.327 . S
C3336 H3361 0.950 . S
C3337 C3336 1.349 . S
C3337 C3353 1.349 . S
C3338 C3336 1.327 . S
C3338 C3357 1.429 . S
C3338 H3362 0.950 . S
C3339 C3356 1.574 . S
C3339 C3358 1.368 . S
C3339 H3363 0.949 . S
H3340 C3344 0.949 . S
C3341 C3342 1.349 . S
C3341 C3343 1.327 . S
C3341 H3364 0.950 . S
C3342 C3341 1.349 . S
C3342 C3354 1.349 . S
C3343 C3341 1.327 . S
C3343 C3359 1.429 . S
C3343 H3365 0.950 . S
C3344 H3340 0.949 . S
C3344 C3352 1.574 . S
C3344 C3360 1.368 . S
H3345 C3353 0.950 . S
H3346 C3351 0.950 . S
H3347 C3352 0.949 . S
H3348 C3354 0.950 . S
H3349 C3355 0.950 . S
H3350 C3356 0.949 . S
C3351 H3346 0.950 . S
C3351 C3353 1.327 . S
C3351 C3357 1.429 . S
C3352 C3344 1.574 . S
C3352 H3347 0.949 . S
C3352 C3358 1.368 . S
C3353 C3337 1.349 . S
C3353 H3345 0.950 . S
C3353 C3351 1.327 . S
C3354 C3342 1.349 . S
C3354 H3348 0.950 . S
C3354 C3355 1.327 . S
C3355 H3349 0.950 . S
C3355 C3354 1.327 . S
C3355 C3359 1.429 . S
C3356 C3339 1.574 . S
C3356 H3350 0.949 . S
C3356 C3360 1.368 . S
C3357 C3338 1.429 . S
C3357 C3351 1.429 . S
C3357 C3358 1.523 . S
C3358 C3339 1.368 . S
C3358 C3352 1.368 . S
C3358 C3357 1.523 . S
C3359 C3343 1.429 . S
C3359 C3355 1.429 . S
C3359 C3360 1.523 . S
C3360 C3344 1.368 . S
C3360 C3356 1.368 . S
C3360 C3359 1.523 . S
H3361 C3336 0.950 . S
H3362 C3338 0.950 . S
H3363 C3339 0.949 . S
H3364 C3341 0.950 . S
H3365 C3343 0.950 . S
C3366 C3367 1.349 . S
C3366 C3368 1.327 . S
C3366 H3391 0.950 . S
C3367 C3366 1.349 . S
C3367 C3383 1.349 . S
C3368 C3366 1.327 . S
C3368 C3387 1.429 . S
C3368 H3392 0.950 . S
C3369 C3386 1.574 . S
C3369 C3388 1.368 . S
C3369 H3393 0.949 . S
H3370 C3374 0.949 . S
C3371 C3372 1.349 . S
C3371 C3373 1.327 . S
C3371 H3394 0.950 . S
C3372 C3371 1.349 . S
C3372 C3384 1.349 . S
C3373 C3371 1.327 . S
C3373 C3389 1.429 . S
C3373 H3395 0.950 . S
C3374 H3370 0.949 . S
C3374 C3382 1.574 . S
C3374 C3390 1.368 . S
H3375 C3383 0.950 . S
H3376 C3381 0.950 . S
H3377 C3382 0.949 . S
H3378 C3384 0.950 1_565 S
H3379 C3385 0.920 1_565 S
H3380 C3386 0.949 . S
C3381 H3376 0.950 . S
C3381 C3383 1.327 . S
C3381 C3387 1.429 . S
C3382 C3374 1.574 . S
C3382 H3377 0.949 . S
C3382 C3388 1.368 . S
C3383 C3367 1.349 . S
C3383 H3375 0.950 . S
C3383 C3381 1.327 . S
C3384 C3372 1.349 . S
C3384 H3378 0.950 1_545 S
C3384 C3385 1.327 . S
C3385 H3379 0.920 1_545 S
C3385 C3384 1.327 . S
C3385 C3389 1.429 . S
C3386 C3369 1.574 . S
C3386 H3380 0.949 . S
C3386 C3390 1.368 . S
C3387 C3368 1.429 . S
C3387 C3381 1.429 . S
C3387 C3388 1.523 . S
C3388 C3369 1.368 . S
C3388 C3382 1.368 . S
C3388 C3387 1.523 . S
C3389 C3373 1.429 . S
C3389 C3385 1.429 . S
C3389 C3390 1.523 . S
C3390 C3374 1.368 . S
C3390 C3386 1.368 . S
C3390 C3389 1.523 . S
H3391 C3366 0.950 . S
H3392 C3368 0.950 . S
H3393 C3369 0.949 . S
H3394 C3371 0.950 . S
H3395 C3373 0.950 . S
C3396 C3397 1.349 . S
C3396 C3398 1.327 . S
C3396 H3421 0.950 . S
C3397 C3396 1.349 . S
C3397 C3413 1.349 . S
C3398 C3396 1.327 . S
C3398 C3417 1.429 . S
C3398 H3422 0.950 . S
C3399 C3416 1.574 . S
C3399 C3418 1.368 . S
C3399 H3423 0.949 . S
H3400 C3404 0.949 . S
C3401 C3402 1.349 . S
C3401 C3403 1.327 . S
C3401 H3424 0.950 . S
C3402 C3401 1.349 . S
C3402 C3414 1.349 . S
C3403 C3401 1.327 . S
C3403 C3419 1.429 . S
C3403 H3425 0.950 . S
C3404 H3400 0.949 . S
C3404 C3412 1.574 . S
C3404 C3420 1.368 . S
H3405 C3413 0.950 . S
H3406 C3411 0.950 . S
H3407 C3412 0.949 . S
H3408 C3414 0.950 . S
H3409 C3415 0.950 . S
H3410 C3416 0.949 . S
C3411 H3406 0.950 . S
C3411 C3413 1.327 . S
C3411 C3417 1.429 . S
C3412 C3404 1.574 . S
C3412 H3407 0.949 . S
C3412 C3418 1.368 . S
C3413 C3397 1.349 . S
C3413 H3405 0.950 . S
C3413 C3411 1.327 . S
C3414 C3402 1.349 . S
C3414 H3408 0.950 . S
C3414 C3415 1.327 . S
C3415 H3409 0.950 . S
C3415 C3414 1.327 . S
C3415 C3419 1.429 . S
C3416 C3399 1.574 . S
C3416 H3410 0.949 . S
C3416 C3420 1.368 . S
C3417 C3398 1.429 . S
C3417 C3411 1.429 . S
C3417 C3418 1.523 . S
C3418 C3399 1.368 . S
C3418 C3412 1.368 . S
C3418 C3417 1.523 . S
C3419 C3403 1.429 . S
C3419 C3415 1.429 . S
C3419 C3420 1.523 . S
C3420 C3404 1.368 . S
C3420 C3416 1.368 . S
C3420 C3419 1.523 . S
H3421 C3396 0.950 . S
H3422 C3398 0.950 . S
H3423 C3399 0.949 . S
H3424 C3401 0.950 . S
H3425 C3403 0.950 . S
C3426 C3427 1.349 . S
C3426 C3428 1.327 . S
C3426 H3451 0.950 . S
C3427 C3426 1.349 . S
C3427 C3443 1.349 . S
C3428 C3426 1.327 . S
C3428 C3447 1.429 . S
C3428 H3452 0.950 . S
C3429 C3446 1.574 . S
C3429 C3448 1.368 . S
C3429 H3453 0.949 . S
H3430 C3434 0.949 . S
C3431 C3432 1.349 . S
C3431 C3433 1.327 . S
C3431 H3454 0.950 . S
C3432 C3431 1.349 . S
C3432 C3444 1.349 . S
C3433 C3431 1.327 . S
C3433 C3449 1.429 . S
C3433 H3455 0.950 . S
C3434 H3430 0.949 . S
C3434 C3442 1.574 . S
C3434 C3450 1.368 . S
H3435 C3443 0.950 . S
H3436 C3441 0.950 . S
H3437 C3442 0.949 . S
H3438 C3444 0.950 . S
H3439 C3445 0.950 . S
H3440 C3446 0.949 . S
C3441 H3436 0.950 . S
C3441 C3443 1.327 . S
C3441 C3447 1.429 . S
C3442 C3434 1.574 . S
C3442 H3437 0.949 . S
C3442 C3448 1.368 . S
C3443 C3427 1.349 . S
C3443 H3435 0.950 . S
C3443 C3441 1.327 . S
C3444 C3432 1.349 . S
C3444 H3438 0.950 . S
C3444 C3445 1.327 . S
C3445 H3439 0.950 . S
C3445 C3444 1.327 . S
C3445 C3449 1.429 . S
C3446 C3429 1.574 . S
C3446 H3440 0.949 . S
C3446 C3450 1.368 . S
C3447 C3428 1.429 . S
C3447 C3441 1.429 . S
C3447 C3448 1.523 . S
C3448 C3429 1.368 . S
C3448 C3442 1.368 . S
C3448 C3447 1.523 . S
C3449 C3433 1.429 . S
C3449 C3445 1.429 . S
C3449 C3450 1.523 . S
C3450 C3434 1.368 . S
C3450 C3446 1.368 . S
C3450 C3449 1.523 . S
H3451 C3426 0.950 . S
H3452 C3428 0.950 . S
H3453 C3429 0.949 . S
H3454 C3431 0.950 . S
H3455 C3433 0.950 . S
C3456 C3457 1.349 . S
C3456 C3458 1.327 . S
C3456 H3481 0.950 . S
C3457 C3456 1.349 . S
C3457 C3473 1.349 . S
C3458 C3456 1.327 . S
C3458 C3477 1.429 . S
C3458 H3482 0.950 . S
C3459 C3476 1.574 . S
C3459 C3478 1.368 . S
C3459 H3483 0.949 . S
H3460 C3464 0.949 . S
C3461 C3462 1.349 . S
C3461 C3463 1.327 . S
C3461 H3484 0.950 . S
C3462 C3461 1.349 . S
C3462 C3474 1.349 . S
C3463 C3461 1.327 . S
C3463 C3479 1.429 . S
C3463 H3485 0.950 . S
C3464 H3460 0.949 . S
C3464 C3472 1.574 . S
C3464 C3480 1.368 . S
H3465 C3473 0.950 . S
H3466 C3471 0.950 . S
H3467 C3472 0.949 . S
H3468 C3474 0.950 . S
H3469 C3475 0.950 . S
H3470 C3476 0.949 . S
C3471 H3466 0.950 . S
C3471 C3473 1.327 . S
C3471 C3477 1.429 . S
C3472 C3464 1.574 . S
C3472 H3467 0.949 . S
C3472 C3478 1.368 . S
C3473 C3457 1.349 . S
C3473 H3465 0.950 . S
C3473 C3471 1.327 . S
C3474 C3462 1.349 . S
C3474 H3468 0.950 . S
C3474 C3475 1.327 . S
C3475 H3469 0.950 . S
C3475 C3474 1.327 . S
C3475 C3479 1.429 . S
C3476 C3459 1.574 . S
C3476 H3470 0.949 . S
C3476 C3480 1.368 . S
C3477 C3458 1.429 . S
C3477 C3471 1.429 . S
C3477 C3478 1.523 . S
C3478 C3459 1.368 . S
C3478 C3472 1.368 . S
C3478 C3477 1.523 . S
C3479 C3463 1.429 . S
C3479 C3475 1.429 . S
C3479 C3480 1.523 . S
C3480 C3464 1.368 . S
C3480 C3476 1.368 . S
C3480 C3479 1.523 . S
H3481 C3456 0.950 . S
H3482 C3458 0.950 . S
H3483 C3459 0.949 . S
H3484 C3461 0.950 . S
H3485 C3463 0.950 . S
C3486 C3487 1.349 . S
C3486 C3488 1.327 . S
C3486 H3511 0.950 . S
C3487 C3486 1.349 . S
C3487 C3503 1.349 . S
C3488 C3486 1.327 . S
C3488 C3507 1.429 . S
C3488 H3512 0.950 . S
C3489 C3506 1.574 . S
C3489 C3508 1.368 . S
C3489 H3513 0.949 . S
H3490 C3494 0.949 . S
C3491 C3492 1.349 . S
C3491 C3493 1.327 . S
C3491 H3514 0.950 . S
C3492 C3491 1.349 . S
C3492 C3504 1.349 . S
C3493 C3491 1.327 . S
C3493 C3509 1.429 . S
C3493 H3515 0.950 . S
C3494 H3490 0.949 . S
C3494 C3502 1.574 . S
C3494 C3510 1.368 . S
H3495 C3503 0.950 . S
H3496 C3501 0.950 . S
H3497 C3502 0.949 . S
H3498 C3504 0.950 . S
H3499 C3505 0.950 . S
H3500 C3506 0.949 . S
C3501 H3496 0.950 . S
C3501 C3503 1.327 . S
C3501 C3507 1.429 . S
C3502 C3494 1.574 . S
C3502 H3497 0.949 . S
C3502 C3508 1.368 . S
C3503 C3487 1.349 . S
C3503 H3495 0.950 . S
C3503 C3501 1.327 . S
C3504 C3492 1.349 . S
C3504 H3498 0.950 . S
C3504 C3505 1.327 . S
C3505 H3499 0.950 . S
C3505 C3504 1.327 . S
C3505 C3509 1.429 . S
C3506 C3489 1.574 . S
C3506 H3500 0.949 . S
C3506 C3510 1.368 . S
C3507 C3488 1.429 . S
C3507 C3501 1.429 . S
C3507 C3508 1.523 . S
C3508 C3489 1.368 . S
C3508 C3502 1.368 . S
C3508 C3507 1.523 . S
C3509 C3493 1.429 . S
C3509 C3505 1.429 . S
C3509 C3510 1.523 . S
C3510 C3494 1.368 . S
C3510 C3506 1.368 . S
C3510 C3509 1.523 . S
H3511 C3486 0.950 . S
H3512 C3488 0.950 . S
H3513 C3489 0.949 . S
H3514 C3491 0.950 . S
H3515 C3493 0.950 . S
C3516 C3517 1.349 . S
C3516 C3518 1.327 . S
C3516 H3541 0.950 . S
C3517 C3516 1.349 . S
C3517 C3533 1.349 . S
C3518 C3516 1.327 . S
C3518 C3537 1.429 . S
C3518 H3542 0.950 . S
C3519 C3536 1.574 . S
C3519 C3538 1.368 . S
C3519 H3543 0.949 . S
H3520 C3524 0.949 . S
C3521 C3522 1.349 . S
C3521 C3523 1.327 . S
C3521 H3544 0.950 . S
C3522 C3521 1.349 . S
C3522 C3534 1.349 . S
C3523 C3521 1.327 . S
C3523 C3539 1.429 . S
C3523 H3545 0.950 . S
C3524 H3520 0.949 . S
C3524 C3532 1.574 . S
C3524 C3540 1.368 . S
H3525 C3533 0.950 . S
H3526 C3531 0.950 . S
H3527 C3532 0.949 . S
H3528 C3534 0.950 . S
H3529 C3535 0.950 . S
H3530 C3536 0.949 . S
C3531 H3526 0.950 . S
C3531 C3533 1.327 . S
C3531 C3537 1.429 . S
C3532 C3524 1.574 . S
C3532 H3527 0.949 . S
C3532 C3538 1.368 . S
C3533 C3517 1.349 . S
C3533 H3525 0.950 . S
C3533 C3531 1.327 . S
C3534 C3522 1.349 . S
C3534 H3528 0.950 . S
C3534 C3535 1.327 . S
C3535 H3529 0.950 . S
C3535 C3534 1.327 . S
C3535 C3539 1.429 . S
C3536 C3519 1.574 . S
C3536 H3530 0.949 . S
C3536 C3540 1.368 . S
C3537 C3518 1.429 . S
C3537 C3531 1.429 . S
C3537 C3538 1.523 . S
C3538 C3519 1.368 . S
C3538 C3532 1.368 . S
C3538 C3537 1.523 . S
C3539 C3523 1.429 . S
C3539 C3535 1.429 . S
C3539 C3540 1.523 . S
C3540 C3524 1.368 . S
C3540 C3536 1.368 . S
C3540 C3539 1.523 . S
H3541 C3516 0.950 . S
H3542 C3518 0.950 . S
H3543 C3519 0.949 . S
H3544 C3521 0.950 . S
H3545 C3523 0.950 . S
C3546 C3547 1.349 . S
C3546 C3548 1.327 . S
C3546 H3571 0.950 . S
C3547 C3546 1.349 . S
C3547 C3563 1.349 . S
C3548 C3546 1.327 . S
C3548 C3567 1.429 . S
C3548 H3572 0.950 . S
C3549 C3566 1.574 . S
C3549 C3568 1.368 . S
C3549 H3573 0.949 . S
H3550 C3554 0.949 . S
C3551 C3552 1.349 . S
C3551 C3553 1.327 . S
C3551 H3574 0.950 . S
C3552 C3551 1.349 . S
C3552 C3564 1.349 . S
C3553 C3551 1.327 . S
C3553 C3569 1.429 . S
C3553 H3575 0.950 . S
C3554 H3550 0.949 . S
C3554 C3562 1.574 . S
C3554 C3570 1.368 . S
H3555 C3563 0.950 . S
H3556 C3561 0.950 . S
H3557 C3562 0.949 . S
H3558 C3564 0.950 . S
H3559 C3565 0.950 . S
H3560 C3566 0.949 . S
C3561 H3556 0.950 . S
C3561 C3563 1.327 . S
C3561 C3567 1.429 . S
C3562 C3554 1.574 . S
C3562 H3557 0.949 . S
C3562 C3568 1.368 . S
C3563 C3547 1.349 . S
C3563 H3555 0.950 . S
C3563 C3561 1.327 . S
C3564 C3552 1.349 . S
C3564 H3558 0.950 . S
C3564 C3565 1.327 . S
C3565 H3559 0.950 . S
C3565 C3564 1.327 . S
C3565 C3569 1.429 . S
C3566 C3549 1.574 . S
C3566 H3560 0.949 . S
C3566 C3570 1.368 . S
C3567 C3548 1.429 . S
C3567 C3561 1.429 . S
C3567 C3568 1.523 . S
C3568 C3549 1.368 . S
C3568 C3562 1.368 . S
C3568 C3567 1.523 . S
C3569 C3553 1.429 . S
C3569 C3565 1.429 . S
C3569 C3570 1.523 . S
C3570 C3554 1.368 . S
C3570 C3566 1.368 . S
C3570 C3569 1.523 . S
H3571 C3546 0.950 . S
H3572 C3548 0.950 . S
H3573 C3549 0.949 . S
H3574 C3551 0.950 . S
H3575 C3553 0.950 . S
C3576 C3577 1.349 . S
C3576 C3578 1.327 . S
C3576 H3601 0.950 1_565 S
C3577 C3576 1.349 . S
C3577 C3593 1.349 . S
C3578 C3576 1.327 . S
C3578 C3597 1.429 . S
C3578 H3602 0.950 . S
C3579 C3596 1.574 . S
C3579 C3598 1.368 . S
C3579 H3603 0.949 . S
H3580 C3584 0.949 . S
C3581 C3582 1.349 . S
C3581 C3583 1.327 . S
C3581 H3604 0.950 . S
C3582 C3581 1.349 . S
C3582 C3594 1.349 . S
C3583 C3581 1.327 . S
C3583 C3599 1.429 . S
C3583 H3605 0.950 . S
C3584 H3580 0.949 . S
C3584 C3592 1.574 . S
C3584 C3600 1.368 . S
H3585 C3593 0.950 . S
H3586 C3591 0.950 . S
H3587 C3592 0.949 . S
H3588 C3594 0.950 . S
H3589 C3595 0.950 . S
H3590 C3596 0.949 . S
C3591 H3586 0.950 . S
C3591 C3593 1.327 . S
C3591 C3597 1.429 . S
C3592 C3584 1.574 . S
C3592 H3587 0.949 . S
C3592 C3598 1.368 . S
C3593 C3577 1.349 . S
C3593 H3585 0.950 . S
C3593 C3591 1.327 . S
C3594 C3582 1.349 . S
C3594 H3588 0.950 . S
C3594 C3595 1.327 . S
C3595 H3589 0.950 . S
C3595 C3594 1.327 . S
C3595 C3599 1.429 . S
C3596 C3579 1.574 . S
C3596 H3590 0.949 . S
C3596 C3600 1.368 . S
C3597 C3578 1.429 . S
C3597 C3591 1.429 . S
C3597 C3598 1.523 . S
C3598 C3579 1.368 . S
C3598 C3592 1.368 . S
C3598 C3597 1.523 . S
C3599 C3583 1.429 . S
C3599 C3595 1.429 . S
C3599 C3600 1.523 . S
C3600 C3584 1.368 . S
C3600 C3596 1.368 . S
C3600 C3599 1.523 . S
H3601 C3576 0.950 1_545 S
H3602 C3578 0.950 . S
H3603 C3579 0.949 . S
H3604 C3581 0.950 . S
H3605 C3583 0.950 . S
C3606 C3607 1.349 . S
C3606 C3608 1.327 1_655 S
C3606 H3631 0.950 . S
C3607 C3606 1.349 . S
C3607 C3623 1.349 1_655 S
C3608 C3606 1.327 1_455 S
C3608 C3627 1.429 . S
C3608 H3632 0.950 . S
C3609 C3626 1.574 . S
C3609 C3628 1.368 . S
C3609 H3633 0.949 . S
H3610 C3614 0.949 . S
C3611 C3612 1.349 . S
C3611 C3613 1.327 . S
C3611 H3634 0.950 . S
C3612 C3611 1.349 . S
C3612 C3624 1.349 . S
C3613 C3611 1.327 . S
C3613 C3629 1.429 . S
C3613 H3635 0.950 . S
C3614 H3610 0.949 . S
C3614 C3622 1.574 . S
C3614 C3630 1.368 . S
H3615 C3623 0.945 . S
H3616 C3621 0.950 . S
H3617 C3622 0.949 . S
H3618 C3624 0.950 . S
H3619 C3625 0.950 . S
H3620 C3626 0.949 . S
C3621 H3616 0.950 . S
C3621 C3623 1.327 . S
C3621 C3627 1.429 . S
C3622 C3614 1.574 . S
C3622 H3617 0.949 . S
C3622 C3628 1.368 . S
C3623 C3607 1.349 1_455 S
C3623 H3615 0.945 . S
C3623 C3621 1.327 . S
C3624 C3612 1.349 . S
C3624 H3618 0.950 . S
C3624 C3625 1.327 . S
C3625 H3619 0.950 . S
C3625 C3624 1.327 . S
C3625 C3629 1.429 . S
C3626 C3609 1.574 . S
C3626 H3620 0.949 . S
C3626 C3630 1.368 . S
C3627 C3608 1.429 . S
C3627 C3621 1.429 . S
C3627 C3628 1.523 . S
C3628 C3609 1.368 . S
C3628 C3622 1.368 . S
C3628 C3627 1.523 . S
C3629 C3613 1.429 . S
C3629 C3625 1.429 . S
C3629 C3630 1.523 . S
C3630 C3614 1.368 . S
C3630 C3626 1.368 . S
C3630 C3629 1.523 . S
H3631 C3606 0.950 . S
H3632 C3608 0.950 . S
H3633 C3609 0.949 . S
H3634 C3611 0.950 . S
H3635 C3613 0.950 . S
C3636 C3637 1.349 . S
C3636 C3638 1.327 . S
C3636 H3661 0.950 . S
C3637 C3636 1.349 . S
C3637 C3653 1.349 . S
C3638 C3636 1.327 . S
C3638 C3657 1.429 . S
C3638 H3662 0.950 . S
C3639 C3656 1.574 . S
C3639 C3658 1.368 . S
C3639 H3663 0.949 . S
H3640 C3644 0.949 . S
C3641 C3642 1.349 1_455 S
C3641 C3643 1.327 1_455 S
C3641 H3664 0.950 . S
C3642 C3641 1.349 1_655 S
C3642 C3654 1.349 . S
C3643 C3641 1.327 1_655 S
C3643 C3659 1.429 . S
C3643 H3665 0.950 1_655 S
C3644 H3640 0.949 . S
C3644 C3652 1.574 . S
C3644 C3660 1.368 . S
H3645 C3653 0.950 . S
H3646 C3651 0.950 . S
H3647 C3652 0.949 . S
H3648 C3654 0.950 . S
H3649 C3655 0.950 . S
H3650 C3656 0.949 . S
C3651 H3646 0.950 . S
C3651 C3653 1.327 . S
C3651 C3657 1.429 . S
C3652 C3644 1.574 . S
C3652 H3647 0.949 . S
C3652 C3658 1.368 . S
C3653 C3637 1.349 . S
C3653 H3645 0.950 . S
C3653 C3651 1.327 . S
C3654 C3642 1.349 . S
C3654 H3648 0.950 . S
C3654 C3655 1.327 . S
C3655 H3649 0.950 . S
C3655 C3654 1.327 . S
C3655 C3659 1.429 . S
C3656 C3639 1.574 . S
C3656 H3650 0.949 . S
C3656 C3660 1.368 . S
C3657 C3638 1.429 . S
C3657 C3651 1.429 . S
C3657 C3658 1.523 . S
C3658 C3639 1.368 . S
C3658 C3652 1.368 . S
C3658 C3657 1.523 . S
C3659 C3643 1.429 . S
C3659 C3655 1.429 . S
C3659 C3660 1.523 . S
C3660 C3644 1.368 . S
C3660 C3656 1.368 . S
C3660 C3659 1.523 . S
H3661 C3636 0.950 . S
H3662 C3638 0.950 . S
H3663 C3639 0.949 . S
H3664 C3641 0.950 . S
H3665 C3643 0.950 1_455 S
C3666 C3667 1.349 . S
C3666 C3668 1.327 . S
C3666 H3691 0.950 . S
C3667 C3666 1.349 . S
C3667 C3683 1.349 . S
C3668 C3666 1.327 . S
C3668 C3687 1.429 . S
C3668 H3692 0.950 . S
C3669 C3686 1.574 . S
C3669 C3688 1.368 . S
C3669 H3693 0.949 . S
H3670 C3674 0.949 . S
C3671 C3672 1.349 . S
C3671 C3673 1.327 . S
C3671 H3694 0.950 . S
C3672 C3671 1.349 . S
C3672 C3684 1.349 . S
C3673 C3671 1.327 . S
C3673 C3689 1.429 . S
C3673 H3695 0.950 . S
C3674 H3670 0.949 . S
C3674 C3682 1.574 . S
C3674 C3690 1.368 . S
H3675 C3683 0.950 . S
H3676 C3681 0.950 . S
H3677 C3682 0.949 . S
H3678 C3684 0.950 . S
H3679 C3685 0.950 . S
H3680 C3686 0.949 . S
C3681 H3676 0.950 . S
C3681 C3683 1.327 . S
C3681 C3687 1.429 . S
C3682 C3674 1.574 . S
C3682 H3677 0.949 . S
C3682 C3688 1.368 . S
C3683 C3667 1.349 . S
C3683 H3675 0.950 . S
C3683 C3681 1.327 . S
C3684 C3672 1.349 . S
C3684 H3678 0.950 . S
C3684 C3685 1.327 . S
C3685 H3679 0.950 . S
C3685 C3684 1.327 . S
C3685 C3689 1.429 . S
C3686 C3669 1.574 . S
C3686 H3680 0.949 . S
C3686 C3690 1.368 . S
C3687 C3668 1.429 . S
C3687 C3681 1.429 . S
C3687 C3688 1.523 . S
C3688 C3669 1.368 . S
C3688 C3682 1.368 . S
C3688 C3687 1.523 . S
C3689 C3673 1.429 . S
C3689 C3685 1.429 . S
C3689 C3690 1.523 . S
C3690 C3674 1.368 . S
C3690 C3686 1.368 . S
C3690 C3689 1.523 . S
H3691 C3666 0.950 . S
H3692 C3668 0.950 . S
H3693 C3669 0.949 . S
H3694 C3671 0.950 . S
H3695 C3673 0.950 . S
C3696 C3697 1.349 . S
C3696 C3698 1.327 . S
C3696 H3721 0.950 . S
C3697 C3696 1.349 . S
C3697 C3713 1.349 . S
C3698 C3696 1.327 . S
C3698 C3717 1.429 . S
C3698 H3722 0.950 . S
C3699 C3716 1.574 . S
C3699 C3718 1.368 . S
C3699 H3723 0.994 . S
H3700 C3704 0.949 . S
C3701 C3702 1.273 1_565 S
C3701 C3703 1.327 . S
C3701 H3724 0.950 . S
C3702 C3701 1.273 1_545 S
C3702 C3714 1.414 . S
C3703 C3701 1.327 . S
C3703 C3719 1.429 1_565 S
C3703 H3725 0.950 . S
C3704 H3700 0.949 . S
C3704 C3712 1.574 . S
C3704 C3720 1.368 . S
H3705 C3713 0.950 . S
H3706 C3711 0.950 . S
H3707 C3712 0.949 . S
H3708 C3714 0.950 . S
H3709 C3715 0.950 . S
H3710 C3716 0.949 1_565 S
C3711 H3706 0.950 . S
C3711 C3713 1.327 . S
C3711 C3717 1.429 . S
C3712 C3704 1.574 . S
C3712 H3707 0.949 . S
C3712 C3718 1.368 . S
C3713 C3697 1.349 . S
C3713 H3705 0.950 . S
C3713 C3711 1.327 . S
C3714 C3702 1.414 . S
C3714 H3708 0.950 . S
C3714 C3715 1.327 . S
C3715 H3709 0.950 . S
C3715 C3714 1.327 . S
C3715 C3719 1.429 . S
C3716 C3699 1.574 . S
C3716 H3710 0.949 1_545 S
C3716 C3720 1.368 . S
C3717 C3698 1.429 . S
C3717 C3711 1.429 . S
C3717 C3718 1.523 . S
C3718 C3699 1.368 . S
C3718 C3712 1.368 . S
C3718 C3717 1.523 . S
C3719 C3703 1.429 1_545 S
C3719 C3715 1.429 . S
C3719 C3720 1.523 . S
C3720 C3704 1.368 . S
C3720 C3716 1.368 . S
C3720 C3719 1.523 . S
H3721 C3696 0.950 . S
H3722 C3698 0.950 . S
H3723 C3699 0.994 . S
H3724 C3701 0.950 . S
H3725 C3703 0.950 . S
C1567 C8 1.016 . S
C1572 C963 1.009 . S
C1597 C18 1.452 . S
C1602 C1043 1.471 . S
C1632 C1111 1.242 . S
C1627 C31 1.210 . S
C1657 C34 1.697 1_556 S
C1662 C1191 1.707 . S
C1687 C5 1.437 . S
C1692 C1265 1.496 . S
C1717 C21 1.533 . S
C1722 C1333 1.495 . S
C1747 C47 0.941 . S
C1752 C1259 0.944 . S
C1782 C1339 1.393 . S
C1777 C57 1.338 . S
C1812 C1185 1.256 1_545 S
C1807 C70 1.209 . S
C1837 C73 1.608 . S
C1842 C1117 1.674 . S
C1872 C969 1.481 . S
C1867 C44 1.418 . S
C1897 C60 1.382 . S
C1902 C1037 1.390 . S
C1927 C86 1.270 . S
C1932 C1407 1.228 . S
C1957 C96 1.481 . S
C1962 C1487 1.478 . S
C1992 C1555 1.435 . S
C1987 C109 1.473 . S
C2017 C112 1.929 . S
C2022 C303 1.895 . S
C2047 C83 1.690 . S
C2052 C377 1.685 . S
C2077 C99 1.569 . S
C2082 C445 1.518 . S
C2107 C125 0.968 . S
C2112 C371 0.971 . S
C2137 C135 1.401 . S
C2142 C451 1.453 . S
C2172 C297 1.361 . S
C2167 C148 1.330 . S
C2202 C1561 1.901 . S
C2197 C151 1.881 . S
C2232 C1413 1.524 . S
C2227 C122 1.491 . S
C2262 C1481 1.452 . S
C2257 C138 1.447 . S
C2287 C164 1.156 . S
C2292 C519 1.120 . S
C2317 C174 1.517 . S
C2322 C599 1.526 . S
C2347 C187 1.498 . S
C2352 C667 1.469 . S
C2377 C190 2.022 . S
C2382 C747 1.987 . S
C2412 C821 1.647 . S
C2407 C161 1.663 . S
C2442 C889 1.566 . S
C2437 C177 1.618 . S
C2472 C815 1.112 . S
C2467 C203 1.107 . S
C2502 C895 1.405 . S
C2497 C213 1.365 . S
C2527 C226 1.272 . S
C2532 C741 1.293 . S
C2562 C673 1.781 . S
C2557 C229 1.764 . S
C2587 C200 1.547 . S
C2592 C525 1.593 . S
C2622 C593 1.417 . S
C2617 C216 1.412 . S
C2652 C273 1.882 . S
C2647 C0 1.828 . S
C2677 C23 1.321 . S
C2682 C347 1.310 . S
C2712 C433 1.427 . S
C2707 C36 1.437 . S
C2742 C507 1.096 . S
C2737 C26 1.058 . S
C2772 C569 1.503 . S
C2767 C10 1.521 . S
C2802 C655 1.438 . S
C2797 C13 1.383 . S
C2827 C39 1.991 . S
C2832 C643 2.013 . S
C2857 C62 1.506 . S
C2862 C495 1.440 . S
C2887 C75 1.624 . S
C2892 C581 1.579 . S
C2917 C65 1.288 . S
C2922 C359 1.328 . S
C2952 C421 1.625 . S
C2947 C49 1.705 . S
C2977 C52 1.583 . S
C2982 C285 1.624 . S
C3012 C717 1.827 . S
C3007 C78 1.787 . S
C3037 C101 1.489 1_545 S
C3042 C791 1.478 . S
C3067 C114 1.503 . S
C3072 C877 1.488 . S
C3102 C951 0.846 . S
C3097 C104 0.837 . S
C3127 C88 1.405 . S
C3132 C1013 1.392 . S
C3157 C91 1.168 . S
C3162 C1099 1.194 . S
C3187 C117 1.646 . S
C3192 C1087 1.585 1_565 S
C3217 C140 1.200 . S
C3222 C939 1.179 . S
C3252 C1025 1.500 . S
C3247 C153 1.539 . S
C3277 C143 1.256 . S
C3282 C803 1.279 . S
C3307 C127 1.753 1_545 S
C3312 C865 1.680 . S
C3342 C729 1.721 . S
C3337 C130 1.694 1_655 S
C3372 C1161 1.644 . S
C3367 C156 1.629 . S
C3397 C179 1.089 . S
C3402 C1235 1.089 . S
C3427 C192 1.354 . S
C3432 C1321 1.345 . S
C3462 C1395 1.055 . S
C3457 C182 1.028 . S
C3492 C1457 1.566 . S
C3487 C166 1.580 1_565 S
C3517 C169 1.496 . S
C3522 C1543 1.541 . S
C3547 C195 1.951 . S
C3552 C1531 1.954 . S
C3577 C218 1.665 1_565 S
C3582 C1383 1.595 . S
C3612 C1469 1.628 . S
C3607 C231 1.678 . S
C3642 C1247 0.912 . S
C3637 C221 0.899 . S
C3672 C1309 1.528 . S
C3667 C205 1.593 . S
C3697 C208 1.270 . S
C3702 C1173 1.343 1_545 S
