# Generated by pormake.
# Topology zzz, (3,6)-cn, num edge types: 1
# Building blocks:
#     Node 0, Type 0, BuildingBlock: PAMTOO_clean_linker_0, # of connection points: 3
#     Node 1, Type 0, BuildingBlock: PAMTOO_clean_linker_0, # of connection points: 3
#     Node 2, Type 0, BuildingBlock: PAMTOO_clean_linker_0, # of connection points: 3
#     Node 3, Type 0, BuildingBlock: PAMTOO_clean_linker_0, # of connection points: 3
#     Node 4, Type 0, BuildingBlock: PAMTOO_clean_linker_0, # of connection points: 3
#     Node 5, Type 0, BuildingBlock: PAMTOO_clean_linker_0, # of connection points: 3
#     Node 6, Type 0, BuildingBlock: PAMTOO_clean_linker_0, # of connection points: 3
#     Node 7, Type 0, BuildingBlock: PAMTOO_clean_linker_0, # of connection points: 3
#     Node 8, Type 1, BuildingBlock: CUKXOW_clean_sbu_0, # of connection points: 6
#     Node 9, Type 1, BuildingBlock: CUKXOW_clean_sbu_0, # of connection points: 6
#     Node 10, Type 1, BuildingBlock: CUKXOW_clean_sbu_0, # of connection points: 6
#     Node 11, Type 1, BuildingBlock: CUKXOW_clean_sbu_0, # of connection points: 6
#     Edge 12, Type (0, 1), BuildingBlock: MIFKUJ_clean_linker_0, # of connection points: 2
#     Edge 13, Type (0, 1), BuildingBlock: MIFKUJ_clean_linker_0, # of connection points: 2
#     Edge 14, Type (0, 1), BuildingBlock: MIFKUJ_clean_linker_0, # of connection points: 2
#     Edge 15, Type (0, 1), BuildingBlock: MIFKUJ_clean_linker_0, # of connection points: 2
#     Edge 16, Type (0, 1), BuildingBlock: MIFKUJ_clean_linker_0, # of connection points: 2
#     Edge 17, Type (0, 1), BuildingBlock: MIFKUJ_clean_linker_0, # of connection points: 2
#     Edge 18, Type (0, 1), BuildingBlock: MIFKUJ_clean_linker_0, # of connection points: 2
#     Edge 19, Type (0, 1), BuildingBlock: MIFKUJ_clean_linker_0, # of connection points: 2
#     Edge 20, Type (0, 1), BuildingBlock: MIFKUJ_clean_linker_0, # of connection points: 2
#     Edge 21, Type (0, 1), BuildingBlock: MIFKUJ_clean_linker_0, # of connection points: 2
#     Edge 22, Type (0, 1), BuildingBlock: MIFKUJ_clean_linker_0, # of connection points: 2
#     Edge 23, Type (0, 1), BuildingBlock: MIFKUJ_clean_linker_0, # of connection points: 2
#     Edge 24, Type (0, 1), BuildingBlock: MIFKUJ_clean_linker_0, # of connection points: 2
#     Edge 25, Type (0, 1), BuildingBlock: MIFKUJ_clean_linker_0, # of connection points: 2
#     Edge 26, Type (0, 1), BuildingBlock: MIFKUJ_clean_linker_0, # of connection points: 2
#     Edge 27, Type (0, 1), BuildingBlock: MIFKUJ_clean_linker_0, # of connection points: 2
#     Edge 28, Type (0, 1), BuildingBlock: MIFKUJ_clean_linker_0, # of connection points: 2
#     Edge 29, Type (0, 1), BuildingBlock: MIFKUJ_clean_linker_0, # of connection points: 2
#     Edge 30, Type (0, 1), BuildingBlock: MIFKUJ_clean_linker_0, # of connection points: 2
#     Edge 31, Type (0, 1), BuildingBlock: MIFKUJ_clean_linker_0, # of connection points: 2
#     Edge 32, Type (0, 1), BuildingBlock: MIFKUJ_clean_linker_0, # of connection points: 2
#     Edge 33, Type (0, 1), BuildingBlock: MIFKUJ_clean_linker_0, # of connection points: 2
#     Edge 34, Type (0, 1), BuildingBlock: MIFKUJ_clean_linker_0, # of connection points: 2
#     Edge 35, Type (0, 1), BuildingBlock: MIFKUJ_clean_linker_0, # of connection points: 2
# Relax obj value: 0.069
# Max RMSD: 0.117
# Mean RMSD: 0.082
data_MOF--net-zzz--node1-CUKXOW_clean_sbu_0--node2-PAMTOO_clean_linker_0--edge1-MIFKUJ_clean_linker_0
_symmetry_space_group_name_H-M    P1
_symmetry_Int_Tables_number       1
_symmetry_cell_setting            triclinic
loop_
_symmetry_equiv_pos_as_xyz
'x, y, z'
_cell_length_a     65.901904
_cell_length_b     67.960506
_cell_length_c     20.147707
_cell_angle_alpha  92.788464
_cell_angle_beta   87.109126
_cell_angle_gamma 93.748404
loop_
_atom_site_label
_atom_site_type_symbol
_atom_site_fract_x
_atom_site_fract_y
_atom_site_fract_z
_atom_type_partial_charge
H0 H 0.81904 0.52427 0.11961 0.0
H1 H 0.76678 0.52844 0.00311 0.0
H2 H 0.75886 0.51714 0.21175 0.0
H3 H 0.72507 0.49703 0.13476 0.0
C4 C 0.7292 0.50446 0.08753 0.0
O5 O 0.74004 0.5221 0.10184 0.0
H6 H 0.73862 0.49435 0.05565 0.0
C7 C 0.80264 0.52415 0.11641 0.0
C8 C 0.79003 0.52023 0.17278 0.0
C9 C 0.79444 0.52725 0.05541 0.0
C10 C 0.77328 0.52655 0.05054 0.0
C11 C 0.76045 0.52313 0.10714 0.0
C12 C 0.76882 0.52016 0.16851 0.0
H13 H 0.95266 0.82445 0.04743 0.0
H14 H 0.95471 0.77041 0.92773 0.0
H15 H 0.96726 0.771 0.13497 0.0
H16 H 0.99288 0.74509 0.05585 0.0
C17 C 0.98438 0.74396 0.00937 0.0
O18 O 0.96472 0.74922 0.02446 0.0
H19 H 0.99228 0.75413 0.97331 0.0
C20 C 0.9543 0.80866 0.04329 0.0
C21 C 0.96001 0.79905 0.09889 0.0
C22 C 0.95248 0.79862 0.98114 0.0
C23 C 0.95542 0.77833 0.97564 0.0
C24 C 0.96034 0.76837 0.03146 0.0
C25 C 0.96246 0.77866 0.0931 0.0
H26 H 0.68377 0.96197 0.12062 0.0
H27 H 0.73815 0.96701 0.99351 0.0
H28 H 0.74162 0.97599 0.20568 0.0
H29 H 0.77151 0.00211 0.13119 0.0
C30 C 0.7709 0.99404 0.08189 0.0
O31 O 0.76265 0.97509 0.09088 0.0
H32 H 0.76123 0.0021 0.04999 0.0
C33 C 0.70024 0.96368 0.11432 0.0
C34 C 0.7116 0.96829 0.1703 0.0
C35 C 0.70952 0.96334 0.05025 0.0
C36 C 0.73073 0.96685 0.04273 0.0
C37 C 0.74235 0.97105 0.09883 0.0
C38 C 0.73275 0.97196 0.16271 0.0
H39 H 0.55629 0.68774 0.11609 0.0
H40 H 0.55588 0.73903 0.99957 0.0
H41 H 0.54771 0.74462 0.21262 0.0
H42 H 0.52305 0.77168 0.146 0.0
C43 C 0.53071 0.7705 0.09561 0.0
O44 O 0.5498 0.76363 0.10152 0.0
H45 H 0.52128 0.75998 0.06396 0.0
C46 C 0.55561 0.70357 0.11331 0.0
C47 C 0.55193 0.71503 0.172 0.0
C48 C 0.55693 0.71192 0.05082 0.0
C49 C 0.55537 0.73234 0.04741 0.0
C50 C 0.55241 0.74415 0.10581 0.0
C51 C 0.55083 0.73552 0.16809 0.0
H52 H 0.19688 0.47872 0.25818 0.0
H53 H 0.25151 0.48379 0.36721 0.0
H54 H 0.25513 0.48846 0.15474 0.0
H55 H 0.29429 0.47252 0.20055 0.0
C56 C 0.28896 0.4738 0.25372 0.0
O57 O 0.27609 0.48905 0.26241 0.0
H58 H 0.28087 0.45942 0.26609 0.0
C59 C 0.21336 0.48015 0.25849 0.0
C60 C 0.22473 0.48305 0.19864 0.0
C61 C 0.22278 0.48027 0.3194 0.0
C62 C 0.244 0.48338 0.32048 0.0
C63 C 0.25563 0.48609 0.26097 0.0
C64 C 0.24601 0.48614 0.20027 0.0
H65 H 0.02981 0.19133 0.28473 0.0
H66 H 0.02329 0.24056 0.42482 0.0
H67 H 0.04728 0.25016 0.2253 0.0
H68 H 0.06663 0.27763 0.33416 0.0
C69 C 0.05358 0.27654 0.37134 0.0
O70 O 0.03699 0.26725 0.3411 0.0
H71 H 0.05792 0.26789 0.41337 0.0
C72 C 0.03125 0.20709 0.29653 0.0
C73 C 0.03919 0.21981 0.24787 0.0
C74 C 0.0255 0.21435 0.36039 0.0
C75 C 0.02769 0.23471 0.37557 0.0
C76 C 0.03549 0.24762 0.32677 0.0
C77 C 0.04128 0.24017 0.26283 0.0
H78 H 0.32864 0.03937 0.25351 0.0
H79 H 0.27128 0.03034 0.3622 0.0
H80 H 0.27307 0.0341 0.14913 0.0
H81 H 0.23358 0.05117 0.21446 0.0
C82 C 0.23712 0.04669 0.26472 0.0
O83 O 0.24915 0.03074 0.2575 0.0
H84 H 0.24525 0.05955 0.29043 0.0
C85 C 0.31211 0.03804 0.25435 0.0
C86 C 0.30222 0.03739 0.19444 0.0
C87 C 0.30114 0.0353 0.31474 0.0
C88 C 0.27988 0.03267 0.31569 0.0
C89 C 0.2697 0.03289 0.25616 0.0
C90 C 0.28091 0.0348 0.19526 0.0
H91 H 0.45126 0.32454 0.26296 0.0
H92 H 0.46081 0.27593 0.38434 0.0
H93 H 0.46342 0.26779 0.17111 0.0
H94 H 0.44453 0.23197 0.23988 0.0
C95 C 0.45038 0.2358 0.29002 0.0
O96 O 0.46584 0.25044 0.28416 0.0
H97 H 0.43759 0.24109 0.32298 0.0
C98 C 0.45367 0.30903 0.2673 0.0
C99 C 0.45674 0.2971 0.20932 0.0
C100 C 0.45517 0.30166 0.33066 0.0
C101 C 0.45945 0.28186 0.33589 0.0
C102 C 0.46199 0.26958 0.27843 0.0
C103 C 0.46095 0.27726 0.21523 0.0
Tb104 Tb 0.00274 0.99015 0.64054 0.0
C105 C 0.04893 0.00708 0.6439 0.0
Tb106 Tb 0.01612 0.01926 0.75817 0.0
O107 O 0.9859 0.01325 0.59759 0.0
O108 O 0.01028 0.02033 0.65705 0.0
O109 O 0.03553 0.99376 0.61732 0.0
C110 C 0.02594 0.05224 0.82852 0.0
O111 O 0.04439 0.01904 0.69632 0.0
C112 C 0.01185 0.98168 0.78305 0.0
C113 C 0.97025 0.00367 0.75048 0.0
O114 O 0.03614 0.03639 0.82646 0.0
O115 O 0.01026 0.04927 0.79205 0.0
O116 O 0.00955 0.99562 0.82888 0.0
O117 O 0.01791 0.98931 0.72976 0.0
O118 O 0.98304 0.01859 0.76898 0.0
O119 O 0.97557 0.98943 0.70694 0.0
C120 C 0.99628 0.95673 0.5683 0.0
O121 O 0.00336 0.97345 0.54462 0.0
O122 O 0.9927 0.95899 0.63197 0.0
C123 C 0.99622 0.02755 0.6288 0.0
Tb124 Tb 0.50885 0.02843 0.66775 0.0
C125 C 0.53395 0.99726 0.57831 0.0
Tb126 Tb 0.50614 0.98419 0.7036 0.0
O127 O 0.53018 0.03701 0.74634 0.0
O128 O 0.52762 0.00843 0.70655 0.0
O129 O 0.52739 0.01541 0.58564 0.0
C130 C 0.51109 0.95011 0.76012 0.0
O131 O 0.52825 0.98303 0.61965 0.0
C132 C 0.47988 0.994 0.61922 0.0
C133 C 0.48271 0.01558 0.79457 0.0
O134 O 0.52551 0.96164 0.73439 0.0
O135 O 0.49375 0.95769 0.75375 0.0
O136 O 0.486 0.97622 0.62169 0.0
O137 O 0.48698 0.00428 0.66707 0.0
O138 O 0.49242 0.99895 0.79287 0.0
O139 O 0.48488 0.02816 0.74585 0.0
C140 C 0.50295 0.06124 0.6052 0.0
O141 O 0.51066 0.06069 0.66315 0.0
O142 O 0.49878 0.04333 0.58227 0.0
C143 C 0.5349 0.01896 0.75346 0.0
Tb144 Tb 0.51236 0.52378 0.64378 0.0
C145 C 0.46756 0.50567 0.63847 0.0
Tb146 Tb 0.49803 0.49048 0.73953 0.0
O147 O 0.5115 0.50272 0.55792 0.0
O148 O 0.51672 0.49362 0.65215 0.0
O149 O 0.47963 0.52198 0.63131 0.0
C150 C 0.48719 0.45506 0.78686 0.0
O151 O 0.47267 0.49072 0.67316 0.0
C152 C 0.49716 0.52693 0.78806 0.0
C153 C 0.5433 0.50834 0.74497 0.0
O154 O 0.47847 0.47129 0.8043 0.0
O155 O 0.50196 0.45892 0.74363 0.0
O156 O 0.4999 0.51205 0.82428 0.0
O157 O 0.49338 0.52057 0.73018 0.0
O158 O 0.52974 0.49414 0.76401 0.0
O159 O 0.53983 0.52135 0.7 0.0
C160 C 0.52386 0.55886 0.59469 0.0
O161 O 0.52256 0.55506 0.65724 0.0
O162 O 0.51902 0.54283 0.55982 0.0
C163 C 0.51338 0.48758 0.59357 0.0
Tb164 Tb 0.99392 0.51054 0.62598 0.0
C165 C 0.01464 0.47144 0.64017 0.0
Tb166 Tb 0.02768 0.50963 0.72705 0.0
O167 O 0.01655 0.50908 0.54189 0.0
O168 O 0.0244 0.5214 0.63361 0.0
O169 O 0.99681 0.47894 0.63285 0.0
C170 C 0.06295 0.50665 0.78426 0.0
O171 O 0.02996 0.48201 0.66752 0.0
C172 C 0.99014 0.50554 0.77626 0.0
C173 C 0.00701 0.54952 0.71433 0.0
O174 O 0.04616 0.49626 0.79801 0.0
O175 O 0.05982 0.51883 0.7388 0.0
O176 O 0.00535 0.51273 0.81051 0.0
O177 O 0.99683 0.49913 0.72026 0.0
O178 O 0.0228 0.54091 0.73614 0.0
O179 O 0.9937 0.54033 0.67379 0.0
C180 C 0.95836 0.51241 0.56874 0.0
O181 O 0.96314 0.52101 0.62514 0.0
O182 O 0.97369 0.50299 0.54404 0.0
C183 C 0.03151 0.51606 0.57732 0.0
H184 H 0.19747 0.0502 0.23324 0.0
H185 H 0.16643 0.04294 0.30227 0.0
H186 H 0.20265 0.02456 0.45788 0.0
H187 H 0.23372 0.0318 0.38883 0.0
H188 H 0.16972 0.99914 0.43904 0.0
H189 H 0.18352 0.06885 0.47015 0.0
H190 H 0.19042 0.10316 0.43683 0.0
H191 H 0.13278 0.10113 0.3456 0.0
H192 H 0.12567 0.06668 0.37742 0.0
H193 H 0.07997 0.03401 0.67705 0.0
H194 H 0.11291 0.03973 0.618 0.0
H195 H 0.09731 0.99239 0.47562 0.0
H196 H 0.06443 0.98632 0.53482 0.0
H197 H 0.12133 0.05107 0.49529 0.0
H198 H 0.1404 0.97096 0.41733 0.0
H199 H 0.13447 0.93743 0.45902 0.0
H200 H 0.12857 0.96168 0.65936 0.0
H201 H 0.13473 0.99533 0.61897 0.0
C202 C 0.19876 0.04447 0.28199 0.0
C203 C 0.21794 0.04134 0.30554 0.0
C204 C 0.18106 0.04043 0.32147 0.0
C205 C 0.18224 0.03331 0.38538 0.0
C206 C 0.20139 0.02997 0.40866 0.0
C207 C 0.21909 0.0341 0.36929 0.0
C208 C 0.16352 0.02951 0.42815 0.0
C209 C 0.15913 0.01048 0.45131 0.0
C210 C 0.14988 0.04441 0.44513 0.0
C211 C 0.15418 0.06509 0.42548 0.0
C212 C 0.17241 0.07564 0.44236 0.0
C213 C 0.17634 0.09514 0.42386 0.0
C214 C 0.16208 0.1043 0.38892 0.0
C215 C 0.14384 0.094 0.37252 0.0
C216 C 0.13985 0.07449 0.39079 0.0
C217 C 0.08358 0.02463 0.63364 0.0
C218 C 0.06951 0.00965 0.61089 0.0
C219 C 0.10242 0.028 0.59974 0.0
C220 C 0.10765 0.01642 0.54263 0.0
C221 C 0.09374 0.00132 0.52015 0.0
C222 C 0.07489 0.99792 0.55403 0.0
C223 C 0.12735 0.0206 0.5053 0.0
C224 C 0.13191 0.03971 0.48302 0.0
C225 C 0.14129 0.00586 0.49005 0.0
C226 C 0.13784 0.98567 0.515 0.0
C227 C 0.13792 0.96913 0.4703 0.0
C228 C 0.13451 0.95011 0.4937 0.0
C229 C 0.13108 0.94743 0.56177 0.0
C230 C 0.13114 0.96378 0.60662 0.0
C231 C 0.13457 0.98283 0.58349 0.0
H232 H 0.12842 0.9327 0.57978 0.0
H233 H 0.16514 0.1194 0.37472 0.0
H234 H 0.47368 0.23431 0.39875 0.0
H235 H 0.48389 0.20495 0.45169 0.0
H236 H 0.45309 0.16765 0.30393 0.0
H237 H 0.44293 0.19695 0.25098 0.0
H238 H 0.44354 0.15603 0.42984 0.0
H239 H 0.50439 0.17334 0.29785 0.0
H240 H 0.5331 0.1955 0.25815 0.0
H241 H 0.5543 0.20288 0.45642 0.0
H242 H 0.52553 0.18097 0.4975 0.0
H243 H 0.48259 0.0639 0.49182 0.0
H244 H 0.47458 0.094 0.43884 0.0
H245 H 0.50537 0.12942 0.5911 0.0
H246 H 0.5135 0.09936 0.64418 0.0
H247 H 0.51515 0.14262 0.46599 0.0
H248 H 0.45583 0.12352 0.59712 0.0
H249 H 0.42665 0.10235 0.63876 0.0
H250 H 0.40139 0.09976 0.44603 0.0
H251 H 0.43085 0.1202 0.40234 0.0
C252 C 0.46942 0.21983 0.37705 0.0
C253 C 0.45795 0.21787 0.31987 0.0
C254 C 0.47522 0.20308 0.4073 0.0
C255 C 0.46945 0.18409 0.38132 0.0
C256 C 0.45781 0.18214 0.32461 0.0
C257 C 0.45211 0.19887 0.2942 0.0
C258 C 0.47493 0.16622 0.41437 0.0
C259 C 0.45921 0.1529 0.43683 0.0
C260 C 0.49535 0.16255 0.42547 0.0
C261 C 0.51269 0.17568 0.40086 0.0
C262 C 0.51507 0.17982 0.33309 0.0
C263 C 0.53138 0.19231 0.31031 0.0
C264 C 0.54548 0.20064 0.35476 0.0
C265 C 0.54334 0.19645 0.42206 0.0
C266 C 0.52705 0.18398 0.44511 0.0
C267 C 0.48771 0.07811 0.51381 0.0
C268 C 0.49865 0.07934 0.57211 0.0
C269 C 0.48303 0.09527 0.48373 0.0
C270 C 0.48918 0.11395 0.51142 0.0
C271 C 0.50045 0.11517 0.56895 0.0
C272 C 0.50504 0.09801 0.59929 0.0
C273 C 0.48374 0.1322 0.48053 0.0
C274 C 0.49947 0.14566 0.45879 0.0
C275 C 0.46328 0.13602 0.4703 0.0
C276 C 0.44579 0.12318 0.49609 0.0
C277 C 0.44428 0.11814 0.56318 0.0
C278 C 0.42765 0.10627 0.58722 0.0
C279 C 0.41222 0.09963 0.545 0.0
C280 C 0.41339 0.10486 0.47866 0.0
C281 C 0.43011 0.1165 0.45414 0.0
H282 H 0.39934 0.09048 0.56372 0.0
H283 H 0.5581 0.2103 0.33703 0.0
H284 H 0.29636 0.45721 0.37096 0.0
H285 H 0.32604 0.46353 0.43919 0.0
H286 H 0.35123 0.50666 0.3024 0.0
H287 H 0.32173 0.49993 0.23321 0.0
H288 H 0.37983 0.48376 0.33419 0.0
H289 H 0.32925 0.52019 0.45581 0.0
H290 H 0.2959 0.52532 0.51289 0.0
H291 H 0.30671 0.48193 0.65282 0.0
H292 H 0.34002 0.47633 0.59596 0.0
H293 H 0.45533 0.52855 0.54183 0.0
H294 H 0.42422 0.52385 0.48026 0.0
H295 H 0.40443 0.47396 0.59667 0.0
H296 H 0.43563 0.47838 0.65823 0.0
H297 H 0.37324 0.50052 0.5765 0.0
H298 H 0.42463 0.46498 0.45391 0.0
H299 H 0.45838 0.46142 0.39801 0.0
H300 H 0.44606 0.50442 0.2587 0.0
H301 H 0.41244 0.50877 0.31513 0.0
C302 C 0.30828 0.468 0.35555 0.0
C303 C 0.30696 0.47794 0.29656 0.0
C304 C 0.32516 0.4717 0.39471 0.0
C305 C 0.34083 0.48569 0.37626 0.0
C306 C 0.33938 0.49577 0.31757 0.0
C307 C 0.32255 0.49197 0.27821 0.0
C308 C 0.3589 0.48955 0.41747 0.0
C309 C 0.37837 0.48771 0.38696 0.0
C310 C 0.35703 0.49431 0.4867 0.0
C311 C 0.33705 0.4977 0.52121 0.0
C312 C 0.32445 0.51163 0.49844 0.0
C313 C 0.30556 0.51464 0.53081 0.0
C314 C 0.29917 0.50392 0.58634 0.0
C315 C 0.31167 0.4902 0.60974 0.0
C316 C 0.33056 0.48712 0.5775 0.0
C317 C 0.44429 0.5167 0.55494 0.0
C318 C 0.44799 0.50382 0.60494 0.0
C319 C 0.42654 0.51401 0.51953 0.0
C320 C 0.41211 0.4985 0.53373 0.0
C321 C 0.4154 0.48603 0.58507 0.0
C322 C 0.43327 0.48855 0.62 0.0
C323 C 0.39402 0.49481 0.49303 0.0
C324 C 0.37461 0.49663 0.52368 0.0
C325 C 0.39594 0.49017 0.42386 0.0
C326 C 0.41607 0.48737 0.38927 0.0
C327 C 0.42917 0.47384 0.4118 0.0
C328 C 0.44828 0.47165 0.37996 0.0
C329 C 0.45436 0.48266 0.32483 0.0
C330 C 0.44134 0.49591 0.30146 0.0
C331 C 0.42226 0.49827 0.33344 0.0
H332 H 0.46915 0.48089 0.30018 0.0
H333 H 0.28454 0.50627 0.61134 0.0
H334 H 0.01654 0.28951 0.41984 0.0
H335 H 0.00933 0.32234 0.46698 0.0
H336 H 0.07266 0.34158 0.4374 0.0
H337 H 0.07992 0.3088 0.38898 0.0
H338 H 0.05544 0.35161 0.56499 0.0
H339 H 0.04092 0.35619 0.33447 0.0
H340 H 0.02433 0.34567 0.23048 0.0
H341 H 0.96558 0.35239 0.32804 0.0
H342 H 0.98183 0.36269 0.43295 0.0
H343 H 0.05074 0.45512 0.61021 0.0
H344 H 0.05631 0.42141 0.56907 0.0
H345 H 0.99144 0.40766 0.57435 0.0
H346 H 0.98574 0.44156 0.61458 0.0
H347 H 0.00831 0.39392 0.4621 0.0
H348 H 0.02219 0.39144 0.6907 0.0
H349 H 0.03791 0.40017 0.79744 0.0
H350 H 0.09667 0.38803 0.70906 0.0
H351 H 0.0814 0.37964 0.60131 0.0
C352 C 0.02887 0.30082 0.42232 0.0
C353 C 0.04871 0.29683 0.39868 0.0
C354 C 0.02473 0.31953 0.44951 0.0
C355 C 0.04042 0.33442 0.45483 0.0
C356 C 0.06033 0.33031 0.43321 0.0
C357 C 0.06443 0.31167 0.4053 0.0
C358 C 0.03608 0.35427 0.48358 0.0
C359 C 0.04537 0.36104 0.5422 0.0
C360 C 0.02238 0.36615 0.4548 0.0
C361 C 0.01258 0.36 0.39174 0.0
C362 C 0.02446 0.35525 0.33392 0.0
C363 C 0.01512 0.34936 0.27478 0.0
C364 C 0.99391 0.3483 0.27271 0.0
C365 C 0.98201 0.35319 0.32975 0.0
C366 C 0.99127 0.35906 0.38905 0.0
C367 C 0.03767 0.44483 0.60362 0.0
C368 C 0.01781 0.45089 0.61655 0.0
C369 C 0.04088 0.42557 0.58017 0.0
C370 C 0.02433 0.41188 0.56992 0.0
C371 C 0.00446 0.41794 0.58229 0.0
C372 C 0.00121 0.4373 0.60528 0.0
C373 C 0.02783 0.39151 0.54366 0.0
C374 C 0.01836 0.38458 0.48535 0.0
C375 C 0.04128 0.37942 0.57318 0.0
C376 C 0.05064 0.3851 0.63755 0.0
C377 C 0.0385 0.39087 0.69369 0.0
C378 C 0.04733 0.3957 0.75451 0.0
C379 C 0.06827 0.39461 0.76009 0.0
C380 C 0.08044 0.38878 0.70476 0.0
C381 C 0.0717 0.38403 0.64376 0.0
H382 H 0.07508 0.39836 0.80719 0.0
H383 H 0.98671 0.34375 0.22686 0.0
H384 H 0.78193 0.97458 0.9648 0.0
H385 H 0.81557 0.97523 0.90632 0.0
H386 H 0.84016 0.01356 0.0636 0.0
H387 H 0.8066 0.01294 0.12192 0.0
H388 H 0.85108 0.02695 0.94075 0.0
H389 H 0.85026 0.96532 0.05023 0.0
H390 H 0.83655 0.93202 0.07892 0.0
H391 H 0.84075 0.91273 0.87282 0.0
H392 H 0.85419 0.94603 0.84277 0.0
H393 H 0.95618 0.02422 0.86139 0.0
H394 H 0.92216 0.02169 0.91485 0.0
H395 H 0.90284 0.97842 0.76328 0.0
H396 H 0.93715 0.98035 0.71072 0.0
H397 H 0.88836 0.96717 0.87856 0.0
H398 H 0.88926 0.0277 0.76707 0.0
H399 H 0.90258 0.06082 0.73498 0.0
H400 H 0.89732 0.08212 0.93889 0.0
H401 H 0.88423 0.04905 0.97235 0.0
C402 C 0.79463 0.98291 0.98708 0.0
C403 C 0.7918 0.99347 0.04821 0.0
C404 C 0.81379 0.98329 0.95377 0.0
C405 C 0.83041 0.99431 0.98092 0.0
C406 C 0.82756 0.00492 0.04187 0.0
C407 C 0.80844 0.00448 0.07527 0.0
C408 C 0.85066 0.99533 0.94497 0.0
C409 C 0.85936 0.01391 0.92783 0.0
C410 C 0.86112 0.97825 0.92613 0.0
C411 C 0.85302 0.95823 0.94418 0.0
C412 C 0.84808 0.95404 0.01095 0.0
C413 C 0.84039 0.93515 0.02747 0.0
C414 C 0.83772 0.92029 0.97771 0.0
C415 C 0.84279 0.92427 0.91131 0.0
C416 C 0.85045 0.94314 0.89451 0.0
C417 C 0.94468 0.01424 0.83907 0.0
C418 C 0.94936 0.00259 0.78143 0.0
C419 C 0.92517 0.01286 0.86964 0.0
C420 C 0.90977 1.00013 0.8425 0.0
C421 C 0.91443 0.9884 0.7851 0.0
C422 C 0.93404 0.98957 0.75496 0.0
C423 C 0.88893 0.99884 0.87478 0.0
C424 C 0.88008 0.98023 0.89115 0.0
C425 C 0.8782 0.01588 0.89229 0.0
C426 C 0.88592 0.03584 0.87227 0.0
C427 C 0.89107 0.03941 0.80513 0.0
C428 C 0.89856 0.05818 0.78669 0.0
C429 C 0.90083 0.07356 0.83489 0.0
C430 C 0.89557 0.0702 0.90162 0.0
C431 C 0.88809 0.05145 0.92034 0.0
H432 H 0.90664 0.08808 0.82051 0.0
H433 H 0.83178 0.90567 0.9906 0.0
H434 H 0.50188 0.79724 0.10485 0.0
H435 H 0.50095 0.8279 0.04646 0.0
H436 H 0.56029 0.8187 0.95459 0.0
H437 H 0.56118 0.78777 0.01219 0.0
H438 H 0.55446 0.8591 0.00248 0.0
H439 H 0.52359 0.8078 0.86367 0.0
H440 H 0.50037 0.77888 0.8372 0.0
H441 H 0.44885 0.81254 0.89391 0.0
H442 H 0.47179 0.8416 0.92176 0.0
H443 H 0.54605 0.93135 0.76193 0.0
H444 H 0.55166 0.90088 0.81647 0.0
H445 H 0.48884 0.89742 0.88923 0.0
H446 H 0.4831 0.92745 0.8321 0.0
H447 H 0.49899 0.86258 0.84652 0.0
H448 H 0.53067 0.91407 0.98818 0.0
H449 H 0.55438 0.94298 0.0105 0.0
H450 H 0.60503 0.90909 0.94559 0.0
H451 H 0.58159 0.88005 0.92188 0.0
C452 C 0.51488 0.80193 0.07307 0.0
C453 C 0.53176 0.79033 0.06433 0.0
C454 C 0.5143 0.81939 0.03958 0.0
C455 C 0.53056 0.82557 0.99628 0.0
C456 C 0.54767 0.81425 0.98825 0.0
C457 C 0.54816 0.79661 0.02129 0.0
C458 C 0.52901 0.84328 0.95696 0.0
C459 C 0.54252 0.85983 0.96769 0.0
C460 C 0.5133 0.84425 0.91214 0.0
C461 C 0.49942 0.82682 0.89547 0.0
C462 C 0.50732 0.80899 0.87112 0.0
C463 C 0.4942 0.79258 0.85574 0.0
C464 C 0.47315 0.79385 0.86404 0.0
C465 C 0.46516 0.81156 0.88761 0.0
C466 C 0.47822 0.82801 0.90316 0.0
C467 C 0.53349 0.92399 0.78942 0.0
C468 C 0.5142 0.93168 0.79291 0.0
C469 C 0.53671 0.90668 0.82101 0.0
C470 C 0.52077 0.89698 0.8581 0.0
C471 C 0.5014 0.90463 0.86109 0.0
C472 C 0.49812 0.92179 0.82859 0.0
C473 C 0.52411 0.87874 0.89306 0.0
C474 C 0.51096 0.86197 0.88129 0.0
C475 C 0.5402 0.87762 0.93672 0.0
C476 C 0.55435 0.89492 0.95274 0.0
C477 C 0.54686 0.9128 0.97841 0.0
C478 C 0.56025 0.92921 0.99128 0.0
C479 C 0.58119 0.92788 0.97932 0.0
C480 C 0.5888 0.9101 0.9548 0.0
C481 C 0.57547 0.89365 0.94166 0.0
H482 H 0.59153 0.94061 0.98912 0.0
H483 H 0.46302 0.78114 0.85206 0.0
H484 H 0.68931 0.50156 0.13412 0.0
H485 H 0.65879 0.50463 0.07174 0.0
H486 H 0.69645 0.5186 0.89686 0.0
H487 H 0.72709 0.51563 0.9596 0.0
H488 H 0.66233 0.5413 0.91275 0.0
H489 H 0.67735 0.47298 0.90999 0.0
H490 H 0.68504 0.44202 0.95973 0.0
H491 H 0.62797 0.44136 0.07257 0.0
H492 H 0.62008 0.47247 0.02422 0.0
H493 H 0.58059 0.52169 0.69217 0.0
H494 H 0.61342 0.52235 0.74481 0.0
H495 H 0.5831 0.4994 0.92244 0.0
H496 H 0.55068 0.49775 0.8689 0.0
H497 H 0.61547 0.48123 0.89742 0.0
H498 H 0.60056 0.55012 0.90299 0.0
H499 H 0.5917 0.5798 0.84785 0.0
H500 H 0.64775 0.57945 0.72954 0.0
H501 H 0.65673 0.54949 0.78301 0.0
C502 C 0.69104 0.50546 0.08256 0.0
C503 C 0.71047 0.50808 0.05119 0.0
C504 C 0.67364 0.5072 0.04698 0.0
C505 C 0.67536 0.51156 0.97938 0.0
C506 C 0.69479 0.51517 0.94887 0.0
C507 C 0.71223 0.5134 0.98452 0.0
C508 C 0.65689 0.51108 0.93989 0.0
C509 C 0.65215 0.52814 0.90879 0.0
C510 C 0.64355 0.49394 0.93514 0.0
C511 C 0.64821 0.47515 0.96393 0.0
C512 C 0.66651 0.46631 0.94579 0.0
C513 C 0.6709 0.44872 0.97367 0.0
C514 C 0.65703 0.43975 0.0194 0.0
C515 C 0.63871 0.44833 0.0372 0.0
C516 C 0.63427 0.46593 0.00953 0.0
C517 C 0.58102 0.51683 0.74246 0.0
C518 C 0.56314 0.50959 0.77636 0.0
C519 C 0.59975 0.51729 0.77267 0.0
C520 C 0.60077 0.51115 0.83809 0.0
C521 C 0.5828 0.50413 0.87193 0.0
C522 C 0.56425 0.50322 0.84129 0.0
C523 C 0.62044 0.51164 0.87167 0.0
C524 C 0.62553 0.49448 0.9014 0.0
C525 C 0.63397 0.52872 0.87539 0.0
C526 C 0.62922 0.54746 0.84654 0.0
C527 C 0.611 0.55639 0.86524 0.0
C528 C 0.60594 0.57323 0.8342 0.0
C529 C 0.61912 0.58145 0.78503 0.0
C530 C 0.63753 0.57302 0.7675 0.0
C531 C 0.64261 0.55611 0.79816 0.0
H532 H 0.61506 0.59431 0.76029 0.0
H533 H 0.66045 0.42614 0.04094 0.0
H534 H 0.95988 0.72691 0.91313 0.0
H535 H 0.962 0.69421 0.8567 0.0
H536 H 0.01207 0.68271 0.97615 0.0
H537 H 0.00992 0.71527 0.0327 0.0
H538 H 0.01993 0.67441 0.84311 0.0
H539 H 0.96592 0.66097 0.0084 0.0
H540 H 0.93279 0.66563 0.06751 0.0
H541 H 0.90228 0.65272 0.88565 0.0
H542 H 0.93529 0.64827 0.82521 0.0
H543 H 0.02923 0.57232 0.80329 0.0
H544 H 0.02378 0.6059 0.84439 0.0
H545 H 0.97306 0.60766 0.7181 0.0
H546 H 0.9781 0.5737 0.67737 0.0
H547 H 0.96386 0.62199 0.84311 0.0
H548 H 0.01732 0.63308 0.67894 0.0
H549 H 0.05029 0.6281 0.61919 0.0
H550 H 0.08163 0.64555 0.79643 0.0
H551 H 0.04882 0.65037 0.85758 0.0
C552 C 0.97106 0.71721 0.92806 0.0
C553 C 0.9844 0.72335 0.97841 0.0
C554 C 0.97229 0.6986 0.89576 0.0
C555 C 0.98708 0.68599 0.9127 0.0
C556 C 1.0005 0.69219 0.96257 0.0
C557 C 0.99918 0.71071 0.99509 0.0
C558 C 0.98911 0.66655 0.87718 0.0
C559 C 0.00774 0.66288 0.84359 0.0
C560 C 0.97294 0.65179 0.87589 0.0
C561 C 0.9531 0.65455 0.91212 0.0
C562 C 0.95217 0.65933 0.98086 0.0
C563 C 0.93341 0.66189 0.01465 0.0
C564 C 0.91544 0.65955 0.98031 0.0
C565 C 0.91621 0.65459 0.91215 0.0
C566 C 0.93494 0.65204 0.87811 0.0
C567 C 0.01697 0.57981 0.78373 0.0
C568 C 0.00415 0.57028 0.73675 0.0
C569 C 0.01393 0.59908 0.80721 0.0
C570 C 0.99816 0.60937 0.78378 0.0
C571 C 0.98535 0.59999 0.73672 0.0
C572 C 0.98831 0.5806 0.71336 0.0
C573 C 0.99485 0.62971 0.81026 0.0
C574 C 0.97598 0.63359 0.84199 0.0
C575 C 0.01078 0.64473 0.80963 0.0
C576 C 0.03058 0.64195 0.77298 0.0
C577 C 0.03123 0.63572 0.70533 0.0
C578 C 0.0499 0.63295 0.67118 0.0
C579 C 0.06804 0.63647 0.70403 0.0
C580 C 0.06756 0.64282 0.77107 0.0
C581 C 0.04893 0.6456 0.80547 0.0
H582 H 0.08248 0.63431 0.6775 0.0
H583 H 0.90093 0.66152 0.00657 0.0
H584 H 0.99336 0.18756 0.35133 0.0
H585 H 0.98545 0.1593 0.42082 0.0
H586 H 0.03358 0.18001 0.54914 0.0
H587 H 0.04144 0.20851 0.47952 0.0
H588 H 0.03734 0.14194 0.49549 0.0
H589 H 0.98657 0.17807 0.61384 0.0
H590 H 0.9573 0.19896 0.62749 0.0
H591 H 0.91984 0.15404 0.52695 0.0
H592 H 0.94897 0.13297 0.51181 0.0
H593 H 0.02262 0.05664 0.67445 0.0
H594 H 0.02405 0.09153 0.65253 0.0
H595 H 0.97239 0.08135 0.52909 0.0
H596 H 0.96984 0.04634 0.55593 0.0
H597 H 0.97099 0.11634 0.59499 0.0
H598 H 0.02245 0.08215 0.46489 0.0
H599 H 0.05164 0.0612 0.44837 0.0
H600 H 0.08797 0.10282 0.5665 0.0
H601 H 0.05892 0.12391 0.58434 0.0
C602 C 0.00179 0.18638 0.39562 0.0
C603 C 0.01794 0.20015 0.41044 0.0
C604 C 0.99726 0.17029 0.43531 0.0
C605 C 0.00889 0.16762 0.49021 0.0
C606 C 0.02437 0.18191 0.50714 0.0
C607 C 0.02876 0.19819 0.46775 0.0
C608 C 0.00653 0.14865 0.5238 0.0
C609 C 0.02298 0.13651 0.51877 0.0
C610 C 0.98761 0.14142 0.55218 0.0
C611 C 0.97001 0.154 0.56128 0.0
C612 C 0.97214 0.17271 0.59414 0.0
C613 C 0.95556 0.18457 0.60226 0.0
C614 C 0.93674 0.17785 0.578 0.0
C615 C 0.93444 0.15923 0.5457 0.0
C616 C 0.95097 0.14731 0.53743 0.0
C617 C 0.01105 0.0619 0.64472 0.0
C618 C 0.9959 0.04882 0.61774 0.0
C619 C 0.01212 0.08184 0.63127 0.0
C620 C 0.99862 0.089 0.588 0.0
C621 C 0.98301 0.07612 0.56252 0.0
C622 C 0.98162 0.05613 0.57749 0.0
C623 C 0.00174 0.10954 0.56592 0.0
C624 C 0.98544 0.1219 0.57276 0.0
C625 C 0.0208 0.11698 0.53859 0.0
C626 C 0.03841 0.10448 0.52673 0.0
C627 C 0.03662 0.08677 0.48769 0.0
C628 C 0.05315 0.07488 0.47803 0.0
C629 C 0.07163 0.08063 0.50658 0.0
C630 C 0.07364 0.09835 0.54457 0.0
C631 C 0.05715 0.11028 0.55446 0.0
H632 H 0.0844 0.07139 0.49912 0.0
H633 H 0.92392 0.18705 0.58432 0.0
H634 H 0.3061 0.00131 0.37405 0.0
H635 H 0.33445 0.99519 0.44222 0.0
H636 H 0.35162 0.05765 0.45349 0.0
H637 H 0.32371 0.06355 0.38266 0.0
H638 H 0.3819 0.03919 0.40604 0.0
H639 H 0.33685 0.03029 0.59554 0.0
H640 H 0.30668 0.01747 0.66112 0.0
H641 H 0.32532 0.95834 0.6262 0.0
H642 H 0.35549 0.97077 0.5597 0.0
H643 H 0.4629 0.02939 0.62357 0.0
H644 H 0.43044 0.03683 0.58043 0.0
H645 H 0.4213 0.97652 0.5057 0.0
H646 H 0.45434 0.9691 0.54663 0.0
H647 H 0.38715 0.99433 0.59049 0.0
H648 H 0.43297 0.00558 0.39846 0.0
H649 H 0.46368 0.02062 0.34128 0.0
H650 H 0.44302 0.07841 0.38991 0.0
H651 H 0.41242 0.06364 0.44887 0.0
C652 C 0.31539 0.01377 0.3938 0.0
C653 C 0.31275 0.03289 0.37393 0.0
C654 C 0.33164 0.01029 0.43265 0.0
C655 C 0.34527 0.02596 0.45293 0.0
C656 C 0.34138 0.04532 0.43816 0.0
C657 C 0.32534 0.04874 0.39843 0.0
C658 C 0.36505 0.02185 0.47984 0.0
C659 C 0.38294 0.02967 0.44728 0.0
C660 C 0.36655 0.00903 0.53249 0.0
C661 C 0.34835 0.00146 0.5721 0.0
C662 C 0.33443 0.01453 0.60133 0.0
C663 C 0.31735 0.00734 0.6388 0.0
C664 C 0.31406 0.9871 0.64768 0.0
C665 C 0.32788 0.97401 0.61923 0.0
C666 C 0.34499 0.98113 0.58173 0.0
C667 C 0.45427 0.01783 0.59648 0.0
C668 C 0.46128 0.99875 0.58745 0.0
C669 C 0.43563 0.02205 0.57258 0.0
C670 C 0.42354 0.00719 0.54029 0.0
C671 C 0.43048 0.98813 0.53082 0.0
C672 C 0.44936 0.98397 0.55366 0.0
C673 C 0.40363 0.0117 0.5166 0.0
C674 C 0.38587 0.00391 0.54958 0.0
C675 C 0.4022 0.02481 0.46509 0.0
C676 C 0.42055 0.03356 0.42896 0.0
C677 C 0.4351 0.0215 0.39774 0.0
C678 C 0.45249 0.02997 0.36493 0.0
C679 C 0.45539 0.05048 0.36241 0.0
C680 C 0.44085 0.06255 0.39237 0.0
C681 C 0.4235 0.05414 0.42548 0.0
H682 H 0.46885 0.05702 0.33701 0.0
H683 H 0.30083 0.98156 0.67671 0.0
H684 H 0.48233 0.30744 0.42901 0.0
H685 H 0.48644 0.3371 0.50256 0.0
H686 H 0.43059 0.3574 0.43618 0.0
H687 H 0.4263 0.32778 0.36331 0.0
H688 H 0.46803 0.37848 0.39496 0.0
H689 H 0.43248 0.35389 0.5875 0.0
H690 H 0.4232 0.33331 0.68299 0.0
H691 H 0.48138 0.34872 0.76431 0.0
H692 H 0.49132 0.36892 0.6683 0.0
H693 H 0.48119 0.47679 0.51827 0.0
H694 H 0.46648 0.44333 0.49494 0.0
H695 H 0.51339 0.41966 0.60385 0.0
H696 H 0.52751 0.4533 0.63008 0.0
H697 H 0.47817 0.40023 0.63001 0.0
H698 H 0.51537 0.4207 0.43087 0.0
H699 H 0.52472 0.44223 0.33764 0.0
H700 H 0.46387 0.43399 0.27004 0.0
H701 H 0.45403 0.41273 0.36368 0.0
C702 C 0.47042 0.31776 0.43264 0.0
C703 C 0.4542 0.31556 0.38961 0.0
C704 C 0.47277 0.33467 0.47481 0.0
C705 C 0.45888 0.34947 0.4744 0.0
C706 C 0.44143 0.34612 0.43729 0.0
C707 C 0.43907 0.32927 0.39539 0.0
C708 C 0.46515 0.36991 0.49672 0.0
C709 C 0.46989 0.38332 0.44658 0.0
C710 C 0.46826 0.3759 0.56388 0.0
C711 C 0.4628 0.3627 0.61968 0.0
C712 C 0.44352 0.35255 0.62479 0.0
C713 C 0.43809 0.34101 0.6793 0.0
C714 C 0.45173 0.33961 0.72947 0.0
C715 C 0.47087 0.34971 0.72518 0.0
C716 C 0.47642 0.36118 0.67062 0.0
C717 C 0.48842 0.46441 0.53669 0.0
C718 C 0.50555 0.46744 0.57536 0.0
C719 C 0.48001 0.44533 0.52346 0.0
C720 C 0.48906 0.42896 0.54652 0.0
C721 C 0.50617 0.43205 0.58545 0.0
C722 C 0.51432 0.45119 0.59993 0.0
C723 C 0.48108 0.40862 0.52813 0.0
C724 C 0.47619 0.39529 0.57859 0.0
C725 C 0.47801 0.40247 0.46111 0.0
C726 C 0.48391 0.41529 0.40477 0.0
C727 C 0.50394 0.42362 0.39648 0.0
C728 C 0.50932 0.43576 0.34352 0.0
C729 C 0.49488 0.43951 0.29804 0.0
C730 C 0.47504 0.43106 0.30528 0.0
C731 C 0.46954 0.419 0.35837 0.0
H732 H 0.49908 0.44893 0.2571 0.0
H733 H 0.44744 0.33078 0.77179 0.0
H734 H 0.1926 0.45237 0.34813 0.0
H735 H 0.16345 0.45723 0.42528 0.0
H736 H 0.19378 0.51058 0.50632 0.0
H737 H 0.22285 0.50599 0.42769 0.0
H738 H 0.14962 0.46504 0.55283 0.0
H739 H 0.16101 0.54729 0.49328 0.0
H740 H 0.18137 0.56808 0.41399 0.0
H741 H 0.18264 0.51917 0.27081 0.0
H742 H 0.16161 0.49845 0.34798 0.0
H743 H 0.06416 0.53838 0.62084 0.0
H744 H 0.1002 0.53139 0.60388 0.0
H745 H 0.08323 0.47887 0.48534 0.0
H746 H 0.04722 0.48593 0.50177 0.0
H747 H 0.12261 0.52633 0.47775 0.0
H748 H 0.11672 0.44324 0.53072 0.0
H749 H 0.09546 0.41984 0.59813 0.0
H750 H 0.07999 0.46687 0.73719 0.0
H751 H 0.10178 0.49058 0.67204 0.0
C752 C 0.19339 0.46469 0.38434 0.0
C753 C 0.20968 0.47907 0.38105 0.0
C754 C 0.17676 0.4674 0.42869 0.0
C755 C 0.17623 0.48456 0.47016 0.0
C756 C 0.19381 0.49739 0.4739 0.0
C757 C 0.21045 0.49471 0.4292 0.0
C758 C 0.15619 0.491 0.49651 0.0
C759 C 0.14373 0.47849 0.53688 0.0
C760 C 0.14847 0.50851 0.47517 0.0
C761 C 0.16004 0.52126 0.42687 0.0
C762 C 0.16548 0.54107 0.44461 0.0
C763 C 0.17708 0.55286 0.39995 0.0
C764 C 0.18332 0.54496 0.33743 0.0
C765 C 0.17777 0.52532 0.31913 0.0
C766 C 0.16593 0.51358 0.3632 0.0
C767 C 0.06822 0.52542 0.59088 0.0
C768 C 0.05308 0.5127 0.56239 0.0
C769 C 0.08872 0.52145 0.58134 0.0
C770 C 0.09429 0.50452 0.54405 0.0
C771 C 0.07916 0.49191 0.51486 0.0
C772 C 0.05869 0.49604 0.52361 0.0
C773 C 0.11597 0.5003 0.53368 0.0
C774 C 0.12867 0.51319 0.49558 0.0
C775 C 0.1236 0.48284 0.55541 0.0
C776 C 0.11076 0.46874 0.596 0.0
C777 C 0.10892 0.44861 0.57598 0.0
C778 C 0.09683 0.43529 0.61397 0.0
C779 C 0.0864 0.44192 0.67197 0.0
C780 C 0.08815 0.46185 0.69237 0.0
C781 C 0.10037 0.47523 0.65493 0.0
H782 H 0.07683 0.4317 0.70093 0.0
H783 H 0.19243 0.55406 0.30312 0.0
H784 H 0.92668 0.82753 0.96321 0.0
H785 H 0.93393 0.85486 0.89031 0.0
H786 H 0.98318 0.82425 0.79183 0.0
H787 H 0.97647 0.79719 0.86692 0.0
H788 H 0.99752 0.85651 0.84597 0.0
H789 H 0.94402 0.84208 0.70322 0.0
H790 H 0.90959 0.83228 0.66641 0.0
H791 H 0.88639 0.88335 0.77037 0.0
H792 H 0.9206 0.89328 0.80903 0.0
H793 H 0.02702 0.95058 0.71297 0.0
H794 H 0.01427 0.91588 0.71478 0.0
H795 H 0.96809 0.93127 0.86426 0.0
H796 H 0.98089 0.96605 0.86272 0.0
H797 H 0.95412 0.90456 0.75439 0.0
H798 H 0.00755 0.91289 0.91528 0.0
H799 H 0.04256 0.92228 0.94797 0.0
H800 H 0.066 0.8812 0.79923 0.0
H801 H 0.0311 0.87176 0.76513 0.0
C802 C 0.93852 0.82628 0.9242 0.0
C803 C 0.95131 0.81047 0.92174 0.0
C804 C 0.94259 0.84188 0.88202 0.0
C805 C 0.95931 0.84179 0.83596 0.0
C806 C 0.97031 0.82473 0.82736 0.0
C807 C 0.96634 0.80917 0.87001 0.0
C808 C 0.96791 0.86077 0.80953 0.0
C809 C 0.98811 0.86672 0.82395 0.0
C810 C 0.95568 0.87435 0.78179 0.0
C811 C 0.93493 0.86837 0.75942 0.0
C812 C 0.93156 0.85113 0.71888 0.0
C813 C 0.91206 0.84555 0.69764 0.0
C814 C 0.8958 0.85716 0.71615 0.0
C815 C 0.899 0.87437 0.75605 0.0
C816 C 0.91846 0.87999 0.77762 0.0
C817 C 0.01422 0.94647 0.74647 0.0
C818 C 0.00496 0.9608 0.78807 0.0
C819 C 0.00691 0.92674 0.74713 0.0
C820 C 0.9902 0.9211 0.78936 0.0
C821 C 0.9809 0.93543 0.83095 0.0
C822 C 0.98836 0.95517 0.83075 0.0
C823 C 0.98318 0.90008 0.79329 0.0
C824 C 0.96345 0.89395 0.77468 0.0
C825 C 0.99584 0.88618 0.81646 0.0
C826 C 0.01677 0.89181 0.83714 0.0
C827 C 0.02019 0.906 0.88918 0.0
C828 C 0.04 0.9113 0.90804 0.0
C829 C 0.0565 0.90239 0.87554 0.0
C830 C 0.05321 0.88812 0.82425 0.0
C831 C 0.03342 0.88278 0.80517 0.0
H832 H 0.07183 0.90651 0.89022 0.0
H833 H 0.88074 0.85285 0.69945 0.0
H834 H 0.71123 0.98894 0.95029 0.0
H835 H 0.6827 0.99564 0.88368 0.0
H836 H 0.64842 0.9445 0.9587 0.0
H837 H 0.67709 0.93749 0.02436 0.0
H838 H 0.63824 0.95291 0.82993 0.0
H839 H 0.64467 0.98498 0.04543 0.0
H840 H 0.66351 0.00407 0.13244 0.0
H841 H 0.67178 0.05347 0.00657 0.0
H842 H 0.6534 0.03442 0.91824 0.0
H843 H 0.53824 0.98624 0.82252 0.0
H844 H 0.56956 0.97406 0.86163 0.0
H845 H 0.60298 0.02737 0.79992 0.0
H846 H 0.57166 0.03936 0.76018 0.0
H847 H 0.61403 0.01711 0.91894 0.0
H848 H 0.60309 0.98395 0.70609 0.0
H849 H 0.58526 0.96286 0.62188 0.0
H850 H 0.58462 0.91356 0.74748 0.0
H851 H 0.60192 0.93456 0.83337 0.0
C852 C 0.69805 0.97854 0.94989 0.0
C853 C 0.69622 0.96286 0.99312 0.0
C854 C 0.68168 0.98249 0.91232 0.0
C855 C 0.66332 0.97084 0.91778 0.0
C856 C 0.66242 0.95372 0.95418 0.0
C857 C 0.6788 0.94975 0.99167 0.0
C858 C 0.64431 0.97827 0.89552 0.0
C859 C 0.6328 0.96687 0.8495 0.0
C860 C 0.63732 0.99647 0.92151 0.0
C861 C 0.64788 0.0082 0.97504 0.0
C862 C 0.65065 0.99985 0.03622 0.0
C863 C 0.66123 0.01066 0.08575 0.0
C864 C 0.66887 0.02996 0.07499 0.0
C865 C 0.66588 0.0385 0.01477 0.0
C866 C 0.65539 0.0277 0.96494 0.0
C867 C 0.55233 0.99523 0.81719 0.0
C868 C 0.55273 0.0135 0.78756 0.0
C869 C 0.57016 0.98832 0.83955 0.0
C870 C 0.58869 0.99961 0.8322 0.0
C871 C 0.58887 0.01837 0.80565 0.0
C872 C 0.57099 0.02527 0.78344 0.0
C873 C 0.60792 0.99192 0.85212 0.0
C874 C 0.61943 0.00322 0.89858 0.0
C875 C 0.61466 0.97344 0.82724 0.0
C876 C 0.6036 0.96095 0.77654 0.0
C877 C 0.59887 0.96872 0.7162 0.0
C878 C 0.58888 0.95676 0.66807 0.0
C879 C 0.58376 0.93689 0.67931 0.0
C880 C 0.58858 0.92896 0.73882 0.0
C881 C 0.5984 0.94092 0.78737 0.0
H882 H 0.57606 0.92764 0.6419 0.0
H883 H 0.67707 0.03832 0.11336 0.0
H884 H 0.58096 0.68119 0.02177 0.0
H885 H 0.57314 0.65304 0.94625 0.0
H886 H 0.52499 0.68376 0.86756 0.0
H887 H 0.53223 0.7117 0.94582 0.0
H888 H 0.50989 0.6513 0.91174 0.0
H889 H 0.56518 0.66464 0.75823 0.0
H890 H 0.60028 0.67498 0.72049 0.0
H891 H 0.62301 0.62742 0.82167 0.0
H892 H 0.58801 0.61673 0.85975 0.0
H893 H 0.48245 0.55935 0.7398 0.0
H894 H 0.49497 0.59386 0.75866 0.0
H895 H 0.53914 0.57556 0.89019 0.0
H896 H 0.52659 0.54099 0.87144 0.0
H897 H 0.55513 0.60383 0.79539 0.0
H898 H 0.49781 0.59386 0.95634 0.0
H899 H 0.46196 0.58452 0.98803 0.0
H900 H 0.44233 0.62817 0.8624 0.0
H901 H 0.47809 0.63759 0.82934 0.0
C902 C 0.56915 0.6822 0.9868 0.0
C903 C 0.55697 0.69848 0.99051 0.0
C904 C 0.56478 0.66613 0.943 0.0
C905 C 0.54837 0.66614 0.90112 0.0
C906 C 0.53765 0.68333 0.8996 0.0
C907 C 0.54192 0.6994 0.94396 0.0
C908 C 0.54019 0.64717 0.86977 0.0
C909 C 0.51971 0.6412 0.8845 0.0
C910 C 0.55292 0.63375 0.83505 0.0
C911 C 0.57399 0.6399 0.81187 0.0
C912 C 0.57768 0.6564 0.77251 0.0
C913 C 0.59754 0.66229 0.75092 0.0
C914 C 0.61385 0.65181 0.7685 0.0
C915 C 0.61033 0.63542 0.8077 0.0
C916 C 0.59048 0.62937 0.82901 0.0
C917 C 0.49466 0.56278 0.77333 0.0
C918 C 0.50346 0.54766 0.80477 0.0
C919 C 0.50188 0.58242 0.78368 0.0
C920 C 0.51799 0.58722 0.82567 0.0
C921 C 0.52676 0.57211 0.85732 0.0
C922 C 0.51942 0.55245 0.84739 0.0
C923 C 0.52513 0.60808 0.83902 0.0
C924 C 0.54532 0.61425 0.82105 0.0
C925 C 0.51204 0.62186 0.86961 0.0
C926 C 0.49058 0.61626 0.88982 0.0
C927 C 0.48584 0.60135 0.93509 0.0
C928 C 0.46554 0.59607 0.95337 0.0
C929 C 0.44987 0.60571 0.92709 0.0
C930 C 0.45448 0.62069 0.88262 0.0
C931 C 0.47475 0.62601 0.86413 0.0
H932 H 0.43416 0.6016 0.9413 0.0
H933 H 0.62923 0.65641 0.75183 0.0
H934 H 0.80016 0.50038 0.95382 0.0
H935 H 0.83145 0.49835 0.88328 0.0
H936 H 0.85282 0.55599 0.95957 0.0
H937 H 0.82169 0.55789 0.03067 0.0
H938 H 0.86693 0.54689 0.82425 0.0
H939 H 0.86552 0.52259 0.04504 0.0
H940 H 0.85066 0.50339 0.13828 0.0
H941 H 0.85294 0.44998 0.01583 0.0
H942 H 0.86784 0.46895 0.92172 0.0
H943 H 0.97487 0.52339 0.88976 0.0
H944 H 0.93915 0.52876 0.92043 0.0
H945 H 0.92105 0.49928 0.73649 0.0
H946 H 0.95672 0.49263 0.70755 0.0
H947 H 0.90473 0.49476 0.91871 0.0
H948 H 0.88383 0.5418 0.70028 0.0
H949 H 0.89946 0.56742 0.62764 0.0
H950 H 0.94477 0.58282 0.77014 0.0
H951 H 0.92912 0.55786 0.84423 0.0
C952 C 0.81109 0.513 0.95277 0.0
C953 C 0.80863 0.52932 0.99708 0.0
C954 C 0.82897 0.5118 0.91288 0.0
C955 C 0.84447 0.52695 0.91687 0.0
C956 C 0.84098 0.54422 0.95558 0.0
C957 C 0.82322 0.54532 0.996 0.0
C958 C 0.86542 0.52327 0.89195 0.0
C959 C 0.87513 0.53528 0.84379 0.0
C960 C 0.87631 0.5087 0.91993 0.0
C961 C 0.86756 0.49718 0.97627 0.0
C962 C 0.86272 0.50676 0.03792 0.0
C963 C 0.85432 0.49593 0.09093 0.0
C964 C 0.85073 0.47548 0.08289 0.0
C965 C 0.85568 0.46582 0.02192 0.0
C966 C 0.86415 0.4766 0.96877 0.0
C967 C 0.96327 0.51792 0.85607 0.0
C968 C 0.96854 0.50792 0.79568 0.0
C969 C 0.94294 0.52111 0.87346 0.0
C970 C 0.92763 0.51481 0.82995 0.0
C971 C 0.93276 0.50458 0.76999 0.0
C972 C 0.95308 0.50086 0.75349 0.0
C973 C 0.90616 0.51801 0.84939 0.0
C974 C 0.89639 0.50595 0.89724 0.0
C975 C 0.89555 0.53305 0.82284 0.0
C976 C 0.90566 0.54747 0.77693 0.0
C977 C 0.89722 0.55056 0.71585 0.0
C978 C 0.90602 0.56508 0.67457 0.0
C979 C 0.92332 0.57652 0.69369 0.0
C980 C 0.93166 0.57369 0.7546 0.0
C981 C 0.92284 0.55933 0.79625 0.0
H982 H 0.93014 0.58771 0.66163 0.0
H983 H 0.84419 0.46712 0.12398 0.0
H984 H 0.01593 0.21444 0.14082 0.0
H985 H 0.02041 0.18921 0.05101 0.0
H986 H 0.0793 0.17857 0.1213 0.0
H987 H 0.07467 0.20363 0.21148 0.0
H988 H 0.04759 0.1771 0.94753 0.0
H989 H 0.07946 0.12975 0.14179 0.0
H990 H 0.07966 0.12749 0.26375 0.0
H991 H 0.02221 0.15404 0.28601 0.0
H992 H 0.02169 0.15646 0.16428 0.0
H993 H 0.05973 0.06223 0.89958 0.0
H994 H 0.06867 0.09433 0.95565 0.0
H995 H 0.01318 0.11659 0.89297 0.0
H996 H 0.00452 0.08493 0.83596 0.0
H997 H 0.04891 0.11317 0.05603 0.0
H998 H 0.0187 0.16489 0.86799 0.0
H999 H 0.01443 0.16512 0.74707 0.0
H1000 H 0.06444 0.12796 0.71109 0.0
H1001 H 0.06923 0.12776 0.83159 0.0
C1002 C 0.03024 0.20739 0.13479 0.0
C1003 C 0.04506 0.21097 0.18222 0.0
C1004 C 0.03276 0.19295 0.08377 0.0
C1005 C 0.05004 0.18183 0.08026 0.0
C1006 C 0.0658 0.18691 0.12351 0.0
C1007 C 0.06325 0.2013 0.17456 0.0
C1008 C 0.04987 0.16299 0.04001 0.0
C1009 C 0.04793 0.1631 0.97098 0.0
C1010 C 0.05045 0.14475 0.07079 0.0
C1011 C 0.05069 0.1435 0.14407 0.0
C1012 C 0.0669 0.13513 0.17278 0.0
C1013 C 0.06708 0.13385 0.24184 0.0
C1014 C 0.05101 0.14073 0.28262 0.0
C1015 C 0.03471 0.14886 0.2544 0.0
C1016 C 0.0345 0.15024 0.18541 0.0
C1017 C 0.04955 0.07405 0.89771 0.0
C1018 C 0.03147 0.07117 0.86361 0.0
C1019 C 0.05466 0.09234 0.92954 0.0
C1020 C 0.04178 0.10797 0.92741 0.0
C1021 C 0.02361 0.10494 0.89386 0.0
C1022 C 0.01859 0.08677 0.86185 0.0
C1023 C 0.04659 0.12715 0.96326 0.0
C1024 C 0.0492 0.12712 0.03187 0.0
C1025 C 0.04635 0.14538 0.932 0.0
C1026 C 0.04424 0.14623 0.85904 0.0
C1027 C 0.02892 0.15693 0.83428 0.0
C1028 C 0.02637 0.15701 0.76577 0.0
C1029 C 0.03911 0.14652 0.72142 0.0
C1030 C 0.05453 0.13604 0.74546 0.0
C1031 C 0.05717 0.13594 0.81388 0.0
H1032 H 0.03704 0.14653 0.66846 0.0
H1033 H 0.05115 0.1397 0.33604 0.0
H1034 H 0.32624 0.06761 0.14416 0.0
H1035 H 0.35553 0.0642 0.06531 0.0
H1036 H 0.338 0.00237 0.03274 0.0
H1037 H 0.30845 0.00588 0.11056 0.0
H1038 H 0.3776 0.01161 0.08532 0.0
H1039 H 0.33756 0.02903 0.90617 0.0
H1040 H 0.315 0.04975 0.84984 0.0
H1041 H 0.35994 0.09835 0.85961 0.0
H1042 H 0.38268 0.078 0.91677 0.0
H1043 H 0.45939 0.98729 0.85963 0.0
H1044 H 0.42742 0.9916 0.92347 0.0
H1045 H 0.43614 0.05474 0.90717 0.0
H1046 H 0.46765 0.05034 0.84029 0.0
H1047 H 0.39999 0.04459 0.87758 0.0
H1048 H 0.43935 0.03002 0.05952 0.0
H1049 H 0.46242 0.01165 0.12261 0.0
H1050 H 0.42001 0.96093 0.11736 0.0
H1051 H 0.39678 0.97893 0.05359 0.0
C1052 C 0.32813 0.05356 0.11752 0.0
C1053 C 0.31502 0.03706 0.13233 0.0
C1054 C 0.3449 0.05158 0.07297 0.0
C1055 C 0.34894 0.03301 0.04354 0.0
C1056 C 0.33507 0.01682 0.05487 0.0
C1057 C 0.31811 0.01887 0.09862 0.0
C1058 C 0.36893 0.03001 0.0089 0.0
C1059 C 0.38244 0.01851 0.03919 0.0
C1060 C 0.37543 0.03976 0.95055 0.0
C1061 C 0.36175 0.05204 0.91633 0.0
C1062 C 0.34256 0.04419 0.89688 0.0
C1063 C 0.32976 0.05586 0.86465 0.0
C1064 C 0.33601 0.07537 0.85131 0.0
C1065 C 0.3551 0.08324 0.87003 0.0
C1066 C 0.36797 0.07164 0.90226 0.0
C1067 C 0.45477 0.00212 0.87115 0.0
C1068 C 0.46604 0.01849 0.84517 0.0
C1069 C 0.43643 0.0046 0.90772 0.0
C1070 C 0.42931 0.02354 0.92062 0.0
C1071 C 0.44118 0.03997 0.89759 0.0
C1072 C 0.45928 0.03747 0.85985 0.0
C1073 C 0.40889 0.02611 0.95392 0.0
C1074 C 0.39527 0.03759 0.92359 0.0
C1075 C 0.40243 0.01669 0.01323 0.0
C1076 C 0.41642 0.00577 0.05118 0.0
C1077 C 0.43502 0.0149 0.07134 0.0
C1078 C 0.44811 0.00456 0.10734 0.0
C1079 C 0.44271 0.98512 0.12382 0.0
C1080 C 0.42419 0.97598 0.10448 0.0
C1081 C 0.41105 0.98625 0.06848 0.0
H1082 H 0.45286 0.97714 0.15171 0.0
H1083 H 0.32608 0.08438 0.82635 0.0
H1084 H 0.42853 0.32007 0.16377 0.0
H1085 H 0.43264 0.34119 0.06876 0.0
H1086 H 0.49013 0.31667 0.01274 0.0
H1087 H 0.48613 0.29561 0.10868 0.0
H1088 H 0.49455 0.35557 0.02558 0.0
H1089 H 0.45028 0.31043 0.90941 0.0
H1090 H 0.42008 0.28813 0.88805 0.0
H1091 H 0.38184 0.33698 0.91313 0.0
H1092 H 0.41177 0.35956 0.93566 0.0
H1093 H 0.50694 0.42151 0.75952 0.0
H1094 H 0.50035 0.3896 0.81072 0.0
H1095 H 0.44905 0.41215 0.92452 0.0
H1096 H 0.45576 0.44428 0.87416 0.0
H1097 H 0.44359 0.37073 0.86541 0.0
H1098 H 0.4885 0.41386 0.0017 0.0
H1099 H 0.5193 0.43574 0.01923 0.0
H1100 H 0.55692 0.38893 0.95049 0.0
H1101 H 0.52628 0.36685 0.93167 0.0
C1102 C 0.4418 0.31882 0.13017 0.0
C1103 C 0.45706 0.30628 0.14378 0.0
C1104 C 0.44409 0.33083 0.07558 0.0
C1105 C 0.46169 0.33054 0.03336 0.0
C1106 C 0.4764 0.31713 0.04454 0.0
C1107 C 0.47404 0.305 0.09906 0.0
C1108 C 0.46584 0.34605 0.98385 0.0
C1109 C 0.48358 0.35852 0.9895 0.0
C1110 C 0.45144 0.35022 0.93733 0.0
C1111 C 0.43329 0.33668 0.92485 0.0
C1112 C 0.43541 0.3164 0.91113 0.0
C1113 C 0.41834 0.30371 0.89861 0.0
C1114 C 0.39905 0.31112 0.89938 0.0
C1115 C 0.39679 0.33125 0.91259 0.0
C1116 C 0.41382 0.34401 0.92515 0.0
C1117 C 0.49416 0.41962 0.79508 0.0
C1118 C 0.482 0.43542 0.81366 0.0
C1119 C 0.49038 0.40138 0.82403 0.0
C1120 C 0.47428 0.39858 0.87153 0.0
C1121 C 0.46151 0.41403 0.88774 0.0
C1122 C 0.46542 0.43238 0.85934 0.0
C1123 C 0.47192 0.38024 0.90886 0.0
C1124 C 0.45459 0.3674 0.90086 0.0
C1125 C 0.48673 0.37558 0.95296 0.0
C1126 C 0.50512 0.38881 0.96447 0.0
C1127 C 0.50334 0.4083 0.98971 0.0
C1128 C 0.52076 0.42073 2e-05 0.0
C1129 C 0.54005 0.41376 0.98575 0.0
C1130 C 0.54196 0.39433 0.96136 0.0
C1131 C 0.52458 0.38185 0.95089 0.0
H1132 H 0.55353 0.42339 0.99379 0.0
H1133 H 0.38585 0.30128 0.88962 0.0
H1134 H 0.23098 0.50963 0.09992 0.0
H1135 H 0.20893 0.51367 0.00765 0.0
H1136 H 0.17097 0.46277 0.06717 0.0
H1137 H 0.19342 0.45813 0.15668 0.0
H1138 H 0.1724 0.46318 0.93874 0.0
H1139 H 0.159 0.51296 0.11796 0.0
H1140 H 0.16788 0.54145 0.19409 0.0
H1141 H 0.19002 0.57531 0.02818 0.0
H1142 H 0.18089 0.54715 0.95091 0.0
H1143 H 0.07144 0.48017 0.87414 0.0
H1144 H 0.10416 0.4761 0.92223 0.0
H1145 H 0.13168 0.52394 0.80887 0.0
H1146 H 0.09887 0.52798 0.76004 0.0
H1147 H 0.14028 0.52729 0.94306 0.0
H1148 H 0.14782 0.47896 0.76354 0.0
H1149 H 0.13689 0.45094 0.6886 0.0
H1150 H 0.12408 0.41464 0.85602 0.0
H1151 H 0.13556 0.44231 0.93194 0.0
C1152 C 0.21825 0.49901 0.09207 0.0
C1153 C 0.21376 0.48374 0.13616 0.0
C1154 C 0.2055 0.50147 0.03986 0.0
C1155 C 0.18795 0.48883 0.03139 0.0
C1156 C 0.18429 0.47282 0.07274 0.0
C1157 C 0.19708 0.47026 0.1243 0.0
C1158 C 0.17254 0.49275 0.98294 0.0
C1159 C 0.16542 0.47722 0.93977 0.0
C1160 C 0.16368 0.51119 0.98254 0.0
C1161 C 0.16953 0.52792 0.02889 0.0
C1162 C 0.1659 0.52645 0.09785 0.0
C1163 C 0.17094 0.54252 0.14115 0.0
C1164 C 0.17971 0.56008 0.1161 0.0
C1165 C 0.1833 0.56167 0.04756 0.0
C1166 C 0.17811 0.5457 0.00396 0.0
C1167 C 0.08447 0.48979 0.85941 0.0
C1168 C 0.08265 0.50444 0.81371 0.0
C1169 C 0.10319 0.48735 0.88641 0.0
C1170 C 0.1204 0.49957 0.86847 0.0
C1171 C 0.1186 0.5143 0.82304 0.0
C1172 C 0.09988 0.51663 0.79549 0.0
C1173 C 0.13984 0.49758 0.90074 0.0
C1174 C 0.14765 0.51343 0.94086 0.0
C1175 C 0.14925 0.47945 0.89855 0.0
C1176 C 0.14246 0.46271 0.85336 0.0
C1177 C 0.14264 0.465 0.78436 0.0
C1178 C 0.1364 0.44917 0.74171 0.0
C1179 C 0.1296 0.43107 0.76753 0.0
C1180 C 0.12932 0.42868 0.83608 0.0
C1181 C 0.13587 0.44438 0.87891 0.0
H1182 H 0.12461 0.41889 0.73441 0.0
H1183 H 0.18363 0.57249 0.14978 0.0
H1184 H 0.98312 0.83355 0.10401 0.0
H1185 H 0.99057 0.85505 0.20033 0.0
H1186 H 0.95857 0.81311 0.3286 0.0
H1187 H 0.9501 0.79165 0.23047 0.0
H1188 H 0.948 0.84922 0.36298 0.0
H1189 H 0.01102 0.82063 0.32932 0.0
H1190 H 0.04117 0.8081 0.26792 0.0
H1191 H 0.05922 0.86651 0.20621 0.0
H1192 H 0.02902 0.87937 0.26638 0.0
H1193 H 0.98209 0.92129 0.6152 0.0
H1194 H 0.9776 0.8897 0.55204 0.0
H1195 H 0.99956 0.91796 0.37267 0.0
H1196 H 0.00423 0.94953 0.43573 0.0
H1197 H 0.01669 0.88247 0.3876 0.0
H1198 H 0.9487 0.90823 0.40813 0.0
H1199 H 0.91883 0.91974 0.47405 0.0
H1200 H 0.91125 0.86429 0.56854 0.0
H1201 H 0.94131 0.85257 0.50405 0.0
C1202 C 0.97752 0.82887 0.15259 0.0
C1203 C 0.96571 0.81104 0.15952 0.0
C1204 C 0.98209 0.84107 0.20791 0.0
C1205 C 0.97543 0.83559 0.27199 0.0
C1206 C 0.96396 0.81758 0.2796 0.0
C1207 C 0.95923 0.80531 0.2237 0.0
C1208 C 0.97962 0.84953 0.32951 0.0
C1209 C 0.96313 0.85612 0.36953 0.0
C1210 C 0.99935 0.85856 0.33837 0.0
C1211 C 0.01768 0.85096 0.30233 0.0
C1212 C 0.02135 0.8308 0.30237 0.0
C1213 C 0.03847 0.82363 0.2678 0.0
C1214 C 0.0521 0.8365 0.23317 0.0
C1215 C 0.04866 0.85656 0.23313 0.0
C1216 C 0.03156 0.86381 0.26759 0.0
C1217 C 0.98593 0.92074 0.56224 0.0
C1218 C 0.9934 0.93782 0.53005 0.0
C1219 C 0.98335 0.9027 0.52632 0.0
C1220 C 0.98814 0.90152 0.45764 0.0
C1221 C 0.99581 0.91856 0.42569 0.0
C1222 C 0.99838 0.93659 0.46156 0.0
C1223 C 0.98496 0.88271 0.41815 0.0
C1224 C 0.00169 0.87519 0.38195 0.0
C1225 C 0.96555 0.87264 0.41374 0.0
C1226 C 0.94736 0.87961 0.4518 0.0
C1227 C 0.94074 0.89855 0.44334 0.0
C1228 C 0.92379 0.9051 0.48046 0.0
C1229 C 0.91321 0.89278 0.52573 0.0
C1230 C 0.91952 0.87384 0.53376 0.0
C1231 C 0.9365 0.86724 0.4969 0.0
H1232 H 0.90009 0.89788 0.55444 0.0
H1233 H 0.06534 0.83092 0.2064 0.0
H1234 H 0.6943 0.94074 0.25204 0.0
H1235 H 0.66547 0.94575 0.33138 0.0
H1236 H 0.67225 0.00844 0.30324 0.0
H1237 H 0.70147 0.00342 0.22578 0.0
H1238 H 0.6579 0.00183 0.42662 0.0
H1239 H 0.64221 0.97817 0.20648 0.0
H1240 H 0.64333 0.95558 0.10693 0.0
H1241 H 0.61579 0.90837 0.22101 0.0
H1242 H 0.61498 0.9305 0.32178 0.0
H1243 H 0.55568 0.02416 0.50118 0.0
H1244 H 0.58723 0.01919 0.43538 0.0
H1245 H 0.58248 0.9575 0.47869 0.0
H1246 H 0.55083 0.96222 0.54402 0.0
H1247 H 0.59594 0.96382 0.34927 0.0
H1248 H 0.6109 0.99062 0.57062 0.0
H1249 H 0.6087 0.01566 0.66336 0.0
H1250 H 0.63656 0.05992 0.53757 0.0
H1251 H 0.63844 0.03537 0.44355 0.0
C1252 C 0.69025 0.95564 0.26571 0.0
C1253 C 0.70018 0.97174 0.23396 0.0
C1254 C 0.67362 0.95849 0.31014 0.0
C1255 C 0.66639 0.97742 0.32185 0.0
C1256 C 0.67752 0.99371 0.29485 0.0
C1257 C 0.69431 0.99088 0.25109 0.0
C1258 C 0.64607 0.97995 0.35529 0.0
C1259 C 0.64434 0.9936 0.40949 0.0
C1260 C 0.62833 0.96927 0.33266 0.0
C1261 C 0.62875 0.95595 0.27194 0.0
C1262 C 0.63655 0.96293 0.21053 0.0
C1263 C 0.63712 0.95023 0.15385 0.0
C1264 C 0.62965 0.93058 0.15764 0.0
C1265 C 0.6216 0.92359 0.21817 0.0
C1266 C 0.62111 0.9362 0.27512 0.0
C1267 C 0.56108 0.00943 0.49571 0.0
C1268 C 0.5508 0.99363 0.5286 0.0
C1269 C 0.57922 0.00667 0.45843 0.0
C1270 C 0.58742 0.98807 0.45347 0.0
C1271 C 0.57649 0.972 0.48235 0.0
C1272 C 0.55838 0.97475 0.51972 0.0
C1273 C 0.60782 0.98551 0.42098 0.0
C1274 C 0.60953 0.97192 0.3667 0.0
C1275 C 0.62545 0.99654 0.44268 0.0
C1276 C 0.62464 0.01117 0.49982 0.0
C1277 C 0.61642 0.00572 0.56258 0.0
C1278 C 0.61524 0.01981 0.61538 0.0
C1279 C 0.62248 0.03931 0.60635 0.0
C1280 C 0.63094 0.0448 0.54449 0.0
C1281 C 0.63205 0.03082 0.49141 0.0
H1282 H 0.62155 0.05017 0.64733 0.0
H1283 H 0.63006 0.9208 0.11364 0.0
H1284 H 0.52673 0.68243 0.18988 0.0
H1285 H 0.52194 0.66275 0.28697 0.0
H1286 H 0.56082 0.70487 0.39664 0.0
H1287 H 0.56662 0.72438 0.29657 0.0
H1288 H 0.57053 0.66924 0.4201 0.0
H1289 H 0.50843 0.69907 0.4374 0.0
H1290 H 0.47697 0.71238 0.40228 0.0
H1291 H 0.45458 0.65418 0.33792 0.0
H1292 H 0.48603 0.64053 0.37164 0.0
H1293 H 0.53637 0.59337 0.66105 0.0
H1294 H 0.54113 0.62643 0.61534 0.0
H1295 H 0.52438 0.6017 0.42309 0.0
H1296 H 0.52007 0.56883 0.46771 0.0
H1297 H 0.50276 0.6368 0.47845 0.0
H1298 H 0.57163 0.61126 0.44154 0.0
H1299 H 0.60257 0.59948 0.4865 0.0
H1300 H 0.61046 0.65329 0.60575 0.0
H1301 H 0.57935 0.66524 0.56226 0.0
C1302 C 0.5343 0.68759 0.23456 0.0
C1303 C 0.54731 0.70483 0.23519 0.0
C1304 C 0.53129 0.67644 0.29065 0.0
C1305 C 0.54071 0.68243 0.3499 0.0
C1306 C 0.55329 0.69999 0.35165 0.0
C1307 C 0.55648 0.71118 0.29472 0.0
C1308 C 0.53819 0.66929 0.40726 0.0
C1309 C 0.55563 0.66259 0.43426 0.0
C1310 C 0.51877 0.66073 0.4272 0.0
C1311 C 0.49966 0.66877 0.40713 0.0
C1312 C 0.49685 0.68911 0.41549 0.0
C1313 C 0.479 0.69672 0.39582 0.0
C1314 C 0.46379 0.68413 0.3679 0.0
C1315 C 0.46637 0.66391 0.35967 0.0
C1316 C 0.48419 0.65622 0.37923 0.0
C1317 C 0.53391 0.59504 0.6089 0.0
C1318 C 0.52791 0.57859 0.56769 0.0
C1319 C 0.53657 0.61388 0.58303 0.0
C1320 C 0.53298 0.61645 0.51599 0.0
C1321 C 0.52712 0.6 0.47503 0.0
C1322 C 0.52476 0.58123 0.50046 0.0
C1323 C 0.53507 0.63614 0.48706 0.0
C1324 C 0.51752 0.64403 0.46583 0.0
C1325 C 0.55425 0.64611 0.47423 0.0
C1326 C 0.5731 0.63905 0.49916 0.0
C1327 C 0.57989 0.62051 0.47769 0.0
C1328 C 0.59745 0.61381 0.5029 0.0
C1329 C 0.60842 0.6256 0.5492 0.0
C1330 C 0.6019 0.64415 0.57013 0.0
C1331 C 0.58433 0.6509 0.54518 0.0
H1332 H 0.622 0.62038 0.56871 0.0
H1333 H 0.44999 0.69006 0.35266 0.0
H1334 H 0.78935 0.5408 0.29284 0.0
H1335 H 0.81308 0.53796 0.38176 0.0
H1336 H 0.83739 0.48727 0.27605 0.0
H1337 H 0.81348 0.48986 0.18865 0.0
H1338 H 0.8388 0.48345 0.40699 0.0
H1339 H 0.85782 0.5332 0.24944 0.0
H1340 H 0.85283 0.56281 0.18763 0.0
H1341 H 0.84886 0.59754 0.37118 0.0
H1342 H 0.85349 0.56801 0.43419 0.0
H1343 H 0.94516 0.49111 0.45939 0.0
H1344 H 0.91176 0.49123 0.41101 0.0
H1345 H 0.8932 0.53428 0.5624 0.0
H1346 H 0.92658 0.5339 0.61175 0.0
H1347 H 0.8861 0.54318 0.42511 0.0
H1348 H 0.87327 0.49161 0.57911 0.0
H1349 H 0.88048 0.46102 0.6319 0.0
H1350 H 0.87552 0.42861 0.44448 0.0
H1351 H 0.86859 0.45909 0.39029 0.0
C1352 C 0.79923 0.52863 0.29026 0.0
C1353 C 0.79976 0.5156 0.23411 0.0
C1354 C 0.81289 0.5271 0.34059 0.0
C1355 C 0.8273 0.51263 0.33488 0.0
C1356 C 0.82648 0.49856 0.28163 0.0
C1357 C 0.81285 0.50006 0.23166 0.0
C1358 C 0.84484 0.51351 0.37872 0.0
C1359 C 0.84911 0.49652 0.41109 0.0
C1360 C 0.85831 0.53058 0.38428 0.0
C1361 C 0.85575 0.54838 0.34655 0.0
C1362 C 0.85574 0.54713 0.27664 0.0
C1363 C 0.85299 0.56389 0.24139 0.0
C1364 C 0.85047 0.58204 0.27548 0.0
C1365 C 0.85076 0.58346 0.34488 0.0
C1366 C 0.85344 0.56672 0.38039 0.0
C1367 C 0.93394 0.50058 0.48234 0.0
C1368 C 0.93838 0.51261 0.53903 0.0
C1369 C 0.91488 0.50058 0.45488 0.0
C1370 C 0.90004 0.51273 0.48337 0.0
C1371 C 0.90449 0.52484 0.5398 0.0
C1372 C 0.92348 0.52463 0.5678 0.0
C1373 C 0.88009 0.51309 0.45283 0.0
C1374 C 0.8755 0.53028 0.42246 0.0
C1375 C 0.8666 0.49608 0.44799 0.0
C1376 C 0.87055 0.47768 0.48054 0.0
C1377 C 0.87387 0.478 0.54902 0.0
C1378 C 0.87788 0.46066 0.57923 0.0
C1379 C 0.87849 0.44288 0.54154 0.0
C1380 C 0.87504 0.44239 0.4736 0.0
C1381 C 0.87105 0.45969 0.44313 0.0
H1382 H 0.8816 0.42948 0.56501 0.0
H1383 H 0.84835 0.595 0.24812 0.0
loop_
_geom_bond_atom_site_label_1
_geom_bond_atom_site_label_2
_geom_bond_distance
_geom_bond_site_symmetry_2
_ccdc_geom_bond_type
H0 C7 0.929 . S
H1 C10 0.930 1_556 S
H2 C12 0.929 . S
H3 C4 0.969 . S
C4 H3 0.969 . S
C4 O5 1.550 . S
C4 H6 0.973 1_554 S
O5 C4 1.550 . S
O5 C11 1.412 . S
H6 C4 0.973 1_556 S
C7 H0 0.929 . S
C7 C8 1.400 . S
C7 C9 1.364 . S
C8 C7 1.400 . S
C8 C12 1.377 . S
C9 C7 1.364 . S
C9 C10 1.374 . S
C10 H1 0.930 1_554 S
C10 C9 1.374 . S
C10 C11 1.383 . S
C11 O5 1.412 . S
C11 C10 1.383 . S
C11 C12 1.394 . S
C12 H2 0.929 . S
C12 C8 1.377 . S
C12 C11 1.394 . S
H13 C20 0.929 . S
H14 C23 0.930 . S
H15 C25 0.929 . S
H16 C17 0.969 . S
C17 H16 0.969 . S
C17 O18 1.550 1_556 S
C17 H19 0.973 . S
O18 C17 1.550 1_554 S
O18 C24 1.412 . S
H19 C17 0.973 . S
C20 H13 0.929 . S
C20 C21 1.400 . S
C20 C22 1.364 1_554 S
C21 C20 1.400 . S
C21 C25 1.377 . S
C22 C20 1.364 1_556 S
C22 C23 1.374 . S
C23 H14 0.930 . S
C23 C22 1.374 . S
C23 C24 1.383 1_556 S
C24 O18 1.412 . S
C24 C23 1.383 1_554 S
C24 C25 1.394 . S
C25 H15 0.929 . S
C25 C21 1.377 . S
C25 C24 1.394 . S
H26 C33 0.929 . S
H27 C36 0.930 1_556 S
H28 C38 0.929 . S
H29 C30 0.969 1_556 S
C30 H29 0.969 1_554 S
C30 O31 1.550 . S
C30 H32 0.973 1_554 S
O31 C30 1.550 . S
O31 C37 1.412 . S
H32 C30 0.973 1_556 S
C33 H26 0.929 . S
C33 C34 1.400 . S
C33 C35 1.364 . S
C34 C33 1.400 . S
C34 C38 1.377 . S
C35 C33 1.364 . S
C35 C36 1.374 . S
C36 H27 0.930 1_554 S
C36 C35 1.374 . S
C36 C37 1.383 . S
C37 O31 1.412 . S
C37 C36 1.383 . S
C37 C38 1.394 . S
C38 H28 0.929 . S
C38 C34 1.377 . S
C38 C37 1.394 . S
H39 C46 0.929 . S
H40 C49 0.930 1_556 S
H41 C51 0.929 . S
H42 C43 0.969 . S
C43 H42 0.969 . S
C43 O44 1.550 . S
C43 H45 0.973 1_554 S
O44 C43 1.550 . S
O44 C50 1.412 . S
H45 C43 0.973 1_556 S
C46 H39 0.929 . S
C46 C47 1.400 . S
C46 C48 1.364 . S
C47 C46 1.400 . S
C47 C51 1.377 . S
C48 C46 1.364 . S
C48 C49 1.374 . S
C49 H40 0.930 1_554 S
C49 C48 1.374 . S
C49 C50 1.383 . S
C50 O44 1.412 . S
C50 C49 1.383 . S
C50 C51 1.394 . S
C51 H41 0.929 . S
C51 C47 1.377 . S
C51 C50 1.394 . S
H52 C59 0.929 . S
H53 C62 0.930 . S
H54 C64 0.929 . S
H55 C56 0.969 . S
C56 H55 0.969 . S
C56 O57 1.550 . S
C56 H58 0.973 . S
O57 C56 1.550 . S
O57 C63 1.412 . S
H58 C56 0.973 . S
C59 H52 0.929 . S
C59 C60 1.400 . S
C59 C61 1.364 . S
C60 C59 1.400 . S
C60 C64 1.377 . S
C61 C59 1.364 . S
C61 C62 1.374 . S
C62 H53 0.930 . S
C62 C61 1.374 . S
C62 C63 1.383 . S
C63 O57 1.412 . S
C63 C62 1.383 . S
C63 C64 1.394 . S
C64 H54 0.929 . S
C64 C60 1.377 . S
C64 C63 1.394 . S
H65 C72 0.929 . S
H66 C75 0.930 . S
H67 C77 0.929 . S
H68 C69 0.969 . S
C69 H68 0.969 . S
C69 O70 1.550 . S
C69 H71 0.973 . S
O70 C69 1.550 . S
O70 C76 1.412 . S
H71 C69 0.973 . S
C72 H65 0.929 . S
C72 C73 1.400 . S
C72 C74 1.364 . S
C73 C72 1.400 . S
C73 C77 1.377 . S
C74 C72 1.364 . S
C74 C75 1.374 . S
C75 H66 0.930 . S
C75 C74 1.374 . S
C75 C76 1.383 . S
C76 O70 1.412 . S
C76 C75 1.383 . S
C76 C77 1.394 . S
C77 H67 0.929 . S
C77 C73 1.377 . S
C77 C76 1.394 . S
H78 C85 0.929 . S
H79 C88 0.930 . S
H80 C90 0.929 . S
H81 C82 0.969 . S
C82 H81 0.969 . S
C82 O83 1.550 . S
C82 H84 0.973 . S
O83 C82 1.550 . S
O83 C89 1.412 . S
H84 C82 0.973 . S
C85 H78 0.929 . S
C85 C86 1.400 . S
C85 C87 1.364 . S
C86 C85 1.400 . S
C86 C90 1.377 . S
C87 C85 1.364 . S
C87 C88 1.374 . S
C88 H79 0.930 . S
C88 C87 1.374 . S
C88 C89 1.383 . S
C89 O83 1.412 . S
C89 C88 1.383 . S
C89 C90 1.394 . S
C90 H80 0.929 . S
C90 C86 1.377 . S
C90 C89 1.394 . S
H91 C98 0.929 . S
H92 C101 0.930 . S
H93 C103 0.929 . S
H94 C95 0.969 . S
C95 H94 0.969 . S
C95 O96 1.550 . S
C95 H97 0.973 . S
O96 C95 1.550 . S
O96 C102 1.412 . S
H97 C95 0.973 . S
C98 H91 0.929 . S
C98 C99 1.400 . S
C98 C100 1.364 . S
C99 C98 1.400 . S
C99 C103 1.377 . S
C100 C98 1.364 . S
C100 C101 1.374 . S
C101 H92 0.930 . S
C101 C100 1.374 . S
C101 C102 1.383 . S
C102 O96 1.412 . S
C102 C101 1.383 . S
C102 C103 1.394 . S
C103 H93 0.929 . S
C103 C99 1.377 . S
C103 C102 1.394 . S
Tb104 O107 2.453 1_565 S
Tb104 O108 2.596 1_665 S
Tb104 O109 2.374 1_665 S
Tb104 O117 2.343 1_655 S
Tb104 O119 2.353 1_565 S
Tb104 O121 2.427 . S
Tb104 O122 2.513 1_655 S
C105 O109 1.251 . S
C105 O111 1.263 . S
Tb106 O108 2.343 . S
Tb106 O111 2.353 . S
Tb106 O114 2.427 . S
Tb106 O115 2.513 . S
Tb106 O116 2.453 1_545 S
Tb106 O117 2.596 1_545 S
Tb106 O118 2.374 1_455 S
O107 Tb104 2.453 1_545 S
O107 C123 1.245 1_655 S
O108 Tb104 2.596 1_445 S
O108 Tb106 2.343 . S
O108 C123 1.259 . S
O109 Tb104 2.374 1_445 S
O109 C105 1.251 . S
C110 O114 1.275 . S
C110 O115 1.246 . S
O111 C105 1.263 . S
O111 Tb106 2.353 . S
C112 O116 1.245 . S
C112 O117 1.259 . S
C113 O118 1.250 . S
C113 O119 1.263 . S
O114 Tb106 2.427 . S
O114 C110 1.275 . S
O115 Tb106 2.513 . S
O115 C110 1.246 . S
O116 Tb106 2.453 1_565 S
O116 C112 1.245 . S
O117 Tb104 2.343 1_455 S
O117 Tb106 2.596 1_565 S
O117 C112 1.259 . S
O118 Tb106 2.374 1_655 S
O118 C113 1.250 . S
O119 Tb104 2.353 1_545 S
O119 C113 1.263 . S
C120 O121 1.275 . S
C120 O122 1.246 1_655 S
O121 Tb104 2.427 . S
O121 C120 1.275 . S
O122 Tb104 2.513 1_455 S
O122 C120 1.246 1_455 S
C123 O107 1.245 1_455 S
C123 O108 1.259 . S
Tb124 O127 2.453 . S
Tb124 O128 2.596 1_545 S
Tb124 O129 2.374 . S
Tb124 O137 2.343 . S
Tb124 O139 2.353 . S
Tb124 O141 2.427 . S
Tb124 O142 2.513 . S
C125 O129 1.202 1_565 S
C125 O131 1.300 . S
Tb126 O128 2.343 . S
Tb126 O131 2.353 . S
Tb126 O134 2.427 . S
Tb126 O135 2.513 . S
Tb126 O136 2.453 . S
Tb126 O137 2.596 1_565 S
Tb126 O138 2.374 . S
O127 Tb124 2.453 . S
O127 C143 1.245 . S
O128 Tb124 2.596 1_565 S
O128 Tb126 2.343 . S
O128 C143 1.259 1_565 S
O129 Tb124 2.374 . S
O129 C125 1.202 1_545 S
C130 O134 1.275 . S
C130 O135 1.246 . S
O131 C125 1.300 . S
O131 Tb126 2.353 . S
C132 O136 1.245 1_545 S
C132 O137 1.259 . S
C133 O138 1.250 1_545 S
C133 O139 1.263 . S
O134 Tb126 2.427 . S
O134 C130 1.275 . S
O135 Tb126 2.513 . S
O135 C130 1.246 . S
O136 Tb126 2.453 . S
O136 C132 1.245 1_565 S
O137 Tb124 2.343 . S
O137 Tb126 2.596 1_545 S
O137 C132 1.259 . S
O138 Tb126 2.374 . S
O138 C133 1.250 1_565 S
O139 Tb124 2.353 . S
O139 C133 1.263 . S
C140 O141 1.275 . S
C140 O142 1.246 . S
O141 Tb124 2.427 . S
O141 C140 1.275 . S
O142 Tb124 2.513 . S
O142 C140 1.246 . S
C143 O127 1.245 . S
C143 O128 1.259 1_545 S
Tb144 O147 2.453 . S
Tb144 O148 2.596 . S
Tb144 O149 2.374 . S
Tb144 O157 2.343 . S
Tb144 O159 2.353 . S
Tb144 O161 2.427 . S
Tb144 O162 2.513 . S
C145 O149 1.251 . S
C145 O151 1.263 . S
Tb146 O148 2.343 . S
Tb146 O151 2.353 . S
Tb146 O154 2.427 . S
Tb146 O155 2.513 . S
Tb146 O156 2.453 . S
Tb146 O157 2.596 . S
Tb146 O158 2.374 . S
O147 Tb144 2.453 . S
O147 C163 1.245 . S
O148 Tb144 2.596 . S
O148 Tb146 2.343 . S
O148 C163 1.259 . S
O149 Tb144 2.374 . S
O149 C145 1.251 . S
C150 O154 1.275 . S
C150 O155 1.246 . S
O151 C145 1.263 . S
O151 Tb146 2.353 . S
C152 O156 1.245 . S
C152 O157 1.259 . S
C153 O158 1.250 . S
C153 O159 1.263 . S
O154 Tb146 2.427 . S
O154 C150 1.275 . S
O155 Tb146 2.513 . S
O155 C150 1.246 . S
O156 Tb146 2.453 . S
O156 C152 1.245 . S
O157 Tb144 2.343 . S
O157 Tb146 2.596 . S
O157 C152 1.259 . S
O158 Tb146 2.374 . S
O158 C153 1.250 . S
O159 Tb144 2.353 . S
O159 C153 1.263 . S
C160 O161 1.275 . S
C160 O162 1.246 . S
O161 Tb144 2.427 . S
O161 C160 1.275 . S
O162 Tb144 2.513 . S
O162 C160 1.246 . S
C163 O147 1.245 . S
C163 O148 1.259 . S
Tb164 O167 2.453 1_655 S
Tb164 O168 2.596 1_655 S
Tb164 O169 2.374 1_655 S
Tb164 O177 2.343 . S
Tb164 O179 2.353 1_655 S
Tb164 O181 2.427 . S
Tb164 O182 2.513 . S
C165 O169 1.251 . S
C165 O171 1.263 . S
Tb166 O168 2.343 . S
Tb166 O171 2.353 . S
Tb166 O174 2.427 . S
Tb166 O175 2.513 . S
Tb166 O176 2.453 1_455 S
Tb166 O177 2.596 1_455 S
Tb166 O178 2.374 . S
O167 Tb164 2.453 1_455 S
O167 C183 1.245 . S
O168 Tb164 2.596 1_455 S
O168 Tb166 2.343 . S
O168 C183 1.259 . S
O169 Tb164 2.374 1_455 S
O169 C165 1.251 . S
C170 O174 1.275 . S
C170 O175 1.246 . S
O171 C165 1.263 . S
O171 Tb166 2.353 . S
C172 O176 1.245 . S
C172 O177 1.259 . S
C173 O178 1.250 . S
C173 O179 1.263 . S
O174 Tb166 2.427 . S
O174 C170 1.275 . S
O175 Tb166 2.513 . S
O175 C170 1.246 . S
O176 Tb166 2.453 1_655 S
O176 C172 1.245 . S
O177 Tb164 2.343 . S
O177 Tb166 2.596 1_655 S
O177 C172 1.259 . S
O178 Tb166 2.374 . S
O178 C173 1.250 . S
O179 Tb164 2.353 1_455 S
O179 C173 1.263 . S
C180 O181 1.275 . S
C180 O182 1.246 . S
O181 Tb164 2.427 . S
O181 C180 1.275 . S
O182 Tb164 2.513 . S
O182 C180 1.246 . S
C183 O167 1.245 . S
C183 O168 1.259 . S
H184 C202 0.951 . S
H185 C204 0.951 . S
H186 C206 0.950 . S
H187 C207 0.950 . S
H188 C209 0.950 . S
H189 C212 0.950 . S
H190 C213 0.950 . S
H191 C215 0.950 . S
H192 C216 0.950 . S
H193 C217 0.980 . S
H194 C219 0.951 . S
H195 C221 0.950 . S
H196 C222 0.950 . S
H197 C224 0.950 . S
H198 C227 0.950 . S
H199 C228 0.950 . S
H200 C230 0.950 . S
H201 C231 0.950 . S
C202 H184 0.951 . S
C202 C203 1.366 . S
C202 C204 1.388 . S
C203 C202 1.366 . S
C203 C207 1.385 . S
C204 H185 0.951 . S
C204 C202 1.388 . S
C204 C205 1.366 . S
C205 C204 1.366 . S
C205 C206 1.414 . S
C205 C208 1.499 . S
C206 H186 0.950 . S
C206 C205 1.414 . S
C206 C207 1.374 . S
C207 H187 0.950 . S
C207 C203 1.385 . S
C207 C206 1.374 . S
C208 C205 1.499 . S
C208 C209 1.373 . S
C208 C210 1.389 . S
C209 H188 0.950 . S
C209 C208 1.373 . S
C209 C225 1.377 . S
C210 C208 1.389 . S
C210 C211 1.524 . S
C210 C224 1.377 . S
C211 C210 1.524 . S
C211 C212 1.397 . S
C211 C216 1.363 . S
C212 H189 0.950 . S
C212 C211 1.397 . S
C212 C213 1.334 . S
C213 H190 0.950 . S
C213 C212 1.334 . S
C213 C214 1.287 . S
C214 C213 1.287 . S
C214 C215 1.524 . S
C214 H233 0.913 . S
C215 H191 0.950 . S
C215 C214 1.524 . S
C215 C216 1.415 . S
C216 H192 0.950 . S
C216 C211 1.363 . S
C216 C215 1.415 . S
C217 H193 0.980 . S
C217 C218 1.366 . S
C217 C219 1.388 . S
C218 C217 1.366 . S
C218 C222 1.385 . S
C219 H194 0.951 . S
C219 C217 1.388 . S
C219 C220 1.366 . S
C220 C219 1.366 . S
C220 C221 1.414 . S
C220 C223 1.499 . S
C221 H195 0.950 . S
C221 C220 1.414 . S
C221 C222 1.374 . S
C222 H196 0.950 . S
C222 C218 1.385 . S
C222 C221 1.374 . S
C223 C220 1.499 . S
C223 C224 1.373 . S
C223 C225 1.389 . S
C224 H197 0.950 . S
C224 C210 1.377 . S
C224 C223 1.373 . S
C225 C209 1.377 . S
C225 C223 1.389 . S
C225 C226 1.524 1_545 S
C226 C225 1.524 1_565 S
C226 C227 1.397 . S
C226 C231 1.363 . S
C227 H198 0.950 . S
C227 C226 1.397 . S
C227 C228 1.334 . S
C228 H199 0.950 . S
C228 C227 1.334 . S
C228 C229 1.287 . S
C229 C228 1.287 . S
C229 C230 1.524 . S
C229 H232 0.999 . S
C230 H200 0.950 . S
C230 C229 1.524 . S
C230 C231 1.415 . S
C231 H201 0.950 . S
C231 C226 1.363 . S
C231 C230 1.415 . S
H232 C229 0.999 . S
H233 C214 0.913 . S
H234 C252 0.951 . S
H235 C254 0.951 . S
H236 C256 0.950 . S
H237 C257 0.950 . S
H238 C259 0.950 . S
H239 C262 0.950 . S
H240 C263 0.950 . S
H241 C265 0.950 . S
H242 C266 0.950 . S
H243 C267 0.951 . S
H244 C269 0.951 . S
H245 C271 0.950 . S
H246 C272 0.950 . S
H247 C274 0.950 . S
H248 C277 0.950 . S
H249 C278 0.950 . S
H250 C280 0.950 . S
H251 C281 0.950 . S
C252 H234 0.951 . S
C252 C253 1.366 . S
C252 C254 1.388 . S
C253 C252 1.366 . S
C253 C257 1.385 . S
C254 H235 0.951 . S
C254 C252 1.388 . S
C254 C255 1.366 . S
C255 C254 1.366 . S
C255 C256 1.414 . S
C255 C258 1.499 . S
C256 H236 0.950 . S
C256 C255 1.414 . S
C256 C257 1.374 . S
C257 H237 0.950 . S
C257 C253 1.385 . S
C257 C256 1.374 . S
C258 C255 1.499 . S
C258 C259 1.373 . S
C258 C260 1.389 . S
C259 H238 0.950 . S
C259 C258 1.373 . S
C259 C275 1.377 . S
C260 C258 1.389 . S
C260 C261 1.524 . S
C260 C274 1.377 . S
C261 C260 1.524 . S
C261 C262 1.397 . S
C261 C266 1.363 . S
C262 H239 0.950 . S
C262 C261 1.397 . S
C262 C263 1.334 . S
C263 H240 0.950 . S
C263 C262 1.334 . S
C263 C264 1.287 . S
C264 C263 1.287 . S
C264 C265 1.524 . S
C264 H283 0.913 . S
C265 H241 0.950 . S
C265 C264 1.524 . S
C265 C266 1.415 . S
C266 H242 0.950 . S
C266 C261 1.363 . S
C266 C265 1.415 . S
C267 H243 0.951 . S
C267 C268 1.366 . S
C267 C269 1.388 . S
C268 C267 1.366 . S
C268 C272 1.385 . S
C269 H244 0.951 . S
C269 C267 1.388 . S
C269 C270 1.366 . S
C270 C269 1.366 . S
C270 C271 1.414 . S
C270 C273 1.499 . S
C271 H245 0.950 . S
C271 C270 1.414 . S
C271 C272 1.374 . S
C272 H246 0.950 . S
C272 C268 1.385 . S
C272 C271 1.374 . S
C273 C270 1.499 . S
C273 C274 1.373 . S
C273 C275 1.389 . S
C274 H247 0.950 . S
C274 C260 1.377 . S
C274 C273 1.373 . S
C275 C259 1.377 . S
C275 C273 1.389 . S
C275 C276 1.524 . S
C276 C275 1.524 . S
C276 C277 1.397 . S
C276 C281 1.363 . S
C277 H248 0.950 . S
C277 C276 1.397 . S
C277 C278 1.334 . S
C278 H249 0.950 . S
C278 C277 1.334 . S
C278 C279 1.287 . S
C279 C278 1.287 . S
C279 C280 1.524 . S
C279 H282 0.999 . S
C280 H250 0.950 . S
C280 C279 1.524 . S
C280 C281 1.415 . S
C281 H251 0.950 . S
C281 C276 1.363 . S
C281 C280 1.415 . S
H282 C279 0.999 . S
H283 C264 0.913 . S
H284 C302 0.951 . S
H285 C304 0.951 . S
H286 C306 0.950 . S
H287 C307 0.950 . S
H288 C309 0.950 . S
H289 C312 0.950 . S
H290 C313 0.950 . S
H291 C315 0.950 . S
H292 C316 0.950 . S
H293 C317 0.951 . S
H294 C319 0.951 . S
H295 C321 0.950 . S
H296 C322 0.950 . S
H297 C324 0.950 . S
H298 C327 0.950 . S
H299 C328 0.950 . S
H300 C330 0.950 . S
H301 C331 0.950 . S
C302 H284 0.951 . S
C302 C303 1.366 . S
C302 C304 1.388 . S
C303 C302 1.366 . S
C303 C307 1.385 . S
C304 H285 0.951 . S
C304 C302 1.388 . S
C304 C305 1.366 . S
C305 C304 1.366 . S
C305 C306 1.414 . S
C305 C308 1.499 . S
C306 H286 0.950 . S
C306 C305 1.414 . S
C306 C307 1.374 . S
C307 H287 0.950 . S
C307 C303 1.385 . S
C307 C306 1.374 . S
C308 C305 1.499 . S
C308 C309 1.373 . S
C308 C310 1.389 . S
C309 H288 0.950 . S
C309 C308 1.373 . S
C309 C325 1.377 . S
C310 C308 1.389 . S
C310 C311 1.524 . S
C310 C324 1.377 . S
C311 C310 1.524 . S
C311 C312 1.397 . S
C311 C316 1.363 . S
C312 H289 0.950 . S
C312 C311 1.397 . S
C312 C313 1.334 . S
C313 H290 0.950 . S
C313 C312 1.334 . S
C313 C314 1.287 . S
C314 C313 1.287 . S
C314 C315 1.524 . S
C314 H333 0.913 . S
C315 H291 0.950 . S
C315 C314 1.524 . S
C315 C316 1.415 . S
C316 H292 0.950 . S
C316 C311 1.363 . S
C316 C315 1.415 . S
C317 H293 0.951 . S
C317 C318 1.366 . S
C317 C319 1.388 . S
C318 C317 1.366 . S
C318 C322 1.385 . S
C319 H294 0.951 . S
C319 C317 1.388 . S
C319 C320 1.366 . S
C320 C319 1.366 . S
C320 C321 1.414 . S
C320 C323 1.499 . S
C321 H295 0.950 . S
C321 C320 1.414 . S
C321 C322 1.374 . S
C322 H296 0.950 . S
C322 C318 1.385 . S
C322 C321 1.374 . S
C323 C320 1.499 . S
C323 C324 1.373 . S
C323 C325 1.389 . S
C324 H297 0.950 . S
C324 C310 1.377 . S
C324 C323 1.373 . S
C325 C309 1.377 . S
C325 C323 1.389 . S
C325 C326 1.524 . S
C326 C325 1.524 . S
C326 C327 1.397 . S
C326 C331 1.363 . S
C327 H298 0.950 . S
C327 C326 1.397 . S
C327 C328 1.334 . S
C328 H299 0.950 . S
C328 C327 1.334 . S
C328 C329 1.287 . S
C329 C328 1.287 . S
C329 C330 1.524 . S
C329 H332 0.999 . S
C330 H300 0.950 . S
C330 C329 1.524 . S
C330 C331 1.415 . S
C331 H301 0.950 . S
C331 C326 1.363 . S
C331 C330 1.415 . S
H332 C329 0.999 . S
H333 C314 0.913 . S
H334 C352 0.951 . S
H335 C354 0.951 . S
H336 C356 0.950 . S
H337 C357 0.950 . S
H338 C359 0.950 . S
H339 C362 0.950 . S
H340 C363 0.950 . S
H341 C365 0.950 . S
H342 C366 0.950 . S
H343 C367 0.951 . S
H344 C369 0.951 . S
H345 C371 0.950 1_655 S
H346 C372 0.950 . S
H347 C374 0.950 . S
H348 C377 0.950 . S
H349 C378 0.950 . S
H350 C380 0.950 . S
H351 C381 0.950 . S
C352 H334 0.951 . S
C352 C353 1.366 . S
C352 C354 1.388 . S
C353 C352 1.366 . S
C353 C357 1.385 . S
C354 H335 0.951 . S
C354 C352 1.388 . S
C354 C355 1.366 . S
C355 C354 1.366 . S
C355 C356 1.414 . S
C355 C358 1.499 . S
C356 H336 0.950 . S
C356 C355 1.414 . S
C356 C357 1.374 . S
C357 H337 0.950 . S
C357 C353 1.385 . S
C357 C356 1.374 . S
C358 C355 1.499 . S
C358 C359 1.373 . S
C358 C360 1.389 . S
C359 H338 0.950 . S
C359 C358 1.373 . S
C359 C375 1.377 . S
C360 C358 1.389 . S
C360 C361 1.524 . S
C360 C374 1.377 . S
C361 C360 1.524 . S
C361 C362 1.397 . S
C361 C366 1.363 1_455 S
C362 H339 0.950 . S
C362 C361 1.397 . S
C362 C363 1.334 . S
C363 H340 0.950 . S
C363 C362 1.334 . S
C363 C364 1.287 . S
C364 C363 1.287 . S
C364 C365 1.524 1_455 S
C364 H383 0.913 . S
C365 H341 0.950 . S
C365 C364 1.524 1_655 S
C365 C366 1.415 . S
C366 H342 0.950 . S
C366 C361 1.363 1_655 S
C366 C365 1.415 . S
C367 H343 0.951 . S
C367 C368 1.366 . S
C367 C369 1.388 . S
C368 C367 1.366 . S
C368 C372 1.385 1_455 S
C369 H344 0.951 . S
C369 C367 1.388 . S
C369 C370 1.366 . S
C370 C369 1.366 . S
C370 C371 1.414 . S
C370 C373 1.499 . S
C371 H345 0.950 1_455 S
C371 C370 1.414 . S
C371 C372 1.374 1_455 S
C372 H346 0.950 . S
C372 C368 1.385 1_655 S
C372 C371 1.374 1_655 S
C373 C370 1.499 . S
C373 C374 1.373 . S
C373 C375 1.389 . S
C374 H347 0.950 . S
C374 C360 1.377 . S
C374 C373 1.373 . S
C375 C359 1.377 . S
C375 C373 1.389 . S
C375 C376 1.524 . S
C376 C375 1.524 . S
C376 C377 1.397 . S
C376 C381 1.363 . S
C377 H348 0.950 . S
C377 C376 1.397 . S
C377 C378 1.334 . S
C378 H349 0.950 . S
C378 C377 1.334 . S
C378 C379 1.287 . S
C379 C378 1.287 . S
C379 C380 1.524 . S
C379 H382 0.999 . S
C380 H350 0.950 . S
C380 C379 1.524 . S
C380 C381 1.415 . S
C381 H351 0.950 . S
C381 C376 1.363 . S
C381 C380 1.415 . S
H382 C379 0.999 . S
H383 C364 0.913 . S
H384 C402 0.951 . S
H385 C404 0.951 . S
H386 C406 0.950 . S
H387 C407 0.950 . S
H388 C409 0.950 1_545 S
H389 C412 0.950 . S
H390 C413 0.950 . S
H391 C415 0.950 . S
H392 C416 0.950 . S
H393 C417 0.951 . S
H394 C419 0.951 1_545 S
H395 C421 0.950 . S
H396 C422 0.950 . S
H397 C424 0.950 . S
H398 C427 0.950 . S
H399 C428 0.950 . S
H400 C430 0.953 . S
H401 C431 0.950 . S
C402 H384 0.951 . S
C402 C403 1.366 . S
C402 C404 1.388 . S
C403 C402 1.366 . S
C403 C407 1.385 1_556 S
C404 H385 0.951 . S
C404 C402 1.388 . S
C404 C405 1.366 . S
C405 C404 1.366 . S
C405 C406 1.414 1_556 S
C405 C408 1.499 . S
C406 H386 0.950 . S
C406 C405 1.414 1_554 S
C406 C407 1.374 . S
C407 H387 0.950 . S
C407 C403 1.385 1_554 S
C407 C406 1.374 . S
C408 C405 1.499 . S
C408 C409 1.373 . S
C408 C410 1.389 . S
C409 H388 0.950 1_565 S
C409 C408 1.373 . S
C409 C425 1.377 . S
C410 C408 1.389 . S
C410 C411 1.524 . S
C410 C424 1.377 . S
C411 C410 1.524 . S
C411 C412 1.397 . S
C411 C416 1.363 . S
C412 H389 0.950 . S
C412 C411 1.397 . S
C412 C413 1.334 . S
C413 H390 0.950 . S
C413 C412 1.334 . S
C413 C414 1.287 . S
C414 C413 1.287 . S
C414 C415 1.524 . S
C414 H433 0.913 . S
C415 H391 0.950 . S
C415 C414 1.524 . S
C415 C416 1.415 . S
C416 H392 0.950 . S
C416 C411 1.363 . S
C416 C415 1.415 . S
C417 H393 0.951 . S
C417 C418 1.366 1_545 S
C417 C419 1.388 1_545 S
C418 C417 1.366 1_565 S
C418 C422 1.385 . S
C419 H394 0.951 1_565 S
C419 C417 1.388 1_565 S
C419 C420 1.366 . S
C420 C419 1.366 . S
C420 C421 1.414 . S
C420 C423 1.499 . S
C421 H395 0.950 . S
C421 C420 1.414 . S
C421 C422 1.374 . S
C422 H396 0.950 . S
C422 C418 1.385 . S
C422 C421 1.374 . S
C423 C420 1.499 . S
C423 C424 1.373 . S
C423 C425 1.389 . S
C424 H397 0.950 . S
C424 C410 1.377 . S
C424 C423 1.373 . S
C425 C409 1.377 . S
C425 C423 1.389 . S
C425 C426 1.524 1_565 S
C426 C425 1.524 1_545 S
C426 C427 1.397 . S
C426 C431 1.363 . S
C427 H398 0.950 . S
C427 C426 1.397 . S
C427 C428 1.334 . S
C428 H399 0.950 . S
C428 C427 1.334 . S
C428 C429 1.287 . S
C429 C428 1.287 . S
C429 C430 1.524 . S
C429 H432 0.999 . S
C430 H400 0.953 . S
C430 C429 1.524 . S
C430 C431 1.415 . S
C431 H401 0.950 . S
C431 C426 1.363 . S
C431 C430 1.415 . S
H432 C429 0.999 . S
H433 C414 0.913 . S
H434 C452 0.951 . S
H435 C454 0.951 . S
H436 C456 0.950 . S
H437 C457 0.950 1_554 S
H438 C459 0.950 . S
H439 C462 0.950 . S
H440 C463 0.950 . S
H441 C465 0.950 . S
H442 C466 0.950 . S
H443 C467 0.951 . S
H444 C469 0.951 . S
H445 C471 0.950 . S
H446 C472 0.950 . S
H447 C474 0.950 . S
H448 C477 0.950 . S
H449 C478 0.950 . S
H450 C480 0.950 . S
H451 C481 0.950 . S
C452 H434 0.951 . S
C452 C453 1.366 . S
C452 C454 1.388 1_554 S
C453 C452 1.366 . S
C453 C457 1.385 1_554 S
C454 H435 0.951 . S
C454 C452 1.388 1_556 S
C454 C455 1.366 . S
C455 C454 1.366 . S
C455 C456 1.414 . S
C455 C458 1.499 . S
C456 H436 0.950 . S
C456 C455 1.414 . S
C456 C457 1.374 . S
C457 H437 0.950 1_556 S
C457 C453 1.385 1_556 S
C457 C456 1.374 . S
C458 C455 1.499 . S
C458 C459 1.373 . S
C458 C460 1.389 . S
C459 H438 0.950 . S
C459 C458 1.373 . S
C459 C475 1.377 . S
C460 C458 1.389 . S
C460 C461 1.524 . S
C460 C474 1.377 . S
C461 C460 1.524 . S
C461 C462 1.397 . S
C461 C466 1.363 . S
C462 H439 0.950 . S
C462 C461 1.397 . S
C462 C463 1.334 . S
C463 H440 0.950 . S
C463 C462 1.334 . S
C463 C464 1.287 . S
C464 C463 1.287 . S
C464 C465 1.524 . S
C464 H483 0.913 . S
C465 H441 0.950 . S
C465 C464 1.524 . S
C465 C466 1.415 . S
C466 H442 0.950 . S
C466 C461 1.363 . S
C466 C465 1.415 . S
C467 H443 0.951 . S
C467 C468 1.366 . S
C467 C469 1.388 . S
C468 C467 1.366 . S
C468 C472 1.385 . S
C469 H444 0.951 . S
C469 C467 1.388 . S
C469 C470 1.366 . S
C470 C469 1.366 . S
C470 C471 1.414 . S
C470 C473 1.499 . S
C471 H445 0.950 . S
C471 C470 1.414 . S
C471 C472 1.374 . S
C472 H446 0.950 . S
C472 C468 1.385 . S
C472 C471 1.374 . S
C473 C470 1.499 . S
C473 C474 1.373 . S
C473 C475 1.389 . S
C474 H447 0.950 . S
C474 C460 1.377 . S
C474 C473 1.373 . S
C475 C459 1.377 . S
C475 C473 1.389 . S
C475 C476 1.524 . S
C476 C475 1.524 . S
C476 C477 1.397 . S
C476 C481 1.363 . S
C477 H448 0.950 . S
C477 C476 1.397 . S
C477 C478 1.334 1_556 S
C478 H449 0.950 . S
C478 C477 1.334 1_554 S
C478 C479 1.287 . S
C479 C478 1.287 . S
C479 C480 1.524 . S
C479 H482 0.999 . S
C480 H450 0.950 . S
C480 C479 1.524 . S
C480 C481 1.415 1_554 S
C481 H451 0.950 . S
C481 C476 1.363 . S
C481 C480 1.415 1_556 S
H482 C479 0.999 . S
H483 C464 0.913 . S
H484 C502 0.951 . S
H485 C504 0.951 . S
H486 C506 0.950 . S
H487 C507 0.950 . S
H488 C509 0.950 . S
H489 C512 0.950 . S
H490 C513 0.950 . S
H491 C515 0.950 . S
H492 C516 0.950 . S
H493 C517 0.951 . S
H494 C519 0.951 . S
H495 C521 0.950 . S
H496 C522 0.950 . S
H497 C524 0.950 . S
H498 C527 0.950 . S
H499 C528 0.950 . S
H500 C530 0.950 . S
H501 C531 0.950 . S
C502 H484 0.951 . S
C502 C503 1.366 . S
C502 C504 1.388 . S
C503 C502 1.366 . S
C503 C507 1.385 1_554 S
C504 H485 0.951 . S
C504 C502 1.388 . S
C504 C505 1.366 1_554 S
C505 C504 1.366 1_556 S
C505 C506 1.414 . S
C505 C508 1.499 . S
C506 H486 0.950 . S
C506 C505 1.414 . S
C506 C507 1.374 . S
C507 H487 0.950 . S
C507 C503 1.385 1_556 S
C507 C506 1.374 . S
C508 C505 1.499 . S
C508 C509 1.373 . S
C508 C510 1.389 . S
C509 H488 0.950 . S
C509 C508 1.373 . S
C509 C525 1.377 . S
C510 C508 1.389 . S
C510 C511 1.524 . S
C510 C524 1.377 . S
C511 C510 1.524 . S
C511 C512 1.397 . S
C511 C516 1.363 1_556 S
C512 H489 0.950 . S
C512 C511 1.397 . S
C512 C513 1.334 1_556 S
C513 H490 0.950 . S
C513 C512 1.334 1_554 S
C513 C514 1.287 . S
C514 C513 1.287 . S
C514 C515 1.524 . S
C514 H533 0.913 . S
C515 H491 0.950 . S
C515 C514 1.524 . S
C515 C516 1.415 . S
C516 H492 0.950 . S
C516 C511 1.363 1_554 S
C516 C515 1.415 . S
C517 H493 0.951 . S
C517 C518 1.366 . S
C517 C519 1.388 . S
C518 C517 1.366 . S
C518 C522 1.385 . S
C519 H494 0.951 . S
C519 C517 1.388 . S
C519 C520 1.366 . S
C520 C519 1.366 . S
C520 C521 1.414 . S
C520 C523 1.499 . S
C521 H495 0.950 . S
C521 C520 1.414 . S
C521 C522 1.374 . S
C522 H496 0.950 . S
C522 C518 1.385 . S
C522 C521 1.374 . S
C523 C520 1.499 . S
C523 C524 1.373 . S
C523 C525 1.389 . S
C524 H497 0.950 . S
C524 C510 1.377 . S
C524 C523 1.373 . S
C525 C509 1.377 . S
C525 C523 1.389 . S
C525 C526 1.524 . S
C526 C525 1.524 . S
C526 C527 1.397 . S
C526 C531 1.363 . S
C527 H498 0.950 . S
C527 C526 1.397 . S
C527 C528 1.334 . S
C528 H499 0.950 . S
C528 C527 1.334 . S
C528 C529 1.287 . S
C529 C528 1.287 . S
C529 C530 1.524 . S
C529 H532 0.999 . S
C530 H500 0.950 . S
C530 C529 1.524 . S
C530 C531 1.415 . S
C531 H501 0.950 . S
C531 C526 1.363 . S
C531 C530 1.415 . S
H532 C529 0.999 . S
H533 C514 0.913 . S
H534 C552 0.951 . S
H535 C554 0.951 . S
H536 C556 0.950 . S
H537 C557 0.950 . S
H538 C559 0.950 . S
H539 C562 0.950 . S
H540 C563 0.950 . S
H541 C565 0.950 . S
H542 C566 0.950 . S
H543 C567 0.951 . S
H544 C569 0.951 . S
H545 C571 0.950 . S
H546 C572 0.950 . S
H547 C574 0.950 . S
H548 C577 0.950 1_655 S
H549 C578 0.950 . S
H550 C580 0.950 . S
H551 C581 0.950 . S
C552 H534 0.951 . S
C552 C553 1.366 . S
C552 C554 1.388 . S
C553 C552 1.366 . S
C553 C557 1.385 . S
C554 H535 0.951 . S
C554 C552 1.388 . S
C554 C555 1.366 . S
C555 C554 1.366 . S
C555 C556 1.414 . S
C555 C558 1.499 . S
C556 H536 0.950 . S
C556 C555 1.414 . S
C556 C557 1.374 . S
C557 H537 0.950 . S
C557 C553 1.385 . S
C557 C556 1.374 . S
C558 C555 1.499 . S
C558 C559 1.373 . S
C558 C560 1.389 . S
C559 H538 0.950 . S
C559 C558 1.373 . S
C559 C575 1.377 . S
C560 C558 1.389 . S
C560 C561 1.524 . S
C560 C574 1.377 . S
C561 C560 1.524 . S
C561 C562 1.397 1_556 S
C561 C566 1.363 . S
C562 H539 0.950 . S
C562 C561 1.397 1_554 S
C562 C563 1.334 . S
C563 H540 0.950 . S
C563 C562 1.334 . S
C563 C564 1.287 . S
C564 C563 1.287 . S
C564 C565 1.524 1_554 S
C564 H583 0.913 . S
C565 H541 0.950 . S
C565 C564 1.524 1_556 S
C565 C566 1.415 . S
C566 H542 0.950 . S
C566 C561 1.363 . S
C566 C565 1.415 . S
C567 H543 0.951 . S
C567 C568 1.366 1_455 S
C567 C569 1.388 . S
C568 C567 1.366 1_655 S
C568 C572 1.385 . S
C569 H544 0.951 . S
C569 C567 1.388 . S
C569 C570 1.366 1_455 S
C570 C569 1.366 1_655 S
C570 C571 1.414 . S
C570 C573 1.499 . S
C571 H545 0.950 . S
C571 C570 1.414 . S
C571 C572 1.374 . S
C572 H546 0.950 . S
C572 C568 1.385 . S
C572 C571 1.374 . S
C573 C570 1.499 . S
C573 C574 1.373 . S
C573 C575 1.389 . S
C574 H547 0.950 . S
C574 C560 1.377 . S
C574 C573 1.373 . S
C575 C559 1.377 . S
C575 C573 1.389 . S
C575 C576 1.524 1_655 S
C576 C575 1.524 1_455 S
C576 C577 1.397 . S
C576 C581 1.363 . S
C577 H548 0.950 1_455 S
C577 C576 1.397 . S
C577 C578 1.334 . S
C578 H549 0.950 . S
C578 C577 1.334 . S
C578 C579 1.287 . S
C579 C578 1.287 . S
C579 C580 1.524 . S
C579 H582 0.999 . S
C580 H550 0.950 . S
C580 C579 1.524 . S
C580 C581 1.415 . S
C581 H551 0.950 . S
C581 C576 1.363 . S
C581 C580 1.415 . S
H582 C579 0.999 . S
H583 C564 0.913 . S
H584 C602 0.951 . S
H585 C604 0.951 . S
H586 C606 0.950 . S
H587 C607 0.950 . S
H588 C609 0.950 . S
H589 C612 0.936 1_455 S
H590 C613 0.950 . S
H591 C615 0.950 . S
H592 C616 0.950 1_455 S
H593 C617 0.951 . S
H594 C619 0.951 . S
H595 C621 0.950 . S
H596 C622 0.950 . S
H597 C624 0.950 . S
H598 C627 0.950 . S
H599 C628 0.950 . S
H600 C630 0.950 . S
H601 C631 0.950 . S
C602 H584 0.951 . S
C602 C603 1.366 . S
C602 C604 1.388 . S
C603 C602 1.366 . S
C603 C607 1.385 . S
C604 H585 0.951 . S
C604 C602 1.388 . S
C604 C605 1.366 . S
C605 C604 1.366 . S
C605 C606 1.414 . S
C605 C608 1.499 . S
C606 H586 0.950 . S
C606 C605 1.414 . S
C606 C607 1.374 . S
C607 H587 0.950 . S
C607 C603 1.385 . S
C607 C606 1.374 . S
C608 C605 1.499 . S
C608 C609 1.373 . S
C608 C610 1.389 . S
C609 H588 0.950 . S
C609 C608 1.373 . S
C609 C625 1.377 . S
C610 C608 1.389 . S
C610 C611 1.524 . S
C610 C624 1.377 . S
C611 C610 1.524 . S
C611 C612 1.397 1_455 S
C611 C616 1.363 1_455 S
C612 H589 0.936 1_655 S
C612 C611 1.397 1_655 S
C612 C613 1.334 . S
C613 H590 0.950 . S
C613 C612 1.334 . S
C613 C614 1.287 . S
C614 C613 1.287 . S
C614 C615 1.524 . S
C614 H633 0.913 . S
C615 H591 0.950 . S
C615 C614 1.524 . S
C615 C616 1.415 . S
C616 H592 0.950 1_655 S
C616 C611 1.363 1_655 S
C616 C615 1.415 . S
C617 H593 0.951 . S
C617 C618 1.366 . S
C617 C619 1.388 . S
C618 C617 1.366 . S
C618 C622 1.385 . S
C619 H594 0.951 . S
C619 C617 1.388 . S
C619 C620 1.366 . S
C620 C619 1.366 . S
C620 C621 1.414 . S
C620 C623 1.499 . S
C621 H595 0.950 . S
C621 C620 1.414 . S
C621 C622 1.374 . S
C622 H596 0.950 . S
C622 C618 1.385 . S
C622 C621 1.374 . S
C623 C620 1.499 . S
C623 C624 1.373 . S
C623 C625 1.389 . S
C624 H597 0.950 . S
C624 C610 1.377 . S
C624 C623 1.373 . S
C625 C609 1.377 . S
C625 C623 1.389 . S
C625 C626 1.524 . S
C626 C625 1.524 . S
C626 C627 1.397 . S
C626 C631 1.363 . S
C627 H598 0.950 . S
C627 C626 1.397 . S
C627 C628 1.334 . S
C628 H599 0.950 . S
C628 C627 1.334 . S
C628 C629 1.287 . S
C629 C628 1.287 . S
C629 C630 1.524 . S
C629 H632 0.999 . S
C630 H600 0.950 . S
C630 C629 1.524 . S
C630 C631 1.415 . S
C631 H601 0.950 . S
C631 C626 1.363 . S
C631 C630 1.415 . S
H632 C629 0.999 . S
H633 C614 0.913 . S
H634 C652 0.951 . S
H635 C654 0.951 . S
H636 C656 0.950 . S
H637 C657 0.950 . S
H638 C659 0.950 . S
H639 C662 0.950 . S
H640 C663 0.950 . S
H641 C665 0.950 . S
H642 C666 0.950 . S
H643 C667 0.951 . S
H644 C669 0.951 . S
H645 C671 0.950 1_565 S
H646 C672 0.950 . S
H647 C674 0.950 . S
H648 C677 0.950 . S
H649 C678 0.950 . S
H650 C680 0.950 . S
H651 C681 0.950 . S
C652 H634 0.951 . S
C652 C653 1.366 . S
C652 C654 1.388 . S
C653 C652 1.366 . S
C653 C657 1.385 . S
C654 H635 0.951 . S
C654 C652 1.388 . S
C654 C655 1.366 . S
C655 C654 1.366 . S
C655 C656 1.414 . S
C655 C658 1.499 . S
C656 H636 0.950 . S
C656 C655 1.414 . S
C656 C657 1.374 . S
C657 H637 0.950 . S
C657 C653 1.385 . S
C657 C656 1.374 . S
C658 C655 1.499 . S
C658 C659 1.373 . S
C658 C660 1.389 . S
C659 H638 0.950 . S
C659 C658 1.373 . S
C659 C675 1.377 . S
C660 C658 1.389 . S
C660 C661 1.524 . S
C660 C674 1.377 . S
C661 C660 1.524 . S
C661 C662 1.397 . S
C661 C666 1.363 1_545 S
C662 H639 0.950 . S
C662 C661 1.397 . S
C662 C663 1.334 . S
C663 H640 0.950 . S
C663 C662 1.334 . S
C663 C664 1.278 1_545 S
C664 C663 1.278 1_565 S
C664 C665 1.531 . S
C664 H683 0.916 . S
C665 H641 0.950 . S
C665 C664 1.531 . S
C665 C666 1.415 . S
C666 H642 0.950 . S
C666 C661 1.363 1_565 S
C666 C665 1.415 . S
C667 H643 0.951 . S
C667 C668 1.366 . S
C667 C669 1.388 . S
C668 C667 1.366 . S
C668 C672 1.385 1_545 S
C669 H644 0.951 . S
C669 C667 1.388 . S
C669 C670 1.366 . S
C670 C669 1.366 . S
C670 C671 1.414 . S
C670 C673 1.499 . S
C671 H645 0.950 1_545 S
C671 C670 1.414 . S
C671 C672 1.374 1_545 S
C672 H646 0.950 . S
C672 C668 1.385 1_565 S
C672 C671 1.374 1_565 S
C673 C670 1.499 . S
C673 C674 1.373 . S
C673 C675 1.389 . S
C674 H647 0.950 . S
C674 C660 1.377 . S
C674 C673 1.373 . S
C675 C659 1.377 . S
C675 C673 1.389 . S
C675 C676 1.524 . S
C676 C675 1.524 . S
C676 C677 1.397 . S
C676 C681 1.363 . S
C677 H648 0.950 . S
C677 C676 1.397 . S
C677 C678 1.334 . S
C678 H649 0.950 . S
C678 C677 1.334 . S
C678 C679 1.287 . S
C679 C678 1.287 . S
C679 C680 1.524 . S
C679 H682 0.999 . S
C680 H650 0.950 . S
C680 C679 1.524 . S
C680 C681 1.415 . S
C681 H651 0.950 . S
C681 C676 1.363 . S
C681 C680 1.415 . S
H682 C679 0.999 . S
H683 C664 0.916 . S
H684 C702 0.951 . S
H685 C704 0.951 . S
H686 C706 0.950 . S
H687 C707 0.950 . S
H688 C709 0.950 . S
H689 C712 0.950 . S
H690 C713 0.950 . S
H691 C715 0.950 . S
H692 C716 0.950 . S
H693 C717 0.951 . S
H694 C719 0.951 . S
H695 C721 0.950 . S
H696 C722 0.950 . S
H697 C724 0.950 . S
H698 C727 0.950 . S
H699 C728 0.950 . S
H700 C730 0.950 . S
H701 C731 0.950 . S
C702 H684 0.951 . S
C702 C703 1.366 . S
C702 C704 1.388 . S
C703 C702 1.366 . S
C703 C707 1.385 . S
C704 H685 0.951 . S
C704 C702 1.388 . S
C704 C705 1.366 . S
C705 C704 1.366 . S
C705 C706 1.414 . S
C705 C708 1.499 . S
C706 H686 0.950 . S
C706 C705 1.414 . S
C706 C707 1.374 . S
C707 H687 0.950 . S
C707 C703 1.385 . S
C707 C706 1.374 . S
C708 C705 1.499 . S
C708 C709 1.373 . S
C708 C710 1.389 . S
C709 H688 0.950 . S
C709 C708 1.373 . S
C709 C725 1.377 . S
C710 C708 1.389 . S
C710 C711 1.524 . S
C710 C724 1.377 . S
C711 C710 1.524 . S
C711 C712 1.397 . S
C711 C716 1.363 . S
C712 H689 0.950 . S
C712 C711 1.397 . S
C712 C713 1.334 . S
C713 H690 0.950 . S
C713 C712 1.334 . S
C713 C714 1.287 . S
C714 C713 1.287 . S
C714 C715 1.524 . S
C714 H733 0.913 . S
C715 H691 0.950 . S
C715 C714 1.524 . S
C715 C716 1.415 . S
C716 H692 0.950 . S
C716 C711 1.363 . S
C716 C715 1.415 . S
C717 H693 0.951 . S
C717 C718 1.366 . S
C717 C719 1.388 . S
C718 C717 1.366 . S
C718 C722 1.385 . S
C719 H694 0.951 . S
C719 C717 1.388 . S
C719 C720 1.366 . S
C720 C719 1.366 . S
C720 C721 1.414 . S
C720 C723 1.499 . S
C721 H695 0.950 . S
C721 C720 1.414 . S
C721 C722 1.374 . S
C722 H696 0.950 . S
C722 C718 1.385 . S
C722 C721 1.374 . S
C723 C720 1.499 . S
C723 C724 1.373 . S
C723 C725 1.389 . S
C724 H697 0.950 . S
C724 C710 1.377 . S
C724 C723 1.373 . S
C725 C709 1.377 . S
C725 C723 1.389 . S
C725 C726 1.524 . S
C726 C725 1.524 . S
C726 C727 1.397 . S
C726 C731 1.363 . S
C727 H698 0.950 . S
C727 C726 1.397 . S
C727 C728 1.334 . S
C728 H699 0.950 . S
C728 C727 1.334 . S
C728 C729 1.287 . S
C729 C728 1.287 . S
C729 C730 1.524 . S
C729 H732 0.999 . S
C730 H700 0.950 . S
C730 C729 1.524 . S
C730 C731 1.415 . S
C731 H701 0.950 . S
C731 C726 1.363 . S
C731 C730 1.415 . S
H732 C729 0.999 . S
H733 C714 0.913 . S
H734 C752 0.951 . S
H735 C754 0.951 . S
H736 C756 0.950 . S
H737 C757 0.950 . S
H738 C759 0.950 . S
H739 C762 0.950 . S
H740 C763 0.950 . S
H741 C765 0.950 . S
H742 C766 0.950 . S
H743 C767 0.951 . S
H744 C769 0.951 . S
H745 C771 0.950 . S
H746 C772 0.950 . S
H747 C774 0.950 . S
H748 C777 0.950 . S
H749 C778 0.950 . S
H750 C780 0.950 . S
H751 C781 0.950 . S
C752 H734 0.951 . S
C752 C753 1.366 . S
C752 C754 1.388 . S
C753 C752 1.366 . S
C753 C757 1.385 . S
C754 H735 0.951 . S
C754 C752 1.388 . S
C754 C755 1.366 . S
C755 C754 1.366 . S
C755 C756 1.414 . S
C755 C758 1.499 . S
C756 H736 0.950 . S
C756 C755 1.414 . S
C756 C757 1.374 . S
C757 H737 0.950 . S
C757 C753 1.385 . S
C757 C756 1.374 . S
C758 C755 1.499 . S
C758 C759 1.373 . S
C758 C760 1.389 . S
C759 H738 0.950 . S
C759 C758 1.373 . S
C759 C775 1.377 . S
C760 C758 1.389 . S
C760 C761 1.524 . S
C760 C774 1.377 . S
C761 C760 1.524 . S
C761 C762 1.397 . S
C761 C766 1.363 . S
C762 H739 0.950 . S
C762 C761 1.397 . S
C762 C763 1.334 . S
C763 H740 0.950 . S
C763 C762 1.334 . S
C763 C764 1.287 . S
C764 C763 1.287 . S
C764 C765 1.524 . S
C764 H783 0.913 . S
C765 H741 0.950 . S
C765 C764 1.524 . S
C765 C766 1.415 . S
C766 H742 0.950 . S
C766 C761 1.363 . S
C766 C765 1.415 . S
C767 H743 0.951 . S
C767 C768 1.366 . S
C767 C769 1.388 . S
C768 C767 1.366 . S
C768 C772 1.385 . S
C769 H744 0.951 . S
C769 C767 1.388 . S
C769 C770 1.366 . S
C770 C769 1.366 . S
C770 C771 1.414 . S
C770 C773 1.499 . S
C771 H745 0.950 . S
C771 C770 1.414 . S
C771 C772 1.374 . S
C772 H746 0.950 . S
C772 C768 1.385 . S
C772 C771 1.374 . S
C773 C770 1.499 . S
C773 C774 1.373 . S
C773 C775 1.389 . S
C774 H747 0.950 . S
C774 C760 1.377 . S
C774 C773 1.373 . S
C775 C759 1.377 . S
C775 C773 1.389 . S
C775 C776 1.524 . S
C776 C775 1.524 . S
C776 C777 1.397 . S
C776 C781 1.363 . S
C777 H748 0.950 . S
C777 C776 1.397 . S
C777 C778 1.334 . S
C778 H749 0.950 . S
C778 C777 1.334 . S
C778 C779 1.287 . S
C779 C778 1.287 . S
C779 C780 1.524 . S
C779 H782 0.999 . S
C780 H750 0.950 . S
C780 C779 1.524 . S
C780 C781 1.415 . S
C781 H751 0.950 . S
C781 C776 1.363 . S
C781 C780 1.415 . S
H782 C779 0.999 . S
H783 C764 0.913 . S
H784 C802 0.951 . S
H785 C804 0.951 . S
H786 C806 0.950 . S
H787 C807 0.950 . S
H788 C809 0.950 . S
H789 C812 0.950 . S
H790 C813 0.950 . S
H791 C815 0.950 . S
H792 C816 0.950 . S
H793 C817 0.951 . S
H794 C819 0.951 . S
H795 C821 0.950 . S
H796 C822 0.950 . S
H797 C824 0.950 . S
H798 C827 0.950 1_655 S
H799 C828 0.950 . S
H800 C830 0.950 . S
H801 C831 0.950 . S
C802 H784 0.951 . S
C802 C803 1.366 . S
C802 C804 1.388 . S
C803 C802 1.366 . S
C803 C807 1.385 . S
C804 H785 0.951 . S
C804 C802 1.388 . S
C804 C805 1.366 . S
C805 C804 1.366 . S
C805 C806 1.414 . S
C805 C808 1.499 . S
C806 H786 0.950 . S
C806 C805 1.414 . S
C806 C807 1.374 . S
C807 H787 0.950 . S
C807 C803 1.385 . S
C807 C806 1.374 . S
C808 C805 1.499 . S
C808 C809 1.373 . S
C808 C810 1.389 . S
C809 H788 0.950 . S
C809 C808 1.373 . S
C809 C825 1.377 . S
C810 C808 1.389 . S
C810 C811 1.524 . S
C810 C824 1.377 . S
C811 C810 1.524 . S
C811 C812 1.397 . S
C811 C816 1.363 . S
C812 H789 0.950 . S
C812 C811 1.397 . S
C812 C813 1.334 . S
C813 H790 0.950 . S
C813 C812 1.334 . S
C813 C814 1.287 . S
C814 C813 1.287 . S
C814 C815 1.524 . S
C814 H833 0.913 . S
C815 H791 0.950 . S
C815 C814 1.524 . S
C815 C816 1.415 . S
C816 H792 0.950 . S
C816 C811 1.363 . S
C816 C815 1.415 . S
C817 H793 0.951 . S
C817 C818 1.366 1_455 S
C817 C819 1.388 . S
C818 C817 1.366 1_655 S
C818 C822 1.385 . S
C819 H794 0.951 . S
C819 C817 1.388 . S
C819 C820 1.366 1_455 S
C820 C819 1.366 1_655 S
C820 C821 1.414 . S
C820 C823 1.499 . S
C821 H795 0.950 . S
C821 C820 1.414 . S
C821 C822 1.374 . S
C822 H796 0.950 . S
C822 C818 1.385 . S
C822 C821 1.374 . S
C823 C820 1.499 . S
C823 C824 1.373 . S
C823 C825 1.389 . S
C824 H797 0.950 . S
C824 C810 1.377 . S
C824 C823 1.373 . S
C825 C809 1.377 . S
C825 C823 1.389 . S
C825 C826 1.524 1_655 S
C826 C825 1.524 1_455 S
C826 C827 1.397 . S
C826 C831 1.363 . S
C827 H798 0.950 1_455 S
C827 C826 1.397 . S
C827 C828 1.334 . S
C828 H799 0.950 . S
C828 C827 1.334 . S
C828 C829 1.287 . S
C829 C828 1.287 . S
C829 C830 1.524 . S
C829 H832 0.999 . S
C830 H800 0.950 . S
C830 C829 1.524 . S
C830 C831 1.415 . S
C831 H801 0.950 . S
C831 C826 1.363 . S
C831 C830 1.415 . S
H832 C829 0.999 . S
H833 C814 0.913 . S
H834 C852 0.951 . S
H835 C854 0.951 . S
H836 C856 0.950 . S
H837 C857 0.950 . S
H838 C859 0.950 . S
H839 C862 0.950 1_565 S
H840 C863 0.950 . S
H841 C865 0.950 . S
H842 C866 0.950 . S
H843 C867 0.951 . S
H844 C869 0.951 . S
H845 C871 0.950 . S
H846 C872 0.950 . S
H847 C874 0.950 1_545 S
H848 C877 0.950 . S
H849 C878 0.950 . S
H850 C880 0.950 . S
H851 C881 0.950 . S
C852 H834 0.951 . S
C852 C853 1.366 . S
C852 C854 1.388 . S
C853 C852 1.366 . S
C853 C857 1.385 1_556 S
C854 H835 0.951 . S
C854 C852 1.388 . S
C854 C855 1.366 . S
C855 C854 1.366 . S
C855 C856 1.414 . S
C855 C858 1.499 . S
C856 H836 0.950 . S
C856 C855 1.414 . S
C856 C857 1.374 1_556 S
C857 H837 0.950 . S
C857 C853 1.385 1_554 S
C857 C856 1.374 1_554 S
C858 C855 1.499 . S
C858 C859 1.373 . S
C858 C860 1.389 . S
C859 H838 0.950 . S
C859 C858 1.373 . S
C859 C875 1.377 . S
C860 C858 1.389 . S
C860 C861 1.524 1_565 S
C860 C874 1.377 . S
C861 C860 1.524 1_545 S
C861 C862 1.397 1_556 S
C861 C866 1.363 . S
C862 H839 0.950 1_545 S
C862 C861 1.397 1_554 S
C862 C863 1.334 . S
C863 H840 0.950 . S
C863 C862 1.334 . S
C863 C864 1.287 . S
C864 C863 1.287 . S
C864 C865 1.524 1_554 S
C864 H883 0.913 . S
C865 H841 0.950 . S
C865 C864 1.524 1_556 S
C865 C866 1.415 . S
C866 H842 0.950 . S
C866 C861 1.363 . S
C866 C865 1.415 . S
C867 H843 0.951 . S
C867 C868 1.366 . S
C867 C869 1.388 . S
C868 C867 1.366 . S
C868 C872 1.385 1_565 S
C869 H844 0.951 . S
C869 C867 1.388 . S
C869 C870 1.366 . S
C870 C869 1.366 . S
C870 C871 1.414 1_565 S
C870 C873 1.499 . S
C871 H845 0.950 . S
C871 C870 1.414 1_545 S
C871 C872 1.374 . S
C872 H846 0.950 . S
C872 C868 1.385 1_545 S
C872 C871 1.374 . S
C873 C870 1.499 . S
C873 C874 1.373 . S
C873 C875 1.389 . S
C874 H847 0.950 1_565 S
C874 C860 1.377 . S
C874 C873 1.373 . S
C875 C859 1.377 . S
C875 C873 1.389 . S
C875 C876 1.524 . S
C876 C875 1.524 . S
C876 C877 1.397 . S
C876 C881 1.363 . S
C877 H848 0.950 . S
C877 C876 1.397 . S
C877 C878 1.334 . S
C878 H849 0.950 . S
C878 C877 1.334 . S
C878 C879 1.287 . S
C879 C878 1.287 . S
C879 C880 1.524 . S
C879 H882 0.999 . S
C880 H850 0.950 . S
C880 C879 1.524 . S
C880 C881 1.415 . S
C881 H851 0.950 . S
C881 C876 1.363 . S
C881 C880 1.415 . S
H882 C879 0.999 . S
H883 C864 0.913 . S
H884 C902 0.951 . S
H885 C904 0.951 . S
H886 C906 0.950 . S
H887 C907 0.950 . S
H888 C909 0.950 . S
H889 C912 0.950 . S
H890 C913 0.950 . S
H891 C915 0.950 1_554 S
H892 C916 0.950 . S
H893 C917 0.951 . S
H894 C919 0.951 . S
H895 C921 0.950 . S
H896 C922 0.950 . S
H897 C924 0.950 . S
H898 C927 0.950 . S
H899 C928 0.950 . S
H900 C930 0.950 . S
H901 C931 0.950 . S
C902 H884 0.951 . S
C902 C903 1.373 . S
C902 C904 1.388 . S
C903 C902 1.373 . S
C903 C907 1.372 1_554 S
C904 H885 0.951 . S
C904 C902 1.388 . S
C904 C905 1.366 1_554 S
C905 C904 1.366 1_556 S
C905 C906 1.414 . S
C905 C908 1.499 . S
C906 H886 0.950 . S
C906 C905 1.414 . S
C906 C907 1.374 . S
C907 H887 0.950 . S
C907 C903 1.372 1_556 S
C907 C906 1.374 . S
C908 C905 1.499 . S
C908 C909 1.373 . S
C908 C910 1.389 . S
C909 H888 0.950 . S
C909 C908 1.373 . S
C909 C925 1.377 . S
C910 C908 1.389 . S
C910 C911 1.524 . S
C910 C924 1.377 . S
C911 C910 1.524 . S
C911 C912 1.397 . S
C911 C916 1.363 . S
C912 H889 0.950 . S
C912 C911 1.397 . S
C912 C913 1.334 . S
C913 H890 0.950 . S
C913 C912 1.334 . S
C913 C914 1.287 . S
C914 C913 1.287 . S
C914 C915 1.524 . S
C914 H933 0.913 . S
C915 H891 0.950 1_556 S
C915 C914 1.524 . S
C915 C916 1.415 . S
C916 H892 0.950 . S
C916 C911 1.363 . S
C916 C915 1.415 . S
C917 H893 0.951 . S
C917 C918 1.366 . S
C917 C919 1.388 . S
C918 C917 1.366 . S
C918 C922 1.385 . S
C919 H894 0.951 . S
C919 C917 1.388 . S
C919 C920 1.366 . S
C920 C919 1.366 . S
C920 C921 1.414 . S
C920 C923 1.499 . S
C921 H895 0.950 . S
C921 C920 1.414 . S
C921 C922 1.374 . S
C922 H896 0.950 . S
C922 C918 1.385 . S
C922 C921 1.374 . S
C923 C920 1.499 . S
C923 C924 1.373 . S
C923 C925 1.389 . S
C924 H897 0.950 . S
C924 C910 1.377 . S
C924 C923 1.373 . S
C925 C909 1.377 . S
C925 C923 1.389 . S
C925 C926 1.524 . S
C926 C925 1.524 . S
C926 C927 1.397 . S
C926 C931 1.363 . S
C927 H898 0.950 . S
C927 C926 1.397 . S
C927 C928 1.334 . S
C928 H899 0.950 . S
C928 C927 1.334 . S
C928 C929 1.287 . S
C929 C928 1.287 . S
C929 C930 1.524 . S
C929 H932 0.999 . S
C930 H900 0.950 . S
C930 C929 1.524 . S
C930 C931 1.415 . S
C931 H901 0.950 . S
C931 C926 1.363 . S
C931 C930 1.415 . S
H932 C929 0.999 . S
H933 C914 0.913 . S
H934 C952 0.951 . S
H935 C954 0.951 . S
H936 C956 0.950 . S
H937 C957 0.950 . S
H938 C959 0.950 . S
H939 C962 0.950 . S
H940 C963 0.950 . S
H941 C965 0.950 . S
H942 C966 0.950 . S
H943 C967 0.951 . S
H944 C969 0.951 . S
H945 C971 0.950 . S
H946 C972 0.950 . S
H947 C974 0.950 . S
H948 C977 0.950 . S
H949 C978 0.950 . S
H950 C980 0.950 . S
H951 C981 0.950 . S
C952 H934 0.951 . S
C952 C953 1.366 . S
C952 C954 1.388 . S
C953 C952 1.366 . S
C953 C957 1.385 . S
C954 H935 0.951 . S
C954 C952 1.388 . S
C954 C955 1.366 . S
C955 C954 1.366 . S
C955 C956 1.414 . S
C955 C958 1.499 . S
C956 H936 0.950 . S
C956 C955 1.414 . S
C956 C957 1.374 . S
C957 H937 0.950 . S
C957 C953 1.385 . S
C957 C956 1.374 . S
C958 C955 1.499 . S
C958 C959 1.373 . S
C958 C960 1.389 . S
C959 H938 0.950 . S
C959 C958 1.373 . S
C959 C975 1.377 . S
C960 C958 1.389 . S
C960 C961 1.524 . S
C960 C974 1.377 . S
C961 C960 1.524 . S
C961 C962 1.397 1_556 S
C961 C966 1.363 . S
C962 H939 0.950 . S
C962 C961 1.397 1_554 S
C962 C963 1.334 . S
C963 H940 0.950 . S
C963 C962 1.334 . S
C963 C964 1.287 . S
C964 C963 1.287 . S
C964 C965 1.524 . S
C964 H983 0.913 . S
C965 H941 0.950 . S
C965 C964 1.524 . S
C965 C966 1.415 1_554 S
C966 H942 0.950 . S
C966 C961 1.363 . S
C966 C965 1.415 1_556 S
C967 H943 0.951 . S
C967 C968 1.366 . S
C967 C969 1.388 . S
C968 C967 1.366 . S
C968 C972 1.385 . S
C969 H944 0.951 . S
C969 C967 1.388 . S
C969 C970 1.366 . S
C970 C969 1.366 . S
C970 C971 1.414 . S
C970 C973 1.499 . S
C971 H945 0.950 . S
C971 C970 1.414 . S
C971 C972 1.374 . S
C972 H946 0.950 . S
C972 C968 1.385 . S
C972 C971 1.374 . S
C973 C970 1.499 . S
C973 C974 1.373 . S
C973 C975 1.389 . S
C974 H947 0.950 . S
C974 C960 1.377 . S
C974 C973 1.373 . S
C975 C959 1.377 . S
C975 C973 1.389 . S
C975 C976 1.524 . S
C976 C975 1.524 . S
C976 C977 1.397 . S
C976 C981 1.363 . S
C977 H948 0.950 . S
C977 C976 1.397 . S
C977 C978 1.334 . S
C978 H949 0.950 . S
C978 C977 1.334 . S
C978 C979 1.287 . S
C979 C978 1.287 . S
C979 C980 1.524 . S
C979 H982 0.999 . S
C980 H950 0.950 . S
C980 C979 1.524 . S
C980 C981 1.415 . S
C981 H951 0.950 . S
C981 C976 1.363 . S
C981 C980 1.415 . S
H982 C979 0.999 . S
H983 C964 0.913 . S
H984 C1002 0.951 . S
H985 C1004 0.951 . S
H986 C1006 0.950 . S
H987 C1007 0.950 . S
H988 C1009 0.950 1_556 S
H989 C1012 0.950 . S
H990 C1013 0.950 . S
H991 C1015 0.950 . S
H992 C1016 0.950 . S
H993 C1017 0.951 . S
H994 C1019 0.951 . S
H995 C1021 0.950 . S
H996 C1022 0.950 1_655 S
H997 C1024 0.950 . S
H998 C1027 0.950 . S
H999 C1028 0.950 . S
H1000 C1030 0.950 . S
H1001 C1031 0.950 . S
C1002 H984 0.951 . S
C1002 C1003 1.366 . S
C1002 C1004 1.388 . S
C1003 C1002 1.366 . S
C1003 C1007 1.385 . S
C1004 H985 0.951 . S
C1004 C1002 1.388 . S
C1004 C1005 1.366 . S
C1005 C1004 1.366 . S
C1005 C1006 1.414 . S
C1005 C1008 1.499 . S
C1006 H986 0.950 . S
C1006 C1005 1.414 . S
C1006 C1007 1.374 . S
C1007 H987 0.950 . S
C1007 C1003 1.385 . S
C1007 C1006 1.374 . S
C1008 C1005 1.499 . S
C1008 C1009 1.373 . S
C1008 C1010 1.389 . S
C1009 H988 0.950 1_554 S
C1009 C1008 1.373 . S
C1009 C1025 1.377 1_554 S
C1010 C1008 1.389 . S
C1010 C1011 1.524 . S
C1010 C1024 1.377 . S
C1011 C1010 1.524 . S
C1011 C1012 1.397 . S
C1011 C1016 1.363 . S
C1012 H989 0.950 . S
C1012 C1011 1.397 . S
C1012 C1013 1.334 . S
C1013 H990 0.950 . S
C1013 C1012 1.334 . S
C1013 C1014 1.287 . S
C1014 C1013 1.287 . S
C1014 C1015 1.524 . S
C1014 H1033 0.913 . S
C1015 H991 0.950 . S
C1015 C1014 1.524 . S
C1015 C1016 1.415 . S
C1016 H992 0.950 . S
C1016 C1011 1.363 . S
C1016 C1015 1.415 . S
C1017 H993 0.951 . S
C1017 C1018 1.366 . S
C1017 C1019 1.388 . S
C1018 C1017 1.366 . S
C1018 C1022 1.385 . S
C1019 H994 0.951 . S
C1019 C1017 1.388 . S
C1019 C1020 1.366 . S
C1020 C1019 1.366 . S
C1020 C1021 1.414 . S
C1020 C1023 1.499 . S
C1021 H995 0.950 . S
C1021 C1020 1.414 . S
C1021 C1022 1.374 . S
C1022 H996 0.950 1_455 S
C1022 C1018 1.385 . S
C1022 C1021 1.374 . S
C1023 C1020 1.499 . S
C1023 C1024 1.373 1_556 S
C1023 C1025 1.389 . S
C1024 H997 0.950 . S
C1024 C1010 1.377 . S
C1024 C1023 1.373 1_554 S
C1025 C1009 1.377 1_556 S
C1025 C1023 1.389 . S
C1025 C1026 1.524 . S
C1026 C1025 1.524 . S
C1026 C1027 1.397 . S
C1026 C1031 1.363 . S
C1027 H998 0.950 . S
C1027 C1026 1.397 . S
C1027 C1028 1.334 . S
C1028 H999 0.950 . S
C1028 C1027 1.334 . S
C1028 C1029 1.287 . S
C1029 C1028 1.287 . S
C1029 C1030 1.524 . S
C1029 H1032 0.999 . S
C1030 H1000 0.950 . S
C1030 C1029 1.524 . S
C1030 C1031 1.415 . S
C1031 H1001 0.950 . S
C1031 C1026 1.363 . S
C1031 C1030 1.415 . S
H1032 C1029 0.999 . S
H1033 C1014 0.913 . S
H1034 C1052 0.951 . S
H1035 C1054 0.951 . S
H1036 C1056 0.950 . S
H1037 C1057 0.950 . S
H1038 C1059 0.950 . S
H1039 C1062 0.950 . S
H1040 C1063 0.950 . S
H1041 C1065 0.950 . S
H1042 C1066 0.950 1_554 S
H1043 C1067 0.951 1_565 S
H1044 C1069 0.951 1_565 S
H1045 C1071 0.950 . S
H1046 C1072 0.950 . S
H1047 C1074 0.950 . S
H1048 C1077 0.950 1_545 S
H1049 C1078 0.950 . S
H1050 C1080 0.950 . S
H1051 C1081 0.950 1_556 S
C1052 H1034 0.951 . S
C1052 C1053 1.366 . S
C1052 C1054 1.388 . S
C1053 C1052 1.366 . S
C1053 C1057 1.385 . S
C1054 H1035 0.951 . S
C1054 C1052 1.388 . S
C1054 C1055 1.366 . S
C1055 C1054 1.366 . S
C1055 C1056 1.414 . S
C1055 C1058 1.499 . S
C1056 H1036 0.950 . S
C1056 C1055 1.414 . S
C1056 C1057 1.374 . S
C1057 H1037 0.950 . S
C1057 C1053 1.385 . S
C1057 C1056 1.374 . S
C1058 C1055 1.499 . S
C1058 C1059 1.373 . S
C1058 C1060 1.389 . S
C1059 H1038 0.950 . S
C1059 C1058 1.373 . S
C1059 C1075 1.377 . S
C1060 C1058 1.389 . S
C1060 C1061 1.524 1_554 S
C1060 C1074 1.377 1_554 S
C1061 C1060 1.524 1_556 S
C1061 C1062 1.397 . S
C1061 C1066 1.363 . S
C1062 H1039 0.950 . S
C1062 C1061 1.397 . S
C1062 C1063 1.334 . S
C1063 H1040 0.950 . S
C1063 C1062 1.334 . S
C1063 C1064 1.287 . S
C1064 C1063 1.287 . S
C1064 C1065 1.524 . S
C1064 H1083 0.913 . S
C1065 H1041 0.950 . S
C1065 C1064 1.524 . S
C1065 C1066 1.415 . S
C1066 H1042 0.950 1_556 S
C1066 C1061 1.363 . S
C1066 C1065 1.415 . S
C1067 H1043 0.951 1_545 S
C1067 C1068 1.366 . S
C1067 C1069 1.388 . S
C1068 C1067 1.366 . S
C1068 C1072 1.385 . S
C1069 H1044 0.951 1_545 S
C1069 C1067 1.388 . S
C1069 C1070 1.366 . S
C1070 C1069 1.366 . S
C1070 C1071 1.414 . S
C1070 C1073 1.499 . S
C1071 H1045 0.950 . S
C1071 C1070 1.414 . S
C1071 C1072 1.374 . S
C1072 H1046 0.950 . S
C1072 C1068 1.385 . S
C1072 C1071 1.374 . S
C1073 C1070 1.499 . S
C1073 C1074 1.373 . S
C1073 C1075 1.389 1_556 S
C1074 H1047 0.950 . S
C1074 C1060 1.377 1_556 S
C1074 C1073 1.373 . S
C1075 C1059 1.377 . S
C1075 C1073 1.389 1_554 S
C1075 C1076 1.524 1_545 S
C1076 C1075 1.524 1_565 S
C1076 C1077 1.397 . S
C1076 C1081 1.363 . S
C1077 H1048 0.950 1_565 S
C1077 C1076 1.397 . S
C1077 C1078 1.334 . S
C1078 H1049 0.950 . S
C1078 C1077 1.334 . S
C1078 C1079 1.287 . S
C1079 C1078 1.287 . S
C1079 C1080 1.524 . S
C1079 H1082 0.999 . S
C1080 H1050 0.950 . S
C1080 C1079 1.524 . S
C1080 C1081 1.415 . S
C1081 H1051 0.950 1_554 S
C1081 C1076 1.363 . S
C1081 C1080 1.415 . S
H1082 C1079 0.999 . S
H1083 C1064 0.913 . S
H1084 C1102 0.951 . S
H1085 C1104 0.951 . S
H1086 C1106 0.950 . S
H1087 C1107 0.950 . S
H1088 C1109 0.950 . S
H1089 C1112 0.950 . S
H1090 C1113 0.950 . S
H1091 C1115 0.950 . S
H1092 C1116 0.950 . S
H1093 C1117 0.951 . S
H1094 C1119 0.951 . S
H1095 C1121 0.950 . S
H1096 C1122 0.950 . S
H1097 C1124 0.950 . S
H1098 C1127 0.950 . S
H1099 C1128 0.950 . S
H1100 C1130 0.950 . S
H1101 C1131 0.950 . S
C1102 H1084 0.951 . S
C1102 C1103 1.366 . S
C1102 C1104 1.388 . S
C1103 C1102 1.366 . S
C1103 C1107 1.385 . S
C1104 H1085 0.951 . S
C1104 C1102 1.388 . S
C1104 C1105 1.366 . S
C1105 C1104 1.366 . S
C1105 C1106 1.414 . S
C1105 C1108 1.499 . S
C1106 H1086 0.950 . S
C1106 C1105 1.414 . S
C1106 C1107 1.374 . S
C1107 H1087 0.950 . S
C1107 C1103 1.385 . S
C1107 C1106 1.374 . S
C1108 C1105 1.499 . S
C1108 C1109 1.373 . S
C1108 C1110 1.389 1_554 S
C1109 H1088 0.950 . S
C1109 C1108 1.373 . S
C1109 C1125 1.377 . S
C1110 C1108 1.389 1_556 S
C1110 C1111 1.524 . S
C1110 C1124 1.377 . S
C1111 C1110 1.524 . S
C1111 C1112 1.397 . S
C1111 C1116 1.363 . S
C1112 H1089 0.950 . S
C1112 C1111 1.397 . S
C1112 C1113 1.334 . S
C1113 H1090 0.950 . S
C1113 C1112 1.334 . S
C1113 C1114 1.287 . S
C1114 C1113 1.287 . S
C1114 C1115 1.524 . S
C1114 H1133 0.913 . S
C1115 H1091 0.950 . S
C1115 C1114 1.524 . S
C1115 C1116 1.415 . S
C1116 H1092 0.950 . S
C1116 C1111 1.363 . S
C1116 C1115 1.415 . S
C1117 H1093 0.951 . S
C1117 C1118 1.366 . S
C1117 C1119 1.388 . S
C1118 C1117 1.366 . S
C1118 C1122 1.385 . S
C1119 H1094 0.951 . S
C1119 C1117 1.388 . S
C1119 C1120 1.366 . S
C1120 C1119 1.366 . S
C1120 C1121 1.414 . S
C1120 C1123 1.499 . S
C1121 H1095 0.950 . S
C1121 C1120 1.414 . S
C1121 C1122 1.374 . S
C1122 H1096 0.950 . S
C1122 C1118 1.385 . S
C1122 C1121 1.374 . S
C1123 C1120 1.499 . S
C1123 C1124 1.373 . S
C1123 C1125 1.389 1_556 S
C1124 H1097 0.950 . S
C1124 C1110 1.377 . S
C1124 C1123 1.373 . S
C1125 C1109 1.377 . S
C1125 C1123 1.389 1_554 S
C1125 C1126 1.524 . S
C1126 C1125 1.524 . S
C1126 C1127 1.397 . S
C1126 C1131 1.363 . S
C1127 H1098 0.950 . S
C1127 C1126 1.397 . S
C1127 C1128 1.334 . S
C1128 H1099 0.950 . S
C1128 C1127 1.334 . S
C1128 C1129 1.287 . S
C1129 C1128 1.287 . S
C1129 C1130 1.524 . S
C1129 H1132 0.999 . S
C1130 H1100 0.950 . S
C1130 C1129 1.524 . S
C1130 C1131 1.415 . S
C1131 H1101 0.950 . S
C1131 C1126 1.363 . S
C1131 C1130 1.415 . S
H1132 C1129 0.999 . S
H1133 C1114 0.913 . S
H1134 C1152 0.951 . S
H1135 C1154 0.951 . S
H1136 C1156 0.950 . S
H1137 C1157 0.950 . S
H1138 C1159 0.950 . S
H1139 C1162 0.950 . S
H1140 C1163 0.950 . S
H1141 C1165 0.950 . S
H1142 C1166 0.950 1_556 S
H1143 C1167 0.951 . S
H1144 C1169 0.951 . S
H1145 C1171 0.950 . S
H1146 C1172 0.950 . S
H1147 C1174 0.950 . S
H1148 C1177 0.950 . S
H1149 C1178 0.950 . S
H1150 C1180 0.950 . S
H1151 C1181 0.950 1_554 S
C1152 H1134 0.951 . S
C1152 C1153 1.366 . S
C1152 C1154 1.388 . S
C1153 C1152 1.366 . S
C1153 C1157 1.385 . S
C1154 H1135 0.951 . S
C1154 C1152 1.388 . S
C1154 C1155 1.366 . S
C1155 C1154 1.366 . S
C1155 C1156 1.414 . S
C1155 C1158 1.499 . S
C1156 H1136 0.950 . S
C1156 C1155 1.414 . S
C1156 C1157 1.374 . S
C1157 H1137 0.950 . S
C1157 C1153 1.385 . S
C1157 C1156 1.374 . S
C1158 C1155 1.499 . S
C1158 C1159 1.373 . S
C1158 C1160 1.389 . S
C1159 H1138 0.950 . S
C1159 C1158 1.373 . S
C1159 C1175 1.377 1_554 S
C1160 C1158 1.389 . S
C1160 C1161 1.524 . S
C1160 C1174 1.377 1_554 S
C1161 C1160 1.524 . S
C1161 C1162 1.397 . S
C1161 C1166 1.363 . S
C1162 H1139 0.950 . S
C1162 C1161 1.397 . S
C1162 C1163 1.334 . S
C1163 H1140 0.950 . S
C1163 C1162 1.334 . S
C1163 C1164 1.287 . S
C1164 C1163 1.287 . S
C1164 C1165 1.524 . S
C1164 H1183 0.913 . S
C1165 H1141 0.950 . S
C1165 C1164 1.524 . S
C1165 C1166 1.415 . S
C1166 H1142 0.950 1_554 S
C1166 C1161 1.363 . S
C1166 C1165 1.415 . S
C1167 H1143 0.951 . S
C1167 C1168 1.366 . S
C1167 C1169 1.388 . S
C1168 C1167 1.366 . S
C1168 C1172 1.385 . S
C1169 H1144 0.951 . S
C1169 C1167 1.388 . S
C1169 C1170 1.366 . S
C1170 C1169 1.366 . S
C1170 C1171 1.414 . S
C1170 C1173 1.499 . S
C1171 H1145 0.950 . S
C1171 C1170 1.414 . S
C1171 C1172 1.374 . S
C1172 H1146 0.950 . S
C1172 C1168 1.385 . S
C1172 C1171 1.374 . S
C1173 C1170 1.499 . S
C1173 C1174 1.373 . S
C1173 C1175 1.389 . S
C1174 H1147 0.950 . S
C1174 C1160 1.377 1_556 S
C1174 C1173 1.373 . S
C1175 C1159 1.377 1_556 S
C1175 C1173 1.389 . S
C1175 C1176 1.524 . S
C1176 C1175 1.524 . S
C1176 C1177 1.397 . S
C1176 C1181 1.363 . S
C1177 H1148 0.950 . S
C1177 C1176 1.397 . S
C1177 C1178 1.334 . S
C1178 H1149 0.950 . S
C1178 C1177 1.334 . S
C1178 C1179 1.287 . S
C1179 C1178 1.287 . S
C1179 C1180 1.524 . S
C1179 H1182 0.999 . S
C1180 H1150 0.950 . S
C1180 C1179 1.524 . S
C1180 C1181 1.415 . S
C1181 H1151 0.950 1_556 S
C1181 C1176 1.363 . S
C1181 C1180 1.415 . S
H1182 C1179 0.999 . S
H1183 C1164 0.913 . S
H1184 C1202 0.951 . S
H1185 C1204 0.951 . S
H1186 C1206 0.950 . S
H1187 C1207 0.950 . S
H1188 C1209 0.950 . S
H1189 C1212 0.950 . S
H1190 C1213 0.950 . S
H1191 C1215 0.950 . S
H1192 C1216 0.950 . S
H1193 C1217 0.951 . S
H1194 C1219 0.951 . S
H1195 C1221 0.950 . S
H1196 C1222 0.950 . S
H1197 C1224 0.950 1_455 S
H1198 C1227 0.950 . S
H1199 C1228 0.950 . S
H1200 C1230 0.950 . S
H1201 C1231 0.950 . S
C1202 H1184 0.951 . S
C1202 C1203 1.366 . S
C1202 C1204 1.388 . S
C1203 C1202 1.366 . S
C1203 C1207 1.385 . S
C1204 H1185 0.951 . S
C1204 C1202 1.388 . S
C1204 C1205 1.366 . S
C1205 C1204 1.366 . S
C1205 C1206 1.414 . S
C1205 C1208 1.499 . S
C1206 H1186 0.950 . S
C1206 C1205 1.414 . S
C1206 C1207 1.374 . S
C1207 H1187 0.950 . S
C1207 C1203 1.385 . S
C1207 C1206 1.374 . S
C1208 C1205 1.499 . S
C1208 C1209 1.373 . S
C1208 C1210 1.389 . S
C1209 H1188 0.950 . S
C1209 C1208 1.373 . S
C1209 C1225 1.377 . S
C1210 C1208 1.389 . S
C1210 C1211 1.524 1_655 S
C1210 C1224 1.377 . S
C1211 C1210 1.524 1_455 S
C1211 C1212 1.397 . S
C1211 C1216 1.363 . S
C1212 H1189 0.950 . S
C1212 C1211 1.397 . S
C1212 C1213 1.334 . S
C1213 H1190 0.950 . S
C1213 C1212 1.334 . S
C1213 C1214 1.287 . S
C1214 C1213 1.287 . S
C1214 C1215 1.524 . S
C1214 H1233 0.913 . S
C1215 H1191 0.950 . S
C1215 C1214 1.524 . S
C1215 C1216 1.415 . S
C1216 H1192 0.950 . S
C1216 C1211 1.363 . S
C1216 C1215 1.415 . S
C1217 H1193 0.951 . S
C1217 C1218 1.366 . S
C1217 C1219 1.388 . S
C1218 C1217 1.366 . S
C1218 C1222 1.385 . S
C1219 H1194 0.951 . S
C1219 C1217 1.388 . S
C1219 C1220 1.366 . S
C1220 C1219 1.366 . S
C1220 C1221 1.414 . S
C1220 C1223 1.499 . S
C1221 H1195 0.950 . S
C1221 C1220 1.414 . S
C1221 C1222 1.374 . S
C1222 H1196 0.950 . S
C1222 C1218 1.385 . S
C1222 C1221 1.374 . S
C1223 C1220 1.499 . S
C1223 C1224 1.373 . S
C1223 C1225 1.389 . S
C1224 H1197 0.950 1_655 S
C1224 C1210 1.377 . S
C1224 C1223 1.373 . S
C1225 C1209 1.377 . S
C1225 C1223 1.389 . S
C1225 C1226 1.524 . S
C1226 C1225 1.524 . S
C1226 C1227 1.397 . S
C1226 C1231 1.363 . S
C1227 H1198 0.950 . S
C1227 C1226 1.397 . S
C1227 C1228 1.334 . S
C1228 H1199 0.950 . S
C1228 C1227 1.334 . S
C1228 C1229 1.287 . S
C1229 C1228 1.287 . S
C1229 C1230 1.524 . S
C1229 H1232 0.999 . S
C1230 H1200 0.950 . S
C1230 C1229 1.524 . S
C1230 C1231 1.415 . S
C1231 H1201 0.950 . S
C1231 C1226 1.363 . S
C1231 C1230 1.415 . S
H1232 C1229 0.999 . S
H1233 C1214 0.913 . S
H1234 C1252 0.951 . S
H1235 C1254 0.951 . S
H1236 C1256 1.003 . S
H1237 C1257 0.950 . S
H1238 C1259 0.950 . S
H1239 C1262 0.950 . S
H1240 C1263 0.950 . S
H1241 C1265 0.950 . S
H1242 C1266 0.950 . S
H1243 C1267 0.951 . S
H1244 C1269 0.951 . S
H1245 C1271 0.950 . S
H1246 C1272 0.950 . S
H1247 C1274 0.950 . S
H1248 C1277 0.950 . S
H1249 C1278 0.950 . S
H1250 C1280 0.950 . S
H1251 C1281 0.950 . S
C1252 H1234 0.951 . S
C1252 C1253 1.366 . S
C1252 C1254 1.388 . S
C1253 C1252 1.366 . S
C1253 C1257 1.385 . S
C1254 H1235 0.951 . S
C1254 C1252 1.388 . S
C1254 C1255 1.366 . S
C1255 C1254 1.366 . S
C1255 C1256 1.414 . S
C1255 C1258 1.499 . S
C1256 H1236 1.003 . S
C1256 C1255 1.414 . S
C1256 C1257 1.374 . S
C1257 H1237 0.950 . S
C1257 C1253 1.385 . S
C1257 C1256 1.374 . S
C1258 C1255 1.499 . S
C1258 C1259 1.373 . S
C1258 C1260 1.389 . S
C1259 H1238 0.950 . S
C1259 C1258 1.373 . S
C1259 C1275 1.377 . S
C1260 C1258 1.389 . S
C1260 C1261 1.524 . S
C1260 C1274 1.377 . S
C1261 C1260 1.524 . S
C1261 C1262 1.397 . S
C1261 C1266 1.363 . S
C1262 H1239 0.950 . S
C1262 C1261 1.397 . S
C1262 C1263 1.334 . S
C1263 H1240 0.950 . S
C1263 C1262 1.334 . S
C1263 C1264 1.287 . S
C1264 C1263 1.287 . S
C1264 C1265 1.524 . S
C1264 H1283 0.913 . S
C1265 H1241 0.950 . S
C1265 C1264 1.524 . S
C1265 C1266 1.415 . S
C1266 H1242 0.950 . S
C1266 C1261 1.363 . S
C1266 C1265 1.415 . S
C1267 H1243 0.951 . S
C1267 C1268 1.366 1_545 S
C1267 C1269 1.388 . S
C1268 C1267 1.366 1_565 S
C1268 C1272 1.385 . S
C1269 H1244 0.951 . S
C1269 C1267 1.388 . S
C1269 C1270 1.366 1_545 S
C1270 C1269 1.366 1_565 S
C1270 C1271 1.414 . S
C1270 C1273 1.499 . S
C1271 H1245 0.950 . S
C1271 C1270 1.414 . S
C1271 C1272 1.374 . S
C1272 H1246 0.950 . S
C1272 C1268 1.385 . S
C1272 C1271 1.374 . S
C1273 C1270 1.499 . S
C1273 C1274 1.373 . S
C1273 C1275 1.389 . S
C1274 H1247 0.950 . S
C1274 C1260 1.377 . S
C1274 C1273 1.373 . S
C1275 C1259 1.377 . S
C1275 C1273 1.389 . S
C1275 C1276 1.519 1_565 S
C1276 C1275 1.519 1_545 S
C1276 C1277 1.390 1_545 S
C1276 C1281 1.374 . S
C1277 H1248 0.950 . S
C1277 C1276 1.390 1_565 S
C1277 C1278 1.334 . S
C1278 H1249 0.950 . S
C1278 C1277 1.334 . S
C1278 C1279 1.287 1_565 S
C1279 C1278 1.287 1_545 S
C1279 C1280 1.524 . S
C1279 H1282 0.999 . S
C1280 H1250 0.950 . S
C1280 C1279 1.524 . S
C1280 C1281 1.415 . S
C1281 H1251 0.950 . S
C1281 C1276 1.374 . S
C1281 C1280 1.415 . S
H1282 C1279 0.999 . S
H1283 C1264 0.913 . S
H1284 C1302 0.951 . S
H1285 C1304 0.951 . S
H1286 C1306 0.950 . S
H1287 C1307 0.950 . S
H1288 C1309 0.950 . S
H1289 C1312 0.950 . S
H1290 C1313 0.950 . S
H1291 C1315 0.950 . S
H1292 C1316 0.950 . S
H1293 C1317 0.951 . S
H1294 C1319 0.951 . S
H1295 C1321 0.950 . S
H1296 C1322 0.950 . S
H1297 C1324 0.950 . S
H1298 C1327 0.950 . S
H1299 C1328 0.950 . S
H1300 C1330 0.950 . S
H1301 C1331 0.950 . S
C1302 H1284 0.951 . S
C1302 C1303 1.366 . S
C1302 C1304 1.388 . S
C1303 C1302 1.366 . S
C1303 C1307 1.385 . S
C1304 H1285 0.951 . S
C1304 C1302 1.388 . S
C1304 C1305 1.366 . S
C1305 C1304 1.366 . S
C1305 C1306 1.414 . S
C1305 C1308 1.499 . S
C1306 H1286 0.950 . S
C1306 C1305 1.414 . S
C1306 C1307 1.374 . S
C1307 H1287 0.950 . S
C1307 C1303 1.385 . S
C1307 C1306 1.374 . S
C1308 C1305 1.499 . S
C1308 C1309 1.373 . S
C1308 C1310 1.389 . S
C1309 H1288 0.950 . S
C1309 C1308 1.373 . S
C1309 C1325 1.377 . S
C1310 C1308 1.389 . S
C1310 C1311 1.524 . S
C1310 C1324 1.377 . S
C1311 C1310 1.524 . S
C1311 C1312 1.397 . S
C1311 C1316 1.363 . S
C1312 H1289 0.950 . S
C1312 C1311 1.397 . S
C1312 C1313 1.334 . S
C1313 H1290 0.950 . S
C1313 C1312 1.334 . S
C1313 C1314 1.287 . S
C1314 C1313 1.287 . S
C1314 C1315 1.524 . S
C1314 H1333 0.913 . S
C1315 H1291 0.950 . S
C1315 C1314 1.524 . S
C1315 C1316 1.415 . S
C1316 H1292 0.950 . S
C1316 C1311 1.363 . S
C1316 C1315 1.415 . S
C1317 H1293 0.951 . S
C1317 C1318 1.366 . S
C1317 C1319 1.388 . S
C1318 C1317 1.366 . S
C1318 C1322 1.385 . S
C1319 H1294 0.951 . S
C1319 C1317 1.388 . S
C1319 C1320 1.366 . S
C1320 C1319 1.366 . S
C1320 C1321 1.414 . S
C1320 C1323 1.499 . S
C1321 H1295 0.950 . S
C1321 C1320 1.414 . S
C1321 C1322 1.374 . S
C1322 H1296 0.950 . S
C1322 C1318 1.385 . S
C1322 C1321 1.374 . S
C1323 C1320 1.499 . S
C1323 C1324 1.373 . S
C1323 C1325 1.389 . S
C1324 H1297 0.950 . S
C1324 C1310 1.377 . S
C1324 C1323 1.373 . S
C1325 C1309 1.377 . S
C1325 C1323 1.389 . S
C1325 C1326 1.524 . S
C1326 C1325 1.524 . S
C1326 C1327 1.397 . S
C1326 C1331 1.363 . S
C1327 H1298 0.950 . S
C1327 C1326 1.397 . S
C1327 C1328 1.334 . S
C1328 H1299 0.950 . S
C1328 C1327 1.334 . S
C1328 C1329 1.287 . S
C1329 C1328 1.287 . S
C1329 C1330 1.524 . S
C1329 H1332 0.999 . S
C1330 H1300 0.950 . S
C1330 C1329 1.524 . S
C1330 C1331 1.415 . S
C1331 H1301 0.950 . S
C1331 C1326 1.363 . S
C1331 C1330 1.415 . S
H1332 C1329 0.999 . S
H1333 C1314 0.913 . S
H1334 C1352 0.951 . S
H1335 C1354 0.951 . S
H1336 C1356 0.950 . S
H1337 C1357 0.950 . S
H1338 C1359 0.950 . S
H1339 C1362 0.950 . S
H1340 C1363 0.950 . S
H1341 C1365 0.950 . S
H1342 C1366 0.950 . S
H1343 C1367 0.951 . S
H1344 C1369 0.951 . S
H1345 C1371 0.950 . S
H1346 C1372 0.950 . S
H1347 C1374 0.950 . S
H1348 C1377 0.950 . S
H1349 C1378 0.950 . S
H1350 C1380 0.950 . S
H1351 C1381 0.950 . S
C1352 H1334 0.951 . S
C1352 C1353 1.366 . S
C1352 C1354 1.388 . S
C1353 C1352 1.366 . S
C1353 C1357 1.385 . S
C1354 H1335 0.951 . S
C1354 C1352 1.388 . S
C1354 C1355 1.366 . S
C1355 C1354 1.366 . S
C1355 C1356 1.414 . S
C1355 C1358 1.499 . S
C1356 H1336 0.950 . S
C1356 C1355 1.414 . S
C1356 C1357 1.374 . S
C1357 H1337 0.950 . S
C1357 C1353 1.385 . S
C1357 C1356 1.374 . S
C1358 C1355 1.499 . S
C1358 C1359 1.373 . S
C1358 C1360 1.389 . S
C1359 H1338 0.950 . S
C1359 C1358 1.373 . S
C1359 C1375 1.377 . S
C1360 C1358 1.389 . S
C1360 C1361 1.524 . S
C1360 C1374 1.377 . S
C1361 C1360 1.524 . S
C1361 C1362 1.397 . S
C1361 C1366 1.363 . S
C1362 H1339 0.950 . S
C1362 C1361 1.397 . S
C1362 C1363 1.334 . S
C1363 H1340 0.950 . S
C1363 C1362 1.334 . S
C1363 C1364 1.287 . S
C1364 C1363 1.287 . S
C1364 C1365 1.524 . S
C1364 H1383 0.913 . S
C1365 H1341 0.950 . S
C1365 C1364 1.524 . S
C1365 C1366 1.415 . S
C1366 H1342 0.950 . S
C1366 C1361 1.363 . S
C1366 C1365 1.415 . S
C1367 H1343 0.951 . S
C1367 C1368 1.366 . S
C1367 C1369 1.388 . S
C1368 C1367 1.366 . S
C1368 C1372 1.385 . S
C1369 H1344 0.951 . S
C1369 C1367 1.388 . S
C1369 C1370 1.366 . S
C1370 C1369 1.366 . S
C1370 C1371 1.414 . S
C1370 C1373 1.499 . S
C1371 H1345 0.950 . S
C1371 C1370 1.414 . S
C1371 C1372 1.374 . S
C1372 H1346 0.950 . S
C1372 C1368 1.385 . S
C1372 C1371 1.374 . S
C1373 C1370 1.499 . S
C1373 C1374 1.373 . S
C1373 C1375 1.389 . S
C1374 H1347 0.950 . S
C1374 C1360 1.377 . S
C1374 C1373 1.373 . S
C1375 C1359 1.377 . S
C1375 C1373 1.389 . S
C1375 C1376 1.524 . S
C1376 C1375 1.524 . S
C1376 C1377 1.397 . S
C1376 C1381 1.363 . S
C1377 H1348 0.950 . S
C1377 C1376 1.397 . S
C1377 C1378 1.334 . S
C1378 H1349 0.950 . S
C1378 C1377 1.334 . S
C1378 C1379 1.287 . S
C1379 C1378 1.287 . S
C1379 C1380 1.524 . S
C1379 H1382 0.999 . S
C1380 H1350 0.950 . S
C1380 C1379 1.524 . S
C1380 C1381 1.415 . S
C1381 H1351 0.950 . S
C1381 C1376 1.363 . S
C1381 C1380 1.415 . S
H1382 C1379 0.999 . S
H1383 C1364 0.913 . S
C203 C82 1.539 . S
C218 C105 1.612 . S
C268 C140 1.631 . S
C253 C95 1.552 . S
C318 C145 1.287 . S
C303 C56 1.216 . S
C368 C165 1.403 . S
C353 C69 1.349 . S
C418 C113 1.612 1_565 S
C403 C30 1.491 1_556 S
C453 C43 1.482 . S
C468 C130 1.631 . S
C503 C4 1.196 . S
C518 C153 1.287 . S
C553 C17 1.303 . S
C568 C173 1.403 1_655 S
C618 C123 1.098 . S
C603 C74 1.092 . S
C668 C132 0.792 . S
C653 C87 0.789 . S
C718 C163 1.213 . S
C703 C100 1.204 . S
C753 C61 0.847 . S
C768 C183 0.844 . S
C803 C22 1.089 . S
C818 C112 1.099 1_655 S
C868 C143 0.791 1_565 S
C853 C35 0.791 1_556 S
C918 C152 1.212 . S
C903 C48 1.210 . S
C953 C9 0.847 1_556 S
C968 C172 0.843 . S
C1003 C73 1.466 . S
C1018 C110 1.479 . S
C1053 C86 1.407 . S
C1068 C133 1.455 . S
C1118 C150 1.599 . S
C1103 C99 1.560 . S
C1168 C170 1.604 . S
C1153 C60 1.581 . S
C1203 C21 1.462 . S
C1218 C120 1.480 . S
C1268 C125 1.468 . S
C1253 C34 1.403 . S
C1318 C160 1.599 . S
C1303 C47 1.555 . S
C1353 C8 1.579 . S
C1368 C180 1.604 . S
