# Generated by pormake.
# Topology pts, (4,4)-cn, num edge types: 1
# Building blocks:
#     Node 0, Type 0, BuildingBlock: AZAVOO_clean_linker_0, # of connection points: 4
#     Node 1, Type 0, BuildingBlock: AZAVOO_clean_linker_0, # of connection points: 4
#     Node 2, Type 1, BuildingBlock: UXUYUI_clean_sbu_0, # of connection points: 4
#     Node 3, Type 1, BuildingBlock: UXUYUI_clean_sbu_0, # of connection points: 4
#     Edge 4, Type (0, 1), BuildingBlock: UVAHIK_clean_linker_0, # of connection points: 2
#     Edge 5, Type (0, 1), BuildingBlock: UVAHIK_clean_linker_0, # of connection points: 2
#     Edge 6, Type (0, 1), BuildingBlock: UVAHIK_clean_linker_0, # of connection points: 2
#     Edge 7, Type (0, 1), BuildingBlock: UVAHIK_clean_linker_0, # of connection points: 2
#     Edge 8, Type (0, 1), BuildingBlock: UVAHIK_clean_linker_0, # of connection points: 2
#     Edge 9, Type (0, 1), BuildingBlock: UVAHIK_clean_linker_0, # of connection points: 2
#     Edge 10, Type (0, 1), BuildingBlock: UVAHIK_clean_linker_0, # of connection points: 2
#     Edge 11, Type (0, 1), BuildingBlock: UVAHIK_clean_linker_0, # of connection points: 2
# Relax obj value: 0.114
# Max RMSD: 0.231
# Mean RMSD: 0.163
data_MOF--net-pts--node1-UXUYUI_clean_sbu_0--node2-AZAVOO_clean_linker_0--edge1-UVAHIK_clean_linker_0
_symmetry_space_group_name_H-M    P1
_symmetry_Int_Tables_number       1
_symmetry_cell_setting            triclinic
loop_
_symmetry_equiv_pos_as_xyz
'x, y, z'
_cell_length_a     38.912425
_cell_length_b     38.942289
_cell_length_c     67.180439
_cell_angle_alpha  91.281675
_cell_angle_beta   91.274793
_cell_angle_gamma 90.032751
loop_
_atom_site_label
_atom_site_type_symbol
_atom_site_fract_x
_atom_site_fract_y
_atom_site_fract_z
_atom_type_partial_charge
H0 H 0.49736 0.06679 0.87403 0.0
H1 H 0.76414 0.98282 0.03541 0.0
H2 H 0.47634 0.08734 0.98228 0.0
H3 H 0.42008 0.08671 0.96516 0.0
H4 H 0.4095 0.9788 0.97733 0.0
H5 H 0.46579 0.97972 0.99454 0.0
H6 H 0.54371 0.08518 0.95703 0.0
H7 H 0.52753 0.08738 0.92166 0.0
H8 H 0.49264 0.98201 0.92321 0.0
H9 H 0.50936 0.98008 0.95851 0.0
H10 H 0.61304 0.08191 0.97746 0.0
H11 H 0.65421 0.08273 0.95049 0.0
H12 H 0.63254 0.97552 0.93726 0.0
H13 H 0.5905 0.97555 0.9638 0.0
H14 H 0.62149 0.07677 0.02592 0.0
H15 H 0.68152 0.07179 0.03715 0.0
H16 H 0.68305 0.96657 0.01516 0.0
H17 H 0.62291 0.97183 0.00421 0.0
H18 H 0.5593 0.07953 0.05055 0.0
H19 H 0.58773 0.07712 0.08339 0.0
H20 H 0.60271 0.96782 0.07476 0.0
H21 H 0.5752 0.97081 0.04177 0.0
H22 H 0.47902 0.08495 0.02545 0.0
H23 H 0.43153 0.08686 0.04876 0.0
H24 H 0.4535 0.9823 0.06505 0.0
H25 H 0.50065 0.98042 0.04143 0.0
O26 O 0.50371 0.06531 0.888 0.0
O27 O 0.48586 0.01121 0.88964 0.0
O28 O 0.73824 0.03968 0.04222 0.0
O29 O 0.74044 0.98554 0.03105 0.0
C30 C 0.51145 0.03234 0.99623 0.0
C31 C 0.53723 0.03137 0.98177 0.0
C32 C 0.57208 0.02915 0.98773 0.0
C33 C 0.58121 0.02742 0.00809 0.0
C34 C 0.55536 0.02805 0.02256 0.0
C35 C 0.52045 0.03091 0.01667 0.0
C36 C 0.47498 0.03358 0.98958 0.0
C37 C 0.46138 0.06385 0.98173 0.0
C38 C 0.42931 0.06344 0.97201 0.0
C39 C 0.41064 0.03264 0.96985 0.0
C40 C 0.42354 0.00279 0.97871 0.0
C41 C 0.45546 0.00332 0.98862 0.0
C42 C 0.52767 0.0325 0.96027 0.0
C43 C 0.53271 0.06258 0.94965 0.0
C44 C 0.52337 0.06378 0.92948 0.0
C45 C 0.50875 0.03488 0.9196 0.0
C46 C 0.50381 0.00473 0.93035 0.0
C47 C 0.51328 0.00355 0.95051 0.0
C48 C 0.59894 0.02869 0.97249 0.0
C49 C 0.61747 0.05861 0.96878 0.0
C50 C 0.64104 0.05894 0.95343 0.0
C51 C 0.64664 0.0292 0.94163 0.0
C52 C 0.62843 -0.00097 0.94578 0.0
C53 C 0.60466 -0.00115 0.96103 0.0
C54 C 0.61794 0.02467 0.01428 0.0
C55 C 0.63487 0.05269 0.02355 0.0
C56 C 0.66914 0.04977 0.02994 0.0
C57 C 0.68709 0.01875 0.02707 0.0
C58 C 0.67001 0.9908 0.01761 0.0
C59 C 0.63571 0.99376 0.01128 0.0
C60 C 0.56546 0.02538 0.04383 0.0
C61 C 0.56796 0.05498 0.05603 0.0
C62 C 0.58413 0.0535 0.07478 0.0
C63 C 0.5979 0.02234 0.08156 0.0
C64 C 0.59298 0.99231 0.0698 0.0
C65 C 0.57704 0.99388 0.05106 0.0
C66 C 0.49323 0.03255 0.03175 0.0
C67 C 0.47359 0.0625 0.03408 0.0
C68 C 0.44648 0.06351 0.04733 0.0
C69 C 0.4388 0.03468 0.05864 0.0
C70 C 0.45906 0.00498 0.05663 0.0
C71 C 0.48595 0.00386 0.04319 0.0
C72 C 0.49872 0.03628 0.89819 0.0
C73 C 0.72344 0.01543 0.03392 0.0
H74 H 0.01951 0.48422 0.37354 0.0
H75 H 0.05281 0.76908 0.5317 0.0
H76 H 0.99146 0.47005 0.48211 0.0
H77 H 0.99571 0.41377 0.46544 0.0
H78 H 0.10453 0.41145 0.4796 0.0
H79 H 0.09994 0.46789 0.49638 0.0
H80 H 0.99137 0.53421 0.45431 0.0
H81 H 0.99307 0.51557 0.4193 0.0
H82 H 0.10122 0.49223 0.42661 0.0
H83 H 0.09919 0.51135 0.46153 0.0
H84 H 0.98809 0.6045 0.47111 0.0
H85 H 0.98957 0.64691 0.44459 0.0
H86 H 0.09981 0.63538 0.44197 0.0
H87 H 0.09802 0.59281 0.46829 0.0
H88 H 0.98415 0.61229 0.52189 0.0
H89 H 0.97849 0.67295 0.53159 0.0
H90 H 0.0837 0.69053 0.51499 0.0
H91 H 0.08912 0.62973 0.50559 0.0
H92 H 0.98949 0.5447 0.54819 0.0
H93 H 0.98413 0.57028 0.58163 0.0
H94 H 0.0846 0.61651 0.57666 0.0
H95 H 0.09017 0.58967 0.54377 0.0
H96 H 0.99504 0.47107 0.52466 0.0
H97 H -0.00109 0.42557 0.54904 0.0
H98 H 0.09839 0.46418 0.56899 0.0
H99 H 0.09491 0.50856 0.54382 0.0
O100 O 0.01948 0.49174 0.38737 0.0
O101 O 0.07496 0.47993 0.39195 0.0
O102 O 0.00047 0.73454 0.53644 0.0
O103 O 0.05434 0.74498 0.52798 0.0
C104 C 0.04394 0.50951 0.49656 0.0
C105 C 0.04375 0.53463 0.48174 0.0
C106 C 0.04214 0.56969 0.48717 0.0
C107 C 0.04038 0.57977 0.50741 0.0
C108 C 0.04127 0.55463 0.52231 0.0
C109 C 0.0431 0.51942 0.51688 0.0
C110 C 0.04538 0.47285 0.49041 0.0
C111 C 0.01597 0.45686 0.48213 0.0
C112 C 0.01845 0.42476 0.47267 0.0
C113 C 0.0505 0.4084 0.47117 0.0
C114 C 0.07959 0.42366 0.48048 0.0
C115 C 0.07699 0.45566 0.49014 0.0
C116 C 0.04514 0.5241 0.46039 0.0
C117 C 0.01542 0.52525 0.44826 0.0
C118 C 0.01646 0.5145 0.4283 0.0
C119 C 0.04727 0.50235 0.42016 0.0
C120 C 0.07707 0.50142 0.43241 0.0
C121 C 0.076 0.51229 0.45234 0.0
C122 C 0.04296 0.59583 0.47156 0.0
C123 C 0.01249 0.61125 0.46479 0.0
C124 C 0.01337 0.63522 0.44964 0.0
C125 C 0.04482 0.64434 0.44131 0.0
C126 C 0.0753 0.62897 0.44828 0.0
C127 C 0.07433 0.60469 0.46321 0.0
C128 C 0.03698 0.61671 0.51297 0.0
C129 C 0.00593 0.62932 0.52037 0.0
C130 C 0.00277 0.66396 0.52588 0.0
C131 C 0.03065 0.68662 0.52403 0.0
C132 C 0.06172 0.67382 0.51657 0.0
C133 C 0.06486 0.63914 0.51112 0.0
C134 C 0.04009 0.56562 0.54355 0.0
C135 C 0.01064 0.55963 0.55461 0.0
C136 C 0.00753 0.5745 0.57361 0.0
C137 C 0.03378 0.59573 0.58178 0.0
C138 C 0.06404 0.6 0.57101 0.0
C139 C 0.0672 0.58494 0.55211 0.0
C140 C 0.04478 0.49294 0.5324 0.0
C141 C 0.0177 0.46956 0.53425 0.0
C142 C 0.01985 0.4438 0.54835 0.0
C143 C 0.049 0.44117 0.56101 0.0
C144 C 0.07583 0.46511 0.55929 0.0
C145 C 0.07377 0.49067 0.54506 0.0
C146 C 0.04822 0.49065 0.399 0.0
C147 C 0.02744 0.72344 0.52988 0.0
Li148 Li 0.03557 0.07258 0.26211 0.0
Li149 Li 0.03447 0.01136 0.26111 0.0
Li150 Li 0.05899 0.04412 0.23334 0.0
Li151 Li 0.99671 0.04429 0.23966 0.0
C152 C 0.09977 0.04715 0.27539 0.0
N153 N 0.14937 0.06056 0.30458 0.0
C154 C 0.09138 0.04607 0.29548 0.0
C155 C 0.13334 0.05511 0.27012 0.0
C156 C 0.11683 0.05293 0.31002 0.0
C157 C 0.15807 0.06177 0.28511 0.0
C158 C 0.96937 0.02367 0.27483 0.0
C159 C 0.93425 0.97262 0.27201 0.0
N160 N 0.91376 0.98541 0.28653 0.0
C161 C 0.94799 0.03625 0.28977 0.0
C162 C 0.96249 0.99154 0.26591 0.0
C163 C 0.92 0.01655 0.29546 0.0
C164 C 0.01025 0.12107 0.28883 0.0
N165 N 0.03988 0.11076 0.28025 0.0
C166 C 0.07242 0.1506 0.3006 0.0
C167 C 0.07052 0.12569 0.28535 0.0
C168 C 0.04241 0.16053 0.31047 0.0
C169 C 0.01088 0.14608 0.304 0.0
H170 H 0.98616 0.10931 0.28414 0.0
H171 H 0.09368 0.11766 0.27803 0.0
C172 C 0.04957 0.94134 0.26764 0.0
N173 N 0.03962 0.9714 0.27641 0.0
C174 C 0.05276 0.91173 0.27891 0.0
C175 C 0.03594 0.94489 0.30797 0.0
C176 C 0.03257 0.97363 0.29612 0.0
C177 C 0.0461 0.91348 0.29935 0.0
H178 H 0.05491 0.9404 0.25191 0.0
H179 H 0.02399 0.9977 0.3026 0.0
C180 C 0.03729 0.11754 0.23453 0.0
N181 N 0.05835 0.18529 0.23768 0.0
C182 C 0.013 0.14395 0.23496 0.0
C183 C 0.07231 0.12561 0.23574 0.0
C184 C 0.02416 0.17803 0.23656 0.0
C185 C 0.08243 0.16 0.2373 0.0
C186 C 0.02144 0.99449 0.21235 0.0
C187 C 0.0158 0.01934 0.19792 0.0
C188 C 0.02204 0.95977 0.20666 0.0
C189 C 0.0109 0.00897 0.17802 0.0
C190 C 0.01701 0.95044 0.1866 0.0
N191 N 0.0116 0.97503 0.17282 0.0
C192 C 0.11824 0.01776 0.21642 0.0
C193 C 0.09523 0.06546 0.19935 0.0
C194 C 0.14565 0.01571 0.20342 0.0
N195 N 0.09403 0.04257 0.21428 0.0
C196 C 0.12237 0.06457 0.18609 0.0
C197 C 0.14827 0.0396 0.18813 0.0
H198 H 0.11633 -0.00028 0.22836 0.0
H199 H 0.07538 0.08474 0.19792 0.0
C200 C 0.93269 0.07382 0.2293 0.0
N201 N 0.95141 0.04441 0.22827 0.0
C202 C 0.8988 0.07436 0.22201 0.0
C203 C 0.9038 0.01404 0.21328 0.0
C204 C 0.93761 0.01476 0.22056 0.0
C205 C 0.88396 0.04412 0.21393 0.0
H206 H 0.94389 0.09668 0.23611 0.0
H207 H 0.9526 0.99144 0.22034 0.0
O208 O 0.07524 0.04096 0.26087 0.0
O209 O 0.99684 0.04287 0.26915 0.0
O210 O 0.02698 0.08392 0.23336 0.0
O211 O 0.02639 0.00389 0.23195 0.0
H212 H 0.06535 0.04085 0.29978 0.0
H213 H 0.14016 0.05628 0.25462 0.0
H214 H 0.11065 0.0524 0.32563 0.0
H215 H 0.18416 0.06799 0.28126 0.0
H216 H 0.92864 0.94775 0.2652 0.0
H217 H 0.95298 0.06097 0.29692 0.0
H218 H 0.97873 0.98118 0.25442 0.0
H219 H 0.90325 0.02601 0.30699 0.0
H220 H 0.09731 0.16094 0.30507 0.0
H221 H 0.98698 0.15362 0.31078 0.0
H222 H 0.06071 0.88787 0.2718 0.0
H223 H 0.03007 0.94704 0.32363 0.0
H224 H 0.98583 0.1383 0.2341 0.0
H225 H 0.09149 0.10552 0.23589 0.0
H226 H 0.00562 0.19871 0.23692 0.0
H227 H 0.10943 0.16658 0.23835 0.0
H228 H 0.0151 0.04632 0.20199 0.0
H229 H 0.02628 0.94021 0.21764 0.0
H230 H 0.00652 0.02792 0.16671 0.0
H231 H 0.01739 0.92365 0.182 0.0
H232 H 0.16453 0.99557 0.20533 0.0
H233 H 0.12342 0.08371 0.17468 0.0
H234 H 0.88417 0.09796 0.22301 0.0
H235 H 0.89338 0.99025 0.20703 0.0
Li236 Li 0.00751 0.03583 0.75782 0.0
Li237 Li 0.06798 0.0337 0.7642 0.0
Li238 Li 0.04352 0.06035 0.73352 0.0
Li239 Li 0.04092 0.9974 0.73856 0.0
C240 C 0.02484 0.1014 0.772 0.0
N241 N 0.9951 0.15458 0.79338 0.0
C242 C 0.02135 0.09914 0.79259 0.0
C243 C 0.01348 0.13084 0.76231 0.0
C244 C 0.00614 0.12625 0.80313 0.0
C245 C -0.00154 0.15742 0.77338 0.0
C246 C 0.05123 0.96888 0.7752 0.0
C247 C 0.10035 0.93112 0.77631 0.0
N248 N 0.08529 0.91299 0.79084 0.0
C249 C 0.03629 0.9499 0.79016 0.0
C250 C 0.08357 0.95945 0.76823 0.0
C251 C 0.0539 0.92173 0.79787 0.0
C252 C 0.95242 0.00665 0.77625 0.0
N253 N 0.96428 0.03779 0.7708 0.0
C254 C 0.91632 0.0658 0.78571 0.0
C255 C 0.94634 0.06704 0.77476 0.0
C256 C 0.90427 0.03406 0.79232 0.0
C257 C 0.92232 0.00414 0.78697 0.0
H258 H 0.96659 0.98367 0.77238 0.0
H259 H 0.95534 0.09141 0.76964 0.0
C260 C 0.13604 0.04064 0.78011 0.0
N261 N 0.10239 0.03625 0.78442 0.0
C262 C 0.16098 0.0413 0.7954 0.0
C263 C 0.11595 0.03345 0.81916 0.0
C264 C 0.09203 0.03245 0.80342 0.0
C265 C 0.1509 0.03783 0.81521 0.0
H266 H 0.14346 0.0434 0.76482 0.0
H267 H 0.06516 0.02818 0.80631 0.0
C268 C 0.97022 0.03481 0.72553 0.0
N269 N 0.9007 0.04767 0.72086 0.0
C270 C 0.94711 0.00762 0.72247 0.0
C271 C 0.95799 0.06856 0.72607 0.0
C272 C 0.91206 0.01465 0.72019 0.0
C273 C 0.92276 0.07453 0.7237 0.0
C274 C 0.09798 0.0226 0.71791 0.0
C275 C 0.07754 0.02106 0.70052 0.0
C276 C 0.13367 0.01984 0.71662 0.0
C277 C 0.0932 0.01679 0.68212 0.0
C278 C 0.14835 0.01554 0.69794 0.0
N279 N 0.12798 0.01413 0.68122 0.0
C280 C 0.07375 0.12036 0.71933 0.0
C281 C 0.02839 0.09771 0.69883 0.0
C282 C 0.07713 0.14838 0.7069 0.0
N283 N 0.04933 0.0961 0.71524 0.0
C284 C 0.03066 0.12539 0.68611 0.0
C285 C 0.05499 0.15138 0.69023 0.0
H286 H 0.09002 0.11829 0.73251 0.0
H287 H 0.00955 0.07776 0.69579 0.0
C288 C 0.01226 0.9334 0.73128 0.0
N289 N 0.04044 0.95227 0.72705 0.0
C290 C 0.00864 0.89986 0.72383 0.0
C291 C 0.06385 0.90521 0.7084 0.0
C292 C 0.06642 0.93866 0.71621 0.0
C293 C 0.03447 0.88547 0.71201 0.0
H294 H 0.99265 0.94444 0.74061 0.0
H295 H 0.08922 0.95353 0.71362 0.0
O296 O 0.03991 0.07531 0.76142 0.0
O297 O 0.03417 0.9966 0.76763 0.0
O298 O 0.00458 0.02848 0.72823 0.0
O299 O 0.08339 0.02703 0.73614 0.0
H300 H 0.02986 0.07655 0.80032 0.0
H301 H 0.01609 0.13312 0.7464 0.0
H302 H 0.00306 0.12475 0.81905 0.0
H303 H 0.98944 0.18029 0.76606 0.0
H304 H 0.12535 0.92354 0.77104 0.0
H305 H 0.01136 0.95693 0.7958 0.0
H306 H 0.0957 0.97378 0.75672 0.0
H307 H 0.04262 0.90682 0.80945 0.0
H308 H 0.90337 0.0896 0.78945 0.0
H309 H 0.91351 0.97899 0.79117 0.0
H310 H 0.18775 0.04478 0.79184 0.0
H311 H 0.10732 0.03012 0.83421 0.0
H312 H 0.95608 0.98138 0.72185 0.0
H313 H 0.97545 0.08989 0.72861 0.0
H314 H 0.89387 0.99384 0.71789 0.0
H315 H 0.91294 0.1005 0.72423 0.0
H316 H 0.04989 0.02286 0.70117 0.0
H317 H 0.14988 0.02092 0.72992 0.0
H318 H 0.07769 0.01551 0.66856 0.0
H319 H 0.17594 0.01333 0.69673 0.0
H320 H 0.09608 0.168 0.71063 0.0
H321 H 0.01348 0.12655 0.67323 0.0
H322 H 0.98595 0.88531 0.72739 0.0
H323 H 0.08436 0.89519 0.69933 0.0
C324 C 0.41242 0.023 0.09153 0.0
C325 C 0.40916 0.03536 0.07211 0.0
C326 C 0.38435 0.02363 0.10416 0.0
C327 C 0.29879 0.06421 0.11062 0.0
H328 H 0.28476 0.98865 0.14619 0.0
C329 C 0.17396 0.04647 0.15438 0.0
C330 C 0.17812 0.0388 0.17466 0.0
C331 C 0.20217 0.04612 0.14186 0.0
C332 C 0.28851 0.01003 0.13643 0.0
H333 H 0.37392 0.0574 0.05049 0.0
H334 H 0.32474 0.05787 0.07231 0.0
H335 H 0.33393 0.98779 0.12431 0.0
H336 H 0.21551 0.02527 0.19765 0.0
H337 H 0.26444 0.0239 0.17566 0.0
H338 H 0.25292 0.08606 0.12256 0.0
C339 C 0.34914 0.04853 0.07805 0.0
C340 C 0.31675 0.00964 0.12394 0.0
C341 C 0.37728 0.04819 0.06551 0.0
C342 C 0.21116 0.03062 0.18205 0.0
C343 C 0.23927 0.02995 0.16948 0.0
C344 C 0.27039 0.06442 0.12297 0.0
C345 C 0.35231 0.03633 0.09755 0.0
C346 C 0.32229 0.03676 0.11089 0.0
C347 C 0.23507 0.03779 0.14928 0.0
C348 C 0.26501 0.03738 0.13603 0.0
H349 H 0.43683 0.0133 0.09706 0.0
H350 H 0.38792 0.01457 0.11918 0.0
H351 H 0.30255 0.08583 0.10104 0.0
H352 H 0.14885 0.05234 0.14809 0.0
H353 H 0.19815 0.05188 0.12627 0.0
C354 C 0.08302 0.39634 0.57921 0.0
C355 C 0.05159 0.41319 0.57568 0.0
C356 C 0.08521 0.36937 0.59256 0.0
C357 C 0.03886 0.32902 0.63382 0.0
H358 H 0.09395 0.24946 0.61982 0.0
C359 C 0.0258 0.19891 0.67203 0.0
C360 C 0.05631 0.18205 0.67761 0.0
C361 C 0.02681 0.22809 0.66037 0.0
C362 C 0.07878 0.27167 0.62402 0.0
H363 H 0.99797 0.41531 0.58382 0.0
H364 H 0.00146 0.36756 0.60646 0.0
H365 H 0.09264 0.29876 0.59805 0.0
H366 H 0.11177 0.18228 0.67527 0.0
H367 H 0.11351 0.23334 0.65467 0.0
H368 H 0.02431 0.30139 0.65952 0.0
C369 C 0.02462 0.37552 0.59919 0.0
C370 C 0.07807 0.29998 0.61159 0.0
C371 C 0.02249 0.40263 0.58596 0.0
C372 C 0.08789 0.1949 0.67125 0.0
C373 C 0.08886 0.22392 0.65938 0.0
C374 C 0.03934 0.30061 0.64613 0.0
C375 C 0.05597 0.35845 0.60261 0.0
C376 C 0.05789 0.32892 0.61626 0.0
C377 C 0.05832 0.24085 0.6539 0.0
C378 C 0.05909 0.27156 0.64128 0.0
H379 H 0.10588 0.40353 0.5714 0.0
H380 H 0.10987 0.35712 0.595 0.0
H381 H 0.0236 0.35111 0.6381 0.0
H382 H 0.00113 0.18977 0.6769 0.0
H383 H 0.00285 0.24044 0.65621 0.0
C384 C 0.61291 0.04151 0.11677 0.0
C385 C 0.6205 0.02177 0.09964 0.0
C386 C 0.63603 0.04289 0.13304 0.0
C387 C 0.71243 -0.00095 0.15472 0.0
H388 H 0.73558 0.08927 0.17666 0.0
C389 C 0.8259 0.01667 0.20996 0.0
C390 C 0.84822 0.04385 0.20586 0.0
C391 C 0.79328 0.01475 0.20091 0.0
C392 C 0.72938 0.06389 0.1707 0.0
H393 H 0.65841 0.98823 0.08615 0.0
H394 H 0.69832 0.99049 0.11435 0.0
H395 H 0.68718 0.08281 0.15315 0.0
H396 H 0.85354 0.09095 0.18963 0.0
H397 H 0.79694 0.08732 0.17349 0.0
H398 H 0.75568 0.98034 0.17126 0.0
C399 C 0.67427 0.00432 0.11549 0.0
C400 C 0.70138 0.06013 0.15742 0.0
C401 C 0.65131 0.00299 0.09929 0.0
C402 C 0.83677 0.06983 0.19317 0.0
C403 C 0.80425 0.06779 0.18399 0.0
C404 C 0.74043 0.00282 0.16792 0.0
C405 C 0.66711 0.02452 0.13248 0.0
C406 C 0.69323 0.0278 0.14885 0.0
C407 C 0.78238 0.03984 0.18743 0.0
C408 C 0.74981 0.03542 0.17567 0.0
H409 H 0.58927 0.05609 0.11753 0.0
H410 H 0.6297 0.05848 0.14599 0.0
H411 H 0.70646 0.97371 0.14861 0.0
H412 H 0.83386 0.99662 0.21999 0.0
H413 H 0.77685 0.99325 0.20419 0.0
C414 C 0.99662 0.63232 0.60363 0.0
C415 C 0.02844 0.61633 0.60034 0.0
C416 C 0.99301 0.65624 0.61922 0.0
C417 C 0.03605 0.69416 0.66472 0.0
H418 H 0.99032 0.77709 0.64736 0.0
C419 C 0.05844 0.82798 0.70174 0.0
C420 C 0.03032 0.85052 0.70299 0.0
C421 C 0.05492 0.79605 0.692 0.0
C422 C 0.00264 0.75396 0.65263 0.0
H423 H 0.08063 0.61091 0.61186 0.0
H424 H 0.07467 0.6535 0.63865 0.0
H425 H 0.9894 0.72633 0.62578 0.0
H426 H 0.97621 0.85675 0.69542 0.0
H427 H 0.96996 0.80087 0.67876 0.0
H428 H 0.05023 0.72256 0.69136 0.0
C429 C 0.05239 0.64736 0.6293 0.0
C430 C 0.00206 0.72476 0.64025 0.0
C431 C 0.05594 0.62323 0.61377 0.0
C432 C -0.00166 0.83994 0.69485 0.0
C433 C 0.99482 0.80805 0.68513 0.0
C434 C 0.0367 0.72352 0.67712 0.0
C435 C 0.0212 0.66497 0.63179 0.0
C436 C 0.0191 0.69462 0.64601 0.0
C437 C 0.02321 0.786 0.68328 0.0
C438 C 0.02035 0.75386 0.67107 0.0
H439 H 0.97493 0.62785 0.59353 0.0
H440 H 0.96843 0.66886 0.62097 0.0
H441 H 0.0491 0.67124 0.66969 0.0
H442 H 0.0833 0.83517 0.70811 0.0
H443 H 0.07734 0.77976 0.6907 0.0
C444 C 0.37749 0.00542 0.94151 0.0
C445 C 0.37985 0.03094 0.95657 0.0
C446 C 0.35045 0.00561 0.92753 0.0
C447 C 0.28619 0.0643 0.90537 0.0
H448 H 0.2495 0.97961 0.882 0.0
C449 C 0.17145 0.05845 0.84893 0.0
C450 C 0.17662 0.03808 0.83174 0.0
C451 C 0.19512 0.05783 0.86485 0.0
C452 C 0.25966 0.00343 0.88836 0.0
H453 H 0.35532 0.07594 0.96932 0.0
H454 H 0.30727 0.07573 0.94525 0.0
H455 H 0.29117 0.97725 0.90959 0.0
H456 H 0.21034 0.00105 0.81765 0.0
H457 H 0.25166 -0.00034 0.84564 0.0
H458 H 0.25409 0.09035 0.88423 0.0
C459 C 0.32678 0.05605 0.94391 0.0
C460 C 0.28358 0.00213 0.90412 0.0
C461 C 0.35411 0.05609 0.95777 0.0
C462 C 0.20593 0.01716 0.83069 0.0
C463 C 0.22934 0.01615 0.84673 0.0
C464 C 0.26191 0.06557 0.88978 0.0
C465 C 0.32493 0.03114 0.92841 0.0
C466 C 0.29753 0.03254 0.91265 0.0
C467 C 0.2241 0.03643 0.86396 0.0
C468 C 0.24879 0.03514 0.88097 0.0
H469 H 0.39736 0.98612 0.94003 0.0
H470 H 0.35033 0.98642 0.91562 0.0
H471 H 0.29676 0.08823 0.91131 0.0
H472 H 0.14911 0.07492 0.85004 0.0
H473 H 0.19047 0.0736 0.878 0.0
C474 C 0.03002 0.3508 0.45845 0.0
C475 C 0.05397 0.37772 0.45799 0.0
C476 C 0.03071 0.32416 0.44419 0.0
C477 C 0.08377 0.28504 0.40416 0.0
H478 H 0.99496 0.25752 0.38178 0.0
C479 C 0.06701 0.21252 0.32858 0.0
C480 C 0.04411 0.18454 0.32796 0.0
C481 C 0.06916 0.23437 0.34535 0.0
C482 C 0.01993 0.26469 0.38802 0.0
H483 H 0.09777 0.39768 0.44256 0.0
H484 H 0.09873 0.35161 0.41753 0.0
H485 H 0.99778 0.29757 0.41013 0.0
H486 H 0.00596 0.15734 0.34471 0.0
H487 H 0.0092 0.19594 0.37369 0.0
H488 H 0.1058 0.25279 0.38156 0.0
C489 C 0.07988 0.35048 0.42911 0.0
C490 C 0.02158 0.2875 0.40433 0.0
C491 C 0.07935 0.37692 0.44346 0.0
C492 C 0.02334 0.17905 0.34447 0.0
C493 C 0.02529 0.20104 0.36114 0.0
C494 C 0.0821 0.26244 0.38772 0.0
C495 C 0.05513 0.32414 0.42905 0.0
C496 C 0.05352 0.29812 0.41254 0.0
C497 C 0.04828 0.22884 0.36176 0.0
C498 C 0.05016 0.25221 0.37944 0.0
H499 H 0.01034 0.35073 0.46961 0.0
H500 H 0.0117 0.30391 0.44481 0.0
H501 H 0.10878 0.29228 0.41029 0.0
H502 H 0.08305 0.21777 0.31603 0.0
H503 H 0.08678 0.25591 0.34535 0.0
C504 C 0.70181 0.04853 0.92668 0.0
C505 C 0.67094 0.0298 0.9249 0.0
C506 C 0.72448 0.04932 0.91088 0.0
C507 C 0.75106 0.00037 0.86704 0.0
H508 H 0.79206 0.0863 0.85151 0.0
C509 C 0.87373 0.00869 0.82103 0.0
C510 C 0.8741 0.03227 0.80546 0.0
C511 C 0.84628 0.00785 0.834 0.0
C512 C 0.78055 0.06219 0.85557 0.0
H513 H 0.63951 0.99769 0.90488 0.0
H514 H 0.67965 -0.00162 0.87751 0.0
H515 H 0.74903 0.08646 0.87751 0.0
H516 H 0.84521 0.07288 0.79111 0.0
H517 H 0.79766 0.07197 0.81424 0.0
H518 H 0.78311 0.97602 0.84539 0.0
C519 C 0.68621 0.01234 0.8912 0.0
C520 C 0.75621 0.06224 0.87054 0.0
C521 C 0.66335 0.01183 0.90693 0.0
C522 C 0.84608 0.05478 0.80311 0.0
C523 C 0.81878 0.05419 0.81627 0.0
C524 C 0.7757 0.00027 0.85225 0.0
C525 C 0.71694 0.03115 0.89303 0.0
C526 C 0.74147 0.03131 0.87652 0.0
C527 C 0.81875 0.03081 0.83188 0.0
C528 C 0.79087 0.03114 0.8465 0.0
H529 H 0.70877 0.06219 0.9404 0.0
H530 H 0.74826 0.06362 0.91276 0.0
H531 H 0.7402 0.97615 0.87146 0.0
H532 H 0.89512 0.99147 0.82361 0.0
H533 H 0.84712 0.98991 0.8461 0.0
C534 C 0.06955 0.69713 0.42674 0.0
C535 C 0.04593 0.66991 0.4254 0.0
C536 C 0.07067 0.72135 0.41177 0.0
C537 C 0.01901 0.7558 0.36968 0.0
H538 H 0.10616 0.79658 0.35613 0.0
C539 C 0.03272 0.85196 0.30592 0.0
C540 C 0.04925 0.88275 0.31176 0.0
C541 C 0.03365 0.82375 0.31843 0.0
C542 C 0.08167 0.78537 0.35979 0.0
H543 H 0.0054 0.64611 0.40729 0.0
H544 H 0.00788 0.68787 0.38079 0.0
H545 H 0.10498 0.75106 0.38046 0.0
H546 H 0.08072 0.90798 0.33473 0.0
H547 H 0.0828 0.85847 0.35647 0.0
H548 H 0.99589 0.79004 0.34876 0.0
C549 C 0.02498 0.69113 0.39363 0.0
C550 C 0.08091 0.75946 0.3738 0.0
C551 C 0.02358 0.66715 0.40875 0.0
C552 C 0.06762 0.88454 0.32998 0.0
C553 C 0.06899 0.85622 0.34232 0.0
C554 C 0.01985 0.7814 0.35546 0.0
C555 C 0.04848 0.71862 0.39498 0.0
C556 C 0.04951 0.74471 0.37917 0.0
C557 C 0.05162 0.82574 0.33679 0.0
C558 C 0.05113 0.79674 0.35062 0.0
H559 H 0.08679 0.70002 0.43956 0.0
H560 H 0.08858 0.74255 0.41356 0.0
H561 H 0.9943 0.74546 0.37362 0.0
H562 H 0.01824 0.85006 0.29198 0.0
H563 H 0.02019 0.80044 0.31382 0.0
loop_
_geom_bond_atom_site_label_1
_geom_bond_atom_site_label_2
_geom_bond_distance
_geom_bond_site_symmetry_2
_ccdc_geom_bond_type
H0 O26 0.856 . S
H1 O29 0.854 . S
H2 C37 0.930 . S
H3 C38 0.930 . S
H4 C40 0.930 1_565 S
H5 C41 0.930 1_565 S
H6 C43 0.931 . S
H7 C44 0.930 . S
H8 C46 0.942 . S
H9 C47 0.929 1_565 S
H10 C49 0.930 . S
H11 C50 0.931 . S
H12 C52 0.930 . S
H13 C53 0.929 . S
H14 C55 0.931 . S
H15 C56 0.930 . S
H16 C58 0.930 1_565 S
H17 C59 0.932 1_566 S
H18 C61 0.930 . S
H19 C62 0.929 . S
H20 C64 0.931 . S
H21 C65 0.930 1_565 S
H22 C67 0.929 . S
H23 C68 0.931 . S
H24 C70 0.930 1_565 S
H25 C71 0.929 1_565 S
O26 H0 0.856 . S
O26 C72 1.300 . S
O27 C72 1.209 1_565 S
O28 C73 1.199 . S
O29 H1 0.854 . S
O29 C73 1.297 . S
C30 C31 1.404 . S
C30 C35 1.397 1_556 S
C30 C36 1.492 . S
C31 C30 1.404 . S
C31 C32 1.396 . S
C31 C42 1.492 . S
C32 C31 1.396 . S
C32 C33 1.398 . S
C32 C48 1.509 . S
C33 C32 1.398 . S
C33 C34 1.412 1_556 S
C33 C54 1.485 1_556 S
C34 C33 1.412 1_554 S
C34 C35 1.388 . S
C34 C60 1.490 . S
C35 C30 1.397 1_554 S
C35 C34 1.388 . S
C35 C66 1.519 . S
C36 C30 1.492 . S
C36 C37 1.363 . S
C36 C41 1.390 . S
C37 H2 0.930 . S
C37 C36 1.363 . S
C37 C38 1.372 . S
C38 H3 0.930 . S
C38 C37 1.372 . S
C38 C39 1.383 . S
C39 C38 1.383 . S
C39 C40 1.395 . S
C40 H4 0.930 1_545 S
C40 C39 1.395 . S
C40 C41 1.362 . S
C41 H5 0.930 1_545 S
C41 C36 1.390 . S
C41 C40 1.362 . S
C42 C31 1.492 . S
C42 C43 1.377 . S
C42 C47 1.397 . S
C43 H6 0.931 . S
C43 C42 1.377 . S
C43 C44 1.376 . S
C44 H7 0.930 . S
C44 C43 1.376 . S
C44 C45 1.376 . S
C45 C44 1.376 . S
C45 C46 1.366 1_545 S
C45 C72 1.486 . S
C46 H8 0.942 . S
C46 C45 1.366 1_565 S
C46 C47 1.376 1_565 S
C47 H9 0.929 1_545 S
C47 C42 1.397 . S
C47 C46 1.376 1_545 S
C48 C32 1.509 . S
C48 C49 1.391 . S
C48 C53 1.386 1_545 S
C49 H10 0.930 . S
C49 C48 1.391 . S
C49 C50 1.375 . S
C50 H11 0.931 . S
C50 C49 1.375 . S
C50 C51 1.375 . S
C51 C50 1.375 . S
C51 C52 1.361 1_545 S
C52 H12 0.930 . S
C52 C51 1.361 1_565 S
C52 C53 1.399 . S
C53 H13 0.929 . S
C53 C48 1.386 1_565 S
C53 C52 1.399 . S
C54 C33 1.485 1_554 S
C54 C55 1.394 . S
C54 C59 1.360 . S
C55 H14 0.931 . S
C55 C54 1.394 . S
C55 C56 1.372 . S
C56 H15 0.930 . S
C56 C55 1.372 . S
C56 C57 1.397 . S
C57 C56 1.397 . S
C57 C58 1.390 . S
C57 C73 1.476 . S
C58 H16 0.930 1_545 S
C58 C57 1.390 . S
C58 C59 1.366 . S
C59 H17 0.932 1_544 S
C59 C54 1.360 . S
C59 C58 1.366 . S
C60 C34 1.490 . S
C60 C61 1.380 . S
C60 C65 1.386 . S
C61 H18 0.930 . S
C61 C60 1.380 . S
C61 C62 1.381 . S
C62 H19 0.929 . S
C62 C61 1.381 . S
C62 C63 1.371 . S
C63 C62 1.371 . S
C63 C64 1.380 . S
C64 H20 0.931 . S
C64 C63 1.380 . S
C64 C65 1.387 . S
C65 H21 0.930 1_545 S
C65 C60 1.386 . S
C65 C64 1.387 . S
C66 C35 1.519 . S
C66 C67 1.377 . S
C66 C71 1.361 . S
C67 H22 0.929 . S
C67 C66 1.377 . S
C67 C68 1.386 . S
C68 H23 0.931 . S
C68 C67 1.386 . S
C68 C69 1.363 . S
C69 C68 1.363 . S
C69 C70 1.385 . S
C70 H24 0.930 1_545 S
C70 C69 1.385 . S
C70 C71 1.396 . S
C71 H25 0.929 1_545 S
C71 C66 1.361 . S
C71 C70 1.396 . S
C72 O26 1.300 . S
C72 O27 1.209 1_545 S
C72 C45 1.486 . S
C73 O28 1.199 . S
C73 O29 1.297 . S
C73 C57 1.476 . S
H74 O100 0.856 . S
H75 O103 0.854 . S
H76 C111 0.930 1_655 S
H77 C112 0.934 . S
H78 C114 0.930 . S
H79 C115 0.930 . S
H80 C117 0.910 1_655 S
H81 C118 0.928 1_655 S
H82 C120 0.930 . S
H83 C121 0.929 . S
H84 C123 0.930 1_655 S
H85 C124 0.931 . S
H86 C126 0.930 . S
H87 C127 0.929 . S
H88 C129 0.931 1_655 S
H89 C130 0.930 . S
H90 C132 0.930 . S
H91 C133 0.932 . S
H92 C135 0.930 1_655 S
H93 C136 0.929 1_655 S
H94 C138 0.931 . S
H95 C139 0.930 . S
H96 C141 0.929 1_655 S
H97 C142 0.942 . S
H98 C144 0.930 . S
H99 C145 0.929 . S
O100 H74 0.856 . S
O100 C146 1.300 . S
O101 C146 1.209 . S
O102 C147 1.199 . S
O103 H75 0.854 . S
O103 C147 1.297 . S
C104 C105 1.404 . S
C104 C109 1.397 . S
C104 C110 1.492 . S
C105 C104 1.404 . S
C105 C106 1.396 . S
C105 C116 1.492 . S
C106 C105 1.396 . S
C106 C107 1.397 . S
C106 C122 1.509 . S
C107 C106 1.397 . S
C107 C108 1.412 . S
C107 C128 1.485 . S
C108 C107 1.412 . S
C108 C109 1.388 . S
C108 C134 1.490 . S
C109 C104 1.397 . S
C109 C108 1.388 . S
C109 C140 1.519 . S
C110 C104 1.492 . S
C110 C111 1.363 . S
C110 C115 1.390 . S
C111 H76 0.930 1_455 S
C111 C110 1.363 . S
C111 C112 1.372 1_455 S
C112 H77 0.934 . S
C112 C111 1.372 1_655 S
C112 C113 1.380 1_655 S
C113 C112 1.380 1_455 S
C113 C114 1.395 . S
C114 H78 0.930 . S
C114 C113 1.395 . S
C114 C115 1.362 . S
C115 H79 0.930 . S
C115 C110 1.390 . S
C115 C114 1.362 . S
C116 C105 1.492 . S
C116 C117 1.377 . S
C116 C121 1.397 . S
C117 H80 0.910 1_455 S
C117 C116 1.377 . S
C117 C118 1.376 . S
C118 H81 0.928 1_455 S
C118 C117 1.376 . S
C118 C119 1.376 . S
C119 C118 1.376 . S
C119 C120 1.378 . S
C119 C146 1.486 . S
C120 H82 0.930 . S
C120 C119 1.378 . S
C120 C121 1.376 . S
C121 H83 0.929 . S
C121 C116 1.397 . S
C121 C120 1.376 . S
C122 C106 1.509 . S
C122 C123 1.391 . S
C122 C127 1.386 . S
C123 H84 0.930 1_455 S
C123 C122 1.391 . S
C123 C124 1.375 . S
C124 H85 0.931 . S
C124 C123 1.375 . S
C124 C125 1.375 . S
C125 C124 1.375 . S
C125 C126 1.361 . S
C126 H86 0.930 . S
C126 C125 1.361 . S
C126 C127 1.399 . S
C127 H87 0.929 . S
C127 C122 1.386 . S
C127 C126 1.399 . S
C128 C107 1.485 . S
C128 C129 1.394 . S
C128 C133 1.360 . S
C129 H88 0.931 1_455 S
C129 C128 1.394 . S
C129 C130 1.372 . S
C130 H89 0.930 . S
C130 C129 1.372 . S
C130 C131 1.397 . S
C131 C130 1.397 . S
C131 C132 1.390 . S
C131 C147 1.476 . S
C132 H90 0.930 . S
C132 C131 1.390 . S
C132 C133 1.366 . S
C133 H91 0.932 . S
C133 C128 1.360 . S
C133 C132 1.366 . S
C134 C108 1.490 . S
C134 C135 1.380 . S
C134 C139 1.386 . S
C135 H92 0.930 1_455 S
C135 C134 1.380 . S
C135 C136 1.381 . S
C136 H93 0.929 1_455 S
C136 C135 1.381 . S
C136 C137 1.371 . S
C137 C136 1.371 . S
C137 C138 1.380 . S
C138 H94 0.931 . S
C138 C137 1.380 . S
C138 C139 1.387 . S
C139 H95 0.930 . S
C139 C134 1.386 . S
C139 C138 1.387 . S
C140 C109 1.519 . S
C140 C141 1.377 . S
C140 C145 1.361 . S
C141 H96 0.929 1_455 S
C141 C140 1.377 . S
C141 C142 1.386 . S
C142 H97 0.942 . S
C142 C141 1.386 . S
C142 C143 1.363 . S
C143 C142 1.363 . S
C143 C144 1.385 . S
C144 H98 0.930 . S
C144 C143 1.385 . S
C144 C145 1.396 . S
C145 H99 0.929 . S
C145 C140 1.361 . S
C145 C144 1.396 . S
C146 O100 1.300 . S
C146 O101 1.209 . S
C146 C119 1.486 . S
C147 O102 1.199 . S
C147 O103 1.297 . S
C147 C131 1.476 . S
Li148 N165 1.990 . S
Li148 O208 1.956 . S
Li148 O209 1.970 1_455 S
Li148 O210 1.961 . S
Li149 N173 1.990 1_545 S
Li149 O208 1.970 . S
Li149 O209 1.956 1_455 S
Li149 O211 1.961 . S
Li150 N195 1.990 . S
Li150 O208 1.961 . S
Li150 O210 1.956 . S
Li150 O211 1.978 . S
Li151 N201 1.990 . S
Li151 O209 1.961 . S
Li151 O210 1.970 1_655 S
Li151 O211 1.963 1_655 S
C152 C154 1.348 . S
C152 C155 1.356 . S
C152 O208 1.325 . S
N153 C156 1.314 . S
N153 C157 1.279 . S
C154 C152 1.348 . S
C154 C156 1.353 . S
C154 H212 0.929 . S
C155 C152 1.356 . S
C155 C157 1.358 . S
C155 H213 0.930 . S
C156 N153 1.314 . S
C156 C154 1.353 . S
C156 H214 0.930 . S
C157 N153 1.279 . S
C157 C155 1.358 . S
C157 H215 0.930 . S
C158 C161 1.348 . S
C158 C162 1.356 . S
C158 O209 1.325 . S
C159 N160 1.279 . S
C159 C162 1.358 . S
C159 H216 0.944 . S
N160 C159 1.279 . S
N160 C163 1.314 . S
C161 C158 1.348 . S
C161 C163 1.353 . S
C161 H217 0.929 . S
C162 C158 1.356 . S
C162 C159 1.358 . S
C162 H218 0.937 . S
C163 N160 1.314 . S
C163 C161 1.353 . S
C163 H219 0.930 . S
C164 N165 1.314 . S
C164 C169 1.353 . S
C164 H170 0.930 1_455 S
N165 Li148 1.990 . S
N165 C164 1.314 . S
N165 C167 1.279 . S
C166 C167 1.358 . S
C166 C168 1.356 . S
C166 H220 0.930 . S
C167 N165 1.279 . S
C167 C166 1.358 . S
C167 H171 0.930 . S
C168 C166 1.356 . S
C168 C169 1.348 . S
C169 C164 1.353 . S
C169 C168 1.348 . S
C169 H221 0.929 1_455 S
H170 C164 0.930 1_655 S
H171 C167 0.930 . S
C172 N173 1.314 . S
C172 C174 1.353 . S
C172 H178 0.930 . S
N173 Li149 1.990 1_565 S
N173 C172 1.314 . S
N173 C176 1.265 1_455 S
C174 C172 1.353 . S
C174 C177 1.348 . S
C174 H222 0.929 . S
C175 C176 1.359 . S
C175 C177 1.352 1_655 S
C175 H223 0.934 . S
C176 N173 1.265 1_655 S
C176 C175 1.359 . S
C176 H179 0.947 . S
C177 C174 1.348 . S
C177 C175 1.352 1_455 S
H178 C172 0.930 . S
H179 C176 0.947 . S
C180 C182 1.366 . S
C180 C183 1.356 . S
C180 O210 1.325 . S
N181 C184 1.314 . S
N181 C185 1.279 . S
C182 C180 1.366 . S
C182 C184 1.356 . S
C182 H224 0.910 1_455 S
C183 C180 1.356 . S
C183 C185 1.358 . S
C183 H225 0.930 . S
C184 N181 1.314 . S
C184 C182 1.356 . S
C184 H226 0.930 1_455 S
C185 N181 1.279 . S
C185 C183 1.358 . S
C185 H227 0.930 . S
C186 C187 1.348 . S
C186 C188 1.356 1_455 S
C186 O211 1.317 1_565 S
C187 C186 1.348 . S
C187 C189 1.353 . S
C187 H228 0.929 . S
C188 C186 1.356 1_655 S
C188 C190 1.358 . S
C188 H229 0.930 . S
C189 C187 1.353 . S
C189 N191 1.314 . S
C189 H230 0.930 . S
C190 C188 1.358 . S
C190 N191 1.279 1_655 S
C190 H231 0.930 . S
N191 C189 1.314 . S
N191 C190 1.279 1_455 S
C192 C194 1.353 . S
C192 N195 1.314 . S
C192 H198 0.930 . S
C193 N195 1.279 . S
C193 C196 1.358 . S
C193 H199 0.930 . S
C194 C192 1.353 . S
C194 C197 1.348 . S
C194 H232 0.929 . S
N195 Li150 1.990 . S
N195 C192 1.314 . S
N195 C193 1.279 . S
C196 C193 1.358 . S
C196 C197 1.356 . S
C196 H233 0.930 . S
C197 C194 1.348 . S
C197 C196 1.356 . S
H198 C192 0.930 . S
H199 C193 0.930 . S
C200 N201 1.314 . S
C200 C202 1.353 . S
C200 H206 0.930 . S
N201 Li151 1.990 . S
N201 C200 1.314 . S
N201 C204 1.279 . S
C202 C200 1.353 . S
C202 C205 1.348 . S
C202 H234 0.929 . S
C203 C204 1.358 . S
C203 C205 1.356 . S
C203 H235 0.924 1_545 S
C204 N201 1.279 . S
C204 C203 1.358 . S
C204 H207 0.932 1_545 S
C205 C202 1.348 . S
C205 C203 1.356 . S
H206 C200 0.930 . S
H207 C204 0.932 1_565 S
O208 Li148 1.956 . S
O208 Li149 1.970 . S
O208 Li150 1.961 . S
O208 C152 1.325 . S
O209 Li148 1.970 1_655 S
O209 Li149 1.956 1_655 S
O209 Li151 1.961 . S
O209 C158 1.325 . S
O210 Li148 1.961 . S
O210 Li150 1.956 . S
O210 Li151 1.970 1_455 S
O210 C180 1.325 . S
O211 Li149 1.961 . S
O211 Li150 1.978 . S
O211 Li151 1.963 1_455 S
O211 C186 1.317 1_545 S
H212 C154 0.929 . S
H213 C155 0.930 . S
H214 C156 0.930 . S
H215 C157 0.930 . S
H216 C159 0.944 . S
H217 C161 0.929 . S
H218 C162 0.937 . S
H219 C163 0.930 . S
H220 C166 0.930 . S
H221 C169 0.929 1_655 S
H222 C174 0.929 . S
H223 C175 0.934 . S
H224 C182 0.910 1_655 S
H225 C183 0.930 . S
H226 C184 0.930 1_655 S
H227 C185 0.930 . S
H228 C187 0.929 . S
H229 C188 0.930 . S
H230 C189 0.930 . S
H231 C190 0.930 . S
H232 C194 0.929 . S
H233 C196 0.930 . S
H234 C202 0.929 . S
H235 C203 0.924 1_565 S
Li236 N253 1.990 1_455 S
Li236 O296 1.956 . S
Li236 O297 1.970 1_545 S
Li236 O298 1.961 . S
Li237 N261 1.990 . S
Li237 O296 1.970 . S
Li237 O297 1.956 1_545 S
Li237 O299 1.961 . S
Li238 N283 1.990 . S
Li238 O296 1.961 . S
Li238 O298 1.956 . S
Li238 O299 1.970 . S
Li239 N289 1.990 . S
Li239 O297 1.961 . S
Li239 O298 1.970 1_565 S
Li239 O299 1.956 1_565 S
C240 C242 1.348 . S
C240 C243 1.356 . S
C240 O296 1.325 . S
N241 C244 1.314 . S
N241 C245 1.279 . S
C242 C240 1.348 . S
C242 C244 1.353 . S
C242 H300 0.929 . S
C243 C240 1.356 . S
C243 C245 1.358 . S
C243 H301 0.930 . S
C244 N241 1.314 . S
C244 C242 1.353 . S
C244 H302 0.930 . S
C245 N241 1.279 . S
C245 C243 1.358 . S
C245 H303 0.930 . S
C246 C249 1.348 . S
C246 C250 1.356 . S
C246 O297 1.325 . S
C247 N248 1.279 . S
C247 C250 1.358 . S
C247 H304 0.930 . S
N248 C247 1.279 . S
N248 C251 1.314 . S
C249 C246 1.348 . S
C249 C251 1.353 . S
C249 H305 0.929 . S
C250 C246 1.356 . S
C250 C247 1.358 . S
C250 H306 0.930 . S
C251 N248 1.314 . S
C251 C249 1.353 . S
C251 H307 0.930 . S
C252 N253 1.314 . S
C252 C257 1.353 . S
C252 H258 0.930 1_545 S
N253 Li236 1.990 1_655 S
N253 C252 1.314 . S
N253 C255 1.279 . S
C254 C255 1.358 . S
C254 C256 1.356 . S
C254 H308 0.930 . S
C255 N253 1.279 . S
C255 C254 1.358 . S
C255 H259 0.930 . S
C256 C254 1.356 . S
C256 C257 1.348 . S
C257 C252 1.353 . S
C257 C256 1.348 . S
C257 H309 0.929 1_545 S
H258 C252 0.930 1_565 S
H259 C255 0.930 . S
C260 N261 1.314 . S
C260 C262 1.353 . S
C260 H266 0.930 . S
N261 Li237 1.990 . S
N261 C260 1.314 . S
N261 C264 1.279 1_545 S
C262 C260 1.353 . S
C262 C265 1.348 . S
C262 H310 0.929 . S
C263 C264 1.359 . S
C263 C265 1.338 1_565 S
C263 H311 0.948 . S
C264 N261 1.279 1_565 S
C264 C263 1.359 . S
C264 H267 0.930 . S
C265 C262 1.348 . S
C265 C263 1.338 1_545 S
H266 C260 0.930 . S
H267 C264 0.930 . S
C268 C270 1.350 . S
C268 C271 1.356 . S
C268 O298 1.325 1_655 S
N269 C272 1.314 . S
N269 C273 1.279 . S
C270 C268 1.350 . S
C270 C272 1.353 . S
C270 H312 0.927 1_545 S
C271 C268 1.356 . S
C271 C273 1.358 . S
C271 H313 0.930 . S
C272 N269 1.314 . S
C272 C270 1.353 . S
C272 H314 0.930 1_545 S
C273 N269 1.279 . S
C273 C271 1.358 . S
C273 H315 0.930 . S
C274 C275 1.348 . S
C274 C276 1.356 1_545 S
C274 O299 1.325 . S
C275 C274 1.348 . S
C275 C277 1.353 . S
C275 H316 0.929 . S
C276 C274 1.356 1_565 S
C276 C278 1.358 . S
C276 H317 0.930 . S
C277 C275 1.353 . S
C277 N279 1.314 . S
C277 H318 0.930 . S
C278 C276 1.358 . S
C278 N279 1.279 1_565 S
C278 H319 0.930 . S
N279 C277 1.314 . S
N279 C278 1.279 1_545 S
C280 C282 1.353 . S
C280 N283 1.314 . S
C280 H286 0.930 . S
C281 N283 1.279 . S
C281 C284 1.358 . S
C281 H287 0.930 . S
C282 C280 1.353 . S
C282 C285 1.348 . S
C282 H320 0.929 . S
N283 Li238 1.990 . S
N283 C280 1.314 . S
N283 C281 1.279 . S
C284 C281 1.358 . S
C284 C285 1.356 . S
C284 H321 0.951 . S
C285 C282 1.348 . S
C285 C284 1.356 . S
H286 C280 0.930 . S
H287 C281 0.930 . S
C288 N289 1.314 . S
C288 C290 1.353 . S
C288 H294 0.930 . S
N289 Li239 1.990 . S
N289 C288 1.314 . S
N289 C292 1.279 . S
C290 C288 1.353 . S
C290 C293 1.348 . S
C290 H322 0.929 . S
C291 C292 1.358 . S
C291 C293 1.356 . S
C291 H323 0.930 . S
C292 N289 1.279 . S
C292 C291 1.358 . S
C292 H295 0.930 . S
C293 C290 1.348 . S
C293 C291 1.356 . S
H294 C288 0.930 . S
H295 C292 0.930 . S
O296 Li236 1.956 . S
O296 Li237 1.970 . S
O296 Li238 1.961 . S
O296 C240 1.325 . S
O297 Li236 1.970 1_565 S
O297 Li237 1.956 1_565 S
O297 Li239 1.961 . S
O297 C246 1.325 . S
O298 Li236 1.961 . S
O298 Li238 1.956 . S
O298 Li239 1.970 1_545 S
O298 C268 1.325 1_455 S
O299 Li237 1.961 . S
O299 Li238 1.970 . S
O299 Li239 1.956 1_545 S
O299 C274 1.325 . S
H300 C242 0.929 . S
H301 C243 0.930 . S
H302 C244 0.930 . S
H303 C245 0.930 . S
H304 C247 0.930 . S
H305 C249 0.929 . S
H306 C250 0.930 . S
H307 C251 0.930 . S
H308 C254 0.930 . S
H309 C257 0.929 1_565 S
H310 C262 0.929 . S
H311 C263 0.948 . S
H312 C270 0.927 1_565 S
H313 C271 0.930 . S
H314 C272 0.930 1_565 S
H315 C273 0.930 . S
H316 C275 0.929 . S
H317 C276 0.930 . S
H318 C277 0.930 . S
H319 C278 0.930 . S
H320 C282 0.929 . S
H321 C284 0.951 . S
H322 C290 0.929 . S
H323 C291 0.930 . S
C324 C325 1.349 . S
C324 C326 1.327 . S
C324 H349 0.950 1_545 S
C325 C324 1.349 . S
C325 C341 1.349 . S
C326 C324 1.327 . S
C326 C345 1.429 . S
C326 H350 0.950 1_545 S
C327 C344 1.574 . S
C327 C346 1.368 . S
C327 H351 0.949 . S
H328 C332 0.949 1_565 S
C329 C330 1.349 . S
C329 C331 1.327 . S
C329 H352 0.950 . S
C330 C329 1.349 . S
C330 C342 1.349 . S
C331 C329 1.327 . S
C331 C347 1.429 . S
C331 H353 0.950 . S
C332 H328 0.949 1_545 S
C332 C340 1.574 . S
C332 C348 1.368 . S
H333 C341 0.950 . S
H334 C339 0.950 . S
H335 C340 0.949 1_565 S
H336 C342 0.952 1_565 S
H337 C343 0.950 1_565 S
H338 C344 0.949 . S
C339 H334 0.950 . S
C339 C341 1.327 . S
C339 C345 1.429 . S
C340 C332 1.574 . S
C340 H335 0.949 1_545 S
C340 C346 1.368 . S
C341 C325 1.349 . S
C341 H333 0.950 . S
C341 C339 1.327 . S
C342 C330 1.349 . S
C342 H336 0.952 1_545 S
C342 C343 1.327 . S
C343 H337 0.950 1_545 S
C343 C342 1.327 . S
C343 C347 1.429 . S
C344 C327 1.574 . S
C344 H338 0.949 . S
C344 C348 1.368 . S
C345 C326 1.429 . S
C345 C339 1.429 . S
C345 C346 1.523 . S
C346 C327 1.368 . S
C346 C340 1.368 . S
C346 C345 1.523 . S
C347 C331 1.429 . S
C347 C343 1.429 . S
C347 C348 1.523 . S
C348 C332 1.368 . S
C348 C344 1.368 . S
C348 C347 1.523 . S
H349 C324 0.950 1_565 S
H350 C326 0.950 1_565 S
H351 C327 0.949 . S
H352 C329 0.950 . S
H353 C331 0.950 . S
C354 C355 1.349 . S
C354 C356 1.327 . S
C354 H379 0.950 . S
C355 C354 1.349 . S
C355 C371 1.349 . S
C356 C354 1.327 . S
C356 C375 1.429 . S
C356 H380 0.950 . S
C357 C374 1.574 . S
C357 C376 1.368 . S
C357 H381 0.949 . S
H358 C362 0.949 . S
C359 C360 1.349 . S
C359 C361 1.327 . S
C359 H382 0.950 . S
C360 C359 1.349 . S
C360 C372 1.349 . S
C361 C359 1.327 . S
C361 C377 1.429 . S
C361 H383 0.950 . S
C362 H358 0.949 . S
C362 C370 1.574 . S
C362 C378 1.368 . S
H363 C371 0.950 . S
H364 C369 0.950 . S
H365 C370 0.949 . S
H366 C372 0.950 . S
H367 C373 0.950 . S
H368 C374 0.949 . S
C369 H364 0.950 . S
C369 C371 1.327 . S
C369 C375 1.429 . S
C370 C362 1.574 . S
C370 H365 0.949 . S
C370 C376 1.368 . S
C371 C355 1.349 . S
C371 H363 0.950 . S
C371 C369 1.327 . S
C372 C360 1.349 . S
C372 H366 0.950 . S
C372 C373 1.327 . S
C373 H367 0.950 . S
C373 C372 1.327 . S
C373 C377 1.429 . S
C374 C357 1.574 . S
C374 H368 0.949 . S
C374 C378 1.368 . S
C375 C356 1.429 . S
C375 C369 1.429 . S
C375 C376 1.523 . S
C376 C357 1.368 . S
C376 C370 1.368 . S
C376 C375 1.523 . S
C377 C361 1.429 . S
C377 C373 1.429 . S
C377 C378 1.523 . S
C378 C362 1.368 . S
C378 C374 1.368 . S
C378 C377 1.523 . S
H379 C354 0.950 . S
H380 C356 0.950 . S
H381 C357 0.949 . S
H382 C359 0.950 . S
H383 C361 0.950 . S
C384 C385 1.349 . S
C384 C386 1.327 . S
C384 H409 0.950 . S
C385 C384 1.349 . S
C385 C401 1.349 . S
C386 C384 1.327 . S
C386 C405 1.429 . S
C386 H410 0.950 . S
C387 C404 1.574 . S
C387 C406 1.368 . S
C387 H411 0.949 . S
H388 C392 0.949 . S
C389 C390 1.349 . S
C389 C391 1.327 . S
C389 H412 0.950 1_545 S
C390 C389 1.349 . S
C390 C402 1.349 . S
C391 C389 1.327 . S
C391 C407 1.429 . S
C391 H413 0.950 1_545 S
C392 H388 0.949 . S
C392 C400 1.574 . S
C392 C408 1.368 . S
H393 C401 0.950 . S
H394 C399 0.950 . S
H395 C400 0.949 . S
H396 C402 0.950 . S
H397 C403 0.950 . S
H398 C404 0.949 1_565 S
C399 H394 0.950 . S
C399 C401 1.327 . S
C399 C405 1.429 . S
C400 C392 1.574 . S
C400 H395 0.949 . S
C400 C406 1.368 . S
C401 C385 1.349 . S
C401 H393 0.950 . S
C401 C399 1.327 . S
C402 C390 1.349 . S
C402 H396 0.950 . S
C402 C403 1.327 . S
C403 H397 0.950 . S
C403 C402 1.327 . S
C403 C407 1.429 . S
C404 C387 1.574 . S
C404 H398 0.949 1_545 S
C404 C408 1.368 . S
C405 C386 1.429 . S
C405 C399 1.429 . S
C405 C406 1.523 . S
C406 C387 1.368 . S
C406 C400 1.368 . S
C406 C405 1.523 . S
C407 C391 1.429 . S
C407 C403 1.429 . S
C407 C408 1.523 . S
C408 C392 1.368 . S
C408 C404 1.368 . S
C408 C407 1.523 . S
H409 C384 0.950 . S
H410 C386 0.950 . S
H411 C387 0.949 . S
H412 C389 0.950 1_565 S
H413 C391 0.950 1_565 S
C414 C415 1.349 . S
C414 C416 1.327 . S
C414 H439 0.950 1_455 S
C415 C414 1.349 . S
C415 C431 1.349 . S
C416 C414 1.327 . S
C416 C435 1.429 . S
C416 H440 0.951 1_455 S
C417 C434 1.574 . S
C417 C436 1.368 . S
C417 H441 0.949 . S
H418 C422 0.949 . S
C419 C420 1.349 . S
C419 C421 1.327 . S
C419 H442 0.950 . S
C420 C419 1.349 . S
C420 C432 1.349 . S
C421 C419 1.327 . S
C421 C437 1.429 . S
C421 H443 0.950 . S
C422 H418 0.949 . S
C422 C430 1.574 . S
C422 C438 1.368 . S
H423 C431 0.950 . S
H424 C429 0.950 . S
H425 C430 0.949 . S
H426 C432 0.950 . S
H427 C433 0.950 . S
H428 C434 0.949 . S
C429 H424 0.950 . S
C429 C431 1.327 . S
C429 C435 1.429 . S
C430 C422 1.574 . S
C430 H425 0.949 . S
C430 C436 1.368 . S
C431 C415 1.349 . S
C431 H423 0.950 . S
C431 C429 1.327 . S
C432 C420 1.349 . S
C432 H426 0.950 . S
C432 C433 1.327 . S
C433 H427 0.950 . S
C433 C432 1.327 . S
C433 C437 1.429 . S
C434 C417 1.574 . S
C434 H428 0.949 . S
C434 C438 1.368 . S
C435 C416 1.429 . S
C435 C429 1.429 . S
C435 C436 1.523 . S
C436 C417 1.368 . S
C436 C430 1.368 . S
C436 C435 1.523 . S
C437 C421 1.429 . S
C437 C433 1.429 . S
C437 C438 1.523 . S
C438 C422 1.368 . S
C438 C434 1.368 . S
C438 C437 1.523 . S
H439 C414 0.950 1_655 S
H440 C416 0.951 1_655 S
H441 C417 0.949 . S
H442 C419 0.950 . S
H443 C421 0.950 . S
C444 C445 1.349 . S
C444 C446 1.327 . S
C444 H469 0.950 . S
C445 C444 1.349 . S
C445 C461 1.349 . S
C446 C444 1.327 . S
C446 C465 1.429 . S
C446 H470 0.950 . S
C447 C464 1.574 . S
C447 C466 1.368 . S
C447 H471 0.949 . S
H448 C452 0.949 . S
C449 C450 1.349 . S
C449 C451 1.327 . S
C449 H472 0.950 . S
C450 C449 1.349 . S
C450 C462 1.349 . S
C451 C449 1.327 . S
C451 C467 1.429 . S
C451 H473 0.950 . S
C452 H448 0.949 . S
C452 C460 1.574 . S
C452 C468 1.368 . S
H453 C461 0.950 . S
H454 C459 0.950 . S
H455 C460 0.949 . S
H456 C462 0.950 1_565 S
H457 C463 0.950 . S
H458 C464 0.949 . S
C459 H454 0.950 . S
C459 C461 1.327 . S
C459 C465 1.429 . S
C460 C452 1.574 . S
C460 H455 0.949 . S
C460 C466 1.368 . S
C461 C445 1.349 . S
C461 H453 0.950 . S
C461 C459 1.327 . S
C462 C450 1.349 . S
C462 H456 0.950 1_545 S
C462 C463 1.327 . S
C463 H457 0.950 . S
C463 C462 1.327 . S
C463 C467 1.429 . S
C464 C447 1.574 . S
C464 H458 0.949 . S
C464 C468 1.368 . S
C465 C446 1.429 . S
C465 C459 1.429 . S
C465 C466 1.523 . S
C466 C447 1.368 . S
C466 C460 1.368 . S
C466 C465 1.523 . S
C467 C451 1.429 . S
C467 C463 1.429 . S
C467 C468 1.523 . S
C468 C452 1.368 . S
C468 C464 1.368 . S
C468 C467 1.523 . S
H469 C444 0.950 . S
H470 C446 0.950 . S
H471 C447 0.949 . S
H472 C449 0.950 . S
H473 C451 0.950 . S
C474 C475 1.349 1_655 S
C474 C476 1.327 . S
C474 H499 0.950 . S
C475 C474 1.349 1_455 S
C475 C491 1.349 . S
C476 C474 1.327 . S
C476 C495 1.429 1_655 S
C476 H500 0.950 . S
C477 C494 1.574 . S
C477 C496 1.368 . S
C477 H501 0.949 . S
H478 C482 0.949 . S
C479 C480 1.349 . S
C479 C481 1.327 . S
C479 H502 0.950 . S
C480 C479 1.349 . S
C480 C492 1.349 1_455 S
C481 C479 1.327 . S
C481 C497 1.429 . S
C481 H503 0.950 . S
C482 H478 0.949 . S
C482 C490 1.574 . S
C482 C498 1.368 1_655 S
H483 C491 0.950 . S
H484 C489 0.950 . S
H485 C490 0.949 . S
H486 C492 0.950 . S
H487 C493 0.950 . S
H488 C494 0.949 . S
C489 H484 0.950 . S
C489 C491 1.327 . S
C489 C495 1.429 . S
C490 C482 1.574 . S
C490 H485 0.949 . S
C490 C496 1.368 1_655 S
C491 C475 1.349 . S
C491 H483 0.950 . S
C491 C489 1.327 . S
C492 C480 1.349 1_655 S
C492 H486 0.950 . S
C492 C493 1.327 . S
C493 H487 0.950 . S
C493 C492 1.327 . S
C493 C497 1.429 1_655 S
C494 C477 1.574 . S
C494 H488 0.949 . S
C494 C498 1.368 . S
C495 C476 1.429 1_455 S
C495 C489 1.429 . S
C495 C496 1.523 . S
C496 C477 1.368 . S
C496 C490 1.368 1_455 S
C496 C495 1.523 . S
C497 C481 1.429 . S
C497 C493 1.429 1_455 S
C497 C498 1.523 . S
C498 C482 1.368 1_455 S
C498 C494 1.368 . S
C498 C497 1.523 . S
H499 C474 0.950 . S
H500 C476 0.950 . S
H501 C477 0.949 . S
H502 C479 0.950 . S
H503 C481 0.950 . S
C504 C505 1.349 . S
C504 C506 1.327 . S
C504 H529 0.950 . S
C505 C504 1.349 . S
C505 C521 1.349 1_545 S
C506 C504 1.327 . S
C506 C525 1.429 . S
C506 H530 0.950 . S
C507 C524 1.574 . S
C507 C526 1.368 1_565 S
C507 H531 0.949 . S
H508 C512 0.949 . S
C509 C510 1.349 1_565 S
C509 C511 1.327 . S
C509 H532 0.950 . S
C510 C509 1.349 1_545 S
C510 C522 1.349 . S
C511 C509 1.327 . S
C511 C527 1.429 1_565 S
C511 H533 0.950 . S
C512 H508 0.949 . S
C512 C520 1.574 . S
C512 C528 1.368 . S
H513 C521 0.950 . S
H514 C519 0.950 . S
H515 C520 0.949 . S
H516 C522 0.950 . S
H517 C523 0.950 . S
H518 C524 0.949 . S
C519 H514 0.950 . S
C519 C521 1.327 . S
C519 C525 1.429 1_565 S
C520 C512 1.574 . S
C520 H515 0.949 . S
C520 C526 1.368 . S
C521 C505 1.349 1_565 S
C521 H513 0.950 . S
C521 C519 1.327 . S
C522 C510 1.349 . S
C522 H516 0.950 . S
C522 C523 1.327 . S
C523 H517 0.950 . S
C523 C522 1.327 . S
C523 C527 1.429 . S
C524 C507 1.574 . S
C524 H518 0.949 . S
C524 C528 1.368 1_565 S
C525 C506 1.429 . S
C525 C519 1.429 1_545 S
C525 C526 1.523 . S
C526 C507 1.368 1_545 S
C526 C520 1.368 . S
C526 C525 1.523 . S
C527 C511 1.429 1_545 S
C527 C523 1.429 . S
C527 C528 1.523 . S
C528 C512 1.368 . S
C528 C524 1.368 1_545 S
C528 C527 1.523 . S
H529 C504 0.950 . S
H530 C506 0.950 . S
H531 C507 0.949 . S
H532 C509 0.950 . S
H533 C511 0.950 . S
C534 C535 1.349 . S
C534 C536 1.327 . S
C534 H559 0.950 . S
C535 C534 1.349 . S
C535 C551 1.349 . S
C536 C534 1.327 . S
C536 C555 1.429 . S
C536 H560 0.950 . S
C537 C554 1.574 . S
C537 C556 1.368 . S
C537 H561 0.949 . S
H538 C542 0.949 . S
C539 C540 1.349 . S
C539 C541 1.327 . S
C539 H562 0.950 1_455 S
C540 C539 1.349 . S
C540 C552 1.349 . S
C541 C539 1.327 . S
C541 C557 1.429 . S
C541 H563 0.950 1_455 S
C542 H538 0.949 . S
C542 C550 1.574 . S
C542 C558 1.368 . S
H543 C551 0.950 . S
H544 C549 0.950 . S
H545 C550 0.949 . S
H546 C552 0.950 . S
H547 C553 0.950 . S
H548 C554 0.952 . S
C549 H544 0.950 . S
C549 C551 1.327 . S
C549 C555 1.429 . S
C550 C542 1.574 . S
C550 H545 0.949 . S
C550 C556 1.368 . S
C551 C535 1.349 . S
C551 H543 0.950 . S
C551 C549 1.327 . S
C552 C540 1.349 . S
C552 H546 0.950 . S
C552 C553 1.327 . S
C553 H547 0.950 . S
C553 C552 1.327 . S
C553 C557 1.429 . S
C554 C537 1.574 . S
C554 H548 0.952 . S
C554 C558 1.368 . S
C555 C536 1.429 . S
C555 C549 1.429 . S
C555 C556 1.523 . S
C556 C537 1.368 . S
C556 C550 1.368 . S
C556 C555 1.523 . S
C557 C541 1.429 . S
C557 C553 1.429 . S
C557 C558 1.523 . S
C558 C542 1.368 . S
C558 C554 1.368 . S
C558 C557 1.523 . S
H559 C534 0.950 . S
H560 C536 0.950 . S
H561 C537 0.949 . S
H562 C539 0.950 1_655 S
H563 C541 0.950 1_655 S
C330 C197 2.324 . S
C325 C69 2.323 . S
C360 C285 2.333 . S
C355 C143 2.328 . S
C390 C205 1.400 . S
C385 C63 1.321 . S
C420 C293 1.387 . S
C415 C137 1.311 . S
C450 C265 1.338 . S
C445 C39 1.282 . S
C480 C168 1.322 . S
C475 C113 1.271 . S
C510 C256 0.550 . S
C505 C51 0.553 . S
C535 C125 0.580 . S
C540 C177 0.575 . S
