# Generated by pormake.
# Topology pto, (3,4)-cn, num edge types: 1
# Building blocks:
#     Node 0, Type 0, BuildingBlock: VETTIZ_charged_linker_0, # of connection points: 3
#     Node 1, Type 0, BuildingBlock: VETTIZ_charged_linker_0, # of connection points: 3
#     Node 2, Type 0, BuildingBlock: VETTIZ_charged_linker_0, # of connection points: 3
#     Node 3, Type 0, BuildingBlock: VETTIZ_charged_linker_0, # of connection points: 3
#     Node 4, Type 0, BuildingBlock: VETTIZ_charged_linker_0, # of connection points: 3
#     Node 5, Type 0, BuildingBlock: VETTIZ_charged_linker_0, # of connection points: 3
#     Node 6, Type 0, BuildingBlock: VETTIZ_charged_linker_0, # of connection points: 3
#     Node 7, Type 0, BuildingBlock: VETTIZ_charged_linker_0, # of connection points: 3
#     Node 8, Type 1, BuildingBlock: NAWXER_clean_sbu_0, # of connection points: 4
#     Node 9, Type 1, BuildingBlock: NAWXER_clean_sbu_0, # of connection points: 4
#     Node 10, Type 1, BuildingBlock: NAWXER_clean_sbu_0, # of connection points: 4
#     Node 11, Type 1, BuildingBlock: NAWXER_clean_sbu_0, # of connection points: 4
#     Node 12, Type 1, BuildingBlock: NAWXER_clean_sbu_0, # of connection points: 4
#     Node 13, Type 1, BuildingBlock: NAWXER_clean_sbu_0, # of connection points: 4
#     Edge 14, Type (0, 1), BuildingBlock: TEMPAE_clean_linker_10, # of connection points: 2
#     Edge 15, Type (0, 1), BuildingBlock: TEMPAE_clean_linker_10, # of connection points: 2
#     Edge 16, Type (0, 1), BuildingBlock: TEMPAE_clean_linker_10, # of connection points: 2
#     Edge 17, Type (0, 1), BuildingBlock: TEMPAE_clean_linker_10, # of connection points: 2
#     Edge 18, Type (0, 1), BuildingBlock: TEMPAE_clean_linker_10, # of connection points: 2
#     Edge 19, Type (0, 1), BuildingBlock: TEMPAE_clean_linker_10, # of connection points: 2
#     Edge 20, Type (0, 1), BuildingBlock: TEMPAE_clean_linker_10, # of connection points: 2
#     Edge 21, Type (0, 1), BuildingBlock: TEMPAE_clean_linker_10, # of connection points: 2
#     Edge 22, Type (0, 1), BuildingBlock: TEMPAE_clean_linker_10, # of connection points: 2
#     Edge 23, Type (0, 1), BuildingBlock: TEMPAE_clean_linker_10, # of connection points: 2
#     Edge 24, Type (0, 1), BuildingBlock: TEMPAE_clean_linker_10, # of connection points: 2
#     Edge 25, Type (0, 1), BuildingBlock: TEMPAE_clean_linker_10, # of connection points: 2
#     Edge 26, Type (0, 1), BuildingBlock: TEMPAE_clean_linker_10, # of connection points: 2
#     Edge 27, Type (0, 1), BuildingBlock: TEMPAE_clean_linker_10, # of connection points: 2
#     Edge 28, Type (0, 1), BuildingBlock: TEMPAE_clean_linker_10, # of connection points: 2
#     Edge 29, Type (0, 1), BuildingBlock: TEMPAE_clean_linker_10, # of connection points: 2
#     Edge 30, Type (0, 1), BuildingBlock: TEMPAE_clean_linker_10, # of connection points: 2
#     Edge 31, Type (0, 1), BuildingBlock: TEMPAE_clean_linker_10, # of connection points: 2
#     Edge 32, Type (0, 1), BuildingBlock: TEMPAE_clean_linker_10, # of connection points: 2
#     Edge 33, Type (0, 1), BuildingBlock: TEMPAE_clean_linker_10, # of connection points: 2
#     Edge 34, Type (0, 1), BuildingBlock: TEMPAE_clean_linker_10, # of connection points: 2
#     Edge 35, Type (0, 1), BuildingBlock: TEMPAE_clean_linker_10, # of connection points: 2
#     Edge 36, Type (0, 1), BuildingBlock: TEMPAE_clean_linker_10, # of connection points: 2
#     Edge 37, Type (0, 1), BuildingBlock: TEMPAE_clean_linker_10, # of connection points: 2
# Relax obj value: 0.000
# Max RMSD: 0.000
# Mean RMSD: 0.000
data_MOF--net-pto--node1-NAWXER_clean_sbu_0--node2-VETTIZ_charged_linker_0--edge1-TEMPAE_clean_linker_10
_symmetry_space_group_name_H-M    P1
_symmetry_Int_Tables_number       1
_symmetry_cell_setting            triclinic
loop_
_symmetry_equiv_pos_as_xyz
'x, y, z'
_cell_length_a     54.103815
_cell_length_b     50.835466
_cell_length_c     47.526294
_cell_angle_alpha  89.993209
_cell_angle_beta   90.039366
_cell_angle_gamma 89.977353
loop_
_atom_site_label
_atom_site_type_symbol
_atom_site_fract_x
_atom_site_fract_y
_atom_site_fract_z
_atom_type_partial_charge
C0 C 0.22861 0.21133 0.30547 0.0
C1 C 0.24817 0.19517 0.31431 0.0
C2 C 0.27199 0.19936 0.30331 0.0
C3 C 0.25655 0.23529 0.27461 0.0
C4 C 0.23325 0.2314 0.28589 0.0
C5 C 0.21488 0.25139 0.27543 0.0
H6 H 0.19032 0.35845 0.1951 0.0
C7 C 0.25516 0.25781 0.25488 0.0
C8 C 0.23079 0.26744 0.25546 0.0
H9 H 0.14124 0.31848 0.25278 0.0
H10 H 0.17301 0.28652 0.26296 0.0
H11 H 0.21273 0.30709 0.16739 0.0
H12 H 0.23774 0.35653 0.23494 0.0
H13 H 0.26362 0.34919 0.21403 0.0
H14 H 0.23788 0.36658 0.19873 0.0
H15 H 0.22783 0.3379 0.16097 0.0
H16 H 0.24506 0.30767 0.16487 0.0
C17 C 0.19404 0.23661 0.25967 0.0
C18 C 0.20593 0.26786 0.30093 0.0
C19 C 0.33051 0.28449 0.19699 0.0
C20 C 0.33398 0.30348 0.17577 0.0
C21 C 0.3142 0.32023 0.16862 0.0
C22 C 0.2913 0.31801 0.18209 0.0
C23 C 0.28794 0.29872 0.20292 0.0
C24 C 0.30733 0.28233 0.21009 0.0
C25 C 0.29998 0.26251 0.23217 0.0
C26 C 0.27297 0.26963 0.23684 0.0
C27 C 0.26616 0.29098 0.21975 0.0
C28 C 0.30293 0.23466 0.21942 0.0
C29 C 0.31584 0.26747 0.2588 0.0
C30 C 0.18641 0.34289 0.21002 0.0
C31 C 0.1632 0.34113 0.2232 0.0
C32 C 0.15884 0.3202 0.24207 0.0
C33 C 0.17741 0.30178 0.2482 0.0
C34 C 0.20073 0.30428 0.23543 0.0
C35 C 0.2048 0.32446 0.2165 0.0
C36 C 0.23067 0.32423 0.20503 0.0
C37 C 0.24168 0.30101 0.22073 0.0
C38 C 0.22408 0.28932 0.23844 0.0
C39 C 0.2292 0.31916 0.17288 0.0
C40 C 0.24326 0.3505 0.21333 0.0
H41 H 0.29479 0.22138 0.27569 0.0
H42 H 0.21022 0.20871 0.31404 0.0
H43 H 0.22073 0.26975 0.31708 0.0
H44 H 0.20129 0.28834 0.29524 0.0
H45 H 0.1897 0.25858 0.31121 0.0
H46 H 0.20185 0.22051 0.24653 0.0
H47 H 0.18078 0.22765 0.27471 0.0
H48 H 0.18376 0.2493 0.24489 0.0
H49 H 0.34529 0.27113 0.2027 0.0
H50 H 0.31649 0.33512 0.15252 0.0
H51 H 0.27704 0.33135 0.17559 0.0
H52 H 0.29636 0.23433 0.19723 0.0
H53 H 0.32261 0.22842 0.21951 0.0
H54 H 0.29183 0.21962 0.23035 0.0
H55 H 0.31991 0.28879 0.26138 0.0
H56 H 0.30629 0.2618 0.27841 0.0
H57 H 0.33379 0.25693 0.25754 0.0
H58 H 0.28728 0.1871 0.31005 0.0
C59 C 0.27627 0.21923 0.2834 0.0
C60 C 0.18335 0.66371 0.73382 0.0
C61 C 0.16163 0.66574 0.71766 0.0
C62 C 0.15825 0.68809 0.70049 0.0
C63 C 0.19782 0.7056 0.7156 0.0
C64 C 0.20109 0.68372 0.73243 0.0
C65 C 0.22512 0.68453 0.74832 0.0
H66 H 0.33209 0.74705 0.77966 0.0
C67 C 0.21986 0.72258 0.7188 0.0
C68 C 0.23597 0.71027 0.73785 0.0
H69 H 0.30381 0.67431 0.81404 0.0
H70 H 0.26792 0.6774 0.78428 0.0
H71 H 0.2791 0.77807 0.77988 0.0
H72 H 0.31711 0.73495 0.71477 0.0
H73 H 0.30332 0.76263 0.69915 0.0
H74 H 0.32695 0.76712 0.72558 0.0
H75 H 0.30776 0.78892 0.76475 0.0
H76 H 0.27859 0.79659 0.74854 0.0
C77 C 0.21916 0.68545 0.78024 0.0
C78 C 0.24085 0.66055 0.73906 0.0
C79 C 0.22469 0.80895 0.66527 0.0
C80 C 0.24332 0.82794 0.66222 0.0
C81 C 0.26594 0.82443 0.67647 0.0
C82 C 0.2698 0.80249 0.6939 0.0
C83 C 0.25093 0.78366 0.69688 0.0
C84 C 0.22898 0.78692 0.68233 0.0
C85 C 0.21162 0.76417 0.68648 0.0
C86 C 0.22646 0.74703 0.70646 0.0
C87 C 0.24939 0.75863 0.71279 0.0
C88 C 0.18774 0.77473 0.70044 0.0
C89 C 0.20752 0.75066 0.65758 0.0
C90 C 0.31824 0.73169 0.78049 0.0
C91 C 0.32075 0.71043 0.79931 0.0
C92 C 0.30219 0.691 0.79999 0.0
C93 C 0.28135 0.69282 0.78261 0.0
C94 C 0.27883 0.71438 0.76433 0.0
C95 C 0.29709 0.73336 0.76338 0.0
C96 C 0.29085 0.75512 0.74298 0.0
C97 C 0.26573 0.74617 0.73217 0.0
C98 C 0.25893 0.72221 0.7447 0.0
C99 C 0.28908 0.78118 0.75968 0.0
C100 C 0.31058 0.75525 0.7194 0.0
H101 H 0.1725 0.72445 0.6859 0.0
H102 H 0.18639 0.64704 0.7476 0.0
H103 H 0.23861 0.65678 0.71614 0.0
H104 H 0.26088 0.66356 0.74209 0.0
H105 H 0.23513 0.64246 0.75043 0.0
H106 H 0.20132 0.69569 0.78424 0.0
H107 H 0.21767 0.66534 0.7892 0.0
H108 H 0.2329 0.69679 0.79244 0.0
H109 H 0.20732 0.81093 0.65409 0.0
H110 H 0.28055 0.83886 0.6743 0.0
H111 H 0.28733 0.80099 0.70434 0.0
H112 H 0.19226 0.78955 0.71689 0.0
H113 H 0.17557 0.78439 0.68469 0.0
H114 H 0.17711 0.75933 0.71144 0.0
H115 H 0.22401 0.75284 0.64379 0.0
H116 H 0.20484 0.72917 0.65938 0.0
H117 H 0.19151 0.75937 0.64629 0.0
H118 H 0.14183 0.69006 0.68762 0.0
C119 C 0.17618 0.70799 0.69938 0.0
C120 C 0.81699 0.68969 0.22975 0.0
C121 C 0.8199 0.6684 0.21108 0.0
C122 C 0.79983 0.66105 0.19386 0.0
C123 C 0.77439 0.69516 0.21461 0.0
C124 C 0.79412 0.70265 0.23125 0.0
C125 C 0.78756 0.72509 0.25056 0.0
H126 H 0.70087 0.80808 0.30329 0.0
C127 C 0.75301 0.71194 0.22193 0.0
C128 C 0.76053 0.72947 0.24307 0.0
H129 H 0.77868 0.80478 0.32318 0.0
H130 H 0.78439 0.7695 0.28971 0.0
H131 H 0.69118 0.74438 0.29727 0.0
H132 H 0.70945 0.80446 0.23672 0.0
H133 H 0.68791 0.78329 0.22092 0.0
H134 H 0.67912 0.80179 0.25173 0.0
H135 H 0.67008 0.77011 0.28756 0.0
H136 H 0.6723 0.74018 0.2674 0.0
C137 C 0.79073 0.71554 0.28129 0.0
C138 C 0.80383 0.74908 0.24265 0.0
C139 C 0.67184 0.69966 0.16992 0.0
C140 C 0.64868 0.71211 0.17167 0.0
C141 C 0.64491 0.73124 0.19277 0.0
C142 C 0.66405 0.73833 0.21124 0.0
C143 C 0.68732 0.72624 0.20864 0.0
C144 C 0.69076 0.70701 0.18845 0.0
C145 C 0.71655 0.69606 0.18878 0.0
C146 C 0.72828 0.71239 0.21193 0.0
C147 C 0.71112 0.73006 0.22355 0.0
C148 C 0.71501 0.66651 0.19677 0.0
C149 C 0.72851 0.70159 0.15974 0.0
C150 C 0.71903 0.79951 0.30047 0.0
C151 C 0.73935 0.80889 0.31594 0.0
C152 C 0.76284 0.79774 0.31144 0.0
C153 C 0.76607 0.77726 0.29204 0.0
C154 C 0.74565 0.76798 0.27668 0.0
C155 C 0.72266 0.77931 0.28072 0.0
C156 C 0.70349 0.76805 0.26111 0.0
C157 C 0.71862 0.74771 0.24517 0.0
C158 C 0.74326 0.74761 0.25462 0.0
C159 C 0.683 0.75509 0.27909 0.0
C160 C 0.69426 0.79044 0.24163 0.0
H161 H 0.76267 0.66761 0.18187 0.0
H162 H 0.83198 0.69569 0.24344 0.0
H163 H 0.80876 0.74883 0.21992 0.0
H164 H 0.79418 0.76804 0.24571 0.0
H165 H 0.82135 0.74919 0.25483 0.0
H166 H 0.7834 0.69522 0.28377 0.0
H167 H 0.81055 0.71526 0.28743 0.0
H168 H 0.78044 0.72756 0.29664 0.0
H169 H 0.67528 0.68462 0.15426 0.0
H170 H 0.62733 0.74132 0.19447 0.0
H171 H 0.6601 0.75323 0.22659 0.0
H172 H 0.69897 0.66259 0.2108 0.0
H173 H 0.71283 0.65398 0.17779 0.0
H174 H 0.73122 0.6597 0.20892 0.0
H175 H 0.7229 0.72127 0.15171 0.0
H176 H 0.74889 0.70222 0.16051 0.0
H177 H 0.72271 0.68671 0.14395 0.0
H178 H 0.80168 0.64496 0.17905 0.0
C179 C 0.77718 0.67428 0.1955 0.0
C180 C 0.6833 0.29471 0.8081 0.0
C181 C 0.66195 0.27938 0.81214 0.0
C182 C 0.65794 0.25752 0.7944 0.0
C183 C 0.69634 0.26627 0.76972 0.0
C184 C 0.70011 0.28784 0.78691 0.0
C185 C 0.72377 0.30198 0.78013 0.0
H186 H 0.82857 0.3109 0.70302 0.0
C187 C 0.71753 0.2644 0.75008 0.0
C188 C 0.7336 0.28536 0.75607 0.0
H189 H 0.8039 0.36169 0.7704 0.0
H190 H 0.76679 0.33606 0.77539 0.0
H191 H 0.77672 0.30643 0.6725 0.0
H192 H 0.812 0.25596 0.73314 0.0
H193 H 0.79916 0.23593 0.70676 0.0
H194 H 0.82273 0.25943 0.6976 0.0
H195 H 0.80125 0.28445 0.66287 0.0
H196 H 0.76934 0.27402 0.66301 0.0
C197 C 0.71719 0.33026 0.77047 0.0
C198 C 0.74075 0.30061 0.80639 0.0
C199 C 0.72228 0.18949 0.67892 0.0
C200 C 0.73944 0.18317 0.6577 0.0
C201 C 0.76018 0.19957 0.65385 0.0
C202 C 0.76389 0.22175 0.67084 0.0
C203 C 0.74667 0.22778 0.69199 0.0
C204 C 0.72617 0.2119 0.69563 0.0
C205 C 0.70951 0.22189 0.71867 0.0
C206 C 0.72352 0.24618 0.72839 0.0
C207 C 0.74537 0.2494 0.71279 0.0
C208 C 0.68419 0.22901 0.70546 0.0
C209 C 0.70823 0.20062 0.74195 0.0
C210 C 0.81523 0.31637 0.71895 0.0
C211 C 0.81921 0.33844 0.73627 0.0
C212 C 0.80118 0.34505 0.7565 0.0
C213 C 0.77966 0.33 0.75952 0.0
C214 C 0.77598 0.30798 0.74217 0.0
C215 C 0.79355 0.30153 0.72222 0.0
C216 C 0.78632 0.27756 0.70551 0.0
C217 C 0.76166 0.2706 0.71891 0.0
C218 C 0.75576 0.28847 0.7404 0.0
C219 C 0.78338 0.28578 0.67428 0.0
C220 C 0.80606 0.25601 0.71073 0.0
H221 H 0.67094 0.23392 0.76069 0.0
H222 H 0.68686 0.31178 0.82112 0.0
H223 H 0.73849 0.2815 0.81753 0.0
H224 H 0.7606 0.30158 0.80116 0.0
H225 H 0.73626 0.31651 0.82158 0.0
H226 H 0.69944 0.33051 0.75862 0.0
H227 H 0.71514 0.34369 0.78875 0.0
H228 H 0.73087 0.33861 0.75572 0.0
H229 H 0.70603 0.17744 0.68221 0.0
H230 H 0.7738 0.195 0.63789 0.0
H231 H 0.7801 0.23329 0.66688 0.0
H232 H 0.68654 0.23689 0.68378 0.0
H233 H 0.67201 0.21147 0.7041 0.0
H234 H 0.67446 0.24476 0.71701 0.0
H235 H 0.72669 0.19146 0.74527 0.0
H236 H 0.70293 0.20862 0.76266 0.0
H237 H 0.69511 0.18472 0.73612 0.0
H238 H 0.64185 0.24514 0.79724 0.0
C239 C 0.67498 0.2509 0.77328 0.0
C240 C 0.79865 0.80843 0.70629 0.0
C241 C 0.78272 0.82974 0.70096 0.0
C242 C 0.76174 0.83324 0.71812 0.0
C243 C 0.77229 0.79421 0.74477 0.0
C244 C 0.79315 0.79106 0.72836 0.0
C245 C 0.80815 0.7675 0.73718 0.0
H246 H 0.82195 0.66074 0.82122 0.0
C247 C 0.77151 0.77245 0.76534 0.0
C248 C 0.79255 0.75682 0.76122 0.0
H249 H 0.87109 0.68941 0.75634 0.0
H250 H 0.84379 0.72575 0.74732 0.0
H251 H 0.8096 0.71808 0.8482 0.0
H252 H 0.77095 0.67168 0.78615 0.0
H253 H 0.74914 0.68481 0.80971 0.0
H254 H 0.77233 0.66234 0.82255 0.0
H255 H 0.79379 0.68815 0.85707 0.0
H256 H 0.77778 0.71923 0.85568 0.0
C257 C 0.83376 0.7773 0.74743 0.0
C258 C 0.80916 0.74814 0.71203 0.0
C259 C 0.69755 0.76437 0.83016 0.0
C260 C 0.69053 0.74592 0.85066 0.0
C261 C 0.70674 0.72491 0.85685 0.0
C262 C 0.72931 0.72215 0.84252 0.0
C263 C 0.73581 0.74058 0.82172 0.0
C264 C 0.72003 0.7613 0.81603 0.0
C265 C 0.72967 0.77898 0.79325 0.0
C266 C 0.75381 0.76543 0.78602 0.0
C267 C 0.7574 0.74291 0.80269 0.0
C268 C 0.73393 0.80669 0.80603 0.0
C269 C 0.71107 0.77821 0.76841 0.0
C270 C 0.82673 0.67482 0.80501 0.0
C271 C 0.84886 0.67224 0.78963 0.0
C272 C 0.85444 0.69114 0.76885 0.0
C273 C 0.83845 0.71218 0.76348 0.0
C274 C 0.81647 0.71452 0.77896 0.0
C275 C 0.81091 0.69612 0.79941 0.0
C276 C 0.78674 0.7021 0.81385 0.0
C277 C 0.77888 0.72714 0.79877 0.0
C278 C 0.79635 0.73417 0.77823 0.0
C279 C 0.79203 0.70701 0.84543 0.0
C280 C 0.76875 0.67905 0.80805 0.0
H281 H 0.74007 0.81932 0.75199 0.0
H282 H 0.81506 0.8054 0.69365 0.0
H283 H 0.79098 0.74732 0.70109 0.0
H284 H 0.81302 0.72768 0.7184 0.0
H285 H 0.82322 0.75439 0.69639 0.0
H286 H 0.83247 0.79738 0.75665 0.0
H287 H 0.84722 0.77818 0.72982 0.0
H288 H 0.84149 0.76506 0.76453 0.0
H289 H 0.68577 0.78096 0.82515 0.0
H290 H 0.70172 0.71027 0.87238 0.0
H291 H 0.74071 0.70566 0.848 0.0
H292 H 0.73905 0.80539 0.82868 0.0
H293 H 0.717 0.81898 0.8045 0.0
H294 H 0.74953 0.81725 0.79614 0.0
H295 H 0.70318 0.75814 0.76582 0.0
H296 H 0.71961 0.78273 0.7479 0.0
H297 H 0.69544 0.79197 0.77202 0.0
H298 H 0.74904 0.84933 0.71425 0.0
C299 C 0.75646 0.81565 0.73994 0.0
C300 C 0.80271 0.18815 0.32099 0.0
C301 C 0.78869 0.16495 0.31882 0.0
C302 C 0.77006 0.16334 0.29813 0.0
C303 C 0.77885 0.20795 0.2832 0.0
C304 C 0.7975 0.20929 0.30301 0.0
C305 C 0.81044 0.23547 0.30272 0.0
H306 H 0.82306 0.35728 0.24712 0.0
C307 C 0.77749 0.23366 0.26876 0.0
C308 C 0.79597 0.24986 0.28005 0.0
H309 H 0.86778 0.31957 0.31093 0.0
H310 H 0.84175 0.28129 0.30922 0.0
H311 H 0.77055 0.33855 0.27322 0.0
H312 H 0.81551 0.30549 0.20712 0.0
H313 H 0.78451 0.30759 0.19572 0.0
H314 H 0.80092 0.33717 0.2046 0.0
H315 H 0.77147 0.3528 0.23869 0.0
H316 H 0.75055 0.32629 0.24724 0.0
C317 C 0.80705 0.2484 0.332 0.0
C318 C 0.83774 0.23079 0.29408 0.0
C319 C 0.71134 0.24884 0.19482 0.0
C320 C 0.70373 0.27112 0.17974 0.0
C321 C 0.71639 0.29507 0.18354 0.0
C322 C 0.73667 0.29668 0.20195 0.0
C323 C 0.74411 0.27417 0.21699 0.0
C324 C 0.73124 0.25088 0.21351 0.0
C325 C 0.74049 0.22946 0.23257 0.0
C326 C 0.7613 0.24352 0.24775 0.0
C327 C 0.76362 0.26963 0.23835 0.0
C328 C 0.71921 0.22171 0.25282 0.0
C329 C 0.75021 0.20666 0.21397 0.0
C330 C 0.82704 0.34085 0.2609 0.0
C331 C 0.84772 0.34138 0.27897 0.0
C332 C 0.8523 0.31951 0.29646 0.0
C333 C 0.83709 0.29728 0.29549 0.0
C334 C 0.81697 0.29671 0.27682 0.0
C335 C 0.81201 0.31834 0.26011 0.0
C336 C 0.78968 0.31401 0.24164 0.0
C337 C 0.78267 0.28595 0.2494 0.0
C338 C 0.79872 0.27604 0.2701 0.0
C339 C 0.76946 0.33399 0.25035 0.0
C340 C 0.79788 0.31629 0.21056 0.0
H341 H 0.75049 0.18227 0.26527 0.0
H342 H 0.81734 0.18989 0.33644 0.0
H343 H 0.83949 0.21347 0.27989 0.0
H344 H 0.84558 0.24728 0.28185 0.0
H345 H 0.84957 0.22706 0.31277 0.0
H346 H 0.7882 0.24452 0.34035 0.0
H347 H 0.82057 0.24047 0.34742 0.0
H348 H 0.80867 0.27005 0.33146 0.0
H349 H 0.70157 0.23035 0.1926 0.0
H350 H 0.71064 0.31247 0.17211 0.0
H351 H 0.74572 0.31537 0.20387 0.0
H352 H 0.70707 0.23886 0.25744 0.0
H353 H 0.70742 0.20606 0.24355 0.0
H354 H 0.72586 0.2152 0.27366 0.0
H355 H 0.75973 0.21443 0.19496 0.0
H356 H 0.76419 0.1944 0.2247 0.0
H357 H 0.73482 0.19388 0.20673 0.0
H358 H 0.75881 0.14581 0.29622 0.0
C359 C 0.7651 0.18466 0.28033 0.0
C360 C 0.27015 0.19216 0.71431 0.0
C361 C 0.25359 0.19211 0.69154 0.0
C362 C 0.23427 0.21073 0.691 0.0
C363 C 0.2481 0.22869 0.73562 0.0
C364 C 0.26714 0.21056 0.73591 0.0
C365 C 0.28344 0.21338 0.76131 0.0
H366 H 0.31589 0.27998 0.87858 0.0
C367 C 0.25042 0.24513 0.76119 0.0
C368 C 0.27117 0.23634 0.77618 0.0
H369 H 0.34918 0.21006 0.84352 0.0
H370 H 0.31853 0.20912 0.80675 0.0
H371 H 0.25954 0.25779 0.87149 0.0
H372 H 0.3027 0.30994 0.81937 0.0
H373 H 0.27272 0.32303 0.82321 0.0
H374 H 0.29205 0.31905 0.85381 0.0
H375 H 0.26617 0.29101 0.88182 0.0
H376 H 0.24012 0.28316 0.85965 0.0
C377 C 0.28177 0.1876 0.77873 0.0
C378 C 0.3098 0.22038 0.75096 0.0
C379 C 0.18651 0.3158 0.78138 0.0
C380 C 0.18386 0.33458 0.80288 0.0
C381 C 0.20225 0.33625 0.82386 0.0
C382 C 0.22266 0.31912 0.82373 0.0
C383 C 0.2248 0.30015 0.80232 0.0
C384 C 0.20701 0.29896 0.78145 0.0
C385 C 0.21259 0.27821 0.75984 0.0
C386 C 0.23618 0.26646 0.77166 0.0
C387 C 0.24331 0.27933 0.79659 0.0
C388 C 0.19109 0.2581 0.75982 0.0
C389 C 0.21696 0.292 0.73116 0.0
C390 C 0.31644 0.26459 0.86283 0.0
C391 C 0.33495 0.24514 0.86361 0.0
C392 C 0.33502 0.22514 0.8432 0.0
C393 C 0.31725 0.22471 0.82184 0.0
C394 C 0.29902 0.24439 0.82096 0.0
C395 C 0.29844 0.2636 0.84153 0.0
C396 C 0.27656 0.28176 0.83803 0.0
C397 C 0.2647 0.27073 0.81148 0.0
C398 C 0.27821 0.24907 0.80151 0.0
C399 C 0.25967 0.27856 0.86409 0.0
C400 C 0.28633 0.31004 0.83353 0.0
H401 H 0.21625 0.24251 0.7114 0.0
H402 H 0.28537 0.17832 0.71518 0.0
H403 H 0.30896 0.23449 0.73308 0.0
H404 H 0.32116 0.23025 0.76707 0.0
H405 H 0.31973 0.20255 0.74355 0.0
H406 H 0.26382 0.17741 0.77531 0.0
H407 H 0.29669 0.17363 0.77287 0.0
H408 H 0.28245 0.19119 0.80168 0.0
H409 H 0.17301 0.3144 0.7646 0.0
H410 H 0.20064 0.35056 0.84064 0.0
H411 H 0.23596 0.32128 0.84032 0.0
H412 H 0.18506 0.25373 0.78171 0.0
H413 H 0.17486 0.26589 0.74816 0.0
H414 H 0.19628 0.2389 0.75074 0.0
H415 H 0.22466 0.31211 0.73408 0.0
H416 H 0.23078 0.28173 0.71802 0.0
H417 H 0.19944 0.29397 0.71913 0.0
H418 H 0.22115 0.21093 0.67377 0.0
C419 C 0.23141 0.22897 0.71292 0.0
C420 C 0.19188 0.69524 0.27868 0.0
C421 C 0.18652 0.67577 0.25857 0.0
C422 C 0.20168 0.67373 0.23451 0.0
C423 C 0.22649 0.7106 0.25048 0.0
C424 C 0.21186 0.7123 0.27427 0.0
C425 C 0.22005 0.73399 0.29368 0.0
H426 H 0.29389 0.83904 0.31719 0.0
C427 C 0.24532 0.73169 0.25197 0.0
C428 C 0.24161 0.74543 0.27732 0.0
H429 H 0.23905 0.80601 0.37329 0.0
H430 H 0.23026 0.77191 0.33943 0.0
H431 H 0.26457 0.83141 0.25979 0.0
H432 H 0.31854 0.78546 0.304 0.0
H433 H 0.32443 0.77956 0.26832 0.0
H434 H 0.32722 0.81257 0.28202 0.0
H435 H 0.2966 0.84028 0.26229 0.0
H436 H 0.28531 0.81947 0.23439 0.0
C437 C 0.19853 0.75388 0.29657 0.0
C438 C 0.22848 0.7215 0.32186 0.0
C439 C 0.30865 0.74378 0.17324 0.0
C440 C 0.32826 0.76173 0.16973 0.0
C441 C 0.33167 0.78176 0.18981 0.0
C442 C 0.3163 0.78364 0.21331 0.0
C443 C 0.29723 0.76524 0.21702 0.0
C444 C 0.29345 0.74583 0.19713 0.0
C445 C 0.27224 0.72801 0.20502 0.0
C446 C 0.26434 0.73971 0.23311 0.0
C447 C 0.27908 0.76154 0.23982 0.0
C448 C 0.2519 0.73091 0.18231 0.0
C449 C 0.28237 0.69969 0.20835 0.0
C450 C 0.28021 0.82434 0.32257 0.0
C451 C 0.26712 0.82553 0.34809 0.0
C452 C 0.24917 0.80601 0.35365 0.0
C453 C 0.24419 0.78605 0.33402 0.0
C454 C 0.25739 0.78537 0.30856 0.0
C455 C 0.2753 0.8041 0.30348 0.0
C456 C 0.28848 0.7997 0.27612 0.0
C457 C 0.27525 0.77545 0.2653 0.0
C458 C 0.25685 0.76727 0.28415 0.0
C459 C 0.28376 0.82395 0.25705 0.0
C460 C 0.31613 0.7942 0.2827 0.0
H461 H 0.23227 0.68857 0.21154 0.0
H462 H 0.18084 0.69708 0.29758 0.0
H463 H 0.23611 0.70141 0.31854 0.0
H464 H 0.24367 0.73254 0.33197 0.0
H465 H 0.21281 0.71977 0.33684 0.0
H466 H 0.18985 0.75768 0.27572 0.0
H467 H 0.18397 0.74618 0.31083 0.0
H468 H 0.20451 0.7733 0.30435 0.0
H469 H 0.30564 0.72811 0.15818 0.0
H470 H 0.34638 0.79604 0.18733 0.0
H471 H 0.32003 0.79931 0.22777 0.0
H472 H 0.2504 0.75171 0.17518 0.0
H473 H 0.25613 0.71865 0.16357 0.0
H474 H 0.23331 0.72584 0.19011 0.0
H475 H 0.30096 0.69992 0.21837 0.0
H476 H 0.27087 0.68735 0.22226 0.0
H477 H 0.28418 0.68984 0.18759 0.0
H478 H 0.19784 0.65905 0.21858 0.0
C479 C 0.22156 0.69103 0.23035 0.0
C480 C 0.97233 0.48876 0.26523 0.0
C481 C 0.0387 0.55452 0.26199 0.0
O482 O 0.98294 0.49953 0.28619 0.0
Zn483 Zn 0.00527 0.52182 0.26473 0.0
O484 O 0.9789 0.49516 0.24023 0.0
Zn485 Zn 0.00465 0.52089 0.21974 0.0
O486 O 0.0255 0.496 0.1996 0.0
O487 O 0.02903 0.49326 0.24573 0.0
O488 O 0.03119 0.54727 0.23761 0.0
O489 O 0.02872 0.54473 0.28383 0.0
O490 O 0.97992 0.54868 0.24535 0.0
O491 O 0.98272 0.54435 0.19929 0.0
C492 C 0.03515 0.48523 0.22114 0.0
C493 C 0.9729 0.55534 0.22058 0.0
C494 C 0.9707 0.45379 0.74383 0.0
C495 C 0.03339 0.52287 0.74085 0.0
O496 O 0.97739 0.46124 0.76849 0.0
Zn497 Zn 1.00307 0.48879 0.78663 0.0
O498 O 0.98097 0.46395 0.72241 0.0
Zn499 Zn 1.00264 0.4879 0.74213 0.0
O500 O 0.02973 0.46262 0.76143 0.0
O501 O 0.0258 0.4666 0.80738 0.0
O502 O 0.02313 0.51124 0.72024 0.0
O503 O 0.02756 0.51631 0.76607 0.0
O504 O 0.98132 0.51213 0.80731 0.0
O505 O 0.97706 0.51508 0.76127 0.0
C506 C 0.03671 0.45639 0.78637 0.0
C507 C 0.97077 0.52244 0.78609 0.0
C508 C 0.23225 0.98515 0.53466 0.0
C509 C 0.23732 0.05123 0.45954 0.0
O510 O 0.21444 0.99362 0.51968 0.0
Zn511 Zn 0.23369 0.01848 0.49736 0.0
O512 O 0.25411 0.99406 0.53065 0.0
Zn513 Zn 0.2728 0.02091 0.50326 0.0
O514 O 0.28638 0.04624 0.52938 0.0
O515 O 0.24562 0.04668 0.52796 0.0
O516 O 0.25839 0.04528 0.47017 0.0
O517 O 0.21783 0.04065 0.46929 0.0
O518 O 0.25524 0.99189 0.47256 0.0
O519 O 0.2947 0.99705 0.4836 0.0
C520 C 0.26595 0.05549 0.53814 0.0
C521 C 0.27796 0.98543 0.46952 0.0
C522 C 0.51797 0.70717 0.02112 0.0
C523 C 0.45972 0.71025 0.94153 0.0
O524 O 0.50881 0.68731 0.00853 0.0
Zn525 Zn 0.48921 0.70711 0.98106 0.0
O526 O 0.51211 0.73036 0.01292 0.0
Zn527 Zn 0.48997 0.74944 0.98187 0.0
O528 O 0.46642 0.76845 0.00512 0.0
O529 O 0.46229 0.72532 0.00765 0.0
O530 O 0.46647 0.73288 0.95056 0.0
O531 O 0.46867 0.68963 0.95285 0.0
O532 O 0.51767 0.7248 0.95644 0.0
O533 O 0.51505 0.76796 0.9602 0.0
C534 C 0.45538 0.74841 0.01513 0.0
C535 C 0.52586 0.74774 0.95029 0.0
C536 C 0.78021 0.95418 0.53671 0.0
C537 C 0.78172 0.01886 0.461 0.0
O538 O 0.75844 0.96085 0.5286 0.0
Zn539 Zn 0.74204 0.98697 0.49803 0.0
O540 O 0.79897 0.9644 0.52493 0.0
Zn541 Zn 0.78125 0.98618 0.49866 0.0
O542 O 0.76447 0.01497 0.5259 0.0
O543 O 0.72402 0.0118 0.52137 0.0
O544 O 0.80003 0.00783 0.47291 0.0
O545 O 0.75973 0.01267 0.46853 0.0
O546 O 0.72387 0.96338 0.47346 0.0
O547 O 0.76425 0.95761 0.47134 0.0
C548 C 0.7427 0.02281 0.53259 0.0
C549 C 0.74238 0.95111 0.46353 0.0
C550 C 0.55473 0.26081 0.05252 0.0
C551 C 0.4826 0.25134 0.9912 0.0
O552 O 0.54382 0.23953 0.04592 0.0
Zn553 Zn 0.5188 0.25488 0.0216 0.0
O554 O 0.5465 0.2828 0.04319 0.0
Zn555 Zn 0.51696 0.2969 0.01729 0.0
O556 O 0.49669 0.31715 0.04355 0.0
O557 O 0.49502 0.27433 0.05076 0.0
O558 O 0.48881 0.2753 0.99562 0.0
O559 O 0.49542 0.23268 1.0015 0.0
O560 O 0.53991 0.27077 0.98775 0.0
O561 O 0.5348 0.31377 0.98641 0.0
C562 C 0.4879 0.29764 0.05706 0.0
C563 C 0.54458 0.29304 0.97631 0.0
C564 C 0.1509 0.3884 0.21741 0.0
C565 C 0.1441 0.36177 0.21842 0.0
C566 C 0.13305 0.4083 0.2149 0.0
C567 C 0.10772 0.40146 0.21348 0.0
C568 C 0.10076 0.37461 0.2135 0.0
C569 C 0.11903 0.35508 0.21598 0.0
C570 C 0.14125 0.43669 0.21506 0.0
C571 C 0.07394 0.36652 0.21198 0.0
C572 C 0.06267 0.45149 0.24296 0.0
C573 C 0.05334 0.46348 0.21853 0.0
C574 C 0.08008 0.43114 0.24148 0.0
C575 C 0.08851 0.42244 0.2149 0.0
C576 C 0.07907 0.43421 0.19009 0.0
C577 C 0.06155 0.45462 0.19219 0.0
C578 C 0.08964 0.41914 0.26847 0.0
C579 C 0.08767 0.42543 0.16139 0.0
H580 H 0.17018 0.39381 0.21964 0.0
H581 H 0.11365 0.33455 0.21629 0.0
H582 H 0.13273 0.44752 0.19726 0.0
H583 H 0.13499 0.44629 0.23477 0.0
H584 H 0.16166 0.43866 0.21361 0.0
H585 H 0.07172 0.34491 0.20968 0.0
H586 H 0.06427 0.37284 0.23142 0.0
H587 H 0.06468 0.37637 0.19401 0.0
H588 H 0.05643 0.45807 0.26345 0.0
H589 H 0.05444 0.46372 0.17322 0.0
H590 H 0.10991 0.42207 0.27003 0.0
H591 H 0.08622 0.39762 0.26852 0.0
H592 H 0.08083 0.42781 0.28743 0.0
H593 H 0.10784 0.42882 0.1593 0.0
H594 H 0.07803 0.43602 0.14412 0.0
H595 H 0.08449 0.404 0.15881 0.0
C596 C 0.11734 0.65119 0.72021 0.0
C597 C 0.14253 0.64471 0.71892 0.0
C598 C 0.0992 0.63155 0.72242 0.0
C599 C 0.1064 0.60478 0.72342 0.0
C600 C 0.13175 0.59809 0.72162 0.0
C601 C 0.1495 0.61812 0.71937 0.0
C602 C 0.07235 0.63947 0.72434 0.0
C603 C 0.14018 0.56978 0.72256 0.0
C604 C 0.06339 0.55617 0.75915 0.0
C605 C 0.05198 0.54387 0.73611 0.0
C606 C 0.08106 0.57602 0.75526 0.0
C607 C 0.08753 0.58384 0.72766 0.0
C608 C 0.07608 0.57158 0.70428 0.0
C609 C 0.05844 0.55172 0.70878 0.0
C610 C 0.09287 0.58858 0.78075 0.0
C611 C 0.0825 0.57944 0.67453 0.0
H612 H 0.11182 0.67168 0.7202 0.0
H613 H 0.16889 0.61294 0.71792 0.0
H614 H 0.06142 0.62921 0.70792 0.0
H615 H 0.06475 0.63348 0.74505 0.0
H616 H 0.06972 0.66102 0.72184 0.0
H617 H 0.16049 0.56782 0.7199 0.0
H618 H 0.1349 0.56084 0.74299 0.0
H619 H 0.13086 0.55829 0.70578 0.0
H620 H 0.05855 0.55027 0.78035 0.0
H621 H 0.04973 0.54236 0.69085 0.0
H622 H 0.08943 0.61009 0.78061 0.0
H623 H 0.11318 0.58567 0.78012 0.0
H624 H 0.08572 0.58033 0.8008 0.0
H625 H 0.07874 0.6007 0.67141 0.0
H626 H 0.07187 0.5681 0.65864 0.0
H627 H 0.10252 0.57632 0.67072 0.0
C628 C 0.84277 0.62561 0.20988 0.0
C629 C 0.84337 0.65319 0.21021 0.0
C630 C 0.86465 0.61079 0.20991 0.0
C631 C 0.88776 0.62384 0.21014 0.0
C632 C 0.88853 0.65169 0.20994 0.0
C633 C 0.86631 0.66605 0.21011 0.0
C634 C 0.863 0.58113 0.21047 0.0
C635 C 0.91281 0.66631 0.20999 0.0
C636 C 0.9409 0.58492 0.24146 0.0
C637 C 0.95246 0.57463 0.2174 0.0
C638 C 0.92029 0.60151 0.23931 0.0
C639 C 0.91098 0.60821 0.21242 0.0
C640 C 0.92302 0.59868 0.18799 0.0
C641 C 0.94359 0.58191 0.19076 0.0
C642 C 0.90795 0.61114 0.2659 0.0
C643 C 0.91375 0.60559 0.15896 0.0
H644 H 0.82511 0.61555 0.21034 0.0
H645 H 0.86687 0.68737 0.21006 0.0
H646 H 0.87371 0.57262 0.19278 0.0
H647 H 0.87124 0.57356 0.23027 0.0
H648 H 0.84363 0.57401 0.20902 0.0
H649 H 0.91026 0.68792 0.20811 0.0
H650 H 0.92297 0.66213 0.22978 0.0
H651 H 0.92458 0.65943 0.19235 0.0
H652 H 0.94759 0.57952 0.26217 0.0
H653 H 0.95243 0.57414 0.17206 0.0
H654 H 0.8889 0.60314 0.26715 0.0
H655 H 0.90643 0.63289 0.26563 0.0
H656 H 0.91816 0.60516 0.28515 0.0
H657 H 0.89516 0.59689 0.15569 0.0
H658 H 0.92624 0.5983 0.14214 0.0
H659 H 0.91181 0.62722 0.15682 0.0
C660 C 0.8653 0.34222 0.7311 0.0
C661 C 0.84215 0.35442 0.73378 0.0
C662 C 0.8872 0.3571 0.73076 0.0
C663 C 0.8859 0.38484 0.73313 0.0
C664 C 0.86254 0.3973 0.73493 0.0
C665 C 0.84099 0.38196 0.73523 0.0
C666 C 0.91174 0.34309 0.72883 0.0
C667 C 0.86033 0.42684 0.73731 0.0
C668 C 0.93948 0.4231 0.76457 0.0
C669 C 0.95026 0.43452 0.74066 0.0
C670 C 0.91898 0.40635 0.7623 0.0
C671 C 0.9089 0.40083 0.73544 0.0
C672 C 0.92008 0.41167 0.71113 0.0
C673 C 0.94065 0.42837 0.71401 0.0
C674 C 0.90767 0.39513 0.78875 0.0
C675 C 0.9099 0.40622 0.68213 0.0
H676 H 0.86637 0.32094 0.7302 0.0
H677 H 0.82315 0.39155 0.7368 0.0
H678 H 0.92304 0.35159 0.71161 0.0
H679 H 0.9222 0.34588 0.74869 0.0
H680 H 0.90955 0.32166 0.72503 0.0
H681 H 0.84079 0.43356 0.73707 0.0
H682 H 0.86904 0.43357 0.75719 0.0
H683 H 0.87031 0.4365 0.71975 0.0
H684 H 0.9468 0.42761 0.78525 0.0
H685 H 0.94884 0.43707 0.69541 0.0
H686 H 0.90642 0.37339 0.78719 0.0
H687 H 0.88858 0.40274 0.79131 0.0
H688 H 0.91845 0.40022 0.80789 0.0
H689 H 0.90833 0.3847 0.67864 0.0
H690 H 0.9216 0.41476 0.66526 0.0
H691 H 0.89103 0.4146 0.6803 0.0
C692 C 0.25366 0.17677 0.36253 0.0
C693 C 0.24398 0.17423 0.33536 0.0
C694 C 0.25055 0.15671 0.38254 0.0
C695 C 0.23802 0.13327 0.37492 0.0
C696 C 0.22806 0.13077 0.34745 0.0
C697 C 0.23093 0.15145 0.32806 0.0
C698 C 0.26103 0.16042 0.41173 0.0
C699 C 0.21509 0.10592 0.33827 0.0
C700 C 0.25617 0.07324 0.41789 0.0
C701 C 0.23619 0.07078 0.43646 0.0
C702 C 0.25649 0.09282 0.39707 0.0
C703 C 0.23665 0.11092 0.39524 0.0
C704 C 0.2162 0.10827 0.41368 0.0
C705 C 0.21606 0.08797 0.43385 0.0
C706 C 0.27835 0.09445 0.37739 0.0
C707 C 0.19495 0.1275 0.41282 0.0
H708 H 0.26366 0.19451 0.36807 0.0
H709 H 0.22357 0.14957 0.30693 0.0
H710 H 0.24654 0.15672 0.42775 0.0
H711 H 0.27609 0.14601 0.41543 0.0
H712 H 0.26855 0.18054 0.41494 0.0
H713 H 0.20764 0.10744 0.31654 0.0
H714 H 0.22819 0.08914 0.33915 0.0
H715 H 0.19966 0.10133 0.3528 0.0
H716 H 0.27168 0.05983 0.4197 0.0
H717 H 0.20067 0.08624 0.44832 0.0
H718 H 0.28866 0.11295 0.38126 0.0
H719 H 0.27193 0.09488 0.35521 0.0
H720 H 0.29126 0.07764 0.38007 0.0
H721 H 0.20172 0.14747 0.41821 0.0
H722 H 0.17998 0.12211 0.42774 0.0
H723 H 0.18708 0.12853 0.3913 0.0
C724 C 0.33817 0.70302 0.84748 0.0
C725 C 0.34211 0.70876 0.81896 0.0
C726 C 0.35794 0.70177 0.86657 0.0
C727 C 0.38235 0.7061 0.8569 0.0
C728 C 0.38652 0.7114 0.82801 0.0
C729 C 0.36632 0.71287 0.80941 0.0
C730 C 0.35261 0.69654 0.89725 0.0
C731 C 0.41228 0.71588 0.81683 0.0
C732 C 0.42825 0.73177 0.91071 0.0
C733 C 0.44078 0.7088 0.91891 0.0
C734 C 0.40952 0.73115 0.89034 0.0
C735 C 0.4032 0.70699 0.87745 0.0
C736 C 0.41609 0.68376 0.88511 0.0
C737 C 0.43463 0.6849 0.90591 0.0
C738 C 0.39608 0.75632 0.8831 0.0
C739 C 0.41005 0.65769 0.87158 0.0
H740 H 0.31946 0.70013 0.85503 0.0
H741 H 0.36947 0.71704 0.78733 0.0
H742 H 0.36358 0.67948 0.90475 0.0
H743 H 0.3582 0.71381 0.91003 0.0
H744 H 0.33273 0.69251 0.90118 0.0
H745 H 0.41258 0.71798 0.79356 0.0
H746 H 0.42018 0.73397 0.82629 0.0
H747 H 0.42449 0.69927 0.82288 0.0
H748 H 0.43274 0.75036 0.92065 0.0
H749 H 0.44425 0.66709 0.91202 0.0
H750 H 0.37617 0.75431 0.88825 0.0
H751 H 0.39741 0.76026 0.8602 0.0
H752 H 0.40356 0.77358 0.89464 0.0
H753 H 0.39079 0.65199 0.87676 0.0
H754 H 0.42266 0.64175 0.87866 0.0
H755 H 0.41124 0.65939 0.84835 0.0
C756 C 0.74902 0.85419 0.3328 0.0
C757 C 0.73641 0.83042 0.33663 0.0
C758 C 0.74782 0.87423 0.35311 0.0
C759 C 0.73425 0.87005 0.37821 0.0
C760 C 0.72116 0.84614 0.38194 0.0
C761 C 0.72217 0.82671 0.36089 0.0
C762 C 0.76158 0.89961 0.34798 0.0
C763 C 0.70697 0.84065 0.40863 0.0
C764 C 0.75687 0.90952 0.44107 0.0
C765 C 0.73915 0.92959 0.44283 0.0
C766 C 0.75495 0.88955 0.4208 0.0
C767 C 0.73519 0.89001 0.40123 0.0
C768 C 0.71709 0.9101 0.40306 0.0
C769 C 0.71911 0.92948 0.42411 0.0
C770 C 0.77431 0.86814 0.42008 0.0
C771 C 0.69608 0.91164 0.38222 0.0
H772 H 0.75995 0.85702 0.31392 0.0
H773 H 0.71258 0.80819 0.36385 0.0
H774 H 0.7491 0.91667 0.35124 0.0
H775 H 0.77698 0.90147 0.36327 0.0
H776 H 0.76934 0.90069 0.32637 0.0
H777 H 0.6968 0.8217 0.40768 0.0
H778 H 0.71995 0.84 0.42671 0.0
H779 H 0.69357 0.85669 0.41281 0.0
H780 H 0.77228 0.9094 0.45566 0.0
H781 H 0.70547 0.94507 0.42529 0.0
H782 H 0.785 0.86943 0.40022 0.0
H783 H 0.76535 0.84852 0.42054 0.0
H784 H 0.78741 0.86952 0.43803 0.0
H785 H 0.70359 0.91465 0.36073 0.0
H786 H 0.68309 0.92795 0.38705 0.0
H787 H 0.68563 0.89288 0.38197 0.0
C788 C 0.65312 0.29241 0.8621 0.0
C789 C 0.64433 0.28559 0.83528 0.0
C790 C 0.63681 0.29653 0.88466 0.0
C791 C 0.61104 0.29376 0.88036 0.0
C792 C 0.60198 0.2879 0.8531 0.0
C793 C 0.61872 0.28384 0.83092 0.0
C794 C 0.64725 0.3026 0.9134 0.0
C795 C 0.57465 0.28489 0.84758 0.0
C796 C 0.57274 0.27055 0.94239 0.0
C797 C 0.56147 0.29389 0.95166 0.0
C798 C 0.58882 0.27037 0.9193 0.0
C799 C 0.59384 0.29411 0.90487 0.0
C800 C 0.58256 0.3178 0.91399 0.0
C801 C 0.56651 0.31743 0.93734 0.0
C802 C 0.6005 0.24467 0.91039 0.0
C803 C 0.58745 0.34348 0.89908 0.0
H804 H 0.67287 0.29358 0.86574 0.0
H805 H 0.61176 0.27903 0.81016 0.0
H806 H 0.63772 0.31985 0.92271 0.0
H807 H 0.64405 0.28565 0.92764 0.0
H808 H 0.66742 0.30667 0.91271 0.0
H809 H 0.57045 0.28281 0.8248 0.0
H810 H 0.56764 0.26721 0.8587 0.0
H811 H 0.5644 0.30211 0.85592 0.0
H812 H 0.56908 0.25222 0.95326 0.0
H813 H 0.55789 0.33554 0.94432 0.0
H814 H 0.62093 0.2463 0.91127 0.0
H815 H 0.5954 0.24013 0.8883 0.0
H816 H 0.5947 0.22794 0.9239 0.0
H817 H 0.6075 0.34803 0.89971 0.0
H818 H 0.57714 0.36014 0.90862 0.0
H819 H 0.58212 0.34181 0.87661 0.0
C820 C 0.21924 0.86801 0.64854 0.0
C821 C 0.23932 0.85113 0.64387 0.0
C822 C 0.21556 0.8904 0.63166 0.0
C823 C 0.232 0.89559 0.60914 0.0
C824 C 0.25194 0.87815 0.60394 0.0
C825 C 0.25554 0.85633 0.62162 0.0
C826 C 0.19449 0.90882 0.63835 0.0
C827 C 0.26959 0.88263 0.57981 0.0
C828 C 0.21412 0.94203 0.54947 0.0
C829 C 0.22879 0.96399 0.5556 0.0
C830 C 0.21441 0.91977 0.56711 0.0
C831 C 0.22921 0.91987 0.59176 0.0
C832 C 0.24283 0.94272 0.59883 0.0
C833 C 0.24276 0.96431 0.58044 0.0
C834 C 0.20006 0.89562 0.5585 0.0
C835 C 0.25829 0.94399 0.62526 0.0
H836 H 0.20676 0.86399 0.66585 0.0
H837 H 0.27091 0.84309 0.61786 0.0
H838 H 0.2019 0.92853 0.6438 0.0
H839 H 0.18245 0.91133 0.61964 0.0
H840 H 0.18303 0.90167 0.65616 0.0
H841 H 0.28308 0.8663 0.57747 0.0
H842 H 0.25916 0.88476 0.55982 0.0
H843 H 0.27996 0.90118 0.58318 0.0
H844 H 0.20359 0.94164 0.53006 0.0
H845 H 0.25407 0.98135 0.58522 0.0
H846 H 0.18845 0.88855 0.57616 0.0
H847 H 0.21315 0.87956 0.55315 0.0
H848 H 0.18801 0.89935 0.53999 0.0
H849 H 0.24725 0.9377 0.64374 0.0
H850 H 0.26555 0.96409 0.62925 0.0
H851 H 0.27418 0.93031 0.62342 0.0
C852 C 0.63501 0.70417 0.12198 0.0
C853 C 0.62903 0.70625 0.15063 0.0
C854 C 0.61657 0.70089 0.1015 0.0
C855 C 0.59147 0.69963 0.1098 0.0
C856 C 0.58538 0.7005 0.13877 0.0
C857 C 0.60422 0.70391 0.15883 0.0
C858 C 0.62388 0.70029 0.07084 0.0
C859 C 0.55886 0.69905 0.1485 0.0
C860 C 0.5454 0.72719 0.05745 0.0
C861 C 0.53587 0.70442 0.04469 0.0
C862 C 0.56312 0.72575 0.07887 0.0
C863 C 0.57161 0.70089 0.08806 0.0
C864 C 0.56179 0.67772 0.07577 0.0
C865 C 0.54403 0.67974 0.05414 0.0
C866 C 0.57312 0.75099 0.09127 0.0
C867 C 0.57033 0.65086 0.08518 0.0
H868 H 0.6541 0.70623 0.11541 0.0
H869 H 0.59949 0.70509 0.18095 0.0
H870 H 0.61491 0.68351 0.05998 0.0
H871 H 0.61747 0.71857 0.06037 0.0
H872 H 0.64421 0.69869 0.06802 0.0
H873 H 0.55741 0.6968 0.17169 0.0
H874 H 0.549 0.71729 0.14227 0.0
H875 H 0.54924 0.68232 0.13827 0.0
H876 H 0.53924 0.74641 0.05046 0.0
H877 H 0.53677 0.66205 0.04447 0.0
H878 H 0.59331 0.75229 0.08746 0.0
H879 H 0.57027 0.75119 0.11438 0.0
H880 H 0.56418 0.76874 0.08217 0.0
H881 H 0.59028 0.64845 0.08046 0.0
H882 H 0.55995 0.63477 0.07466 0.0
H883 H 0.56811 0.64884 0.10828 0.0
C884 C 0.73032 0.13502 0.65175 0.0
C885 C 0.73614 0.15945 0.63973 0.0
C886 C 0.72926 0.1121 0.63521 0.0
C887 C 0.73391 0.11369 0.60592 0.0
C888 C 0.73882 0.13848 0.59354 0.0
C889 C 0.73997 0.16101 0.61059 0.0
C890 C 0.72414 0.08604 0.64927 0.0
C891 C 0.74363 0.14113 0.56237 0.0
C892 C 0.76049 0.05483 0.56705 0.0
C893 C 0.73979 0.04505 0.55262 0.0
C894 C 0.75864 0.07668 0.58496 0.0
C895 C 0.73552 0.08931 0.5885 0.0
C896 C 0.71441 0.07927 0.57448 0.0
C897 C 0.71677 0.0572 0.55677 0.0
C898 C 0.78159 0.0866 0.59964 0.0
C899 C 0.68947 0.09224 0.57765 0.0
H900 H 0.72751 0.13367 0.67428 0.0
H901 H 0.74411 0.1799 0.60112 0.0
H902 H 0.70899 0.07557 0.63822 0.0
H903 H 0.74082 0.07339 0.64799 0.0
H904 H 0.71901 0.08836 0.67176 0.0
H905 H 0.74536 0.16199 0.5557 0.0
H906 H 0.76097 0.13069 0.55683 0.0
H907 H 0.72846 0.13184 0.55019 0.0
H908 H 0.77834 0.04552 0.56417 0.0
H909 H 0.70068 0.04983 0.54571 0.0
H910 H 0.77839 0.08773 0.62267 0.0
H911 H 0.78597 0.10677 0.59225 0.0
H912 H 0.7979 0.07383 0.59575 0.0
H913 H 0.68449 0.09377 0.60023 0.0
H914 H 0.67465 0.0813 0.56648 0.0
H915 H 0.69024 0.11256 0.56915 0.0
C916 C 0.35761 0.30618 0.13068 0.0
C917 C 0.3577 0.30523 0.16017 0.0
C918 C 0.37976 0.30701 0.11538 0.0
C919 C 0.40263 0.30724 0.12991 0.0
C920 C 0.40283 0.307 0.15973 0.0
C921 C 0.38035 0.30574 0.17451 0.0
C922 C 0.37869 0.30671 0.08362 0.0
C923 C 0.42681 0.30754 0.17597 0.0
C924 C 0.45655 0.27836 0.08952 0.0
C925 C 0.46785 0.30085 0.07814 0.0
C926 C 0.43581 0.28028 0.10701 0.0
C927 C 0.42616 0.30536 0.11375 0.0
C928 C 0.43807 0.32825 0.10342 0.0
C929 C 0.45871 0.32573 0.08555 0.0
C930 C 0.42356 0.25534 0.11726 0.0
C931 C 0.42853 0.35534 0.11052 0.0
H932 H 0.34014 0.30551 0.11951 0.0
H933 H 0.38046 0.30528 0.19732 0.0
H934 H 0.38927 0.32352 0.0749 0.0
H935 H 0.38739 0.28843 0.07557 0.0
H936 H 0.35944 0.30773 0.07554 0.0
H937 H 0.42378 0.30958 0.19899 0.0
H938 H 0.43726 0.28912 0.1721 0.0
H939 H 0.43852 0.32409 0.16865 0.0
H940 H 0.4634 0.25899 0.08402 0.0
H941 H 0.46734 0.34321 0.07695 0.0
H942 H 0.40465 0.25392 0.10834 0.0
H943 H 0.42171 0.25569 0.14049 0.0
H944 H 0.43402 0.23741 0.11119 0.0
H945 H 0.41022 0.35836 0.1005 0.0
H946 H 0.44121 0.3711 0.10323 0.0
H947 H 0.42591 0.35729 0.13358 0.0
C948 C 0.89166 0.65392 0.79465 0.0
C949 C 0.86602 0.64978 0.79446 0.0
C950 C 0.90826 0.63275 0.7961 0.0
C951 C 0.89905 0.60672 0.79748 0.0
C952 C 0.87319 0.60245 0.79867 0.0
C953 C 0.85697 0.62403 0.79715 0.0
C954 C 0.93568 0.63821 0.7949 0.0
C955 C 0.86263 0.57501 0.80022 0.0
C956 C 0.94035 0.55419 0.76565 0.0
C957 C 0.95164 0.54319 0.7895 0.0
C958 C 0.92288 0.57446 0.76807 0.0
C959 C 0.91643 0.58406 0.79504 0.0
C960 C 0.92737 0.57275 0.81929 0.0
C961 C 0.94487 0.55245 0.81624 0.0
C962 C 0.91169 0.58597 0.74166 0.0
C963 C 0.9209 0.58241 0.84839 0.0
H964 H 0.89879 0.67379 0.79312 0.0
H965 H 0.83719 0.62065 0.79687 0.0
H966 H 0.94533 0.62805 0.8124 0.0
H967 H 0.94337 0.63039 0.77494 0.0
H968 H 0.93988 0.65957 0.79609 0.0
H969 H 0.84237 0.57512 0.80399 0.0
H970 H 0.86628 0.56454 0.78016 0.0
H971 H 0.87173 0.56364 0.81725 0.0
H972 H 0.94534 0.54717 0.74488 0.0
H973 H 0.95343 0.54404 0.8348 0.0
H974 H 0.91668 0.60707 0.73993 0.0
H975 H 0.89124 0.5848 0.74263 0.0
H976 H 0.91805 0.5757 0.72234 0.0
H977 H 0.92655 0.60328 0.8507 0.0
H978 H 0.93006 0.5707 0.86516 0.0
H979 H 0.90061 0.58158 0.85161 0.0
C980 C 0.85639 0.39002 0.27841 0.0
C981 C 0.86513 0.36404 0.27896 0.0
C982 C 0.87287 0.41141 0.278 0.0
C983 C 0.89869 0.40668 0.27795 0.0
C984 C 0.90758 0.38051 0.27882 0.0
C985 C 0.89073 0.35955 0.2793 0.0
C986 C 0.86268 0.43904 0.27717 0.0
C987 C 0.93494 0.37458 0.27848 0.0
C988 C 0.94193 0.45682 0.24528 0.0
C989 C 0.95273 0.46861 0.26902 0.0
C990 C 0.92398 0.4371 0.24796 0.0
C991 C 0.91648 0.4289 0.27508 0.0
C992 C 0.92688 0.44103 0.29919 0.0
C993 C 0.94493 0.46073 0.29588 0.0
C994 C 0.91345 0.42463 0.2217 0.0
C995 C 0.91925 0.43285 0.32845 0.0
H996 H 0.83664 0.39362 0.27844 0.0
H997 H 0.89765 0.33954 0.2793 0.0
H998 H 0.87064 0.45088 0.29457 0.0
H999 H 0.86809 0.4487 0.25716 0.0
H1000 H 0.84221 0.43945 0.27889 0.0
H1001 H 0.93885 0.35322 0.28064 0.0
H1002 H 0.94314 0.38161 0.25845 0.0
H1003 H 0.94436 0.38519 0.29584 0.0
H1004 H 0.94771 0.46275 0.22439 0.0
H1005 H 0.95309 0.46977 0.31434 0.0
H1006 H 0.893 0.42619 0.22173 0.0
H1007 H 0.91815 0.40339 0.22125 0.0
H1008 H 0.9206 0.43391 0.20216 0.0
H1009 H 0.89888 0.43421 0.3307 0.0
H1010 H 0.92805 0.44515 0.34497 0.0
H1011 H 0.92446 0.41201 0.33209 0.0
C1012 C 0.13826 0.34219 0.79827 0.0
C1013 C 0.16199 0.35233 0.80319 0.0
C1014 C 0.11751 0.35876 0.79715 0.0
C1015 C 0.12055 0.38622 0.80077 0.0
C1016 C 0.14441 0.39653 0.80626 0.0
C1017 C 0.16482 0.37944 0.80755 0.0
C1018 C 0.09239 0.34693 0.79157 0.0
C1019 C 0.14847 0.42571 0.80994 0.0
C1020 C 0.07237 0.4307 0.76713 0.0
C1021 C 0.05789 0.43814 0.79031 0.0
C1022 C 0.09286 0.41402 0.77033 0.0
C1023 C 0.09898 0.40424 0.79734 0.0
C1024 C 0.08438 0.41149 0.82083 0.0
C1025 C 0.06408 0.42846 0.81707 0.0
C1026 C 0.10804 0.40695 0.74475 0.0
C1027 C 0.09016 0.40126 0.84991 0.0
H1028 H 0.13593 0.32119 0.79527 0.0
H1029 H 0.18314 0.3874 0.81112 0.0
H1030 H 0.07916 0.35307 0.80814 0.0
H1031 H 0.08512 0.35426 0.77119 0.0
H1032 H 0.09294 0.32509 0.79084 0.0
H1033 H 0.16795 0.43047 0.81532 0.0
H1034 H 0.1435 0.43615 0.79023 0.0
H1035 H 0.1363 0.43344 0.82679 0.0
H1036 H 0.06787 0.43817 0.74638 0.0
H1037 H 0.05301 0.43406 0.83509 0.0
H1038 H 0.10787 0.38533 0.74157 0.0
H1039 H 0.12756 0.41289 0.748 0.0
H1040 H 0.10106 0.41653 0.7253 0.0
H1041 H 0.08968 0.37944 0.84993 0.0
H1042 H 0.07694 0.40861 0.86597 0.0
H1043 H 0.10911 0.40723 0.85615 0.0
C1044 C 0.167 0.63099 0.25677 0.0
C1045 C 0.1649 0.658 0.26229 0.0
C1046 C 0.14646 0.61422 0.25899 0.0
C1047 C 0.12316 0.62474 0.26667 0.0
C1048 C 0.12104 0.65189 0.27286 0.0
C1049 C 0.14194 0.66817 0.27068 0.0
C1050 C 0.14956 0.58534 0.25247 0.0
C1051 C 0.09651 0.66393 0.28083 0.0
C1052 C 0.06695 0.58753 0.24009 0.0
C1053 C 0.05942 0.57359 0.26409 0.0
C1054 C 0.08732 0.60457 0.24087 0.0
C1055 C 0.10074 0.60766 0.26622 0.0
C1056 C 0.09304 0.594 0.29069 0.0
C1057 C 0.07237 0.57721 0.28938 0.0
C1058 C 0.0947 0.61898 0.21436 0.0
C1059 C 0.10697 0.59667 0.31807 0.0
H1060 H 0.18477 0.62296 0.25066 0.0
H1061 H 0.14013 0.68907 0.27473 0.0
H1062 H 0.14238 0.57325 0.27009 0.0
H1063 H 0.13866 0.58021 0.23347 0.0
H1064 H 0.16918 0.57995 0.24868 0.0
H1065 H 0.09826 0.68499 0.28675 0.0
H1066 H 0.08349 0.66237 0.26286 0.0
H1067 H 0.08821 0.65306 0.29871 0.0
H1068 H 0.05698 0.58503 0.22048 0.0
H1069 H 0.06674 0.56645 0.30799 0.0
H1070 H 0.11351 0.61279 0.20783 0.0
H1071 H 0.09536 0.64047 0.21835 0.0
H1072 H 0.08175 0.61523 0.19667 0.0
H1073 H 0.12619 0.5895 0.31534 0.0
H1074 H 0.09817 0.58542 0.33541 0.0
H1075 H 0.10809 0.61767 0.32429 0.0
C1076 C 0.79253 0.83792 0.65022 0.0
C1077 C 0.78718 0.84788 0.67705 0.0
C1078 C 0.7939 0.85469 0.62678 0.0
C1079 C 0.78996 0.88203 0.63036 0.0
C1080 C 0.78578 0.89231 0.65763 0.0
C1081 C 0.78438 0.87509 0.68063 0.0
C1082 C 0.79831 0.84299 0.59803 0.0
C1083 C 0.78173 0.92136 0.66237 0.0
C1084 C 0.8064 0.93023 0.57205 0.0
C1085 C 0.78316 0.93495 0.5599 0.0
C1086 C 0.80903 0.91275 0.59477 0.0
C1087 C 0.78796 0.8996 0.60544 0.0
C1088 C 0.76457 0.9039 0.59289 0.0
C1089 C 0.76245 0.92155 0.57036 0.0
C1090 C 0.83424 0.90873 0.60772 0.0
C1091 C 0.74167 0.89013 0.60353 0.0
H1092 H 0.79455 0.81688 0.64734 0.0
H1093 H 0.7806 0.88288 0.70143 0.0
H1094 H 0.7813 0.84493 0.58513 0.0
H1095 H 0.81322 0.8538 0.58697 0.0
H1096 H 0.8034 0.82184 0.59914 0.0
H1097 H 0.78089 0.92645 0.68509 0.0
H1098 H 0.79678 0.93291 0.65244 0.0
H1099 H 0.76413 0.9275 0.65233 0.0
H1100 H 0.82249 0.94051 0.5641 0.0
H1101 H 0.74444 0.92493 0.56102 0.0
H1102 H 0.83902 0.8875 0.60786 0.0
H1103 H 0.83405 0.91543 0.62993 0.0
H1104 H 0.84892 0.91962 0.59628 0.0
H1105 H 0.74446 0.86851 0.60325 0.0
H1106 H 0.72504 0.89487 0.59077 0.0
H1107 H 0.73807 0.89591 0.62566 0.0
C1108 C 0.66071 0.28359 0.16635 0.0
C1109 C 0.68226 0.26935 0.16061 0.0
C1110 C 0.63976 0.28112 0.14908 0.0
C1111 C 0.64069 0.26455 0.12511 0.0
C1112 C 0.66261 0.25038 0.1191 0.0
C1113 C 0.68304 0.25267 0.13718 0.0
C1114 C 0.61658 0.29612 0.15657 0.0
C1115 C 0.66459 0.2331 0.09337 0.0
C1116 C 0.5804 0.24175 0.09149 0.0
C1117 C 0.57709 0.26072 0.07043 0.0
C1118 C 0.60099 0.24277 0.10956 0.0
C1119 C 0.61898 0.26275 0.10588 0.0
C1120 C 0.61604 0.28142 0.08404 0.0
C1121 C 0.59497 0.2804 0.06687 0.0
C1122 C 0.60319 0.22288 0.13302 0.0
C1123 C 0.6351 0.30258 0.07887 0.0
H1124 H 0.66013 0.29624 0.18471 0.0
H1125 H 0.6998 0.24168 0.13286 0.0
H1126 H 0.61203 0.31031 0.13961 0.0
H1127 H 0.60075 0.28235 0.15842 0.0
H1128 H 0.61849 0.3071 0.17666 0.0
H1129 H 0.68302 0.2236 0.09156 0.0
H1130 H 0.65027 0.21751 0.09401 0.0
H1131 H 0.6612 0.24496 0.07414 0.0
H1132 H 0.56651 0.22663 0.09438 0.0
H1133 H 0.59258 0.29495 0.0504 0.0
H1134 H 0.60355 0.23317 0.15361 0.0
H1135 H 0.62081 0.21187 0.1311 0.0
H1136 H 0.58767 0.20859 0.13304 0.0
H1137 H 0.63625 0.3158 0.09739 0.0
H1138 H 0.63073 0.31466 0.06002 0.0
H1139 H 0.65361 0.29358 0.07599 0.0
C1140 C 0.25464 0.18024 0.64037 0.0
C1141 C 0.25643 0.17253 0.66862 0.0
C1142 C 0.25734 0.16183 0.61856 0.0
C1143 C 0.26171 0.13508 0.62522 0.0
C1144 C 0.26367 0.12722 0.6537 0.0
C1145 C 0.26107 0.14606 0.67506 0.0
C1146 C 0.25529 0.17095 0.58841 0.0
C1147 C 0.26804 0.09883 0.66166 0.0
C1148 C 0.24246 0.08329 0.57217 0.0
C1149 C 0.26518 0.07609 0.56018 0.0
C1150 C 0.24112 0.10251 0.59324 0.0
C1151 C 0.263 0.11504 0.60247 0.0
C1152 C 0.286 0.10807 0.59035 0.0
C1153 C 0.28684 0.08857 0.5694 0.0
C1154 C 0.21626 0.10924 0.6058 0.0
C1155 C 0.3097 0.12116 0.59958 0.0
H1156 H 0.25137 0.20074 0.63532 0.0
H1157 H 0.2622 0.13998 0.69688 0.0
H1158 H 0.27207 0.16518 0.57651 0.0
H1159 H 0.23929 0.16127 0.57812 0.0
H1160 H 0.25291 0.19261 0.58676 0.0
H1161 H 0.26992 0.09612 0.68475 0.0
H1162 H 0.25242 0.08656 0.65412 0.0
H1163 H 0.28504 0.0914 0.65132 0.0
H1164 H 0.22562 0.07372 0.56527 0.0
H1165 H 0.30445 0.08318 0.56019 0.0
H1166 H 0.21231 0.13048 0.60291 0.0
H1167 H 0.21646 0.10534 0.62877 0.0
H1168 H 0.20097 0.09774 0.59618 0.0
H1169 H 0.30824 0.14277 0.59674 0.0
H1170 H 0.32599 0.11394 0.58763 0.0
H1171 H 0.31288 0.11748 0.62231 0.0
C1172 C 0.37128 0.76101 0.15086 0.0
C1173 C 0.34578 0.75948 0.14585 0.0
C1174 C 0.3883 0.75989 0.12868 0.0
C1175 C 0.37963 0.75732 0.10072 0.0
C1176 C 0.35388 0.75572 0.09548 0.0
C1177 C 0.33723 0.75664 0.11817 0.0
C1178 C 0.4156 0.76119 0.13524 0.0
C1179 C 0.34396 0.7531 0.06592 0.0
C1180 C 0.42567 0.7758 0.04347 0.0
C1181 C 0.43507 0.75108 0.0359 0.0
C1182 C 0.407 0.77812 0.06391 0.0
C1183 C 0.39771 0.75521 0.07722 0.0
C1184 C 0.40682 0.73022 0.06929 0.0
C1185 C 0.42528 0.72846 0.0487 0.0
C1186 C 0.39757 0.80509 0.07171 0.0
C1187 C 0.39761 0.70533 0.08314 0.0
H1188 H 0.37795 0.76287 0.17228 0.0
H1189 H 0.31751 0.75567 0.11425 0.0
H1190 H 0.42487 0.74299 0.12784 0.0
H1191 H 0.42417 0.77795 0.12391 0.0
H1192 H 0.41928 0.76352 0.15811 0.0
H1193 H 0.32344 0.75279 0.06533 0.0
H1194 H 0.35061 0.76971 0.0528 0.0
H1195 H 0.35098 0.73472 0.0562 0.0
H1196 H 0.43303 0.79334 0.0336 0.0
H1197 H 0.43236 0.70923 0.04305 0.0
H1198 H 0.40239 0.80948 0.09391 0.0
H1199 H 0.37712 0.80569 0.07004 0.0
H1200 H 0.40544 0.82076 0.05812 0.0
H1201 H 0.40222 0.70568 0.10589 0.0
H1202 H 0.40582 0.68735 0.0737 0.0
H1203 H 0.3772 0.70404 0.08139 0.0
C1204 C 0.79212 0.1168 0.3296 0.0
C1205 C 0.79242 0.14297 0.33895 0.0
C1206 C 0.79309 0.09583 0.34877 0.0
C1207 C 0.79426 0.10117 0.37797 0.0
C1208 C 0.79567 0.12753 0.38746 0.0
C1209 C 0.79476 0.14812 0.36782 0.0
C1210 C 0.79174 0.06798 0.33784 0.0
C1211 C 0.7968 0.13405 0.41843 0.0
C1212 C 0.7647 0.05213 0.42763 0.0
C1213 C 0.78532 0.03927 0.43912 0.0
C1214 C 0.76744 0.07212 0.4076 0.0
C1215 C 0.7914 0.07945 0.39867 0.0
C1216 C 0.81234 0.06637 0.40985 0.0
C1217 C 0.80906 0.04644 0.43003 0.0
C1218 C 0.74462 0.08563 0.39625 0.0
C1219 C 0.83816 0.07361 0.40068 0.0
H1220 H 0.79069 0.11274 0.30727 0.0
H1221 H 0.79477 0.1683 0.3752 0.0
H1222 H 0.80655 0.05578 0.34736 0.0
H1223 H 0.77379 0.05909 0.34392 0.0
H1224 H 0.79347 0.06707 0.31456 0.0
H1225 H 0.80019 0.15531 0.42222 0.0
H1226 H 0.77907 0.12856 0.42858 0.0
H1227 H 0.81163 0.12255 0.42887 0.0
H1228 H 0.74627 0.04679 0.43449 0.0
H1229 H 0.82508 0.03659 0.43877 0.0
H1230 H 0.74391 0.08368 0.37301 0.0
H1231 H 0.74535 0.10696 0.40115 0.0
H1232 H 0.7273 0.07741 0.40518 0.0
H1233 H 0.83984 0.07178 0.3775 0.0
H1234 H 0.85245 0.06104 0.41074 0.0
H1235 H 0.84198 0.09445 0.4061 0.0
C1236 C 0.3579 0.22448 0.90343 0.0
C1237 C 0.35475 0.24573 0.88501 0.0
C1238 C 0.37788 0.22373 0.9223 0.0
C1239 C 0.39545 0.24436 0.92207 0.0
C1240 C 0.39222 0.26593 0.90351 0.0
C1241 C 0.37169 0.2665 0.88542 0.0
C1242 C 0.38027 0.20081 0.94232 0.0
C1243 C 0.41077 0.28809 0.90225 0.0
C1244 C 0.4378 0.25817 0.98396 0.0
C1245 C 0.45983 0.24623 0.97526 0.0
C1246 C 0.41634 0.25656 0.9675 0.0
C1247 C 0.41725 0.24352 0.94121 0.0
C1248 C 0.43942 0.23095 0.93261 0.0
C1249 C 0.46043 0.23215 0.95001 0.0
C1250 C 0.39293 0.26952 0.97787 0.0
C1251 C 0.44129 0.21739 0.90443 0.0
H1252 H 0.34472 0.20841 0.90297 0.0
H1253 H 0.36933 0.28272 0.87084 0.0
H1254 H 0.3975 0.18977 0.93783 0.0
H1255 H 0.38157 0.20807 0.96429 0.0
H1256 H 0.36439 0.18703 0.94077 0.0
H1257 H 0.40581 0.30312 0.88624 0.0
H1258 H 0.41214 0.29786 0.92305 0.0
H1259 H 0.42934 0.28013 0.89717 0.0
H1260 H 0.43749 0.2691 0.00357 0.0
H1261 H 0.47765 0.22328 0.94321 0.0
H1262 H 0.37718 0.25561 0.97645 0.0
H1263 H 0.38845 0.28668 0.96439 0.0
H1264 H 0.39462 0.2764 0.99998 0.0
H1265 H 0.42655 0.20237 0.90229 0.0
H1266 H 0.4595 0.20771 0.90136 0.0
H1267 H 0.43851 0.23199 0.88735 0.0
C1268 C 0.29563 0.85817 0.37122 0.0
C1269 C 0.27181 0.84747 0.36826 0.0
C1270 C 0.29987 0.88045 0.38799 0.0
C1271 C 0.27996 0.89188 0.40286 0.0
C1272 C 0.25613 0.88047 0.40111 0.0
C1273 C 0.25228 0.85865 0.38358 0.0
C1274 C 0.32545 0.89226 0.38903 0.0
C1275 C 0.2345 0.89179 0.41713 0.0
C1276 C 0.29049 0.93894 0.46375 0.0
C1277 C 0.28371 0.96289 0.45149 0.0
C1278 C 0.29025 0.91561 0.44792 0.0
C1279 C 0.28357 0.91658 0.4191 0.0
C1280 C 0.2783 0.94113 0.4063 0.0
C1281 C 0.27796 0.96397 0.42284 0.0
C1282 C 0.29536 0.8898 0.46251 0.0
C1283 C 0.27173 0.9431 0.37549 0.0
H1284 H 0.31103 0.84936 0.36012 0.0
H1285 H 0.23375 0.85088 0.38128 0.0
H1286 H 0.32499 0.91244 0.38012 0.0
H1287 H 0.33183 0.89397 0.41113 0.0
H1288 H 0.33915 0.88045 0.37705 0.0
H1289 H 0.21774 0.87925 0.41552 0.0
H1290 H 0.23932 0.89413 0.43969 0.0
H1291 H 0.22996 0.91161 0.40881 0.0
H1292 H 0.29433 0.93819 0.48614 0.0
H1293 H 0.2724 0.98257 0.41361 0.0
H1294 H 0.30877 0.8779 0.45029 0.0
H1295 H 0.27799 0.87827 0.46387 0.0
H1296 H 0.3027 0.89264 0.48413 0.0
H1297 H 0.28536 0.93218 0.36255 0.0
H1298 H 0.27105 0.96383 0.36812 0.0
H1299 H 0.25337 0.93402 0.37181 0.0
C1300 C 0.66394 0.74375 0.89394 0.0
C1301 C 0.66617 0.74835 0.86495 0.0
C1302 C 0.64092 0.7456 0.90747 0.0
C1303 C 0.61959 0.75214 0.89163 0.0
C1304 C 0.62178 0.75721 0.86246 0.0
C1305 C 0.645 0.75522 0.84948 0.0
C1306 C 0.63935 0.74006 0.93863 0.0
C1307 C 0.59947 0.76406 0.8448 0.0
C1308 C 0.55842 0.72742 0.92016 0.0
C1309 C 0.54875 0.74993 0.93327 0.0
C1310 C 0.58119 0.72806 0.90615 0.0
C1311 C 0.59478 0.75181 0.90519 0.0
C1312 C 0.58487 0.77484 0.91767 0.0
C1313 C 0.56191 0.77365 0.93154 0.0
C1314 C 0.59097 0.70311 0.89294 0.0
C1315 C 0.59883 0.80053 0.91699 0.0
H1316 H 0.68025 0.73881 0.90609 0.0
H1317 H 0.64648 0.75847 0.82701 0.0
H1318 H 0.63042 0.7568 0.94962 0.0
H1319 H 0.6277 0.72244 0.94231 0.0
H1320 H 0.65781 0.73658 0.94819 0.0
H1321 H 0.60453 0.76913 0.8228 0.0
H1322 H 0.58652 0.74715 0.84435 0.0
H1323 H 0.58942 0.78093 0.85419 0.0
H1324 H 0.54834 0.70902 0.92121 0.0
H1325 H 0.55463 0.7911 0.94167 0.0
H1326 H 0.60853 0.69731 0.9033 0.0
H1327 H 0.59508 0.70644 0.87036 0.0
H1328 H 0.57772 0.6865 0.8947 0.0
H1329 H 0.61653 0.7984 0.92857 0.0
H1330 H 0.58813 0.8169 0.92654 0.0
H1331 H 0.60346 0.80584 0.89497 0.0
loop_
_geom_bond_atom_site_label_1
_geom_bond_atom_site_label_2
_geom_bond_distance
_geom_bond_site_symmetry_2
_ccdc_geom_bond_type
C0 C1 1.391 . S
C0 C4 1.391 . S
C0 H42 0.948 . S
C1 C0 1.391 . S
C1 C2 1.391 . S
C2 C1 1.391 . S
C2 H58 0.947 . S
C2 C59 1.392 . S
C3 C4 1.391 . S
C3 C7 1.397 . S
C3 C59 1.419 . S
C4 C0 1.391 . S
C4 C3 1.391 . S
C4 C5 1.399 . S
C5 C4 1.399 . S
C5 C8 1.396 . S
C5 C17 1.453 . S
C5 C18 1.684 . S
H6 C30 0.948 . S
C7 C3 1.397 . S
C7 C8 1.394 . S
C7 C26 1.723 . S
C8 C5 1.396 . S
C8 C7 1.394 . S
C8 C38 1.723 . S
H9 C32 0.947 . S
H10 C33 0.948 . S
H11 C39 0.982 . S
H12 C40 0.979 . S
H13 C40 0.980 . S
H14 C40 0.983 . S
H15 C39 0.979 . S
H16 C39 0.977 . S
C17 C5 1.453 . S
C17 H46 0.982 . S
C17 H47 0.979 . S
C17 H48 0.977 . S
C18 C5 1.684 . S
C18 H43 0.979 . S
C18 H44 0.980 . S
C18 H45 0.983 . S
C19 C20 1.391 . S
C19 C24 1.391 . S
C19 H49 0.948 . S
C20 C19 1.391 . S
C20 C21 1.391 . S
C21 C20 1.391 . S
C21 C22 1.392 . S
C21 H50 0.947 . S
C22 C21 1.392 . S
C22 C23 1.419 . S
C22 H51 0.948 . S
C23 C22 1.419 . S
C23 C24 1.391 . S
C23 C27 1.397 . S
C24 C19 1.391 . S
C24 C23 1.391 . S
C24 C25 1.399 . S
C25 C24 1.399 . S
C25 C26 1.396 . S
C25 C28 1.453 . S
C25 C29 1.684 . S
C26 C7 1.723 . S
C26 C25 1.396 . S
C26 C27 1.394 . S
C27 C23 1.397 . S
C27 C26 1.394 . S
C27 C37 1.723 . S
C28 C25 1.453 . S
C28 H52 0.982 . S
C28 H53 0.979 . S
C28 H54 0.977 . S
C29 C25 1.684 . S
C29 H55 0.979 . S
C29 H56 0.980 . S
C29 H57 0.983 . S
C30 H6 0.948 . S
C30 C31 1.391 . S
C30 C35 1.391 . S
C31 C30 1.391 . S
C31 C32 1.391 . S
C32 H9 0.947 . S
C32 C31 1.391 . S
C32 C33 1.392 . S
C33 H10 0.948 . S
C33 C32 1.392 . S
C33 C34 1.419 . S
C34 C33 1.419 . S
C34 C35 1.391 . S
C34 C38 1.397 . S
C35 C30 1.391 . S
C35 C34 1.391 . S
C35 C36 1.399 . S
C36 C35 1.399 . S
C36 C37 1.396 . S
C36 C39 1.453 . S
C36 C40 1.684 . S
C37 C27 1.723 . S
C37 C36 1.396 . S
C37 C38 1.394 . S
C38 C8 1.723 . S
C38 C34 1.397 . S
C38 C37 1.394 . S
C39 H11 0.982 . S
C39 H15 0.979 . S
C39 H16 0.977 . S
C39 C36 1.453 . S
C40 H12 0.979 . S
C40 H13 0.980 . S
C40 H14 0.983 . S
C40 C36 1.684 . S
H41 C59 0.948 . S
H42 C0 0.948 . S
H43 C18 0.979 . S
H44 C18 0.980 . S
H45 C18 0.983 . S
H46 C17 0.982 . S
H47 C17 0.979 . S
H48 C17 0.977 . S
H49 C19 0.948 . S
H50 C21 0.947 . S
H51 C22 0.948 . S
H52 C28 0.982 . S
H53 C28 0.979 . S
H54 C28 0.977 . S
H55 C29 0.979 . S
H56 C29 0.980 . S
H57 C29 0.983 . S
H58 C2 0.947 . S
C59 C2 1.392 . S
C59 C3 1.419 . S
C59 H41 0.948 . S
C60 C61 1.391 . S
C60 C64 1.391 . S
C60 H102 0.948 . S
C61 C60 1.391 . S
C61 C62 1.391 . S
C62 C61 1.391 . S
C62 H118 0.947 . S
C62 C119 1.392 . S
C63 C64 1.391 . S
C63 C67 1.397 . S
C63 C119 1.419 . S
C64 C60 1.391 . S
C64 C63 1.391 . S
C64 C65 1.399 . S
C65 C64 1.399 . S
C65 C68 1.396 . S
C65 C77 1.453 . S
C65 C78 1.684 . S
H66 C90 0.948 . S
C67 C63 1.397 . S
C67 C68 1.394 . S
C67 C86 1.723 . S
C68 C65 1.396 . S
C68 C67 1.394 . S
C68 C98 1.723 . S
H69 C92 0.947 . S
H70 C93 0.948 . S
H71 C99 0.982 . S
H72 C100 0.979 . S
H73 C100 0.980 . S
H74 C100 0.983 . S
H75 C99 0.979 . S
H76 C99 0.977 . S
C77 C65 1.453 . S
C77 H106 0.982 . S
C77 H107 0.979 . S
C77 H108 0.977 . S
C78 C65 1.684 . S
C78 H103 0.979 . S
C78 H104 0.980 . S
C78 H105 0.983 . S
C79 C80 1.391 . S
C79 C84 1.391 . S
C79 H109 0.948 . S
C80 C79 1.391 . S
C80 C81 1.391 . S
C81 C80 1.391 . S
C81 C82 1.392 . S
C81 H110 0.947 . S
C82 C81 1.392 . S
C82 C83 1.419 . S
C82 H111 0.948 . S
C83 C82 1.419 . S
C83 C84 1.391 . S
C83 C87 1.397 . S
C84 C79 1.391 . S
C84 C83 1.391 . S
C84 C85 1.399 . S
C85 C84 1.399 . S
C85 C86 1.396 . S
C85 C88 1.453 . S
C85 C89 1.684 . S
C86 C67 1.723 . S
C86 C85 1.396 . S
C86 C87 1.394 . S
C87 C83 1.397 . S
C87 C86 1.394 . S
C87 C97 1.723 . S
C88 C85 1.453 . S
C88 H112 0.982 . S
C88 H113 0.979 . S
C88 H114 0.977 . S
C89 C85 1.684 . S
C89 H115 0.979 . S
C89 H116 0.980 . S
C89 H117 0.983 . S
C90 H66 0.948 . S
C90 C91 1.391 . S
C90 C95 1.391 . S
C91 C90 1.391 . S
C91 C92 1.391 . S
C92 H69 0.947 . S
C92 C91 1.391 . S
C92 C93 1.392 . S
C93 H70 0.948 . S
C93 C92 1.392 . S
C93 C94 1.419 . S
C94 C93 1.419 . S
C94 C95 1.391 . S
C94 C98 1.397 . S
C95 C90 1.391 . S
C95 C94 1.391 . S
C95 C96 1.399 . S
C96 C95 1.399 . S
C96 C97 1.396 . S
C96 C99 1.453 . S
C96 C100 1.684 . S
C97 C87 1.723 . S
C97 C96 1.396 . S
C97 C98 1.394 . S
C98 C68 1.723 . S
C98 C94 1.397 . S
C98 C97 1.394 . S
C99 H71 0.982 . S
C99 H75 0.979 . S
C99 H76 0.977 . S
C99 C96 1.453 . S
C100 H72 0.979 . S
C100 H73 0.980 . S
C100 H74 0.983 . S
C100 C96 1.684 . S
H101 C119 0.948 . S
H102 C60 0.948 . S
H103 C78 0.979 . S
H104 C78 0.980 . S
H105 C78 0.983 . S
H106 C77 0.982 . S
H107 C77 0.979 . S
H108 C77 0.977 . S
H109 C79 0.948 . S
H110 C81 0.947 . S
H111 C82 0.948 . S
H112 C88 0.982 . S
H113 C88 0.979 . S
H114 C88 0.977 . S
H115 C89 0.979 . S
H116 C89 0.980 . S
H117 C89 0.983 . S
H118 C62 0.947 . S
C119 C62 1.392 . S
C119 C63 1.419 . S
C119 H101 0.948 . S
C120 C121 1.391 . S
C120 C124 1.391 . S
C120 H162 0.948 . S
C121 C120 1.391 . S
C121 C122 1.391 . S
C122 C121 1.391 . S
C122 H178 0.947 . S
C122 C179 1.392 . S
C123 C124 1.391 . S
C123 C127 1.397 . S
C123 C179 1.419 . S
C124 C120 1.391 . S
C124 C123 1.391 . S
C124 C125 1.399 . S
C125 C124 1.399 . S
C125 C128 1.396 . S
C125 C137 1.453 . S
C125 C138 1.684 . S
H126 C150 0.948 . S
C127 C123 1.397 . S
C127 C128 1.394 . S
C127 C146 1.723 . S
C128 C125 1.396 . S
C128 C127 1.394 . S
C128 C158 1.723 . S
H129 C152 0.947 . S
H130 C153 0.948 . S
H131 C159 0.982 . S
H132 C160 0.979 . S
H133 C160 0.980 . S
H134 C160 0.983 . S
H135 C159 0.979 . S
H136 C159 0.977 . S
C137 C125 1.453 . S
C137 H166 0.982 . S
C137 H167 0.979 . S
C137 H168 0.977 . S
C138 C125 1.684 . S
C138 H163 0.979 . S
C138 H164 0.980 . S
C138 H165 0.983 . S
C139 C140 1.391 . S
C139 C144 1.391 . S
C139 H169 0.948 . S
C140 C139 1.391 . S
C140 C141 1.391 . S
C141 C140 1.391 . S
C141 C142 1.392 . S
C141 H170 0.947 . S
C142 C141 1.392 . S
C142 C143 1.419 . S
C142 H171 0.948 . S
C143 C142 1.419 . S
C143 C144 1.391 . S
C143 C147 1.397 . S
C144 C139 1.391 . S
C144 C143 1.391 . S
C144 C145 1.399 . S
C145 C144 1.399 . S
C145 C146 1.396 . S
C145 C148 1.453 . S
C145 C149 1.684 . S
C146 C127 1.723 . S
C146 C145 1.396 . S
C146 C147 1.394 . S
C147 C143 1.397 . S
C147 C146 1.394 . S
C147 C157 1.723 . S
C148 C145 1.453 . S
C148 H172 0.982 . S
C148 H173 0.979 . S
C148 H174 0.977 . S
C149 C145 1.684 . S
C149 H175 0.979 . S
C149 H176 0.980 . S
C149 H177 0.983 . S
C150 H126 0.948 . S
C150 C151 1.391 . S
C150 C155 1.391 . S
C151 C150 1.391 . S
C151 C152 1.391 . S
C152 H129 0.947 . S
C152 C151 1.391 . S
C152 C153 1.392 . S
C153 H130 0.948 . S
C153 C152 1.392 . S
C153 C154 1.419 . S
C154 C153 1.419 . S
C154 C155 1.391 . S
C154 C158 1.397 . S
C155 C150 1.391 . S
C155 C154 1.391 . S
C155 C156 1.399 . S
C156 C155 1.399 . S
C156 C157 1.396 . S
C156 C159 1.453 . S
C156 C160 1.684 . S
C157 C147 1.723 . S
C157 C156 1.396 . S
C157 C158 1.394 . S
C158 C128 1.723 . S
C158 C154 1.397 . S
C158 C157 1.394 . S
C159 H131 0.982 . S
C159 H135 0.979 . S
C159 H136 0.977 . S
C159 C156 1.453 . S
C160 H132 0.979 . S
C160 H133 0.980 . S
C160 H134 0.983 . S
C160 C156 1.684 . S
H161 C179 0.948 . S
H162 C120 0.948 . S
H163 C138 0.979 . S
H164 C138 0.980 . S
H165 C138 0.983 . S
H166 C137 0.982 . S
H167 C137 0.979 . S
H168 C137 0.977 . S
H169 C139 0.948 . S
H170 C141 0.947 . S
H171 C142 0.948 . S
H172 C148 0.982 . S
H173 C148 0.979 . S
H174 C148 0.977 . S
H175 C149 0.979 . S
H176 C149 0.980 . S
H177 C149 0.983 . S
H178 C122 0.947 . S
C179 C122 1.392 . S
C179 C123 1.419 . S
C179 H161 0.948 . S
C180 C181 1.391 . S
C180 C184 1.391 . S
C180 H222 0.948 . S
C181 C180 1.391 . S
C181 C182 1.391 . S
C182 C181 1.391 . S
C182 H238 0.947 . S
C182 C239 1.392 . S
C183 C184 1.391 . S
C183 C187 1.397 . S
C183 C239 1.419 . S
C184 C180 1.391 . S
C184 C183 1.391 . S
C184 C185 1.399 . S
C185 C184 1.399 . S
C185 C188 1.396 . S
C185 C197 1.453 . S
C185 C198 1.684 . S
H186 C210 0.948 . S
C187 C183 1.397 . S
C187 C188 1.394 . S
C187 C206 1.723 . S
C188 C185 1.396 . S
C188 C187 1.394 . S
C188 C218 1.723 . S
H189 C212 0.947 . S
H190 C213 0.948 . S
H191 C219 0.982 . S
H192 C220 0.979 . S
H193 C220 0.980 . S
H194 C220 0.983 . S
H195 C219 0.979 . S
H196 C219 0.977 . S
C197 C185 1.453 . S
C197 H226 0.982 . S
C197 H227 0.979 . S
C197 H228 0.977 . S
C198 C185 1.684 . S
C198 H223 0.979 . S
C198 H224 0.980 . S
C198 H225 0.983 . S
C199 C200 1.391 . S
C199 C204 1.391 . S
C199 H229 0.948 . S
C200 C199 1.391 . S
C200 C201 1.391 . S
C201 C200 1.391 . S
C201 C202 1.392 . S
C201 H230 0.947 . S
C202 C201 1.392 . S
C202 C203 1.419 . S
C202 H231 0.948 . S
C203 C202 1.419 . S
C203 C204 1.391 . S
C203 C207 1.397 . S
C204 C199 1.391 . S
C204 C203 1.391 . S
C204 C205 1.399 . S
C205 C204 1.399 . S
C205 C206 1.396 . S
C205 C208 1.453 . S
C205 C209 1.684 . S
C206 C187 1.723 . S
C206 C205 1.396 . S
C206 C207 1.394 . S
C207 C203 1.397 . S
C207 C206 1.394 . S
C207 C217 1.723 . S
C208 C205 1.453 . S
C208 H232 0.982 . S
C208 H233 0.979 . S
C208 H234 0.977 . S
C209 C205 1.684 . S
C209 H235 0.979 . S
C209 H236 0.980 . S
C209 H237 0.983 . S
C210 H186 0.948 . S
C210 C211 1.391 . S
C210 C215 1.391 . S
C211 C210 1.391 . S
C211 C212 1.391 . S
C212 H189 0.947 . S
C212 C211 1.391 . S
C212 C213 1.392 . S
C213 H190 0.948 . S
C213 C212 1.392 . S
C213 C214 1.419 . S
C214 C213 1.419 . S
C214 C215 1.391 . S
C214 C218 1.397 . S
C215 C210 1.391 . S
C215 C214 1.391 . S
C215 C216 1.399 . S
C216 C215 1.399 . S
C216 C217 1.396 . S
C216 C219 1.453 . S
C216 C220 1.684 . S
C217 C207 1.723 . S
C217 C216 1.396 . S
C217 C218 1.394 . S
C218 C188 1.723 . S
C218 C214 1.397 . S
C218 C217 1.394 . S
C219 H191 0.982 . S
C219 H195 0.979 . S
C219 H196 0.977 . S
C219 C216 1.453 . S
C220 H192 0.979 . S
C220 H193 0.980 . S
C220 H194 0.983 . S
C220 C216 1.684 . S
H221 C239 0.948 . S
H222 C180 0.948 . S
H223 C198 0.979 . S
H224 C198 0.980 . S
H225 C198 0.983 . S
H226 C197 0.982 . S
H227 C197 0.979 . S
H228 C197 0.977 . S
H229 C199 0.948 . S
H230 C201 0.947 . S
H231 C202 0.948 . S
H232 C208 0.982 . S
H233 C208 0.979 . S
H234 C208 0.977 . S
H235 C209 0.979 . S
H236 C209 0.980 . S
H237 C209 0.983 . S
H238 C182 0.947 . S
C239 C182 1.392 . S
C239 C183 1.419 . S
C239 H221 0.948 . S
C240 C241 1.391 . S
C240 C244 1.391 . S
C240 H282 0.948 . S
C241 C240 1.391 . S
C241 C242 1.391 . S
C242 C241 1.391 . S
C242 H298 0.947 . S
C242 C299 1.392 . S
C243 C244 1.391 . S
C243 C247 1.397 . S
C243 C299 1.419 . S
C244 C240 1.391 . S
C244 C243 1.391 . S
C244 C245 1.399 . S
C245 C244 1.399 . S
C245 C248 1.396 . S
C245 C257 1.453 . S
C245 C258 1.684 . S
H246 C270 0.948 . S
C247 C243 1.397 . S
C247 C248 1.394 . S
C247 C266 1.723 . S
C248 C245 1.396 . S
C248 C247 1.394 . S
C248 C278 1.723 . S
H249 C272 0.947 . S
H250 C273 0.948 . S
H251 C279 0.982 . S
H252 C280 0.979 . S
H253 C280 0.980 . S
H254 C280 0.983 . S
H255 C279 0.979 . S
H256 C279 0.977 . S
C257 C245 1.453 . S
C257 H286 0.982 . S
C257 H287 0.979 . S
C257 H288 0.977 . S
C258 C245 1.684 . S
C258 H283 0.979 . S
C258 H284 0.980 . S
C258 H285 0.983 . S
C259 C260 1.391 . S
C259 C264 1.391 . S
C259 H289 0.948 . S
C260 C259 1.391 . S
C260 C261 1.391 . S
C261 C260 1.391 . S
C261 C262 1.392 . S
C261 H290 0.947 . S
C262 C261 1.392 . S
C262 C263 1.419 . S
C262 H291 0.948 . S
C263 C262 1.419 . S
C263 C264 1.391 . S
C263 C267 1.397 . S
C264 C259 1.391 . S
C264 C263 1.391 . S
C264 C265 1.399 . S
C265 C264 1.399 . S
C265 C266 1.396 . S
C265 C268 1.453 . S
C265 C269 1.684 . S
C266 C247 1.723 . S
C266 C265 1.396 . S
C266 C267 1.394 . S
C267 C263 1.397 . S
C267 C266 1.394 . S
C267 C277 1.723 . S
C268 C265 1.453 . S
C268 H292 0.982 . S
C268 H293 0.979 . S
C268 H294 0.977 . S
C269 C265 1.684 . S
C269 H295 0.979 . S
C269 H296 0.980 . S
C269 H297 0.983 . S
C270 H246 0.948 . S
C270 C271 1.391 . S
C270 C275 1.391 . S
C271 C270 1.391 . S
C271 C272 1.391 . S
C272 H249 0.947 . S
C272 C271 1.391 . S
C272 C273 1.392 . S
C273 H250 0.948 . S
C273 C272 1.392 . S
C273 C274 1.419 . S
C274 C273 1.419 . S
C274 C275 1.391 . S
C274 C278 1.397 . S
C275 C270 1.391 . S
C275 C274 1.391 . S
C275 C276 1.399 . S
C276 C275 1.399 . S
C276 C277 1.396 . S
C276 C279 1.453 . S
C276 C280 1.684 . S
C277 C267 1.723 . S
C277 C276 1.396 . S
C277 C278 1.394 . S
C278 C248 1.723 . S
C278 C274 1.397 . S
C278 C277 1.394 . S
C279 H251 0.982 . S
C279 H255 0.979 . S
C279 H256 0.977 . S
C279 C276 1.453 . S
C280 H252 0.979 . S
C280 H253 0.980 . S
C280 H254 0.983 . S
C280 C276 1.684 . S
H281 C299 0.948 . S
H282 C240 0.948 . S
H283 C258 0.979 . S
H284 C258 0.980 . S
H285 C258 0.983 . S
H286 C257 0.982 . S
H287 C257 0.979 . S
H288 C257 0.977 . S
H289 C259 0.948 . S
H290 C261 0.947 . S
H291 C262 0.948 . S
H292 C268 0.982 . S
H293 C268 0.979 . S
H294 C268 0.977 . S
H295 C269 0.979 . S
H296 C269 0.980 . S
H297 C269 0.983 . S
H298 C242 0.947 . S
C299 C242 1.392 . S
C299 C243 1.419 . S
C299 H281 0.948 . S
C300 C301 1.391 . S
C300 C304 1.391 . S
C300 H342 0.948 . S
C301 C300 1.391 . S
C301 C302 1.391 . S
C302 C301 1.391 . S
C302 H358 0.947 . S
C302 C359 1.392 . S
C303 C304 1.391 . S
C303 C307 1.397 . S
C303 C359 1.419 . S
C304 C300 1.391 . S
C304 C303 1.391 . S
C304 C305 1.399 . S
C305 C304 1.399 . S
C305 C308 1.396 . S
C305 C317 1.453 . S
C305 C318 1.684 . S
H306 C330 0.948 . S
C307 C303 1.397 . S
C307 C308 1.394 . S
C307 C326 1.723 . S
C308 C305 1.396 . S
C308 C307 1.394 . S
C308 C338 1.723 . S
H309 C332 0.947 . S
H310 C333 0.948 . S
H311 C339 0.982 . S
H312 C340 0.979 . S
H313 C340 0.980 . S
H314 C340 0.983 . S
H315 C339 0.979 . S
H316 C339 0.977 . S
C317 C305 1.453 . S
C317 H346 0.982 . S
C317 H347 0.979 . S
C317 H348 0.977 . S
C318 C305 1.684 . S
C318 H343 0.979 . S
C318 H344 0.980 . S
C318 H345 0.983 . S
C319 C320 1.391 . S
C319 C324 1.391 . S
C319 H349 0.948 . S
C320 C319 1.391 . S
C320 C321 1.391 . S
C321 C320 1.391 . S
C321 C322 1.392 . S
C321 H350 0.947 . S
C322 C321 1.392 . S
C322 C323 1.419 . S
C322 H351 0.948 . S
C323 C322 1.419 . S
C323 C324 1.391 . S
C323 C327 1.397 . S
C324 C319 1.391 . S
C324 C323 1.391 . S
C324 C325 1.399 . S
C325 C324 1.399 . S
C325 C326 1.396 . S
C325 C328 1.453 . S
C325 C329 1.684 . S
C326 C307 1.723 . S
C326 C325 1.396 . S
C326 C327 1.394 . S
C327 C323 1.397 . S
C327 C326 1.394 . S
C327 C337 1.723 . S
C328 C325 1.453 . S
C328 H352 0.982 . S
C328 H353 0.979 . S
C328 H354 0.977 . S
C329 C325 1.684 . S
C329 H355 0.979 . S
C329 H356 0.980 . S
C329 H357 0.983 . S
C330 H306 0.948 . S
C330 C331 1.391 . S
C330 C335 1.391 . S
C331 C330 1.391 . S
C331 C332 1.391 . S
C332 H309 0.947 . S
C332 C331 1.391 . S
C332 C333 1.392 . S
C333 H310 0.948 . S
C333 C332 1.392 . S
C333 C334 1.419 . S
C334 C333 1.419 . S
C334 C335 1.391 . S
C334 C338 1.397 . S
C335 C330 1.391 . S
C335 C334 1.391 . S
C335 C336 1.399 . S
C336 C335 1.399 . S
C336 C337 1.396 . S
C336 C339 1.453 . S
C336 C340 1.684 . S
C337 C327 1.723 . S
C337 C336 1.396 . S
C337 C338 1.394 . S
C338 C308 1.723 . S
C338 C334 1.397 . S
C338 C337 1.394 . S
C339 H311 0.982 . S
C339 H315 0.979 . S
C339 H316 0.977 . S
C339 C336 1.453 . S
C340 H312 0.979 . S
C340 H313 0.980 . S
C340 H314 0.983 . S
C340 C336 1.684 . S
H341 C359 0.948 . S
H342 C300 0.948 . S
H343 C318 0.979 . S
H344 C318 0.980 . S
H345 C318 0.983 . S
H346 C317 0.982 . S
H347 C317 0.979 . S
H348 C317 0.977 . S
H349 C319 0.948 . S
H350 C321 0.947 . S
H351 C322 0.948 . S
H352 C328 0.982 . S
H353 C328 0.979 . S
H354 C328 0.977 . S
H355 C329 0.979 . S
H356 C329 0.980 . S
H357 C329 0.983 . S
H358 C302 0.947 . S
C359 C302 1.392 . S
C359 C303 1.419 . S
C359 H341 0.948 . S
C360 C361 1.391 . S
C360 C364 1.391 . S
C360 H402 0.948 . S
C361 C360 1.391 . S
C361 C362 1.391 . S
C362 C361 1.391 . S
C362 H418 0.947 . S
C362 C419 1.392 . S
C363 C364 1.391 . S
C363 C367 1.397 . S
C363 C419 1.419 . S
C364 C360 1.391 . S
C364 C363 1.391 . S
C364 C365 1.399 . S
C365 C364 1.399 . S
C365 C368 1.396 . S
C365 C377 1.453 . S
C365 C378 1.684 . S
H366 C390 0.948 . S
C367 C363 1.397 . S
C367 C368 1.394 . S
C367 C386 1.723 . S
C368 C365 1.396 . S
C368 C367 1.394 . S
C368 C398 1.723 . S
H369 C392 0.947 . S
H370 C393 0.948 . S
H371 C399 0.982 . S
H372 C400 0.979 . S
H373 C400 0.980 . S
H374 C400 0.983 . S
H375 C399 0.979 . S
H376 C399 0.977 . S
C377 C365 1.453 . S
C377 H406 0.982 . S
C377 H407 0.979 . S
C377 H408 0.977 . S
C378 C365 1.684 . S
C378 H403 0.979 . S
C378 H404 0.980 . S
C378 H405 0.983 . S
C379 C380 1.391 . S
C379 C384 1.391 . S
C379 H409 0.948 . S
C380 C379 1.391 . S
C380 C381 1.391 . S
C381 C380 1.391 . S
C381 C382 1.392 . S
C381 H410 0.947 . S
C382 C381 1.392 . S
C382 C383 1.419 . S
C382 H411 0.948 . S
C383 C382 1.419 . S
C383 C384 1.391 . S
C383 C387 1.397 . S
C384 C379 1.391 . S
C384 C383 1.391 . S
C384 C385 1.399 . S
C385 C384 1.399 . S
C385 C386 1.396 . S
C385 C388 1.453 . S
C385 C389 1.684 . S
C386 C367 1.723 . S
C386 C385 1.396 . S
C386 C387 1.394 . S
C387 C383 1.397 . S
C387 C386 1.394 . S
C387 C397 1.723 . S
C388 C385 1.453 . S
C388 H412 0.982 . S
C388 H413 0.979 . S
C388 H414 0.977 . S
C389 C385 1.684 . S
C389 H415 0.979 . S
C389 H416 0.980 . S
C389 H417 0.983 . S
C390 H366 0.948 . S
C390 C391 1.391 . S
C390 C395 1.391 . S
C391 C390 1.391 . S
C391 C392 1.391 . S
C392 H369 0.947 . S
C392 C391 1.391 . S
C392 C393 1.392 . S
C393 H370 0.948 . S
C393 C392 1.392 . S
C393 C394 1.419 . S
C394 C393 1.419 . S
C394 C395 1.391 . S
C394 C398 1.397 . S
C395 C390 1.391 . S
C395 C394 1.391 . S
C395 C396 1.399 . S
C396 C395 1.399 . S
C396 C397 1.396 . S
C396 C399 1.453 . S
C396 C400 1.684 . S
C397 C387 1.723 . S
C397 C396 1.396 . S
C397 C398 1.394 . S
C398 C368 1.723 . S
C398 C394 1.397 . S
C398 C397 1.394 . S
C399 H371 0.982 . S
C399 H375 0.979 . S
C399 H376 0.977 . S
C399 C396 1.453 . S
C400 H372 0.979 . S
C400 H373 0.980 . S
C400 H374 0.983 . S
C400 C396 1.684 . S
H401 C419 0.948 . S
H402 C360 0.948 . S
H403 C378 0.979 . S
H404 C378 0.980 . S
H405 C378 0.983 . S
H406 C377 0.982 . S
H407 C377 0.979 . S
H408 C377 0.977 . S
H409 C379 0.948 . S
H410 C381 0.947 . S
H411 C382 0.948 . S
H412 C388 0.982 . S
H413 C388 0.979 . S
H414 C388 0.977 . S
H415 C389 0.979 . S
H416 C389 0.980 . S
H417 C389 0.983 . S
H418 C362 0.947 . S
C419 C362 1.392 . S
C419 C363 1.419 . S
C419 H401 0.948 . S
C420 C421 1.391 . S
C420 C424 1.391 . S
C420 H462 0.948 . S
C421 C420 1.391 . S
C421 C422 1.391 . S
C422 C421 1.391 . S
C422 H478 0.947 . S
C422 C479 1.392 . S
C423 C424 1.391 . S
C423 C427 1.397 . S
C423 C479 1.419 . S
C424 C420 1.391 . S
C424 C423 1.391 . S
C424 C425 1.399 . S
C425 C424 1.399 . S
C425 C428 1.396 . S
C425 C437 1.453 . S
C425 C438 1.684 . S
H426 C450 0.948 . S
C427 C423 1.397 . S
C427 C428 1.394 . S
C427 C446 1.723 . S
C428 C425 1.396 . S
C428 C427 1.394 . S
C428 C458 1.723 . S
H429 C452 0.947 . S
H430 C453 0.948 . S
H431 C459 0.982 . S
H432 C460 0.979 . S
H433 C460 0.980 . S
H434 C460 0.983 . S
H435 C459 0.979 . S
H436 C459 0.977 . S
C437 C425 1.453 . S
C437 H466 0.982 . S
C437 H467 0.979 . S
C437 H468 0.977 . S
C438 C425 1.684 . S
C438 H463 0.979 . S
C438 H464 0.980 . S
C438 H465 0.983 . S
C439 C440 1.391 . S
C439 C444 1.391 . S
C439 H469 0.948 . S
C440 C439 1.391 . S
C440 C441 1.391 . S
C441 C440 1.391 . S
C441 C442 1.392 . S
C441 H470 0.947 . S
C442 C441 1.392 . S
C442 C443 1.419 . S
C442 H471 0.948 . S
C443 C442 1.419 . S
C443 C444 1.391 . S
C443 C447 1.397 . S
C444 C439 1.391 . S
C444 C443 1.391 . S
C444 C445 1.399 . S
C445 C444 1.399 . S
C445 C446 1.396 . S
C445 C448 1.453 . S
C445 C449 1.684 . S
C446 C427 1.723 . S
C446 C445 1.396 . S
C446 C447 1.394 . S
C447 C443 1.397 . S
C447 C446 1.394 . S
C447 C457 1.723 . S
C448 C445 1.453 . S
C448 H472 0.982 . S
C448 H473 0.979 . S
C448 H474 0.977 . S
C449 C445 1.684 . S
C449 H475 0.979 . S
C449 H476 0.980 . S
C449 H477 0.983 . S
C450 H426 0.948 . S
C450 C451 1.391 . S
C450 C455 1.391 . S
C451 C450 1.391 . S
C451 C452 1.391 . S
C452 H429 0.947 . S
C452 C451 1.391 . S
C452 C453 1.392 . S
C453 H430 0.948 . S
C453 C452 1.392 . S
C453 C454 1.419 . S
C454 C453 1.419 . S
C454 C455 1.391 . S
C454 C458 1.397 . S
C455 C450 1.391 . S
C455 C454 1.391 . S
C455 C456 1.399 . S
C456 C455 1.399 . S
C456 C457 1.396 . S
C456 C459 1.453 . S
C456 C460 1.684 . S
C457 C447 1.723 . S
C457 C456 1.396 . S
C457 C458 1.394 . S
C458 C428 1.723 . S
C458 C454 1.397 . S
C458 C457 1.394 . S
C459 H431 0.982 . S
C459 H435 0.979 . S
C459 H436 0.977 . S
C459 C456 1.453 . S
C460 H432 0.979 . S
C460 H433 0.980 . S
C460 H434 0.983 . S
C460 C456 1.684 . S
H461 C479 0.948 . S
H462 C420 0.948 . S
H463 C438 0.979 . S
H464 C438 0.980 . S
H465 C438 0.983 . S
H466 C437 0.982 . S
H467 C437 0.979 . S
H468 C437 0.977 . S
H469 C439 0.948 . S
H470 C441 0.947 . S
H471 C442 0.948 . S
H472 C448 0.982 . S
H473 C448 0.979 . S
H474 C448 0.977 . S
H475 C449 0.979 . S
H476 C449 0.980 . S
H477 C449 0.983 . S
H478 C422 0.947 . S
C479 C422 1.392 . S
C479 C423 1.419 . S
C479 H461 0.948 . S
C480 O482 1.247 . S
C480 O484 1.258 . S
C481 O488 1.247 . S
C481 O489 1.258 . S
O482 C480 1.247 . S
O482 Zn483 2.030 1_655 S
Zn483 O482 2.030 1_455 S
Zn483 O487 2.033 . S
Zn483 O489 2.033 . S
Zn483 O490 2.030 1_455 S
O484 C480 1.258 . S
O484 Zn485 2.022 1_655 S
Zn485 O484 2.022 1_455 S
Zn485 O486 2.041 . S
Zn485 O488 2.041 . S
Zn485 O491 2.022 1_455 S
O486 Zn485 2.041 . S
O486 C492 1.247 . S
O487 Zn483 2.033 . S
O487 C492 1.258 . S
O488 C481 1.247 . S
O488 Zn485 2.041 . S
O489 C481 1.258 . S
O489 Zn483 2.033 . S
O490 Zn483 2.030 1_655 S
O490 C493 1.247 . S
O491 Zn485 2.022 1_655 S
O491 C493 1.258 . S
C492 O486 1.247 . S
C492 O487 1.258 . S
C493 O490 1.247 . S
C493 O491 1.258 . S
C494 O496 1.247 . S
C494 O498 1.258 . S
C495 O502 1.247 . S
C495 O503 1.258 . S
O496 C494 1.247 . S
O496 Zn497 2.030 1_655 S
Zn497 O496 2.030 1_455 S
Zn497 O501 2.033 . S
Zn497 O503 2.033 . S
Zn497 O504 2.030 1_455 S
O498 C494 1.258 . S
O498 Zn499 2.023 1_655 S
Zn499 O498 2.023 1_455 S
Zn499 O500 2.040 . S
Zn499 O502 2.040 . S
Zn499 O505 2.023 1_455 S
O500 Zn499 2.040 . S
O500 C506 1.247 . S
O501 Zn497 2.033 . S
O501 C506 1.258 . S
O502 C495 1.247 . S
O502 Zn499 2.040 . S
O503 C495 1.258 . S
O503 Zn497 2.033 . S
O504 Zn497 2.030 1_655 S
O504 C507 1.247 . S
O505 Zn499 2.023 1_655 S
O505 C507 1.258 . S
C506 O500 1.247 . S
C506 O501 1.258 . S
C507 O504 1.247 . S
C507 O505 1.258 . S
C508 O510 1.247 . S
C508 O512 1.258 . S
C509 O516 1.247 . S
C509 O517 1.258 . S
O510 C508 1.247 . S
O510 Zn511 2.028 . S
Zn511 O510 2.028 . S
Zn511 O515 2.035 1_565 S
Zn511 O517 2.035 1_565 S
Zn511 O518 2.028 . S
O512 C508 1.258 . S
O512 Zn513 2.028 1_565 S
Zn513 O512 2.028 1_545 S
Zn513 O514 2.035 . S
Zn513 O516 2.035 . S
Zn513 O519 2.028 1_545 S
O514 Zn513 2.035 . S
O514 C520 1.247 . S
O515 Zn511 2.035 1_545 S
O515 C520 1.258 . S
O516 C509 1.247 . S
O516 Zn513 2.035 . S
O517 C509 1.258 . S
O517 Zn511 2.035 1_545 S
O518 Zn511 2.028 . S
O518 C521 1.247 . S
O519 Zn513 2.028 1_565 S
O519 C521 1.258 . S
C520 O514 1.247 . S
C520 O515 1.258 . S
C521 O518 1.247 . S
C521 O519 1.258 . S
C522 O524 1.247 . S
C522 O526 1.258 . S
C523 O530 1.247 . S
C523 O531 1.258 . S
O524 C522 1.247 . S
O524 Zn525 2.028 . S
Zn525 O524 2.028 . S
Zn525 O529 2.035 . S
Zn525 O531 2.035 1_554 S
Zn525 O532 2.028 1_554 S
O526 C522 1.258 . S
O526 Zn527 2.035 . S
Zn527 O526 2.035 . S
Zn527 O528 2.028 . S
Zn527 O530 2.028 1_554 S
Zn527 O533 2.035 1_554 S
O528 Zn527 2.028 . S
O528 C534 1.247 . S
O529 Zn525 2.035 . S
O529 C534 1.258 . S
O530 C523 1.247 . S
O530 Zn527 2.028 1_556 S
O531 C523 1.258 . S
O531 Zn525 2.035 1_556 S
O532 Zn525 2.028 1_556 S
O532 C535 1.247 . S
O533 Zn527 2.035 1_556 S
O533 C535 1.258 . S
C534 O528 1.247 . S
C534 O529 1.258 . S
C535 O532 1.247 . S
C535 O533 1.258 . S
C536 O538 1.247 . S
C536 O540 1.258 . S
C537 O544 1.247 . S
C537 O545 1.258 . S
O538 C536 1.247 . S
O538 Zn539 2.028 . S
Zn539 O538 2.028 . S
Zn539 O543 2.035 1_565 S
Zn539 O545 2.035 1_565 S
Zn539 O546 2.028 . S
O540 C536 1.258 . S
O540 Zn541 2.028 1_565 S
Zn541 O540 2.028 1_545 S
Zn541 O542 2.035 . S
Zn541 O544 2.035 . S
Zn541 O547 2.028 1_545 S
O542 Zn541 2.035 . S
O542 C548 1.247 . S
O543 Zn539 2.035 1_545 S
O543 C548 1.258 . S
O544 C537 1.247 . S
O544 Zn541 2.035 . S
O545 C537 1.258 . S
O545 Zn539 2.035 1_545 S
O546 Zn539 2.028 . S
O546 C549 1.247 . S
O547 Zn541 2.028 1_565 S
O547 C549 1.258 . S
C548 O542 1.247 . S
C548 O543 1.258 . S
C549 O546 1.247 . S
C549 O547 1.258 . S
C550 O552 1.247 . S
C550 O554 1.258 . S
C551 O558 1.247 . S
C551 O559 1.258 . S
O552 C550 1.247 . S
O552 Zn553 2.028 . S
Zn553 O552 2.028 . S
Zn553 O557 2.035 . S
Zn553 O559 2.035 1_554 S
Zn553 O560 2.028 1_554 S
O554 C550 1.258 . S
O554 Zn555 2.035 . S
Zn555 O554 2.035 . S
Zn555 O556 2.028 . S
Zn555 O558 2.028 1_554 S
Zn555 O561 2.035 1_554 S
O556 Zn555 2.028 . S
O556 C562 1.247 . S
O557 Zn553 2.035 . S
O557 C562 1.258 . S
O558 C551 1.247 . S
O558 Zn555 2.028 1_556 S
O559 C551 1.258 . S
O559 Zn553 2.035 1_556 S
O560 Zn553 2.028 1_556 S
O560 C563 1.247 . S
O561 Zn555 2.035 1_556 S
O561 C563 1.258 . S
C562 O556 1.247 . S
C562 O557 1.258 . S
C563 O560 1.247 . S
C563 O561 1.258 . S
C564 C565 1.391 . S
C564 C566 1.394 . S
C564 H580 0.931 . S
C565 C564 1.391 . S
C565 C569 1.376 . S
C566 C564 1.394 . S
C566 C567 1.369 . S
C566 C570 1.531 . S
C567 C566 1.369 . S
C567 C568 1.410 . S
C567 C575 1.503 . S
C568 C567 1.410 . S
C568 C569 1.392 . S
C568 C571 1.511 . S
C569 C565 1.376 . S
C569 C568 1.392 . S
C569 H581 0.929 . S
C570 C566 1.531 . S
C570 H582 0.960 . S
C570 H583 0.962 . S
C570 H584 0.960 . S
C571 C568 1.511 . S
C571 H585 0.961 . S
C571 H586 0.961 . S
C571 H587 0.961 . S
C572 C573 1.370 . S
C572 C574 1.363 . S
C572 H588 0.931 . S
C573 C572 1.370 . S
C573 C577 1.408 . S
C574 C572 1.363 . S
C574 C575 1.370 . S
C574 C578 1.524 . S
C575 C567 1.503 . S
C575 C574 1.370 . S
C575 C576 1.403 . S
C576 C575 1.403 . S
C576 C577 1.404 . S
C576 C579 1.539 . S
C577 C573 1.408 . S
C577 C576 1.404 . S
C577 H589 0.930 . S
C578 C574 1.524 . S
C578 H590 0.956 . S
C578 H591 0.961 . S
C578 H592 0.961 . S
C579 C576 1.539 . S
C579 H593 0.958 . S
C579 H594 0.961 . S
C579 H595 0.960 . S
H580 C564 0.931 . S
H581 C569 0.929 . S
H582 C570 0.960 . S
H583 C570 0.962 . S
H584 C570 0.960 . S
H585 C571 0.961 . S
H586 C571 0.961 . S
H587 C571 0.961 . S
H588 C572 0.931 . S
H589 C577 0.930 . S
H590 C578 0.956 . S
H591 C578 0.961 . S
H592 C578 0.961 . S
H593 C579 0.958 . S
H594 C579 0.961 . S
H595 C579 0.960 . S
C596 C597 1.391 . S
C596 C598 1.394 . S
C596 H612 0.931 . S
C597 C596 1.391 . S
C597 C601 1.376 . S
C598 C596 1.394 . S
C598 C599 1.369 . S
C598 C602 1.531 . S
C599 C598 1.369 . S
C599 C600 1.410 . S
C599 C607 1.503 . S
C600 C599 1.410 . S
C600 C601 1.392 . S
C600 C603 1.511 . S
C601 C597 1.376 . S
C601 C600 1.392 . S
C601 H613 0.929 . S
C602 C598 1.531 . S
C602 H614 0.960 . S
C602 H615 0.962 . S
C602 H616 0.960 . S
C603 C600 1.511 . S
C603 H617 0.961 . S
C603 H618 0.961 . S
C603 H619 0.961 . S
C604 C605 1.370 . S
C604 C606 1.363 . S
C604 H620 0.931 . S
C605 C604 1.370 . S
C605 C609 1.408 . S
C606 C604 1.363 . S
C606 C607 1.370 . S
C606 C610 1.524 . S
C607 C599 1.503 . S
C607 C606 1.370 . S
C607 C608 1.403 . S
C608 C607 1.403 . S
C608 C609 1.404 . S
C608 C611 1.539 . S
C609 C605 1.408 . S
C609 C608 1.404 . S
C609 H621 0.930 . S
C610 C606 1.524 . S
C610 H622 0.956 . S
C610 H623 0.961 . S
C610 H624 0.961 . S
C611 C608 1.539 . S
C611 H625 0.958 . S
C611 H626 0.961 . S
C611 H627 0.960 . S
H612 C596 0.931 . S
H613 C601 0.929 . S
H614 C602 0.960 . S
H615 C602 0.962 . S
H616 C602 0.960 . S
H617 C603 0.961 . S
H618 C603 0.961 . S
H619 C603 0.961 . S
H620 C604 0.931 . S
H621 C609 0.930 . S
H622 C610 0.956 . S
H623 C610 0.961 . S
H624 C610 0.961 . S
H625 C611 0.958 . S
H626 C611 0.961 . S
H627 C611 0.960 . S
C628 C629 1.391 . S
C628 C630 1.394 . S
C628 H644 0.931 . S
C629 C628 1.391 . S
C629 C633 1.376 . S
C630 C628 1.394 . S
C630 C631 1.369 . S
C630 C634 1.531 . S
C631 C630 1.369 . S
C631 C632 1.410 . S
C631 C639 1.503 . S
C632 C631 1.410 . S
C632 C633 1.392 . S
C632 C635 1.511 . S
C633 C629 1.376 . S
C633 C632 1.392 . S
C633 H645 0.929 . S
C634 C630 1.531 . S
C634 H646 0.960 . S
C634 H647 0.962 . S
C634 H648 0.960 . S
C635 C632 1.511 . S
C635 H649 0.961 . S
C635 H650 0.961 . S
C635 H651 0.961 . S
C636 C637 1.370 . S
C636 C638 1.363 . S
C636 H652 0.931 . S
C637 C636 1.370 . S
C637 C641 1.408 . S
C638 C636 1.363 . S
C638 C639 1.370 . S
C638 C642 1.524 . S
C639 C631 1.503 . S
C639 C638 1.370 . S
C639 C640 1.403 . S
C640 C639 1.403 . S
C640 C641 1.404 . S
C640 C643 1.539 . S
C641 C637 1.408 . S
C641 C640 1.404 . S
C641 H653 0.930 . S
C642 C638 1.524 . S
C642 H654 0.956 . S
C642 H655 0.961 . S
C642 H656 0.961 . S
C643 C640 1.539 . S
C643 H657 0.958 . S
C643 H658 0.961 . S
C643 H659 0.960 . S
H644 C628 0.931 . S
H645 C633 0.929 . S
H646 C634 0.960 . S
H647 C634 0.962 . S
H648 C634 0.960 . S
H649 C635 0.961 . S
H650 C635 0.961 . S
H651 C635 0.961 . S
H652 C636 0.931 . S
H653 C641 0.930 . S
H654 C642 0.956 . S
H655 C642 0.961 . S
H656 C642 0.961 . S
H657 C643 0.958 . S
H658 C643 0.961 . S
H659 C643 0.960 . S
C660 C661 1.391 . S
C660 C662 1.394 . S
C660 H676 0.931 . S
C661 C660 1.391 . S
C661 C665 1.376 . S
C662 C660 1.394 . S
C662 C663 1.369 . S
C662 C666 1.531 . S
C663 C662 1.369 . S
C663 C664 1.410 . S
C663 C671 1.503 . S
C664 C663 1.410 . S
C664 C665 1.392 . S
C664 C667 1.511 . S
C665 C661 1.376 . S
C665 C664 1.392 . S
C665 H677 0.929 . S
C666 C662 1.531 . S
C666 H678 0.960 . S
C666 H679 0.962 . S
C666 H680 0.960 . S
C667 C664 1.511 . S
C667 H681 0.961 . S
C667 H682 0.961 . S
C667 H683 0.961 . S
C668 C669 1.370 . S
C668 C670 1.363 . S
C668 H684 0.931 . S
C669 C668 1.370 . S
C669 C673 1.408 . S
C670 C668 1.363 . S
C670 C671 1.370 . S
C670 C674 1.524 . S
C671 C663 1.503 . S
C671 C670 1.370 . S
C671 C672 1.403 . S
C672 C671 1.403 . S
C672 C673 1.404 . S
C672 C675 1.539 . S
C673 C669 1.408 . S
C673 C672 1.404 . S
C673 H685 0.930 . S
C674 C670 1.524 . S
C674 H686 0.956 . S
C674 H687 0.961 . S
C674 H688 0.961 . S
C675 C672 1.539 . S
C675 H689 0.958 . S
C675 H690 0.961 . S
C675 H691 0.960 . S
H676 C660 0.931 . S
H677 C665 0.929 . S
H678 C666 0.960 . S
H679 C666 0.962 . S
H680 C666 0.960 . S
H681 C667 0.961 . S
H682 C667 0.961 . S
H683 C667 0.961 . S
H684 C668 0.931 . S
H685 C673 0.930 . S
H686 C674 0.956 . S
H687 C674 0.961 . S
H688 C674 0.961 . S
H689 C675 0.958 . S
H690 C675 0.961 . S
H691 C675 0.960 . S
C692 C693 1.391 . S
C692 C694 1.394 . S
C692 H708 0.931 . S
C693 C692 1.391 . S
C693 C697 1.376 . S
C694 C692 1.394 . S
C694 C695 1.369 . S
C694 C698 1.531 . S
C695 C694 1.369 . S
C695 C696 1.410 . S
C695 C703 1.503 . S
C696 C695 1.410 . S
C696 C697 1.392 . S
C696 C699 1.511 . S
C697 C693 1.376 . S
C697 C696 1.392 . S
C697 H709 0.929 . S
C698 C694 1.531 . S
C698 H710 0.960 . S
C698 H711 0.962 . S
C698 H712 0.960 . S
C699 C696 1.511 . S
C699 H713 0.961 . S
C699 H714 0.961 . S
C699 H715 0.961 . S
C700 C701 1.370 . S
C700 C702 1.363 . S
C700 H716 0.931 . S
C701 C700 1.370 . S
C701 C705 1.408 . S
C702 C700 1.363 . S
C702 C703 1.370 . S
C702 C706 1.524 . S
C703 C695 1.503 . S
C703 C702 1.370 . S
C703 C704 1.403 . S
C704 C703 1.403 . S
C704 C705 1.404 . S
C704 C707 1.539 . S
C705 C701 1.408 . S
C705 C704 1.404 . S
C705 H717 0.930 . S
C706 C702 1.524 . S
C706 H718 0.956 . S
C706 H719 0.961 . S
C706 H720 0.961 . S
C707 C704 1.539 . S
C707 H721 0.958 . S
C707 H722 0.961 . S
C707 H723 0.960 . S
H708 C692 0.931 . S
H709 C697 0.929 . S
H710 C698 0.960 . S
H711 C698 0.962 . S
H712 C698 0.960 . S
H713 C699 0.961 . S
H714 C699 0.961 . S
H715 C699 0.961 . S
H716 C700 0.931 . S
H717 C705 0.930 . S
H718 C706 0.956 . S
H719 C706 0.961 . S
H720 C706 0.961 . S
H721 C707 0.958 . S
H722 C707 0.961 . S
H723 C707 0.960 . S
C724 C725 1.391 . S
C724 C726 1.394 . S
C724 H740 0.931 . S
C725 C724 1.391 . S
C725 C729 1.376 . S
C726 C724 1.394 . S
C726 C727 1.369 . S
C726 C730 1.531 . S
C727 C726 1.369 . S
C727 C728 1.410 . S
C727 C735 1.503 . S
C728 C727 1.410 . S
C728 C729 1.392 . S
C728 C731 1.511 . S
C729 C725 1.376 . S
C729 C728 1.392 . S
C729 H741 0.929 . S
C730 C726 1.531 . S
C730 H742 0.960 . S
C730 H743 0.962 . S
C730 H744 0.960 . S
C731 C728 1.511 . S
C731 H745 0.961 . S
C731 H746 0.961 . S
C731 H747 0.961 . S
C732 C733 1.370 . S
C732 C734 1.363 . S
C732 H748 0.931 . S
C733 C732 1.370 . S
C733 C737 1.408 . S
C734 C732 1.363 . S
C734 C735 1.370 . S
C734 C738 1.524 . S
C735 C727 1.503 . S
C735 C734 1.370 . S
C735 C736 1.403 . S
C736 C735 1.403 . S
C736 C737 1.404 . S
C736 C739 1.539 . S
C737 C733 1.408 . S
C737 C736 1.404 . S
C737 H749 0.930 . S
C738 C734 1.524 . S
C738 H750 0.956 . S
C738 H751 0.961 . S
C738 H752 0.961 . S
C739 C736 1.539 . S
C739 H753 0.958 . S
C739 H754 0.961 . S
C739 H755 0.960 . S
H740 C724 0.931 . S
H741 C729 0.929 . S
H742 C730 0.960 . S
H743 C730 0.962 . S
H744 C730 0.960 . S
H745 C731 0.961 . S
H746 C731 0.961 . S
H747 C731 0.961 . S
H748 C732 0.931 . S
H749 C737 0.930 . S
H750 C738 0.956 . S
H751 C738 0.961 . S
H752 C738 0.961 . S
H753 C739 0.958 . S
H754 C739 0.961 . S
H755 C739 0.960 . S
C756 C757 1.391 . S
C756 C758 1.394 . S
C756 H772 0.931 . S
C757 C756 1.391 . S
C757 C761 1.376 . S
C758 C756 1.394 . S
C758 C759 1.369 . S
C758 C762 1.531 . S
C759 C758 1.369 . S
C759 C760 1.410 . S
C759 C767 1.503 . S
C760 C759 1.410 . S
C760 C761 1.392 . S
C760 C763 1.511 . S
C761 C757 1.376 . S
C761 C760 1.392 . S
C761 H773 0.929 . S
C762 C758 1.531 . S
C762 H774 0.960 . S
C762 H775 0.962 . S
C762 H776 0.960 . S
C763 C760 1.511 . S
C763 H777 0.961 . S
C763 H778 0.961 . S
C763 H779 0.961 . S
C764 C765 1.370 . S
C764 C766 1.363 . S
C764 H780 0.931 . S
C765 C764 1.370 . S
C765 C769 1.408 . S
C766 C764 1.363 . S
C766 C767 1.370 . S
C766 C770 1.524 . S
C767 C759 1.503 . S
C767 C766 1.370 . S
C767 C768 1.403 . S
C768 C767 1.403 . S
C768 C769 1.404 . S
C768 C771 1.539 . S
C769 C765 1.408 . S
C769 C768 1.404 . S
C769 H781 0.930 . S
C770 C766 1.524 . S
C770 H782 0.956 . S
C770 H783 0.961 . S
C770 H784 0.961 . S
C771 C768 1.539 . S
C771 H785 0.958 . S
C771 H786 0.961 . S
C771 H787 0.960 . S
H772 C756 0.931 . S
H773 C761 0.929 . S
H774 C762 0.960 . S
H775 C762 0.962 . S
H776 C762 0.960 . S
H777 C763 0.961 . S
H778 C763 0.961 . S
H779 C763 0.961 . S
H780 C764 0.931 . S
H781 C769 0.930 . S
H782 C770 0.956 . S
H783 C770 0.961 . S
H784 C770 0.961 . S
H785 C771 0.958 . S
H786 C771 0.961 . S
H787 C771 0.960 . S
C788 C789 1.391 . S
C788 C790 1.394 . S
C788 H804 0.931 . S
C789 C788 1.391 . S
C789 C793 1.376 . S
C790 C788 1.394 . S
C790 C791 1.369 . S
C790 C794 1.531 . S
C791 C790 1.369 . S
C791 C792 1.410 . S
C791 C799 1.503 . S
C792 C791 1.410 . S
C792 C793 1.392 . S
C792 C795 1.511 . S
C793 C789 1.376 . S
C793 C792 1.392 . S
C793 H805 0.929 . S
C794 C790 1.531 . S
C794 H806 0.960 . S
C794 H807 0.962 . S
C794 H808 0.960 . S
C795 C792 1.511 . S
C795 H809 0.961 . S
C795 H810 0.961 . S
C795 H811 0.961 . S
C796 C797 1.370 . S
C796 C798 1.363 . S
C796 H812 0.931 . S
C797 C796 1.370 . S
C797 C801 1.408 . S
C798 C796 1.363 . S
C798 C799 1.370 . S
C798 C802 1.524 . S
C799 C791 1.503 . S
C799 C798 1.370 . S
C799 C800 1.403 . S
C800 C799 1.403 . S
C800 C801 1.404 . S
C800 C803 1.539 . S
C801 C797 1.408 . S
C801 C800 1.404 . S
C801 H813 0.930 . S
C802 C798 1.524 . S
C802 H814 0.956 . S
C802 H815 0.961 . S
C802 H816 0.961 . S
C803 C800 1.539 . S
C803 H817 0.958 . S
C803 H818 0.961 . S
C803 H819 0.960 . S
H804 C788 0.931 . S
H805 C793 0.929 . S
H806 C794 0.960 . S
H807 C794 0.962 . S
H808 C794 0.960 . S
H809 C795 0.961 . S
H810 C795 0.961 . S
H811 C795 0.961 . S
H812 C796 0.931 . S
H813 C801 0.930 . S
H814 C802 0.956 . S
H815 C802 0.961 . S
H816 C802 0.961 . S
H817 C803 0.958 . S
H818 C803 0.961 . S
H819 C803 0.960 . S
C820 C821 1.391 . S
C820 C822 1.394 . S
C820 H836 0.931 . S
C821 C820 1.391 . S
C821 C825 1.376 . S
C822 C820 1.394 . S
C822 C823 1.369 . S
C822 C826 1.531 . S
C823 C822 1.369 . S
C823 C824 1.410 . S
C823 C831 1.503 . S
C824 C823 1.410 . S
C824 C825 1.392 . S
C824 C827 1.511 . S
C825 C821 1.376 . S
C825 C824 1.392 . S
C825 H837 0.929 . S
C826 C822 1.531 . S
C826 H838 0.960 . S
C826 H839 0.962 . S
C826 H840 0.960 . S
C827 C824 1.511 . S
C827 H841 0.961 . S
C827 H842 0.961 . S
C827 H843 0.961 . S
C828 C829 1.370 . S
C828 C830 1.363 . S
C828 H844 0.931 . S
C829 C828 1.370 . S
C829 C833 1.408 . S
C830 C828 1.363 . S
C830 C831 1.370 . S
C830 C834 1.524 . S
C831 C823 1.503 . S
C831 C830 1.370 . S
C831 C832 1.403 . S
C832 C831 1.403 . S
C832 C833 1.404 . S
C832 C835 1.539 . S
C833 C829 1.408 . S
C833 C832 1.404 . S
C833 H845 0.930 . S
C834 C830 1.524 . S
C834 H846 0.956 . S
C834 H847 0.961 . S
C834 H848 0.961 . S
C835 C832 1.539 . S
C835 H849 0.958 . S
C835 H850 0.961 . S
C835 H851 0.960 . S
H836 C820 0.931 . S
H837 C825 0.929 . S
H838 C826 0.960 . S
H839 C826 0.962 . S
H840 C826 0.960 . S
H841 C827 0.961 . S
H842 C827 0.961 . S
H843 C827 0.961 . S
H844 C828 0.931 . S
H845 C833 0.930 . S
H846 C834 0.956 . S
H847 C834 0.961 . S
H848 C834 0.961 . S
H849 C835 0.958 . S
H850 C835 0.961 . S
H851 C835 0.960 . S
C852 C853 1.391 . S
C852 C854 1.394 . S
C852 H868 0.931 . S
C853 C852 1.391 . S
C853 C857 1.376 . S
C854 C852 1.394 . S
C854 C855 1.369 . S
C854 C858 1.531 . S
C855 C854 1.369 . S
C855 C856 1.410 . S
C855 C863 1.503 . S
C856 C855 1.410 . S
C856 C857 1.392 . S
C856 C859 1.511 . S
C857 C853 1.376 . S
C857 C856 1.392 . S
C857 H869 0.929 . S
C858 C854 1.531 . S
C858 H870 0.960 . S
C858 H871 0.962 . S
C858 H872 0.960 . S
C859 C856 1.511 . S
C859 H873 0.961 . S
C859 H874 0.961 . S
C859 H875 0.961 . S
C860 C861 1.370 . S
C860 C862 1.363 . S
C860 H876 0.931 . S
C861 C860 1.370 . S
C861 C865 1.408 . S
C862 C860 1.363 . S
C862 C863 1.370 . S
C862 C866 1.524 . S
C863 C855 1.503 . S
C863 C862 1.370 . S
C863 C864 1.403 . S
C864 C863 1.403 . S
C864 C865 1.404 . S
C864 C867 1.539 . S
C865 C861 1.408 . S
C865 C864 1.404 . S
C865 H877 0.930 . S
C866 C862 1.524 . S
C866 H878 0.956 . S
C866 H879 0.961 . S
C866 H880 0.961 . S
C867 C864 1.539 . S
C867 H881 0.958 . S
C867 H882 0.961 . S
C867 H883 0.960 . S
H868 C852 0.931 . S
H869 C857 0.929 . S
H870 C858 0.960 . S
H871 C858 0.962 . S
H872 C858 0.960 . S
H873 C859 0.961 . S
H874 C859 0.961 . S
H875 C859 0.961 . S
H876 C860 0.931 . S
H877 C865 0.930 . S
H878 C866 0.956 . S
H879 C866 0.961 . S
H880 C866 0.961 . S
H881 C867 0.958 . S
H882 C867 0.961 . S
H883 C867 0.960 . S
C884 C885 1.391 . S
C884 C886 1.394 . S
C884 H900 0.931 . S
C885 C884 1.391 . S
C885 C889 1.376 . S
C886 C884 1.394 . S
C886 C887 1.369 . S
C886 C890 1.531 . S
C887 C886 1.369 . S
C887 C888 1.410 . S
C887 C895 1.503 . S
C888 C887 1.410 . S
C888 C889 1.392 . S
C888 C891 1.511 . S
C889 C885 1.376 . S
C889 C888 1.392 . S
C889 H901 0.929 . S
C890 C886 1.531 . S
C890 H902 0.960 . S
C890 H903 0.962 . S
C890 H904 0.960 . S
C891 C888 1.511 . S
C891 H905 0.961 . S
C891 H906 0.961 . S
C891 H907 0.961 . S
C892 C893 1.370 . S
C892 C894 1.363 . S
C892 H908 0.931 . S
C893 C892 1.370 . S
C893 C897 1.408 . S
C894 C892 1.363 . S
C894 C895 1.370 . S
C894 C898 1.524 . S
C895 C887 1.503 . S
C895 C894 1.370 . S
C895 C896 1.403 . S
C896 C895 1.403 . S
C896 C897 1.404 . S
C896 C899 1.539 . S
C897 C893 1.408 . S
C897 C896 1.404 . S
C897 H909 0.930 . S
C898 C894 1.524 . S
C898 H910 0.956 . S
C898 H911 0.961 . S
C898 H912 0.961 . S
C899 C896 1.539 . S
C899 H913 0.958 . S
C899 H914 0.961 . S
C899 H915 0.960 . S
H900 C884 0.931 . S
H901 C889 0.929 . S
H902 C890 0.960 . S
H903 C890 0.962 . S
H904 C890 0.960 . S
H905 C891 0.961 . S
H906 C891 0.961 . S
H907 C891 0.961 . S
H908 C892 0.931 . S
H909 C897 0.930 . S
H910 C898 0.956 . S
H911 C898 0.961 . S
H912 C898 0.961 . S
H913 C899 0.958 . S
H914 C899 0.961 . S
H915 C899 0.960 . S
C916 C917 1.391 . S
C916 C918 1.394 . S
C916 H932 0.931 . S
C917 C916 1.391 . S
C917 C921 1.376 . S
C918 C916 1.394 . S
C918 C919 1.369 . S
C918 C922 1.531 . S
C919 C918 1.369 . S
C919 C920 1.410 . S
C919 C927 1.503 . S
C920 C919 1.410 . S
C920 C921 1.392 . S
C920 C923 1.511 . S
C921 C917 1.376 . S
C921 C920 1.392 . S
C921 H933 0.929 . S
C922 C918 1.531 . S
C922 H934 0.960 . S
C922 H935 0.962 . S
C922 H936 0.960 . S
C923 C920 1.511 . S
C923 H937 0.961 . S
C923 H938 0.961 . S
C923 H939 0.961 . S
C924 C925 1.370 . S
C924 C926 1.363 . S
C924 H940 0.931 . S
C925 C924 1.370 . S
C925 C929 1.408 . S
C926 C924 1.363 . S
C926 C927 1.370 . S
C926 C930 1.524 . S
C927 C919 1.503 . S
C927 C926 1.370 . S
C927 C928 1.403 . S
C928 C927 1.403 . S
C928 C929 1.404 . S
C928 C931 1.539 . S
C929 C925 1.408 . S
C929 C928 1.404 . S
C929 H941 0.930 . S
C930 C926 1.524 . S
C930 H942 0.956 . S
C930 H943 0.961 . S
C930 H944 0.961 . S
C931 C928 1.539 . S
C931 H945 0.958 . S
C931 H946 0.961 . S
C931 H947 0.960 . S
H932 C916 0.931 . S
H933 C921 0.929 . S
H934 C922 0.960 . S
H935 C922 0.962 . S
H936 C922 0.960 . S
H937 C923 0.961 . S
H938 C923 0.961 . S
H939 C923 0.961 . S
H940 C924 0.931 . S
H941 C929 0.930 . S
H942 C930 0.956 . S
H943 C930 0.961 . S
H944 C930 0.961 . S
H945 C931 0.958 . S
H946 C931 0.961 . S
H947 C931 0.960 . S
C948 C949 1.391 . S
C948 C950 1.394 . S
C948 H964 0.931 . S
C949 C948 1.391 . S
C949 C953 1.376 . S
C950 C948 1.394 . S
C950 C951 1.369 . S
C950 C954 1.531 . S
C951 C950 1.369 . S
C951 C952 1.410 . S
C951 C959 1.503 . S
C952 C951 1.410 . S
C952 C953 1.392 . S
C952 C955 1.511 . S
C953 C949 1.376 . S
C953 C952 1.392 . S
C953 H965 0.929 . S
C954 C950 1.531 . S
C954 H966 0.960 . S
C954 H967 0.962 . S
C954 H968 0.960 . S
C955 C952 1.511 . S
C955 H969 0.961 . S
C955 H970 0.961 . S
C955 H971 0.961 . S
C956 C957 1.370 . S
C956 C958 1.363 . S
C956 H972 0.931 . S
C957 C956 1.370 . S
C957 C961 1.408 . S
C958 C956 1.363 . S
C958 C959 1.370 . S
C958 C962 1.524 . S
C959 C951 1.503 . S
C959 C958 1.370 . S
C959 C960 1.403 . S
C960 C959 1.403 . S
C960 C961 1.404 . S
C960 C963 1.539 . S
C961 C957 1.408 . S
C961 C960 1.404 . S
C961 H973 0.930 . S
C962 C958 1.524 . S
C962 H974 0.956 . S
C962 H975 0.961 . S
C962 H976 0.961 . S
C963 C960 1.539 . S
C963 H977 0.958 . S
C963 H978 0.961 . S
C963 H979 0.960 . S
H964 C948 0.931 . S
H965 C953 0.929 . S
H966 C954 0.960 . S
H967 C954 0.962 . S
H968 C954 0.960 . S
H969 C955 0.961 . S
H970 C955 0.961 . S
H971 C955 0.961 . S
H972 C956 0.931 . S
H973 C961 0.930 . S
H974 C962 0.956 . S
H975 C962 0.961 . S
H976 C962 0.961 . S
H977 C963 0.958 . S
H978 C963 0.961 . S
H979 C963 0.960 . S
C980 C981 1.391 . S
C980 C982 1.394 . S
C980 H996 0.931 . S
C981 C980 1.391 . S
C981 C985 1.376 . S
C982 C980 1.394 . S
C982 C983 1.369 . S
C982 C986 1.531 . S
C983 C982 1.369 . S
C983 C984 1.410 . S
C983 C991 1.503 . S
C984 C983 1.410 . S
C984 C985 1.392 . S
C984 C987 1.511 . S
C985 C981 1.376 . S
C985 C984 1.392 . S
C985 H997 0.929 . S
C986 C982 1.531 . S
C986 H998 0.960 . S
C986 H999 0.962 . S
C986 H1000 0.960 . S
C987 C984 1.511 . S
C987 H1001 0.961 . S
C987 H1002 0.961 . S
C987 H1003 0.961 . S
C988 C989 1.370 . S
C988 C990 1.363 . S
C988 H1004 0.931 . S
C989 C988 1.370 . S
C989 C993 1.408 . S
C990 C988 1.363 . S
C990 C991 1.370 . S
C990 C994 1.524 . S
C991 C983 1.503 . S
C991 C990 1.370 . S
C991 C992 1.403 . S
C992 C991 1.403 . S
C992 C993 1.404 . S
C992 C995 1.539 . S
C993 C989 1.408 . S
C993 C992 1.404 . S
C993 H1005 0.930 . S
C994 C990 1.524 . S
C994 H1006 0.956 . S
C994 H1007 0.961 . S
C994 H1008 0.961 . S
C995 C992 1.539 . S
C995 H1009 0.958 . S
C995 H1010 0.961 . S
C995 H1011 0.960 . S
H996 C980 0.931 . S
H997 C985 0.929 . S
H998 C986 0.960 . S
H999 C986 0.962 . S
H1000 C986 0.960 . S
H1001 C987 0.961 . S
H1002 C987 0.961 . S
H1003 C987 0.961 . S
H1004 C988 0.931 . S
H1005 C993 0.930 . S
H1006 C994 0.956 . S
H1007 C994 0.961 . S
H1008 C994 0.961 . S
H1009 C995 0.958 . S
H1010 C995 0.961 . S
H1011 C995 0.960 . S
C1012 C1013 1.391 . S
C1012 C1014 1.394 . S
C1012 H1028 0.931 . S
C1013 C1012 1.391 . S
C1013 C1017 1.376 . S
C1014 C1012 1.394 . S
C1014 C1015 1.369 . S
C1014 C1018 1.531 . S
C1015 C1014 1.369 . S
C1015 C1016 1.410 . S
C1015 C1023 1.503 . S
C1016 C1015 1.410 . S
C1016 C1017 1.392 . S
C1016 C1019 1.511 . S
C1017 C1013 1.376 . S
C1017 C1016 1.392 . S
C1017 H1029 0.929 . S
C1018 C1014 1.531 . S
C1018 H1030 0.960 . S
C1018 H1031 0.962 . S
C1018 H1032 0.960 . S
C1019 C1016 1.511 . S
C1019 H1033 0.961 . S
C1019 H1034 0.961 . S
C1019 H1035 0.961 . S
C1020 C1021 1.370 . S
C1020 C1022 1.363 . S
C1020 H1036 0.931 . S
C1021 C1020 1.370 . S
C1021 C1025 1.408 . S
C1022 C1020 1.363 . S
C1022 C1023 1.370 . S
C1022 C1026 1.524 . S
C1023 C1015 1.503 . S
C1023 C1022 1.370 . S
C1023 C1024 1.403 . S
C1024 C1023 1.403 . S
C1024 C1025 1.404 . S
C1024 C1027 1.539 . S
C1025 C1021 1.408 . S
C1025 C1024 1.404 . S
C1025 H1037 0.930 . S
C1026 C1022 1.524 . S
C1026 H1038 0.956 . S
C1026 H1039 0.961 . S
C1026 H1040 0.961 . S
C1027 C1024 1.539 . S
C1027 H1041 0.958 . S
C1027 H1042 0.961 . S
C1027 H1043 0.960 . S
H1028 C1012 0.931 . S
H1029 C1017 0.929 . S
H1030 C1018 0.960 . S
H1031 C1018 0.962 . S
H1032 C1018 0.960 . S
H1033 C1019 0.961 . S
H1034 C1019 0.961 . S
H1035 C1019 0.961 . S
H1036 C1020 0.931 . S
H1037 C1025 0.930 . S
H1038 C1026 0.956 . S
H1039 C1026 0.961 . S
H1040 C1026 0.961 . S
H1041 C1027 0.958 . S
H1042 C1027 0.961 . S
H1043 C1027 0.960 . S
C1044 C1045 1.391 . S
C1044 C1046 1.394 . S
C1044 H1060 0.931 . S
C1045 C1044 1.391 . S
C1045 C1049 1.376 . S
C1046 C1044 1.394 . S
C1046 C1047 1.369 . S
C1046 C1050 1.531 . S
C1047 C1046 1.369 . S
C1047 C1048 1.410 . S
C1047 C1055 1.503 . S
C1048 C1047 1.410 . S
C1048 C1049 1.392 . S
C1048 C1051 1.511 . S
C1049 C1045 1.376 . S
C1049 C1048 1.392 . S
C1049 H1061 0.929 . S
C1050 C1046 1.531 . S
C1050 H1062 0.960 . S
C1050 H1063 0.962 . S
C1050 H1064 0.960 . S
C1051 C1048 1.511 . S
C1051 H1065 0.961 . S
C1051 H1066 0.961 . S
C1051 H1067 0.961 . S
C1052 C1053 1.370 . S
C1052 C1054 1.363 . S
C1052 H1068 0.931 . S
C1053 C1052 1.370 . S
C1053 C1057 1.408 . S
C1054 C1052 1.363 . S
C1054 C1055 1.370 . S
C1054 C1058 1.524 . S
C1055 C1047 1.503 . S
C1055 C1054 1.370 . S
C1055 C1056 1.403 . S
C1056 C1055 1.403 . S
C1056 C1057 1.404 . S
C1056 C1059 1.539 . S
C1057 C1053 1.408 . S
C1057 C1056 1.404 . S
C1057 H1069 0.930 . S
C1058 C1054 1.524 . S
C1058 H1070 0.956 . S
C1058 H1071 0.961 . S
C1058 H1072 0.961 . S
C1059 C1056 1.539 . S
C1059 H1073 0.958 . S
C1059 H1074 0.961 . S
C1059 H1075 0.960 . S
H1060 C1044 0.931 . S
H1061 C1049 0.929 . S
H1062 C1050 0.960 . S
H1063 C1050 0.962 . S
H1064 C1050 0.960 . S
H1065 C1051 0.961 . S
H1066 C1051 0.961 . S
H1067 C1051 0.961 . S
H1068 C1052 0.931 . S
H1069 C1057 0.930 . S
H1070 C1058 0.956 . S
H1071 C1058 0.961 . S
H1072 C1058 0.961 . S
H1073 C1059 0.958 . S
H1074 C1059 0.961 . S
H1075 C1059 0.960 . S
C1076 C1077 1.391 . S
C1076 C1078 1.394 . S
C1076 H1092 0.931 . S
C1077 C1076 1.391 . S
C1077 C1081 1.376 . S
C1078 C1076 1.394 . S
C1078 C1079 1.369 . S
C1078 C1082 1.531 . S
C1079 C1078 1.369 . S
C1079 C1080 1.410 . S
C1079 C1087 1.503 . S
C1080 C1079 1.410 . S
C1080 C1081 1.392 . S
C1080 C1083 1.511 . S
C1081 C1077 1.376 . S
C1081 C1080 1.392 . S
C1081 H1093 0.929 . S
C1082 C1078 1.531 . S
C1082 H1094 0.960 . S
C1082 H1095 0.962 . S
C1082 H1096 0.960 . S
C1083 C1080 1.511 . S
C1083 H1097 0.961 . S
C1083 H1098 0.961 . S
C1083 H1099 0.961 . S
C1084 C1085 1.370 . S
C1084 C1086 1.363 . S
C1084 H1100 0.931 . S
C1085 C1084 1.370 . S
C1085 C1089 1.408 . S
C1086 C1084 1.363 . S
C1086 C1087 1.370 . S
C1086 C1090 1.524 . S
C1087 C1079 1.503 . S
C1087 C1086 1.370 . S
C1087 C1088 1.403 . S
C1088 C1087 1.403 . S
C1088 C1089 1.404 . S
C1088 C1091 1.539 . S
C1089 C1085 1.408 . S
C1089 C1088 1.404 . S
C1089 H1101 0.930 . S
C1090 C1086 1.524 . S
C1090 H1102 0.956 . S
C1090 H1103 0.961 . S
C1090 H1104 0.961 . S
C1091 C1088 1.539 . S
C1091 H1105 0.958 . S
C1091 H1106 0.961 . S
C1091 H1107 0.960 . S
H1092 C1076 0.931 . S
H1093 C1081 0.929 . S
H1094 C1082 0.960 . S
H1095 C1082 0.962 . S
H1096 C1082 0.960 . S
H1097 C1083 0.961 . S
H1098 C1083 0.961 . S
H1099 C1083 0.961 . S
H1100 C1084 0.931 . S
H1101 C1089 0.930 . S
H1102 C1090 0.956 . S
H1103 C1090 0.961 . S
H1104 C1090 0.961 . S
H1105 C1091 0.958 . S
H1106 C1091 0.961 . S
H1107 C1091 0.960 . S
C1108 C1109 1.391 . S
C1108 C1110 1.394 . S
C1108 H1124 0.931 . S
C1109 C1108 1.391 . S
C1109 C1113 1.376 . S
C1110 C1108 1.394 . S
C1110 C1111 1.369 . S
C1110 C1114 1.531 . S
C1111 C1110 1.369 . S
C1111 C1112 1.410 . S
C1111 C1119 1.503 . S
C1112 C1111 1.410 . S
C1112 C1113 1.392 . S
C1112 C1115 1.511 . S
C1113 C1109 1.376 . S
C1113 C1112 1.392 . S
C1113 H1125 0.929 . S
C1114 C1110 1.531 . S
C1114 H1126 0.960 . S
C1114 H1127 0.962 . S
C1114 H1128 0.960 . S
C1115 C1112 1.511 . S
C1115 H1129 0.961 . S
C1115 H1130 0.961 . S
C1115 H1131 0.961 . S
C1116 C1117 1.370 . S
C1116 C1118 1.363 . S
C1116 H1132 0.931 . S
C1117 C1116 1.370 . S
C1117 C1121 1.408 . S
C1118 C1116 1.363 . S
C1118 C1119 1.370 . S
C1118 C1122 1.524 . S
C1119 C1111 1.503 . S
C1119 C1118 1.370 . S
C1119 C1120 1.403 . S
C1120 C1119 1.403 . S
C1120 C1121 1.404 . S
C1120 C1123 1.539 . S
C1121 C1117 1.408 . S
C1121 C1120 1.404 . S
C1121 H1133 0.930 . S
C1122 C1118 1.524 . S
C1122 H1134 0.956 . S
C1122 H1135 0.961 . S
C1122 H1136 0.961 . S
C1123 C1120 1.539 . S
C1123 H1137 0.958 . S
C1123 H1138 0.961 . S
C1123 H1139 0.960 . S
H1124 C1108 0.931 . S
H1125 C1113 0.929 . S
H1126 C1114 0.960 . S
H1127 C1114 0.962 . S
H1128 C1114 0.960 . S
H1129 C1115 0.961 . S
H1130 C1115 0.961 . S
H1131 C1115 0.961 . S
H1132 C1116 0.931 . S
H1133 C1121 0.930 . S
H1134 C1122 0.956 . S
H1135 C1122 0.961 . S
H1136 C1122 0.961 . S
H1137 C1123 0.958 . S
H1138 C1123 0.961 . S
H1139 C1123 0.960 . S
C1140 C1141 1.391 . S
C1140 C1142 1.394 . S
C1140 H1156 0.931 . S
C1141 C1140 1.391 . S
C1141 C1145 1.376 . S
C1142 C1140 1.394 . S
C1142 C1143 1.369 . S
C1142 C1146 1.531 . S
C1143 C1142 1.369 . S
C1143 C1144 1.410 . S
C1143 C1151 1.503 . S
C1144 C1143 1.410 . S
C1144 C1145 1.392 . S
C1144 C1147 1.511 . S
C1145 C1141 1.376 . S
C1145 C1144 1.392 . S
C1145 H1157 0.929 . S
C1146 C1142 1.531 . S
C1146 H1158 0.960 . S
C1146 H1159 0.962 . S
C1146 H1160 0.960 . S
C1147 C1144 1.511 . S
C1147 H1161 0.961 . S
C1147 H1162 0.961 . S
C1147 H1163 0.961 . S
C1148 C1149 1.370 . S
C1148 C1150 1.363 . S
C1148 H1164 0.931 . S
C1149 C1148 1.370 . S
C1149 C1153 1.408 . S
C1150 C1148 1.363 . S
C1150 C1151 1.370 . S
C1150 C1154 1.524 . S
C1151 C1143 1.503 . S
C1151 C1150 1.370 . S
C1151 C1152 1.403 . S
C1152 C1151 1.403 . S
C1152 C1153 1.404 . S
C1152 C1155 1.539 . S
C1153 C1149 1.408 . S
C1153 C1152 1.404 . S
C1153 H1165 0.930 . S
C1154 C1150 1.524 . S
C1154 H1166 0.956 . S
C1154 H1167 0.961 . S
C1154 H1168 0.961 . S
C1155 C1152 1.539 . S
C1155 H1169 0.958 . S
C1155 H1170 0.961 . S
C1155 H1171 0.960 . S
H1156 C1140 0.931 . S
H1157 C1145 0.929 . S
H1158 C1146 0.960 . S
H1159 C1146 0.962 . S
H1160 C1146 0.960 . S
H1161 C1147 0.961 . S
H1162 C1147 0.961 . S
H1163 C1147 0.961 . S
H1164 C1148 0.931 . S
H1165 C1153 0.930 . S
H1166 C1154 0.956 . S
H1167 C1154 0.961 . S
H1168 C1154 0.961 . S
H1169 C1155 0.958 . S
H1170 C1155 0.961 . S
H1171 C1155 0.960 . S
C1172 C1173 1.391 . S
C1172 C1174 1.394 . S
C1172 H1188 0.931 . S
C1173 C1172 1.391 . S
C1173 C1177 1.376 . S
C1174 C1172 1.394 . S
C1174 C1175 1.369 . S
C1174 C1178 1.531 . S
C1175 C1174 1.369 . S
C1175 C1176 1.410 . S
C1175 C1183 1.503 . S
C1176 C1175 1.410 . S
C1176 C1177 1.392 . S
C1176 C1179 1.511 . S
C1177 C1173 1.376 . S
C1177 C1176 1.392 . S
C1177 H1189 0.929 . S
C1178 C1174 1.531 . S
C1178 H1190 0.960 . S
C1178 H1191 0.962 . S
C1178 H1192 0.960 . S
C1179 C1176 1.511 . S
C1179 H1193 0.961 . S
C1179 H1194 0.961 . S
C1179 H1195 0.961 . S
C1180 C1181 1.370 . S
C1180 C1182 1.363 . S
C1180 H1196 0.931 . S
C1181 C1180 1.370 . S
C1181 C1185 1.408 . S
C1182 C1180 1.363 . S
C1182 C1183 1.370 . S
C1182 C1186 1.524 . S
C1183 C1175 1.503 . S
C1183 C1182 1.370 . S
C1183 C1184 1.403 . S
C1184 C1183 1.403 . S
C1184 C1185 1.404 . S
C1184 C1187 1.539 . S
C1185 C1181 1.408 . S
C1185 C1184 1.404 . S
C1185 H1197 0.930 . S
C1186 C1182 1.524 . S
C1186 H1198 0.956 . S
C1186 H1199 0.961 . S
C1186 H1200 0.961 . S
C1187 C1184 1.539 . S
C1187 H1201 0.958 . S
C1187 H1202 0.961 . S
C1187 H1203 0.960 . S
H1188 C1172 0.931 . S
H1189 C1177 0.929 . S
H1190 C1178 0.960 . S
H1191 C1178 0.962 . S
H1192 C1178 0.960 . S
H1193 C1179 0.961 . S
H1194 C1179 0.961 . S
H1195 C1179 0.961 . S
H1196 C1180 0.931 . S
H1197 C1185 0.930 . S
H1198 C1186 0.956 . S
H1199 C1186 0.961 . S
H1200 C1186 0.961 . S
H1201 C1187 0.958 . S
H1202 C1187 0.961 . S
H1203 C1187 0.960 . S
C1204 C1205 1.391 . S
C1204 C1206 1.394 . S
C1204 H1220 0.931 . S
C1205 C1204 1.391 . S
C1205 C1209 1.376 . S
C1206 C1204 1.394 . S
C1206 C1207 1.369 . S
C1206 C1210 1.531 . S
C1207 C1206 1.369 . S
C1207 C1208 1.410 . S
C1207 C1215 1.503 . S
C1208 C1207 1.410 . S
C1208 C1209 1.392 . S
C1208 C1211 1.511 . S
C1209 C1205 1.376 . S
C1209 C1208 1.392 . S
C1209 H1221 0.929 . S
C1210 C1206 1.531 . S
C1210 H1222 0.960 . S
C1210 H1223 0.962 . S
C1210 H1224 0.960 . S
C1211 C1208 1.511 . S
C1211 H1225 0.961 . S
C1211 H1226 0.961 . S
C1211 H1227 0.961 . S
C1212 C1213 1.370 . S
C1212 C1214 1.363 . S
C1212 H1228 0.931 . S
C1213 C1212 1.370 . S
C1213 C1217 1.408 . S
C1214 C1212 1.363 . S
C1214 C1215 1.370 . S
C1214 C1218 1.524 . S
C1215 C1207 1.503 . S
C1215 C1214 1.370 . S
C1215 C1216 1.403 . S
C1216 C1215 1.403 . S
C1216 C1217 1.404 . S
C1216 C1219 1.539 . S
C1217 C1213 1.408 . S
C1217 C1216 1.404 . S
C1217 H1229 0.930 . S
C1218 C1214 1.524 . S
C1218 H1230 0.956 . S
C1218 H1231 0.961 . S
C1218 H1232 0.961 . S
C1219 C1216 1.539 . S
C1219 H1233 0.958 . S
C1219 H1234 0.961 . S
C1219 H1235 0.960 . S
H1220 C1204 0.931 . S
H1221 C1209 0.929 . S
H1222 C1210 0.960 . S
H1223 C1210 0.962 . S
H1224 C1210 0.960 . S
H1225 C1211 0.961 . S
H1226 C1211 0.961 . S
H1227 C1211 0.961 . S
H1228 C1212 0.931 . S
H1229 C1217 0.930 . S
H1230 C1218 0.956 . S
H1231 C1218 0.961 . S
H1232 C1218 0.961 . S
H1233 C1219 0.958 . S
H1234 C1219 0.961 . S
H1235 C1219 0.960 . S
C1236 C1237 1.391 . S
C1236 C1238 1.394 . S
C1236 H1252 0.931 . S
C1237 C1236 1.391 . S
C1237 C1241 1.376 . S
C1238 C1236 1.394 . S
C1238 C1239 1.369 . S
C1238 C1242 1.531 . S
C1239 C1238 1.369 . S
C1239 C1240 1.410 . S
C1239 C1247 1.503 . S
C1240 C1239 1.410 . S
C1240 C1241 1.392 . S
C1240 C1243 1.511 . S
C1241 C1237 1.376 . S
C1241 C1240 1.392 . S
C1241 H1253 0.929 . S
C1242 C1238 1.531 . S
C1242 H1254 0.960 . S
C1242 H1255 0.962 . S
C1242 H1256 0.960 . S
C1243 C1240 1.511 . S
C1243 H1257 0.961 . S
C1243 H1258 0.961 . S
C1243 H1259 0.961 . S
C1244 C1245 1.370 . S
C1244 C1246 1.363 . S
C1244 H1260 0.931 . S
C1245 C1244 1.370 . S
C1245 C1249 1.408 . S
C1246 C1244 1.363 . S
C1246 C1247 1.370 . S
C1246 C1250 1.524 . S
C1247 C1239 1.503 . S
C1247 C1246 1.370 . S
C1247 C1248 1.403 . S
C1248 C1247 1.403 . S
C1248 C1249 1.404 . S
C1248 C1251 1.539 . S
C1249 C1245 1.408 . S
C1249 C1248 1.404 . S
C1249 H1261 0.930 . S
C1250 C1246 1.524 . S
C1250 H1262 0.956 . S
C1250 H1263 0.961 . S
C1250 H1264 0.961 . S
C1251 C1248 1.539 . S
C1251 H1265 0.958 . S
C1251 H1266 0.961 . S
C1251 H1267 0.960 . S
H1252 C1236 0.931 . S
H1253 C1241 0.929 . S
H1254 C1242 0.960 . S
H1255 C1242 0.962 . S
H1256 C1242 0.960 . S
H1257 C1243 0.961 . S
H1258 C1243 0.961 . S
H1259 C1243 0.961 . S
H1260 C1244 0.931 . S
H1261 C1249 0.930 . S
H1262 C1250 0.956 . S
H1263 C1250 0.961 . S
H1264 C1250 0.961 . S
H1265 C1251 0.958 . S
H1266 C1251 0.961 . S
H1267 C1251 0.960 . S
C1268 C1269 1.391 . S
C1268 C1270 1.394 . S
C1268 H1284 0.931 . S
C1269 C1268 1.391 . S
C1269 C1273 1.376 . S
C1270 C1268 1.394 . S
C1270 C1271 1.369 . S
C1270 C1274 1.531 . S
C1271 C1270 1.369 . S
C1271 C1272 1.410 . S
C1271 C1279 1.503 . S
C1272 C1271 1.410 . S
C1272 C1273 1.392 . S
C1272 C1275 1.511 . S
C1273 C1269 1.376 . S
C1273 C1272 1.392 . S
C1273 H1285 0.929 . S
C1274 C1270 1.531 . S
C1274 H1286 0.960 . S
C1274 H1287 0.962 . S
C1274 H1288 0.960 . S
C1275 C1272 1.511 . S
C1275 H1289 0.961 . S
C1275 H1290 0.961 . S
C1275 H1291 0.961 . S
C1276 C1277 1.370 . S
C1276 C1278 1.363 . S
C1276 H1292 0.931 . S
C1277 C1276 1.370 . S
C1277 C1281 1.408 . S
C1278 C1276 1.363 . S
C1278 C1279 1.370 . S
C1278 C1282 1.524 . S
C1279 C1271 1.503 . S
C1279 C1278 1.370 . S
C1279 C1280 1.403 . S
C1280 C1279 1.403 . S
C1280 C1281 1.404 . S
C1280 C1283 1.539 . S
C1281 C1277 1.408 . S
C1281 C1280 1.404 . S
C1281 H1293 0.930 . S
C1282 C1278 1.524 . S
C1282 H1294 0.956 . S
C1282 H1295 0.961 . S
C1282 H1296 0.961 . S
C1283 C1280 1.539 . S
C1283 H1297 0.958 . S
C1283 H1298 0.961 . S
C1283 H1299 0.960 . S
H1284 C1268 0.931 . S
H1285 C1273 0.929 . S
H1286 C1274 0.960 . S
H1287 C1274 0.962 . S
H1288 C1274 0.960 . S
H1289 C1275 0.961 . S
H1290 C1275 0.961 . S
H1291 C1275 0.961 . S
H1292 C1276 0.931 . S
H1293 C1281 0.930 . S
H1294 C1282 0.956 . S
H1295 C1282 0.961 . S
H1296 C1282 0.961 . S
H1297 C1283 0.958 . S
H1298 C1283 0.961 . S
H1299 C1283 0.960 . S
C1300 C1301 1.391 . S
C1300 C1302 1.394 . S
C1300 H1316 0.931 . S
C1301 C1300 1.391 . S
C1301 C1305 1.376 . S
C1302 C1300 1.394 . S
C1302 C1303 1.369 . S
C1302 C1306 1.531 . S
C1303 C1302 1.369 . S
C1303 C1304 1.410 . S
C1303 C1311 1.503 . S
C1304 C1303 1.410 . S
C1304 C1305 1.392 . S
C1304 C1307 1.511 . S
C1305 C1301 1.376 . S
C1305 C1304 1.392 . S
C1305 H1317 0.929 . S
C1306 C1302 1.531 . S
C1306 H1318 0.960 . S
C1306 H1319 0.962 . S
C1306 H1320 0.960 . S
C1307 C1304 1.511 . S
C1307 H1321 0.961 . S
C1307 H1322 0.961 . S
C1307 H1323 0.961 . S
C1308 C1309 1.370 . S
C1308 C1310 1.363 . S
C1308 H1324 0.931 . S
C1309 C1308 1.370 . S
C1309 C1313 1.408 . S
C1310 C1308 1.363 . S
C1310 C1311 1.370 . S
C1310 C1314 1.524 . S
C1311 C1303 1.503 . S
C1311 C1310 1.370 . S
C1311 C1312 1.403 . S
C1312 C1311 1.403 . S
C1312 C1313 1.404 . S
C1312 C1315 1.539 . S
C1313 C1309 1.408 . S
C1313 C1312 1.404 . S
C1313 H1325 0.930 . S
C1314 C1310 1.524 . S
C1314 H1326 0.956 . S
C1314 H1327 0.961 . S
C1314 H1328 0.961 . S
C1315 C1312 1.539 . S
C1315 H1329 0.958 . S
C1315 H1330 0.961 . S
C1315 H1331 0.960 . S
H1316 C1300 0.931 . S
H1317 C1305 0.929 . S
H1318 C1306 0.960 . S
H1319 C1306 0.962 . S
H1320 C1306 0.960 . S
H1321 C1307 0.961 . S
H1322 C1307 0.961 . S
H1323 C1307 0.961 . S
H1324 C1308 0.931 . S
H1325 C1313 0.930 . S
H1326 C1314 0.956 . S
H1327 C1314 0.961 . S
H1328 C1314 0.961 . S
H1329 C1315 0.958 . S
H1330 C1315 0.961 . S
H1331 C1315 0.960 . S
C573 C492 1.508 . S
C565 C31 1.504 . S
C605 C495 1.504 . S
C597 C61 1.466 . S
C637 C493 1.506 . S
C629 C121 1.453 . S
C669 C494 1.506 . S
C661 C211 1.490 . S
C701 C509 1.506 . S
C693 C1 1.487 . S
C733 C523 1.506 . S
C725 C91 1.461 . S
C757 C151 1.487 . S
C765 C549 1.501 . S
C797 C563 1.505 . S
C789 C181 1.500 . S
C829 C508 1.501 . S
C821 C80 1.470 . S
C853 C140 1.497 . S
C861 C522 1.504 . S
C893 C548 1.502 . S
C885 C200 1.473 . S
C925 C562 1.506 . S
C917 C20 1.462 . S
C949 C271 1.502 . S
C957 C507 1.508 . S
C989 C480 1.503 . S
C981 C331 1.463 . S
C1013 C380 1.462 . S
C1021 C506 1.508 . S
C1045 C421 1.485 . S
C1053 C481 1.505 . S
C1085 C536 1.501 . S
C1077 C241 1.462 . S
C1117 C550 1.508 . S
C1109 C320 1.453 . S
C1149 C520 1.504 . S
C1141 C361 1.473 . S
C1173 C440 1.504 . S
C1181 C534 1.508 . S
C1213 C537 1.505 . S
C1205 C301 1.478 . S
C1245 C551 1.503 . S
C1237 C391 1.467 . S
C1277 C521 1.502 . S
C1269 C451 1.494 . S
C1301 C260 1.501 . S
C1309 C535 1.504 . S
