# Generated by pormake.
# Topology eea, (3,6)-cn, num edge types: 1
# Building blocks:
#     Node 0, Type 0, BuildingBlock: ESEHIV_clean_linker_0, # of connection points: 3
#     Node 1, Type 0, BuildingBlock: ESEHIV_clean_linker_0, # of connection points: 3
#     Node 2, Type 0, BuildingBlock: ESEHIV_clean_linker_0, # of connection points: 3
#     Node 3, Type 0, BuildingBlock: ESEHIV_clean_linker_0, # of connection points: 3
#     Node 4, Type 0, BuildingBlock: ESEHIV_clean_linker_0, # of connection points: 3
#     Node 5, Type 0, BuildingBlock: ESEHIV_clean_linker_0, # of connection points: 3
#     Node 6, Type 0, BuildingBlock: ESEHIV_clean_linker_0, # of connection points: 3
#     Node 7, Type 0, BuildingBlock: ESEHIV_clean_linker_0, # of connection points: 3
#     Node 8, Type 0, BuildingBlock: ESEHIV_clean_linker_0, # of connection points: 3
#     Node 9, Type 0, BuildingBlock: ESEHIV_clean_linker_0, # of connection points: 3
#     Node 10, Type 0, BuildingBlock: ESEHIV_clean_linker_0, # of connection points: 3
#     Node 11, Type 0, BuildingBlock: ESEHIV_clean_linker_0, # of connection points: 3
#     Node 12, Type 0, BuildingBlock: ESEHIV_clean_linker_0, # of connection points: 3
#     Node 13, Type 0, BuildingBlock: ESEHIV_clean_linker_0, # of connection points: 3
#     Node 14, Type 0, BuildingBlock: ESEHIV_clean_linker_0, # of connection points: 3
#     Node 15, Type 0, BuildingBlock: ESEHIV_clean_linker_0, # of connection points: 3
#     Node 16, Type 0, BuildingBlock: ESEHIV_clean_linker_0, # of connection points: 3
#     Node 17, Type 0, BuildingBlock: ESEHIV_clean_linker_0, # of connection points: 3
#     Node 18, Type 1, BuildingBlock: KUMJIN_clean_sbu_0, # of connection points: 6
#     Node 19, Type 1, BuildingBlock: KUMJIN_clean_sbu_0, # of connection points: 6
#     Node 20, Type 1, BuildingBlock: KUMJIN_clean_sbu_0, # of connection points: 6
#     Node 21, Type 1, BuildingBlock: KUMJIN_clean_sbu_0, # of connection points: 6
#     Node 22, Type 1, BuildingBlock: KUMJIN_clean_sbu_0, # of connection points: 6
#     Node 23, Type 1, BuildingBlock: KUMJIN_clean_sbu_0, # of connection points: 6
#     Node 24, Type 1, BuildingBlock: KUMJIN_clean_sbu_0, # of connection points: 6
#     Node 25, Type 1, BuildingBlock: KUMJIN_clean_sbu_0, # of connection points: 6
#     Node 26, Type 1, BuildingBlock: KUMJIN_clean_sbu_0, # of connection points: 6
#     Edge 27, Type (0, 1), BuildingBlock: OJICUG_clean_linker_0, # of connection points: 2
#     Edge 28, Type (0, 1), BuildingBlock: OJICUG_clean_linker_0, # of connection points: 2
#     Edge 29, Type (0, 1), BuildingBlock: OJICUG_clean_linker_0, # of connection points: 2
#     Edge 30, Type (0, 1), BuildingBlock: OJICUG_clean_linker_0, # of connection points: 2
#     Edge 31, Type (0, 1), BuildingBlock: OJICUG_clean_linker_0, # of connection points: 2
#     Edge 32, Type (0, 1), BuildingBlock: OJICUG_clean_linker_0, # of connection points: 2
#     Edge 33, Type (0, 1), BuildingBlock: OJICUG_clean_linker_0, # of connection points: 2
#     Edge 34, Type (0, 1), BuildingBlock: OJICUG_clean_linker_0, # of connection points: 2
#     Edge 35, Type (0, 1), BuildingBlock: OJICUG_clean_linker_0, # of connection points: 2
#     Edge 36, Type (0, 1), BuildingBlock: OJICUG_clean_linker_0, # of connection points: 2
#     Edge 37, Type (0, 1), BuildingBlock: OJICUG_clean_linker_0, # of connection points: 2
#     Edge 38, Type (0, 1), BuildingBlock: OJICUG_clean_linker_0, # of connection points: 2
#     Edge 39, Type (0, 1), BuildingBlock: OJICUG_clean_linker_0, # of connection points: 2
#     Edge 40, Type (0, 1), BuildingBlock: OJICUG_clean_linker_0, # of connection points: 2
#     Edge 41, Type (0, 1), BuildingBlock: OJICUG_clean_linker_0, # of connection points: 2
#     Edge 42, Type (0, 1), BuildingBlock: OJICUG_clean_linker_0, # of connection points: 2
#     Edge 43, Type (0, 1), BuildingBlock: OJICUG_clean_linker_0, # of connection points: 2
#     Edge 44, Type (0, 1), BuildingBlock: OJICUG_clean_linker_0, # of connection points: 2
#     Edge 45, Type (0, 1), BuildingBlock: OJICUG_clean_linker_0, # of connection points: 2
#     Edge 46, Type (0, 1), BuildingBlock: OJICUG_clean_linker_0, # of connection points: 2
#     Edge 47, Type (0, 1), BuildingBlock: OJICUG_clean_linker_0, # of connection points: 2
#     Edge 48, Type (0, 1), BuildingBlock: OJICUG_clean_linker_0, # of connection points: 2
#     Edge 49, Type (0, 1), BuildingBlock: OJICUG_clean_linker_0, # of connection points: 2
#     Edge 50, Type (0, 1), BuildingBlock: OJICUG_clean_linker_0, # of connection points: 2
#     Edge 51, Type (0, 1), BuildingBlock: OJICUG_clean_linker_0, # of connection points: 2
#     Edge 52, Type (0, 1), BuildingBlock: OJICUG_clean_linker_0, # of connection points: 2
#     Edge 53, Type (0, 1), BuildingBlock: OJICUG_clean_linker_0, # of connection points: 2
#     Edge 54, Type (0, 1), BuildingBlock: OJICUG_clean_linker_0, # of connection points: 2
#     Edge 55, Type (0, 1), BuildingBlock: OJICUG_clean_linker_0, # of connection points: 2
#     Edge 56, Type (0, 1), BuildingBlock: OJICUG_clean_linker_0, # of connection points: 2
#     Edge 57, Type (0, 1), BuildingBlock: OJICUG_clean_linker_0, # of connection points: 2
#     Edge 58, Type (0, 1), BuildingBlock: OJICUG_clean_linker_0, # of connection points: 2
#     Edge 59, Type (0, 1), BuildingBlock: OJICUG_clean_linker_0, # of connection points: 2
#     Edge 60, Type (0, 1), BuildingBlock: OJICUG_clean_linker_0, # of connection points: 2
#     Edge 61, Type (0, 1), BuildingBlock: OJICUG_clean_linker_0, # of connection points: 2
#     Edge 62, Type (0, 1), BuildingBlock: OJICUG_clean_linker_0, # of connection points: 2
#     Edge 63, Type (0, 1), BuildingBlock: OJICUG_clean_linker_0, # of connection points: 2
#     Edge 64, Type (0, 1), BuildingBlock: OJICUG_clean_linker_0, # of connection points: 2
#     Edge 65, Type (0, 1), BuildingBlock: OJICUG_clean_linker_0, # of connection points: 2
#     Edge 66, Type (0, 1), BuildingBlock: OJICUG_clean_linker_0, # of connection points: 2
#     Edge 67, Type (0, 1), BuildingBlock: OJICUG_clean_linker_0, # of connection points: 2
#     Edge 68, Type (0, 1), BuildingBlock: OJICUG_clean_linker_0, # of connection points: 2
#     Edge 69, Type (0, 1), BuildingBlock: OJICUG_clean_linker_0, # of connection points: 2
#     Edge 70, Type (0, 1), BuildingBlock: OJICUG_clean_linker_0, # of connection points: 2
#     Edge 71, Type (0, 1), BuildingBlock: OJICUG_clean_linker_0, # of connection points: 2
#     Edge 72, Type (0, 1), BuildingBlock: OJICUG_clean_linker_0, # of connection points: 2
#     Edge 73, Type (0, 1), BuildingBlock: OJICUG_clean_linker_0, # of connection points: 2
#     Edge 74, Type (0, 1), BuildingBlock: OJICUG_clean_linker_0, # of connection points: 2
#     Edge 75, Type (0, 1), BuildingBlock: OJICUG_clean_linker_0, # of connection points: 2
#     Edge 76, Type (0, 1), BuildingBlock: OJICUG_clean_linker_0, # of connection points: 2
#     Edge 77, Type (0, 1), BuildingBlock: OJICUG_clean_linker_0, # of connection points: 2
#     Edge 78, Type (0, 1), BuildingBlock: OJICUG_clean_linker_0, # of connection points: 2
#     Edge 79, Type (0, 1), BuildingBlock: OJICUG_clean_linker_0, # of connection points: 2
#     Edge 80, Type (0, 1), BuildingBlock: OJICUG_clean_linker_0, # of connection points: 2
# Relax obj value: 0.007
# Max RMSD: 0.110
# Mean RMSD: 0.093
data_MOF--net-eea--node1-KUMJIN_clean_sbu_0--node2-ESEHIV_clean_linker_0--edge1-OJICUG_clean_linker_0
_symmetry_space_group_name_H-M    P1
_symmetry_Int_Tables_number       1
_symmetry_cell_setting            triclinic
loop_
_symmetry_equiv_pos_as_xyz
'x, y, z'
_cell_length_a     33.227123
_cell_length_b     34.539537
_cell_length_c     54.044018
_cell_angle_alpha  89.724375
_cell_angle_beta   89.58167
_cell_angle_gamma 120.00158
loop_
_atom_site_label
_atom_site_type_symbol
_atom_site_fract_x
_atom_site_fract_y
_atom_site_fract_z
_atom_type_partial_charge
H0 H 0.28739 0.19843 0.44784 0.0
H1 H 0.28789 0.07433 0.44743 0.0
H2 H 0.21373 0.10124 0.3915 0.0
C3 C 0.27667 0.16631 0.4395 0.0
C4 C 0.24989 0.15391 0.41784 0.0
C5 C 0.28937 0.13714 0.45063 0.0
C6 C 0.27644 0.09599 0.43945 0.0
C7 C 0.24996 0.08318 0.4178 0.0
C8 C 0.23612 0.11197 0.40748 0.0
H9 H 0.81908 0.07255 0.44776 0.0
H10 H 0.93878 0.20399 0.44373 0.0
H11 H 0.91471 0.11014 0.3859 0.0
C12 C 0.85095 0.09647 0.4384 0.0
C13 C 0.86345 0.0854 0.41564 0.0
C14 C 0.87799 0.13896 0.44879 0.0
C15 C 0.91761 0.17112 0.43586 0.0
C16 C 0.93084 0.16101 0.41308 0.0
C17 C 0.90411 0.11792 0.40331 0.0
H18 H 0.80983 0.74076 0.44461 0.0
H19 H 0.93934 0.74094 0.44372 0.0
H20 H 0.90203 0.79516 0.38165 0.0
C21 C 0.84235 0.74893 0.4355 0.0
C22 C 0.85212 0.76918 0.41189 0.0
C23 C 0.87356 0.73885 0.44741 0.0
C24 C 0.91554 0.7497 0.43515 0.0
C25 C 0.92637 0.77015 0.41143 0.0
C26 C 0.89474 0.78059 0.4001 0.0
H27 H 0.07411 0.25609 0.59771 0.0
H28 H 0.20379 0.25668 0.5978 0.0
H29 H 0.1105 0.20225 0.66035 0.0
C30 C 0.09782 0.24748 0.60653 0.0
C31 C 0.08656 0.22709 0.63026 0.0
C32 C 0.14006 0.25843 0.59455 0.0
C33 C 0.17112 0.24849 0.60673 0.0
C34 C 0.16101 0.22832 0.63036 0.0
C35 C 0.11811 0.21681 0.6419 0.0
H36 H 0.72319 0.92039 0.59474 0.0
H37 H 0.72444 0.79668 0.59468 0.0
H38 H 0.79945 0.89517 0.65019 0.0
C39 C 0.73501 0.89903 0.60274 0.0
C40 C 0.76213 0.91241 0.62416 0.0
C41 C 0.72203 0.85773 0.59176 0.0
C42 C 0.73521 0.82893 0.60287 0.0
C43 C 0.76263 0.84191 0.62429 0.0
C44 C 0.77651 0.88402 0.63443 0.0
H45 H 0.07468 0.79605 0.59819 0.0
H46 H 0.19397 0.92786 0.59284 0.0
H47 H 0.10577 0.88827 0.65787 0.0
C48 C 0.09677 0.82872 0.60609 0.0
C49 C 0.08549 0.8386 0.62947 0.0
C50 C 0.13569 0.86078 0.59266 0.0
C51 C 0.16367 0.90312 0.60303 0.0
C52 C 0.15356 0.91351 0.62662 0.0
C53 C 0.11377 0.88114 0.63955 0.0
H54 H 0.94474 0.52461 0.78495 0.0
H55 H 0.94236 0.39922 0.78407 0.0
H56 H 0.88702 0.4368 0.72281 0.0
C57 C 0.9363 0.49385 0.77556 0.0
C58 C 0.91341 0.48395 0.75267 0.0
C59 C 0.94728 0.4636 0.78683 0.0
C60 C 0.93453 0.42286 0.77522 0.0
C61 C 0.9123 0.41269 0.75221 0.0
C62 C 0.90243 0.44367 0.741 0.0
H63 H 0.48843 0.41008 0.77963 0.0
H64 H 0.60996 0.54037 0.77572 0.0
H65 H 0.58281 0.44683 0.71728 0.0
C66 C 0.52036 0.43373 0.77022 0.0
C67 C 0.53206 0.42262 0.74726 0.0
C68 C 0.54833 0.47591 0.78075 0.0
C69 C 0.58806 0.50772 0.76776 0.0
C70 C 0.60047 0.49749 0.74479 0.0
C71 C 0.57282 0.45471 0.73485 0.0
H72 H 0.4757 0.07512 0.77777 0.0
H73 H 0.60323 0.07159 0.77725 0.0
H74 H 0.56897 0.12848 0.71519 0.0
C75 C 0.50811 0.08261 0.76878 0.0
C76 C 0.51869 0.10322 0.74526 0.0
C77 C 0.53834 0.07128 0.78072 0.0
C78 C 0.58016 0.0812 0.76859 0.0
C79 C 0.59179 0.1019 0.74492 0.0
C80 C 0.56112 0.11364 0.73357 0.0
H81 H 0.74497 0.59192 0.93197 0.0
H82 H 0.87209 0.58765 0.93194 0.0
H83 H 0.77868 0.53573 0.99455 0.0
C84 C 0.76792 0.58231 0.94078 0.0
C85 C 0.75619 0.56204 0.96454 0.0
C86 C 0.80966 0.59179 0.92874 0.0
C87 C 0.83975 0.58052 0.94088 0.0
C88 C 0.82906 0.56034 0.96451 0.0
C89 C 0.78667 0.55031 0.97611 0.0
H90 H 0.39891 0.26259 0.92468 0.0
H91 H 0.38909 0.13386 0.92706 0.0
H92 H 0.46036 0.22898 0.98468 0.0
C93 C 0.40638 0.23897 0.93387 0.0
C94 C 0.43087 0.25064 0.95621 0.0
C95 C 0.39114 0.19693 0.92327 0.0
C96 C 0.40101 0.1664 0.93516 0.0
C97 C 0.42649 0.17784 0.95725 0.0
C98 C 0.44101 0.21997 0.96762 0.0
H99 H 0.73395 0.12619 0.93092 0.0
H100 H 0.85544 0.25676 0.92707 0.0
H101 H 0.76574 0.21684 0.99149 0.0
C102 C 0.7564 0.15848 0.93915 0.0
C103 C 0.74495 0.16809 0.96256 0.0
C104 C 0.79605 0.19039 0.92611 0.0
C105 C 0.8246 0.23217 0.93695 0.0
C106 C 0.81437 0.24215 0.96061 0.0
C107 C 0.77386 0.21004 0.97312 0.0
H108 H 0.60881 0.86155 0.11775 0.0
H109 H 0.61557 0.74072 0.11541 0.0
H110 H 0.54569 0.76955 0.05781 0.0
C111 C 0.60091 0.83085 0.10847 0.0
C112 C 0.57582 0.81926 0.08625 0.0
C113 C 0.61488 0.80238 0.11919 0.0
C114 C 0.60367 0.76209 0.10751 0.0
C115 C 0.57862 0.74995 0.08538 0.0
C116 C 0.56485 0.77871 0.07494 0.0
H117 H 0.14872 0.73664 0.11317 0.0
H118 H 0.26798 0.86854 0.10954 0.0
H119 H 0.23983 0.77762 0.04934 0.0
C120 C 0.17904 0.76186 0.10319 0.0
C121 C 0.19031 0.7519 0.07981 0.0
C122 C 0.20667 0.80374 0.11407 0.0
C123 C 0.24668 0.83591 0.10141 0.0
C124 C 0.25903 0.82663 0.07811 0.0
C125 C 0.23095 0.78441 0.06752 0.0
H126 H 0.14693 0.40741 0.1121 0.0
H127 H 0.27672 0.4085 0.10872 0.0
H128 H 0.23556 0.46123 0.04762 0.0
C129 C 0.17923 0.41627 0.10251 0.0
C130 C 0.18746 0.43588 0.07873 0.0
C131 C 0.21118 0.40638 0.11363 0.0
C132 C 0.25201 0.41639 0.10047 0.0
C133 C 0.26149 0.43648 0.07675 0.0
C134 C 0.2293 0.44691 0.06611 0.0
H135 H 0.40808 0.9217 0.26471 0.0
H136 H 0.53692 0.92063 0.26497 0.0
H137 H 0.44345 0.86745 0.32751 0.0
C138 C 0.43151 0.91275 0.27356 0.0
C139 C 0.42008 0.89255 0.29731 0.0
C140 C 0.47358 0.92312 0.2616 0.0
C141 C 0.50431 0.91281 0.27385 0.0
C142 C 0.49393 0.89278 0.29752 0.0
C143 C 0.45121 0.88185 0.30903 0.0
H144 H 0.05402 0.58819 0.26077 0.0
H145 H 0.05363 0.46354 0.26102 0.0
H146 H 0.13165 0.56322 0.31539 0.0
C147 C 0.06518 0.56637 0.2688 0.0
C148 C 0.09333 0.58011 0.28986 0.0
C149 C 0.05152 0.52477 0.25792 0.0
C150 C 0.06555 0.49634 0.26876 0.0
C151 C 0.09377 0.50958 0.28987 0.0
C152 C 0.10813 0.55186 0.29988 0.0
H153 H 0.4068 0.45998 0.26285 0.0
H154 H 0.52776 0.59084 0.26095 0.0
H155 H 0.4295 0.5521 0.32154 0.0
C156 C 0.42756 0.49269 0.27098 0.0
C157 C 0.41363 0.50221 0.29376 0.0
C158 C 0.46848 0.52471 0.25888 0.0
C159 C 0.49565 0.56658 0.26996 0.0
C160 C 0.48218 0.57719 0.29257 0.0
C161 C 0.44062 0.54473 0.30417 0.0
Eu162 Eu 0.48284 0.96526 0.99235 0.0
C163 C 0.58171 0.13851 0.0581 0.0
C164 C 0.66314 0.1613 0.05408 0.0
C165 C 0.64033 0.21714 0.06116 0.0
C166 C 0.61586 0.12769 0.05409 0.0
C167 C 0.59349 0.18318 0.06239 0.0
C168 C 0.67512 0.2062 0.05696 0.0
C169 C 0.51241 0.15672 0.07126 0.0
N170 N 0.53702 0.10484 0.05943 0.0
C171 C 0.50262 0.11296 0.06693 0.0
C172 C 0.55797 0.19211 0.0686 0.0
Eu173 Eu 0.52186 0.03173 0.0504 0.0
N174 N 0.60294 0.08394 0.05173 0.0
C175 C 0.63583 0.07123 0.05141 0.0
C176 C 0.69692 0.1486 0.05201 0.0
C177 C 0.68317 0.10328 0.0511 0.0
H178 H 0.46731 0.08571 0.06891 0.0
H179 H 0.709 0.09297 0.05006 0.0
H180 H 0.71121 0.23251 0.05672 0.0
H181 H 0.48482 0.16311 0.0766 0.0
H182 H 0.62595 0.03646 0.05054 0.0
H183 H 0.29711 0.90902 0.98918 0.0
H184 H 0.73359 0.17336 0.05182 0.0
H185 H 0.53678 0.90749 0.98022 0.0
H186 H 0.38071 0.964 0.9901 0.0
H187 H 0.51721 0.82891 0.97487 0.0
H188 H 0.65008 0.25174 0.06412 0.0
H189 H 0.27045 0.82815 0.98786 0.0
H190 H 0.29072 0.76724 0.98501 0.0
H191 H 0.56553 0.22597 0.07205 0.0
H192 H 0.35055 0.74543 0.981 0.0
N193 N 0.4017 0.91497 0.98989 0.0
C194 C 0.36982 0.92893 0.9894 0.0
C195 C 0.30732 0.85219 0.98822 0.0
C196 C 0.34022 0.83821 0.98734 0.0
C197 C 0.32224 0.89779 0.98892 0.0
C198 C 0.38779 0.87089 0.98801 0.0
H199 H 0.43508 0.76822 0.97689 0.0
N200 N 0.46657 0.89115 0.98567 0.0
C201 C 0.48989 0.83677 0.97804 0.0
C202 C 0.4213 0.85858 0.98585 0.0
C203 C 0.50084 0.88118 0.98099 0.0
C204 C 0.44349 0.8026 0.97924 0.0
C205 C 0.40844 0.81331 0.98285 0.0
O206 O 0.5205 0.97531 0.9573 0.0
O207 O 0.53908 0.02575 1.01089 0.0
O208 O 0.50709 0.07293 0.02312 0.0
O209 O 0.4622 0.01895 0.99359 0.0
O210 O 0.55944 0.98866 0.98959 0.0
O211 O 0.4606 0.984 0.95847 0.0
O212 O 0.48463 0.0173 0.08593 0.0
O213 O 0.46557 0.97226 0.0314 0.0
O214 O 0.49191 0.92343 0.02184 0.0
O215 O 0.54526 0.98026 0.0471 0.0
O216 O 0.4448 0.00733 0.05379 0.0
O217 O 0.54636 0.0121 0.0831 0.0
C218 C 0.57402 0.02446 1.00248 0.0
C219 C 0.47956 0.96414 0.91988 0.0
C220 C 0.48199 0.97147 0.87449 0.0
C221 C 0.49532 0.99097 0.89817 0.0
C222 C 0.45338 0.92471 0.87312 0.0
C223 C 0.45095 0.91778 0.91782 0.0
C224 C 0.43812 0.89826 0.89456 0.0
C225 C 0.47924 0.05896 1.00372 0.0
C226 C 0.49321 0.98464 0.94457 0.0
C227 C 0.36115 0.78044 0.98305 0.0
C228 C 0.32708 0.79286 0.98533 0.0
C229 C 0.43033 0.9727 0.03992 0.0
C230 C 0.52808 0.02973 0.12243 0.0
C231 C 0.51326 0.00287 0.14412 0.0
C232 C 0.52737 0.02237 0.16774 0.0
C233 C 0.5558 0.06915 0.1691 0.0
C234 C 0.55658 0.07613 0.12446 0.0
C235 C 0.57018 0.09565 0.14767 0.0
C236 C 0.52364 0.93838 0.0394 0.0
C237 C 0.5137 0.00932 0.09778 0.0
H238 H 0.51716 0.02689 0.89976 0.0
H239 H 0.44303 0.90838 0.85536 0.0
H240 H 0.43861 0.89669 0.93421 0.0
H241 H 0.41617 0.86237 0.89312 0.0
H242 H 0.49153 0.96694 0.14255 0.0
H243 H 0.56667 0.08547 0.18683 0.0
H244 H 0.56829 0.09725 0.10809 0.0
H245 H 0.59202 0.13155 0.14908 0.0
Eu246 Eu 0.04179 0.50719 0.99426 0.0
C247 C 0.85632 0.42501 0.05397 0.0
C248 C 0.82836 0.477 0.04806 0.0
C249 C 0.7733 0.39739 0.05211 0.0
C250 C 0.86531 0.46824 0.05022 0.0
C251 C 0.81021 0.38922 0.05568 0.0
C252 C 0.78242 0.44116 0.04806 0.0
C253 C 0.84061 0.34033 0.06519 0.0
N254 N 0.89283 0.41815 0.05667 0.0
C255 C 0.88575 0.37686 0.06312 0.0
C256 C 0.80265 0.3464 0.06111 0.0
Eu257 Eu 0.96796 0.48093 0.05026 0.0
N258 N 0.91018 0.50189 0.04958 0.0
C259 C 0.92049 0.54543 0.04932 0.0
C260 C 0.83874 0.52152 0.04631 0.0
C261 C 0.88499 0.55591 0.04745 0.0
H262 H 0.91492 0.37178 0.06591 0.0
H263 H 0.89339 0.59046 0.04653 0.0
H264 H 0.75368 0.4469 0.04523 0.0
H265 H 0.83513 0.30748 0.06973 0.0
H266 H 0.95618 0.57218 0.04968 0.0
H267 H 0.10139 0.3854 0.99728 0.0
H268 H 0.81135 0.52969 0.04458 0.0
H269 H 0.10274 0.61584 0.97874 0.0
H270 H 0.04393 0.41021 0.99466 0.0
H271 H 0.18499 0.67575 0.97459 0.0
H272 H 0.7376 0.37022 0.05276 0.0
H273 H 0.1853 0.44112 0.99855 0.0
H274 H 0.24803 0.52147 0.99731 0.0
H275 H 0.76773 0.31804 0.06258 0.0
H276 H 0.27132 0.6007 0.99039 0.0
N277 N 0.09442 0.47963 0.99446 0.0
C278 C 0.0803 0.43505 0.9948 0.0
C279 C 0.16015 0.45226 0.99709 0.0
C280 C 0.17445 0.49777 0.99535 0.0
C281 C 0.11286 0.42074 0.99635 0.0
C282 C 0.14034 0.51052 0.99362 0.0
H283 H 0.24793 0.6584 0.98134 0.0
N284 N 0.11933 0.56556 0.98788 0.0
C285 C 0.17654 0.64193 0.97912 0.0
C286 C 0.15322 0.55491 0.99028 0.0
C287 C 0.13008 0.60798 0.98136 0.0
C288 C 0.21197 0.63202 0.98299 0.0
C289 C 0.20055 0.58793 0.98831 0.0
O290 O 0.03356 0.53064 0.95818 0.0
O291 O 0.97722 0.50179 1.0106 0.0
O292 O 0.92637 0.42922 0.02156 0.0
O293 O 0.98664 0.4329 0.99753 0.0
O294 O 0.0162 0.55642 0.98791 0.0
O295 O 0.02762 0.46545 0.96156 0.0
O296 O 0.97772 0.46093 0.08706 0.0
O297 O 0.03294 0.48736 0.03398 0.0
O298 O 0.08263 0.56027 0.02253 0.0
O299 O 0.02188 0.55576 0.04671 0.0
O300 O 0.99576 0.43354 0.05728 0.0
O301 O 0.97838 0.52356 0.0821 0.0
C302 C 0.97836 0.53563 1.00083 0.0
C303 C 0.05275 0.50329 0.92303 0.0
C304 C 0.05075 0.50354 0.87794 0.0
C305 C 0.02772 0.49379 0.90099 0.0
C306 C 0.09938 0.52283 0.87729 0.0
C307 C 0.10116 0.52221 0.92213 0.0
C308 C 0.12432 0.53186 0.89929 0.0
C309 C 0.9425 0.41236 1.00492 0.0
C310 C 0.02767 0.49523 0.94661 0.0
C311 C 0.23474 0.57574 0.99132 0.0
C312 C 0.22162 0.53072 0.99504 0.0
C313 C 0.0331 0.4544 0.04403 0.0
C314 C 0.95255 0.48643 0.12077 0.0
C315 C 0.97499 0.49347 0.14355 0.0
C316 C 0.94979 0.48405 0.16595 0.0
C317 C 0.90157 0.4675 0.1651 0.0
C318 C 0.90451 0.46988 0.12025 0.0
C319 C 0.8792 0.4605 0.14237 0.0
C320 C 0.06592 0.57709 0.03893 0.0
C321 C 0.97989 0.49557 0.09785 0.0
H322 H 0.99033 0.47972 0.90181 0.0
H323 H 0.11801 0.53043 0.85978 0.0
H324 H 0.12096 0.52983 0.93901 0.0
H325 H 0.16172 0.54656 0.89863 0.0
H326 H 0.01226 0.50679 0.14375 0.0
H327 H 0.88105 0.45946 0.18197 0.0
H328 H 0.88666 0.46415 0.10284 0.0
H329 H 0.84207 0.44761 0.14191 0.0
Eu330 Eu 0.52611 0.48555 0.04857 0.0
C331 C 0.44182 0.5756 0.98044 0.0
C332 C 0.35869 0.52532 0.98259 0.0
C333 C 0.38915 0.6042 0.97353 0.0
C334 C 0.40451 0.53324 0.98456 0.0
C335 C 0.43459 0.61142 0.97437 0.0
C336 C 0.3513 0.56119 0.97747 0.0
C337 C 0.51716 0.65729 0.96703 0.0
N338 N 0.48512 0.58101 0.98042 0.0
C339 C 0.52247 0.62061 0.97284 0.0
C340 C 0.47309 0.65288 0.96815 0.0
Eu341 Eu 0.49193 0.51776 0.99067 0.0
N342 N 0.41301 0.49915 0.98845 0.0
C343 C 0.37729 0.45594 0.98875 0.0
C344 C 0.32179 0.48133 0.98467 0.0
C345 C 0.33119 0.44643 0.98744 0.0
H346 H 0.55667 0.62436 0.97177 0.0
H347 H 0.30298 0.41217 0.98843 0.0
H348 H 0.31656 0.55584 0.97548 0.0
H349 H 0.54705 0.68888 0.96162 0.0
H350 H 0.38411 0.42864 0.99062 0.0
H351 H 0.71019 0.61181 0.05564 0.0
H352 H 0.28608 0.47383 0.98335 0.0
H353 H 0.47387 0.37523 0.05807 0.0
H354 H 0.62692 0.5844 0.05078 0.0
H355 H 0.49519 0.317 0.06547 0.0
H356 H 0.38286 0.63128 0.96892 0.0
H357 H 0.73841 0.55833 0.06114 0.0
H358 H 0.71975 0.47936 0.06699 0.0
H359 H 0.46898 0.68122 0.96339 0.0
H360 H 0.66184 0.39895 0.06859 0.0
N361 N 0.6074 0.51547 0.05232 0.0
C362 C 0.63832 0.56037 0.05292 0.0
C363 C 0.70161 0.54595 0.05873 0.0
C364 C 0.66963 0.50008 0.05919 0.0
C365 C 0.68582 0.57622 0.0557 0.0
C366 C 0.62215 0.48562 0.05578 0.0
H367 H 0.57803 0.33815 0.06796 0.0
N368 N 0.5439 0.42807 0.05512 0.0
C369 C 0.52205 0.35158 0.06306 0.0
C370 C 0.58944 0.44055 0.05707 0.0
C371 C 0.5101 0.38453 0.05887 0.0
C372 C 0.56885 0.36365 0.06437 0.0
C373 C 0.60322 0.40867 0.06182 0.0
O374 O 0.48919 0.45509 0.08327 0.0
O375 O 0.47103 0.49448 0.03002 0.0
O376 O 0.50521 0.57241 0.01758 0.0
O377 O 0.54619 0.55893 0.04839 0.0
O378 O 0.44881 0.43649 0.05057 0.0
O379 O 0.54577 0.52356 0.08292 0.0
O380 O 0.52947 0.53537 0.95522 0.0
O381 O 0.5467 0.50905 1.00964 0.0
O382 O 0.51755 0.43608 0.01892 0.0
O383 O 0.46459 0.44284 0.994 0.0
O384 O 0.56973 0.56523 0.98789 0.0
O385 O 0.46215 0.47578 0.95816 0.0
C386 C 0.43521 0.45966 0.03804 0.0
C387 C 0.53063 0.48279 0.12048 0.0
C388 C 0.52954 0.48539 0.16578 0.0
C389 C 0.51444 0.492 0.14261 0.0
C390 C 0.56066 0.46893 0.16634 0.0
C391 C 0.56172 0.46659 0.12157 0.0
C392 C 0.57652 0.45961 0.1444 0.0
C393 C 0.5311 0.58378 0.03765 0.0
C394 C 0.51494 0.4904 0.09645 0.0
C395 C 0.65055 0.42287 0.06478 0.0
C396 C 0.68359 0.46853 0.06367 0.0
C397 C 0.58299 0.54317 1.00158 0.0
C398 C 0.48367 0.51296 0.91937 0.0
C399 C 0.50065 0.50449 0.89736 0.0
C400 C 0.48974 0.51563 0.87418 0.0
C401 C 0.46154 0.53532 0.87347 0.0
C402 C 0.45539 0.53233 0.91818 0.0
C403 C 0.44448 0.5435 0.89533 0.0
C404 C 0.48552 0.42091 1.00157 0.0
C405 C 0.49631 0.50211 0.94342 0.0
H406 H 0.49079 0.50501 0.14173 0.0
H407 H 0.57247 0.46282 0.18378 0.0
H408 H 0.57454 0.45935 0.10484 0.0
H409 H 0.60042 0.44693 0.14509 0.0
H410 H 0.52279 0.48979 0.89832 0.0
H411 H 0.45199 0.54375 0.85598 0.0
H412 H 0.44169 0.53876 0.93485 0.0
H413 H 0.42258 0.55841 0.89456 0.0
Eu414 Eu 0.15289 0.29905 0.32475 0.0
C415 C 0.25535 0.47136 0.39004 0.0
C416 C 0.33583 0.49064 0.38603 0.0
C417 C 0.3166 0.54908 0.39275 0.0
C418 C 0.28804 0.45851 0.38619 0.0
C419 C 0.26921 0.51662 0.3941 0.0
C420 C 0.34988 0.53612 0.38866 0.0
C421 C 0.18891 0.49363 0.40302 0.0
N422 N 0.21004 0.43912 0.39147 0.0
C423 C 0.17702 0.44921 0.39891 0.0
C424 C 0.23515 0.52761 0.40022 0.0
Eu425 Eu 0.1915 0.36491 0.38298 0.0
N426 N 0.27317 0.41428 0.38406 0.0
C427 C 0.30451 0.39962 0.38384 0.0
C428 C 0.36804 0.47595 0.38405 0.0
C429 C 0.35229 0.43018 0.38338 0.0
H430 H 0.14122 0.42298 0.40099 0.0
H431 H 0.37691 0.41837 0.38243 0.0
H432 H 0.38641 0.56134 0.38832 0.0
H433 H 0.16244 0.50161 0.4083 0.0
H434 H 0.29302 0.36442 0.38318 0.0
H435 H 0.96708 0.24374 0.32484 0.0
H436 H 0.40506 0.49954 0.38375 0.0
H437 H 0.20441 0.24208 0.30663 0.0
H438 H 0.05083 0.29836 0.32436 0.0
H439 H 0.18413 0.16376 0.29918 0.0
H440 H 0.32795 0.58411 0.39553 0.0
H441 H 0.93982 0.16275 0.32338 0.0
H442 H 0.95942 0.10159 0.31879 0.0
H443 H 0.24433 0.56197 0.40351 0.0
H444 H 0.01859 0.07972 0.31164 0.0
N445 N 0.07139 0.24903 0.3235 0.0
C446 C 0.03969 0.26323 0.32364 0.0
C447 C 0.97676 0.18663 0.3232 0.0
C448 C 0.00937 0.17242 0.32128 0.0
C449 C 0.99201 0.2323 0.32394 0.0
C450 C 0.05705 0.20491 0.32127 0.0
H451 H 0.10249 0.10277 0.30381 0.0
N452 N 0.13533 0.22516 0.31612 0.0
C453 C 0.15736 0.17134 0.30447 0.0
C454 C 0.09014 0.19257 0.31743 0.0
C455 C 0.16872 0.21559 0.30866 0.0
C456 C 0.11127 0.137 0.30717 0.0
C457 C 0.07681 0.14747 0.31327 0.0
O458 O 0.19175 0.31323 0.2898 0.0
O459 O 0.20912 0.35911 0.34358 0.0
O460 O 0.17769 0.40675 0.35562 0.0
O461 O 0.13272 0.35299 0.32611 0.0
O462 O 0.22935 0.32188 0.32237 0.0
O463 O 0.1284 0.3159 0.29103 0.0
O464 O 0.15364 0.35296 0.41816 0.0
O465 O 0.1354 0.30512 0.36406 0.0
O466 O 0.16642 0.25701 0.35207 0.0
O467 O 0.21113 0.31058 0.38173 0.0
O468 O 0.11486 0.34175 0.38551 0.0
O469 O 0.21454 0.34612 0.41655 0.0
C470 C 0.24408 0.35762 0.33536 0.0
C471 C 0.15055 0.29937 0.25239 0.0
C472 C 0.15745 0.30722 0.20713 0.0
C473 C 0.16677 0.32657 0.23089 0.0
C474 C 0.13117 0.26035 0.20537 0.0
C475 C 0.12427 0.25282 0.25003 0.0
C476 C 0.11463 0.23351 0.22663 0.0
C477 C 0.15012 0.39309 0.33611 0.0
C478 C 0.16246 0.31974 0.27714 0.0
C479 C 0.02953 0.11463 0.3145 0.0
C480 C 0.99585 0.12709 0.31855 0.0
C481 C 0.10032 0.30627 0.37232 0.0
C482 C 0.1954 0.36502 0.45533 0.0
C483 C 0.18037 0.3382 0.47704 0.0
C484 C 0.19382 0.3578 0.50068 0.0
C485 C 0.22177 0.40464 0.50203 0.0
C486 C 0.22347 0.41146 0.45735 0.0
C487 C 0.23637 0.43108 0.48058 0.0
C488 C 0.19385 0.27057 0.37163 0.0
C489 C 0.1817 0.34444 0.43066 0.0
H490 H 0.18734 0.36257 0.23269 0.0
H491 H 0.12286 0.24438 0.18746 0.0
H492 H 0.1114 0.23143 0.26627 0.0
H493 H 0.09431 0.19753 0.22496 0.0
H494 H 0.15903 0.30222 0.47548 0.0
H495 H 0.23213 0.42104 0.51976 0.0
H496 H 0.23539 0.43254 0.44097 0.0
H497 H 0.25786 0.46701 0.48198 0.0
Eu498 Eu 0.70793 0.8443 0.32636 0.0
C499 C 0.52668 0.77955 0.38667 0.0
C500 C 0.51455 0.84271 0.38211 0.0
C501 C 0.44814 0.76747 0.38498 0.0
C502 C 0.5446 0.82503 0.38383 0.0
C503 C 0.47825 0.75041 0.38832 0.0
C504 C 0.46634 0.81359 0.38173 0.0
C505 C 0.49321 0.69075 0.39898 0.0
N506 N 0.5567 0.76414 0.38955 0.0
C507 C 0.54094 0.72103 0.39713 0.0
C508 C 0.46166 0.70529 0.39403 0.0
Eu509 Eu 0.63675 0.81649 0.38375 0.0
N510 N 0.59142 0.85219 0.38373 0.0
C511 C 0.6103 0.89759 0.38435 0.0
C512 C 0.53382 0.88914 0.38122 0.0
C513 C 0.58187 0.91669 0.38289 0.0
H514 H 0.56541 0.70975 0.40076 0.0
H515 H 0.59712 0.95266 0.38271 0.0
H516 H 0.44302 0.82667 0.3795 0.0
H517 H 0.48081 0.65624 0.40413 0.0
H518 H 0.64734 0.91954 0.38518 0.0
H519 H 0.7507 0.71023 0.32781 0.0
H520 H 0.5119 0.904 0.37982 0.0
H521 H 0.77733 0.9508 0.30848 0.0
H522 H 0.6993 0.74208 0.32538 0.0
H523 H 0.86158 0.00532 0.30443 0.0
H524 H 0.41081 0.74544 0.38553 0.0
H525 H 0.83583 0.76005 0.33015 0.0
H526 H 0.90386 0.83794 0.3298 0.0
H527 H 0.42469 0.68181 0.39548 0.0
H528 H 0.93459 0.91881 0.32315 0.0
N529 N 0.75445 0.80982 0.32634 0.0
C530 C 0.73628 0.7645 0.32596 0.0
C531 C 0.81338 0.77434 0.32878 0.0
C532 C 0.83189 0.82065 0.32758 0.0
C533 C 0.76538 0.74614 0.32741 0.0
C534 C 0.80116 0.83755 0.3259 0.0
H535 H 0.91901 0.98131 0.31291 0.0
N536 N 0.78755 0.8974 0.31985 0.0
C537 C 0.8499 0.97105 0.30979 0.0
C538 C 0.81826 0.88283 0.3227 0.0
C539 C 0.80237 0.9402 0.31202 0.0
C540 C 0.8822 0.95738 0.31465 0.0
C541 C 0.86653 0.91255 0.32068 0.0
O542 O 0.70313 0.87314 0.29128 0.0
O543 O 0.64385 0.83786 0.34413 0.0
O544 O 0.59421 0.7605 0.3573 0.0
O545 O 0.64841 0.77188 0.32608 0.0
O546 O 0.68328 0.89448 0.3227 0.0
O547 O 0.69296 0.80617 0.29217 0.0
O548 O 0.6393 0.78623 0.4188 0.0
O549 O 0.7008 0.823 0.366 0.0
O550 O 0.75057 0.90063 0.35253 0.0
O551 O 0.69714 0.88864 0.38436 0.0
O552 O 0.66169 0.7665 0.38752 0.0
O553 O 0.65152 0.85395 0.41818 0.0
C554 C 0.64527 0.87256 0.3354 0.0
C555 C 0.72127 0.8476 0.25491 0.0
C556 C 0.71977 0.84742 0.20983 0.0
C557 C 0.69644 0.83736 0.23279 0.0
C558 C 0.7685 0.86799 0.20931 0.0
C559 C 0.76981 0.86751 0.25416 0.0
C560 C 0.79328 0.87772 0.23139 0.0
C561 C 0.60753 0.74782 0.3373 0.0
C562 C 0.69564 0.83847 0.2784 0.0
C563 C 0.89736 0.89631 0.32399 0.0
C564 C 0.87999 0.8504 0.32759 0.0
C565 C 0.69964 0.78846 0.37478 0.0
C566 C 0.62052 0.81174 0.45501 0.0
C567 C 0.64428 0.82178 0.47748 0.0
C568 C 0.61992 0.81201 0.50013 0.0
C569 C 0.57122 0.7918 0.49998 0.0
C570 C 0.57201 0.79223 0.45512 0.0
C571 C 0.54751 0.78222 0.47756 0.0
C572 C 0.73763 0.91304 0.37277 0.0
C573 C 0.64718 0.82085 0.43186 0.0
H574 H 0.65891 0.82223 0.23347 0.0
H575 H 0.78731 0.87589 0.19185 0.0
H576 H 0.78949 0.87535 0.27105 0.0
H577 H 0.83077 0.89323 0.23086 0.0
H578 H 0.68179 0.83665 0.47731 0.0
H579 H 0.55163 0.78415 0.51717 0.0
H580 H 0.55311 0.7846 0.43798 0.0
H581 H 0.51005 0.76702 0.47758 0.0
Eu582 Eu 0.18992 0.81649 0.38251 0.0
C583 C 0.10218 0.9026 0.31494 0.0
C584 C 0.01962 0.84967 0.31675 0.0
C585 C 0.04693 0.92818 0.30824 0.0
C586 C 0.06607 0.85944 0.31872 0.0
C587 C 0.09305 0.93732 0.30912 0.0
C588 C 0.01033 0.8844 0.31188 0.0
C589 C 0.17534 0.98598 0.30201 0.0
N590 N 0.1462 0.90988 0.3149 0.0
C591 C 0.1825 0.95029 0.30752 0.0
C592 C 0.13046 0.97965 0.30316 0.0
Eu593 Eu 0.15623 0.84835 0.32442 0.0
N594 N 0.07641 0.82649 0.32234 0.0
C595 C 0.04197 0.78271 0.32251 0.0
C596 C 0.98402 0.80505 0.31861 0.0
C597 C 0.99531 0.77138 0.32121 0.0
H598 H 0.21727 0.95534 0.30646 0.0
H599 H 0.96812 0.73668 0.32207 0.0
H600 H 0.97507 0.87753 0.30986 0.0
H601 H 0.2044 0.01825 0.29678 0.0
H602 H 0.05019 0.75632 0.32429 0.0
H603 H 0.37813 0.92765 0.38505 0.0
H604 H 0.94788 0.79615 0.31728 0.0
H605 H 0.12849 0.70978 0.40097 0.0
H606 H 0.29618 0.90828 0.38259 0.0
H607 H 0.14101 0.64686 0.41114 0.0
H608 H 0.03916 0.95437 0.30381 0.0
H609 H 0.39803 0.86802 0.39023 0.0
H610 H 0.37049 0.78666 0.39798 0.0
H611 H 0.12489 0.0072 0.2986 0.0
H612 H 0.30617 0.71001 0.40429 0.0
N613 N 0.26967 0.83807 0.3848 0.0
C614 C 0.30424 0.88181 0.38455 0.0
C615 C 0.36193 0.85923 0.38881 0.0
C616 C 0.3262 0.81469 0.39077 0.0
C617 C 0.35084 0.89299 0.38599 0.0
C618 C 0.27982 0.80506 0.38867 0.0
H619 H 0.22038 0.65754 0.40955 0.0
N620 N 0.19964 0.75493 0.39249 0.0
C621 C 0.17017 0.67899 0.4058 0.0
C622 C 0.24358 0.76203 0.39258 0.0
C623 C 0.16321 0.7147 0.4 0.0
C624 C 0.21497 0.68511 0.40477 0.0
C625 C 0.2525 0.72727 0.39867 0.0
O626 O 0.15242 0.79591 0.41795 0.0
O627 O 0.13524 0.82595 0.36377 0.0
O628 O 0.16995 0.90276 0.35173 0.0
O629 O 0.21535 0.89111 0.38044 0.0
O630 O 0.11255 0.76878 0.385 0.0
O631 O 0.21761 0.85801 0.41532 0.0
O632 O 0.19335 0.87001 0.2889 0.0
O633 O 0.21066 0.83873 0.34318 0.0
O634 O 0.17599 0.76183 0.35529 0.0
O635 O 0.13121 0.77379 0.32628 0.0
O636 O 0.2338 0.89571 0.32179 0.0
O637 O 0.12896 0.80713 0.29148 0.0
C638 C 0.09917 0.79147 0.37192 0.0
C639 C 0.19767 0.82048 0.45401 0.0
C640 C 0.19306 0.81979 0.49922 0.0
C641 C 0.18109 0.82958 0.47597 0.0
C642 C 0.222 0.80089 0.50005 0.0
C643 C 0.22667 0.80191 0.45532 0.0
C644 C 0.23869 0.79214 0.47824 0.0
C645 C 0.19824 0.91517 0.37086 0.0
C646 C 0.18407 0.83011 0.42992 0.0
C647 C 0.29856 0.73623 0.39966 0.0
C648 C 0.33529 0.77991 0.39588 0.0
C649 C 0.2469 0.87291 0.33498 0.0
C650 C 0.14766 0.84518 0.25296 0.0
C651 C 0.16363 0.83619 0.23073 0.0
C652 C 0.14929 0.84423 0.2077 0.0
C653 C 0.11941 0.86211 0.20737 0.0
C654 C 0.11771 0.86274 0.25212 0.0
C655 C 0.10388 0.87134 0.22943 0.0
C656 C 0.14794 0.74953 0.33604 0.0
C657 C 0.16204 0.83568 0.27687 0.0
H658 H 0.15843 0.84371 0.47493 0.0
H659 H 0.23236 0.7935 0.5176 0.0
H660 H 0.24008 0.79505 0.43868 0.0
H661 H 0.26115 0.77784 0.4791 0.0
H662 H 0.18632 0.82207 0.23138 0.0
H663 H 0.10823 0.86922 0.19 0.0
H664 H 0.10484 0.86959 0.26896 0.0
H665 H 0.08085 0.88503 0.22894 0.0
Eu666 Eu 0.82508 0.63376 0.65906 0.0
C667 C 0.92386 0.80669 0.7251 0.0
C668 C 1.00522 0.82908 0.72134 0.0
C669 C 0.98276 0.8852 0.72832 0.0
C670 C 0.95788 0.79565 0.72122 0.0
C671 C 0.93584 0.85141 0.72942 0.0
C672 C 0.01742 0.87405 0.72423 0.0
C673 C 0.85477 0.8253 0.73806 0.0
N674 N 0.87909 0.77318 0.72631 0.0
C675 C 0.84477 0.78149 0.73372 0.0
C676 C 0.90043 0.86055 0.73552 0.0
Eu677 Eu 0.86359 0.69998 0.71726 0.0
N678 N 0.94474 0.75184 0.71884 0.0
C679 C 0.97743 0.73888 0.71861 0.0
C680 C 0.03882 0.81613 0.71936 0.0
C681 C 0.02483 0.77076 0.71842 0.0
H682 H 0.80939 0.75436 0.73562 0.0
H683 H 0.05052 0.76027 0.71746 0.0
H684 H 0.05357 0.90026 0.72409 0.0
H685 H 0.82725 0.83185 0.74333 0.0
H686 H 0.96736 0.70406 0.71771 0.0
H687 H 0.63935 0.57731 0.65527 0.0
H688 H 0.07554 0.84075 0.71927 0.0
H689 H 0.87926 0.57618 0.64709 0.0
H690 H 0.72293 0.63237 0.65638 0.0
H691 H 0.85985 0.49762 0.64176 0.0
H692 H 0.99266 0.91984 0.73129 0.0
H693 H 0.6128 0.49646 0.65406 0.0
H694 H 0.63321 0.43563 0.65138 0.0
H695 H 0.90814 0.89445 0.73899 0.0
H696 H 0.69316 0.41393 0.64757 0.0
N697 N 0.74399 0.5834 0.65645 0.0
C698 C 0.71208 0.5973 0.65575 0.0
C699 C 0.64966 0.52053 0.65453 0.0
C700 C 0.68261 0.50661 0.65381 0.0
C701 C 0.66452 0.56613 0.65515 0.0
C702 C 0.73016 0.53932 0.65461 0.0
H703 H 0.77775 0.43684 0.64366 0.0
N704 N 0.80899 0.5597 0.65242 0.0
C705 C 0.83247 0.50542 0.64487 0.0
C706 C 0.76373 0.52709 0.65254 0.0
C707 C 0.84334 0.54982 0.6478 0.0
C708 C 0.7861 0.4712 0.64601 0.0
C709 C 0.75097 0.48184 0.64954 0.0
O710 O 0.86241 0.64346 0.62393 0.0
O711 O 0.881 0.69402 0.67785 0.0
O712 O 0.84911 0.74131 0.68983 0.0
O713 O 0.80445 0.68736 0.66024 0.0
O714 O 0.90189 0.65764 0.65638 0.0
O715 O 0.80295 0.65287 0.62529 0.0
O716 O 0.82537 0.68512 0.7525 0.0
O717 O 0.80742 0.64073 0.69806 0.0
O718 O 0.83354 0.59171 0.68856 0.0
O719 O 0.88663 0.64809 0.71415 0.0
O720 O 0.78672 0.67626 0.72019 0.0
O721 O 0.88739 0.68036 0.75027 0.0
C722 C 0.91615 0.69317 0.66947 0.0
C723 C 0.82096 0.63239 0.58668 0.0
C724 C 0.82149 0.63952 0.54133 0.0
C725 C 0.83549 0.65917 0.56494 0.0
C726 C 0.79345 0.59268 0.54006 0.0
C727 C 0.79286 0.58595 0.58473 0.0
C728 C 0.77937 0.56629 0.56153 0.0
C729 C 0.82149 0.72739 0.67032 0.0
C730 C 0.8352 0.65305 0.61129 0.0
C731 C 0.70369 0.44892 0.64964 0.0
C732 C 0.66956 0.46128 0.6518 0.0
C733 C 0.77225 0.64162 0.70634 0.0
C734 C 0.86786 0.69773 0.78937 0.0
C735 C 0.8522 0.67093 0.81108 0.0
C736 C 0.86562 0.6905 0.83473 0.0
C737 C 0.89414 0.73727 0.8361 0.0
C738 C 0.89644 0.74411 0.79142 0.0
C739 C 0.9093 0.76369 0.81466 0.0
C740 C 0.865 0.6063 0.70626 0.0
C741 C 0.85426 0.67732 0.76465 0.0
H742 H 0.85688 0.69514 0.56645 0.0
H743 H 0.78265 0.57625 0.52236 0.0
H744 H 0.78142 0.56491 0.60114 0.0
H745 H 0.75783 0.53035 0.56017 0.0
H746 H 0.8304 0.635 0.80952 0.0
H747 H 0.90452 0.75361 0.85385 0.0
H748 H 0.90878 0.76519 0.77504 0.0
H749 H 0.9312 0.79958 0.81608 0.0
Eu750 Eu 0.37824 0.18151 0.65854 0.0
C751 C 0.19471 0.11215 0.71823 0.0
C752 C 0.17864 0.17301 0.7146 0.0
C753 C 0.11478 0.09636 0.71722 0.0
C754 C 0.21051 0.15741 0.71587 0.0
C755 C 0.14668 0.0812 0.71975 0.0
C756 C 0.13081 0.1422 0.71448 0.0
C757 C 0.16548 0.02315 0.72782 0.0
N758 N 0.2264 0.09856 0.72022 0.0
C759 C 0.21275 0.05512 0.72606 0.0
C760 C 0.13225 0.03611 0.72425 0.0
Eu761 Eu 0.30541 0.15404 0.71508 0.0
N762 N 0.25702 0.1863 0.71545 0.0
C763 C 0.27389 0.2314 0.71592 0.0
C764 C 0.19578 0.21915 0.71374 0.0
C765 C 0.2436 0.24846 0.71486 0.0
H766 H 0.23848 0.04501 0.72845 0.0
H767 H 0.25722 0.28422 0.7146 0.0
H768 H 0.1061 0.15372 0.71266 0.0
H769 H 0.1547 0.98853 0.73176 0.0
H770 H 0.31073 0.2546 0.71637 0.0
H771 H 0.44482 0.06523 0.6633 0.0
H772 H 0.1724 0.23244 0.71266 0.0
H773 H 0.43571 0.28752 0.63766 0.0
H774 H 0.38498 0.08704 0.65902 0.0
H775 H 0.51702 0.34935 0.63306 0.0
H776 H 0.07771 0.07302 0.7178 0.0
H777 H 0.52772 0.1234 0.66656 0.0
H778 H 0.58812 0.2052 0.66637 0.0
H779 H 0.09566 0.01128 0.72555 0.0
H780 H 0.60839 0.28283 0.65691 0.0
N781 N 0.43332 0.1569 0.65981 0.0
C782 C 0.42101 0.11278 0.65992 0.0
C783 C 0.50159 0.13314 0.66433 0.0
C784 C 0.51414 0.17823 0.66244 0.0
C785 C 0.45487 0.10024 0.66243 0.0
C786 C 0.47878 0.18906 0.65958 0.0
H787 H 0.58201 0.33675 0.64363 0.0
N788 N 0.45486 0.24104 0.65097 0.0
C789 C 0.5099 0.31675 0.63944 0.0
C790 C 0.48996 0.23263 0.65502 0.0
C791 C 0.46399 0.2817 0.64195 0.0
C792 C 0.54649 0.30954 0.64548 0.0
C793 C 0.53679 0.26681 0.65292 0.0
O794 O 0.36531 0.20131 0.62239 0.0
O795 O 0.31375 0.17514 0.67559 0.0
O796 O 0.2637 0.10252 0.68621 0.0
O797 O 0.32381 0.107 0.66166 0.0
O798 O 0.35133 0.22986 0.65282 0.0
O799 O 0.36811 0.14038 0.62598 0.0
O800 O 0.30733 0.12439 0.75044 0.0
O801 O 0.37034 0.16066 0.69839 0.0
O802 O 0.4195 0.23839 0.68458 0.0
O803 O 0.36393 0.22708 0.71507 0.0
O804 O 0.33033 0.10417 0.7198 0.0
O805 O 0.32005 0.19241 0.74913 0.0
C806 C 0.31407 0.20882 0.66617 0.0
C807 C 0.39081 0.17882 0.58758 0.0
C808 C 0.39114 0.18097 0.54246 0.0
C809 C 0.36685 0.16922 0.56518 0.0
C810 C 0.43996 0.2027 0.5425 0.0
C811 C 0.43947 0.20005 0.58735 0.0
C812 C 0.46388 0.21197 0.56485 0.0
C813 C 0.27981 0.086 0.66933 0.0
C814 C 0.36432 0.16787 0.61088 0.0
C815 C 0.57217 0.25685 0.65769 0.0
C816 C 0.56074 0.21263 0.66275 0.0
C817 C 0.36887 0.12619 0.70756 0.0
C818 C 0.28923 0.15132 0.78633 0.0
C819 C 0.31325 0.16172 0.80873 0.0
C820 C 0.28921 0.15277 0.83145 0.0
C821 C 0.24054 0.13319 0.83139 0.0
C822 C 0.24078 0.13218 0.78653 0.0
C823 C 0.21659 0.12316 0.80902 0.0
C824 C 0.40514 0.25123 0.70411 0.0
C825 C 0.31555 0.15955 0.76313 0.0
H826 H 0.32924 0.15322 0.56549 0.0
H827 H 0.45956 0.21185 0.52527 0.0
H828 H 0.45849 0.20755 0.60446 0.0
H829 H 0.50145 0.22844 0.56473 0.0
H830 H 0.35069 0.17606 0.80845 0.0
H831 H 0.22113 0.1262 0.8486 0.0
H832 H 0.22173 0.12402 0.7694 0.0
H833 H 0.17916 0.10831 0.80913 0.0
Eu834 Eu 0.85633 0.14865 0.71648 0.0
C835 C 0.76492 0.23162 0.64939 0.0
C836 C 0.68304 0.17627 0.64764 0.0
C837 C 0.70828 0.25478 0.6407 0.0
C838 C 0.72962 0.18752 0.65132 0.0
C839 C 0.75466 0.26575 0.64399 0.0
C840 C 0.67267 0.21009 0.64223 0.0
C841 C 0.83718 0.31841 0.64274 0.0
N842 N 0.80951 0.24087 0.65144 0.0
C843 C 0.84564 0.2833 0.64749 0.0
C844 C 0.79146 0.30965 0.64109 0.0
Eu845 Eu 0.82109 0.17958 0.65874 0.0
N846 N 0.74099 0.15538 0.65544 0.0
C847 C 0.70756 0.11123 0.65538 0.0
C848 C 0.64841 0.1312 0.64867 0.0
C849 C 0.66078 0.09853 0.65249 0.0
H850 H 0.88107 0.2902 0.64849 0.0
H851 H 0.63435 0.06353 0.65296 0.0
H852 H 0.63738 0.20184 0.63843 0.0
H853 H 0.8659 0.35211 0.64011 0.0
H854 H 0.71663 0.08557 0.65793 0.0
H855 H 0.04515 0.2562 0.71749 0.0
H856 H 0.6122 0.12124 0.6461 0.0
H857 H 0.79314 0.04253 0.73626 0.0
H858 H 0.96372 0.23871 0.71563 0.0
H859 H 0.80396 0.97885 0.74681 0.0
H860 H 0.69971 0.28042 0.63627 0.0
H861 H 0.06317 0.19537 0.72294 0.0
H862 H 0.03385 0.11368 0.7312 0.0
H863 H 0.78499 0.3368 0.63703 0.0
H864 H 0.96833 0.03804 0.73855 0.0
N865 N 0.9356 0.16834 0.71848 0.0
C866 C 0.97096 0.21172 0.71772 0.0
C867 C 0.02729 0.18738 0.7218 0.0
C868 C 0.99082 0.14326 0.72428 0.0
C869 C 0.01726 0.22183 0.71882 0.0
C870 C 0.94475 0.13473 0.72256 0.0
H871 H 0.88243 0.98745 0.74476 0.0
N872 N 0.86438 0.08631 0.72718 0.0
C873 C 0.83349 0.01048 0.74112 0.0
C874 C 0.9079 0.09227 0.72703 0.0
C875 C 0.8275 0.04668 0.73509 0.0
C876 C 0.87779 0.01542 0.73985 0.0
C877 C 0.91583 0.05695 0.73327 0.0
O878 O 0.81892 0.13154 0.75194 0.0
O879 O 0.80078 0.15671 0.69784 0.0
O880 O 0.82932 0.2292 0.68809 0.0
O881 O 0.88346 0.22346 0.71241 0.0
O882 O 0.77877 0.10062 0.71963 0.0
O883 O 0.88604 0.19129 0.74878 0.0
O884 O 0.85775 0.20489 0.62342 0.0
O885 O 0.8764 0.1705 0.67692 0.0
O886 O 0.84209 0.0935 0.68965 0.0
O887 O 0.79784 0.10538 0.66017 0.0
O888 O 0.89854 0.22764 0.65575 0.0
O889 O 0.79573 0.13965 0.6252 0.0
C890 C 0.76486 0.1224 0.70614 0.0
C891 C 0.86445 0.15499 0.78784 0.0
C892 C 0.85701 0.15226 0.83298 0.0
C893 C 0.84655 0.16316 0.80962 0.0
C894 C 0.8858 0.13322 0.83412 0.0
C895 C 0.89325 0.13622 0.78945 0.0
C896 C 0.9038 0.12539 0.81249 0.0
C897 C 0.86188 0.24492 0.70513 0.0
C898 C 0.8519 0.16519 0.76359 0.0
C899 C 0.9615 0.06474 0.73386 0.0
C900 C 0.9989 0.10785 0.7295 0.0
C901 C 0.91227 0.2048 0.66845 0.0
C902 C 0.81374 0.17889 0.58694 0.0
C903 C 0.83012 0.16964 0.56494 0.0
C904 C 0.81785 0.17914 0.54169 0.0
C905 C 0.7887 0.1978 0.5409 0.0
C906 C 0.78461 0.19731 0.58567 0.0
C907 C 0.77218 0.20668 0.56275 0.0
C908 C 0.81436 0.08117 0.67027 0.0
C909 C 0.82822 0.17002 0.61099 0.0
H910 H 0.82398 0.17735 0.80833 0.0
H911 H 0.89501 0.12499 0.85177 0.0
H912 H 0.90755 0.12994 0.77295 0.0
H913 H 0.9261 0.11094 0.8136 0.0
H914 H 0.85299 0.15575 0.56596 0.0
H915 H 0.77813 0.20498 0.52336 0.0
H916 H 0.77159 0.20454 0.60233 0.0
H917 H 0.74962 0.22087 0.5619 0.0
C918 C 0.30621 0.90484 0.06185 0.0
C919 C 0.30059 0.86199 0.06476 0.0
H920 H 0.35141 0.97298 0.05093 0.0
C921 C 0.33628 0.8544 0.05649 0.0
H922 H 0.27909 0.91151 0.06783 0.0
C923 C 0.37806 0.88984 0.04701 0.0
C924 C 0.38421 0.9331 0.04505 0.0
H925 H 0.33284 0.82167 0.05858 0.0
H926 H 0.40614 0.88379 0.04231 0.0
C927 C 0.34747 0.93992 0.05207 0.0
C928 C 0.15704 0.48318 0.05949 0.0
C929 C 0.14998 0.44109 0.06688 0.0
H930 H 0.12541 0.52088 0.04685 0.0
C931 C 0.10516 0.4037 0.065 0.0
H932 H 0.19109 0.51264 0.06099 0.0
C933 C 0.06802 0.40825 0.05659 0.0
C934 C 0.07455 0.4503 0.04975 0.0
H935 H 0.09865 0.37087 0.07058 0.0
H936 H 0.03376 0.37883 0.05588 0.0
C937 C 0.11949 0.48784 0.05132 0.0
C938 C 0.56818 0.70513 0.04709 0.0
C939 C 0.56688 0.70734 0.07306 0.0
H940 H 0.55808 0.66425 1.01558 0.0
C941 C 0.55385 0.66843 0.08714 0.0
H942 H 0.57915 0.73465 0.03567 0.0
C943 C 0.5425 0.62834 0.07552 0.0
C944 C 0.54317 0.6262 0.04961 0.0
H945 H 0.55174 0.66873 0.10714 0.0
H946 H 0.53236 0.59879 0.0868 0.0
C947 C 0.55607 0.66482 0.0355 0.0
C948 C 0.89539 0.3038 0.96975 0.0
C949 C 0.84703 0.28548 0.97244 0.0
H950 H 0.96323 0.3579 0.97778 0.0
C951 C 0.83041 0.30896 0.98637 0.0
H952 H 0.90952 0.28625 0.95961 0.0
C953 C 0.86139 0.34996 0.99707 0.0
C954 C 0.90969 0.36844 0.9941 0.0
H955 H 0.79344 0.29611 0.98863 0.0
H956 H 0.84736 0.36751 1.0073 0.0
C957 C 0.92629 0.34484 0.98033 0.0
C958 C 0.67818 0.51508 0.9864 0.0
C959 C 0.71387 0.55687 0.97762 0.0
H960 H 0.60807 0.47731 1.0007 0.0
C961 C 0.70766 0.59406 0.9798 0.0
H962 H 0.68195 0.48579 0.98496 0.0
C963 C 0.66618 0.58944 0.98927 0.0
C964 C 0.62933 0.54745 0.99672 0.0
H965 H 0.73461 0.62676 0.97349 0.0
H966 H 0.66218 0.6187 0.98982 0.0
C967 C 0.636 0.51028 0.99557 0.0
C968 C 0.43992 0.14357 0.99529 0.0
C969 C 0.43893 0.14647 0.96931 0.0
H970 H 0.45346 0.11363 0.02652 0.0
C971 C 0.45128 0.12008 0.95494 0.0
H972 H 0.42959 0.16253 1.007 0.0
C973 C 0.46426 0.09162 0.96626 0.0
C974 C 0.466 0.08952 0.99214 0.0
H975 H 0.45179 0.12195 0.93493 0.0
H976 H 0.47377 0.07182 0.95472 0.0
C977 C 0.45371 0.11566 1.00656 0.0
C978 C 0.69728 0.09037 0.97916 0.0
C979 C 0.70339 0.13335 0.9761 0.0
H980 H 0.65181 0.02272 0.99072 0.0
C981 C 0.66833 0.14175 0.98452 0.0
H982 H 0.72396 0.08316 0.97306 0.0
C983 C 0.6266 0.10688 0.9944 0.0
C984 C 0.61998 0.0635 0.99656 0.0
H985 H 0.67226 0.17465 0.98231 0.0
H986 H 0.59894 0.11344 0.99936 0.0
C987 C 0.65612 0.05591 0.98935 0.0
C988 C 0.85628 0.5105 0.98379 0.0
C989 C 0.86472 0.55342 0.97723 0.0
H990 H 0.88582 0.47076 0.99613 0.0
C991 C 0.90965 0.59008 0.98036 0.0
H992 H 0.82213 0.4816 0.98128 0.0
C993 C 0.94566 0.58402 0.9891 0.0
C994 C 0.93783 0.54116 0.99501 0.0
H995 H 0.91722 0.6235 0.97536 0.0
H996 H 0.98013 0.61292 0.99068 0.0
C997 C 0.89268 0.50434 0.99234 0.0
C998 C 0.48802 0.31814 0.98009 0.0
C999 C 0.44522 0.29451 0.96786 0.0
H1000 H 0.53413 0.37644 1.00057 0.0
C1001 C 0.41575 0.31278 0.96718 0.0
H1002 H 0.51197 0.3055 0.98065 0.0
C1003 C 0.42892 0.3538 0.97816 0.0
C1004 C 0.47152 0.3772 0.99042 0.0
H1005 H 0.38213 0.29513 0.95843 0.0
H1006 H 0.40538 0.36691 0.97725 0.0
C1007 C 0.50086 0.3589 0.99143 0.0
C1008 C 0.17637 0.68431 0.0553 0.0
C1009 C 0.15868 0.70782 0.06832 0.0
H1010 H 0.16114 0.62445 0.03613 0.0
C1011 C 0.11014 0.68832 0.07094 0.0
H1012 H 0.2135 0.69806 0.05312 0.0
C1013 C 0.08015 0.64605 0.06138 0.0
C1014 C 0.09782 0.62227 0.0487 0.0
H1015 H 0.09515 0.70582 0.08037 0.0
H1016 H 0.04305 0.63212 0.06388 0.0
C1017 C 0.14629 0.64201 0.04561 0.0
C1018 C 0.33922 0.48553 0.05518 0.0
C1019 C 0.30358 0.44294 0.06292 0.0
H1020 H 0.40958 0.52482 0.04134 0.0
C1021 C 0.31022 0.40619 0.05965 0.0
H1022 H 0.33514 0.5145 0.05758 0.0
C1023 C 0.35208 0.41192 0.05009 0.0
C1024 C 0.3888 0.4546 0.04361 0.0
H1025 H 0.28338 0.37298 0.0653 0.0
H1026 H 0.3564 0.38292 0.04865 0.0
C1027 C 0.38173 0.49142 0.04584 0.0
C1028 C 0.59177 0.89616 0.07484 0.0
C1029 C 0.56184 0.84966 0.07444 0.0
H1030 H 0.60326 0.9604 0.06408 0.0
C1031 C 0.51919 0.83251 0.06202 0.0
H1032 H 0.62526 0.91056 0.08373 0.0
C1033 C 0.50705 0.86118 0.05014 0.0
C1034 C 0.53692 0.90761 0.05083 0.0
H1035 H 0.49484 0.79691 0.06168 0.0
H1036 H 0.47392 0.84704 0.04086 0.0
C1037 C 0.57931 0.92477 0.06334 0.0
C1038 C 0.0078 0.18857 0.39106 0.0
C1039 C 0.97221 0.19621 0.3995 0.0
H1040 H 0.07704 0.21775 0.37591 0.0
C1041 C 0.97744 0.23884 0.39621 0.0
H1042 H 1.00469 0.15602 0.39341 0.0
C1043 C 0.01817 0.27366 0.38585 0.0
C1044 C 0.05476 0.2668 0.37856 0.0
H1045 H 0.95034 0.24552 0.40223 0.0
H1046 H 0.02177 0.30655 0.38433 0.0
C1047 C 0.04904 0.22377 0.38093 0.0
C1048 C 0.77079 0.7373 0.3967 0.0
C1049 C 0.8154 0.77468 0.39934 0.0
H1050 H 0.69993 0.71258 0.38648 0.0
C1051 C 0.82274 0.81697 0.39217 0.0
H1052 H 0.76406 0.70433 0.40212 0.0
C1053 C 0.78559 0.82181 0.38348 0.0
C1054 C 0.74082 0.78426 0.38117 0.0
H1055 H 0.85663 0.84641 0.39426 0.0
H1056 H 0.79164 0.85495 0.37913 0.0
C1057 C 0.73406 0.74203 0.38778 0.0
C1058 C 0.22479 0.00142 0.42004 0.0
C1059 C 0.23686 0.03994 0.40577 0.0
H1060 H 0.20316 0.93169 0.41998 0.0
C1061 C 0.23637 0.03693 0.3798 0.0
H1062 H 0.22411 0.00231 0.44005 0.0
C1063 C 0.2235 0.99629 0.3684 0.0
C1064 C 0.21148 0.95804 0.38267 0.0
H1065 H 0.24659 0.06613 0.36822 0.0
H1066 H 0.22429 0.99522 0.34848 0.0
C1067 C 0.21259 0.96094 0.40857 0.0
C1068 C 0.5173 0.62547 0.33018 0.0
C1069 C 0.51256 0.62156 0.30428 0.0
H1070 H 0.55126 0.66829 0.36086 0.0
C1071 C 0.53867 0.66021 0.28958 0.0
H1072 H 0.49867 0.59652 0.34218 0.0
C1073 C 0.56961 0.70106 0.30037 0.0
C1074 C 0.57435 0.70463 0.32615 0.0
H1075 H 0.5353 0.65908 0.26965 0.0
H1076 H 0.58951 0.73005 0.28854 0.0
C1077 C 0.54758 0.66663 0.34098 0.0
C1078 C 0.37141 0.92403 0.31291 0.0
C1079 C 0.37757 0.88688 0.31035 0.0
H1080 H 0.32601 0.9485 0.32338 0.0
C1081 C 0.34169 0.8448 0.31865 0.0
H1082 H 0.3985 0.95691 0.30693 0.0
C1083 C 0.29944 0.83978 0.32787 0.0
C1084 C 0.29294 0.877 0.32951 0.0
H1085 H 0.34544 0.81555 0.31687 0.0
H1086 H 0.2714 0.80672 0.33279 0.0
C1087 C 0.32988 0.91919 0.32241 0.0
C1088 C 0.11184 0.47847 0.32767 0.0
C1089 C 0.1083 0.47956 0.30173 0.0
H1090 H 0.12786 0.45037 0.35882 0.0
C1091 C 0.11919 0.45217 0.28735 0.0
H1092 H 0.10265 0.49823 0.33943 0.0
C1093 C 0.13302 0.4243 0.29864 0.0
C1094 C 0.13697 0.42373 0.32449 0.0
H1095 H 0.11763 0.4526 0.26735 0.0
H1096 H 0.14118 0.40353 0.28709 0.0
C1097 C 0.1264 0.45112 0.33889 0.0
C1098 C 0.33668 0.47492 0.31585 0.0
C1099 C 0.3718 0.46689 0.30702 0.0
H1100 H 0.26799 0.44638 0.33168 0.0
C1101 C 0.36622 0.42411 0.3102 0.0
H1102 H 0.34011 0.50763 0.31365 0.0
C1103 C 0.3257 0.38961 0.32095 0.0
C1104 C 0.2896 0.39688 0.3287 0.0
H1105 H 0.39299 0.41713 0.30396 0.0
H1106 H 0.3219 0.35664 0.32245 0.0
C1107 C 0.29561 0.44002 0.32633 0.0
C1108 C 0.57475 0.92432 0.3134 0.0
C1109 C 0.53019 0.88703 0.31042 0.0
H1110 H 0.64536 0.94874 0.32403 0.0
C1111 C 0.52261 0.8446 0.31745 0.0
H1112 H 0.58166 0.95739 0.30806 0.0
C1113 C 0.55951 0.83954 0.32632 0.0
C1114 C 0.60426 0.87699 0.32895 0.0
H1115 H 0.48876 0.81523 0.31508 0.0
H1116 H 0.55332 0.80631 0.33054 0.0
C1117 C 0.61123 0.91936 0.3225 0.0
C1118 C 0.10958 0.62756 0.32759 0.0
C1119 C 0.1072 0.62374 0.30165 0.0
H1120 H 0.12396 0.67015 0.3587 0.0
C1121 C 0.11824 0.66185 0.28723 0.0
H1122 H 0.10022 0.59871 0.33933 0.0
C1123 C 0.13125 0.70268 0.29852 0.0
C1124 C 0.13421 0.70637 0.32438 0.0
H1125 H 0.1175 0.66038 0.26722 0.0
H1126 H 0.13979 0.73157 0.28698 0.0
C1127 C 0.12328 0.66852 0.33879 0.0
C1128 C 0.80763 0.00229 0.41957 0.0
C1129 C 0.83286 0.04057 0.40446 0.0
H1130 H 0.75733 0.93228 0.42137 0.0
C1131 C 0.82696 0.03586 0.37865 0.0
H1132 H 0.81183 0.00408 0.43945 0.0
C1133 C 0.79653 0.99431 0.36833 0.0
C1134 C 0.77075 0.95664 0.38355 0.0
H1135 H 0.84478 0.06447 0.36635 0.0
H1136 H 0.79197 0.99207 0.34851 0.0
C1137 C 0.77651 0.96099 0.40925 0.0
C1138 C 0.97518 0.73939 0.395 0.0
C1139 C 0.96873 0.77629 0.39797 0.0
H1140 H 0.02065 0.71549 0.38371 0.0
C1141 C 1.00408 0.81851 0.38949 0.0
H1142 H 0.94849 0.7064 0.40107 0.0
C1143 C 0.04617 0.82394 0.37973 0.0
C1144 C 0.05303 0.78698 0.37772 0.0
H1145 H 1.00006 0.84758 0.39154 0.0
H1146 H 0.07386 0.85712 0.37471 0.0
C1147 C 0.01652 0.74462 0.38495 0.0
C1148 C 0.23351 0.18625 0.37999 0.0
C1149 C 0.23569 0.18415 0.40597 0.0
H1150 H 0.21851 0.21513 0.34882 0.0
C1151 C 0.22343 0.21053 0.42038 0.0
H1152 H 0.24373 0.16727 0.36824 0.0
C1153 C 0.2096 0.23839 0.40909 0.0
C1154 C 0.20696 0.2399 0.38321 0.0
H1155 H 0.22388 0.20927 0.44039 0.0
H1156 H 0.20037 0.25837 0.42066 0.0
C1157 C 0.21892 0.21357 0.36877 0.0
C1158 C 0.64797 0.57504 0.72782 0.0
C1159 C 0.64212 0.53221 0.73126 0.0
H1160 H 0.69358 0.6428 0.71642 0.0
C1161 C 0.67761 0.52407 0.72333 0.0
H1162 H 0.62096 0.58207 0.7335 0.0
C1163 C 0.71951 0.55906 0.71371 0.0
C1164 C 0.72595 0.60236 0.71132 0.0
H1165 H 0.67396 0.49132 0.72583 0.0
H1166 H 0.74748 0.55268 0.7093 0.0
C1167 C 0.68937 0.60966 0.71792 0.0
C1168 C 0.49083 0.1527 0.72611 0.0
C1169 C 0.48277 0.10989 0.73265 0.0
H1170 H 0.46086 0.19188 0.71333 0.0
C1171 C 0.43809 0.07297 0.72934 0.0
H1172 H 0.52478 0.18179 0.72875 0.0
C1173 C 0.402 0.0786 0.72031 0.0
C1174 C 0.40948 0.1213 0.71425 0.0
H1175 H 0.43081 0.03963 0.73431 0.0
H1176 H 0.36778 0.04945 0.71846 0.0
C1177 C 0.45432 0.15843 0.71726 0.0
C1178 C 0.92937 0.35197 0.74077 0.0
C1179 C 0.89968 0.36995 0.73972 0.0
H1180 H 0.94073 0.29846 0.73065 0.0
C1181 C 0.85783 0.34681 0.72662 0.0
H1182 H 0.96229 0.36933 0.75022 0.0
C1183 C 0.84594 0.3066 0.71493 0.0
C1184 C 0.87532 0.2884 0.7164 0.0
H1185 H 0.8338 0.35933 0.72573 0.0
H1186 H 0.81327 0.28935 0.7052 0.0
C1187 C 0.91717 0.31149 0.72938 0.0
C1188 C 0.23411 0.97666 0.6351 0.0
C1189 C 0.18568 0.95754 0.63795 0.0
H1190 H 0.30156 0.03183 0.64267 0.0
C1191 C 0.16851 0.98089 0.65158 0.0
H1192 H 0.24867 0.95927 0.62518 0.0
C1193 C 0.19902 0.02251 0.66185 0.0
C1194 C 0.24739 0.04168 0.65878 0.0
H1195 H 0.13145 0.96742 0.65393 0.0
H1196 H 0.18459 0.03994 0.67185 0.0
C1197 C 0.26453 0.01824 0.64528 0.0
C1198 C 0.0367 0.25741 0.64577 0.0
C1199 C 0.04372 0.22075 0.64332 0.0
H1200 H 0.99048 0.28091 0.65627 0.0
C1201 C 0.00839 0.17851 0.65179 0.0
H1202 H 0.0633 0.29042 0.63967 0.0
C1203 C 0.9659 0.17284 0.66112 0.0
C1204 C 0.95857 0.20958 0.66268 0.0
H1205 H 0.01278 0.1496 0.65012 0.0
H1206 H 0.93835 0.13964 0.66622 0.0
C1207 C 0.99495 0.25194 0.65537 0.0
C1208 C 0.78993 0.78599 0.62166 0.0
C1209 C 0.77751 0.81219 0.63611 0.0
H1210 H 0.8139 0.73886 0.62132 0.0
C1211 C 0.78028 0.81051 0.66207 0.0
H1212 H 0.78903 0.78696 0.60166 0.0
C1213 C 0.79562 0.78377 0.67325 0.0
C1214 C 0.80776 0.75761 0.65877 0.0
H1215 H 0.76997 0.82941 0.67385 0.0
H1216 H 0.79645 0.78248 0.69319 0.0
C1217 C 0.80455 0.75872 0.63291 0.0
C1218 C 0.00904 0.81115 0.65178 0.0
C1219 C 0.04463 0.80357 0.64332 0.0
H1220 H 0.93955 0.7817 0.66657 0.0
C1221 C 0.03941 0.76092 0.64638 0.0
H1222 H 0.01224 0.84376 0.64956 0.0
C1223 C 0.99853 0.72592 0.65648 0.0
C1224 C 0.96184 0.73268 0.66367 0.0
H1225 H 0.06651 0.75433 0.64024 0.0
H1226 H 0.99485 0.69298 0.65778 0.0
C1227 C 0.96764 0.77578 0.66161 0.0
C1228 C 0.2423 0.26021 0.64571 0.0
C1229 C 0.19766 0.22283 0.64306 0.0
H1230 H 0.3134 0.28483 0.65545 0.0
C1231 C 0.19048 0.18049 0.64998 0.0
H1232 H 0.24895 0.29323 0.64044 0.0
C1233 C 0.2278 0.1756 0.65833 0.0
C1234 C 0.27265 0.21311 0.66052 0.0
H1235 H 0.15662 0.15103 0.64784 0.0
H1236 H 0.22184 0.1424 0.66235 0.0
C1237 C 0.27922 0.25541 0.65426 0.0
C1238 C 0.78644 0.99393 0.62153 0.0
C1239 C 0.77542 0.95585 0.63598 0.0
H1240 H 0.8073 0.06346 0.62123 0.0
C1241 C 0.77724 0.95955 0.66192 0.0
H1242 H 0.78617 0.99256 0.60151 0.0
C1243 C 0.79038 0.0004 0.67311 0.0
C1244 C 0.80117 0.03816 0.65866 0.0
H1245 H 0.76789 0.93072 0.67367 0.0
H1246 H 0.79079 0.00203 0.69303 0.0
C1247 C 0.79878 0.03459 0.63279 0.0
C1248 C 0.49372 0.37405 0.71026 0.0
C1249 C 0.50064 0.37817 0.73601 0.0
H1250 H 0.45743 0.33086 0.68012 0.0
C1251 C 0.47575 0.33971 0.75101 0.0
H1252 H 0.51124 0.4029 0.6981 0.0
C1253 C 0.44424 0.29863 0.74063 0.0
C1254 C 0.43769 0.29481 0.71498 0.0
H1255 H 0.48068 0.34116 0.77084 0.0
H1256 H 0.42553 0.26965 0.75263 0.0
C1257 C 0.46279 0.33275 0.69988 0.0
C1258 C 0.66906 0.14926 0.72232 0.0
C1259 C 0.63414 0.10749 0.73161 0.0
H1260 H 0.73848 0.18743 0.7071 0.0
C1261 C 0.64098 0.07066 0.72945 0.0
H1262 H 0.6648 0.17828 0.72368 0.0
C1263 C 0.6823 0.07564 0.71949 0.0
C1264 C 0.71844 0.11766 0.71153 0.0
H1265 H 0.61461 0.03795 0.73608 0.0
H1266 H 0.68676 0.04665 0.71895 0.0
C1267 C 0.71112 0.15444 0.71265 0.0
C1268 C 0.8593 0.49917 0.72749 0.0
C1269 C 0.90098 0.51542 0.74073 0.0
H1270 H 0.81548 0.51504 0.70599 0.0
C1271 C 0.9308 0.56185 0.74221 0.0
H1272 H 0.83501 0.46364 0.72633 0.0
C1273 C 0.9191 0.59126 0.73093 0.0
C1274 C 0.87763 0.57496 0.71762 0.0
H1275 H 0.96353 0.5756 0.75182 0.0
H1276 H 0.94288 0.62683 0.7325 0.0
C1277 C 0.84794 0.52861 0.71589 0.0
C1278 C 0.45455 0.93629 0.21795 0.0
C1279 C 0.48703 0.94717 0.23707 0.0
H1280 H 0.44164 0.9509 0.18106 0.0
C1281 C 0.53293 0.98182 0.23269 0.0
H1282 H 0.41899 0.90959 0.22053 0.0
C1283 C 0.5459 0.00518 0.21012 0.0
C1284 C 0.51344 0.99483 0.19109 0.0
H1285 H 0.5589 0.99166 0.24695 0.0
H1286 H 0.58159 0.03166 0.20762 0.0
C1287 C 0.46765 0.95965 0.1952 0.0
C1288 C 0.98698 0.52087 0.23203 0.0
C1289 C 0.02336 0.51161 0.23498 0.0
H1290 H 0.93562 0.51989 0.20796 0.0
C1291 C 0.03399 0.49142 0.21543 0.0
H1292 H 0.97748 0.53587 0.24684 0.0
C1293 C 0.00961 0.48176 0.19323 0.0
C1294 C 0.97401 0.49207 0.19004 0.0
H1295 H 0.06202 0.48413 0.21702 0.0
H1296 H 0.01882 0.46637 0.1785 0.0
C1297 C 0.96262 0.51124 0.20982 0.0
C1298 C 0.45196 0.49271 0.21578 0.0
C1299 C 0.48371 0.51435 0.23496 0.0
H1300 H 0.44141 0.46682 0.17889 0.0
C1301 C 0.53052 0.52665 0.23105 0.0
H1302 H 0.41573 0.48312 0.21811 0.0
C1303 C 0.54522 0.51753 0.20862 0.0
C1304 C 0.51358 0.49593 0.1894 0.0
H1305 H 0.55585 0.54297 0.24547 0.0
H1306 H 0.58161 0.52774 0.20627 0.0
C1307 C 0.46677 0.48382 0.19321 0.0
C1308 C 0.01319 0.51621 0.81366 0.0
C1309 C 0.97276 0.47457 0.81054 0.0
H1310 H 0.06979 0.55789 0.83738 0.0
C1311 C 0.95789 0.44279 0.82983 0.0
H1312 H 0.02562 0.54117 0.79901 0.0
C1313 C 0.98307 0.45234 0.85173 0.0
C1314 C 0.02392 0.4937 0.85472 0.0
H1315 H 0.92671 0.41052 0.82798 0.0
H1316 H 0.97097 0.42706 0.8662 0.0
C1317 C 0.03869 0.52558 0.83548 0.0
C1318 C 0.53775 0.52829 0.80871 0.0
C1319 C 0.53527 0.48688 0.80508 0.0
H1320 H 0.52575 0.56994 0.83335 0.0
C1321 C 0.5193 0.45562 0.82471 0.0
H1322 H 0.54959 0.55299 0.79394 0.0
C1323 C 0.5055 0.46528 0.84729 0.0
C1324 C 0.50701 0.50631 0.85072 0.0
H1325 H 0.51744 0.42359 0.82259 0.0
H1326 H 0.49255 0.44015 0.86185 0.0
C1327 C 0.52368 0.53783 0.83122 0.0
C1328 C 0.55657 0.0572 0.82442 0.0
C1329 C 0.52448 0.04676 0.80513 0.0
H1330 H 0.56847 0.04231 0.86148 0.0
C1331 C 0.47837 0.01236 0.8093 0.0
H1332 H 0.59227 0.08368 0.82199 0.0
C1333 C 0.46478 0.98892 0.83185 0.0
C1334 C 0.49676 -0.00103 0.85109 0.0
H1335 H 0.45269 0.00286 0.79491 0.0
H1336 H 0.42893 0.96269 0.83418 0.0
C1337 C 0.54281 0.03381 0.84717 0.0
C1338 C 0.12104 0.27144 0.55083 0.0
C1339 C 0.15338 0.28267 0.57007 0.0
H1340 H 0.1083 0.28573 0.51382 0.0
C1341 C 0.19912 0.31774 0.56581 0.0
H1342 H 0.08561 0.24443 0.55332 0.0
C1343 C 0.2121 0.3411 0.54324 0.0
C1344 C 0.17983 0.33033 0.52407 0.0
H1345 H 0.22496 0.32787 0.58016 0.0
H1346 H 0.24768 0.36787 0.54084 0.0
C1347 C 0.13418 0.2948 0.52807 0.0
C1348 C 0.65608 0.8031 0.56544 0.0
C1349 C 0.69559 0.84548 0.56837 0.0
H1350 H 0.60081 0.75936 0.54152 0.0
C1351 C 0.70985 0.87663 0.54879 0.0
H1352 H 0.64422 0.77858 0.58031 0.0
C1353 C 0.68524 0.86566 0.52669 0.0
C1354 C 0.64558 0.82342 0.52376 0.0
H1355 H 0.74039 0.90942 0.55048 0.0
H1356 H 0.697 0.89043 0.51195 0.0
C1357 C 0.63109 0.79228 0.54338 0.0
C1358 C 0.16315 0.88022 0.54835 0.0
C1359 C 0.14818 0.84954 0.56825 0.0
H1360 H 0.18889 0.89489 0.51097 0.0
C1361 C 0.14643 0.80839 0.56489 0.0
H1362 H 0.16448 0.91204 0.55025 0.0
C1363 C 0.16024 0.79853 0.5424 0.0
C1364 C 0.17596 0.82947 0.52264 0.0
H1365 H 0.13543 0.78415 0.57987 0.0
H1366 H 0.15875 0.76663 0.54052 0.0
C1367 C 0.1767 0.87022 0.52577 0.0
C1368 C 0.68044 0.85713 0.14552 0.0
C1369 C 0.64134 0.81449 0.14256 0.0
H1370 H 0.73629 0.90087 0.16912 0.0
C1371 C 0.6282 0.78292 0.16185 0.0
H1372 H 0.69147 0.88196 0.13084 0.0
C1373 C 0.65363 0.79373 0.18368 0.0
C1374 C 0.69302 0.83618 0.18657 0.0
H1375 H 0.59805 0.74988 0.16009 0.0
H1376 H 0.6428 0.76867 0.19822 0.0
C1377 C 0.70627 0.86778 0.16727 0.0
C1378 C 0.22495 0.83575 0.15711 0.0
C1379 C 0.19248 0.81408 0.13824 0.0
H1380 H 0.23677 0.86196 0.19397 0.0
C1381 C 0.14587 0.80207 0.14257 0.0
H1382 H 0.26105 0.84515 0.1544 0.0
C1383 C 0.13204 0.81162 0.16512 0.0
C1384 C 0.16438 0.83329 0.18401 0.0
H1385 H 0.12006 0.78571 0.12837 0.0
H1386 H 0.09581 0.80177 0.16781 0.0
C1387 C 0.21098 0.84499 0.17983 0.0
C1388 C 0.18156 0.39611 0.15786 0.0
C1389 C 0.20043 0.38315 0.1383 0.0
H1390 H 0.15386 0.38287 0.19499 0.0
C1391 C 0.2073 0.34658 0.14217 0.0
H1392 H 0.17613 0.42434 0.1556 0.0
C1393 C 0.19439 0.3228 0.16465 0.0
C1394 C 0.17465 0.33512 0.18403 0.0
H1395 H 0.22137 0.33539 0.12752 0.0
H1396 H 0.19949 0.29435 0.16678 0.0
C1397 C 0.16916 0.3726 0.18051 0.0
C1398 C 0.86967 0.64999 0.89991 0.0
C1399 C 0.82352 0.61581 0.90421 0.0
H1400 H 0.91903 0.6993 0.87485 0.0
C1401 C 0.79131 0.60525 0.88498 0.0
H1402 H 0.89545 0.65956 0.91426 0.0
C1403 C 0.80496 0.6284 0.86216 0.0
C1404 C 0.85103 0.66308 0.85813 0.0
H1405 H 0.75556 0.57892 0.88752 0.0
H1406 H 0.7792 0.61988 0.84791 0.0
C1407 C 0.88316 0.67317 0.87729 0.0
C1408 C 0.32427 0.14375 0.89702 0.0
C1409 C 0.36512 0.18521 0.89971 0.0
H1410 H 0.26807 0.10105 0.87335 0.0
C1411 C 0.38073 0.21585 0.87983 0.0
H1412 H 0.31125 0.11964 0.91211 0.0
C1413 C 0.35607 0.20527 0.85773 0.0
C1414 C 0.31506 0.16394 0.85506 0.0
H1415 H 0.4123 0.24792 0.8813 0.0
H1416 H 0.36887 0.22968 0.84279 0.0
C1417 C 0.29934 0.13331 0.87496 0.0
C1418 C 0.82506 0.21109 0.88212 0.0
C1419 C 0.80887 0.17962 0.90165 0.0
H1420 H 0.85277 0.22712 0.84514 0.0
C1421 C 0.80667 0.13835 0.89796 0.0
H1422 H 0.82676 0.24303 0.88428 0.0
C1423 C 0.82147 0.12922 0.87556 0.0
C1424 C 0.83858 0.16102 0.85621 0.0
H1425 H 0.79471 0.11351 0.91267 0.0
H1426 H 0.81977 0.09727 0.87343 0.0
C1427 C 0.83956 0.20182 0.85962 0.0
C1428 C 0.35461 0.1915 0.47746 0.0
C1429 C 0.31551 0.14897 0.47414 0.0
H1430 H 0.40942 0.23494 0.50168 0.0
C1431 C 0.30152 0.11725 0.49342 0.0
H1432 H 0.36633 0.21649 0.46285 0.0
C1433 C 0.32606 0.12774 0.51554 0.0
C1434 C 0.36535 0.17011 0.51884 0.0
H1435 H 0.27128 0.08432 0.49147 0.0
H1436 H 0.31456 0.10245 0.52999 0.0
C1437 C 0.37947 0.20189 0.49956 0.0
C1438 C 0.86529 0.19082 0.47612 0.0
C1439 C 0.86411 0.1499 0.47291 0.0
H1440 H 0.85195 0.2322 0.50029 0.0
C1441 C 0.84885 0.11916 0.49279 0.0
H1442 H 0.87655 0.2151 0.46114 0.0
C1443 C 0.83468 0.12894 0.51523 0.0
C1444 C 0.83504 0.16952 0.51827 0.0
H1445 H 0.84794 0.08751 0.491 0.0
H1446 H 0.82246 0.10428 0.53004 0.0
C1447 C 0.85079 0.20044 0.49848 0.0
C1448 C 0.81497 0.67959 0.47638 0.0
C1449 C 0.86067 0.7146 0.4719 0.0
H1450 H 0.76685 0.62952 0.50153 0.0
C1451 C 0.89338 0.72576 0.49093 0.0
H1452 H 0.78884 0.66952 0.46219 0.0
C1453 C 0.88066 0.70242 0.51371 0.0
C1454 C 0.83505 0.66696 0.51792 0.0
H1455 H 0.92879 0.75271 0.48827 0.0
H1456 H 0.90682 0.71146 0.52779 0.0
C1457 C 0.80241 0.65624 0.49896 0.0
loop_
_geom_bond_atom_site_label_1
_geom_bond_atom_site_label_2
_geom_bond_distance
_geom_bond_site_symmetry_2
_ccdc_geom_bond_type
H0 C3 0.931 . S
H1 C6 0.928 . S
H2 C8 0.930 . S
C3 H0 0.931 . S
C3 C4 1.413 . S
C3 C5 1.360 . S
C4 C3 1.413 . S
C4 C8 1.429 . S
C5 C3 1.360 . S
C5 C6 1.372 . S
C6 H1 0.928 . S
C6 C5 1.372 . S
C6 C7 1.404 . S
C7 C6 1.404 . S
C7 C8 1.391 . S
C8 H2 0.930 . S
C8 C4 1.429 . S
C8 C7 1.391 . S
H9 C12 0.931 . S
H10 C15 0.928 . S
H11 C17 0.930 . S
C12 H9 0.931 . S
C12 C13 1.413 . S
C12 C14 1.360 . S
C13 C12 1.413 . S
C13 C17 1.429 . S
C14 C12 1.360 . S
C14 C15 1.372 . S
C15 H10 0.928 . S
C15 C14 1.372 . S
C15 C16 1.404 . S
C16 C15 1.404 . S
C16 C17 1.391 . S
C17 H11 0.930 . S
C17 C13 1.429 . S
C17 C16 1.391 . S
H18 C21 0.931 . S
H19 C24 0.928 . S
H20 C26 0.930 . S
C21 H18 0.931 . S
C21 C22 1.413 . S
C21 C23 1.360 . S
C22 C21 1.413 . S
C22 C26 1.429 . S
C23 C21 1.360 . S
C23 C24 1.372 . S
C24 H19 0.928 . S
C24 C23 1.372 . S
C24 C25 1.404 . S
C25 C24 1.404 . S
C25 C26 1.391 . S
C26 H20 0.930 . S
C26 C22 1.429 . S
C26 C25 1.391 . S
H27 C30 0.931 . S
H28 C33 0.928 . S
H29 C35 0.930 . S
C30 H27 0.931 . S
C30 C31 1.413 . S
C30 C32 1.360 . S
C31 C30 1.413 . S
C31 C35 1.429 . S
C32 C30 1.360 . S
C32 C33 1.372 . S
C33 H28 0.928 . S
C33 C32 1.372 . S
C33 C34 1.404 . S
C34 C33 1.404 . S
C34 C35 1.391 . S
C35 H29 0.930 . S
C35 C31 1.429 . S
C35 C34 1.391 . S
H36 C39 0.931 . S
H37 C42 0.928 . S
H38 C44 0.930 . S
C39 H36 0.931 . S
C39 C40 1.413 . S
C39 C41 1.360 . S
C40 C39 1.413 . S
C40 C44 1.429 . S
C41 C39 1.360 . S
C41 C42 1.372 . S
C42 H37 0.928 . S
C42 C41 1.372 . S
C42 C43 1.404 . S
C43 C42 1.404 . S
C43 C44 1.391 . S
C44 H38 0.930 . S
C44 C40 1.429 . S
C44 C43 1.391 . S
H45 C48 0.931 . S
H46 C51 0.928 . S
H47 C53 0.930 . S
C48 H45 0.931 . S
C48 C49 1.413 . S
C48 C50 1.360 . S
C49 C48 1.413 . S
C49 C53 1.429 . S
C50 C48 1.360 . S
C50 C51 1.372 . S
C51 H46 0.928 . S
C51 C50 1.372 . S
C51 C52 1.404 . S
C52 C51 1.404 . S
C52 C53 1.391 . S
C53 H47 0.930 . S
C53 C49 1.429 . S
C53 C52 1.391 . S
H54 C57 0.931 . S
H55 C60 0.928 . S
H56 C62 0.930 . S
C57 H54 0.931 . S
C57 C58 1.413 . S
C57 C59 1.360 . S
C58 C57 1.413 . S
C58 C62 1.429 . S
C59 C57 1.360 . S
C59 C60 1.372 . S
C60 H55 0.928 . S
C60 C59 1.372 . S
C60 C61 1.404 . S
C61 C60 1.404 . S
C61 C62 1.391 . S
C62 H56 0.930 . S
C62 C58 1.429 . S
C62 C61 1.391 . S
H63 C66 0.931 . S
H64 C69 0.928 . S
H65 C71 0.930 . S
C66 H63 0.931 . S
C66 C67 1.413 . S
C66 C68 1.360 . S
C67 C66 1.413 . S
C67 C71 1.429 . S
C68 C66 1.360 . S
C68 C69 1.372 . S
C69 H64 0.928 . S
C69 C68 1.372 . S
C69 C70 1.404 . S
C70 C69 1.404 . S
C70 C71 1.391 . S
C71 H65 0.930 . S
C71 C67 1.429 . S
C71 C70 1.391 . S
H72 C75 0.931 . S
H73 C78 0.928 . S
H74 C80 0.930 . S
C75 H72 0.931 . S
C75 C76 1.413 . S
C75 C77 1.360 . S
C76 C75 1.413 . S
C76 C80 1.429 . S
C77 C75 1.360 . S
C77 C78 1.372 . S
C78 H73 0.928 . S
C78 C77 1.372 . S
C78 C79 1.404 . S
C79 C78 1.404 . S
C79 C80 1.391 . S
C80 H74 0.930 . S
C80 C76 1.429 . S
C80 C79 1.391 . S
H81 C84 0.931 . S
H82 C87 0.928 . S
H83 C89 0.930 . S
C84 H81 0.931 . S
C84 C85 1.413 . S
C84 C86 1.360 . S
C85 C84 1.413 . S
C85 C89 1.429 . S
C86 C84 1.360 . S
C86 C87 1.372 . S
C87 H82 0.928 . S
C87 C86 1.372 . S
C87 C88 1.404 . S
C88 C87 1.404 . S
C88 C89 1.391 . S
C89 H83 0.930 . S
C89 C85 1.429 . S
C89 C88 1.391 . S
H90 C93 0.931 . S
H91 C96 0.928 . S
H92 C98 0.930 . S
C93 H90 0.931 . S
C93 C94 1.413 . S
C93 C95 1.360 . S
C94 C93 1.413 . S
C94 C98 1.429 . S
C95 C93 1.360 . S
C95 C96 1.372 . S
C96 H91 0.928 . S
C96 C95 1.372 . S
C96 C97 1.404 . S
C97 C96 1.404 . S
C97 C98 1.391 . S
C98 H92 0.930 . S
C98 C94 1.429 . S
C98 C97 1.391 . S
H99 C102 0.931 . S
H100 C105 0.928 . S
H101 C107 0.930 . S
C102 H99 0.931 . S
C102 C103 1.413 . S
C102 C104 1.360 . S
C103 C102 1.413 . S
C103 C107 1.429 . S
C104 C102 1.360 . S
C104 C105 1.372 . S
C105 H100 0.928 . S
C105 C104 1.372 . S
C105 C106 1.404 . S
C106 C105 1.404 . S
C106 C107 1.391 . S
C107 H101 0.930 . S
C107 C103 1.429 . S
C107 C106 1.391 . S
H108 C111 0.931 . S
H109 C114 0.928 . S
H110 C116 0.930 . S
C111 H108 0.931 . S
C111 C112 1.413 . S
C111 C113 1.360 . S
C112 C111 1.413 . S
C112 C116 1.429 . S
C113 C111 1.360 . S
C113 C114 1.372 . S
C114 H109 0.928 . S
C114 C113 1.372 . S
C114 C115 1.404 . S
C115 C114 1.404 . S
C115 C116 1.391 . S
C116 H110 0.930 . S
C116 C112 1.429 . S
C116 C115 1.391 . S
H117 C120 0.931 . S
H118 C123 0.928 . S
H119 C125 0.930 . S
C120 H117 0.931 . S
C120 C121 1.413 . S
C120 C122 1.360 . S
C121 C120 1.413 . S
C121 C125 1.429 . S
C122 C120 1.360 . S
C122 C123 1.372 . S
C123 H118 0.928 . S
C123 C122 1.372 . S
C123 C124 1.404 . S
C124 C123 1.404 . S
C124 C125 1.391 . S
C125 H119 0.930 . S
C125 C121 1.429 . S
C125 C124 1.391 . S
H126 C129 0.931 . S
H127 C132 0.928 . S
H128 C134 0.930 . S
C129 H126 0.931 . S
C129 C130 1.413 . S
C129 C131 1.360 . S
C130 C129 1.413 . S
C130 C134 1.429 . S
C131 C129 1.360 . S
C131 C132 1.372 . S
C132 H127 0.928 . S
C132 C131 1.372 . S
C132 C133 1.404 . S
C133 C132 1.404 . S
C133 C134 1.391 . S
C134 H128 0.930 . S
C134 C130 1.429 . S
C134 C133 1.391 . S
H135 C138 0.931 . S
H136 C141 0.928 . S
H137 C143 0.930 . S
C138 H135 0.931 . S
C138 C139 1.413 . S
C138 C140 1.360 . S
C139 C138 1.413 . S
C139 C143 1.429 . S
C140 C138 1.360 . S
C140 C141 1.372 . S
C141 H136 0.928 . S
C141 C140 1.372 . S
C141 C142 1.404 . S
C142 C141 1.404 . S
C142 C143 1.391 . S
C143 H137 0.930 . S
C143 C139 1.429 . S
C143 C142 1.391 . S
H144 C147 0.931 . S
H145 C150 0.928 . S
H146 C152 0.930 . S
C147 H144 0.931 . S
C147 C148 1.413 . S
C147 C149 1.360 . S
C148 C147 1.413 . S
C148 C152 1.429 . S
C149 C147 1.360 . S
C149 C150 1.372 . S
C150 H145 0.928 . S
C150 C149 1.372 . S
C150 C151 1.404 . S
C151 C150 1.404 . S
C151 C152 1.391 . S
C152 H146 0.930 . S
C152 C148 1.429 . S
C152 C151 1.391 . S
H153 C156 0.931 . S
H154 C159 0.928 . S
H155 C161 0.930 . S
C156 H153 0.931 . S
C156 C157 1.413 . S
C156 C158 1.360 . S
C157 C156 1.413 . S
C157 C161 1.429 . S
C158 C156 1.360 . S
C158 C159 1.372 . S
C159 H154 0.928 . S
C159 C158 1.372 . S
C159 C160 1.404 . S
C160 C159 1.404 . S
C160 C161 1.391 . S
C161 H155 0.930 . S
C161 C157 1.429 . S
C161 C160 1.391 . S
Eu162 N193 2.657 . S
Eu162 N200 2.609 . S
Eu162 O206 2.558 . S
Eu162 O207 2.612 1_565 S
Eu162 O209 2.339 1_565 S
Eu162 O210 2.563 1_565 S
Eu162 O211 2.419 . S
Eu162 O213 2.380 1_556 S
Eu162 O214 2.432 . S
Eu162 C226 2.848 . S
C163 C166 1.429 . S
C163 C167 1.411 . S
C163 N170 1.377 . S
C164 C166 1.420 . S
C164 C168 1.423 . S
C164 C176 1.392 . S
C165 C167 1.420 . S
C165 C168 1.351 . S
C165 H188 0.931 . S
C166 C163 1.429 . S
C166 C164 1.420 . S
C166 N174 1.362 . S
C167 C163 1.411 . S
C167 C165 1.420 . S
C167 C172 1.395 . S
C168 C164 1.423 . S
C168 C165 1.351 . S
C168 H180 0.930 . S
C169 C171 1.400 . S
C169 C172 1.386 . S
C169 H181 0.930 . S
N170 C163 1.377 . S
N170 C171 1.321 . S
N170 Eu173 2.609 . S
C171 C169 1.400 . S
C171 N170 1.321 . S
C171 H178 0.930 . S
C172 C167 1.395 . S
C172 C169 1.386 . S
C172 H191 0.930 . S
Eu173 N170 2.609 . S
Eu173 N174 2.657 . S
Eu173 O207 2.380 1_554 S
Eu173 O208 2.432 . S
Eu173 O212 2.558 . S
Eu173 O213 2.612 1_545 S
Eu173 O215 2.339 1_545 S
Eu173 O216 2.563 1_545 S
Eu173 O217 2.419 . S
Eu173 C237 2.848 . S
N174 C166 1.362 . S
N174 Eu173 2.657 . S
N174 C175 1.334 . S
C175 N174 1.334 . S
C175 C177 1.413 . S
C175 H182 0.929 . S
C176 C164 1.392 . S
C176 C177 1.367 . S
C176 H184 0.930 . S
C177 C175 1.413 . S
C177 C176 1.367 . S
C177 H179 0.930 . S
H178 C171 0.930 . S
H179 C177 0.930 . S
H180 C168 0.930 . S
H181 C169 0.930 . S
H182 C175 0.929 . S
H183 C197 0.930 . S
H184 C176 0.930 . S
H185 C203 0.930 . S
H186 C194 0.929 . S
H187 C201 0.930 . S
H188 C165 0.931 . S
H189 C195 0.930 . S
H190 C228 0.930 . S
H191 C172 0.930 . S
H192 C227 0.931 . S
N193 Eu162 2.657 . S
N193 C194 1.334 . S
N193 C198 1.362 . S
C194 H186 0.929 . S
C194 N193 1.334 . S
C194 C197 1.413 . S
C195 H189 0.930 . S
C195 C196 1.392 . S
C195 C197 1.367 . S
C196 C195 1.392 . S
C196 C198 1.420 . S
C196 C228 1.423 . S
C197 H183 0.930 . S
C197 C194 1.413 . S
C197 C195 1.367 . S
C198 N193 1.362 . S
C198 C196 1.420 . S
C198 C202 1.429 . S
H199 C204 0.930 . S
N200 Eu162 2.609 . S
N200 C202 1.377 . S
N200 C203 1.321 . S
C201 H187 0.930 . S
C201 C203 1.400 . S
C201 C204 1.386 . S
C202 C198 1.429 . S
C202 N200 1.377 . S
C202 C205 1.411 . S
C203 H185 0.930 . S
C203 N200 1.321 . S
C203 C201 1.400 . S
C204 H199 0.930 . S
C204 C201 1.386 . S
C204 C205 1.395 . S
C205 C202 1.411 . S
C205 C204 1.395 . S
C205 C227 1.420 . S
O206 Eu162 2.558 . S
O206 C226 1.257 . S
O207 Eu162 2.612 1_545 S
O207 Eu173 2.380 1_556 S
O207 C218 1.276 . S
O208 Eu173 2.432 . S
O208 C225 1.264 1_554 S
O209 Eu162 2.339 1_545 S
O209 C225 1.254 . S
O210 Eu162 2.563 1_545 S
O210 C218 1.235 . S
O211 Eu162 2.419 . S
O211 C226 1.249 . S
O212 Eu173 2.558 . S
O212 C237 1.257 . S
O213 Eu162 2.380 1_554 S
O213 Eu173 2.612 1_565 S
O213 C229 1.276 . S
O214 Eu162 2.432 . S
O214 C236 1.264 1_556 S
O215 Eu173 2.339 1_565 S
O215 C236 1.254 . S
O216 Eu173 2.563 1_565 S
O216 C229 1.235 . S
O217 Eu173 2.419 . S
O217 C237 1.249 . S
C218 O207 1.276 . S
C218 O210 1.235 . S
C219 C221 1.393 1_565 S
C219 C223 1.395 . S
C219 C226 1.492 . S
C220 C221 1.392 . S
C220 C222 1.386 1_545 S
C221 C219 1.393 1_545 S
C221 C220 1.392 . S
C221 H238 0.930 . S
C222 C220 1.386 1_565 S
C222 C224 1.395 . S
C222 H239 0.930 . S
C223 C219 1.395 . S
C223 C224 1.379 . S
C223 H240 0.930 . S
C224 C222 1.395 . S
C224 C223 1.379 . S
C224 H241 0.930 . S
C225 O208 1.264 1_556 S
C225 O209 1.254 . S
C226 Eu162 2.848 . S
C226 O206 1.257 . S
C226 O211 1.249 . S
C226 C219 1.492 . S
C227 H192 0.931 . S
C227 C205 1.420 . S
C227 C228 1.351 . S
C228 H190 0.930 . S
C228 C196 1.423 . S
C228 C227 1.351 . S
C229 O213 1.276 . S
C229 O216 1.235 . S
C230 C231 1.393 1_545 S
C230 C234 1.395 . S
C230 C237 1.492 . S
C231 C230 1.393 1_565 S
C231 C232 1.392 . S
C231 H242 0.930 . S
C232 C231 1.392 . S
C232 C233 1.386 1_565 S
C233 C232 1.386 1_545 S
C233 C235 1.395 . S
C233 H243 0.930 . S
C234 C230 1.395 . S
C234 C235 1.379 . S
C234 H244 0.930 . S
C235 C233 1.395 . S
C235 C234 1.379 . S
C235 H245 0.930 . S
C236 O214 1.264 1_554 S
C236 O215 1.254 . S
C237 Eu173 2.848 . S
C237 O212 1.257 . S
C237 O217 1.249 . S
C237 C230 1.492 . S
H238 C221 0.930 . S
H239 C222 0.930 . S
H240 C223 0.930 . S
H241 C224 0.930 . S
H242 C231 0.930 . S
H243 C233 0.930 . S
H244 C234 0.930 . S
H245 C235 0.930 . S
Eu246 N277 2.657 . S
Eu246 N284 2.609 . S
Eu246 O290 2.558 . S
Eu246 O291 2.612 1_455 S
Eu246 O293 2.339 1_455 S
Eu246 O294 2.563 1_455 S
Eu246 O295 2.419 . S
Eu246 O297 2.380 1_556 S
Eu246 O298 2.432 . S
Eu246 C310 2.848 . S
C247 C250 1.429 . S
C247 C251 1.411 . S
C247 N254 1.377 . S
C248 C250 1.420 . S
C248 C252 1.423 . S
C248 C260 1.392 . S
C249 C251 1.420 . S
C249 C252 1.351 . S
C249 H272 0.931 . S
C250 C247 1.429 . S
C250 C248 1.420 . S
C250 N258 1.362 . S
C251 C247 1.411 . S
C251 C249 1.420 . S
C251 C256 1.395 . S
C252 C248 1.423 . S
C252 C249 1.351 . S
C252 H264 0.930 . S
C253 C255 1.400 . S
C253 C256 1.386 . S
C253 H265 0.930 . S
N254 C247 1.377 . S
N254 C255 1.321 . S
N254 Eu257 2.609 . S
C255 C253 1.400 . S
C255 N254 1.321 . S
C255 H262 0.930 . S
C256 C251 1.395 . S
C256 C253 1.386 . S
C256 H275 0.930 . S
Eu257 N254 2.609 . S
Eu257 N258 2.657 . S
Eu257 O291 2.380 1_554 S
Eu257 O292 2.432 . S
Eu257 O296 2.558 . S
Eu257 O297 2.612 1_655 S
Eu257 O299 2.339 1_655 S
Eu257 O300 2.563 1_655 S
Eu257 O301 2.419 . S
Eu257 C321 2.848 . S
N258 C250 1.362 . S
N258 Eu257 2.657 . S
N258 C259 1.334 . S
C259 N258 1.334 . S
C259 C261 1.413 . S
C259 H266 0.929 . S
C260 C248 1.392 . S
C260 C261 1.367 . S
C260 H268 0.930 . S
C261 C259 1.413 . S
C261 C260 1.367 . S
C261 H263 0.930 . S
H262 C255 0.930 . S
H263 C261 0.930 . S
H264 C252 0.930 . S
H265 C253 0.930 . S
H266 C259 0.929 . S
H267 C281 0.930 . S
H268 C260 0.930 . S
H269 C287 0.930 . S
H270 C278 0.929 . S
H271 C285 0.930 . S
H272 C249 0.931 . S
H273 C279 0.930 . S
H274 C312 0.930 . S
H275 C256 0.930 . S
H276 C311 0.931 . S
N277 Eu246 2.657 . S
N277 C278 1.334 . S
N277 C282 1.362 . S
C278 H270 0.929 . S
C278 N277 1.334 . S
C278 C281 1.413 . S
C279 H273 0.930 . S
C279 C280 1.392 . S
C279 C281 1.367 . S
C280 C279 1.392 . S
C280 C282 1.420 . S
C280 C312 1.423 . S
C281 H267 0.930 . S
C281 C278 1.413 . S
C281 C279 1.367 . S
C282 N277 1.362 . S
C282 C280 1.420 . S
C282 C286 1.429 . S
H283 C288 0.930 . S
N284 Eu246 2.609 . S
N284 C286 1.377 . S
N284 C287 1.321 . S
C285 H271 0.930 . S
C285 C287 1.400 . S
C285 C288 1.386 . S
C286 C282 1.429 . S
C286 N284 1.377 . S
C286 C289 1.411 . S
C287 H269 0.930 . S
C287 N284 1.321 . S
C287 C285 1.400 . S
C288 H283 0.930 . S
C288 C285 1.386 . S
C288 C289 1.395 . S
C289 C286 1.411 . S
C289 C288 1.395 . S
C289 C311 1.420 . S
O290 Eu246 2.558 . S
O290 C310 1.257 . S
O291 Eu246 2.612 1_655 S
O291 Eu257 2.380 1_556 S
O291 C302 1.276 . S
O292 Eu257 2.432 . S
O292 C309 1.264 1_554 S
O293 Eu246 2.339 1_655 S
O293 C309 1.254 . S
O294 Eu246 2.563 1_655 S
O294 C302 1.235 . S
O295 Eu246 2.419 . S
O295 C310 1.249 . S
O296 Eu257 2.558 . S
O296 C321 1.257 . S
O297 Eu246 2.380 1_554 S
O297 Eu257 2.612 1_455 S
O297 C313 1.276 . S
O298 Eu246 2.432 . S
O298 C320 1.264 1_556 S
O299 Eu257 2.339 1_455 S
O299 C320 1.254 . S
O300 Eu257 2.563 1_455 S
O300 C313 1.235 . S
O301 Eu257 2.419 . S
O301 C321 1.249 . S
C302 O291 1.276 . S
C302 O294 1.235 . S
C303 C305 1.393 1_455 S
C303 C307 1.395 . S
C303 C310 1.492 . S
C304 C305 1.392 . S
C304 C306 1.386 1_655 S
C305 C303 1.393 1_655 S
C305 C304 1.392 . S
C305 H322 0.930 . S
C306 C304 1.386 1_455 S
C306 C308 1.395 . S
C306 H323 0.930 . S
C307 C303 1.395 . S
C307 C308 1.379 . S
C307 H324 0.930 . S
C308 C306 1.395 . S
C308 C307 1.379 . S
C308 H325 0.930 . S
C309 O292 1.264 1_556 S
C309 O293 1.254 . S
C310 Eu246 2.848 . S
C310 O290 1.257 . S
C310 O295 1.249 . S
C310 C303 1.492 . S
C311 H276 0.931 . S
C311 C289 1.420 . S
C311 C312 1.351 . S
C312 H274 0.930 . S
C312 C280 1.423 . S
C312 C311 1.351 . S
C313 O297 1.276 . S
C313 O300 1.235 . S
C314 C315 1.393 1_655 S
C314 C318 1.395 . S
C314 C321 1.492 . S
C315 C314 1.393 1_455 S
C315 C316 1.392 . S
C315 H326 0.930 . S
C316 C315 1.392 . S
C316 C317 1.386 1_455 S
C317 C316 1.386 1_655 S
C317 C319 1.395 . S
C317 H327 0.930 . S
C318 C314 1.395 . S
C318 C319 1.379 . S
C318 H328 0.930 . S
C319 C317 1.395 . S
C319 C318 1.379 . S
C319 H329 0.930 . S
C320 O298 1.264 1_554 S
C320 O299 1.254 . S
C321 Eu257 2.848 . S
C321 O296 1.257 . S
C321 O301 1.249 . S
C321 C314 1.492 . S
H322 C305 0.930 . S
H323 C306 0.930 . S
H324 C307 0.930 . S
H325 C308 0.930 . S
H326 C315 0.930 . S
H327 C317 0.930 . S
H328 C318 0.930 . S
H329 C319 0.930 . S
Eu330 N361 2.657 . S
Eu330 N368 2.609 . S
Eu330 O374 2.558 . S
Eu330 O375 2.612 . S
Eu330 O377 2.339 . S
Eu330 O378 2.563 . S
Eu330 O379 2.419 . S
Eu330 O381 2.380 1_554 S
Eu330 O382 2.432 . S
Eu330 C394 2.848 . S
C331 C334 1.429 . S
C331 C335 1.411 . S
C331 N338 1.377 . S
C332 C334 1.420 . S
C332 C336 1.423 . S
C332 C344 1.392 . S
C333 C335 1.420 . S
C333 C336 1.351 . S
C333 H356 0.931 . S
C334 C331 1.429 . S
C334 C332 1.420 . S
C334 N342 1.362 . S
C335 C331 1.411 . S
C335 C333 1.420 . S
C335 C340 1.395 . S
C336 C332 1.423 . S
C336 C333 1.351 . S
C336 H348 0.930 . S
C337 C339 1.400 . S
C337 C340 1.386 . S
C337 H349 0.930 . S
N338 C331 1.377 . S
N338 C339 1.321 . S
N338 Eu341 2.609 . S
C339 C337 1.400 . S
C339 N338 1.321 . S
C339 H346 0.930 . S
C340 C335 1.395 . S
C340 C337 1.386 . S
C340 H359 0.930 . S
Eu341 N338 2.609 . S
Eu341 N342 2.657 . S
Eu341 O375 2.380 1_556 S
Eu341 O376 2.432 . S
Eu341 O380 2.558 . S
Eu341 O381 2.612 . S
Eu341 O383 2.339 . S
Eu341 O384 2.563 . S
Eu341 O385 2.419 . S
Eu341 C405 2.848 . S
N342 C334 1.362 . S
N342 Eu341 2.657 . S
N342 C343 1.334 . S
C343 N342 1.334 . S
C343 C345 1.413 . S
C343 H350 0.929 . S
C344 C332 1.392 . S
C344 C345 1.367 . S
C344 H352 0.930 . S
C345 C343 1.413 . S
C345 C344 1.367 . S
C345 H347 0.930 . S
H346 C339 0.930 . S
H347 C345 0.930 . S
H348 C336 0.930 . S
H349 C337 0.930 . S
H350 C343 0.929 . S
H351 C365 0.930 . S
H352 C344 0.930 . S
H353 C371 0.930 . S
H354 C362 0.929 . S
H355 C369 0.930 . S
H356 C333 0.931 . S
H357 C363 0.930 . S
H358 C396 0.930 . S
H359 C340 0.930 . S
H360 C395 0.931 . S
N361 Eu330 2.657 . S
N361 C362 1.334 . S
N361 C366 1.362 . S
C362 H354 0.929 . S
C362 N361 1.334 . S
C362 C365 1.413 . S
C363 H357 0.930 . S
C363 C364 1.392 . S
C363 C365 1.367 . S
C364 C363 1.392 . S
C364 C366 1.420 . S
C364 C396 1.423 . S
C365 H351 0.930 . S
C365 C362 1.413 . S
C365 C363 1.367 . S
C366 N361 1.362 . S
C366 C364 1.420 . S
C366 C370 1.429 . S
H367 C372 0.930 . S
N368 Eu330 2.609 . S
N368 C370 1.377 . S
N368 C371 1.321 . S
C369 H355 0.930 . S
C369 C371 1.400 . S
C369 C372 1.386 . S
C370 C366 1.429 . S
C370 N368 1.377 . S
C370 C373 1.411 . S
C371 H353 0.930 . S
C371 N368 1.321 . S
C371 C369 1.400 . S
C372 H367 0.930 . S
C372 C369 1.386 . S
C372 C373 1.395 . S
C373 C370 1.411 . S
C373 C372 1.395 . S
C373 C395 1.420 . S
O374 Eu330 2.558 . S
O374 C394 1.257 . S
O375 Eu330 2.612 . S
O375 Eu341 2.380 1_554 S
O375 C386 1.276 . S
O376 Eu341 2.432 . S
O376 C393 1.264 1_556 S
O377 Eu330 2.339 . S
O377 C393 1.254 . S
O378 Eu330 2.563 . S
O378 C386 1.235 . S
O379 Eu330 2.419 . S
O379 C394 1.249 . S
O380 Eu341 2.558 . S
O380 C405 1.257 . S
O381 Eu330 2.380 1_556 S
O381 Eu341 2.612 . S
O381 C397 1.276 . S
O382 Eu330 2.432 . S
O382 C404 1.264 1_554 S
O383 Eu341 2.339 . S
O383 C404 1.254 . S
O384 Eu341 2.563 . S
O384 C397 1.235 . S
O385 Eu341 2.419 . S
O385 C405 1.249 . S
C386 O375 1.276 . S
C386 O378 1.235 . S
C387 C389 1.393 . S
C387 C391 1.395 . S
C387 C394 1.492 . S
C388 C389 1.392 . S
C388 C390 1.386 . S
C389 C387 1.393 . S
C389 C388 1.392 . S
C389 H406 0.930 . S
C390 C388 1.386 . S
C390 C392 1.395 . S
C390 H407 0.930 . S
C391 C387 1.395 . S
C391 C392 1.379 . S
C391 H408 0.930 . S
C392 C390 1.395 . S
C392 C391 1.379 . S
C392 H409 0.930 . S
C393 O376 1.264 1_554 S
C393 O377 1.254 . S
C394 Eu330 2.848 . S
C394 O374 1.257 . S
C394 O379 1.249 . S
C394 C387 1.492 . S
C395 H360 0.931 . S
C395 C373 1.420 . S
C395 C396 1.351 . S
C396 H358 0.930 . S
C396 C364 1.423 . S
C396 C395 1.351 . S
C397 O381 1.276 . S
C397 O384 1.235 . S
C398 C399 1.393 . S
C398 C402 1.395 . S
C398 C405 1.492 . S
C399 C398 1.393 . S
C399 C400 1.392 . S
C399 H410 0.930 . S
C400 C399 1.392 . S
C400 C401 1.386 . S
C401 C400 1.386 . S
C401 C403 1.395 . S
C401 H411 0.930 . S
C402 C398 1.395 . S
C402 C403 1.379 . S
C402 H412 0.930 . S
C403 C401 1.395 . S
C403 C402 1.379 . S
C403 H413 0.930 . S
C404 O382 1.264 1_556 S
C404 O383 1.254 . S
C405 Eu341 2.848 . S
C405 O380 1.257 . S
C405 O385 1.249 . S
C405 C398 1.492 . S
H406 C389 0.930 . S
H407 C390 0.930 . S
H408 C391 0.930 . S
H409 C392 0.930 . S
H410 C399 0.930 . S
H411 C401 0.930 . S
H412 C402 0.930 . S
H413 C403 0.930 . S
Eu414 N445 2.657 . S
Eu414 N452 2.609 . S
Eu414 O458 2.558 . S
Eu414 O459 2.612 . S
Eu414 O461 2.339 . S
Eu414 O462 2.563 . S
Eu414 O463 2.419 . S
Eu414 O465 2.380 . S
Eu414 O466 2.432 . S
Eu414 C478 2.848 . S
C415 C418 1.429 . S
C415 C419 1.411 . S
C415 N422 1.377 . S
C416 C418 1.420 . S
C416 C420 1.423 . S
C416 C428 1.392 . S
C417 C419 1.420 . S
C417 C420 1.351 . S
C417 H440 0.931 . S
C418 C415 1.429 . S
C418 C416 1.420 . S
C418 N426 1.362 . S
C419 C415 1.411 . S
C419 C417 1.420 . S
C419 C424 1.395 . S
C420 C416 1.423 . S
C420 C417 1.351 . S
C420 H432 0.930 . S
C421 C423 1.400 . S
C421 C424 1.386 . S
C421 H433 0.930 . S
N422 C415 1.377 . S
N422 C423 1.321 . S
N422 Eu425 2.609 . S
C423 C421 1.400 . S
C423 N422 1.321 . S
C423 H430 0.930 . S
C424 C419 1.395 . S
C424 C421 1.386 . S
C424 H443 0.930 . S
Eu425 N422 2.609 . S
Eu425 N426 2.657 . S
Eu425 O459 2.380 . S
Eu425 O460 2.432 . S
Eu425 O464 2.558 . S
Eu425 O465 2.612 . S
Eu425 O467 2.339 . S
Eu425 O468 2.563 . S
Eu425 O469 2.419 . S
Eu425 C489 2.848 . S
N426 C418 1.362 . S
N426 Eu425 2.657 . S
N426 C427 1.334 . S
C427 N426 1.334 . S
C427 C429 1.413 . S
C427 H434 0.929 . S
C428 C416 1.392 . S
C428 C429 1.367 . S
C428 H436 0.930 . S
C429 C427 1.413 . S
C429 C428 1.367 . S
C429 H431 0.930 . S
H430 C423 0.930 . S
H431 C429 0.930 . S
H432 C420 0.930 . S
H433 C421 0.930 . S
H434 C427 0.929 . S
H435 C449 0.930 . S
H436 C428 0.930 . S
H437 C455 0.930 . S
H438 C446 0.929 . S
H439 C453 0.930 . S
H440 C417 0.931 . S
H441 C447 0.930 . S
H442 C480 0.930 . S
H443 C424 0.930 . S
H444 C479 0.931 . S
N445 Eu414 2.657 . S
N445 C446 1.334 . S
N445 C450 1.362 . S
C446 H438 0.929 . S
C446 N445 1.334 . S
C446 C449 1.413 1_455 S
C447 H441 0.930 . S
C447 C448 1.392 . S
C447 C449 1.367 . S
C448 C447 1.392 . S
C448 C450 1.420 1_655 S
C448 C480 1.423 . S
C449 H435 0.930 . S
C449 C446 1.413 1_655 S
C449 C447 1.367 . S
C450 N445 1.362 . S
C450 C448 1.420 1_455 S
C450 C454 1.429 . S
H451 C456 0.930 . S
N452 Eu414 2.609 . S
N452 C454 1.377 . S
N452 C455 1.321 . S
C453 H439 0.930 . S
C453 C455 1.400 . S
C453 C456 1.386 . S
C454 C450 1.429 . S
C454 N452 1.377 . S
C454 C457 1.411 . S
C455 H437 0.930 . S
C455 N452 1.321 . S
C455 C453 1.400 . S
C456 H451 0.930 . S
C456 C453 1.386 . S
C456 C457 1.395 . S
C457 C454 1.411 . S
C457 C456 1.395 . S
C457 C479 1.420 1_455 S
O458 Eu414 2.558 . S
O458 C478 1.257 . S
O459 Eu414 2.612 . S
O459 Eu425 2.380 . S
O459 C470 1.276 . S
O460 Eu425 2.432 . S
O460 C477 1.264 . S
O461 Eu414 2.339 . S
O461 C477 1.254 . S
O462 Eu414 2.563 . S
O462 C470 1.235 . S
O463 Eu414 2.419 . S
O463 C478 1.249 . S
O464 Eu425 2.558 . S
O464 C489 1.257 . S
O465 Eu414 2.380 . S
O465 Eu425 2.612 . S
O465 C481 1.276 . S
O466 Eu414 2.432 . S
O466 C488 1.264 . S
O467 Eu425 2.339 . S
O467 C488 1.254 . S
O468 Eu425 2.563 . S
O468 C481 1.235 . S
O469 Eu425 2.419 . S
O469 C489 1.249 . S
C470 O459 1.276 . S
C470 O462 1.235 . S
C471 C473 1.393 . S
C471 C475 1.395 . S
C471 C478 1.492 . S
C472 C473 1.392 . S
C472 C474 1.386 . S
C473 C471 1.393 . S
C473 C472 1.392 . S
C473 H490 0.930 . S
C474 C472 1.386 . S
C474 C476 1.395 . S
C474 H491 0.930 . S
C475 C471 1.395 . S
C475 C476 1.379 . S
C475 H492 0.930 . S
C476 C474 1.395 . S
C476 C475 1.379 . S
C476 H493 0.930 . S
C477 O460 1.264 . S
C477 O461 1.254 . S
C478 Eu414 2.848 . S
C478 O458 1.257 . S
C478 O463 1.249 . S
C478 C471 1.492 . S
C479 H444 0.931 . S
C479 C457 1.420 1_655 S
C479 C480 1.351 . S
C480 H442 0.930 . S
C480 C448 1.423 . S
C480 C479 1.351 . S
C481 O465 1.276 . S
C481 O468 1.235 . S
C482 C483 1.393 . S
C482 C486 1.395 . S
C482 C489 1.492 . S
C483 C482 1.393 . S
C483 C484 1.392 . S
C483 H494 0.930 . S
C484 C483 1.392 . S
C484 C485 1.386 . S
C485 C484 1.386 . S
C485 C487 1.395 . S
C485 H495 0.930 . S
C486 C482 1.395 . S
C486 C487 1.379 . S
C486 H496 0.930 . S
C487 C485 1.395 . S
C487 C486 1.379 . S
C487 H497 0.930 . S
C488 O466 1.264 . S
C488 O467 1.254 . S
C489 Eu425 2.848 . S
C489 O464 1.257 . S
C489 O469 1.249 . S
C489 C482 1.492 . S
H490 C473 0.930 . S
H491 C474 0.930 . S
H492 C475 0.930 . S
H493 C476 0.930 . S
H494 C483 0.930 . S
H495 C485 0.930 . S
H496 C486 0.930 . S
H497 C487 0.930 . S
Eu498 N529 2.657 . S
Eu498 N536 2.609 . S
Eu498 O542 2.558 . S
Eu498 O543 2.612 . S
Eu498 O545 2.339 . S
Eu498 O546 2.563 . S
Eu498 O547 2.419 . S
Eu498 O549 2.380 . S
Eu498 O550 2.432 . S
Eu498 C562 2.848 . S
C499 C502 1.429 . S
C499 C503 1.411 . S
C499 N506 1.377 . S
C500 C502 1.420 . S
C500 C504 1.423 . S
C500 C512 1.392 . S
C501 C503 1.420 . S
C501 C504 1.351 . S
C501 H524 0.931 . S
C502 C499 1.429 . S
C502 C500 1.420 . S
C502 N510 1.362 . S
C503 C499 1.411 . S
C503 C501 1.420 . S
C503 C508 1.395 . S
C504 C500 1.423 . S
C504 C501 1.351 . S
C504 H516 0.930 . S
C505 C507 1.400 . S
C505 C508 1.386 . S
C505 H517 0.930 . S
N506 C499 1.377 . S
N506 C507 1.321 . S
N506 Eu509 2.609 . S
C507 C505 1.400 . S
C507 N506 1.321 . S
C507 H514 0.930 . S
C508 C503 1.395 . S
C508 C505 1.386 . S
C508 H527 0.930 . S
Eu509 N506 2.609 . S
Eu509 N510 2.657 . S
Eu509 O543 2.380 . S
Eu509 O544 2.432 . S
Eu509 O548 2.558 . S
Eu509 O549 2.612 . S
Eu509 O551 2.339 . S
Eu509 O552 2.563 . S
Eu509 O553 2.419 . S
Eu509 C573 2.848 . S
N510 C502 1.362 . S
N510 Eu509 2.657 . S
N510 C511 1.334 . S
C511 N510 1.334 . S
C511 C513 1.413 . S
C511 H518 0.929 . S
C512 C500 1.392 . S
C512 C513 1.367 . S
C512 H520 0.930 . S
C513 C511 1.413 . S
C513 C512 1.367 . S
C513 H515 0.930 . S
H514 C507 0.930 . S
H515 C513 0.930 . S
H516 C504 0.930 . S
H517 C505 0.930 . S
H518 C511 0.929 . S
H519 C533 0.930 . S
H520 C512 0.930 . S
H521 C539 0.930 . S
H522 C530 0.929 . S
H523 C537 0.930 . S
H524 C501 0.931 . S
H525 C531 0.930 . S
H526 C564 0.930 . S
H527 C508 0.930 . S
H528 C563 0.931 . S
N529 Eu498 2.657 . S
N529 C530 1.334 . S
N529 C534 1.362 . S
C530 H522 0.929 . S
C530 N529 1.334 . S
C530 C533 1.413 . S
C531 H525 0.930 . S
C531 C532 1.392 . S
C531 C533 1.367 . S
C532 C531 1.392 . S
C532 C534 1.420 . S
C532 C564 1.423 . S
C533 H519 0.930 . S
C533 C530 1.413 . S
C533 C531 1.367 . S
C534 N529 1.362 . S
C534 C532 1.420 . S
C534 C538 1.429 . S
H535 C540 0.930 . S
N536 Eu498 2.609 . S
N536 C538 1.377 . S
N536 C539 1.321 . S
C537 H523 0.930 . S
C537 C539 1.400 . S
C537 C540 1.386 . S
C538 C534 1.429 . S
C538 N536 1.377 . S
C538 C541 1.411 . S
C539 H521 0.930 . S
C539 N536 1.321 . S
C539 C537 1.400 . S
C540 H535 0.930 . S
C540 C537 1.386 . S
C540 C541 1.395 . S
C541 C538 1.411 . S
C541 C540 1.395 . S
C541 C563 1.420 . S
O542 Eu498 2.558 . S
O542 C562 1.257 . S
O543 Eu498 2.612 . S
O543 Eu509 2.380 . S
O543 C554 1.276 . S
O544 Eu509 2.432 . S
O544 C561 1.264 . S
O545 Eu498 2.339 . S
O545 C561 1.254 . S
O546 Eu498 2.563 . S
O546 C554 1.235 . S
O547 Eu498 2.419 . S
O547 C562 1.249 . S
O548 Eu509 2.558 . S
O548 C573 1.257 . S
O549 Eu498 2.380 . S
O549 Eu509 2.612 . S
O549 C565 1.276 . S
O550 Eu498 2.432 . S
O550 C572 1.264 . S
O551 Eu509 2.339 . S
O551 C572 1.254 . S
O552 Eu509 2.563 . S
O552 C565 1.235 . S
O553 Eu509 2.419 . S
O553 C573 1.249 . S
C554 O543 1.276 . S
C554 O546 1.235 . S
C555 C557 1.393 . S
C555 C559 1.395 . S
C555 C562 1.492 . S
C556 C557 1.392 . S
C556 C558 1.386 . S
C557 C555 1.393 . S
C557 C556 1.392 . S
C557 H574 0.930 . S
C558 C556 1.386 . S
C558 C560 1.395 . S
C558 H575 0.930 . S
C559 C555 1.395 . S
C559 C560 1.379 . S
C559 H576 0.930 . S
C560 C558 1.395 . S
C560 C559 1.379 . S
C560 H577 0.930 . S
C561 O544 1.264 . S
C561 O545 1.254 . S
C562 Eu498 2.848 . S
C562 O542 1.257 . S
C562 O547 1.249 . S
C562 C555 1.492 . S
C563 H528 0.931 . S
C563 C541 1.420 . S
C563 C564 1.351 . S
C564 H526 0.930 . S
C564 C532 1.423 . S
C564 C563 1.351 . S
C565 O549 1.276 . S
C565 O552 1.235 . S
C566 C567 1.393 . S
C566 C570 1.395 . S
C566 C573 1.492 . S
C567 C566 1.393 . S
C567 C568 1.392 . S
C567 H578 0.930 . S
C568 C567 1.392 . S
C568 C569 1.386 . S
C569 C568 1.386 . S
C569 C571 1.395 . S
C569 H579 0.930 . S
C570 C566 1.395 . S
C570 C571 1.379 . S
C570 H580 0.930 . S
C571 C569 1.395 . S
C571 C570 1.379 . S
C571 H581 0.930 . S
C572 O550 1.264 . S
C572 O551 1.254 . S
C573 Eu509 2.848 . S
C573 O548 1.257 . S
C573 O553 1.249 . S
C573 C566 1.492 . S
H574 C557 0.930 . S
H575 C558 0.930 . S
H576 C559 0.930 . S
H577 C560 0.930 . S
H578 C567 0.930 . S
H579 C569 0.930 . S
H580 C570 0.930 . S
H581 C571 0.930 . S
Eu582 N613 2.657 . S
Eu582 N620 2.609 . S
Eu582 O626 2.558 . S
Eu582 O627 2.612 . S
Eu582 O629 2.339 . S
Eu582 O630 2.563 . S
Eu582 O631 2.419 . S
Eu582 O633 2.380 . S
Eu582 O634 2.432 . S
Eu582 C646 2.848 . S
C583 C586 1.429 . S
C583 C587 1.411 . S
C583 N590 1.377 . S
C584 C586 1.420 1_655 S
C584 C588 1.423 . S
C584 C596 1.392 . S
C585 C587 1.420 1_655 S
C585 C588 1.351 . S
C585 H608 0.931 . S
C586 C583 1.429 . S
C586 C584 1.420 1_455 S
C586 N594 1.362 . S
C587 C583 1.411 . S
C587 C585 1.420 1_455 S
C587 C592 1.395 . S
C588 C584 1.423 . S
C588 C585 1.351 . S
C588 H600 0.930 . S
C589 C591 1.400 . S
C589 C592 1.386 . S
C589 H601 0.930 . S
N590 C583 1.377 . S
N590 C591 1.321 . S
N590 Eu593 2.609 . S
C591 C589 1.400 . S
C591 N590 1.321 . S
C591 H598 0.930 . S
C592 C587 1.395 . S
C592 C589 1.386 . S
C592 H611 0.930 . S
Eu593 N590 2.609 . S
Eu593 N594 2.657 . S
Eu593 O627 2.380 . S
Eu593 O628 2.432 . S
Eu593 O632 2.558 . S
Eu593 O633 2.612 . S
Eu593 O635 2.339 . S
Eu593 O636 2.563 . S
Eu593 O637 2.419 . S
Eu593 C657 2.848 . S
N594 C586 1.362 . S
N594 Eu593 2.657 . S
N594 C595 1.334 . S
C595 N594 1.334 . S
C595 C597 1.413 1_455 S
C595 H602 0.929 . S
C596 C584 1.392 . S
C596 C597 1.367 . S
C596 H604 0.930 . S
C597 C595 1.413 1_655 S
C597 C596 1.367 . S
C597 H599 0.930 . S
H598 C591 0.930 . S
H599 C597 0.930 . S
H600 C588 0.930 . S
H601 C589 0.930 . S
H602 C595 0.929 . S
H603 C617 0.930 . S
H604 C596 0.930 . S
H605 C623 0.930 . S
H606 C614 0.929 . S
H607 C621 0.930 . S
H608 C585 0.931 . S
H609 C615 0.930 . S
H610 C648 0.930 . S
H611 C592 0.930 . S
H612 C647 0.931 . S
N613 Eu582 2.657 . S
N613 C614 1.334 . S
N613 C618 1.362 . S
C614 H606 0.929 . S
C614 N613 1.334 . S
C614 C617 1.413 . S
C615 H609 0.930 . S
C615 C616 1.392 . S
C615 C617 1.367 . S
C616 C615 1.392 . S
C616 C618 1.420 . S
C616 C648 1.423 . S
C617 H603 0.930 . S
C617 C614 1.413 . S
C617 C615 1.367 . S
C618 N613 1.362 . S
C618 C616 1.420 . S
C618 C622 1.429 . S
H619 C624 0.930 . S
N620 Eu582 2.609 . S
N620 C622 1.377 . S
N620 C623 1.321 . S
C621 H607 0.930 . S
C621 C623 1.400 . S
C621 C624 1.386 . S
C622 C618 1.429 . S
C622 N620 1.377 . S
C622 C625 1.411 . S
C623 H605 0.930 . S
C623 N620 1.321 . S
C623 C621 1.400 . S
C624 H619 0.930 . S
C624 C621 1.386 . S
C624 C625 1.395 . S
C625 C622 1.411 . S
C625 C624 1.395 . S
C625 C647 1.420 . S
O626 Eu582 2.558 . S
O626 C646 1.257 . S
O627 Eu582 2.612 . S
O627 Eu593 2.380 . S
O627 C638 1.276 . S
O628 Eu593 2.432 . S
O628 C645 1.264 . S
O629 Eu582 2.339 . S
O629 C645 1.254 . S
O630 Eu582 2.563 . S
O630 C638 1.235 . S
O631 Eu582 2.419 . S
O631 C646 1.249 . S
O632 Eu593 2.558 . S
O632 C657 1.257 . S
O633 Eu582 2.380 . S
O633 Eu593 2.612 . S
O633 C649 1.276 . S
O634 Eu582 2.432 . S
O634 C656 1.264 . S
O635 Eu593 2.339 . S
O635 C656 1.254 . S
O636 Eu593 2.563 . S
O636 C649 1.235 . S
O637 Eu593 2.419 . S
O637 C657 1.249 . S
C638 O627 1.276 . S
C638 O630 1.235 . S
C639 C641 1.393 . S
C639 C643 1.395 . S
C639 C646 1.492 . S
C640 C641 1.392 . S
C640 C642 1.386 . S
C641 C639 1.393 . S
C641 C640 1.392 . S
C641 H658 0.930 . S
C642 C640 1.386 . S
C642 C644 1.395 . S
C642 H659 0.930 . S
C643 C639 1.395 . S
C643 C644 1.379 . S
C643 H660 0.930 . S
C644 C642 1.395 . S
C644 C643 1.379 . S
C644 H661 0.930 . S
C645 O628 1.264 . S
C645 O629 1.254 . S
C646 Eu582 2.848 . S
C646 O626 1.257 . S
C646 O631 1.249 . S
C646 C639 1.492 . S
C647 H612 0.931 . S
C647 C625 1.420 . S
C647 C648 1.351 . S
C648 H610 0.930 . S
C648 C616 1.423 . S
C648 C647 1.351 . S
C649 O633 1.276 . S
C649 O636 1.235 . S
C650 C651 1.393 . S
C650 C654 1.395 . S
C650 C657 1.492 . S
C651 C650 1.393 . S
C651 C652 1.392 . S
C651 H662 0.930 . S
C652 C651 1.392 . S
C652 C653 1.386 . S
C653 C652 1.386 . S
C653 C655 1.395 . S
C653 H663 0.930 . S
C654 C650 1.395 . S
C654 C655 1.379 . S
C654 H664 0.930 . S
C655 C653 1.395 . S
C655 C654 1.379 . S
C655 H665 0.930 . S
C656 O634 1.264 . S
C656 O635 1.254 . S
C657 Eu593 2.848 . S
C657 O632 1.257 . S
C657 O637 1.249 . S
C657 C650 1.492 . S
H658 C641 0.930 . S
H659 C642 0.930 . S
H660 C643 0.930 . S
H661 C644 0.930 . S
H662 C651 0.930 . S
H663 C653 0.930 . S
H664 C654 0.930 . S
H665 C655 0.930 . S
Eu666 N697 2.657 . S
Eu666 N704 2.609 . S
Eu666 O710 2.558 . S
Eu666 O711 2.612 . S
Eu666 O713 2.339 . S
Eu666 O714 2.563 . S
Eu666 O715 2.419 . S
Eu666 O717 2.380 . S
Eu666 O718 2.432 . S
Eu666 C730 2.848 . S
C667 C670 1.429 . S
C667 C671 1.411 . S
C667 N674 1.377 . S
C668 C670 1.420 1_455 S
C668 C672 1.423 . S
C668 C680 1.392 . S
C669 C671 1.420 1_455 S
C669 C672 1.351 . S
C669 H692 0.931 . S
C670 C667 1.429 . S
C670 C668 1.420 1_655 S
C670 N678 1.362 . S
C671 C667 1.411 . S
C671 C669 1.420 1_655 S
C671 C676 1.395 . S
C672 C668 1.423 . S
C672 C669 1.351 . S
C672 H684 0.930 . S
C673 C675 1.400 . S
C673 C676 1.386 . S
C673 H685 0.930 . S
N674 C667 1.377 . S
N674 C675 1.321 . S
N674 Eu677 2.609 . S
C675 C673 1.400 . S
C675 N674 1.321 . S
C675 H682 0.930 . S
C676 C671 1.395 . S
C676 C673 1.386 . S
C676 H695 0.930 . S
Eu677 N674 2.609 . S
Eu677 N678 2.657 . S
Eu677 O711 2.380 . S
Eu677 O712 2.432 . S
Eu677 O716 2.558 . S
Eu677 O717 2.612 . S
Eu677 O719 2.339 . S
Eu677 O720 2.563 . S
Eu677 O721 2.419 . S
Eu677 C741 2.848 . S
N678 C670 1.362 . S
N678 Eu677 2.657 . S
N678 C679 1.334 . S
C679 N678 1.334 . S
C679 C681 1.413 1_655 S
C679 H686 0.929 . S
C680 C668 1.392 . S
C680 C681 1.367 . S
C680 H688 0.930 . S
C681 C679 1.413 1_455 S
C681 C680 1.367 . S
C681 H683 0.930 . S
H682 C675 0.930 . S
H683 C681 0.930 . S
H684 C672 0.930 . S
H685 C673 0.930 . S
H686 C679 0.929 . S
H687 C701 0.930 . S
H688 C680 0.930 . S
H689 C707 0.930 . S
H690 C698 0.929 . S
H691 C705 0.930 . S
H692 C669 0.931 . S
H693 C699 0.930 . S
H694 C732 0.930 . S
H695 C676 0.930 . S
H696 C731 0.931 . S
N697 Eu666 2.657 . S
N697 C698 1.334 . S
N697 C702 1.362 . S
C698 H690 0.929 . S
C698 N697 1.334 . S
C698 C701 1.413 . S
C699 H693 0.930 . S
C699 C700 1.392 . S
C699 C701 1.367 . S
C700 C699 1.392 . S
C700 C702 1.420 . S
C700 C732 1.423 . S
C701 H687 0.930 . S
C701 C698 1.413 . S
C701 C699 1.367 . S
C702 N697 1.362 . S
C702 C700 1.420 . S
C702 C706 1.429 . S
H703 C708 0.930 . S
N704 Eu666 2.609 . S
N704 C706 1.377 . S
N704 C707 1.321 . S
C705 H691 0.930 . S
C705 C707 1.400 . S
C705 C708 1.386 . S
C706 C702 1.429 . S
C706 N704 1.377 . S
C706 C709 1.411 . S
C707 H689 0.930 . S
C707 N704 1.321 . S
C707 C705 1.400 . S
C708 H703 0.930 . S
C708 C705 1.386 . S
C708 C709 1.395 . S
C709 C706 1.411 . S
C709 C708 1.395 . S
C709 C731 1.420 . S
O710 Eu666 2.558 . S
O710 C730 1.257 . S
O711 Eu666 2.612 . S
O711 Eu677 2.380 . S
O711 C722 1.276 . S
O712 Eu677 2.432 . S
O712 C729 1.264 . S
O713 Eu666 2.339 . S
O713 C729 1.254 . S
O714 Eu666 2.563 . S
O714 C722 1.235 . S
O715 Eu666 2.419 . S
O715 C730 1.249 . S
O716 Eu677 2.558 . S
O716 C741 1.257 . S
O717 Eu666 2.380 . S
O717 Eu677 2.612 . S
O717 C733 1.276 . S
O718 Eu666 2.432 . S
O718 C740 1.264 . S
O719 Eu677 2.339 . S
O719 C740 1.254 . S
O720 Eu677 2.563 . S
O720 C733 1.235 . S
O721 Eu677 2.419 . S
O721 C741 1.249 . S
C722 O711 1.276 . S
C722 O714 1.235 . S
C723 C725 1.393 . S
C723 C727 1.395 . S
C723 C730 1.492 . S
C724 C725 1.392 . S
C724 C726 1.386 . S
C725 C723 1.393 . S
C725 C724 1.392 . S
C725 H742 0.930 . S
C726 C724 1.386 . S
C726 C728 1.395 . S
C726 H743 0.930 . S
C727 C723 1.395 . S
C727 C728 1.379 . S
C727 H744 0.930 . S
C728 C726 1.395 . S
C728 C727 1.379 . S
C728 H745 0.930 . S
C729 O712 1.264 . S
C729 O713 1.254 . S
C730 Eu666 2.848 . S
C730 O710 1.257 . S
C730 O715 1.249 . S
C730 C723 1.492 . S
C731 H696 0.931 . S
C731 C709 1.420 . S
C731 C732 1.351 . S
C732 H694 0.930 . S
C732 C700 1.423 . S
C732 C731 1.351 . S
C733 O717 1.276 . S
C733 O720 1.235 . S
C734 C735 1.393 . S
C734 C738 1.395 . S
C734 C741 1.492 . S
C735 C734 1.393 . S
C735 C736 1.392 . S
C735 H746 0.930 . S
C736 C735 1.392 . S
C736 C737 1.386 . S
C737 C736 1.386 . S
C737 C739 1.395 . S
C737 H747 0.930 . S
C738 C734 1.395 . S
C738 C739 1.379 . S
C738 H748 0.930 . S
C739 C737 1.395 . S
C739 C738 1.379 . S
C739 H749 0.930 . S
C740 O718 1.264 . S
C740 O719 1.254 . S
C741 Eu677 2.848 . S
C741 O716 1.257 . S
C741 O721 1.249 . S
C741 C734 1.492 . S
H742 C725 0.930 . S
H743 C726 0.930 . S
H744 C727 0.930 . S
H745 C728 0.930 . S
H746 C735 0.930 . S
H747 C737 0.930 . S
H748 C738 0.930 . S
H749 C739 0.930 . S
Eu750 N781 2.657 . S
Eu750 N788 2.609 . S
Eu750 O794 2.558 . S
Eu750 O795 2.612 . S
Eu750 O797 2.339 . S
Eu750 O798 2.563 . S
Eu750 O799 2.419 . S
Eu750 O801 2.380 . S
Eu750 O802 2.432 . S
Eu750 C814 2.848 . S
C751 C754 1.429 . S
C751 C755 1.411 . S
C751 N758 1.377 . S
C752 C754 1.420 . S
C752 C756 1.423 . S
C752 C764 1.392 . S
C753 C755 1.420 . S
C753 C756 1.351 . S
C753 H776 0.931 . S
C754 C751 1.429 . S
C754 C752 1.420 . S
C754 N762 1.362 . S
C755 C751 1.411 . S
C755 C753 1.420 . S
C755 C760 1.395 . S
C756 C752 1.423 . S
C756 C753 1.351 . S
C756 H768 0.930 . S
C757 C759 1.400 . S
C757 C760 1.386 . S
C757 H769 0.930 . S
N758 C751 1.377 . S
N758 C759 1.321 . S
N758 Eu761 2.609 . S
C759 C757 1.400 . S
C759 N758 1.321 . S
C759 H766 0.930 . S
C760 C755 1.395 . S
C760 C757 1.386 . S
C760 H779 0.930 . S
Eu761 N758 2.609 . S
Eu761 N762 2.657 . S
Eu761 O795 2.380 . S
Eu761 O796 2.432 . S
Eu761 O800 2.558 . S
Eu761 O801 2.612 . S
Eu761 O803 2.339 . S
Eu761 O804 2.563 . S
Eu761 O805 2.419 . S
Eu761 C825 2.848 . S
N762 C754 1.362 . S
N762 Eu761 2.657 . S
N762 C763 1.334 . S
C763 N762 1.334 . S
C763 C765 1.413 . S
C763 H770 0.929 . S
C764 C752 1.392 . S
C764 C765 1.367 . S
C764 H772 0.930 . S
C765 C763 1.413 . S
C765 C764 1.367 . S
C765 H767 0.930 . S
H766 C759 0.930 . S
H767 C765 0.930 . S
H768 C756 0.930 . S
H769 C757 0.930 . S
H770 C763 0.929 . S
H771 C785 0.930 . S
H772 C764 0.930 . S
H773 C791 0.930 . S
H774 C782 0.929 . S
H775 C789 0.930 . S
H776 C753 0.931 . S
H777 C783 0.930 . S
H778 C816 0.930 . S
H779 C760 0.930 . S
H780 C815 0.931 . S
N781 Eu750 2.657 . S
N781 C782 1.334 . S
N781 C786 1.362 . S
C782 H774 0.929 . S
C782 N781 1.334 . S
C782 C785 1.413 . S
C783 H777 0.930 . S
C783 C784 1.392 . S
C783 C785 1.367 . S
C784 C783 1.392 . S
C784 C786 1.420 . S
C784 C816 1.423 . S
C785 H771 0.930 . S
C785 C782 1.413 . S
C785 C783 1.367 . S
C786 N781 1.362 . S
C786 C784 1.420 . S
C786 C790 1.429 . S
H787 C792 0.930 . S
N788 Eu750 2.609 . S
N788 C790 1.377 . S
N788 C791 1.321 . S
C789 H775 0.930 . S
C789 C791 1.400 . S
C789 C792 1.386 . S
C790 C786 1.429 . S
C790 N788 1.377 . S
C790 C793 1.411 . S
C791 H773 0.930 . S
C791 N788 1.321 . S
C791 C789 1.400 . S
C792 H787 0.930 . S
C792 C789 1.386 . S
C792 C793 1.395 . S
C793 C790 1.411 . S
C793 C792 1.395 . S
C793 C815 1.420 . S
O794 Eu750 2.558 . S
O794 C814 1.257 . S
O795 Eu750 2.612 . S
O795 Eu761 2.380 . S
O795 C806 1.276 . S
O796 Eu761 2.432 . S
O796 C813 1.264 . S
O797 Eu750 2.339 . S
O797 C813 1.254 . S
O798 Eu750 2.563 . S
O798 C806 1.235 . S
O799 Eu750 2.419 . S
O799 C814 1.249 . S
O800 Eu761 2.558 . S
O800 C825 1.257 . S
O801 Eu750 2.380 . S
O801 Eu761 2.612 . S
O801 C817 1.276 . S
O802 Eu750 2.432 . S
O802 C824 1.264 . S
O803 Eu761 2.339 . S
O803 C824 1.254 . S
O804 Eu761 2.563 . S
O804 C817 1.235 . S
O805 Eu761 2.419 . S
O805 C825 1.249 . S
C806 O795 1.276 . S
C806 O798 1.235 . S
C807 C809 1.393 . S
C807 C811 1.395 . S
C807 C814 1.492 . S
C808 C809 1.392 . S
C808 C810 1.386 . S
C809 C807 1.393 . S
C809 C808 1.392 . S
C809 H826 0.930 . S
C810 C808 1.386 . S
C810 C812 1.395 . S
C810 H827 0.930 . S
C811 C807 1.395 . S
C811 C812 1.379 . S
C811 H828 0.930 . S
C812 C810 1.395 . S
C812 C811 1.379 . S
C812 H829 0.930 . S
C813 O796 1.264 . S
C813 O797 1.254 . S
C814 Eu750 2.848 . S
C814 O794 1.257 . S
C814 O799 1.249 . S
C814 C807 1.492 . S
C815 H780 0.931 . S
C815 C793 1.420 . S
C815 C816 1.351 . S
C816 H778 0.930 . S
C816 C784 1.423 . S
C816 C815 1.351 . S
C817 O801 1.276 . S
C817 O804 1.235 . S
C818 C819 1.393 . S
C818 C822 1.395 . S
C818 C825 1.492 . S
C819 C818 1.393 . S
C819 C820 1.392 . S
C819 H830 0.930 . S
C820 C819 1.392 . S
C820 C821 1.386 . S
C821 C820 1.386 . S
C821 C823 1.395 . S
C821 H831 0.930 . S
C822 C818 1.395 . S
C822 C823 1.379 . S
C822 H832 0.930 . S
C823 C821 1.395 . S
C823 C822 1.379 . S
C823 H833 0.930 . S
C824 O802 1.264 . S
C824 O803 1.254 . S
C825 Eu761 2.848 . S
C825 O800 1.257 . S
C825 O805 1.249 . S
C825 C818 1.492 . S
H826 C809 0.930 . S
H827 C810 0.930 . S
H828 C811 0.930 . S
H829 C812 0.930 . S
H830 C819 0.930 . S
H831 C821 0.930 . S
H832 C822 0.930 . S
H833 C823 0.930 . S
Eu834 N865 2.657 . S
Eu834 N872 2.609 . S
Eu834 O878 2.558 . S
Eu834 O879 2.612 . S
Eu834 O881 2.339 . S
Eu834 O882 2.563 . S
Eu834 O883 2.419 . S
Eu834 O885 2.380 . S
Eu834 O886 2.432 . S
Eu834 C898 2.848 . S
C835 C838 1.429 . S
C835 C839 1.411 . S
C835 N842 1.377 . S
C836 C838 1.420 . S
C836 C840 1.423 . S
C836 C848 1.392 . S
C837 C839 1.420 . S
C837 C840 1.351 . S
C837 H860 0.931 . S
C838 C835 1.429 . S
C838 C836 1.420 . S
C838 N846 1.362 . S
C839 C835 1.411 . S
C839 C837 1.420 . S
C839 C844 1.395 . S
C840 C836 1.423 . S
C840 C837 1.351 . S
C840 H852 0.930 . S
C841 C843 1.400 . S
C841 C844 1.386 . S
C841 H853 0.930 . S
N842 C835 1.377 . S
N842 C843 1.321 . S
N842 Eu845 2.609 . S
C843 C841 1.400 . S
C843 N842 1.321 . S
C843 H850 0.930 . S
C844 C839 1.395 . S
C844 C841 1.386 . S
C844 H863 0.930 . S
Eu845 N842 2.609 . S
Eu845 N846 2.657 . S
Eu845 O879 2.380 . S
Eu845 O880 2.432 . S
Eu845 O884 2.558 . S
Eu845 O885 2.612 . S
Eu845 O887 2.339 . S
Eu845 O888 2.563 . S
Eu845 O889 2.419 . S
Eu845 C909 2.848 . S
N846 C838 1.362 . S
N846 Eu845 2.657 . S
N846 C847 1.334 . S
C847 N846 1.334 . S
C847 C849 1.413 . S
C847 H854 0.929 . S
C848 C836 1.392 . S
C848 C849 1.367 . S
C848 H856 0.930 . S
C849 C847 1.413 . S
C849 C848 1.367 . S
C849 H851 0.930 . S
H850 C843 0.930 . S
H851 C849 0.930 . S
H852 C840 0.930 . S
H853 C841 0.930 . S
H854 C847 0.929 . S
H855 C869 0.930 . S
H856 C848 0.930 . S
H857 C875 0.930 . S
H858 C866 0.929 . S
H859 C873 0.930 . S
H860 C837 0.931 . S
H861 C867 0.930 . S
H862 C900 0.930 . S
H863 C844 0.930 . S
H864 C899 0.931 . S
N865 Eu834 2.657 . S
N865 C866 1.334 . S
N865 C870 1.362 . S
C866 H858 0.929 . S
C866 N865 1.334 . S
C866 C869 1.413 1_655 S
C867 H861 0.930 . S
C867 C868 1.392 . S
C867 C869 1.367 . S
C868 C867 1.392 . S
C868 C870 1.420 1_455 S
C868 C900 1.423 . S
C869 H855 0.930 . S
C869 C866 1.413 1_455 S
C869 C867 1.367 . S
C870 N865 1.362 . S
C870 C868 1.420 1_655 S
C870 C874 1.429 . S
H871 C876 0.930 . S
N872 Eu834 2.609 . S
N872 C874 1.377 . S
N872 C875 1.321 . S
C873 H859 0.930 . S
C873 C875 1.400 . S
C873 C876 1.386 . S
C874 C870 1.429 . S
C874 N872 1.377 . S
C874 C877 1.411 . S
C875 H857 0.930 . S
C875 N872 1.321 . S
C875 C873 1.400 . S
C876 H871 0.930 . S
C876 C873 1.386 . S
C876 C877 1.395 . S
C877 C874 1.411 . S
C877 C876 1.395 . S
C877 C899 1.420 1_655 S
O878 Eu834 2.558 . S
O878 C898 1.257 . S
O879 Eu834 2.612 . S
O879 Eu845 2.380 . S
O879 C890 1.276 . S
O880 Eu845 2.432 . S
O880 C897 1.264 . S
O881 Eu834 2.339 . S
O881 C897 1.254 . S
O882 Eu834 2.563 . S
O882 C890 1.235 . S
O883 Eu834 2.419 . S
O883 C898 1.249 . S
O884 Eu845 2.558 . S
O884 C909 1.257 . S
O885 Eu834 2.380 . S
O885 Eu845 2.612 . S
O885 C901 1.276 . S
O886 Eu834 2.432 . S
O886 C908 1.264 . S
O887 Eu845 2.339 . S
O887 C908 1.254 . S
O888 Eu845 2.563 . S
O888 C901 1.235 . S
O889 Eu845 2.419 . S
O889 C909 1.249 . S
C890 O879 1.276 . S
C890 O882 1.235 . S
C891 C893 1.393 . S
C891 C895 1.395 . S
C891 C898 1.492 . S
C892 C893 1.392 . S
C892 C894 1.386 . S
C893 C891 1.393 . S
C893 C892 1.392 . S
C893 H910 0.930 . S
C894 C892 1.386 . S
C894 C896 1.395 . S
C894 H911 0.930 . S
C895 C891 1.395 . S
C895 C896 1.379 . S
C895 H912 0.930 . S
C896 C894 1.395 . S
C896 C895 1.379 . S
C896 H913 0.930 . S
C897 O880 1.264 . S
C897 O881 1.254 . S
C898 Eu834 2.848 . S
C898 O878 1.257 . S
C898 O883 1.249 . S
C898 C891 1.492 . S
C899 H864 0.931 . S
C899 C877 1.420 1_455 S
C899 C900 1.351 . S
C900 H862 0.930 . S
C900 C868 1.423 . S
C900 C899 1.351 . S
C901 O885 1.276 . S
C901 O888 1.235 . S
C902 C903 1.393 . S
C902 C906 1.395 . S
C902 C909 1.492 . S
C903 C902 1.393 . S
C903 C904 1.392 . S
C903 H914 0.930 . S
C904 C903 1.392 . S
C904 C905 1.386 . S
C905 C904 1.386 . S
C905 C907 1.395 . S
C905 H915 0.930 . S
C906 C902 1.395 . S
C906 C907 1.379 . S
C906 H916 0.930 . S
C907 C905 1.395 . S
C907 C906 1.379 . S
C907 H917 0.930 . S
C908 O886 1.264 . S
C908 O887 1.254 . S
C909 Eu845 2.848 . S
C909 O884 1.257 . S
C909 O889 1.249 . S
C909 C902 1.492 . S
H910 C893 0.930 . S
H911 C894 0.930 . S
H912 C895 0.930 . S
H913 C896 0.930 . S
H914 C903 0.930 . S
H915 C905 0.930 . S
H916 C906 0.930 . S
H917 C907 0.930 . S
C918 C919 1.387 . S
C918 H922 0.950 . S
C918 C927 1.390 . S
C919 C918 1.387 . S
C919 C921 1.387 . S
H920 C927 0.950 . S
C921 C919 1.387 . S
C921 C923 1.390 . S
C921 H925 0.950 . S
H922 C918 0.950 . S
C923 C921 1.390 . S
C923 C924 1.387 . S
C923 H926 0.950 . S
C924 C923 1.387 . S
C924 C927 1.387 . S
H925 C921 0.950 . S
H926 C923 0.950 . S
C927 C918 1.390 . S
C927 H920 0.950 . S
C927 C924 1.387 . S
C928 C929 1.387 . S
C928 H932 0.950 . S
C928 C937 1.390 . S
C929 C928 1.387 . S
C929 C931 1.387 . S
H930 C937 0.950 . S
C931 C929 1.387 . S
C931 C933 1.390 . S
C931 H935 0.950 . S
H932 C928 0.950 . S
C933 C931 1.390 . S
C933 C934 1.387 . S
C933 H936 0.950 . S
C934 C933 1.387 . S
C934 C937 1.387 . S
H935 C931 0.950 . S
H936 C933 0.950 . S
C937 C928 1.390 . S
C937 H930 0.950 . S
C937 C934 1.387 . S
C938 C939 1.387 . S
C938 H942 0.950 . S
C938 C947 1.390 . S
C939 C938 1.387 . S
C939 C941 1.387 . S
H940 C947 0.950 . S
C941 C939 1.387 . S
C941 C943 1.390 . S
C941 H945 0.950 . S
H942 C938 0.950 . S
C943 C941 1.390 . S
C943 C944 1.387 . S
C943 H946 0.950 . S
C944 C943 1.387 . S
C944 C947 1.387 . S
H945 C941 0.950 . S
H946 C943 0.950 . S
C947 C938 1.390 . S
C947 H940 0.950 . S
C947 C944 1.387 . S
C948 C949 1.387 . S
C948 H952 0.950 . S
C948 C957 1.390 . S
C949 C948 1.387 . S
C949 C951 1.387 . S
H950 C957 0.950 . S
C951 C949 1.387 . S
C951 C953 1.390 . S
C951 H955 0.950 . S
H952 C948 0.950 . S
C953 C951 1.390 . S
C953 C954 1.387 . S
C953 H956 0.957 . S
C954 C953 1.387 . S
C954 C957 1.387 . S
H955 C951 0.950 . S
H956 C953 0.957 . S
C957 C948 1.390 . S
C957 H950 0.950 . S
C957 C954 1.387 . S
C958 C959 1.387 . S
C958 H962 0.950 . S
C958 C967 1.390 . S
C959 C958 1.387 . S
C959 C961 1.387 . S
H960 C967 0.950 . S
C961 C959 1.387 . S
C961 C963 1.390 . S
C961 H965 0.950 . S
H962 C958 0.950 . S
C963 C961 1.390 . S
C963 C964 1.387 . S
C963 H966 0.950 . S
C964 C963 1.387 . S
C964 C967 1.387 . S
H965 C961 0.950 . S
H966 C963 0.950 . S
C967 C958 1.390 . S
C967 H960 0.950 . S
C967 C964 1.387 . S
C968 C969 1.387 . S
C968 H972 0.950 . S
C968 C977 1.390 . S
C969 C968 1.387 . S
C969 C971 1.387 . S
H970 C977 0.950 1_554 S
C971 C969 1.387 . S
C971 C973 1.390 . S
C971 H975 0.950 . S
H972 C968 0.950 . S
C973 C971 1.390 . S
C973 C974 1.387 . S
C973 H976 0.950 . S
C974 C973 1.387 . S
C974 C977 1.387 . S
H975 C971 0.950 . S
H976 C973 0.950 . S
C977 C968 1.390 . S
C977 H970 0.950 1_556 S
C977 C974 1.387 . S
C978 C979 1.387 . S
C978 H982 0.950 . S
C978 C987 1.390 . S
C979 C978 1.387 . S
C979 C981 1.387 . S
H980 C987 0.950 1_554 S
C981 C979 1.387 . S
C981 C983 1.390 . S
C981 H985 0.950 . S
H982 C978 0.950 . S
C983 C981 1.390 . S
C983 C984 1.387 . S
C983 H986 0.950 . S
C984 C983 1.387 . S
C984 C987 1.387 . S
H985 C981 0.950 . S
H986 C983 0.950 . S
C987 C978 1.390 . S
C987 H980 0.950 1_556 S
C987 C984 1.387 . S
C988 C989 1.387 . S
C988 H992 0.950 . S
C988 C997 1.390 . S
C989 C988 1.387 . S
C989 C991 1.387 . S
H990 C997 0.950 . S
C991 C989 1.387 . S
C991 C993 1.390 . S
C991 H995 0.950 . S
H992 C988 0.950 . S
C993 C991 1.390 . S
C993 C994 1.387 . S
C993 H996 0.950 . S
C994 C993 1.387 . S
C994 C997 1.387 . S
H995 C991 0.950 . S
H996 C993 0.950 . S
C997 C988 1.390 . S
C997 H990 0.950 . S
C997 C994 1.387 . S
C998 C999 1.387 . S
C998 H1002 0.950 . S
C998 C1007 1.390 . S
C999 C998 1.387 . S
C999 C1001 1.387 . S
H1000 C1007 0.950 . S
C1001 C999 1.387 . S
C1001 C1003 1.390 . S
C1001 H1005 0.950 . S
H1002 C998 0.950 . S
C1003 C1001 1.390 . S
C1003 C1004 1.387 . S
C1003 H1006 0.950 . S
C1004 C1003 1.387 . S
C1004 C1007 1.387 . S
H1005 C1001 0.950 . S
H1006 C1003 0.950 . S
C1007 C998 1.390 . S
C1007 H1000 0.950 . S
C1007 C1004 1.387 . S
C1008 C1009 1.387 . S
C1008 H1012 0.950 . S
C1008 C1017 1.390 . S
C1009 C1008 1.387 . S
C1009 C1011 1.387 . S
H1010 C1017 0.950 . S
C1011 C1009 1.387 . S
C1011 C1013 1.390 . S
C1011 H1015 0.950 . S
H1012 C1008 0.950 . S
C1013 C1011 1.390 . S
C1013 C1014 1.387 . S
C1013 H1016 0.950 . S
C1014 C1013 1.387 . S
C1014 C1017 1.387 . S
H1015 C1011 0.950 . S
H1016 C1013 0.950 . S
C1017 C1008 1.390 . S
C1017 H1010 0.950 . S
C1017 C1014 1.387 . S
C1018 C1019 1.387 . S
C1018 H1022 0.950 . S
C1018 C1027 1.390 . S
C1019 C1018 1.387 . S
C1019 C1021 1.387 . S
H1020 C1027 0.950 . S
C1021 C1019 1.387 . S
C1021 C1023 1.390 . S
C1021 H1025 0.950 . S
H1022 C1018 0.950 . S
C1023 C1021 1.390 . S
C1023 C1024 1.387 . S
C1023 H1026 0.950 . S
C1024 C1023 1.387 . S
C1024 C1027 1.387 . S
H1025 C1021 0.950 . S
H1026 C1023 0.950 . S
C1027 C1018 1.390 . S
C1027 H1020 0.950 . S
C1027 C1024 1.387 . S
C1028 C1029 1.387 . S
C1028 H1032 0.950 . S
C1028 C1037 1.390 . S
C1029 C1028 1.387 . S
C1029 C1031 1.387 . S
H1030 C1037 0.950 . S
C1031 C1029 1.387 . S
C1031 C1033 1.390 . S
C1031 H1035 0.950 . S
H1032 C1028 0.950 . S
C1033 C1031 1.390 . S
C1033 C1034 1.387 . S
C1033 H1036 0.950 . S
C1034 C1033 1.387 . S
C1034 C1037 1.387 . S
H1035 C1031 0.950 . S
H1036 C1033 0.950 . S
C1037 C1028 1.390 . S
C1037 H1030 0.950 . S
C1037 C1034 1.387 . S
C1038 C1039 1.387 1_455 S
C1038 H1042 0.950 1_455 S
C1038 C1047 1.390 . S
C1039 C1038 1.387 1_655 S
C1039 C1041 1.387 . S
H1040 C1047 0.950 . S
C1041 C1039 1.387 . S
C1041 C1043 1.390 1_655 S
C1041 H1045 0.950 . S
H1042 C1038 0.950 1_655 S
C1043 C1041 1.390 1_455 S
C1043 C1044 1.387 . S
C1043 H1046 0.950 . S
C1044 C1043 1.387 . S
C1044 C1047 1.387 . S
H1045 C1041 0.950 . S
H1046 C1043 0.950 . S
C1047 C1038 1.390 . S
C1047 H1040 0.950 . S
C1047 C1044 1.387 . S
C1048 C1049 1.387 . S
C1048 H1052 0.950 . S
C1048 C1057 1.390 . S
C1049 C1048 1.387 . S
C1049 C1051 1.387 . S
H1050 C1057 0.950 . S
C1051 C1049 1.387 . S
C1051 C1053 1.390 . S
C1051 H1055 0.950 . S
H1052 C1048 0.950 . S
C1053 C1051 1.390 . S
C1053 C1054 1.387 . S
C1053 H1056 0.950 . S
C1054 C1053 1.387 . S
C1054 C1057 1.387 . S
H1055 C1051 0.950 . S
H1056 C1053 0.950 . S
C1057 C1048 1.390 . S
C1057 H1050 0.950 . S
C1057 C1054 1.387 . S
C1058 C1059 1.387 . S
C1058 H1062 0.950 . S
C1058 C1067 1.390 1_545 S
C1059 C1058 1.387 . S
C1059 C1061 1.387 . S
H1060 C1067 0.950 . S
C1061 C1059 1.387 . S
C1061 C1063 1.390 1_545 S
C1061 H1065 0.950 . S
H1062 C1058 0.950 . S
C1063 C1061 1.390 1_565 S
C1063 C1064 1.387 . S
C1063 H1066 0.950 . S
C1064 C1063 1.387 . S
C1064 C1067 1.387 . S
H1065 C1061 0.950 . S
H1066 C1063 0.950 . S
C1067 C1058 1.390 1_565 S
C1067 H1060 0.950 . S
C1067 C1064 1.387 . S
C1068 C1069 1.387 . S
C1068 H1072 0.950 . S
C1068 C1077 1.390 . S
C1069 C1068 1.387 . S
C1069 C1071 1.387 . S
H1070 C1077 0.950 . S
C1071 C1069 1.387 . S
C1071 C1073 1.390 . S
C1071 H1075 0.950 . S
H1072 C1068 0.950 . S
C1073 C1071 1.390 . S
C1073 C1074 1.387 . S
C1073 H1076 0.950 . S
C1074 C1073 1.387 . S
C1074 C1077 1.387 . S
H1075 C1071 0.950 . S
H1076 C1073 0.950 . S
C1077 C1068 1.390 . S
C1077 H1070 0.950 . S
C1077 C1074 1.387 . S
C1078 C1079 1.387 . S
C1078 H1082 0.950 . S
C1078 C1087 1.390 . S
C1079 C1078 1.387 . S
C1079 C1081 1.387 . S
H1080 C1087 0.950 . S
C1081 C1079 1.387 . S
C1081 C1083 1.390 . S
C1081 H1085 0.950 . S
H1082 C1078 0.950 . S
C1083 C1081 1.390 . S
C1083 C1084 1.387 . S
C1083 H1086 0.950 . S
C1084 C1083 1.387 . S
C1084 C1087 1.387 . S
H1085 C1081 0.950 . S
H1086 C1083 0.950 . S
C1087 C1078 1.390 . S
C1087 H1080 0.950 . S
C1087 C1084 1.387 . S
C1088 C1089 1.387 . S
C1088 H1092 0.950 . S
C1088 C1097 1.390 . S
C1089 C1088 1.387 . S
C1089 C1091 1.387 . S
H1090 C1097 0.950 . S
C1091 C1089 1.387 . S
C1091 C1093 1.390 . S
C1091 H1095 0.950 . S
H1092 C1088 0.950 . S
C1093 C1091 1.390 . S
C1093 C1094 1.387 . S
C1093 H1096 0.950 . S
C1094 C1093 1.387 . S
C1094 C1097 1.387 . S
H1095 C1091 0.950 . S
H1096 C1093 0.950 . S
C1097 C1088 1.390 . S
C1097 H1090 0.950 . S
C1097 C1094 1.387 . S
C1098 C1099 1.387 . S
C1098 H1102 0.950 . S
C1098 C1107 1.390 . S
C1099 C1098 1.387 . S
C1099 C1101 1.387 . S
H1100 C1107 0.950 . S
C1101 C1099 1.387 . S
C1101 C1103 1.390 . S
C1101 H1105 0.950 . S
H1102 C1098 0.950 . S
C1103 C1101 1.390 . S
C1103 C1104 1.387 . S
C1103 H1106 0.950 . S
C1104 C1103 1.387 . S
C1104 C1107 1.387 . S
H1105 C1101 0.950 . S
H1106 C1103 0.950 . S
C1107 C1098 1.390 . S
C1107 H1100 0.950 . S
C1107 C1104 1.387 . S
C1108 C1109 1.387 . S
C1108 H1112 0.950 . S
C1108 C1117 1.390 . S
C1109 C1108 1.387 . S
C1109 C1111 1.387 . S
H1110 C1117 0.950 . S
C1111 C1109 1.387 . S
C1111 C1113 1.390 . S
C1111 H1115 0.950 . S
H1112 C1108 0.950 . S
C1113 C1111 1.390 . S
C1113 C1114 1.387 . S
C1113 H1116 0.950 . S
C1114 C1113 1.387 . S
C1114 C1117 1.387 . S
H1115 C1111 0.950 . S
H1116 C1113 0.950 . S
C1117 C1108 1.390 . S
C1117 H1110 0.950 . S
C1117 C1114 1.387 . S
C1118 C1119 1.387 . S
C1118 H1122 0.950 . S
C1118 C1127 1.390 . S
C1119 C1118 1.387 . S
C1119 C1121 1.387 . S
H1120 C1127 0.950 . S
C1121 C1119 1.387 . S
C1121 C1123 1.390 . S
C1121 H1125 0.950 . S
H1122 C1118 0.950 . S
C1123 C1121 1.390 . S
C1123 C1124 1.387 . S
C1123 H1126 0.950 . S
C1124 C1123 1.387 . S
C1124 C1127 1.387 . S
H1125 C1121 0.950 . S
H1126 C1123 0.950 . S
C1127 C1118 1.390 . S
C1127 H1120 0.950 . S
C1127 C1124 1.387 . S
C1128 C1129 1.387 . S
C1128 H1132 0.950 . S
C1128 C1137 1.390 1_545 S
C1129 C1128 1.387 . S
C1129 C1131 1.387 . S
H1130 C1137 0.950 . S
C1131 C1129 1.387 . S
C1131 C1133 1.390 1_545 S
C1131 H1135 0.950 . S
H1132 C1128 0.950 . S
C1133 C1131 1.390 1_565 S
C1133 C1134 1.387 . S
C1133 H1136 0.950 . S
C1134 C1133 1.387 . S
C1134 C1137 1.387 . S
H1135 C1131 0.950 . S
H1136 C1133 0.950 . S
C1137 C1128 1.390 1_565 S
C1137 H1130 0.950 . S
C1137 C1134 1.387 . S
C1138 C1139 1.387 . S
C1138 H1142 0.950 . S
C1138 C1147 1.390 1_655 S
C1139 C1138 1.387 . S
C1139 C1141 1.387 1_655 S
H1140 C1147 0.950 . S
C1141 C1139 1.387 1_455 S
C1141 C1143 1.390 . S
C1141 H1145 0.950 1_455 S
H1142 C1138 0.950 . S
C1143 C1141 1.390 . S
C1143 C1144 1.387 . S
C1143 H1146 0.950 . S
C1144 C1143 1.387 . S
C1144 C1147 1.387 . S
H1145 C1141 0.950 1_655 S
H1146 C1143 0.950 . S
C1147 C1138 1.390 1_455 S
C1147 H1140 0.950 . S
C1147 C1144 1.387 . S
C1148 C1149 1.387 . S
C1148 H1152 0.950 . S
C1148 C1157 1.390 . S
C1149 C1148 1.387 . S
C1149 C1151 1.387 . S
H1150 C1157 0.950 . S
C1151 C1149 1.387 . S
C1151 C1153 1.390 . S
C1151 H1155 0.950 . S
H1152 C1148 0.950 . S
C1153 C1151 1.390 . S
C1153 C1154 1.387 . S
C1153 H1156 0.950 . S
C1154 C1153 1.387 . S
C1154 C1157 1.387 . S
H1155 C1151 0.950 . S
H1156 C1153 0.950 . S
C1157 C1148 1.390 . S
C1157 H1150 0.950 . S
C1157 C1154 1.387 . S
C1158 C1159 1.387 . S
C1158 H1162 0.950 . S
C1158 C1167 1.390 . S
C1159 C1158 1.387 . S
C1159 C1161 1.387 . S
H1160 C1167 0.950 . S
C1161 C1159 1.387 . S
C1161 C1163 1.390 . S
C1161 H1165 0.950 . S
H1162 C1158 0.950 . S
C1163 C1161 1.390 . S
C1163 C1164 1.387 . S
C1163 H1166 0.950 . S
C1164 C1163 1.387 . S
C1164 C1167 1.387 . S
H1165 C1161 0.950 . S
H1166 C1163 0.950 . S
C1167 C1158 1.390 . S
C1167 H1160 0.950 . S
C1167 C1164 1.387 . S
C1168 C1169 1.387 . S
C1168 H1172 0.950 . S
C1168 C1177 1.390 . S
C1169 C1168 1.387 . S
C1169 C1171 1.387 . S
H1170 C1177 0.950 . S
C1171 C1169 1.387 . S
C1171 C1173 1.390 . S
C1171 H1175 0.950 . S
H1172 C1168 0.950 . S
C1173 C1171 1.390 . S
C1173 C1174 1.387 . S
C1173 H1176 0.950 . S
C1174 C1173 1.387 . S
C1174 C1177 1.387 . S
H1175 C1171 0.950 . S
H1176 C1173 0.950 . S
C1177 C1168 1.390 . S
C1177 H1170 0.950 . S
C1177 C1174 1.387 . S
C1178 C1179 1.387 . S
C1178 H1182 0.950 . S
C1178 C1187 1.390 . S
C1179 C1178 1.387 . S
C1179 C1181 1.387 . S
H1180 C1187 0.950 . S
C1181 C1179 1.387 . S
C1181 C1183 1.390 . S
C1181 H1185 0.950 . S
H1182 C1178 0.950 . S
C1183 C1181 1.390 . S
C1183 C1184 1.387 . S
C1183 H1186 0.950 . S
C1184 C1183 1.387 . S
C1184 C1187 1.387 . S
H1185 C1181 0.950 . S
H1186 C1183 0.950 . S
C1187 C1178 1.390 . S
C1187 H1180 0.950 . S
C1187 C1184 1.387 . S
C1188 C1189 1.387 . S
C1188 H1192 0.950 . S
C1188 C1197 1.390 1_565 S
C1189 C1188 1.387 . S
C1189 C1191 1.387 . S
H1190 C1197 0.950 . S
C1191 C1189 1.387 . S
C1191 C1193 1.390 1_565 S
C1191 H1195 0.950 . S
H1192 C1188 0.950 . S
C1193 C1191 1.390 1_545 S
C1193 C1194 1.387 . S
C1193 H1196 0.950 . S
C1194 C1193 1.387 . S
C1194 C1197 1.387 . S
H1195 C1191 0.950 . S
H1196 C1193 0.950 . S
C1197 C1188 1.390 1_545 S
C1197 H1190 0.950 . S
C1197 C1194 1.387 . S
C1198 C1199 1.387 . S
C1198 H1202 0.950 . S
C1198 C1207 1.390 1_455 S
C1199 C1198 1.387 . S
C1199 C1201 1.387 1_455 S
H1200 C1207 0.950 . S
C1201 C1199 1.387 1_655 S
C1201 C1203 1.390 . S
C1201 H1205 0.950 . S
H1202 C1198 0.950 . S
C1203 C1201 1.390 . S
C1203 C1204 1.387 . S
C1203 H1206 0.950 . S
C1204 C1203 1.387 . S
C1204 C1207 1.387 . S
H1205 C1201 0.950 . S
H1206 C1203 0.950 . S
C1207 C1198 1.390 1_655 S
C1207 H1200 0.950 . S
C1207 C1204 1.387 . S
C1208 C1209 1.387 . S
C1208 H1212 0.950 . S
C1208 C1217 1.390 . S
C1209 C1208 1.387 . S
C1209 C1211 1.387 . S
H1210 C1217 0.950 . S
C1211 C1209 1.387 . S
C1211 C1213 1.390 . S
C1211 H1215 0.950 . S
H1212 C1208 0.950 . S
C1213 C1211 1.390 . S
C1213 C1214 1.387 . S
C1213 H1216 0.950 . S
C1214 C1213 1.387 . S
C1214 C1217 1.387 . S
H1215 C1211 0.950 . S
H1216 C1213 0.950 . S
C1217 C1208 1.390 . S
C1217 H1210 0.950 . S
C1217 C1214 1.387 . S
C1218 C1219 1.387 1_655 S
C1218 H1222 0.950 1_655 S
C1218 C1227 1.390 . S
C1219 C1218 1.387 1_455 S
C1219 C1221 1.387 . S
H1220 C1227 0.950 . S
C1221 C1219 1.387 . S
C1221 C1223 1.390 1_455 S
C1221 H1225 0.950 . S
H1222 C1218 0.950 1_455 S
C1223 C1221 1.390 1_655 S
C1223 C1224 1.387 . S
C1223 H1226 0.950 . S
C1224 C1223 1.387 . S
C1224 C1227 1.387 . S
H1225 C1221 0.950 . S
H1226 C1223 0.950 . S
C1227 C1218 1.390 . S
C1227 H1220 0.950 . S
C1227 C1224 1.387 . S
C1228 C1229 1.387 . S
C1228 H1232 0.950 . S
C1228 C1237 1.390 . S
C1229 C1228 1.387 . S
C1229 C1231 1.387 . S
H1230 C1237 0.950 . S
C1231 C1229 1.387 . S
C1231 C1233 1.390 . S
C1231 H1235 0.950 . S
H1232 C1228 0.950 . S
C1233 C1231 1.390 . S
C1233 C1234 1.387 . S
C1233 H1236 0.950 . S
C1234 C1233 1.387 . S
C1234 C1237 1.387 . S
H1235 C1231 0.950 . S
H1236 C1233 0.950 . S
C1237 C1228 1.390 . S
C1237 H1230 0.950 . S
C1237 C1234 1.387 . S
C1238 C1239 1.387 . S
C1238 H1242 0.950 . S
C1238 C1247 1.390 1_565 S
C1239 C1238 1.387 . S
C1239 C1241 1.387 . S
H1240 C1247 0.950 . S
C1241 C1239 1.387 . S
C1241 C1243 1.390 1_565 S
C1241 H1245 0.950 . S
H1242 C1238 0.950 . S
C1243 C1241 1.390 1_545 S
C1243 C1244 1.387 . S
C1243 H1246 0.950 . S
C1244 C1243 1.387 . S
C1244 C1247 1.387 . S
H1245 C1241 0.950 . S
H1246 C1243 0.950 . S
C1247 C1238 1.390 1_545 S
C1247 H1240 0.950 . S
C1247 C1244 1.387 . S
C1248 C1249 1.387 . S
C1248 H1252 0.950 . S
C1248 C1257 1.390 . S
C1249 C1248 1.387 . S
C1249 C1251 1.387 . S
H1250 C1257 0.950 . S
C1251 C1249 1.387 . S
C1251 C1253 1.390 . S
C1251 H1255 0.950 . S
H1252 C1248 0.950 . S
C1253 C1251 1.390 . S
C1253 C1254 1.387 . S
C1253 H1256 0.950 . S
C1254 C1253 1.387 . S
C1254 C1257 1.387 . S
H1255 C1251 0.950 . S
H1256 C1253 0.950 . S
C1257 C1248 1.390 . S
C1257 H1250 0.950 . S
C1257 C1254 1.387 . S
C1258 C1259 1.387 . S
C1258 H1262 0.950 . S
C1258 C1267 1.390 . S
C1259 C1258 1.387 . S
C1259 C1261 1.387 . S
H1260 C1267 0.950 . S
C1261 C1259 1.387 . S
C1261 C1263 1.390 . S
C1261 H1265 0.950 . S
H1262 C1258 0.950 . S
C1263 C1261 1.390 . S
C1263 C1264 1.387 . S
C1263 H1266 0.950 . S
C1264 C1263 1.387 . S
C1264 C1267 1.387 . S
H1265 C1261 0.950 . S
H1266 C1263 0.950 . S
C1267 C1258 1.390 . S
C1267 H1260 0.950 . S
C1267 C1264 1.387 . S
C1268 C1269 1.387 . S
C1268 H1272 0.950 . S
C1268 C1277 1.390 . S
C1269 C1268 1.387 . S
C1269 C1271 1.387 . S
H1270 C1277 0.950 . S
C1271 C1269 1.387 . S
C1271 C1273 1.390 . S
C1271 H1275 0.950 . S
H1272 C1268 0.950 . S
C1273 C1271 1.390 . S
C1273 C1274 1.387 . S
C1273 H1276 0.950 . S
C1274 C1273 1.387 . S
C1274 C1277 1.387 . S
H1275 C1271 0.950 . S
H1276 C1273 0.950 . S
C1277 C1268 1.390 . S
C1277 H1270 0.950 . S
C1277 C1274 1.387 . S
C1278 C1279 1.387 . S
C1278 H1282 0.950 . S
C1278 C1287 1.390 . S
C1279 C1278 1.387 . S
C1279 C1281 1.387 . S
H1280 C1287 0.950 . S
C1281 C1279 1.387 . S
C1281 C1283 1.390 . S
C1281 H1285 0.950 . S
H1282 C1278 0.950 . S
C1283 C1281 1.390 . S
C1283 C1284 1.387 . S
C1283 H1286 0.950 . S
C1284 C1283 1.387 . S
C1284 C1287 1.387 . S
H1285 C1281 0.950 . S
H1286 C1283 0.950 . S
C1287 C1278 1.390 . S
C1287 H1280 0.950 . S
C1287 C1284 1.387 . S
C1288 C1289 1.387 . S
C1288 H1292 0.950 1_455 S
C1288 C1297 1.390 . S
C1289 C1288 1.387 . S
C1289 C1291 1.387 . S
H1290 C1297 0.950 1_655 S
C1291 C1289 1.387 . S
C1291 C1293 1.390 . S
C1291 H1295 0.950 . S
H1292 C1288 0.950 1_655 S
C1293 C1291 1.390 . S
C1293 C1294 1.387 . S
C1293 H1296 0.950 . S
C1294 C1293 1.387 . S
C1294 C1297 1.387 . S
H1295 C1291 0.950 . S
H1296 C1293 0.950 . S
C1297 C1288 1.390 . S
C1297 H1290 0.950 1_455 S
C1297 C1294 1.387 . S
C1298 C1299 1.387 . S
C1298 H1302 0.950 . S
C1298 C1307 1.390 . S
C1299 C1298 1.387 . S
C1299 C1301 1.387 . S
H1300 C1307 0.950 . S
C1301 C1299 1.387 . S
C1301 C1303 1.390 . S
C1301 H1305 0.950 . S
H1302 C1298 0.950 . S
C1303 C1301 1.390 . S
C1303 C1304 1.387 . S
C1303 H1306 0.950 . S
C1304 C1303 1.387 . S
C1304 C1307 1.387 . S
H1305 C1301 0.950 . S
H1306 C1303 0.950 . S
C1307 C1298 1.390 . S
C1307 H1300 0.950 . S
C1307 C1304 1.387 . S
C1308 C1309 1.387 . S
C1308 H1312 0.950 . S
C1308 C1317 1.390 . S
C1309 C1308 1.387 . S
C1309 C1311 1.387 . S
H1310 C1317 0.950 1_455 S
C1311 C1309 1.387 . S
C1311 C1313 1.390 . S
C1311 H1315 0.950 . S
H1312 C1308 0.950 . S
C1313 C1311 1.390 . S
C1313 C1314 1.387 . S
C1313 H1316 0.950 . S
C1314 C1313 1.387 . S
C1314 C1317 1.387 . S
H1315 C1311 0.950 . S
H1316 C1313 0.950 . S
C1317 C1308 1.390 . S
C1317 H1310 0.950 1_655 S
C1317 C1314 1.387 . S
C1318 C1319 1.387 . S
C1318 H1322 0.950 . S
C1318 C1327 1.390 . S
C1319 C1318 1.387 . S
C1319 C1321 1.387 . S
H1320 C1327 0.950 . S
C1321 C1319 1.387 . S
C1321 C1323 1.390 . S
C1321 H1325 0.950 . S
H1322 C1318 0.950 . S
C1323 C1321 1.390 . S
C1323 C1324 1.387 . S
C1323 H1326 0.950 . S
C1324 C1323 1.387 . S
C1324 C1327 1.387 . S
H1325 C1321 0.950 . S
H1326 C1323 0.950 . S
C1327 C1318 1.390 . S
C1327 H1320 0.950 . S
C1327 C1324 1.387 . S
C1328 C1329 1.387 . S
C1328 H1332 0.950 . S
C1328 C1337 1.390 . S
C1329 C1328 1.387 . S
C1329 C1331 1.387 . S
H1330 C1337 0.950 . S
C1331 C1329 1.387 . S
C1331 C1333 1.390 . S
C1331 H1335 0.950 . S
H1332 C1328 0.950 . S
C1333 C1331 1.390 . S
C1333 C1334 1.387 . S
C1333 H1336 0.950 . S
C1334 C1333 1.387 . S
C1334 C1337 1.387 . S
H1335 C1331 0.950 . S
H1336 C1333 0.950 . S
C1337 C1328 1.390 . S
C1337 H1330 0.950 . S
C1337 C1334 1.387 . S
C1338 C1339 1.387 . S
C1338 H1342 0.950 . S
C1338 C1347 1.390 . S
C1339 C1338 1.387 . S
C1339 C1341 1.387 . S
H1340 C1347 0.950 . S
C1341 C1339 1.387 . S
C1341 C1343 1.390 . S
C1341 H1345 0.950 . S
H1342 C1338 0.950 . S
C1343 C1341 1.390 . S
C1343 C1344 1.387 . S
C1343 H1346 0.950 . S
C1344 C1343 1.387 . S
C1344 C1347 1.387 . S
H1345 C1341 0.950 . S
H1346 C1343 0.950 . S
C1347 C1338 1.390 . S
C1347 H1340 0.950 . S
C1347 C1344 1.387 . S
C1348 C1349 1.387 . S
C1348 H1352 0.950 . S
C1348 C1357 1.390 . S
C1349 C1348 1.387 . S
C1349 C1351 1.387 . S
H1350 C1357 0.950 . S
C1351 C1349 1.387 . S
C1351 C1353 1.390 . S
C1351 H1355 0.950 . S
H1352 C1348 0.950 . S
C1353 C1351 1.390 . S
C1353 C1354 1.387 . S
C1353 H1356 0.950 . S
C1354 C1353 1.387 . S
C1354 C1357 1.387 . S
H1355 C1351 0.950 . S
H1356 C1353 0.950 . S
C1357 C1348 1.390 . S
C1357 H1350 0.950 . S
C1357 C1354 1.387 . S
C1358 C1359 1.387 . S
C1358 H1362 0.950 . S
C1358 C1367 1.390 . S
C1359 C1358 1.387 . S
C1359 C1361 1.387 . S
H1360 C1367 0.950 . S
C1361 C1359 1.387 . S
C1361 C1363 1.390 . S
C1361 H1365 0.950 . S
H1362 C1358 0.950 . S
C1363 C1361 1.390 . S
C1363 C1364 1.387 . S
C1363 H1366 0.950 . S
C1364 C1363 1.387 . S
C1364 C1367 1.387 . S
H1365 C1361 0.950 . S
H1366 C1363 0.950 . S
C1367 C1358 1.390 . S
C1367 H1360 0.950 . S
C1367 C1364 1.387 . S
C1368 C1369 1.387 . S
C1368 H1372 0.950 . S
C1368 C1377 1.390 . S
C1369 C1368 1.387 . S
C1369 C1371 1.387 . S
H1370 C1377 0.950 . S
C1371 C1369 1.387 . S
C1371 C1373 1.390 . S
C1371 H1375 0.950 . S
H1372 C1368 0.950 . S
C1373 C1371 1.390 . S
C1373 C1374 1.387 . S
C1373 H1376 0.950 . S
C1374 C1373 1.387 . S
C1374 C1377 1.387 . S
H1375 C1371 0.950 . S
H1376 C1373 0.950 . S
C1377 C1368 1.390 . S
C1377 H1370 0.950 . S
C1377 C1374 1.387 . S
C1378 C1379 1.387 . S
C1378 H1382 0.950 . S
C1378 C1387 1.390 . S
C1379 C1378 1.387 . S
C1379 C1381 1.387 . S
H1380 C1387 0.950 . S
C1381 C1379 1.387 . S
C1381 C1383 1.390 . S
C1381 H1385 0.950 . S
H1382 C1378 0.950 . S
C1383 C1381 1.390 . S
C1383 C1384 1.387 . S
C1383 H1386 0.950 . S
C1384 C1383 1.387 . S
C1384 C1387 1.387 . S
H1385 C1381 0.950 . S
H1386 C1383 0.950 . S
C1387 C1378 1.390 . S
C1387 H1380 0.950 . S
C1387 C1384 1.387 . S
C1388 C1389 1.387 . S
C1388 H1392 0.950 . S
C1388 C1397 1.390 . S
C1389 C1388 1.387 . S
C1389 C1391 1.387 . S
H1390 C1397 0.950 . S
C1391 C1389 1.387 . S
C1391 C1393 1.390 . S
C1391 H1395 0.950 . S
H1392 C1388 0.950 . S
C1393 C1391 1.390 . S
C1393 C1394 1.387 . S
C1393 H1396 0.950 . S
C1394 C1393 1.387 . S
C1394 C1397 1.387 . S
H1395 C1391 0.950 . S
H1396 C1393 0.950 . S
C1397 C1388 1.390 . S
C1397 H1390 0.950 . S
C1397 C1394 1.387 . S
C1398 C1399 1.387 . S
C1398 H1402 0.950 . S
C1398 C1407 1.390 . S
C1399 C1398 1.387 . S
C1399 C1401 1.387 . S
H1400 C1407 0.950 . S
C1401 C1399 1.387 . S
C1401 C1403 1.390 . S
C1401 H1405 0.950 . S
H1402 C1398 0.950 . S
C1403 C1401 1.390 . S
C1403 C1404 1.387 . S
C1403 H1406 0.950 . S
C1404 C1403 1.387 . S
C1404 C1407 1.387 . S
H1405 C1401 0.950 . S
H1406 C1403 0.950 . S
C1407 C1398 1.390 . S
C1407 H1400 0.950 . S
C1407 C1404 1.387 . S
C1408 C1409 1.387 . S
C1408 H1412 0.950 . S
C1408 C1417 1.390 . S
C1409 C1408 1.387 . S
C1409 C1411 1.387 . S
H1410 C1417 0.950 . S
C1411 C1409 1.387 . S
C1411 C1413 1.390 . S
C1411 H1415 0.950 . S
H1412 C1408 0.950 . S
C1413 C1411 1.390 . S
C1413 C1414 1.387 . S
C1413 H1416 0.950 . S
C1414 C1413 1.387 . S
C1414 C1417 1.387 . S
H1415 C1411 0.950 . S
H1416 C1413 0.950 . S
C1417 C1408 1.390 . S
C1417 H1410 0.950 . S
C1417 C1414 1.387 . S
C1418 C1419 1.387 . S
C1418 H1422 0.950 . S
C1418 C1427 1.390 . S
C1419 C1418 1.387 . S
C1419 C1421 1.387 . S
H1420 C1427 0.950 . S
C1421 C1419 1.387 . S
C1421 C1423 1.390 . S
C1421 H1425 0.950 . S
H1422 C1418 0.950 . S
C1423 C1421 1.390 . S
C1423 C1424 1.387 . S
C1423 H1426 0.950 . S
C1424 C1423 1.387 . S
C1424 C1427 1.387 . S
H1425 C1421 0.950 . S
H1426 C1423 0.950 . S
C1427 C1418 1.390 . S
C1427 H1420 0.950 . S
C1427 C1424 1.387 . S
C1428 C1429 1.387 . S
C1428 H1432 0.950 . S
C1428 C1437 1.390 . S
C1429 C1428 1.387 . S
C1429 C1431 1.387 . S
H1430 C1437 0.950 . S
C1431 C1429 1.387 . S
C1431 C1433 1.390 . S
C1431 H1435 0.950 . S
H1432 C1428 0.950 . S
C1433 C1431 1.390 . S
C1433 C1434 1.387 . S
C1433 H1436 0.950 . S
C1434 C1433 1.387 . S
C1434 C1437 1.387 . S
H1435 C1431 0.950 . S
H1436 C1433 0.950 . S
C1437 C1428 1.390 . S
C1437 H1430 0.950 . S
C1437 C1434 1.387 . S
C1438 C1439 1.387 . S
C1438 H1442 0.950 . S
C1438 C1447 1.390 . S
C1439 C1438 1.387 . S
C1439 C1441 1.387 . S
H1440 C1447 0.950 . S
C1441 C1439 1.387 . S
C1441 C1443 1.390 . S
C1441 H1445 0.950 . S
H1442 C1438 0.950 . S
C1443 C1441 1.390 . S
C1443 C1444 1.387 . S
C1443 H1446 0.950 . S
C1444 C1443 1.387 . S
C1444 C1447 1.387 . S
H1445 C1441 0.950 . S
H1446 C1443 0.950 . S
C1447 C1438 1.390 . S
C1447 H1440 0.950 . S
C1447 C1444 1.387 . S
C1448 C1449 1.387 . S
C1448 H1452 0.950 . S
C1448 C1457 1.390 . S
C1449 C1448 1.387 . S
C1449 C1451 1.387 . S
H1450 C1457 0.950 . S
C1451 C1449 1.387 . S
C1451 C1453 1.390 . S
C1451 H1455 0.950 . S
H1452 C1448 0.950 . S
C1453 C1451 1.390 . S
C1453 C1454 1.387 . S
C1453 H1456 0.950 . S
C1454 C1453 1.387 . S
C1454 C1457 1.387 . S
H1455 C1451 0.950 . S
H1456 C1453 0.950 . S
C1457 C1448 1.390 . S
C1457 H1450 0.950 . S
C1457 C1454 1.387 . S
C919 C124 1.462 . S
C924 C229 1.385 . S
C929 C130 1.501 . S
C934 C313 1.430 . S
C939 C115 1.487 . S
C944 C393 1.443 . S
C949 C106 1.465 . S
C954 C309 1.426 . S
C964 C397 1.383 . S
C959 C85 1.458 . S
C969 C97 1.435 . S
C974 C225 1.392 . S
C984 C218 1.404 . S
C979 C103 1.482 . S
C994 C302 1.409 . S
C989 C88 1.480 . S
C999 C94 1.485 . S
C1004 C404 1.444 . S
C1009 C121 1.462 . S
C1014 C320 1.424 . S
C1019 C133 1.438 . S
C1024 C386 1.361 . S
C1034 C236 1.411 . S
C1029 C112 1.454 . S
C1044 C481 1.386 . S
C1039 C16 1.462 . S
C1049 C22 1.501 . S
C1054 C565 1.429 . S
C1059 C7 1.487 . S
C1064 C645 1.446 . S
C1069 C160 1.464 . S
C1074 C561 1.423 . S
C1079 C139 1.458 . S
C1084 C649 1.380 . S
C1089 C151 1.435 . S
C1094 C477 1.392 . S
C1099 C157 1.481 . S
C1104 C470 1.401 . S
C1109 C142 1.480 . S
C1114 C554 1.412 . S
C1124 C656 1.444 . S
C1119 C148 1.485 . S
C1129 C13 1.462 . S
C1134 C572 1.422 . S
C1144 C638 1.364 . S
C1139 C25 1.437 . S
C1149 C4 1.456 . S
C1154 C488 1.414 . S
C1164 C733 1.385 . S
C1159 C70 1.462 . S
C1169 C76 1.501 . S
C1174 C817 1.430 . S
C1184 C897 1.445 . S
C1179 C61 1.487 . S
C1194 C813 1.426 . S
C1189 C52 1.465 . S
C1204 C901 1.380 . S
C1199 C31 1.458 . S
C1209 C43 1.436 . S
C1214 C729 1.395 . S
C1219 C49 1.480 . S
C1224 C722 1.401 . S
C1229 C34 1.480 . S
C1234 C806 1.413 . S
C1244 C908 1.443 . S
C1239 C40 1.485 . S
C1249 C67 1.463 . S
C1254 C824 1.424 . S
C1259 C79 1.438 . S
C1264 C890 1.361 . S
C1269 C58 1.455 . S
C1274 C740 1.414 . S
C1279 C140 1.508 . S
C1284 C232 1.405 . S
C1294 C316 1.386 . S
C1289 C149 1.515 . S
C1299 C158 1.517 . S
C1304 C388 1.398 . S
C1309 C59 1.529 . S
C1314 C304 1.397 . S
C1319 C68 1.505 . S
C1324 C400 1.385 . S
C1334 C220 1.410 . S
C1329 C77 1.508 . S
C1339 C32 1.508 . S
C1344 C484 1.405 . S
C1349 C41 1.515 . S
C1354 C568 1.383 . S
C1359 C50 1.518 . S
C1364 C640 1.396 . S
C1369 C113 1.529 . S
C1374 C556 1.398 . S
C1384 C652 1.385 . S
C1379 C122 1.505 . S
C1389 C131 1.508 . S
C1394 C472 1.407 . S
C1399 C86 1.508 . S
C1404 C736 1.409 . S
C1409 C95 1.515 . S
C1414 C820 1.383 . S
C1424 C892 1.395 . S
C1419 C104 1.517 . S
C1429 C5 1.529 . S
C1434 C808 1.398 . S
C1439 C14 1.505 . S
C1444 C904 1.385 . S
C1449 C23 1.508 . S
C1454 C724 1.407 . S
