# Generated by pormake.
# Topology nom, (4,4)-cn, num edge types: 1
# Building blocks:
#     Node 0, Type 0, BuildingBlock: MIFKUJ_clean_linker_1, # of connection points: 4
#     Node 1, Type 0, BuildingBlock: MIFKUJ_clean_linker_1, # of connection points: 4
#     Node 2, Type 0, BuildingBlock: MIFKUJ_clean_linker_1, # of connection points: 4
#     Node 3, Type 0, BuildingBlock: MIFKUJ_clean_linker_1, # of connection points: 4
#     Node 4, Type 0, BuildingBlock: MIFKUJ_clean_linker_1, # of connection points: 4
#     Node 5, Type 0, BuildingBlock: MIFKUJ_clean_linker_1, # of connection points: 4
#     Node 6, Type 1, BuildingBlock: QUQFOY_clean_sbu_1, # of connection points: 4
#     Node 7, Type 1, BuildingBlock: QUQFOY_clean_sbu_1, # of connection points: 4
#     Node 8, Type 1, BuildingBlock: QUQFOY_clean_sbu_1, # of connection points: 4
#     Node 9, Type 1, BuildingBlock: QUQFOY_clean_sbu_1, # of connection points: 4
#     Node 10, Type 1, BuildingBlock: QUQFOY_clean_sbu_1, # of connection points: 4
#     Node 11, Type 1, BuildingBlock: QUQFOY_clean_sbu_1, # of connection points: 4
#     Edge 12, Type (0, 1), BuildingBlock: KIFKEQ_clean_linker_1, # of connection points: 2
#     Edge 13, Type (0, 1), BuildingBlock: KIFKEQ_clean_linker_1, # of connection points: 2
#     Edge 14, Type (0, 1), BuildingBlock: KIFKEQ_clean_linker_1, # of connection points: 2
#     Edge 15, Type (0, 1), BuildingBlock: KIFKEQ_clean_linker_1, # of connection points: 2
#     Edge 16, Type (0, 1), BuildingBlock: KIFKEQ_clean_linker_1, # of connection points: 2
#     Edge 17, Type (0, 1), BuildingBlock: KIFKEQ_clean_linker_1, # of connection points: 2
#     Edge 18, Type (0, 1), BuildingBlock: KIFKEQ_clean_linker_1, # of connection points: 2
#     Edge 19, Type (0, 1), BuildingBlock: KIFKEQ_clean_linker_1, # of connection points: 2
#     Edge 20, Type (0, 1), BuildingBlock: KIFKEQ_clean_linker_1, # of connection points: 2
#     Edge 21, Type (0, 1), BuildingBlock: KIFKEQ_clean_linker_1, # of connection points: 2
#     Edge 22, Type (0, 1), BuildingBlock: KIFKEQ_clean_linker_1, # of connection points: 2
#     Edge 23, Type (0, 1), BuildingBlock: KIFKEQ_clean_linker_1, # of connection points: 2
#     Edge 24, Type (0, 1), BuildingBlock: KIFKEQ_clean_linker_1, # of connection points: 2
#     Edge 25, Type (0, 1), BuildingBlock: KIFKEQ_clean_linker_1, # of connection points: 2
#     Edge 26, Type (0, 1), BuildingBlock: KIFKEQ_clean_linker_1, # of connection points: 2
#     Edge 27, Type (0, 1), BuildingBlock: KIFKEQ_clean_linker_1, # of connection points: 2
#     Edge 28, Type (0, 1), BuildingBlock: KIFKEQ_clean_linker_1, # of connection points: 2
#     Edge 29, Type (0, 1), BuildingBlock: KIFKEQ_clean_linker_1, # of connection points: 2
#     Edge 30, Type (0, 1), BuildingBlock: KIFKEQ_clean_linker_1, # of connection points: 2
#     Edge 31, Type (0, 1), BuildingBlock: KIFKEQ_clean_linker_1, # of connection points: 2
#     Edge 32, Type (0, 1), BuildingBlock: KIFKEQ_clean_linker_1, # of connection points: 2
#     Edge 33, Type (0, 1), BuildingBlock: KIFKEQ_clean_linker_1, # of connection points: 2
#     Edge 34, Type (0, 1), BuildingBlock: KIFKEQ_clean_linker_1, # of connection points: 2
#     Edge 35, Type (0, 1), BuildingBlock: KIFKEQ_clean_linker_1, # of connection points: 2
# Relax obj value: 0.014
# Max RMSD: 0.114
# Mean RMSD: 0.111
data_MOF--net-nom--node1-QUQFOY_clean_sbu_1--node2-MIFKUJ_clean_linker_1--edge1-KIFKEQ_clean_linker_1
_symmetry_space_group_name_H-M    P1
_symmetry_Int_Tables_number       1
_symmetry_cell_setting            triclinic
loop_
_symmetry_equiv_pos_as_xyz
'x, y, z'
_cell_length_a     56.489691
_cell_length_b     56.487207
_cell_length_c     54.440801
_cell_angle_alpha  90.022961
_cell_angle_beta   90.003752
_cell_angle_gamma 119.96893
loop_
_atom_site_label
_atom_site_type_symbol
_atom_site_fract_x
_atom_site_fract_y
_atom_site_fract_z
_atom_type_partial_charge
H0 H 0.98014 0.47151 0.28133 0.0
H1 H 0.94335 0.44962 0.25124 0.0
H2 H 0.92166 0.51206 0.26387 0.0
H3 H 0.95779 0.533 0.29475 0.0
H4 H 0.02531 0.52926 0.28172 0.0
H5 H 0.94499 0.46453 0.32988 0.0
H6 H 0.89772 0.44641 0.34353 0.0
H7 H 0.91918 0.52565 0.37314 0.0
H8 H 0.96609 0.54376 0.35885 0.0
H9 H 0.04692 0.58081 0.37777 0.0
H10 H 0.08306 0.59864 0.40882 0.0
H11 H 0.11056 0.54432 0.38208 0.0
H12 H 0.07488 0.52721 0.35079 0.0
H13 H 0.0045 0.52951 0.37031 0.0
H14 H 0.07455 0.59692 0.32207 0.0
H15 H 0.12142 0.62531 0.3081 0.0
H16 H 0.12093 0.55357 0.2796 0.0
H17 H 0.07329 0.52536 0.29289 0.0
C18 C 0.97156 0.50376 0.29023 0.0
C19 C 0.96741 0.48042 0.27754 0.0
C20 C 0.94644 0.46804 0.26025 0.0
C21 C 0.92947 0.47906 0.25499 0.0
C22 C 0.93393 0.50268 0.26769 0.0
C23 C 0.95472 0.51484 0.28522 0.0
C24 C 0.99342 0.51638 0.30889 0.0
C25 C 0.02076 0.52886 0.30113 0.0
C26 C 0.98745 0.51718 0.33402 0.0
C27 C 0.959 0.5056 0.34307 0.0
C28 C 0.93944 0.47801 0.33919 0.0
C29 C 0.9125 0.46762 0.34721 0.0
C30 C 0.90464 0.48463 0.3593 0.0
C31 C 0.92444 0.51211 0.36355 0.0
C32 C 0.95133 0.52244 0.35557 0.0
C33 C 0.05833 0.55281 0.36192 0.0
C34 C 0.06081 0.57283 0.37863 0.0
C35 C 0.08142 0.58291 0.39641 0.0
C36 C 0.09977 0.57292 0.39799 0.0
C37 C 0.09716 0.55286 0.38115 0.0
C38 C 0.07668 0.54295 0.3633 0.0
C39 C 0.03631 0.54174 0.34322 0.0
C40 C 0.00902 0.52963 0.35092 0.0
C41 C 0.04225 0.54222 0.31795 0.0
C42 C 0.07057 0.55904 0.3087 0.0
C43 C 0.08455 0.58732 0.31278 0.0
C44 C 0.11148 0.6035 0.30493 0.0
C45 C 0.12526 0.59175 0.29301 0.0
C46 C 0.11098 0.56338 0.28855 0.0
C47 C 0.08379 0.54719 0.2962 0.0
H48 H 0.42611 0.96619 0.52683 0.0
H49 H 0.39847 0.91947 0.54207 0.0
H50 H 0.456 0.89859 0.51081 0.0
H51 H 0.48395 0.94563 0.49616 0.0
H52 H 0.48004 0.00523 0.53673 0.0
H53 H 0.42587 0.95529 0.46347 0.0
H54 H 0.41044 0.91774 0.43375 0.0
H55 H 0.49448 0.9436 0.41618 0.0
H56 H 0.50974 0.98106 0.44583 0.0
H57 H 0.54344 0.06744 0.44964 0.0
H58 H 0.56222 0.11352 0.43279 0.0
H59 H 0.50826 0.12696 0.47969 0.0
H60 H 0.48847 0.08055 0.4951 0.0
H61 H 0.49604 0.02433 0.44746 0.0
H62 H 0.55249 0.07363 0.51457 0.0
H63 H 0.57397 0.10907 0.54588 0.0
H64 H 0.49433 0.08493 0.57633 0.0
H65 H 0.47321 0.04885 0.54548 0.0
C66 C 0.45692 0.95932 0.51015 0.0
C67 C 0.43284 0.95158 0.52339 0.0
C68 C 0.41697 0.92482 0.53191 0.0
C69 C 0.42494 0.90526 0.5275 0.0
C70 C 0.44939 0.91321 0.51464 0.0
C71 C 0.46524 0.94001 0.50607 0.0
C72 C 0.47308 0.98759 0.50054 0.0
C73 C 0.4833 0.00945 0.5172 0.0
C74 C 0.47849 0.99308 0.47519 0.0
C75 C 0.46893 0.97083 0.45684 0.0
C76 C 0.44091 0.95284 0.45317 0.0
C77 C 0.43215 0.9315 0.43619 0.0
C78 C 0.45129 0.92771 0.42279 0.0
C79 C 0.47931 0.94585 0.42647 0.0
C80 C 0.48804 0.96735 0.44322 0.0
C81 C 0.51476 0.07054 0.47391 0.0
C82 C 0.5356 0.0803 0.45618 0.0
C83 C 0.54651 0.10679 0.44674 0.0
C84 C 0.53681 0.12408 0.45484 0.0
C85 C 0.51602 0.1142 0.47268 0.0
C86 C 0.50494 0.08771 0.48187 0.0
C87 C 0.50249 0.04219 0.48362 0.0
C88 C 0.49297 0.02026 0.46701 0.0
C89 C 0.4985 0.03661 0.50911 0.0
C90 C 0.51127 0.05865 0.5277 0.0
C91 C 0.53969 0.07608 0.52797 0.0
C92 C 0.55192 0.09646 0.54582 0.0
C93 C 0.53594 0.09994 0.56372 0.0
C94 C 0.50737 0.08257 0.56317 0.0
C95 C 0.49521 0.062 0.54547 0.0
H96 H 0.51903 0.55512 0.70052 0.0
H97 H 0.50208 0.57555 0.73051 0.0
H98 H 0.41919 0.51274 0.71469 0.0
H99 H 0.43627 0.49254 0.68455 0.0
H100 H 0.50793 0.4981 0.70019 0.0
H101 H 0.49317 0.56195 0.6505 0.0
H102 H 0.46407 0.57991 0.63628 0.0
H103 H 0.40713 0.50069 0.60617 0.0
H104 H 0.43591 0.48272 0.621 0.0
H105 H 0.48121 0.4462 0.60396 0.0
H106 H 0.50101 0.42942 0.5732 0.0
H107 H 0.58149 0.48316 0.60266 0.0
H108 H 0.56168 0.50012 0.63303 0.0
H109 H 0.48906 0.49696 0.61099 0.0
H110 H 0.49124 0.43036 0.66225 0.0
H111 H 0.50956 0.40274 0.67944 0.0
H112 H 0.58012 0.47591 0.70623 0.0
H113 H 0.56133 0.50359 0.68936 0.0
C114 C 0.47888 0.52243 0.69034 0.0
C115 C 0.49722 0.54581 0.70353 0.0
C116 C 0.48752 0.55753 0.72048 0.0
C117 C 0.45934 0.54574 0.72482 0.0
C118 C 0.44101 0.52215 0.71174 0.0
C119 C 0.45071 0.51066 0.69452 0.0
C120 C 0.48924 0.51034 0.67218 0.0
C121 C 0.50427 0.49833 0.68065 0.0
C122 C 0.4832 0.50939 0.64685 0.0
C123 C 0.46654 0.5209 0.63708 0.0
C124 C 0.47437 0.54846 0.6409 0.0
C125 C 0.45785 0.55876 0.63257 0.0
C126 C 0.4332 0.54169 0.62022 0.0
C127 C 0.42577 0.51427 0.61594 0.0
C128 C 0.4423 0.50402 0.62423 0.0
C129 C 0.51995 0.47429 0.62085 0.0
C130 C 0.5031 0.45429 0.60379 0.0
C131 C 0.51441 0.4446 0.58637 0.0
C132 C 0.54281 0.455 0.58554 0.0
C133 C 0.55958 0.47493 0.60273 0.0
C134 C 0.54826 0.48446 0.62021 0.0
C135 C 0.50826 0.48525 0.63895 0.0
C136 C 0.49297 0.49701 0.63051 0.0
C137 C 0.51323 0.48519 0.66438 0.0
C138 C 0.52498 0.46897 0.67452 0.0
C139 C 0.51065 0.44046 0.67182 0.0
C140 C 0.52105 0.42473 0.68171 0.0
C141 C 0.54617 0.43725 0.69419 0.0
C142 C 0.56073 0.46585 0.69663 0.0
C143 C 0.55002 0.48159 0.68711 0.0
H144 H 0.05004 0.54004 0.78125 0.0
H145 H 0.08758 0.56224 0.75168 0.0
H146 H 0.11187 0.50249 0.76761 0.0
H147 H 0.07434 0.48045 0.79735 0.0
H148 H 0.00596 0.48271 0.78184 0.0
H149 H 0.08392 0.54867 0.83123 0.0
H150 H 0.13105 0.56826 0.84576 0.0
H151 H 0.11162 0.48984 0.87593 0.0
H152 H 0.06475 0.47027 0.86083 0.0
H153 H 0.98014 0.43285 0.87899 0.0
H154 H 0.94354 0.41796 0.90963 0.0
H155 H 0.92051 0.47416 0.87912 0.0
H156 H 0.95712 0.48906 0.84879 0.0
H157 H 0.02477 0.48406 0.8711 0.0
H158 H 0.9542 0.41615 0.82261 0.0
H159 H 0.90735 0.38892 0.80814 0.0
H160 H 0.91141 0.46164 0.7778 0.0
H161 H 0.959 0.48856 0.7915 0.0
C162 C 0.05953 0.5087 0.79145 0.0
C163 C 0.06344 0.53173 0.77832 0.0
C164 C 0.08497 0.54448 0.76161 0.0
C165 C 0.10265 0.53412 0.75748 0.0
C166 C 0.09845 0.5108 0.77042 0.0
C167 C 0.07713 0.49827 0.78739 0.0
C168 C 0.03722 0.49591 0.80967 0.0
C169 C 0.01008 0.48333 0.80136 0.0
C170 C 0.04262 0.49557 0.83502 0.0
C171 C 0.07092 0.50793 0.84469 0.0
C172 C 0.08987 0.5357 0.84089 0.0
C173 C 0.11673 0.54692 0.8494 0.0
C174 C 0.12513 0.53058 0.86191 0.0
C175 C 0.10592 0.50289 0.86606 0.0
C176 C 0.07908 0.49172 0.85761 0.0
C177 C 0.97123 0.46194 0.86158 0.0
C178 C 0.96715 0.44188 0.87893 0.0
C179 C 0.94616 0.43329 0.89627 0.0
C180 C 0.92922 0.44494 0.89673 0.0
C181 C 0.93338 0.465 0.87931 0.0
C182 C 0.95415 0.47337 0.86189 0.0
C183 C 0.99358 0.47153 0.84332 0.0
C184 C 0.02068 0.48346 0.85157 0.0
C185 C 0.98821 0.47057 0.81788 0.0
C186 C 0.95997 0.45437 0.80826 0.0
C187 C 0.945 0.42619 0.81277 0.0
C188 C 0.91807 0.41069 0.80464 0.0
C189 C 0.90528 0.42306 0.79205 0.0
C190 C 0.92057 0.45132 0.78721 0.0
C191 C 0.94775 0.4668 0.7951 0.0
H192 H 0.59122 0.06065 0.02523 0.0
H193 H 0.61868 0.10739 0.04037 0.0
H194 H 0.5606 0.12769 0.00938 0.0
H195 H 0.53334 0.08085 0.99409 0.0
H196 H 0.53775 0.02192 0.03549 0.0
H197 H 0.59074 0.06981 0.96116 0.0
H198 H 0.60612 0.10621 0.93053 0.0
H199 H 0.52191 0.08211 0.91501 0.0
H200 H 0.50688 0.04514 0.94486 0.0
H201 H 0.47266 0.95918 0.94919 0.0
H202 H 0.45156 0.91213 0.93371 0.0
H203 H 0.50449 0.8973 0.98043 0.0
H204 H 0.52643 0.94444 0.99494 0.0
H205 H 0.51989 1.00118 0.9466 0.0
H206 H 0.46476 0.95278 0.01515 0.0
H207 H 0.44448 0.91774 0.04697 0.0
H208 H 0.52511 0.94341 0.07579 0.0
H209 H 0.54505 0.97893 0.04438 0.0
C210 C 0.56038 0.06732 0.00834 0.0
C211 C 0.58437 0.07516 0.02177 0.0
C212 C 0.59997 0.10187 0.03051 0.0
C213 C 0.59182 0.12132 0.02615 0.0
C214 C 0.56765 0.11335 0.01279 0.0
C215 C 0.55204 0.08658 0.00405 0.0
C216 C 0.5441 0.03888 0.99909 0.0
C217 C 0.53408 0.01733 0.01604 0.0
C218 C 0.53823 0.03293 0.97385 0.0
C219 C 0.5477 0.05483 0.95519 0.0
C220 C 0.57567 0.07239 0.95103 0.0
C221 C 0.5844 0.09333 0.93365 0.0
C222 C 0.56528 0.09722 0.92023 0.0
C223 C 0.53724 0.0795 0.92459 0.0
C224 C 0.52857 0.0584 0.94174 0.0
C225 C 0.50081 0.95533 0.97367 0.0
C226 C 0.47984 0.94587 0.95603 0.0
C227 C 0.46776 0.91901 0.94722 0.0
C228 C 0.4762 0.90107 0.95614 0.0
C229 C 0.49726 0.91058 0.97362 0.0
C230 C 0.50969 0.93751 0.98202 0.0
C231 C 0.51396 0.98395 0.98299 0.0
C232 C 0.52337 0.00559 0.96608 0.0
C233 C 0.51858 0.99003 0.00839 0.0
C234 C 0.5064 0.9684 0.0274 0.0
C235 C 0.47803 0.95075 0.0283 0.0
C236 C 0.46648 0.93063 0.04644 0.0
C237 C 0.48312 0.92771 0.06402 0.0
C238 C 0.5116 0.94535 0.06287 0.0
C239 C 0.52309 0.96561 0.04487 0.0
H240 H 0.52484 0.48822 0.20015 0.0
H241 H 0.54011 0.46594 0.22974 0.0
H242 H 0.62415 0.52499 0.21325 0.0
H243 H 0.60873 0.54709 0.18347 0.0
H244 H 0.53828 0.54521 0.1998 0.0
H245 H 0.54779 0.47915 0.1493 0.0
H246 H 0.57342 0.45781 0.13413 0.0
H247 H 0.63561 0.53588 0.10581 0.0
H248 H 0.60956 0.55691 0.1207 0.0
H249 H 0.56288 0.59627 0.10285 0.0
H250 H 0.54142 0.61134 0.07211 0.0
H251 H 0.46212 0.55618 0.10299 0.0
H252 H 0.48355 0.54101 0.13334 0.0
H253 H 0.55584 0.54515 0.11043 0.0
H254 H 0.5527 0.61259 0.16073 0.0
H255 H 0.53308 0.63914 0.17779 0.0
H256 H 0.46533 0.56521 0.20689 0.0
H257 H 0.48538 0.53867 0.19012 0.0
C258 C 0.56568 0.51921 0.18966 0.0
C259 C 0.54654 0.49633 0.20293 0.0
C260 C 0.55527 0.48354 0.21965 0.0
C261 C 0.58329 0.49372 0.22367 0.0
C262 C 0.60244 0.51682 0.21053 0.0
C263 C 0.59369 0.52938 0.19353 0.0
C264 C 0.55623 0.53229 0.17166 0.0
C265 C 0.54181 0.54491 0.18024 0.0
C266 C 0.56187 0.53286 0.14628 0.0
C267 C 0.5769 0.51967 0.13632 0.0
C268 C 0.56696 0.49164 0.13984 0.0
C269 C 0.5817 0.47949 0.13121 0.0
C270 C 0.60667 0.49512 0.11882 0.0
C271 C 0.6163 0.52313 0.11497 0.0
C272 C 0.6015 0.53523 0.12356 0.0
C273 C 0.52483 0.56767 0.12046 0.0
C274 C 0.54089 0.58753 0.10301 0.0
C275 C 0.52864 0.59623 0.08559 0.0
C276 C 0.5001 0.5849 0.08516 0.0
C277 C 0.48413 0.56511 0.10275 0.0
C278 C 0.49638 0.5566 0.12022 0.0
C279 C 0.5374 0.55761 0.13853 0.0
C280 C 0.55239 0.54555 0.12999 0.0
C281 C 0.5328 0.558 0.16401 0.0
C282 C 0.52044 0.5737 0.17414 0.0
C283 C 0.53363 0.6021 0.17078 0.0
C284 C 0.52249 0.61723 0.1806 0.0
C285 C 0.49776 0.60418 0.19368 0.0
C286 C 0.48438 0.57569 0.19681 0.0
C287 C 0.49583 0.56058 0.18736 0.0
O288 O 0.60478 0.3783 0.43208 0.0
Cd289 Cd 0.61483 0.36417 0.4012 0.0
Cd290 Cd 0.66364 0.41098 0.4071 0.0
O291 O 0.64601 0.41272 0.43993 0.0
O292 O 0.5863 0.32495 0.39849 0.0
O293 O 0.62984 0.33875 0.40581 0.0
C294 C 0.60506 0.31891 0.40301 0.0
C295 C 0.70905 0.42084 0.40614 0.0
C296 C 0.62096 0.39802 0.44577 0.0
C297 C 0.6307 0.4061 0.3618 0.0
O298 O 0.65108 0.42136 0.37528 0.0
O299 O 0.61417 0.38162 0.36815 0.0
O300 O 0.70283 0.4396 0.4099 0.0
O301 O 0.68927 0.39596 0.40385 0.0
O302 O 0.24367 0.60675 0.60687 0.0
Cd303 Cd 0.26614 0.61655 0.5748 0.0
Cd304 Cd 0.26465 0.66392 0.58086 0.0
O305 O 0.24693 0.64671 0.61409 0.0
O306 O 0.2763 0.58761 0.57199 0.0
O307 O 0.30676 0.63123 0.57753 0.0
C308 C 0.30139 0.60624 0.57537 0.0
C309 C 0.29893 0.7097 0.57839 0.0
C310 C 0.23887 0.62219 0.62044 0.0
C311 C 0.23613 0.62951 0.53659 0.0
O312 O 0.24013 0.64938 0.55028 0.0
O313 O 0.24633 0.61461 0.54219 0.0
O314 O 0.27391 0.70278 0.58297 0.0
O315 O 0.30482 0.69045 0.57609 0.0
O316 O 0.64656 0.24205 0.77339 0.0
Cd317 Cd 0.6625 0.26408 0.7414 0.0
Cd318 Cd 0.61511 0.26677 0.74473 0.0
O319 O 0.61051 0.24711 0.77777 0.0
O320 O 0.70075 0.27124 0.74165 0.0
O321 O 0.6906 0.30424 0.74354 0.0
C322 C 0.7089 0.2969 0.74376 0.0
C323 C 0.60494 0.30207 0.74194 0.0
C324 C 0.62557 0.23788 0.78548 0.0
C325 C 0.62151 0.2369 0.70128 0.0
O326 O 0.60636 0.24322 0.71359 0.0
O327 O 0.64571 0.24449 0.70843 0.0
O328 O 0.58609 0.27693 0.74445 0.0
O329 O 0.63003 0.30749 0.74186 0.0
O330 O 0.42783 0.65409 0.93339 0.0
Cd331 Cd 0.41553 0.66655 0.90283 0.0
Cd332 Cd 0.36921 0.61761 0.90878 0.0
O333 O 0.38808 0.61755 0.94143 0.0
O334 O 0.44068 0.70671 0.90034 0.0
O335 O 0.39644 0.68817 0.90804 0.0
C336 C 0.42008 0.70984 0.90523 0.0
C337 C 0.32287 0.60457 0.90808 0.0
C338 C 0.41292 0.63381 0.94709 0.0
C339 C 0.40283 0.62546 0.86324 0.0
O340 O 0.38309 0.609 0.87677 0.0
O341 O 0.41778 0.65027 0.86961 0.0
O342 O 0.3308 0.58705 0.91166 0.0
O343 O 0.34143 0.62997 0.90584 0.0
O344 O 0.7869 0.37356 0.04735 0.0
Cd345 Cd 0.76246 0.35978 0.07802 0.0
Cd346 Cd 0.76522 0.40941 0.07363 0.0
O347 O 0.7844 0.41077 0.04078 0.0
O348 O 0.7505 0.32015 0.07927 0.0
O349 O 0.72179 0.33552 0.07354 0.0
C350 C 0.72591 0.31504 0.07521 0.0
C351 C 0.7316 0.422 0.07491 0.0
C352 C 0.79263 0.39443 0.03438 0.0
C353 C 0.79094 0.39993 0.11843 0.0
O354 O 0.78752 0.4168 0.10563 0.0
O355 O 0.78118 0.37536 0.11133 0.0
O356 O 0.75705 0.43985 0.07193 0.0
O357 O 0.72499 0.39659 0.07637 0.0
O358 O 0.42173 0.78666 0.21494 0.0
Cd359 Cd 0.41476 0.76347 0.24607 0.0
Cd360 Cd 0.36486 0.76118 0.24238 0.0
O361 O 0.38067 0.78136 0.20947 0.0
O362 O 0.44575 0.75614 0.24575 0.0
O363 O 0.4026 0.72334 0.24306 0.0
C364 C 0.42821 0.73057 0.24311 0.0
C365 C 0.31931 0.72605 0.2446 0.0
C366 C 0.40528 0.79102 0.20247 0.0
C367 C 0.40063 0.78956 0.28673 0.0
O368 O 0.37922 0.78354 0.27444 0.0
O369 O 0.41743 0.78241 0.27918 0.0
O370 O 0.32575 0.75127 0.24242 0.0
O371 O 0.33888 0.72046 0.24451 0.0
H372 H 0.16584 0.63546 0.31767 0.0
H373 H 0.151 0.58772 0.25144 0.0
H374 H 0.21228 0.66656 0.30405 0.0
H375 H 0.19821 0.61848 0.23845 0.0
H376 H 0.29689 0.67015 0.24456 0.0
H377 H 0.24975 0.63573 0.25531 0.0
H378 H 0.2301 0.69968 0.26574 0.0
H379 H 0.2766 0.73385 0.25473 0.0
C380 C 0.17238 0.63156 0.30018 0.0
C381 C 0.15437 0.60927 0.28547 0.0
C382 C 0.19908 0.64932 0.29249 0.0
C383 C 0.20868 0.645 0.27012 0.0
C384 C 0.19126 0.62215 0.25582 0.0
C385 C 0.16428 0.60453 0.26334 0.0
C386 C 0.28239 0.67678 0.24887 0.0
C387 C 0.29051 0.70473 0.24888 0.0
C388 C 0.25547 0.6571 0.25495 0.0
C389 C 0.23647 0.66515 0.26155 0.0
C390 C 0.24445 0.69299 0.26096 0.0
C391 C 0.27108 0.71252 0.25453 0.0
H392 H 0.50889 0.15091 0.44434 0.0
H393 H 0.5899 0.16099 0.44201 0.0
H394 H 0.52698 0.19737 0.43008 0.0
H395 H 0.60781 0.20711 0.42594 0.0
H396 H 0.63379 0.29908 0.42754 0.0
H397 H 0.61822 0.25155 0.43814 0.0
H398 H 0.54446 0.22613 0.39601 0.0
H399 H 0.55949 0.27363 0.38654 0.0
C400 C 0.5306 0.16299 0.44071 0.0
C401 C 0.54793 0.15215 0.44462 0.0
C402 C 0.54095 0.18961 0.43206 0.0
C403 C 0.56892 0.20613 0.42667 0.0
C404 C 0.58622 0.19515 0.43012 0.0
C405 C 0.57587 0.16853 0.43905 0.0
C406 C 0.61441 0.28325 0.42033 0.0
C407 C 0.59772 0.29007 0.40644 0.0
C408 C 0.60549 0.25595 0.42632 0.0
C409 C 0.57984 0.23488 0.41826 0.0
C410 C 0.56395 0.24177 0.40317 0.0
C411 C 0.57266 0.26902 0.39754 0.0
H412 H 0.4473 0.59085 0.59844 0.0
H413 H 0.37772 0.51628 0.6244 0.0
H414 H 0.41685 0.60757 0.58535 0.0
H415 H 0.34744 0.53296 0.61157 0.0
H416 H 0.29691 0.55684 0.56593 0.0
H417 H 0.32982 0.54225 0.57499 0.0
H418 H 0.38686 0.62325 0.60155 0.0
H419 H 0.35401 0.63809 0.59184 0.0
C420 C 0.42553 0.57811 0.60148 0.0
C421 C 0.41491 0.55215 0.6123 0.0
C422 C 0.40809 0.58769 0.59399 0.0
C423 C 0.37966 0.57153 0.5972 0.0
C424 C 0.36915 0.5457 0.60826 0.0
C425 C 0.38653 0.53613 0.61566 0.0
C426 C 0.31658 0.57166 0.57345 0.0
C427 C 0.32277 0.59858 0.57833 0.0
C428 C 0.3354 0.56323 0.57882 0.0
C429 C 0.36084 0.58144 0.58938 0.0
C430 C 0.36751 0.60871 0.59332 0.0
C431 C 0.34867 0.61722 0.58781 0.0
H432 H 0.88069 0.42793 0.75002 0.0
H433 H 0.86338 0.38041 0.81667 0.0
H434 H 0.83315 0.39901 0.73704 0.0
H435 H 0.81657 0.35104 0.80303 0.0
H436 H 0.7492 0.28558 0.75448 0.0
H437 H 0.7965 0.31754 0.76533 0.0
H438 H 0.78267 0.38522 0.75366 0.0
H439 H 0.73479 0.35307 0.74309 0.0
C440 C 0.86683 0.41155 0.76201 0.0
C441 C 0.87612 0.40638 0.7843 0.0
C442 C 0.83965 0.39495 0.75448 0.0
C443 C 0.82137 0.37267 0.76892 0.0
C444 C 0.83041 0.36785 0.79137 0.0
C445 C 0.85734 0.38461 0.79907 0.0
C446 C 0.75619 0.30726 0.75399 0.0
C447 C 0.73818 0.31678 0.74803 0.0
C448 C 0.78326 0.32553 0.76032 0.0
C449 C 0.79311 0.35377 0.7605 0.0
C450 C 0.77552 0.3635 0.75361 0.0
C451 C 0.74817 0.34512 0.74764 0.0
H452 H 0.46945 0.88372 0.90853 0.0
H453 H 0.45496 0.85441 0.98329 0.0
H454 H 0.45229 0.83691 0.8937 0.0
H455 H 0.43751 0.80766 0.9685 0.0
H456 H 0.38759 0.72418 0.93104 0.0
H457 H 0.3978 0.77047 0.94187 0.0
H458 H 0.47194 0.80415 0.8991 0.0
H459 H 0.46207 0.75806 0.88862 0.0
C460 C 0.46217 0.86719 0.92172 0.0
C461 C 0.46359 0.8726 0.94703 0.0
C462 C 0.45249 0.8405 0.91327 0.0
C463 C 0.44355 0.81872 0.92997 0.0
C464 C 0.44403 0.82404 0.95523 0.0
C465 C 0.45417 0.85076 0.96368 0.0
C466 C 0.40582 0.74149 0.92363 0.0
C467 C 0.4241 0.73753 0.90908 0.0
C468 C 0.41171 0.76792 0.92993 0.0
C469 C 0.43567 0.79083 0.92135 0.0
C470 C 0.45323 0.78686 0.90581 0.0
C471 C 0.44763 0.76048 0.89992 0.0
H472 H 0.61466 0.45689 0.14259 0.0
H473 H 0.63552 0.50461 0.07588 0.0
H474 H 0.64261 0.43744 0.12951 0.0
H475 H 0.66377 0.48538 0.06301 0.0
H476 H 0.67815 0.39127 0.08946 0.0
H477 H 0.64604 0.40735 0.09818 0.0
H478 H 0.70705 0.48899 0.07658 0.0
H479 H 0.73893 0.47298 0.06771 0.0
C480 C 0.62488 0.46296 0.12497 0.0
C481 C 0.62287 0.48242 0.11034 0.0
C482 C 0.64091 0.45178 0.11748 0.0
C483 C 0.65544 0.45988 0.09523 0.0
C484 C 0.65311 0.47898 0.0804 0.0
C485 C 0.63697 0.49007 0.08783 0.0
C486 C 0.68456 0.41257 0.08628 0.0
C487 C 0.71112 0.43086 0.07797 0.0
C488 C 0.66624 0.42181 0.09144 0.0
C489 C 0.67403 0.44947 0.08817 0.0
C490 C 0.70029 0.46752 0.07907 0.0
C491 C 0.71863 0.45834 0.0741 0.0
H492 H 0.44103 0.87172 0.54922 0.0
H493 H 0.36943 0.87391 0.52473 0.0
H494 H 0.41202 0.82482 0.56356 0.0
H495 H 0.34055 0.82719 0.53882 0.0
H496 H 0.29341 0.75416 0.5871 0.0
H497 H 0.32494 0.8015 0.57632 0.0
H498 H 0.3823 0.77848 0.54862 0.0
H499 H 0.35086 0.73098 0.56002 0.0
C500 C 0.41912 0.86212 0.54675 0.0
C501 C 0.40752 0.8766 0.53598 0.0
C502 C 0.40251 0.83526 0.55496 0.0
C503 C 0.37393 0.82229 0.55255 0.0
C504 C 0.36242 0.83673 0.54152 0.0
C505 C 0.37898 0.86353 0.53339 0.0
C506 C 0.31286 0.7592 0.57895 0.0
C507 C 0.31955 0.73877 0.57426 0.0
C508 C 0.33088 0.78634 0.5726 0.0
C509 C 0.35599 0.79376 0.56125 0.0
C510 C 0.36318 0.7735 0.55744 0.0
C511 C 0.34515 0.74627 0.56393 0.0
H512 H 0.59611 0.44189 0.68654 0.0
H513 H 0.52006 0.39419 0.72523 0.0
H514 H 0.6115 0.41057 0.70027 0.0
H515 H 0.5357 0.36364 0.74004 0.0
H516 H 0.55431 0.29468 0.73347 0.0
H517 H 0.54175 0.32881 0.72403 0.0
H518 H 0.62599 0.39254 0.73255 0.0
H519 H 0.63878 0.35785 0.74099 0.0
C520 C 0.58296 0.42497 0.69841 0.0
C521 C 0.55682 0.4202 0.70463 0.0
C522 C 0.59178 0.40708 0.7064 0.0
C523 C 0.57474 0.38427 0.72106 0.0
C524 C 0.54911 0.38047 0.72823 0.0
C525 C 0.54017 0.39805 0.7199 0.0
C526 C 0.57019 0.31598 0.73353 0.0
C527 C 0.59756 0.32353 0.738 0.0
C528 C 0.56294 0.33567 0.72826 0.0
C529 C 0.58278 0.3636 0.72765 0.0
C530 C 0.61018 0.37124 0.73256 0.0
C531 C 0.61751 0.35139 0.73757 0.0
H532 H 0.15817 0.5801 0.884 0.0
H533 H 0.1573 0.50732 0.85832 0.0
H534 H 0.20547 0.59883 0.89751 0.0
H535 H 0.20445 0.52603 0.87153 0.0
H536 H 0.27974 0.55382 0.91714 0.0
H537 H 0.23177 0.53673 0.90788 0.0
H538 H 0.25137 0.61668 0.88165 0.0
H539 H 0.29945 0.63401 0.89159 0.0
C540 C 0.16813 0.56818 0.88111 0.0
C541 C 0.15392 0.54215 0.8702 0.0
C542 C 0.19524 0.57891 0.88884 0.0
C543 C 0.20877 0.56389 0.88577 0.0
C544 C 0.19453 0.53794 0.87471 0.0
C545 C 0.16747 0.5272 0.86708 0.0
C546 C 0.2738 0.56787 0.90965 0.0
C547 C 0.29345 0.59525 0.90495 0.0
C548 C 0.24629 0.558 0.90416 0.0
C549 C 0.2377 0.57519 0.89366 0.0
C550 C 0.25721 0.60289 0.88985 0.0
C551 C 0.28479 0.61282 0.89549 0.0
H552 H 0.60417 0.16904 0.00256 0.0
H553 H 0.61772 0.13817 0.07056 0.0
H554 H 0.63406 0.21574 0.01675 0.0
H555 H 0.64775 0.18483 0.08461 0.0
H556 H 0.72773 0.26839 0.08307 0.0
H557 H 0.69324 0.2218 0.07283 0.0
H558 H 0.63924 0.25029 0.04782 0.0
H559 H 0.67407 0.29727 0.05792 0.0
C560 C 0.61318 0.17219 0.02068 0.0
C561 C 0.60871 0.14982 0.03533 0.0
C562 C 0.6303 0.19898 0.02881 0.0
C563 C 0.64339 0.204 0.05175 0.0
C564 C 0.63832 0.18164 0.06668 0.0
C565 C 0.62116 0.1549 0.05859 0.0
C566 C 0.70841 0.26476 0.07563 0.0
C567 C 0.70368 0.28656 0.07124 0.0
C568 C 0.68856 0.23798 0.06987 0.0
C569 C 0.66351 0.23233 0.05947 0.0
C570 C 0.65846 0.25405 0.0556 0.0
C571 C 0.67831 0.2809 0.06154 0.0
H572 H 0.44631 0.59616 0.18738 0.0
H573 H 0.52322 0.64892 0.22308 0.0
H574 H 0.42869 0.62553 0.20136 0.0
H575 H 0.50544 0.6776 0.23818 0.0
H576 H 0.47991 0.74177 0.23316 0.0
H577 H 0.49547 0.71006 0.22306 0.0
H578 H 0.41362 0.64227 0.23395 0.0
H579 H 0.39776 0.67446 0.24296 0.0
C580 C 0.45922 0.6138 0.19863 0.0
C581 C 0.48617 0.62049 0.20397 0.0
C582 C 0.44913 0.63059 0.20677 0.0
C583 C 0.46568 0.65421 0.22075 0.0
C584 C 0.49229 0.66007 0.22692 0.0
C585 C 0.50248 0.64357 0.21842 0.0
C586 C 0.46521 0.72009 0.23359 0.0
C587 C 0.43758 0.71065 0.23887 0.0
C588 C 0.47421 0.70179 0.22794 0.0
C589 C 0.4559 0.67344 0.22776 0.0
C590 C 0.42827 0.66394 0.23355 0.0
C591 C 0.41918 0.68236 0.2389 0.0
H592 H 0.8743 0.50975 0.35489 0.0
H593 H 0.86978 0.43548 0.3812 0.0
H594 H 0.82751 0.49317 0.36815 0.0
H595 H 0.82275 0.41882 0.39467 0.0
H596 H 0.72926 0.38863 0.38924 0.0
H597 H 0.77672 0.40314 0.37887 0.0
H598 H 0.80152 0.48434 0.40544 0.0
H599 H 0.75428 0.47008 0.41521 0.0
C600 C 0.86339 0.48998 0.36376 0.0
C601 C 0.87586 0.47404 0.36715 0.0
C602 C 0.83655 0.48046 0.37141 0.0
C603 C 0.82143 0.45476 0.38273 0.0
C604 C 0.83375 0.43862 0.38586 0.0
C605 C 0.86068 0.44816 0.37814 0.0
C606 C 0.74493 0.40948 0.39314 0.0
C607 C 0.73797 0.42827 0.40283 0.0
C608 C 0.77214 0.41779 0.38724 0.0
C609 C 0.79289 0.44503 0.39098 0.0
C610 C 0.78599 0.46339 0.40176 0.0
C611 C 0.75889 0.45514 0.40754 0.0
H612 H 0.0952 0.58492 0.4459 0.0
H613 H 0.15254 0.58308 0.39442 0.0
H614 H 0.12961 0.60005 0.47813 0.0
H615 H 0.18675 0.59761 0.42698 0.0
H616 H 0.22524 0.59087 0.50106 0.0
H617 H 0.19333 0.57842 0.46669 0.0
H618 H 0.17474 0.64087 0.4884 0.0
H619 H 0.20642 0.6533 0.52269 0.0
C620 C 0.11522 0.58803 0.44134 0.0
C621 C 0.12106 0.5828 0.4175 0.0
C622 C 0.13491 0.59662 0.45986 0.0
C623 C 0.16086 0.60001 0.45505 0.0
C624 C 0.16681 0.59486 0.43126 0.0
C625 C 0.14717 0.58648 0.41266 0.0
C626 C 0.21449 0.60208 0.4984 0.0
C627 C 0.2183 0.623 0.51472 0.0
C628 C 0.19632 0.59501 0.47865 0.0
C629 C 0.18144 0.60857 0.47498 0.0
C630 C 0.18568 0.62983 0.49097 0.0
C631 C 0.20396 0.63705 0.51055 0.0
H632 H 0.5806 0.15161 0.55963 0.0
H633 H 0.52117 0.09641 0.61212 0.0
H634 H 0.60234 0.18586 0.59195 0.0
H635 H 0.54235 0.13103 0.64397 0.0
H636 H 0.56843 0.21019 0.68611 0.0
H637 H 0.54843 0.17819 0.65216 0.0
H638 H 0.62806 0.19092 0.63282 0.0
H639 H 0.64834 0.22306 0.66707 0.0
C640 C 0.57221 0.14667 0.57801 0.0
C641 C 0.54902 0.12118 0.58318 0.0
C642 C 0.58464 0.16635 0.59647 0.0
C643 C 0.57394 0.16111 0.62039 0.0
C644 C 0.55078 0.13575 0.62558 0.0
C645 C 0.53857 0.11596 0.60726 0.0
C646 C 0.58181 0.2064 0.67457 0.0
C647 C 0.61001 0.21912 0.6794 0.0
C648 C 0.57027 0.18793 0.65519 0.0
C649 C 0.58667 0.18195 0.64 0.0
C650 C 0.61499 0.19528 0.64423 0.0
C651 C 0.62655 0.21357 0.66387 0.0
H652 H 0.4231 0.51939 0.76179 0.0
H653 H 0.47287 0.59911 0.72961 0.0
H654 H 0.40834 0.53934 0.79377 0.0
H655 H 0.45734 0.61915 0.76096 0.0
H656 H 0.4506 0.64943 0.83732 0.0
H657 H 0.46299 0.63043 0.80285 0.0
H658 H 0.38186 0.55953 0.8032 0.0
H659 H 0.36998 0.57805 0.83846 0.0
C660 C 0.4305 0.54116 0.76137 0.0
C661 C 0.44919 0.55774 0.74334 0.0
C662 C 0.42195 0.55263 0.77962 0.0
C663 C 0.43163 0.58095 0.78005 0.0
C664 C 0.44985 0.59739 0.76156 0.0
C665 C 0.45868 0.58594 0.74352 0.0
C666 C 0.43534 0.62989 0.82989 0.0
C667 C 0.40937 0.61517 0.84073 0.0
C668 C 0.44239 0.61901 0.81 0.0
C669 C 0.4235 0.5933 0.80022 0.0
C670 C 0.39717 0.57908 0.81054 0.0
C671 C 0.39026 0.58979 0.83066 0.0
H672 H 0.89157 0.39325 0.91125 0.0
H673 H 0.91834 0.47823 0.92495 0.0
H674 H 0.85636 0.37994 0.9427 0.0
H675 H 0.88378 0.46513 0.95682 0.0
H676 H 0.80509 0.43373 0.99925 0.0
H677 H 0.83613 0.44479 0.96451 0.0
H678 H 0.85195 0.38029 0.98596 0.0
H679 H 0.82027 0.36865 0.01998 0.0
C680 C 0.89 0.40906 0.92113 0.0
C681 C 0.90767 0.43675 0.91568 0.0
C682 C 0.86988 0.40148 0.93918 0.0
C683 C 0.86718 0.42145 0.95236 0.0
C684 C 0.88485 0.44916 0.94675 0.0
C685 C 0.90477 0.4567 0.92856 0.0
C686 C 0.81503 0.42177 0.99639 0.0
C687 C 0.81023 0.40035 0.01244 0.0
C688 C 0.83297 0.42823 0.97657 0.0
C689 C 0.84671 0.41355 0.97246 0.0
C690 C 0.84147 0.3918 0.98828 0.0
C691 C 0.82337 0.3852 0.00794 0.0
H692 H 0.49887 0.93239 0.11217 0.0
H693 H 0.43937 0.87543 0.06065 0.0
H694 H 0.47943 0.89796 0.14431 0.0
H695 H 0.41942 0.84125 0.09324 0.0
H696 H 0.37612 0.80239 0.16871 0.0
H697 H 0.39433 0.8346 0.13435 0.0
H698 H 0.47594 0.85229 0.15255 0.0
H699 H 0.45801 0.82031 0.18666 0.0
C700 C 0.4818 0.91249 0.1076 0.0
C701 C 0.47086 0.90669 0.08371 0.0
C702 C 0.47059 0.8928 0.12608 0.0
C703 C 0.448 0.86692 0.12123 0.0
C704 C 0.43671 0.86113 0.09751 0.0
C705 C 0.44812 0.88076 0.0789 0.0
C706 C 0.39792 0.813 0.16525 0.0
C707 C 0.4156 0.80886 0.18053 0.0
C708 C 0.40829 0.83134 0.14554 0.0
C709 C 0.43655 0.84608 0.14095 0.0
C710 C 0.4541 0.84147 0.15587 0.0
C711 C 0.44377 0.823 0.17534 0.0
H712 H 0.5665 0.43951 0.22806 0.0
H713 H 0.62038 0.5182 0.26047 0.0
H714 H 0.57985 0.41746 0.2593 0.0
H715 H 0.633 0.49628 0.29235 0.0
H716 H 0.66621 0.45271 0.33724 0.0
H717 H 0.65662 0.47305 0.30194 0.0
H718 H 0.57314 0.40625 0.3012 0.0
H719 H 0.58315 0.38538 0.33572 0.0
C720 C 0.58115 0.45204 0.24198 0.0
C721 C 0.59238 0.48051 0.24194 0.0
C722 C 0.58872 0.43944 0.25996 0.0
C723 C 0.60741 0.45501 0.27853 0.0
C724 C 0.61894 0.48361 0.27816 0.0
C725 C 0.61163 0.49622 0.25997 0.0
C726 C 0.64589 0.44225 0.32936 0.0
C727 C 0.62542 0.41747 0.33933 0.0
C728 C 0.64031 0.45402 0.30921 0.0
C729 C 0.61402 0.44147 0.29875 0.0
C730 C 0.59374 0.41635 0.30845 0.0
C731 C 0.59943 0.40441 0.32838 0.0
H732 H 0.4125 0.91317 0.38716 0.0
H733 H 0.46964 0.89152 0.4177 0.0
H734 H 0.39938 0.87788 0.35592 0.0
H735 H 0.45594 0.85551 0.38702 0.0
H736 H 0.44956 0.81817 0.31063 0.0
H737 H 0.46066 0.84992 0.34468 0.0
H738 H 0.37635 0.83051 0.34802 0.0
H739 H 0.36558 0.79965 0.31328 0.0
C740 C 0.42191 0.90051 0.3874 0.0
C741 C 0.44217 0.90515 0.40474 0.0
C742 C 0.41433 0.88017 0.36957 0.0
C743 C 0.42661 0.86376 0.36885 0.0
C744 C 0.44642 0.86804 0.38666 0.0
C745 C 0.45422 0.88861 0.40431 0.0
C746 C 0.43335 0.82049 0.31879 0.0
C747 C 0.40674 0.80653 0.30912 0.0
C748 C 0.43967 0.83864 0.33843 0.0
C749 C 0.41945 0.84301 0.34908 0.0
C750 C 0.3926 0.82818 0.33997 0.0
C751 C 0.38636 0.8103 0.32014 0.0
H752 H 0.58763 0.48644 0.5573 0.0
H753 H 0.52549 0.40265 0.57041 0.0
H754 H 0.60703 0.47161 0.52491 0.0
H755 H 0.54521 0.38761 0.53831 0.0
H756 H 0.56769 0.37547 0.46012 0.0
H757 H 0.5495 0.38852 0.49471 0.0
H758 H 0.63158 0.44821 0.51674 0.0
H759 H 0.64978 0.43574 0.48156 0.0
C760 C 0.57836 0.46478 0.55347 0.0
C761 C 0.55502 0.4457 0.56636 0.0
C762 C 0.58953 0.45625 0.53495 0.0
C763 C 0.57774 0.42839 0.52897 0.0
C764 C 0.55458 0.40927 0.54214 0.0
C765 C 0.54328 0.41784 0.56056 0.0
C766 C 0.5819 0.39125 0.47241 0.0
C767 C 0.6102 0.40465 0.46796 0.0
C768 C 0.57146 0.39865 0.49238 0.0
C769 C 0.58904 0.4195 0.50853 0.0
C770 C 0.6174 0.4324 0.50445 0.0
C771 C 0.62785 0.42512 0.48435 0.0
H772 H 0.14026 0.58831 0.75361 0.0
H773 H 0.11546 0.50989 0.72057 0.0
H774 H 0.17604 0.61055 0.72275 0.0
H775 H 0.15042 0.53201 0.68908 0.0
H776 H 0.22761 0.57552 0.64498 0.0
H777 H 0.1974 0.55509 0.68008 0.0
H778 H 0.18114 0.62222 0.68091 0.0
H779 H 0.21229 0.64316 0.64658 0.0
C780 C 0.14246 0.57588 0.73963 0.0
C781 C 0.1251 0.54743 0.73939 0.0
C782 C 0.16286 0.58859 0.72187 0.0
C783 C 0.16612 0.57316 0.70326 0.0
C784 C 0.14892 0.54457 0.70333 0.0
C785 C 0.12877 0.53185 0.7213 0.0
C786 C 0.2178 0.58604 0.65285 0.0
C787 C 0.22227 0.61091 0.64294 0.0
C788 C 0.2003 0.57423 0.67288 0.0
C789 C 0.18654 0.58682 0.68327 0.0
C790 C 0.19162 0.61207 0.67369 0.0
C791 C 0.20941 0.62406 0.65388 0.0
H792 H 0.5414 0.09587 0.87598 0.0
H793 H 0.61006 0.14902 0.92207 0.0
H794 H 0.55609 0.13216 0.84564 0.0
H795 H 0.62525 0.18493 0.89105 0.0
H796 H 0.65718 0.22336 0.81241 0.0
H797 H 0.64278 0.19091 0.84644 0.0
H798 H 0.56162 0.18004 0.84249 0.0
H799 H 0.57596 0.21263 0.80857 0.0
C800 C 0.55946 0.11533 0.87982 0.0
C801 C 0.57445 0.11944 0.90161 0.0
C802 C 0.5679 0.13609 0.86236 0.0
C803 C 0.59173 0.16135 0.86606 0.0
C804 C 0.60688 0.16555 0.88769 0.0
C805 C 0.59823 0.14489 0.90536 0.0
C806 C 0.63635 0.2143 0.81898 0.0
C807 C 0.61767 0.22047 0.8077 0.0
C808 C 0.62817 0.19582 0.83853 0.0
C809 C 0.60106 0.18286 0.84696 0.0
C810 C 0.58258 0.18958 0.83617 0.0
C811 C 0.59086 0.20835 0.81686 0.0
H812 H 0.4554 0.55153 0.05756 0.0
H813 H 0.51491 0.63649 0.06946 0.0
H814 H 0.43393 0.5644 0.02553 0.0
H815 H 0.49306 0.64959 0.03776 0.0
H816 H 0.46673 0.6593 0.96037 0.0
H817 H 0.48726 0.64818 0.99442 0.0
H818 H 0.40713 0.58536 0.018 0.0
H819 H 0.38664 0.59588 0.98333 0.0
C820 C 0.46366 0.57302 0.05353 0.0
C821 C 0.48684 0.59301 0.06601 0.0
C822 C 0.45128 0.58043 0.03522 0.0
C823 C 0.46166 0.60806 0.02905 0.0
C824 C 0.48474 0.62809 0.04174 0.0
C825 C 0.49726 0.62063 0.05994 0.0
C826 C 0.45344 0.64323 0.97289 0.0
C827 C 0.42504 0.62838 0.96901 0.0
C828 C 0.46523 0.63694 0.99255 0.0
C829 C 0.4489 0.61577 0.00896 0.0
C830 C 0.4204 0.60144 0.00547 0.0
C831 C 0.40862 0.6076 0.98568 0.0
H832 H 0.87842 0.47399 0.25541 0.0
H833 H 0.93067 0.45499 0.2116 0.0
H834 H 0.84305 0.45379 0.22385 0.0
H835 H 0.89486 0.43391 0.18075 0.0
H836 H 0.81414 0.37459 0.14324 0.0
H837 H 0.84619 0.39263 0.17757 0.0
H838 H 0.83876 0.46505 0.17854 0.0
H839 H 0.80685 0.44721 0.14405 0.0
C840 C 0.88246 0.46562 0.23909 0.0
C841 C 0.90751 0.46618 0.23613 0.0
C842 C 0.86211 0.45392 0.22112 0.0
C843 C 0.8662 0.44217 0.19998 0.0
C844 C 0.89102 0.44244 0.19707 0.0
C845 C 0.9115 0.45446 0.21484 0.0
C846 C 0.81906 0.39421 0.15094 0.0
C847 C 0.80806 0.40954 0.14083 0.0
C848 C 0.83752 0.40457 0.17049 0.0
C849 C 0.84503 0.43027 0.18057 0.0
C850 C 0.8332 0.44512 0.17117 0.0
C851 C 0.81504 0.43494 0.15137 0.0
loop_
_geom_bond_atom_site_label_1
_geom_bond_atom_site_label_2
_geom_bond_distance
_geom_bond_site_symmetry_2
_ccdc_geom_bond_type
H0 C19 0.949 . S
H1 C20 0.950 . S
H2 C22 0.950 . S
H3 C23 0.950 . S
H4 C25 0.950 . S
H5 C28 0.950 . S
H6 C29 0.950 . S
H7 C31 0.951 . S
H8 C32 0.949 . S
H9 C34 0.949 . S
H10 C35 0.950 . S
H11 C37 0.950 . S
H12 C38 0.950 . S
H13 C40 0.950 1_655 S
H14 C43 0.950 . S
H15 C44 0.950 . S
H16 C46 0.951 . S
H17 C47 0.949 . S
C18 C19 1.376 . S
C18 C23 1.386 . S
C18 C24 1.483 . S
C19 H0 0.949 . S
C19 C18 1.376 . S
C19 C20 1.397 . S
C20 H1 0.950 . S
C20 C19 1.397 . S
C20 C21 1.391 . S
C21 C20 1.391 . S
C21 C22 1.405 . S
C22 H2 0.950 . S
C22 C21 1.405 . S
C22 C23 1.367 . S
C23 H3 0.950 . S
C23 C18 1.386 . S
C23 C22 1.367 . S
C24 C18 1.483 . S
C24 C25 1.382 1_655 S
C24 C26 1.403 . S
C25 H4 0.950 . S
C25 C24 1.382 1_455 S
C25 C41 1.411 . S
C26 C24 1.403 . S
C26 C27 1.489 . S
C26 C40 1.411 1_655 S
C27 C26 1.489 . S
C27 C28 1.383 . S
C27 C32 1.382 . S
C28 H5 0.950 . S
C28 C27 1.383 . S
C28 C29 1.395 . S
C29 H6 0.950 . S
C29 C28 1.395 . S
C29 C30 1.288 . S
C30 C29 1.288 . S
C30 C31 1.392 . S
C31 H7 0.951 . S
C31 C30 1.392 . S
C31 C32 1.392 . S
C32 H8 0.949 . S
C32 C27 1.382 . S
C32 C31 1.392 . S
C33 C34 1.376 . S
C33 C38 1.386 . S
C33 C39 1.483 . S
C34 H9 0.949 . S
C34 C33 1.376 . S
C34 C35 1.397 . S
C35 H10 0.950 . S
C35 C34 1.397 . S
C35 C36 1.391 . S
C36 C35 1.391 . S
C36 C37 1.405 . S
C37 H11 0.950 . S
C37 C36 1.405 . S
C37 C38 1.367 . S
C38 H12 0.950 . S
C38 C33 1.386 . S
C38 C37 1.367 . S
C39 C33 1.483 . S
C39 C40 1.382 . S
C39 C41 1.403 . S
C40 H13 0.950 1_455 S
C40 C26 1.411 1_455 S
C40 C39 1.382 . S
C41 C25 1.411 . S
C41 C39 1.403 . S
C41 C42 1.489 . S
C42 C41 1.489 . S
C42 C43 1.383 . S
C42 C47 1.382 . S
C43 H14 0.950 . S
C43 C42 1.383 . S
C43 C44 1.395 . S
C44 H15 0.950 . S
C44 C43 1.395 . S
C44 C45 1.288 . S
C45 C44 1.288 . S
C45 C46 1.392 . S
C46 H16 0.951 . S
C46 C45 1.392 . S
C46 C47 1.392 . S
C47 H17 0.949 . S
C47 C42 1.382 . S
C47 C46 1.392 . S
H48 C67 0.949 . S
H49 C68 0.950 . S
H50 C70 0.950 . S
H51 C71 0.950 . S
H52 C73 0.950 1_565 S
H53 C76 0.950 . S
H54 C77 0.950 . S
H55 C79 0.951 . S
H56 C80 0.949 . S
H57 C82 0.949 . S
H58 C83 0.950 . S
H59 C85 0.950 . S
H60 C86 0.950 . S
H61 C88 0.950 . S
H62 C91 0.950 . S
H63 C92 0.950 . S
H64 C94 0.951 . S
H65 C95 0.949 . S
C66 C67 1.376 . S
C66 C71 1.386 . S
C66 C72 1.483 . S
C67 H48 0.949 . S
C67 C66 1.376 . S
C67 C68 1.397 . S
C68 H49 0.950 . S
C68 C67 1.397 . S
C68 C69 1.391 . S
C69 C68 1.391 . S
C69 C70 1.405 . S
C70 H50 0.950 . S
C70 C69 1.405 . S
C70 C71 1.367 . S
C71 H51 0.950 . S
C71 C66 1.386 . S
C71 C70 1.367 . S
C72 C66 1.483 . S
C72 C73 1.382 1_565 S
C72 C74 1.403 . S
C73 H52 0.950 1_545 S
C73 C72 1.382 1_545 S
C73 C89 1.411 . S
C74 C72 1.403 . S
C74 C75 1.489 . S
C74 C88 1.411 1_565 S
C75 C74 1.489 . S
C75 C76 1.383 . S
C75 C80 1.382 . S
C76 H53 0.950 . S
C76 C75 1.383 . S
C76 C77 1.395 . S
C77 H54 0.950 . S
C77 C76 1.395 . S
C77 C78 1.288 . S
C78 C77 1.288 . S
C78 C79 1.392 . S
C79 H55 0.951 . S
C79 C78 1.392 . S
C79 C80 1.392 . S
C80 H56 0.949 . S
C80 C75 1.382 . S
C80 C79 1.392 . S
C81 C82 1.376 . S
C81 C86 1.386 . S
C81 C87 1.483 . S
C82 H57 0.949 . S
C82 C81 1.376 . S
C82 C83 1.397 . S
C83 H58 0.950 . S
C83 C82 1.397 . S
C83 C84 1.391 . S
C84 C83 1.391 . S
C84 C85 1.405 . S
C85 H59 0.950 . S
C85 C84 1.405 . S
C85 C86 1.367 . S
C86 H60 0.950 . S
C86 C81 1.386 . S
C86 C85 1.367 . S
C87 C81 1.483 . S
C87 C88 1.382 . S
C87 C89 1.403 . S
C88 H61 0.950 . S
C88 C74 1.411 1_545 S
C88 C87 1.382 . S
C89 C73 1.411 . S
C89 C87 1.403 . S
C89 C90 1.489 . S
C90 C89 1.489 . S
C90 C91 1.383 . S
C90 C95 1.382 . S
C91 H62 0.950 . S
C91 C90 1.383 . S
C91 C92 1.395 . S
C92 H63 0.950 . S
C92 C91 1.395 . S
C92 C93 1.288 . S
C93 C92 1.288 . S
C93 C94 1.392 . S
C94 H64 0.951 . S
C94 C93 1.392 . S
C94 C95 1.392 . S
C95 H65 0.949 . S
C95 C90 1.382 . S
C95 C94 1.392 . S
H96 C115 0.949 . S
H97 C116 0.950 . S
H98 C118 0.950 . S
H99 C119 0.950 . S
H100 C121 0.950 . S
H101 C124 0.950 . S
H102 C125 0.950 . S
H103 C127 0.951 . S
H104 C128 0.949 . S
H105 C130 0.949 . S
H106 C131 0.950 . S
H107 C133 0.950 . S
H108 C134 0.950 . S
H109 C136 0.950 . S
H110 C139 0.950 . S
H111 C140 0.950 . S
H112 C142 0.951 . S
H113 C143 0.949 . S
C114 C115 1.376 . S
C114 C119 1.386 . S
C114 C120 1.483 . S
C115 H96 0.949 . S
C115 C114 1.376 . S
C115 C116 1.397 . S
C116 H97 0.950 . S
C116 C115 1.397 . S
C116 C117 1.391 . S
C117 C116 1.391 . S
C117 C118 1.405 . S
C118 H98 0.950 . S
C118 C117 1.405 . S
C118 C119 1.367 . S
C119 H99 0.950 . S
C119 C114 1.386 . S
C119 C118 1.367 . S
C120 C114 1.483 . S
C120 C121 1.382 . S
C120 C122 1.403 . S
C121 H100 0.950 . S
C121 C120 1.382 . S
C121 C137 1.411 . S
C122 C120 1.403 . S
C122 C123 1.489 . S
C122 C136 1.411 . S
C123 C122 1.489 . S
C123 C124 1.383 . S
C123 C128 1.382 . S
C124 H101 0.950 . S
C124 C123 1.383 . S
C124 C125 1.395 . S
C125 H102 0.950 . S
C125 C124 1.395 . S
C125 C126 1.288 . S
C126 C125 1.288 . S
C126 C127 1.392 . S
C127 H103 0.951 . S
C127 C126 1.392 . S
C127 C128 1.392 . S
C128 H104 0.949 . S
C128 C123 1.382 . S
C128 C127 1.392 . S
C129 C130 1.376 . S
C129 C134 1.386 . S
C129 C135 1.483 . S
C130 H105 0.949 . S
C130 C129 1.376 . S
C130 C131 1.397 . S
C131 H106 0.950 . S
C131 C130 1.397 . S
C131 C132 1.391 . S
C132 C131 1.391 . S
C132 C133 1.405 . S
C133 H107 0.950 . S
C133 C132 1.405 . S
C133 C134 1.367 . S
C134 H108 0.950 . S
C134 C129 1.386 . S
C134 C133 1.367 . S
C135 C129 1.483 . S
C135 C136 1.382 . S
C135 C137 1.403 . S
C136 H109 0.950 . S
C136 C122 1.411 . S
C136 C135 1.382 . S
C137 C121 1.411 . S
C137 C135 1.403 . S
C137 C138 1.489 . S
C138 C137 1.489 . S
C138 C139 1.383 . S
C138 C143 1.382 . S
C139 H110 0.950 . S
C139 C138 1.383 . S
C139 C140 1.395 . S
C140 H111 0.950 . S
C140 C139 1.395 . S
C140 C141 1.288 . S
C141 C140 1.288 . S
C141 C142 1.392 . S
C142 H112 0.951 . S
C142 C141 1.392 . S
C142 C143 1.392 . S
C143 H113 0.949 . S
C143 C138 1.382 . S
C143 C142 1.392 . S
H144 C163 0.949 . S
H145 C164 0.950 . S
H146 C166 0.950 . S
H147 C167 0.950 . S
H148 C169 0.950 1_655 S
H149 C172 0.950 . S
H150 C173 0.950 . S
H151 C175 0.951 . S
H152 C176 0.949 . S
H153 C178 0.949 . S
H154 C179 0.950 . S
H155 C181 0.950 . S
H156 C182 0.950 . S
H157 C184 0.950 . S
H158 C187 0.950 . S
H159 C188 0.950 . S
H160 C190 0.951 . S
H161 C191 0.949 . S
C162 C163 1.376 . S
C162 C167 1.386 . S
C162 C168 1.483 . S
C163 H144 0.949 . S
C163 C162 1.376 . S
C163 C164 1.397 . S
C164 H145 0.950 . S
C164 C163 1.397 . S
C164 C165 1.391 . S
C165 C164 1.391 . S
C165 C166 1.405 . S
C166 H146 0.950 . S
C166 C165 1.405 . S
C166 C167 1.367 . S
C167 H147 0.950 . S
C167 C162 1.386 . S
C167 C166 1.367 . S
C168 C162 1.483 . S
C168 C169 1.382 . S
C168 C170 1.403 . S
C169 H148 0.950 1_455 S
C169 C168 1.382 . S
C169 C185 1.411 1_455 S
C170 C168 1.403 . S
C170 C171 1.489 . S
C170 C184 1.411 . S
C171 C170 1.489 . S
C171 C172 1.383 . S
C171 C176 1.382 . S
C172 H149 0.950 . S
C172 C171 1.383 . S
C172 C173 1.395 . S
C173 H150 0.950 . S
C173 C172 1.395 . S
C173 C174 1.288 . S
C174 C173 1.288 . S
C174 C175 1.392 . S
C175 H151 0.951 . S
C175 C174 1.392 . S
C175 C176 1.392 . S
C176 H152 0.949 . S
C176 C171 1.382 . S
C176 C175 1.392 . S
C177 C178 1.376 . S
C177 C182 1.386 . S
C177 C183 1.483 . S
C178 H153 0.949 . S
C178 C177 1.376 . S
C178 C179 1.397 . S
C179 H154 0.950 . S
C179 C178 1.397 . S
C179 C180 1.391 . S
C180 C179 1.391 . S
C180 C181 1.405 . S
C181 H155 0.950 . S
C181 C180 1.405 . S
C181 C182 1.367 . S
C182 H156 0.950 . S
C182 C177 1.386 . S
C182 C181 1.367 . S
C183 C177 1.483 . S
C183 C184 1.382 1_655 S
C183 C185 1.403 . S
C184 H157 0.950 . S
C184 C170 1.411 . S
C184 C183 1.382 1_455 S
C185 C169 1.411 1_655 S
C185 C183 1.403 . S
C185 C186 1.489 . S
C186 C185 1.489 . S
C186 C187 1.383 . S
C186 C191 1.382 . S
C187 H158 0.950 . S
C187 C186 1.383 . S
C187 C188 1.395 . S
C188 H159 0.950 . S
C188 C187 1.395 . S
C188 C189 1.288 . S
C189 C188 1.288 . S
C189 C190 1.392 . S
C190 H160 0.951 . S
C190 C189 1.392 . S
C190 C191 1.392 . S
C191 H161 0.949 . S
C191 C186 1.382 . S
C191 C190 1.392 . S
H192 C211 0.949 . S
H193 C212 0.950 . S
H194 C214 0.950 . S
H195 C215 0.950 . S
H196 C217 0.950 . S
H197 C220 0.950 . S
H198 C221 0.950 . S
H199 C223 0.951 . S
H200 C224 0.949 . S
H201 C226 0.949 . S
H202 C227 0.950 . S
H203 C229 0.950 . S
H204 C230 0.950 . S
H205 C232 0.950 1_565 S
H206 C235 0.950 . S
H207 C236 0.950 . S
H208 C238 0.951 . S
H209 C239 0.949 . S
C210 C211 1.376 . S
C210 C215 1.386 1_554 S
C210 C216 1.483 1_554 S
C211 H192 0.949 . S
C211 C210 1.376 . S
C211 C212 1.397 . S
C212 H193 0.950 . S
C212 C211 1.397 . S
C212 C213 1.391 . S
C213 C212 1.391 . S
C213 C214 1.405 . S
C214 H194 0.950 . S
C214 C213 1.405 . S
C214 C215 1.367 1_554 S
C215 H195 0.950 . S
C215 C210 1.386 1_556 S
C215 C214 1.367 1_556 S
C216 C210 1.483 1_556 S
C216 C217 1.382 1_556 S
C216 C218 1.403 . S
C217 H196 0.950 . S
C217 C216 1.382 1_554 S
C217 C233 1.411 1_545 S
C218 C216 1.403 . S
C218 C219 1.489 . S
C218 C232 1.411 . S
C219 C218 1.489 . S
C219 C220 1.383 . S
C219 C224 1.382 . S
C220 H197 0.950 . S
C220 C219 1.383 . S
C220 C221 1.395 . S
C221 H198 0.950 . S
C221 C220 1.395 . S
C221 C222 1.288 . S
C222 C221 1.288 . S
C222 C223 1.392 . S
C223 H199 0.951 . S
C223 C222 1.392 . S
C223 C224 1.392 . S
C224 H200 0.949 . S
C224 C219 1.382 . S
C224 C223 1.392 . S
C225 C226 1.376 . S
C225 C230 1.386 . S
C225 C231 1.483 . S
C226 H201 0.949 . S
C226 C225 1.376 . S
C226 C227 1.397 . S
C227 H202 0.950 . S
C227 C226 1.397 . S
C227 C228 1.391 . S
C228 C227 1.391 . S
C228 C229 1.405 . S
C229 H203 0.950 . S
C229 C228 1.405 . S
C229 C230 1.367 . S
C230 H204 0.950 . S
C230 C225 1.386 . S
C230 C229 1.367 . S
C231 C225 1.483 . S
C231 C232 1.382 1_565 S
C231 C233 1.403 1_556 S
C232 H205 0.950 1_545 S
C232 C218 1.411 . S
C232 C231 1.382 1_545 S
C233 C217 1.411 1_565 S
C233 C231 1.403 1_554 S
C233 C234 1.489 . S
C234 C233 1.489 . S
C234 C235 1.383 . S
C234 C239 1.382 . S
C235 H206 0.950 . S
C235 C234 1.383 . S
C235 C236 1.395 . S
C236 H207 0.950 . S
C236 C235 1.395 . S
C236 C237 1.288 . S
C237 C236 1.288 . S
C237 C238 1.392 . S
C238 H208 0.951 . S
C238 C237 1.392 . S
C238 C239 1.392 . S
C239 H209 0.949 . S
C239 C234 1.382 . S
C239 C238 1.392 . S
H240 C259 0.949 . S
H241 C260 0.950 . S
H242 C262 0.950 . S
H243 C263 0.950 . S
H244 C265 0.950 . S
H245 C268 0.950 . S
H246 C269 0.950 . S
H247 C271 0.951 . S
H248 C272 0.949 . S
H249 C274 0.949 . S
H250 C275 0.950 . S
H251 C277 0.950 . S
H252 C278 0.950 . S
H253 C280 0.950 . S
H254 C283 0.950 . S
H255 C284 0.950 . S
H256 C286 0.951 . S
H257 C287 0.949 . S
C258 C259 1.376 . S
C258 C263 1.386 . S
C258 C264 1.483 . S
C259 H240 0.949 . S
C259 C258 1.376 . S
C259 C260 1.397 . S
C260 H241 0.950 . S
C260 C259 1.397 . S
C260 C261 1.391 . S
C261 C260 1.391 . S
C261 C262 1.405 . S
C262 H242 0.950 . S
C262 C261 1.405 . S
C262 C263 1.367 . S
C263 H243 0.950 . S
C263 C258 1.386 . S
C263 C262 1.367 . S
C264 C258 1.483 . S
C264 C265 1.382 . S
C264 C266 1.403 . S
C265 H244 0.950 . S
C265 C264 1.382 . S
C265 C281 1.411 . S
C266 C264 1.403 . S
C266 C267 1.489 . S
C266 C280 1.411 . S
C267 C266 1.489 . S
C267 C268 1.383 . S
C267 C272 1.382 . S
C268 H245 0.950 . S
C268 C267 1.383 . S
C268 C269 1.395 . S
C269 H246 0.950 . S
C269 C268 1.395 . S
C269 C270 1.288 . S
C270 C269 1.288 . S
C270 C271 1.392 . S
C271 H247 0.951 . S
C271 C270 1.392 . S
C271 C272 1.392 . S
C272 H248 0.949 . S
C272 C267 1.382 . S
C272 C271 1.392 . S
C273 C274 1.376 . S
C273 C278 1.386 . S
C273 C279 1.483 . S
C274 H249 0.949 . S
C274 C273 1.376 . S
C274 C275 1.397 . S
C275 H250 0.950 . S
C275 C274 1.397 . S
C275 C276 1.391 . S
C276 C275 1.391 . S
C276 C277 1.405 . S
C277 H251 0.950 . S
C277 C276 1.405 . S
C277 C278 1.367 . S
C278 H252 0.950 . S
C278 C273 1.386 . S
C278 C277 1.367 . S
C279 C273 1.483 . S
C279 C280 1.382 . S
C279 C281 1.403 . S
C280 H253 0.950 . S
C280 C266 1.411 . S
C280 C279 1.382 . S
C281 C265 1.411 . S
C281 C279 1.403 . S
C281 C282 1.489 . S
C282 C281 1.489 . S
C282 C283 1.383 . S
C282 C287 1.382 . S
C283 H254 0.950 . S
C283 C282 1.383 . S
C283 C284 1.395 . S
C284 H255 0.950 . S
C284 C283 1.395 . S
C284 C285 1.288 . S
C285 C284 1.288 . S
C285 C286 1.392 . S
C286 H256 0.951 . S
C286 C285 1.392 . S
C286 C287 1.392 . S
C287 H257 0.949 . S
C287 C282 1.382 . S
C287 C286 1.392 . S
O288 Cd289 2.223 . S
O288 C296 1.315 . S
Cd289 O288 2.223 . S
Cd289 O292 2.297 . S
Cd289 O293 2.439 . S
Cd289 O299 2.240 . S
Cd290 O291 2.240 . S
Cd290 O298 2.223 . S
Cd290 O300 2.297 . S
Cd290 O301 2.439 . S
O291 Cd290 2.240 . S
O291 C296 1.279 . S
O292 Cd289 2.297 . S
O292 C294 1.247 . S
O293 Cd289 2.439 . S
O293 C294 1.208 . S
C294 O292 1.247 . S
C294 O293 1.208 . S
C295 O300 1.247 . S
C295 O301 1.208 . S
C296 O288 1.315 . S
C296 O291 1.279 . S
C297 O298 1.315 . S
C297 O299 1.279 . S
O298 Cd290 2.223 . S
O298 C297 1.315 . S
O299 Cd289 2.240 . S
O299 C297 1.279 . S
O300 Cd290 2.297 . S
O300 C295 1.247 . S
O301 Cd290 2.439 . S
O301 C295 1.208 . S
O302 Cd303 2.223 . S
O302 C310 1.315 . S
Cd303 O302 2.223 . S
Cd303 O306 2.297 . S
Cd303 O307 2.439 . S
Cd303 O313 2.240 . S
Cd304 O305 2.240 . S
Cd304 O312 2.223 . S
Cd304 O314 2.297 . S
Cd304 O315 2.439 . S
O305 Cd304 2.240 . S
O305 C310 1.279 . S
O306 Cd303 2.297 . S
O306 C308 1.247 . S
O307 Cd303 2.439 . S
O307 C308 1.208 . S
C308 O306 1.247 . S
C308 O307 1.208 . S
C309 O314 1.247 . S
C309 O315 1.208 . S
C310 O302 1.315 . S
C310 O305 1.279 . S
C311 O312 1.315 . S
C311 O313 1.279 . S
O312 Cd304 2.223 . S
O312 C311 1.315 . S
O313 Cd303 2.240 . S
O313 C311 1.279 . S
O314 Cd304 2.297 . S
O314 C309 1.247 . S
O315 Cd304 2.439 . S
O315 C309 1.208 . S
O316 Cd317 2.223 . S
O316 C324 1.315 . S
Cd317 O316 2.223 . S
Cd317 O320 2.297 . S
Cd317 O321 2.439 . S
Cd317 O327 2.240 . S
Cd318 O319 2.240 . S
Cd318 O326 2.223 . S
Cd318 O328 2.297 . S
Cd318 O329 2.439 . S
O319 Cd318 2.240 . S
O319 C324 1.279 . S
O320 Cd317 2.297 . S
O320 C322 1.247 . S
O321 Cd317 2.439 . S
O321 C322 1.208 . S
C322 O320 1.247 . S
C322 O321 1.208 . S
C323 O328 1.247 . S
C323 O329 1.208 . S
C324 O316 1.315 . S
C324 O319 1.279 . S
C325 O326 1.315 . S
C325 O327 1.279 . S
O326 Cd318 2.223 . S
O326 C325 1.315 . S
O327 Cd317 2.240 . S
O327 C325 1.279 . S
O328 Cd318 2.297 . S
O328 C323 1.247 . S
O329 Cd318 2.439 . S
O329 C323 1.208 . S
O330 Cd331 2.223 . S
O330 C338 1.315 . S
Cd331 O330 2.223 . S
Cd331 O334 2.297 . S
Cd331 O335 2.439 . S
Cd331 O341 2.240 . S
Cd332 O333 2.240 . S
Cd332 O340 2.223 . S
Cd332 O342 2.297 . S
Cd332 O343 2.439 . S
O333 Cd332 2.240 . S
O333 C338 1.279 . S
O334 Cd331 2.297 . S
O334 C336 1.247 . S
O335 Cd331 2.439 . S
O335 C336 1.208 . S
C336 O334 1.247 . S
C336 O335 1.208 . S
C337 O342 1.247 . S
C337 O343 1.208 . S
C338 O330 1.315 . S
C338 O333 1.279 . S
C339 O340 1.315 . S
C339 O341 1.279 . S
O340 Cd332 2.223 . S
O340 C339 1.315 . S
O341 Cd331 2.240 . S
O341 C339 1.279 . S
O342 Cd332 2.297 . S
O342 C337 1.247 . S
O343 Cd332 2.439 . S
O343 C337 1.208 . S
O344 Cd345 2.223 . S
O344 C352 1.315 . S
Cd345 O344 2.223 . S
Cd345 O348 2.297 . S
Cd345 O349 2.439 . S
Cd345 O355 2.240 . S
Cd346 O347 2.240 . S
Cd346 O354 2.223 . S
Cd346 O356 2.297 . S
Cd346 O357 2.439 . S
O347 Cd346 2.240 . S
O347 C352 1.279 . S
O348 Cd345 2.297 . S
O348 C350 1.247 . S
O349 Cd345 2.439 . S
O349 C350 1.208 . S
C350 O348 1.247 . S
C350 O349 1.208 . S
C351 O356 1.247 . S
C351 O357 1.208 . S
C352 O344 1.315 . S
C352 O347 1.279 . S
C353 O354 1.315 . S
C353 O355 1.279 . S
O354 Cd346 2.223 . S
O354 C353 1.315 . S
O355 Cd345 2.240 . S
O355 C353 1.279 . S
O356 Cd346 2.297 . S
O356 C351 1.247 . S
O357 Cd346 2.439 . S
O357 C351 1.208 . S
O358 Cd359 2.223 . S
O358 C366 1.315 . S
Cd359 O358 2.223 . S
Cd359 O362 2.297 . S
Cd359 O363 2.439 . S
Cd359 O369 2.240 . S
Cd360 O361 2.240 . S
Cd360 O368 2.223 . S
Cd360 O370 2.297 . S
Cd360 O371 2.439 . S
O361 Cd360 2.240 . S
O361 C366 1.279 . S
O362 Cd359 2.297 . S
O362 C364 1.247 . S
O363 Cd359 2.439 . S
O363 C364 1.208 . S
C364 O362 1.247 . S
C364 O363 1.208 . S
C365 O370 1.247 . S
C365 O371 1.208 . S
C366 O358 1.315 . S
C366 O361 1.279 . S
C367 O368 1.315 . S
C367 O369 1.279 . S
O368 Cd360 2.223 . S
O368 C367 1.315 . S
O369 Cd359 2.240 . S
O369 C367 1.279 . S
O370 Cd360 2.297 . S
O370 C365 1.247 . S
O371 Cd360 2.439 . S
O371 C365 1.208 . S
H372 C380 0.950 . S
H373 C385 0.950 . S
H374 C382 0.950 . S
H375 C384 0.950 . S
H376 C386 0.950 . S
H377 C388 0.950 . S
H378 C390 0.950 . S
H379 C391 0.950 . S
C380 H372 0.950 . S
C380 C381 1.386 . S
C380 C382 1.391 . S
C381 C380 1.386 . S
C381 C385 1.393 . S
C382 H374 0.950 . S
C382 C380 1.391 . S
C382 C383 1.400 . S
C383 C382 1.400 . S
C383 C384 1.398 . S
C383 C389 1.491 . S
C384 H375 0.950 . S
C384 C383 1.398 . S
C384 C385 1.391 . S
C385 H373 0.950 . S
C385 C381 1.393 . S
C385 C384 1.391 . S
C386 H376 0.950 . S
C386 C387 1.386 . S
C386 C388 1.391 . S
C387 C386 1.386 . S
C387 C391 1.393 . S
C388 H377 0.950 . S
C388 C386 1.391 . S
C388 C389 1.400 . S
C389 C383 1.491 . S
C389 C388 1.400 . S
C389 C390 1.398 . S
C390 H378 0.950 . S
C390 C389 1.398 . S
C390 C391 1.391 . S
C391 H379 0.950 . S
C391 C387 1.393 . S
C391 C390 1.391 . S
H392 C400 0.950 . S
H393 C405 0.950 . S
H394 C402 0.950 . S
H395 C404 0.950 . S
H396 C406 0.950 . S
H397 C408 0.950 . S
H398 C410 0.950 . S
H399 C411 0.950 . S
C400 H392 0.950 . S
C400 C401 1.386 . S
C400 C402 1.391 . S
C401 C400 1.386 . S
C401 C405 1.393 . S
C402 H394 0.950 . S
C402 C400 1.391 . S
C402 C403 1.400 . S
C403 C402 1.400 . S
C403 C404 1.398 . S
C403 C409 1.491 . S
C404 H395 0.950 . S
C404 C403 1.398 . S
C404 C405 1.391 . S
C405 H393 0.950 . S
C405 C401 1.393 . S
C405 C404 1.391 . S
C406 H396 0.950 . S
C406 C407 1.386 . S
C406 C408 1.391 . S
C407 C406 1.386 . S
C407 C411 1.393 . S
C408 H397 0.950 . S
C408 C406 1.391 . S
C408 C409 1.400 . S
C409 C403 1.491 . S
C409 C408 1.400 . S
C409 C410 1.398 . S
C410 H398 0.950 . S
C410 C409 1.398 . S
C410 C411 1.391 . S
C411 H399 0.950 . S
C411 C407 1.393 . S
C411 C410 1.391 . S
H412 C420 0.950 . S
H413 C425 0.950 . S
H414 C422 0.950 . S
H415 C424 0.950 . S
H416 C426 0.950 . S
H417 C428 0.950 . S
H418 C430 0.950 . S
H419 C431 0.950 . S
C420 H412 0.950 . S
C420 C421 1.386 . S
C420 C422 1.391 . S
C421 C420 1.386 . S
C421 C425 1.393 . S
C422 H414 0.950 . S
C422 C420 1.391 . S
C422 C423 1.400 . S
C423 C422 1.400 . S
C423 C424 1.398 . S
C423 C429 1.491 . S
C424 H415 0.950 . S
C424 C423 1.398 . S
C424 C425 1.391 . S
C425 H413 0.950 . S
C425 C421 1.393 . S
C425 C424 1.391 . S
C426 H416 0.950 . S
C426 C427 1.386 . S
C426 C428 1.391 . S
C427 C426 1.386 . S
C427 C431 1.393 . S
C428 H417 0.950 . S
C428 C426 1.391 . S
C428 C429 1.400 . S
C429 C423 1.491 . S
C429 C428 1.400 . S
C429 C430 1.398 . S
C430 H418 0.950 . S
C430 C429 1.398 . S
C430 C431 1.391 . S
C431 H419 0.950 . S
C431 C427 1.393 . S
C431 C430 1.391 . S
H432 C440 0.950 . S
H433 C445 0.950 . S
H434 C442 0.950 . S
H435 C444 0.950 . S
H436 C446 0.950 . S
H437 C448 0.950 . S
H438 C450 0.950 . S
H439 C451 0.950 . S
C440 H432 0.950 . S
C440 C441 1.386 . S
C440 C442 1.391 . S
C441 C440 1.386 . S
C441 C445 1.393 . S
C442 H434 0.950 . S
C442 C440 1.391 . S
C442 C443 1.400 . S
C443 C442 1.400 . S
C443 C444 1.398 . S
C443 C449 1.491 . S
C444 H435 0.950 . S
C444 C443 1.398 . S
C444 C445 1.391 . S
C445 H433 0.950 . S
C445 C441 1.393 . S
C445 C444 1.391 . S
C446 H436 0.950 . S
C446 C447 1.386 . S
C446 C448 1.391 . S
C447 C446 1.386 . S
C447 C451 1.393 . S
C448 H437 0.950 . S
C448 C446 1.391 . S
C448 C449 1.400 . S
C449 C443 1.491 . S
C449 C448 1.400 . S
C449 C450 1.398 . S
C450 H438 0.950 . S
C450 C449 1.398 . S
C450 C451 1.391 . S
C451 H439 0.950 . S
C451 C447 1.393 . S
C451 C450 1.391 . S
H452 C460 0.950 . S
H453 C465 0.950 . S
H454 C462 0.950 . S
H455 C464 0.950 . S
H456 C466 0.950 . S
H457 C468 0.950 . S
H458 C470 0.950 . S
H459 C471 0.950 . S
C460 H452 0.950 . S
C460 C461 1.386 . S
C460 C462 1.391 . S
C461 C460 1.386 . S
C461 C465 1.393 . S
C462 H454 0.950 . S
C462 C460 1.391 . S
C462 C463 1.400 . S
C463 C462 1.400 . S
C463 C464 1.398 . S
C463 C469 1.491 . S
C464 H455 0.950 . S
C464 C463 1.398 . S
C464 C465 1.391 . S
C465 H453 0.950 . S
C465 C461 1.393 . S
C465 C464 1.391 . S
C466 H456 0.950 . S
C466 C467 1.386 . S
C466 C468 1.391 . S
C467 C466 1.386 . S
C467 C471 1.393 . S
C468 H457 0.950 . S
C468 C466 1.391 . S
C468 C469 1.400 . S
C469 C463 1.491 . S
C469 C468 1.400 . S
C469 C470 1.398 . S
C470 H458 0.950 . S
C470 C469 1.398 . S
C470 C471 1.391 . S
C471 H459 0.950 . S
C471 C467 1.393 . S
C471 C470 1.391 . S
H472 C480 0.950 . S
H473 C485 0.950 . S
H474 C482 0.950 . S
H475 C484 0.950 . S
H476 C486 0.950 . S
H477 C488 0.950 . S
H478 C490 0.950 . S
H479 C491 0.950 . S
C480 H472 0.950 . S
C480 C481 1.386 . S
C480 C482 1.391 . S
C481 C480 1.386 . S
C481 C485 1.393 . S
C482 H474 0.950 . S
C482 C480 1.391 . S
C482 C483 1.400 . S
C483 C482 1.400 . S
C483 C484 1.398 . S
C483 C489 1.491 . S
C484 H475 0.950 . S
C484 C483 1.398 . S
C484 C485 1.391 . S
C485 H473 0.950 . S
C485 C481 1.393 . S
C485 C484 1.391 . S
C486 H476 0.950 . S
C486 C487 1.386 . S
C486 C488 1.391 . S
C487 C486 1.386 . S
C487 C491 1.393 . S
C488 H477 0.950 . S
C488 C486 1.391 . S
C488 C489 1.400 . S
C489 C483 1.491 . S
C489 C488 1.400 . S
C489 C490 1.398 . S
C490 H478 0.950 . S
C490 C489 1.398 . S
C490 C491 1.391 . S
C491 H479 0.950 . S
C491 C487 1.393 . S
C491 C490 1.391 . S
H492 C500 0.950 . S
H493 C505 0.950 . S
H494 C502 0.950 . S
H495 C504 0.950 . S
H496 C506 0.950 . S
H497 C508 0.950 . S
H498 C510 0.950 . S
H499 C511 0.950 . S
C500 H492 0.950 . S
C500 C501 1.386 . S
C500 C502 1.391 . S
C501 C500 1.386 . S
C501 C505 1.393 . S
C502 H494 0.950 . S
C502 C500 1.391 . S
C502 C503 1.400 . S
C503 C502 1.400 . S
C503 C504 1.398 . S
C503 C509 1.491 . S
C504 H495 0.950 . S
C504 C503 1.398 . S
C504 C505 1.391 . S
C505 H493 0.950 . S
C505 C501 1.393 . S
C505 C504 1.391 . S
C506 H496 0.950 . S
C506 C507 1.386 . S
C506 C508 1.391 . S
C507 C506 1.386 . S
C507 C511 1.393 . S
C508 H497 0.950 . S
C508 C506 1.391 . S
C508 C509 1.400 . S
C509 C503 1.491 . S
C509 C508 1.400 . S
C509 C510 1.398 . S
C510 H498 0.950 . S
C510 C509 1.398 . S
C510 C511 1.391 . S
C511 H499 0.950 . S
C511 C507 1.393 . S
C511 C510 1.391 . S
H512 C520 0.950 . S
H513 C525 0.950 . S
H514 C522 0.950 . S
H515 C524 0.950 . S
H516 C526 0.950 . S
H517 C528 0.950 . S
H518 C530 0.950 . S
H519 C531 0.950 . S
C520 H512 0.950 . S
C520 C521 1.386 . S
C520 C522 1.391 . S
C521 C520 1.386 . S
C521 C525 1.393 . S
C522 H514 0.950 . S
C522 C520 1.391 . S
C522 C523 1.400 . S
C523 C522 1.400 . S
C523 C524 1.398 . S
C523 C529 1.491 . S
C524 H515 0.950 . S
C524 C523 1.398 . S
C524 C525 1.391 . S
C525 H513 0.950 . S
C525 C521 1.393 . S
C525 C524 1.391 . S
C526 H516 0.950 . S
C526 C527 1.386 . S
C526 C528 1.391 . S
C527 C526 1.386 . S
C527 C531 1.393 . S
C528 H517 0.950 . S
C528 C526 1.391 . S
C528 C529 1.400 . S
C529 C523 1.491 . S
C529 C528 1.400 . S
C529 C530 1.398 . S
C530 H518 0.950 . S
C530 C529 1.398 . S
C530 C531 1.391 . S
C531 H519 0.950 . S
C531 C527 1.393 . S
C531 C530 1.391 . S
H532 C540 0.950 . S
H533 C545 0.950 . S
H534 C542 0.950 . S
H535 C544 0.950 . S
H536 C546 0.950 . S
H537 C548 0.950 . S
H538 C550 0.950 . S
H539 C551 0.950 . S
C540 H532 0.950 . S
C540 C541 1.386 . S
C540 C542 1.391 . S
C541 C540 1.386 . S
C541 C545 1.393 . S
C542 H534 0.950 . S
C542 C540 1.391 . S
C542 C543 1.400 . S
C543 C542 1.400 . S
C543 C544 1.398 . S
C543 C549 1.491 . S
C544 H535 0.950 . S
C544 C543 1.398 . S
C544 C545 1.391 . S
C545 H533 0.950 . S
C545 C541 1.393 . S
C545 C544 1.391 . S
C546 H536 0.950 . S
C546 C547 1.386 . S
C546 C548 1.391 . S
C547 C546 1.386 . S
C547 C551 1.393 . S
C548 H537 0.950 . S
C548 C546 1.391 . S
C548 C549 1.400 . S
C549 C543 1.491 . S
C549 C548 1.400 . S
C549 C550 1.398 . S
C550 H538 0.950 . S
C550 C549 1.398 . S
C550 C551 1.391 . S
C551 H539 0.950 . S
C551 C547 1.393 . S
C551 C550 1.391 . S
H552 C560 0.950 . S
H553 C565 0.950 . S
H554 C562 0.950 . S
H555 C564 0.950 . S
H556 C566 0.950 . S
H557 C568 0.950 . S
H558 C570 0.950 . S
H559 C571 0.950 . S
C560 H552 0.950 . S
C560 C561 1.386 . S
C560 C562 1.391 . S
C561 C560 1.386 . S
C561 C565 1.393 . S
C562 H554 0.950 . S
C562 C560 1.391 . S
C562 C563 1.400 . S
C563 C562 1.400 . S
C563 C564 1.398 . S
C563 C569 1.491 . S
C564 H555 0.950 . S
C564 C563 1.398 . S
C564 C565 1.391 . S
C565 H553 0.950 . S
C565 C561 1.393 . S
C565 C564 1.391 . S
C566 H556 0.950 . S
C566 C567 1.386 . S
C566 C568 1.391 . S
C567 C566 1.386 . S
C567 C571 1.393 . S
C568 H557 0.950 . S
C568 C566 1.391 . S
C568 C569 1.400 . S
C569 C563 1.491 . S
C569 C568 1.400 . S
C569 C570 1.398 . S
C570 H558 0.950 . S
C570 C569 1.398 . S
C570 C571 1.391 . S
C571 H559 0.950 . S
C571 C567 1.393 . S
C571 C570 1.391 . S
H572 C580 0.950 . S
H573 C585 0.950 . S
H574 C582 0.950 . S
H575 C584 0.950 . S
H576 C586 0.950 . S
H577 C588 0.950 . S
H578 C590 0.950 . S
H579 C591 0.950 . S
C580 H572 0.950 . S
C580 C581 1.386 . S
C580 C582 1.391 . S
C581 C580 1.386 . S
C581 C585 1.393 . S
C582 H574 0.950 . S
C582 C580 1.391 . S
C582 C583 1.400 . S
C583 C582 1.400 . S
C583 C584 1.398 . S
C583 C589 1.491 . S
C584 H575 0.950 . S
C584 C583 1.398 . S
C584 C585 1.391 . S
C585 H573 0.950 . S
C585 C581 1.393 . S
C585 C584 1.391 . S
C586 H576 0.950 . S
C586 C587 1.386 . S
C586 C588 1.391 . S
C587 C586 1.386 . S
C587 C591 1.393 . S
C588 H577 0.950 . S
C588 C586 1.391 . S
C588 C589 1.400 . S
C589 C583 1.491 . S
C589 C588 1.400 . S
C589 C590 1.398 . S
C590 H578 0.950 . S
C590 C589 1.398 . S
C590 C591 1.391 . S
C591 H579 0.950 . S
C591 C587 1.393 . S
C591 C590 1.391 . S
H592 C600 0.950 . S
H593 C605 0.950 . S
H594 C602 0.950 . S
H595 C604 0.950 . S
H596 C606 0.950 . S
H597 C608 0.950 . S
H598 C610 0.950 . S
H599 C611 0.950 . S
C600 H592 0.950 . S
C600 C601 1.386 . S
C600 C602 1.391 . S
C601 C600 1.386 . S
C601 C605 1.393 . S
C602 H594 0.950 . S
C602 C600 1.391 . S
C602 C603 1.400 . S
C603 C602 1.400 . S
C603 C604 1.398 . S
C603 C609 1.491 . S
C604 H595 0.950 . S
C604 C603 1.398 . S
C604 C605 1.391 . S
C605 H593 0.950 . S
C605 C601 1.393 . S
C605 C604 1.391 . S
C606 H596 0.950 . S
C606 C607 1.386 . S
C606 C608 1.391 . S
C607 C606 1.386 . S
C607 C611 1.393 . S
C608 H597 0.950 . S
C608 C606 1.391 . S
C608 C609 1.400 . S
C609 C603 1.491 . S
C609 C608 1.400 . S
C609 C610 1.398 . S
C610 H598 0.950 . S
C610 C609 1.398 . S
C610 C611 1.391 . S
C611 H599 0.950 . S
C611 C607 1.393 . S
C611 C610 1.391 . S
H612 C620 0.950 . S
H613 C625 0.950 . S
H614 C622 0.950 . S
H615 C624 0.950 . S
H616 C626 0.950 . S
H617 C628 0.950 . S
H618 C630 0.950 . S
H619 C631 0.950 . S
C620 H612 0.950 . S
C620 C621 1.386 . S
C620 C622 1.391 . S
C621 C620 1.386 . S
C621 C625 1.393 . S
C622 H614 0.950 . S
C622 C620 1.391 . S
C622 C623 1.400 . S
C623 C622 1.400 . S
C623 C624 1.398 . S
C623 C629 1.491 . S
C624 H615 0.950 . S
C624 C623 1.398 . S
C624 C625 1.391 . S
C625 H613 0.950 . S
C625 C621 1.393 . S
C625 C624 1.391 . S
C626 H616 0.950 . S
C626 C627 1.386 . S
C626 C628 1.391 . S
C627 C626 1.386 . S
C627 C631 1.393 . S
C628 H617 0.950 . S
C628 C626 1.391 . S
C628 C629 1.400 . S
C629 C623 1.491 . S
C629 C628 1.400 . S
C629 C630 1.398 . S
C630 H618 0.950 . S
C630 C629 1.398 . S
C630 C631 1.391 . S
C631 H619 0.950 . S
C631 C627 1.393 . S
C631 C630 1.391 . S
H632 C640 0.950 . S
H633 C645 0.950 . S
H634 C642 0.950 . S
H635 C644 0.950 . S
H636 C646 0.950 . S
H637 C648 0.950 . S
H638 C650 0.950 . S
H639 C651 0.950 . S
C640 H632 0.950 . S
C640 C641 1.386 . S
C640 C642 1.391 . S
C641 C640 1.386 . S
C641 C645 1.393 . S
C642 H634 0.950 . S
C642 C640 1.391 . S
C642 C643 1.400 . S
C643 C642 1.400 . S
C643 C644 1.398 . S
C643 C649 1.491 . S
C644 H635 0.950 . S
C644 C643 1.398 . S
C644 C645 1.391 . S
C645 H633 0.950 . S
C645 C641 1.393 . S
C645 C644 1.391 . S
C646 H636 0.950 . S
C646 C647 1.386 . S
C646 C648 1.391 . S
C647 C646 1.386 . S
C647 C651 1.393 . S
C648 H637 0.950 . S
C648 C646 1.391 . S
C648 C649 1.400 . S
C649 C643 1.491 . S
C649 C648 1.400 . S
C649 C650 1.398 . S
C650 H638 0.950 . S
C650 C649 1.398 . S
C650 C651 1.391 . S
C651 H639 0.950 . S
C651 C647 1.393 . S
C651 C650 1.391 . S
H652 C660 0.950 . S
H653 C665 0.950 . S
H654 C662 0.950 . S
H655 C664 0.950 . S
H656 C666 0.950 . S
H657 C668 0.950 . S
H658 C670 0.950 . S
H659 C671 0.950 . S
C660 H652 0.950 . S
C660 C661 1.386 . S
C660 C662 1.391 . S
C661 C660 1.386 . S
C661 C665 1.393 . S
C662 H654 0.950 . S
C662 C660 1.391 . S
C662 C663 1.400 . S
C663 C662 1.400 . S
C663 C664 1.398 . S
C663 C669 1.491 . S
C664 H655 0.950 . S
C664 C663 1.398 . S
C664 C665 1.391 . S
C665 H653 0.950 . S
C665 C661 1.393 . S
C665 C664 1.391 . S
C666 H656 0.950 . S
C666 C667 1.386 . S
C666 C668 1.391 . S
C667 C666 1.386 . S
C667 C671 1.393 . S
C668 H657 0.950 . S
C668 C666 1.391 . S
C668 C669 1.400 . S
C669 C663 1.491 . S
C669 C668 1.400 . S
C669 C670 1.398 . S
C670 H658 0.950 . S
C670 C669 1.398 . S
C670 C671 1.391 . S
C671 H659 0.950 . S
C671 C667 1.393 . S
C671 C670 1.391 . S
H672 C680 0.950 . S
H673 C685 0.950 . S
H674 C682 0.950 . S
H675 C684 0.950 . S
H676 C686 0.950 . S
H677 C688 0.952 . S
H678 C690 0.950 . S
H679 C691 0.950 . S
C680 H672 0.950 . S
C680 C681 1.386 . S
C680 C682 1.391 . S
C681 C680 1.386 . S
C681 C685 1.393 . S
C682 H674 0.950 . S
C682 C680 1.391 . S
C682 C683 1.400 . S
C683 C682 1.400 . S
C683 C684 1.398 . S
C683 C689 1.491 . S
C684 H675 0.950 . S
C684 C683 1.398 . S
C684 C685 1.391 . S
C685 H673 0.950 . S
C685 C681 1.393 . S
C685 C684 1.391 . S
C686 H676 0.950 . S
C686 C687 1.386 . S
C686 C688 1.391 . S
C687 C686 1.386 . S
C687 C691 1.393 . S
C688 H677 0.952 . S
C688 C686 1.391 . S
C688 C689 1.400 1_554 S
C689 C683 1.491 . S
C689 C688 1.400 1_556 S
C689 C690 1.398 . S
C690 H678 0.950 . S
C690 C689 1.398 . S
C690 C691 1.391 1_556 S
C691 H679 0.950 . S
C691 C687 1.393 . S
C691 C690 1.391 1_554 S
H692 C700 0.950 . S
H693 C705 0.950 . S
H694 C702 0.950 . S
H695 C704 0.950 . S
H696 C706 0.950 . S
H697 C708 0.950 . S
H698 C710 0.950 . S
H699 C711 0.950 . S
C700 H692 0.950 . S
C700 C701 1.386 . S
C700 C702 1.391 . S
C701 C700 1.386 . S
C701 C705 1.393 . S
C702 H694 0.950 . S
C702 C700 1.391 . S
C702 C703 1.400 . S
C703 C702 1.400 . S
C703 C704 1.398 . S
C703 C709 1.491 . S
C704 H695 0.950 . S
C704 C703 1.398 . S
C704 C705 1.391 . S
C705 H693 0.950 . S
C705 C701 1.393 . S
C705 C704 1.391 . S
C706 H696 0.950 . S
C706 C707 1.386 . S
C706 C708 1.391 . S
C707 C706 1.386 . S
C707 C711 1.393 . S
C708 H697 0.950 . S
C708 C706 1.391 . S
C708 C709 1.400 . S
C709 C703 1.491 . S
C709 C708 1.400 . S
C709 C710 1.398 . S
C710 H698 0.950 . S
C710 C709 1.398 . S
C710 C711 1.391 . S
C711 H699 0.950 . S
C711 C707 1.393 . S
C711 C710 1.391 . S
H712 C720 0.950 . S
H713 C725 0.950 . S
H714 C722 0.950 . S
H715 C724 0.950 . S
H716 C726 0.950 . S
H717 C728 0.950 . S
H718 C730 0.950 . S
H719 C731 0.950 . S
C720 H712 0.950 . S
C720 C721 1.386 . S
C720 C722 1.391 . S
C721 C720 1.386 . S
C721 C725 1.393 . S
C722 H714 0.950 . S
C722 C720 1.391 . S
C722 C723 1.400 . S
C723 C722 1.400 . S
C723 C724 1.398 . S
C723 C729 1.491 . S
C724 H715 0.950 . S
C724 C723 1.398 . S
C724 C725 1.391 . S
C725 H713 0.950 . S
C725 C721 1.393 . S
C725 C724 1.391 . S
C726 H716 0.950 . S
C726 C727 1.386 . S
C726 C728 1.391 . S
C727 C726 1.386 . S
C727 C731 1.393 . S
C728 H717 0.950 . S
C728 C726 1.391 . S
C728 C729 1.400 . S
C729 C723 1.491 . S
C729 C728 1.400 . S
C729 C730 1.398 . S
C730 H718 0.950 . S
C730 C729 1.398 . S
C730 C731 1.391 . S
C731 H719 0.950 . S
C731 C727 1.393 . S
C731 C730 1.391 . S
H732 C740 0.950 . S
H733 C745 0.950 . S
H734 C742 0.950 . S
H735 C744 0.950 . S
H736 C746 0.950 . S
H737 C748 0.950 . S
H738 C750 0.950 . S
H739 C751 0.950 . S
C740 H732 0.950 . S
C740 C741 1.386 . S
C740 C742 1.391 . S
C741 C740 1.386 . S
C741 C745 1.393 . S
C742 H734 0.950 . S
C742 C740 1.391 . S
C742 C743 1.400 . S
C743 C742 1.400 . S
C743 C744 1.398 . S
C743 C749 1.491 . S
C744 H735 0.950 . S
C744 C743 1.398 . S
C744 C745 1.391 . S
C745 H733 0.950 . S
C745 C741 1.393 . S
C745 C744 1.391 . S
C746 H736 0.950 . S
C746 C747 1.386 . S
C746 C748 1.391 . S
C747 C746 1.386 . S
C747 C751 1.393 . S
C748 H737 0.950 . S
C748 C746 1.391 . S
C748 C749 1.400 . S
C749 C743 1.491 . S
C749 C748 1.400 . S
C749 C750 1.398 . S
C750 H738 0.950 . S
C750 C749 1.398 . S
C750 C751 1.391 . S
C751 H739 0.950 . S
C751 C747 1.393 . S
C751 C750 1.391 . S
H752 C760 0.950 . S
H753 C765 0.950 . S
H754 C762 0.950 . S
H755 C764 0.950 . S
H756 C766 0.950 . S
H757 C768 0.950 . S
H758 C770 0.950 . S
H759 C771 0.950 . S
C760 H752 0.950 . S
C760 C761 1.386 . S
C760 C762 1.391 . S
C761 C760 1.386 . S
C761 C765 1.393 . S
C762 H754 0.950 . S
C762 C760 1.391 . S
C762 C763 1.400 . S
C763 C762 1.400 . S
C763 C764 1.398 . S
C763 C769 1.491 . S
C764 H755 0.950 . S
C764 C763 1.398 . S
C764 C765 1.391 . S
C765 H753 0.950 . S
C765 C761 1.393 . S
C765 C764 1.391 . S
C766 H756 0.950 . S
C766 C767 1.386 . S
C766 C768 1.391 . S
C767 C766 1.386 . S
C767 C771 1.393 . S
C768 H757 0.950 . S
C768 C766 1.391 . S
C768 C769 1.400 . S
C769 C763 1.491 . S
C769 C768 1.400 . S
C769 C770 1.398 . S
C770 H758 0.950 . S
C770 C769 1.398 . S
C770 C771 1.391 . S
C771 H759 0.950 . S
C771 C767 1.393 . S
C771 C770 1.391 . S
H772 C780 0.950 . S
H773 C785 0.950 . S
H774 C782 0.950 . S
H775 C784 0.950 . S
H776 C786 0.950 . S
H777 C788 0.950 . S
H778 C790 0.950 . S
H779 C791 0.950 . S
C780 H772 0.950 . S
C780 C781 1.386 . S
C780 C782 1.391 . S
C781 C780 1.386 . S
C781 C785 1.393 . S
C782 H774 0.950 . S
C782 C780 1.391 . S
C782 C783 1.400 . S
C783 C782 1.400 . S
C783 C784 1.398 . S
C783 C789 1.491 . S
C784 H775 0.950 . S
C784 C783 1.398 . S
C784 C785 1.391 . S
C785 H773 0.950 . S
C785 C781 1.393 . S
C785 C784 1.391 . S
C786 H776 0.950 . S
C786 C787 1.386 . S
C786 C788 1.391 . S
C787 C786 1.386 . S
C787 C791 1.393 . S
C788 H777 0.950 . S
C788 C786 1.391 . S
C788 C789 1.400 . S
C789 C783 1.491 . S
C789 C788 1.400 . S
C789 C790 1.398 . S
C790 H778 0.950 . S
C790 C789 1.398 . S
C790 C791 1.391 . S
C791 H779 0.950 . S
C791 C787 1.393 . S
C791 C790 1.391 . S
H792 C800 0.950 . S
H793 C805 0.950 . S
H794 C802 0.950 . S
H795 C804 0.950 . S
H796 C806 0.950 . S
H797 C808 0.950 . S
H798 C810 0.950 . S
H799 C811 0.950 . S
C800 H792 0.950 . S
C800 C801 1.386 . S
C800 C802 1.391 . S
C801 C800 1.386 . S
C801 C805 1.393 . S
C802 H794 0.950 . S
C802 C800 1.391 . S
C802 C803 1.400 . S
C803 C802 1.400 . S
C803 C804 1.398 . S
C803 C809 1.491 . S
C804 H795 0.950 . S
C804 C803 1.398 . S
C804 C805 1.391 . S
C805 H793 0.950 . S
C805 C801 1.393 . S
C805 C804 1.391 . S
C806 H796 0.950 . S
C806 C807 1.386 . S
C806 C808 1.391 . S
C807 C806 1.386 . S
C807 C811 1.393 . S
C808 H797 0.950 . S
C808 C806 1.391 . S
C808 C809 1.400 . S
C809 C803 1.491 . S
C809 C808 1.400 . S
C809 C810 1.398 . S
C810 H798 0.950 . S
C810 C809 1.398 . S
C810 C811 1.391 . S
C811 H799 0.950 . S
C811 C807 1.393 . S
C811 C810 1.391 . S
H812 C820 0.950 . S
H813 C825 0.950 . S
H814 C822 0.950 . S
H815 C824 0.950 . S
H816 C826 0.950 . S
H817 C828 0.950 1_554 S
H818 C830 0.950 . S
H819 C831 0.950 . S
C820 H812 0.950 . S
C820 C821 1.386 . S
C820 C822 1.391 . S
C821 C820 1.386 . S
C821 C825 1.393 . S
C822 H814 0.950 . S
C822 C820 1.391 . S
C822 C823 1.400 . S
C823 C822 1.400 . S
C823 C824 1.398 . S
C823 C829 1.491 1_554 S
C824 H815 0.950 . S
C824 C823 1.398 . S
C824 C825 1.391 . S
C825 H813 0.950 . S
C825 C821 1.393 . S
C825 C824 1.391 . S
C826 H816 0.950 . S
C826 C827 1.386 . S
C826 C828 1.391 . S
C827 C826 1.386 . S
C827 C831 1.393 . S
C828 H817 0.950 1_556 S
C828 C826 1.391 . S
C828 C829 1.400 . S
C829 C823 1.491 1_556 S
C829 C828 1.400 . S
C829 C830 1.398 . S
C830 H818 0.950 . S
C830 C829 1.398 . S
C830 C831 1.391 . S
C831 H819 0.950 . S
C831 C827 1.393 . S
C831 C830 1.391 . S
H832 C840 0.950 . S
H833 C845 0.950 . S
H834 C842 0.950 . S
H835 C844 0.950 . S
H836 C846 0.950 . S
H837 C848 0.950 . S
H838 C850 0.950 . S
H839 C851 0.950 . S
C840 H832 0.950 . S
C840 C841 1.386 . S
C840 C842 1.391 . S
C841 C840 1.386 . S
C841 C845 1.393 . S
C842 H834 0.950 . S
C842 C840 1.391 . S
C842 C843 1.400 . S
C843 C842 1.400 . S
C843 C844 1.398 . S
C843 C849 1.491 . S
C844 H835 0.950 . S
C844 C843 1.398 . S
C844 C845 1.391 . S
C845 H833 0.950 . S
C845 C841 1.393 . S
C845 C844 1.391 . S
C846 H836 0.950 . S
C846 C847 1.386 . S
C846 C848 1.391 . S
C847 C846 1.386 . S
C847 C851 1.393 . S
C848 H837 0.950 . S
C848 C846 1.391 . S
C848 C849 1.400 . S
C849 C843 1.491 . S
C849 C848 1.400 . S
C849 C850 1.398 . S
C850 H838 0.950 . S
C850 C849 1.398 . S
C850 C851 1.391 . S
C851 H839 0.950 . S
C851 C847 1.393 . S
C851 C850 1.391 . S
C387 C365 1.482 . S
C381 C45 1.521 . S
C401 C84 1.485 . S
C407 C294 1.458 . S
C421 C126 1.496 . S
C427 C308 1.503 . S
C441 C189 1.494 . S
C447 C322 1.470 . S
C467 C336 1.501 . S
C461 C228 1.514 . S
C481 C270 1.490 . S
C487 C351 1.454 . S
C501 C69 1.486 . S
C507 C309 1.472 . S
C521 C141 1.524 . S
C527 C323 1.497 . S
C541 C174 1.482 . S
C547 C337 1.472 . S
C567 C350 1.498 . S
C561 C213 1.514 . S
C587 C364 1.470 . S
C581 C285 1.494 . S
C607 C295 1.484 . S
C601 C30 1.504 . S
C621 C36 1.524 . S
C627 C311 1.498 . S
C641 C93 1.607 . S
C647 C325 1.580 . S
C667 C339 1.496 . S
C661 C117 1.517 . S
C681 C180 1.603 . S
C687 C352 1.577 . S
C707 C366 1.494 . S
C701 C237 1.529 . S
C727 C297 1.578 . S
C721 C261 1.586 . S
C747 C367 1.572 . S
C741 C78 1.574 . S
C761 C132 1.523 . S
C767 C296 1.501 . S
C787 C310 1.577 . S
C781 C165 1.585 . S
C801 C222 1.504 . S
C807 C324 1.497 . S
C821 C276 1.593 . S
C827 C338 1.567 . S
C841 C21 1.525 . S
C847 C353 1.509 . S
