# Generated by pormake.
# Topology tbo, (3,4)-cn, num edge types: 1
# Building blocks:
#     Node 0, Type 0, BuildingBlock: QEWDON_clean_linker_0, # of connection points: 3
#     Node 1, Type 0, BuildingBlock: QEWDON_clean_linker_0, # of connection points: 3
#     Node 2, Type 0, BuildingBlock: QEWDON_clean_linker_0, # of connection points: 3
#     Node 3, Type 0, BuildingBlock: QEWDON_clean_linker_0, # of connection points: 3
#     Node 4, Type 0, BuildingBlock: QEWDON_clean_linker_0, # of connection points: 3
#     Node 5, Type 0, BuildingBlock: QEWDON_clean_linker_0, # of connection points: 3
#     Node 6, Type 0, BuildingBlock: QEWDON_clean_linker_0, # of connection points: 3
#     Node 7, Type 0, BuildingBlock: QEWDON_clean_linker_0, # of connection points: 3
#     Node 8, Type 0, BuildingBlock: QEWDON_clean_linker_0, # of connection points: 3
#     Node 9, Type 0, BuildingBlock: QEWDON_clean_linker_0, # of connection points: 3
#     Node 10, Type 0, BuildingBlock: QEWDON_clean_linker_0, # of connection points: 3
#     Node 11, Type 0, BuildingBlock: QEWDON_clean_linker_0, # of connection points: 3
#     Node 12, Type 0, BuildingBlock: QEWDON_clean_linker_0, # of connection points: 3
#     Node 13, Type 0, BuildingBlock: QEWDON_clean_linker_0, # of connection points: 3
#     Node 14, Type 0, BuildingBlock: QEWDON_clean_linker_0, # of connection points: 3
#     Node 15, Type 0, BuildingBlock: QEWDON_clean_linker_0, # of connection points: 3
#     Node 16, Type 0, BuildingBlock: QEWDON_clean_linker_0, # of connection points: 3
#     Node 17, Type 0, BuildingBlock: QEWDON_clean_linker_0, # of connection points: 3
#     Node 18, Type 0, BuildingBlock: QEWDON_clean_linker_0, # of connection points: 3
#     Node 19, Type 0, BuildingBlock: QEWDON_clean_linker_0, # of connection points: 3
#     Node 20, Type 0, BuildingBlock: QEWDON_clean_linker_0, # of connection points: 3
#     Node 21, Type 0, BuildingBlock: QEWDON_clean_linker_0, # of connection points: 3
#     Node 22, Type 0, BuildingBlock: QEWDON_clean_linker_0, # of connection points: 3
#     Node 23, Type 0, BuildingBlock: QEWDON_clean_linker_0, # of connection points: 3
#     Node 24, Type 0, BuildingBlock: QEWDON_clean_linker_0, # of connection points: 3
#     Node 25, Type 0, BuildingBlock: QEWDON_clean_linker_0, # of connection points: 3
#     Node 26, Type 0, BuildingBlock: QEWDON_clean_linker_0, # of connection points: 3
#     Node 27, Type 0, BuildingBlock: QEWDON_clean_linker_0, # of connection points: 3
#     Node 28, Type 0, BuildingBlock: QEWDON_clean_linker_0, # of connection points: 3
#     Node 29, Type 0, BuildingBlock: QEWDON_clean_linker_0, # of connection points: 3
#     Node 30, Type 0, BuildingBlock: QEWDON_clean_linker_0, # of connection points: 3
#     Node 31, Type 0, BuildingBlock: QEWDON_clean_linker_0, # of connection points: 3
#     Node 32, Type 1, BuildingBlock: ESEHIV_clean_sbu_0, # of connection points: 4
#     Node 33, Type 1, BuildingBlock: ESEHIV_clean_sbu_0, # of connection points: 4
#     Node 34, Type 1, BuildingBlock: ESEHIV_clean_sbu_0, # of connection points: 4
#     Node 35, Type 1, BuildingBlock: ESEHIV_clean_sbu_0, # of connection points: 4
#     Node 36, Type 1, BuildingBlock: ESEHIV_clean_sbu_0, # of connection points: 4
#     Node 37, Type 1, BuildingBlock: ESEHIV_clean_sbu_0, # of connection points: 4
#     Node 38, Type 1, BuildingBlock: ESEHIV_clean_sbu_0, # of connection points: 4
#     Node 39, Type 1, BuildingBlock: ESEHIV_clean_sbu_0, # of connection points: 4
#     Node 40, Type 1, BuildingBlock: ESEHIV_clean_sbu_0, # of connection points: 4
#     Node 41, Type 1, BuildingBlock: ESEHIV_clean_sbu_0, # of connection points: 4
#     Node 42, Type 1, BuildingBlock: ESEHIV_clean_sbu_0, # of connection points: 4
#     Node 43, Type 1, BuildingBlock: ESEHIV_clean_sbu_0, # of connection points: 4
#     Node 44, Type 1, BuildingBlock: ESEHIV_clean_sbu_0, # of connection points: 4
#     Node 45, Type 1, BuildingBlock: ESEHIV_clean_sbu_0, # of connection points: 4
#     Node 46, Type 1, BuildingBlock: ESEHIV_clean_sbu_0, # of connection points: 4
#     Node 47, Type 1, BuildingBlock: ESEHIV_clean_sbu_0, # of connection points: 4
#     Node 48, Type 1, BuildingBlock: ESEHIV_clean_sbu_0, # of connection points: 4
#     Node 49, Type 1, BuildingBlock: ESEHIV_clean_sbu_0, # of connection points: 4
#     Node 50, Type 1, BuildingBlock: ESEHIV_clean_sbu_0, # of connection points: 4
#     Node 51, Type 1, BuildingBlock: ESEHIV_clean_sbu_0, # of connection points: 4
#     Node 52, Type 1, BuildingBlock: ESEHIV_clean_sbu_0, # of connection points: 4
#     Node 53, Type 1, BuildingBlock: ESEHIV_clean_sbu_0, # of connection points: 4
#     Node 54, Type 1, BuildingBlock: ESEHIV_clean_sbu_0, # of connection points: 4
#     Node 55, Type 1, BuildingBlock: ESEHIV_clean_sbu_0, # of connection points: 4
#     Edge 56, Type (0, 1), BuildingBlock: KIFKEQ_clean_linker_1, # of connection points: 2
#     Edge 57, Type (0, 1), BuildingBlock: KIFKEQ_clean_linker_1, # of connection points: 2
#     Edge 58, Type (0, 1), BuildingBlock: KIFKEQ_clean_linker_1, # of connection points: 2
#     Edge 59, Type (0, 1), BuildingBlock: KIFKEQ_clean_linker_1, # of connection points: 2
#     Edge 60, Type (0, 1), BuildingBlock: KIFKEQ_clean_linker_1, # of connection points: 2
#     Edge 61, Type (0, 1), BuildingBlock: KIFKEQ_clean_linker_1, # of connection points: 2
#     Edge 62, Type (0, 1), BuildingBlock: KIFKEQ_clean_linker_1, # of connection points: 2
#     Edge 63, Type (0, 1), BuildingBlock: KIFKEQ_clean_linker_1, # of connection points: 2
#     Edge 64, Type (0, 1), BuildingBlock: KIFKEQ_clean_linker_1, # of connection points: 2
#     Edge 65, Type (0, 1), BuildingBlock: KIFKEQ_clean_linker_1, # of connection points: 2
#     Edge 66, Type (0, 1), BuildingBlock: KIFKEQ_clean_linker_1, # of connection points: 2
#     Edge 67, Type (0, 1), BuildingBlock: KIFKEQ_clean_linker_1, # of connection points: 2
#     Edge 68, Type (0, 1), BuildingBlock: KIFKEQ_clean_linker_1, # of connection points: 2
#     Edge 69, Type (0, 1), BuildingBlock: KIFKEQ_clean_linker_1, # of connection points: 2
#     Edge 70, Type (0, 1), BuildingBlock: KIFKEQ_clean_linker_1, # of connection points: 2
#     Edge 71, Type (0, 1), BuildingBlock: KIFKEQ_clean_linker_1, # of connection points: 2
#     Edge 72, Type (0, 1), BuildingBlock: KIFKEQ_clean_linker_1, # of connection points: 2
#     Edge 73, Type (0, 1), BuildingBlock: KIFKEQ_clean_linker_1, # of connection points: 2
#     Edge 74, Type (0, 1), BuildingBlock: KIFKEQ_clean_linker_1, # of connection points: 2
#     Edge 75, Type (0, 1), BuildingBlock: KIFKEQ_clean_linker_1, # of connection points: 2
#     Edge 76, Type (0, 1), BuildingBlock: KIFKEQ_clean_linker_1, # of connection points: 2
#     Edge 77, Type (0, 1), BuildingBlock: KIFKEQ_clean_linker_1, # of connection points: 2
#     Edge 78, Type (0, 1), BuildingBlock: KIFKEQ_clean_linker_1, # of connection points: 2
#     Edge 79, Type (0, 1), BuildingBlock: KIFKEQ_clean_linker_1, # of connection points: 2
#     Edge 80, Type (0, 1), BuildingBlock: KIFKEQ_clean_linker_1, # of connection points: 2
#     Edge 81, Type (0, 1), BuildingBlock: KIFKEQ_clean_linker_1, # of connection points: 2
#     Edge 82, Type (0, 1), BuildingBlock: KIFKEQ_clean_linker_1, # of connection points: 2
#     Edge 83, Type (0, 1), BuildingBlock: KIFKEQ_clean_linker_1, # of connection points: 2
#     Edge 84, Type (0, 1), BuildingBlock: KIFKEQ_clean_linker_1, # of connection points: 2
#     Edge 85, Type (0, 1), BuildingBlock: KIFKEQ_clean_linker_1, # of connection points: 2
#     Edge 86, Type (0, 1), BuildingBlock: KIFKEQ_clean_linker_1, # of connection points: 2
#     Edge 87, Type (0, 1), BuildingBlock: KIFKEQ_clean_linker_1, # of connection points: 2
#     Edge 88, Type (0, 1), BuildingBlock: KIFKEQ_clean_linker_1, # of connection points: 2
#     Edge 89, Type (0, 1), BuildingBlock: KIFKEQ_clean_linker_1, # of connection points: 2
#     Edge 90, Type (0, 1), BuildingBlock: KIFKEQ_clean_linker_1, # of connection points: 2
#     Edge 91, Type (0, 1), BuildingBlock: KIFKEQ_clean_linker_1, # of connection points: 2
#     Edge 92, Type (0, 1), BuildingBlock: KIFKEQ_clean_linker_1, # of connection points: 2
#     Edge 93, Type (0, 1), BuildingBlock: KIFKEQ_clean_linker_1, # of connection points: 2
#     Edge 94, Type (0, 1), BuildingBlock: KIFKEQ_clean_linker_1, # of connection points: 2
#     Edge 95, Type (0, 1), BuildingBlock: KIFKEQ_clean_linker_1, # of connection points: 2
#     Edge 96, Type (0, 1), BuildingBlock: KIFKEQ_clean_linker_1, # of connection points: 2
#     Edge 97, Type (0, 1), BuildingBlock: KIFKEQ_clean_linker_1, # of connection points: 2
#     Edge 98, Type (0, 1), BuildingBlock: KIFKEQ_clean_linker_1, # of connection points: 2
#     Edge 99, Type (0, 1), BuildingBlock: KIFKEQ_clean_linker_1, # of connection points: 2
#     Edge 100, Type (0, 1), BuildingBlock: KIFKEQ_clean_linker_1, # of connection points: 2
#     Edge 101, Type (0, 1), BuildingBlock: KIFKEQ_clean_linker_1, # of connection points: 2
#     Edge 102, Type (0, 1), BuildingBlock: KIFKEQ_clean_linker_1, # of connection points: 2
#     Edge 103, Type (0, 1), BuildingBlock: KIFKEQ_clean_linker_1, # of connection points: 2
#     Edge 104, Type (0, 1), BuildingBlock: KIFKEQ_clean_linker_1, # of connection points: 2
#     Edge 105, Type (0, 1), BuildingBlock: KIFKEQ_clean_linker_1, # of connection points: 2
#     Edge 106, Type (0, 1), BuildingBlock: KIFKEQ_clean_linker_1, # of connection points: 2
#     Edge 107, Type (0, 1), BuildingBlock: KIFKEQ_clean_linker_1, # of connection points: 2
#     Edge 108, Type (0, 1), BuildingBlock: KIFKEQ_clean_linker_1, # of connection points: 2
#     Edge 109, Type (0, 1), BuildingBlock: KIFKEQ_clean_linker_1, # of connection points: 2
#     Edge 110, Type (0, 1), BuildingBlock: KIFKEQ_clean_linker_1, # of connection points: 2
#     Edge 111, Type (0, 1), BuildingBlock: KIFKEQ_clean_linker_1, # of connection points: 2
#     Edge 112, Type (0, 1), BuildingBlock: KIFKEQ_clean_linker_1, # of connection points: 2
#     Edge 113, Type (0, 1), BuildingBlock: KIFKEQ_clean_linker_1, # of connection points: 2
#     Edge 114, Type (0, 1), BuildingBlock: KIFKEQ_clean_linker_1, # of connection points: 2
#     Edge 115, Type (0, 1), BuildingBlock: KIFKEQ_clean_linker_1, # of connection points: 2
#     Edge 116, Type (0, 1), BuildingBlock: KIFKEQ_clean_linker_1, # of connection points: 2
#     Edge 117, Type (0, 1), BuildingBlock: KIFKEQ_clean_linker_1, # of connection points: 2
#     Edge 118, Type (0, 1), BuildingBlock: KIFKEQ_clean_linker_1, # of connection points: 2
#     Edge 119, Type (0, 1), BuildingBlock: KIFKEQ_clean_linker_1, # of connection points: 2
#     Edge 120, Type (0, 1), BuildingBlock: KIFKEQ_clean_linker_1, # of connection points: 2
#     Edge 121, Type (0, 1), BuildingBlock: KIFKEQ_clean_linker_1, # of connection points: 2
#     Edge 122, Type (0, 1), BuildingBlock: KIFKEQ_clean_linker_1, # of connection points: 2
#     Edge 123, Type (0, 1), BuildingBlock: KIFKEQ_clean_linker_1, # of connection points: 2
#     Edge 124, Type (0, 1), BuildingBlock: KIFKEQ_clean_linker_1, # of connection points: 2
#     Edge 125, Type (0, 1), BuildingBlock: KIFKEQ_clean_linker_1, # of connection points: 2
#     Edge 126, Type (0, 1), BuildingBlock: KIFKEQ_clean_linker_1, # of connection points: 2
#     Edge 127, Type (0, 1), BuildingBlock: KIFKEQ_clean_linker_1, # of connection points: 2
#     Edge 128, Type (0, 1), BuildingBlock: KIFKEQ_clean_linker_1, # of connection points: 2
#     Edge 129, Type (0, 1), BuildingBlock: KIFKEQ_clean_linker_1, # of connection points: 2
#     Edge 130, Type (0, 1), BuildingBlock: KIFKEQ_clean_linker_1, # of connection points: 2
#     Edge 131, Type (0, 1), BuildingBlock: KIFKEQ_clean_linker_1, # of connection points: 2
#     Edge 132, Type (0, 1), BuildingBlock: KIFKEQ_clean_linker_1, # of connection points: 2
#     Edge 133, Type (0, 1), BuildingBlock: KIFKEQ_clean_linker_1, # of connection points: 2
#     Edge 134, Type (0, 1), BuildingBlock: KIFKEQ_clean_linker_1, # of connection points: 2
#     Edge 135, Type (0, 1), BuildingBlock: KIFKEQ_clean_linker_1, # of connection points: 2
#     Edge 136, Type (0, 1), BuildingBlock: KIFKEQ_clean_linker_1, # of connection points: 2
#     Edge 137, Type (0, 1), BuildingBlock: KIFKEQ_clean_linker_1, # of connection points: 2
#     Edge 138, Type (0, 1), BuildingBlock: KIFKEQ_clean_linker_1, # of connection points: 2
#     Edge 139, Type (0, 1), BuildingBlock: KIFKEQ_clean_linker_1, # of connection points: 2
#     Edge 140, Type (0, 1), BuildingBlock: KIFKEQ_clean_linker_1, # of connection points: 2
#     Edge 141, Type (0, 1), BuildingBlock: KIFKEQ_clean_linker_1, # of connection points: 2
#     Edge 142, Type (0, 1), BuildingBlock: KIFKEQ_clean_linker_1, # of connection points: 2
#     Edge 143, Type (0, 1), BuildingBlock: KIFKEQ_clean_linker_1, # of connection points: 2
#     Edge 144, Type (0, 1), BuildingBlock: KIFKEQ_clean_linker_1, # of connection points: 2
#     Edge 145, Type (0, 1), BuildingBlock: KIFKEQ_clean_linker_1, # of connection points: 2
#     Edge 146, Type (0, 1), BuildingBlock: KIFKEQ_clean_linker_1, # of connection points: 2
#     Edge 147, Type (0, 1), BuildingBlock: KIFKEQ_clean_linker_1, # of connection points: 2
#     Edge 148, Type (0, 1), BuildingBlock: KIFKEQ_clean_linker_1, # of connection points: 2
#     Edge 149, Type (0, 1), BuildingBlock: KIFKEQ_clean_linker_1, # of connection points: 2
#     Edge 150, Type (0, 1), BuildingBlock: KIFKEQ_clean_linker_1, # of connection points: 2
#     Edge 151, Type (0, 1), BuildingBlock: KIFKEQ_clean_linker_1, # of connection points: 2
# Relax obj value: 0.046
# Max RMSD: 0.212
# Mean RMSD: 0.137
data_MOF--net-tbo--node1-ESEHIV_clean_sbu_0--node2-QEWDON_clean_linker_0--edge1-KIFKEQ_clean_linker_1
_symmetry_space_group_name_H-M    P1
_symmetry_Int_Tables_number       1
_symmetry_cell_setting            triclinic
loop_
_symmetry_equiv_pos_as_xyz
'x, y, z'
_cell_length_a     71.148897
_cell_length_b     72.078129
_cell_length_c     79.568701
_cell_angle_alpha  90.272739
_cell_angle_beta   92.804843
_cell_angle_gamma 104.9176
loop_
_atom_site_label
_atom_site_type_symbol
_atom_site_fract_x
_atom_site_fract_y
_atom_site_fract_z
_atom_type_partial_charge
H0 H 0.18721 0.12256 0.22156 0.0
C1 C 0.19705 0.12992 0.21232 0.0
C2 C 0.21437 0.12444 0.20962 0.0
C3 C 0.19148 0.14368 0.20209 0.0
H4 H 0.23973 0.12947 0.19465 0.0
C5 C 0.22644 0.13357 0.19689 0.0
C6 C 0.2211 0.14731 0.18648 0.0
C7 C 0.20361 0.15226 0.18927 0.0
C8 C 0.1715 0.14655 0.20241 0.0
H9 H 0.19908 0.16251 0.18113 0.0
C10 C 0.16486 0.15519 0.21621 0.0
C11 C 0.14615 0.15878 0.21511 0.0
C12 C 0.15904 0.14099 0.188 0.0
H13 H 0.16374 0.13425 0.17734 0.0
C14 C 0.14049 0.14404 0.18712 0.0
H15 H 0.17438 0.15972 0.22734 0.0
C16 C 0.13413 0.15295 0.20048 0.0
H17 H 0.11968 0.15531 0.19937 0.0
H18 H 0.13105 0.13965 0.17594 0.0
H19 H 0.88637 0.23527 0.1926 0.0
C20 C 0.87756 0.22091 0.19487 0.0
C21 C 0.88598 0.20769 0.20324 0.0
C22 C 0.85774 0.21571 0.18958 0.0
H23 H 0.88081 0.17894 0.21272 0.0
C24 C 0.87441 0.18915 0.20615 0.0
C25 C 0.85455 0.18383 0.20109 0.0
C26 C 0.84635 0.1972 0.19277 0.0
C27 C 0.84881 0.22939 0.18048 0.0
H28 H 0.831 0.19326 0.18887 0.0
C29 C 0.85751 0.2388 0.16633 0.0
C30 C 0.84821 0.2504 0.15656 0.0
C31 C 0.83098 0.23219 0.18525 0.0
H32 H 0.82406 0.22514 0.19618 0.0
C33 C 0.82189 0.24404 0.1759 0.0
H34 H 0.87132 0.23668 0.16275 0.0
C35 C 0.83031 0.25296 0.16157 0.0
H36 H 0.82253 0.26147 0.15422 0.0
H37 H 0.8081 0.24604 0.17959 0.0
H38 H 0.89572 0.85426 0.2246 0.0
C39 C 0.89076 0.85035 0.21166 0.0
C40 C 0.90137 0.84099 0.20156 0.0
C41 C 0.87325 0.854 0.20551 0.0
H42 H 0.90178 0.82759 0.17732 0.0
C43 C 0.89415 0.8355 0.1849 0.0
C44 C 0.87651 0.83901 0.17839 0.0
C45 C 0.86635 0.84848 0.1889 0.0
C46 C 0.8601 0.85937 0.21749 0.0
H47 H 0.85266 0.85112 0.18443 0.0
C48 C 0.86043 0.87865 0.22141 0.0
C49 C 0.84765 0.88279 0.23321 0.0
C50 C 0.84696 0.84442 0.22529 0.0
H51 H 0.8465 0.82958 0.22246 0.0
C52 C 0.83432 0.84838 0.23677 0.0
H53 H 0.87062 0.89024 0.21545 0.0
C54 C 0.83459 0.8673 0.24067 0.0
H55 H 0.8242 0.86977 0.24936 0.0
H56 H 0.82415 0.8367 0.24261 0.0
H57 H 0.2227 0.83089 0.14214 0.0
C58 C 0.20995 0.82352 0.14866 0.0
C59 C 0.20724 0.82977 0.16493 0.0
C60 C 0.19596 0.8082 0.14063 0.0
H61 H 0.18782 0.82583 0.18536 0.0
C62 C 0.19031 0.82069 0.17305 0.0
C63 C 0.17618 0.80552 0.16517 0.0
C64 C 0.17928 0.79908 0.14916 0.0
C65 C 0.19796 0.80246 0.12295 0.0
H66 H 0.16832 0.78736 0.14309 0.0
C67 C 0.21602 0.80109 0.11726 0.0
C68 C 0.21767 0.79569 0.10044 0.0
C69 C 0.18161 0.79849 0.11156 0.0
H70 H 0.16761 0.79981 0.1154 0.0
C71 C 0.18314 0.79301 0.09497 0.0
H72 H 0.22875 0.80424 0.12588 0.0
C73 C 0.20098 0.79155 0.08944 0.0
H74 H 0.20164 0.787 0.07654 0.0
H75 H 0.17042 0.7899 0.08636 0.0
H76 H 0.25378 0.84441 0.86882 0.0
C77 C 0.23835 0.83791 0.86641 0.0
C78 C 0.22595 0.84946 0.86152 0.0
C79 C 0.23099 0.81794 0.86761 0.0
H80 H 0.19686 0.8498 0.85323 0.0
C81 C 0.20612 0.84092 0.85786 0.0
C82 C 0.1985 0.82099 0.85889 0.0
C83 C 0.21105 0.80962 0.86399 0.0
C84 C 0.2443 0.80559 0.8716 0.0
H85 H 0.20534 0.79424 0.86505 0.0
C86 C 0.25819 0.81018 0.8852 0.0
C87 C 0.27095 0.79852 0.88879 0.0
C88 C 0.2433 0.78921 0.86159 0.0
H89 H 0.23288 0.78547 0.85095 0.0
C90 C 0.25599 0.77768 0.86504 0.0
H91 H 0.25902 0.82277 0.893 0.0
C92 C 0.26974 0.78227 0.87852 0.0
H93 H 0.2792 0.7729 0.88111 0.0
H94 H 0.25514 0.76511 0.85724 0.0
H95 H 0.22373 0.19986 0.90786 0.0
C96 C 0.23128 0.19005 0.90266 0.0
C97 C 0.24832 0.1874 0.91109 0.0
C98 C 0.22334 0.1794 0.88801 0.0
H99 H 0.27036 0.17151 0.91095 0.0
C100 C 0.25767 0.17414 0.90429 0.0
C101 C 0.24987 0.16326 0.88959 0.0
C102 C 0.23292 0.16635 0.88149 0.0
C103 C 0.20366 0.17962 0.88075 0.0
H104 H 0.22675 0.15817 0.87017 0.0
C105 C 0.19871 0.19674 0.87594 0.0
C106 C 0.17995 0.19589 0.86867 0.0
C107 C 0.18951 0.16199 0.87857 0.0
H108 H 0.19278 0.14869 0.88234 0.0
C109 C 0.17097 0.16126 0.87164 0.0
H110 H 0.20943 0.21044 0.87744 0.0
C111 C 0.16623 0.17805 0.86665 0.0
H112 H 0.15179 0.17712 0.86112 0.0
H113 H 0.16025 0.14758 0.87004 0.0
H114 H 0.94942 0.18347 0.89198 0.0
C115 C 0.93727 0.17216 0.8869 0.0
C116 C 0.93506 0.16838 0.86947 0.0
C117 C 0.92395 0.16135 0.89784 0.0
H118 H 0.91728 0.15105 0.84961 0.0
C119 C 0.91912 0.15384 0.86306 0.0
C120 C 0.90565 0.14279 0.87381 0.0
C121 C 0.90826 0.14663 0.89122 0.0
C122 C 0.92634 0.16543 0.91622 0.0
H123 H 0.89807 0.13818 0.89968 0.0
C124 C 0.92962 0.18436 0.92247 0.0
C125 C 0.93055 0.18807 0.9399 0.0
C126 C 0.92466 0.15032 0.92762 0.0
H127 H 0.92234 0.13565 0.92312 0.0
C128 C 0.92601 0.15402 0.94493 0.0
H129 H 0.93051 0.19608 0.9138 0.0
C130 C 0.92876 0.17275 0.95106 0.0
H131 H 0.92944 0.17529 0.96454 0.0
H132 H 0.92468 0.14229 0.95361 0.0
H133 H 0.90314 0.85415 0.85504 0.0
C134 C 0.89657 0.84645 0.86583 0.0
C135 C 0.90079 0.82895 0.8703 0.0
C136 C 0.88543 0.85492 0.87621 0.0
H137 H 0.89589 0.80605 0.88821 0.0
C138 C 0.89301 0.81967 0.88491 0.0
C139 C 0.88193 0.8278 0.89551 0.0
C140 C 0.87802 0.84533 0.8909 0.0
C141 C 0.88484 0.87535 0.87385 0.0
H142 H 0.87012 0.85214 0.89926 0.0
C143 C 0.87716 0.88212 0.85896 0.0
C144 C 0.87711 0.9018 0.85763 0.0
C145 C 0.89254 0.88843 0.88713 0.0
H146 H 0.8987 0.88375 0.89857 0.0
C147 C 0.89258 0.90767 0.88586 0.0
H148 H 0.8712 0.87218 0.84862 0.0
C149 C 0.88491 0.91428 0.87136 0.0
H150 H 0.88471 0.92925 0.8711 0.0
H151 H 0.89848 0.91751 0.89626 0.0
H152 H 0.19484 0.63013 0.70789 0.0
C153 C 0.20207 0.63872 0.69779 0.0
C154 C 0.22065 0.63737 0.69345 0.0
C155 C 0.19198 0.6499 0.68839 0.0
H156 H 0.24338 0.64685 0.67602 0.0
C157 C 0.22907 0.64766 0.67946 0.0
C158 C 0.21915 0.65895 0.66982 0.0
C159 C 0.20064 0.66007 0.67453 0.0
C160 C 0.17093 0.6474 0.69072 0.0
H161 H 0.1924 0.66786 0.66679 0.0
C162 C 0.16386 0.65948 0.70147 0.0
C163 C 0.14365 0.65565 0.70387 0.0
C164 C 0.15773 0.63194 0.68227 0.0
H165 H 0.1629 0.62255 0.674 0.0
C166 C 0.13783 0.62831 0.68452 0.0
H167 H 0.17394 0.6714 0.70811 0.0
C168 C 0.13084 0.63998 0.69529 0.0
H169 H 0.1153 0.63682 0.6969 0.0
H170 H 0.12779 0.61631 0.67796 0.0
H171 H 0.88911 0.72734 0.68368 0.0
C172 C 0.88799 0.71491 0.69156 0.0
C173 C 0.9027 0.71505 0.70398 0.0
C174 C 0.87138 0.69926 0.68997 0.0
H175 H 0.91216 0.69975 0.7245 0.0
C176 C 0.90092 0.69935 0.7147 0.0
C177 C 0.88474 0.6834 0.71307 0.0
C178 C 0.87013 0.68343 0.70054 0.0
C179 C 0.85477 0.69988 0.6781 0.0
H180 H 0.8577 0.67108 0.69895 0.0
C181 C 0.85793 0.70744 0.6619 0.0
C182 C 0.84218 0.70901 0.65102 0.0
C183 C 0.83556 0.69347 0.68321 0.0
H184 H 0.83262 0.68788 0.69569 0.0
C185 C 0.8199 0.69473 0.67246 0.0
H186 H 0.87267 0.71195 0.65775 0.0
C187 C 0.82313 0.70255 0.65655 0.0
H188 H 0.81067 0.70394 0.64877 0.0
H189 H 0.80519 0.68996 0.67661 0.0
H190 H 0.89488 0.36374 0.73611 0.0
C191 C 0.89259 0.35823 0.72327 0.0
C192 C 0.90612 0.34933 0.71649 0.0
C193 C 0.87519 0.35839 0.71405 0.0
H194 H 0.9133 0.33549 0.69462 0.0
C195 C 0.90249 0.34157 0.70001 0.0
C196 C 0.88505 0.34108 0.69064 0.0
C197 C 0.87159 0.34973 0.69783 0.0
C198 C 0.85903 0.36412 0.72226 0.0
H199 H 0.85773 0.34893 0.69121 0.0
C200 C 0.86059 0.38299 0.72851 0.0
C201 C 0.84422 0.38773 0.73523 0.0
C202 C 0.84131 0.35012 0.72341 0.0
H203 H 0.83976 0.33556 0.71892 0.0
C204 C 0.82544 0.35459 0.7304 0.0
H205 H 0.87413 0.39395 0.7276 0.0
C206 C 0.82682 0.37317 0.73619 0.0
H207 H 0.81418 0.37611 0.7416 0.0
H208 H 0.81193 0.34359 0.73127 0.0
H209 H 0.21165 0.36149 0.64853 0.0
C210 C 0.20039 0.35211 0.6555 0.0
C211 C 0.19839 0.35655 0.67239 0.0
C212 C 0.1879 0.33573 0.64758 0.0
H213 H 0.1817 0.34855 0.69421 0.0
C214 C 0.18363 0.34465 0.68135 0.0
C215 C 0.17081 0.32836 0.67368 0.0
C216 C 0.17309 0.32394 0.65679 0.0
C217 C 0.19023 0.33105 0.62967 0.0
H218 H 0.16351 0.31115 0.65093 0.0
C219 C 0.20891 0.33356 0.62338 0.0
C220 C 0.21105 0.32874 0.60655 0.0
C221 C 0.17375 0.32398 0.61875 0.0
H222 H 0.1592 0.32225 0.62307 0.0
C223 C 0.17583 0.31928 0.60203 0.0
H224 H 0.22179 0.33865 0.63166 0.0
C225 C 0.19434 0.32154 0.59597 0.0
H226 H 0.19561 0.3178 0.58294 0.0
H227 H 0.16304 0.31386 0.59374 0.0
H228 H 0.25188 0.34429 0.35523 0.0
C229 C 0.23688 0.34275 0.35082 0.0
C230 C 0.23071 0.35909 0.3461 0.0
C231 C 0.2238 0.32445 0.34996 0.0
H232 H 0.20624 0.36953 0.33694 0.0
C233 C 0.21114 0.35703 0.34067 0.0
C234 C 0.19809 0.33874 0.33937 0.0
C235 C 0.20454 0.32257 0.344 0.0
C236 C 0.22987 0.30735 0.35602 0.0
H237 H 0.19429 0.30851 0.34353 0.0
C238 C 0.23988 0.30796 0.37175 0.0
C239 C 0.24439 0.29143 0.37831 0.0
C240 C 0.22476 0.29009 0.3466 0.0
H241 H 0.21709 0.28926 0.33441 0.0
C242 C 0.22951 0.27372 0.35287 0.0
H243 H 0.24386 0.32129 0.37899 0.0
C244 C 0.23918 0.27431 0.36865 0.0
H245 H 0.24223 0.26128 0.37338 0.0
H246 H 0.22549 0.26046 0.34556 0.0
H247 H 0.21492 0.67443 0.38557 0.0
C248 C 0.2225 0.66586 0.37862 0.0
C249 C 0.24033 0.6632 0.38532 0.0
C250 C 0.21393 0.65668 0.36343 0.0
H251 H 0.26318 0.64911 0.38183 0.0
C252 C 0.24961 0.65133 0.37655 0.0
C253 C 0.24113 0.64167 0.36146 0.0
C254 C 0.22343 0.64473 0.35496 0.0
C255 C 0.1936 0.65667 0.35784 0.0
H256 H 0.2164 0.63699 0.34367 0.0
C257 C 0.18776 0.67371 0.35424 0.0
C258 C 0.16812 0.67269 0.34913 0.0
C259 C 0.17967 0.63889 0.35624 0.0
H260 H 0.18368 0.62567 0.35903 0.0
C261 C 0.16042 0.63787 0.35124 0.0
H262 H 0.19834 0.68753 0.3554 0.0
C263 C 0.15467 0.65455 0.34771 0.0
H264 H 0.13963 0.65323 0.34362 0.0
H265 H 0.14987 0.62405 0.35006 0.0
H266 H 0.92542 0.68714 0.37741 0.0
C267 C 0.9167 0.67426 0.37101 0.0
C268 C 0.92012 0.67045 0.35424 0.0
C269 C 0.90218 0.66141 0.37961 0.0
H270 H 0.91195 0.65027 0.33343 0.0
C271 C 0.90886 0.65363 0.34613 0.0
C272 C 0.8941 0.64078 0.3544 0.0
C273 C 0.89086 0.64479 0.37114 0.0
C274 C 0.8989 0.66508 0.39749 0.0
H275 H 0.87923 0.63513 0.37752 0.0
C276 C 0.89837 0.6835 0.40317 0.0
C277 C 0.89416 0.68647 0.41991 0.0
C278 C 0.89582 0.64991 0.40894 0.0
H279 H 0.89648 0.63569 0.40502 0.0
C280 C 0.89193 0.65292 0.4256 0.0
H281 H 0.90044 0.6953 0.39448 0.0
C282 C 0.89093 0.67104 0.43104 0.0
H283 H 0.88769 0.67305 0.44399 0.0
H284 H 0.88954 0.64114 0.43429 0.0
H285 H 0.89756 0.33597 0.36518 0.0
C286 C 0.88946 0.33098 0.3762 0.0
C287 C 0.89157 0.31414 0.38406 0.0
C288 C 0.87794 0.34216 0.38288 0.0
H289 H 0.88338 0.29566 0.40522 0.0
C290 C 0.8816 0.30839 0.39884 0.0
C291 C 0.86988 0.31932 0.40576 0.0
C292 C 0.86801 0.33612 0.39753 0.0
C293 C 0.87881 0.36144 0.3758 0.0
H294 H 0.85946 0.34491 0.40288 0.0
C295 C 0.86196 0.36715 0.3702 0.0
C296 C 0.86381 0.38523 0.3626 0.0
C297 C 0.89722 0.37426 0.37434 0.0
H298 H 0.91032 0.37035 0.37872 0.0
C299 C 0.899 0.39222 0.3673 0.0
H300 H 0.84768 0.35737 0.37114 0.0
C301 C 0.8825 0.39764 0.3614 0.0
H302 H 0.88435 0.41168 0.3559 0.0
H303 H 0.91328 0.40196 0.36631 0.0
H304 H 0.70885 0.12984 0.7065 0.0
C305 C 0.71549 0.13791 0.6959 0.0
C306 C 0.734 0.13661 0.69118 0.0
C307 C 0.70474 0.14821 0.68622 0.0
H308 H 0.75578 0.14498 0.67266 0.0
C309 C 0.74177 0.14617 0.67659 0.0
C310 C 0.73119 0.15677 0.66679 0.0
C311 C 0.71278 0.15772 0.67188 0.0
C312 C 0.68366 0.14559 0.68864 0.0
H313 H 0.70424 0.16539 0.66433 0.0
C314 C 0.67653 0.15492 0.70167 0.0
C315 C 0.65618 0.15185 0.70315 0.0
C316 C 0.67041 0.13344 0.67719 0.0
H317 H 0.67558 0.12621 0.66709 0.0
C318 C 0.65044 0.13045 0.67859 0.0
H319 H 0.68666 0.16436 0.71054 0.0
C320 C 0.64337 0.13954 0.69141 0.0
H321 H 0.62774 0.13712 0.692 0.0
H322 H 0.64038 0.12108 0.66964 0.0
H323 H 0.38605 0.24351 0.69352 0.0
C324 C 0.37945 0.23048 0.70007 0.0
C325 C 0.39126 0.22074 0.70921 0.0
C326 C 0.35909 0.22338 0.69929 0.0
H327 H 0.39136 0.19636 0.72485 0.0
C328 C 0.38242 0.20371 0.71743 0.0
C329 C 0.3621 0.19633 0.71652 0.0
C330 C 0.35056 0.20638 0.70753 0.0
C331 C 0.34649 0.233 0.68923 0.0
H332 H 0.33488 0.20061 0.70639 0.0
C333 C 0.34923 0.23596 0.67201 0.0
C334 C 0.33588 0.24293 0.66191 0.0
C335 C 0.33063 0.23765 0.69645 0.0
H336 H 0.32823 0.2354 0.70971 0.0
C337 C 0.31762 0.24505 0.68655 0.0
H338 H 0.36116 0.23191 0.66631 0.0
C339 C 0.32009 0.24753 0.66934 0.0
H340 H 0.30971 0.25307 0.66182 0.0
H341 H 0.30542 0.24861 0.69219 0.0
H342 H 0.39282 0.86899 0.73415 0.0
C343 C 0.38926 0.86294 0.72155 0.0
C344 C 0.40141 0.85275 0.71425 0.0
C345 C 0.37192 0.86448 0.71305 0.0
H346 H 0.40486 0.83594 0.69262 0.0
C347 C 0.39615 0.84454 0.698 0.0
C348 C 0.37909 0.84617 0.68905 0.0
C349 C 0.36717 0.85628 0.69672 0.0
C350 C 0.35724 0.87187 0.72203 0.0
H351 H 0.35387 0.85751 0.69011 0.0
C352 C 0.36194 0.88965 0.7311 0.0
C353 C 0.34746 0.89544 0.73994 0.0
C354 C 0.33806 0.86023 0.72196 0.0
H355 H 0.33405 0.84645 0.71539 0.0
C356 C 0.32388 0.86589 0.7306 0.0
H357 H 0.37664 0.89883 0.73129 0.0
C358 C 0.32849 0.88327 0.7395 0.0
H359 H 0.31701 0.88736 0.74588 0.0
H360 H 0.30919 0.85672 0.73041 0.0
H361 H 0.69827 0.86187 0.6535 0.0
C362 C 0.68807 0.85087 0.66009 0.0
C363 C 0.68743 0.85221 0.67767 0.0
C364 C 0.67526 0.83558 0.65094 0.0
H365 H 0.67303 0.83911 0.6995 0.0
C366 C 0.67412 0.83791 0.68601 0.0
C367 C 0.66125 0.82266 0.67712 0.0
C368 C 0.66168 0.82163 0.65956 0.0
C369 C 0.67578 0.83433 0.63236 0.0
H370 H 0.65164 0.80984 0.65269 0.0
C371 C 0.69358 0.83648 0.6246 0.0
C372 C 0.69389 0.83419 0.60705 0.0
C373 C 0.65837 0.83045 0.62231 0.0
H374 H 0.64451 0.82896 0.62795 0.0
C375 C 0.65867 0.82858 0.60488 0.0
H376 H 0.70706 0.83909 0.63225 0.0
C377 C 0.67628 0.8303 0.59727 0.0
H378 H 0.67616 0.82859 0.58373 0.0
H379 H 0.64519 0.82562 0.59724 0.0
H380 H 0.73783 0.83403 0.33991 0.0
C381 C 0.72257 0.82791 0.34206 0.0
C382 C 0.70885 0.83837 0.33808 0.0
C383 C 0.71668 0.8097 0.34922 0.0
H384 H 0.67843 0.83771 0.33679 0.0
C385 C 0.68914 0.83011 0.3408 0.0
C386 C 0.68301 0.81183 0.34776 0.0
C387 C 0.69699 0.80182 0.35222 0.0
C388 C 0.73102 0.79863 0.35333 0.0
H389 H 0.69255 0.78772 0.35772 0.0
C390 C 0.73516 0.79464 0.37015 0.0
C391 C 0.74865 0.78388 0.37423 0.0
C392 C 0.74035 0.7918 0.34045 0.0
H393 H 0.73727 0.79475 0.32741 0.0
C394 C 0.75346 0.78081 0.34434 0.0
H395 H 0.72826 0.80048 0.38001 0.0
C396 C 0.75759 0.77682 0.36108 0.0
H397 H 0.76775 0.76818 0.3637 0.0
H398 H 0.76047 0.77538 0.33434 0.0
H399 H 0.71874 0.18658 0.39224 0.0
C400 C 0.72328 0.17735 0.38334 0.0
C401 C 0.73992 0.17084 0.38737 0.0
C402 C 0.71195 0.17154 0.3683 0.0
H403 H 0.75775 0.15275 0.37947 0.0
C404 C 0.7454 0.15839 0.37603 0.0
C405 C 0.73412 0.15193 0.36102 0.0
C406 C 0.71753 0.1589 0.35716 0.0
C407 C 0.6926 0.17599 0.36619 0.0
H408 H 0.70844 0.15385 0.34588 0.0
C409 C 0.6875 0.18701 0.35278 0.0
C410 C 0.6695 0.19218 0.35253 0.0
C411 C 0.67925 0.16967 0.3787 0.0
H412 H 0.6827 0.16112 0.38901 0.0
C413 C 0.66144 0.17434 0.37822 0.0
H414 H 0.69767 0.1921 0.34309 0.0
C415 C 0.65666 0.18559 0.36536 0.0
H416 H 0.64273 0.18909 0.36538 0.0
H417 H 0.65134 0.16935 0.38797 0.0
H418 H 0.44009 0.17654 0.38185 0.0
C419 C 0.42879 0.16511 0.37579 0.0
C420 C 0.42752 0.16313 0.35818 0.0
C421 C 0.41569 0.15211 0.38557 0.0
H422 H 0.41221 0.14648 0.33686 0.0
C423 C 0.41292 0.14832 0.35044 0.0
C424 C 0.39996 0.13512 0.35998 0.0
C425 C 0.4015 0.13689 0.37758 0.0
C426 C 0.4168 0.15432 0.40413 0.0
H427 H 0.39144 0.1267 0.385 0.0
C428 C 0.41637 0.17189 0.41172 0.0
C429 C 0.41589 0.17353 0.42931 0.0
C430 C 0.41742 0.13862 0.41432 0.0
H431 H 0.41785 0.125 0.40874 0.0
C432 C 0.41752 0.14037 0.43179 0.0
H433 H 0.41541 0.18393 0.40391 0.0
C434 C 0.4166 0.15765 0.43927 0.0
H435 H 0.41631 0.15859 0.45284 0.0
H436 H 0.41803 0.1282 0.43957 0.0
H437 H 0.37473 0.83519 0.36416 0.0
C438 C 0.36647 0.82921 0.37484 0.0
C439 C 0.36897 0.81207 0.38196 0.0
C440 C 0.35475 0.83966 0.3823 0.0
H441 H 0.36112 0.79235 0.40239 0.0
C442 C 0.35927 0.80543 0.39668 0.0
C443 C 0.34752 0.81573 0.40437 0.0
C444 C 0.34515 0.8327 0.3969 0.0
C445 C 0.35677 0.85994 0.37764 0.0
H446 H 0.33711 0.84135 0.4032 0.0
C447 C 0.34366 0.86571 0.36611 0.0
C448 C 0.3467 0.88534 0.36202 0.0
C449 C 0.37252 0.87382 0.38516 0.0
H450 H 0.38267 0.86966 0.39405 0.0
C451 C 0.37535 0.89314 0.38138 0.0
H452 H 0.33152 0.85504 0.3602 0.0
C453 C 0.3626 0.89887 0.36994 0.0
H454 H 0.36514 0.91403 0.36735 0.0
H455 H 0.3875 0.90373 0.38734 0.0
H456 H 0.66999 0.63858 0.21389 0.0
C457 C 0.67999 0.64564 0.20465 0.0
C458 C 0.69758 0.64035 0.20284 0.0
C459 C 0.67448 0.65877 0.19363 0.0
H460 H 0.7233 0.64466 0.18847 0.0
C461 C 0.70992 0.64885 0.19007 0.0
C462 C 0.70487 0.66218 0.17899 0.0
C463 C 0.68722 0.66716 0.18109 0.0
C464 C 0.65436 0.66167 0.19341 0.0
H465 H 0.68314 0.67742 0.17268 0.0
C466 C 0.64524 0.66509 0.2082 0.0
C467 C 0.62585 0.667 0.20716 0.0
C468 C 0.6438 0.66029 0.17782 0.0
H469 H 0.65012 0.65733 0.16631 0.0
C470 C 0.62484 0.66227 0.17681 0.0
H471 H 0.65306 0.66614 0.22034 0.0
C472 C 0.61593 0.66557 0.1913 0.0
H473 H 0.60118 0.66714 0.19009 0.0
H474 H 0.61695 0.66115 0.16471 0.0
H475 H 0.38329 0.73362 0.17197 0.0
C476 C 0.3805 0.7196 0.17764 0.0
C477 C 0.3939 0.71618 0.18994 0.0
C478 C 0.36352 0.70511 0.17288 0.0
H479 H 0.40004 0.69614 0.20799 0.0
C480 C 0.38994 0.69855 0.19808 0.0
C481 C 0.37282 0.68426 0.19415 0.0
C482 C 0.35988 0.68736 0.18121 0.0
C483 C 0.34956 0.70873 0.15945 0.0
H484 H 0.34688 0.67608 0.17791 0.0
C485 C 0.35642 0.72012 0.14559 0.0
C486 C 0.34346 0.7241 0.133 0.0
C487 C 0.32936 0.70117 0.16049 0.0
H488 H 0.32346 0.69268 0.17111 0.0
C489 C 0.31641 0.70484 0.14796 0.0
H490 H 0.37192 0.72607 0.14465 0.0
C491 C 0.32336 0.71623 0.13431 0.0
H492 H 0.31298 0.71874 0.12474 0.0
H493 H 0.3009 0.69892 0.14889 0.0
H494 H 0.4147 0.34512 0.23281 0.0
C495 C 0.40835 0.34138 0.22019 0.0
C496 C 0.41703 0.33087 0.20938 0.0
C497 C 0.39124 0.34672 0.21513 0.0
H498 H 0.4142 0.31655 0.18528 0.0
C499 C 0.40817 0.32558 0.1932 0.0
C500 C 0.39094 0.3307 0.18772 0.0
C501 C 0.38302 0.34181 0.19877 0.0
C502 C 0.38033 0.35439 0.22792 0.0
H503 H 0.36986 0.34596 0.19503 0.0
C504 C 0.3733 0.37095 0.22537 0.0
C505 C 0.36229 0.37698 0.23774 0.0
C506 C 0.37625 0.34418 0.24289 0.0
H507 H 0.38119 0.33134 0.24513 0.0
C508 C 0.36543 0.35005 0.255 0.0
H509 H 0.37632 0.37901 0.21392 0.0
C510 C 0.35848 0.36624 0.25246 0.0
H511 H 0.35032 0.37058 0.26223 0.0
H512 H 0.36239 0.34198 0.26643 0.0
H513 H 0.752 0.39741 0.14505 0.0
C514 C 0.7404 0.38573 0.14927 0.0
C515 C 0.73615 0.38484 0.16633 0.0
C516 C 0.72969 0.37177 0.13762 0.0
H517 H 0.71728 0.36935 0.18482 0.0
C518 C 0.72099 0.36981 0.17174 0.0
C519 C 0.70989 0.35595 0.16028 0.0
C520 C 0.71431 0.35699 0.14325 0.0
C521 C 0.73462 0.37258 0.11963 0.0
H522 H 0.706 0.34603 0.13448 0.0
C523 C 0.7542 0.37746 0.11518 0.0
C524 C 0.75903 0.37753 0.09819 0.0
C525 C 0.71978 0.36819 0.1068 0.0
H526 H 0.70459 0.36473 0.10977 0.0
C527 C 0.72439 0.36836 0.08997 0.0
H528 H 0.76568 0.38097 0.125 0.0
C529 C 0.7438 0.37283 0.08566 0.0
H530 H 0.74678 0.37219 0.07249 0.0
H531 H 0.71285 0.36481 0.0802 0.0
H532 H 0.75672 0.35112 0.87802 0.0
C533 C 0.74175 0.34851 0.87319 0.0
C534 C 0.73569 0.36339 0.865 0.0
C535 C 0.72888 0.33024 0.87463 0.0
H536 H 0.71181 0.37097 0.8512 0.0
C537 C 0.71665 0.35971 0.8577 0.0
C538 C 0.7036 0.34162 0.85925 0.0
C539 C 0.70972 0.32711 0.86788 0.0
C540 C 0.73544 0.31436 0.88297 0.0
H541 H 0.69946 0.31324 0.86913 0.0
C542 C 0.74877 0.31812 0.897 0.0
C543 C 0.75531 0.30326 0.90475 0.0
C544 C 0.72859 0.29533 0.87683 0.0
H545 H 0.71867 0.2919 0.86584 0.0
C546 C 0.73475 0.28047 0.88465 0.0
H547 H 0.75423 0.33269 0.90181 0.0
C548 C 0.74802 0.28436 0.8985 0.0
H549 H 0.75253 0.27256 0.90435 0.0
H550 H 0.72933 0.26589 0.87985 0.0
H551 H 0.70375 0.68189 0.90121 0.0
C552 C 0.71253 0.67342 0.8957 0.0
C553 C 0.7299 0.67191 0.90425 0.0
C554 C 0.70592 0.66343 0.88046 0.0
H555 H 0.75376 0.65847 0.90395 0.0
C556 C 0.74083 0.66026 0.8971 0.0
C557 C 0.7345 0.65009 0.88171 0.0
C558 C 0.71723 0.65226 0.87344 0.0
C559 C 0.68607 0.66251 0.87286 0.0
H560 H 0.71228 0.645 0.86147 0.0
C561 C 0.67897 0.67904 0.8706 0.0
C562 C 0.65973 0.67723 0.86396 0.0
C563 C 0.67373 0.6444 0.86831 0.0
H564 H 0.67857 0.63145 0.87013 0.0
C565 C 0.65485 0.64265 0.86173 0.0
H566 H 0.68823 0.69311 0.87403 0.0
C567 C 0.64788 0.65888 0.8596 0.0
H568 H 0.63316 0.6571 0.85437 0.0
H569 H 0.64553 0.6286 0.85833 0.0
H570 H 0.41714 0.65232 0.8728 0.0
C571 C 0.40741 0.64167 0.86455 0.0
C572 C 0.40704 0.64457 0.84712 0.0
C573 C 0.3958 0.62486 0.87134 0.0
H574 H 0.39463 0.63264 0.82295 0.0
C575 C 0.39459 0.63073 0.83646 0.0
C576 C 0.3833 0.61369 0.843 0.0
C577 C 0.38397 0.61075 0.86041 0.0
C578 C 0.3968 0.6218 0.88976 0.0
H579 H 0.37529 0.5975 0.86541 0.0
C580 C 0.39634 0.63671 0.90108 0.0
C581 C 0.39848 0.63445 0.91861 0.0
C582 C 0.39889 0.60427 0.8961 0.0
H583 H 0.39945 0.5926 0.88767 0.0
C584 C 0.40088 0.60182 0.91342 0.0
H585 H 0.39405 0.64998 0.89614 0.0
C586 C 0.40084 0.6168 0.92461 0.0
H587 H 0.40298 0.61458 0.93793 0.0
H588 H 0.40276 0.58834 0.9182 0.0
H589 H 0.40963 0.33548 0.86311 0.0
C590 C 0.4036 0.3274 0.87392 0.0
C591 C 0.40715 0.3093 0.87709 0.0
C592 C 0.3933 0.33564 0.88522 0.0
H593 H 0.40333 0.28591 0.89453 0.0
C594 C 0.39989 0.29938 0.89161 0.0
C595 C 0.38967 0.30739 0.90314 0.0
C596 C 0.38625 0.32541 0.89965 0.0
C597 C 0.39291 0.35619 0.88386 0.0
H598 H 0.3786 0.33187 0.9085 0.0
C599 C 0.38516 0.36374 0.86944 0.0
C600 C 0.3855 0.38351 0.86898 0.0
C601 C 0.40085 0.36856 0.89758 0.0
H602 H 0.40703 0.36323 0.90869 0.0
C603 C 0.40118 0.38792 0.89712 0.0
H604 H 0.37898 0.3544 0.85877 0.0
C605 C 0.3936 0.39534 0.883 0.0
H606 H 0.39387 0.41044 0.88313 0.0
H607 H 0.40734 0.39724 0.9078 0.0
Cu608 Cu 0.32023 0.2397 0.05273 0.0
N609 N 0.34166 0.23996 0.03955 0.0
N610 N 0.35984 0.24728 1.01694 0.0
C611 C 0.34173 0.24053 0.02256 0.0
C612 C 0.37172 0.25021 0.03102 0.0
C613 C 0.36052 0.24577 0.04485 0.0
O614 O 0.29848 0.23963 0.03654 0.0
C615 C 0.31884 0.26614 0.0801 0.0
O616 O 0.30005 0.25799 0.07991 0.0
H617 H 0.32865 0.23767 1.0145 0.0
H618 H 0.36564 0.24828 0.0579 0.0
N619 N 0.31275 0.21695 0.06516 0.0
N620 N 0.29862 0.19648 0.0849 0.0
C621 C 0.30645 0.21505 0.081 0.0
C622 C 0.30905 0.19891 0.05895 0.0
C623 C 0.30037 0.1863 0.07103 0.0
C624 C 0.29988 0.2511 0.02423 0.0
O625 O 0.31425 0.26681 0.0248 0.0
H626 H 0.30656 0.22702 0.08923 0.0
H627 H 0.31155 0.19525 0.0462 0.0
O628 O 0.32892 0.26146 0.06878 0.0
H629 H 0.38731 0.25633 0.03148 0.0
H630 H 0.29521 0.17087 0.06949 0.0
Cu631 Cu 0.8906 0.33114 1.01937 0.0
N632 N 0.89283 0.35445 0.03039 0.0
N633 N 0.88222 0.37355 0.04774 0.0
C634 C 0.88114 0.35537 0.04291 0.0
C635 C 0.8953 0.38466 0.0378 0.0
C636 C 0.90194 0.37276 0.0271 0.0
O637 O 0.88448 0.31204 0.03642 0.0
C638 C 0.86395 0.33872 0.9944 0.0
O639 O 0.87447 0.35658 0.99586 0.0
H640 H 0.87082 0.34284 0.04743 0.0
H641 H 0.91172 0.37716 1.01703 0.0
N642 N 0.9121 0.32858 1.00817 0.0
N643 N 0.92798 0.3134 0.99157 0.0
C644 C 0.91054 0.31442 0.99679 0.0
C645 C 0.93127 0.33707 1.01033 0.0
C646 C 0.94116 0.32764 1.00008 0.0
C647 C 0.89696 0.31002 0.04776 0.0
O648 O 0.91523 0.31974 0.04691 0.0
H649 H 0.89681 0.30425 0.99328 0.0
H650 H 0.93761 0.34865 1.01922 0.0
O651 O 0.86852 0.3259 1.00342 0.0
H652 H 0.89915 0.4002 0.03775 0.0
H653 H 0.9568 0.33065 0.99935 0.0
Cu654 Cu 0.80445 0.74946 0.04306 0.0
N655 N 0.82571 0.75287 0.02916 0.0
N656 N 0.84277 0.76316 1.00642 0.0
C657 C 0.82679 0.76317 1.01494 0.0
C658 C 0.85215 0.75232 1.01573 0.0
C659 C 0.84162 0.74602 0.02974 0.0
O660 O 0.78258 0.74434 0.02596 0.0
C661 C 0.82525 0.78277 0.06227 0.0
O662 O 0.83969 0.78182 0.05294 0.0
H663 H 0.81571 0.7702 1.01076 0.0
H664 H 0.84532 0.73708 0.03957 0.0
N665 N 0.80079 0.72884 0.05814 0.0
N666 N 0.7882 0.71097 0.08003 0.0
C667 C 0.78816 0.72654 0.07058 0.0
C668 C 0.80924 0.71421 0.05973 0.0
C669 C 0.80152 0.70319 0.07318 0.0
C670 C 0.77521 0.72698 1.0209 0.0
O671 O 0.77957 0.71303 0.02949 0.0
H672 H 0.77933 0.7364 0.07276 0.0
H673 H 0.82012 0.71162 0.05166 0.0
O674 O 0.80829 0.77177 0.05862 0.0
H675 H 0.86573 0.74926 1.01275 0.0
H676 H 0.80529 0.6903 0.07739 0.0
Cu677 Cu 0.37921 0.78636 1.01554 0.0
N678 N 0.35923 0.77531 0.02956 0.0
N679 N 0.33464 0.77251 0.04668 0.0
C680 C 0.34796 0.78454 0.03754 0.0
C681 C 0.33769 0.75496 0.04418 0.0
C682 C 0.3528 0.75674 0.03359 0.0
O683 O 0.39618 0.81001 0.02535 0.0
C684 C 0.35832 0.8052 0.99303 0.0
O685 O 0.35813 0.81652 1.00597 0.0
H686 H 0.34982 0.79986 0.03678 0.0
H687 H 0.3587 0.74532 0.02913 0.0
N688 N 0.39344 0.76892 1.01024 0.0
N689 N 0.40107 0.74426 0.99774 0.0
C690 C 0.38708 0.75347 0.99995 0.0
C691 C 0.4122 0.76969 1.01443 0.0
C692 C 0.41688 0.75432 1.0069 0.0
C693 C 0.39953 0.81467 0.04091 0.0
O694 O 0.40992 0.83207 0.04507 0.0
H695 H 0.37256 0.74925 0.994 0.0
H696 H 0.42196 0.78094 1.02203 0.0
O697 O 0.36702 0.79191 0.99461 0.0
H698 H 0.32942 0.74166 0.04931 0.0
H699 H 0.431 0.75122 1.00751 0.0
Cu700 Cu 0.03176 0.24799 0.30398 0.0
N701 N 0.04614 0.22936 0.30389 0.0
N702 N 0.06663 0.21273 0.29489 0.0
C703 C 0.05528 0.22465 0.29063 0.0
C704 C 0.06446 0.20987 0.31154 0.0
C705 C 0.05195 0.22017 0.31703 0.0
O706 O 0.05082 0.27258 0.30587 0.0
C707 C 1.00544 0.22961 0.27876 0.0
O708 O 1.00581 0.21486 0.2883 0.0
H709 H 0.05429 0.23062 0.27826 0.0
H710 H 0.04798 0.22144 0.32985 0.0
N711 N 1.01416 0.24534 0.32134 0.0
N712 N 0.99092 0.25112 0.33729 0.0
C713 C 1.00384 0.25793 0.32538 0.0
C714 C 1.0075 0.22997 0.33092 0.0
C715 C 0.99331 0.23349 0.34078 0.0
C716 C 0.05854 0.27894 0.32021 0.0
O717 O 0.05198 0.26955 0.33372 0.0
H718 H 1.00564 0.2717 0.31944 0.0
H719 H 1.01209 0.21681 0.33035 0.0
O720 O 1.01641 0.24601 0.28302 0.0
H721 H 0.0716 0.20118 0.31932 0.0
H722 H 0.98491 0.22345 0.34936 0.0
Cu723 Cu 0.77403 0.01737 0.27299 0.0
N724 N 0.77144 0.03009 0.253 0.0
N725 N 0.77669 0.05464 0.23543 0.0
C726 C 0.78072 0.04854 0.25082 0.0
C727 C 0.76442 0.03939 0.22747 0.0
C728 C 0.76101 0.02422 0.23846 0.0
O729 O 0.77447 0.03654 0.29101 0.0
C730 C 0.79431 0.9945 0.25838 0.0
O731 O 0.77862 0.99228 0.2484 0.0
H732 H 0.79053 0.05727 0.26032 0.0
H733 H 0.7517 0.00996 0.23598 0.0
N734 N 0.75273 0.99651 0.27556 0.0
N735 N 0.73684 0.96717 0.28326 0.0
C736 C 0.75386 0.9808 0.28413 0.0
C737 C 0.73431 0.99281 0.26901 0.0
C738 C 0.72441 0.97469 0.27383 0.0
C739 C 0.75964 0.04356 0.28997 0.0
O740 O 0.74608 0.03665 0.27813 0.0
H741 H 0.76705 0.97945 0.29081 0.0
H742 H 0.7286 1.00241 0.26105 0.0
O743 O 0.79633 0.00594 0.2711 0.0
H744 H 0.75826 0.03929 0.21475 0.0
H745 H 0.70943 0.96744 0.27029 0.0
Cu746 Cu 0.05305 0.77048 0.26712 0.0
N747 N 0.04376 0.79233 0.26248 0.0
N748 N 0.02311 0.80918 0.25251 0.0
C749 C 0.02511 0.7919 0.25776 0.0
C750 C 0.04129 0.82097 0.25421 0.0
C751 C 0.05393 0.81057 0.26026 0.0
O752 O 0.03198 0.75159 0.27649 0.0
C753 C 0.05823 0.7669 0.23199 0.0
O754 O 0.04435 0.77575 0.22972 0.0
H755 H 1.01349 0.77881 0.25717 0.0
H756 H 0.06957 0.81576 0.26211 0.0
N757 N 0.0744 0.77408 0.28287 0.0
N758 N 0.09758 0.76561 0.29903 0.0
C759 C 0.08098 0.75946 0.28927 0.0
C760 C 0.08728 0.79015 0.28881 0.0
C761 C 0.10157 0.78498 0.29876 0.0
C762 C 0.02715 0.75642 0.29073 0.0
O763 O 0.03648 0.77319 0.29736 0.0
H764 H 0.07402 0.74453 0.28626 0.0
H765 H 0.08661 0.8046 0.28587 0.0
O766 O 0.06233 0.76184 0.24673 0.0
H767 H 0.04535 0.83598 0.25094 0.0
H768 H 0.11396 0.79476 0.30523 0.0
Cu769 Cu 0.28078 0.99004 0.26386 0.0
N770 N 0.30414 0.00905 0.26626 0.0
N771 N 0.32777 0.03227 0.2788 0.0
C772 C 0.31178 0.0178 0.28092 0.0
C773 C 0.3305 0.03233 0.26211 0.0
C774 C 0.31592 0.01797 0.25441 0.0
O775 O 0.25993 1.00336 0.26144 0.0
C776 C 0.2719 0.95666 0.28642 0.0
O777 O 0.2564 0.94852 0.27681 0.0
H778 H 0.30504 0.01423 0.29279 0.0
H779 H 0.3138 0.01467 0.24109 0.0
N780 N 0.2803 0.97652 0.24364 0.0
N781 N 0.27539 0.95295 0.22424 0.0
C782 C 0.27686 0.95744 0.24085 0.0
C783 C 0.2811 0.98431 0.22827 0.0
C784 C 0.2782 0.96986 0.2163 0.0
C785 C 0.26009 0.01883 0.2694 0.0
O786 O 0.27242 0.02424 0.2824 0.0
H787 H 0.27501 0.94699 0.25072 0.0
H788 H 0.28274 0.99939 0.22593 0.0
O789 O 0.28171 0.97364 0.28331 0.0
H790 H 0.34195 0.04226 0.25582 0.0
H791 H 0.27706 0.97158 0.20281 0.0
Cu792 Cu 0.03465 0.76282 0.78144 0.0
N793 N 0.03869 0.7399 0.77278 0.0
N794 N 0.05364 0.71926 0.76147 0.0
C795 C 0.05588 0.73674 0.76882 0.0
C796 C 0.03421 0.7112 0.76085 0.0
C797 C 0.02509 0.72394 0.76776 0.0
O798 O 0.05825 0.77643 0.79376 0.0
C799 C 0.02947 0.77438 0.74778 0.0
O800 O 0.04203 0.76463 0.74408 0.0
H801 H 0.0697 0.74724 0.77109 0.0
H802 H 1.00957 0.72194 0.76863 0.0
N803 N 1.0141 0.75836 0.79607 0.0
N804 N 0.99026 0.76391 0.81126 0.0
C805 C 1.0045 0.77133 0.80066 0.0
C806 C 1.00567 0.74213 0.80397 0.0
C807 C 0.99102 0.7455 0.81334 0.0
C808 C 0.06426 0.76719 0.80556 0.0
O809 O 0.05398 0.74974 0.80869 0.0
H810 H 1.00813 0.78602 0.79644 0.0
H811 H 1.00986 0.72879 0.80297 0.0
O812 O 0.02675 0.77723 0.76315 0.0
H813 H 0.02692 0.69734 0.75528 0.0
H814 H 0.98153 0.73505 0.82094 0.0
Cu815 Cu 0.29883 0.0329 0.80648 0.0
N816 N 0.29417 0.04677 0.7877 0.0
N817 N 0.29921 0.07091 0.76963 0.0
C818 C 0.3056 0.06401 0.78392 0.0
C819 C 0.28304 0.05748 0.76422 0.0
C820 C 0.27999 0.04254 0.77538 0.0
O821 O 0.3033 0.05145 0.82559 0.0
C822 C 0.3166 0.01083 0.78714 0.0
O823 O 0.30145 0.01167 0.77737 0.0
H824 H 0.31831 0.07138 0.79163 0.0
H825 H 0.26853 0.02937 0.7743 0.0
N826 N 0.27727 0.01279 0.81068 0.0
N827 N 0.26099 0.98426 0.82005 0.0
C828 C 0.2785 0.99703 0.81915 0.0
C829 C 0.2583 0.01006 0.80608 0.0
C830 C 0.24822 0.99248 0.81183 0.0
C831 C 0.28837 0.05722 0.82918 0.0
O832 O 0.27186 0.0501 0.82055 0.0
H833 H 0.29211 0.99513 0.82455 0.0
H834 H 0.25216 0.0201 0.79907 0.0
O835 O 0.31937 0.02 0.80126 0.0
H836 H 0.27433 0.05817 0.75281 0.0
H837 H 0.23274 0.98618 0.80979 0.0
Cu838 Cu 0.05657 0.28463 0.78716 0.0
N839 N 0.04615 0.30602 0.78475 0.0
N840 N 0.02483 0.32306 0.77713 0.0
C841 C 0.02787 0.30536 0.77885 0.0
C842 C 0.04196 0.33532 0.78231 0.0
C843 C 0.05504 0.32479 0.78699 0.0
O844 O 0.03507 0.26318 0.79218 0.0
C845 C 0.06419 0.28535 0.7522 0.0
O846 O 0.04889 0.29228 0.75016 0.0
H847 H 1.01729 0.29209 0.7752 0.0
H848 H 0.07008 0.33042 0.79136 0.0
N849 N 0.07548 0.28733 0.80498 0.0
N850 N 0.09907 0.28011 0.82152 0.0
C851 C 0.08934 0.2776 0.80626 0.0
C852 C 0.07653 0.29654 0.81987 0.0
C853 C 0.09106 0.29218 0.83005 0.0
C854 C 0.03712 0.24694 0.79681 0.0
O855 O 0.05435 0.24349 0.79655 0.0
H856 H 0.09172 0.26835 0.79629 0.0
H857 H 0.06681 0.30508 0.82335 0.0
O858 O 0.069 0.28042 0.76679 0.0
H859 H 0.04495 0.35082 0.78258 0.0
H860 H 0.0947 0.29681 0.84302 0.0
Cu861 Cu 0.78554 0.00557 0.77692 0.0
N862 N 0.78586 0.01775 0.79773 0.0
N863 N 0.79797 0.03963 0.81811 0.0
C864 C 0.79932 0.03404 0.80211 0.0
C865 C 0.78298 0.02617 0.82408 0.0
C866 C 0.77553 0.01265 0.81146 0.0
O867 O 0.7876 0.02618 0.76012 0.0
C868 C 0.80014 0.97684 0.79023 0.0
O869 O 0.78317 0.97447 0.79689 0.0
H870 H 0.81048 0.0411 0.79383 0.0
H871 H 0.76391 0.99974 0.81248 0.0
N872 N 0.76202 0.98767 0.77114 0.0
N873 N 0.74165 0.96353 0.75665 0.0
C874 C 0.75975 0.97531 0.75805 0.0
C875 C 0.74468 0.98373 0.77825 0.0
C876 C 0.73208 0.9687 0.76937 0.0
C877 C 0.77362 0.0343 0.7611 0.0
O878 O 0.76081 0.028 0.77247 0.0
H879 H 0.77138 0.97469 0.74995 0.0
H880 H 0.74137 0.99121 0.78907 0.0
O881 O 0.80526 0.99059 0.77986 0.0
H882 H 0.77796 0.02587 0.83672 0.0
H883 H 0.71705 0.96218 0.77199 0.0
Cu884 Cu 0.30028 0.74668 0.54136 0.0
N885 N 0.32268 0.75708 0.55553 0.0
N886 N 0.34068 0.7727 0.57783 0.0
C887 C 0.32278 0.76719 0.56991 0.0
C888 C 0.35226 0.76566 0.56793 0.0
C889 C 0.34115 0.75604 0.55426 0.0
O890 O 0.2801 0.73472 0.55697 0.0
C891 C 0.30905 0.78093 0.52271 0.0
O892 O 0.32437 0.78581 0.53322 0.0
H893 H 0.30978 0.77013 0.57454 0.0
H894 H 0.34618 0.74883 0.54412 0.0
N895 N 0.30284 0.7278 0.52573 0.0
N896 N 0.29705 0.71072 0.50146 0.0
C897 C 0.29465 0.72616 0.50991 0.0
C898 C 0.31091 0.71287 0.52728 0.0
C899 C 0.30723 0.70224 0.51237 0.0
C900 C 0.28538 0.72281 0.56684 0.0
O901 O 0.3024 0.71942 0.56479 0.0
H902 H 0.28639 0.73573 0.50489 0.0
H903 H 0.31864 0.7097 0.53848 0.0
O904 O 0.2952 0.76645 0.52611 0.0
H905 H 0.36774 0.76743 0.57024 0.0
H906 H 0.31166 0.68927 0.50978 0.0
Cu907 Cu 0.83334 0.7968 0.51542 0.0
N908 N 0.85534 0.80336 0.50279 0.0
N909 N 0.8744 0.79755 0.48296 0.0
C910 C 0.85614 0.7941 0.48827 0.0
C911 C 0.88562 0.80969 0.49464 0.0
C912 C 0.87377 0.8133 0.50689 0.0
O913 O 0.81197 0.78517 0.49946 0.0
C914 C 0.84835 0.78507 0.54496 0.0
O915 O 0.85748 0.80341 0.54571 0.0
H916 H 0.8438 0.78348 0.48262 0.0
H917 H 0.87847 0.8214 0.51849 0.0
N918 N 0.82783 0.81725 0.52687 0.0
N919 N 0.81186 0.83134 0.54436 0.0
C920 C 0.81356 0.81464 0.53772 0.0
C921 C 0.83566 0.83633 0.52655 0.0
C922 C 0.82573 0.84511 0.53732 0.0
C923 C 0.80051 0.79455 0.49318 0.0
O924 O 0.80161 0.81189 0.49901 0.0
H925 H 0.8042 0.80064 0.54023 0.0
H926 H 0.84756 0.84333 0.51894 0.0
O927 O 0.83702 0.77857 0.53222 0.0
H928 H 0.90134 0.81469 0.49485 0.0
H929 H 0.82852 0.86039 0.53974 0.0
Cu930 Cu 0.81332 0.24372 0.54176 0.0
N931 N 0.81337 0.22341 0.52677 0.0
N932 N 0.8059 0.20611 0.50271 0.0
C933 C 0.80692 0.22304 0.5105 0.0
C934 C 0.81201 0.19532 0.51456 0.0
C935 C 0.81674 0.20608 0.52938 0.0
O936 O 0.81365 0.26503 0.52636 0.0
C937 C 0.78035 0.21926 0.55733 0.0
O938 O 0.77957 0.20736 0.54463 0.0
H939 H 0.80197 0.2346 0.50472 0.0
H940 H 0.82133 0.20124 0.54136 0.0
N941 N 0.8349 0.25043 0.55725 0.0
N942 N 0.85154 0.26374 0.58089 0.0
C943 C 0.83752 0.26456 0.56903 0.0
C944 C 0.84779 0.24035 0.56177 0.0
C945 C 0.85805 0.24852 0.57633 0.0
C946 C 0.83017 0.27397 0.52108 0.0
O947 O 0.84601 0.27095 0.52844 0.0
H948 H 0.82831 0.27437 0.56958 0.0
H949 H 0.84886 0.22734 0.55552 0.0
O950 O 0.79161 0.23619 0.55688 0.0
H951 H 0.8126 0.18059 0.51277 0.0
H952 H 0.86896 0.24325 0.58337 0.0
Cu953 Cu 0.34481 0.29596 0.51508 0.0
N954 N 0.34455 0.31744 0.5281 0.0
N955 N 0.33203 0.33275 0.54742 0.0
C956 C 0.33255 0.31566 0.54083 0.0
C957 C 0.34435 0.34598 0.53843 0.0
C958 C 0.3522 0.33644 0.52653 0.0
O959 O 0.33977 0.27511 0.53074 0.0
C960 C 0.32312 0.30564 0.48818 0.0
O961 O 0.33552 0.32247 0.49091 0.0
H962 H 0.32325 0.30201 0.54437 0.0
H963 H 0.36193 0.34291 0.51693 0.0
N964 N 0.36766 0.29673 0.50438 0.0
N965 N 0.38661 0.28518 0.4878 0.0
C966 C 0.36867 0.28269 0.49362 0.0
C967 C 0.38561 0.30877 0.50553 0.0
C968 C 0.39743 0.30159 0.49531 0.0
C969 C 0.35365 0.27217 0.54013 0.0
O970 O 0.37164 0.28131 0.53718 0.0
H971 H 0.3565 0.27041 0.4907 0.0
H972 H 0.38989 0.32154 0.51346 0.0
O973 O 0.32416 0.2918 0.49771 0.0
H974 H 0.34696 0.36138 0.53994 0.0
H975 H 0.41276 0.30785 0.49369 0.0
Cu976 Cu 0.82574 0.53464 0.81723 0.0
N977 N 0.84777 0.55368 0.81203 0.0
N978 N 0.86531 0.5775 0.79707 0.0
C979 C 0.84787 0.56487 0.7986 0.0
C980 C 0.87666 0.57415 0.81024 0.0
C981 C 0.86577 0.55935 0.81946 0.0
O982 O 0.80531 0.54798 0.82201 0.0
C983 C 0.83683 0.50977 0.79564 0.0
O984 O 0.85302 0.51767 0.80448 0.0
H985 H 0.83513 0.56389 0.79032 0.0
H986 H 0.87059 0.55315 0.8307 0.0
N987 N 0.8295 0.52092 0.8363 0.0
N988 N 0.82353 0.49469 0.85207 0.0
C989 C 0.82334 0.50169 0.83643 0.0
C990 C 0.83389 0.52647 0.85251 0.0
C991 C 0.83015 0.51023 0.86233 0.0
C992 C 0.81104 0.56347 0.83094 0.0
O993 O 0.82948 0.56914 0.83605 0.0
H994 H 0.81705 0.49309 0.82538 0.0
H995 H 0.8382 0.54123 0.85698 0.0
O996 O 0.82156 0.51537 0.79861 0.0
H997 H 0.89176 0.58168 0.81295 0.0
H998 H 0.83125 0.50996 0.87593 0.0
Cu999 Cu 0.30203 0.49573 0.76113 0.0
N1000 N 0.31002 0.48674 0.78188 0.0
N1001 N 0.32278 0.46972 0.80081 0.0
C1002 C 0.31736 0.47134 0.78442 0.0
C1003 C 0.3185 0.48455 0.80883 0.0
C1004 C 0.31061 0.4949 0.79721 0.0
O1005 O 0.28388 0.47439 0.74953 0.0
C1006 C 0.3375 0.51931 0.74805 0.0
O1007 O 0.3498 0.52375 0.73604 0.0
H1008 H 0.31934 0.46195 0.77438 0.0
H1009 H 0.30639 0.50796 0.79974 0.0
N1010 N 0.28938 0.51555 0.76351 0.0
N1011 N 0.27525 0.53938 0.75707 0.0
C1012 C 0.28726 0.52877 0.75203 0.0
C1013 C 0.27832 0.51787 0.77618 0.0
C1014 C 0.26979 0.53254 0.77236 0.0
C1015 C 0.2811 0.47465 0.73363 0.0
O1016 O 0.29019 0.48978 0.72537 0.0
H1017 H 0.29368 0.52994 0.7399 0.0
H1018 H 0.27592 0.50897 0.78716 0.0
O1019 O 0.32376 0.50401 0.74659 0.0
H1020 H 0.3211 0.48784 0.82216 0.0
H1021 H 0.25999 0.5375 0.78018 0.0
Cu1022 Cu 0.32267 0.5238 0.29009 0.0
N1023 N 0.32847 0.51125 0.30931 0.0
N1024 N 0.32105 0.48752 0.32783 0.0
C1025 C 0.31419 0.49888 0.31701 0.0
C1026 C 0.34063 0.49323 0.32701 0.0
C1027 C 0.34516 0.50778 0.31546 0.0
O1028 O 0.3166 0.50282 0.27296 0.0
C1029 C 0.3084 0.54839 0.30878 0.0
O1030 O 0.32608 0.55004 0.31534 0.0
H1031 H 0.29896 0.49693 0.3133 0.0
H1032 H 0.3594 0.51401 0.31088 0.0
N1033 N 0.34313 0.5438 0.28329 0.0
N1034 N 0.35733 0.56955 0.26861 0.0
C1035 C 0.34074 0.55598 0.27111 0.0
C1036 C 0.36188 0.54991 0.28889 0.0
C1037 C 0.3707 0.56579 0.27983 0.0
C1038 C 0.32925 0.50119 0.26251 0.0
O1039 O 0.34455 0.51566 0.26084 0.0
H1040 H 0.32687 0.55508 0.2645 0.0
H1041 H 0.36867 0.54354 0.29894 0.0
O1042 O 0.30245 0.53652 0.29643 0.0
H1043 H 0.35092 0.48657 0.33337 0.0
H1044 H 0.38577 0.5739 0.28142 0.0
Cu1045 Cu 0.76925 0.50241 0.28485 0.0
N1046 N 0.76645 0.48467 0.30246 0.0
N1047 N 0.77315 0.46181 0.31909 0.0
C1048 C 0.77469 0.46977 0.30368 0.0
C1049 C 0.76323 0.47198 0.32782 0.0
C1050 C 0.75916 0.48603 0.31757 0.0
O1051 O 0.76969 0.48923 0.26371 0.0
C1052 C 0.80751 0.52147 0.29809 0.0
O1053 O 0.8087 0.50448 0.30315 0.0
H1054 H 0.78292 0.46577 0.29385 0.0
H1055 H 0.75229 0.4971 0.32117 0.0
N1056 N 0.74876 0.51432 0.28237 0.0
N1057 N 0.73224 0.53496 0.27232 0.0
C1058 C 0.74939 0.53003 0.27305 0.0
C1059 C 0.73059 0.50901 0.28782 0.0
C1060 C 0.7204 0.52172 0.28169 0.0
C1061 C 0.78338 0.48245 0.25889 0.0
O1062 O 0.79948 0.48482 0.26839 0.0
H1063 H 0.76226 0.53754 0.26681 0.0
H1064 H 0.725 0.49653 0.29534 0.0
O1065 O 0.79249 0.52304 0.28945 0.0
H1066 H 0.75974 0.4699 0.34087 0.0
H1067 H 0.70524 0.52083 0.2836 0.0
Cu1068 Cu 0.54488 0.25204 0.78586 0.0
N1069 N 0.52747 0.24814 0.80332 0.0
N1070 N 0.50435 0.25294 0.81986 0.0
C1071 C 0.51429 0.25829 0.80583 0.0
C1072 C 0.51168 0.2388 0.82636 0.0
C1073 C 0.52587 0.23591 0.81619 0.0
O1074 O 0.53053 0.25949 0.76683 0.0
C1075 C 0.5771 0.26802 0.80614 0.0
O1076 O 0.57107 0.25097 0.81273 0.0
H1077 H 0.51214 0.26943 0.79746 0.0
H1078 H 0.53466 0.22584 0.81823 0.0
N1079 N 0.55304 0.22985 0.78081 0.0
N1080 N 0.57106 0.21073 0.77185 0.0
C1081 C 0.56947 0.22898 0.77334 0.0
C1082 C 0.5439 0.21155 0.78407 0.0
C1083 C 0.55497 0.19977 0.77862 0.0
C1084 C 0.5281 0.2515 0.75231 0.0
O1085 O 0.53817 0.23924 0.74865 0.0
H1086 H 0.58011 0.24151 0.7692 0.0
H1087 H 0.53009 0.20706 0.78991 0.0
O1088 O 0.56762 0.27211 0.79334 0.0
H1089 H 0.50752 0.23134 0.83791 0.0
H1090 H 0.55124 0.18426 0.7793 0.0
Cu1091 Cu 0.5417 0.77515 0.78872 0.0
N1092 N 0.55881 0.77593 0.80765 0.0
N1093 N 0.58083 0.76733 0.82502 0.0
C1094 C 0.5719 0.76535 0.80946 0.0
C1095 C 0.57296 0.77968 0.8333 0.0
C1096 C 0.55938 0.78489 0.8226 0.0
O1097 O 0.55562 0.77271 0.76882 0.0
C1098 C 0.50655 0.7551 0.801 0.0
O1099 O 0.50791 0.77191 0.80811 0.0
H1100 H 0.57416 0.75572 0.79973 0.0
H1101 H 0.55012 0.79405 0.8257 0.0
N1102 N 0.53222 0.79711 0.78627 0.0
N1103 N 0.51304 0.81567 0.77711 0.0
C1104 C 0.51706 0.79838 0.77586 0.0
C1105 C 0.53817 0.81426 0.79427 0.0
C1106 C 0.52632 0.8257 0.78872 0.0
C1107 C 0.57216 0.78463 0.76793 0.0
O1108 O 0.57833 0.79741 0.78014 0.0
H1109 H 0.50885 0.78663 0.76782 0.0
H1110 H 0.55024 0.81819 0.80351 0.0
O1111 O 0.51979 0.75316 0.79144 0.0
H1112 H 0.5765 0.78442 0.84626 0.0
H1113 H 0.52752 0.84032 0.79281 0.0
Cu1114 Cu 0.5094 0.74516 0.30339 0.0
N1115 N 0.49023 0.74123 0.31954 0.0
N1116 N 0.46656 0.74701 0.33493 0.0
C1117 C 0.48032 0.75409 0.32379 0.0
C1118 C 0.46816 0.729 0.33792 0.0
C1119 C 0.48271 0.72551 0.32846 0.0
O1120 O 0.50016 0.75689 0.28379 0.0
C1121 C 0.5408 0.75422 0.32591 0.0
O1122 O 0.53168 0.73721 0.33127 0.0
H1123 H 0.48305 0.76829 0.31854 0.0
H1124 H 0.48723 0.71231 0.32791 0.0
N1125 N 0.51581 0.72284 0.29584 0.0
N1126 N 0.53309 0.70475 0.28374 0.0
C1127 C 0.53278 0.72256 0.28902 0.0
C1128 C 0.5049 0.70459 0.29479 0.0
C1129 C 0.5155 0.69342 0.28742 0.0
C1130 C 0.48205 0.7514 0.27967 0.0
O1131 O 0.47073 0.7382 0.28858 0.0
H1132 H 0.54461 0.73531 0.28787 0.0
H1133 H 0.49011 0.69981 0.29869 0.0
O1134 O 0.53313 0.76134 0.31359 0.0
H1135 H 0.45913 0.71879 0.34601 0.0
H1136 H 0.51032 0.67823 0.2845 0.0
Cu1137 Cu 0.56067 0.25944 0.252 0.0
N1138 N 0.54343 0.23592 0.2559 0.0
N1139 N 0.52107 0.21551 0.27016 0.0
C1140 C 0.52973 0.23404 0.26722 0.0
C1141 C 0.52972 0.20524 0.26025 0.0
C1142 C 0.54359 0.21793 0.25143 0.0
O1143 O 0.54478 0.27836 0.25185 0.0
C1144 C 0.59332 0.2503 0.26691 0.0
O1145 O 0.59104 0.24055 0.25264 0.0
H1146 H 0.5271 0.24611 0.27401 0.0
H1147 H 0.55369 0.21432 0.24306 0.0
N1148 N 0.57143 0.26031 0.231 0.0
N1149 N 0.59301 0.27012 0.21131 0.0
C1150 C 0.58781 0.27319 0.22697 0.0
C1151 C 0.56581 0.24871 0.2174 0.0
C1152 C 0.57911 0.25474 0.20519 0.0
C1153 C 0.52915 0.27366 0.24235 0.0
O1154 O 0.52535 0.25746 0.23368 0.0
H1155 H 0.59574 0.28454 0.23552 0.0
H1156 H 0.55314 0.23657 0.21651 0.0
O1157 O 0.58184 0.26102 0.26952 0.0
H1158 H 0.52669 0.18974 0.25981 0.0
H1159 H 0.57878 0.24801 0.19296 0.0
H1160 H 0.26093 0.16107 0.18569 0.0
H1161 H 0.20816 0.15141 0.15406 0.0
H1162 H 0.28017 0.17302 0.16143 0.0
H1163 H 0.2273 0.16347 0.12994 0.0
H1164 H 0.26851 0.16471 0.08719 0.0
H1165 H 0.25039 0.15321 0.11193 0.0
H1166 H 0.28668 0.20061 0.14139 0.0
H1167 H 0.30503 0.21206 0.11655 0.0
C1168 C 0.25343 0.16153 0.17358 0.0
C1169 C 0.23296 0.15531 0.17188 0.0
C1170 C 0.26445 0.1685 0.15969 0.0
C1171 C 0.25532 0.16917 0.14368 0.0
C1172 C 0.23486 0.163 0.14202 0.0
C1173 C 0.22385 0.15626 0.15592 0.0
C1174 C 0.27282 0.1726 0.09895 0.0
C1175 C 0.28832 0.18933 0.09981 0.0
C1176 C 0.26225 0.1661 0.11314 0.0
C1177 C 0.26697 0.17601 0.12868 0.0
C1178 C 0.28269 0.19255 0.12966 0.0
C1179 C 0.29313 0.19921 0.11538 0.0
H1180 H 0.86788 0.23501 0.13361 0.0
H1181 H 0.84775 0.28555 0.1437 0.0
H1182 H 0.88084 0.24897 0.10737 0.0
H1183 H 0.85983 0.29885 0.11699 0.0
H1184 H 0.86013 0.30025 0.05861 0.0
H1185 H 0.84938 0.28579 0.08526 0.0
H1186 H 0.90764 0.28144 0.09837 0.0
H1187 H 0.91867 0.29636 0.0717 0.0
C1188 C 0.8664 0.24916 0.1304 0.0
C1189 C 0.85672 0.25913 0.14084 0.0
C1190 C 0.87373 0.25705 0.11532 0.0
C1191 C 0.87119 0.27486 0.11023 0.0
C1192 C 0.86175 0.28496 0.12064 0.0
C1193 C 0.85474 0.27726 0.13586 0.0
C1194 C 0.87064 0.29603 0.06705 0.0
C1195 C 0.89026 0.29942 0.06308 0.0
C1196 C 0.86449 0.28791 0.08234 0.0
C1197 C 0.87774 0.28269 0.09381 0.0
C1198 C 0.8972 0.28538 0.08965 0.0
C1199 C 0.90348 0.29389 0.07445 0.0
H1200 H 0.83782 0.82507 0.16753 0.0
H1201 H 0.89596 0.8363 0.1496 0.0
H1202 H 0.8243 0.81398 0.1396 0.0
H1203 H 0.88249 0.82373 0.122 0.0
H1204 H 0.85518 0.8143 0.06974 0.0
H1205 H 0.86656 0.82896 0.09722 0.0
H1206 H 0.81856 0.78923 0.11976 0.0
H1207 H 0.80672 0.77528 0.092 0.0
C1208 C 0.84782 0.8253 0.15767 0.0
C1209 C 0.86813 0.83186 0.16105 0.0
C1210 C 0.83998 0.81855 0.14157 0.0
C1211 C 0.85214 0.81786 0.12825 0.0
C1212 C 0.87246 0.8243 0.13166 0.0
C1213 C 0.88029 0.83127 0.14772 0.0
C1214 C 0.84682 0.80896 0.08053 0.0
C1215 C 0.82997 0.79366 0.0786 0.0
C1216 C 0.85353 0.81721 0.09642 0.0
C1217 C 0.84382 0.81017 0.11102 0.0
C1218 C 0.82646 0.7953 0.10896 0.0
C1219 C 0.81957 0.78725 0.09296 0.0
H1220 H 0.24544 0.78064 0.11641 0.0
H1221 H 0.23279 0.80745 0.07027 0.0
H1222 H 0.27556 0.77667 0.10517 0.0
H1223 H 0.26215 0.80262 0.05876 0.0
H1224 H 0.32263 0.80551 0.04563 0.0
H1225 H 0.29658 0.81279 0.0606 0.0
H1226 H 0.28574 0.75752 0.08433 0.0
H1227 H 0.31264 0.75059 0.07008 0.0
C1228 C 0.24915 0.78581 0.10393 0.0
C1229 C 0.23663 0.79425 0.09419 0.0
C1230 C 0.26629 0.78333 0.09741 0.0
C1231 C 0.27129 0.78926 0.08102 0.0
C1232 C 0.25896 0.7981 0.0715 0.0
C1233 C 0.24193 0.80063 0.07802 0.0
C1234 C 0.31504 0.79495 0.05422 0.0
C1235 C 0.31977 0.77728 0.05636 0.0
C1236 C 0.29985 0.79909 0.06271 0.0
C1237 C 0.28881 0.78564 0.07349 0.0
C1238 C 0.29395 0.76827 0.07616 0.0
C1239 C 0.30926 0.76416 0.06774 0.0
H1240 H 0.26471 0.80856 0.92082 0.0
H1241 H 0.30925 0.79812 0.88987 0.0
H1242 H 0.2872 0.8125 0.94551 0.0
H1243 H 0.33185 0.80233 0.91447 0.0
H1244 H 0.33661 0.83073 0.98541 0.0
H1245 H 0.31688 0.83184 0.9596 0.0
H1246 H 0.33501 0.78398 0.93907 0.0
H1247 H 0.35498 0.78317 0.96454 0.0
C1248 C 0.27943 0.80748 0.91925 0.0
C1249 C 0.28517 0.80284 0.90345 0.0
C1250 C 0.29234 0.80977 0.93339 0.0
C1251 C 0.31129 0.80756 0.932 0.0
C1252 C 0.31724 0.80374 0.91604 0.0
C1253 C 0.30432 0.80135 0.90195 0.0
C1254 C 0.33653 0.82059 0.9753 0.0
C1255 C 0.34733 0.80684 0.97706 0.0
C1256 C 0.32513 0.82115 0.96055 0.0
C1257 C 0.32434 0.80798 0.94726 0.0
C1258 C 0.3355 0.79453 0.94892 0.0
C1259 C 0.34687 0.79399 0.96361 0.0
H1260 H 0.28596 0.20507 0.92228 0.0
H1261 H 0.22667 0.19236 0.93752 0.0
H1262 H 0.29724 0.22134 0.9494 0.0
H1263 H 0.23785 0.20884 0.96443 0.0
H1264 H 0.2689 0.21964 1.01785 0.0
H1265 H 0.25626 0.20478 0.99054 0.0
H1266 H 0.29625 0.25041 0.96564 0.0
H1267 H 0.30888 0.26527 0.99289 0.0
C1268 C 0.27533 0.20575 0.9314 0.0
C1269 C 0.25539 0.19747 0.92762 0.0
C1270 C 0.28177 0.21524 0.9469 0.0
C1271 C 0.26846 0.2165 0.95914 0.0
C1272 C 0.24854 0.20809 0.95539 0.0
C1273 C 0.24211 0.19878 0.93986 0.0
C1274 C 0.27474 0.22672 1.00655 0.0
C1275 C 0.28985 0.24376 1.00767 0.0
C1276 C 0.2675 0.21817 0.99085 0.0
C1277 C 0.27532 0.22628 0.97583 0.0
C1278 C 0.29004 0.2436 0.97693 0.0
C1279 C 0.29711 0.25228 0.9926 0.0
H1280 H 0.95792 0.22135 0.93348 0.0
H1281 H 0.9063 0.19882 0.9609 0.0
H1282 H 0.95964 0.25386 0.94434 0.0
H1283 H 0.90778 0.23114 0.97135 0.0
H1284 H 0.95998 0.29917 0.99204 0.0
H1285 H 0.96249 0.26973 0.97772 0.0
H1286 H 0.90553 0.26343 0.95362 0.0
H1287 H 0.90325 0.29303 0.96727 0.0
C1288 C 0.94698 0.2234 0.94179 0.0
C1289 C 0.93201 0.20766 0.94643 0.0
C1290 C 0.94801 0.24188 0.94801 0.0
C1291 C 0.9338 0.24488 0.95858 0.0
C1292 C 0.91884 0.22914 0.96314 0.0
C1293 C 0.91805 0.2107 0.95725 0.0
C1294 C 0.94826 0.29183 0.98332 0.0
C1295 C 0.93123 0.29824 0.98109 0.0
C1296 C 0.94969 0.27498 0.97518 0.0
C1297 C 0.93406 0.26428 0.96482 0.0
C1298 C 0.91764 0.27134 0.96175 0.0
C1299 C 0.91632 0.28822 0.96965 0.0
H1300 H 0.90341 0.81182 0.91796 0.0
H1301 H 0.84692 0.82314 0.91061 0.0
H1302 H 0.89393 0.7965 0.94448 0.0
H1303 H 0.83722 0.80748 0.93718 0.0
H1304 H 0.83275 0.79445 0.99356 0.0
H1305 H 0.84186 0.81009 0.96702 0.0
H1306 H 0.87429 0.76868 0.95642 0.0
H1307 H 0.86537 0.75324 0.98308 0.0
C1308 C 0.88883 0.81083 0.92189 0.0
C1309 C 0.87588 0.8186 0.91196 0.0
C1310 C 0.88335 0.80197 0.93717 0.0
C1311 C 0.8647 0.8005 0.94308 0.0
C1312 C 0.85178 0.80846 0.93323 0.0
C1313 C 0.85732 0.81744 0.91793 0.0
C1314 C 0.84172 0.78857 0.98555 0.0
C1315 C 0.84831 0.77251 0.9906 0.0
C1316 C 0.84694 0.79756 0.97022 0.0
C1317 C 0.85888 0.79076 0.95941 0.0
C1318 C 0.86539 0.77464 0.96446 0.0
C1319 C 0.86024 0.7657 0.97981 0.0
H1320 H 0.14104 0.14917 0.24836 0.0
H1321 H 0.1335 0.19108 0.21195 0.0
H1322 H 0.12257 0.16257 0.26835 0.0
H1323 H 0.1156 0.20479 0.23183 0.0
H1324 H 0.06306 0.20803 0.26086 0.0
H1325 H 0.08417 0.19616 0.2428 0.0
H1326 H 0.12021 0.18899 0.28628 0.0
H1327 H 0.09896 0.20077 0.3044 0.0
C1328 C 0.1359 0.16158 0.24482 0.0
C1329 C 0.13867 0.16903 0.22858 0.0
C1330 C 0.12524 0.16925 0.25624 0.0
C1331 C 0.11717 0.1846 0.25165 0.0
C1332 C 0.12103 0.19267 0.23572 0.0
C1333 C 0.13152 0.18496 0.22436 0.0
C1334 C 0.07555 0.2041 0.26661 0.0
C1335 C 0.0792 0.20548 0.28417 0.0
C1336 C 0.08777 0.19729 0.25621 0.0
C1337 C 0.10412 0.1917 0.26298 0.0
C1338 C 0.10771 0.19294 0.28056 0.0
C1339 C 0.09545 0.19973 0.29099 0.0
H1340 H 0.82613 0.1596 0.181 0.0
H1341 H 0.85491 0.16477 0.23055 0.0
H1342 H 0.80498 0.12859 0.18844 0.0
H1343 H 0.83452 0.13358 0.23766 0.0
H1344 H 0.78349 0.08795 0.25277 0.0
H1345 H 0.801 0.11955 0.24353 0.0
H1346 H 0.80602 0.0955 0.19459 0.0
H1347 H 0.78802 0.06381 0.2039 0.0
C1348 C 0.82796 0.1541 0.19345 0.0
C1349 C 0.84218 0.16464 0.2052 0.0
C1350 C 0.81597 0.13628 0.19765 0.0
C1351 C 0.81797 0.12871 0.21368 0.0
C1352 C 0.83236 0.13917 0.22531 0.0
C1353 C 0.84427 0.15693 0.22114 0.0
C1354 C 0.78822 0.08949 0.24 0.0
C1355 C 0.78468 0.07348 0.2291 0.0
C1356 C 0.7983 0.10754 0.23472 0.0
C1357 C 0.80525 0.10995 0.21844 0.0
C1358 C 0.80081 0.09411 0.2072 0.0
C1359 C 0.79053 0.076 0.21249 0.0
H1360 H 0.90759 0.82758 0.23311 0.0
H1361 H 0.93589 0.84271 0.18651 0.0
H1362 H 0.93681 0.82017 0.24528 0.0
H1363 H 0.965 0.83461 0.19851 0.0
H1364 H 0.02097 0.83822 0.2312 0.0
H1365 H 0.99179 0.84567 0.21897 0.0
H1366 H 0.95609 0.79736 0.24426 0.0
H1367 H 0.9853 0.7903 0.25698 0.0
C1368 C 0.92006 0.82941 0.22543 0.0
C1369 C 0.91931 0.83596 0.20881 0.0
C1370 C 0.93681 0.82488 0.23238 0.0
C1371 C 0.95342 0.82675 0.22295 0.0
C1372 C 0.95265 0.83318 0.20628 0.0
C1373 C 0.93583 0.83765 0.1993 0.0
C1374 C 1.00694 0.82926 0.23435 0.0
C1375 C 1.00567 0.81365 0.24522 0.0
C1376 C 0.99012 0.83341 0.22711 0.0
C1377 C 0.97143 0.82214 0.23054 0.0
C1378 C 0.97015 0.80654 0.24142 0.0
C1379 C 0.98698 0.80234 0.24862 0.0
H1380 H 0.22309 0.83287 0.19707 0.0
H1381 H 0.22246 0.86486 0.15145 0.0
H1382 H 0.24274 0.86171 0.2117 0.0
H1383 H 0.24158 0.89389 0.1661 0.0
H1384 H 0.2849 0.94206 0.19388 0.0
H1385 H 0.27161 0.91118 0.17941 0.0
H1386 H 0.23761 0.89063 0.22228 0.0
H1387 H 0.25127 0.92124 0.23676 0.0
C1388 C 0.22729 0.84608 0.19016 0.0
C1389 C 0.2212 0.84666 0.17316 0.0
C1390 C 0.23845 0.86265 0.19855 0.0
C1391 C 0.2436 0.88025 0.19017 0.0
C1392 C 0.23814 0.88059 0.17294 0.0
C1393 C 0.22714 0.86396 0.16451 0.0
C1394 C 0.27471 0.93085 0.20023 0.0
C1395 C 0.2691 0.93412 0.21644 0.0
C1396 C 0.26703 0.91317 0.19192 0.0
C1397 C 0.2534 0.89838 0.19959 0.0
C1398 C 0.2483 0.9015 0.21604 0.0
C1399 C 0.25612 0.91911 0.22439 0.0
H1400 H 0.18378 0.78737 0.84102 0.0
H1401 H 0.16645 0.83459 0.86379 0.0
H1402 H 0.15055 0.77426 0.8297 0.0
H1403 H 0.13334 0.82175 0.8518 0.0
H1404 H 0.08656 0.80438 0.80637 0.0
H1405 H 0.11839 0.81702 0.82108 0.0
H1406 H 0.11624 0.76068 0.84038 0.0
H1407 H 0.08447 0.74805 0.82588 0.0
C1408 C 0.17287 0.7948 0.84388 0.0
C1409 C 0.17786 0.81209 0.85331 0.0
C1410 C 0.15385 0.78733 0.83729 0.0
C1411 C 0.13947 0.79709 0.8398 0.0
C1412 C 0.14426 0.81411 0.84952 0.0
C1413 C 0.16322 0.82145 0.85633 0.0
C1414 C 0.09284 0.79475 0.81384 0.0
C1415 C 0.08305 0.77523 0.81493 0.0
C1416 C 0.11096 0.80199 0.82232 0.0
C1417 C 0.11971 0.78978 0.83181 0.0
C1418 C 0.10984 0.77034 0.83305 0.0
C1419 C 0.09163 0.76317 0.82479 0.0
H1420 H 0.22996 0.12732 0.87857 0.0
H1421 H 0.28852 0.16328 0.88616 0.0
H1422 H 0.24233 0.10228 0.86642 0.0
H1423 H 0.3012 0.13758 0.8744 0.0
H1424 H 0.31024 0.09474 0.8313 0.0
H1425 H 0.303 0.12065 0.84792 0.0
H1426 H 0.25894 0.07872 0.87279 0.0
H1427 H 0.26569 0.05327 0.85574 0.0
C1428 C 0.24556 0.1299 0.87769 0.0
C1429 C 0.25817 0.14753 0.8832 0.0
C1430 C 0.25274 0.11532 0.8709 0.0
C1431 C 0.27287 0.11767 0.86947 0.0
C1432 C 0.28562 0.13521 0.87519 0.0
C1433 C 0.27836 0.14991 0.88208 0.0
C1434 C 0.29951 0.0911 0.84076 0.0
C1435 C 0.28865 0.07197 0.84234 0.0
C1436 C 0.29524 0.10595 0.85024 0.0
C1437 C 0.28003 0.10194 0.86151 0.0
C1438 C 0.27035 0.08255 0.86395 0.0
C1439 C 0.27442 0.06786 0.85436 0.0
H1440 H 0.92821 0.18295 0.83871 0.0
H1441 H 0.97474 0.17836 0.87411 0.0
H1442 H 0.95211 0.19995 0.81942 0.0
H1443 H 0.99861 0.19603 0.85515 0.0
H1444 H 0.03746 0.21281 0.81162 0.0
H1445 H 1.01223 0.19278 0.82814 0.0
H1446 H 0.97535 0.2309 0.81752 0.0
H1447 H 1.00032 0.25065 0.80073 0.0
C1448 C 0.94354 0.18556 0.84236 0.0
C1449 C 0.94958 0.17931 0.85795 0.0
C1450 C 0.95723 0.19544 0.83137 0.0
C1451 C 0.97728 0.1993 0.83571 0.0
C1452 C 0.9833 0.19305 0.8513 0.0
C1453 C 0.96961 0.18317 0.86229 0.0
C1454 C 0.02385 0.21675 0.81259 0.0
C1455 C 0.02097 0.2334 0.80494 0.0
C1456 C 1.00946 0.20536 0.82219 0.0
C1457 C 0.99187 0.21037 0.82432 0.0
C1458 C 0.98867 0.22655 0.81605 0.0
C1459 C 1.00304 0.23793 0.80646 0.0
H1460 H 0.84285 0.88575 0.83913 0.0
H1461 H 0.89109 0.93635 0.84234 0.0
H1462 H 0.82559 0.9018 0.81901 0.0
H1463 H 0.87348 0.95283 0.82323 0.0
H1464 H 0.83933 0.97958 0.78521 0.0
H1465 H 0.85917 0.95919 0.79741 0.0
H1466 H 0.80853 0.92496 0.82088 0.0
H1467 H 0.78902 0.94449 0.80835 0.0
C1468 C 0.84994 0.90017 0.83536 0.0
C1469 C 0.86823 0.90981 0.84271 0.0
C1470 C 0.8399 0.90958 0.82398 0.0
C1471 C 0.84778 0.92897 0.81972 0.0
C1472 C 0.86675 0.93801 0.82607 0.0
C1473 C 0.87683 0.92855 0.83727 0.0
C1474 C 0.83246 0.96748 0.79273 0.0
C1475 C 0.81256 0.96388 0.79584 0.0
C1476 C 0.84385 0.95582 0.79988 0.0
C1477 C 0.83561 0.94025 0.81029 0.0
C1478 C 0.81556 0.93641 0.81278 0.0
C1479 C 0.8043 0.94792 0.80567 0.0
H1480 H 0.22868 0.09552 0.19728 0.0
H1481 H 0.21061 0.11608 0.24329 0.0
H1482 H 0.2373 0.06944 0.21241 0.0
H1483 H 0.21859 0.08939 0.25842 0.0
H1484 H 0.25916 0.05394 0.28214 0.0
H1485 H 0.2465 0.07857 0.26826 0.0
H1486 H 0.22434 0.03973 0.22619 0.0
H1487 H 0.23743 0.01519 0.23993 0.0
C1488 C 0.22658 0.09453 0.21066 0.0
C1489 C 0.21917 0.10815 0.21906 0.0
C1490 C 0.23124 0.07932 0.21933 0.0
C1491 C 0.22862 0.07715 0.23669 0.0
C1492 C 0.22099 0.09064 0.24509 0.0
C1493 C 0.21626 0.10589 0.23639 0.0
C1494 C 0.25133 0.0505 0.27004 0.0
C1495 C 0.24946 0.03254 0.26215 0.0
C1496 C 0.24398 0.06468 0.26208 0.0
C1497 C 0.23455 0.06132 0.24597 0.0
C1498 C 0.23186 0.04302 0.23843 0.0
C1499 C 0.2392 0.02883 0.24641 0.0
H1500 H 0.21249 0.87896 0.87317 0.0
H1501 H 0.25645 0.86645 0.84277 0.0
H1502 H 0.22227 0.91256 0.86504 0.0
H1503 H 0.26585 0.89981 0.8341 0.0
H1504 H 0.287 0.9636 0.82886 0.0
H1505 H 0.28024 0.93231 0.84162 0.0
H1506 H 0.21897 0.93034 0.8406 0.0
H1507 H 0.22585 0.96222 0.82888 0.0
C1508 C 0.22438 0.88351 0.86486 0.0
C1509 C 0.23373 0.87019 0.85857 0.0
C1510 C 0.22988 0.90268 0.86008 0.0
C1511 C 0.24468 0.90888 0.84873 0.0
C1512 C 0.25456 0.89564 0.84301 0.0
C1513 C 0.24919 0.87652 0.84796 0.0
C1514 C 0.27211 0.95676 0.83161 0.0
C1515 C 0.25699 0.96563 0.82776 0.0
C1516 C 0.26821 0.93861 0.83877 0.0
C1517 C 0.24906 0.92872 0.84212 0.0
C1518 C 0.23396 0.93762 0.83844 0.0
C1519 C 0.23788 0.95586 0.83143 0.0
H1520 H 0.16477 0.22054 0.88642 0.0
H1521 H 0.18016 0.20845 0.83663 0.0
H1522 H 0.14713 0.24303 0.87478 0.0
H1523 H 0.16291 0.23112 0.82488 0.0
H1524 H 0.10609 0.24726 0.80921 0.0
H1525 H 0.12885 0.23013 0.82063 0.0
H1526 H 0.14753 0.27298 0.86026 0.0
H1527 H 0.12473 0.29037 0.84871 0.0
C1528 C 0.16499 0.2233 0.87305 0.0
C1529 C 0.17408 0.21305 0.86244 0.0
C1530 C 0.15482 0.23612 0.86634 0.0
C1531 C 0.15335 0.23878 0.84882 0.0
C1532 C 0.16342 0.22923 0.83837 0.0
C1533 C 0.17357 0.21647 0.8451 0.0
C1534 C 0.1152 0.25334 0.82017 0.0
C1535 C 0.11338 0.27035 0.82795 0.0
C1536 C 0.12837 0.24344 0.82676 0.0
C1537 C 0.14017 0.25015 0.84138 0.0
C1538 C 0.13856 0.26725 0.84909 0.0
C1539 C 0.12542 0.27724 0.84244 0.0
H1540 H 0.86791 0.13247 0.88383 0.0
H1541 H 0.90559 0.1177 0.84786 0.0
H1542 H 0.84046 0.10765 0.87136 0.0
H1543 H 0.87803 0.09365 0.83509 0.0
H1544 H 0.82045 0.07168 0.80459 0.0
H1545 H 0.84589 0.09648 0.81905 0.0
H1546 H 0.83089 0.06949 0.86655 0.0
H1547 H 0.80569 0.04406 0.85203 0.0
C1548 C 0.87041 0.12389 0.87339 0.0
C1549 C 0.88898 0.12726 0.86676 0.0
C1550 C 0.85467 0.10976 0.86623 0.0
C1551 C 0.85714 0.09895 0.85217 0.0
C1552 C 0.8757 0.10205 0.84575 0.0
C1553 C 0.89145 0.11591 0.85303 0.0
C1554 C 0.82256 0.07086 0.81809 0.0
C1555 C 0.81124 0.05556 0.82706 0.0
C1556 C 0.83709 0.08515 0.82636 0.0
C1557 C 0.84048 0.0847 0.84385 0.0
C1558 C 0.82852 0.07011 0.85303 0.0
C1559 C 0.81407 0.0556 0.8447 0.0
H1560 H 0.90296 0.8252 0.8359 0.0
H1561 H 0.93037 0.81479 0.88326 0.0
H1562 H 0.92455 0.80987 0.82096 0.0
H1563 H 0.95178 0.79972 0.86852 0.0
H1564 H 0.97125 0.75426 0.84003 0.0
H1565 H 0.94966 0.77044 0.85323 0.0
H1566 H 0.95838 0.81241 0.81391 0.0
H1567 H 0.97956 0.79572 0.80027 0.0
C1568 C 0.91367 0.8198 0.84311 0.0
C1569 C 0.91464 0.82091 0.8608 0.0
C1570 C 0.92607 0.81103 0.83456 0.0
C1571 C 0.93974 0.80322 0.84353 0.0
C1572 C 0.94111 0.80503 0.86118 0.0
C1573 C 0.92879 0.81372 0.86966 0.0
C1574 C 0.96847 0.76679 0.83403 0.0
C1575 C 0.97729 0.77362 0.81903 0.0
C1576 C 0.9562 0.77626 0.84175 0.0
C1577 C 0.95235 0.79289 0.83476 0.0
C1578 C 0.96091 0.79961 0.81963 0.0
C1579 C 0.97326 0.79013 0.81189 0.0
H1580 H 0.85022 0.9136 0.21221 0.0
H1581 H 0.8431 0.89757 0.26416 0.0
H1582 H 0.84289 0.94408 0.2186 0.0
H1583 H 0.83455 0.92729 0.27032 0.0
H1584 H 0.82215 0.98454 0.27973 0.0
H1585 H 0.84052 0.96084 0.27391 0.0
H1586 H 0.81443 0.95304 0.2233 0.0
H1587 H 0.79702 0.97683 0.2289 0.0
C1588 C 0.84739 0.91666 0.22505 0.0
C1589 C 0.84684 0.90285 0.23755 0.0
C1590 C 0.84289 0.93408 0.22871 0.0
C1591 C 0.83757 0.93812 0.24494 0.0
C1592 C 0.83852 0.9249 0.25769 0.0
C1593 C 0.84319 0.90762 0.25407 0.0
C1594 C 0.82077 0.97805 0.26728 0.0
C1595 C 0.80797 0.98252 0.25486 0.0
C1596 C 0.83114 0.9643 0.26394 0.0
C1597 C 0.82898 0.95476 0.2481 0.0
C1598 C 0.81688 0.96009 0.23555 0.0
C1599 C 0.80663 0.97371 0.23886 0.0
H1600 H 0.15789 0.7677 0.17016 0.0
H1601 H 0.15224 0.8253 0.17785 0.0
H1602 H 0.12697 0.75484 0.18364 0.0
H1603 H 0.12154 0.81257 0.19119 0.0
H1604 H 0.08846 0.74982 0.23222 0.0
H1605 H 0.1157 0.75686 0.21372 0.0
H1606 H 0.08728 0.79231 0.18354 0.0
H1607 H 0.06002 0.78532 0.20195 0.0
C1608 C 0.14997 0.77755 0.17466 0.0
C1609 C 0.15748 0.79748 0.17313 0.0
C1610 C 0.13236 0.77022 0.18236 0.0
C1611 C 0.12181 0.7827 0.18833 0.0
C1612 C 0.12921 0.80259 0.18649 0.0
C1613 C 0.14689 0.80989 0.17906 0.0
C1614 C 0.08777 0.75871 0.22138 0.0
C1615 C 0.0722 0.76725 0.21872 0.0
C1616 C 0.10336 0.76269 0.21077 0.0
C1617 C 0.10372 0.77538 0.19739 0.0
C1618 C 0.08748 0.78271 0.19394 0.0
C1619 C 0.07181 0.77859 0.20444 0.0
H1620 H 0.90417 0.23997 0.22152 0.0
H1621 H 0.91377 0.18799 0.20065 0.0
H1622 H 0.93572 0.24648 0.23694 0.0
H1623 H 0.94551 0.19462 0.21581 0.0
H1624 H 0.98074 0.19645 0.26648 0.0
H1625 H 0.95438 0.19283 0.24521 0.0
H1626 H 0.97106 0.25397 0.23688 0.0
H1627 H 0.99736 0.25767 0.25859 0.0
C1628 C 0.91329 0.23024 0.21986 0.0
C1629 C 0.90644 0.21336 0.21007 0.0
C1630 C 0.9314 0.23396 0.22867 0.0
C1631 C 0.94304 0.22092 0.22779 0.0
C1632 C 0.93672 0.20473 0.21705 0.0
C1633 C 0.91858 0.20096 0.20834 0.0
C1634 C 0.97897 0.20912 0.25999 0.0
C1635 C 0.99104 0.22737 0.26435 0.0
C1636 C 0.96392 0.20703 0.24766 0.0
C1637 C 0.96057 0.22313 0.23934 0.0
C1638 C 0.97313 0.24132 0.2432 0.0
C1639 C 0.98825 0.24342 0.25557 0.0
H1640 H 0.23685 0.64384 0.6454 0.0
H1641 H 0.21984 0.69519 0.6584 0.0
H1642 H 0.25063 0.65883 0.61993 0.0
H1643 H 0.23408 0.71049 0.6329 0.0
H1644 H 0.25002 0.72691 0.57779 0.0
H1645 H 0.2326 0.71141 0.60209 0.0
H1646 H 0.27815 0.68278 0.61266 0.0
H1647 H 0.2949 0.6975 0.5886 0.0
C1648 C 0.23626 0.65845 0.64293 0.0
C1649 C 0.22749 0.66838 0.65414 0.0
C1650 C 0.24417 0.66709 0.62826 0.0
C1651 C 0.24376 0.68605 0.62435 0.0
C1652 C 0.23456 0.69586 0.63536 0.0
C1653 C 0.22649 0.68711 0.65004 0.0
C1654 C 0.25614 0.71716 0.58525 0.0
C1655 C 0.27383 0.71342 0.58109 0.0
C1656 C 0.24625 0.70837 0.59926 0.0
C1657 C 0.25383 0.69563 0.60934 0.0
C1658 C 0.27152 0.69207 0.60508 0.0
C1659 C 0.28127 0.70072 0.59122 0.0
H1660 H 0.87223 0.73923 0.6424 0.0
H1661 H 0.81974 0.69963 0.62159 0.0
H1662 H 0.87633 0.75566 0.6158 0.0
H1663 H 0.82286 0.71717 0.59551 0.0
H1664 H 0.83778 0.74576 0.5461 0.0
H1665 H 0.83892 0.72586 0.57069 0.0
H1666 H 0.86245 0.77711 0.60132 0.0
H1667 H 0.86225 0.7967 0.57671 0.0
C1668 C 0.86162 0.73388 0.63214 0.0
C1669 C 0.84552 0.71816 0.6343 0.0
C1670 C 0.8638 0.74356 0.61691 0.0
C1671 C 0.84976 0.73802 0.60351 0.0
C1672 C 0.83407 0.72184 0.60544 0.0
C1673 C 0.83208 0.71195 0.62057 0.0
C1674 C 0.84339 0.75269 0.55809 0.0
C1675 C 0.8499 0.77277 0.55949 0.0
C1676 C 0.84394 0.74131 0.57222 0.0
C1677 C 0.85073 0.74982 0.58809 0.0
C1678 C 0.85752 0.76994 0.58932 0.0
C1679 C 0.85726 0.78124 0.57518 0.0
H1680 H 0.89601 0.30882 0.68061 0.0
H1681 H 0.86307 0.34816 0.66274 0.0
H1682 H 0.88915 0.29157 0.65409 0.0
H1683 H 0.85441 0.32952 0.63668 0.0
H1684 H 0.85464 0.30178 0.58495 0.0
H1685 H 0.86321 0.32096 0.61093 0.0
H1686 H 0.86675 0.26991 0.63796 0.0
H1687 H 0.85939 0.25132 0.61181 0.0
C1688 C 0.88734 0.31396 0.67105 0.0
C1689 C 0.88037 0.33025 0.67404 0.0
C1690 C 0.88296 0.30364 0.65579 0.0
C1691 C 0.87098 0.30882 0.64299 0.0
C1692 C 0.8639 0.32505 0.64597 0.0
C1693 C 0.86863 0.33566 0.66117 0.0
C1694 C 0.85737 0.29478 0.59649 0.0
C1695 C 0.85654 0.27509 0.59629 0.0
C1696 C 0.86215 0.30573 0.61148 0.0
C1697 C 0.86585 0.2972 0.62682 0.0
C1698 C 0.86464 0.27734 0.62652 0.0
C1699 C 0.86029 0.26653 0.61148 0.0
H1700 H 0.24248 0.36018 0.60849 0.0
H1701 H 0.22365 0.30165 0.58986 0.0
H1702 H 0.27437 0.36344 0.5965 0.0
H1703 H 0.25532 0.30481 0.57809 0.0
H1704 H 0.31849 0.30937 0.57289 0.0
H1705 H 0.29058 0.30982 0.58933 0.0
H1706 H 0.28658 0.36264 0.5659 0.0
H1707 H 0.31445 0.36202 0.54914 0.0
C1708 C 0.24525 0.348 0.60197 0.0
C1709 C 0.23063 0.33068 0.60004 0.0
C1710 C 0.2634 0.34989 0.59506 0.0
C1711 C 0.26733 0.33435 0.58645 0.0
C1712 C 0.25278 0.31696 0.58482 0.0
C1713 C 0.23461 0.31519 0.59144 0.0
C1714 C 0.31181 0.32121 0.57138 0.0
C1715 C 0.31843 0.33545 0.55947 0.0
C1716 C 0.29585 0.32146 0.58079 0.0
C1717 C 0.28622 0.33608 0.57866 0.0
C1718 C 0.29376 0.3512 0.56779 0.0
C1719 C 0.30973 0.35088 0.55823 0.0
H1720 H 0.23832 0.31047 0.40661 0.0
H1721 H 0.27276 0.27378 0.38857 0.0
H1722 H 0.25582 0.31307 0.43399 0.0
H1723 H 0.28976 0.27593 0.41619 0.0
H1724 H 0.30352 0.27154 0.47303 0.0
H1725 H 0.28292 0.26695 0.44701 0.0
H1726 H 0.29117 0.32828 0.44385 0.0
H1727 H 0.31181 0.33293 0.46972 0.0
C1728 C 0.24964 0.30299 0.40844 0.0
C1729 C 0.25428 0.29209 0.39529 0.0
C1730 C 0.25955 0.30439 0.42416 0.0
C1731 C 0.27413 0.29472 0.42716 0.0
C1732 C 0.27841 0.28336 0.41424 0.0
C1733 C 0.26865 0.28212 0.39844 0.0
C1734 C 0.30074 0.28401 0.46687 0.0
C1735 C 0.30931 0.3026 0.47337 0.0
C1736 C 0.28907 0.28138 0.45196 0.0
C1737 C 0.28552 0.29727 0.44345 0.0
C1738 C 0.29357 0.31579 0.45024 0.0
C1739 C 0.30544 0.31844 0.465 0.0
H1740 H 0.27647 0.68688 0.39349 0.0
H1741 H 0.22279 0.65758 0.4153 0.0
H1742 H 0.29036 0.69899 0.42157 0.0
H1743 H 0.23688 0.66914 0.4434 0.0
H1744 H 0.28175 0.67402 0.49049 0.0
H1745 H 0.26771 0.66313 0.46223 0.0
H1746 H 0.28129 0.72184 0.4459 0.0
H1747 H 0.29483 0.73276 0.47431 0.0
C1748 C 0.26765 0.6831 0.40429 0.0
C1749 C 0.24851 0.6714 0.4022 0.0
C1750 C 0.27557 0.69003 0.42033 0.0
C1751 C 0.26473 0.68496 0.43469 0.0
C1752 C 0.24561 0.67322 0.43259 0.0
C1753 C 0.23751 0.66671 0.41651 0.0
C1754 C 0.2818 0.68457 0.48085 0.0
C1755 C 0.2894 0.70424 0.48463 0.0
C1756 C 0.27366 0.67836 0.46471 0.0
C1757 C 0.27339 0.69163 0.45185 0.0
C1758 C 0.28133 0.71128 0.45553 0.0
C1759 C 0.28901 0.71753 0.47179 0.0
H1760 H 0.86259 0.69414 0.43307 0.0
H1761 H 0.92148 0.72106 0.42029 0.0
H1762 H 0.85979 0.72445 0.44512 0.0
H1763 H 0.91883 0.7516 0.43269 0.0
H1764 H 0.90822 0.78659 0.48228 0.0
H1765 H 0.91448 0.76199 0.46364 0.0
H1766 H 0.85998 0.75849 0.4359 0.0
H1767 H 0.85388 0.78326 0.45428 0.0
C1768 C 0.87486 0.70666 0.43272 0.0
C1769 C 0.89224 0.70535 0.42581 0.0
C1770 C 0.87324 0.72402 0.43951 0.0
C1771 C 0.88908 0.74039 0.43977 0.0
C1772 C 0.90642 0.73918 0.43263 0.0
C1773 C 0.90791 0.72181 0.4255 0.0
C1774 C 0.89791 0.78107 0.47186 0.0
C1775 C 0.88037 0.78661 0.46995 0.0
C1776 C 0.90148 0.76695 0.4612 0.0
C1777 C 0.88754 0.75812 0.44853 0.0
C1778 C 0.87082 0.76483 0.44576 0.0
C1779 C 0.86733 0.77898 0.45629 0.0
H1780 H 0.84992 0.28367 0.41618 0.0
H1781 H 0.86973 0.3429 0.43283 0.0
H1782 H 0.83741 0.27478 0.44396 0.0
H1783 H 0.85713 0.33404 0.46049 0.0
H1784 H 0.86017 0.30323 0.51213 0.0
H1785 H 0.8673 0.31531 0.48397 0.0
H1786 H 0.81238 0.27894 0.46452 0.0
H1787 H 0.80508 0.26702 0.49294 0.0
C1788 C 0.85146 0.29481 0.42571 0.0
C1789 C 0.86087 0.314 0.42225 0.0
C1790 C 0.84412 0.28975 0.44159 0.0
C1791 C 0.84626 0.30369 0.45448 0.0
C1792 C 0.85531 0.32292 0.45089 0.0
C1793 C 0.86242 0.32802 0.43497 0.0
C1794 C 0.84935 0.29819 0.50194 0.0
C1795 C 0.83203 0.28421 0.50482 0.0
C1796 C 0.85345 0.30512 0.48576 0.0
C1797 C 0.8405 0.298 0.47192 0.0
C1798 C 0.82275 0.2846 0.47488 0.0
C1799 C 0.81846 0.27793 0.4912 0.0
H1800 H 0.14245 0.69316 0.70066 0.0
H1801 H 0.1249 0.64402 0.7323 0.0
H1802 H 0.1221 0.70958 0.71593 0.0
H1803 H 0.10519 0.66047 0.748 0.0
H1804 H 0.05118 0.68159 0.75514 0.0
H1805 H 0.07515 0.66793 0.74281 0.0
H1806 H 0.11474 0.72439 0.74105 0.0
H1807 H 0.09021 0.73827 0.75271 0.0
C1808 C 0.13474 0.68617 0.71126 0.0
C1809 C 0.13526 0.66737 0.71534 0.0
C1810 C 0.12302 0.69553 0.72001 0.0
C1811 C 0.11163 0.68627 0.73307 0.0
C1812 C 0.11327 0.66791 0.73777 0.0
C1813 C 0.12478 0.65855 0.72893 0.0
C1814 C 0.06489 0.6912 0.75206 0.0
C1815 C 0.06853 0.71112 0.75491 0.0
C1816 C 0.07887 0.68329 0.74517 0.0
C1817 C 0.09709 0.69498 0.74098 0.0
C1818 C 0.10088 0.7149 0.74398 0.0
C1819 C 0.08682 0.72286 0.75086 0.0
H1820 H 0.85158 0.66242 0.72695 0.0
H1821 H 0.91348 0.6676 0.72624 0.0
H1822 H 0.84835 0.63613 0.74658 0.0
H1823 H 0.9102 0.64173 0.74651 0.0
H1824 H 0.89398 0.61092 0.79875 0.0
H1825 H 0.89991 0.6362 0.77774 0.0
H1826 H 0.85324 0.60193 0.74544 0.0
H1827 H 0.84769 0.57653 0.76596 0.0
C1828 C 0.86448 0.65787 0.73081 0.0
C1829 C 0.88278 0.66712 0.72489 0.0
C1830 C 0.86262 0.64288 0.74215 0.0
C1831 C 0.87904 0.63694 0.74803 0.0
C1832 C 0.89736 0.64618 0.74227 0.0
C1833 C 0.8992 0.66102 0.73071 0.0
C1834 C 0.88521 0.60863 0.78706 0.0
C1835 C 0.87011 0.59179 0.78423 0.0
C1836 C 0.88859 0.62311 0.77506 0.0
C1837 C 0.87683 0.62107 0.76011 0.0
C1838 C 0.86226 0.604 0.75702 0.0
C1839 C 0.85904 0.58949 0.76886 0.0
H1840 H 0.91815 0.31643 0.71889 0.0
H1841 H 0.93245 0.37487 0.73784 0.0
H1842 H 0.94639 0.31098 0.73444 0.0
H1843 H 0.96076 0.36922 0.75393 0.0
H1844 H 0.02197 0.35657 0.76266 0.0
H1845 H 0.99294 0.3636 0.7495 0.0
H1846 H 0.95883 0.30733 0.76254 0.0
H1847 H 0.98776 0.3003 0.77569 0.0
C1848 C 0.92736 0.32817 0.7264 0.0
C1849 C 0.92311 0.34619 0.72691 0.0
C1850 C 0.94349 0.32495 0.73552 0.0
C1851 C 0.95594 0.33962 0.74552 0.0
C1852 C 0.95161 0.35763 0.74625 0.0
C1853 C 0.9353 0.36084 0.73714 0.0
C1854 C 1.00827 0.34576 0.76294 0.0
C1855 C 1.0074 0.32774 0.77015 0.0
C1856 C 0.99155 0.34983 0.75538 0.0
C1857 C 0.97349 0.336 0.75478 0.0
C1858 C 0.97253 0.31822 0.76242 0.0
C1859 C 0.9892 0.31416 0.76998 0.0
H1860 H 0.21831 0.35881 0.70271 0.0
H1861 H 0.20743 0.39326 0.66095 0.0
H1862 H 0.23843 0.38745 0.71723 0.0
H1863 H 0.227 0.42212 0.67566 0.0
H1864 H 0.2784 0.46737 0.6998 0.0
H1865 H 0.25912 0.43882 0.68471 0.0
H1866 H 0.23574 0.4154 0.73151 0.0
H1867 H 0.25568 0.44364 0.74666 0.0
C1868 C 0.2202 0.37258 0.69669 0.0
C1869 C 0.21135 0.37388 0.68074 0.0
C1870 C 0.2316 0.38902 0.70504 0.0
C1871 C 0.23423 0.40717 0.6977 0.0
C1872 C 0.22553 0.40838 0.6816 0.0
C1873 C 0.21429 0.39188 0.67317 0.0
C1874 C 0.2691 0.45614 0.70686 0.0
C1875 C 0.26861 0.45772 0.72443 0.0
C1876 C 0.25796 0.43979 0.69819 0.0
C1877 C 0.24589 0.42473 0.70687 0.0
C1878 C 0.24516 0.42652 0.72444 0.0
C1879 C 0.25648 0.44277 0.73313 0.0
H1880 H 0.17149 0.35597 0.3517 0.0
H1881 H 0.17835 0.31512 0.31419 0.0
H1882 H 0.13617 0.34697 0.3453 0.0
H1883 H 0.14331 0.30608 0.30782 0.0
H1884 H 0.07827 0.29642 0.34871 0.0
H1885 H 0.11163 0.31631 0.35118 0.0
H1886 H 0.11411 0.31599 0.29706 0.0
H1887 H 0.08072 0.29592 0.29455 0.0
C1888 C 0.16547 0.34545 0.34179 0.0
C1889 C 0.17751 0.3361 0.33351 0.0
C1890 C 0.14531 0.34022 0.3382 0.0
C1891 C 0.13696 0.32577 0.32611 0.0
C1892 C 0.14927 0.31741 0.31706 0.0
C1893 C 0.16931 0.32247 0.32078 0.0
C1894 C 0.08575 0.30095 0.33731 0.0
C1895 C 0.07696 0.29429 0.32145 0.0
C1896 C 0.10484 0.31248 0.33873 0.0
C1897 C 0.11557 0.31751 0.32432 0.0
C1898 C 0.10626 0.31212 0.30839 0.0
C1899 C 0.08711 0.30068 0.30696 0.0
H1900 H 0.244 0.63492 0.32754 0.0
H1901 H 0.25766 0.61521 0.37668 0.0
H1902 H 0.25827 0.61128 0.31445 0.0
H1903 H 0.27176 0.59171 0.36368 0.0
H1904 H 0.31714 0.5701 0.33736 0.0
H1905 H 0.30021 0.59168 0.3492 0.0
H1906 H 0.25574 0.57675 0.30896 0.0
H1907 H 0.27323 0.55497 0.29668 0.0
C1908 C 0.24993 0.6255 0.33558 0.0
C1909 C 0.24991 0.62728 0.35324 0.0
C1910 C 0.25805 0.61185 0.32804 0.0
C1911 C 0.26638 0.5996 0.33795 0.0
C1912 C 0.26592 0.60113 0.35558 0.0
C1913 C 0.25787 0.61474 0.36308 0.0
C1914 C 0.30371 0.57122 0.33094 0.0
C1915 C 0.29661 0.56066 0.31599 0.0
C1916 C 0.29387 0.58361 0.33788 0.0
C1917 C 0.27645 0.58597 0.33019 0.0
C1918 C 0.26918 0.5754 0.31521 0.0
C1919 C 0.2791 0.5628 0.30822 0.0
H1920 H 0.91841 0.68195 0.32165 0.0
H1921 H 0.95702 0.68877 0.36617 0.0
H1922 H 0.94442 0.70235 0.30617 0.0
H1923 H 0.98297 0.70938 0.35071 0.0
H1924 H 1.01641 0.76192 0.32232 0.0
H1925 H 0.9905 0.74137 0.33764 0.0
H1926 H 0.97654 0.70138 0.29548 0.0
H1927 H 1.00247 0.72212 0.27996 0.0
C1928 C 0.93247 0.68775 0.32811 0.0
C1929 C 0.93567 0.6837 0.34513 0.0
C1930 C 0.94736 0.6994 0.31923 0.0
C1931 C 0.96574 0.70737 0.3272 0.0
C1932 C 0.96888 0.70358 0.34428 0.0
C1933 C 0.95401 0.69184 0.35315 0.0
C1934 C 1.00784 0.74875 0.31627 0.0
C1935 C 1.01148 0.74364 0.2999 0.0
C1936 C 0.99307 0.73692 0.32512 0.0
C1937 C 0.98153 0.71977 0.31778 0.0
C1938 C 0.98511 0.71463 0.30139 0.0
C1939 C 1.00001 0.72643 0.29254 0.0
H1940 H 0.85934 0.3989 0.33134 0.0
H1941 H 0.83023 0.38665 0.37782 0.0
H1942 H 0.83499 0.41486 0.32093 0.0
H1943 H 0.80531 0.4024 0.36725 0.0
H1944 H 0.78333 0.43406 0.30114 0.0
H1945 H 0.80205 0.41205 0.31133 0.0
H1946 H 0.80365 0.43511 0.36172 0.0
H1947 H 0.78483 0.45699 0.35155 0.0
C1948 C 0.84744 0.3993 0.33921 0.0
C1949 C 0.84678 0.39161 0.35544 0.0
C1950 C 0.83336 0.40837 0.33319 0.0
C1951 C 0.81815 0.41009 0.34324 0.0
C1952 C 0.81695 0.40158 0.35923 0.0
C1953 C 0.83107 0.39235 0.36524 0.0
C1954 C 0.7876 0.43441 0.3144 0.0
C1955 C 0.78266 0.44752 0.32544 0.0
C1956 C 0.79836 0.42176 0.32028 0.0
C1957 C 0.80458 0.42184 0.33737 0.0
C1958 C 0.79896 0.43441 0.34853 0.0
C1959 C 0.78815 0.44704 0.34266 0.0
H1960 H 0.24138 0.61338 0.68086 0.0
H1961 H 0.2223 0.63129 0.72751 0.0
H1962 H 0.25551 0.59045 0.69605 0.0
H1963 H 0.23642 0.60843 0.74268 0.0
H1964 H 0.24183 0.55022 0.76122 0.0
H1965 H 0.23014 0.57445 0.74605 0.0
H1966 H 0.28077 0.58597 0.71617 0.0
H1967 H 0.2926 0.56149 0.7315 0.0
C1968 C 0.24045 0.61268 0.69439 0.0
C1969 C 0.23055 0.62422 0.70289 0.0
C1970 C 0.24856 0.59947 0.70313 0.0
C1971 C 0.24702 0.59736 0.72064 0.0
C1972 C 0.23757 0.60927 0.72918 0.0
C1973 C 0.22947 0.62246 0.72045 0.0
C1974 C 0.2507 0.55801 0.7516 0.0
C1975 C 0.26833 0.55386 0.74777 0.0
C1976 C 0.24394 0.57202 0.74284 0.0
C1977 C 0.25453 0.58241 0.72991 0.0
C1978 C 0.2721 0.57819 0.72593 0.0
C1979 C 0.27891 0.56412 0.73474 0.0
H1980 H 0.26606 0.36846 0.33236 0.0
H1981 H 0.22731 0.39262 0.36028 0.0
H1982 H 0.28883 0.39996 0.3312 0.0
H1983 H 0.25049 0.42417 0.35991 0.0
H1984 H 0.28297 0.47991 0.33497 0.0
H1985 H 0.26188 0.44898 0.34149 0.0
H1986 H 0.3117 0.42501 0.34526 0.0
H1987 H 0.3326 0.45567 0.33741 0.0
C1988 C 0.26262 0.38053 0.33853 0.0
C1989 C 0.24491 0.37817 0.34633 0.0
C1990 C 0.27575 0.3986 0.33801 0.0
C1991 C 0.27162 0.41475 0.34549 0.0
C1992 C 0.25407 0.4122 0.35374 0.0
C1993 C 0.24078 0.39413 0.35401 0.0
C1994 C 0.28947 0.46807 0.33715 0.0
C1995 C 0.30947 0.47027 0.33515 0.0
C1996 C 0.27736 0.45029 0.34116 0.0
C1997 C 0.28495 0.43426 0.34362 0.0
C1998 C 0.3052 0.43685 0.34297 0.0
C1999 C 0.3173 0.4546 0.3387 0.0
H2000 H 0.18315 0.70177 0.32733 0.0
H2001 H 0.13636 0.68217 0.36066 0.0
H2002 H 0.16706 0.72576 0.31605 0.0
H2003 H 0.12043 0.70602 0.34962 0.0
H2004 H 0.08428 0.72918 0.3099 0.0
H2005 H 0.10307 0.70897 0.32325 0.0
H2006 H 0.15549 0.75496 0.32104 0.0
H2007 H 0.13663 0.77515 0.30725 0.0
C2008 C 0.16972 0.70293 0.33257 0.0
C2009 C 0.16096 0.68994 0.34479 0.0
C2010 C 0.16043 0.71663 0.32607 0.0
C2011 C 0.14218 0.7176 0.33165 0.0
C2012 C 0.13417 0.7054 0.34467 0.0
C2013 C 0.1434 0.69181 0.35112 0.0
C2014 C 0.09981 0.73501 0.31215 0.0
C2015 C 0.10885 0.75385 0.30742 0.0
C2016 C 0.11061 0.72346 0.32002 0.0
C2017 C 0.13086 0.73031 0.32338 0.0
C2018 C 0.13997 0.74914 0.31861 0.0
C2019 C 0.1291 0.7608 0.31083 0.0
H2020 H 0.88173 0.60449 0.36681 0.0
H2021 H 0.87958 0.63723 0.32172 0.0
H2022 H 0.86196 0.57577 0.35215 0.0
H2023 H 0.86073 0.60835 0.30683 0.0
H2024 H 0.80702 0.55879 0.293 0.0
H2025 H 0.82863 0.5874 0.30613 0.0
H2026 H 0.86286 0.55261 0.33041 0.0
H2027 H 0.84083 0.52381 0.31762 0.0
C2028 C 0.87706 0.60556 0.35377 0.0
C2029 C 0.8822 0.62318 0.34547 0.0
C2030 C 0.86597 0.58903 0.34529 0.0
C2031 C 0.85982 0.58973 0.32828 0.0
C2032 C 0.86507 0.60733 0.31996 0.0
C2033 C 0.87606 0.62385 0.32846 0.0
C2034 C 0.81927 0.55722 0.30099 0.0
C2035 C 0.82212 0.53898 0.30435 0.0
C2036 C 0.83174 0.57367 0.30848 0.0
C2037 C 0.84742 0.57231 0.31943 0.0
C2038 C 0.8507 0.55413 0.32229 0.0
C2039 C 0.83817 0.53763 0.31484 0.0
H2040 H 0.9182 0.29899 0.40171 0.0
H2041 H 0.89628 0.30544 0.35113 0.0
H2042 H 0.94214 0.28392 0.39063 0.0
H2043 H 0.92 0.29015 0.34001 0.0
H2044 H 0.97762 0.28069 0.32425 0.0
H2045 H 0.95375 0.29538 0.33573 0.0
H2046 H 0.94721 0.25627 0.37726 0.0
H2047 H 0.97175 0.24219 0.36624 0.0
C2048 C 0.91825 0.29691 0.38823 0.0
C2049 C 0.90525 0.30349 0.37735 0.0
C2050 C 0.93205 0.28825 0.38183 0.0
C2051 C 0.93323 0.28584 0.36435 0.0
C2052 C 0.91993 0.29208 0.35351 0.0
C2053 C 0.9062 0.30079 0.3599 0.0
C2054 C 0.97133 0.2753 0.33592 0.0
C2055 C 0.9768 0.26011 0.34421 0.0
C2056 C 0.95734 0.28362 0.34244 0.0
C2057 C 0.94832 0.27703 0.35744 0.0
C2058 C 0.95389 0.26194 0.36578 0.0
C2059 C 0.96789 0.25365 0.3593 0.0
H2060 H 0.81681 0.40769 0.72885 0.0
H2061 H 0.87195 0.41244 0.75585 0.0
H2062 H 0.81456 0.43772 0.74173 0.0
H2063 H 0.86968 0.4425 0.76897 0.0
H2064 H 0.86812 0.50325 0.78093 0.0
H2065 H 0.87046 0.47528 0.76491 0.0
H2066 H 0.80858 0.45095 0.76807 0.0
H2067 H 0.80622 0.47948 0.78396 0.0
C2068 C 0.82854 0.41522 0.73752 0.0
C2069 C 0.84454 0.40752 0.74137 0.0
C2070 C 0.82717 0.43243 0.74501 0.0
C2071 C 0.84178 0.4426 0.75661 0.0
C2072 C 0.85816 0.43527 0.76 0.0
C2073 C 0.85955 0.418 0.75244 0.0
C2074 C 0.85491 0.49205 0.77807 0.0
C2075 C 0.83696 0.49366 0.7838 0.0
C2076 C 0.85632 0.47585 0.76897 0.0
C2077 C 0.83982 0.46055 0.76533 0.0
C2078 C 0.82165 0.46245 0.7705 0.0
C2079 C 0.82023 0.47883 0.7796 0.0
H2080 H 0.1724 0.31705 0.70632 0.0
H2081 H 0.13264 0.3134 0.66292 0.0
H2082 H 0.14531 0.30275 0.72349 0.0
H2083 H 0.10545 0.29811 0.67996 0.0
H2084 H 0.06322 0.30279 0.72186 0.0
H2085 H 0.08821 0.30897 0.70133 0.0
H2086 H 0.12026 0.27561 0.73038 0.0
H2087 H 0.09555 0.27002 0.75126 0.0
C2088 C 0.15786 0.31289 0.70038 0.0
C2089 C 0.15465 0.31666 0.68331 0.0
C2090 C 0.14231 0.30443 0.71019 0.0
C2091 C 0.1231 0.29937 0.70317 0.0
C2092 C 0.12001 0.30211 0.68585 0.0
C2093 C 0.13562 0.31066 0.67602 0.0
C2094 C 0.07543 0.29649 0.72374 0.0
C2095 C 0.07753 0.28616 0.73834 0.0
C2096 C 0.08974 0.29994 0.71188 0.0
C2097 C 0.10643 0.29301 0.71427 0.0
C2098 C 0.10784 0.28155 0.72832 0.0
C2099 C 0.0936 0.27824 0.74025 0.0
H2100 H 0.92883 0.73116 0.68072 0.0
H2101 H 0.91546 0.73581 0.7326 0.0
H2102 H 0.96074 0.75391 0.68644 0.0
H2103 H 0.94706 0.75809 0.73846 0.0
H2104 H 1.00254 0.79519 0.7502 0.0
H2105 H 0.9709 0.78812 0.73495 0.0
H2106 H 0.98912 0.74878 0.7022 0.0
H2107 H 0.02084 0.75629 0.71703 0.0
C2108 C 0.93254 0.7375 0.69321 0.0
C2109 C 0.91992 0.73161 0.7063 0.0
C2110 C 0.95079 0.75042 0.69651 0.0
C2111 C 0.95655 0.75775 0.71293 0.0
C2112 C 0.94312 0.753 0.72562 0.0
C2113 C 0.92505 0.74004 0.72234 0.0
C2114 C 1.00006 0.78564 0.7393 0.0
C2115 C 1.01396 0.77583 0.73516 0.0
C2116 C 0.98188 0.78151 0.73061 0.0
C2117 C 0.97724 0.76738 0.71775 0.0
C2118 C 0.99212 0.75966 0.7121 0.0
C2119 C 1.01037 0.76393 0.72068 0.0
H2120 H 0.76811 0.17834 0.6603 0.0
H2121 H 0.71074 0.15604 0.63665 0.0
H2122 H 0.77923 0.19428 0.63406 0.0
H2123 H 0.72159 0.17228 0.6108 0.0
H2124 H 0.75345 0.18521 0.56174 0.0
H2125 H 0.74203 0.1704 0.58804 0.0
H2126 H 0.77559 0.22073 0.61566 0.0
H2127 H 0.78731 0.23553 0.58922 0.0
C2128 C 0.75789 0.17679 0.64952 0.0
C2129 C 0.7385 0.16597 0.65068 0.0
C2130 C 0.76419 0.18612 0.63453 0.0
C2131 C 0.75131 0.18469 0.62025 0.0
C2132 C 0.732 0.17365 0.62141 0.0
C2133 C 0.72572 0.16445 0.63636 0.0
C2134 C 0.75822 0.19328 0.57338 0.0
C2135 C 0.77126 0.21164 0.57327 0.0
C2136 C 0.75163 0.18476 0.58852 0.0
C2137 C 0.75793 0.19427 0.60408 0.0
C2138 C 0.77062 0.21284 0.60397 0.0
C2139 C 0.77714 0.22145 0.58876 0.0
H2140 H 0.36855 0.26017 0.64579 0.0
H2141 H 0.30819 0.2296 0.63679 0.0
H2142 H 0.37205 0.26384 0.6156 0.0
H2143 H 0.31175 0.23255 0.6065 0.0
H2144 H 0.31979 0.26517 0.55648 0.0
H2145 H 0.31523 0.25599 0.5856 0.0
H2146 H 0.37353 0.24817 0.58979 0.0
H2147 H 0.37837 0.25829 0.56078 0.0
C2148 C 0.35611 0.25403 0.63729 0.0
C2149 C 0.33807 0.24476 0.64357 0.0
C2150 C 0.35812 0.25597 0.61997 0.0
C2151 C 0.34219 0.24843 0.60855 0.0
C2152 C 0.32424 0.2388 0.61491 0.0
C2153 C 0.32218 0.2371 0.63224 0.0
C2154 C 0.33149 0.26109 0.56349 0.0
C2155 C 0.3495 0.2626 0.55639 0.0
C2156 C 0.32887 0.25578 0.58024 0.0
C2157 C 0.34411 0.25159 0.59018 0.0
C2158 C 0.36166 0.25179 0.58265 0.0
C2159 C 0.36437 0.25738 0.56598 0.0
H2160 H 0.3424 0.82686 0.67647 0.0
H2161 H 0.40253 0.84278 0.66326 0.0
H2162 H 0.33321 0.80967 0.64964 0.0
H2163 H 0.39333 0.82547 0.63647 0.0
H2164 H 0.37299 0.77509 0.59856 0.0
H2165 H 0.38211 0.79325 0.62486 0.0
H2166 H 0.33014 0.81354 0.61954 0.0
H2167 H 0.32101 0.79545 0.59318 0.0
C2168 C 0.35367 0.82696 0.66778 0.0
C2169 C 0.37326 0.8363 0.67218 0.0
C2170 C 0.34837 0.81701 0.65234 0.0
C2171 C 0.3625 0.81603 0.64079 0.0
C2172 C 0.38205 0.82556 0.6451 0.0
C2173 C 0.38734 0.83554 0.66052 0.0
C2174 C 0.36354 0.78352 0.60283 0.0
C2175 C 0.34618 0.78364 0.59354 0.0
C2176 C 0.36881 0.79402 0.61801 0.0
C2177 C 0.35691 0.80496 0.62445 0.0
C2178 C 0.33957 0.80509 0.61518 0.0
C2179 C 0.33431 0.79464 0.59997 0.0
H2180 H 0.70081 0.80793 0.58526 0.0
H2181 H 0.72855 0.86182 0.6106 0.0
H2182 H 0.73096 0.80861 0.57162 0.0
H2183 H 0.7589 0.86258 0.59674 0.0
H2184 H 0.79756 0.86262 0.54852 0.0
H2185 H 0.77007 0.86448 0.56526 0.0
H2186 H 0.76531 0.80678 0.58224 0.0
H2187 H 0.79295 0.80505 0.56609 0.0
C2188 C 0.71337 0.81996 0.58784 0.0
C2189 C 0.71237 0.83484 0.59894 0.0
C2190 C 0.73064 0.82029 0.58014 0.0
C2191 C 0.74725 0.83562 0.58319 0.0
C2192 C 0.74626 0.85064 0.59416 0.0
C2193 C 0.729 0.85014 0.60213 0.0
C2194 C 0.79093 0.85049 0.55609 0.0
C2195 C 0.79725 0.83353 0.55565 0.0
C2196 C 0.77517 0.85156 0.56565 0.0
C2197 C 0.76542 0.83566 0.57481 0.0
C2198 C 0.77235 0.81912 0.57503 0.0
C2199 C 0.78813 0.81811 0.56568 0.0
H2200 H 0.78468 0.78399 0.38811 0.0
H2201 H 0.72497 0.77715 0.40106 0.0
H2202 H 0.79418 0.78194 0.41766 0.0
H2203 H 0.73476 0.77576 0.43078 0.0
H2204 H 0.77069 0.80759 0.47924 0.0
H2205 H 0.75584 0.80097 0.45084 0.0
H2206 H 0.78959 0.76007 0.44278 0.0
H2207 H 0.80447 0.76664 0.47124 0.0
C2208 C 0.77348 0.78166 0.39718 0.0
C2209 C 0.75405 0.78086 0.39214 0.0
C2210 C 0.77896 0.7805 0.41415 0.0
C2211 C 0.76521 0.77871 0.42651 0.0
C2212 C 0.74568 0.7773 0.42151 0.0
C2213 C 0.74013 0.77823 0.40449 0.0
C2214 C 0.77462 0.79687 0.47155 0.0
C2215 C 0.78886 0.78777 0.47742 0.0
C2216 C 0.76604 0.79301 0.45531 0.0
C2217 C 0.7717 0.78013 0.44457 0.0
C2218 C 0.78511 0.7702 0.45076 0.0
C2219 C 0.79351 0.77388 0.46709 0.0
H2220 H 0.77904 0.18638 0.39433 0.0
H2221 H 0.72462 0.16614 0.41831 0.0
H2222 H 0.79607 0.19467 0.42208 0.0
H2223 H 0.74162 0.17399 0.44595 0.0
H2224 H 0.7836 0.17118 0.49211 0.0
H2225 H 0.76827 0.16228 0.46393 0.0
H2226 H 0.79487 0.21923 0.44676 0.0
H2227 H 0.80991 0.22823 0.47503 0.0
C2228 C 0.77076 0.18363 0.40553 0.0
C2229 C 0.75049 0.17572 0.40414 0.0
C2230 C 0.78047 0.18842 0.42138 0.0
C2231 C 0.77019 0.18494 0.43621 0.0
C2232 C 0.74997 0.17673 0.43479 0.0
C2233 C 0.74022 0.17236 0.41896 0.0
C2234 C 0.78634 0.18172 0.48228 0.0
C2235 C 0.79797 0.20041 0.48581 0.0
C2236 C 0.77745 0.17667 0.46618 0.0
C2237 C 0.78034 0.19006 0.45312 0.0
C2238 C 0.79245 0.20857 0.45652 0.0
C2239 C 0.80097 0.21375 0.47271 0.0
H2240 H 0.43671 0.21081 0.42505 0.0
H2241 H 0.38871 0.17609 0.4513 0.0
H2242 H 0.43126 0.23995 0.43804 0.0
H2243 H 0.38315 0.205 0.46397 0.0
H2244 H 0.36399 0.26046 0.46484 0.0
H2245 H 0.3725 0.23445 0.44998 0.0
H2246 H 0.43161 0.2537 0.47057 0.0
H2247 H 0.42296 0.27959 0.48609 0.0
C2248 C 0.42504 0.20945 0.43358 0.0
C2249 C 0.41315 0.19124 0.43723 0.0
C2250 C 0.422 0.22604 0.44103 0.0
C2251 C 0.40675 0.22465 0.45192 0.0
C2252 C 0.39493 0.20644 0.45554 0.0
C2253 C 0.39818 0.18992 0.44838 0.0
C2254 C 0.37881 0.25921 0.46628 0.0
C2255 C 0.39266 0.27186 0.47702 0.0
C2256 C 0.38368 0.24437 0.45767 0.0
C2257 C 0.40261 0.24196 0.45934 0.0
C2258 C 0.4169 0.2553 0.46911 0.0
C2259 C 0.41195 0.27012 0.47794 0.0
H2260 H 0.36684 0.80581 0.43191 0.0
H2261 H 0.31071 0.81332 0.41508 0.0
H2262 H 0.35519 0.79862 0.46007 0.0
H2263 H 0.29895 0.80593 0.44347 0.0
H2264 H 0.33732 0.81083 0.51172 0.0
H2265 H 0.34491 0.8191 0.4828 0.0
H2266 H 0.29301 0.77682 0.46492 0.0
H2267 H 0.28532 0.76827 0.49409 0.0
C2268 C 0.35191 0.80566 0.43416 0.0
C2269 C 0.33969 0.81007 0.4212 0.0
C2270 C 0.34529 0.80172 0.45035 0.0
C2271 C 0.32619 0.80185 0.45403 0.0
C2272 C 0.31373 0.80571 0.441 0.0
C2273 C 0.32048 0.81 0.4248 0.0
C2274 C 0.32726 0.80345 0.50171 0.0
C2275 C 0.3108 0.78868 0.50533 0.0
C2276 C 0.33172 0.80814 0.4851 0.0
C2277 C 0.31977 0.79837 0.47157 0.0
C2278 C 0.30253 0.78456 0.4751 0.0
C2279 C 0.29811 0.77971 0.49182 0.0
H2280 H 0.66541 0.19009 0.71277 0.0
H2281 H 0.62705 0.135 0.72331 0.0
H2282 H 0.64729 0.20574 0.73131 0.0
H2283 H 0.60864 0.1504 0.74116 0.0
H2284 H 0.58377 0.1796 0.7805 0.0
H2285 H 0.6074 0.16667 0.76647 0.0
H2286 H 0.6163 0.21341 0.73147 0.0
H2287 H 0.59292 0.22659 0.74592 0.0
C2288 C 0.65335 0.1813 0.71928 0.0
C2289 C 0.64763 0.16131 0.7165 0.0
C2290 C 0.64277 0.19027 0.72973 0.0
C2291 C 0.62631 0.17942 0.73772 0.0
C2292 C 0.62128 0.15933 0.73548 0.0
C2293 C 0.63179 0.15044 0.7251 0.0
C2294 C 0.59081 0.18715 0.76984 0.0
C2295 C 0.58624 0.20402 0.76423 0.0
C2296 C 0.60439 0.17972 0.76174 0.0
C2297 C 0.61369 0.18877 0.74761 0.0
C2298 C 0.60965 0.20608 0.74238 0.0
C2299 C 0.59616 0.21364 0.75063 0.0
H2300 H 0.37462 0.16351 0.71719 0.0
H2301 H 0.32878 0.1874 0.73396 0.0
H2302 H 0.35925 0.13301 0.72989 0.0
H2303 H 0.3133 0.15677 0.74648 0.0
H2304 H 0.28121 0.09279 0.75042 0.0
H2305 H 0.29648 0.12322 0.73735 0.0
H2306 H 0.35266 0.11992 0.75831 0.0
H2307 H 0.33751 0.08937 0.77097 0.0
C2308 C 0.36137 0.16232 0.72373 0.0
C2309 C 0.35295 0.1779 0.72459 0.0
C2310 C 0.35255 0.14483 0.73096 0.0
C2311 C 0.33506 0.14251 0.73914 0.0
C2312 C 0.32662 0.15807 0.74003 0.0
C2313 C 0.3355 0.1756 0.73287 0.0
C2314 C 0.29683 0.0985 0.75209 0.0
C2315 C 0.30814 0.08872 0.76176 0.0
C2316 C 0.30554 0.116 0.74477 0.0
C2317 C 0.32575 0.12395 0.74685 0.0
C2318 C 0.33707 0.11407 0.75638 0.0
C2319 C 0.32836 0.09668 0.76378 0.0
H2320 H 0.40548 0.84558 0.74806 0.0
H2321 H 0.43689 0.85183 0.70242 0.0
H2322 H 0.43294 0.83771 0.76327 0.0
H2323 H 0.46408 0.84345 0.71759 0.0
H2324 H 0.49697 0.80428 0.74591 0.0
H2325 H 0.47057 0.8144 0.73098 0.0
H2326 H 0.46768 0.85156 0.77294 0.0
H2327 H 0.49396 0.84125 0.78796 0.0
C2328 C 0.41831 0.84559 0.74128 0.0
C2329 C 0.41882 0.84933 0.72392 0.0
C2330 C 0.43406 0.84097 0.75002 0.0
C2331 C 0.45068 0.83979 0.74164 0.0
C2332 C 0.45138 0.8439 0.72439 0.0
C2333 C 0.43573 0.8487 0.71568 0.0
C2334 C 0.49066 0.81454 0.75199 0.0
C2335 C 0.49761 0.82192 0.76816 0.0
C2336 C 0.47564 0.8205 0.74336 0.0
C2337 C 0.467 0.83383 0.75074 0.0
C2338 C 0.47391 0.84119 0.76693 0.0
C2339 C 0.4891 0.8354 0.77548 0.0
H2340 H 0.70691 0.85231 0.70811 0.0
H2341 H 0.6945 0.89026 0.6697 0.0
H2342 H 0.7209 0.87986 0.72676 0.0
H2343 H 0.70895 0.91791 0.6883 0.0
H2344 H 0.75169 0.96268 0.72437 0.0
H2345 H 0.74085 0.93595 0.7041 0.0
H2346 H 0.70476 0.90292 0.74121 0.0
H2347 H 0.71568 0.92959 0.76146 0.0
C2348 C 0.7074 0.86656 0.70357 0.0
C2349 C 0.69934 0.86909 0.68752 0.0
C2350 C 0.71536 0.88231 0.71426 0.0
C2351 C 0.71567 0.90096 0.70907 0.0
C2352 C 0.70887 0.90366 0.69261 0.0
C2353 C 0.70071 0.88785 0.68193 0.0
C2354 C 0.74148 0.94968 0.72817 0.0
C2355 C 0.73455 0.94817 0.7445 0.0
C2356 C 0.73521 0.93446 0.71655 0.0
C2357 C 0.72212 0.91734 0.72114 0.0
C2358 C 0.71506 0.91589 0.73742 0.0
C2359 C 0.72113 0.9312 0.74894 0.0
H2360 H 0.66327 0.7745 0.34076 0.0
H2361 H 0.65482 0.82887 0.35735 0.0
H2362 H 0.62813 0.76099 0.33881 0.0
H2363 H 0.61958 0.8154 0.35483 0.0
H2364 H 0.5628 0.79042 0.31976 0.0
H2365 H 0.59691 0.80437 0.32861 0.0
H2366 H 0.59787 0.75305 0.35605 0.0
H2367 H 0.56379 0.7391 0.34731 0.0
C2368 C 0.65397 0.78345 0.34437 0.0
C2369 C 0.66187 0.80283 0.34905 0.0
C2370 C 0.63383 0.77571 0.34319 0.0
C2371 C 0.62119 0.78723 0.34652 0.0
C2372 C 0.62904 0.80631 0.35197 0.0
C2373 C 0.64919 0.814 0.35336 0.0
C2374 C 0.5702 0.78224 0.32788 0.0
C2375 C 0.56066 0.76362 0.33272 0.0
C2376 C 0.58968 0.79026 0.33302 0.0
C2377 C 0.59999 0.77972 0.34295 0.0
C2378 C 0.59026 0.7614 0.34829 0.0
C2379 C 0.57074 0.75347 0.34332 0.0
H2380 H 0.77001 0.14808 0.35212 0.0
H2381 H 0.70855 0.12031 0.34626 0.0
H2382 H 0.77716 0.12209 0.33577 0.0
H2383 H 0.71562 0.09441 0.33018 0.0
H2384 H 0.73119 0.06229 0.28678 0.0
H2385 H 0.72614 0.08835 0.30356 0.0
H2386 H 0.77723 0.08812 0.33509 0.0
H2387 H 0.78269 0.06184 0.31767 0.0
C2388 C 0.75801 0.13643 0.34738 0.0
C2389 C 0.73865 0.13652 0.35038 0.0
C2390 C 0.76213 0.12144 0.33806 0.0
C2391 C 0.74701 0.10608 0.33148 0.0
C2392 C 0.7277 0.10613 0.33465 0.0
C2393 C 0.72359 0.1211 0.34388 0.0
C2394 C 0.74144 0.06763 0.29729 0.0
C2395 C 0.75731 0.05971 0.30088 0.0
C2396 C 0.73842 0.08264 0.30705 0.0
C2397 C 0.75105 0.09032 0.32092 0.0
C2398 C 0.76719 0.08266 0.32447 0.0
C2399 C 0.77029 0.06751 0.31456 0.0
H2400 H 0.46699 0.16979 0.36149 0.0
H2401 H 0.42071 0.18278 0.33048 0.0
H2402 H 0.49035 0.18384 0.34049 0.0
H2403 H 0.44386 0.19653 0.30942 0.0
H2404 H 0.49397 0.2325 0.28063 0.0
H2405 H 0.47246 0.22269 0.30371 0.0
H2406 H 0.4954 0.17326 0.31152 0.0
H2407 H 0.51732 0.18341 0.28868 0.0
C2408 C 0.46195 0.17612 0.35039 0.0
C2409 C 0.44211 0.17523 0.34754 0.0
C2410 C 0.47522 0.18389 0.33828 0.0
C2411 C 0.46887 0.19102 0.32321 0.0
C2412 C 0.44921 0.19121 0.32091 0.0
C2413 C 0.43596 0.18334 0.33294 0.0
C2414 C 0.49446 0.21958 0.28733 0.0
C2415 C 0.50735 0.20873 0.28287 0.0
C2416 C 0.48209 0.21393 0.30048 0.0
C2417 C 0.48237 0.19731 0.30952 0.0
C2418 C 0.4951 0.18632 0.30496 0.0
C2419 C 0.50742 0.19194 0.29171 0.0
H2420 H 0.30648 0.87709 0.35946 0.0
H2421 H 0.35799 0.90987 0.33641 0.0
H2422 H 0.28646 0.89334 0.34176 0.0
H2423 H 0.33825 0.92599 0.31899 0.0
H2424 H 0.30403 0.96919 0.30774 0.0
H2425 H 0.32035 0.95014 0.32547 0.0
H2426 H 0.27536 0.89897 0.31148 0.0
H2427 H 0.25879 0.91816 0.2936 0.0
C2428 C 0.31347 0.88746 0.35041 0.0
C2429 C 0.33386 0.89239 0.34953 0.0
C2430 C 0.30203 0.89683 0.34033 0.0
C2431 C 0.31081 0.91132 0.32924 0.0
C2432 C 0.33105 0.91532 0.32772 0.0
C2433 C 0.34237 0.90599 0.33766 0.0
C2434 C 0.29741 0.95392 0.30852 0.0
C2435 C 0.28012 0.94524 0.29906 0.0
C2436 C 0.30688 0.94295 0.31863 0.0
C2437 C 0.29938 0.92294 0.31967 0.0
C2438 C 0.28155 0.91433 0.31094 0.0
C2439 C 0.27206 0.92535 0.3007 0.0
H2440 H 0.75125 0.10923 0.67938 0.0
H2441 H 0.7398 0.13541 0.7253 0.0
H2442 H 0.76361 0.08574 0.69582 0.0
H2443 H 0.75251 0.11247 0.74168 0.0
H2444 H 0.74638 0.0541 0.76401 0.0
H2445 H 0.73991 0.07947 0.74703 0.0
H2446 H 0.7878 0.07761 0.71633 0.0
H2447 H 0.79422 0.05127 0.73355 0.0
C2448 C 0.75178 0.11025 0.69299 0.0
C2449 C 0.74427 0.12408 0.70101 0.0
C2450 C 0.75891 0.09678 0.70243 0.0
C2451 C 0.75877 0.09687 0.72014 0.0
C2452 C 0.75238 0.11151 0.72808 0.0
C2453 C 0.74514 0.12478 0.71869 0.0
C2454 C 0.75573 0.05898 0.75372 0.0
C2455 C 0.77092 0.05048 0.75028 0.0
C2456 C 0.75207 0.07382 0.74399 0.0
C2457 C 0.76346 0.08097 0.73037 0.0
C2458 C 0.77869 0.0725 0.72672 0.0
C2459 C 0.78245 0.05746 0.73663 0.0
H2460 H 0.69708 0.87001 0.34679 0.0
H2461 H 0.73355 0.85036 0.31267 0.0
H2462 H 0.70413 0.90108 0.33322 0.0
H2463 H 0.74059 0.88153 0.29898 0.0
H2464 H 0.76298 0.94637 0.29009 0.0
H2465 H 0.75712 0.91547 0.30385 0.0
H2466 H 0.69623 0.91405 0.30627 0.0
H2467 H 0.70227 0.94536 0.29305 0.0
C2468 C 0.70661 0.87236 0.33636 0.0
C2469 C 0.71466 0.85773 0.3307 0.0
C2470 C 0.71058 0.89012 0.32855 0.0
C2471 C 0.72271 0.89368 0.3149 0.0
C2472 C 0.73127 0.87925 0.30955 0.0
C2473 C 0.72729 0.86143 0.31739 0.0
C2474 C 0.74837 0.93957 0.29369 0.0
C2475 C 0.73311 0.94844 0.29063 0.0
C2476 C 0.74498 0.92174 0.3014 0.0
C2477 C 0.72624 0.91236 0.30623 0.0
C2478 C 0.7109 0.92106 0.30291 0.0
C2479 C 0.7143 0.93889 0.29517 0.0
H2480 H 0.66492 0.1859 0.31833 0.0
H2481 H 0.65917 0.22562 0.35716 0.0
H2482 H 0.64836 0.20234 0.29793 0.0
H2483 H 0.64329 0.24261 0.33681 0.0
H2484 H 0.59253 0.25157 0.3016 0.0
H2485 H 0.61339 0.23962 0.32191 0.0
H2486 H 0.6479 0.22891 0.28152 0.0
H2487 H 0.62664 0.24009 0.26138 0.0
C2488 C 0.66068 0.19854 0.32237 0.0
C2489 C 0.66342 0.20447 0.33933 0.0
C2490 C 0.6511 0.20803 0.31068 0.0
C2491 C 0.64415 0.22385 0.31562 0.0
C2492 C 0.6479 0.2303 0.33248 0.0
C2493 C 0.65727 0.22071 0.34414 0.0
C2494 C 0.60481 0.24702 0.29716 0.0
C2495 C 0.60784 0.24675 0.27985 0.0
C2496 C 0.61685 0.24011 0.3088 0.0
C2497 C 0.63236 0.23293 0.30347 0.0
C2498 C 0.6359 0.23373 0.28621 0.0
C2499 C 0.62378 0.24039 0.27462 0.0
H2500 H 0.39499 0.09667 0.36442 0.0
H2501 H 0.37343 0.13772 0.33509 0.0
H2502 H 0.37664 0.07076 0.34543 0.0
H2503 H 0.35472 0.11196 0.31638 0.0
H2504 H 0.34856 0.06884 0.27375 0.0
H2505 H 0.36415 0.09281 0.29504 0.0
H2506 H 0.34502 0.05177 0.33405 0.0
H2507 H 0.33011 0.02741 0.31263 0.0
C2508 C 0.38582 0.10001 0.35421 0.0
C2509 C 0.38566 0.11912 0.3511 0.0
C2510 C 0.37537 0.08523 0.34331 0.0
C2511 C 0.36455 0.08937 0.32917 0.0
C2512 C 0.36334 0.10836 0.32686 0.0
C2513 C 0.37386 0.12307 0.33765 0.0
C2514 C 0.34789 0.06477 0.28682 0.0
C2515 C 0.33798 0.04616 0.29142 0.0
C2516 C 0.35658 0.07864 0.29907 0.0
C2517 C 0.35555 0.07431 0.31628 0.0
C2518 C 0.34606 0.05558 0.32091 0.0
C2519 C 0.33737 0.04167 0.30862 0.0
H2520 H 0.37466 0.80536 0.34872 0.0
H2521 H 0.39535 0.79629 0.39914 0.0
H2522 H 0.39793 0.78959 0.33731 0.0
H2523 H 0.4187 0.78076 0.38781 0.0
H2524 H 0.44599 0.73768 0.36307 0.0
H2525 H 0.42203 0.75269 0.37392 0.0
H2526 H 0.43169 0.79322 0.33344 0.0
H2527 H 0.45498 0.77763 0.32212 0.0
C2528 C 0.38422 0.80008 0.35739 0.0
C2529 C 0.38295 0.80202 0.37488 0.0
C2530 C 0.39765 0.79107 0.35084 0.0
C2531 C 0.41031 0.7838 0.36158 0.0
C2532 C 0.40902 0.78578 0.37908 0.0
C2533 C 0.39555 0.79472 0.38561 0.0
C2534 C 0.44294 0.74966 0.35634 0.0
C2535 C 0.4526 0.75632 0.34164 0.0
C2536 C 0.42927 0.75847 0.36271 0.0
C2537 C 0.42482 0.77428 0.35464 0.0
C2538 C 0.43448 0.78096 0.33995 0.0
C2539 C 0.44812 0.77212 0.33355 0.0
H2540 H 0.33806 0.90171 0.77195 0.0
H2541 H 0.3642 0.93173 0.72875 0.0
H2542 H 0.33604 0.93192 0.78458 0.0
H2543 H 0.3627 0.96227 0.74158 0.0
H2544 H 0.32309 1.00205 0.75524 0.0
H2545 H 0.33614 0.97623 0.74545 0.0
H2546 H 0.34981 0.96344 0.7969 0.0
H2547 H 0.33629 0.98946 0.80674 0.0
C2548 C 0.34391 0.91489 0.76536 0.0
C2549 C 0.35111 0.91425 0.74924 0.0
C2550 C 0.34285 0.93231 0.77267 0.0
C2551 C 0.34892 0.94967 0.76407 0.0
C2552 C 0.35753 0.94919 0.74849 0.0
C2553 C 0.35864 0.9317 0.74119 0.0
C2554 C 0.32927 0.99403 0.76451 0.0
C2555 C 0.32856 0.99783 0.7818 0.0
C2556 C 0.33692 0.97921 0.75886 0.0
C2557 C 0.34401 0.96752 0.77031 0.0
C2558 C 0.3443 0.97198 0.78766 0.0
C2559 C 0.33675 0.98704 0.79334 0.0
H2560 H 0.66826 0.80019 0.70262 0.0
H2561 H 0.6217 0.81501 0.67346 0.0
H2562 H 0.64536 0.78506 0.72345 0.0
H2563 H 0.59871 0.80024 0.69451 0.0
H2564 H 0.56117 0.76896 0.73622 0.0
H2565 H 0.58168 0.77199 0.71188 0.0
H2566 H 0.63111 0.80354 0.74303 0.0
H2567 H 0.6109 0.80054 0.76701 0.0
C2568 C 0.65297 0.79963 0.70044 0.0
C2569 C 0.6467 0.80886 0.68659 0.0
C2570 C 0.63989 0.7911 0.71238 0.0
C2571 C 0.62034 0.79185 0.71079 0.0
C2572 C 0.61368 0.79939 0.69605 0.0
C2573 C 0.6268 0.80784 0.684 0.0
C2574 C 0.57649 0.77627 0.73783 0.0
C2575 C 0.58442 0.78463 0.75347 0.0
C2576 C 0.58818 0.77805 0.72393 0.0
C2577 C 0.60803 0.78788 0.72556 0.0
C2578 C 0.61598 0.79558 0.74138 0.0
C2579 C 0.60432 0.79404 0.75512 0.0
H2580 H 0.41867 0.20058 0.70682 0.0
H2581 H 0.41253 0.25797 0.71489 0.0
H2582 H 0.45344 0.21176 0.71349 0.0
H2583 H 0.44765 0.26945 0.72087 0.0
H2584 H 0.50046 0.27046 0.75876 0.0
H2585 H 0.4687 0.26587 0.74438 0.0
H2586 H 0.48488 0.23048 0.70654 0.0
H2587 H 0.51658 0.23458 0.7213 0.0
C2588 C 0.42483 0.21568 0.70977 0.0
C2589 C 0.41279 0.22831 0.71064 0.0
C2590 C 0.44486 0.22218 0.71336 0.0
C2591 C 0.4534 0.24153 0.71784 0.0
C2592 C 0.44152 0.25441 0.7177 0.0
C2593 C 0.42141 0.24787 0.71413 0.0
C2594 C 0.49746 0.26205 0.74716 0.0
C2595 C 0.51094 0.25256 0.74138 0.0
C2596 C 0.47921 0.2595 0.73883 0.0
C2597 C 0.47406 0.24751 0.72445 0.0
C2598 C 0.48821 0.23943 0.71782 0.0
C2599 C 0.50644 0.24189 0.72622 0.0
H2600 H 0.69322 0.66811 0.14642 0.0
H2601 H 0.74499 0.67362 0.17872 0.0
H2602 H 0.71331 0.67988 0.12288 0.0
H2603 H 0.76515 0.68544 0.15511 0.0
H2604 H 0.79536 0.68753 0.10506 0.0
H2605 H 0.77544 0.6759 0.12879 0.0
H2606 H 0.73461 0.70779 0.11178 0.0
H2607 H 0.75407 0.7188 0.08775 0.0
C2608 C 0.7089 0.67208 0.14861 0.0
C2609 C 0.71738 0.66995 0.16462 0.0
C2610 C 0.72048 0.67884 0.13502 0.0
C2611 C 0.74097 0.6837 0.13696 0.0
C2612 C 0.74947 0.6816 0.15298 0.0
C2613 C 0.73787 0.67483 0.16658 0.0
C2614 C 0.78206 0.69196 0.10625 0.0
C2615 C 0.77646 0.70417 0.09432 0.0
C2616 C 0.7707 0.68544 0.12004 0.0
C2617 C 0.75331 0.69085 0.12234 0.0
C2618 C 0.74773 0.70307 0.11042 0.0
C2619 C 0.75909 0.70961 0.09666 0.0
H2620 H 0.3278 0.7513 0.11785 0.0
H2621 H 0.37629 0.72564 0.11587 0.0
H2622 H 0.34092 0.77274 0.0953 0.0
H2623 H 0.39009 0.74792 0.09429 0.0
H2624 H 0.40123 0.77765 0.04476 0.0
H2625 H 0.38667 0.75528 0.06606 0.0
H2626 H 0.36632 0.80011 0.08977 0.0
H2627 H 0.38021 0.82214 0.06768 0.0
C2628 C 0.34122 0.75016 0.11259 0.0
C2629 C 0.35101 0.73675 0.11878 0.0
C2630 C 0.34891 0.76268 0.09981 0.0
C2631 C 0.36664 0.76219 0.09298 0.0
C2632 C 0.37628 0.74861 0.09905 0.0
C2633 C 0.3685 0.73599 0.11166 0.0
C2634 C 0.39345 0.7826 0.05436 0.0
C2635 C 0.39136 0.80138 0.05428 0.0
C2636 C 0.3853 0.76987 0.06678 0.0
C2637 C 0.37518 0.77579 0.07967 0.0
C2638 C 0.37362 0.79488 0.07986 0.0
C2639 C 0.38173 0.80757 0.06733 0.0
H2640 H 0.35133 0.32138 0.17943 0.0
H2641 H 0.40625 0.3224 0.15799 0.0
H2642 H 0.3343 0.30885 0.15322 0.0
H2643 H 0.38895 0.30773 0.13229 0.0
H2644 H 0.35482 0.29207 0.08246 0.0
H2645 H 0.3719 0.30931 0.10751 0.0
H2646 H 0.32303 0.28224 0.13692 0.0
H2647 H 0.3057 0.26626 0.11174 0.0
C2648 C 0.35993 0.31907 0.16917 0.0
C2649 C 0.38041 0.32316 0.17114 0.0
C2650 C 0.34998 0.31134 0.15405 0.0
C2651 C 0.36 0.30685 0.14039 0.0
C2652 C 0.3805 0.31108 0.14227 0.0
C2653 C 0.39051 0.31925 0.15729 0.0
C2654 C 0.34765 0.2901 0.09427 0.0
C2655 C 0.32879 0.2779 0.09501 0.0
C2656 C 0.35756 0.29983 0.10877 0.0
C2657 C 0.34908 0.29732 0.12456 0.0
C2658 C 0.33009 0.28514 0.12514 0.0
C2659 C 0.32006 0.27579 0.11059 0.0
H2660 H 0.78999 0.36886 0.11568 0.0
H2661 H 0.77548 0.39569 0.07007 0.0
H2662 H 0.82296 0.37328 0.10703 0.0
H2663 H 0.80786 0.39822 0.0606 0.0
H2664 H 0.86854 0.40553 0.04635 0.0
H2665 H 0.84142 0.41097 0.06159 0.0
H2666 H 0.83804 0.35828 0.0885 0.0
H2667 H 0.8658 0.35382 0.07427 0.0
C2668 C 0.79378 0.37587 0.10386 0.0
C2669 C 0.77978 0.38164 0.09351 0.0
C2670 C 0.81274 0.37812 0.09874 0.0
C2671 C 0.81815 0.38576 0.08291 0.0
C2672 C 0.80443 0.39238 0.07292 0.0
C2673 C 0.7856 0.39053 0.07822 0.0
C2674 C 0.86238 0.39551 0.05593 0.0
C2675 C 0.86906 0.37903 0.05884 0.0
C2676 C 0.8466 0.39844 0.06451 0.0
C2677 C 0.83711 0.38487 0.07608 0.0
C2678 C 0.84486 0.36919 0.07983 0.0
C2679 C 0.86071 0.36644 0.07146 0.0
H2680 H 0.78643 0.28799 0.91029 0.0
H2681 H 0.75811 0.32857 0.93119 0.0
H2682 H 0.81185 0.29625 0.93273 0.0
H2683 H 0.78388 0.33712 0.95341 0.0
H2684 H 0.84712 0.36264 0.97593 0.0
H2685 H 0.81994 0.35354 0.95497 0.0
H2686 H 0.81574 0.29364 0.96411 0.0
H2687 H 0.84288 0.30263 0.98498 0.0
C2688 C 0.78547 0.29848 0.91978 0.0
C2689 C 0.77023 0.30763 0.91892 0.0
C2690 C 0.80008 0.30325 0.9326 0.0
C2691 C 0.79985 0.31736 0.94475 0.0
C2692 C 0.78453 0.32637 0.94405 0.0
C2693 C 0.76982 0.32149 0.93131 0.0
C2694 C 0.84036 0.34753 0.97349 0.0
C2695 C 0.84718 0.33336 0.98206 0.0
C2696 C 0.82474 0.34234 0.96158 0.0
C2697 C 0.81579 0.32289 0.95792 0.0
C2698 C 0.8225 0.30873 0.96658 0.0
C2699 C 0.83798 0.31391 0.97858 0.0
H2700 H 0.76631 0.69256 0.91632 0.0
H2701 H 0.70678 0.67303 0.93059 0.0
H2702 H 0.7756 0.70803 0.94411 0.0
H2703 H 0.71598 0.68856 0.95814 0.0
H2704 H 0.74685 0.69503 1.01177 0.0
H2705 H 0.73539 0.68311 0.98339 0.0
H2706 H 0.77088 0.735 0.96286 0.0
H2707 H 0.78228 0.74704 0.99151 0.0
C2708 C 0.75521 0.69158 0.92536 0.0
C2709 C 0.73579 0.68154 0.92115 0.0
C2710 C 0.76048 0.70063 0.94123 0.0
C2711 C 0.74653 0.69963 0.9534 0.0
C2712 C 0.72714 0.6896 0.94915 0.0
C2713 C 0.72184 0.68078 0.93327 0.0
C2714 C 0.75181 0.70415 1.00123 0.0
C2715 C 0.76528 0.7221 1.00394 0.0
C2716 C 0.74527 0.69728 0.98492 0.0
C2717 C 0.75228 0.708 0.97076 0.0
C2718 C 0.7653 0.72628 0.97346 0.0
C2719 C 0.7716 0.73333 0.98988 0.0
H2720 H 0.3843 0.63229 0.95036 0.0
H2721 H 0.41279 0.67329 0.91407 0.0
H2722 H 0.38503 0.65866 0.96994 0.0
H2723 H 0.41223 0.69948 0.93335 0.0
H2724 H 0.38319 0.73778 0.96681 0.0
H2725 H 0.38232 0.71082 0.94761 0.0
H2726 H 0.41529 0.6871 0.98481 0.0
H2727 H 0.41653 0.71436 1.00388 0.0
C2728 C 0.39078 0.64682 0.94652 0.0
C2729 C 0.39849 0.65053 0.93053 0.0
C2730 C 0.39104 0.6619 0.95773 0.0
C2731 C 0.39861 0.681 0.95306 0.0
C2732 C 0.40613 0.68482 0.93712 0.0
C2733 C 0.40628 0.66977 0.92605 0.0
C2734 C 0.39012 0.72673 0.97088 0.0
C2735 C 0.39992 0.72806 0.98678 0.0
C2736 C 0.38972 0.71142 0.95991 0.0
C2737 C 0.39874 0.69698 0.9648 0.0
C2738 C 0.40819 0.69808 0.98082 0.0
C2739 C 0.40897 0.71363 0.99165 0.0
H2740 H 0.39337 0.32411 0.93455 0.0
H2741 H 0.37409 0.26896 0.90906 0.0
H2742 H 0.38594 0.30872 0.96145 0.0
H2743 H 0.36711 0.25341 0.93617 0.0
H2744 H 0.33865 0.23607 0.98737 0.0
H2745 H 0.34517 0.25013 0.95972 0.0
H2746 H 0.39863 0.28805 0.98038 0.0
H2747 H 0.39191 0.27457 1.00798 0.0
C2748 C 0.38736 0.3087 0.93463 0.0
C2749 C 0.38426 0.29783 0.91954 0.0
C2750 C 0.38335 0.29981 0.95014 0.0
C2751 C 0.37606 0.27976 0.95107 0.0
C2752 C 0.37262 0.26888 0.93596 0.0
C2753 C 0.37676 0.27778 0.92041 0.0
C2754 C 0.35182 0.24739 0.98607 0.0
C2755 C 0.36466 0.25413 1.00013 0.0
C2756 C 0.35563 0.25537 0.97012 0.0
C2757 C 0.37236 0.27039 0.96778 0.0
C2758 C 0.38544 0.27674 0.98172 0.0
C2759 C 0.38168 0.26875 0.9976 0.0
H2760 H 0.59083 0.64594 0.21694 0.0
H2761 H 0.6364 0.6967 0.23045 0.0
H2762 H 0.56999 0.6549 0.23716 0.0
H2763 H 0.61559 0.70572 0.2511 0.0
H2764 H 0.56209 0.72754 0.26619 0.0
H2765 H 0.58651 0.71766 0.25045 0.0
H2766 H 0.56367 0.6592 0.26594 0.0
H2767 H 0.53923 0.66906 0.28164 0.0
C2768 C 0.59657 0.6588 0.2246 0.0
C2769 C 0.6153 0.67057 0.22212 0.0
C2770 C 0.58461 0.66397 0.23626 0.0
C2771 C 0.59094 0.68116 0.24578 0.0
C2772 C 0.61007 0.69251 0.24386 0.0
C2773 C 0.62214 0.68723 0.23221 0.0
C2774 C 0.56238 0.71262 0.26648 0.0
C2775 C 0.5484 0.69912 0.27515 0.0
C2776 C 0.57651 0.70694 0.25744 0.0
C2777 C 0.57712 0.68757 0.25678 0.0
C2778 C 0.56351 0.67418 0.26586 0.0
C2779 C 0.5494 0.67985 0.27488 0.0
H2780 H 0.36202 0.64658 0.18331 0.0
H2781 H 0.37375 0.68245 0.22815 0.0
H2782 H 0.35835 0.61799 0.20074 0.0
H2783 H 0.36982 0.65416 0.2455 0.0
H2784 H 0.38456 0.60376 0.27088 0.0
H2785 H 0.38766 0.6307 0.25203 0.0
H2786 H 0.33821 0.59834 0.22134 0.0
H2787 H 0.33565 0.57103 0.23979 0.0
C2788 C 0.36352 0.64829 0.19688 0.0
C2789 C 0.3684 0.66668 0.20439 0.0
C2790 C 0.36145 0.63197 0.20686 0.0
C2791 C 0.36414 0.63382 0.22452 0.0
C2792 C 0.3682 0.65223 0.23195 0.0
C2793 C 0.37034 0.66843 0.22202 0.0
C2794 C 0.37451 0.60224 0.26001 0.0
C2795 C 0.35975 0.58522 0.25699 0.0
C2796 C 0.37613 0.6178 0.24928 0.0
C2797 C 0.36301 0.61678 0.23528 0.0
C2798 C 0.34858 0.5996 0.23198 0.0
C2799 C 0.34698 0.58401 0.2427 0.0
H2800 H 0.45045 0.33166 0.19294 0.0
H2801 H 0.42322 0.31493 0.23974 0.0
H2802 H 0.47857 0.32016 0.20292 0.0
H2803 H 0.45122 0.30352 0.24967 0.0
H2804 H 0.49113 0.26093 0.24857 0.0
H2805 H 0.4649 0.27621 0.24168 0.0
H2806 H 0.50694 0.32647 0.22525 0.0
H2807 H 0.53338 0.31107 0.23251 0.0
C2808 C 0.45047 0.32558 0.20537 0.0
C2809 C 0.43451 0.32426 0.21551 0.0
C2810 C 0.46668 0.31917 0.21116 0.0
C2811 C 0.46725 0.31094 0.22715 0.0
C2812 C 0.45132 0.30971 0.23729 0.0
C2813 C 0.43528 0.31637 0.23161 0.0
C2814 C 0.49482 0.27547 0.24395 0.0
C2815 C 0.51434 0.28493 0.24138 0.0
C2816 C 0.47977 0.28423 0.23994 0.0
C2817 C 0.48372 0.30258 0.23283 0.0
C2818 C 0.50335 0.31229 0.23062 0.0
C2819 C 0.51853 0.30362 0.23498 0.0
H2820 H 0.74504 0.42366 0.16219 0.0
H2821 H 0.75116 0.38037 0.19787 0.0
H2822 H 0.75989 0.44876 0.18309 0.0
H2823 H 0.76571 0.40546 0.21887 0.0
H2824 H 0.756 0.48092 0.23348 0.0
H2825 H 0.74769 0.45828 0.20982 0.0
H2826 H 0.79463 0.43347 0.22579 0.0
H2827 H 0.803 0.45622 0.24963 0.0
C2828 C 0.74985 0.41953 0.17441 0.0
C2829 C 0.74685 0.40006 0.17845 0.0
C2830 C 0.75821 0.43388 0.1864 0.0
C2831 C 0.76388 0.42906 0.20263 0.0
C2832 C 0.76164 0.40962 0.20643 0.0
C2833 C 0.75314 0.39526 0.19448 0.0
C2834 C 0.76473 0.47082 0.23184 0.0
C2835 C 0.78008 0.47027 0.24348 0.0
C2836 C 0.76005 0.45793 0.21821 0.0
C2837 C 0.77048 0.44407 0.21598 0.0
C2838 C 0.78626 0.44392 0.22729 0.0
C2839 C 0.79112 0.457 0.24085 0.0
H2840 H 0.69253 0.34274 0.82608 0.0
H2841 H 0.66991 0.32983 0.87517 0.0
H2842 H 0.66024 0.32783 0.81295 0.0
H2843 H 0.63757 0.31552 0.86223 0.0
H2844 H 0.59789 0.26337 0.83454 0.0
H2845 H 0.62686 0.28513 0.84721 0.0
H2846 H 0.62501 0.32619 0.80819 0.0
H2847 H 0.59575 0.30398 0.79515 0.0
C2848 C 0.68045 0.33732 0.83403 0.0
C2849 C 0.6836 0.33719 0.85158 0.0
C2850 C 0.66198 0.3288 0.82655 0.0
C2851 C 0.64645 0.32014 0.83655 0.0
C2852 C 0.64935 0.32164 0.85417 0.0
C2853 C 0.66778 0.32994 0.8616 0.0
C2854 C 0.60352 0.27705 0.82863 0.0
C2855 C 0.5945 0.28191 0.8138 0.0
C2856 C 0.62008 0.28965 0.83603 0.0
C2857 C 0.62813 0.30752 0.82884 0.0
C2858 C 0.61914 0.31251 0.81401 0.0
C2859 C 0.60239 0.29983 0.80658 0.0
H2860 H 0.77417 0.65324 0.88283 0.0
H2861 H 0.71937 0.61592 0.86406 0.0
H2862 H 0.79131 0.63183 0.8705 0.0
H2863 H 0.73655 0.59543 0.85055 0.0
H2864 H 0.77265 0.55212 0.8399 0.0
H2865 H 0.754 0.57233 0.8526 0.0
H2866 H 0.8016 0.62241 0.84574 0.0
H2867 H 0.82027 0.60213 0.83402 0.0
C2868 C 0.7657 0.64054 0.87605 0.0
C2869 C 0.74527 0.63667 0.87438 0.0
C2870 C 0.77561 0.6283 0.86865 0.0
C2871 C 0.7655 0.61183 0.85913 0.0
C2872 C 0.74504 0.60779 0.85775 0.0
C2873 C 0.73512 0.61987 0.86533 0.0
C2874 C 0.77892 0.56748 0.84092 0.0
C2875 C 0.79795 0.57548 0.83597 0.0
C2876 C 0.76826 0.57917 0.84825 0.0
C2877 C 0.77628 0.59919 0.8506 0.0
C2878 C 0.79499 0.60711 0.8448 0.0
C2879 C 0.80568 0.59545 0.83781 0.0
H2880 H 0.39912 0.67013 0.82434 0.0
H2881 H 0.44623 0.65587 0.85328 0.0
H2882 H 0.42255 0.69664 0.81146 0.0
H2883 H 0.46961 0.68215 0.8403 0.0
H2884 H 0.50592 0.71704 0.79924 0.0
H2885 H 0.48105 0.68999 0.80966 0.0
H2886 H 0.44668 0.72864 0.82313 0.0
H2887 H 0.47158 0.75571 0.81299 0.0
C2888 C 0.41447 0.67272 0.82793 0.0
C2889 C 0.42091 0.66112 0.83987 0.0
C2890 C 0.42782 0.68783 0.8206 0.0
C2891 C 0.44784 0.69129 0.82483 0.0
C2892 C 0.45426 0.67963 0.83671 0.0
C2893 C 0.4409 0.66477 0.84426 0.0
C2894 C 0.49293 0.71971 0.80422 0.0
C2895 C 0.4907 0.73847 0.80539 0.0
C2896 C 0.4788 0.70428 0.81026 0.0
C2897 C 0.46206 0.70731 0.81725 0.0
C2898 C 0.45943 0.72594 0.81773 0.0
C2899 C 0.47371 0.7414 0.81199 0.0
H2900 H 0.40374 0.41525 0.85217 0.0
H2901 H 0.3487 0.37277 0.85348 0.0
H2902 H 0.38887 0.43483 0.83355 0.0
H2903 H 0.33364 0.3925 0.83467 0.0
H2904 H 0.3174 0.43201 0.79207 0.0
H2905 H 0.33296 0.40879 0.80578 0.0
H2906 H 0.36518 0.45343 0.84025 0.0
H2907 H 0.34983 0.47632 0.82665 0.0
C2908 C 0.38851 0.40989 0.84815 0.0
C2909 C 0.37737 0.39252 0.85442 0.0
C2910 C 0.37995 0.42118 0.83756 0.0
C2911 C 0.35996 0.41546 0.83287 0.0
C2912 C 0.34908 0.39734 0.83804 0.0
C2913 C 0.35771 0.38599 0.84875 0.0
C2914 C 0.32793 0.43682 0.80249 0.0
C2915 C 0.33232 0.45602 0.8083 0.0
C2916 C 0.33673 0.42351 0.81042 0.0
C2917 C 0.35042 0.42924 0.82408 0.0
C2918 C 0.35491 0.44851 0.82966 0.0
C2919 C 0.34595 0.46165 0.82195 0.0
H2920 H 0.71206 0.6106 0.19274 0.0
H2921 H 0.69392 0.63492 0.23689 0.0
H2922 H 0.72022 0.58554 0.2097 0.0
H2923 H 0.70234 0.60986 0.25404 0.0
H2924 H 0.70192 0.55102 0.27659 0.0
H2925 H 0.69326 0.57622 0.26004 0.0
H2926 H 0.74329 0.58012 0.23034 0.0
H2927 H 0.7514 0.55441 0.24625 0.0
C2928 C 0.71005 0.61077 0.20614 0.0
C2929 C 0.7025 0.62497 0.21344 0.0
C2930 C 0.71475 0.59634 0.21591 0.0
C2931 C 0.71213 0.59564 0.23335 0.0
C2932 C 0.70439 0.60974 0.24065 0.0
C2933 C 0.6996 0.62418 0.23082 0.0
C2934 C 0.71102 0.55709 0.26645 0.0
C2935 C 0.72738 0.55044 0.26285 0.0
C2936 C 0.70615 0.57178 0.25705 0.0
C2937 C 0.7175 0.58028 0.24374 0.0
C2938 C 0.73397 0.57379 0.24028 0.0
C2939 C 0.7388 0.5591 0.24963 0.0
H2940 H 0.75945 0.38389 0.89035 0.0
H2941 H 0.743 0.38634 0.8376 0.0
H2942 H 0.78291 0.41522 0.88869 0.0
H2943 H 0.76622 0.41773 0.83599 0.0
H2944 H 0.82289 0.46291 0.8339 0.0
H2945 H 0.80238 0.43067 0.83791 0.0
H2946 H 0.78283 0.44979 0.88387 0.0
H2947 H 0.80331 0.48222 0.87974 0.0
C2948 C 0.76088 0.39113 0.8784 0.0
C2949 C 0.74944 0.38267 0.86408 0.0
C2950 C 0.7742 0.40909 0.87749 0.0
C2951 C 0.77649 0.41884 0.86219 0.0
C2952 C 0.76496 0.41042 0.84791 0.0
C2953 C 0.75152 0.39256 0.84886 0.0
C2954 C 0.81437 0.46018 0.84495 0.0
C2955 C 0.8145 0.47515 0.85638 0.0
C2956 C 0.80258 0.44175 0.84721 0.0
C2957 C 0.79072 0.43782 0.86101 0.0
C2958 C 0.79183 0.45243 0.8731 0.0
C2959 C 0.80362 0.47096 0.87079 0.0
H2960 H 0.62639 0.68254 0.87594 0.0
H2961 H 0.67383 0.70922 0.8452 0.0
H2962 H 0.60922 0.70646 0.86743 0.0
H2963 H 0.65667 0.73348 0.83666 0.0
H2964 H 0.60578 0.75252 0.80766 0.0
H2965 H 0.62717 0.73335 0.81873 0.0
H2966 H 0.60891 0.7401 0.86884 0.0
H2967 H 0.58718 0.75878 0.85774 0.0
C2968 C 0.63333 0.69385 0.86764 0.0
C2969 C 0.65146 0.69404 0.86126 0.0
C2970 C 0.62351 0.70761 0.86277 0.0
C2971 C 0.63146 0.72189 0.85125 0.0
C2972 C 0.65002 0.72257 0.8454 0.0
C2973 C 0.65997 0.70885 0.85044 0.0
C2974 C 0.60631 0.74992 0.82103 0.0
C2975 C 0.59455 0.75712 0.83174 0.0
C2976 C 0.61878 0.73911 0.82743 0.0
C2977 C 0.61977 0.7351 0.8447 0.0
C2978 C 0.60841 0.74273 0.85545 0.0
C2979 C 0.59603 0.75362 0.84908 0.0
H2980 H 0.38934 0.57844 0.83925 0.0
H2981 H 0.35381 0.61464 0.82011 0.0
H2982 H 0.37582 0.55486 0.81705 0.0
H2983 H 0.33898 0.59045 0.79845 0.0
H2984 H 0.33799 0.55702 0.749 0.0
H2985 H 0.3464 0.57893 0.77325 0.0
H2986 H 0.35113 0.53141 0.80486 0.0
H2987 H 0.34496 0.51036 0.7801 0.0
C2988 C 0.37811 0.58098 0.83054 0.0
C2989 C 0.37256 0.59824 0.8313 0.0
C2990 C 0.37022 0.56743 0.81782 0.0
C2991 C 0.35626 0.57065 0.80576 0.0
C2992 C 0.35 0.5876 0.80718 0.0
C2993 C 0.35828 0.60137 0.81969 0.0
C2994 C 0.34066 0.55138 0.76123 0.0
C2995 C 0.34009 0.53193 0.76296 0.0
C2996 C 0.34528 0.56385 0.7752 0.0
C2997 C 0.34938 0.55705 0.79121 0.0
C2998 C 0.34832 0.53736 0.79282 0.0
C2999 C 0.34418 0.52507 0.77875 0.0
H3000 H 0.44202 0.32837 0.8646 0.0
H3001 H 0.40173 0.27229 0.86556 0.0
H3002 H 0.46479 0.31482 0.84985 0.0
H3003 H 0.42427 0.25873 0.8505 0.0
H3004 H 0.47805 0.23685 0.84285 0.0
H3005 H 0.45427 0.25073 0.85536 0.0
H3006 H 0.4721 0.30085 0.82466 0.0
H3007 H 0.49664 0.2874 0.81275 0.0
C3008 C 0.43783 0.31321 0.86133 0.0
C3009 C 0.42004 0.30143 0.86632 0.0
C3010 C 0.45092 0.30539 0.85285 0.0
C3011 C 0.44655 0.28558 0.84904 0.0
C3012 C 0.42842 0.27395 0.85352 0.0
C3013 C 0.4154 0.28175 0.86208 0.0
C3014 C 0.47711 0.2509 0.83881 0.0
C3015 C 0.48954 0.26094 0.82677 0.0
C3016 C 0.46317 0.25879 0.84586 0.0
C3017 C 0.4611 0.27697 0.84105 0.0
C3018 C 0.47335 0.28694 0.82887 0.0
C3019 C 0.48736 0.27906 0.82185 0.0
H3020 H 0.32535 0.38025 0.24153 0.0
H3021 H 0.38303 0.41373 0.23132 0.0
H3022 H 0.31464 0.40957 0.24462 0.0
H3023 H 0.37264 0.44323 0.23491 0.0
H3024 H 0.34838 0.49468 0.23513 0.0
H3025 H 0.35433 0.46455 0.22587 0.0
H3026 H 0.31794 0.43475 0.26436 0.0
H3027 H 0.3115 0.4649 0.2732 0.0
C3028 C 0.33569 0.39394 0.2397 0.0
C3029 C 0.35506 0.39465 0.23618 0.0
C3030 C 0.32961 0.41081 0.24166 0.0
C3031 C 0.34276 0.42897 0.24031 0.0
C3032 C 0.36193 0.42962 0.23591 0.0
C3033 C 0.36796 0.41268 0.2338 0.0
C3034 C 0.34128 0.48161 0.24139 0.0
C3035 C 0.32943 0.48227 0.25492 0.0
C3036 C 0.3449 0.4643 0.23619 0.0
C3037 C 0.33694 0.44706 0.24447 0.0
C3038 C 0.32424 0.44758 0.25748 0.0
C3039 C 0.32047 0.46492 0.26259 0.0
H3040 H 0.70979 0.33258 0.18711 0.0
H3041 H 0.67253 0.34542 0.14684 0.0
H3042 H 0.68196 0.30981 0.19843 0.0
H3043 H 0.64443 0.32317 0.15845 0.0
H3044 H 0.59889 0.27238 0.17771 0.0
H3045 H 0.62774 0.29084 0.16427 0.0
H3046 H 0.65449 0.31131 0.21311 0.0
H3047 H 0.6264 0.29212 0.22647 0.0
C3048 C 0.6956 0.33048 0.18068 0.0
C3049 C 0.69327 0.34083 0.16618 0.0
C3050 C 0.67961 0.31752 0.1872 0.0
C3051 C 0.66083 0.31481 0.17952 0.0
C3052 C 0.65866 0.32471 0.16463 0.0
C3053 C 0.67474 0.33751 0.15798 0.0
C3054 C 0.61104 0.28059 0.18559 0.0
C3055 C 0.61015 0.28079 0.20322 0.0
C3056 C 0.62753 0.29137 0.17786 0.0
C3057 C 0.64352 0.30262 0.18756 0.0
C3058 C 0.64265 0.30263 0.20518 0.0
C3059 C 0.62629 0.29181 0.21288 0.0
H3060 H 0.4314 0.71397 0.19123 0.0
H3061 H 0.39541 0.75181 0.20247 0.0
H3062 H 0.45747 0.7328 0.20988 0.0
H3063 H 0.42171 0.77106 0.22105 0.0
H3064 H 0.4461 0.75673 0.27492 0.0
H3065 H 0.42871 0.75788 0.24817 0.0
H3066 H 0.48145 0.76098 0.22232 0.0
H3067 H 0.49895 0.75981 0.24947 0.0
C3068 C 0.42947 0.7269 0.19711 0.0
C3069 C 0.41135 0.73126 0.19576 0.0
C3070 C 0.44446 0.73782 0.20773 0.0
C3071 C 0.44149 0.75319 0.21727 0.0
C3072 C 0.42428 0.75909 0.21407 0.0
C3073 C 0.40927 0.74816 0.20338 0.0
C3074 C 0.45413 0.75835 0.26357 0.0
C3075 C 0.4737 0.7578 0.26416 0.0
C3076 C 0.44422 0.75923 0.24819 0.0
C3077 C 0.45363 0.75927 0.23304 0.0
C3078 C 0.47379 0.76078 0.23378 0.0
C3079 C 0.48381 0.76017 0.24929 0.0
loop_
_geom_bond_atom_site_label_1
_geom_bond_atom_site_label_2
_geom_bond_distance
_geom_bond_site_symmetry_2
_ccdc_geom_bond_type
H0 C1 0.949 . S
C1 H0 0.949 . S
C1 C2 1.395 . S
C1 C3 1.391 . S
C2 C1 1.395 . S
C2 C5 1.390 . S
C3 C1 1.391 . S
C3 C7 1.387 . S
C3 C8 1.491 . S
H4 C5 0.950 . S
C5 C2 1.390 . S
C5 H4 0.950 . S
C5 C6 1.378 . S
C6 C5 1.378 . S
C6 C7 1.409 . S
C7 C3 1.387 . S
C7 C6 1.409 . S
C7 H9 0.951 . S
C8 C3 1.491 . S
C8 C10 1.382 . S
C8 C12 1.404 . S
H9 C7 0.951 . S
C10 C8 1.382 . S
C10 C11 1.390 . S
C10 H15 0.949 . S
C11 C10 1.390 . S
C11 C16 1.399 . S
C12 C8 1.404 . S
C12 H13 0.950 . S
C12 C14 1.375 . S
H13 C12 0.950 . S
C14 C12 1.375 . S
C14 C16 1.382 . S
C14 H18 0.950 . S
H15 C10 0.949 . S
C16 C11 1.399 . S
C16 C14 1.382 . S
C16 H17 0.952 . S
H17 C16 0.952 . S
H18 C14 0.950 . S
H19 C20 0.949 . S
C20 H19 0.949 . S
C20 C21 1.395 . S
C20 C22 1.391 . S
C21 C20 1.395 . S
C21 C24 1.390 . S
C22 C20 1.391 . S
C22 C26 1.387 . S
C22 C27 1.491 . S
H23 C24 0.950 . S
C24 C21 1.390 . S
C24 H23 0.950 . S
C24 C25 1.378 . S
C25 C24 1.378 . S
C25 C26 1.409 . S
C26 C22 1.387 . S
C26 C25 1.409 . S
C26 H28 0.951 . S
C27 C22 1.491 . S
C27 C29 1.382 . S
C27 C31 1.404 . S
H28 C26 0.951 . S
C29 C27 1.382 . S
C29 C30 1.390 . S
C29 H34 0.949 . S
C30 C29 1.390 . S
C30 C35 1.399 . S
C31 C27 1.404 . S
C31 H32 0.950 . S
C31 C33 1.375 . S
H32 C31 0.950 . S
C33 C31 1.375 . S
C33 C35 1.382 . S
C33 H37 0.950 . S
H34 C29 0.949 . S
C35 C30 1.399 . S
C35 C33 1.382 . S
C35 H36 0.952 . S
H36 C35 0.952 . S
H37 C33 0.950 . S
H38 C39 0.949 . S
C39 H38 0.949 . S
C39 C40 1.395 . S
C39 C41 1.391 . S
C40 C39 1.395 . S
C40 C43 1.390 . S
C41 C39 1.391 . S
C41 C45 1.387 . S
C41 C46 1.491 . S
H42 C43 0.950 . S
C43 C40 1.390 . S
C43 H42 0.950 . S
C43 C44 1.378 . S
C44 C43 1.378 . S
C44 C45 1.409 . S
C45 C41 1.387 . S
C45 C44 1.409 . S
C45 H47 0.951 . S
C46 C41 1.491 . S
C46 C48 1.382 . S
C46 C50 1.404 . S
H47 C45 0.951 . S
C48 C46 1.382 . S
C48 C49 1.390 . S
C48 H53 0.949 . S
C49 C48 1.390 . S
C49 C54 1.399 . S
C50 C46 1.404 . S
C50 H51 0.950 . S
C50 C52 1.375 . S
H51 C50 0.950 . S
C52 C50 1.375 . S
C52 C54 1.382 . S
C52 H56 0.950 . S
H53 C48 0.949 . S
C54 C49 1.399 . S
C54 C52 1.382 . S
C54 H55 0.952 . S
H55 C54 0.952 . S
H56 C52 0.950 . S
H57 C58 0.949 . S
C58 H57 0.949 . S
C58 C59 1.395 . S
C58 C60 1.391 . S
C59 C58 1.395 . S
C59 C62 1.390 . S
C60 C58 1.391 . S
C60 C64 1.387 . S
C60 C65 1.491 . S
H61 C62 0.950 . S
C62 C59 1.390 . S
C62 H61 0.950 . S
C62 C63 1.378 . S
C63 C62 1.378 . S
C63 C64 1.409 . S
C64 C60 1.387 . S
C64 C63 1.409 . S
C64 H66 0.951 . S
C65 C60 1.491 . S
C65 C67 1.382 . S
C65 C69 1.404 . S
H66 C64 0.951 . S
C67 C65 1.382 . S
C67 C68 1.390 . S
C67 H72 0.949 . S
C68 C67 1.390 . S
C68 C73 1.399 . S
C69 C65 1.404 . S
C69 H70 0.950 . S
C69 C71 1.375 . S
H70 C69 0.950 . S
C71 C69 1.375 . S
C71 C73 1.382 . S
C71 H75 0.950 . S
H72 C67 0.949 . S
C73 C68 1.399 . S
C73 C71 1.382 . S
C73 H74 0.952 . S
H74 C73 0.952 . S
H75 C71 0.950 . S
H76 C77 0.949 . S
C77 H76 0.949 . S
C77 C78 1.395 . S
C77 C79 1.391 . S
C78 C77 1.395 . S
C78 C81 1.390 . S
C79 C77 1.391 . S
C79 C83 1.387 . S
C79 C84 1.491 . S
H80 C81 0.950 . S
C81 C78 1.390 . S
C81 H80 0.950 . S
C81 C82 1.378 . S
C82 C81 1.378 . S
C82 C83 1.409 . S
C83 C79 1.387 . S
C83 C82 1.409 . S
C83 H85 0.951 . S
C84 C79 1.491 . S
C84 C86 1.382 . S
C84 C88 1.404 . S
H85 C83 0.951 . S
C86 C84 1.382 . S
C86 C87 1.390 . S
C86 H91 0.949 . S
C87 C86 1.390 . S
C87 C92 1.399 . S
C88 C84 1.404 . S
C88 H89 0.950 . S
C88 C90 1.375 . S
H89 C88 0.950 . S
C90 C88 1.375 . S
C90 C92 1.382 . S
C90 H94 0.950 . S
H91 C86 0.949 . S
C92 C87 1.399 . S
C92 C90 1.382 . S
C92 H93 0.952 . S
H93 C92 0.952 . S
H94 C90 0.950 . S
H95 C96 0.949 . S
C96 H95 0.949 . S
C96 C97 1.395 . S
C96 C98 1.391 . S
C97 C96 1.395 . S
C97 C100 1.390 . S
C98 C96 1.391 . S
C98 C102 1.387 . S
C98 C103 1.491 . S
H99 C100 0.950 . S
C100 C97 1.390 . S
C100 H99 0.950 . S
C100 C101 1.378 . S
C101 C100 1.378 . S
C101 C102 1.409 . S
C102 C98 1.387 . S
C102 C101 1.409 . S
C102 H104 0.951 . S
C103 C98 1.491 . S
C103 C105 1.382 . S
C103 C107 1.404 . S
H104 C102 0.951 . S
C105 C103 1.382 . S
C105 C106 1.390 . S
C105 H110 0.949 . S
C106 C105 1.390 . S
C106 C111 1.399 . S
C107 C103 1.404 . S
C107 H108 0.950 . S
C107 C109 1.375 . S
H108 C107 0.950 . S
C109 C107 1.375 . S
C109 C111 1.382 . S
C109 H113 0.950 . S
H110 C105 0.949 . S
C111 C106 1.399 . S
C111 C109 1.382 . S
C111 H112 0.952 . S
H112 C111 0.952 . S
H113 C109 0.950 . S
H114 C115 0.949 . S
C115 H114 0.949 . S
C115 C116 1.395 . S
C115 C117 1.391 . S
C116 C115 1.395 . S
C116 C119 1.390 . S
C117 C115 1.391 . S
C117 C121 1.387 . S
C117 C122 1.491 . S
H118 C119 0.950 . S
C119 C116 1.390 . S
C119 H118 0.950 . S
C119 C120 1.378 . S
C120 C119 1.378 . S
C120 C121 1.409 . S
C121 C117 1.387 . S
C121 C120 1.409 . S
C121 H123 0.951 . S
C122 C117 1.491 . S
C122 C124 1.382 . S
C122 C126 1.404 . S
H123 C121 0.951 . S
C124 C122 1.382 . S
C124 C125 1.390 . S
C124 H129 0.949 . S
C125 C124 1.390 . S
C125 C130 1.399 . S
C126 C122 1.404 . S
C126 H127 0.950 . S
C126 C128 1.375 . S
H127 C126 0.950 . S
C128 C126 1.375 . S
C128 C130 1.382 . S
C128 H132 0.950 . S
H129 C124 0.949 . S
C130 C125 1.399 . S
C130 C128 1.382 . S
C130 H131 0.952 . S
H131 C130 0.952 . S
H132 C128 0.950 . S
H133 C134 0.949 . S
C134 H133 0.949 . S
C134 C135 1.395 . S
C134 C136 1.391 . S
C135 C134 1.395 . S
C135 C138 1.390 . S
C136 C134 1.391 . S
C136 C140 1.387 . S
C136 C141 1.491 . S
H137 C138 0.950 . S
C138 C135 1.390 . S
C138 H137 0.950 . S
C138 C139 1.378 . S
C139 C138 1.378 . S
C139 C140 1.409 . S
C140 C136 1.387 . S
C140 C139 1.409 . S
C140 H142 0.951 . S
C141 C136 1.491 . S
C141 C143 1.382 . S
C141 C145 1.404 . S
H142 C140 0.951 . S
C143 C141 1.382 . S
C143 C144 1.390 . S
C143 H148 0.949 . S
C144 C143 1.390 . S
C144 C149 1.399 . S
C145 C141 1.404 . S
C145 H146 0.950 . S
C145 C147 1.375 . S
H146 C145 0.950 . S
C147 C145 1.375 . S
C147 C149 1.382 . S
C147 H151 0.950 . S
H148 C143 0.949 . S
C149 C144 1.399 . S
C149 C147 1.382 . S
C149 H150 0.952 . S
H150 C149 0.952 . S
H151 C147 0.950 . S
H152 C153 0.949 . S
C153 H152 0.949 . S
C153 C154 1.395 . S
C153 C155 1.391 . S
C154 C153 1.395 . S
C154 C157 1.390 . S
C155 C153 1.391 . S
C155 C159 1.387 . S
C155 C160 1.491 . S
H156 C157 0.950 . S
C157 C154 1.390 . S
C157 H156 0.950 . S
C157 C158 1.378 . S
C158 C157 1.378 . S
C158 C159 1.409 . S
C159 C155 1.387 . S
C159 C158 1.409 . S
C159 H161 0.951 . S
C160 C155 1.491 . S
C160 C162 1.382 . S
C160 C164 1.404 . S
H161 C159 0.951 . S
C162 C160 1.382 . S
C162 C163 1.390 . S
C162 H167 0.949 . S
C163 C162 1.390 . S
C163 C168 1.399 . S
C164 C160 1.404 . S
C164 H165 0.950 . S
C164 C166 1.375 . S
H165 C164 0.950 . S
C166 C164 1.375 . S
C166 C168 1.382 . S
C166 H170 0.950 . S
H167 C162 0.949 . S
C168 C163 1.399 . S
C168 C166 1.382 . S
C168 H169 0.952 . S
H169 C168 0.952 . S
H170 C166 0.950 . S
H171 C172 0.949 . S
C172 H171 0.949 . S
C172 C173 1.395 . S
C172 C174 1.391 . S
C173 C172 1.395 . S
C173 C176 1.390 . S
C174 C172 1.391 . S
C174 C178 1.387 . S
C174 C179 1.491 . S
H175 C176 0.950 . S
C176 C173 1.390 . S
C176 H175 0.950 . S
C176 C177 1.378 . S
C177 C176 1.378 . S
C177 C178 1.409 . S
C178 C174 1.387 . S
C178 C177 1.409 . S
C178 H180 0.951 . S
C179 C174 1.491 . S
C179 C181 1.382 . S
C179 C183 1.404 . S
H180 C178 0.951 . S
C181 C179 1.382 . S
C181 C182 1.390 . S
C181 H186 0.949 . S
C182 C181 1.390 . S
C182 C187 1.399 . S
C183 C179 1.404 . S
C183 H184 0.950 . S
C183 C185 1.375 . S
H184 C183 0.950 . S
C185 C183 1.375 . S
C185 C187 1.382 . S
C185 H189 0.950 . S
H186 C181 0.949 . S
C187 C182 1.399 . S
C187 C185 1.382 . S
C187 H188 0.952 . S
H188 C187 0.952 . S
H189 C185 0.950 . S
H190 C191 0.949 . S
C191 H190 0.949 . S
C191 C192 1.395 . S
C191 C193 1.391 . S
C192 C191 1.395 . S
C192 C195 1.390 . S
C193 C191 1.391 . S
C193 C197 1.387 . S
C193 C198 1.491 . S
H194 C195 0.950 . S
C195 C192 1.390 . S
C195 H194 0.950 . S
C195 C196 1.378 . S
C196 C195 1.378 . S
C196 C197 1.409 . S
C197 C193 1.387 . S
C197 C196 1.409 . S
C197 H199 0.951 . S
C198 C193 1.491 . S
C198 C200 1.382 . S
C198 C202 1.404 . S
H199 C197 0.951 . S
C200 C198 1.382 . S
C200 C201 1.390 . S
C200 H205 0.949 . S
C201 C200 1.390 . S
C201 C206 1.399 . S
C202 C198 1.404 . S
C202 H203 0.950 . S
C202 C204 1.375 . S
H203 C202 0.950 . S
C204 C202 1.375 . S
C204 C206 1.382 . S
C204 H208 0.950 . S
H205 C200 0.949 . S
C206 C201 1.399 . S
C206 C204 1.382 . S
C206 H207 0.952 . S
H207 C206 0.952 . S
H208 C204 0.950 . S
H209 C210 0.949 . S
C210 H209 0.949 . S
C210 C211 1.395 . S
C210 C212 1.391 . S
C211 C210 1.395 . S
C211 C214 1.390 . S
C212 C210 1.391 . S
C212 C216 1.387 . S
C212 C217 1.491 . S
H213 C214 0.950 . S
C214 C211 1.390 . S
C214 H213 0.950 . S
C214 C215 1.378 . S
C215 C214 1.378 . S
C215 C216 1.409 . S
C216 C212 1.387 . S
C216 C215 1.409 . S
C216 H218 0.951 . S
C217 C212 1.491 . S
C217 C219 1.382 . S
C217 C221 1.404 . S
H218 C216 0.951 . S
C219 C217 1.382 . S
C219 C220 1.390 . S
C219 H224 0.949 . S
C220 C219 1.390 . S
C220 C225 1.399 . S
C221 C217 1.404 . S
C221 H222 0.950 . S
C221 C223 1.375 . S
H222 C221 0.950 . S
C223 C221 1.375 . S
C223 C225 1.382 . S
C223 H227 0.950 . S
H224 C219 0.949 . S
C225 C220 1.399 . S
C225 C223 1.382 . S
C225 H226 0.952 . S
H226 C225 0.952 . S
H227 C223 0.950 . S
H228 C229 0.949 . S
C229 H228 0.949 . S
C229 C230 1.395 . S
C229 C231 1.391 . S
C230 C229 1.395 . S
C230 C233 1.390 . S
C231 C229 1.391 . S
C231 C235 1.387 . S
C231 C236 1.491 . S
H232 C233 0.950 . S
C233 C230 1.390 . S
C233 H232 0.950 . S
C233 C234 1.378 . S
C234 C233 1.378 . S
C234 C235 1.409 . S
C235 C231 1.387 . S
C235 C234 1.409 . S
C235 H237 0.951 . S
C236 C231 1.491 . S
C236 C238 1.382 . S
C236 C240 1.404 . S
H237 C235 0.951 . S
C238 C236 1.382 . S
C238 C239 1.390 . S
C238 H243 0.949 . S
C239 C238 1.390 . S
C239 C244 1.399 . S
C240 C236 1.404 . S
C240 H241 0.950 . S
C240 C242 1.375 . S
H241 C240 0.950 . S
C242 C240 1.375 . S
C242 C244 1.382 . S
C242 H246 0.950 . S
H243 C238 0.949 . S
C244 C239 1.399 . S
C244 C242 1.382 . S
C244 H245 0.952 . S
H245 C244 0.952 . S
H246 C242 0.950 . S
H247 C248 0.949 . S
C248 H247 0.949 . S
C248 C249 1.395 . S
C248 C250 1.391 . S
C249 C248 1.395 . S
C249 C252 1.390 . S
C250 C248 1.391 . S
C250 C254 1.387 . S
C250 C255 1.491 . S
H251 C252 0.950 . S
C252 C249 1.390 . S
C252 H251 0.950 . S
C252 C253 1.378 . S
C253 C252 1.378 . S
C253 C254 1.409 . S
C254 C250 1.387 . S
C254 C253 1.409 . S
C254 H256 0.951 . S
C255 C250 1.491 . S
C255 C257 1.382 . S
C255 C259 1.404 . S
H256 C254 0.951 . S
C257 C255 1.382 . S
C257 C258 1.390 . S
C257 H262 0.949 . S
C258 C257 1.390 . S
C258 C263 1.399 . S
C259 C255 1.404 . S
C259 H260 0.950 . S
C259 C261 1.375 . S
H260 C259 0.950 . S
C261 C259 1.375 . S
C261 C263 1.382 . S
C261 H265 0.950 . S
H262 C257 0.949 . S
C263 C258 1.399 . S
C263 C261 1.382 . S
C263 H264 0.952 . S
H264 C263 0.952 . S
H265 C261 0.950 . S
H266 C267 0.949 . S
C267 H266 0.949 . S
C267 C268 1.395 . S
C267 C269 1.391 . S
C268 C267 1.395 . S
C268 C271 1.390 . S
C269 C267 1.391 . S
C269 C273 1.387 . S
C269 C274 1.491 . S
H270 C271 0.950 . S
C271 C268 1.390 . S
C271 H270 0.950 . S
C271 C272 1.378 . S
C272 C271 1.378 . S
C272 C273 1.409 . S
C273 C269 1.387 . S
C273 C272 1.409 . S
C273 H275 0.951 . S
C274 C269 1.491 . S
C274 C276 1.382 . S
C274 C278 1.404 . S
H275 C273 0.951 . S
C276 C274 1.382 . S
C276 C277 1.390 . S
C276 H281 0.949 . S
C277 C276 1.390 . S
C277 C282 1.399 . S
C278 C274 1.404 . S
C278 H279 0.950 . S
C278 C280 1.375 . S
H279 C278 0.950 . S
C280 C278 1.375 . S
C280 C282 1.382 . S
C280 H284 0.950 . S
H281 C276 0.949 . S
C282 C277 1.399 . S
C282 C280 1.382 . S
C282 H283 0.952 . S
H283 C282 0.952 . S
H284 C280 0.950 . S
H285 C286 0.949 . S
C286 H285 0.949 . S
C286 C287 1.395 . S
C286 C288 1.391 . S
C287 C286 1.395 . S
C287 C290 1.390 . S
C288 C286 1.391 . S
C288 C292 1.387 . S
C288 C293 1.491 . S
H289 C290 0.950 . S
C290 C287 1.390 . S
C290 H289 0.950 . S
C290 C291 1.378 . S
C291 C290 1.378 . S
C291 C292 1.409 . S
C292 C288 1.387 . S
C292 C291 1.409 . S
C292 H294 0.951 . S
C293 C288 1.491 . S
C293 C295 1.382 . S
C293 C297 1.404 . S
H294 C292 0.951 . S
C295 C293 1.382 . S
C295 C296 1.390 . S
C295 H300 0.949 . S
C296 C295 1.390 . S
C296 C301 1.399 . S
C297 C293 1.404 . S
C297 H298 0.950 . S
C297 C299 1.375 . S
H298 C297 0.950 . S
C299 C297 1.375 . S
C299 C301 1.382 . S
C299 H303 0.950 . S
H300 C295 0.949 . S
C301 C296 1.399 . S
C301 C299 1.382 . S
C301 H302 0.952 . S
H302 C301 0.952 . S
H303 C299 0.950 . S
H304 C305 0.949 . S
C305 H304 0.949 . S
C305 C306 1.395 . S
C305 C307 1.391 . S
C306 C305 1.395 . S
C306 C309 1.390 . S
C307 C305 1.391 . S
C307 C311 1.387 . S
C307 C312 1.491 . S
H308 C309 0.950 . S
C309 C306 1.390 . S
C309 H308 0.950 . S
C309 C310 1.378 . S
C310 C309 1.378 . S
C310 C311 1.409 . S
C311 C307 1.387 . S
C311 C310 1.409 . S
C311 H313 0.951 . S
C312 C307 1.491 . S
C312 C314 1.382 . S
C312 C316 1.404 . S
H313 C311 0.951 . S
C314 C312 1.382 . S
C314 C315 1.390 . S
C314 H319 0.949 . S
C315 C314 1.390 . S
C315 C320 1.399 . S
C316 C312 1.404 . S
C316 H317 0.950 . S
C316 C318 1.375 . S
H317 C316 0.950 . S
C318 C316 1.375 . S
C318 C320 1.382 . S
C318 H322 0.950 . S
H319 C314 0.949 . S
C320 C315 1.399 . S
C320 C318 1.382 . S
C320 H321 0.952 . S
H321 C320 0.952 . S
H322 C318 0.950 . S
H323 C324 0.949 . S
C324 H323 0.949 . S
C324 C325 1.395 . S
C324 C326 1.391 . S
C325 C324 1.395 . S
C325 C328 1.390 . S
C326 C324 1.391 . S
C326 C330 1.387 . S
C326 C331 1.491 . S
H327 C328 0.950 . S
C328 C325 1.390 . S
C328 H327 0.950 . S
C328 C329 1.378 . S
C329 C328 1.378 . S
C329 C330 1.409 . S
C330 C326 1.387 . S
C330 C329 1.409 . S
C330 H332 0.951 . S
C331 C326 1.491 . S
C331 C333 1.382 . S
C331 C335 1.404 . S
H332 C330 0.951 . S
C333 C331 1.382 . S
C333 C334 1.390 . S
C333 H338 0.949 . S
C334 C333 1.390 . S
C334 C339 1.399 . S
C335 C331 1.404 . S
C335 H336 0.950 . S
C335 C337 1.375 . S
H336 C335 0.950 . S
C337 C335 1.375 . S
C337 C339 1.382 . S
C337 H341 0.950 . S
H338 C333 0.949 . S
C339 C334 1.399 . S
C339 C337 1.382 . S
C339 H340 0.952 . S
H340 C339 0.952 . S
H341 C337 0.950 . S
H342 C343 0.949 . S
C343 H342 0.949 . S
C343 C344 1.395 . S
C343 C345 1.391 . S
C344 C343 1.395 . S
C344 C347 1.390 . S
C345 C343 1.391 . S
C345 C349 1.387 . S
C345 C350 1.491 . S
H346 C347 0.950 . S
C347 C344 1.390 . S
C347 H346 0.950 . S
C347 C348 1.378 . S
C348 C347 1.378 . S
C348 C349 1.409 . S
C349 C345 1.387 . S
C349 C348 1.409 . S
C349 H351 0.951 . S
C350 C345 1.491 . S
C350 C352 1.382 . S
C350 C354 1.404 . S
H351 C349 0.951 . S
C352 C350 1.382 . S
C352 C353 1.390 . S
C352 H357 0.949 . S
C353 C352 1.390 . S
C353 C358 1.399 . S
C354 C350 1.404 . S
C354 H355 0.950 . S
C354 C356 1.375 . S
H355 C354 0.950 . S
C356 C354 1.375 . S
C356 C358 1.382 . S
C356 H360 0.950 . S
H357 C352 0.949 . S
C358 C353 1.399 . S
C358 C356 1.382 . S
C358 H359 0.952 . S
H359 C358 0.952 . S
H360 C356 0.950 . S
H361 C362 0.949 . S
C362 H361 0.949 . S
C362 C363 1.395 . S
C362 C364 1.391 . S
C363 C362 1.395 . S
C363 C366 1.390 . S
C364 C362 1.391 . S
C364 C368 1.387 . S
C364 C369 1.491 . S
H365 C366 0.950 . S
C366 C363 1.390 . S
C366 H365 0.950 . S
C366 C367 1.378 . S
C367 C366 1.378 . S
C367 C368 1.409 . S
C368 C364 1.387 . S
C368 C367 1.409 . S
C368 H370 0.951 . S
C369 C364 1.491 . S
C369 C371 1.382 . S
C369 C373 1.404 . S
H370 C368 0.951 . S
C371 C369 1.382 . S
C371 C372 1.390 . S
C371 H376 0.949 . S
C372 C371 1.390 . S
C372 C377 1.399 . S
C373 C369 1.404 . S
C373 H374 0.950 . S
C373 C375 1.375 . S
H374 C373 0.950 . S
C375 C373 1.375 . S
C375 C377 1.382 . S
C375 H379 0.950 . S
H376 C371 0.949 . S
C377 C372 1.399 . S
C377 C375 1.382 . S
C377 H378 0.952 . S
H378 C377 0.952 . S
H379 C375 0.950 . S
H380 C381 0.949 . S
C381 H380 0.949 . S
C381 C382 1.395 . S
C381 C383 1.391 . S
C382 C381 1.395 . S
C382 C385 1.390 . S
C383 C381 1.391 . S
C383 C387 1.387 . S
C383 C388 1.491 . S
H384 C385 0.950 . S
C385 C382 1.390 . S
C385 H384 0.950 . S
C385 C386 1.378 . S
C386 C385 1.378 . S
C386 C387 1.409 . S
C387 C383 1.387 . S
C387 C386 1.409 . S
C387 H389 0.951 . S
C388 C383 1.491 . S
C388 C390 1.382 . S
C388 C392 1.404 . S
H389 C387 0.951 . S
C390 C388 1.382 . S
C390 C391 1.390 . S
C390 H395 0.949 . S
C391 C390 1.390 . S
C391 C396 1.399 . S
C392 C388 1.404 . S
C392 H393 0.950 . S
C392 C394 1.375 . S
H393 C392 0.950 . S
C394 C392 1.375 . S
C394 C396 1.382 . S
C394 H398 0.950 . S
H395 C390 0.949 . S
C396 C391 1.399 . S
C396 C394 1.382 . S
C396 H397 0.952 . S
H397 C396 0.952 . S
H398 C394 0.950 . S
H399 C400 0.949 . S
C400 H399 0.949 . S
C400 C401 1.395 . S
C400 C402 1.391 . S
C401 C400 1.395 . S
C401 C404 1.390 . S
C402 C400 1.391 . S
C402 C406 1.387 . S
C402 C407 1.491 . S
H403 C404 0.950 . S
C404 C401 1.390 . S
C404 H403 0.950 . S
C404 C405 1.378 . S
C405 C404 1.378 . S
C405 C406 1.409 . S
C406 C402 1.387 . S
C406 C405 1.409 . S
C406 H408 0.951 . S
C407 C402 1.491 . S
C407 C409 1.382 . S
C407 C411 1.404 . S
H408 C406 0.951 . S
C409 C407 1.382 . S
C409 C410 1.390 . S
C409 H414 0.949 . S
C410 C409 1.390 . S
C410 C415 1.399 . S
C411 C407 1.404 . S
C411 H412 0.950 . S
C411 C413 1.375 . S
H412 C411 0.950 . S
C413 C411 1.375 . S
C413 C415 1.382 . S
C413 H417 0.950 . S
H414 C409 0.949 . S
C415 C410 1.399 . S
C415 C413 1.382 . S
C415 H416 0.952 . S
H416 C415 0.952 . S
H417 C413 0.950 . S
H418 C419 0.949 . S
C419 H418 0.949 . S
C419 C420 1.395 . S
C419 C421 1.391 . S
C420 C419 1.395 . S
C420 C423 1.390 . S
C421 C419 1.391 . S
C421 C425 1.387 . S
C421 C426 1.491 . S
H422 C423 0.950 . S
C423 C420 1.390 . S
C423 H422 0.950 . S
C423 C424 1.378 . S
C424 C423 1.378 . S
C424 C425 1.409 . S
C425 C421 1.387 . S
C425 C424 1.409 . S
C425 H427 0.951 . S
C426 C421 1.491 . S
C426 C428 1.382 . S
C426 C430 1.404 . S
H427 C425 0.951 . S
C428 C426 1.382 . S
C428 C429 1.390 . S
C428 H433 0.949 . S
C429 C428 1.390 . S
C429 C434 1.399 . S
C430 C426 1.404 . S
C430 H431 0.950 . S
C430 C432 1.375 . S
H431 C430 0.950 . S
C432 C430 1.375 . S
C432 C434 1.382 . S
C432 H436 0.950 . S
H433 C428 0.949 . S
C434 C429 1.399 . S
C434 C432 1.382 . S
C434 H435 0.952 . S
H435 C434 0.952 . S
H436 C432 0.950 . S
H437 C438 0.949 . S
C438 H437 0.949 . S
C438 C439 1.395 . S
C438 C440 1.391 . S
C439 C438 1.395 . S
C439 C442 1.390 . S
C440 C438 1.391 . S
C440 C444 1.387 . S
C440 C445 1.491 . S
H441 C442 0.950 . S
C442 C439 1.390 . S
C442 H441 0.950 . S
C442 C443 1.378 . S
C443 C442 1.378 . S
C443 C444 1.409 . S
C444 C440 1.387 . S
C444 C443 1.409 . S
C444 H446 0.951 . S
C445 C440 1.491 . S
C445 C447 1.382 . S
C445 C449 1.404 . S
H446 C444 0.951 . S
C447 C445 1.382 . S
C447 C448 1.390 . S
C447 H452 0.949 . S
C448 C447 1.390 . S
C448 C453 1.399 . S
C449 C445 1.404 . S
C449 H450 0.950 . S
C449 C451 1.375 . S
H450 C449 0.950 . S
C451 C449 1.375 . S
C451 C453 1.382 . S
C451 H455 0.950 . S
H452 C447 0.949 . S
C453 C448 1.399 . S
C453 C451 1.382 . S
C453 H454 0.952 . S
H454 C453 0.952 . S
H455 C451 0.950 . S
H456 C457 0.949 . S
C457 H456 0.949 . S
C457 C458 1.395 . S
C457 C459 1.391 . S
C458 C457 1.395 . S
C458 C461 1.390 . S
C459 C457 1.391 . S
C459 C463 1.387 . S
C459 C464 1.491 . S
H460 C461 0.950 . S
C461 C458 1.390 . S
C461 H460 0.950 . S
C461 C462 1.378 . S
C462 C461 1.378 . S
C462 C463 1.409 . S
C463 C459 1.387 . S
C463 C462 1.409 . S
C463 H465 0.951 . S
C464 C459 1.491 . S
C464 C466 1.382 . S
C464 C468 1.404 . S
H465 C463 0.951 . S
C466 C464 1.382 . S
C466 C467 1.390 . S
C466 H471 0.949 . S
C467 C466 1.390 . S
C467 C472 1.399 . S
C468 C464 1.404 . S
C468 H469 0.950 . S
C468 C470 1.375 . S
H469 C468 0.950 . S
C470 C468 1.375 . S
C470 C472 1.382 . S
C470 H474 0.950 . S
H471 C466 0.949 . S
C472 C467 1.399 . S
C472 C470 1.382 . S
C472 H473 0.952 . S
H473 C472 0.952 . S
H474 C470 0.950 . S
H475 C476 0.949 . S
C476 H475 0.949 . S
C476 C477 1.395 . S
C476 C478 1.391 . S
C477 C476 1.395 . S
C477 C480 1.390 . S
C478 C476 1.391 . S
C478 C482 1.387 . S
C478 C483 1.491 . S
H479 C480 0.950 . S
C480 C477 1.390 . S
C480 H479 0.950 . S
C480 C481 1.378 . S
C481 C480 1.378 . S
C481 C482 1.409 . S
C482 C478 1.387 . S
C482 C481 1.409 . S
C482 H484 0.951 . S
C483 C478 1.491 . S
C483 C485 1.382 . S
C483 C487 1.404 . S
H484 C482 0.951 . S
C485 C483 1.382 . S
C485 C486 1.390 . S
C485 H490 0.949 . S
C486 C485 1.390 . S
C486 C491 1.399 . S
C487 C483 1.404 . S
C487 H488 0.950 . S
C487 C489 1.375 . S
H488 C487 0.950 . S
C489 C487 1.375 . S
C489 C491 1.382 . S
C489 H493 0.950 . S
H490 C485 0.949 . S
C491 C486 1.399 . S
C491 C489 1.382 . S
C491 H492 0.952 . S
H492 C491 0.952 . S
H493 C489 0.950 . S
H494 C495 0.949 . S
C495 H494 0.949 . S
C495 C496 1.395 . S
C495 C497 1.391 . S
C496 C495 1.395 . S
C496 C499 1.390 . S
C497 C495 1.391 . S
C497 C501 1.387 . S
C497 C502 1.491 . S
H498 C499 0.950 . S
C499 C496 1.390 . S
C499 H498 0.950 . S
C499 C500 1.378 . S
C500 C499 1.378 . S
C500 C501 1.409 . S
C501 C497 1.387 . S
C501 C500 1.409 . S
C501 H503 0.951 . S
C502 C497 1.491 . S
C502 C504 1.382 . S
C502 C506 1.404 . S
H503 C501 0.951 . S
C504 C502 1.382 . S
C504 C505 1.390 . S
C504 H509 0.949 . S
C505 C504 1.390 . S
C505 C510 1.399 . S
C506 C502 1.404 . S
C506 H507 0.950 . S
C506 C508 1.375 . S
H507 C506 0.950 . S
C508 C506 1.375 . S
C508 C510 1.382 . S
C508 H512 0.950 . S
H509 C504 0.949 . S
C510 C505 1.399 . S
C510 C508 1.382 . S
C510 H511 0.952 . S
H511 C510 0.952 . S
H512 C508 0.950 . S
H513 C514 0.949 . S
C514 H513 0.949 . S
C514 C515 1.395 . S
C514 C516 1.391 . S
C515 C514 1.395 . S
C515 C518 1.390 . S
C516 C514 1.391 . S
C516 C520 1.387 . S
C516 C521 1.491 . S
H517 C518 0.950 . S
C518 C515 1.390 . S
C518 H517 0.950 . S
C518 C519 1.378 . S
C519 C518 1.378 . S
C519 C520 1.409 . S
C520 C516 1.387 . S
C520 C519 1.409 . S
C520 H522 0.951 . S
C521 C516 1.491 . S
C521 C523 1.382 . S
C521 C525 1.404 . S
H522 C520 0.951 . S
C523 C521 1.382 . S
C523 C524 1.390 . S
C523 H528 0.949 . S
C524 C523 1.390 . S
C524 C529 1.399 . S
C525 C521 1.404 . S
C525 H526 0.950 . S
C525 C527 1.375 . S
H526 C525 0.950 . S
C527 C525 1.375 . S
C527 C529 1.382 . S
C527 H531 0.950 . S
H528 C523 0.949 . S
C529 C524 1.399 . S
C529 C527 1.382 . S
C529 H530 0.952 . S
H530 C529 0.952 . S
H531 C527 0.950 . S
H532 C533 0.949 . S
C533 H532 0.949 . S
C533 C534 1.395 . S
C533 C535 1.391 . S
C534 C533 1.395 . S
C534 C537 1.390 . S
C535 C533 1.391 . S
C535 C539 1.387 . S
C535 C540 1.491 . S
H536 C537 0.950 . S
C537 C534 1.390 . S
C537 H536 0.950 . S
C537 C538 1.378 . S
C538 C537 1.378 . S
C538 C539 1.409 . S
C539 C535 1.387 . S
C539 C538 1.409 . S
C539 H541 0.951 . S
C540 C535 1.491 . S
C540 C542 1.382 . S
C540 C544 1.404 . S
H541 C539 0.951 . S
C542 C540 1.382 . S
C542 C543 1.390 . S
C542 H547 0.949 . S
C543 C542 1.390 . S
C543 C548 1.399 . S
C544 C540 1.404 . S
C544 H545 0.950 . S
C544 C546 1.375 . S
H545 C544 0.950 . S
C546 C544 1.375 . S
C546 C548 1.382 . S
C546 H550 0.950 . S
H547 C542 0.949 . S
C548 C543 1.399 . S
C548 C546 1.382 . S
C548 H549 0.952 . S
H549 C548 0.952 . S
H550 C546 0.950 . S
H551 C552 0.949 . S
C552 H551 0.949 . S
C552 C553 1.395 . S
C552 C554 1.391 . S
C553 C552 1.395 . S
C553 C556 1.390 . S
C554 C552 1.391 . S
C554 C558 1.387 . S
C554 C559 1.491 . S
H555 C556 0.950 . S
C556 C553 1.390 . S
C556 H555 0.950 . S
C556 C557 1.378 . S
C557 C556 1.378 . S
C557 C558 1.409 . S
C558 C554 1.387 . S
C558 C557 1.409 . S
C558 H560 0.951 . S
C559 C554 1.491 . S
C559 C561 1.382 . S
C559 C563 1.404 . S
H560 C558 0.951 . S
C561 C559 1.382 . S
C561 C562 1.390 . S
C561 H566 0.949 . S
C562 C561 1.390 . S
C562 C567 1.399 . S
C563 C559 1.404 . S
C563 H564 0.950 . S
C563 C565 1.375 . S
H564 C563 0.950 . S
C565 C563 1.375 . S
C565 C567 1.382 . S
C565 H569 0.950 . S
H566 C561 0.949 . S
C567 C562 1.399 . S
C567 C565 1.382 . S
C567 H568 0.952 . S
H568 C567 0.952 . S
H569 C565 0.950 . S
H570 C571 0.949 . S
C571 H570 0.949 . S
C571 C572 1.395 . S
C571 C573 1.391 . S
C572 C571 1.395 . S
C572 C575 1.390 . S
C573 C571 1.391 . S
C573 C577 1.387 . S
C573 C578 1.491 . S
H574 C575 0.950 . S
C575 C572 1.390 . S
C575 H574 0.950 . S
C575 C576 1.378 . S
C576 C575 1.378 . S
C576 C577 1.409 . S
C577 C573 1.387 . S
C577 C576 1.409 . S
C577 H579 0.951 . S
C578 C573 1.491 . S
C578 C580 1.382 . S
C578 C582 1.404 . S
H579 C577 0.951 . S
C580 C578 1.382 . S
C580 C581 1.390 . S
C580 H585 0.949 . S
C581 C580 1.390 . S
C581 C586 1.399 . S
C582 C578 1.404 . S
C582 H583 0.950 . S
C582 C584 1.375 . S
H583 C582 0.950 . S
C584 C582 1.375 . S
C584 C586 1.382 . S
C584 H588 0.950 . S
H585 C580 0.949 . S
C586 C581 1.399 . S
C586 C584 1.382 . S
C586 H587 0.952 . S
H587 C586 0.952 . S
H588 C584 0.950 . S
H589 C590 0.949 . S
C590 H589 0.949 . S
C590 C591 1.395 . S
C590 C592 1.391 . S
C591 C590 1.395 . S
C591 C594 1.390 . S
C592 C590 1.391 . S
C592 C596 1.387 . S
C592 C597 1.491 . S
H593 C594 0.950 . S
C594 C591 1.390 . S
C594 H593 0.950 . S
C594 C595 1.378 . S
C595 C594 1.378 . S
C595 C596 1.409 . S
C596 C592 1.387 . S
C596 C595 1.409 . S
C596 H598 0.951 . S
C597 C592 1.491 . S
C597 C599 1.382 . S
C597 C601 1.404 . S
H598 C596 0.951 . S
C599 C597 1.382 . S
C599 C600 1.390 . S
C599 H604 0.949 . S
C600 C599 1.390 . S
C600 C605 1.399 . S
C601 C597 1.404 . S
C601 H602 0.950 . S
C601 C603 1.375 . S
H602 C601 0.950 . S
C603 C601 1.375 . S
C603 C605 1.382 . S
C603 H607 0.950 . S
H604 C599 0.949 . S
C605 C600 1.399 . S
C605 C603 1.382 . S
C605 H606 0.952 . S
H606 C605 0.952 . S
H607 C603 0.950 . S
Cu608 N609 1.999 . S
Cu608 O614 1.974 1_554 S
Cu608 N619 1.985 . S
Cu608 O628 1.959 . S
N609 Cu608 1.999 . S
N609 C611 1.263 1_554 S
N609 C613 1.389 . S
N610 C611 1.358 . S
N610 C612 1.400 . S
C611 N609 1.263 1_556 S
C611 N610 1.358 . S
C611 H617 0.930 . S
C612 N610 1.400 . S
C612 C613 1.351 1_556 S
C612 H629 0.930 . S
C613 N609 1.389 . S
C613 C612 1.351 1_554 S
C613 H618 0.930 . S
O614 Cu608 1.974 1_556 S
O614 C624 1.282 . S
C615 O616 1.261 . S
C615 O628 1.251 . S
O616 C615 1.261 . S
H617 C611 0.930 . S
H618 C613 0.930 . S
N619 Cu608 1.985 . S
N619 C621 1.335 . S
N619 C622 1.390 . S
N620 C621 1.345 . S
N620 C623 1.336 . S
C621 N619 1.335 . S
C621 N620 1.345 . S
C621 H626 0.930 . S
C622 N619 1.390 . S
C622 C623 1.346 . S
C622 H627 0.930 . S
C623 N620 1.336 . S
C623 C622 1.346 . S
C623 H630 0.929 . S
C624 O614 1.282 . S
C624 O625 1.216 . S
O625 C624 1.216 . S
H626 C621 0.930 . S
H627 C622 0.930 . S
O628 Cu608 1.959 . S
O628 C615 1.251 . S
H629 C612 0.930 . S
H630 C623 0.929 . S
Cu631 N632 1.999 . S
Cu631 O637 1.974 . S
Cu631 N642 1.985 . S
Cu631 O651 1.912 1_554 S
N632 Cu631 1.999 . S
N632 C634 1.263 . S
N632 C636 1.389 . S
N633 C634 1.358 . S
N633 C635 1.400 . S
C634 N632 1.263 . S
C634 N633 1.358 . S
C634 H640 0.930 . S
C635 N633 1.400 . S
C635 C636 1.351 . S
C635 H652 0.930 . S
C636 N632 1.389 . S
C636 C635 1.351 . S
C636 H641 0.930 . S
O637 Cu631 1.974 . S
O637 C647 1.282 . S
C638 O639 1.261 1_556 S
C638 O651 1.274 . S
O639 C638 1.261 1_554 S
H640 C634 0.930 . S
H641 C636 0.930 . S
N642 Cu631 1.985 . S
N642 C644 1.335 1_554 S
N642 C645 1.390 . S
N643 C644 1.345 . S
N643 C646 1.336 . S
C644 N642 1.335 1_556 S
C644 N643 1.345 . S
C644 H649 0.930 . S
C645 N642 1.390 . S
C645 C646 1.346 1_554 S
C645 H650 0.930 . S
C646 N643 1.336 . S
C646 C645 1.346 1_556 S
C646 H653 0.929 . S
C647 O637 1.282 . S
C647 O648 1.216 . S
O648 C647 1.216 . S
H649 C644 0.930 . S
H650 C645 0.930 . S
O651 Cu631 1.912 1_556 S
O651 C638 1.274 . S
H652 C635 0.930 . S
H653 C646 0.929 . S
Cu654 N655 1.999 1_554 S
Cu654 O660 1.974 1_554 S
Cu654 N665 1.985 . S
Cu654 O674 1.959 . S
N655 Cu654 1.999 1_556 S
N655 C657 1.263 . S
N655 C659 1.389 . S
N656 C657 1.358 . S
N656 C658 1.400 . S
C657 N655 1.263 . S
C657 N656 1.358 . S
C657 H663 0.930 . S
C658 N656 1.400 . S
C658 C659 1.351 . S
C658 H675 0.930 . S
C659 N655 1.389 . S
C659 C658 1.351 . S
C659 H664 0.930 1_556 S
O660 Cu654 1.974 1_556 S
O660 C670 1.282 . S
C661 O662 1.261 . S
C661 O674 1.251 . S
O662 C661 1.261 . S
H663 C657 0.930 . S
H664 C659 0.930 1_554 S
N665 Cu654 1.985 . S
N665 C667 1.335 . S
N665 C668 1.390 . S
N666 C667 1.345 . S
N666 C669 1.336 . S
C667 N665 1.335 . S
C667 N666 1.345 . S
C667 H672 0.930 . S
C668 N665 1.390 . S
C668 C669 1.346 . S
C668 H673 0.930 . S
C669 N666 1.336 . S
C669 C668 1.346 . S
C669 H676 0.929 . S
C670 O660 1.282 . S
C670 O671 1.216 . S
O671 C670 1.216 . S
H672 C667 0.930 . S
H673 C668 0.930 . S
O674 Cu654 1.959 . S
O674 C661 1.251 . S
H675 C658 0.930 . S
H676 C669 0.929 . S
Cu677 N678 1.999 . S
Cu677 O683 1.974 . S
Cu677 N688 1.985 1_554 S
Cu677 O697 1.959 1_554 S
N678 Cu677 1.999 . S
N678 C680 1.263 . S
N678 C682 1.389 . S
N679 C680 1.358 . S
N679 C681 1.400 . S
C680 N678 1.263 . S
C680 N679 1.358 . S
C680 H686 0.930 . S
C681 N679 1.400 . S
C681 C682 1.351 . S
C681 H698 0.930 . S
C682 N678 1.389 . S
C682 C681 1.351 . S
C682 H687 0.930 . S
O683 Cu677 1.974 . S
O683 C693 1.282 . S
C684 O685 1.261 . S
C684 O697 1.251 . S
O685 C684 1.261 . S
H686 C680 0.930 . S
H687 C682 0.930 . S
N688 Cu677 1.985 1_556 S
N688 C690 1.335 . S
N688 C691 1.398 . S
N689 C690 1.345 . S
N689 C692 1.336 . S
C690 N688 1.335 . S
C690 N689 1.345 . S
C690 H695 0.930 . S
C691 N688 1.398 . S
C691 C692 1.373 . S
C691 H696 0.902 1_556 S
C692 N689 1.336 . S
C692 C691 1.373 . S
C692 H699 0.929 . S
C693 O683 1.282 . S
C693 O694 1.216 . S
O694 C693 1.216 . S
H695 C690 0.930 . S
H696 C691 0.902 1_554 S
O697 Cu677 1.959 1_556 S
O697 C684 1.251 . S
H698 C681 0.930 . S
H699 C692 0.929 . S
Cu700 N701 1.999 . S
Cu700 O706 1.974 . S
Cu700 N711 1.985 . S
Cu700 O720 1.959 1_455 S
N701 Cu700 1.999 . S
N701 C703 1.263 . S
N701 C705 1.389 . S
N702 C703 1.358 . S
N702 C704 1.400 . S
C703 N701 1.263 . S
C703 N702 1.358 . S
C703 H709 0.930 . S
C704 N702 1.400 . S
C704 C705 1.351 . S
C704 H721 0.930 . S
C705 N701 1.389 . S
C705 C704 1.351 . S
C705 H710 0.930 . S
O706 Cu700 1.974 . S
O706 C716 1.282 . S
C707 O708 1.261 . S
C707 O720 1.251 . S
O708 C707 1.261 . S
H709 C703 0.930 . S
H710 C705 0.930 . S
N711 Cu700 1.985 . S
N711 C713 1.335 1_455 S
N711 C714 1.390 . S
N712 C713 1.345 . S
N712 C715 1.336 . S
C713 N711 1.335 1_655 S
C713 N712 1.345 . S
C713 H718 0.930 . S
C714 N711 1.390 . S
C714 C715 1.346 1_455 S
C714 H719 0.930 . S
C715 N712 1.336 . S
C715 C714 1.346 1_655 S
C715 H722 0.929 . S
C716 O706 1.282 . S
C716 O717 1.216 . S
O717 C716 1.216 . S
H718 C713 0.930 . S
H719 C714 0.930 . S
O720 Cu700 1.959 1_655 S
O720 C707 1.251 . S
H721 C704 0.930 . S
H722 C715 0.929 . S
Cu723 N724 1.972 1_565 S
Cu723 O729 1.941 1_565 S
Cu723 N734 2.011 . S
Cu723 O743 1.992 . S
N724 Cu723 1.972 1_545 S
N724 C726 1.263 . S
N724 C728 1.389 . S
N725 C726 1.358 . S
N725 C727 1.400 . S
C726 N724 1.263 . S
C726 N725 1.358 . S
C726 H732 0.930 . S
C727 N725 1.400 . S
C727 C728 1.351 . S
C727 H744 0.930 . S
C728 N724 1.389 . S
C728 C727 1.351 . S
C728 H733 0.930 . S
O729 Cu723 1.941 1_545 S
O729 C739 1.282 . S
C730 O731 1.261 . S
C730 O743 1.251 . S
O731 C730 1.261 . S
H732 C726 0.930 . S
H733 C728 0.930 . S
N734 Cu723 2.011 . S
N734 C736 1.335 . S
N734 C737 1.390 . S
N735 C736 1.345 . S
N735 C738 1.336 . S
C736 N734 1.335 . S
C736 N735 1.345 . S
C736 H741 0.930 . S
C737 N734 1.390 . S
C737 C738 1.346 . S
C737 H742 0.930 . S
C738 N735 1.336 . S
C738 C737 1.346 . S
C738 H745 0.929 . S
C739 O729 1.282 . S
C739 O740 1.216 . S
O740 C739 1.216 . S
H741 C736 0.930 . S
H742 C737 0.930 . S
O743 Cu723 1.992 . S
O743 C730 1.251 . S
H744 C727 0.930 . S
H745 C738 0.929 . S
Cu746 N747 1.999 . S
Cu746 O752 1.974 . S
Cu746 N757 1.985 1_655 S
Cu746 O766 1.959 1_655 S
N747 Cu746 1.999 . S
N747 C749 1.263 . S
N747 C751 1.389 . S
N748 C749 1.358 . S
N748 C750 1.400 . S
C749 N747 1.263 . S
C749 N748 1.358 . S
C749 H755 0.930 . S
C750 N748 1.400 . S
C750 C751 1.351 . S
C750 H767 0.930 . S
C751 N747 1.389 . S
C751 C750 1.351 . S
C751 H756 0.930 . S
O752 Cu746 1.974 . S
O752 C762 1.282 . S
C753 O754 1.261 . S
C753 O766 1.251 . S
O754 C753 1.261 . S
H755 C749 0.930 . S
H756 C751 0.930 . S
N757 Cu746 1.985 1_455 S
N757 C759 1.335 . S
N757 C760 1.390 . S
N758 C759 1.345 . S
N758 C761 1.336 . S
C759 N757 1.335 . S
C759 N758 1.345 . S
C759 H764 0.930 . S
C760 N757 1.390 . S
C760 C761 1.346 . S
C760 H765 0.930 1_455 S
C761 N758 1.336 . S
C761 C760 1.346 . S
C761 H768 0.929 . S
C762 O752 1.282 . S
C762 O763 1.216 . S
O763 C762 1.216 . S
H764 C759 0.930 . S
H765 C760 0.930 1_655 S
O766 Cu746 1.959 1_455 S
O766 C753 1.251 . S
H767 C750 0.930 . S
H768 C761 0.929 . S
Cu769 N770 1.999 . S
Cu769 O775 1.974 . S
Cu769 N780 1.985 1_545 S
Cu769 O789 1.959 1_545 S
N770 Cu769 1.999 . S
N770 C772 1.263 . S
N770 C774 1.389 . S
N771 C772 1.358 . S
N771 C773 1.400 . S
C772 N770 1.263 . S
C772 N771 1.358 . S
C772 H778 0.930 . S
C773 N771 1.400 . S
C773 C774 1.351 . S
C773 H790 0.930 . S
C774 N770 1.389 . S
C774 C773 1.351 . S
C774 H779 0.930 . S
O775 Cu769 1.974 . S
O775 C785 1.282 . S
C776 O777 1.261 . S
C776 O789 1.251 . S
O777 C776 1.261 . S
H778 C772 0.930 . S
H779 C774 0.930 . S
N780 Cu769 1.985 1_565 S
N780 C782 1.335 . S
N780 C783 1.390 . S
N781 C782 1.345 . S
N781 C784 1.336 . S
C782 N780 1.335 . S
C782 N781 1.345 . S
C782 H787 0.930 . S
C783 N780 1.390 . S
C783 C784 1.346 . S
C783 H788 0.930 . S
C784 N781 1.336 . S
C784 C783 1.346 . S
C784 H791 0.929 . S
C785 O775 1.282 . S
C785 O786 1.216 . S
O786 C785 1.216 . S
H787 C782 0.930 . S
H788 C783 0.930 . S
O789 Cu769 1.959 1_565 S
O789 C776 1.251 . S
H790 C773 0.930 . S
H791 C784 0.929 . S
Cu792 N793 1.999 . S
Cu792 O798 1.974 . S
Cu792 N803 1.985 . S
Cu792 O812 1.959 1_455 S
N793 Cu792 1.999 . S
N793 C795 1.263 . S
N793 C797 1.389 . S
N794 C795 1.358 . S
N794 C796 1.400 . S
C795 N793 1.263 . S
C795 N794 1.358 . S
C795 H801 0.930 . S
C796 N794 1.400 . S
C796 C797 1.351 . S
C796 H813 0.930 . S
C797 N793 1.389 . S
C797 C796 1.351 . S
C797 H802 0.930 . S
O798 Cu792 1.974 . S
O798 C808 1.282 . S
C799 O800 1.261 . S
C799 O812 1.251 . S
O800 C799 1.261 . S
H801 C795 0.930 . S
H802 C797 0.930 . S
N803 Cu792 1.985 . S
N803 C805 1.335 1_455 S
N803 C806 1.390 . S
N804 C805 1.345 . S
N804 C807 1.324 1_655 S
C805 N803 1.335 1_655 S
C805 N804 1.345 . S
C805 H810 0.930 . S
C806 N803 1.390 . S
C806 C807 1.362 . S
C806 H811 0.930 . S
C807 N804 1.324 1_455 S
C807 C806 1.362 . S
C807 H814 0.929 . S
C808 O798 1.282 . S
C808 O809 1.216 . S
O809 C808 1.216 . S
H810 C805 0.930 . S
H811 C806 0.930 . S
O812 Cu792 1.959 1_655 S
O812 C799 1.251 . S
H813 C796 0.930 . S
H814 C807 0.929 . S
Cu815 N816 1.999 . S
Cu815 O821 1.974 . S
Cu815 N826 1.985 1_545 S
Cu815 O835 1.959 1_545 S
N816 Cu815 1.999 . S
N816 C818 1.263 . S
N816 C820 1.389 . S
N817 C818 1.358 . S
N817 C819 1.400 . S
C818 N816 1.263 . S
C818 N817 1.358 . S
C818 H824 0.930 . S
C819 N817 1.400 . S
C819 C820 1.351 . S
C819 H836 0.930 . S
C820 N816 1.389 . S
C820 C819 1.351 . S
C820 H825 0.930 . S
O821 Cu815 1.974 . S
O821 C831 1.282 . S
C822 O823 1.261 1_565 S
C822 O835 1.251 . S
O823 C822 1.261 1_545 S
H824 C818 0.930 . S
H825 C820 0.930 . S
N826 Cu815 1.985 1_565 S
N826 C828 1.335 . S
N826 C829 1.390 . S
N827 C828 1.345 . S
N827 C830 1.336 . S
C828 N826 1.335 . S
C828 N827 1.345 . S
C828 H833 0.930 . S
C829 N826 1.390 . S
C829 C830 1.346 . S
C829 H834 0.930 1_565 S
C830 N827 1.336 . S
C830 C829 1.346 . S
C830 H837 0.929 . S
C831 O821 1.282 . S
C831 O832 1.216 . S
O832 C831 1.216 . S
H833 C828 0.930 . S
H834 C829 0.930 1_545 S
O835 Cu815 1.959 1_565 S
O835 C822 1.251 . S
H836 C819 0.930 . S
H837 C830 0.929 . S
Cu838 N839 1.999 . S
Cu838 O844 1.974 . S
Cu838 N849 1.985 . S
Cu838 O858 1.959 . S
N839 Cu838 1.999 . S
N839 C841 1.263 1_455 S
N839 C843 1.389 . S
N840 C841 1.358 . S
N840 C842 1.381 1_655 S
C841 N839 1.263 1_655 S
C841 N840 1.358 . S
C841 H847 0.930 . S
C842 N840 1.381 1_455 S
C842 C843 1.379 . S
C842 H859 0.924 1_455 S
C843 N839 1.389 . S
C843 C842 1.379 . S
C843 H848 0.930 . S
O844 Cu838 1.974 . S
O844 C854 1.282 1_455 S
C845 O846 1.261 . S
C845 O858 1.251 . S
O846 C845 1.261 . S
H847 C841 0.930 . S
H848 C843 0.930 . S
N849 Cu838 1.985 . S
N849 C851 1.335 . S
N849 C852 1.390 . S
N850 C851 1.345 . S
N850 C853 1.336 . S
C851 N849 1.335 . S
C851 N850 1.345 . S
C851 H856 0.930 . S
C852 N849 1.390 . S
C852 C853 1.346 . S
C852 H857 0.930 . S
C853 N850 1.336 . S
C853 C852 1.346 . S
C853 H860 0.929 . S
C854 O844 1.282 1_655 S
C854 O855 1.216 1_655 S
O855 C854 1.216 1_455 S
H856 C851 0.930 . S
H857 C852 0.930 . S
O858 Cu838 1.959 . S
O858 C845 1.251 . S
H859 C842 0.924 1_655 S
H860 C853 0.929 . S
Cu861 N862 1.999 . S
Cu861 O867 1.974 . S
Cu861 N872 1.985 . S
Cu861 O881 1.959 . S
N862 Cu861 1.999 . S
N862 C864 1.263 . S
N862 C866 1.389 . S
N863 C864 1.358 . S
N863 C865 1.400 . S
C864 N862 1.263 . S
C864 N863 1.358 . S
C864 H870 0.930 . S
C865 N863 1.400 . S
C865 C866 1.351 . S
C865 H882 0.930 . S
C866 N862 1.389 . S
C866 C865 1.351 . S
C866 H871 0.930 . S
O867 Cu861 1.974 . S
O867 C877 1.282 . S
C868 O869 1.266 . S
C868 O881 1.256 . S
O869 C868 1.266 . S
H870 C864 0.930 . S
H871 C866 0.930 . S
N872 Cu861 1.985 . S
N872 C874 1.335 1_545 S
N872 C875 1.396 1_545 S
N873 C874 1.345 . S
N873 C876 1.336 . S
C874 N872 1.335 1_565 S
C874 N873 1.345 . S
C874 H879 0.930 . S
C875 N872 1.396 1_565 S
C875 C876 1.371 . S
C875 H880 0.905 1_565 S
C876 N873 1.336 . S
C876 C875 1.371 . S
C876 H883 0.929 . S
C877 O867 1.282 . S
C877 O878 1.216 . S
O878 C877 1.216 . S
H879 C874 0.930 . S
H880 C875 0.905 1_545 S
O881 Cu861 1.959 . S
O881 C868 1.256 . S
H882 C865 0.930 . S
H883 C876 0.929 . S
Cu884 N885 1.999 . S
Cu884 O890 1.974 . S
Cu884 N895 1.985 . S
Cu884 O904 1.959 . S
N885 Cu884 1.999 . S
N885 C887 1.263 . S
N885 C889 1.389 . S
N886 C887 1.358 . S
N886 C888 1.400 . S
C887 N885 1.263 . S
C887 N886 1.358 . S
C887 H893 0.930 . S
C888 N886 1.400 . S
C888 C889 1.351 . S
C888 H905 0.930 . S
C889 N885 1.389 . S
C889 C888 1.351 . S
C889 H894 0.930 . S
O890 Cu884 1.974 . S
O890 C900 1.282 . S
C891 O892 1.261 . S
C891 O904 1.251 . S
O892 C891 1.261 . S
H893 C887 0.930 . S
H894 C889 0.930 . S
N895 Cu884 1.985 . S
N895 C897 1.335 . S
N895 C898 1.390 . S
N896 C897 1.345 . S
N896 C899 1.336 . S
C897 N895 1.335 . S
C897 N896 1.345 . S
C897 H902 0.930 . S
C898 N895 1.390 . S
C898 C899 1.346 . S
C898 H903 0.930 . S
C899 N896 1.336 . S
C899 C898 1.346 . S
C899 H906 0.929 . S
C900 O890 1.282 . S
C900 O901 1.216 . S
O901 C900 1.216 . S
H902 C897 0.930 . S
H903 C898 0.930 . S
O904 Cu884 1.959 . S
O904 C891 1.251 . S
H905 C888 0.930 . S
H906 C899 0.929 . S
Cu907 N908 1.999 . S
Cu907 O913 1.974 . S
Cu907 N918 1.985 . S
Cu907 O927 1.959 . S
N908 Cu907 1.999 . S
N908 C910 1.263 . S
N908 C912 1.389 . S
N909 C910 1.358 . S
N909 C911 1.400 . S
C910 N908 1.263 . S
C910 N909 1.358 . S
C910 H916 0.930 . S
C911 N909 1.400 . S
C911 C912 1.351 . S
C911 H928 0.930 . S
C912 N908 1.389 . S
C912 C911 1.351 . S
C912 H917 0.930 . S
O913 Cu907 1.974 . S
O913 C923 1.282 . S
C914 O915 1.261 . S
C914 O927 1.251 . S
O915 C914 1.261 . S
H916 C910 0.930 . S
H917 C912 0.930 . S
N918 Cu907 1.985 . S
N918 C920 1.335 . S
N918 C921 1.390 . S
N919 C920 1.345 . S
N919 C922 1.336 . S
C920 N918 1.335 . S
C920 N919 1.345 . S
C920 H925 0.930 . S
C921 N918 1.390 . S
C921 C922 1.346 . S
C921 H926 0.930 . S
C922 N919 1.336 . S
C922 C921 1.346 . S
C922 H929 0.929 . S
C923 O913 1.282 . S
C923 O924 1.216 . S
O924 C923 1.216 . S
H925 C920 0.930 . S
H926 C921 0.930 . S
O927 Cu907 1.959 . S
O927 C914 1.251 . S
H928 C911 0.930 . S
H929 C922 0.929 . S
Cu930 N931 1.999 . S
Cu930 O936 1.974 . S
Cu930 N941 1.985 . S
Cu930 O950 1.959 . S
N931 Cu930 1.999 . S
N931 C933 1.263 . S
N931 C935 1.389 . S
N932 C933 1.358 . S
N932 C934 1.400 . S
C933 N931 1.263 . S
C933 N932 1.358 . S
C933 H939 0.930 . S
C934 N932 1.400 . S
C934 C935 1.351 . S
C934 H951 0.930 . S
C935 N931 1.389 . S
C935 C934 1.351 . S
C935 H940 0.930 . S
O936 Cu930 1.974 . S
O936 C946 1.282 . S
C937 O938 1.261 . S
C937 O950 1.251 . S
O938 C937 1.261 . S
H939 C933 0.930 . S
H940 C935 0.930 . S
N941 Cu930 1.985 . S
N941 C943 1.335 . S
N941 C944 1.390 . S
N942 C943 1.345 . S
N942 C945 1.336 . S
C943 N941 1.335 . S
C943 N942 1.345 . S
C943 H948 0.930 . S
C944 N941 1.390 . S
C944 C945 1.346 . S
C944 H949 0.930 . S
C945 N942 1.336 . S
C945 C944 1.346 . S
C945 H952 0.929 . S
C946 O936 1.282 . S
C946 O947 1.216 . S
O947 C946 1.216 . S
H948 C943 0.930 . S
H949 C944 0.930 . S
O950 Cu930 1.959 . S
O950 C937 1.251 . S
H951 C934 0.930 . S
H952 C945 0.929 . S
Cu953 N954 1.999 . S
Cu953 O959 1.974 . S
Cu953 N964 1.985 . S
Cu953 O973 1.959 . S
N954 Cu953 1.999 . S
N954 C956 1.263 . S
N954 C958 1.389 . S
N955 C956 1.358 . S
N955 C957 1.400 . S
C956 N954 1.263 . S
C956 N955 1.358 . S
C956 H962 0.930 . S
C957 N955 1.400 . S
C957 C958 1.351 . S
C957 H974 0.930 . S
C958 N954 1.389 . S
C958 C957 1.351 . S
C958 H963 0.930 . S
O959 Cu953 1.974 . S
O959 C969 1.282 . S
C960 O961 1.261 . S
C960 O973 1.251 . S
O961 C960 1.261 . S
H962 C956 0.930 . S
H963 C958 0.930 . S
N964 Cu953 1.985 . S
N964 C966 1.335 . S
N964 C967 1.390 . S
N965 C966 1.345 . S
N965 C968 1.336 . S
C966 N964 1.335 . S
C966 N965 1.345 . S
C966 H971 0.930 . S
C967 N964 1.390 . S
C967 C968 1.346 . S
C967 H972 0.930 . S
C968 N965 1.336 . S
C968 C967 1.346 . S
C968 H975 0.929 . S
C969 O959 1.282 . S
C969 O970 1.216 . S
O970 C969 1.216 . S
H971 C966 0.930 . S
H972 C967 0.930 . S
O973 Cu953 1.959 . S
O973 C960 1.251 . S
H974 C957 0.930 . S
H975 C968 0.929 . S
Cu976 N977 1.999 . S
Cu976 O982 1.974 . S
Cu976 N987 1.985 . S
Cu976 O996 1.959 . S
N977 Cu976 1.999 . S
N977 C979 1.263 . S
N977 C981 1.389 . S
N978 C979 1.358 . S
N978 C980 1.400 . S
C979 N977 1.263 . S
C979 N978 1.358 . S
C979 H985 0.930 . S
C980 N978 1.400 . S
C980 C981 1.351 . S
C980 H997 0.930 . S
C981 N977 1.389 . S
C981 C980 1.351 . S
C981 H986 0.930 . S
O982 Cu976 1.974 . S
O982 C992 1.282 . S
C983 O984 1.261 . S
C983 O996 1.251 . S
O984 C983 1.261 . S
H985 C979 0.930 . S
H986 C981 0.930 . S
N987 Cu976 1.985 . S
N987 C989 1.335 . S
N987 C990 1.390 . S
N988 C989 1.345 . S
N988 C991 1.336 . S
C989 N987 1.335 . S
C989 N988 1.345 . S
C989 H994 0.930 . S
C990 N987 1.390 . S
C990 C991 1.346 . S
C990 H995 0.930 . S
C991 N988 1.336 . S
C991 C990 1.346 . S
C991 H998 0.929 . S
C992 O982 1.282 . S
C992 O993 1.216 . S
O993 C992 1.216 . S
H994 C989 0.930 . S
H995 C990 0.930 . S
O996 Cu976 1.959 . S
O996 C983 1.251 . S
H997 C980 0.930 . S
H998 C991 0.929 . S
Cu999 N1000 1.999 . S
Cu999 O1005 1.974 . S
Cu999 N1010 1.985 . S
Cu999 O1019 1.959 . S
N1000 Cu999 1.999 . S
N1000 C1002 1.263 . S
N1000 C1004 1.389 . S
N1001 C1002 1.358 . S
N1001 C1003 1.400 . S
C1002 N1000 1.263 . S
C1002 N1001 1.358 . S
C1002 H1008 0.930 . S
C1003 N1001 1.400 . S
C1003 C1004 1.351 . S
C1003 H1020 0.930 . S
C1004 N1000 1.389 . S
C1004 C1003 1.351 . S
C1004 H1009 0.930 . S
O1005 Cu999 1.974 . S
O1005 C1015 1.282 . S
C1006 O1007 1.261 . S
C1006 O1019 1.251 . S
O1007 C1006 1.261 . S
H1008 C1002 0.930 . S
H1009 C1004 0.930 . S
N1010 Cu999 1.985 . S
N1010 C1012 1.335 . S
N1010 C1013 1.390 . S
N1011 C1012 1.345 . S
N1011 C1014 1.336 . S
C1012 N1010 1.335 . S
C1012 N1011 1.345 . S
C1012 H1017 0.930 . S
C1013 N1010 1.390 . S
C1013 C1014 1.346 . S
C1013 H1018 0.930 . S
C1014 N1011 1.336 . S
C1014 C1013 1.346 . S
C1014 H1021 0.929 . S
C1015 O1005 1.282 . S
C1015 O1016 1.216 . S
O1016 C1015 1.216 . S
H1017 C1012 0.930 . S
H1018 C1013 0.930 . S
O1019 Cu999 1.959 . S
O1019 C1006 1.251 . S
H1020 C1003 0.930 . S
H1021 C1014 0.929 . S
Cu1022 N1023 1.999 . S
Cu1022 O1028 1.974 . S
Cu1022 N1033 1.985 . S
Cu1022 O1042 1.959 . S
N1023 Cu1022 1.999 . S
N1023 C1025 1.263 . S
N1023 C1027 1.389 . S
N1024 C1025 1.358 . S
N1024 C1026 1.400 . S
C1025 N1023 1.263 . S
C1025 N1024 1.358 . S
C1025 H1031 0.930 . S
C1026 N1024 1.400 . S
C1026 C1027 1.351 . S
C1026 H1043 0.930 . S
C1027 N1023 1.389 . S
C1027 C1026 1.351 . S
C1027 H1032 0.930 . S
O1028 Cu1022 1.974 . S
O1028 C1038 1.282 . S
C1029 O1030 1.261 . S
C1029 O1042 1.251 . S
O1030 C1029 1.261 . S
H1031 C1025 0.930 . S
H1032 C1027 0.930 . S
N1033 Cu1022 1.985 . S
N1033 C1035 1.335 . S
N1033 C1036 1.390 . S
N1034 C1035 1.345 . S
N1034 C1037 1.336 . S
C1035 N1033 1.335 . S
C1035 N1034 1.345 . S
C1035 H1040 0.930 . S
C1036 N1033 1.390 . S
C1036 C1037 1.346 . S
C1036 H1041 0.930 . S
C1037 N1034 1.336 . S
C1037 C1036 1.346 . S
C1037 H1044 0.929 . S
C1038 O1028 1.282 . S
C1038 O1039 1.216 . S
O1039 C1038 1.216 . S
H1040 C1035 0.930 . S
H1041 C1036 0.930 . S
O1042 Cu1022 1.959 . S
O1042 C1029 1.251 . S
H1043 C1026 0.930 . S
H1044 C1037 0.929 . S
Cu1045 N1046 1.999 . S
Cu1045 O1051 1.974 . S
Cu1045 N1056 1.985 . S
Cu1045 O1065 1.959 . S
N1046 Cu1045 1.999 . S
N1046 C1048 1.263 . S
N1046 C1050 1.389 . S
N1047 C1048 1.358 . S
N1047 C1049 1.400 . S
C1048 N1046 1.263 . S
C1048 N1047 1.358 . S
C1048 H1054 0.930 . S
C1049 N1047 1.400 . S
C1049 C1050 1.351 . S
C1049 H1066 0.930 . S
C1050 N1046 1.389 . S
C1050 C1049 1.351 . S
C1050 H1055 0.930 . S
O1051 Cu1045 1.974 . S
O1051 C1061 1.282 . S
C1052 O1053 1.261 . S
C1052 O1065 1.251 . S
O1053 C1052 1.261 . S
H1054 C1048 0.930 . S
H1055 C1050 0.930 . S
N1056 Cu1045 1.985 . S
N1056 C1058 1.335 . S
N1056 C1059 1.390 . S
N1057 C1058 1.345 . S
N1057 C1060 1.336 . S
C1058 N1056 1.335 . S
C1058 N1057 1.345 . S
C1058 H1063 0.930 . S
C1059 N1056 1.390 . S
C1059 C1060 1.346 . S
C1059 H1064 0.930 . S
C1060 N1057 1.336 . S
C1060 C1059 1.346 . S
C1060 H1067 0.929 . S
C1061 O1051 1.282 . S
C1061 O1062 1.216 . S
O1062 C1061 1.216 . S
H1063 C1058 0.930 . S
H1064 C1059 0.930 . S
O1065 Cu1045 1.959 . S
O1065 C1052 1.251 . S
H1066 C1049 0.930 . S
H1067 C1060 0.929 . S
Cu1068 N1069 1.999 . S
Cu1068 O1074 1.974 . S
Cu1068 N1079 1.985 . S
Cu1068 O1088 1.959 . S
N1069 Cu1068 1.999 . S
N1069 C1071 1.263 . S
N1069 C1073 1.389 . S
N1070 C1071 1.358 . S
N1070 C1072 1.400 . S
C1071 N1069 1.263 . S
C1071 N1070 1.358 . S
C1071 H1077 0.930 . S
C1072 N1070 1.400 . S
C1072 C1073 1.351 . S
C1072 H1089 0.930 . S
C1073 N1069 1.389 . S
C1073 C1072 1.351 . S
C1073 H1078 0.930 . S
O1074 Cu1068 1.974 . S
O1074 C1084 1.282 . S
C1075 O1076 1.261 . S
C1075 O1088 1.251 . S
O1076 C1075 1.261 . S
H1077 C1071 0.930 . S
H1078 C1073 0.930 . S
N1079 Cu1068 1.985 . S
N1079 C1081 1.335 . S
N1079 C1082 1.390 . S
N1080 C1081 1.345 . S
N1080 C1083 1.336 . S
C1081 N1079 1.335 . S
C1081 N1080 1.345 . S
C1081 H1086 0.930 . S
C1082 N1079 1.390 . S
C1082 C1083 1.346 . S
C1082 H1087 0.930 . S
C1083 N1080 1.336 . S
C1083 C1082 1.346 . S
C1083 H1090 0.929 . S
C1084 O1074 1.282 . S
C1084 O1085 1.216 . S
O1085 C1084 1.216 . S
H1086 C1081 0.930 . S
H1087 C1082 0.930 . S
O1088 Cu1068 1.959 . S
O1088 C1075 1.251 . S
H1089 C1072 0.930 . S
H1090 C1083 0.929 . S
Cu1091 N1092 1.999 . S
Cu1091 O1097 1.974 . S
Cu1091 N1102 1.985 . S
Cu1091 O1111 1.959 . S
N1092 Cu1091 1.999 . S
N1092 C1094 1.263 . S
N1092 C1096 1.389 . S
N1093 C1094 1.358 . S
N1093 C1095 1.400 . S
C1094 N1092 1.263 . S
C1094 N1093 1.358 . S
C1094 H1100 0.930 . S
C1095 N1093 1.400 . S
C1095 C1096 1.351 . S
C1095 H1112 0.930 . S
C1096 N1092 1.389 . S
C1096 C1095 1.351 . S
C1096 H1101 0.930 . S
O1097 Cu1091 1.974 . S
O1097 C1107 1.282 . S
C1098 O1099 1.261 . S
C1098 O1111 1.251 . S
O1099 C1098 1.261 . S
H1100 C1094 0.930 . S
H1101 C1096 0.930 . S
N1102 Cu1091 1.985 . S
N1102 C1104 1.335 . S
N1102 C1105 1.390 . S
N1103 C1104 1.345 . S
N1103 C1106 1.336 . S
C1104 N1102 1.335 . S
C1104 N1103 1.345 . S
C1104 H1109 0.930 . S
C1105 N1102 1.390 . S
C1105 C1106 1.346 . S
C1105 H1110 0.930 . S
C1106 N1103 1.336 . S
C1106 C1105 1.346 . S
C1106 H1113 0.929 . S
C1107 O1097 1.282 . S
C1107 O1108 1.216 . S
O1108 C1107 1.216 . S
H1109 C1104 0.930 . S
H1110 C1105 0.930 . S
O1111 Cu1091 1.959 . S
O1111 C1098 1.251 . S
H1112 C1095 0.930 . S
H1113 C1106 0.929 . S
Cu1114 N1115 1.999 . S
Cu1114 O1120 1.974 . S
Cu1114 N1125 1.985 . S
Cu1114 O1134 1.959 . S
N1115 Cu1114 1.999 . S
N1115 C1117 1.263 . S
N1115 C1119 1.389 . S
N1116 C1117 1.358 . S
N1116 C1118 1.400 . S
C1117 N1115 1.263 . S
C1117 N1116 1.358 . S
C1117 H1123 0.930 . S
C1118 N1116 1.400 . S
C1118 C1119 1.351 . S
C1118 H1135 0.930 . S
C1119 N1115 1.389 . S
C1119 C1118 1.351 . S
C1119 H1124 0.930 . S
O1120 Cu1114 1.974 . S
O1120 C1130 1.282 . S
C1121 O1122 1.261 . S
C1121 O1134 1.251 . S
O1122 C1121 1.261 . S
H1123 C1117 0.930 . S
H1124 C1119 0.930 . S
N1125 Cu1114 1.985 . S
N1125 C1127 1.335 . S
N1125 C1128 1.390 . S
N1126 C1127 1.345 . S
N1126 C1129 1.336 . S
C1127 N1125 1.335 . S
C1127 N1126 1.345 . S
C1127 H1132 0.930 . S
C1128 N1125 1.390 . S
C1128 C1129 1.346 . S
C1128 H1133 0.930 . S
C1129 N1126 1.336 . S
C1129 C1128 1.346 . S
C1129 H1136 0.929 . S
C1130 O1120 1.282 . S
C1130 O1131 1.216 . S
O1131 C1130 1.216 . S
H1132 C1127 0.930 . S
H1133 C1128 0.930 . S
O1134 Cu1114 1.959 . S
O1134 C1121 1.251 . S
H1135 C1118 0.930 . S
H1136 C1129 0.929 . S
Cu1137 N1138 1.999 . S
Cu1137 O1143 1.974 . S
Cu1137 N1148 1.985 . S
Cu1137 O1157 1.959 . S
N1138 Cu1137 1.999 . S
N1138 C1140 1.263 . S
N1138 C1142 1.389 . S
N1139 C1140 1.358 . S
N1139 C1141 1.400 . S
C1140 N1138 1.263 . S
C1140 N1139 1.358 . S
C1140 H1146 0.930 . S
C1141 N1139 1.400 . S
C1141 C1142 1.351 . S
C1141 H1158 0.930 . S
C1142 N1138 1.389 . S
C1142 C1141 1.351 . S
C1142 H1147 0.930 . S
O1143 Cu1137 1.974 . S
O1143 C1153 1.282 . S
C1144 O1145 1.261 . S
C1144 O1157 1.251 . S
O1145 C1144 1.261 . S
H1146 C1140 0.930 . S
H1147 C1142 0.930 . S
N1148 Cu1137 1.985 . S
N1148 C1150 1.335 . S
N1148 C1151 1.390 . S
N1149 C1150 1.345 . S
N1149 C1152 1.336 . S
C1150 N1148 1.335 . S
C1150 N1149 1.345 . S
C1150 H1155 0.930 . S
C1151 N1148 1.390 . S
C1151 C1152 1.346 . S
C1151 H1156 0.930 . S
C1152 N1149 1.336 . S
C1152 C1151 1.346 . S
C1152 H1159 0.929 . S
C1153 O1143 1.282 . S
C1153 O1154 1.216 . S
O1154 C1153 1.216 . S
H1155 C1150 0.930 . S
H1156 C1151 0.930 . S
O1157 Cu1137 1.959 . S
O1157 C1144 1.251 . S
H1158 C1141 0.930 . S
H1159 C1152 0.929 . S
H1160 C1168 0.950 . S
H1161 C1173 0.950 . S
H1162 C1170 0.950 . S
H1163 C1172 0.950 . S
H1164 C1174 0.950 . S
H1165 C1176 0.950 . S
H1166 C1178 0.950 . S
H1167 C1179 0.950 . S
C1168 H1160 0.950 . S
C1168 C1169 1.386 . S
C1168 C1170 1.391 . S
C1169 C1168 1.386 . S
C1169 C1173 1.393 . S
C1170 H1162 0.950 . S
C1170 C1168 1.391 . S
C1170 C1171 1.400 . S
C1171 C1170 1.400 . S
C1171 C1172 1.398 . S
C1171 C1177 1.491 . S
C1172 H1163 0.950 . S
C1172 C1171 1.398 . S
C1172 C1173 1.391 . S
C1173 H1161 0.950 . S
C1173 C1169 1.393 . S
C1173 C1172 1.391 . S
C1174 H1164 0.950 . S
C1174 C1175 1.386 . S
C1174 C1176 1.391 . S
C1175 C1174 1.386 . S
C1175 C1179 1.393 . S
C1176 H1165 0.950 . S
C1176 C1174 1.391 . S
C1176 C1177 1.400 . S
C1177 C1171 1.491 . S
C1177 C1176 1.400 . S
C1177 C1178 1.398 . S
C1178 H1166 0.950 . S
C1178 C1177 1.398 . S
C1178 C1179 1.391 . S
C1179 H1167 0.950 . S
C1179 C1175 1.393 . S
C1179 C1178 1.391 . S
H1180 C1188 0.950 . S
H1181 C1193 0.950 . S
H1182 C1190 0.950 . S
H1183 C1192 0.950 . S
H1184 C1194 0.950 . S
H1185 C1196 0.950 . S
H1186 C1198 0.950 . S
H1187 C1199 0.950 . S
C1188 H1180 0.950 . S
C1188 C1189 1.386 . S
C1188 C1190 1.391 . S
C1189 C1188 1.386 . S
C1189 C1193 1.393 . S
C1190 H1182 0.950 . S
C1190 C1188 1.391 . S
C1190 C1191 1.400 . S
C1191 C1190 1.400 . S
C1191 C1192 1.398 . S
C1191 C1197 1.491 . S
C1192 H1183 0.950 . S
C1192 C1191 1.398 . S
C1192 C1193 1.391 . S
C1193 H1181 0.950 . S
C1193 C1189 1.393 . S
C1193 C1192 1.391 . S
C1194 H1184 0.950 . S
C1194 C1195 1.386 . S
C1194 C1196 1.391 . S
C1195 C1194 1.386 . S
C1195 C1199 1.393 . S
C1196 H1185 0.950 . S
C1196 C1194 1.391 . S
C1196 C1197 1.400 . S
C1197 C1191 1.491 . S
C1197 C1196 1.400 . S
C1197 C1198 1.398 . S
C1198 H1186 0.950 . S
C1198 C1197 1.398 . S
C1198 C1199 1.391 . S
C1199 H1187 0.950 . S
C1199 C1195 1.393 . S
C1199 C1198 1.391 . S
H1200 C1208 0.950 . S
H1201 C1213 0.950 . S
H1202 C1210 0.950 . S
H1203 C1212 0.950 . S
H1204 C1214 0.950 . S
H1205 C1216 0.950 . S
H1206 C1218 0.950 . S
H1207 C1219 0.950 . S
C1208 H1200 0.950 . S
C1208 C1209 1.386 . S
C1208 C1210 1.391 . S
C1209 C1208 1.386 . S
C1209 C1213 1.393 . S
C1210 H1202 0.950 . S
C1210 C1208 1.391 . S
C1210 C1211 1.400 . S
C1211 C1210 1.400 . S
C1211 C1212 1.398 . S
C1211 C1217 1.491 . S
C1212 H1203 0.950 . S
C1212 C1211 1.398 . S
C1212 C1213 1.391 . S
C1213 H1201 0.950 . S
C1213 C1209 1.393 . S
C1213 C1212 1.391 . S
C1214 H1204 0.950 . S
C1214 C1215 1.386 . S
C1214 C1216 1.391 . S
C1215 C1214 1.386 . S
C1215 C1219 1.393 . S
C1216 H1205 0.950 . S
C1216 C1214 1.391 . S
C1216 C1217 1.400 . S
C1217 C1211 1.491 . S
C1217 C1216 1.400 . S
C1217 C1218 1.398 . S
C1218 H1206 0.950 . S
C1218 C1217 1.398 . S
C1218 C1219 1.391 . S
C1219 H1207 0.950 . S
C1219 C1215 1.393 . S
C1219 C1218 1.391 . S
H1220 C1228 0.950 . S
H1221 C1233 0.950 . S
H1222 C1230 0.950 . S
H1223 C1232 0.950 . S
H1224 C1234 0.950 . S
H1225 C1236 0.950 . S
H1226 C1238 0.950 . S
H1227 C1239 0.950 . S
C1228 H1220 0.950 . S
C1228 C1229 1.386 . S
C1228 C1230 1.391 . S
C1229 C1228 1.386 . S
C1229 C1233 1.393 . S
C1230 H1222 0.950 . S
C1230 C1228 1.391 . S
C1230 C1231 1.400 . S
C1231 C1230 1.400 . S
C1231 C1232 1.398 . S
C1231 C1237 1.491 . S
C1232 H1223 0.950 . S
C1232 C1231 1.398 . S
C1232 C1233 1.391 . S
C1233 H1221 0.950 . S
C1233 C1229 1.393 . S
C1233 C1232 1.391 . S
C1234 H1224 0.950 . S
C1234 C1235 1.386 . S
C1234 C1236 1.391 . S
C1235 C1234 1.386 . S
C1235 C1239 1.393 . S
C1236 H1225 0.950 . S
C1236 C1234 1.391 . S
C1236 C1237 1.400 . S
C1237 C1231 1.491 . S
C1237 C1236 1.400 . S
C1237 C1238 1.398 . S
C1238 H1226 0.950 . S
C1238 C1237 1.398 . S
C1238 C1239 1.391 . S
C1239 H1227 0.950 . S
C1239 C1235 1.393 . S
C1239 C1238 1.391 . S
H1240 C1248 0.950 . S
H1241 C1253 0.950 . S
H1242 C1250 0.950 . S
H1243 C1252 0.950 . S
H1244 C1254 0.950 . S
H1245 C1256 0.950 . S
H1246 C1258 0.950 . S
H1247 C1259 0.950 . S
C1248 H1240 0.950 . S
C1248 C1249 1.386 . S
C1248 C1250 1.391 . S
C1249 C1248 1.386 . S
C1249 C1253 1.393 . S
C1250 H1242 0.950 . S
C1250 C1248 1.391 . S
C1250 C1251 1.400 . S
C1251 C1250 1.400 . S
C1251 C1252 1.398 . S
C1251 C1257 1.491 . S
C1252 H1243 0.950 . S
C1252 C1251 1.398 . S
C1252 C1253 1.391 . S
C1253 H1241 0.950 . S
C1253 C1249 1.393 . S
C1253 C1252 1.391 . S
C1254 H1244 0.950 . S
C1254 C1255 1.386 . S
C1254 C1256 1.391 . S
C1255 C1254 1.386 . S
C1255 C1259 1.393 . S
C1256 H1245 0.950 . S
C1256 C1254 1.391 . S
C1256 C1257 1.400 . S
C1257 C1251 1.491 . S
C1257 C1256 1.400 . S
C1257 C1258 1.398 . S
C1258 H1246 0.950 . S
C1258 C1257 1.398 . S
C1258 C1259 1.391 . S
C1259 H1247 0.950 . S
C1259 C1255 1.393 . S
C1259 C1258 1.391 . S
H1260 C1268 0.950 . S
H1261 C1273 0.950 . S
H1262 C1270 0.950 . S
H1263 C1272 0.950 . S
H1264 C1274 0.950 . S
H1265 C1276 0.950 . S
H1266 C1278 0.950 . S
H1267 C1279 0.950 . S
C1268 H1260 0.950 . S
C1268 C1269 1.386 . S
C1268 C1270 1.391 . S
C1269 C1268 1.386 . S
C1269 C1273 1.393 . S
C1270 H1262 0.950 . S
C1270 C1268 1.391 . S
C1270 C1271 1.400 . S
C1271 C1270 1.400 . S
C1271 C1272 1.398 . S
C1271 C1277 1.491 . S
C1272 H1263 0.950 . S
C1272 C1271 1.398 . S
C1272 C1273 1.391 . S
C1273 H1261 0.950 . S
C1273 C1269 1.393 . S
C1273 C1272 1.391 . S
C1274 H1264 0.950 . S
C1274 C1275 1.386 . S
C1274 C1276 1.391 . S
C1275 C1274 1.386 . S
C1275 C1279 1.393 . S
C1276 H1265 0.950 . S
C1276 C1274 1.391 . S
C1276 C1277 1.400 . S
C1277 C1271 1.491 . S
C1277 C1276 1.400 . S
C1277 C1278 1.398 . S
C1278 H1266 0.950 . S
C1278 C1277 1.398 . S
C1278 C1279 1.391 . S
C1279 H1267 0.950 . S
C1279 C1275 1.393 . S
C1279 C1278 1.391 . S
H1280 C1288 0.950 . S
H1281 C1293 0.950 . S
H1282 C1290 0.950 . S
H1283 C1292 0.950 . S
H1284 C1294 0.950 . S
H1285 C1296 0.950 . S
H1286 C1298 0.950 . S
H1287 C1299 0.950 . S
C1288 H1280 0.950 . S
C1288 C1289 1.386 . S
C1288 C1290 1.391 . S
C1289 C1288 1.386 . S
C1289 C1293 1.393 . S
C1290 H1282 0.950 . S
C1290 C1288 1.391 . S
C1290 C1291 1.400 . S
C1291 C1290 1.400 . S
C1291 C1292 1.398 . S
C1291 C1297 1.491 . S
C1292 H1283 0.950 . S
C1292 C1291 1.398 . S
C1292 C1293 1.391 . S
C1293 H1281 0.950 . S
C1293 C1289 1.393 . S
C1293 C1292 1.391 . S
C1294 H1284 0.950 . S
C1294 C1295 1.386 . S
C1294 C1296 1.391 . S
C1295 C1294 1.386 . S
C1295 C1299 1.393 . S
C1296 H1285 0.950 . S
C1296 C1294 1.391 . S
C1296 C1297 1.400 . S
C1297 C1291 1.491 . S
C1297 C1296 1.400 . S
C1297 C1298 1.398 . S
C1298 H1286 0.950 . S
C1298 C1297 1.398 . S
C1298 C1299 1.391 . S
C1299 H1287 0.950 . S
C1299 C1295 1.393 . S
C1299 C1298 1.391 . S
H1300 C1308 0.950 . S
H1301 C1313 0.950 . S
H1302 C1310 0.950 . S
H1303 C1312 0.950 . S
H1304 C1314 0.950 . S
H1305 C1316 0.950 . S
H1306 C1318 0.950 . S
H1307 C1319 0.950 . S
C1308 H1300 0.950 . S
C1308 C1309 1.386 . S
C1308 C1310 1.391 . S
C1309 C1308 1.386 . S
C1309 C1313 1.393 . S
C1310 H1302 0.950 . S
C1310 C1308 1.391 . S
C1310 C1311 1.400 . S
C1311 C1310 1.400 . S
C1311 C1312 1.398 . S
C1311 C1317 1.491 . S
C1312 H1303 0.950 . S
C1312 C1311 1.398 . S
C1312 C1313 1.391 . S
C1313 H1301 0.950 . S
C1313 C1309 1.393 . S
C1313 C1312 1.391 . S
C1314 H1304 0.950 . S
C1314 C1315 1.386 . S
C1314 C1316 1.391 . S
C1315 C1314 1.386 . S
C1315 C1319 1.393 . S
C1316 H1305 0.950 . S
C1316 C1314 1.391 . S
C1316 C1317 1.400 . S
C1317 C1311 1.491 . S
C1317 C1316 1.400 . S
C1317 C1318 1.398 . S
C1318 H1306 0.950 . S
C1318 C1317 1.398 . S
C1318 C1319 1.391 . S
C1319 H1307 0.950 . S
C1319 C1315 1.393 . S
C1319 C1318 1.391 . S
H1320 C1328 0.950 . S
H1321 C1333 0.950 . S
H1322 C1330 0.950 . S
H1323 C1332 0.950 . S
H1324 C1334 0.950 . S
H1325 C1336 0.950 . S
H1326 C1338 0.950 . S
H1327 C1339 0.950 . S
C1328 H1320 0.950 . S
C1328 C1329 1.386 . S
C1328 C1330 1.391 . S
C1329 C1328 1.386 . S
C1329 C1333 1.393 . S
C1330 H1322 0.950 . S
C1330 C1328 1.391 . S
C1330 C1331 1.400 . S
C1331 C1330 1.400 . S
C1331 C1332 1.398 . S
C1331 C1337 1.491 . S
C1332 H1323 0.950 . S
C1332 C1331 1.398 . S
C1332 C1333 1.391 . S
C1333 H1321 0.950 . S
C1333 C1329 1.393 . S
C1333 C1332 1.391 . S
C1334 H1324 0.950 . S
C1334 C1335 1.386 . S
C1334 C1336 1.391 . S
C1335 C1334 1.386 . S
C1335 C1339 1.393 . S
C1336 H1325 0.950 . S
C1336 C1334 1.391 . S
C1336 C1337 1.400 . S
C1337 C1331 1.491 . S
C1337 C1336 1.400 . S
C1337 C1338 1.398 . S
C1338 H1326 0.950 . S
C1338 C1337 1.398 . S
C1338 C1339 1.391 . S
C1339 H1327 0.950 . S
C1339 C1335 1.393 . S
C1339 C1338 1.391 . S
H1340 C1348 0.950 . S
H1341 C1353 0.950 . S
H1342 C1350 0.950 . S
H1343 C1352 0.950 . S
H1344 C1354 0.950 . S
H1345 C1356 0.950 . S
H1346 C1358 0.950 . S
H1347 C1359 0.950 . S
C1348 H1340 0.950 . S
C1348 C1349 1.386 . S
C1348 C1350 1.391 . S
C1349 C1348 1.386 . S
C1349 C1353 1.393 . S
C1350 H1342 0.950 . S
C1350 C1348 1.391 . S
C1350 C1351 1.400 . S
C1351 C1350 1.400 . S
C1351 C1352 1.398 . S
C1351 C1357 1.491 . S
C1352 H1343 0.950 . S
C1352 C1351 1.398 . S
C1352 C1353 1.391 . S
C1353 H1341 0.950 . S
C1353 C1349 1.393 . S
C1353 C1352 1.391 . S
C1354 H1344 0.950 . S
C1354 C1355 1.386 . S
C1354 C1356 1.391 . S
C1355 C1354 1.386 . S
C1355 C1359 1.393 . S
C1356 H1345 0.950 . S
C1356 C1354 1.391 . S
C1356 C1357 1.400 . S
C1357 C1351 1.491 . S
C1357 C1356 1.400 . S
C1357 C1358 1.398 . S
C1358 H1346 0.950 . S
C1358 C1357 1.398 . S
C1358 C1359 1.391 . S
C1359 H1347 0.950 . S
C1359 C1355 1.393 . S
C1359 C1358 1.391 . S
H1360 C1368 0.950 . S
H1361 C1373 0.950 . S
H1362 C1370 0.950 . S
H1363 C1372 0.950 . S
H1364 C1374 0.950 . S
H1365 C1376 0.950 . S
H1366 C1378 0.950 . S
H1367 C1379 0.950 . S
C1368 H1360 0.950 . S
C1368 C1369 1.386 . S
C1368 C1370 1.391 . S
C1369 C1368 1.386 . S
C1369 C1373 1.393 . S
C1370 H1362 0.950 . S
C1370 C1368 1.391 . S
C1370 C1371 1.400 . S
C1371 C1370 1.400 . S
C1371 C1372 1.398 . S
C1371 C1377 1.491 . S
C1372 H1363 0.950 . S
C1372 C1371 1.398 . S
C1372 C1373 1.391 . S
C1373 H1361 0.950 . S
C1373 C1369 1.393 . S
C1373 C1372 1.391 . S
C1374 H1364 0.950 . S
C1374 C1375 1.386 . S
C1374 C1376 1.391 . S
C1375 C1374 1.386 . S
C1375 C1379 1.393 . S
C1376 H1365 0.950 . S
C1376 C1374 1.391 . S
C1376 C1377 1.400 . S
C1377 C1371 1.491 . S
C1377 C1376 1.400 . S
C1377 C1378 1.398 . S
C1378 H1366 0.950 . S
C1378 C1377 1.398 . S
C1378 C1379 1.391 . S
C1379 H1367 0.950 . S
C1379 C1375 1.393 . S
C1379 C1378 1.391 . S
H1380 C1388 0.950 . S
H1381 C1393 0.950 . S
H1382 C1390 0.950 . S
H1383 C1392 0.950 . S
H1384 C1394 0.950 . S
H1385 C1396 0.950 . S
H1386 C1398 0.950 . S
H1387 C1399 0.950 . S
C1388 H1380 0.950 . S
C1388 C1389 1.386 . S
C1388 C1390 1.391 . S
C1389 C1388 1.386 . S
C1389 C1393 1.393 . S
C1390 H1382 0.950 . S
C1390 C1388 1.391 . S
C1390 C1391 1.400 . S
C1391 C1390 1.400 . S
C1391 C1392 1.398 . S
C1391 C1397 1.491 . S
C1392 H1383 0.950 . S
C1392 C1391 1.398 . S
C1392 C1393 1.391 . S
C1393 H1381 0.950 . S
C1393 C1389 1.393 . S
C1393 C1392 1.391 . S
C1394 H1384 0.950 . S
C1394 C1395 1.386 . S
C1394 C1396 1.391 . S
C1395 C1394 1.386 . S
C1395 C1399 1.393 . S
C1396 H1385 0.950 . S
C1396 C1394 1.391 . S
C1396 C1397 1.400 . S
C1397 C1391 1.491 . S
C1397 C1396 1.400 . S
C1397 C1398 1.398 . S
C1398 H1386 0.950 . S
C1398 C1397 1.398 . S
C1398 C1399 1.391 . S
C1399 H1387 0.950 . S
C1399 C1395 1.393 . S
C1399 C1398 1.391 . S
H1400 C1408 0.950 . S
H1401 C1413 0.950 . S
H1402 C1410 0.950 . S
H1403 C1412 0.950 . S
H1404 C1414 0.950 . S
H1405 C1416 0.950 . S
H1406 C1418 0.950 . S
H1407 C1419 0.950 . S
C1408 H1400 0.950 . S
C1408 C1409 1.386 . S
C1408 C1410 1.391 . S
C1409 C1408 1.386 . S
C1409 C1413 1.393 . S
C1410 H1402 0.950 . S
C1410 C1408 1.391 . S
C1410 C1411 1.400 . S
C1411 C1410 1.400 . S
C1411 C1412 1.398 . S
C1411 C1417 1.491 . S
C1412 H1403 0.950 . S
C1412 C1411 1.398 . S
C1412 C1413 1.391 . S
C1413 H1401 0.950 . S
C1413 C1409 1.393 . S
C1413 C1412 1.391 . S
C1414 H1404 0.950 . S
C1414 C1415 1.386 . S
C1414 C1416 1.391 . S
C1415 C1414 1.386 . S
C1415 C1419 1.393 . S
C1416 H1405 0.950 . S
C1416 C1414 1.391 . S
C1416 C1417 1.400 . S
C1417 C1411 1.491 . S
C1417 C1416 1.400 . S
C1417 C1418 1.398 . S
C1418 H1406 0.950 . S
C1418 C1417 1.398 . S
C1418 C1419 1.391 . S
C1419 H1407 0.950 . S
C1419 C1415 1.393 . S
C1419 C1418 1.391 . S
H1420 C1428 0.950 . S
H1421 C1433 0.950 . S
H1422 C1430 0.950 . S
H1423 C1432 0.950 . S
H1424 C1434 0.950 . S
H1425 C1436 0.950 . S
H1426 C1438 0.950 . S
H1427 C1439 0.950 . S
C1428 H1420 0.950 . S
C1428 C1429 1.386 . S
C1428 C1430 1.391 . S
C1429 C1428 1.386 . S
C1429 C1433 1.393 . S
C1430 H1422 0.950 . S
C1430 C1428 1.391 . S
C1430 C1431 1.400 . S
C1431 C1430 1.400 . S
C1431 C1432 1.398 . S
C1431 C1437 1.491 . S
C1432 H1423 0.950 . S
C1432 C1431 1.398 . S
C1432 C1433 1.391 . S
C1433 H1421 0.950 . S
C1433 C1429 1.393 . S
C1433 C1432 1.391 . S
C1434 H1424 0.950 . S
C1434 C1435 1.386 . S
C1434 C1436 1.391 . S
C1435 C1434 1.386 . S
C1435 C1439 1.393 . S
C1436 H1425 0.950 . S
C1436 C1434 1.391 . S
C1436 C1437 1.400 . S
C1437 C1431 1.491 . S
C1437 C1436 1.400 . S
C1437 C1438 1.398 . S
C1438 H1426 0.950 . S
C1438 C1437 1.398 . S
C1438 C1439 1.391 . S
C1439 H1427 0.950 . S
C1439 C1435 1.393 . S
C1439 C1438 1.391 . S
H1440 C1448 0.950 . S
H1441 C1453 0.950 . S
H1442 C1450 0.950 . S
H1443 C1452 0.950 . S
H1444 C1454 0.950 . S
H1445 C1456 0.950 . S
H1446 C1458 0.950 . S
H1447 C1459 0.950 . S
C1448 H1440 0.950 . S
C1448 C1449 1.386 . S
C1448 C1450 1.391 . S
C1449 C1448 1.386 . S
C1449 C1453 1.393 . S
C1450 H1442 0.950 . S
C1450 C1448 1.391 . S
C1450 C1451 1.400 . S
C1451 C1450 1.400 . S
C1451 C1452 1.398 . S
C1451 C1457 1.491 . S
C1452 H1443 0.950 . S
C1452 C1451 1.398 . S
C1452 C1453 1.391 . S
C1453 H1441 0.950 . S
C1453 C1449 1.393 . S
C1453 C1452 1.391 . S
C1454 H1444 0.950 . S
C1454 C1455 1.386 . S
C1454 C1456 1.391 . S
C1455 C1454 1.386 . S
C1455 C1459 1.393 . S
C1456 H1445 0.950 . S
C1456 C1454 1.391 . S
C1456 C1457 1.400 . S
C1457 C1451 1.491 . S
C1457 C1456 1.400 . S
C1457 C1458 1.398 . S
C1458 H1446 0.950 . S
C1458 C1457 1.398 . S
C1458 C1459 1.391 . S
C1459 H1447 0.950 . S
C1459 C1455 1.393 . S
C1459 C1458 1.391 . S
H1460 C1468 0.950 . S
H1461 C1473 0.950 . S
H1462 C1470 0.950 . S
H1463 C1472 0.950 . S
H1464 C1474 0.950 . S
H1465 C1476 0.950 . S
H1466 C1478 0.950 . S
H1467 C1479 0.950 . S
C1468 H1460 0.950 . S
C1468 C1469 1.386 . S
C1468 C1470 1.391 . S
C1469 C1468 1.386 . S
C1469 C1473 1.393 . S
C1470 H1462 0.950 . S
C1470 C1468 1.391 . S
C1470 C1471 1.400 . S
C1471 C1470 1.400 . S
C1471 C1472 1.398 . S
C1471 C1477 1.491 . S
C1472 H1463 0.950 . S
C1472 C1471 1.398 . S
C1472 C1473 1.391 . S
C1473 H1461 0.950 . S
C1473 C1469 1.393 . S
C1473 C1472 1.391 . S
C1474 H1464 0.950 . S
C1474 C1475 1.386 . S
C1474 C1476 1.391 . S
C1475 C1474 1.386 . S
C1475 C1479 1.393 . S
C1476 H1465 0.950 . S
C1476 C1474 1.391 . S
C1476 C1477 1.400 . S
C1477 C1471 1.491 . S
C1477 C1476 1.400 . S
C1477 C1478 1.398 . S
C1478 H1466 0.950 . S
C1478 C1477 1.398 . S
C1478 C1479 1.391 . S
C1479 H1467 0.950 . S
C1479 C1475 1.393 . S
C1479 C1478 1.391 . S
H1480 C1488 0.950 . S
H1481 C1493 0.950 . S
H1482 C1490 0.950 . S
H1483 C1492 0.950 . S
H1484 C1494 0.950 . S
H1485 C1496 0.950 . S
H1486 C1498 0.950 . S
H1487 C1499 0.950 . S
C1488 H1480 0.950 . S
C1488 C1489 1.386 . S
C1488 C1490 1.391 . S
C1489 C1488 1.386 . S
C1489 C1493 1.393 . S
C1490 H1482 0.950 . S
C1490 C1488 1.391 . S
C1490 C1491 1.400 . S
C1491 C1490 1.400 . S
C1491 C1492 1.398 . S
C1491 C1497 1.491 . S
C1492 H1483 0.950 . S
C1492 C1491 1.398 . S
C1492 C1493 1.391 . S
C1493 H1481 0.950 . S
C1493 C1489 1.393 . S
C1493 C1492 1.391 . S
C1494 H1484 0.950 . S
C1494 C1495 1.386 . S
C1494 C1496 1.391 . S
C1495 C1494 1.386 . S
C1495 C1499 1.393 . S
C1496 H1485 0.950 . S
C1496 C1494 1.391 . S
C1496 C1497 1.400 . S
C1497 C1491 1.491 . S
C1497 C1496 1.400 . S
C1497 C1498 1.398 . S
C1498 H1486 0.950 . S
C1498 C1497 1.398 . S
C1498 C1499 1.391 . S
C1499 H1487 0.950 . S
C1499 C1495 1.393 . S
C1499 C1498 1.391 . S
H1500 C1508 0.950 . S
H1501 C1513 0.950 . S
H1502 C1510 0.950 . S
H1503 C1512 0.950 . S
H1504 C1514 0.950 . S
H1505 C1516 0.950 . S
H1506 C1518 0.950 . S
H1507 C1519 0.950 . S
C1508 H1500 0.950 . S
C1508 C1509 1.386 . S
C1508 C1510 1.391 . S
C1509 C1508 1.386 . S
C1509 C1513 1.393 . S
C1510 H1502 0.950 . S
C1510 C1508 1.391 . S
C1510 C1511 1.400 . S
C1511 C1510 1.400 . S
C1511 C1512 1.398 . S
C1511 C1517 1.491 . S
C1512 H1503 0.950 . S
C1512 C1511 1.398 . S
C1512 C1513 1.391 . S
C1513 H1501 0.950 . S
C1513 C1509 1.393 . S
C1513 C1512 1.391 . S
C1514 H1504 0.950 . S
C1514 C1515 1.386 . S
C1514 C1516 1.391 . S
C1515 C1514 1.386 . S
C1515 C1519 1.393 . S
C1516 H1505 0.950 . S
C1516 C1514 1.391 . S
C1516 C1517 1.400 . S
C1517 C1511 1.491 . S
C1517 C1516 1.400 . S
C1517 C1518 1.398 . S
C1518 H1506 0.950 . S
C1518 C1517 1.398 . S
C1518 C1519 1.391 . S
C1519 H1507 0.950 . S
C1519 C1515 1.393 . S
C1519 C1518 1.391 . S
H1520 C1528 0.950 . S
H1521 C1533 0.950 . S
H1522 C1530 0.950 . S
H1523 C1532 0.950 . S
H1524 C1534 0.950 . S
H1525 C1536 0.950 . S
H1526 C1538 0.950 . S
H1527 C1539 0.950 . S
C1528 H1520 0.950 . S
C1528 C1529 1.386 . S
C1528 C1530 1.391 . S
C1529 C1528 1.386 . S
C1529 C1533 1.393 . S
C1530 H1522 0.950 . S
C1530 C1528 1.391 . S
C1530 C1531 1.400 . S
C1531 C1530 1.400 . S
C1531 C1532 1.398 . S
C1531 C1537 1.491 . S
C1532 H1523 0.950 . S
C1532 C1531 1.398 . S
C1532 C1533 1.391 . S
C1533 H1521 0.950 . S
C1533 C1529 1.393 . S
C1533 C1532 1.391 . S
C1534 H1524 0.950 . S
C1534 C1535 1.386 . S
C1534 C1536 1.391 . S
C1535 C1534 1.386 . S
C1535 C1539 1.393 . S
C1536 H1525 0.950 . S
C1536 C1534 1.391 . S
C1536 C1537 1.400 . S
C1537 C1531 1.491 . S
C1537 C1536 1.400 . S
C1537 C1538 1.398 . S
C1538 H1526 0.950 . S
C1538 C1537 1.398 . S
C1538 C1539 1.391 . S
C1539 H1527 0.950 . S
C1539 C1535 1.393 . S
C1539 C1538 1.391 . S
H1540 C1548 0.950 . S
H1541 C1553 0.950 . S
H1542 C1550 0.950 . S
H1543 C1552 0.950 . S
H1544 C1554 0.950 . S
H1545 C1556 0.950 . S
H1546 C1558 0.950 . S
H1547 C1559 0.950 . S
C1548 H1540 0.950 . S
C1548 C1549 1.386 . S
C1548 C1550 1.391 . S
C1549 C1548 1.386 . S
C1549 C1553 1.393 . S
C1550 H1542 0.950 . S
C1550 C1548 1.391 . S
C1550 C1551 1.400 . S
C1551 C1550 1.400 . S
C1551 C1552 1.398 . S
C1551 C1557 1.491 . S
C1552 H1543 0.950 . S
C1552 C1551 1.398 . S
C1552 C1553 1.391 . S
C1553 H1541 0.950 . S
C1553 C1549 1.393 . S
C1553 C1552 1.391 . S
C1554 H1544 0.950 . S
C1554 C1555 1.386 . S
C1554 C1556 1.391 . S
C1555 C1554 1.386 . S
C1555 C1559 1.393 . S
C1556 H1545 0.950 . S
C1556 C1554 1.391 . S
C1556 C1557 1.400 . S
C1557 C1551 1.491 . S
C1557 C1556 1.400 . S
C1557 C1558 1.398 . S
C1558 H1546 0.950 . S
C1558 C1557 1.398 . S
C1558 C1559 1.391 . S
C1559 H1547 0.950 . S
C1559 C1555 1.393 . S
C1559 C1558 1.391 . S
H1560 C1568 0.950 . S
H1561 C1573 0.950 . S
H1562 C1570 0.950 . S
H1563 C1572 0.950 . S
H1564 C1574 0.950 . S
H1565 C1576 0.950 . S
H1566 C1578 0.950 . S
H1567 C1579 0.950 . S
C1568 H1560 0.950 . S
C1568 C1569 1.386 . S
C1568 C1570 1.391 . S
C1569 C1568 1.386 . S
C1569 C1573 1.393 . S
C1570 H1562 0.950 . S
C1570 C1568 1.391 . S
C1570 C1571 1.400 . S
C1571 C1570 1.400 . S
C1571 C1572 1.398 . S
C1571 C1577 1.491 . S
C1572 H1563 0.950 . S
C1572 C1571 1.398 . S
C1572 C1573 1.391 . S
C1573 H1561 0.950 . S
C1573 C1569 1.393 . S
C1573 C1572 1.391 . S
C1574 H1564 0.950 . S
C1574 C1575 1.386 . S
C1574 C1576 1.391 . S
C1575 C1574 1.386 . S
C1575 C1579 1.393 . S
C1576 H1565 0.950 . S
C1576 C1574 1.391 . S
C1576 C1577 1.400 . S
C1577 C1571 1.491 . S
C1577 C1576 1.400 . S
C1577 C1578 1.398 . S
C1578 H1566 0.950 . S
C1578 C1577 1.398 . S
C1578 C1579 1.391 . S
C1579 H1567 0.950 . S
C1579 C1575 1.393 . S
C1579 C1578 1.391 . S
H1580 C1588 0.950 . S
H1581 C1593 0.950 . S
H1582 C1590 0.950 . S
H1583 C1592 0.950 . S
H1584 C1594 0.950 . S
H1585 C1596 0.950 . S
H1586 C1598 0.950 . S
H1587 C1599 0.950 . S
C1588 H1580 0.950 . S
C1588 C1589 1.386 . S
C1588 C1590 1.391 . S
C1589 C1588 1.386 . S
C1589 C1593 1.393 . S
C1590 H1582 0.950 . S
C1590 C1588 1.391 . S
C1590 C1591 1.400 . S
C1591 C1590 1.400 . S
C1591 C1592 1.398 . S
C1591 C1597 1.491 . S
C1592 H1583 0.950 . S
C1592 C1591 1.398 . S
C1592 C1593 1.391 . S
C1593 H1581 0.950 . S
C1593 C1589 1.393 . S
C1593 C1592 1.391 . S
C1594 H1584 0.950 . S
C1594 C1595 1.386 . S
C1594 C1596 1.391 . S
C1595 C1594 1.386 . S
C1595 C1599 1.393 . S
C1596 H1585 0.950 . S
C1596 C1594 1.391 . S
C1596 C1597 1.400 . S
C1597 C1591 1.491 . S
C1597 C1596 1.400 . S
C1597 C1598 1.398 . S
C1598 H1586 0.950 . S
C1598 C1597 1.398 . S
C1598 C1599 1.391 . S
C1599 H1587 0.950 . S
C1599 C1595 1.393 . S
C1599 C1598 1.391 . S
H1600 C1608 0.950 . S
H1601 C1613 0.950 . S
H1602 C1610 0.950 . S
H1603 C1612 0.950 . S
H1604 C1614 0.950 . S
H1605 C1616 0.950 . S
H1606 C1618 0.950 . S
H1607 C1619 0.950 . S
C1608 H1600 0.950 . S
C1608 C1609 1.386 . S
C1608 C1610 1.391 . S
C1609 C1608 1.386 . S
C1609 C1613 1.393 . S
C1610 H1602 0.950 . S
C1610 C1608 1.391 . S
C1610 C1611 1.400 . S
C1611 C1610 1.400 . S
C1611 C1612 1.398 . S
C1611 C1617 1.491 . S
C1612 H1603 0.950 . S
C1612 C1611 1.398 . S
C1612 C1613 1.391 . S
C1613 H1601 0.950 . S
C1613 C1609 1.393 . S
C1613 C1612 1.391 . S
C1614 H1604 0.950 . S
C1614 C1615 1.386 . S
C1614 C1616 1.391 . S
C1615 C1614 1.386 . S
C1615 C1619 1.393 . S
C1616 H1605 0.950 . S
C1616 C1614 1.391 . S
C1616 C1617 1.400 . S
C1617 C1611 1.491 . S
C1617 C1616 1.400 . S
C1617 C1618 1.398 . S
C1618 H1606 0.950 . S
C1618 C1617 1.398 . S
C1618 C1619 1.391 . S
C1619 H1607 0.950 . S
C1619 C1615 1.393 . S
C1619 C1618 1.391 . S
H1620 C1628 0.950 . S
H1621 C1633 0.950 . S
H1622 C1630 0.950 . S
H1623 C1632 0.950 . S
H1624 C1634 0.950 . S
H1625 C1636 0.950 . S
H1626 C1638 0.950 . S
H1627 C1639 0.950 . S
C1628 H1620 0.950 . S
C1628 C1629 1.386 . S
C1628 C1630 1.391 . S
C1629 C1628 1.386 . S
C1629 C1633 1.393 . S
C1630 H1622 0.950 . S
C1630 C1628 1.391 . S
C1630 C1631 1.400 . S
C1631 C1630 1.400 . S
C1631 C1632 1.398 . S
C1631 C1637 1.491 . S
C1632 H1623 0.950 . S
C1632 C1631 1.398 . S
C1632 C1633 1.391 . S
C1633 H1621 0.950 . S
C1633 C1629 1.393 . S
C1633 C1632 1.391 . S
C1634 H1624 0.950 . S
C1634 C1635 1.386 . S
C1634 C1636 1.391 . S
C1635 C1634 1.386 . S
C1635 C1639 1.393 . S
C1636 H1625 0.950 . S
C1636 C1634 1.391 . S
C1636 C1637 1.400 . S
C1637 C1631 1.491 . S
C1637 C1636 1.400 . S
C1637 C1638 1.398 . S
C1638 H1626 0.950 . S
C1638 C1637 1.398 . S
C1638 C1639 1.391 . S
C1639 H1627 0.950 . S
C1639 C1635 1.393 . S
C1639 C1638 1.391 . S
H1640 C1648 0.950 . S
H1641 C1653 0.950 . S
H1642 C1650 0.950 . S
H1643 C1652 0.950 . S
H1644 C1654 0.950 . S
H1645 C1656 0.950 . S
H1646 C1658 0.950 . S
H1647 C1659 0.950 . S
C1648 H1640 0.950 . S
C1648 C1649 1.386 . S
C1648 C1650 1.391 . S
C1649 C1648 1.386 . S
C1649 C1653 1.393 . S
C1650 H1642 0.950 . S
C1650 C1648 1.391 . S
C1650 C1651 1.400 . S
C1651 C1650 1.400 . S
C1651 C1652 1.398 . S
C1651 C1657 1.491 . S
C1652 H1643 0.950 . S
C1652 C1651 1.398 . S
C1652 C1653 1.391 . S
C1653 H1641 0.950 . S
C1653 C1649 1.393 . S
C1653 C1652 1.391 . S
C1654 H1644 0.950 . S
C1654 C1655 1.386 . S
C1654 C1656 1.391 . S
C1655 C1654 1.386 . S
C1655 C1659 1.393 . S
C1656 H1645 0.950 . S
C1656 C1654 1.391 . S
C1656 C1657 1.400 . S
C1657 C1651 1.491 . S
C1657 C1656 1.400 . S
C1657 C1658 1.398 . S
C1658 H1646 0.950 . S
C1658 C1657 1.398 . S
C1658 C1659 1.391 . S
C1659 H1647 0.950 . S
C1659 C1655 1.393 . S
C1659 C1658 1.391 . S
H1660 C1668 0.950 . S
H1661 C1673 0.950 . S
H1662 C1670 0.950 . S
H1663 C1672 0.950 . S
H1664 C1674 0.950 . S
H1665 C1676 0.950 . S
H1666 C1678 0.950 . S
H1667 C1679 0.950 . S
C1668 H1660 0.950 . S
C1668 C1669 1.386 . S
C1668 C1670 1.391 . S
C1669 C1668 1.386 . S
C1669 C1673 1.393 . S
C1670 H1662 0.950 . S
C1670 C1668 1.391 . S
C1670 C1671 1.400 . S
C1671 C1670 1.400 . S
C1671 C1672 1.398 . S
C1671 C1677 1.491 . S
C1672 H1663 0.950 . S
C1672 C1671 1.398 . S
C1672 C1673 1.391 . S
C1673 H1661 0.950 . S
C1673 C1669 1.393 . S
C1673 C1672 1.391 . S
C1674 H1664 0.950 . S
C1674 C1675 1.386 . S
C1674 C1676 1.391 . S
C1675 C1674 1.386 . S
C1675 C1679 1.393 . S
C1676 H1665 0.950 . S
C1676 C1674 1.391 . S
C1676 C1677 1.400 . S
C1677 C1671 1.491 . S
C1677 C1676 1.400 . S
C1677 C1678 1.398 . S
C1678 H1666 0.950 . S
C1678 C1677 1.398 . S
C1678 C1679 1.391 . S
C1679 H1667 0.950 . S
C1679 C1675 1.393 . S
C1679 C1678 1.391 . S
H1680 C1688 0.950 . S
H1681 C1693 0.950 . S
H1682 C1690 0.950 . S
H1683 C1692 0.950 . S
H1684 C1694 0.950 . S
H1685 C1696 0.950 . S
H1686 C1698 0.950 . S
H1687 C1699 0.950 . S
C1688 H1680 0.950 . S
C1688 C1689 1.386 . S
C1688 C1690 1.391 . S
C1689 C1688 1.386 . S
C1689 C1693 1.393 . S
C1690 H1682 0.950 . S
C1690 C1688 1.391 . S
C1690 C1691 1.400 . S
C1691 C1690 1.400 . S
C1691 C1692 1.398 . S
C1691 C1697 1.491 . S
C1692 H1683 0.950 . S
C1692 C1691 1.398 . S
C1692 C1693 1.391 . S
C1693 H1681 0.950 . S
C1693 C1689 1.393 . S
C1693 C1692 1.391 . S
C1694 H1684 0.950 . S
C1694 C1695 1.386 . S
C1694 C1696 1.391 . S
C1695 C1694 1.386 . S
C1695 C1699 1.393 . S
C1696 H1685 0.950 . S
C1696 C1694 1.391 . S
C1696 C1697 1.400 . S
C1697 C1691 1.491 . S
C1697 C1696 1.400 . S
C1697 C1698 1.398 . S
C1698 H1686 0.950 . S
C1698 C1697 1.398 . S
C1698 C1699 1.391 . S
C1699 H1687 0.950 . S
C1699 C1695 1.393 . S
C1699 C1698 1.391 . S
H1700 C1708 0.950 . S
H1701 C1713 0.950 . S
H1702 C1710 0.950 . S
H1703 C1712 0.950 . S
H1704 C1714 0.950 . S
H1705 C1716 0.950 . S
H1706 C1718 0.950 . S
H1707 C1719 0.950 . S
C1708 H1700 0.950 . S
C1708 C1709 1.386 . S
C1708 C1710 1.391 . S
C1709 C1708 1.386 . S
C1709 C1713 1.393 . S
C1710 H1702 0.950 . S
C1710 C1708 1.391 . S
C1710 C1711 1.400 . S
C1711 C1710 1.400 . S
C1711 C1712 1.398 . S
C1711 C1717 1.491 . S
C1712 H1703 0.950 . S
C1712 C1711 1.398 . S
C1712 C1713 1.391 . S
C1713 H1701 0.950 . S
C1713 C1709 1.393 . S
C1713 C1712 1.391 . S
C1714 H1704 0.950 . S
C1714 C1715 1.386 . S
C1714 C1716 1.391 . S
C1715 C1714 1.386 . S
C1715 C1719 1.393 . S
C1716 H1705 0.950 . S
C1716 C1714 1.391 . S
C1716 C1717 1.400 . S
C1717 C1711 1.491 . S
C1717 C1716 1.400 . S
C1717 C1718 1.398 . S
C1718 H1706 0.950 . S
C1718 C1717 1.398 . S
C1718 C1719 1.391 . S
C1719 H1707 0.950 . S
C1719 C1715 1.393 . S
C1719 C1718 1.391 . S
H1720 C1728 0.950 . S
H1721 C1733 0.950 . S
H1722 C1730 0.950 . S
H1723 C1732 0.950 . S
H1724 C1734 0.950 . S
H1725 C1736 0.950 . S
H1726 C1738 0.950 . S
H1727 C1739 0.950 . S
C1728 H1720 0.950 . S
C1728 C1729 1.386 . S
C1728 C1730 1.391 . S
C1729 C1728 1.386 . S
C1729 C1733 1.393 . S
C1730 H1722 0.950 . S
C1730 C1728 1.391 . S
C1730 C1731 1.400 . S
C1731 C1730 1.400 . S
C1731 C1732 1.398 . S
C1731 C1737 1.491 . S
C1732 H1723 0.950 . S
C1732 C1731 1.398 . S
C1732 C1733 1.391 . S
C1733 H1721 0.950 . S
C1733 C1729 1.393 . S
C1733 C1732 1.391 . S
C1734 H1724 0.950 . S
C1734 C1735 1.386 . S
C1734 C1736 1.391 . S
C1735 C1734 1.386 . S
C1735 C1739 1.393 . S
C1736 H1725 0.950 . S
C1736 C1734 1.391 . S
C1736 C1737 1.400 . S
C1737 C1731 1.491 . S
C1737 C1736 1.400 . S
C1737 C1738 1.398 . S
C1738 H1726 0.950 . S
C1738 C1737 1.398 . S
C1738 C1739 1.391 . S
C1739 H1727 0.950 . S
C1739 C1735 1.393 . S
C1739 C1738 1.391 . S
H1740 C1748 0.950 . S
H1741 C1753 0.950 . S
H1742 C1750 0.950 . S
H1743 C1752 0.950 . S
H1744 C1754 0.950 . S
H1745 C1756 0.950 . S
H1746 C1758 0.950 . S
H1747 C1759 0.950 . S
C1748 H1740 0.950 . S
C1748 C1749 1.386 . S
C1748 C1750 1.391 . S
C1749 C1748 1.386 . S
C1749 C1753 1.393 . S
C1750 H1742 0.950 . S
C1750 C1748 1.391 . S
C1750 C1751 1.400 . S
C1751 C1750 1.400 . S
C1751 C1752 1.398 . S
C1751 C1757 1.491 . S
C1752 H1743 0.950 . S
C1752 C1751 1.398 . S
C1752 C1753 1.391 . S
C1753 H1741 0.950 . S
C1753 C1749 1.393 . S
C1753 C1752 1.391 . S
C1754 H1744 0.950 . S
C1754 C1755 1.386 . S
C1754 C1756 1.391 . S
C1755 C1754 1.386 . S
C1755 C1759 1.393 . S
C1756 H1745 0.950 . S
C1756 C1754 1.391 . S
C1756 C1757 1.400 . S
C1757 C1751 1.491 . S
C1757 C1756 1.400 . S
C1757 C1758 1.398 . S
C1758 H1746 0.950 . S
C1758 C1757 1.398 . S
C1758 C1759 1.391 . S
C1759 H1747 0.950 . S
C1759 C1755 1.393 . S
C1759 C1758 1.391 . S
H1760 C1768 0.950 . S
H1761 C1773 0.950 . S
H1762 C1770 0.950 . S
H1763 C1772 0.950 . S
H1764 C1774 0.950 . S
H1765 C1776 0.950 . S
H1766 C1778 0.950 . S
H1767 C1779 0.950 . S
C1768 H1760 0.950 . S
C1768 C1769 1.386 . S
C1768 C1770 1.391 . S
C1769 C1768 1.386 . S
C1769 C1773 1.393 . S
C1770 H1762 0.950 . S
C1770 C1768 1.391 . S
C1770 C1771 1.400 . S
C1771 C1770 1.400 . S
C1771 C1772 1.398 . S
C1771 C1777 1.491 . S
C1772 H1763 0.950 . S
C1772 C1771 1.398 . S
C1772 C1773 1.391 . S
C1773 H1761 0.950 . S
C1773 C1769 1.393 . S
C1773 C1772 1.391 . S
C1774 H1764 0.950 . S
C1774 C1775 1.386 . S
C1774 C1776 1.391 . S
C1775 C1774 1.386 . S
C1775 C1779 1.393 . S
C1776 H1765 0.950 . S
C1776 C1774 1.391 . S
C1776 C1777 1.400 . S
C1777 C1771 1.491 . S
C1777 C1776 1.400 . S
C1777 C1778 1.398 . S
C1778 H1766 0.950 . S
C1778 C1777 1.398 . S
C1778 C1779 1.391 . S
C1779 H1767 0.950 . S
C1779 C1775 1.393 . S
C1779 C1778 1.391 . S
H1780 C1788 0.950 . S
H1781 C1793 0.950 . S
H1782 C1790 0.950 . S
H1783 C1792 0.950 . S
H1784 C1794 0.950 . S
H1785 C1796 0.950 . S
H1786 C1798 0.950 . S
H1787 C1799 0.950 . S
C1788 H1780 0.950 . S
C1788 C1789 1.386 . S
C1788 C1790 1.391 . S
C1789 C1788 1.386 . S
C1789 C1793 1.393 . S
C1790 H1782 0.950 . S
C1790 C1788 1.391 . S
C1790 C1791 1.400 . S
C1791 C1790 1.400 . S
C1791 C1792 1.398 . S
C1791 C1797 1.491 . S
C1792 H1783 0.950 . S
C1792 C1791 1.398 . S
C1792 C1793 1.391 . S
C1793 H1781 0.950 . S
C1793 C1789 1.393 . S
C1793 C1792 1.391 . S
C1794 H1784 0.950 . S
C1794 C1795 1.386 . S
C1794 C1796 1.391 . S
C1795 C1794 1.386 . S
C1795 C1799 1.393 . S
C1796 H1785 0.950 . S
C1796 C1794 1.391 . S
C1796 C1797 1.400 . S
C1797 C1791 1.491 . S
C1797 C1796 1.400 . S
C1797 C1798 1.398 . S
C1798 H1786 0.950 . S
C1798 C1797 1.398 . S
C1798 C1799 1.391 . S
C1799 H1787 0.950 . S
C1799 C1795 1.393 . S
C1799 C1798 1.391 . S
H1800 C1808 0.950 . S
H1801 C1813 0.950 . S
H1802 C1810 0.950 . S
H1803 C1812 0.950 . S
H1804 C1814 0.950 . S
H1805 C1816 0.950 . S
H1806 C1818 0.950 . S
H1807 C1819 0.950 . S
C1808 H1800 0.950 . S
C1808 C1809 1.386 . S
C1808 C1810 1.391 . S
C1809 C1808 1.386 . S
C1809 C1813 1.393 . S
C1810 H1802 0.950 . S
C1810 C1808 1.391 . S
C1810 C1811 1.400 . S
C1811 C1810 1.400 . S
C1811 C1812 1.398 . S
C1811 C1817 1.491 . S
C1812 H1803 0.950 . S
C1812 C1811 1.398 . S
C1812 C1813 1.391 . S
C1813 H1801 0.950 . S
C1813 C1809 1.393 . S
C1813 C1812 1.391 . S
C1814 H1804 0.950 . S
C1814 C1815 1.386 . S
C1814 C1816 1.391 . S
C1815 C1814 1.386 . S
C1815 C1819 1.393 . S
C1816 H1805 0.950 . S
C1816 C1814 1.391 . S
C1816 C1817 1.400 . S
C1817 C1811 1.491 . S
C1817 C1816 1.400 . S
C1817 C1818 1.398 . S
C1818 H1806 0.950 . S
C1818 C1817 1.398 . S
C1818 C1819 1.391 . S
C1819 H1807 0.950 . S
C1819 C1815 1.393 . S
C1819 C1818 1.391 . S
H1820 C1828 0.950 . S
H1821 C1833 0.950 . S
H1822 C1830 0.950 . S
H1823 C1832 0.950 . S
H1824 C1834 0.950 . S
H1825 C1836 0.950 . S
H1826 C1838 0.950 . S
H1827 C1839 0.950 . S
C1828 H1820 0.950 . S
C1828 C1829 1.386 . S
C1828 C1830 1.391 . S
C1829 C1828 1.386 . S
C1829 C1833 1.393 . S
C1830 H1822 0.950 . S
C1830 C1828 1.391 . S
C1830 C1831 1.400 . S
C1831 C1830 1.400 . S
C1831 C1832 1.398 . S
C1831 C1837 1.491 . S
C1832 H1823 0.950 . S
C1832 C1831 1.398 . S
C1832 C1833 1.391 . S
C1833 H1821 0.950 . S
C1833 C1829 1.393 . S
C1833 C1832 1.391 . S
C1834 H1824 0.950 . S
C1834 C1835 1.386 . S
C1834 C1836 1.391 . S
C1835 C1834 1.386 . S
C1835 C1839 1.393 . S
C1836 H1825 0.950 . S
C1836 C1834 1.391 . S
C1836 C1837 1.400 . S
C1837 C1831 1.491 . S
C1837 C1836 1.400 . S
C1837 C1838 1.398 . S
C1838 H1826 0.950 . S
C1838 C1837 1.398 . S
C1838 C1839 1.391 . S
C1839 H1827 0.950 . S
C1839 C1835 1.393 . S
C1839 C1838 1.391 . S
H1840 C1848 0.950 . S
H1841 C1853 0.950 . S
H1842 C1850 0.950 . S
H1843 C1852 0.950 . S
H1844 C1854 0.950 . S
H1845 C1856 0.950 . S
H1846 C1858 0.950 . S
H1847 C1859 0.950 . S
C1848 H1840 0.950 . S
C1848 C1849 1.386 . S
C1848 C1850 1.391 . S
C1849 C1848 1.386 . S
C1849 C1853 1.393 . S
C1850 H1842 0.950 . S
C1850 C1848 1.391 . S
C1850 C1851 1.400 . S
C1851 C1850 1.400 . S
C1851 C1852 1.398 . S
C1851 C1857 1.491 . S
C1852 H1843 0.950 . S
C1852 C1851 1.398 . S
C1852 C1853 1.391 . S
C1853 H1841 0.950 . S
C1853 C1849 1.393 . S
C1853 C1852 1.391 . S
C1854 H1844 0.950 . S
C1854 C1855 1.386 . S
C1854 C1856 1.391 . S
C1855 C1854 1.386 . S
C1855 C1859 1.393 . S
C1856 H1845 0.950 . S
C1856 C1854 1.391 . S
C1856 C1857 1.400 . S
C1857 C1851 1.491 . S
C1857 C1856 1.400 . S
C1857 C1858 1.398 . S
C1858 H1846 0.950 . S
C1858 C1857 1.398 . S
C1858 C1859 1.391 . S
C1859 H1847 0.950 . S
C1859 C1855 1.393 . S
C1859 C1858 1.391 . S
H1860 C1868 0.950 . S
H1861 C1873 0.950 . S
H1862 C1870 0.950 . S
H1863 C1872 0.950 . S
H1864 C1874 0.950 . S
H1865 C1876 0.950 . S
H1866 C1878 0.950 . S
H1867 C1879 0.950 . S
C1868 H1860 0.950 . S
C1868 C1869 1.386 . S
C1868 C1870 1.391 . S
C1869 C1868 1.386 . S
C1869 C1873 1.393 . S
C1870 H1862 0.950 . S
C1870 C1868 1.391 . S
C1870 C1871 1.400 . S
C1871 C1870 1.400 . S
C1871 C1872 1.398 . S
C1871 C1877 1.491 . S
C1872 H1863 0.950 . S
C1872 C1871 1.398 . S
C1872 C1873 1.391 . S
C1873 H1861 0.950 . S
C1873 C1869 1.393 . S
C1873 C1872 1.391 . S
C1874 H1864 0.950 . S
C1874 C1875 1.386 . S
C1874 C1876 1.391 . S
C1875 C1874 1.386 . S
C1875 C1879 1.393 . S
C1876 H1865 0.950 . S
C1876 C1874 1.391 . S
C1876 C1877 1.400 . S
C1877 C1871 1.491 . S
C1877 C1876 1.400 . S
C1877 C1878 1.398 . S
C1878 H1866 0.950 . S
C1878 C1877 1.398 . S
C1878 C1879 1.391 . S
C1879 H1867 0.950 . S
C1879 C1875 1.393 . S
C1879 C1878 1.391 . S
H1880 C1888 0.950 . S
H1881 C1893 0.950 . S
H1882 C1890 0.950 . S
H1883 C1892 0.950 . S
H1884 C1894 0.950 . S
H1885 C1896 0.950 . S
H1886 C1898 0.950 . S
H1887 C1899 0.950 . S
C1888 H1880 0.950 . S
C1888 C1889 1.386 . S
C1888 C1890 1.391 . S
C1889 C1888 1.386 . S
C1889 C1893 1.393 . S
C1890 H1882 0.950 . S
C1890 C1888 1.391 . S
C1890 C1891 1.400 . S
C1891 C1890 1.400 . S
C1891 C1892 1.398 . S
C1891 C1897 1.491 . S
C1892 H1883 0.950 . S
C1892 C1891 1.398 . S
C1892 C1893 1.391 . S
C1893 H1881 0.950 . S
C1893 C1889 1.393 . S
C1893 C1892 1.391 . S
C1894 H1884 0.950 . S
C1894 C1895 1.386 . S
C1894 C1896 1.391 . S
C1895 C1894 1.386 . S
C1895 C1899 1.393 . S
C1896 H1885 0.950 . S
C1896 C1894 1.391 . S
C1896 C1897 1.400 . S
C1897 C1891 1.491 . S
C1897 C1896 1.400 . S
C1897 C1898 1.398 . S
C1898 H1886 0.950 . S
C1898 C1897 1.398 . S
C1898 C1899 1.391 . S
C1899 H1887 0.950 . S
C1899 C1895 1.393 . S
C1899 C1898 1.391 . S
H1900 C1908 0.950 . S
H1901 C1913 0.950 . S
H1902 C1910 0.950 . S
H1903 C1912 0.950 . S
H1904 C1914 0.950 . S
H1905 C1916 0.950 . S
H1906 C1918 0.950 . S
H1907 C1919 0.950 . S
C1908 H1900 0.950 . S
C1908 C1909 1.386 . S
C1908 C1910 1.391 . S
C1909 C1908 1.386 . S
C1909 C1913 1.393 . S
C1910 H1902 0.950 . S
C1910 C1908 1.391 . S
C1910 C1911 1.400 . S
C1911 C1910 1.400 . S
C1911 C1912 1.398 . S
C1911 C1917 1.491 . S
C1912 H1903 0.950 . S
C1912 C1911 1.398 . S
C1912 C1913 1.391 . S
C1913 H1901 0.950 . S
C1913 C1909 1.393 . S
C1913 C1912 1.391 . S
C1914 H1904 0.950 . S
C1914 C1915 1.386 . S
C1914 C1916 1.391 . S
C1915 C1914 1.386 . S
C1915 C1919 1.393 . S
C1916 H1905 0.950 . S
C1916 C1914 1.391 . S
C1916 C1917 1.400 . S
C1917 C1911 1.491 . S
C1917 C1916 1.400 . S
C1917 C1918 1.398 . S
C1918 H1906 0.950 . S
C1918 C1917 1.398 . S
C1918 C1919 1.391 . S
C1919 H1907 0.950 . S
C1919 C1915 1.393 . S
C1919 C1918 1.391 . S
H1920 C1928 0.950 . S
H1921 C1933 0.950 . S
H1922 C1930 0.950 . S
H1923 C1932 0.950 . S
H1924 C1934 0.950 . S
H1925 C1936 0.950 . S
H1926 C1938 0.950 . S
H1927 C1939 0.950 . S
C1928 H1920 0.950 . S
C1928 C1929 1.386 . S
C1928 C1930 1.391 . S
C1929 C1928 1.386 . S
C1929 C1933 1.393 . S
C1930 H1922 0.950 . S
C1930 C1928 1.391 . S
C1930 C1931 1.400 . S
C1931 C1930 1.400 . S
C1931 C1932 1.398 . S
C1931 C1937 1.491 . S
C1932 H1923 0.950 . S
C1932 C1931 1.398 . S
C1932 C1933 1.391 . S
C1933 H1921 0.950 . S
C1933 C1929 1.393 . S
C1933 C1932 1.391 . S
C1934 H1924 0.950 . S
C1934 C1935 1.386 . S
C1934 C1936 1.391 . S
C1935 C1934 1.386 . S
C1935 C1939 1.393 . S
C1936 H1925 0.950 . S
C1936 C1934 1.391 . S
C1936 C1937 1.400 . S
C1937 C1931 1.491 . S
C1937 C1936 1.400 . S
C1937 C1938 1.398 . S
C1938 H1926 0.950 . S
C1938 C1937 1.398 . S
C1938 C1939 1.391 . S
C1939 H1927 0.950 . S
C1939 C1935 1.393 . S
C1939 C1938 1.391 . S
H1940 C1948 0.950 . S
H1941 C1953 0.950 . S
H1942 C1950 0.950 . S
H1943 C1952 0.950 . S
H1944 C1954 0.950 . S
H1945 C1956 0.950 . S
H1946 C1958 0.950 . S
H1947 C1959 0.950 . S
C1948 H1940 0.950 . S
C1948 C1949 1.386 . S
C1948 C1950 1.391 . S
C1949 C1948 1.386 . S
C1949 C1953 1.393 . S
C1950 H1942 0.950 . S
C1950 C1948 1.391 . S
C1950 C1951 1.400 . S
C1951 C1950 1.400 . S
C1951 C1952 1.398 . S
C1951 C1957 1.491 . S
C1952 H1943 0.950 . S
C1952 C1951 1.398 . S
C1952 C1953 1.391 . S
C1953 H1941 0.950 . S
C1953 C1949 1.393 . S
C1953 C1952 1.391 . S
C1954 H1944 0.950 . S
C1954 C1955 1.386 . S
C1954 C1956 1.391 . S
C1955 C1954 1.386 . S
C1955 C1959 1.393 . S
C1956 H1945 0.950 . S
C1956 C1954 1.391 . S
C1956 C1957 1.400 . S
C1957 C1951 1.491 . S
C1957 C1956 1.400 . S
C1957 C1958 1.398 . S
C1958 H1946 0.950 . S
C1958 C1957 1.398 . S
C1958 C1959 1.391 . S
C1959 H1947 0.950 . S
C1959 C1955 1.393 . S
C1959 C1958 1.391 . S
H1960 C1968 0.950 . S
H1961 C1973 0.950 . S
H1962 C1970 0.950 . S
H1963 C1972 0.950 . S
H1964 C1974 0.950 . S
H1965 C1976 0.950 . S
H1966 C1978 0.950 . S
H1967 C1979 0.950 . S
C1968 H1960 0.950 . S
C1968 C1969 1.386 . S
C1968 C1970 1.391 . S
C1969 C1968 1.386 . S
C1969 C1973 1.393 . S
C1970 H1962 0.950 . S
C1970 C1968 1.391 . S
C1970 C1971 1.400 . S
C1971 C1970 1.400 . S
C1971 C1972 1.398 . S
C1971 C1977 1.491 . S
C1972 H1963 0.950 . S
C1972 C1971 1.398 . S
C1972 C1973 1.391 . S
C1973 H1961 0.950 . S
C1973 C1969 1.393 . S
C1973 C1972 1.391 . S
C1974 H1964 0.950 . S
C1974 C1975 1.386 . S
C1974 C1976 1.391 . S
C1975 C1974 1.386 . S
C1975 C1979 1.393 . S
C1976 H1965 0.950 . S
C1976 C1974 1.391 . S
C1976 C1977 1.400 . S
C1977 C1971 1.491 . S
C1977 C1976 1.400 . S
C1977 C1978 1.398 . S
C1978 H1966 0.950 . S
C1978 C1977 1.398 . S
C1978 C1979 1.391 . S
C1979 H1967 0.950 . S
C1979 C1975 1.393 . S
C1979 C1978 1.391 . S
H1980 C1988 0.950 . S
H1981 C1993 0.950 . S
H1982 C1990 0.950 . S
H1983 C1992 0.950 . S
H1984 C1994 0.950 . S
H1985 C1996 0.950 . S
H1986 C1998 0.950 . S
H1987 C1999 0.950 . S
C1988 H1980 0.950 . S
C1988 C1989 1.386 . S
C1988 C1990 1.391 . S
C1989 C1988 1.386 . S
C1989 C1993 1.393 . S
C1990 H1982 0.950 . S
C1990 C1988 1.391 . S
C1990 C1991 1.400 . S
C1991 C1990 1.400 . S
C1991 C1992 1.398 . S
C1991 C1997 1.491 . S
C1992 H1983 0.950 . S
C1992 C1991 1.398 . S
C1992 C1993 1.391 . S
C1993 H1981 0.950 . S
C1993 C1989 1.393 . S
C1993 C1992 1.391 . S
C1994 H1984 0.950 . S
C1994 C1995 1.386 . S
C1994 C1996 1.391 . S
C1995 C1994 1.386 . S
C1995 C1999 1.393 . S
C1996 H1985 0.950 . S
C1996 C1994 1.391 . S
C1996 C1997 1.400 . S
C1997 C1991 1.491 . S
C1997 C1996 1.400 . S
C1997 C1998 1.398 . S
C1998 H1986 0.950 . S
C1998 C1997 1.398 . S
C1998 C1999 1.391 . S
C1999 H1987 0.950 . S
C1999 C1995 1.393 . S
C1999 C1998 1.391 . S
H2000 C2008 0.950 . S
H2001 C2013 0.950 . S
H2002 C2010 0.950 . S
H2003 C2012 0.950 . S
H2004 C2014 0.950 . S
H2005 C2016 0.950 . S
H2006 C2018 0.950 . S
H2007 C2019 0.950 . S
C2008 H2000 0.950 . S
C2008 C2009 1.386 . S
C2008 C2010 1.391 . S
C2009 C2008 1.386 . S
C2009 C2013 1.393 . S
C2010 H2002 0.950 . S
C2010 C2008 1.391 . S
C2010 C2011 1.400 . S
C2011 C2010 1.400 . S
C2011 C2012 1.398 . S
C2011 C2017 1.491 . S
C2012 H2003 0.950 . S
C2012 C2011 1.398 . S
C2012 C2013 1.391 . S
C2013 H2001 0.950 . S
C2013 C2009 1.393 . S
C2013 C2012 1.391 . S
C2014 H2004 0.950 . S
C2014 C2015 1.386 . S
C2014 C2016 1.391 . S
C2015 C2014 1.386 . S
C2015 C2019 1.393 . S
C2016 H2005 0.950 . S
C2016 C2014 1.391 . S
C2016 C2017 1.400 . S
C2017 C2011 1.491 . S
C2017 C2016 1.400 . S
C2017 C2018 1.398 . S
C2018 H2006 0.950 . S
C2018 C2017 1.398 . S
C2018 C2019 1.391 . S
C2019 H2007 0.950 . S
C2019 C2015 1.393 . S
C2019 C2018 1.391 . S
H2020 C2028 0.950 . S
H2021 C2033 0.950 . S
H2022 C2030 0.950 . S
H2023 C2032 0.950 . S
H2024 C2034 0.950 . S
H2025 C2036 0.950 . S
H2026 C2038 0.950 . S
H2027 C2039 0.950 . S
C2028 H2020 0.950 . S
C2028 C2029 1.386 . S
C2028 C2030 1.391 . S
C2029 C2028 1.386 . S
C2029 C2033 1.393 . S
C2030 H2022 0.950 . S
C2030 C2028 1.391 . S
C2030 C2031 1.400 . S
C2031 C2030 1.400 . S
C2031 C2032 1.398 . S
C2031 C2037 1.491 . S
C2032 H2023 0.950 . S
C2032 C2031 1.398 . S
C2032 C2033 1.391 . S
C2033 H2021 0.950 . S
C2033 C2029 1.393 . S
C2033 C2032 1.391 . S
C2034 H2024 0.950 . S
C2034 C2035 1.386 . S
C2034 C2036 1.391 . S
C2035 C2034 1.386 . S
C2035 C2039 1.393 . S
C2036 H2025 0.950 . S
C2036 C2034 1.391 . S
C2036 C2037 1.400 . S
C2037 C2031 1.491 . S
C2037 C2036 1.400 . S
C2037 C2038 1.398 . S
C2038 H2026 0.950 . S
C2038 C2037 1.398 . S
C2038 C2039 1.391 . S
C2039 H2027 0.950 . S
C2039 C2035 1.393 . S
C2039 C2038 1.391 . S
H2040 C2048 0.950 . S
H2041 C2053 0.950 . S
H2042 C2050 0.950 . S
H2043 C2052 0.950 . S
H2044 C2054 0.950 . S
H2045 C2056 0.950 . S
H2046 C2058 0.950 . S
H2047 C2059 0.950 . S
C2048 H2040 0.950 . S
C2048 C2049 1.386 . S
C2048 C2050 1.391 . S
C2049 C2048 1.386 . S
C2049 C2053 1.393 . S
C2050 H2042 0.950 . S
C2050 C2048 1.391 . S
C2050 C2051 1.400 . S
C2051 C2050 1.400 . S
C2051 C2052 1.398 . S
C2051 C2057 1.491 . S
C2052 H2043 0.950 . S
C2052 C2051 1.398 . S
C2052 C2053 1.391 . S
C2053 H2041 0.950 . S
C2053 C2049 1.393 . S
C2053 C2052 1.391 . S
C2054 H2044 0.950 . S
C2054 C2055 1.386 . S
C2054 C2056 1.391 . S
C2055 C2054 1.386 . S
C2055 C2059 1.393 . S
C2056 H2045 0.950 . S
C2056 C2054 1.391 . S
C2056 C2057 1.400 . S
C2057 C2051 1.491 . S
C2057 C2056 1.400 . S
C2057 C2058 1.398 . S
C2058 H2046 0.950 . S
C2058 C2057 1.398 . S
C2058 C2059 1.391 . S
C2059 H2047 0.950 . S
C2059 C2055 1.393 . S
C2059 C2058 1.391 . S
H2060 C2068 0.950 . S
H2061 C2073 0.950 . S
H2062 C2070 0.950 . S
H2063 C2072 0.950 . S
H2064 C2074 0.950 . S
H2065 C2076 0.950 . S
H2066 C2078 0.950 . S
H2067 C2079 0.950 . S
C2068 H2060 0.950 . S
C2068 C2069 1.386 . S
C2068 C2070 1.391 . S
C2069 C2068 1.386 . S
C2069 C2073 1.393 . S
C2070 H2062 0.950 . S
C2070 C2068 1.391 . S
C2070 C2071 1.400 . S
C2071 C2070 1.400 . S
C2071 C2072 1.398 . S
C2071 C2077 1.491 . S
C2072 H2063 0.950 . S
C2072 C2071 1.398 . S
C2072 C2073 1.391 . S
C2073 H2061 0.950 . S
C2073 C2069 1.393 . S
C2073 C2072 1.391 . S
C2074 H2064 0.950 . S
C2074 C2075 1.386 . S
C2074 C2076 1.391 . S
C2075 C2074 1.386 . S
C2075 C2079 1.393 . S
C2076 H2065 0.950 . S
C2076 C2074 1.391 . S
C2076 C2077 1.400 . S
C2077 C2071 1.491 . S
C2077 C2076 1.400 . S
C2077 C2078 1.398 . S
C2078 H2066 0.950 . S
C2078 C2077 1.398 . S
C2078 C2079 1.391 . S
C2079 H2067 0.950 . S
C2079 C2075 1.393 . S
C2079 C2078 1.391 . S
H2080 C2088 0.950 . S
H2081 C2093 0.950 . S
H2082 C2090 0.950 . S
H2083 C2092 0.950 . S
H2084 C2094 0.950 . S
H2085 C2096 0.950 . S
H2086 C2098 0.950 . S
H2087 C2099 0.950 . S
C2088 H2080 0.950 . S
C2088 C2089 1.386 . S
C2088 C2090 1.391 . S
C2089 C2088 1.386 . S
C2089 C2093 1.393 . S
C2090 H2082 0.950 . S
C2090 C2088 1.391 . S
C2090 C2091 1.400 . S
C2091 C2090 1.400 . S
C2091 C2092 1.398 . S
C2091 C2097 1.491 . S
C2092 H2083 0.950 . S
C2092 C2091 1.398 . S
C2092 C2093 1.391 . S
C2093 H2081 0.950 . S
C2093 C2089 1.393 . S
C2093 C2092 1.391 . S
C2094 H2084 0.950 . S
C2094 C2095 1.386 . S
C2094 C2096 1.391 . S
C2095 C2094 1.386 . S
C2095 C2099 1.393 . S
C2096 H2085 0.950 . S
C2096 C2094 1.391 . S
C2096 C2097 1.400 . S
C2097 C2091 1.491 . S
C2097 C2096 1.400 . S
C2097 C2098 1.398 . S
C2098 H2086 0.950 . S
C2098 C2097 1.398 . S
C2098 C2099 1.391 . S
C2099 H2087 0.950 . S
C2099 C2095 1.393 . S
C2099 C2098 1.391 . S
H2100 C2108 0.950 . S
H2101 C2113 0.950 . S
H2102 C2110 0.950 . S
H2103 C2112 0.950 . S
H2104 C2114 0.950 . S
H2105 C2116 0.950 . S
H2106 C2118 0.950 . S
H2107 C2119 0.950 . S
C2108 H2100 0.950 . S
C2108 C2109 1.386 . S
C2108 C2110 1.391 . S
C2109 C2108 1.386 . S
C2109 C2113 1.393 . S
C2110 H2102 0.950 . S
C2110 C2108 1.391 . S
C2110 C2111 1.400 . S
C2111 C2110 1.400 . S
C2111 C2112 1.398 . S
C2111 C2117 1.491 . S
C2112 H2103 0.950 . S
C2112 C2111 1.398 . S
C2112 C2113 1.391 . S
C2113 H2101 0.950 . S
C2113 C2109 1.393 . S
C2113 C2112 1.391 . S
C2114 H2104 0.950 . S
C2114 C2115 1.386 . S
C2114 C2116 1.391 . S
C2115 C2114 1.386 . S
C2115 C2119 1.393 . S
C2116 H2105 0.950 . S
C2116 C2114 1.391 . S
C2116 C2117 1.400 . S
C2117 C2111 1.491 . S
C2117 C2116 1.400 . S
C2117 C2118 1.398 . S
C2118 H2106 0.950 . S
C2118 C2117 1.398 . S
C2118 C2119 1.391 . S
C2119 H2107 0.950 . S
C2119 C2115 1.393 . S
C2119 C2118 1.391 . S
H2120 C2128 0.950 . S
H2121 C2133 0.950 . S
H2122 C2130 0.950 . S
H2123 C2132 0.950 . S
H2124 C2134 0.950 . S
H2125 C2136 0.950 . S
H2126 C2138 0.950 . S
H2127 C2139 0.950 . S
C2128 H2120 0.950 . S
C2128 C2129 1.386 . S
C2128 C2130 1.391 . S
C2129 C2128 1.386 . S
C2129 C2133 1.393 . S
C2130 H2122 0.950 . S
C2130 C2128 1.391 . S
C2130 C2131 1.400 . S
C2131 C2130 1.400 . S
C2131 C2132 1.398 . S
C2131 C2137 1.491 . S
C2132 H2123 0.950 . S
C2132 C2131 1.398 . S
C2132 C2133 1.391 . S
C2133 H2121 0.950 . S
C2133 C2129 1.393 . S
C2133 C2132 1.391 . S
C2134 H2124 0.950 . S
C2134 C2135 1.386 . S
C2134 C2136 1.391 . S
C2135 C2134 1.386 . S
C2135 C2139 1.393 . S
C2136 H2125 0.950 . S
C2136 C2134 1.391 . S
C2136 C2137 1.400 . S
C2137 C2131 1.491 . S
C2137 C2136 1.400 . S
C2137 C2138 1.398 . S
C2138 H2126 0.950 . S
C2138 C2137 1.398 . S
C2138 C2139 1.391 . S
C2139 H2127 0.950 . S
C2139 C2135 1.393 . S
C2139 C2138 1.391 . S
H2140 C2148 0.950 . S
H2141 C2153 0.950 . S
H2142 C2150 0.950 . S
H2143 C2152 0.950 . S
H2144 C2154 0.950 . S
H2145 C2156 0.950 . S
H2146 C2158 0.950 . S
H2147 C2159 0.950 . S
C2148 H2140 0.950 . S
C2148 C2149 1.386 . S
C2148 C2150 1.391 . S
C2149 C2148 1.386 . S
C2149 C2153 1.393 . S
C2150 H2142 0.950 . S
C2150 C2148 1.391 . S
C2150 C2151 1.400 . S
C2151 C2150 1.400 . S
C2151 C2152 1.398 . S
C2151 C2157 1.491 . S
C2152 H2143 0.950 . S
C2152 C2151 1.398 . S
C2152 C2153 1.391 . S
C2153 H2141 0.950 . S
C2153 C2149 1.393 . S
C2153 C2152 1.391 . S
C2154 H2144 0.950 . S
C2154 C2155 1.386 . S
C2154 C2156 1.391 . S
C2155 C2154 1.386 . S
C2155 C2159 1.393 . S
C2156 H2145 0.950 . S
C2156 C2154 1.391 . S
C2156 C2157 1.400 . S
C2157 C2151 1.491 . S
C2157 C2156 1.400 . S
C2157 C2158 1.398 . S
C2158 H2146 0.950 . S
C2158 C2157 1.398 . S
C2158 C2159 1.391 . S
C2159 H2147 0.950 . S
C2159 C2155 1.393 . S
C2159 C2158 1.391 . S
H2160 C2168 0.950 . S
H2161 C2173 0.950 . S
H2162 C2170 0.950 . S
H2163 C2172 0.950 . S
H2164 C2174 0.950 . S
H2165 C2176 0.950 . S
H2166 C2178 0.950 . S
H2167 C2179 0.950 . S
C2168 H2160 0.950 . S
C2168 C2169 1.386 . S
C2168 C2170 1.391 . S
C2169 C2168 1.386 . S
C2169 C2173 1.393 . S
C2170 H2162 0.950 . S
C2170 C2168 1.391 . S
C2170 C2171 1.400 . S
C2171 C2170 1.400 . S
C2171 C2172 1.398 . S
C2171 C2177 1.491 . S
C2172 H2163 0.950 . S
C2172 C2171 1.398 . S
C2172 C2173 1.391 . S
C2173 H2161 0.950 . S
C2173 C2169 1.393 . S
C2173 C2172 1.391 . S
C2174 H2164 0.950 . S
C2174 C2175 1.386 . S
C2174 C2176 1.391 . S
C2175 C2174 1.386 . S
C2175 C2179 1.393 . S
C2176 H2165 0.950 . S
C2176 C2174 1.391 . S
C2176 C2177 1.400 . S
C2177 C2171 1.491 . S
C2177 C2176 1.400 . S
C2177 C2178 1.398 . S
C2178 H2166 0.950 . S
C2178 C2177 1.398 . S
C2178 C2179 1.391 . S
C2179 H2167 0.950 . S
C2179 C2175 1.393 . S
C2179 C2178 1.391 . S
H2180 C2188 0.950 . S
H2181 C2193 0.950 . S
H2182 C2190 0.950 . S
H2183 C2192 0.950 . S
H2184 C2194 0.950 . S
H2185 C2196 0.950 . S
H2186 C2198 0.950 . S
H2187 C2199 0.950 . S
C2188 H2180 0.950 . S
C2188 C2189 1.386 . S
C2188 C2190 1.391 . S
C2189 C2188 1.386 . S
C2189 C2193 1.393 . S
C2190 H2182 0.950 . S
C2190 C2188 1.391 . S
C2190 C2191 1.400 . S
C2191 C2190 1.400 . S
C2191 C2192 1.398 . S
C2191 C2197 1.491 . S
C2192 H2183 0.950 . S
C2192 C2191 1.398 . S
C2192 C2193 1.391 . S
C2193 H2181 0.950 . S
C2193 C2189 1.393 . S
C2193 C2192 1.391 . S
C2194 H2184 0.950 . S
C2194 C2195 1.386 . S
C2194 C2196 1.391 . S
C2195 C2194 1.386 . S
C2195 C2199 1.393 . S
C2196 H2185 0.950 . S
C2196 C2194 1.391 . S
C2196 C2197 1.400 . S
C2197 C2191 1.491 . S
C2197 C2196 1.400 . S
C2197 C2198 1.398 . S
C2198 H2186 0.950 . S
C2198 C2197 1.398 . S
C2198 C2199 1.391 . S
C2199 H2187 0.950 . S
C2199 C2195 1.393 . S
C2199 C2198 1.391 . S
H2200 C2208 0.950 . S
H2201 C2213 0.950 . S
H2202 C2210 0.950 . S
H2203 C2212 0.950 . S
H2204 C2214 0.950 . S
H2205 C2216 0.950 . S
H2206 C2218 0.950 . S
H2207 C2219 0.950 . S
C2208 H2200 0.950 . S
C2208 C2209 1.386 . S
C2208 C2210 1.391 . S
C2209 C2208 1.386 . S
C2209 C2213 1.393 . S
C2210 H2202 0.950 . S
C2210 C2208 1.391 . S
C2210 C2211 1.400 . S
C2211 C2210 1.400 . S
C2211 C2212 1.398 . S
C2211 C2217 1.491 . S
C2212 H2203 0.950 . S
C2212 C2211 1.398 . S
C2212 C2213 1.391 . S
C2213 H2201 0.950 . S
C2213 C2209 1.393 . S
C2213 C2212 1.391 . S
C2214 H2204 0.950 . S
C2214 C2215 1.386 . S
C2214 C2216 1.391 . S
C2215 C2214 1.386 . S
C2215 C2219 1.393 . S
C2216 H2205 0.950 . S
C2216 C2214 1.391 . S
C2216 C2217 1.400 . S
C2217 C2211 1.491 . S
C2217 C2216 1.400 . S
C2217 C2218 1.398 . S
C2218 H2206 0.950 . S
C2218 C2217 1.398 . S
C2218 C2219 1.391 . S
C2219 H2207 0.950 . S
C2219 C2215 1.393 . S
C2219 C2218 1.391 . S
H2220 C2228 0.950 . S
H2221 C2233 0.950 . S
H2222 C2230 0.950 . S
H2223 C2232 0.950 . S
H2224 C2234 0.950 . S
H2225 C2236 0.950 . S
H2226 C2238 0.950 . S
H2227 C2239 0.950 . S
C2228 H2220 0.950 . S
C2228 C2229 1.386 . S
C2228 C2230 1.391 . S
C2229 C2228 1.386 . S
C2229 C2233 1.393 . S
C2230 H2222 0.950 . S
C2230 C2228 1.391 . S
C2230 C2231 1.400 . S
C2231 C2230 1.400 . S
C2231 C2232 1.398 . S
C2231 C2237 1.491 . S
C2232 H2223 0.950 . S
C2232 C2231 1.398 . S
C2232 C2233 1.391 . S
C2233 H2221 0.950 . S
C2233 C2229 1.393 . S
C2233 C2232 1.391 . S
C2234 H2224 0.950 . S
C2234 C2235 1.386 . S
C2234 C2236 1.391 . S
C2235 C2234 1.386 . S
C2235 C2239 1.393 . S
C2236 H2225 0.950 . S
C2236 C2234 1.391 . S
C2236 C2237 1.400 . S
C2237 C2231 1.491 . S
C2237 C2236 1.400 . S
C2237 C2238 1.398 . S
C2238 H2226 0.950 . S
C2238 C2237 1.398 . S
C2238 C2239 1.391 . S
C2239 H2227 0.950 . S
C2239 C2235 1.393 . S
C2239 C2238 1.391 . S
H2240 C2248 0.950 . S
H2241 C2253 0.950 . S
H2242 C2250 0.950 . S
H2243 C2252 0.950 . S
H2244 C2254 0.950 . S
H2245 C2256 0.950 . S
H2246 C2258 0.950 . S
H2247 C2259 0.950 . S
C2248 H2240 0.950 . S
C2248 C2249 1.386 . S
C2248 C2250 1.391 . S
C2249 C2248 1.386 . S
C2249 C2253 1.393 . S
C2250 H2242 0.950 . S
C2250 C2248 1.391 . S
C2250 C2251 1.400 . S
C2251 C2250 1.400 . S
C2251 C2252 1.398 . S
C2251 C2257 1.491 . S
C2252 H2243 0.950 . S
C2252 C2251 1.398 . S
C2252 C2253 1.391 . S
C2253 H2241 0.950 . S
C2253 C2249 1.393 . S
C2253 C2252 1.391 . S
C2254 H2244 0.950 . S
C2254 C2255 1.386 . S
C2254 C2256 1.391 . S
C2255 C2254 1.386 . S
C2255 C2259 1.393 . S
C2256 H2245 0.950 . S
C2256 C2254 1.391 . S
C2256 C2257 1.400 . S
C2257 C2251 1.491 . S
C2257 C2256 1.400 . S
C2257 C2258 1.398 . S
C2258 H2246 0.950 . S
C2258 C2257 1.398 . S
C2258 C2259 1.391 . S
C2259 H2247 0.950 . S
C2259 C2255 1.393 . S
C2259 C2258 1.391 . S
H2260 C2268 0.950 . S
H2261 C2273 0.950 . S
H2262 C2270 0.950 . S
H2263 C2272 0.950 . S
H2264 C2274 0.950 . S
H2265 C2276 0.950 . S
H2266 C2278 0.950 . S
H2267 C2279 0.950 . S
C2268 H2260 0.950 . S
C2268 C2269 1.386 . S
C2268 C2270 1.391 . S
C2269 C2268 1.386 . S
C2269 C2273 1.393 . S
C2270 H2262 0.950 . S
C2270 C2268 1.391 . S
C2270 C2271 1.400 . S
C2271 C2270 1.400 . S
C2271 C2272 1.398 . S
C2271 C2277 1.491 . S
C2272 H2263 0.950 . S
C2272 C2271 1.398 . S
C2272 C2273 1.391 . S
C2273 H2261 0.950 . S
C2273 C2269 1.393 . S
C2273 C2272 1.391 . S
C2274 H2264 0.950 . S
C2274 C2275 1.386 . S
C2274 C2276 1.391 . S
C2275 C2274 1.386 . S
C2275 C2279 1.393 . S
C2276 H2265 0.950 . S
C2276 C2274 1.391 . S
C2276 C2277 1.400 . S
C2277 C2271 1.491 . S
C2277 C2276 1.400 . S
C2277 C2278 1.398 . S
C2278 H2266 0.950 . S
C2278 C2277 1.398 . S
C2278 C2279 1.391 . S
C2279 H2267 0.950 . S
C2279 C2275 1.393 . S
C2279 C2278 1.391 . S
H2280 C2288 0.950 . S
H2281 C2293 0.950 . S
H2282 C2290 0.950 . S
H2283 C2292 0.950 . S
H2284 C2294 0.950 . S
H2285 C2296 0.950 . S
H2286 C2298 0.950 . S
H2287 C2299 0.950 . S
C2288 H2280 0.950 . S
C2288 C2289 1.386 . S
C2288 C2290 1.391 . S
C2289 C2288 1.386 . S
C2289 C2293 1.393 . S
C2290 H2282 0.950 . S
C2290 C2288 1.391 . S
C2290 C2291 1.400 . S
C2291 C2290 1.400 . S
C2291 C2292 1.398 . S
C2291 C2297 1.491 . S
C2292 H2283 0.950 . S
C2292 C2291 1.398 . S
C2292 C2293 1.391 . S
C2293 H2281 0.950 . S
C2293 C2289 1.393 . S
C2293 C2292 1.391 . S
C2294 H2284 0.950 . S
C2294 C2295 1.386 . S
C2294 C2296 1.391 . S
C2295 C2294 1.386 . S
C2295 C2299 1.393 . S
C2296 H2285 0.950 . S
C2296 C2294 1.391 . S
C2296 C2297 1.400 . S
C2297 C2291 1.491 . S
C2297 C2296 1.400 . S
C2297 C2298 1.398 . S
C2298 H2286 0.950 . S
C2298 C2297 1.398 . S
C2298 C2299 1.391 . S
C2299 H2287 0.950 . S
C2299 C2295 1.393 . S
C2299 C2298 1.391 . S
H2300 C2308 0.950 . S
H2301 C2313 0.950 . S
H2302 C2310 0.950 . S
H2303 C2312 0.950 . S
H2304 C2314 0.950 . S
H2305 C2316 0.950 . S
H2306 C2318 0.950 . S
H2307 C2319 0.950 . S
C2308 H2300 0.950 . S
C2308 C2309 1.386 . S
C2308 C2310 1.391 . S
C2309 C2308 1.386 . S
C2309 C2313 1.393 . S
C2310 H2302 0.950 . S
C2310 C2308 1.391 . S
C2310 C2311 1.400 . S
C2311 C2310 1.400 . S
C2311 C2312 1.398 . S
C2311 C2317 1.491 . S
C2312 H2303 0.950 . S
C2312 C2311 1.398 . S
C2312 C2313 1.391 . S
C2313 H2301 0.950 . S
C2313 C2309 1.393 . S
C2313 C2312 1.391 . S
C2314 H2304 0.950 . S
C2314 C2315 1.386 . S
C2314 C2316 1.391 . S
C2315 C2314 1.386 . S
C2315 C2319 1.393 . S
C2316 H2305 0.950 . S
C2316 C2314 1.391 . S
C2316 C2317 1.400 . S
C2317 C2311 1.491 . S
C2317 C2316 1.400 . S
C2317 C2318 1.398 . S
C2318 H2306 0.950 . S
C2318 C2317 1.398 . S
C2318 C2319 1.391 . S
C2319 H2307 0.950 . S
C2319 C2315 1.393 . S
C2319 C2318 1.391 . S
H2320 C2328 0.950 . S
H2321 C2333 0.950 . S
H2322 C2330 0.950 . S
H2323 C2332 0.950 . S
H2324 C2334 0.950 . S
H2325 C2336 0.950 . S
H2326 C2338 0.950 . S
H2327 C2339 0.950 . S
C2328 H2320 0.950 . S
C2328 C2329 1.386 . S
C2328 C2330 1.391 . S
C2329 C2328 1.386 . S
C2329 C2333 1.393 . S
C2330 H2322 0.950 . S
C2330 C2328 1.391 . S
C2330 C2331 1.400 . S
C2331 C2330 1.400 . S
C2331 C2332 1.398 . S
C2331 C2337 1.491 . S
C2332 H2323 0.950 . S
C2332 C2331 1.398 . S
C2332 C2333 1.391 . S
C2333 H2321 0.950 . S
C2333 C2329 1.393 . S
C2333 C2332 1.391 . S
C2334 H2324 0.950 . S
C2334 C2335 1.386 . S
C2334 C2336 1.391 . S
C2335 C2334 1.386 . S
C2335 C2339 1.393 . S
C2336 H2325 0.950 . S
C2336 C2334 1.391 . S
C2336 C2337 1.400 . S
C2337 C2331 1.491 . S
C2337 C2336 1.400 . S
C2337 C2338 1.398 . S
C2338 H2326 0.950 . S
C2338 C2337 1.398 . S
C2338 C2339 1.391 . S
C2339 H2327 0.950 . S
C2339 C2335 1.393 . S
C2339 C2338 1.391 . S
H2340 C2348 0.950 . S
H2341 C2353 0.950 . S
H2342 C2350 0.950 . S
H2343 C2352 0.950 . S
H2344 C2354 0.950 . S
H2345 C2356 0.950 . S
H2346 C2358 0.950 . S
H2347 C2359 0.950 . S
C2348 H2340 0.950 . S
C2348 C2349 1.386 . S
C2348 C2350 1.391 . S
C2349 C2348 1.386 . S
C2349 C2353 1.393 . S
C2350 H2342 0.950 . S
C2350 C2348 1.391 . S
C2350 C2351 1.400 . S
C2351 C2350 1.400 . S
C2351 C2352 1.398 . S
C2351 C2357 1.491 . S
C2352 H2343 0.950 . S
C2352 C2351 1.398 . S
C2352 C2353 1.391 . S
C2353 H2341 0.950 . S
C2353 C2349 1.393 . S
C2353 C2352 1.391 . S
C2354 H2344 0.950 . S
C2354 C2355 1.386 . S
C2354 C2356 1.391 . S
C2355 C2354 1.386 . S
C2355 C2359 1.393 . S
C2356 H2345 0.950 . S
C2356 C2354 1.391 . S
C2356 C2357 1.400 . S
C2357 C2351 1.491 . S
C2357 C2356 1.400 . S
C2357 C2358 1.398 . S
C2358 H2346 0.950 . S
C2358 C2357 1.398 . S
C2358 C2359 1.391 . S
C2359 H2347 0.950 . S
C2359 C2355 1.393 . S
C2359 C2358 1.391 . S
H2360 C2368 0.950 . S
H2361 C2373 0.950 . S
H2362 C2370 0.950 . S
H2363 C2372 0.950 . S
H2364 C2374 0.950 . S
H2365 C2376 0.950 . S
H2366 C2378 0.950 . S
H2367 C2379 0.950 . S
C2368 H2360 0.950 . S
C2368 C2369 1.386 . S
C2368 C2370 1.391 . S
C2369 C2368 1.386 . S
C2369 C2373 1.393 . S
C2370 H2362 0.950 . S
C2370 C2368 1.391 . S
C2370 C2371 1.400 . S
C2371 C2370 1.400 . S
C2371 C2372 1.398 . S
C2371 C2377 1.491 . S
C2372 H2363 0.950 . S
C2372 C2371 1.398 . S
C2372 C2373 1.391 . S
C2373 H2361 0.950 . S
C2373 C2369 1.393 . S
C2373 C2372 1.391 . S
C2374 H2364 0.950 . S
C2374 C2375 1.386 . S
C2374 C2376 1.391 . S
C2375 C2374 1.386 . S
C2375 C2379 1.393 . S
C2376 H2365 0.950 . S
C2376 C2374 1.391 . S
C2376 C2377 1.400 . S
C2377 C2371 1.491 . S
C2377 C2376 1.400 . S
C2377 C2378 1.398 . S
C2378 H2366 0.950 . S
C2378 C2377 1.398 . S
C2378 C2379 1.391 . S
C2379 H2367 0.950 . S
C2379 C2375 1.393 . S
C2379 C2378 1.391 . S
H2380 C2388 0.950 . S
H2381 C2393 0.950 . S
H2382 C2390 0.950 . S
H2383 C2392 0.950 . S
H2384 C2394 0.950 . S
H2385 C2396 0.950 . S
H2386 C2398 0.950 . S
H2387 C2399 0.950 . S
C2388 H2380 0.950 . S
C2388 C2389 1.386 . S
C2388 C2390 1.391 . S
C2389 C2388 1.386 . S
C2389 C2393 1.393 . S
C2390 H2382 0.950 . S
C2390 C2388 1.391 . S
C2390 C2391 1.400 . S
C2391 C2390 1.400 . S
C2391 C2392 1.398 . S
C2391 C2397 1.491 . S
C2392 H2383 0.950 . S
C2392 C2391 1.398 . S
C2392 C2393 1.391 . S
C2393 H2381 0.950 . S
C2393 C2389 1.393 . S
C2393 C2392 1.391 . S
C2394 H2384 0.950 . S
C2394 C2395 1.386 . S
C2394 C2396 1.391 . S
C2395 C2394 1.386 . S
C2395 C2399 1.393 . S
C2396 H2385 0.950 . S
C2396 C2394 1.391 . S
C2396 C2397 1.400 . S
C2397 C2391 1.491 . S
C2397 C2396 1.400 . S
C2397 C2398 1.398 . S
C2398 H2386 0.950 . S
C2398 C2397 1.398 . S
C2398 C2399 1.391 . S
C2399 H2387 0.950 . S
C2399 C2395 1.393 . S
C2399 C2398 1.391 . S
H2400 C2408 0.950 . S
H2401 C2413 0.950 . S
H2402 C2410 0.950 . S
H2403 C2412 0.950 . S
H2404 C2414 0.950 . S
H2405 C2416 0.950 . S
H2406 C2418 0.950 . S
H2407 C2419 0.950 . S
C2408 H2400 0.950 . S
C2408 C2409 1.386 . S
C2408 C2410 1.391 . S
C2409 C2408 1.386 . S
C2409 C2413 1.393 . S
C2410 H2402 0.950 . S
C2410 C2408 1.391 . S
C2410 C2411 1.400 . S
C2411 C2410 1.400 . S
C2411 C2412 1.398 . S
C2411 C2417 1.491 . S
C2412 H2403 0.950 . S
C2412 C2411 1.398 . S
C2412 C2413 1.391 . S
C2413 H2401 0.950 . S
C2413 C2409 1.393 . S
C2413 C2412 1.391 . S
C2414 H2404 0.950 . S
C2414 C2415 1.386 . S
C2414 C2416 1.391 . S
C2415 C2414 1.386 . S
C2415 C2419 1.393 . S
C2416 H2405 0.950 . S
C2416 C2414 1.391 . S
C2416 C2417 1.400 . S
C2417 C2411 1.491 . S
C2417 C2416 1.400 . S
C2417 C2418 1.398 . S
C2418 H2406 0.950 . S
C2418 C2417 1.398 . S
C2418 C2419 1.391 . S
C2419 H2407 0.950 . S
C2419 C2415 1.393 . S
C2419 C2418 1.391 . S
H2420 C2428 0.950 . S
H2421 C2433 0.950 . S
H2422 C2430 0.950 . S
H2423 C2432 0.950 . S
H2424 C2434 0.950 . S
H2425 C2436 0.950 . S
H2426 C2438 0.950 . S
H2427 C2439 0.950 . S
C2428 H2420 0.950 . S
C2428 C2429 1.386 . S
C2428 C2430 1.391 . S
C2429 C2428 1.386 . S
C2429 C2433 1.393 . S
C2430 H2422 0.950 . S
C2430 C2428 1.391 . S
C2430 C2431 1.400 . S
C2431 C2430 1.400 . S
C2431 C2432 1.398 . S
C2431 C2437 1.491 . S
C2432 H2423 0.950 . S
C2432 C2431 1.398 . S
C2432 C2433 1.391 . S
C2433 H2421 0.950 . S
C2433 C2429 1.393 . S
C2433 C2432 1.391 . S
C2434 H2424 0.950 . S
C2434 C2435 1.386 . S
C2434 C2436 1.391 . S
C2435 C2434 1.386 . S
C2435 C2439 1.393 . S
C2436 H2425 0.950 . S
C2436 C2434 1.391 . S
C2436 C2437 1.400 . S
C2437 C2431 1.491 . S
C2437 C2436 1.400 . S
C2437 C2438 1.398 . S
C2438 H2426 0.950 . S
C2438 C2437 1.398 . S
C2438 C2439 1.391 . S
C2439 H2427 0.950 . S
C2439 C2435 1.393 . S
C2439 C2438 1.391 . S
H2440 C2448 0.950 . S
H2441 C2453 0.950 . S
H2442 C2450 0.950 . S
H2443 C2452 0.950 . S
H2444 C2454 0.950 . S
H2445 C2456 0.950 . S
H2446 C2458 0.950 . S
H2447 C2459 0.950 . S
C2448 H2440 0.950 . S
C2448 C2449 1.386 . S
C2448 C2450 1.391 . S
C2449 C2448 1.386 . S
C2449 C2453 1.393 . S
C2450 H2442 0.950 . S
C2450 C2448 1.391 . S
C2450 C2451 1.400 . S
C2451 C2450 1.400 . S
C2451 C2452 1.398 . S
C2451 C2457 1.491 . S
C2452 H2443 0.950 . S
C2452 C2451 1.398 . S
C2452 C2453 1.391 . S
C2453 H2441 0.950 . S
C2453 C2449 1.393 . S
C2453 C2452 1.391 . S
C2454 H2444 0.950 . S
C2454 C2455 1.386 . S
C2454 C2456 1.391 . S
C2455 C2454 1.386 . S
C2455 C2459 1.393 . S
C2456 H2445 0.950 . S
C2456 C2454 1.391 . S
C2456 C2457 1.400 . S
C2457 C2451 1.491 . S
C2457 C2456 1.400 . S
C2457 C2458 1.398 . S
C2458 H2446 0.950 . S
C2458 C2457 1.398 . S
C2458 C2459 1.391 . S
C2459 H2447 0.950 . S
C2459 C2455 1.393 . S
C2459 C2458 1.391 . S
H2460 C2468 0.950 . S
H2461 C2473 0.950 . S
H2462 C2470 0.950 . S
H2463 C2472 0.950 . S
H2464 C2474 0.950 . S
H2465 C2476 0.950 . S
H2466 C2478 0.950 . S
H2467 C2479 0.950 . S
C2468 H2460 0.950 . S
C2468 C2469 1.386 . S
C2468 C2470 1.391 . S
C2469 C2468 1.386 . S
C2469 C2473 1.393 . S
C2470 H2462 0.950 . S
C2470 C2468 1.391 . S
C2470 C2471 1.400 . S
C2471 C2470 1.400 . S
C2471 C2472 1.398 . S
C2471 C2477 1.491 . S
C2472 H2463 0.950 . S
C2472 C2471 1.398 . S
C2472 C2473 1.391 . S
C2473 H2461 0.950 . S
C2473 C2469 1.393 . S
C2473 C2472 1.391 . S
C2474 H2464 0.950 . S
C2474 C2475 1.386 . S
C2474 C2476 1.391 . S
C2475 C2474 1.386 . S
C2475 C2479 1.393 . S
C2476 H2465 0.950 . S
C2476 C2474 1.391 . S
C2476 C2477 1.400 . S
C2477 C2471 1.491 . S
C2477 C2476 1.400 . S
C2477 C2478 1.398 . S
C2478 H2466 0.950 . S
C2478 C2477 1.398 . S
C2478 C2479 1.391 . S
C2479 H2467 0.950 . S
C2479 C2475 1.393 . S
C2479 C2478 1.391 . S
H2480 C2488 0.950 . S
H2481 C2493 0.950 . S
H2482 C2490 0.950 . S
H2483 C2492 0.950 . S
H2484 C2494 0.950 . S
H2485 C2496 0.950 . S
H2486 C2498 0.950 . S
H2487 C2499 0.950 . S
C2488 H2480 0.950 . S
C2488 C2489 1.386 . S
C2488 C2490 1.391 . S
C2489 C2488 1.386 . S
C2489 C2493 1.393 . S
C2490 H2482 0.950 . S
C2490 C2488 1.391 . S
C2490 C2491 1.400 . S
C2491 C2490 1.400 . S
C2491 C2492 1.398 . S
C2491 C2497 1.491 . S
C2492 H2483 0.950 . S
C2492 C2491 1.398 . S
C2492 C2493 1.391 . S
C2493 H2481 0.950 . S
C2493 C2489 1.393 . S
C2493 C2492 1.391 . S
C2494 H2484 0.950 . S
C2494 C2495 1.386 . S
C2494 C2496 1.391 . S
C2495 C2494 1.386 . S
C2495 C2499 1.393 . S
C2496 H2485 0.950 . S
C2496 C2494 1.391 . S
C2496 C2497 1.400 . S
C2497 C2491 1.491 . S
C2497 C2496 1.400 . S
C2497 C2498 1.398 . S
C2498 H2486 0.950 . S
C2498 C2497 1.398 . S
C2498 C2499 1.391 . S
C2499 H2487 0.950 . S
C2499 C2495 1.393 . S
C2499 C2498 1.391 . S
H2500 C2508 0.950 . S
H2501 C2513 0.950 . S
H2502 C2510 0.950 . S
H2503 C2512 0.950 . S
H2504 C2514 0.950 . S
H2505 C2516 0.950 . S
H2506 C2518 0.950 . S
H2507 C2519 0.950 . S
C2508 H2500 0.950 . S
C2508 C2509 1.386 . S
C2508 C2510 1.391 . S
C2509 C2508 1.386 . S
C2509 C2513 1.393 . S
C2510 H2502 0.950 . S
C2510 C2508 1.391 . S
C2510 C2511 1.400 . S
C2511 C2510 1.400 . S
C2511 C2512 1.398 . S
C2511 C2517 1.491 . S
C2512 H2503 0.950 . S
C2512 C2511 1.398 . S
C2512 C2513 1.391 . S
C2513 H2501 0.950 . S
C2513 C2509 1.393 . S
C2513 C2512 1.391 . S
C2514 H2504 0.950 . S
C2514 C2515 1.386 . S
C2514 C2516 1.391 . S
C2515 C2514 1.386 . S
C2515 C2519 1.393 . S
C2516 H2505 0.950 . S
C2516 C2514 1.391 . S
C2516 C2517 1.400 . S
C2517 C2511 1.491 . S
C2517 C2516 1.400 . S
C2517 C2518 1.398 . S
C2518 H2506 0.950 . S
C2518 C2517 1.398 . S
C2518 C2519 1.391 . S
C2519 H2507 0.950 . S
C2519 C2515 1.393 . S
C2519 C2518 1.391 . S
H2520 C2528 0.950 . S
H2521 C2533 0.950 . S
H2522 C2530 0.950 . S
H2523 C2532 0.950 . S
H2524 C2534 0.950 . S
H2525 C2536 0.950 . S
H2526 C2538 0.950 . S
H2527 C2539 0.950 . S
C2528 H2520 0.950 . S
C2528 C2529 1.386 . S
C2528 C2530 1.391 . S
C2529 C2528 1.386 . S
C2529 C2533 1.393 . S
C2530 H2522 0.950 . S
C2530 C2528 1.391 . S
C2530 C2531 1.400 . S
C2531 C2530 1.400 . S
C2531 C2532 1.398 . S
C2531 C2537 1.491 . S
C2532 H2523 0.950 . S
C2532 C2531 1.398 . S
C2532 C2533 1.391 . S
C2533 H2521 0.950 . S
C2533 C2529 1.393 . S
C2533 C2532 1.391 . S
C2534 H2524 0.950 . S
C2534 C2535 1.386 . S
C2534 C2536 1.391 . S
C2535 C2534 1.386 . S
C2535 C2539 1.393 . S
C2536 H2525 0.950 . S
C2536 C2534 1.391 . S
C2536 C2537 1.400 . S
C2537 C2531 1.491 . S
C2537 C2536 1.400 . S
C2537 C2538 1.398 . S
C2538 H2526 0.950 . S
C2538 C2537 1.398 . S
C2538 C2539 1.391 . S
C2539 H2527 0.950 . S
C2539 C2535 1.393 . S
C2539 C2538 1.391 . S
H2540 C2548 0.950 . S
H2541 C2553 0.950 . S
H2542 C2550 0.950 . S
H2543 C2552 0.950 . S
H2544 C2554 0.950 . S
H2545 C2556 0.950 . S
H2546 C2558 0.950 . S
H2547 C2559 0.950 . S
C2548 H2540 0.950 . S
C2548 C2549 1.386 . S
C2548 C2550 1.391 . S
C2549 C2548 1.386 . S
C2549 C2553 1.393 . S
C2550 H2542 0.950 . S
C2550 C2548 1.391 . S
C2550 C2551 1.400 . S
C2551 C2550 1.400 . S
C2551 C2552 1.398 . S
C2551 C2557 1.491 . S
C2552 H2543 0.950 . S
C2552 C2551 1.398 . S
C2552 C2553 1.391 . S
C2553 H2541 0.950 . S
C2553 C2549 1.393 . S
C2553 C2552 1.391 . S
C2554 H2544 0.950 . S
C2554 C2555 1.386 . S
C2554 C2556 1.391 . S
C2555 C2554 1.386 . S
C2555 C2559 1.393 . S
C2556 H2545 0.950 . S
C2556 C2554 1.391 . S
C2556 C2557 1.400 . S
C2557 C2551 1.491 . S
C2557 C2556 1.400 . S
C2557 C2558 1.398 . S
C2558 H2546 0.950 . S
C2558 C2557 1.398 . S
C2558 C2559 1.391 . S
C2559 H2547 0.950 . S
C2559 C2555 1.393 . S
C2559 C2558 1.391 . S
H2560 C2568 0.950 . S
H2561 C2573 0.950 . S
H2562 C2570 0.950 . S
H2563 C2572 0.950 . S
H2564 C2574 0.950 . S
H2565 C2576 0.950 . S
H2566 C2578 0.950 . S
H2567 C2579 0.950 . S
C2568 H2560 0.950 . S
C2568 C2569 1.386 . S
C2568 C2570 1.391 . S
C2569 C2568 1.386 . S
C2569 C2573 1.393 . S
C2570 H2562 0.950 . S
C2570 C2568 1.391 . S
C2570 C2571 1.400 . S
C2571 C2570 1.400 . S
C2571 C2572 1.398 . S
C2571 C2577 1.491 . S
C2572 H2563 0.950 . S
C2572 C2571 1.398 . S
C2572 C2573 1.391 . S
C2573 H2561 0.950 . S
C2573 C2569 1.393 . S
C2573 C2572 1.391 . S
C2574 H2564 0.950 . S
C2574 C2575 1.386 . S
C2574 C2576 1.391 . S
C2575 C2574 1.386 . S
C2575 C2579 1.393 . S
C2576 H2565 0.950 . S
C2576 C2574 1.391 . S
C2576 C2577 1.400 . S
C2577 C2571 1.491 . S
C2577 C2576 1.400 . S
C2577 C2578 1.398 . S
C2578 H2566 0.950 . S
C2578 C2577 1.398 . S
C2578 C2579 1.391 . S
C2579 H2567 0.950 . S
C2579 C2575 1.393 . S
C2579 C2578 1.391 . S
H2580 C2588 0.950 . S
H2581 C2593 0.950 . S
H2582 C2590 0.950 . S
H2583 C2592 0.950 . S
H2584 C2594 0.950 . S
H2585 C2596 0.950 . S
H2586 C2598 0.950 . S
H2587 C2599 0.950 . S
C2588 H2580 0.950 . S
C2588 C2589 1.386 . S
C2588 C2590 1.391 . S
C2589 C2588 1.386 . S
C2589 C2593 1.393 . S
C2590 H2582 0.950 . S
C2590 C2588 1.391 . S
C2590 C2591 1.400 . S
C2591 C2590 1.400 . S
C2591 C2592 1.398 . S
C2591 C2597 1.491 . S
C2592 H2583 0.950 . S
C2592 C2591 1.398 . S
C2592 C2593 1.391 . S
C2593 H2581 0.950 . S
C2593 C2589 1.393 . S
C2593 C2592 1.391 . S
C2594 H2584 0.950 . S
C2594 C2595 1.386 . S
C2594 C2596 1.391 . S
C2595 C2594 1.386 . S
C2595 C2599 1.393 . S
C2596 H2585 0.950 . S
C2596 C2594 1.391 . S
C2596 C2597 1.400 . S
C2597 C2591 1.491 . S
C2597 C2596 1.400 . S
C2597 C2598 1.398 . S
C2598 H2586 0.950 . S
C2598 C2597 1.398 . S
C2598 C2599 1.391 . S
C2599 H2587 0.950 . S
C2599 C2595 1.393 . S
C2599 C2598 1.391 . S
H2600 C2608 0.950 . S
H2601 C2613 0.950 . S
H2602 C2610 0.950 . S
H2603 C2612 0.950 . S
H2604 C2614 0.950 . S
H2605 C2616 0.950 . S
H2606 C2618 0.950 . S
H2607 C2619 0.950 . S
C2608 H2600 0.950 . S
C2608 C2609 1.386 . S
C2608 C2610 1.391 . S
C2609 C2608 1.386 . S
C2609 C2613 1.393 . S
C2610 H2602 0.950 . S
C2610 C2608 1.391 . S
C2610 C2611 1.400 . S
C2611 C2610 1.400 . S
C2611 C2612 1.398 . S
C2611 C2617 1.491 . S
C2612 H2603 0.950 . S
C2612 C2611 1.398 . S
C2612 C2613 1.391 . S
C2613 H2601 0.950 . S
C2613 C2609 1.393 . S
C2613 C2612 1.391 . S
C2614 H2604 0.950 . S
C2614 C2615 1.386 . S
C2614 C2616 1.391 . S
C2615 C2614 1.386 . S
C2615 C2619 1.393 . S
C2616 H2605 0.950 . S
C2616 C2614 1.391 . S
C2616 C2617 1.400 . S
C2617 C2611 1.491 . S
C2617 C2616 1.400 . S
C2617 C2618 1.398 . S
C2618 H2606 0.950 . S
C2618 C2617 1.398 . S
C2618 C2619 1.391 . S
C2619 H2607 0.950 . S
C2619 C2615 1.393 . S
C2619 C2618 1.391 . S
H2620 C2628 0.950 . S
H2621 C2633 0.950 . S
H2622 C2630 0.950 . S
H2623 C2632 0.950 . S
H2624 C2634 0.950 . S
H2625 C2636 0.950 . S
H2626 C2638 0.950 . S
H2627 C2639 0.950 . S
C2628 H2620 0.950 . S
C2628 C2629 1.386 . S
C2628 C2630 1.391 . S
C2629 C2628 1.386 . S
C2629 C2633 1.393 . S
C2630 H2622 0.950 . S
C2630 C2628 1.391 . S
C2630 C2631 1.400 . S
C2631 C2630 1.400 . S
C2631 C2632 1.398 . S
C2631 C2637 1.491 . S
C2632 H2623 0.950 . S
C2632 C2631 1.398 . S
C2632 C2633 1.391 . S
C2633 H2621 0.950 . S
C2633 C2629 1.393 . S
C2633 C2632 1.391 . S
C2634 H2624 0.950 . S
C2634 C2635 1.386 . S
C2634 C2636 1.391 . S
C2635 C2634 1.386 . S
C2635 C2639 1.393 . S
C2636 H2625 0.950 . S
C2636 C2634 1.391 . S
C2636 C2637 1.400 . S
C2637 C2631 1.491 . S
C2637 C2636 1.400 . S
C2637 C2638 1.398 . S
C2638 H2626 0.950 . S
C2638 C2637 1.398 . S
C2638 C2639 1.391 . S
C2639 H2627 0.950 . S
C2639 C2635 1.393 . S
C2639 C2638 1.391 . S
H2640 C2648 0.950 . S
H2641 C2653 0.950 . S
H2642 C2650 0.950 . S
H2643 C2652 0.950 . S
H2644 C2654 0.950 . S
H2645 C2656 0.950 . S
H2646 C2658 0.950 . S
H2647 C2659 0.950 . S
C2648 H2640 0.950 . S
C2648 C2649 1.386 . S
C2648 C2650 1.391 . S
C2649 C2648 1.386 . S
C2649 C2653 1.393 . S
C2650 H2642 0.950 . S
C2650 C2648 1.391 . S
C2650 C2651 1.400 . S
C2651 C2650 1.400 . S
C2651 C2652 1.398 . S
C2651 C2657 1.491 . S
C2652 H2643 0.950 . S
C2652 C2651 1.398 . S
C2652 C2653 1.391 . S
C2653 H2641 0.950 . S
C2653 C2649 1.393 . S
C2653 C2652 1.391 . S
C2654 H2644 0.950 . S
C2654 C2655 1.386 . S
C2654 C2656 1.391 . S
C2655 C2654 1.386 . S
C2655 C2659 1.393 . S
C2656 H2645 0.950 . S
C2656 C2654 1.391 . S
C2656 C2657 1.400 . S
C2657 C2651 1.491 . S
C2657 C2656 1.400 . S
C2657 C2658 1.398 . S
C2658 H2646 0.950 . S
C2658 C2657 1.398 . S
C2658 C2659 1.391 . S
C2659 H2647 0.950 . S
C2659 C2655 1.393 . S
C2659 C2658 1.391 . S
H2660 C2668 0.950 . S
H2661 C2673 0.950 . S
H2662 C2670 0.950 . S
H2663 C2672 0.950 . S
H2664 C2674 0.950 . S
H2665 C2676 0.950 . S
H2666 C2678 0.950 . S
H2667 C2679 0.950 . S
C2668 H2660 0.950 . S
C2668 C2669 1.386 . S
C2668 C2670 1.391 . S
C2669 C2668 1.386 . S
C2669 C2673 1.393 . S
C2670 H2662 0.950 . S
C2670 C2668 1.391 . S
C2670 C2671 1.400 . S
C2671 C2670 1.400 . S
C2671 C2672 1.398 . S
C2671 C2677 1.491 . S
C2672 H2663 0.950 . S
C2672 C2671 1.398 . S
C2672 C2673 1.391 . S
C2673 H2661 0.950 . S
C2673 C2669 1.393 . S
C2673 C2672 1.391 . S
C2674 H2664 0.950 . S
C2674 C2675 1.386 . S
C2674 C2676 1.391 . S
C2675 C2674 1.386 . S
C2675 C2679 1.393 . S
C2676 H2665 0.950 . S
C2676 C2674 1.391 . S
C2676 C2677 1.400 . S
C2677 C2671 1.491 . S
C2677 C2676 1.400 . S
C2677 C2678 1.398 . S
C2678 H2666 0.950 . S
C2678 C2677 1.398 . S
C2678 C2679 1.391 . S
C2679 H2667 0.950 . S
C2679 C2675 1.393 . S
C2679 C2678 1.391 . S
H2680 C2688 0.950 . S
H2681 C2693 0.950 . S
H2682 C2690 0.950 . S
H2683 C2692 0.950 . S
H2684 C2694 0.950 . S
H2685 C2696 0.950 . S
H2686 C2698 0.950 . S
H2687 C2699 0.950 . S
C2688 H2680 0.950 . S
C2688 C2689 1.386 . S
C2688 C2690 1.391 . S
C2689 C2688 1.386 . S
C2689 C2693 1.393 . S
C2690 H2682 0.950 . S
C2690 C2688 1.391 . S
C2690 C2691 1.400 . S
C2691 C2690 1.400 . S
C2691 C2692 1.398 . S
C2691 C2697 1.491 . S
C2692 H2683 0.950 . S
C2692 C2691 1.398 . S
C2692 C2693 1.391 . S
C2693 H2681 0.950 . S
C2693 C2689 1.393 . S
C2693 C2692 1.391 . S
C2694 H2684 0.950 . S
C2694 C2695 1.386 . S
C2694 C2696 1.391 . S
C2695 C2694 1.386 . S
C2695 C2699 1.393 . S
C2696 H2685 0.950 . S
C2696 C2694 1.391 . S
C2696 C2697 1.400 . S
C2697 C2691 1.491 . S
C2697 C2696 1.400 . S
C2697 C2698 1.398 . S
C2698 H2686 0.950 . S
C2698 C2697 1.398 . S
C2698 C2699 1.391 . S
C2699 H2687 0.950 . S
C2699 C2695 1.393 . S
C2699 C2698 1.391 . S
H2700 C2708 0.950 . S
H2701 C2713 0.950 . S
H2702 C2710 0.950 . S
H2703 C2712 0.950 . S
H2704 C2714 0.950 . S
H2705 C2716 0.950 . S
H2706 C2718 0.950 . S
H2707 C2719 0.950 . S
C2708 H2700 0.950 . S
C2708 C2709 1.386 . S
C2708 C2710 1.391 . S
C2709 C2708 1.386 . S
C2709 C2713 1.393 . S
C2710 H2702 0.950 . S
C2710 C2708 1.391 . S
C2710 C2711 1.400 . S
C2711 C2710 1.400 . S
C2711 C2712 1.398 . S
C2711 C2717 1.491 . S
C2712 H2703 0.950 . S
C2712 C2711 1.398 . S
C2712 C2713 1.391 . S
C2713 H2701 0.950 . S
C2713 C2709 1.393 . S
C2713 C2712 1.391 . S
C2714 H2704 0.950 . S
C2714 C2715 1.386 . S
C2714 C2716 1.391 . S
C2715 C2714 1.386 . S
C2715 C2719 1.393 . S
C2716 H2705 0.950 . S
C2716 C2714 1.391 . S
C2716 C2717 1.400 . S
C2717 C2711 1.491 . S
C2717 C2716 1.400 . S
C2717 C2718 1.398 . S
C2718 H2706 0.950 . S
C2718 C2717 1.398 . S
C2718 C2719 1.391 . S
C2719 H2707 0.950 . S
C2719 C2715 1.393 . S
C2719 C2718 1.391 . S
H2720 C2728 0.950 . S
H2721 C2733 0.950 . S
H2722 C2730 0.950 . S
H2723 C2732 0.950 . S
H2724 C2734 0.950 . S
H2725 C2736 0.950 . S
H2726 C2738 0.950 . S
H2727 C2739 0.950 . S
C2728 H2720 0.950 . S
C2728 C2729 1.386 . S
C2728 C2730 1.391 . S
C2729 C2728 1.386 . S
C2729 C2733 1.393 . S
C2730 H2722 0.950 . S
C2730 C2728 1.391 . S
C2730 C2731 1.400 . S
C2731 C2730 1.400 . S
C2731 C2732 1.398 . S
C2731 C2737 1.491 . S
C2732 H2723 0.950 . S
C2732 C2731 1.398 . S
C2732 C2733 1.391 . S
C2733 H2721 0.950 . S
C2733 C2729 1.393 . S
C2733 C2732 1.391 . S
C2734 H2724 0.950 . S
C2734 C2735 1.386 . S
C2734 C2736 1.391 . S
C2735 C2734 1.386 . S
C2735 C2739 1.393 . S
C2736 H2725 0.950 . S
C2736 C2734 1.391 . S
C2736 C2737 1.400 . S
C2737 C2731 1.491 . S
C2737 C2736 1.400 . S
C2737 C2738 1.398 . S
C2738 H2726 0.950 . S
C2738 C2737 1.398 . S
C2738 C2739 1.391 . S
C2739 H2727 0.950 . S
C2739 C2735 1.393 . S
C2739 C2738 1.391 . S
H2740 C2748 0.950 . S
H2741 C2753 0.950 . S
H2742 C2750 0.950 . S
H2743 C2752 0.950 . S
H2744 C2754 0.950 . S
H2745 C2756 0.950 . S
H2746 C2758 0.950 . S
H2747 C2759 0.950 . S
C2748 H2740 0.950 . S
C2748 C2749 1.386 . S
C2748 C2750 1.391 . S
C2749 C2748 1.386 . S
C2749 C2753 1.393 . S
C2750 H2742 0.950 . S
C2750 C2748 1.391 . S
C2750 C2751 1.400 . S
C2751 C2750 1.400 . S
C2751 C2752 1.398 . S
C2751 C2757 1.491 . S
C2752 H2743 0.950 . S
C2752 C2751 1.398 . S
C2752 C2753 1.391 . S
C2753 H2741 0.950 . S
C2753 C2749 1.393 . S
C2753 C2752 1.391 . S
C2754 H2744 0.950 . S
C2754 C2755 1.386 . S
C2754 C2756 1.391 . S
C2755 C2754 1.386 . S
C2755 C2759 1.393 . S
C2756 H2745 0.950 . S
C2756 C2754 1.391 . S
C2756 C2757 1.400 . S
C2757 C2751 1.491 . S
C2757 C2756 1.400 . S
C2757 C2758 1.398 . S
C2758 H2746 0.950 . S
C2758 C2757 1.398 . S
C2758 C2759 1.391 . S
C2759 H2747 0.950 . S
C2759 C2755 1.393 . S
C2759 C2758 1.391 . S
H2760 C2768 0.950 . S
H2761 C2773 0.950 . S
H2762 C2770 0.950 . S
H2763 C2772 0.950 . S
H2764 C2774 0.950 . S
H2765 C2776 0.950 . S
H2766 C2778 0.950 . S
H2767 C2779 0.950 . S
C2768 H2760 0.950 . S
C2768 C2769 1.386 . S
C2768 C2770 1.391 . S
C2769 C2768 1.386 . S
C2769 C2773 1.393 . S
C2770 H2762 0.950 . S
C2770 C2768 1.391 . S
C2770 C2771 1.400 . S
C2771 C2770 1.400 . S
C2771 C2772 1.398 . S
C2771 C2777 1.491 . S
C2772 H2763 0.950 . S
C2772 C2771 1.398 . S
C2772 C2773 1.391 . S
C2773 H2761 0.950 . S
C2773 C2769 1.393 . S
C2773 C2772 1.391 . S
C2774 H2764 0.950 . S
C2774 C2775 1.386 . S
C2774 C2776 1.391 . S
C2775 C2774 1.386 . S
C2775 C2779 1.393 . S
C2776 H2765 0.950 . S
C2776 C2774 1.391 . S
C2776 C2777 1.400 . S
C2777 C2771 1.491 . S
C2777 C2776 1.400 . S
C2777 C2778 1.398 . S
C2778 H2766 0.950 . S
C2778 C2777 1.398 . S
C2778 C2779 1.391 . S
C2779 H2767 0.950 . S
C2779 C2775 1.393 . S
C2779 C2778 1.391 . S
H2780 C2788 0.950 . S
H2781 C2793 0.950 . S
H2782 C2790 0.950 . S
H2783 C2792 0.950 . S
H2784 C2794 0.950 . S
H2785 C2796 0.950 . S
H2786 C2798 0.950 . S
H2787 C2799 0.950 . S
C2788 H2780 0.950 . S
C2788 C2789 1.386 . S
C2788 C2790 1.391 . S
C2789 C2788 1.386 . S
C2789 C2793 1.393 . S
C2790 H2782 0.950 . S
C2790 C2788 1.391 . S
C2790 C2791 1.400 . S
C2791 C2790 1.400 . S
C2791 C2792 1.398 . S
C2791 C2797 1.491 . S
C2792 H2783 0.950 . S
C2792 C2791 1.398 . S
C2792 C2793 1.391 . S
C2793 H2781 0.950 . S
C2793 C2789 1.393 . S
C2793 C2792 1.391 . S
C2794 H2784 0.950 . S
C2794 C2795 1.386 . S
C2794 C2796 1.391 . S
C2795 C2794 1.386 . S
C2795 C2799 1.393 . S
C2796 H2785 0.950 . S
C2796 C2794 1.391 . S
C2796 C2797 1.400 . S
C2797 C2791 1.491 . S
C2797 C2796 1.400 . S
C2797 C2798 1.398 . S
C2798 H2786 0.950 . S
C2798 C2797 1.398 . S
C2798 C2799 1.391 . S
C2799 H2787 0.950 . S
C2799 C2795 1.393 . S
C2799 C2798 1.391 . S
H2800 C2808 0.950 . S
H2801 C2813 0.950 . S
H2802 C2810 0.950 . S
H2803 C2812 0.950 . S
H2804 C2814 0.950 . S
H2805 C2816 0.950 . S
H2806 C2818 0.950 . S
H2807 C2819 0.950 . S
C2808 H2800 0.950 . S
C2808 C2809 1.386 . S
C2808 C2810 1.391 . S
C2809 C2808 1.386 . S
C2809 C2813 1.393 . S
C2810 H2802 0.950 . S
C2810 C2808 1.391 . S
C2810 C2811 1.400 . S
C2811 C2810 1.400 . S
C2811 C2812 1.398 . S
C2811 C2817 1.491 . S
C2812 H2803 0.950 . S
C2812 C2811 1.398 . S
C2812 C2813 1.391 . S
C2813 H2801 0.950 . S
C2813 C2809 1.393 . S
C2813 C2812 1.391 . S
C2814 H2804 0.950 . S
C2814 C2815 1.386 . S
C2814 C2816 1.391 . S
C2815 C2814 1.386 . S
C2815 C2819 1.393 . S
C2816 H2805 0.950 . S
C2816 C2814 1.391 . S
C2816 C2817 1.400 . S
C2817 C2811 1.491 . S
C2817 C2816 1.400 . S
C2817 C2818 1.398 . S
C2818 H2806 0.950 . S
C2818 C2817 1.398 . S
C2818 C2819 1.391 . S
C2819 H2807 0.950 . S
C2819 C2815 1.393 . S
C2819 C2818 1.391 . S
H2820 C2828 0.950 . S
H2821 C2833 0.950 . S
H2822 C2830 0.950 . S
H2823 C2832 0.950 . S
H2824 C2834 0.950 . S
H2825 C2836 0.950 . S
H2826 C2838 0.950 . S
H2827 C2839 0.950 . S
C2828 H2820 0.950 . S
C2828 C2829 1.386 . S
C2828 C2830 1.391 . S
C2829 C2828 1.386 . S
C2829 C2833 1.393 . S
C2830 H2822 0.950 . S
C2830 C2828 1.391 . S
C2830 C2831 1.400 . S
C2831 C2830 1.400 . S
C2831 C2832 1.398 . S
C2831 C2837 1.491 . S
C2832 H2823 0.950 . S
C2832 C2831 1.398 . S
C2832 C2833 1.391 . S
C2833 H2821 0.950 . S
C2833 C2829 1.393 . S
C2833 C2832 1.391 . S
C2834 H2824 0.950 . S
C2834 C2835 1.386 . S
C2834 C2836 1.391 . S
C2835 C2834 1.386 . S
C2835 C2839 1.393 . S
C2836 H2825 0.950 . S
C2836 C2834 1.391 . S
C2836 C2837 1.400 . S
C2837 C2831 1.491 . S
C2837 C2836 1.400 . S
C2837 C2838 1.398 . S
C2838 H2826 0.950 . S
C2838 C2837 1.398 . S
C2838 C2839 1.391 . S
C2839 H2827 0.950 . S
C2839 C2835 1.393 . S
C2839 C2838 1.391 . S
H2840 C2848 0.950 . S
H2841 C2853 0.950 . S
H2842 C2850 0.950 . S
H2843 C2852 0.950 . S
H2844 C2854 0.950 . S
H2845 C2856 0.950 . S
H2846 C2858 0.950 . S
H2847 C2859 0.950 . S
C2848 H2840 0.950 . S
C2848 C2849 1.386 . S
C2848 C2850 1.391 . S
C2849 C2848 1.386 . S
C2849 C2853 1.393 . S
C2850 H2842 0.950 . S
C2850 C2848 1.391 . S
C2850 C2851 1.400 . S
C2851 C2850 1.400 . S
C2851 C2852 1.398 . S
C2851 C2857 1.491 . S
C2852 H2843 0.950 . S
C2852 C2851 1.398 . S
C2852 C2853 1.391 . S
C2853 H2841 0.950 . S
C2853 C2849 1.393 . S
C2853 C2852 1.391 . S
C2854 H2844 0.950 . S
C2854 C2855 1.386 . S
C2854 C2856 1.391 . S
C2855 C2854 1.386 . S
C2855 C2859 1.393 . S
C2856 H2845 0.950 . S
C2856 C2854 1.391 . S
C2856 C2857 1.400 . S
C2857 C2851 1.491 . S
C2857 C2856 1.400 . S
C2857 C2858 1.398 . S
C2858 H2846 0.950 . S
C2858 C2857 1.398 . S
C2858 C2859 1.391 . S
C2859 H2847 0.950 . S
C2859 C2855 1.393 . S
C2859 C2858 1.391 . S
H2860 C2868 0.950 . S
H2861 C2873 0.950 . S
H2862 C2870 0.950 . S
H2863 C2872 0.950 . S
H2864 C2874 0.950 . S
H2865 C2876 0.950 . S
H2866 C2878 0.950 . S
H2867 C2879 0.950 . S
C2868 H2860 0.950 . S
C2868 C2869 1.386 . S
C2868 C2870 1.391 . S
C2869 C2868 1.386 . S
C2869 C2873 1.393 . S
C2870 H2862 0.950 . S
C2870 C2868 1.391 . S
C2870 C2871 1.400 . S
C2871 C2870 1.400 . S
C2871 C2872 1.398 . S
C2871 C2877 1.491 . S
C2872 H2863 0.950 . S
C2872 C2871 1.398 . S
C2872 C2873 1.391 . S
C2873 H2861 0.950 . S
C2873 C2869 1.393 . S
C2873 C2872 1.391 . S
C2874 H2864 0.950 . S
C2874 C2875 1.386 . S
C2874 C2876 1.391 . S
C2875 C2874 1.386 . S
C2875 C2879 1.393 . S
C2876 H2865 0.950 . S
C2876 C2874 1.391 . S
C2876 C2877 1.400 . S
C2877 C2871 1.491 . S
C2877 C2876 1.400 . S
C2877 C2878 1.398 . S
C2878 H2866 0.950 . S
C2878 C2877 1.398 . S
C2878 C2879 1.391 . S
C2879 H2867 0.950 . S
C2879 C2875 1.393 . S
C2879 C2878 1.391 . S
H2880 C2888 0.950 . S
H2881 C2893 0.950 . S
H2882 C2890 0.950 . S
H2883 C2892 0.950 . S
H2884 C2894 0.950 . S
H2885 C2896 0.950 . S
H2886 C2898 0.950 . S
H2887 C2899 0.950 . S
C2888 H2880 0.950 . S
C2888 C2889 1.386 . S
C2888 C2890 1.391 . S
C2889 C2888 1.386 . S
C2889 C2893 1.393 . S
C2890 H2882 0.950 . S
C2890 C2888 1.391 . S
C2890 C2891 1.400 . S
C2891 C2890 1.400 . S
C2891 C2892 1.398 . S
C2891 C2897 1.491 . S
C2892 H2883 0.950 . S
C2892 C2891 1.398 . S
C2892 C2893 1.391 . S
C2893 H2881 0.950 . S
C2893 C2889 1.393 . S
C2893 C2892 1.391 . S
C2894 H2884 0.950 . S
C2894 C2895 1.386 . S
C2894 C2896 1.391 . S
C2895 C2894 1.386 . S
C2895 C2899 1.393 . S
C2896 H2885 0.950 . S
C2896 C2894 1.391 . S
C2896 C2897 1.400 . S
C2897 C2891 1.491 . S
C2897 C2896 1.400 . S
C2897 C2898 1.398 . S
C2898 H2886 0.950 . S
C2898 C2897 1.398 . S
C2898 C2899 1.391 . S
C2899 H2887 0.950 . S
C2899 C2895 1.393 . S
C2899 C2898 1.391 . S
H2900 C2908 0.950 . S
H2901 C2913 0.950 . S
H2902 C2910 0.950 . S
H2903 C2912 0.950 . S
H2904 C2914 0.950 . S
H2905 C2916 0.950 . S
H2906 C2918 0.950 . S
H2907 C2919 0.950 . S
C2908 H2900 0.950 . S
C2908 C2909 1.386 . S
C2908 C2910 1.391 . S
C2909 C2908 1.386 . S
C2909 C2913 1.393 . S
C2910 H2902 0.950 . S
C2910 C2908 1.391 . S
C2910 C2911 1.400 . S
C2911 C2910 1.400 . S
C2911 C2912 1.398 . S
C2911 C2917 1.491 . S
C2912 H2903 0.950 . S
C2912 C2911 1.398 . S
C2912 C2913 1.391 . S
C2913 H2901 0.950 . S
C2913 C2909 1.393 . S
C2913 C2912 1.391 . S
C2914 H2904 0.950 . S
C2914 C2915 1.386 . S
C2914 C2916 1.391 . S
C2915 C2914 1.386 . S
C2915 C2919 1.393 . S
C2916 H2905 0.950 . S
C2916 C2914 1.391 . S
C2916 C2917 1.400 . S
C2917 C2911 1.491 . S
C2917 C2916 1.400 . S
C2917 C2918 1.398 . S
C2918 H2906 0.950 . S
C2918 C2917 1.398 . S
C2918 C2919 1.391 . S
C2919 H2907 0.950 . S
C2919 C2915 1.393 . S
C2919 C2918 1.391 . S
H2920 C2928 0.950 . S
H2921 C2933 0.950 . S
H2922 C2930 0.950 . S
H2923 C2932 0.950 . S
H2924 C2934 0.950 . S
H2925 C2936 0.950 . S
H2926 C2938 0.950 . S
H2927 C2939 0.950 . S
C2928 H2920 0.950 . S
C2928 C2929 1.386 . S
C2928 C2930 1.391 . S
C2929 C2928 1.386 . S
C2929 C2933 1.393 . S
C2930 H2922 0.950 . S
C2930 C2928 1.391 . S
C2930 C2931 1.400 . S
C2931 C2930 1.400 . S
C2931 C2932 1.398 . S
C2931 C2937 1.491 . S
C2932 H2923 0.950 . S
C2932 C2931 1.398 . S
C2932 C2933 1.391 . S
C2933 H2921 0.950 . S
C2933 C2929 1.393 . S
C2933 C2932 1.391 . S
C2934 H2924 0.950 . S
C2934 C2935 1.386 . S
C2934 C2936 1.391 . S
C2935 C2934 1.386 . S
C2935 C2939 1.393 . S
C2936 H2925 0.950 . S
C2936 C2934 1.391 . S
C2936 C2937 1.400 . S
C2937 C2931 1.491 . S
C2937 C2936 1.400 . S
C2937 C2938 1.398 . S
C2938 H2926 0.950 . S
C2938 C2937 1.398 . S
C2938 C2939 1.391 . S
C2939 H2927 0.950 . S
C2939 C2935 1.393 . S
C2939 C2938 1.391 . S
H2940 C2948 0.950 . S
H2941 C2953 0.950 . S
H2942 C2950 0.950 . S
H2943 C2952 0.950 . S
H2944 C2954 0.950 . S
H2945 C2956 0.950 . S
H2946 C2958 0.950 . S
H2947 C2959 0.950 . S
C2948 H2940 0.950 . S
C2948 C2949 1.386 . S
C2948 C2950 1.391 . S
C2949 C2948 1.386 . S
C2949 C2953 1.393 . S
C2950 H2942 0.950 . S
C2950 C2948 1.391 . S
C2950 C2951 1.400 . S
C2951 C2950 1.400 . S
C2951 C2952 1.398 . S
C2951 C2957 1.491 . S
C2952 H2943 0.950 . S
C2952 C2951 1.398 . S
C2952 C2953 1.391 . S
C2953 H2941 0.950 . S
C2953 C2949 1.393 . S
C2953 C2952 1.391 . S
C2954 H2944 0.950 . S
C2954 C2955 1.386 . S
C2954 C2956 1.391 . S
C2955 C2954 1.386 . S
C2955 C2959 1.393 . S
C2956 H2945 0.950 . S
C2956 C2954 1.391 . S
C2956 C2957 1.400 . S
C2957 C2951 1.491 . S
C2957 C2956 1.400 . S
C2957 C2958 1.398 . S
C2958 H2946 0.950 . S
C2958 C2957 1.398 . S
C2958 C2959 1.391 . S
C2959 H2947 0.950 . S
C2959 C2955 1.393 . S
C2959 C2958 1.391 . S
H2960 C2968 0.950 . S
H2961 C2973 0.950 . S
H2962 C2970 0.950 . S
H2963 C2972 0.950 . S
H2964 C2974 0.950 . S
H2965 C2976 0.950 . S
H2966 C2978 0.950 . S
H2967 C2979 0.950 . S
C2968 H2960 0.950 . S
C2968 C2969 1.386 . S
C2968 C2970 1.391 . S
C2969 C2968 1.386 . S
C2969 C2973 1.393 . S
C2970 H2962 0.950 . S
C2970 C2968 1.391 . S
C2970 C2971 1.400 . S
C2971 C2970 1.400 . S
C2971 C2972 1.398 . S
C2971 C2977 1.491 . S
C2972 H2963 0.950 . S
C2972 C2971 1.398 . S
C2972 C2973 1.391 . S
C2973 H2961 0.950 . S
C2973 C2969 1.393 . S
C2973 C2972 1.391 . S
C2974 H2964 0.950 . S
C2974 C2975 1.386 . S
C2974 C2976 1.391 . S
C2975 C2974 1.386 . S
C2975 C2979 1.393 . S
C2976 H2965 0.950 . S
C2976 C2974 1.391 . S
C2976 C2977 1.400 . S
C2977 C2971 1.491 . S
C2977 C2976 1.400 . S
C2977 C2978 1.398 . S
C2978 H2966 0.950 . S
C2978 C2977 1.398 . S
C2978 C2979 1.391 . S
C2979 H2967 0.950 . S
C2979 C2975 1.393 . S
C2979 C2978 1.391 . S
H2980 C2988 0.950 . S
H2981 C2993 0.950 . S
H2982 C2990 0.950 . S
H2983 C2992 0.950 . S
H2984 C2994 0.950 . S
H2985 C2996 0.950 . S
H2986 C2998 0.950 . S
H2987 C2999 0.950 . S
C2988 H2980 0.950 . S
C2988 C2989 1.386 . S
C2988 C2990 1.391 . S
C2989 C2988 1.386 . S
C2989 C2993 1.393 . S
C2990 H2982 0.950 . S
C2990 C2988 1.391 . S
C2990 C2991 1.400 . S
C2991 C2990 1.400 . S
C2991 C2992 1.398 . S
C2991 C2997 1.491 . S
C2992 H2983 0.950 . S
C2992 C2991 1.398 . S
C2992 C2993 1.391 . S
C2993 H2981 0.950 . S
C2993 C2989 1.393 . S
C2993 C2992 1.391 . S
C2994 H2984 0.950 . S
C2994 C2995 1.386 . S
C2994 C2996 1.391 . S
C2995 C2994 1.386 . S
C2995 C2999 1.393 . S
C2996 H2985 0.950 . S
C2996 C2994 1.391 . S
C2996 C2997 1.400 . S
C2997 C2991 1.491 . S
C2997 C2996 1.400 . S
C2997 C2998 1.398 . S
C2998 H2986 0.950 . S
C2998 C2997 1.398 . S
C2998 C2999 1.391 . S
C2999 H2987 0.950 . S
C2999 C2995 1.393 . S
C2999 C2998 1.391 . S
H3000 C3008 0.950 . S
H3001 C3013 0.950 . S
H3002 C3010 0.950 . S
H3003 C3012 0.950 . S
H3004 C3014 0.950 . S
H3005 C3016 0.950 . S
H3006 C3018 0.950 . S
H3007 C3019 0.950 . S
C3008 H3000 0.950 . S
C3008 C3009 1.386 . S
C3008 C3010 1.391 . S
C3009 C3008 1.386 . S
C3009 C3013 1.393 . S
C3010 H3002 0.950 . S
C3010 C3008 1.391 . S
C3010 C3011 1.400 . S
C3011 C3010 1.400 . S
C3011 C3012 1.398 . S
C3011 C3017 1.491 . S
C3012 H3003 0.950 . S
C3012 C3011 1.398 . S
C3012 C3013 1.391 . S
C3013 H3001 0.950 . S
C3013 C3009 1.393 . S
C3013 C3012 1.391 . S
C3014 H3004 0.950 . S
C3014 C3015 1.386 . S
C3014 C3016 1.391 . S
C3015 C3014 1.386 . S
C3015 C3019 1.393 . S
C3016 H3005 0.950 . S
C3016 C3014 1.391 . S
C3016 C3017 1.400 . S
C3017 C3011 1.491 . S
C3017 C3016 1.400 . S
C3017 C3018 1.398 . S
C3018 H3006 0.950 . S
C3018 C3017 1.398 . S
C3018 C3019 1.391 . S
C3019 H3007 0.950 . S
C3019 C3015 1.393 . S
C3019 C3018 1.391 . S
H3020 C3028 0.950 . S
H3021 C3033 0.950 . S
H3022 C3030 0.950 . S
H3023 C3032 0.950 . S
H3024 C3034 0.950 . S
H3025 C3036 0.950 . S
H3026 C3038 0.950 . S
H3027 C3039 0.950 . S
C3028 H3020 0.950 . S
C3028 C3029 1.386 . S
C3028 C3030 1.391 . S
C3029 C3028 1.386 . S
C3029 C3033 1.393 . S
C3030 H3022 0.950 . S
C3030 C3028 1.391 . S
C3030 C3031 1.400 . S
C3031 C3030 1.400 . S
C3031 C3032 1.398 . S
C3031 C3037 1.491 . S
C3032 H3023 0.950 . S
C3032 C3031 1.398 . S
C3032 C3033 1.391 . S
C3033 H3021 0.950 . S
C3033 C3029 1.393 . S
C3033 C3032 1.391 . S
C3034 H3024 0.950 . S
C3034 C3035 1.386 . S
C3034 C3036 1.391 . S
C3035 C3034 1.386 . S
C3035 C3039 1.393 . S
C3036 H3025 0.950 . S
C3036 C3034 1.391 . S
C3036 C3037 1.400 . S
C3037 C3031 1.491 . S
C3037 C3036 1.400 . S
C3037 C3038 1.398 . S
C3038 H3026 0.950 . S
C3038 C3037 1.398 . S
C3038 C3039 1.391 . S
C3039 H3027 0.950 . S
C3039 C3035 1.393 . S
C3039 C3038 1.391 . S
H3040 C3048 0.950 . S
H3041 C3053 0.950 . S
H3042 C3050 0.950 . S
H3043 C3052 0.950 . S
H3044 C3054 0.950 . S
H3045 C3056 0.950 . S
H3046 C3058 0.950 . S
H3047 C3059 0.950 . S
C3048 H3040 0.950 . S
C3048 C3049 1.386 . S
C3048 C3050 1.391 . S
C3049 C3048 1.386 . S
C3049 C3053 1.393 . S
C3050 H3042 0.950 . S
C3050 C3048 1.391 . S
C3050 C3051 1.400 . S
C3051 C3050 1.400 . S
C3051 C3052 1.398 . S
C3051 C3057 1.491 . S
C3052 H3043 0.950 . S
C3052 C3051 1.398 . S
C3052 C3053 1.391 . S
C3053 H3041 0.950 . S
C3053 C3049 1.393 . S
C3053 C3052 1.391 . S
C3054 H3044 0.950 . S
C3054 C3055 1.386 . S
C3054 C3056 1.391 . S
C3055 C3054 1.386 . S
C3055 C3059 1.393 . S
C3056 H3045 0.950 . S
C3056 C3054 1.391 . S
C3056 C3057 1.400 . S
C3057 C3051 1.491 . S
C3057 C3056 1.400 . S
C3057 C3058 1.398 . S
C3058 H3046 0.950 . S
C3058 C3057 1.398 . S
C3058 C3059 1.391 . S
C3059 H3047 0.950 . S
C3059 C3055 1.393 . S
C3059 C3058 1.391 . S
H3060 C3068 0.950 . S
H3061 C3073 0.950 . S
H3062 C3070 0.950 . S
H3063 C3072 0.950 . S
H3064 C3074 0.950 . S
H3065 C3076 0.950 . S
H3066 C3078 0.950 . S
H3067 C3079 0.950 . S
C3068 H3060 0.950 . S
C3068 C3069 1.386 . S
C3068 C3070 1.391 . S
C3069 C3068 1.386 . S
C3069 C3073 1.393 . S
C3070 H3062 0.950 . S
C3070 C3068 1.391 . S
C3070 C3071 1.400 . S
C3071 C3070 1.400 . S
C3071 C3072 1.398 . S
C3071 C3077 1.491 . S
C3072 H3063 0.950 . S
C3072 C3071 1.398 . S
C3072 C3073 1.391 . S
C3073 H3061 0.950 . S
C3073 C3069 1.393 . S
C3073 C3072 1.391 . S
C3074 H3064 0.950 . S
C3074 C3075 1.386 . S
C3074 C3076 1.391 . S
C3075 C3074 1.386 . S
C3075 C3079 1.393 . S
C3076 H3065 0.950 . S
C3076 C3074 1.391 . S
C3076 C3077 1.400 . S
C3077 C3071 1.491 . S
C3077 C3076 1.400 . S
C3077 C3078 1.398 . S
C3078 H3066 0.950 . S
C3078 C3077 1.398 . S
C3078 C3079 1.391 . S
C3079 H3067 0.950 . S
C3079 C3075 1.393 . S
C3079 C3078 1.391 . S
C1175 N620 2.206 . S
C1169 C6 2.287 . S
C1195 C647 1.286 . S
C1189 C30 1.250 . S
C1209 C44 2.071 . S
C1215 C661 2.065 . S
C1235 N679 0.888 . S
C1229 C68 0.863 . S
C1249 C87 0.939 . S
C1255 C684 0.950 . S
C1269 C97 2.238 . S
C1275 C624 2.211 . S
C1289 C125 0.999 . S
C1295 N643 1.043 . S
C1315 N656 2.225 . S
C1309 C139 2.232 . S
C1335 N702 1.738 . S
C1329 C11 1.752 . S
C1349 C25 1.380 . S
C1355 N725 1.364 . S
C1369 C40 1.877 . S
C1375 N748 1.921 . S
C1395 N781 1.119 . S
C1389 C59 1.165 . S
C1409 C82 1.421 . S
C1415 C808 1.425 . S
C1435 C831 1.981 . S
C1429 C101 1.984 . S
C1449 C116 0.982 . S
C1455 C854 0.991 . S
C1475 C868 1.889 1_565 S
C1469 C144 1.787 . S
C1489 C2 1.913 . S
C1495 C785 1.916 . S
C1509 C78 1.190 . S
C1515 N827 1.188 . S
C1535 N850 1.751 . S
C1529 C106 1.700 . S
C1549 C120 1.254 . S
C1555 N863 1.216 . S
C1575 N804 1.920 . S
C1569 C135 1.935 . S
C1595 C730 2.038 . S
C1589 C49 1.874 . S
C1609 C63 1.322 . S
C1615 C753 1.313 . S
C1635 C707 1.249 . S
C1629 C21 1.222 . S
C1655 C900 2.324 . S
C1649 C158 2.323 . S
C1669 C182 1.086 . S
C1675 C914 1.066 . S
C1689 C196 2.030 . S
C1695 N942 1.993 . S
C1715 N955 0.857 . S
C1709 C220 0.919 . S
C1729 C239 1.063 . S
C1735 C960 1.088 . S
C1749 C249 2.139 . S
C1755 N896 2.136 . S
C1769 C277 0.916 . S
C1775 N909 0.992 . S
C1789 C291 2.133 . S
C1795 C946 2.135 . S
C1815 N794 1.778 . S
C1809 C163 1.752 . S
C1829 C177 1.280 . S
C1835 N978 1.268 . S
C1855 N840 1.858 . S
C1849 C192 1.819 . S
C1869 C211 1.051 . S
C1875 C1015 1.048 . S
C1889 C234 1.621 . S
C1895 C716 1.615 . S
C1915 C1029 2.065 . S
C1909 C253 2.063 . S
C1929 C268 1.108 . S
C1935 C762 1.113 . S
C1955 N1047 1.757 . S
C1949 C296 1.731 . S
C1969 C154 1.848 . S
C1975 N1011 1.824 . S
C1995 N1024 1.192 . S
C1989 C230 1.208 . S
C2009 C258 1.712 . S
C2015 N758 1.751 . S
C2035 C1052 1.161 . S
C2029 C272 1.162 . S
C2049 C287 1.883 . S
C2055 N712 1.890 . S
C2069 C201 1.768 . S
C2075 C983 1.937 . S
C2089 C215 1.403 . S
C2095 C845 1.398 . S
C2109 C173 1.167 . S
C2115 C799 1.190 . S
C2129 C310 2.340 . S
C2135 C937 2.315 . S
C2155 C969 1.164 . S
C2149 C334 1.143 . S
C2169 C348 2.013 . S
C2175 N886 1.917 . S
C2189 C372 0.847 . S
C2195 N919 0.881 . S
C2209 C391 0.998 . S
C2215 C923 1.001 . S
C2229 C401 2.280 . S
C2235 N932 2.200 . S
C2255 N965 0.972 . S
C2249 C429 0.946 . S
C2269 C443 2.269 . S
C2275 C891 2.237 . S
C2295 N1080 1.837 . S
C2289 C315 1.818 . S
C2309 C329 1.275 . S
C2315 N817 1.243 . S
C2335 N1103 1.778 . S
C2329 C344 1.782 . S
C2349 C363 1.131 . S
C2355 N873 1.092 . S
C2369 C386 1.490 . S
C2375 C1121 1.475 . S
C2389 C405 2.083 . S
C2395 C739 2.080 . S
C2415 N1139 1.050 . S
C2409 C420 1.096 . S
C2429 C448 1.803 . S
C2435 C776 1.929 . S
C2455 C877 1.949 . S
C2449 C306 1.945 . S
C2475 N735 1.231 . S
C2469 C382 1.250 . S
C2489 C410 1.796 . S
C2495 C1144 1.937 . S
C2509 C424 1.191 . S
C2515 N771 1.140 . S
C2535 N1116 1.897 . S
C2529 C439 1.920 . S
C2555 C822 1.952 . S
C2549 C353 1.818 . S
C2575 C1107 1.315 . S
C2569 C367 1.314 . S
C2595 C1084 1.190 . S
C2589 C325 1.162 . S
C2609 C462 2.264 . S
C2615 N666 2.175 . S
C2629 C486 1.058 . S
C2635 C693 1.066 . S
C2655 C615 2.080 . S
C2649 C500 2.093 . S
C2675 N633 0.906 . S
C2669 C524 0.883 . S
C2695 C638 1.139 . S
C2689 C543 1.175 . S
C2715 C670 2.140 . S
C2709 C553 2.164 . S
C2735 N689 0.995 . S
C2729 C581 0.919 . S
C2749 C595 2.210 . S
C2755 N610 2.197 . S
C2769 C467 1.714 . S
C2775 N1126 1.712 . S
C2795 N1034 1.225 . S
C2789 C481 1.234 . S
C2815 C1153 2.032 . S
C2809 C496 1.990 . S
C2835 C1061 0.915 . S
C2829 C515 0.906 . S
C2849 C538 1.633 . S
C2855 C1075 1.610 . S
C2875 C992 2.003 . S
C2869 C557 2.003 . S
C2895 C1098 1.136 . S
C2889 C572 1.126 . S
C2909 C600 1.779 . S
C2915 N1001 1.799 . S
C2935 N1057 1.782 . S
C2929 C458 1.799 . S
C2955 N988 1.143 . S
C2949 C534 1.160 . S
C2975 N1093 1.737 . S
C2969 C562 1.666 . S
C2989 C576 1.201 . S
C2995 C1006 1.198 . S
C3009 C591 1.930 . S
C3015 N1070 1.912 . S
C3029 C505 1.889 . S
C3035 C1038 2.057 . S
C3049 C519 1.428 . S
C3055 N1149 1.409 . S
C3075 C1130 1.193 . S
C3069 C477 1.172 . S
