# Generated by pormake.
# Topology zzz, (3,6)-cn, num edge types: 1
# Building blocks:
#     Node 0, Type 0, BuildingBlock: BETDIP_clean_linker_0, # of connection points: 3
#     Node 1, Type 0, BuildingBlock: BETDIP_clean_linker_0, # of connection points: 3
#     Node 2, Type 0, BuildingBlock: BETDIP_clean_linker_0, # of connection points: 3
#     Node 3, Type 0, BuildingBlock: BETDIP_clean_linker_0, # of connection points: 3
#     Node 4, Type 0, BuildingBlock: BETDIP_clean_linker_0, # of connection points: 3
#     Node 5, Type 0, BuildingBlock: BETDIP_clean_linker_0, # of connection points: 3
#     Node 6, Type 0, BuildingBlock: BETDIP_clean_linker_0, # of connection points: 3
#     Node 7, Type 0, BuildingBlock: BETDIP_clean_linker_0, # of connection points: 3
#     Node 8, Type 1, BuildingBlock: KUMJIN_clean_sbu_0, # of connection points: 6
#     Node 9, Type 1, BuildingBlock: KUMJIN_clean_sbu_0, # of connection points: 6
#     Node 10, Type 1, BuildingBlock: KUMJIN_clean_sbu_0, # of connection points: 6
#     Node 11, Type 1, BuildingBlock: KUMJIN_clean_sbu_0, # of connection points: 6
#     Edge 12, Type (0, 1), BuildingBlock: MIFKUJ_clean_linker_0, # of connection points: 2
#     Edge 13, Type (0, 1), BuildingBlock: MIFKUJ_clean_linker_0, # of connection points: 2
#     Edge 14, Type (0, 1), BuildingBlock: MIFKUJ_clean_linker_0, # of connection points: 2
#     Edge 15, Type (0, 1), BuildingBlock: MIFKUJ_clean_linker_0, # of connection points: 2
#     Edge 16, Type (0, 1), BuildingBlock: MIFKUJ_clean_linker_0, # of connection points: 2
#     Edge 17, Type (0, 1), BuildingBlock: MIFKUJ_clean_linker_0, # of connection points: 2
#     Edge 18, Type (0, 1), BuildingBlock: MIFKUJ_clean_linker_0, # of connection points: 2
#     Edge 19, Type (0, 1), BuildingBlock: MIFKUJ_clean_linker_0, # of connection points: 2
#     Edge 20, Type (0, 1), BuildingBlock: MIFKUJ_clean_linker_0, # of connection points: 2
#     Edge 21, Type (0, 1), BuildingBlock: MIFKUJ_clean_linker_0, # of connection points: 2
#     Edge 22, Type (0, 1), BuildingBlock: MIFKUJ_clean_linker_0, # of connection points: 2
#     Edge 23, Type (0, 1), BuildingBlock: MIFKUJ_clean_linker_0, # of connection points: 2
#     Edge 24, Type (0, 1), BuildingBlock: MIFKUJ_clean_linker_0, # of connection points: 2
#     Edge 25, Type (0, 1), BuildingBlock: MIFKUJ_clean_linker_0, # of connection points: 2
#     Edge 26, Type (0, 1), BuildingBlock: MIFKUJ_clean_linker_0, # of connection points: 2
#     Edge 27, Type (0, 1), BuildingBlock: MIFKUJ_clean_linker_0, # of connection points: 2
#     Edge 28, Type (0, 1), BuildingBlock: MIFKUJ_clean_linker_0, # of connection points: 2
#     Edge 29, Type (0, 1), BuildingBlock: MIFKUJ_clean_linker_0, # of connection points: 2
#     Edge 30, Type (0, 1), BuildingBlock: MIFKUJ_clean_linker_0, # of connection points: 2
#     Edge 31, Type (0, 1), BuildingBlock: MIFKUJ_clean_linker_0, # of connection points: 2
#     Edge 32, Type (0, 1), BuildingBlock: MIFKUJ_clean_linker_0, # of connection points: 2
#     Edge 33, Type (0, 1), BuildingBlock: MIFKUJ_clean_linker_0, # of connection points: 2
#     Edge 34, Type (0, 1), BuildingBlock: MIFKUJ_clean_linker_0, # of connection points: 2
#     Edge 35, Type (0, 1), BuildingBlock: MIFKUJ_clean_linker_0, # of connection points: 2
# Relax obj value: 0.146
# Max RMSD: 0.151
# Mean RMSD: 0.112
data_MOF--net-zzz--node1-KUMJIN_clean_sbu_0--node2-BETDIP_clean_linker_0--edge1-MIFKUJ_clean_linker_0
_symmetry_space_group_name_H-M    P1
_symmetry_Int_Tables_number       1
_symmetry_cell_setting            triclinic
loop_
_symmetry_equiv_pos_as_xyz
'x, y, z'
_cell_length_a     66.197155
_cell_length_b     66.193964
_cell_length_c     19.14427
_cell_angle_alpha  90.342794
_cell_angle_beta   90.064753
_cell_angle_gamma 90.007561
loop_
_atom_site_label
_atom_site_type_symbol
_atom_site_fract_x
_atom_site_fract_y
_atom_site_fract_z
_atom_type_partial_charge
H0 H 0.74874 0.54663 0.29886 0.0
H1 H 0.75231 0.57337 0.09577 0.0
H2 H 0.79721 0.58744 0.24919 0.0
H3 H 0.71893 0.58221 0.11803 0.0
C4 C 0.71377 0.5672 0.13241 0.0
C5 C 0.75579 0.55722 0.26363 0.0
C6 C 0.77492 0.56597 0.28107 0.0
C7 C 0.74602 0.5625 0.19949 0.0
C8 C 0.75754 0.57287 0.1493 0.0
C9 C 0.77665 0.58059 0.16594 0.0
C10 C 0.783 0.58022 0.23555 0.0
N11 N 0.72577 0.55606 0.18196 0.0
H12 H 0.98801 0.75812 0.31725 0.0
H13 H 0.95857 0.74971 0.11761 0.0
H14 H 0.95425 0.80649 0.22245 0.0
H15 H 0.95302 0.7175 0.16351 0.0
C16 C 0.96909 0.71492 0.17099 0.0
C17 C 0.97818 0.76359 0.27632 0.0
C18 C 0.97063 0.78399 0.27955 0.0
C19 C 0.97269 0.75038 0.21918 0.0
C20 C 0.96106 0.75844 0.1649 0.0
C21 C 0.95498 0.77856 0.16546 0.0
C22 C 0.95865 0.79069 0.22404 0.0
N23 N 0.98017 0.72993 0.21098 0.0
H24 H 0.77428 0.9845 0.34363 0.0
H25 H 0.77807 0.96816 0.12503 0.0
H26 H 0.72135 0.96482 0.23061 0.0
H27 H 0.80877 0.95326 0.17322 0.0
C28 C 0.81382 0.96845 0.18645 0.0
C29 C 0.76729 0.97886 0.29624 0.0
C30 C 0.74614 0.97406 0.29571 0.0
C31 C 0.77932 0.97583 0.2346 0.0
C32 C 0.76963 0.96929 0.17336 0.0
C33 C 0.74894 0.96541 0.17189 0.0
C34 C 0.73756 0.96728 0.233 0.0
N35 N 0.80069 0.98019 0.23113 0.0
H36 H 0.55083 0.77916 0.336 0.0
H37 H 0.57154 0.78747 0.12452 0.0
H38 H 0.57615 0.7294 0.21873 0.0
H39 H 0.5849 0.82002 0.20655 0.0
C40 C 0.56872 0.82209 0.19973 0.0
C41 C 0.55813 0.7733 0.28955 0.0
C42 C 0.56435 0.75262 0.28661 0.0
C43 C 0.56184 0.78636 0.23166 0.0
C44 C 0.57037 0.77823 0.17095 0.0
C45 C 0.57508 0.7578 0.16622 0.0
C46 C 0.57301 0.74542 0.22446 0.0
N47 N 0.55575 0.80716 0.23027 0.0
H48 H 0.28081 0.47903 0.91012 0.0
H49 H 0.28664 0.46324 0.12861 0.0
H50 H 0.22895 0.46108 0.03147 0.0
H51 H 0.30301 0.49947 0.10722 0.0
C52 C 0.31425 0.48963 0.08334 0.0
C53 C 0.27419 0.47375 0.95834 0.0
C54 C 0.25303 0.46894 0.96103 0.0
C55 C 0.28653 0.47195 0.02012 0.0
C56 C 0.27764 0.46481 0.0816 0.0
C57 C 0.25714 0.46061 0.08462 0.0
C58 C 0.24513 0.46306 0.02568 0.0
N59 N 0.30744 0.47794 0.02405 0.0
H60 H 0.04504 0.27772 0.91083 0.0
H61 H 0.06541 0.28939 0.12239 0.0
H62 H 0.06872 0.22976 0.03933 0.0
H63 H 0.03187 0.30619 0.11585 0.0
C64 C 0.03885 0.31623 0.07818 0.0
C65 C 0.05179 0.27251 0.95899 0.0
C66 C 0.05781 0.2517 0.96542 0.0
C67 C 0.05437 0.2864 0.01677 0.0
C68 C 0.06336 0.27932 0.07808 0.0
C69 C 0.06844 0.25914 0.08561 0.0
C70 C 0.06574 0.24565 0.03009 0.0
N71 N 0.04767 0.30717 0.01637 0.0
H72 H 0.25801 0.04038 0.91666 0.0
H73 H 0.25012 0.08059 0.09281 0.0
H74 H 0.30684 0.07837 0.98534 0.0
H75 H 0.23944 0.04397 0.12585 0.0
C76 C 0.22674 0.04699 0.09132 0.0
C77 C 0.26356 0.05251 0.94967 0.0
C78 C 0.28381 0.05954 0.9419 0.0
C79 C 0.25107 0.06041 0.00425 0.0
C80 C 0.25914 0.07513 0.04942 0.0
C81 C 0.2794 0.08099 0.045 0.0
C82 C 0.291 0.07423 0.98839 0.0
N83 N 0.23149 0.05221 0.0204 0.0
H84 H 0.47966 0.25172 0.89606 0.0
H85 H 0.45323 0.2455 0.10066 0.0
H86 H 0.45175 0.30269 0.9968 0.0
H87 H 0.49484 0.23259 0.09236 0.0
C88 C 0.48567 0.22073 0.06879 0.0
C89 C 0.47114 0.25805 0.93917 0.0
C90 C 0.46475 0.27862 0.9372 0.0
C91 C 0.46689 0.24599 0.99906 0.0
C92 C 0.45626 0.25458 0.05493 0.0
C93 C 0.45104 0.275 0.05521 0.0
C94 C 0.45488 0.28661 0.99572 0.0
N95 N 0.47433 0.22581 0.00742 0.0
Eu96 Eu 0.03406 1.00778 0.68657 0.0
C97 C 0.9617 1.00486 0.48102 0.0
C98 C 0.97521 0.98363 0.38862 0.0
C99 C 0.93893 0.98717 0.40147 0.0
C100 C 0.97819 0.99678 0.44625 0.0
C101 C 0.94189 1.00036 0.45823 0.0
C102 C 0.95555 0.97878 0.3669 0.0
C103 C 0.9292 0.02326 0.54642 0.0
N104 N 0.96493 0.01765 0.53553 0.0
C105 C 0.94905 0.02733 0.56691 0.0
C106 C 0.92558 0.0096 0.49213 0.0
Eu107 Eu 0.99894 0.02567 0.56286 0.0
N108 N 0.99708 1.00192 0.46791 0.0
C109 C 0.01357 0.99457 0.43252 0.0
C110 C 0.99206 0.97587 0.35378 0.0
C111 C 0.01131 0.98139 0.37584 0.0
H112 H 0.95175 0.03817 0.60841 0.0
H113 H 0.02449 0.97544 0.34937 0.0
H114 H 0.95304 0.96874 0.32282 0.0
H115 H 0.91672 0.03077 0.57217 0.0
H116 H 0.02876 0.9979 0.4487 0.0
H117 H 0.99369 0.04248 0.90971 0.0
H118 H 0.99037 0.96568 0.30962 0.0
H119 H 0.08381 0.00878 0.65173 0.0
H120 H 0.99611 0.02949 0.79154 0.0
H121 H 0.11514 0.02247 0.70058 0.0
H122 H 0.92383 0.98354 0.38339 0.0
H123 H 0.02456 0.05232 0.97382 0.0
H124 H 0.06183 0.05729 0.97342 0.0
H125 H 0.91018 1.00656 0.47596 0.0
H126 H 0.09442 0.05384 0.91365 0.0
N127 N 0.02837 0.02812 0.78914 0.0
C128 C 0.00992 0.03169 0.81938 0.0
C129 C 0.02581 0.04564 0.92219 0.0
C130 C 0.04455 0.04362 0.88939 0.0
C131 C 1.00839 0.03995 0.88649 0.0
C132 C 0.04542 0.03473 0.82197 0.0
H133 H 0.11428 0.04167 0.81141 0.0
N134 N 0.06448 0.02361 0.72463 0.0
C135 C 0.10081 0.02604 0.72488 0.0
C136 C 0.06383 0.03294 0.788 0.0
C137 C 0.08283 0.01901 0.69552 0.0
C138 C 0.10026 0.03671 0.78762 0.0
C139 C 0.08174 0.03977 0.82102 0.0
O140 O 0.05729 0.98471 0.69247 0.0
O141 O 0.01026 0.99669 0.61047 0.0
O142 O 0.97883 0.01244 0.6487 0.0
O143 O 1.00209 0.99964 0.72873 0.0
O144 O 0.03808 0.98294 0.60563 0.0
O145 O 0.03705 0.98944 0.78015 0.0
O146 O 0.98276 0.05386 0.54545 0.0
O147 O 0.02324 0.0365 0.63803 0.0
O148 O 0.05333 0.0212 0.59826 0.0
O149 O 0.03004 0.02756 0.51096 0.0
O150 O 0.99539 0.04959 0.64825 0.0
O151 O 1.00542 0.04349 0.47038 0.0
C152 C 0.01994 0.98223 0.58154 0.0
C153 C 0.05398 0.95771 0.77093 0.0
C154 C 0.04274 0.92838 0.83519 0.0
C155 C 0.04011 0.9485 0.81547 0.0
C156 C 0.05954 0.91748 0.81051 0.0
C157 C 0.07063 0.94666 0.74602 0.0
C158 C 0.07334 0.9266 0.76572 0.0
C159 C 0.98309 1.00339 0.70863 0.0
C160 C 0.05238 0.97925 0.75528 0.0
C161 C 0.08081 0.04865 0.88761 0.0
C162 C 0.06229 0.05048 0.92182 0.0
C163 C 0.01386 0.05071 0.6695 0.0
C164 C 0.98273 0.06895 0.43323 0.0
C165 C 0.99367 0.08512 0.4072 0.0
C166 C 0.98557 0.09763 0.35594 0.0
C167 C 0.96587 0.09399 0.33149 0.0
C168 C 0.96318 0.06502 0.40859 0.0
C169 C 0.95477 0.07763 0.35764 0.0
C170 C 0.04892 0.0262 0.53305 0.0
C171 C 0.99256 0.05752 0.48807 0.0
H172 H 0.02736 0.957 0.83564 0.0
H173 H 0.06175 0.90181 0.8245 0.0
H174 H 0.08171 0.95364 0.71225 0.0
H175 H 0.08618 0.91813 0.74642 0.0
H176 H 1.00856 0.08826 0.42857 0.0
H177 H 0.95919 0.10363 0.29222 0.0
H178 H 0.95451 0.05249 0.42889 0.0
H179 H 0.93963 0.07478 0.33859 0.0
Eu180 Eu 0.52291 0.03648 0.69318 0.0
C181 C 0.52971 0.96704 0.4709 0.0
C182 C 0.54899 0.98432 0.3818 0.0
C183 C 0.54701 0.94771 0.3807 0.0
C184 C 0.53637 0.98484 0.44125 0.0
C185 C 0.535 0.94826 0.44091 0.0
C186 C 0.55404 0.96568 0.3512 0.0
C187 C 0.51554 0.93182 0.53061 0.0
N188 N 0.51811 0.96805 0.52912 0.0
C189 C 0.51048 0.95077 0.55788 0.0
C190 C 0.52787 0.93055 0.4718 0.0
Eu191 Eu 0.50623 1.00059 0.56124 0.0
N192 N 0.53114 1.00262 0.47196 0.0
C193 C 0.53869 0.02038 0.44691 0.0
C194 C 0.55635 1.00252 0.35532 0.0
C195 C 0.55138 0.0206 0.38865 0.0
H196 H 0.49997 0.9516 0.60096 0.0
H197 H 0.55731 0.03477 0.36951 0.0
H198 H 0.56349 0.965 0.30507 0.0
H199 H 0.50956 0.91823 0.55405 0.0
H200 H 0.53558 0.03446 0.47226 0.0
H201 H 0.49445 0.99803 0.9313 0.0
H202 H 0.56612 1.00274 0.30996 0.0
H203 H 0.509 0.08308 0.63255 0.0
H204 H 0.51713 1.00296 0.83577 0.0
H205 H 0.48469 0.10927 0.65814 0.0
H206 H 0.55097 0.9334 0.35703 0.0
H207 H 0.46802 0.02305 0.9576 0.0
H208 H 0.45187 0.0558 0.93135 0.0
H209 H 0.53158 0.91585 0.45011 0.0
H210 H 0.44924 0.08584 0.85802 0.0
N211 N 0.50245 0.02952 0.79487 0.0
C212 C 0.50505 0.01362 0.84002 0.0
C213 C 0.47756 0.02506 0.91219 0.0
C214 C 0.4756 0.04195 0.86965 0.0
C215 C 0.49238 0.01089 0.89734 0.0
C216 C 0.48821 0.04381 0.81015 0.0
H217 H 0.46109 0.10564 0.75666 0.0
N218 N 0.4982 0.06233 0.7099 0.0
C219 C 0.48452 0.09547 0.68815 0.0
C220 C 0.48618 0.06059 0.76716 0.0
C221 C 0.49805 0.07998 0.67253 0.0
C222 C 0.47137 0.09342 0.74405 0.0
C223 C 0.47223 0.07604 0.78488 0.0
O224 O 0.53837 0.06537 0.69674 0.0
O225 O 0.53315 0.01617 0.60598 0.0
O226 O 0.5185 0.98144 0.64964 0.0
O227 O 0.53136 1.00458 0.73139 0.0
O228 O 0.55541 0.03035 0.6613 0.0
O229 O 0.54029 0.04519 0.78553 0.0
O230 O 0.48015 0.9814 0.54296 0.0
O231 O 0.49549 0.02389 0.63989 0.0
O232 O 0.51958 0.05281 0.58806 0.0
O233 O 0.49864 0.03215 0.52158 0.0
O234 O 0.48331 0.99524 0.64756 0.0
O235 O 0.48818 1.00451 0.4655 0.0
C236 C 0.55239 0.01806 0.61018 0.0
C237 C 0.56914 0.06502 0.75697 0.0
C238 C 0.60329 0.05381 0.78349 0.0
C239 C 0.58233 0.05096 0.78725 0.0
C240 C 0.61102 0.07076 0.74873 0.0
C241 C 0.57714 0.08204 0.72329 0.0
C242 C 0.59797 0.0848 0.71893 0.0
C243 C 0.52738 0.9858 0.70984 0.0
C244 C 0.54717 0.06164 0.7562 0.0
C245 C 0.45992 0.07409 0.84388 0.0
C246 C 0.46147 0.05704 0.88576 0.0
C247 C 0.48217 0.01352 0.67092 0.0
C248 C 0.45959 0.98242 0.44004 0.0
C249 C 0.44566 0.9962 0.41348 0.0
C250 C 0.4284 0.98934 0.3782 0.0
C251 C 0.42548 0.96849 0.36814 0.0
C252 C 0.45656 0.96163 0.43023 0.0
C253 C 0.43962 0.95472 0.39374 0.0
C254 C 0.5068 0.04998 0.53537 0.0
C255 C 0.47615 0.98979 0.4834 0.0
H256 H 0.57636 0.03787 0.814 0.0
H257 H 0.62717 0.0731 0.74435 0.0
H258 H 0.56724 0.09306 0.69934 0.0
H259 H 0.60402 0.09782 0.69215 0.0
H260 H 0.44778 0.01221 0.42345 0.0
H261 H 0.41231 0.96287 0.3406 0.0
H262 H 0.4672 0.9508 0.45125 0.0
H263 H 0.43729 0.93867 0.38613 0.0
Eu264 Eu 0.53027 0.50793 0.56769 0.0
C265 C 0.44424 0.52128 0.68009 0.0
C266 C 0.43081 0.54501 0.59574 0.0
C267 C 0.40786 0.52494 0.66561 0.0
C268 C 0.44747 0.53607 0.63001 0.0
C269 C 0.42435 0.5158 0.69887 0.0
C270 C 0.41108 0.5394 0.61392 0.0
C271 C 0.43825 0.49331 0.78522 0.0
N272 N 0.4604 0.51251 0.71143 0.0
C273 C 0.45761 0.49919 0.76518 0.0
C274 C 0.42152 0.50156 0.75169 0.0
Eu275 Eu 0.4924 0.52657 0.68477 0.0
N276 N 0.46673 0.54159 0.61418 0.0
C277 C 0.47016 0.55564 0.56319 0.0
C278 C 0.43438 0.55936 0.54401 0.0
C279 C 0.45415 0.56456 0.52733 0.0
H280 H 0.47046 0.49319 0.79326 0.0
H281 H 0.4571 0.57545 0.48663 0.0
H282 H 0.39817 0.54625 0.58849 0.0
H283 H 0.43624 0.48264 0.82727 0.0
H284 H 0.48514 0.55968 0.54708 0.0
H285 H 0.58237 0.47058 0.74991 0.0
H286 H 0.422 0.56642 0.51631 0.0
H287 H 0.54077 0.53478 0.42578 0.0
H288 H 0.54963 0.47946 0.70143 0.0
H289 H 0.57053 0.54795 0.36286 0.0
H290 H 0.39252 0.52096 0.67963 0.0
H291 H 0.61364 0.4843 0.69838 0.0
H292 H 0.63008 0.5049 0.60524 0.0
H293 H 0.40649 0.49712 0.76781 0.0
H294 H 0.62693 0.52587 0.5002 0.0
N295 N 0.56143 0.49867 0.62167 0.0
C296 C 0.56281 0.48559 0.67672 0.0
C297 C 0.59913 0.48836 0.67629 0.0
C298 C 0.5978 0.50104 0.61838 0.0
C299 C 0.58154 0.48053 0.70532 0.0
C300 C 0.57851 0.50601 0.59188 0.0
H301 H 0.60487 0.54189 0.40944 0.0
N302 N 0.55808 0.52212 0.5083 0.0
C303 C 0.57251 0.53967 0.41096 0.0
C304 C 0.57677 0.51803 0.53337 0.0
C305 C 0.55572 0.53223 0.44673 0.0
C306 C 0.59185 0.53624 0.43747 0.0
C307 C 0.5942 0.52513 0.49894 0.0
O308 O 0.52585 0.4979 0.46103 0.0
O309 O 0.49653 0.51049 0.58337 0.0
O310 O 0.488 0.4924 0.67695 0.0
O311 O 0.51982 0.48259 0.64081 0.0
O312 O 0.50806 0.52131 0.49062 0.0
O313 O 0.53568 0.47624 0.53973 0.0
O314 O 0.48734 0.52822 0.79638 0.0
O315 O 0.52583 0.52386 0.6693 0.0
O316 O 0.53539 0.54195 0.56688 0.0
O317 O 0.50845 0.554 0.63436 0.0
O318 O 0.5152 0.5151 0.765 0.0
O319 O 0.48369 0.55516 0.73329 0.0
C320 C 0.49162 0.51718 0.52366 0.0
C321 C 0.53915 0.46724 0.4194 0.0
C322 C 0.534 0.43824 0.3444 0.0
C323 C 0.52953 0.44906 0.40502 0.0
C324 C 0.54876 0.44553 0.29832 0.0
C325 C 0.55407 0.47458 0.37418 0.0
C326 C 0.55898 0.46355 0.3139 0.0
C327 C 0.50207 0.47841 0.6691 0.0
C328 C 0.53036 0.47928 0.47501 0.0
C329 C 0.61338 0.52051 0.52582 0.0
C330 C 0.61517 0.50856 0.58555 0.0
C331 C 0.53138 0.51804 0.72915 0.0
C332 C 0.49259 0.55927 0.85343 0.0
C333 C 0.49757 0.57962 0.84404 0.0
C334 C 0.5048 0.59113 0.90016 0.0
C335 C 0.50733 0.58213 0.96595 0.0
C336 C 0.49501 0.55047 0.91963 0.0
C337 C 0.50245 0.56186 0.97546 0.0
C338 C 0.5242 0.55696 0.59199 0.0
C339 C 0.48356 0.54751 0.79622 0.0
H340 H 0.51747 0.44392 0.43909 0.0
H341 H 0.55229 0.43737 0.25067 0.0
H342 H 0.56135 0.48895 0.38431 0.0
H343 H 0.57032 0.46922 0.27835 0.0
H344 H 0.49548 0.58669 0.79358 0.0
H345 H 0.51328 0.59072 0.00973 0.0
H346 H 0.49096 0.53483 0.92843 0.0
H347 H 0.50435 0.555 0.02622 0.0
Eu348 Eu 0.02309 0.53656 0.5564 0.0
C349 C 0.01309 0.45183 0.68175 0.0
C350 C 0.99143 0.43591 0.59529 0.0
C351 C 0.01077 0.41517 0.67521 0.0
C352 C 0.99934 0.4535 0.62734 0.0
C353 C 0.01872 0.43258 0.70675 0.0
C354 C 0.99729 0.41682 0.61927 0.0
C355 C 0.03766 0.449 0.79854 0.0
N356 N 0.01993 0.46889 0.71341 0.0
C357 C 0.03131 0.46766 0.77303 0.0
C358 C 0.03147 0.43136 0.76491 0.0
Eu359 Eu 1.00565 0.49978 0.6757 0.0
N360 N 0.99298 0.47217 0.60784 0.0
C361 C 0.97863 0.47408 0.55665 0.0
C362 C 0.97727 0.43794 0.54163 0.0
C363 C 0.97082 0.45711 0.52241 0.0
H364 H 0.03541 0.48121 0.80151 0.0
H365 H 0.9598 0.45887 0.48105 0.0
H366 H 0.99113 0.40321 0.59582 0.0
H367 H 0.04695 0.44825 0.84502 0.0
H368 H 0.97354 0.4886 0.53923 0.0
H369 H 0.07161 0.57147 0.75795 0.0
H370 H 0.97101 0.42479 0.51546 0.0
H371 H 0.9924 0.55928 0.4411 0.0
H372 H 0.057 0.54367 0.69218 0.0
H373 H 0.97951 0.59324 0.41505 0.0
H374 H 0.0147 0.40033 0.69456 0.0
H375 H 0.06025 0.60644 0.73688 0.0
H376 H 0.03758 0.63011 0.6738 0.0
H377 H 0.03605 0.41686 0.7856 0.0
H378 H 0.01205 0.63594 0.58306 0.0
N379 N 0.0372 0.56202 0.63104 0.0
C380 C 0.05187 0.55859 0.68016 0.0
C381 C 0.0536 0.59411 0.70739 0.0
C382 C 0.03862 0.59771 0.6576 0.0
C383 C 0.06015 0.57446 0.719 0.0
C384 C 0.0306 0.58119 0.61946 0.0
H385 H 0.99029 0.62239 0.48716 0.0
N386 N 1.00843 0.56848 0.53252 0.0
C387 C 0.98938 0.59099 0.45946 0.0
C388 C 0.01582 0.58447 0.56922 0.0
C389 C 0.99641 0.57169 0.47535 0.0
C390 C 0.99556 0.60738 0.50006 0.0
C391 C 0.00925 0.60434 0.55471 0.0
O392 O 0.02587 0.54113 0.4442 0.0
O393 O 0.02186 0.50284 0.57316 0.0
O394 O 0.04014 0.49697 0.68064 0.0
O395 O 0.05161 0.52072 0.60061 0.0
O396 O 0.01241 0.51318 0.47695 0.0
O397 O 0.05095 0.54854 0.51274 0.0
O398 O 1.00162 0.49815 0.78892 0.0
O399 O 1.00645 0.53368 0.65874 0.0
O400 O 0.98856 0.53803 0.54732 0.0
O401 O 0.97728 0.51359 0.62468 0.0
O402 O 0.01774 0.52284 0.75228 0.0
O403 O 0.97617 0.49152 0.71812 0.0
C404 C 0.01597 0.49716 0.51283 0.0
C405 C 0.05819 0.54118 0.39401 0.0
C406 C 0.0893 0.52524 0.35742 0.0
C407 C 0.07555 0.53005 0.41012 0.0
C408 C 0.08556 0.53111 0.28829 0.0
C409 C 0.05444 0.54695 0.32474 0.0
C410 C 0.06807 0.54183 0.272 0.0
C411 C 0.05504 0.50665 0.64878 0.0
C412 C 0.04428 0.54786 0.44856 0.0
C413 C 0.01701 0.62064 0.59337 0.0
C414 C 0.03161 0.61733 0.64477 0.0
C415 C 0.0127 0.53897 0.71925 0.0
C416 C 0.97018 0.48831 0.84213 0.0
C417 C 0.95193 0.49857 0.84806 0.0
C418 C 0.9401 0.49664 0.90819 0.0
C419 C 0.94659 0.48386 0.96213 0.0
C420 C 0.97674 0.47567 0.89609 0.0
C421 C 0.96482 0.47331 0.95571 0.0
C422 C 0.97377 0.5276 0.57676 0.0
C423 C 0.98295 0.49245 0.78214 0.0
H424 H 0.07858 0.52546 0.46337 0.0
H425 H 0.09617 0.52735 0.24713 0.0
H426 H 0.04107 0.55559 0.31166 0.0
H427 H 0.06517 0.54635 0.21868 0.0
H428 H 0.94747 0.50893 0.80708 0.0
H429 H 0.93764 0.48207 0.00901 0.0
H430 H 0.99106 0.4678 0.89224 0.0
H431 H 0.96983 0.46354 0.9974 0.0
H432 H 0.18875 0.06047 0.04246 0.0
H433 H 0.15626 0.05939 0.10657 0.0
H434 H 0.1863 0.03112 0.28037 0.0
H435 H 0.21811 0.0321 0.21744 0.0
H436 H 0.15326 0.01157 0.25526 0.0
H437 H 0.17104 0.08161 0.27795 0.0
H438 H 0.17833 0.11646 0.24112 0.0
H439 H 0.11941 0.12089 0.14881 0.0
H440 H 0.11184 0.08587 0.18389 0.0
H441 H 0.09004 0.01949 0.54744 0.0
H442 H 0.11698 0.02501 0.46411 0.0
H443 H 0.07394 0.04794 0.31557 0.0
H444 H 0.04659 0.04258 0.40019 0.0
H445 H 0.10982 0.0703 0.31301 0.0
H446 H 0.09214 1.0001 0.29814 0.0
H447 H 0.08518 0.96605 0.34388 0.0
H448 H 0.14521 0.96307 0.42846 0.0
H449 H 0.15242 0.99722 0.3841 0.0
C450 C 0.1883 0.05388 0.09405 0.0
C451 C 0.2061 0.04611 0.12429 0.0
C452 C 0.16972 0.05344 0.13114 0.0
C453 C 0.16857 0.04514 0.19903 0.0
C454 C 0.18644 0.03748 0.22837 0.0
C455 C 0.20476 0.03803 0.19197 0.0
C456 C 0.14908 0.04349 0.24006 0.0
C457 C 0.14391 0.02454 0.2679 0.0
C458 C 0.13626 0.06016 0.25588 0.0
C459 C 0.14103 0.08093 0.23238 0.0
C460 C 0.15975 0.08986 0.24873 0.0
C461 C 0.16389 0.10969 0.22842 0.0
C462 C 0.14936 0.12083 0.19231 0.0
C463 C 0.13065 0.11218 0.17647 0.0
C464 C 0.12644 0.09233 0.19647 0.0
C465 C 0.08607 0.02588 0.49787 0.0
C466 C 0.06581 0.03049 0.48185 0.0
C467 C 0.10168 0.02896 0.44938 0.0
C468 C 0.09772 0.0367 0.38247 0.0
C469 C 0.0776 0.0419 0.36649 0.0
C470 C 0.06188 0.03871 0.41518 0.0
C471 C 0.11453 0.03852 0.32935 0.0
C472 C 0.1191 0.05737 0.29934 0.0
C473 C 0.12703 0.02184 0.31178 0.0
C474 C 0.12276 1.00127 0.33818 0.0
C475 C 0.10381 0.99223 0.32687 0.0
C476 C 0.09983 0.97291 0.35251 0.0
C477 C 0.11474 0.96242 0.38914 0.0
C478 C 0.13367 0.97121 0.40011 0.0
C479 C 0.13772 0.99054 0.37467 0.0
H480 H 0.11163 0.94745 0.40893 0.0
H481 H 0.15257 0.1362 0.17688 0.0
H482 H 0.51492 0.20573 0.1507 0.0
H483 H 0.51479 0.17548 0.22293 0.0
H484 H 0.45493 0.16087 0.14985 0.0
H485 H 0.45521 0.19136 0.07537 0.0
H486 H 0.46065 0.1563 0.30238 0.0
H487 H 0.48898 0.13175 0.09235 0.0
H488 H 0.51064 0.13231 0.98776 0.0
H489 H 0.56357 0.13312 0.11766 0.0
H490 H 0.54218 0.1328 0.22318 0.0
H491 H 0.4735 0.05557 0.45175 0.0
H492 H 0.46677 0.08311 0.36947 0.0
H493 H 0.52401 0.11019 0.42207 0.0
H494 H 0.53059 0.083 0.50584 0.0
H495 H 0.51569 0.10612 0.27175 0.0
H496 H 0.48447 0.13106 0.48384 0.0
H497 H 0.46098 0.12907 0.58342 0.0
H498 H 0.41071 0.12497 0.44226 0.0
H499 H 0.43391 0.12668 0.34166 0.0
C500 C 0.5018 0.19595 0.14896 0.0
C501 C 0.48528 0.20082 0.10598 0.0
C502 C 0.5017 0.17865 0.1908 0.0
C503 C 0.48489 0.16569 0.19231 0.0
C504 C 0.46813 0.17053 0.14987 0.0
C505 C 0.46839 0.18783 0.10655 0.0
C506 C 0.48559 0.14709 0.23749 0.0
C507 C 0.47242 0.14512 0.29478 0.0
C508 C 0.50098 0.13241 0.22862 0.0
C509 C 0.51399 0.13239 0.16563 0.0
C510 C 0.50524 0.13218 0.09862 0.0
C511 C 0.51746 0.13243 0.03917 0.0
C512 C 0.53847 0.13279 0.04606 0.0
C513 C 0.54729 0.13284 0.11243 0.0
C514 C 0.53513 0.13259 0.17209 0.0
C515 C 0.48466 0.06741 0.44603 0.0
C516 C 0.50263 0.06698 0.48573 0.0
C517 C 0.48074 0.08322 0.39895 0.0
C518 C 0.49484 0.09886 0.38917 0.0
C519 C 0.51285 0.09838 0.42837 0.0
C520 C 0.51658 0.08281 0.47658 0.0
C521 C 0.49106 0.11553 0.3375 0.0
C522 C 0.50374 0.11715 0.27899 0.0
C523 C 0.47494 0.12956 0.34468 0.0
C524 C 0.46096 0.12875 0.40515 0.0
C525 C 0.46843 0.12953 0.47396 0.0
C526 C 0.45517 0.12848 0.53062 0.0
C527 C 0.43439 0.12678 0.51918 0.0
C528 C 0.42682 0.12623 0.45104 0.0
C529 C 0.44002 0.12727 0.39417 0.0
H530 H 0.42415 0.12596 0.56313 0.0
H531 H 0.54792 0.133 0.99996 0.0
H532 H 0.31833 0.49801 0.21987 0.0
H533 H 0.34826 0.49754 0.29355 0.0
H534 H 0.38322 0.47341 0.12277 0.0
H535 H 0.35258 0.47347 0.04785 0.0
H536 H 0.39612 0.4583 0.26483 0.0
H537 H 0.38736 0.52089 0.14484 0.0
H538 H 0.367 0.54926 0.10046 0.0
H539 H 0.35118 0.56604 0.31043 0.0
H540 H 0.37126 0.53758 0.35597 0.0
H541 H 0.48364 0.52573 0.38752 0.0
H542 H 0.4544 0.5166 0.31618 0.0
H543 H 0.42609 0.48991 0.49573 0.0
H544 H 0.45649 0.49703 0.56584 0.0
H545 H 0.41157 0.5282 0.344 0.0
H546 H 0.41795 0.45795 0.45507 0.0
H547 H 0.44386 0.43342 0.49167 0.0
H548 H 0.46768 0.432 0.28319 0.0
H549 H 0.44291 0.45773 0.24701 0.0
C550 C 0.33226 0.49225 0.19775 0.0
C551 C 0.33291 0.48601 0.12726 0.0
C552 C 0.34949 0.49195 0.24042 0.0
C553 C 0.36832 0.48569 0.21436 0.0
C554 C 0.36897 0.47831 0.14482 0.0
C555 C 0.35142 0.47841 0.1017 0.0
C556 C 0.38712 0.48956 0.25799 0.0
C557 C 0.39938 0.47359 0.28203 0.0
C558 C 0.39201 0.50945 0.28056 0.0
C559 C 0.38072 0.5271 0.25375 0.0
C560 C 0.37952 0.53064 0.1815 0.0
C561 C 0.36802 0.5467 0.15614 0.0
C562 C 0.35778 0.55943 0.2026 0.0
C563 C 0.35913 0.55617 0.27453 0.0
C564 C 0.3706 0.5401 0.30016 0.0
C565 C 0.47131 0.51773 0.41214 0.0
C566 C 0.4725 0.51246 0.48339 0.0
C567 C 0.45449 0.51248 0.37085 0.0
C568 C 0.43801 0.502 0.39924 0.0
C569 C 0.4388 0.49721 0.47103 0.0
C570 C 0.45605 0.50183 0.51197 0.0
C571 C 0.41996 0.49697 0.35355 0.0
C572 C 0.40805 0.51286 0.32793 0.0
C573 C 0.41565 0.47709 0.32924 0.0
C574 C 0.42894 0.4601 0.3489 0.0
C575 C 0.42894 0.45264 0.41741 0.0
C576 C 0.44352 0.43862 0.43819 0.0
C577 C 0.4576 0.43129 0.38997 0.0
C578 C 0.45697 0.43784 0.32076 0.0
C579 C 0.44278 0.45228 0.30026 0.0
H580 H 0.46884 0.42037 0.40604 0.0
H581 H 0.34882 0.57183 0.18286 0.0
H582 H 0.01275 0.34799 0.06824 0.0
H583 H 0.01231 0.37879 0.13955 0.0
H584 H 0.07011 0.36275 0.22719 0.0
H585 H 0.07012 0.33157 0.1567 0.0
H586 H 0.04945 0.37493 0.32867 0.0
H587 H 0.06139 0.40645 0.11269 0.0
H588 H 0.05716 0.41442 0.98785 0.0
H589 H 0.99688 0.43548 0.0273 0.0
H590 H 1.00067 0.42746 0.15237 0.0
H591 H 0.04602 0.46803 0.53554 0.0
H592 H 0.05451 0.43907 0.46082 0.0
H593 H 1.00219 0.45137 0.33303 0.0
H594 H 0.9953 0.48134 0.40296 0.0
H595 H 0.02586 0.44177 0.24799 0.0
H596 H 0.01589 0.39695 0.46663 0.0
H597 H 0.02525 0.38522 0.58462 0.0
H598 H 0.08806 0.39204 0.53567 0.0
H599 H 0.07915 0.40213 0.41552 0.0
C600 C 0.02578 0.35144 0.10043 0.0
C601 C 0.04187 0.33759 0.10396 0.0
C602 C 0.0255 0.36916 0.14203 0.0
C603 C 0.0413 0.37373 0.18931 0.0
C604 C 0.05766 0.36002 0.19163 0.0
C605 C 0.05788 0.34225 0.15002 0.0
C606 C 0.04002 0.39191 0.23887 0.0
C607 C 0.04438 0.38956 0.31046 0.0
C608 C 0.0337 0.4114 0.217 0.0
C609 C 0.03126 0.4162 0.14184 0.0
C610 C 0.04718 0.41265 0.09468 0.0
C611 C 0.04487 0.41721 0.0239 0.0
C612 C 0.02674 0.42542 0.99964 0.0
C613 C 0.01091 0.42913 0.04618 0.0
C614 C 0.01314 0.42461 0.11705 0.0
C615 C 0.0362 0.46434 0.492 0.0
C616 C 0.01979 0.47711 0.47618 0.0
C617 C 0.04094 0.44739 0.44894 0.0
C618 C 0.02898 0.4421 0.38986 0.0
C619 C 0.01217 0.45466 0.37648 0.0
C620 C 1.00798 0.4719 0.41752 0.0
C621 C 0.03395 0.42457 0.33935 0.0
C622 C 0.03054 0.42709 0.26681 0.0
C623 C 0.04168 0.4054 0.36006 0.0
C624 C 0.04686 0.40075 0.43308 0.0
C625 C 0.03167 0.39615 0.48144 0.0
C626 C 0.03689 0.38972 0.5485 0.0
C627 C 0.05717 0.38854 0.56844 0.0
C628 C 0.07235 0.39322 0.52057 0.0
C629 C 0.06724 0.39901 0.45273 0.0
H630 H 0.06111 0.38371 0.62062 0.0
H631 H 0.02497 0.42892 0.94483 0.0
H632 H 0.81671 0.96255 0.04725 0.0
H633 H 0.84478 0.96985 0.96904 0.0
H634 H 0.87707 0.99811 0.13925 0.0
H635 H 0.84809 0.9917 0.21722 0.0
H636 H 0.8875 0.01719 0.02946 0.0
H637 H 0.88675 0.9461 0.07084 0.0
H638 H 0.87302 0.9115 0.07683 0.0
H639 H 0.85956 0.91289 0.85743 0.0
H640 H 0.87305 0.94756 0.85027 0.0
H641 H 0.98429 0.99725 0.8517 0.0
H642 H 0.95593 0.99383 0.93327 0.0
H643 H 0.91412 0.99519 0.7611 0.0
H644 H 0.94231 0.99949 0.67937 0.0
H645 H 0.91025 0.96119 0.87527 0.0
H646 H 0.91193 0.03334 0.83829 0.0
H647 H 0.92807 0.06689 0.83604 0.0
H648 H 0.94255 0.06192 0.05396 0.0
H649 H 0.92677 0.02815 0.05718 0.0
C650 C 0.82961 0.97073 0.06789 0.0
C651 C 0.82993 0.97667 0.13865 0.0
C652 C 0.84596 0.97461 0.02307 0.0
C653 C 0.86377 0.98393 0.0477 0.0
C654 C 0.8638 0.99072 0.11804 0.0
C655 C 0.8471 0.98718 0.16287 0.0
C656 C 0.88214 0.98616 1.00018 0.0
C657 C 0.89251 1.00476 0.99671 0.0
C658 C 0.88909 0.97021 0.95588 0.0
C659 C 0.88072 0.94949 0.96021 0.0
C660 C 0.88071 0.93908 0.02401 0.0
C661 C 0.87301 0.91944 0.02758 0.0
C662 C 0.86537 0.91003 0.9676 0.0
C663 C 0.86545 0.92021 0.90388 0.0
C664 C 0.87315 0.93984 0.90001 0.0
C665 C 0.96911 0.99685 0.83077 0.0
C666 C 0.96583 0.99889 0.75819 0.0
C667 C 0.9528 0.99495 0.87789 0.0
C668 C 0.93268 0.99442 0.85398 0.0
C669 C 0.92938 0.99569 0.78144 0.0
C670 C 0.94563 0.99816 0.73449 0.0
C671 C 0.91519 0.99215 0.90425 0.0
C672 C 0.90512 0.97353 0.9083 0.0
C673 C 0.90878 1.00792 0.94965 0.0
C674 C 0.91844 0.0281 0.9477 0.0
C675 C 0.9188 0.03928 0.88549 0.0
C676 C 0.92782 0.05836 0.8841 0.0
C677 C 0.93641 0.0665 0.94475 0.0
C678 C 0.93595 0.05557 0.00697 0.0
C679 C 0.92696 0.03646 0.00861 0.0
H680 H 0.94336 0.08129 0.9436 0.0
H681 H 0.85943 0.89482 0.97046 0.0
H682 H 0.59192 0.8525 0.15292 0.0
H683 H 0.584 0.879 0.06926 0.0
H684 H 0.52344 0.85581 0.04874 0.0
H685 H 0.53147 0.82887 0.13341 0.0
H686 H 0.54164 0.86645 0.91742 0.0
H687 H 0.53325 0.89805 0.14597 0.0
H688 H 0.54587 0.90645 0.26384 0.0
H689 H 0.59557 0.93901 0.17459 0.0
H690 H 0.58353 0.93039 0.05625 0.0
H691 H 0.50592 0.95087 0.7254 0.0
H692 H 0.51165 0.92321 0.80626 0.0
H693 H 0.56516 0.95319 0.8836 0.0
H694 H 0.55862 0.98161 0.80489 0.0
H695 H 0.54954 0.9383 0.98714 0.0
H696 H 0.56332 0.90762 0.76804 0.0
H697 H 0.55738 0.89766 0.64543 0.0
H698 H 0.50577 0.86279 0.70717 0.0
H699 H 0.51117 0.87285 0.83009 0.0
C700 C 0.5768 0.85308 0.13126 0.0
C701 C 0.56227 0.83868 0.15113 0.0
C702 C 0.57229 0.86831 0.08307 0.0
C703 C 0.55301 0.86978 0.0527 0.0
C704 C 0.53842 0.85521 0.07146 0.0
C705 C 0.54294 0.83989 0.12045 0.0
C706 C 0.54837 0.88671 1.00246 0.0
C707 C 0.54299 0.88217 0.93299 0.0
C708 C 0.55108 0.90734 0.02108 0.0
C709 C 0.55759 0.9134 0.09228 0.0
C710 C 0.5469 0.90695 0.15151 0.0
C711 C 0.55398 0.91173 0.21841 0.0
C712 C 0.57161 0.92314 0.22663 0.0
C713 C 0.58199 0.93009 0.16808 0.0
C714 C 0.57504 0.92526 0.10112 0.0
C715 C 0.5191 0.9515 0.75885 0.0
C716 C 0.53197 0.96845 0.75754 0.0
C717 C 0.52245 0.93548 0.80536 0.0
C718 C 0.53919 0.93548 0.8509 0.0
C719 C 0.55211 0.95249 0.84951 0.0
C720 C 0.54844 0.9688 0.80406 0.0
C721 C 0.54278 0.91821 0.90129 0.0
C722 C 0.54801 0.92264 0.97102 0.0
C723 C 0.54071 0.89747 0.88202 0.0
C724 C 0.53752 0.89118 0.80826 0.0
C725 C 0.55062 0.89794 0.75545 0.0
C726 C 0.54735 0.89227 0.68588 0.0
C727 C 0.53117 0.87965 0.6685 0.0
C728 C 0.51827 0.87261 0.72071 0.0
C729 C 0.52143 0.87828 0.79035 0.0
H730 H 0.52865 0.87529 0.6146 0.0
H731 H 0.57732 0.92658 0.27828 0.0
H732 H 0.68356 0.53954 0.16898 0.0
H733 H 0.65299 0.53114 0.10142 0.0
H734 H 0.67393 0.56876 0.93292 0.0
H735 H 0.70338 0.57812 1.00221 0.0
H736 H 0.63758 0.57488 0.93638 0.0
H737 H 0.67338 0.51144 0.93787 0.0
H738 H 0.6907 0.48302 0.99533 0.0
H739 H 0.6364 0.46868 0.10718 0.0
H740 H 0.61883 0.49716 0.05088 0.0
H741 H 0.56475 0.54008 0.68245 0.0
H742 H 0.5965 0.5469 0.7453 0.0
H743 H 0.57434 0.51333 0.92175 0.0
H744 H 0.54335 0.50566 0.85782 0.0
H745 H 0.61157 0.50502 0.91232 0.0
H746 H 0.5757 0.56819 0.90332 0.0
H747 H 0.55937 0.59708 0.84692 0.0
H748 H 0.61509 0.61264 0.74619 0.0
H749 H 0.63177 0.58341 0.80113 0.0
C750 C 0.6817 0.54575 0.11719 0.0
C751 C 0.69612 0.55932 0.09082 0.0
C752 C 0.66416 0.54091 0.07801 0.0
C753 C 0.66089 0.54893 0.01035 0.0
C754 C 0.67561 0.56226 0.98438 0.0
C755 C 0.6927 0.56748 0.02406 0.0
C756 C 0.64231 0.54391 0.96647 0.0
C757 C 0.6322 0.55949 0.93048 0.0
C758 C 0.63457 0.524 0.95868 0.0
C759 C 0.64485 0.50646 0.99052 0.0
C760 C 0.66515 0.50221 0.97473 0.0
C761 C 0.67501 0.48612 0.00715 0.0
C762 C 0.66467 0.47407 0.05495 0.0
C763 C 0.6444 0.47802 0.07015 0.0
C764 C 0.63447 0.49411 0.03792 0.0
C765 C 0.56679 0.53391 0.73422 0.0
C766 C 0.55142 0.52208 0.76447 0.0
C767 C 0.58495 0.53803 0.77081 0.0
C768 C 0.58807 0.53095 0.83963 0.0
C769 C 0.5727 0.51904 0.86915 0.0
C770 C 0.55478 0.51471 0.8324 0.0
C771 C 0.60695 0.53596 0.8819 0.0
C772 C 0.61707 0.52038 0.91775 0.0
C773 C 0.61485 0.55586 0.88877 0.0
C774 C 0.60491 0.57344 0.85567 0.0
C775 C 0.58444 0.57762 0.86855 0.0
C776 C 0.5751 0.59407 0.83665 0.0
C777 C 0.5861 0.6067 0.7926 0.0
C778 C 0.60654 0.60284 0.78022 0.0
C779 C 0.61595 0.58629 0.81164 0.0
H780 H 0.57882 0.61951 0.76834 0.0
H781 H 0.67235 0.46165 0.08016 0.0
H782 H 0.96583 0.71341 0.02947 0.0
H783 H 0.97337 0.68533 0.94998 0.0
H784 H 0.99697 0.65117 0.12299 0.0
H785 H 0.9904 0.67994 0.2017 0.0
H786 H 0.01816 0.64135 0.02203 0.0
H787 H 0.94572 0.64611 0.03333 0.0
H788 H 0.91186 0.66117 0.02033 0.0
H789 H 0.92256 0.67008 0.80152 0.0
H790 H 0.95653 0.65519 0.81325 0.0
H791 H 0.02119 0.5466 0.85547 0.0
H792 H 0.01286 0.57532 0.92814 0.0
H793 H 0.98612 0.60516 0.75111 0.0
H794 H 0.99146 0.57435 0.68049 0.0
H795 H 0.96689 0.61819 0.85065 0.0
H796 H 0.04038 0.61536 0.8426 0.0
H797 H 0.07355 0.59857 0.85612 0.0
H798 H 0.05993 0.58565 0.07037 0.0
H799 H 0.02682 0.60239 0.05818 0.0
C800 C 0.97319 0.70011 0.05027 0.0
C801 C 0.97799 0.6993 0.12202 0.0
C802 C 0.97711 0.68372 0.00471 0.0
C803 C 0.98527 0.66541 0.02951 0.0
C804 C 0.99062 0.66483 0.1012 0.0
C805 C 0.98706 0.68146 0.1466 0.0
C806 C 0.98845 0.6471 0.98137 0.0
C807 C 1.00672 0.63629 0.9853 0.0
C808 C 0.97402 0.64027 0.93095 0.0
C809 C 0.95378 0.64972 0.92437 0.0
C810 C 0.94094 0.65147 0.98258 0.0
C811 C 0.92169 0.65991 0.97538 0.0
C812 C 0.91509 0.66663 0.91019 0.0
C813 C 0.9277 0.66489 0.85201 0.0
C814 C 0.94694 0.65642 0.85889 0.0
C815 C 0.01356 0.55922 0.83121 0.0
C816 C 1.00797 0.55821 0.76012 0.0
C817 C 0.00911 0.57613 0.87328 0.0
C818 C 0.99997 0.59359 0.8457 0.0
C819 C 0.99369 0.59243 0.77485 0.0
C820 C 0.99716 0.57484 0.73341 0.0
C821 C 0.99665 0.61249 0.8913 0.0
C822 C 0.97836 0.62338 0.88701 0.0
C823 C 0.01104 0.61948 0.94153 0.0
C824 C 0.03114 0.60996 0.94923 0.0
C825 C 0.04452 0.60889 0.89243 0.0
C826 C 0.06326 0.59939 0.89986 0.0
C827 C 0.06877 0.59095 0.96384 0.0
C828 C 0.05564 0.59217 0.0208 0.0
C829 C 0.03693 0.60173 0.01376 0.0
H830 H 0.08324 0.58353 0.96934 0.0
H831 H 0.90018 0.67315 0.90473 0.0
H832 H 0.04207 0.26158 0.19036 0.0
H833 H 0.03717 0.23508 0.27348 0.0
H834 H 0.09624 0.21093 0.22488 0.0
H835 H 0.10011 0.23668 0.13468 0.0
H836 H 0.07057 0.18576 0.18906 0.0
H837 H 0.07678 0.22206 0.40439 0.0
H838 H 0.07197 0.25219 0.4789 0.0
H839 H 1.00763 0.24481 0.46664 0.0
H840 H 0.01199 0.21484 0.39142 0.0
H841 H 0.02528 0.09691 0.32093 0.0
H842 H 0.04753 0.1258 0.30599 0.0
H843 H 0.99629 0.16596 0.32064 0.0
H844 H 0.97401 0.13698 0.34073 0.0
H845 H 0.02664 0.1798 0.39734 0.0
H846 H 0.01908 0.15268 0.1637 0.0
H847 H 0.02082 0.12676 0.07085 0.0
H848 H 0.08462 0.12054 0.10433 0.0
H849 H 0.08324 0.14618 0.19849 0.0
C850 C 0.05453 0.25134 0.20023 0.0
C851 C 0.07125 0.25078 0.15563 0.0
C852 C 0.05181 0.23613 0.24876 0.0
C853 C 0.0663 0.22075 0.25566 0.0
C854 C 0.08477 0.2225 0.21992 0.0
C855 C 0.08708 0.23727 0.16886 0.0
C856 C 0.05967 0.20086 0.28216 0.0
C857 C 0.06165 0.1843 0.23627 0.0
C858 C 0.04738 0.19904 0.34229 0.0
C859 C 0.04476 0.21606 0.39253 0.0
C860 C 0.06161 0.22677 0.41797 0.0
C861 C 0.05895 0.24388 0.46015 0.0
C862 C 0.03951 0.25038 0.4776 0.0
C863 C 0.02268 0.2397 0.4534 0.0
C864 C 0.02524 0.22258 0.41126 0.0
C865 C 0.01872 0.11191 0.32054 0.0
C866 C 0.99793 0.11477 0.33209 0.0
C867 C 0.03146 0.12837 0.3119 0.0
C868 C 0.02354 0.14797 0.31212 0.0
C869 C 1.00266 0.15089 0.3208 0.0
C870 C 0.98991 0.13437 0.33087 0.0
C871 C 0.03701 0.16546 0.30264 0.0
C872 C 0.03631 0.18123 0.35192 0.0
C873 C 0.05018 0.1668 0.24482 0.0
C874 C 0.05099 0.15114 0.18891 0.0
C875 C 0.03345 0.14562 0.15188 0.0
C876 C 0.03439 0.13101 0.09893 0.0
C877 C 0.05282 0.12196 0.08195 0.0
C878 C 0.07036 0.12752 0.11783 0.0
C879 C 0.06951 0.14208 0.17102 0.0
H880 H 0.05352 0.11069 0.04081 0.0
H881 H 0.03749 0.26373 0.50977 0.0
H882 H 0.27334 0.06839 0.17824 0.0
H883 H 0.30052 0.0638 0.26016 0.0
H884 H 0.33866 0.10287 0.1382 0.0
H885 H 0.31104 0.10799 0.0554 0.0
H886 H 0.34913 0.06194 0.13364 0.0
H887 H 0.33231 0.11112 0.31319 0.0
H888 H 0.30781 0.12767 0.39175 0.0
H889 H 0.29656 0.07113 0.4934 0.0
H890 H 0.32074 0.05417 0.41478 0.0
H891 H 0.43485 0.025 0.31144 0.0
H892 H 0.40947 0.04982 0.27617 0.0
H893 H 0.36234 0.012 0.35934 0.0
H894 H 0.38757 0.98684 0.39324 0.0
H895 H 0.35938 0.05669 0.38981 0.0
H896 H 0.36086 1.00697 0.21 0.0
H897 H 0.37753 0.98274 0.13049 0.0
H898 H 0.40927 0.03137 0.03181 0.0
H899 H 0.39307 0.05584 0.11226 0.0
C900 C 0.28693 0.07722 0.17079 0.0
C901 C 0.29031 0.0879 0.1085 0.0
C902 C 0.30263 0.07445 0.21803 0.0
C903 C 0.32172 0.08261 0.20423 0.0
C904 C 0.32403 0.09627 0.14909 0.0
C905 C 0.30821 0.09921 0.10198 0.0
C906 C 0.33958 0.07281 0.2351 0.0
C907 C 0.35185 0.06147 0.18955 0.0
C908 C 0.34207 0.07095 0.30818 0.0
C909 C 0.32839 0.08138 0.35807 0.0
C910 C 0.32463 0.10222 0.35232 0.0
C911 C 0.31076 0.11166 0.3968 0.0
C912 C 0.30064 0.10046 0.44755 0.0
C913 C 0.30445 0.0798 0.45419 0.0
C914 C 0.31828 0.07028 0.4098 0.0
C915 C 0.41909 0.02206 0.32265 0.0
C916 C 0.41311 1.00405 0.35518 0.0
C917 C 0.4047 0.03626 0.30295 0.0
C918 C 0.38421 0.03273 0.31636 0.0
C919 C 0.37818 0.01498 0.34972 0.0
C920 C 0.39254 1.00058 0.36818 0.0
C921 C 0.36896 0.04651 0.28814 0.0
C922 C 0.35712 0.05806 0.3339 0.0
C923 C 0.36597 0.04776 0.21548 0.0
C924 C 0.37573 0.03326 0.16673 0.0
C925 C 0.37145 0.01249 0.17147 0.0
C926 C 0.38081 0.99871 0.12634 0.0
C927 C 0.39436 1.00554 0.07584 0.0
C928 C 0.39864 0.02615 0.07063 0.0
C929 C 0.38936 0.03999 0.11589 0.0
H930 H 0.40159 0.99486 0.04088 0.0
H931 H 0.28984 0.10779 0.48171 0.0
H932 H 0.42539 0.30707 0.07763 0.0
H933 H 0.43377 0.33388 0.16067 0.0
H934 H 0.47377 0.29353 0.26958 0.0
H935 H 0.46704 0.26728 0.18408 0.0
H936 H 0.44477 0.33875 0.32749 0.0
H937 H 0.50474 0.30439 0.20839 0.0
H938 H 0.52148 0.28856 0.10687 0.0
H939 H 0.50144 0.33709 0.97641 0.0
H940 H 0.4839 0.35278 0.07651 0.0
H941 H 0.5276 0.40638 0.42947 0.0
H942 H 0.50577 0.37731 0.40776 0.0
H943 H 0.48999 0.40135 0.20595 0.0
H944 H 0.51249 0.43021 0.22651 0.0
H945 H 0.50639 0.3629 0.20622 0.0
H946 H 0.43412 0.38507 0.31749 0.0
H947 H 0.41513 0.39957 0.41683 0.0
H948 H 0.45992 0.37712 0.55887 0.0
H949 H 0.47836 0.36154 0.46123 0.0
C950 C 0.43537 0.30363 0.12084 0.0
C951 C 0.44649 0.28553 0.12175 0.0
C952 C 0.44002 0.31892 0.16839 0.0
C953 C 0.45499 0.31566 0.21868 0.0
C954 C 0.46255 0.29624 0.22947 0.0
C955 C 0.45845 0.28116 0.18066 0.0
C956 C 0.46622 0.33301 0.24562 0.0
C957 C 0.4584 0.34397 0.30185 0.0
C958 C 0.48373 0.33984 0.21082 0.0
C959 C 0.49247 0.32937 0.14938 0.0
C960 C 0.50336 0.31133 0.15755 0.0
C961 C 0.51308 0.30244 0.10032 0.0
C962 C 0.5124 0.31174 0.03507 0.0
C963 C 0.50175 0.32978 0.02668 0.0
C964 C 0.4918 0.33859 0.08351 0.0
C965 C 0.51939 0.40541 0.38057 0.0
C966 C 0.5219 0.42019 0.32896 0.0
C967 C 0.5065 0.38913 0.36915 0.0
C968 C 0.49562 0.38766 0.30668 0.0
C969 C 0.49798 0.40253 0.25525 0.0
C970 C 0.51108 0.41871 0.26626 0.0
C971 C 0.48508 0.36884 0.28881 0.0
C972 C 0.49295 0.35763 0.23304 0.0
C973 C 0.46771 0.36185 0.32418 0.0
C974 C 0.4581 0.37302 0.38196 0.0
C975 C 0.44001 0.38352 0.37001 0.0
C976 C 0.42912 0.39158 0.42617 0.0
C977 C 0.43637 0.3894 0.49432 0.0
C978 C 0.45439 0.379 0.50633 0.0
C979 C 0.46506 0.37053 0.45058 0.0
H980 H 0.428 0.39572 0.53779 0.0
H981 H 0.52036 0.3051 0.99131 0.0
H982 H 0.23132 0.43023 0.11809 0.0
H983 H 0.204 0.43386 0.20316 0.0
H984 H 0.23182 0.48838 0.28247 0.0
H985 H 0.25914 0.48462 0.19849 0.0
H986 H 0.21099 0.47129 0.38098 0.0
H987 H 0.20129 0.49001 0.14417 0.0
H988 H 0.19763 0.48842 0.01603 0.0
H989 H 0.14955 0.44538 0.03648 0.0
H990 H 0.15313 0.44641 0.16477 0.0
H991 H 0.12653 0.54086 0.37699 0.0
H992 H 0.15835 0.52189 0.37643 0.0
H993 H 0.12491 0.46593 0.37094 0.0
H994 H 0.09309 0.48494 0.37254 0.0
H995 H 0.14747 0.47891 0.24634 0.0
H996 H 0.15764 0.46781 0.49617 0.0
H997 H 0.16386 0.47564 0.62044 0.0
H998 H 0.21243 0.51529 0.56395 0.0
H999 H 0.20653 0.50767 0.4394 0.0
C1000 C 0.23209 0.44232 0.15642 0.0
C1001 C 0.24699 0.45735 0.15157 0.0
C1002 C 0.21644 0.4445 0.20427 0.0
C1003 C 0.21567 0.46173 0.24705 0.0
C1004 C 0.23213 0.47507 0.24927 0.0
C1005 C 0.24782 0.47284 0.20169 0.0
C1006 C 0.19666 0.46771 0.28074 0.0
C1007 C 0.19703 0.47287 0.35173 0.0
C1008 C 0.17863 0.47005 0.24174 0.0
C1009 C 0.17773 0.46801 0.1643 0.0
C1010 C 0.19023 0.47987 0.12143 0.0
C1011 C 0.18807 0.47918 0.04873 0.0
C1012 C 0.17334 0.46683 0.01827 0.0
C1013 C 0.16097 0.45491 0.06025 0.0
C1014 C 0.16308 0.45551 0.13292 0.0
C1015 C 0.12612 0.5245 0.3786 0.0
C1016 C 0.10771 0.51416 0.37399 0.0
C1017 C 0.14418 0.51372 0.37909 0.0
C1018 C 0.14383 0.49258 0.37413 0.0
C1019 C 0.12534 0.48224 0.37587 0.0
C1020 C 0.10729 0.49303 0.37611 0.0
C1021 C 0.16173 0.48216 0.34692 0.0
C1022 C 0.16122 0.47658 0.27622 0.0
C1023 C 0.17987 0.48064 0.38494 0.0
C1024 C 0.18165 0.48715 0.45867 0.0
C1025 C 0.1694 0.47846 0.51025 0.0
C1026 C 0.17297 0.48276 0.58076 0.0
C1027 C 0.18867 0.49578 0.60002 0.0
C1028 C 0.20041 0.50505 0.54891 0.0
C1029 C 0.19698 0.50074 0.47845 0.0
H1030 H 0.19183 0.49869 0.65448 0.0
H1031 H 0.17132 0.46667 0.96223 0.0
H1032 H 0.92415 0.80403 0.12773 0.0
H1033 H 0.92865 0.83166 0.04469 0.0
H1034 H 0.9857 0.80561 0.98162 0.0
H1035 H 0.98013 0.77751 0.05703 0.0
H1036 H 0.95708 0.85503 0.07946 0.0
H1037 H 0.00979 0.82621 0.87082 0.0
H1038 H 0.0138 0.7967 0.79288 0.0
H1039 H 0.94936 0.79194 0.77262 0.0
H1040 H 0.94497 0.82132 0.85136 0.0
H1041 H 0.04838 0.90352 0.9466 0.0
H1042 H 0.02282 0.8816 0.99918 0.0
H1043 H 0.97682 0.90885 0.87096 0.0
H1044 H 1.00209 0.93083 0.81847 0.0
H1045 H 0.99265 0.86288 0.85415 0.0
H1046 H 0.96145 0.9137 0.01093 0.0
H1047 H 0.96336 0.93949 0.10442 0.0
H1048 H 0.99268 0.89696 0.23925 0.0
H1049 H 0.99086 0.8709 0.14656 0.0
C1050 C 0.93676 0.80355 0.09174 0.0
C1051 C 0.95183 0.78882 0.09863 0.0
C1052 C 0.93947 0.81939 0.0449 0.0
C1053 C 0.95753 0.82084 0.00658 0.0
C1054 C 0.97127 0.80471 0.00776 0.0
C1055 C 0.96812 0.78854 0.05191 0.0
C1056 C 0.96447 0.84068 0.9812 0.0
C1057 C 0.96429 0.85683 0.02936 0.0
C1058 C 0.9747 0.84293 0.91686 0.0
C1059 C 0.97704 0.82602 0.86641 0.0
C1060 C 0.99648 0.81903 0.84891 0.0
C1061 C 0.99882 0.80223 0.80514 0.0
C1062 C 0.98184 0.79248 0.77767 0.0
C1063 C 0.96249 0.7995 0.79403 0.0
C1064 C 0.96005 0.81617 0.83847 0.0
C1065 C 0.03272 0.90516 0.93108 0.0
C1066 C 0.0272 0.91843 0.87752 0.0
C1067 C 0.01819 0.89288 0.96161 0.0
C1068 C 0.99815 0.89379 0.93839 0.0
C1069 C 0.99226 0.90827 0.88969 0.0
C1070 C 1.00672 0.92072 0.8598 0.0
C1071 C 0.98478 0.87681 0.95235 0.0
C1072 C 0.98438 0.86119 0.90273 0.0
C1073 C 0.97474 0.87473 0.01638 0.0
C1074 C 0.97601 0.8904 0.07187 0.0
C1075 C 0.96836 0.90989 0.06043 0.0
C1076 C 0.96937 0.92453 0.11335 0.0
C1077 C 0.97809 0.91985 0.1778 0.0
C1078 C 0.98587 0.90054 0.18939 0.0
C1079 C 0.98479 0.88582 0.13679 0.0
H1080 H 0.97883 0.93118 0.21873 0.0
H1081 H 0.98368 0.77946 0.7438 0.0
H1082 H 0.71966 0.93805 0.13656 0.0
H1083 H 0.69421 0.94326 0.04554 0.0
H1084 H 0.72809 0.99406 0.9685 0.0
H1085 H 0.75348 0.98892 0.05805 0.0
H1086 H 0.68017 0.98722 0.06758 0.0
H1087 H 0.72493 0.98893 0.84484 0.0
H1088 H 0.74772 0.96913 0.76881 0.0
H1089 H 0.70427 0.92097 0.76045 0.0
H1090 H 0.68145 0.9404 0.83768 0.0
H1091 H 0.63545 0.06269 0.86578 0.0
H1092 H 0.65904 0.03911 0.91957 0.0
H1093 H 0.6253 0.98887 0.83494 0.0
H1094 H 0.602 0.01246 0.77797 0.0
H1095 H 0.67016 0.98911 0.81127 0.0
H1096 H 0.62263 0.98802 0.01843 0.0
H1097 H 0.60086 1.00485 0.10604 0.0
H1098 H 0.64768 0.04815 0.14829 0.0
H1099 H 0.6697 0.03144 0.06134 0.0
C1100 C 0.72215 0.94963 0.09775 0.0
C1101 C 0.73831 0.96325 0.10464 0.0
C1102 C 0.70772 0.95249 0.04568 0.0
C1103 C 0.70948 0.96887 1.0001 0.0
C1104 C 0.72684 0.98094 1.00174 0.0
C1105 C 0.7413 0.97805 0.05343 0.0
C1106 C 0.69124 0.97714 0.96764 0.0
C1107 C 0.67764 0.98717 0.01173 0.0
C1108 C 0.68821 0.97722 0.89496 0.0
C1109 C 0.70168 0.96594 0.84748 0.0
C1110 C 0.72036 0.97405 0.82723 0.0
C1111 C 0.73326 0.96291 0.78391 0.0
C1112 C 0.72748 0.94377 0.76 0.0
C1113 C 0.70876 0.93576 0.77919 0.0
C1114 C 0.69587 0.9468 0.8228 0.0
C1115 C 0.63319 0.04662 0.85796 0.0
C1116 C 0.61709 0.03937 0.8172 0.0
C1117 C 0.6465 0.03321 0.88926 0.0
C1118 C 0.64383 0.01236 0.88076 0.0
C1119 C 0.62763 1.00496 0.84108 0.0
C1120 C 0.61429 0.01841 0.80934 0.0
C1121 C 0.65862 0.99857 0.91171 0.0
C1122 C 0.67191 0.98805 0.86743 0.0
C1123 C 0.66131 0.99782 0.98464 0.0
C1124 C 0.64773 1.00853 0.03371 0.0
C1125 C 0.62817 1.00121 0.0462 0.0
C1126 C 0.61585 0.01067 0.09588 0.0
C1127 C 0.6229 0.02754 0.13283 0.0
C1128 C 0.64225 0.03506 0.11982 0.0
C1129 C 0.65467 0.02557 0.07058 0.0
H1130 H 0.61338 0.03478 0.17149 0.0
H1131 H 0.73748 0.93516 0.72647 0.0
H1132 H 0.60475 0.73411 0.10845 0.0
H1133 H 0.59929 0.70968 0.01314 0.0
H1134 H 0.5387 0.73281 0.98701 0.0
H1135 H 0.54496 0.75813 0.07486 0.0
H1136 H 0.57402 0.68192 0.03361 0.0
H1137 H 0.51437 0.71924 0.85848 0.0
H1138 H 0.50803 0.7537 0.8159 0.0
H1139 H 0.57189 0.76457 0.80423 0.0
H1140 H 0.57863 0.73005 0.84608 0.0
H1141 H 0.49401 0.62314 0.98079 0.0
H1142 H 0.50953 0.6566 0.97986 0.0
H1143 H 0.54387 0.64022 0.79673 0.0
H1144 H 0.52765 0.60692 0.79547 0.0
H1145 H 0.5308 0.68583 0.82183 0.0
H1146 H 0.56979 0.62896 0.9247 0.0
H1147 H 0.56951 0.59746 0.99375 0.0
H1148 H 0.54194 0.629 0.16526 0.0
H1149 H 0.54203 0.66058 0.09722 0.0
C1150 C 0.59087 0.73469 0.07851 0.0
C1151 C 0.57538 0.74807 0.09747 0.0
C1152 C 0.58766 0.72071 0.02472 0.0
C1153 C 0.5687 0.7196 0.99161 0.0
C1154 C 0.55379 0.73388 0.0084 0.0
C1155 C 0.55732 0.74831 0.05947 0.0
C1156 C 0.56276 0.70134 0.95193 0.0
C1157 C 0.56529 0.68277 0.9857 0.0
C1158 C 0.55083 0.70242 0.89039 0.0
C1159 C 0.54702 0.722 0.8552 0.0
C1160 C 0.52708 0.7288 0.84534 0.0
C1161 C 0.5234 0.74845 0.82218 0.0
C1162 C 0.53954 0.76139 0.808 0.0
C1163 C 0.5594 0.75459 0.81574 0.0
C1164 C 0.56316 0.73496 0.83895 0.0
C1165 C 0.5044 0.62693 0.93917 0.0
C1166 C 0.51034 0.61238 0.88991 0.0
C1167 C 0.51305 0.64602 0.93819 0.0
C1168 C 0.52804 0.6505 0.889 0.0
C1169 C 0.53231 0.63686 0.83496 0.0
C1170 C 0.52324 0.61786 0.8349 0.0
C1171 C 0.54203 0.66705 0.90452 0.0
C1172 C 0.54073 0.68504 0.86685 0.0
C1173 C 0.55486 0.66567 0.96326 0.0
C1174 C 0.55595 0.64704 0.00588 0.0
C1175 C 0.56373 0.6291 0.97715 0.0
C1176 C 0.56358 0.61128 0.016 0.0
C1177 C 0.55568 0.61123 0.08363 0.0
C1178 C 0.54809 0.62906 0.11289 0.0
C1179 C 0.54827 0.64695 0.07434 0.0
H1180 H 0.55546 0.59737 0.11324 0.0
H1181 H 0.53666 0.77663 0.79034 0.0
H1182 H 0.77318 0.59486 0.02928 0.0
H1183 H 0.7985 0.59023 0.93565 0.0
H1184 H 0.83978 0.56513 0.08472 0.0
H1185 H 0.81559 0.56838 0.17556 0.0
H1186 H 0.85558 0.59644 0.97434 0.0
H1187 H 0.82479 0.52358 0.02772 0.0
H1188 H 0.79291 0.5044 0.03735 0.0
H1189 H 0.77042 0.53314 0.85234 0.0
H1190 H 0.80215 0.55263 0.84225 0.0
H1191 H 0.92732 0.51821 0.02195 0.0
H1192 H 0.89832 0.54082 0.02826 0.0
H1193 H 0.88307 0.5262 0.81494 0.0
H1194 H 0.9114 0.50298 0.80906 0.0
H1195 H 0.8516 0.52468 0.89997 0.0
H1196 H 0.89637 0.59124 0.85093 0.0
H1197 H 0.92878 0.60796 0.87577 0.0
H1198 H 0.92412 0.5913 0.09152 0.0
H1199 H 0.89149 0.57459 0.06775 0.0
C1200 C 0.7879 0.58885 0.04226 0.0
C1201 C 0.79232 0.58255 0.11095 0.0
C1202 C 0.8023 0.58636 0.98894 0.0
C1203 C 0.82117 0.57793 0.00479 0.0
C1204 C 0.82569 0.57252 0.07307 0.0
C1205 C 0.81159 0.57458 0.12519 0.0
C1206 C 0.83589 0.57129 0.95233 0.0
C1207 C 0.85468 0.58111 0.95406 0.0
C1208 C 0.83475 0.55107 0.92883 0.0
C1209 C 0.81575 0.53942 0.93402 0.0
C1210 C 0.81304 0.5257 0.989 0.0
C1211 C 0.795 0.51486 0.99472 0.0
C1212 C 0.77966 0.51753 0.94542 0.0
C1213 C 0.78231 0.53111 0.89051 0.0
C1214 C 0.80027 0.54211 0.88488 0.0
C1215 C 0.91772 0.51984 0.97649 0.0
C1216 C 0.92172 0.50906 0.91474 0.0
C1217 C 0.90151 0.53326 0.97941 0.0
C1218 C 0.88935 0.5364 0.92033 0.0
C1219 C 0.89286 0.52494 0.8598 0.0
C1220 C 0.90892 0.51146 0.85686 0.0
C1221 C 0.87143 0.5496 0.92423 0.0
C1222 C 0.85251 0.54059 0.9137 0.0
C1223 C 0.87258 0.57033 0.94256 0.0
C1224 C 0.89202 0.58064 0.95675 0.0
C1225 C 0.90243 0.59064 0.90322 0.0
C1226 C 0.92077 0.60035 0.91728 0.0
C1227 C 0.92874 0.6003 0.98488 0.0
C1228 C 0.9181 0.59105 0.03894 0.0
C1229 C 0.89967 0.5815 0.02519 0.0
H1230 H 0.94306 0.60755 0.99552 0.0
H1231 H 0.76572 0.50908 0.94978 0.0
H1232 H 0.08595 0.22355 0.93103 0.0
H1233 H 0.08214 0.19255 0.87582 0.0
H1234 H 0.0211 0.2086 0.81501 0.0
H1235 H 0.02531 0.24038 0.87715 0.0
H1236 H 0.02037 0.18312 0.74725 0.0
H1237 H 0.0946 0.17121 0.74834 0.0
H1238 H 0.12926 0.17163 0.79645 0.0
H1239 H 0.10808 0.14337 0.98411 0.0
H1240 H 0.07322 0.14333 0.93775 0.0
H1241 H 0.02165 0.08291 0.58133 0.0
H1242 H 0.03046 0.1181 0.61272 0.0
H1243 H 0.03289 0.10146 0.82951 0.0
H1244 H 0.02278 0.06771 0.79877 0.0
H1245 H 0.06511 0.1251 0.79504 0.0
H1246 H 0.99209 0.12808 0.75759 0.0
H1247 H 0.96218 0.12393 0.6818 0.0
H1248 H 0.98715 0.16593 0.53514 0.0
H1249 H 0.01728 0.17019 0.60985 0.0
C1250 C 0.07168 0.22069 0.90493 0.0
C1251 C 0.05598 0.23493 0.91031 0.0
C1252 C 0.06923 0.20193 0.87129 0.0
C1253 C 0.05111 0.19605 0.83694 0.0
C1254 C 0.03567 0.21125 0.83849 0.0
C1255 C 0.03801 0.2301 0.87441 0.0
C1256 C 0.04778 0.17461 0.80264 0.0
C1257 C 0.03041 0.17088 0.76023 0.0
C1258 C 0.06077 0.15723 0.81128 0.0
C1259 C 0.08132 0.1579 0.8407 0.0
C1260 C 0.09738 0.16523 0.80002 0.0
C1261 C 0.11701 0.16547 0.82708 0.0
C1262 C 0.12083 0.1577 0.89355 0.0
C1263 C 0.10504 0.14965 0.93308 0.0
C1264 C 0.08532 0.14969 0.90679 0.0
C1265 C 0.02448 0.08664 0.63562 0.0
C1266 C 0.02254 0.07149 0.68709 0.0
C1267 C 0.02933 0.10697 0.65375 0.0
C1268 C 0.03252 0.11285 0.72413 0.0
C1269 C 0.03084 0.09769 0.7748 0.0
C1270 C 0.02547 0.07777 0.75676 0.0
C1271 C 0.03759 0.13442 0.74686 0.0
C1272 C 0.05513 0.13785 0.78595 0.0
C1273 C 0.02534 0.15145 0.73255 0.0
C1274 C 1.00695 0.14938 0.68906 0.0
C1275 C 0.9912 0.1364 0.70912 0.0
C1276 C 0.97421 0.13403 0.66637 0.0
C1277 C 0.97278 0.14464 0.60366 0.0
C1278 C 0.98827 0.15773 0.58374 0.0
C1279 C 1.00528 0.16016 0.62632 0.0
H1280 H 0.95964 0.14274 0.57053 0.0
H1281 H 0.13605 0.15782 0.91425 0.0
H1282 H 0.31254 0.03294 0.98192 0.0
H1283 H 0.34568 0.02794 0.9277 0.0
H1284 H 0.32608 0.06139 0.74774 0.0
H1285 H 0.29306 0.06734 0.80393 0.0
H1286 H 0.35178 0.02182 0.72571 0.0
H1287 H 0.34993 0.08611 0.8296 0.0
H1288 H 0.34353 0.11194 0.91975 0.0
H1289 H 0.38924 0.08592 0.04997 0.0
H1290 H 0.39518 0.0591 0.96212 0.0
H1291 H 0.45912 0.04571 0.62461 0.0
H1292 H 0.42446 0.05479 0.66072 0.0
H1293 H 0.42594 1.00818 0.81655 0.0
H1294 H 0.45992 0.99833 0.77792 0.0
H1295 H 0.4087 0.05845 0.83823 0.0
H1296 H 0.40427 0.99027 0.72637 0.0
H1297 H 0.40831 0.96682 0.62703 0.0
H1298 H 0.37239 1.00588 0.49867 0.0
H1299 H 0.36933 0.03016 0.5958 0.0
C1300 C 0.31494 0.03851 0.92946 0.0
C1301 C 0.29976 0.05002 0.89654 0.0
C1302 C 0.33409 0.03594 0.89896 0.0
C1303 C 0.33863 0.04445 0.83379 0.0
C1304 C 0.32305 0.05464 0.79807 0.0
C1305 C 0.30398 0.05774 0.82966 0.0
C1306 C 0.35987 0.04332 0.80542 0.0
C1307 C 0.36414 0.03 0.75008 0.0
C1308 C 0.37618 0.05419 0.83617 0.0
C1309 C 0.37253 0.07009 0.88998 0.0
C1310 C 0.35821 0.08544 0.87829 0.0
C1311 C 0.35469 0.10031 0.92897 0.0
C1312 C 0.36575 0.10034 0.99108 0.0
C1313 C 0.38043 0.08556 1.00241 0.0
C1314 C 0.3838 0.07046 0.95229 0.0
C1315 C 0.45211 0.03753 0.66703 0.0
C1316 C 0.46242 0.02134 0.69874 0.0
C1317 C 0.43223 0.0427 0.68752 0.0
C1318 C 0.4223 0.03201 0.74094 0.0
C1319 C 0.43302 0.01653 0.7747 0.0
C1320 C 0.45253 0.01094 0.75273 0.0
C1321 C 0.40062 0.03632 0.76042 0.0
C1322 C 0.39628 0.05032 0.81402 0.0
C1323 C 0.38415 0.02645 0.72713 0.0
C1324 C 0.38715 0.01235 0.66777 0.0
C1325 C 0.3979 0.99423 0.67625 0.0
C1326 C 0.39997 0.98073 0.62029 0.0
C1327 C 0.39091 0.98497 0.55609 0.0
C1328 C 0.3798 1.00275 0.54774 0.0
C1329 C 0.37801 0.01645 0.60313 0.0
H1330 H 0.3923 0.97434 0.5132 0.0
H1331 H 0.36312 0.11194 0.03007 0.0
H1332 H 0.43796 0.30052 0.86094 0.0
H1333 H 0.44413 0.33314 0.80661 0.0
H1334 H 0.5082 0.32508 0.83583 0.0
H1335 H 0.50183 0.29233 0.89182 0.0
H1336 H 0.49813 0.36061 0.88443 0.0
H1337 H 0.48256 0.32789 0.66301 0.0
H1338 H 0.46236 0.30821 0.57822 0.0
H1339 H 0.41255 0.34902 0.60579 0.0
H1340 H 0.43238 0.36882 0.69119 0.0
H1341 H 0.52927 0.44797 0.69571 0.0
H1342 H 0.52249 0.41343 0.73424 0.0
H1343 H 0.45855 0.42555 0.73151 0.0
H1344 H 0.46524 0.4603 0.69396 0.0
H1345 H 0.46739 0.38887 0.67036 0.0
H1346 H 0.48037 0.42192 0.88174 0.0
H1347 H 0.49741 0.44307 0.97016 0.0
H1348 H 0.5482 0.40273 0.96957 0.0
H1349 H 0.53161 0.3815 0.87998 0.0
C1350 C 0.45345 0.30524 0.85291 0.0
C1351 C 0.4694 0.29356 0.88041 0.0
C1352 C 0.457 0.32412 0.82199 0.0
C1353 C 0.4767 0.33196 0.81649 0.0
C1354 C 0.49281 0.31963 0.83921 0.0
C1355 C 0.48922 0.30067 0.87047 0.0
C1356 C 0.48023 0.35356 0.79352 0.0
C1357 C 0.49181 0.36649 0.8365 0.0
C1358 C 0.47108 0.36203 0.73316 0.0
C1359 C 0.45889 0.3497 0.68393 0.0
C1360 C 0.46722 0.33253 0.65153 0.0
C1361 C 0.45586 0.32139 0.60321 0.0
C1362 C 0.43617 0.32733 0.58677 0.0
C1363 C 0.42777 0.34439 0.61874 0.0
C1364 C 0.43906 0.35557 0.6671 0.0
C1365 C 0.51374 0.4434 0.70354 0.0
C1366 C 0.49784 0.45717 0.69218 0.0
C1367 C 0.50988 0.42356 0.72589 0.0
C1368 C 0.48999 0.41674 0.73654 0.0
C1369 C 0.47405 0.43033 0.72407 0.0
C1370 C 0.47792 0.45031 0.70288 0.0
C1371 C 0.48596 0.39537 0.75949 0.0
C1372 C 0.47405 0.38267 0.71726 0.0
C1373 C 0.49446 0.3872 0.82115 0.0
C1374 C 0.50487 0.40027 0.87323 0.0
C1375 C 0.49531 0.41771 0.89956 0.0
C1376 C 0.50486 0.42968 0.95013 0.0
C1377 C 0.52391 0.42429 0.97529 0.0
C1378 C 0.53346 0.40692 0.94986 0.0
C1379 C 0.524 0.39492 0.89913 0.0
H1380 H 0.53124 0.43353 0.01467 0.0
H1381 H 0.42743 0.31873 0.54915 0.0
H1382 H 0.22426 0.44121 0.93002 0.0
H1383 H 0.19241 0.44727 0.88108 0.0
H1384 H 0.21437 0.50298 0.79127 0.0
H1385 H 0.24529 0.49916 0.86031 0.0
H1386 H 0.18259 0.51214 0.79202 0.0
H1387 H 0.18827 0.43847 0.71173 0.0
H1388 H 0.19295 0.40199 0.7343 0.0
H1389 H 0.14964 0.40498 0.90096 0.0
H1390 H 0.14468 0.44133 0.87917 0.0
H1391 H 0.0911 0.51823 0.58606 0.0
H1392 H 0.12581 0.51087 0.62374 0.0
H1393 H 0.10269 0.47741 0.79874 0.0
H1394 H 0.06843 0.48429 0.76074 0.0
H1395 H 0.13297 0.45772 0.74697 0.0
H1396 H 0.12335 0.52782 0.81255 0.0
H1397 H 0.11402 0.56277 0.78212 0.0
H1398 H 0.16236 0.56487 0.63292 0.0
H1399 H 0.17191 0.53002 0.6624 0.0
C1400 C 0.22247 0.4549 0.89981 0.0
C1401 C 0.23757 0.46991 0.90201 0.0
C1402 C 0.20371 0.45817 0.8681 0.0
C1403 C 0.19953 0.47553 0.82795 0.0
C1404 C 0.21584 0.48956 0.82269 0.0
C1405 C 0.23422 0.48712 0.86068 0.0
C1406 C 0.17835 0.47961 0.79585 0.0
C1407 C 0.1724 0.49978 0.78083 0.0
C1408 C 0.1633 0.46437 0.78221 0.0
C1409 C 0.16629 0.44256 0.7942 0.0
C1410 C 0.17979 0.43128 0.75307 0.0
C1411 C 0.18246 0.41065 0.76576 0.0
C1412 C 0.17165 0.4012 0.81913 0.0
C1413 C 0.15801 0.4123 0.85967 0.0
C1414 C 0.15521 0.43287 0.84703 0.0
C1415 C 0.09336 0.50922 0.63239 0.0
C1416 C 0.07657 0.50179 0.66972 0.0
C1417 C 0.11336 0.50512 0.65439 0.0
C1418 C 0.11723 0.49375 0.71517 0.0
C1419 C 0.10046 0.48618 0.75175 0.0
C1420 C 0.0806 0.49013 0.72956 0.0
C1421 C 0.13847 0.48952 0.74135 0.0
C1422 C 0.14396 0.4696 0.75649 0.0
C1423 C 0.15307 0.50478 0.75344 0.0
C1424 C 0.14829 0.52625 0.73944 0.0
C1425 C 0.13204 0.53578 0.77348 0.0
C1426 C 0.12669 0.55558 0.75632 0.0
C1427 C 0.13758 0.56603 0.70555 0.0
C1428 C 0.15394 0.55677 0.67228 0.0
C1429 C 0.15937 0.537 0.68934 0.0
H1430 H 0.13335 0.58131 0.69203 0.0
H1431 H 0.17381 0.38526 0.829 0.0
H1432 H 0.9448 0.80553 0.36332 0.0
H1433 H 0.9507 0.83857 0.41826 0.0
H1434 H 0.0138 0.83437 0.36627 0.0
H1435 H 1.00785 0.80123 0.31057 0.0
H1436 H 1.00602 0.85165 0.50299 0.0
H1437 H 0.97635 0.85641 0.27063 0.0
H1438 H 0.94801 0.85059 0.19039 0.0
H1439 H 0.91125 0.89197 0.30733 0.0
H1440 H 0.93848 0.89622 0.39362 0.0
H1441 H 0.04198 0.95046 0.53408 0.0
H1442 H 0.03143 0.91736 0.49235 0.0
H1443 H 0.96906 0.93463 0.51491 0.0
H1444 H 0.97976 0.96809 0.56044 0.0
H1445 H 0.97309 0.91127 0.39617 0.0
H1446 H 0.98514 0.89772 0.62713 0.0
H1447 H 0.99934 0.89625 0.74547 0.0
H1448 H 0.05455 0.8716 0.66407 0.0
H1449 H 0.04028 0.87226 0.54465 0.0
C1450 C 0.96013 0.81123 0.36585 0.0
C1451 C 0.9759 0.80018 0.33339 0.0
C1452 C 0.96344 0.83044 0.39651 0.0
C1453 C 0.98267 0.83957 0.39568 0.0
C1454 C 0.99874 0.828 0.36764 0.0
C1455 C 0.9954 0.80875 0.33655 0.0
C1456 C 0.98594 0.86123 0.42155 0.0
C1457 C 0.99908 0.86461 0.47823 0.0
C1458 C 0.97565 0.87847 0.39389 0.0
C1459 C 0.95956 0.8764 0.33974 0.0
C1460 C 0.96214 0.86398 0.28048 0.0
C1461 C 0.94623 0.86098 0.23356 0.0
C1462 C 0.92796 0.87117 0.24283 0.0
C1463 C 0.92543 0.88411 0.29998 0.0
C1464 C 0.94104 0.8866 0.34852 0.0
C1465 C 0.02593 0.94745 0.53046 0.0
C1466 C 0.01187 0.96243 0.55078 0.0
C1467 C 0.01987 0.92822 0.50641 0.0
C1468 C 0.99935 0.9229 0.50039 0.0
C1469 C 0.98504 0.93798 0.51867 0.0
C1470 C 0.99119 0.95731 0.54455 0.0
C1471 C 0.99355 0.90153 0.47638 0.0
C1472 C 0.98013 0.89825 0.42013 0.0
C1473 C 1.00216 0.8841 0.50755 0.0
C1474 C 0.0118 0.88536 0.57706 0.0
C1475 C 1.00045 0.89232 0.63431 0.0
C1476 C 1.00846 0.8915 0.70165 0.0
C1477 C 0.02793 0.88404 0.71242 0.0
C1478 C 0.03948 0.87742 0.65561 0.0
C1479 C 0.03139 0.87789 0.58807 0.0
H1480 H 0.03395 0.88314 0.76484 0.0
H1481 H 0.91574 0.86895 0.20597 0.0
H1482 H 0.72434 0.94494 0.36263 0.0
H1483 H 0.69202 0.94938 0.42313 0.0
H1484 H 0.70021 0.01389 0.41869 0.0
H1485 H 0.73237 0.00943 0.35643 0.0
H1486 H 0.67363 0.96653 0.53929 0.0
H1487 H 0.6623 0.0352 0.36483 0.0
H1488 H 0.67854 0.04681 0.25596 0.0
H1489 H 0.68463 0.98528 0.18651 0.0
H1490 H 0.66793 0.97349 0.2933 0.0
H1491 H 0.58562 0.03912 0.5794 0.0
H1492 H 0.61809 0.02772 0.53484 0.0
H1493 H 0.59336 0.9683 0.50068 0.0
H1494 H 0.56142 0.9791 0.55574 0.0
H1495 H 0.6274 1.00866 0.39695 0.0
H1496 H 0.61688 0.94674 0.54056 0.0
H1497 H 0.60586 0.9297 0.64809 0.0
H1498 H 0.64651 0.96628 0.76855 0.0
H1499 H 0.65636 0.98502 0.66244 0.0
C1500 C 0.71974 0.96008 0.37739 0.0
C1501 C 0.7314 0.9768 0.35545 0.0
C1502 C 0.70103 0.96262 0.41173 0.0
C1503 C 0.69314 0.982 0.42504 0.0
C1504 C 0.70557 0.99871 0.40856 0.0
C1505 C 0.72429 0.99616 0.37389 0.0
C1506 C 0.67117 0.98481 0.44711 0.0
C1507 C 0.66355 0.97569 0.50796 0.0
C1508 C 0.65744 0.99609 0.40584 0.0
C1509 C 0.66385 1.00352 0.33671 0.0
C1510 C 0.66657 0.02426 0.32522 0.0
C1511 C 0.67599 0.03085 0.26406 0.0
C1512 C 0.68261 0.01681 0.21421 0.0
C1513 C 0.67934 0.9962 0.22447 0.0
C1514 C 0.66983 0.98957 0.28511 0.0
C1515 C 0.58693 0.02353 0.5623 0.0
C1516 C 0.57028 0.0103 0.56882 0.0
C1517 C 0.60574 0.01699 0.5369 0.0
C1518 C 0.60888 0.99689 0.51595 0.0
C1519 C 0.59205 0.98367 0.51936 0.0
C1520 C 0.57325 0.99009 0.54784 0.0
C1521 C 0.62972 0.99062 0.49008 0.0
C1522 C 0.63733 0.99937 0.4284 0.0
C1523 C 0.64313 0.97824 0.52941 0.0
C1524 C 0.63651 0.96797 0.59395 0.0
C1525 C 0.62271 0.95187 0.59038 0.0
C1526 C 0.61674 0.94188 0.6511 0.0
C1527 C 0.62517 0.94729 0.71541 0.0
C1528 C 0.6396 0.96264 0.71899 0.0
C1529 C 0.64518 0.9731 0.65871 0.0
H1530 H 0.62077 0.93937 0.7623 0.0
H1531 H 0.69034 0.0219 0.16776 0.0
H1532 H 0.52849 0.74146 0.35069 0.0
H1533 H 0.52204 0.7095 0.41272 0.0
H1534 H 0.58535 0.69496 0.40227 0.0
H1535 H 0.59195 0.72698 0.34344 0.0
H1536 H 0.55486 0.66442 0.34039 0.0
H1537 H 0.57464 0.70039 0.54628 0.0
H1538 H 0.57366 0.72844 0.63148 0.0
H1539 H 0.51172 0.71487 0.67799 0.0
H1540 H 0.51221 0.68691 0.59196 0.0
H1541 H 0.55795 0.57045 0.52172 0.0
H1542 H 0.56501 0.60432 0.47832 0.0
H1543 H 0.50897 0.62565 0.56653 0.0
H1544 H 0.50204 0.59184 0.61146 0.0
H1545 H 0.53585 0.6531 0.58756 0.0
H1546 H 0.51749 0.61488 0.38111 0.0
H1547 H 0.52039 0.58662 0.29714 0.0
H1548 H 0.58159 0.60362 0.25237 0.0
H1549 H 0.57915 0.63184 0.33677 0.0
C1550 C 0.54114 0.7319 0.36445 0.0
C1551 C 0.56078 0.73702 0.34242 0.0
C1552 C 0.53741 0.71343 0.39902 0.0
C1553 C 0.55317 0.69956 0.41146 0.0
C1554 C 0.57288 0.7052 0.39299 0.0
C1555 C 0.57665 0.7237 0.35993 0.0
C1556 C 0.54914 0.67872 0.43956 0.0
C1557 C 0.5508 0.66194 0.39455 0.0
C1558 C 0.54374 0.67527 0.50998 0.0
C1559 C 0.54331 0.69194 0.56152 0.0
C1560 C 0.56073 0.70359 0.57389 0.0
C1561 C 0.56029 0.71938 0.62246 0.0
C1562 C 0.54256 0.72355 0.65918 0.0
C1563 C 0.52535 0.7117 0.64875 0.0
C1564 C 0.5257 0.69589 0.6001 0.0
C1565 C 0.54705 0.58228 0.53194 0.0
C1566 C 0.52926 0.57813 0.56975 0.0
C1567 C 0.55108 0.60177 0.50653 0.0
C1568 C 0.53734 0.61775 0.5172 0.0
C1569 C 0.51985 0.61375 0.55673 0.0
C1570 C 0.51588 0.59429 0.58261 0.0
C1571 C 0.54121 0.6386 0.48826 0.0
C1572 C 0.53964 0.65546 0.53311 0.0
C1573 C 0.54685 0.64205 0.4176 0.0
C1574 C 0.5482 0.62532 0.3659 0.0
C1575 C 0.5316 0.61251 0.35368 0.0
C1576 C 0.53317 0.59651 0.30601 0.0
C1577 C 0.55121 0.59324 0.26988 0.0
C1578 C 0.56766 0.6061 0.28076 0.0
C1579 C 0.56619 0.62212 0.3284 0.0
H1580 H 0.55241 0.58078 0.23324 0.0
H1581 H 0.54216 0.73603 0.69535 0.0
H1582 H 0.79099 0.58595 0.39423 0.0
H1583 H 0.82386 0.57922 0.44824 0.0
H1584 H 0.82767 0.52293 0.33474 0.0
H1585 H 0.7949 0.52989 0.28001 0.0
H1586 H 0.84153 0.55483 0.52844 0.0
H1587 H 0.86948 0.50985 0.2935 0.0
H1588 H 0.87079 0.51021 0.16445 0.0
H1589 H 0.86464 0.57483 0.16688 0.0
H1590 H 0.86231 0.57464 0.29524 0.0
H1591 H 0.93805 0.51291 0.63309 0.0
H1592 H 0.90327 0.51866 0.59323 0.0
H1593 H 0.92544 0.55726 0.42983 0.0
H1594 H 0.95988 0.55119 0.46809 0.0
H1595 H 0.89857 0.5353 0.3751 0.0
H1596 H 0.90116 0.57305 0.58619 0.0
H1597 H 0.90375 0.58161 0.71137 0.0
H1598 H 0.85297 0.54342 0.75549 0.0
H1599 H 0.85084 0.5336 0.63167 0.0
C1600 C 0.79837 0.57167 0.3833 0.0
C1601 C 0.78975 0.55816 0.3343 0.0
C1602 C 0.81749 0.56796 0.41331 0.0
C1603 C 0.82887 0.55072 0.39484 0.0
C1604 C 0.81973 0.53662 0.34914 0.0
C1605 C 0.80055 0.5403 0.31932 0.0
C1606 C 0.85012 0.54762 0.42313 0.0
C1607 C 0.85394 0.55032 0.49488 0.0
C1608 C 0.8668 0.54242 0.38013 0.0
C1609 C 0.86533 0.54217 0.30338 0.0
C1610 C 0.86794 0.52403 0.26609 0.0
C1611 C 0.86883 0.5242 0.19316 0.0
C1612 C 0.86761 0.54249 0.15737 0.0
C1613 C 0.86525 0.56062 0.19441 0.0
C1614 C 0.86385 0.56047 0.26713 0.0
C1615 C 0.93557 0.52271 0.58879 0.0
C1616 C 0.95218 0.53167 0.55447 0.0
C1617 C 0.91551 0.5261 0.5661 0.0
C1618 C 0.91133 0.53858 0.50832 0.0
C1619 C 0.9279 0.54753 0.47435 0.0
C1620 C 0.94785 0.54416 0.49694 0.0
C1621 C 0.88999 0.54186 0.48126 0.0
C1622 C 0.88616 0.53934 0.40942 0.0
C1623 C 0.87348 0.54776 0.52428 0.0
C1624 C 0.876 0.55237 0.59956 0.0
C1625 C 0.89087 0.56606 0.62276 0.0
C1626 C 0.89224 0.57115 0.69352 0.0
C1627 C 0.87851 0.56304 0.74101 0.0
C1628 C 0.8636 0.54963 0.71844 0.0
C1629 C 0.86245 0.54413 0.6482 0.0
H1630 H 0.87933 0.56708 0.79536 0.0
H1631 H 0.8685 0.5426 0.10096 0.0
loop_
_geom_bond_atom_site_label_1
_geom_bond_atom_site_label_2
_geom_bond_distance
_geom_bond_site_symmetry_2
_ccdc_geom_bond_type
H0 C5 0.930 . S
H1 C8 0.930 . S
H2 C10 0.930 . S
H3 C4 1.016 . S
C4 H3 1.016 . S
C4 N11 1.286 . S
C5 H0 0.930 . S
C5 C6 1.397 . S
C5 C7 1.361 . S
C6 C5 1.397 . S
C6 C10 1.390 . S
C7 C5 1.361 . S
C7 C8 1.393 . S
C7 N11 1.413 . S
C8 H1 0.930 . S
C8 C7 1.393 . S
C8 C9 1.399 . S
C9 C8 1.399 . S
C9 C10 1.381 . S
C10 H2 0.930 . S
C10 C6 1.390 . S
C10 C9 1.381 . S
N11 C4 1.286 . S
N11 C7 1.413 . S
H12 C17 0.930 . S
H13 C20 0.930 . S
H14 C22 0.930 . S
H15 C16 1.016 . S
C16 H15 1.016 . S
C16 N23 1.286 . S
C17 H12 0.930 . S
C17 C18 1.397 . S
C17 C19 1.361 . S
C18 C17 1.397 . S
C18 C22 1.390 . S
C19 C17 1.361 . S
C19 C20 1.393 . S
C19 N23 1.413 . S
C20 H13 0.930 . S
C20 C19 1.393 . S
C20 C21 1.399 . S
C21 C20 1.399 . S
C21 C22 1.381 . S
C22 H14 0.930 . S
C22 C18 1.390 . S
C22 C21 1.381 . S
N23 C16 1.286 . S
N23 C19 1.413 . S
H24 C29 0.930 . S
H25 C32 0.930 . S
H26 C34 0.930 . S
H27 C28 1.016 . S
C28 H27 1.016 . S
C28 N35 1.286 . S
C29 H24 0.930 . S
C29 C30 1.397 . S
C29 C31 1.361 . S
C30 C29 1.397 . S
C30 C34 1.390 . S
C31 C29 1.361 . S
C31 C32 1.393 . S
C31 N35 1.413 . S
C32 H25 0.930 . S
C32 C31 1.393 . S
C32 C33 1.399 . S
C33 C32 1.399 . S
C33 C34 1.381 . S
C34 H26 0.930 . S
C34 C30 1.390 . S
C34 C33 1.381 . S
N35 C28 1.286 . S
N35 C31 1.413 . S
H36 C41 0.930 . S
H37 C44 0.930 . S
H38 C46 0.930 . S
H39 C40 1.016 . S
C40 H39 1.016 . S
C40 N47 1.286 . S
C41 H36 0.930 . S
C41 C42 1.397 . S
C41 C43 1.361 . S
C42 C41 1.397 . S
C42 C46 1.390 . S
C43 C41 1.361 . S
C43 C44 1.393 . S
C43 N47 1.413 . S
C44 H37 0.930 . S
C44 C43 1.393 . S
C44 C45 1.399 . S
C45 C44 1.399 . S
C45 C46 1.381 . S
C46 H38 0.930 . S
C46 C42 1.390 . S
C46 C45 1.381 . S
N47 C40 1.286 . S
N47 C43 1.413 . S
H48 C53 0.930 . S
H49 C56 0.930 . S
H50 C58 0.930 . S
H51 C52 1.016 . S
C52 H51 1.016 . S
C52 N59 1.286 . S
C53 H48 0.930 . S
C53 C54 1.397 . S
C53 C55 1.361 1_556 S
C54 C53 1.397 . S
C54 C58 1.390 . S
C55 C53 1.361 1_554 S
C55 C56 1.393 . S
C55 N59 1.413 . S
C56 H49 0.930 . S
C56 C55 1.393 . S
C56 C57 1.399 . S
C57 C56 1.399 . S
C57 C58 1.381 1_554 S
C58 H50 0.930 . S
C58 C54 1.390 . S
C58 C57 1.381 1_556 S
N59 C52 1.286 . S
N59 C55 1.413 . S
H60 C65 0.930 . S
H61 C68 0.930 . S
H62 C70 0.930 . S
H63 C64 1.016 . S
C64 H63 1.016 . S
C64 N71 1.286 . S
C65 H60 0.930 . S
C65 C66 1.397 . S
C65 C67 1.361 1_556 S
C66 C65 1.397 . S
C66 C70 1.390 . S
C67 C65 1.361 1_554 S
C67 C68 1.393 . S
C67 N71 1.413 . S
C68 H61 0.930 . S
C68 C67 1.393 . S
C68 C69 1.399 . S
C69 C68 1.399 . S
C69 C70 1.381 1_554 S
C70 H62 0.930 . S
C70 C66 1.390 . S
C70 C69 1.381 1_556 S
N71 C64 1.286 . S
N71 C67 1.413 . S
H72 C77 0.930 . S
H73 C80 0.930 . S
H74 C82 0.930 . S
H75 C76 1.016 . S
C76 H75 1.016 . S
C76 N83 1.286 . S
C77 H72 0.930 . S
C77 C78 1.397 . S
C77 C79 1.361 1_556 S
C78 C77 1.397 . S
C78 C82 1.390 . S
C79 C77 1.361 1_554 S
C79 C80 1.393 . S
C79 N83 1.413 . S
C80 H73 0.930 . S
C80 C79 1.393 . S
C80 C81 1.399 . S
C81 C80 1.399 . S
C81 C82 1.381 1_554 S
C82 H74 0.930 . S
C82 C78 1.390 . S
C82 C81 1.381 1_556 S
N83 C76 1.286 . S
N83 C79 1.413 . S
H84 C89 0.930 . S
H85 C92 0.930 . S
H86 C94 0.930 . S
H87 C88 1.016 . S
C88 H87 1.016 . S
C88 N95 1.286 . S
C89 H84 0.930 . S
C89 C90 1.397 . S
C89 C91 1.361 1_556 S
C90 C89 1.397 . S
C90 C94 1.390 . S
C91 C89 1.361 1_554 S
C91 C92 1.393 . S
C91 N95 1.413 . S
C92 H85 0.930 . S
C92 C91 1.393 . S
C92 C93 1.399 . S
C93 C92 1.399 . S
C93 C94 1.381 1_554 S
C94 H86 0.930 . S
C94 C90 1.390 . S
C94 C93 1.381 1_556 S
N95 C88 1.286 . S
N95 C91 1.413 . S
Eu96 N127 2.657 1_565 S
Eu96 N134 2.601 1_565 S
Eu96 O140 2.558 . S
Eu96 O141 2.612 1_455 S
Eu96 O143 2.347 1_455 S
Eu96 O144 2.563 . S
Eu96 O145 2.419 . S
Eu96 O147 2.380 1_565 S
Eu96 O148 2.432 . S
Eu96 C160 2.848 . S
C97 C100 1.410 1_545 S
C97 C101 1.411 . S
C97 N104 1.377 . S
C98 C100 1.450 . S
C98 C102 1.423 . S
C98 C110 1.392 . S
C99 C101 1.420 1_565 S
C99 C102 1.351 . S
C99 H122 0.931 . S
C100 C97 1.410 1_565 S
C100 C98 1.450 . S
C100 N108 1.353 1_565 S
C101 C97 1.411 . S
C101 C99 1.420 1_545 S
C101 C106 1.395 . S
C102 C98 1.423 . S
C102 C99 1.351 . S
C102 H114 0.930 . S
C103 C105 1.400 . S
C103 C106 1.386 . S
C103 H115 0.930 . S
N104 C97 1.377 . S
N104 C105 1.321 . S
N104 Eu107 2.609 . S
C105 C103 1.400 . S
C105 N104 1.321 . S
C105 H112 0.930 . S
C106 C101 1.395 . S
C106 C103 1.386 . S
C106 H125 0.930 . S
Eu107 N104 2.609 . S
Eu107 N108 2.657 . S
Eu107 O141 2.380 1_545 S
Eu107 O142 2.432 . S
Eu107 O146 2.558 . S
Eu107 O147 2.612 1_655 S
Eu107 O149 2.339 1_655 S
Eu107 O150 2.563 1_655 S
Eu107 O151 2.420 1_655 S
Eu107 C171 2.848 . S
N108 C100 1.353 1_545 S
N108 Eu107 2.657 . S
N108 C109 1.334 1_645 S
C109 N108 1.334 1_465 S
C109 C111 1.413 . S
C109 H116 0.929 . S
C110 C98 1.392 . S
C110 C111 1.367 1_655 S
C110 H118 0.930 . S
C111 C109 1.413 . S
C111 C110 1.367 1_455 S
C111 H113 0.930 . S
H112 C105 0.930 . S
H113 C111 0.930 . S
H114 C102 0.930 . S
H115 C103 0.930 . S
H116 C109 0.929 . S
H117 C131 0.930 1_655 S
H118 C110 0.930 . S
H119 C137 0.930 . S
H120 C128 0.929 1_655 S
H121 C135 0.930 . S
H122 C99 0.931 . S
H123 C129 0.930 . S
H124 C162 0.930 . S
H125 C106 0.930 . S
H126 C161 0.931 . S
N127 Eu96 2.657 1_545 S
N127 C128 1.334 . S
N127 C132 1.362 . S
C128 H120 0.929 1_455 S
C128 N127 1.334 . S
C128 C131 1.413 . S
C129 H123 0.930 . S
C129 C130 1.392 . S
C129 C131 1.367 . S
C130 C129 1.392 . S
C130 C132 1.420 . S
C130 C162 1.423 . S
C131 H117 0.930 1_455 S
C131 C128 1.413 . S
C131 C129 1.367 . S
C132 N127 1.362 . S
C132 C130 1.420 . S
C132 C136 1.429 . S
H133 C138 0.930 . S
N134 Eu96 2.601 1_545 S
N134 C136 1.395 . S
N134 C137 1.307 1_545 S
C135 H121 0.930 . S
C135 C137 1.400 . S
C135 C138 1.386 1_565 S
C136 C132 1.429 . S
C136 N134 1.395 . S
C136 C139 1.411 . S
C137 H119 0.930 . S
C137 N134 1.307 1_565 S
C137 C135 1.400 . S
C138 H133 0.930 . S
C138 C135 1.386 1_545 S
C138 C139 1.395 . S
C139 C136 1.411 . S
C139 C138 1.395 . S
C139 C161 1.420 . S
O140 Eu96 2.558 . S
O140 C160 1.257 . S
O141 Eu96 2.612 1_655 S
O141 Eu107 2.380 1_565 S
O141 C152 1.276 . S
O142 Eu107 2.432 . S
O142 C159 1.264 . S
O143 Eu96 2.347 1_655 S
O143 C159 1.243 1_565 S
O144 Eu96 2.563 . S
O144 C152 1.235 1_455 S
O145 Eu96 2.419 . S
O145 C160 1.249 . S
O146 Eu107 2.558 . S
O146 C171 1.257 . S
O147 Eu96 2.380 1_545 S
O147 Eu107 2.612 1_455 S
O147 C163 1.276 . S
O148 Eu96 2.432 . S
O148 C170 1.264 1_565 S
O149 Eu107 2.339 1_455 S
O149 C170 1.254 . S
O150 Eu107 2.563 1_455 S
O150 C163 1.235 . S
O151 Eu107 2.420 1_455 S
O151 C171 1.252 1_455 S
C152 O141 1.276 . S
C152 O144 1.235 1_655 S
C153 C155 1.393 . S
C153 C157 1.395 . S
C153 C160 1.492 . S
C154 C155 1.392 . S
C154 C156 1.386 . S
C155 C153 1.393 . S
C155 C154 1.392 . S
C155 H172 0.930 1_455 S
C156 C154 1.386 . S
C156 C158 1.395 . S
C156 H173 0.930 . S
C157 C153 1.395 . S
C157 C158 1.379 . S
C157 H174 0.930 . S
C158 C156 1.395 . S
C158 C157 1.379 . S
C158 H175 0.930 . S
C159 O142 1.264 . S
C159 O143 1.243 1_545 S
C160 Eu96 2.848 . S
C160 O140 1.257 . S
C160 O145 1.249 . S
C160 C153 1.492 . S
C161 H126 0.931 . S
C161 C139 1.420 . S
C161 C162 1.351 . S
C162 H124 0.930 . S
C162 C130 1.423 . S
C162 C161 1.351 . S
C163 O147 1.276 . S
C163 O150 1.235 . S
C164 C165 1.364 1_655 S
C164 C168 1.395 . S
C164 C171 1.492 . S
C165 C164 1.364 1_455 S
C165 C166 1.391 1_455 S
C165 H176 0.962 . S
C166 C165 1.391 1_655 S
C166 C167 1.402 . S
C167 C166 1.402 . S
C167 C169 1.395 . S
C167 H177 0.930 . S
C168 C164 1.395 . S
C168 C169 1.379 . S
C168 H178 0.930 . S
C169 C167 1.395 . S
C169 C168 1.379 . S
C169 H179 0.930 . S
C170 O148 1.264 1_545 S
C170 O149 1.254 . S
C171 Eu107 2.848 . S
C171 O146 1.257 . S
C171 O151 1.252 1_655 S
C171 C164 1.492 . S
H172 C155 0.930 1_655 S
H173 C156 0.930 . S
H174 C157 0.930 . S
H175 C158 0.930 . S
H176 C165 0.962 . S
H177 C167 0.930 . S
H178 C168 0.930 . S
H179 C169 0.930 . S
Eu180 N211 2.657 . S
Eu180 N218 2.609 . S
Eu180 O224 2.558 . S
Eu180 O225 2.615 1_545 S
Eu180 O227 2.339 1_545 S
Eu180 O228 2.563 . S
Eu180 O229 2.419 . S
Eu180 O231 2.380 . S
Eu180 O232 2.432 . S
Eu180 C244 2.848 . S
C181 C184 1.429 . S
C181 C185 1.411 . S
C181 N188 1.377 . S
C182 C184 1.420 . S
C182 C186 1.423 . S
C182 C194 1.392 . S
C183 C185 1.420 . S
C183 C186 1.351 . S
C183 H206 0.931 . S
C184 C181 1.429 . S
C184 C182 1.420 . S
C184 N192 1.362 . S
C185 C181 1.411 . S
C185 C183 1.420 . S
C185 C190 1.395 . S
C186 C182 1.423 . S
C186 C183 1.351 . S
C186 H198 0.930 . S
C187 C189 1.400 . S
C187 C190 1.386 . S
C187 H199 0.930 . S
N188 C181 1.377 . S
N188 C189 1.321 . S
N188 Eu191 2.609 . S
C189 C187 1.400 . S
C189 N188 1.321 . S
C189 H196 0.930 . S
C190 C185 1.395 . S
C190 C187 1.386 . S
C190 H209 0.930 . S
Eu191 N188 2.609 . S
Eu191 N192 2.657 . S
Eu191 O225 2.380 . S
Eu191 O226 2.432 . S
Eu191 O230 2.558 . S
Eu191 O231 2.612 1_565 S
Eu191 O233 2.339 1_565 S
Eu191 O234 2.563 1_565 S
Eu191 O235 2.419 1_565 S
Eu191 C255 2.848 . S
N192 C184 1.362 . S
N192 Eu191 2.657 . S
N192 C193 1.334 1_565 S
C193 N192 1.334 1_545 S
C193 C195 1.413 . S
C193 H200 0.929 . S
C194 C182 1.392 . S
C194 C195 1.367 1_565 S
C194 H202 0.930 . S
C195 C193 1.413 . S
C195 C194 1.367 1_545 S
C195 H197 0.930 . S
H196 C189 0.930 . S
H197 C195 0.930 . S
H198 C186 0.930 . S
H199 C187 0.930 . S
H200 C193 0.929 . S
H201 C215 0.930 1_565 S
H202 C194 0.930 . S
H203 C221 0.930 . S
H204 C212 0.929 1_565 S
H205 C219 0.930 . S
H206 C183 0.931 . S
H207 C213 0.930 . S
H208 C246 0.930 . S
H209 C190 0.930 . S
H210 C245 0.931 . S
N211 Eu180 2.657 . S
N211 C212 1.334 . S
N211 C216 1.362 . S
C212 H204 0.929 1_545 S
C212 N211 1.334 . S
C212 C215 1.413 . S
C213 H207 0.930 . S
C213 C214 1.392 . S
C213 C215 1.367 . S
C214 C213 1.392 . S
C214 C216 1.420 . S
C214 C246 1.423 . S
C215 H201 0.930 1_545 S
C215 C212 1.413 . S
C215 C213 1.367 . S
C216 N211 1.362 . S
C216 C214 1.420 . S
C216 C220 1.429 . S
H217 C222 0.930 . S
N218 Eu180 2.609 . S
N218 C220 1.377 . S
N218 C221 1.321 . S
C219 H205 0.930 . S
C219 C221 1.400 . S
C219 C222 1.386 . S
C220 C216 1.429 . S
C220 N218 1.377 . S
C220 C223 1.411 . S
C221 H203 0.930 . S
C221 N218 1.321 . S
C221 C219 1.400 . S
C222 H217 0.930 . S
C222 C219 1.386 . S
C222 C223 1.395 . S
C223 C220 1.411 . S
C223 C222 1.395 . S
C223 C245 1.420 . S
O224 Eu180 2.558 . S
O224 C244 1.257 . S
O225 Eu180 2.615 1_565 S
O225 Eu191 2.380 . S
O225 C236 1.275 1_565 S
O226 Eu191 2.432 . S
O226 C243 1.264 . S
O227 Eu180 2.339 1_565 S
O227 C243 1.254 . S
O228 Eu180 2.563 . S
O228 C236 1.250 . S
O229 Eu180 2.419 . S
O229 C244 1.249 . S
O230 Eu191 2.558 . S
O230 C255 1.257 . S
O231 Eu180 2.380 . S
O231 Eu191 2.612 1_545 S
O231 C247 1.276 . S
O232 Eu180 2.432 . S
O232 C254 1.264 . S
O233 Eu191 2.339 1_545 S
O233 C254 1.254 . S
O234 Eu191 2.563 1_545 S
O234 C247 1.235 . S
O235 Eu191 2.419 1_545 S
O235 C255 1.249 1_545 S
C236 O225 1.275 1_545 S
C236 O228 1.250 . S
C237 C239 1.393 . S
C237 C241 1.395 . S
C237 C244 1.492 . S
C238 C239 1.392 . S
C238 C240 1.386 . S
C239 C237 1.393 . S
C239 C238 1.392 . S
C239 H256 0.930 . S
C240 C238 1.386 . S
C240 C242 1.395 . S
C240 H257 0.930 . S
C241 C237 1.395 . S
C241 C242 1.379 . S
C241 H258 0.930 . S
C242 C240 1.395 . S
C242 C241 1.379 . S
C242 H259 0.930 . S
C243 O226 1.264 . S
C243 O227 1.254 . S
C244 Eu180 2.848 . S
C244 O224 1.257 . S
C244 O229 1.249 . S
C244 C237 1.492 . S
C245 H210 0.931 . S
C245 C223 1.420 . S
C245 C246 1.351 . S
C246 H208 0.930 . S
C246 C214 1.423 . S
C246 C245 1.351 . S
C247 O231 1.276 . S
C247 O234 1.235 . S
C248 C249 1.393 1_565 S
C248 C252 1.395 . S
C248 C255 1.492 . S
C249 C248 1.393 1_545 S
C249 C250 1.392 . S
C249 H260 0.930 . S
C250 C249 1.392 . S
C250 C251 1.386 1_545 S
C251 C250 1.386 1_565 S
C251 C253 1.395 . S
C251 H261 0.930 . S
C252 C248 1.395 . S
C252 C253 1.379 . S
C252 H262 0.930 . S
C253 C251 1.395 . S
C253 C252 1.379 . S
C253 H263 0.930 . S
C254 O232 1.264 . S
C254 O233 1.254 . S
C255 Eu191 2.848 . S
C255 O230 1.257 . S
C255 O235 1.249 1_565 S
C255 C248 1.492 . S
H256 C239 0.930 . S
H257 C240 0.930 . S
H258 C241 0.930 . S
H259 C242 0.930 . S
H260 C249 0.930 . S
H261 C251 0.930 . S
H262 C252 0.930 . S
H263 C253 0.930 . S
Eu264 N295 2.657 . S
Eu264 N302 2.609 . S
Eu264 O308 2.558 . S
Eu264 O309 2.612 . S
Eu264 O311 2.339 . S
Eu264 O312 2.563 . S
Eu264 O313 2.419 . S
Eu264 O315 2.380 . S
Eu264 O316 2.432 . S
Eu264 C328 2.848 . S
C265 C268 1.429 . S
C265 C269 1.411 . S
C265 N272 1.377 . S
C266 C268 1.420 . S
C266 C270 1.423 . S
C266 C278 1.392 . S
C267 C269 1.420 . S
C267 C270 1.351 . S
C267 H290 0.931 . S
C268 C265 1.429 . S
C268 C266 1.420 . S
C268 N276 1.362 . S
C269 C265 1.411 . S
C269 C267 1.420 . S
C269 C274 1.395 . S
C270 C266 1.423 . S
C270 C267 1.351 . S
C270 H282 0.930 . S
C271 C273 1.400 . S
C271 C274 1.386 . S
C271 H283 0.930 . S
N272 C265 1.377 . S
N272 C273 1.321 . S
N272 Eu275 2.609 . S
C273 C271 1.400 . S
C273 N272 1.321 . S
C273 H280 0.930 . S
C274 C269 1.395 . S
C274 C271 1.386 . S
C274 H293 0.930 . S
Eu275 N272 2.609 . S
Eu275 N276 2.657 . S
Eu275 O309 2.380 . S
Eu275 O310 2.432 . S
Eu275 O314 2.558 . S
Eu275 O315 2.612 . S
Eu275 O317 2.339 . S
Eu275 O318 2.563 . S
Eu275 O319 2.419 . S
Eu275 C339 2.848 . S
N276 C268 1.362 . S
N276 Eu275 2.657 . S
N276 C277 1.334 . S
C277 N276 1.334 . S
C277 C279 1.413 . S
C277 H284 0.929 . S
C278 C266 1.392 . S
C278 C279 1.367 . S
C278 H286 0.930 . S
C279 C277 1.413 . S
C279 C278 1.367 . S
C279 H281 0.930 . S
H280 C273 0.930 . S
H281 C279 0.930 . S
H282 C270 0.930 . S
H283 C271 0.930 . S
H284 C277 0.929 . S
H285 C299 0.930 . S
H286 C278 0.930 . S
H287 C305 0.930 . S
H288 C296 0.929 . S
H289 C303 0.930 . S
H290 C267 0.931 . S
H291 C297 0.930 . S
H292 C330 0.930 . S
H293 C274 0.930 . S
H294 C329 0.931 . S
N295 Eu264 2.657 . S
N295 C296 1.334 . S
N295 C300 1.362 . S
C296 H288 0.929 . S
C296 N295 1.334 . S
C296 C299 1.413 . S
C297 H291 0.930 . S
C297 C298 1.392 . S
C297 C299 1.367 . S
C298 C297 1.392 . S
C298 C300 1.420 . S
C298 C330 1.423 . S
C299 H285 0.930 . S
C299 C296 1.413 . S
C299 C297 1.367 . S
C300 N295 1.362 . S
C300 C298 1.420 . S
C300 C304 1.429 . S
H301 C306 0.930 . S
N302 Eu264 2.609 . S
N302 C304 1.377 . S
N302 C305 1.321 . S
C303 H289 0.930 . S
C303 C305 1.400 . S
C303 C306 1.386 . S
C304 C300 1.429 . S
C304 N302 1.377 . S
C304 C307 1.411 . S
C305 H287 0.930 . S
C305 N302 1.321 . S
C305 C303 1.400 . S
C306 H301 0.930 . S
C306 C303 1.386 . S
C306 C307 1.395 . S
C307 C304 1.411 . S
C307 C306 1.395 . S
C307 C329 1.420 . S
O308 Eu264 2.558 . S
O308 C328 1.257 . S
O309 Eu264 2.612 . S
O309 Eu275 2.380 . S
O309 C320 1.276 . S
O310 Eu275 2.432 . S
O310 C327 1.264 . S
O311 Eu264 2.339 . S
O311 C327 1.254 . S
O312 Eu264 2.563 . S
O312 C320 1.235 . S
O313 Eu264 2.419 . S
O313 C328 1.249 . S
O314 Eu275 2.558 . S
O314 C339 1.257 . S
O315 Eu264 2.380 . S
O315 Eu275 2.612 . S
O315 C331 1.276 . S
O316 Eu264 2.432 . S
O316 C338 1.264 . S
O317 Eu275 2.339 . S
O317 C338 1.254 . S
O318 Eu275 2.563 . S
O318 C331 1.235 . S
O319 Eu275 2.419 . S
O319 C339 1.249 . S
C320 O309 1.276 . S
C320 O312 1.235 . S
C321 C323 1.393 . S
C321 C325 1.395 . S
C321 C328 1.492 . S
C322 C323 1.392 . S
C322 C324 1.386 . S
C323 C321 1.393 . S
C323 C322 1.392 . S
C323 H340 0.930 . S
C324 C322 1.386 . S
C324 C326 1.395 . S
C324 H341 0.930 . S
C325 C321 1.395 . S
C325 C326 1.379 . S
C325 H342 0.930 . S
C326 C324 1.395 . S
C326 C325 1.379 . S
C326 H343 0.930 . S
C327 O310 1.264 . S
C327 O311 1.254 . S
C328 Eu264 2.848 . S
C328 O308 1.257 . S
C328 O313 1.249 . S
C328 C321 1.492 . S
C329 H294 0.931 . S
C329 C307 1.420 . S
C329 C330 1.351 . S
C330 H292 0.930 . S
C330 C298 1.423 . S
C330 C329 1.351 . S
C331 O315 1.276 . S
C331 O318 1.235 . S
C332 C333 1.393 . S
C332 C336 1.395 . S
C332 C339 1.492 . S
C333 C332 1.393 . S
C333 C334 1.392 . S
C333 H344 0.930 . S
C334 C333 1.392 . S
C334 C335 1.386 . S
C335 C334 1.386 . S
C335 C337 1.395 . S
C335 H345 0.930 . S
C336 C332 1.395 . S
C336 C337 1.379 . S
C336 H346 0.930 . S
C337 C335 1.395 . S
C337 C336 1.379 . S
C337 H347 0.930 1_556 S
C338 O316 1.264 . S
C338 O317 1.254 . S
C339 Eu275 2.848 . S
C339 O314 1.257 . S
C339 O319 1.249 . S
C339 C332 1.492 . S
H340 C323 0.930 . S
H341 C324 0.930 . S
H342 C325 0.930 . S
H343 C326 0.930 . S
H344 C333 0.930 . S
H345 C335 0.930 . S
H346 C336 0.930 . S
H347 C337 0.930 1_554 S
Eu348 N379 2.657 . S
Eu348 N386 2.609 . S
Eu348 O392 2.558 . S
Eu348 O393 2.612 . S
Eu348 O395 2.339 . S
Eu348 O396 2.563 . S
Eu348 O397 2.419 . S
Eu348 O399 2.380 . S
Eu348 O400 2.432 1_455 S
Eu348 C412 2.848 . S
C349 C352 1.429 . S
C349 C353 1.411 . S
C349 N356 1.377 . S
C350 C352 1.420 . S
C350 C354 1.423 . S
C350 C362 1.392 . S
C351 C353 1.420 . S
C351 C354 1.351 . S
C351 H374 0.931 . S
C352 C349 1.429 . S
C352 C350 1.420 . S
C352 N360 1.362 . S
C353 C349 1.411 . S
C353 C351 1.420 . S
C353 C358 1.395 1_655 S
C354 C350 1.423 . S
C354 C351 1.351 . S
C354 H366 0.930 . S
C355 C357 1.400 . S
C355 C358 1.386 . S
C355 H367 0.930 . S
N356 C349 1.377 . S
N356 C357 1.321 1_655 S
N356 Eu359 2.609 . S
C357 C355 1.400 . S
C357 N356 1.321 1_455 S
C357 H364 0.930 . S
C358 C353 1.395 1_455 S
C358 C355 1.386 . S
C358 H377 0.930 . S
Eu359 N356 2.609 . S
Eu359 N360 2.657 . S
Eu359 O393 2.380 1_655 S
Eu359 O394 2.432 1_655 S
Eu359 O398 2.558 . S
Eu359 O399 2.612 1_655 S
Eu359 O401 2.339 . S
Eu359 O402 2.563 . S
Eu359 O403 2.419 . S
Eu359 C423 2.848 . S
N360 C352 1.362 . S
N360 Eu359 2.657 . S
N360 C361 1.334 . S
C361 N360 1.334 . S
C361 C363 1.413 . S
C361 H368 0.929 . S
C362 C350 1.392 . S
C362 C363 1.367 . S
C362 H370 0.930 . S
C363 C361 1.413 . S
C363 C362 1.367 . S
C363 H365 0.930 . S
H364 C357 0.930 . S
H365 C363 0.930 . S
H366 C354 0.930 . S
H367 C355 0.930 . S
H368 C361 0.929 . S
H369 C383 0.930 . S
H370 C362 0.930 . S
H371 C389 0.930 1_655 S
H372 C380 0.929 . S
H373 C387 0.930 1_655 S
H374 C351 0.931 . S
H375 C381 0.930 . S
H376 C414 0.930 . S
H377 C358 0.930 . S
H378 C413 0.931 . S
N379 Eu348 2.657 . S
N379 C380 1.334 . S
N379 C384 1.362 . S
C380 H372 0.929 . S
C380 N379 1.334 . S
C380 C383 1.413 . S
C381 H375 0.930 . S
C381 C382 1.392 . S
C381 C383 1.367 . S
C382 C381 1.392 . S
C382 C384 1.420 . S
C382 C414 1.423 . S
C383 H369 0.930 . S
C383 C380 1.413 . S
C383 C381 1.367 . S
C384 N379 1.362 . S
C384 C382 1.420 . S
C384 C388 1.429 . S
H385 C390 0.930 . S
N386 Eu348 2.609 . S
N386 C388 1.377 . S
N386 C389 1.321 . S
C387 H373 0.930 1_455 S
C387 C389 1.400 . S
C387 C390 1.386 . S
C388 C384 1.429 . S
C388 N386 1.377 . S
C388 C391 1.411 . S
C389 H371 0.930 1_455 S
C389 N386 1.321 . S
C389 C387 1.400 . S
C390 H385 0.930 . S
C390 C387 1.386 . S
C390 C391 1.395 . S
C391 C388 1.411 . S
C391 C390 1.395 . S
C391 C413 1.420 . S
O392 Eu348 2.558 . S
O392 C412 1.257 . S
O393 Eu348 2.612 . S
O393 Eu359 2.380 1_455 S
O393 C404 1.276 . S
O394 Eu359 2.432 1_455 S
O394 C411 1.264 . S
O395 Eu348 2.339 . S
O395 C411 1.254 . S
O396 Eu348 2.563 . S
O396 C404 1.235 . S
O397 Eu348 2.419 . S
O397 C412 1.249 . S
O398 Eu359 2.558 . S
O398 C423 1.257 . S
O399 Eu348 2.380 . S
O399 Eu359 2.612 1_455 S
O399 C415 1.276 1_455 S
O400 Eu348 2.432 1_655 S
O400 C422 1.264 . S
O401 Eu359 2.339 . S
O401 C422 1.254 . S
O402 Eu359 2.563 . S
O402 C415 1.235 . S
O403 Eu359 2.419 . S
O403 C423 1.249 . S
C404 O393 1.276 . S
C404 O396 1.235 . S
C405 C407 1.393 . S
C405 C409 1.395 . S
C405 C412 1.492 . S
C406 C407 1.392 . S
C406 C408 1.386 . S
C407 C405 1.393 . S
C407 C406 1.392 . S
C407 H424 0.930 . S
C408 C406 1.386 . S
C408 C410 1.395 . S
C408 H425 0.930 . S
C409 C405 1.395 . S
C409 C410 1.379 . S
C409 H426 0.930 . S
C410 C408 1.395 . S
C410 C409 1.379 . S
C410 H427 0.930 . S
C411 O394 1.264 . S
C411 O395 1.254 . S
C412 Eu348 2.848 . S
C412 O392 1.257 . S
C412 O397 1.249 . S
C412 C405 1.492 . S
C413 H378 0.931 . S
C413 C391 1.420 . S
C413 C414 1.351 . S
C414 H376 0.930 . S
C414 C382 1.423 . S
C414 C413 1.351 . S
C415 O399 1.276 1_655 S
C415 O402 1.235 . S
C416 C417 1.393 . S
C416 C420 1.395 . S
C416 C423 1.492 . S
C417 C416 1.393 . S
C417 C418 1.392 . S
C417 H428 0.930 . S
C418 C417 1.392 . S
C418 C419 1.386 . S
C419 C418 1.386 . S
C419 C421 1.395 . S
C419 H429 0.930 . S
C420 C416 1.395 . S
C420 C421 1.379 . S
C420 H430 0.930 . S
C421 C419 1.395 . S
C421 C420 1.379 . S
C421 H431 0.930 1_556 S
C422 O400 1.264 . S
C422 O401 1.254 . S
C423 Eu359 2.848 . S
C423 O398 1.257 . S
C423 O403 1.249 . S
C423 C416 1.492 . S
H424 C407 0.930 . S
H425 C408 0.930 . S
H426 C409 0.930 . S
H427 C410 0.930 . S
H428 C417 0.930 . S
H429 C419 0.930 . S
H430 C420 0.930 . S
H431 C421 0.930 1_554 S
H432 C450 0.951 . S
H433 C452 0.951 . S
H434 C454 0.950 . S
H435 C455 0.950 . S
H436 C457 0.950 . S
H437 C460 0.950 . S
H438 C461 0.950 . S
H439 C463 0.950 . S
H440 C464 0.950 . S
H441 C465 0.951 . S
H442 C467 0.951 . S
H443 C469 0.950 . S
H444 C470 0.950 . S
H445 C472 0.950 . S
H446 C475 0.950 . S
H447 C476 0.950 . S
H448 C478 0.950 . S
H449 C479 0.950 . S
C450 H432 0.951 . S
C450 C451 1.366 . S
C450 C452 1.388 . S
C451 C450 1.366 . S
C451 C455 1.385 . S
C452 H433 0.951 . S
C452 C450 1.388 . S
C452 C453 1.366 . S
C453 C452 1.366 . S
C453 C454 1.414 . S
C453 C456 1.499 . S
C454 H434 0.950 . S
C454 C453 1.414 . S
C454 C455 1.374 . S
C455 H435 0.950 . S
C455 C451 1.385 . S
C455 C454 1.374 . S
C456 C453 1.499 . S
C456 C457 1.373 . S
C456 C458 1.389 . S
C457 H436 0.950 . S
C457 C456 1.373 . S
C457 C473 1.377 . S
C458 C456 1.389 . S
C458 C459 1.524 . S
C458 C472 1.377 . S
C459 C458 1.524 . S
C459 C460 1.397 . S
C459 C464 1.363 . S
C460 H437 0.950 . S
C460 C459 1.397 . S
C460 C461 1.334 . S
C461 H438 0.950 . S
C461 C460 1.334 . S
C461 C462 1.287 . S
C462 C461 1.287 . S
C462 C463 1.524 . S
C462 H481 0.913 . S
C463 H439 0.950 . S
C463 C462 1.524 . S
C463 C464 1.415 . S
C464 H440 0.950 . S
C464 C459 1.363 . S
C464 C463 1.415 . S
C465 H441 0.951 . S
C465 C466 1.366 . S
C465 C467 1.388 . S
C466 C465 1.366 . S
C466 C470 1.385 . S
C467 H442 0.951 . S
C467 C465 1.388 . S
C467 C468 1.366 . S
C468 C467 1.366 . S
C468 C469 1.414 . S
C468 C471 1.499 . S
C469 H443 0.950 . S
C469 C468 1.414 . S
C469 C470 1.374 . S
C470 H444 0.950 . S
C470 C466 1.385 . S
C470 C469 1.374 . S
C471 C468 1.499 . S
C471 C472 1.373 . S
C471 C473 1.389 . S
C472 H445 0.950 . S
C472 C458 1.377 . S
C472 C471 1.373 . S
C473 C457 1.377 . S
C473 C471 1.389 . S
C473 C474 1.524 1_545 S
C474 C473 1.524 1_565 S
C474 C475 1.397 . S
C474 C479 1.363 . S
C475 H446 0.950 . S
C475 C474 1.397 . S
C475 C476 1.334 . S
C476 H447 0.950 . S
C476 C475 1.334 . S
C476 C477 1.287 . S
C477 C476 1.287 . S
C477 C478 1.524 . S
C477 H480 0.999 . S
C478 H448 0.950 . S
C478 C477 1.524 . S
C478 C479 1.415 . S
C479 H449 0.950 . S
C479 C474 1.363 . S
C479 C478 1.415 . S
H480 C477 0.999 . S
H481 C462 0.913 . S
H482 C500 0.951 . S
H483 C502 0.951 . S
H484 C504 0.950 . S
H485 C505 0.950 . S
H486 C507 0.950 . S
H487 C510 0.950 . S
H488 C511 0.950 . S
H489 C513 0.950 . S
H490 C514 0.950 . S
H491 C515 0.951 . S
H492 C517 0.951 . S
H493 C519 0.950 . S
H494 C520 0.950 . S
H495 C522 0.950 . S
H496 C525 0.950 . S
H497 C526 0.950 . S
H498 C528 0.950 . S
H499 C529 0.950 . S
C500 H482 0.951 . S
C500 C501 1.366 . S
C500 C502 1.388 . S
C501 C500 1.366 . S
C501 C505 1.385 . S
C502 H483 0.951 . S
C502 C500 1.388 . S
C502 C503 1.366 . S
C503 C502 1.366 . S
C503 C504 1.414 . S
C503 C506 1.499 . S
C504 H484 0.950 . S
C504 C503 1.414 . S
C504 C505 1.374 . S
C505 H485 0.950 . S
C505 C501 1.385 . S
C505 C504 1.374 . S
C506 C503 1.499 . S
C506 C507 1.373 . S
C506 C508 1.389 . S
C507 H486 0.950 . S
C507 C506 1.373 . S
C507 C523 1.377 . S
C508 C506 1.389 . S
C508 C509 1.524 . S
C508 C522 1.377 . S
C509 C508 1.524 . S
C509 C510 1.397 . S
C509 C514 1.363 . S
C510 H487 0.950 . S
C510 C509 1.397 . S
C510 C511 1.334 . S
C511 H488 0.950 . S
C511 C510 1.334 . S
C511 C512 1.287 . S
C512 C511 1.287 . S
C512 C513 1.524 . S
C512 H531 0.913 . S
C513 H489 0.950 . S
C513 C512 1.524 . S
C513 C514 1.415 . S
C514 H490 0.950 . S
C514 C509 1.363 . S
C514 C513 1.415 . S
C515 H491 0.951 . S
C515 C516 1.366 . S
C515 C517 1.388 . S
C516 C515 1.366 . S
C516 C520 1.385 . S
C517 H492 0.951 . S
C517 C515 1.388 . S
C517 C518 1.366 . S
C518 C517 1.366 . S
C518 C519 1.414 . S
C518 C521 1.499 . S
C519 H493 0.950 . S
C519 C518 1.414 . S
C519 C520 1.374 . S
C520 H494 0.950 . S
C520 C516 1.385 . S
C520 C519 1.374 . S
C521 C518 1.499 . S
C521 C522 1.373 . S
C521 C523 1.389 . S
C522 H495 0.950 . S
C522 C508 1.377 . S
C522 C521 1.373 . S
C523 C507 1.377 . S
C523 C521 1.389 . S
C523 C524 1.524 . S
C524 C523 1.524 . S
C524 C525 1.397 . S
C524 C529 1.363 . S
C525 H496 0.950 . S
C525 C524 1.397 . S
C525 C526 1.334 . S
C526 H497 0.950 . S
C526 C525 1.334 . S
C526 C527 1.287 . S
C527 C526 1.287 . S
C527 C528 1.524 . S
C527 H530 0.999 . S
C528 H498 0.950 . S
C528 C527 1.524 . S
C528 C529 1.415 . S
C529 H499 0.950 . S
C529 C524 1.363 . S
C529 C528 1.415 . S
H530 C527 0.999 . S
H531 C512 0.913 . S
H532 C550 0.951 . S
H533 C552 0.951 . S
H534 C554 0.950 . S
H535 C555 0.950 . S
H536 C557 0.950 . S
H537 C560 0.950 . S
H538 C561 0.950 . S
H539 C563 0.950 . S
H540 C564 0.950 . S
H541 C565 0.951 . S
H542 C567 0.951 . S
H543 C569 0.950 . S
H544 C570 0.950 . S
H545 C572 0.950 . S
H546 C575 0.950 . S
H547 C576 0.950 . S
H548 C578 0.950 . S
H549 C579 0.950 . S
C550 H532 0.951 . S
C550 C551 1.366 . S
C550 C552 1.388 . S
C551 C550 1.366 . S
C551 C555 1.385 . S
C552 H533 0.951 . S
C552 C550 1.388 . S
C552 C553 1.366 . S
C553 C552 1.366 . S
C553 C554 1.414 . S
C553 C556 1.499 . S
C554 H534 0.950 . S
C554 C553 1.414 . S
C554 C555 1.374 . S
C555 H535 0.950 . S
C555 C551 1.385 . S
C555 C554 1.374 . S
C556 C553 1.499 . S
C556 C557 1.373 . S
C556 C558 1.389 . S
C557 H536 0.950 . S
C557 C556 1.373 . S
C557 C573 1.377 . S
C558 C556 1.389 . S
C558 C559 1.524 . S
C558 C572 1.377 . S
C559 C558 1.524 . S
C559 C560 1.397 . S
C559 C564 1.363 . S
C560 H537 0.950 . S
C560 C559 1.397 . S
C560 C561 1.334 . S
C561 H538 0.950 . S
C561 C560 1.334 . S
C561 C562 1.287 . S
C562 C561 1.287 . S
C562 C563 1.524 . S
C562 H581 0.913 . S
C563 H539 0.950 . S
C563 C562 1.524 . S
C563 C564 1.415 . S
C564 H540 0.950 . S
C564 C559 1.363 . S
C564 C563 1.415 . S
C565 H541 0.951 . S
C565 C566 1.366 . S
C565 C567 1.388 . S
C566 C565 1.366 . S
C566 C570 1.385 . S
C567 H542 0.951 . S
C567 C565 1.388 . S
C567 C568 1.366 . S
C568 C567 1.366 . S
C568 C569 1.414 . S
C568 C571 1.499 . S
C569 H543 0.950 . S
C569 C568 1.414 . S
C569 C570 1.374 . S
C570 H544 0.950 . S
C570 C566 1.385 . S
C570 C569 1.374 . S
C571 C568 1.499 . S
C571 C572 1.373 . S
C571 C573 1.389 . S
C572 H545 0.950 . S
C572 C558 1.377 . S
C572 C571 1.373 . S
C573 C557 1.377 . S
C573 C571 1.389 . S
C573 C574 1.524 . S
C574 C573 1.524 . S
C574 C575 1.397 . S
C574 C579 1.363 . S
C575 H546 0.950 . S
C575 C574 1.397 . S
C575 C576 1.334 . S
C576 H547 0.950 . S
C576 C575 1.334 . S
C576 C577 1.287 . S
C577 C576 1.287 . S
C577 C578 1.524 . S
C577 H580 0.999 . S
C578 H548 0.950 . S
C578 C577 1.524 . S
C578 C579 1.415 . S
C579 H549 0.950 . S
C579 C574 1.363 . S
C579 C578 1.415 . S
H580 C577 0.999 . S
H581 C562 0.913 . S
H582 C600 0.951 . S
H583 C602 0.951 . S
H584 C604 0.950 . S
H585 C605 0.950 . S
H586 C607 0.950 . S
H587 C610 0.950 . S
H588 C611 0.950 . S
H589 C613 0.950 1_655 S
H590 C614 0.950 . S
H591 C615 0.951 . S
H592 C617 0.951 . S
H593 C619 0.977 . S
H594 C620 0.950 1_655 S
H595 C622 0.950 . S
H596 C625 0.950 . S
H597 C626 0.950 . S
H598 C628 0.950 . S
H599 C629 0.950 . S
C600 H582 0.951 . S
C600 C601 1.366 . S
C600 C602 1.388 . S
C601 C600 1.366 . S
C601 C605 1.385 . S
C602 H583 0.951 . S
C602 C600 1.388 . S
C602 C603 1.366 . S
C603 C602 1.366 . S
C603 C604 1.414 . S
C603 C606 1.499 . S
C604 H584 0.950 . S
C604 C603 1.414 . S
C604 C605 1.374 . S
C605 H585 0.950 . S
C605 C601 1.385 . S
C605 C604 1.374 . S
C606 C603 1.499 . S
C606 C607 1.373 . S
C606 C608 1.389 . S
C607 H586 0.950 . S
C607 C606 1.373 . S
C607 C623 1.377 . S
C608 C606 1.389 . S
C608 C609 1.524 . S
C608 C622 1.377 . S
C609 C608 1.524 . S
C609 C610 1.397 . S
C609 C614 1.363 . S
C610 H587 0.950 . S
C610 C609 1.397 . S
C610 C611 1.334 . S
C611 H588 0.950 . S
C611 C610 1.334 . S
C611 C612 1.287 . S
C612 C611 1.287 . S
C612 C613 1.524 . S
C612 H631 0.913 1_554 S
C613 H589 0.950 1_455 S
C613 C612 1.524 . S
C613 C614 1.415 . S
C614 H590 0.950 . S
C614 C609 1.363 . S
C614 C613 1.415 . S
C615 H591 0.951 . S
C615 C616 1.366 . S
C615 C617 1.388 . S
C616 C615 1.366 . S
C616 C620 1.385 . S
C617 H592 0.951 . S
C617 C615 1.388 . S
C617 C618 1.366 . S
C618 C617 1.366 . S
C618 C619 1.414 . S
C618 C621 1.499 . S
C619 H593 0.977 . S
C619 C618 1.414 . S
C619 C620 1.374 . S
C620 H594 0.950 1_455 S
C620 C616 1.385 . S
C620 C619 1.374 . S
C621 C618 1.499 . S
C621 C622 1.373 . S
C621 C623 1.389 . S
C622 H595 0.950 . S
C622 C608 1.377 . S
C622 C621 1.373 . S
C623 C607 1.377 . S
C623 C621 1.389 . S
C623 C624 1.524 . S
C624 C623 1.524 . S
C624 C625 1.397 . S
C624 C629 1.363 . S
C625 H596 0.950 . S
C625 C624 1.397 . S
C625 C626 1.334 . S
C626 H597 0.950 . S
C626 C625 1.334 . S
C626 C627 1.287 . S
C627 C626 1.287 . S
C627 C628 1.524 . S
C627 H630 0.999 . S
C628 H598 0.950 . S
C628 C627 1.524 . S
C628 C629 1.415 . S
C629 H599 0.950 . S
C629 C624 1.363 . S
C629 C628 1.415 . S
H630 C627 0.999 . S
H631 C612 0.913 1_556 S
H632 C650 0.951 . S
H633 C652 0.951 1_556 S
H634 C654 0.950 . S
H635 C655 0.950 . S
H636 C657 0.951 1_554 S
H637 C660 0.950 1_554 S
H638 C661 0.950 1_554 S
H639 C663 0.950 . S
H640 C664 0.950 . S
H641 C665 0.951 1_545 S
H642 C667 0.951 . S
H643 C669 0.950 . S
H644 C670 0.950 . S
H645 C672 0.950 . S
H646 C675 0.950 . S
H647 C676 0.950 . S
H648 C678 0.959 . S
H649 C679 0.950 1_554 S
C650 H632 0.951 . S
C650 C651 1.366 . S
C650 C652 1.388 . S
C651 C650 1.366 . S
C651 C655 1.385 . S
C652 H633 0.951 1_554 S
C652 C650 1.388 . S
C652 C653 1.366 . S
C653 C652 1.366 . S
C653 C654 1.414 . S
C653 C656 1.499 1_554 S
C654 H634 0.950 . S
C654 C653 1.414 . S
C654 C655 1.374 . S
C655 H635 0.950 . S
C655 C651 1.385 . S
C655 C654 1.374 . S
C656 C653 1.499 1_556 S
C656 C657 1.373 . S
C656 C658 1.389 . S
C657 H636 0.951 1_556 S
C657 C656 1.373 . S
C657 C673 1.377 . S
C658 C656 1.389 . S
C658 C659 1.524 . S
C658 C672 1.377 . S
C659 C658 1.524 . S
C659 C660 1.397 . S
C659 C664 1.363 . S
C660 H637 0.950 1_556 S
C660 C659 1.397 . S
C660 C661 1.334 . S
C661 H638 0.950 1_556 S
C661 C660 1.334 . S
C661 C662 1.287 . S
C662 C661 1.287 . S
C662 C663 1.524 . S
C662 H681 0.913 . S
C663 H639 0.950 . S
C663 C662 1.524 . S
C663 C664 1.415 . S
C664 H640 0.950 . S
C664 C659 1.363 . S
C664 C663 1.415 . S
C665 H641 0.951 1_565 S
C665 C666 1.366 . S
C665 C667 1.388 . S
C666 C665 1.366 . S
C666 C670 1.385 . S
C667 H642 0.951 . S
C667 C665 1.388 . S
C667 C668 1.366 . S
C668 C667 1.366 . S
C668 C669 1.414 . S
C668 C671 1.499 . S
C669 H643 0.950 . S
C669 C668 1.414 . S
C669 C670 1.374 . S
C670 H644 0.950 . S
C670 C666 1.385 . S
C670 C669 1.374 . S
C671 C668 1.499 . S
C671 C672 1.373 . S
C671 C673 1.389 . S
C672 H645 0.950 . S
C672 C658 1.377 . S
C672 C671 1.373 . S
C673 C657 1.377 . S
C673 C671 1.389 . S
C673 C674 1.524 1_565 S
C674 C673 1.524 1_545 S
C674 C675 1.397 . S
C674 C679 1.363 . S
C675 H646 0.950 . S
C675 C674 1.397 . S
C675 C676 1.334 . S
C676 H647 0.950 . S
C676 C675 1.334 . S
C676 C677 1.287 . S
C677 C676 1.287 . S
C677 C678 1.513 1_556 S
C677 H680 0.999 . S
C678 H648 0.959 . S
C678 C677 1.513 1_554 S
C678 C679 1.414 1_554 S
C679 H649 0.950 1_556 S
C679 C674 1.363 . S
C679 C678 1.414 1_556 S
H680 C677 0.999 . S
H681 C662 0.913 . S
H682 C700 0.951 . S
H683 C702 0.951 . S
H684 C704 0.950 . S
H685 C705 0.950 . S
H686 C707 0.950 . S
H687 C710 0.950 . S
H688 C711 0.950 . S
H689 C713 0.950 . S
H690 C714 0.950 . S
H691 C715 0.951 . S
H692 C717 0.951 . S
H693 C719 0.950 . S
H694 C720 0.950 . S
H695 C722 0.950 . S
H696 C725 0.950 . S
H697 C726 0.950 . S
H698 C728 0.950 . S
H699 C729 0.950 . S
C700 H682 0.951 . S
C700 C701 1.366 . S
C700 C702 1.388 . S
C701 C700 1.366 . S
C701 C705 1.385 . S
C702 H683 0.951 . S
C702 C700 1.388 . S
C702 C703 1.366 . S
C703 C702 1.366 . S
C703 C704 1.414 . S
C703 C706 1.499 1_554 S
C704 H684 0.950 . S
C704 C703 1.414 . S
C704 C705 1.374 . S
C705 H685 0.950 . S
C705 C701 1.385 . S
C705 C704 1.374 . S
C706 C703 1.499 1_556 S
C706 C707 1.373 . S
C706 C708 1.389 . S
C707 H686 0.950 . S
C707 C706 1.373 . S
C707 C723 1.377 . S
C708 C706 1.389 . S
C708 C709 1.524 1_556 S
C708 C722 1.377 . S
C709 C708 1.524 1_554 S
C709 C710 1.397 . S
C709 C714 1.363 . S
C710 H687 0.950 . S
C710 C709 1.397 . S
C710 C711 1.334 . S
C711 H688 0.950 . S
C711 C710 1.334 . S
C711 C712 1.287 . S
C712 C711 1.287 . S
C712 C713 1.524 . S
C712 H731 0.913 . S
C713 H689 0.950 . S
C713 C712 1.524 . S
C713 C714 1.415 . S
C714 H690 0.950 . S
C714 C709 1.363 . S
C714 C713 1.415 . S
C715 H691 0.951 . S
C715 C716 1.366 . S
C715 C717 1.388 . S
C716 C715 1.366 . S
C716 C720 1.385 . S
C717 H692 0.951 . S
C717 C715 1.388 . S
C717 C718 1.366 . S
C718 C717 1.366 . S
C718 C719 1.414 . S
C718 C721 1.499 . S
C719 H693 0.950 . S
C719 C718 1.414 . S
C719 C720 1.374 . S
C720 H694 0.950 . S
C720 C716 1.385 . S
C720 C719 1.374 . S
C721 C718 1.499 . S
C721 C722 1.373 . S
C721 C723 1.389 . S
C722 H695 0.950 . S
C722 C708 1.377 . S
C722 C721 1.373 . S
C723 C707 1.377 . S
C723 C721 1.389 . S
C723 C724 1.524 . S
C724 C723 1.524 . S
C724 C725 1.397 . S
C724 C729 1.363 . S
C725 H696 0.950 . S
C725 C724 1.397 . S
C725 C726 1.334 . S
C726 H697 0.950 . S
C726 C725 1.334 . S
C726 C727 1.287 . S
C727 C726 1.287 . S
C727 C728 1.524 . S
C727 H730 0.999 . S
C728 H698 0.950 . S
C728 C727 1.524 . S
C728 C729 1.415 . S
C729 H699 0.950 . S
C729 C724 1.363 . S
C729 C728 1.415 . S
H730 C727 0.999 . S
H731 C712 0.913 . S
H732 C750 0.951 . S
H733 C752 0.951 . S
H734 C754 0.950 1_556 S
H735 C755 0.950 . S
H736 C757 0.950 . S
H737 C760 0.950 . S
H738 C761 0.950 . S
H739 C763 0.950 . S
H740 C764 0.950 . S
H741 C765 0.951 . S
H742 C767 0.951 . S
H743 C769 0.950 . S
H744 C770 0.950 . S
H745 C772 0.950 . S
H746 C775 0.950 . S
H747 C776 0.950 . S
H748 C778 0.950 . S
H749 C779 0.950 . S
C750 H732 0.951 . S
C750 C751 1.366 . S
C750 C752 1.388 . S
C751 C750 1.366 . S
C751 C755 1.385 . S
C752 H733 0.951 . S
C752 C750 1.388 . S
C752 C753 1.366 . S
C753 C752 1.366 . S
C753 C754 1.414 . S
C753 C756 1.499 1_554 S
C754 H734 0.950 1_554 S
C754 C753 1.414 . S
C754 C755 1.374 . S
C755 H735 0.950 . S
C755 C751 1.385 . S
C755 C754 1.374 . S
C756 C753 1.499 1_556 S
C756 C757 1.373 . S
C756 C758 1.389 . S
C757 H736 0.950 . S
C757 C756 1.373 . S
C757 C773 1.377 . S
C758 C756 1.389 . S
C758 C759 1.524 1_556 S
C758 C772 1.377 . S
C759 C758 1.524 1_554 S
C759 C760 1.397 1_554 S
C759 C764 1.363 . S
C760 H737 0.950 . S
C760 C759 1.397 1_556 S
C760 C761 1.334 1_556 S
C761 H738 0.950 . S
C761 C760 1.334 1_554 S
C761 C762 1.287 . S
C762 C761 1.287 . S
C762 C763 1.524 . S
C762 H781 0.913 . S
C763 H739 0.950 . S
C763 C762 1.524 . S
C763 C764 1.415 . S
C764 H740 0.950 . S
C764 C759 1.363 . S
C764 C763 1.415 . S
C765 H741 0.951 . S
C765 C766 1.366 . S
C765 C767 1.388 . S
C766 C765 1.366 . S
C766 C770 1.385 . S
C767 H742 0.951 . S
C767 C765 1.388 . S
C767 C768 1.366 . S
C768 C767 1.366 . S
C768 C769 1.414 . S
C768 C771 1.499 . S
C769 H743 0.950 . S
C769 C768 1.414 . S
C769 C770 1.374 . S
C770 H744 0.950 . S
C770 C766 1.385 . S
C770 C769 1.374 . S
C771 C768 1.499 . S
C771 C772 1.373 . S
C771 C773 1.389 . S
C772 H745 0.950 . S
C772 C758 1.377 . S
C772 C771 1.373 . S
C773 C757 1.377 . S
C773 C771 1.389 . S
C773 C774 1.524 . S
C774 C773 1.524 . S
C774 C775 1.397 . S
C774 C779 1.363 . S
C775 H746 0.950 . S
C775 C774 1.397 . S
C775 C776 1.334 . S
C776 H747 0.950 . S
C776 C775 1.334 . S
C776 C777 1.287 . S
C777 C776 1.287 . S
C777 C778 1.524 . S
C777 H780 0.999 . S
C778 H748 0.950 . S
C778 C777 1.524 . S
C778 C779 1.415 . S
C779 H749 0.950 . S
C779 C774 1.363 . S
C779 C778 1.415 . S
H780 C777 0.999 . S
H781 C762 0.913 . S
H782 C800 0.951 . S
H783 C802 0.951 1_556 S
H784 C804 0.950 . S
H785 C805 0.950 . S
H786 C807 0.950 1_554 S
H787 C810 0.950 1_554 S
H788 C811 0.950 . S
H789 C813 0.950 . S
H790 C814 0.950 . S
H791 C815 0.951 . S
H792 C817 0.951 . S
H793 C819 0.950 . S
H794 C820 0.950 . S
H795 C822 0.950 . S
H796 C825 0.950 . S
H797 C826 0.950 . S
H798 C828 0.950 . S
H799 C829 0.950 . S
C800 H782 0.951 . S
C800 C801 1.366 . S
C800 C802 1.388 . S
C801 C800 1.366 . S
C801 C805 1.385 . S
C802 H783 0.951 1_554 S
C802 C800 1.388 . S
C802 C803 1.366 . S
C803 C802 1.366 . S
C803 C804 1.414 . S
C803 C806 1.499 1_554 S
C804 H784 0.950 . S
C804 C803 1.414 . S
C804 C805 1.374 . S
C805 H785 0.950 . S
C805 C801 1.385 . S
C805 C804 1.374 . S
C806 C803 1.499 1_556 S
C806 C807 1.373 . S
C806 C808 1.389 . S
C807 H786 0.950 1_556 S
C807 C806 1.373 . S
C807 C823 1.377 . S
C808 C806 1.389 . S
C808 C809 1.524 . S
C808 C822 1.377 . S
C809 C808 1.524 . S
C809 C810 1.397 . S
C809 C814 1.363 . S
C810 H787 0.950 1_556 S
C810 C809 1.397 . S
C810 C811 1.334 . S
C811 H788 0.950 . S
C811 C810 1.334 . S
C811 C812 1.287 . S
C812 C811 1.287 . S
C812 C813 1.524 . S
C812 H831 0.913 . S
C813 H789 0.950 . S
C813 C812 1.524 . S
C813 C814 1.415 . S
C814 H790 0.950 . S
C814 C809 1.363 . S
C814 C813 1.415 . S
C815 H791 0.951 . S
C815 C816 1.366 . S
C815 C817 1.388 . S
C816 C815 1.366 . S
C816 C820 1.385 . S
C817 H792 0.951 . S
C817 C815 1.388 . S
C817 C818 1.366 . S
C818 C817 1.366 . S
C818 C819 1.414 . S
C818 C821 1.499 . S
C819 H793 0.950 . S
C819 C818 1.414 . S
C819 C820 1.374 . S
C820 H794 0.950 . S
C820 C816 1.385 . S
C820 C819 1.374 . S
C821 C818 1.499 . S
C821 C822 1.373 . S
C821 C823 1.389 . S
C822 H795 0.950 . S
C822 C808 1.377 . S
C822 C821 1.373 . S
C823 C807 1.377 . S
C823 C821 1.389 . S
C823 C824 1.524 1_655 S
C824 C823 1.524 1_455 S
C824 C825 1.397 . S
C824 C829 1.363 1_556 S
C825 H796 0.950 . S
C825 C824 1.397 . S
C825 C826 1.334 . S
C826 H797 0.950 . S
C826 C825 1.334 . S
C826 C827 1.287 . S
C827 C826 1.287 . S
C827 C828 1.524 1_556 S
C827 H830 0.999 . S
C828 H798 0.950 . S
C828 C827 1.524 1_554 S
C828 C829 1.415 . S
C829 H799 0.950 . S
C829 C824 1.363 1_554 S
C829 C828 1.415 . S
H830 C827 0.999 . S
H831 C812 0.913 . S
H832 C850 0.951 . S
H833 C852 0.951 . S
H834 C854 0.950 . S
H835 C855 0.950 . S
H836 C857 0.950 . S
H837 C860 0.950 . S
H838 C861 0.950 . S
H839 C863 0.950 1_655 S
H840 C864 0.950 1_655 S
H841 C865 0.951 . S
H842 C867 0.951 . S
H843 C869 0.950 1_655 S
H844 C870 0.950 . S
H845 C872 0.950 . S
H846 C875 0.950 . S
H847 C876 0.950 . S
H848 C878 0.950 . S
H849 C879 0.950 . S
C850 H832 0.951 . S
C850 C851 1.366 . S
C850 C852 1.388 . S
C851 C850 1.366 . S
C851 C855 1.385 . S
C852 H833 0.951 . S
C852 C850 1.388 . S
C852 C853 1.366 . S
C853 C852 1.366 . S
C853 C854 1.414 . S
C853 C856 1.499 . S
C854 H834 0.950 . S
C854 C853 1.414 . S
C854 C855 1.374 . S
C855 H835 0.950 . S
C855 C851 1.385 . S
C855 C854 1.374 . S
C856 C853 1.499 . S
C856 C857 1.373 . S
C856 C858 1.389 . S
C857 H836 0.950 . S
C857 C856 1.373 . S
C857 C873 1.377 . S
C858 C856 1.389 . S
C858 C859 1.524 . S
C858 C872 1.377 . S
C859 C858 1.524 . S
C859 C860 1.397 . S
C859 C864 1.363 . S
C860 H837 0.950 . S
C860 C859 1.397 . S
C860 C861 1.334 . S
C861 H838 0.950 . S
C861 C860 1.334 . S
C861 C862 1.287 . S
C862 C861 1.287 . S
C862 C863 1.524 . S
C862 H881 0.913 . S
C863 H839 0.950 1_455 S
C863 C862 1.524 . S
C863 C864 1.415 . S
C864 H840 0.950 1_455 S
C864 C859 1.363 . S
C864 C863 1.415 . S
C865 H841 0.951 . S
C865 C866 1.366 . S
C865 C867 1.388 . S
C866 C865 1.366 . S
C866 C870 1.385 1_455 S
C867 H842 0.951 . S
C867 C865 1.388 . S
C867 C868 1.366 . S
C868 C867 1.366 . S
C868 C869 1.414 . S
C868 C871 1.499 . S
C869 H843 0.950 1_455 S
C869 C868 1.414 . S
C869 C870 1.374 1_455 S
C870 H844 0.950 . S
C870 C866 1.385 1_655 S
C870 C869 1.374 1_655 S
C871 C868 1.499 . S
C871 C872 1.373 . S
C871 C873 1.389 . S
C872 H845 0.950 . S
C872 C858 1.377 . S
C872 C871 1.373 . S
C873 C857 1.377 . S
C873 C871 1.389 . S
C873 C874 1.524 . S
C874 C873 1.524 . S
C874 C875 1.397 . S
C874 C879 1.363 . S
C875 H846 0.950 . S
C875 C874 1.397 . S
C875 C876 1.334 . S
C876 H847 0.950 . S
C876 C875 1.334 . S
C876 C877 1.287 . S
C877 C876 1.287 . S
C877 C878 1.524 . S
C877 H880 0.999 . S
C878 H848 0.950 . S
C878 C877 1.524 . S
C878 C879 1.415 . S
C879 H849 0.950 . S
C879 C874 1.363 . S
C879 C878 1.415 . S
H880 C877 0.999 . S
H881 C862 0.913 . S
H882 C900 0.951 . S
H883 C902 0.951 . S
H884 C904 0.950 . S
H885 C905 0.950 . S
H886 C907 0.950 . S
H887 C910 0.950 . S
H888 C911 0.950 . S
H889 C913 0.950 . S
H890 C914 0.950 . S
H891 C915 0.951 . S
H892 C917 0.951 . S
H893 C919 0.950 . S
H894 C920 0.950 1_565 S
H895 C922 0.950 . S
H896 C925 0.950 . S
H897 C926 0.950 . S
H898 C928 0.950 1_556 S
H899 C929 0.950 . S
C900 H882 0.951 . S
C900 C901 1.366 . S
C900 C902 1.388 . S
C901 C900 1.366 . S
C901 C905 1.385 . S
C902 H883 0.951 . S
C902 C900 1.388 . S
C902 C903 1.366 . S
C903 C902 1.366 . S
C903 C904 1.414 . S
C903 C906 1.499 . S
C904 H884 0.950 . S
C904 C903 1.414 . S
C904 C905 1.374 . S
C905 H885 0.950 . S
C905 C901 1.385 . S
C905 C904 1.374 . S
C906 C903 1.499 . S
C906 C907 1.373 . S
C906 C908 1.389 . S
C907 H886 0.950 . S
C907 C906 1.373 . S
C907 C923 1.377 . S
C908 C906 1.389 . S
C908 C909 1.524 . S
C908 C922 1.377 . S
C909 C908 1.524 . S
C909 C910 1.397 . S
C909 C914 1.363 . S
C910 H887 0.950 . S
C910 C909 1.397 . S
C910 C911 1.334 . S
C911 H888 0.950 . S
C911 C910 1.334 . S
C911 C912 1.287 . S
C912 C911 1.287 . S
C912 C913 1.524 . S
C912 H931 0.913 . S
C913 H889 0.950 . S
C913 C912 1.524 . S
C913 C914 1.415 . S
C914 H890 0.950 . S
C914 C909 1.363 . S
C914 C913 1.415 . S
C915 H891 0.951 . S
C915 C916 1.366 . S
C915 C917 1.388 . S
C916 C915 1.366 . S
C916 C920 1.385 . S
C917 H892 0.951 . S
C917 C915 1.388 . S
C917 C918 1.366 . S
C918 C917 1.366 . S
C918 C919 1.414 . S
C918 C921 1.499 . S
C919 H893 0.950 . S
C919 C918 1.414 . S
C919 C920 1.374 . S
C920 H894 0.950 1_545 S
C920 C916 1.385 . S
C920 C919 1.374 . S
C921 C918 1.499 . S
C921 C922 1.373 . S
C921 C923 1.389 . S
C922 H895 0.950 . S
C922 C908 1.377 . S
C922 C921 1.373 . S
C923 C907 1.377 . S
C923 C921 1.389 . S
C923 C924 1.524 . S
C924 C923 1.524 . S
C924 C925 1.397 1_545 S
C924 C929 1.363 . S
C925 H896 0.950 . S
C925 C924 1.397 1_565 S
C925 C926 1.334 . S
C926 H897 0.950 . S
C926 C925 1.334 . S
C926 C927 1.287 . S
C927 C926 1.287 . S
C927 C928 1.524 1_565 S
C927 H930 0.999 . S
C928 H898 0.950 1_554 S
C928 C927 1.524 1_545 S
C928 C929 1.415 . S
C929 H899 0.950 . S
C929 C924 1.363 . S
C929 C928 1.415 . S
H930 C927 0.999 . S
H931 C912 0.913 . S
H932 C950 0.951 1_556 S
H933 C952 0.951 . S
H934 C954 0.950 . S
H935 C955 0.950 . S
H936 C957 0.950 . S
H937 C960 0.950 . S
H938 C961 0.950 . S
H939 C963 0.950 . S
H940 C964 0.950 . S
H941 C965 0.951 . S
H942 C967 0.951 . S
H943 C969 0.950 . S
H944 C970 0.950 . S
H945 C972 0.950 . S
H946 C975 0.950 . S
H947 C976 0.950 . S
H948 C978 0.950 . S
H949 C979 0.950 . S
C950 H932 0.951 1_554 S
C950 C951 1.366 . S
C950 C952 1.388 . S
C951 C950 1.366 . S
C951 C955 1.385 . S
C952 H933 0.951 . S
C952 C950 1.388 . S
C952 C953 1.366 . S
C953 C952 1.366 . S
C953 C954 1.414 . S
C953 C956 1.499 . S
C954 H934 0.950 . S
C954 C953 1.414 . S
C954 C955 1.374 . S
C955 H935 0.950 . S
C955 C951 1.385 . S
C955 C954 1.374 . S
C956 C953 1.499 . S
C956 C957 1.373 . S
C956 C958 1.389 . S
C957 H936 0.950 . S
C957 C956 1.373 . S
C957 C973 1.377 . S
C958 C956 1.389 . S
C958 C959 1.524 . S
C958 C972 1.377 . S
C959 C958 1.524 . S
C959 C960 1.397 . S
C959 C964 1.363 . S
C960 H937 0.950 . S
C960 C959 1.397 . S
C960 C961 1.334 . S
C961 H938 0.950 . S
C961 C960 1.334 . S
C961 C962 1.287 1_554 S
C962 C961 1.287 1_556 S
C962 C963 1.524 . S
C962 H981 0.913 . S
C963 H939 0.950 . S
C963 C962 1.524 . S
C963 C964 1.415 1_556 S
C964 H940 0.950 . S
C964 C959 1.363 . S
C964 C963 1.415 1_554 S
C965 H941 0.951 . S
C965 C966 1.366 . S
C965 C967 1.388 . S
C966 C965 1.366 . S
C966 C970 1.385 . S
C967 H942 0.951 . S
C967 C965 1.388 . S
C967 C968 1.366 . S
C968 C967 1.366 . S
C968 C969 1.414 . S
C968 C971 1.499 . S
C969 H943 0.950 . S
C969 C968 1.414 . S
C969 C970 1.374 . S
C970 H944 0.950 . S
C970 C966 1.385 . S
C970 C969 1.374 . S
C971 C968 1.499 . S
C971 C972 1.373 . S
C971 C973 1.389 . S
C972 H945 0.950 . S
C972 C958 1.377 . S
C972 C971 1.373 . S
C973 C957 1.377 . S
C973 C971 1.389 . S
C973 C974 1.524 . S
C974 C973 1.524 . S
C974 C975 1.397 . S
C974 C979 1.363 . S
C975 H946 0.950 . S
C975 C974 1.397 . S
C975 C976 1.334 . S
C976 H947 0.950 . S
C976 C975 1.334 . S
C976 C977 1.287 . S
C977 C976 1.287 . S
C977 C978 1.524 . S
C977 H980 0.999 . S
C978 H948 0.950 . S
C978 C977 1.524 . S
C978 C979 1.415 . S
C979 H949 0.950 . S
C979 C974 1.363 . S
C979 C978 1.415 . S
H980 C977 0.999 . S
H981 C962 0.913 . S
H982 C1000 0.951 . S
H983 C1002 0.951 . S
H984 C1004 0.950 . S
H985 C1005 0.950 . S
H986 C1007 0.950 . S
H987 C1010 0.950 . S
H988 C1011 0.950 . S
H989 C1013 0.950 . S
H990 C1014 0.950 . S
H991 C1015 0.951 . S
H992 C1017 0.951 . S
H993 C1019 0.950 . S
H994 C1020 0.950 . S
H995 C1022 0.950 . S
H996 C1025 0.950 . S
H997 C1026 0.950 . S
H998 C1028 0.950 . S
H999 C1029 0.950 . S
C1000 H982 0.951 . S
C1000 C1001 1.366 . S
C1000 C1002 1.388 . S
C1001 C1000 1.366 . S
C1001 C1005 1.385 . S
C1002 H983 0.951 . S
C1002 C1000 1.388 . S
C1002 C1003 1.366 . S
C1003 C1002 1.366 . S
C1003 C1004 1.414 . S
C1003 C1006 1.499 . S
C1004 H984 0.950 . S
C1004 C1003 1.414 . S
C1004 C1005 1.374 . S
C1005 H985 0.950 . S
C1005 C1001 1.385 . S
C1005 C1004 1.374 . S
C1006 C1003 1.499 . S
C1006 C1007 1.373 . S
C1006 C1008 1.389 . S
C1007 H986 0.950 . S
C1007 C1006 1.373 . S
C1007 C1023 1.377 . S
C1008 C1006 1.389 . S
C1008 C1009 1.524 . S
C1008 C1022 1.377 . S
C1009 C1008 1.524 . S
C1009 C1010 1.397 . S
C1009 C1014 1.363 . S
C1010 H987 0.950 . S
C1010 C1009 1.397 . S
C1010 C1011 1.334 1_554 S
C1011 H988 0.950 . S
C1011 C1010 1.334 1_556 S
C1011 C1012 1.287 . S
C1012 C1011 1.287 . S
C1012 C1013 1.524 . S
C1012 H1031 0.913 . S
C1013 H989 0.950 . S
C1013 C1012 1.524 . S
C1013 C1014 1.415 1_556 S
C1014 H990 0.950 . S
C1014 C1009 1.363 . S
C1014 C1013 1.415 1_554 S
C1015 H991 0.951 . S
C1015 C1016 1.366 . S
C1015 C1017 1.388 . S
C1016 C1015 1.366 . S
C1016 C1020 1.385 . S
C1017 H992 0.951 . S
C1017 C1015 1.388 . S
C1017 C1018 1.366 . S
C1018 C1017 1.366 . S
C1018 C1019 1.414 . S
C1018 C1021 1.499 . S
C1019 H993 0.950 . S
C1019 C1018 1.414 . S
C1019 C1020 1.374 . S
C1020 H994 0.950 . S
C1020 C1016 1.385 . S
C1020 C1019 1.374 . S
C1021 C1018 1.499 . S
C1021 C1022 1.373 . S
C1021 C1023 1.389 . S
C1022 H995 0.950 . S
C1022 C1008 1.377 . S
C1022 C1021 1.373 . S
C1023 C1007 1.377 . S
C1023 C1021 1.389 . S
C1023 C1024 1.524 . S
C1024 C1023 1.524 . S
C1024 C1025 1.397 . S
C1024 C1029 1.363 . S
C1025 H996 0.950 . S
C1025 C1024 1.397 . S
C1025 C1026 1.334 . S
C1026 H997 0.950 . S
C1026 C1025 1.334 . S
C1026 C1027 1.287 . S
C1027 C1026 1.287 . S
C1027 C1028 1.524 . S
C1027 H1030 0.999 . S
C1028 H998 0.950 . S
C1028 C1027 1.524 . S
C1028 C1029 1.415 . S
C1029 H999 0.950 . S
C1029 C1024 1.363 . S
C1029 C1028 1.415 . S
H1030 C1027 0.999 . S
H1031 C1012 0.913 . S
H1032 C1050 0.951 . S
H1033 C1052 0.951 . S
H1034 C1054 0.950 . S
H1035 C1055 0.950 . S
H1036 C1057 0.950 . S
H1037 C1060 0.958 . S
H1038 C1061 0.950 . S
H1039 C1063 0.950 . S
H1040 C1064 0.950 . S
H1041 C1065 0.951 . S
H1042 C1067 0.951 1_554 S
H1043 C1069 0.950 . S
H1044 C1070 0.950 . S
H1045 C1072 0.950 . S
H1046 C1075 0.950 . S
H1047 C1076 0.950 . S
H1048 C1078 0.950 . S
H1049 C1079 0.950 . S
C1050 H1032 0.951 . S
C1050 C1051 1.366 . S
C1050 C1052 1.388 . S
C1051 C1050 1.366 . S
C1051 C1055 1.385 . S
C1052 H1033 0.951 . S
C1052 C1050 1.388 . S
C1052 C1053 1.366 . S
C1053 C1052 1.366 . S
C1053 C1054 1.414 . S
C1053 C1056 1.499 . S
C1054 H1034 0.950 . S
C1054 C1053 1.414 . S
C1054 C1055 1.374 . S
C1055 H1035 0.950 . S
C1055 C1051 1.385 . S
C1055 C1054 1.374 . S
C1056 C1053 1.499 . S
C1056 C1057 1.373 . S
C1056 C1058 1.389 1_554 S
C1057 H1036 0.950 . S
C1057 C1056 1.373 . S
C1057 C1073 1.377 . S
C1058 C1056 1.389 1_556 S
C1058 C1059 1.524 . S
C1058 C1072 1.377 . S
C1059 C1058 1.524 . S
C1059 C1060 1.397 . S
C1059 C1064 1.363 . S
C1060 H1037 0.958 . S
C1060 C1059 1.397 . S
C1060 C1061 1.334 . S
C1061 H1038 0.950 . S
C1061 C1060 1.334 . S
C1061 C1062 1.287 . S
C1062 C1061 1.287 . S
C1062 C1063 1.524 . S
C1062 H1081 0.913 . S
C1063 H1039 0.950 . S
C1063 C1062 1.524 . S
C1063 C1064 1.415 . S
C1064 H1040 0.950 . S
C1064 C1059 1.363 . S
C1064 C1063 1.415 . S
C1065 H1041 0.951 . S
C1065 C1066 1.366 . S
C1065 C1067 1.388 . S
C1066 C1065 1.366 . S
C1066 C1070 1.385 1_455 S
C1067 H1042 0.951 1_556 S
C1067 C1065 1.388 . S
C1067 C1068 1.366 1_455 S
C1068 C1067 1.366 1_655 S
C1068 C1069 1.414 . S
C1068 C1071 1.499 . S
C1069 H1043 0.950 . S
C1069 C1068 1.414 . S
C1069 C1070 1.374 . S
C1070 H1044 0.950 . S
C1070 C1066 1.385 1_655 S
C1070 C1069 1.374 . S
C1071 C1068 1.499 . S
C1071 C1072 1.373 . S
C1071 C1073 1.389 1_556 S
C1072 H1045 0.950 . S
C1072 C1058 1.377 . S
C1072 C1071 1.373 . S
C1073 C1057 1.377 . S
C1073 C1071 1.389 1_554 S
C1073 C1074 1.524 . S
C1074 C1073 1.524 . S
C1074 C1075 1.397 . S
C1074 C1079 1.363 . S
C1075 H1046 0.950 . S
C1075 C1074 1.397 . S
C1075 C1076 1.334 . S
C1076 H1047 0.950 . S
C1076 C1075 1.334 . S
C1076 C1077 1.287 . S
C1077 C1076 1.287 . S
C1077 C1078 1.524 . S
C1077 H1080 0.999 . S
C1078 H1048 0.950 . S
C1078 C1077 1.524 . S
C1078 C1079 1.415 . S
C1079 H1049 0.950 . S
C1079 C1074 1.363 . S
C1079 C1078 1.415 . S
H1080 C1077 0.999 . S
H1081 C1062 0.913 . S
H1082 C1100 0.951 . S
H1083 C1102 0.951 . S
H1084 C1104 0.950 . S
H1085 C1105 0.950 . S
H1086 C1107 0.950 . S
H1087 C1110 0.950 . S
H1088 C1111 0.950 . S
H1089 C1113 0.950 . S
H1090 C1114 0.950 . S
H1091 C1115 0.951 . S
H1092 C1117 0.951 . S
H1093 C1119 0.950 . S
H1094 C1120 0.950 . S
H1095 C1122 0.950 . S
H1096 C1125 0.950 . S
H1097 C1126 0.950 . S
H1098 C1128 0.950 . S
H1099 C1129 0.950 . S
C1100 H1082 0.951 . S
C1100 C1101 1.366 . S
C1100 C1102 1.388 . S
C1101 C1100 1.366 . S
C1101 C1105 1.385 . S
C1102 H1083 0.951 . S
C1102 C1100 1.388 . S
C1102 C1103 1.366 . S
C1103 C1102 1.366 . S
C1103 C1104 1.414 . S
C1103 C1106 1.499 . S
C1104 H1084 0.950 . S
C1104 C1103 1.414 . S
C1104 C1105 1.374 . S
C1105 H1085 0.950 . S
C1105 C1101 1.385 . S
C1105 C1104 1.374 . S
C1106 C1103 1.499 . S
C1106 C1107 1.373 . S
C1106 C1108 1.389 1_554 S
C1107 H1086 0.950 . S
C1107 C1106 1.373 . S
C1107 C1123 1.377 . S
C1108 C1106 1.389 1_556 S
C1108 C1109 1.524 . S
C1108 C1122 1.377 . S
C1109 C1108 1.524 . S
C1109 C1110 1.397 . S
C1109 C1114 1.363 . S
C1110 H1087 0.950 . S
C1110 C1109 1.397 . S
C1110 C1111 1.334 . S
C1111 H1088 0.950 . S
C1111 C1110 1.334 . S
C1111 C1112 1.287 . S
C1112 C1111 1.287 . S
C1112 C1113 1.524 . S
C1112 H1131 0.913 . S
C1113 H1089 0.950 . S
C1113 C1112 1.524 . S
C1113 C1114 1.415 . S
C1114 H1090 0.950 . S
C1114 C1109 1.363 . S
C1114 C1113 1.415 . S
C1115 H1091 0.951 . S
C1115 C1116 1.366 . S
C1115 C1117 1.388 . S
C1116 C1115 1.366 . S
C1116 C1120 1.385 1_545 S
C1117 H1092 0.951 . S
C1117 C1115 1.388 . S
C1117 C1118 1.366 1_545 S
C1118 C1117 1.366 1_565 S
C1118 C1119 1.414 . S
C1118 C1121 1.499 . S
C1119 H1093 0.950 . S
C1119 C1118 1.414 . S
C1119 C1120 1.374 . S
C1120 H1094 0.950 . S
C1120 C1116 1.385 1_565 S
C1120 C1119 1.374 . S
C1121 C1118 1.499 . S
C1121 C1122 1.373 . S
C1121 C1123 1.389 1_556 S
C1122 H1095 0.950 . S
C1122 C1108 1.377 . S
C1122 C1121 1.373 . S
C1123 C1107 1.377 . S
C1123 C1121 1.389 1_554 S
C1123 C1124 1.524 1_565 S
C1124 C1123 1.524 1_545 S
C1124 C1125 1.397 1_545 S
C1124 C1129 1.363 . S
C1125 H1096 0.950 . S
C1125 C1124 1.397 1_565 S
C1125 C1126 1.334 1_565 S
C1126 H1097 0.950 . S
C1126 C1125 1.334 1_545 S
C1126 C1127 1.287 . S
C1127 C1126 1.287 . S
C1127 C1128 1.524 . S
C1127 H1130 0.999 . S
C1128 H1098 0.950 . S
C1128 C1127 1.524 . S
C1128 C1129 1.415 . S
C1129 H1099 0.950 . S
C1129 C1124 1.363 . S
C1129 C1128 1.415 . S
H1130 C1127 0.999 . S
H1131 C1112 0.913 . S
H1132 C1150 0.951 . S
H1133 C1152 0.951 . S
H1134 C1154 0.950 . S
H1135 C1155 0.950 . S
H1136 C1157 0.950 . S
H1137 C1160 0.950 1_554 S
H1138 C1161 0.950 . S
H1139 C1163 0.950 . S
H1140 C1164 0.950 . S
H1141 C1165 0.951 . S
H1142 C1167 0.951 1_554 S
H1143 C1169 0.950 . S
H1144 C1170 0.950 . S
H1145 C1172 0.950 . S
H1146 C1175 0.950 . S
H1147 C1176 0.950 . S
H1148 C1178 0.950 . S
H1149 C1179 0.950 . S
C1150 H1132 0.951 . S
C1150 C1151 1.366 . S
C1150 C1152 1.388 . S
C1151 C1150 1.366 . S
C1151 C1155 1.385 . S
C1152 H1133 0.951 . S
C1152 C1150 1.388 . S
C1152 C1153 1.366 . S
C1153 C1152 1.366 . S
C1153 C1154 1.414 . S
C1153 C1156 1.499 . S
C1154 H1134 0.950 . S
C1154 C1153 1.414 . S
C1154 C1155 1.374 . S
C1155 H1135 0.950 . S
C1155 C1151 1.385 . S
C1155 C1154 1.374 . S
C1156 C1153 1.499 . S
C1156 C1157 1.373 . S
C1156 C1158 1.389 1_554 S
C1157 H1136 0.950 . S
C1157 C1156 1.373 . S
C1157 C1173 1.377 . S
C1158 C1156 1.389 1_556 S
C1158 C1159 1.524 . S
C1158 C1172 1.377 . S
C1159 C1158 1.524 . S
C1159 C1160 1.397 . S
C1159 C1164 1.363 . S
C1160 H1137 0.950 1_556 S
C1160 C1159 1.397 . S
C1160 C1161 1.334 . S
C1161 H1138 0.950 . S
C1161 C1160 1.334 . S
C1161 C1162 1.287 . S
C1162 C1161 1.287 . S
C1162 C1163 1.524 . S
C1162 H1181 0.913 . S
C1163 H1139 0.950 . S
C1163 C1162 1.524 . S
C1163 C1164 1.415 . S
C1164 H1140 0.950 . S
C1164 C1159 1.363 . S
C1164 C1163 1.415 . S
C1165 H1141 0.951 . S
C1165 C1166 1.366 . S
C1165 C1167 1.388 . S
C1166 C1165 1.366 . S
C1166 C1170 1.385 . S
C1167 H1142 0.951 1_556 S
C1167 C1165 1.388 . S
C1167 C1168 1.366 . S
C1168 C1167 1.366 . S
C1168 C1169 1.414 . S
C1168 C1171 1.499 . S
C1169 H1143 0.950 . S
C1169 C1168 1.414 . S
C1169 C1170 1.374 . S
C1170 H1144 0.950 . S
C1170 C1166 1.385 . S
C1170 C1169 1.374 . S
C1171 C1168 1.499 . S
C1171 C1172 1.373 . S
C1171 C1173 1.389 1_556 S
C1172 H1145 0.950 . S
C1172 C1158 1.377 . S
C1172 C1171 1.373 . S
C1173 C1157 1.377 . S
C1173 C1171 1.389 1_554 S
C1173 C1174 1.524 . S
C1174 C1173 1.524 . S
C1174 C1175 1.397 . S
C1174 C1179 1.363 . S
C1175 H1146 0.950 . S
C1175 C1174 1.397 . S
C1175 C1176 1.334 . S
C1176 H1147 0.950 . S
C1176 C1175 1.334 . S
C1176 C1177 1.287 . S
C1177 C1176 1.287 . S
C1177 C1178 1.524 . S
C1177 H1180 0.999 . S
C1178 H1148 0.950 . S
C1178 C1177 1.524 . S
C1178 C1179 1.415 . S
C1179 H1149 0.950 . S
C1179 C1174 1.363 . S
C1179 C1178 1.415 . S
H1180 C1177 0.999 . S
H1181 C1162 0.913 . S
H1182 C1200 0.951 . S
H1183 C1202 0.951 1_556 S
H1184 C1204 0.950 . S
H1185 C1205 0.950 . S
H1186 C1207 0.950 . S
H1187 C1210 0.950 . S
H1188 C1211 0.950 . S
H1189 C1213 0.950 . S
H1190 C1214 0.950 . S
H1191 C1215 0.951 . S
H1192 C1217 0.951 1_554 S
H1193 C1219 0.950 . S
H1194 C1220 0.950 . S
H1195 C1222 0.950 . S
H1196 C1225 0.950 . S
H1197 C1226 0.950 . S
H1198 C1228 0.950 . S
H1199 C1229 0.950 . S
C1200 H1182 0.951 . S
C1200 C1201 1.366 . S
C1200 C1202 1.388 . S
C1201 C1200 1.366 . S
C1201 C1205 1.385 . S
C1202 H1183 0.951 1_554 S
C1202 C1200 1.388 . S
C1202 C1203 1.366 . S
C1203 C1202 1.366 . S
C1203 C1204 1.414 . S
C1203 C1206 1.499 . S
C1204 H1184 0.950 . S
C1204 C1203 1.414 . S
C1204 C1205 1.374 . S
C1205 H1185 0.950 . S
C1205 C1201 1.385 . S
C1205 C1204 1.374 . S
C1206 C1203 1.499 . S
C1206 C1207 1.373 . S
C1206 C1208 1.389 1_554 S
C1207 H1186 0.950 . S
C1207 C1206 1.373 . S
C1207 C1223 1.377 . S
C1208 C1206 1.389 1_556 S
C1208 C1209 1.524 . S
C1208 C1222 1.377 . S
C1209 C1208 1.524 . S
C1209 C1210 1.397 1_556 S
C1209 C1214 1.363 . S
C1210 H1187 0.950 . S
C1210 C1209 1.397 1_554 S
C1210 C1211 1.334 . S
C1211 H1188 0.950 . S
C1211 C1210 1.334 . S
C1211 C1212 1.287 1_554 S
C1212 C1211 1.287 1_556 S
C1212 C1213 1.524 . S
C1212 H1231 0.913 . S
C1213 H1189 0.950 . S
C1213 C1212 1.524 . S
C1213 C1214 1.415 . S
C1214 H1190 0.950 . S
C1214 C1209 1.363 . S
C1214 C1213 1.415 . S
C1215 H1191 0.951 . S
C1215 C1216 1.366 . S
C1215 C1217 1.388 . S
C1216 C1215 1.366 . S
C1216 C1220 1.385 . S
C1217 H1192 0.951 1_556 S
C1217 C1215 1.388 . S
C1217 C1218 1.366 . S
C1218 C1217 1.366 . S
C1218 C1219 1.414 . S
C1218 C1221 1.499 . S
C1219 H1193 0.950 . S
C1219 C1218 1.414 . S
C1219 C1220 1.374 . S
C1220 H1194 0.950 . S
C1220 C1216 1.385 . S
C1220 C1219 1.374 . S
C1221 C1218 1.499 . S
C1221 C1222 1.373 . S
C1221 C1223 1.389 1_556 S
C1222 H1195 0.950 . S
C1222 C1208 1.377 . S
C1222 C1221 1.373 . S
C1223 C1207 1.377 . S
C1223 C1221 1.389 1_554 S
C1223 C1224 1.524 . S
C1224 C1223 1.524 . S
C1224 C1225 1.397 1_554 S
C1224 C1229 1.363 . S
C1225 H1196 0.950 . S
C1225 C1224 1.397 1_556 S
C1225 C1226 1.334 . S
C1226 H1197 0.950 . S
C1226 C1225 1.334 . S
C1226 C1227 1.287 1_556 S
C1227 C1226 1.287 1_554 S
C1227 C1228 1.524 . S
C1227 H1230 0.999 . S
C1228 H1198 0.950 . S
C1228 C1227 1.524 . S
C1228 C1229 1.415 . S
C1229 H1199 0.950 . S
C1229 C1224 1.363 . S
C1229 C1228 1.415 . S
H1230 C1227 0.999 . S
H1231 C1212 0.913 . S
H1232 C1250 0.951 . S
H1233 C1252 0.951 . S
H1234 C1254 0.950 . S
H1235 C1255 0.950 . S
H1236 C1257 0.950 . S
H1237 C1260 0.950 . S
H1238 C1261 0.950 . S
H1239 C1263 0.950 1_554 S
H1240 C1264 0.950 . S
H1241 C1265 0.951 . S
H1242 C1267 0.951 . S
H1243 C1269 0.950 . S
H1244 C1270 0.950 . S
H1245 C1272 0.950 . S
H1246 C1275 0.950 . S
H1247 C1276 0.950 . S
H1248 C1278 0.950 . S
H1249 C1279 0.950 . S
C1250 H1232 0.951 . S
C1250 C1251 1.366 . S
C1250 C1252 1.388 . S
C1251 C1250 1.366 . S
C1251 C1255 1.385 . S
C1252 H1233 0.951 . S
C1252 C1250 1.388 . S
C1252 C1253 1.366 . S
C1253 C1252 1.366 . S
C1253 C1254 1.414 . S
C1253 C1256 1.499 . S
C1254 H1234 0.950 . S
C1254 C1253 1.414 . S
C1254 C1255 1.374 . S
C1255 H1235 0.950 . S
C1255 C1251 1.385 . S
C1255 C1254 1.374 . S
C1256 C1253 1.499 . S
C1256 C1257 1.373 . S
C1256 C1258 1.389 . S
C1257 H1236 0.950 . S
C1257 C1256 1.373 . S
C1257 C1273 1.377 . S
C1258 C1256 1.389 . S
C1258 C1259 1.524 . S
C1258 C1272 1.377 . S
C1259 C1258 1.524 . S
C1259 C1260 1.397 . S
C1259 C1264 1.363 . S
C1260 H1237 0.950 . S
C1260 C1259 1.397 . S
C1260 C1261 1.334 . S
C1261 H1238 0.950 . S
C1261 C1260 1.334 . S
C1261 C1262 1.287 . S
C1262 C1261 1.287 . S
C1262 C1263 1.524 . S
C1262 H1281 0.913 . S
C1263 H1239 0.950 1_556 S
C1263 C1262 1.524 . S
C1263 C1264 1.415 . S
C1264 H1240 0.950 . S
C1264 C1259 1.363 . S
C1264 C1263 1.415 . S
C1265 H1241 0.951 . S
C1265 C1266 1.366 . S
C1265 C1267 1.388 . S
C1266 C1265 1.366 . S
C1266 C1270 1.385 . S
C1267 H1242 0.951 . S
C1267 C1265 1.388 . S
C1267 C1268 1.366 . S
C1268 C1267 1.366 . S
C1268 C1269 1.414 . S
C1268 C1271 1.499 . S
C1269 H1243 0.950 . S
C1269 C1268 1.414 . S
C1269 C1270 1.374 . S
C1270 H1244 0.950 . S
C1270 C1266 1.385 . S
C1270 C1269 1.374 . S
C1271 C1268 1.499 . S
C1271 C1272 1.373 . S
C1271 C1273 1.389 . S
C1272 H1245 0.950 . S
C1272 C1258 1.377 . S
C1272 C1271 1.373 . S
C1273 C1257 1.377 . S
C1273 C1271 1.389 . S
C1273 C1274 1.524 . S
C1274 C1273 1.524 . S
C1274 C1275 1.397 1_455 S
C1274 C1279 1.363 . S
C1275 H1246 0.950 . S
C1275 C1274 1.397 1_655 S
C1275 C1276 1.334 . S
C1276 H1247 0.950 . S
C1276 C1275 1.334 . S
C1276 C1277 1.287 . S
C1277 C1276 1.287 . S
C1277 C1278 1.524 . S
C1277 H1280 0.999 . S
C1278 H1248 0.950 . S
C1278 C1277 1.524 . S
C1278 C1279 1.415 1_655 S
C1279 H1249 0.950 . S
C1279 C1274 1.363 . S
C1279 C1278 1.415 1_455 S
H1280 C1277 0.999 . S
H1281 C1262 0.913 . S
H1282 C1300 0.951 . S
H1283 C1302 0.951 . S
H1284 C1304 0.950 . S
H1285 C1305 0.950 . S
H1286 C1307 0.950 . S
H1287 C1310 0.950 . S
H1288 C1311 0.950 . S
H1289 C1313 0.950 . S
H1290 C1314 0.950 . S
H1291 C1315 0.951 . S
H1292 C1317 0.951 . S
H1293 C1319 0.950 . S
H1294 C1320 0.950 . S
H1295 C1322 0.950 . S
H1296 C1325 0.950 . S
H1297 C1326 0.950 . S
H1298 C1328 0.950 . S
H1299 C1329 0.950 . S
C1300 H1282 0.951 . S
C1300 C1301 1.366 . S
C1300 C1302 1.388 . S
C1301 C1300 1.366 . S
C1301 C1305 1.385 . S
C1302 H1283 0.951 . S
C1302 C1300 1.388 . S
C1302 C1303 1.366 . S
C1303 C1302 1.366 . S
C1303 C1304 1.414 . S
C1303 C1306 1.499 . S
C1304 H1284 0.950 . S
C1304 C1303 1.414 . S
C1304 C1305 1.374 . S
C1305 H1285 0.950 . S
C1305 C1301 1.385 . S
C1305 C1304 1.374 . S
C1306 C1303 1.499 . S
C1306 C1307 1.373 . S
C1306 C1308 1.389 . S
C1307 H1286 0.950 . S
C1307 C1306 1.373 . S
C1307 C1323 1.377 . S
C1308 C1306 1.389 . S
C1308 C1309 1.524 . S
C1308 C1322 1.377 . S
C1309 C1308 1.524 . S
C1309 C1310 1.397 . S
C1309 C1314 1.363 . S
C1310 H1287 0.950 . S
C1310 C1309 1.397 . S
C1310 C1311 1.334 . S
C1311 H1288 0.950 . S
C1311 C1310 1.334 . S
C1311 C1312 1.287 . S
C1312 C1311 1.287 . S
C1312 C1313 1.524 1_556 S
C1312 H1331 0.913 1_556 S
C1313 H1289 0.950 . S
C1313 C1312 1.524 1_554 S
C1313 C1314 1.415 1_554 S
C1314 H1290 0.950 . S
C1314 C1309 1.363 . S
C1314 C1313 1.415 1_556 S
C1315 H1291 0.951 . S
C1315 C1316 1.366 . S
C1315 C1317 1.388 . S
C1316 C1315 1.366 . S
C1316 C1320 1.385 . S
C1317 H1292 0.951 . S
C1317 C1315 1.388 . S
C1317 C1318 1.366 . S
C1318 C1317 1.366 . S
C1318 C1319 1.414 . S
C1318 C1321 1.499 . S
C1319 H1293 0.950 . S
C1319 C1318 1.414 . S
C1319 C1320 1.374 . S
C1320 H1294 0.950 . S
C1320 C1316 1.385 . S
C1320 C1319 1.374 . S
C1321 C1318 1.499 . S
C1321 C1322 1.373 . S
C1321 C1323 1.389 . S
C1322 H1295 0.950 . S
C1322 C1308 1.377 . S
C1322 C1321 1.373 . S
C1323 C1307 1.377 . S
C1323 C1321 1.389 . S
C1323 C1324 1.524 . S
C1324 C1323 1.524 . S
C1324 C1325 1.397 1_545 S
C1324 C1329 1.363 . S
C1325 H1296 0.950 . S
C1325 C1324 1.397 1_565 S
C1325 C1326 1.334 . S
C1326 H1297 0.950 . S
C1326 C1325 1.334 . S
C1326 C1327 1.287 . S
C1327 C1326 1.287 . S
C1327 C1328 1.524 1_565 S
C1327 H1330 0.999 . S
C1328 H1298 0.950 . S
C1328 C1327 1.524 1_545 S
C1328 C1329 1.415 . S
C1329 H1299 0.950 . S
C1329 C1324 1.363 . S
C1329 C1328 1.415 . S
H1330 C1327 0.999 . S
H1331 C1312 0.913 1_554 S
H1332 C1350 0.951 . S
H1333 C1352 0.951 . S
H1334 C1354 0.950 . S
H1335 C1355 0.950 . S
H1336 C1357 0.950 . S
H1337 C1360 0.950 . S
H1338 C1361 0.950 . S
H1339 C1363 0.950 . S
H1340 C1364 0.950 . S
H1341 C1365 0.951 . S
H1342 C1367 0.951 . S
H1343 C1369 0.950 . S
H1344 C1370 0.950 . S
H1345 C1372 0.950 . S
H1346 C1375 0.950 . S
H1347 C1376 0.950 . S
H1348 C1378 0.950 . S
H1349 C1379 0.950 . S
C1350 H1332 0.951 . S
C1350 C1351 1.366 . S
C1350 C1352 1.388 . S
C1351 C1350 1.366 . S
C1351 C1355 1.385 . S
C1352 H1333 0.951 . S
C1352 C1350 1.388 . S
C1352 C1353 1.366 . S
C1353 C1352 1.366 . S
C1353 C1354 1.414 . S
C1353 C1356 1.499 . S
C1354 H1334 0.950 . S
C1354 C1353 1.414 . S
C1354 C1355 1.374 . S
C1355 H1335 0.950 . S
C1355 C1351 1.385 . S
C1355 C1354 1.374 . S
C1356 C1353 1.499 . S
C1356 C1357 1.373 . S
C1356 C1358 1.389 . S
C1357 H1336 0.950 . S
C1357 C1356 1.373 . S
C1357 C1373 1.377 . S
C1358 C1356 1.389 . S
C1358 C1359 1.524 . S
C1358 C1372 1.377 . S
C1359 C1358 1.524 . S
C1359 C1360 1.397 . S
C1359 C1364 1.363 . S
C1360 H1337 0.950 . S
C1360 C1359 1.397 . S
C1360 C1361 1.334 . S
C1361 H1338 0.950 . S
C1361 C1360 1.334 . S
C1361 C1362 1.287 . S
C1362 C1361 1.287 . S
C1362 C1363 1.524 . S
C1362 H1381 0.913 . S
C1363 H1339 0.950 . S
C1363 C1362 1.524 . S
C1363 C1364 1.415 . S
C1364 H1340 0.950 . S
C1364 C1359 1.363 . S
C1364 C1363 1.415 . S
C1365 H1341 0.951 . S
C1365 C1366 1.366 . S
C1365 C1367 1.388 . S
C1366 C1365 1.366 . S
C1366 C1370 1.385 . S
C1367 H1342 0.951 . S
C1367 C1365 1.388 . S
C1367 C1368 1.366 . S
C1368 C1367 1.366 . S
C1368 C1369 1.414 . S
C1368 C1371 1.499 . S
C1369 H1343 0.950 . S
C1369 C1368 1.414 . S
C1369 C1370 1.374 . S
C1370 H1344 0.950 . S
C1370 C1366 1.385 . S
C1370 C1369 1.374 . S
C1371 C1368 1.499 . S
C1371 C1372 1.373 . S
C1371 C1373 1.389 . S
C1372 H1345 0.950 . S
C1372 C1358 1.377 . S
C1372 C1371 1.373 . S
C1373 C1357 1.377 . S
C1373 C1371 1.389 . S
C1373 C1374 1.524 . S
C1374 C1373 1.524 . S
C1374 C1375 1.397 . S
C1374 C1379 1.363 . S
C1375 H1346 0.950 . S
C1375 C1374 1.397 . S
C1375 C1376 1.334 . S
C1376 H1347 0.950 . S
C1376 C1375 1.334 . S
C1376 C1377 1.287 . S
C1377 C1376 1.287 . S
C1377 C1378 1.524 . S
C1377 H1380 0.999 1_556 S
C1378 H1348 0.950 . S
C1378 C1377 1.524 . S
C1378 C1379 1.415 . S
C1379 H1349 0.950 . S
C1379 C1374 1.363 . S
C1379 C1378 1.415 . S
H1380 C1377 0.999 1_554 S
H1381 C1362 0.913 . S
H1382 C1400 0.951 . S
H1383 C1402 0.951 . S
H1384 C1404 0.950 . S
H1385 C1405 0.950 . S
H1386 C1407 0.950 . S
H1387 C1410 0.950 . S
H1388 C1411 0.950 . S
H1389 C1413 0.950 1_554 S
H1390 C1414 0.950 . S
H1391 C1415 0.951 . S
H1392 C1417 0.951 . S
H1393 C1419 0.950 . S
H1394 C1420 0.950 . S
H1395 C1422 0.950 . S
H1396 C1425 0.950 . S
H1397 C1426 0.950 . S
H1398 C1428 0.950 . S
H1399 C1429 0.950 . S
C1400 H1382 0.951 . S
C1400 C1401 1.366 . S
C1400 C1402 1.388 . S
C1401 C1400 1.366 . S
C1401 C1405 1.385 . S
C1402 H1383 0.951 . S
C1402 C1400 1.388 . S
C1402 C1403 1.366 . S
C1403 C1402 1.366 . S
C1403 C1404 1.414 . S
C1403 C1406 1.499 . S
C1404 H1384 0.950 . S
C1404 C1403 1.414 . S
C1404 C1405 1.374 . S
C1405 H1385 0.950 . S
C1405 C1401 1.385 . S
C1405 C1404 1.374 . S
C1406 C1403 1.499 . S
C1406 C1407 1.373 . S
C1406 C1408 1.389 . S
C1407 H1386 0.950 . S
C1407 C1406 1.373 . S
C1407 C1423 1.377 . S
C1408 C1406 1.389 . S
C1408 C1409 1.524 . S
C1408 C1422 1.377 . S
C1409 C1408 1.524 . S
C1409 C1410 1.397 . S
C1409 C1414 1.363 . S
C1410 H1387 0.950 . S
C1410 C1409 1.397 . S
C1410 C1411 1.334 . S
C1411 H1388 0.950 . S
C1411 C1410 1.334 . S
C1411 C1412 1.287 . S
C1412 C1411 1.287 . S
C1412 C1413 1.524 . S
C1412 H1431 0.913 . S
C1413 H1389 0.950 1_556 S
C1413 C1412 1.524 . S
C1413 C1414 1.415 . S
C1414 H1390 0.950 . S
C1414 C1409 1.363 . S
C1414 C1413 1.415 . S
C1415 H1391 0.951 . S
C1415 C1416 1.366 . S
C1415 C1417 1.388 . S
C1416 C1415 1.366 . S
C1416 C1420 1.385 . S
C1417 H1392 0.951 . S
C1417 C1415 1.388 . S
C1417 C1418 1.366 . S
C1418 C1417 1.366 . S
C1418 C1419 1.414 . S
C1418 C1421 1.499 . S
C1419 H1393 0.950 . S
C1419 C1418 1.414 . S
C1419 C1420 1.374 . S
C1420 H1394 0.950 . S
C1420 C1416 1.385 . S
C1420 C1419 1.374 . S
C1421 C1418 1.499 . S
C1421 C1422 1.373 . S
C1421 C1423 1.389 . S
C1422 H1395 0.950 . S
C1422 C1408 1.377 . S
C1422 C1421 1.373 . S
C1423 C1407 1.377 . S
C1423 C1421 1.389 . S
C1423 C1424 1.524 . S
C1424 C1423 1.524 . S
C1424 C1425 1.397 . S
C1424 C1429 1.363 . S
C1425 H1396 0.950 . S
C1425 C1424 1.397 . S
C1425 C1426 1.334 . S
C1426 H1397 0.950 . S
C1426 C1425 1.334 . S
C1426 C1427 1.287 . S
C1427 C1426 1.287 . S
C1427 C1428 1.524 . S
C1427 H1430 0.999 . S
C1428 H1398 0.950 . S
C1428 C1427 1.524 . S
C1428 C1429 1.415 . S
C1429 H1399 0.950 . S
C1429 C1424 1.363 . S
C1429 C1428 1.415 . S
H1430 C1427 0.999 . S
H1431 C1412 0.913 . S
H1432 C1450 0.951 . S
H1433 C1452 0.951 . S
H1434 C1454 0.950 . S
H1435 C1455 0.950 . S
H1436 C1457 0.950 . S
H1437 C1460 0.950 . S
H1438 C1461 0.950 . S
H1439 C1463 0.950 . S
H1440 C1464 0.950 . S
H1441 C1465 0.995 . S
H1442 C1467 0.951 1_455 S
H1443 C1469 0.950 . S
H1444 C1470 0.950 . S
H1445 C1472 0.950 . S
H1446 C1475 0.950 . S
H1447 C1476 0.950 . S
H1448 C1478 0.950 . S
H1449 C1479 0.950 . S
C1450 H1432 0.951 . S
C1450 C1451 1.366 . S
C1450 C1452 1.388 . S
C1451 C1450 1.366 . S
C1451 C1455 1.385 . S
C1452 H1433 0.951 . S
C1452 C1450 1.388 . S
C1452 C1453 1.366 . S
C1453 C1452 1.366 . S
C1453 C1454 1.414 . S
C1453 C1456 1.499 . S
C1454 H1434 0.950 . S
C1454 C1453 1.414 . S
C1454 C1455 1.374 . S
C1455 H1435 0.950 . S
C1455 C1451 1.385 . S
C1455 C1454 1.374 . S
C1456 C1453 1.499 . S
C1456 C1457 1.373 . S
C1456 C1458 1.389 . S
C1457 H1436 0.950 . S
C1457 C1456 1.373 . S
C1457 C1473 1.377 . S
C1458 C1456 1.389 . S
C1458 C1459 1.524 . S
C1458 C1472 1.377 . S
C1459 C1458 1.524 . S
C1459 C1460 1.397 . S
C1459 C1464 1.363 . S
C1460 H1437 0.950 . S
C1460 C1459 1.397 . S
C1460 C1461 1.334 . S
C1461 H1438 0.950 . S
C1461 C1460 1.334 . S
C1461 C1462 1.287 . S
C1462 C1461 1.287 . S
C1462 C1463 1.524 . S
C1462 H1481 0.913 . S
C1463 H1439 0.950 . S
C1463 C1462 1.524 . S
C1463 C1464 1.415 . S
C1464 H1440 0.950 . S
C1464 C1459 1.363 . S
C1464 C1463 1.415 . S
C1465 H1441 0.995 . S
C1465 C1466 1.332 1_455 S
C1465 C1467 1.379 1_455 S
C1466 C1465 1.332 1_655 S
C1466 C1470 1.385 . S
C1467 H1442 0.951 1_655 S
C1467 C1465 1.379 1_655 S
C1467 C1468 1.366 . S
C1468 C1467 1.366 . S
C1468 C1469 1.414 . S
C1468 C1471 1.499 . S
C1469 H1443 0.950 . S
C1469 C1468 1.414 . S
C1469 C1470 1.374 . S
C1470 H1444 0.950 . S
C1470 C1466 1.385 . S
C1470 C1469 1.374 . S
C1471 C1468 1.499 . S
C1471 C1472 1.373 . S
C1471 C1473 1.389 . S
C1472 H1445 0.950 . S
C1472 C1458 1.377 . S
C1472 C1471 1.373 . S
C1473 C1457 1.377 . S
C1473 C1471 1.389 . S
C1473 C1474 1.524 . S
C1474 C1473 1.524 . S
C1474 C1475 1.397 . S
C1474 C1479 1.363 1_655 S
C1475 H1446 0.950 . S
C1475 C1474 1.397 . S
C1475 C1476 1.334 . S
C1476 H1447 0.950 . S
C1476 C1475 1.334 . S
C1476 C1477 1.287 1_655 S
C1477 C1476 1.287 1_455 S
C1477 C1478 1.524 . S
C1477 H1480 0.999 . S
C1478 H1448 0.950 . S
C1478 C1477 1.524 . S
C1478 C1479 1.415 . S
C1479 H1449 0.950 . S
C1479 C1474 1.363 1_455 S
C1479 C1478 1.415 . S
H1480 C1477 0.999 . S
H1481 C1462 0.913 . S
H1482 C1500 0.951 . S
H1483 C1502 0.951 . S
H1484 C1504 0.950 . S
H1485 C1505 0.950 . S
H1486 C1507 0.950 . S
H1487 C1510 0.948 . S
H1488 C1511 0.950 . S
H1489 C1513 0.950 . S
H1490 C1514 0.950 . S
H1491 C1515 0.951 1_545 S
H1492 C1517 0.951 . S
H1493 C1519 0.950 . S
H1494 C1520 0.950 . S
H1495 C1522 0.950 . S
H1496 C1525 0.950 . S
H1497 C1526 0.950 . S
H1498 C1528 0.950 . S
H1499 C1529 0.950 . S
C1500 H1482 0.951 . S
C1500 C1501 1.366 . S
C1500 C1502 1.388 . S
C1501 C1500 1.366 . S
C1501 C1505 1.385 . S
C1502 H1483 0.951 . S
C1502 C1500 1.388 . S
C1502 C1503 1.366 . S
C1503 C1502 1.366 . S
C1503 C1504 1.414 . S
C1503 C1506 1.499 . S
C1504 H1484 0.950 . S
C1504 C1503 1.414 . S
C1504 C1505 1.374 . S
C1505 H1485 0.950 . S
C1505 C1501 1.385 . S
C1505 C1504 1.374 . S
C1506 C1503 1.499 . S
C1506 C1507 1.373 . S
C1506 C1508 1.389 . S
C1507 H1486 0.950 . S
C1507 C1506 1.373 . S
C1507 C1523 1.377 . S
C1508 C1506 1.389 . S
C1508 C1509 1.524 . S
C1508 C1522 1.377 . S
C1509 C1508 1.524 . S
C1509 C1510 1.400 1_565 S
C1509 C1514 1.363 . S
C1510 H1487 0.948 . S
C1510 C1509 1.400 1_545 S
C1510 C1511 1.332 . S
C1511 H1488 0.950 . S
C1511 C1510 1.332 . S
C1511 C1512 1.287 . S
C1512 C1511 1.287 . S
C1512 C1513 1.524 1_545 S
C1512 H1531 0.913 . S
C1513 H1489 0.950 . S
C1513 C1512 1.524 1_565 S
C1513 C1514 1.415 . S
C1514 H1490 0.950 . S
C1514 C1509 1.363 . S
C1514 C1513 1.415 . S
C1515 H1491 0.951 1_565 S
C1515 C1516 1.366 . S
C1515 C1517 1.388 . S
C1516 C1515 1.366 . S
C1516 C1520 1.385 . S
C1517 H1492 0.951 . S
C1517 C1515 1.388 . S
C1517 C1518 1.366 . S
C1518 C1517 1.366 . S
C1518 C1519 1.414 . S
C1518 C1521 1.499 . S
C1519 H1493 0.950 . S
C1519 C1518 1.414 . S
C1519 C1520 1.374 . S
C1520 H1494 0.950 . S
C1520 C1516 1.385 . S
C1520 C1519 1.374 . S
C1521 C1518 1.499 . S
C1521 C1522 1.373 . S
C1521 C1523 1.389 . S
C1522 H1495 0.950 . S
C1522 C1508 1.377 . S
C1522 C1521 1.373 . S
C1523 C1507 1.377 . S
C1523 C1521 1.389 . S
C1523 C1524 1.524 . S
C1524 C1523 1.524 . S
C1524 C1525 1.397 . S
C1524 C1529 1.363 . S
C1525 H1496 0.950 . S
C1525 C1524 1.397 . S
C1525 C1526 1.334 . S
C1526 H1497 0.950 . S
C1526 C1525 1.334 . S
C1526 C1527 1.287 . S
C1527 C1526 1.287 . S
C1527 C1528 1.524 . S
C1527 H1530 0.999 . S
C1528 H1498 0.950 . S
C1528 C1527 1.524 . S
C1528 C1529 1.415 . S
C1529 H1499 0.950 . S
C1529 C1524 1.363 . S
C1529 C1528 1.415 . S
H1530 C1527 0.999 . S
H1531 C1512 0.913 . S
H1532 C1550 0.951 . S
H1533 C1552 0.951 . S
H1534 C1554 0.950 . S
H1535 C1555 0.950 . S
H1536 C1557 0.950 . S
H1537 C1560 0.950 . S
H1538 C1561 0.950 . S
H1539 C1563 0.950 . S
H1540 C1564 0.950 . S
H1541 C1565 0.951 . S
H1542 C1567 0.951 . S
H1543 C1569 0.950 . S
H1544 C1570 0.950 . S
H1545 C1572 0.950 . S
H1546 C1575 0.950 . S
H1547 C1576 0.950 . S
H1548 C1578 0.950 . S
H1549 C1579 0.950 . S
C1550 H1532 0.951 . S
C1550 C1551 1.366 . S
C1550 C1552 1.388 . S
C1551 C1550 1.366 . S
C1551 C1555 1.385 . S
C1552 H1533 0.951 . S
C1552 C1550 1.388 . S
C1552 C1553 1.366 . S
C1553 C1552 1.366 . S
C1553 C1554 1.414 . S
C1553 C1556 1.499 . S
C1554 H1534 0.950 . S
C1554 C1553 1.414 . S
C1554 C1555 1.374 . S
C1555 H1535 0.950 . S
C1555 C1551 1.385 . S
C1555 C1554 1.374 . S
C1556 C1553 1.499 . S
C1556 C1557 1.373 . S
C1556 C1558 1.389 . S
C1557 H1536 0.950 . S
C1557 C1556 1.373 . S
C1557 C1573 1.377 . S
C1558 C1556 1.389 . S
C1558 C1559 1.524 . S
C1558 C1572 1.377 . S
C1559 C1558 1.524 . S
C1559 C1560 1.397 . S
C1559 C1564 1.363 . S
C1560 H1537 0.950 . S
C1560 C1559 1.397 . S
C1560 C1561 1.334 . S
C1561 H1538 0.950 . S
C1561 C1560 1.334 . S
C1561 C1562 1.287 . S
C1562 C1561 1.287 . S
C1562 C1563 1.524 . S
C1562 H1581 0.913 . S
C1563 H1539 0.950 . S
C1563 C1562 1.524 . S
C1563 C1564 1.415 . S
C1564 H1540 0.950 . S
C1564 C1559 1.363 . S
C1564 C1563 1.415 . S
C1565 H1541 0.951 . S
C1565 C1566 1.366 . S
C1565 C1567 1.388 . S
C1566 C1565 1.366 . S
C1566 C1570 1.385 . S
C1567 H1542 0.951 . S
C1567 C1565 1.388 . S
C1567 C1568 1.366 . S
C1568 C1567 1.366 . S
C1568 C1569 1.414 . S
C1568 C1571 1.499 . S
C1569 H1543 0.950 . S
C1569 C1568 1.414 . S
C1569 C1570 1.374 . S
C1570 H1544 0.950 . S
C1570 C1566 1.385 . S
C1570 C1569 1.374 . S
C1571 C1568 1.499 . S
C1571 C1572 1.373 . S
C1571 C1573 1.389 . S
C1572 H1545 0.950 . S
C1572 C1558 1.377 . S
C1572 C1571 1.373 . S
C1573 C1557 1.377 . S
C1573 C1571 1.389 . S
C1573 C1574 1.524 . S
C1574 C1573 1.524 . S
C1574 C1575 1.397 . S
C1574 C1579 1.363 . S
C1575 H1546 0.950 . S
C1575 C1574 1.397 . S
C1575 C1576 1.334 . S
C1576 H1547 0.950 . S
C1576 C1575 1.334 . S
C1576 C1577 1.287 . S
C1577 C1576 1.287 . S
C1577 C1578 1.524 . S
C1577 H1580 0.999 . S
C1578 H1548 0.950 . S
C1578 C1577 1.524 . S
C1578 C1579 1.415 . S
C1579 H1549 0.950 . S
C1579 C1574 1.363 . S
C1579 C1578 1.415 . S
H1580 C1577 0.999 . S
H1581 C1562 0.913 . S
H1582 C1600 0.951 . S
H1583 C1602 0.951 . S
H1584 C1604 0.950 . S
H1585 C1605 0.950 . S
H1586 C1607 0.950 . S
H1587 C1610 0.950 . S
H1588 C1611 0.950 . S
H1589 C1613 0.950 . S
H1590 C1614 0.950 . S
H1591 C1615 0.951 . S
H1592 C1617 0.951 . S
H1593 C1619 0.950 . S
H1594 C1620 0.950 . S
H1595 C1622 0.950 . S
H1596 C1625 0.950 . S
H1597 C1626 0.950 . S
H1598 C1628 0.950 . S
H1599 C1629 0.950 . S
C1600 H1582 0.951 . S
C1600 C1601 1.366 . S
C1600 C1602 1.388 . S
C1601 C1600 1.366 . S
C1601 C1605 1.385 . S
C1602 H1583 0.951 . S
C1602 C1600 1.388 . S
C1602 C1603 1.366 . S
C1603 C1602 1.366 . S
C1603 C1604 1.414 . S
C1603 C1606 1.499 . S
C1604 H1584 0.950 . S
C1604 C1603 1.414 . S
C1604 C1605 1.374 . S
C1605 H1585 0.950 . S
C1605 C1601 1.385 . S
C1605 C1604 1.374 . S
C1606 C1603 1.499 . S
C1606 C1607 1.373 . S
C1606 C1608 1.389 . S
C1607 H1586 0.950 . S
C1607 C1606 1.373 . S
C1607 C1623 1.377 . S
C1608 C1606 1.389 . S
C1608 C1609 1.524 . S
C1608 C1622 1.377 . S
C1609 C1608 1.524 . S
C1609 C1610 1.397 . S
C1609 C1614 1.363 . S
C1610 H1587 0.950 . S
C1610 C1609 1.397 . S
C1610 C1611 1.334 . S
C1611 H1588 0.950 . S
C1611 C1610 1.334 . S
C1611 C1612 1.287 . S
C1612 C1611 1.287 . S
C1612 C1613 1.524 . S
C1612 H1631 0.913 . S
C1613 H1589 0.950 . S
C1613 C1612 1.524 . S
C1613 C1614 1.415 . S
C1614 H1590 0.950 . S
C1614 C1609 1.363 . S
C1614 C1613 1.415 . S
C1615 H1591 0.951 . S
C1615 C1616 1.366 . S
C1615 C1617 1.388 . S
C1616 C1615 1.366 . S
C1616 C1620 1.385 . S
C1617 H1592 0.951 . S
C1617 C1615 1.388 . S
C1617 C1618 1.366 . S
C1618 C1617 1.366 . S
C1618 C1619 1.414 . S
C1618 C1621 1.499 . S
C1619 H1593 0.950 . S
C1619 C1618 1.414 . S
C1619 C1620 1.374 . S
C1620 H1594 0.950 . S
C1620 C1616 1.385 . S
C1620 C1619 1.374 . S
C1621 C1618 1.499 . S
C1621 C1622 1.373 . S
C1621 C1623 1.389 . S
C1622 H1595 0.950 . S
C1622 C1608 1.377 . S
C1622 C1621 1.373 . S
C1623 C1607 1.377 . S
C1623 C1621 1.389 . S
C1623 C1624 1.524 . S
C1624 C1623 1.524 . S
C1624 C1625 1.397 . S
C1624 C1629 1.363 . S
C1625 H1596 0.950 . S
C1625 C1624 1.397 . S
C1625 C1626 1.334 . S
C1626 H1597 0.950 . S
C1626 C1625 1.334 . S
C1626 C1627 1.287 . S
C1627 C1626 1.287 . S
C1627 C1628 1.524 . S
C1627 H1630 0.999 . S
C1628 H1598 0.950 . S
C1628 C1627 1.524 . S
C1628 C1629 1.415 . S
C1629 H1599 0.950 . S
C1629 C1624 1.363 . S
C1629 C1628 1.415 . S
H1630 C1627 0.999 . S
H1631 C1612 0.913 . S
C451 C76 1.791 . S
C466 C170 1.859 . S
C516 C254 1.889 . S
C501 C88 1.821 . S
C566 C320 1.913 . S
C551 C52 1.938 . S
C616 C404 1.885 . S
C601 C64 1.910 . S
C666 C159 1.858 1_565 S
C651 C28 1.802 . S
C701 C40 1.833 . S
C716 C243 1.890 . S
C751 C4 1.952 . S
C766 C331 1.913 . S
C801 C16 1.923 . S
C816 C415 1.885 . S
C866 C166 0.506 1_455 S
C851 C69 0.476 . S
C916 C250 0.509 . S
C901 C81 0.445 . S
C966 C322 0.496 . S
C951 C93 0.429 . S
C1001 C57 0.456 . S
C1016 C406 0.508 . S
C1051 C21 0.492 . S
C1066 C154 0.522 . S
C1116 C238 0.508 . S
C1101 C33 0.463 . S
C1166 C334 0.499 . S
C1151 C45 0.448 . S
C1201 C9 0.473 . S
C1216 C418 0.509 . S
C1251 C66 1.970 . S
C1266 C163 2.008 . S
C1301 C78 1.930 . S
C1316 C247 1.969 . S
C1366 C327 1.947 . S
C1351 C90 1.823 . S
C1416 C411 1.984 . S
C1401 C54 1.859 . S
C1451 C18 1.953 . S
C1466 C152 2.008 . S
C1516 C236 1.959 1_565 S
C1501 C30 1.915 . S
C1566 C338 1.948 . S
C1551 C42 1.806 . S
C1601 C6 1.840 . S
C1616 C422 1.982 . S
