# Generated by pormake.
# Topology tsx, (6,3)-cn, num edge types: 1
# Building blocks:
#     Node 0, Type 0, BuildingBlock: VOLQOD_clean_sbu_1, # of connection points: 6
#     Node 1, Type 0, BuildingBlock: VOLQOD_clean_sbu_1, # of connection points: 6
#     Node 2, Type 1, BuildingBlock: BELTOD_clean_linker_0, # of connection points: 3
#     Node 3, Type 1, BuildingBlock: BELTOD_clean_linker_0, # of connection points: 3
#     Node 4, Type 1, BuildingBlock: BELTOD_clean_linker_0, # of connection points: 3
#     Node 5, Type 1, BuildingBlock: BELTOD_clean_linker_0, # of connection points: 3
#     Edge 6, Type (0, 1), BuildingBlock: KIFKEQ_clean_linker_1, # of connection points: 2
#     Edge 7, Type (0, 1), BuildingBlock: KIFKEQ_clean_linker_1, # of connection points: 2
#     Edge 8, Type (0, 1), BuildingBlock: KIFKEQ_clean_linker_1, # of connection points: 2
#     Edge 9, Type (0, 1), BuildingBlock: KIFKEQ_clean_linker_1, # of connection points: 2
#     Edge 10, Type (0, 1), BuildingBlock: KIFKEQ_clean_linker_1, # of connection points: 2
#     Edge 11, Type (0, 1), BuildingBlock: KIFKEQ_clean_linker_1, # of connection points: 2
#     Edge 12, Type (0, 1), BuildingBlock: KIFKEQ_clean_linker_1, # of connection points: 2
#     Edge 13, Type (0, 1), BuildingBlock: KIFKEQ_clean_linker_1, # of connection points: 2
#     Edge 14, Type (0, 1), BuildingBlock: KIFKEQ_clean_linker_1, # of connection points: 2
#     Edge 15, Type (0, 1), BuildingBlock: KIFKEQ_clean_linker_1, # of connection points: 2
#     Edge 16, Type (0, 1), BuildingBlock: KIFKEQ_clean_linker_1, # of connection points: 2
#     Edge 17, Type (0, 1), BuildingBlock: KIFKEQ_clean_linker_1, # of connection points: 2
# Relax obj value: 0.067
# Max RMSD: 0.102
# Mean RMSD: 0.074
data_MOF--net-tsx--node1-VOLQOD_clean_sbu_1--node2-BELTOD_clean_linker_0--edge1-KIFKEQ_clean_linker_1
_symmetry_space_group_name_H-M    P1
_symmetry_Int_Tables_number       1
_symmetry_cell_setting            triclinic
loop_
_symmetry_equiv_pos_as_xyz
'x, y, z'
_cell_length_a     23.552973
_cell_length_b     24.462675
_cell_length_c     45.621175
_cell_angle_alpha  91.080948
_cell_angle_beta   90.252517
_cell_angle_gamma 90.259338
loop_
_atom_site_label
_atom_site_type_symbol
_atom_site_fract_x
_atom_site_fract_y
_atom_site_fract_z
_atom_type_partial_charge
O0 O 0.02234 -6e-05 0.07294 0.0
Zn1 Zn 0.0427 0.99117 0.03086 0.0
O2 O 0.97664 7e-05 0.0058 0.0
Zn3 Zn 0.96887 0.93496 0.98068 0.0
Zn4 Zn 0.90833 0.00882 0.03024 0.0
Zn5 Zn 0.98872 0.06434 0.98148 0.0
O6 O 0.96917 0.95437 0.93807 0.0
O7 O 0.98888 0.04323 0.93834 0.0
O8 O 0.08156 0.91931 0.02412 0.0
O9 O 0.03388 0.8829 0.98653 0.0
O10 O 0.8971 0.89413 0.98964 0.0
O11 O 0.85452 0.94477 0.0239 0.0
O12 O 0.86726 0.07883 0.02009 0.0
O13 O 0.10076 0.04876 0.0237 0.0
O14 O 0.92567 0.11791 0.98841 0.0
O15 O 0.06318 0.10327 0.99069 0.0
C16 C 0.97664 0.00872 0.08694 0.0
C17 C 0.97934 -0.00166 0.9245 0.0
C18 C 0.85596 0.90246 0.00715 0.0
C19 C 0.07448 0.88133 0.005 0.0
C20 C 0.88041 0.11846 0.00361 0.0
C21 C 0.10366 0.09088 0.0079 0.0
O22 O 0.929 0.0128 0.07377 0.0
O23 O 0.53155 0.48624 0.57564 0.0
Zn24 Zn 0.55239 0.48277 0.53329 0.0
O25 O 0.48665 0.49262 0.5082 0.0
Zn26 Zn 0.47596 0.42693 0.48375 0.0
Zn27 Zn 0.41961 0.50572 0.53303 0.0
Zn28 Zn 0.50062 0.55456 0.48267 0.0
O29 O 0.47881 0.44363 0.44064 0.0
O30 O 0.50496 0.53082 0.44004 0.0
O31 O 0.59186 0.41207 0.52486 0.0
O32 O 0.53797 0.37209 0.49067 0.0
O33 O 0.4017 0.39097 0.49269 0.0
O34 O 0.36274 0.44402 0.52713 0.0
O35 O 0.3806 0.57599 0.52164 0.0
O36 O 0.60927 0.54221 0.52761 0.0
O37 O 0.43594 0.60693 0.48616 0.0
O38 O 0.57333 0.59496 0.49325 0.0
C39 C 0.48699 0.49888 0.58984 0.0
C40 C 0.4932 0.48601 0.42662 0.0
C41 C 0.36133 0.40177 0.51032 0.0
C42 C 0.58132 0.37208 0.50744 0.0
C43 C 0.39198 0.61116 0.5022 0.0
C44 C 0.61247 0.58402 0.51156 0.0
O45 O 0.44064 0.50952 0.57656 0.0
P46 P 0.07095 0.07848 0.40413 0.0
H47 H 0.04996 0.16125 0.4498 0.0
H48 H 0.96296 0.19415 0.47314 0.0
H49 H 0.86546 0.0747 0.4231 0.0
H50 H 0.95226 0.04206 0.39993 0.0
H51 H 0.1475 0.99569 0.38136 0.0
H52 H 0.18724 0.9132 0.40204 0.0
H53 H 0.09412 0.94317 0.48217 0.0
H54 H 0.05505 0.02664 0.46134 0.0
H55 H 0.09424 0.14577 0.3531 0.0
H56 H 0.01614 0.98972 0.37016 0.0
O57 O 0.12118 0.12629 0.40859 0.0
H58 H 0.07498 0.13247 0.30054 0.0
H59 H 0.99457 0.97769 0.31772 0.0
C60 C 0.00736 0.10045 0.42241 0.0
C61 C 0.00987 0.14216 0.44385 0.0
C62 C 0.96023 0.16053 0.4574 0.0
C63 C 0.90742 0.13728 0.44969 0.0
C64 C 0.90548 0.09394 0.42908 0.0
C65 C 0.95514 0.07541 0.41572 0.0
C66 C 0.09711 0.01636 0.41945 0.0
C67 C 0.13494 0.98414 0.4032 0.0
C68 C 0.15746 0.93683 0.41505 0.0
C69 C 0.14299 0.92104 0.44357 0.0
C70 C 0.10585 0.95411 0.4601 0.0
C71 C 0.08319 0.00159 0.44813 0.0
C72 C 0.05672 0.06869 0.36552 0.0
C73 C 0.07277 0.10882 0.34561 0.0
C74 C 0.06165 0.10136 0.31567 0.0
C75 C 0.03309 0.05428 0.30539 0.0
C76 C 0.01626 0.01448 0.32533 0.0
C77 C 0.02853 0.0214 0.35519 0.0
P78 P 0.08491 0.92707 0.60862 0.0
H79 H 0.08553 0.84549 0.56124 0.0
H80 H 0.00977 0.79471 0.53592 0.0
H81 H 0.88527 0.87919 0.58926 0.0
H82 H 0.96124 0.93135 0.61345 0.0
H83 H 0.16349 0.95588 0.56215 0.0
H84 H 0.18312 0.04171 0.53748 0.0
H85 H 0.04792 0.11976 0.58611 0.0
H86 H 0.02778 0.03321 0.61039 0.0
H87 H 0.02389 0.86314 0.65202 0.0
H88 H 0.11363 0.01701 0.64979 0.0
O89 O 0.14403 0.88977 0.60748 0.0
H90 H 0.00302 0.87884 0.70384 0.0
H91 H 0.09108 0.03414 0.70124 0.0
C92 C 0.02891 0.89049 0.58995 0.0
C93 C 0.04188 0.8529 0.56748 0.0
C94 C -0.00149 0.82392 0.55304 0.0
C95 C 0.9414 0.83224 0.56082 0.0
C96 C 0.92866 0.87189 0.58254 0.0
C97 C 0.97208 0.9012 0.59674 0.0
C98 C 0.09594 0.9891 0.58899 0.0
C99 C 0.13791 0.99138 0.56741 0.0
C100 C 0.14861 0.04024 0.55307 0.0
C101 C 0.11739 0.08747 0.56016 0.0
C102 C 0.07304 0.08408 0.58056 0.0
C103 C 0.06182 0.0349 0.59455 0.0
C104 C 0.06823 0.93993 0.64668 0.0
C105 C 0.03808 0.90087 0.66252 0.0
C106 C 0.02604 0.91001 0.69218 0.0
C107 C 0.04457 0.95819 0.70669 0.0
C108 C 0.07616 -0.00344 0.69085 0.0
C109 C 0.08845 0.98715 0.66124 0.0
P110 P 0.57176 0.59129 0.90691 0.0
H111 H 0.5508 0.63719 0.9649 0.0
H112 H 0.46505 0.67119 0.98911 0.0
H113 H 0.36613 0.62561 0.91235 0.0
H114 H 0.45151 0.59088 0.88862 0.0
H115 H 0.68801 0.55924 0.91948 0.0
H116 H 0.72881 0.4819 0.94492 0.0
H117 H 0.56032 0.41828 0.96049 0.0
H118 H 0.5197 0.49595 0.93453 0.0
H119 H 0.58054 0.65925 0.85544 0.0
H120 H 0.53365 0.49292 0.874 0.0
O121 O 0.61803 0.64299 0.91007 0.0
H122 H 0.56184 0.64232 0.80339 0.0
H123 H 0.51513 0.47545 0.8217 0.0
C124 C 0.5076 0.61239 0.92486 0.0
C125 C 0.5105 0.63426 0.95342 0.0
C126 C 0.46155 0.65373 0.96718 0.0
C127 C 0.40886 0.65142 0.95256 0.0
C128 C 0.40594 0.62751 0.92431 0.0
C129 C 0.45494 0.60807 0.91058 0.0
C130 C 0.60092 0.53354 0.92542 0.0
C131 C 0.65981 0.52885 0.92848 0.0
C132 C 0.68304 0.4848 0.94327 0.0
C133 C 0.64775 0.44429 0.95509 0.0
C134 C 0.58859 0.4488 0.95164 0.0
C135 C 0.56536 0.49316 0.93689 0.0
C136 C 0.5599 0.57697 0.86847 0.0
C137 C 0.56687 0.61884 0.84826 0.0
C138 C 0.55612 0.60911 0.81849 0.0
C139 C 0.53747 0.5574 0.80837 0.0
C140 C 0.52928 0.51576 0.82882 0.0
C141 C 0.5404 0.52552 0.85866 0.0
P142 P 0.58416 0.41898 0.10849 0.0
H143 H 0.5811 0.34485 0.05788 0.0
H144 H 0.50365 0.29809 0.03177 0.0
H145 H 0.38293 0.3742 0.09076 0.0
H146 H 0.46052 0.42274 0.11569 0.0
H147 H 0.66723 0.44555 0.06358 0.0
H148 H 0.69063 0.53042 0.03884 0.0
H149 H 0.55439 0.61237 0.08481 0.0
H150 H 0.53075 0.52685 0.10929 0.0
H151 H 0.5248 0.35417 0.15204 0.0
H152 H 0.61336 0.50866 0.14991 0.0
O153 O 0.64108 0.37865 0.10703 0.0
H154 H 0.50704 0.36794 0.20433 0.0
H155 H 0.59395 0.52382 0.20187 0.0
C156 C 0.52657 0.38542 0.0894 0.0
C157 C 0.5379 0.35129 0.06517 0.0
C158 C 0.49355 0.32457 0.05029 0.0
C159 C 0.43699 0.33162 0.05941 0.0
C160 C 0.42582 0.36793 0.08298 0.0
C161 C 0.47023 0.39509 0.09761 0.0
C162 C 0.59887 0.48074 0.08917 0.0
C163 C 0.64235 0.48175 0.06832 0.0
C164 C 0.65523 0.5301 0.05392 0.0
C165 C 0.62472 0.57815 0.06019 0.0
C166 C 0.57912 0.57612 0.07993 0.0
C167 C 0.56581 0.52749 0.09402 0.0
C168 C 0.56838 0.43134 0.14674 0.0
C169 C 0.5393 0.39167 0.16267 0.0
C170 C 0.52907 0.39969 0.19262 0.0
C171 C 0.5484 0.44735 0.20736 0.0
C172 C 0.57854 0.48656 0.19134 0.0
C173 C 0.58898 0.4783 0.16143 0.0
H174 H 0.12289 0.19123 0.98329 0.0
H175 H 0.19989 0.07099 0.03904 0.0
H176 H 0.20576 0.25083 0.99069 0.0
H177 H 0.28113 0.13043 0.04681 0.0
H178 H 0.44035 0.22486 0.04066 0.0
H179 H 0.36234 0.16821 0.02267 0.0
H180 H 0.24866 0.30571 0.03073 0.0
H181 H 0.32765 0.36353 0.04722 0.0
C182 C 0.1575 0.17736 0.99693 0.0
C183 C 0.15462 0.12638 0.01062 0.0
C184 C 0.20478 0.2116 1.00129 0.0
C185 C 0.25014 0.19531 0.01926 0.0
C186 C 0.2475 0.14392 0.03242 0.0
C187 C 0.2005 0.10994 0.02814 0.0
C188 C 0.39915 0.24358 0.03789 0.0
C189 C 0.39031 0.29877 0.04567 0.0
C190 C 0.35419 0.21083 0.0279 0.0
C191 C 0.29909 0.23221 0.02569 0.0
C192 C 0.29062 0.288 0.03209 0.0
C193 C 0.33578 0.32095 0.04194 0.0
H194 H 0.08261 0.80145 0.96242 0.0
H195 H 0.16406 0.86222 0.04174 0.0
H196 H 0.16129 0.73906 0.95413 0.0
H197 H 0.24209 0.79878 0.03377 0.0
H198 H 0.40306 0.74944 0.98173 0.0
H199 H 0.31877 0.79691 0.99879 0.0
H200 H 0.2146 0.66011 0.96999 0.0
H201 H 0.29946 0.61247 0.95271 0.0
C202 C 0.11667 0.80072 0.97844 0.0
C203 C 0.11741 0.83747 1.00251 0.0
C204 C 0.16169 0.76466 0.97376 0.0
C205 C 0.20831 0.7644 0.99311 0.0
C206 C 0.20732 0.79875 0.01815 0.0
C207 C 0.16243 0.83494 0.02278 0.0
C208 C 0.36237 0.72889 0.97963 0.0
C209 C 0.35792 0.67728 0.96576 0.0
C210 C 0.31395 0.75611 0.98946 0.0
C211 C 0.25988 0.73235 0.98571 0.0
C212 C 0.25558 0.67982 0.97283 0.0
C213 C 0.30412 0.65257 0.96294 0.0
H214 H 0.75474 0.9092 0.03648 0.0
H215 H 0.85622 0.79917 0.98343 0.0
H216 H 0.68677 0.83565 0.04476 0.0
H217 H 0.78989 0.72546 0.99261 0.0
H218 H 0.65412 0.60123 0.00364 0.0
H219 H 0.69912 0.68477 0.98629 0.0
H220 H 0.68656 0.75629 0.07344 0.0
H221 H 0.6404 0.67384 0.0903 0.0
C222 C 0.76238 0.86946 0.02643 0.0
C223 C 0.81128 0.85996 0.00958 0.0
C224 C 0.72354 0.82719 0.03128 0.0
C225 C 0.73304 0.77432 0.01964 0.0
C226 C 0.7806 0.76566 1.00164 0.0
C227 C 0.81904 0.808 0.99656 0.0
C228 C 0.66029 0.63529 0.01887 0.0
C229 C 0.64414 0.63099 0.04835 0.0
C230 C 0.68622 0.68306 0.00901 0.0
C231 C 0.69715 0.72721 0.02852 0.0
C232 C 0.67821 0.72366 0.05763 0.0
C233 C 0.65182 0.67622 0.06738 0.0
H234 H 0.9087 0.22037 0.98585 0.0
H235 H 0.76713 0.12537 0.01732 0.0
H236 H 0.84692 0.29885 0.98027 0.0
H237 H 0.7048 0.2046 0.01146 0.0
H238 H 0.61737 0.33641 0.94897 0.0
H239 H 0.6695 0.25724 0.96652 0.0
H240 H 0.7888 0.36483 0.01107 0.0
H241 H 0.73628 0.444 0.99399 0.0
C242 C 0.86439 0.21632 0.99173 0.0
C243 C 0.84274 0.16655 1.00187 0.0
C244 C 0.8291 0.26148 0.98878 0.0
C245 C 0.77113 0.25788 0.99557 0.0
C246 C 0.74936 0.20839 0.00606 0.0
C247 C 0.78503 0.16322 0.00947 0.0
C248 C 0.6538 0.34316 0.96317 0.0
C249 C 0.67341 0.39646 0.96961 0.0
C250 C 0.68362 0.29781 0.97322 0.0
C251 C 0.73364 0.30499 0.98976 0.0
C252 C 0.75093 0.3582 0.99789 0.0
C253 C 0.72101 0.40344 0.98802 0.0
H254 H 0.63412 0.68075 0.48376 0.0
H255 H 0.70413 0.57007 0.54714 0.0
H256 H 0.7161 0.74143 0.49103 0.0
H257 H 0.78454 0.63072 0.55472 0.0
H258 H 0.9455 0.723 0.54747 0.0
H259 H 0.86844 0.66385 0.53069 0.0
H260 H 0.75535 0.80235 0.52954 0.0
H261 H 0.83347 0.86234 0.54485 0.0
C262 C 0.66694 0.66927 0.49914 0.0
C263 C 0.66247 0.62056 0.51488 0.0
C264 C 0.71372 0.70411 0.50338 0.0
C265 C 0.75696 0.69075 0.52333 0.0
C266 C 0.75259 0.64179 0.53877 0.0
C267 C 0.70608 0.60716 0.53458 0.0
C268 C 0.90467 0.74124 0.54293 0.0
C269 C 0.89563 0.79744 0.54776 0.0
C270 C 0.86025 0.70713 0.53366 0.0
C271 C 0.80556 0.72826 0.52921 0.0
C272 C 0.79702 0.78482 0.53269 0.0
C273 C 0.84163 0.81908 0.54183 0.0
H274 H 0.57053 0.27545 0.47654 0.0
H275 H 0.68719 0.36788 0.53182 0.0
H276 H 0.64453 0.20839 0.46656 0.0
H277 H 0.7614 0.30226 0.52102 0.0
H278 H 0.88378 0.16601 0.50661 0.0
H279 H 0.79923 0.21268 0.525 0.0
H280 H 0.72807 0.20957 0.43743 0.0
H281 H 0.81158 0.16202 0.41943 0.0
C282 C 0.61175 0.2812 0.48678 0.0
C283 C 0.62315 0.3274 0.50466 0.0
C284 C 0.65426 0.24292 0.48095 0.0
C285 C 0.70918 0.25029 0.49265 0.0
C286 C 0.71952 0.29487 0.51185 0.0
C287 C 0.67694 0.33283 0.5179 0.0
C288 C 0.84966 0.17489 0.49145 0.0
C289 C 0.85426 0.16064 0.4616 0.0
C290 C 0.80131 0.20164 0.50193 0.0
C291 C 0.7569 0.21514 0.48268 0.0
C292 C 0.76085 0.199 0.45301 0.0
C293 C 0.80888 0.1719 0.44263 0.0
H294 H 0.35326 0.30028 0.48483 0.0
H295 H 0.26171 0.4137 0.54073 0.0
H296 H 0.28183 0.23091 0.49312 0.0
H297 H 0.18852 0.3445 0.54816 0.0
H298 H 0.13563 0.18125 0.5915 0.0
H299 H 0.18363 0.26329 0.57538 0.0
H300 H 0.18837 0.19694 0.48686 0.0
H301 H 0.14175 0.11369 0.50349 0.0
C302 C 0.3172 0.31086 0.49842 0.0
C303 C 0.31372 0.36234 0.51249 0.0
C304 C 0.27575 0.27106 0.50296 0.0
C305 C 0.22939 0.28185 0.52147 0.0
C306 C 0.22419 0.33444 0.53421 0.0
C307 C 0.26605 0.37419 0.52988 0.0
C308 C 0.14558 0.18484 0.56845 0.0
C309 C 0.13564 0.14096 0.5488 0.0
C310 C 0.17302 0.23203 0.55913 0.0
C311 C 0.19068 0.23658 0.52985 0.0
C312 C 0.17662 0.19427 0.50971 0.0
C313 C 0.14973 0.14673 0.51915 0.0
H314 H 0.3905 0.67782 0.45524 0.0
H315 H 0.30293 0.64677 0.53644 0.0
H316 H 0.32291 0.74918 0.44417 0.0
H317 H 0.23505 0.71952 0.52517 0.0
H318 H 0.18548 0.90654 0.4991 0.0
H319 H 0.2406 0.82856 0.5163 0.0
H320 H 0.21408 0.74575 0.43297 0.0
H321 H 0.15813 0.82251 0.41599 0.0
C322 C 0.35705 0.68639 0.47087 0.0
C323 C 0.35204 0.65639 0.49671 0.0
C324 C 0.31812 0.72707 0.46438 0.0
C325 C 0.27355 0.73926 0.48367 0.0
C326 C 0.26909 0.71061 0.50995 0.0
C327 C 0.30779 0.66905 0.51631 0.0
C328 C 0.1902 0.87108 0.48475 0.0
C329 C 0.16854 0.87112 0.45594 0.0
C330 C 0.22174 0.82659 0.4946 0.0
C331 C 0.23223 0.78181 0.47572 0.0
C332 C 0.20735 0.78033 0.44772 0.0
C333 C 0.17561 0.82436 0.43799 0.0
H334 H 0.06184 0.05873 0.11682 0.0
H335 H 0.90074 0.97797 0.12916 0.0
H336 H 0.07261 0.07095 0.16936 0.0
H337 H 0.91298 0.98666 0.18237 0.0
H338 H 0.93123 0.05278 0.2769 0.0
H339 H 0.9145 0.04346 0.22405 0.0
H340 H 0.09522 0.02391 0.2107 0.0
H341 H 0.11129 0.03703 0.26311 0.0
C342 C 0.02894 0.04301 0.13094 0.0
C343 C 0.98066 0.01706 0.11899 0.0
C344 C 0.03531 0.04952 0.16118 0.0
C345 C 0.99429 0.02887 0.18043 0.0
C346 C 0.94531 0.00359 0.16836 0.0
C347 C 0.93829 -0.0017 0.13789 0.0
C348 C 0.96706 0.04664 0.26242 0.0
C349 C 0.02249 0.04607 0.27374 0.0
C350 C 0.95761 0.04087 0.23219 0.0
C351 C 0.00348 0.03342 0.21281 0.0
C352 C 0.05884 0.03123 0.22461 0.0
C353 C 0.06824 0.03821 0.25467 0.0
H354 H 0.94915 0.91388 0.88747 0.0
H355 H 0.01856 0.07782 0.88805 0.0
H356 H 0.96203 0.90749 0.83458 0.0
H357 H 0.03108 0.07132 0.83498 0.0
H358 H 0.1138 0.00389 0.74913 0.0
H359 H 0.0936 0.01755 0.80109 0.0
H360 H 0.92675 0.94712 0.78812 0.0
H361 H 0.94634 0.93436 0.73599 0.0
C362 C 0.96669 0.94877 0.87631 0.0
C363 C 0.98305 -0.00371 0.89206 0.0
C364 C 0.97377 0.94516 0.84595 0.0
C365 C -0.00226 0.98882 0.83064 0.0
C366 C 0.01304 0.03679 0.84625 0.0
C367 C 0.00552 0.0406 0.87662 0.0
C368 C 0.07243 0.99211 0.7572 0.0
C369 C 0.03178 0.96785 0.73831 0.0
C370 C 0.06091 -8e-05 0.78701 0.0
C371 C 0.00862 0.98334 0.79869 0.0
C372 C 0.96771 0.95968 0.77981 0.0
C373 C 0.97906 0.9522 0.74996 0.0
H374 H 0.58023 0.48176 0.624 0.0
H375 H 0.40297 0.52595 0.62943 0.0
H376 H 0.58974 0.4937 0.67668 0.0
H377 H 0.41299 0.53831 0.68266 0.0
H378 H 0.44852 0.50279 0.78165 0.0
H379 H 0.43351 0.48613 0.72901 0.0
H380 H 0.58895 0.57313 0.71077 0.0
H381 H 0.60445 0.58874 0.76305 0.0
C382 C 0.5431 0.49388 0.63639 0.0
C383 C 0.49085 0.50328 0.62232 0.0
C384 C 0.54874 0.50099 0.66666 0.0
C385 C 0.50232 0.51753 0.6838 0.0
C386 C 0.4495 0.52536 0.67001 0.0
C387 C 0.44384 0.51849 0.63952 0.0
C388 C 0.47959 0.51799 0.76634 0.0
C389 C 0.5277 0.54705 0.77651 0.0
C390 C 0.47071 0.50892 0.73624 0.0
C391 C 0.51012 0.52817 0.71576 0.0
C392 C 0.55809 0.55725 0.72599 0.0
C393 C 0.56672 0.56664 0.75595 0.0
H394 H 0.53455 0.56351 0.38957 0.0
H395 H 0.46288 0.40052 0.39012 0.0
H396 H 0.54567 0.55618 0.33649 0.0
H397 H 0.47448 0.39323 0.33714 0.0
H398 H 0.45293 0.4215 0.2386 0.0
H399 H 0.43746 0.43244 0.29121 0.0
H400 H 0.6048 0.50327 0.30129 0.0
H401 H 0.62082 0.49156 0.24882 0.0
C402 C 0.52096 0.5262 0.37841 0.0
C403 C 0.49792 0.48256 0.39419 0.0
C404 C 0.52766 0.52192 0.348 0.0
C405 C 0.5111 0.47408 0.33261 0.0
C406 C 0.48715 0.43084 0.3483 0.0
C407 C 0.4808 0.43495 0.37872 0.0
C408 C 0.48666 0.439 0.25203 0.0
C409 C 0.53821 0.45551 0.23938 0.0
C410 C 0.4777 0.44538 0.28219 0.0
C411 C 0.51989 0.46872 0.30043 0.0
C412 C 0.57112 0.48587 0.28778 0.0
C413 C 0.58024 0.4792 0.25765 0.0
loop_
_geom_bond_atom_site_label_1
_geom_bond_atom_site_label_2
_geom_bond_distance
_geom_bond_site_symmetry_2
_ccdc_geom_bond_type
O0 Zn1 1.953 . S
O0 C16 1.225 1_565 S
Zn1 O0 1.953 . S
Zn1 O2 1.949 1_565 S
Zn1 O8 1.919 . S
Zn1 O13 1.924 1_565 S
O2 Zn1 1.949 1_545 S
O2 Zn3 1.923 1_444 S
O2 Zn4 1.950 1_455 S
O2 Zn5 1.945 1_554 S
Zn3 O2 1.923 1_666 S
Zn3 O6 1.933 . S
Zn3 O9 1.941 1_655 S
Zn3 O10 1.965 . S
Zn4 O2 1.950 1_655 S
Zn4 O11 1.938 1_545 S
Zn4 O12 1.906 . S
Zn4 O22 1.953 . S
Zn5 O2 1.945 1_556 S
Zn5 O7 1.932 . S
Zn5 O14 1.977 1_455 S
Zn5 O15 1.910 . S
O6 Zn3 1.933 . S
O6 C17 1.226 1_665 S
O7 Zn5 1.932 . S
O7 C17 1.307 . S
O8 Zn1 1.919 . S
O8 C19 1.253 1_554 S
O9 Zn3 1.941 1_455 S
O9 C19 1.283 . S
O10 Zn3 1.965 . S
O10 C18 1.303 1_556 S
O11 Zn4 1.938 1_565 S
O11 C18 1.247 . S
O12 Zn4 1.906 . S
O12 C20 1.304 1_554 S
O13 Zn1 1.924 1_545 S
O13 C21 1.311 . S
O14 Zn5 1.977 1_655 S
O14 C20 1.272 . S
O15 Zn5 1.910 . S
O15 C21 1.231 1_556 S
C16 O0 1.225 1_545 S
C16 O22 1.298 1_455 S
C17 O6 1.226 1_445 S
C17 O7 1.307 . S
C18 O10 1.303 1_554 S
C18 O11 1.247 . S
C19 O8 1.253 1_556 S
C19 O9 1.283 . S
C20 O12 1.304 1_556 S
C20 O14 1.272 . S
C21 O13 1.311 . S
C21 O15 1.231 1_554 S
O22 Zn4 1.953 . S
O22 C16 1.298 1_655 S
O23 Zn24 1.953 . S
O23 C39 1.225 . S
Zn24 O23 1.953 . S
Zn24 O25 1.949 . S
Zn24 O31 1.919 . S
Zn24 O36 1.924 . S
O25 Zn24 1.949 . S
O25 Zn26 1.923 . S
O25 Zn27 1.950 . S
O25 Zn28 1.945 . S
Zn26 O25 1.923 . S
Zn26 O29 1.933 . S
Zn26 O32 1.941 . S
Zn26 O33 1.965 . S
Zn27 O25 1.950 . S
Zn27 O34 1.938 . S
Zn27 O35 1.906 . S
Zn27 O45 1.953 . S
Zn28 O25 1.945 . S
Zn28 O30 1.932 . S
Zn28 O37 1.977 . S
Zn28 O38 1.910 . S
O29 Zn26 1.933 . S
O29 C40 1.226 . S
O30 Zn28 1.932 . S
O30 C40 1.307 . S
O31 Zn24 1.919 . S
O31 C42 1.253 . S
O32 Zn26 1.941 . S
O32 C42 1.283 . S
O33 Zn26 1.965 . S
O33 C41 1.303 . S
O34 Zn27 1.938 . S
O34 C41 1.247 . S
O35 Zn27 1.906 . S
O35 C43 1.304 . S
O36 Zn24 1.924 . S
O36 C44 1.311 . S
O37 Zn28 1.977 . S
O37 C43 1.272 . S
O38 Zn28 1.910 . S
O38 C44 1.231 . S
C39 O23 1.225 . S
C39 O45 1.298 . S
C40 O29 1.226 . S
C40 O30 1.307 . S
C41 O33 1.303 . S
C41 O34 1.247 . S
C42 O31 1.253 . S
C42 O32 1.283 . S
C43 O35 1.304 . S
C43 O37 1.272 . S
C44 O36 1.311 . S
C44 O38 1.231 . S
O45 Zn27 1.953 . S
O45 C39 1.298 . S
P46 O57 1.490 . S
P46 C60 1.812 1_455 S
P46 C66 1.803 1_545 S
P46 C72 1.819 . S
H47 C61 0.941 1_455 S
H48 C62 0.939 . S
H49 C64 0.940 . S
H50 C65 0.940 . S
H51 C67 0.939 1_545 S
H52 C68 0.942 . S
H53 C70 0.940 . S
H54 C71 0.939 . S
H55 C73 0.941 . S
H56 C77 0.939 . S
O57 P46 1.490 . S
H58 C74 0.939 . S
H59 C76 0.940 . S
C60 P46 1.812 1_655 S
C60 C61 1.389 . S
C60 C65 1.391 . S
C61 H47 0.941 1_655 S
C61 C60 1.389 . S
C61 C62 1.397 . S
C62 H48 0.939 . S
C62 C61 1.397 . S
C62 C63 1.378 . S
C63 C62 1.378 . S
C63 C64 1.378 . S
C64 H49 0.940 . S
C64 C63 1.378 . S
C64 C65 1.396 . S
C65 H50 0.940 . S
C65 C60 1.391 . S
C65 C64 1.396 . S
C66 P46 1.803 1_565 S
C66 C67 1.378 . S
C66 C71 1.400 . S
C67 H51 0.939 1_565 S
C67 C66 1.378 . S
C67 C68 1.361 . S
C68 H52 0.942 . S
C68 C67 1.361 . S
C68 C69 1.369 . S
C69 C68 1.369 . S
C69 C70 1.404 . S
C70 H53 0.940 . S
C70 C69 1.404 . S
C70 C71 1.389 . S
C71 H54 0.939 . S
C71 C66 1.400 . S
C71 C70 1.389 . S
C72 P46 1.819 . S
C72 C73 1.391 . S
C72 C77 1.391 1_545 S
C73 H55 0.941 . S
C73 C72 1.391 . S
C73 C74 1.396 . S
C74 H58 0.939 . S
C74 C73 1.396 . S
C74 C75 1.397 . S
C75 C74 1.397 . S
C75 C76 1.385 1_545 S
C76 H59 0.940 . S
C76 C75 1.385 1_565 S
C76 C77 1.388 . S
C77 H56 0.939 . S
C77 C72 1.391 1_565 S
C77 C76 1.388 . S
P78 O89 1.490 . S
P78 C92 1.812 . S
P78 C98 1.803 1_565 S
P78 C104 1.819 . S
H79 C93 0.941 . S
H80 C94 0.939 . S
H81 C96 0.940 . S
H82 C97 0.940 . S
H83 C99 0.948 . S
H84 C100 0.942 . S
H85 C102 0.940 . S
H86 C103 0.939 . S
H87 C105 0.941 . S
H88 C109 0.939 . S
O89 P78 1.490 . S
H90 C106 0.939 . S
H91 C108 0.940 . S
C92 P78 1.812 . S
C92 C93 1.389 . S
C92 C97 1.391 1_455 S
C93 H79 0.941 . S
C93 C92 1.389 . S
C93 C94 1.397 1_455 S
C94 H80 0.939 . S
C94 C93 1.397 1_655 S
C94 C95 1.378 . S
C95 C94 1.378 . S
C95 C96 1.378 . S
C96 H81 0.940 . S
C96 C95 1.378 . S
C96 C97 1.396 . S
C97 H82 0.940 . S
C97 C92 1.391 1_655 S
C97 C96 1.396 . S
C98 P78 1.803 1_545 S
C98 C99 1.378 . S
C98 C103 1.400 . S
C99 H83 0.948 . S
C99 C98 1.378 . S
C99 C100 1.361 . S
C100 H84 0.942 . S
C100 C99 1.361 . S
C100 C101 1.369 . S
C101 C100 1.369 . S
C101 C102 1.404 . S
C102 H85 0.940 . S
C102 C101 1.404 . S
C102 C103 1.389 . S
C103 H86 0.939 . S
C103 C98 1.400 . S
C103 C102 1.389 . S
C104 P78 1.819 . S
C104 C105 1.391 . S
C104 C109 1.391 1_565 S
C105 H87 0.941 . S
C105 C104 1.391 . S
C105 C106 1.396 . S
C106 H90 0.939 . S
C106 C105 1.396 . S
C106 C107 1.397 . S
C107 C106 1.397 . S
C107 C108 1.385 1_565 S
C108 H91 0.940 . S
C108 C107 1.385 1_545 S
C108 C109 1.388 . S
C109 H88 0.939 . S
C109 C104 1.391 1_545 S
C109 C108 1.388 . S
P110 O121 1.490 . S
P110 C124 1.812 . S
P110 C130 1.803 . S
P110 C136 1.819 . S
H111 C125 0.941 . S
H112 C126 0.939 . S
H113 C128 0.940 . S
H114 C129 0.940 . S
H115 C131 0.939 . S
H116 C132 0.942 . S
H117 C134 0.940 . S
H118 C135 0.939 . S
H119 C137 0.941 . S
H120 C141 0.939 . S
O121 P110 1.490 . S
H122 C138 0.939 . S
H123 C140 0.940 . S
C124 P110 1.812 . S
C124 C125 1.389 . S
C124 C129 1.391 . S
C125 H111 0.941 . S
C125 C124 1.389 . S
C125 C126 1.397 . S
C126 H112 0.939 . S
C126 C125 1.397 . S
C126 C127 1.378 . S
C127 C126 1.378 . S
C127 C128 1.378 . S
C128 H113 0.940 . S
C128 C127 1.378 . S
C128 C129 1.396 . S
C129 H114 0.940 . S
C129 C124 1.391 . S
C129 C128 1.396 . S
C130 P110 1.803 . S
C130 C131 1.378 . S
C130 C135 1.400 . S
C131 H115 0.939 . S
C131 C130 1.378 . S
C131 C132 1.361 . S
C132 H116 0.942 . S
C132 C131 1.361 . S
C132 C133 1.369 . S
C133 C132 1.369 . S
C133 C134 1.404 . S
C134 H117 0.940 . S
C134 C133 1.404 . S
C134 C135 1.389 . S
C135 H118 0.939 . S
C135 C130 1.400 . S
C135 C134 1.389 . S
C136 P110 1.819 . S
C136 C137 1.391 . S
C136 C141 1.391 . S
C137 H119 0.941 . S
C137 C136 1.391 . S
C137 C138 1.396 . S
C138 H122 0.939 . S
C138 C137 1.396 . S
C138 C139 1.397 . S
C139 C138 1.397 . S
C139 C140 1.385 . S
C140 H123 0.940 . S
C140 C139 1.385 . S
C140 C141 1.388 . S
C141 H120 0.939 . S
C141 C136 1.391 . S
C141 C140 1.388 . S
P142 O153 1.490 . S
P142 C156 1.812 . S
P142 C162 1.803 . S
P142 C168 1.819 . S
H143 C157 0.941 . S
H144 C158 0.939 . S
H145 C160 0.940 . S
H146 C161 0.940 . S
H147 C163 0.939 . S
H148 C164 0.942 . S
H149 C166 0.940 . S
H150 C167 0.939 . S
H151 C169 0.941 . S
H152 C173 0.939 . S
O153 P142 1.490 . S
H154 C170 0.939 . S
H155 C172 0.940 . S
C156 P142 1.812 . S
C156 C157 1.389 . S
C156 C161 1.391 . S
C157 H143 0.941 . S
C157 C156 1.389 . S
C157 C158 1.397 . S
C158 H144 0.939 . S
C158 C157 1.397 . S
C158 C159 1.378 . S
C159 C158 1.378 . S
C159 C160 1.378 . S
C160 H145 0.940 . S
C160 C159 1.378 . S
C160 C161 1.396 . S
C161 H146 0.940 . S
C161 C156 1.391 . S
C161 C160 1.396 . S
C162 P142 1.803 . S
C162 C163 1.378 . S
C162 C167 1.400 . S
C163 H147 0.939 . S
C163 C162 1.378 . S
C163 C164 1.361 . S
C164 H148 0.942 . S
C164 C163 1.361 . S
C164 C165 1.369 . S
C165 C164 1.369 . S
C165 C166 1.404 . S
C166 H149 0.940 . S
C166 C165 1.404 . S
C166 C167 1.389 . S
C167 H150 0.939 . S
C167 C162 1.400 . S
C167 C166 1.389 . S
C168 P142 1.819 . S
C168 C169 1.391 . S
C168 C173 1.391 . S
C169 H151 0.941 . S
C169 C168 1.391 . S
C169 C170 1.396 . S
C170 H154 0.939 . S
C170 C169 1.396 . S
C170 C171 1.397 . S
C171 C170 1.397 . S
C171 C172 1.385 . S
C172 H155 0.940 . S
C172 C171 1.385 . S
C172 C173 1.388 . S
C173 H152 0.939 . S
C173 C168 1.391 . S
C173 C172 1.388 . S
H174 C182 0.950 . S
H175 C187 0.950 . S
H176 C184 0.950 . S
H177 C186 0.950 . S
H178 C188 0.950 . S
H179 C190 0.950 . S
H180 C192 0.950 . S
H181 C193 0.950 . S
C182 H174 0.950 . S
C182 C183 1.386 . S
C182 C184 1.391 . S
C183 C182 1.386 . S
C183 C187 1.393 . S
C184 H176 0.950 . S
C184 C182 1.391 . S
C184 C185 1.400 . S
C185 C184 1.400 . S
C185 C186 1.398 . S
C185 C191 1.491 . S
C186 H177 0.950 . S
C186 C185 1.398 . S
C186 C187 1.391 . S
C187 H175 0.950 . S
C187 C183 1.393 . S
C187 C186 1.391 . S
C188 H178 0.950 . S
C188 C189 1.386 . S
C188 C190 1.391 . S
C189 C188 1.386 . S
C189 C193 1.393 . S
C190 H179 0.950 . S
C190 C188 1.391 . S
C190 C191 1.400 . S
C191 C185 1.491 . S
C191 C190 1.400 . S
C191 C192 1.398 . S
C192 H180 0.950 . S
C192 C191 1.398 . S
C192 C193 1.391 . S
C193 H181 0.950 . S
C193 C189 1.393 . S
C193 C192 1.391 . S
H194 C202 0.950 . S
H195 C207 0.950 . S
H196 C204 0.950 . S
H197 C206 0.950 . S
H198 C208 0.950 . S
H199 C210 0.950 . S
H200 C212 0.950 . S
H201 C213 0.950 . S
C202 H194 0.950 . S
C202 C203 1.386 . S
C202 C204 1.391 . S
C203 C202 1.386 . S
C203 C207 1.393 . S
C204 H196 0.950 . S
C204 C202 1.391 . S
C204 C205 1.400 . S
C205 C204 1.400 . S
C205 C206 1.398 . S
C205 C211 1.491 . S
C206 H197 0.950 . S
C206 C205 1.398 . S
C206 C207 1.391 . S
C207 H195 0.950 . S
C207 C203 1.393 . S
C207 C206 1.391 . S
C208 H198 0.950 . S
C208 C209 1.386 . S
C208 C210 1.391 . S
C209 C208 1.386 . S
C209 C213 1.393 . S
C210 H199 0.950 . S
C210 C208 1.391 . S
C210 C211 1.400 . S
C211 C205 1.491 . S
C211 C210 1.400 . S
C211 C212 1.398 . S
C212 H200 0.950 . S
C212 C211 1.398 . S
C212 C213 1.391 . S
C213 H201 0.950 . S
C213 C209 1.393 . S
C213 C212 1.391 . S
H214 C222 0.950 . S
H215 C227 0.950 . S
H216 C224 0.950 . S
H217 C226 0.950 . S
H218 C228 0.950 . S
H219 C230 0.950 . S
H220 C232 0.950 . S
H221 C233 0.950 . S
C222 H214 0.950 . S
C222 C223 1.386 . S
C222 C224 1.391 . S
C223 C222 1.386 . S
C223 C227 1.393 . S
C224 H216 0.950 . S
C224 C222 1.391 . S
C224 C225 1.400 . S
C225 C224 1.400 . S
C225 C226 1.398 . S
C225 C231 1.491 . S
C226 H217 0.950 . S
C226 C225 1.398 . S
C226 C227 1.391 . S
C227 H215 0.950 . S
C227 C223 1.393 . S
C227 C226 1.391 . S
C228 H218 0.950 . S
C228 C229 1.386 . S
C228 C230 1.391 . S
C229 C228 1.386 . S
C229 C233 1.393 . S
C230 H219 0.950 . S
C230 C228 1.391 . S
C230 C231 1.400 . S
C231 C225 1.491 . S
C231 C230 1.400 . S
C231 C232 1.398 . S
C232 H220 0.950 . S
C232 C231 1.398 . S
C232 C233 1.391 . S
C233 H221 0.950 . S
C233 C229 1.393 . S
C233 C232 1.391 . S
H234 C242 0.950 1_554 S
H235 C247 0.950 . S
H236 C244 0.950 1_554 S
H237 C246 0.950 . S
H238 C248 0.950 . S
H239 C250 0.950 . S
H240 C252 0.950 . S
H241 C253 0.950 . S
C242 H234 0.950 1_556 S
C242 C243 1.386 . S
C242 C244 1.391 . S
C243 C242 1.386 . S
C243 C247 1.393 . S
C244 H236 0.950 1_556 S
C244 C242 1.391 . S
C244 C245 1.400 . S
C245 C244 1.400 . S
C245 C246 1.398 . S
C245 C251 1.491 . S
C246 H237 0.950 . S
C246 C245 1.398 . S
C246 C247 1.391 . S
C247 H235 0.950 . S
C247 C243 1.393 . S
C247 C246 1.391 . S
C248 H238 0.950 . S
C248 C249 1.386 . S
C248 C250 1.391 . S
C249 C248 1.386 . S
C249 C253 1.393 . S
C250 H239 0.950 . S
C250 C248 1.391 . S
C250 C251 1.400 . S
C251 C245 1.491 . S
C251 C250 1.400 . S
C251 C252 1.398 . S
C252 H240 0.950 . S
C252 C251 1.398 . S
C252 C253 1.391 . S
C253 H241 0.950 . S
C253 C249 1.393 . S
C253 C252 1.391 . S
H254 C262 0.950 . S
H255 C267 0.950 . S
H256 C264 0.950 . S
H257 C266 0.950 . S
H258 C268 0.950 . S
H259 C270 0.950 . S
H260 C272 0.950 . S
H261 C273 0.950 . S
C262 H254 0.950 . S
C262 C263 1.386 . S
C262 C264 1.391 . S
C263 C262 1.386 . S
C263 C267 1.393 . S
C264 H256 0.950 . S
C264 C262 1.391 . S
C264 C265 1.400 . S
C265 C264 1.400 . S
C265 C266 1.398 . S
C265 C271 1.491 . S
C266 H257 0.950 . S
C266 C265 1.398 . S
C266 C267 1.391 . S
C267 H255 0.950 . S
C267 C263 1.393 . S
C267 C266 1.391 . S
C268 H258 0.950 . S
C268 C269 1.386 . S
C268 C270 1.391 . S
C269 C268 1.386 . S
C269 C273 1.393 . S
C270 H259 0.950 . S
C270 C268 1.391 . S
C270 C271 1.400 . S
C271 C265 1.491 . S
C271 C270 1.400 . S
C271 C272 1.398 . S
C272 H260 0.950 . S
C272 C271 1.398 . S
C272 C273 1.391 . S
C273 H261 0.950 . S
C273 C269 1.393 . S
C273 C272 1.391 . S
H274 C282 0.950 . S
H275 C287 0.950 . S
H276 C284 0.950 . S
H277 C286 0.950 . S
H278 C288 0.950 . S
H279 C290 0.950 . S
H280 C292 0.950 . S
H281 C293 0.950 . S
C282 H274 0.950 . S
C282 C283 1.386 . S
C282 C284 1.391 . S
C283 C282 1.386 . S
C283 C287 1.393 . S
C284 H276 0.950 . S
C284 C282 1.391 . S
C284 C285 1.400 . S
C285 C284 1.400 . S
C285 C286 1.398 . S
C285 C291 1.491 . S
C286 H277 0.950 . S
C286 C285 1.398 . S
C286 C287 1.391 . S
C287 H275 0.950 . S
C287 C283 1.393 . S
C287 C286 1.391 . S
C288 H278 0.950 . S
C288 C289 1.386 . S
C288 C290 1.391 . S
C289 C288 1.386 . S
C289 C293 1.393 . S
C290 H279 0.950 . S
C290 C288 1.391 . S
C290 C291 1.400 . S
C291 C285 1.491 . S
C291 C290 1.400 . S
C291 C292 1.398 . S
C292 H280 0.950 . S
C292 C291 1.398 . S
C292 C293 1.391 . S
C293 H281 0.950 . S
C293 C289 1.393 . S
C293 C292 1.391 . S
H294 C302 0.950 . S
H295 C307 0.950 . S
H296 C304 0.950 . S
H297 C306 0.950 . S
H298 C308 0.950 . S
H299 C310 0.950 . S
H300 C312 0.950 . S
H301 C313 0.950 . S
C302 H294 0.950 . S
C302 C303 1.386 . S
C302 C304 1.391 . S
C303 C302 1.386 . S
C303 C307 1.393 . S
C304 H296 0.950 . S
C304 C302 1.391 . S
C304 C305 1.400 . S
C305 C304 1.400 . S
C305 C306 1.398 . S
C305 C311 1.491 . S
C306 H297 0.950 . S
C306 C305 1.398 . S
C306 C307 1.391 . S
C307 H295 0.950 . S
C307 C303 1.393 . S
C307 C306 1.391 . S
C308 H298 0.950 . S
C308 C309 1.386 . S
C308 C310 1.391 . S
C309 C308 1.386 . S
C309 C313 1.393 . S
C310 H299 0.950 . S
C310 C308 1.391 . S
C310 C311 1.400 . S
C311 C305 1.491 . S
C311 C310 1.400 . S
C311 C312 1.398 . S
C312 H300 0.950 . S
C312 C311 1.398 . S
C312 C313 1.391 . S
C313 H301 0.950 . S
C313 C309 1.393 . S
C313 C312 1.391 . S
H314 C322 0.950 . S
H315 C327 0.950 . S
H316 C324 0.950 . S
H317 C326 0.950 . S
H318 C328 0.950 . S
H319 C330 0.950 . S
H320 C332 0.950 . S
H321 C333 0.950 . S
C322 H314 0.950 . S
C322 C323 1.386 . S
C322 C324 1.391 . S
C323 C322 1.386 . S
C323 C327 1.393 . S
C324 H316 0.950 . S
C324 C322 1.391 . S
C324 C325 1.400 . S
C325 C324 1.400 . S
C325 C326 1.398 . S
C325 C331 1.491 . S
C326 H317 0.950 . S
C326 C325 1.398 . S
C326 C327 1.391 . S
C327 H315 0.950 . S
C327 C323 1.393 . S
C327 C326 1.391 . S
C328 H318 0.950 . S
C328 C329 1.386 . S
C328 C330 1.391 . S
C329 C328 1.386 . S
C329 C333 1.393 . S
C330 H319 0.950 . S
C330 C328 1.391 . S
C330 C331 1.400 . S
C331 C325 1.491 . S
C331 C330 1.400 . S
C331 C332 1.398 . S
C332 H320 0.950 . S
C332 C331 1.398 . S
C332 C333 1.391 . S
C333 H321 0.950 . S
C333 C329 1.393 . S
C333 C332 1.391 . S
H334 C342 0.950 . S
H335 C347 0.950 . S
H336 C344 0.950 . S
H337 C346 0.950 . S
H338 C348 0.950 . S
H339 C350 0.950 . S
H340 C352 0.950 . S
H341 C353 0.950 . S
C342 H334 0.950 . S
C342 C343 1.386 . S
C342 C344 1.391 . S
C343 C342 1.386 . S
C343 C347 1.393 1_445 S
C344 H336 0.950 . S
C344 C342 1.391 . S
C344 C345 1.400 . S
C345 C344 1.400 . S
C345 C346 1.398 1_445 S
C345 C351 1.491 . S
C346 H337 0.950 . S
C346 C345 1.398 1_665 S
C346 C347 1.391 . S
C347 H335 0.950 . S
C347 C343 1.393 1_665 S
C347 C346 1.391 . S
C348 H338 0.950 . S
C348 C349 1.379 1_665 S
C348 C350 1.391 . S
C349 C348 1.379 1_445 S
C349 C353 1.400 . S
C350 H339 0.950 . S
C350 C348 1.391 . S
C350 C351 1.400 1_665 S
C351 C345 1.491 . S
C351 C350 1.400 1_445 S
C351 C352 1.398 . S
C352 H340 0.950 . S
C352 C351 1.398 . S
C352 C353 1.391 . S
C353 H341 0.950 . S
C353 C349 1.400 . S
C353 C352 1.391 . S
H354 C362 0.950 . S
H355 C367 0.950 . S
H356 C364 0.950 . S
H357 C366 0.950 . S
H358 C368 0.950 . S
H359 C370 0.950 . S
H360 C372 0.950 . S
H361 C373 0.950 . S
C362 H354 0.950 . S
C362 C363 1.386 1_665 S
C362 C364 1.391 . S
C363 C362 1.386 1_445 S
C363 C367 1.393 . S
C364 H356 0.950 . S
C364 C362 1.391 . S
C364 C365 1.400 1_665 S
C365 C364 1.400 1_445 S
C365 C366 1.398 . S
C365 C371 1.491 . S
C366 H357 0.950 . S
C366 C365 1.398 . S
C366 C367 1.391 . S
C367 H355 0.950 . S
C367 C363 1.393 . S
C367 C366 1.391 . S
C368 H358 0.950 . S
C368 C369 1.378 1_545 S
C368 C370 1.391 . S
C369 C368 1.378 1_565 S
C369 C373 1.401 1_455 S
C370 H359 0.950 . S
C370 C368 1.391 . S
C370 C371 1.400 . S
C371 C365 1.491 . S
C371 C370 1.400 . S
C371 C372 1.398 1_445 S
C372 H360 0.950 . S
C372 C371 1.398 1_665 S
C372 C373 1.391 . S
C373 H361 0.950 . S
C373 C369 1.401 1_655 S
C373 C372 1.391 . S
H374 C382 0.950 . S
H375 C387 0.950 . S
H376 C384 0.950 . S
H377 C386 0.950 . S
H378 C388 0.950 . S
H379 C390 0.950 . S
H380 C392 0.950 . S
H381 C393 0.950 . S
C382 H374 0.950 . S
C382 C383 1.386 . S
C382 C384 1.391 . S
C383 C382 1.386 . S
C383 C387 1.393 . S
C384 H376 0.950 . S
C384 C382 1.391 . S
C384 C385 1.400 . S
C385 C384 1.400 . S
C385 C386 1.398 . S
C385 C391 1.491 . S
C386 H377 0.950 . S
C386 C385 1.398 . S
C386 C387 1.391 . S
C387 H375 0.950 . S
C387 C383 1.393 . S
C387 C386 1.391 . S
C388 H378 0.950 . S
C388 C389 1.386 . S
C388 C390 1.391 . S
C389 C388 1.386 . S
C389 C393 1.393 . S
C390 H379 0.950 . S
C390 C388 1.391 . S
C390 C391 1.400 . S
C391 C385 1.491 . S
C391 C390 1.400 . S
C391 C392 1.398 . S
C392 H380 0.950 . S
C392 C391 1.398 . S
C392 C393 1.391 . S
C393 H381 0.950 . S
C393 C389 1.393 . S
C393 C392 1.391 . S
H394 C402 0.950 . S
H395 C407 0.950 . S
H396 C404 0.950 . S
H397 C406 0.950 . S
H398 C408 0.950 . S
H399 C410 0.950 . S
H400 C412 0.950 . S
H401 C413 0.950 . S
C402 H394 0.950 . S
C402 C403 1.386 . S
C402 C404 1.391 . S
C403 C402 1.386 . S
C403 C407 1.393 . S
C404 H396 0.950 . S
C404 C402 1.391 . S
C404 C405 1.400 . S
C405 C404 1.400 . S
C405 C406 1.398 . S
C405 C411 1.491 . S
C406 H397 0.950 . S
C406 C405 1.398 . S
C406 C407 1.391 . S
C407 H395 0.950 . S
C407 C403 1.393 . S
C407 C406 1.391 . S
C408 H398 0.950 . S
C408 C409 1.386 . S
C408 C410 1.391 . S
C409 C408 1.386 . S
C409 C413 1.393 . S
C410 H399 0.950 . S
C410 C408 1.391 . S
C410 C411 1.400 . S
C411 C405 1.491 . S
C411 C410 1.400 . S
C411 C412 1.398 . S
C412 H400 0.950 . S
C412 C411 1.398 . S
C412 C413 1.391 . S
C413 H401 0.950 . S
C413 C409 1.393 . S
C413 C412 1.391 . S
C189 C159 1.432 . S
C183 C21 1.443 . S
C203 C19 1.438 . S
C209 C127 1.424 . S
C223 C18 1.397 . S
C229 C165 1.384 . S
C243 C20 1.421 . S
C249 C133 1.407 . S
C263 C44 1.443 . S
C269 C95 1.432 . S
C283 C42 1.438 . S
C289 C63 1.426 . S
C309 C101 1.393 . S
C303 C41 1.403 . S
C329 C69 1.390 . S
C323 C43 1.427 . S
C343 C16 1.496 . S
C349 C75 1.455 . S
C363 C17 1.459 . S
C369 C107 1.422 . S
C389 C139 1.460 . S
C383 C39 1.496 . S
C403 C40 1.461 . S
C409 C171 1.441 . S
