# Generated by pormake.
# Topology nom, (4,4)-cn, num edge types: 1
# Building blocks:
#     Node 0, Type 0, BuildingBlock: AZAVOO_clean_linker_0, # of connection points: 4
#     Node 1, Type 0, BuildingBlock: AZAVOO_clean_linker_0, # of connection points: 4
#     Node 2, Type 0, BuildingBlock: AZAVOO_clean_linker_0, # of connection points: 4
#     Node 3, Type 0, BuildingBlock: AZAVOO_clean_linker_0, # of connection points: 4
#     Node 4, Type 0, BuildingBlock: AZAVOO_clean_linker_0, # of connection points: 4
#     Node 5, Type 0, BuildingBlock: AZAVOO_clean_linker_0, # of connection points: 4
#     Node 6, Type 1, BuildingBlock: QUQFOY_clean_sbu_1, # of connection points: 4
#     Node 7, Type 1, BuildingBlock: QUQFOY_clean_sbu_1, # of connection points: 4
#     Node 8, Type 1, BuildingBlock: QUQFOY_clean_sbu_1, # of connection points: 4
#     Node 9, Type 1, BuildingBlock: QUQFOY_clean_sbu_1, # of connection points: 4
#     Node 10, Type 1, BuildingBlock: QUQFOY_clean_sbu_1, # of connection points: 4
#     Node 11, Type 1, BuildingBlock: QUQFOY_clean_sbu_1, # of connection points: 4
#     Edge 12, Type (0, 1), BuildingBlock: CIFDUS_clean_linker_0, # of connection points: 2
#     Edge 13, Type (0, 1), BuildingBlock: CIFDUS_clean_linker_0, # of connection points: 2
#     Edge 14, Type (0, 1), BuildingBlock: CIFDUS_clean_linker_0, # of connection points: 2
#     Edge 15, Type (0, 1), BuildingBlock: CIFDUS_clean_linker_0, # of connection points: 2
#     Edge 16, Type (0, 1), BuildingBlock: CIFDUS_clean_linker_0, # of connection points: 2
#     Edge 17, Type (0, 1), BuildingBlock: CIFDUS_clean_linker_0, # of connection points: 2
#     Edge 18, Type (0, 1), BuildingBlock: CIFDUS_clean_linker_0, # of connection points: 2
#     Edge 19, Type (0, 1), BuildingBlock: CIFDUS_clean_linker_0, # of connection points: 2
#     Edge 20, Type (0, 1), BuildingBlock: CIFDUS_clean_linker_0, # of connection points: 2
#     Edge 21, Type (0, 1), BuildingBlock: CIFDUS_clean_linker_0, # of connection points: 2
#     Edge 22, Type (0, 1), BuildingBlock: CIFDUS_clean_linker_0, # of connection points: 2
#     Edge 23, Type (0, 1), BuildingBlock: CIFDUS_clean_linker_0, # of connection points: 2
#     Edge 24, Type (0, 1), BuildingBlock: CIFDUS_clean_linker_0, # of connection points: 2
#     Edge 25, Type (0, 1), BuildingBlock: CIFDUS_clean_linker_0, # of connection points: 2
#     Edge 26, Type (0, 1), BuildingBlock: CIFDUS_clean_linker_0, # of connection points: 2
#     Edge 27, Type (0, 1), BuildingBlock: CIFDUS_clean_linker_0, # of connection points: 2
#     Edge 28, Type (0, 1), BuildingBlock: CIFDUS_clean_linker_0, # of connection points: 2
#     Edge 29, Type (0, 1), BuildingBlock: CIFDUS_clean_linker_0, # of connection points: 2
#     Edge 30, Type (0, 1), BuildingBlock: CIFDUS_clean_linker_0, # of connection points: 2
#     Edge 31, Type (0, 1), BuildingBlock: CIFDUS_clean_linker_0, # of connection points: 2
#     Edge 32, Type (0, 1), BuildingBlock: CIFDUS_clean_linker_0, # of connection points: 2
#     Edge 33, Type (0, 1), BuildingBlock: CIFDUS_clean_linker_0, # of connection points: 2
#     Edge 34, Type (0, 1), BuildingBlock: CIFDUS_clean_linker_0, # of connection points: 2
#     Edge 35, Type (0, 1), BuildingBlock: CIFDUS_clean_linker_0, # of connection points: 2
# Relax obj value: 0.183
# Max RMSD: 0.249
# Mean RMSD: 0.188
data_MOF--net-nom--node1-QUQFOY_clean_sbu_1--node2-AZAVOO_clean_linker_0--edge1-CIFDUS_clean_linker_0
_symmetry_space_group_name_H-M    P1
_symmetry_Int_Tables_number       1
_symmetry_cell_setting            triclinic
loop_
_symmetry_equiv_pos_as_xyz
'x, y, z'
_cell_length_a     44.787823
_cell_length_b     46.365053
_cell_length_c     51.283986
_cell_angle_alpha  90.281709
_cell_angle_beta   89.671362
_cell_angle_gamma 120.89639
loop_
_atom_site_label
_atom_site_type_symbol
_atom_site_fract_x
_atom_site_fract_y
_atom_site_fract_z
_atom_type_partial_charge
H0 H 0.03619 0.42532 0.163 0.0
H1 H 0.23877 0.6727 0.38933 0.0
H2 H 0.97215 0.4315 0.29198 0.0
H3 H 0.92508 0.40305 0.26035 0.0
H4 H 0.92281 0.49469 0.25133 0.0
H5 H 0.9684 0.52201 0.28392 0.0
H6 H 0.05581 0.46266 0.27343 0.0
H7 H 0.05169 0.44118 0.22907 0.0
H8 H 0.01389 0.50492 0.2022 0.0
H9 H 0.01871 0.52657 0.2465 0.0
H10 H 0.13156 0.52778 0.30649 0.0
H11 H 0.18851 0.57151 0.29034 0.0
H12 H 0.13853 0.61245 0.24415 0.0
H13 H 0.08259 0.57117 0.26242 0.0
H14 H 0.10524 0.51929 0.36264 0.0
H15 H 0.15924 0.55556 0.38633 0.0
H16 H 0.16847 0.64242 0.34754 0.0
H17 H 0.11429 0.60584 0.32412 0.0
H18 H 0.03465 0.49157 0.38535 0.0
H19 H 0.06248 0.51506 0.42741 0.0
H20 H 0.08406 0.61301 0.40322 0.0
H21 H 0.05688 0.58959 0.36119 0.0
H22 H 0.94657 0.45063 0.34083 0.0
H23 H 0.89172 0.44513 0.35497 0.0
H24 H 0.94413 0.55316 0.3645 0.0
H25 H 0.99679 0.55841 0.34687 0.0
O26 O 0.03808 0.43448 0.18032 0.0
O27 O 0.01829 0.46739 0.1676 0.0
O28 O 0.21121 0.61233 0.39974 0.0
O29 O 0.21775 0.65773 0.37983 0.0
C30 C 0.00703 0.498 0.30423 0.0
C31 C 0.03831 0.50753 0.29046 0.0
C32 C 0.07075 0.52885 0.30231 0.0
C33 C 0.07189 0.53804 0.32874 0.0
C34 C 0.04071 0.52825 0.34262 0.0
C35 C 0.00814 0.50936 0.33011 0.0
C36 C 0.97364 0.47877 0.29011 0.0
C37 C 0.96053 0.44493 0.28378 0.0
C38 C 0.93398 0.42892 0.26543 0.0
C39 C 0.92053 0.44671 0.25281 0.0
C40 C 0.93214 0.47997 0.26073 0.0
C41 C 0.9583 0.49575 0.27937 0.0
C42 C 0.03719 0.49586 0.26323 0.0
C43 C 0.04684 0.47207 0.25789 0.0
C44 C 0.04435 0.45978 0.23256 0.0
C45 C 0.03225 0.47118 0.21211 0.0
C46 C 0.02314 0.49547 0.21751 0.0
C47 C 0.02575 0.5078 0.24281 0.0
C48 C 0.10291 0.54668 0.28615 0.0
C49 C 0.13292 0.5458 0.29245 0.0
C50 C 0.16547 0.57071 0.28303 0.0
C51 C 0.1682 0.59619 0.26658 0.0
C52 C 0.1375 0.59395 0.25753 0.0
C53 C 0.10528 0.56986 0.26757 0.0
C54 C 0.1059 0.55998 0.34173 0.0
C55 C 0.11908 0.54615 0.35922 0.0
C56 C 0.14987 0.56692 0.37274 0.0
C57 C 0.16806 0.60193 0.36895 0.0
C58 C 0.15506 0.6156 0.351 0.0
C59 C 0.12421 0.59479 0.33753 0.0
C60 C 0.04351 0.53879 0.37028 0.0
C61 C 0.04372 0.5177 0.38966 0.0
C62 C 0.06003 0.53123 0.41349 0.0
C63 C 0.0758 0.5659 0.4183 0.0
C64 C 0.07193 0.58619 0.40005 0.0
C65 C 0.05605 0.57275 0.37612 0.0
C66 C 0.976 0.50497 0.34278 0.0
C67 C 0.94605 0.47308 0.34589 0.0
C68 C 0.9147 0.46998 0.35434 0.0
C69 C 0.91292 0.49872 0.3606 0.0
C70 C 0.94373 0.53038 0.35907 0.0
C71 C 0.97447 0.53347 0.34964 0.0
C72 C 0.02909 0.45768 0.18531 0.0
C73 C 0.2003 0.62418 0.38379 0.0
H74 H 0.51108 0.04211 0.31775 0.0
H75 H 0.54453 0.25072 0.56768 0.0
H76 H 0.50306 0.99605 0.47027 0.0
H77 H 0.49329 0.94921 0.44254 0.0
H78 H 0.39547 0.93736 0.41749 0.0
H79 H 0.40447 0.98271 0.44704 0.0
H80 H 0.52554 0.04909 0.43128 0.0
H81 H 0.52838 0.04572 0.38375 0.0
H82 H 0.43623 0.053 0.37709 0.0
H83 H 0.43357 0.05602 0.42467 0.0
H84 H 0.55545 0.12202 0.45513 0.0
H85 H 0.58244 0.1764 0.43287 0.0
H86 H 0.48399 0.17279 0.43532 0.0
H87 H 0.45717 0.11788 0.45641 0.0
H88 H 0.55023 0.11754 0.52455 0.0
H89 H 0.57703 0.1706 0.54878 0.0
H90 H 0.48923 0.18145 0.53017 0.0
H91 H 0.46248 0.12807 0.50642 0.0
H92 H 0.50848 0.03908 0.54761 0.0
H93 H 0.52686 0.06046 0.59172 0.0
H94 H 0.46091 0.10339 0.59 0.0
H95 H 0.44031 0.07901 0.54704 0.0
H96 H 0.47708 0.97709 0.51292 0.0
H97 H 0.43912 0.9209 0.53015 0.0
H98 H 0.36045 0.94648 0.5463 0.0
H99 H 0.39727 0.00116 0.5261 0.0
O100 O 0.50957 0.04363 0.33649 0.0
O101 O 0.46239 0.04785 0.33412 0.0
O102 O 0.57902 0.22285 0.56731 0.0
O103 O 0.5347 0.22985 0.558 0.0
C104 C 0.46313 0.02383 0.47482 0.0
C105 C 0.47703 0.05376 0.46012 0.0
C106 C 0.48889 0.08473 0.47278 0.0
C107 C 0.48768 0.086 0.50019 0.0
C108 C 0.47242 0.0559 0.51497 0.0
C109 C 0.45956 0.02463 0.50223 0.0
C110 C 0.45409 0.99219 0.46112 0.0
C111 C 0.47888 0.98239 0.45957 0.0
C112 C 0.47351 0.95601 0.4433 0.0
C113 C 0.44378 0.93967 0.42744 0.0
C114 C 0.41842 0.94894 0.42967 0.0
C115 C 0.4235 0.97492 0.44647 0.0
C116 C 0.4793 0.05269 0.43131 0.0
C117 C 0.50601 0.04993 0.41948 0.0
C118 C 0.50756 0.04803 0.39235 0.0
C119 C 0.4825 0.04904 0.37661 0.0
C120 C 0.45592 0.05212 0.38862 0.0
C121 C 0.45437 0.05392 0.41576 0.0
C122 C 0.50449 0.11627 0.45748 0.0
C123 C 0.53973 0.13288 0.45045 0.0
C124 C 0.55511 0.16403 0.43793 0.0
C125 C 0.5355 0.17919 0.43241 0.0
C126 C 0.49984 0.16178 0.43887 0.0
C127 C 0.48447 0.13052 0.45114 0.0
C128 C 0.5046 0.11916 0.51357 0.0
C129 C 0.53698 0.13156 0.52561 0.0
C130 C 0.55217 0.16182 0.53946 0.0
C131 C 0.53528 0.1803 0.54138 0.0
C132 C 0.50297 0.16791 0.52903 0.0
C133 C 0.48774 0.13755 0.51528 0.0
C134 C 0.47372 0.05822 0.54388 0.0
C135 C 0.49671 0.05163 0.55731 0.0
C136 C 0.50774 0.06456 0.58236 0.0
C137 C 0.49662 0.08501 0.5941 0.0
C138 C 0.47033 0.088 0.58174 0.0
C139 C 0.45854 0.07416 0.55702 0.0
C140 C 0.43941 0.99275 0.5171 0.0
C141 C 0.45138 0.97028 0.51968 0.0
C142 C 0.42975 0.93826 0.53017 0.0
C143 C 0.39606 0.92844 0.53924 0.0
C144 C 0.38551 0.95233 0.53864 0.0
C145 C 0.40676 0.98392 0.52742 0.0
C146 C 0.4841 0.04683 0.3478 0.0
C147 C 0.5511 0.21226 0.55635 0.0
H148 H 0.60084 0.60277 0.82357 0.0
H149 H 0.63092 0.44586 0.55873 0.0
H150 H 0.58243 0.64355 0.68857 0.0
H151 H 0.55936 0.66162 0.72437 0.0
H152 H 0.45862 0.57188 0.71453 0.0
H153 H 0.48188 0.55402 0.67866 0.0
H154 H 0.62298 0.60729 0.71071 0.0
H155 H 0.62425 0.61207 0.75833 0.0
H156 H 0.51472 0.53654 0.76143 0.0
H157 H 0.51401 0.53162 0.7139 0.0
H158 H 0.6473 0.56187 0.67409 0.0
H159 H 0.66148 0.52194 0.69342 0.0
H160 H 0.55188 0.45281 0.70766 0.0
H161 H 0.53845 0.49295 0.68926 0.0
H162 H 0.64367 0.58257 0.61359 0.0
H163 H 0.66813 0.55702 0.58539 0.0
H164 H 0.58011 0.45859 0.60298 0.0
H165 H 0.55581 0.48454 0.6309 0.0
H166 H 0.60388 0.60958 0.58851 0.0
H167 H 0.61539 0.59531 0.54508 0.0
H168 H 0.5306 0.49305 0.55559 0.0
H169 H 0.51869 0.50796 0.59831 0.0
H170 H 0.55537 0.63971 0.6264 0.0
H171 H 0.5126 0.65051 0.60591 0.0
H172 H 0.43973 0.54337 0.60193 0.0
H173 H 0.48282 0.53311 0.62144 0.0
O174 O 0.59994 0.60003 0.80482 0.0
O175 O 0.54338 0.56185 0.80523 0.0
O176 O 0.66713 0.5077 0.56207 0.0
O177 O 0.6224 0.45652 0.57041 0.0
C178 C 0.55016 0.58188 0.66614 0.0
C179 C 0.56726 0.56812 0.67996 0.0
C180 C 0.58195 0.5519 0.66635 0.0
C181 C 0.58154 0.55134 0.63892 0.0
C182 C 0.56334 0.56396 0.62516 0.0
C183 C 0.54675 0.57839 0.63878 0.0
C184 C 0.5338 0.59751 0.68113 0.0
C185 C 0.55501 0.62858 0.69339 0.0
C186 C 0.54184 0.63878 0.71385 0.0
C187 C 0.50739 0.61786 0.72235 0.0
C188 C 0.48537 0.58825 0.70842 0.0
C189 C 0.49847 0.57823 0.68779 0.0
C190 C 0.56836 0.56937 0.7089 0.0
C191 C 0.59939 0.59162 0.72176 0.0
C192 C 0.59999 0.59438 0.74893 0.0
C193 C 0.56952 0.57484 0.76368 0.0
C194 C 0.5386 0.55206 0.75068 0.0
C195 C 0.53811 0.54924 0.72354 0.0
C196 C 0.59191 0.53039 0.6806 0.0
C197 C 0.6266 0.53835 0.68195 0.0
C198 C 0.63455 0.51541 0.69278 0.0
C199 C 0.60786 0.48417 0.70226 0.0
C200 C 0.57326 0.47686 0.70124 0.0
C201 C 0.56544 0.49975 0.69063 0.0
C202 C 0.59808 0.53538 0.62431 0.0
C203 C 0.62997 0.55547 0.61156 0.0
C204 C 0.64379 0.54082 0.5954 0.0
C205 C 0.62598 0.50575 0.59183 0.0
C206 C 0.59446 0.48565 0.60525 0.0
C207 C 0.58063 0.50036 0.62135 0.0
C208 C 0.56059 0.55974 0.59651 0.0
C209 C 0.58664 0.58463 0.58076 0.0
C210 C 0.59357 0.57623 0.55618 0.0
C211 C 0.57456 0.5428 0.54719 0.0
C212 C 0.54574 0.51903 0.5618 0.0
C213 C 0.53868 0.52754 0.58623 0.0
C214 C 0.5223 0.58563 0.62506 0.0
C215 C 0.5303 0.61869 0.6207 0.0
C216 C 0.50572 0.62477 0.6092 0.0
C217 C 0.47269 0.59782 0.60207 0.0
C218 C 0.46508 0.56477 0.60649 0.0
C219 C 0.48964 0.55879 0.61777 0.0
C220 C 0.57002 0.57839 0.79248 0.0
C221 C 0.63989 0.49018 0.5739 0.0
H222 H 0.99463 0.46029 0.97994 0.0
H223 H 0.24224 0.51925 0.74007 0.0
H224 H 0.96757 0.46177 0.83925 0.0
H225 H 0.92442 0.4437 0.87406 0.0
H226 H 0.91605 0.34658 0.87484 0.0
H227 H 0.95797 0.36444 0.83891 0.0
H228 H 0.03486 0.49239 0.87043 0.0
H229 H 0.02163 0.48917 0.91709 0.0
H230 H 0.00235 0.38774 0.91876 0.0
H231 H 0.01571 0.39138 0.87211 0.0
H232 H 0.11122 0.52495 0.83243 0.0
H233 H 0.16489 0.55076 0.85749 0.0
H234 H 0.13748 0.45289 0.88722 0.0
H235 H 0.08532 0.42715 0.8602 0.0
H236 H 0.09997 0.52159 0.77581 0.0
H237 H 0.15631 0.54821 0.75349 0.0
H238 H 0.16869 0.46508 0.77572 0.0
H239 H 0.11192 0.43838 0.7975 0.0
H240 H 0.02429 0.48899 0.75577 0.0
H241 H 0.05176 0.51398 0.71402 0.0
H242 H 0.08934 0.44492 0.7082 0.0
H243 H 0.06059 0.41929 0.74939 0.0
H244 H 0.95557 0.45109 0.79151 0.0
H245 H 0.8975 0.41879 0.77315 0.0
H246 H 0.92236 0.34621 0.74289 0.0
H247 H 0.97942 0.37739 0.76358 0.0
O248 O 0.00119 0.46155 0.96178 0.0
O249 O 0.99239 0.40978 0.96175 0.0
O250 O 0.21201 0.5512 0.73757 0.0
O251 O 0.22001 0.50942 0.74895 0.0
C252 C -0.0 0.42921 0.82336 0.0
C253 C 0.03001 0.44279 0.83915 0.0
C254 C 0.06323 0.45854 0.8276 0.0
C255 C 0.06654 0.46078 0.80019 0.0
C256 C 0.03643 0.44711 0.78429 0.0
C257 C 0.00307 0.43134 0.7959 0.0
C258 C 0.96576 0.41436 0.83655 0.0
C259 C 0.95495 0.43598 0.84593 0.0
C260 C 0.93083 0.42581 0.86619 0.0
C261 C 0.91769 0.39409 0.87775 0.0
C262 C 0.9257 0.37118 0.86639 0.0
C263 C 0.94952 0.38125 0.84576 0.0
C264 C 0.02629 0.44216 0.86799 0.0
C265 C 0.02833 0.46973 0.88104 0.0
C266 C 0.02055 0.46773 0.90764 0.0
C267 C 0.01072 0.43812 0.92163 0.0
C268 C 0.00974 0.41088 0.90857 0.0
C269 C 0.01751 0.41293 0.88197 0.0
C270 C 0.09463 0.47418 0.84428 0.0
C271 C 0.11699 0.50913 0.84426 0.0
C272 C 0.14741 0.52386 0.85896 0.0
C273 C 0.15567 0.50396 0.87449 0.0
C274 C 0.13238 0.46897 0.87517 0.0
C275 C 0.10234 0.45421 0.85996 0.0
C276 C 0.10176 0.47793 0.78806 0.0
C277 C 0.11488 0.50916 0.77579 0.0
C278 C 0.14709 0.52433 0.76311 0.0
C279 C 0.16697 0.5087 0.76275 0.0
C280 C 0.15402 0.47774 0.77556 0.0
C281 C 0.12168 0.46249 0.7881 0.0
C282 C 0.04088 0.45266 0.75574 0.0
C283 C 0.03695 0.47817 0.74482 0.0
C284 C 0.05321 0.4928 0.7212 0.0
C285 C 0.07366 0.48214 0.70823 0.0
C286 C 0.07389 0.45382 0.71768 0.0
C287 C 0.05736 0.43902 0.74121 0.0
C288 C 0.97125 0.416 0.77963 0.0
C289 C 0.94843 0.42823 0.78088 0.0
C290 C 0.91531 0.40988 0.76994 0.0
C291 C 0.90469 0.37932 0.75686 0.0
C292 C 0.92907 0.36897 0.75352 0.0
C293 C 0.96192 0.38697 0.76504 0.0
C294 C 0.00095 0.43553 0.9496 0.0
C295 C 0.20099 0.5245 0.74899 0.0
H296 H 0.41972 0.00113 0.81702 0.0
H297 H 0.39779 0.78632 0.04549 0.0
H298 H 0.47198 0.06145 0.9473 0.0
H299 H 0.50377 0.10885 0.91775 0.0
H300 H 0.59853 0.10882 0.93367 0.0
H301 H 0.5659 0.05994 0.96173 0.0
H302 H 0.41489 0.98214 0.92999 0.0
H303 H 0.4066 0.98696 0.88342 0.0
H304 H 0.5148 0.01999 0.86925 0.0
H305 H 0.52259 0.01458 0.91575 0.0
H306 H 0.39083 0.90919 0.9626 0.0
H307 H 0.37195 0.8561 0.9392 0.0
H308 H 0.47632 0.8972 0.90888 0.0
H309 H 0.49471 0.94914 0.93226 0.0
H310 H 0.40535 0.93211 0.02538 0.0
H311 H 0.37761 0.87693 0.04637 0.0
H312 H 0.45197 0.85695 0.00896 0.0
H313 H 0.47974 0.91235 0.98843 0.0
H314 H 0.45584 0.00021 0.05199 0.0
H315 H 0.45949 0.98384 0.0969 0.0
H316 H 0.52735 0.949 0.07039 0.0
H317 H 0.52329 0.965 0.02586 0.0
H318 H 0.50443 0.0804 0.00741 0.0
H319 H 0.55532 0.13244 0.02254 0.0
H320 H 0.60921 0.07854 0.03536 0.0
H321 H 0.56025 0.02826 0.0173 0.0
O322 O 0.42355 0.99934 0.83535 0.0
O323 O 0.47943 0.01648 0.82914 0.0
O324 O 0.37095 0.81996 0.05652 0.0
O325 O 0.40824 0.80825 0.03744 0.0
C326 C 0.49596 0.02421 0.96984 0.0
C327 C 0.47409 0.99539 0.95466 0.0
C328 C 0.45802 0.96318 0.96604 0.0
C329 C 0.46145 0.95989 0.99303 0.0
C330 C 0.48314 0.98863 0.00827 0.0
C331 C 0.5011 0.0208 0.99663 0.0
C332 C 0.51656 0.05716 0.95656 0.0
C333 C 0.49973 0.07214 0.94476 0.0
C334 C 0.51807 0.09941 0.92801 0.0
C335 C 0.55373 0.11251 0.9231 0.0
C336 C 0.57098 0.09896 0.93659 0.0
C337 C 0.55249 0.07132 0.95295 0.0
C338 C 0.46942 0.99846 0.9263 0.0
C339 C 0.43675 0.99043 0.91678 0.0
C340 C 0.43211 0.99322 0.89018 0.0
C341 C 0.46008 0.00401 0.87262 0.0
C342 C 0.49275 0.01176 0.88225 0.0
C343 C 0.49732 0.00886 0.90882 0.0
C344 C 0.44409 0.93309 0.94896 0.0
C345 C 0.40925 0.90681 0.95038 0.0
C346 C 0.39858 0.87659 0.93708 0.0
C347 C 0.42257 0.87253 0.92202 0.0
C348 C 0.45692 0.89965 0.91973 0.0
C349 C 0.46755 0.92946 0.93315 0.0
C350 C 0.44429 0.92604 0.00521 0.0
C351 C 0.41553 0.91572 0.02172 0.0
C352 C 0.39976 0.88422 0.03367 0.0
C353 C 0.41253 0.86248 0.02928 0.0
C354 C 0.44143 0.873 0.01271 0.0
C355 C 0.45725 0.90457 0.00088 0.0
C356 C 0.48948 0.98396 0.03581 0.0
C357 C 0.47208 0.98975 0.05609 0.0
C358 C 0.47403 0.98024 0.08158 0.0
C359 C 0.49378 0.96526 0.08705 0.0
C360 C 0.51237 0.96094 0.06681 0.0
C361 C 0.51002 0.96998 0.0414 0.0
C362 C 0.52835 0.05029 0.01136 0.0
C363 C 0.52713 0.07985 0.01383 0.0
C364 C 0.55625 0.10957 0.02267 0.0
C365 C 0.58683 0.11002 0.02979 0.0
C366 C 0.58667 0.07959 0.02932 0.0
C367 C 0.55815 0.05035 0.01965 0.0
C368 C 0.45509 0.00703 0.84439 0.0
C369 C 0.3959 0.829 0.04194 0.0
H370 H 0.68222 0.62849 0.96466 0.0
H371 H 0.78172 0.56871 0.23614 0.0
H372 H 0.60241 0.6155 0.09798 0.0
H373 H 0.56713 0.62452 0.0672 0.0
H374 H 0.63259 0.73202 0.07777 0.0
H375 H 0.66888 0.72247 0.10847 0.0
H376 H 0.65038 0.59652 0.07524 0.0
H377 H 0.65757 0.59977 0.02782 0.0
H378 H 0.72539 0.70759 0.03359 0.0
H379 H 0.71826 0.70392 0.08104 0.0
H380 H 0.66439 0.56512 0.12285 0.0
H381 H 0.69057 0.53404 0.10611 0.0
H382 H 0.78117 0.6274 0.08159 0.0
H383 H 0.75533 0.6585 0.10019 0.0
H384 H 0.65039 0.56802 0.17478 0.0
H385 H 0.67155 0.53998 0.20299 0.0
H386 H 0.77636 0.62479 0.1949 0.0
H387 H 0.75471 0.65277 0.16699 0.0
H388 H 0.60482 0.60016 0.18225 0.0
H389 H 0.59095 0.56936 0.22308 0.0
H390 H 0.69563 0.63717 0.25023 0.0
H391 H 0.70949 0.66743 0.20879 0.0
H392 H 0.58802 0.6443 0.14724 0.0
H393 H 0.56281 0.67525 0.16688 0.0
H394 H 0.66182 0.74366 0.20279 0.0
H395 H 0.68718 0.71386 0.18176 0.0
O396 O 0.67989 0.62775 0.98345 0.0
O397 O 0.71452 0.68311 0.98748 0.0
O398 O 0.71863 0.53545 0.22726 0.0
O399 O 0.77272 0.57913 0.22486 0.0
C400 C 0.66018 0.66112 0.12217 0.0
C401 C 0.67948 0.64815 0.11035 0.0
C402 C 0.69291 0.63235 0.12574 0.0
C403 C 0.68784 0.63029 0.15299 0.0
C404 C 0.66936 0.64411 0.16488 0.0
C405 C 0.65624 0.66028 0.14956 0.0
C406 C 0.63809 0.66831 0.10537 0.0
C407 C 0.60898 0.64102 0.09386 0.0
C408 C 0.58866 0.64627 0.07644 0.0
C409 C 0.59676 0.67902 0.07028 0.0
C410 C 0.62577 0.70653 0.08216 0.0
C411 C 0.64634 0.70117 0.09972 0.0
C412 C 0.68416 0.64994 0.08157 0.0
C413 C 0.66706 0.62076 0.06624 0.0
C414 C 0.67108 0.62272 0.03915 0.0
C415 C 0.69213 0.65394 0.02691 0.0
C416 C 0.70907 0.68315 0.04239 0.0
C417 C 0.70506 0.68113 0.06948 0.0
C418 C 0.70829 0.61404 0.11321 0.0
C419 C 0.68996 0.57885 0.11395 0.0
C420 C 0.70481 0.5611 0.10396 0.0
C421 C 0.73808 0.57814 0.09244 0.0
C422 C 0.75577 0.61348 0.09071 0.0
C423 C 0.74102 0.63131 0.10114 0.0
C424 C 0.70099 0.61255 0.16907 0.0
C425 C 0.67789 0.58051 0.17918 0.0
C426 C 0.69007 0.56452 0.19522 0.0
C427 C 0.72566 0.5802 0.20127 0.0
C428 C 0.74879 0.61207 0.19071 0.0
C429 C 0.73654 0.62808 0.17471 0.0
C430 C 0.6583 0.63562 0.19244 0.0
C431 C 0.62427 0.60936 0.19749 0.0
C432 C 0.61643 0.59166 0.22088 0.0
C433 C 0.64251 0.60021 0.23959 0.0
C434 C 0.67528 0.62942 0.23584 0.0
C435 C 0.68313 0.64705 0.21237 0.0
C436 C 0.63969 0.67734 0.16251 0.0
C437 C 0.60433 0.66624 0.15906 0.0
C438 C 0.58984 0.68369 0.17065 0.0
C439 C 0.61035 0.71222 0.18625 0.0
C440 C 0.64544 0.72235 0.19041 0.0
C441 C 0.65994 0.70519 0.17857 0.0
C442 C 0.69628 0.65595 -0.00188 0.0
C443 C 0.73865 0.56347 0.21856 0.0
O444 O 0.59175 0.43479 0.41132 0.0
Cd445 Cd 0.6034 0.41637 0.37894 0.0
Cd446 Cd 0.66949 0.45993 0.39249 0.0
O447 O 0.64588 0.46716 0.42472 0.0
O448 O 0.56541 0.36913 0.37303 0.0
O449 O 0.61903 0.38355 0.38453 0.0
C450 C 0.58738 0.36023 0.37947 0.0
C451 C 0.72153 0.45995 0.39605 0.0
C452 C 0.61338 0.45536 0.42779 0.0
C453 C 0.64231 0.47162 0.34193 0.0
O454 O 0.66699 0.48139 0.35813 0.0
O455 O 0.61349 0.44459 0.3457 0.0
O456 O 0.72044 0.48698 0.39904 0.0
O457 O 0.69252 0.43205 0.39268 0.0
O458 O 0.23057 0.60554 0.59773 0.0
Cd459 Cd 0.26587 0.62879 0.56781 0.0
Cd460 Cd 0.2494 0.6754 0.57581 0.0
O461 O 0.22545 0.64873 0.60928 0.0
O462 O 0.29306 0.60573 0.56534 0.0
O463 O 0.31659 0.65922 0.57644 0.0
C464 C 0.32009 0.63356 0.57251 0.0
C465 C 0.28895 0.73317 0.57609 0.0
C466 C 0.21825 0.61869 0.6129 0.0
C467 C 0.22458 0.63551 0.52607 0.0
O468 O 0.22195 0.65541 0.54174 0.0
O469 O 0.24422 0.62411 0.53157 0.0
O470 O 0.25593 0.72123 0.57835 0.0
O471 O 0.29973 0.71215 0.57466 0.0
O472 O 0.62612 0.23118 0.78593 0.0
Cd473 Cd 0.63973 0.24944 0.74847 0.0
Cd474 Cd 0.58926 0.26336 0.75556 0.0
O475 O 0.58812 0.24705 0.79294 0.0
O476 O 0.68518 0.2525 0.7427 0.0
O477 O 0.67901 0.29686 0.74247 0.0
C478 C 0.69914 0.2846 0.74074 0.0
C479 C 0.5951 0.31577 0.75044 0.0
C480 C 0.60487 0.23358 0.80097 0.0
C481 C 0.57728 0.21328 0.71387 0.0
O482 O 0.56399 0.22731 0.72697 0.0
O483 O 0.60803 0.22 0.71861 0.0
O484 O 0.56618 0.29008 0.75804 0.0
O485 O 0.621 0.31168 0.74543 0.0
O486 O 0.47299 0.67135 0.94134 0.0
Cd487 Cd 0.44473 0.66951 0.90898 0.0
Cd488 Cd 0.41012 0.60345 0.91846 0.0
O489 O 0.43778 0.61841 0.9526 0.0
O490 O 0.45426 0.71574 0.90274 0.0
O491 O 0.40292 0.67377 0.91568 0.0
C492 C 0.42244 0.70497 0.90938 0.0
C493 C 0.35004 0.57327 0.91866 0.0
C494 C 0.46368 0.64743 0.95745 0.0
C495 C 0.44805 0.62511 0.86788 0.0
O496 O 0.43322 0.60135 0.88427 0.0
O497 O 0.45346 0.65412 0.87347 0.0
O498 O 0.36738 0.55848 0.92275 0.0
O499 O 0.36704 0.60545 0.91545 0.0
O500 O 0.82834 0.35741 0.03063 0.0
Cd501 Cd 0.80119 0.34239 0.06524 0.0
Cd502 Cd 0.81852 0.40992 0.0661 0.0
O503 O 0.84666 0.41146 0.03365 0.0
O504 O 0.77618 0.29275 0.06305 0.0
O505 O 0.74911 0.32146 0.06493 0.0
C506 C 0.74747 0.29288 0.06301 0.0
C507 C 0.79378 0.44346 0.06411 0.0
C508 C 0.84584 0.38704 0.02167 0.0
C509 C 0.83651 0.38194 0.1129 0.0
O510 O 0.83344 0.40529 0.10295 0.0
O511 O 0.82737 0.35499 0.10036 0.0
O512 O 0.82668 0.45618 0.06732 0.0
O513 O 0.77456 0.41123 0.06163 0.0
O514 O 0.48123 0.8573 0.22409 0.0
Cd515 Cd 0.48349 0.82954 0.25434 0.0
Cd516 Cd 0.41452 0.80362 0.25698 0.0
O517 O 0.42424 0.83375 0.2248 0.0
O518 O 0.52594 0.82709 0.24833 0.0
O519 O 0.47258 0.78249 0.24741 0.0
C520 C 0.50574 0.79519 0.24466 0.0
C521 C 0.36313 0.75122 0.25562 0.0
C522 C 0.45361 0.85448 0.21486 0.0
C523 C 0.45759 0.84287 0.3036 0.0
O524 O 0.42775 0.82645 0.29312 0.0
O525 O 0.48431 0.84677 0.29156 0.0
O526 O 0.36305 0.77875 0.25857 0.0
O527 O 0.39286 0.75322 0.25335 0.0
H528 H 0.23243 0.60323 0.25794 0.0
H529 H 0.18095 0.66012 0.26658 0.0
H530 H 0.23612 0.71221 0.26239 0.0
H531 H 0.29884 0.74208 0.2586 0.0
H532 H 0.35261 0.68734 0.25202 0.0
H533 H 0.29675 0.63403 0.2534 0.0
C534 C 0.23332 0.62702 0.25884 0.0
C535 C 0.2023 0.6275 0.26215 0.0
C536 C 0.26556 0.65734 0.25705 0.0
C537 C 0.20405 0.65868 0.26325 0.0
C538 C 0.23573 0.68867 0.26118 0.0
C539 C 0.2985 0.71854 0.25738 0.0
C540 C 0.32985 0.71869 0.25534 0.0
C541 C 0.26659 0.68829 0.25836 0.0
C542 C 0.3288 0.68791 0.25366 0.0
C543 C 0.29688 0.65745 0.25447 0.0
H544 H 0.50908 0.20374 0.39674 0.0
H545 H 0.60005 0.23285 0.44368 0.0
H546 H 0.62589 0.29069 0.42882 0.0
H547 H 0.62046 0.33407 0.40583 0.0
H548 H 0.52757 0.30579 0.36172 0.0
H549 H 0.50466 0.24674 0.37231 0.0
C550 C 0.53453 0.22271 0.4038 0.0
C551 C 0.55242 0.21379 0.42143 0.0
C552 C 0.54886 0.25621 0.3958 0.0
C553 C 0.58575 0.23871 0.42986 0.0
C554 C 0.60049 0.27195 0.42155 0.0
C555 C 0.59544 0.31493 0.39819 0.0
C556 C 0.57571 0.32432 0.38308 0.0
C557 C 0.582 0.28112 0.40494 0.0
C558 C 0.54322 0.29924 0.37349 0.0
C559 C 0.53006 0.26547 0.37958 0.0
H560 H 0.45842 0.64696 0.61505 0.0
H561 H 0.42574 0.56185 0.56371 0.0
H562 H 0.37661 0.56637 0.54931 0.0
H563 H 0.34055 0.59185 0.55346 0.0
H564 H 0.37418 0.67858 0.60293 0.0
H565 H 0.42579 0.67657 0.61537 0.0
C566 C 0.44103 0.62982 0.60031 0.0
C567 C 0.44554 0.60366 0.59093 0.0
C568 C 0.4129 0.63278 0.5918 0.0
C569 C 0.42246 0.58163 0.57189 0.0
C570 C 0.39441 0.5843 0.56348 0.0
C571 C 0.35935 0.61052 0.56677 0.0
C572 C 0.35338 0.63508 0.57748 0.0
C573 C 0.38894 0.60929 0.57373 0.0
C574 C 0.37819 0.65938 0.59443 0.0
C575 C 0.40761 0.65815 0.60164 0.0
H576 H 0.85816 0.39687 0.73953 0.0
H577 H 0.86669 0.31052 0.75817 0.0
H578 H 0.80468 0.27372 0.75158 0.0
H579 H 0.74718 0.2662 0.74538 0.0
H580 H 0.7369 0.35236 0.7312 0.0
H581 H 0.80029 0.38902 0.73175 0.0
C582 C 0.84655 0.37003 0.74224 0.0
C583 C 0.86748 0.35679 0.74946 0.0
C584 C 0.81036 0.3489 0.73958 0.0
C585 C 0.85176 0.32171 0.75217 0.0
C586 C 0.81604 0.30051 0.74874 0.0
C587 C 0.75875 0.29295 0.7421 0.0
C588 C 0.73734 0.30654 0.7384 0.0
C589 C 0.79501 0.3139 0.74311 0.0
C590 C 0.75281 0.34128 0.73423 0.0
C591 C 0.78904 0.36225 0.73456 0.0
H592 H 0.38601 0.8117 0.9459 0.0
H593 H 0.44059 0.85895 0.87457 0.0
H594 H 0.44206 0.80867 0.86279 0.0
H595 H 0.43676 0.75559 0.87655 0.0
H596 H 0.3804 0.70713 0.94682 0.0
H597 H 0.37004 0.75339 0.95508 0.0
C598 C 0.39706 0.81057 0.92732 0.0
C599 C 0.41397 0.83932 0.91144 0.0
C600 C 0.398 0.78162 0.92073 0.0
C601 C 0.42819 0.83741 0.88743 0.0
C602 C 0.4291 0.80871 0.8807 0.0
C603 C 0.42157 0.75491 0.89334 0.0
C604 C 0.40987 0.72858 0.91133 0.0
C605 C 0.41563 0.78139 0.89783 0.0
C606 C 0.38973 0.72739 0.93281 0.0
C607 C 0.38398 0.75388 0.93758 0.0
H608 H 0.7075 0.51608 0.06951 0.0
H609 H 0.80663 0.59704 0.09687 0.0
H610 H 0.83303 0.56341 0.08793 0.0
H611 H 0.82693 0.50949 0.07648 0.0
H612 H 0.72697 0.42655 0.05287 0.0
H613 H 0.70176 0.46235 0.05677 0.0
C614 C 0.73486 0.52639 0.07363 0.0
C615 C 0.75489 0.55906 0.08405 0.0
C616 C 0.74964 0.50641 0.06945 0.0
C617 C 0.79056 0.57222 0.08855 0.0
C618 C 0.80566 0.55284 0.08373 0.0
C619 C 0.79967 0.49925 0.07195 0.0
C620 C 0.77879 0.46535 0.06454 0.0
C621 C 0.78527 0.51969 0.07477 0.0
C622 C 0.74354 0.45251 0.05877 0.0
C623 C 0.72914 0.47297 0.06098 0.0
H624 H 0.41067 0.8839 0.56313 0.0
H625 H 0.32503 0.89215 0.53369 0.0
H626 H 0.28465 0.83406 0.54514 0.0
H627 H 0.27352 0.77959 0.56055 0.0
H628 H 0.35914 0.7687 0.58507 0.0
H629 H 0.3996 0.82883 0.57791 0.0
C630 C 0.38327 0.87309 0.55893 0.0
C631 C 0.3713 0.89301 0.54763 0.0
C632 C 0.36005 0.83892 0.56449 0.0
C633 C 0.33535 0.8782 0.54296 0.0
C634 C 0.31207 0.84464 0.54921 0.0
C635 C 0.30099 0.79044 0.5646 0.0
C636 C 0.31331 0.76979 0.57345 0.0
C637 C 0.32415 0.82468 0.55967 0.0
C638 C 0.34904 0.7841 0.57824 0.0
C639 C 0.37216 0.81846 0.57413 0.0
H640 H 0.57704 0.44107 0.74277 0.0
H641 H 0.65499 0.46835 0.68278 0.0
H642 H 0.66089 0.42051 0.69449 0.0
H643 H 0.63911 0.36728 0.71856 0.0
H644 H 0.55676 0.33765 0.77513 0.0
H645 H 0.55692 0.38962 0.76764 0.0
C646 C 0.5953 0.43658 0.73217 0.0
C647 C 0.61519 0.45812 0.7117 0.0
C648 C 0.59745 0.40826 0.73819 0.0
C649 C 0.63948 0.45241 0.69876 0.0
C650 C 0.64261 0.4248 0.70525 0.0
C651 C 0.62154 0.37248 0.72943 0.0
C652 C 0.59781 0.34864 0.74723 0.0
C653 C 0.62104 0.40204 0.72446 0.0
C654 C 0.57503 0.35551 0.76113 0.0
C655 C 0.57514 0.38523 0.7569 0.0
H656 H 0.19699 0.47744 0.88195 0.0
H657 H 0.19078 0.5657 0.8985 0.0
H658 H 0.24997 0.59433 0.91538 0.0
H659 H 0.30514 0.59596 0.92173 0.0
H660 H 0.30994 0.50663 0.9074 0.0
H661 H 0.24896 0.4763 0.89428 0.0
C662 C 0.20803 0.50258 0.8899 0.0
C663 C 0.18951 0.51953 0.88842 0.0
C664 C 0.24185 0.51874 0.89999 0.0
C665 C 0.20472 0.55232 0.89862 0.0
C666 C 0.23851 0.56868 0.90847 0.0
C667 C 0.29265 0.56971 0.9161 0.0
C668 C 0.31204 0.55367 0.91517 0.0
C669 C 0.25762 0.55243 0.90858 0.0
C670 C 0.29552 0.51954 0.90821 0.0
C671 C 0.26073 0.50224 0.90056 0.0
H672 H 0.59516 0.16677 0.05427 0.0
H673 H 0.65305 0.12662 0.01695 0.0
H674 H 0.70709 0.17843 0.02558 0.0
H675 H 0.73829 0.23557 0.0423 0.0
H676 H 0.68176 0.27913 0.0757 0.0
H677 H 0.62679 0.22582 0.06943 0.0
C678 C 0.61951 0.16937 0.04783 0.0
C679 C 0.61971 0.14223 0.03544 0.0
C680 C 0.65082 0.19997 0.05196 0.0
C681 C 0.6518 0.14633 0.02737 0.0
C682 C 0.68289 0.17623 0.03199 0.0
C683 C 0.71397 0.2334 0.04838 0.0
C684 C 0.71405 0.26108 0.05964 0.0
C685 C 0.6827 0.20315 0.0442 0.0
C686 C 0.6823 0.25807 0.067 0.0
C687 C 0.65093 0.22762 0.06344 0.0
H688 H 0.54527 0.68901 0.20678 0.0
H689 H 0.64254 0.78048 0.19069 0.0
H690 H 0.61944 0.81363 0.2089 0.0
H691 H 0.57136 0.8171 0.22799 0.0
H692 H 0.47266 0.72648 0.24183 0.0
H693 H 0.4965 0.69261 0.22564 0.0
C694 C 0.56134 0.7162 0.20705 0.0
C695 C 0.59575 0.73209 0.19749 0.0
C696 C 0.54764 0.73531 0.21711 0.0
C697 C 0.61626 0.7674 0.19836 0.0
C698 C 0.60298 0.78648 0.2086 0.0
C699 C 0.55507 0.78992 0.22767 0.0
C700 C 0.52032 0.77434 0.23619 0.0
C701 C 0.56872 0.77073 0.21794 0.0
C702 C 0.49952 0.7391 0.2354 0.0
C703 C 0.51313 0.71974 0.22611 0.0
H704 H 0.85505 0.44723 0.38535 0.0
H705 H 0.89327 0.54441 0.34947 0.0
H706 H 0.83948 0.54206 0.36012 0.0
H707 H 0.78064 0.51209 0.37759 0.0
H708 H 0.73783 0.41182 0.40777 0.0
H709 H 0.79403 0.41545 0.40087 0.0
C710 C 0.85165 0.46781 0.37958 0.0
C711 C 0.87907 0.49633 0.36709 0.0
C712 C 0.81963 0.46572 0.38464 0.0
C713 C 0.87368 0.52266 0.36001 0.0
C714 C 0.84254 0.52123 0.36578 0.0
C715 C 0.7837 0.49115 0.38297 0.0
C716 C 0.75541 0.46194 0.39353 0.0
C717 C 0.81538 0.49293 0.37799 0.0
C718 C 0.75942 0.43467 0.39977 0.0
C719 C 0.79149 0.43675 0.39577 0.0
H720 H 0.12919 0.55728 0.43024 0.0
H721 H 0.07865 0.61102 0.45422 0.0
H722 H 0.12193 0.63925 0.48873 0.0
H723 H 0.17324 0.64747 0.51247 0.0
H724 H 0.22399 0.59391 0.48784 0.0
H725 H 0.18179 0.56721 0.45277 0.0
C726 C 0.12748 0.5749 0.44324 0.0
C727 C 0.10051 0.58167 0.44011 0.0
C728 C 0.15268 0.59133 0.46261 0.0
C729 C 0.09904 0.60523 0.45653 0.0
C730 C 0.12381 0.62141 0.47613 0.0
C731 C 0.17535 0.63023 0.49929 0.0
C732 C 0.20173 0.62264 0.5029 0.0
C733 C 0.15072 0.6146 0.47936 0.0
C734 C 0.20397 0.6002 0.48559 0.0
C735 C 0.17973 0.58476 0.4656 0.0
H736 H 0.47075 0.10557 0.63423 0.0
H737 H 0.566 0.11475 0.60496 0.0
H738 H 0.59854 0.15376 0.63977 0.0
H739 H 0.60103 0.18767 0.67713 0.0
H740 H 0.50726 0.18272 0.70467 0.0
H741 H 0.47346 0.1406 0.67138 0.0
C742 C 0.49863 0.11614 0.63533 0.0
C743 C 0.51556 0.10663 0.61697 0.0
C744 C 0.51769 0.13983 0.65489 0.0
C745 C 0.55178 0.12052 0.61911 0.0
C746 C 0.57067 0.14336 0.63885 0.0
C747 C 0.57318 0.17738 0.67592 0.0
C748 C 0.55675 0.18837 0.69338 0.0
C749 C 0.55399 0.15347 0.65664 0.0
C750 C 0.52064 0.17485 0.69139 0.0
C751 C 0.50126 0.15065 0.67243 0.0
H752 H 0.47815 0.5744 0.76217 0.0
H753 H 0.51313 0.6764 0.73957 0.0
H754 H 0.49827 0.68785 0.78297 0.0
H755 H 0.47593 0.66881 0.82728 0.0
H756 H 0.44176 0.56673 0.84977 0.0
H757 H 0.45586 0.55538 0.80635 0.0
C758 C 0.48193 0.59896 0.76664 0.0
C759 C 0.49614 0.62441 0.7477 0.0
C760 C 0.47383 0.6054 0.79161 0.0
C761 C 0.50197 0.65643 0.75389 0.0
C762 C 0.49357 0.66295 0.77865 0.0
C763 C 0.47161 0.64408 0.82274 0.0
C764 C 0.45779 0.61867 0.84181 0.0
C765 C 0.47966 0.63766 0.7977 0.0
C766 C 0.45236 0.58677 0.83552 0.0
C767 C 0.46033 0.58021 0.81066 0.0
H768 H 0.9348 0.43673 0.91864 0.0
H769 H 0.86133 0.33493 0.89487 0.0
H770 H 0.83405 0.32316 0.93806 0.0
H771 H 0.83037 0.3424 0.98218 0.0
H772 H 0.90189 0.44531 0.00452 0.0
H773 H 0.93053 0.45618 0.96201 0.0
C774 C 0.91236 0.41212 0.92266 0.0
C775 C 0.89977 0.38688 0.9034 0.0
C776 C 0.89662 0.40573 0.94729 0.0
C777 C 0.8715 0.3548 0.90933 0.0
C778 C 0.85588 0.34809 0.93399 0.0
C779 C 0.85239 0.36712 0.97778 0.0
C780 C 0.8641 0.39301 0.99645 0.0
C781 C 0.8682 0.3734 0.95309 0.0
C782 C 0.89237 0.42503 0.99042 0.0
C783 C 0.90873 0.43125 0.96615 0.0
H784 H 0.43665 0.92531 0.11609 0.0
H785 H 0.54845 0.9729 0.1158 0.0
H786 H 0.54597 0.94366 0.15607 0.0
H787 H 0.51176 0.90201 0.18967 0.0
H788 H 0.39969 0.85349 0.18933 0.0
H789 H 0.40259 0.88584 0.15105 0.0
C790 C 0.46048 0.92979 0.12518 0.0
C791 C 0.49267 0.95121 0.11311 0.0
C792 C 0.45879 0.91247 0.14801 0.0
C793 C 0.52336 0.95637 0.12476 0.0
C794 C 0.52195 0.93963 0.14771 0.0
C795 C 0.48795 0.89859 0.18132 0.0
C796 C 0.45556 0.87514 0.19228 0.0
C797 C 0.48975 0.91713 0.15921 0.0
C798 C 0.42499 0.87121 0.18124 0.0
C799 C 0.4266 0.88973 0.15935 0.0
H800 H 0.68834 0.58252 0.25588 0.0
H801 H 0.58415 0.56243 0.26958 0.0
H802 H 0.57368 0.51811 0.30043 0.0
H803 H 0.59452 0.4856 0.32395 0.0
H804 H 0.70017 0.50915 0.31264 0.0
H805 H 0.70975 0.55171 0.2803 0.0
C806 C 0.66357 0.56902 0.26601 0.0
C807 C 0.63717 0.57602 0.26056 0.0
C808 C 0.65785 0.54386 0.28382 0.0
C809 C 0.60489 0.55749 0.27335 0.0
C810 C 0.59886 0.53212 0.29096 0.0
C811 C 0.6194 0.49969 0.31401 0.0
C812 C 0.64647 0.49403 0.32024 0.0
C813 C 0.62509 0.52495 0.29621 0.0
C814 C 0.67891 0.51297 0.30786 0.0
C815 C 0.68444 0.53738 0.28953 0.0
H816 H 0.49589 0.94224 0.398 0.0
H817 H 0.38487 0.88229 0.41076 0.0
H818 H 0.37967 0.84577 0.37443 0.0
H819 H 0.40625 0.83303 0.33748 0.0
H820 H 0.51755 0.89199 0.32608 0.0
H821 H 0.52308 0.92598 0.36424 0.0
C822 C 0.47059 0.92071 0.3934 0.0
C823 C 0.44079 0.91526 0.40713 0.0
C824 C 0.46783 0.89957 0.37275 0.0
C825 C 0.4082 0.88756 0.40029 0.0
C826 C 0.40521 0.8665 0.3796 0.0
C827 C 0.43178 0.85307 0.34351 0.0
C828 C 0.4614 0.86015 0.32877 0.0
C829 C 0.43479 0.87264 0.36542 0.0
C830 C 0.49431 0.88598 0.33702 0.0
C831 C 0.49748 0.90557 0.35877 0.0
H832 H 0.53628 0.49694 0.5095 0.0
H833 H 0.6419 0.56257 0.53535 0.0
H834 H 0.66319 0.54099 0.50115 0.0
H835 H 0.65187 0.50267 0.46443 0.0
H836 H 0.546 0.43539 0.43973 0.0
H837 H 0.52485 0.4578 0.47341 0.0
C838 C 0.56395 0.50652 0.50767 0.0
C839 C 0.5874 0.53165 0.52481 0.0
C840 C 0.57602 0.49338 0.48838 0.0
C841 C 0.62324 0.5439 0.52202 0.0
C842 C 0.63547 0.53124 0.50267 0.0
C843 C 0.62415 0.49273 0.46649 0.0
C844 C 0.60063 0.46736 0.44954 0.0
C845 C 0.61208 0.50583 0.48584 0.0
C846 C 0.56477 0.45488 0.4525 0.0
C847 C 0.5526 0.46777 0.47171 0.0
H848 H 0.11354 0.55016 0.70657 0.0
H849 H 0.08984 0.46089 0.66317 0.0
H850 H 0.13398 0.49535 0.63071 0.0
H851 H 0.17912 0.55073 0.61471 0.0
H852 H 0.20063 0.64012 0.65692 0.0
H853 H 0.1572 0.60559 0.68983 0.0
C854 C 0.11745 0.53822 0.68972 0.0
C855 C 0.09814 0.50297 0.6872 0.0
C856 C 0.14266 0.55817 0.67109 0.0
C857 C 0.10438 0.48794 0.66563 0.0
C858 C 0.1296 0.50762 0.64707 0.0
C859 C 0.17451 0.56267 0.63122 0.0
C860 C 0.19327 0.59793 0.63351 0.0
C861 C 0.14901 0.54273 0.6497 0.0
C862 C 0.18659 0.61303 0.65477 0.0
C863 C 0.16173 0.59331 0.67354 0.0
H864 H 0.54644 0.16568 0.9101 0.0
H865 H 0.60092 0.11482 0.88789 0.0
H866 H 0.62495 0.15082 0.84989 0.0
H867 H 0.62549 0.19228 0.82039 0.0
H868 H 0.56734 0.24014 0.84038 0.0
H869 H 0.54953 0.20953 0.88159 0.0
C870 C 0.56362 0.1625 0.89698 0.0
C871 C 0.57168 0.13744 0.90193 0.0
C872 C 0.57642 0.18251 0.87455 0.0
C873 C 0.59459 0.13418 0.88494 0.0
C874 C 0.6081 0.15454 0.86296 0.0
C875 C 0.6093 0.19639 0.83389 0.0
C876 C 0.59752 0.21824 0.82719 0.0
C877 C 0.59849 0.17817 0.85723 0.0
C878 C 0.57655 0.22325 0.84495 0.0
C879 C 0.56632 0.20574 0.86852 0.0
H880 H 0.52674 0.64324 0.06532 0.0
H881 H 0.61945 0.72472 0.03031 0.0
H882 H 0.58536 0.72457 0.99312 0.0
H883 H 0.5305 0.69632 0.96814 0.0
H884 H 0.43972 0.61107 0.00196 0.0
H885 H 0.47192 0.61717 0.04175 0.0
C886 C 0.53951 0.66107 0.04958 0.0
C887 C 0.57563 0.68356 0.05037 0.0
C888 C 0.52017 0.65972 0.02781 0.0
C889 C 0.59163 0.70718 0.03023 0.0
C890 C 0.57222 0.70684 0.00881 0.0
C891 C 0.51774 0.67934 0.98435 0.0
C892 C 0.48293 0.65305 0.98202 0.0
C893 C 0.53669 0.68245 0.007 0.0
C894 C 0.46666 0.6312 0.00314 0.0
C895 C 0.48498 0.63474 0.02594 0.0
H896 H 0.92285 0.40612 0.21511 0.0
H897 H 0.86648 0.45491 0.23808 0.0
H898 H 0.83508 0.43846 0.19688 0.0
H899 H 0.82655 0.41362 0.15318 0.0
H900 H 0.87933 0.36118 0.13149 0.0
H901 H 0.90868 0.37496 0.17384 0.0
C902 C 0.90301 0.4124 0.21157 0.0
C903 C 0.89748 0.43219 0.22969 0.0
C904 C 0.88455 0.40235 0.18802 0.0
C905 C 0.87197 0.44043 0.22431 0.0
C906 C 0.85384 0.43089 0.20079 0.0
C907 C 0.84427 0.40499 0.15787 0.0
C908 C 0.85123 0.38684 0.13927 0.0
C909 C 0.86051 0.41253 0.18229 0.0
C910 C 0.8737 0.37524 0.14559 0.0
C911 C 0.89052 0.38321 0.16972 0.0
loop_
_geom_bond_atom_site_label_1
_geom_bond_atom_site_label_2
_geom_bond_distance
_geom_bond_site_symmetry_2
_ccdc_geom_bond_type
H0 O26 0.856 . S
H1 O29 0.854 . S
H2 C37 0.930 1_455 S
H3 C38 0.930 . S
H4 C40 0.930 . S
H5 C41 0.930 . S
H6 C43 0.931 . S
H7 C44 0.930 . S
H8 C46 0.930 . S
H9 C47 0.929 . S
H10 C49 0.930 . S
H11 C50 0.931 . S
H12 C52 0.930 . S
H13 C53 0.929 . S
H14 C55 0.931 . S
H15 C56 0.930 . S
H16 C58 0.930 . S
H17 C59 0.932 . S
H18 C61 0.930 . S
H19 C62 0.929 . S
H20 C64 0.931 . S
H21 C65 0.930 . S
H22 C67 0.929 . S
H23 C68 0.931 . S
H24 C70 0.930 . S
H25 C71 0.929 . S
O26 H0 0.856 . S
O26 C72 1.300 . S
O27 C72 1.209 . S
O28 C73 1.199 . S
O29 H1 0.854 . S
O29 C73 1.297 . S
C30 C31 1.404 . S
C30 C35 1.397 . S
C30 C36 1.492 . S
C31 C30 1.404 . S
C31 C32 1.396 . S
C31 C42 1.492 . S
C32 C31 1.396 . S
C32 C33 1.397 . S
C32 C48 1.509 . S
C33 C32 1.397 . S
C33 C34 1.412 . S
C33 C54 1.485 . S
C34 C33 1.412 . S
C34 C35 1.388 . S
C34 C60 1.490 . S
C35 C30 1.397 . S
C35 C34 1.388 . S
C35 C66 1.519 1_455 S
C36 C30 1.492 . S
C36 C37 1.363 1_455 S
C36 C41 1.390 1_455 S
C37 H2 0.930 1_655 S
C37 C36 1.363 1_655 S
C37 C38 1.372 . S
C38 H3 0.930 . S
C38 C37 1.372 . S
C38 C39 1.383 . S
C39 C38 1.383 . S
C39 C40 1.395 . S
C40 H4 0.930 . S
C40 C39 1.395 . S
C40 C41 1.362 . S
C41 H5 0.930 . S
C41 C36 1.390 1_655 S
C41 C40 1.362 . S
C42 C31 1.492 . S
C42 C43 1.377 . S
C42 C47 1.397 . S
C43 H6 0.931 . S
C43 C42 1.377 . S
C43 C44 1.376 . S
C44 H7 0.930 . S
C44 C43 1.376 . S
C44 C45 1.376 . S
C45 C44 1.376 . S
C45 C46 1.378 . S
C45 C72 1.486 . S
C46 H8 0.930 . S
C46 C45 1.378 . S
C46 C47 1.376 . S
C47 H9 0.929 . S
C47 C42 1.397 . S
C47 C46 1.376 . S
C48 C32 1.509 . S
C48 C49 1.391 . S
C48 C53 1.386 . S
C49 H10 0.930 . S
C49 C48 1.391 . S
C49 C50 1.375 . S
C50 H11 0.931 . S
C50 C49 1.375 . S
C50 C51 1.375 . S
C51 C50 1.375 . S
C51 C52 1.361 . S
C52 H12 0.930 . S
C52 C51 1.361 . S
C52 C53 1.399 . S
C53 H13 0.929 . S
C53 C48 1.386 . S
C53 C52 1.399 . S
C54 C33 1.485 . S
C54 C55 1.394 . S
C54 C59 1.360 . S
C55 H14 0.931 . S
C55 C54 1.394 . S
C55 C56 1.372 . S
C56 H15 0.930 . S
C56 C55 1.372 . S
C56 C57 1.397 . S
C57 C56 1.397 . S
C57 C58 1.390 . S
C57 C73 1.476 . S
C58 H16 0.930 . S
C58 C57 1.390 . S
C58 C59 1.366 . S
C59 H17 0.932 . S
C59 C54 1.360 . S
C59 C58 1.366 . S
C60 C34 1.490 . S
C60 C61 1.380 . S
C60 C65 1.386 . S
C61 H18 0.930 . S
C61 C60 1.380 . S
C61 C62 1.381 . S
C62 H19 0.929 . S
C62 C61 1.381 . S
C62 C63 1.371 . S
C63 C62 1.371 . S
C63 C64 1.380 . S
C64 H20 0.931 . S
C64 C63 1.380 . S
C64 C65 1.387 . S
C65 H21 0.930 . S
C65 C60 1.386 . S
C65 C64 1.387 . S
C66 C35 1.519 1_655 S
C66 C67 1.377 . S
C66 C71 1.361 . S
C67 H22 0.929 . S
C67 C66 1.377 . S
C67 C68 1.386 . S
C68 H23 0.931 . S
C68 C67 1.386 . S
C68 C69 1.363 . S
C69 C68 1.363 . S
C69 C70 1.385 . S
C70 H24 0.930 . S
C70 C69 1.385 . S
C70 C71 1.396 . S
C71 H25 0.929 . S
C71 C66 1.361 . S
C71 C70 1.396 . S
C72 O26 1.300 . S
C72 O27 1.209 . S
C72 C45 1.486 . S
C73 O28 1.199 . S
C73 O29 1.297 . S
C73 C57 1.476 . S
H74 O100 0.856 . S
H75 O103 0.854 . S
H76 C111 0.930 . S
H77 C112 0.930 . S
H78 C114 0.930 . S
H79 C115 0.930 . S
H80 C117 0.931 . S
H81 C118 0.930 . S
H82 C120 0.930 . S
H83 C121 0.929 . S
H84 C123 0.930 . S
H85 C124 0.931 . S
H86 C126 0.930 . S
H87 C127 0.929 . S
H88 C129 0.931 . S
H89 C130 0.930 . S
H90 C132 0.930 . S
H91 C133 0.932 . S
H92 C135 0.930 . S
H93 C136 0.929 . S
H94 C138 0.931 . S
H95 C139 0.930 . S
H96 C141 0.929 . S
H97 C142 0.931 . S
H98 C144 0.930 . S
H99 C145 0.929 1_545 S
O100 H74 0.856 . S
O100 C146 1.300 . S
O101 C146 1.209 . S
O102 C147 1.199 . S
O103 H75 0.854 . S
O103 C147 1.297 . S
C104 C105 1.404 . S
C104 C109 1.397 . S
C104 C110 1.492 . S
C105 C104 1.404 . S
C105 C106 1.396 . S
C105 C116 1.492 . S
C106 C105 1.396 . S
C106 C107 1.397 . S
C106 C122 1.509 . S
C107 C106 1.397 . S
C107 C108 1.412 . S
C107 C128 1.485 . S
C108 C107 1.412 . S
C108 C109 1.388 . S
C108 C134 1.490 . S
C109 C104 1.397 . S
C109 C108 1.388 . S
C109 C140 1.519 . S
C110 C104 1.492 . S
C110 C111 1.363 . S
C110 C115 1.390 1_545 S
C111 H76 0.930 . S
C111 C110 1.363 . S
C111 C112 1.372 1_545 S
C112 H77 0.930 . S
C112 C111 1.372 1_565 S
C112 C113 1.383 . S
C113 C112 1.383 . S
C113 C114 1.395 . S
C114 H78 0.930 . S
C114 C113 1.395 . S
C114 C115 1.362 . S
C115 H79 0.930 . S
C115 C110 1.390 1_565 S
C115 C114 1.362 . S
C116 C105 1.492 . S
C116 C117 1.377 . S
C116 C121 1.397 . S
C117 H80 0.931 . S
C117 C116 1.377 . S
C117 C118 1.376 . S
C118 H81 0.930 . S
C118 C117 1.376 . S
C118 C119 1.376 . S
C119 C118 1.376 . S
C119 C120 1.378 . S
C119 C146 1.486 . S
C120 H82 0.930 . S
C120 C119 1.378 . S
C120 C121 1.376 . S
C121 H83 0.929 . S
C121 C116 1.397 . S
C121 C120 1.376 . S
C122 C106 1.509 . S
C122 C123 1.391 . S
C122 C127 1.386 . S
C123 H84 0.930 . S
C123 C122 1.391 . S
C123 C124 1.375 . S
C124 H85 0.931 . S
C124 C123 1.375 . S
C124 C125 1.375 . S
C125 C124 1.375 . S
C125 C126 1.361 . S
C126 H86 0.930 . S
C126 C125 1.361 . S
C126 C127 1.399 . S
C127 H87 0.929 . S
C127 C122 1.386 . S
C127 C126 1.399 . S
C128 C107 1.485 . S
C128 C129 1.394 . S
C128 C133 1.360 . S
C129 H88 0.931 . S
C129 C128 1.394 . S
C129 C130 1.372 . S
C130 H89 0.930 . S
C130 C129 1.372 . S
C130 C131 1.397 . S
C131 C130 1.397 . S
C131 C132 1.390 . S
C131 C147 1.476 . S
C132 H90 0.930 . S
C132 C131 1.390 . S
C132 C133 1.366 . S
C133 H91 0.932 . S
C133 C128 1.360 . S
C133 C132 1.366 . S
C134 C108 1.490 . S
C134 C135 1.380 . S
C134 C139 1.386 . S
C135 H92 0.930 . S
C135 C134 1.380 . S
C135 C136 1.381 . S
C136 H93 0.929 . S
C136 C135 1.381 . S
C136 C137 1.371 . S
C137 C136 1.371 . S
C137 C138 1.380 . S
C138 H94 0.931 . S
C138 C137 1.380 . S
C138 C139 1.387 . S
C139 H95 0.930 . S
C139 C134 1.386 . S
C139 C138 1.387 . S
C140 C109 1.519 . S
C140 C141 1.377 1_545 S
C140 C145 1.361 1_545 S
C141 H96 0.929 . S
C141 C140 1.377 1_565 S
C141 C142 1.386 . S
C142 H97 0.931 . S
C142 C141 1.386 . S
C142 C143 1.363 . S
C143 C142 1.363 . S
C143 C144 1.385 . S
C144 H98 0.930 . S
C144 C143 1.385 . S
C144 C145 1.396 . S
C145 H99 0.929 1_565 S
C145 C140 1.361 1_565 S
C145 C144 1.396 . S
C146 O100 1.300 . S
C146 O101 1.209 . S
C146 C119 1.486 . S
C147 O102 1.199 . S
C147 O103 1.297 . S
C147 C131 1.476 . S
H148 O174 0.856 . S
H149 O177 0.854 . S
H150 C185 0.930 . S
H151 C186 0.930 . S
H152 C188 0.930 . S
H153 C189 0.930 . S
H154 C191 0.931 . S
H155 C192 0.930 . S
H156 C194 0.930 . S
H157 C195 0.929 . S
H158 C197 0.930 . S
H159 C198 0.931 . S
H160 C200 0.930 . S
H161 C201 0.929 . S
H162 C203 0.931 . S
H163 C204 0.930 . S
H164 C206 0.930 . S
H165 C207 0.932 . S
H166 C209 0.930 . S
H167 C210 0.929 . S
H168 C212 0.931 . S
H169 C213 0.930 . S
H170 C215 0.929 . S
H171 C216 0.931 . S
H172 C218 0.930 . S
H173 C219 0.929 . S
O174 H148 0.856 . S
O174 C220 1.300 . S
O175 C220 1.209 . S
O176 C221 1.199 . S
O177 H149 0.854 . S
O177 C221 1.297 . S
C178 C179 1.404 . S
C178 C183 1.397 . S
C178 C184 1.492 . S
C179 C178 1.404 . S
C179 C180 1.396 . S
C179 C190 1.492 . S
C180 C179 1.396 . S
C180 C181 1.397 . S
C180 C196 1.509 . S
C181 C180 1.397 . S
C181 C182 1.412 . S
C181 C202 1.485 . S
C182 C181 1.412 . S
C182 C183 1.388 . S
C182 C208 1.490 . S
C183 C178 1.397 . S
C183 C182 1.388 . S
C183 C214 1.519 . S
C184 C178 1.492 . S
C184 C185 1.363 . S
C184 C189 1.390 . S
C185 H150 0.930 . S
C185 C184 1.363 . S
C185 C186 1.372 . S
C186 H151 0.930 . S
C186 C185 1.372 . S
C186 C187 1.383 . S
C187 C186 1.383 . S
C187 C188 1.395 . S
C188 H152 0.930 . S
C188 C187 1.395 . S
C188 C189 1.362 . S
C189 H153 0.930 . S
C189 C184 1.390 . S
C189 C188 1.362 . S
C190 C179 1.492 . S
C190 C191 1.377 . S
C190 C195 1.397 . S
C191 H154 0.931 . S
C191 C190 1.377 . S
C191 C192 1.376 . S
C192 H155 0.930 . S
C192 C191 1.376 . S
C192 C193 1.376 . S
C193 C192 1.376 . S
C193 C194 1.378 . S
C193 C220 1.486 . S
C194 H156 0.930 . S
C194 C193 1.378 . S
C194 C195 1.376 . S
C195 H157 0.929 . S
C195 C190 1.397 . S
C195 C194 1.376 . S
C196 C180 1.509 . S
C196 C197 1.391 . S
C196 C201 1.386 . S
C197 H158 0.930 . S
C197 C196 1.391 . S
C197 C198 1.375 . S
C198 H159 0.931 . S
C198 C197 1.375 . S
C198 C199 1.375 . S
C199 C198 1.375 . S
C199 C200 1.361 . S
C200 H160 0.930 . S
C200 C199 1.361 . S
C200 C201 1.399 . S
C201 H161 0.929 . S
C201 C196 1.386 . S
C201 C200 1.399 . S
C202 C181 1.485 . S
C202 C203 1.394 . S
C202 C207 1.360 . S
C203 H162 0.931 . S
C203 C202 1.394 . S
C203 C204 1.372 . S
C204 H163 0.930 . S
C204 C203 1.372 . S
C204 C205 1.397 . S
C205 C204 1.397 . S
C205 C206 1.390 . S
C205 C221 1.476 . S
C206 H164 0.930 . S
C206 C205 1.390 . S
C206 C207 1.366 . S
C207 H165 0.932 . S
C207 C202 1.360 . S
C207 C206 1.366 . S
C208 C182 1.490 . S
C208 C209 1.380 . S
C208 C213 1.386 . S
C209 H166 0.930 . S
C209 C208 1.380 . S
C209 C210 1.381 . S
C210 H167 0.929 . S
C210 C209 1.381 . S
C210 C211 1.371 . S
C211 C210 1.371 . S
C211 C212 1.380 . S
C212 H168 0.931 . S
C212 C211 1.380 . S
C212 C213 1.387 . S
C213 H169 0.930 . S
C213 C208 1.386 . S
C213 C212 1.387 . S
C214 C183 1.519 . S
C214 C215 1.377 . S
C214 C219 1.361 . S
C215 H170 0.929 . S
C215 C214 1.377 . S
C215 C216 1.386 . S
C216 H171 0.931 . S
C216 C215 1.386 . S
C216 C217 1.363 . S
C217 C216 1.363 . S
C217 C218 1.385 . S
C218 H172 0.930 . S
C218 C217 1.385 . S
C218 C219 1.396 . S
C219 H173 0.929 . S
C219 C214 1.361 . S
C219 C218 1.396 . S
C220 O174 1.300 . S
C220 O175 1.209 . S
C220 C193 1.486 . S
C221 O176 1.199 . S
C221 O177 1.297 . S
C221 C205 1.476 . S
H222 O248 0.856 . S
H223 O251 0.854 . S
H224 C259 0.930 1_455 S
H225 C260 0.930 . S
H226 C262 0.930 . S
H227 C263 0.930 . S
H228 C265 0.931 . S
H229 C266 0.930 . S
H230 C268 0.930 . S
H231 C269 0.929 . S
H232 C271 0.930 . S
H233 C272 0.931 . S
H234 C274 0.930 . S
H235 C275 0.929 . S
H236 C277 0.931 . S
H237 C278 0.930 . S
H238 C280 0.930 . S
H239 C281 0.932 . S
H240 C283 0.930 . S
H241 C284 0.929 . S
H242 C286 0.931 . S
H243 C287 0.930 . S
H244 C289 0.929 . S
H245 C290 0.931 . S
H246 C292 0.930 . S
H247 C293 0.929 . S
O248 H222 0.856 . S
O248 C294 1.300 . S
O249 C294 1.209 . S
O250 C295 1.199 . S
O251 H223 0.854 . S
O251 C295 1.297 . S
C252 C253 1.404 . S
C252 C257 1.397 . S
C252 C258 1.492 1_455 S
C253 C252 1.404 . S
C253 C254 1.396 . S
C253 C264 1.492 . S
C254 C253 1.396 . S
C254 C255 1.397 . S
C254 C270 1.509 . S
C255 C254 1.397 . S
C255 C256 1.412 . S
C255 C276 1.485 . S
C256 C255 1.412 . S
C256 C257 1.388 . S
C256 C282 1.490 . S
C257 C252 1.397 . S
C257 C256 1.388 . S
C257 C288 1.519 1_455 S
C258 C252 1.492 1_655 S
C258 C259 1.363 . S
C258 C263 1.390 . S
C259 H224 0.930 1_655 S
C259 C258 1.363 . S
C259 C260 1.372 . S
C260 H225 0.930 . S
C260 C259 1.372 . S
C260 C261 1.383 . S
C261 C260 1.383 . S
C261 C262 1.395 . S
C262 H226 0.930 . S
C262 C261 1.395 . S
C262 C263 1.362 . S
C263 H227 0.930 . S
C263 C258 1.390 . S
C263 C262 1.362 . S
C264 C253 1.492 . S
C264 C265 1.377 . S
C264 C269 1.397 . S
C265 H228 0.931 . S
C265 C264 1.377 . S
C265 C266 1.376 . S
C266 H229 0.930 . S
C266 C265 1.376 . S
C266 C267 1.376 . S
C267 C266 1.376 . S
C267 C268 1.378 . S
C267 C294 1.486 . S
C268 H230 0.930 . S
C268 C267 1.378 . S
C268 C269 1.376 . S
C269 H231 0.929 . S
C269 C264 1.397 . S
C269 C268 1.376 . S
C270 C254 1.509 . S
C270 C271 1.391 . S
C270 C275 1.386 . S
C271 H232 0.930 . S
C271 C270 1.391 . S
C271 C272 1.375 . S
C272 H233 0.931 . S
C272 C271 1.375 . S
C272 C273 1.375 . S
C273 C272 1.375 . S
C273 C274 1.361 . S
C274 H234 0.930 . S
C274 C273 1.361 . S
C274 C275 1.399 . S
C275 H235 0.929 . S
C275 C270 1.386 . S
C275 C274 1.399 . S
C276 C255 1.485 . S
C276 C277 1.394 . S
C276 C281 1.360 . S
C277 H236 0.931 . S
C277 C276 1.394 . S
C277 C278 1.372 . S
C278 H237 0.930 . S
C278 C277 1.372 . S
C278 C279 1.397 . S
C279 C278 1.397 . S
C279 C280 1.390 . S
C279 C295 1.476 . S
C280 H238 0.930 . S
C280 C279 1.390 . S
C280 C281 1.366 . S
C281 H239 0.932 . S
C281 C276 1.360 . S
C281 C280 1.366 . S
C282 C256 1.490 . S
C282 C283 1.380 . S
C282 C287 1.386 . S
C283 H240 0.930 . S
C283 C282 1.380 . S
C283 C284 1.381 . S
C284 H241 0.929 . S
C284 C283 1.381 . S
C284 C285 1.371 . S
C285 C284 1.371 . S
C285 C286 1.380 . S
C286 H242 0.931 . S
C286 C285 1.380 . S
C286 C287 1.387 . S
C287 H243 0.930 . S
C287 C282 1.386 . S
C287 C286 1.387 . S
C288 C257 1.519 1_655 S
C288 C289 1.377 . S
C288 C293 1.361 . S
C289 H244 0.929 . S
C289 C288 1.377 . S
C289 C290 1.386 . S
C290 H245 0.931 . S
C290 C289 1.386 . S
C290 C291 1.363 . S
C291 C290 1.363 . S
C291 C292 1.385 . S
C292 H246 0.930 . S
C292 C291 1.385 . S
C292 C293 1.396 . S
C293 H247 0.929 . S
C293 C288 1.361 . S
C293 C292 1.396 . S
C294 O248 1.300 . S
C294 O249 1.209 . S
C294 C267 1.486 . S
C295 O250 1.199 . S
C295 O251 1.297 . S
C295 C279 1.476 . S
H296 O322 0.856 . S
H297 O325 0.854 . S
H298 C333 0.930 . S
H299 C334 0.930 . S
H300 C336 0.930 . S
H301 C337 0.930 . S
H302 C339 0.931 . S
H303 C340 0.930 . S
H304 C342 0.930 1_545 S
H305 C343 0.929 1_545 S
H306 C345 0.930 . S
H307 C346 0.931 . S
H308 C348 0.930 . S
H309 C349 0.929 . S
H310 C351 0.931 . S
H311 C352 0.930 . S
H312 C354 0.930 . S
H313 C355 0.932 . S
H314 C357 0.930 . S
H315 C358 0.929 . S
H316 C360 0.931 . S
H317 C361 0.930 . S
H318 C363 0.929 1_556 S
H319 C364 0.931 . S
H320 C366 0.930 . S
H321 C367 0.929 . S
O322 H296 0.856 . S
O322 C368 1.300 . S
O323 C368 1.209 . S
O324 C369 1.199 . S
O325 H297 0.854 . S
O325 C369 1.297 . S
C326 C327 1.404 1_545 S
C326 C331 1.397 . S
C326 C332 1.492 . S
C327 C326 1.404 1_565 S
C327 C328 1.396 . S
C327 C338 1.492 . S
C328 C327 1.396 . S
C328 C329 1.397 1_556 S
C328 C344 1.509 . S
C329 C328 1.397 1_554 S
C329 C330 1.412 . S
C329 C350 1.485 . S
C330 C329 1.412 . S
C330 C331 1.388 1_564 S
C330 C356 1.490 1_565 S
C331 C326 1.397 . S
C331 C330 1.388 1_546 S
C331 C362 1.519 1_556 S
C332 C326 1.492 . S
C332 C333 1.363 . S
C332 C337 1.390 . S
C333 H298 0.930 . S
C333 C332 1.363 . S
C333 C334 1.372 . S
C334 H299 0.930 . S
C334 C333 1.372 . S
C334 C335 1.383 . S
C335 C334 1.383 . S
C335 C336 1.395 . S
C336 H300 0.930 . S
C336 C335 1.395 . S
C336 C337 1.362 . S
C337 H301 0.930 . S
C337 C332 1.390 . S
C337 C336 1.362 . S
C338 C327 1.492 . S
C338 C339 1.377 . S
C338 C343 1.397 . S
C339 H302 0.931 . S
C339 C338 1.377 . S
C339 C340 1.376 . S
C340 H303 0.930 . S
C340 C339 1.376 . S
C340 C341 1.376 . S
C341 C340 1.376 . S
C341 C342 1.378 . S
C341 C368 1.486 . S
C342 H304 0.930 1_565 S
C342 C341 1.378 . S
C342 C343 1.376 . S
C343 H305 0.929 1_565 S
C343 C338 1.397 . S
C343 C342 1.376 . S
C344 C328 1.509 . S
C344 C345 1.391 . S
C344 C349 1.386 . S
C345 H306 0.930 . S
C345 C344 1.391 . S
C345 C346 1.375 . S
C346 H307 0.931 . S
C346 C345 1.375 . S
C346 C347 1.375 . S
C347 C346 1.375 . S
C347 C348 1.361 . S
C348 H308 0.930 . S
C348 C347 1.361 . S
C348 C349 1.399 . S
C349 H309 0.929 . S
C349 C344 1.386 . S
C349 C348 1.399 . S
C350 C329 1.485 . S
C350 C351 1.394 . S
C350 C355 1.360 . S
C351 H310 0.931 . S
C351 C350 1.394 . S
C351 C352 1.372 . S
C352 H311 0.930 . S
C352 C351 1.372 . S
C352 C353 1.397 . S
C353 C352 1.397 . S
C353 C354 1.390 . S
C353 C369 1.476 . S
C354 H312 0.930 . S
C354 C353 1.390 . S
C354 C355 1.366 . S
C355 H313 0.932 . S
C355 C350 1.360 . S
C355 C354 1.366 . S
C356 C330 1.490 1_545 S
C356 C357 1.381 . S
C356 C361 1.385 1_545 S
C357 H314 0.930 . S
C357 C356 1.381 . S
C357 C358 1.381 . S
C358 H315 0.929 . S
C358 C357 1.381 . S
C358 C359 1.371 . S
C359 C358 1.371 . S
C359 C360 1.380 1_545 S
C360 H316 0.931 . S
C360 C359 1.380 1_565 S
C360 C361 1.387 . S
C361 H317 0.930 . S
C361 C356 1.385 1_565 S
C361 C360 1.387 . S
C362 C331 1.519 1_554 S
C362 C363 1.377 . S
C362 C367 1.361 . S
C363 H318 0.929 1_554 S
C363 C362 1.377 . S
C363 C364 1.386 . S
C364 H319 0.931 . S
C364 C363 1.386 . S
C364 C365 1.363 . S
C365 C364 1.363 . S
C365 C366 1.385 . S
C366 H320 0.930 . S
C366 C365 1.385 . S
C366 C367 1.396 . S
C367 H321 0.929 . S
C367 C362 1.361 . S
C367 C366 1.396 . S
C368 O322 1.300 . S
C368 O323 1.209 . S
C368 C341 1.486 . S
C369 O324 1.199 . S
C369 O325 1.297 . S
C369 C353 1.476 . S
H370 O396 0.856 . S
H371 O399 0.854 . S
H372 C407 0.930 . S
H373 C408 0.930 . S
H374 C410 0.930 . S
H375 C411 0.930 . S
H376 C413 0.931 . S
H377 C414 0.930 . S
H378 C416 0.930 . S
H379 C417 0.929 . S
H380 C419 0.930 . S
H381 C420 0.931 . S
H382 C422 0.930 . S
H383 C423 0.929 . S
H384 C425 0.931 . S
H385 C426 0.930 . S
H386 C428 0.930 . S
H387 C429 0.932 . S
H388 C431 0.930 . S
H389 C432 0.929 . S
H390 C434 0.931 . S
H391 C435 0.930 . S
H392 C437 0.929 . S
H393 C438 0.931 . S
H394 C440 0.930 . S
H395 C441 0.929 . S
O396 H370 0.856 . S
O396 C442 1.300 . S
O397 C442 1.209 . S
O398 C443 1.199 . S
O399 H371 0.854 . S
O399 C443 1.297 . S
C400 C401 1.404 . S
C400 C405 1.397 . S
C400 C406 1.492 . S
C401 C400 1.404 . S
C401 C402 1.396 . S
C401 C412 1.492 . S
C402 C401 1.396 . S
C402 C403 1.397 . S
C402 C418 1.509 . S
C403 C402 1.397 . S
C403 C404 1.412 . S
C403 C424 1.485 . S
C404 C403 1.412 . S
C404 C405 1.388 . S
C404 C430 1.490 . S
C405 C400 1.397 . S
C405 C404 1.388 . S
C405 C436 1.519 . S
C406 C400 1.492 . S
C406 C407 1.363 . S
C406 C411 1.390 . S
C407 H372 0.930 . S
C407 C406 1.363 . S
C407 C408 1.372 . S
C408 H373 0.930 . S
C408 C407 1.372 . S
C408 C409 1.383 . S
C409 C408 1.383 . S
C409 C410 1.395 . S
C410 H374 0.930 . S
C410 C409 1.395 . S
C410 C411 1.362 . S
C411 H375 0.930 . S
C411 C406 1.390 . S
C411 C410 1.362 . S
C412 C401 1.492 . S
C412 C413 1.377 . S
C412 C417 1.397 . S
C413 H376 0.931 . S
C413 C412 1.377 . S
C413 C414 1.376 . S
C414 H377 0.930 . S
C414 C413 1.376 . S
C414 C415 1.376 . S
C415 C414 1.376 . S
C415 C416 1.378 . S
C415 C442 1.486 1_554 S
C416 H378 0.930 . S
C416 C415 1.378 . S
C416 C417 1.376 . S
C417 H379 0.929 . S
C417 C412 1.397 . S
C417 C416 1.376 . S
C418 C402 1.509 . S
C418 C419 1.391 . S
C418 C423 1.386 . S
C419 H380 0.930 . S
C419 C418 1.391 . S
C419 C420 1.375 . S
C420 H381 0.931 . S
C420 C419 1.375 . S
C420 C421 1.375 . S
C421 C420 1.375 . S
C421 C422 1.361 . S
C422 H382 0.930 . S
C422 C421 1.361 . S
C422 C423 1.399 . S
C423 H383 0.929 . S
C423 C418 1.386 . S
C423 C422 1.399 . S
C424 C403 1.485 . S
C424 C425 1.394 . S
C424 C429 1.360 . S
C425 H384 0.931 . S
C425 C424 1.394 . S
C425 C426 1.372 . S
C426 H385 0.930 . S
C426 C425 1.372 . S
C426 C427 1.397 . S
C427 C426 1.397 . S
C427 C428 1.390 . S
C427 C443 1.476 . S
C428 H386 0.930 . S
C428 C427 1.390 . S
C428 C429 1.366 . S
C429 H387 0.932 . S
C429 C424 1.360 . S
C429 C428 1.366 . S
C430 C404 1.490 . S
C430 C431 1.380 . S
C430 C435 1.386 . S
C431 H388 0.930 . S
C431 C430 1.380 . S
C431 C432 1.381 . S
C432 H389 0.929 . S
C432 C431 1.381 . S
C432 C433 1.371 . S
C433 C432 1.371 . S
C433 C434 1.380 . S
C434 H390 0.931 . S
C434 C433 1.380 . S
C434 C435 1.387 . S
C435 H391 0.930 . S
C435 C430 1.386 . S
C435 C434 1.387 . S
C436 C405 1.519 . S
C436 C437 1.377 . S
C436 C441 1.361 . S
C437 H392 0.929 . S
C437 C436 1.377 . S
C437 C438 1.386 . S
C438 H393 0.931 . S
C438 C437 1.386 . S
C438 C439 1.363 . S
C439 C438 1.363 . S
C439 C440 1.385 . S
C440 H394 0.930 . S
C440 C439 1.385 . S
C440 C441 1.396 . S
C441 H395 0.929 . S
C441 C436 1.361 . S
C441 C440 1.396 . S
C442 O396 1.300 . S
C442 O397 1.209 . S
C442 C415 1.486 1_556 S
C443 O398 1.199 . S
C443 O399 1.297 . S
C443 C427 1.476 . S
O444 Cd445 2.223 . S
O444 C452 1.315 . S
Cd445 O444 2.223 . S
Cd445 O448 2.297 . S
Cd445 O449 2.439 . S
Cd445 O455 2.240 . S
Cd446 O447 2.240 . S
Cd446 O454 2.223 . S
Cd446 O456 2.297 . S
Cd446 O457 2.439 . S
O447 Cd446 2.240 . S
O447 C452 1.279 . S
O448 Cd445 2.297 . S
O448 C450 1.247 . S
O449 Cd445 2.439 . S
O449 C450 1.208 . S
C450 O448 1.247 . S
C450 O449 1.208 . S
C451 O456 1.247 . S
C451 O457 1.208 . S
C452 O444 1.315 . S
C452 O447 1.279 . S
C453 O454 1.315 . S
C453 O455 1.279 . S
O454 Cd446 2.223 . S
O454 C453 1.315 . S
O455 Cd445 2.240 . S
O455 C453 1.279 . S
O456 Cd446 2.297 . S
O456 C451 1.247 . S
O457 Cd446 2.439 . S
O457 C451 1.208 . S
O458 Cd459 2.223 . S
O458 C466 1.315 . S
Cd459 O458 2.223 . S
Cd459 O462 2.297 . S
Cd459 O463 2.439 . S
Cd459 O469 2.240 . S
Cd460 O461 2.240 . S
Cd460 O468 2.223 . S
Cd460 O470 2.297 . S
Cd460 O471 2.439 . S
O461 Cd460 2.240 . S
O461 C466 1.279 . S
O462 Cd459 2.297 . S
O462 C464 1.247 . S
O463 Cd459 2.439 . S
O463 C464 1.208 . S
C464 O462 1.247 . S
C464 O463 1.208 . S
C465 O470 1.247 . S
C465 O471 1.208 . S
C466 O458 1.315 . S
C466 O461 1.279 . S
C467 O468 1.315 . S
C467 O469 1.279 . S
O468 Cd460 2.223 . S
O468 C467 1.315 . S
O469 Cd459 2.240 . S
O469 C467 1.279 . S
O470 Cd460 2.297 . S
O470 C465 1.247 . S
O471 Cd460 2.439 . S
O471 C465 1.208 . S
O472 Cd473 2.223 . S
O472 C480 1.315 . S
Cd473 O472 2.223 . S
Cd473 O476 2.297 . S
Cd473 O477 2.439 . S
Cd473 O483 2.240 . S
Cd474 O475 2.240 . S
Cd474 O482 2.223 . S
Cd474 O484 2.297 . S
Cd474 O485 2.439 . S
O475 Cd474 2.240 . S
O475 C480 1.279 . S
O476 Cd473 2.297 . S
O476 C478 1.247 . S
O477 Cd473 2.439 . S
O477 C478 1.208 . S
C478 O476 1.247 . S
C478 O477 1.208 . S
C479 O484 1.247 . S
C479 O485 1.208 . S
C480 O472 1.315 . S
C480 O475 1.279 . S
C481 O482 1.315 . S
C481 O483 1.279 . S
O482 Cd474 2.223 . S
O482 C481 1.315 . S
O483 Cd473 2.240 . S
O483 C481 1.279 . S
O484 Cd474 2.297 . S
O484 C479 1.247 . S
O485 Cd474 2.439 . S
O485 C479 1.208 . S
O486 Cd487 2.223 . S
O486 C494 1.315 . S
Cd487 O486 2.223 . S
Cd487 O490 2.297 . S
Cd487 O491 2.439 . S
Cd487 O497 2.240 . S
Cd488 O489 2.240 . S
Cd488 O496 2.223 . S
Cd488 O498 2.297 . S
Cd488 O499 2.439 . S
O489 Cd488 2.240 . S
O489 C494 1.279 . S
O490 Cd487 2.297 . S
O490 C492 1.247 . S
O491 Cd487 2.439 . S
O491 C492 1.208 . S
C492 O490 1.247 . S
C492 O491 1.208 . S
C493 O498 1.247 . S
C493 O499 1.208 . S
C494 O486 1.315 . S
C494 O489 1.279 . S
C495 O496 1.315 . S
C495 O497 1.279 . S
O496 Cd488 2.223 . S
O496 C495 1.315 . S
O497 Cd487 2.240 . S
O497 C495 1.279 . S
O498 Cd488 2.297 . S
O498 C493 1.247 . S
O499 Cd488 2.439 . S
O499 C493 1.208 . S
O500 Cd501 2.223 . S
O500 C508 1.315 . S
Cd501 O500 2.223 . S
Cd501 O504 2.297 . S
Cd501 O505 2.439 . S
Cd501 O511 2.240 . S
Cd502 O503 2.240 . S
Cd502 O510 2.223 . S
Cd502 O512 2.297 . S
Cd502 O513 2.439 . S
O503 Cd502 2.240 . S
O503 C508 1.279 . S
O504 Cd501 2.297 . S
O504 C506 1.247 . S
O505 Cd501 2.439 . S
O505 C506 1.208 . S
C506 O504 1.247 . S
C506 O505 1.208 . S
C507 O512 1.247 . S
C507 O513 1.208 . S
C508 O500 1.315 . S
C508 O503 1.279 . S
C509 O510 1.315 . S
C509 O511 1.279 . S
O510 Cd502 2.223 . S
O510 C509 1.315 . S
O511 Cd501 2.240 . S
O511 C509 1.279 . S
O512 Cd502 2.297 . S
O512 C507 1.247 . S
O513 Cd502 2.439 . S
O513 C507 1.208 . S
O514 Cd515 2.223 . S
O514 C522 1.315 . S
Cd515 O514 2.223 . S
Cd515 O518 2.297 . S
Cd515 O519 2.439 . S
Cd515 O525 2.240 . S
Cd516 O517 2.240 . S
Cd516 O524 2.223 . S
Cd516 O526 2.297 . S
Cd516 O527 2.439 . S
O517 Cd516 2.240 . S
O517 C522 1.279 . S
O518 Cd515 2.297 . S
O518 C520 1.247 . S
O519 Cd515 2.439 . S
O519 C520 1.208 . S
C520 O518 1.247 . S
C520 O519 1.208 . S
C521 O526 1.247 . S
C521 O527 1.208 . S
C522 O514 1.315 . S
C522 O517 1.279 . S
C523 O524 1.315 . S
C523 O525 1.279 . S
O524 Cd516 2.223 . S
O524 C523 1.315 . S
O525 Cd515 2.240 . S
O525 C523 1.279 . S
O526 Cd516 2.297 . S
O526 C521 1.247 . S
O527 Cd516 2.439 . S
O527 C521 1.208 . S
H528 C534 0.930 . S
H529 C537 0.930 . S
H530 C538 0.930 . S
H531 C539 0.930 . S
H532 C542 0.930 . S
H533 C543 0.930 . S
C534 H528 0.930 . S
C534 C535 1.355 . S
C534 C536 1.415 . S
C535 C534 1.355 . S
C535 C537 1.419 . S
C536 C534 1.415 . S
C536 C541 1.425 . S
C536 C543 1.409 . S
C537 H529 0.930 . S
C537 C535 1.419 . S
C537 C538 1.362 . S
C538 H530 0.930 . S
C538 C537 1.362 . S
C538 C541 1.409 . S
C539 H531 0.930 . S
C539 C540 1.355 . S
C539 C541 1.415 . S
C540 C539 1.355 . S
C540 C542 1.419 . S
C541 C536 1.425 . S
C541 C538 1.409 . S
C541 C539 1.415 . S
C542 H532 0.930 . S
C542 C540 1.419 . S
C542 C543 1.362 . S
C543 H533 0.930 . S
C543 C536 1.409 . S
C543 C542 1.362 . S
H544 C550 0.930 . S
H545 C553 0.930 . S
H546 C554 0.930 . S
H547 C555 0.930 . S
H548 C558 0.930 . S
H549 C559 0.930 . S
C550 H544 0.930 . S
C550 C551 1.355 . S
C550 C552 1.415 . S
C551 C550 1.355 . S
C551 C553 1.419 . S
C552 C550 1.415 . S
C552 C557 1.425 . S
C552 C559 1.409 . S
C553 H545 0.930 . S
C553 C551 1.419 . S
C553 C554 1.362 . S
C554 H546 0.930 . S
C554 C553 1.362 . S
C554 C557 1.409 . S
C555 H547 0.930 . S
C555 C556 1.355 . S
C555 C557 1.415 . S
C556 C555 1.355 . S
C556 C558 1.419 . S
C557 C552 1.425 . S
C557 C554 1.409 . S
C557 C555 1.415 . S
C558 H548 0.930 . S
C558 C556 1.419 . S
C558 C559 1.362 . S
C559 H549 0.930 . S
C559 C552 1.409 . S
C559 C558 1.362 . S
H560 C566 0.930 . S
H561 C569 0.930 . S
H562 C570 0.930 . S
H563 C571 0.930 . S
H564 C574 0.930 . S
H565 C575 0.930 . S
C566 H560 0.930 . S
C566 C567 1.355 . S
C566 C568 1.415 . S
C567 C566 1.355 . S
C567 C569 1.419 . S
C568 C566 1.415 . S
C568 C573 1.425 . S
C568 C575 1.409 . S
C569 H561 0.930 . S
C569 C567 1.419 . S
C569 C570 1.362 . S
C570 H562 0.930 . S
C570 C569 1.362 . S
C570 C573 1.409 . S
C571 H563 0.930 . S
C571 C572 1.355 . S
C571 C573 1.415 . S
C572 C571 1.355 . S
C572 C574 1.419 . S
C573 C568 1.425 . S
C573 C570 1.409 . S
C573 C571 1.415 . S
C574 H564 0.930 . S
C574 C572 1.419 . S
C574 C575 1.362 . S
C575 H565 0.930 . S
C575 C568 1.409 . S
C575 C574 1.362 . S
H576 C582 0.930 . S
H577 C585 0.930 . S
H578 C586 0.930 . S
H579 C587 0.930 . S
H580 C590 0.930 . S
H581 C591 0.930 . S
C582 H576 0.930 . S
C582 C583 1.355 . S
C582 C584 1.415 . S
C583 C582 1.355 . S
C583 C585 1.419 . S
C584 C582 1.415 . S
C584 C589 1.425 . S
C584 C591 1.409 . S
C585 H577 0.930 . S
C585 C583 1.419 . S
C585 C586 1.362 . S
C586 H578 0.930 . S
C586 C585 1.362 . S
C586 C589 1.409 . S
C587 H579 0.930 . S
C587 C588 1.355 . S
C587 C589 1.415 . S
C588 C587 1.355 . S
C588 C590 1.419 . S
C589 C584 1.425 . S
C589 C586 1.409 . S
C589 C587 1.415 . S
C590 H580 0.930 . S
C590 C588 1.419 . S
C590 C591 1.362 . S
C591 H581 0.930 . S
C591 C584 1.409 . S
C591 C590 1.362 . S
H592 C598 0.930 . S
H593 C601 0.930 . S
H594 C602 0.930 . S
H595 C603 0.930 . S
H596 C606 0.930 . S
H597 C607 0.930 . S
C598 H592 0.930 . S
C598 C599 1.355 . S
C598 C600 1.415 . S
C599 C598 1.355 . S
C599 C601 1.419 . S
C600 C598 1.415 . S
C600 C605 1.425 . S
C600 C607 1.409 . S
C601 H593 0.930 . S
C601 C599 1.419 . S
C601 C602 1.362 . S
C602 H594 0.930 . S
C602 C601 1.362 . S
C602 C605 1.409 . S
C603 H595 0.930 . S
C603 C604 1.355 . S
C603 C605 1.415 . S
C604 C603 1.355 . S
C604 C606 1.419 . S
C605 C600 1.425 . S
C605 C602 1.409 . S
C605 C603 1.415 . S
C606 H596 0.930 . S
C606 C604 1.419 . S
C606 C607 1.362 . S
C607 H597 0.930 . S
C607 C600 1.409 . S
C607 C606 1.362 . S
H608 C614 0.930 . S
H609 C617 0.930 . S
H610 C618 0.930 . S
H611 C619 0.930 . S
H612 C622 0.930 . S
H613 C623 0.930 . S
C614 H608 0.930 . S
C614 C615 1.355 . S
C614 C616 1.415 . S
C615 C614 1.355 . S
C615 C617 1.419 . S
C616 C614 1.415 . S
C616 C621 1.425 . S
C616 C623 1.409 . S
C617 H609 0.930 . S
C617 C615 1.419 . S
C617 C618 1.362 . S
C618 H610 0.930 . S
C618 C617 1.362 . S
C618 C621 1.409 . S
C619 H611 0.930 . S
C619 C620 1.355 . S
C619 C621 1.415 . S
C620 C619 1.355 . S
C620 C622 1.419 . S
C621 C616 1.425 . S
C621 C618 1.409 . S
C621 C619 1.415 . S
C622 H612 0.930 . S
C622 C620 1.419 . S
C622 C623 1.362 . S
C623 H613 0.930 . S
C623 C616 1.409 . S
C623 C622 1.362 . S
H624 C630 0.930 . S
H625 C633 0.930 . S
H626 C634 0.930 . S
H627 C635 0.930 . S
H628 C638 0.930 . S
H629 C639 0.930 . S
C630 H624 0.930 . S
C630 C631 1.355 . S
C630 C632 1.415 . S
C631 C630 1.355 . S
C631 C633 1.419 . S
C632 C630 1.415 . S
C632 C637 1.425 . S
C632 C639 1.409 . S
C633 H625 0.930 . S
C633 C631 1.419 . S
C633 C634 1.362 . S
C634 H626 0.930 . S
C634 C633 1.362 . S
C634 C637 1.409 . S
C635 H627 0.930 . S
C635 C636 1.355 . S
C635 C637 1.415 . S
C636 C635 1.355 . S
C636 C638 1.419 . S
C637 C632 1.425 . S
C637 C634 1.409 . S
C637 C635 1.415 . S
C638 H628 0.930 . S
C638 C636 1.419 . S
C638 C639 1.362 . S
C639 H629 0.930 . S
C639 C632 1.409 . S
C639 C638 1.362 . S
H640 C646 0.930 . S
H641 C649 0.930 . S
H642 C650 0.930 . S
H643 C651 0.930 . S
H644 C654 0.930 . S
H645 C655 0.930 . S
C646 H640 0.930 . S
C646 C647 1.355 . S
C646 C648 1.415 . S
C647 C646 1.355 . S
C647 C649 1.419 . S
C648 C646 1.415 . S
C648 C653 1.425 . S
C648 C655 1.409 . S
C649 H641 0.930 . S
C649 C647 1.419 . S
C649 C650 1.362 . S
C650 H642 0.930 . S
C650 C649 1.362 . S
C650 C653 1.409 . S
C651 H643 0.930 . S
C651 C652 1.355 . S
C651 C653 1.415 . S
C652 C651 1.355 . S
C652 C654 1.419 . S
C653 C648 1.425 . S
C653 C650 1.409 . S
C653 C651 1.415 . S
C654 H644 0.930 . S
C654 C652 1.419 . S
C654 C655 1.362 . S
C655 H645 0.930 . S
C655 C648 1.409 . S
C655 C654 1.362 . S
H656 C662 0.930 . S
H657 C665 0.930 . S
H658 C666 0.930 . S
H659 C667 0.930 . S
H660 C670 0.930 . S
H661 C671 0.930 . S
C662 H656 0.930 . S
C662 C663 1.355 . S
C662 C664 1.415 . S
C663 C662 1.355 . S
C663 C665 1.419 . S
C664 C662 1.415 . S
C664 C669 1.425 . S
C664 C671 1.409 . S
C665 H657 0.930 . S
C665 C663 1.419 . S
C665 C666 1.362 . S
C666 H658 0.930 . S
C666 C665 1.362 . S
C666 C669 1.409 . S
C667 H659 0.930 . S
C667 C668 1.355 . S
C667 C669 1.415 . S
C668 C667 1.355 . S
C668 C670 1.419 . S
C669 C664 1.425 . S
C669 C666 1.409 . S
C669 C667 1.415 . S
C670 H660 0.930 . S
C670 C668 1.419 . S
C670 C671 1.362 . S
C671 H661 0.930 . S
C671 C664 1.409 . S
C671 C670 1.362 . S
H672 C678 0.930 . S
H673 C681 0.930 . S
H674 C682 0.930 . S
H675 C683 0.930 . S
H676 C686 0.930 . S
H677 C687 0.930 . S
C678 H672 0.930 . S
C678 C679 1.355 . S
C678 C680 1.415 . S
C679 C678 1.355 . S
C679 C681 1.419 . S
C680 C678 1.415 . S
C680 C685 1.425 . S
C680 C687 1.409 . S
C681 H673 0.930 . S
C681 C679 1.419 . S
C681 C682 1.362 . S
C682 H674 0.930 . S
C682 C681 1.362 . S
C682 C685 1.409 . S
C683 H675 0.930 . S
C683 C684 1.355 . S
C683 C685 1.415 . S
C684 C683 1.355 . S
C684 C686 1.419 . S
C685 C680 1.425 . S
C685 C682 1.409 . S
C685 C683 1.415 . S
C686 H676 0.930 . S
C686 C684 1.419 . S
C686 C687 1.362 . S
C687 H677 0.930 . S
C687 C680 1.409 . S
C687 C686 1.362 . S
H688 C694 0.930 . S
H689 C697 0.930 . S
H690 C698 0.930 . S
H691 C699 0.930 . S
H692 C702 0.930 . S
H693 C703 0.930 . S
C694 H688 0.930 . S
C694 C695 1.355 . S
C694 C696 1.415 . S
C695 C694 1.355 . S
C695 C697 1.419 . S
C696 C694 1.415 . S
C696 C701 1.425 . S
C696 C703 1.409 . S
C697 H689 0.930 . S
C697 C695 1.419 . S
C697 C698 1.362 . S
C698 H690 0.930 . S
C698 C697 1.362 . S
C698 C701 1.409 . S
C699 H691 0.930 . S
C699 C700 1.355 . S
C699 C701 1.415 . S
C700 C699 1.355 . S
C700 C702 1.419 . S
C701 C696 1.425 . S
C701 C698 1.409 . S
C701 C699 1.415 . S
C702 H692 0.930 . S
C702 C700 1.419 . S
C702 C703 1.362 . S
C703 H693 0.930 . S
C703 C696 1.409 . S
C703 C702 1.362 . S
H704 C710 0.930 . S
H705 C713 0.930 . S
H706 C714 0.930 . S
H707 C715 0.930 . S
H708 C718 0.930 . S
H709 C719 0.930 . S
C710 H704 0.930 . S
C710 C711 1.355 . S
C710 C712 1.415 . S
C711 C710 1.355 . S
C711 C713 1.419 . S
C712 C710 1.415 . S
C712 C717 1.425 . S
C712 C719 1.409 . S
C713 H705 0.930 . S
C713 C711 1.419 . S
C713 C714 1.362 . S
C714 H706 0.930 . S
C714 C713 1.362 . S
C714 C717 1.409 . S
C715 H707 0.930 . S
C715 C716 1.355 . S
C715 C717 1.415 . S
C716 C715 1.355 . S
C716 C718 1.419 . S
C717 C712 1.425 . S
C717 C714 1.409 . S
C717 C715 1.415 . S
C718 H708 0.930 . S
C718 C716 1.419 . S
C718 C719 1.362 . S
C719 H709 0.930 . S
C719 C712 1.409 . S
C719 C718 1.362 . S
H720 C726 0.930 . S
H721 C729 0.930 . S
H722 C730 0.930 . S
H723 C731 0.930 . S
H724 C734 0.930 . S
H725 C735 0.930 . S
C726 H720 0.930 . S
C726 C727 1.355 . S
C726 C728 1.415 . S
C727 C726 1.355 . S
C727 C729 1.419 . S
C728 C726 1.415 . S
C728 C733 1.425 . S
C728 C735 1.409 . S
C729 H721 0.930 . S
C729 C727 1.419 . S
C729 C730 1.362 . S
C730 H722 0.930 . S
C730 C729 1.362 . S
C730 C733 1.409 . S
C731 H723 0.930 . S
C731 C732 1.355 . S
C731 C733 1.415 . S
C732 C731 1.355 . S
C732 C734 1.419 . S
C733 C728 1.425 . S
C733 C730 1.409 . S
C733 C731 1.415 . S
C734 H724 0.930 . S
C734 C732 1.419 . S
C734 C735 1.362 . S
C735 H725 0.930 . S
C735 C728 1.409 . S
C735 C734 1.362 . S
H736 C742 0.930 . S
H737 C745 0.930 . S
H738 C746 0.930 . S
H739 C747 0.930 . S
H740 C750 0.930 . S
H741 C751 0.930 . S
C742 H736 0.930 . S
C742 C743 1.355 . S
C742 C744 1.415 . S
C743 C742 1.355 . S
C743 C745 1.419 . S
C744 C742 1.415 . S
C744 C749 1.425 . S
C744 C751 1.409 . S
C745 H737 0.930 . S
C745 C743 1.419 . S
C745 C746 1.362 . S
C746 H738 0.930 . S
C746 C745 1.362 . S
C746 C749 1.409 . S
C747 H739 0.930 . S
C747 C748 1.355 . S
C747 C749 1.415 . S
C748 C747 1.355 . S
C748 C750 1.419 . S
C749 C744 1.425 . S
C749 C746 1.409 . S
C749 C747 1.415 . S
C750 H740 0.930 . S
C750 C748 1.419 . S
C750 C751 1.362 . S
C751 H741 0.930 . S
C751 C744 1.409 . S
C751 C750 1.362 . S
H752 C758 0.930 . S
H753 C761 0.930 . S
H754 C762 0.930 . S
H755 C763 0.930 . S
H756 C766 0.930 . S
H757 C767 0.930 . S
C758 H752 0.930 . S
C758 C759 1.355 . S
C758 C760 1.415 . S
C759 C758 1.355 . S
C759 C761 1.419 . S
C760 C758 1.415 . S
C760 C765 1.425 . S
C760 C767 1.409 . S
C761 H753 0.930 . S
C761 C759 1.419 . S
C761 C762 1.362 . S
C762 H754 0.930 . S
C762 C761 1.362 . S
C762 C765 1.409 . S
C763 H755 0.930 . S
C763 C764 1.355 . S
C763 C765 1.415 . S
C764 C763 1.355 . S
C764 C766 1.419 . S
C765 C760 1.425 . S
C765 C762 1.409 . S
C765 C763 1.415 . S
C766 H756 0.930 . S
C766 C764 1.419 . S
C766 C767 1.362 . S
C767 H757 0.930 . S
C767 C760 1.409 . S
C767 C766 1.362 . S
H768 C774 0.930 . S
H769 C777 0.930 . S
H770 C778 0.930 . S
H771 C779 0.930 1_554 S
H772 C782 0.915 1_554 S
H773 C783 0.930 . S
C774 H768 0.930 . S
C774 C775 1.355 . S
C774 C776 1.415 . S
C775 C774 1.355 . S
C775 C777 1.419 . S
C776 C774 1.415 . S
C776 C781 1.425 . S
C776 C783 1.409 . S
C777 H769 0.930 . S
C777 C775 1.419 . S
C777 C778 1.362 . S
C778 H770 0.930 . S
C778 C777 1.362 . S
C778 C781 1.409 . S
C779 H771 0.930 1_556 S
C779 C780 1.355 1_556 S
C779 C781 1.415 . S
C780 C779 1.355 1_554 S
C780 C782 1.419 1_554 S
C781 C776 1.425 . S
C781 C778 1.409 . S
C781 C779 1.415 . S
C782 H772 0.915 1_556 S
C782 C780 1.419 1_556 S
C782 C783 1.362 . S
C783 H773 0.930 . S
C783 C776 1.409 . S
C783 C782 1.362 . S
H784 C790 0.930 . S
H785 C793 0.930 1_545 S
H786 C794 0.930 . S
H787 C795 0.930 . S
H788 C798 0.930 . S
H789 C799 0.930 . S
C790 H784 0.930 . S
C790 C791 1.355 . S
C790 C792 1.415 . S
C791 C790 1.355 . S
C791 C793 1.419 . S
C792 C790 1.415 . S
C792 C797 1.425 . S
C792 C799 1.409 . S
C793 H785 0.930 1_565 S
C793 C791 1.419 . S
C793 C794 1.362 . S
C794 H786 0.930 . S
C794 C793 1.362 . S
C794 C797 1.409 . S
C795 H787 0.930 . S
C795 C796 1.355 . S
C795 C797 1.415 . S
C796 C795 1.355 . S
C796 C798 1.419 . S
C797 C792 1.425 . S
C797 C794 1.409 . S
C797 C795 1.415 . S
C798 H788 0.930 . S
C798 C796 1.419 . S
C798 C799 1.362 . S
C799 H789 0.930 . S
C799 C792 1.409 . S
C799 C798 1.362 . S
H800 C806 0.930 . S
H801 C809 0.930 . S
H802 C810 0.930 . S
H803 C811 0.930 . S
H804 C814 0.930 . S
H805 C815 0.930 . S
C806 H800 0.930 . S
C806 C807 1.355 . S
C806 C808 1.415 . S
C807 C806 1.355 . S
C807 C809 1.419 . S
C808 C806 1.415 . S
C808 C813 1.425 . S
C808 C815 1.409 . S
C809 H801 0.930 . S
C809 C807 1.419 . S
C809 C810 1.362 . S
C810 H802 0.930 . S
C810 C809 1.362 . S
C810 C813 1.409 . S
C811 H803 0.930 . S
C811 C812 1.355 . S
C811 C813 1.415 . S
C812 C811 1.355 . S
C812 C814 1.419 . S
C813 C808 1.425 . S
C813 C810 1.409 . S
C813 C811 1.415 . S
C814 H804 0.930 . S
C814 C812 1.419 . S
C814 C815 1.362 . S
C815 H805 0.930 . S
C815 C808 1.409 . S
C815 C814 1.362 . S
H816 C822 0.930 . S
H817 C825 0.930 . S
H818 C826 0.930 . S
H819 C827 0.930 . S
H820 C830 0.930 . S
H821 C831 0.930 . S
C822 H816 0.930 . S
C822 C823 1.355 . S
C822 C824 1.415 . S
C823 C822 1.355 . S
C823 C825 1.419 . S
C824 C822 1.415 . S
C824 C829 1.425 . S
C824 C831 1.409 . S
C825 H817 0.930 . S
C825 C823 1.419 . S
C825 C826 1.362 . S
C826 H818 0.930 . S
C826 C825 1.362 . S
C826 C829 1.409 . S
C827 H819 0.930 . S
C827 C828 1.355 . S
C827 C829 1.415 . S
C828 C827 1.355 . S
C828 C830 1.419 . S
C829 C824 1.425 . S
C829 C826 1.409 . S
C829 C827 1.415 . S
C830 H820 0.930 . S
C830 C828 1.419 . S
C830 C831 1.362 . S
C831 H821 0.930 . S
C831 C824 1.409 . S
C831 C830 1.362 . S
H832 C838 0.930 . S
H833 C841 0.930 . S
H834 C842 0.930 . S
H835 C843 0.930 . S
H836 C846 0.930 . S
H837 C847 0.930 . S
C838 H832 0.930 . S
C838 C839 1.355 . S
C838 C840 1.415 . S
C839 C838 1.355 . S
C839 C841 1.419 . S
C840 C838 1.415 . S
C840 C845 1.425 . S
C840 C847 1.409 . S
C841 H833 0.930 . S
C841 C839 1.419 . S
C841 C842 1.362 . S
C842 H834 0.930 . S
C842 C841 1.362 . S
C842 C845 1.409 . S
C843 H835 0.930 . S
C843 C844 1.355 . S
C843 C845 1.415 . S
C844 C843 1.355 . S
C844 C846 1.419 . S
C845 C840 1.425 . S
C845 C842 1.409 . S
C845 C843 1.415 . S
C846 H836 0.930 . S
C846 C844 1.419 . S
C846 C847 1.362 . S
C847 H837 0.930 . S
C847 C840 1.409 . S
C847 C846 1.362 . S
H848 C854 0.930 . S
H849 C857 0.930 . S
H850 C858 0.930 . S
H851 C859 0.930 . S
H852 C862 0.930 . S
H853 C863 0.930 . S
C854 H848 0.930 . S
C854 C855 1.355 . S
C854 C856 1.415 . S
C855 C854 1.355 . S
C855 C857 1.419 . S
C856 C854 1.415 . S
C856 C861 1.425 . S
C856 C863 1.409 . S
C857 H849 0.930 . S
C857 C855 1.419 . S
C857 C858 1.362 . S
C858 H850 0.930 . S
C858 C857 1.362 . S
C858 C861 1.409 . S
C859 H851 0.930 . S
C859 C860 1.355 . S
C859 C861 1.415 . S
C860 C859 1.355 . S
C860 C862 1.419 . S
C861 C856 1.425 . S
C861 C858 1.409 . S
C861 C859 1.415 . S
C862 H852 0.930 . S
C862 C860 1.419 . S
C862 C863 1.362 . S
C863 H853 0.930 . S
C863 C856 1.409 . S
C863 C862 1.362 . S
H864 C870 0.930 . S
H865 C873 0.930 . S
H866 C874 0.930 . S
H867 C875 0.930 . S
H868 C878 0.930 . S
H869 C879 0.930 . S
C870 H864 0.930 . S
C870 C871 1.355 . S
C870 C872 1.415 . S
C871 C870 1.355 . S
C871 C873 1.419 . S
C872 C870 1.415 . S
C872 C877 1.425 . S
C872 C879 1.409 . S
C873 H865 0.930 . S
C873 C871 1.419 . S
C873 C874 1.362 . S
C874 H866 0.930 . S
C874 C873 1.362 . S
C874 C877 1.409 . S
C875 H867 0.930 . S
C875 C876 1.355 . S
C875 C877 1.415 . S
C876 C875 1.355 . S
C876 C878 1.419 . S
C877 C872 1.425 . S
C877 C874 1.409 . S
C877 C875 1.415 . S
C878 H868 0.930 . S
C878 C876 1.419 . S
C878 C879 1.362 . S
C879 H869 0.930 . S
C879 C872 1.409 . S
C879 C878 1.362 . S
H880 C886 0.930 . S
H881 C889 0.930 . S
H882 C890 0.930 1_556 S
H883 C891 0.930 . S
H884 C894 0.930 . S
H885 C895 0.930 . S
C886 H880 0.930 . S
C886 C887 1.355 . S
C886 C888 1.415 . S
C887 C886 1.355 . S
C887 C889 1.419 . S
C888 C886 1.415 . S
C888 C893 1.425 1_554 S
C888 C895 1.409 . S
C889 H881 0.930 . S
C889 C887 1.419 . S
C889 C890 1.362 . S
C890 H882 0.930 1_554 S
C890 C889 1.362 . S
C890 C893 1.409 1_554 S
C891 H883 0.930 . S
C891 C892 1.355 . S
C891 C893 1.415 . S
C892 C891 1.355 . S
C892 C894 1.419 . S
C893 C888 1.425 1_556 S
C893 C890 1.409 1_556 S
C893 C891 1.415 . S
C894 H884 0.930 . S
C894 C892 1.419 . S
C894 C895 1.362 1_556 S
C895 H885 0.930 . S
C895 C888 1.409 . S
C895 C894 1.362 1_554 S
H896 C902 0.930 . S
H897 C905 0.930 . S
H898 C906 0.930 . S
H899 C907 0.930 . S
H900 C910 0.930 . S
H901 C911 0.930 . S
C902 H896 0.930 . S
C902 C903 1.355 . S
C902 C904 1.415 . S
C903 C902 1.355 . S
C903 C905 1.419 . S
C904 C902 1.415 . S
C904 C909 1.425 . S
C904 C911 1.409 . S
C905 H897 0.930 . S
C905 C903 1.419 . S
C905 C906 1.362 . S
C906 H898 0.930 . S
C906 C905 1.362 . S
C906 C909 1.409 . S
C907 H899 0.930 . S
C907 C908 1.355 . S
C907 C909 1.415 . S
C908 C907 1.355 . S
C908 C910 1.419 . S
C909 C904 1.425 . S
C909 C906 1.409 . S
C909 C907 1.415 . S
C910 H900 0.930 . S
C910 C908 1.419 . S
C910 C911 1.362 . S
C911 H901 0.930 . S
C911 C904 1.409 . S
C911 C910 1.362 . S
C540 C521 1.448 . S
C535 C51 1.416 . S
C551 C125 1.444 . S
C556 C450 1.434 . S
C567 C217 2.556 . S
C572 C464 2.590 . S
C583 C291 1.599 . S
C588 C478 1.583 . S
C604 C492 1.078 . S
C599 C347 1.014 . S
C615 C421 1.206 . S
C620 C507 1.189 . S
C631 C143 2.183 . S
C636 C465 2.173 . S
C647 C199 1.538 . S
C652 C479 1.538 . S
C663 C273 0.768 . S
C668 C493 0.757 . S
C684 C506 1.698 . S
C679 C365 1.648 . S
C700 C520 1.776 . S
C695 C439 1.791 . S
C716 C451 2.506 . S
C711 C69 2.450 . S
C727 C63 1.512 . S
C732 C467 1.637 . S
C743 C137 1.844 . S
C748 C481 1.925 . S
C764 C495 1.464 . S
C759 C187 1.393 . S
C775 C261 1.811 . S
C780 C508 1.819 . S
C796 C522 1.640 . S
C791 C359 1.440 1_565 S
C812 C453 1.506 . S
C807 C433 1.512 . S
C828 C523 1.928 . S
C823 C113 1.965 . S
C839 C211 1.382 . S
C844 C452 1.454 . S
C860 C466 1.978 . S
C855 C285 1.913 . S
C871 C335 1.363 . S
C876 C480 1.445 . S
C887 C409 1.668 . S
C892 C494 1.662 . S
C903 C39 1.614 . S
C908 C509 1.645 . S
