# Generated by pormake.
# Topology pyr, (3,6)-cn, num edge types: 1
# Building blocks:
#     Node 0, Type 0, BuildingBlock: CUQRIR_clean_linker_1, # of connection points: 3
#     Node 1, Type 0, BuildingBlock: CUQRIR_clean_linker_1, # of connection points: 3
#     Node 2, Type 0, BuildingBlock: CUQRIR_clean_linker_1, # of connection points: 3
#     Node 3, Type 0, BuildingBlock: CUQRIR_clean_linker_1, # of connection points: 3
#     Node 4, Type 0, BuildingBlock: CUQRIR_clean_linker_1, # of connection points: 3
#     Node 5, Type 0, BuildingBlock: CUQRIR_clean_linker_1, # of connection points: 3
#     Node 6, Type 0, BuildingBlock: CUQRIR_clean_linker_1, # of connection points: 3
#     Node 7, Type 0, BuildingBlock: CUQRIR_clean_linker_1, # of connection points: 3
#     Node 8, Type 1, BuildingBlock: VOLQOD_clean_sbu_1, # of connection points: 6
#     Node 9, Type 1, BuildingBlock: VOLQOD_clean_sbu_1, # of connection points: 6
#     Node 10, Type 1, BuildingBlock: VOLQOD_clean_sbu_1, # of connection points: 6
#     Node 11, Type 1, BuildingBlock: VOLQOD_clean_sbu_1, # of connection points: 6
#     Edge 12, Type (0, 1), BuildingBlock: EZIPEK_clean_linker_0, # of connection points: 2
#     Edge 13, Type (0, 1), BuildingBlock: EZIPEK_clean_linker_0, # of connection points: 2
#     Edge 14, Type (0, 1), BuildingBlock: EZIPEK_clean_linker_0, # of connection points: 2
#     Edge 15, Type (0, 1), BuildingBlock: EZIPEK_clean_linker_0, # of connection points: 2
#     Edge 16, Type (0, 1), BuildingBlock: EZIPEK_clean_linker_0, # of connection points: 2
#     Edge 17, Type (0, 1), BuildingBlock: EZIPEK_clean_linker_0, # of connection points: 2
#     Edge 18, Type (0, 1), BuildingBlock: EZIPEK_clean_linker_0, # of connection points: 2
#     Edge 19, Type (0, 1), BuildingBlock: EZIPEK_clean_linker_0, # of connection points: 2
#     Edge 20, Type (0, 1), BuildingBlock: EZIPEK_clean_linker_0, # of connection points: 2
#     Edge 21, Type (0, 1), BuildingBlock: EZIPEK_clean_linker_0, # of connection points: 2
#     Edge 22, Type (0, 1), BuildingBlock: EZIPEK_clean_linker_0, # of connection points: 2
#     Edge 23, Type (0, 1), BuildingBlock: EZIPEK_clean_linker_0, # of connection points: 2
#     Edge 24, Type (0, 1), BuildingBlock: EZIPEK_clean_linker_0, # of connection points: 2
#     Edge 25, Type (0, 1), BuildingBlock: EZIPEK_clean_linker_0, # of connection points: 2
#     Edge 26, Type (0, 1), BuildingBlock: EZIPEK_clean_linker_0, # of connection points: 2
#     Edge 27, Type (0, 1), BuildingBlock: EZIPEK_clean_linker_0, # of connection points: 2
#     Edge 28, Type (0, 1), BuildingBlock: EZIPEK_clean_linker_0, # of connection points: 2
#     Edge 29, Type (0, 1), BuildingBlock: EZIPEK_clean_linker_0, # of connection points: 2
#     Edge 30, Type (0, 1), BuildingBlock: EZIPEK_clean_linker_0, # of connection points: 2
#     Edge 31, Type (0, 1), BuildingBlock: EZIPEK_clean_linker_0, # of connection points: 2
#     Edge 32, Type (0, 1), BuildingBlock: EZIPEK_clean_linker_0, # of connection points: 2
#     Edge 33, Type (0, 1), BuildingBlock: EZIPEK_clean_linker_0, # of connection points: 2
#     Edge 34, Type (0, 1), BuildingBlock: EZIPEK_clean_linker_0, # of connection points: 2
#     Edge 35, Type (0, 1), BuildingBlock: EZIPEK_clean_linker_0, # of connection points: 2
# Relax obj value: 0.122
# Max RMSD: 0.209
# Mean RMSD: 0.164
data_MOF--net-pry--node1-VOLQOD_clean_sbu_1--node2-CUQRIR_clean_linker_1--edge1-EZIPEK_clean_linker_0
_symmetry_space_group_name_H-M    P1
_symmetry_Int_Tables_number       1
_symmetry_cell_setting            triclinic
loop_
_symmetry_equiv_pos_as_xyz
'x, y, z'
_cell_length_a     24.962178
_cell_length_b     24.938751
_cell_length_c     24.548509
_cell_angle_alpha  88.309148
_cell_angle_beta   91.959879
_cell_angle_gamma 94.270028
loop_
_atom_site_label
_atom_site_type_symbol
_atom_site_fract_x
_atom_site_fract_y
_atom_site_fract_z
_atom_type_partial_charge
C0 C 0.15244 0.19386 0.18519 0.0
N1 N 0.18813 0.15624 0.19496 0.0
N2 N 0.16675 0.22535 0.14174 0.0
C3 C 0.10331 0.19983 0.21761 0.0
C4 C 0.21277 0.20635 0.12557 0.0
N5 N 0.22652 0.16475 0.15859 0.0
C6 C 0.24408 0.22878 0.07786 0.0
H7 H 0.06799 0.17917 0.19639 0.0
H8 H 0.0957 0.24292 0.22038 0.0
H9 H 0.10761 0.18177 0.25924 0.0
H10 H 0.26926 0.26505 0.09071 0.0
H11 H 0.2163 0.24123 0.04435 0.0
H12 H 0.27061 0.19903 0.06285 0.0
C13 C 0.35227 0.83393 0.67493 0.0
N14 N 0.34456 0.87854 0.70296 0.0
N15 N 0.3996 0.81442 0.68946 0.0
C16 C 0.31519 0.81133 0.63017 0.0
C17 C 0.42056 0.84769 0.72832 0.0
N18 N 0.38723 0.88704 0.73688 0.0
C19 C 0.4723 0.84019 0.7597 0.0
H20 H 0.2737 0.82351 0.6343 0.0
H21 H 0.31449 0.76679 0.6307 0.0
H22 H 0.33034 0.82651 0.5902 0.0
H23 H 0.50011 0.81876 0.73522 0.0
H24 H 0.46343 0.81563 0.79718 0.0
H25 H 0.4919 0.8796 0.77196 0.0
C26 C 0.58477 0.37953 0.89004 0.0
N27 N 0.61865 0.36173 0.92971 0.0
N28 N 0.6051 0.42627 0.86728 0.0
C29 C 0.53361 0.34944 0.87012 0.0
C30 C 0.65078 0.43857 0.89665 0.0
N31 N 0.65928 0.39947 0.93465 0.0
C32 C 0.69045 0.48535 0.88383 0.0
H33 H 0.54032 0.33133 0.8304 0.0
H34 H 0.50169 0.37777 0.8632 0.0
H35 H 0.51957 0.31739 0.8997 0.0
H36 H 0.67669 0.50983 0.84832 0.0
H37 H 0.73 0.47025 0.87551 0.0
H38 H 0.69616 0.5115 0.91963 0.0
C39 C 0.8492 0.62006 0.33898 0.0
N40 N 0.89408 0.65209 0.32774 0.0
N41 N 0.81955 0.64282 0.37568 0.0
C42 C 0.83241 0.56811 0.31155 0.0
C43 C 0.84755 0.68973 0.38679 0.0
N44 N 0.89342 0.69554 0.35833 0.0
C45 C 0.83083 0.72896 0.42724 0.0
H46 H 0.80504 0.57651 0.27626 0.0
H47 H 0.81025 0.5398 0.34 0.0
H48 H 0.86776 0.54916 0.29661 0.0
H49 H 0.84294 0.71512 0.46893 0.0
H50 H 0.78651 0.73063 0.42573 0.0
H51 H 0.85011 0.76984 0.41924 0.0
C52 C 0.83926 0.84372 0.87792 0.0
N53 N 0.88768 0.84416 0.85503 0.0
N54 N 0.81294 0.886 0.86007 0.0
C55 C 0.81863 0.80366 0.92091 0.0
C56 C 0.84601 0.91164 0.82378 0.0
N57 N 0.89374 0.88776 0.8219 0.0
C58 C 0.8272 0.95583 0.78617 0.0
H59 H 0.82921 0.76252 0.91176 0.0
H60 H 0.77436 0.80364 0.92385 0.0
H61 H 0.83757 0.81466 0.96098 0.0
H62 H 0.83682 0.9955 0.80472 0.0
H63 H 0.78288 0.95129 0.78016 0.0
H64 H 0.84514 0.9549 0.74557 0.0
C65 C 0.70568 0.18583 0.45316 0.0
N66 N 0.72552 0.14898 0.42116 0.0
N67 N 0.65869 0.2021 0.43159 0.0
C68 C 0.73348 0.20828 0.50361 0.0
C69 C 0.65017 0.17367 0.38583 0.0
N70 N 0.69058 0.14149 0.3792 0.0
C71 C 0.60456 0.18067 0.34508 0.0
H72 H 0.7577 0.1779 0.52469 0.0
H73 H 0.70374 0.22196 0.53176 0.0
H74 H 0.76094 0.24343 0.49187 0.0
H75 H 0.61815 0.21073 0.31331 0.0
H76 H 0.56922 0.19531 0.36459 0.0
H77 H 0.59243 0.14225 0.32484 0.0
C78 C 0.32639 0.61841 0.14438 0.0
N79 N 0.36542 0.64458 0.17508 0.0
N80 N 0.33038 0.63341 0.0912 0.0
C81 C 0.28458 0.57775 0.16656 0.0
C82 C 0.37368 0.66909 0.09037 0.0
N83 N 0.3941 0.67724 0.14147 0.0
C84 C 0.39572 0.69725 0.03999 0.0
H85 H 0.29733 0.53672 0.16049 0.0
H86 H 0.24537 0.58137 0.14457 0.0
H87 H 0.27975 0.58303 0.21081 0.0
H88 H 0.38659 0.74014 0.03939 0.0
H89 H 0.37845 0.67823 0.00239 0.0
H90 H 0.44013 0.69635 0.04098 0.0
C91 C 0.05987 0.37016 0.65008 0.0
N92 N 0.10282 0.35866 0.62177 0.0
N93 N 0.06176 0.42391 0.66165 0.0
C94 C 0.02322 0.32543 0.67458 0.0
C95 C 0.11145 0.4423 0.64281 0.0
N96 N 0.13548 0.40281 0.61818 0.0
C97 C 0.14116 0.49623 0.65384 0.0
H98 H 0.9866 0.31827 0.64825 0.0
H99 H 0.01297 0.33363 0.71687 0.0
H100 H 0.04285 0.28696 0.67675 0.0
H101 H 0.13625 0.50846 0.69625 0.0
H102 H 0.12754 0.5269 0.62406 0.0
H103 H 0.18489 0.49592 0.64825 0.0
O104 O 0.0528 0.12251 0.55927 0.0
Zn105 Zn 0.01736 0.04837 0.54951 0.0
O106 O 0.05808 0.00664 0.50388 0.0
Zn107 Zn 0.02346 0.99619 0.43309 0.0
Zn108 Zn 0.1284 0.04394 0.49771 0.0
Zn109 Zn 0.06328 0.93712 0.54004 0.0
O110 O 0.00206 0.91726 0.42256 0.0
O111 O 0.04894 0.87591 0.48735 0.0
O112 O 0.94479 0.05894 0.51298 0.0
O113 O 0.95515 0.03611 0.42687 0.0
O114 O 0.07701 0.01893 0.3745 0.0
O115 O 0.15281 0.03949 0.42144 0.0
O116 O 0.18012 0.01216 0.55134 0.0
O117 O 0.01073 0.01184 0.62371 0.0
O118 O 0.13671 0.93494 0.57761 0.0
O119 O 0.00918 0.92709 0.60034 0.0
C120 C 0.09596 0.1465 0.54211 0.0
C121 C 0.01827 0.87423 0.44472 0.0
C122 C 0.12778 0.03083 0.37612 0.0
C123 C 0.92777 0.05581 0.46346 0.0
C124 C 0.17795 0.9684 0.57944 0.0
C125 C 0.0014 0.96206 0.63547 0.0
O126 O 0.12879 0.12243 0.51483 0.0
O127 O 0.53073 0.12893 0.0071 0.0
Zn128 Zn 0.49092 0.05793 0.02476 0.0
O129 O 0.53882 0.01104 0.06432 0.0
Zn130 Zn 0.53529 0.94247 0.02846 0.0
Zn131 Zn 0.61255 0.04225 0.06305 0.0
Zn132 Zn 0.51866 0.00197 0.14043 0.0
O133 O 0.51161 0.88327 0.08064 0.0
O134 O 0.50268 0.92338 0.15943 0.0
O135 O 0.45858 0.02511 0.95519 0.0
O136 O 0.48367 0.9416 0.96361 0.0
O137 O 0.60566 0.92786 0.99703 0.0
O138 O 0.65531 0.00415 0.01126 0.0
O139 O 0.64933 0.04275 0.1373 0.0
O140 O 0.42997 0.07305 0.07131 0.0
O141 O 0.57888 0.03143 0.19058 0.0
O142 O 0.45055 0.03916 0.15371 0.0
C143 C 0.57911 0.14743 0.01574 0.0
C144 C 0.5008 0.88137 0.13097 0.0
C145 C 0.64821 0.95822 0.98996 0.0
C146 C 0.45841 0.97744 0.93784 0.0
C147 C 0.62888 0.04318 0.18403 0.0
C148 C 0.4197 0.06452 0.12132 0.0
O149 O 0.61471 0.11886 0.03705 0.0
O150 O 0.55724 0.52143 0.62493 0.0
Zn151 Zn 0.53862 0.55523 0.55344 0.0
O152 O 0.48648 0.50781 0.51338 0.0
Zn153 Zn 0.51668 0.49363 0.444 0.0
Zn154 Zn 0.47218 0.44013 0.55335 0.0
Zn155 Zn 0.41916 0.54152 0.50324 0.0
O156 O 0.47259 0.52374 0.38272 0.0
O157 O 0.40728 0.56136 0.42395 0.0
O158 O 0.60657 0.57486 0.5132 0.0
O159 O 0.58899 0.53247 0.43566 0.0
O160 O 0.53063 0.41542 0.43795 0.0
O161 O 0.51299 0.38284 0.52134 0.0
O162 O 0.39248 0.41741 0.55716 0.0
O163 O 0.50678 0.6223 0.57386 0.0
O164 O 0.35659 0.49266 0.52885 0.0
O165 O 0.42076 0.6084 0.54756 0.0
C166 C 0.53635 0.48089 0.65104 0.0
C167 C 0.43178 0.55156 0.38102 0.0
C168 C 0.53229 0.37814 0.47455 0.0
C169 C 0.61981 0.56242 0.46592 0.0
C170 C 0.35177 0.44488 0.54872 0.0
C171 C 0.45886 0.63624 0.57155 0.0
O172 O 0.50103 0.44778 0.62981 0.0
O173 O 0.96898 0.53295 0.12815 0.0
Zn174 Zn 0.97267 0.48317 0.06468 0.0
O175 O 0.99733 0.52259 0.99969 0.0
Zn176 Zn 0.93835 0.53542 0.94912 0.0
Zn177 Zn 0.03097 0.59067 0.02213 0.0
Zn178 Zn 0.04926 0.4829 0.96342 0.0
O179 O 0.95251 0.51004 0.87375 0.0
O180 O 0.02939 0.47088 0.88499 0.0
O181 O 0.89767 0.44958 0.05082 0.0
O182 O 0.87153 0.49415 0.97543 0.0
O183 O 0.93035 0.61497 0.93798 0.0
O184 O 0.00946 0.64938 0.97054 0.0
O185 O 0.11004 0.58897 0.02022 0.0
O186 O 0.0218 0.42413 0.08323 0.0
O187 O 0.12175 0.52266 0.96436 0.0
O188 O 0.06104 0.41394 0.00415 0.0
C189 C 0.98489 0.58218 0.13459 0.0
C190 C 0.99012 0.48497 0.85498 0.0
C191 C 0.96558 0.65434 0.94363 0.0
C192 C 0.86207 0.46035 0.01457 0.0
C193 C 0.14035 0.56166 0.99306 0.0
C194 C 0.05161 0.39901 0.05313 0.0
O195 O 0.00963 0.60976 0.09751 0.0
C196 C 0.14025 0.07206 0.22913 0.0
C197 C 0.18282 0.11288 0.23507 0.0
C198 C 0.2059 0.07534 0.32505 0.0
C199 C 0.15633 0.04386 0.3241 0.0
N200 N 0.09416 0.99092 0.26735 0.0
N201 N 0.25217 0.15726 0.29158 0.0
C202 C 0.12893 0.03538 0.27338 0.0
C203 C 0.21557 0.11477 0.28326 0.0
N204 N 0.10826 0.07111 0.18287 0.0
N205 N 0.2443 0.06626 0.36443 0.0
H206 H 0.25617 0.18958 0.26398 0.0
H207 H 0.27365 0.16321 0.32833 0.0
H208 H 0.24051 0.03335 0.39163 0.0
H209 H 0.28256 0.08611 0.36466 0.0
H210 H 0.07297 0.04646 0.17834 0.0
H211 H 0.11502 0.09781 0.15 0.0
H212 H 0.07537 0.97978 0.23048 0.0
H213 H 0.08949 0.96161 0.29838 0.0
C214 C 0.41829 0.96926 0.78637 0.0
C215 C 0.38999 0.91793 0.78616 0.0
C216 C 0.39196 0.91655 0.88633 0.0
C217 C 0.42905 0.96242 0.88609 0.0
N218 N 0.48153 0.03061 0.83482 0.0
N219 N 0.35384 0.83989 0.83656 0.0
C220 C 0.44259 0.98906 0.83589 0.0
C221 C 0.37712 0.8912 0.83645 0.0
N222 N 0.42277 -0.00147 0.73887 0.0
N223 N 0.37076 0.89737 0.9343 0.0
H224 H 0.34124 0.82041 0.80086 0.0
H225 H 0.34993 0.81567 0.87172 0.0
H226 H 0.38014 0.91574 0.97143 0.0
H227 H 0.33994 0.86688 0.93638 0.0
H228 H 0.43889 0.03824 0.73657 0.0
H229 H 0.40473 0.98472 0.70275 0.0
H230 H 0.49747 0.04725 0.79894 0.0
H231 H 0.5013 0.04587 0.86972 0.0
C232 C 0.62148 0.43096 0.76865 0.0
C233 C 0.59155 0.44563 0.81334 0.0
C234 C 0.52499 0.48366 0.75136 0.0
C235 C 0.55588 0.47044 0.70689 0.0
N236 N 0.6376 0.44064 0.67208 0.0
N237 N 0.52157 0.49341 0.84938 0.0
C238 C 0.60557 0.44715 0.71522 0.0
C239 C 0.54534 0.47454 0.80521 0.0
N240 N 0.66351 0.39927 0.77703 0.0
N241 N 0.47594 0.50378 0.74196 0.0
H242 H 0.53619 0.48663 0.88916 0.0
H243 H 0.49032 0.51883 0.84668 0.0
H244 H 0.46044 0.51192 0.70285 0.0
H245 H 0.44914 0.50939 0.77248 0.0
H246 H 0.68209 0.38116 0.74578 0.0
H247 H 0.67802 0.38792 0.81548 0.0
H248 H 0.67715 0.43016 0.67646 0.0
H249 H 0.62617 0.44939 0.63172 0.0
C250 C 0.90023 0.65731 0.22743 0.0
C251 C 0.92488 0.64691 0.27936 0.0
C252 C 0.99368 0.59884 0.23545 0.0
C253 C 0.96859 0.60927 0.18383 0.0
N254 N 0.90525 0.65799 0.12907 0.0
N255 N 0.99832 0.61468 0.33298 0.0
C256 C 0.9245 0.642 0.17935 0.0
C257 C 0.97311 0.62028 0.28322 0.0
N258 N 0.85132 0.67864 0.22443 0.0
N259 N 0.03618 0.5672 0.2387 0.0
H260 H 0.98281 0.62892 0.3681 0.0
H261 H 0.03575 0.59943 0.33924 0.0
H262 H 0.0534 0.55306 0.20425 0.0
H263 H 0.05335 0.55325 0.2751 0.0
H264 H 0.82719 0.67989 0.18904 0.0
H265 H 0.83345 0.69277 0.25838 0.0
H266 H 0.8776 0.68708 0.1233 0.0
H267 H 0.91974 0.64538 0.09262 0.0
C268 C 0.27212 0.08531 0.13188 0.0
C269 C 0.2748 0.13636 0.15602 0.0
C270 C 0.37309 0.13559 0.16669 0.0
C271 C 0.37015 0.08521 0.14121 0.0
N272 N 0.31798 0.00655 0.10978 0.0
N273 N 0.32751 0.21433 0.18886 0.0
C274 C 0.31984 0.05825 0.12719 0.0
C275 C 0.32524 0.16241 0.17208 0.0
N276 N 0.22459 0.06528 0.10878 0.0
N277 N 0.42171 0.15739 0.18601 0.0
H278 H 0.2934 0.23533 0.193 0.0
H279 H 0.363 0.23818 0.19535 0.0
H280 H 0.45748 0.13903 0.18174 0.0
H281 H 0.42648 0.1913 0.20987 0.0
H282 H 0.22015 0.03058 0.08605 0.0
H283 H 0.19033 0.08665 0.10766 0.0
H284 H 0.28254 0.98241 0.10393 0.0
H285 H 0.35248 0.98605 0.10557 0.0
C286 C 0.258 0.92063 0.70341 0.0
C287 C 0.30938 0.9181 0.68143 0.0
C288 C 0.27617 0.95444 0.59362 0.0
C289 C 0.22451 0.95622 0.61557 0.0
N290 N 0.17018 0.95617 0.69501 0.0
N291 N 0.37094 0.94354 0.61031 0.0
C292 C 0.21674 0.94433 0.6718 0.0
C293 C 0.31969 0.94026 0.6285 0.0
N294 N 0.24765 0.89692 0.75299 0.0
N295 N 0.28279 0.9613 0.53866 0.0
H296 H 0.40291 0.92929 0.63345 0.0
H297 H 0.38251 0.96416 0.57462 0.0
H298 H 0.25168 0.96929 0.51094 0.0
H299 H 0.31806 0.95431 0.51949 0.0
H300 H 0.20931 0.89106 0.76859 0.0
H301 H 0.27755 0.88046 0.77713 0.0
H302 H 0.16413 0.9527 0.73677 0.0
H303 H 0.13952 0.9744 0.67318 0.0
C304 C 0.7125 0.43991 0.01125 0.0
C305 C 0.70616 0.39979 0.97093 0.0
C306 C 0.80177 0.38418 0.9821 0.0
C307 C 0.80912 0.43014 0.01421 0.0
N308 N 0.77321 0.49248 0.0728 0.0
N309 N 0.74601 0.33755 0.91417 0.0
C310 C 0.76467 0.45453 0.03379 0.0
C311 C 0.75077 0.37145 0.95679 0.0
N312 N 0.66949 0.4679 0.02302 0.0
N313 N 0.84429 0.35407 0.97441 0.0
H314 H 0.7103 0.33087 0.89208 0.0
H315 H 0.77818 0.32026 0.89746 0.0
H316 H 0.88224 0.36356 0.99227 0.0
H317 H 0.84075 0.31721 0.95526 0.0
H318 H 0.67115 0.50014 0.04904 0.0
H319 H 0.63174 0.46059 0.00414 0.0
H320 H 0.74291 0.5108 0.09155 0.0
H321 H 0.81154 0.50294 0.08933 0.0
C322 C 0.7207 0.63999 0.3759 0.0
C323 C 0.76943 0.62214 0.39821 0.0
C324 C 0.72019 0.56396 0.46457 0.0
C325 C 0.67159 0.58438 0.44434 0.0
N326 N 0.62518 0.64684 0.38638 0.0
N327 N 0.81779 0.57285 0.46669 0.0
C328 C 0.67168 0.62375 0.4014 0.0
C329 C 0.76977 0.58569 0.44347 0.0
N330 N 0.72161 0.67182 0.32968 0.0
N331 N 0.71868 0.52249 0.50234 0.0
H332 H 0.85454 0.58701 0.45078 0.0
H333 H 0.82148 0.55115 0.50332 0.0
H334 H 0.68311 0.50608 0.5192 0.0
H335 H 0.752 0.50182 0.51438 0.0
H336 H 0.68731 0.68185 0.30754 0.0
H337 H 0.75729 0.68541 0.31131 0.0
H338 H 0.62343 0.6795 0.35916 0.0
H339 H 0.58852 0.63605 0.40436 0.0
C340 C 0.15434 0.32214 0.13413 0.0
C341 C 0.13875 0.26911 0.11832 0.0
C342 C 0.06292 0.30054 0.06366 0.0
C343 C 0.08042 0.35411 0.07689 0.0
N344 N 0.14661 0.41762 0.11772 0.0
N345 N 0.08373 0.20683 0.06414 0.0
C346 C 0.12721 0.36548 0.11032 0.0
C347 C 0.0945 0.25803 0.08188 0.0
N348 N 0.19422 0.33054 0.17311 0.0
N349 N 0.01551 0.29044 0.03492 0.0
H350 H 0.10632 0.17512 0.07745 0.0
H351 H 0.0552 0.19634 0.03366 0.0
H352 H 0.99168 0.32089 0.02073 0.0
H353 H 0.99778 0.252 0.02827 0.0
H354 H 0.20402 0.36748 0.19095 0.0
H355 H 0.21523 0.29931 0.19044 0.0
H356 H 0.18369 0.42839 0.13655 0.0
H357 H 0.12742 0.45055 0.10151 0.0
C358 C 0.61564 0.26291 0.91758 0.0
C359 C 0.61595 0.3075 0.9528 0.0
C360 C 0.60203 0.24524 0.03105 0.0
C361 C 0.5956 0.20182 0.99497 0.0
N362 N 0.59262 0.16801 0.9039 0.0
N363 N 0.59811 0.34103 0.04057 0.0
C364 C 0.6017 0.21026 0.93826 0.0
C365 C 0.60692 0.29864 0.00911 0.0
N366 N 0.62859 0.2708 0.86416 0.0
N367 N 0.60237 0.2355 0.08613 0.0
H368 H 0.59652 0.37978 0.02422 0.0
H369 H 0.58638 0.33704 0.08087 0.0
H370 H 0.59669 0.19689 0.1035 0.0
H371 H 0.61248 0.26519 0.11444 0.0
H372 H 0.636 0.2399 0.83851 0.0
H373 H 0.63605 0.30859 0.84597 0.0
H374 H 0.58861 0.17245 0.8617 0.0
H375 H 0.58582 0.12817 0.9176 0.0
C376 C 0.95883 0.72892 0.42889 0.0
C377 C 0.93892 0.73202 0.37416 0.0
C378 C 0.99122 0.81837 0.36325 0.0
C379 C 0.99872 0.82152 0.42078 0.0
N380 N 0.98069 0.77952 0.50968 0.0
N381 N 0.93184 0.78428 0.29064 0.0
C382 C 0.98135 0.77627 0.45419 0.0
C383 C 0.95464 0.77762 0.34128 0.0
N384 N 0.95258 0.6814 0.45774 0.0
N385 N 0.01906 0.8541 0.32962 0.0
H386 H 0.90286 0.75657 0.2748 0.0
H387 H 0.93805 0.8195 0.26705 0.0
H388 H 0.04841 0.8824 0.3445 0.0
H389 H 0.0176 0.85112 0.28731 0.0
H390 H 0.97034 0.67547 0.49629 0.0
H391 H 0.93384 0.64674 0.4408 0.0
H392 H 0.96301 0.74908 0.53458 0.0
H393 H 0.99173 0.81425 0.53094 0.0
C394 C 0.40649 0.71716 0.68384 0.0
C395 C 0.42234 0.7699 0.66534 0.0
C396 C 0.46201 0.73539 0.58485 0.0
C397 C 0.44638 0.68241 0.60355 0.0
N398 N 0.41278 0.62135 0.6748 0.0
N399 N 0.47243 0.83047 0.60509 0.0
C400 C 0.42127 0.67279 0.65433 0.0
C401 C 0.45269 0.7793 0.61796 0.0
N402 N 0.37547 0.71003 0.72861 0.0
N403 N 0.48377 0.74358 0.53463 0.0
H404 H 0.46601 0.86298 0.62914 0.0
H405 H 0.49855 0.84026 0.5736 0.0
H406 H 0.49121 0.7121 0.50951 0.0
H407 H 0.4913 0.78131 0.51609 0.0
H408 H 0.35682 0.67318 0.74099 0.0
H409 H 0.36622 0.74207 0.7521 0.0
H410 H 0.39997 0.61196 0.71407 0.0
H411 H 0.42205 0.58769 0.65377 0.0
C412 C 0.9465 0.96483 0.77908 0.0
C413 C 0.94157 0.9098 0.79293 0.0
C414 C 0.99713 0.894 0.71564 0.0
C415 C 0.9839 0.94479 0.69175 0.0
N416 N 0.9376 0.02657 0.70353 0.0
N417 N 0.00743 0.84529 0.80079 0.0
C418 C 0.95768 0.98063 0.72469 0.0
C419 C 0.97811 0.87808 0.76833 0.0
N420 N 0.9387 0.00135 0.81759 0.0
N421 N 0.03072 0.86241 0.69058 0.0
H422 H 0.00998 0.85065 0.84274 0.0
H423 H 0.03719 0.82245 0.78691 0.0
H424 H 0.05717 0.87675 0.66073 0.0
H425 H 0.03337 0.8219 0.70132 0.0
H426 H 0.94502 0.04274 0.81035 0.0
H427 H 0.93052 0.98901 0.8577 0.0
H428 H 0.91584 0.05119 0.72675 0.0
H429 H 0.93486 0.03593 0.662 0.0
C430 C 0.6723 0.05636 0.3309 0.0
C431 C 0.69533 0.11 0.33138 0.0
C432 C 0.68642 0.11601 0.23158 0.0
C433 C 0.66236 0.0625 0.23158 0.0
N434 N 0.64864 0.97675 0.27835 0.0
N435 N 0.73438 0.1871 0.28258 0.0
C436 C 0.66139 0.03087 0.28039 0.0
C437 C 0.70708 0.13775 0.28153 0.0
N438 N 0.65549 0.03187 0.37829 0.0
N439 N 0.68463 0.14808 0.18543 0.0
H440 H 0.74415 0.2064 0.31885 0.0
H441 H 0.75 0.20712 0.24814 0.0
H442 H 0.66933 0.13488 0.14783 0.0
H443 H 0.69488 0.18931 0.18492 0.0
H444 H 0.63312 0.99493 0.38004 0.0
H445 H 0.65968 0.05111 0.41529 0.0
H446 H 0.65144 0.95085 0.31226 0.0
H447 H 0.64062 0.9573 0.24155 0.0
C448 C 0.40691 0.5727 0.22884 0.0
C449 C 0.38555 0.62381 0.2267 0.0
C450 C 0.40264 0.63099 0.3247 0.0
C451 C 0.41498 0.57619 0.32807 0.0
N452 N 0.41624 0.49134 0.28283 0.0
N453 N 0.35103 0.69548 0.27528 0.0
C454 C 0.41375 0.54591 0.27994 0.0
C455 C 0.37998 0.65138 0.27538 0.0
N456 N 0.42098 0.54992 0.18204 0.0
N457 N 0.41468 0.66443 0.36721 0.0
H458 H 0.3304 0.70846 0.24057 0.0
H459 H 0.3422 0.7145 0.3108 0.0
H460 H 0.43523 0.6527 0.40274 0.0
H461 H 0.41012 0.70565 0.36427 0.0
H462 H 0.44079 0.51458 0.18189 0.0
H463 H 0.41828 0.56953 0.14407 0.0
H464 H 0.41075 0.46732 0.24877 0.0
H465 H 0.41735 0.46942 0.31963 0.0
C466 C 0.97637 0.42608 0.7141 0.0
C467 C 0.02348 0.45221 0.69278 0.0
C468 C 0.0254 0.51675 0.76462 0.0
C469 C 0.99292 0.47886 0.7957 0.0
N470 N 0.92746 0.40236 0.79596 0.0
N471 N 0.04245 0.54562 0.67176 0.0
C472 C 0.96429 0.43536 0.769 0.0
C473 C 0.03444 0.50533 0.70975 0.0
N474 N 0.94017 0.39955 0.67997 0.0
N475 N 0.04799 0.56277 0.78708 0.0
H476 H 0.03975 0.53739 0.63021 0.0
H477 H 0.04544 0.58619 0.68152 0.0
H478 H 0.04117 0.57315 0.82699 0.0
H479 H 0.07524 0.58893 0.7662 0.0
H480 H 0.90256 0.38364 0.69228 0.0
H481 H 0.94681 0.39883 0.63818 0.0
H482 H 0.90936 0.36738 0.77901 0.0
H483 H 0.91706 0.40912 0.83588 0.0
C484 C 0.71761 0.90172 0.8709 0.0
C485 C 0.77172 0.90894 0.88931 0.0
C486 C 0.74436 0.94279 0.97561 0.0
C487 C 0.69037 0.94035 0.95539 0.0
N488 N 0.62716 0.92868 0.8788 0.0
N489 N 0.8382 0.94649 0.95352 0.0
C490 C 0.67722 0.92285 0.90156 0.0
C491 C 0.78554 0.93303 0.93984 0.0
N492 N 0.70496 0.87358 0.82481 0.0
N493 N 0.7561 0.95132 0.02963 0.0
H494 H 0.86942 0.93976 0.92807 0.0
H495 H 0.85041 0.96891 0.98748 0.0
H496 H 0.72678 0.95588 0.05806 0.0
H497 H 0.79426 0.94811 0.04741 0.0
H498 H 0.66562 0.86198 0.81224 0.0
H499 H 0.7343 0.8586 0.80134 0.0
H500 H 0.6172 0.92104 0.83807 0.0
H501 H 0.597 0.94618 0.89888 0.0
C502 C 0.82448 0.15167 0.41129 0.0
C503 C 0.77619 0.12459 0.42981 0.0
C504 C 0.82733 0.05145 0.46893 0.0
C505 C 0.87526 0.07745 0.44836 0.0
N506 N 0.9196 0.14925 0.39492 0.0
N507 N 0.73478 0.05959 0.49227 0.0
C508 C 0.87378 0.1265 0.41768 0.0
C509 C 0.77835 0.07712 0.46273 0.0
N510 N 0.82403 0.20384 0.39302 0.0
N511 N 0.82842 0.00138 0.49299 0.0
H512 H 0.69999 0.08029 0.49207 0.0
H513 H 0.73501 0.0284 0.52138 0.0
H514 H 0.86358 0.98137 0.49808 0.0
H515 H 0.794 0.97771 0.5035 0.0
H516 H 0.85832 0.22815 0.38352 0.0
H517 H 0.7898 0.2251 0.39363 0.0
H518 H 0.92003 0.18117 0.36661 0.0
H519 H 0.95715 0.13404 0.40141 0.0
C520 C 0.2866 0.56191 0.03596 0.0
C521 C 0.29359 0.61712 0.04751 0.0
C522 C 0.21349 0.63291 0.99198 0.0
C523 C 0.19837 0.5773 0.99565 0.0
N524 N 0.22235 0.48667 0.01843 0.0
N525 N 0.26278 0.70664 0.03654 0.0
C526 C 0.23602 0.5407 0.01519 0.0
C527 C 0.25776 0.65352 0.02414 0.0
N528 N 0.32781 0.52999 0.04728 0.0
N529 N 0.18388 0.66586 0.95962 0.0
H530 H 0.29379 0.72345 0.06116 0.0
H531 H 0.23381 0.73328 0.02547 0.0
H532 H 0.15106 0.65078 0.93569 0.0
H533 H 0.19529 0.70642 0.95233 0.0
H534 H 0.32679 0.48983 0.03649 0.0
H535 H 0.36498 0.54582 0.06266 0.0
H536 H 0.24609 0.4595 0.03903 0.0
H537 H 0.18622 0.46891 0.00294 0.0
C538 C 0.20051 0.41581 0.54414 0.0
C539 C 0.19031 0.40534 0.59994 0.0
C540 C 0.28767 0.41169 0.62172 0.0
C541 C 0.29752 0.42321 0.56567 0.0
N542 N 0.2652 0.42303 0.47221 0.0
N543 N 0.22257 0.40037 0.69327 0.0
C544 C 0.25438 0.4211 0.52649 0.0
C545 C 0.23361 0.40378 0.63902 0.0
N546 N 0.15864 0.42524 0.50884 0.0
N547 N 0.32987 0.40949 0.65861 0.0
H548 H 0.25125 0.40435 0.72485 0.0
H549 H 0.18358 0.39755 0.70741 0.0
H550 H 0.36966 0.42005 0.6492 0.0
H551 H 0.32632 0.39461 0.69843 0.0
H552 H 0.1632 0.4385 0.46856 0.0
H553 H 0.11929 0.42502 0.52158 0.0
H554 H 0.23595 0.41649 0.4414 0.0
H555 H 0.30432 0.42603 0.45812 0.0
C556 C 0.92122 0.75666 0.83756 0.0
C557 C 0.92379 0.80342 0.8688 0.0
C558 C 0.95889 0.75427 0.94805 0.0
C559 C 0.95581 0.70684 0.91699 0.0
N560 N 0.94977 0.66681 0.82829 0.0
N561 N 0.95816 0.85166 0.94664 0.0
C562 C 0.94205 0.70928 0.86032 0.0
C563 C 0.94799 0.80372 0.92157 0.0
N564 N 0.89617 0.75715 0.78729 0.0
N565 N 0.96779 0.75156 0.00331 0.0
H566 H 0.94975 0.88796 0.92705 0.0
H567 H 0.97946 0.85584 0.98368 0.0
H568 H 0.97329 0.71581 0.0251 0.0
H569 H 0.96491 0.78407 0.02843 0.0
H570 H 0.88711 0.72272 0.76477 0.0
H571 H 0.88212 0.79218 0.76947 0.0
H572 H 0.94479 0.66822 0.78598 0.0
H573 H 0.96621 0.63192 0.84344 0.0
C574 C 0.47727 0.73333 0.16241 0.0
C575 C 0.42065 0.72804 0.15673 0.0
C576 C 0.41704 0.82595 0.15095 0.0
C577 C 0.47399 0.83099 0.15247 0.0
N578 N 0.55849 0.79323 0.17175 0.0
N579 N 0.33536 0.76758 0.15504 0.0
C580 C 0.5042 0.78568 0.16265 0.0
C581 C 0.39021 0.77402 0.15515 0.0
N582 N 0.50488 0.68806 0.16413 0.0
N583 N 0.38882 0.87045 0.14088 0.0
H584 H 0.31414 0.73008 0.154 0.0
H585 H 0.31054 0.79867 0.15989 0.0
H586 H 0.40675 0.90952 0.13946 0.0
H587 H 0.3478 0.86923 0.13161 0.0
H588 H 0.54652 0.68824 0.16319 0.0
H589 H 0.48529 0.64963 0.16464 0.0
H590 H 0.58307 0.7625 0.18268 0.0
H591 H 0.57843 0.83155 0.17224 0.0
C592 C 0.14026 0.26938 0.62187 0.0
C593 C 0.10892 0.30827 0.59582 0.0
C594 C 0.07483 0.24233 0.52825 0.0
C595 C 0.10709 0.20401 0.55418 0.0
N596 N 0.17934 0.18363 0.61726 0.0
N597 N 0.04818 0.33415 0.52332 0.0
C598 C 0.14327 0.21871 0.59781 0.0
C599 C 0.07725 0.29551 0.54819 0.0
N600 N 0.16235 0.27884 0.67255 0.0
N601 N 0.04067 0.22697 0.48582 0.0
H602 H 0.04549 0.37186 0.53976 0.0
H603 H 0.02818 0.33003 0.48566 0.0
H604 H 0.04039 0.18921 0.46852 0.0
H605 H 0.01169 0.25055 0.46832 0.0
H606 H 0.18162 0.25035 0.69631 0.0
H607 H 0.15547 0.31314 0.6935 0.0
H608 H 0.21019 0.19416 0.64545 0.0
H609 H 0.18144 0.14541 0.60169 0.0
C610 C 0.64857 0.2996 0.43414 0.0
C611 C 0.62902 0.2463 0.44705 0.0
C612 C 0.5439 0.27842 0.47472 0.0
C613 C 0.56518 0.33225 0.46558 0.0
N614 N 0.64387 0.39362 0.45234 0.0
N615 N 0.56282 0.18456 0.48773 0.0
C616 C 0.61933 0.34282 0.4498 0.0
C617 C 0.57812 0.23569 0.47025 0.0
N618 N 0.69405 0.30888 0.40497 0.0
N619 N 0.49065 0.26799 0.4851 0.0
H620 H 0.58734 0.15279 0.4841 0.0
H621 H 0.52828 0.17459 0.50956 0.0
H622 H 0.46411 0.29819 0.48716 0.0
H623 H 0.47177 0.22935 0.48701 0.0
H624 H 0.70709 0.34679 0.38946 0.0
H625 H 0.71583 0.27792 0.39189 0.0
H626 H 0.68475 0.40217 0.44616 0.0
H627 H 0.62518 0.42621 0.46667 0.0
loop_
_geom_bond_atom_site_label_1
_geom_bond_atom_site_label_2
_geom_bond_distance
_geom_bond_site_symmetry_2
_ccdc_geom_bond_type
C0 N1 1.317 . S
C0 N2 1.348 . S
C0 C3 1.485 . S
N1 C0 1.317 . S
N1 N5 1.370 . S
N2 C0 1.348 . S
N2 C4 1.346 . S
C3 C0 1.485 . S
C3 H7 0.960 . S
C3 H8 0.961 . S
C3 H9 0.960 . S
C4 N2 1.346 . S
C4 N5 1.307 . S
C4 C6 1.486 . S
N5 N1 1.370 . S
N5 C4 1.307 . S
C6 C4 1.486 . S
C6 H10 0.960 . S
C6 H11 0.960 . S
C6 H12 0.959 . S
H7 C3 0.960 . S
H8 C3 0.961 . S
H9 C3 0.960 . S
H10 C6 0.960 . S
H11 C6 0.960 . S
H12 C6 0.959 . S
C13 N14 1.317 . S
C13 N15 1.348 . S
C13 C16 1.485 . S
N14 C13 1.317 . S
N14 N18 1.370 . S
N15 C13 1.348 . S
N15 C17 1.346 . S
C16 C13 1.485 . S
C16 H20 0.960 . S
C16 H21 0.961 . S
C16 H22 0.960 . S
C17 N15 1.346 . S
C17 N18 1.307 . S
C17 C19 1.486 . S
N18 N14 1.370 . S
N18 C17 1.307 . S
C19 C17 1.486 . S
C19 H23 0.960 . S
C19 H24 0.960 . S
C19 H25 0.959 . S
H20 C16 0.960 . S
H21 C16 0.961 . S
H22 C16 0.960 . S
H23 C19 0.960 . S
H24 C19 0.960 . S
H25 C19 0.959 . S
C26 N27 1.317 . S
C26 N28 1.348 . S
C26 C29 1.485 . S
N27 C26 1.317 . S
N27 N31 1.370 . S
N28 C26 1.348 . S
N28 C30 1.346 . S
C29 C26 1.485 . S
C29 H33 0.960 . S
C29 H34 0.961 . S
C29 H35 0.960 . S
C30 N28 1.346 . S
C30 N31 1.307 . S
C30 C32 1.486 . S
N31 N27 1.370 . S
N31 C30 1.307 . S
C32 C30 1.486 . S
C32 H36 0.960 . S
C32 H37 0.960 . S
C32 H38 0.959 . S
H33 C29 0.960 . S
H34 C29 0.961 . S
H35 C29 0.960 . S
H36 C32 0.960 . S
H37 C32 0.960 . S
H38 C32 0.959 . S
C39 N40 1.317 . S
C39 N41 1.348 . S
C39 C42 1.485 . S
N40 C39 1.317 . S
N40 N44 1.370 . S
N41 C39 1.348 . S
N41 C43 1.346 . S
C42 C39 1.485 . S
C42 H46 0.960 . S
C42 H47 0.961 . S
C42 H48 0.960 . S
C43 N41 1.346 . S
C43 N44 1.307 . S
C43 C45 1.486 . S
N44 N40 1.370 . S
N44 C43 1.307 . S
C45 C43 1.486 . S
C45 H49 0.960 . S
C45 H50 0.960 . S
C45 H51 0.959 . S
H46 C42 0.960 . S
H47 C42 0.961 . S
H48 C42 0.960 . S
H49 C45 0.960 . S
H50 C45 0.960 . S
H51 C45 0.959 . S
C52 N53 1.317 . S
C52 N54 1.348 . S
C52 C55 1.485 1_556 S
N53 C52 1.317 . S
N53 N57 1.370 . S
N54 C52 1.348 . S
N54 C56 1.346 . S
C55 C52 1.485 1_554 S
C55 H59 0.960 . S
C55 H60 0.961 . S
C55 H61 0.960 . S
C56 N54 1.346 . S
C56 N57 1.307 . S
C56 C58 1.486 1_565 S
N57 N53 1.370 . S
N57 C56 1.307 . S
C58 C56 1.486 1_545 S
C58 H62 0.960 . S
C58 H63 0.960 . S
C58 H64 0.959 . S
H59 C55 0.960 . S
H60 C55 0.961 . S
H61 C55 0.960 . S
H62 C58 0.960 . S
H63 C58 0.960 . S
H64 C58 0.959 . S
C65 N66 1.317 . S
C65 N67 1.348 . S
C65 C68 1.485 . S
N66 C65 1.317 . S
N66 N70 1.370 . S
N67 C65 1.348 . S
N67 C69 1.346 . S
C68 C65 1.485 . S
C68 H72 0.960 . S
C68 H73 0.961 . S
C68 H74 0.960 . S
C69 N67 1.346 . S
C69 N70 1.307 . S
C69 C71 1.486 . S
N70 N66 1.370 . S
N70 C69 1.307 . S
C71 C69 1.486 . S
C71 H75 0.960 . S
C71 H76 0.960 . S
C71 H77 0.959 . S
H72 C68 0.960 . S
H73 C68 0.961 . S
H74 C68 0.960 . S
H75 C71 0.960 . S
H76 C71 0.960 . S
H77 C71 0.959 . S
C78 N79 1.317 . S
C78 N80 1.348 . S
C78 C81 1.485 . S
N79 C78 1.317 . S
N79 N83 1.370 . S
N80 C78 1.348 . S
N80 C82 1.346 . S
C81 C78 1.485 . S
C81 H85 0.960 . S
C81 H86 0.961 . S
C81 H87 0.960 . S
C82 N80 1.346 . S
C82 N83 1.307 . S
C82 C84 1.486 . S
N83 N79 1.370 . S
N83 C82 1.307 . S
C84 C82 1.486 . S
C84 H88 0.960 . S
C84 H89 0.960 1_554 S
C84 H90 0.959 . S
H85 C81 0.960 . S
H86 C81 0.961 . S
H87 C81 0.960 . S
H88 C84 0.960 . S
H89 C84 0.960 1_556 S
H90 C84 0.959 . S
C91 N92 1.317 . S
C91 N93 1.348 . S
C91 C94 1.485 . S
N92 C91 1.317 . S
N92 N96 1.370 . S
N93 C91 1.348 . S
N93 C95 1.346 . S
C94 C91 1.485 . S
C94 H98 0.960 1_455 S
C94 H99 0.961 . S
C94 H100 0.960 . S
C95 N93 1.346 . S
C95 N96 1.307 . S
C95 C97 1.486 . S
N96 N92 1.370 . S
N96 C95 1.307 . S
C97 C95 1.486 . S
C97 H101 0.960 . S
C97 H102 0.960 . S
C97 H103 0.959 . S
H98 C94 0.960 1_655 S
H99 C94 0.961 . S
H100 C94 0.960 . S
H101 C97 0.960 . S
H102 C97 0.960 . S
H103 C97 0.959 . S
O104 Zn105 1.962 . S
O104 C120 1.225 . S
Zn105 O104 1.962 . S
Zn105 O106 1.963 . S
Zn105 O112 1.900 1_455 S
Zn105 O117 1.921 1_455 S
O106 Zn105 1.963 . S
O106 Zn107 1.923 1_545 S
O106 Zn108 1.950 . S
O106 Zn109 1.945 1_545 S
Zn107 O106 1.923 1_565 S
Zn107 O110 1.933 . S
Zn107 O113 1.941 1_465 S
Zn107 O114 1.965 1_565 S
Zn108 O106 1.950 . S
Zn108 O115 1.938 . S
Zn108 O116 1.895 1_545 S
Zn108 O126 1.953 . S
Zn109 O106 1.945 1_565 S
Zn109 O111 1.932 . S
Zn109 O118 1.977 . S
Zn109 O119 1.910 . S
O110 Zn107 1.933 . S
O110 C121 1.226 . S
O111 Zn109 1.932 . S
O111 C121 1.307 . S
O112 Zn105 1.900 1_655 S
O112 C123 1.253 . S
O113 Zn107 1.941 1_645 S
O113 C123 1.283 . S
O114 Zn107 1.965 1_545 S
O114 C122 1.303 . S
O115 Zn108 1.938 . S
O115 C122 1.247 . S
O116 Zn108 1.895 1_565 S
O116 C124 1.319 . S
O117 Zn105 1.921 1_655 S
O117 C125 1.311 1_645 S
O118 Zn109 1.977 . S
O118 C124 1.272 . S
O119 Zn109 1.910 . S
O119 C125 1.231 . S
C120 O104 1.225 . S
C120 O126 1.298 . S
C121 O110 1.226 . S
C121 O111 1.307 . S
C122 O114 1.303 . S
C122 O115 1.247 . S
C123 O112 1.253 . S
C123 O113 1.283 . S
C124 O116 1.319 . S
C124 O118 1.272 . S
C125 O117 1.311 1_465 S
C125 O119 1.231 . S
O126 Zn108 1.953 . S
O126 C120 1.298 . S
O127 Zn128 1.953 . S
O127 C143 1.225 1_556 S
Zn128 O127 1.953 . S
Zn128 O129 1.949 1_556 S
Zn128 O135 1.919 . S
Zn128 O140 1.924 1_556 S
O129 Zn128 1.949 1_554 S
O129 Zn130 1.923 1_545 S
O129 Zn131 1.950 . S
O129 Zn132 1.945 . S
Zn130 O129 1.923 1_565 S
Zn130 O133 1.933 . S
Zn130 O136 1.941 1_554 S
Zn130 O137 1.965 . S
Zn131 O129 1.950 . S
Zn131 O138 1.938 . S
Zn131 O139 1.906 . S
Zn131 O149 1.953 . S
Zn132 O129 1.945 . S
Zn132 O134 1.928 1_545 S
Zn132 O141 1.978 . S
Zn132 O142 1.912 . S
O133 Zn130 1.933 . S
O133 C144 1.226 . S
O134 Zn132 1.928 1_565 S
O134 C144 1.307 . S
O135 Zn128 1.919 . S
O135 C146 1.253 1_545 S
O136 Zn130 1.941 1_556 S
O136 C146 1.283 . S
O137 Zn130 1.965 . S
O137 C145 1.303 1_565 S
O138 Zn131 1.938 . S
O138 C145 1.247 . S
O139 Zn131 1.906 . S
O139 C147 1.304 . S
O140 Zn128 1.924 1_554 S
O140 C148 1.311 . S
O141 Zn132 1.978 . S
O141 C147 1.272 . S
O142 Zn132 1.912 . S
O142 C148 1.231 . S
C143 O127 1.225 1_554 S
C143 O149 1.298 . S
C144 O133 1.226 . S
C144 O134 1.307 . S
C145 O137 1.303 1_545 S
C145 O138 1.247 . S
C146 O135 1.253 1_565 S
C146 O136 1.283 . S
C147 O139 1.304 . S
C147 O141 1.272 . S
C148 O140 1.311 . S
C148 O142 1.231 . S
O149 Zn131 1.953 . S
O149 C143 1.298 . S
O150 Zn151 1.953 . S
O150 C166 1.225 . S
Zn151 O150 1.953 . S
Zn151 O152 1.949 . S
Zn151 O158 1.919 . S
Zn151 O163 1.924 . S
O152 Zn151 1.949 . S
O152 Zn153 1.923 . S
O152 Zn154 1.950 . S
O152 Zn155 1.945 . S
Zn153 O152 1.923 . S
Zn153 O156 1.933 . S
Zn153 O159 1.941 . S
Zn153 O160 1.965 . S
Zn154 O152 1.950 . S
Zn154 O161 1.938 . S
Zn154 O162 1.906 . S
Zn154 O172 1.953 . S
Zn155 O152 1.945 . S
Zn155 O157 1.932 . S
Zn155 O164 1.977 . S
Zn155 O165 1.910 . S
O156 Zn153 1.933 . S
O156 C167 1.226 . S
O157 Zn155 1.932 . S
O157 C167 1.307 . S
O158 Zn151 1.919 . S
O158 C169 1.253 . S
O159 Zn153 1.941 . S
O159 C169 1.283 . S
O160 Zn153 1.965 . S
O160 C168 1.303 . S
O161 Zn154 1.938 . S
O161 C168 1.247 . S
O162 Zn154 1.906 . S
O162 C170 1.304 . S
O163 Zn151 1.924 . S
O163 C171 1.311 . S
O164 Zn155 1.977 . S
O164 C170 1.272 . S
O165 Zn155 1.910 . S
O165 C171 1.231 . S
C166 O150 1.225 . S
C166 O172 1.298 . S
C167 O156 1.226 . S
C167 O157 1.307 . S
C168 O160 1.303 . S
C168 O161 1.247 . S
C169 O158 1.253 . S
C169 O159 1.283 . S
C170 O162 1.304 . S
C170 O164 1.272 . S
C171 O163 1.311 . S
C171 O165 1.231 . S
O172 Zn154 1.953 . S
O172 C166 1.298 . S
O173 Zn174 1.953 . S
O173 C189 1.225 . S
Zn174 O173 1.953 . S
Zn174 O175 1.949 1_655 S
Zn174 O181 1.919 . S
Zn174 O186 1.924 . S
O175 Zn174 1.949 1_455 S
O175 Zn176 1.923 1_454 S
O175 Zn177 1.950 . S
O175 Zn178 1.945 1_554 S
Zn176 O175 1.923 1_656 S
Zn176 O179 1.933 1_655 S
Zn176 O182 1.941 . S
Zn176 O183 1.965 . S
Zn177 O175 1.950 . S
Zn177 O184 1.938 . S
Zn177 O185 1.906 . S
Zn177 O195 1.953 . S
Zn178 O175 1.945 1_556 S
Zn178 O180 1.932 . S
Zn178 O187 1.977 1_556 S
Zn178 O188 1.910 1_556 S
O179 Zn176 1.933 1_455 S
O179 C190 1.226 . S
O180 Zn178 1.932 . S
O180 C190 1.307 . S
O181 Zn174 1.919 . S
O181 C192 1.253 1_554 S
O182 Zn176 1.941 . S
O182 C192 1.283 . S
O183 Zn176 1.965 . S
O183 C191 1.303 . S
O184 Zn177 1.938 . S
O184 C191 1.247 1_454 S
O185 Zn177 1.906 . S
O185 C193 1.304 . S
O186 Zn174 1.924 . S
O186 C194 1.311 1_655 S
O187 Zn178 1.977 1_554 S
O187 C193 1.272 . S
O188 Zn178 1.910 1_554 S
O188 C194 1.231 . S
C189 O173 1.225 . S
C189 O195 1.298 1_655 S
C190 O179 1.226 . S
C190 O180 1.307 . S
C191 O183 1.303 . S
C191 O184 1.247 1_656 S
C192 O181 1.253 1_556 S
C192 O182 1.283 . S
C193 O185 1.304 . S
C193 O187 1.272 . S
C194 O186 1.311 1_455 S
C194 O188 1.231 . S
O195 Zn177 1.953 . S
O195 C189 1.298 1_455 S
C196 C197 1.363 . S
C196 C202 1.379 . S
C196 N204 1.356 . S
C197 C196 1.363 . S
C197 C203 1.363 . S
C198 C199 1.363 . S
C198 C203 1.379 . S
C198 N205 1.356 . S
C199 C198 1.363 . S
C199 C202 1.363 . S
N200 C202 1.356 . S
N200 H212 0.984 . S
N200 H213 0.985 . S
N201 C203 1.356 . S
N201 H206 0.984 . S
N201 H207 0.985 . S
C202 C196 1.379 . S
C202 C199 1.363 . S
C202 N200 1.356 . S
C203 C197 1.363 . S
C203 C198 1.379 . S
C203 N201 1.356 . S
N204 C196 1.356 . S
N204 H210 0.984 . S
N204 H211 0.984 . S
N205 C198 1.356 . S
N205 H208 0.984 . S
N205 H209 0.985 . S
H206 N201 0.984 . S
H207 N201 0.985 . S
H208 N205 0.984 . S
H209 N205 0.985 . S
H210 N204 0.984 . S
H211 N204 0.984 . S
H212 N200 0.984 . S
H213 N200 0.985 . S
C214 C215 1.363 . S
C214 C220 1.379 . S
C214 N222 1.356 . S
C215 C214 1.363 . S
C215 C221 1.363 . S
C216 C217 1.363 . S
C216 C221 1.379 . S
C216 N223 1.356 . S
C217 C216 1.363 . S
C217 C220 1.363 . S
N218 C220 1.356 1_545 S
N218 H230 0.984 . S
N218 H231 0.985 . S
N219 C221 1.356 . S
N219 H224 0.984 . S
N219 H225 0.985 . S
C220 C214 1.379 . S
C220 C217 1.363 . S
C220 N218 1.356 1_565 S
C221 C215 1.363 . S
C221 C216 1.379 . S
C221 N219 1.356 . S
N222 C214 1.356 . S
N222 H228 0.984 . S
N222 H229 0.984 . S
N223 C216 1.356 . S
N223 H226 0.984 . S
N223 H227 0.985 . S
H224 N219 0.984 . S
H225 N219 0.985 . S
H226 N223 0.984 . S
H227 N223 0.985 . S
H228 N222 0.984 . S
H229 N222 0.984 . S
H230 N218 0.984 . S
H231 N218 0.985 . S
C232 C233 1.363 . S
C232 C238 1.379 . S
C232 N240 1.356 . S
C233 C232 1.363 . S
C233 C239 1.363 . S
C234 C235 1.363 . S
C234 C239 1.379 . S
C234 N241 1.356 . S
C235 C234 1.363 . S
C235 C238 1.363 . S
N236 C238 1.356 . S
N236 H248 0.984 . S
N236 H249 0.985 . S
N237 C239 1.356 . S
N237 H242 0.984 . S
N237 H243 0.985 . S
C238 C232 1.379 . S
C238 C235 1.363 . S
C238 N236 1.356 . S
C239 C233 1.363 . S
C239 C234 1.379 . S
C239 N237 1.356 . S
N240 C232 1.356 . S
N240 H246 0.984 . S
N240 H247 0.984 . S
N241 C234 1.356 . S
N241 H244 0.984 . S
N241 H245 0.985 . S
H242 N237 0.984 . S
H243 N237 0.985 . S
H244 N241 0.984 . S
H245 N241 0.985 . S
H246 N240 0.984 . S
H247 N240 0.984 . S
H248 N236 0.984 . S
H249 N236 0.985 . S
C250 C251 1.363 . S
C250 C256 1.379 . S
C250 N258 1.356 . S
C251 C250 1.363 . S
C251 C257 1.363 . S
C252 C253 1.363 . S
C252 C257 1.379 . S
C252 N259 1.345 1_655 S
C253 C252 1.363 . S
C253 C256 1.363 . S
N254 C256 1.356 . S
N254 H266 0.984 . S
N254 H267 0.985 . S
N255 C257 1.356 . S
N255 H260 0.984 . S
N255 H261 0.994 . S
C256 C250 1.379 . S
C256 C253 1.363 . S
C256 N254 1.356 . S
C257 C251 1.363 . S
C257 C252 1.379 . S
C257 N255 1.356 . S
N258 C250 1.356 . S
N258 H264 0.984 . S
N258 H265 0.984 . S
N259 C252 1.345 1_455 S
N259 H262 0.985 . S
N259 H263 0.995 . S
H260 N255 0.984 . S
H261 N255 0.994 . S
H262 N259 0.985 . S
H263 N259 0.995 . S
H264 N258 0.984 . S
H265 N258 0.984 . S
H266 N254 0.984 . S
H267 N254 0.985 . S
C268 C269 1.363 . S
C268 C274 1.379 . S
C268 N276 1.356 . S
C269 C268 1.363 . S
C269 C275 1.363 . S
C270 C271 1.363 . S
C270 C275 1.379 . S
C270 N277 1.356 . S
C271 C270 1.363 . S
C271 C274 1.363 . S
N272 C274 1.356 . S
N272 H284 0.984 1_554 S
N272 H285 0.985 . S
N273 C275 1.356 . S
N273 H278 0.984 . S
N273 H279 0.985 . S
C274 C268 1.379 . S
C274 C271 1.363 . S
C274 N272 1.356 . S
C275 C269 1.363 . S
C275 C270 1.379 . S
C275 N273 1.356 . S
N276 C268 1.356 . S
N276 H282 0.984 . S
N276 H283 0.984 . S
N277 C270 1.356 . S
N277 H280 0.984 . S
N277 H281 0.985 . S
H278 N273 0.984 . S
H279 N273 0.985 . S
H280 N277 0.984 . S
H281 N277 0.985 . S
H282 N276 0.984 . S
H283 N276 0.984 . S
H284 N272 0.984 1_556 S
H285 N272 0.985 . S
C286 C287 1.363 . S
C286 C292 1.379 . S
C286 N294 1.356 . S
C287 C286 1.363 . S
C287 C293 1.363 . S
C288 C289 1.363 . S
C288 C293 1.379 . S
C288 N295 1.356 . S
C289 C288 1.363 . S
C289 C292 1.363 . S
N290 C292 1.356 . S
N290 H302 0.984 1_565 S
N290 H303 0.985 . S
N291 C293 1.356 . S
N291 H296 0.984 . S
N291 H297 0.985 . S
C292 C286 1.379 . S
C292 C289 1.363 . S
C292 N290 1.356 . S
C293 C287 1.363 . S
C293 C288 1.379 . S
C293 N291 1.356 . S
N294 C286 1.356 . S
N294 H300 0.984 . S
N294 H301 0.984 . S
N295 C288 1.356 . S
N295 H298 0.984 . S
N295 H299 0.985 . S
H296 N291 0.984 . S
H297 N291 0.985 . S
H298 N295 0.984 . S
H299 N295 0.985 . S
H300 N294 0.984 . S
H301 N294 0.984 . S
H302 N290 0.984 1_545 S
H303 N290 0.985 . S
C304 C305 1.363 . S
C304 C310 1.379 . S
C304 N312 1.356 1_556 S
C305 C304 1.363 . S
C305 C311 1.363 . S
C306 C307 1.363 . S
C306 C311 1.379 . S
C306 N313 1.356 . S
C307 C306 1.363 . S
C307 C310 1.363 . S
N308 C310 1.356 1_554 S
N308 H320 0.984 . S
N308 H321 0.985 . S
N309 C311 1.356 . S
N309 H314 0.984 . S
N309 H315 0.985 . S
C310 C304 1.379 . S
C310 C307 1.363 . S
C310 N308 1.356 1_556 S
C311 C305 1.363 . S
C311 C306 1.379 . S
C311 N309 1.356 . S
N312 C304 1.356 1_554 S
N312 H318 0.984 . S
N312 H319 0.984 1_554 S
N313 C306 1.356 . S
N313 H316 0.984 . S
N313 H317 0.985 . S
H314 N309 0.984 . S
H315 N309 0.985 . S
H316 N313 0.984 . S
H317 N313 0.985 . S
H318 N312 0.984 . S
H319 N312 0.984 1_556 S
H320 N308 0.984 . S
H321 N308 0.985 . S
C322 C323 1.363 . S
C322 C328 1.379 . S
C322 N330 1.356 . S
C323 C322 1.363 . S
C323 C329 1.363 . S
C324 C325 1.363 . S
C324 C329 1.379 . S
C324 N331 1.356 . S
C325 C324 1.363 . S
C325 C328 1.363 . S
N326 C328 1.356 . S
N326 H338 0.984 . S
N326 H339 0.985 . S
N327 C329 1.356 . S
N327 H332 0.984 . S
N327 H333 0.985 . S
C328 C322 1.379 . S
C328 C325 1.363 . S
C328 N326 1.356 . S
C329 C323 1.363 . S
C329 C324 1.379 . S
C329 N327 1.356 . S
N330 C322 1.356 . S
N330 H336 0.984 . S
N330 H337 0.984 . S
N331 C324 1.356 . S
N331 H334 0.984 . S
N331 H335 0.985 . S
H332 N327 0.984 . S
H333 N327 0.985 . S
H334 N331 0.984 . S
H335 N331 0.985 . S
H336 N330 0.984 . S
H337 N330 0.984 . S
H338 N326 0.984 . S
H339 N326 0.985 . S
C340 C341 1.363 . S
C340 C346 1.379 . S
C340 N348 1.356 . S
C341 C340 1.363 . S
C341 C347 1.363 . S
C342 C343 1.363 . S
C342 C347 1.379 . S
C342 N349 1.356 1_455 S
C343 C342 1.363 . S
C343 C346 1.363 . S
N344 C346 1.356 . S
N344 H356 0.984 . S
N344 H357 0.985 . S
N345 C347 1.356 . S
N345 H350 0.984 . S
N345 H351 0.987 . S
C346 C340 1.379 . S
C346 C343 1.363 . S
C346 N344 1.356 . S
C347 C341 1.363 . S
C347 C342 1.379 . S
C347 N345 1.356 . S
N348 C340 1.356 . S
N348 H354 0.984 . S
N348 H355 0.984 . S
N349 C342 1.356 1_655 S
N349 H352 0.984 . S
N349 H353 0.985 . S
H350 N345 0.984 . S
H351 N345 0.987 . S
H352 N349 0.984 . S
H353 N349 0.985 . S
H354 N348 0.984 . S
H355 N348 0.984 . S
H356 N344 0.984 . S
H357 N344 0.985 . S
C358 C359 1.363 . S
C358 C364 1.379 . S
C358 N366 1.356 . S
C359 C358 1.363 . S
C359 C365 1.363 . S
C360 C361 1.363 1_554 S
C360 C365 1.379 1_554 S
C360 N367 1.356 . S
C361 C360 1.363 1_556 S
C361 C364 1.363 . S
N362 C364 1.356 . S
N362 H374 0.984 . S
N362 H375 0.985 . S
N363 C365 1.356 . S
N363 H368 0.984 . S
N363 H369 0.985 1_556 S
C364 C358 1.379 . S
C364 C361 1.363 . S
C364 N362 1.356 . S
C365 C359 1.363 . S
C365 C360 1.379 1_556 S
C365 N363 1.356 . S
N366 C358 1.356 . S
N366 H372 0.984 . S
N366 H373 0.984 . S
N367 C360 1.356 . S
N367 H370 0.984 . S
N367 H371 0.985 . S
H368 N363 0.984 . S
H369 N363 0.985 1_554 S
H370 N367 0.984 . S
H371 N367 0.985 . S
H372 N366 0.984 . S
H373 N366 0.984 . S
H374 N362 0.984 . S
H375 N362 0.985 . S
C376 C377 1.363 . S
C376 C382 1.379 . S
C376 N384 1.356 . S
C377 C376 1.363 . S
C377 C383 1.363 . S
C378 C379 1.363 . S
C378 C383 1.379 . S
C378 N385 1.356 1_655 S
C379 C378 1.363 . S
C379 C382 1.363 . S
N380 C382 1.356 . S
N380 H392 0.984 . S
N380 H393 0.985 . S
N381 C383 1.356 . S
N381 H386 0.984 . S
N381 H387 0.985 . S
C382 C376 1.379 . S
C382 C379 1.363 . S
C382 N380 1.356 . S
C383 C377 1.363 . S
C383 C378 1.379 . S
C383 N381 1.356 . S
N384 C376 1.356 . S
N384 H390 0.984 . S
N384 H391 0.984 . S
N385 C378 1.356 1_455 S
N385 H388 0.984 . S
N385 H389 0.985 . S
H386 N381 0.984 . S
H387 N381 0.985 . S
H388 N385 0.984 . S
H389 N385 0.985 . S
H390 N384 0.984 . S
H391 N384 0.984 . S
H392 N380 0.984 . S
H393 N380 0.985 . S
C394 C395 1.363 . S
C394 C400 1.379 . S
C394 N402 1.356 . S
C395 C394 1.363 . S
C395 C401 1.363 . S
C396 C397 1.363 . S
C396 C401 1.379 . S
C396 N403 1.356 . S
C397 C396 1.363 . S
C397 C400 1.363 . S
N398 C400 1.356 . S
N398 H410 0.984 . S
N398 H411 0.985 . S
N399 C401 1.356 . S
N399 H404 0.984 . S
N399 H405 0.985 . S
C400 C394 1.379 . S
C400 C397 1.363 . S
C400 N398 1.356 . S
C401 C395 1.363 . S
C401 C396 1.379 . S
C401 N399 1.356 . S
N402 C394 1.356 . S
N402 H408 0.984 . S
N402 H409 0.984 . S
N403 C396 1.356 . S
N403 H406 0.984 . S
N403 H407 0.985 . S
H404 N399 0.984 . S
H405 N399 0.985 . S
H406 N403 0.984 . S
H407 N403 0.985 . S
H408 N402 0.984 . S
H409 N402 0.984 . S
H410 N398 0.984 . S
H411 N398 0.985 . S
C412 C413 1.363 1_545 S
C412 C418 1.379 . S
C412 N420 1.356 . S
C413 C412 1.363 1_565 S
C413 C419 1.349 1_655 S
C414 C415 1.363 1_455 S
C414 C419 1.385 . S
C414 N421 1.356 . S
C415 C414 1.363 1_655 S
C415 C418 1.363 1_565 S
N416 C418 1.356 . S
N416 H428 0.984 . S
N416 H429 0.985 . S
N417 C419 1.361 . S
N417 H422 0.984 1_455 S
N417 H423 0.985 . S
C418 C412 1.379 . S
C418 C415 1.363 1_545 S
C418 N416 1.356 . S
C419 C413 1.349 1_455 S
C419 C414 1.385 . S
C419 N417 1.361 . S
N420 C412 1.356 . S
N420 H426 0.984 . S
N420 H427 0.984 . S
N421 C414 1.356 . S
N421 H424 0.984 . S
N421 H425 0.985 . S
H422 N417 0.984 1_655 S
H423 N417 0.985 . S
H424 N421 0.984 . S
H425 N421 0.985 . S
H426 N420 0.984 . S
H427 N420 0.984 . S
H428 N416 0.984 . S
H429 N416 0.985 . S
C430 C431 1.363 . S
C430 C436 1.379 . S
C430 N438 1.356 1_545 S
C431 C430 1.363 . S
C431 C437 1.363 . S
C432 C433 1.363 . S
C432 C437 1.379 . S
C432 N439 1.356 . S
C433 C432 1.363 . S
C433 C436 1.363 . S
N434 C436 1.356 1_565 S
N434 H446 0.984 . S
N434 H447 0.985 . S
N435 C437 1.356 . S
N435 H440 0.984 . S
N435 H441 0.985 . S
C436 C430 1.379 . S
C436 C433 1.363 . S
C436 N434 1.356 1_545 S
C437 C431 1.363 . S
C437 C432 1.379 . S
C437 N435 1.356 . S
N438 C430 1.356 1_565 S
N438 H444 0.984 . S
N438 H445 0.984 1_565 S
N439 C432 1.356 . S
N439 H442 0.984 . S
N439 H443 0.985 . S
H440 N435 0.984 . S
H441 N435 0.985 . S
H442 N439 0.984 . S
H443 N439 0.985 . S
H444 N438 0.984 . S
H445 N438 0.984 1_545 S
H446 N434 0.984 . S
H447 N434 0.985 . S
C448 C449 1.363 . S
C448 C454 1.379 . S
C448 N456 1.356 . S
C449 C448 1.363 . S
C449 C455 1.363 . S
C450 C451 1.363 . S
C450 C455 1.379 . S
C450 N457 1.356 . S
C451 C450 1.363 . S
C451 C454 1.363 . S
N452 C454 1.356 . S
N452 H464 0.984 . S
N452 H465 0.985 . S
N453 C455 1.356 . S
N453 H458 0.984 . S
N453 H459 0.985 . S
C454 C448 1.379 . S
C454 C451 1.363 . S
C454 N452 1.356 . S
C455 C449 1.363 . S
C455 C450 1.379 . S
C455 N453 1.356 . S
N456 C448 1.356 . S
N456 H462 0.984 . S
N456 H463 0.984 . S
N457 C450 1.356 . S
N457 H460 0.984 . S
N457 H461 0.985 . S
H458 N453 0.984 . S
H459 N453 0.985 . S
H460 N457 0.984 . S
H461 N457 0.985 . S
H462 N456 0.984 . S
H463 N456 0.984 . S
H464 N452 0.984 . S
H465 N452 0.985 . S
C466 C467 1.363 . S
C466 C472 1.379 . S
C466 N474 1.356 . S
C467 C466 1.363 . S
C467 C473 1.363 . S
C468 C469 1.363 . S
C468 C473 1.379 . S
C468 N475 1.356 . S
C469 C468 1.363 . S
C469 C472 1.363 . S
N470 C472 1.356 1_655 S
N470 H482 0.984 . S
N470 H483 0.985 . S
N471 C473 1.356 . S
N471 H476 0.984 . S
N471 H477 0.985 . S
C472 C466 1.379 . S
C472 C469 1.363 . S
C472 N470 1.356 1_455 S
C473 C467 1.363 . S
C473 C468 1.379 . S
C473 N471 1.356 . S
N474 C466 1.356 . S
N474 H480 0.984 1_455 S
N474 H481 0.984 . S
N475 C468 1.356 . S
N475 H478 0.984 . S
N475 H479 0.985 . S
H476 N471 0.984 . S
H477 N471 0.985 . S
H478 N475 0.984 . S
H479 N475 0.985 . S
H480 N474 0.984 1_655 S
H481 N474 0.984 . S
H482 N470 0.984 . S
H483 N470 0.985 . S
C484 C485 1.363 . S
C484 C490 1.379 . S
C484 N492 1.356 . S
C485 C484 1.363 . S
C485 C491 1.363 1_566 S
C486 C487 1.363 . S
C486 C491 1.379 . S
C486 N493 1.356 . S
C487 C486 1.363 . S
C487 C490 1.363 1_544 S
N488 C490 1.356 . S
N488 H500 0.984 . S
N488 H501 0.985 . S
N489 C491 1.356 . S
N489 H494 0.984 . S
N489 H495 0.985 . S
C490 C484 1.379 . S
C490 C487 1.363 1_566 S
C490 N488 1.356 . S
C491 C485 1.363 1_544 S
C491 C486 1.379 . S
C491 N489 1.356 . S
N492 C484 1.356 . S
N492 H498 0.984 . S
N492 H499 0.984 . S
N493 C486 1.356 . S
N493 H496 0.984 . S
N493 H497 0.985 . S
H494 N489 0.984 . S
H495 N489 0.985 . S
H496 N493 0.984 . S
H497 N493 0.985 . S
H498 N492 0.984 . S
H499 N492 0.984 . S
H500 N488 0.984 . S
H501 N488 0.985 . S
C502 C503 1.363 . S
C502 C508 1.379 . S
C502 N510 1.356 . S
C503 C502 1.363 . S
C503 C509 1.363 . S
C504 C505 1.363 . S
C504 C509 1.379 . S
C504 N511 1.356 . S
C505 C504 1.363 . S
C505 C508 1.363 . S
N506 C508 1.356 1_565 S
N506 H518 0.984 . S
N506 H519 0.985 . S
N507 C509 1.356 . S
N507 H512 0.984 . S
N507 H513 0.985 . S
C508 C502 1.379 . S
C508 C505 1.363 . S
C508 N506 1.356 1_545 S
C509 C503 1.363 . S
C509 C504 1.379 . S
C509 N507 1.356 . S
N510 C502 1.356 . S
N510 H516 0.984 1_545 S
N510 H517 0.984 . S
N511 C504 1.356 . S
N511 H514 0.984 . S
N511 H515 0.985 . S
H512 N507 0.984 . S
H513 N507 0.985 . S
H514 N511 0.984 . S
H515 N511 0.985 . S
H516 N510 0.984 1_565 S
H517 N510 0.984 . S
H518 N506 0.984 . S
H519 N506 0.985 . S
C520 C521 1.363 . S
C520 C526 1.379 . S
C520 N528 1.356 . S
C521 C520 1.363 . S
C521 C527 1.363 . S
C522 C523 1.363 . S
C522 C527 1.379 . S
C522 N529 1.356 . S
C523 C522 1.363 . S
C523 C526 1.363 . S
N524 C526 1.356 1_556 S
N524 H536 0.984 . S
N524 H537 0.985 . S
N525 C527 1.356 . S
N525 H530 0.984 . S
N525 H531 0.985 . S
C526 C520 1.379 . S
C526 C523 1.363 . S
C526 N524 1.356 1_554 S
C527 C521 1.363 . S
C527 C522 1.379 . S
C527 N525 1.356 . S
N528 C520 1.356 . S
N528 H534 0.984 1_554 S
N528 H535 0.984 . S
N529 C522 1.356 . S
N529 H532 0.984 . S
N529 H533 0.985 . S
H530 N525 0.984 . S
H531 N525 0.985 . S
H532 N529 0.984 . S
H533 N529 0.985 . S
H534 N528 0.984 1_556 S
H535 N528 0.984 . S
H536 N524 0.984 . S
H537 N524 0.985 . S
C538 C539 1.363 . S
C538 C544 1.379 . S
C538 N546 1.356 . S
C539 C538 1.363 . S
C539 C545 1.363 . S
C540 C541 1.363 . S
C540 C545 1.379 . S
C540 N547 1.356 . S
C541 C540 1.363 . S
C541 C544 1.363 . S
N542 C544 1.356 . S
N542 H554 0.984 . S
N542 H555 0.985 . S
N543 C545 1.356 . S
N543 H548 0.984 . S
N543 H549 0.985 . S
C544 C538 1.379 . S
C544 C541 1.363 . S
C544 N542 1.356 . S
C545 C539 1.363 . S
C545 C540 1.379 . S
C545 N543 1.356 . S
N546 C538 1.356 . S
N546 H552 0.984 . S
N546 H553 0.984 . S
N547 C540 1.356 . S
N547 H550 0.984 . S
N547 H551 0.985 . S
H548 N543 0.984 . S
H549 N543 0.985 . S
H550 N547 0.984 . S
H551 N547 0.985 . S
H552 N546 0.984 . S
H553 N546 0.984 . S
H554 N542 0.984 . S
H555 N542 0.985 . S
C556 C557 1.363 . S
C556 C562 1.379 . S
C556 N564 1.356 . S
C557 C556 1.363 . S
C557 C563 1.363 . S
C558 C559 1.363 1_554 S
C558 C563 1.379 1_554 S
C558 N565 1.356 1_655 S
C559 C558 1.363 1_556 S
C559 C562 1.363 . S
N560 C562 1.356 . S
N560 H572 0.984 . S
N560 H573 0.985 . S
N561 C563 1.356 1_454 S
N561 H566 0.981 1_454 S
N561 H567 0.985 . S
C562 C556 1.379 . S
C562 C559 1.363 . S
C562 N560 1.356 . S
C563 C557 1.363 . S
C563 C558 1.379 1_556 S
C563 N561 1.356 1_656 S
N564 C556 1.356 . S
N564 H570 0.984 . S
N564 H571 0.984 . S
N565 C558 1.356 1_455 S
N565 H568 0.984 . S
N565 H569 0.985 . S
H566 N561 0.981 1_656 S
H567 N561 0.985 . S
H568 N565 0.984 . S
H569 N565 0.985 . S
H570 N564 0.984 . S
H571 N564 0.984 . S
H572 N560 0.984 . S
H573 N560 0.985 . S
C574 C575 1.363 . S
C574 C580 1.379 . S
C574 N582 1.356 . S
C575 C574 1.363 . S
C575 C581 1.363 . S
C576 C577 1.363 . S
C576 C581 1.379 . S
C576 N583 1.356 . S
C577 C576 1.363 . S
C577 C580 1.363 . S
N578 C580 1.356 . S
N578 H590 0.984 . S
N578 H591 0.985 . S
N579 C581 1.356 . S
N579 H584 0.984 . S
N579 H585 0.985 . S
C580 C574 1.379 . S
C580 C577 1.363 . S
C580 N578 1.356 . S
C581 C575 1.363 . S
C581 C576 1.379 . S
C581 N579 1.356 . S
N582 C574 1.356 . S
N582 H588 0.984 . S
N582 H589 0.984 . S
N583 C576 1.356 . S
N583 H586 0.984 . S
N583 H587 0.985 . S
H584 N579 0.984 . S
H585 N579 0.985 . S
H586 N583 0.984 . S
H587 N583 0.985 . S
H588 N582 0.984 . S
H589 N582 0.984 . S
H590 N578 0.984 . S
H591 N578 0.985 . S
C592 C593 1.363 . S
C592 C598 1.379 . S
C592 N600 1.356 . S
C593 C592 1.363 . S
C593 C599 1.363 . S
C594 C595 1.363 . S
C594 C599 1.379 . S
C594 N601 1.356 . S
C595 C594 1.363 . S
C595 C598 1.363 . S
N596 C598 1.356 . S
N596 H608 0.984 . S
N596 H609 0.985 . S
N597 C599 1.356 . S
N597 H602 0.984 . S
N597 H603 0.985 . S
C598 C592 1.379 . S
C598 C595 1.363 . S
C598 N596 1.356 . S
C599 C593 1.363 . S
C599 C594 1.379 . S
C599 N597 1.356 . S
N600 C592 1.356 . S
N600 H606 0.984 . S
N600 H607 0.984 . S
N601 C594 1.356 . S
N601 H604 0.984 . S
N601 H605 0.985 . S
H602 N597 0.984 . S
H603 N597 0.985 . S
H604 N601 0.984 . S
H605 N601 0.985 . S
H606 N600 0.984 . S
H607 N600 0.984 . S
H608 N596 0.984 . S
H609 N596 0.985 . S
C610 C611 1.363 . S
C610 C616 1.379 . S
C610 N618 1.356 . S
C611 C610 1.363 . S
C611 C617 1.363 . S
C612 C613 1.363 . S
C612 C617 1.379 . S
C612 N619 1.356 . S
C613 C612 1.363 . S
C613 C616 1.363 . S
N614 C616 1.356 . S
N614 H626 0.984 . S
N614 H627 0.985 . S
N615 C617 1.356 . S
N615 H620 0.984 . S
N615 H621 0.985 . S
C616 C610 1.379 . S
C616 C613 1.363 . S
C616 N614 1.356 . S
C617 C611 1.363 . S
C617 C612 1.379 . S
C617 N615 1.356 . S
N618 C610 1.356 . S
N618 H624 0.984 . S
N618 H625 0.984 . S
N619 C612 1.356 . S
N619 H622 0.984 . S
N619 H623 0.985 . S
H620 N615 0.984 . S
H621 N615 0.985 . S
H622 N619 0.984 . S
H623 N619 0.985 . S
H624 N618 0.984 . S
H625 N618 0.984 . S
H626 N614 0.984 . S
H627 N614 0.985 . S
C197 N1 1.512 . S
C199 C122 1.524 . S
C215 N18 1.793 . S
C217 C146 1.779 . S
C235 C166 1.150 . S
C233 N28 1.143 . S
C251 N40 1.553 . S
C253 C189 1.596 . S
C271 C148 1.858 . S
C269 N5 1.859 . S
C289 C124 1.654 . S
C287 N14 1.666 . S
C307 C192 1.535 . S
C305 N31 1.526 . S
C325 C169 1.282 . S
C323 N41 1.334 . S
C341 N2 1.452 . S
C343 C194 1.399 . S
C361 C143 1.650 1_556 S
C359 N27 1.620 . S
C377 N44 1.640 . S
C379 C121 1.673 1_655 S
C395 N15 1.344 . S
C397 C171 1.320 . S
C415 C125 1.771 1_655 S
C413 N57 1.765 . S
C431 N70 1.393 . S
C433 C147 1.428 . S
C449 N79 1.539 . S
C451 C167 1.625 . S
C467 N93 1.503 . S
C469 C190 1.529 . S
C485 N54 1.449 . S
C487 C145 1.445 . S
C505 C123 1.868 . S
C503 N66 1.837 . S
C523 C193 1.134 . S
C521 N80 1.168 . S
C541 C170 1.503 . S
C539 N96 1.553 . S
C557 N53 1.698 . S
C559 C191 1.685 . S
C577 C144 1.523 . S
C575 N83 1.487 . S
C595 C120 1.655 . S
C593 N92 1.592 . S
C611 N67 1.583 . S
C613 C168 1.606 . S
