# Generated by pormake.
# Topology pts, (4,4)-cn, num edge types: 1
# Building blocks:
#     Node 0, Type 0, BuildingBlock: MUDLON_clean_linker_0, # of connection points: 4
#     Node 1, Type 0, BuildingBlock: MUDLON_clean_linker_0, # of connection points: 4
#     Node 2, Type 1, BuildingBlock: UXUYUI_clean_sbu_0, # of connection points: 4
#     Node 3, Type 1, BuildingBlock: UXUYUI_clean_sbu_0, # of connection points: 4
#     Edge 4, Type (0, 1), BuildingBlock: EZIPEK_clean_linker_0, # of connection points: 2
#     Edge 5, Type (0, 1), BuildingBlock: EZIPEK_clean_linker_0, # of connection points: 2
#     Edge 6, Type (0, 1), BuildingBlock: EZIPEK_clean_linker_0, # of connection points: 2
#     Edge 7, Type (0, 1), BuildingBlock: EZIPEK_clean_linker_0, # of connection points: 2
#     Edge 8, Type (0, 1), BuildingBlock: EZIPEK_clean_linker_0, # of connection points: 2
#     Edge 9, Type (0, 1), BuildingBlock: EZIPEK_clean_linker_0, # of connection points: 2
#     Edge 10, Type (0, 1), BuildingBlock: EZIPEK_clean_linker_0, # of connection points: 2
#     Edge 11, Type (0, 1), BuildingBlock: EZIPEK_clean_linker_0, # of connection points: 2
# Relax obj value: 0.014
# Max RMSD: 0.056
# Mean RMSD: 0.052
data_MOF--net-pts--node1-UXUYUI_clean_sbu_0--node2-MUDLON_clean_linker_0--edge1-EZIPEK_clean_linker_0
_symmetry_space_group_name_H-M    P1
_symmetry_Int_Tables_number       1
_symmetry_cell_setting            triclinic
loop_
_symmetry_equiv_pos_as_xyz
'x, y, z'
_cell_length_a     33.445356
_cell_length_b     33.499569
_cell_length_c     42.993064
_cell_angle_alpha  89.845277
_cell_angle_beta   90.059869
_cell_angle_gamma 90.051269
loop_
_atom_site_label
_atom_site_type_symbol
_atom_site_fract_x
_atom_site_fract_y
_atom_site_fract_z
_atom_type_partial_charge
H0 H 0.70282 0.0364 0.01281 0.0
N1 N 0.65981 0.96903 0.99831 0.0
H2 H 0.74973 0.04365 0.05614 0.0
H3 H 0.671 0.91877 0.04554 0.0
H4 H 0.71711 0.92671 0.08976 0.0
H5 H 0.70631 0.91875 0.96746 0.0
H6 H 0.74272 0.93063 0.91978 0.0
H7 H 0.66072 0.03851 0.96501 0.0
H8 H 0.69654 0.05159 0.91818 0.0
H9 H 0.62568 0.03477 0.02604 0.0
H10 H 0.59979 0.92906 0.97276 0.0
H11 H 0.55478 0.05056 0.0281 0.0
H12 H 0.52896 0.94609 0.97255 0.0
H13 H 0.32897 0.09786 0.03091 0.0
H14 H 0.28123 0.09202 0.07414 0.0
H15 H 0.3087 0.96677 0.08247 0.0
H16 H 0.35595 0.97241 0.03945 0.0
H17 H 0.33488 0.96753 0.98532 0.0
H18 H 0.28538 0.9579 0.94402 0.0
H19 H 0.29505 0.0822 0.91901 0.0
H20 H 0.3451 0.09187 0.96031 0.0
H21 H 0.42878 0.08943 0.00272 0.0
H22 H 0.50006 0.07385 1.00085 0.0
H23 H 0.47146 0.94782 1.00162 0.0
N24 N 0.3677 0.03907 0.00292 0.0
H25 H 0.40085 0.96391 1.00087 0.0
C26 C 0.68387 0.97653 0.0256 0.0
C27 C 0.70553 0.01228 0.02942 0.0
C28 C 0.73219 0.01656 0.05425 0.0
C29 C 0.7371 0.98558 0.07594 0.0
C30 C 0.71384 0.95085 0.07315 0.0
C31 C 0.68761 0.94634 0.04805 0.0
C32 C 0.67953 0.97704 0.96911 0.0
C33 C 0.70315 0.94732 0.95587 0.0
C34 C 0.72346 0.95425 0.92802 0.0
C35 C 0.71983 0.99087 0.91166 0.0
C36 C 0.69795 0.02153 0.92665 0.0
C37 C 0.67753 0.01445 0.95453 0.0
C38 C 0.6181 0.98009 0.9997 0.0
C39 C 0.60479 0.01492 0.01468 0.0
C40 C 0.56399 0.02423 0.01547 0.0
C41 C 0.53563 0.99958 1.00062 0.0
C42 C 0.5494 0.96534 0.98502 0.0
C43 C 0.59002 0.95565 0.98483 0.0
C44 C 0.34627 0.03583 0.0319 0.0
C45 C 0.3255 0.06942 0.04264 0.0
C46 C 0.29826 0.06607 0.06712 0.0
C47 C 0.29147 0.02894 0.08129 0.0
C48 C 0.3137 0.99566 0.07178 0.0
C49 C 0.34084 0.999 0.04719 0.0
C50 C 0.34405 0.03054 0.97572 0.0
C51 C 0.32748 0.9925 0.97045 0.0
C52 C 0.29903 0.98698 0.94698 0.0
C53 C 0.28668 0.01937 0.92862 0.0
C54 C 0.30443 0.05688 0.93294 0.0
C55 C 0.33297 0.06234 0.95631 0.0
C56 C 0.40936 0.02808 0.00241 0.0
C57 C 0.43811 0.05848 0.00241 0.0
C58 C 0.47891 0.0494 1.00163 0.0
C59 C 0.49199 0.00945 1.0013 0.0
C60 C 0.46289 0.97897 1.00138 0.0
C61 C 0.42209 0.98815 1.0015 0.0
H62 H 0.90871 0.70849 0.5294 0.0
N63 N 0.95662 0.6547 0.50401 0.0
H64 H 0.92399 0.75346 0.57288 0.0
H65 H 0.0232 0.65134 0.54102 0.0
H66 H 0.0385 0.69636 0.58468 0.0
H67 H 0.02948 0.68678 0.48875 0.0
H68 H 0.04233 0.73298 0.44562 0.0
H69 H 0.90901 0.66914 0.45571 0.0
H70 H 0.92243 0.71416 0.41166 0.0
H71 H 0.90541 0.60366 0.52892 0.0
H72 H 0.01978 0.60961 0.48316 0.0
H73 H 0.91048 0.53118 0.53172 0.0
H74 H 0.02417 0.53679 0.48397 0.0
H75 H 0.04753 0.34262 0.52872 0.0
H76 H 0.06953 0.29899 0.57095 0.0
H77 H 0.94677 0.27583 0.59555 0.0
H78 H 0.92454 0.32086 0.5536 0.0
H79 H 0.03674 0.34956 0.4746 0.0
H80 H 0.04597 0.30223 0.43155 0.0
H81 H 0.92258 0.26619 0.4396 0.0
H82 H 0.91381 0.31262 0.48322 0.0
H83 H 0.90703 0.40239 0.50303 0.0
H84 H 0.90517 0.47509 0.50047 0.0
H85 H 0.03333 0.47874 0.51399 0.0
N86 N 0.96994 0.35577 0.5108 0.0
H87 H 0.03493 0.40604 0.5144 0.0
C88 C 0.96464 0.67663 0.53212 0.0
C89 C 0.93673 0.70516 0.54179 0.0
C90 C 0.94545 0.73073 0.56644 0.0
C91 C 0.98228 0.72805 0.58187 0.0
C92 C 0.00983 0.69858 0.57307 0.0
C93 C 1.00109 0.67297 0.54827 0.0
C94 C 0.96787 0.67505 0.47572 0.0
C95 C 0.00608 0.69208 0.47187 0.0
C96 C 0.0135 0.71834 0.4472 0.0
C97 C 0.98318 0.72727 0.42569 0.0
C98 C 0.94613 0.70775 0.42812 0.0
C99 C 0.93851 0.68206 0.4531 0.0
C100 C 0.96172 0.61201 0.50546 0.0
C101 C 0.93147 0.58914 0.51921 0.0
C102 C 0.93433 0.54762 0.52048 0.0
C103 C 0.96742 0.52774 0.50754 0.0
C104 C 0.99832 0.55088 0.49433 0.0
C105 C 0.99569 0.59265 0.49355 0.0
C106 C 0.98417 0.33564 0.53829 0.0
C107 C 0.02521 0.32956 0.54374 0.0
C108 C 0.03785 0.30432 0.56773 0.0
C109 C 0.00973 0.28415 0.58619 0.0
C110 C 0.96885 0.29124 0.58154 0.0
C111 C 0.95623 0.31694 0.5578 0.0
C112 C 0.97459 0.33416 0.48221 0.0
C113 C 0.0116 0.33187 0.46685 0.0
C114 C 0.01682 0.30503 0.44228 0.0
C115 C 0.98498 0.28067 0.4326 0.0
C116 C 0.94745 0.28477 0.44678 0.0
C117 C 0.94241 0.31121 0.47148 0.0
C118 C 0.9708 0.39871 0.50949 0.0
C119 C 0.93466 0.41901 0.50538 0.0
C120 C 0.93372 0.46064 0.50422 0.0
C121 C 0.96904 0.48316 0.50757 0.0
C122 C 1.00551 0.4626 0.51116 0.0
C123 C 0.00644 0.42077 0.51182 0.0
Li124 Li 0.01196 0.04341 0.27622 0.0
Li125 Li 0.01122 0.9699 0.27317 0.0
Li126 Li 0.04766 0.01064 0.23283 0.0
Li127 Li 0.97432 0.00658 0.23418 0.0
C128 C 0.09465 0.0162 0.29026 0.0
N129 N 0.16892 0.03637 0.31387 0.0
C130 C 0.11014 0.9959 0.31604 0.0
C131 C 0.11727 0.04642 0.27627 0.0
C132 C 0.14762 0.00665 0.32772 0.0
C133 C 0.15466 0.05624 0.28857 0.0
C134 C 0.94591 0.98983 0.30443 0.0
C135 C 0.90282 0.939 0.32585 0.0
N136 N 0.90788 0.95498 0.35464 0.0
C137 C 0.95067 0.00578 0.33422 0.0
C138 C 0.92183 0.95616 0.30018 0.0
C139 C 0.93124 0.98769 0.35931 0.0
C140 C 0.97923 0.11384 0.30033 0.0
N141 N 0.01048 0.08819 0.30348 0.0
C142 C 0.03659 0.12612 0.34592 0.0
C143 C 0.03894 0.09368 0.3257 0.0
C144 C 1.00436 0.15267 0.34345 0.0
C145 C 0.97549 0.14648 0.32028 0.0
H146 H 0.95697 0.10859 0.28253 0.0
H147 H 0.06316 0.07267 0.32811 0.0
C148 C 1.00246 0.88664 0.28647 0.0
N149 N 0.01166 0.92296 0.29863 0.0
C150 C 0.99908 0.85322 0.30587 0.0
C151 C 0.01654 0.89487 0.34968 0.0
C152 C 0.01893 0.92754 0.32954 0.0
C153 C 0.00589 0.85732 0.3379 0.0
H154 H 0.9969 0.88373 0.26184 0.0
H155 H 0.02547 0.95686 0.33869 0.0
C156 C 0.01712 0.09201 0.21907 0.0
N157 N 0.03416 0.16705 0.19551 0.0
C158 C 0.99835 0.1055 0.19193 0.0
C159 C 0.04407 0.11706 0.23446 0.0
C160 C 0.00752 0.1434 0.1803 0.0
C161 C 0.05239 0.15478 0.22215 0.0
C162 C 0.99766 0.94308 0.20237 0.0
C163 C 0.01524 0.94734 0.17307 0.0
C164 C 0.96343 0.91949 0.20575 0.0
C165 C 0.99809 0.92805 0.14755 0.0
C166 C 0.94725 0.90063 0.17967 0.0
N167 N 0.96474 0.9053 0.15135 0.0
C168 C 0.12534 0.98989 0.21266 0.0
C169 C 0.09264 0.03802 0.18107 0.0
C170 C 0.15911 0.99117 0.19356 0.0
N171 N 0.09316 0.01334 0.20623 0.0
C172 C 0.12573 0.04029 0.16141 0.0
C173 C 0.15937 0.01669 0.16767 0.0
H174 H 0.12473 0.97022 0.23265 0.0
H175 H 0.06642 0.05563 0.17602 0.0
C176 C 0.89129 0.99829 0.21941 0.0
N177 N 0.92823 0.00652 0.20781 0.0
C178 C 0.8584 0.99525 0.19944 0.0
C179 C 0.90195 0.01071 0.15618 0.0
C180 C 0.934 0.01293 0.17689 0.0
C181 C 0.86372 1.00134 0.16741 0.0
H182 H 0.88745 0.99344 0.24407 0.0
H183 H 0.96377 0.01884 0.16823 0.0
O184 O 0.05796 0.00589 0.27854 0.0
O185 O 0.96474 0.0071 0.27958 0.0
O186 O 0.00823 0.05497 0.23082 0.0
O187 O 0.01384 0.96199 0.22758 0.0
H188 H 0.09349 0.97204 0.32696 0.0
H189 H 0.10654 0.06167 0.2558 0.0
H190 H 0.15984 0.99128 0.34774 0.0
H191 H 0.17244 0.07953 0.2779 0.0
H192 H 0.88421 0.91285 0.32293 0.0
H193 H 0.96931 0.03173 0.33797 0.0
H194 H 0.91818 0.94315 0.27735 0.0
H195 H 0.93473 0.99964 0.38251 0.0
H196 H 0.05917 0.13004 0.36373 0.0
H197 H 0.95016 0.1664 0.31796 0.0
H198 H 0.99063 0.82465 0.29611 0.0
H199 H 0.0217 0.89905 0.37433 0.0
H200 H 0.97695 0.08697 0.1799 0.0
H201 H 0.05802 0.10789 0.25594 0.0
H202 H 0.99337 0.15406 0.15923 0.0
H203 H 0.07321 0.1744 0.23387 0.0
H204 H 0.04174 0.96545 0.17003 0.0
H205 H 0.94915 0.91625 0.22818 0.0
H206 H 0.01129 0.9312 0.12471 0.0
H207 H 0.92064 0.88247 0.18192 0.0
H208 H 0.1846 0.97239 0.19876 0.0
H209 H 0.125 0.05994 0.14136 0.0
H210 H 0.82924 0.98782 0.20876 0.0
H211 H 0.90703 0.01532 0.13155 0.0
Li212 Li 0.9698 0.00755 0.77065 0.0
Li213 Li 0.04447 0.00486 0.77512 0.0
Li214 Li 0.00975 0.0402 0.73293 0.0
Li215 Li 0.00814 0.96908 0.7325 0.0
C216 C 0.99137 0.07032 0.80254 0.0
N217 N 0.95404 0.10484 0.85304 0.0
C218 C 1.00505 0.06246 0.83267 0.0
C219 C 0.95895 0.096 0.79806 0.0
C220 C 0.98575 0.08019 0.8579 0.0
C221 C 0.94038 0.11304 0.8239 0.0
C222 C 0.99765 0.92086 0.77999 0.0
C223 C 0.02163 0.85304 0.77814 0.0
N224 N 0.98321 0.83968 0.77848 0.0
C225 C 0.95841 0.90648 0.78034 0.0
C226 C 0.02956 0.89398 0.77893 0.0
C227 C 0.95174 0.86532 0.77959 0.0
C228 C 0.8864 0.01528 0.7797 0.0
N229 N 0.92159 0.00773 0.79444 0.0
C230 C 0.88753 0.99737 0.84271 0.0
C231 C 0.92282 0.99872 0.82531 0.0
C232 C 0.85095 0.00508 0.82796 0.0
C233 C 0.85049 0.01423 0.79616 0.0
H234 H 0.8861 0.02147 0.75506 0.0
H235 H 0.95116 0.99214 0.83631 0.0
C236 C 0.11383 0.03691 0.80219 0.0
N237 N 0.08906 1.00471 0.80259 0.0
C238 C 0.14676 0.03855 0.82213 0.0
C239 C 0.12763 0.97418 0.843 0.0
C240 C 0.09515 0.97369 0.82252 0.0
C241 C 0.15377 0.00692 0.84279 0.0
H242 H 0.10767 0.06156 0.78666 0.0
H243 H 0.07454 0.94882 0.82276 0.0
C244 C 0.94492 0.02331 0.70036 0.0
N245 N 0.90962 0.0605 0.64989 0.0
C246 C 0.94708 0.00601 0.67085 0.0
C247 C 0.92465 0.05944 0.7042 0.0
C248 C 0.92904 0.02528 0.64563 0.0
C249 C 0.90708 0.07782 0.67839 0.0
C250 C 0.07738 0.01674 0.70503 0.0
C251 C 0.07105 1.00118 0.67528 0.0
C252 C 0.10486 0.04775 0.70915 0.0
C253 C 0.09224 0.01705 0.65012 0.0
C254 C 0.12533 0.06291 0.68338 0.0
N255 N 0.11866 0.04737 0.65465 0.0
C256 C 0.0189 0.12326 0.7217 0.0
C257 C 0.01607 0.08472 0.67597 0.0
C258 C 0.02587 0.15792 0.7043 0.0
N259 N 0.01519 0.08737 0.70744 0.0
C260 C 0.0232 0.11846 0.65778 0.0
C261 C 0.03143 0.15583 0.67169 0.0
H262 H 0.01652 0.12507 0.74673 0.0
H263 H 0.01157 0.05629 0.66481 0.0
C264 C 0.97159 0.90607 0.70006 0.0
N265 N 0.00765 0.92125 0.70862 0.0
C266 C 0.96959 0.87226 0.68124 0.0
C267 C 0.04188 0.86935 0.68147 0.0
C268 C 0.04249 0.90326 0.70033 0.0
C269 C 1.00506 0.85405 0.6714 0.0
H270 H 0.9444 0.92076 0.70737 0.0
H271 H 0.0707 0.91575 0.70787 0.0
O272 O 0.0092 0.05248 0.77758 0.0
O273 O 1.00476 0.96106 0.77954 0.0
O274 O 0.96232 0.00483 0.72536 0.0
O275 O 0.05657 1.00192 0.72992 0.0
H276 H 0.03 0.04254 0.83658 0.0
H277 H 0.94804 0.10242 0.77489 0.0
H278 H 0.99587 0.07423 0.88136 0.0
H279 H 0.91506 0.13273 0.8208 0.0
H280 H 0.04601 0.83189 0.77707 0.0
H281 H 0.93335 0.92687 0.78079 0.0
H282 H 0.06009 0.90464 0.77811 0.0
H283 H 0.92152 0.85377 0.77973 0.0
H284 H 0.88865 0.98992 0.86722 0.0
H285 H 0.82256 0.01995 0.78416 0.0
H286 H 0.16625 0.06439 0.82178 0.0
H287 H 0.13219 0.94955 0.85898 0.0
H288 H 0.96295 0.9783 0.66732 0.0
H289 H 0.92289 0.07338 0.72681 0.0
H290 H 0.93064 0.01233 0.62265 0.0
H291 H 0.89151 0.10589 0.68101 0.0
H292 H 0.0494 0.97774 0.67146 0.0
H293 H 0.10996 0.06034 0.73192 0.0
H294 H 0.08741 0.00547 0.62695 0.0
H295 H 0.14645 0.0871 0.68621 0.0
H296 H 0.02587 0.18548 0.71701 0.0
H297 H 0.02176 0.1147 0.63286 0.0
H298 H 0.94076 0.86098 0.67382 0.0
H299 H 0.06971 0.85576 0.67421 0.0
C300 C 0.2221 0.00614 0.09454 0.0
C301 C 0.25848 0.02425 0.10409 0.0
C302 C 0.22957 0.0386 0.15525 0.0
C303 C 0.19427 0.01796 0.14638 0.0
N304 N 0.15963 0.97537 0.11011 0.0
N305 N 0.29963 0.05188 0.14472 0.0
C306 C 0.19136 0.9997 0.11675 0.0
C307 C 0.26305 0.03877 0.13485 0.0
N308 N 0.21627 0.99654 0.06396 0.0
N309 N 0.23055 0.05922 0.18265 0.0
H310 H 0.32468 0.05262 0.13029 0.0
H311 H 0.30601 0.05893 0.16777 0.0
H312 H 0.20672 0.05954 0.19828 0.0
H313 H 0.25367 0.07845 0.18884 0.0
H314 H 0.18879 0.98753 0.05499 0.0
H315 H 0.23796 1.00082 0.04685 0.0
H316 H 0.15799 0.95781 0.09021 0.0
H317 H 0.1365 0.9699 0.12583 0.0
C318 C 0.03742 0.216 0.59771 0.0
C319 C 0.02316 0.25331 0.60874 0.0
C320 C 0.03761 0.23182 0.66205 0.0
C321 C 0.04117 0.19197 0.65139 0.0
N322 N 0.07556 0.15695 0.61071 0.0
N323 N 0.01224 0.29815 0.65182 0.0
C324 C 0.05057 0.18702 0.61951 0.0
C325 C 0.02406 0.26174 0.64106 0.0
N326 N 0.03663 0.20733 0.56669 0.0
N327 N 0.05453 0.24249 0.68963 0.0
H328 H 1.00394 0.32154 0.63709 0.0
H329 H 0.00857 0.30406 0.67545 0.0
H330 H 0.07351 0.22301 0.70157 0.0
H331 H 0.05562 0.27186 0.69754 0.0
H332 H 0.04283 0.17894 0.55807 0.0
H333 H 0.02671 0.22744 0.54981 0.0
H334 H 0.0865 0.15394 0.58815 0.0
H335 H 0.08899 0.13817 0.6271 0.0
C336 C 0.76486 0.01728 0.12448 0.0
C337 C 0.76845 0.98859 0.10042 0.0
C338 C 0.83078 0.96429 0.12366 0.0
C339 C 0.82986 0.9962 0.14528 0.0
N340 N 0.79904 0.05698 0.16335 0.0
N341 N 0.80885 0.93979 0.07363 0.0
C342 C 0.79763 0.02377 0.14499 0.0
C343 C 0.8025 0.96337 0.09906 0.0
N344 N 0.72978 0.03759 0.12823 0.0
N345 N 0.85801 0.93419 0.12713 0.0
H346 H 0.78944 0.93885 0.05466 0.0
H347 H 0.83532 0.92412 0.06999 0.0
H348 H 0.87869 0.93338 0.14528 0.0
H349 H 0.85742 0.90816 0.11394 0.0
H350 H 0.72398 0.05588 0.14725 0.0
H351 H 0.70503 0.0333 0.11383 0.0
H352 H 0.77849 0.08024 0.16165 0.0
H353 H 0.8227 0.06303 0.17843 0.0
C354 C 0.98541 0.75106 0.63748 0.0
C355 C 0.99283 0.7585 0.6055 0.0
C356 C 0.00963 0.82817 0.61687 0.0
C357 C 1.00338 0.82049 0.64899 0.0
N358 N 0.99249 0.77381 0.69083 0.0
N359 N 0.01956 0.801 0.56523 0.0
C360 C 0.99349 0.78158 0.6596 0.0
C361 C 0.00741 0.79612 0.59538 0.0
N362 N 0.9694 0.71529 0.64649 0.0
N363 N 0.01589 0.86643 0.60676 0.0
H364 H 0.01782 0.77833 0.5487 0.0
H365 H 0.03446 0.82629 0.55719 0.0
H366 H 0.01821 0.89074 0.62175 0.0
H367 H 0.01585 0.87468 0.5834 0.0
H368 H 0.95897 0.7095 0.66885 0.0
H369 H 0.96429 0.69191 0.631 0.0
H370 H 0.98936 0.74529 0.70019 0.0
H371 H 0.99798 0.79564 0.70758 0.0
C372 C 0.25935 1.0012 0.87601 0.0
C373 C 0.25261 0.01492 0.90674 0.0
C374 C 0.18144 0.02476 0.89516 0.0
C375 C 0.18772 0.00888 0.86501 0.0
N376 N 0.2307 0.97693 0.82767 0.0
N377 N 0.20697 0.03399 0.94748 0.0
C378 C 0.22617 0.9956 0.85569 0.0
C379 C 0.21352 0.02505 0.91687 0.0
N380 N 0.29759 0.99458 0.86607 0.0
N381 N 0.14504 0.0406 0.90272 0.0
H382 H 0.2298 0.03527 0.964 0.0
H383 H 0.17863 0.03719 0.95714 0.0
H384 H 0.12048 0.03998 0.88776 0.0
H385 H 0.1398 0.05689 0.92289 0.0
H386 H 0.3051 0.9888 0.84303 0.0
H387 H 0.32244 0.9975 0.88058 0.0
H388 H 0.25689 0.9627 0.82082 0.0
H389 H 0.20721 0.97311 0.81197 0.0
C390 C 0.99084 0.20798 0.41987 0.0
C391 C 0.99151 0.24828 0.4096 0.0
C392 C 1.00512 0.22599 0.35636 0.0
C393 C 0.9999 0.18579 0.36611 0.0
N394 N 0.98026 0.13884 0.40599 0.0
N395 N 0.99364 0.29599 0.36755 0.0
C396 C 0.99068 0.17685 0.39757 0.0
C397 C 0.99716 0.25745 0.37767 0.0
N398 N 0.99163 0.19941 0.45098 0.0
N399 N 0.01887 0.23406 0.32708 0.0
H400 H 0.98795 0.31978 0.3825 0.0
H401 H 0.99313 0.30398 0.34412 0.0
H402 H 0.0252 0.21179 0.31091 0.0
H403 H 0.02726 0.26249 0.31971 0.0
H404 H 0.99544 0.17063 0.45973 0.0
H405 H 0.99242 0.22137 0.46813 0.0
H406 H 0.96909 0.13152 0.42788 0.0
H407 H 0.97911 0.1152 0.39027 0.0
C408 C 0.75593 0.96293 0.86425 0.0
C409 C 0.74255 0.99662 0.88124 0.0
C410 C 0.79434 0.03736 0.85674 0.0
C411 C 0.81277 1.00225 0.84533 0.0
N412 N 0.80997 0.93125 0.83601 0.0
N413 N 0.73033 0.06563 0.86885 0.0
C414 C 0.79292 0.96491 0.84801 0.0
C415 C 0.7563 0.03448 0.87105 0.0
N416 N 0.73136 0.93057 0.86157 0.0
N417 N 0.81288 0.07351 0.85393 0.0
H418 H 0.69953 0.06094 0.87021 0.0
H419 H 0.73828 0.09333 0.85962 0.0
H420 H 0.84054 0.07711 0.84305 0.0
H421 H 0.80184 0.09923 0.8645 0.0
H422 H 0.73744 0.90621 0.84735 0.0
H423 H 0.70263 0.93055 0.87109 0.0
H424 H 0.79915 0.90262 0.84035 0.0
H425 H 0.83646 0.93174 0.82321 0.0
C426 C 0.96623 0.79559 0.40551 0.0
C427 C 0.98883 0.75995 0.40258 0.0
C428 C 0.02518 0.78925 0.35851 0.0
C429 C 0.99959 0.82305 0.3595 0.0
N430 N 0.93965 0.85381 0.37946 0.0
N431 N 0.03498 0.71991 0.373 0.0
C432 C 0.96828 0.82486 0.38169 0.0
C433 C 0.01696 0.75589 0.37809 0.0
N434 N 0.94407 0.80238 0.43168 0.0
N435 N 0.05817 0.7896 0.33979 0.0
H436 H 0.0294 0.69479 0.38672 0.0
H437 H 0.05261 0.71403 0.35359 0.0
H438 H 0.0655 0.81367 0.32545 0.0
H439 H 0.08014 0.76759 0.34052 0.0
H440 H 0.93044 0.82967 0.43635 0.0
H441 H 0.94263 0.78234 0.45025 0.0
H442 H 0.91395 0.85407 0.39314 0.0
H443 H 0.93944 0.87517 0.3618 0.0
loop_
_geom_bond_atom_site_label_1
_geom_bond_atom_site_label_2
_geom_bond_distance
_geom_bond_site_symmetry_2
_ccdc_geom_bond_type
H0 C27 0.929 . S
N1 C26 1.433 1_556 S
N1 C32 1.435 . S
N1 C38 1.423 . S
H2 C28 0.930 . S
H3 C31 0.931 . S
H4 C30 0.929 . S
H5 C33 0.930 . S
H6 C34 0.932 . S
H7 C37 0.929 . S
H8 C36 0.931 . S
H9 C39 0.929 . S
H10 C43 0.932 1_565 S
H11 C40 0.931 . S
H12 C42 0.929 1_565 S
H13 C45 0.929 . S
H14 C46 0.930 . S
H15 C48 0.929 . S
H16 C49 0.931 . S
H17 C51 0.930 . S
H18 C52 0.932 . S
H19 C54 0.931 . S
H20 C55 0.929 . S
H21 C57 0.929 . S
H22 C58 0.931 . S
H23 C60 0.929 1_565 S
N24 C44 1.433 1_556 S
N24 C50 1.435 . S
N24 C56 1.423 . S
H25 C61 0.932 1_565 S
C26 N1 1.433 1_554 S
C26 C27 1.363 . S
C26 C31 1.370 1_545 S
C27 H0 0.929 . S
C27 C26 1.363 . S
C27 C28 1.385 . S
C28 H2 0.930 . S
C28 C27 1.385 . S
C28 C29 1.357 . S
C29 C28 1.357 . S
C29 C30 1.406 1_545 S
C30 H4 0.929 . S
C30 C29 1.406 1_565 S
C30 C31 1.391 . S
C31 H3 0.931 . S
C31 C26 1.370 1_565 S
C31 C30 1.391 . S
C32 N1 1.435 . S
C32 C33 1.358 1_545 S
C32 C37 1.371 . S
C33 H5 0.930 . S
C33 C32 1.358 1_565 S
C33 C34 1.405 . S
C34 H6 0.932 . S
C34 C33 1.405 . S
C34 C35 1.383 1_565 S
C35 C34 1.383 1_545 S
C35 C36 1.393 . S
C36 H8 0.931 . S
C36 C35 1.393 . S
C36 C37 1.382 . S
C37 H7 0.929 . S
C37 C32 1.371 . S
C37 C36 1.382 . S
C38 N1 1.423 . S
C38 C39 1.362 1_556 S
C38 C43 1.388 . S
C39 H9 0.929 . S
C39 C38 1.362 1_554 S
C39 C40 1.376 . S
C40 H11 0.931 . S
C40 C39 1.376 . S
C40 C41 1.396 1_554 S
C41 C40 1.396 1_556 S
C41 C42 1.348 . S
C41 C59 1.472 . S
C42 H12 0.929 1_545 S
C42 C41 1.348 . S
C42 C43 1.443 . S
C43 H10 0.932 1_545 S
C43 C38 1.388 . S
C43 C42 1.443 . S
C44 N24 1.433 1_554 S
C44 C45 1.363 . S
C44 C49 1.370 1_545 S
C45 H13 0.929 . S
C45 C44 1.363 . S
C45 C46 1.385 . S
C46 H14 0.930 . S
C46 C45 1.385 . S
C46 C47 1.357 . S
C47 C46 1.357 . S
C47 C48 1.406 1_545 S
C48 H15 0.929 . S
C48 C47 1.406 1_565 S
C48 C49 1.391 . S
C49 H16 0.931 . S
C49 C44 1.370 1_565 S
C49 C48 1.391 . S
C50 N24 1.435 . S
C50 C51 1.358 1_545 S
C50 C55 1.371 . S
C51 H17 0.930 . S
C51 C50 1.358 1_565 S
C51 C52 1.405 . S
C52 H18 0.932 . S
C52 C51 1.405 . S
C52 C53 1.383 1_565 S
C53 C52 1.383 1_545 S
C53 C54 1.393 . S
C54 H19 0.931 . S
C54 C53 1.393 . S
C54 C55 1.382 . S
C55 H20 0.929 . S
C55 C50 1.371 . S
C55 C54 1.382 . S
C56 N24 1.423 . S
C56 C57 1.362 1_556 S
C56 C61 1.388 . S
C57 H21 0.929 . S
C57 C56 1.362 1_554 S
C57 C58 1.376 . S
C58 H22 0.931 . S
C58 C57 1.376 . S
C58 C59 1.396 1_554 S
C59 C41 1.472 . S
C59 C58 1.396 1_556 S
C59 C60 1.348 . S
C60 H23 0.929 1_545 S
C60 C59 1.348 . S
C60 C61 1.443 . S
C61 H25 0.932 1_545 S
C61 C56 1.388 . S
C61 C60 1.443 . S
H62 C89 0.929 . S
N63 C88 1.433 . S
N63 C94 1.435 . S
N63 C100 1.423 . S
H64 C90 0.930 . S
H65 C93 0.931 . S
H66 C92 0.929 . S
H67 C95 0.930 . S
H68 C96 0.932 . S
H69 C99 0.929 . S
H70 C98 0.931 . S
H71 C101 0.929 . S
H72 C105 0.932 1_455 S
H73 C102 0.931 . S
H74 C104 0.929 1_455 S
H75 C107 0.929 . S
H76 C108 0.930 . S
H77 C110 0.929 . S
H78 C111 0.931 . S
H79 C113 0.930 . S
H80 C114 0.932 . S
H81 C116 0.931 . S
H82 C117 0.929 . S
H83 C119 0.929 . S
H84 C120 0.931 . S
H85 C122 0.929 1_455 S
N86 C106 1.433 . S
N86 C112 1.435 . S
N86 C118 1.423 . S
H87 C123 0.932 1_455 S
C88 N63 1.433 . S
C88 C89 1.363 . S
C88 C93 1.370 1_655 S
C89 H62 0.929 . S
C89 C88 1.363 . S
C89 C90 1.385 . S
C90 H64 0.930 . S
C90 C89 1.385 . S
C90 C91 1.357 . S
C91 C90 1.357 . S
C91 C92 1.406 1_655 S
C92 H66 0.929 . S
C92 C91 1.406 1_455 S
C92 C93 1.391 . S
C93 H65 0.931 . S
C93 C88 1.370 1_455 S
C93 C92 1.391 . S
C94 N63 1.435 . S
C94 C95 1.358 1_655 S
C94 C99 1.371 . S
C95 H67 0.930 . S
C95 C94 1.358 1_455 S
C95 C96 1.405 . S
C96 H68 0.932 . S
C96 C95 1.405 . S
C96 C97 1.383 1_455 S
C97 C96 1.383 1_655 S
C97 C98 1.393 . S
C98 H70 0.931 . S
C98 C97 1.393 . S
C98 C99 1.382 . S
C99 H69 0.929 . S
C99 C94 1.371 . S
C99 C98 1.382 . S
C100 N63 1.423 . S
C100 C101 1.362 . S
C100 C105 1.388 . S
C101 H71 0.929 . S
C101 C100 1.362 . S
C101 C102 1.376 . S
C102 H73 0.931 . S
C102 C101 1.376 . S
C102 C103 1.396 . S
C103 C102 1.396 . S
C103 C104 1.348 . S
C103 C121 1.472 . S
C104 H74 0.929 1_655 S
C104 C103 1.348 . S
C104 C105 1.443 . S
C105 H72 0.932 1_655 S
C105 C100 1.388 . S
C105 C104 1.443 . S
C106 N86 1.433 . S
C106 C107 1.363 . S
C106 C111 1.370 1_655 S
C107 H75 0.929 . S
C107 C106 1.363 . S
C107 C108 1.385 . S
C108 H76 0.930 . S
C108 C107 1.385 . S
C108 C109 1.357 . S
C109 C108 1.357 . S
C109 C110 1.406 1_655 S
C110 H77 0.929 . S
C110 C109 1.406 1_455 S
C110 C111 1.391 . S
C111 H78 0.931 . S
C111 C106 1.370 1_455 S
C111 C110 1.391 . S
C112 N86 1.435 . S
C112 C113 1.358 1_655 S
C112 C117 1.371 . S
C113 H79 0.930 . S
C113 C112 1.358 1_455 S
C113 C114 1.405 . S
C114 H80 0.932 . S
C114 C113 1.405 . S
C114 C115 1.383 1_455 S
C115 C114 1.383 1_655 S
C115 C116 1.393 . S
C116 H81 0.931 . S
C116 C115 1.393 . S
C116 C117 1.382 . S
C117 H82 0.929 . S
C117 C112 1.371 . S
C117 C116 1.382 . S
C118 N86 1.423 . S
C118 C119 1.362 . S
C118 C123 1.388 . S
C119 H83 0.929 . S
C119 C118 1.362 . S
C119 C120 1.376 . S
C120 H84 0.931 . S
C120 C119 1.376 . S
C120 C121 1.396 . S
C121 C103 1.472 . S
C121 C120 1.396 . S
C121 C122 1.348 . S
C122 H85 0.929 1_655 S
C122 C121 1.348 . S
C122 C123 1.443 . S
C123 H87 0.932 1_655 S
C123 C118 1.388 . S
C123 C122 1.443 . S
Li124 N141 1.990 . S
Li124 O184 1.956 1_545 S
Li124 O185 1.970 1_455 S
Li124 O186 1.961 1_455 S
Li125 N149 1.990 . S
Li125 O184 1.970 1_655 S
Li125 O185 1.956 1_565 S
Li125 O187 1.961 1_655 S
Li126 N171 1.990 . S
Li126 O184 1.961 1_545 S
Li126 O186 1.956 1_455 S
Li126 O187 1.970 1_545 S
Li127 N177 1.990 . S
Li127 O185 1.961 1_565 S
Li127 O186 1.970 1_565 S
Li127 O187 1.956 1_655 S
C128 C130 1.348 1_545 S
C128 C131 1.356 . S
C128 O184 1.325 1_545 S
N129 C132 1.314 1_545 S
N129 C133 1.279 . S
C130 C128 1.348 1_565 S
C130 C132 1.353 . S
C130 H188 0.929 . S
C131 C128 1.356 . S
C131 C133 1.358 . S
C131 H189 0.930 . S
C132 N129 1.314 1_565 S
C132 C130 1.353 . S
C132 H190 0.930 . S
C133 N129 1.279 . S
C133 C131 1.358 . S
C133 H191 0.930 . S
C134 C137 1.348 . S
C134 C138 1.356 1_545 S
C134 O185 1.325 . S
C135 N136 1.279 . S
C135 C138 1.358 . S
C135 H192 0.930 . S
N136 C135 1.279 . S
N136 C139 1.314 1_565 S
C137 C134 1.348 . S
C137 C139 1.353 . S
C137 H193 0.929 . S
C138 C134 1.356 1_565 S
C138 C135 1.358 . S
C138 H194 0.930 . S
C139 N136 1.314 1_545 S
C139 C137 1.353 . S
C139 H195 0.930 . S
C140 N141 1.314 1_655 S
C140 C145 1.353 . S
C140 H146 0.930 . S
N141 Li124 1.990 . S
N141 C140 1.314 1_455 S
N141 C143 1.279 . S
C142 C143 1.358 . S
C142 C144 1.356 . S
C142 H196 0.930 . S
C143 N141 1.279 . S
C143 C142 1.358 . S
C143 H147 0.930 . S
C144 C142 1.356 . S
C144 C145 1.348 1_455 S
C145 C140 1.353 . S
C145 C144 1.348 1_655 S
C145 H197 0.929 . S
H146 C140 0.930 . S
H147 C143 0.930 . S
C148 N149 1.314 1_455 S
C148 C150 1.353 . S
C148 H154 0.930 . S
N149 Li125 1.990 . S
N149 C148 1.314 1_655 S
N149 C152 1.279 . S
C150 C148 1.353 . S
C150 C153 1.348 . S
C150 H198 0.929 . S
C151 C152 1.358 . S
C151 C153 1.356 1_655 S
C151 H199 0.930 . S
C152 N149 1.279 . S
C152 C151 1.358 . S
C152 H155 0.930 . S
C153 C150 1.348 . S
C153 C151 1.356 1_455 S
H154 C148 0.930 . S
H155 C152 0.930 . S
C156 C158 1.348 1_455 S
C156 C159 1.356 . S
C156 O186 1.325 1_455 S
N157 C160 1.314 1_455 S
N157 C161 1.279 . S
C158 C156 1.348 1_655 S
C158 C160 1.353 . S
C158 H200 0.929 . S
C159 C156 1.356 . S
C159 C161 1.358 . S
C159 H201 0.930 . S
C160 N157 1.314 1_655 S
C160 C158 1.353 . S
C160 H202 0.930 . S
C161 N157 1.279 . S
C161 C159 1.358 . S
C161 H203 0.930 . S
C162 C163 1.348 . S
C162 C164 1.356 1_455 S
C162 O187 1.325 . S
C163 C162 1.348 . S
C163 C165 1.353 . S
C163 H204 0.929 . S
C164 C162 1.356 1_655 S
C164 C166 1.358 . S
C164 H205 0.930 . S
C165 C163 1.353 . S
C165 N167 1.314 1_455 S
C165 H206 0.930 . S
C166 C164 1.358 . S
C166 N167 1.279 . S
C166 H207 0.930 . S
N167 C165 1.314 1_655 S
N167 C166 1.279 . S
C168 C170 1.353 . S
C168 N171 1.314 1_565 S
C168 H174 0.930 . S
C169 N171 1.279 . S
C169 C172 1.358 . S
C169 H175 0.930 . S
C170 C168 1.353 . S
C170 C173 1.348 1_565 S
C170 H208 0.929 . S
N171 Li126 1.990 . S
N171 C168 1.314 1_545 S
N171 C169 1.279 . S
C172 C169 1.358 . S
C172 C173 1.356 . S
C172 H209 0.930 . S
C173 C170 1.348 1_545 S
C173 C172 1.356 . S
H174 C168 0.930 . S
H175 C169 0.930 . S
C176 N177 1.314 1_545 S
C176 C178 1.353 . S
C176 H182 0.930 . S
N177 Li127 1.990 . S
N177 C176 1.314 1_565 S
N177 C180 1.279 . S
C178 C176 1.353 . S
C178 C181 1.348 . S
C178 H210 0.929 . S
C179 C180 1.358 . S
C179 C181 1.356 1_565 S
C179 H211 0.930 . S
C180 N177 1.279 . S
C180 C179 1.358 . S
C180 H183 0.930 . S
C181 C178 1.348 . S
C181 C179 1.356 1_545 S
H182 C176 0.930 . S
H183 C180 0.930 . S
O184 Li124 1.956 1_565 S
O184 Li125 1.970 1_455 S
O184 Li126 1.961 1_565 S
O184 C128 1.325 1_565 S
O185 Li124 1.970 1_655 S
O185 Li125 1.956 1_545 S
O185 Li127 1.961 1_545 S
O185 C134 1.325 . S
O186 Li124 1.961 1_655 S
O186 Li126 1.956 1_655 S
O186 Li127 1.970 1_545 S
O186 C156 1.325 1_655 S
O187 Li125 1.961 1_455 S
O187 Li126 1.970 1_565 S
O187 Li127 1.956 1_455 S
O187 C162 1.325 . S
H188 C130 0.929 . S
H189 C131 0.930 . S
H190 C132 0.930 . S
H191 C133 0.930 . S
H192 C135 0.930 . S
H193 C137 0.929 . S
H194 C138 0.930 . S
H195 C139 0.930 . S
H196 C142 0.930 . S
H197 C145 0.929 . S
H198 C150 0.929 . S
H199 C151 0.930 . S
H200 C158 0.929 . S
H201 C159 0.930 . S
H202 C160 0.930 . S
H203 C161 0.930 . S
H204 C163 0.929 . S
H205 C164 0.930 . S
H206 C165 0.930 . S
H207 C166 0.930 . S
H208 C170 0.929 . S
H209 C172 0.930 . S
H210 C178 0.929 . S
H211 C179 0.930 . S
Li212 N229 1.990 . S
Li212 O272 1.956 1_655 S
Li212 O273 1.970 1_545 S
Li212 O274 1.961 1_545 S
Li213 N237 1.990 . S
Li213 O272 1.970 1_565 S
Li213 O273 1.956 1_455 S
Li213 O275 1.961 1_565 S
Li214 N259 1.990 . S
Li214 O272 1.961 1_655 S
Li214 O274 1.956 1_545 S
Li214 O275 1.970 1_655 S
Li215 N265 1.990 . S
Li215 O273 1.961 1_455 S
Li215 O274 1.970 1_455 S
Li215 O275 1.956 1_565 S
C216 C218 1.348 . S
C216 C219 1.356 1_455 S
C216 O272 1.325 . S
N217 C220 1.314 1_655 S
N217 C221 1.279 . S
C218 C216 1.348 . S
C218 C220 1.353 . S
C218 H276 0.929 . S
C219 C216 1.356 1_655 S
C219 C221 1.358 . S
C219 H277 0.930 . S
C220 N217 1.314 1_455 S
C220 C218 1.353 . S
C220 H278 0.930 . S
C221 N217 1.279 . S
C221 C219 1.358 . S
C221 H279 0.930 . S
C222 C225 1.348 1_455 S
C222 C226 1.356 . S
C222 O273 1.325 1_455 S
C223 N224 1.279 . S
C223 C226 1.358 . S
C223 H280 0.930 . S
N224 C223 1.279 . S
N224 C227 1.314 1_455 S
C225 C222 1.348 1_655 S
C225 C227 1.353 . S
C225 H281 0.929 . S
C226 C222 1.356 . S
C226 C223 1.358 . S
C226 H282 0.930 . S
C227 N224 1.314 1_655 S
C227 C225 1.353 . S
C227 H283 0.930 . S
C228 N229 1.314 1_565 S
C228 C233 1.353 . S
C228 H234 0.930 . S
N229 Li212 1.990 . S
N229 C228 1.314 1_545 S
N229 C231 1.279 . S
C230 C231 1.358 . S
C230 C232 1.356 . S
C230 H284 0.930 . S
C231 N229 1.279 . S
C231 C230 1.358 . S
C231 H235 0.930 . S
C232 C230 1.356 . S
C232 C233 1.348 1_545 S
C233 C228 1.353 . S
C233 C232 1.348 1_565 S
C233 H285 0.929 . S
H234 C228 0.930 . S
H235 C231 0.930 . S
C236 N237 1.314 1_545 S
C236 C238 1.353 . S
C236 H242 0.930 . S
N237 Li213 1.990 . S
N237 C236 1.314 1_565 S
N237 C240 1.279 . S
C238 C236 1.353 . S
C238 C241 1.348 . S
C238 H286 0.929 . S
C239 C240 1.358 . S
C239 C241 1.356 1_565 S
C239 H287 0.930 . S
C240 N237 1.279 . S
C240 C239 1.358 . S
C240 H243 0.930 . S
C241 C238 1.348 . S
C241 C239 1.356 1_545 S
H242 C236 0.930 . S
H243 C240 0.930 . S
C244 C246 1.348 1_545 S
C244 C247 1.356 . S
C244 O274 1.325 1_545 S
N245 C248 1.314 1_545 S
N245 C249 1.279 . S
C246 C244 1.348 1_565 S
C246 C248 1.353 . S
C246 H288 0.929 . S
C247 C244 1.356 . S
C247 C249 1.358 . S
C247 H289 0.930 . S
C248 N245 1.314 1_565 S
C248 C246 1.353 . S
C248 H290 0.930 . S
C249 N245 1.279 . S
C249 C247 1.358 . S
C249 H291 0.930 . S
C250 C251 1.348 . S
C250 C252 1.356 1_545 S
C250 O275 1.325 . S
C251 C250 1.348 . S
C251 C253 1.353 . S
C251 H292 0.929 . S
C252 C250 1.356 1_565 S
C252 C254 1.358 . S
C252 H293 0.930 . S
C253 C251 1.353 . S
C253 N255 1.314 1_545 S
C253 H294 0.930 . S
C254 C252 1.358 . S
C254 N255 1.279 . S
C254 H295 0.930 . S
N255 C253 1.314 1_565 S
N255 C254 1.279 . S
C256 C258 1.353 . S
C256 N259 1.314 1_455 S
C256 H262 0.930 . S
C257 N259 1.279 . S
C257 C260 1.358 . S
C257 H263 0.930 . S
C258 C256 1.353 . S
C258 C261 1.348 . S
C258 H296 0.929 . S
N259 Li214 1.990 . S
N259 C256 1.314 1_655 S
N259 C257 1.279 . S
C260 C257 1.358 . S
C260 C261 1.356 1_655 S
C260 H297 0.930 . S
C261 C258 1.348 . S
C261 C260 1.356 1_455 S
H262 C256 0.930 . S
H263 C257 0.930 . S
C264 N265 1.314 1_655 S
C264 C266 1.353 . S
C264 H270 0.930 . S
N265 Li215 1.990 . S
N265 C264 1.314 1_455 S
N265 C268 1.279 . S
C266 C264 1.353 . S
C266 C269 1.348 1_655 S
C266 H298 0.929 . S
C267 C268 1.358 . S
C267 C269 1.356 . S
C267 H299 0.930 . S
C268 N265 1.279 . S
C268 C267 1.358 . S
C268 H271 0.930 . S
C269 C266 1.348 1_455 S
C269 C267 1.356 . S
H270 C264 0.930 . S
H271 C268 0.930 . S
O272 Li212 1.956 1_455 S
O272 Li213 1.970 1_545 S
O272 Li214 1.961 1_455 S
O272 C216 1.325 . S
O273 Li212 1.970 1_565 S
O273 Li213 1.956 1_655 S
O273 Li215 1.961 1_655 S
O273 C222 1.325 1_655 S
O274 Li212 1.961 1_565 S
O274 Li214 1.956 1_565 S
O274 Li215 1.970 1_655 S
O274 C244 1.325 1_565 S
O275 Li213 1.961 1_545 S
O275 Li214 1.970 1_455 S
O275 Li215 1.956 1_545 S
O275 C250 1.325 . S
H276 C218 0.929 . S
H277 C219 0.930 . S
H278 C220 0.930 . S
H279 C221 0.930 . S
H280 C223 0.930 . S
H281 C225 0.929 . S
H282 C226 0.930 . S
H283 C227 0.930 . S
H284 C230 0.930 . S
H285 C233 0.929 . S
H286 C238 0.929 . S
H287 C239 0.930 . S
H288 C246 0.929 . S
H289 C247 0.930 . S
H290 C248 0.930 . S
H291 C249 0.930 . S
H292 C251 0.929 . S
H293 C252 0.930 . S
H294 C253 0.930 . S
H295 C254 0.930 . S
H296 C258 0.929 . S
H297 C260 0.930 . S
H298 C266 0.929 . S
H299 C267 0.930 . S
C300 C301 1.363 . S
C300 C306 1.379 . S
C300 N308 1.356 . S
C301 C300 1.363 . S
C301 C307 1.363 1_565 S
C302 C303 1.351 1_545 S
C302 C307 1.379 . S
C302 N309 1.356 . S
C303 C302 1.351 1_565 S
C303 C306 1.375 . S
N304 C306 1.356 . S
N304 H316 0.984 . S
N304 H317 0.985 . S
N305 C307 1.356 . S
N305 H310 0.984 . S
N305 H311 0.985 . S
C306 C300 1.379 . S
C306 C303 1.375 . S
C306 N304 1.356 . S
C307 C301 1.363 1_545 S
C307 C302 1.379 . S
C307 N305 1.356 . S
N308 C300 1.356 . S
N308 H314 0.984 . S
N308 H315 0.984 . S
N309 C302 1.356 . S
N309 H312 0.984 . S
N309 H313 0.985 . S
H310 N305 0.984 . S
H311 N305 0.985 . S
H312 N309 0.984 . S
H313 N309 0.985 . S
H314 N308 0.984 . S
H315 N308 0.984 . S
H316 N304 0.984 . S
H317 N304 0.985 . S
C318 C319 1.360 1_655 S
C318 C324 1.379 . S
C318 N326 1.356 . S
C319 C318 1.360 1_455 S
C319 C325 1.366 . S
C320 C321 1.376 . S
C320 C325 1.379 . S
C320 N327 1.356 . S
C321 C320 1.376 . S
C321 C324 1.350 1_455 S
N322 C324 1.356 . S
N322 H334 0.984 . S
N322 H335 0.985 . S
N323 C325 1.356 . S
N323 H328 0.984 . S
N323 H329 0.985 . S
C324 C318 1.379 . S
C324 C321 1.350 1_655 S
C324 N322 1.356 . S
C325 C319 1.366 . S
C325 C320 1.379 . S
C325 N323 1.356 . S
N326 C318 1.356 . S
N326 H332 0.984 . S
N326 H333 0.984 . S
N327 C320 1.356 . S
N327 H330 0.984 . S
N327 H331 0.985 . S
H328 N323 0.984 . S
H329 N323 0.985 . S
H330 N327 0.984 . S
H331 N327 0.985 . S
H332 N326 0.984 . S
H333 N326 0.984 . S
H334 N322 0.984 . S
H335 N322 0.985 . S
C336 C337 1.367 . S
C336 C342 1.379 . S
C336 N344 1.356 . S
C337 C336 1.367 . S
C337 C343 1.359 1_545 S
C338 C339 1.347 1_565 S
C338 C343 1.379 . S
C338 N345 1.356 . S
C339 C338 1.347 1_545 S
C339 C342 1.379 . S
N340 C342 1.356 . S
N340 H352 0.984 . S
N340 H353 0.985 . S
N341 C343 1.356 . S
N341 H346 0.984 . S
N341 H347 0.985 . S
C342 C336 1.379 . S
C342 C339 1.379 . S
C342 N340 1.356 . S
C343 C337 1.359 1_565 S
C343 C338 1.379 . S
C343 N341 1.356 . S
N344 C336 1.356 . S
N344 H350 0.984 . S
N344 H351 0.984 . S
N345 C338 1.356 . S
N345 H348 0.984 . S
N345 H349 0.985 . S
H346 N341 0.984 . S
H347 N341 0.985 . S
H348 N345 0.984 . S
H349 N345 0.985 . S
H350 N344 0.984 . S
H351 N344 0.984 . S
H352 N340 0.984 . S
H353 N340 0.985 . S
C354 C355 1.363 . S
C354 C360 1.379 . S
C354 N362 1.356 . S
C355 C354 1.363 . S
C355 C361 1.363 1_655 S
C356 C357 1.356 1_455 S
C356 C361 1.379 . S
C356 N363 1.356 . S
C357 C356 1.356 1_655 S
C357 C360 1.370 . S
N358 C360 1.356 . S
N358 H370 0.984 . S
N358 H371 0.985 . S
N359 C361 1.356 . S
N359 H364 0.984 . S
N359 H365 0.985 . S
C360 C354 1.379 . S
C360 C357 1.370 . S
C360 N358 1.356 . S
C361 C355 1.363 1_455 S
C361 C356 1.379 . S
C361 N359 1.356 . S
N362 C354 1.356 . S
N362 H368 0.984 . S
N362 H369 0.984 . S
N363 C356 1.356 . S
N363 H366 0.984 . S
N363 H367 0.985 . S
H364 N359 0.984 . S
H365 N359 0.985 . S
H366 N363 0.984 . S
H367 N363 0.985 . S
H368 N362 0.984 . S
H369 N362 0.984 . S
H370 N358 0.984 . S
H371 N358 0.985 . S
C372 C373 1.360 1_565 S
C372 C378 1.379 . S
C372 N380 1.356 . S
C373 C372 1.360 1_545 S
C373 C379 1.366 . S
C374 C375 1.381 . S
C374 C379 1.379 . S
C374 N381 1.356 . S
C375 C374 1.381 . S
C375 C378 1.345 1_545 S
N376 C378 1.356 . S
N376 H388 0.984 . S
N376 H389 0.985 . S
N377 C379 1.356 . S
N377 H382 0.984 . S
N377 H383 0.985 . S
C378 C372 1.379 . S
C378 C375 1.345 1_565 S
C378 N376 1.356 . S
C379 C373 1.366 . S
C379 C374 1.379 . S
C379 N377 1.356 . S
N380 C372 1.356 . S
N380 H386 0.984 . S
N380 H387 0.984 . S
N381 C374 1.356 . S
N381 H384 0.984 . S
N381 H385 0.985 . S
H382 N377 0.984 . S
H383 N377 0.985 . S
H384 N381 0.984 . S
H385 N381 0.985 . S
H386 N380 0.984 . S
H387 N380 0.984 . S
H388 N376 0.984 . S
H389 N376 0.985 . S
C390 C391 1.362 . S
C390 C396 1.379 . S
C390 N398 1.356 . S
C391 C390 1.362 . S
C391 C397 1.364 1_655 S
C392 C393 1.358 1_455 S
C392 C397 1.379 . S
C392 N399 1.356 . S
C393 C392 1.358 1_655 S
C393 C396 1.368 . S
N394 C396 1.356 . S
N394 H406 0.984 . S
N394 H407 0.985 . S
N395 C397 1.356 . S
N395 H400 0.984 . S
N395 H401 0.985 . S
C396 C390 1.379 . S
C396 C393 1.368 . S
C396 N394 1.356 . S
C397 C391 1.364 1_455 S
C397 C392 1.379 . S
C397 N395 1.356 . S
N398 C390 1.356 . S
N398 H404 0.984 . S
N398 H405 0.984 . S
N399 C392 1.356 . S
N399 H402 0.984 . S
N399 H403 0.985 . S
H400 N395 0.984 . S
H401 N395 0.985 . S
H402 N399 0.984 . S
H403 N399 0.985 . S
H404 N398 0.984 . S
H405 N398 0.984 . S
H406 N394 0.984 . S
H407 N394 0.985 . S
C408 C409 1.362 . S
C408 C414 1.379 . S
C408 N416 1.356 . S
C409 C408 1.362 . S
C409 C415 1.364 1_565 S
C410 C411 1.350 1_545 S
C410 C415 1.379 . S
C410 N417 1.356 . S
C411 C410 1.350 1_565 S
C411 C414 1.376 . S
N412 C414 1.356 . S
N412 H424 0.984 . S
N412 H425 0.985 . S
N413 C415 1.356 . S
N413 H418 0.984 . S
N413 H419 0.985 . S
C414 C408 1.379 . S
C414 C411 1.376 . S
C414 N412 1.356 . S
C415 C409 1.364 1_545 S
C415 C410 1.379 . S
C415 N413 1.356 . S
N416 C408 1.356 . S
N416 H422 0.984 . S
N416 H423 0.984 . S
N417 C410 1.356 . S
N417 H420 0.984 . S
N417 H421 0.985 . S
H418 N413 0.984 . S
H419 N413 0.985 . S
H420 N417 0.984 . S
H421 N417 0.985 . S
H422 N416 0.984 . S
H423 N416 0.984 . S
H424 N412 0.984 . S
H425 N412 0.985 . S
C426 C427 1.359 1_655 S
C426 C432 1.379 . S
C426 N434 1.356 . S
C427 C426 1.359 1_455 S
C427 C433 1.367 . S
C428 C429 1.383 . S
C428 C433 1.379 . S
C428 N435 1.356 . S
C429 C428 1.383 . S
C429 C432 1.343 1_455 S
N430 C432 1.356 . S
N430 H442 0.984 . S
N430 H443 0.985 . S
N431 C433 1.356 . S
N431 H436 0.984 . S
N431 H437 0.985 . S
C432 C426 1.379 . S
C432 C429 1.343 1_655 S
C432 N430 1.356 . S
C433 C427 1.367 . S
C433 C428 1.379 . S
C433 N431 1.356 . S
N434 C426 1.356 . S
N434 H440 0.984 . S
N434 H441 0.984 . S
N435 C428 1.356 . S
N435 H438 0.984 . S
N435 H439 0.985 . S
H436 N431 0.984 . S
H437 N431 0.985 . S
H438 N435 0.984 . S
H439 N435 0.985 . S
H440 N434 0.984 . S
H441 N434 0.984 . S
H442 N430 0.984 . S
H443 N430 0.985 . S
C303 C173 1.749 1_565 S
C301 C47 1.604 1_565 S
C321 C261 1.749 . S
C319 C109 1.603 1_455 S
C339 C181 1.749 . S
C337 C29 1.608 . S
C357 C269 1.749 1_655 S
C355 C91 1.607 . S
C375 C241 1.393 . S
C373 C53 1.383 . S
C393 C144 1.392 1_655 S
C391 C115 1.383 . S
C411 C232 1.393 1_565 S
C409 C35 1.388 1_565 S
C427 C97 1.385 1_455 S
C429 C153 1.395 . S
