# Generated by pormake.
# Topology zzz, (3,6)-cn, num edge types: 1
# Building blocks:
#     Node 0, Type 0, BuildingBlock: ESEHIV_clean_linker_0, # of connection points: 3
#     Node 1, Type 0, BuildingBlock: ESEHIV_clean_linker_0, # of connection points: 3
#     Node 2, Type 0, BuildingBlock: ESEHIV_clean_linker_0, # of connection points: 3
#     Node 3, Type 0, BuildingBlock: ESEHIV_clean_linker_0, # of connection points: 3
#     Node 4, Type 0, BuildingBlock: ESEHIV_clean_linker_0, # of connection points: 3
#     Node 5, Type 0, BuildingBlock: ESEHIV_clean_linker_0, # of connection points: 3
#     Node 6, Type 0, BuildingBlock: ESEHIV_clean_linker_0, # of connection points: 3
#     Node 7, Type 0, BuildingBlock: ESEHIV_clean_linker_0, # of connection points: 3
#     Node 8, Type 1, BuildingBlock: BETDIP_clean_sbu_0, # of connection points: 6
#     Node 9, Type 1, BuildingBlock: BETDIP_clean_sbu_0, # of connection points: 6
#     Node 10, Type 1, BuildingBlock: BETDIP_clean_sbu_0, # of connection points: 6
#     Node 11, Type 1, BuildingBlock: BETDIP_clean_sbu_0, # of connection points: 6
#     Edge 12, Type (0, 1), BuildingBlock: MIFKUJ_clean_linker_0, # of connection points: 2
#     Edge 13, Type (0, 1), BuildingBlock: MIFKUJ_clean_linker_0, # of connection points: 2
#     Edge 14, Type (0, 1), BuildingBlock: MIFKUJ_clean_linker_0, # of connection points: 2
#     Edge 15, Type (0, 1), BuildingBlock: MIFKUJ_clean_linker_0, # of connection points: 2
#     Edge 16, Type (0, 1), BuildingBlock: MIFKUJ_clean_linker_0, # of connection points: 2
#     Edge 17, Type (0, 1), BuildingBlock: MIFKUJ_clean_linker_0, # of connection points: 2
#     Edge 18, Type (0, 1), BuildingBlock: MIFKUJ_clean_linker_0, # of connection points: 2
#     Edge 19, Type (0, 1), BuildingBlock: MIFKUJ_clean_linker_0, # of connection points: 2
#     Edge 20, Type (0, 1), BuildingBlock: MIFKUJ_clean_linker_0, # of connection points: 2
#     Edge 21, Type (0, 1), BuildingBlock: MIFKUJ_clean_linker_0, # of connection points: 2
#     Edge 22, Type (0, 1), BuildingBlock: MIFKUJ_clean_linker_0, # of connection points: 2
#     Edge 23, Type (0, 1), BuildingBlock: MIFKUJ_clean_linker_0, # of connection points: 2
#     Edge 24, Type (0, 1), BuildingBlock: MIFKUJ_clean_linker_0, # of connection points: 2
#     Edge 25, Type (0, 1), BuildingBlock: MIFKUJ_clean_linker_0, # of connection points: 2
#     Edge 26, Type (0, 1), BuildingBlock: MIFKUJ_clean_linker_0, # of connection points: 2
#     Edge 27, Type (0, 1), BuildingBlock: MIFKUJ_clean_linker_0, # of connection points: 2
#     Edge 28, Type (0, 1), BuildingBlock: MIFKUJ_clean_linker_0, # of connection points: 2
#     Edge 29, Type (0, 1), BuildingBlock: MIFKUJ_clean_linker_0, # of connection points: 2
#     Edge 30, Type (0, 1), BuildingBlock: MIFKUJ_clean_linker_0, # of connection points: 2
#     Edge 31, Type (0, 1), BuildingBlock: MIFKUJ_clean_linker_0, # of connection points: 2
#     Edge 32, Type (0, 1), BuildingBlock: MIFKUJ_clean_linker_0, # of connection points: 2
#     Edge 33, Type (0, 1), BuildingBlock: MIFKUJ_clean_linker_0, # of connection points: 2
#     Edge 34, Type (0, 1), BuildingBlock: MIFKUJ_clean_linker_0, # of connection points: 2
#     Edge 35, Type (0, 1), BuildingBlock: MIFKUJ_clean_linker_0, # of connection points: 2
# Relax obj value: 0.438
# Max RMSD: 0.264
# Mean RMSD: 0.241
data_MOF--net-zzz--node1-BETDIP_clean_sbu_0--node2-ESEHIV_clean_linker_0--edge1-MIFKUJ_clean_linker_0
_symmetry_space_group_name_H-M    P1
_symmetry_Int_Tables_number       1
_symmetry_cell_setting            triclinic
loop_
_symmetry_equiv_pos_as_xyz
'x, y, z'
_cell_length_a     60.53748
_cell_length_b     60.524068
_cell_length_c     18.899428
_cell_angle_alpha  89.654233
_cell_angle_beta   89.839185
_cell_angle_gamma 90.014405
loop_
_atom_site_label
_atom_site_type_symbol
_atom_site_fract_x
_atom_site_fract_y
_atom_site_fract_z
_atom_type_partial_charge
H0 H 0.77944 0.47142 0.24138 0.0
H1 H 0.71471 0.47872 0.15199 0.0
H2 H 0.73117 0.5127 0.34399 0.0
C3 C 0.76275 0.47783 0.24439 0.0
C4 C 0.75696 0.49154 0.30149 0.0
C5 C 0.7478 0.47326 0.18962 0.0
C6 C 0.72663 0.4824 0.19296 0.0
C7 C 0.7206 0.49686 0.24722 0.0
C8 C 0.7358 0.50158 0.30178 0.0
H9 H 0.06128 0.78144 0.29185 0.0
H10 H 0.06229 0.72507 0.15726 0.0
H11 H 0.01053 0.73192 0.31411 0.0
C12 C 0.05431 0.7656 0.27717 0.0
C13 C 0.03495 0.75818 0.31048 0.0
C14 C 0.06413 0.75376 0.22234 0.0
C15 C 0.05477 0.73381 0.20103 0.0
C16 C 0.03575 0.72524 0.23458 0.0
C17 C 0.02541 0.73793 0.2885 0.0
H18 H 0.72861 0.02572 0.24117 0.0
H19 H 0.79217 0.02269 0.14153 0.0
H20 H 0.78419 0.9989 0.35582 0.0
C21 C 0.74598 0.02137 0.24367 0.0
C22 C 0.7546 0.01211 0.30605 0.0
C23 C 0.75946 0.02517 0.18456 0.0
C24 C 0.78181 0.01982 0.18768 0.0
C25 C 0.79096 0.01027 0.2486 0.0
C26 C 0.77727 1.00618 0.30831 0.0
H27 H 0.48488 0.73267 0.24083 0.0
H28 H 0.50408 0.7889 0.36586 0.0
H29 H 0.49539 0.79555 0.14047 0.0
C30 C 0.48947 0.74995 0.24433 0.0
C31 C 0.48955 0.76305 0.18286 0.0
C32 C 0.49485 0.75883 0.31069 0.0
C33 C 0.50032 0.78161 0.3151 0.0
C34 C 0.50027 0.79494 0.25305 0.0
C35 C 0.49519 0.78535 0.18787 0.0
H36 H 0.22996 0.54116 0.20368 0.0
H37 H 0.29166 0.53379 0.31145 0.0
H38 H 0.2831 0.50457 0.10609 0.0
C39 C 0.2468 0.53506 0.20424 0.0
C40 C 0.2549 0.52299 0.1462 0.0
C41 C 0.25996 0.53894 0.26381 0.0
C42 C 0.28158 0.53107 0.26498 0.0
C43 C 0.2901 0.51865 0.20896 0.0
C44 C 0.27668 0.51435 0.14934 0.0
H45 H 0.97522 0.23414 0.12591 0.0
H46 H 0.97736 0.28929 0.2671 0.0
H47 H 0.02237 0.2863 0.08973 0.0
C48 C 0.98203 0.2501 0.14013 0.0
C49 C 0.99926 0.25899 0.0996 0.0
C50 C 0.97442 0.26062 0.20115 0.0
C51 C 0.9831 0.28121 0.21936 0.0
C52 C 1.00017 0.29085 0.17917 0.0
C53 C 0.00862 0.27949 0.11946 0.0
H54 H 0.27546 0.97283 0.15553 0.0
H55 H 0.21353 0.97118 0.26587 0.0
H56 H 0.21781 1.00205 0.05986 0.0
C57 C 0.25797 0.97672 0.15754 0.0
C58 C 0.24832 0.98802 0.10053 0.0
C59 C 0.2456 0.97068 0.2173 0.0
C60 C 0.22302 0.97534 0.21886 0.0
C61 C 0.21265 0.98643 0.16253 0.0
C62 C 0.22545 0.99306 0.10304 0.0
H63 H 0.5433 0.26961 0.12497 0.0
H64 H 0.49682 0.22003 0.0597 0.0
H65 H 0.54453 0.2054 0.22249 0.0
C66 C 0.53744 0.25268 0.12777 0.0
C67 C 0.5461 0.23819 0.1788 0.0
C68 C 0.51999 0.24633 0.08372 0.0
C69 C 0.51088 0.22486 0.09133 0.0
C70 C 0.52015 0.20977 0.14075 0.0
C71 C 0.5379 0.21662 0.18293 0.0
Tb72 Tb 0.02114 0.99832 0.76522 0.0
Tb73 Tb 0.98896 0.01379 0.66556 0.0
C74 C 0.04617 0.98813 0.86581 0.0
C75 C 0.06119 0.96932 0.87807 0.0
C76 C 0.0534 0.9475 0.8759 0.0
C77 C 0.06784 0.92987 0.88637 0.0
C78 C 0.09046 0.93359 0.89848 0.0
C79 C 0.09833 0.95544 0.89932 0.0
C80 C 0.08379 0.97315 0.88933 0.0
C81 C 0.03693 1.00064 0.635 0.0
C82 C 1.00055 0.96251 0.66978 0.0
C83 C 0.9631 0.02491 0.56802 0.0
C84 C 0.94911 0.04461 0.56274 0.0
C85 C 0.94873 0.05967 0.61886 0.0
C86 C 0.93746 0.0796 0.61235 0.0
C87 C 0.92642 0.08491 0.54935 0.0
C88 C 0.92581 0.06932 0.49441 0.0
C89 C 0.93717 0.04926 0.50105 0.0
C90 C 0.97373 0.01079 0.79734 0.0
C91 C 0.01039 0.05 0.75615 0.0
O92 O 0.02495 0.98389 0.86553 0.0
O93 O 0.05196 1.0015 0.81452 0.0
O94 O 0.02434 0.01476 0.66351 0.0
O95 O 0.04157 0.98538 0.68054 0.0
O96 O 0.0096 0.9658 0.73239 0.0
O97 O 0.99375 0.97946 0.63107 0.0
O98 O 0.98435 0.02884 0.56646 0.0
O99 O 0.95772 0.0111 0.61862 0.0
O100 O 0.98587 0.99686 0.76664 0.0
O101 O 0.96941 0.02655 0.75346 0.0
O102 O 1.00103 0.04624 0.69457 0.0
O103 O 0.01712 0.03329 0.79619 0.0
H104 H 0.03611 0.94397 0.86659 0.0
H105 H 0.06107 0.9133 0.88697 0.0
H106 H 0.11564 0.95886 0.90843 0.0
H107 H 0.09019 0.98986 0.89056 0.0
H108 H 0.95785 0.05644 0.66686 0.0
H109 H 0.93812 0.09128 0.65554 0.0
H110 H 0.91763 0.07315 0.44493 0.0
H111 H 0.9373 0.03779 0.45726 0.0
Tb112 Tb 0.50421 0.02316 0.75095 0.0
Tb113 Tb 0.4961 0.98469 0.65102 0.0
C114 C 0.51974 0.04952 0.83947 0.0
C115 C 0.54138 0.06036 0.84193 0.0
C116 C 0.55274 0.06128 0.90621 0.0
C117 C 0.57507 0.06694 0.907 0.0
C118 C 0.58624 0.07181 0.84347 0.0
C119 C 0.57444 0.07264 0.77988 0.0
C120 C 0.55214 0.0668 0.77899 0.0
C121 C 0.48945 0.03412 0.6238 0.0
C122 C 0.54473 1.00281 0.65957 0.0
C123 C 0.48136 0.96335 0.54922 0.0
C124 C 0.46262 0.94803 0.54781 0.0
C125 C 0.44967 0.9467 0.48697 0.0
C126 C 0.42931 0.93593 0.48934 0.0
C127 C 0.42157 0.92618 0.55274 0.0
C128 C 0.43522 0.92654 0.61271 0.0
C129 C 0.45552 0.93748 0.61035 0.0
C130 C 0.50225 0.96909 0.78162 0.0
C131 C 0.4572 1.00224 0.75169 0.0
O132 O 0.52026 0.02802 0.84778 0.0
O133 O 0.50679 0.05563 0.78766 0.0
O134 O 0.50356 0.0193 0.63786 0.0
O135 O 0.48317 0.04309 0.68259 0.0
O136 O 0.53781 0.01721 0.70786 0.0
O137 O 0.53104 0.98899 0.62789 0.0
O138 O 0.47578 0.98391 0.56185 0.0
O139 O 0.49861 0.9569 0.58592 0.0
O140 O 0.50227 0.98876 0.7601 0.0
O141 O 0.49904 0.95685 0.72686 0.0
O142 O 0.4628 0.99236 0.69171 0.0
O143 O 0.47186 0.01314 0.78988 0.0
H144 H 0.54474 0.05627 0.95508 0.0
H145 H 0.58394 0.06628 0.95668 0.0
H146 H 0.58282 0.07614 0.73033 0.0
H147 H 0.54373 0.06602 0.72854 0.0
H148 H 0.4547 0.95509 0.43872 0.0
H149 H 0.4191 0.93648 0.44243 0.0
H150 H 0.42989 0.91909 0.66213 0.0
H151 H 0.46515 0.93859 0.65836 0.0
Tb152 Tb 0.48623 0.51437 0.79752 0.0
Tb153 Tb 0.51857 0.50404 0.69214 0.0
C154 C 0.46343 0.53338 0.88944 0.0
C155 C 0.45062 0.55379 0.88151 0.0
C156 C 0.4493 0.56865 0.93764 0.0
C157 C 0.44085 0.58984 0.92644 0.0
C158 C 0.43358 0.5965 0.85874 0.0
C159 C 0.4338 0.58106 0.80357 0.0
C160 C 0.44236 0.55993 0.81476 0.0
C161 C 0.46859 0.4997 0.67838 0.0
C162 C 0.50368 0.55283 0.69115 0.0
C163 C 0.5396 0.48495 0.59549 0.0
C164 C 0.54409 0.46134 0.58503 0.0
C165 C 0.52827 0.44554 0.60471 0.0
C166 C 0.53337 0.42315 0.60378 0.0
C167 C 0.55411 0.41581 0.57969 0.0
C168 C 0.56974 0.43177 0.55778 0.0
C169 C 0.56486 0.45433 0.5614 0.0
C170 C 0.53603 0.51947 0.81029 0.0
C171 C 0.50153 0.46606 0.79927 0.0
O172 O 0.48483 0.53596 0.88388 0.0
O173 O 0.45632 0.51653 0.85311 0.0
O174 O 0.48455 0.51296 0.68391 0.0
O175 O 0.46181 0.49463 0.74126 0.0
O176 O 0.49326 0.54751 0.75079 0.0
O177 O 0.51368 0.53748 0.65364 0.0
O178 O 0.51892 0.49098 0.5897 0.0
O179 O 0.54905 0.4936 0.65083 0.0
O180 O 0.52034 0.50579 0.80571 0.0
O181 O 0.54252 0.52473 0.74697 0.0
O182 O 0.50956 0.47121 0.73603 0.0
O183 O 0.49372 0.48176 0.84046 0.0
H184 H 0.45589 0.5643 0.98912 0.0
H185 H 0.44139 0.6014 0.9699 0.0
H186 H 0.42822 0.58559 0.75106 0.0
H187 H 0.44349 0.54875 0.77032 0.0
H188 H 0.51199 0.45042 0.62238 0.0
H189 H 0.52094 0.41173 0.62287 0.0
H190 H 0.58566 0.42698 0.53678 0.0
H191 H 0.57731 0.4663 0.54593 0.0
Tb192 Tb 1.002 0.49358 0.76588 0.0
Tb193 Tb 0.01517 0.52268 0.65644 0.0
C194 C 0.98113 0.47278 0.85982 0.0
C195 C 0.95882 0.46304 0.85705 0.0
C196 C 0.9405 0.47617 0.83927 0.0
C197 C 0.91993 0.46655 0.82806 0.0
C198 C 0.91711 0.44361 0.83504 0.0
C199 C 0.93528 0.43047 0.85445 0.0
C200 C 0.95601 0.44012 0.86502 0.0
C201 C 0.01727 0.47273 0.65221 0.0
C202 C 0.96624 0.50963 0.65352 0.0
C203 C 0.03506 0.54324 0.55983 0.0
C204 C 0.05394 0.55834 0.56358 0.0
C205 C 0.06825 0.56038 0.50581 0.0
C206 C 0.08769 0.57259 0.51196 0.0
C207 C 0.09312 0.5831 0.57605 0.0
C208 C 0.07819 0.58169 0.63302 0.0
C209 C 0.05883 0.5693 0.62697 0.0
C210 C 1.00077 0.54411 0.77068 0.0
C211 C 0.05105 0.50636 0.7698 0.0
O212 O 0.98233 0.49436 0.85737 0.0
O213 O 0.99564 0.46355 0.81832 0.0
O214 O 1.00448 0.48916 0.65251 0.0
O215 O 0.02186 0.4676 0.71695 0.0
O216 O 0.96998 0.50391 0.72 0.0
O217 O 0.98312 0.51424 0.61176 0.0
O218 O 0.0394 0.52273 0.57678 0.0
O219 O 0.01688 0.55029 0.58931 0.0
O220 O 0.01286 0.52716 0.76995 0.0
O221 O 0.99716 0.54979 0.70588 0.0
O222 O 0.04735 0.51343 0.70439 0.0
O223 O 0.03432 0.5004 0.81046 0.0
H224 H 0.94205 0.49389 0.83313 0.0
H225 H 0.9061 0.47719 0.81512 0.0
H226 H 0.9335 0.41276 0.86071 0.0
H227 H 0.96994 0.42966 0.87821 0.0
H228 H 0.06481 0.55184 0.45683 0.0
H229 H 0.09896 0.57281 0.46738 0.0
H230 H 0.08172 0.58969 0.68283 0.0
H231 H 0.04799 0.56774 0.67248 0.0
H232 H 0.17937 0.95727 0.1846 0.0
H233 H 0.14406 0.96485 0.24096 0.0
H234 H 0.15647 0.03489 0.22271 0.0
H235 H 0.1926 0.02707 0.1687 0.0
H236 H 0.14594 0.02721 0.34958 0.0
H237 H 0.11041 1.00578 0.13702 0.0
H238 H 0.10021 0.98389 0.03265 0.0
H239 H 0.08181 0.9294 0.16692 0.0
H240 H 0.09218 0.95084 0.27216 0.0
H241 H 0.04555 0.03839 0.55596 0.0
H242 H 0.07038 0.04134 0.45246 0.0
H243 H 0.08133 0.97098 0.46064 0.0
H244 H 0.0568 0.96799 0.56274 0.0
H245 H 0.07578 0.98581 0.32428 0.0
H246 H 0.11785 1.00577 0.53307 0.0
H247 H 0.12563 0.02843 0.63813 0.0
H248 H 0.13023 0.08648 0.50711 0.0
H249 H 0.12218 0.06417 0.40132 0.0
C250 C 0.17417 0.97431 0.18996 0.0
C251 C 0.18873 0.99157 0.17169 0.0
C252 C 0.15384 0.97869 0.22232 0.0
C253 C 0.14723 1.00052 0.2363 0.0
C254 C 0.16104 0.01788 0.21287 0.0
C255 C 0.18159 0.01345 0.18091 0.0
C256 C 0.12764 1.0048 0.28334 0.0
C257 C 0.13041 0.01858 0.34251 0.0
C258 C 0.10731 0.99333 0.27596 0.0
C259 C 0.10214 0.97995 0.21255 0.0
C260 C 0.10443 0.98904 0.1443 0.0
C261 C 0.09854 0.97672 0.08494 0.0
C262 C 0.09027 0.9553 0.09317 0.0
C263 C 0.08814 0.94603 0.16067 0.0
C264 C 0.094 0.95827 0.22019 0.0
C265 C 0.053 0.02357 0.5347 0.0
C266 C 0.04933 1.00298 0.56756 0.0
C267 C 0.06727 0.02526 0.47591 0.0
C268 C 0.07786 0.00636 0.44881 0.0
C269 C 0.07334 0.98576 0.48007 0.0
C270 C 0.05937 0.98411 0.53876 0.0
C271 C 0.09447 0.00766 0.39026 0.0
C272 C 0.09116 0.99484 0.32959 0.0
C273 C 0.11423 0.02001 0.39604 0.0
C274 C 0.11913 0.03337 0.4595 0.0
C275 C 0.12034 0.0234 0.52678 0.0
C276 C 0.12483 0.03617 0.58642 0.0
C277 C 0.12835 0.0589 0.57934 0.0
C278 C 0.12745 0.06889 0.51254 0.0
C279 C 0.12293 0.05619 0.45273 0.0
H280 H 0.13183 0.06876 0.62558 0.0
H281 H 0.0854 0.94588 0.04738 0.0
H282 H 0.54079 0.17002 0.1303 0.0
H283 H 0.53104 0.13619 0.19439 0.0
H284 H 0.46943 0.16579 0.25871 0.0
H285 H 0.47943 0.19986 0.19503 0.0
H286 H 0.49191 0.15177 0.37035 0.0
H287 H 0.47235 0.1188 0.14853 0.0
H288 H 0.47805 0.10787 0.02433 0.0
H289 H 0.53426 0.06893 0.08484 0.0
H290 H 0.52907 0.07984 0.20929 0.0
H291 H 0.458 0.06348 0.58365 0.0
H292 H 0.45898 0.08923 0.48358 0.0
H293 H 0.52023 0.06033 0.41272 0.0
H294 H 0.51886 0.03393 0.51206 0.0
H295 H 0.49647 0.07306 0.30017 0.0
H296 H 0.51948 0.10747 0.51417 0.0
H297 H 0.51676 0.1186 0.63918 0.0
H298 H 0.45793 0.15558 0.59334 0.0
H299 H 0.46011 0.14438 0.46817 0.0
C300 C 0.52472 0.16893 0.15545 0.0
C301 C 0.51075 0.18752 0.15679 0.0
C302 C 0.51917 0.14956 0.19248 0.0
C303 C 0.49946 0.14825 0.23178 0.0
C304 C 0.48474 0.16628 0.22891 0.0
C305 C 0.49029 0.18568 0.19162 0.0
C306 C 0.49566 0.1295 0.28272 0.0
C307 C 0.49238 0.13458 0.35445 0.0
C308 C 0.49731 0.10695 0.26312 0.0
C309 C 0.5004 0.10029 0.18826 0.0
C310 C 0.48602 0.10804 0.13531 0.0
C311 C 0.48914 0.10181 0.06485 0.0
C312 C 0.50653 0.08775 0.04666 0.0
C313 C 0.5208 0.07983 0.09896 0.0
C314 C 0.51775 0.086 0.1695 0.0
C315 C 0.47144 0.06229 0.54589 0.0
C316 C 0.4884 0.04675 0.55607 0.0
C317 C 0.47208 0.07715 0.48883 0.0
C318 C 0.48998 0.07723 0.44119 0.0
C319 C 0.50629 0.06078 0.44871 0.0
C320 C 0.50549 0.04565 0.50554 0.0
C321 C 0.49237 0.09543 0.38735 0.0
C322 C 0.49564 0.09027 0.31559 0.0
C323 C 0.49113 0.11801 0.40682 0.0
C324 C 0.48983 0.12489 0.48196 0.0
C325 C 0.50587 0.11785 0.53085 0.0
C326 C 0.50444 0.12418 0.60172 0.0
C327 C 0.48715 0.13774 0.62422 0.0
C328 C 0.47129 0.14505 0.57585 0.0
C329 C 0.47262 0.13872 0.50493 0.0
H330 H 0.48607 0.14264 0.67911 0.0
H331 H 0.50893 0.08296 0.99208 0.0
H332 H 0.30136 0.48038 0.27373 0.0
H333 H 0.33607 0.47397 0.33685 0.0
H334 H 0.36405 0.53213 0.23926 0.0
H335 H 0.32912 0.53871 0.1767 0.0
H336 H 0.39596 0.49428 0.26921 0.0
H337 H 0.34506 0.54419 0.38372 0.0
H338 H 0.30805 0.55594 0.42326 0.0
H339 H 0.30152 0.49655 0.54696 0.0
H340 H 0.33868 0.48455 0.50857 0.0
H341 H 0.47194 0.5217 0.55081 0.0
H342 H 0.44496 0.5219 0.45391 0.0
H343 H 0.40511 0.47443 0.56793 0.0
H344 H 0.43176 0.47446 0.66479 0.0
H345 H 0.3802 0.50763 0.52329 0.0
H346 H 0.43533 0.46077 0.4169 0.0
H347 H 0.47275 0.45122 0.37527 0.0
H348 H 0.47202 0.50672 0.23265 0.0
H349 H 0.43469 0.51677 0.27417 0.0
C350 C 0.31534 0.49104 0.26253 0.0
C351 C 0.3127 0.50975 0.21904 0.0
C352 C 0.3351 0.48754 0.29934 0.0
C353 C 0.35264 0.50265 0.29322 0.0
C354 C 0.35084 0.52015 0.2444 0.0
C355 C 0.33094 0.52378 0.20804 0.0
C356 C 0.37093 0.50221 0.34596 0.0
C357 C 0.39263 0.49738 0.32468 0.0
C358 C 0.36661 0.5062 0.41836 0.0
C359 C 0.3445 0.51341 0.44284 0.0
C360 C 0.33569 0.53362 0.41922 0.0
C361 C 0.31474 0.54035 0.44157 0.0
C362 C 0.30237 0.52693 0.48716 0.0
C363 C 0.31109 0.50689 0.51142 0.0
C364 C 0.33215 0.50017 0.48969 0.0
C365 C 0.45758 0.51107 0.55459 0.0
C366 C 0.45396 0.49809 0.61556 0.0
C367 C 0.44216 0.51116 0.49909 0.0
C368 C 0.42291 0.49812 0.50321 0.0
C369 C 0.4197 0.48471 0.56332 0.0
C370 C 0.43502 0.48467 0.61866 0.0
C371 C 0.40545 0.49922 0.44733 0.0
C372 C 0.38373 0.50436 0.46802 0.0
C373 C 0.40993 0.49575 0.37446 0.0
C374 C 0.4323 0.48964 0.34911 0.0
C375 C 0.44321 0.47103 0.37703 0.0
C376 C 0.46439 0.46551 0.3534 0.0
C377 C 0.47478 0.47839 0.30147 0.0
C378 C 0.46397 0.49677 0.27293 0.0
C379 C 0.44279 0.50238 0.29644 0.0
H380 H 0.49118 0.47409 0.28325 0.0
H381 H 0.28606 0.53211 0.50369 0.0
H382 H 0.98768 0.33283 0.1446 0.0
H383 H 0.99486 0.36629 0.21387 0.0
H384 H 0.03889 0.32925 0.34872 0.0
H385 H 0.03164 0.2959 0.27949 0.0
H386 H 0.00768 0.34959 0.4246 0.0
H387 H 0.05796 0.37124 0.24034 0.0
H388 H 0.06993 0.3796 0.11826 0.0
H389 H 0.02087 0.4306 0.10281 0.0
H390 H 0.00841 0.42237 0.22455 0.0
H391 H 0.04142 0.43481 0.65021 0.0
H392 H 0.04226 0.40637 0.55896 0.0
H393 H 0.99847 0.44549 0.42942 0.0
H394 H 0.99785 0.47428 0.52067 0.0
H395 H 0.0296 0.425 0.34785 0.0
H396 H 0.97845 0.40305 0.52809 0.0
H397 H 0.96587 0.39527 0.64992 0.0
H398 H 0.01525 0.34475 0.67099 0.0
H399 H 0.02836 0.35247 0.54959 0.0
C400 C 0.99964 0.33214 0.18709 0.0
C401 C 0.00954 0.31192 0.20562 0.0
C402 C 1.00363 0.35124 0.22708 0.0
C403 C 0.01746 0.35042 0.28681 0.0
C404 C 0.0282 0.33041 0.30299 0.0
C405 C 0.02428 0.3114 0.26288 0.0
C406 C 0.01885 0.36952 0.33675 0.0
C407 C 0.01287 0.36597 0.40783 0.0
C408 C 0.02478 0.39119 0.31483 0.0
C409 C 0.03209 0.39602 0.24136 0.0
C410 C 0.04957 0.38409 0.21069 0.0
C411 C 0.05648 0.38884 0.1416 0.0
C412 C 0.04612 0.40557 0.10273 0.0
C413 C 0.02886 0.41762 0.13294 0.0
C414 C 0.02188 0.41294 0.20201 0.0
C415 C 0.03214 0.4375 0.602 0.0
C416 C 0.01941 0.45674 0.59303 0.0
C417 C 0.03257 0.42115 0.54983 0.0
C418 C 0.02011 0.42349 0.48753 0.0
C419 C 0.00817 0.44318 0.47697 0.0
C420 C 0.00779 0.45963 0.52924 0.0
C421 C 0.01877 0.4049 0.43568 0.0
C422 C 0.02455 0.40857 0.36443 0.0
C423 C 0.01248 0.3833 0.45711 0.0
C424 C 1.00453 0.37849 0.52997 0.0
C425 C 0.98674 0.39039 0.55888 0.0
C426 C 0.9795 0.38598 0.62784 0.0
C427 C 0.98979 0.36956 0.66823 0.0
C428 C 0.00731 0.35749 0.63967 0.0
C429 C 0.01465 0.36186 0.57077 0.0
H430 H 0.98416 0.36617 0.72161 0.0
H431 H 0.0515 0.40923 0.04926 0.0
H432 H 0.81063 0.97096 0.21724 0.0
H433 H 0.84704 0.96722 0.16059 0.0
H434 H 0.86071 0.03567 0.20402 0.0
H435 H 0.82461 0.03928 0.26143 0.0
H436 H 0.85912 0.02378 0.05705 0.0
H437 H 0.89304 1.0 0.27471 0.0
H438 H 0.89757 0.97622 0.38001 0.0
H439 H 0.90738 0.91979 0.24693 0.0
H440 H 0.9026 0.9432 0.14074 0.0
H441 H 0.9578 0.0425 0.88258 0.0
H442 H 0.93132 0.03868 0.97942 0.0
H443 H 0.93208 0.96787 0.95486 0.0
H444 H 0.95961 0.97169 0.8591 0.0
H445 H 0.92621 0.97804 0.09275 0.0
H446 H 0.89169 0.9995 0.87707 0.0
H447 H 0.88631 0.02151 0.76828 0.0
H448 H 0.87511 0.07962 0.89254 0.0
H449 H 0.88077 0.05802 1.00213 0.0
C450 C 0.82199 0.98479 0.21856 0.0
C451 C 0.81496 1.00529 0.24514 0.0
C452 C 0.8427 0.98273 0.18535 0.0
C453 C 0.85659 1.00122 0.17752 0.0
C454 C 0.85034 0.02116 0.2095 0.0
C455 C 0.82982 0.02314 0.24325 0.0
C456 C 0.87557 1.00093 0.12682 0.0
C457 C 0.87393 0.01402 0.06551 0.0
C458 C 0.89446 0.98743 0.13601 0.0
C459 C 0.89719 0.97332 0.19976 0.0
C460 C 0.89591 0.98248 0.26787 0.0
C461 C 0.89859 0.96908 0.32773 0.0
C462 C 0.90269 0.94649 0.32017 0.0
C463 C 0.90417 0.93728 0.25271 0.0
C464 C 0.90149 0.95062 0.19267 0.0
C465 C 0.95267 0.02607 0.89875 0.0
C466 C 0.96062 0.00742 0.86295 0.0
C467 C 0.9374 0.02389 0.95394 0.0
C468 C 0.92909 1.00302 0.97344 0.0
C469 C 0.93804 0.98417 0.94064 0.0
C470 C 0.95378 0.98635 0.88594 0.0
C471 C 0.90999 1.0014 0.02387 0.0
C472 C 0.91143 0.98783 0.08445 0.0
C473 C 0.89058 0.01415 0.01358 0.0
C474 C 0.88685 0.02717 0.94782 0.0
C475 C 0.88821 0.017 0.8812 0.0
C476 C 0.8851 0.0294 0.81938 0.0
C477 C 0.88042 0.05196 0.82349 0.0
C478 C 0.87876 0.06215 0.88945 0.0
C479 C 0.8819 0.04983 0.95144 0.0
H480 H 0.87804 0.06154 0.77557 0.0
H481 H 0.90477 0.93615 0.36658 0.0
H482 H 0.53822 0.81701 0.22077 0.0
H483 H 0.53983 0.85388 0.16661 0.0
H484 H 0.47101 0.86371 0.2163 0.0
H485 H 0.46952 0.82692 0.27087 0.0
H486 H 0.47886 0.86659 0.07594 0.0
H487 H 0.5096 0.89801 0.28305 0.0
H488 H 0.53511 0.9025 0.38332 0.0
H489 H 0.58939 0.91124 0.23917 0.0
H490 H 0.56427 0.90641 0.13788 0.0
H491 H 0.47087 0.96695 0.88458 0.0
H492 H 0.47167 0.94316 0.99049 0.0
H493 H 0.53933 0.92597 0.94505 0.0
H494 H 0.53835 0.94946 0.83869 0.0
H495 H 0.53097 0.92955 0.09247 0.0
H496 H 0.50045 0.89538 0.88649 0.0
H497 H 0.47493 0.89078 0.78634 0.0
H498 H 0.42023 0.88555 0.93061 0.0
H499 H 0.44526 0.89118 0.03142 0.0
C500 C 0.52383 0.8276 0.22402 0.0
C501 C 0.50388 0.81924 0.25169 0.0
C502 C 0.52467 0.84863 0.19223 0.0
C503 C 0.5055 0.86167 0.18676 0.0
C504 C 0.48605 0.85406 0.21976 0.0
C505 C 0.48527 0.83314 0.25207 0.0
C506 C 0.50483 0.88119 0.13757 0.0
C507 C 0.48992 0.8806 0.08073 0.0
C508 C 0.51976 0.89919 0.14202 0.0
C509 C 0.53506 0.90158 0.20277 0.0
C510 C 0.52702 0.90059 0.27264 0.0
C511 C 0.5414 0.90327 0.3297 0.0
C512 C 0.56386 0.90707 0.31763 0.0
C513 C 0.57199 0.90823 0.24844 0.0
C514 C 0.55768 0.90554 0.19117 0.0
C515 C 0.48615 0.95877 0.89892 0.0
C516 C 0.50471 0.9604 0.85448 0.0
C517 C 0.48655 0.94501 0.95907 0.0
C518 C 0.50554 0.93261 0.9758 0.0
C519 C 0.52455 0.93542 0.93377 0.0
C520 C 0.52402 0.94893 0.87316 0.0
C521 C 0.50486 0.91492 0.03156 0.0
C522 C 0.51966 0.91571 0.08876 0.0
C523 C 0.48987 0.89697 0.02753 0.0
C524 C 0.47471 0.89413 0.96658 0.0
C525 C 0.48292 0.8937 0.89685 0.0
C526 C 0.46853 0.89091 0.83988 0.0
C527 C 0.44594 0.88805 0.85199 0.0
C528 C 0.4377 0.88797 0.92114 0.0
C529 C 0.45197 0.89109 0.97821 0.0
H530 H 0.43484 0.88577 0.80783 0.0
H531 H 0.57496 0.90917 0.36189 0.0
H532 H 0.68142 0.48005 0.29279 0.0
H533 H 0.64544 0.48811 0.23943 0.0
H534 H 0.67426 0.54271 0.12418 0.0
H535 H 0.71009 0.53487 0.1788 0.0
H536 H 0.63107 0.55111 0.15222 0.0
H537 H 0.67327 0.49186 0.05181 0.0
H538 H 0.69397 0.45677 0.05304 0.0
H539 H 0.6362 0.42242 0.12699 0.0
H540 H 0.61519 0.45738 0.12671 0.0
H541 H 0.57103 0.54728 0.82654 0.0
H542 H 0.59829 0.54742 0.92202 0.0
H543 H 0.56238 0.49554 0.02935 0.0
H544 H 0.53493 0.49545 0.93393 0.0
H545 H 0.60661 0.48595 0.01485 0.0
H546 H 0.56338 0.54681 0.0979 0.0
H547 H 0.54412 0.58259 0.08839 0.0
H548 H 0.60542 0.61483 0.03806 0.0
H549 H 0.62501 0.57918 0.04626 0.0
C550 C 0.67974 0.49453 0.25925 0.0
C551 C 0.69844 0.5071 0.24101 0.0
C552 C 0.65925 0.49892 0.22773 0.0
C553 C 0.65718 0.51571 0.17632 0.0
C554 C 0.67535 0.52965 0.16347 0.0
C555 C 0.69582 0.52532 0.19532 0.0
C556 C 0.6373 0.51686 0.12953 0.0
C557 C 0.62577 0.53689 0.12204 0.0
C558 C 0.63019 0.49831 0.09011 0.0
C559 C 0.64273 0.47726 0.09001 0.0
C560 C 0.66503 0.47685 0.06877 0.0
C561 C 0.67681 0.45698 0.06923 0.0
C562 C 0.66643 0.4374 0.09038 0.0
C563 C 0.64423 0.43762 0.11079 0.0
C564 C 0.63236 0.45744 0.11041 0.0
C565 C 0.56873 0.53616 0.87108 0.0
C566 C 0.55083 0.52134 0.87261 0.0
C567 C 0.58432 0.53629 0.9258 0.0
C568 C 0.58242 0.52154 0.98325 0.0
C569 C 0.56422 0.5071 0.98574 0.0
C570 C 0.54848 0.50713 0.93131 0.0
C571 C 0.60025 0.52017 0.03772 0.0
C572 C 0.6116 0.50009 0.04602 0.0
C573 C 0.60734 0.53878 0.07681 0.0
C574 C 0.59563 0.56027 0.07215 0.0
C575 C 0.57273 0.5615 0.08426 0.0
C576 C 0.56176 0.58177 0.0792 0.0
C577 C 0.57353 0.60097 0.06249 0.0
C578 C 0.59632 0.59994 0.05096 0.0
C579 C 0.60737 0.57971 0.05589 0.0
H580 H 0.56501 0.61664 0.05859 0.0
H581 H 0.67559 0.42204 0.09076 0.0
H582 H 0.99273 0.71193 0.20763 0.0
H583 H 0.98091 0.6777 0.14935 0.0
H584 H 0.04868 0.65564 0.14283 0.0
H585 H 0.06006 0.6885 0.20529 0.0
H586 H 0.98663 0.66371 0.02857 0.0
H587 H 0.05658 0.60279 0.12274 0.0
H588 H 0.07563 0.5929 0.23363 0.0
H589 H 0.02173 0.61939 0.3544 0.0
H590 H 1.00219 0.62916 0.24432 0.0
H591 H 0.006 0.58853 0.75861 0.0
H592 H 0.00727 0.61594 0.85212 0.0
H593 H 0.9956 0.56477 0.00803 0.0
H594 H 0.99618 0.53693 0.91378 0.0
H595 H 0.02106 0.59021 0.06492 0.0
H596 H 0.95432 0.60624 0.95003 0.0
H597 H 0.92848 0.61344 0.85195 0.0
H598 H 0.96429 0.67231 0.79645 0.0
H599 H 0.99054 0.66532 0.89358 0.0
C600 C 1.00494 0.69939 0.1959 0.0
C601 C 0.02739 0.70318 0.21062 0.0
C602 C 0.99822 0.67988 0.16169 0.0
C603 C 0.0138 0.66372 0.1414 0.0
C604 C 0.03606 0.66726 0.15887 0.0
C605 C 0.04266 0.68641 0.19392 0.0
C606 C 0.00748 0.6442 0.09676 0.0
C607 C 0.99404 0.64761 0.03714 0.0
C608 C 0.01626 0.62271 0.10854 0.0
C609 C 0.02797 0.61684 0.17508 0.0
C610 C 0.04872 0.6064 0.17291 0.0
C611 C 0.05963 0.60084 0.23567 0.0
C612 C 0.04992 0.60555 0.30102 0.0
C613 C 0.02927 0.61581 0.30375 0.0
C614 C 0.01829 0.6214 0.24117 0.0
C615 C 1.0036 0.5831 0.81282 0.0
C616 C 1.00073 0.56057 0.82875 0.0
C617 C 1.0041 0.5989 0.86658 0.0
C618 C 1.0008 0.59281 0.93786 0.0
C619 C 0.99806 0.57016 0.95385 0.0
C620 C 0.99828 0.5542 0.89994 0.0
C621 C 1.00109 0.61006 0.99504 0.0
C622 C 0.01339 0.60621 0.05695 0.0
C623 C 0.99027 0.63077 0.98736 0.0
C624 C 0.97449 0.63517 0.92892 0.0
C625 C 0.95676 0.62066 0.91668 0.0
C626 C 0.94203 0.62471 0.86126 0.0
C627 C 0.94476 0.6433 0.81794 0.0
C628 C 0.9622 0.65791 0.83005 0.0
C629 C 0.97699 0.65393 0.88536 0.0
H630 H 0.93335 0.6464 0.77505 0.0
H631 H 0.05838 0.60121 0.34954 0.0
H632 H 0.97914 0.21862 0.24653 0.0
H633 H 0.95406 0.19705 0.31994 0.0
H634 H 0.91125 0.25356 0.34241 0.0
H635 H 0.93648 0.27549 0.26664 0.0
H636 H 0.92254 0.22594 0.47442 0.0
H637 H 0.88793 0.21943 0.25092 0.0
H638 H 0.88766 0.21691 0.12073 0.0
H639 H 0.92245 0.15518 0.13192 0.0
H640 H 0.92317 0.15744 0.26205 0.0
H641 H 0.88672 0.09863 0.49423 0.0
H642 H 0.87676 0.13648 0.45917 0.0
H643 H 0.93957 0.1596 0.53765 0.0
H644 H 0.94889 0.12253 0.57501 0.0
H645 H 0.89552 0.15722 0.36199 0.0
H646 H 0.94515 0.20953 0.56855 0.0
H647 H 0.94901 0.21118 0.69806 0.0
H648 H 0.88519 0.18122 0.72402 0.0
H649 H 0.88078 0.17957 0.59451 0.0
C650 C 0.96429 0.22646 0.2664 0.0
C651 C 0.95943 0.24853 0.24957 0.0
C652 C 0.95007 0.21417 0.30864 0.0
C653 C 0.93069 0.22368 0.33535 0.0
C654 C 0.92609 0.246 0.32153 0.0
C655 C 0.94045 0.25843 0.27857 0.0
C656 C 0.91569 0.20939 0.37667 0.0
C657 C 0.91597 0.21109 0.4505 0.0
C658 C 0.90648 0.1905 0.34468 0.0
C659 C 0.90541 0.18854 0.2664 0.0
C660 C 0.89548 0.20529 0.22562 0.0
C661 C 0.89529 0.20393 0.15181 0.0
C662 C 0.90498 0.18586 0.11809 0.0
C663 C 0.91483 0.1691 0.15813 0.0
C664 C 0.91507 0.17038 0.23196 0.0
C665 C 0.89799 0.11202 0.50573 0.0
C666 C 0.91852 0.10772 0.53741 0.0
C667 C 0.89229 0.13362 0.48607 0.0
C668 C 0.90718 0.15112 0.49687 0.0
C669 C 0.92729 0.14677 0.53119 0.0
C670 C 0.93277 0.1254 0.55191 0.0
C671 C 0.90423 0.17275 0.4606 0.0
C672 C 0.90065 0.17241 0.38723 0.0
C673 C 0.9103 0.19288 0.49335 0.0
C674 C 0.91256 0.19456 0.57151 0.0
C675 C 0.93177 0.20358 0.60171 0.0
C676 C 0.93412 0.20441 0.67522 0.0
C677 C 0.91734 0.19636 0.71924 0.0
C678 C 0.89817 0.18746 0.68984 0.0
C679 C 0.89575 0.18654 0.61636 0.0
H680 H 0.91921 0.19699 0.77613 0.0
H681 H 0.90488 0.18487 0.06093 0.0
H682 H 0.28485 0.98295 0.2741 0.0
H683 H 0.30387 0.96673 0.37451 0.0
H684 H 0.2499 0.92111 0.40713 0.0
H685 H 0.23105 0.93677 0.30342 0.0
H686 H 0.2945 0.96338 0.51088 0.0
H687 H 0.27394 0.87371 0.47908 0.0
H688 H 0.25908 0.84744 0.39167 0.0
H689 H 0.28863 0.88509 0.22288 0.0
H690 H 0.30377 0.91143 0.30942 0.0
H691 H 0.39226 0.93012 0.66391 0.0
H692 H 0.35228 0.92559 0.65825 0.0
H693 H 0.35843 0.9018 0.44411 0.0
H694 H 0.39819 0.90397 0.45227 0.0
H695 H 0.32308 0.88705 0.48756 0.0
H696 H 0.35614 0.96387 0.51062 0.0
H697 H 0.37269 0.99455 0.57803 0.0
H698 H 0.32277 0.98732 0.73839 0.0
H699 H 0.30614 0.95643 0.67229 0.0
C700 C 0.27708 0.9693 0.30195 0.0
C701 C 0.25662 0.9609 0.28005 0.0
C702 C 0.2878 0.96027 0.36022 0.0
C703 C 0.27829 0.94273 0.39854 0.0
C704 C 0.25756 0.93459 0.3782 0.0
C705 C 0.24681 0.94359 0.31916 0.0
C706 C 0.29135 0.93249 0.45616 0.0
C707 C 0.30047 0.94651 0.50704 0.0
C708 C 0.29858 0.91033 0.4528 0.0
C709 C 0.28968 0.89462 0.40048 0.0
C710 C 0.27723 0.87634 0.42328 0.0
C711 C 0.26878 0.86145 0.37394 0.0
C712 C 0.27284 0.86465 0.30175 0.0
C713 C 0.28543 0.88268 0.27876 0.0
C714 C 0.29394 0.89759 0.3279 0.0
C715 C 0.38518 0.92292 0.61682 0.0
C716 C 0.39841 0.91816 0.55733 0.0
C717 C 0.3622 0.92061 0.6134 0.0
C718 C 0.35212 0.91435 0.54975 0.0
C719 C 0.36556 0.90703 0.49379 0.0
C720 C 0.38844 0.90864 0.49793 0.0
C721 C 0.32842 0.91896 0.53496 0.0
C722 C 0.31659 0.90362 0.49412 0.0
C723 C 0.31923 0.94028 0.54531 0.0
C724 C 0.33013 0.95773 0.58716 0.0
C725 C 0.34887 0.96872 0.56063 0.0
C726 C 0.35821 0.98615 0.59847 0.0
C727 C 0.34871 0.99293 0.66226 0.0
C728 C 0.33008 0.98206 0.68895 0.0
C729 C 0.32074 0.96455 0.65148 0.0
H730 H 0.35582 0.00659 0.69106 0.0
H731 H 0.26627 0.85312 0.26364 0.0
H732 H 0.54381 0.22947 0.32065 0.0
H733 H 0.55788 0.25298 0.41378 0.0
H734 H 0.59446 0.291 0.25953 0.0
H735 H 0.58087 0.26712 0.16546 0.0
H736 H 0.59419 0.27718 0.47474 0.0
H737 H 0.56772 0.34184 0.26294 0.0
H738 H 0.54292 0.34622 0.16048 0.0
H739 H 0.505 0.29012 0.22973 0.0
H740 H 0.529 0.28599 0.33401 0.0
H741 H 0.59426 0.39374 0.58611 0.0
H742 H 0.6016 0.35615 0.54558 0.0
H743 H 0.53168 0.34489 0.52359 0.0
H744 H 0.52417 0.38244 0.55605 0.0
H745 H 0.55312 0.34434 0.40088 0.0
H746 H 0.55967 0.3128 0.63052 0.0
H747 H 0.57381 0.30792 0.75171 0.0
H748 H 0.63869 0.2949 0.6697 0.0
H749 H 0.62496 0.29986 0.54779 0.0
C750 C 0.55585 0.24199 0.30658 0.0
C751 C 0.56066 0.2469 0.23523 0.0
C752 C 0.56399 0.2554 0.36033 0.0
C753 C 0.57675 0.27398 0.34318 0.0
C754 C 0.58442 0.2768 0.27353 0.0
C755 C 0.57639 0.26333 0.21973 0.0
C756 C 0.57603 0.29317 0.39088 0.0
C757 C 0.58552 0.29206 0.45864 0.0
C758 C 0.56383 0.31209 0.37085 0.0
C759 C 0.5505 0.31328 0.30525 0.0
C760 C 0.55422 0.33032 0.25584 0.0
C761 C 0.54018 0.33288 0.19785 0.0
C762 C 0.52243 0.31842 0.18859 0.0
C763 C 0.51879 0.30125 0.23689 0.0
C764 C 0.53262 0.2988 0.29546 0.0
C765 C 0.58039 0.3833 0.57276 0.0
C766 C 0.55863 0.39169 0.5722 0.0
C767 C 0.58466 0.36162 0.5513 0.0
C768 C 0.56718 0.34791 0.53089 0.0
C769 C 0.54541 0.3553 0.53898 0.0
C770 C 0.54116 0.377 0.55807 0.0
C771 C 0.57118 0.32862 0.48529 0.0
C772 C 0.5623 0.32977 0.41713 0.0
C773 C 0.58292 0.30956 0.50686 0.0
C774 C 0.59135 0.30701 0.58001 0.0
C775 C 0.57702 0.30919 0.63829 0.0
C776 C 0.58494 0.30633 0.70715 0.0
C777 C 0.60716 0.30123 0.71844 0.0
C778 C 0.6215 0.29891 0.66087 0.0
C779 C 0.61364 0.30171 0.59186 0.0
H780 H 0.61326 0.29896 0.77177 0.0
H781 H 0.51137 0.32068 0.14437 0.0
H782 H 0.27779 0.57286 0.34029 0.0
H783 H 0.26223 0.59025 0.4467 0.0
H784 H 0.20616 0.54632 0.43625 0.0
H785 H 0.22161 0.52901 0.33113 0.0
H786 H 0.22489 0.61285 0.45883 0.0
H787 H 0.18843 0.53127 0.59316 0.0
H788 H 0.2026 0.49511 0.632 0.0
H789 H 0.26901 0.51983 0.62328 0.0
H790 H 0.25529 0.55634 0.58543 0.0
H791 H 0.11682 0.60694 0.47865 0.0
H792 H 0.15621 0.61272 0.47927 0.0
H793 H 0.15925 0.59034 0.69669 0.0
H794 H 0.11991 0.58223 0.69346 0.0
H795 H 0.18516 0.56768 0.63783 0.0
H796 H 0.18537 0.64261 0.63307 0.0
H797 H 0.17467 0.68139 0.61276 0.0
H798 H 0.1863 0.67405 0.38999 0.0
H799 H 0.19667 0.63515 0.40845 0.0
C800 C 0.26223 0.56688 0.36139 0.0
C801 C 0.25073 0.54978 0.3273 0.0
C802 C 0.25345 0.57674 0.42213 0.0
C803 C 0.23327 0.56932 0.4502 0.0
C804 C 0.22202 0.552 0.41658 0.0
C805 C 0.23064 0.54236 0.35577 0.0
C806 C 0.22211 0.58096 0.50899 0.0
C807 C 0.21634 0.6032 0.49892 0.0
C808 C 0.21248 0.56894 0.56546 0.0
C809 C 0.22077 0.54668 0.58629 0.0
C810 C 0.20605 0.52913 0.59986 0.0
C811 C 0.21402 0.50851 0.62157 0.0
C812 C 0.2367 0.50515 0.62985 0.0
C813 C 0.25146 0.52241 0.61635 0.0
C814 C 0.24359 0.54308 0.59461 0.0
C815 C 0.12578 0.60352 0.52702 0.0
C816 C 0.1153 0.59328 0.58486 0.0
C817 C 0.14844 0.6074 0.52811 0.0
C818 C 0.1611 0.60186 0.58803 0.0
C819 C 0.15006 0.5945 0.64935 0.0
C820 C 0.12741 0.59 0.64758 0.0
C821 C 0.18534 0.59845 0.57938 0.0
C822 C 0.194 0.57783 0.5998 0.0
C823 C 0.19817 0.61234 0.53478 0.0
C824 C 0.19199 0.63586 0.52241 0.0
C825 C 0.18559 0.6492 0.57965 0.0
C826 C 0.17956 0.67124 0.56844 0.0
C827 C 0.17986 0.68019 0.50016 0.0
C828 C 0.18618 0.66711 0.44292 0.0
C829 C 0.19223 0.64506 0.4538 0.0
H830 H 0.17516 0.69725 0.49159 0.0
H831 H 0.24282 0.4892 0.64687 0.0
H832 H 0.1026 0.77003 0.27606 0.0
H833 H 0.12733 0.79632 0.21672 0.0
H834 H 0.09137 0.78754 0.02211 0.0
H835 H 0.06705 0.76095 0.08073 0.0
H836 H 0.13461 0.79999 0.99659 0.0
H837 H 0.07205 0.82293 0.14865 0.0
H838 H 0.05269 0.82432 0.26377 0.0
H839 H 0.11019 0.8528 0.35961 0.0
H840 H 0.12994 0.85135 0.24519 0.0
H841 H 0.09105 0.89265 0.83822 0.0
H842 H 0.10661 0.85928 0.88948 0.0
H843 H 0.13936 0.8981 0.04889 0.0
H844 H 0.12286 0.93156 0.99967 0.0
H845 H 0.11344 0.87079 0.10886 0.0
H846 H 0.1689 0.86097 0.93855 0.0
H847 H 0.18664 0.8604 0.82105 0.0
H848 H 0.14289 0.80859 0.75573 0.0
H849 H 0.12464 0.80904 0.87237 0.0
C850 C 0.10061 0.77308 0.2199 0.0
C851 C 0.08274 0.76386 0.18308 0.0
C852 C 0.11475 0.78803 0.18606 0.0
C853 C 0.11081 0.79427 0.11556 0.0
C854 C 0.09466 0.783 0.07662 0.0
C855 C 0.08071 0.76785 0.11018 0.0
C856 C 0.11959 0.81535 0.08707 0.0
C857 C 0.13026 0.81556 0.02105 0.0
C858 C 0.11455 0.83562 0.12042 0.0
C859 C 0.10255 0.83674 0.18881 0.0
C860 C 0.08057 0.82939 0.19441 0.0
C861 C 0.06953 0.8302 0.25946 0.0
C862 C 0.08026 0.83854 0.319 0.0
C863 C 0.10195 0.84626 0.3135 0.0
C864 C 0.11308 0.84544 0.24862 0.0
C865 C 0.10194 0.89416 0.88333 0.0
C866 C 0.10506 0.91466 0.91635 0.0
C867 C 0.11122 0.87504 0.91195 0.0
C868 C 0.12414 0.87608 0.97344 0.0
C869 C 0.12937 0.89686 1.00159 0.0
C870 C 0.11992 0.91602 0.97327 0.0
C871 C 0.12755 0.85566 0.01596 0.0
C872 C 0.11896 0.85547 0.08503 0.0
C873 C 0.13444 0.83554 0.985 0.0
C874 C 0.14538 0.83505 0.91451 0.0
C875 C 0.16297 0.84952 0.89907 0.0
C876 C 0.17313 0.84921 0.83256 0.0
C877 C 0.1659 0.83446 0.78098 0.0
C878 C 0.14851 0.81998 0.79581 0.0
C879 C 0.13828 0.82021 0.86222 0.0
H880 H 0.17379 0.83426 0.72951 0.0
H881 H 0.07178 0.83903 0.36941 0.0
H882 H 0.7244 0.00932 0.11233 0.0
H883 H 0.70795 0.02443 0.00468 0.0
H884 H 0.75687 0.07631 0.99985 0.0
H885 H 0.77365 0.06092 0.10796 0.0
H886 H 0.71348 0.09146 0.9941 0.0
H887 H 0.75748 0.04413 0.86241 0.0
H888 H 0.77789 0.01068 0.82777 0.0
H889 H 0.71687 0.97526 0.80592 0.0
H890 H 0.69607 0.00829 0.84177 0.0
H891 H 0.61378 0.10402 0.78997 0.0
H892 H 0.65455 0.10428 0.79497 0.0
H893 H 0.65325 0.04029 0.89717 0.0
H894 H 0.61314 0.04009 0.89257 0.0
H895 H 0.68738 0.04443 0.79738 0.0
H896 H 0.65305 0.08718 0.99966 0.0
H897 H 0.63162 0.11949 0.0399 0.0
H898 H 0.67512 0.16275 0.92437 0.0
H899 H 0.69668 0.13061 0.88319 0.0
C900 C 0.73173 0.02383 0.08794 0.0
C901 C 0.75009 0.03412 0.1184 0.0
C902 C 0.72257 0.03227 0.02599 0.0
C903 C 0.73148 0.05125 0.99366 0.0
C904 C 0.75001 0.06146 0.02349 0.0
C905 C 0.75945 0.05276 0.08514 0.0
C906 C 0.71915 0.06163 0.93494 0.0
C907 C 0.70847 0.0817 0.9489 0.0
C908 C 0.71285 0.04907 0.87548 0.0
C909 C 0.72517 0.02883 0.85481 0.0
C910 C 0.74839 0.02917 0.85086 0.0
C911 C 0.76004 0.01026 0.83091 0.0
C912 C 0.74869 0.99086 0.8147 0.0
C913 C 0.72565 0.99032 0.81844 0.0
C914 C 0.71391 0.00917 0.83842 0.0
C915 C 0.6224 0.09003 0.8128 0.0
C916 C 0.61054 0.07226 0.84244 0.0
C917 C 0.64554 0.09012 0.81517 0.0
C918 C 0.65684 0.07226 0.84611 0.0
C919 C 0.64487 0.05413 0.8724 0.0
C920 C 0.62197 0.05417 0.87082 0.0
C921 C 0.68072 0.07293 0.86116 0.0
C922 C 0.69359 0.055 0.83896 0.0
C923 C 0.68909 0.08738 0.91297 0.0
C924 C 0.67631 0.1066 0.93808 0.0
C925 C 0.65797 0.1036 0.98285 0.0
C926 C 0.64581 0.12186 0.00575 0.0
C927 C 0.65198 0.14316 0.9846 0.0
C928 C 0.67034 0.14624 0.94061 0.0
C929 C 0.68253 0.12803 0.91746 0.0
H930 H 0.64255 0.15728 1.00237 0.0
H931 H 0.75774 0.97625 0.79914 0.0
H932 H 0.50058 0.72272 0.12899 0.0
H933 H 0.48754 0.70609 0.02003 0.0
H934 H 0.45176 0.76573 0.96862 0.0
H935 H 0.46374 0.78204 0.08009 0.0
H936 H 0.42617 0.7337 0.94876 0.0
H937 H 0.49607 0.74842 0.86679 0.0
H938 H 0.5365 0.75271 0.86481 0.0
H939 H 0.54446 0.68234 0.87697 0.0
H940 H 0.50416 0.67755 0.88219 0.0
H941 H 0.44498 0.6211 0.74188 0.0
H942 H 0.44687 0.66128 0.73491 0.0
H943 H 0.41459 0.66542 0.93863 0.0
H944 H 0.41156 0.62562 0.94353 0.0
H945 H 0.47223 0.68154 0.81135 0.0
H946 H 0.39614 0.71088 0.98758 0.0
H947 H 0.3556 0.70882 0.98083 0.0
H948 H 0.35964 0.69537 0.75843 0.0
H949 H 0.40023 0.69773 0.7633 0.0
C950 C 0.48994 0.73232 0.09458 0.0
C951 C 0.4831 0.75363 0.11356 0.0
C952 C 0.48281 0.72296 0.03146 0.0
C953 C 0.46899 0.73482 0.98519 0.0
C954 C 0.46258 0.75634 1.00305 0.0
C955 C 0.46955 0.76567 0.06666 0.0
C956 C 0.45931 0.72342 0.92327 0.0
C957 C 0.4362 0.72247 0.91789 0.0
C958 C 0.47242 0.71005 0.87855 0.0
C959 C 0.49688 0.71264 0.87479 0.0
C960 C 0.50639 0.73383 0.86978 0.0
C961 C 0.52934 0.73636 0.86841 0.0
C962 C 0.54304 0.71782 0.87076 0.0
C963 C 0.53382 0.6967 0.87496 0.0
C964 C 0.51089 0.69407 0.87724 0.0
C965 C 0.43738 0.63063 0.78365 0.0
C966 C 0.42878 0.62017 0.84452 0.0
C967 C 0.43852 0.65367 0.77962 0.0
C968 C 0.43112 0.66658 0.83645 0.0
C969 C 0.4202 0.65611 0.89329 0.0
C970 C 0.41884 0.63317 0.89689 0.0
C971 C 0.43923 0.68955 0.84597 0.0
C972 C 0.46211 0.69316 0.84033 0.0
C973 C 0.4259 0.70576 0.87873 0.0
C974 C 0.40136 0.7046 0.87576 0.0
C975 C 0.38845 0.70777 0.93695 0.0
C976 C 0.36542 0.70646 0.93352 0.0
C977 C 0.35505 0.70199 0.86924 0.0
C978 C 0.36769 0.69882 0.80822 0.0
C979 C 0.39072 0.70011 0.81131 0.0
H980 H 0.33722 0.70097 0.86674 0.0
H981 H 0.5608 0.71981 0.86918 0.0
H982 H 0.77631 0.43792 0.18364 0.0
H983 H 0.79378 0.42283 0.07836 0.0
H984 H 0.75141 0.4627 0.94621 0.0
H985 H 0.73527 0.47941 0.05081 0.0
H986 H 0.7862 0.40203 0.9561 0.0
H987 H 0.78215 0.48389 0.81262 0.0
H988 H 0.77382 0.52331 0.83281 0.0
H989 H 0.79797 0.51774 0.04567 0.0
H990 H 0.80665 0.47839 0.0263 0.0
H991 H 0.88665 0.45195 0.7317 0.0
H992 H 0.84706 0.44477 0.73973 0.0
H993 H 0.85752 0.40727 0.93174 0.0
H994 H 0.89691 0.41428 0.9236 0.0
H995 H 0.82679 0.4633 0.83869 0.0
H996 H 0.81683 0.37703 0.984 0.0
H997 H 0.82748 0.33837 0.96248 0.0
H998 H 0.83506 0.35237 0.74079 0.0
H999 H 0.82411 0.39105 0.76057 0.0
C1000 C 0.77066 0.44353 0.13229 0.0
C1001 C 0.75489 0.46049 0.12624 0.0
C1002 C 0.78037 0.43452 0.07194 0.0
C1003 C 0.77427 0.44203 0.00434 0.0
C1004 C 0.75668 0.45697 0.99789 0.0
C1005 C 0.74734 0.46642 0.05819 0.0
C1006 C 0.789 0.43728 0.94349 0.0
C1007 C 0.79507 0.41532 0.92978 0.0
C1008 C 0.7997 0.4546 0.90607 0.0
C1009 C 0.79467 0.4782 0.91836 0.0
C1010 C 0.78565 0.49112 0.86367 0.0
C1011 C 0.7809 0.51343 0.87495 0.0
C1012 C 0.78526 0.52299 0.9406 0.0
C1013 C 0.79451 0.5103 0.99496 0.0
C1014 C 0.79936 0.48801 0.98386 0.0
C1015 C 0.88052 0.44149 0.77416 0.0
C1016 C 0.89474 0.43405 0.82795 0.0
C1017 C 0.8579 0.43722 0.77828 0.0
C1018 C 0.84915 0.4255 0.83627 0.0
C1019 C 0.86374 0.416 0.88562 0.0
C1020 C 0.88636 0.42017 0.88132 0.0
C1021 C 0.82554 0.42804 0.85603 0.0
C1022 C 0.81751 0.4497 0.86178 0.0
C1023 C 0.81322 0.41043 0.88594 0.0
C1024 C 0.8196 0.38703 0.87385 0.0
C1025 C 0.82054 0.37186 0.9305 0.0
C1026 C 0.82671 0.34993 0.91863 0.0
C1027 C 0.83195 0.34292 0.85033 0.0
C1028 C 0.83103 0.35783 0.7937 0.0
C1029 C 0.82488 0.37978 0.80525 0.0
H1030 H 0.83673 0.32594 0.84128 0.0
H1031 H 0.78153 0.54026 0.94927 0.0
H1032 H 0.98146 0.25208 0.96949 0.0
H1033 H 0.98608 0.21845 0.89908 0.0
H1034 H 0.03894 0.19761 0.03644 0.0
H1035 H 0.03441 0.23131 0.10632 0.0
H1036 H 0.01845 0.19474 0.82545 0.0
H1037 H 0.02759 0.14456 0.08721 0.0
H1038 H 0.01631 0.14764 0.21243 0.0
H1039 H 0.96188 0.18914 0.15259 0.0
H1040 H 0.97267 0.18611 0.02721 0.0
H1041 H 0.03435 0.06575 0.86845 0.0
H1042 H 0.03519 0.10343 0.91492 0.0
H1043 H 0.98866 0.124 0.75512 0.0
H1044 H 0.98849 0.08667 0.70684 0.0
H1045 H 1.00526 0.12807 0.97375 0.0
H1046 H 0.99171 0.17836 0.72114 0.0
H1047 H 0.99788 0.17564 0.5924 0.0
H1048 H 0.05458 0.13448 0.62838 0.0
H1049 H 0.04883 0.1371 0.75739 0.0
C1050 C 0.99488 0.2409 0.98214 0.0
C1051 C 0.00795 0.24462 0.0424 0.0
C1052 C 0.99734 0.22152 0.94238 0.0
C1053 C 0.01263 0.20525 0.96296 0.0
C1054 C 0.02691 0.20979 0.01969 0.0
C1055 C 0.02458 0.22926 0.05898 0.0
C1056 C 0.01199 0.18269 0.93078 0.0
C1057 C 0.01549 0.18017 0.8578 0.0
C1058 C 0.00781 0.1636 0.9725 0.0
C1059 C 1.00113 0.16531 0.04791 0.0
C1060 C 0.0132 0.1543 0.10082 0.0
C1061 C 0.00688 0.15605 0.17183 0.0
C1062 C 0.98844 0.16865 0.19049 0.0
C1063 C 0.97621 0.17947 0.13816 0.0
C1064 C 0.98246 0.17778 0.06715 0.0
C1065 C 0.02448 0.07835 0.84267 0.0
C1066 C 0.01154 0.07312 0.78334 0.0
C1067 C 0.02491 0.09995 0.86951 0.0
C1068 C 0.01229 0.11691 0.83816 0.0
C1069 C 0.9991 0.11159 0.77942 0.0
C1070 C 0.99893 0.09009 0.75191 0.0
C1071 C 0.01251 0.13986 0.86836 0.0
C1072 C 0.00861 0.14253 0.94127 0.0
C1073 C 0.01575 0.15911 0.82607 0.0
C1074 C 0.01976 0.15782 0.74882 0.0
C1075 C 1.00557 0.16884 0.70155 0.0
C1076 C 0.00897 0.16727 0.62856 0.0
C1077 C 0.02659 0.15486 0.60223 0.0
C1078 C 0.04091 0.14404 0.64886 0.0
C1079 C 0.03758 0.14554 0.72192 0.0
H1080 H 0.02918 0.15365 0.5457 0.0
H1081 H 0.98358 0.16998 0.24546 0.0
H1082 H 0.27957 0.01989 0.10423 0.0
H1083 H 0.31168 0.02348 0.02675 0.0
H1084 H 0.28493 0.97346 0.88964 0.0
H1085 H 0.25288 0.9695 0.96919 0.0
H1086 H 0.3256 0.96368 0.91473 0.0
H1087 H 0.29186 0.02968 0.83537 0.0
H1088 H 0.27274 0.06555 0.84334 0.0
H1089 H 0.32796 0.09286 0.95493 0.0
H1090 H 0.34731 0.05707 0.94852 0.0
H1091 H 0.423 0.97736 0.69837 0.0
H1092 H 0.38474 0.9758 0.7396 0.0
H1093 H 0.39979 0.02302 0.90261 0.0
H1094 H 0.43805 0.02461 0.86177 0.0
H1095 H 0.36196 0.03381 0.84368 0.0
H1096 H 0.39377 0.96463 0.9278 0.0
H1097 H 0.41237 0.92893 0.90957 0.0
H1098 H 0.3589 0.90737 0.77808 0.0
H1099 H 0.34029 0.94329 0.79365 0.0
C1100 C 0.2801 0.01033 0.05595 0.0
C1101 C 0.2634 0.99483 0.04186 0.0
C1102 C 0.29858 0.0123 0.01157 0.0
C1103 C 0.30089 0.9989 0.95138 0.0
C1104 C 0.28366 0.98408 0.93539 0.0
C1105 C 0.26513 0.98205 0.98021 0.0
C1106 C 0.32213 0.9991 0.90975 0.0
C1107 C 0.33329 0.97904 0.89804 0.0
C1108 C 0.33251 0.01902 0.88784 0.0
C1109 C 0.32097 0.04062 0.89188 0.0
C1110 C 0.29986 0.04329 0.86207 0.0
C1111 C 0.28899 0.06361 0.86623 0.0
C1112 C 0.29911 0.08146 0.89974 0.0
C1113 C 0.32014 0.07902 0.92902 0.0
C1114 C 0.33108 0.05872 0.92504 0.0
C1115 C 0.41819 0.98748 0.74292 0.0
C1116 C 0.43376 1.00114 0.77661 0.0
C1117 C 0.39618 0.98656 0.7666 0.0
C1118 C 0.3891 0.99933 0.82447 0.0
C1119 C 0.40463 0.01306 0.85772 0.0
C1120 C 0.42664 0.01388 0.83443 0.0
C1121 C 0.3657 0.99852 0.85123 0.0
C1122 C 0.35412 0.01847 0.85989 0.0
C1123 C 0.35482 0.97848 0.86926 0.0
C1124 C 0.36577 0.95674 0.86127 0.0
C1125 C 0.38606 0.95234 0.89456 0.0
C1126 C 0.39662 0.93207 0.88456 0.0
C1127 C 0.38686 0.91591 0.84235 0.0
C1128 C 0.36648 0.91996 0.81037 0.0
C1129 C 0.35594 0.94029 0.81963 0.0
H1130 H 0.39502 0.90022 0.83451 0.0
H1131 H 0.29067 0.09718 0.9029 0.0
H1132 H 0.53509 0.25739 0.95222 0.0
H1133 H 0.52913 0.29264 0.89038 0.0
H1134 H 0.48135 0.31118 0.049 0.0
H1135 H 0.48689 0.27566 0.10925 0.0
H1136 H 0.4695 0.32913 0.93039 0.0
H1137 H 0.539 0.32255 0.05056 0.0
H1138 H 0.57604 0.30793 0.07723 0.0
H1139 H 0.59776 0.32553 0.86782 0.0
H1140 H 0.56064 0.33988 0.83993 0.0
H1141 H 0.47823 0.44662 0.90884 0.0
H1142 H 0.47889 0.4078 0.94686 0.0
H1143 H 0.52641 0.39329 0.78315 0.0
H1144 H 0.52651 0.43214 0.74766 0.0
H1145 H 0.53815 0.37266 0.89645 0.0
H1146 H 0.46993 0.37825 0.77229 0.0
H1147 H 0.4333 0.39351 0.74293 0.0
H1148 H 0.41009 0.378 0.95231 0.0
H1149 H 0.44669 0.36292 0.98328 0.0
C1150 C 0.5226 0.26861 0.97196 0.0
C1151 C 0.51114 0.26357 0.03483 0.0
C1152 C 0.51947 0.28898 0.93731 0.0
C1153 C 0.50529 0.3051 0.96598 0.0
C1154 C 0.49252 0.29928 0.02568 0.0
C1155 C 0.49553 0.27883 0.05995 0.0
C1156 C 0.50498 0.32846 0.93793 0.0
C1157 C 0.48455 0.33864 0.92362 0.0
C1158 C 0.5246 0.341 0.92688 0.0
C1159 C 0.54691 0.33211 0.94318 0.0
C1160 C 0.55163 0.32319 0.01028 0.0
C1161 C 0.57264 0.31491 0.02551 0.0
C1162 C 0.58925 0.31572 0.9741 0.0
C1163 C 0.58485 0.32481 0.90748 0.0
C1164 C 0.5638 0.333 0.89197 0.0
C1165 C 0.48883 0.43516 0.881 0.0
C1166 C 0.50197 0.44251 0.82393 0.0
C1167 C 0.48907 0.41284 0.90242 0.0
C1168 C 0.50236 0.39724 0.86715 0.0
C1169 C 0.51581 0.40473 0.81113 0.0
C1170 C 0.51564 0.427 0.79006 0.0
C1171 C 0.5027 0.3733 0.88931 0.0
C1172 C 0.52313 0.36306 0.90265 0.0
C1173 C 0.48317 0.36065 0.89873 0.0
C1174 C 0.46112 0.36965 0.88031 0.0
C1175 C 0.45707 0.37825 0.81225 0.0
C1176 C 0.4363 0.38684 0.79529 0.0
C1177 C 0.4194 0.38678 0.84578 0.0
C1178 C 0.42321 0.37807 0.91329 0.0
C1179 C 0.44396 0.36948 0.93056 0.0
H1180 H 0.40333 0.39344 0.83254 0.0
H1181 H 0.60554 0.30935 0.98594 0.0
H1182 H 0.24319 0.48372 0.08356 0.0
H1183 H 0.21254 0.47761 1.00076 0.0
H1184 H 0.20063 0.54783 0.99202 0.0
H1185 H 0.23126 0.55389 0.07331 0.0
H1186 H 0.17123 0.48419 0.02263 0.0
H1187 H 0.17388 0.56329 0.83917 0.0
H1188 H 0.20115 0.58519 0.77175 0.0
H1189 H 0.24688 0.53105 0.77933 0.0
H1190 H 0.21974 0.5086 0.84536 0.0
H1191 H 0.06352 0.50795 0.90856 0.0
H1192 H 0.10081 0.50831 0.95703 0.0
H1193 H 0.12783 0.5038 0.746 0.0
H1194 H 0.09039 0.50489 0.69715 0.0
H1195 H 0.15273 0.52877 0.81004 0.0
H1196 H 0.12577 0.45812 0.87466 0.0
H1197 H 0.10006 0.43041 0.92421 0.0
H1198 H 0.10699 0.45893 0.13041 0.0
H1199 H 0.13252 0.487 0.08196 0.0
C1200 C 0.23447 0.49786 0.06212 0.0
C1201 C 0.23969 0.51928 0.08508 0.0
C1202 C 0.21678 0.49437 0.01524 0.0
C1203 C 0.20409 0.51224 0.98962 0.0
C1204 C 0.21017 0.53372 0.00971 0.0
C1205 C 0.22769 0.53718 0.05664 0.0
C1206 C 0.18323 0.50854 0.94836 0.0
C1207 C 0.16731 0.49388 0.97588 0.0
C1208 C 0.17808 0.52061 0.8859 0.0
C1209 C 0.19483 0.53434 0.8483 0.0
C1210 C 0.18975 0.55603 0.82659 0.0
C1211 C 0.20519 0.56855 0.78847 0.0
C1212 C 0.22578 0.55956 0.7716 0.0
C1213 C 0.23097 0.53804 0.7928 0.0
C1214 C 0.21558 0.52542 0.83072 0.0
C1215 C 0.0774 0.50698 0.87241 0.0
C1216 C 0.07392 0.50622 0.79893 0.0
C1217 C 0.09884 0.50699 0.90031 0.0
C1218 C 0.11746 0.50547 0.85573 0.0
C1219 C 0.11395 0.50489 0.78206 0.0
C1220 C 0.09247 0.50544 0.75402 0.0
C1221 C 0.14044 0.50508 0.88597 0.0
C1222 C 0.15673 0.51898 0.85649 0.0
C1223 C 0.14626 0.49167 0.94497 0.0
C1224 C 0.13095 0.47477 0.97451 0.0
C1225 C 0.12171 0.45857 0.93049 0.0
C1226 C 0.10718 0.44279 0.9584 0.0
C1227 C 0.10186 0.44294 0.03039 0.0
C1228 C 0.11111 0.45885 0.07465 0.0
C1229 C 0.12564 0.47468 0.04701 0.0
H1230 H 0.09062 0.4307 0.05191 0.0
H1231 H 0.23766 0.56924 0.74181 0.0
H1232 H 0.05552 0.77356 0.42748 0.0
H1233 H 0.04562 0.80631 0.49545 0.0
H1234 H 0.9835 0.81026 0.38544 0.0
H1235 H 0.99375 0.77759 0.31507 0.0
H1236 H 0.0357 0.84806 0.41614 0.0
H1237 H 0.9491 0.83575 0.53067 0.0
H1238 H 0.92459 0.80562 0.57128 0.0
H1239 H 0.98105 0.76662 0.62903 0.0
H1240 H 1.00586 0.79663 0.58974 0.0
H1241 H 0.99156 0.95094 0.53286 0.0
H1242 H 0.99368 0.91435 0.47917 0.0
H1243 H 0.01098 0.88594 0.68114 0.0
H1244 H 0.00912 0.92265 0.73543 0.0
H1245 H 0.97973 0.86005 0.60401 0.0
H1246 H 0.04978 0.89694 0.56622 0.0
H1247 H 0.07447 0.92653 0.52312 0.0
H1248 H 0.05261 0.91561 0.31028 0.0
H1249 H 0.02738 0.8863 0.35226 0.0
C1250 C 0.03942 0.78094 0.41928 0.0
C1251 C 0.02539 0.77289 0.36595 0.0
C1252 C 0.03387 0.7998 0.4578 0.0
C1253 C 0.01392 0.8109 0.44525 0.0
C1254 C 0.99898 0.80194 0.39615 0.0
C1255 C 1.00472 0.7831 0.35655 0.0
C1256 C 0.01008 0.8329 0.4786 0.0
C1257 C 0.02341 0.8507 0.45702 0.0
C1258 C 0.99401 0.8364 0.53185 0.0
C1259 C 0.97932 0.81833 0.55641 0.0
C1260 C 0.95627 0.82076 0.55219 0.0
C1261 C 0.94233 0.80371 0.57499 0.0
C1262 C 0.95126 0.78418 0.60245 0.0
C1263 C 0.97415 0.7817 0.60741 0.0
C1264 C 0.98816 0.79871 0.58473 0.0
C1265 C 0.99561 0.93693 0.56628 0.0
C1266 C 1.00019 0.93986 0.63871 0.0
C1267 C 0.99687 0.91597 0.53528 0.0
C1268 C 1.0026 0.89732 0.57587 0.0
C1269 C 0.00648 0.90003 0.64865 0.0
C1270 C 1.00548 0.92107 0.67962 0.0
C1271 C 1.00552 0.87525 0.54174 0.0
C1272 C 0.99198 0.85747 0.56288 0.0
C1273 C 0.0214 0.87176 0.48763 0.0
C1274 C 0.03643 0.8896 0.4626 0.0
C1275 C 0.05 0.90103 0.51036 0.0
C1276 C 0.06413 0.91773 0.48609 0.0
C1277 C 0.06505 0.92298 0.41404 0.0
C1278 C 0.05183 0.91156 0.36611 0.0
C1279 C 0.03759 0.89492 0.39013 0.0
H1280 H 0.07608 0.93582 0.39525 0.0
H1281 H 0.94044 0.771 0.62005 0.0
H1282 H 0.73593 0.04423 0.38597 0.0
H1283 H 0.70306 0.04101 0.46109 0.0
H1284 H 0.70339 0.97038 0.43239 0.0
H1285 H 0.73635 0.97372 0.35662 0.0
H1286 H 0.66377 0.98754 0.40097 0.0
H1287 H 0.71347 0.99461 0.59795 0.0
H1288 H 0.74356 0.01221 0.6649 0.0
H1289 H 0.70585 0.07208 0.67902 0.0
H1290 H 0.6756 0.05493 0.61158 0.0
H1291 H 0.56844 0.96832 0.60624 0.0
H1292 H 0.60639 0.96825 0.56253 0.0
H1293 H 0.61246 0.03738 0.61359 0.0
H1294 H 0.57471 0.0371 0.6613 0.0
H1295 H 0.64989 0.01992 0.63735 0.0
H1296 H 0.60172 0.01536 0.43697 0.0
H1297 H 0.57191 1.00022 0.36292 0.0
H1298 H 0.60675 0.93865 0.34703 0.0
H1299 H 0.63657 0.95329 0.42203 0.0
C1300 C 0.72949 0.02793 0.39807 0.0
C1301 C 0.73902 0.00917 0.36668 0.0
C1302 C 0.71059 0.02609 0.44086 0.0
C1303 C 0.70062 1.00542 0.45314 0.0
C1304 C 0.71072 0.98652 0.4242 0.0
C1305 C 0.72975 0.98837 0.3816 0.0
C1306 C 0.67859 1.00388 0.48975 0.0
C1307 C 0.66087 0.99422 0.45333 0.0
C1308 C 0.67441 0.01339 0.55693 0.0
C1309 C 0.69235 0.02354 0.59903 0.0
C1310 C 0.71164 0.01157 0.61498 0.0
C1311 C 0.72872 0.02146 0.65305 0.0
C1312 C 0.72666 0.04328 0.67583 0.0
C1313 C 0.70746 0.05522 0.66099 0.0
C1314 C 0.69031 0.04539 0.62308 0.0
C1315 C 0.57787 0.98351 0.60855 0.0
C1316 C 0.56838 1.00277 0.63677 0.0
C1317 C 0.59963 0.98351 0.58291 0.0
C1318 C 0.61237 1.00298 0.58224 0.0
C1319 C 0.60314 0.02211 0.61266 0.0
C1320 C 0.58147 0.02197 0.63999 0.0
C1321 C 0.63499 1.00344 0.54863 0.0
C1322 C 0.65278 0.01302 0.58532 0.0
C1323 C 0.63922 0.99418 0.48097 0.0
C1324 C 0.62127 0.98535 0.43579 0.0
C1325 C 0.60294 0.99854 0.41815 0.0
C1326 C 0.58604 0.99004 0.37598 0.0
C1327 C 0.58738 0.96845 0.35052 0.0
C1328 C 0.60567 0.95534 0.367 0.0
C1329 C 0.62258 0.96373 0.40932 0.0
H1330 H 0.57429 0.96189 0.31787 0.0
H1331 H 0.73991 0.05092 0.70526 0.0
H1332 H 0.45958 0.73527 0.35851 0.0
H1333 H 0.45981 0.70339 0.43853 0.0
H1334 H 0.52899 0.71414 0.47981 0.0
H1335 H 0.52866 0.74637 0.39975 0.0
H1336 H 0.48071 0.66672 0.41779 0.0
H1337 H 0.54312 0.68978 0.63772 0.0
H1338 H 0.55443 0.7229 0.70404 0.0
H1339 H 0.49031 0.75153 0.67239 0.0
H1340 H 0.47857 0.71856 0.60627 0.0
H1341 H 0.52144 0.56879 0.56758 0.0
H1342 H 0.5193 0.60608 0.51865 0.0
H1343 H 0.48286 0.62747 0.70198 0.0
H1344 H 0.48485 0.58989 0.75177 0.0
H1345 H 0.51137 0.65958 0.66 0.0
H1346 H 0.45599 0.61604 0.54935 0.0
H1347 H 0.44111 0.58365 0.48689 0.0
H1348 H 0.48355 0.59733 0.30955 0.0
H1349 H 0.49897 0.6296 0.37147 0.0
C1350 C 0.47469 0.73126 0.3864 0.0
C1351 C 0.49406 0.7435 0.37313 0.0
C1352 C 0.47487 0.71285 0.43175 0.0
C1353 C 0.49443 0.70605 0.46534 0.0
C1354 C 0.51357 0.71903 0.45541 0.0
C1355 C 0.51338 0.73758 0.40987 0.0
C1356 C 0.49508 0.68439 0.50497 0.0
C1357 C 0.48745 0.66528 0.47074 0.0
C1358 C 0.50337 0.68225 0.57485 0.0
C1359 C 0.5101 0.70185 0.61616 0.0
C1360 C 0.53142 0.70312 0.64507 0.0
C1361 C 0.53792 0.72189 0.68244 0.0
C1362 C 0.52317 0.7394 0.69168 0.0
C1363 C 0.50179 0.73805 0.66452 0.0
C1364 C 0.49522 0.71936 0.62695 0.0
C1365 C 0.51298 0.58134 0.59794 0.0
C1366 C 0.50314 0.5761 0.66356 0.0
C1367 C 0.51174 0.60277 0.56964 0.0
C1368 C 0.50053 0.61966 0.60576 0.0
C1369 C 0.49139 0.61475 0.6726 0.0
C1370 C 0.49253 0.59319 0.70097 0.0
C1371 C 0.49757 0.64198 0.57179 0.0
C1372 C 0.50469 0.66112 0.60701 0.0
C1373 C 0.48827 0.64431 0.50335 0.0
C1374 C 0.47877 0.62514 0.46531 0.0
C1375 C 0.46224 0.61207 0.49719 0.0
C1376 C 0.45371 0.59373 0.46189 0.0
C1377 C 0.46141 0.58841 0.39436 0.0
C1378 C 0.47762 0.60146 0.3619 0.0
C1379 C 0.48625 0.61979 0.39705 0.0
H1380 H 0.4548 0.57419 0.36714 0.0
H1381 H 0.52827 0.75397 0.72024 0.0
H1382 H 0.78202 0.46063 0.36937 0.0
H1383 H 0.81437 0.46648 0.44322 0.0
H1384 H 0.80314 0.53684 0.43577 0.0
H1385 H 0.77087 0.53097 0.35934 0.0
H1386 H 0.84397 0.53017 0.40926 0.0
H1387 H 0.79844 0.50556 0.59672 0.0
H1388 H 0.77209 0.48265 0.66463 0.0
H1389 H 0.81607 0.4272 0.65093 0.0
H1390 H 0.8427 0.44977 0.58277 0.0
H1391 H 0.92721 0.5119 0.72736 0.0
H1392 H 0.88957 0.51167 0.68069 0.0
H1393 H 0.91551 0.50577 0.46873 0.0
H1394 H 0.95312 0.50684 0.51518 0.0
H1395 H 0.8649 0.48495 0.61825 0.0
H1396 H 0.8825 0.52729 0.34606 0.0
H1397 H 0.90747 0.55557 0.29579 0.0
H1398 H 0.91555 0.58418 0.50144 0.0
H1399 H 0.89041 0.55627 0.55278 0.0
C1400 C 0.78619 0.47737 0.38435 0.0
C1401 C 0.77386 0.49535 0.35795 0.0
C1402 C 0.80469 0.4807 0.42727 0.0
C1403 C 0.81138 0.50213 0.44591 0.0
C1404 C 0.79847 0.52011 0.42233 0.0
C1405 C 0.77986 0.51676 0.37913 0.0
C1406 C 0.83284 0.50559 0.48415 0.0
C1407 C 0.84843 0.52034 0.45522 0.0
C1408 C 0.83876 0.49327 0.54538 0.0
C1409 C 0.82249 0.47933 0.58405 0.0
C1410 C 0.8024 0.48842 0.60752 0.0
C1411 C 0.78745 0.47551 0.64632 0.0
C1412 C 0.79239 0.45347 0.66198 0.0
C1413 C 0.81225 0.44427 0.63862 0.0
C1414 C 0.82731 0.45713 0.6001 0.0
C1415 C 0.9249 0.51059 0.6708 0.0
C1416 C 0.94326 0.50951 0.6251 0.0
C1417 C 0.90328 0.51045 0.644 0.0
C1418 C 0.89941 0.50909 0.57073 0.0
C1419 C 0.91781 0.50751 0.52521 0.0
C1420 C 0.93941 0.50801 0.55192 0.0
C1421 C 0.87624 0.50905 0.54201 0.0
C1422 C 0.86038 0.49489 0.57258 0.0
C1423 C 0.86979 0.52254 0.48393 0.0
C1424 C 0.88472 0.53955 0.45332 0.0
C1425 C 0.88953 0.53967 0.38049 0.0
C1426 C 0.90372 0.55563 0.35183 0.0
C1427 C 0.91314 0.57162 0.39543 0.0
C1428 C 0.90831 0.57174 0.46776 0.0
C1429 C 0.89411 0.55585 0.49668 0.0
H1430 H 0.92414 0.58394 0.37314 0.0
H1431 H 0.78085 0.44355 0.69234 0.0
loop_
_geom_bond_atom_site_label_1
_geom_bond_atom_site_label_2
_geom_bond_distance
_geom_bond_site_symmetry_2
_ccdc_geom_bond_type
H0 C3 0.931 . S
H1 C6 0.928 . S
H2 C8 0.930 . S
C3 H0 0.931 . S
C3 C4 1.413 . S
C3 C5 1.360 . S
C4 C3 1.413 . S
C4 C8 1.429 . S
C5 C3 1.360 . S
C5 C6 1.372 . S
C6 H1 0.928 . S
C6 C5 1.372 . S
C6 C7 1.404 . S
C7 C6 1.404 . S
C7 C8 1.391 . S
C8 H2 0.930 . S
C8 C4 1.429 . S
C8 C7 1.391 . S
H9 C12 0.931 . S
H10 C15 0.928 . S
H11 C17 0.930 . S
C12 H9 0.931 . S
C12 C13 1.413 . S
C12 C14 1.360 . S
C13 C12 1.413 . S
C13 C17 1.429 1_655 S
C14 C12 1.360 . S
C14 C15 1.372 . S
C15 H10 0.928 . S
C15 C14 1.372 . S
C15 C16 1.404 . S
C16 C15 1.404 . S
C16 C17 1.390 1_655 S
C17 H11 0.930 . S
C17 C13 1.429 1_455 S
C17 C16 1.390 1_455 S
H18 C21 0.931 . S
H19 C24 0.928 . S
H20 C26 0.930 . S
C21 H18 0.931 . S
C21 C22 1.413 . S
C21 C23 1.360 . S
C22 C21 1.413 . S
C22 C26 1.429 1_565 S
C23 C21 1.360 . S
C23 C24 1.372 . S
C24 H19 0.928 . S
C24 C23 1.372 . S
C24 C25 1.404 . S
C25 C24 1.404 . S
C25 C26 1.390 1_565 S
C26 H20 0.930 . S
C26 C22 1.429 1_545 S
C26 C25 1.390 1_545 S
H27 C30 0.931 . S
H28 C33 0.928 . S
H29 C35 0.930 . S
C30 H27 0.931 . S
C30 C31 1.413 . S
C30 C32 1.360 . S
C31 C30 1.413 . S
C31 C35 1.429 . S
C32 C30 1.360 . S
C32 C33 1.372 . S
C33 H28 0.928 . S
C33 C32 1.372 . S
C33 C34 1.404 . S
C34 C33 1.404 . S
C34 C35 1.391 . S
C35 H29 0.930 . S
C35 C31 1.429 . S
C35 C34 1.391 . S
H36 C39 0.931 . S
H37 C42 0.928 . S
H38 C44 0.930 1_556 S
C39 H36 0.931 . S
C39 C40 1.413 1_554 S
C39 C41 1.360 . S
C40 C39 1.413 1_556 S
C40 C44 1.429 1_556 S
C41 C39 1.360 . S
C41 C42 1.372 . S
C42 H37 0.928 . S
C42 C41 1.372 . S
C42 C43 1.404 . S
C43 C42 1.404 . S
C43 C44 1.391 . S
C44 H38 0.930 1_554 S
C44 C40 1.429 1_554 S
C44 C43 1.391 . S
H45 C48 0.931 . S
H46 C51 0.928 . S
H47 C53 0.930 1_556 S
C48 H45 0.931 . S
C48 C49 1.413 1_554 S
C48 C50 1.360 . S
C49 C48 1.413 1_556 S
C49 C53 1.429 1_656 S
C50 C48 1.360 . S
C50 C51 1.372 . S
C51 H46 0.928 . S
C51 C50 1.372 . S
C51 C52 1.404 . S
C52 C51 1.404 . S
C52 C53 1.391 1_655 S
C53 H47 0.930 1_554 S
C53 C49 1.429 1_454 S
C53 C52 1.391 1_455 S
H54 C57 0.931 . S
H55 C60 0.928 . S
H56 C62 0.930 1_556 S
C57 H54 0.931 . S
C57 C58 1.413 1_554 S
C57 C59 1.360 . S
C58 C57 1.413 1_556 S
C58 C62 1.429 1_566 S
C59 C57 1.360 . S
C59 C60 1.372 . S
C60 H55 0.928 . S
C60 C59 1.372 . S
C60 C61 1.404 . S
C61 C60 1.404 . S
C61 C62 1.391 1_565 S
C62 H56 0.930 1_554 S
C62 C58 1.429 1_544 S
C62 C61 1.391 1_545 S
H63 C66 0.931 . S
H64 C69 0.928 . S
H65 C71 0.930 . S
C66 H63 0.931 . S
C66 C67 1.413 . S
C66 C68 1.360 1_554 S
C67 C66 1.413 . S
C67 C71 1.429 . S
C68 C66 1.360 1_556 S
C68 C69 1.372 . S
C69 H64 0.928 . S
C69 C68 1.372 . S
C69 C70 1.404 1_556 S
C70 C69 1.404 1_554 S
C70 C71 1.391 . S
C71 H65 0.930 . S
C71 C67 1.429 . S
C71 C70 1.391 . S
Tb72 C74 2.809 . S
Tb72 O92 2.484 . S
Tb72 O93 2.440 . S
Tb72 O94 2.658 1_565 S
Tb72 O95 2.409 . S
Tb72 O96 2.378 . S
Tb72 O100 2.325 1_455 S
Tb72 O103 2.341 1_565 S
Tb73 C83 2.809 . S
Tb73 O94 2.325 1_655 S
Tb73 O97 2.341 1_545 S
Tb73 O98 2.484 . S
Tb73 O99 2.440 . S
Tb73 O100 2.658 1_545 S
Tb73 O101 2.409 . S
Tb73 O102 2.378 . S
C74 Tb72 2.809 . S
C74 C75 1.514 . S
C74 O92 1.248 . S
C74 O93 1.266 . S
C75 C74 1.514 . S
C75 C76 1.359 . S
C75 C80 1.348 . S
C76 C75 1.359 . S
C76 C77 1.380 . S
C76 H104 0.929 1_455 S
C77 C76 1.380 . S
C77 C78 1.347 . S
C77 H105 0.931 1_455 S
C78 C77 1.347 . S
C78 C79 1.369 . S
C79 C78 1.369 . S
C79 C80 1.408 . S
C79 H106 0.930 . S
C80 C75 1.348 . S
C80 C79 1.408 . S
C80 H107 0.930 . S
C81 O94 1.281 1_565 S
C81 O95 1.254 . S
C82 O96 1.236 1_655 S
C82 O97 1.266 . S
C83 Tb73 2.809 . S
C83 C84 1.514 . S
C83 O98 1.248 . S
C83 O99 1.266 . S
C84 C83 1.514 . S
C84 C85 1.359 . S
C84 C89 1.348 . S
C85 C84 1.359 . S
C85 C86 1.380 . S
C85 H108 0.929 1_655 S
C86 C85 1.380 . S
C86 C87 1.347 . S
C86 H109 0.931 1_655 S
C87 C86 1.347 . S
C87 C88 1.369 . S
C88 C87 1.369 . S
C88 C89 1.408 . S
C88 H110 0.930 . S
C89 C84 1.348 . S
C89 C88 1.408 . S
C89 H111 0.930 . S
C90 O100 1.281 1_545 S
C90 O101 1.254 . S
C91 O102 1.236 1_455 S
C91 O103 1.266 . S
O92 Tb72 2.484 . S
O92 C74 1.248 . S
O93 Tb72 2.440 . S
O93 C74 1.266 . S
O94 Tb72 2.658 1_545 S
O94 Tb73 2.325 1_455 S
O94 C81 1.281 1_545 S
O95 Tb72 2.409 . S
O95 C81 1.254 . S
O96 Tb72 2.378 . S
O96 C82 1.236 1_455 S
O97 Tb73 2.341 1_565 S
O97 C82 1.266 . S
O98 Tb73 2.484 . S
O98 C83 1.248 . S
O99 Tb73 2.440 . S
O99 C83 1.266 . S
O100 Tb72 2.325 1_655 S
O100 Tb73 2.658 1_565 S
O100 C90 1.281 1_565 S
O101 Tb73 2.409 . S
O101 C90 1.254 . S
O102 Tb73 2.378 . S
O102 C91 1.236 1_655 S
O103 Tb72 2.341 1_545 S
O103 C91 1.266 . S
H104 C76 0.929 1_655 S
H105 C77 0.931 1_655 S
H106 C79 0.930 . S
H107 C80 0.930 . S
H108 C85 0.929 1_455 S
H109 C86 0.931 1_455 S
H110 C88 0.930 . S
H111 C89 0.930 . S
Tb112 C114 2.809 . S
Tb112 O132 2.484 . S
Tb112 O133 2.440 . S
Tb112 O134 2.658 . S
Tb112 O135 2.409 . S
Tb112 O136 2.378 . S
Tb112 O140 2.325 1_545 S
Tb112 O143 2.341 . S
Tb113 C123 2.809 . S
Tb113 O134 2.325 1_565 S
Tb113 O137 2.341 . S
Tb113 O138 2.484 . S
Tb113 O139 2.440 . S
Tb113 O140 2.658 . S
Tb113 O141 2.409 . S
Tb113 O142 2.378 . S
C114 Tb112 2.809 . S
C114 C115 1.514 . S
C114 O132 1.248 . S
C114 O133 1.266 . S
C115 C114 1.514 . S
C115 C116 1.359 . S
C115 C120 1.348 . S
C116 C115 1.359 . S
C116 C117 1.380 . S
C116 H144 0.929 1_545 S
C117 C116 1.380 . S
C117 C118 1.347 . S
C117 H145 0.931 1_545 S
C118 C117 1.347 . S
C118 C119 1.369 . S
C119 C118 1.369 . S
C119 C120 1.408 . S
C119 H146 0.930 . S
C120 C115 1.348 . S
C120 C119 1.408 . S
C120 H147 0.930 . S
C121 O134 1.281 . S
C121 O135 1.254 . S
C122 O136 1.236 1_565 S
C122 O137 1.266 . S
C123 Tb113 2.809 . S
C123 C124 1.514 . S
C123 O138 1.248 . S
C123 O139 1.266 . S
C124 C123 1.514 . S
C124 C125 1.359 . S
C124 C129 1.348 . S
C125 C124 1.359 . S
C125 C126 1.380 . S
C125 H148 0.929 1_565 S
C126 C125 1.380 . S
C126 C127 1.347 . S
C126 H149 0.931 1_565 S
C127 C126 1.347 . S
C127 C128 1.369 . S
C128 C127 1.369 . S
C128 C129 1.408 . S
C128 H150 0.930 . S
C129 C124 1.348 . S
C129 C128 1.408 . S
C129 H151 0.930 . S
C130 O140 1.281 . S
C130 O141 1.254 . S
C131 O142 1.236 1_545 S
C131 O143 1.266 . S
O132 Tb112 2.484 . S
O132 C114 1.248 . S
O133 Tb112 2.440 . S
O133 C114 1.266 . S
O134 Tb112 2.658 . S
O134 Tb113 2.325 1_545 S
O134 C121 1.281 . S
O135 Tb112 2.409 . S
O135 C121 1.254 . S
O136 Tb112 2.378 . S
O136 C122 1.236 1_545 S
O137 Tb113 2.341 . S
O137 C122 1.266 . S
O138 Tb113 2.484 . S
O138 C123 1.248 . S
O139 Tb113 2.440 . S
O139 C123 1.266 . S
O140 Tb112 2.325 1_565 S
O140 Tb113 2.658 . S
O140 C130 1.281 . S
O141 Tb113 2.409 . S
O141 C130 1.254 . S
O142 Tb113 2.378 . S
O142 C131 1.236 1_565 S
O143 Tb112 2.341 . S
O143 C131 1.266 . S
H144 C116 0.929 1_565 S
H145 C117 0.931 1_565 S
H146 C119 0.930 . S
H147 C120 0.930 . S
H148 C125 0.929 1_545 S
H149 C126 0.931 1_545 S
H150 C128 0.930 . S
H151 C129 0.930 . S
Tb152 C154 2.809 . S
Tb152 O172 2.484 . S
Tb152 O173 2.440 . S
Tb152 O174 2.658 . S
Tb152 O175 2.409 . S
Tb152 O176 2.378 . S
Tb152 O180 2.325 . S
Tb152 O183 2.341 . S
Tb153 C163 2.809 . S
Tb153 O174 2.325 . S
Tb153 O177 2.341 . S
Tb153 O178 2.484 . S
Tb153 O179 2.440 . S
Tb153 O180 2.658 . S
Tb153 O181 2.409 . S
Tb153 O182 2.378 . S
C154 Tb152 2.809 . S
C154 C155 1.514 . S
C154 O172 1.248 . S
C154 O173 1.266 . S
C155 C154 1.514 . S
C155 C156 1.359 . S
C155 C160 1.348 . S
C156 C155 1.359 . S
C156 C157 1.380 . S
C156 H184 0.929 . S
C157 C156 1.380 . S
C157 C158 1.347 . S
C157 H185 0.931 . S
C158 C157 1.347 . S
C158 C159 1.369 . S
C159 C158 1.369 . S
C159 C160 1.408 . S
C159 H186 0.930 . S
C160 C155 1.348 . S
C160 C159 1.408 . S
C160 H187 0.930 . S
C161 O174 1.281 . S
C161 O175 1.254 . S
C162 O176 1.236 . S
C162 O177 1.266 . S
C163 Tb153 2.809 . S
C163 C164 1.514 . S
C163 O178 1.248 . S
C163 O179 1.266 . S
C164 C163 1.514 . S
C164 C165 1.359 . S
C164 C169 1.348 . S
C165 C164 1.359 . S
C165 C166 1.380 . S
C165 H188 0.929 . S
C166 C165 1.380 . S
C166 C167 1.347 . S
C166 H189 0.931 . S
C167 C166 1.347 . S
C167 C168 1.369 . S
C168 C167 1.369 . S
C168 C169 1.408 . S
C168 H190 0.930 . S
C169 C164 1.348 . S
C169 C168 1.408 . S
C169 H191 0.930 . S
C170 O180 1.281 . S
C170 O181 1.254 . S
C171 O182 1.236 . S
C171 O183 1.266 . S
O172 Tb152 2.484 . S
O172 C154 1.248 . S
O173 Tb152 2.440 . S
O173 C154 1.266 . S
O174 Tb152 2.658 . S
O174 Tb153 2.325 . S
O174 C161 1.281 . S
O175 Tb152 2.409 . S
O175 C161 1.254 . S
O176 Tb152 2.378 . S
O176 C162 1.236 . S
O177 Tb153 2.341 . S
O177 C162 1.266 . S
O178 Tb153 2.484 . S
O178 C163 1.248 . S
O179 Tb153 2.440 . S
O179 C163 1.266 . S
O180 Tb152 2.325 . S
O180 Tb153 2.658 . S
O180 C170 1.281 . S
O181 Tb153 2.409 . S
O181 C170 1.254 . S
O182 Tb153 2.378 . S
O182 C171 1.236 . S
O183 Tb152 2.341 . S
O183 C171 1.266 . S
H184 C156 0.929 . S
H185 C157 0.931 . S
H186 C159 0.930 . S
H187 C160 0.930 . S
H188 C165 0.929 . S
H189 C166 0.931 . S
H190 C168 0.930 . S
H191 C169 0.930 . S
Tb192 C194 2.809 . S
Tb192 O212 2.484 . S
Tb192 O213 2.440 . S
Tb192 O214 2.658 1_655 S
Tb192 O215 2.409 . S
Tb192 O216 2.378 . S
Tb192 O220 2.325 . S
Tb192 O223 2.341 1_655 S
Tb193 C203 2.809 . S
Tb193 O214 2.325 . S
Tb193 O217 2.341 1_455 S
Tb193 O218 2.484 . S
Tb193 O219 2.440 . S
Tb193 O220 2.658 1_455 S
Tb193 O221 2.409 . S
Tb193 O222 2.378 . S
C194 Tb192 2.809 . S
C194 C195 1.514 . S
C194 O212 1.248 . S
C194 O213 1.266 . S
C195 C194 1.514 . S
C195 C196 1.359 . S
C195 C200 1.348 . S
C196 C195 1.359 . S
C196 C197 1.380 . S
C196 H224 0.929 . S
C197 C196 1.380 . S
C197 C198 1.347 . S
C197 H225 0.931 . S
C198 C197 1.347 . S
C198 C199 1.369 . S
C199 C198 1.369 . S
C199 C200 1.408 . S
C199 H226 0.930 . S
C200 C195 1.348 . S
C200 C199 1.408 . S
C200 H227 0.930 . S
C201 O214 1.275 1_655 S
C201 O215 1.261 . S
C202 O216 1.236 . S
C202 O217 1.266 . S
C203 Tb193 2.809 . S
C203 C204 1.514 . S
C203 O218 1.248 . S
C203 O219 1.266 . S
C204 C203 1.514 . S
C204 C205 1.359 . S
C204 C209 1.348 . S
C205 C204 1.359 . S
C205 C206 1.380 . S
C205 H228 0.929 . S
C206 C205 1.380 . S
C206 C207 1.347 . S
C206 H229 0.931 . S
C207 C206 1.347 . S
C207 C208 1.369 . S
C208 C207 1.369 . S
C208 C209 1.408 . S
C208 H230 0.930 . S
C209 C204 1.348 . S
C209 C208 1.408 . S
C209 H231 0.930 . S
C210 O220 1.271 1_455 S
C210 O221 1.267 . S
C211 O222 1.236 . S
C211 O223 1.266 . S
O212 Tb192 2.484 . S
O212 C194 1.248 . S
O213 Tb192 2.440 . S
O213 C194 1.266 . S
O214 Tb192 2.658 1_455 S
O214 Tb193 2.325 . S
O214 C201 1.275 1_455 S
O215 Tb192 2.409 . S
O215 C201 1.261 . S
O216 Tb192 2.378 . S
O216 C202 1.236 . S
O217 Tb193 2.341 1_655 S
O217 C202 1.266 . S
O218 Tb193 2.484 . S
O218 C203 1.248 . S
O219 Tb193 2.440 . S
O219 C203 1.266 . S
O220 Tb192 2.325 . S
O220 Tb193 2.658 1_655 S
O220 C210 1.271 1_655 S
O221 Tb193 2.409 . S
O221 C210 1.267 . S
O222 Tb193 2.378 . S
O222 C211 1.236 . S
O223 Tb192 2.341 1_455 S
O223 C211 1.266 . S
H224 C196 0.929 . S
H225 C197 0.931 . S
H226 C199 0.930 . S
H227 C200 0.930 . S
H228 C205 0.929 . S
H229 C206 0.931 . S
H230 C208 0.930 . S
H231 C209 0.930 . S
H232 C250 0.951 . S
H233 C252 0.951 . S
H234 C254 0.950 . S
H235 C255 0.950 . S
H236 C257 0.950 . S
H237 C260 0.950 . S
H238 C261 0.950 . S
H239 C263 0.950 . S
H240 C264 0.950 . S
H241 C265 0.951 . S
H242 C267 0.951 . S
H243 C269 0.950 . S
H244 C270 0.950 . S
H245 C272 0.950 . S
H246 C275 0.950 . S
H247 C276 0.950 . S
H248 C278 0.950 . S
H249 C279 0.950 . S
C250 H232 0.951 . S
C250 C251 1.364 1_565 S
C250 C252 1.388 . S
C251 C250 1.364 1_545 S
C251 C255 1.386 . S
C252 H233 0.951 . S
C252 C250 1.388 . S
C252 C253 1.383 . S
C253 C252 1.383 . S
C253 C254 1.396 1_565 S
C253 C256 1.498 . S
C254 H234 0.950 . S
C254 C253 1.396 1_545 S
C254 C255 1.374 . S
C255 H235 0.950 . S
C255 C251 1.386 . S
C255 C254 1.374 . S
C256 C253 1.498 . S
C256 C257 1.348 1_565 S
C256 C258 1.414 . S
C257 H236 0.950 . S
C257 C256 1.348 1_545 S
C257 C273 1.377 . S
C258 C256 1.414 . S
C258 C259 1.524 . S
C258 C272 1.377 . S
C259 C258 1.524 . S
C259 C260 1.397 . S
C259 C264 1.363 . S
C260 H237 0.950 . S
C260 C259 1.397 . S
C260 C261 1.334 . S
C261 H238 0.950 . S
C261 C260 1.334 . S
C261 C262 1.287 . S
C262 C261 1.287 . S
C262 C263 1.524 . S
C262 H281 0.913 . S
C263 H239 0.950 . S
C263 C262 1.524 . S
C263 C264 1.415 . S
C264 H240 0.950 . S
C264 C259 1.363 . S
C264 C263 1.415 . S
C265 H241 0.951 . S
C265 C266 1.371 . S
C265 C267 1.388 . S
C266 C265 1.371 . S
C266 C270 1.380 1_545 S
C267 H242 0.951 . S
C267 C265 1.388 . S
C267 C268 1.366 . S
C268 C267 1.366 . S
C268 C269 1.414 1_545 S
C268 C271 1.499 . S
C269 H243 0.950 . S
C269 C268 1.414 1_565 S
C269 C270 1.374 . S
C270 H244 0.950 . S
C270 C266 1.380 1_565 S
C270 C269 1.374 . S
C271 C268 1.499 . S
C271 C272 1.373 1_545 S
C271 C273 1.389 . S
C272 H245 0.950 . S
C272 C258 1.377 . S
C272 C271 1.373 1_565 S
C273 C257 1.377 . S
C273 C271 1.389 . S
C273 C274 1.524 . S
C274 C273 1.524 . S
C274 C275 1.397 . S
C274 C279 1.363 . S
C275 H246 0.950 . S
C275 C274 1.397 . S
C275 C276 1.334 . S
C276 H247 0.950 . S
C276 C275 1.334 . S
C276 C277 1.287 . S
C277 C276 1.287 . S
C277 C278 1.524 . S
C277 H280 0.999 . S
C278 H248 0.950 . S
C278 C277 1.524 . S
C278 C279 1.415 . S
C279 H249 0.950 . S
C279 C274 1.363 . S
C279 C278 1.415 . S
H280 C277 0.999 . S
H281 C262 0.913 . S
H282 C300 0.951 . S
H283 C302 0.951 . S
H284 C304 0.950 . S
H285 C305 0.950 . S
H286 C307 0.950 . S
H287 C310 0.950 . S
H288 C311 0.950 . S
H289 C313 0.950 . S
H290 C314 0.950 . S
H291 C315 0.951 . S
H292 C317 0.951 . S
H293 C319 0.950 . S
H294 C320 0.950 . S
H295 C322 0.950 . S
H296 C325 0.950 . S
H297 C326 0.950 . S
H298 C328 0.950 . S
H299 C329 0.950 . S
C300 H282 0.951 . S
C300 C301 1.366 . S
C300 C302 1.388 . S
C301 C300 1.366 . S
C301 C305 1.385 . S
C302 H283 0.951 . S
C302 C300 1.388 . S
C302 C303 1.366 . S
C303 C302 1.366 . S
C303 C304 1.414 . S
C303 C306 1.499 . S
C304 H284 0.950 . S
C304 C303 1.414 . S
C304 C305 1.374 . S
C305 H285 0.950 . S
C305 C301 1.385 . S
C305 C304 1.374 . S
C306 C303 1.499 . S
C306 C307 1.373 . S
C306 C308 1.389 . S
C307 H286 0.950 . S
C307 C306 1.373 . S
C307 C323 1.377 . S
C308 C306 1.389 . S
C308 C309 1.524 . S
C308 C322 1.377 . S
C309 C308 1.524 . S
C309 C310 1.397 . S
C309 C314 1.363 . S
C310 H287 0.950 . S
C310 C309 1.397 . S
C310 C311 1.334 . S
C311 H288 0.950 . S
C311 C310 1.334 . S
C311 C312 1.287 . S
C312 C311 1.287 . S
C312 C313 1.524 . S
C312 H331 0.913 . S
C313 H289 0.950 . S
C313 C312 1.524 . S
C313 C314 1.415 . S
C314 H290 0.950 . S
C314 C309 1.363 . S
C314 C313 1.415 . S
C315 H291 0.951 . S
C315 C316 1.366 . S
C315 C317 1.388 . S
C316 C315 1.366 . S
C316 C320 1.385 . S
C317 H292 0.951 . S
C317 C315 1.388 . S
C317 C318 1.366 . S
C318 C317 1.366 . S
C318 C319 1.414 . S
C318 C321 1.499 . S
C319 H293 0.950 . S
C319 C318 1.414 . S
C319 C320 1.374 . S
C320 H294 0.950 . S
C320 C316 1.385 . S
C320 C319 1.374 . S
C321 C318 1.499 . S
C321 C322 1.373 . S
C321 C323 1.389 . S
C322 H295 0.950 . S
C322 C308 1.377 . S
C322 C321 1.373 . S
C323 C307 1.377 . S
C323 C321 1.389 . S
C323 C324 1.524 . S
C324 C323 1.524 . S
C324 C325 1.397 . S
C324 C329 1.363 . S
C325 H296 0.950 . S
C325 C324 1.397 . S
C325 C326 1.334 . S
C326 H297 0.950 . S
C326 C325 1.334 . S
C326 C327 1.287 . S
C327 C326 1.287 . S
C327 C328 1.524 . S
C327 H330 0.999 . S
C328 H298 0.950 . S
C328 C327 1.524 . S
C328 C329 1.415 . S
C329 H299 0.950 . S
C329 C324 1.363 . S
C329 C328 1.415 . S
H330 C327 0.999 . S
H331 C312 0.913 . S
H332 C350 0.951 . S
H333 C352 0.951 . S
H334 C354 0.950 . S
H335 C355 0.950 . S
H336 C357 0.950 . S
H337 C360 0.950 . S
H338 C361 0.950 . S
H339 C363 0.950 . S
H340 C364 0.950 . S
H341 C365 0.951 . S
H342 C367 0.951 . S
H343 C369 0.950 . S
H344 C370 0.950 . S
H345 C372 0.950 . S
H346 C375 0.950 . S
H347 C376 0.950 . S
H348 C378 0.950 . S
H349 C379 0.950 . S
C350 H332 0.951 . S
C350 C351 1.366 . S
C350 C352 1.388 . S
C351 C350 1.366 . S
C351 C355 1.385 . S
C352 H333 0.951 . S
C352 C350 1.388 . S
C352 C353 1.366 . S
C353 C352 1.366 . S
C353 C354 1.414 . S
C353 C356 1.499 . S
C354 H334 0.950 . S
C354 C353 1.414 . S
C354 C355 1.374 . S
C355 H335 0.950 . S
C355 C351 1.385 . S
C355 C354 1.374 . S
C356 C353 1.499 . S
C356 C357 1.373 . S
C356 C358 1.389 . S
C357 H336 0.950 . S
C357 C356 1.373 . S
C357 C373 1.377 . S
C358 C356 1.389 . S
C358 C359 1.524 . S
C358 C372 1.377 . S
C359 C358 1.524 . S
C359 C360 1.397 . S
C359 C364 1.363 . S
C360 H337 0.950 . S
C360 C359 1.397 . S
C360 C361 1.334 . S
C361 H338 0.950 . S
C361 C360 1.334 . S
C361 C362 1.287 . S
C362 C361 1.287 . S
C362 C363 1.524 . S
C362 H381 0.913 . S
C363 H339 0.950 . S
C363 C362 1.524 . S
C363 C364 1.415 . S
C364 H340 0.950 . S
C364 C359 1.363 . S
C364 C363 1.415 . S
C365 H341 0.951 . S
C365 C366 1.366 . S
C365 C367 1.388 . S
C366 C365 1.366 . S
C366 C370 1.385 . S
C367 H342 0.951 . S
C367 C365 1.388 . S
C367 C368 1.366 . S
C368 C367 1.366 . S
C368 C369 1.414 . S
C368 C371 1.499 . S
C369 H343 0.950 . S
C369 C368 1.414 . S
C369 C370 1.374 . S
C370 H344 0.950 . S
C370 C366 1.385 . S
C370 C369 1.374 . S
C371 C368 1.499 . S
C371 C372 1.373 . S
C371 C373 1.389 . S
C372 H345 0.950 . S
C372 C358 1.377 . S
C372 C371 1.373 . S
C373 C357 1.377 . S
C373 C371 1.389 . S
C373 C374 1.524 . S
C374 C373 1.524 . S
C374 C375 1.397 . S
C374 C379 1.363 . S
C375 H346 0.950 . S
C375 C374 1.397 . S
C375 C376 1.334 . S
C376 H347 0.950 . S
C376 C375 1.334 . S
C376 C377 1.287 . S
C377 C376 1.287 . S
C377 C378 1.524 . S
C377 H380 0.999 . S
C378 H348 0.950 . S
C378 C377 1.524 . S
C378 C379 1.415 . S
C379 H349 0.950 . S
C379 C374 1.363 . S
C379 C378 1.415 . S
H380 C377 0.999 . S
H381 C362 0.913 . S
H382 C400 0.951 . S
H383 C402 0.951 . S
H384 C404 0.950 . S
H385 C405 0.950 . S
H386 C407 0.950 . S
H387 C410 0.950 . S
H388 C411 0.950 . S
H389 C413 0.950 . S
H390 C414 0.950 . S
H391 C415 0.951 . S
H392 C417 0.951 . S
H393 C419 0.950 . S
H394 C420 0.950 . S
H395 C422 0.950 . S
H396 C425 0.950 . S
H397 C426 0.950 . S
H398 C428 0.950 . S
H399 C429 0.950 . S
C400 H382 0.951 . S
C400 C401 1.365 1_655 S
C400 C402 1.388 . S
C401 C400 1.365 1_455 S
C401 C405 1.385 . S
C402 H383 0.951 . S
C402 C400 1.388 . S
C402 C403 1.366 1_655 S
C403 C402 1.366 1_455 S
C403 C404 1.414 . S
C403 C406 1.499 . S
C404 H384 0.950 . S
C404 C403 1.414 . S
C404 C405 1.374 . S
C405 H385 0.950 . S
C405 C401 1.385 . S
C405 C404 1.374 . S
C406 C403 1.499 . S
C406 C407 1.373 1_455 S
C406 C408 1.389 . S
C407 H386 0.950 . S
C407 C406 1.373 1_655 S
C407 C423 1.377 . S
C408 C406 1.389 . S
C408 C409 1.524 . S
C408 C422 1.377 . S
C409 C408 1.524 . S
C409 C410 1.397 . S
C409 C414 1.363 . S
C410 H387 0.950 . S
C410 C409 1.397 . S
C410 C411 1.334 . S
C411 H388 0.950 . S
C411 C410 1.334 . S
C411 C412 1.287 . S
C412 C411 1.287 . S
C412 C413 1.524 . S
C412 H431 0.913 . S
C413 H389 0.950 . S
C413 C412 1.524 . S
C413 C414 1.415 . S
C414 H390 0.950 . S
C414 C409 1.363 . S
C414 C413 1.415 . S
C415 H391 0.951 . S
C415 C416 1.366 . S
C415 C417 1.388 . S
C416 C415 1.366 . S
C416 C420 1.385 1_455 S
C417 H392 0.951 . S
C417 C415 1.388 . S
C417 C418 1.363 1_455 S
C418 C417 1.363 1_655 S
C418 C419 1.416 . S
C418 C421 1.498 . S
C419 H393 0.950 . S
C419 C418 1.416 . S
C419 C420 1.374 . S
C420 H394 0.950 . S
C420 C416 1.385 1_655 S
C420 C419 1.374 . S
C421 C418 1.498 . S
C421 C422 1.358 1_655 S
C421 C423 1.404 . S
C422 H395 0.950 . S
C422 C408 1.377 . S
C422 C421 1.358 1_455 S
C423 C407 1.377 . S
C423 C421 1.404 . S
C423 C424 1.524 . S
C424 C423 1.524 . S
C424 C425 1.397 . S
C424 C429 1.363 . S
C425 H396 0.950 . S
C425 C424 1.397 . S
C425 C426 1.334 . S
C426 H397 0.950 . S
C426 C425 1.334 . S
C426 C427 1.287 . S
C427 C426 1.287 . S
C427 C428 1.524 . S
C427 H430 0.999 . S
C428 H398 0.950 . S
C428 C427 1.524 . S
C428 C429 1.415 . S
C429 H399 0.950 . S
C429 C424 1.363 . S
C429 C428 1.415 . S
H430 C427 0.999 . S
H431 C412 0.913 . S
H432 C450 0.951 . S
H433 C452 0.951 . S
H434 C454 0.950 . S
H435 C455 0.950 . S
H436 C457 0.950 . S
H437 C460 0.949 1_545 S
H438 C461 0.950 1_545 S
H439 C463 0.950 . S
H440 C464 0.950 . S
H441 C465 0.951 . S
H442 C467 0.951 . S
H443 C469 0.950 . S
H444 C470 0.950 . S
H445 C472 0.950 . S
H446 C475 0.953 1_565 S
H447 C476 0.950 1_565 S
H448 C478 0.950 . S
H449 C479 0.950 . S
C450 H432 0.951 . S
C450 C451 1.367 1_565 S
C450 C452 1.388 . S
C451 C450 1.367 1_545 S
C451 C455 1.383 . S
C452 H433 0.951 . S
C452 C450 1.388 . S
C452 C453 1.351 1_565 S
C453 C452 1.351 1_545 S
C453 C454 1.429 . S
C453 C456 1.499 . S
C454 H434 0.950 . S
C454 C453 1.429 . S
C454 C455 1.374 . S
C455 H435 0.950 . S
C455 C451 1.383 . S
C455 C454 1.374 . S
C456 C453 1.499 . S
C456 C457 1.373 . S
C456 C458 1.389 1_545 S
C457 H436 0.950 . S
C457 C456 1.373 . S
C457 C473 1.377 . S
C458 C456 1.389 1_565 S
C458 C459 1.524 . S
C458 C472 1.377 . S
C459 C458 1.524 . S
C459 C460 1.397 . S
C459 C464 1.363 . S
C460 H437 0.949 1_565 S
C460 C459 1.397 . S
C460 C461 1.334 . S
C461 H438 0.950 1_565 S
C461 C460 1.334 . S
C461 C462 1.287 . S
C462 C461 1.287 . S
C462 C463 1.524 . S
C462 H481 0.913 . S
C463 H439 0.950 . S
C463 C462 1.524 . S
C463 C464 1.415 . S
C464 H440 0.950 . S
C464 C459 1.363 . S
C464 C463 1.415 . S
C465 H441 0.951 . S
C465 C466 1.363 1_545 S
C465 C467 1.388 . S
C466 C465 1.363 1_565 S
C466 C470 1.387 . S
C467 H442 0.951 . S
C467 C465 1.388 . S
C467 C468 1.347 1_545 S
C468 C467 1.347 1_565 S
C468 C469 1.432 . S
C468 C471 1.499 1_556 S
C469 H443 0.950 . S
C469 C468 1.432 . S
C469 C470 1.374 . S
C470 H444 0.950 . S
C470 C466 1.387 . S
C470 C469 1.374 . S
C471 C468 1.499 1_554 S
C471 C472 1.373 . S
C471 C473 1.389 1_565 S
C472 H445 0.950 . S
C472 C458 1.377 . S
C472 C471 1.373 . S
C473 C457 1.377 . S
C473 C471 1.389 1_545 S
C473 C474 1.524 1_554 S
C474 C473 1.524 1_556 S
C474 C475 1.394 . S
C474 C479 1.363 . S
C475 H446 0.953 1_545 S
C475 C474 1.394 . S
C475 C476 1.333 . S
C476 H447 0.950 1_545 S
C476 C475 1.333 . S
C476 C477 1.287 . S
C477 C476 1.287 . S
C477 C478 1.524 . S
C477 H480 0.999 . S
C478 H448 0.950 . S
C478 C477 1.524 . S
C478 C479 1.415 . S
C479 H449 0.950 . S
C479 C474 1.363 . S
C479 C478 1.415 . S
H480 C477 0.999 . S
H481 C462 0.913 . S
H482 C500 0.951 . S
H483 C502 0.951 . S
H484 C504 0.950 . S
H485 C505 0.950 . S
H486 C507 0.950 . S
H487 C510 0.950 . S
H488 C511 0.950 . S
H489 C513 0.950 . S
H490 C514 0.950 . S
H491 C515 0.951 . S
H492 C517 0.951 . S
H493 C519 0.950 . S
H494 C520 0.950 . S
H495 C522 0.950 . S
H496 C525 0.950 . S
H497 C526 0.950 . S
H498 C528 0.950 . S
H499 C529 0.950 . S
C500 H482 0.951 . S
C500 C501 1.366 . S
C500 C502 1.388 . S
C501 C500 1.366 . S
C501 C505 1.385 . S
C502 H483 0.951 . S
C502 C500 1.388 . S
C502 C503 1.366 . S
C503 C502 1.366 . S
C503 C504 1.414 . S
C503 C506 1.499 . S
C504 H484 0.950 . S
C504 C503 1.414 . S
C504 C505 1.374 . S
C505 H485 0.950 . S
C505 C501 1.385 . S
C505 C504 1.374 . S
C506 C503 1.499 . S
C506 C507 1.373 . S
C506 C508 1.389 . S
C507 H486 0.950 . S
C507 C506 1.373 . S
C507 C523 1.377 . S
C508 C506 1.389 . S
C508 C509 1.524 . S
C508 C522 1.377 . S
C509 C508 1.524 . S
C509 C510 1.397 . S
C509 C514 1.363 . S
C510 H487 0.950 . S
C510 C509 1.397 . S
C510 C511 1.334 . S
C511 H488 0.950 . S
C511 C510 1.334 . S
C511 C512 1.287 . S
C512 C511 1.287 . S
C512 C513 1.524 . S
C512 H531 0.913 . S
C513 H489 0.950 . S
C513 C512 1.524 . S
C513 C514 1.415 . S
C514 H490 0.950 . S
C514 C509 1.363 . S
C514 C513 1.415 . S
C515 H491 0.951 . S
C515 C516 1.366 . S
C515 C517 1.388 . S
C516 C515 1.366 . S
C516 C520 1.385 . S
C517 H492 0.951 . S
C517 C515 1.388 . S
C517 C518 1.366 . S
C518 C517 1.366 . S
C518 C519 1.414 . S
C518 C521 1.499 1_556 S
C519 H493 0.950 . S
C519 C518 1.414 . S
C519 C520 1.374 . S
C520 H494 0.950 . S
C520 C516 1.385 . S
C520 C519 1.374 . S
C521 C518 1.499 1_554 S
C521 C522 1.373 . S
C521 C523 1.389 . S
C522 H495 0.950 . S
C522 C508 1.377 . S
C522 C521 1.373 . S
C523 C507 1.377 . S
C523 C521 1.389 . S
C523 C524 1.524 1_554 S
C524 C523 1.524 1_556 S
C524 C525 1.397 . S
C524 C529 1.363 . S
C525 H496 0.950 . S
C525 C524 1.397 . S
C525 C526 1.334 . S
C526 H497 0.950 . S
C526 C525 1.334 . S
C526 C527 1.287 . S
C527 C526 1.287 . S
C527 C528 1.524 . S
C527 H530 0.999 . S
C528 H498 0.950 . S
C528 C527 1.524 . S
C528 C529 1.415 . S
C529 H499 0.950 . S
C529 C524 1.363 . S
C529 C528 1.415 . S
H530 C527 0.999 . S
H531 C512 0.913 . S
H532 C550 0.951 . S
H533 C552 0.951 . S
H534 C554 0.950 . S
H535 C555 0.950 . S
H536 C557 0.950 . S
H537 C560 0.950 . S
H538 C561 0.950 . S
H539 C563 0.950 . S
H540 C564 0.950 . S
H541 C565 0.951 . S
H542 C567 0.951 . S
H543 C569 0.950 . S
H544 C570 0.950 . S
H545 C572 0.950 1_556 S
H546 C575 0.950 . S
H547 C576 0.950 . S
H548 C578 0.950 . S
H549 C579 0.950 . S
C550 H532 0.951 . S
C550 C551 1.366 . S
C550 C552 1.388 . S
C551 C550 1.366 . S
C551 C555 1.385 . S
C552 H533 0.951 . S
C552 C550 1.388 . S
C552 C553 1.366 . S
C553 C552 1.366 . S
C553 C554 1.414 . S
C553 C556 1.499 . S
C554 H534 0.950 . S
C554 C553 1.414 . S
C554 C555 1.374 . S
C555 H535 0.950 . S
C555 C551 1.385 . S
C555 C554 1.374 . S
C556 C553 1.499 . S
C556 C557 1.373 . S
C556 C558 1.389 . S
C557 H536 0.950 . S
C557 C556 1.373 . S
C557 C573 1.377 . S
C558 C556 1.389 . S
C558 C559 1.524 . S
C558 C572 1.377 . S
C559 C558 1.524 . S
C559 C560 1.397 . S
C559 C564 1.363 . S
C560 H537 0.950 . S
C560 C559 1.397 . S
C560 C561 1.334 . S
C561 H538 0.950 . S
C561 C560 1.334 . S
C561 C562 1.287 . S
C562 C561 1.287 . S
C562 C563 1.524 . S
C562 H581 0.913 . S
C563 H539 0.950 . S
C563 C562 1.524 . S
C563 C564 1.415 . S
C564 H540 0.950 . S
C564 C559 1.363 . S
C564 C563 1.415 . S
C565 H541 0.951 . S
C565 C566 1.366 . S
C565 C567 1.388 . S
C566 C565 1.366 . S
C566 C570 1.385 . S
C567 H542 0.951 . S
C567 C565 1.388 . S
C567 C568 1.366 . S
C568 C567 1.366 . S
C568 C569 1.414 . S
C568 C571 1.499 1_556 S
C569 H543 0.950 . S
C569 C568 1.414 . S
C569 C570 1.374 . S
C570 H544 0.950 . S
C570 C566 1.385 . S
C570 C569 1.374 . S
C571 C568 1.499 1_554 S
C571 C572 1.373 . S
C571 C573 1.389 . S
C572 H545 0.950 1_554 S
C572 C558 1.377 . S
C572 C571 1.373 . S
C573 C557 1.377 . S
C573 C571 1.389 . S
C573 C574 1.524 . S
C574 C573 1.524 . S
C574 C575 1.397 . S
C574 C579 1.363 . S
C575 H546 0.950 . S
C575 C574 1.397 . S
C575 C576 1.334 . S
C576 H547 0.950 . S
C576 C575 1.334 . S
C576 C577 1.287 . S
C577 C576 1.287 . S
C577 C578 1.524 . S
C577 H580 0.999 . S
C578 H548 0.950 . S
C578 C577 1.524 . S
C578 C579 1.415 . S
C579 H549 0.950 . S
C579 C574 1.363 . S
C579 C578 1.415 . S
H580 C577 0.999 . S
H581 C562 0.913 . S
H582 C600 0.951 . S
H583 C602 0.951 . S
H584 C604 0.950 . S
H585 C605 0.950 . S
H586 C607 0.950 . S
H587 C610 0.950 . S
H588 C611 0.950 . S
H589 C613 0.950 . S
H590 C614 0.950 . S
H591 C615 0.951 . S
H592 C617 0.951 . S
H593 C619 0.950 . S
H594 C620 0.950 . S
H595 C622 0.950 . S
H596 C625 0.950 . S
H597 C626 0.950 . S
H598 C628 0.948 1_455 S
H599 C629 0.950 . S
C600 H582 0.951 . S
C600 C601 1.369 . S
C600 C602 1.388 . S
C601 C600 1.369 . S
C601 C605 1.381 1_655 S
C602 H583 0.951 . S
C602 C600 1.388 . S
C602 C603 1.352 1_655 S
C603 C602 1.352 1_455 S
C603 C604 1.427 . S
C603 C606 1.498 . S
C604 H584 0.950 . S
C604 C603 1.427 . S
C604 C605 1.374 . S
C605 H585 0.950 . S
C605 C601 1.381 1_455 S
C605 C604 1.374 . S
C606 C603 1.498 . S
C606 C607 1.369 1_455 S
C606 C608 1.392 . S
C607 H586 0.950 . S
C607 C606 1.369 1_655 S
C607 C623 1.377 1_554 S
C608 C606 1.392 . S
C608 C609 1.524 . S
C608 C622 1.377 . S
C609 C608 1.524 . S
C609 C610 1.397 . S
C609 C614 1.363 1_455 S
C610 H587 0.950 . S
C610 C609 1.397 . S
C610 C611 1.334 . S
C611 H588 0.950 . S
C611 C610 1.334 . S
C611 C612 1.287 . S
C612 C611 1.287 . S
C612 C613 1.524 1_455 S
C612 H631 0.913 . S
C613 H589 0.950 . S
C613 C612 1.524 1_655 S
C613 C614 1.415 . S
C614 H590 0.950 . S
C614 C609 1.363 1_655 S
C614 C613 1.415 . S
C615 H591 0.951 . S
C615 C616 1.366 1_455 S
C615 C617 1.388 . S
C616 C615 1.366 1_655 S
C616 C620 1.385 . S
C617 H592 0.951 . S
C617 C615 1.388 . S
C617 C618 1.366 1_455 S
C618 C617 1.366 1_655 S
C618 C619 1.414 . S
C618 C621 1.499 1_556 S
C619 H593 0.950 . S
C619 C618 1.414 . S
C619 C620 1.374 . S
C620 H594 0.950 . S
C620 C616 1.385 . S
C620 C619 1.374 . S
C621 C618 1.499 1_554 S
C621 C622 1.372 1_655 S
C621 C623 1.389 1_554 S
C622 H595 0.950 . S
C622 C608 1.377 . S
C622 C621 1.372 1_455 S
C623 C607 1.377 1_556 S
C623 C621 1.389 1_556 S
C623 C624 1.524 . S
C624 C623 1.524 . S
C624 C625 1.397 . S
C624 C629 1.363 1_655 S
C625 H596 0.950 . S
C625 C624 1.397 . S
C625 C626 1.334 . S
C626 H597 0.950 . S
C626 C625 1.334 . S
C626 C627 1.287 . S
C627 C626 1.287 . S
C627 C628 1.526 . S
C627 H630 0.999 . S
C628 H598 0.948 1_655 S
C628 C627 1.526 . S
C628 C629 1.414 1_655 S
C629 H599 0.950 . S
C629 C624 1.363 1_455 S
C629 C628 1.414 1_455 S
H630 C627 0.999 . S
H631 C612 0.913 . S
H632 C650 0.951 . S
H633 C652 0.948 1_455 S
H634 C654 0.950 . S
H635 C655 0.950 . S
H636 C657 0.950 1_455 S
H637 C660 0.950 . S
H638 C661 0.950 . S
H639 C663 0.950 . S
H640 C664 0.950 . S
H641 C665 0.951 . S
H642 C667 0.951 . S
H643 C669 0.950 . S
H644 C670 0.950 . S
H645 C672 0.950 . S
H646 C675 0.950 . S
H647 C676 0.950 . S
H648 C678 0.950 . S
H649 C679 0.950 1_655 S
C650 H632 0.951 . S
C650 C651 1.366 . S
C650 C652 1.383 1_455 S
C651 C650 1.366 . S
C651 C655 1.385 1_455 S
C652 H633 0.948 1_655 S
C652 C650 1.383 1_655 S
C652 C653 1.374 . S
C653 C652 1.374 . S
C653 C654 1.414 . S
C653 C656 1.499 . S
C654 H634 0.950 . S
C654 C653 1.414 . S
C654 C655 1.374 . S
C655 H635 0.950 . S
C655 C651 1.385 1_655 S
C655 C654 1.374 . S
C656 C653 1.499 . S
C656 C657 1.373 . S
C656 C658 1.389 . S
C657 H636 0.950 1_655 S
C657 C656 1.373 . S
C657 C673 1.377 . S
C658 C656 1.389 . S
C658 C659 1.524 . S
C658 C672 1.377 . S
C659 C658 1.524 . S
C659 C660 1.397 . S
C659 C664 1.363 . S
C660 H637 0.950 . S
C660 C659 1.397 . S
C660 C661 1.334 . S
C661 H638 0.950 . S
C661 C660 1.334 . S
C661 C662 1.287 . S
C662 C661 1.287 . S
C662 C663 1.524 . S
C662 H681 0.913 . S
C663 H639 0.950 . S
C663 C662 1.524 . S
C663 C664 1.415 . S
C664 H640 0.950 . S
C664 C659 1.363 . S
C664 C663 1.415 . S
C665 H641 0.951 . S
C665 C666 1.366 . S
C665 C667 1.388 . S
C666 C665 1.366 . S
C666 C670 1.385 . S
C667 H642 0.951 . S
C667 C665 1.388 . S
C667 C668 1.366 . S
C668 C667 1.366 . S
C668 C669 1.414 . S
C668 C671 1.499 . S
C669 H643 0.950 . S
C669 C668 1.414 . S
C669 C670 1.374 . S
C670 H644 0.950 . S
C670 C666 1.385 . S
C670 C669 1.374 . S
C671 C668 1.499 . S
C671 C672 1.373 . S
C671 C673 1.389 . S
C672 H645 0.950 . S
C672 C658 1.377 . S
C672 C671 1.373 . S
C673 C657 1.377 . S
C673 C671 1.389 . S
C673 C674 1.524 1_655 S
C674 C673 1.524 1_455 S
C674 C675 1.397 . S
C674 C679 1.363 . S
C675 H646 0.950 . S
C675 C674 1.397 . S
C675 C676 1.334 . S
C676 H647 0.950 . S
C676 C675 1.334 . S
C676 C677 1.287 . S
C677 C676 1.287 . S
C677 C678 1.524 . S
C677 H680 0.999 . S
C678 H648 0.950 . S
C678 C677 1.524 . S
C678 C679 1.415 . S
C679 H649 0.950 1_455 S
C679 C674 1.363 . S
C679 C678 1.415 . S
H680 C677 0.999 . S
H681 C662 0.913 . S
H682 C700 0.951 . S
H683 C702 0.951 . S
H684 C704 0.950 . S
H685 C705 0.950 . S
H686 C707 0.950 . S
H687 C710 0.950 . S
H688 C711 0.950 1_556 S
H689 C713 0.950 . S
H690 C714 0.950 . S
H691 C715 0.951 . S
H692 C717 0.951 . S
H693 C719 0.950 1_545 S
H694 C720 0.979 . S
H695 C722 0.950 . S
H696 C725 0.985 . S
H697 C726 0.950 . S
H698 C728 0.950 . S
H699 C729 0.950 . S
C700 H682 0.951 . S
C700 C701 1.366 . S
C700 C702 1.388 . S
C701 C700 1.366 . S
C701 C705 1.385 1_545 S
C702 H683 0.951 . S
C702 C700 1.388 . S
C702 C703 1.366 1_545 S
C703 C702 1.366 1_565 S
C703 C704 1.414 . S
C703 C706 1.499 . S
C704 H684 0.950 . S
C704 C703 1.414 . S
C704 C705 1.374 . S
C705 H685 0.950 . S
C705 C701 1.385 1_565 S
C705 C704 1.374 . S
C706 C703 1.499 . S
C706 C707 1.373 . S
C706 C708 1.389 . S
C707 H686 0.950 . S
C707 C706 1.373 . S
C707 C723 1.377 . S
C708 C706 1.389 . S
C708 C709 1.524 . S
C708 C722 1.377 . S
C709 C708 1.524 . S
C709 C710 1.397 . S
C709 C714 1.363 1_565 S
C710 H687 0.950 . S
C710 C709 1.397 . S
C710 C711 1.334 . S
C711 H688 0.950 1_554 S
C711 C710 1.334 . S
C711 C712 1.287 1_565 S
C712 C711 1.287 1_545 S
C712 C713 1.524 . S
C712 H731 0.913 1_554 S
C713 H689 0.950 . S
C713 C712 1.524 . S
C713 C714 1.415 . S
C714 H690 0.950 . S
C714 C709 1.363 1_545 S
C714 C713 1.415 . S
C715 H691 0.951 . S
C715 C716 1.366 . S
C715 C717 1.388 . S
C716 C715 1.366 . S
C716 C720 1.385 . S
C717 H692 0.951 . S
C717 C715 1.388 . S
C717 C718 1.366 . S
C718 C717 1.366 . S
C718 C719 1.414 . S
C718 C721 1.499 . S
C719 H693 0.950 1_565 S
C719 C718 1.414 . S
C719 C720 1.374 . S
C720 H694 0.979 . S
C720 C716 1.385 . S
C720 C719 1.374 . S
C721 C718 1.499 . S
C721 C722 1.373 . S
C721 C723 1.389 . S
C722 H695 0.950 . S
C722 C708 1.377 . S
C722 C721 1.373 . S
C723 C707 1.377 . S
C723 C721 1.389 . S
C723 C724 1.524 . S
C724 C723 1.524 . S
C724 C725 1.397 . S
C724 C729 1.363 . S
C725 H696 0.985 . S
C725 C724 1.397 . S
C725 C726 1.334 . S
C726 H697 0.950 . S
C726 C725 1.334 . S
C726 C727 1.287 . S
C727 C726 1.287 . S
C727 C728 1.524 . S
C727 H730 0.999 . S
C728 H698 0.950 . S
C728 C727 1.524 . S
C728 C729 1.415 . S
C729 H699 0.950 . S
C729 C724 1.363 . S
C729 C728 1.415 . S
H730 C727 0.999 . S
H731 C712 0.913 1_556 S
H732 C750 0.951 . S
H733 C752 0.951 . S
H734 C754 0.950 . S
H735 C755 0.950 . S
H736 C757 0.950 . S
H737 C760 0.950 . S
H738 C761 0.950 1_556 S
H739 C763 0.950 . S
H740 C764 0.950 . S
H741 C765 0.951 . S
H742 C767 0.951 . S
H743 C769 0.950 . S
H744 C770 0.950 . S
H745 C772 0.950 . S
H746 C775 0.950 . S
H747 C776 0.950 . S
H748 C778 0.950 . S
H749 C779 0.950 . S
C750 H732 0.951 . S
C750 C751 1.366 . S
C750 C752 1.388 . S
C751 C750 1.366 . S
C751 C755 1.385 . S
C752 H733 0.951 . S
C752 C750 1.388 . S
C752 C753 1.366 . S
C753 C752 1.366 . S
C753 C754 1.414 . S
C753 C756 1.499 . S
C754 H734 0.950 . S
C754 C753 1.414 . S
C754 C755 1.374 . S
C755 H735 0.950 . S
C755 C751 1.385 . S
C755 C754 1.374 . S
C756 C753 1.499 . S
C756 C757 1.373 . S
C756 C758 1.389 . S
C757 H736 0.950 . S
C757 C756 1.373 . S
C757 C773 1.377 . S
C758 C756 1.389 . S
C758 C759 1.524 . S
C758 C772 1.377 . S
C759 C758 1.524 . S
C759 C760 1.397 . S
C759 C764 1.363 . S
C760 H737 0.950 . S
C760 C759 1.397 . S
C760 C761 1.334 . S
C761 H738 0.950 1_554 S
C761 C760 1.334 . S
C761 C762 1.287 . S
C762 C761 1.287 . S
C762 C763 1.524 . S
C762 H781 0.913 1_554 S
C763 H739 0.950 . S
C763 C762 1.524 . S
C763 C764 1.415 . S
C764 H740 0.950 . S
C764 C759 1.363 . S
C764 C763 1.415 . S
C765 H741 0.951 . S
C765 C766 1.366 . S
C765 C767 1.388 . S
C766 C765 1.366 . S
C766 C770 1.385 . S
C767 H742 0.951 . S
C767 C765 1.388 . S
C767 C768 1.366 . S
C768 C767 1.366 . S
C768 C769 1.414 . S
C768 C771 1.499 . S
C769 H743 0.950 . S
C769 C768 1.414 . S
C769 C770 1.374 . S
C770 H744 0.950 . S
C770 C766 1.385 . S
C770 C769 1.374 . S
C771 C768 1.499 . S
C771 C772 1.373 . S
C771 C773 1.389 . S
C772 H745 0.950 . S
C772 C758 1.377 . S
C772 C771 1.373 . S
C773 C757 1.377 . S
C773 C771 1.389 . S
C773 C774 1.524 . S
C774 C773 1.524 . S
C774 C775 1.397 . S
C774 C779 1.363 . S
C775 H746 0.950 . S
C775 C774 1.397 . S
C775 C776 1.334 . S
C776 H747 0.950 . S
C776 C775 1.334 . S
C776 C777 1.287 . S
C777 C776 1.287 . S
C777 C778 1.524 . S
C777 H780 0.999 . S
C778 H748 0.950 . S
C778 C777 1.524 . S
C778 C779 1.415 . S
C779 H749 0.950 . S
C779 C774 1.363 . S
C779 C778 1.415 . S
H780 C777 0.999 . S
H781 C762 0.913 1_556 S
H782 C800 0.951 . S
H783 C802 0.951 . S
H784 C804 0.950 . S
H785 C805 0.950 . S
H786 C807 0.950 . S
H787 C810 0.950 . S
H788 C811 0.950 . S
H789 C813 0.950 . S
H790 C814 0.950 . S
H791 C815 0.951 . S
H792 C817 0.951 . S
H793 C819 0.950 . S
H794 C820 0.950 . S
H795 C822 0.950 . S
H796 C825 0.950 . S
H797 C826 0.950 . S
H798 C828 0.950 . S
H799 C829 0.950 . S
C800 H782 0.951 . S
C800 C801 1.366 . S
C800 C802 1.388 . S
C801 C800 1.366 . S
C801 C805 1.385 . S
C802 H783 0.951 . S
C802 C800 1.388 . S
C802 C803 1.366 . S
C803 C802 1.366 . S
C803 C804 1.414 . S
C803 C806 1.499 . S
C804 H784 0.950 . S
C804 C803 1.414 . S
C804 C805 1.374 . S
C805 H785 0.950 . S
C805 C801 1.385 . S
C805 C804 1.374 . S
C806 C803 1.499 . S
C806 C807 1.373 . S
C806 C808 1.389 . S
C807 H786 0.950 . S
C807 C806 1.373 . S
C807 C823 1.377 . S
C808 C806 1.389 . S
C808 C809 1.524 . S
C808 C822 1.377 . S
C809 C808 1.524 . S
C809 C810 1.397 . S
C809 C814 1.363 . S
C810 H787 0.950 . S
C810 C809 1.397 . S
C810 C811 1.334 . S
C811 H788 0.950 . S
C811 C810 1.334 . S
C811 C812 1.287 . S
C812 C811 1.287 . S
C812 C813 1.524 . S
C812 H831 0.913 . S
C813 H789 0.950 . S
C813 C812 1.524 . S
C813 C814 1.415 . S
C814 H790 0.950 . S
C814 C809 1.363 . S
C814 C813 1.415 . S
C815 H791 0.951 . S
C815 C816 1.366 . S
C815 C817 1.388 . S
C816 C815 1.366 . S
C816 C820 1.385 . S
C817 H792 0.951 . S
C817 C815 1.388 . S
C817 C818 1.366 . S
C818 C817 1.366 . S
C818 C819 1.414 . S
C818 C821 1.499 . S
C819 H793 0.950 . S
C819 C818 1.414 . S
C819 C820 1.374 . S
C820 H794 0.950 . S
C820 C816 1.385 . S
C820 C819 1.374 . S
C821 C818 1.499 . S
C821 C822 1.373 . S
C821 C823 1.389 . S
C822 H795 0.950 . S
C822 C808 1.377 . S
C822 C821 1.373 . S
C823 C807 1.377 . S
C823 C821 1.389 . S
C823 C824 1.524 . S
C824 C823 1.524 . S
C824 C825 1.397 . S
C824 C829 1.363 . S
C825 H796 0.950 . S
C825 C824 1.397 . S
C825 C826 1.334 . S
C826 H797 0.950 . S
C826 C825 1.334 . S
C826 C827 1.287 . S
C827 C826 1.287 . S
C827 C828 1.524 . S
C827 H830 0.999 . S
C828 H798 0.950 . S
C828 C827 1.524 . S
C828 C829 1.415 . S
C829 H799 0.950 . S
C829 C824 1.363 . S
C829 C828 1.415 . S
H830 C827 0.999 . S
H831 C812 0.913 . S
H832 C850 0.951 . S
H833 C852 0.951 . S
H834 C854 0.950 . S
H835 C855 0.950 . S
H836 C857 0.950 . S
H837 C860 0.950 . S
H838 C861 0.950 . S
H839 C863 0.950 . S
H840 C864 0.950 . S
H841 C865 0.951 . S
H842 C867 0.951 1_655 S
H843 C869 0.950 . S
H844 C870 0.950 1_554 S
H845 C872 0.950 . S
H846 C875 0.950 . S
H847 C876 0.950 . S
H848 C878 0.962 . S
H849 C879 0.950 . S
C850 H832 0.951 . S
C850 C851 1.366 1_455 S
C850 C852 1.388 . S
C851 C850 1.366 1_655 S
C851 C855 1.385 . S
C852 H833 0.951 . S
C852 C850 1.388 . S
C852 C853 1.366 . S
C853 C852 1.366 . S
C853 C854 1.414 1_455 S
C853 C856 1.499 . S
C854 H834 0.950 . S
C854 C853 1.414 1_655 S
C854 C855 1.374 . S
C855 H835 0.950 . S
C855 C851 1.385 . S
C855 C854 1.374 . S
C856 C853 1.499 . S
C856 C857 1.373 . S
C856 C858 1.389 . S
C857 H836 0.950 . S
C857 C856 1.373 . S
C857 C873 1.377 . S
C858 C856 1.389 . S
C858 C859 1.524 . S
C858 C872 1.377 . S
C859 C858 1.524 . S
C859 C860 1.397 1_455 S
C859 C864 1.363 . S
C860 H837 0.950 . S
C860 C859 1.397 1_655 S
C860 C861 1.334 . S
C861 H838 0.950 . S
C861 C860 1.334 . S
C861 C862 1.287 1_655 S
C862 C861 1.287 1_455 S
C862 C863 1.524 . S
C862 H881 0.913 . S
C863 H839 0.950 . S
C863 C862 1.524 . S
C863 C864 1.415 . S
C864 H840 0.950 . S
C864 C859 1.363 . S
C864 C863 1.415 . S
C865 H841 0.951 . S
C865 C866 1.366 . S
C865 C867 1.388 . S
C866 C865 1.366 . S
C866 C870 1.385 . S
C867 H842 0.951 1_455 S
C867 C865 1.388 . S
C867 C868 1.366 1_556 S
C868 C867 1.366 1_554 S
C868 C869 1.414 . S
C868 C871 1.499 . S
C869 H843 0.950 . S
C869 C868 1.414 . S
C869 C870 1.374 1_554 S
C870 H844 0.950 1_556 S
C870 C866 1.385 . S
C870 C869 1.374 1_556 S
C871 C868 1.499 . S
C871 C872 1.373 . S
C871 C873 1.389 . S
C872 H845 0.950 . S
C872 C858 1.377 . S
C872 C871 1.373 . S
C873 C857 1.377 . S
C873 C871 1.389 . S
C873 C874 1.524 1_554 S
C874 C873 1.524 1_556 S
C874 C875 1.397 . S
C874 C879 1.363 1_455 S
C875 H846 0.950 . S
C875 C874 1.397 . S
C875 C876 1.334 . S
C876 H847 0.950 . S
C876 C875 1.334 . S
C876 C877 1.287 . S
C877 C876 1.287 . S
C877 C878 1.509 1_455 S
C877 H880 0.999 . S
C878 H848 0.962 . S
C878 C877 1.509 1_655 S
C878 C879 1.416 . S
C879 H849 0.950 . S
C879 C874 1.363 1_655 S
C879 C878 1.416 . S
H880 C877 0.999 . S
H881 C862 0.913 . S
H882 C900 0.951 . S
H883 C902 0.951 . S
H884 C904 0.950 . S
H885 C905 0.950 . S
H886 C907 0.950 . S
H887 C910 0.950 1_545 S
H888 C911 0.950 . S
H889 C913 0.950 . S
H890 C914 0.950 . S
H891 C915 0.951 . S
H892 C917 0.951 . S
H893 C919 0.950 1_565 S
H894 C920 0.950 1_565 S
H895 C922 0.950 1_565 S
H896 C925 0.950 . S
H897 C926 0.950 . S
H898 C928 0.950 . S
H899 C929 0.950 . S
C900 H882 0.951 . S
C900 C901 1.366 . S
C900 C902 1.388 . S
C901 C900 1.366 . S
C901 C905 1.385 1_565 S
C902 H883 0.951 . S
C902 C900 1.388 . S
C902 C903 1.366 1_565 S
C903 C902 1.366 1_545 S
C903 C904 1.414 . S
C903 C906 1.499 . S
C904 H884 0.950 . S
C904 C903 1.414 . S
C904 C905 1.374 . S
C905 H885 0.950 . S
C905 C901 1.385 1_545 S
C905 C904 1.374 . S
C906 C903 1.499 . S
C906 C907 1.373 . S
C906 C908 1.389 1_545 S
C907 H886 0.950 . S
C907 C906 1.373 . S
C907 C923 1.377 . S
C908 C906 1.389 1_565 S
C908 C909 1.524 . S
C908 C922 1.377 1_565 S
C909 C908 1.524 . S
C909 C910 1.397 . S
C909 C914 1.363 . S
C910 H887 0.950 1_565 S
C910 C909 1.397 . S
C910 C911 1.334 . S
C911 H888 0.950 . S
C911 C910 1.334 . S
C911 C912 1.287 . S
C912 C911 1.287 . S
C912 C913 1.524 . S
C912 H931 0.908 1_554 S
C913 H889 0.950 . S
C913 C912 1.524 . S
C913 C914 1.415 . S
C914 H890 0.950 . S
C914 C909 1.363 . S
C914 C913 1.415 . S
C915 H891 0.951 . S
C915 C916 1.366 . S
C915 C917 1.388 1_556 S
C916 C915 1.366 . S
C916 C920 1.385 . S
C917 H892 0.951 . S
C917 C915 1.388 1_554 S
C917 C918 1.366 . S
C918 C917 1.366 . S
C918 C919 1.414 . S
C918 C921 1.499 . S
C919 H893 0.950 1_545 S
C919 C918 1.414 . S
C919 C920 1.374 1_554 S
C920 H894 0.950 1_545 S
C920 C916 1.385 . S
C920 C919 1.374 1_556 S
C921 C918 1.499 . S
C921 C922 1.373 . S
C921 C923 1.389 . S
C922 H895 0.950 1_545 S
C922 C908 1.377 1_545 S
C922 C921 1.373 . S
C923 C907 1.377 . S
C923 C921 1.389 . S
C923 C924 1.524 . S
C924 C923 1.524 . S
C924 C925 1.397 . S
C924 C929 1.363 . S
C925 H896 0.950 . S
C925 C924 1.397 . S
C925 C926 1.334 . S
C926 H897 0.950 . S
C926 C925 1.334 . S
C926 C927 1.287 . S
C927 C926 1.287 . S
C927 C928 1.524 . S
C927 H930 0.999 . S
C928 H898 0.950 . S
C928 C927 1.524 . S
C928 C929 1.415 . S
C929 H899 0.950 . S
C929 C924 1.363 . S
C929 C928 1.415 . S
H930 C927 0.999 . S
H931 C912 0.908 1_556 S
H932 C950 0.951 . S
H933 C952 0.951 . S
H934 C954 0.950 . S
H935 C955 0.950 . S
H936 C957 0.950 . S
H937 C960 0.950 . S
H938 C961 0.950 . S
H939 C963 0.950 . S
H940 C964 0.950 . S
H941 C965 0.951 . S
H942 C967 0.951 . S
H943 C969 0.950 . S
H944 C970 0.950 . S
H945 C972 0.950 . S
H946 C975 0.950 . S
H947 C976 0.950 . S
H948 C978 0.950 1_556 S
H949 C979 0.950 . S
C950 H932 0.951 . S
C950 C951 1.366 . S
C950 C952 1.388 . S
C951 C950 1.366 . S
C951 C955 1.385 . S
C952 H933 0.951 . S
C952 C950 1.388 . S
C952 C953 1.366 . S
C953 C952 1.366 . S
C953 C954 1.414 . S
C953 C956 1.499 . S
C954 H934 0.950 . S
C954 C953 1.414 . S
C954 C955 1.374 . S
C955 H935 0.950 . S
C955 C951 1.385 . S
C955 C954 1.374 . S
C956 C953 1.499 . S
C956 C957 1.373 . S
C956 C958 1.389 . S
C957 H936 0.950 . S
C957 C956 1.373 . S
C957 C973 1.377 . S
C958 C956 1.389 . S
C958 C959 1.524 . S
C958 C972 1.377 . S
C959 C958 1.524 . S
C959 C960 1.397 . S
C959 C964 1.363 . S
C960 H937 0.950 . S
C960 C959 1.397 . S
C960 C961 1.334 . S
C961 H938 0.950 . S
C961 C960 1.334 . S
C961 C962 1.287 . S
C962 C961 1.287 . S
C962 C963 1.524 . S
C962 H981 0.913 . S
C963 H939 0.950 . S
C963 C962 1.524 . S
C963 C964 1.415 . S
C964 H940 0.950 . S
C964 C959 1.363 . S
C964 C963 1.415 . S
C965 H941 0.951 . S
C965 C966 1.366 . S
C965 C967 1.388 . S
C966 C965 1.366 . S
C966 C970 1.385 1_556 S
C967 H942 0.951 . S
C967 C965 1.388 . S
C967 C968 1.366 1_556 S
C968 C967 1.366 1_554 S
C968 C969 1.414 . S
C968 C971 1.499 . S
C969 H943 0.950 . S
C969 C968 1.414 . S
C969 C970 1.374 . S
C970 H944 0.950 . S
C970 C966 1.385 1_554 S
C970 C969 1.374 . S
C971 C968 1.499 . S
C971 C972 1.373 . S
C971 C973 1.389 . S
C972 H945 0.950 . S
C972 C958 1.377 . S
C972 C971 1.373 . S
C973 C957 1.377 . S
C973 C971 1.389 . S
C973 C974 1.524 . S
C974 C973 1.524 . S
C974 C975 1.397 . S
C974 C979 1.363 . S
C975 H946 0.950 . S
C975 C974 1.397 . S
C975 C976 1.334 . S
C976 H947 0.950 . S
C976 C975 1.334 . S
C976 C977 1.287 . S
C977 C976 1.287 . S
C977 C978 1.524 . S
C977 H980 0.999 . S
C978 H948 0.950 1_554 S
C978 C977 1.524 . S
C978 C979 1.415 . S
C979 H949 0.950 . S
C979 C974 1.363 . S
C979 C978 1.415 . S
H980 C977 0.999 . S
H981 C962 0.913 . S
H982 C1000 0.951 . S
H983 C1002 0.951 . S
H984 C1004 0.950 . S
H985 C1005 0.950 . S
H986 C1007 0.950 . S
H987 C1010 0.950 . S
H988 C1011 0.950 . S
H989 C1013 0.950 . S
H990 C1014 0.950 . S
H991 C1015 0.951 . S
H992 C1017 0.951 . S
H993 C1019 0.950 . S
H994 C1020 0.950 . S
H995 C1022 0.950 . S
H996 C1025 0.950 . S
H997 C1026 0.950 . S
H998 C1028 0.950 . S
H999 C1029 0.950 . S
C1000 H982 0.951 . S
C1000 C1001 1.366 . S
C1000 C1002 1.388 . S
C1001 C1000 1.366 . S
C1001 C1005 1.385 . S
C1002 H983 0.951 . S
C1002 C1000 1.388 . S
C1002 C1003 1.366 . S
C1003 C1002 1.366 . S
C1003 C1004 1.414 . S
C1003 C1006 1.499 . S
C1004 H984 0.950 . S
C1004 C1003 1.414 . S
C1004 C1005 1.374 . S
C1005 H985 0.950 . S
C1005 C1001 1.385 . S
C1005 C1004 1.374 . S
C1006 C1003 1.499 . S
C1006 C1007 1.373 . S
C1006 C1008 1.389 . S
C1007 H986 0.950 . S
C1007 C1006 1.373 . S
C1007 C1023 1.377 . S
C1008 C1006 1.389 . S
C1008 C1009 1.524 . S
C1008 C1022 1.377 . S
C1009 C1008 1.524 . S
C1009 C1010 1.397 . S
C1009 C1014 1.363 . S
C1010 H987 0.950 . S
C1010 C1009 1.397 . S
C1010 C1011 1.334 . S
C1011 H988 0.950 . S
C1011 C1010 1.334 . S
C1011 C1012 1.287 . S
C1012 C1011 1.287 . S
C1012 C1013 1.524 . S
C1012 H1031 0.913 . S
C1013 H989 0.950 . S
C1013 C1012 1.524 . S
C1013 C1014 1.415 . S
C1014 H990 0.950 . S
C1014 C1009 1.363 . S
C1014 C1013 1.415 . S
C1015 H991 0.951 . S
C1015 C1016 1.366 . S
C1015 C1017 1.388 . S
C1016 C1015 1.366 . S
C1016 C1020 1.385 1_556 S
C1017 H992 0.951 . S
C1017 C1015 1.388 . S
C1017 C1018 1.366 1_556 S
C1018 C1017 1.366 1_554 S
C1018 C1019 1.414 . S
C1018 C1021 1.499 . S
C1019 H993 0.950 . S
C1019 C1018 1.414 . S
C1019 C1020 1.374 . S
C1020 H994 0.950 . S
C1020 C1016 1.385 1_554 S
C1020 C1019 1.374 . S
C1021 C1018 1.499 . S
C1021 C1022 1.373 . S
C1021 C1023 1.389 . S
C1022 H995 0.950 . S
C1022 C1008 1.377 . S
C1022 C1021 1.373 . S
C1023 C1007 1.377 . S
C1023 C1021 1.389 . S
C1023 C1024 1.524 . S
C1024 C1023 1.524 . S
C1024 C1025 1.397 . S
C1024 C1029 1.363 1_554 S
C1025 H996 0.950 . S
C1025 C1024 1.397 . S
C1025 C1026 1.334 1_554 S
C1026 H997 0.950 . S
C1026 C1025 1.334 1_556 S
C1026 C1027 1.287 . S
C1027 C1026 1.287 . S
C1027 C1028 1.524 . S
C1027 H1030 0.999 . S
C1028 H998 0.950 . S
C1028 C1027 1.524 . S
C1028 C1029 1.415 . S
C1029 H999 0.950 . S
C1029 C1024 1.363 1_556 S
C1029 C1028 1.415 . S
H1030 C1027 0.999 . S
H1031 C1012 0.913 . S
H1032 C1050 0.951 . S
H1033 C1052 0.951 . S
H1034 C1054 0.950 . S
H1035 C1055 0.950 . S
H1036 C1057 0.950 . S
H1037 C1060 0.950 . S
H1038 C1061 0.950 . S
H1039 C1063 0.950 . S
H1040 C1064 0.950 . S
H1041 C1065 0.951 . S
H1042 C1067 0.951 . S
H1043 C1069 0.950 . S
H1044 C1070 0.950 . S
H1045 C1072 0.953 . S
H1046 C1075 0.950 . S
H1047 C1076 0.950 . S
H1048 C1078 0.950 . S
H1049 C1079 0.950 . S
C1050 H1032 0.951 . S
C1050 C1051 1.366 1_655 S
C1050 C1052 1.388 . S
C1051 C1050 1.366 1_455 S
C1051 C1055 1.385 . S
C1052 H1033 0.951 . S
C1052 C1050 1.388 . S
C1052 C1053 1.366 1_655 S
C1053 C1052 1.366 1_455 S
C1053 C1054 1.414 . S
C1053 C1056 1.499 . S
C1054 H1034 0.950 . S
C1054 C1053 1.414 . S
C1054 C1055 1.374 . S
C1055 H1035 0.950 . S
C1055 C1051 1.385 . S
C1055 C1054 1.374 . S
C1056 C1053 1.499 . S
C1056 C1057 1.373 . S
C1056 C1058 1.389 . S
C1057 H1036 0.950 . S
C1057 C1056 1.373 . S
C1057 C1073 1.377 . S
C1058 C1056 1.389 . S
C1058 C1059 1.524 1_556 S
C1058 C1072 1.377 . S
C1059 C1058 1.524 1_554 S
C1059 C1060 1.397 . S
C1059 C1064 1.363 1_455 S
C1060 H1037 0.950 . S
C1060 C1059 1.397 . S
C1060 C1061 1.334 . S
C1061 H1038 0.950 . S
C1061 C1060 1.334 . S
C1061 C1062 1.287 . S
C1062 C1061 1.287 . S
C1062 C1063 1.524 1_455 S
C1062 H1081 0.913 . S
C1063 H1039 0.950 . S
C1063 C1062 1.524 1_655 S
C1063 C1064 1.415 . S
C1064 H1040 0.950 . S
C1064 C1059 1.363 1_655 S
C1064 C1063 1.415 . S
C1065 H1041 0.951 . S
C1065 C1066 1.366 . S
C1065 C1067 1.388 . S
C1066 C1065 1.366 . S
C1066 C1070 1.385 1_455 S
C1067 H1042 0.951 . S
C1067 C1065 1.388 . S
C1067 C1068 1.366 . S
C1068 C1067 1.366 . S
C1068 C1069 1.414 1_455 S
C1068 C1071 1.499 . S
C1069 H1043 0.950 . S
C1069 C1068 1.414 1_655 S
C1069 C1070 1.374 . S
C1070 H1044 0.950 . S
C1070 C1066 1.385 1_655 S
C1070 C1069 1.374 . S
C1071 C1068 1.499 . S
C1071 C1072 1.373 . S
C1071 C1073 1.389 . S
C1072 H1045 0.953 . S
C1072 C1058 1.377 . S
C1072 C1071 1.373 . S
C1073 C1057 1.377 . S
C1073 C1071 1.389 . S
C1073 C1074 1.524 . S
C1074 C1073 1.524 . S
C1074 C1075 1.397 1_455 S
C1074 C1079 1.363 . S
C1075 H1046 0.950 . S
C1075 C1074 1.397 1_655 S
C1075 C1076 1.334 . S
C1076 H1047 0.950 . S
C1076 C1075 1.334 . S
C1076 C1077 1.287 1_655 S
C1077 C1076 1.287 1_455 S
C1077 C1078 1.524 . S
C1077 H1080 0.999 . S
C1078 H1048 0.950 . S
C1078 C1077 1.524 . S
C1078 C1079 1.415 . S
C1079 H1049 0.950 . S
C1079 C1074 1.363 . S
C1079 C1078 1.415 . S
H1080 C1077 0.999 . S
H1081 C1062 0.913 . S
H1082 C1100 0.951 1_554 S
H1083 C1102 0.951 . S
H1084 C1104 0.950 . S
H1085 C1105 0.950 . S
H1086 C1107 0.950 . S
H1087 C1110 0.950 . S
H1088 C1111 0.950 . S
H1089 C1113 0.950 . S
H1090 C1114 0.950 1_554 S
H1091 C1115 0.951 . S
H1092 C1117 0.950 . S
H1093 C1119 0.950 . S
H1094 C1120 0.950 . S
H1095 C1122 0.950 . S
H1096 C1125 0.950 . S
H1097 C1126 0.950 . S
H1098 C1128 0.950 . S
H1099 C1129 0.950 . S
C1100 H1082 0.951 1_556 S
C1100 C1101 1.366 . S
C1100 C1102 1.388 . S
C1101 C1100 1.366 . S
C1101 C1105 1.385 1_545 S
C1102 H1083 0.951 . S
C1102 C1100 1.388 . S
C1102 C1103 1.366 . S
C1103 C1102 1.366 . S
C1103 C1104 1.414 1_545 S
C1103 C1106 1.499 . S
C1104 H1084 0.950 . S
C1104 C1103 1.414 1_565 S
C1104 C1105 1.374 . S
C1105 H1085 0.950 . S
C1105 C1101 1.385 1_565 S
C1105 C1104 1.374 . S
C1106 C1103 1.499 . S
C1106 C1107 1.373 1_545 S
C1106 C1108 1.389 . S
C1107 H1086 0.950 . S
C1107 C1106 1.373 1_565 S
C1107 C1123 1.377 . S
C1108 C1106 1.389 . S
C1108 C1109 1.524 . S
C1108 C1122 1.377 . S
C1109 C1108 1.524 . S
C1109 C1110 1.397 . S
C1109 C1114 1.363 . S
C1110 H1087 0.950 . S
C1110 C1109 1.397 . S
C1110 C1111 1.334 . S
C1111 H1088 0.950 . S
C1111 C1110 1.334 . S
C1111 C1112 1.287 . S
C1112 C1111 1.287 . S
C1112 C1113 1.524 1_556 S
C1112 H1131 0.913 . S
C1113 H1089 0.950 . S
C1113 C1112 1.524 1_554 S
C1113 C1114 1.415 1_554 S
C1114 H1090 0.950 1_556 S
C1114 C1109 1.363 . S
C1114 C1113 1.415 1_556 S
C1115 H1091 0.951 . S
C1115 C1116 1.366 . S
C1115 C1117 1.388 . S
C1116 C1115 1.366 . S
C1116 C1120 1.385 . S
C1117 H1092 0.950 . S
C1117 C1115 1.388 . S
C1117 C1118 1.366 . S
C1118 C1117 1.366 . S
C1118 C1119 1.414 . S
C1118 C1121 1.499 . S
C1119 H1093 0.950 . S
C1119 C1118 1.414 . S
C1119 C1120 1.374 . S
C1120 H1094 0.950 . S
C1120 C1116 1.385 . S
C1120 C1119 1.374 . S
C1121 C1118 1.499 . S
C1121 C1122 1.373 . S
C1121 C1123 1.389 1_545 S
C1122 H1095 0.950 . S
C1122 C1108 1.377 . S
C1122 C1121 1.373 . S
C1123 C1107 1.377 . S
C1123 C1121 1.389 1_565 S
C1123 C1124 1.524 . S
C1124 C1123 1.524 . S
C1124 C1125 1.397 . S
C1124 C1129 1.363 . S
C1125 H1096 0.950 . S
C1125 C1124 1.397 . S
C1125 C1126 1.334 . S
C1126 H1097 0.950 . S
C1126 C1125 1.334 . S
C1126 C1127 1.287 . S
C1127 C1126 1.287 . S
C1127 C1128 1.524 . S
C1127 H1130 0.999 . S
C1128 H1098 0.950 . S
C1128 C1127 1.524 . S
C1128 C1129 1.415 . S
C1129 H1099 0.950 . S
C1129 C1124 1.363 . S
C1129 C1128 1.415 . S
H1130 C1127 0.999 . S
H1131 C1112 0.913 . S
H1132 C1150 0.951 . S
H1133 C1152 0.951 . S
H1134 C1154 0.950 . S
H1135 C1155 0.950 . S
H1136 C1157 0.950 . S
H1137 C1160 0.950 1_554 S
H1138 C1161 0.950 . S
H1139 C1163 0.950 . S
H1140 C1164 0.950 . S
H1141 C1165 0.951 . S
H1142 C1167 0.951 . S
H1143 C1169 0.950 . S
H1144 C1170 0.950 . S
H1145 C1172 0.950 . S
H1146 C1175 0.950 . S
H1147 C1176 0.950 . S
H1148 C1178 0.950 . S
H1149 C1179 0.950 . S
C1150 H1132 0.951 . S
C1150 C1151 1.366 . S
C1150 C1152 1.388 . S
C1151 C1150 1.366 . S
C1151 C1155 1.385 . S
C1152 H1133 0.951 . S
C1152 C1150 1.388 . S
C1152 C1153 1.366 . S
C1153 C1152 1.366 . S
C1153 C1154 1.414 . S
C1153 C1156 1.499 . S
C1154 H1134 0.950 . S
C1154 C1153 1.414 . S
C1154 C1155 1.374 . S
C1155 H1135 0.950 . S
C1155 C1151 1.385 . S
C1155 C1154 1.374 . S
C1156 C1153 1.499 . S
C1156 C1157 1.373 . S
C1156 C1158 1.389 . S
C1157 H1136 0.950 . S
C1157 C1156 1.373 . S
C1157 C1173 1.377 . S
C1158 C1156 1.389 . S
C1158 C1159 1.524 . S
C1158 C1172 1.377 . S
C1159 C1158 1.524 . S
C1159 C1160 1.397 . S
C1159 C1164 1.363 . S
C1160 H1137 0.950 1_556 S
C1160 C1159 1.397 . S
C1160 C1161 1.334 1_556 S
C1161 H1138 0.950 . S
C1161 C1160 1.334 1_554 S
C1161 C1162 1.287 1_554 S
C1162 C1161 1.287 1_556 S
C1162 C1163 1.524 . S
C1162 H1181 0.913 1_556 S
C1163 H1139 0.950 . S
C1163 C1162 1.524 . S
C1163 C1164 1.415 . S
C1164 H1140 0.950 . S
C1164 C1159 1.363 . S
C1164 C1163 1.415 . S
C1165 H1141 0.951 . S
C1165 C1166 1.366 . S
C1165 C1167 1.388 . S
C1166 C1165 1.366 . S
C1166 C1170 1.385 . S
C1167 H1142 0.951 . S
C1167 C1165 1.388 . S
C1167 C1168 1.366 . S
C1168 C1167 1.366 . S
C1168 C1169 1.414 . S
C1168 C1171 1.499 . S
C1169 H1143 0.950 . S
C1169 C1168 1.414 . S
C1169 C1170 1.374 . S
C1170 H1144 0.950 . S
C1170 C1166 1.385 . S
C1170 C1169 1.374 . S
C1171 C1168 1.499 . S
C1171 C1172 1.373 . S
C1171 C1173 1.389 . S
C1172 H1145 0.950 . S
C1172 C1158 1.377 . S
C1172 C1171 1.373 . S
C1173 C1157 1.377 . S
C1173 C1171 1.389 . S
C1173 C1174 1.524 . S
C1174 C1173 1.524 . S
C1174 C1175 1.397 . S
C1174 C1179 1.363 . S
C1175 H1146 0.950 . S
C1175 C1174 1.397 . S
C1175 C1176 1.334 . S
C1176 H1147 0.950 . S
C1176 C1175 1.334 . S
C1176 C1177 1.287 . S
C1177 C1176 1.287 . S
C1177 C1178 1.524 . S
C1177 H1180 0.999 . S
C1178 H1148 0.950 . S
C1178 C1177 1.524 . S
C1178 C1179 1.415 . S
C1179 H1149 0.950 . S
C1179 C1174 1.363 . S
C1179 C1178 1.415 . S
H1180 C1177 0.999 . S
H1181 C1162 0.913 1_554 S
H1182 C1200 0.951 . S
H1183 C1202 0.951 . S
H1184 C1204 0.950 . S
H1185 C1205 0.950 . S
H1186 C1207 0.950 . S
H1187 C1210 0.950 . S
H1188 C1211 0.950 . S
H1189 C1213 0.950 . S
H1190 C1214 0.950 . S
H1191 C1215 0.951 . S
H1192 C1217 0.951 . S
H1193 C1219 0.950 . S
H1194 C1220 0.950 . S
H1195 C1222 0.950 . S
H1196 C1225 0.950 . S
H1197 C1226 0.950 . S
H1198 C1228 0.950 . S
H1199 C1229 0.950 1_556 S
C1200 H1182 0.951 . S
C1200 C1201 1.366 . S
C1200 C1202 1.388 . S
C1201 C1200 1.366 . S
C1201 C1205 1.385 . S
C1202 H1183 0.951 . S
C1202 C1200 1.388 . S
C1202 C1203 1.366 . S
C1203 C1202 1.366 . S
C1203 C1204 1.414 . S
C1203 C1206 1.499 . S
C1204 H1184 0.950 . S
C1204 C1203 1.414 . S
C1204 C1205 1.374 . S
C1205 H1185 0.950 . S
C1205 C1201 1.385 . S
C1205 C1204 1.374 . S
C1206 C1203 1.499 . S
C1206 C1207 1.373 . S
C1206 C1208 1.389 . S
C1207 H1186 0.950 . S
C1207 C1206 1.373 . S
C1207 C1223 1.377 . S
C1208 C1206 1.389 . S
C1208 C1209 1.524 . S
C1208 C1222 1.377 . S
C1209 C1208 1.524 . S
C1209 C1210 1.397 . S
C1209 C1214 1.363 . S
C1210 H1187 0.950 . S
C1210 C1209 1.397 . S
C1210 C1211 1.334 . S
C1211 H1188 0.950 . S
C1211 C1210 1.334 . S
C1211 C1212 1.287 . S
C1212 C1211 1.287 . S
C1212 C1213 1.524 . S
C1212 H1231 0.913 . S
C1213 H1189 0.950 . S
C1213 C1212 1.524 . S
C1213 C1214 1.415 . S
C1214 H1190 0.950 . S
C1214 C1209 1.363 . S
C1214 C1213 1.415 . S
C1215 H1191 0.951 . S
C1215 C1216 1.366 . S
C1215 C1217 1.388 . S
C1216 C1215 1.366 . S
C1216 C1220 1.385 . S
C1217 H1192 0.951 . S
C1217 C1215 1.388 . S
C1217 C1218 1.366 . S
C1218 C1217 1.366 . S
C1218 C1219 1.414 . S
C1218 C1221 1.499 . S
C1219 H1193 0.950 . S
C1219 C1218 1.414 . S
C1219 C1220 1.374 . S
C1220 H1194 0.950 . S
C1220 C1216 1.385 . S
C1220 C1219 1.374 . S
C1221 C1218 1.499 . S
C1221 C1222 1.373 . S
C1221 C1223 1.389 . S
C1222 H1195 0.950 . S
C1222 C1208 1.377 . S
C1222 C1221 1.373 . S
C1223 C1207 1.377 . S
C1223 C1221 1.389 . S
C1223 C1224 1.524 . S
C1224 C1223 1.524 . S
C1224 C1225 1.397 . S
C1224 C1229 1.363 1_556 S
C1225 H1196 0.950 . S
C1225 C1224 1.397 . S
C1225 C1226 1.334 1_556 S
C1226 H1197 0.950 . S
C1226 C1225 1.334 1_554 S
C1226 C1227 1.287 . S
C1227 C1226 1.287 . S
C1227 C1228 1.524 . S
C1227 H1230 0.999 . S
C1228 H1198 0.950 . S
C1228 C1227 1.524 . S
C1228 C1229 1.415 . S
C1229 H1199 0.950 1_554 S
C1229 C1224 1.363 1_554 S
C1229 C1228 1.415 . S
H1230 C1227 0.999 . S
H1231 C1212 0.913 . S
H1232 C1250 0.951 . S
H1233 C1252 0.957 . S
H1234 C1254 0.950 . S
H1235 C1255 0.950 . S
H1236 C1257 0.950 . S
H1237 C1260 0.950 . S
H1238 C1261 0.950 . S
H1239 C1263 0.950 . S
H1240 C1264 0.950 . S
H1241 C1265 0.951 . S
H1242 C1267 0.951 . S
H1243 C1269 0.953 . S
H1244 C1270 0.950 . S
H1245 C1272 0.950 . S
H1246 C1275 0.950 . S
H1247 C1276 0.950 . S
H1248 C1278 0.950 . S
H1249 C1279 0.950 . S
C1250 H1232 0.951 . S
C1250 C1251 1.366 1_455 S
C1250 C1252 1.390 . S
C1251 C1250 1.366 1_655 S
C1251 C1255 1.385 . S
C1252 H1233 0.957 . S
C1252 C1250 1.390 . S
C1252 C1253 1.358 1_455 S
C1253 C1252 1.358 1_655 S
C1253 C1254 1.414 . S
C1253 C1256 1.499 . S
C1254 H1234 0.950 . S
C1254 C1253 1.414 . S
C1254 C1255 1.374 . S
C1255 H1235 0.950 . S
C1255 C1251 1.385 . S
C1255 C1254 1.374 . S
C1256 C1253 1.499 . S
C1256 C1257 1.373 1_655 S
C1256 C1258 1.389 . S
C1257 H1236 0.950 . S
C1257 C1256 1.373 1_455 S
C1257 C1273 1.377 . S
C1258 C1256 1.389 . S
C1258 C1259 1.524 . S
C1258 C1272 1.377 . S
C1259 C1258 1.524 . S
C1259 C1260 1.397 . S
C1259 C1264 1.363 . S
C1260 H1237 0.950 . S
C1260 C1259 1.397 . S
C1260 C1261 1.334 . S
C1261 H1238 0.950 . S
C1261 C1260 1.334 . S
C1261 C1262 1.287 . S
C1262 C1261 1.287 . S
C1262 C1263 1.524 . S
C1262 H1281 0.913 . S
C1263 H1239 0.950 . S
C1263 C1262 1.524 . S
C1263 C1264 1.415 . S
C1264 H1240 0.950 . S
C1264 C1259 1.363 . S
C1264 C1263 1.415 . S
C1265 H1241 0.951 . S
C1265 C1266 1.366 . S
C1265 C1267 1.388 . S
C1266 C1265 1.366 . S
C1266 C1270 1.385 . S
C1267 H1242 0.951 . S
C1267 C1265 1.388 . S
C1267 C1268 1.366 . S
C1268 C1267 1.366 . S
C1268 C1269 1.414 . S
C1268 C1271 1.499 . S
C1269 H1243 0.953 . S
C1269 C1268 1.414 . S
C1269 C1270 1.374 . S
C1270 H1244 0.950 . S
C1270 C1266 1.385 . S
C1270 C1269 1.374 . S
C1271 C1268 1.499 . S
C1271 C1272 1.373 . S
C1271 C1273 1.389 1_655 S
C1272 H1245 0.950 . S
C1272 C1258 1.377 . S
C1272 C1271 1.373 . S
C1273 C1257 1.377 . S
C1273 C1271 1.389 1_455 S
C1273 C1274 1.524 . S
C1274 C1273 1.524 . S
C1274 C1275 1.397 . S
C1274 C1279 1.363 . S
C1275 H1246 0.950 . S
C1275 C1274 1.397 . S
C1275 C1276 1.334 . S
C1276 H1247 0.950 . S
C1276 C1275 1.334 . S
C1276 C1277 1.287 . S
C1277 C1276 1.287 . S
C1277 C1278 1.524 . S
C1277 H1280 0.999 . S
C1278 H1248 0.950 . S
C1278 C1277 1.524 . S
C1278 C1279 1.415 . S
C1279 H1249 0.950 . S
C1279 C1274 1.363 . S
C1279 C1278 1.415 . S
H1280 C1277 0.999 . S
H1281 C1262 0.913 . S
H1282 C1300 0.951 . S
H1283 C1302 0.951 . S
H1284 C1304 0.950 . S
H1285 C1305 0.950 . S
H1286 C1307 0.950 . S
H1287 C1310 0.950 . S
H1288 C1311 0.950 . S
H1289 C1313 0.950 . S
H1290 C1314 0.950 . S
H1291 C1315 0.951 . S
H1292 C1317 0.951 . S
H1293 C1319 0.950 . S
H1294 C1320 0.950 . S
H1295 C1322 0.950 . S
H1296 C1325 0.950 . S
H1297 C1326 0.950 . S
H1298 C1328 0.950 . S
H1299 C1329 0.950 . S
C1300 H1282 0.951 . S
C1300 C1301 1.328 1_545 S
C1300 C1302 1.388 . S
C1301 C1300 1.328 1_565 S
C1301 C1305 1.426 . S
C1302 H1283 0.951 . S
C1302 C1300 1.388 . S
C1302 C1303 1.366 1_545 S
C1303 C1302 1.366 1_565 S
C1303 C1304 1.414 . S
C1303 C1306 1.499 . S
C1304 H1284 0.950 . S
C1304 C1303 1.414 . S
C1304 C1305 1.374 . S
C1305 H1285 0.950 . S
C1305 C1301 1.426 . S
C1305 C1304 1.374 . S
C1306 C1303 1.499 . S
C1306 C1307 1.373 . S
C1306 C1308 1.389 1_565 S
C1307 H1286 0.950 . S
C1307 C1306 1.373 . S
C1307 C1323 1.377 . S
C1308 C1306 1.389 1_545 S
C1308 C1309 1.524 . S
C1308 C1322 1.377 . S
C1309 C1308 1.524 . S
C1309 C1310 1.397 . S
C1309 C1314 1.363 . S
C1310 H1287 0.950 . S
C1310 C1309 1.397 . S
C1310 C1311 1.334 . S
C1311 H1288 0.950 . S
C1311 C1310 1.334 . S
C1311 C1312 1.287 . S
C1312 C1311 1.287 . S
C1312 C1313 1.524 . S
C1312 H1331 0.913 . S
C1313 H1289 0.950 . S
C1313 C1312 1.524 . S
C1313 C1314 1.415 . S
C1314 H1290 0.950 . S
C1314 C1309 1.363 . S
C1314 C1313 1.415 . S
C1315 H1291 0.951 . S
C1315 C1316 1.366 . S
C1315 C1317 1.388 . S
C1316 C1315 1.366 . S
C1316 C1320 1.385 1_565 S
C1317 H1292 0.951 . S
C1317 C1315 1.388 . S
C1317 C1318 1.366 . S
C1318 C1317 1.366 . S
C1318 C1319 1.414 1_565 S
C1318 C1321 1.499 . S
C1319 H1293 0.950 . S
C1319 C1318 1.414 1_545 S
C1319 C1320 1.374 . S
C1320 H1294 0.950 . S
C1320 C1316 1.385 1_545 S
C1320 C1319 1.374 . S
C1321 C1318 1.499 . S
C1321 C1322 1.373 1_565 S
C1321 C1323 1.389 . S
C1322 H1295 0.950 . S
C1322 C1308 1.377 . S
C1322 C1321 1.373 1_545 S
C1323 C1307 1.377 . S
C1323 C1321 1.389 . S
C1323 C1324 1.524 . S
C1324 C1323 1.524 . S
C1324 C1325 1.397 . S
C1324 C1329 1.363 . S
C1325 H1296 0.950 . S
C1325 C1324 1.397 . S
C1325 C1326 1.334 . S
C1326 H1297 0.950 . S
C1326 C1325 1.334 . S
C1326 C1327 1.287 . S
C1327 C1326 1.287 . S
C1327 C1328 1.524 . S
C1327 H1330 0.999 . S
C1328 H1298 0.950 . S
C1328 C1327 1.524 . S
C1328 C1329 1.415 . S
C1329 H1299 0.950 . S
C1329 C1324 1.363 . S
C1329 C1328 1.415 . S
H1330 C1327 0.999 . S
H1331 C1312 0.913 . S
H1332 C1350 0.951 . S
H1333 C1352 0.951 . S
H1334 C1354 0.950 . S
H1335 C1355 0.950 . S
H1336 C1357 0.950 . S
H1337 C1360 0.950 . S
H1338 C1361 0.950 . S
H1339 C1363 0.950 . S
H1340 C1364 0.950 . S
H1341 C1365 0.951 . S
H1342 C1367 0.951 . S
H1343 C1369 0.950 . S
H1344 C1370 0.950 . S
H1345 C1372 0.950 . S
H1346 C1375 0.950 . S
H1347 C1376 0.950 . S
H1348 C1378 0.950 . S
H1349 C1379 0.950 . S
C1350 H1332 0.951 . S
C1350 C1351 1.366 . S
C1350 C1352 1.388 . S
C1351 C1350 1.366 . S
C1351 C1355 1.385 . S
C1352 H1333 0.951 . S
C1352 C1350 1.388 . S
C1352 C1353 1.366 . S
C1353 C1352 1.366 . S
C1353 C1354 1.414 . S
C1353 C1356 1.499 . S
C1354 H1334 0.950 . S
C1354 C1353 1.414 . S
C1354 C1355 1.374 . S
C1355 H1335 0.950 . S
C1355 C1351 1.385 . S
C1355 C1354 1.374 . S
C1356 C1353 1.499 . S
C1356 C1357 1.373 . S
C1356 C1358 1.389 . S
C1357 H1336 0.950 . S
C1357 C1356 1.373 . S
C1357 C1373 1.377 . S
C1358 C1356 1.389 . S
C1358 C1359 1.524 . S
C1358 C1372 1.377 . S
C1359 C1358 1.524 . S
C1359 C1360 1.397 . S
C1359 C1364 1.363 . S
C1360 H1337 0.950 . S
C1360 C1359 1.397 . S
C1360 C1361 1.334 . S
C1361 H1338 0.950 . S
C1361 C1360 1.334 . S
C1361 C1362 1.287 . S
C1362 C1361 1.287 . S
C1362 C1363 1.524 . S
C1362 H1381 0.913 . S
C1363 H1339 0.950 . S
C1363 C1362 1.524 . S
C1363 C1364 1.415 . S
C1364 H1340 0.950 . S
C1364 C1359 1.363 . S
C1364 C1363 1.415 . S
C1365 H1341 0.951 . S
C1365 C1366 1.366 . S
C1365 C1367 1.388 . S
C1366 C1365 1.366 . S
C1366 C1370 1.385 . S
C1367 H1342 0.951 . S
C1367 C1365 1.388 . S
C1367 C1368 1.366 . S
C1368 C1367 1.366 . S
C1368 C1369 1.414 . S
C1368 C1371 1.499 . S
C1369 H1343 0.950 . S
C1369 C1368 1.414 . S
C1369 C1370 1.374 . S
C1370 H1344 0.950 . S
C1370 C1366 1.385 . S
C1370 C1369 1.374 . S
C1371 C1368 1.499 . S
C1371 C1372 1.373 . S
C1371 C1373 1.389 . S
C1372 H1345 0.950 . S
C1372 C1358 1.377 . S
C1372 C1371 1.373 . S
C1373 C1357 1.377 . S
C1373 C1371 1.389 . S
C1373 C1374 1.524 . S
C1374 C1373 1.524 . S
C1374 C1375 1.397 . S
C1374 C1379 1.363 . S
C1375 H1346 0.950 . S
C1375 C1374 1.397 . S
C1375 C1376 1.334 . S
C1376 H1347 0.950 . S
C1376 C1375 1.334 . S
C1376 C1377 1.287 . S
C1377 C1376 1.287 . S
C1377 C1378 1.524 . S
C1377 H1380 0.999 . S
C1378 H1348 0.950 . S
C1378 C1377 1.524 . S
C1378 C1379 1.415 . S
C1379 H1349 0.950 . S
C1379 C1374 1.363 . S
C1379 C1378 1.415 . S
H1380 C1377 0.999 . S
H1381 C1362 0.913 . S
H1382 C1400 0.951 . S
H1383 C1402 0.951 . S
H1384 C1404 0.950 . S
H1385 C1405 0.950 . S
H1386 C1407 0.950 . S
H1387 C1410 0.950 . S
H1388 C1411 0.950 . S
H1389 C1413 0.950 . S
H1390 C1414 0.950 . S
H1391 C1415 0.951 . S
H1392 C1417 0.951 . S
H1393 C1419 0.950 . S
H1394 C1420 0.950 . S
H1395 C1422 0.950 . S
H1396 C1425 0.950 . S
H1397 C1426 0.950 . S
H1398 C1428 0.950 . S
H1399 C1429 0.950 . S
C1400 H1382 0.951 . S
C1400 C1401 1.366 . S
C1400 C1402 1.388 . S
C1401 C1400 1.366 . S
C1401 C1405 1.385 . S
C1402 H1383 0.951 . S
C1402 C1400 1.388 . S
C1402 C1403 1.366 . S
C1403 C1402 1.366 . S
C1403 C1404 1.414 . S
C1403 C1406 1.499 . S
C1404 H1384 0.950 . S
C1404 C1403 1.414 . S
C1404 C1405 1.374 . S
C1405 H1385 0.950 . S
C1405 C1401 1.385 . S
C1405 C1404 1.374 . S
C1406 C1403 1.499 . S
C1406 C1407 1.373 . S
C1406 C1408 1.389 . S
C1407 H1386 0.950 . S
C1407 C1406 1.373 . S
C1407 C1423 1.377 . S
C1408 C1406 1.389 . S
C1408 C1409 1.524 . S
C1408 C1422 1.377 . S
C1409 C1408 1.524 . S
C1409 C1410 1.397 . S
C1409 C1414 1.363 . S
C1410 H1387 0.950 . S
C1410 C1409 1.397 . S
C1410 C1411 1.334 . S
C1411 H1388 0.950 . S
C1411 C1410 1.334 . S
C1411 C1412 1.287 . S
C1412 C1411 1.287 . S
C1412 C1413 1.524 . S
C1412 H1431 0.913 . S
C1413 H1389 0.950 . S
C1413 C1412 1.524 . S
C1413 C1414 1.415 . S
C1414 H1390 0.950 . S
C1414 C1409 1.363 . S
C1414 C1413 1.415 . S
C1415 H1391 0.951 . S
C1415 C1416 1.366 . S
C1415 C1417 1.388 . S
C1416 C1415 1.366 . S
C1416 C1420 1.385 . S
C1417 H1392 0.951 . S
C1417 C1415 1.388 . S
C1417 C1418 1.366 . S
C1418 C1417 1.366 . S
C1418 C1419 1.414 . S
C1418 C1421 1.499 . S
C1419 H1393 0.950 . S
C1419 C1418 1.414 . S
C1419 C1420 1.374 . S
C1420 H1394 0.950 . S
C1420 C1416 1.385 . S
C1420 C1419 1.374 . S
C1421 C1418 1.499 . S
C1421 C1422 1.373 . S
C1421 C1423 1.389 . S
C1422 H1395 0.950 . S
C1422 C1408 1.377 . S
C1422 C1421 1.373 . S
C1423 C1407 1.377 . S
C1423 C1421 1.389 . S
C1423 C1424 1.524 . S
C1424 C1423 1.524 . S
C1424 C1425 1.397 . S
C1424 C1429 1.363 . S
C1425 H1396 0.950 . S
C1425 C1424 1.397 . S
C1425 C1426 1.334 . S
C1426 H1397 0.950 . S
C1426 C1425 1.334 . S
C1426 C1427 1.287 . S
C1427 C1426 1.287 . S
C1427 C1428 1.524 . S
C1427 H1430 0.999 . S
C1428 H1398 0.950 . S
C1428 C1427 1.524 . S
C1428 C1429 1.415 . S
C1429 H1399 0.950 . S
C1429 C1424 1.363 . S
C1429 C1428 1.415 . S
H1430 C1427 0.999 . S
H1431 C1412 0.913 . S
C251 C61 1.636 1_545 S
C266 C81 1.719 1_545 S
C316 C121 1.739 . S
C301 C70 1.656 . S
C366 C161 1.746 . S
C351 C43 1.662 . S
C416 C201 1.734 1_455 S
C401 C52 1.649 1_455 S
C466 C90 1.724 1_565 S
C451 C25 1.642 1_545 S
C501 C34 1.663 . S
C516 C130 1.743 . S
C551 C7 1.661 . S
C566 C170 1.745 . S
C601 C16 1.649 . S
C616 C210 1.734 1_655 S
C666 C87 0.301 . S
C651 C50 0.249 1_455 S
C716 C127 0.303 . S
C701 C59 0.263 1_545 S
C766 C167 0.305 . S
C751 C67 0.258 . S
C801 C41 0.252 . S
C816 C207 0.297 . S
C851 C14 0.244 . S
C866 C78 0.293 . S
C916 C118 0.303 . S
C901 C23 0.251 . S
C966 C158 0.304 . S
C951 C31 0.261 . S
C1001 C5 0.240 . S
C1016 C198 0.303 . S
C1051 C49 1.840 1_455 S
C1066 C91 2.013 . S
C1101 C58 1.793 1_545 S
C1116 C131 1.971 . S
C1166 C171 1.948 . S
C1151 C68 1.771 . S
C1216 C211 1.992 . S
C1201 C40 1.809 . S
C1251 C13 1.838 . S
C1266 C82 2.026 . S
C1316 C122 1.971 . S
C1301 C22 1.792 . S
C1366 C162 1.949 . S
C1351 C32 1.772 . S
C1401 C4 1.811 . S
C1416 C202 1.996 . S
