# Generated by pormake.
# Topology hwx, (6,3)-cn, num edge types: 1
# Building blocks:
#     Node 0, Type 0, BuildingBlock: IZENUY_clean_sbu_0, # of connection points: 6
#     Node 1, Type 0, BuildingBlock: IZENUY_clean_sbu_0, # of connection points: 6
#     Node 2, Type 0, BuildingBlock: IZENUY_clean_sbu_0, # of connection points: 6
#     Node 3, Type 0, BuildingBlock: IZENUY_clean_sbu_0, # of connection points: 6
#     Node 4, Type 1, BuildingBlock: MIDCAF_clean_linker_0, # of connection points: 3
#     Node 5, Type 1, BuildingBlock: MIDCAF_clean_linker_0, # of connection points: 3
#     Node 6, Type 1, BuildingBlock: MIDCAF_clean_linker_0, # of connection points: 3
#     Node 7, Type 1, BuildingBlock: MIDCAF_clean_linker_0, # of connection points: 3
#     Node 8, Type 1, BuildingBlock: MIDCAF_clean_linker_0, # of connection points: 3
#     Node 9, Type 1, BuildingBlock: MIDCAF_clean_linker_0, # of connection points: 3
#     Node 10, Type 1, BuildingBlock: MIDCAF_clean_linker_0, # of connection points: 3
#     Node 11, Type 1, BuildingBlock: MIDCAF_clean_linker_0, # of connection points: 3
#     Edge 12, Type (0, 1), BuildingBlock: AJUNOK_clean_linker_0, # of connection points: 2
#     Edge 13, Type (0, 1), BuildingBlock: AJUNOK_clean_linker_0, # of connection points: 2
#     Edge 14, Type (0, 1), BuildingBlock: AJUNOK_clean_linker_0, # of connection points: 2
#     Edge 15, Type (0, 1), BuildingBlock: AJUNOK_clean_linker_0, # of connection points: 2
#     Edge 16, Type (0, 1), BuildingBlock: AJUNOK_clean_linker_0, # of connection points: 2
#     Edge 17, Type (0, 1), BuildingBlock: AJUNOK_clean_linker_0, # of connection points: 2
#     Edge 18, Type (0, 1), BuildingBlock: AJUNOK_clean_linker_0, # of connection points: 2
#     Edge 19, Type (0, 1), BuildingBlock: AJUNOK_clean_linker_0, # of connection points: 2
#     Edge 20, Type (0, 1), BuildingBlock: AJUNOK_clean_linker_0, # of connection points: 2
#     Edge 21, Type (0, 1), BuildingBlock: AJUNOK_clean_linker_0, # of connection points: 2
#     Edge 22, Type (0, 1), BuildingBlock: AJUNOK_clean_linker_0, # of connection points: 2
#     Edge 23, Type (0, 1), BuildingBlock: AJUNOK_clean_linker_0, # of connection points: 2
#     Edge 24, Type (0, 1), BuildingBlock: AJUNOK_clean_linker_0, # of connection points: 2
#     Edge 25, Type (0, 1), BuildingBlock: AJUNOK_clean_linker_0, # of connection points: 2
#     Edge 26, Type (0, 1), BuildingBlock: AJUNOK_clean_linker_0, # of connection points: 2
#     Edge 27, Type (0, 1), BuildingBlock: AJUNOK_clean_linker_0, # of connection points: 2
#     Edge 28, Type (0, 1), BuildingBlock: AJUNOK_clean_linker_0, # of connection points: 2
#     Edge 29, Type (0, 1), BuildingBlock: AJUNOK_clean_linker_0, # of connection points: 2
#     Edge 30, Type (0, 1), BuildingBlock: AJUNOK_clean_linker_0, # of connection points: 2
#     Edge 31, Type (0, 1), BuildingBlock: AJUNOK_clean_linker_0, # of connection points: 2
#     Edge 32, Type (0, 1), BuildingBlock: AJUNOK_clean_linker_0, # of connection points: 2
#     Edge 33, Type (0, 1), BuildingBlock: AJUNOK_clean_linker_0, # of connection points: 2
#     Edge 34, Type (0, 1), BuildingBlock: AJUNOK_clean_linker_0, # of connection points: 2
#     Edge 35, Type (0, 1), BuildingBlock: AJUNOK_clean_linker_0, # of connection points: 2
# Relax obj value: 0.053
# Max RMSD: 0.077
# Mean RMSD: 0.069
data_MOF--net-hwx--node1-IZENUY_clean_sbu_0--node2-MIDCAF_clean_linker_0--edge1-AJUNOK_clean_linker_0
_symmetry_space_group_name_H-M    P1
_symmetry_Int_Tables_number       1
_symmetry_cell_setting            triclinic
loop_
_symmetry_equiv_pos_as_xyz
'x, y, z'
_cell_length_a     45.355822
_cell_length_b     45.273673
_cell_length_c     22.044097
_cell_angle_alpha  89.777523
_cell_angle_beta   90.090454
_cell_angle_gamma 89.987549
loop_
_atom_site_label
_atom_site_type_symbol
_atom_site_fract_x
_atom_site_fract_y
_atom_site_fract_z
_atom_type_partial_charge
Fe0 Fe 0.2386 0.21657 0.07461 0.0
Fe1 Fe 0.24314 0.21367 0.93596 0.0
O2 O 0.23085 0.19832 0.00549 0.0
Fe3 Fe 0.21073 0.16471 0.006 0.0
O4 O 0.18822 0.17428 0.07221 0.0
O5 O 0.19962 0.2204 0.09167 0.0
O6 O 0.23728 0.25383 0.04242 0.0
C7 C 0.22517 0.2637 0.99483 0.0
C8 C 0.24554 0.15598 0.10518 0.0
O9 O 0.22278 0.24775 0.9483 0.0
C10 C 0.25385 0.15515 0.91479 0.0
O11 O 0.27808 0.21392 0.06235 0.0
O12 O 0.27705 0.22923 0.9675 0.0
O13 O 0.23831 0.14659 0.0534 0.0
O14 O 0.24128 0.18266 0.11958 0.0
C15 C 0.18587 0.19281 0.90832 0.0
O16 O 0.26439 0.18085 0.91836 0.0
O17 O 0.22948 0.14902 0.93976 0.0
C18 C 0.29118 0.22286 0.01529 0.0
O19 O 0.21145 0.20068 0.89215 0.0
O20 O 0.18172 0.18049 0.95904 0.0
C21 C 0.18208 0.19887 0.09632 0.0
Fe22 Fe 0.25577 0.71331 0.56499 0.0
Fe23 Fe 0.28767 0.66349 0.49808 0.0
O24 O 0.26878 0.69773 0.49661 0.0
Fe25 Fe 0.26288 0.71626 0.42692 0.0
O26 O 0.2656 0.75355 0.45899 0.0
O27 O 0.27779 0.74628 0.55445 0.0
O28 O 0.28603 0.69874 0.61125 0.0
C29 C 0.31185 0.69107 0.59636 0.0
C30 C 0.20967 0.72526 0.48215 0.0
O31 O 0.31654 0.67853 0.54623 0.0
C32 C 0.25297 0.65606 0.39797 0.0
O33 O 0.23277 0.68136 0.58031 0.0
O34 O 0.26743 0.6487 0.56353 0.0
O35 O 0.22316 0.71519 0.43674 0.0
O36 O 0.22332 0.7308 0.53086 0.0
C37 C 0.3189 0.69627 0.40902 0.0
O38 O 0.26002 0.64641 0.44983 0.0
O39 O 0.25919 0.6823 0.38243 0.0
C40 C 0.24245 0.65534 0.58514 0.0
O41 O 0.31134 0.67196 0.43287 0.0
O42 O 0.30216 0.71846 0.41227 0.0
C43 C 0.27667 0.76272 0.50825 0.0
Fe44 Fe 0.75958 0.79828 0.91633 0.0
Fe45 Fe 0.75664 0.80245 0.0547 0.0
O46 O 0.76851 0.81702 0.9843 0.0
Fe47 Fe 0.7892 0.85031 0.98201 0.0
O48 O 0.77412 0.86273 0.90902 0.0
O49 O 0.73986 0.83024 0.88693 0.0
O50 O 0.7239 0.78429 0.94341 0.0
C51 C 0.70743 0.793 0.98611 0.0
C52 C 0.81824 0.81751 0.89713 0.0
O53 O 0.71831 0.80504 0.03245 0.0
C54 C 0.81207 0.82039 0.08523 0.0
O55 O 0.77874 0.76507 0.94107 0.0
O56 O 0.75889 0.76366 0.03163 0.0
O57 O 0.82008 0.83221 0.94545 0.0
O58 O 0.79358 0.80878 0.87714 0.0
C59 C 0.74852 0.86398 0.06855 0.0
O60 O 0.79428 0.79906 0.08155 0.0
O61 O 0.80796 0.8438 0.05473 0.0
C62 C 0.77299 0.75123 0.98939 0.0
O63 O 0.75198 0.83844 0.09082 0.0
O64 O 0.75988 0.87097 0.01837 0.0
C65 C 0.75074 0.85577 0.88109 0.0
Fe66 Fe 0.71163 0.35011 0.51506 0.0
Fe67 Fe 0.74066 0.29707 0.57824 0.0
O68 O 0.73051 0.31583 0.51079 0.0
Fe69 Fe 0.73924 0.30016 0.43958 0.0
O70 O 0.76053 0.33241 0.41715 0.0
O71 O 0.7282 0.3656 0.44606 0.0
O72 O 0.74155 0.367 0.55779 0.0
C73 C 0.75025 0.35714 0.60832 0.0
C74 C 0.68195 0.32351 0.42194 0.0
O75 O 0.74571 0.33054 0.62306 0.0
C76 C 0.72345 0.2502 0.50137 0.0
O77 O 0.69139 0.34054 0.58472 0.0
O78 O 0.70245 0.29393 0.60142 0.0
O79 O 0.70613 0.31391 0.40146 0.0
O80 O 0.68038 0.33597 0.47286 0.0
C81 C 0.79022 0.28849 0.511 0.0
O82 O 0.73748 0.2599 0.54661 0.0
O83 O 0.71848 0.26672 0.45634 0.0
C84 C 0.6855 0.31573 0.60877 0.0
O85 O 0.7795 0.29907 0.55907 0.0
O86 O 0.77397 0.2835 0.4654 0.0
C87 C 0.7507 0.3585 0.4155 0.0
C88 C 0.19176 0.59125 0.15975 0.0
C89 C 0.20826 0.57896 0.20761 0.0
C90 C 0.21712 0.54926 0.20378 0.0
C91 C 0.2105 0.53257 0.15219 0.0
H92 H 0.224 0.45088 0.06759 0.0
H93 H 0.231 0.39769 0.06572 0.0
H94 H 0.1744 0.39157 0.90845 0.0
H95 H 0.16879 0.44541 0.90822 0.0
H96 H 0.18052 0.50981 0.82175 0.0
H97 H 0.18714 0.53813 0.7282 0.0
H98 H 0.1976 0.61787 0.83288 0.0
H99 H 0.18993 0.59011 0.92574 0.0
H100 H 0.17342 0.5852 0.07129 0.0
H101 H 0.18434 0.61397 0.16167 0.0
H102 H 0.23034 0.53931 0.23933 0.0
H103 H 0.2185 0.51007 0.14971 0.0
N104 N 0.19394 0.49933 0.04356 0.0
N105 N 0.18769 0.50021 0.93771 0.0
N106 N 0.18747 0.54439 0.99282 0.0
C107 C 0.19175 0.48468 0.98999 0.0
C108 C 0.18567 0.53018 0.93878 0.0
C109 C 0.19143 0.52919 0.04537 0.0
C110 C 0.19554 0.45226 0.98852 0.0
C111 C 0.21291 0.43821 0.03276 0.0
C112 C 0.21673 0.40766 0.03194 0.0
C113 C 0.20253 0.39025 0.98802 0.0
C114 C 0.18553 0.40435 0.94303 0.0
C115 C 0.18223 0.43512 0.94303 0.0
C116 C 0.18519 0.54753 0.88151 0.0
C117 C 0.18376 0.53346 0.82478 0.0
C118 C 0.18775 0.54963 0.77116 0.0
C119 C 0.19358 0.58012 0.77327 0.0
C120 C 0.19313 0.59442 0.82967 0.0
C121 C 0.18888 0.57838 0.88308 0.0
C122 C 0.19529 0.54541 0.10306 0.0
C123 C 0.18548 0.57474 0.10799 0.0
C124 C 0.90221 0.82956 0.66569 0.0
C125 C 0.90885 0.81103 0.71495 0.0
C126 C 0.93225 0.79088 0.71027 0.0
C127 C 0.94821 0.78868 0.6562 0.0
H128 H 0.02923 0.76338 0.57981 0.0
H129 H 0.0803 0.74708 0.5746 0.0
H130 H 0.08143 0.76512 0.38217 0.0
H131 H 0.03004 0.78079 0.38671 0.0
H132 H 0.96178 0.78078 0.32495 0.0
H133 H 0.93045 0.7867 0.23519 0.0
H134 H 0.87028 0.84052 0.33831 0.0
H135 H 0.90129 0.83479 0.42792 0.0
H136 H 0.91149 0.84093 0.57343 0.0
H137 H 0.8841 0.84512 0.66833 0.0
H138 H 0.93762 0.77636 0.74786 0.0
H139 H 0.96564 0.77239 0.65309 0.0
N140 N 0.98233 0.79001 0.54248 0.0
N141 N 0.97933 0.79085 0.43614 0.0
N142 N 0.93958 0.80748 0.49454 0.0
C143 C 0.99491 0.78492 0.48752 0.0
C144 C 0.9516 0.80209 0.43936 0.0
C145 C 0.95473 0.80145 0.54623 0.0
C146 C 0.02549 0.77353 0.48373 0.0
C147 C 0.0402 0.76368 0.53621 0.0
C148 C 0.06949 0.75437 0.53331 0.0
C149 C 0.0848 0.75474 0.47797 0.0
C150 C 0.07002 0.76406 0.42525 0.0
C151 C 0.04062 0.77324 0.42803 0.0
C152 C 0.93402 0.80727 0.38368 0.0
C153 C 0.94206 0.79417 0.32834 0.0
C154 C 0.92413 0.79742 0.27705 0.0
C155 C 0.89816 0.8142 0.27997 0.0
C156 C 0.89045 0.82781 0.33477 0.0
C157 C 0.90814 0.82433 0.38612 0.0
C158 C 0.94054 0.80616 0.60571 0.0
C159 C 0.91774 0.82699 0.61139 0.0
C160 C 0.81105 0.42174 0.84551 0.0
C161 C 0.79689 0.43445 0.79508 0.0
C162 C 0.79198 0.46506 0.794 0.0
C163 C 0.79899 0.48227 0.84465 0.0
H164 H 0.8034 0.56677 0.90851 0.0
H165 H 0.79596 0.61995 0.90673 0.0
H166 H 0.80836 0.62304 0.10078 0.0
H167 H 0.81502 0.56954 0.10323 0.0
H168 H 0.80343 0.50711 0.17719 0.0
H169 H 0.79255 0.4785 0.26876 0.0
H170 H 0.80267 0.39761 0.16794 0.0
H171 H 0.81426 0.42582 0.07717 0.0
H172 H 0.82743 0.42802 0.93545 0.0
H173 H 0.81572 0.39827 0.84678 0.0
H174 H 0.78118 0.47537 0.7555 0.0
H175 H 0.7935 0.50555 0.84384 0.0
N176 N 0.81232 0.5157 0.95447 0.0
N177 N 0.81169 0.51586 0.06104 0.0
N178 N 0.81323 0.47105 0.00826 0.0
C179 C 0.81187 0.53098 0.00744 0.0
C180 C 0.81244 0.48579 0.06174 0.0
C181 C 0.81323 0.48575 0.95453 0.0
C182 C 0.80949 0.56369 0.00619 0.0
C183 C 0.80469 0.57867 0.95095 0.0
C184 C 0.80053 0.60924 0.94976 0.0
C185 C 0.80114 0.62561 0.00366 0.0
C186 C 0.80704 0.61088 0.05865 0.0
C187 C 0.81102 0.58024 0.05997 0.0
C188 C 0.80935 0.46887 0.11937 0.0
C189 C 0.80375 0.48323 0.17467 0.0
C190 C 0.7973 0.46685 0.22708 0.0
C191 C 0.79623 0.43581 0.22524 0.0
C192 C 0.80333 0.42148 0.17085 0.0
C193 C 0.80982 0.43777 0.11863 0.0
C194 C 0.81086 0.46904 0.89717 0.0
C195 C 0.81778 0.4388 0.89619 0.0
C196 C 0.1022 0.1826 0.33734 0.0
C197 C 0.09406 0.19977 0.28691 0.0
C198 C 0.06818 0.21675 0.28947 0.0
C199 C 0.05117 0.21718 0.34239 0.0
H200 H 0.96986 0.24015 0.41312 0.0
H201 H 0.91941 0.25835 0.41464 0.0
H202 H 0.91418 0.24028 0.60669 0.0
H203 H 0.96503 0.2225 0.60592 0.0
H204 H 0.02772 0.21151 0.67667 0.0
H205 H 0.05913 0.20885 0.76731 0.0
H206 H 0.12993 0.17333 0.65968 0.0
H207 H 0.09907 0.17555 0.56958 0.0
H208 H 0.09275 0.17025 0.42883 0.0
H209 H 0.1221 0.16936 0.33645 0.0
H210 H 0.06132 0.22992 0.25081 0.0
H211 H 0.03167 0.23098 0.34362 0.0
N212 N 0.0161 0.21433 0.45389 0.0
N213 N 0.01627 0.2106 0.56025 0.0
N214 N 0.05776 0.19626 0.50451 0.0
C215 C 0.002 0.21777 0.50785 0.0
C216 C 0.04422 0.19979 0.55884 0.0
C217 C 0.04395 0.20343 0.45193 0.0
C218 C 0.97151 0.22956 0.50931 0.0
C219 C 0.95808 0.24 0.45581 0.0
C220 C 0.92911 0.25034 0.45653 0.0
C221 C 0.91279 0.25026 0.51058 0.0
C222 C 0.92632 0.24055 0.56441 0.0
C223 C 0.9554 0.23028 0.56381 0.0
C224 C 0.061 0.19424 0.61552 0.0
C225 C 0.04979 0.2026 0.67249 0.0
C226 C 0.06763 0.20105 0.72437 0.0
C227 C 0.09686 0.19121 0.71979 0.0
C228 C 0.10746 0.18121 0.66388 0.0
C229 C 0.08973 0.1826 0.61234 0.0
C230 C 0.05999 0.20088 0.39378 0.0
C231 C 0.08545 0.18326 0.39029 0.0
C232 C 0.7014 0.92523 0.30954 0.0
C233 C 0.70386 0.94079 0.25457 0.0
C234 C 0.6995 0.97153 0.25442 0.0
C235 C 0.69373 0.98647 0.3087 0.0
H236 H 0.69447 0.06943 0.38549 0.0
H237 H 0.70078 0.12283 0.39162 0.0
H238 H 0.68366 0.1194 0.58403 0.0
H239 H 0.67802 0.06594 0.57864 0.0
H240 H 0.69122 0.00368 0.64788 0.0
H241 H 0.70213 0.97414 0.73824 0.0
H242 H 0.70346 0.89517 0.62922 0.0
H243 H 0.69181 0.92419 0.53957 0.0
H244 H 0.69439 0.92714 0.40486 0.0
H245 H 0.70491 0.90157 0.3113 0.0
H246 H 0.70077 0.98403 0.21252 0.0
H247 H 0.69105 0.01023 0.30737 0.0
N248 N 0.68706 0.01636 0.42508 0.0
N249 N 0.68627 0.01427 0.53164 0.0
N250 N 0.68891 0.97071 0.47512 0.0
C251 C 0.68573 0.03046 0.47942 0.0
C252 C 0.68777 0.98429 0.52977 0.0
C253 C 0.6885 0.98642 0.42262 0.0
C254 C 0.68621 0.06323 0.48179 0.0
C255 C 0.69178 0.08001 0.42911 0.0
C256 C 0.69529 0.11064 0.43246 0.0
C257 C 0.69326 0.12516 0.48845 0.0
C258 C 0.68608 0.10866 0.5405 0.0
C259 C 0.68274 0.07803 0.53729 0.0
C260 C 0.69102 0.96645 0.5861 0.0
C261 C 0.69346 0.97998 0.64324 0.0
C262 C 0.69991 0.9631 0.69498 0.0
C263 C 0.70419 0.93241 0.69055 0.0
C264 C 0.70028 0.91876 0.63409 0.0
C265 C 0.69375 0.93552 0.58256 0.0
C266 C 0.69211 0.97088 0.36399 0.0
C267 C 0.69551 0.94001 0.36341 0.0
C268 C 0.60742 0.32606 0.85574 0.0
C269 C 0.59897 0.31126 0.80268 0.0
C270 C 0.57218 0.2957 0.80188 0.0
C271 C 0.55452 0.29437 0.85386 0.0
H272 H 0.46327 0.29278 0.92538 0.0
H273 H 0.4125 0.2753 0.92617 0.0
H274 H 0.4252 0.23983 0.10658 0.0
H275 H 0.4756 0.25869 0.10701 0.0
H276 H 0.53402 0.28101 0.18172 0.0
H277 H 0.56252 0.28713 0.27531 0.0
H278 H 0.61725 0.35211 0.18674 0.0
H279 H 0.58929 0.34578 0.09286 0.0
H280 H 0.59751 0.33577 0.94817 0.0
H281 H 0.628 0.33818 0.85752 0.0
H282 H 0.56501 0.28444 0.76118 0.0
H283 H 0.53426 0.28174 0.85222 0.0
N284 N 0.51859 0.2937 0.96389 0.0
N285 N 0.51712 0.2952 0.07036 0.0
N286 N 0.55916 0.31156 0.01859 0.0
C287 C 0.5038 0.28892 0.0167 0.0
C288 C 0.54471 0.30677 0.07156 0.0
C289 C 0.5464 0.30492 0.96458 0.0
C290 C 0.47345 0.27705 0.01604 0.0
C291 C 0.4553 0.28106 0.96502 0.0
C292 C 0.42626 0.27081 0.96532 0.0
C293 C 0.41495 0.25566 0.01604 0.0
C294 C 0.43321 0.25149 0.06691 0.0
C295 C 0.46209 0.26223 0.06705 0.0
C296 C 0.55958 0.31276 0.12986 0.0
C297 C 0.5518 0.29697 0.1825 0.0
C298 C 0.56804 0.30042 0.23596 0.0
C299 C 0.59179 0.32023 0.23797 0.0
C300 C 0.59873 0.337 0.18631 0.0
C301 C 0.5829 0.33317 0.13258 0.0
C302 C 0.56349 0.30839 0.90771 0.0
C303 C 0.58997 0.32455 0.90772 0.0
C304 C 0.30455 0.09287 0.67156 0.0
C305 C 0.30104 0.07841 0.72752 0.0
C306 C 0.30479 0.04759 0.7302 0.0
C307 C 0.31006 0.03141 0.67727 0.0
H308 H 0.33176 0.94497 0.59697 0.0
H309 H 0.32735 0.89118 0.59828 0.0
H310 H 0.27871 0.89471 0.42967 0.0
H311 H 0.28457 0.94806 0.42667 0.0
H312 H 0.28756 0.0077 0.34781 0.0
H313 H 0.27378 0.0372 0.25876 0.0
H314 H 0.30789 0.11536 0.34547 0.0
H315 H 0.3212 0.08634 0.43455 0.0
H316 H 0.31143 0.08877 0.57633 0.0
H317 H 0.30177 0.11658 0.66798 0.0
H318 H 0.30291 0.03591 0.77298 0.0
H319 H 0.31173 0.0076 0.68059 0.0
N320 N 0.31274 0.99869 0.56377 0.0
N321 N 0.30851 0.9983 0.45747 0.0
N322 N 0.31139 0.04321 0.50933 0.0
C323 C 0.3106 0.98335 0.51095 0.0
C324 C 0.30923 0.02826 0.45629 0.0
C325 C 0.31308 0.02874 0.56326 0.0
C326 C 0.30849 0.95075 0.51177 0.0
C327 C 0.32021 0.93418 0.56015 0.0
C328 C 0.31745 0.90338 0.56116 0.0
C329 C 0.30227 0.88862 0.51454 0.0
C330 C 0.29078 0.90529 0.46603 0.0
C331 C 0.29405 0.93593 0.4644 0.0
C332 C 0.30496 0.04478 0.3988 0.0
C333 C 0.29254 0.0311 0.34751 0.0
C334 C 0.2847 0.04791 0.29649 0.0
C335 C 0.28922 0.07858 0.296 0.0
C336 C 0.30353 0.09183 0.34541 0.0
C337 C 0.31117 0.07517 0.39636 0.0
C338 C 0.31185 0.04578 0.62067 0.0
C339 C 0.30995 0.0768 0.61886 0.0
C340 C 0.40018 0.68153 0.17132 0.0
C341 C 0.40773 0.69923 0.22105 0.0
C342 C 0.43195 0.71841 0.21659 0.0
C343 C 0.44824 0.71999 0.16279 0.0
H344 H 0.53354 0.73301 0.09045 0.0
H345 H 0.58361 0.75203 0.08621 0.0
H346 H 0.57804 0.7573 0.89098 0.0
H347 H 0.52797 0.73761 0.89464 0.0
H348 H 0.4698 0.71335 0.82737 0.0
H349 H 0.43823 0.7096 0.73714 0.0
H350 H 0.3662 0.67975 0.849 0.0
H351 H 0.39718 0.68305 0.93865 0.0
H352 H 0.40932 0.66989 0.07946 0.0
H353 H 0.38132 0.66687 0.17351 0.0
H354 H 0.43802 0.73234 0.25444 0.0
H355 H 0.46653 0.73532 0.16008 0.0
N356 N 0.48293 0.71753 0.05025 0.0
N357 N 0.48123 0.71525 0.94381 0.0
N358 N 0.44066 0.6999 0.00142 0.0
C359 C 0.49623 0.72177 0.99562 0.0
C360 C 0.45338 0.70424 0.94645 0.0
C361 C 0.45519 0.70647 0.0534 0.0
C362 C 0.5266 0.73379 0.99287 0.0
C363 C 0.54281 0.73832 0.0465 0.0
C364 C 0.57147 0.74946 0.04421 0.0
C365 C 0.58452 0.75656 0.98834 0.0
C366 C 0.56845 0.75201 0.93467 0.0
C367 C 0.53977 0.74077 0.93687 0.0
C368 C 0.43597 0.69891 0.89053 0.0
C369 C 0.44737 0.70557 0.83266 0.0
C370 C 0.42943 0.70338 0.78103 0.0
C371 C 0.39988 0.69469 0.78674 0.0
C372 C 0.38892 0.68673 0.84386 0.0
C373 C 0.40675 0.6887 0.89514 0.0
C374 C 0.4401 0.70289 0.11232 0.0
C375 C 0.4161 0.68342 0.11742 0.0
C376 C 0.14389 0.17397 0.16018 0.0
C377 C 0.15703 0.20038 0.13955 0.0
C378 C 0.12273 0.17408 0.2063 0.0
C379 C 0.11354 0.2006 0.2331 0.0
H380 H 0.15075 0.15281 0.1423 0.0
H381 H 0.11395 0.15317 0.22211 0.0
S382 S 0.13899 0.27593 0.19295 0.0
N383 N 0.15773 0.254 0.14736 0.0
N384 N 0.11789 0.25404 0.23426 0.0
C385 C 0.12536 0.22726 0.21129 0.0
C386 C 0.14713 0.22719 0.16452 0.0
C387 C 0.20338 0.64355 0.66198 0.0
C388 C 0.22717 0.63407 0.62593 0.0
C389 C 0.1915 0.62533 0.70732 0.0
C390 C 0.20279 0.59685 0.71828 0.0
H391 H 0.1946 0.66568 0.65704 0.0
H392 H 0.17395 0.634 0.73541 0.0
S393 S 0.26274 0.56016 0.63233 0.0
N394 N 0.25962 0.59307 0.60053 0.0
N395 N 0.23779 0.55926 0.68669 0.0
C396 C 0.22535 0.58641 0.68025 0.0
C397 C 0.23741 0.60491 0.6339 0.0
C398 C 0.8461 0.79211 0.15342 0.0
C399 C 0.83568 0.81947 0.13169 0.0
C400 C 0.86716 0.79061 0.19994 0.0
C401 C 0.87823 0.81641 0.22696 0.0
H402 H 0.83772 0.77165 0.13476 0.0
H403 H 0.87414 0.7691 0.21621 0.0
S404 S 0.85911 0.89351 0.18567 0.0
N405 N 0.83888 0.87305 0.13984 0.0
N406 N 0.87828 0.87003 0.22752 0.0
C407 C 0.86853 0.84389 0.20498 0.0
C408 C 0.84734 0.84547 0.15721 0.0
C409 C 0.77879 0.40213 0.64001 0.0
C410 C 0.76134 0.37752 0.65533 0.0
C411 C 0.79027 0.42072 0.68528 0.0
C412 C 0.78454 0.41524 0.74706 0.0
H413 H 0.78407 0.40669 0.59299 0.0
H414 H 0.80406 0.43917 0.672 0.0
S415 S 0.73645 0.35639 0.80997 0.0
N416 N 0.73658 0.35048 0.73618 0.0
N417 N 0.75781 0.38542 0.82053 0.0
C418 C 0.76616 0.39143 0.76254 0.0
C419 C 0.75465 0.37256 0.71685 0.0
C420 C 0.64925 0.29616 0.35172 0.0
C421 C 0.65603 0.32254 0.38201 0.0
C422 C 0.62711 0.2953 0.3075 0.0
C423 C 0.61156 0.32098 0.29117 0.0
H424 H 0.66163 0.2762 0.36135 0.0
H425 H 0.6231 0.27474 0.28387 0.0
S426 S 0.62063 0.39539 0.358 0.0
N427 N 0.6449 0.37465 0.39448 0.0
N428 N 0.60371 0.37325 0.30974 0.0
C429 C 0.61763 0.34734 0.32214 0.0
C430 C 0.63977 0.34806 0.36812 0.0
C431 C 0.29314 0.14128 0.83998 0.0
C432 C 0.26774 0.13342 0.87306 0.0
C433 C 0.30462 0.12274 0.79501 0.0
C434 C 0.29127 0.09552 0.78133 0.0
H435 H 0.30379 0.16236 0.84734 0.0
H436 H 0.32369 0.13015 0.76961 0.0
S437 S 0.22547 0.06352 0.85681 0.0
N438 N 0.23068 0.09541 0.89116 0.0
N439 N 0.25196 0.06104 0.80585 0.0
C440 C 0.26667 0.08675 0.8157 0.0
C441 C 0.25499 0.10556 0.86168 0.0
C442 C 0.3528 0.72399 0.33932 0.0
C443 C 0.3448 0.69724 0.36784 0.0
C444 C 0.37451 0.72478 0.29414 0.0
C445 C 0.38887 0.69885 0.27565 0.0
H446 H 0.34151 0.74436 0.35034 0.0
H447 H 0.37904 0.74555 0.27144 0.0
S448 S 0.37922 0.62391 0.34054 0.0
N449 N 0.35549 0.64461 0.37794 0.0
N450 N 0.39596 0.64637 0.29256 0.0
C451 C 0.38243 0.67234 0.3059 0.0
C452 C 0.36053 0.67147 0.3522 0.0
C453 C 0.71273 0.86876 0.80232 0.0
C454 C 0.73792 0.87674 0.83599 0.0
C455 C 0.70136 0.8873 0.75681 0.0
C456 C 0.71459 0.91464 0.74328 0.0
H457 H 0.70193 0.84777 0.8103 0.0
H458 H 0.68227 0.87997 0.73141 0.0
S459 S 0.78046 0.9465 0.81859 0.0
N460 N 0.77517 0.91462 0.85342 0.0
N461 N 0.754 0.949 0.76736 0.0
C462 C 0.73928 0.9233 0.77747 0.0
C463 C 0.75088 0.90448 0.82386 0.0
C464 C 0.86317 0.83819 0.84723 0.0
C465 C 0.84432 0.81409 0.85804 0.0
C466 C 0.88504 0.83673 0.80237 0.0
C467 C 0.88918 0.81087 0.76827 0.0
H468 H 0.85992 0.85881 0.87111 0.0
H469 H 0.8982 0.85618 0.79295 0.0
S470 S 0.8473 0.74097 0.78326 0.0
N471 N 0.83226 0.76322 0.8337 0.0
N472 N 0.87391 0.76021 0.75067 0.0
C473 C 0.87157 0.78615 0.78111 0.0
C474 C 0.84897 0.78784 0.82572 0.0
C475 C 0.79015 0.37387 0.3419 0.0
C476 C 0.76328 0.38002 0.37127 0.0
C477 C 0.8012 0.39255 0.29632 0.0
C478 C 0.78589 0.41817 0.27825 0.0
H479 H 0.80257 0.35419 0.35341 0.0
H480 H 0.82171 0.38664 0.27435 0.0
S481 S 0.7145 0.44437 0.34003 0.0
N482 N 0.72178 0.41402 0.37893 0.0
N483 N 0.74242 0.44867 0.29293 0.0
C484 C 0.75935 0.42496 0.308 0.0
C485 C 0.7481 0.40602 0.35451 0.0
C486 C 0.13623 0.17694 0.86908 0.0
C487 C 0.16152 0.19488 0.86356 0.0
C488 C 0.11455 0.17654 0.82345 0.0
C489 C 0.11757 0.19403 0.77108 0.0
H490 H 0.13364 0.16236 0.90778 0.0
H491 H 0.09592 0.16174 0.82807 0.0
S492 S 0.17709 0.24772 0.73822 0.0
N493 N 0.18641 0.23284 0.80398 0.0
N494 N 0.14587 0.23164 0.71853 0.0
C495 C 0.14183 0.21307 0.76642 0.0
C496 C 0.16375 0.21362 0.81262 0.0
C497 C 0.24134 0.64439 0.29006 0.0
C498 C 0.24068 0.63582 0.35152 0.0
C499 C 0.23062 0.62592 0.24445 0.0
C500 C 0.21853 0.59809 0.2581 0.0
H501 H 0.25067 0.66543 0.27659 0.0
H502 H 0.23235 0.63336 0.19782 0.0
S503 S 0.20976 0.56573 0.41196 0.0
N504 N 0.22592 0.59789 0.42388 0.0
N505 N 0.20528 0.56326 0.33776 0.0
C506 C 0.21727 0.58928 0.31935 0.0
C507 C 0.22839 0.60812 0.36609 0.0
C508 C 0.36106 0.6759 0.63921 0.0
C509 C 0.33585 0.69408 0.64157 0.0
C510 C 0.38254 0.67688 0.6852 0.0
C511 C 0.37942 0.69607 0.7347 0.0
H512 H 0.36372 0.66013 0.60281 0.0
H513 H 0.4011 0.66185 0.6832 0.0
S514 S 0.32011 0.75112 0.75788 0.0
N515 N 0.31095 0.73409 0.69453 0.0
N516 N 0.35113 0.73553 0.78069 0.0
C517 C 0.35524 0.71534 0.73598 0.0
C518 C 0.3335 0.71446 0.68945 0.0
C519 C 0.70979 0.87837 0.14183 0.0
C520 C 0.73431 0.88649 0.10671 0.0
C521 C 0.69873 0.89713 0.18657 0.0
C522 C 0.71217 0.92448 0.19882 0.0
H523 H 0.69973 0.85686 0.1362 0.0
H524 H 0.68029 0.88956 0.21367 0.0
S525 S 0.77648 0.95633 0.11773 0.0
N526 N 0.77083 0.9242 0.08444 0.0
N527 N 0.75073 0.95922 0.17029 0.0
C528 C 0.73588 0.93349 0.16194 0.0
C529 C 0.74683 0.9145 0.11551 0.0
C530 C 0.65023 0.33986 0.68021 0.0
C531 C 0.66138 0.31381 0.65403 0.0
C532 C 0.62946 0.33882 0.7271 0.0
C533 C 0.61871 0.31174 0.74915 0.0
H534 H 0.65828 0.3613 0.66585 0.0
H535 H 0.62207 0.35939 0.74691 0.0
S536 S 0.63934 0.23723 0.69424 0.0
N537 N 0.659 0.2601 0.65209 0.0
N538 N 0.61989 0.25827 0.74032 0.0
C539 C 0.62881 0.28555 0.72215 0.0
C540 C 0.65018 0.28656 0.67465 0.0
C541 C 0.27257 0.11031 0.13924 0.0
C542 C 0.25526 0.13519 0.15311 0.0
C543 C 0.28327 0.09165 0.18549 0.0
C544 C 0.2769 0.09732 0.24684 0.0
H545 H 0.27849 0.10569 0.09264 0.0
H546 H 0.29714 0.07311 0.17337 0.0
S547 S 0.22872 0.1568 0.30598 0.0
N548 N 0.22976 0.16258 0.23207 0.0
N549 N 0.24961 0.12753 0.31826 0.0
C550 C 0.25851 0.12129 0.26082 0.0
C551 C 0.24776 0.14023 0.21413 0.0
C552 C 0.21691 0.31108 0.93742 0.0
C553 C 0.21677 0.29533 0.99259 0.0
C554 C 0.21163 0.34167 0.93592 0.0
C555 C 0.20569 0.35751 0.98943 0.0
H556 H 0.22217 0.29994 0.8954 0.0
H557 H 0.21313 0.35312 0.8928 0.0
S558 S 0.19868 0.32575 0.14423 0.0
N559 N 0.20782 0.29744 0.10126 0.0
N560 N 0.19673 0.35443 0.09801 0.0
C561 C 0.20391 0.34165 0.04431 0.0
C562 C 0.20973 0.31072 0.04598 0.0
C563 C 0.16571 0.75241 0.52057 0.0
C564 C 0.17796 0.73285 0.47798 0.0
C565 C 0.13571 0.75941 0.51973 0.0
C566 C 0.1166 0.74705 0.47649 0.0
H567 H 0.17941 0.76256 0.55498 0.0
H568 H 0.12742 0.77479 0.55316 0.0
S569 S 0.13715 0.69377 0.35628 0.0
N570 N 0.16846 0.70083 0.39171 0.0
N571 N 0.11178 0.71378 0.39071 0.0
C572 C 0.12843 0.72751 0.43344 0.0
C573 C 0.15915 0.72045 0.43408 0.0
C574 C 0.801 0.70644 0.95521 0.0
C575 C 0.78034 0.71932 0.99474 0.0
C576 C 0.80796 0.67628 0.95896 0.0
C577 C 0.79453 0.65779 0.00234 0.0
H578 H 0.81197 0.71974 0.92114 0.0
H579 H 0.82403 0.66737 0.92767 0.0
S580 S 0.73781 0.67998 0.11437 0.0
N581 N 0.74596 0.71079 0.07784 0.0
N582 N 0.75877 0.6542 0.08397 0.0
C583 C 0.77379 0.67029 0.04199 0.0
C584 C 0.76677 0.70099 0.0384 0.0
C585 C 0.84169 0.28962 0.55276 0.0
C586 C 0.82139 0.27858 0.5101 0.0
C587 C 0.87121 0.28033 0.55287 0.0
C588 C 0.88147 0.25966 0.51036 0.0
H589 H 0.83482 0.30575 0.58604 0.0
H590 H 0.88619 0.28964 0.58599 0.0
S591 S 0.83687 0.22194 0.39271 0.0
N592 N 0.81351 0.24453 0.42624 0.0
N593 N 0.86879 0.227 0.42715 0.0
C594 C 0.86135 0.24804 0.46825 0.0
C595 C 0.83138 0.25751 0.46793 0.0
C596 C 0.69535 0.20783 0.45581 0.0
C597 C 0.71563 0.21835 0.49912 0.0
C598 C 0.68796 0.17774 0.45284 0.0
C599 C 0.70051 0.15706 0.49314 0.0
H600 H 0.68502 0.22295 0.42405 0.0
H601 H 0.6722 0.17061 0.41895 0.0
S602 S 0.75631 0.17258 0.61202 0.0
N603 N 0.74902 0.20514 0.58168 0.0
N604 N 0.7353 0.14885 0.57536 0.0
C605 C 0.72099 0.16718 0.53616 0.0
C606 C 0.72849 0.19773 0.53935 0.0
C607 C 0.33622 0.24154 0.06832 0.0
C608 C 0.32313 0.22883 0.01689 0.0
C609 C 0.36605 0.24975 0.06804 0.0
C610 C 0.3839 0.24509 0.01664 0.0
H611 H 0.3231 0.24618 0.10818 0.0
H612 H 0.37495 0.26058 0.10778 0.0
S613 S 0.3608 0.20844 0.87389 0.0
N614 N 0.33052 0.20972 0.91526 0.0
N615 N 0.38681 0.2239 0.91552 0.0
C616 C 0.37127 0.23101 0.96609 0.0
C617 C 0.34085 0.22317 0.96605 0.0
C618 C 0.29489 0.8093 0.46067 0.0
C619 C 0.28543 0.79412 0.51286 0.0
C620 C 0.30125 0.83955 0.46228 0.0
C621 C 0.29799 0.856 0.51596 0.0
H622 H 0.29724 0.79774 0.41799 0.0
H623 H 0.30848 0.8502 0.42082 0.0
S624 S 0.27355 0.82659 0.66518 0.0
N625 N 0.2736 0.79754 0.62017 0.0
N626 N 0.28445 0.85465 0.62277 0.0
C627 C 0.289 0.84094 0.56885 0.0
C628 C 0.28297 0.80997 0.56739 0.0
C629 C 0.66531 0.76317 0.94614 0.0
C630 C 0.67564 0.78547 0.98511 0.0
C631 C 0.63571 0.75437 0.94667 0.0
C632 C 0.61528 0.7676 0.98603 0.0
H633 H 0.68031 0.75183 0.91594 0.0
H634 H 0.62894 0.73653 0.91715 0.0
S635 S 0.63021 0.82926 0.09207 0.0
N636 N 0.6625 0.82209 0.06096 0.0
N637 N 0.60679 0.8057 0.06141 0.0
C638 C 0.62503 0.79061 0.02372 0.0
C639 C 0.6552 0.79952 0.02336 0.0
loop_
_geom_bond_atom_site_label_1
_geom_bond_atom_site_label_2
_geom_bond_distance
_geom_bond_site_symmetry_2
_ccdc_geom_bond_type
Fe0 O2 1.918 . S
Fe0 O5 1.997 . S
Fe0 O6 2.002 . S
Fe0 O11 1.976 . S
Fe0 O14 1.996 . S
Fe1 O2 1.918 1_556 S
Fe1 O9 1.997 . S
Fe1 O12 1.996 . S
Fe1 O16 1.976 . S
Fe1 O19 2.002 . S
O2 Fe0 1.918 . S
O2 Fe1 1.918 1_554 S
O2 Fe3 1.918 . S
Fe3 O2 1.918 . S
Fe3 O4 2.002 . S
Fe3 O13 1.976 . S
Fe3 O17 1.996 1_554 S
Fe3 O20 1.997 1_554 S
O4 Fe3 2.002 . S
O4 C21 1.295 . S
O5 Fe0 1.997 . S
O5 C21 1.235 . S
O6 Fe0 2.002 . S
O6 C7 1.295 . S
C7 O6 1.295 . S
C7 O9 1.235 1_554 S
C8 O13 1.287 . S
C8 O14 1.255 . S
O9 Fe1 1.997 . S
O9 C7 1.235 1_556 S
C10 O16 1.287 . S
C10 O17 1.255 . S
O11 Fe0 1.976 . S
O11 C18 1.285 1_554 S
O12 Fe1 1.996 . S
O12 C18 1.256 . S
O13 Fe3 1.976 . S
O13 C8 1.287 . S
O14 Fe0 1.996 . S
O14 C8 1.255 . S
C15 O19 1.295 . S
C15 O20 1.235 . S
O16 Fe1 1.976 . S
O16 C10 1.287 . S
O17 Fe3 1.996 1_556 S
O17 C10 1.255 . S
C18 O11 1.285 1_556 S
C18 O12 1.256 . S
O19 Fe1 2.002 . S
O19 C15 1.295 . S
O20 Fe3 1.997 1_556 S
O20 C15 1.235 . S
C21 O4 1.295 . S
C21 O5 1.235 . S
Fe22 O24 1.918 . S
Fe22 O27 1.997 . S
Fe22 O28 2.002 . S
Fe22 O33 1.976 . S
Fe22 O36 1.996 . S
Fe23 O24 1.918 . S
Fe23 O31 1.997 . S
Fe23 O34 1.996 . S
Fe23 O38 1.976 . S
Fe23 O41 2.002 . S
O24 Fe22 1.918 . S
O24 Fe23 1.918 . S
O24 Fe25 1.918 . S
Fe25 O24 1.918 . S
Fe25 O26 2.002 . S
Fe25 O35 1.976 . S
Fe25 O39 1.996 . S
Fe25 O42 1.997 . S
O26 Fe25 2.002 . S
O26 C43 1.295 . S
O27 Fe22 1.997 . S
O27 C43 1.235 . S
O28 Fe22 2.002 . S
O28 C29 1.295 . S
C29 O28 1.295 . S
C29 O31 1.235 . S
C30 O35 1.287 . S
C30 O36 1.255 . S
O31 Fe23 1.997 . S
O31 C29 1.235 . S
C32 O38 1.287 . S
C32 O39 1.255 . S
O33 Fe22 1.976 . S
O33 C40 1.287 . S
O34 Fe23 1.996 . S
O34 C40 1.255 . S
O35 Fe25 1.976 . S
O35 C30 1.287 . S
O36 Fe22 1.996 . S
O36 C30 1.255 . S
C37 O41 1.295 . S
C37 O42 1.235 . S
O38 Fe23 1.976 . S
O38 C32 1.287 . S
O39 Fe25 1.996 . S
O39 C32 1.255 . S
C40 O33 1.287 . S
C40 O34 1.255 . S
O41 Fe23 2.002 . S
O41 C37 1.295 . S
O42 Fe25 1.997 . S
O42 C37 1.235 . S
C43 O26 1.295 . S
C43 O27 1.235 . S
Fe44 O46 1.918 1_556 S
Fe44 O49 1.997 . S
Fe44 O50 2.002 . S
Fe44 O55 1.976 . S
Fe44 O58 1.996 . S
Fe45 O46 1.918 . S
Fe45 O53 1.997 . S
Fe45 O56 1.996 . S
Fe45 O60 1.976 . S
Fe45 O63 2.002 . S
O46 Fe44 1.918 1_554 S
O46 Fe45 1.918 . S
O46 Fe47 1.918 . S
Fe47 O46 1.918 . S
Fe47 O48 2.002 1_554 S
Fe47 O57 1.976 1_554 S
Fe47 O61 1.996 . S
Fe47 O64 1.997 . S
O48 Fe47 2.002 1_556 S
O48 C65 1.295 . S
O49 Fe44 1.997 . S
O49 C65 1.235 . S
O50 Fe44 2.002 . S
O50 C51 1.304 . S
C51 O50 1.304 . S
C51 O53 1.227 1_556 S
C52 O57 1.287 . S
C52 O58 1.255 . S
O53 Fe45 1.997 . S
O53 C51 1.227 1_554 S
C54 O60 1.287 . S
C54 O61 1.255 . S
O55 Fe44 1.976 . S
O55 C62 1.287 1_556 S
O56 Fe45 1.996 . S
O56 C62 1.255 . S
O57 Fe47 1.976 1_556 S
O57 C52 1.287 . S
O58 Fe44 1.996 . S
O58 C52 1.255 . S
C59 O63 1.295 . S
C59 O64 1.235 . S
O60 Fe45 1.976 . S
O60 C54 1.287 . S
O61 Fe47 1.996 . S
O61 C54 1.255 . S
C62 O55 1.287 1_554 S
C62 O56 1.255 . S
O63 Fe45 2.002 . S
O63 C59 1.295 . S
O64 Fe47 1.997 . S
O64 C59 1.235 . S
C65 O48 1.295 . S
C65 O49 1.235 . S
Fe66 O68 1.918 . S
Fe66 O71 1.997 . S
Fe66 O72 2.002 . S
Fe66 O77 1.976 . S
Fe66 O80 1.996 . S
Fe67 O68 1.918 . S
Fe67 O75 1.997 . S
Fe67 O78 1.996 . S
Fe67 O82 1.976 . S
Fe67 O85 2.002 . S
O68 Fe66 1.918 . S
O68 Fe67 1.918 . S
O68 Fe69 1.918 . S
Fe69 O68 1.918 . S
Fe69 O70 2.002 . S
Fe69 O79 1.976 . S
Fe69 O83 1.996 . S
Fe69 O86 1.997 . S
O70 Fe69 2.002 . S
O70 C87 1.295 . S
O71 Fe66 1.997 . S
O71 C87 1.235 . S
O72 Fe66 2.002 . S
O72 C73 1.295 . S
C73 O72 1.295 . S
C73 O75 1.235 . S
C74 O79 1.287 . S
C74 O80 1.255 . S
O75 Fe67 1.997 . S
O75 C73 1.235 . S
C76 O82 1.287 . S
C76 O83 1.255 . S
O77 Fe66 1.976 . S
O77 C84 1.287 . S
O78 Fe67 1.996 . S
O78 C84 1.255 . S
O79 Fe69 1.976 . S
O79 C74 1.287 . S
O80 Fe66 1.996 . S
O80 C74 1.255 . S
C81 O85 1.295 . S
C81 O86 1.235 . S
O82 Fe67 1.976 . S
O82 C76 1.287 . S
O83 Fe69 1.996 . S
O83 C76 1.255 . S
C84 O77 1.287 . S
C84 O78 1.255 . S
O85 Fe67 2.002 . S
O85 C81 1.295 . S
O86 Fe69 1.997 . S
O86 C81 1.235 . S
C87 O70 1.295 . S
C87 O71 1.235 . S
C88 C89 1.384 . S
C88 H101 0.947 . S
C88 C123 1.382 . S
C89 C88 1.384 . S
C89 C90 1.378 . S
C90 C89 1.378 . S
C90 C91 1.378 . S
C90 H102 0.952 . S
C91 C90 1.378 . S
C91 H103 0.950 . S
C91 C122 1.383 . S
H92 C111 0.947 . S
H93 C112 0.946 . S
H94 C114 0.953 . S
H95 C115 0.945 . S
H96 C117 0.952 . S
H97 C118 0.949 . S
H98 C120 0.950 . S
H99 C121 0.948 . S
H100 C123 0.951 . S
H101 C88 0.947 . S
H102 C90 0.952 . S
H103 C91 0.950 . S
N104 C107 1.371 1_554 S
N104 C109 1.363 . S
N105 C107 1.383 . S
N105 C108 1.372 . S
N106 C108 1.361 . S
N106 C109 1.377 1_556 S
C107 N104 1.371 1_556 S
C107 N105 1.383 . S
C107 C110 1.480 . S
C108 N105 1.372 . S
C108 N106 1.361 . S
C108 C116 1.457 . S
C109 N104 1.363 . S
C109 N106 1.377 1_554 S
C109 C122 1.479 . S
C110 C107 1.480 . S
C110 C111 1.383 1_556 S
C110 C115 1.385 . S
C111 H92 0.947 . S
C111 C110 1.383 1_554 S
C111 C112 1.388 . S
C112 H93 0.946 . S
C112 C111 1.388 . S
C112 C113 1.384 1_554 S
C113 C112 1.384 1_556 S
C113 C114 1.377 . S
C114 H94 0.953 . S
C114 C113 1.377 . S
C114 C115 1.369 . S
C115 H95 0.945 . S
C115 C110 1.385 . S
C115 C114 1.369 . S
C116 C108 1.457 . S
C116 C117 1.372 . S
C116 C121 1.364 . S
C117 H96 0.952 . S
C117 C116 1.372 . S
C117 C118 1.389 . S
C118 H97 0.949 . S
C118 C117 1.389 . S
C118 C119 1.387 . S
C119 C118 1.387 . S
C119 C120 1.372 . S
C120 H98 0.950 . S
C120 C119 1.372 . S
C120 C121 1.379 . S
C121 H99 0.948 . S
C121 C116 1.364 . S
C121 C120 1.379 . S
C122 C91 1.383 . S
C122 C109 1.479 . S
C122 C123 1.398 . S
C123 C88 1.382 . S
C123 H100 0.951 . S
C123 C122 1.398 . S
C124 C125 1.384 . S
C124 H137 0.947 . S
C124 C159 1.382 . S
C125 C124 1.384 . S
C125 C126 1.378 . S
C126 C125 1.378 . S
C126 C127 1.378 . S
C126 H138 0.952 . S
C127 C126 1.378 . S
C127 H139 0.950 . S
C127 C158 1.383 . S
H128 C147 0.947 . S
H129 C148 0.946 . S
H130 C150 0.953 . S
H131 C151 0.945 . S
H132 C153 0.952 . S
H133 C154 0.949 . S
H134 C156 0.950 . S
H135 C157 0.948 . S
H136 C159 0.951 . S
H137 C124 0.947 . S
H138 C126 0.952 . S
H139 C127 0.950 . S
N140 C143 1.382 1_655 S
N140 C145 1.363 . S
N141 C143 1.371 1_655 S
N141 C144 1.372 . S
N142 C144 1.361 . S
N142 C145 1.377 . S
C143 N140 1.382 1_455 S
C143 N141 1.371 1_455 S
C143 C146 1.480 . S
C144 N141 1.372 . S
C144 N142 1.361 . S
C144 C152 1.457 . S
C145 N140 1.363 . S
C145 N142 1.377 . S
C145 C158 1.479 . S
C146 C143 1.480 . S
C146 C147 1.383 . S
C146 C151 1.385 . S
C147 H128 0.947 . S
C147 C146 1.383 . S
C147 C148 1.388 . S
C148 H129 0.946 . S
C148 C147 1.388 . S
C148 C149 1.384 . S
C149 C148 1.384 . S
C149 C150 1.377 . S
C150 H130 0.953 . S
C150 C149 1.377 . S
C150 C151 1.369 . S
C151 H131 0.945 . S
C151 C146 1.385 . S
C151 C150 1.369 . S
C152 C144 1.457 . S
C152 C153 1.372 . S
C152 C157 1.364 . S
C153 H132 0.952 . S
C153 C152 1.372 . S
C153 C154 1.389 . S
C154 H133 0.949 . S
C154 C153 1.389 . S
C154 C155 1.387 . S
C155 C154 1.387 . S
C155 C156 1.372 . S
C156 H134 0.950 . S
C156 C155 1.372 . S
C156 C157 1.379 . S
C157 H135 0.948 . S
C157 C152 1.364 . S
C157 C156 1.379 . S
C158 C127 1.383 . S
C158 C145 1.479 . S
C158 C159 1.398 . S
C159 C124 1.382 . S
C159 H136 0.951 . S
C159 C158 1.398 . S
C160 C161 1.384 . S
C160 H173 0.947 . S
C160 C195 1.382 . S
C161 C160 1.384 . S
C161 C162 1.378 . S
C162 C161 1.378 . S
C162 C163 1.378 . S
C162 H174 0.952 . S
C163 C162 1.378 . S
C163 H175 0.950 . S
C163 C194 1.383 . S
H164 C183 0.947 . S
H165 C184 0.946 . S
H166 C186 0.953 . S
H167 C187 0.945 . S
H168 C189 0.952 . S
H169 C190 0.949 . S
H170 C192 0.950 . S
H171 C193 0.948 . S
H172 C195 0.951 . S
H173 C160 0.947 . S
H174 C162 0.952 . S
H175 C163 0.950 . S
N176 C179 1.382 1_556 S
N176 C181 1.363 . S
N177 C179 1.371 . S
N177 C180 1.372 . S
N178 C180 1.361 . S
N178 C181 1.377 1_554 S
C179 N176 1.382 1_554 S
C179 N177 1.371 . S
C179 C182 1.480 . S
C180 N177 1.372 . S
C180 N178 1.361 . S
C180 C188 1.457 . S
C181 N176 1.363 . S
C181 N178 1.377 1_556 S
C181 C194 1.479 . S
C182 C179 1.480 . S
C182 C183 1.383 1_554 S
C182 C187 1.385 . S
C183 H164 0.947 . S
C183 C182 1.383 1_556 S
C183 C184 1.388 . S
C184 H165 0.946 . S
C184 C183 1.388 . S
C184 C185 1.384 1_556 S
C185 C184 1.384 1_554 S
C185 C186 1.377 . S
C186 H166 0.953 . S
C186 C185 1.377 . S
C186 C187 1.369 . S
C187 H167 0.945 . S
C187 C182 1.385 . S
C187 C186 1.369 . S
C188 C180 1.457 . S
C188 C189 1.372 . S
C188 C193 1.364 . S
C189 H168 0.952 . S
C189 C188 1.372 . S
C189 C190 1.389 . S
C190 H169 0.949 . S
C190 C189 1.389 . S
C190 C191 1.387 . S
C191 C190 1.387 . S
C191 C192 1.372 . S
C192 H170 0.950 . S
C192 C191 1.372 . S
C192 C193 1.379 . S
C193 H171 0.948 . S
C193 C188 1.364 . S
C193 C192 1.379 . S
C194 C163 1.383 . S
C194 C181 1.479 . S
C194 C195 1.398 . S
C195 C160 1.382 . S
C195 H172 0.951 . S
C195 C194 1.398 . S
C196 C197 1.384 . S
C196 H209 0.947 . S
C196 C231 1.382 . S
C197 C196 1.384 . S
C197 C198 1.378 . S
C198 C197 1.378 . S
C198 C199 1.378 . S
C198 H210 0.952 . S
C199 C198 1.378 . S
C199 H211 0.950 . S
C199 C230 1.383 . S
H200 C219 0.947 . S
H201 C220 0.946 . S
H202 C222 0.953 . S
H203 C223 0.945 . S
H204 C225 0.952 . S
H205 C226 0.949 . S
H206 C228 0.950 . S
H207 C229 0.948 . S
H208 C231 0.951 . S
H209 C196 0.947 . S
H210 C198 0.952 . S
H211 C199 0.950 . S
N212 C215 1.382 1_455 S
N212 C217 1.363 . S
N213 C215 1.371 1_455 S
N213 C216 1.372 . S
N214 C216 1.361 . S
N214 C217 1.377 . S
C215 N212 1.382 1_655 S
C215 N213 1.371 1_655 S
C215 C218 1.480 . S
C216 N213 1.372 . S
C216 N214 1.361 . S
C216 C224 1.457 . S
C217 N212 1.363 . S
C217 N214 1.377 . S
C217 C230 1.479 . S
C218 C215 1.480 . S
C218 C219 1.383 . S
C218 C223 1.385 . S
C219 H200 0.947 . S
C219 C218 1.383 . S
C219 C220 1.388 . S
C220 H201 0.946 . S
C220 C219 1.388 . S
C220 C221 1.384 . S
C221 C220 1.384 . S
C221 C222 1.377 . S
C222 H202 0.953 . S
C222 C221 1.377 . S
C222 C223 1.369 . S
C223 H203 0.945 . S
C223 C218 1.385 . S
C223 C222 1.369 . S
C224 C216 1.457 . S
C224 C225 1.372 . S
C224 C229 1.364 . S
C225 H204 0.952 . S
C225 C224 1.372 . S
C225 C226 1.389 . S
C226 H205 0.949 . S
C226 C225 1.389 . S
C226 C227 1.387 . S
C227 C226 1.387 . S
C227 C228 1.372 . S
C228 H206 0.950 . S
C228 C227 1.372 . S
C228 C229 1.379 . S
C229 H207 0.948 . S
C229 C224 1.364 . S
C229 C228 1.379 . S
C230 C199 1.383 . S
C230 C217 1.479 . S
C230 C231 1.398 . S
C231 C196 1.382 . S
C231 H208 0.951 . S
C231 C230 1.398 . S
C232 C233 1.384 . S
C232 H245 0.947 . S
C232 C267 1.382 . S
C233 C232 1.384 . S
C233 C234 1.378 . S
C234 C233 1.378 . S
C234 C235 1.378 . S
C234 H246 0.952 . S
C235 C234 1.378 . S
C235 H247 0.961 . S
C235 C266 1.383 . S
H236 C255 0.947 . S
H237 C256 0.946 . S
H238 C258 0.953 . S
H239 C259 0.945 . S
H240 C261 0.952 . S
H241 C262 0.949 . S
H242 C264 0.950 . S
H243 C265 0.948 . S
H244 C267 0.951 . S
H245 C232 0.947 . S
H246 C234 0.952 . S
H247 C235 0.961 . S
N248 C251 1.382 . S
N248 C253 1.363 1_545 S
N249 C251 1.371 . S
N249 C252 1.372 1_545 S
N250 C252 1.361 . S
N250 C253 1.377 . S
C251 N248 1.382 . S
C251 N249 1.371 . S
C251 C254 1.480 . S
C252 N249 1.372 1_565 S
C252 N250 1.361 . S
C252 C260 1.457 . S
C253 N248 1.363 1_565 S
C253 N250 1.377 . S
C253 C266 1.479 . S
C254 C251 1.480 . S
C254 C255 1.383 . S
C254 C259 1.385 . S
C255 H236 0.947 . S
C255 C254 1.383 . S
C255 C256 1.388 . S
C256 H237 0.946 . S
C256 C255 1.388 . S
C256 C257 1.384 . S
C257 C256 1.384 . S
C257 C258 1.377 . S
C258 H238 0.953 . S
C258 C257 1.377 . S
C258 C259 1.369 . S
C259 H239 0.945 . S
C259 C254 1.385 . S
C259 C258 1.369 . S
C260 C252 1.457 . S
C260 C261 1.372 . S
C260 C265 1.364 . S
C261 H240 0.952 . S
C261 C260 1.372 . S
C261 C262 1.389 . S
C262 H241 0.949 . S
C262 C261 1.389 . S
C262 C263 1.387 . S
C263 C262 1.387 . S
C263 C264 1.372 . S
C264 H242 0.950 . S
C264 C263 1.372 . S
C264 C265 1.379 . S
C265 H243 0.948 . S
C265 C260 1.364 . S
C265 C264 1.379 . S
C266 C235 1.383 . S
C266 C253 1.479 . S
C266 C267 1.398 . S
C267 C232 1.382 . S
C267 H244 0.951 . S
C267 C266 1.398 . S
C268 C269 1.384 . S
C268 H281 0.947 . S
C268 C303 1.382 . S
C269 C268 1.384 . S
C269 C270 1.378 . S
C270 C269 1.378 . S
C270 C271 1.378 . S
C270 H282 0.952 . S
C271 C270 1.378 . S
C271 H283 0.950 . S
C271 C302 1.383 . S
H272 C291 0.947 . S
H273 C292 0.946 . S
H274 C294 0.953 . S
H275 C295 0.945 . S
H276 C297 0.952 . S
H277 C298 0.949 . S
H278 C300 0.950 . S
H279 C301 0.948 . S
H280 C303 0.951 . S
H281 C268 0.947 . S
H282 C270 0.952 . S
H283 C271 0.950 . S
N284 C287 1.382 1_556 S
N284 C289 1.363 . S
N285 C287 1.371 . S
N285 C288 1.372 . S
N286 C288 1.361 . S
N286 C289 1.377 1_554 S
C287 N284 1.382 1_554 S
C287 N285 1.371 . S
C287 C290 1.480 . S
C288 N285 1.372 . S
C288 N286 1.361 . S
C288 C296 1.457 . S
C289 N284 1.363 . S
C289 N286 1.377 1_556 S
C289 C302 1.479 . S
C290 C287 1.480 . S
C290 C291 1.383 1_554 S
C290 C295 1.385 . S
C291 H272 0.947 . S
C291 C290 1.383 1_556 S
C291 C292 1.388 . S
C292 H273 0.946 . S
C292 C291 1.388 . S
C292 C293 1.384 1_556 S
C293 C292 1.384 1_554 S
C293 C294 1.377 . S
C294 H274 0.953 . S
C294 C293 1.377 . S
C294 C295 1.369 . S
C295 H275 0.945 . S
C295 C290 1.385 . S
C295 C294 1.369 . S
C296 C288 1.457 . S
C296 C297 1.372 . S
C296 C301 1.364 . S
C297 H276 0.952 . S
C297 C296 1.372 . S
C297 C298 1.389 . S
C298 H277 0.949 . S
C298 C297 1.389 . S
C298 C299 1.387 . S
C299 C298 1.387 . S
C299 C300 1.372 . S
C300 H278 0.950 . S
C300 C299 1.372 . S
C300 C301 1.379 . S
C301 H279 0.948 . S
C301 C296 1.364 . S
C301 C300 1.379 . S
C302 C271 1.383 . S
C302 C289 1.479 . S
C302 C303 1.398 . S
C303 C268 1.382 . S
C303 H280 0.951 . S
C303 C302 1.398 . S
C304 C305 1.384 . S
C304 H317 0.947 . S
C304 C339 1.382 . S
C305 C304 1.384 . S
C305 C306 1.378 . S
C306 C305 1.378 . S
C306 C307 1.378 . S
C306 H318 0.952 . S
C307 C306 1.378 . S
C307 H319 0.950 . S
C307 C338 1.383 . S
H308 C327 0.947 . S
H309 C328 0.946 . S
H310 C330 0.953 . S
H311 C331 0.945 . S
H312 C333 0.952 . S
H313 C334 0.949 . S
H314 C336 0.950 . S
H315 C337 0.948 . S
H316 C339 0.951 . S
H317 C304 0.947 . S
H318 C306 0.952 . S
H319 C307 0.950 . S
N320 C323 1.392 . S
N320 C325 1.344 1_565 S
N321 C323 1.371 . S
N321 C324 1.372 1_565 S
N322 C324 1.361 . S
N322 C325 1.377 . S
C323 N320 1.392 . S
C323 N321 1.371 . S
C323 C326 1.480 . S
C324 N321 1.372 1_545 S
C324 N322 1.361 . S
C324 C332 1.457 . S
C325 N320 1.344 1_545 S
C325 N322 1.377 . S
C325 C338 1.479 . S
C326 C323 1.480 . S
C326 C327 1.383 . S
C326 C331 1.385 . S
C327 H308 0.947 . S
C327 C326 1.383 . S
C327 C328 1.388 . S
C328 H309 0.946 . S
C328 C327 1.388 . S
C328 C329 1.384 . S
C329 C328 1.384 . S
C329 C330 1.377 . S
C330 H310 0.953 . S
C330 C329 1.377 . S
C330 C331 1.369 . S
C331 H311 0.945 . S
C331 C326 1.385 . S
C331 C330 1.369 . S
C332 C324 1.457 . S
C332 C333 1.372 . S
C332 C337 1.364 . S
C333 H312 0.952 . S
C333 C332 1.372 . S
C333 C334 1.389 . S
C334 H313 0.949 . S
C334 C333 1.389 . S
C334 C335 1.387 . S
C335 C334 1.387 . S
C335 C336 1.372 . S
C336 H314 0.950 . S
C336 C335 1.372 . S
C336 C337 1.379 . S
C337 H315 0.948 . S
C337 C332 1.364 . S
C337 C336 1.379 . S
C338 C307 1.383 . S
C338 C325 1.479 . S
C338 C339 1.398 . S
C339 C304 1.382 . S
C339 H316 0.951 . S
C339 C338 1.398 . S
C340 C341 1.384 . S
C340 H353 0.947 . S
C340 C375 1.382 . S
C341 C340 1.384 . S
C341 C342 1.378 . S
C342 C341 1.378 . S
C342 C343 1.378 . S
C342 H354 0.952 . S
C343 C342 1.378 . S
C343 H355 0.950 . S
C343 C374 1.383 . S
H344 C363 0.947 . S
H345 C364 0.946 . S
H346 C366 0.953 . S
H347 C367 0.945 . S
H348 C369 0.952 . S
H349 C370 0.949 . S
H350 C372 0.950 . S
H351 C373 0.948 . S
H352 C375 0.951 . S
H353 C340 0.947 . S
H354 C342 0.952 . S
H355 C343 0.950 . S
N356 C359 1.384 . S
N356 C361 1.363 . S
N357 C359 1.369 1_556 S
N357 C360 1.372 . S
N358 C360 1.361 . S
N358 C361 1.377 1_556 S
C359 N356 1.384 . S
C359 N357 1.369 1_554 S
C359 C362 1.480 1_554 S
C360 N357 1.372 . S
C360 N358 1.361 . S
C360 C368 1.457 . S
C361 N356 1.363 . S
C361 N358 1.377 1_554 S
C361 C374 1.479 . S
C362 C359 1.480 1_556 S
C362 C363 1.383 1_556 S
C362 C367 1.385 . S
C363 H344 0.947 . S
C363 C362 1.383 1_554 S
C363 C364 1.388 . S
C364 H345 0.946 . S
C364 C363 1.388 . S
C364 C365 1.384 1_554 S
C365 C364 1.384 1_556 S
C365 C366 1.377 . S
C366 H346 0.953 . S
C366 C365 1.377 . S
C366 C367 1.369 . S
C367 H347 0.945 . S
C367 C362 1.385 . S
C367 C366 1.369 . S
C368 C360 1.457 . S
C368 C369 1.372 . S
C368 C373 1.364 . S
C369 H348 0.952 . S
C369 C368 1.372 . S
C369 C370 1.389 . S
C370 H349 0.949 . S
C370 C369 1.389 . S
C370 C371 1.387 . S
C371 C370 1.387 . S
C371 C372 1.372 . S
C372 H350 0.950 . S
C372 C371 1.372 . S
C372 C373 1.379 . S
C373 H351 0.948 . S
C373 C368 1.364 . S
C373 C372 1.379 . S
C374 C343 1.383 . S
C374 C361 1.479 . S
C374 C375 1.398 . S
C375 C340 1.382 . S
C375 H352 0.951 . S
C375 C374 1.398 . S
C376 C377 1.369 . S
C376 C378 1.419 . S
C376 H380 0.930 . S
C377 C376 1.369 . S
C377 C386 1.429 . S
C378 C376 1.419 . S
C378 C379 1.363 . S
C378 H381 0.929 . S
C379 C378 1.363 . S
C379 C385 1.428 . S
H380 C376 0.930 . S
H381 C378 0.929 . S
S382 N383 1.613 . S
S382 N384 1.610 . S
N383 S382 1.613 . S
N383 C386 1.350 . S
N384 S382 1.610 . S
N384 C385 1.351 . S
C385 C379 1.428 . S
C385 N384 1.351 . S
C385 C386 1.434 . S
C386 C377 1.429 . S
C386 N383 1.350 . S
C386 C385 1.434 . S
C387 C388 1.369 . S
C387 C389 1.419 . S
C387 H391 0.930 . S
C388 C387 1.369 . S
C388 C397 1.429 . S
C389 C387 1.419 . S
C389 C390 1.363 . S
C389 H392 0.929 . S
C390 C389 1.363 . S
C390 C396 1.428 . S
H391 C387 0.930 . S
H392 C389 0.929 . S
S393 N394 1.613 . S
S393 N395 1.610 . S
N394 S393 1.613 . S
N394 C397 1.350 . S
N395 S393 1.610 . S
N395 C396 1.351 . S
C396 C390 1.428 . S
C396 N395 1.351 . S
C396 C397 1.434 . S
C397 C388 1.429 . S
C397 N394 1.350 . S
C397 C396 1.434 . S
C398 C399 1.369 . S
C398 C400 1.419 . S
C398 H402 0.930 . S
C399 C398 1.369 . S
C399 C408 1.429 . S
C400 C398 1.419 . S
C400 C401 1.363 . S
C400 H403 0.929 . S
C401 C400 1.363 . S
C401 C407 1.428 . S
H402 C398 0.930 . S
H403 C400 0.929 . S
S404 N405 1.613 . S
S404 N406 1.610 . S
N405 S404 1.613 . S
N405 C408 1.350 . S
N406 S404 1.610 . S
N406 C407 1.351 . S
C407 C401 1.428 . S
C407 N406 1.351 . S
C407 C408 1.434 . S
C408 C399 1.429 . S
C408 N405 1.350 . S
C408 C407 1.434 . S
C409 C410 1.369 . S
C409 C411 1.419 . S
C409 H413 0.930 . S
C410 C409 1.369 . S
C410 C419 1.429 . S
C411 C409 1.419 . S
C411 C412 1.363 . S
C411 H414 0.929 . S
C412 C411 1.363 . S
C412 C418 1.428 . S
H413 C409 0.930 . S
H414 C411 0.929 . S
S415 N416 1.613 . S
S415 N417 1.610 . S
N416 S415 1.613 . S
N416 C419 1.350 . S
N417 S415 1.610 . S
N417 C418 1.351 . S
C418 C412 1.428 . S
C418 N417 1.351 . S
C418 C419 1.434 . S
C419 C410 1.429 . S
C419 N416 1.350 . S
C419 C418 1.434 . S
C420 C421 1.369 . S
C420 C422 1.419 . S
C420 H424 0.930 . S
C421 C420 1.369 . S
C421 C430 1.429 . S
C422 C420 1.419 . S
C422 C423 1.363 . S
C422 H425 0.929 . S
C423 C422 1.363 . S
C423 C429 1.428 . S
H424 C420 0.930 . S
H425 C422 0.929 . S
S426 N427 1.613 . S
S426 N428 1.610 . S
N427 S426 1.613 . S
N427 C430 1.350 . S
N428 S426 1.610 . S
N428 C429 1.351 . S
C429 C423 1.428 . S
C429 N428 1.351 . S
C429 C430 1.434 . S
C430 C421 1.429 . S
C430 N427 1.350 . S
C430 C429 1.434 . S
C431 C432 1.369 . S
C431 C433 1.419 . S
C431 H435 0.930 . S
C432 C431 1.369 . S
C432 C441 1.429 . S
C433 C431 1.419 . S
C433 C434 1.363 . S
C433 H436 0.929 . S
C434 C433 1.363 . S
C434 C440 1.428 . S
H435 C431 0.930 . S
H436 C433 0.929 . S
S437 N438 1.613 . S
S437 N439 1.610 . S
N438 S437 1.613 . S
N438 C441 1.350 . S
N439 S437 1.610 . S
N439 C440 1.351 . S
C440 C434 1.428 . S
C440 N439 1.351 . S
C440 C441 1.434 . S
C441 C432 1.429 . S
C441 N438 1.350 . S
C441 C440 1.434 . S
C442 C443 1.369 . S
C442 C444 1.419 . S
C442 H446 0.930 . S
C443 C442 1.369 . S
C443 C452 1.429 . S
C444 C442 1.419 . S
C444 C445 1.363 . S
C444 H447 0.929 . S
C445 C444 1.363 . S
C445 C451 1.428 . S
H446 C442 0.930 . S
H447 C444 0.929 . S
S448 N449 1.613 . S
S448 N450 1.610 . S
N449 S448 1.613 . S
N449 C452 1.350 . S
N450 S448 1.610 . S
N450 C451 1.351 . S
C451 C445 1.428 . S
C451 N450 1.351 . S
C451 C452 1.434 . S
C452 C443 1.429 . S
C452 N449 1.350 . S
C452 C451 1.434 . S
C453 C454 1.369 . S
C453 C455 1.419 . S
C453 H457 0.930 . S
C454 C453 1.369 . S
C454 C463 1.429 . S
C455 C453 1.419 . S
C455 C456 1.363 . S
C455 H458 0.929 . S
C456 C455 1.363 . S
C456 C462 1.428 . S
H457 C453 0.930 . S
H458 C455 0.929 . S
S459 N460 1.613 . S
S459 N461 1.610 . S
N460 S459 1.613 . S
N460 C463 1.350 . S
N461 S459 1.610 . S
N461 C462 1.351 . S
C462 C456 1.428 . S
C462 N461 1.351 . S
C462 C463 1.434 . S
C463 C454 1.429 . S
C463 N460 1.350 . S
C463 C462 1.434 . S
C464 C465 1.369 . S
C464 C466 1.419 . S
C464 H468 0.930 . S
C465 C464 1.369 . S
C465 C474 1.429 . S
C466 C464 1.419 . S
C466 C467 1.363 . S
C466 H469 0.929 . S
C467 C466 1.363 . S
C467 C473 1.428 . S
H468 C464 0.930 . S
H469 C466 0.929 . S
S470 N471 1.613 . S
S470 N472 1.610 . S
N471 S470 1.613 . S
N471 C474 1.350 . S
N472 S470 1.610 . S
N472 C473 1.351 . S
C473 C467 1.428 . S
C473 N472 1.351 . S
C473 C474 1.434 . S
C474 C465 1.429 . S
C474 N471 1.350 . S
C474 C473 1.434 . S
C475 C476 1.369 . S
C475 C477 1.419 . S
C475 H479 0.930 . S
C476 C475 1.369 . S
C476 C485 1.429 . S
C477 C475 1.419 . S
C477 C478 1.363 . S
C477 H480 0.929 . S
C478 C477 1.363 . S
C478 C484 1.428 . S
H479 C475 0.930 . S
H480 C477 0.929 . S
S481 N482 1.613 . S
S481 N483 1.610 . S
N482 S481 1.613 . S
N482 C485 1.350 . S
N483 S481 1.610 . S
N483 C484 1.351 . S
C484 C478 1.428 . S
C484 N483 1.351 . S
C484 C485 1.434 . S
C485 C476 1.429 . S
C485 N482 1.350 . S
C485 C484 1.434 . S
C486 C487 1.369 . S
C486 C488 1.419 . S
C486 H490 0.930 . S
C487 C486 1.369 . S
C487 C496 1.429 . S
C488 C486 1.419 . S
C488 C489 1.363 . S
C488 H491 0.929 . S
C489 C488 1.363 . S
C489 C495 1.428 . S
H490 C486 0.930 . S
H491 C488 0.929 . S
S492 N493 1.613 . S
S492 N494 1.610 . S
N493 S492 1.613 . S
N493 C496 1.350 . S
N494 S492 1.610 . S
N494 C495 1.351 . S
C495 C489 1.428 . S
C495 N494 1.351 . S
C495 C496 1.434 . S
C496 C487 1.429 . S
C496 N493 1.350 . S
C496 C495 1.434 . S
C497 C498 1.369 . S
C497 C499 1.419 . S
C497 H501 0.930 . S
C498 C497 1.369 . S
C498 C507 1.429 . S
C499 C497 1.419 . S
C499 C500 1.363 . S
C499 H502 0.929 . S
C500 C499 1.363 . S
C500 C506 1.428 . S
H501 C497 0.930 . S
H502 C499 0.929 . S
S503 N504 1.613 . S
S503 N505 1.610 . S
N504 S503 1.613 . S
N504 C507 1.350 . S
N505 S503 1.610 . S
N505 C506 1.351 . S
C506 C500 1.428 . S
C506 N505 1.351 . S
C506 C507 1.434 . S
C507 C498 1.429 . S
C507 N504 1.350 . S
C507 C506 1.434 . S
C508 C509 1.369 . S
C508 C510 1.419 . S
C508 H512 0.930 . S
C509 C508 1.369 . S
C509 C518 1.429 . S
C510 C508 1.419 . S
C510 C511 1.363 . S
C510 H513 0.929 . S
C511 C510 1.363 . S
C511 C517 1.428 . S
H512 C508 0.930 . S
H513 C510 0.929 . S
S514 N515 1.613 . S
S514 N516 1.610 . S
N515 S514 1.613 . S
N515 C518 1.350 . S
N516 S514 1.610 . S
N516 C517 1.351 . S
C517 C511 1.428 . S
C517 N516 1.351 . S
C517 C518 1.434 . S
C518 C509 1.429 . S
C518 N515 1.350 . S
C518 C517 1.434 . S
C519 C520 1.369 . S
C519 C521 1.419 . S
C519 H523 0.930 . S
C520 C519 1.369 . S
C520 C529 1.429 . S
C521 C519 1.419 . S
C521 C522 1.363 . S
C521 H524 0.929 . S
C522 C521 1.363 . S
C522 C528 1.428 . S
H523 C519 0.930 . S
H524 C521 0.929 . S
S525 N526 1.613 . S
S525 N527 1.610 . S
N526 S525 1.613 . S
N526 C529 1.350 . S
N527 S525 1.610 . S
N527 C528 1.351 . S
C528 C522 1.428 . S
C528 N527 1.351 . S
C528 C529 1.434 . S
C529 C520 1.429 . S
C529 N526 1.350 . S
C529 C528 1.434 . S
C530 C531 1.369 . S
C530 C532 1.419 . S
C530 H534 0.930 . S
C531 C530 1.369 . S
C531 C540 1.429 . S
C532 C530 1.419 . S
C532 C533 1.363 . S
C532 H535 0.929 . S
C533 C532 1.363 . S
C533 C539 1.428 . S
H534 C530 0.930 . S
H535 C532 0.929 . S
S536 N537 1.613 . S
S536 N538 1.610 . S
N537 S536 1.613 . S
N537 C540 1.350 . S
N538 S536 1.610 . S
N538 C539 1.351 . S
C539 C533 1.428 . S
C539 N538 1.351 . S
C539 C540 1.434 . S
C540 C531 1.429 . S
C540 N537 1.350 . S
C540 C539 1.434 . S
C541 C542 1.369 . S
C541 C543 1.419 . S
C541 H545 0.930 . S
C542 C541 1.369 . S
C542 C551 1.429 . S
C543 C541 1.419 . S
C543 C544 1.363 . S
C543 H546 0.929 . S
C544 C543 1.363 . S
C544 C550 1.428 . S
H545 C541 0.930 . S
H546 C543 0.929 . S
S547 N548 1.613 . S
S547 N549 1.610 . S
N548 S547 1.613 . S
N548 C551 1.350 . S
N549 S547 1.610 . S
N549 C550 1.351 . S
C550 C544 1.428 . S
C550 N549 1.351 . S
C550 C551 1.434 . S
C551 C542 1.429 . S
C551 N548 1.350 . S
C551 C550 1.434 . S
C552 C553 1.369 1_556 S
C552 C554 1.419 . S
C552 H556 0.930 . S
C553 C552 1.369 1_554 S
C553 C562 1.429 . S
C554 C552 1.419 . S
C554 C555 1.350 1_556 S
C554 H557 0.929 . S
C555 C554 1.350 1_554 S
C555 C561 1.442 . S
H556 C552 0.930 . S
H557 C554 0.929 . S
S558 N559 1.613 . S
S558 N560 1.610 . S
N559 S558 1.613 . S
N559 C562 1.350 . S
N560 S558 1.610 . S
N560 C561 1.351 . S
C561 C555 1.442 . S
C561 N560 1.351 . S
C561 C562 1.434 . S
C562 C553 1.429 . S
C562 N559 1.350 . S
C562 C561 1.434 . S
C563 C564 1.369 . S
C563 C565 1.419 . S
C563 H567 0.930 . S
C564 C563 1.369 . S
C564 C573 1.429 . S
C565 C563 1.419 . S
C565 C566 1.363 . S
C565 H568 0.929 . S
C566 C565 1.363 . S
C566 C572 1.428 . S
H567 C563 0.930 . S
H568 C565 0.929 . S
S569 N570 1.613 . S
S569 N571 1.610 . S
N570 S569 1.613 . S
N570 C573 1.350 . S
N571 S569 1.610 . S
N571 C572 1.351 . S
C572 C566 1.428 . S
C572 N571 1.351 . S
C572 C573 1.434 . S
C573 C564 1.429 . S
C573 N570 1.350 . S
C573 C572 1.434 . S
C574 C575 1.369 1_556 S
C574 C576 1.419 . S
C574 H578 0.930 . S
C575 C574 1.369 1_554 S
C575 C584 1.429 . S
C576 C574 1.419 . S
C576 C577 1.363 1_556 S
C576 H579 0.929 . S
C577 C576 1.363 1_554 S
C577 C583 1.428 . S
H578 C574 0.930 . S
H579 C576 0.929 . S
S580 N581 1.613 . S
S580 N582 1.610 . S
N581 S580 1.613 . S
N581 C584 1.350 . S
N582 S580 1.610 . S
N582 C583 1.351 . S
C583 C577 1.428 . S
C583 N582 1.351 . S
C583 C584 1.434 . S
C584 C575 1.429 . S
C584 N581 1.350 . S
C584 C583 1.434 . S
C585 C586 1.369 . S
C585 C587 1.419 . S
C585 H589 0.930 . S
C586 C585 1.369 . S
C586 C595 1.429 . S
C587 C585 1.419 . S
C587 C588 1.363 . S
C587 H590 0.929 . S
C588 C587 1.363 . S
C588 C594 1.428 . S
H589 C585 0.930 . S
H590 C587 0.929 . S
S591 N592 1.613 . S
S591 N593 1.610 . S
N592 S591 1.613 . S
N592 C595 1.350 . S
N593 S591 1.610 . S
N593 C594 1.351 . S
C594 C588 1.428 . S
C594 N593 1.351 . S
C594 C595 1.434 . S
C595 C586 1.429 . S
C595 N592 1.350 . S
C595 C594 1.434 . S
C596 C597 1.369 . S
C596 C598 1.419 . S
C596 H600 0.930 . S
C597 C596 1.369 . S
C597 C606 1.429 . S
C598 C596 1.419 . S
C598 C599 1.363 . S
C598 H601 0.929 . S
C599 C598 1.363 . S
C599 C605 1.428 . S
H600 C596 0.930 . S
H601 C598 0.929 . S
S602 N603 1.613 . S
S602 N604 1.610 . S
N603 S602 1.613 . S
N603 C606 1.350 . S
N604 S602 1.610 . S
N604 C605 1.351 . S
C605 C599 1.428 . S
C605 N604 1.351 . S
C605 C606 1.434 . S
C606 C597 1.429 . S
C606 N603 1.350 . S
C606 C605 1.434 . S
C607 C608 1.377 . S
C607 C609 1.419 . S
C607 H611 0.930 . S
C608 C607 1.377 . S
C608 C617 1.421 1_554 S
C609 C607 1.419 . S
C609 C610 1.376 . S
C609 H612 0.929 . S
C610 C609 1.376 . S
C610 C616 1.416 1_554 S
H611 C607 0.930 . S
H612 C609 0.929 . S
S613 N614 1.613 . S
S613 N615 1.610 . S
N614 S613 1.613 . S
N614 C617 1.350 . S
N615 S613 1.610 . S
N615 C616 1.351 . S
C616 C610 1.416 1_556 S
C616 N615 1.351 . S
C616 C617 1.434 . S
C617 C608 1.421 1_556 S
C617 N614 1.350 . S
C617 C616 1.434 . S
C618 C619 1.369 . S
C618 C620 1.419 . S
C618 H622 0.930 . S
C619 C618 1.369 . S
C619 C628 1.429 . S
C620 C618 1.419 . S
C620 C621 1.363 . S
C620 H623 0.929 . S
C621 C620 1.363 . S
C621 C627 1.428 . S
H622 C618 0.930 . S
H623 C620 0.929 . S
S624 N625 1.613 . S
S624 N626 1.610 . S
N625 S624 1.613 . S
N625 C628 1.350 . S
N626 S624 1.610 . S
N626 C627 1.351 . S
C627 C621 1.428 . S
C627 N626 1.351 . S
C627 C628 1.434 . S
C628 C619 1.429 . S
C628 N625 1.350 . S
C628 C627 1.434 . S
C629 C630 1.369 1_556 S
C629 C631 1.419 . S
C629 H633 0.930 . S
C630 C629 1.369 1_554 S
C630 C639 1.429 . S
C631 C629 1.419 . S
C631 C632 1.363 1_556 S
C631 H634 0.929 . S
C632 C631 1.363 1_554 S
C632 C638 1.428 . S
H633 C629 0.930 . S
H634 C631 0.929 . S
S635 N636 1.613 . S
S635 N637 1.610 . S
N636 S635 1.613 . S
N636 C639 1.350 . S
N637 S635 1.610 . S
N637 C638 1.351 . S
C638 C632 1.428 . S
C638 N637 1.351 . S
C638 C639 1.434 . S
C639 C630 1.429 . S
C639 N636 1.350 . S
C639 C638 1.434 . S
C377 C21 1.666 . S
C379 C197 1.615 . S
C388 C40 1.812 . S
C390 C119 1.668 . S
C401 C155 1.626 . S
C399 C54 1.650 . S
C410 C73 1.851 . S
C412 C161 1.779 . S
C423 C299 1.626 . S
C421 C74 1.650 . S
C434 C305 1.747 . S
C432 C10 1.811 . S
C445 C341 1.621 . S
C443 C37 1.661 . S
C456 C263 1.698 . S
C454 C65 1.853 . S
C465 C52 1.662 . S
C467 C125 1.629 . S
C476 C87 1.850 . S
C478 C191 1.778 . S
C487 C15 1.674 . S
C489 C227 1.598 . S
C500 C89 1.684 . S
C498 C32 1.804 . S
C509 C29 1.676 . S
C511 C371 1.599 . S
C522 C233 1.719 . S
C520 C59 1.849 . S
C533 C269 1.629 . S
C531 C84 1.661 . S
C542 C8 1.806 . S
C544 C335 1.740 . S
C555 C113 1.757 1_554 S
C553 C7 1.895 . S
C566 C149 1.703 . S
C564 C30 1.704 . S
C575 C62 1.904 . S
C577 C185 1.853 . S
C586 C81 1.669 . S
C588 C221 1.641 . S
C599 C257 1.765 . S
C597 C76 1.905 . S
C608 C18 1.705 1_554 S
C610 C293 1.703 . S
C619 C43 1.896 . S
C621 C329 1.834 . S
C630 C51 1.674 1_554 S
C632 C365 1.635 1_554 S
