# Generated by pormake.
# Topology wbl, (4,4)-cn, num edge types: 1
# Building blocks:
#     Node 0, Type 0, BuildingBlock: MIFKUJ_clean_linker_1, # of connection points: 4
#     Node 1, Type 0, BuildingBlock: MIFKUJ_clean_linker_1, # of connection points: 4
#     Node 2, Type 0, BuildingBlock: MIFKUJ_clean_linker_1, # of connection points: 4
#     Node 3, Type 0, BuildingBlock: MIFKUJ_clean_linker_1, # of connection points: 4
#     Node 4, Type 0, BuildingBlock: MIFKUJ_clean_linker_1, # of connection points: 4
#     Node 5, Type 0, BuildingBlock: MIFKUJ_clean_linker_1, # of connection points: 4
#     Node 6, Type 0, BuildingBlock: MIFKUJ_clean_linker_1, # of connection points: 4
#     Node 7, Type 0, BuildingBlock: MIFKUJ_clean_linker_1, # of connection points: 4
#     Node 8, Type 1, BuildingBlock: QUQFOY_clean_sbu_1, # of connection points: 4
#     Node 9, Type 1, BuildingBlock: QUQFOY_clean_sbu_1, # of connection points: 4
#     Node 10, Type 1, BuildingBlock: QUQFOY_clean_sbu_1, # of connection points: 4
#     Node 11, Type 1, BuildingBlock: QUQFOY_clean_sbu_1, # of connection points: 4
#     Node 12, Type 1, BuildingBlock: QUQFOY_clean_sbu_1, # of connection points: 4
#     Node 13, Type 1, BuildingBlock: QUQFOY_clean_sbu_1, # of connection points: 4
#     Node 14, Type 1, BuildingBlock: QUQFOY_clean_sbu_1, # of connection points: 4
#     Node 15, Type 1, BuildingBlock: QUQFOY_clean_sbu_1, # of connection points: 4
#     Edge 16, Type (0, 1), BuildingBlock: AJUNOK_clean_linker_0, # of connection points: 2
#     Edge 17, Type (0, 1), BuildingBlock: AJUNOK_clean_linker_0, # of connection points: 2
#     Edge 18, Type (0, 1), BuildingBlock: AJUNOK_clean_linker_0, # of connection points: 2
#     Edge 19, Type (0, 1), BuildingBlock: AJUNOK_clean_linker_0, # of connection points: 2
#     Edge 20, Type (0, 1), BuildingBlock: AJUNOK_clean_linker_0, # of connection points: 2
#     Edge 21, Type (0, 1), BuildingBlock: AJUNOK_clean_linker_0, # of connection points: 2
#     Edge 22, Type (0, 1), BuildingBlock: AJUNOK_clean_linker_0, # of connection points: 2
#     Edge 23, Type (0, 1), BuildingBlock: AJUNOK_clean_linker_0, # of connection points: 2
#     Edge 24, Type (0, 1), BuildingBlock: AJUNOK_clean_linker_0, # of connection points: 2
#     Edge 25, Type (0, 1), BuildingBlock: AJUNOK_clean_linker_0, # of connection points: 2
#     Edge 26, Type (0, 1), BuildingBlock: AJUNOK_clean_linker_0, # of connection points: 2
#     Edge 27, Type (0, 1), BuildingBlock: AJUNOK_clean_linker_0, # of connection points: 2
#     Edge 28, Type (0, 1), BuildingBlock: AJUNOK_clean_linker_0, # of connection points: 2
#     Edge 29, Type (0, 1), BuildingBlock: AJUNOK_clean_linker_0, # of connection points: 2
#     Edge 30, Type (0, 1), BuildingBlock: AJUNOK_clean_linker_0, # of connection points: 2
#     Edge 31, Type (0, 1), BuildingBlock: AJUNOK_clean_linker_0, # of connection points: 2
#     Edge 32, Type (0, 1), BuildingBlock: AJUNOK_clean_linker_0, # of connection points: 2
#     Edge 33, Type (0, 1), BuildingBlock: AJUNOK_clean_linker_0, # of connection points: 2
#     Edge 34, Type (0, 1), BuildingBlock: AJUNOK_clean_linker_0, # of connection points: 2
#     Edge 35, Type (0, 1), BuildingBlock: AJUNOK_clean_linker_0, # of connection points: 2
#     Edge 36, Type (0, 1), BuildingBlock: AJUNOK_clean_linker_0, # of connection points: 2
#     Edge 37, Type (0, 1), BuildingBlock: AJUNOK_clean_linker_0, # of connection points: 2
#     Edge 38, Type (0, 1), BuildingBlock: AJUNOK_clean_linker_0, # of connection points: 2
#     Edge 39, Type (0, 1), BuildingBlock: AJUNOK_clean_linker_0, # of connection points: 2
#     Edge 40, Type (0, 1), BuildingBlock: AJUNOK_clean_linker_0, # of connection points: 2
#     Edge 41, Type (0, 1), BuildingBlock: AJUNOK_clean_linker_0, # of connection points: 2
#     Edge 42, Type (0, 1), BuildingBlock: AJUNOK_clean_linker_0, # of connection points: 2
#     Edge 43, Type (0, 1), BuildingBlock: AJUNOK_clean_linker_0, # of connection points: 2
#     Edge 44, Type (0, 1), BuildingBlock: AJUNOK_clean_linker_0, # of connection points: 2
#     Edge 45, Type (0, 1), BuildingBlock: AJUNOK_clean_linker_0, # of connection points: 2
#     Edge 46, Type (0, 1), BuildingBlock: AJUNOK_clean_linker_0, # of connection points: 2
#     Edge 47, Type (0, 1), BuildingBlock: AJUNOK_clean_linker_0, # of connection points: 2
# Relax obj value: 0.175
# Max RMSD: 0.208
# Mean RMSD: 0.159
data_MOF--net-wbl--node1-QUQFOY_clean_sbu_1--node2-MIFKUJ_clean_linker_1--edge1-AJUNOK_clean_linker_0
_symmetry_space_group_name_H-M    P1
_symmetry_Int_Tables_number       1
_symmetry_cell_setting            triclinic
loop_
_symmetry_equiv_pos_as_xyz
'x, y, z'
_cell_length_a     36.01287
_cell_length_b     35.999763
_cell_length_c     60.229165
_cell_angle_alpha  93.602057
_cell_angle_beta   93.565029
_cell_angle_gamma 90.248343
loop_
_atom_site_label
_atom_site_type_symbol
_atom_site_fract_x
_atom_site_fract_y
_atom_site_fract_z
_atom_type_partial_charge
H0 H 0.14116 0.18279 0.39165 0.0
H1 H 0.10077 0.20957 0.41977 0.0
H2 H 0.00994 0.14004 0.39112 0.0
H3 H 0.05048 0.11254 0.36359 0.0
H4 H 0.15732 0.10869 0.38993 0.0
H5 H 0.09931 0.19314 0.3386 0.0
H6 H 0.04031 0.21925 0.32454 0.0
H7 H 0.00634 0.11073 0.29553 0.0
H8 H 0.06447 0.08449 0.31028 0.0
H9 H 0.14195 0.01682 0.30803 0.0
H10 H 0.17781 0.96812 0.28891 0.0
H11 H 0.2798 0.01942 0.3176 0.0
H12 H 0.24403 0.06836 0.33631 0.0
H13 H 0.1358 0.08985 0.30788 0.0
H14 H 0.16832 0.00399 0.36134 0.0
H15 H 0.19604 0.96533 0.38978 0.0
H16 H 0.26015 0.05985 0.41878 0.0
H17 H 0.23202 0.09859 0.39038 0.0
C18 C 0.09882 0.14583 0.37542 0.0
C19 C 0.11234 0.17386 0.39118 0.0
C20 C 0.08927 0.18922 0.40716 0.0
C21 C 0.05246 0.1765 0.40773 0.0
C22 C 0.03839 0.14998 0.39118 0.0
C23 C 0.06143 0.13455 0.3753 0.0
C24 C 0.12474 0.12491 0.3611 0.0
C25 C 0.15357 0.10564 0.37188 0.0
C26 C 0.11818 0.11926 0.3377 0.0
C27 C 0.08612 0.13674 0.32577 0.0
C28 C 0.07936 0.17509 0.32893 0.0
C29 C 0.04581 0.19006 0.32075 0.0
C30 C 0.01873 0.16694 0.30906 0.0
C31 C 0.02664 0.12909 0.30467 0.0
C32 C 0.05999 0.11414 0.31293 0.0
C33 C 0.1903 0.04602 0.3238 0.0
C34 C 0.17206 0.01788 0.30994 0.0
C35 C 0.1925 0.98996 0.29915 0.0
C36 C 0.23152 0.98987 0.30196 0.0
C37 C 0.24975 0.01891 0.31509 0.0
C38 C 0.22934 0.0467 0.32592 0.0
C39 C 0.16858 0.0737 0.33682 0.0
C40 C 0.14066 0.09415 0.32581 0.0
C41 C 0.17468 0.07921 0.36023 0.0
C42 C 0.19822 0.05417 0.37368 0.0
C43 C 0.18944 0.01606 0.37326 0.0
C44 C 0.2053 0.99395 0.38955 0.0
C45 C 0.23017 0.00963 0.40652 0.0
C46 C 0.24088 0.04714 0.40596 0.0
C47 C 0.22498 0.06923 0.38971 0.0
H48 H 0.04701 0.54074 0.56384 0.0
H49 H 0.01626 0.4847 0.54649 0.0
H50 H 0.9091 0.53384 0.55735 0.0
H51 H 0.94021 0.58933 0.5755 0.0
H52 H 0.04523 0.61938 0.55921 0.0
H53 H 0.01462 0.52826 0.61033 0.0
H54 H 0.98215 0.48768 0.63394 0.0
H55 H 0.91638 0.58063 0.65705 0.0
H56 H 0.94818 0.62095 0.63287 0.0
H57 H 0.03172 0.70578 0.64452 0.0
H58 H 0.07002 0.73695 0.67527 0.0
H59 H 0.16781 0.6839 0.65043 0.0
H60 H 0.12955 0.65284 0.61976 0.0
H61 H 0.0233 0.633 0.63981 0.0
H62 H 0.06147 0.72577 0.59485 0.0
H63 H 0.10564 0.76821 0.58043 0.0
H64 H 0.16027 0.67501 0.54799 0.0
H65 H 0.11682 0.63223 0.56342 0.0
C66 C 0.99587 0.56898 0.57108 0.0
C67 C 0.0169 0.53985 0.56189 0.0
C68 C 0.99923 0.50789 0.55184 0.0
C69 C 0.96018 0.50484 0.55047 0.0
C70 C 0.93921 0.53526 0.5583 0.0
C71 C 0.95691 0.56701 0.56858 0.0
C72 C 0.01458 0.59896 0.58564 0.0
C73 C 0.04053 0.62245 0.57684 0.0
C74 C 0.00768 0.60347 0.60853 0.0
C75 C 0.98359 0.57761 0.61963 0.0
C76 C 0.99226 0.53964 0.6198 0.0
C77 C 0.97391 0.51654 0.63345 0.0
C78 C 0.94671 0.53099 0.64731 0.0
C79 C 0.93674 0.56856 0.64629 0.0
C80 C 0.95508 0.59167 0.63259 0.0
C81 C 0.07779 0.67716 0.62977 0.0
C82 C 0.06152 0.70149 0.64544 0.0
C83 C 0.08335 0.71918 0.66299 0.0
C84 C 0.12183 0.71287 0.66516 0.0
C85 C 0.13833 0.6898 0.64892 0.0
C86 C 0.11648 0.67205 0.63138 0.0
C87 C 0.054 0.65351 0.61354 0.0
C88 C 0.02723 0.6309 0.62205 0.0
C89 C 0.06017 0.65004 0.59051 0.0
C90 C 0.08606 0.67569 0.58052 0.0
C91 C 0.08315 0.71432 0.58483 0.0
C92 C 0.10827 0.73862 0.57642 0.0
C93 C 0.13671 0.72498 0.56323 0.0
C94 C 0.13917 0.68633 0.55848 0.0
C95 C 0.11405 0.6619 0.56705 0.0
H96 H 0.49959 0.61542 0.86675 0.0
H97 H 0.47002 0.65161 0.89638 0.0
H98 H 0.41297 0.55272 0.91356 0.0
H99 H 0.44222 0.51652 0.8836 0.0
H100 H 0.51582 0.50652 0.88292 0.0
H101 H 0.51477 0.61632 0.81906 0.0
H102 H 0.47133 0.66679 0.81049 0.0
H103 H 0.37883 0.59391 0.81994 0.0
H104 H 0.42211 0.54432 0.82908 0.0
H105 H 0.55033 0.42781 0.81883 0.0
H106 H 0.59981 0.39571 0.79936 0.0
H107 H 0.65267 0.50163 0.7914 0.0
H108 H 0.60242 0.53352 0.81013 0.0
H109 H 0.52439 0.53661 0.8041 0.0
H110 H 0.52483 0.43128 0.87363 0.0
H111 H 0.56459 0.4007 0.90133 0.0
H112 H 0.65753 0.46866 0.88608 0.0
H113 H 0.61762 0.49951 0.85861 0.0
C114 C 0.47288 0.56328 0.87281 0.0
C115 C 0.47982 0.60169 0.87639 0.0
C116 C 0.46307 0.62234 0.89339 0.0
C117 C 0.43961 0.6048 0.90734 0.0
C118 C 0.43138 0.56672 0.90317 0.0
C119 C 0.44796 0.54611 0.88606 0.0
C120 C 0.49485 0.54054 0.85701 0.0
C121 C 0.51684 0.51216 0.86547 0.0
C122 C 0.49704 0.54901 0.83454 0.0
C123 C 0.47158 0.57677 0.82487 0.0
C124 C 0.4851 0.61111 0.81881 0.0
C125 C 0.46032 0.63991 0.81407 0.0
C126 C 0.42179 0.63457 0.81523 0.0
C127 C 0.40842 0.59923 0.81967 0.0
C128 C 0.43307 0.57072 0.82459 0.0
C129 C 0.57281 0.48303 0.81599 0.0
C130 C 0.57221 0.44411 0.81247 0.0
C131 C 0.60052 0.42582 0.80139 0.0
C132 C 0.63014 0.44608 0.79371 0.0
C133 C 0.62986 0.48519 0.79655 0.0
C134 C 0.60128 0.50349 0.80742 0.0
C135 C 0.54548 0.50208 0.8301 0.0
C136 C 0.52258 0.52997 0.82131 0.0
C137 C 0.54233 0.49302 0.85245 0.0
C138 C 0.56827 0.46761 0.86401 0.0
C139 C 0.55411 0.43858 0.87565 0.0
C140 C 0.57686 0.42104 0.89142 0.0
C141 C 0.61405 0.43244 0.89586 0.0
C142 C 0.62891 0.45941 0.88294 0.0
C143 C 0.6062 0.47684 0.86712 0.0
H144 H 0.57493 0.97454 0.05947 0.0
H145 H 0.53793 0.92081 0.04385 0.0
H146 H 0.44082 0.96706 0.07351 0.0
H147 H 0.47764 0.02127 0.08855 0.0
H148 H 0.57408 0.04988 0.05699 0.0
H149 H 0.55918 0.96191 0.11351 0.0
H150 H 0.53153 0.92381 0.14059 0.0
H151 H 0.47644 0.02082 0.16821 0.0
H152 H 0.50351 0.05864 0.14084 0.0
H153 H 0.58947 0.14787 0.13635 0.0
H154 H 0.63518 0.17844 0.16354 0.0
H155 H 0.72044 0.10511 0.13963 0.0
H156 H 0.67487 0.07518 0.11205 0.0
H157 H 0.57925 0.06786 0.13949 0.0
H158 H 0.59375 0.15618 0.08557 0.0
H159 H 0.63119 0.19868 0.0659 0.0
H160 H 0.68991 0.10532 0.03674 0.0
H161 H 0.65208 0.06255 0.05658 0.0
C162 C 0.52912 0.00172 0.07533 0.0
C163 C 0.54548 0.97355 0.06215 0.0
C164 C 0.52442 0.94278 0.05339 0.0
C165 C 0.48656 0.93979 0.05751 0.0
C166 C 0.46981 0.96886 0.06983 0.0
C167 C 0.49088 0.99966 0.07857 0.0
C168 C 0.55273 0.03138 0.08723 0.0
C169 C 0.57529 0.05368 0.07502 0.0
C170 C 0.55366 0.03714 0.11074 0.0
C171 C 0.53313 0.01307 0.12502 0.0
C172 C 0.54032 0.97476 0.12497 0.0
C173 C 0.52473 0.95309 0.14053 0.0
C174 C 0.50167 0.96933 0.1564 0.0
C175 C 0.49351 0.00741 0.15592 0.0
C176 C 0.50917 0.02908 0.1404 0.0
C177 C 0.62895 0.10955 0.12215 0.0
C178 C 0.61827 0.13928 0.13647 0.0
C179 C 0.6443 0.15665 0.15194 0.0
C180 C 0.68113 0.14398 0.15354 0.0
C181 C 0.69218 0.11534 0.13855 0.0
C182 C 0.66629 0.09845 0.12279 0.0
C183 C 0.60042 0.08598 0.10935 0.0
C184 C 0.57728 0.06456 0.12141 0.0
C185 C 0.5989 0.08124 0.08588 0.0
C186 C 0.62033 0.10625 0.07267 0.0
C187 C 0.61451 0.14478 0.07484 0.0
C188 C 0.63573 0.16901 0.06349 0.0
C189 C 0.66345 0.15526 0.04984 0.0
C190 C 0.66884 0.11659 0.04727 0.0
C191 C 0.6472 0.09221 0.05849 0.0
H192 H 0.01256 0.68895 0.91322 0.0
H193 H 0.04731 0.72609 0.88871 0.0
H194 H 0.1495 0.67566 0.91229 0.0
H195 H 0.11467 0.6372 0.93603 0.0
H196 H 0.00958 0.61579 0.90615 0.0
H197 H 0.04889 0.69853 0.97299 0.0
H198 H 0.10296 0.73204 0.99128 0.0
H199 H 0.16076 0.62774 0.99679 0.0
H200 H 0.10603 0.59444 0.97959 0.0
H201 H 0.01645 0.51893 0.98147 0.0
H202 H 0.97515 0.47459 0.99748 0.0
H203 H 0.87987 0.52775 0.96639 0.0
H204 H 0.92078 0.57258 0.95131 0.0
H205 H 0.02698 0.59126 0.98622 0.0
H206 H 0.99497 0.5071 0.92537 0.0
H207 H 0.96425 0.46833 0.89476 0.0
H208 H 0.90802 0.56498 0.8707 0.0
H209 H 0.93858 0.60375 0.90145 0.0
C210 C 0.06091 0.66035 0.92665 0.0
C211 C 0.04256 0.68648 0.91356 0.0
C212 C 0.06236 0.70777 0.89962 0.0
C213 C 0.10098 0.7038 0.89879 0.0
C214 C 0.11978 0.67961 0.91296 0.0
C215 C 0.09986 0.65774 0.92662 0.0
C216 C 0.03866 0.63238 0.93745 0.0
C217 C 0.01255 0.61119 0.92381 0.0
C218 C 0.0445 0.6245 0.96012 0.0
C219 C 0.07377 0.64413 0.97472 0.0
C220 C 0.07291 0.68292 0.97869 0.0
C221 C 0.10393 0.702 0.98892 0.0
C222 C 0.13652 0.68262 0.99489 0.0
C223 C 0.13612 0.6435 0.9924 0.0
C224 C 0.10489 0.62441 0.98254 0.0
C225 C 0.97179 0.54891 0.96498 0.0
C226 C 0.98665 0.52109 0.97822 0.0
C227 C 0.96308 0.49551 0.98713 0.0
C228 C 0.92429 0.49747 0.98302 0.0
C229 C 0.90962 0.52556 0.96992 0.0
C230 C 0.93304 0.55105 0.96113 0.0
C231 C 0.99632 0.57586 0.955 0.0
C232 C 0.02311 0.59652 0.9687 0.0
C233 C 0.99195 0.58262 0.93209 0.0
C234 C 0.96894 0.55832 0.91578 0.0
C235 C 0.97517 0.5198 0.91393 0.0
C236 C 0.95766 0.49766 0.89642 0.0
C237 C 0.93378 0.51374 0.88043 0.0
C238 C 0.92646 0.55201 0.88278 0.0
C239 C 0.94382 0.5741 0.90033 0.0
H240 H 0.56989 0.59477 0.23069 0.0
H241 H 0.54096 0.65153 0.24538 0.0
H242 H 0.43239 0.60014 0.23227 0.0
H243 H 0.46167 0.54416 0.21628 0.0
H244 H 0.56688 0.51731 0.23952 0.0
H245 H 0.53907 0.60091 0.18319 0.0
H246 H 0.50731 0.64075 0.15685 0.0
H247 H 0.43606 0.5487 0.13195 0.0
H248 H 0.46719 0.50907 0.15897 0.0
H249 H 0.55117 0.42041 0.15694 0.0
H250 H 0.58806 0.38993 0.12835 0.0
H251 H 0.68594 0.44939 0.15661 0.0
H252 H 0.64906 0.4798 0.18513 0.0
H253 H 0.54226 0.49382 0.15788 0.0
H254 H 0.58351 0.40788 0.2112 0.0
H255 H 0.63123 0.37064 0.22985 0.0
H256 H 0.687 0.47115 0.25732 0.0
H257 H 0.63948 0.50848 0.23826 0.0
C258 C 0.51788 0.56547 0.22232 0.0
C259 C 0.53989 0.5956 0.23128 0.0
C260 C 0.52325 0.62802 0.23966 0.0
C261 C 0.48426 0.63069 0.23965 0.0
C262 C 0.46239 0.59951 0.23186 0.0
C263 C 0.47906 0.56732 0.22302 0.0
C264 C 0.53545 0.53389 0.2102 0.0
C265 C 0.56143 0.51192 0.22169 0.0
C266 C 0.52802 0.52684 0.18701 0.0
C267 C 0.50512 0.55213 0.17332 0.0
C268 C 0.5157 0.5896 0.17269 0.0
C269 C 0.49778 0.61227 0.15748 0.0
C270 C 0.46916 0.59784 0.14242 0.0
C271 C 0.45757 0.56073 0.14362 0.0
C272 C 0.4755 0.53802 0.15892 0.0
C273 C 0.59733 0.45228 0.17323 0.0
C274 C 0.58079 0.42605 0.15737 0.0
C275 C 0.60183 0.40875 0.14103 0.0
C276 C 0.6398 0.41738 0.14027 0.0
C277 C 0.65688 0.44176 0.15702 0.0
C278 C 0.63579 0.45913 0.17335 0.0
C279 C 0.5737 0.47684 0.18707 0.0
C280 C 0.54668 0.49793 0.17586 0.0
C281 C 0.58074 0.48341 0.21038 0.0
C282 C 0.60816 0.46097 0.22309 0.0
C283 C 0.60593 0.42195 0.22127 0.0
C284 C 0.63301 0.4007 0.23208 0.0
C285 C 0.66289 0.41805 0.2449 0.0
C286 C 0.66447 0.45712 0.24733 0.0
C287 C 0.63724 0.4784 0.23657 0.0
H288 H 0.55092 0.96566 0.44022 0.0
H289 H 0.51834 0.924 0.41148 0.0
H290 H 0.46242 0.01834 0.38433 0.0
H291 H 0.49509 0.05986 0.4129 0.0
H292 H 0.57348 0.05585 0.40909 0.0
H293 H 0.5762 0.99232 0.49337 0.0
H294 H 0.53256 0.95594 0.51338 0.0
H295 H 0.44106 0.01879 0.48556 0.0
H296 H 0.48456 0.055 0.4658 0.0
H297 H 0.61358 0.15284 0.48248 0.0
H298 H 0.66824 0.19159 0.49472 0.0
H299 H 0.74001 0.10194 0.47361 0.0
H300 H 0.6854 0.06422 0.46057 0.0
H301 H 0.59321 0.07017 0.49146 0.0
H302 H 0.62824 0.15402 0.4337 0.0
H303 H 0.66769 0.1794 0.40639 0.0
H304 H 0.68122 0.06858 0.37629 0.0
H305 H 0.64388 0.04333 0.40419 0.0
C306 C 0.52549 0.01579 0.42854 0.0
C307 C 0.53038 0.97713 0.4287 0.0
C308 C 0.51189 0.9534 0.41229 0.0
C309 C 0.48852 0.96825 0.39561 0.0
C310 C 0.48063 0.00644 0.39697 0.0
C311 C 0.49911 0.03009 0.41329 0.0
C312 C 0.55353 0.04121 0.44031 0.0
C313 C 0.57758 0.05938 0.42711 0.0
C314 C 0.55895 0.04504 0.46376 0.0
C315 C 0.53355 0.02619 0.47802 0.0
C316 C 0.5468 0.99864 0.49193 0.0
C317 C 0.52189 0.97775 0.50321 0.0
C318 C 0.48343 0.98441 0.50089 0.0
C319 C 0.47055 0.01319 0.48776 0.0
C320 C 0.49534 0.03378 0.47639 0.0
C321 C 0.64565 0.10589 0.47055 0.0
C322 C 0.64115 0.14151 0.48079 0.0
C323 C 0.67234 0.16358 0.48769 0.0
C324 C 0.70839 0.15014 0.48459 0.0
C325 C 0.71261 0.11356 0.47551 0.0
C326 C 0.68151 0.09177 0.46836 0.0
C327 C 0.61324 0.08487 0.46005 0.0
C328 C 0.58873 0.06717 0.47346 0.0
C329 C 0.60767 0.08077 0.43657 0.0
C330 C 0.63351 0.09666 0.42124 0.0
C331 C 0.64061 0.13513 0.42162 0.0
C332 C 0.66277 0.14965 0.40584 0.0
C333 C 0.67803 0.12596 0.38935 0.0
C334 C 0.67086 0.08752 0.38911 0.0
C335 C 0.64913 0.07306 0.40494 0.0
H336 H 0.08605 0.2079 0.72037 0.0
H337 H 0.036 0.25021 0.73 0.0
H338 H 0.96292 0.15625 0.73568 0.0
H339 H 0.01392 0.11377 0.72665 0.0
H340 H 0.09466 0.10489 0.74291 0.0
H341 H 0.11491 0.19129 0.66506 0.0
H342 H 0.07867 0.22201 0.63575 0.0
H343 H 0.98013 0.16293 0.6515 0.0
H344 H 0.01644 0.13155 0.68029 0.0
H345 H 0.14421 0.01714 0.68695 0.0
H346 H 0.18029 0.98446 0.65863 0.0
H347 H 0.23793 0.08673 0.64861 0.0
H348 H 0.20231 0.11926 0.67708 0.0
H349 H 0.12746 0.11978 0.66515 0.0
H350 H 0.10182 0.0279 0.73575 0.0
H351 H 0.13498 0.97897 0.75494 0.0
H352 H 0.23893 0.03718 0.74962 0.0
H353 H 0.20559 0.08553 0.72977 0.0
C354 C 0.05365 0.15777 0.72281 0.0
C355 C 0.05954 0.19638 0.72425 0.0
C356 C 0.03079 0.2205 0.72952 0.0
C357 C 0.99538 0.20657 0.73333 0.0
C358 C 0.98998 0.16779 0.73302 0.0
C359 C 0.01906 0.14352 0.72792 0.0
C360 C 0.08204 0.13334 0.71291 0.0
C361 C 0.10182 0.10797 0.7259 0.0
C362 C 0.09113 0.13714 0.69068 0.0
C363 C 0.06833 0.15947 0.6751 0.0
C364 C 0.08539 0.18538 0.66243 0.0
C365 C 0.06475 0.20288 0.64573 0.0
C366 C 0.02665 0.19498 0.64156 0.0
C367 C 0.00931 0.17003 0.65471 0.0
C368 C 0.03003 0.15222 0.67123 0.0
C369 C 0.1705 0.07067 0.68408 0.0
C370 C 0.16586 0.03214 0.67947 0.0
C371 C 0.18638 0.01352 0.66325 0.0
C372 C 0.21148 0.03331 0.65139 0.0
C373 C 0.21863 0.07101 0.65754 0.0
C374 C 0.19835 0.08952 0.6738 0.0
C375 C 0.14144 0.09254 0.6953 0.0
C376 C 0.12102 0.11726 0.68237 0.0
C377 C 0.13143 0.08726 0.71725 0.0
C378 C 0.15126 0.06017 0.73118 0.0
C379 C 0.13167 0.03047 0.73909 0.0
C380 C 0.15067 0.00266 0.75024 0.0
C381 C 0.18962 0.00434 0.75403 0.0
C382 C 0.20896 0.035 0.74689 0.0
C383 C 0.18997 0.06262 0.73555 0.0
O384 O 0.37284 0.71901 0.98339 0.0
Cd385 Cd 0.35021 0.75022 0.00894 0.0
Cd386 Cd 0.40532 0.71566 0.03513 0.0
O387 O 0.40971 0.68603 0.00493 0.0
O388 O 0.29987 0.76328 0.99675 0.0
O389 O 0.30941 0.7265 0.02457 0.0
C390 C 0.28634 0.74186 0.01066 0.0
C391 C 0.41976 0.6818 0.0666 0.0
C392 C 0.39556 0.69247 0.98572 0.0
C393 C 0.40726 0.8004 0.03267 0.0
O394 O 0.42251 0.7707 0.03893 0.0
O395 O 0.37657 0.79884 0.02105 0.0
O396 O 0.44482 0.69216 0.05394 0.0
O397 O 0.38575 0.69048 0.06134 0.0
O398 O 0.41884 0.85729 0.31346 0.0
Cd399 Cd 0.38845 0.83908 0.28462 0.0
Cd400 Cd 0.44851 0.85974 0.26488 0.0
O401 O 0.45804 0.88884 0.29521 0.0
O402 O 0.33551 0.84487 0.2915 0.0
O403 O 0.36352 0.88003 0.26856 0.0
C404 C 0.33455 0.87322 0.27936 0.0
C405 C 0.46052 0.89032 0.23285 0.0
C406 C 0.44466 0.88142 0.31345 0.0
C407 C 0.43067 0.77805 0.26424 0.0
O408 O 0.45557 0.80284 0.26315 0.0
O409 O 0.39844 0.78677 0.27015 0.0
O410 O 0.48699 0.87821 0.2458 0.0
O411 O 0.42677 0.88522 0.23819 0.0
O412 O 0.27402 0.8963 0.48618 0.0
Cd413 Cd 0.29712 0.87572 0.5151 0.0
Cd414 Cd 0.25077 0.92081 0.53478 0.0
O415 O 0.25438 0.9458 0.50503 0.0
O416 O 0.35063 0.86639 0.5104 0.0
O417 O 0.3307 0.91286 0.53235 0.0
C418 C 0.35785 0.8968 0.52252 0.0
C419 C 0.2469 0.9587 0.56753 0.0
C420 C 0.26129 0.92916 0.48651 0.0
C421 C 0.23561 0.83866 0.53454 0.0
O422 O 0.22199 0.87119 0.53493 0.0
O423 O 0.26912 0.83368 0.52952 0.0
O424 O 0.22012 0.95633 0.55232 0.0
O425 O 0.27675 0.94006 0.56404 0.0
O426 O 0.24062 0.77679 0.7462 0.0
Cd427 Cd 0.26822 0.80176 0.77394 0.0
Cd428 Cd 0.22329 0.75689 0.79669 0.0
O429 O 0.19668 0.75336 0.76504 0.0
O430 O 0.2828 0.8518 0.76526 0.0
O431 O 0.24026 0.84263 0.78944 0.0
C432 C 0.25722 0.86523 0.77751 0.0
C433 C 0.18476 0.74937 0.82612 0.0
C434 C 0.20938 0.76055 0.74653 0.0
C435 C 0.30765 0.74401 0.79823 0.0
O436 O 0.2751 0.73314 0.80197 0.0
O437 O 0.31238 0.77333 0.78801 0.0
O438 O 0.19103 0.72253 0.81179 0.0
O439 O 0.19993 0.7813 0.82374 0.0
O440 O 0.91723 0.26846 0.56469 0.0
Cd441 Cd 0.88948 0.29158 0.53823 0.0
Cd442 Cd 0.92778 0.23801 0.51276 0.0
O443 O 0.9527 0.23214 0.54431 0.0
O444 O 0.87777 0.34324 0.54876 0.0
O445 O 0.91696 0.32969 0.52256 0.0
C446 C 0.90139 0.35449 0.53532 0.0
C447 C 0.96537 0.22163 0.48314 0.0
C448 C 0.94367 0.24544 0.56327 0.0
C449 C 0.84223 0.23643 0.51126 0.0
O450 O 0.87277 0.22246 0.50547 0.0
O451 O 0.84194 0.26535 0.52444 0.0
O452 O 0.95237 0.19736 0.49541 0.0
O453 O 0.95764 0.25608 0.48792 0.0
O454 O 0.86173 0.39779 0.80032 0.0
Cd455 Cd 0.83477 0.36951 0.7734 0.0
Cd456 Cd 0.88476 0.41007 0.74964 0.0
O457 O 0.89183 0.43698 0.78111 0.0
O458 O 0.78542 0.35661 0.78391 0.0
O459 O 0.79292 0.39671 0.75812 0.0
C460 C 0.77117 0.38099 0.77111 0.0
C461 C 0.8984 0.44621 0.71982 0.0
C462 C 0.88218 0.42642 0.79969 0.0
C463 C 0.88944 0.32432 0.74965 0.0
O464 O 0.90213 0.35561 0.74479 0.0
O465 O 0.86032 0.32253 0.76043 0.0
O466 O 0.92379 0.43521 0.7338 0.0
O467 O 0.86443 0.43737 0.72293 0.0
O468 O 0.75075 0.36495 0.06095 0.0
Cd469 Cd 0.77197 0.34019 0.03259 0.0
Cd470 Cd 0.72804 0.38766 0.01216 0.0
O471 O 0.70254 0.38678 0.04185 0.0
O472 O 0.78081 0.28708 0.03852 0.0
O473 O 0.73531 0.30587 0.01546 0.0
C474 C 0.7509 0.27929 0.02607 0.0
C475 C 0.69154 0.3955 0.9792 0.0
C476 C 0.7186 0.37941 0.06045 0.0
C477 C 0.81131 0.39966 0.01304 0.0
O478 O 0.77903 0.41375 0.01207 0.0
O479 O 0.81558 0.36632 0.0185 0.0
O480 O 0.69684 0.42195 0.99446 0.0
O481 O 0.70565 0.36345 0.98303 0.0
O482 O 0.78766 0.22557 0.23498 0.0
Cd483 Cd 0.8067 0.25527 0.26368 0.0
Cd484 Cd 0.7852 0.19257 0.28308 0.0
O485 O 0.76119 0.18007 0.25134 0.0
O486 O 0.80296 0.30805 0.25614 0.0
O487 O 0.76703 0.28263 0.2797 0.0
C488 C 0.77488 0.31079 0.26845 0.0
C489 C 0.75381 0.17629 0.31401 0.0
C490 C 0.76724 0.1966 0.23384 0.0
C491 C 0.86759 0.21406 0.28569 0.0
O492 O 0.84221 0.19031 0.28816 0.0
O493 O 0.85941 0.24467 0.27725 0.0
O494 O 0.76959 0.15171 0.30139 0.0
O495 O 0.75432 0.21042 0.30858 0.0
C496 C 0.2849 0.96565 0.28071 0.0
C497 C 0.25349 0.9585 0.29257 0.0
C498 C 0.30945 0.93709 0.27478 0.0
C499 C 0.30378 0.9004 0.28078 0.0
H500 H 0.2913 0.99381 0.27673 0.0
H501 H 0.33423 0.9444 0.26665 0.0
S502 S 0.22356 0.8666 0.31 0.0
N503 N 0.2164 0.91168 0.30861 0.0
N504 N 0.26237 0.85796 0.29746 0.0
C505 C 0.27115 0.8925 0.2914 0.0
C506 C 0.24606 0.92157 0.29731 0.0
C507 C 0.14896 0.78378 0.54485 0.0
C508 C 0.16296 0.75156 0.55431 0.0
C509 C 0.17277 0.81108 0.53803 0.0
C510 C 0.21171 0.80732 0.54019 0.0
H511 H 0.11923 0.78821 0.54292 0.0
H512 H 0.16043 0.83562 0.53118 0.0
S513 S 0.26272 0.72795 0.56365 0.0
N514 N 0.21839 0.71722 0.56538 0.0
N515 N 0.26326 0.76834 0.55208 0.0
C516 C 0.2262 0.7747 0.54897 0.0
C517 C 0.20183 0.74689 0.55613 0.0
C518 C 0.39627 0.68799 0.79415 0.0
C519 C 0.39531 0.66576 0.81252 0.0
C520 C 0.3689 0.71495 0.79024 0.0
C521 C 0.33959 0.72032 0.80449 0.0
H522 H 0.41738 0.68349 0.78224 0.0
H523 H 0.36966 0.73032 0.77537 0.0
S524 S 0.32834 0.67397 0.85697 0.0
N525 N 0.36565 0.65466 0.84673 0.0
N526 N 0.31376 0.70437 0.83901 0.0
C527 C 0.33964 0.69982 0.82358 0.0
C528 C 0.36761 0.67279 0.82769 0.0
C529 C 0.48088 0.87062 0.05592 0.0
C530 C 0.4656 0.905 0.05056 0.0
C531 C 0.46164 0.83723 0.05019 0.0
C532 C 0.42629 0.8367 0.03873 0.0
H533 H 0.50781 0.86953 0.06494 0.0
H534 H 0.47481 0.81159 0.0548 0.0
S535 S 0.37444 0.91959 0.0204 0.0
N536 N 0.41345 0.93684 0.03289 0.0
N537 N 0.37694 0.87405 0.02207 0.0
C538 C 0.41069 0.87104 0.0332 0.0
C539 C 0.43037 0.90515 0.03915 0.0
C540 C 0.19622 0.69069 0.01863 0.0
C541 C 0.17215 0.70272 0.00125 0.0
C542 C 0.23247 0.70511 0.02246 0.0
C543 C 0.24609 0.73211 0.00904 0.0
H544 H 0.18739 0.66901 0.02887 0.0
H545 H 0.2504 0.69379 0.03544 0.0
S546 S 0.19312 0.7751 0.96246 0.0
N547 N 0.16394 0.74458 0.97119 0.0
N548 N 0.2314 0.7725 0.97879 0.0
C549 C 0.22151 0.74599 0.99247 0.0
C550 C 0.18473 0.73111 0.98847 0.0
C551 C 0.48283 0.68764 0.26572 0.0
C552 C 0.46697 0.66653 0.24699 0.0
C553 C 0.47004 0.72338 0.27156 0.0
C554 C 0.44033 0.73895 0.25925 0.0
H555 H 0.50589 0.67681 0.2757 0.0
H556 H 0.48386 0.73919 0.28563 0.0
S557 S 0.38888 0.69603 0.20895 0.0
N558 N 0.42 0.66459 0.21598 0.0
N559 N 0.3949 0.73114 0.22787 0.0
C560 C 0.4232 0.71795 0.24105 0.0
C561 C 0.43673 0.68182 0.23473 0.0
C562 C 0.42724 0.97603 0.52262 0.0
C563 C 0.45605 0.96008 0.5106 0.0
C564 C 0.39708 0.9545 0.52827 0.0
C565 C 0.39426 0.91623 0.52181 0.0
H566 H 0.42718 0.00574 0.52682 0.0
H567 H 0.37466 0.96859 0.53644 0.0
S568 S 0.46478 0.86033 0.49238 0.0
N569 N 0.48174 0.90317 0.49423 0.0
N570 N 0.42515 0.86261 0.50478 0.0
C571 C 0.4243 0.89945 0.51121 0.0
C572 C 0.45515 0.9214 0.5056 0.0
C573 C 0.24096 0.95787 0.75221 0.0
C574 C 0.21024 0.97228 0.76314 0.0
C575 C 0.25765 0.92455 0.75813 0.0
C576 C 0.2442 0.90401 0.77514 0.0
H577 H 0.25101 0.97133 0.73813 0.0
H578 H 0.28001 0.91387 0.74839 0.0
S579 S 0.16842 0.93298 0.81142 0.0
N580 N 0.17017 0.96612 0.79375 0.0
N581 N 0.20102 0.90298 0.80463 0.0
C582 C 0.21514 0.91942 0.78725 0.0
C583 C 0.19824 0.95358 0.78127 0.0
C584 C 0.6788 0.39702 0.79684 0.0
C585 C 0.66316 0.42638 0.78516 0.0
C586 C 0.71256 0.381 0.79118 0.0
C587 C 0.73237 0.39377 0.77368 0.0
H588 H 0.66584 0.38747 0.81123 0.0
H589 H 0.724 0.3596 0.80141 0.0
S590 S 0.70066 0.46627 0.73572 0.0
N591 N 0.66778 0.46465 0.75357 0.0
N592 N 0.73176 0.43508 0.74317 0.0
C593 C 0.71597 0.42162 0.76097 0.0
C594 C 0.68135 0.43784 0.76669 0.0
C595 C 0.67154 0.21052 0.02734 0.0
C596 C 0.68766 0.18198 0.03952 0.0
C597 C 0.69303 0.24032 0.02115 0.0
C598 C 0.73141 0.24304 0.02724 0.0
H599 H 0.64176 0.2107 0.02347 0.0
H600 H 0.67886 0.26261 0.01291 0.0
S601 S 0.78765 0.17295 0.05678 0.0
N602 N 0.74474 0.15625 0.05553 0.0
N603 N 0.78525 0.21227 0.04404 0.0
C604 C 0.74829 0.2132 0.03798 0.0
C605 C 0.72639 0.18268 0.0441 0.0
C606 C 0.94993 0.16105 0.30951 0.0
C607 C 0.98089 0.18094 0.30333 0.0
C608 C 0.9137 0.1726 0.30412 0.0
C609 C 0.90671 0.20462 0.29227 0.0
H610 H 0.95374 0.13624 0.31868 0.0
H611 H 0.89098 0.15594 0.30921 0.0
S612 S 0.97847 0.26687 0.27244 0.0
N613 N 0.00259 0.23442 0.28497 0.0
N614 N 0.93422 0.25648 0.27481 0.0
C615 C 0.9375 0.22529 0.28633 0.0
C616 C 0.97462 0.2134 0.29188 0.0
C617 C 0.91517 0.45464 0.5575 0.0
C618 C 0.94172 0.46842 0.54387 0.0
C619 C 0.90091 0.41844 0.55378 0.0
C620 C 0.91278 0.39428 0.53638 0.0
H621 H 0.9066 0.47129 0.57187 0.0
H622 H 0.88164 0.40889 0.56535 0.0
S623 S 0.97798 0.41856 0.49404 0.0
N624 N 0.9763 0.45657 0.51078 0.0
N625 N 0.95005 0.38804 0.50401 0.0
C626 C 0.93782 0.40832 0.52186 0.0
C627 C 0.9522 0.44544 0.52558 0.0
C628 C 0.74508 0.19522 0.51103 0.0
C629 C 0.74156 0.17429 0.49045 0.0
C630 C 0.77718 0.21652 0.51733 0.0
C631 C 0.80701 0.21732 0.50336 0.0
H632 H 0.72334 0.19428 0.52264 0.0
H633 H 0.77921 0.23131 0.53359 0.0
S634 S 0.80947 0.17185 0.44646 0.0
N635 N 0.7689 0.1593 0.45507 0.0
N636 N 0.82966 0.19822 0.46723 0.0
C637 C 0.80325 0.19775 0.48239 0.0
C638 C 0.77043 0.17651 0.47586 0.0
C639 C 0.95949 0.26215 0.7219 0.0
C640 C 0.96422 0.23304 0.73634 0.0
C641 C 0.93369 0.2904 0.72571 0.0
C642 C 0.91114 0.29055 0.74395 0.0
H643 H 0.97667 0.26369 0.70783 0.0
H644 H 0.93219 0.31295 0.71459 0.0
S645 S 0.91061 0.2193 0.78585 0.0
N646 N 0.94283 0.20502 0.76899 0.0
N647 N 0.8936 0.25788 0.77591 0.0
C648 C 0.91392 0.26047 0.7578 0.0
C649 C 0.94061 0.23176 0.75404 0.0
C650 C 0.86707 0.48562 0.00291 0.0
C651 C 0.89847 0.47135 0.99267 0.0
C652 C 0.83994 0.46204 0.0101 0.0
C653 C 0.84308 0.42306 0.00754 0.0
H654 H 0.86302 0.51541 0.00503 0.0
H655 H 0.8159 0.4746 0.01741 0.0
S656 S 0.92066 0.37138 0.98251 0.0
N657 N 0.93177 0.41565 0.98082 0.0
N658 N 0.88087 0.37113 0.99477 0.0
C659 C 0.8751 0.40826 0.99819 0.0
C660 C 0.90276 0.43243 0.99067 0.0
C661 C 0.68477 0.36444 0.26669 0.0
C662 C 0.69326 0.39503 0.25444 0.0
C663 C 0.71221 0.33887 0.27287 0.0
C664 C 0.74908 0.34266 0.26673 0.0
H665 H 0.65639 0.35948 0.27082 0.0
H666 H 0.70385 0.31477 0.2813 0.0
S667 S 0.78626 0.42007 0.23645 0.0
N668 N 0.74157 0.4293 0.23785 0.0
N669 N 0.79322 0.38142 0.24945 0.0
C670 C 0.75836 0.37446 0.25569 0.0
C671 C 0.73044 0.40059 0.24953 0.0
C672 C 0.23502 0.00519 0.4477 0.0
C673 C 0.24065 0.98872 0.42641 0.0
C674 C 0.24189 0.98567 0.46686 0.0
C675 C 0.25478 0.94876 0.46562 0.0
H676 H 0.22429 0.03322 0.44958 0.0
H677 H 0.23669 0.99975 0.48278 0.0
S678 S 0.27577 0.89359 0.41372 0.0
N679 N 0.26109 0.93393 0.40507 0.0
N680 N 0.27409 0.89689 0.44112 0.0
C681 C 0.26114 0.93208 0.44438 0.0
C682 C 0.25399 0.95209 0.4248 0.0
C683 C 0.13149 0.72075 0.70653 0.0
C684 C 0.14397 0.72723 0.68546 0.0
C685 C 0.15276 0.73178 0.72608 0.0
C686 C 0.18739 0.74986 0.72538 0.0
H687 H 0.10541 0.70622 0.70794 0.0
H688 H 0.14197 0.7257 0.74186 0.0
S689 S 0.23135 0.77531 0.67412 0.0
N690 N 0.19212 0.75417 0.66486 0.0
N691 N 0.23243 0.77501 0.70156 0.0
C692 C 0.19987 0.75715 0.70432 0.0
C693 C 0.17812 0.74577 0.68439 0.0
C694 C 0.4083 0.65982 0.92537 0.0
C695 C 0.42651 0.62563 0.92732 0.0
C696 C 0.39785 0.68096 0.94431 0.0
C697 C 0.40575 0.66894 0.96591 0.0
H698 H 0.40223 0.67035 0.90909 0.0
H699 H 0.38406 0.70724 0.94197 0.0
S700 S 0.45315 0.5811 0.97979 0.0
N701 N 0.45207 0.58056 0.95234 0.0
N702 N 0.43252 0.62002 0.98794 0.0
C703 C 0.42375 0.63453 0.96799 0.0
C704 C 0.43407 0.61295 0.94871 0.0
C705 C 0.51595 0.92793 0.18748 0.0
C706 C 0.48944 0.94756 0.17482 0.0
C707 C 0.50611 0.90936 0.20601 0.0
C708 C 0.46926 0.9094 0.21262 0.0
H709 H 0.54483 0.92773 0.18339 0.0
H710 H 0.52779 0.8951 0.21533 0.0
S711 S 0.38888 0.95507 0.1842 0.0
N712 N 0.42451 0.96482 0.16952 0.0
N713 N 0.4058 0.92982 0.20439 0.0
C714 C 0.44223 0.92824 0.19977 0.0
C715 C 0.45238 0.94739 0.18091 0.0
C716 C 0.1101 0.70775 0.85848 0.0
C717 C 0.12046 0.7198 0.88065 0.0
C718 C 0.13044 0.71861 0.84089 0.0
C719 C 0.16136 0.74263 0.84476 0.0
H720 H 0.08699 0.68851 0.8548 0.0
H721 H 0.12231 0.70754 0.82414 0.0
S722 S 0.19865 0.78352 0.8997 0.0
N723 N 0.16291 0.75772 0.90557 0.0
N724 N 0.2006 0.77928 0.87231 0.0
C725 C 0.1711 0.75618 0.86675 0.0
C726 C 0.15084 0.74438 0.88478 0.0
C727 C 0.48059 0.63655 0.11069 0.0
C728 C 0.45498 0.62011 0.12383 0.0
C729 C 0.4687 0.65642 0.09239 0.0
C730 C 0.43062 0.66091 0.08645 0.0
H731 H 0.51023 0.63343 0.1143 0.0
H732 H 0.48977 0.66823 0.0828 0.0
S733 S 0.35219 0.62428 0.11606 0.0
N734 N 0.38981 0.61019 0.13014 0.0
N735 N 0.36718 0.64775 0.09563 0.0
C736 C 0.40457 0.64498 0.09964 0.0
C737 C 0.41681 0.62446 0.11831 0.0
C738 C 0.45572 0.91353 0.37503 0.0
C739 C 0.47789 0.94565 0.37486 0.0
C740 C 0.44544 0.89254 0.35513 0.0
C741 C 0.45754 0.90268 0.33448 0.0
H742 H 0.44581 0.90498 0.39056 0.0
H743 H 0.42773 0.86833 0.35594 0.0
S744 S 0.51872 0.98334 0.32585 0.0
N745 N 0.51331 0.98571 0.3529 0.0
N746 N 0.49446 0.94652 0.31558 0.0
C747 C 0.4807 0.93432 0.33437 0.0
C748 C 0.49075 0.95573 0.35454 0.0
C749 C 0.24673 0.98484 0.62957 0.0
C750 C 0.2244 0.01677 0.63015 0.0
C751 C 0.25591 0.96727 0.60913 0.0
C752 C 0.24213 0.98055 0.58873 0.0
H753 H 0.25654 0.97308 0.64496 0.0
H754 H 0.27236 0.94215 0.6093 0.0
S755 S 0.18342 0.06382 0.58147 0.0
N756 N 0.18986 0.06166 0.60874 0.0
N757 N 0.2063 0.02826 0.57047 0.0
C758 C 0.22048 0.01291 0.5892 0.0
C759 C 0.21179 0.03111 0.60989 0.0
C760 C 0.64922 0.44918 0.93194 0.0
C761 C 0.63518 0.42127 0.91627 0.0
C762 C 0.66695 0.4403 0.95219 0.0
C763 C 0.67178 0.40309 0.95761 0.0
H764 H 0.64573 0.47828 0.92873 0.0
H765 H 0.67712 0.46301 0.96365 0.0
S766 S 0.6406 0.31949 0.922 0.0
N767 N 0.62735 0.35487 0.90728 0.0
N768 N 0.66136 0.33793 0.94539 0.0
C769 C 0.65825 0.37476 0.94197 0.0
C770 C 0.63969 0.38391 0.92133 0.0
C771 C 0.71848 0.13277 0.18861 0.0
C772 C 0.70648 0.15754 0.17256 0.0
C773 C 0.73883 0.14551 0.20822 0.0
C774 C 0.74848 0.18334 0.21223 0.0
H775 H 0.71088 0.10356 0.18635 0.0
H776 H 0.74665 0.12566 0.22043 0.0
S777 S 0.7249 0.25899 0.17469 0.0
N778 N 0.70625 0.22116 0.16148 0.0
N779 N 0.74532 0.24527 0.19807 0.0
C780 C 0.73769 0.20816 0.19586 0.0
C781 C 0.7164 0.19522 0.1761 0.0
C782 C 0.02458 0.22573 0.43298 0.0
C783 C 0.02999 0.18791 0.42679 0.0
C784 C 0.00362 0.23654 0.4512 0.0
C785 C 0.98775 0.20989 0.46403 0.0
H786 H 0.03634 0.24706 0.42355 0.0
H787 H 0.99992 0.26597 0.45526 0.0
S788 S 0.996 0.10711 0.45524 0.0
N789 N 0.01933 0.12386 0.43532 0.0
N790 N 0.98004 0.14377 0.46937 0.0
C791 C 0.99354 0.17192 0.45808 0.0
C792 C 0.01461 0.16105 0.43952 0.0
C793 C 0.95838 0.49037 0.67895 0.0
C794 C 0.93266 0.50827 0.66482 0.0
C795 C 0.94679 0.47052 0.69654 0.0
C796 C 0.9089 0.46745 0.70075 0.0
H797 H 0.98793 0.4924 0.67673 0.0
H798 H 0.96795 0.45755 0.70696 0.0
S799 S 0.83016 0.50819 0.66801 0.0
N800 N 0.86748 0.52108 0.65574 0.0
N801 N 0.84546 0.4835 0.68886 0.0
C802 C 0.88271 0.48478 0.68653 0.0
C803 C 0.89464 0.50532 0.66861 0.0
C804 C 0.68654 0.17158 0.36003 0.0
C805 C 0.69984 0.14106 0.37168 0.0
C806 C 0.70468 0.18366 0.34173 0.0
C807 C 0.73642 0.16531 0.33428 0.0
H808 H 0.66123 0.18542 0.36459 0.0
H809 H 0.69302 0.20663 0.3329 0.0
S810 S 0.78562 0.0878 0.36102 0.0
N811 N 0.74934 0.09588 0.37602 0.0
N812 N 0.78255 0.11766 0.34128 0.0
C813 C 0.75087 0.13586 0.34634 0.0
C814 C 0.73282 0.12398 0.36512 0.0
C815 C 0.01912 0.20415 0.60087 0.0
C816 C 0.00578 0.21004 0.62222 0.0
C817 C 0.99884 0.21576 0.58199 0.0
C818 C 0.96457 0.23409 0.58375 0.0
H819 H 0.04507 0.18965 0.59867 0.0
H820 H 0.0102 0.21022 0.56589 0.0
S821 S 0.9185 0.25759 0.63631 0.0
N822 N 0.95702 0.23616 0.64433 0.0
N823 N 0.91876 0.2584 0.60893 0.0
C824 C 0.9513 0.24081 0.60516 0.0
C825 C 0.97189 0.22862 0.62437 0.0
C826 C 0.92489 0.50372 0.8391 0.0
C827 C 0.91912 0.49137 0.8603 0.0
C828 C 0.91295 0.48248 0.81969 0.0
C829 C 0.89451 0.4481 0.82068 0.0
H830 H 0.93939 0.52976 0.83749 0.0
H831 H 0.9183 0.49322 0.80378 0.0
S832 S 0.87143 0.4042 0.87243 0.0
N833 N 0.89306 0.44334 0.88137 0.0
N834 N 0.87043 0.40314 0.84495 0.0
C835 C 0.88817 0.43566 0.84189 0.0
C836 C 0.90057 0.45731 0.86167 0.0
C837 C 0.64427 0.41172 0.09911 0.0
C838 C 0.66005 0.40516 0.12042 0.0
C839 C 0.66344 0.40317 0.07998 0.0
C840 C 0.69926 0.38758 0.08129 0.0
H841 H 0.61714 0.42445 0.09721 0.0
H842 H 0.65 0.40922 0.06404 0.0
S843 S 0.75196 0.36297 0.13329 0.0
N844 N 0.7128 0.38086 0.14187 0.0
N845 N 0.74915 0.36459 0.10589 0.0
C846 C 0.71514 0.38021 0.10256 0.0
C847 C 0.69551 0.38911 0.1221 0.0
loop_
_geom_bond_atom_site_label_1
_geom_bond_atom_site_label_2
_geom_bond_distance
_geom_bond_site_symmetry_2
_ccdc_geom_bond_type
H0 C19 0.949 . S
H1 C20 0.950 . S
H2 C22 0.950 . S
H3 C23 0.950 1_655 S
H4 C25 0.950 . S
H5 C28 0.950 . S
H6 C29 0.950 . S
H7 C31 0.951 . S
H8 C32 0.949 . S
H9 C34 0.949 . S
H10 C35 0.950 . S
H11 C37 0.950 . S
H12 C38 0.950 1_545 S
H13 C40 0.950 . S
H14 C43 0.950 . S
H15 C44 0.950 . S
H16 C46 0.951 . S
H17 C47 0.949 . S
C18 C19 1.376 . S
C18 C23 1.386 . S
C18 C24 1.483 . S
C19 H0 0.949 . S
C19 C18 1.376 . S
C19 C20 1.397 . S
C20 H1 0.950 . S
C20 C19 1.397 . S
C20 C21 1.391 1_455 S
C21 C20 1.391 1_655 S
C21 C22 1.405 . S
C22 H2 0.950 . S
C22 C21 1.405 . S
C22 C23 1.367 1_655 S
C23 H3 0.950 1_455 S
C23 C18 1.386 . S
C23 C22 1.367 1_455 S
C24 C18 1.483 . S
C24 C25 1.382 . S
C24 C26 1.403 . S
C25 H4 0.950 . S
C25 C24 1.382 . S
C25 C41 1.411 . S
C26 C24 1.403 . S
C26 C27 1.489 . S
C26 C40 1.411 . S
C27 C26 1.489 . S
C27 C28 1.383 . S
C27 C32 1.382 . S
C28 H5 0.950 . S
C28 C27 1.383 . S
C28 C29 1.395 . S
C29 H6 0.950 . S
C29 C28 1.395 . S
C29 C30 1.288 1_455 S
C30 C29 1.288 1_655 S
C30 C31 1.392 . S
C31 H7 0.951 . S
C31 C30 1.392 . S
C31 C32 1.392 1_655 S
C32 H8 0.949 . S
C32 C27 1.382 . S
C32 C31 1.392 1_455 S
C33 C34 1.376 . S
C33 C38 1.386 . S
C33 C39 1.483 1_565 S
C34 H9 0.949 . S
C34 C33 1.376 . S
C34 C35 1.397 . S
C35 H10 0.950 . S
C35 C34 1.397 . S
C35 C36 1.391 . S
C36 C35 1.391 . S
C36 C37 1.405 . S
C37 H11 0.950 . S
C37 C36 1.405 . S
C37 C38 1.367 . S
C38 H12 0.950 1_565 S
C38 C33 1.386 . S
C38 C37 1.367 . S
C39 C33 1.483 1_545 S
C39 C40 1.382 . S
C39 C41 1.403 . S
C40 H13 0.950 . S
C40 C26 1.411 . S
C40 C39 1.382 . S
C41 C25 1.411 . S
C41 C39 1.403 . S
C41 C42 1.489 1_545 S
C42 C41 1.489 1_565 S
C42 C43 1.383 . S
C42 C47 1.382 1_565 S
C43 H14 0.950 . S
C43 C42 1.383 . S
C43 C44 1.395 . S
C44 H15 0.950 . S
C44 C43 1.395 . S
C44 C45 1.288 . S
C45 C44 1.288 . S
C45 C46 1.392 1_565 S
C46 H16 0.951 . S
C46 C45 1.392 1_545 S
C46 C47 1.392 . S
C47 H17 0.949 . S
C47 C42 1.382 1_545 S
C47 C46 1.392 . S
H48 C67 0.949 . S
H49 C68 0.950 . S
H50 C70 0.950 . S
H51 C71 0.950 . S
H52 C73 0.950 . S
H53 C76 0.950 1_455 S
H54 C77 0.950 . S
H55 C79 0.951 . S
H56 C80 0.949 . S
H57 C82 0.949 . S
H58 C83 0.950 . S
H59 C85 0.950 . S
H60 C86 0.950 . S
H61 C88 0.950 . S
H62 C91 0.950 . S
H63 C92 0.950 . S
H64 C94 0.951 . S
H65 C95 0.949 . S
C66 C67 1.376 . S
C66 C71 1.386 1_455 S
C66 C72 1.483 . S
C67 H48 0.949 . S
C67 C66 1.376 . S
C67 C68 1.397 . S
C68 H49 0.950 . S
C68 C67 1.397 . S
C68 C69 1.391 1_455 S
C69 C68 1.391 1_655 S
C69 C70 1.405 . S
C70 H50 0.950 . S
C70 C69 1.405 . S
C70 C71 1.367 . S
C71 H51 0.950 . S
C71 C66 1.386 1_655 S
C71 C70 1.367 . S
C72 C66 1.483 . S
C72 C73 1.382 . S
C72 C74 1.403 . S
C73 H52 0.950 . S
C73 C72 1.382 . S
C73 C89 1.411 . S
C74 C72 1.403 . S
C74 C75 1.489 1_455 S
C74 C88 1.411 . S
C75 C74 1.489 1_655 S
C75 C76 1.383 . S
C75 C80 1.382 . S
C76 H53 0.950 1_655 S
C76 C75 1.383 . S
C76 C77 1.395 . S
C77 H54 0.950 . S
C77 C76 1.395 . S
C77 C78 1.288 . S
C78 C77 1.288 . S
C78 C79 1.392 . S
C79 H55 0.951 . S
C79 C78 1.392 . S
C79 C80 1.392 . S
C80 H56 0.949 . S
C80 C75 1.382 . S
C80 C79 1.392 . S
C81 C82 1.376 . S
C81 C86 1.386 . S
C81 C87 1.483 . S
C82 H57 0.949 . S
C82 C81 1.376 . S
C82 C83 1.397 . S
C83 H58 0.950 . S
C83 C82 1.397 . S
C83 C84 1.391 . S
C84 C83 1.391 . S
C84 C85 1.405 . S
C85 H59 0.950 . S
C85 C84 1.405 . S
C85 C86 1.367 . S
C86 H60 0.950 . S
C86 C81 1.386 . S
C86 C85 1.367 . S
C87 C81 1.483 . S
C87 C88 1.382 . S
C87 C89 1.403 . S
C88 H61 0.950 . S
C88 C74 1.411 . S
C88 C87 1.382 . S
C89 C73 1.411 . S
C89 C87 1.403 . S
C89 C90 1.489 . S
C90 C89 1.489 . S
C90 C91 1.383 . S
C90 C95 1.382 . S
C91 H62 0.950 . S
C91 C90 1.383 . S
C91 C92 1.395 . S
C92 H63 0.950 . S
C92 C91 1.395 . S
C92 C93 1.288 . S
C93 C92 1.288 . S
C93 C94 1.392 . S
C94 H64 0.951 . S
C94 C93 1.392 . S
C94 C95 1.392 . S
C95 H65 0.949 . S
C95 C90 1.382 . S
C95 C94 1.392 . S
H96 C115 0.949 . S
H97 C116 0.950 . S
H98 C118 0.950 . S
H99 C119 0.950 . S
H100 C121 0.950 . S
H101 C124 0.950 . S
H102 C125 0.950 . S
H103 C127 0.951 . S
H104 C128 0.949 . S
H105 C130 0.949 . S
H106 C131 0.950 . S
H107 C133 0.950 . S
H108 C134 0.950 . S
H109 C136 0.950 . S
H110 C139 0.950 . S
H111 C140 0.950 . S
H112 C142 0.951 . S
H113 C143 0.949 . S
C114 C115 1.376 . S
C114 C119 1.386 . S
C114 C120 1.483 . S
C115 H96 0.949 . S
C115 C114 1.376 . S
C115 C116 1.397 . S
C116 H97 0.950 . S
C116 C115 1.397 . S
C116 C117 1.391 . S
C117 C116 1.391 . S
C117 C118 1.405 . S
C118 H98 0.950 . S
C118 C117 1.405 . S
C118 C119 1.367 . S
C119 H99 0.950 . S
C119 C114 1.386 . S
C119 C118 1.367 . S
C120 C114 1.483 . S
C120 C121 1.382 . S
C120 C122 1.403 . S
C121 H100 0.950 . S
C121 C120 1.382 . S
C121 C137 1.411 . S
C122 C120 1.403 . S
C122 C123 1.489 . S
C122 C136 1.411 . S
C123 C122 1.489 . S
C123 C124 1.383 . S
C123 C128 1.382 . S
C124 H101 0.950 . S
C124 C123 1.383 . S
C124 C125 1.395 . S
C125 H102 0.950 . S
C125 C124 1.395 . S
C125 C126 1.288 . S
C126 C125 1.288 . S
C126 C127 1.392 . S
C127 H103 0.951 . S
C127 C126 1.392 . S
C127 C128 1.392 . S
C128 H104 0.949 . S
C128 C123 1.382 . S
C128 C127 1.392 . S
C129 C130 1.376 . S
C129 C134 1.386 . S
C129 C135 1.483 . S
C130 H105 0.949 . S
C130 C129 1.376 . S
C130 C131 1.397 . S
C131 H106 0.950 . S
C131 C130 1.397 . S
C131 C132 1.391 . S
C132 C131 1.391 . S
C132 C133 1.405 . S
C133 H107 0.950 . S
C133 C132 1.405 . S
C133 C134 1.367 . S
C134 H108 0.950 . S
C134 C129 1.386 . S
C134 C133 1.367 . S
C135 C129 1.483 . S
C135 C136 1.382 . S
C135 C137 1.403 . S
C136 H109 0.950 . S
C136 C122 1.411 . S
C136 C135 1.382 . S
C137 C121 1.411 . S
C137 C135 1.403 . S
C137 C138 1.489 . S
C138 C137 1.489 . S
C138 C139 1.383 . S
C138 C143 1.382 . S
C139 H110 0.950 . S
C139 C138 1.383 . S
C139 C140 1.395 . S
C140 H111 0.950 . S
C140 C139 1.395 . S
C140 C141 1.288 . S
C141 C140 1.288 . S
C141 C142 1.392 . S
C142 H112 0.951 . S
C142 C141 1.392 . S
C142 C143 1.392 . S
C143 H113 0.949 . S
C143 C138 1.382 . S
C143 C142 1.392 . S
H144 C163 0.949 . S
H145 C164 0.950 . S
H146 C166 0.950 . S
H147 C167 0.950 . S
H148 C169 0.950 . S
H149 C172 0.950 . S
H150 C173 0.950 . S
H151 C175 0.951 . S
H152 C176 0.949 . S
H153 C178 0.949 . S
H154 C179 0.950 . S
H155 C181 0.950 . S
H156 C182 0.950 . S
H157 C184 0.950 . S
H158 C187 0.950 . S
H159 C188 0.950 . S
H160 C190 0.951 . S
H161 C191 0.949 . S
C162 C163 1.376 . S
C162 C167 1.386 . S
C162 C168 1.483 . S
C163 H144 0.949 . S
C163 C162 1.376 . S
C163 C164 1.397 . S
C164 H145 0.950 . S
C164 C163 1.397 . S
C164 C165 1.391 . S
C165 C164 1.391 . S
C165 C166 1.405 . S
C166 H146 0.950 . S
C166 C165 1.405 . S
C166 C167 1.367 . S
C167 H147 0.950 . S
C167 C162 1.386 . S
C167 C166 1.367 . S
C168 C162 1.483 . S
C168 C169 1.382 . S
C168 C170 1.403 . S
C169 H148 0.950 . S
C169 C168 1.382 . S
C169 C185 1.411 1_565 S
C170 C168 1.403 . S
C170 C171 1.489 . S
C170 C184 1.411 1_565 S
C171 C170 1.489 . S
C171 C172 1.383 . S
C171 C176 1.382 . S
C172 H149 0.950 . S
C172 C171 1.383 . S
C172 C173 1.395 . S
C173 H150 0.950 . S
C173 C172 1.395 . S
C173 C174 1.288 . S
C174 C173 1.288 . S
C174 C175 1.392 . S
C175 H151 0.951 . S
C175 C174 1.392 . S
C175 C176 1.392 . S
C176 H152 0.949 . S
C176 C171 1.382 . S
C176 C175 1.392 . S
C177 C178 1.376 . S
C177 C182 1.386 . S
C177 C183 1.483 . S
C178 H153 0.949 . S
C178 C177 1.376 . S
C178 C179 1.397 . S
C179 H154 0.950 . S
C179 C178 1.397 . S
C179 C180 1.391 . S
C180 C179 1.391 . S
C180 C181 1.405 . S
C181 H155 0.950 . S
C181 C180 1.405 . S
C181 C182 1.367 . S
C182 H156 0.950 . S
C182 C177 1.386 . S
C182 C181 1.367 . S
C183 C177 1.483 . S
C183 C184 1.382 . S
C183 C185 1.403 . S
C184 H157 0.950 . S
C184 C170 1.411 1_545 S
C184 C183 1.382 . S
C185 C169 1.411 1_545 S
C185 C183 1.403 . S
C185 C186 1.489 . S
C186 C185 1.489 . S
C186 C187 1.383 . S
C186 C191 1.382 . S
C187 H158 0.950 . S
C187 C186 1.383 . S
C187 C188 1.395 . S
C188 H159 0.950 . S
C188 C187 1.395 . S
C188 C189 1.288 . S
C189 C188 1.288 . S
C189 C190 1.392 . S
C190 H160 0.951 . S
C190 C189 1.392 . S
C190 C191 1.392 . S
C191 H161 0.949 . S
C191 C186 1.382 . S
C191 C190 1.392 . S
H192 C211 0.949 . S
H193 C212 0.950 . S
H194 C214 0.950 . S
H195 C215 0.950 . S
H196 C217 0.950 . S
H197 C220 0.950 . S
H198 C221 0.950 1_554 S
H199 C223 0.951 . S
H200 C224 0.949 . S
H201 C226 0.949 . S
H202 C227 0.950 . S
H203 C229 0.950 . S
H204 C230 0.950 . S
H205 C232 0.950 . S
H206 C235 0.950 . S
H207 C236 0.950 . S
H208 C238 0.951 . S
H209 C239 0.949 . S
C210 C211 1.376 . S
C210 C215 1.386 . S
C210 C216 1.483 . S
C211 H192 0.949 . S
C211 C210 1.376 . S
C211 C212 1.397 . S
C212 H193 0.950 . S
C212 C211 1.397 . S
C212 C213 1.391 . S
C213 C212 1.391 . S
C213 C214 1.405 . S
C214 H194 0.950 . S
C214 C213 1.405 . S
C214 C215 1.367 . S
C215 H195 0.950 . S
C215 C210 1.386 . S
C215 C214 1.367 . S
C216 C210 1.483 . S
C216 C217 1.382 1_455 S
C216 C218 1.403 . S
C217 H196 0.950 . S
C217 C216 1.382 1_655 S
C217 C233 1.411 . S
C218 C216 1.403 . S
C218 C219 1.489 . S
C218 C232 1.411 . S
C219 C218 1.489 . S
C219 C220 1.383 . S
C219 C224 1.382 . S
C220 H197 0.950 . S
C220 C219 1.383 . S
C220 C221 1.395 . S
C221 H198 0.950 1_556 S
C221 C220 1.395 . S
C221 C222 1.288 1_556 S
C222 C221 1.288 1_554 S
C222 C223 1.392 . S
C223 H199 0.951 . S
C223 C222 1.392 . S
C223 C224 1.392 1_554 S
C224 H200 0.949 . S
C224 C219 1.382 . S
C224 C223 1.392 1_556 S
C225 C226 1.376 . S
C225 C230 1.386 . S
C225 C231 1.483 . S
C226 H201 0.949 . S
C226 C225 1.376 . S
C226 C227 1.397 . S
C227 H202 0.950 . S
C227 C226 1.397 . S
C227 C228 1.391 . S
C228 C227 1.391 . S
C228 C229 1.405 . S
C229 H203 0.950 . S
C229 C228 1.405 . S
C229 C230 1.367 . S
C230 H204 0.950 . S
C230 C225 1.386 . S
C230 C229 1.367 . S
C231 C225 1.483 . S
C231 C232 1.382 1_655 S
C231 C233 1.403 . S
C232 H205 0.950 . S
C232 C218 1.411 . S
C232 C231 1.382 1_455 S
C233 C217 1.411 . S
C233 C231 1.403 . S
C233 C234 1.489 . S
C234 C233 1.489 . S
C234 C235 1.383 . S
C234 C239 1.382 . S
C235 H206 0.950 . S
C235 C234 1.383 . S
C235 C236 1.395 . S
C236 H207 0.950 . S
C236 C235 1.395 . S
C236 C237 1.288 . S
C237 C236 1.288 . S
C237 C238 1.392 . S
C238 H208 0.951 . S
C238 C237 1.392 . S
C238 C239 1.392 . S
C239 H209 0.949 . S
C239 C234 1.382 . S
C239 C238 1.392 . S
H240 C259 0.949 . S
H241 C260 0.950 . S
H242 C262 0.950 . S
H243 C263 0.950 . S
H244 C265 0.950 . S
H245 C268 0.950 . S
H246 C269 0.950 . S
H247 C271 0.951 . S
H248 C272 0.949 . S
H249 C274 0.949 . S
H250 C275 0.950 . S
H251 C277 0.950 . S
H252 C278 0.950 . S
H253 C280 0.950 . S
H254 C283 0.950 . S
H255 C284 0.950 . S
H256 C286 0.951 . S
H257 C287 0.949 . S
C258 C259 1.376 . S
C258 C263 1.386 . S
C258 C264 1.483 . S
C259 H240 0.949 . S
C259 C258 1.376 . S
C259 C260 1.397 . S
C260 H241 0.950 . S
C260 C259 1.397 . S
C260 C261 1.391 . S
C261 C260 1.391 . S
C261 C262 1.405 . S
C262 H242 0.950 . S
C262 C261 1.405 . S
C262 C263 1.367 . S
C263 H243 0.950 . S
C263 C258 1.386 . S
C263 C262 1.367 . S
C264 C258 1.483 . S
C264 C265 1.382 . S
C264 C266 1.403 . S
C265 H244 0.950 . S
C265 C264 1.382 . S
C265 C281 1.411 . S
C266 C264 1.403 . S
C266 C267 1.489 . S
C266 C280 1.411 . S
C267 C266 1.489 . S
C267 C268 1.383 . S
C267 C272 1.382 . S
C268 H245 0.950 . S
C268 C267 1.383 . S
C268 C269 1.395 . S
C269 H246 0.950 . S
C269 C268 1.395 . S
C269 C270 1.288 . S
C270 C269 1.288 . S
C270 C271 1.392 . S
C271 H247 0.951 . S
C271 C270 1.392 . S
C271 C272 1.392 . S
C272 H248 0.949 . S
C272 C267 1.382 . S
C272 C271 1.392 . S
C273 C274 1.376 . S
C273 C278 1.386 . S
C273 C279 1.483 . S
C274 H249 0.949 . S
C274 C273 1.376 . S
C274 C275 1.397 . S
C275 H250 0.950 . S
C275 C274 1.397 . S
C275 C276 1.391 . S
C276 C275 1.391 . S
C276 C277 1.405 . S
C277 H251 0.950 . S
C277 C276 1.405 . S
C277 C278 1.367 . S
C278 H252 0.950 . S
C278 C273 1.386 . S
C278 C277 1.367 . S
C279 C273 1.483 . S
C279 C280 1.382 . S
C279 C281 1.403 . S
C280 H253 0.950 . S
C280 C266 1.411 . S
C280 C279 1.382 . S
C281 C265 1.411 . S
C281 C279 1.403 . S
C281 C282 1.489 . S
C282 C281 1.489 . S
C282 C283 1.383 . S
C282 C287 1.382 . S
C283 H254 0.950 . S
C283 C282 1.383 . S
C283 C284 1.395 . S
C284 H255 0.950 . S
C284 C283 1.395 . S
C284 C285 1.288 . S
C285 C284 1.288 . S
C285 C286 1.392 . S
C286 H256 0.951 . S
C286 C285 1.392 . S
C286 C287 1.392 . S
C287 H257 0.949 . S
C287 C282 1.382 . S
C287 C286 1.392 . S
H288 C307 0.949 . S
H289 C308 0.950 . S
H290 C310 0.950 . S
H291 C311 0.955 . S
H292 C313 0.950 . S
H293 C316 0.950 . S
H294 C317 0.950 . S
H295 C319 0.965 . S
H296 C320 0.949 . S
H297 C322 0.949 . S
H298 C323 0.950 . S
H299 C325 0.950 . S
H300 C326 0.950 . S
H301 C328 0.950 . S
H302 C331 0.950 . S
H303 C332 0.950 . S
H304 C334 0.951 . S
H305 C335 0.949 . S
C306 C307 1.376 . S
C306 C311 1.386 . S
C306 C312 1.483 . S
C307 H288 0.949 . S
C307 C306 1.376 . S
C307 C308 1.397 . S
C308 H289 0.950 . S
C308 C307 1.397 . S
C308 C309 1.391 . S
C309 C308 1.391 . S
C309 C310 1.405 . S
C310 H290 0.950 . S
C310 C309 1.405 . S
C310 C311 1.367 . S
C311 H291 0.955 . S
C311 C306 1.386 . S
C311 C310 1.367 . S
C312 C306 1.483 . S
C312 C313 1.382 1_565 S
C312 C314 1.403 1_565 S
C313 H292 0.950 . S
C313 C312 1.382 1_545 S
C313 C329 1.411 . S
C314 C312 1.403 1_545 S
C314 C315 1.489 1_545 S
C314 C328 1.411 . S
C315 C314 1.489 1_565 S
C315 C316 1.383 . S
C315 C320 1.382 1_565 S
C316 H293 0.950 . S
C316 C315 1.383 . S
C316 C317 1.395 . S
C317 H294 0.950 . S
C317 C316 1.395 . S
C317 C318 1.288 . S
C318 C317 1.288 . S
C318 C319 1.366 1_565 S
C319 H295 0.965 . S
C319 C318 1.366 1_545 S
C319 C320 1.404 . S
C320 H296 0.949 . S
C320 C315 1.382 1_545 S
C320 C319 1.404 . S
C321 C322 1.376 . S
C321 C326 1.386 . S
C321 C327 1.483 . S
C322 H297 0.949 . S
C322 C321 1.376 . S
C322 C323 1.397 . S
C323 H298 0.950 . S
C323 C322 1.397 . S
C323 C324 1.391 . S
C324 C323 1.391 . S
C324 C325 1.405 . S
C325 H299 0.950 . S
C325 C324 1.405 . S
C325 C326 1.367 . S
C326 H300 0.950 . S
C326 C321 1.386 . S
C326 C325 1.367 . S
C327 C321 1.483 . S
C327 C328 1.382 . S
C327 C329 1.403 . S
C328 H301 0.950 . S
C328 C314 1.411 . S
C328 C327 1.382 . S
C329 C313 1.411 . S
C329 C327 1.403 . S
C329 C330 1.489 . S
C330 C329 1.489 . S
C330 C331 1.383 . S
C330 C335 1.382 . S
C331 H302 0.950 . S
C331 C330 1.383 . S
C331 C332 1.395 . S
C332 H303 0.950 . S
C332 C331 1.395 . S
C332 C333 1.288 . S
C333 C332 1.288 . S
C333 C334 1.392 . S
C334 H304 0.951 . S
C334 C333 1.392 . S
C334 C335 1.392 . S
C335 H305 0.949 . S
C335 C330 1.382 . S
C335 C334 1.392 . S
H336 C355 0.949 . S
H337 C356 0.950 . S
H338 C358 0.950 . S
H339 C359 0.945 1_655 S
H340 C361 0.950 . S
H341 C364 0.950 . S
H342 C365 0.950 . S
H343 C367 0.951 1_655 S
H344 C368 0.949 . S
H345 C370 0.949 . S
H346 C371 0.950 . S
H347 C373 0.950 . S
H348 C374 0.950 . S
H349 C376 0.950 . S
H350 C379 0.950 . S
H351 C380 0.950 . S
H352 C382 0.951 . S
H353 C383 0.949 . S
C354 C355 1.376 . S
C354 C359 1.403 . S
C354 C360 1.483 . S
C355 H336 0.949 . S
C355 C354 1.376 . S
C355 C356 1.397 . S
C356 H337 0.950 . S
C356 C355 1.397 . S
C356 C357 1.391 1_455 S
C357 C356 1.391 1_655 S
C357 C358 1.405 . S
C358 H338 0.950 . S
C358 C357 1.405 . S
C358 C359 1.356 1_655 S
C359 H339 0.945 1_455 S
C359 C354 1.403 . S
C359 C358 1.356 1_455 S
C360 C354 1.483 . S
C360 C361 1.382 . S
C360 C362 1.403 . S
C361 H340 0.950 . S
C361 C360 1.382 . S
C361 C377 1.411 . S
C362 C360 1.403 . S
C362 C363 1.489 . S
C362 C376 1.411 . S
C363 C362 1.489 . S
C363 C364 1.383 . S
C363 C368 1.382 . S
C364 H341 0.950 . S
C364 C363 1.383 . S
C364 C365 1.395 . S
C365 H342 0.950 . S
C365 C364 1.395 . S
C365 C366 1.288 . S
C366 C365 1.288 . S
C366 C367 1.392 . S
C367 H343 0.951 1_455 S
C367 C366 1.392 . S
C367 C368 1.392 . S
C368 H344 0.949 . S
C368 C363 1.382 . S
C368 C367 1.392 . S
C369 C370 1.376 . S
C369 C374 1.386 . S
C369 C375 1.483 . S
C370 H345 0.949 . S
C370 C369 1.376 . S
C370 C371 1.397 . S
C371 H346 0.950 . S
C371 C370 1.397 . S
C371 C372 1.391 . S
C372 C371 1.391 . S
C372 C373 1.405 . S
C373 H347 0.950 . S
C373 C372 1.405 . S
C373 C374 1.367 . S
C374 H348 0.950 . S
C374 C369 1.386 . S
C374 C373 1.367 . S
C375 C369 1.483 . S
C375 C376 1.382 . S
C375 C377 1.403 . S
C376 H349 0.950 . S
C376 C362 1.411 . S
C376 C375 1.382 . S
C377 C361 1.411 . S
C377 C375 1.403 . S
C377 C378 1.489 . S
C378 C377 1.489 . S
C378 C379 1.383 . S
C378 C383 1.382 . S
C379 H350 0.950 . S
C379 C378 1.383 . S
C379 C380 1.395 . S
C380 H351 0.950 . S
C380 C379 1.395 . S
C380 C381 1.288 . S
C381 C380 1.288 . S
C381 C382 1.392 . S
C382 H352 0.951 . S
C382 C381 1.392 . S
C382 C383 1.392 . S
C383 H353 0.949 . S
C383 C378 1.382 . S
C383 C382 1.392 . S
O384 Cd385 2.223 1_556 S
O384 C392 1.315 . S
Cd385 O384 2.223 1_554 S
Cd385 O388 2.297 . S
Cd385 O389 2.439 . S
Cd385 O395 2.240 . S
Cd386 O387 2.240 . S
Cd386 O394 2.223 . S
Cd386 O396 2.297 . S
Cd386 O397 2.439 . S
O387 Cd386 2.240 . S
O387 C392 1.279 1_554 S
O388 Cd385 2.297 . S
O388 C390 1.247 . S
O389 Cd385 2.439 . S
O389 C390 1.208 . S
C390 O388 1.247 . S
C390 O389 1.208 . S
C391 O396 1.247 . S
C391 O397 1.208 . S
C392 O384 1.315 . S
C392 O387 1.279 1_556 S
C393 O394 1.315 . S
C393 O395 1.279 . S
O394 Cd386 2.223 . S
O394 C393 1.315 . S
O395 Cd385 2.240 . S
O395 C393 1.279 . S
O396 Cd386 2.297 . S
O396 C391 1.247 . S
O397 Cd386 2.439 . S
O397 C391 1.208 . S
O398 Cd399 2.223 . S
O398 C406 1.315 . S
Cd399 O398 2.223 . S
Cd399 O402 2.297 . S
Cd399 O403 2.439 . S
Cd399 O409 2.240 . S
Cd400 O401 2.240 . S
Cd400 O408 2.223 . S
Cd400 O410 2.297 . S
Cd400 O411 2.439 . S
O401 Cd400 2.240 . S
O401 C406 1.279 . S
O402 Cd399 2.297 . S
O402 C404 1.247 . S
O403 Cd399 2.439 . S
O403 C404 1.208 . S
C404 O402 1.247 . S
C404 O403 1.208 . S
C405 O410 1.247 . S
C405 O411 1.208 . S
C406 O398 1.315 . S
C406 O401 1.279 . S
C407 O408 1.315 . S
C407 O409 1.279 . S
O408 Cd400 2.223 . S
O408 C407 1.315 . S
O409 Cd399 2.240 . S
O409 C407 1.279 . S
O410 Cd400 2.297 . S
O410 C405 1.247 . S
O411 Cd400 2.439 . S
O411 C405 1.208 . S
O412 Cd413 2.223 . S
O412 C420 1.315 . S
Cd413 O412 2.223 . S
Cd413 O416 2.297 . S
Cd413 O417 2.439 . S
Cd413 O423 2.240 . S
Cd414 O415 2.240 . S
Cd414 O422 2.223 . S
Cd414 O424 2.297 . S
Cd414 O425 2.439 . S
O415 Cd414 2.240 . S
O415 C420 1.279 . S
O416 Cd413 2.297 . S
O416 C418 1.247 . S
O417 Cd413 2.439 . S
O417 C418 1.208 . S
C418 O416 1.247 . S
C418 O417 1.208 . S
C419 O424 1.247 . S
C419 O425 1.208 . S
C420 O412 1.315 . S
C420 O415 1.279 . S
C421 O422 1.315 . S
C421 O423 1.279 . S
O422 Cd414 2.223 . S
O422 C421 1.315 . S
O423 Cd413 2.240 . S
O423 C421 1.279 . S
O424 Cd414 2.297 . S
O424 C419 1.247 . S
O425 Cd414 2.439 . S
O425 C419 1.208 . S
O426 Cd427 2.223 . S
O426 C434 1.315 . S
Cd427 O426 2.223 . S
Cd427 O430 2.297 . S
Cd427 O431 2.439 . S
Cd427 O437 2.240 . S
Cd428 O429 2.240 . S
Cd428 O436 2.223 . S
Cd428 O438 2.297 . S
Cd428 O439 2.439 . S
O429 Cd428 2.240 . S
O429 C434 1.279 . S
O430 Cd427 2.297 . S
O430 C432 1.247 . S
O431 Cd427 2.439 . S
O431 C432 1.208 . S
C432 O430 1.247 . S
C432 O431 1.208 . S
C433 O438 1.247 . S
C433 O439 1.208 . S
C434 O426 1.315 . S
C434 O429 1.279 . S
C435 O436 1.315 . S
C435 O437 1.279 . S
O436 Cd428 2.223 . S
O436 C435 1.315 . S
O437 Cd427 2.240 . S
O437 C435 1.279 . S
O438 Cd428 2.297 . S
O438 C433 1.247 . S
O439 Cd428 2.439 . S
O439 C433 1.208 . S
O440 Cd441 2.223 . S
O440 C448 1.315 . S
Cd441 O440 2.223 . S
Cd441 O444 2.297 . S
Cd441 O445 2.439 . S
Cd441 O451 2.240 . S
Cd442 O443 2.240 . S
Cd442 O450 2.223 . S
Cd442 O452 2.297 . S
Cd442 O453 2.439 . S
O443 Cd442 2.240 . S
O443 C448 1.279 . S
O444 Cd441 2.297 . S
O444 C446 1.247 . S
O445 Cd441 2.439 . S
O445 C446 1.208 . S
C446 O444 1.247 . S
C446 O445 1.208 . S
C447 O452 1.247 . S
C447 O453 1.208 . S
C448 O440 1.315 . S
C448 O443 1.279 . S
C449 O450 1.315 . S
C449 O451 1.279 . S
O450 Cd442 2.223 . S
O450 C449 1.315 . S
O451 Cd441 2.240 . S
O451 C449 1.279 . S
O452 Cd442 2.297 . S
O452 C447 1.247 . S
O453 Cd442 2.439 . S
O453 C447 1.208 . S
O454 Cd455 2.223 . S
O454 C462 1.315 . S
Cd455 O454 2.223 . S
Cd455 O458 2.297 . S
Cd455 O459 2.439 . S
Cd455 O465 2.240 . S
Cd456 O457 2.240 . S
Cd456 O464 2.223 . S
Cd456 O466 2.297 . S
Cd456 O467 2.439 . S
O457 Cd456 2.240 . S
O457 C462 1.279 . S
O458 Cd455 2.297 . S
O458 C460 1.247 . S
O459 Cd455 2.439 . S
O459 C460 1.208 . S
C460 O458 1.247 . S
C460 O459 1.208 . S
C461 O466 1.247 . S
C461 O467 1.208 . S
C462 O454 1.315 . S
C462 O457 1.279 . S
C463 O464 1.315 . S
C463 O465 1.279 . S
O464 Cd456 2.223 . S
O464 C463 1.315 . S
O465 Cd455 2.240 . S
O465 C463 1.279 . S
O466 Cd456 2.297 . S
O466 C461 1.247 . S
O467 Cd456 2.439 . S
O467 C461 1.208 . S
O468 Cd469 2.223 . S
O468 C476 1.315 . S
Cd469 O468 2.223 . S
Cd469 O472 2.297 . S
Cd469 O473 2.439 . S
Cd469 O479 2.240 1_554 S
Cd470 O471 2.240 1_556 S
Cd470 O478 2.223 . S
Cd470 O480 2.297 . S
Cd470 O481 2.439 . S
O471 Cd470 2.240 1_554 S
O471 C476 1.279 . S
O472 Cd469 2.297 . S
O472 C474 1.247 . S
O473 Cd469 2.439 . S
O473 C474 1.208 . S
C474 O472 1.247 . S
C474 O473 1.208 . S
C475 O480 1.247 . S
C475 O481 1.208 . S
C476 O468 1.315 . S
C476 O471 1.279 . S
C477 O478 1.315 . S
C477 O479 1.279 . S
O478 Cd470 2.223 . S
O478 C477 1.315 . S
O479 Cd469 2.240 1_556 S
O479 C477 1.279 . S
O480 Cd470 2.297 . S
O480 C475 1.247 . S
O481 Cd470 2.439 . S
O481 C475 1.208 . S
O482 Cd483 2.223 . S
O482 C490 1.315 . S
Cd483 O482 2.223 . S
Cd483 O486 2.297 . S
Cd483 O487 2.439 . S
Cd483 O493 2.240 . S
Cd484 O485 2.240 . S
Cd484 O492 2.223 . S
Cd484 O494 2.297 . S
Cd484 O495 2.439 . S
O485 Cd484 2.240 . S
O485 C490 1.279 . S
O486 Cd483 2.297 . S
O486 C488 1.247 . S
O487 Cd483 2.439 . S
O487 C488 1.208 . S
C488 O486 1.247 . S
C488 O487 1.208 . S
C489 O494 1.247 . S
C489 O495 1.208 . S
C490 O482 1.315 . S
C490 O485 1.279 . S
C491 O492 1.315 . S
C491 O493 1.279 . S
O492 Cd484 2.223 . S
O492 C491 1.315 . S
O493 Cd483 2.240 . S
O493 C491 1.279 . S
O494 Cd484 2.297 . S
O494 C489 1.247 . S
O495 Cd484 2.439 . S
O495 C489 1.208 . S
C496 C497 1.369 . S
C496 C498 1.419 . S
C496 H500 0.930 . S
C497 C496 1.369 . S
C497 C506 1.429 . S
C498 C496 1.419 . S
C498 C499 1.363 . S
C498 H501 0.929 . S
C499 C498 1.363 . S
C499 C505 1.428 . S
H500 C496 0.930 . S
H501 C498 0.929 . S
S502 N503 1.613 . S
S502 N504 1.610 . S
N503 S502 1.613 . S
N503 C506 1.350 . S
N504 S502 1.610 . S
N504 C505 1.351 . S
C505 C499 1.428 . S
C505 N504 1.351 . S
C505 C506 1.434 . S
C506 C497 1.429 . S
C506 N503 1.350 . S
C506 C505 1.434 . S
C507 C508 1.369 . S
C507 C509 1.419 . S
C507 H511 0.930 . S
C508 C507 1.369 . S
C508 C517 1.429 . S
C509 C507 1.419 . S
C509 C510 1.363 . S
C509 H512 0.929 . S
C510 C509 1.363 . S
C510 C516 1.428 . S
H511 C507 0.930 . S
H512 C509 0.929 . S
S513 N514 1.613 . S
S513 N515 1.610 . S
N514 S513 1.613 . S
N514 C517 1.350 . S
N515 S513 1.610 . S
N515 C516 1.351 . S
C516 C510 1.428 . S
C516 N515 1.351 . S
C516 C517 1.434 . S
C517 C508 1.429 . S
C517 N514 1.350 . S
C517 C516 1.434 . S
C518 C519 1.369 . S
C518 C520 1.419 . S
C518 H522 0.930 . S
C519 C518 1.369 . S
C519 C528 1.429 . S
C520 C518 1.419 . S
C520 C521 1.363 . S
C520 H523 0.929 . S
C521 C520 1.363 . S
C521 C527 1.428 . S
H522 C518 0.930 . S
H523 C520 0.929 . S
S524 N525 1.613 . S
S524 N526 1.610 . S
N525 S524 1.613 . S
N525 C528 1.350 . S
N526 S524 1.610 . S
N526 C527 1.351 . S
C527 C521 1.428 . S
C527 N526 1.351 . S
C527 C528 1.434 . S
C528 C519 1.429 . S
C528 N525 1.350 . S
C528 C527 1.434 . S
C529 C530 1.369 . S
C529 C531 1.419 . S
C529 H533 0.930 . S
C530 C529 1.369 . S
C530 C539 1.429 . S
C531 C529 1.419 . S
C531 C532 1.363 . S
C531 H534 0.929 . S
C532 C531 1.363 . S
C532 C538 1.428 . S
H533 C529 0.930 . S
H534 C531 0.929 . S
S535 N536 1.613 1_556 S
S535 N537 1.610 1_556 S
N536 S535 1.613 1_554 S
N536 C539 1.350 . S
N537 S535 1.610 1_554 S
N537 C538 1.351 . S
C538 C532 1.428 . S
C538 N537 1.351 . S
C538 C539 1.434 . S
C539 C530 1.429 . S
C539 N536 1.350 . S
C539 C538 1.434 . S
C540 C541 1.369 . S
C540 C542 1.419 . S
C540 H544 0.930 . S
C541 C540 1.369 . S
C541 C550 1.429 . S
C542 C540 1.419 . S
C542 C543 1.363 . S
C542 H545 0.929 . S
C543 C542 1.363 . S
C543 C549 1.428 . S
H544 C540 0.930 . S
H545 C542 0.929 . S
S546 N547 1.613 . S
S546 N548 1.610 . S
N547 S546 1.613 . S
N547 C550 1.350 1_556 S
N548 S546 1.610 . S
N548 C549 1.351 1_556 S
C549 C543 1.428 . S
C549 N548 1.351 1_554 S
C549 C550 1.434 . S
C550 C541 1.429 . S
C550 N547 1.350 1_554 S
C550 C549 1.434 . S
C551 C552 1.369 . S
C551 C553 1.419 . S
C551 H555 0.930 . S
C552 C551 1.369 . S
C552 C561 1.429 . S
C553 C551 1.419 . S
C553 C554 1.363 . S
C553 H556 0.929 . S
C554 C553 1.363 . S
C554 C560 1.428 . S
H555 C551 0.930 . S
H556 C553 0.929 . S
S557 N558 1.613 . S
S557 N559 1.610 . S
N558 S557 1.613 . S
N558 C561 1.350 . S
N559 S557 1.610 . S
N559 C560 1.351 . S
C560 C554 1.428 . S
C560 N559 1.351 . S
C560 C561 1.434 . S
C561 C552 1.429 . S
C561 N558 1.350 . S
C561 C560 1.434 . S
C562 C563 1.369 . S
C562 C564 1.419 . S
C562 H566 0.930 . S
C563 C562 1.369 . S
C563 C572 1.429 . S
C564 C562 1.419 . S
C564 C565 1.363 . S
C564 H567 0.929 . S
C565 C564 1.363 . S
C565 C571 1.428 . S
H566 C562 0.930 . S
H567 C564 0.929 . S
S568 N569 1.613 . S
S568 N570 1.610 . S
N569 S568 1.613 . S
N569 C572 1.350 . S
N570 S568 1.610 . S
N570 C571 1.351 . S
C571 C565 1.428 . S
C571 N570 1.351 . S
C571 C572 1.434 . S
C572 C563 1.429 . S
C572 N569 1.350 . S
C572 C571 1.434 . S
C573 C574 1.369 1_565 S
C573 C575 1.419 . S
C573 H577 0.926 1_565 S
C574 C573 1.369 1_545 S
C574 C583 1.429 . S
C575 C573 1.419 . S
C575 C576 1.363 . S
C575 H578 0.929 . S
C576 C575 1.363 . S
C576 C582 1.428 . S
H577 C573 0.926 1_545 S
H578 C575 0.929 . S
S579 N580 1.613 . S
S579 N581 1.610 1_545 S
N580 S579 1.613 . S
N580 C583 1.350 . S
N581 S579 1.610 1_565 S
N581 C582 1.351 . S
C582 C576 1.428 . S
C582 N581 1.351 . S
C582 C583 1.434 1_565 S
C583 C574 1.429 . S
C583 N580 1.350 . S
C583 C582 1.434 1_545 S
C584 C585 1.369 . S
C584 C586 1.419 . S
C584 H588 0.930 . S
C585 C584 1.369 . S
C585 C594 1.429 . S
C586 C584 1.419 . S
C586 C587 1.363 . S
C586 H589 0.929 . S
C587 C586 1.363 . S
C587 C593 1.428 . S
H588 C584 0.930 . S
H589 C586 0.929 . S
S590 N591 1.613 . S
S590 N592 1.610 . S
N591 S590 1.613 . S
N591 C594 1.350 . S
N592 S590 1.610 . S
N592 C593 1.351 . S
C593 C587 1.428 . S
C593 N592 1.351 . S
C593 C594 1.434 . S
C594 C585 1.429 . S
C594 N591 1.350 . S
C594 C593 1.434 . S
C595 C596 1.369 . S
C595 C597 1.419 . S
C595 H599 0.930 . S
C596 C595 1.369 . S
C596 C605 1.429 . S
C597 C595 1.419 . S
C597 C598 1.363 . S
C597 H600 0.929 . S
C598 C597 1.363 . S
C598 C604 1.428 . S
H599 C595 0.930 . S
H600 C597 0.929 . S
S601 N602 1.613 . S
S601 N603 1.610 . S
N602 S601 1.613 . S
N602 C605 1.350 . S
N603 S601 1.610 . S
N603 C604 1.351 . S
C604 C598 1.428 . S
C604 N603 1.351 . S
C604 C605 1.434 . S
C605 C596 1.429 . S
C605 N602 1.350 . S
C605 C604 1.434 . S
C606 C607 1.369 . S
C606 C608 1.419 . S
C606 H610 0.930 . S
C607 C606 1.369 . S
C607 C616 1.429 . S
C608 C606 1.419 . S
C608 C609 1.363 . S
C608 H611 0.929 . S
C609 C608 1.363 . S
C609 C615 1.428 . S
H610 C606 0.930 . S
H611 C608 0.929 . S
S612 N613 1.613 . S
S612 N614 1.610 . S
N613 S612 1.613 . S
N613 C616 1.350 . S
N614 S612 1.610 . S
N614 C615 1.351 . S
C615 C609 1.428 . S
C615 N614 1.351 . S
C615 C616 1.434 . S
C616 C607 1.429 . S
C616 N613 1.350 . S
C616 C615 1.434 . S
C617 C618 1.369 . S
C617 C619 1.419 . S
C617 H621 0.930 . S
C618 C617 1.369 . S
C618 C627 1.429 . S
C619 C617 1.419 . S
C619 C620 1.363 . S
C619 H622 0.929 . S
C620 C619 1.363 . S
C620 C626 1.428 . S
H621 C617 0.930 . S
H622 C619 0.929 . S
S623 N624 1.613 . S
S623 N625 1.610 . S
N624 S623 1.613 . S
N624 C627 1.350 . S
N625 S623 1.610 . S
N625 C626 1.351 . S
C626 C620 1.428 . S
C626 N625 1.351 . S
C626 C627 1.434 . S
C627 C618 1.429 . S
C627 N624 1.350 . S
C627 C626 1.434 . S
C628 C629 1.369 . S
C628 C630 1.419 . S
C628 H632 0.930 . S
C629 C628 1.369 . S
C629 C638 1.429 . S
C630 C628 1.419 . S
C630 C631 1.363 . S
C630 H633 0.929 . S
C631 C630 1.363 . S
C631 C637 1.428 . S
H632 C628 0.930 . S
H633 C630 0.929 . S
S634 N635 1.613 . S
S634 N636 1.610 . S
N635 S634 1.613 . S
N635 C638 1.350 . S
N636 S634 1.610 . S
N636 C637 1.351 . S
C637 C631 1.428 . S
C637 N636 1.351 . S
C637 C638 1.434 . S
C638 C629 1.429 . S
C638 N635 1.350 . S
C638 C637 1.434 . S
C639 C640 1.369 . S
C639 C641 1.419 . S
C639 H643 0.930 . S
C640 C639 1.369 . S
C640 C649 1.429 . S
C641 C639 1.419 . S
C641 C642 1.363 . S
C641 H644 0.929 . S
C642 C641 1.363 . S
C642 C648 1.428 . S
H643 C639 0.930 . S
H644 C641 0.929 . S
S645 N646 1.613 . S
S645 N647 1.610 . S
N646 S645 1.613 . S
N646 C649 1.350 . S
N647 S645 1.610 . S
N647 C648 1.351 . S
C648 C642 1.428 . S
C648 N647 1.351 . S
C648 C649 1.434 . S
C649 C640 1.429 . S
C649 N646 1.350 . S
C649 C648 1.434 . S
C650 C651 1.369 . S
C650 C652 1.419 . S
C650 H654 0.930 . S
C651 C650 1.369 . S
C651 C660 1.429 . S
C652 C650 1.419 . S
C652 C653 1.363 . S
C652 H655 0.929 . S
C653 C652 1.363 . S
C653 C659 1.428 . S
H654 C650 0.930 . S
H655 C652 0.929 . S
S656 N657 1.613 . S
S656 N658 1.610 . S
N657 S656 1.613 . S
N657 C660 1.350 . S
N658 S656 1.610 . S
N658 C659 1.351 . S
C659 C653 1.428 . S
C659 N658 1.351 . S
C659 C660 1.434 . S
C660 C651 1.429 . S
C660 N657 1.350 . S
C660 C659 1.434 . S
C661 C662 1.369 . S
C661 C663 1.419 . S
C661 H665 0.930 . S
C662 C661 1.369 . S
C662 C671 1.429 . S
C663 C661 1.419 . S
C663 C664 1.363 . S
C663 H666 0.929 . S
C664 C663 1.363 . S
C664 C670 1.428 . S
H665 C661 0.930 . S
H666 C663 0.929 . S
S667 N668 1.613 . S
S667 N669 1.610 . S
N668 S667 1.613 . S
N668 C671 1.350 . S
N669 S667 1.610 . S
N669 C670 1.351 . S
C670 C664 1.428 . S
C670 N669 1.351 . S
C670 C671 1.434 . S
C671 C662 1.429 . S
C671 N668 1.350 . S
C671 C670 1.434 . S
C672 C673 1.369 . S
C672 C674 1.419 . S
C672 H676 0.930 . S
C673 C672 1.369 . S
C673 C682 1.429 . S
C674 C672 1.419 . S
C674 C675 1.363 . S
C674 H677 0.929 . S
C675 C674 1.363 . S
C675 C681 1.428 . S
H676 C672 0.930 . S
H677 C674 0.929 . S
S678 N679 1.613 . S
S678 N680 1.610 . S
N679 S678 1.613 . S
N679 C682 1.350 . S
N680 S678 1.610 . S
N680 C681 1.351 . S
C681 C675 1.428 . S
C681 N680 1.351 . S
C681 C682 1.434 . S
C682 C673 1.429 . S
C682 N679 1.350 . S
C682 C681 1.434 . S
C683 C684 1.369 . S
C683 C685 1.419 . S
C683 H687 0.930 . S
C684 C683 1.369 . S
C684 C693 1.429 . S
C685 C683 1.419 . S
C685 C686 1.363 . S
C685 H688 0.929 . S
C686 C685 1.363 . S
C686 C692 1.428 . S
H687 C683 0.930 . S
H688 C685 0.929 . S
S689 N690 1.613 . S
S689 N691 1.610 . S
N690 S689 1.613 . S
N690 C693 1.350 . S
N691 S689 1.610 . S
N691 C692 1.351 . S
C692 C686 1.428 . S
C692 N691 1.351 . S
C692 C693 1.434 . S
C693 C684 1.429 . S
C693 N690 1.350 . S
C693 C692 1.434 . S
C694 C695 1.369 . S
C694 C696 1.419 . S
C694 H698 0.930 . S
C695 C694 1.369 . S
C695 C704 1.429 . S
C696 C694 1.419 . S
C696 C697 1.363 . S
C696 H699 0.929 . S
C697 C696 1.363 . S
C697 C703 1.428 . S
H698 C694 0.930 . S
H699 C696 0.929 . S
S700 N701 1.613 . S
S700 N702 1.610 . S
N701 S700 1.613 . S
N701 C704 1.350 . S
N702 S700 1.610 . S
N702 C703 1.351 . S
C703 C697 1.428 . S
C703 N702 1.351 . S
C703 C704 1.434 . S
C704 C695 1.429 . S
C704 N701 1.350 . S
C704 C703 1.434 . S
C705 C706 1.369 . S
C705 C707 1.419 . S
C705 H709 0.930 . S
C706 C705 1.369 . S
C706 C715 1.429 . S
C707 C705 1.419 . S
C707 C708 1.363 . S
C707 H710 0.929 . S
C708 C707 1.363 . S
C708 C714 1.428 . S
H709 C705 0.930 . S
H710 C707 0.929 . S
S711 N712 1.613 . S
S711 N713 1.610 . S
N712 S711 1.613 . S
N712 C715 1.350 . S
N713 S711 1.610 . S
N713 C714 1.351 . S
C714 C708 1.428 . S
C714 N713 1.351 . S
C714 C715 1.434 . S
C715 C706 1.429 . S
C715 N712 1.350 . S
C715 C714 1.434 . S
C716 C717 1.369 . S
C716 C718 1.419 . S
C716 H720 0.930 . S
C717 C716 1.369 . S
C717 C726 1.429 . S
C718 C716 1.419 . S
C718 C719 1.363 . S
C718 H721 0.929 . S
C719 C718 1.363 . S
C719 C725 1.428 . S
H720 C716 0.930 . S
H721 C718 0.929 . S
S722 N723 1.613 . S
S722 N724 1.610 . S
N723 S722 1.613 . S
N723 C726 1.350 . S
N724 S722 1.610 . S
N724 C725 1.351 . S
C725 C719 1.428 . S
C725 N724 1.351 . S
C725 C726 1.434 . S
C726 C717 1.429 . S
C726 N723 1.350 . S
C726 C725 1.434 . S
C727 C728 1.369 . S
C727 C729 1.419 . S
C727 H731 0.930 . S
C728 C727 1.369 . S
C728 C737 1.429 . S
C729 C727 1.419 . S
C729 C730 1.363 . S
C729 H732 0.929 . S
C730 C729 1.363 . S
C730 C736 1.428 . S
H731 C727 0.930 . S
H732 C729 0.929 . S
S733 N734 1.613 . S
S733 N735 1.610 . S
N734 S733 1.613 . S
N734 C737 1.350 . S
N735 S733 1.610 . S
N735 C736 1.351 . S
C736 C730 1.428 . S
C736 N735 1.351 . S
C736 C737 1.434 . S
C737 C728 1.429 . S
C737 N734 1.350 . S
C737 C736 1.434 . S
C738 C739 1.369 . S
C738 C740 1.419 . S
C738 H742 0.930 . S
C739 C738 1.369 . S
C739 C748 1.429 . S
C740 C738 1.419 . S
C740 C741 1.363 . S
C740 H743 0.929 . S
C741 C740 1.363 . S
C741 C747 1.428 . S
H742 C738 0.930 . S
H743 C740 0.929 . S
S744 N745 1.613 . S
S744 N746 1.610 . S
N745 S744 1.613 . S
N745 C748 1.350 . S
N746 S744 1.610 . S
N746 C747 1.351 . S
C747 C741 1.428 . S
C747 N746 1.351 . S
C747 C748 1.434 . S
C748 C739 1.429 . S
C748 N745 1.350 . S
C748 C747 1.434 . S
C749 C750 1.369 1_565 S
C749 C751 1.419 . S
C749 H753 0.930 . S
C750 C749 1.369 1_545 S
C750 C759 1.429 . S
C751 C749 1.419 . S
C751 C752 1.363 . S
C751 H754 0.929 . S
C752 C751 1.363 . S
C752 C758 1.428 . S
H753 C749 0.930 . S
H754 C751 0.929 . S
S755 N756 1.613 . S
S755 N757 1.610 1_545 S
N756 S755 1.613 . S
N756 C759 1.350 . S
N757 S755 1.610 1_565 S
N757 C758 1.351 . S
C758 C752 1.428 . S
C758 N757 1.351 . S
C758 C759 1.434 1_565 S
C759 C750 1.429 . S
C759 N756 1.350 . S
C759 C758 1.434 1_545 S
C760 C761 1.369 . S
C760 C762 1.419 . S
C760 H764 0.930 . S
C761 C760 1.369 . S
C761 C770 1.429 . S
C762 C760 1.419 . S
C762 C763 1.363 . S
C762 H765 0.929 . S
C763 C762 1.363 . S
C763 C769 1.428 . S
H764 C760 0.930 . S
H765 C762 0.929 . S
S766 N767 1.613 . S
S766 N768 1.610 . S
N767 S766 1.613 . S
N767 C770 1.350 . S
N768 S766 1.610 . S
N768 C769 1.351 . S
C769 C763 1.428 . S
C769 N768 1.351 . S
C769 C770 1.434 . S
C770 C761 1.429 . S
C770 N767 1.350 . S
C770 C769 1.434 . S
C771 C772 1.369 . S
C771 C773 1.419 . S
C771 H775 0.930 . S
C772 C771 1.369 . S
C772 C781 1.429 . S
C773 C771 1.419 . S
C773 C774 1.363 . S
C773 H776 0.929 . S
C774 C773 1.363 . S
C774 C780 1.428 . S
H775 C771 0.930 . S
H776 C773 0.929 . S
S777 N778 1.613 . S
S777 N779 1.610 . S
N778 S777 1.613 . S
N778 C781 1.350 . S
N779 S777 1.610 . S
N779 C780 1.351 . S
C780 C774 1.428 . S
C780 N779 1.351 . S
C780 C781 1.434 . S
C781 C772 1.429 . S
C781 N778 1.350 . S
C781 C780 1.434 . S
C782 C783 1.369 . S
C782 C784 1.419 . S
C782 H786 0.930 . S
C783 C782 1.369 . S
C783 C792 1.429 . S
C784 C782 1.419 . S
C784 C785 1.363 . S
C784 H787 0.929 . S
C785 C784 1.363 . S
C785 C791 1.428 . S
H786 C782 0.930 . S
H787 C784 0.929 . S
S788 N789 1.613 . S
S788 N790 1.610 . S
N789 S788 1.613 . S
N789 C792 1.350 . S
N790 S788 1.610 . S
N790 C791 1.351 . S
C791 C785 1.428 . S
C791 N790 1.351 . S
C791 C792 1.434 . S
C792 C783 1.429 . S
C792 N789 1.350 . S
C792 C791 1.434 . S
C793 C794 1.369 . S
C793 C795 1.419 . S
C793 H797 0.930 . S
C794 C793 1.369 . S
C794 C803 1.429 . S
C795 C793 1.419 . S
C795 C796 1.363 . S
C795 H798 0.929 . S
C796 C795 1.363 . S
C796 C802 1.428 . S
H797 C793 0.930 . S
H798 C795 0.929 . S
S799 N800 1.613 . S
S799 N801 1.610 . S
N800 S799 1.613 . S
N800 C803 1.350 . S
N801 S799 1.610 . S
N801 C802 1.351 . S
C802 C796 1.428 . S
C802 N801 1.351 . S
C802 C803 1.434 . S
C803 C794 1.429 . S
C803 N800 1.350 . S
C803 C802 1.434 . S
C804 C805 1.369 . S
C804 C806 1.419 . S
C804 H808 0.930 . S
C805 C804 1.369 . S
C805 C814 1.429 . S
C806 C804 1.419 . S
C806 C807 1.363 . S
C806 H809 0.929 . S
C807 C806 1.363 . S
C807 C813 1.428 . S
H808 C804 0.930 . S
H809 C806 0.929 . S
S810 N811 1.613 . S
S810 N812 1.610 . S
N811 S810 1.613 . S
N811 C814 1.350 . S
N812 S810 1.610 . S
N812 C813 1.351 . S
C813 C807 1.428 . S
C813 N812 1.351 . S
C813 C814 1.434 . S
C814 C805 1.429 . S
C814 N811 1.350 . S
C814 C813 1.434 . S
C815 C816 1.369 . S
C815 C817 1.419 . S
C815 H819 0.930 1_655 S
C816 C815 1.369 . S
C816 C825 1.429 . S
C817 C815 1.419 . S
C817 C818 1.363 . S
C817 H820 0.929 . S
C818 C817 1.363 . S
C818 C824 1.428 . S
H819 C815 0.930 1_455 S
H820 C817 0.929 . S
S821 N822 1.613 . S
S821 N823 1.610 . S
N822 S821 1.613 . S
N822 C825 1.350 . S
N823 S821 1.610 . S
N823 C824 1.351 . S
C824 C818 1.428 . S
C824 N823 1.351 . S
C824 C825 1.434 . S
C825 C816 1.429 . S
C825 N822 1.350 . S
C825 C824 1.434 . S
C826 C827 1.369 . S
C826 C828 1.419 . S
C826 H830 0.930 . S
C827 C826 1.369 . S
C827 C836 1.429 . S
C828 C826 1.419 . S
C828 C829 1.363 . S
C828 H831 0.929 . S
C829 C828 1.363 . S
C829 C835 1.428 . S
H830 C826 0.930 . S
H831 C828 0.929 . S
S832 N833 1.613 . S
S832 N834 1.610 . S
N833 S832 1.613 . S
N833 C836 1.350 . S
N834 S832 1.610 . S
N834 C835 1.351 . S
C835 C829 1.428 . S
C835 N834 1.351 . S
C835 C836 1.434 . S
C836 C827 1.429 . S
C836 N833 1.350 . S
C836 C835 1.434 . S
C837 C838 1.369 . S
C837 C839 1.419 . S
C837 H841 0.930 . S
C838 C837 1.369 . S
C838 C847 1.429 . S
C839 C837 1.419 . S
C839 C840 1.363 . S
C839 H842 0.929 . S
C840 C839 1.363 . S
C840 C846 1.428 . S
H841 C837 0.930 . S
H842 C839 0.929 . S
S843 N844 1.613 . S
S843 N845 1.610 . S
N844 S843 1.613 . S
N844 C847 1.350 . S
N845 S843 1.610 . S
N845 C846 1.351 . S
C846 C840 1.428 . S
C846 N845 1.351 . S
C846 C847 1.434 . S
C847 C838 1.429 . S
C847 N844 1.350 . S
C847 C846 1.434 . S
C499 C404 1.485 . S
C497 C36 1.430 . S
C510 C421 1.450 . S
C508 C93 1.457 . S
C521 C435 1.561 . S
C519 C126 1.594 . S
C530 C165 1.432 . S
C532 C393 1.445 . S
C541 C222 1.398 . S
C543 C390 1.495 . S
C552 C261 1.287 . S
C554 C407 1.317 . S
C565 C418 1.617 . S
C563 C318 1.547 . S
C576 C432 1.526 . S
C574 C381 1.502 . S
C585 C132 1.468 . S
C587 C460 1.528 . S
C598 C474 1.617 . S
C596 C189 1.608 . S
C607 C30 1.314 . S
C609 C491 1.321 . S
C620 C446 1.493 . S
C618 C69 1.405 . S
C629 C324 1.412 . S
C631 C449 1.441 . S
C640 C357 1.566 . S
C642 C463 1.568 . S
C653 C477 1.452 . S
C651 C228 1.451 . S
C662 C285 1.453 . S
C664 C488 1.485 . S
C675 C420 1.948 . S
C673 C45 1.946 . S
C686 C434 2.075 . S
C684 C84 2.085 . S
C695 C117 2.009 . S
C697 C392 2.026 . S
C706 C174 1.817 . S
C708 C405 1.769 . S
C717 C213 1.707 . S
C719 C433 1.563 . S
C730 C391 1.583 . S
C728 C270 1.690 . S
C741 C406 1.886 . S
C739 C309 1.895 . S
C752 C419 1.645 . S
C750 C372 1.774 . S
C763 C475 1.653 . S
C761 C141 1.762 . S
C774 C490 1.885 . S
C772 C180 1.898 . S
C783 C21 1.726 . S
C785 C447 1.575 . S
C796 C461 1.559 . S
C794 C78 1.689 . S
C807 C489 1.764 . S
C805 C333 1.902 . S
C816 C366 1.954 1_655 S
C818 C448 2.031 . S
C829 C462 2.078 . S
C827 C237 2.087 . S
C840 C476 1.948 . S
C838 C276 1.960 . S
