# Generated by pormake.
# Topology ptr, (4,4)-cn, num edge types: 1
# Building blocks:
#     Node 0, Type 0, BuildingBlock: KUFVIS_clean_sbu_0, # of connection points: 4
#     Node 1, Type 0, BuildingBlock: KUFVIS_clean_sbu_0, # of connection points: 4
#     Node 2, Type 0, BuildingBlock: KUFVIS_clean_sbu_0, # of connection points: 4
#     Node 3, Type 0, BuildingBlock: KUFVIS_clean_sbu_0, # of connection points: 4
#     Node 4, Type 0, BuildingBlock: KUFVIS_clean_sbu_0, # of connection points: 4
#     Node 5, Type 0, BuildingBlock: KUFVIS_clean_sbu_0, # of connection points: 4
#     Node 6, Type 0, BuildingBlock: KUFVIS_clean_sbu_0, # of connection points: 4
#     Node 7, Type 0, BuildingBlock: KUFVIS_clean_sbu_0, # of connection points: 4
#     Node 8, Type 0, BuildingBlock: KUFVIS_clean_sbu_0, # of connection points: 4
#     Node 9, Type 0, BuildingBlock: KUFVIS_clean_sbu_0, # of connection points: 4
#     Node 10, Type 0, BuildingBlock: KUFVIS_clean_sbu_0, # of connection points: 4
#     Node 11, Type 0, BuildingBlock: KUFVIS_clean_sbu_0, # of connection points: 4
#     Node 12, Type 0, BuildingBlock: KUFVIS_clean_sbu_0, # of connection points: 4
#     Node 13, Type 0, BuildingBlock: KUFVIS_clean_sbu_0, # of connection points: 4
#     Node 14, Type 0, BuildingBlock: KUFVIS_clean_sbu_0, # of connection points: 4
#     Node 15, Type 0, BuildingBlock: KUFVIS_clean_sbu_0, # of connection points: 4
#     Node 16, Type 0, BuildingBlock: KUFVIS_clean_sbu_0, # of connection points: 4
#     Node 17, Type 0, BuildingBlock: KUFVIS_clean_sbu_0, # of connection points: 4
#     Node 18, Type 1, BuildingBlock: MUDLON_clean_linker_0, # of connection points: 4
#     Node 19, Type 1, BuildingBlock: MUDLON_clean_linker_0, # of connection points: 4
#     Node 20, Type 1, BuildingBlock: MUDLON_clean_linker_0, # of connection points: 4
#     Node 21, Type 1, BuildingBlock: MUDLON_clean_linker_0, # of connection points: 4
#     Node 22, Type 1, BuildingBlock: MUDLON_clean_linker_0, # of connection points: 4
#     Node 23, Type 1, BuildingBlock: MUDLON_clean_linker_0, # of connection points: 4
#     Node 24, Type 1, BuildingBlock: MUDLON_clean_linker_0, # of connection points: 4
#     Node 25, Type 1, BuildingBlock: MUDLON_clean_linker_0, # of connection points: 4
#     Node 26, Type 1, BuildingBlock: MUDLON_clean_linker_0, # of connection points: 4
#     Node 27, Type 1, BuildingBlock: MUDLON_clean_linker_0, # of connection points: 4
#     Node 28, Type 1, BuildingBlock: MUDLON_clean_linker_0, # of connection points: 4
#     Node 29, Type 1, BuildingBlock: MUDLON_clean_linker_0, # of connection points: 4
#     Node 30, Type 1, BuildingBlock: MUDLON_clean_linker_0, # of connection points: 4
#     Node 31, Type 1, BuildingBlock: MUDLON_clean_linker_0, # of connection points: 4
#     Node 32, Type 1, BuildingBlock: MUDLON_clean_linker_0, # of connection points: 4
#     Node 33, Type 1, BuildingBlock: MUDLON_clean_linker_0, # of connection points: 4
#     Node 34, Type 1, BuildingBlock: MUDLON_clean_linker_0, # of connection points: 4
#     Node 35, Type 1, BuildingBlock: MUDLON_clean_linker_0, # of connection points: 4
#     Edge 36, Type (0, 1), BuildingBlock: EZIPEK_clean_linker_0, # of connection points: 2
#     Edge 37, Type (0, 1), BuildingBlock: EZIPEK_clean_linker_0, # of connection points: 2
#     Edge 38, Type (0, 1), BuildingBlock: EZIPEK_clean_linker_0, # of connection points: 2
#     Edge 39, Type (0, 1), BuildingBlock: EZIPEK_clean_linker_0, # of connection points: 2
#     Edge 40, Type (0, 1), BuildingBlock: EZIPEK_clean_linker_0, # of connection points: 2
#     Edge 41, Type (0, 1), BuildingBlock: EZIPEK_clean_linker_0, # of connection points: 2
#     Edge 42, Type (0, 1), BuildingBlock: EZIPEK_clean_linker_0, # of connection points: 2
#     Edge 43, Type (0, 1), BuildingBlock: EZIPEK_clean_linker_0, # of connection points: 2
#     Edge 44, Type (0, 1), BuildingBlock: EZIPEK_clean_linker_0, # of connection points: 2
#     Edge 45, Type (0, 1), BuildingBlock: EZIPEK_clean_linker_0, # of connection points: 2
#     Edge 46, Type (0, 1), BuildingBlock: EZIPEK_clean_linker_0, # of connection points: 2
#     Edge 47, Type (0, 1), BuildingBlock: EZIPEK_clean_linker_0, # of connection points: 2
#     Edge 48, Type (0, 1), BuildingBlock: EZIPEK_clean_linker_0, # of connection points: 2
#     Edge 49, Type (0, 1), BuildingBlock: EZIPEK_clean_linker_0, # of connection points: 2
#     Edge 50, Type (0, 1), BuildingBlock: EZIPEK_clean_linker_0, # of connection points: 2
#     Edge 51, Type (0, 1), BuildingBlock: EZIPEK_clean_linker_0, # of connection points: 2
#     Edge 52, Type (0, 1), BuildingBlock: EZIPEK_clean_linker_0, # of connection points: 2
#     Edge 53, Type (0, 1), BuildingBlock: EZIPEK_clean_linker_0, # of connection points: 2
#     Edge 54, Type (0, 1), BuildingBlock: EZIPEK_clean_linker_0, # of connection points: 2
#     Edge 55, Type (0, 1), BuildingBlock: EZIPEK_clean_linker_0, # of connection points: 2
#     Edge 56, Type (0, 1), BuildingBlock: EZIPEK_clean_linker_0, # of connection points: 2
#     Edge 57, Type (0, 1), BuildingBlock: EZIPEK_clean_linker_0, # of connection points: 2
#     Edge 58, Type (0, 1), BuildingBlock: EZIPEK_clean_linker_0, # of connection points: 2
#     Edge 59, Type (0, 1), BuildingBlock: EZIPEK_clean_linker_0, # of connection points: 2
#     Edge 60, Type (0, 1), BuildingBlock: EZIPEK_clean_linker_0, # of connection points: 2
#     Edge 61, Type (0, 1), BuildingBlock: EZIPEK_clean_linker_0, # of connection points: 2
#     Edge 62, Type (0, 1), BuildingBlock: EZIPEK_clean_linker_0, # of connection points: 2
#     Edge 63, Type (0, 1), BuildingBlock: EZIPEK_clean_linker_0, # of connection points: 2
#     Edge 64, Type (0, 1), BuildingBlock: EZIPEK_clean_linker_0, # of connection points: 2
#     Edge 65, Type (0, 1), BuildingBlock: EZIPEK_clean_linker_0, # of connection points: 2
#     Edge 66, Type (0, 1), BuildingBlock: EZIPEK_clean_linker_0, # of connection points: 2
#     Edge 67, Type (0, 1), BuildingBlock: EZIPEK_clean_linker_0, # of connection points: 2
#     Edge 68, Type (0, 1), BuildingBlock: EZIPEK_clean_linker_0, # of connection points: 2
#     Edge 69, Type (0, 1), BuildingBlock: EZIPEK_clean_linker_0, # of connection points: 2
#     Edge 70, Type (0, 1), BuildingBlock: EZIPEK_clean_linker_0, # of connection points: 2
#     Edge 71, Type (0, 1), BuildingBlock: EZIPEK_clean_linker_0, # of connection points: 2
#     Edge 72, Type (0, 1), BuildingBlock: EZIPEK_clean_linker_0, # of connection points: 2
#     Edge 73, Type (0, 1), BuildingBlock: EZIPEK_clean_linker_0, # of connection points: 2
#     Edge 74, Type (0, 1), BuildingBlock: EZIPEK_clean_linker_0, # of connection points: 2
#     Edge 75, Type (0, 1), BuildingBlock: EZIPEK_clean_linker_0, # of connection points: 2
#     Edge 76, Type (0, 1), BuildingBlock: EZIPEK_clean_linker_0, # of connection points: 2
#     Edge 77, Type (0, 1), BuildingBlock: EZIPEK_clean_linker_0, # of connection points: 2
#     Edge 78, Type (0, 1), BuildingBlock: EZIPEK_clean_linker_0, # of connection points: 2
#     Edge 79, Type (0, 1), BuildingBlock: EZIPEK_clean_linker_0, # of connection points: 2
#     Edge 80, Type (0, 1), BuildingBlock: EZIPEK_clean_linker_0, # of connection points: 2
#     Edge 81, Type (0, 1), BuildingBlock: EZIPEK_clean_linker_0, # of connection points: 2
#     Edge 82, Type (0, 1), BuildingBlock: EZIPEK_clean_linker_0, # of connection points: 2
#     Edge 83, Type (0, 1), BuildingBlock: EZIPEK_clean_linker_0, # of connection points: 2
#     Edge 84, Type (0, 1), BuildingBlock: EZIPEK_clean_linker_0, # of connection points: 2
#     Edge 85, Type (0, 1), BuildingBlock: EZIPEK_clean_linker_0, # of connection points: 2
#     Edge 86, Type (0, 1), BuildingBlock: EZIPEK_clean_linker_0, # of connection points: 2
#     Edge 87, Type (0, 1), BuildingBlock: EZIPEK_clean_linker_0, # of connection points: 2
#     Edge 88, Type (0, 1), BuildingBlock: EZIPEK_clean_linker_0, # of connection points: 2
#     Edge 89, Type (0, 1), BuildingBlock: EZIPEK_clean_linker_0, # of connection points: 2
#     Edge 90, Type (0, 1), BuildingBlock: EZIPEK_clean_linker_0, # of connection points: 2
#     Edge 91, Type (0, 1), BuildingBlock: EZIPEK_clean_linker_0, # of connection points: 2
#     Edge 92, Type (0, 1), BuildingBlock: EZIPEK_clean_linker_0, # of connection points: 2
#     Edge 93, Type (0, 1), BuildingBlock: EZIPEK_clean_linker_0, # of connection points: 2
#     Edge 94, Type (0, 1), BuildingBlock: EZIPEK_clean_linker_0, # of connection points: 2
#     Edge 95, Type (0, 1), BuildingBlock: EZIPEK_clean_linker_0, # of connection points: 2
#     Edge 96, Type (0, 1), BuildingBlock: EZIPEK_clean_linker_0, # of connection points: 2
#     Edge 97, Type (0, 1), BuildingBlock: EZIPEK_clean_linker_0, # of connection points: 2
#     Edge 98, Type (0, 1), BuildingBlock: EZIPEK_clean_linker_0, # of connection points: 2
#     Edge 99, Type (0, 1), BuildingBlock: EZIPEK_clean_linker_0, # of connection points: 2
#     Edge 100, Type (0, 1), BuildingBlock: EZIPEK_clean_linker_0, # of connection points: 2
#     Edge 101, Type (0, 1), BuildingBlock: EZIPEK_clean_linker_0, # of connection points: 2
#     Edge 102, Type (0, 1), BuildingBlock: EZIPEK_clean_linker_0, # of connection points: 2
#     Edge 103, Type (0, 1), BuildingBlock: EZIPEK_clean_linker_0, # of connection points: 2
#     Edge 104, Type (0, 1), BuildingBlock: EZIPEK_clean_linker_0, # of connection points: 2
#     Edge 105, Type (0, 1), BuildingBlock: EZIPEK_clean_linker_0, # of connection points: 2
#     Edge 106, Type (0, 1), BuildingBlock: EZIPEK_clean_linker_0, # of connection points: 2
#     Edge 107, Type (0, 1), BuildingBlock: EZIPEK_clean_linker_0, # of connection points: 2
# Relax obj value: 0.036
# Max RMSD: 0.128
# Mean RMSD: 0.074
data_MOF--net-ptr--node1-KUFVIS_clean_sbu_0--node2-MUDLON_clean_linker_0--edge1-EZIPEK_clean_linker_0
_symmetry_space_group_name_H-M    P1
_symmetry_Int_Tables_number       1
_symmetry_cell_setting            triclinic
loop_
_symmetry_equiv_pos_as_xyz
'x, y, z'
_cell_length_a     83.931396
_cell_length_b     83.566103
_cell_length_c     50.735023
_cell_angle_alpha  89.618553
_cell_angle_beta   90.827976
_cell_angle_gamma 119.51089
loop_
_atom_site_label
_atom_site_type_symbol
_atom_site_fract_x
_atom_site_fract_y
_atom_site_fract_z
_atom_type_partial_charge
Mn0 Mn 1.00119 0.36358 0.99856 0.0
Mn1 Mn 0.04334 0.40045 0.99311 0.0
C2 C 0.00637 0.38561 0.967 0.0
C3 C 0.98052 0.33326 0.98673 0.0
C4 C 0.01725 0.39593 0.03743 0.0
O5 O 0.01746 0.35609 0.01934 0.0
O6 O 0.04537 0.38029 0.01106 0.0
C7 C 0.05887 0.3849 0.95575 0.0
N8 N 0.05455 0.39814 0.96194 0.0
C9 C 0.06735 0.41432 0.92152 0.0
C10 C 0.07201 0.40092 0.91476 0.0
C11 C 0.06767 0.3861 0.93191 0.0
C12 C 0.05848 0.41233 0.94547 0.0
H13 H 0.0556 0.37353 0.96891 0.0
C14 C 0.03491 0.36445 0.02104 0.0
O15 O 0.97852 0.3403 0.00837 0.0
O16 O 0.99472 0.34354 0.97266 0.0
N17 N 0.04356 0.421 0.97574 0.0
C18 C 0.03683 0.43193 0.98409 0.0
C19 C 0.03962 0.44718 0.96887 0.0
C20 C 0.04925 0.451 0.94515 0.0
C21 C 0.05591 0.43947 0.9368 0.0
C22 C 0.0528 0.42454 0.95288 0.0
H23 H 0.02883 0.42866 0.00171 0.0
O24 O 0.98986 0.37432 0.97456 0.0
O25 O 0.01929 0.38349 0.97809 0.0
O26 O 0.00356 0.38118 0.02849 0.0
O27 O 0.03271 0.40392 0.02588 0.0
C28 C 0.06533 0.44206 0.91299 0.0
C29 C 0.07097 0.42945 0.90529 0.0
H30 H 0.07881 0.4018 0.89638 0.0
H31 H 0.07115 0.37565 0.92678 0.0
H32 H 0.03414 0.45582 0.97523 0.0
H33 H 0.05122 0.46266 0.93333 0.0
H34 H 0.06815 0.45361 0.90031 0.0
H35 H 0.0779 0.43142 0.88672 0.0
Mn36 Mn 0.6385 0.64122 0.02268 0.0
Mn37 Mn 0.64366 0.60358 0.0235 0.0
C38 C 0.6222 0.61776 0.0527 0.0
C39 C 0.64793 0.67109 0.03677 0.0
C40 C 0.62217 0.61086 0.98092 0.0
O41 O 0.66201 0.64951 0.00236 0.0
O42 O 0.66591 0.62475 0.0077 0.0
C43 C 0.67446 0.61539 0.06168 0.0
N44 N 0.65675 0.60361 0.05472 0.0
C45 C 0.65219 0.5858 0.09421 0.0
C46 C 0.67029 0.59796 0.102 0.0
C47 C 0.68149 0.6128 0.08562 0.0
C48 C 0.64591 0.58917 0.07021 0.0
H49 H 0.68318 0.62655 0.04896 0.0
C50 C 0.67117 0.64118 0.99946 0.0
O51 O 0.6388 0.66481 0.01486 0.0
O52 O 0.65189 0.66021 0.05017 0.0
N53 N 0.62324 0.58243 0.03841 0.0
C54 C 0.60618 0.57176 0.02785 0.0
C55 C 0.59343 0.55606 0.04148 0.0
C56 C 0.59838 0.55137 0.06567 0.0
C57 C 0.61608 0.56241 0.07597 0.0
C58 C 0.62824 0.57785 0.06145 0.0
H59 H 0.60228 0.57524 0.00923 0.0
O60 O 0.61679 0.62941 0.04639 0.0
O61 O 0.63689 0.62016 0.04092 0.0
O62 O 0.62362 0.62548 0.99105 0.0
O63 O 0.62945 0.60192 0.99109 0.0
C64 C 0.62215 0.55867 0.10005 0.0
C65 C 0.64014 0.57044 0.10927 0.0
H66 H 0.67578 0.59597 0.12042 0.0
H67 H 0.69554 0.62216 0.09135 0.0
H68 H 0.57979 0.54761 0.03338 0.0
H69 H 0.58847 0.53931 0.0762 0.0
H70 H 0.61308 0.54677 0.11161 0.0
H71 H 0.64461 0.56747 0.1279 0.0
Mn72 Mn 0.35845 0.99839 0.01681 0.0
Mn73 Mn 0.39593 0.04065 0.01488 0.0
C74 C 0.38249 0.00595 0.04641 0.0
C75 C 0.32927 0.97865 0.03295 0.0
C76 C 0.38798 0.01074 0.97469 0.0
O77 O 0.3496 0.01323 0.99535 0.0
O78 O 0.37456 0.04154 0.99831 0.0
C79 C 0.38444 0.06068 0.051 0.0
N80 N 0.39623 0.05452 0.04492 0.0
C81 C 0.41424 0.06826 0.08414 0.0
C82 C 0.40211 0.0745 0.091 0.0
C83 C 0.38717 0.07073 0.07431 0.0
C84 C 0.41076 0.05824 0.06071 0.0
H85 H 0.37314 0.05805 0.03809 0.0
C86 C 0.35798 0.03051 0.99091 0.0
O87 O 0.33482 0.97506 0.01115 0.0
O88 O 0.34034 0.99398 0.04467 0.0
N89 N 0.4173 0.04157 0.03042 0.0
C90 C 0.42796 0.03493 0.02069 0.0
C91 C 0.44376 0.03795 0.0347 0.0
C92 C 0.44852 0.04789 0.05844 0.0
C93 C 0.43752 0.05486 0.06782 0.0
C94 C 0.42202 0.05155 0.05289 0.0
H95 H 0.4244 0.02728 0.00245 0.0
O96 O 0.37083 0.98889 0.04124 0.0
O97 O 0.37979 0.01801 0.03376 0.0
O98 O 0.37341 0.99813 0.98525 0.0
O99 O 0.39711 0.02709 0.98379 0.0
C100 C 0.44132 0.06497 0.09141 0.0
C101 C 0.42963 0.07156 0.09965 0.0
H102 H 0.40418 0.08226 0.10896 0.0
H103 H 0.37781 0.07561 0.07936 0.0
H104 H 0.45219 0.03255 0.0273 0.0
H105 H 0.46063 0.05007 0.0693 0.0
H106 H 0.45321 0.06776 0.10334 0.0
H107 H 0.43265 0.07924 0.11789 0.0
Mn108 Mn 1.00117 0.64112 0.00424 0.0
Mn109 Mn 0.04245 0.64399 0.99811 0.0
C110 C 0.00483 0.62282 0.97389 0.0
C111 C 0.98086 0.65134 0.99148 0.0
C112 C 0.01694 0.62463 0.04395 0.0
O113 O 0.01846 0.66489 0.02357 0.0
O114 O 0.04575 0.66694 0.01484 0.0
C115 C 0.05791 0.67383 0.95858 0.0
N116 N 0.0531 0.65633 0.96586 0.0
C117 C 0.06285 0.65059 0.92433 0.0
C118 C 0.06801 0.66859 0.91645 0.0
C119 C 0.06549 0.68025 0.93364 0.0
C120 C 0.05541 0.64498 0.94945 0.0
H121 H 0.05588 0.68279 0.97166 0.0
C122 C 0.03593 0.67318 0.02475 0.0
O123 O 0.97903 0.64292 0.01382 0.0
O124 O 0.99499 0.65471 0.97756 0.0
N125 N 0.04134 0.62278 0.98196 0.0
C126 C 0.03452 0.60544 0.99175 0.0
C127 C 0.03585 0.59203 0.97691 0.0
C128 C 0.04396 0.5965 0.95198 0.0
C129 C 0.05073 0.61438 0.94216 0.0
C130 C 0.04937 0.62727 0.95809 0.0
H131 H 0.0275 0.60169 0.01025 0.0
O132 O 0.98864 0.61868 0.98181 0.0
O133 O 0.01836 0.63774 0.98385 0.0
O134 O 0.00342 0.62618 0.03498 0.0
O135 O 0.03213 0.63099 0.03182 0.0
C136 C 0.05846 0.6198 0.91698 0.0
C137 C 0.06447 0.63789 0.90804 0.0
H138 H 0.07376 0.67356 0.89716 0.0
H139 H 0.06933 0.69413 0.92765 0.0
H140 H 0.03027 0.57817 0.98443 0.0
H141 H 0.04464 0.58602 0.94037 0.0
H142 H 0.05961 0.61011 0.90418 0.0
H143 H 0.07014 0.64182 0.88849 0.0
Mn144 Mn 0.36009 0.3646 0.02603 0.0
Mn145 Mn 0.39835 0.36069 0.02717 0.0
C146 C 0.38376 0.38205 0.05563 0.0
C147 C 0.33046 0.35497 0.04047 0.0
C148 C 0.39006 0.38129 0.98443 0.0
O149 O 0.35213 0.34069 0.00609 0.0
O150 O 0.37757 0.33807 0.01099 0.0
C151 C 0.38689 0.33022 0.06554 0.0
N152 N 0.39854 0.34793 0.05852 0.0
C153 C 0.41613 0.35322 0.09864 0.0
C154 C 0.40412 0.3351 0.10644 0.0
C155 C 0.38945 0.32354 0.08978 0.0
C156 C 0.41277 0.35913 0.07435 0.0
H157 H 0.37582 0.32126 0.05266 0.0
C158 C 0.36103 0.33212 0.00286 0.0
O159 O 0.33621 0.3636 0.01826 0.0
O160 O 0.34165 0.35144 0.05383 0.0
N161 N 0.41932 0.38147 0.04228 0.0
C162 C 0.4301 0.39832 0.03135 0.0
C163 C 0.4459 0.41126 0.04492 0.0
C164 C 0.45052 0.40671 0.06947 0.0
C165 C 0.43936 0.38921 0.08015 0.0
C166 C 0.42393 0.3768 0.06555 0.0
H167 H 0.4267 0.40189 0.01242 0.0
O168 O 0.37176 0.38695 0.04919 0.0
O169 O 0.38156 0.36717 0.0443 0.0
O170 O 0.37518 0.37915 0.99417 0.0
O171 O 0.39956 0.37469 0.99484 0.0
C172 C 0.44301 0.38356 0.10464 0.0
C173 C 0.43132 0.36562 0.11397 0.0
H174 H 0.40609 0.32989 0.12509 0.0
H175 H 0.3802 0.30949 0.09555 0.0
H176 H 0.45446 0.42473 0.03651 0.0
H177 H 0.46264 0.41677 0.07997 0.0
H178 H 0.45476 0.39292 0.11647 0.0
H179 H 0.43423 0.36145 0.13288 0.0
Mn180 Mn 0.64228 0.0077 0.00326 0.0
Mn181 Mn 0.60442 0.96569 0.00169 0.0
C182 C 0.61916 1.00144 0.97255 0.0
C183 C 0.6721 0.0274 0.98944 0.0
C184 C 0.61117 0.99467 0.04304 0.0
O185 O 0.65011 0.99199 0.02474 0.0
O186 O 0.62466 0.96429 0.02044 0.0
C187 C 0.61909 0.94788 0.96683 0.0
N188 N 0.6061 0.95267 0.97199 0.0
C189 C 0.58955 0.93817 0.93212 0.0
C190 C 0.60267 0.93296 0.92647 0.0
C191 C 0.61756 0.93794 0.94383 0.0
C192 C 0.59194 0.94828 0.95515 0.0
H193 H 0.63056 0.95165 0.98012 0.0
C194 C 0.64109 0.97467 0.02868 0.0
O195 O 0.666 0.03053 0.01107 0.0
O196 O 0.66116 0.01265 0.97641 0.0
N197 N 0.58365 0.96453 0.98374 0.0
C198 C 0.57195 0.97023 0.99228 0.0
C199 C 0.55651 0.96667 0.97689 0.0
C200 C 0.55289 0.9567 0.9533 0.0
C201 C 0.56466 0.95024 0.94547 0.0
C202 C 0.57996 0.95444 0.96146 0.0
H203 H 0.57429 0.97724 0.01083 0.0
O204 O 0.63096 0.01827 0.97874 0.0
O205 O 0.62133 0.98883 0.98454 0.0
O206 O 0.62638 0.00727 0.03402 0.0
O207 O 0.60177 0.97872 0.03256 0.0
C208 C 0.5617 0.93962 0.92259 0.0
C209 C 0.57422 0.93373 0.91578 0.0
H210 H 0.60148 0.92521 0.90881 0.0
H211 H 0.6278 0.93406 0.93955 0.0
H212 H 0.54731 0.97141 0.98335 0.0
H213 H 0.54092 0.9539 0.94152 0.0
H214 H 0.5498 0.93584 0.9101 0.0
H215 H 0.57192 0.92578 0.89795 0.0
Mn216 Mn 0.66895 0.6991 0.3349 0.0
Mn217 Mn 0.71144 0.7357 0.33173 0.0
C218 C 0.6753 0.72138 0.3032 0.0
C219 C 0.64825 0.66891 0.3224 0.0
C220 C 0.6843 0.73078 0.37471 0.0
O221 O 0.68456 0.69131 0.35687 0.0
O222 O 0.71289 0.71504 0.34907 0.0
C223 C 0.72821 0.72124 0.29471 0.0
N224 N 0.72351 0.73418 0.30099 0.0
C225 C 0.73765 0.75153 0.26186 0.0
C226 C 0.74263 0.73838 0.25496 0.0
C227 C 0.73783 0.72314 0.27142 0.0
C228 C 0.72799 0.74885 0.28525 0.0
H229 H 0.72467 0.70958 0.30739 0.0
C230 C 0.70199 0.69925 0.35889 0.0
O231 O 0.64587 0.67597 0.34372 0.0
O232 O 0.6629 0.67907 0.30906 0.0
N233 N 0.71203 0.75661 0.31494 0.0
C234 C 0.70457 0.76698 0.32286 0.0
C235 C 0.708 0.78277 0.3085 0.0
C236 C 0.71876 0.78751 0.28579 0.0
C237 C 0.72576 0.77626 0.27746 0.0
C238 C 0.72208 0.76085 0.29279 0.0
H239 H 0.69542 0.7628 0.3393 0.0
O240 O 0.65853 0.71014 0.30977 0.0
O241 O 0.68777 0.71906 0.31539 0.0
O242 O 0.67062 0.71657 0.36459 0.0
O243 O 0.70015 0.73854 0.3643 0.0
C244 C 0.73601 0.77958 0.25433 0.0
C245 C 0.7418 0.76714 0.24639 0.0
H246 H 0.75006 0.73982 0.23702 0.0
H247 H 0.7416 0.71291 0.26622 0.0
H248 H 0.70204 0.79103 0.31461 0.0
H249 H 0.72115 0.79954 0.27454 0.0
H250 H 0.73937 0.79158 0.24236 0.0
H251 H 0.74939 0.76967 0.22831 0.0
Mn252 Mn 0.30574 0.97466 0.35247 0.0
Mn253 Mn 0.31041 0.93673 0.35429 0.0
C254 C 0.28892 0.95129 0.3823 0.0
C255 C 0.31534 0.00458 0.36658 0.0
C256 C 0.28913 0.94386 0.31123 0.0
O257 O 0.32938 0.98273 0.33265 0.0
O258 O 0.33257 0.95756 0.33783 0.0
C259 C 0.34131 0.94946 0.39249 0.0
N260 N 0.32364 0.93739 0.38568 0.0
C261 C 0.31912 0.9207 0.42629 0.0
C262 C 0.33719 0.93315 0.43388 0.0
C263 C 0.34835 0.94757 0.41686 0.0
C264 C 0.31283 0.92338 0.40184 0.0
H265 H 0.34997 0.96036 0.37935 0.0
C266 C 0.33816 0.97404 0.32964 0.0
O267 O 0.30645 0.99846 0.34445 0.0
O268 O 0.31898 0.99354 0.38012 0.0
N269 N 0.29014 0.91575 0.36977 0.0
C270 C 0.27327 0.90449 0.35905 0.0
C271 C 0.2607 0.88886 0.37302 0.0
C272 C 0.26564 0.88491 0.39777 0.0
C273 C 0.28316 0.89654 0.40824 0.0
C274 C 0.29519 0.91176 0.39323 0.0
H275 H 0.2694 0.90739 0.33999 0.0
O276 O 0.28373 0.96305 0.37563 0.0
O277 O 0.3037 0.95354 0.37103 0.0
O278 O 0.29112 0.95889 0.3207 0.0
O279 O 0.29597 0.93466 0.32194 0.0
C280 C 0.28917 0.89359 0.43291 0.0
C281 C 0.3071 0.90573 0.44202 0.0
H282 H 0.34268 0.9317 0.45264 0.0
H283 H 0.36236 0.95715 0.42246 0.0
H284 H 0.24722 0.87994 0.36479 0.0
H285 H 0.25586 0.87293 0.40859 0.0
H286 H 0.28011 0.88202 0.44505 0.0
H287 H 0.31155 0.90335 0.46107 0.0
Mn288 Mn 0.02372 0.33182 0.35429 0.0
Mn289 Mn 0.06105 0.37423 0.35633 0.0
C290 C 0.04747 0.33814 0.38373 0.0
C291 C 0.99438 0.31087 0.36868 0.0
C292 C 0.05519 0.34622 0.31443 0.0
O293 O 0.01469 0.34718 0.3348 0.0
O294 O 0.04049 0.37479 0.3366 0.0
C295 C 0.04557 0.39172 0.39036 0.0
N296 N 0.05857 0.38684 0.38597 0.0
C297 C 0.07384 0.4004 0.42704 0.0
C298 C 0.0605 0.4054 0.4321 0.0
C299 C 0.0463 0.40103 0.41367 0.0
C300 C 0.07228 0.39095 0.4036 0.0
H301 H 0.0348 0.38862 0.37614 0.0
C302 C 0.02375 0.36429 0.32956 0.0
O303 O 1.00034 0.30861 0.3463 0.0
O304 O 0.00516 0.32545 0.38215 0.0
N305 N 0.08194 0.37602 0.37477 0.0
C306 C 0.09421 0.37102 0.36634 0.0
C307 C 0.10944 0.37469 0.38233 0.0
C308 C 0.11214 0.38384 0.40648 0.0
C309 C 0.09971 0.38949 0.41425 0.0
C310 C 0.08477 0.38541 0.39753 0.0
H311 H 0.09232 0.36414 0.34768 0.0
O312 O 0.03611 0.32136 0.37674 0.0
O313 O 0.04461 0.35077 0.3732 0.0
O314 O 0.03945 0.3338 0.32229 0.0
O315 O 0.06472 0.36166 0.32611 0.0
C316 C 0.10165 0.39913 0.43783 0.0
C317 C 0.08866 0.40449 0.4443 0.0
H318 H 0.06107 0.41267 0.45 0.0
H319 H 0.03599 0.40492 0.41735 0.0
H320 H 0.11908 0.37047 0.37603 0.0
H321 H 0.12388 0.3866 0.41878 0.0
H322 H 0.11309 0.40254 0.45112 0.0
H323 H 0.09025 0.41181 0.46255 0.0
Mn324 Mn 0.66875 0.97444 0.33637 0.0
Mn325 Mn 0.71023 0.97698 0.33843 0.0
C326 C 0.67525 0.95709 0.30743 0.0
C327 C 0.64905 0.98437 0.31975 0.0
C328 C 0.68068 0.95604 0.37872 0.0
O329 O 0.68424 0.99794 0.35714 0.0
O330 O 0.71182 0.99934 0.35528 0.0
C331 C 0.73039 0.00866 0.30267 0.0
N332 N 0.72402 0.99063 0.30857 0.0
C333 C 0.73756 0.98639 0.26961 0.0
C334 C 0.74402 0.00486 0.26294 0.0
C335 C 0.74043 0.01605 0.27957 0.0
C336 C 0.72747 0.97976 0.29276 0.0
H337 H 0.72794 0.01735 0.31558 0.0
C338 C 0.70141 0.00583 0.36198 0.0
O339 O 0.64589 0.97568 0.34205 0.0
O340 O 0.66413 0.98822 0.30796 0.0
N341 N 0.71061 0.95642 0.32265 0.0
C342 C 0.70392 0.93905 0.33232 0.0
C343 C 0.70679 0.92624 0.31839 0.0
C344 C 0.71672 0.93148 0.29487 0.0
C345 C 0.72381 0.94954 0.28561 0.0
C346 C 0.72055 0.96171 0.30037 0.0
H347 H 0.69636 0.93494 0.35046 0.0
O348 O 0.65845 0.95239 0.31278 0.0
O349 O 0.68771 0.97166 0.31953 0.0
O350 O 0.66858 0.95928 0.36843 0.0
O351 O 0.69667 0.96208 0.36922 0.0
C352 C 0.73411 0.95596 0.26243 0.0
C353 C 0.74082 0.97432 0.25428 0.0
H354 H 0.75185 0.01062 0.24519 0.0
H355 H 0.74549 0.03036 0.27468 0.0
H356 H 0.70133 0.91235 0.32573 0.0
H357 H 0.71885 0.92155 0.28412 0.0
H358 H 0.73699 0.9469 0.25076 0.0
H359 H 0.74863 0.97907 0.23632 0.0
Mn360 Mn 0.02593 0.69614 0.35441 0.0
Mn361 Mn 0.06461 0.69299 0.35535 0.0
C362 C 0.0498 0.71435 0.38316 0.0
C363 C 0.99625 0.68628 0.36914 0.0
C364 C 0.05599 0.71329 0.31274 0.0
O365 O 0.01794 0.67191 0.33556 0.0
O366 O 0.04415 0.6706 0.33826 0.0
C367 C 0.05267 0.66174 0.39241 0.0
N368 N 0.06448 0.67957 0.38611 0.0
C369 C 0.08207 0.68377 0.42591 0.0
C370 C 0.06996 0.6655 0.43294 0.0
C371 C 0.05518 0.65444 0.41611 0.0
C372 C 0.07872 0.69033 0.40219 0.0
H373 H 0.04151 0.65313 0.37937 0.0
C374 C 0.0273 0.66397 0.33132 0.0
O375 O 1.00172 0.69437 0.3465 0.0
O376 O 0.00787 0.68354 0.3828 0.0
N377 N 0.08541 0.71346 0.37136 0.0
C378 C 0.09617 0.73061 0.36134 0.0
C379 C 0.11167 0.74335 0.37567 0.0
C380 C 0.11616 0.73821 0.39986 0.0
C381 C 0.10523 0.72029 0.40935 0.0
C382 C 0.08991 0.70822 0.39426 0.0
H383 H 0.09288 0.73461 0.34266 0.0
O384 O 0.03763 0.71898 0.37649 0.0
O385 O 0.04766 0.69926 0.37259 0.0
O386 O 0.04061 0.71016 0.32187 0.0
O387 O 0.06609 0.70755 0.32361 0.0
C388 C 0.10901 0.71389 0.43309 0.0
C389 C 0.09737 0.69569 0.44146 0.0
H390 H 0.07192 0.65981 0.45114 0.0
H391 H 0.04583 0.64029 0.4213 0.0
H392 H 0.12013 0.7571 0.36809 0.0
H393 H 0.12811 0.74808 0.41088 0.0
H394 H 0.12088 0.72283 0.44501 0.0
H395 H 0.10035 0.69097 0.45984 0.0
Mn396 Mn 0.30947 0.3384 0.33935 0.0
Mn397 Mn 0.27236 0.29634 0.33171 0.0
C398 C 0.28752 0.33404 0.30787 0.0
C399 C 0.33996 0.35907 0.32891 0.0
C400 C 0.2769 0.32193 0.37718 0.0
O401 O 0.31666 0.32152 0.35901 0.0
O402 O 0.29211 0.29385 0.35004 0.0
C403 C 0.28822 0.28132 0.29406 0.0
N404 N 0.27493 0.28548 0.30021 0.0
C405 C 0.25886 0.27263 0.2594 0.0
C406 C 0.27232 0.26813 0.25266 0.0
C407 C 0.28712 0.27259 0.27001 0.0
C408 C 0.2608 0.28152 0.2835 0.0
H409 H 0.29955 0.28462 0.30742 0.0
C410 C 0.30797 0.30401 0.3603 0.0
O411 O 0.33288 0.36059 0.35073 0.0
O412 O 0.32951 0.34534 0.31375 0.0
N413 N 0.25201 0.29628 0.31398 0.0
C414 C 0.24087 0.30266 0.32254 0.0
C415 C 0.22555 0.29962 0.30725 0.0
C416 C 0.2218 0.28999 0.28333 0.0
C417 C 0.2335 0.28363 0.27481 0.0
C418 C 0.24854 0.28705 0.29092 0.0
H419 H 0.244 0.31054 0.34045 0.0
O420 O 0.29903 0.35045 0.31619 0.0
O421 O 0.28948 0.32074 0.31798 0.0
O422 O 0.29195 0.33555 0.36932 0.0
O423 O 0.26864 0.30669 0.36466 0.0
C424 C 0.23092 0.27413 0.25088 0.0
C425 C 0.24366 0.26876 0.24308 0.0
H426 H 0.27148 0.26133 0.23417 0.0
H427 H 0.2976 0.26922 0.26492 0.0
H428 H 0.21675 0.30483 0.31378 0.0
H429 H 0.21001 0.28775 0.27153 0.0
H430 H 0.21926 0.271 0.23819 0.0
H431 H 0.2417 0.26177 0.22442 0.0
Mn432 Mn 0.33373 0.03042 0.66889 0.0
Mn433 Mn 0.37529 0.0681 0.66258 0.0
C434 C 0.33792 0.0521 0.63724 0.0
C435 C 0.3136 0.99969 0.65804 0.0
C436 C 0.34937 0.06301 0.70736 0.0
O437 O 0.35072 0.02371 0.68926 0.0
O438 O 0.37817 0.04849 0.68075 0.0
C439 C 0.39146 0.0531 0.62537 0.0
N440 N 0.38663 0.06599 0.6314 0.0
C441 C 0.39973 0.08256 0.59135 0.0
C442 C 0.40485 0.06947 0.5847 0.0
C443 C 0.40061 0.05463 0.60174 0.0
C444 C 0.39045 0.0802 0.61502 0.0
H445 H 0.38842 0.04181 0.63854 0.0
C446 C 0.36817 0.03256 0.69078 0.0
O447 O 0.31183 0.00682 0.67973 0.0
O448 O 0.32732 0.01023 0.64328 0.0
N449 N 0.37482 0.08822 0.64492 0.0
C450 C 0.36744 0.09866 0.65291 0.0
C451 C 0.3701 0.1139 0.63778 0.0
C452 C 0.38026 0.11821 0.6145 0.0
C453 C 0.38744 0.10707 0.60638 0.0
C454 C 0.38436 0.09208 0.6223 0.0
H455 H 0.35899 0.09494 0.67009 0.0
O456 O 0.32158 0.04043 0.6451 0.0
O457 O 0.35124 0.0505 0.648 0.0
O458 O 0.33593 0.04797 0.69876 0.0
O459 O 0.36466 0.07151 0.69541 0.0
C460 C 0.39738 0.11013 0.58297 0.0
C461 C 0.40339 0.0978 0.57534 0.0
H462 H 0.41198 0.07065 0.56654 0.0
H463 H 0.40449 0.04445 0.59676 0.0
H464 H 0.36413 0.12216 0.64387 0.0
H465 H 0.38217 0.1299 0.60279 0.0
H466 H 0.40035 0.12182 0.57053 0.0
H467 H 0.4107 0.1001 0.55705 0.0
Mn468 Mn 0.97511 0.30603 0.68676 0.0
Mn469 Mn 0.97955 0.26817 0.69164 0.0
C470 C 0.95819 0.28377 0.71759 0.0
C471 C 0.98515 0.33644 0.69886 0.0
C472 C 0.95845 0.27425 0.64697 0.0
O473 O 0.99853 0.31302 0.66665 0.0
O474 O 1.00171 0.2881 0.67449 0.0
C475 C 0.01034 0.28226 0.73007 0.0
N476 N 0.99286 0.26957 0.72322 0.0
C477 C 0.98912 0.25283 0.76353 0.0
C478 C 0.00709 0.26569 0.77099 0.0
C479 C 0.01772 0.28051 0.75421 0.0
C480 C 0.98246 0.25536 0.7393 0.0
H481 H 0.01856 0.29363 0.71719 0.0
C482 C 0.00728 0.30418 0.66492 0.0
O483 O 0.97607 0.32973 0.677 0.0
O484 O 0.98887 0.32575 0.71311 0.0
N485 N 0.95921 0.2478 0.70817 0.0
C486 C 0.94166 0.23751 0.69921 0.0
C487 C 0.92914 0.22225 0.71385 0.0
C488 C 0.93475 0.2178 0.73769 0.0
C489 C 0.9528 0.22876 0.74675 0.0
C490 C 0.9647 0.2437 0.7312 0.0
H491 H 0.93708 0.24131 0.68153 0.0
O492 O 0.95334 0.29565 0.71018 0.0
O493 O 0.97297 0.28552 0.70686 0.0
O494 O 0.95973 0.28904 0.65631 0.0
O495 O 0.96561 0.26561 0.65849 0.0
C496 C 0.9594 0.22558 0.77078 0.0
C497 C 0.97749 0.23769 0.77928 0.0
H498 H 0.01284 0.26437 0.78959 0.0
H499 H 0.03159 0.29053 0.75986 0.0
H500 H 0.91512 0.21411 0.70699 0.0
H501 H 0.925 0.20616 0.74909 0.0
H502 H 0.95064 0.21393 0.78299 0.0
H503 H 0.9823 0.23529 0.79802 0.0
Mn504 Mn 0.69069 0.66244 0.68657 0.0
Mn505 Mn 0.72952 0.70359 0.68636 0.0
C506 C 0.71382 0.66837 0.71719 0.0
C507 C 0.66095 0.64402 0.70168 0.0
C508 C 0.72082 0.67342 0.646 0.0
O509 O 0.68373 0.67847 0.66402 0.0
O510 O 0.7094 0.70596 0.66891 0.0
C511 C 0.71729 0.72293 0.72255 0.0
N512 N 0.72939 0.71713 0.71652 0.0
C513 C 0.74637 0.72977 0.75682 0.0
C514 C 0.73417 0.73598 0.76339 0.0
C515 C 0.71953 0.7325 0.7462 0.0
C516 C 0.74336 0.72018 0.73309 0.0
H517 H 0.70595 0.72018 0.7095 0.0
C518 C 0.69299 0.69583 0.66036 0.0
O519 O 0.66642 0.63998 0.68016 0.0
O520 O 0.67238 0.65918 0.71347 0.0
N521 N 0.75018 0.70363 0.70293 0.0
C522 C 0.76139 0.69777 0.69294 0.0
C523 C 0.77692 0.70052 0.70742 0.0
C524 C 0.78106 0.70975 0.73171 0.0
C525 C 0.76976 0.71636 0.74111 0.0
C526 C 0.75451 0.71325 0.72573 0.0
H527 H 0.75874 0.69143 0.6738 0.0
O528 O 0.70138 0.65163 0.71184 0.0
O529 O 0.71225 0.68106 0.70435 0.0
O530 O 0.70588 0.66122 0.65619 0.0
O531 O 0.73051 0.68977 0.65512 0.0
C532 C 0.77315 0.7261 0.76496 0.0
C533 C 0.76138 0.73266 0.77294 0.0
H534 H 0.73586 0.74338 0.78159 0.0
H535 H 0.70999 0.73716 0.75119 0.0
H536 H 0.78577 0.69569 0.69976 0.0
H537 H 0.79304 0.71185 0.74286 0.0
H538 H 0.78479 0.72861 0.77733 0.0
H539 H 0.76405 0.74002 0.79142 0.0
Mn540 Mn 0.33518 0.30995 0.6707 0.0
Mn541 Mn 0.37668 0.31263 0.67442 0.0
C542 C 0.34202 0.29249 0.64241 0.0
C543 C 0.31621 0.32064 0.65356 0.0
C544 C 0.34682 0.29249 0.71466 0.0
O545 O 0.35054 0.33347 0.69153 0.0
O546 O 0.37844 0.33561 0.68935 0.0
C547 C 0.39748 0.34303 0.63696 0.0
N548 N 0.3907 0.32514 0.6441 0.0
C549 C 0.40425 0.31935 0.60643 0.0
C550 C 0.41108 0.33764 0.59844 0.0
C551 C 0.40771 0.34955 0.61382 0.0
C552 C 0.39402 0.31362 0.62957 0.0
H553 H 0.39523 0.35226 0.64895 0.0
C554 C 0.36776 0.34178 0.69613 0.0
O555 O 0.31251 0.31168 0.67568 0.0
O556 O 0.33114 0.32386 0.64186 0.0
N557 N 0.3767 0.29137 0.66057 0.0
C558 C 0.36944 0.27421 0.67124 0.0
C559 C 0.37203 0.26077 0.65864 0.0
C560 C 0.38219 0.26513 0.63536 0.0
C561 C 0.38974 0.28295 0.62496 0.0
C562 C 0.38678 0.2958 0.63845 0.0
H563 H 0.36168 0.27076 0.68919 0.0
O564 O 0.32514 0.28791 0.64703 0.0
O565 O 0.35429 0.30701 0.65483 0.0
O566 O 0.33445 0.29477 0.70311 0.0
O567 O 0.36306 0.29894 0.70595 0.0
C568 C 0.40012 0.28845 0.60178 0.0
C569 C 0.40725 0.3066 0.59239 0.0
H570 H 0.41903 0.34273 0.58065 0.0
H571 H 0.41308 0.36374 0.60795 0.0
H572 H 0.36616 0.24706 0.66681 0.0
H573 H 0.38407 0.2547 0.62562 0.0
H574 H 0.40272 0.27884 0.59103 0.0
H575 H 0.41512 0.31064 0.57444 0.0
Mn576 Mn 0.69418 0.02817 0.68912 0.0
Mn577 Mn 0.73236 0.02414 0.68947 0.0
C578 C 0.71799 0.04534 0.71867 0.0
C579 C 0.66454 0.01846 0.70367 0.0
C580 C 0.72407 0.04514 0.64738 0.0
O581 O 0.68605 0.00436 0.66893 0.0
O582 O 0.71148 0.00164 0.67321 0.0
C583 C 0.72106 0.99328 0.72713 0.0
N584 N 0.73272 0.01105 0.72035 0.0
C585 C 0.75097 0.01569 0.75959 0.0
C586 C 0.73897 0.99751 0.76714 0.0
C587 C 0.72395 0.98626 0.75082 0.0
C588 C 0.74726 0.02198 0.73588 0.0
H589 H 0.70975 0.98453 0.71445 0.0
C590 C 0.69486 0.99572 0.66548 0.0
O591 O 0.67032 0.0273 0.68161 0.0
O592 O 0.67574 0.01488 0.71691 0.0
N593 N 0.75337 0.04478 0.70475 0.0
C594 C 0.76373 0.06197 0.69457 0.0
C595 C 0.77945 0.07487 0.70834 0.0
C596 C 0.7845 0.06989 0.73222 0.0
C597 C 0.77382 0.05203 0.74205 0.0
C598 C 0.7583 0.03977 0.72748 0.0
H599 H 0.76 0.06587 0.67616 0.0
O600 O 0.70603 0.05037 0.7126 0.0
O601 O 0.71564 0.03048 0.7071 0.0
O602 O 0.70919 0.0429 0.65726 0.0
O603 O 0.73354 0.03842 0.65753 0.0
C604 C 0.77801 0.04589 0.7657 0.0
C605 C 0.7665 0.02779 0.7746 0.0
H606 H 0.74122 0.99203 0.78535 0.0
H607 H 0.7147 0.97217 0.7564 0.0
H608 H 0.78764 0.08861 0.70058 0.0
H609 H 0.7966 0.07989 0.74283 0.0
H610 H 0.79007 0.05498 0.77717 0.0
H611 H 0.76977 0.02329 0.79295 0.0
Mn612 Mn 0.97786 0.67761 0.67566 0.0
Mn613 Mn 0.94025 0.63543 0.67658 0.0
C614 C 0.95362 0.67066 0.64658 0.0
C615 C 0.00706 0.69736 0.65962 0.0
C616 C 0.94861 0.66454 0.71832 0.0
O617 O 0.9867 0.66224 0.69591 0.0
O618 O 0.96163 0.6341 0.69192 0.0
C619 C 0.95162 0.61655 0.63817 0.0
N620 N 0.93972 0.62228 0.64554 0.0
C621 C 0.92124 0.60921 0.60649 0.0
C622 C 0.93342 0.60334 0.59838 0.0
C623 C 0.94867 0.60701 0.61431 0.0
C624 C 0.92497 0.61877 0.63038 0.0
H625 H 0.96322 0.6192 0.65044 0.0
C626 C 0.97824 0.64485 0.6994 0.0
O627 O 1.00171 0.70066 0.68182 0.0
O628 O 0.99574 0.68245 0.64725 0.0
N629 N 0.91876 0.63483 0.66214 0.0
C630 C 0.90809 0.64105 0.67308 0.0
C631 C 0.89191 0.6379 0.66007 0.0
C632 C 0.8868 0.62827 0.63607 0.0
C633 C 0.89789 0.62182 0.62535 0.0
C634 C 0.91373 0.62518 0.63936 0.0
H635 H 0.91187 0.64838 0.6916 0.0
O636 O 0.96537 0.68762 0.65219 0.0
O637 O 0.95634 0.65841 0.65853 0.0
O638 O 0.96309 0.67735 0.70783 0.0
O639 O 0.9394 0.64833 0.70869 0.0
C640 C 0.89382 0.61217 0.60131 0.0
C641 C 0.90555 0.60597 0.5918 0.0
H642 H 0.93117 0.59595 0.58 0.0
H643 H 0.95811 0.60246 0.60826 0.0
H644 H 0.88343 0.64292 0.66849 0.0
H645 H 0.87439 0.62598 0.626 0.0
H646 H 0.88174 0.60949 0.58994 0.0
H647 H 0.90234 0.59865 0.57322 0.0
H648 H 0.24615 0.35097 0.15982 0.0
N649 N 0.21694 0.31928 0.14061 0.0
H650 H 0.2621 0.35432 0.2019 0.0
H651 H 0.20612 0.2954 0.18045 0.0
H652 H 0.22158 0.29926 0.2234 0.0
H653 H 0.22881 0.2977 0.12127 0.0
H654 H 0.25533 0.30687 0.09279 0.0
H655 H 0.23465 0.35169 0.11342 0.0
H656 H 0.26133 0.36096 0.08493 0.0
H657 H 0.21149 0.34617 0.16281 0.0
H658 H 0.188 0.30002 0.10948 0.0
H659 H 0.18308 0.34725 0.16179 0.0
H660 H 0.15995 0.30192 0.1065 0.0
H661 H 0.06992 0.32641 0.15409 0.0
H662 H 0.06138 0.3332 0.19607 0.0
H663 H 0.10633 0.33088 0.2342 0.0
H664 H 0.11528 0.32393 0.19212 0.0
H665 H 0.07047 0.2978 0.11225 0.0
H666 H 0.05462 0.3071 0.07962 0.0
H667 H 0.0958 0.36385 0.0908 0.0
H668 H 0.1109 0.35472 0.12428 0.0
H669 H 0.13197 0.35112 0.1472 0.0
H670 H 0.16165 0.35305 0.1416 0.0
H671 H 0.13452 0.294 0.13146 0.0
N672 N 0.0982 0.31989 0.14372 0.0
H673 H 0.10493 0.29259 0.13485 0.0
C674 C 0.22515 0.32266 0.16666 0.0
C675 C 0.24066 0.33954 0.17342 0.0
C676 C 0.24971 0.34154 0.19752 0.0
C677 C 0.24314 0.32691 0.21548 0.0
C678 C 0.22697 0.31055 0.20958 0.0
C679 C 0.21814 0.30839 0.18522 0.0
C680 C 0.22979 0.32397 0.11944 0.0
C681 C 0.23548 0.31133 0.1127 0.0
C682 C 0.2506 0.31657 0.09657 0.0
C683 C 0.26029 0.33459 0.08691 0.0
C684 C 0.25394 0.34697 0.09217 0.0
C685 C 0.23874 0.34168 0.10833 0.0
C686 C 0.20175 0.32264 0.13666 0.0
C687 C 0.20035 0.33647 0.15041 0.0
C688 C 0.18402 0.33719 0.14959 0.0
C689 C 0.16887 0.32441 0.13448 0.0
C690 C 0.17096 0.31158 0.11914 0.0
C691 C 0.18711 0.31062 0.12047 0.0
C692 C 0.09414 0.32562 0.16876 0.0
C693 C 0.07851 0.32781 0.17098 0.0
C694 C 0.07337 0.33153 0.19517 0.0
C695 C 0.08333 0.33274 0.2181 0.0
C696 C 0.09862 0.33022 0.21654 0.0
C697 C 0.10382 0.32645 0.19225 0.0
C698 C 0.092 0.32546 0.12049 0.0
C699 C 0.07637 0.31218 0.10702 0.0
C700 C 0.06732 0.31748 0.08853 0.0
C701 C 0.07406 0.33616 0.08284 0.0
C702 C 0.09047 0.34936 0.09483 0.0
C703 C 0.09925 0.34411 0.11375 0.0
C704 C 0.11613 0.32168 0.14086 0.0
C705 C 0.13239 0.33869 0.14292 0.0
C706 C 0.14946 0.3397 0.14022 0.0
C707 C 0.1507 0.3237 0.13589 0.0
C708 C 0.13431 0.30673 0.13403 0.0
C709 C 0.11731 0.30581 0.13626 0.0
H710 H 0.71708 0.79714 0.16864 0.0
N711 N 0.69049 0.78856 0.13298 0.0
H712 H 0.71462 0.78249 0.21174 0.0
H713 H 0.65887 0.76286 0.15648 0.0
H714 H 0.65652 0.7482 0.19926 0.0
H715 H 0.71014 0.77523 0.11162 0.0
H716 H 0.6988 0.74751 0.08428 0.0
H717 H 0.65657 0.77031 0.10948 0.0
H718 H 0.64515 0.74247 0.0821 0.0
H719 H 0.70798 0.8162 0.0995 0.0
H720 H 0.66532 0.79556 0.15747 0.0
H721 H 0.70598 0.84427 0.09551 0.0
H722 H 0.66432 0.82396 0.1554 0.0
H723 H 0.71743 0.92595 0.1716 0.0
H724 H 0.71467 0.93697 0.21516 0.0
H725 H 0.65611 0.91055 0.20452 0.0
H726 H 0.65885 0.89964 0.16096 0.0
H727 H 0.65726 0.89343 0.11117 0.0
H728 H 0.64669 0.91033 0.08323 0.0
H729 H 0.6997 0.95891 0.09009 0.0
H730 H 0.71049 0.94184 0.11784 0.0
H731 H 0.71693 0.90092 0.12213 0.0
H732 H 0.7152 0.87107 0.11822 0.0
H733 H 0.65733 0.84436 0.13535 0.0
N734 N 0.69083 0.90797 0.13639 0.0
H735 H 0.65972 0.87431 0.14138 0.0
C736 C 0.68826 0.78109 0.15928 0.0
C737 C 0.7038 0.78668 0.17542 0.0
C738 C 0.70241 0.77834 0.1999 0.0
C739 C 0.68542 0.76426 0.20852 0.0
C740 C 0.66974 0.75905 0.19285 0.0
C741 C 0.67112 0.76738 0.16841 0.0
C742 C 0.68424 0.77479 0.11257 0.0
C743 C 0.69609 0.76847 0.10456 0.0
C744 C 0.68962 0.75267 0.08909 0.0
C745 C 0.67115 0.74295 0.08137 0.0
C746 C 0.65946 0.74986 0.0879 0.0
C747 C 0.66597 0.76572 0.10343 0.0
C748 C 0.68716 0.80383 0.12907 0.0
C749 C 0.69816 0.81771 0.11133 0.0
C750 C 0.69714 0.83388 0.10938 0.0
C751 C 0.6853 0.83677 0.1256 0.0
C752 C 0.67356 0.82238 0.1424 0.0
C753 C 0.67429 0.80602 0.14386 0.0
C754 C 0.68842 0.91199 0.16311 0.0
C755 C 0.70398 0.92222 0.17895 0.0
C756 C 0.70242 0.92846 0.20372 0.0
C757 C 0.68521 0.92453 0.213 0.0
C758 C 0.6695 0.91363 0.19768 0.0
C759 C 0.67107 0.90738 0.17287 0.0
C760 C 0.68484 0.91633 0.11649 0.0
C761 C 0.66685 0.90751 0.10623 0.0
C762 C 0.66074 0.91718 0.09031 0.0
C763 C 0.67242 0.93585 0.08466 0.0
C764 C 0.69053 0.94449 0.09413 0.0
C765 C 0.69668 0.93477 0.10982 0.0
C766 C 0.6885 0.88995 0.13163 0.0
C767 C 0.70386 0.88857 0.12476 0.0
C768 C 0.70275 0.8714 0.12232 0.0
C769 C 0.68606 0.85506 0.1263 0.0
C770 C 0.6705 0.85651 0.13249 0.0
C771 C 0.67176 0.87375 0.13551 0.0
H772 H 0.11499 0.7636 0.16916 0.0
N773 N 0.10101 0.7827 0.14242 0.0
H774 H 0.10467 0.74807 0.21151 0.0
H775 H 0.07537 0.7821 0.17311 0.0
H776 H 0.0641 0.76539 0.21487 0.0
H777 H 0.0698 0.77267 0.11664 0.0
H778 H 0.05412 0.74694 0.08552 0.0
H779 H 0.11569 0.76301 0.12073 0.0
H780 H 0.10015 0.73746 0.08946 0.0
H781 H 0.136 0.78787 0.14756 0.0
H782 H 0.10512 0.81533 0.12981 0.0
H783 H 0.16434 0.81697 0.14546 0.0
H784 H 0.13362 0.84459 0.12616 0.0
H785 H 0.23431 0.93591 0.16269 0.0
H786 H 0.25158 0.94503 0.20451 0.0
H787 H 0.23957 0.88911 0.21706 0.0
H788 H 0.22318 0.88018 0.17451 0.0
H789 H 0.22245 0.92836 0.10472 0.0
H790 H 0.24854 0.94529 0.0753 0.0
H791 H 0.26987 0.9096 0.09815 0.0
H792 H 0.24427 0.89329 0.12839 0.0
H793 H 0.21396 0.87015 0.12075 0.0
H794 H 0.1855 0.84097 0.1187 0.0
H795 H 0.15693 0.86676 0.15305 0.0
N796 N 0.21847 0.90303 0.1399 0.0
H797 H 0.18539 0.89613 0.15384 0.0
C798 C 0.09633 0.77458 0.16829 0.0
C799 C 0.10441 0.76476 0.17934 0.0
C800 C 0.09832 0.75563 0.2034 0.0
C801 C 0.08362 0.75558 0.21636 0.0
C802 C 0.07553 0.76535 0.2053 0.0
C803 C 0.08196 0.7749 0.1816 0.0
C804 C 0.0939 0.76983 0.12088 0.0
C805 C 0.07668 0.76533 0.11024 0.0
C806 C 0.06775 0.75068 0.0926 0.0
C807 C 0.076 0.74034 0.08524 0.0
C808 C 0.09364 0.74536 0.09485 0.0
C809 C 0.10252 0.75997 0.11266 0.0
C810 C 0.11826 0.7994 0.13927 0.0
C811 C 0.13522 0.80009 0.14302 0.0
C812 C 0.15158 0.81686 0.14149 0.0
C813 C 0.1514 0.8333 0.13583 0.0
C814 C 0.13438 0.83237 0.13117 0.0
C815 C 0.11805 0.81563 0.133 0.0
C816 C 0.22721 0.90737 0.1656 0.0
C817 C 0.23533 0.92561 0.17451 0.0
C818 C 0.24521 0.93081 0.19823 0.0
C819 C 0.2468 0.91773 0.21382 0.0
C820 C 0.23843 0.89937 0.20526 0.0
C821 C 0.22898 0.89427 0.18108 0.0
C822 C 0.23123 0.90942 0.11843 0.0
C823 C 0.23243 0.92383 0.1027 0.0
C824 C 0.24732 0.93349 0.08604 0.0
C825 C 0.26115 0.92872 0.08462 0.0
C826 C 0.25928 0.91343 0.09888 0.0
C827 C 0.24458 0.904 0.11594 0.0
C828 C 0.20183 0.88554 0.13719 0.0
C829 C 0.2016 0.86969 0.12748 0.0
C830 C 0.18523 0.85284 0.12658 0.0
C831 C 0.16877 0.85138 0.13567 0.0
C832 C 0.16914 0.86731 0.14533 0.0
C833 C 0.18544 0.88414 0.14597 0.0
H834 H 0.30067 0.2374 0.86386 0.0
N835 N 0.31958 0.2229 0.88593 0.0
H836 H 0.30687 0.25435 0.82201 0.0
H837 H 0.34608 0.22808 0.85003 0.0
H838 H 0.35158 0.24411 0.80788 0.0
H839 H 0.29935 0.22567 0.92346 0.0
H840 H 0.30867 0.25132 0.95451 0.0
H841 H 0.35474 0.24989 0.89578 0.0
H842 H 0.36409 0.27557 0.92682 0.0
H843 H 0.34953 0.21824 0.89333 0.0
H844 H 0.29081 0.1894 0.8851 0.0
H845 H 0.34962 0.18906 0.89214 0.0
H846 H 0.29048 0.16006 0.88592 0.0
H847 H 0.35068 0.12059 0.85197 0.0
H848 H 0.35881 0.11121 0.81079 0.0
H849 H 0.30328 0.06675 0.80229 0.0
H850 H 0.29549 0.07557 0.84434 0.0
H851 H 0.29479 0.07409 0.90673 0.0
H852 H 0.30229 0.05543 0.93681 0.0
H853 H 0.35978 0.09207 0.92434 0.0
H854 H 0.35237 0.1106 0.89438 0.0
H855 H 0.34305 0.13212 0.90644 0.0
H856 H 0.34343 0.16123 0.91153 0.0
H857 H 0.29654 0.14186 0.85891 0.0
N858 N 0.31793 0.10209 0.87709 0.0
H859 H 0.29559 0.11241 0.85538 0.0
C860 C 0.32264 0.23117 0.86007 0.0
C861 C 0.3117 0.23867 0.85161 0.0
C862 C 0.31525 0.24834 0.82787 0.0
C863 C 0.32961 0.25036 0.81188 0.0
C864 C 0.34036 0.24256 0.81993 0.0
C865 C 0.33711 0.2333 0.84402 0.0
C866 C 0.32632 0.2358 0.90749 0.0
C867 C 0.31361 0.23621 0.92472 0.0
C868 C 0.3189 0.25085 0.94227 0.0
C869 C 0.33704 0.26533 0.94285 0.0
C870 C 0.35005 0.26446 0.92669 0.0
C871 C 0.34474 0.24977 0.90913 0.0
C872 C 0.32012 0.20598 0.88872 0.0
C873 C 0.33661 0.20558 0.89165 0.0
C874 C 0.3366 0.18878 0.8912 0.0
C875 C 0.32007 0.17201 0.88842 0.0
C876 C 0.30357 0.17258 0.88713 0.0
C877 C 0.30366 0.18934 0.88701 0.0
C878 C 0.32253 0.09853 0.85136 0.0
C879 C 0.3403 0.1088 0.84132 0.0
C880 C 0.34488 0.10352 0.81777 0.0
C881 C 0.33166 0.0882 0.80359 0.0
C882 C 0.31369 0.07854 0.81299 0.0
C883 C 0.30924 0.08357 0.83682 0.0
C884 C 0.32292 0.09383 0.89844 0.0
C885 C 0.309 0.07839 0.9111 0.0
C886 C 0.31326 0.06772 0.92808 0.0
C887 C 0.33157 0.0724 0.93267 0.0
C888 C 0.34558 0.08831 0.92105 0.0
C889 C 0.34131 0.09892 0.904 0.0
C890 C 0.31908 0.1198 0.88064 0.0
C891 C 0.33273 0.13397 0.89615 0.0
C892 C 0.33303 0.15083 0.8989 0.0
C893 C 0.31991 0.15405 0.88588 0.0
C894 C 0.30657 0.13991 0.86997 0.0
C895 C 0.3061 0.12304 0.86765 0.0
H896 H 0.75918 0.10344 0.86412 0.0
N897 N 0.78636 0.09919 0.88804 0.0
H898 H 0.74417 0.09022 0.82182 0.0
H899 H 0.79614 0.08218 0.85286 0.0
H900 H 0.78138 0.0694 0.81 0.0
H901 H 0.77364 0.06656 0.91078 0.0
H902 H 0.74691 0.05104 0.93943 0.0
H903 H 0.76837 0.11531 0.91073 0.0
H904 H 0.74157 0.09978 0.93951 0.0
H905 H 0.79311 0.1307 0.86097 0.0
H906 H 0.81372 0.10983 0.92271 0.0
H907 H 0.8211 0.16018 0.86304 0.0
H908 H 0.84126 0.13981 0.92646 0.0
H909 H 0.8999 0.24523 0.86346 0.0
H910 H 0.91225 0.25977 0.8208 0.0
H911 H 0.93046 0.2206 0.80675 0.0
H912 H 0.91884 0.20652 0.85 0.0
H913 H 0.93733 0.23011 0.90779 0.0
H914 H 0.95415 0.25704 0.93654 0.0
H915 H 0.90642 0.26362 0.94005 0.0
H916 H 0.88967 0.23684 0.91125 0.0
H917 H 0.87081 0.21554 0.87889 0.0
H918 H 0.84092 0.18789 0.88331 0.0
H919 H 0.86802 0.1568 0.904 0.0
N920 N 0.9043 0.21791 0.88657 0.0
H921 H 0.89755 0.18477 0.9013 0.0
C922 C 0.77868 0.09356 0.86184 0.0
C923 C 0.76417 0.09607 0.85251 0.0
C924 C 0.75562 0.08857 0.82835 0.0
C925 C 0.76152 0.07863 0.81301 0.0
C926 C 0.77655 0.07689 0.82166 0.0
C927 C 0.78498 0.08421 0.846 0.0
C928 C 0.77296 0.09201 0.90866 0.0
C929 C 0.76701 0.07405 0.91759 0.0
C930 C 0.7518 0.06523 0.93384 0.0
C931 C 0.74228 0.07426 0.94146 0.0
C932 C 0.74882 0.09264 0.93386 0.0
C933 C 0.76407 0.10148 0.91751 0.0
C934 C 0.80143 0.11774 0.89132 0.0
C935 C 0.80349 0.13248 0.87534 0.0
C936 C 0.81957 0.14956 0.87676 0.0
C937 C 0.83379 0.15247 0.8946 0.0
C938 C 0.83101 0.13804 0.91182 0.0
C939 C 0.81514 0.1209 0.90997 0.0
C940 C 0.9088 0.22497 0.86011 0.0
C941 C 0.90645 0.23967 0.85122 0.0
C942 C 0.91345 0.24795 0.82687 0.0
C943 C 0.92254 0.24142 0.8109 0.0
C944 C 0.92373 0.22595 0.81896 0.0
C945 C 0.91705 0.21791 0.8435 0.0
C946 C 0.91228 0.2314 0.90735 0.0
C947 C 0.93034 0.23705 0.91539 0.0
C948 C 0.93991 0.25237 0.93172 0.0
C949 C 0.93151 0.26229 0.94034 0.0
C950 C 0.91307 0.25605 0.93367 0.0
C951 C 0.90352 0.24073 0.91722 0.0
C952 C 0.8864 0.20223 0.8903 0.0
C953 C 0.87022 0.20286 0.88508 0.0
C954 C 0.85311 0.1869 0.88724 0.0
C955 C 0.85184 0.16992 0.89413 0.0
C956 C 0.8682 0.16955 0.89937 0.0
C957 C 0.88519 0.18552 0.89764 0.0
H958 H 0.78008 0.71315 0.85994 0.0
N959 N 0.78253 0.68763 0.88837 0.0
H960 H 0.7648 0.70921 0.81693 0.0
H961 H 0.76799 0.65673 0.85774 0.0
H962 H 0.75161 0.65237 0.81556 0.0
H963 H 0.75719 0.6519 0.90009 0.0
H964 H 0.73113 0.6421 0.92942 0.0
H965 H 0.7771 0.70832 0.92267 0.0
H966 H 0.75093 0.6984 0.95234 0.0
H967 H 0.81488 0.71255 0.87067 0.0
H968 H 0.78799 0.66044 0.911 0.0
H969 H 0.84343 0.71177 0.8715 0.0
H970 H 0.8168 0.66011 0.91372 0.0
H971 H 0.9338 0.70834 0.86619 0.0
H972 H 0.9456 0.70341 0.82476 0.0
H973 H 0.89381 0.65456 0.81007 0.0
H974 H 0.88239 0.65885 0.85196 0.0
H975 H 0.8915 0.65113 0.90167 0.0
H976 H 0.90842 0.64161 0.9318 0.0
H977 H 0.94598 0.69845 0.95026 0.0
H978 H 0.92847 0.70786 0.92106 0.0
H979 H 0.89662 0.7152 0.89328 0.0
H980 H 0.86777 0.71541 0.89655 0.0
H981 H 0.83831 0.656 0.89139 0.0
N982 N 0.90164 0.6865 0.88806 0.0
H983 H 0.8673 0.65604 0.8905 0.0
C984 C 0.77483 0.68518 0.86218 0.0
C985 C 0.77417 0.69996 0.85007 0.0
C986 C 0.7655 0.69771 0.8256 0.0
C987 C 0.75696 0.68048 0.81309 0.0
C988 C 0.75804 0.66577 0.82491 0.0
C989 C 0.7672 0.66819 0.84908 0.0
C990 C 0.76926 0.68095 0.90923 0.0
C991 C 0.75629 0.66217 0.91179 0.0
C992 C 0.74135 0.65653 0.92851 0.0
C993 C 0.73912 0.66954 0.94294 0.0
C994 C 0.75249 0.68817 0.94143 0.0
C995 C 0.76742 0.6938 0.92467 0.0
C996 C 0.79923 0.68671 0.89084 0.0
C997 C 0.81523 0.70106 0.88012 0.0
C998 C 0.83165 0.70065 0.8809 0.0
C999 C 0.83271 0.68597 0.89299 0.0
C1000 C 0.81662 0.67157 0.90393 0.0
C1001 C 0.80002 0.67182 0.90262 0.0
C1002 C 0.90713 0.68421 0.86215 0.0
C1003 C 0.92493 0.69668 0.85389 0.0
C1004 C 0.93166 0.69385 0.83038 0.0
C1005 C 0.92053 0.67867 0.81435 0.0
C1006 C 0.90255 0.66642 0.82214 0.0
C1007 C 0.89599 0.66897 0.84606 0.0
C1008 C 0.90862 0.68024 0.90944 0.0
C1009 C 0.9028 0.66148 0.91314 0.0
C1010 C 0.91255 0.65607 0.93018 0.0
C1011 C 0.92852 0.66935 0.94314 0.0
C1012 C 0.93367 0.688 0.94057 0.0
C1013 C 0.9237 0.69336 0.92399 0.0
C1014 C 0.8842 0.68573 0.89105 0.0
C1015 C 0.88389 0.70225 0.8931 0.0
C1016 C 0.8673 0.70229 0.89466 0.0
C1017 C 0.85046 0.68573 0.89363 0.0
C1018 C 0.85086 0.66907 0.89238 0.0
C1019 C 0.86754 0.66906 0.89146 0.0
H1020 H 0.73435 0.62772 0.50044 0.0
N1021 N 0.76497 0.65013 0.47544 0.0
H1022 H 0.72376 0.63321 0.54261 0.0
H1023 H 0.78424 0.67962 0.50803 0.0
H1024 H 0.77365 0.68514 0.55032 0.0
H1025 H 0.77535 0.686 0.46419 0.0
H1026 H 0.76001 0.69668 0.43317 0.0
H1027 H 0.7386 0.62995 0.44095 0.0
H1028 H 0.72256 0.64059 0.41076 0.0
H1029 H 0.77385 0.62613 0.49509 0.0
H1030 H 0.7966 0.67706 0.45164 0.0
H1031 H 0.80327 0.62705 0.49395 0.0
H1032 H 0.82568 0.67755 0.44911 0.0
H1033 H 0.8863 0.62506 0.50407 0.0
H1034 H 0.90114 0.62842 0.54741 0.0
H1035 H 0.91506 0.68544 0.54958 0.0
H1036 H 0.89943 0.68181 0.50728 0.0
H1037 H 0.91428 0.68579 0.46822 0.0
H1038 H 0.93997 0.69345 0.43917 0.0
H1039 H 0.91089 0.63919 0.40499 0.0
H1040 H 0.88568 0.63099 0.43586 0.0
H1041 H 0.85174 0.62274 0.46926 0.0
H1042 H 0.82272 0.62279 0.46662 0.0
H1043 H 0.85201 0.68216 0.47241 0.0
N1044 N 0.88495 0.65123 0.47562 0.0
H1045 H 0.88102 0.68186 0.473 0.0
C1046 C 0.76004 0.65318 0.50125 0.0
C1047 C 0.74307 0.64017 0.5114 0.0
C1048 C 0.73703 0.64333 0.53528 0.0
C1049 C 0.74793 0.65958 0.5494 0.0
C1050 C 0.76509 0.67253 0.53959 0.0
C1051 C 0.77112 0.66938 0.51559 0.0
C1052 C 0.7584 0.65713 0.45439 0.0
C1053 C 0.76435 0.67602 0.45188 0.0
C1054 C 0.75548 0.68212 0.43435 0.0
C1055 C 0.74015 0.66942 0.41968 0.0
C1056 C 0.73445 0.65061 0.42173 0.0
C1057 C 0.74362 0.64456 0.43881 0.0
C1058 C 0.78273 0.65135 0.47344 0.0
C1059 C 0.78513 0.6374 0.48503 0.0
C1060 C 0.80198 0.6379 0.48411 0.0
C1061 C 0.81695 0.65227 0.47111 0.0
C1062 C 0.81459 0.66634 0.45952 0.0
C1063 C 0.79773 0.66598 0.46082 0.0
C1064 C 0.89198 0.65318 0.5022 0.0
C1065 C 0.89223 0.63815 0.5142 0.0
C1066 C 0.90067 0.64007 0.53884 0.0
C1067 C 0.90934 0.65723 0.5516 0.0
C1068 C 0.90852 0.67211 0.54002 0.0
C1069 C 0.89967 0.67005 0.51573 0.0
C1070 C 0.89822 0.65755 0.45482 0.0
C1071 C 0.9133 0.67547 0.45461 0.0
C1072 C 0.92798 0.67992 0.43783 0.0
C1073 C 0.92754 0.66677 0.42027 0.0
C1074 C 0.91166 0.64946 0.41866 0.0
C1075 C 0.89725 0.64482 0.4361 0.0
C1076 C 0.86843 0.6522 0.47179 0.0
C1077 C 0.85183 0.63575 0.46958 0.0
C1078 C 0.83525 0.63584 0.46843 0.0
C1079 C 0.83485 0.65246 0.46994 0.0
C1080 C 0.85167 0.66907 0.47116 0.0
C1081 C 0.86832 0.66895 0.47183 0.0
H1082 H 0.32233 0.09046 0.48539 0.0
N1083 N 0.35431 0.11959 0.46757 0.0
H1084 H 0.31816 0.07519 0.52814 0.0
H1085 H 0.37691 0.13154 0.50907 0.0
H1086 H 0.37213 0.11689 0.55259 0.0
H1087 H 0.32238 0.10292 0.4383 0.0
H1088 H 0.31265 0.07614 0.40955 0.0
H1089 H 0.37484 0.10607 0.44994 0.0
H1090 H 0.36509 0.07927 0.42108 0.0
H1091 H 0.38143 0.15253 0.45544 0.0
H1092 H 0.3238 0.12324 0.47193 0.0
H1093 H 0.38101 0.18146 0.45433 0.0
H1094 H 0.32278 0.15196 0.46913 0.0
H1095 H 0.38531 0.25912 0.50907 0.0
H1096 H 0.3829 0.27139 0.55187 0.0
H1097 H 0.32449 0.24644 0.54064 0.0
H1098 H 0.32686 0.23429 0.49797 0.0
H1099 H 0.37725 0.27413 0.45298 0.0
H1100 H 0.36551 0.28947 0.42335 0.0
H1101 H 0.31295 0.24001 0.42054 0.0
H1102 H 0.32466 0.22473 0.45034 0.0
H1103 H 0.37587 0.23113 0.43977 0.0
H1104 H 0.37276 0.20082 0.43315 0.0
H1105 H 0.33122 0.1786 0.49312 0.0
N1106 N 0.35856 0.24085 0.47397 0.0
H1107 H 0.33347 0.20845 0.4981 0.0
C1108 C 0.35024 0.11188 0.49374 0.0
C1109 C 0.33333 0.09636 0.49981 0.0
C1110 C 0.33087 0.0877 0.52427 0.0
C1111 C 0.345 0.09477 0.54324 0.0
C1112 C 0.36126 0.11109 0.53799 0.0
C1113 C 0.36393 0.11945 0.5133 0.0
C1114 C 0.34943 0.10654 0.44632 0.0
C1115 C 0.33203 0.09828 0.43407 0.0
C1116 C 0.32643 0.08296 0.41768 0.0
C1117 C 0.33815 0.07575 0.41332 0.0
C1118 C 0.3559 0.0847 0.42415 0.0
C1119 C 0.36146 0.09997 0.44051 0.0
C1120 C 0.35268 0.13578 0.46339 0.0
C1121 C 0.36855 0.15235 0.458 0.0
C1122 C 0.36821 0.16888 0.45724 0.0
C1123 C 0.35183 0.16921 0.46156 0.0
C1124 C 0.33571 0.15238 0.46607 0.0
C1125 C 0.33617 0.13584 0.46724 0.0
C1126 C 0.35635 0.24579 0.50035 0.0
C1127 C 0.37197 0.25602 0.51611 0.0
C1128 C 0.3706 0.263 0.54044 0.0
C1129 C 0.35353 0.25978 0.54934 0.0
C1130 C 0.33777 0.24902 0.53406 0.0
C1131 C 0.33915 0.2421 0.50972 0.0
C1132 C 0.3519 0.24834 0.45373 0.0
C1133 C 0.36332 0.26651 0.44551 0.0
C1134 C 0.35664 0.27523 0.42873 0.0
C1135 C 0.3384 0.26584 0.41983 0.0
C1136 C 0.32709 0.24741 0.42718 0.0
C1137 C 0.33377 0.23871 0.44409 0.0
C1138 C 0.35528 0.22235 0.46972 0.0
C1139 C 0.36594 0.21963 0.45121 0.0
C1140 C 0.36423 0.20228 0.44766 0.0
C1141 C 0.35198 0.18717 0.46295 0.0
C1142 C 0.34073 0.18976 0.48078 0.0
C1143 C 0.34219 0.20707 0.48393 0.0
H1144 H 0.73386 0.10089 0.49879 0.0
N1145 N 0.76691 0.11606 0.47774 0.0
H1146 H 0.72384 0.08367 0.5403 0.0
H1147 H 0.78895 0.11168 0.51435 0.0
H1148 H 0.77909 0.09529 0.55651 0.0
H1149 H 0.74362 0.1127 0.43931 0.0
H1150 H 0.72765 0.08664 0.40876 0.0
H1151 H 0.7755 0.0889 0.46969 0.0
H1152 H 0.75975 0.06301 0.43895 0.0
H1153 H 0.80004 0.1198 0.46288 0.0
H1154 H 0.77333 0.1498 0.4877 0.0
H1155 H 0.82908 0.1485 0.45985 0.0
H1156 H 0.8024 0.17851 0.48586 0.0
H1157 H 0.91094 0.22648 0.49453 0.0
H1158 H 0.92822 0.23578 0.53609 0.0
H1159 H 0.89835 0.263 0.55924 0.0
H1160 H 0.88084 0.25357 0.51738 0.0
H1161 H 0.8973 0.26899 0.45824 0.0
H1162 H 0.92247 0.28533 0.42722 0.0
H1163 H 0.92619 0.23611 0.41696 0.0
H1164 H 0.90092 0.21973 0.44792 0.0
H1165 H 0.88122 0.20122 0.48728 0.0
H1166 H 0.85269 0.17202 0.48574 0.0
H1167 H 0.82424 0.20009 0.45709 0.0
N1168 N 0.88519 0.23549 0.47757 0.0
H1169 H 0.85278 0.22941 0.46 0.0
C1170 C 0.76214 0.10781 0.50358 0.0
C1171 C 0.74384 0.09986 0.51141 0.0
C1172 C 0.73812 0.09 0.53494 0.0
C1173 C 0.75074 0.08826 0.55141 0.0
C1174 C 0.76919 0.09656 0.54404 0.0
C1175 C 0.77482 0.10602 0.52007 0.0
C1176 C 0.76084 0.10286 0.45653 0.0
C1177 C 0.74759 0.10219 0.43874 0.0
C1178 C 0.73844 0.08732 0.42149 0.0
C1179 C 0.74252 0.07293 0.42171 0.0
C1180 C 0.7565 0.07405 0.43846 0.0
C1181 C 0.76557 0.08888 0.45582 0.0
C1182 C 0.78436 0.13267 0.47522 0.0
C1183 C 0.80036 0.13255 0.4676 0.0
C1184 C 0.81707 0.14903 0.46611 0.0
C1185 C 0.81818 0.16596 0.47244 0.0
C1186 C 0.80211 0.16589 0.48021 0.0
C1187 C 0.78546 0.14947 0.48148 0.0
C1188 C 0.89444 0.23925 0.50287 0.0
C1189 C 0.90783 0.23418 0.50857 0.0
C1190 C 0.91777 0.23955 0.53226 0.0
C1191 C 0.91457 0.2501 0.5506 0.0
C1192 C 0.90098 0.25486 0.54527 0.0
C1193 C 0.89099 0.24944 0.52154 0.0
C1194 C 0.89725 0.24322 0.45545 0.0
C1195 C 0.90317 0.26158 0.44869 0.0
C1196 C 0.91751 0.27088 0.43107 0.0
C1197 C 0.92619 0.26193 0.41993 0.0
C1198 C 0.91958 0.2432 0.42533 0.0
C1199 C 0.90518 0.23388 0.443 0.0
C1200 C 0.8691 0.21766 0.47417 0.0
C1201 C 0.8689 0.20116 0.48065 0.0
C1202 C 0.8525 0.18434 0.47953 0.0
C1203 C 0.83599 0.18361 0.47163 0.0
C1204 C 0.83652 0.20009 0.46394 0.0
C1205 C 0.85285 0.21687 0.46533 0.0
H1206 H 0.02086 0.58101 0.19799 0.0
N1207 N 0.98712 0.55472 0.21499 0.0
H1208 H 0.0276 0.5977 0.15621 0.0
H1209 H 0.96389 0.54949 0.17525 0.0
H1210 H 0.97073 0.56636 0.13309 0.0
H1211 H 0.96542 0.56626 0.23453 0.0
H1212 H 0.97392 0.59169 0.26565 0.0
H1213 H 0.01892 0.57162 0.24416 0.0
H1214 H 0.02756 0.5973 0.27511 0.0
H1215 H 0.01436 0.54885 0.19503 0.0
H1216 H 0.96605 0.5248 0.24297 0.0
H1217 H 0.01484 0.52017 0.1956 0.0
H1218 H 0.9673 0.49627 0.2456 0.0
H1219 H 0.02053 0.44258 0.19237 0.0
H1220 H 0.02817 0.43356 0.15058 0.0
H1221 H 0.97214 0.41084 0.12406 0.0
H1222 H 0.96439 0.41962 0.16624 0.0
H1223 H 0.96452 0.40026 0.22303 0.0
H1224 H 0.97173 0.38209 0.2544 0.0
H1225 H 0.02369 0.42994 0.2721 0.0
H1226 H 0.01666 0.448 0.24069 0.0
H1227 H 0.01766 0.46842 0.20884 0.0
H1228 H 0.01953 0.49814 0.21547 0.0
H1229 H 0.96046 0.47101 0.22051 0.0
N1230 N 0.98633 0.43468 0.20791 0.0
H1231 H 0.95904 0.44133 0.21603 0.0
C1232 C 0.99179 0.5639 0.18974 0.0
C1233 C 0.0098 0.57759 0.18402 0.0
C1234 C 0.01368 0.58712 0.16017 0.0
C1235 C 0.99965 0.58325 0.14172 0.0
C1236 C 0.9817 0.56949 0.14717 0.0
C1237 C 0.97783 0.55988 0.17105 0.0
C1238 C 0.99149 0.56707 0.23703 0.0
C1239 C 0.97881 0.57262 0.24392 0.0
C1240 C 0.98367 0.58712 0.26154 0.0
C1241 C 1.00136 0.59636 0.27254 0.0
C1242 C 0.01383 0.59026 0.26682 0.0
C1243 C 0.0089 0.57564 0.24923 0.0
C1244 C 0.9898 0.53898 0.21848 0.0
C1245 C 0.00398 0.53755 0.20614 0.0
C1246 C 0.00437 0.52099 0.20674 0.0
C1247 C 0.99091 0.50554 0.22026 0.0
C1248 C 0.97756 0.50752 0.23417 0.0
C1249 C 0.97694 0.52395 0.23304 0.0
C1250 C 0.9918 0.43168 0.18244 0.0
C1251 C 0.00991 0.43587 0.17754 0.0
C1252 C 0.01427 0.43067 0.15374 0.0
C1253 C 1.00066 0.42136 0.13444 0.0
C1254 C 0.98277 0.4179 0.13882 0.0
C1255 C 0.97839 0.42296 0.16273 0.0
C1256 C 0.98989 0.42551 0.22954 0.0
C1257 C 0.97727 0.40693 0.23414 0.0
C1258 C 0.98139 0.39659 0.25191 0.0
C1259 C 0.99821 0.40473 0.26552 0.0
C1260 C 0.01059 0.42349 0.26185 0.0
C1261 C 0.00652 0.43381 0.24391 0.0
C1262 C 0.98816 0.45254 0.21247 0.0
C1263 C 0.00517 0.46883 0.21208 0.0
C1264 C 0.00617 0.48595 0.21547 0.0
C1265 C 0.99015 0.48724 0.21862 0.0
C1266 C 0.97319 0.47079 0.2189 0.0
C1267 C 0.97228 0.45373 0.21607 0.0
H1268 H 0.59065 0.54437 0.19111 0.0
N1269 N 0.57137 0.5528 0.2238 0.0
H1270 H 0.60306 0.55848 0.14812 0.0
H1271 H 0.56426 0.57727 0.19722 0.0
H1272 H 0.57649 0.59117 0.15429 0.0
H1273 H 0.60357 0.56429 0.24738 0.0
H1274 H 0.62032 0.59164 0.27535 0.0
H1275 H 0.55708 0.57302 0.24488 0.0
H1276 H 0.57385 0.60045 0.27292 0.0
H1277 H 0.56381 0.52215 0.24927 0.0
H1278 H 0.53806 0.54856 0.20744 0.0
H1279 H 0.5342 0.49419 0.25323 0.0
H1280 H 0.5085 0.52038 0.21006 0.0
H1281 H 0.45017 0.4066 0.19982 0.0
H1282 H 0.43522 0.39424 0.15696 0.0
H1283 H 0.42204 0.43791 0.1501 0.0
H1284 H 0.4381 0.45091 0.19197 0.0
H1285 H 0.4218 0.43937 0.23057 0.0
H1286 H 0.39625 0.42179 0.26001 0.0
H1287 H 0.42711 0.39964 0.29913 0.0
H1288 H 0.45228 0.41622 0.26803 0.0
H1289 H 0.48598 0.44104 0.22303 0.0
H1290 H 0.5144 0.47036 0.22474 0.0
H1291 H 0.48341 0.49848 0.23613 0.0
N1292 N 0.45209 0.43511 0.22563 0.0
H1293 H 0.45487 0.46882 0.23348 0.0
C1294 C 0.57644 0.55961 0.1973 0.0
C1295 C 0.58723 0.55432 0.18293 0.0
C1296 C 0.59432 0.56237 0.15851 0.0
C1297 C 0.59067 0.57584 0.14809 0.0
C1298 C 0.57941 0.58076 0.16203 0.0
C1299 C 0.57237 0.57276 0.18647 0.0
C1300 C 0.57915 0.56665 0.24408 0.0
C1301 C 0.59682 0.57183 0.25351 0.0
C1302 C 0.60635 0.5874 0.26938 0.0
C1303 C 0.59833 0.59806 0.2761 0.0
C1304 C 0.58022 0.59233 0.26798 0.0
C1305 C 0.57067 0.57672 0.252 0.0
C1306 C 0.5533 0.53734 0.22773 0.0
C1307 C 0.55172 0.5219 0.241 0.0
C1308 C 0.53478 0.50587 0.243 0.0
C1309 C 0.51891 0.5048 0.23147 0.0
C1310 C 0.52035 0.52064 0.21924 0.0
C1311 C 0.53736 0.5368 0.21751 0.0
C1312 C 0.44494 0.42942 0.19928 0.0
C1313 C 0.44437 0.41368 0.18876 0.0
C1314 C 0.43585 0.40665 0.1644 0.0
C1315 C 0.42733 0.41503 0.15045 0.0
C1316 C 0.42842 0.43116 0.16059 0.0
C1317 C 0.43747 0.43851 0.18456 0.0
C1318 C 0.43883 0.42867 0.24651 0.0
C1319 C 0.42323 0.43083 0.2454 0.0
C1320 C 0.40862 0.42085 0.2624 0.0
C1321 C 0.40958 0.40906 0.28143 0.0
C1322 C 0.42595 0.40843 0.28434 0.0
C1323 C 0.44032 0.41794 0.26674 0.0
C1324 C 0.4684 0.45274 0.22834 0.0
C1325 C 0.48537 0.45354 0.22611 0.0
C1326 C 0.50161 0.47035 0.22728 0.0
C1327 C 0.50133 0.4869 0.23089 0.0
C1328 C 0.4842 0.48607 0.23318 0.0
C1329 C 0.46786 0.46913 0.23186 0.0
H1330 H 0.54855 0.96307 0.18318 0.0
N1331 N 0.55171 0.9899 0.21438 0.0
H1332 H 0.56395 0.96623 0.14097 0.0
H1333 H 0.57279 0.02202 0.18772 0.0
H1334 H 0.58794 0.02513 0.14556 0.0
H1335 H 0.58129 0.0212 0.23306 0.0
H1336 H 0.6054 0.02218 0.26223 0.0
H1337 H 0.54968 0.9625 0.24338 0.0
H1338 H 0.57361 0.96348 0.27286 0.0
H1339 H 0.51654 0.96554 0.21933 0.0
H1340 H 0.55434 0.02375 0.21905 0.0
H1341 H 0.49093 0.97143 0.22358 0.0
H1342 H 0.52889 0.02995 0.22131 0.0
H1343 H 0.42072 0.98799 0.19269 0.0
H1344 H 0.40697 0.98755 0.14982 0.0
H1345 H 0.44528 0.04522 0.13983 0.0
H1346 H 0.45929 0.04573 0.18308 0.0
H1347 H 0.43913 0.03962 0.24269 0.0
H1348 H 0.41313 0.03004 0.2725 0.0
H1349 H 0.40169 0.9739 0.26729 0.0
H1350 H 0.42789 0.9835 0.23793 0.0
H1351 H 0.44855 0.98733 0.19762 0.0
H1352 H 0.47371 0.9809 0.19894 0.0
H1353 H 0.50561 0.0298 0.24592 0.0
N1354 N 0.44876 0.0181 0.21732 0.0
H1355 H 0.48053 0.03675 0.24293 0.0
C1356 C 0.5593 0.99222 0.18846 0.0
C1357 C 0.55691 0.97663 0.17485 0.0
C1358 C 0.56573 0.97843 0.15097 0.0
C1359 C 0.57706 0.9959 0.14032 0.0
C1360 C 0.5792 0.01154 0.15355 0.0
C1361 C 0.57045 0.00973 0.17754 0.0
C1362 C 0.56374 0.9917 0.236 0.0
C1363 C 0.57925 0.00864 0.24227 0.0
C1364 C 0.59299 0.00922 0.25893 0.0
C1365 C 0.59124 0.99289 0.26961 0.0
C1366 C 0.57512 0.97621 0.26491 0.0
C1367 C 0.56149 0.97565 0.2482 0.0
C1368 C 0.53726 0.99413 0.21842 0.0
C1369 C 0.51925 0.97961 0.22005 0.0
C1370 C 0.50463 0.98306 0.2222 0.0
C1371 C 0.50767 1.00121 0.22236 0.0
C1372 C 0.52589 0.01579 0.22146 0.0
C1373 C 0.54055 0.01228 0.21977 0.0
C1374 C 0.44117 0.01698 0.19119 0.0
C1375 C 0.42641 1.00055 0.18135 0.0
C1376 C 0.4185 1.00026 0.15685 0.0
C1377 C 0.42512 0.01635 0.14179 0.0
C1378 C 0.44004 0.03268 0.15122 0.0
C1379 C 0.44801 0.03296 0.17577 0.0
C1380 C 0.43546 0.01235 0.23806 0.0
C1381 C 0.43131 0.02533 0.24855 0.0
C1382 C 0.4165 0.01988 0.26542 0.0
C1383 C 0.40551 1.00128 0.27191 0.0
C1384 C 0.41007 0.98832 0.26245 0.0
C1385 C 0.42501 0.99382 0.24573 0.0
C1386 C 0.46272 0.0128 0.21983 0.0
C1387 C 0.4609 0.99676 0.20815 0.0
C1388 C 0.47537 0.99296 0.2092 0.0
C1389 C 0.4919 0.00486 0.22244 0.0
C1390 C 0.49334 0.0205 0.23501 0.0
C1391 C 0.47894 0.02443 0.23358 0.0
H1392 H 0.40067 0.96518 0.82836 0.0
N1393 N 0.4331 0.98504 0.8063 0.0
H1394 H 0.38997 0.97146 0.86978 0.0
H1395 H 0.45414 0.01205 0.84207 0.0
H1396 H 0.44367 0.01781 0.88414 0.0
H1397 H 0.44319 0.02095 0.79615 0.0
H1398 H 0.42813 0.03186 0.76498 0.0
H1399 H 0.40721 0.96516 0.77111 0.0
H1400 H 0.39119 0.97594 0.74117 0.0
H1401 H 0.43912 0.95698 0.81242 0.0
H1402 H 0.46669 0.01484 0.79425 0.0
H1403 H 0.46804 0.95685 0.80897 0.0
H1404 H 0.49547 0.01474 0.78966 0.0
H1405 H 0.57882 0.01252 0.82117 0.0
H1406 H 0.59406 0.01662 0.86401 0.0
H1407 H 0.55346 0.9618 0.88637 0.0
H1408 H 0.5387 0.95716 0.84269 0.0
H1409 H 0.56713 0.01287 0.77459 0.0
H1410 H 0.59409 0.02261 0.74666 0.0
H1411 H 0.58951 0.96918 0.75567 0.0
H1412 H 0.56267 0.9595 0.78366 0.0
H1413 H 0.51798 0.95665 0.78058 0.0
H1414 H 0.48988 0.95862 0.77859 0.0
H1415 H 0.5187 0.01256 0.81432 0.0
N1416 N 0.54987 0.98048 0.80221 0.0
H1417 H 0.54689 0.01075 0.81499 0.0
C1418 C 0.42821 0.98794 0.83226 0.0
C1419 C 0.41019 0.97655 0.8406 0.0
C1420 C 0.40408 0.98017 0.86409 0.0
C1421 C 0.41604 0.99507 0.87996 0.0
C1422 C 0.43428 0.0062 0.87214 0.0
C1423 C 0.44027 0.00285 0.84823 0.0
C1424 C 0.42668 0.99222 0.78534 0.0
C1425 C 0.43253 0.01111 0.78328 0.0
C1426 C 0.42374 0.01731 0.76577 0.0
C1427 C 0.40852 0.0047 0.75079 0.0
C1428 C 0.40297 0.9859 0.75238 0.0
C1429 C 0.41212 0.97977 0.76933 0.0
C1430 C 0.45054 0.98576 0.80338 0.0
C1431 C 0.45138 0.96961 0.80737 0.0
C1432 C 0.46794 0.96956 0.80515 0.0
C1433 C 0.48417 0.98576 0.79871 0.0
C1434 C 0.48333 0.00203 0.79479 0.0
C1435 C 0.46673 0.00207 0.7972 0.0
C1436 C 0.55782 0.98425 0.82842 0.0
C1437 C 0.57316 1.00128 0.83509 0.0
C1438 C 0.58183 0.0037 0.85961 0.0
C1439 C 0.57504 0.98937 0.87807 0.0
C1440 C 0.55905 0.97285 0.87216 0.0
C1441 C 0.55061 0.97026 0.84739 0.0
C1442 C 0.56289 0.9854 0.78121 0.0
C1443 C 0.57156 0.00307 0.76989 0.0
C1444 C 0.58695 0.00864 0.75405 0.0
C1445 C 0.59379 0.99661 0.74927 0.0
C1446 C 0.5844 0.97862 0.75909 0.0
C1447 C 0.56909 0.97309 0.77493 0.0
C1448 C 0.53444 0.98339 0.79813 0.0
C1449 C 0.51826 0.96903 0.78747 0.0
C1450 C 0.50217 0.97011 0.78668 0.0
C1451 C 0.50184 0.9856 0.79681 0.0
C1452 C 0.51838 1.00044 0.80626 0.0
C1453 C 0.53455 0.9994 0.80679 0.0
H1454 H 0.96622 0.55797 0.83807 0.0
N1455 N 0.98941 0.5537 0.80805 0.0
H1456 H 0.97295 0.57494 0.87979 0.0
H1457 H 0.02198 0.56883 0.83527 0.0
H1458 H 0.0287 0.58567 0.87744 0.0
H1459 H 0.02115 0.58353 0.79171 0.0
H1460 H 0.02319 0.60817 0.76272 0.0
H1461 H 0.96279 0.55301 0.77846 0.0
H1462 H 0.96477 0.57774 0.74982 0.0
H1463 H 0.97458 0.52172 0.833 0.0
H1464 H 0.0146 0.55298 0.77401 0.0
H1465 H 0.98149 0.49685 0.82848 0.0
H1466 H 0.02068 0.52768 0.76798 0.0
H1467 H 0.98932 0.42092 0.8149 0.0
H1468 H 0.98679 0.40632 0.85777 0.0
H1469 H 0.0403 0.45013 0.88003 0.0
H1470 H 0.04326 0.46447 0.83651 0.0
H1471 H 0.04185 0.44064 0.77817 0.0
H1472 H 0.03372 0.41386 0.74997 0.0
H1473 H 0.97944 0.40629 0.73902 0.0
H1474 H 0.98742 0.43289 0.76699 0.0
H1475 H 0.98553 0.44818 0.80358 0.0
H1476 H 0.97799 0.47277 0.80293 0.0
H1477 H 0.03451 0.51201 0.78619 0.0
N1478 N 0.01946 0.45177 0.79633 0.0
H1479 H 0.04147 0.48688 0.78477 0.0
C1480 C 0.99353 0.56213 0.83374 0.0
C1481 C 0.97982 0.5638 0.84672 0.0
C1482 C 0.98367 0.57349 0.87035 0.0
C1483 C 1.00132 0.58162 0.88144 0.0
C1484 C 0.01502 0.57951 0.869 0.0
C1485 C 0.01119 0.56992 0.8451 0.0
C1486 C 0.99176 0.56633 0.78701 0.0
C1487 C 0.00888 0.58189 0.78198 0.0
C1488 C 0.01004 0.59597 0.76559 0.0
C1489 C 0.99409 0.59478 0.75442 0.0
C1490 C 0.9772 0.57887 0.75835 0.0
C1491 C 0.97607 0.56475 0.77447 0.0
C1492 C 0.99398 0.53931 0.80404 0.0
C1493 C 0.98473 0.52313 0.81885 0.0
C1494 C 0.98857 0.50878 0.81595 0.0
C1495 C 1.00155 0.51001 0.79761 0.0
C1496 C 0.01078 0.52623 0.78257 0.0
C1497 C 0.00718 0.54079 0.78589 0.0
C1498 C 0.01673 0.44367 0.82226 0.0
C1499 C 1.00056 0.42746 0.82886 0.0
C1500 C 0.99905 0.41913 0.85336 0.0
C1501 C 0.01346 0.42708 0.87182 0.0
C1502 C 0.02917 0.44374 0.86586 0.0
C1503 C 0.03082 0.4519 0.84117 0.0
C1504 C 0.01536 0.43889 0.77494 0.0
C1505 C 0.02839 0.4336 0.76896 0.0
C1506 C 0.02376 0.41833 0.75296 0.0
C1507 C 0.00598 0.40811 0.74255 0.0
C1508 C 0.99326 0.41409 0.74685 0.0
C1509 C 0.99788 0.42935 0.76291 0.0
C1510 C 0.01405 0.46563 0.7936 0.0
C1511 C 0.99617 0.46196 0.79887 0.0
C1512 C 0.99197 0.47621 0.79904 0.0
C1513 C 0.00566 0.49458 0.7948 0.0
C1514 C 0.02348 0.4981 0.7891 0.0
C1515 C 0.02754 0.48376 0.78837 0.0
H1516 H 0.39892 0.43536 0.83415 0.0
N1517 N 0.43215 0.45093 0.81364 0.0
H1518 H 0.3888 0.41836 0.87586 0.0
H1519 H 0.45418 0.44712 0.85133 0.0
H1520 H 0.44419 0.43097 0.89334 0.0
H1521 H 0.40991 0.44841 0.77418 0.0
H1522 H 0.39444 0.42284 0.7427 0.0
H1523 H 0.44031 0.42344 0.80614 0.0
H1524 H 0.42484 0.39787 0.77473 0.0
H1525 H 0.4663 0.45481 0.80715 0.0
H1526 H 0.43685 0.48467 0.81295 0.0
H1527 H 0.49522 0.48371 0.80561 0.0
H1528 H 0.46547 0.51369 0.80952 0.0
H1529 H 0.56657 0.60335 0.83323 0.0
H1530 H 0.58424 0.61241 0.87475 0.0
H1531 H 0.57357 0.55678 0.88562 0.0
H1532 H 0.55667 0.54792 0.84336 0.0
H1533 H 0.55485 0.59633 0.77568 0.0
H1534 H 0.58057 0.61279 0.74548 0.0
H1535 H 0.60057 0.57559 0.76578 0.0
H1536 H 0.57527 0.55962 0.79665 0.0
H1537 H 0.54381 0.5388 0.78354 0.0
H1538 H 0.51508 0.50997 0.78228 0.0
H1539 H 0.49109 0.53321 0.83372 0.0
N1540 N 0.5507 0.57054 0.81016 0.0
H1541 H 0.51957 0.5624 0.83342 0.0
C1542 C 0.42731 0.44279 0.83957 0.0
C1543 C 0.40891 0.4346 0.84709 0.0
C1544 C 0.40313 0.42487 0.87073 0.0
C1545 C 0.41577 0.42347 0.8876 0.0
C1546 C 0.43427 0.43198 0.88054 0.0
C1547 C 0.43998 0.44132 0.85654 0.0
C1548 C 0.42625 0.43785 0.79235 0.0
C1549 C 0.41362 0.4377 0.77383 0.0
C1550 C 0.40478 0.42314 0.75603 0.0
C1551 C 0.4085 0.40851 0.75653 0.0
C1552 C 0.42188 0.40911 0.77405 0.0
C1553 C 0.43076 0.42372 0.79183 0.0
C1554 C 0.44942 0.46763 0.8107 0.0
C1555 C 0.46605 0.46762 0.80783 0.0
C1556 C 0.48262 0.48425 0.80667 0.0
C1557 C 0.48288 0.50124 0.80775 0.0
C1558 C 0.46603 0.50103 0.80945 0.0
C1559 C 0.44958 0.48444 0.81115 0.0
C1560 C 0.56007 0.57496 0.8354 0.0
C1561 C 0.56802 0.59311 0.8446 0.0
C1562 C 0.57811 0.59827 0.86814 0.0
C1563 C 0.58014 0.58524 0.8832 0.0
C1564 C 0.57209 0.56699 0.87424 0.0
C1565 C 0.56237 0.56193 0.85026 0.0
C1566 C 0.56302 0.57667 0.78816 0.0
C1567 C 0.56444 0.59136 0.77291 0.0
C1568 C 0.5791 0.60075 0.75579 0.0
C1569 C 0.59247 0.59542 0.75346 0.0
C1570 C 0.59033 0.57984 0.76721 0.0
C1571 C 0.57584 0.57067 0.7847 0.0
C1572 C 0.5339 0.55305 0.80843 0.0
C1573 C 0.5324 0.53788 0.79434 0.0
C1574 C 0.51586 0.52117 0.79384 0.0
C1575 C 0.50054 0.51909 0.80779 0.0
C1576 C 0.50228 0.53426 0.82211 0.0
C1577 C 0.51865 0.55099 0.82218 0.0
H1578 H 0.65407 0.91952 0.53856 0.0
N1579 N 0.64991 0.88566 0.55036 0.0
H1580 H 0.6613 0.93518 0.49647 0.0
H1581 H 0.65216 0.87195 0.50169 0.0
H1582 H 0.65992 0.88822 0.45974 0.0
H1583 H 0.6296 0.89022 0.58604 0.0
H1584 H 0.63986 0.91595 0.6172 0.0
H1585 H 0.68551 0.90953 0.56387 0.0
H1586 H 0.69581 0.93534 0.59495 0.0
H1587 H 0.67963 0.88167 0.53838 0.0
H1588 H 0.62564 0.85385 0.57125 0.0
H1589 H 0.68075 0.85311 0.53917 0.0
H1590 H 0.6273 0.82574 0.57531 0.0
H1591 H 0.68495 0.77126 0.5332 0.0
H1592 H 0.69289 0.7627 0.49134 0.0
H1593 H 0.63951 0.74816 0.45961 0.0
H1594 H 0.63114 0.75575 0.50222 0.0
H1595 H 0.63031 0.73134 0.55971 0.0
H1596 H 0.63838 0.71307 0.58962 0.0
H1597 H 0.68859 0.76195 0.61078 0.0
H1598 H 0.68067 0.78011 0.58108 0.0
H1599 H 0.68216 0.80031 0.54965 0.0
H1600 H 0.6832 0.82967 0.55578 0.0
H1601 H 0.62387 0.80153 0.55334 0.0
N1602 N 0.65128 0.76634 0.54635 0.0
H1603 H 0.62331 0.77232 0.55061 0.0
C1604 C 0.65416 0.89488 0.52468 0.0
C1605 C 0.65574 0.91249 0.52192 0.0
C1606 C 0.65969 0.9215 0.49768 0.0
C1607 C 0.66165 0.91306 0.47522 0.0
C1608 C 0.65891 0.89514 0.4771 0.0
C1609 C 0.65478 0.88597 0.50139 0.0
C1610 C 0.65674 0.89797 0.57271 0.0
C1611 C 0.64411 0.89964 0.58861 0.0
C1612 C 0.64994 0.91433 0.60621 0.0
C1613 C 0.66855 0.92756 0.60817 0.0
C1614 C 0.6814 0.92521 0.59369 0.0
C1615 C 0.67555 0.91044 0.57615 0.0
C1616 C 0.65216 0.86966 0.5537 0.0
C1617 C 0.66812 0.86942 0.54626 0.0
C1618 C 0.66877 0.85296 0.54703 0.0
C1619 C 0.65386 0.83655 0.55661 0.0
C1620 C 0.63871 0.83753 0.56642 0.0
C1621 C 0.63778 0.85375 0.56454 0.0
C1622 C 0.65726 0.76381 0.52097 0.0
C1623 C 0.67491 0.76622 0.51736 0.0
C1624 C 0.67946 0.76135 0.49348 0.0
C1625 C 0.6667 0.75459 0.47255 0.0
C1626 C 0.64947 0.7532 0.47562 0.0
C1627 C 0.64474 0.7576 0.49978 0.0
C1628 C 0.65473 0.75712 0.56807 0.0
C1629 C 0.64278 0.7382 0.57142 0.0
C1630 C 0.64739 0.7278 0.58837 0.0
C1631 C 0.66408 0.73619 0.60233 0.0
C1632 C 0.67561 0.75527 0.60023 0.0
C1633 C 0.67101 0.76567 0.58324 0.0
C1634 C 0.65259 0.78399 0.55076 0.0
C1635 C 0.66942 0.80046 0.55161 0.0
C1636 C 0.66994 0.81741 0.55447 0.0
C1637 C 0.65362 0.8184 0.55534 0.0
C1638 C 0.63684 0.80172 0.55385 0.0
C1639 C 0.6364 0.78484 0.55199 0.0
H1640 H 0.26585 0.88751 0.52829 0.0
N1641 N 0.23776 0.88637 0.55357 0.0
H1642 H 0.27789 0.90154 0.48515 0.0
H1643 H 0.22215 0.90021 0.5193 0.0
H1644 H 0.2348 0.9153 0.47711 0.0
H1645 H 0.23432 0.91732 0.55764 0.0
H1646 H 0.25197 0.94313 0.58734 0.0
H1647 H 0.25649 0.88637 0.59641 0.0
H1648 H 0.27321 0.91187 0.62765 0.0
H1649 H 0.2306 0.85189 0.55146 0.0
H1650 H 0.2048 0.88501 0.56083 0.0
H1651 H 0.20086 0.82401 0.55314 0.0
H1652 H 0.17473 0.85703 0.56337 0.0
H1653 H 0.08988 0.77179 0.53017 0.0
H1654 H 0.07479 0.75915 0.48769 0.0
H1655 H 0.11561 0.74386 0.47028 0.0
H1656 H 0.13021 0.7556 0.51359 0.0
H1657 H 0.10131 0.78501 0.57665 0.0
H1658 H 0.07522 0.76948 0.60664 0.0
H1659 H 0.07953 0.72023 0.6029 0.0
H1660 H 0.10556 0.73575 0.57298 0.0
H1661 H 0.14874 0.77605 0.57828 0.0
H1662 H 0.17708 0.80543 0.58219 0.0
H1663 H 0.15229 0.83166 0.53695 0.0
N1664 N 0.11853 0.76889 0.55176 0.0
H1665 H 0.12365 0.80225 0.53431 0.0
C1666 C 0.24336 0.89311 0.52719 0.0
C1667 C 0.25884 0.89325 0.51694 0.0
C1668 C 0.26568 0.90125 0.49243 0.0
C1669 C 0.25736 0.90965 0.47806 0.0
C1670 C 0.2415 0.909 0.48794 0.0
C1671 C 0.23435 0.9005 0.51209 0.0
C1672 C 0.24451 0.90002 0.57426 0.0
C1673 C 0.24268 0.91586 0.57278 0.0
C1674 C 0.2527 0.93063 0.5899 0.0
C1675 C 0.26424 0.9296 0.60937 0.0
C1676 C 0.26462 0.91307 0.61252 0.0
C1677 C 0.25504 0.89851 0.59483 0.0
C1678 C 0.21992 0.87043 0.55623 0.0
C1679 C 0.21844 0.85307 0.55428 0.0
C1680 C 0.2014 0.83715 0.55543 0.0
C1681 C 0.1853 0.83817 0.55872 0.0
C1682 C 0.1868 0.85569 0.5607 0.0
C1683 C 0.20398 0.87171 0.55943 0.0
C1684 C 0.11098 0.76422 0.52536 0.0
C1685 C 0.09565 0.76574 0.51733 0.0
C1686 C 0.08706 0.7586 0.49304 0.0
C1687 C 0.09394 0.75031 0.4761 0.0
C1688 C 0.10999 0.74999 0.48325 0.0
C1689 C 0.11833 0.75673 0.50782 0.0
C1690 C 0.10535 0.76147 0.57265 0.0
C1691 C 0.09694 0.77105 0.58283 0.0
C1692 C 0.08208 0.76221 0.59987 0.0
C1693 C 0.07548 0.74372 0.60689 0.0
C1694 C 0.08448 0.73451 0.59778 0.0
C1695 C 0.09929 0.74333 0.5808 0.0
C1696 C 0.13424 0.78687 0.55569 0.0
C1697 C 0.14938 0.78822 0.56956 0.0
C1698 C 0.16561 0.80501 0.57153 0.0
C1699 C 0.16718 0.82091 0.55938 0.0
C1700 C 0.15162 0.81975 0.54658 0.0
C1701 C 0.13524 0.80289 0.54487 0.0
H1702 H 0.22786 0.31931 0.52863 0.0
N1703 N 0.23701 0.35394 0.5453 0.0
H1704 H 0.23727 0.3115 0.48745 0.0
H1705 H 0.25364 0.3762 0.50491 0.0
H1706 H 0.26284 0.36827 0.46323 0.0
H1707 H 0.27056 0.37666 0.56311 0.0
H1708 H 0.2892 0.36917 0.59315 0.0
H1709 H 0.22429 0.32271 0.57573 0.0
H1710 H 0.2429 0.31526 0.60546 0.0
H1711 H 0.20326 0.32258 0.54589 0.0
H1712 H 0.23066 0.38155 0.55299 0.0
H1713 H 0.17378 0.32104 0.55181 0.0
H1714 H 0.20123 0.3804 0.55702 0.0
H1715 H 0.08962 0.32279 0.53152 0.0
H1716 H 0.07384 0.31953 0.48921 0.0
H1717 H 0.11333 0.37535 0.46928 0.0
H1718 H 0.12872 0.37896 0.51229 0.0
H1719 H 0.10138 0.37214 0.56845 0.0
H1720 H 0.07501 0.36031 0.5979 0.0
H1721 H 0.07865 0.31116 0.61072 0.0
H1722 H 0.10462 0.32269 0.58043 0.0
H1723 H 0.12357 0.32725 0.5303 0.0
H1724 H 0.15204 0.32624 0.53098 0.0
H1725 H 0.17632 0.37354 0.58275 0.0
N1726 N 0.11827 0.35452 0.5514 0.0
H1727 H 0.14812 0.37521 0.58017 0.0
C1728 C 0.24011 0.34843 0.51988 0.0
C1729 C 0.23526 0.33009 0.51444 0.0
C1730 C 0.24069 0.32562 0.49098 0.0
C1731 C 0.25091 0.33935 0.47252 0.0
C1732 C 0.25506 0.35752 0.47736 0.0
C1733 C 0.24975 0.36201 0.50096 0.0
C1734 C 0.24605 0.35034 0.56708 0.0
C1735 C 0.26428 0.36345 0.57295 0.0
C1736 C 0.27489 0.35918 0.58998 0.0
C1737 C 0.26739 0.34167 0.60141 0.0
C1738 C 0.24886 0.32888 0.59687 0.0
C1739 C 0.23824 0.33317 0.57985 0.0
C1740 C 0.21928 0.35224 0.5495 0.0
C1741 C 0.20299 0.33522 0.54897 0.0
C1742 C 0.18601 0.3344 0.55198 0.0
C1743 C 0.1849 0.35059 0.55502 0.0
C1744 C 0.20135 0.36755 0.55546 0.0
C1745 C 0.21826 0.36831 0.55292 0.0
C1746 C 0.11018 0.35133 0.52528 0.0
C1747 C 0.09495 0.33435 0.51811 0.0
C1748 C 0.08599 0.33244 0.49395 0.0
C1749 C 0.09233 0.34728 0.47638 0.0
C1750 C 0.10818 0.36384 0.48275 0.0
C1751 C 0.11694 0.36587 0.50715 0.0
C1752 C 0.1051 0.34844 0.57239 0.0
C1753 C 0.09675 0.359 0.57807 0.0
C1754 C 0.08171 0.35224 0.59473 0.0
C1755 C 0.07491 0.33488 0.60643 0.0
C1756 C 0.08379 0.32463 0.60193 0.0
C1757 C 0.09866 0.33126 0.58478 0.0
C1758 C 0.13384 0.35167 0.55469 0.0
C1759 C 0.135 0.33741 0.54179 0.0
C1760 C 0.15136 0.33674 0.54245 0.0
C1761 C 0.16681 0.35002 0.55653 0.0
C1762 C 0.16505 0.36343 0.57093 0.0
C1763 C 0.14884 0.3643 0.56979 0.0
C1764 C 0.02203 0.42221 0.06842 0.0
C1765 C 0.01523 0.40306 0.06369 0.0
C1766 C 1.00019 0.39608 0.10708 0.0
C1767 C 0.00523 0.41488 0.1099 0.0
N1768 N 0.01787 0.44521 0.09133 0.0
N1769 N 0.00315 0.37277 0.08285 0.0
C1770 C 0.01526 0.42773 0.09002 0.0
C1771 C 0.00561 0.39021 0.0842 0.0
N1772 N 0.03601 0.43537 0.05395 0.0
N1773 N 0.98991 0.38379 0.12615 0.0
H1774 H 0.00818 0.36827 0.06765 0.0
H1775 H 0.99786 0.36315 0.09796 0.0
H1776 H 0.98677 0.38772 0.14393 0.0
H1777 H 0.98356 0.36959 0.12401 0.0
H1778 H 0.04226 0.44936 0.05825 0.0
H1779 H 0.04359 0.43267 0.04059 0.0
H1780 H 0.02292 0.45448 0.07572 0.0
H1781 H 0.01328 0.44987 0.10694 0.0
C1782 C 0.59578 0.59229 0.07703 0.0
C1783 C 0.61457 0.60601 0.07656 0.0
C1784 C 0.61769 0.60009 0.12348 0.0
C1785 C 0.59929 0.58554 0.12316 0.0
N1786 N 0.57176 0.56554 0.09891 0.0
N1787 N 0.64375 0.62298 0.09926 0.0
C1788 C 0.5886 0.58102 0.09972 0.0
C1789 C 0.62566 0.60981 0.09973 0.0
N1790 N 0.58464 0.59022 0.05594 0.0
N1791 N 0.62723 0.60523 0.14687 0.0
H1792 H 0.6498 0.63187 0.08347 0.0
H1793 H 0.65317 0.62462 0.11403 0.0
H1794 H 0.62196 0.59834 0.16457 0.0
H1795 H 0.63989 0.61701 0.14936 0.0
H1796 H 0.57045 0.5821 0.05623 0.0
H1797 H 0.58951 0.59755 0.03853 0.0
H1798 H 0.56414 0.56026 0.08163 0.0
H1799 H 0.56607 0.55697 0.11518 0.0
C1800 C 0.40837 0.00512 0.07091 0.0
C1801 C 0.39469 0.01046 0.07002 0.0
C1802 C 0.40156 0.02053 0.11633 0.0
C1803 C 0.41576 0.01596 0.11655 0.0
N1804 N 0.43502 0.00714 0.09336 0.0
N1805 N 0.37812 0.02341 0.09168 0.0
C1806 C 0.41983 0.00919 0.09361 0.0
C1807 C 0.39135 0.01836 0.09264 0.0
N1808 N 0.41017 0.99581 0.05019 0.0
N1809 N 0.39733 0.02611 0.13921 0.0
H1810 H 0.36896 0.02034 0.07598 0.0
H1811 H 0.37659 0.03141 0.10593 0.0
H1812 H 0.40485 0.02836 0.15668 0.0
H1813 H 0.38591 0.0277 0.14158 0.0
H1814 H 0.41819 0.98948 0.05084 0.0
H1815 H 0.40286 0.99359 0.03262 0.0
H1816 H 0.44 0.00427 0.07641 0.0
H1817 H 0.44367 0.00993 0.10972 0.0
C1818 C 0.39956 0.99222 0.95052 0.0
C1819 C 0.39481 0.00639 0.95029 0.0
C1820 C 0.40529 0.01398 0.90449 0.0
C1821 C 0.40915 0.99924 0.90439 0.0
N1822 N 0.40857 0.97318 0.92598 0.0
N1823 N 0.39087 0.02924 0.92618 0.0
C1824 C 0.40584 0.98801 0.92703 0.0
C1825 C 0.39718 0.01694 0.92707 0.0
N1826 N 0.39895 0.98338 0.97357 0.0
N1827 N 0.40947 0.02523 0.88296 0.0
H1828 H 0.38517 0.03214 0.94228 0.0
H1829 H 0.38998 0.03567 0.90903 0.0
H1830 H 0.41409 0.02277 0.86531 0.0
H1831 H 0.40937 0.03764 0.8829 0.0
H1832 H 0.40448 0.97472 0.97606 0.0
H1833 H 0.39394 0.98559 0.99097 0.0
H1834 H 0.4041 0.96298 0.94034 0.0
H1835 H 0.41447 0.97043 0.90993 0.0
C1836 C 0.00258 0.40985 0.94269 0.0
C1837 C 0.0091 0.39704 0.94318 0.0
C1838 C 0.01962 0.40505 0.89766 0.0
C1839 C 0.01244 0.41727 0.89677 0.0
N1840 N 0.9955 0.4302 0.91679 0.0
N1841 N 0.01941 0.37902 0.9191 0.0
C1842 C 0.00345 0.41935 0.91885 0.0
C1843 C 0.01647 0.39372 0.92014 0.0
N1844 N 0.9961 0.41332 0.96529 0.0
N1845 N 0.02954 0.40433 0.87699 0.0
H1846 H 0.0168 0.36996 0.93474 0.0
H1847 H 0.02286 0.37472 0.90196 0.0
H1848 H 0.03161 0.4119 0.85971 0.0
H1849 H 0.03695 0.39736 0.87772 0.0
H1850 H 0.99285 0.42377 0.96718 0.0
H1851 H 0.99537 0.40673 0.98312 0.0
H1852 H 0.98696 0.4308 0.93093 0.0
H1853 H 0.9966 0.43797 0.90004 0.0
C1854 C 0.59261 0.59947 0.95518 0.0
C1855 C 0.61122 0.60364 0.95608 0.0
C1856 C 0.60867 0.59354 0.90994 0.0
C1857 C 0.59061 0.59086 0.90856 0.0
N1858 N 0.56554 0.59227 0.92887 0.0
N1859 N 0.63762 0.6062 0.93371 0.0
C1860 C 0.58265 0.59412 0.93091 0.0
C1861 C 0.61938 0.60091 0.93336 0.0
N1862 N 0.58415 0.59969 0.97787 0.0
N1863 N 0.61559 0.589 0.8888 0.0
H1864 H 0.64593 0.6112 0.95045 0.0
H1865 H 0.64498 0.60689 0.91702 0.0
H1866 H 0.60876 0.58481 0.87069 0.0
H1867 H 0.62761 0.58826 0.88952 0.0
H1868 H 0.57012 0.59463 0.97935 0.0
H1869 H 0.59093 0.60359 0.99596 0.0
H1870 H 0.55996 0.5969 0.9431 0.0
H1871 H 0.55716 0.58696 0.91219 0.0
C1872 C 0.01257 0.62197 0.92651 0.0
C1873 C 0.00655 0.61279 0.95111 0.0
C1874 C 0.99943 0.58345 0.93041 0.0
C1875 C 0.00516 0.59262 0.9059 0.0
N1876 N 0.02042 0.62074 0.88101 0.0
N1877 N 0.99239 0.58468 0.97634 0.0
C1878 C 0.0128 0.61195 0.90412 0.0
C1879 C 0.99949 0.59347 0.95301 0.0
N1880 N 0.01663 0.63991 0.92399 0.0
N1881 N 0.99462 0.56528 0.93213 0.0
H1882 H 0.99342 0.59165 0.99381 0.0
H1883 H 0.98494 0.57046 0.97842 0.0
H1884 H 0.99459 0.55765 0.91591 0.0
H1885 H 0.99209 0.55805 0.94976 0.0
H1886 H 0.01897 0.64674 0.90604 0.0
H1887 H 0.01633 0.64779 0.93959 0.0
H1888 H 0.02832 0.63496 0.87927 0.0
H1889 H 0.02018 0.61381 0.86387 0.0
C1890 C 0.39996 0.41051 0.95855 0.0
C1891 C 0.39683 0.39215 0.95965 0.0
C1892 C 0.40758 0.39495 0.91407 0.0
C1893 C 0.4095 0.41278 0.91252 0.0
N1894 N 0.40608 0.43713 0.93199 0.0
N1895 N 0.39561 0.36603 0.93756 0.0
C1896 C 0.40522 0.42041 0.93439 0.0
C1897 C 0.40023 0.38418 0.93722 0.0
N1898 N 0.39883 0.41885 0.98097 0.0
N1899 N 0.41288 0.38831 0.89336 0.0
H1900 H 0.39054 0.35766 0.95409 0.0
H1901 H 0.39548 0.35873 0.92094 0.0
H1902 H 0.41702 0.3951 0.87533 0.0
H1903 H 0.41423 0.37659 0.89441 0.0
H1904 H 0.4032 0.43283 0.98239 0.0
H1905 H 0.39483 0.41212 0.99897 0.0
H1906 H 0.40076 0.44235 0.94577 0.0
H1907 H 0.41117 0.44547 0.91538 0.0
C1908 C 0.59424 0.00398 0.9478 0.0
C1909 C 0.60722 0.99771 0.94884 0.0
C1910 C 0.59795 0.98476 0.90433 0.0
C1911 C 0.58539 0.99148 0.90299 0.0
N1912 N 0.57211 0.00846 0.92195 0.0
N1913 N 0.6246 0.98629 0.92579 0.0
C1914 C 0.58365 1.00134 0.92437 0.0
C1915 C 0.60991 0.98917 0.92651 0.0
N1916 N 0.59186 0.01217 0.96946 0.0
N1917 N 0.59841 0.97407 0.88436 0.0
H1918 H 0.63407 0.98976 0.94119 0.0
H1919 H 0.62847 0.98199 0.90904 0.0
H1920 H 0.59051 0.9712 0.86718 0.0
H1921 H 0.60557 0.96686 0.8856 0.0
H1922 H 0.58125 0.01508 0.97154 0.0
H1923 H 0.60016 0.01536 0.98621 0.0
H1924 H 0.57151 0.0175 0.93537 0.0
H1925 H 0.56348 0.00596 0.90565 0.0
C1926 C 0.58851 1.00022 0.06738 0.0
C1927 C 0.60433 0.99824 0.06799 0.0
C1928 C 0.60432 0.9987 0.11642 0.0
C1929 C 0.58697 0.99777 0.11548 0.0
N1930 N 0.56183 0.99662 0.09034 0.0
N1931 N 0.62805 0.99632 0.09282 0.0
C1932 C 0.5789 0.99835 0.09103 0.0
C1933 C 0.61259 0.99791 0.09248 0.0
N1934 N 0.58324 0.00483 0.04432 0.0
N1935 N 0.61293 1.00055 0.14023 0.0
H1936 H 0.63511 0.99687 0.07581 0.0
H1937 H 0.63349 0.99363 0.10973 0.0
H1938 H 0.60706 1.00075 0.15812 0.0
H1939 H 0.62636 0.00318 0.14232 0.0
H1940 H 0.57283 0.00815 0.04282 0.0
H1941 H 0.59075 0.00726 0.02718 0.0
H1942 H 0.55434 0.99475 0.07299 0.0
H1943 H 0.55458 0.99579 0.10731 0.0
C1944 C 0.00577 0.61975 0.09102 0.0
C1945 C 0.01499 0.6159 0.07064 0.0
C1946 C 0.01282 0.59 0.09652 0.0
C1947 C 0.00396 0.59396 0.11685 0.0
N1948 N 0.99485 0.61441 0.13612 0.0
N1949 N 0.03445 0.60263 0.06142 0.0
C1950 C 1.00118 0.60934 0.11484 0.0
C1951 C 0.02065 0.60258 0.07539 0.0
N1952 N 1.0019 0.63375 0.08799 0.0
N1953 N 0.01375 0.57412 0.09729 0.0
H1954 H 0.04291 0.61319 0.04889 0.0
H1955 H 0.03966 0.59385 0.06563 0.0
H1956 H 0.00834 0.56463 0.11264 0.0
H1957 H 0.01826 0.56957 0.08147 0.0
H1958 H 0.9928 0.63544 0.0998 0.0
H1959 H 0.00775 0.64378 0.07343 0.0
H1960 H 0.99446 0.62664 0.13726 0.0
H1961 H 0.99103 0.60691 0.15364 0.0
C1962 C 0.40957 0.40896 0.07942 0.0
C1963 C 0.39556 0.39024 0.07946 0.0
C1964 C 0.40092 0.38856 0.1269 0.0
C1965 C 0.41649 0.40643 0.12591 0.0
N1966 N 0.43753 0.43243 0.09999 0.0
N1967 N 0.37851 0.36162 0.10322 0.0
C1968 C 0.4213 0.41634 0.10184 0.0
C1969 C 0.39154 0.37982 0.10314 0.0
N1970 N 0.41169 0.41977 0.058 0.0
N1971 N 0.39428 0.38041 0.15074 0.0
H1972 H 0.37004 0.3549 0.08714 0.0
H1973 H 0.37691 0.35281 0.11883 0.0
H1974 H 0.40012 0.38667 0.16872 0.0
H1975 H 0.38186 0.36831 0.15293 0.0
H1976 H 0.42022 0.43398 0.05797 0.0
H1977 H 0.40399 0.41465 0.04079 0.0
H1978 H 0.44261 0.43935 0.08229 0.0
H1979 H 0.44689 0.43789 0.11561 0.0
C1980 C 0.67063 0.72424 0.42018 0.0
C1981 C 0.68179 0.73749 0.40105 0.0
C1982 C 0.68417 0.76222 0.43024 0.0
C1983 C 0.67144 0.74875 0.44755 0.0
N1984 N 0.65138 0.71693 0.45851 0.0
N1985 N 0.70137 0.76971 0.39007 0.0
C1986 C 0.6643 0.72978 0.4423 0.0
C1987 C 0.68932 0.75665 0.40682 0.0
N1988 N 0.66726 0.7065 0.41837 0.0
N1989 N 0.69178 0.78044 0.43668 0.0
H1990 H 0.70991 0.76755 0.37785 0.0
H1991 H 0.70369 0.78313 0.38928 0.0
H1992 H 0.68734 0.78515 0.45241 0.0
H1993 H 0.70297 0.791 0.42723 0.0
H1994 H 0.66102 0.69672 0.43312 0.0
H1995 H 0.6726 0.70194 0.40366 0.0
H1996 H 0.64373 0.70304 0.45373 0.0
H1997 H 0.64733 0.72024 0.47603 0.0
C1998 C 0.29183 0.94452 0.43 0.0
C1999 C 0.28117 0.93986 0.40633 0.0
C2000 C 0.25559 0.91437 0.42923 0.0
C2001 C 0.2657 0.91987 0.45326 0.0
N2002 N 0.29182 0.9428 0.47766 0.0
N2003 N 0.25159 0.92288 0.38502 0.0
C2004 C 0.28345 0.93559 0.45395 0.0
C2005 C 0.26261 0.92563 0.40651 0.0
N2006 N 0.3099 0.95774 0.42987 0.0
N2007 N 0.23964 0.89794 0.42777 0.0
H2008 H 0.25644 0.93021 0.3676 0.0
H2009 H 0.23746 0.91419 0.38508 0.0
H2010 H 0.23441 0.88895 0.44369 0.0
H2011 H 0.23259 0.89235 0.41015 0.0
H2012 H 0.31888 0.95979 0.44552 0.0
H2013 H 0.31636 0.96591 0.41359 0.0
H2014 H 0.30383 0.95537 0.4796 0.0
H2015 H 0.28587 0.93726 0.49575 0.0
C2016 C 0.07314 0.33575 0.40616 0.0
C2017 C 0.05978 0.34151 0.40685 0.0
C2018 C 0.0689 0.35233 0.45235 0.0
C2019 C 0.0816 0.34577 0.45208 0.0
N2020 N 0.09486 0.32971 0.43025 0.0
N2021 N 0.04204 0.3513 0.43247 0.0
C2022 C 0.08342 0.337 0.4294 0.0
C2023 C 0.0569 0.34878 0.43042 0.0
N2024 N 0.07644 0.32976 0.38294 0.0
N2025 N 0.06835 0.36204 0.47358 0.0
H2026 H 0.0326 0.34856 0.41722 0.0
H2027 H 0.03806 0.35459 0.45003 0.0
H2028 H 0.07622 0.36418 0.49063 0.0
H2029 H 0.0611 0.36919 0.47359 0.0
H2030 H 0.08714 0.32706 0.38017 0.0
H2031 H 0.06942 0.32907 0.3655 0.0
H2032 H 0.09535 0.32128 0.41564 0.0
H2033 H 0.10329 0.33122 0.44644 0.0
C2034 C 0.07034 0.35654 0.27016 0.0
C2035 C 0.06284 0.34278 0.2901 0.0
C2036 C 0.06835 0.32206 0.26227 0.0
C2037 C 0.07735 0.33642 0.24371 0.0
N2038 N 0.09041 0.36849 0.23264 0.0
N2039 N 0.05856 0.31384 0.30729 0.0
C2040 C 0.07945 0.35404 0.24853 0.0
C2041 C 0.06291 0.32591 0.28677 0.0
N2042 N 0.06795 0.37158 0.27096 0.0
N2043 N 0.06442 0.30457 0.25618 0.0
H2044 H 0.05488 0.31615 0.32578 0.0
H2045 H 0.06036 0.30237 0.30677 0.0
H2046 H 0.06826 0.30118 0.23854 0.0
H2047 H 0.056 0.29318 0.26765 0.0
H2048 H 0.07135 0.38087 0.25543 0.0
H2049 H 0.06085 0.37387 0.28576 0.0
H2050 H 0.09403 0.38206 0.23687 0.0
H2051 H 0.09734 0.36717 0.21662 0.0
C2052 C 0.67327 0.74655 0.27872 0.0
C2053 C 0.67893 0.73309 0.27943 0.0
C2054 C 0.68848 0.73977 0.23317 0.0
C2055 C 0.68405 0.75412 0.23328 0.0
N2056 N 0.67487 0.77315 0.25665 0.0
N2057 N 0.69119 0.71604 0.25732 0.0
C2058 C 0.67711 0.75801 0.25617 0.0
C2059 C 0.68645 0.72954 0.25667 0.0
N2060 N 0.66412 0.74835 0.29958 0.0
N2061 N 0.6938 0.73541 0.21016 0.0
H2062 H 0.68799 0.70676 0.2728 0.0
H2063 H 0.69893 0.71429 0.24299 0.0
H2064 H 0.69562 0.7427 0.19267 0.0
H2065 H 0.69551 0.72402 0.20764 0.0
H2066 H 0.65757 0.75617 0.29894 0.0
H2067 H 0.66229 0.74133 0.31733 0.0
H2068 H 0.67189 0.77805 0.27363 0.0
H2069 H 0.67753 0.78184 0.24047 0.0
C2070 C 0.28588 0.93286 0.26415 0.0
C2071 C 0.27807 0.9365 0.2865 0.0
C2072 C 0.24969 0.92759 0.26113 0.0
C2073 C 0.2573 0.92345 0.23916 0.0
N2074 N 0.28163 0.9201 0.22007 0.0
N2075 N 0.25153 0.93435 0.30775 0.0
C2076 C 0.27507 0.9254 0.24084 0.0
C2077 C 0.25972 0.93314 0.28534 0.0
N2078 N 0.30392 0.9374 0.2647 0.0
N2079 N 0.23287 0.92638 0.25877 0.0
H2080 H 0.25838 0.93856 0.32576 0.0
H2081 H 0.2376 0.92985 0.30916 0.0
H2082 H 0.22438 0.9209 0.24223 0.0
H2083 H 0.22762 0.93166 0.27257 0.0
H2084 H 0.31113 0.93743 0.24816 0.0
H2085 H 0.31231 0.94244 0.28135 0.0
H2086 H 0.29331 0.91876 0.22113 0.0
H2087 H 0.27483 0.91594 0.20194 0.0
C2088 C 0.67347 0.93 0.2834 0.0
C2089 C 0.67908 0.94905 0.28393 0.0
C2090 C 0.68799 0.9518 0.23743 0.0
C2091 C 0.68371 0.93312 0.2377 0.0
N2092 N 0.67513 0.90511 0.26157 0.0
N2093 N 0.6922 0.97848 0.2617 0.0
C2094 C 0.67718 0.92239 0.26086 0.0
C2095 C 0.68663 0.96009 0.26106 0.0
N2096 N 0.66444 0.91911 0.30439 0.0
N2097 N 0.69239 0.96132 0.21414 0.0
H2098 H 0.68967 0.9849 0.27729 0.0
H2099 H 0.70029 0.98773 0.24729 0.0
H2100 H 0.69361 0.9558 0.19641 0.0
H2101 H 0.69353 0.97421 0.21173 0.0
H2102 H 0.658 0.90481 0.30399 0.0
H2103 H 0.66259 0.92434 0.32194 0.0
H2104 H 0.67243 0.89733 0.27872 0.0
H2105 H 0.6777 0.89912 0.24539 0.0
C2106 C 0.06414 0.71544 0.26477 0.0
C2107 C 0.06254 0.72402 0.2879 0.0
C2108 C 0.07662 0.75369 0.26486 0.0
C2109 C 0.07627 0.74472 0.24102 0.0
N2110 N 0.06547 0.71625 0.21713 0.0
N2111 N 0.06403 0.7508 0.30831 0.0
C2112 C 0.06884 0.72535 0.24063 0.0
C2113 C 0.0677 0.74297 0.28741 0.0
N2114 N 0.0613 0.69788 0.2657 0.0
N2115 N 0.08618 0.77245 0.26636 0.0
H2116 H 0.05756 0.74353 0.32521 0.0
H2117 H 0.06582 0.76406 0.30782 0.0
H2118 H 0.09338 0.7808 0.25053 0.0
H2119 H 0.08851 0.77965 0.28398 0.0
H2120 H 0.06425 0.69178 0.25006 0.0
H2121 H 0.05741 0.68986 0.2827 0.0
H2122 H 0.05832 0.70196 0.21561 0.0
H2123 H 0.06805 0.72289 0.19894 0.0
C2124 C 0.27835 0.32448 0.26083 0.0
C2125 C 0.27568 0.33172 0.28457 0.0
C2126 C 0.25264 0.3373 0.26232 0.0
C2127 C 0.25404 0.32832 0.23955 0.0
N2128 N 0.26671 0.3117 0.21751 0.0
N2129 N 0.26005 0.34452 0.30874 0.0
C2130 C 0.26642 0.32137 0.23897 0.0
C2131 C 0.26289 0.3382 0.28546 0.0
N2132 N 0.29295 0.32155 0.25862 0.0
N2133 N 0.24165 0.34511 0.26164 0.0
H2134 H 0.26713 0.34518 0.32613 0.0
H2135 H 0.24967 0.34769 0.31163 0.0
H2136 H 0.2333 0.34391 0.24548 0.0
H2137 H 0.24147 0.35364 0.27633 0.0
H2138 H 0.29677 0.31817 0.241 0.0
H2139 H 0.30237 0.32408 0.27383 0.0
H2140 H 0.27374 0.30435 0.21719 0.0
H2141 H 0.25884 0.30983 0.20052 0.0
C2142 C 0.25049 0.31759 0.40677 0.0
C2143 C 0.2695 0.32383 0.40316 0.0
C2144 C 0.27611 0.33877 0.44688 0.0
C2145 C 0.25757 0.33456 0.44842 0.0
N2146 N 0.22787 0.32295 0.42793 0.0
N2147 N 0.29908 0.33465 0.42406 0.0
C2148 C 0.24501 0.32484 0.42782 0.0
C2149 C 0.28202 0.333 0.42441 0.0
N2150 N 0.23738 0.30363 0.39189 0.0
N2151 N 0.28811 0.34856 0.46679 0.0
H2152 H 0.30332 0.32908 0.40922 0.0
H2153 H 0.3085 0.33977 0.43956 0.0
H2154 H 0.28405 0.35196 0.48424 0.0
H2155 H 0.30223 0.35422 0.46573 0.0
H2156 H 0.22341 0.29785 0.39528 0.0
H2157 H 0.24003 0.29553 0.3793 0.0
H2158 H 0.21892 0.31807 0.41179 0.0
H2159 H 0.22325 0.32796 0.44308 0.0
C2160 C 0.65925 0.92768 0.40447 0.0
C2161 C 0.676 0.94463 0.40311 0.0
C2162 C 0.68447 0.9388 0.44722 0.0
C2163 C 0.66678 0.9233 0.44984 0.0
N2164 N 0.63613 0.90465 0.43257 0.0
N2165 N 0.70309 0.96795 0.42575 0.0
C2166 C 0.65382 0.91818 0.42891 0.0
C2167 C 0.68827 0.95062 0.42515 0.0
N2168 N 0.64888 0.92016 0.38224 0.0
N2169 N 0.69781 0.94203 0.46557 0.0
H2170 H 0.70631 0.97741 0.41051 0.0
H2171 H 0.71119 0.97364 0.44255 0.0
H2172 H 0.69561 0.93357 0.48191 0.0
H2173 H 0.71149 0.95198 0.4632 0.0
H2174 H 0.6376 0.90694 0.38165 0.0
H2175 H 0.65257 0.92625 0.36374 0.0
H2176 H 0.62564 0.9018 0.41898 0.0
H2177 H 0.63157 0.89738 0.45018 0.0
C2178 C 0.05996 0.71313 0.4297 0.0
C2179 C 0.06211 0.72341 0.40627 0.0
C2180 C 0.08481 0.75163 0.42899 0.0
C2181 C 0.08363 0.74104 0.45159 0.0
N2182 N 0.07202 0.71147 0.47267 0.0
N2183 N 0.07732 0.75211 0.38269 0.0
C2184 C 0.07186 0.7217 0.45162 0.0
C2185 C 0.07467 0.74262 0.40575 0.0
N2186 N 0.0458 0.69548 0.4317 0.0
N2187 N 0.09551 0.77035 0.42991 0.0
H2188 H 0.07034 0.74584 0.36534 0.0
H2189 H 0.08747 0.76568 0.37994 0.0
H2190 H 0.10394 0.77728 0.446 0.0
H2191 H 0.09543 0.77919 0.41545 0.0
H2192 H 0.04227 0.68802 0.4492 0.0
H2193 H 0.0364 0.68867 0.41654 0.0
H2194 H 0.06563 0.69717 0.47242 0.0
H2195 H 0.07968 0.71721 0.48982 0.0
C2196 C 0.35178 0.0889 0.73662 0.0
C2197 C 0.34727 0.07018 0.73345 0.0
C2198 C 0.33593 0.06443 0.77904 0.0
C2199 C 0.33685 0.08185 0.77944 0.0
N2200 N 0.3425 0.10931 0.75596 0.0
N2201 N 0.33528 0.03993 0.75321 0.0
C2202 C 0.34378 0.09365 0.7574 0.0
C2203 C 0.33928 0.05784 0.75509 0.0
N2204 N 0.36457 0.1025 0.72127 0.0
N2205 N 0.33283 0.05458 0.80187 0.0
H2206 H 0.33967 0.03489 0.7379 0.0
H2207 H 0.32704 0.02985 0.76667 0.0
H2208 H 0.33094 0.05918 0.81998 0.0
H2209 H 0.33398 0.04275 0.80344 0.0
H2210 H 0.3688 0.11637 0.72417 0.0
H2211 H 0.37329 0.10056 0.70907 0.0
H2212 H 0.34581 0.11741 0.73902 0.0
H2213 H 0.33636 0.11311 0.77052 0.0
C2214 C 0.95954 0.2748 0.76459 0.0
C2215 C 0.94928 0.27188 0.7408 0.0
C2216 C 0.92138 0.24882 0.76299 0.0
C2217 C 0.93176 0.25152 0.7865 0.0
N2218 N 0.96099 0.26482 0.8091 0.0
N2219 N 0.92017 0.2581 0.71785 0.0
C2220 C 0.95093 0.26383 0.78708 0.0
C2221 C 0.93009 0.25947 0.74019 0.0
N2222 N 0.97716 0.28904 0.76635 0.0
N2223 N 0.90339 0.23536 0.7622 0.0
H2224 H 0.92618 0.26449 0.70014 0.0
H2225 H 0.90594 0.25117 0.71683 0.0
H2226 H 0.89662 0.22738 0.77855 0.0
H2227 H 0.89538 0.23111 0.74512 0.0
H2228 H 0.98468 0.29329 0.78388 0.0
H2229 H 0.98399 0.29779 0.75073 0.0
H2230 H 0.97523 0.27138 0.80954 0.0
H2231 H 0.95516 0.25799 0.82662 0.0
C2232 C 0.739 0.66677 0.74259 0.0
C2233 C 0.72535 0.6721 0.74133 0.0
C2234 C 0.73065 0.68029 0.78828 0.0
C2235 C 0.7461 0.67761 0.7883 0.0
N2236 N 0.7669 0.67133 0.76394 0.0
N2237 N 0.70855 0.68481 0.76297 0.0
C2238 C 0.7508 0.67164 0.76503 0.0
C2239 C 0.72141 0.67929 0.76411 0.0
N2240 N 0.74052 0.65677 0.7226 0.0
N2241 N 0.72401 0.68255 0.8116 0.0
H2242 H 0.70023 0.68291 0.74655 0.0
H2243 H 0.70698 0.69246 0.77781 0.0
H2244 H 0.72974 0.68241 0.8299 0.0
H2245 H 0.71167 0.6826 0.81314 0.0
H2246 H 0.74905 0.65101 0.72363 0.0
H2247 H 0.73198 0.65275 0.70604 0.0
H2248 H 0.77184 0.66879 0.74666 0.0
H2249 H 0.7763 0.67552 0.77958 0.0
C2250 C 0.72035 0.6712 0.59676 0.0
C2251 C 0.72693 0.66863 0.62142 0.0
C2252 C 0.74613 0.65848 0.59881 0.0
C2253 C 0.74105 0.66305 0.5743 0.0
N2254 N 0.7251 0.67574 0.54966 0.0
N2255 N 0.74569 0.65954 0.64656 0.0
C2256 C 0.72863 0.66995 0.57319 0.0
C2257 C 0.73973 0.66217 0.62261 0.0
N2258 N 0.70569 0.67411 0.59584 0.0
N2259 N 0.7566 0.65008 0.59919 0.0
H2260 H 0.74001 0.66055 0.66412 0.0
H2261 H 0.75661 0.65708 0.64922 0.0
H2262 H 0.76182 0.64753 0.58217 0.0
H2263 H 0.75928 0.6446 0.61605 0.0
H2264 H 0.69908 0.67431 0.57842 0.0
H2265 H 0.69896 0.67455 0.6127 0.0
H2266 H 0.71781 0.68281 0.54799 0.0
H2267 H 0.73071 0.67481 0.53191 0.0
C2268 C 0.33305 0.07583 0.61323 0.0
C2269 C 0.34015 0.06349 0.61352 0.0
C2270 C 0.35094 0.07228 0.56825 0.0
C2271 C 0.34339 0.08419 0.56764 0.0
N2272 N 0.32553 0.09604 0.58777 0.0
N2273 N 0.35132 0.04635 0.58911 0.0
C2274 C 0.33389 0.08556 0.58963 0.0
C2275 C 0.34789 0.06073 0.59045 0.0
N2276 N 0.32617 0.07875 0.63585 0.0
N2277 N 0.36113 0.07204 0.54759 0.0
H2278 H 0.34876 0.03712 0.6045 0.0
H2279 H 0.35511 0.04245 0.57191 0.0
H2280 H 0.36294 0.07953 0.5303 0.0
H2281 H 0.36891 0.06545 0.54828 0.0
H2282 H 0.32251 0.08889 0.63793 0.0
H2283 H 0.32552 0.07204 0.65354 0.0
H2284 H 0.31666 0.09613 0.6018 0.0
H2285 H 0.32662 0.104 0.57125 0.0
C2286 C 0.93595 0.2486 0.61626 0.0
C2287 C 0.94896 0.26752 0.62065 0.0
C2288 C 0.94095 0.27463 0.57669 0.0
C2289 C 0.92593 0.25649 0.5751 0.0
N2290 N 0.90724 0.227 0.59535 0.0
N2291 N 0.96531 0.29843 0.60296 0.0
C2292 C 0.92283 0.24377 0.59555 0.0
C2293 C 0.95182 0.28052 0.60024 0.0
N2294 N 0.93671 0.23496 0.63023 0.0
N2295 N 0.9453 0.28596 0.55523 0.0
H2296 H 0.97566 0.30279 0.61724 0.0
H2297 H 0.96621 0.30908 0.59117 0.0
H2298 H 0.93753 0.28221 0.53783 0.0
H2299 H 0.95726 0.29858 0.5538 0.0
H2300 H 0.92817 0.22104 0.62622 0.0
H2301 H 0.94755 0.23711 0.64254 0.0
H2302 H 0.90332 0.218 0.61132 0.0
H2303 H 0.89736 0.22288 0.58036 0.0
C2304 C 0.35441 0.29553 0.59662 0.0
C2305 C 0.34627 0.28444 0.61927 0.0
C2306 C 0.34498 0.25784 0.59687 0.0
C2307 C 0.35209 0.26859 0.57386 0.0
N2308 N 0.36166 0.2969 0.55019 0.0
N2309 N 0.3309 0.25439 0.63936 0.0
C2310 C 0.35648 0.2873 0.57337 0.0
C2311 C 0.34065 0.26538 0.61887 0.0
N2312 N 0.35987 0.31389 0.59708 0.0
N2313 N 0.34294 0.24057 0.59797 0.0
H2314 H 0.3283 0.25952 0.65639 0.0
H2315 H 0.3245 0.24009 0.63889 0.0
H2316 H 0.34601 0.23463 0.58221 0.0
H2317 H 0.3398 0.23276 0.61515 0.0
H2318 H 0.36826 0.3232 0.58295 0.0
H2319 H 0.35685 0.32023 0.61227 0.0
H2320 H 0.36297 0.30984 0.54743 0.0
H2321 H 0.36352 0.29146 0.53282 0.0
C2322 C 0.73454 0.04847 0.60028 0.0
C2323 C 0.73093 0.05623 0.62277 0.0
C2324 C 0.73999 0.08488 0.59814 0.0
C2325 C 0.74441 0.07742 0.57622 0.0
N2326 N 0.74764 0.05296 0.55668 0.0
N2327 N 0.73271 0.08272 0.64446 0.0
C2328 C 0.74225 0.05948 0.57743 0.0
C2329 C 0.73421 0.07464 0.622 0.0
N2330 N 0.72977 0.03027 0.60024 0.0
N2331 N 0.74117 0.10176 0.59607 0.0
H2332 H 0.72811 0.07571 0.66215 0.0
H2333 H 0.73722 0.09671 0.64624 0.0
H2334 H 0.74673 0.11036 0.57981 0.0
H2335 H 0.73573 0.10692 0.60976 0.0
H2336 H 0.72976 0.02313 0.58352 0.0
H2337 H 0.72444 0.02172 0.61654 0.0
H2338 H 0.74883 0.04115 0.55753 0.0
H2339 H 0.75201 0.05993 0.53881 0.0
C2340 C 0.92733 0.67076 0.62204 0.0
C2341 C 0.94173 0.66646 0.62271 0.0
C2342 C 0.9361 0.65802 0.57582 0.0
C2343 C 0.92025 0.66 0.57626 0.0
N2344 N 0.899 0.66534 0.60102 0.0
N2345 N 0.95936 0.65496 0.60033 0.0
C2346 C 0.9154 0.66563 0.59971 0.0
C2347 C 0.94586 0.65962 0.59969 0.0
N2348 N 0.92509 0.67984 0.64266 0.0
N2349 N 0.94262 0.65589 0.55229 0.0
H2350 H 0.96817 0.65748 0.61633 0.0
H2351 H 0.96109 0.64743 0.58545 0.0
H2352 H 0.93641 0.65545 0.53417 0.0
H2353 H 0.95521 0.65645 0.55033 0.0
H2354 H 0.91619 0.68517 0.64206 0.0
H2355 H 0.93306 0.68315 0.65976 0.0
H2356 H 0.89389 0.66755 0.61838 0.0
H2357 H 0.88959 0.66102 0.5854 0.0
C2358 C 0.94023 0.65811 0.76622 0.0
C2359 C 0.94188 0.66853 0.74311 0.0
C2360 C 0.93048 0.68628 0.76719 0.0
C2361 C 0.92797 0.67525 0.78983 0.0
N2362 N 0.92939 0.65008 0.81111 0.0
N2363 N 0.93642 0.69085 0.72035 0.0
C2364 C 0.93253 0.66098 0.78936 0.0
C2365 C 0.93658 0.68229 0.74333 0.0
N2366 N 0.94672 0.64596 0.76633 0.0
N2367 N 0.92709 0.70068 0.76854 0.0
H2368 H 0.94105 0.68858 0.70263 0.0
H2369 H 0.93056 0.69924 0.71824 0.0
H2370 H 0.92128 0.70322 0.78489 0.0
H2371 H 0.93092 0.71077 0.7541 0.0
H2372 H 0.94809 0.63956 0.78318 0.0
H2373 H 0.95193 0.64302 0.7497 0.0
H2374 H 0.93001 0.63795 0.81117 0.0
H2375 H 0.92527 0.65265 0.82913 0.0
C2376 C 0.32756 0.2633 0.74011 0.0
C2377 C 0.34223 0.28175 0.73967 0.0
C2378 C 0.34914 0.27925 0.78635 0.0
C2379 C 0.33384 0.26122 0.78707 0.0
N2380 N 0.30724 0.23655 0.76591 0.0
N2381 N 0.36583 0.30812 0.76295 0.0
C2382 C 0.32265 0.25342 0.76433 0.0
C2383 C 0.35279 0.28991 0.76292 0.0
N2384 N 0.31898 0.25483 0.71708 0.0
N2385 N 0.36031 0.28614 0.80809 0.0
H2386 H 0.3694 0.31637 0.74621 0.0
H2387 H 0.37232 0.31556 0.7799 0.0
H2388 H 0.35736 0.27945 0.82625 0.0
H2389 H 0.37304 0.29803 0.80792 0.0
H2390 H 0.3098 0.24082 0.71543 0.0
H2391 H 0.32211 0.26151 0.69897 0.0
H2392 H 0.2972 0.23114 0.7512 0.0
H2393 H 0.30383 0.2283 0.7827 0.0
C2394 C 0.7433 0.07267 0.74242 0.0
C2395 C 0.73026 0.05357 0.74208 0.0
C2396 C 0.73873 0.05067 0.78781 0.0
C2397 C 0.75154 0.06976 0.78814 0.0
N2398 N 0.76868 0.09834 0.76497 0.0
N2399 N 0.71289 0.02517 0.76611 0.0
C2400 C 0.7545 0.08063 0.76524 0.0
C2401 C 0.72739 0.04271 0.76513 0.0
N2402 N 0.74466 0.08329 0.72107 0.0
N2403 N 0.73757 0.04006 0.80914 0.0
H2404 H 0.7039 0.0188 0.75037 0.0
H2405 H 0.70872 0.01726 0.78317 0.0
H2406 H 0.74475 0.04546 0.82674 0.0
H2407 H 0.73055 0.02575 0.80888 0.0
H2408 H 0.75204 0.09759 0.72099 0.0
H2409 H 0.73767 0.07775 0.70348 0.0
H2410 H 0.77307 0.10649 0.74815 0.0
H2411 H 0.77716 0.10456 0.7813 0.0
C2412 C 0.04811 0.36112 0.06382 0.0
C2413 C 0.04376 0.35606 0.03697 0.0
C2414 C 0.05982 0.33824 0.03955 0.0
C2415 C 0.0629 0.34218 0.06694 0.0
N2416 N 0.05561 0.35321 0.10636 0.0
N2417 N 0.04262 0.33745 1.00016 0.0
C2418 C 0.05572 0.35238 0.07945 0.0
C2419 C 0.04867 0.34381 0.02511 0.0
N2420 N 0.04554 0.37471 0.07424 0.0
N2421 N 0.06817 0.32995 0.02712 0.0
H2422 H 0.03468 0.3415 0.98898 0.0
H2423 H 0.0442 0.3271 0.99139 0.0
H2424 H 0.07657 0.32587 0.037 0.0
H2425 H 0.068 0.32844 0.00675 0.0
H2426 H 0.05028 0.38026 0.09293 0.0
H2427 H 0.04021 0.38165 0.06336 0.0
H2428 H 0.04891 0.35892 0.11649 0.0
H2429 H 0.06053 0.3465 0.11862 0.0
C2430 C 0.66379 0.7056 0.03215 0.0
C2431 C 0.65276 0.68952 0.04709 0.0
C2432 C 0.65383 0.70851 0.08444 0.0
C2433 C 0.66382 0.72454 0.06894 0.0
N2434 N 0.67551 0.7384 0.02674 0.0
N2435 N 0.63364 0.67557 0.0849 0.0
C2436 C 0.66791 0.72309 0.04233 0.0
C2437 C 0.64671 0.69095 0.0725 0.0
N2438 N 0.67111 0.70427 0.00892 0.0
N2439 N 0.65177 0.71 0.11085 0.0
H2440 H 0.6277 0.66247 0.07656 0.0
H2441 H 0.62734 0.67601 0.10219 0.0
H2442 H 0.65672 0.72258 0.1205 0.0
H2443 H 0.64653 0.69881 0.12365 0.0
H2444 H 0.68084 0.71563 0.99859 0.0
H2445 H 0.66867 0.69177 0.001 0.0
H2446 H 0.67712 0.73799 0.00648 0.0
H2447 H 0.67877 0.75141 0.03368 0.0
C2448 C 0.29501 0.95703 0.03084 0.0
C2449 C 0.31176 0.9652 0.04542 0.0
C2450 C 0.29498 0.95083 0.08578 0.0
C2451 C 0.27855 0.94105 0.07082 0.0
N2452 N 0.26351 0.9323 0.02831 0.0
N2453 N 0.32796 0.96556 0.08546 0.0
C2454 C 0.27873 0.94338 0.04306 0.0
C2455 C 0.31184 0.96086 0.07253 0.0
N2456 N 0.29441 0.96289 0.00583 0.0
N2457 N 0.29451 0.95121 0.11269 0.0
H2458 H 0.34063 0.97198 0.07624 0.0
H2459 H 0.32854 0.96114 0.10453 0.0
H2460 H 0.28241 0.9446 0.12333 0.0
H2461 H 0.30593 0.9597 0.12427 0.0
H2462 H 0.28224 0.95874 0.99533 0.0
H2463 H 0.30587 0.97325 0.99648 0.0
H2464 H 0.26343 0.93211 0.00777 0.0
H2465 H 0.25143 0.92208 0.03659 0.0
C2466 C 0.34597 0.03654 0.94845 0.0
C2467 C 0.34812 0.03851 0.97625 0.0
C2468 C 0.33707 0.06075 0.97578 0.0
C2469 C 0.33611 0.05984 0.94785 0.0
N2470 N 0.33849 0.04652 0.90712 0.0
N2471 N 0.33984 0.04708 0.01674 0.0
C2472 C 0.34005 0.04744 0.93404 0.0
C2473 C 0.34195 0.04907 0.99005 0.0
N2474 N 0.34917 0.02391 0.93612 0.0
N2475 N 0.33405 0.07334 0.98859 0.0
H2476 H 0.34232 0.03777 0.02736 0.0
H2477 H 0.33387 0.05308 0.02792 0.0
H2478 H 0.33005 0.08185 0.97883 0.0
H2479 H 0.33665 0.07624 0.00861 0.0
H2480 H 0.34733 0.02101 0.91608 0.0
H2481 H 0.35286 0.01534 0.94634 0.0
H2482 H 0.34239 0.03899 0.89526 0.0
H2483 H 0.33346 0.05371 0.89615 0.0
C2484 C 0.95845 0.31405 0.95141 0.0
C2485 C 0.96638 0.31501 0.97666 0.0
C2486 C 0.94866 0.28135 0.98007 0.0
C2487 C 0.94275 0.28042 0.95348 0.0
N2488 N 0.94439 0.29584 0.91232 0.0
N2489 N 0.9706 0.29961 0.01425 0.0
C2490 C 0.94823 0.29676 0.93875 0.0
C2491 C 0.96179 0.29867 0.99095 0.0
N2492 N 0.96019 0.32965 0.93983 0.0
N2493 N 0.94153 0.26571 0.99497 0.0
H2494 H 0.98027 0.31202 0.02277 0.0
H2495 H 0.96936 0.28811 0.02414 0.0
H2496 H 0.932 0.25284 0.98749 0.0
H2497 H 0.94385 0.26568 0.01518 0.0
H2498 H 0.95313 0.32953 0.9227 0.0
H2499 H 0.96713 0.34255 0.94877 0.0
H2500 H 0.94993 0.30732 0.90005 0.0
H2501 H 0.93702 0.28349 0.90208 0.0
C2502 C 0.70547 0.6569 0.99947 0.0
C2503 C 0.68883 0.65089 0.98529 0.0
C2504 C 0.70585 0.66065 0.94389 0.0
C2505 C 0.72197 0.6638 0.95777 0.0
N2506 N 0.73711 0.66383 0.99853 0.0
N2507 N 0.67284 0.64767 0.94411 0.0
C2508 C 0.72181 0.6617 0.98554 0.0
C2509 C 0.68894 0.6531 0.95751 0.0
N2510 N 0.7058 0.65897 0.02618 0.0
N2511 N 0.70686 0.66533 0.91782 0.0
H2512 H 0.66045 0.64348 0.95354 0.0
H2513 H 0.67152 0.64656 0.92368 0.0
H2514 H 0.71896 0.67074 0.90717 0.0
H2515 H 0.69612 0.66521 0.90715 0.0
H2516 H 0.71778 0.66479 0.03754 0.0
H2517 H 0.69424 0.65678 0.03655 0.0
H2518 H 0.73721 0.66049 0.01833 0.0
H2519 H 0.74941 0.66764 0.98903 0.0
C2520 C 0.96036 0.64957 0.95397 0.0
C2521 C 0.96644 0.65498 0.98036 0.0
C2522 C 0.94511 0.66702 0.98381 0.0
C2523 C 0.94118 0.664 0.95638 0.0
N2524 N 0.94877 0.65636 0.91419 0.0
N2525 N 0.9665 0.67139 0.01939 0.0
C2526 C 0.94985 0.65639 0.94111 0.0
C2527 C 0.95926 0.66432 0.99514 0.0
N2528 N 0.96393 0.63728 0.94139 0.0
N2529 N 0.93509 0.67211 0.99911 0.0
H2530 H 0.97716 0.67012 0.02806 0.0
H2531 H 0.96309 0.67994 0.02983 0.0
H2532 H 0.92456 0.67405 0.99146 0.0
H2533 H 0.9361 0.67276 0.0196 0.0
H2534 H 0.9583 0.63166 0.92303 0.0
H2535 H 0.97061 0.63097 0.95051 0.0
H2536 H 0.95644 0.65267 0.90224 0.0
H2537 H 0.94183 0.66188 0.90369 0.0
C2538 C 0.34729 0.29785 0.00107 0.0
C2539 C 0.35214 0.31456 0.98781 0.0
C2540 C 0.34378 0.29813 0.94549 0.0
C2541 C 0.34194 0.2822 0.95849 0.0
N2542 N 0.34321 0.2671 0.99848 0.0
N2543 N 0.35459 0.33092 0.9474 0.0
C2544 C 0.34397 0.28208 0.98628 0.0
C2545 C 0.35011 0.31476 0.96 0.0
N2546 N 0.34491 0.29685 0.02771 0.0
N2547 N 0.33893 0.29719 0.91944 0.0
H2548 H 0.35801 0.34306 0.95742 0.0
H2549 H 0.3558 0.33257 0.92704 0.0
H2550 H 0.33429 0.28529 0.90815 0.0
H2551 H 0.33807 0.30766 0.90946 0.0
H2552 H 0.33991 0.28467 0.03839 0.0
H2553 H 0.34591 0.30787 0.03859 0.0
H2554 H 0.34653 0.26699 0.01832 0.0
H2555 H 0.34067 0.25525 0.9883 0.0
C2556 C 0.69084 0.04796 0.95286 0.0
C2557 C 0.69017 0.04079 0.97852 0.0
C2558 C 0.72373 0.05852 0.98166 0.0
C2559 C 0.72436 0.06368 0.95483 0.0
N2560 N 0.70857 0.06088 0.91347 0.0
N2561 N 0.70594 0.03743 0.01645 0.0
C2562 C 0.70793 0.0578 0.94004 0.0
C2563 C 0.70661 0.04569 0.99284 0.0
N2564 N 0.6752 0.04592 0.94104 0.0
N2565 N 0.73947 0.06608 0.99652 0.0
H2566 H 0.6937 0.02787 0.02513 0.0
H2567 H 0.71751 0.03889 0.02643 0.0
H2568 H 0.7522 0.07543 0.98885 0.0
H2569 H 0.7397 0.06433 0.01683 0.0
H2570 H 0.67516 0.05249 0.92354 0.0
H2571 H 0.66245 0.03923 0.95002 0.0
H2572 H 0.69701 0.055 0.90123 0.0
H2573 H 0.72076 0.068 0.90314 0.0
C2574 C 0.66416 0.96381 0.03168 0.0
C2575 C 0.64995 0.96575 0.04349 0.0
C2576 C 0.65248 0.9504 0.08341 0.0
C2577 C 0.6652 0.94666 0.07057 0.0
N2578 N 0.68155 0.94765 0.0314 0.0
N2579 N 0.62841 0.95823 0.07887 0.0
C2580 C 0.67072 0.95289 0.04444 0.0
C2581 C 0.64346 0.95825 0.06885 0.0
N2582 N 0.67124 0.97221 0.00814 0.0
N2583 N 0.64947 0.94703 0.1098 0.0
H2584 H 0.62153 0.9641 0.06918 0.0
H2585 H 0.62184 0.95108 0.09584 0.0
H2586 H 0.656 0.94152 0.1213 0.0
H2587 H 0.6419 0.95133 0.12084 0.0
H2588 H 0.68298 0.97311 1.00005 0.0
H2589 H 0.66609 0.97937 0.99737 0.0
H2590 H 0.68443 0.94998 0.0114 0.0
H2591 H 0.68654 0.93961 0.04007 0.0
C2592 C 0.0504 0.68958 0.06693 0.0
C2593 C 0.04557 0.6904 0.04023 0.0
C2594 C 0.0618 0.72411 0.04233 0.0
C2595 C 0.06543 0.72319 0.06957 0.0
N2596 N 0.05984 0.70506 0.10912 0.0
N2597 N 0.04425 0.70796 0.00328 0.0
C2598 C 0.05878 0.70591 0.08226 0.0
C2599 C 0.05051 0.70755 0.02816 0.0
N2600 N 0.04738 0.67324 0.07752 0.0
N2601 N 0.0697 0.74076 0.02984 0.0
H2602 H 0.03627 0.69609 0.99223 0.0
H2603 H 0.04575 0.71987 0.99435 0.0
H2604 H 0.07805 0.75313 0.03961 0.0
H2605 H 0.06919 0.74225 0.00951 0.0
H2606 H 0.05249 0.67215 0.09587 0.0
H2607 H 0.04102 0.66089 0.06711 0.0
H2608 H 0.05342 0.6928 0.11969 0.0
H2609 H 0.06569 0.71668 0.12117 0.0
C2610 C 0.29596 0.33917 0.03715 0.0
C2611 C 0.31241 0.35059 0.05134 0.0
C2612 C 0.29464 0.35126 0.08886 0.0
C2613 C 0.27823 0.34092 0.07403 0.0
N2614 N 0.26322 0.32759 0.03271 0.0
N2615 N 0.3275 0.37104 0.08805 0.0
C2616 C 0.27889 0.33567 0.0477 0.0
C2617 C 0.31178 0.35765 0.07645 0.0
N2618 N 0.29656 0.33095 0.01427 0.0
N2619 N 0.29388 0.35441 0.11511 0.0
H2620 H 0.34031 0.3765 0.07936 0.0
H2621 H 0.32762 0.37808 0.10499 0.0
H2622 H 0.28164 0.3501 0.12506 0.0
H2623 H 0.30532 0.35994 0.12758 0.0
H2624 H 0.28494 0.32094 0.00451 0.0
H2625 H 0.30875 0.33298 0.00611 0.0
H2626 H 0.26304 0.32513 0.01258 0.0
H2627 H 0.25051 0.32472 0.03996 0.0
C2628 C 0.71673 0.67949 0.36175 0.0
C2629 C 0.71036 0.69025 0.37454 0.0
C2630 C 0.72051 0.68433 0.4171 0.0
C2631 C 0.72922 0.67582 0.40397 0.0
N2632 N 0.73782 0.66754 0.36321 0.0
N2633 N 0.70918 0.70585 0.4137 0.0
C2634 C 0.72785 0.67389 0.37609 0.0
C2635 C 0.71305 0.69349 0.40205 0.0
N2636 N 0.71199 0.67447 0.33601 0.0
N2637 N 0.71887 0.68321 0.44391 0.0
H2638 H 0.70416 0.71321 0.40318 0.0
H2639 H 0.71262 0.7101 0.43322 0.0
H2640 H 0.72364 0.67611 0.45563 0.0
H2641 H 0.7111 0.68765 0.45419 0.0
H2642 H 0.71475 0.66517 0.32633 0.0
H2643 H 0.70383 0.67835 0.32504 0.0
H2644 H 0.73885 0.66765 0.34277 0.0
H2645 H 0.7464 0.66364 0.37297 0.0
C2646 C 0.31319 0.02399 0.4021 0.0
C2647 C 0.32008 0.02292 0.37718 0.0
C2648 C 0.33635 0.05662 0.37404 0.0
C2649 C 0.33122 0.05761 0.40024 0.0
N2650 N 0.31701 0.04234 0.44085 0.0
N2651 N 0.33992 0.03807 0.34051 0.0
C2652 C 0.32021 0.04132 0.41471 0.0
C2653 C 0.33202 0.0392 0.36328 0.0
N2654 N 0.29943 0.00849 0.41333 0.0
N2655 N 0.34514 0.07231 0.35936 0.0
H2656 H 0.33719 0.02559 0.33214 0.0
H2657 H 0.35027 0.04946 0.33101 0.0
H2658 H 0.34866 0.08527 0.3668 0.0
H2659 H 0.34761 0.07236 0.3393 0.0
H2660 H 0.29252 0.00872 0.4301 0.0
H2661 H 0.29359 0.99557 0.40447 0.0
H2662 H 0.31096 0.03089 0.45314 0.0
H2663 H 0.32175 0.05473 0.45091 0.0
C2664 C 0.95984 0.29195 0.36723 0.0
C2665 C 0.97677 0.29669 0.37996 0.0
C2666 C 0.9605 0.27836 0.41852 0.0
C2667 C 0.94355 0.27287 0.40536 0.0
N2668 N 0.92689 0.27159 0.36567 0.0
N2669 N 0.9932 0.29078 0.41461 0.0
C2670 C 0.94317 0.27877 0.37917 0.0
C2671 C 0.97708 0.28879 0.40469 0.0
N2672 N 0.95965 0.30068 0.34446 0.0
N2673 N 0.96083 0.27431 0.44462 0.0
H2674 H 0.00559 0.29795 0.40478 0.0
H2675 H 0.99398 0.28375 0.43116 0.0
H2676 H 0.94904 0.26662 0.4556 0.0
H2677 H 0.97279 0.27987 0.45602 0.0
H2678 H 0.94774 0.29936 0.33577 0.0
H2679 H 0.97155 0.31039 0.33518 0.0
H2680 H 0.92584 0.27388 0.34568 0.0
H2681 H 0.91448 0.26204 0.37399 0.0
C2682 C 0.00469 0.37982 0.32467 0.0
C2683 C 0.01492 0.37244 0.31292 0.0
C2684 C 0.0135 0.38553 0.27017 0.0
C2685 C 0.00351 0.39322 0.28188 0.0
N2686 N 0.98728 0.39586 0.31884 0.0
N2687 N 0.02466 0.36377 0.27379 0.0
C2688 C 0.99837 0.38977 0.30876 0.0
C2689 C 0.01802 0.37397 0.28542 0.0
N2690 N 1.00122 0.3774 0.35106 0.0
N2691 N 0.01902 0.38964 0.24458 0.0
H2692 H 0.02758 0.35476 0.28439 0.0
H2693 H 0.02565 0.36283 0.2535 0.0
H2694 H 0.01535 0.39741 0.23235 0.0
H2695 H 0.02822 0.38638 0.23589 0.0
H2696 H 0.99571 0.38403 0.36179 0.0
H2697 H 0.00429 0.36886 0.36258 0.0
H2698 H 0.98161 0.39258 0.33752 0.0
H2699 H 0.98288 0.4036 0.30788 0.0
C2700 C 0.62697 0.64987 0.28609 0.0
C2701 C 0.63409 0.65077 0.31193 0.0
C2702 C 0.61489 0.61725 0.316 0.0
C2703 C 0.60975 0.61625 0.28902 0.0
N2704 N 0.61329 0.63142 0.24706 0.0
N2705 N 0.63647 0.63518 0.35071 0.0
C2706 C 0.61639 0.63252 0.27371 0.0
C2707 C 0.62838 0.63443 0.32683 0.0
N2708 N 0.62975 0.6656 0.27366 0.0
N2709 N 0.60668 0.60183 0.33131 0.0
H2710 H 0.64647 0.64745 0.35916 0.0
H2711 H 0.63436 0.62356 0.36119 0.0
H2712 H 0.59683 0.58907 0.3239 0.0
H2713 H 0.60844 0.60197 0.35168 0.0
H2714 H 0.6233 0.6656 0.25596 0.0
H2715 H 0.63694 0.67857 0.28232 0.0
H2716 H 0.61965 0.64272 0.23454 0.0
H2717 H 0.60567 0.61902 0.23703 0.0
C2718 C 0.35528 0.9843 0.28704 0.0
C2719 C 0.35561 0.98325 0.31497 0.0
C2720 C 0.38864 0.99433 0.31475 0.0
C2721 C 0.38836 0.99525 0.28683 0.0
N2722 N 0.37241 0.99397 0.2463 0.0
N2723 N 0.37304 0.99262 0.35544 0.0
C2724 C 0.37194 0.9911 0.27293 0.0
C2725 C 0.37244 0.98979 0.32887 0.0
N2726 N 0.33896 0.9785 0.27406 0.0
N2727 N 0.40431 0.99748 0.32771 0.0
H2728 H 0.36155 0.99056 0.36588 0.0
H2729 H 0.38511 0.99886 0.36655 0.0
H2730 H 0.41657 1.00135 0.31805 0.0
H2731 H 0.40485 0.99502 0.34776 0.0
H2732 H 0.3372 0.97661 0.25376 0.0
H2733 H 0.3268 0.9749 0.28379 0.0
H2734 H 0.3615 0.99316 0.23525 0.0
H2735 H 0.38418 0.99827 0.23517 0.0
C2736 C 0.62912 0.98133 0.28059 0.0
C2737 C 0.63505 0.98782 0.30671 0.0
C2738 C 0.61209 0.9979 0.30887 0.0
C2739 C 0.6072 0.99259 0.28219 0.0
N2740 N 0.61418 0.98359 0.24075 0.0
N2741 N 0.63469 0.00546 0.34391 0.0
C2742 C 0.61676 0.98573 0.26745 0.0
C2743 C 0.62724 0.99702 0.32039 0.0
N2744 N 0.63426 0.96992 0.26883 0.0
N2745 N 0.60196 0.00329 0.32337 0.0
H2746 H 0.64603 0.00545 0.35259 0.0
H2747 H 0.63075 0.01388 0.35359 0.0
H2748 H 0.59106 0.00446 0.31534 0.0
H2749 H 0.60353 0.00536 0.34368 0.0
H2750 H 0.6287 0.96326 0.25099 0.0
H2751 H 0.6425 0.9654 0.27802 0.0
H2752 H 0.62225 0.98053 0.22865 0.0
H2753 H 0.60522 0.98665 0.2303 0.0
C2754 C 0.01131 0.62943 0.33012 0.0
C2755 C 0.01854 0.64638 0.31643 0.0
C2756 C 0.01348 0.63043 0.27413 0.0
C2757 C 0.00725 0.61355 0.28786 0.0
N2758 N 1.00101 0.59665 0.32857 0.0
N2759 N 0.02159 0.6626 0.27581 0.0
C2760 C 0.00628 0.61294 0.3158 0.0
C2761 C 0.01821 0.64677 0.28851 0.0
N2762 N 0.00826 0.62906 0.35657 0.0
N2763 N 0.01559 0.63094 0.24738 0.0
H2764 H 0.02458 0.67464 0.28582 0.0
H2765 H 0.01984 0.66349 0.25561 0.0
H2766 H 0.01198 0.61926 0.23604 0.0
H2767 H 0.0221 0.64304 0.2365 0.0
H2768 H 1.00174 0.6171 0.36773 0.0
H2769 H 0.01079 0.64079 0.36706 0.0
H2770 H 1.0018 0.59544 0.3489 0.0
H2771 H 0.99675 0.58429 0.31862 0.0
C2772 C 0.36613 0.39165 0.32183 0.0
C2773 C 0.35909 0.37229 0.32093 0.0
C2774 C 0.38508 0.37703 0.29407 0.0
C2775 C 0.39292 0.39639 0.2967 0.0
N2776 N 0.39311 0.42182 0.31918 0.0
N2777 N 0.36529 0.34739 0.3136 0.0
C2778 C 0.38416 0.4036 0.31261 0.0
C2779 C 0.36969 0.36526 0.30943 0.0
N2780 N 0.35537 0.39873 0.32972 0.0
N2781 N 0.39151 0.36973 0.27581 0.0
H2782 H 0.3547 0.33865 0.32597 0.0
H2783 H 0.3735 0.34202 0.30741 0.0
H2784 H 0.40206 0.3777 0.26291 0.0
H2785 H 0.38501 0.35571 0.27154 0.0
H2786 H 0.35933 0.41262 0.328 0.0
H2787 H 0.34185 0.39065 0.33553 0.0
H2788 H 0.38803 0.42745 0.33273 0.0
H2789 H 0.40644 0.43085 0.31321 0.0
C2790 C 0.31021 0.28874 0.40164 0.0
C2791 C 0.31619 0.2947 0.37557 0.0
C2792 C 0.33567 0.28044 0.37766 0.0
C2793 C 0.33079 0.27579 0.40444 0.0
N2794 N 0.3163 0.2786 0.44353 0.0
N2795 N 0.336 0.29827 0.33945 0.0
C2796 C 0.31885 0.2808 0.41689 0.0
C2797 C 0.32941 0.29122 0.36381 0.0
N2798 N 0.296 0.29031 0.41168 0.0
N2799 N 0.34572 0.27397 0.36525 0.0
H2800 H 0.33114 0.30555 0.32833 0.0
H2801 H 0.34709 0.29801 0.33098 0.0
H2802 H 0.3505 0.26602 0.3748 0.0
H2803 H 0.34814 0.2752 0.34508 0.0
H2804 H 0.28968 0.28433 0.42938 0.0
H2805 H 0.28949 0.29633 0.40134 0.0
H2806 H 0.30942 0.28388 0.45418 0.0
H2807 H 0.32246 0.27293 0.45549 0.0
C2808 C 0.72051 0.04013 0.36364 0.0
C2809 C 0.70991 0.0233 0.37704 0.0
C2810 C 0.71817 0.03966 0.41932 0.0
C2811 C 0.73101 0.05593 0.40615 0.0
N2812 N 0.74576 0.07139 0.36598 0.0
N2813 N 0.69835 0.00657 0.41755 0.0
C2814 C 0.7325 0.05613 0.37832 0.0
C2815 C 0.70857 0.02294 0.40489 0.0
N2816 N 0.71851 0.04096 0.33699 0.0
N2817 N 0.7147 0.04036 0.44543 0.0
H2818 H 0.69009 0.99429 0.40754 0.0
H2819 H 0.69872 0.00495 0.43788 0.0
H2820 H 0.72132 0.05238 0.45662 0.0
H2821 H 0.70419 0.02949 0.45552 0.0
H2822 H 0.72465 0.05318 0.3263 0.0
H2823 H 0.70908 0.02962 0.32601 0.0
H2824 H 0.74877 0.07164 0.34608 0.0
H2825 H 0.7548 0.08337 0.37608 0.0
C2826 C 0.97002 0.6924 0.37801 0.0
C2827 C 0.97766 0.68052 0.3795 0.0
C2828 C 0.95284 0.66002 0.40866 0.0
C2829 C 0.9442 0.67085 0.40495 0.0
N2830 N 0.94241 0.69469 0.38025 0.0
N2831 N 0.97285 0.65018 0.38975 0.0
C2832 C 0.95209 0.68619 0.3877 0.0
C2833 C 0.96798 0.66343 0.3928 0.0
N2834 N 0.98016 0.71003 0.36908 0.0
N2835 N 0.94735 0.64714 0.42823 0.0
H2836 H 0.98317 0.65169 0.37705 0.0
H2837 H 0.9652 0.63694 0.39732 0.0
H2838 H 0.93702 0.64481 0.44141 0.0
H2839 H 0.95445 0.64021 0.43318 0.0
H2840 H 0.9757 0.71965 0.37012 0.0
H2841 H 0.99376 0.71575 0.36341 0.0
H2842 H 0.9469 0.70487 0.36581 0.0
H2843 H 0.92906 0.69022 0.38644 0.0
C2844 C 0.38096 0.0284 0.73346 0.0
C2845 C 0.37756 0.02449 0.70617 0.0
C2846 C 0.39558 0.00868 0.70746 0.0
C2847 C 0.39749 0.01107 0.73526 0.0
N2848 N 0.38767 0.01894 0.77534 0.0
N2849 N 0.37847 0.00792 0.66807 0.0
C2850 C 0.38889 0.01968 0.74848 0.0
C2851 C 0.38385 0.01365 0.69343 0.0
N2852 N 0.37713 0.04085 0.74494 0.0
N2853 N 0.40556 0.00246 0.69431 0.0
H2854 H 0.36983 0.01129 0.65733 0.0
H2855 H 0.38117 0.99851 0.65861 0.0
H2856 H 0.41467 0.99916 0.70379 0.0
H2857 H 0.4061 0.00221 0.67383 0.0
H2858 H 0.38103 0.04554 0.7642 0.0
H2859 H 0.37166 0.04782 0.73445 0.0
H2860 H 0.38001 0.02347 0.78571 0.0
H2861 H 0.39263 0.01203 0.78709 0.0
C2862 C 1.00107 0.37102 0.6942 0.0
C2863 C 0.98961 0.35489 0.70875 0.0
C2864 C 0.98963 0.37373 0.74561 0.0
C2865 C 0.99999 0.38983 0.73041 0.0
N2866 N 0.01322 0.40393 0.68892 0.0
N2867 N 0.96943 0.34082 0.74553 0.0
C2868 C 0.005 0.38851 0.70425 0.0
C2869 C 0.98287 0.35623 0.73367 0.0
N2870 N 0.00889 0.36971 0.67146 0.0
N2871 N 0.98678 0.37512 0.77178 0.0
H2872 H 0.96368 0.32776 0.73713 0.0
H2873 H 0.96263 0.34121 0.76231 0.0
H2874 H 0.99144 0.38766 0.78142 0.0
H2875 H 0.98121 0.36389 0.78451 0.0
H2876 H 0.01891 0.38105 0.66146 0.0
H2877 H 0.00644 0.35718 0.66362 0.0
H2878 H 0.01552 0.40365 0.66886 0.0
H2879 H 0.01645 0.41692 0.69583 0.0
C2880 C 0.64324 0.62659 0.74125 0.0
C2881 C 0.64328 0.63102 0.71415 0.0
C2882 C 0.61006 0.61003 0.71186 0.0
C2883 C 0.60988 0.60756 0.73959 0.0
N2884 N 0.62595 0.61727 0.78144 0.0
N2885 N 0.62617 0.62929 0.67458 0.0
C2886 C 0.62637 0.61695 0.75452 0.0
C2887 C 0.62653 0.62333 0.69961 0.0
N2888 N 0.65925 0.63077 0.75414 0.0
N2889 N 0.59466 0.59941 0.69717 0.0
H2890 H 0.63782 0.63936 0.66522 0.0
H2891 H 0.61408 0.62553 0.66406 0.0
H2892 H 0.58242 0.58951 0.70551 0.0
H2893 H 0.59448 0.59927 0.67664 0.0
H2894 H 0.65968 0.62622 0.77317 0.0
H2895 H 0.67192 0.63686 0.74493 0.0
H2896 H 0.63746 0.62552 0.79302 0.0
H2897 H 0.61384 0.61089 0.79211 0.0
C2898 C 0.66983 0.7066 0.65544 0.0
C2899 C 0.68464 0.70507 0.64491 0.0
C2900 C 0.68394 0.72163 0.60513 0.0
C2901 C 0.6705 0.72481 0.61679 0.0
N2902 N 0.65169 0.72203 0.65381 0.0
N2903 N 0.70757 0.71333 0.61135 0.0
C2904 C 0.6636 0.71763 0.6421 0.0
C2905 C 0.69221 0.71322 0.62022 0.0
N2906 N 0.66186 0.69769 0.67833 0.0
N2907 N 0.68842 0.72613 0.57927 0.0
H2908 H 0.71381 0.70683 0.62113 0.0
H2909 H 0.71499 0.72102 0.59521 0.0
H2910 H 0.68268 0.73232 0.56749 0.0
H2911 H 0.69651 0.72223 0.56874 0.0
H2912 H 0.64973 0.69646 0.68544 0.0
H2913 H 0.66676 0.69052 0.68961 0.0
H2914 H 0.64765 0.71902 0.67335 0.0
H2915 H 0.64672 0.72988 0.64447 0.0
C2916 C 0.2813 0.97332 0.65006 0.0
C2917 C 0.30059 0.98045 0.6497 0.0
C2918 C 0.29608 0.95421 0.62296 0.0
C2919 C 0.27679 0.94633 0.62503 0.0
N2920 N 0.25133 0.94614 0.64675 0.0
N2921 N 0.32556 0.97441 0.64302 0.0
C2922 C 0.26949 0.95515 0.64067 0.0
C2923 C 0.30772 0.96982 0.63847 0.0
N2924 N 0.27414 0.98413 0.65755 0.0
N2925 N 0.30342 0.9476 0.60506 0.0
H2926 H 0.33427 0.98524 0.65538 0.0
H2927 H 0.33098 0.96618 0.63708 0.0
H2928 H 0.29554 0.93683 0.59215 0.0
H2929 H 0.31739 0.95413 0.60111 0.0
H2930 H 0.2603 0.98008 0.65543 0.0
H2931 H 0.2821 0.99778 0.66334 0.0
H2932 H 0.24564 0.95129 0.6601 0.0
H2933 H 0.24239 0.93271 0.64061 0.0
C2934 C 0.02426 0.30671 0.62356 0.0
C2935 C 0.02455 0.31252 0.64988 0.0
C2936 C 0.05777 0.33334 0.64766 0.0
C2937 C 0.05762 0.32695 0.6217 0.0
N2938 N 0.04127 0.30721 0.58492 0.0
N2939 N 0.04112 0.33014 0.68803 0.0
C2940 C 0.04099 0.31352 0.60966 0.0
C2941 C 0.04118 0.32559 0.66218 0.0
N2942 N 0.00783 0.29507 0.61165 0.0
N2943 N 0.0738 0.34696 0.65824 0.0
H2944 H 0.02914 0.32526 0.69886 0.0
H2945 H 0.05285 0.338 0.69931 0.0
H2946 H 0.08637 0.35213 0.64886 0.0
H2947 H 0.07472 0.35379 0.67573 0.0
H2948 H 0.00617 0.29181 0.59169 0.0
H2949 H 0.99541 0.28929 0.62149 0.0
H2950 H 0.03022 0.29593 0.5761 0.0
H2951 H 0.05292 0.31277 0.57328 0.0
C2952 C 0.29616 0.31877 0.61534 0.0
C2953 C 0.30325 0.32568 0.6409 0.0
C2954 C 0.28506 0.34139 0.64187 0.0
C2955 C 0.27952 0.336 0.61535 0.0
N2956 N 0.2822 0.32221 0.5752 0.0
N2957 N 0.30657 0.3456 0.67723 0.0
C2958 C 0.28576 0.32544 0.60161 0.0
C2959 C 0.2982 0.33748 0.65393 0.0
N2960 N 0.29865 0.3052 0.60462 0.0
N2961 N 0.27749 0.34994 0.65562 0.0
H2962 H 0.31639 0.34323 0.68649 0.0
H2963 H 0.30495 0.35583 0.68631 0.0
H2964 H 0.26805 0.35323 0.64721 0.0
H2965 H 0.27945 0.35249 0.6758 0.0
H2966 H 0.29213 0.29825 0.58735 0.0
H2967 H 0.30577 0.29953 0.61424 0.0
H2968 H 0.28823 0.31649 0.56354 0.0
H2969 H 0.27447 0.32667 0.56435 0.0
C2970 C 0.68379 0.9778 0.62316 0.0
C2971 C 0.68561 0.97796 0.65102 0.0
C2972 C 0.67598 0.94508 0.65092 0.0
C2973 C 0.67424 0.94486 0.62307 0.0
N2974 N 0.67275 0.95977 0.58295 0.0
N2975 N 0.67767 0.96095 0.69161 0.0
C2976 C 0.67705 0.96089 0.60924 0.0
C2977 C 0.68003 0.96134 0.66499 0.0
N2978 N 0.68878 0.99388 0.61 0.0
N2979 N 0.6742 0.9299 0.66386 0.0
H2980 H 0.67935 0.97243 0.70202 0.0
H2981 H 0.67213 0.94895 0.70278 0.0
H2982 H 0.671 0.91768 0.6542 0.0
H2983 H 0.67726 0.92988 0.68382 0.0
H2984 H 0.69018 0.99528 0.58964 0.0
H2985 H 0.69227 0.00617 0.61964 0.0
H2986 H 0.67259 0.97036 0.57224 0.0
H2987 H 0.66797 0.9477 0.57203 0.0
C2988 C 0.02451 0.71759 0.62195 0.0
C2989 C 0.02473 0.71067 0.64751 0.0
C2990 C 0.05834 0.72838 0.64824 0.0
C2991 C 0.05805 0.7333 0.62148 0.0
N2992 N 0.04089 0.73036 0.58146 0.0
N2993 N 0.04176 0.7077 0.68409 0.0
C2994 C 0.04114 0.72735 0.60796 0.0
C2995 C 0.04163 0.71571 0.66057 0.0
N2996 N 0.00848 0.7154 0.61136 0.0
N2997 N 0.07457 0.73602 0.66193 0.0
H2998 H 0.02984 0.69828 0.69362 0.0
H2999 H 0.05364 0.70925 0.69317 0.0
H3000 H 0.08702 0.74523 0.65338 0.0
H3001 H 0.07553 0.73448 0.68217 0.0
H3002 H 0.00781 0.72179 0.59401 0.0
H3003 H 0.99606 0.70876 0.62123 0.0
H3004 H 0.02895 0.72441 0.57001 0.0
H3005 H 0.05272 0.73751 0.57036 0.0
C3006 C 0.99248 0.62478 0.69885 0.0
C3007 C 0.98778 0.63624 0.71329 0.0
C3008 C 0.99339 0.62447 0.75478 0.0
C3009 C 0.9946 0.61063 0.74021 0.0
N3010 N 0.99611 0.59772 0.69863 0.0
N3011 N 0.98661 0.64965 0.75449 0.0
C3012 C 0.99465 0.61098 0.71227 0.0
C3013 C 0.98943 0.63711 0.74117 0.0
N3014 N 0.99542 0.62761 0.6724 0.0
N3015 N 0.99578 0.62526 0.78157 0.0
H3016 H 0.98489 0.65978 0.7449 0.0
H3017 H 0.98566 0.65002 0.77485 0.0
H3018 H 0.99815 0.61588 0.79215 0.0
H3019 H 0.99641 0.63565 0.79342 0.0
H3020 H 1.00028 0.62075 0.6608 0.0
H3021 H 0.9947 0.63827 0.66261 0.0
H3022 H 0.99406 0.59586 0.67835 0.0
H3023 H 0.99855 0.58792 0.70788 0.0
C3024 C 0.37268 0.35946 0.73828 0.0
C3025 C 0.37597 0.35939 0.71091 0.0
C3026 C 0.40015 0.39164 0.71322 0.0
C3027 C 0.39703 0.39174 0.74059 0.0
N3028 N 0.37782 0.37739 0.77814 0.0
N3029 N 0.38785 0.37678 0.67113 0.0
C3030 C 0.38252 0.37611 0.75283 0.0
C3031 C 0.38828 0.3759 0.69799 0.0
N3032 N 0.36045 0.34354 0.75046 0.0
N3033 N 0.41471 0.40637 0.7019 0.0
H3034 H 0.37822 0.36583 0.65975 0.0
H3035 H 0.39541 0.38886 0.66049 0.0
H3036 H 0.42358 0.41822 0.7124 0.0
H3037 H 0.4188 0.40625 0.68265 0.0
H3038 H 0.35919 0.34201 0.77082 0.0
H3039 H 0.35203 0.33143 0.74021 0.0
H3040 H 0.3662 0.3672 0.78731 0.0
H3041 H 0.38478 0.3893 0.78947 0.0
C3042 C 0.64541 0.02056 0.73949 0.0
C3043 C 0.64635 0.0137 0.71437 0.0
C3044 C 0.61281 0.99822 0.71031 0.0
C3045 C 0.61187 0.0033 0.73663 0.0
N3046 N 0.62712 0.01694 0.77787 0.0
N3047 N 0.63098 0.99409 0.67707 0.0
C3048 C 0.62813 0.01386 0.75166 0.0
C3049 C 0.63006 0.00211 0.69996 0.0
N3050 N 0.66096 0.03403 0.75133 0.0
N3051 N 0.59724 0.98991 0.69513 0.0
H3052 H 0.64331 0.99641 0.66904 0.0
H3053 H 0.61952 0.98397 0.66715 0.0
H3054 H 0.58441 0.98675 0.70224 0.0
H3055 H 0.59722 0.98756 0.675 0.0
H3056 H 0.66086 0.04094 0.76828 0.0
H3057 H 0.67386 0.03966 0.74285 0.0
H3058 H 0.63847 0.02262 0.79051 0.0
H3059 H 0.61477 0.01245 0.7876 0.0
loop_
_geom_bond_atom_site_label_1
_geom_bond_atom_site_label_2
_geom_bond_distance
_geom_bond_site_symmetry_2
_ccdc_geom_bond_type
Mn0 O5 2.095 1_655 S
Mn0 O15 2.162 . S
Mn0 O16 2.297 1_554 S
Mn0 O24 2.385 1_554 S
Mn0 O25 2.209 1_654 S
Mn0 O26 2.094 . S
Mn1 O6 2.121 . S
Mn1 N8 2.257 1_554 S
Mn1 N17 2.294 . S
Mn1 O25 2.215 1_554 S
Mn1 O27 2.117 . S
C2 O24 1.234 1_455 S
C2 O25 1.283 . S
C3 O15 1.281 1_556 S
C3 O16 1.236 . S
C4 O26 1.231 1_455 S
C4 O27 1.287 . S
O5 Mn0 2.095 1_455 S
O5 C14 1.250 . S
O6 Mn1 2.121 . S
O6 C14 1.258 . S
C7 N8 1.326 . S
C7 C11 1.460 . S
C7 H13 0.929 . S
N8 Mn1 2.257 1_556 S
N8 C7 1.326 . S
N8 C12 1.362 . S
C9 C10 1.258 . S
C9 C12 1.431 . S
C9 C29 1.449 . S
C10 C9 1.258 . S
C10 C11 1.477 . S
C10 H30 0.931 . S
C11 C7 1.460 . S
C11 C10 1.477 . S
C11 H31 0.930 . S
C12 N8 1.362 . S
C12 C9 1.431 . S
C12 C22 1.476 . S
H13 C7 0.929 . S
C14 O5 1.250 . S
C14 O6 1.258 . S
O15 Mn0 2.162 . S
O15 C3 1.281 1_554 S
O16 Mn0 2.297 1_556 S
O16 C3 1.236 . S
N17 Mn1 2.294 . S
N17 C18 1.338 . S
N17 C22 1.293 1_554 S
C18 N17 1.338 . S
C18 C19 1.457 1_554 S
C18 H23 0.929 . S
C19 C18 1.457 1_556 S
C19 C20 1.291 . S
C19 H32 0.943 . S
C20 C19 1.291 . S
C20 C21 1.373 . S
C20 H33 0.929 . S
C21 C20 1.373 . S
C21 C22 1.396 . S
C21 C28 1.403 . S
C22 C12 1.476 . S
C22 N17 1.293 1_556 S
C22 C21 1.396 . S
H23 C18 0.929 . S
O24 Mn0 2.385 1_556 S
O24 C2 1.234 1_655 S
O25 Mn0 2.209 1_456 S
O25 Mn1 2.215 1_556 S
O25 C2 1.283 . S
O26 Mn0 2.094 . S
O26 C4 1.231 1_655 S
O27 Mn1 2.117 . S
O27 C4 1.287 . S
C28 C21 1.403 . S
C28 C29 1.399 . S
C28 H34 0.929 . S
C29 C9 1.449 . S
C29 C28 1.399 . S
C29 H35 0.930 . S
H30 C10 0.931 . S
H31 C11 0.930 . S
H32 C19 0.943 . S
H33 C20 0.929 . S
H34 C28 0.929 . S
H35 C29 0.930 . S
Mn36 O41 2.095 1_554 S
Mn36 O51 2.162 . S
Mn36 O52 2.297 . S
Mn36 O60 2.385 . S
Mn36 O61 2.209 . S
Mn36 O62 2.094 1_554 S
Mn37 O42 2.121 1_554 S
Mn37 N44 2.257 . S
Mn37 N53 2.282 . S
Mn37 O61 2.215 . S
Mn37 O63 2.117 1_554 S
C38 O60 1.234 . S
C38 O61 1.283 . S
C39 O51 1.281 . S
C39 O52 1.236 . S
C40 O62 1.240 . S
C40 O63 1.264 . S
O41 Mn36 2.095 1_556 S
O41 C50 1.250 . S
O42 Mn37 2.121 1_556 S
O42 C50 1.258 . S
C43 N44 1.326 . S
C43 C47 1.460 . S
C43 H49 0.929 . S
N44 Mn37 2.257 . S
N44 C43 1.326 . S
N44 C48 1.362 . S
C45 C46 1.258 . S
C45 C48 1.431 . S
C45 C65 1.449 . S
C46 C45 1.258 . S
C46 C47 1.477 . S
C46 H66 0.931 . S
C47 C43 1.460 . S
C47 C46 1.477 . S
C47 H67 0.930 . S
C48 N44 1.362 . S
C48 C45 1.431 . S
C48 C58 1.476 . S
H49 C43 0.929 . S
C50 O41 1.250 . S
C50 O42 1.258 . S
O51 Mn36 2.162 . S
O51 C39 1.281 . S
O52 Mn36 2.297 . S
O52 C39 1.236 . S
N53 Mn37 2.282 . S
N53 C54 1.328 . S
N53 C58 1.318 . S
C54 N53 1.328 . S
C54 C55 1.457 . S
C54 H59 0.931 . S
C55 C54 1.457 . S
C55 C56 1.291 . S
C55 H68 0.931 . S
C56 C55 1.291 . S
C56 C57 1.373 . S
C56 H69 0.929 . S
C57 C56 1.373 . S
C57 C58 1.396 . S
C57 C64 1.403 . S
C58 C48 1.476 . S
C58 N53 1.318 . S
C58 C57 1.396 . S
H59 C54 0.931 . S
O60 Mn36 2.385 . S
O60 C38 1.234 . S
O61 Mn36 2.209 . S
O61 Mn37 2.215 . S
O61 C38 1.283 . S
O62 Mn36 2.094 1_556 S
O62 C40 1.240 . S
O63 Mn37 2.117 1_556 S
O63 C40 1.264 . S
C64 C57 1.403 . S
C64 C65 1.399 . S
C64 H70 0.929 . S
C65 C45 1.449 . S
C65 C64 1.399 . S
C65 H71 0.930 . S
H66 C46 0.931 . S
H67 C47 0.930 . S
H68 C55 0.931 . S
H69 C56 0.929 . S
H70 C64 0.929 . S
H71 C65 0.930 . S
Mn72 O77 2.095 1_564 S
Mn72 O87 2.162 . S
Mn72 O88 2.297 . S
Mn72 O96 2.385 . S
Mn72 O97 2.209 1_565 S
Mn72 O98 2.094 1_554 S
Mn73 O78 2.125 . S
Mn73 N80 2.257 . S
Mn73 N89 2.282 . S
Mn73 O97 2.215 . S
Mn73 O99 2.117 1_554 S
C74 O96 1.213 1_545 S
C74 O97 1.305 . S
C75 O87 1.281 . S
C75 O88 1.236 . S
C76 O98 1.245 . S
C76 O99 1.254 1_565 S
O77 Mn72 2.095 1_546 S
O77 C86 1.250 . S
O78 Mn73 2.125 . S
O78 C86 1.249 1_554 S
C79 N80 1.326 . S
C79 C83 1.460 . S
C79 H85 0.929 . S
N80 Mn73 2.257 . S
N80 C79 1.326 . S
N80 C84 1.362 . S
C81 C82 1.258 . S
C81 C84 1.431 . S
C81 C101 1.449 . S
C82 C81 1.258 . S
C82 C83 1.477 . S
C82 H102 0.931 . S
C83 C79 1.460 . S
C83 C82 1.477 . S
C83 H103 0.930 . S
C84 N80 1.362 . S
C84 C81 1.431 . S
C84 C94 1.476 . S
H85 C79 0.929 . S
C86 O77 1.250 . S
C86 O78 1.249 1_556 S
O87 Mn72 2.162 . S
O87 C75 1.281 . S
O88 Mn72 2.297 . S
O88 C75 1.236 . S
N89 Mn73 2.282 . S
N89 C90 1.328 . S
N89 C94 1.318 . S
C90 N89 1.328 . S
C90 C91 1.457 . S
C90 H95 0.929 . S
C91 C90 1.457 . S
C91 C92 1.291 . S
C91 H104 0.931 . S
C92 C91 1.291 . S
C92 C93 1.373 . S
C92 H105 0.929 . S
C93 C92 1.373 . S
C93 C94 1.396 . S
C93 C100 1.403 . S
C94 C84 1.476 . S
C94 N89 1.318 . S
C94 C93 1.396 . S
H95 C90 0.929 . S
O96 Mn72 2.385 . S
O96 C74 1.213 1_565 S
O97 Mn72 2.209 1_545 S
O97 Mn73 2.215 . S
O97 C74 1.305 . S
O98 Mn72 2.094 1_556 S
O98 C76 1.245 . S
O99 Mn73 2.117 1_556 S
O99 C76 1.254 1_545 S
C100 C93 1.403 . S
C100 C101 1.399 . S
C100 H106 0.929 . S
C101 C81 1.449 . S
C101 C100 1.399 . S
C101 H107 0.930 . S
H102 C82 0.931 . S
H103 C83 0.930 . S
H104 C91 0.931 . S
H105 C92 0.929 . S
H106 C100 0.929 . S
H107 C101 0.930 . S
Mn108 O113 2.095 1_655 S
Mn108 O123 2.162 . S
Mn108 O124 2.297 1_554 S
Mn108 O132 2.385 1_554 S
Mn108 O133 2.209 1_654 S
Mn108 O134 2.094 . S
Mn109 O114 2.121 . S
Mn109 N116 2.257 1_554 S
Mn109 N125 2.296 . S
Mn109 O133 2.215 1_554 S
Mn109 O135 2.117 . S
C110 O132 1.184 1_455 S
C110 O133 1.305 . S
C111 O123 1.281 1_556 S
C111 O124 1.236 . S
C112 O134 1.226 1_455 S
C112 O135 1.277 . S
O113 Mn108 2.095 1_455 S
O113 C122 1.250 . S
O114 Mn109 2.121 . S
O114 C122 1.258 . S
C115 N116 1.326 . S
C115 C119 1.460 . S
C115 H121 0.929 . S
N116 Mn109 2.257 1_556 S
N116 C115 1.326 . S
N116 C120 1.362 . S
C117 C118 1.258 . S
C117 C120 1.431 . S
C117 C137 1.449 . S
C118 C117 1.258 . S
C118 C119 1.477 . S
C118 H138 0.931 . S
C119 C115 1.460 . S
C119 C118 1.477 . S
C119 H139 0.930 . S
C120 N116 1.362 . S
C120 C117 1.431 . S
C120 C130 1.476 . S
H121 C115 0.929 . S
C122 O113 1.250 . S
C122 O114 1.258 . S
O123 Mn108 2.162 . S
O123 C111 1.281 1_554 S
O124 Mn108 2.297 1_556 S
O124 C111 1.236 . S
N125 Mn109 2.296 . S
N125 C126 1.339 . S
N125 C130 1.290 1_554 S
C126 N125 1.339 . S
C126 C127 1.457 1_554 S
C126 H131 0.929 . S
C127 C126 1.457 1_556 S
C127 C128 1.291 . S
C127 H140 0.935 . S
C128 C127 1.291 . S
C128 C129 1.373 . S
C128 H141 0.929 . S
C129 C128 1.373 . S
C129 C130 1.396 . S
C129 C136 1.403 . S
C130 C120 1.476 . S
C130 N125 1.290 1_556 S
C130 C129 1.396 . S
H131 C126 0.929 . S
O132 Mn108 2.385 1_556 S
O132 C110 1.184 1_655 S
O133 Mn108 2.209 1_456 S
O133 Mn109 2.215 1_556 S
O133 C110 1.305 . S
O134 Mn108 2.094 . S
O134 C112 1.226 1_655 S
O135 Mn109 2.117 . S
O135 C112 1.277 . S
C136 C129 1.403 . S
C136 C137 1.399 . S
C136 H142 0.929 . S
C137 C117 1.449 . S
C137 C136 1.399 . S
C137 H143 0.930 . S
H138 C118 0.931 . S
H139 C119 0.930 . S
H140 C127 0.935 . S
H141 C128 0.929 . S
H142 C136 0.929 . S
H143 C137 0.930 . S
Mn144 O149 2.095 1_554 S
Mn144 O159 2.162 . S
Mn144 O160 2.297 . S
Mn144 O168 2.385 . S
Mn144 O169 2.209 . S
Mn144 O170 2.094 1_554 S
Mn145 O150 2.118 1_554 S
Mn145 N152 2.257 . S
Mn145 N161 2.282 . S
Mn145 O169 2.215 . S
Mn145 O171 2.117 1_554 S
C146 O168 1.234 . S
C146 O169 1.283 . S
C147 O159 1.281 . S
C147 O160 1.236 . S
C148 O170 1.240 . S
C148 O171 1.264 . S
O149 Mn144 2.095 1_556 S
O149 C158 1.250 . S
O150 Mn145 2.118 1_556 S
O150 C158 1.266 . S
C151 N152 1.326 . S
C151 C155 1.460 . S
C151 H157 0.929 . S
N152 Mn145 2.257 . S
N152 C151 1.326 . S
N152 C156 1.362 . S
C153 C154 1.258 . S
C153 C156 1.431 . S
C153 C173 1.449 . S
C154 C153 1.258 . S
C154 C155 1.477 . S
C154 H174 0.931 . S
C155 C151 1.460 . S
C155 C154 1.477 . S
C155 H175 0.930 . S
C156 N152 1.362 . S
C156 C153 1.431 . S
C156 C166 1.476 . S
H157 C151 0.929 . S
C158 O149 1.250 . S
C158 O150 1.266 . S
O159 Mn144 2.162 . S
O159 C147 1.281 . S
O160 Mn144 2.297 . S
O160 C147 1.236 . S
N161 Mn145 2.282 . S
N161 C162 1.328 . S
N161 C166 1.318 . S
C162 N161 1.328 . S
C162 C163 1.457 . S
C162 H167 0.929 . S
C163 C162 1.457 . S
C163 C164 1.291 . S
C163 H176 0.931 . S
C164 C163 1.291 . S
C164 C165 1.373 . S
C164 H177 0.929 . S
C165 C164 1.373 . S
C165 C166 1.396 . S
C165 C172 1.403 . S
C166 C156 1.476 . S
C166 N161 1.318 . S
C166 C165 1.396 . S
H167 C162 0.929 . S
O168 Mn144 2.385 . S
O168 C146 1.234 . S
O169 Mn144 2.209 . S
O169 Mn145 2.215 . S
O169 C146 1.283 . S
O170 Mn144 2.094 1_556 S
O170 C148 1.240 . S
O171 Mn145 2.117 1_556 S
O171 C148 1.264 . S
C172 C165 1.403 . S
C172 C173 1.399 . S
C172 H178 0.929 . S
C173 C153 1.449 . S
C173 C172 1.399 . S
C173 H179 0.930 . S
H174 C154 0.931 . S
H175 C155 0.930 . S
H176 C163 0.931 . S
H177 C164 0.929 . S
H178 C172 0.929 . S
H179 C173 0.930 . S
Mn180 O185 2.095 1_545 S
Mn180 O195 2.162 . S
Mn180 O196 2.297 1_554 S
Mn180 O204 2.385 1_554 S
Mn180 O205 2.209 1_544 S
Mn180 O206 2.094 . S
Mn181 O186 2.121 . S
Mn181 N188 2.257 1_554 S
Mn181 N197 2.298 . S
Mn181 O205 2.215 1_554 S
Mn181 O207 2.117 . S
C182 O204 1.234 . S
C182 O205 1.283 1_545 S
C183 O195 1.281 1_556 S
C183 O196 1.236 . S
C184 O206 1.240 . S
C184 O207 1.264 1_545 S
O185 Mn180 2.095 1_565 S
O185 C194 1.250 . S
O186 Mn181 2.121 . S
O186 C194 1.258 . S
C187 N188 1.326 . S
C187 C191 1.460 . S
C187 H193 0.929 . S
N188 Mn181 2.257 1_556 S
N188 C187 1.326 . S
N188 C192 1.362 . S
C189 C190 1.258 . S
C189 C192 1.431 . S
C189 C209 1.449 . S
C190 C189 1.258 . S
C190 C191 1.477 . S
C190 H210 0.931 . S
C191 C187 1.460 . S
C191 C190 1.477 . S
C191 H211 0.930 . S
C192 N188 1.362 . S
C192 C189 1.431 . S
C192 C202 1.476 . S
H193 C187 0.929 . S
C194 O185 1.250 . S
C194 O186 1.258 . S
O195 Mn180 2.162 . S
O195 C183 1.281 1_554 S
O196 Mn180 2.297 1_556 S
O196 C183 1.236 . S
N197 Mn181 2.298 . S
N197 C198 1.339 . S
N197 C202 1.288 1_554 S
C198 N197 1.339 . S
C198 C199 1.457 1_554 S
C198 H203 0.929 . S
C199 C198 1.457 1_556 S
C199 C200 1.291 . S
C199 H212 0.931 . S
C200 C199 1.291 . S
C200 C201 1.373 . S
C200 H213 0.929 . S
C201 C200 1.373 . S
C201 C202 1.396 . S
C201 C208 1.403 . S
C202 C192 1.476 . S
C202 N197 1.288 1_556 S
C202 C201 1.396 . S
H203 C198 0.929 . S
O204 Mn180 2.385 1_556 S
O204 C182 1.234 . S
O205 Mn180 2.209 1_566 S
O205 Mn181 2.215 1_556 S
O205 C182 1.283 1_565 S
O206 Mn180 2.094 . S
O206 C184 1.240 . S
O207 Mn181 2.117 . S
O207 C184 1.264 1_565 S
C208 C201 1.403 . S
C208 C209 1.399 . S
C208 H214 0.929 . S
C209 C189 1.449 . S
C209 C208 1.399 . S
C209 H215 0.930 . S
H210 C190 0.931 . S
H211 C191 0.930 . S
H212 C199 0.931 . S
H213 C200 0.929 . S
H214 C208 0.929 . S
H215 C209 0.930 . S
Mn216 O221 2.095 . S
Mn216 O231 2.162 . S
Mn216 O232 2.297 . S
Mn216 O240 2.385 . S
Mn216 O241 2.209 . S
Mn216 O242 2.094 . S
Mn217 O222 2.121 . S
Mn217 N224 2.257 . S
Mn217 N233 2.282 . S
Mn217 O241 2.215 . S
Mn217 O243 2.117 . S
C218 O240 1.234 . S
C218 O241 1.283 . S
C219 O231 1.281 . S
C219 O232 1.236 . S
C220 O242 1.240 . S
C220 O243 1.264 . S
O221 Mn216 2.095 . S
O221 C230 1.250 . S
O222 Mn217 2.121 . S
O222 C230 1.258 . S
C223 N224 1.326 . S
C223 C227 1.460 . S
C223 H229 0.929 . S
N224 Mn217 2.257 . S
N224 C223 1.326 . S
N224 C228 1.362 . S
C225 C226 1.258 . S
C225 C228 1.431 . S
C225 C245 1.449 . S
C226 C225 1.258 . S
C226 C227 1.477 . S
C226 H246 0.931 . S
C227 C223 1.460 . S
C227 C226 1.477 . S
C227 H247 0.930 . S
C228 N224 1.362 . S
C228 C225 1.431 . S
C228 C238 1.476 . S
H229 C223 0.929 . S
C230 O221 1.250 . S
C230 O222 1.258 . S
O231 Mn216 2.162 . S
O231 C219 1.281 . S
O232 Mn216 2.297 . S
O232 C219 1.236 . S
N233 Mn217 2.282 . S
N233 C234 1.328 . S
N233 C238 1.318 . S
C234 N233 1.328 . S
C234 C235 1.457 . S
C234 H239 0.929 . S
C235 C234 1.457 . S
C235 C236 1.291 . S
C235 H248 0.931 . S
C236 C235 1.291 . S
C236 C237 1.373 . S
C236 H249 0.929 . S
C237 C236 1.373 . S
C237 C238 1.396 . S
C237 C244 1.403 . S
C238 C228 1.476 . S
C238 N233 1.318 . S
C238 C237 1.396 . S
H239 C234 0.929 . S
O240 Mn216 2.385 . S
O240 C218 1.234 . S
O241 Mn216 2.209 . S
O241 Mn217 2.215 . S
O241 C218 1.283 . S
O242 Mn216 2.094 . S
O242 C220 1.240 . S
O243 Mn217 2.117 . S
O243 C220 1.264 . S
C244 C237 1.403 . S
C244 C245 1.399 . S
C244 H250 0.929 . S
C245 C225 1.449 . S
C245 C244 1.399 . S
C245 H251 0.930 . S
H246 C226 0.931 . S
H247 C227 0.930 . S
H248 C235 0.931 . S
H249 C236 0.929 . S
H250 C244 0.929 . S
H251 C245 0.930 . S
Mn252 O257 2.095 . S
Mn252 O267 2.162 1_565 S
Mn252 O268 2.321 . S
Mn252 O276 2.385 . S
Mn252 O277 2.209 . S
Mn252 O278 2.094 . S
Mn253 O258 2.121 . S
Mn253 N260 2.257 . S
Mn253 N269 2.282 . S
Mn253 O277 2.215 . S
Mn253 O279 2.117 . S
C254 O276 1.234 . S
C254 O277 1.283 . S
C255 O267 1.281 . S
C255 O268 1.191 1_545 S
C256 O278 1.240 . S
C256 O279 1.264 . S
O257 Mn252 2.095 . S
O257 C266 1.250 . S
O258 Mn253 2.121 . S
O258 C266 1.258 . S
C259 N260 1.326 . S
C259 C263 1.460 . S
C259 H265 0.929 . S
N260 Mn253 2.257 . S
N260 C259 1.326 . S
N260 C264 1.362 . S
C261 C262 1.258 . S
C261 C264 1.431 . S
C261 C281 1.449 . S
C262 C261 1.258 . S
C262 C263 1.477 . S
C262 H282 0.931 . S
C263 C259 1.460 . S
C263 C262 1.477 . S
C263 H283 0.930 . S
C264 N260 1.362 . S
C264 C261 1.431 . S
C264 C274 1.476 . S
H265 C259 0.929 . S
C266 O257 1.250 . S
C266 O258 1.258 . S
O267 Mn252 2.162 1_545 S
O267 C255 1.281 . S
O268 Mn252 2.321 . S
O268 C255 1.191 1_565 S
N269 Mn253 2.282 . S
N269 C270 1.328 . S
N269 C274 1.318 . S
C270 N269 1.328 . S
C270 C271 1.457 . S
C270 H275 0.929 . S
C271 C270 1.457 . S
C271 C272 1.291 . S
C271 H284 0.931 . S
C272 C271 1.291 . S
C272 C273 1.373 . S
C272 H285 0.929 . S
C273 C272 1.373 . S
C273 C274 1.396 . S
C273 C280 1.403 . S
C274 C264 1.476 . S
C274 N269 1.318 . S
C274 C273 1.396 . S
H275 C270 0.929 . S
O276 Mn252 2.385 . S
O276 C254 1.234 . S
O277 Mn252 2.209 . S
O277 Mn253 2.215 . S
O277 C254 1.283 . S
O278 Mn252 2.094 . S
O278 C256 1.240 . S
O279 Mn253 2.117 . S
O279 C256 1.264 . S
C280 C273 1.403 . S
C280 C281 1.399 . S
C280 H286 0.929 . S
C281 C261 1.449 . S
C281 C280 1.399 . S
C281 H287 0.930 . S
H282 C262 0.931 . S
H283 C263 0.930 . S
H284 C271 0.931 . S
H285 C272 0.929 . S
H286 C280 0.929 . S
H287 C281 0.930 . S
Mn288 O293 2.095 . S
Mn288 O303 2.162 1_455 S
Mn288 O304 2.270 1_455 S
Mn288 O312 2.385 . S
Mn288 O313 2.209 . S
Mn288 O314 2.094 . S
Mn289 O294 2.121 . S
Mn289 N296 2.257 . S
Mn289 N305 2.282 . S
Mn289 O313 2.215 . S
Mn289 O315 2.117 . S
C290 O312 1.234 . S
C290 O313 1.283 . S
C291 O303 1.281 . S
C291 O304 1.242 . S
C292 O314 1.240 . S
C292 O315 1.264 . S
O293 Mn288 2.095 . S
O293 C302 1.250 . S
O294 Mn289 2.121 . S
O294 C302 1.258 . S
C295 N296 1.326 . S
C295 C299 1.460 . S
C295 H301 0.929 . S
N296 Mn289 2.257 . S
N296 C295 1.326 . S
N296 C300 1.362 . S
C297 C298 1.258 . S
C297 C300 1.431 . S
C297 C317 1.449 . S
C298 C297 1.258 . S
C298 C299 1.477 . S
C298 H318 0.931 . S
C299 C295 1.460 . S
C299 C298 1.477 . S
C299 H319 0.930 . S
C300 N296 1.362 . S
C300 C297 1.431 . S
C300 C310 1.476 . S
H301 C295 0.929 . S
C302 O293 1.250 . S
C302 O294 1.258 . S
O303 Mn288 2.162 1_655 S
O303 C291 1.281 . S
O304 Mn288 2.270 1_655 S
O304 C291 1.242 . S
N305 Mn289 2.282 . S
N305 C306 1.328 . S
N305 C310 1.318 . S
C306 N305 1.328 . S
C306 C307 1.457 . S
C306 H311 0.929 . S
C307 C306 1.457 . S
C307 C308 1.291 . S
C307 H320 0.931 . S
C308 C307 1.291 . S
C308 C309 1.373 . S
C308 H321 0.929 . S
C309 C308 1.373 . S
C309 C310 1.396 . S
C309 C316 1.403 . S
C310 C300 1.476 . S
C310 N305 1.318 . S
C310 C309 1.396 . S
H311 C306 0.929 . S
O312 Mn288 2.385 . S
O312 C290 1.234 . S
O313 Mn288 2.209 . S
O313 Mn289 2.215 . S
O313 C290 1.283 . S
O314 Mn288 2.094 . S
O314 C292 1.240 . S
O315 Mn289 2.117 . S
O315 C292 1.264 . S
C316 C309 1.403 . S
C316 C317 1.399 . S
C316 H322 0.929 . S
C317 C297 1.449 . S
C317 C316 1.399 . S
C317 H323 0.930 . S
H318 C298 0.931 . S
H319 C299 0.930 . S
H320 C307 0.931 . S
H321 C308 0.929 . S
H322 C316 0.929 . S
H323 C317 0.930 . S
Mn324 O329 2.095 . S
Mn324 O339 2.162 . S
Mn324 O340 2.297 . S
Mn324 O348 2.385 . S
Mn324 O349 2.209 . S
Mn324 O350 2.094 . S
Mn325 O330 2.121 . S
Mn325 N332 2.257 . S
Mn325 N341 2.282 . S
Mn325 O349 2.215 . S
Mn325 O351 2.117 . S
C326 O348 1.234 . S
C326 O349 1.283 . S
C327 O339 1.281 . S
C327 O340 1.236 . S
C328 O350 1.240 . S
C328 O351 1.264 . S
O329 Mn324 2.095 . S
O329 C338 1.250 1_565 S
O330 Mn325 2.121 . S
O330 C338 1.258 1_565 S
C331 N332 1.326 . S
C331 C335 1.460 1_565 S
C331 H337 0.929 1_565 S
N332 Mn325 2.257 . S
N332 C331 1.326 . S
N332 C336 1.362 . S
C333 C334 1.258 . S
C333 C336 1.431 . S
C333 C353 1.449 . S
C334 C333 1.258 . S
C334 C335 1.477 1_565 S
C334 H354 0.931 . S
C335 C331 1.460 1_545 S
C335 C334 1.477 1_545 S
C335 H355 0.930 . S
C336 N332 1.362 . S
C336 C333 1.431 . S
C336 C346 1.476 . S
H337 C331 0.929 1_545 S
C338 O329 1.250 1_545 S
C338 O330 1.258 1_545 S
O339 Mn324 2.162 . S
O339 C327 1.281 . S
O340 Mn324 2.297 . S
O340 C327 1.236 . S
N341 Mn325 2.282 . S
N341 C342 1.328 . S
N341 C346 1.318 . S
C342 N341 1.328 . S
C342 C343 1.457 . S
C342 H347 0.929 . S
C343 C342 1.457 . S
C343 C344 1.291 . S
C343 H356 0.931 . S
C344 C343 1.291 . S
C344 C345 1.373 . S
C344 H357 0.929 . S
C345 C344 1.373 . S
C345 C346 1.396 . S
C345 C352 1.403 . S
C346 C336 1.476 . S
C346 N341 1.318 . S
C346 C345 1.396 . S
H347 C342 0.929 . S
O348 Mn324 2.385 . S
O348 C326 1.234 . S
O349 Mn324 2.209 . S
O349 Mn325 2.215 . S
O349 C326 1.283 . S
O350 Mn324 2.094 . S
O350 C328 1.240 . S
O351 Mn325 2.117 . S
O351 C328 1.264 . S
C352 C345 1.403 . S
C352 C353 1.399 . S
C352 H358 0.929 . S
C353 C333 1.449 . S
C353 C352 1.399 . S
C353 H359 0.930 . S
H354 C334 0.931 . S
H355 C335 0.930 . S
H356 C343 0.931 . S
H357 C344 0.929 . S
H358 C352 0.929 . S
H359 C353 0.930 . S
Mn360 O365 2.095 . S
Mn360 O375 2.162 1_455 S
Mn360 O376 2.297 . S
Mn360 O384 2.385 . S
Mn360 O385 2.209 . S
Mn360 O386 2.094 . S
Mn361 O366 2.121 . S
Mn361 N368 2.257 . S
Mn361 N377 2.282 . S
Mn361 O385 2.215 . S
Mn361 O387 2.117 . S
C362 O384 1.234 . S
C362 O385 1.283 . S
C363 O375 1.281 . S
C363 O376 1.236 1_655 S
C364 O386 1.240 . S
C364 O387 1.264 . S
O365 Mn360 2.095 . S
O365 C374 1.250 . S
O366 Mn361 2.121 . S
O366 C374 1.258 . S
C367 N368 1.326 . S
C367 C371 1.460 . S
C367 H373 0.929 . S
N368 Mn361 2.257 . S
N368 C367 1.326 . S
N368 C372 1.362 . S
C369 C370 1.258 . S
C369 C372 1.431 . S
C369 C389 1.449 . S
C370 C369 1.258 . S
C370 C371 1.477 . S
C370 H390 0.931 . S
C371 C367 1.460 . S
C371 C370 1.477 . S
C371 H391 0.930 . S
C372 N368 1.362 . S
C372 C369 1.431 . S
C372 C382 1.476 . S
H373 C367 0.929 . S
C374 O365 1.250 . S
C374 O366 1.258 . S
O375 Mn360 2.162 1_655 S
O375 C363 1.281 . S
O376 Mn360 2.297 . S
O376 C363 1.236 1_455 S
N377 Mn361 2.282 . S
N377 C378 1.328 . S
N377 C382 1.318 . S
C378 N377 1.328 . S
C378 C379 1.457 . S
C378 H383 0.929 . S
C379 C378 1.457 . S
C379 C380 1.291 . S
C379 H392 0.931 . S
C380 C379 1.291 . S
C380 C381 1.373 . S
C380 H393 0.929 . S
C381 C380 1.373 . S
C381 C382 1.396 . S
C381 C388 1.403 . S
C382 C372 1.476 . S
C382 N377 1.318 . S
C382 C381 1.396 . S
H383 C378 0.929 . S
O384 Mn360 2.385 . S
O384 C362 1.234 . S
O385 Mn360 2.209 . S
O385 Mn361 2.215 . S
O385 C362 1.283 . S
O386 Mn360 2.094 . S
O386 C364 1.240 . S
O387 Mn361 2.117 . S
O387 C364 1.264 . S
C388 C381 1.403 . S
C388 C389 1.399 . S
C388 H394 0.929 . S
C389 C369 1.449 . S
C389 C388 1.399 . S
C389 H395 0.930 . S
H390 C370 0.931 . S
H391 C371 0.930 . S
H392 C379 0.931 . S
H393 C380 0.929 . S
H394 C388 0.929 . S
H395 C389 0.930 . S
Mn396 O401 2.095 . S
Mn396 O411 2.162 . S
Mn396 O412 2.297 . S
Mn396 O420 2.385 . S
Mn396 O421 2.209 . S
Mn396 O422 2.094 . S
Mn397 O402 2.121 . S
Mn397 N404 2.257 . S
Mn397 N413 2.282 . S
Mn397 O421 2.215 . S
Mn397 O423 2.117 . S
C398 O420 1.234 . S
C398 O421 1.283 . S
C399 O411 1.281 . S
C399 O412 1.236 . S
C400 O422 1.240 . S
C400 O423 1.264 . S
O401 Mn396 2.095 . S
O401 C410 1.250 . S
O402 Mn397 2.121 . S
O402 C410 1.258 . S
C403 N404 1.326 . S
C403 C407 1.460 . S
C403 H409 0.929 . S
N404 Mn397 2.257 . S
N404 C403 1.326 . S
N404 C408 1.362 . S
C405 C406 1.258 . S
C405 C408 1.431 . S
C405 C425 1.449 . S
C406 C405 1.258 . S
C406 C407 1.477 . S
C406 H426 0.931 . S
C407 C403 1.460 . S
C407 C406 1.477 . S
C407 H427 0.930 . S
C408 N404 1.362 . S
C408 C405 1.431 . S
C408 C418 1.476 . S
H409 C403 0.929 . S
C410 O401 1.250 . S
C410 O402 1.258 . S
O411 Mn396 2.162 . S
O411 C399 1.281 . S
O412 Mn396 2.297 . S
O412 C399 1.236 . S
N413 Mn397 2.282 . S
N413 C414 1.328 . S
N413 C418 1.318 . S
C414 N413 1.328 . S
C414 C415 1.457 . S
C414 H419 0.929 . S
C415 C414 1.457 . S
C415 C416 1.291 . S
C415 H428 0.931 . S
C416 C415 1.291 . S
C416 C417 1.373 . S
C416 H429 0.929 . S
C417 C416 1.373 . S
C417 C418 1.396 . S
C417 C424 1.403 . S
C418 C408 1.476 . S
C418 N413 1.318 . S
C418 C417 1.396 . S
H419 C414 0.929 . S
O420 Mn396 2.385 . S
O420 C398 1.234 . S
O421 Mn396 2.209 . S
O421 Mn397 2.215 . S
O421 C398 1.283 . S
O422 Mn396 2.094 . S
O422 C400 1.240 . S
O423 Mn397 2.117 . S
O423 C400 1.264 . S
C424 C417 1.403 . S
C424 C425 1.399 . S
C424 H430 0.929 . S
C425 C405 1.449 . S
C425 C424 1.399 . S
C425 H431 0.930 . S
H426 C406 0.931 . S
H427 C407 0.930 . S
H428 C415 0.931 . S
H429 C416 0.929 . S
H430 C424 0.929 . S
H431 C425 0.930 . S
Mn432 O437 2.095 . S
Mn432 O447 2.162 1_545 S
Mn432 O448 2.297 . S
Mn432 O456 2.385 . S
Mn432 O457 2.209 . S
Mn432 O458 2.094 . S
Mn433 O438 2.121 . S
Mn433 N440 2.257 . S
Mn433 N449 2.282 . S
Mn433 O457 2.215 . S
Mn433 O459 2.117 . S
C434 O456 1.234 . S
C434 O457 1.283 . S
C435 O447 1.281 . S
C435 O448 1.236 1_565 S
C436 O458 1.240 . S
C436 O459 1.264 . S
O437 Mn432 2.095 . S
O437 C446 1.250 . S
O438 Mn433 2.121 . S
O438 C446 1.258 . S
C439 N440 1.326 . S
C439 C443 1.460 . S
C439 H445 0.929 . S
N440 Mn433 2.257 . S
N440 C439 1.326 . S
N440 C444 1.362 . S
C441 C442 1.258 . S
C441 C444 1.431 . S
C441 C461 1.449 . S
C442 C441 1.258 . S
C442 C443 1.477 . S
C442 H462 0.931 . S
C443 C439 1.460 . S
C443 C442 1.477 . S
C443 H463 0.930 . S
C444 N440 1.362 . S
C444 C441 1.431 . S
C444 C454 1.476 . S
H445 C439 0.929 . S
C446 O437 1.250 . S
C446 O438 1.258 . S
O447 Mn432 2.162 1_565 S
O447 C435 1.281 . S
O448 Mn432 2.297 . S
O448 C435 1.236 1_545 S
N449 Mn433 2.282 . S
N449 C450 1.328 . S
N449 C454 1.318 . S
C450 N449 1.328 . S
C450 C451 1.457 . S
C450 H455 0.929 . S
C451 C450 1.457 . S
C451 C452 1.291 . S
C451 H464 0.931 . S
C452 C451 1.291 . S
C452 C453 1.373 . S
C452 H465 0.929 . S
C453 C452 1.373 . S
C453 C454 1.396 . S
C453 C460 1.403 . S
C454 C444 1.476 . S
C454 N449 1.318 . S
C454 C453 1.396 . S
H455 C450 0.929 . S
O456 Mn432 2.385 . S
O456 C434 1.234 . S
O457 Mn432 2.209 . S
O457 Mn433 2.215 . S
O457 C434 1.283 . S
O458 Mn432 2.094 . S
O458 C436 1.240 . S
O459 Mn433 2.117 . S
O459 C436 1.264 . S
C460 C453 1.403 . S
C460 C461 1.399 . S
C460 H466 0.929 . S
C461 C441 1.449 . S
C461 C460 1.399 . S
C461 H467 0.930 . S
H462 C442 0.931 . S
H463 C443 0.930 . S
H464 C451 0.931 . S
H465 C452 0.929 . S
H466 C460 0.929 . S
H467 C461 0.930 . S
Mn468 O473 2.095 . S
Mn468 O483 2.162 . S
Mn468 O484 2.297 . S
Mn468 O492 2.385 . S
Mn468 O493 2.209 . S
Mn468 O494 2.094 . S
Mn469 O474 2.121 . S
Mn469 N476 2.257 . S
Mn469 N485 2.282 . S
Mn469 O493 2.215 . S
Mn469 O495 2.117 . S
C470 O492 1.234 . S
C470 O493 1.283 . S
C471 O483 1.281 . S
C471 O484 1.236 . S
C472 O494 1.240 . S
C472 O495 1.264 . S
O473 Mn468 2.095 . S
O473 C482 1.198 1_655 S
O474 Mn469 2.121 . S
O474 C482 1.272 1_655 S
C475 N476 1.326 . S
C475 C479 1.460 1_655 S
C475 H481 0.929 1_655 S
N476 Mn469 2.257 . S
N476 C475 1.326 . S
N476 C480 1.362 . S
C477 C478 1.258 . S
C477 C480 1.431 . S
C477 C497 1.449 . S
C478 C477 1.258 . S
C478 C479 1.477 1_655 S
C478 H498 0.931 . S
C479 C475 1.460 1_455 S
C479 C478 1.477 1_455 S
C479 H499 0.930 . S
C480 N476 1.362 . S
C480 C477 1.431 . S
C480 C490 1.476 . S
H481 C475 0.929 1_455 S
C482 O473 1.198 1_455 S
C482 O474 1.272 1_455 S
O483 Mn468 2.162 . S
O483 C471 1.281 . S
O484 Mn468 2.297 . S
O484 C471 1.236 . S
N485 Mn469 2.282 . S
N485 C486 1.328 . S
N485 C490 1.318 . S
C486 N485 1.328 . S
C486 C487 1.457 . S
C486 H491 0.929 . S
C487 C486 1.457 . S
C487 C488 1.291 . S
C487 H500 0.931 . S
C488 C487 1.291 . S
C488 C489 1.373 . S
C488 H501 0.929 . S
C489 C488 1.373 . S
C489 C490 1.396 . S
C489 C496 1.403 . S
C490 C480 1.476 . S
C490 N485 1.318 . S
C490 C489 1.396 . S
H491 C486 0.929 . S
O492 Mn468 2.385 . S
O492 C470 1.234 . S
O493 Mn468 2.209 . S
O493 Mn469 2.215 . S
O493 C470 1.283 . S
O494 Mn468 2.094 . S
O494 C472 1.240 . S
O495 Mn469 2.117 . S
O495 C472 1.264 . S
C496 C489 1.403 . S
C496 C497 1.399 . S
C496 H502 0.929 . S
C497 C477 1.449 . S
C497 C496 1.399 . S
C497 H503 0.930 . S
H498 C478 0.931 . S
H499 C479 0.930 . S
H500 C487 0.931 . S
H501 C488 0.929 . S
H502 C496 0.929 . S
H503 C497 0.930 . S
Mn504 O509 2.095 . S
Mn504 O519 2.162 . S
Mn504 O520 2.297 . S
Mn504 O528 2.385 . S
Mn504 O529 2.209 . S
Mn504 O530 2.094 . S
Mn505 O510 2.121 . S
Mn505 N512 2.257 . S
Mn505 N521 2.282 . S
Mn505 O529 2.215 . S
Mn505 O531 2.117 . S
C506 O528 1.234 . S
C506 O529 1.283 . S
C507 O519 1.281 . S
C507 O520 1.236 . S
C508 O530 1.240 . S
C508 O531 1.264 . S
O509 Mn504 2.095 . S
O509 C518 1.250 . S
O510 Mn505 2.121 . S
O510 C518 1.258 . S
C511 N512 1.326 . S
C511 C515 1.460 . S
C511 H517 0.929 . S
N512 Mn505 2.257 . S
N512 C511 1.326 . S
N512 C516 1.362 . S
C513 C514 1.258 . S
C513 C516 1.431 . S
C513 C533 1.449 . S
C514 C513 1.258 . S
C514 C515 1.477 . S
C514 H534 0.931 . S
C515 C511 1.460 . S
C515 C514 1.477 . S
C515 H535 0.930 . S
C516 N512 1.362 . S
C516 C513 1.431 . S
C516 C526 1.476 . S
H517 C511 0.929 . S
C518 O509 1.250 . S
C518 O510 1.258 . S
O519 Mn504 2.162 . S
O519 C507 1.281 . S
O520 Mn504 2.297 . S
O520 C507 1.236 . S
N521 Mn505 2.282 . S
N521 C522 1.328 . S
N521 C526 1.318 . S
C522 N521 1.328 . S
C522 C523 1.457 . S
C522 H527 0.929 . S
C523 C522 1.457 . S
C523 C524 1.291 . S
C523 H536 0.931 . S
C524 C523 1.291 . S
C524 C525 1.373 . S
C524 H537 0.929 . S
C525 C524 1.373 . S
C525 C526 1.396 . S
C525 C532 1.403 . S
C526 C516 1.476 . S
C526 N521 1.318 . S
C526 C525 1.396 . S
H527 C522 0.929 . S
O528 Mn504 2.385 . S
O528 C506 1.234 . S
O529 Mn504 2.209 . S
O529 Mn505 2.215 . S
O529 C506 1.283 . S
O530 Mn504 2.094 . S
O530 C508 1.240 . S
O531 Mn505 2.117 . S
O531 C508 1.264 . S
C532 C525 1.403 . S
C532 C533 1.399 . S
C532 H538 0.929 . S
C533 C513 1.449 . S
C533 C532 1.399 . S
C533 H539 0.930 . S
H534 C514 0.931 . S
H535 C515 0.930 . S
H536 C523 0.931 . S
H537 C524 0.929 . S
H538 C532 0.929 . S
H539 C533 0.930 . S
Mn540 O545 2.095 . S
Mn540 O555 2.162 . S
Mn540 O556 2.297 . S
Mn540 O564 2.385 . S
Mn540 O565 2.209 . S
Mn540 O566 2.094 . S
Mn541 O546 2.121 . S
Mn541 N548 2.257 . S
Mn541 N557 2.282 . S
Mn541 O565 2.215 . S
Mn541 O567 2.117 . S
C542 O564 1.234 . S
C542 O565 1.283 . S
C543 O555 1.281 . S
C543 O556 1.236 . S
C544 O566 1.240 . S
C544 O567 1.264 . S
O545 Mn540 2.095 . S
O545 C554 1.250 . S
O546 Mn541 2.121 . S
O546 C554 1.258 . S
C547 N548 1.326 . S
C547 C551 1.460 . S
C547 H553 0.929 . S
N548 Mn541 2.257 . S
N548 C547 1.326 . S
N548 C552 1.362 . S
C549 C550 1.258 . S
C549 C552 1.431 . S
C549 C569 1.449 . S
C550 C549 1.258 . S
C550 C551 1.477 . S
C550 H570 0.931 . S
C551 C547 1.460 . S
C551 C550 1.477 . S
C551 H571 0.930 . S
C552 N548 1.362 . S
C552 C549 1.431 . S
C552 C562 1.476 . S
H553 C547 0.929 . S
C554 O545 1.250 . S
C554 O546 1.258 . S
O555 Mn540 2.162 . S
O555 C543 1.281 . S
O556 Mn540 2.297 . S
O556 C543 1.236 . S
N557 Mn541 2.282 . S
N557 C558 1.328 . S
N557 C562 1.318 . S
C558 N557 1.328 . S
C558 C559 1.457 . S
C558 H563 0.929 . S
C559 C558 1.457 . S
C559 C560 1.291 . S
C559 H572 0.931 . S
C560 C559 1.291 . S
C560 C561 1.373 . S
C560 H573 0.929 . S
C561 C560 1.373 . S
C561 C562 1.396 . S
C561 C568 1.403 . S
C562 C552 1.476 . S
C562 N557 1.318 . S
C562 C561 1.396 . S
H563 C558 0.929 . S
O564 Mn540 2.385 . S
O564 C542 1.234 . S
O565 Mn540 2.209 . S
O565 Mn541 2.215 . S
O565 C542 1.283 . S
O566 Mn540 2.094 . S
O566 C544 1.240 . S
O567 Mn541 2.117 . S
O567 C544 1.264 . S
C568 C561 1.403 . S
C568 C569 1.399 . S
C568 H574 0.929 . S
C569 C549 1.449 . S
C569 C568 1.399 . S
C569 H575 0.930 . S
H570 C550 0.931 . S
H571 C551 0.930 . S
H572 C559 0.931 . S
H573 C560 0.929 . S
H574 C568 0.929 . S
H575 C569 0.930 . S
Mn576 O581 2.095 . S
Mn576 O591 2.162 . S
Mn576 O592 2.297 . S
Mn576 O600 2.385 . S
Mn576 O601 2.209 . S
Mn576 O602 2.094 . S
Mn577 O582 2.121 . S
Mn577 N584 2.257 . S
Mn577 N593 2.282 . S
Mn577 O601 2.215 . S
Mn577 O603 2.117 . S
C578 O600 1.234 . S
C578 O601 1.283 . S
C579 O591 1.281 . S
C579 O592 1.236 . S
C580 O602 1.240 . S
C580 O603 1.264 . S
O581 Mn576 2.095 . S
O581 C590 1.250 1_545 S
O582 Mn577 2.121 . S
O582 C590 1.258 1_545 S
C583 N584 1.326 . S
C583 C587 1.460 1_545 S
C583 H589 0.929 1_545 S
N584 Mn577 2.257 . S
N584 C583 1.326 . S
N584 C588 1.362 . S
C585 C586 1.258 . S
C585 C588 1.431 . S
C585 C605 1.449 . S
C586 C585 1.258 . S
C586 C587 1.477 1_545 S
C586 H606 0.931 . S
C587 C583 1.460 1_565 S
C587 C586 1.477 1_565 S
C587 H607 0.930 . S
C588 N584 1.362 . S
C588 C585 1.431 . S
C588 C598 1.476 . S
H589 C583 0.929 1_565 S
C590 O581 1.250 1_565 S
C590 O582 1.258 1_565 S
O591 Mn576 2.162 . S
O591 C579 1.281 . S
O592 Mn576 2.297 . S
O592 C579 1.236 . S
N593 Mn577 2.282 . S
N593 C594 1.328 . S
N593 C598 1.318 . S
C594 N593 1.328 . S
C594 C595 1.457 . S
C594 H599 0.929 . S
C595 C594 1.457 . S
C595 C596 1.291 . S
C595 H608 0.931 . S
C596 C595 1.291 . S
C596 C597 1.373 . S
C596 H609 0.929 . S
C597 C596 1.373 . S
C597 C598 1.396 . S
C597 C604 1.403 . S
C598 C588 1.476 . S
C598 N593 1.318 . S
C598 C597 1.396 . S
H599 C594 0.929 . S
O600 Mn576 2.385 . S
O600 C578 1.234 . S
O601 Mn576 2.209 . S
O601 Mn577 2.215 . S
O601 C578 1.283 . S
O602 Mn576 2.094 . S
O602 C580 1.240 . S
O603 Mn577 2.117 . S
O603 C580 1.264 . S
C604 C597 1.403 . S
C604 C605 1.399 . S
C604 H610 0.929 . S
C605 C585 1.449 . S
C605 C604 1.399 . S
C605 H611 0.930 . S
H606 C586 0.931 . S
H607 C587 0.930 . S
H608 C595 0.931 . S
H609 C596 0.929 . S
H610 C604 0.929 . S
H611 C605 0.930 . S
Mn612 O617 2.095 . S
Mn612 O627 2.162 1_655 S
Mn612 O628 2.341 . S
Mn612 O636 2.385 . S
Mn612 O637 2.209 . S
Mn612 O638 2.094 . S
Mn613 O618 2.121 . S
Mn613 N620 2.257 . S
Mn613 N629 2.282 . S
Mn613 O637 2.215 . S
Mn613 O639 2.117 . S
C614 O636 1.234 . S
C614 O637 1.283 . S
C615 O627 1.281 . S
C615 O628 1.227 1_455 S
C616 O638 1.240 . S
C616 O639 1.264 . S
O617 Mn612 2.095 . S
O617 C626 1.250 . S
O618 Mn613 2.121 . S
O618 C626 1.258 . S
C619 N620 1.326 . S
C619 C623 1.460 . S
C619 H625 0.929 . S
N620 Mn613 2.257 . S
N620 C619 1.326 . S
N620 C624 1.362 . S
C621 C622 1.258 . S
C621 C624 1.431 . S
C621 C641 1.449 . S
C622 C621 1.258 . S
C622 C623 1.477 . S
C622 H642 0.931 . S
C623 C619 1.460 . S
C623 C622 1.477 . S
C623 H643 0.930 . S
C624 N620 1.362 . S
C624 C621 1.431 . S
C624 C634 1.476 . S
H625 C619 0.929 . S
C626 O617 1.250 . S
C626 O618 1.258 . S
O627 Mn612 2.162 1_455 S
O627 C615 1.281 . S
O628 Mn612 2.341 . S
O628 C615 1.227 1_655 S
N629 Mn613 2.282 . S
N629 C630 1.328 . S
N629 C634 1.318 . S
C630 N629 1.328 . S
C630 C631 1.457 . S
C630 H635 0.929 . S
C631 C630 1.457 . S
C631 C632 1.291 . S
C631 H644 0.931 . S
C632 C631 1.291 . S
C632 C633 1.373 . S
C632 H645 0.929 . S
C633 C632 1.373 . S
C633 C634 1.396 . S
C633 C640 1.403 . S
C634 C624 1.476 . S
C634 N629 1.318 . S
C634 C633 1.396 . S
H635 C630 0.929 . S
O636 Mn612 2.385 . S
O636 C614 1.234 . S
O637 Mn612 2.209 . S
O637 Mn613 2.215 . S
O637 C614 1.283 . S
O638 Mn612 2.094 . S
O638 C616 1.240 . S
O639 Mn613 2.117 . S
O639 C616 1.264 . S
C640 C633 1.403 . S
C640 C641 1.399 . S
C640 H646 0.929 . S
C641 C621 1.449 . S
C641 C640 1.399 . S
C641 H647 0.930 . S
H642 C622 0.931 . S
H643 C623 0.930 . S
H644 C631 0.931 . S
H645 C632 0.929 . S
H646 C640 0.929 . S
H647 C641 0.930 . S
H648 C675 0.929 . S
N649 C674 1.433 . S
N649 C680 1.435 . S
N649 C686 1.423 . S
H650 C676 0.930 . S
H651 C679 0.931 . S
H652 C678 0.929 . S
H653 C681 0.930 . S
H654 C682 0.932 . S
H655 C685 0.929 . S
H656 C684 0.931 . S
H657 C687 0.929 . S
H658 C691 0.932 . S
H659 C688 0.931 . S
H660 C690 0.929 . S
H661 C693 0.929 . S
H662 C694 0.930 . S
H663 C696 0.929 . S
H664 C697 0.931 . S
H665 C699 0.930 . S
H666 C700 0.932 . S
H667 C702 0.931 . S
H668 C703 0.929 . S
H669 C705 0.929 . S
H670 C706 0.931 . S
H671 C708 0.929 . S
N672 C692 1.433 . S
N672 C698 1.435 . S
N672 C704 1.423 . S
H673 C709 0.932 . S
C674 N649 1.433 . S
C674 C675 1.363 . S
C674 C679 1.370 . S
C675 H648 0.929 . S
C675 C674 1.363 . S
C675 C676 1.385 . S
C676 H650 0.930 . S
C676 C675 1.385 . S
C676 C677 1.357 . S
C677 C676 1.357 . S
C677 C678 1.406 . S
C678 H652 0.929 . S
C678 C677 1.406 . S
C678 C679 1.391 . S
C679 H651 0.931 . S
C679 C674 1.370 . S
C679 C678 1.391 . S
C680 N649 1.435 . S
C680 C681 1.358 . S
C680 C685 1.371 . S
C681 H653 0.930 . S
C681 C680 1.358 . S
C681 C682 1.405 . S
C682 H654 0.932 . S
C682 C681 1.405 . S
C682 C683 1.383 . S
C683 C682 1.383 . S
C683 C684 1.393 . S
C684 H656 0.931 . S
C684 C683 1.393 . S
C684 C685 1.382 . S
C685 H655 0.929 . S
C685 C680 1.371 . S
C685 C684 1.382 . S
C686 N649 1.423 . S
C686 C687 1.362 . S
C686 C691 1.388 . S
C687 H657 0.929 . S
C687 C686 1.362 . S
C687 C688 1.376 . S
C688 H659 0.931 . S
C688 C687 1.376 . S
C688 C689 1.396 . S
C689 C688 1.396 . S
C689 C690 1.348 . S
C689 C707 1.472 . S
C690 H660 0.929 . S
C690 C689 1.348 . S
C690 C691 1.443 . S
C691 H658 0.932 . S
C691 C686 1.388 . S
C691 C690 1.443 . S
C692 N672 1.433 . S
C692 C693 1.363 . S
C692 C697 1.370 . S
C693 H661 0.929 . S
C693 C692 1.363 . S
C693 C694 1.385 . S
C694 H662 0.930 . S
C694 C693 1.385 . S
C694 C695 1.357 . S
C695 C694 1.357 . S
C695 C696 1.406 . S
C696 H663 0.929 . S
C696 C695 1.406 . S
C696 C697 1.391 . S
C697 H664 0.931 . S
C697 C692 1.370 . S
C697 C696 1.391 . S
C698 N672 1.435 . S
C698 C699 1.358 . S
C698 C703 1.371 . S
C699 H665 0.930 . S
C699 C698 1.358 . S
C699 C700 1.405 . S
C700 H666 0.932 . S
C700 C699 1.405 . S
C700 C701 1.383 . S
C701 C700 1.383 . S
C701 C702 1.393 . S
C702 H667 0.931 . S
C702 C701 1.393 . S
C702 C703 1.382 . S
C703 H668 0.929 . S
C703 C698 1.371 . S
C703 C702 1.382 . S
C704 N672 1.423 . S
C704 C705 1.362 . S
C704 C709 1.388 . S
C705 H669 0.929 . S
C705 C704 1.362 . S
C705 C706 1.376 . S
C706 H670 0.931 . S
C706 C705 1.376 . S
C706 C707 1.396 . S
C707 C689 1.472 . S
C707 C706 1.396 . S
C707 C708 1.348 . S
C708 H671 0.929 . S
C708 C707 1.348 . S
C708 C709 1.443 . S
C709 H673 0.932 . S
C709 C704 1.388 . S
C709 C708 1.443 . S
H710 C737 0.929 . S
N711 C736 1.433 . S
N711 C742 1.435 . S
N711 C748 1.423 . S
H712 C738 0.930 . S
H713 C741 0.931 . S
H714 C740 0.929 . S
H715 C743 0.930 . S
H716 C744 0.932 . S
H717 C747 0.929 . S
H718 C746 0.931 . S
H719 C749 0.929 . S
H720 C753 0.932 . S
H721 C750 0.931 . S
H722 C752 0.929 . S
H723 C755 0.929 . S
H724 C756 0.930 . S
H725 C758 0.929 . S
H726 C759 0.931 . S
H727 C761 0.930 . S
H728 C762 0.932 . S
H729 C764 0.931 . S
H730 C765 0.929 . S
H731 C767 0.929 . S
H732 C768 0.931 . S
H733 C770 0.929 . S
N734 C754 1.433 . S
N734 C760 1.435 . S
N734 C766 1.423 . S
H735 C771 0.932 . S
C736 N711 1.433 . S
C736 C737 1.363 . S
C736 C741 1.370 . S
C737 H710 0.929 . S
C737 C736 1.363 . S
C737 C738 1.385 . S
C738 H712 0.930 . S
C738 C737 1.385 . S
C738 C739 1.357 . S
C739 C738 1.357 . S
C739 C740 1.406 . S
C740 H714 0.929 . S
C740 C739 1.406 . S
C740 C741 1.391 . S
C741 H713 0.931 . S
C741 C736 1.370 . S
C741 C740 1.391 . S
C742 N711 1.435 . S
C742 C743 1.358 . S
C742 C747 1.371 . S
C743 H715 0.930 . S
C743 C742 1.358 . S
C743 C744 1.405 . S
C744 H716 0.932 . S
C744 C743 1.405 . S
C744 C745 1.383 . S
C745 C744 1.383 . S
C745 C746 1.393 . S
C746 H718 0.931 . S
C746 C745 1.393 . S
C746 C747 1.382 . S
C747 H717 0.929 . S
C747 C742 1.371 . S
C747 C746 1.382 . S
C748 N711 1.423 . S
C748 C749 1.362 . S
C748 C753 1.388 . S
C749 H719 0.929 . S
C749 C748 1.362 . S
C749 C750 1.376 . S
C750 H721 0.931 . S
C750 C749 1.376 . S
C750 C751 1.396 . S
C751 C750 1.396 . S
C751 C752 1.348 . S
C751 C769 1.472 . S
C752 H722 0.929 . S
C752 C751 1.348 . S
C752 C753 1.443 . S
C753 H720 0.932 . S
C753 C748 1.388 . S
C753 C752 1.443 . S
C754 N734 1.433 . S
C754 C755 1.363 . S
C754 C759 1.370 . S
C755 H723 0.929 . S
C755 C754 1.363 . S
C755 C756 1.385 . S
C756 H724 0.930 . S
C756 C755 1.385 . S
C756 C757 1.357 . S
C757 C756 1.357 . S
C757 C758 1.406 . S
C758 H725 0.929 . S
C758 C757 1.406 . S
C758 C759 1.391 . S
C759 H726 0.931 . S
C759 C754 1.370 . S
C759 C758 1.391 . S
C760 N734 1.435 . S
C760 C761 1.358 . S
C760 C765 1.371 . S
C761 H727 0.930 . S
C761 C760 1.358 . S
C761 C762 1.405 . S
C762 H728 0.932 . S
C762 C761 1.405 . S
C762 C763 1.383 . S
C763 C762 1.383 . S
C763 C764 1.393 . S
C764 H729 0.931 . S
C764 C763 1.393 . S
C764 C765 1.382 . S
C765 H730 0.929 . S
C765 C760 1.371 . S
C765 C764 1.382 . S
C766 N734 1.423 . S
C766 C767 1.362 . S
C766 C771 1.388 . S
C767 H731 0.929 . S
C767 C766 1.362 . S
C767 C768 1.376 . S
C768 H732 0.931 . S
C768 C767 1.376 . S
C768 C769 1.396 . S
C769 C751 1.472 . S
C769 C768 1.396 . S
C769 C770 1.348 . S
C770 H733 0.929 . S
C770 C769 1.348 . S
C770 C771 1.443 . S
C771 H735 0.932 . S
C771 C766 1.388 . S
C771 C770 1.443 . S
H772 C799 0.929 . S
N773 C798 1.433 . S
N773 C804 1.435 . S
N773 C810 1.423 . S
H774 C800 0.930 . S
H775 C803 0.931 . S
H776 C802 0.929 . S
H777 C805 0.930 . S
H778 C806 0.932 . S
H779 C809 0.929 . S
H780 C808 0.931 . S
H781 C811 0.929 . S
H782 C815 0.932 . S
H783 C812 0.931 . S
H784 C814 0.929 . S
H785 C817 0.929 . S
H786 C818 0.930 . S
H787 C820 0.929 . S
H788 C821 0.931 . S
H789 C823 0.930 . S
H790 C824 0.932 . S
H791 C826 0.931 . S
H792 C827 0.929 . S
H793 C829 0.929 . S
H794 C830 0.931 . S
H795 C832 0.929 . S
N796 C816 1.433 . S
N796 C822 1.435 . S
N796 C828 1.423 . S
H797 C833 0.932 . S
C798 N773 1.433 . S
C798 C799 1.363 . S
C798 C803 1.370 . S
C799 H772 0.929 . S
C799 C798 1.363 . S
C799 C800 1.385 . S
C800 H774 0.930 . S
C800 C799 1.385 . S
C800 C801 1.357 . S
C801 C800 1.357 . S
C801 C802 1.406 . S
C802 H776 0.929 . S
C802 C801 1.406 . S
C802 C803 1.391 . S
C803 H775 0.931 . S
C803 C798 1.370 . S
C803 C802 1.391 . S
C804 N773 1.435 . S
C804 C805 1.358 . S
C804 C809 1.371 . S
C805 H777 0.930 . S
C805 C804 1.358 . S
C805 C806 1.405 . S
C806 H778 0.932 . S
C806 C805 1.405 . S
C806 C807 1.383 . S
C807 C806 1.383 . S
C807 C808 1.393 . S
C808 H780 0.931 . S
C808 C807 1.393 . S
C808 C809 1.382 . S
C809 H779 0.929 . S
C809 C804 1.371 . S
C809 C808 1.382 . S
C810 N773 1.423 . S
C810 C811 1.362 . S
C810 C815 1.388 . S
C811 H781 0.929 . S
C811 C810 1.362 . S
C811 C812 1.376 . S
C812 H783 0.931 . S
C812 C811 1.376 . S
C812 C813 1.396 . S
C813 C812 1.396 . S
C813 C814 1.348 . S
C813 C831 1.472 . S
C814 H784 0.929 . S
C814 C813 1.348 . S
C814 C815 1.443 . S
C815 H782 0.932 . S
C815 C810 1.388 . S
C815 C814 1.443 . S
C816 N796 1.433 . S
C816 C817 1.363 . S
C816 C821 1.370 . S
C817 H785 0.929 . S
C817 C816 1.363 . S
C817 C818 1.385 . S
C818 H786 0.930 . S
C818 C817 1.385 . S
C818 C819 1.357 . S
C819 C818 1.357 . S
C819 C820 1.406 . S
C820 H787 0.929 . S
C820 C819 1.406 . S
C820 C821 1.391 . S
C821 H788 0.931 . S
C821 C816 1.370 . S
C821 C820 1.391 . S
C822 N796 1.435 . S
C822 C823 1.358 . S
C822 C827 1.371 . S
C823 H789 0.930 . S
C823 C822 1.358 . S
C823 C824 1.405 . S
C824 H790 0.932 . S
C824 C823 1.405 . S
C824 C825 1.383 . S
C825 C824 1.383 . S
C825 C826 1.393 . S
C826 H791 0.931 . S
C826 C825 1.393 . S
C826 C827 1.382 . S
C827 H792 0.929 . S
C827 C822 1.371 . S
C827 C826 1.382 . S
C828 N796 1.423 . S
C828 C829 1.362 . S
C828 C833 1.388 . S
C829 H793 0.929 . S
C829 C828 1.362 . S
C829 C830 1.376 . S
C830 H794 0.931 . S
C830 C829 1.376 . S
C830 C831 1.396 . S
C831 C813 1.472 . S
C831 C830 1.396 . S
C831 C832 1.348 . S
C832 H795 0.929 . S
C832 C831 1.348 . S
C832 C833 1.443 . S
C833 H797 0.932 . S
C833 C828 1.388 . S
C833 C832 1.443 . S
H834 C861 0.929 . S
N835 C860 1.433 . S
N835 C866 1.435 . S
N835 C872 1.423 . S
H836 C862 0.930 . S
H837 C865 0.931 . S
H838 C864 0.929 . S
H839 C867 0.930 . S
H840 C868 0.932 . S
H841 C871 0.929 . S
H842 C870 0.931 . S
H843 C873 0.929 . S
H844 C877 0.932 . S
H845 C874 0.931 . S
H846 C876 0.929 . S
H847 C879 0.929 . S
H848 C880 0.930 . S
H849 C882 0.929 . S
H850 C883 0.931 . S
H851 C885 0.930 . S
H852 C886 0.932 . S
H853 C888 0.931 . S
H854 C889 0.929 . S
H855 C891 0.929 . S
H856 C892 0.931 . S
H857 C894 0.929 . S
N858 C878 1.433 . S
N858 C884 1.435 . S
N858 C890 1.423 . S
H859 C895 0.932 . S
C860 N835 1.433 . S
C860 C861 1.363 . S
C860 C865 1.370 . S
C861 H834 0.929 . S
C861 C860 1.363 . S
C861 C862 1.385 . S
C862 H836 0.930 . S
C862 C861 1.385 . S
C862 C863 1.357 . S
C863 C862 1.357 . S
C863 C864 1.406 . S
C864 H838 0.929 . S
C864 C863 1.406 . S
C864 C865 1.391 . S
C865 H837 0.931 . S
C865 C860 1.370 . S
C865 C864 1.391 . S
C866 N835 1.435 . S
C866 C867 1.358 . S
C866 C871 1.371 . S
C867 H839 0.930 . S
C867 C866 1.358 . S
C867 C868 1.405 . S
C868 H840 0.932 . S
C868 C867 1.405 . S
C868 C869 1.383 . S
C869 C868 1.383 . S
C869 C870 1.393 . S
C870 H842 0.931 . S
C870 C869 1.393 . S
C870 C871 1.382 . S
C871 H841 0.929 . S
C871 C866 1.371 . S
C871 C870 1.382 . S
C872 N835 1.423 . S
C872 C873 1.362 . S
C872 C877 1.388 . S
C873 H843 0.929 . S
C873 C872 1.362 . S
C873 C874 1.376 . S
C874 H845 0.931 . S
C874 C873 1.376 . S
C874 C875 1.396 . S
C875 C874 1.396 . S
C875 C876 1.348 . S
C875 C893 1.472 . S
C876 H846 0.929 . S
C876 C875 1.348 . S
C876 C877 1.443 . S
C877 H844 0.932 . S
C877 C872 1.388 . S
C877 C876 1.443 . S
C878 N858 1.433 . S
C878 C879 1.363 . S
C878 C883 1.370 . S
C879 H847 0.929 . S
C879 C878 1.363 . S
C879 C880 1.385 . S
C880 H848 0.930 . S
C880 C879 1.385 . S
C880 C881 1.357 . S
C881 C880 1.357 . S
C881 C882 1.406 . S
C882 H849 0.929 . S
C882 C881 1.406 . S
C882 C883 1.391 . S
C883 H850 0.931 . S
C883 C878 1.370 . S
C883 C882 1.391 . S
C884 N858 1.435 . S
C884 C885 1.358 . S
C884 C889 1.371 . S
C885 H851 0.930 . S
C885 C884 1.358 . S
C885 C886 1.405 . S
C886 H852 0.932 . S
C886 C885 1.405 . S
C886 C887 1.383 . S
C887 C886 1.383 . S
C887 C888 1.393 . S
C888 H853 0.931 . S
C888 C887 1.393 . S
C888 C889 1.382 . S
C889 H854 0.929 . S
C889 C884 1.371 . S
C889 C888 1.382 . S
C890 N858 1.423 . S
C890 C891 1.362 . S
C890 C895 1.388 . S
C891 H855 0.929 . S
C891 C890 1.362 . S
C891 C892 1.376 . S
C892 H856 0.931 . S
C892 C891 1.376 . S
C892 C893 1.396 . S
C893 C875 1.472 . S
C893 C892 1.396 . S
C893 C894 1.348 . S
C894 H857 0.929 . S
C894 C893 1.348 . S
C894 C895 1.443 . S
C895 H859 0.932 . S
C895 C890 1.388 . S
C895 C894 1.443 . S
H896 C923 0.929 . S
N897 C922 1.433 . S
N897 C928 1.435 . S
N897 C934 1.423 . S
H898 C924 0.930 . S
H899 C927 0.931 . S
H900 C926 0.929 . S
H901 C929 0.930 . S
H902 C930 0.932 . S
H903 C933 0.929 . S
H904 C932 0.931 . S
H905 C935 0.929 . S
H906 C939 0.932 . S
H907 C936 0.931 . S
H908 C938 0.929 . S
H909 C941 0.929 . S
H910 C942 0.930 . S
H911 C944 0.929 . S
H912 C945 0.931 . S
H913 C947 0.930 . S
H914 C948 0.932 . S
H915 C950 0.931 . S
H916 C951 0.929 . S
H917 C953 0.929 . S
H918 C954 0.931 . S
H919 C956 0.929 . S
N920 C940 1.433 . S
N920 C946 1.435 . S
N920 C952 1.423 . S
H921 C957 0.932 . S
C922 N897 1.433 . S
C922 C923 1.363 . S
C922 C927 1.370 . S
C923 H896 0.929 . S
C923 C922 1.363 . S
C923 C924 1.385 . S
C924 H898 0.930 . S
C924 C923 1.385 . S
C924 C925 1.357 . S
C925 C924 1.357 . S
C925 C926 1.406 . S
C926 H900 0.929 . S
C926 C925 1.406 . S
C926 C927 1.391 . S
C927 H899 0.931 . S
C927 C922 1.370 . S
C927 C926 1.391 . S
C928 N897 1.435 . S
C928 C929 1.358 . S
C928 C933 1.371 . S
C929 H901 0.930 . S
C929 C928 1.358 . S
C929 C930 1.405 . S
C930 H902 0.932 . S
C930 C929 1.405 . S
C930 C931 1.383 . S
C931 C930 1.383 . S
C931 C932 1.393 . S
C932 H904 0.931 . S
C932 C931 1.393 . S
C932 C933 1.382 . S
C933 H903 0.929 . S
C933 C928 1.371 . S
C933 C932 1.382 . S
C934 N897 1.423 . S
C934 C935 1.362 . S
C934 C939 1.388 . S
C935 H905 0.929 . S
C935 C934 1.362 . S
C935 C936 1.376 . S
C936 H907 0.931 . S
C936 C935 1.376 . S
C936 C937 1.396 . S
C937 C936 1.396 . S
C937 C938 1.348 . S
C937 C955 1.472 . S
C938 H908 0.929 . S
C938 C937 1.348 . S
C938 C939 1.443 . S
C939 H906 0.932 . S
C939 C934 1.388 . S
C939 C938 1.443 . S
C940 N920 1.433 . S
C940 C941 1.363 . S
C940 C945 1.370 . S
C941 H909 0.929 . S
C941 C940 1.363 . S
C941 C942 1.385 . S
C942 H910 0.930 . S
C942 C941 1.385 . S
C942 C943 1.357 . S
C943 C942 1.357 . S
C943 C944 1.406 . S
C944 H911 0.929 . S
C944 C943 1.406 . S
C944 C945 1.391 . S
C945 H912 0.931 . S
C945 C940 1.370 . S
C945 C944 1.391 . S
C946 N920 1.435 . S
C946 C947 1.358 . S
C946 C951 1.371 . S
C947 H913 0.930 . S
C947 C946 1.358 . S
C947 C948 1.405 . S
C948 H914 0.932 . S
C948 C947 1.405 . S
C948 C949 1.383 . S
C949 C948 1.383 . S
C949 C950 1.393 . S
C950 H915 0.931 . S
C950 C949 1.393 . S
C950 C951 1.382 . S
C951 H916 0.929 . S
C951 C946 1.371 . S
C951 C950 1.382 . S
C952 N920 1.423 . S
C952 C953 1.362 . S
C952 C957 1.388 . S
C953 H917 0.929 . S
C953 C952 1.362 . S
C953 C954 1.376 . S
C954 H918 0.931 . S
C954 C953 1.376 . S
C954 C955 1.396 . S
C955 C937 1.472 . S
C955 C954 1.396 . S
C955 C956 1.348 . S
C956 H919 0.929 . S
C956 C955 1.348 . S
C956 C957 1.443 . S
C957 H921 0.932 . S
C957 C952 1.388 . S
C957 C956 1.443 . S
H958 C985 0.929 . S
N959 C984 1.433 . S
N959 C990 1.435 . S
N959 C996 1.423 . S
H960 C986 0.930 . S
H961 C989 0.931 . S
H962 C988 0.929 . S
H963 C991 0.930 . S
H964 C992 0.932 . S
H965 C995 0.929 . S
H966 C994 0.931 . S
H967 C997 0.929 . S
H968 C1001 0.932 . S
H969 C998 0.931 . S
H970 C1000 0.929 . S
H971 C1003 0.929 . S
H972 C1004 0.930 . S
H973 C1006 0.929 . S
H974 C1007 0.931 . S
H975 C1009 0.930 . S
H976 C1010 0.932 . S
H977 C1012 0.931 . S
H978 C1013 0.929 . S
H979 C1015 0.929 . S
H980 C1016 0.931 . S
H981 C1018 0.929 . S
N982 C1002 1.433 . S
N982 C1008 1.435 . S
N982 C1014 1.423 . S
H983 C1019 0.932 . S
C984 N959 1.433 . S
C984 C985 1.363 . S
C984 C989 1.370 . S
C985 H958 0.929 . S
C985 C984 1.363 . S
C985 C986 1.385 . S
C986 H960 0.930 . S
C986 C985 1.385 . S
C986 C987 1.357 . S
C987 C986 1.357 . S
C987 C988 1.406 . S
C988 H962 0.929 . S
C988 C987 1.406 . S
C988 C989 1.391 . S
C989 H961 0.931 . S
C989 C984 1.370 . S
C989 C988 1.391 . S
C990 N959 1.435 . S
C990 C991 1.358 . S
C990 C995 1.371 . S
C991 H963 0.930 . S
C991 C990 1.358 . S
C991 C992 1.405 . S
C992 H964 0.932 . S
C992 C991 1.405 . S
C992 C993 1.383 . S
C993 C992 1.383 . S
C993 C994 1.393 . S
C994 H966 0.931 . S
C994 C993 1.393 . S
C994 C995 1.382 . S
C995 H965 0.929 . S
C995 C990 1.371 . S
C995 C994 1.382 . S
C996 N959 1.423 . S
C996 C997 1.362 . S
C996 C1001 1.388 . S
C997 H967 0.929 . S
C997 C996 1.362 . S
C997 C998 1.376 . S
C998 H969 0.931 . S
C998 C997 1.376 . S
C998 C999 1.396 . S
C999 C998 1.396 . S
C999 C1000 1.348 . S
C999 C1017 1.472 . S
C1000 H970 0.929 . S
C1000 C999 1.348 . S
C1000 C1001 1.443 . S
C1001 H968 0.932 . S
C1001 C996 1.388 . S
C1001 C1000 1.443 . S
C1002 N982 1.433 . S
C1002 C1003 1.363 . S
C1002 C1007 1.370 . S
C1003 H971 0.929 . S
C1003 C1002 1.363 . S
C1003 C1004 1.385 . S
C1004 H972 0.930 . S
C1004 C1003 1.385 . S
C1004 C1005 1.357 . S
C1005 C1004 1.357 . S
C1005 C1006 1.406 . S
C1006 H973 0.929 . S
C1006 C1005 1.406 . S
C1006 C1007 1.391 . S
C1007 H974 0.931 . S
C1007 C1002 1.370 . S
C1007 C1006 1.391 . S
C1008 N982 1.435 . S
C1008 C1009 1.358 . S
C1008 C1013 1.371 . S
C1009 H975 0.930 . S
C1009 C1008 1.358 . S
C1009 C1010 1.405 . S
C1010 H976 0.932 . S
C1010 C1009 1.405 . S
C1010 C1011 1.383 . S
C1011 C1010 1.383 . S
C1011 C1012 1.393 . S
C1012 H977 0.931 . S
C1012 C1011 1.393 . S
C1012 C1013 1.382 . S
C1013 H978 0.929 . S
C1013 C1008 1.371 . S
C1013 C1012 1.382 . S
C1014 N982 1.423 . S
C1014 C1015 1.362 . S
C1014 C1019 1.388 . S
C1015 H979 0.929 . S
C1015 C1014 1.362 . S
C1015 C1016 1.376 . S
C1016 H980 0.931 . S
C1016 C1015 1.376 . S
C1016 C1017 1.396 . S
C1017 C999 1.472 . S
C1017 C1016 1.396 . S
C1017 C1018 1.348 . S
C1018 H981 0.929 . S
C1018 C1017 1.348 . S
C1018 C1019 1.443 . S
C1019 H983 0.932 . S
C1019 C1014 1.388 . S
C1019 C1018 1.443 . S
H1020 C1047 0.929 . S
N1021 C1046 1.433 . S
N1021 C1052 1.435 . S
N1021 C1058 1.423 . S
H1022 C1048 0.930 . S
H1023 C1051 0.931 . S
H1024 C1050 0.929 . S
H1025 C1053 0.930 . S
H1026 C1054 0.932 . S
H1027 C1057 0.929 . S
H1028 C1056 0.931 . S
H1029 C1059 0.929 . S
H1030 C1063 0.932 . S
H1031 C1060 0.931 . S
H1032 C1062 0.929 . S
H1033 C1065 0.929 . S
H1034 C1066 0.930 . S
H1035 C1068 0.929 . S
H1036 C1069 0.931 . S
H1037 C1071 0.930 . S
H1038 C1072 0.932 . S
H1039 C1074 0.931 . S
H1040 C1075 0.929 . S
H1041 C1077 0.929 . S
H1042 C1078 0.931 . S
H1043 C1080 0.929 . S
N1044 C1064 1.433 . S
N1044 C1070 1.435 . S
N1044 C1076 1.423 . S
H1045 C1081 0.932 . S
C1046 N1021 1.433 . S
C1046 C1047 1.363 . S
C1046 C1051 1.370 . S
C1047 H1020 0.929 . S
C1047 C1046 1.363 . S
C1047 C1048 1.385 . S
C1048 H1022 0.930 . S
C1048 C1047 1.385 . S
C1048 C1049 1.357 . S
C1049 C1048 1.357 . S
C1049 C1050 1.406 . S
C1050 H1024 0.929 . S
C1050 C1049 1.406 . S
C1050 C1051 1.391 . S
C1051 H1023 0.931 . S
C1051 C1046 1.370 . S
C1051 C1050 1.391 . S
C1052 N1021 1.435 . S
C1052 C1053 1.358 . S
C1052 C1057 1.371 . S
C1053 H1025 0.930 . S
C1053 C1052 1.358 . S
C1053 C1054 1.405 . S
C1054 H1026 0.932 . S
C1054 C1053 1.405 . S
C1054 C1055 1.383 . S
C1055 C1054 1.383 . S
C1055 C1056 1.393 . S
C1056 H1028 0.931 . S
C1056 C1055 1.393 . S
C1056 C1057 1.382 . S
C1057 H1027 0.929 . S
C1057 C1052 1.371 . S
C1057 C1056 1.382 . S
C1058 N1021 1.423 . S
C1058 C1059 1.362 . S
C1058 C1063 1.388 . S
C1059 H1029 0.929 . S
C1059 C1058 1.362 . S
C1059 C1060 1.376 . S
C1060 H1031 0.931 . S
C1060 C1059 1.376 . S
C1060 C1061 1.396 . S
C1061 C1060 1.396 . S
C1061 C1062 1.348 . S
C1061 C1079 1.472 . S
C1062 H1032 0.929 . S
C1062 C1061 1.348 . S
C1062 C1063 1.443 . S
C1063 H1030 0.932 . S
C1063 C1058 1.388 . S
C1063 C1062 1.443 . S
C1064 N1044 1.433 . S
C1064 C1065 1.363 . S
C1064 C1069 1.370 . S
C1065 H1033 0.929 . S
C1065 C1064 1.363 . S
C1065 C1066 1.385 . S
C1066 H1034 0.930 . S
C1066 C1065 1.385 . S
C1066 C1067 1.357 . S
C1067 C1066 1.357 . S
C1067 C1068 1.406 . S
C1068 H1035 0.929 . S
C1068 C1067 1.406 . S
C1068 C1069 1.391 . S
C1069 H1036 0.931 . S
C1069 C1064 1.370 . S
C1069 C1068 1.391 . S
C1070 N1044 1.435 . S
C1070 C1071 1.358 . S
C1070 C1075 1.371 . S
C1071 H1037 0.930 . S
C1071 C1070 1.358 . S
C1071 C1072 1.405 . S
C1072 H1038 0.932 . S
C1072 C1071 1.405 . S
C1072 C1073 1.383 . S
C1073 C1072 1.383 . S
C1073 C1074 1.393 . S
C1074 H1039 0.931 . S
C1074 C1073 1.393 . S
C1074 C1075 1.382 . S
C1075 H1040 0.929 . S
C1075 C1070 1.371 . S
C1075 C1074 1.382 . S
C1076 N1044 1.423 . S
C1076 C1077 1.362 . S
C1076 C1081 1.388 . S
C1077 H1041 0.929 . S
C1077 C1076 1.362 . S
C1077 C1078 1.376 . S
C1078 H1042 0.931 . S
C1078 C1077 1.376 . S
C1078 C1079 1.396 . S
C1079 C1061 1.472 . S
C1079 C1078 1.396 . S
C1079 C1080 1.348 . S
C1080 H1043 0.929 . S
C1080 C1079 1.348 . S
C1080 C1081 1.443 . S
C1081 H1045 0.932 . S
C1081 C1076 1.388 . S
C1081 C1080 1.443 . S
H1082 C1109 0.929 . S
N1083 C1108 1.433 . S
N1083 C1114 1.435 . S
N1083 C1120 1.423 . S
H1084 C1110 0.930 . S
H1085 C1113 0.931 . S
H1086 C1112 0.929 . S
H1087 C1115 0.930 . S
H1088 C1116 0.932 . S
H1089 C1119 0.929 . S
H1090 C1118 0.931 . S
H1091 C1121 0.929 . S
H1092 C1125 0.932 . S
H1093 C1122 0.931 . S
H1094 C1124 0.929 . S
H1095 C1127 0.929 . S
H1096 C1128 0.930 . S
H1097 C1130 0.929 . S
H1098 C1131 0.931 . S
H1099 C1133 0.930 . S
H1100 C1134 0.932 . S
H1101 C1136 0.931 . S
H1102 C1137 0.929 . S
H1103 C1139 0.929 . S
H1104 C1140 0.931 . S
H1105 C1142 0.929 . S
N1106 C1126 1.433 . S
N1106 C1132 1.435 . S
N1106 C1138 1.423 . S
H1107 C1143 0.932 . S
C1108 N1083 1.433 . S
C1108 C1109 1.363 . S
C1108 C1113 1.370 . S
C1109 H1082 0.929 . S
C1109 C1108 1.363 . S
C1109 C1110 1.385 . S
C1110 H1084 0.930 . S
C1110 C1109 1.385 . S
C1110 C1111 1.357 . S
C1111 C1110 1.357 . S
C1111 C1112 1.406 . S
C1112 H1086 0.929 . S
C1112 C1111 1.406 . S
C1112 C1113 1.391 . S
C1113 H1085 0.931 . S
C1113 C1108 1.370 . S
C1113 C1112 1.391 . S
C1114 N1083 1.435 . S
C1114 C1115 1.358 . S
C1114 C1119 1.371 . S
C1115 H1087 0.930 . S
C1115 C1114 1.358 . S
C1115 C1116 1.405 . S
C1116 H1088 0.932 . S
C1116 C1115 1.405 . S
C1116 C1117 1.383 . S
C1117 C1116 1.383 . S
C1117 C1118 1.393 . S
C1118 H1090 0.931 . S
C1118 C1117 1.393 . S
C1118 C1119 1.382 . S
C1119 H1089 0.929 . S
C1119 C1114 1.371 . S
C1119 C1118 1.382 . S
C1120 N1083 1.423 . S
C1120 C1121 1.362 . S
C1120 C1125 1.388 . S
C1121 H1091 0.929 . S
C1121 C1120 1.362 . S
C1121 C1122 1.376 . S
C1122 H1093 0.931 . S
C1122 C1121 1.376 . S
C1122 C1123 1.396 . S
C1123 C1122 1.396 . S
C1123 C1124 1.348 . S
C1123 C1141 1.472 . S
C1124 H1094 0.929 . S
C1124 C1123 1.348 . S
C1124 C1125 1.443 . S
C1125 H1092 0.932 . S
C1125 C1120 1.388 . S
C1125 C1124 1.443 . S
C1126 N1106 1.433 . S
C1126 C1127 1.363 . S
C1126 C1131 1.370 . S
C1127 H1095 0.929 . S
C1127 C1126 1.363 . S
C1127 C1128 1.385 . S
C1128 H1096 0.930 . S
C1128 C1127 1.385 . S
C1128 C1129 1.357 . S
C1129 C1128 1.357 . S
C1129 C1130 1.406 . S
C1130 H1097 0.929 . S
C1130 C1129 1.406 . S
C1130 C1131 1.391 . S
C1131 H1098 0.931 . S
C1131 C1126 1.370 . S
C1131 C1130 1.391 . S
C1132 N1106 1.435 . S
C1132 C1133 1.358 . S
C1132 C1137 1.371 . S
C1133 H1099 0.930 . S
C1133 C1132 1.358 . S
C1133 C1134 1.405 . S
C1134 H1100 0.932 . S
C1134 C1133 1.405 . S
C1134 C1135 1.383 . S
C1135 C1134 1.383 . S
C1135 C1136 1.393 . S
C1136 H1101 0.931 . S
C1136 C1135 1.393 . S
C1136 C1137 1.382 . S
C1137 H1102 0.929 . S
C1137 C1132 1.371 . S
C1137 C1136 1.382 . S
C1138 N1106 1.423 . S
C1138 C1139 1.362 . S
C1138 C1143 1.388 . S
C1139 H1103 0.929 . S
C1139 C1138 1.362 . S
C1139 C1140 1.376 . S
C1140 H1104 0.931 . S
C1140 C1139 1.376 . S
C1140 C1141 1.396 . S
C1141 C1123 1.472 . S
C1141 C1140 1.396 . S
C1141 C1142 1.348 . S
C1142 H1105 0.929 . S
C1142 C1141 1.348 . S
C1142 C1143 1.443 . S
C1143 H1107 0.932 . S
C1143 C1138 1.388 . S
C1143 C1142 1.443 . S
H1144 C1171 0.929 . S
N1145 C1170 1.433 . S
N1145 C1176 1.435 . S
N1145 C1182 1.423 . S
H1146 C1172 0.930 . S
H1147 C1175 0.931 . S
H1148 C1174 0.929 . S
H1149 C1177 0.930 . S
H1150 C1178 0.932 . S
H1151 C1181 0.929 . S
H1152 C1180 0.931 . S
H1153 C1183 0.929 . S
H1154 C1187 0.932 . S
H1155 C1184 0.931 . S
H1156 C1186 0.929 . S
H1157 C1189 0.929 . S
H1158 C1190 0.930 . S
H1159 C1192 0.929 . S
H1160 C1193 0.931 . S
H1161 C1195 0.930 . S
H1162 C1196 0.932 . S
H1163 C1198 0.931 . S
H1164 C1199 0.929 . S
H1165 C1201 0.929 . S
H1166 C1202 0.931 . S
H1167 C1204 0.929 . S
N1168 C1188 1.433 . S
N1168 C1194 1.435 . S
N1168 C1200 1.423 . S
H1169 C1205 0.932 . S
C1170 N1145 1.433 . S
C1170 C1171 1.363 . S
C1170 C1175 1.370 . S
C1171 H1144 0.929 . S
C1171 C1170 1.363 . S
C1171 C1172 1.385 . S
C1172 H1146 0.930 . S
C1172 C1171 1.385 . S
C1172 C1173 1.357 . S
C1173 C1172 1.357 . S
C1173 C1174 1.406 . S
C1174 H1148 0.929 . S
C1174 C1173 1.406 . S
C1174 C1175 1.391 . S
C1175 H1147 0.931 . S
C1175 C1170 1.370 . S
C1175 C1174 1.391 . S
C1176 N1145 1.435 . S
C1176 C1177 1.358 . S
C1176 C1181 1.371 . S
C1177 H1149 0.930 . S
C1177 C1176 1.358 . S
C1177 C1178 1.405 . S
C1178 H1150 0.932 . S
C1178 C1177 1.405 . S
C1178 C1179 1.383 . S
C1179 C1178 1.383 . S
C1179 C1180 1.393 . S
C1180 H1152 0.931 . S
C1180 C1179 1.393 . S
C1180 C1181 1.382 . S
C1181 H1151 0.929 . S
C1181 C1176 1.371 . S
C1181 C1180 1.382 . S
C1182 N1145 1.423 . S
C1182 C1183 1.362 . S
C1182 C1187 1.388 . S
C1183 H1153 0.929 . S
C1183 C1182 1.362 . S
C1183 C1184 1.376 . S
C1184 H1155 0.931 . S
C1184 C1183 1.376 . S
C1184 C1185 1.396 . S
C1185 C1184 1.396 . S
C1185 C1186 1.348 . S
C1185 C1203 1.472 . S
C1186 H1156 0.929 . S
C1186 C1185 1.348 . S
C1186 C1187 1.443 . S
C1187 H1154 0.932 . S
C1187 C1182 1.388 . S
C1187 C1186 1.443 . S
C1188 N1168 1.433 . S
C1188 C1189 1.363 . S
C1188 C1193 1.370 . S
C1189 H1157 0.929 . S
C1189 C1188 1.363 . S
C1189 C1190 1.385 . S
C1190 H1158 0.930 . S
C1190 C1189 1.385 . S
C1190 C1191 1.357 . S
C1191 C1190 1.357 . S
C1191 C1192 1.406 . S
C1192 H1159 0.929 . S
C1192 C1191 1.406 . S
C1192 C1193 1.391 . S
C1193 H1160 0.931 . S
C1193 C1188 1.370 . S
C1193 C1192 1.391 . S
C1194 N1168 1.435 . S
C1194 C1195 1.358 . S
C1194 C1199 1.371 . S
C1195 H1161 0.930 . S
C1195 C1194 1.358 . S
C1195 C1196 1.405 . S
C1196 H1162 0.932 . S
C1196 C1195 1.405 . S
C1196 C1197 1.383 . S
C1197 C1196 1.383 . S
C1197 C1198 1.393 . S
C1198 H1163 0.931 . S
C1198 C1197 1.393 . S
C1198 C1199 1.382 . S
C1199 H1164 0.929 . S
C1199 C1194 1.371 . S
C1199 C1198 1.382 . S
C1200 N1168 1.423 . S
C1200 C1201 1.362 . S
C1200 C1205 1.388 . S
C1201 H1165 0.929 . S
C1201 C1200 1.362 . S
C1201 C1202 1.376 . S
C1202 H1166 0.931 . S
C1202 C1201 1.376 . S
C1202 C1203 1.396 . S
C1203 C1185 1.472 . S
C1203 C1202 1.396 . S
C1203 C1204 1.348 . S
C1204 H1167 0.929 . S
C1204 C1203 1.348 . S
C1204 C1205 1.443 . S
C1205 H1169 0.932 . S
C1205 C1200 1.388 . S
C1205 C1204 1.443 . S
H1206 C1233 0.929 . S
N1207 C1232 1.433 . S
N1207 C1238 1.435 . S
N1207 C1244 1.423 . S
H1208 C1234 0.930 . S
H1209 C1237 0.931 . S
H1210 C1236 0.929 . S
H1211 C1239 0.930 . S
H1212 C1240 0.932 . S
H1213 C1243 0.929 . S
H1214 C1242 0.931 . S
H1215 C1245 0.929 . S
H1216 C1249 0.932 1_655 S
H1217 C1246 0.931 . S
H1218 C1248 0.929 . S
H1219 C1251 0.929 . S
H1220 C1252 0.930 . S
H1221 C1254 0.929 . S
H1222 C1255 0.931 . S
H1223 C1257 0.930 . S
H1224 C1258 0.932 . S
H1225 C1260 0.931 . S
H1226 C1261 0.929 . S
H1227 C1263 0.929 . S
H1228 C1264 0.931 . S
H1229 C1266 0.929 . S
N1230 C1250 1.433 . S
N1230 C1256 1.435 . S
N1230 C1262 1.423 . S
H1231 C1267 0.932 1_655 S
C1232 N1207 1.433 . S
C1232 C1233 1.363 . S
C1232 C1237 1.370 1_455 S
C1233 H1206 0.929 . S
C1233 C1232 1.363 . S
C1233 C1234 1.385 . S
C1234 H1208 0.930 . S
C1234 C1233 1.385 . S
C1234 C1235 1.357 1_455 S
C1235 C1234 1.357 1_655 S
C1235 C1236 1.406 . S
C1236 H1210 0.929 . S
C1236 C1235 1.406 . S
C1236 C1237 1.391 . S
C1237 H1209 0.931 . S
C1237 C1232 1.370 1_655 S
C1237 C1236 1.391 . S
C1238 N1207 1.435 . S
C1238 C1239 1.358 1_455 S
C1238 C1243 1.371 . S
C1239 H1211 0.930 . S
C1239 C1238 1.358 1_655 S
C1239 C1240 1.405 . S
C1240 H1212 0.932 . S
C1240 C1239 1.405 . S
C1240 C1241 1.383 1_655 S
C1241 C1240 1.383 1_455 S
C1241 C1242 1.393 . S
C1242 H1214 0.931 . S
C1242 C1241 1.393 . S
C1242 C1243 1.382 . S
C1243 H1213 0.929 . S
C1243 C1238 1.371 . S
C1243 C1242 1.382 . S
C1244 N1207 1.423 . S
C1244 C1245 1.362 . S
C1244 C1249 1.388 . S
C1245 H1215 0.929 . S
C1245 C1244 1.362 . S
C1245 C1246 1.376 . S
C1246 H1217 0.931 . S
C1246 C1245 1.376 . S
C1246 C1247 1.396 . S
C1247 C1246 1.396 . S
C1247 C1248 1.348 . S
C1247 C1265 1.472 . S
C1248 H1218 0.929 . S
C1248 C1247 1.348 . S
C1248 C1249 1.443 . S
C1249 H1216 0.932 1_455 S
C1249 C1244 1.388 . S
C1249 C1248 1.443 . S
C1250 N1230 1.433 . S
C1250 C1251 1.363 . S
C1250 C1255 1.370 1_455 S
C1251 H1219 0.929 . S
C1251 C1250 1.363 . S
C1251 C1252 1.385 . S
C1252 H1220 0.930 . S
C1252 C1251 1.385 . S
C1252 C1253 1.357 1_455 S
C1253 C1252 1.357 1_655 S
C1253 C1254 1.406 . S
C1254 H1221 0.929 . S
C1254 C1253 1.406 . S
C1254 C1255 1.391 . S
C1255 H1222 0.931 . S
C1255 C1250 1.370 1_655 S
C1255 C1254 1.391 . S
C1256 N1230 1.435 . S
C1256 C1257 1.358 1_455 S
C1256 C1261 1.371 . S
C1257 H1223 0.930 . S
C1257 C1256 1.358 1_655 S
C1257 C1258 1.405 . S
C1258 H1224 0.932 . S
C1258 C1257 1.405 . S
C1258 C1259 1.383 1_655 S
C1259 C1258 1.383 1_455 S
C1259 C1260 1.393 . S
C1260 H1225 0.931 . S
C1260 C1259 1.393 . S
C1260 C1261 1.382 . S
C1261 H1226 0.929 . S
C1261 C1256 1.371 . S
C1261 C1260 1.382 . S
C1262 N1230 1.423 . S
C1262 C1263 1.362 . S
C1262 C1267 1.388 . S
C1263 H1227 0.929 . S
C1263 C1262 1.362 . S
C1263 C1264 1.376 . S
C1264 H1228 0.931 . S
C1264 C1263 1.376 . S
C1264 C1265 1.396 . S
C1265 C1247 1.472 . S
C1265 C1264 1.396 . S
C1265 C1266 1.348 . S
C1266 H1229 0.929 . S
C1266 C1265 1.348 . S
C1266 C1267 1.443 . S
C1267 H1231 0.932 1_455 S
C1267 C1262 1.388 . S
C1267 C1266 1.443 . S
H1268 C1295 0.929 . S
N1269 C1294 1.433 . S
N1269 C1300 1.435 . S
N1269 C1306 1.423 . S
H1270 C1296 0.930 . S
H1271 C1299 0.931 . S
H1272 C1298 0.929 . S
H1273 C1301 0.930 . S
H1274 C1302 0.932 . S
H1275 C1305 0.929 . S
H1276 C1304 0.931 . S
H1277 C1307 0.929 . S
H1278 C1311 0.932 . S
H1279 C1308 0.931 . S
H1280 C1310 0.929 . S
H1281 C1313 0.929 . S
H1282 C1314 0.930 . S
H1283 C1316 0.929 . S
H1284 C1317 0.931 . S
H1285 C1319 0.930 . S
H1286 C1320 0.932 . S
H1287 C1322 0.931 . S
H1288 C1323 0.929 . S
H1289 C1325 0.929 . S
H1290 C1326 0.931 . S
H1291 C1328 0.929 . S
N1292 C1312 1.433 . S
N1292 C1318 1.435 . S
N1292 C1324 1.423 . S
H1293 C1329 0.932 . S
C1294 N1269 1.433 . S
C1294 C1295 1.363 . S
C1294 C1299 1.370 . S
C1295 H1268 0.929 . S
C1295 C1294 1.363 . S
C1295 C1296 1.385 . S
C1296 H1270 0.930 . S
C1296 C1295 1.385 . S
C1296 C1297 1.357 . S
C1297 C1296 1.357 . S
C1297 C1298 1.406 . S
C1298 H1272 0.929 . S
C1298 C1297 1.406 . S
C1298 C1299 1.391 . S
C1299 H1271 0.931 . S
C1299 C1294 1.370 . S
C1299 C1298 1.391 . S
C1300 N1269 1.435 . S
C1300 C1301 1.358 . S
C1300 C1305 1.371 . S
C1301 H1273 0.930 . S
C1301 C1300 1.358 . S
C1301 C1302 1.405 . S
C1302 H1274 0.932 . S
C1302 C1301 1.405 . S
C1302 C1303 1.383 . S
C1303 C1302 1.383 . S
C1303 C1304 1.393 . S
C1304 H1276 0.931 . S
C1304 C1303 1.393 . S
C1304 C1305 1.382 . S
C1305 H1275 0.929 . S
C1305 C1300 1.371 . S
C1305 C1304 1.382 . S
C1306 N1269 1.423 . S
C1306 C1307 1.362 . S
C1306 C1311 1.388 . S
C1307 H1277 0.929 . S
C1307 C1306 1.362 . S
C1307 C1308 1.376 . S
C1308 H1279 0.931 . S
C1308 C1307 1.376 . S
C1308 C1309 1.396 . S
C1309 C1308 1.396 . S
C1309 C1310 1.348 . S
C1309 C1327 1.472 . S
C1310 H1280 0.929 . S
C1310 C1309 1.348 . S
C1310 C1311 1.443 . S
C1311 H1278 0.932 . S
C1311 C1306 1.388 . S
C1311 C1310 1.443 . S
C1312 N1292 1.433 . S
C1312 C1313 1.363 . S
C1312 C1317 1.370 . S
C1313 H1281 0.929 . S
C1313 C1312 1.363 . S
C1313 C1314 1.385 . S
C1314 H1282 0.930 . S
C1314 C1313 1.385 . S
C1314 C1315 1.357 . S
C1315 C1314 1.357 . S
C1315 C1316 1.406 . S
C1316 H1283 0.929 . S
C1316 C1315 1.406 . S
C1316 C1317 1.391 . S
C1317 H1284 0.931 . S
C1317 C1312 1.370 . S
C1317 C1316 1.391 . S
C1318 N1292 1.435 . S
C1318 C1319 1.358 . S
C1318 C1323 1.371 . S
C1319 H1285 0.930 . S
C1319 C1318 1.358 . S
C1319 C1320 1.405 . S
C1320 H1286 0.932 . S
C1320 C1319 1.405 . S
C1320 C1321 1.383 . S
C1321 C1320 1.383 . S
C1321 C1322 1.393 . S
C1322 H1287 0.931 . S
C1322 C1321 1.393 . S
C1322 C1323 1.382 . S
C1323 H1288 0.929 . S
C1323 C1318 1.371 . S
C1323 C1322 1.382 . S
C1324 N1292 1.423 . S
C1324 C1325 1.362 . S
C1324 C1329 1.388 . S
C1325 H1289 0.929 . S
C1325 C1324 1.362 . S
C1325 C1326 1.376 . S
C1326 H1290 0.931 . S
C1326 C1325 1.376 . S
C1326 C1327 1.396 . S
C1327 C1309 1.472 . S
C1327 C1326 1.396 . S
C1327 C1328 1.348 . S
C1328 H1291 0.929 . S
C1328 C1327 1.348 . S
C1328 C1329 1.443 . S
C1329 H1293 0.932 . S
C1329 C1324 1.388 . S
C1329 C1328 1.443 . S
H1330 C1357 0.929 . S
N1331 C1356 1.433 . S
N1331 C1362 1.435 . S
N1331 C1368 1.423 . S
H1332 C1358 0.930 . S
H1333 C1361 0.931 . S
H1334 C1360 0.929 . S
H1335 C1363 0.930 . S
H1336 C1364 0.932 . S
H1337 C1367 0.929 . S
H1338 C1366 0.931 . S
H1339 C1369 0.929 . S
H1340 C1373 0.932 1_545 S
H1341 C1370 0.931 . S
H1342 C1372 0.929 . S
H1343 C1375 0.929 . S
H1344 C1376 0.930 . S
H1345 C1378 0.929 . S
H1346 C1379 0.931 . S
H1347 C1381 0.930 . S
H1348 C1382 0.932 . S
H1349 C1384 0.931 . S
H1350 C1385 0.929 . S
H1351 C1387 0.929 . S
H1352 C1388 0.931 . S
H1353 C1390 0.929 . S
N1354 C1374 1.433 . S
N1354 C1380 1.435 . S
N1354 C1386 1.423 . S
H1355 C1391 0.932 1_545 S
C1356 N1331 1.433 . S
C1356 C1357 1.363 . S
C1356 C1361 1.370 1_565 S
C1357 H1330 0.929 . S
C1357 C1356 1.363 . S
C1357 C1358 1.385 . S
C1358 H1332 0.930 . S
C1358 C1357 1.385 . S
C1358 C1359 1.357 1_565 S
C1359 C1358 1.357 1_545 S
C1359 C1360 1.406 . S
C1360 H1334 0.929 . S
C1360 C1359 1.406 . S
C1360 C1361 1.391 . S
C1361 H1333 0.931 . S
C1361 C1356 1.370 1_545 S
C1361 C1360 1.391 . S
C1362 N1331 1.435 . S
C1362 C1363 1.358 1_565 S
C1362 C1367 1.371 . S
C1363 H1335 0.930 . S
C1363 C1362 1.358 1_545 S
C1363 C1364 1.405 . S
C1364 H1336 0.932 . S
C1364 C1363 1.405 . S
C1364 C1365 1.383 1_545 S
C1365 C1364 1.383 1_565 S
C1365 C1366 1.393 . S
C1366 H1338 0.931 . S
C1366 C1365 1.393 . S
C1366 C1367 1.382 . S
C1367 H1337 0.929 . S
C1367 C1362 1.371 . S
C1367 C1366 1.382 . S
C1368 N1331 1.423 . S
C1368 C1369 1.362 . S
C1368 C1373 1.388 . S
C1369 H1339 0.929 . S
C1369 C1368 1.362 . S
C1369 C1370 1.376 . S
C1370 H1341 0.931 . S
C1370 C1369 1.376 . S
C1370 C1371 1.396 . S
C1371 C1370 1.396 . S
C1371 C1372 1.348 . S
C1371 C1389 1.472 . S
C1372 H1342 0.929 . S
C1372 C1371 1.348 . S
C1372 C1373 1.443 . S
C1373 H1340 0.932 1_565 S
C1373 C1368 1.388 . S
C1373 C1372 1.443 . S
C1374 N1354 1.433 . S
C1374 C1375 1.363 . S
C1374 C1379 1.370 1_565 S
C1375 H1343 0.929 . S
C1375 C1374 1.363 . S
C1375 C1376 1.385 . S
C1376 H1344 0.930 . S
C1376 C1375 1.385 . S
C1376 C1377 1.357 1_565 S
C1377 C1376 1.357 1_545 S
C1377 C1378 1.406 . S
C1378 H1345 0.929 . S
C1378 C1377 1.406 . S
C1378 C1379 1.391 . S
C1379 H1346 0.931 . S
C1379 C1374 1.370 1_545 S
C1379 C1378 1.391 . S
C1380 N1354 1.435 . S
C1380 C1381 1.358 1_565 S
C1380 C1385 1.371 . S
C1381 H1347 0.930 . S
C1381 C1380 1.358 1_545 S
C1381 C1382 1.405 . S
C1382 H1348 0.932 . S
C1382 C1381 1.405 . S
C1382 C1383 1.383 1_545 S
C1383 C1382 1.383 1_565 S
C1383 C1384 1.393 . S
C1384 H1349 0.931 . S
C1384 C1383 1.393 . S
C1384 C1385 1.382 . S
C1385 H1350 0.929 . S
C1385 C1380 1.371 . S
C1385 C1384 1.382 . S
C1386 N1354 1.423 . S
C1386 C1387 1.362 . S
C1386 C1391 1.388 . S
C1387 H1351 0.929 . S
C1387 C1386 1.362 . S
C1387 C1388 1.376 . S
C1388 H1352 0.931 . S
C1388 C1387 1.376 . S
C1388 C1389 1.396 . S
C1389 C1371 1.472 . S
C1389 C1388 1.396 . S
C1389 C1390 1.348 . S
C1390 H1353 0.929 . S
C1390 C1389 1.348 . S
C1390 C1391 1.443 . S
C1391 H1355 0.932 1_565 S
C1391 C1386 1.388 . S
C1391 C1390 1.443 . S
H1392 C1419 0.929 . S
N1393 C1418 1.433 . S
N1393 C1424 1.435 . S
N1393 C1430 1.423 . S
H1394 C1420 0.930 . S
H1395 C1423 0.930 . S
H1396 C1422 0.929 . S
H1397 C1425 0.930 . S
H1398 C1426 0.932 . S
H1399 C1429 0.929 . S
H1400 C1428 0.931 . S
H1401 C1431 0.929 . S
H1402 C1435 0.932 . S
H1403 C1432 0.931 . S
H1404 C1434 0.917 1_545 S
H1405 C1437 0.929 . S
H1406 C1438 0.930 . S
H1407 C1440 0.929 . S
H1408 C1441 0.931 . S
H1409 C1443 0.930 . S
H1410 C1444 0.932 . S
H1411 C1446 0.931 . S
H1412 C1447 0.929 . S
H1413 C1449 0.929 . S
H1414 C1450 0.931 . S
H1415 C1452 0.891 1_545 S
N1416 C1436 1.433 . S
N1416 C1442 1.435 . S
N1416 C1448 1.423 . S
H1417 C1453 0.932 . S
C1418 N1393 1.433 . S
C1418 C1419 1.363 . S
C1418 C1423 1.361 1_565 S
C1419 H1392 0.929 . S
C1419 C1418 1.363 . S
C1419 C1420 1.385 . S
C1420 H1394 0.930 . S
C1420 C1419 1.385 . S
C1420 C1421 1.357 . S
C1421 C1420 1.357 . S
C1421 C1422 1.406 1_565 S
C1422 H1396 0.929 . S
C1422 C1421 1.406 1_545 S
C1422 C1423 1.407 . S
C1423 H1395 0.930 . S
C1423 C1418 1.361 1_545 S
C1423 C1422 1.407 . S
C1424 N1393 1.435 . S
C1424 C1425 1.358 1_565 S
C1424 C1429 1.371 . S
C1425 H1397 0.930 . S
C1425 C1424 1.358 1_545 S
C1425 C1426 1.405 . S
C1426 H1398 0.932 . S
C1426 C1425 1.405 . S
C1426 C1427 1.383 . S
C1427 C1426 1.383 . S
C1427 C1428 1.393 1_545 S
C1428 H1400 0.931 . S
C1428 C1427 1.393 1_565 S
C1428 C1429 1.382 . S
C1429 H1399 0.929 . S
C1429 C1424 1.371 . S
C1429 C1428 1.382 . S
C1430 N1393 1.423 . S
C1430 C1431 1.362 . S
C1430 C1435 1.388 1_565 S
C1431 H1401 0.929 . S
C1431 C1430 1.362 . S
C1431 C1432 1.376 . S
C1432 H1403 0.931 . S
C1432 C1431 1.376 . S
C1432 C1433 1.396 . S
C1433 C1432 1.396 . S
C1433 C1434 1.395 . S
C1433 C1451 1.472 . S
C1434 H1404 0.917 1_565 S
C1434 C1433 1.395 . S
C1434 C1435 1.410 1_565 S
C1435 H1402 0.932 . S
C1435 C1430 1.388 1_545 S
C1435 C1434 1.410 1_545 S
C1436 N1416 1.433 . S
C1436 C1437 1.363 . S
C1436 C1441 1.370 1_565 S
C1437 H1405 0.929 . S
C1437 C1436 1.363 . S
C1437 C1438 1.385 . S
C1438 H1406 0.930 . S
C1438 C1437 1.385 . S
C1438 C1439 1.357 . S
C1439 C1438 1.357 . S
C1439 C1440 1.406 1_565 S
C1440 H1407 0.929 . S
C1440 C1439 1.406 1_545 S
C1440 C1441 1.391 . S
C1441 H1408 0.931 . S
C1441 C1436 1.370 1_545 S
C1441 C1440 1.391 . S
C1442 N1416 1.435 . S
C1442 C1443 1.358 1_565 S
C1442 C1447 1.371 . S
C1443 H1409 0.930 . S
C1443 C1442 1.358 1_545 S
C1443 C1444 1.405 . S
C1444 H1410 0.932 . S
C1444 C1443 1.405 . S
C1444 C1445 1.383 . S
C1445 C1444 1.383 . S
C1445 C1446 1.393 1_545 S
C1446 H1411 0.931 . S
C1446 C1445 1.393 1_565 S
C1446 C1447 1.382 . S
C1447 H1412 0.929 . S
C1447 C1442 1.371 . S
C1447 C1446 1.382 . S
C1448 N1416 1.423 . S
C1448 C1449 1.362 . S
C1448 C1453 1.388 1_565 S
C1449 H1413 0.929 . S
C1449 C1448 1.362 . S
C1449 C1450 1.376 . S
C1450 H1414 0.931 . S
C1450 C1449 1.376 . S
C1450 C1451 1.396 . S
C1451 C1433 1.472 . S
C1451 C1450 1.396 . S
C1451 C1452 1.364 . S
C1452 H1415 0.891 1_565 S
C1452 C1451 1.364 . S
C1452 C1453 1.465 1_565 S
C1453 H1417 0.932 . S
C1453 C1448 1.388 1_545 S
C1453 C1452 1.465 1_545 S
H1454 C1481 0.929 . S
N1455 C1480 1.433 . S
N1455 C1486 1.435 . S
N1455 C1492 1.423 . S
H1456 C1482 0.930 . S
H1457 C1485 0.931 . S
H1458 C1484 0.929 . S
H1459 C1487 0.930 . S
H1460 C1488 0.932 . S
H1461 C1491 0.929 . S
H1462 C1490 0.931 . S
H1463 C1493 0.929 . S
H1464 C1497 0.932 1_455 S
H1465 C1494 0.931 . S
H1466 C1496 0.929 . S
H1467 C1499 0.929 . S
H1468 C1500 0.930 . S
H1469 C1502 0.929 . S
H1470 C1503 0.931 . S
H1471 C1505 0.930 . S
H1472 C1506 0.932 . S
H1473 C1508 0.931 . S
H1474 C1509 0.929 . S
H1475 C1511 0.929 . S
H1476 C1512 0.931 . S
H1477 C1514 0.929 . S
N1478 C1498 1.433 . S
N1478 C1504 1.435 . S
N1478 C1510 1.423 . S
H1479 C1515 0.932 1_455 S
C1480 N1455 1.433 . S
C1480 C1481 1.363 . S
C1480 C1485 1.370 1_655 S
C1481 H1454 0.929 . S
C1481 C1480 1.363 . S
C1481 C1482 1.385 . S
C1482 H1456 0.930 . S
C1482 C1481 1.385 . S
C1482 C1483 1.357 1_655 S
C1483 C1482 1.357 1_455 S
C1483 C1484 1.406 . S
C1484 H1458 0.929 . S
C1484 C1483 1.406 . S
C1484 C1485 1.391 . S
C1485 H1457 0.931 . S
C1485 C1480 1.370 1_455 S
C1485 C1484 1.391 . S
C1486 N1455 1.435 . S
C1486 C1487 1.358 1_655 S
C1486 C1491 1.371 . S
C1487 H1459 0.930 . S
C1487 C1486 1.358 1_455 S
C1487 C1488 1.405 . S
C1488 H1460 0.932 . S
C1488 C1487 1.405 . S
C1488 C1489 1.383 1_455 S
C1489 C1488 1.383 1_655 S
C1489 C1490 1.393 . S
C1490 H1462 0.931 . S
C1490 C1489 1.393 . S
C1490 C1491 1.382 . S
C1491 H1461 0.929 . S
C1491 C1486 1.371 . S
C1491 C1490 1.382 . S
C1492 N1455 1.423 . S
C1492 C1493 1.362 . S
C1492 C1497 1.388 . S
C1493 H1463 0.929 . S
C1493 C1492 1.362 . S
C1493 C1494 1.376 . S
C1494 H1465 0.931 . S
C1494 C1493 1.376 . S
C1494 C1495 1.396 . S
C1495 C1494 1.396 . S
C1495 C1496 1.348 . S
C1495 C1513 1.472 . S
C1496 H1466 0.929 . S
C1496 C1495 1.348 . S
C1496 C1497 1.443 . S
C1497 H1464 0.932 1_655 S
C1497 C1492 1.388 . S
C1497 C1496 1.443 . S
C1498 N1478 1.433 . S
C1498 C1499 1.363 . S
C1498 C1503 1.370 1_655 S
C1499 H1467 0.929 . S
C1499 C1498 1.363 . S
C1499 C1500 1.385 . S
C1500 H1468 0.930 . S
C1500 C1499 1.385 . S
C1500 C1501 1.357 1_655 S
C1501 C1500 1.357 1_455 S
C1501 C1502 1.406 . S
C1502 H1469 0.929 . S
C1502 C1501 1.406 . S
C1502 C1503 1.391 . S
C1503 H1470 0.931 . S
C1503 C1498 1.370 1_455 S
C1503 C1502 1.391 . S
C1504 N1478 1.435 . S
C1504 C1505 1.358 1_655 S
C1504 C1509 1.371 . S
C1505 H1471 0.930 . S
C1505 C1504 1.358 1_455 S
C1505 C1506 1.405 . S
C1506 H1472 0.932 . S
C1506 C1505 1.405 . S
C1506 C1507 1.383 1_455 S
C1507 C1506 1.383 1_655 S
C1507 C1508 1.393 . S
C1508 H1473 0.931 . S
C1508 C1507 1.393 . S
C1508 C1509 1.382 . S
C1509 H1474 0.929 . S
C1509 C1504 1.371 . S
C1509 C1508 1.382 . S
C1510 N1478 1.423 . S
C1510 C1511 1.362 . S
C1510 C1515 1.388 . S
C1511 H1475 0.929 . S
C1511 C1510 1.362 . S
C1511 C1512 1.376 . S
C1512 H1476 0.931 . S
C1512 C1511 1.376 . S
C1512 C1513 1.396 . S
C1513 C1495 1.472 . S
C1513 C1512 1.396 . S
C1513 C1514 1.348 . S
C1514 H1477 0.929 . S
C1514 C1513 1.348 . S
C1514 C1515 1.443 . S
C1515 H1479 0.932 1_655 S
C1515 C1510 1.388 . S
C1515 C1514 1.443 . S
H1516 C1543 0.929 . S
N1517 C1542 1.433 . S
N1517 C1548 1.435 . S
N1517 C1554 1.423 . S
H1518 C1544 0.930 . S
H1519 C1547 0.931 . S
H1520 C1546 0.929 . S
H1521 C1549 0.930 . S
H1522 C1550 0.932 . S
H1523 C1553 0.929 . S
H1524 C1552 0.931 . S
H1525 C1555 0.929 . S
H1526 C1559 0.932 . S
H1527 C1556 0.931 . S
H1528 C1558 0.929 . S
H1529 C1561 0.929 . S
H1530 C1562 0.930 . S
H1531 C1564 0.929 . S
H1532 C1565 0.931 . S
H1533 C1567 0.930 . S
H1534 C1568 0.932 . S
H1535 C1570 0.931 . S
H1536 C1571 0.929 . S
H1537 C1573 0.929 . S
H1538 C1574 0.931 . S
H1539 C1576 0.929 . S
N1540 C1560 1.433 . S
N1540 C1566 1.435 . S
N1540 C1572 1.423 . S
H1541 C1577 0.932 . S
C1542 N1517 1.433 . S
C1542 C1543 1.363 . S
C1542 C1547 1.370 . S
C1543 H1516 0.929 . S
C1543 C1542 1.363 . S
C1543 C1544 1.385 . S
C1544 H1518 0.930 . S
C1544 C1543 1.385 . S
C1544 C1545 1.357 . S
C1545 C1544 1.357 . S
C1545 C1546 1.406 . S
C1546 H1520 0.929 . S
C1546 C1545 1.406 . S
C1546 C1547 1.391 . S
C1547 H1519 0.931 . S
C1547 C1542 1.370 . S
C1547 C1546 1.391 . S
C1548 N1517 1.435 . S
C1548 C1549 1.358 . S
C1548 C1553 1.371 . S
C1549 H1521 0.930 . S
C1549 C1548 1.358 . S
C1549 C1550 1.405 . S
C1550 H1522 0.932 . S
C1550 C1549 1.405 . S
C1550 C1551 1.383 . S
C1551 C1550 1.383 . S
C1551 C1552 1.393 . S
C1552 H1524 0.931 . S
C1552 C1551 1.393 . S
C1552 C1553 1.382 . S
C1553 H1523 0.929 . S
C1553 C1548 1.371 . S
C1553 C1552 1.382 . S
C1554 N1517 1.423 . S
C1554 C1555 1.362 . S
C1554 C1559 1.388 . S
C1555 H1525 0.929 . S
C1555 C1554 1.362 . S
C1555 C1556 1.376 . S
C1556 H1527 0.931 . S
C1556 C1555 1.376 . S
C1556 C1557 1.396 . S
C1557 C1556 1.396 . S
C1557 C1558 1.348 . S
C1557 C1575 1.472 . S
C1558 H1528 0.929 . S
C1558 C1557 1.348 . S
C1558 C1559 1.443 . S
C1559 H1526 0.932 . S
C1559 C1554 1.388 . S
C1559 C1558 1.443 . S
C1560 N1540 1.433 . S
C1560 C1561 1.363 . S
C1560 C1565 1.370 . S
C1561 H1529 0.929 . S
C1561 C1560 1.363 . S
C1561 C1562 1.385 . S
C1562 H1530 0.930 . S
C1562 C1561 1.385 . S
C1562 C1563 1.357 . S
C1563 C1562 1.357 . S
C1563 C1564 1.406 . S
C1564 H1531 0.929 . S
C1564 C1563 1.406 . S
C1564 C1565 1.391 . S
C1565 H1532 0.931 . S
C1565 C1560 1.370 . S
C1565 C1564 1.391 . S
C1566 N1540 1.435 . S
C1566 C1567 1.358 . S
C1566 C1571 1.371 . S
C1567 H1533 0.930 . S
C1567 C1566 1.358 . S
C1567 C1568 1.405 . S
C1568 H1534 0.932 . S
C1568 C1567 1.405 . S
C1568 C1569 1.383 . S
C1569 C1568 1.383 . S
C1569 C1570 1.393 . S
C1570 H1535 0.931 . S
C1570 C1569 1.393 . S
C1570 C1571 1.382 . S
C1571 H1536 0.929 . S
C1571 C1566 1.371 . S
C1571 C1570 1.382 . S
C1572 N1540 1.423 . S
C1572 C1573 1.362 . S
C1572 C1577 1.388 . S
C1573 H1537 0.929 . S
C1573 C1572 1.362 . S
C1573 C1574 1.376 . S
C1574 H1538 0.931 . S
C1574 C1573 1.376 . S
C1574 C1575 1.396 . S
C1575 C1557 1.472 . S
C1575 C1574 1.396 . S
C1575 C1576 1.348 . S
C1576 H1539 0.929 . S
C1576 C1575 1.348 . S
C1576 C1577 1.443 . S
C1577 H1541 0.932 . S
C1577 C1572 1.388 . S
C1577 C1576 1.443 . S
H1578 C1605 0.929 . S
N1579 C1604 1.433 . S
N1579 C1610 1.435 . S
N1579 C1616 1.423 . S
H1580 C1606 0.930 . S
H1581 C1609 0.931 . S
H1582 C1608 0.929 . S
H1583 C1611 0.930 . S
H1584 C1612 0.932 . S
H1585 C1615 0.929 . S
H1586 C1614 0.931 . S
H1587 C1617 0.929 . S
H1588 C1621 0.932 . S
H1589 C1618 0.931 . S
H1590 C1620 0.929 . S
H1591 C1623 0.929 . S
H1592 C1624 0.930 . S
H1593 C1626 0.929 . S
H1594 C1627 0.931 . S
H1595 C1629 0.930 . S
H1596 C1630 0.932 . S
H1597 C1632 0.931 . S
H1598 C1633 0.929 . S
H1599 C1635 0.929 . S
H1600 C1636 0.931 . S
H1601 C1638 0.929 . S
N1602 C1622 1.433 . S
N1602 C1628 1.435 . S
N1602 C1634 1.423 . S
H1603 C1639 0.932 . S
C1604 N1579 1.433 . S
C1604 C1605 1.363 . S
C1604 C1609 1.370 . S
C1605 H1578 0.929 . S
C1605 C1604 1.363 . S
C1605 C1606 1.385 . S
C1606 H1580 0.930 . S
C1606 C1605 1.385 . S
C1606 C1607 1.357 . S
C1607 C1606 1.357 . S
C1607 C1608 1.406 . S
C1608 H1582 0.929 . S
C1608 C1607 1.406 . S
C1608 C1609 1.391 . S
C1609 H1581 0.931 . S
C1609 C1604 1.370 . S
C1609 C1608 1.391 . S
C1610 N1579 1.435 . S
C1610 C1611 1.358 . S
C1610 C1615 1.371 . S
C1611 H1583 0.930 . S
C1611 C1610 1.358 . S
C1611 C1612 1.405 . S
C1612 H1584 0.932 . S
C1612 C1611 1.405 . S
C1612 C1613 1.383 . S
C1613 C1612 1.383 . S
C1613 C1614 1.393 . S
C1614 H1586 0.931 . S
C1614 C1613 1.393 . S
C1614 C1615 1.382 . S
C1615 H1585 0.929 . S
C1615 C1610 1.371 . S
C1615 C1614 1.382 . S
C1616 N1579 1.423 . S
C1616 C1617 1.362 . S
C1616 C1621 1.388 . S
C1617 H1587 0.929 . S
C1617 C1616 1.362 . S
C1617 C1618 1.376 . S
C1618 H1589 0.931 . S
C1618 C1617 1.376 . S
C1618 C1619 1.396 . S
C1619 C1618 1.396 . S
C1619 C1620 1.348 . S
C1619 C1637 1.472 . S
C1620 H1590 0.929 . S
C1620 C1619 1.348 . S
C1620 C1621 1.443 . S
C1621 H1588 0.932 . S
C1621 C1616 1.388 . S
C1621 C1620 1.443 . S
C1622 N1602 1.433 . S
C1622 C1623 1.363 . S
C1622 C1627 1.370 . S
C1623 H1591 0.929 . S
C1623 C1622 1.363 . S
C1623 C1624 1.385 . S
C1624 H1592 0.930 . S
C1624 C1623 1.385 . S
C1624 C1625 1.357 . S
C1625 C1624 1.357 . S
C1625 C1626 1.406 . S
C1626 H1593 0.929 . S
C1626 C1625 1.406 . S
C1626 C1627 1.391 . S
C1627 H1594 0.931 . S
C1627 C1622 1.370 . S
C1627 C1626 1.391 . S
C1628 N1602 1.435 . S
C1628 C1629 1.358 . S
C1628 C1633 1.371 . S
C1629 H1595 0.930 . S
C1629 C1628 1.358 . S
C1629 C1630 1.405 . S
C1630 H1596 0.932 . S
C1630 C1629 1.405 . S
C1630 C1631 1.383 . S
C1631 C1630 1.383 . S
C1631 C1632 1.393 . S
C1632 H1597 0.931 . S
C1632 C1631 1.393 . S
C1632 C1633 1.382 . S
C1633 H1598 0.929 . S
C1633 C1628 1.371 . S
C1633 C1632 1.382 . S
C1634 N1602 1.423 . S
C1634 C1635 1.362 . S
C1634 C1639 1.388 . S
C1635 H1599 0.929 . S
C1635 C1634 1.362 . S
C1635 C1636 1.376 . S
C1636 H1600 0.931 . S
C1636 C1635 1.376 . S
C1636 C1637 1.396 . S
C1637 C1619 1.472 . S
C1637 C1636 1.396 . S
C1637 C1638 1.348 . S
C1638 H1601 0.929 . S
C1638 C1637 1.348 . S
C1638 C1639 1.443 . S
C1639 H1603 0.932 . S
C1639 C1634 1.388 . S
C1639 C1638 1.443 . S
H1640 C1667 0.929 . S
N1641 C1666 1.433 . S
N1641 C1672 1.435 . S
N1641 C1678 1.423 . S
H1642 C1668 0.930 . S
H1643 C1671 0.931 . S
H1644 C1670 0.929 . S
H1645 C1673 0.930 . S
H1646 C1674 0.932 . S
H1647 C1677 0.929 . S
H1648 C1676 0.931 . S
H1649 C1679 0.929 . S
H1650 C1683 0.932 . S
H1651 C1680 0.931 . S
H1652 C1682 0.929 . S
H1653 C1685 0.929 . S
H1654 C1686 0.930 . S
H1655 C1688 0.929 . S
H1656 C1689 0.931 . S
H1657 C1691 0.930 . S
H1658 C1692 0.932 . S
H1659 C1694 0.931 . S
H1660 C1695 0.929 . S
H1661 C1697 0.929 . S
H1662 C1698 0.931 . S
H1663 C1700 0.929 . S
N1664 C1684 1.433 . S
N1664 C1690 1.435 . S
N1664 C1696 1.423 . S
H1665 C1701 0.932 . S
C1666 N1641 1.433 . S
C1666 C1667 1.363 . S
C1666 C1671 1.370 . S
C1667 H1640 0.929 . S
C1667 C1666 1.363 . S
C1667 C1668 1.385 . S
C1668 H1642 0.930 . S
C1668 C1667 1.385 . S
C1668 C1669 1.357 . S
C1669 C1668 1.357 . S
C1669 C1670 1.406 . S
C1670 H1644 0.929 . S
C1670 C1669 1.406 . S
C1670 C1671 1.391 . S
C1671 H1643 0.931 . S
C1671 C1666 1.370 . S
C1671 C1670 1.391 . S
C1672 N1641 1.435 . S
C1672 C1673 1.358 . S
C1672 C1677 1.371 . S
C1673 H1645 0.930 . S
C1673 C1672 1.358 . S
C1673 C1674 1.405 . S
C1674 H1646 0.932 . S
C1674 C1673 1.405 . S
C1674 C1675 1.383 . S
C1675 C1674 1.383 . S
C1675 C1676 1.393 . S
C1676 H1648 0.931 . S
C1676 C1675 1.393 . S
C1676 C1677 1.382 . S
C1677 H1647 0.929 . S
C1677 C1672 1.371 . S
C1677 C1676 1.382 . S
C1678 N1641 1.423 . S
C1678 C1679 1.362 . S
C1678 C1683 1.388 . S
C1679 H1649 0.929 . S
C1679 C1678 1.362 . S
C1679 C1680 1.376 . S
C1680 H1651 0.931 . S
C1680 C1679 1.376 . S
C1680 C1681 1.396 . S
C1681 C1680 1.396 . S
C1681 C1682 1.348 . S
C1681 C1699 1.472 . S
C1682 H1652 0.929 . S
C1682 C1681 1.348 . S
C1682 C1683 1.443 . S
C1683 H1650 0.932 . S
C1683 C1678 1.388 . S
C1683 C1682 1.443 . S
C1684 N1664 1.433 . S
C1684 C1685 1.363 . S
C1684 C1689 1.370 . S
C1685 H1653 0.929 . S
C1685 C1684 1.363 . S
C1685 C1686 1.385 . S
C1686 H1654 0.930 . S
C1686 C1685 1.385 . S
C1686 C1687 1.357 . S
C1687 C1686 1.357 . S
C1687 C1688 1.406 . S
C1688 H1655 0.929 . S
C1688 C1687 1.406 . S
C1688 C1689 1.391 . S
C1689 H1656 0.931 . S
C1689 C1684 1.370 . S
C1689 C1688 1.391 . S
C1690 N1664 1.435 . S
C1690 C1691 1.358 . S
C1690 C1695 1.371 . S
C1691 H1657 0.930 . S
C1691 C1690 1.358 . S
C1691 C1692 1.405 . S
C1692 H1658 0.932 . S
C1692 C1691 1.405 . S
C1692 C1693 1.383 . S
C1693 C1692 1.383 . S
C1693 C1694 1.393 . S
C1694 H1659 0.931 . S
C1694 C1693 1.393 . S
C1694 C1695 1.382 . S
C1695 H1660 0.929 . S
C1695 C1690 1.371 . S
C1695 C1694 1.382 . S
C1696 N1664 1.423 . S
C1696 C1697 1.362 . S
C1696 C1701 1.388 . S
C1697 H1661 0.929 . S
C1697 C1696 1.362 . S
C1697 C1698 1.376 . S
C1698 H1662 0.931 . S
C1698 C1697 1.376 . S
C1698 C1699 1.396 . S
C1699 C1681 1.472 . S
C1699 C1698 1.396 . S
C1699 C1700 1.348 . S
C1700 H1663 0.929 . S
C1700 C1699 1.348 . S
C1700 C1701 1.443 . S
C1701 H1665 0.932 . S
C1701 C1696 1.388 . S
C1701 C1700 1.443 . S
H1702 C1729 0.929 . S
N1703 C1728 1.433 . S
N1703 C1734 1.435 . S
N1703 C1740 1.423 . S
H1704 C1730 0.930 . S
H1705 C1733 0.931 . S
H1706 C1732 0.929 . S
H1707 C1735 0.930 . S
H1708 C1736 0.932 . S
H1709 C1739 0.929 . S
H1710 C1738 0.931 . S
H1711 C1741 0.929 . S
H1712 C1745 0.932 . S
H1713 C1742 0.931 . S
H1714 C1744 0.929 . S
H1715 C1747 0.929 . S
H1716 C1748 0.930 . S
H1717 C1750 0.929 . S
H1718 C1751 0.931 . S
H1719 C1753 0.930 . S
H1720 C1754 0.932 . S
H1721 C1756 0.931 . S
H1722 C1757 0.929 . S
H1723 C1759 0.929 . S
H1724 C1760 0.931 . S
H1725 C1762 0.929 . S
N1726 C1746 1.433 . S
N1726 C1752 1.435 . S
N1726 C1758 1.423 . S
H1727 C1763 0.932 . S
C1728 N1703 1.433 . S
C1728 C1729 1.363 . S
C1728 C1733 1.370 . S
C1729 H1702 0.929 . S
C1729 C1728 1.363 . S
C1729 C1730 1.385 . S
C1730 H1704 0.930 . S
C1730 C1729 1.385 . S
C1730 C1731 1.357 . S
C1731 C1730 1.357 . S
C1731 C1732 1.406 . S
C1732 H1706 0.929 . S
C1732 C1731 1.406 . S
C1732 C1733 1.391 . S
C1733 H1705 0.931 . S
C1733 C1728 1.370 . S
C1733 C1732 1.391 . S
C1734 N1703 1.435 . S
C1734 C1735 1.358 . S
C1734 C1739 1.371 . S
C1735 H1707 0.930 . S
C1735 C1734 1.358 . S
C1735 C1736 1.405 . S
C1736 H1708 0.932 . S
C1736 C1735 1.405 . S
C1736 C1737 1.383 . S
C1737 C1736 1.383 . S
C1737 C1738 1.393 . S
C1738 H1710 0.931 . S
C1738 C1737 1.393 . S
C1738 C1739 1.382 . S
C1739 H1709 0.929 . S
C1739 C1734 1.371 . S
C1739 C1738 1.382 . S
C1740 N1703 1.423 . S
C1740 C1741 1.362 . S
C1740 C1745 1.388 . S
C1741 H1711 0.929 . S
C1741 C1740 1.362 . S
C1741 C1742 1.376 . S
C1742 H1713 0.931 . S
C1742 C1741 1.376 . S
C1742 C1743 1.396 . S
C1743 C1742 1.396 . S
C1743 C1744 1.348 . S
C1743 C1761 1.472 . S
C1744 H1714 0.929 . S
C1744 C1743 1.348 . S
C1744 C1745 1.443 . S
C1745 H1712 0.932 . S
C1745 C1740 1.388 . S
C1745 C1744 1.443 . S
C1746 N1726 1.433 . S
C1746 C1747 1.363 . S
C1746 C1751 1.370 . S
C1747 H1715 0.929 . S
C1747 C1746 1.363 . S
C1747 C1748 1.385 . S
C1748 H1716 0.930 . S
C1748 C1747 1.385 . S
C1748 C1749 1.357 . S
C1749 C1748 1.357 . S
C1749 C1750 1.406 . S
C1750 H1717 0.929 . S
C1750 C1749 1.406 . S
C1750 C1751 1.391 . S
C1751 H1718 0.931 . S
C1751 C1746 1.370 . S
C1751 C1750 1.391 . S
C1752 N1726 1.435 . S
C1752 C1753 1.358 . S
C1752 C1757 1.371 . S
C1753 H1719 0.930 . S
C1753 C1752 1.358 . S
C1753 C1754 1.405 . S
C1754 H1720 0.932 . S
C1754 C1753 1.405 . S
C1754 C1755 1.383 . S
C1755 C1754 1.383 . S
C1755 C1756 1.393 . S
C1756 H1721 0.931 . S
C1756 C1755 1.393 . S
C1756 C1757 1.382 . S
C1757 H1722 0.929 . S
C1757 C1752 1.371 . S
C1757 C1756 1.382 . S
C1758 N1726 1.423 . S
C1758 C1759 1.362 . S
C1758 C1763 1.388 . S
C1759 H1723 0.929 . S
C1759 C1758 1.362 . S
C1759 C1760 1.376 . S
C1760 H1724 0.931 . S
C1760 C1759 1.376 . S
C1760 C1761 1.396 . S
C1761 C1743 1.472 . S
C1761 C1760 1.396 . S
C1761 C1762 1.348 . S
C1762 H1725 0.929 . S
C1762 C1761 1.348 . S
C1762 C1763 1.443 . S
C1763 H1727 0.932 . S
C1763 C1758 1.388 . S
C1763 C1762 1.443 . S
C1764 C1765 1.363 1_455 S
C1764 C1770 1.379 . S
C1764 N1772 1.356 . S
C1765 C1764 1.363 1_655 S
C1765 C1771 1.363 . S
C1766 C1767 1.363 . S
C1766 C1771 1.379 . S
C1766 N1773 1.356 . S
C1767 C1766 1.363 . S
C1767 C1770 1.363 1_655 S
N1768 C1770 1.356 . S
N1768 H1780 0.984 . S
N1768 H1781 0.985 . S
N1769 C1771 1.356 . S
N1769 H1774 0.984 . S
N1769 H1775 0.985 . S
C1770 C1764 1.379 . S
C1770 C1767 1.363 1_455 S
C1770 N1768 1.356 . S
C1771 C1765 1.363 . S
C1771 C1766 1.379 . S
C1771 N1769 1.356 . S
N1772 C1764 1.356 . S
N1772 H1778 0.984 . S
N1772 H1779 0.984 . S
N1773 C1766 1.356 . S
N1773 H1776 0.984 . S
N1773 H1777 0.985 . S
H1774 N1769 0.984 . S
H1775 N1769 0.985 . S
H1776 N1773 0.984 . S
H1777 N1773 0.985 . S
H1778 N1772 0.984 . S
H1779 N1772 0.984 . S
H1780 N1768 0.984 . S
H1781 N1768 0.985 . S
C1782 C1783 1.363 . S
C1782 C1788 1.379 . S
C1782 N1790 1.356 . S
C1783 C1782 1.363 . S
C1783 C1789 1.363 . S
C1784 C1785 1.363 . S
C1784 C1789 1.379 . S
C1784 N1791 1.356 . S
C1785 C1784 1.363 . S
C1785 C1788 1.363 . S
N1786 C1788 1.356 . S
N1786 H1798 0.984 . S
N1786 H1799 0.985 . S
N1787 C1789 1.356 . S
N1787 H1792 0.984 . S
N1787 H1793 0.985 . S
C1788 C1782 1.379 . S
C1788 C1785 1.363 . S
C1788 N1786 1.356 . S
C1789 C1783 1.363 . S
C1789 C1784 1.379 . S
C1789 N1787 1.356 . S
N1790 C1782 1.356 . S
N1790 H1796 0.984 . S
N1790 H1797 0.984 . S
N1791 C1784 1.356 . S
N1791 H1794 0.984 . S
N1791 H1795 0.985 . S
H1792 N1787 0.984 . S
H1793 N1787 0.985 . S
H1794 N1791 0.984 . S
H1795 N1791 0.985 . S
H1796 N1790 0.984 . S
H1797 N1790 0.984 . S
H1798 N1786 0.984 . S
H1799 N1786 0.985 . S
C1800 C1801 1.363 . S
C1800 C1806 1.379 . S
C1800 N1808 1.356 . S
C1801 C1800 1.363 . S
C1801 C1807 1.363 1_545 S
C1802 C1803 1.363 1_565 S
C1802 C1807 1.379 . S
C1802 N1809 1.356 . S
C1803 C1802 1.363 1_545 S
C1803 C1806 1.363 . S
N1804 C1806 1.356 . S
N1804 H1816 0.984 . S
N1804 H1817 0.985 . S
N1805 C1807 1.356 . S
N1805 H1810 0.984 . S
N1805 H1811 0.985 . S
C1806 C1800 1.379 . S
C1806 C1803 1.363 . S
C1806 N1804 1.356 . S
C1807 C1801 1.363 1_565 S
C1807 C1802 1.379 . S
C1807 N1805 1.356 . S
N1808 C1800 1.356 . S
N1808 H1814 0.984 . S
N1808 H1815 0.984 . S
N1809 C1802 1.356 . S
N1809 H1812 0.984 . S
N1809 H1813 0.985 . S
H1810 N1805 0.984 . S
H1811 N1805 0.985 . S
H1812 N1809 0.984 . S
H1813 N1809 0.985 . S
H1814 N1808 0.984 . S
H1815 N1808 0.984 . S
H1816 N1804 0.984 . S
H1817 N1804 0.985 . S
C1818 C1819 1.363 . S
C1818 C1824 1.379 . S
C1818 N1826 1.356 . S
C1819 C1818 1.363 . S
C1819 C1825 1.363 1_565 S
C1820 C1821 1.363 1_545 S
C1820 C1825 1.379 . S
C1820 N1827 1.356 . S
C1821 C1820 1.363 1_565 S
C1821 C1824 1.363 . S
N1822 C1824 1.356 . S
N1822 H1834 0.984 . S
N1822 H1835 0.985 . S
N1823 C1825 1.356 . S
N1823 H1828 0.984 . S
N1823 H1829 0.985 . S
C1824 C1818 1.379 . S
C1824 C1821 1.363 . S
C1824 N1822 1.356 . S
C1825 C1819 1.363 1_545 S
C1825 C1820 1.379 . S
C1825 N1823 1.356 . S
N1826 C1818 1.356 . S
N1826 H1832 0.984 . S
N1826 H1833 0.984 . S
N1827 C1820 1.356 . S
N1827 H1830 0.984 . S
N1827 H1831 0.985 . S
H1828 N1823 0.984 . S
H1829 N1823 0.985 . S
H1830 N1827 0.984 . S
H1831 N1827 0.985 . S
H1832 N1826 0.984 . S
H1833 N1826 0.984 . S
H1834 N1822 0.984 . S
H1835 N1822 0.985 . S
C1836 C1837 1.363 1_655 S
C1836 C1842 1.379 . S
C1836 N1844 1.356 . S
C1837 C1836 1.363 1_455 S
C1837 C1843 1.363 . S
C1838 C1839 1.363 . S
C1838 C1843 1.379 . S
C1838 N1845 1.356 . S
C1839 C1838 1.363 . S
C1839 C1842 1.363 1_455 S
N1840 C1842 1.356 . S
N1840 H1852 0.984 . S
N1840 H1853 0.985 . S
N1841 C1843 1.356 . S
N1841 H1846 0.984 . S
N1841 H1847 0.985 . S
C1842 C1836 1.379 . S
C1842 C1839 1.363 1_655 S
C1842 N1840 1.356 . S
C1843 C1837 1.363 . S
C1843 C1838 1.379 . S
C1843 N1841 1.356 . S
N1844 C1836 1.356 . S
N1844 H1850 0.984 . S
N1844 H1851 0.984 . S
N1845 C1838 1.356 . S
N1845 H1848 0.984 . S
N1845 H1849 0.985 . S
H1846 N1841 0.984 . S
H1847 N1841 0.985 . S
H1848 N1845 0.984 . S
H1849 N1845 0.985 . S
H1850 N1844 0.984 . S
H1851 N1844 0.984 . S
H1852 N1840 0.984 . S
H1853 N1840 0.985 . S
C1854 C1855 1.363 . S
C1854 C1860 1.379 . S
C1854 N1862 1.356 . S
C1855 C1854 1.363 . S
C1855 C1861 1.363 . S
C1856 C1857 1.363 . S
C1856 C1861 1.379 . S
C1856 N1863 1.356 . S
C1857 C1856 1.363 . S
C1857 C1860 1.363 . S
N1858 C1860 1.356 . S
N1858 H1870 0.984 . S
N1858 H1871 0.985 . S
N1859 C1861 1.356 . S
N1859 H1864 0.984 . S
N1859 H1865 0.985 . S
C1860 C1854 1.379 . S
C1860 C1857 1.363 . S
C1860 N1858 1.356 . S
C1861 C1855 1.363 . S
C1861 C1856 1.379 . S
C1861 N1859 1.356 . S
N1862 C1854 1.356 . S
N1862 H1868 0.984 . S
N1862 H1869 0.984 . S
N1863 C1856 1.356 . S
N1863 H1866 0.984 . S
N1863 H1867 0.985 . S
H1864 N1859 0.984 . S
H1865 N1859 0.985 . S
H1866 N1863 0.984 . S
H1867 N1863 0.985 . S
H1868 N1862 0.984 . S
H1869 N1862 0.984 . S
H1870 N1858 0.984 . S
H1871 N1858 0.985 . S
C1872 C1873 1.369 . S
C1872 C1878 1.387 . S
C1872 N1880 1.343 1_455 S
C1873 C1872 1.369 . S
C1873 C1879 1.363 . S
C1874 C1875 1.363 . S
C1874 C1879 1.379 . S
C1874 N1881 1.356 . S
C1875 C1874 1.363 . S
C1875 C1878 1.363 . S
N1876 C1878 1.356 1_655 S
N1876 H1888 0.984 . S
N1876 H1889 0.967 1_655 S
N1877 C1879 1.356 . S
N1877 H1882 0.984 . S
N1877 H1883 0.985 . S
C1878 C1872 1.387 . S
C1878 C1875 1.363 . S
C1878 N1876 1.356 1_455 S
C1879 C1873 1.363 . S
C1879 C1874 1.379 . S
C1879 N1877 1.356 . S
N1880 C1872 1.343 1_655 S
N1880 H1886 0.984 . S
N1880 H1887 0.984 . S
N1881 C1874 1.356 . S
N1881 H1884 0.984 . S
N1881 H1885 0.985 . S
H1882 N1877 0.984 . S
H1883 N1877 0.985 . S
H1884 N1881 0.984 . S
H1885 N1881 0.985 . S
H1886 N1880 0.984 . S
H1887 N1880 0.984 . S
H1888 N1876 0.984 . S
H1889 N1876 0.967 1_455 S
C1890 C1891 1.363 . S
C1890 C1896 1.379 . S
C1890 N1898 1.356 . S
C1891 C1890 1.363 . S
C1891 C1897 1.363 . S
C1892 C1893 1.363 . S
C1892 C1897 1.379 . S
C1892 N1899 1.356 . S
C1893 C1892 1.363 . S
C1893 C1896 1.363 . S
N1894 C1896 1.356 . S
N1894 H1906 0.984 . S
N1894 H1907 0.985 . S
N1895 C1897 1.356 . S
N1895 H1900 0.984 . S
N1895 H1901 0.985 . S
C1896 C1890 1.379 . S
C1896 C1893 1.363 . S
C1896 N1894 1.356 . S
C1897 C1891 1.363 . S
C1897 C1892 1.379 . S
C1897 N1895 1.356 . S
N1898 C1890 1.356 . S
N1898 H1904 0.984 . S
N1898 H1905 0.984 . S
N1899 C1892 1.356 . S
N1899 H1902 0.984 . S
N1899 H1903 0.985 . S
H1900 N1895 0.984 . S
H1901 N1895 0.985 . S
H1902 N1899 0.984 . S
H1903 N1899 0.985 . S
H1904 N1898 0.984 . S
H1905 N1898 0.984 . S
H1906 N1894 0.984 . S
H1907 N1894 0.985 . S
C1908 C1909 1.363 1_545 S
C1908 C1914 1.379 . S
C1908 N1916 1.356 . S
C1909 C1908 1.363 1_565 S
C1909 C1915 1.363 . S
C1910 C1911 1.363 . S
C1910 C1915 1.379 . S
C1910 N1917 1.356 . S
C1911 C1910 1.363 . S
C1911 C1914 1.363 1_565 S
N1912 C1914 1.356 . S
N1912 H1924 0.984 . S
N1912 H1925 0.985 . S
N1913 C1915 1.356 . S
N1913 H1918 0.984 . S
N1913 H1919 0.985 . S
C1914 C1908 1.379 . S
C1914 C1911 1.363 1_545 S
C1914 N1912 1.356 . S
C1915 C1909 1.363 . S
C1915 C1910 1.379 . S
C1915 N1913 1.356 . S
N1916 C1908 1.356 . S
N1916 H1922 0.984 . S
N1916 H1923 0.984 . S
N1917 C1910 1.356 . S
N1917 H1920 0.984 . S
N1917 H1921 0.985 . S
H1918 N1913 0.984 . S
H1919 N1913 0.985 . S
H1920 N1917 0.984 . S
H1921 N1917 0.985 . S
H1922 N1916 0.984 . S
H1923 N1916 0.984 . S
H1924 N1912 0.984 . S
H1925 N1912 0.985 . S
C1926 C1927 1.373 1_565 S
C1926 C1932 1.366 . S
C1926 N1934 1.378 . S
C1927 C1926 1.373 1_545 S
C1927 C1933 1.363 . S
C1928 C1929 1.363 . S
C1928 C1933 1.379 . S
C1928 N1935 1.356 . S
C1929 C1928 1.363 . S
C1929 C1932 1.356 1_545 S
N1930 C1932 1.350 . S
N1930 H1942 0.984 . S
N1930 H1943 0.985 . S
N1931 C1933 1.356 . S
N1931 H1936 0.984 . S
N1931 H1937 0.985 . S
C1932 C1926 1.366 . S
C1932 C1929 1.356 1_565 S
C1932 N1930 1.350 . S
C1933 C1927 1.363 . S
C1933 C1928 1.379 . S
C1933 N1931 1.356 . S
N1934 C1926 1.378 . S
N1934 H1940 0.984 . S
N1934 H1941 0.984 . S
N1935 C1928 1.356 . S
N1935 H1938 0.984 . S
N1935 H1939 0.985 . S
H1936 N1931 0.984 . S
H1937 N1931 0.985 . S
H1938 N1935 0.984 . S
H1939 N1935 0.985 . S
H1940 N1934 0.984 . S
H1941 N1934 0.984 . S
H1942 N1930 0.984 . S
H1943 N1930 0.985 . S
C1944 C1945 1.363 . S
C1944 C1950 1.379 . S
C1944 N1952 1.356 . S
C1945 C1944 1.363 . S
C1945 C1951 1.363 1_655 S
C1946 C1947 1.363 1_455 S
C1946 C1951 1.379 . S
C1946 N1953 1.356 . S
C1947 C1946 1.363 1_655 S
C1947 C1950 1.363 . S
N1948 C1950 1.356 . S
N1948 H1960 0.984 . S
N1948 H1961 0.985 . S
N1949 C1951 1.356 . S
N1949 H1954 0.984 . S
N1949 H1955 0.985 . S
C1950 C1944 1.379 . S
C1950 C1947 1.363 . S
C1950 N1948 1.356 . S
C1951 C1945 1.363 1_455 S
C1951 C1946 1.379 . S
C1951 N1949 1.356 . S
N1952 C1944 1.356 . S
N1952 H1958 0.984 . S
N1952 H1959 0.984 . S
N1953 C1946 1.356 . S
N1953 H1956 0.984 . S
N1953 H1957 0.985 . S
H1954 N1949 0.984 . S
H1955 N1949 0.985 . S
H1956 N1953 0.984 . S
H1957 N1953 0.985 . S
H1958 N1952 0.984 . S
H1959 N1952 0.984 . S
H1960 N1948 0.984 . S
H1961 N1948 0.985 . S
C1962 C1963 1.363 . S
C1962 C1968 1.379 . S
C1962 N1970 1.356 . S
C1963 C1962 1.363 . S
C1963 C1969 1.363 . S
C1964 C1965 1.363 . S
C1964 C1969 1.379 . S
C1964 N1971 1.356 . S
C1965 C1964 1.363 . S
C1965 C1968 1.363 . S
N1966 C1968 1.356 . S
N1966 H1978 0.984 . S
N1966 H1979 0.985 . S
N1967 C1969 1.356 . S
N1967 H1972 0.984 . S
N1967 H1973 0.985 . S
C1968 C1962 1.379 . S
C1968 C1965 1.363 . S
C1968 N1966 1.356 . S
C1969 C1963 1.363 . S
C1969 C1964 1.379 . S
C1969 N1967 1.356 . S
N1970 C1962 1.356 . S
N1970 H1976 0.984 . S
N1970 H1977 0.984 . S
N1971 C1964 1.356 . S
N1971 H1974 0.984 . S
N1971 H1975 0.985 . S
H1972 N1967 0.984 . S
H1973 N1967 0.985 . S
H1974 N1971 0.984 . S
H1975 N1971 0.985 . S
H1976 N1970 0.984 . S
H1977 N1970 0.984 . S
H1978 N1966 0.984 . S
H1979 N1966 0.985 . S
C1980 C1981 1.363 . S
C1980 C1986 1.379 . S
C1980 N1988 1.356 . S
C1981 C1980 1.363 . S
C1981 C1987 1.363 . S
C1982 C1983 1.363 . S
C1982 C1987 1.379 . S
C1982 N1989 1.356 . S
C1983 C1982 1.363 . S
C1983 C1986 1.363 . S
N1984 C1986 1.356 . S
N1984 H1996 0.984 . S
N1984 H1997 0.985 . S
N1985 C1987 1.356 . S
N1985 H1990 0.984 . S
N1985 H1991 0.985 . S
C1986 C1980 1.379 . S
C1986 C1983 1.363 . S
C1986 N1984 1.356 . S
C1987 C1981 1.363 . S
C1987 C1982 1.379 . S
C1987 N1985 1.356 . S
N1988 C1980 1.356 . S
N1988 H1994 0.984 . S
N1988 H1995 0.984 . S
N1989 C1982 1.356 . S
N1989 H1992 0.984 . S
N1989 H1993 0.985 . S
H1990 N1985 0.984 . S
H1991 N1985 0.985 . S
H1992 N1989 0.984 . S
H1993 N1989 0.985 . S
H1994 N1988 0.984 . S
H1995 N1988 0.984 . S
H1996 N1984 0.984 . S
H1997 N1984 0.985 . S
C1998 C1999 1.363 . S
C1998 C2004 1.379 . S
C1998 N2006 1.356 . S
C1999 C1998 1.363 . S
C1999 C2005 1.363 . S
C2000 C2001 1.363 . S
C2000 C2005 1.379 . S
C2000 N2007 1.356 . S
C2001 C2000 1.363 . S
C2001 C2004 1.363 . S
N2002 C2004 1.356 . S
N2002 H2014 0.984 . S
N2002 H2015 0.985 . S
N2003 C2005 1.356 . S
N2003 H2008 0.984 . S
N2003 H2009 0.985 . S
C2004 C1998 1.379 . S
C2004 C2001 1.363 . S
C2004 N2002 1.356 . S
C2005 C1999 1.363 . S
C2005 C2000 1.379 . S
C2005 N2003 1.356 . S
N2006 C1998 1.356 . S
N2006 H2012 0.984 . S
N2006 H2013 0.984 . S
N2007 C2000 1.356 . S
N2007 H2010 0.984 . S
N2007 H2011 0.985 . S
H2008 N2003 0.984 . S
H2009 N2003 0.985 . S
H2010 N2007 0.984 . S
H2011 N2007 0.985 . S
H2012 N2006 0.984 . S
H2013 N2006 0.984 . S
H2014 N2002 0.984 . S
H2015 N2002 0.985 . S
C2016 C2017 1.363 . S
C2016 C2022 1.379 . S
C2016 N2024 1.356 . S
C2017 C2016 1.363 . S
C2017 C2023 1.363 . S
C2018 C2019 1.363 . S
C2018 C2023 1.379 . S
C2018 N2025 1.356 . S
C2019 C2018 1.363 . S
C2019 C2022 1.363 . S
N2020 C2022 1.356 . S
N2020 H2032 0.984 . S
N2020 H2033 0.985 . S
N2021 C2023 1.356 . S
N2021 H2026 0.984 . S
N2021 H2027 0.985 . S
C2022 C2016 1.379 . S
C2022 C2019 1.363 . S
C2022 N2020 1.356 . S
C2023 C2017 1.363 . S
C2023 C2018 1.379 . S
C2023 N2021 1.356 . S
N2024 C2016 1.356 . S
N2024 H2030 0.984 . S
N2024 H2031 0.984 . S
N2025 C2018 1.356 . S
N2025 H2028 0.984 . S
N2025 H2029 0.985 . S
H2026 N2021 0.984 . S
H2027 N2021 0.985 . S
H2028 N2025 0.984 . S
H2029 N2025 0.985 . S
H2030 N2024 0.984 . S
H2031 N2024 0.984 . S
H2032 N2020 0.984 . S
H2033 N2020 0.985 . S
C2034 C2035 1.363 . S
C2034 C2040 1.379 . S
C2034 N2042 1.356 . S
C2035 C2034 1.363 . S
C2035 C2041 1.363 . S
C2036 C2037 1.363 . S
C2036 C2041 1.379 . S
C2036 N2043 1.356 . S
C2037 C2036 1.363 . S
C2037 C2040 1.363 . S
N2038 C2040 1.356 . S
N2038 H2050 0.984 . S
N2038 H2051 0.985 . S
N2039 C2041 1.356 . S
N2039 H2044 0.984 . S
N2039 H2045 0.985 . S
C2040 C2034 1.379 . S
C2040 C2037 1.363 . S
C2040 N2038 1.356 . S
C2041 C2035 1.363 . S
C2041 C2036 1.379 . S
C2041 N2039 1.356 . S
N2042 C2034 1.356 . S
N2042 H2048 0.984 . S
N2042 H2049 0.984 . S
N2043 C2036 1.356 . S
N2043 H2046 0.984 . S
N2043 H2047 0.985 . S
H2044 N2039 0.984 . S
H2045 N2039 0.985 . S
H2046 N2043 0.984 . S
H2047 N2043 0.985 . S
H2048 N2042 0.984 . S
H2049 N2042 0.984 . S
H2050 N2038 0.984 . S
H2051 N2038 0.985 . S
C2052 C2053 1.363 . S
C2052 C2058 1.379 . S
C2052 N2060 1.356 . S
C2053 C2052 1.363 . S
C2053 C2059 1.363 . S
C2054 C2055 1.363 . S
C2054 C2059 1.379 . S
C2054 N2061 1.356 . S
C2055 C2054 1.363 . S
C2055 C2058 1.363 . S
N2056 C2058 1.356 . S
N2056 H2068 0.984 . S
N2056 H2069 0.985 . S
N2057 C2059 1.356 . S
N2057 H2062 0.984 . S
N2057 H2063 0.985 . S
C2058 C2052 1.379 . S
C2058 C2055 1.363 . S
C2058 N2056 1.356 . S
C2059 C2053 1.363 . S
C2059 C2054 1.379 . S
C2059 N2057 1.356 . S
N2060 C2052 1.356 . S
N2060 H2066 0.984 . S
N2060 H2067 0.984 . S
N2061 C2054 1.356 . S
N2061 H2064 0.984 . S
N2061 H2065 0.985 . S
H2062 N2057 0.984 . S
H2063 N2057 0.985 . S
H2064 N2061 0.984 . S
H2065 N2061 0.985 . S
H2066 N2060 0.984 . S
H2067 N2060 0.984 . S
H2068 N2056 0.984 . S
H2069 N2056 0.985 . S
C2070 C2071 1.363 . S
C2070 C2076 1.379 . S
C2070 N2078 1.356 . S
C2071 C2070 1.363 . S
C2071 C2077 1.363 . S
C2072 C2073 1.363 . S
C2072 C2077 1.379 . S
C2072 N2079 1.356 . S
C2073 C2072 1.363 . S
C2073 C2076 1.363 . S
N2074 C2076 1.356 . S
N2074 H2086 0.984 . S
N2074 H2087 0.985 . S
N2075 C2077 1.356 . S
N2075 H2080 0.984 . S
N2075 H2081 0.985 . S
C2076 C2070 1.379 . S
C2076 C2073 1.363 . S
C2076 N2074 1.356 . S
C2077 C2071 1.363 . S
C2077 C2072 1.379 . S
C2077 N2075 1.356 . S
N2078 C2070 1.356 . S
N2078 H2084 0.984 . S
N2078 H2085 0.984 . S
N2079 C2072 1.356 . S
N2079 H2082 0.984 . S
N2079 H2083 0.985 . S
H2080 N2075 0.984 . S
H2081 N2075 0.985 . S
H2082 N2079 0.984 . S
H2083 N2079 0.985 . S
H2084 N2078 0.984 . S
H2085 N2078 0.984 . S
H2086 N2074 0.984 . S
H2087 N2074 0.985 . S
C2088 C2089 1.363 . S
C2088 C2094 1.379 . S
C2088 N2096 1.356 . S
C2089 C2088 1.363 . S
C2089 C2095 1.363 . S
C2090 C2091 1.363 . S
C2090 C2095 1.379 . S
C2090 N2097 1.356 . S
C2091 C2090 1.363 . S
C2091 C2094 1.363 . S
N2092 C2094 1.356 . S
N2092 H2104 0.984 . S
N2092 H2105 0.985 . S
N2093 C2095 1.356 . S
N2093 H2098 0.984 . S
N2093 H2099 0.985 . S
C2094 C2088 1.379 . S
C2094 C2091 1.363 . S
C2094 N2092 1.356 . S
C2095 C2089 1.363 . S
C2095 C2090 1.379 . S
C2095 N2093 1.356 . S
N2096 C2088 1.356 . S
N2096 H2102 0.984 . S
N2096 H2103 0.984 . S
N2097 C2090 1.356 . S
N2097 H2100 0.984 . S
N2097 H2101 0.985 . S
H2098 N2093 0.984 . S
H2099 N2093 0.985 . S
H2100 N2097 0.984 . S
H2101 N2097 0.985 . S
H2102 N2096 0.984 . S
H2103 N2096 0.984 . S
H2104 N2092 0.984 . S
H2105 N2092 0.985 . S
C2106 C2107 1.363 . S
C2106 C2112 1.379 . S
C2106 N2114 1.356 . S
C2107 C2106 1.363 . S
C2107 C2113 1.363 . S
C2108 C2109 1.363 . S
C2108 C2113 1.379 . S
C2108 N2115 1.356 . S
C2109 C2108 1.363 . S
C2109 C2112 1.363 . S
N2110 C2112 1.356 . S
N2110 H2122 0.984 . S
N2110 H2123 0.985 . S
N2111 C2113 1.356 . S
N2111 H2116 0.984 . S
N2111 H2117 0.985 . S
C2112 C2106 1.379 . S
C2112 C2109 1.363 . S
C2112 N2110 1.356 . S
C2113 C2107 1.363 . S
C2113 C2108 1.379 . S
C2113 N2111 1.356 . S
N2114 C2106 1.356 . S
N2114 H2120 0.984 . S
N2114 H2121 0.984 . S
N2115 C2108 1.356 . S
N2115 H2118 0.984 . S
N2115 H2119 0.985 . S
H2116 N2111 0.984 . S
H2117 N2111 0.985 . S
H2118 N2115 0.984 . S
H2119 N2115 0.985 . S
H2120 N2114 0.984 . S
H2121 N2114 0.984 . S
H2122 N2110 0.984 . S
H2123 N2110 0.985 . S
C2124 C2125 1.363 . S
C2124 C2130 1.379 . S
C2124 N2132 1.356 . S
C2125 C2124 1.363 . S
C2125 C2131 1.363 . S
C2126 C2127 1.363 . S
C2126 C2131 1.379 . S
C2126 N2133 1.356 . S
C2127 C2126 1.363 . S
C2127 C2130 1.363 . S
N2128 C2130 1.356 . S
N2128 H2140 0.984 . S
N2128 H2141 0.985 . S
N2129 C2131 1.356 . S
N2129 H2134 0.984 . S
N2129 H2135 0.985 . S
C2130 C2124 1.379 . S
C2130 C2127 1.363 . S
C2130 N2128 1.356 . S
C2131 C2125 1.363 . S
C2131 C2126 1.379 . S
C2131 N2129 1.356 . S
N2132 C2124 1.356 . S
N2132 H2138 0.984 . S
N2132 H2139 0.984 . S
N2133 C2126 1.356 . S
N2133 H2136 0.984 . S
N2133 H2137 0.985 . S
H2134 N2129 0.984 . S
H2135 N2129 0.985 . S
H2136 N2133 0.984 . S
H2137 N2133 0.985 . S
H2138 N2132 0.984 . S
H2139 N2132 0.984 . S
H2140 N2128 0.984 . S
H2141 N2128 0.985 . S
C2142 C2143 1.363 . S
C2142 C2148 1.379 . S
C2142 N2150 1.356 . S
C2143 C2142 1.363 . S
C2143 C2149 1.363 . S
C2144 C2145 1.363 . S
C2144 C2149 1.379 . S
C2144 N2151 1.356 . S
C2145 C2144 1.363 . S
C2145 C2148 1.363 . S
N2146 C2148 1.356 . S
N2146 H2158 0.984 . S
N2146 H2159 0.985 . S
N2147 C2149 1.356 . S
N2147 H2152 0.984 . S
N2147 H2153 0.985 . S
C2148 C2142 1.379 . S
C2148 C2145 1.363 . S
C2148 N2146 1.356 . S
C2149 C2143 1.363 . S
C2149 C2144 1.379 . S
C2149 N2147 1.356 . S
N2150 C2142 1.356 . S
N2150 H2156 0.984 . S
N2150 H2157 0.984 . S
N2151 C2144 1.356 . S
N2151 H2154 0.984 . S
N2151 H2155 0.985 . S
H2152 N2147 0.984 . S
H2153 N2147 0.985 . S
H2154 N2151 0.984 . S
H2155 N2151 0.985 . S
H2156 N2150 0.984 . S
H2157 N2150 0.984 . S
H2158 N2146 0.984 . S
H2159 N2146 0.985 . S
C2160 C2161 1.363 . S
C2160 C2166 1.379 . S
C2160 N2168 1.356 . S
C2161 C2160 1.363 . S
C2161 C2167 1.363 . S
C2162 C2163 1.363 . S
C2162 C2167 1.379 . S
C2162 N2169 1.356 . S
C2163 C2162 1.363 . S
C2163 C2166 1.363 . S
N2164 C2166 1.356 . S
N2164 H2176 0.984 . S
N2164 H2177 0.985 . S
N2165 C2167 1.356 . S
N2165 H2170 0.984 . S
N2165 H2171 0.985 . S
C2166 C2160 1.379 . S
C2166 C2163 1.363 . S
C2166 N2164 1.356 . S
C2167 C2161 1.363 . S
C2167 C2162 1.379 . S
C2167 N2165 1.356 . S
N2168 C2160 1.356 . S
N2168 H2174 0.984 . S
N2168 H2175 0.984 . S
N2169 C2162 1.356 . S
N2169 H2172 0.984 . S
N2169 H2173 0.985 . S
H2170 N2165 0.984 . S
H2171 N2165 0.985 . S
H2172 N2169 0.984 . S
H2173 N2169 0.985 . S
H2174 N2168 0.984 . S
H2175 N2168 0.984 . S
H2176 N2164 0.984 . S
H2177 N2164 0.985 . S
C2178 C2179 1.363 . S
C2178 C2184 1.379 . S
C2178 N2186 1.356 . S
C2179 C2178 1.363 . S
C2179 C2185 1.363 . S
C2180 C2181 1.363 . S
C2180 C2185 1.379 . S
C2180 N2187 1.356 . S
C2181 C2180 1.363 . S
C2181 C2184 1.363 . S
N2182 C2184 1.356 . S
N2182 H2194 0.984 . S
N2182 H2195 0.985 . S
N2183 C2185 1.356 . S
N2183 H2188 0.984 . S
N2183 H2189 0.985 . S
C2184 C2178 1.379 . S
C2184 C2181 1.363 . S
C2184 N2182 1.356 . S
C2185 C2179 1.363 . S
C2185 C2180 1.379 . S
C2185 N2183 1.356 . S
N2186 C2178 1.356 . S
N2186 H2192 0.984 . S
N2186 H2193 0.984 . S
N2187 C2180 1.356 . S
N2187 H2190 0.984 . S
N2187 H2191 0.985 . S
H2188 N2183 0.984 . S
H2189 N2183 0.985 . S
H2190 N2187 0.984 . S
H2191 N2187 0.985 . S
H2192 N2186 0.984 . S
H2193 N2186 0.984 . S
H2194 N2182 0.984 . S
H2195 N2182 0.985 . S
C2196 C2197 1.363 . S
C2196 C2202 1.379 . S
C2196 N2204 1.356 . S
C2197 C2196 1.363 . S
C2197 C2203 1.363 . S
C2198 C2199 1.363 . S
C2198 C2203 1.379 . S
C2198 N2205 1.356 . S
C2199 C2198 1.363 . S
C2199 C2202 1.363 . S
N2200 C2202 1.356 . S
N2200 H2212 0.984 . S
N2200 H2213 0.985 . S
N2201 C2203 1.356 . S
N2201 H2206 0.984 . S
N2201 H2207 0.985 . S
C2202 C2196 1.379 . S
C2202 C2199 1.363 . S
C2202 N2200 1.356 . S
C2203 C2197 1.363 . S
C2203 C2198 1.379 . S
C2203 N2201 1.356 . S
N2204 C2196 1.356 . S
N2204 H2210 0.984 . S
N2204 H2211 0.984 . S
N2205 C2198 1.356 . S
N2205 H2208 0.984 . S
N2205 H2209 0.985 . S
H2206 N2201 0.984 . S
H2207 N2201 0.985 . S
H2208 N2205 0.984 . S
H2209 N2205 0.985 . S
H2210 N2204 0.984 . S
H2211 N2204 0.984 . S
H2212 N2200 0.984 . S
H2213 N2200 0.985 . S
C2214 C2215 1.363 . S
C2214 C2220 1.379 . S
C2214 N2222 1.356 . S
C2215 C2214 1.363 . S
C2215 C2221 1.363 . S
C2216 C2217 1.363 . S
C2216 C2221 1.379 . S
C2216 N2223 1.356 . S
C2217 C2216 1.363 . S
C2217 C2220 1.363 . S
N2218 C2220 1.356 . S
N2218 H2230 0.984 . S
N2218 H2231 0.985 . S
N2219 C2221 1.356 . S
N2219 H2224 0.984 . S
N2219 H2225 0.985 . S
C2220 C2214 1.379 . S
C2220 C2217 1.363 . S
C2220 N2218 1.356 . S
C2221 C2215 1.363 . S
C2221 C2216 1.379 . S
C2221 N2219 1.356 . S
N2222 C2214 1.356 . S
N2222 H2228 0.984 . S
N2222 H2229 0.984 . S
N2223 C2216 1.356 . S
N2223 H2226 0.984 . S
N2223 H2227 0.985 . S
H2224 N2219 0.984 . S
H2225 N2219 0.985 . S
H2226 N2223 0.984 . S
H2227 N2223 0.985 . S
H2228 N2222 0.984 . S
H2229 N2222 0.984 . S
H2230 N2218 0.984 . S
H2231 N2218 0.985 . S
C2232 C2233 1.363 . S
C2232 C2238 1.379 . S
C2232 N2240 1.356 . S
C2233 C2232 1.363 . S
C2233 C2239 1.363 . S
C2234 C2235 1.363 . S
C2234 C2239 1.379 . S
C2234 N2241 1.356 . S
C2235 C2234 1.363 . S
C2235 C2238 1.363 . S
N2236 C2238 1.356 . S
N2236 H2248 0.984 . S
N2236 H2249 0.985 . S
N2237 C2239 1.356 . S
N2237 H2242 0.984 . S
N2237 H2243 0.985 . S
C2238 C2232 1.379 . S
C2238 C2235 1.363 . S
C2238 N2236 1.356 . S
C2239 C2233 1.363 . S
C2239 C2234 1.379 . S
C2239 N2237 1.356 . S
N2240 C2232 1.356 . S
N2240 H2246 0.984 . S
N2240 H2247 0.984 . S
N2241 C2234 1.356 . S
N2241 H2244 0.984 . S
N2241 H2245 0.985 . S
H2242 N2237 0.984 . S
H2243 N2237 0.985 . S
H2244 N2241 0.984 . S
H2245 N2241 0.985 . S
H2246 N2240 0.984 . S
H2247 N2240 0.984 . S
H2248 N2236 0.984 . S
H2249 N2236 0.985 . S
C2250 C2251 1.363 . S
C2250 C2256 1.379 . S
C2250 N2258 1.356 . S
C2251 C2250 1.363 . S
C2251 C2257 1.363 . S
C2252 C2253 1.363 . S
C2252 C2257 1.379 . S
C2252 N2259 1.356 . S
C2253 C2252 1.363 . S
C2253 C2256 1.363 . S
N2254 C2256 1.356 . S
N2254 H2266 0.984 . S
N2254 H2267 0.985 . S
N2255 C2257 1.356 . S
N2255 H2260 0.984 . S
N2255 H2261 0.985 . S
C2256 C2250 1.379 . S
C2256 C2253 1.363 . S
C2256 N2254 1.356 . S
C2257 C2251 1.363 . S
C2257 C2252 1.379 . S
C2257 N2255 1.356 . S
N2258 C2250 1.356 . S
N2258 H2264 0.984 . S
N2258 H2265 0.984 . S
N2259 C2252 1.356 . S
N2259 H2262 0.984 . S
N2259 H2263 0.985 . S
H2260 N2255 0.984 . S
H2261 N2255 0.985 . S
H2262 N2259 0.984 . S
H2263 N2259 0.985 . S
H2264 N2258 0.984 . S
H2265 N2258 0.984 . S
H2266 N2254 0.984 . S
H2267 N2254 0.985 . S
C2268 C2269 1.363 . S
C2268 C2274 1.379 . S
C2268 N2276 1.356 . S
C2269 C2268 1.363 . S
C2269 C2275 1.363 . S
C2270 C2271 1.363 . S
C2270 C2275 1.379 . S
C2270 N2277 1.356 . S
C2271 C2270 1.363 . S
C2271 C2274 1.363 . S
N2272 C2274 1.356 . S
N2272 H2284 0.984 . S
N2272 H2285 0.985 . S
N2273 C2275 1.356 . S
N2273 H2278 0.984 . S
N2273 H2279 0.985 . S
C2274 C2268 1.379 . S
C2274 C2271 1.363 . S
C2274 N2272 1.356 . S
C2275 C2269 1.363 . S
C2275 C2270 1.379 . S
C2275 N2273 1.356 . S
N2276 C2268 1.356 . S
N2276 H2282 0.984 . S
N2276 H2283 0.984 . S
N2277 C2270 1.356 . S
N2277 H2280 0.984 . S
N2277 H2281 0.985 . S
H2278 N2273 0.984 . S
H2279 N2273 0.985 . S
H2280 N2277 0.984 . S
H2281 N2277 0.985 . S
H2282 N2276 0.984 . S
H2283 N2276 0.984 . S
H2284 N2272 0.984 . S
H2285 N2272 0.985 . S
C2286 C2287 1.363 . S
C2286 C2292 1.379 . S
C2286 N2294 1.356 . S
C2287 C2286 1.363 . S
C2287 C2293 1.363 . S
C2288 C2289 1.363 . S
C2288 C2293 1.379 . S
C2288 N2295 1.356 . S
C2289 C2288 1.363 . S
C2289 C2292 1.363 . S
N2290 C2292 1.356 . S
N2290 H2302 0.984 . S
N2290 H2303 0.985 . S
N2291 C2293 1.356 . S
N2291 H2296 0.984 . S
N2291 H2297 0.985 . S
C2292 C2286 1.379 . S
C2292 C2289 1.363 . S
C2292 N2290 1.356 . S
C2293 C2287 1.363 . S
C2293 C2288 1.379 . S
C2293 N2291 1.356 . S
N2294 C2286 1.356 . S
N2294 H2300 0.984 . S
N2294 H2301 0.984 . S
N2295 C2288 1.356 . S
N2295 H2298 0.984 . S
N2295 H2299 0.985 . S
H2296 N2291 0.984 . S
H2297 N2291 0.985 . S
H2298 N2295 0.984 . S
H2299 N2295 0.985 . S
H2300 N2294 0.984 . S
H2301 N2294 0.984 . S
H2302 N2290 0.984 . S
H2303 N2290 0.985 . S
C2304 C2305 1.363 . S
C2304 C2310 1.379 . S
C2304 N2312 1.356 . S
C2305 C2304 1.363 . S
C2305 C2311 1.363 . S
C2306 C2307 1.363 . S
C2306 C2311 1.379 . S
C2306 N2313 1.356 . S
C2307 C2306 1.363 . S
C2307 C2310 1.363 . S
N2308 C2310 1.356 . S
N2308 H2320 0.984 . S
N2308 H2321 0.985 . S
N2309 C2311 1.356 . S
N2309 H2314 0.984 . S
N2309 H2315 0.985 . S
C2310 C2304 1.379 . S
C2310 C2307 1.363 . S
C2310 N2308 1.356 . S
C2311 C2305 1.363 . S
C2311 C2306 1.379 . S
C2311 N2309 1.356 . S
N2312 C2304 1.356 . S
N2312 H2318 0.984 . S
N2312 H2319 0.984 . S
N2313 C2306 1.356 . S
N2313 H2316 0.984 . S
N2313 H2317 0.985 . S
H2314 N2309 0.984 . S
H2315 N2309 0.985 . S
H2316 N2313 0.984 . S
H2317 N2313 0.985 . S
H2318 N2312 0.984 . S
H2319 N2312 0.984 . S
H2320 N2308 0.984 . S
H2321 N2308 0.985 . S
C2322 C2323 1.363 . S
C2322 C2328 1.379 . S
C2322 N2330 1.356 . S
C2323 C2322 1.363 . S
C2323 C2329 1.363 . S
C2324 C2325 1.363 . S
C2324 C2329 1.379 . S
C2324 N2331 1.356 . S
C2325 C2324 1.363 . S
C2325 C2328 1.363 . S
N2326 C2328 1.356 . S
N2326 H2338 0.984 . S
N2326 H2339 0.985 . S
N2327 C2329 1.356 . S
N2327 H2332 0.984 . S
N2327 H2333 0.985 . S
C2328 C2322 1.379 . S
C2328 C2325 1.363 . S
C2328 N2326 1.356 . S
C2329 C2323 1.363 . S
C2329 C2324 1.379 . S
C2329 N2327 1.356 . S
N2330 C2322 1.356 . S
N2330 H2336 0.984 . S
N2330 H2337 0.984 . S
N2331 C2324 1.356 . S
N2331 H2334 0.984 . S
N2331 H2335 0.985 . S
H2332 N2327 0.984 . S
H2333 N2327 0.985 . S
H2334 N2331 0.984 . S
H2335 N2331 0.985 . S
H2336 N2330 0.984 . S
H2337 N2330 0.984 . S
H2338 N2326 0.984 . S
H2339 N2326 0.985 . S
C2340 C2341 1.363 . S
C2340 C2346 1.379 . S
C2340 N2348 1.356 . S
C2341 C2340 1.363 . S
C2341 C2347 1.363 . S
C2342 C2343 1.363 . S
C2342 C2347 1.379 . S
C2342 N2349 1.356 . S
C2343 C2342 1.363 . S
C2343 C2346 1.363 . S
N2344 C2346 1.356 . S
N2344 H2356 0.984 . S
N2344 H2357 0.985 . S
N2345 C2347 1.356 . S
N2345 H2350 0.984 . S
N2345 H2351 0.985 . S
C2346 C2340 1.379 . S
C2346 C2343 1.363 . S
C2346 N2344 1.356 . S
C2347 C2341 1.363 . S
C2347 C2342 1.379 . S
C2347 N2345 1.356 . S
N2348 C2340 1.356 . S
N2348 H2354 0.984 . S
N2348 H2355 0.984 . S
N2349 C2342 1.356 . S
N2349 H2352 0.984 . S
N2349 H2353 0.985 . S
H2350 N2345 0.984 . S
H2351 N2345 0.985 . S
H2352 N2349 0.984 . S
H2353 N2349 0.985 . S
H2354 N2348 0.984 . S
H2355 N2348 0.984 . S
H2356 N2344 0.984 . S
H2357 N2344 0.985 . S
C2358 C2359 1.363 . S
C2358 C2364 1.379 . S
C2358 N2366 1.356 . S
C2359 C2358 1.363 . S
C2359 C2365 1.363 . S
C2360 C2361 1.363 . S
C2360 C2365 1.379 . S
C2360 N2367 1.356 . S
C2361 C2360 1.363 . S
C2361 C2364 1.363 . S
N2362 C2364 1.356 . S
N2362 H2374 0.984 . S
N2362 H2375 0.985 . S
N2363 C2365 1.356 . S
N2363 H2368 0.984 . S
N2363 H2369 0.985 . S
C2364 C2358 1.379 . S
C2364 C2361 1.363 . S
C2364 N2362 1.356 . S
C2365 C2359 1.363 . S
C2365 C2360 1.379 . S
C2365 N2363 1.356 . S
N2366 C2358 1.356 . S
N2366 H2372 0.984 . S
N2366 H2373 0.984 . S
N2367 C2360 1.356 . S
N2367 H2370 0.984 . S
N2367 H2371 0.985 . S
H2368 N2363 0.984 . S
H2369 N2363 0.985 . S
H2370 N2367 0.984 . S
H2371 N2367 0.985 . S
H2372 N2366 0.984 . S
H2373 N2366 0.984 . S
H2374 N2362 0.984 . S
H2375 N2362 0.985 . S
C2376 C2377 1.363 . S
C2376 C2382 1.379 . S
C2376 N2384 1.356 . S
C2377 C2376 1.363 . S
C2377 C2383 1.363 . S
C2378 C2379 1.363 . S
C2378 C2383 1.379 . S
C2378 N2385 1.356 . S
C2379 C2378 1.363 . S
C2379 C2382 1.363 . S
N2380 C2382 1.356 . S
N2380 H2392 0.984 . S
N2380 H2393 0.985 . S
N2381 C2383 1.356 . S
N2381 H2386 0.984 . S
N2381 H2387 0.985 . S
C2382 C2376 1.379 . S
C2382 C2379 1.363 . S
C2382 N2380 1.356 . S
C2383 C2377 1.363 . S
C2383 C2378 1.379 . S
C2383 N2381 1.356 . S
N2384 C2376 1.356 . S
N2384 H2390 0.984 . S
N2384 H2391 0.984 . S
N2385 C2378 1.356 . S
N2385 H2388 0.984 . S
N2385 H2389 0.985 . S
H2386 N2381 0.984 . S
H2387 N2381 0.985 . S
H2388 N2385 0.984 . S
H2389 N2385 0.985 . S
H2390 N2384 0.984 . S
H2391 N2384 0.984 . S
H2392 N2380 0.984 . S
H2393 N2380 0.985 . S
C2394 C2395 1.363 . S
C2394 C2400 1.379 . S
C2394 N2402 1.356 . S
C2395 C2394 1.363 . S
C2395 C2401 1.363 . S
C2396 C2397 1.363 . S
C2396 C2401 1.379 . S
C2396 N2403 1.356 . S
C2397 C2396 1.363 . S
C2397 C2400 1.363 . S
N2398 C2400 1.356 . S
N2398 H2410 0.984 . S
N2398 H2411 0.985 . S
N2399 C2401 1.356 . S
N2399 H2404 0.984 . S
N2399 H2405 0.985 . S
C2400 C2394 1.379 . S
C2400 C2397 1.363 . S
C2400 N2398 1.356 . S
C2401 C2395 1.363 . S
C2401 C2396 1.379 . S
C2401 N2399 1.356 . S
N2402 C2394 1.356 . S
N2402 H2408 0.984 . S
N2402 H2409 0.984 . S
N2403 C2396 1.356 . S
N2403 H2406 0.984 . S
N2403 H2407 0.985 . S
H2404 N2399 0.984 . S
H2405 N2399 0.985 . S
H2406 N2403 0.984 . S
H2407 N2403 0.985 . S
H2408 N2402 0.984 . S
H2409 N2402 0.984 . S
H2410 N2398 0.984 . S
H2411 N2398 0.985 . S
C2412 C2413 1.363 . S
C2412 C2418 1.379 . S
C2412 N2420 1.356 . S
C2413 C2412 1.363 . S
C2413 C2419 1.363 . S
C2414 C2415 1.363 . S
C2414 C2419 1.379 . S
C2414 N2421 1.356 . S
C2415 C2414 1.363 . S
C2415 C2418 1.363 . S
N2416 C2418 1.356 . S
N2416 H2428 0.984 . S
N2416 H2429 0.985 . S
N2417 C2419 1.356 . S
N2417 H2422 0.984 . S
N2417 H2423 0.985 . S
C2418 C2412 1.379 . S
C2418 C2415 1.363 . S
C2418 N2416 1.356 . S
C2419 C2413 1.363 . S
C2419 C2414 1.379 . S
C2419 N2417 1.356 . S
N2420 C2412 1.356 . S
N2420 H2426 0.984 . S
N2420 H2427 0.984 . S
N2421 C2414 1.356 . S
N2421 H2424 0.984 . S
N2421 H2425 0.985 . S
H2422 N2417 0.984 . S
H2423 N2417 0.985 . S
H2424 N2421 0.984 . S
H2425 N2421 0.985 . S
H2426 N2420 0.984 . S
H2427 N2420 0.984 . S
H2428 N2416 0.984 . S
H2429 N2416 0.985 . S
C2430 C2431 1.363 . S
C2430 C2436 1.379 . S
C2430 N2438 1.356 . S
C2431 C2430 1.363 . S
C2431 C2437 1.363 . S
C2432 C2433 1.363 . S
C2432 C2437 1.379 . S
C2432 N2439 1.356 . S
C2433 C2432 1.363 . S
C2433 C2436 1.363 . S
N2434 C2436 1.356 . S
N2434 H2446 0.984 . S
N2434 H2447 0.985 . S
N2435 C2437 1.356 . S
N2435 H2440 0.984 . S
N2435 H2441 0.985 . S
C2436 C2430 1.379 . S
C2436 C2433 1.363 . S
C2436 N2434 1.356 . S
C2437 C2431 1.363 . S
C2437 C2432 1.379 . S
C2437 N2435 1.356 . S
N2438 C2430 1.356 . S
N2438 H2444 1.005 . S
N2438 H2445 0.984 . S
N2439 C2432 1.356 . S
N2439 H2442 0.984 . S
N2439 H2443 0.985 . S
H2440 N2435 0.984 . S
H2441 N2435 0.985 . S
H2442 N2439 0.984 . S
H2443 N2439 0.985 . S
H2444 N2438 1.005 . S
H2445 N2438 0.984 . S
H2446 N2434 0.984 . S
H2447 N2434 0.985 . S
C2448 C2449 1.363 . S
C2448 C2454 1.379 . S
C2448 N2456 1.356 . S
C2449 C2448 1.363 . S
C2449 C2455 1.363 . S
C2450 C2451 1.363 . S
C2450 C2455 1.379 . S
C2450 N2457 1.356 . S
C2451 C2450 1.363 . S
C2451 C2454 1.363 . S
N2452 C2454 1.356 . S
N2452 H2464 0.984 . S
N2452 H2465 0.985 . S
N2453 C2455 1.356 . S
N2453 H2458 0.984 . S
N2453 H2459 0.985 . S
C2454 C2448 1.379 . S
C2454 C2451 1.363 . S
C2454 N2452 1.356 . S
C2455 C2449 1.363 . S
C2455 C2450 1.379 . S
C2455 N2453 1.356 . S
N2456 C2448 1.356 . S
N2456 H2462 0.984 . S
N2456 H2463 0.984 . S
N2457 C2450 1.356 . S
N2457 H2460 0.984 . S
N2457 H2461 0.985 . S
H2458 N2453 0.984 . S
H2459 N2453 0.985 . S
H2460 N2457 0.984 . S
H2461 N2457 0.985 . S
H2462 N2456 0.984 . S
H2463 N2456 0.984 . S
H2464 N2452 0.984 . S
H2465 N2452 0.985 . S
C2466 C2467 1.363 . S
C2466 C2472 1.379 . S
C2466 N2474 1.356 . S
C2467 C2466 1.363 . S
C2467 C2473 1.363 1_556 S
C2468 C2469 1.363 . S
C2468 C2473 1.379 1_556 S
C2468 N2475 1.356 1_556 S
C2469 C2468 1.363 . S
C2469 C2472 1.363 . S
N2470 C2472 1.356 . S
N2470 H2482 0.984 . S
N2470 H2483 0.985 . S
N2471 C2473 1.356 . S
N2471 H2476 0.984 . S
N2471 H2477 0.985 . S
C2472 C2466 1.379 . S
C2472 C2469 1.363 . S
C2472 N2470 1.356 . S
C2473 C2467 1.363 1_554 S
C2473 C2468 1.379 1_554 S
C2473 N2471 1.356 . S
N2474 C2466 1.356 . S
N2474 H2480 0.984 . S
N2474 H2481 0.984 . S
N2475 C2468 1.356 1_554 S
N2475 H2478 0.984 . S
N2475 H2479 0.985 . S
H2476 N2471 0.984 . S
H2477 N2471 0.985 . S
H2478 N2475 0.984 . S
H2479 N2475 0.985 . S
H2480 N2474 0.984 . S
H2481 N2474 0.984 . S
H2482 N2470 0.984 . S
H2483 N2470 0.985 . S
C2484 C2485 1.363 . S
C2484 C2490 1.379 . S
C2484 N2492 1.356 . S
C2485 C2484 1.363 . S
C2485 C2491 1.363 . S
C2486 C2487 1.363 . S
C2486 C2491 1.379 . S
C2486 N2493 1.356 1_556 S
C2487 C2486 1.363 . S
C2487 C2490 1.363 . S
N2488 C2490 1.356 . S
N2488 H2500 0.984 . S
N2488 H2501 0.985 . S
N2489 C2491 1.356 1_554 S
N2489 H2494 0.984 . S
N2489 H2495 0.985 . S
C2490 C2484 1.379 . S
C2490 C2487 1.363 . S
C2490 N2488 1.356 . S
C2491 C2485 1.363 . S
C2491 C2486 1.379 . S
C2491 N2489 1.356 1_556 S
N2492 C2484 1.356 . S
N2492 H2498 0.984 . S
N2492 H2499 0.984 . S
N2493 C2486 1.356 1_554 S
N2493 H2496 0.984 1_554 S
N2493 H2497 0.985 . S
H2494 N2489 0.984 . S
H2495 N2489 0.985 . S
H2496 N2493 0.984 1_556 S
H2497 N2493 0.985 . S
H2498 N2492 0.984 . S
H2499 N2492 0.984 . S
H2500 N2488 0.984 . S
H2501 N2488 0.985 . S
C2502 C2503 1.356 1_554 S
C2502 C2508 1.376 1_554 S
C2502 N2510 1.366 . S
C2503 C2502 1.356 1_556 S
C2503 C2509 1.363 . S
C2504 C2505 1.363 . S
C2504 C2509 1.379 . S
C2504 N2511 1.356 . S
C2505 C2504 1.363 . S
C2505 C2508 1.363 . S
N2506 C2508 1.356 1_554 S
N2506 H2518 0.984 . S
N2506 H2519 0.985 1_554 S
N2507 C2509 1.356 . S
N2507 H2512 0.984 . S
N2507 H2513 0.985 . S
C2508 C2502 1.376 1_556 S
C2508 C2505 1.363 . S
C2508 N2506 1.356 1_556 S
C2509 C2503 1.363 . S
C2509 C2504 1.379 . S
C2509 N2507 1.356 . S
N2510 C2502 1.366 . S
N2510 H2516 0.984 . S
N2510 H2517 0.984 . S
N2511 C2504 1.356 . S
N2511 H2514 0.984 . S
N2511 H2515 0.985 . S
H2512 N2507 0.984 . S
H2513 N2507 0.985 . S
H2514 N2511 0.984 . S
H2515 N2511 0.985 . S
H2516 N2510 0.984 . S
H2517 N2510 0.984 . S
H2518 N2506 0.984 . S
H2519 N2506 0.985 1_556 S
C2520 C2521 1.363 . S
C2520 C2526 1.379 . S
C2520 N2528 1.356 . S
C2521 C2520 1.363 . S
C2521 C2527 1.363 1_556 S
C2522 C2523 1.363 . S
C2522 C2527 1.379 1_556 S
C2522 N2529 1.356 1_556 S
C2523 C2522 1.363 . S
C2523 C2526 1.363 . S
N2524 C2526 1.356 . S
N2524 H2536 0.984 . S
N2524 H2537 0.985 . S
N2525 C2527 1.356 . S
N2525 H2530 0.984 . S
N2525 H2531 0.985 . S
C2526 C2520 1.379 . S
C2526 C2523 1.363 . S
C2526 N2524 1.356 . S
C2527 C2521 1.363 1_554 S
C2527 C2522 1.379 1_554 S
C2527 N2525 1.356 . S
N2528 C2520 1.356 . S
N2528 H2534 0.984 . S
N2528 H2535 0.984 . S
N2529 C2522 1.356 1_554 S
N2529 H2532 0.984 1_554 S
N2529 H2533 0.985 . S
H2530 N2525 0.984 . S
H2531 N2525 0.985 . S
H2532 N2529 0.984 1_556 S
H2533 N2529 0.985 . S
H2534 N2528 0.984 . S
H2535 N2528 0.984 . S
H2536 N2524 0.984 . S
H2537 N2524 0.985 . S
C2538 C2539 1.360 1_554 S
C2538 C2544 1.378 1_554 S
C2538 N2546 1.360 . S
C2539 C2538 1.360 1_556 S
C2539 C2545 1.363 . S
C2540 C2541 1.363 . S
C2540 C2545 1.379 . S
C2540 N2547 1.356 . S
C2541 C2540 1.363 . S
C2541 C2544 1.363 . S
N2542 C2544 1.356 1_554 S
N2542 H2554 0.984 . S
N2542 H2555 0.985 1_554 S
N2543 C2545 1.356 . S
N2543 H2548 0.984 . S
N2543 H2549 0.985 . S
C2544 C2538 1.378 1_556 S
C2544 C2541 1.363 . S
C2544 N2542 1.356 1_556 S
C2545 C2539 1.363 . S
C2545 C2540 1.379 . S
C2545 N2543 1.356 . S
N2546 C2538 1.360 . S
N2546 H2552 0.984 . S
N2546 H2553 0.984 . S
N2547 C2540 1.356 . S
N2547 H2550 0.984 . S
N2547 H2551 0.985 . S
H2548 N2543 0.984 . S
H2549 N2543 0.985 . S
H2550 N2547 0.984 . S
H2551 N2547 0.985 . S
H2552 N2546 0.984 . S
H2553 N2546 0.984 . S
H2554 N2542 0.984 . S
H2555 N2542 0.985 1_556 S
C2556 C2557 1.363 . S
C2556 C2562 1.379 . S
C2556 N2564 1.356 . S
C2557 C2556 1.363 . S
C2557 C2563 1.363 . S
C2558 C2559 1.363 . S
C2558 C2563 1.379 . S
C2558 N2565 1.356 . S
C2559 C2558 1.363 . S
C2559 C2562 1.363 . S
N2560 C2562 1.356 . S
N2560 H2572 0.984 . S
N2560 H2573 0.985 . S
N2561 C2563 1.356 1_554 S
N2561 H2566 0.984 . S
N2561 H2567 0.985 . S
C2562 C2556 1.379 . S
C2562 C2559 1.363 . S
C2562 N2560 1.356 . S
C2563 C2557 1.363 . S
C2563 C2558 1.379 . S
C2563 N2561 1.356 1_556 S
N2564 C2556 1.356 . S
N2564 H2570 0.984 . S
N2564 H2571 0.984 . S
N2565 C2558 1.356 . S
N2565 H2568 0.984 . S
N2565 H2569 0.985 1_556 S
H2566 N2561 0.984 . S
H2567 N2561 0.985 . S
H2568 N2565 0.984 . S
H2569 N2565 0.985 1_554 S
H2570 N2564 0.984 . S
H2571 N2564 0.984 . S
H2572 N2560 0.984 . S
H2573 N2560 0.985 . S
C2574 C2575 1.363 . S
C2574 C2580 1.379 . S
C2574 N2582 1.356 . S
C2575 C2574 1.363 . S
C2575 C2581 1.363 . S
C2576 C2577 1.363 . S
C2576 C2581 1.379 . S
C2576 N2583 1.356 . S
C2577 C2576 1.363 . S
C2577 C2580 1.363 . S
N2578 C2580 1.356 . S
N2578 H2590 0.984 . S
N2578 H2591 0.985 . S
N2579 C2581 1.356 . S
N2579 H2584 0.984 . S
N2579 H2585 0.985 . S
C2580 C2574 1.379 . S
C2580 C2577 1.363 . S
C2580 N2578 1.356 . S
C2581 C2575 1.363 . S
C2581 C2576 1.379 . S
C2581 N2579 1.356 . S
N2582 C2574 1.356 . S
N2582 H2588 0.984 . S
N2582 H2589 0.984 . S
N2583 C2576 1.356 . S
N2583 H2586 0.984 . S
N2583 H2587 0.985 . S
H2584 N2579 0.984 . S
H2585 N2579 0.985 . S
H2586 N2583 0.984 . S
H2587 N2583 0.985 . S
H2588 N2582 0.984 . S
H2589 N2582 0.984 . S
H2590 N2578 0.984 . S
H2591 N2578 0.985 . S
C2592 C2593 1.363 . S
C2592 C2598 1.379 . S
C2592 N2600 1.356 . S
C2593 C2592 1.363 . S
C2593 C2599 1.363 . S
C2594 C2595 1.363 . S
C2594 C2599 1.379 . S
C2594 N2601 1.356 . S
C2595 C2594 1.363 . S
C2595 C2598 1.363 . S
N2596 C2598 1.356 . S
N2596 H2608 0.984 . S
N2596 H2609 0.985 . S
N2597 C2599 1.378 . S
N2597 H2602 0.986 . S
N2597 H2603 0.962 1_554 S
C2598 C2592 1.379 . S
C2598 C2595 1.363 . S
C2598 N2596 1.356 . S
C2599 C2593 1.363 . S
C2599 C2594 1.379 . S
C2599 N2597 1.378 . S
N2600 C2592 1.356 . S
N2600 H2606 0.984 . S
N2600 H2607 0.984 . S
N2601 C2594 1.356 . S
N2601 H2604 0.984 . S
N2601 H2605 0.948 1_554 S
H2602 N2597 0.986 . S
H2603 N2597 0.962 1_556 S
H2604 N2601 0.984 . S
H2605 N2601 0.948 1_556 S
H2606 N2600 0.984 . S
H2607 N2600 0.984 . S
H2608 N2596 0.984 . S
H2609 N2596 0.985 . S
C2610 C2611 1.363 . S
C2610 C2616 1.379 . S
C2610 N2618 1.356 . S
C2611 C2610 1.363 . S
C2611 C2617 1.363 . S
C2612 C2613 1.363 . S
C2612 C2617 1.379 . S
C2612 N2619 1.356 . S
C2613 C2612 1.363 . S
C2613 C2616 1.363 . S
N2614 C2616 1.356 . S
N2614 H2626 0.969 1_554 S
N2614 H2627 0.985 . S
N2615 C2617 1.356 . S
N2615 H2620 0.984 . S
N2615 H2621 0.985 . S
C2616 C2610 1.379 . S
C2616 C2613 1.363 . S
C2616 N2614 1.356 . S
C2617 C2611 1.363 . S
C2617 C2612 1.379 . S
C2617 N2615 1.356 . S
N2618 C2610 1.356 . S
N2618 H2624 0.984 1_554 S
N2618 H2625 0.984 . S
N2619 C2612 1.356 . S
N2619 H2622 0.984 . S
N2619 H2623 0.985 . S
H2620 N2615 0.984 . S
H2621 N2615 0.985 . S
H2622 N2619 0.984 . S
H2623 N2619 0.985 . S
H2624 N2618 0.984 1_556 S
H2625 N2618 0.984 . S
H2626 N2614 0.969 1_556 S
H2627 N2614 0.985 . S
C2628 C2629 1.363 . S
C2628 C2634 1.379 . S
C2628 N2636 1.356 . S
C2629 C2628 1.363 . S
C2629 C2635 1.363 . S
C2630 C2631 1.363 . S
C2630 C2635 1.379 . S
C2630 N2637 1.356 . S
C2631 C2630 1.363 . S
C2631 C2634 1.363 . S
N2632 C2634 1.356 . S
N2632 H2644 0.984 . S
N2632 H2645 0.985 . S
N2633 C2635 1.356 . S
N2633 H2638 0.984 . S
N2633 H2639 0.985 . S
C2634 C2628 1.379 . S
C2634 C2631 1.363 . S
C2634 N2632 1.356 . S
C2635 C2629 1.363 . S
C2635 C2630 1.379 . S
C2635 N2633 1.356 . S
N2636 C2628 1.356 . S
N2636 H2642 0.984 . S
N2636 H2643 0.984 . S
N2637 C2630 1.356 . S
N2637 H2640 0.984 . S
N2637 H2641 0.985 . S
H2638 N2633 0.984 . S
H2639 N2633 0.985 . S
H2640 N2637 0.984 . S
H2641 N2637 0.985 . S
H2642 N2636 0.984 . S
H2643 N2636 0.984 . S
H2644 N2632 0.984 . S
H2645 N2632 0.985 . S
C2646 C2647 1.363 . S
C2646 C2652 1.379 . S
C2646 N2654 1.356 . S
C2647 C2646 1.363 . S
C2647 C2653 1.363 . S
C2648 C2649 1.363 . S
C2648 C2653 1.379 . S
C2648 N2655 1.356 . S
C2649 C2648 1.363 . S
C2649 C2652 1.363 . S
N2650 C2652 1.356 . S
N2650 H2662 0.984 . S
N2650 H2663 0.985 . S
N2651 C2653 1.356 . S
N2651 H2656 0.984 . S
N2651 H2657 0.985 . S
C2652 C2646 1.379 . S
C2652 C2649 1.363 . S
C2652 N2650 1.356 . S
C2653 C2647 1.363 . S
C2653 C2648 1.379 . S
C2653 N2651 1.356 . S
N2654 C2646 1.356 . S
N2654 H2660 0.984 . S
N2654 H2661 0.984 . S
N2655 C2648 1.356 . S
N2655 H2658 0.984 . S
N2655 H2659 0.985 . S
H2656 N2651 0.984 . S
H2657 N2651 0.985 . S
H2658 N2655 0.984 . S
H2659 N2655 0.985 . S
H2660 N2654 0.984 . S
H2661 N2654 0.984 . S
H2662 N2650 0.984 . S
H2663 N2650 0.985 . S
C2664 C2665 1.363 . S
C2664 C2670 1.379 . S
C2664 N2672 1.356 . S
C2665 C2664 1.363 . S
C2665 C2671 1.363 . S
C2666 C2667 1.363 . S
C2666 C2671 1.379 . S
C2666 N2673 1.356 . S
C2667 C2666 1.363 . S
C2667 C2670 1.363 . S
N2668 C2670 1.356 . S
N2668 H2680 0.984 . S
N2668 H2681 0.985 . S
N2669 C2671 1.356 . S
N2669 H2674 0.984 . S
N2669 H2675 0.985 . S
C2670 C2664 1.379 . S
C2670 C2667 1.363 . S
C2670 N2668 1.356 . S
C2671 C2665 1.363 . S
C2671 C2666 1.379 . S
C2671 N2669 1.356 . S
N2672 C2664 1.356 . S
N2672 H2678 0.984 . S
N2672 H2679 0.984 . S
N2673 C2666 1.356 . S
N2673 H2676 0.984 . S
N2673 H2677 0.985 . S
H2674 N2669 0.984 . S
H2675 N2669 0.985 . S
H2676 N2673 0.984 . S
H2677 N2673 0.985 . S
H2678 N2672 0.984 . S
H2679 N2672 0.984 . S
H2680 N2668 0.984 . S
H2681 N2668 0.985 . S
C2682 C2683 1.363 1_655 S
C2682 C2688 1.379 . S
C2682 N2690 1.356 . S
C2683 C2682 1.363 1_455 S
C2683 C2689 1.363 . S
C2684 C2685 1.363 . S
C2684 C2689 1.379 . S
C2684 N2691 1.356 . S
C2685 C2684 1.363 . S
C2685 C2688 1.363 1_455 S
N2686 C2688 1.356 . S
N2686 H2698 0.984 . S
N2686 H2699 0.985 . S
N2687 C2689 1.356 . S
N2687 H2692 0.984 . S
N2687 H2693 0.985 . S
C2688 C2682 1.379 . S
C2688 C2685 1.363 1_655 S
C2688 N2686 1.356 . S
C2689 C2683 1.363 . S
C2689 C2684 1.379 . S
C2689 N2687 1.356 . S
N2690 C2682 1.356 . S
N2690 H2696 0.984 . S
N2690 H2697 0.984 . S
N2691 C2684 1.356 . S
N2691 H2694 0.984 . S
N2691 H2695 0.985 . S
H2692 N2687 0.984 . S
H2693 N2687 0.985 . S
H2694 N2691 0.984 . S
H2695 N2691 0.985 . S
H2696 N2690 0.984 . S
H2697 N2690 0.984 . S
H2698 N2686 0.984 . S
H2699 N2686 0.985 . S
C2700 C2701 1.363 . S
C2700 C2706 1.379 . S
C2700 N2708 1.356 . S
C2701 C2700 1.363 . S
C2701 C2707 1.363 . S
C2702 C2703 1.363 . S
C2702 C2707 1.379 . S
C2702 N2709 1.356 . S
C2703 C2702 1.363 . S
C2703 C2706 1.363 . S
N2704 C2706 1.356 . S
N2704 H2716 0.984 . S
N2704 H2717 0.985 . S
N2705 C2707 1.356 . S
N2705 H2710 0.984 . S
N2705 H2711 0.985 . S
C2706 C2700 1.379 . S
C2706 C2703 1.363 . S
C2706 N2704 1.356 . S
C2707 C2701 1.363 . S
C2707 C2702 1.379 . S
C2707 N2705 1.356 . S
N2708 C2700 1.356 . S
N2708 H2714 0.984 . S
N2708 H2715 0.984 . S
N2709 C2702 1.356 . S
N2709 H2712 0.984 . S
N2709 H2713 0.985 . S
H2710 N2705 0.984 . S
H2711 N2705 0.985 . S
H2712 N2709 0.984 . S
H2713 N2709 0.985 . S
H2714 N2708 0.984 . S
H2715 N2708 0.984 . S
H2716 N2704 0.984 . S
H2717 N2704 0.985 . S
C2718 C2719 1.363 . S
C2718 C2724 1.399 1_565 S
C2718 N2726 1.356 1_565 S
C2719 C2718 1.363 . S
C2719 C2725 1.363 . S
C2720 C2721 1.363 . S
C2720 C2725 1.379 . S
C2720 N2727 1.356 . S
C2721 C2720 1.363 . S
C2721 C2724 1.306 1_565 S
N2722 C2724 1.381 . S
N2722 H2734 0.984 . S
N2722 H2735 0.985 . S
N2723 C2725 1.356 . S
N2723 H2728 0.984 . S
N2723 H2729 0.985 . S
C2724 C2718 1.399 1_545 S
C2724 C2721 1.306 1_545 S
C2724 N2722 1.381 . S
C2725 C2719 1.363 . S
C2725 C2720 1.379 . S
C2725 N2723 1.356 . S
N2726 C2718 1.356 1_545 S
N2726 H2732 0.984 . S
N2726 H2733 0.984 1_545 S
N2727 C2720 1.356 . S
N2727 H2730 0.984 . S
N2727 H2731 0.985 . S
H2728 N2723 0.984 . S
H2729 N2723 0.985 . S
H2730 N2727 0.984 . S
H2731 N2727 0.985 . S
H2732 N2726 0.984 . S
H2733 N2726 0.984 1_565 S
H2734 N2722 0.984 . S
H2735 N2722 0.985 . S
C2736 C2737 1.363 . S
C2736 C2742 1.379 . S
C2736 N2744 1.356 . S
C2737 C2736 1.363 . S
C2737 C2743 1.363 . S
C2738 C2739 1.363 . S
C2738 C2743 1.379 . S
C2738 N2745 1.356 . S
C2739 C2738 1.363 . S
C2739 C2742 1.363 . S
N2740 C2742 1.356 . S
N2740 H2752 0.984 . S
N2740 H2753 0.985 . S
N2741 C2743 1.356 . S
N2741 H2746 0.984 . S
N2741 H2747 0.985 . S
C2742 C2736 1.379 . S
C2742 C2739 1.363 . S
C2742 N2740 1.356 . S
C2743 C2737 1.363 . S
C2743 C2738 1.379 . S
C2743 N2741 1.356 . S
N2744 C2736 1.356 . S
N2744 H2750 0.984 . S
N2744 H2751 0.984 . S
N2745 C2738 1.356 . S
N2745 H2748 0.992 . S
N2745 H2749 0.984 1_565 S
H2746 N2741 0.984 . S
H2747 N2741 0.985 . S
H2748 N2745 0.992 . S
H2749 N2745 0.984 1_545 S
H2750 N2744 0.984 . S
H2751 N2744 0.984 . S
H2752 N2740 0.984 . S
H2753 N2740 0.985 . S
C2754 C2755 1.363 . S
C2754 C2760 1.379 . S
C2754 N2762 1.356 . S
C2755 C2754 1.363 . S
C2755 C2761 1.363 . S
C2756 C2757 1.363 . S
C2756 C2761 1.379 . S
C2756 N2763 1.356 1_455 S
C2757 C2756 1.363 . S
C2757 C2760 1.363 . S
N2758 C2760 1.356 . S
N2758 H2770 0.984 . S
N2758 H2771 0.985 . S
N2759 C2761 1.356 . S
N2759 H2764 0.984 . S
N2759 H2765 0.985 1_455 S
C2760 C2754 1.379 . S
C2760 C2757 1.363 . S
C2760 N2758 1.356 . S
C2761 C2755 1.363 . S
C2761 C2756 1.379 . S
C2761 N2759 1.356 . S
N2762 C2754 1.356 . S
N2762 H2768 0.984 . S
N2762 H2769 0.984 . S
N2763 C2756 1.356 1_655 S
N2763 H2766 0.984 . S
N2763 H2767 0.985 . S
H2764 N2759 0.984 . S
H2765 N2759 0.985 1_655 S
H2766 N2763 0.984 . S
H2767 N2763 0.985 . S
H2768 N2762 0.984 . S
H2769 N2762 0.984 . S
H2770 N2758 0.984 . S
H2771 N2758 0.985 . S
C2772 C2773 1.363 . S
C2772 C2778 1.379 . S
C2772 N2780 1.356 . S
C2773 C2772 1.363 . S
C2773 C2779 1.363 . S
C2774 C2775 1.363 . S
C2774 C2779 1.379 . S
C2774 N2781 1.356 . S
C2775 C2774 1.363 . S
C2775 C2778 1.363 . S
N2776 C2778 1.356 . S
N2776 H2788 0.984 . S
N2776 H2789 0.985 . S
N2777 C2779 1.356 . S
N2777 H2782 0.984 . S
N2777 H2783 0.985 . S
C2778 C2772 1.379 . S
C2778 C2775 1.363 . S
C2778 N2776 1.356 . S
C2779 C2773 1.363 . S
C2779 C2774 1.379 . S
C2779 N2777 1.356 . S
N2780 C2772 1.356 . S
N2780 H2786 0.984 . S
N2780 H2787 0.984 . S
N2781 C2774 1.356 . S
N2781 H2784 0.984 . S
N2781 H2785 0.985 . S
H2782 N2777 0.984 . S
H2783 N2777 0.985 . S
H2784 N2781 0.984 . S
H2785 N2781 0.985 . S
H2786 N2780 0.984 . S
H2787 N2780 0.984 . S
H2788 N2776 0.984 . S
H2789 N2776 0.985 . S
C2790 C2791 1.363 . S
C2790 C2796 1.379 . S
C2790 N2798 1.356 . S
C2791 C2790 1.363 . S
C2791 C2797 1.363 . S
C2792 C2793 1.363 . S
C2792 C2797 1.379 . S
C2792 N2799 1.356 . S
C2793 C2792 1.363 . S
C2793 C2796 1.363 . S
N2794 C2796 1.356 . S
N2794 H2806 0.984 . S
N2794 H2807 0.985 . S
N2795 C2797 1.356 . S
N2795 H2800 0.984 . S
N2795 H2801 0.985 . S
C2796 C2790 1.379 . S
C2796 C2793 1.363 . S
C2796 N2794 1.356 . S
C2797 C2791 1.363 . S
C2797 C2792 1.379 . S
C2797 N2795 1.356 . S
N2798 C2790 1.356 . S
N2798 H2804 0.984 . S
N2798 H2805 0.984 . S
N2799 C2792 1.356 . S
N2799 H2802 0.984 . S
N2799 H2803 0.985 . S
H2800 N2795 0.984 . S
H2801 N2795 0.985 . S
H2802 N2799 0.984 . S
H2803 N2799 0.985 . S
H2804 N2798 0.984 . S
H2805 N2798 0.984 . S
H2806 N2794 0.984 . S
H2807 N2794 0.985 . S
C2808 C2809 1.363 . S
C2808 C2814 1.379 . S
C2808 N2816 1.356 . S
C2809 C2808 1.363 . S
C2809 C2815 1.363 . S
C2810 C2811 1.363 . S
C2810 C2815 1.379 . S
C2810 N2817 1.356 . S
C2811 C2810 1.363 . S
C2811 C2814 1.363 . S
N2812 C2814 1.356 . S
N2812 H2824 0.984 . S
N2812 H2825 0.985 . S
N2813 C2815 1.356 . S
N2813 H2818 0.984 . S
N2813 H2819 0.985 . S
C2814 C2808 1.379 . S
C2814 C2811 1.363 . S
C2814 N2812 1.356 . S
C2815 C2809 1.363 . S
C2815 C2810 1.379 . S
C2815 N2813 1.356 . S
N2816 C2808 1.356 . S
N2816 H2822 0.984 . S
N2816 H2823 0.984 . S
N2817 C2810 1.356 . S
N2817 H2820 0.984 . S
N2817 H2821 0.985 . S
H2818 N2813 0.984 . S
H2819 N2813 0.985 . S
H2820 N2817 0.984 . S
H2821 N2817 0.985 . S
H2822 N2816 0.984 . S
H2823 N2816 0.984 . S
H2824 N2812 0.984 . S
H2825 N2812 0.985 . S
C2826 C2827 1.363 . S
C2826 C2832 1.379 . S
C2826 N2834 1.356 . S
C2827 C2826 1.363 . S
C2827 C2833 1.363 . S
C2828 C2829 1.363 . S
C2828 C2833 1.379 . S
C2828 N2835 1.356 . S
C2829 C2828 1.363 . S
C2829 C2832 1.363 . S
N2830 C2832 1.356 . S
N2830 H2842 0.984 . S
N2830 H2843 0.985 . S
N2831 C2833 1.356 . S
N2831 H2836 0.984 . S
N2831 H2837 0.985 . S
C2832 C2826 1.379 . S
C2832 C2829 1.363 . S
C2832 N2830 1.356 . S
C2833 C2827 1.363 . S
C2833 C2828 1.379 . S
C2833 N2831 1.356 . S
N2834 C2826 1.356 . S
N2834 H2840 0.984 . S
N2834 H2841 0.984 . S
N2835 C2828 1.356 . S
N2835 H2838 0.984 . S
N2835 H2839 0.985 . S
H2836 N2831 0.984 . S
H2837 N2831 0.985 . S
H2838 N2835 0.984 . S
H2839 N2835 0.985 . S
H2840 N2834 0.984 . S
H2841 N2834 0.984 . S
H2842 N2830 0.984 . S
H2843 N2830 0.985 . S
C2844 C2845 1.363 . S
C2844 C2850 1.379 . S
C2844 N2852 1.356 . S
C2845 C2844 1.363 . S
C2845 C2851 1.363 . S
C2846 C2847 1.363 . S
C2846 C2851 1.379 . S
C2846 N2853 1.356 . S
C2847 C2846 1.363 . S
C2847 C2850 1.363 . S
N2848 C2850 1.356 1_565 S
N2848 H2860 0.984 . S
N2848 H2861 0.985 . S
N2849 C2851 1.356 . S
N2849 H2854 0.984 . S
N2849 H2855 0.985 . S
C2850 C2844 1.379 . S
C2850 C2847 1.363 . S
C2850 N2848 1.356 1_545 S
C2851 C2845 1.363 . S
C2851 C2846 1.379 . S
C2851 N2849 1.356 . S
N2852 C2844 1.356 . S
N2852 H2858 0.999 . S
N2852 H2859 0.984 . S
N2853 C2846 1.356 . S
N2853 H2856 0.984 . S
N2853 H2857 0.985 . S
H2854 N2849 0.984 . S
H2855 N2849 0.985 . S
H2856 N2853 0.984 . S
H2857 N2853 0.985 . S
H2858 N2852 0.999 . S
H2859 N2852 0.984 . S
H2860 N2848 0.984 . S
H2861 N2848 0.985 . S
C2862 C2863 1.363 . S
C2862 C2868 1.378 . S
C2862 N2870 1.356 1_655 S
C2863 C2862 1.363 . S
C2863 C2869 1.363 . S
C2864 C2865 1.363 . S
C2864 C2869 1.379 . S
C2864 N2871 1.356 . S
C2865 C2864 1.363 . S
C2865 C2868 1.366 . S
N2866 C2868 1.355 1_455 S
N2866 H2878 0.984 . S
N2866 H2879 0.985 . S
N2867 C2869 1.356 . S
N2867 H2872 0.984 . S
N2867 H2873 0.985 . S
C2868 C2862 1.378 . S
C2868 C2865 1.366 . S
C2868 N2866 1.355 1_655 S
C2869 C2863 1.363 . S
C2869 C2864 1.379 . S
C2869 N2867 1.356 . S
N2870 C2862 1.356 1_455 S
N2870 H2876 0.984 . S
N2870 H2877 0.984 1_455 S
N2871 C2864 1.356 . S
N2871 H2874 0.984 . S
N2871 H2875 0.985 . S
H2872 N2867 0.984 . S
H2873 N2867 0.985 . S
H2874 N2871 0.984 . S
H2875 N2871 0.985 . S
H2876 N2870 0.984 . S
H2877 N2870 0.984 1_655 S
H2878 N2866 0.984 . S
H2879 N2866 0.985 . S
C2880 C2881 1.363 . S
C2880 C2886 1.379 . S
C2880 N2888 1.356 . S
C2881 C2880 1.363 . S
C2881 C2887 1.363 . S
C2882 C2883 1.363 . S
C2882 C2887 1.379 . S
C2882 N2889 1.356 . S
C2883 C2882 1.363 . S
C2883 C2886 1.363 . S
N2884 C2886 1.356 . S
N2884 H2896 0.984 . S
N2884 H2897 0.985 . S
N2885 C2887 1.356 . S
N2885 H2890 0.984 . S
N2885 H2891 0.985 . S
C2886 C2880 1.379 . S
C2886 C2883 1.363 . S
C2886 N2884 1.356 . S
C2887 C2881 1.363 . S
C2887 C2882 1.379 . S
C2887 N2885 1.356 . S
N2888 C2880 1.356 . S
N2888 H2894 0.984 . S
N2888 H2895 0.984 . S
N2889 C2882 1.356 . S
N2889 H2892 0.984 . S
N2889 H2893 0.985 . S
H2890 N2885 0.984 . S
H2891 N2885 0.985 . S
H2892 N2889 0.984 . S
H2893 N2889 0.985 . S
H2894 N2888 0.984 . S
H2895 N2888 0.984 . S
H2896 N2884 0.984 . S
H2897 N2884 0.985 . S
C2898 C2899 1.363 . S
C2898 C2904 1.379 . S
C2898 N2906 1.356 . S
C2899 C2898 1.363 . S
C2899 C2905 1.363 . S
C2900 C2901 1.363 . S
C2900 C2905 1.379 . S
C2900 N2907 1.356 . S
C2901 C2900 1.363 . S
C2901 C2904 1.363 . S
N2902 C2904 1.356 . S
N2902 H2914 0.984 . S
N2902 H2915 0.985 . S
N2903 C2905 1.356 . S
N2903 H2908 0.984 . S
N2903 H2909 0.985 . S
C2904 C2898 1.379 . S
C2904 C2901 1.363 . S
C2904 N2902 1.356 . S
C2905 C2899 1.363 . S
C2905 C2900 1.379 . S
C2905 N2903 1.356 . S
N2906 C2898 1.356 . S
N2906 H2912 0.984 . S
N2906 H2913 0.984 . S
N2907 C2900 1.356 . S
N2907 H2910 0.984 . S
N2907 H2911 0.985 . S
H2908 N2903 0.984 . S
H2909 N2903 0.985 . S
H2910 N2907 0.984 . S
H2911 N2907 0.985 . S
H2912 N2906 0.984 . S
H2913 N2906 0.984 . S
H2914 N2902 0.984 . S
H2915 N2902 0.985 . S
C2916 C2917 1.363 . S
C2916 C2922 1.379 . S
C2916 N2924 1.356 . S
C2917 C2916 1.363 . S
C2917 C2923 1.363 . S
C2918 C2919 1.363 . S
C2918 C2923 1.379 . S
C2918 N2925 1.356 . S
C2919 C2918 1.363 . S
C2919 C2922 1.363 . S
N2920 C2922 1.356 . S
N2920 H2932 0.984 . S
N2920 H2933 0.985 . S
N2921 C2923 1.356 . S
N2921 H2926 0.984 . S
N2921 H2927 0.985 . S
C2922 C2916 1.379 . S
C2922 C2919 1.363 . S
C2922 N2920 1.356 . S
C2923 C2917 1.363 . S
C2923 C2918 1.379 . S
C2923 N2921 1.356 . S
N2924 C2916 1.356 . S
N2924 H2930 0.984 . S
N2924 H2931 0.984 . S
N2925 C2918 1.356 . S
N2925 H2928 0.984 . S
N2925 H2929 0.985 . S
H2926 N2921 0.984 . S
H2927 N2921 0.985 . S
H2928 N2925 0.984 . S
H2929 N2925 0.985 . S
H2930 N2924 0.984 . S
H2931 N2924 0.984 . S
H2932 N2920 0.984 . S
H2933 N2920 0.985 . S
C2934 C2935 1.363 . S
C2934 C2940 1.379 . S
C2934 N2942 1.356 . S
C2935 C2934 1.363 . S
C2935 C2941 1.363 . S
C2936 C2937 1.363 . S
C2936 C2941 1.379 . S
C2936 N2943 1.356 . S
C2937 C2936 1.363 . S
C2937 C2940 1.363 . S
N2938 C2940 1.356 . S
N2938 H2950 0.984 . S
N2938 H2951 0.985 . S
N2939 C2941 1.356 . S
N2939 H2944 0.984 . S
N2939 H2945 0.985 . S
C2940 C2934 1.379 . S
C2940 C2937 1.363 . S
C2940 N2938 1.356 . S
C2941 C2935 1.363 . S
C2941 C2936 1.379 . S
C2941 N2939 1.356 . S
N2942 C2934 1.356 . S
N2942 H2948 0.984 . S
N2942 H2949 0.955 1_455 S
N2943 C2936 1.356 . S
N2943 H2946 0.984 . S
N2943 H2947 0.985 . S
H2944 N2939 0.984 . S
H2945 N2939 0.985 . S
H2946 N2943 0.984 . S
H2947 N2943 0.985 . S
H2948 N2942 0.984 . S
H2949 N2942 0.955 1_655 S
H2950 N2938 0.984 . S
H2951 N2938 0.985 . S
C2952 C2953 1.363 . S
C2952 C2958 1.379 . S
C2952 N2960 1.356 . S
C2953 C2952 1.363 . S
C2953 C2959 1.363 . S
C2954 C2955 1.363 . S
C2954 C2959 1.379 . S
C2954 N2961 1.356 . S
C2955 C2954 1.363 . S
C2955 C2958 1.363 . S
N2956 C2958 1.356 . S
N2956 H2968 0.984 . S
N2956 H2969 0.985 . S
N2957 C2959 1.356 . S
N2957 H2962 0.984 . S
N2957 H2963 0.985 . S
C2958 C2952 1.379 . S
C2958 C2955 1.363 . S
C2958 N2956 1.356 . S
C2959 C2953 1.363 . S
C2959 C2954 1.379 . S
C2959 N2957 1.356 . S
N2960 C2952 1.356 . S
N2960 H2966 0.984 . S
N2960 H2967 0.984 . S
N2961 C2954 1.356 . S
N2961 H2964 0.984 . S
N2961 H2965 0.985 . S
H2962 N2957 0.984 . S
H2963 N2957 0.985 . S
H2964 N2961 0.984 . S
H2965 N2961 0.985 . S
H2966 N2960 0.984 . S
H2967 N2960 0.984 . S
H2968 N2956 0.984 . S
H2969 N2956 0.985 . S
C2970 C2971 1.363 . S
C2970 C2976 1.379 . S
C2970 N2978 1.356 . S
C2971 C2970 1.363 . S
C2971 C2977 1.363 . S
C2972 C2973 1.363 . S
C2972 C2977 1.379 . S
C2972 N2979 1.356 . S
C2973 C2972 1.363 . S
C2973 C2976 1.363 . S
N2974 C2976 1.356 . S
N2974 H2986 0.984 . S
N2974 H2987 0.985 . S
N2975 C2977 1.356 . S
N2975 H2980 0.984 . S
N2975 H2981 0.985 . S
C2976 C2970 1.379 . S
C2976 C2973 1.363 . S
C2976 N2974 1.356 . S
C2977 C2971 1.363 . S
C2977 C2972 1.379 . S
C2977 N2975 1.356 . S
N2978 C2970 1.356 . S
N2978 H2984 0.984 . S
N2978 H2985 0.984 . S
N2979 C2972 1.356 . S
N2979 H2982 0.984 . S
N2979 H2983 0.985 . S
H2980 N2975 0.984 . S
H2981 N2975 0.985 . S
H2982 N2979 0.984 . S
H2983 N2979 0.985 . S
H2984 N2978 0.984 . S
H2985 N2978 0.984 . S
H2986 N2974 0.984 . S
H2987 N2974 0.985 . S
C2988 C2989 1.363 . S
C2988 C2994 1.379 . S
C2988 N2996 1.356 . S
C2989 C2988 1.363 . S
C2989 C2995 1.363 . S
C2990 C2991 1.363 . S
C2990 C2995 1.379 . S
C2990 N2997 1.356 . S
C2991 C2990 1.363 . S
C2991 C2994 1.363 . S
N2992 C2994 1.356 . S
N2992 H3004 0.984 . S
N2992 H3005 0.985 . S
N2993 C2995 1.356 . S
N2993 H2998 0.984 . S
N2993 H2999 0.985 . S
C2994 C2988 1.379 . S
C2994 C2991 1.363 . S
C2994 N2992 1.356 . S
C2995 C2989 1.363 . S
C2995 C2990 1.379 . S
C2995 N2993 1.356 . S
N2996 C2988 1.356 . S
N2996 H3002 0.984 . S
N2996 H3003 0.984 . S
N2997 C2990 1.356 . S
N2997 H3000 0.984 . S
N2997 H3001 0.985 . S
H2998 N2993 0.984 . S
H2999 N2993 0.985 . S
H3000 N2997 0.984 . S
H3001 N2997 0.985 . S
H3002 N2996 0.984 . S
H3003 N2996 0.984 . S
H3004 N2992 0.984 . S
H3005 N2992 0.985 . S
C3006 C3007 1.363 . S
C3006 C3012 1.379 . S
C3006 N3014 1.356 . S
C3007 C3006 1.363 . S
C3007 C3013 1.363 . S
C3008 C3009 1.363 . S
C3008 C3013 1.379 . S
C3008 N3015 1.356 1_655 S
C3009 C3008 1.363 . S
C3009 C3012 1.363 . S
N3010 C3012 1.356 . S
N3010 H3022 0.984 . S
N3010 H3023 0.985 . S
N3011 C3013 1.344 . S
N3011 H3016 1.025 . S
N3011 H3017 0.960 1_655 S
C3012 C3006 1.379 . S
C3012 C3009 1.363 . S
C3012 N3010 1.356 . S
C3013 C3007 1.363 . S
C3013 C3008 1.379 . S
C3013 N3011 1.344 . S
N3014 C3006 1.356 . S
N3014 H3020 0.984 . S
N3014 H3021 0.984 . S
N3015 C3008 1.356 1_455 S
N3015 H3018 0.984 . S
N3015 H3019 0.985 . S
H3016 N3011 1.025 . S
H3017 N3011 0.960 1_455 S
H3018 N3015 0.984 . S
H3019 N3015 0.985 . S
H3020 N3014 0.984 . S
H3021 N3014 0.984 . S
H3022 N3010 0.984 . S
H3023 N3010 0.985 . S
C3024 C3025 1.363 . S
C3024 C3030 1.379 . S
C3024 N3032 1.356 . S
C3025 C3024 1.363 . S
C3025 C3031 1.363 . S
C3026 C3027 1.363 . S
C3026 C3031 1.379 . S
C3026 N3033 1.356 . S
C3027 C3026 1.363 . S
C3027 C3030 1.363 . S
N3028 C3030 1.356 . S
N3028 H3040 0.984 . S
N3028 H3041 0.985 . S
N3029 C3031 1.356 . S
N3029 H3034 0.984 . S
N3029 H3035 0.985 . S
C3030 C3024 1.379 . S
C3030 C3027 1.363 . S
C3030 N3028 1.356 . S
C3031 C3025 1.363 . S
C3031 C3026 1.379 . S
C3031 N3029 1.356 . S
N3032 C3024 1.356 . S
N3032 H3038 0.984 . S
N3032 H3039 0.984 . S
N3033 C3026 1.356 . S
N3033 H3036 0.984 . S
N3033 H3037 0.985 . S
H3034 N3029 0.984 . S
H3035 N3029 0.985 . S
H3036 N3033 0.984 . S
H3037 N3033 0.985 . S
H3038 N3032 0.984 . S
H3039 N3032 0.984 . S
H3040 N3028 0.984 . S
H3041 N3028 0.985 . S
C3042 C3043 1.363 . S
C3042 C3048 1.379 . S
C3042 N3050 1.356 . S
C3043 C3042 1.363 . S
C3043 C3049 1.363 . S
C3044 C3045 1.363 . S
C3044 C3049 1.379 . S
C3044 N3051 1.356 1_545 S
C3045 C3044 1.363 . S
C3045 C3048 1.363 . S
N3046 C3048 1.356 . S
N3046 H3058 0.984 . S
N3046 H3059 0.985 . S
N3047 C3049 1.381 . S
N3047 H3052 0.980 . S
N3047 H3053 0.968 1_545 S
C3048 C3042 1.379 . S
C3048 C3045 1.363 . S
C3048 N3046 1.356 . S
C3049 C3043 1.363 . S
C3049 C3044 1.379 . S
C3049 N3047 1.381 . S
N3050 C3042 1.356 . S
N3050 H3056 0.984 . S
N3050 H3057 0.984 . S
N3051 C3044 1.356 1_565 S
N3051 H3054 0.984 . S
N3051 H3055 0.985 . S
H3052 N3047 0.980 . S
H3053 N3047 0.968 1_565 S
H3054 N3051 0.984 . S
H3055 N3051 0.985 . S
H3056 N3050 0.984 . S
H3057 N3050 0.984 . S
H3058 N3046 0.984 . S
H3059 N3046 0.985 . S
C1765 C4 1.567 1_655 S
C1767 C1253 1.529 . S
C1783 C38 1.763 . S
C1785 C1297 1.720 . S
C1803 C1377 1.540 . S
C1801 C74 1.579 . S
C1819 C76 1.550 . S
C1821 C1421 1.512 . S
C1837 C2 1.653 . S
C1839 C1501 1.615 . S
C1855 C40 1.612 . S
C1857 C1563 1.539 . S
C1873 C110 1.660 . S
C1875 C1483 1.581 . S
C1893 C1545 1.537 . S
C1891 C148 1.620 . S
C1911 C1439 1.628 . S
C1909 C182 1.649 1_565 S
C1927 C184 1.584 . S
C1929 C1359 1.537 . S
C1947 C1235 1.508 . S
C1945 C112 1.557 1_655 S
C1963 C146 1.701 . S
C1965 C1315 1.661 . S
C1981 C220 1.673 . S
C1983 C1625 1.597 . S
C1999 C254 1.811 . S
C2001 C1669 1.766 . S
C2019 C1749 1.624 . S
C2017 C290 1.710 . S
C2035 C292 1.607 . S
C2037 C695 1.527 . S
C2053 C218 1.735 . S
C2055 C739 1.700 . S
C2071 C256 1.628 . S
C2073 C819 1.552 . S
C2089 C326 1.744 . S
C2091 C757 1.704 . S
C2107 C364 1.665 . S
C2109 C801 1.579 . S
C2127 C677 1.668 . S
C2125 C398 1.749 . S
C2145 C1731 1.603 . S
C2143 C400 1.684 . S
C2163 C1607 1.527 . S
C2161 C328 1.594 . S
C2181 C1687 1.706 . S
C2179 C362 1.746 . S
C2197 C436 1.650 . S
C2199 C881 1.576 . S
C2215 C470 1.800 . S
C2217 C943 1.701 . S
C2233 C506 1.708 . S
C2235 C987 1.676 . S
C2251 C508 1.632 . S
C2253 C1049 1.594 . S
C2271 C1111 1.704 . S
C2269 C434 1.740 . S
C2289 C1191 1.568 . S
C2287 C472 1.646 . S
C2307 C1129 1.735 . S
C2305 C542 1.776 . S
C2325 C1173 1.579 . S
C2323 C580 1.668 . S
C2341 C614 1.745 . S
C2343 C1067 1.711 . S
C2361 C1005 1.612 . S
C2359 C616 1.650 . S
C2377 C544 1.596 . S
C2379 C863 1.530 . S
C2397 C925 1.638 . S
C2395 C578 1.726 . S
C2415 C701 1.523 . S
C2413 C14 1.627 . S
C2431 C39 1.577 . S
C2433 C745 1.513 . S
C2451 C825 1.464 . S
C2449 C75 1.575 . S
C2469 C887 1.390 . S
C2467 C86 1.480 . S
C2487 C949 1.501 . S
C2485 C3 1.589 . S
C2505 C993 1.511 . S
C2503 C50 1.573 . S
C2521 C111 1.588 . S
C2523 C1011 1.513 . S
C2539 C158 1.549 . S
C2541 C869 1.438 . S
C2557 C183 1.661 . S
C2559 C931 1.570 . S
C2575 C194 1.588 . S
C2577 C763 1.535 . S
C2595 C807 1.439 . S
C2593 C122 1.546 . S
C2611 C147 1.505 . S
C2613 C683 1.416 . S
C2631 C1055 1.537 . S
C2629 C230 1.616 . S
C2647 C255 1.619 . S
C2649 C1117 1.552 . S
C2665 C291 1.588 . S
C2667 C1197 1.475 . S
C2685 C1259 1.352 . S
C2683 C302 1.411 . S
C2701 C219 1.575 . S
C2703 C1303 1.515 . S
C2719 C266 1.454 . S
C2721 C1383 1.422 . S
C2737 C327 1.448 . S
C2739 C1365 1.359 . S
C2755 C374 1.465 . S
C2757 C1241 1.396 . S
C2775 C1321 1.581 . S
C2773 C399 1.640 . S
C2791 C410 1.591 . S
C2793 C1135 1.533 . S
C2809 C338 1.581 . S
C2811 C1179 1.476 . S
C2829 C1073 1.477 . S
C2827 C363 1.544 . S
C2847 C1427 1.448 . S
C2845 C446 1.487 . S
C2863 C471 1.487 . S
C2865 C1507 1.418 . S
C2881 C507 1.548 . S
C2883 C1569 1.441 . S
C2901 C1631 1.395 . S
C2899 C518 1.497 . S
C2919 C1675 1.556 . S
C2917 C435 1.622 . S
C2935 C482 1.649 . S
C2937 C1755 1.520 . S
C2953 C543 1.564 . S
C2955 C1737 1.457 . S
C2971 C590 1.583 . S
C2973 C1613 1.475 . S
C2991 C1693 1.608 . S
C2989 C615 1.674 . S
C3009 C1489 1.428 . S
C3007 C626 1.458 . S
C3027 C1551 1.451 . S
C3025 C554 1.550 . S
C3043 C579 1.440 . S
C3045 C1445 1.380 . S
