# Generated by pormake.
# Topology ftw, (4,12)-cn, num edge types: 1
# Building blocks:
#     Node 0, Type 0, BuildingBlock: MIFKUJ_clean_linker_1, # of connection points: 4
#     Node 1, Type 0, BuildingBlock: MIFKUJ_clean_linker_1, # of connection points: 4
#     Node 2, Type 0, BuildingBlock: MIFKUJ_clean_linker_1, # of connection points: 4
#     Node 3, Type 1, BuildingBlock: QEWDON_clean_sbu_0, # of connection points: 12
#     Edge 4, Type (0, 1), BuildingBlock: AJUNOK_clean_linker_0, # of connection points: 2
#     Edge 5, Type (0, 1), BuildingBlock: AJUNOK_clean_linker_0, # of connection points: 2
#     Edge 6, Type (0, 1), BuildingBlock: AJUNOK_clean_linker_0, # of connection points: 2
#     Edge 7, Type (0, 1), BuildingBlock: AJUNOK_clean_linker_0, # of connection points: 2
#     Edge 8, Type (0, 1), BuildingBlock: AJUNOK_clean_linker_0, # of connection points: 2
#     Edge 9, Type (0, 1), BuildingBlock: AJUNOK_clean_linker_0, # of connection points: 2
#     Edge 10, Type (0, 1), BuildingBlock: AJUNOK_clean_linker_0, # of connection points: 2
#     Edge 11, Type (0, 1), BuildingBlock: AJUNOK_clean_linker_0, # of connection points: 2
#     Edge 12, Type (0, 1), BuildingBlock: AJUNOK_clean_linker_0, # of connection points: 2
#     Edge 13, Type (0, 1), BuildingBlock: AJUNOK_clean_linker_0, # of connection points: 2
#     Edge 14, Type (0, 1), BuildingBlock: AJUNOK_clean_linker_0, # of connection points: 2
#     Edge 15, Type (0, 1), BuildingBlock: AJUNOK_clean_linker_0, # of connection points: 2
# Relax obj value: 0.072
# Max RMSD: 0.191
# Mean RMSD: 0.143
data_MOF--net-ftw--node1-QEWDON_clean_sbu_0--node2-MIFKUJ_clean_linker_1--edge1-AJUNOK_clean_linker_0
_symmetry_space_group_name_H-M    P1
_symmetry_Int_Tables_number       1
_symmetry_cell_setting            triclinic
loop_
_symmetry_equiv_pos_as_xyz
'x, y, z'
_cell_length_a     21.692299
_cell_length_b     24.380957
_cell_length_c     23.264677
_cell_angle_alpha  90.22419
_cell_angle_beta   89.941835
_cell_angle_gamma 90.165732
loop_
_atom_site_label
_atom_site_type_symbol
_atom_site_fract_x
_atom_site_fract_y
_atom_site_fract_z
_atom_type_partial_charge
H0 H 0.08002 0.57338 0.63139 0.0
H1 H 0.07683 0.64848 0.70111 0.0
H2 H 0.90593 0.70484 0.62786 0.0
H3 H 0.9083 0.6286 0.55852 0.0
H4 H 0.00551 0.49248 0.62874 0.0
H5 H 0.06916 0.6208 0.47776 0.0
H6 H 0.06813 0.69602 0.4086 0.0
H7 H 0.87993 0.65563 0.36409 0.0
H8 H 0.88293 0.57835 0.43075 0.0
H9 H 0.89496 0.40628 0.42054 0.0
H10 H 0.89909 0.32945 0.35242 0.0
H11 H 0.07958 0.28655 0.4147 0.0
H12 H 0.07537 0.36345 0.48375 0.0
H13 H 0.9702 0.49239 0.41859 0.0
H14 H 0.90977 0.35964 0.56089 0.0
H15 H 0.90775 0.28369 0.62998 0.0
H16 H 0.08551 0.33394 0.69448 0.0
H17 H 0.08724 0.41015 0.62598 0.0
C18 C -0.00564 0.59475 0.58944 0.0
C19 C 0.04208 0.60212 0.62964 0.0
C20 C 0.04023 0.64508 0.66964 0.0
C21 C -0.00912 0.68227 0.67036 0.0
C22 C 0.94474 0.67699 0.62818 0.0
C23 C 0.94628 0.63347 0.58829 0.0
C24 C -0.00813 0.54325 0.55411 0.0
C25 C -0.00096 0.49261 0.58251 0.0
C26 C 0.98047 0.54289 0.49414 0.0
C27 C 0.97618 0.59387 0.45944 0.0
C28 C 0.02746 0.6286 0.45359 0.0
C29 C 0.02669 0.67171 0.41393 0.0
C30 C 0.97436 0.68146 0.37958 0.0
C31 C 0.92184 0.64834 0.38804 0.0
C32 C 0.92312 0.60456 0.42685 0.0
C33 C 0.98465 0.39067 0.45769 0.0
C34 C 0.93508 0.37992 0.4204 0.0
C35 C 0.93743 0.33612 0.38145 0.0
C36 C -0.01031 0.30248 0.37835 0.0
C37 C 0.03883 0.31208 0.41641 0.0
C38 C 0.03618 0.35569 0.45605 0.0
C39 C 0.98499 0.44185 0.49313 0.0
C40 C 0.97707 0.49232 0.46479 0.0
C41 C -0.00445 0.44196 0.5532 0.0
C42 C -0.00118 0.39064 0.58786 0.0
C43 C 0.94902 0.3536 0.58887 0.0
C44 C 0.94768 0.31043 0.62861 0.0
C45 C -0.00348 0.30293 0.66749 0.0
C46 C 0.04757 0.33841 0.66464 0.0
C47 C 0.04849 0.38202 0.62557 0.0
H48 H 0.37157 0.06834 0.43354 0.0
H49 H 0.29524 0.05766 0.3571 0.0
H50 H 0.37457 0.90158 0.31048 0.0
H51 H 0.45154 0.9125 0.38744 0.0
H52 H 0.37277 -0.00228 0.52217 0.0
H53 H 0.51421 0.06481 0.38254 0.0
H54 H 0.58944 0.07792 0.30466 0.0
H55 H 0.69013 0.93651 0.36298 0.0
H56 H 0.61434 0.92221 0.4394 0.0
H57 H 0.59393 0.90895 0.61502 0.0
H58 H 0.66885 0.91515 0.69382 0.0
H59 H 0.60513 0.0782 0.73383 0.0
H60 H 0.52903 0.07162 0.6555 0.0
H61 H 0.60048 0.98587 0.52436 0.0
H62 H 0.43993 0.91091 0.6525 0.0
H63 H 0.36383 0.90415 0.7298 0.0
H64 H 0.30427 0.06965 0.69445 0.0
H65 H 0.37801 0.07462 0.615 0.0
C66 C 0.41735 0.99129 0.41628 0.0
C67 C 0.37341 0.03228 0.40622 0.0
C68 C 0.32954 0.02594 0.36282 0.0
C69 C 0.32844 0.9784 0.32845 0.0
C70 C 0.37448 0.93864 0.33629 0.0
C71 C 0.4186 0.94502 0.38 0.0
C72 C 0.45471 -0.00675 0.46981 0.0
C73 C 0.42276 -0.00411 0.52245 0.0
C74 C 0.51986 0.98967 0.47024 0.0
C75 C 0.55829 -0.00761 0.41709 0.0
C76 C 0.55132 0.03555 0.3776 0.0
C77 C 0.59462 0.04347 0.33349 0.0
C78 C 0.64608 0.00893 0.32882 0.0
C79 C 0.65143 0.96432 0.36647 0.0
C80 C 0.60793 0.95602 0.40993 0.0
C81 C 0.55534 0.98955 0.6298 0.0
C82 C 0.59496 0.94552 0.64162 0.0
C83 C 0.63789 0.94917 0.68629 0.0
C84 C 0.64272 -0.00274 0.7193 0.0
C85 C 0.60211 0.04081 0.7087 0.0
C86 C 0.55839 0.03683 0.66445 0.0
C87 C 0.51842 0.98927 0.57606 0.0
C88 C 0.55049 0.9873 0.52355 0.0
C89 C 0.45352 -0.006 0.5755 0.0
C90 C 0.4154 -0.00642 0.62859 0.0
C91 C 0.41131 0.94609 0.66224 0.0
C92 C 0.3677 0.94238 0.7066 0.0
C93 C 0.32806 0.9866 0.71909 0.0
C94 C 0.33347 0.03459 0.68592 0.0
C95 C 0.37623 0.03783 0.64094 0.0
H96 H 0.60614 0.56526 0.94577 0.0
H97 H 0.67348 0.64509 0.94264 0.0
H98 H 0.58031 0.71308 0.09107 0.0
H99 H 0.51586 0.63067 0.09664 0.0
H100 H 0.60519 0.49265 0.03445 0.0
H101 H 0.46704 0.62194 0.94493 0.0
H102 H 0.41659 0.71126 0.94882 0.0
H103 H 0.30919 0.65681 0.09474 0.0
H104 H 0.36491 0.57047 0.09493 0.0
H105 H 0.38445 0.40431 0.11305 0.0
H106 H 0.31498 0.32546 0.10718 0.0
H107 H 0.38316 0.28845 0.93686 0.0
H108 H 0.45419 0.36725 0.94341 0.0
H109 H 0.37666 0.48952 0.02401 0.0
H110 H 0.50477 0.35472 0.10532 0.0
H111 H 0.54392 0.26321 0.0926 0.0
H112 H 0.6759 0.32433 0.96821 0.0
H113 H 0.62526 0.41315 0.97083 0.0
C114 C 0.55772 0.59181 0.0223 0.0
C115 C 0.60035 0.59743 0.97759 0.0
C116 C 0.63778 0.64342 0.97518 0.0
C117 C 0.63267 0.68432 0.01739 0.0
C118 C 0.58593 0.6811 0.05904 0.0
C119 C 0.54934 0.63433 0.06226 0.0
C120 C 0.52257 0.54081 0.02666 0.0
C121 C 0.55526 0.49173 0.03178 0.0
C122 C 0.45771 0.54017 0.02447 0.0
C123 C 0.42131 0.59069 0.021 0.0
C124 C 0.4336 0.62989 0.9785 0.0
C125 C 0.4046 0.68061 0.98052 0.0
C126 C 0.36111 0.69168 0.0236 0.0
C127 C 0.3452 0.65054 0.06313 0.0
C128 C 0.37584 0.60073 0.06243 0.0
C129 C 0.42327 0.39112 0.02842 0.0
C130 C 0.38498 0.37862 0.07492 0.0
C131 C 0.34605 0.33373 0.07171 0.0
C132 C 0.34427 0.30201 0.02146 0.0
C133 C 0.38437 0.31305 0.97572 0.0
C134 C 0.42433 0.35762 0.97938 0.0
C135 C 0.45922 0.4415 0.03025 0.0
C136 C 0.42665 0.49039 0.02668 0.0
C137 C 0.52409 0.44167 0.03367 0.0
C138 C 0.55948 0.39014 0.03676 0.0
C139 C 0.54056 0.34803 0.07368 0.0
C140 C 0.56477 0.29576 0.06783 0.0
C141 C 0.61369 0.28592 0.02967 0.0
C142 C 0.63685 0.32975 0.9967 0.0
C143 C 0.60906 0.38109 0.99925 0.0
Zn144 Zn 0.06217 0.06955 0.96972 0.0
Zn145 Zn 0.07056 0.08561 0.11206 0.0
O146 O 0.04483 0.03288 0.04763 0.0
H147 H 0.04511 -0.00666 0.04835 0.0
C148 C 0.97729 0.14854 0.85906 0.0
O149 O 0.01133 0.10427 0.86226 0.0
Zn150 Zn 0.9038 0.90518 0.11752 0.0
Zn151 Zn 0.9048 0.92164 0.97722 0.0
O152 O 0.93206 0.95609 0.05358 0.0
H153 H 0.93953 -0.00502 0.05571 0.0
Zn154 Zn 0.90959 0.10447 0.96576 0.0
O155 O 0.95384 0.1078 0.04429 0.0
Zn156 Zn 0.88932 0.09771 0.10655 0.0
H157 H -0.00991 0.1305 0.04883 0.0
Zn158 Zn 0.05485 0.87346 0.97473 0.0
O159 O 0.01445 0.88032 0.05471 0.0
H160 H 0.02886 0.87663 0.01561 0.0
Zn161 Zn 0.08095 0.89238 0.11442 0.0
C162 C -0.00648 0.83912 0.86161 0.0
O163 O 0.98138 0.89154 0.85569 0.0
O164 O 0.11269 0.13964 0.98074 0.0
O165 O 0.12305 0.14135 0.07606 0.0
O166 O 0.86732 0.84547 0.98776 0.0
O167 O 0.85241 0.84861 0.08212 0.0
O168 O 0.81518 0.10668 0.97703 0.0
O169 O 0.81078 0.1177 0.07198 0.0
C170 C 0.13026 -0.00183 0.16913 0.0
O171 O 0.14813 0.86075 0.98611 0.0
O172 O 0.15783 0.86624 0.08111 0.0
O173 O 0.83859 0.95928 0.92567 0.0
C174 C 0.13587 0.15961 0.02642 0.0
O175 O 0.10194 0.02733 0.89975 0.0
C176 C 0.84179 -0.00544 0.16824 0.0
O177 O 0.93602 0.15668 0.89717 0.0
C178 C 0.84281 0.82687 0.03339 0.0
O179 O 0.01896 0.82285 0.90792 0.0
C180 C 0.96379 0.14947 0.18926 0.0
O181 O 0.1266 0.04983 0.16806 0.0
O182 O 0.09491 0.97074 0.13618 0.0
C183 C 0.78492 0.11629 0.02296 0.0
O184 O 0.84664 0.94304 0.17039 0.0
O185 O 0.87715 0.02072 0.13424 0.0
C186 C 0.0072 0.8419 0.19737 0.0
O187 O 0.90768 0.1447 0.1749 0.0
O188 O 0.00471 0.1249 0.15954 0.0
C189 C 0.1804 0.85689 0.03172 0.0
O190 O 0.06334 0.84869 0.1844 0.0
O191 O 0.9659 0.86551 0.16766 0.0
C192 C 0.84449 -0.00792 0.88369 0.0
O193 O 0.89943 0.01149 0.87128 0.0
C194 C 0.14872 -0.00327 0.90675 0.0
O195 O 0.16499 0.98434 0.95948 0.0
C196 C 0.95756 0.21115 0.33893 0.0
C197 C -0.00716 0.25928 0.33331 0.0
C198 C 0.95107 0.17424 0.29277 0.0
C199 C 0.98006 0.18388 0.2396 0.0
H200 H 0.93283 0.20317 0.37852 0.0
H201 H 0.92153 0.13876 0.29808 0.0
S202 S 0.07715 0.30398 0.20294 0.0
N203 N 0.05716 0.31461 0.27065 0.0
N204 N 0.04578 0.24469 0.18423 0.0
C205 C 0.01734 0.23075 0.23415 0.0
C206 C 0.02347 0.26863 0.28096 0.0
C207 C 0.68338 0.01481 0.22688 0.0
C208 C 0.6955 0.01957 0.28603 0.0
C209 C 0.73185 0.01414 0.18665 0.0
C210 C 0.79369 0.01977 0.20412 0.0
H211 H 0.63674 0.00745 0.21205 0.0
H212 H 0.72126 0.00477 0.14216 0.0
S213 S 0.84892 0.0385 0.35336 0.0
N214 N 0.77321 0.03395 0.35967 0.0
N215 N 0.86379 0.03351 0.28388 0.0
C216 C 0.80573 0.02861 0.2626 0.0
C217 C 0.75674 0.02833 0.30361 0.0
C218 C 0.00618 0.77498 0.34398 0.0
C219 C 0.97609 0.72449 0.33372 0.0
C220 C 0.01413 0.81377 0.30009 0.0
C221 C -0.00913 0.80433 0.24463 0.0
H222 H 0.02491 0.78426 0.38605 0.0
H223 H 0.03953 0.85111 0.30935 0.0
S224 S 0.91063 0.67918 0.19359 0.0
N225 N 0.92487 0.6671 0.26208 0.0
N226 N 0.93728 0.74149 0.18097 0.0
C227 C 0.95918 0.75519 0.23384 0.0
C228 C 0.95226 0.71498 0.27805 0.0
C229 C 0.21577 0.97668 0.30606 0.0
C230 C 0.27694 0.97007 0.28703 0.0
C231 C 0.16655 0.9786 0.26713 0.0
C232 C 0.17646 0.97382 0.20766 0.0
H233 H 0.20622 0.98329 0.35129 0.0
H234 H 0.12097 0.98817 0.28337 0.0
S235 S 0.32728 0.95384 0.13565 0.0
N236 N 0.34427 0.95572 0.20487 0.0
N237 N 0.25162 0.96071 0.13151 0.0
C238 C 0.23683 0.96411 0.18817 0.0
C239 C 0.28712 0.96173 0.22794 0.0
C240 C -0.00968 0.70579 0.7754 0.0
C241 C 0.98607 0.72339 0.71797 0.0
C242 C -0.00984 0.74326 0.82143 0.0
C243 C 0.98585 0.80019 0.81221 0.0
H244 H -0.00547 0.66249 0.78485 0.0
H245 H -0.00536 0.72738 0.86464 0.0
S246 S 0.97308 0.86765 0.66963 0.0
N247 N 0.97656 0.80152 0.65426 0.0
N248 N 0.97597 0.87215 0.74044 0.0
C249 C 0.97973 0.81831 0.75489 0.0
C250 C 0.97993 0.77995 0.70792 0.0
C251 C 0.22115 0.00458 0.75761 0.0
C252 C 0.28076 0.98309 0.76599 0.0
C253 C 0.17752 0.00598 0.80231 0.0
C254 C 0.19142 0.98584 0.85753 0.0
H255 H 0.20826 0.02136 0.7163 0.0
H256 H 0.13324 0.02472 0.79387 0.0
S257 S 0.33931 0.9217 0.90119 0.0
N258 N 0.35028 0.9392 0.8335 0.0
N259 N 0.26802 0.94004 0.9166 0.0
C260 C 0.2497 0.96159 0.86563 0.0
C261 C 0.29435 0.96068 0.82023 0.0
C262 C 0.94295 0.2643 0.75387 0.0
C263 C -0.0081 0.26154 0.71431 0.0
C264 C 0.93915 0.22812 0.80062 0.0
C265 C 0.98377 0.18706 0.80951 0.0
H266 H 0.90781 0.29546 0.74926 0.0
H267 H 0.90059 0.23237 0.82989 0.0
S268 S 0.11978 0.16098 0.71596 0.0
N269 N 0.0851 0.21378 0.68579 0.0
N270 N 0.07794 0.14517 0.77293 0.0
C271 C 0.03258 0.18334 0.76947 0.0
C272 C 0.03668 0.2207 0.72218 0.0
C273 C 0.68678 0.97269 0.81484 0.0
C274 C 0.69174 0.00205 0.76334 0.0
C275 C 0.73527 0.97212 0.85468 0.0
C276 C 0.79118 0.00023 0.84418 0.0
H277 H 0.64553 0.94903 0.82381 0.0
H278 H 0.72944 0.94778 0.89317 0.0
S279 S 0.82572 0.0848 0.71553 0.0
N280 N 0.75521 0.06138 0.70416 0.0
N281 N 0.84693 0.06017 0.7785 0.0
C282 C 0.79577 0.03115 0.79325 0.0
C283 C 0.74599 0.03198 0.75293 0.0
C284 C 0.29148 0.21937 0.05588 0.0
C285 C 0.29534 0.26165 0.01562 0.0
C286 C 0.23891 0.18696 0.05899 0.0
C287 C 0.18884 0.19596 0.02187 0.0
H288 H 0.32853 0.21257 0.08625 0.0
H289 H 0.23755 0.15457 0.09077 0.0
S290 S 0.17727 0.30197 0.90912 0.0
N291 N 0.24606 0.3115 0.93799 0.0
N292 N 0.14652 0.24921 0.94322 0.0
C293 C 0.19286 0.23712 0.98027 0.0
C294 C 0.24651 0.27042 0.97729 0.0
C295 C 0.30408 0.76591 0.97427 0.0
C296 C 0.32883 0.74454 0.0252 0.0
C297 C 0.26075 0.80793 0.97612 0.0
C298 C 0.24031 0.82912 0.02902 0.0
H299 H 0.31414 0.74713 0.93306 0.0
H300 H 0.23925 0.82012 0.93617 0.0
S301 S 0.30297 0.7957 0.17353 0.0
N302 N 0.34014 0.75492 0.1287 0.0
N303 N 0.25651 0.83236 0.13297 0.0
C304 C 0.27047 0.8126 0.07976 0.0
C305 C 0.31517 0.77038 0.07765 0.0
C306 C 0.66604 0.2128 0.9722 0.0
C307 C 0.64253 0.23108 0.02544 0.0
C308 C 0.70628 0.1683 0.96922 0.0
C309 C 0.72315 0.14035 0.01938 0.0
H310 H 0.65702 0.2354 0.93312 0.0
H311 H 0.72912 0.15988 0.9287 0.0
S312 S 0.66011 0.16033 0.16595 0.0
N313 N 0.63115 0.21088 0.12773 0.0
N314 N 0.70053 0.12342 0.12007 0.0
C315 C 0.6911 0.15162 0.07052 0.0
C316 C 0.65272 0.19845 0.07436 0.0
C317 C 0.70614 0.75057 0.97424 0.0
C318 C 0.68299 0.72406 0.0232 0.0
C319 C 0.76026 0.78138 0.97708 0.0
C320 C 0.79253 0.78695 0.02915 0.0
H321 H 0.68257 0.74692 0.93335 0.0
H322 H 0.7758 0.80213 0.93858 0.0
S323 S 0.7507 0.72505 0.16958 0.0
N324 N 0.69638 0.70436 0.12491 0.0
N325 N 0.79756 0.76336 0.13076 0.0
C326 C 0.7696 0.7607 0.0785 0.0
C327 C 0.71469 0.72926 0.07551 0.0
loop_
_geom_bond_atom_site_label_1
_geom_bond_atom_site_label_2
_geom_bond_distance
_geom_bond_site_symmetry_2
_ccdc_geom_bond_type
H0 C19 0.949 . S
H1 C20 0.950 . S
H2 C22 0.950 . S
H3 C23 0.950 . S
H4 C25 0.950 . S
H5 C28 0.950 . S
H6 C29 0.950 . S
H7 C31 0.951 . S
H8 C32 0.949 . S
H9 C34 0.949 . S
H10 C35 0.950 . S
H11 C37 0.950 . S
H12 C38 0.950 . S
H13 C40 0.950 . S
H14 C43 0.950 . S
H15 C44 0.950 . S
H16 C46 0.951 . S
H17 C47 0.949 . S
C18 C19 1.376 . S
C18 C23 1.386 1_455 S
C18 C24 1.483 . S
C19 H0 0.949 . S
C19 C18 1.376 . S
C19 C20 1.397 . S
C20 H1 0.950 . S
C20 C19 1.397 . S
C20 C21 1.391 . S
C21 C20 1.391 . S
C21 C22 1.405 1_455 S
C22 H2 0.950 . S
C22 C21 1.405 1_655 S
C22 C23 1.367 . S
C23 H3 0.950 . S
C23 C18 1.386 1_655 S
C23 C22 1.367 . S
C24 C18 1.483 . S
C24 C25 1.382 . S
C24 C26 1.403 1_455 S
C25 H4 0.950 . S
C25 C24 1.382 . S
C25 C41 1.411 . S
C26 C24 1.403 1_655 S
C26 C27 1.489 . S
C26 C40 1.411 . S
C27 C26 1.489 . S
C27 C28 1.383 1_655 S
C27 C32 1.382 . S
C28 H5 0.950 . S
C28 C27 1.383 1_455 S
C28 C29 1.395 . S
C29 H6 0.950 . S
C29 C28 1.395 . S
C29 C30 1.288 1_455 S
C30 C29 1.288 1_655 S
C30 C31 1.392 . S
C31 H7 0.951 . S
C31 C30 1.392 . S
C31 C32 1.392 . S
C32 H8 0.949 . S
C32 C27 1.382 . S
C32 C31 1.392 . S
C33 C34 1.376 . S
C33 C38 1.386 1_655 S
C33 C39 1.483 . S
C34 H9 0.949 . S
C34 C33 1.376 . S
C34 C35 1.397 . S
C35 H10 0.950 . S
C35 C34 1.397 . S
C35 C36 1.391 . S
C36 C35 1.391 . S
C36 C37 1.405 1_655 S
C37 H11 0.950 . S
C37 C36 1.405 1_455 S
C37 C38 1.367 . S
C38 H12 0.950 . S
C38 C33 1.386 1_455 S
C38 C37 1.367 . S
C39 C33 1.483 . S
C39 C40 1.382 . S
C39 C41 1.403 1_655 S
C40 H13 0.950 . S
C40 C26 1.411 . S
C40 C39 1.382 . S
C41 C25 1.411 . S
C41 C39 1.403 1_455 S
C41 C42 1.489 . S
C42 C41 1.489 . S
C42 C43 1.383 1_455 S
C42 C47 1.382 . S
C43 H14 0.950 . S
C43 C42 1.383 1_655 S
C43 C44 1.395 . S
C44 H15 0.950 . S
C44 C43 1.395 . S
C44 C45 1.288 1_655 S
C45 C44 1.288 1_455 S
C45 C46 1.392 . S
C46 H16 0.951 . S
C46 C45 1.392 . S
C46 C47 1.392 . S
C47 H17 0.949 . S
C47 C42 1.382 . S
C47 C46 1.392 . S
H48 C67 0.949 . S
H49 C68 0.950 . S
H50 C70 0.950 . S
H51 C71 0.950 . S
H52 C73 0.950 . S
H53 C76 0.950 . S
H54 C77 0.950 . S
H55 C79 0.951 . S
H56 C80 0.949 . S
H57 C82 0.949 . S
H58 C83 0.950 . S
H59 C85 0.950 . S
H60 C86 0.950 . S
H61 C88 0.950 . S
H62 C91 0.950 . S
H63 C92 0.950 . S
H64 C94 0.951 . S
H65 C95 0.949 . S
C66 C67 1.376 . S
C66 C71 1.386 1_545 S
C66 C72 1.483 . S
C67 H48 0.949 . S
C67 C66 1.376 . S
C67 C68 1.397 . S
C68 H49 0.950 . S
C68 C67 1.397 . S
C68 C69 1.391 . S
C69 C68 1.391 . S
C69 C70 1.405 1_545 S
C70 H50 0.950 . S
C70 C69 1.405 1_565 S
C70 C71 1.367 . S
C71 H51 0.950 . S
C71 C66 1.386 1_565 S
C71 C70 1.367 . S
C72 C66 1.483 . S
C72 C73 1.382 . S
C72 C74 1.403 1_545 S
C73 H52 0.950 . S
C73 C72 1.382 . S
C73 C89 1.411 . S
C74 C72 1.403 1_565 S
C74 C75 1.489 . S
C74 C88 1.411 . S
C75 C74 1.489 . S
C75 C76 1.383 1_565 S
C75 C80 1.382 . S
C76 H53 0.950 . S
C76 C75 1.383 1_545 S
C76 C77 1.395 . S
C77 H54 0.950 . S
C77 C76 1.395 . S
C77 C78 1.288 1_545 S
C78 C77 1.288 1_565 S
C78 C79 1.392 . S
C79 H55 0.951 . S
C79 C78 1.392 . S
C79 C80 1.392 . S
C80 H56 0.949 . S
C80 C75 1.382 . S
C80 C79 1.392 . S
C81 C82 1.376 . S
C81 C86 1.386 1_565 S
C81 C87 1.483 . S
C82 H57 0.949 . S
C82 C81 1.376 . S
C82 C83 1.397 . S
C83 H58 0.950 . S
C83 C82 1.397 . S
C83 C84 1.391 . S
C84 C83 1.391 . S
C84 C85 1.405 1_565 S
C85 H59 0.950 . S
C85 C84 1.405 1_545 S
C85 C86 1.367 . S
C86 H60 0.950 . S
C86 C81 1.386 1_545 S
C86 C85 1.367 . S
C87 C81 1.483 . S
C87 C88 1.382 . S
C87 C89 1.403 1_565 S
C88 H61 0.950 . S
C88 C74 1.411 . S
C88 C87 1.382 . S
C89 C73 1.411 . S
C89 C87 1.403 1_545 S
C89 C90 1.489 . S
C90 C89 1.489 . S
C90 C91 1.383 1_545 S
C90 C95 1.382 . S
C91 H62 0.950 . S
C91 C90 1.383 1_565 S
C91 C92 1.395 . S
C92 H63 0.950 . S
C92 C91 1.395 . S
C92 C93 1.288 1_565 S
C93 C92 1.288 1_545 S
C93 C94 1.392 . S
C94 H64 0.951 . S
C94 C93 1.392 . S
C94 C95 1.392 . S
C95 H65 0.949 . S
C95 C90 1.382 . S
C95 C94 1.392 . S
H96 C115 0.949 . S
H97 C116 0.950 . S
H98 C118 0.950 . S
H99 C119 0.950 . S
H100 C121 0.950 . S
H101 C124 0.950 . S
H102 C125 0.950 . S
H103 C127 0.951 . S
H104 C128 0.949 . S
H105 C130 0.949 . S
H106 C131 0.950 . S
H107 C133 0.950 . S
H108 C134 0.950 . S
H109 C136 0.950 . S
H110 C139 0.950 . S
H111 C140 0.950 . S
H112 C142 0.951 . S
H113 C143 0.949 . S
C114 C115 1.376 1_554 S
C114 C119 1.386 . S
C114 C120 1.483 . S
C115 H96 0.949 . S
C115 C114 1.376 1_556 S
C115 C116 1.397 . S
C116 H97 0.950 . S
C116 C115 1.397 . S
C116 C117 1.391 1_556 S
C117 C116 1.391 1_554 S
C117 C118 1.405 . S
C118 H98 0.950 . S
C118 C117 1.405 . S
C118 C119 1.367 . S
C119 H99 0.950 . S
C119 C114 1.386 . S
C119 C118 1.367 . S
C120 C114 1.483 . S
C120 C121 1.382 . S
C120 C122 1.403 . S
C121 H100 0.950 . S
C121 C120 1.382 . S
C121 C137 1.411 . S
C122 C120 1.403 . S
C122 C123 1.489 . S
C122 C136 1.411 . S
C123 C122 1.489 . S
C123 C124 1.383 1_554 S
C123 C128 1.382 . S
C124 H101 0.950 . S
C124 C123 1.383 1_556 S
C124 C125 1.395 . S
C125 H102 0.950 . S
C125 C124 1.395 . S
C125 C126 1.288 1_556 S
C126 C125 1.288 1_554 S
C126 C127 1.392 . S
C127 H103 0.951 . S
C127 C126 1.392 . S
C127 C128 1.392 . S
C128 H104 0.949 . S
C128 C123 1.382 . S
C128 C127 1.392 . S
C129 C130 1.376 . S
C129 C134 1.386 1_554 S
C129 C135 1.483 . S
C130 H105 0.949 . S
C130 C129 1.376 . S
C130 C131 1.397 . S
C131 H106 0.950 . S
C131 C130 1.397 . S
C131 C132 1.391 . S
C132 C131 1.391 . S
C132 C133 1.405 1_554 S
C133 H107 0.950 . S
C133 C132 1.405 1_556 S
C133 C134 1.367 . S
C134 H108 0.950 . S
C134 C129 1.386 1_556 S
C134 C133 1.367 . S
C135 C129 1.483 . S
C135 C136 1.382 . S
C135 C137 1.403 . S
C136 H109 0.950 . S
C136 C122 1.411 . S
C136 C135 1.382 . S
C137 C121 1.411 . S
C137 C135 1.403 . S
C137 C138 1.489 . S
C138 C137 1.489 . S
C138 C139 1.383 . S
C138 C143 1.382 1_554 S
C139 H110 0.950 . S
C139 C138 1.383 . S
C139 C140 1.395 . S
C140 H111 0.950 . S
C140 C139 1.395 . S
C140 C141 1.288 . S
C141 C140 1.288 . S
C141 C142 1.392 1_554 S
C142 H112 0.951 . S
C142 C141 1.392 1_556 S
C142 C143 1.392 . S
C143 H113 0.949 . S
C143 C138 1.382 1_556 S
C143 C142 1.392 . S
Zn144 O146 1.933 1_556 S
Zn144 O164 1.985 . S
Zn144 O175 1.955 . S
Zn145 O146 1.911 . S
Zn145 O165 1.970 . S
Zn145 O181 1.945 . S
Zn145 O188 1.981 . S
O146 Zn144 1.933 1_554 S
O146 Zn145 1.911 . S
O146 H147 0.841 . S
H147 O146 0.841 . S
C148 O149 1.246 . S
C148 O177 1.276 1_455 S
O149 C148 1.246 . S
Zn150 O152 1.911 . S
Zn150 O167 1.970 . S
Zn150 O184 1.945 . S
Zn150 O191 1.981 . S
Zn151 O152 1.933 1_556 S
Zn151 O166 1.985 . S
Zn151 O173 1.955 . S
O152 Zn150 1.911 . S
O152 Zn151 1.933 1_554 S
O152 H153 0.841 . S
H153 O152 0.841 . S
Zn154 O155 1.933 1_556 S
Zn154 O168 1.985 . S
Zn154 O177 1.955 . S
O155 Zn154 1.933 1_554 S
O155 Zn156 1.911 . S
O155 H157 0.841 . S
Zn156 O155 1.911 . S
Zn156 O169 1.970 . S
Zn156 O185 1.981 . S
Zn156 O187 1.945 . S
H157 O155 0.841 . S
Zn158 O159 1.933 1_556 S
Zn158 O171 1.985 . S
Zn158 O179 1.955 . S
O159 Zn158 1.933 1_554 S
O159 H160 0.841 . S
O159 Zn161 1.911 . S
H160 O159 0.841 . S
Zn161 O159 1.911 . S
Zn161 O172 1.970 . S
Zn161 O182 1.981 . S
Zn161 O190 1.945 . S
C162 O163 1.246 . S
C162 O179 1.276 1_655 S
O163 C162 1.246 . S
O164 Zn144 1.985 . S
O164 C174 1.245 1_556 S
O165 Zn145 1.970 . S
O165 C174 1.263 . S
O166 Zn151 1.985 . S
O166 C178 1.245 1_556 S
O167 Zn150 1.970 . S
O167 C178 1.263 . S
O168 Zn154 1.985 . S
O168 C183 1.245 1_556 S
O169 Zn156 1.970 . S
O169 C183 1.263 . S
C170 O181 1.269 . S
C170 O182 1.241 1_545 S
O171 Zn158 1.985 . S
O171 C189 1.245 1_556 S
O172 Zn161 1.970 . S
O172 C189 1.263 . S
O173 Zn151 1.955 . S
O173 C192 1.276 1_565 S
C174 O164 1.245 1_554 S
C174 O165 1.263 . S
O175 Zn144 1.955 . S
O175 C194 1.276 1_545 S
C176 O184 1.258 1_545 S
C176 O185 1.247 . S
O177 C148 1.276 1_655 S
O177 Zn154 1.955 . S
C178 O166 1.245 1_554 S
C178 O167 1.263 . S
O179 Zn158 1.955 . S
O179 C162 1.276 1_455 S
C180 O187 1.262 1_455 S
C180 O188 1.245 . S
O181 Zn145 1.945 . S
O181 C170 1.269 . S
O182 Zn161 1.981 . S
O182 C170 1.241 1_565 S
C183 O168 1.245 1_554 S
C183 O169 1.263 . S
O184 Zn150 1.945 . S
O184 C176 1.258 1_565 S
O185 Zn156 1.981 . S
O185 C176 1.247 . S
C186 O190 1.263 . S
C186 O191 1.244 1_455 S
O187 Zn156 1.945 . S
O187 C180 1.262 1_655 S
O188 Zn145 1.981 . S
O188 C180 1.245 . S
C189 O171 1.245 1_554 S
C189 O172 1.263 . S
O190 Zn161 1.945 . S
O190 C186 1.263 . S
O191 Zn150 1.981 . S
O191 C186 1.244 1_655 S
C192 O173 1.276 1_545 S
C192 O193 1.246 . S
O193 C192 1.246 . S
C194 O175 1.276 1_565 S
C194 O195 1.246 . S
O195 C194 1.246 . S
C196 C197 1.369 1_655 S
C196 C198 1.419 . S
C196 H200 0.930 . S
C197 C196 1.369 1_455 S
C197 C206 1.429 . S
C198 C196 1.419 . S
C198 C199 1.363 1_655 S
C198 H201 0.929 . S
C199 C198 1.363 1_455 S
C199 C205 1.428 . S
H200 C196 0.930 . S
H201 C198 0.929 . S
S202 N203 1.613 . S
S202 N204 1.610 . S
N203 S202 1.613 . S
N203 C206 1.350 . S
N204 S202 1.610 . S
N204 C205 1.351 . S
C205 C199 1.428 . S
C205 N204 1.351 . S
C205 C206 1.434 . S
C206 C197 1.429 . S
C206 N203 1.350 . S
C206 C205 1.434 . S
C207 C208 1.369 1_565 S
C207 C209 1.419 . S
C207 H211 0.930 . S
C208 C207 1.369 1_545 S
C208 C217 1.429 . S
C209 C207 1.419 . S
C209 C210 1.363 1_565 S
C209 H212 0.929 . S
C210 C209 1.363 1_545 S
C210 C216 1.428 . S
H211 C207 0.930 . S
H212 C209 0.929 . S
S213 N214 1.613 . S
S213 N215 1.610 . S
N214 S213 1.613 . S
N214 C217 1.350 . S
N215 S213 1.610 . S
N215 C216 1.351 . S
C216 C210 1.428 . S
C216 N215 1.351 . S
C216 C217 1.434 . S
C217 C208 1.429 . S
C217 N214 1.350 . S
C217 C216 1.434 . S
C218 C219 1.369 1_455 S
C218 C220 1.419 . S
C218 H222 0.930 . S
C219 C218 1.369 1_655 S
C219 C228 1.429 . S
C220 C218 1.419 . S
C220 C221 1.363 1_455 S
C220 H223 0.929 . S
C221 C220 1.363 1_655 S
C221 C227 1.428 . S
H222 C218 0.930 . S
H223 C220 0.929 . S
S224 N225 1.613 . S
S224 N226 1.610 . S
N225 S224 1.613 . S
N225 C228 1.350 . S
N226 S224 1.610 . S
N226 C227 1.351 . S
C227 C221 1.428 . S
C227 N226 1.351 . S
C227 C228 1.434 . S
C228 C219 1.429 . S
C228 N225 1.350 . S
C228 C227 1.434 . S
C229 C230 1.369 1_545 S
C229 C231 1.419 . S
C229 H233 0.930 . S
C230 C229 1.369 1_565 S
C230 C239 1.429 . S
C231 C229 1.419 . S
C231 C232 1.363 1_545 S
C231 H234 0.929 . S
C232 C231 1.363 1_565 S
C232 C238 1.428 . S
H233 C229 0.930 . S
H234 C231 0.929 . S
S235 N236 1.613 . S
S235 N237 1.610 . S
N236 S235 1.613 . S
N236 C239 1.350 . S
N237 S235 1.610 . S
N237 C238 1.351 . S
C238 C232 1.428 . S
C238 N237 1.351 . S
C238 C239 1.434 . S
C239 C230 1.429 . S
C239 N236 1.350 . S
C239 C238 1.434 . S
C240 C241 1.369 . S
C240 C242 1.419 . S
C240 H244 0.930 . S
C241 C240 1.369 . S
C241 C250 1.429 . S
C242 C240 1.419 . S
C242 C243 1.363 . S
C242 H245 0.929 . S
C243 C242 1.363 . S
C243 C249 1.428 . S
H244 C240 0.930 . S
H245 C242 0.929 . S
S246 N247 1.613 1_655 S
S246 N248 1.611 . S
N247 S246 1.613 1_455 S
N247 C250 1.348 1_455 S
N248 S246 1.611 . S
N248 C249 1.351 . S
C249 C243 1.428 . S
C249 N248 1.351 . S
C249 C250 1.434 . S
C250 C241 1.429 . S
C250 N247 1.348 1_655 S
C250 C249 1.434 . S
C251 C252 1.369 1_545 S
C251 C253 1.419 . S
C251 H255 0.930 . S
C252 C251 1.369 1_565 S
C252 C261 1.429 . S
C253 C251 1.419 . S
C253 C254 1.363 1_545 S
C253 H256 0.929 . S
C254 C253 1.363 1_565 S
C254 C260 1.428 . S
H255 C251 0.930 . S
H256 C253 0.929 . S
S257 N258 1.613 . S
S257 N259 1.610 . S
N258 S257 1.613 . S
N258 C261 1.350 . S
N259 S257 1.610 . S
N259 C260 1.351 . S
C260 C254 1.428 . S
C260 N259 1.351 . S
C260 C261 1.434 . S
C261 C252 1.429 . S
C261 N258 1.350 . S
C261 C260 1.434 . S
C262 C263 1.369 1_655 S
C262 C264 1.419 . S
C262 H266 0.930 . S
C263 C262 1.369 1_455 S
C263 C272 1.429 . S
C264 C262 1.419 . S
C264 C265 1.363 1_655 S
C264 H267 0.929 . S
C265 C264 1.363 1_455 S
C265 C271 1.428 . S
H266 C262 0.930 . S
H267 C264 0.929 . S
S268 N269 1.613 . S
S268 N270 1.610 . S
N269 S268 1.613 . S
N269 C272 1.350 . S
N270 S268 1.610 . S
N270 C271 1.351 . S
C271 C265 1.428 . S
C271 N270 1.351 . S
C271 C272 1.434 . S
C272 C263 1.429 . S
C272 N269 1.350 . S
C272 C271 1.434 . S
C273 C274 1.369 1_565 S
C273 C275 1.419 . S
C273 H277 0.930 . S
C274 C273 1.369 1_545 S
C274 C283 1.429 . S
C275 C273 1.419 . S
C275 C276 1.363 1_565 S
C275 H278 0.929 . S
C276 C275 1.363 1_545 S
C276 C282 1.428 . S
H277 C273 0.930 . S
H278 C275 0.929 . S
S279 N280 1.613 . S
S279 N281 1.610 . S
N280 S279 1.613 . S
N280 C283 1.350 . S
N281 S279 1.610 . S
N281 C282 1.351 . S
C282 C276 1.428 . S
C282 N281 1.351 . S
C282 C283 1.434 . S
C283 C274 1.429 . S
C283 N280 1.350 . S
C283 C282 1.434 . S
C284 C285 1.369 . S
C284 C286 1.419 . S
C284 H288 0.930 . S
C285 C284 1.369 . S
C285 C294 1.429 1_554 S
C286 C284 1.419 . S
C286 C287 1.363 . S
C286 H289 0.929 . S
C287 C286 1.363 . S
C287 C293 1.428 1_554 S
H288 C284 0.930 . S
H289 C286 0.929 . S
S290 N291 1.613 . S
S290 N292 1.610 . S
N291 S290 1.613 . S
N291 C294 1.350 . S
N292 S290 1.610 . S
N292 C293 1.351 . S
C293 C287 1.428 1_556 S
C293 N292 1.351 . S
C293 C294 1.434 . S
C294 C285 1.429 1_556 S
C294 N291 1.350 . S
C294 C293 1.434 . S
C295 C296 1.369 1_556 S
C295 C297 1.419 . S
C295 H299 0.930 . S
C296 C295 1.369 1_554 S
C296 C305 1.429 . S
C297 C295 1.419 . S
C297 C298 1.363 1_556 S
C297 H300 0.929 . S
C298 C297 1.363 1_554 S
C298 C304 1.428 . S
H299 C295 0.930 . S
H300 C297 0.929 . S
S301 N302 1.613 . S
S301 N303 1.610 . S
N302 S301 1.613 . S
N302 C305 1.350 . S
N303 S301 1.610 . S
N303 C304 1.351 . S
C304 C298 1.428 . S
C304 N303 1.351 . S
C304 C305 1.434 . S
C305 C296 1.429 . S
C305 N302 1.350 . S
C305 C304 1.434 . S
C306 C307 1.369 1_556 S
C306 C308 1.419 . S
C306 H310 0.930 . S
C307 C306 1.369 1_554 S
C307 C316 1.429 . S
C308 C306 1.419 . S
C308 C309 1.363 1_556 S
C308 H311 0.929 . S
C309 C308 1.363 1_554 S
C309 C315 1.428 . S
H310 C306 0.930 . S
H311 C308 0.929 . S
S312 N313 1.613 . S
S312 N314 1.610 . S
N313 S312 1.613 . S
N313 C316 1.350 . S
N314 S312 1.610 . S
N314 C315 1.351 . S
C315 C309 1.428 . S
C315 N314 1.351 . S
C315 C316 1.434 . S
C316 C307 1.429 . S
C316 N313 1.350 . S
C316 C315 1.434 . S
C317 C318 1.369 1_556 S
C317 C319 1.419 . S
C317 H321 0.930 . S
C318 C317 1.369 1_554 S
C318 C327 1.429 . S
C319 C317 1.419 . S
C319 C320 1.363 1_556 S
C319 H322 0.929 . S
C320 C319 1.363 1_554 S
C320 C326 1.428 . S
H321 C317 0.930 . S
H322 C319 0.929 . S
S323 N324 1.613 . S
S323 N325 1.610 . S
N324 S323 1.613 . S
N324 C327 1.350 . S
N325 S323 1.610 . S
N325 C326 1.351 . S
C326 C320 1.428 . S
C326 N325 1.351 . S
C326 C327 1.434 . S
C327 C318 1.429 . S
C327 N324 1.350 . S
C327 C326 1.434 . S
C199 C180 1.921 . S
C197 C36 1.987 1_455 S
C210 C176 1.397 . S
C208 C78 1.482 1_545 S
C221 C186 1.920 1_655 S
C219 C30 1.958 . S
C232 C170 1.388 1_565 S
C230 C69 1.500 1_565 S
C241 C21 2.093 1_655 S
C243 C162 1.998 . S
C254 C194 1.473 . S
C252 C93 1.596 1_565 S
C263 C45 2.063 . S
C265 C148 1.998 . S
C274 C84 1.609 1_545 S
C276 C192 1.481 . S
C285 C132 1.121 . S
C287 C174 1.096 . S
C296 C126 1.090 . S
C298 C189 1.065 . S
C309 C183 1.069 . S
C307 C141 1.094 . S
C320 C178 1.090 . S
C318 C117 1.128 . S
