# Generated by pormake.
# Topology anh, (6,3)-cn, num edge types: 1
# Building blocks:
#     Node 0, Type 0, BuildingBlock: BETFAJ_clean_sbu_0, # of connection points: 6
#     Node 1, Type 0, BuildingBlock: BETFAJ_clean_sbu_0, # of connection points: 6
#     Node 2, Type 0, BuildingBlock: BETFAJ_clean_sbu_0, # of connection points: 6
#     Node 3, Type 1, BuildingBlock: VETTIZ_charged_linker_0, # of connection points: 3
#     Node 4, Type 1, BuildingBlock: VETTIZ_charged_linker_0, # of connection points: 3
#     Node 5, Type 1, BuildingBlock: VETTIZ_charged_linker_0, # of connection points: 3
#     Node 6, Type 1, BuildingBlock: VETTIZ_charged_linker_0, # of connection points: 3
#     Node 7, Type 1, BuildingBlock: VETTIZ_charged_linker_0, # of connection points: 3
#     Node 8, Type 1, BuildingBlock: VETTIZ_charged_linker_0, # of connection points: 3
#     Edge 9, Type (0, 1), BuildingBlock: KIFKEQ_clean_linker_1, # of connection points: 2
#     Edge 10, Type (0, 1), BuildingBlock: KIFKEQ_clean_linker_1, # of connection points: 2
#     Edge 11, Type (0, 1), BuildingBlock: KIFKEQ_clean_linker_1, # of connection points: 2
#     Edge 12, Type (0, 1), BuildingBlock: KIFKEQ_clean_linker_1, # of connection points: 2
#     Edge 13, Type (0, 1), BuildingBlock: KIFKEQ_clean_linker_1, # of connection points: 2
#     Edge 14, Type (0, 1), BuildingBlock: KIFKEQ_clean_linker_1, # of connection points: 2
#     Edge 15, Type (0, 1), BuildingBlock: KIFKEQ_clean_linker_1, # of connection points: 2
#     Edge 16, Type (0, 1), BuildingBlock: KIFKEQ_clean_linker_1, # of connection points: 2
#     Edge 17, Type (0, 1), BuildingBlock: KIFKEQ_clean_linker_1, # of connection points: 2
#     Edge 18, Type (0, 1), BuildingBlock: KIFKEQ_clean_linker_1, # of connection points: 2
#     Edge 19, Type (0, 1), BuildingBlock: KIFKEQ_clean_linker_1, # of connection points: 2
#     Edge 20, Type (0, 1), BuildingBlock: KIFKEQ_clean_linker_1, # of connection points: 2
#     Edge 21, Type (0, 1), BuildingBlock: KIFKEQ_clean_linker_1, # of connection points: 2
#     Edge 22, Type (0, 1), BuildingBlock: KIFKEQ_clean_linker_1, # of connection points: 2
#     Edge 23, Type (0, 1), BuildingBlock: KIFKEQ_clean_linker_1, # of connection points: 2
#     Edge 24, Type (0, 1), BuildingBlock: KIFKEQ_clean_linker_1, # of connection points: 2
#     Edge 25, Type (0, 1), BuildingBlock: KIFKEQ_clean_linker_1, # of connection points: 2
#     Edge 26, Type (0, 1), BuildingBlock: KIFKEQ_clean_linker_1, # of connection points: 2
# Relax obj value: 0.185
# Max RMSD: 0.210
# Mean RMSD: 0.158
data_MOF--net-anh--node1-BETFAJ_clean_sbu_0--node2-VETTIZ_charged_linker_0--edge1-KIFKEQ_clean_linker_1
_symmetry_space_group_name_H-M    P1
_symmetry_Int_Tables_number       1
_symmetry_cell_setting            triclinic
loop_
_symmetry_equiv_pos_as_xyz
'x, y, z'
_cell_length_a     37.838836
_cell_length_b     43.898409
_cell_length_c     67.759135
_cell_angle_alpha  92.059713
_cell_angle_beta   89.554936
_cell_angle_gamma 128.92047
loop_
_atom_site_label
_atom_site_type_symbol
_atom_site_fract_x
_atom_site_fract_y
_atom_site_fract_z
_atom_type_partial_charge
Sm0 Sm 0.09288 0.52139 0.13766 0.0
Sm1 Sm 1.03305 0.54552 0.15399 0.0
C2 C 0.14414 0.51225 0.11647 0.0
C3 C 0.18811 0.52196 0.1217 0.0
C4 C 0.22914 0.56024 0.11989 0.0
C5 C 0.26961 0.5708 0.12785 0.0
C6 C 0.26955 0.54335 0.13786 0.0
C7 C 0.22904 0.50473 0.13888 0.0
C8 C 0.18882 0.49407 0.13076 0.0
C9 C 0.09335 0.52367 0.1786 0.0
C10 C 0.14168 0.61522 0.14912 0.0
C11 C 0.97703 0.55105 0.17415 0.0
C12 C 0.9346 0.52249 0.18443 0.0
C13 C 0.91041 0.53361 0.19308 0.0
C14 C 0.86558 0.50497 0.19885 0.0
C15 C 0.84358 0.46474 0.19508 0.0
C16 C 0.87008 0.45421 0.18841 0.0
C17 C 0.91533 0.4829 0.18352 0.0
C18 C 1.05132 0.55326 0.1144 0.0
C19 C 0.98424 0.45115 0.14346 0.0
O20 O 0.14441 0.54205 0.11452 0.0
O21 O 0.10895 0.48367 0.12614 0.0
O22 O 0.07405 0.53089 0.16698 0.0
O23 O 0.11509 0.51491 0.16829 0.0
O24 O 0.1435 0.58961 0.13919 0.0
O25 O 0.10451 0.60478 0.15812 0.0
O26 O 1.01391 0.55951 0.18194 0.0
O27 O 0.97448 0.54542 0.15492 0.0
O28 O 1.04204 0.52578 0.12464 0.0
O29 O 1.04772 0.57677 0.12472 0.0
O30 O 0.98241 0.47736 0.1526 0.0
O31 O 1.02146 0.46123 0.13469 0.0
H32 H 0.22982 0.58239 0.11288 0.0
H33 H 0.30064 0.60061 0.12665 0.0
H34 H 0.22846 0.48271 0.14599 0.0
H35 H 0.15798 0.46423 0.1322 0.0
H36 H 0.92529 0.56423 0.19444 0.0
H37 H 0.84754 0.51462 0.20508 0.0
H38 H 0.85551 0.42399 0.18541 0.0
H39 H 0.93426 0.47393 0.17778 0.0
Sm40 Sm 0.60821 0.02717 0.47804 0.0
Sm41 Sm 0.54741 0.04785 0.4732 0.0
C42 C 0.64796 0.99708 0.48796 0.0
C43 C 0.63597 0.95858 0.49133 0.0
C44 C 0.59814 0.93046 0.50249 0.0
C45 C 0.58902 0.89502 0.50629 0.0
C46 C 0.61728 0.88691 0.49886 0.0
C47 C 0.65419 0.9146 0.48716 0.0
C48 C 0.6635 0.95013 0.4835 0.0
C49 C 0.59893 0.04014 0.43987 0.0
C50 C 0.49685 0.95596 0.47288 0.0
C51 C 0.50911 0.07932 0.46349 0.0
C52 C 0.51682 0.11645 0.46807 0.0
C53 C 0.54432 0.14881 0.45602 0.0
C54 C 0.55236 0.18406 0.46068 0.0
C55 C 0.53306 0.18772 0.47749 0.0
C56 C 0.50476 0.15508 0.48926 0.0
C57 C 0.49661 0.11986 0.48458 0.0
C58 C 0.55855 0.03709 0.51169 0.0
C59 C 0.65979 0.11967 0.47742 0.0
O60 O 0.63425 1.01039 0.50089 0.0
O61 O 0.64454 1.00397 0.46977 0.0
O62 O 0.56666 0.02049 0.45175 0.0
O63 O 0.63736 0.05301 0.44782 0.0
O64 O 0.53559 0.96715 0.48063 0.0
O65 O 0.49418 0.98198 0.46562 0.0
O66 O 0.53909 0.08129 0.45253 0.0
O67 O 0.49507 0.05527 0.47789 0.0
O68 O 0.58989 0.05555 0.49935 0.0
O69 O 0.52016 0.02507 0.50416 0.0
O70 O 0.61949 0.1087 0.47221 0.0
O71 O 0.6645 0.09367 0.4826 0.0
H72 H 0.576 0.93606 0.50849 0.0
H73 H 0.56006 0.87406 0.51518 0.0
H74 H 0.67684 0.9094 0.4814 0.0
H75 H 0.69276 0.97137 0.4748 0.0
H76 H 0.56004 0.14708 0.44308 0.0
H77 H 0.57449 0.20871 0.45137 0.0
H78 H 0.4887 0.15669 0.50211 0.0
H79 H 0.47464 0.09538 0.49401 0.0
Sm80 Sm 0.61088 0.56275 0.83957 0.0
Sm81 Sm 0.54833 0.47657 0.84355 0.0
C82 C 0.65273 0.63543 0.82854 0.0
C83 C 0.64274 0.66219 0.82448 0.0
C84 C 0.66549 0.68836 0.80919 0.0
C85 C 0.65691 0.71414 0.80495 0.0
C86 C 0.62542 0.7144 0.81598 0.0
C87 C 0.60277 0.68824 0.83141 0.0
C88 C 0.61117 0.66219 0.83556 0.0
C89 C 0.60353 0.54009 0.87745 0.0
C90 C 0.49765 0.51673 0.84402 0.0
C91 C 0.50837 0.40338 0.85289 0.0
C92 C 0.51497 0.37388 0.8486 0.0
C93 C 0.55387 0.37939 0.85525 0.0
C94 C 0.55979 0.35154 0.85042 0.0
C95 C 0.5272 0.31785 0.83869 0.0
C96 C 0.48812 0.31221 0.8323 0.0
C97 C 0.482 0.33977 0.83728 0.0
C98 C 0.55917 0.49909 0.80529 0.0
C99 C 0.66216 0.52298 0.83982 0.0
O100 O 0.63585 0.60573 0.816 0.0
O101 O 0.65079 0.62629 0.8469 0.0
O102 O 0.57052 0.52511 0.86547 0.0
O103 O 0.64155 0.56917 0.86995 0.0
O104 O 0.53836 0.54829 0.83835 0.0
O105 O 0.49342 0.48553 0.84914 0.0
O106 O 0.53844 0.43384 0.86437 0.0
O107 O 0.4952 0.41242 0.83801 0.0
O108 O 0.5907 0.51402 0.81799 0.0
O109 O 0.5205 0.47025 0.81236 0.0
O110 O 0.6205 0.4903 0.84364 0.0
O111 O 0.66747 0.55532 0.83623 0.0
H112 H 0.69002 0.6889 0.8005 0.0
H113 H 0.6753 0.73418 0.79313 0.0
H114 H 0.57798 0.68742 0.84002 0.0
H115 H 0.59292 0.64203 0.84736 0.0
H116 H 0.58002 0.40539 0.86398 0.0
H117 H 0.59039 0.35682 0.85545 0.0
H118 H 0.46212 0.28631 0.82346 0.0
H119 H 0.45155 0.3346 0.83209 0.0
C120 C 0.67841 0.13946 0.16457 0.0
C121 C 0.71728 0.17436 0.17373 0.0
C122 C 0.72203 0.1767 0.1944 0.0
C123 C 0.65055 0.11123 0.19681 0.0
C124 C 0.64558 0.10789 0.17646 0.0
C125 C 0.60275 0.06744 0.16985 0.0
H126 H 0.41122 0.88861 0.19905 0.0
C127 C 0.61101 0.07459 0.20524 0.0
C128 C 0.58238 0.0482 0.18962 0.0
H129 H 0.45036 0.92179 0.13876 0.0
H130 H 0.51847 0.9863 0.15048 0.0
H131 H 0.50791 0.92405 0.21566 0.0
H132 H 0.4307 0.96491 0.21363 0.0
H133 H 0.4613 0.98448 0.23605 0.0
H134 H 0.42098 0.93194 0.23188 0.0
H135 H 0.45918 0.90522 0.23056 0.0
H136 H 0.51553 0.9467 0.23886 0.0
C137 C 0.61689 0.04646 0.15763 0.0
C138 C 0.57154 0.07207 0.1583 0.0
C139 C 0.59899 0.06602 0.28011 0.0
C140 C 0.56505 0.03714 0.29251 0.0
C141 C 0.52534 1.0025 0.28402 0.0
C142 C 0.51973 0.99639 0.26349 0.0
C143 C 0.55401 0.02536 0.25121 0.0
C144 C 0.59251 0.05965 0.25956 0.0
C145 C 0.62442 0.08768 0.24419 0.0
C146 C 0.59891 0.06428 0.22522 0.0
C147 C 0.55812 0.0278 0.22948 0.0
C148 C 0.66985 0.0947 0.24651 0.0
C149 C 0.62847 0.12506 0.24681 0.0
C150 C 0.43395 0.90963 0.18819 0.0
C151 C 0.42471 0.89997 0.16795 0.0
C152 C 0.45646 0.92831 0.1545 0.0
C153 C 0.49593 0.96576 0.16132 0.0
C154 C 0.50403 0.97487 0.18181 0.0
C155 C 0.47289 0.94653 0.19468 0.0
C156 C 0.48526 0.95979 0.21587 0.0
C157 C 0.5295 1.00067 0.21396 0.0
C158 C 0.54108 1.0102 0.19402 0.0
C159 C 0.49211 0.93257 0.22594 0.0
C160 C 0.44769 0.96014 0.225 0.0
H161 H 0.69519 0.1499 0.22154 0.0
H162 H 0.67414 0.1367 0.14866 0.0
H163 H 0.56731 0.09178 0.16672 0.0
H164 H 0.53719 0.04393 0.15573 0.0
H165 H 0.58622 0.08495 0.14377 0.0
H166 H 0.64508 0.04967 0.16524 0.0
H167 H 0.62881 0.05915 0.14284 0.0
H168 H 0.58905 0.0147 0.15562 0.0
H169 H 0.62969 0.09311 0.28626 0.0
H170 H 0.49897 0.97972 0.29331 0.0
H171 H 0.48898 0.9691 0.25805 0.0
H172 H 0.664 0.06822 0.25188 0.0
H173 H 0.69318 0.11928 0.25729 0.0
H174 H 0.68744 0.10042 0.23236 0.0
H175 H 0.59612 0.11776 0.2521 0.0
H176 H 0.63483 0.13984 0.23283 0.0
H177 H 0.65556 0.14629 0.25777 0.0
H178 H 0.75136 0.2031 0.20178 0.0
C179 C 0.68913 0.14566 0.2059 0.0
C180 C 0.59563 0.63349 0.53708 0.0
C181 C 0.59779 0.66278 0.54784 0.0
C182 C 0.59545 0.66157 0.5686 0.0
C183 C 0.59215 0.60475 0.56779 0.0
C184 C 0.5929 0.60479 0.54739 0.0
C185 C 0.59094 0.57158 0.53865 0.0
H186 H 0.58821 0.41778 0.55459 0.0
C187 C 0.59108 0.57244 0.57417 0.0
C188 C 0.59035 0.55266 0.55721 0.0
H189 H 0.58171 0.45737 0.49827 0.0
H190 H 0.58479 0.5089 0.51498 0.0
H191 H 0.66417 0.50254 0.57451 0.0
H192 H 0.51817 0.42376 0.57571 0.0
H193 H 0.5375 0.44389 0.59978 0.0
H194 H 0.552 0.41511 0.58878 0.0
H195 H 0.63264 0.45892 0.58841 0.0
H196 H 0.64923 0.50476 0.59879 0.0
C197 C 0.63439 0.58925 0.52662 0.0
C198 C 0.54629 0.54378 0.52637 0.0
C199 C 0.59324 0.5535 0.64756 0.0
C200 C 0.59394 0.52701 0.65824 0.0
C201 C 0.59514 0.49929 0.64783 0.0
C202 C 0.59494 0.49759 0.62713 0.0
C203 C 0.59362 0.52394 0.61665 0.0
C204 C 0.5932 0.55148 0.62689 0.0
C205 C 0.5926 0.57753 0.61336 0.0
C206 C 0.59204 0.5607 0.59328 0.0
C207 C 0.5925 0.52932 0.5953 0.0
C208 C 0.63702 0.62007 0.61722 0.0
C209 C 0.54821 0.57176 0.61694 0.0
C210 C 0.58807 0.43783 0.54578 0.0
C211 C 0.58526 0.43378 0.52508 0.0
C212 C 0.58383 0.45987 0.51426 0.0
C213 C 0.5857 0.48978 0.52398 0.0
C214 C 0.58863 0.4934 0.54475 0.0
C215 C 0.58954 0.46743 0.55522 0.0
C216 C 0.59137 0.47448 0.57715 0.0
C217 C 0.59141 0.50899 0.57826 0.0
C218 C 0.59007 0.52031 0.55928 0.0
C219 C 0.63643 0.48551 0.58532 0.0
C220 C 0.54779 0.43746 0.58599 0.0
H221 H 0.59151 0.63411 0.59436 0.0
H222 H 0.59705 0.63342 0.52112 0.0
H223 H 0.51813 0.54131 0.53361 0.0
H224 H 0.53436 0.51349 0.52504 0.0
H225 H 0.55013 0.55479 0.51136 0.0
H226 H 0.66475 0.61488 0.53486 0.0
H227 H 0.63223 0.5994 0.51223 0.0
H228 H 0.64132 0.56856 0.52383 0.0
H229 H 0.59291 0.57549 0.65511 0.0
H230 H 0.59523 0.4783 0.65571 0.0
H231 H 0.59545 0.47557 0.62011 0.0
H232 H 0.66567 0.62039 0.62135 0.0
H233 H 0.63299 0.6351 0.62947 0.0
H234 H 0.64886 0.63795 0.60401 0.0
H235 H 0.51994 0.54112 0.62088 0.0
H236 H 0.53559 0.57635 0.60363 0.0
H237 H 0.55273 0.59145 0.62922 0.0
H238 H 0.59564 0.68291 0.57725 0.0
C239 C 0.59276 0.63294 0.57857 0.0
C240 C 0.18756 0.51912 0.84578 0.0
C241 C 0.21886 0.51788 0.85747 0.0
C242 C 0.21456 0.51874 0.87805 0.0
C243 C 0.15393 0.52396 0.8757 0.0
C244 C 0.15458 0.52166 0.85536 0.0
C245 C 0.11586 0.52149 0.84698 0.0
H246 H 0.9604 0.55671 0.87529 0.0
C247 C 0.12011 0.52933 0.88214 0.0
C248 C 0.09584 0.52761 0.86558 0.0
H249 H 0.94511 0.49927 0.81956 0.0
H250 H 1.01125 0.50225 0.82836 0.0
H251 H 0.95865 0.503 0.89703 0.0
H252 H 0.06925 0.61696 0.87886 0.0
H253 H 0.08487 0.61529 0.90285 0.0
H254 H 1.03266 0.6078 0.89879 0.0
H255 H 0.97773 0.54595 0.91144 0.0
H256 H 0.99806 0.51906 0.91601 0.0
C257 C 0.07962 0.48165 0.83649 0.0
C258 C 0.13547 0.55502 0.83283 0.0
C259 C 0.11164 0.55044 0.95618 0.0
C260 C 0.09061 0.56303 0.96702 0.0
C261 C 0.07098 0.57644 0.95657 0.0
C262 C 0.06872 0.57421 0.93597 0.0
C263 C 0.08643 0.55854 0.92536 0.0
C264 C 0.10958 0.54903 0.9354 0.0
C265 C 0.13133 0.53802 0.92143 0.0
C266 C 0.11345 0.53873 0.90141 0.0
C267 C 0.08618 0.54968 0.90399 0.0
C268 C 0.11311 0.49606 0.92604 0.0
C269 C 0.18373 0.57033 0.92389 0.0
C270 C 0.97115 0.54547 0.86442 0.0
C271 C 0.94665 0.52864 0.84651 0.0
C272 C 0.96247 0.5129 0.83361 0.0
C273 C 1.00116 0.51474 0.83864 0.0
C274 C 1.02466 0.53161 0.8571 0.0
C275 C 1.00751 0.54549 0.86946 0.0
C276 C 1.02819 0.55653 0.88956 0.0
C277 C 0.06024 0.54696 0.88801 0.0
C278 C 0.06191 0.5341 0.86871 0.0
C279 C 0.98907 0.53024 0.90438 0.0
C280 C 1.05489 0.60136 0.89289 0.0
H281 H 0.1828 0.52125 0.90268 0.0
H282 H 0.18823 0.51752 0.82983 0.0
H283 H 0.16204 0.58367 0.8405 0.0
H284 H 0.1083 0.5556 0.82734 0.0
H285 H 0.151 0.55137 0.81993 0.0
H286 H 0.0654 0.45757 0.84689 0.0
H287 H 0.09455 0.47653 0.8239 0.0
H288 H 1.05134 0.48025 0.8307 0.0
H289 H 0.12826 0.54093 0.96357 0.0
H290 H 0.05666 0.58832 0.96432 0.0
H291 H 1.05214 0.58398 0.92923 0.0
H292 H 0.07646 0.4773 0.92975 0.0
H293 H 0.1317 0.49658 0.93882 0.0
H294 H 0.11482 0.4806 0.9133 0.0
H295 H 0.19328 0.59755 0.93147 0.0
H296 H 0.20093 0.58017 0.9095 0.0
H297 H 0.19893 0.56021 0.93275 0.0
H298 H 0.23636 0.51749 0.88766 0.0
C299 C 0.1831 0.52146 0.88695 0.0
C300 C 0.96921 0.42836 0.45312 0.0
C301 C 0.93322 0.39267 0.44325 0.0
C302 C 0.93411 0.38952 0.42255 0.0
C303 C 1.00362 0.45644 0.42147 0.0
C304 C 1.00409 0.46011 0.44185 0.0
C305 C 1.04461 0.50117 0.44915 0.0
H306 H 0.23836 0.68272 0.42379 0.0
C307 C 1.043 0.49409 0.41374 0.0
C308 C 0.06785 0.52095 0.4298 0.0
H309 H 0.1889 0.64777 0.48283 0.0
H310 H 0.12343 0.58297 0.46984 0.0
H311 H 0.21715 0.6037 0.40778 0.0
H312 H 0.14627 0.65053 0.40592 0.0
H313 H 0.13143 0.62336 0.3836 0.0
H314 H 0.19025 0.66467 0.38888 0.0
H315 H 0.23414 0.64381 0.39292 0.0
H316 H 0.19442 0.59371 0.38373 0.0
C317 C 0.07499 0.498 0.46243 0.0
C318 C 1.02678 0.52059 0.45985 0.0
C319 C 0.063 0.50586 0.33922 0.0
C320 C 0.09469 0.53735 0.32736 0.0
C321 C 0.1303 0.57366 0.33648 0.0
C322 C 0.13428 0.57866 0.35708 0.0
C323 C 0.10208 0.54712 0.36881 0.0
C324 C 0.06718 0.51153 0.35984 0.0
C325 C 1.03547 0.48176 0.37467 0.0
C326 C 0.05708 0.50544 0.39402 0.0
C327 C 0.09614 0.54345 0.39045 0.0
C328 C 1.03746 0.44754 0.37265 0.0
C329 C 0.98773 0.46989 0.37097 0.0
C330 C 0.21377 0.66107 0.43402 0.0
C331 C 0.21925 0.67013 0.45433 0.0
C332 C 0.18558 0.64137 0.46706 0.0
C333 C 0.14773 0.60383 0.4595 0.0
C334 C 0.1431 0.59523 0.43896 0.0
C335 C 0.17589 0.62422 0.42674 0.0
C336 C 0.16561 0.61209 0.40535 0.0
C337 C 0.12196 0.57055 0.40643 0.0
C338 C 0.10825 0.55998 0.42611 0.0
C339 C 0.20481 0.61355 0.39681 0.0
C340 C 0.15826 0.63903 0.39526 0.0
H341 H 0.96669 0.41602 0.39603 0.0
H342 H 0.96951 0.43169 0.46904 0.0
H343 H 0.9992 0.51617 0.45094 0.0
H344 H 1.05328 0.55254 0.46208 0.0
H345 H 1.01283 0.50769 0.47445 0.0
H346 H 0.08185 0.47924 0.45497 0.0
H347 H 0.05813 0.48471 0.47662 0.0
H348 H 0.10834 0.52668 0.46573 0.0
H349 H 1.03501 0.47769 0.3326 0.0
H350 H 0.1554 0.59821 0.32764 0.0
H351 H 0.16237 0.607 0.36301 0.0
H352 H 0.07187 0.45827 0.36827 0.0
H353 H 1.01286 0.42528 0.36123 0.0
H354 H 1.03137 0.43304 0.38671 0.0
H355 H 0.99036 0.49465 0.36519 0.0
H356 H 0.968 0.46235 0.38461 0.0
H357 H 0.96766 0.44496 0.36 0.0
H358 H 0.90754 0.36242 0.41461 0.0
C359 C 0.96878 0.42085 0.41172 0.0
C360 C 0.58653 0.93646 0.78128 0.0
C361 C 0.58736 0.90855 0.77078 0.0
C362 C 0.58983 0.90951 0.75003 0.0
C363 C 0.58908 0.96422 0.75033 0.0
C364 C 0.58707 0.96385 0.77072 0.0
C365 C 0.58486 0.995 0.77913 0.0
H366 H 0.56731 0.13703 0.76136 0.0
C367 C 0.58848 0.99552 0.74365 0.0
C368 C 0.58592 0.01385 0.76042 0.0
H369 H 0.57096 0.09779 0.81825 0.0
H370 H 0.58112 0.05327 0.80229 0.0
H371 H 0.64934 0.14469 0.74436 0.0
H372 H 0.50514 0.05275 0.7385 0.0
H373 H 0.52843 0.05977 0.71493 0.0
H374 H 0.53466 0.09962 0.72769 0.0
H375 H 0.61532 0.14709 0.72725 0.0
H376 H 0.6401 0.12407 0.72044 0.0
C377 C 0.62743 0.02399 0.79242 0.0
C378 C 0.53946 0.97439 0.79002 0.0
C379 C 0.59174 0.01613 0.67003 0.0
C380 C 0.5916 0.04277 0.65918 0.0
C381 C 0.59101 0.07097 0.66943 0.0
C382 C 0.58987 0.07224 0.6901 0.0
C383 C 0.5894 0.04508 0.70075 0.0
C384 C 0.59089 0.01798 0.6907 0.0
C385 C 0.59115 0.992 0.70447 0.0
C386 C 0.58938 1.0079 0.72444 0.0
C387 C 0.58791 0.03866 0.72213 0.0
C388 C 0.63642 0.9989 0.70178 0.0
C389 C 0.5477 0.94922 0.70005 0.0
C390 C 0.56994 0.11862 0.77038 0.0
C391 C 0.56756 0.12034 0.79102 0.0
C392 C 0.57246 0.09676 0.80229 0.0
C393 C 0.57812 0.07086 0.79299 0.0
C394 C 0.5793 0.06883 0.77222 0.0
C395 C 0.57604 0.09311 0.76138 0.0
C396 C 0.57973 0.08862 0.73959 0.0
C397 C 0.58452 0.05685 0.73894 0.0
C398 C 0.58392 0.04492 0.75804 0.0
C399 C 0.62309 0.12808 0.73237 0.0
C400 C 0.53492 0.0747 0.72948 0.0
H401 H 0.59259 0.93593 0.72405 0.0
H402 H 0.58461 0.93646 0.79723 0.0
H403 H 0.51115 0.9482 0.78122 0.0
H404 H 0.52956 0.99309 0.7923 0.0
H405 H 0.54107 0.96444 0.80459 0.0
H406 H 0.65795 0.02976 0.78568 0.0
H407 H 0.62315 0.012 0.8072 0.0
H408 H 0.6358 0.05297 0.7943 0.0
H409 H 0.5927 0.9944 0.6626 0.0
H410 H 0.59041 0.09156 0.66142 0.0
H411 H 0.58888 0.09408 0.69697 0.0
H412 H 0.66451 0.0298 0.69815 0.0
H413 H 0.63349 0.97978 0.68959 0.0
H414 H 0.64829 0.99439 0.71538 0.0
H415 H 0.5188 0.94827 0.69554 0.0
H416 H 0.53542 0.93087 0.71309 0.0
H417 H 0.55321 0.93507 0.68787 0.0
H418 H 0.59143 0.88896 0.74161 0.0
C419 C 0.59076 0.93705 0.73982 0.0
C420 C 0.52515 0.335 0.13745 0.0
C421 C 0.5579 0.33061 0.13238 0.0
C422 C 0.57432 0.33895 0.11282 0.0
C423 C 0.53712 0.36691 0.10679 0.0
C424 C 0.51885 0.35643 0.12541 0.0
C425 C 0.50365 0.37917 0.13276 0.0
H426 H 0.49342 0.52491 0.12001 0.0
C427 C 0.53233 0.39564 0.09972 0.0
C428 C 0.51431 0.40391 0.11523 0.0
H429 H 0.45794 0.4568 0.17181 0.0
H430 H 0.47511 0.41836 0.15476 0.0
H431 H 0.58398 0.53403 0.10813 0.0
H432 H 0.443 0.45627 0.09112 0.0
H433 H 0.47099 0.45658 0.07028 0.0
H434 H 0.48267 0.50149 0.07913 0.0
H435 H 0.55604 0.54781 0.09427 0.0
H436 H 0.58053 0.52795 0.08219 0.0
C437 C 0.53297 0.40459 0.15136 0.0
C438 C 0.45201 0.3499 0.13638 0.0
C439 C 0.56958 0.44127 0.02884 0.0
C440 C 0.56852 0.46841 0.01897 0.0
C441 C 0.55637 0.4888 0.02942 0.0
C442 C 0.5454 0.48248 0.04933 0.0
C443 C 0.54672 0.45557 0.05908 0.0
C444 C 0.55874 0.43544 0.04898 0.0
C445 C 0.56012 0.4094 0.0624 0.0
C446 C 0.54309 0.4149 0.08159 0.0
C447 C 0.53639 0.44265 0.07953 0.0
C448 C 0.61004 0.42544 0.06445 0.0
C449 C 0.52728 0.36672 0.05407 0.0
C450 C 0.491 0.50274 0.12798 0.0
C451 C 0.4754 0.49453 0.14746 0.0
C452 C 0.47043 0.46397 0.15689 0.0
C453 C 0.48046 0.44174 0.14696 0.0
C454 C 0.49616 0.45045 0.12749 0.0
C455 C 0.50093 0.48038 0.11833 0.0
C456 C 0.51534 0.48404 0.09726 0.0
C457 C 0.52083 0.45267 0.09562 0.0
C458 C 0.50949 0.43314 0.11331 0.0
C459 C 0.56125 0.52565 0.09516 0.0
C460 C 0.47634 0.47439 0.08365 0.0
H461 H 0.5782 0.36354 0.08557 0.0
H462 H 0.50978 0.32749 0.15182 0.0
H463 H 0.43419 0.32758 0.124 0.0
H464 H 0.43616 0.36413 0.13718 0.0
H465 H 0.44493 0.33422 0.15021 0.0
H466 H 0.56587 0.40996 0.15183 0.0
H467 H 0.51498 0.39017 0.16519 0.0
H468 H 0.54326 0.43439 0.15162 0.0
H469 H 0.57942 0.42563 0.02117 0.0
H470 H 0.5549 0.50951 0.02206 0.0
H471 H 0.53652 0.49903 0.05635 0.0
H472 H 0.63463 0.45647 0.06013 0.0
H473 H 0.61627 0.40812 0.05496 0.0
H474 H 0.61956 0.42579 0.07993 0.0
H475 H 0.49297 0.35791 0.05134 0.0
H476 H 0.52313 0.3457 0.0643 0.0
H477 H 0.53968 0.3635 0.03985 0.0
H478 H 0.59904 0.33566 0.10791 0.0
C479 C 0.56316 0.35622 0.09988 0.0
H480 H 0.35145 0.58089 0.12038 0.0
H481 H 0.28218 0.52897 0.17483 0.0
H482 H 0.41373 0.58265 0.13131 0.0
H483 H 0.34511 0.53145 0.18611 0.0
H484 H 0.51468 0.5724 0.14736 0.0
H485 H 0.47532 0.59957 0.15279 0.0
H486 H 0.35809 0.48758 0.1729 0.0
H487 H 0.3971 0.46081 0.16753 0.0
C488 C 0.35048 0.57131 0.13503 0.0
C489 C 0.31169 0.55383 0.14655 0.0
C490 C 0.38633 0.57255 0.14141 0.0
C491 C 0.38394 0.55646 0.15946 0.0
C492 C 0.34745 0.5433 0.17197 0.0
C493 C 0.31145 0.54177 0.16551 0.0
C494 C 0.481 0.55407 0.15353 0.0
C495 C 0.45845 0.51422 0.15652 0.0
C496 C 0.45855 0.56963 0.15666 0.0
C497 C 0.41325 0.54551 0.16282 0.0
C498 C 0.39304 0.50712 0.16822 0.0
C499 C 0.41544 0.49161 0.16509 0.0
H500 H 0.66179 0.18277 0.47408 0.0
H501 H 0.75032 0.15284 0.4788 0.0
H502 H 0.72738 0.25108 0.47023 0.0
H503 H 0.81615 0.22113 0.47414 0.0
H504 H 0.9327 0.35227 0.47378 0.0
H505 H 0.8671 0.28826 0.48542 0.0
H506 H 0.77917 0.28997 0.44598 0.0
H507 H 0.84388 0.35371 0.43514 0.0
C508 C 0.6953 0.19073 0.47432 0.0
C509 C 0.70052 0.162 0.47662 0.0
C510 C 0.73315 0.23009 0.47198 0.0
C511 C 0.77754 0.24207 0.47158 0.0
C512 C 0.78282 0.21347 0.47456 0.0
C513 C 0.74489 0.17407 0.47711 0.0
C514 C 0.89907 0.33933 0.46812 0.0
C515 C 0.89354 0.35812 0.45355 0.0
C516 C 0.86145 0.30232 0.47453 0.0
C517 C 0.8174 0.28332 0.46659 0.0
C518 C 0.81201 0.30338 0.45276 0.0
C519 C 0.84935 0.34009 0.44641 0.0
H520 H 0.61719 0.75996 0.84131 0.0
H521 H 0.61228 0.73014 0.77942 0.0
H522 H 0.6034 0.80556 0.8327 0.0
H523 H 0.59942 0.77587 0.77087 0.0
H524 H 0.53433 0.83063 0.76104 0.0
H525 H 0.53994 0.78254 0.77365 0.0
H526 H 0.64308 0.86949 0.81584 0.0
H527 H 0.63727 0.9179 0.80314 0.0
C528 C 0.61291 0.76297 0.8259 0.0
C529 C 0.61593 0.74148 0.81104 0.0
C530 C 0.6054 0.78931 0.82098 0.0
C531 C 0.60011 0.79426 0.80111 0.0
C532 C 0.60272 0.77243 0.78633 0.0
C533 C 0.61059 0.74648 0.79122 0.0
C534 C 0.55794 0.83943 0.77313 0.0
C535 C 0.58589 0.87823 0.78088 0.0
C536 C 0.56125 0.81189 0.78032 0.0
C537 C 0.59259 0.82235 0.79549 0.0
C538 C 0.61856 0.86049 0.80415 0.0
C539 C 0.61523 0.8882 0.79691 0.0
H540 H 0.78189 0.47705 0.18876 0.0
H541 H 0.78849 0.38391 0.19956 0.0
H542 H 0.7027 0.4293 0.18069 0.0
H543 H 0.70857 0.33576 0.18951 0.0
H544 H 0.6101 0.30575 0.13005 0.0
H545 H 0.67276 0.32809 0.15259 0.0
H546 H 0.62465 0.37001 0.19457 0.0
H547 H 0.56514 0.35132 0.17222 0.0
C548 C 0.76671 0.44661 0.19011 0.0
C549 C 0.79284 0.43498 0.19464 0.0
C550 C 0.72083 0.41898 0.18524 0.0
C551 C 0.69966 0.37888 0.18435 0.0
C552 C 0.72438 0.36662 0.18997 0.0
C553 C 0.77035 0.39441 0.1955 0.0
C554 C 0.61216 0.31913 0.14417 0.0
C555 C 0.58318 0.32831 0.14847 0.0
C556 C 0.64767 0.33116 0.15728 0.0
C557 C 0.654 0.35169 0.17503 0.0
C558 C 0.62074 0.3547 0.18081 0.0
C559 C 0.58603 0.34352 0.1677 0.0
H560 H 0.40851 0.92277 0.46332 0.0
H561 H 0.49206 0.89264 0.48123 0.0
H562 H 0.34195 0.85339 0.46186 0.0
H563 H 0.42546 0.82328 0.47974 0.0
H564 H 0.30787 0.70456 0.44755 0.0
H565 H 0.37444 0.77293 0.45386 0.0
H566 H 0.28993 0.79515 0.48253 0.0
H567 H 0.22304 0.72622 0.47617 0.0
C568 C 0.41276 0.90143 0.467 0.0
C569 C 0.45593 0.91353 0.47229 0.0
C570 C 0.3744 0.86156 0.46632 0.0
C571 C 0.37812 0.83254 0.47069 0.0
C572 C 0.42125 0.84469 0.47613 0.0
C573 C 0.45952 0.88457 0.47703 0.0
C574 C 0.30367 0.72387 0.45557 0.0
C575 C 0.26021 0.7099 0.46146 0.0
C576 C 0.34188 0.76312 0.45921 0.0
C577 C 0.33773 0.78982 0.46861 0.0
C578 C 0.29438 0.77555 0.47508 0.0
C579 C 0.25612 0.73597 0.47167 0.0
H580 H 0.51565 0.28512 0.80197 0.0
H581 H 0.55477 0.28571 0.86172 0.0
H582 H 0.52518 0.23704 0.79183 0.0
H583 H 0.56307 0.23638 0.85175 0.0
H584 H 0.61595 0.17575 0.82112 0.0
H585 H 0.607 0.2237 0.83343 0.0
H586 H 0.49051 0.17056 0.79435 0.0
H587 H 0.50078 0.12407 0.7817 0.0
C588 C 0.52583 0.27458 0.813 0.0
C589 C 0.5341 0.289 0.83267 0.0
C590 C 0.53111 0.2468 0.80722 0.0
C591 C 0.5443 0.2322 0.821 0.0
C592 C 0.55323 0.24708 0.84067 0.0
C593 C 0.54839 0.2753 0.84642 0.0
C594 C 0.58822 0.17424 0.81539 0.0
C595 C 0.55933 0.1465 0.80034 0.0
C596 C 0.58298 0.20165 0.82243 0.0
C597 C 0.54843 0.20156 0.81469 0.0
C598 C 0.51835 0.17245 0.80028 0.0
C599 C 0.52395 0.14552 0.79312 0.0
H600 H 0.61992 0.83645 0.47498 0.0
H601 H 0.59971 0.85673 0.53534 0.0
H602 H 0.61511 0.78081 0.48506 0.0
H603 H 0.59466 0.80131 0.5453 0.0
H604 H 0.65265 0.73999 0.55942 0.0
H605 H 0.65462 0.79187 0.54634 0.0
H606 H 0.55794 0.71178 0.5005 0.0
H607 H 0.55499 0.65898 0.51396 0.0
C608 C 0.61413 0.82885 0.49035 0.0
C609 C 0.61032 0.85103 0.50439 0.0
C610 C 0.6111 0.79691 0.49607 0.0
C611 C 0.60493 0.78702 0.51598 0.0
C612 C 0.59993 0.80856 0.52988 0.0
C613 C 0.6024 0.84007 0.52415 0.0
C614 C 0.6316 0.73324 0.54659 0.0
C615 C 0.60292 0.69509 0.53798 0.0
C616 C 0.63281 0.76303 0.5391 0.0
C617 C 0.6058 0.75566 0.52265 0.0
C618 C 0.579 0.71817 0.51326 0.0
C619 C 0.57745 0.68805 0.52091 0.0
H620 H 0.7552 0.58566 0.83637 0.0
H621 H 0.66542 0.46089 0.84279 0.0
H622 H 0.82052 0.58659 0.83643 0.0
H623 H 0.73087 0.46164 0.84289 0.0
H624 H 0.85865 0.46881 0.82989 0.0
H625 H 0.79213 0.46673 0.82776 0.0
H626 H 0.87222 0.58414 0.85326 0.0
H627 H 0.93787 0.58619 0.85513 0.0
C628 C 0.74894 0.55816 0.8378 0.0
C629 C 0.70361 0.52323 0.83959 0.0
C630 C 0.78716 0.55866 0.83796 0.0
C631 C 0.78277 0.52421 0.83974 0.0
C632 C 0.73725 0.48915 0.8413 0.0
C633 C 0.699 0.48871 0.84134 0.0
C634 C 0.86252 0.49452 0.8348 0.0
C635 C 0.90517 0.52771 0.8427 0.0
C636 C 0.82359 0.49321 0.83381 0.0
C637 C 0.82502 0.52523 0.84036 0.0
C638 C 0.86808 0.5586 0.84777 0.0
C639 C 0.90653 0.5597 0.84898 0.0
H640 H 0.23069 0.64778 0.14219 0.0
H641 H 0.14561 0.67882 0.15721 0.0
H642 H 0.29767 0.7169 0.1444 0.0
H643 H 0.21175 0.74775 0.15839 0.0
H644 H 0.34037 0.86177 0.18339 0.0
H645 H 0.27358 0.79432 0.17777 0.0
H646 H 0.34267 0.78015 0.13182 0.0
H647 H 0.41132 0.8479 0.13853 0.0
C648 C 0.22618 0.66938 0.14577 0.0
C649 C 0.18267 0.65754 0.1498 0.0
C650 C 0.2647 0.70924 0.14687 0.0
C651 C 0.26077 0.73851 0.15176 0.0
C652 C 0.21685 0.72645 0.15514 0.0
C653 C 0.17859 0.68668 0.15437 0.0
C654 C 0.34153 0.84438 0.17206 0.0
C655 C 0.38175 0.86036 0.16165 0.0
C656 C 0.30268 0.80548 0.16861 0.0
C657 C 0.30209 0.78105 0.15433 0.0
C658 C 0.34173 0.79754 0.14321 0.0
C659 C 0.38103 0.83669 0.14682 0.0
H660 H 0.55269 0.22274 0.51426 0.0
H661 H 0.53627 0.23843 0.45339 0.0
H662 H 0.56775 0.28392 0.52383 0.0
H663 H 0.55265 0.30057 0.46295 0.0
H664 H 0.52828 0.38309 0.49474 0.0
H665 H 0.51798 0.32511 0.48179 0.0
H666 H 0.62646 0.35413 0.52036 0.0
H667 H 0.63655 0.4117 0.53326 0.0
C668 C 0.55225 0.23926 0.50291 0.0
C669 C 0.54308 0.22559 0.48307 0.0
C670 C 0.56144 0.27462 0.50836 0.0
C671 C 0.56169 0.29731 0.49414 0.0
C672 C 0.5525 0.2837 0.47427 0.0
C673 C 0.54351 0.2483 0.46878 0.0
C674 C 0.55045 0.37743 0.50015 0.0
C675 C 0.58282 0.40167 0.5152 0.0
C676 C 0.54454 0.34421 0.49276 0.0
C677 C 0.57093 0.33466 0.50028 0.0
C678 C 0.60483 0.36011 0.51459 0.0
C679 C 0.61069 0.39315 0.52195 0.0
H680 H 0.49278 0.57722 0.83769 0.0
H681 H 0.40581 0.45544 0.85137 0.0
H682 H 0.42771 0.57668 0.83873 0.0
H683 H 0.34054 0.45412 0.8518 0.0
H684 H 0.22667 0.46118 0.86581 0.0
H685 H 0.29049 0.46119 0.86259 0.0
H686 H 0.36322 0.5682 0.83102 0.0
H687 H 0.29872 0.56842 0.83504 0.0
C688 C 0.45979 0.55001 0.84087 0.0
C689 C 0.45608 0.51643 0.84454 0.0
C690 C 0.42149 0.54955 0.84136 0.0
C691 C 0.3766 0.51538 0.84546 0.0
C692 C 0.37321 0.48176 0.84894 0.0
C693 C 0.41149 0.48233 0.84857 0.0
C694 C 0.25569 0.4844 0.85767 0.0
C695 C 0.25548 0.51419 0.85032 0.0
C696 C 0.29343 0.48457 0.85582 0.0
C697 C 0.33437 0.51472 0.84647 0.0
C698 C 0.3338 0.5442 0.83858 0.0
C699 C 0.2957 0.54403 0.84052 0.0
H700 H 0.89713 0.41934 0.15381 0.0
H701 H 0.97771 0.38639 0.13343 0.0
H702 H 0.83197 0.3506 0.15708 0.0
H703 H 0.91199 0.31735 0.13615 0.0
H704 H 0.71104 0.22184 0.15143 0.0
H705 H 0.77428 0.28758 0.14066 0.0
H706 H 0.86958 0.27275 0.16222 0.0
H707 H 0.80655 0.20739 0.17264 0.0
C708 C 0.901 0.39749 0.14992 0.0
C709 C 0.94319 0.40877 0.14366 0.0
C710 C 0.86325 0.35782 0.15155 0.0
C711 C 0.86641 0.32806 0.14697 0.0
C712 C 0.90823 0.3393 0.14008 0.0
C713 C 0.94599 0.37903 0.1384 0.0
C714 C 0.7455 0.23224 0.1532 0.0
C715 C 0.75382 0.2093 0.16268 0.0
C716 C 0.78185 0.27016 0.14733 0.0
C717 C 0.82736 0.28592 0.15071 0.0
C718 C 0.83528 0.26179 0.15914 0.0
C719 C 0.79908 0.22418 0.16511 0.0
H720 H 0.05785 0.6032 0.08906 0.0
H721 H 0.06772 0.51063 0.09191 0.0
H722 H 0.07054 0.60616 0.05345 0.0
H723 H 0.08202 0.51467 0.05636 0.0
H724 H 0.15285 0.57536 0.9944 0.0
H725 H 0.14656 0.57352 0.03047 0.0
H726 H 1.01592 0.54645 0.02541 0.0
H727 H 1.02036 0.54575 0.98967 0.0
C728 C 0.06334 0.58389 0.08212 0.0
C729 C 0.06176 0.55666 0.0932 0.0
C730 C 0.07062 0.58562 0.06181 0.0
C731 C 0.07738 0.56073 0.0523 0.0
C732 C 0.0773 0.53438 0.06345 0.0
C733 C 0.06904 0.53205 0.08372 0.0
C734 C 0.12248 0.56844 0.00092 0.0
C735 C 0.08748 0.56137 0.98899 0.0
C736 C 0.11909 0.56763 0.02155 0.0
C737 C 0.08107 0.56042 0.03058 0.0
C738 C 1.04594 0.5528 0.01876 0.0
C739 C 1.04881 0.55277 -0.00175 0.0
H740 H 0.5206 0.99648 0.41764 0.0
H741 H 0.66468 0.09132 0.41467 0.0
H742 H 0.51296 0.99846 0.38209 0.0
H743 H 0.65703 0.095 0.37937 0.0
H744 H 0.63802 0.05783 0.31407 0.0
H745 H 0.64581 0.06079 0.34986 0.0
H746 H 0.51398 0.03202 0.35573 0.0
H747 H 0.50567 0.02735 0.31982 0.0
C748 C 0.55048 0.01818 0.40938 0.0
C749 C 0.59328 0.04345 0.41878 0.0
C750 C 0.54615 0.01956 0.38902 0.0
C751 C 0.58446 0.04673 0.37771 0.0
C752 C 0.62696 0.07303 0.38742 0.0
C753 C 0.63135 0.07116 0.40769 0.0
C754 C 0.611 0.05255 0.32307 0.0
C755 C 0.57123 0.04226 0.31424 0.0
C756 C 0.61545 0.05439 0.34362 0.0
C757 C 0.58048 0.04659 0.35582 0.0
C758 C 0.54122 0.03742 0.34688 0.0
C759 C 0.53652 0.03498 0.32631 0.0
H760 H 0.49438 0.46958 0.77666 0.0
H761 H 0.6398 0.54777 0.7863 0.0
H762 H 0.50521 0.48008 0.74131 0.0
H763 H 0.65074 0.55851 0.75079 0.0
H764 H 0.64358 0.52089 0.68452 0.0
H765 H 0.63709 0.51789 0.72043 0.0
H766 H 0.53405 0.53187 0.71726 0.0
H767 H 0.5398 0.534 0.68136 0.0
C768 C 0.52867 0.48926 0.7712 0.0
C769 C 0.56625 0.50768 0.78415 0.0
C770 C 0.53488 0.49546 0.75099 0.0
C771 C 0.57882 0.52007 0.74328 0.0
C772 C 0.61648 0.53908 0.7563 0.0
C773 C 0.61024 0.5331 0.77659 0.0
C774 C 0.61956 0.52331 0.69151 0.0
C775 C 0.59204 0.52748 0.68012 0.0
C776 C 0.61619 0.52201 0.71207 0.0
C777 C 0.58499 0.52456 0.72164 0.0
C778 C 0.55812 0.52949 0.71028 0.0
C779 C 0.56169 0.53104 0.68975 0.0
H780 H 0.49377 0.99557 0.53916 0.0
H781 H 0.63917 0.0748 0.53194 0.0
H782 H 0.50454 0.99541 0.57459 0.0
H783 H 0.65005 0.07467 0.56755 0.0
H784 H 0.53913 0.97737 0.63481 0.0
H785 H 0.53382 0.97403 0.59876 0.0
H786 H 0.63581 0.09989 0.59802 0.0
H787 H 0.6416 0.10319 0.63405 0.0
C788 C 0.52805 0.01274 0.54516 0.0
C789 C 0.56564 0.0354 0.53287 0.0
C790 C 0.53422 0.01245 0.56542 0.0
C791 C 0.57814 0.03507 0.57385 0.0
C792 C 0.61581 0.05722 0.56147 0.0
C793 C 0.60961 0.05718 0.54112 0.0
C794 C 0.56089 1.00425 0.62692 0.0
C795 C 0.59063 0.04057 0.63725 0.0
C796 C 0.5576 1.00237 0.60631 0.0
C797 C 0.58427 0.03671 0.59558 0.0
C798 C 0.61507 0.07291 0.60587 0.0
C799 C 0.61806 0.07483 0.6265 0.0
H800 H 0.6724 0.56864 0.90377 0.0
H801 H 0.52706 0.48045 0.89618 0.0
H802 H 0.6676 0.54797 0.93724 0.0
H803 H 0.52205 0.46006 0.92995 0.0
H804 H 0.53297 0.41535 0.98763 0.0
H805 H 0.54324 0.42982 0.95241 0.0
H806 H 0.63799 0.55368 0.96791 0.0
H807 H 0.62819 0.53914 0.00276 0.0
C808 C 0.63939 0.5448 0.90929 0.0
C809 C 0.60002 0.52645 0.89749 0.0
C810 C 0.63664 0.53297 0.92846 0.0
C811 C 0.59444 0.50252 0.9363 0.0
C812 C 0.55513 0.48336 0.92428 0.0
C813 C 0.5579 0.49525 0.90503 0.0
C814 C 0.55672 0.44554 0.98338 0.0
C815 C 0.5797 0.47616 -0.00217 0.0
C816 C 0.56222 0.45386 0.96329 0.0
C817 C 0.59121 0.49291 0.95738 0.0
C818 C 0.61573 0.52329 0.97191 0.0
C819 C 0.60998 0.51501 0.99188 0.0
H820 H 1.04245 0.53415 0.20196 0.0
H821 H 0.13807 0.5118 0.20432 0.0
H822 H 1.04012 0.53567 0.23798 0.0
H823 H 0.13535 0.51259 0.2404 0.0
H824 H 0.08178 0.47896 0.30395 0.0
H825 H 0.07902 0.47354 0.26776 0.0
H826 H 0.09635 0.58041 0.26554 0.0
H827 H 0.099 0.58574 0.3016 0.0
C828 C 0.06321 0.52993 0.21018 0.0
C829 C 0.09098 0.52364 0.20036 0.0
C830 C 0.06178 0.53059 0.23079 0.0
C831 C 0.0877 0.52439 0.24199 0.0
C832 C 0.11475 0.51718 0.23214 0.0
C833 C 0.11648 0.51694 0.21151 0.0
C834 C 0.08459 0.50104 0.29568 0.0
C835 C 0.09078 0.53284 0.30552 0.0
C836 C 0.08335 0.49811 0.27502 0.0
C837 C 0.08757 0.52661 0.26387 0.0
C838 C 0.09272 0.5579 0.27376 0.0
C839 C 0.09457 0.5611 0.29437 0.0
loop_
_geom_bond_atom_site_label_1
_geom_bond_atom_site_label_2
_geom_bond_distance
_geom_bond_site_symmetry_2
_ccdc_geom_bond_type
Sm0 C2 2.846 . S
Sm0 O20 2.543 . S
Sm0 O21 2.450 . S
Sm0 O22 2.681 . S
Sm0 O23 2.464 . S
Sm0 O24 2.396 . S
Sm0 O28 2.386 . S
Sm0 O31 2.408 1_455 S
Sm1 C11 2.846 . S
Sm1 O22 2.386 1_655 S
Sm1 O25 2.408 1_655 S
Sm1 O26 2.543 . S
Sm1 O27 2.450 . S
Sm1 O28 2.681 1_655 S
Sm1 O29 2.464 . S
Sm1 O30 2.396 . S
C2 Sm0 2.846 . S
C2 C3 1.506 . S
C2 O20 1.261 . S
C2 O21 1.242 . S
C3 C2 1.506 . S
C3 C4 1.358 . S
C3 C8 1.382 . S
C4 C3 1.358 . S
C4 C5 1.385 . S
C4 H32 0.930 . S
C5 C4 1.385 . S
C5 C6 1.395 . S
C5 H33 0.929 . S
C6 C5 1.395 . S
C6 C7 1.335 . S
C7 C6 1.335 . S
C7 C8 1.398 . S
C7 H34 0.930 . S
C8 C3 1.382 . S
C8 C7 1.398 . S
C8 H35 0.929 . S
C9 O22 1.271 . S
C9 O23 1.251 . S
C10 O24 1.252 . S
C10 O25 1.272 . S
C11 Sm1 2.846 . S
C11 C12 1.506 . S
C11 O26 1.261 . S
C11 O27 1.242 . S
C12 C11 1.506 . S
C12 C13 1.358 . S
C12 C17 1.382 . S
C13 C12 1.358 . S
C13 C14 1.385 . S
C13 H36 0.930 . S
C14 C13 1.385 . S
C14 C15 1.395 . S
C14 H37 0.929 . S
C15 C14 1.395 . S
C15 C16 1.335 . S
C16 C15 1.335 . S
C16 C17 1.398 . S
C16 H38 0.930 . S
C17 C12 1.382 . S
C17 C16 1.398 . S
C17 H39 0.929 . S
C18 O28 1.271 . S
C18 O29 1.251 1_455 S
C19 O30 1.252 . S
C19 O31 1.272 . S
O20 Sm0 2.543 . S
O20 C2 1.261 . S
O21 Sm0 2.450 . S
O21 C2 1.242 . S
O22 Sm0 2.681 . S
O22 Sm1 2.386 1_455 S
O22 C9 1.271 . S
O23 Sm0 2.464 . S
O23 C9 1.251 . S
O24 Sm0 2.396 . S
O24 C10 1.252 . S
O25 Sm1 2.408 1_455 S
O25 C10 1.272 . S
O26 Sm1 2.543 . S
O26 C11 1.261 . S
O27 Sm1 2.450 . S
O27 C11 1.242 . S
O28 Sm0 2.386 . S
O28 Sm1 2.681 1_455 S
O28 C18 1.271 . S
O29 Sm1 2.464 . S
O29 C18 1.251 1_655 S
O30 Sm1 2.396 . S
O30 C19 1.252 . S
O31 Sm0 2.408 1_655 S
O31 C19 1.272 . S
H32 C4 0.930 . S
H33 C5 0.929 . S
H34 C7 0.930 . S
H35 C8 0.929 . S
H36 C13 0.930 . S
H37 C14 0.929 . S
H38 C16 0.930 . S
H39 C17 0.929 . S
Sm40 C42 2.846 . S
Sm40 O60 2.543 . S
Sm40 O61 2.450 . S
Sm40 O62 2.681 1_565 S
Sm40 O63 2.464 . S
Sm40 O64 2.396 . S
Sm40 O68 2.386 . S
Sm40 O71 2.408 1_565 S
Sm41 C51 2.846 . S
Sm41 O62 2.386 . S
Sm41 O65 2.408 1_545 S
Sm41 O66 2.543 . S
Sm41 O67 2.450 . S
Sm41 O68 2.681 1_545 S
Sm41 O69 2.464 . S
Sm41 O70 2.396 . S
C42 Sm40 2.846 . S
C42 C43 1.506 . S
C42 O60 1.261 . S
C42 O61 1.242 . S
C43 C42 1.506 . S
C43 C44 1.358 . S
C43 C48 1.382 . S
C44 C43 1.358 . S
C44 C45 1.385 . S
C44 H72 0.930 . S
C45 C44 1.385 . S
C45 C46 1.395 . S
C45 H73 0.929 . S
C46 C45 1.395 . S
C46 C47 1.335 . S
C47 C46 1.335 . S
C47 C48 1.398 . S
C47 H74 0.930 . S
C48 C43 1.382 . S
C48 C47 1.398 . S
C48 H75 0.929 . S
C49 O62 1.271 . S
C49 O63 1.251 1_545 S
C50 O64 1.252 . S
C50 O65 1.272 . S
C51 Sm41 2.846 . S
C51 C52 1.506 . S
C51 O66 1.261 . S
C51 O67 1.242 . S
C52 C51 1.506 . S
C52 C53 1.358 . S
C52 C57 1.382 . S
C53 C52 1.358 . S
C53 C54 1.385 . S
C53 H76 0.930 . S
C54 C53 1.385 . S
C54 C55 1.395 . S
C54 H77 0.929 . S
C55 C54 1.395 . S
C55 C56 1.335 . S
C56 C55 1.335 . S
C56 C57 1.398 . S
C56 H78 0.930 . S
C57 C52 1.382 . S
C57 C56 1.398 . S
C57 H79 0.929 . S
C58 O68 1.271 1_545 S
C58 O69 1.251 . S
C59 O70 1.252 . S
C59 O71 1.272 . S
O60 Sm40 2.543 . S
O60 C42 1.261 . S
O61 Sm40 2.450 . S
O61 C42 1.242 . S
O62 Sm40 2.681 1_545 S
O62 Sm41 2.386 . S
O62 C49 1.271 . S
O63 Sm40 2.464 . S
O63 C49 1.251 1_565 S
O64 Sm40 2.396 . S
O64 C50 1.252 . S
O65 Sm41 2.408 1_565 S
O65 C50 1.272 . S
O66 Sm41 2.543 . S
O66 C51 1.261 . S
O67 Sm41 2.450 . S
O67 C51 1.242 . S
O68 Sm40 2.386 . S
O68 Sm41 2.681 1_565 S
O68 C58 1.271 1_565 S
O69 Sm41 2.464 . S
O69 C58 1.251 . S
O70 Sm41 2.396 . S
O70 C59 1.252 . S
O71 Sm40 2.408 1_545 S
O71 C59 1.272 . S
H72 C44 0.930 . S
H73 C45 0.929 . S
H74 C47 0.930 . S
H75 C48 0.929 . S
H76 C53 0.930 . S
H77 C54 0.929 . S
H78 C56 0.930 . S
H79 C57 0.929 . S
Sm80 C82 2.846 . S
Sm80 O100 2.543 . S
Sm80 O101 2.450 . S
Sm80 O102 2.681 . S
Sm80 O103 2.464 . S
Sm80 O104 2.396 . S
Sm80 O108 2.386 . S
Sm80 O111 2.408 . S
Sm81 C91 2.846 . S
Sm81 O102 2.386 . S
Sm81 O105 2.408 . S
Sm81 O106 2.543 . S
Sm81 O107 2.450 . S
Sm81 O108 2.681 . S
Sm81 O109 2.464 . S
Sm81 O110 2.396 . S
C82 Sm80 2.846 . S
C82 C83 1.506 . S
C82 O100 1.261 . S
C82 O101 1.242 . S
C83 C82 1.506 . S
C83 C84 1.358 . S
C83 C88 1.382 . S
C84 C83 1.358 . S
C84 C85 1.385 . S
C84 H112 0.930 . S
C85 C84 1.385 . S
C85 C86 1.395 . S
C85 H113 0.929 . S
C86 C85 1.395 . S
C86 C87 1.335 . S
C87 C86 1.335 . S
C87 C88 1.398 . S
C87 H114 0.930 . S
C88 C83 1.382 . S
C88 C87 1.398 . S
C88 H115 0.929 . S
C89 O102 1.271 . S
C89 O103 1.251 . S
C90 O104 1.252 . S
C90 O105 1.272 . S
C91 Sm81 2.846 . S
C91 C92 1.506 . S
C91 O106 1.261 . S
C91 O107 1.242 . S
C92 C91 1.506 . S
C92 C93 1.358 . S
C92 C97 1.382 . S
C93 C92 1.358 . S
C93 C94 1.385 . S
C93 H116 0.930 . S
C94 C93 1.385 . S
C94 C95 1.395 . S
C94 H117 0.929 . S
C95 C94 1.395 . S
C95 C96 1.335 . S
C96 C95 1.335 . S
C96 C97 1.398 . S
C96 H118 0.930 . S
C97 C92 1.382 . S
C97 C96 1.398 . S
C97 H119 0.929 . S
C98 O108 1.271 . S
C98 O109 1.251 . S
C99 O110 1.252 . S
C99 O111 1.272 . S
O100 Sm80 2.543 . S
O100 C82 1.261 . S
O101 Sm80 2.450 . S
O101 C82 1.242 . S
O102 Sm80 2.681 . S
O102 Sm81 2.386 . S
O102 C89 1.271 . S
O103 Sm80 2.464 . S
O103 C89 1.251 . S
O104 Sm80 2.396 . S
O104 C90 1.252 . S
O105 Sm81 2.408 . S
O105 C90 1.272 . S
O106 Sm81 2.543 . S
O106 C91 1.261 . S
O107 Sm81 2.450 . S
O107 C91 1.242 . S
O108 Sm80 2.386 . S
O108 Sm81 2.681 . S
O108 C98 1.271 . S
O109 Sm81 2.464 . S
O109 C98 1.251 . S
O110 Sm81 2.396 . S
O110 C99 1.252 . S
O111 Sm80 2.408 . S
O111 C99 1.272 . S
H112 C84 0.930 . S
H113 C85 0.929 . S
H114 C87 0.930 . S
H115 C88 0.929 . S
H116 C93 0.930 . S
H117 C94 0.929 . S
H118 C96 0.930 . S
H119 C97 0.929 . S
C120 C121 1.391 . S
C120 C124 1.391 . S
C120 H162 0.948 . S
C121 C120 1.391 . S
C121 C122 1.391 . S
C122 C121 1.391 . S
C122 H178 0.947 . S
C122 C179 1.392 . S
C123 C124 1.391 . S
C123 C127 1.397 . S
C123 C179 1.419 . S
C124 C120 1.391 . S
C124 C123 1.391 . S
C124 C125 1.399 . S
C125 C124 1.399 . S
C125 C128 1.396 . S
C125 C137 1.453 . S
C125 C138 1.684 . S
H126 C150 0.948 . S
C127 C123 1.397 . S
C127 C128 1.394 . S
C127 C146 1.723 . S
C128 C125 1.396 . S
C128 C127 1.394 . S
C128 C158 1.723 1_545 S
H129 C152 0.947 . S
H130 C153 0.948 . S
H131 C159 0.982 . S
H132 C160 0.979 . S
H133 C160 0.980 . S
H134 C160 0.983 . S
H135 C159 0.979 . S
H136 C159 0.977 . S
C137 C125 1.453 . S
C137 H166 0.982 . S
C137 H167 0.979 . S
C137 H168 0.977 1_545 S
C138 C125 1.684 . S
C138 H163 0.979 . S
C138 H164 0.980 . S
C138 H165 0.983 . S
C139 C140 1.391 . S
C139 C144 1.391 . S
C139 H169 0.948 . S
C140 C139 1.391 . S
C140 C141 1.391 1_545 S
C141 C140 1.391 1_565 S
C141 C142 1.392 . S
C141 H170 0.947 . S
C142 C141 1.392 . S
C142 C143 1.419 1_565 S
C142 H171 0.948 . S
C143 C142 1.419 1_545 S
C143 C144 1.391 . S
C143 C147 1.397 . S
C144 C139 1.391 . S
C144 C143 1.391 . S
C144 C145 1.399 . S
C145 C144 1.399 . S
C145 C146 1.396 . S
C145 C148 1.453 . S
C145 C149 1.684 . S
C146 C127 1.723 . S
C146 C145 1.396 . S
C146 C147 1.394 . S
C147 C143 1.397 . S
C147 C146 1.394 . S
C147 C157 1.723 1_545 S
C148 C145 1.453 . S
C148 H172 0.982 . S
C148 H173 0.979 . S
C148 H174 0.977 . S
C149 C145 1.684 . S
C149 H175 0.979 . S
C149 H176 0.980 . S
C149 H177 0.983 . S
C150 H126 0.948 . S
C150 C151 1.391 . S
C150 C155 1.391 . S
C151 C150 1.391 . S
C151 C152 1.391 . S
C152 H129 0.947 . S
C152 C151 1.391 . S
C152 C153 1.392 . S
C153 H130 0.948 . S
C153 C152 1.392 . S
C153 C154 1.419 . S
C154 C153 1.419 . S
C154 C155 1.391 . S
C154 C158 1.397 . S
C155 C150 1.391 . S
C155 C154 1.391 . S
C155 C156 1.399 . S
C156 C155 1.399 . S
C156 C157 1.396 . S
C156 C159 1.453 . S
C156 C160 1.684 . S
C157 C147 1.723 1_565 S
C157 C156 1.396 . S
C157 C158 1.394 . S
C158 C128 1.723 1_565 S
C158 C154 1.397 . S
C158 C157 1.394 . S
C159 H131 0.982 . S
C159 H135 0.979 . S
C159 H136 0.977 . S
C159 C156 1.453 . S
C160 H132 0.979 . S
C160 H133 0.980 . S
C160 H134 0.983 . S
C160 C156 1.684 . S
H161 C179 0.948 . S
H162 C120 0.948 . S
H163 C138 0.979 . S
H164 C138 0.980 . S
H165 C138 0.983 . S
H166 C137 0.982 . S
H167 C137 0.979 . S
H168 C137 0.977 1_565 S
H169 C139 0.948 . S
H170 C141 0.947 . S
H171 C142 0.948 . S
H172 C148 0.982 . S
H173 C148 0.979 . S
H174 C148 0.977 . S
H175 C149 0.979 . S
H176 C149 0.980 . S
H177 C149 0.983 . S
H178 C122 0.947 . S
C179 C122 1.392 . S
C179 C123 1.419 . S
C179 H161 0.948 . S
C180 C181 1.391 . S
C180 C184 1.391 . S
C180 H222 0.948 . S
C181 C180 1.391 . S
C181 C182 1.391 . S
C182 C181 1.391 . S
C182 H238 0.947 . S
C182 C239 1.392 . S
C183 C184 1.391 . S
C183 C187 1.397 . S
C183 C239 1.419 . S
C184 C180 1.391 . S
C184 C183 1.391 . S
C184 C185 1.399 . S
C185 C184 1.399 . S
C185 C188 1.396 . S
C185 C197 1.453 . S
C185 C198 1.684 . S
H186 C210 0.948 . S
C187 C183 1.397 . S
C187 C188 1.394 . S
C187 C206 1.723 . S
C188 C185 1.396 . S
C188 C187 1.394 . S
C188 C218 1.723 . S
H189 C212 0.947 . S
H190 C213 0.948 . S
H191 C219 0.982 . S
H192 C220 0.979 . S
H193 C220 0.980 . S
H194 C220 0.983 . S
H195 C219 0.979 . S
H196 C219 0.977 . S
C197 C185 1.453 . S
C197 H226 0.982 . S
C197 H227 0.979 . S
C197 H228 0.977 . S
C198 C185 1.684 . S
C198 H223 0.979 . S
C198 H224 0.980 . S
C198 H225 0.983 . S
C199 C200 1.391 . S
C199 C204 1.391 . S
C199 H229 0.948 . S
C200 C199 1.391 . S
C200 C201 1.391 . S
C201 C200 1.391 . S
C201 C202 1.392 . S
C201 H230 0.947 . S
C202 C201 1.392 . S
C202 C203 1.419 . S
C202 H231 0.948 . S
C203 C202 1.419 . S
C203 C204 1.391 . S
C203 C207 1.397 . S
C204 C199 1.391 . S
C204 C203 1.391 . S
C204 C205 1.399 . S
C205 C204 1.399 . S
C205 C206 1.396 . S
C205 C208 1.453 . S
C205 C209 1.684 . S
C206 C187 1.723 . S
C206 C205 1.396 . S
C206 C207 1.394 . S
C207 C203 1.397 . S
C207 C206 1.394 . S
C207 C217 1.723 . S
C208 C205 1.453 . S
C208 H232 0.982 . S
C208 H233 0.979 . S
C208 H234 0.977 . S
C209 C205 1.684 . S
C209 H235 0.979 . S
C209 H236 0.980 . S
C209 H237 0.983 . S
C210 H186 0.948 . S
C210 C211 1.391 . S
C210 C215 1.391 . S
C211 C210 1.391 . S
C211 C212 1.391 . S
C212 H189 0.947 . S
C212 C211 1.391 . S
C212 C213 1.392 . S
C213 H190 0.948 . S
C213 C212 1.392 . S
C213 C214 1.419 . S
C214 C213 1.419 . S
C214 C215 1.391 . S
C214 C218 1.397 . S
C215 C210 1.391 . S
C215 C214 1.391 . S
C215 C216 1.399 . S
C216 C215 1.399 . S
C216 C217 1.396 . S
C216 C219 1.453 . S
C216 C220 1.684 . S
C217 C207 1.723 . S
C217 C216 1.396 . S
C217 C218 1.394 . S
C218 C188 1.723 . S
C218 C214 1.397 . S
C218 C217 1.394 . S
C219 H191 0.982 . S
C219 H195 0.979 . S
C219 H196 0.977 . S
C219 C216 1.453 . S
C220 H192 0.979 . S
C220 H193 0.980 . S
C220 H194 0.983 . S
C220 C216 1.684 . S
H221 C239 0.948 . S
H222 C180 0.948 . S
H223 C198 0.979 . S
H224 C198 0.980 . S
H225 C198 0.983 . S
H226 C197 0.982 . S
H227 C197 0.979 . S
H228 C197 0.977 . S
H229 C199 0.948 . S
H230 C201 0.947 . S
H231 C202 0.948 . S
H232 C208 0.982 . S
H233 C208 0.979 . S
H234 C208 0.977 . S
H235 C209 0.979 . S
H236 C209 0.980 . S
H237 C209 0.983 . S
H238 C182 0.947 . S
C239 C182 1.392 . S
C239 C183 1.419 . S
C239 H221 0.948 . S
C240 C241 1.391 . S
C240 C244 1.391 . S
C240 H282 0.948 . S
C241 C240 1.391 . S
C241 C242 1.391 . S
C242 C241 1.391 . S
C242 H298 0.947 . S
C242 C299 1.392 . S
C243 C244 1.391 . S
C243 C247 1.397 . S
C243 C299 1.419 . S
C244 C240 1.391 . S
C244 C243 1.391 . S
C244 C245 1.399 . S
C245 C244 1.399 . S
C245 C248 1.396 . S
C245 C257 1.453 . S
C245 C258 1.684 . S
H246 C270 0.948 . S
C247 C243 1.397 . S
C247 C248 1.394 . S
C247 C266 1.723 . S
C248 C245 1.396 . S
C248 C247 1.394 . S
C248 C278 1.723 . S
H249 C272 0.947 . S
H250 C273 0.948 1_455 S
H251 C279 0.982 . S
H252 C280 0.979 . S
H253 C280 0.980 . S
H254 C280 0.983 . S
H255 C279 0.979 . S
H256 C279 0.977 . S
C257 C245 1.453 . S
C257 H286 0.982 . S
C257 H287 0.979 . S
C257 H288 0.977 . S
C258 C245 1.684 . S
C258 H283 0.979 . S
C258 H284 0.980 . S
C258 H285 0.983 . S
C259 C260 1.391 . S
C259 C264 1.391 . S
C259 H289 0.948 . S
C260 C259 1.391 . S
C260 C261 1.391 . S
C261 C260 1.391 . S
C261 C262 1.392 . S
C261 H290 0.947 1_455 S
C262 C261 1.392 . S
C262 C263 1.419 . S
C262 H291 0.948 1_455 S
C263 C262 1.419 . S
C263 C264 1.391 . S
C263 C267 1.397 . S
C264 C259 1.391 . S
C264 C263 1.391 . S
C264 C265 1.399 . S
C265 C264 1.399 . S
C265 C266 1.396 . S
C265 C268 1.453 . S
C265 C269 1.684 . S
C266 C247 1.723 . S
C266 C265 1.396 . S
C266 C267 1.394 . S
C267 C263 1.397 . S
C267 C266 1.394 . S
C267 C277 1.723 . S
C268 C265 1.453 . S
C268 H292 0.982 . S
C268 H293 0.979 . S
C268 H294 0.977 . S
C269 C265 1.684 . S
C269 H295 0.979 . S
C269 H296 0.980 . S
C269 H297 0.983 . S
C270 H246 0.948 . S
C270 C271 1.391 . S
C270 C275 1.391 . S
C271 C270 1.391 . S
C271 C272 1.391 . S
C272 H249 0.947 . S
C272 C271 1.391 . S
C272 C273 1.392 . S
C273 H250 0.948 1_655 S
C273 C272 1.392 . S
C273 C274 1.419 . S
C274 C273 1.419 . S
C274 C275 1.391 . S
C274 C278 1.397 1_655 S
C275 C270 1.391 . S
C275 C274 1.391 . S
C275 C276 1.399 . S
C276 C275 1.399 . S
C276 C277 1.396 1_655 S
C276 C279 1.453 . S
C276 C280 1.684 . S
C277 C267 1.723 . S
C277 C276 1.396 1_455 S
C277 C278 1.394 . S
C278 C248 1.723 . S
C278 C274 1.397 1_455 S
C278 C277 1.394 . S
C279 H251 0.982 . S
C279 H255 0.979 . S
C279 H256 0.977 . S
C279 C276 1.453 . S
C280 H252 0.979 . S
C280 H253 0.980 . S
C280 H254 0.983 . S
C280 C276 1.684 . S
H281 C299 0.948 . S
H282 C240 0.948 . S
H283 C258 0.979 . S
H284 C258 0.980 . S
H285 C258 0.983 . S
H286 C257 0.982 . S
H287 C257 0.979 . S
H288 C257 0.977 . S
H289 C259 0.948 . S
H290 C261 0.947 1_655 S
H291 C262 0.948 1_655 S
H292 C268 0.982 . S
H293 C268 0.979 . S
H294 C268 0.977 . S
H295 C269 0.979 . S
H296 C269 0.980 . S
H297 C269 0.983 . S
H298 C242 0.947 . S
C299 C242 1.392 . S
C299 C243 1.419 . S
C299 H281 0.948 . S
C300 C301 1.391 . S
C300 C304 1.391 . S
C300 H342 0.948 . S
C301 C300 1.391 . S
C301 C302 1.391 . S
C302 C301 1.391 . S
C302 H358 0.947 . S
C302 C359 1.392 . S
C303 C304 1.391 . S
C303 C307 1.397 . S
C303 C359 1.419 . S
C304 C300 1.391 . S
C304 C303 1.391 . S
C304 C305 1.399 . S
C305 C304 1.399 . S
C305 C308 1.396 . S
C305 C317 1.453 . S
C305 C318 1.684 . S
H306 C330 0.948 . S
C307 C303 1.397 . S
C307 C308 1.394 . S
C307 C326 1.723 . S
C308 C305 1.396 . S
C308 C307 1.394 . S
C308 C338 1.723 1_655 S
H309 C332 0.947 . S
H310 C333 0.948 . S
H311 C339 0.982 . S
H312 C340 0.979 . S
H313 C340 0.980 . S
H314 C340 0.983 . S
H315 C339 0.979 . S
H316 C339 0.977 . S
C317 C305 1.453 . S
C317 H346 0.982 1_655 S
C317 H347 0.979 . S
C317 H348 0.977 1_655 S
C318 C305 1.684 . S
C318 H343 0.979 . S
C318 H344 0.980 . S
C318 H345 0.983 . S
C319 C320 1.391 1_655 S
C319 C324 1.391 . S
C319 H349 0.948 . S
C320 C319 1.391 1_455 S
C320 C321 1.391 . S
C321 C320 1.391 . S
C321 C322 1.392 . S
C321 H350 0.947 . S
C322 C321 1.392 . S
C322 C323 1.419 . S
C322 H351 0.948 . S
C323 C322 1.419 . S
C323 C324 1.391 1_455 S
C323 C327 1.397 . S
C324 C319 1.391 . S
C324 C323 1.391 1_655 S
C324 C325 1.399 . S
C325 C324 1.399 . S
C325 C326 1.396 . S
C325 C328 1.453 . S
C325 C329 1.684 . S
C326 C307 1.723 . S
C326 C325 1.396 . S
C326 C327 1.394 1_655 S
C327 C323 1.397 . S
C327 C326 1.394 1_455 S
C327 C337 1.723 . S
C328 C325 1.453 . S
C328 H352 0.982 . S
C328 H353 0.979 . S
C328 H354 0.977 . S
C329 C325 1.684 . S
C329 H355 0.979 . S
C329 H356 0.980 . S
C329 H357 0.983 . S
C330 H306 0.948 . S
C330 C331 1.391 . S
C330 C335 1.391 . S
C331 C330 1.391 . S
C331 C332 1.391 . S
C332 H309 0.947 . S
C332 C331 1.391 . S
C332 C333 1.392 . S
C333 H310 0.948 . S
C333 C332 1.392 . S
C333 C334 1.419 . S
C334 C333 1.419 . S
C334 C335 1.391 . S
C334 C338 1.397 . S
C335 C330 1.391 . S
C335 C334 1.391 . S
C335 C336 1.399 . S
C336 C335 1.399 . S
C336 C337 1.396 . S
C336 C339 1.453 . S
C336 C340 1.684 . S
C337 C327 1.723 . S
C337 C336 1.396 . S
C337 C338 1.394 . S
C338 C308 1.723 1_455 S
C338 C334 1.397 . S
C338 C337 1.394 . S
C339 H311 0.982 . S
C339 H315 0.979 . S
C339 H316 0.977 . S
C339 C336 1.453 . S
C340 H312 0.979 . S
C340 H313 0.980 . S
C340 H314 0.983 . S
C340 C336 1.684 . S
H341 C359 0.948 . S
H342 C300 0.948 . S
H343 C318 0.979 . S
H344 C318 0.980 . S
H345 C318 0.983 . S
H346 C317 0.982 1_455 S
H347 C317 0.979 . S
H348 C317 0.977 1_455 S
H349 C319 0.948 . S
H350 C321 0.947 . S
H351 C322 0.948 . S
H352 C328 0.982 . S
H353 C328 0.979 . S
H354 C328 0.977 . S
H355 C329 0.979 . S
H356 C329 0.980 . S
H357 C329 0.983 . S
H358 C302 0.947 . S
C359 C302 1.392 . S
C359 C303 1.419 . S
C359 H341 0.948 . S
C360 C361 1.391 . S
C360 C364 1.391 . S
C360 H402 0.948 . S
C361 C360 1.391 . S
C361 C362 1.391 . S
C362 C361 1.391 . S
C362 H418 0.947 . S
C362 C419 1.392 . S
C363 C364 1.391 . S
C363 C367 1.397 . S
C363 C419 1.419 . S
C364 C360 1.391 . S
C364 C363 1.391 . S
C364 C365 1.399 . S
C365 C364 1.399 . S
C365 C368 1.396 . S
C365 C377 1.453 1_565 S
C365 C378 1.684 . S
H366 C390 0.948 . S
C367 C363 1.397 . S
C367 C368 1.394 . S
C367 C386 1.723 . S
C368 C365 1.396 . S
C368 C367 1.394 . S
C368 C398 1.723 1_565 S
H369 C392 0.947 . S
H370 C393 0.948 . S
H371 C399 0.982 . S
H372 C400 0.979 . S
H373 C400 0.980 . S
H374 C400 0.983 . S
H375 C399 0.979 . S
H376 C399 0.977 . S
C377 C365 1.453 1_545 S
C377 H406 0.982 . S
C377 H407 0.979 1_545 S
C377 H408 0.977 . S
C378 C365 1.684 . S
C378 H403 0.979 . S
C378 H404 0.980 . S
C378 H405 0.983 . S
C379 C380 1.391 . S
C379 C384 1.391 . S
C379 H409 0.948 . S
C380 C379 1.391 . S
C380 C381 1.391 1_565 S
C381 C380 1.391 1_545 S
C381 C382 1.392 . S
C381 H410 0.947 . S
C382 C381 1.392 . S
C382 C383 1.419 . S
C382 H411 0.948 . S
C383 C382 1.419 . S
C383 C384 1.391 1_545 S
C383 C387 1.397 . S
C384 C379 1.391 . S
C384 C383 1.391 1_565 S
C384 C385 1.399 . S
C385 C384 1.399 . S
C385 C386 1.396 . S
C385 C388 1.453 . S
C385 C389 1.684 . S
C386 C367 1.723 . S
C386 C385 1.396 . S
C386 C387 1.394 1_565 S
C387 C383 1.397 . S
C387 C386 1.394 1_545 S
C387 C397 1.723 . S
C388 C385 1.453 . S
C388 H412 0.982 . S
C388 H413 0.979 . S
C388 H414 0.977 . S
C389 C385 1.684 . S
C389 H415 0.979 . S
C389 H416 0.980 . S
C389 H417 0.983 . S
C390 H366 0.948 . S
C390 C391 1.391 . S
C390 C395 1.391 . S
C391 C390 1.391 . S
C391 C392 1.391 . S
C392 H369 0.947 . S
C392 C391 1.391 . S
C392 C393 1.392 . S
C393 H370 0.948 . S
C393 C392 1.392 . S
C393 C394 1.419 . S
C394 C393 1.419 . S
C394 C395 1.391 . S
C394 C398 1.397 . S
C395 C390 1.391 . S
C395 C394 1.391 . S
C395 C396 1.399 . S
C396 C395 1.399 . S
C396 C397 1.396 . S
C396 C399 1.453 . S
C396 C400 1.684 . S
C397 C387 1.723 . S
C397 C396 1.396 . S
C397 C398 1.394 . S
C398 C368 1.723 1_545 S
C398 C394 1.397 . S
C398 C397 1.394 . S
C399 H371 0.982 . S
C399 H375 0.979 . S
C399 H376 0.977 . S
C399 C396 1.453 . S
C400 H372 0.979 . S
C400 H373 0.980 . S
C400 H374 0.983 . S
C400 C396 1.684 . S
H401 C419 0.948 . S
H402 C360 0.948 . S
H403 C378 0.979 . S
H404 C378 0.980 . S
H405 C378 0.983 . S
H406 C377 0.982 . S
H407 C377 0.979 1_565 S
H408 C377 0.977 . S
H409 C379 0.948 . S
H410 C381 0.947 . S
H411 C382 0.948 . S
H412 C388 0.982 . S
H413 C388 0.979 . S
H414 C388 0.977 . S
H415 C389 0.979 . S
H416 C389 0.980 . S
H417 C389 0.983 . S
H418 C362 0.947 . S
C419 C362 1.392 . S
C419 C363 1.419 . S
C419 H401 0.948 . S
C420 C421 1.391 . S
C420 C424 1.391 . S
C420 H462 0.948 . S
C421 C420 1.391 . S
C421 C422 1.391 . S
C422 C421 1.391 . S
C422 H478 0.947 . S
C422 C479 1.392 . S
C423 C424 1.391 . S
C423 C427 1.397 . S
C423 C479 1.419 . S
C424 C420 1.391 . S
C424 C423 1.391 . S
C424 C425 1.399 . S
C425 C424 1.399 . S
C425 C428 1.396 . S
C425 C437 1.453 . S
C425 C438 1.684 . S
H426 C450 0.948 . S
C427 C423 1.397 . S
C427 C428 1.394 . S
C427 C446 1.723 . S
C428 C425 1.396 . S
C428 C427 1.394 . S
C428 C458 1.723 . S
H429 C452 0.947 . S
H430 C453 0.948 . S
H431 C459 0.982 . S
H432 C460 0.979 . S
H433 C460 0.980 . S
H434 C460 0.983 . S
H435 C459 0.979 . S
H436 C459 0.977 . S
C437 C425 1.453 . S
C437 H466 0.982 . S
C437 H467 0.979 . S
C437 H468 0.977 . S
C438 C425 1.684 . S
C438 H463 0.979 . S
C438 H464 0.980 . S
C438 H465 0.983 . S
C439 C440 1.391 . S
C439 C444 1.391 . S
C439 H469 0.948 . S
C440 C439 1.391 . S
C440 C441 1.391 . S
C441 C440 1.391 . S
C441 C442 1.392 . S
C441 H470 0.947 . S
C442 C441 1.392 . S
C442 C443 1.419 . S
C442 H471 0.948 . S
C443 C442 1.419 . S
C443 C444 1.391 . S
C443 C447 1.397 . S
C444 C439 1.391 . S
C444 C443 1.391 . S
C444 C445 1.399 . S
C445 C444 1.399 . S
C445 C446 1.396 . S
C445 C448 1.453 . S
C445 C449 1.684 . S
C446 C427 1.723 . S
C446 C445 1.396 . S
C446 C447 1.394 . S
C447 C443 1.397 . S
C447 C446 1.394 . S
C447 C457 1.723 . S
C448 C445 1.453 . S
C448 H472 0.982 . S
C448 H473 0.979 . S
C448 H474 0.977 . S
C449 C445 1.684 . S
C449 H475 0.979 . S
C449 H476 0.980 . S
C449 H477 0.983 . S
C450 H426 0.948 . S
C450 C451 1.391 . S
C450 C455 1.391 . S
C451 C450 1.391 . S
C451 C452 1.391 . S
C452 H429 0.947 . S
C452 C451 1.391 . S
C452 C453 1.392 . S
C453 H430 0.948 . S
C453 C452 1.392 . S
C453 C454 1.419 . S
C454 C453 1.419 . S
C454 C455 1.391 . S
C454 C458 1.397 . S
C455 C450 1.391 . S
C455 C454 1.391 . S
C455 C456 1.399 . S
C456 C455 1.399 . S
C456 C457 1.396 . S
C456 C459 1.453 . S
C456 C460 1.684 . S
C457 C447 1.723 . S
C457 C456 1.396 . S
C457 C458 1.394 . S
C458 C428 1.723 . S
C458 C454 1.397 . S
C458 C457 1.394 . S
C459 H431 0.982 . S
C459 H435 0.979 . S
C459 H436 0.977 . S
C459 C456 1.453 . S
C460 H432 0.979 . S
C460 H433 0.980 . S
C460 H434 0.983 . S
C460 C456 1.684 . S
H461 C479 0.948 . S
H462 C420 0.948 . S
H463 C438 0.979 . S
H464 C438 0.980 . S
H465 C438 0.983 . S
H466 C437 0.982 . S
H467 C437 0.979 . S
H468 C437 0.977 . S
H469 C439 0.948 . S
H470 C441 0.947 . S
H471 C442 0.948 . S
H472 C448 0.982 . S
H473 C448 0.979 . S
H474 C448 0.977 . S
H475 C449 0.979 . S
H476 C449 0.980 . S
H477 C449 0.983 . S
H478 C422 0.947 . S
C479 C422 1.392 . S
C479 C423 1.419 . S
C479 H461 0.948 . S
H480 C488 0.950 . S
H481 C493 0.950 . S
H482 C490 0.950 . S
H483 C492 0.950 . S
H484 C494 0.950 . S
H485 C496 0.950 . S
H486 C498 0.950 . S
H487 C499 0.950 . S
C488 H480 0.950 . S
C488 C489 1.386 . S
C488 C490 1.391 . S
C489 C488 1.386 . S
C489 C493 1.393 . S
C490 H482 0.950 . S
C490 C488 1.391 . S
C490 C491 1.400 . S
C491 C490 1.400 . S
C491 C492 1.398 . S
C491 C497 1.491 . S
C492 H483 0.950 . S
C492 C491 1.398 . S
C492 C493 1.391 . S
C493 H481 0.950 . S
C493 C489 1.393 . S
C493 C492 1.391 . S
C494 H484 0.950 . S
C494 C495 1.386 . S
C494 C496 1.391 . S
C495 C494 1.386 . S
C495 C499 1.393 . S
C496 H485 0.950 . S
C496 C494 1.391 . S
C496 C497 1.400 . S
C497 C491 1.491 . S
C497 C496 1.400 . S
C497 C498 1.398 . S
C498 H486 0.950 . S
C498 C497 1.398 . S
C498 C499 1.391 . S
C499 H487 0.950 . S
C499 C495 1.393 . S
C499 C498 1.391 . S
H500 C508 0.950 . S
H501 C513 0.950 . S
H502 C510 0.950 . S
H503 C512 0.950 . S
H504 C514 0.950 . S
H505 C516 0.950 . S
H506 C518 0.950 . S
H507 C519 0.950 . S
C508 H500 0.950 . S
C508 C509 1.386 . S
C508 C510 1.391 . S
C509 C508 1.386 . S
C509 C513 1.393 . S
C510 H502 0.950 . S
C510 C508 1.391 . S
C510 C511 1.400 . S
C511 C510 1.400 . S
C511 C512 1.398 . S
C511 C517 1.491 . S
C512 H503 0.950 . S
C512 C511 1.398 . S
C512 C513 1.391 . S
C513 H501 0.950 . S
C513 C509 1.393 . S
C513 C512 1.391 . S
C514 H504 0.950 . S
C514 C515 1.386 . S
C514 C516 1.391 . S
C515 C514 1.386 . S
C515 C519 1.393 . S
C516 H505 0.950 . S
C516 C514 1.391 . S
C516 C517 1.400 . S
C517 C511 1.491 . S
C517 C516 1.400 . S
C517 C518 1.398 . S
C518 H506 0.950 . S
C518 C517 1.398 . S
C518 C519 1.391 . S
C519 H507 0.950 . S
C519 C515 1.393 . S
C519 C518 1.391 . S
H520 C528 0.950 . S
H521 C533 0.950 . S
H522 C530 0.950 . S
H523 C532 0.950 . S
H524 C534 0.950 . S
H525 C536 0.950 . S
H526 C538 0.950 . S
H527 C539 0.950 . S
C528 H520 0.950 . S
C528 C529 1.386 . S
C528 C530 1.391 . S
C529 C528 1.386 . S
C529 C533 1.393 . S
C530 H522 0.950 . S
C530 C528 1.391 . S
C530 C531 1.400 . S
C531 C530 1.400 . S
C531 C532 1.398 . S
C531 C537 1.491 . S
C532 H523 0.950 . S
C532 C531 1.398 . S
C532 C533 1.391 . S
C533 H521 0.950 . S
C533 C529 1.393 . S
C533 C532 1.391 . S
C534 H524 0.950 . S
C534 C535 1.386 . S
C534 C536 1.391 . S
C535 C534 1.386 . S
C535 C539 1.393 . S
C536 H525 0.950 . S
C536 C534 1.391 . S
C536 C537 1.400 . S
C537 C531 1.491 . S
C537 C536 1.400 . S
C537 C538 1.398 . S
C538 H526 0.950 . S
C538 C537 1.398 . S
C538 C539 1.391 . S
C539 H527 0.950 . S
C539 C535 1.393 . S
C539 C538 1.391 . S
H540 C548 0.950 . S
H541 C553 0.950 . S
H542 C550 0.950 . S
H543 C552 0.950 . S
H544 C554 0.950 . S
H545 C556 0.950 . S
H546 C558 0.950 . S
H547 C559 0.950 . S
C548 H540 0.950 . S
C548 C549 1.386 . S
C548 C550 1.391 . S
C549 C548 1.386 . S
C549 C553 1.393 . S
C550 H542 0.950 . S
C550 C548 1.391 . S
C550 C551 1.400 . S
C551 C550 1.400 . S
C551 C552 1.398 . S
C551 C557 1.491 . S
C552 H543 0.950 . S
C552 C551 1.398 . S
C552 C553 1.391 . S
C553 H541 0.950 . S
C553 C549 1.393 . S
C553 C552 1.391 . S
C554 H544 0.950 . S
C554 C555 1.386 . S
C554 C556 1.391 . S
C555 C554 1.386 . S
C555 C559 1.393 . S
C556 H545 0.950 . S
C556 C554 1.391 . S
C556 C557 1.400 . S
C557 C551 1.491 . S
C557 C556 1.400 . S
C557 C558 1.398 . S
C558 H546 0.950 . S
C558 C557 1.398 . S
C558 C559 1.391 . S
C559 H547 0.950 . S
C559 C555 1.393 . S
C559 C558 1.391 . S
H560 C568 0.950 . S
H561 C573 0.950 . S
H562 C570 0.950 . S
H563 C572 0.950 . S
H564 C574 0.950 . S
H565 C576 0.950 . S
H566 C578 0.950 . S
H567 C579 0.950 . S
C568 H560 0.950 . S
C568 C569 1.386 . S
C568 C570 1.391 . S
C569 C568 1.386 . S
C569 C573 1.393 . S
C570 H562 0.950 . S
C570 C568 1.391 . S
C570 C571 1.400 . S
C571 C570 1.400 . S
C571 C572 1.398 . S
C571 C577 1.491 . S
C572 H563 0.950 . S
C572 C571 1.398 . S
C572 C573 1.391 . S
C573 H561 0.950 . S
C573 C569 1.393 . S
C573 C572 1.391 . S
C574 H564 0.950 . S
C574 C575 1.386 . S
C574 C576 1.391 . S
C575 C574 1.386 . S
C575 C579 1.393 . S
C576 H565 0.950 . S
C576 C574 1.391 . S
C576 C577 1.400 . S
C577 C571 1.491 . S
C577 C576 1.400 . S
C577 C578 1.398 . S
C578 H566 0.950 . S
C578 C577 1.398 . S
C578 C579 1.391 . S
C579 H567 0.950 . S
C579 C575 1.393 . S
C579 C578 1.391 . S
H580 C588 0.950 . S
H581 C593 0.950 . S
H582 C590 0.950 . S
H583 C592 0.950 . S
H584 C594 0.950 . S
H585 C596 0.950 . S
H586 C598 0.950 . S
H587 C599 0.950 . S
C588 H580 0.950 . S
C588 C589 1.386 . S
C588 C590 1.391 . S
C589 C588 1.386 . S
C589 C593 1.393 . S
C590 H582 0.950 . S
C590 C588 1.391 . S
C590 C591 1.400 . S
C591 C590 1.400 . S
C591 C592 1.398 . S
C591 C597 1.491 . S
C592 H583 0.950 . S
C592 C591 1.398 . S
C592 C593 1.391 . S
C593 H581 0.950 . S
C593 C589 1.393 . S
C593 C592 1.391 . S
C594 H584 0.950 . S
C594 C595 1.386 . S
C594 C596 1.391 . S
C595 C594 1.386 . S
C595 C599 1.393 . S
C596 H585 0.950 . S
C596 C594 1.391 . S
C596 C597 1.400 . S
C597 C591 1.491 . S
C597 C596 1.400 . S
C597 C598 1.398 . S
C598 H586 0.950 . S
C598 C597 1.398 . S
C598 C599 1.391 . S
C599 H587 0.950 . S
C599 C595 1.393 . S
C599 C598 1.391 . S
H600 C608 0.950 . S
H601 C613 0.950 . S
H602 C610 0.950 . S
H603 C612 0.950 . S
H604 C614 0.950 . S
H605 C616 0.950 . S
H606 C618 0.950 . S
H607 C619 0.950 . S
C608 H600 0.950 . S
C608 C609 1.386 . S
C608 C610 1.391 . S
C609 C608 1.386 . S
C609 C613 1.393 . S
C610 H602 0.950 . S
C610 C608 1.391 . S
C610 C611 1.400 . S
C611 C610 1.400 . S
C611 C612 1.398 . S
C611 C617 1.491 . S
C612 H603 0.950 . S
C612 C611 1.398 . S
C612 C613 1.391 . S
C613 H601 0.950 . S
C613 C609 1.393 . S
C613 C612 1.391 . S
C614 H604 0.950 . S
C614 C615 1.386 . S
C614 C616 1.391 . S
C615 C614 1.386 . S
C615 C619 1.393 . S
C616 H605 0.950 . S
C616 C614 1.391 . S
C616 C617 1.400 . S
C617 C611 1.491 . S
C617 C616 1.400 . S
C617 C618 1.398 . S
C618 H606 0.950 . S
C618 C617 1.398 . S
C618 C619 1.391 . S
C619 H607 0.950 . S
C619 C615 1.393 . S
C619 C618 1.391 . S
H620 C628 0.950 . S
H621 C633 0.950 . S
H622 C630 0.950 . S
H623 C632 0.950 . S
H624 C634 0.950 . S
H625 C636 0.950 . S
H626 C638 0.950 . S
H627 C639 0.950 . S
C628 H620 0.950 . S
C628 C629 1.386 . S
C628 C630 1.391 . S
C629 C628 1.386 . S
C629 C633 1.393 . S
C630 H622 0.950 . S
C630 C628 1.391 . S
C630 C631 1.400 . S
C631 C630 1.400 . S
C631 C632 1.398 . S
C631 C637 1.491 . S
C632 H623 0.950 . S
C632 C631 1.398 . S
C632 C633 1.391 . S
C633 H621 0.950 . S
C633 C629 1.393 . S
C633 C632 1.391 . S
C634 H624 0.950 . S
C634 C635 1.386 . S
C634 C636 1.391 . S
C635 C634 1.386 . S
C635 C639 1.393 . S
C636 H625 0.950 . S
C636 C634 1.391 . S
C636 C637 1.400 . S
C637 C631 1.491 . S
C637 C636 1.400 . S
C637 C638 1.398 . S
C638 H626 0.950 . S
C638 C637 1.398 . S
C638 C639 1.391 . S
C639 H627 0.950 . S
C639 C635 1.393 . S
C639 C638 1.391 . S
H640 C648 0.950 . S
H641 C653 0.950 . S
H642 C650 0.950 . S
H643 C652 0.950 . S
H644 C654 0.950 . S
H645 C656 0.950 . S
H646 C658 0.950 . S
H647 C659 0.950 . S
C648 H640 0.950 . S
C648 C649 1.386 . S
C648 C650 1.391 . S
C649 C648 1.386 . S
C649 C653 1.393 . S
C650 H642 0.950 . S
C650 C648 1.391 . S
C650 C651 1.400 . S
C651 C650 1.400 . S
C651 C652 1.398 . S
C651 C657 1.491 . S
C652 H643 0.950 . S
C652 C651 1.398 . S
C652 C653 1.391 . S
C653 H641 0.950 . S
C653 C649 1.393 . S
C653 C652 1.391 . S
C654 H644 0.950 . S
C654 C655 1.386 . S
C654 C656 1.391 . S
C655 C654 1.386 . S
C655 C659 1.393 . S
C656 H645 0.950 . S
C656 C654 1.391 . S
C656 C657 1.400 . S
C657 C651 1.491 . S
C657 C656 1.400 . S
C657 C658 1.398 . S
C658 H646 0.950 . S
C658 C657 1.398 . S
C658 C659 1.391 . S
C659 H647 0.950 . S
C659 C655 1.393 . S
C659 C658 1.391 . S
H660 C668 0.950 . S
H661 C673 0.950 . S
H662 C670 0.950 . S
H663 C672 0.950 . S
H664 C674 0.950 . S
H665 C676 0.950 . S
H666 C678 0.950 . S
H667 C679 0.950 . S
C668 H660 0.950 . S
C668 C669 1.386 . S
C668 C670 1.391 . S
C669 C668 1.386 . S
C669 C673 1.393 . S
C670 H662 0.950 . S
C670 C668 1.391 . S
C670 C671 1.400 . S
C671 C670 1.400 . S
C671 C672 1.398 . S
C671 C677 1.491 . S
C672 H663 0.950 . S
C672 C671 1.398 . S
C672 C673 1.391 . S
C673 H661 0.950 . S
C673 C669 1.393 . S
C673 C672 1.391 . S
C674 H664 0.950 . S
C674 C675 1.386 . S
C674 C676 1.391 . S
C675 C674 1.386 . S
C675 C679 1.393 . S
C676 H665 0.950 . S
C676 C674 1.391 . S
C676 C677 1.400 . S
C677 C671 1.491 . S
C677 C676 1.400 . S
C677 C678 1.398 . S
C678 H666 0.950 . S
C678 C677 1.398 . S
C678 C679 1.391 . S
C679 H667 0.950 . S
C679 C675 1.393 . S
C679 C678 1.391 . S
H680 C688 0.950 . S
H681 C693 0.950 . S
H682 C690 0.950 . S
H683 C692 0.950 . S
H684 C694 0.950 . S
H685 C696 0.950 . S
H686 C698 0.950 . S
H687 C699 0.950 . S
C688 H680 0.950 . S
C688 C689 1.386 . S
C688 C690 1.391 . S
C689 C688 1.386 . S
C689 C693 1.393 . S
C690 H682 0.950 . S
C690 C688 1.391 . S
C690 C691 1.400 . S
C691 C690 1.400 . S
C691 C692 1.398 . S
C691 C697 1.491 . S
C692 H683 0.950 . S
C692 C691 1.398 . S
C692 C693 1.391 . S
C693 H681 0.950 . S
C693 C689 1.393 . S
C693 C692 1.391 . S
C694 H684 0.950 . S
C694 C695 1.386 . S
C694 C696 1.391 . S
C695 C694 1.386 . S
C695 C699 1.393 . S
C696 H685 0.950 . S
C696 C694 1.391 . S
C696 C697 1.400 . S
C697 C691 1.491 . S
C697 C696 1.400 . S
C697 C698 1.398 . S
C698 H686 0.950 . S
C698 C697 1.398 . S
C698 C699 1.391 . S
C699 H687 0.950 . S
C699 C695 1.393 . S
C699 C698 1.391 . S
H700 C708 0.950 . S
H701 C713 0.950 . S
H702 C710 0.950 . S
H703 C712 0.950 . S
H704 C714 0.950 . S
H705 C716 0.950 . S
H706 C718 0.950 . S
H707 C719 0.950 . S
C708 H700 0.950 . S
C708 C709 1.386 . S
C708 C710 1.391 . S
C709 C708 1.386 . S
C709 C713 1.393 . S
C710 H702 0.950 . S
C710 C708 1.391 . S
C710 C711 1.400 . S
C711 C710 1.400 . S
C711 C712 1.398 . S
C711 C717 1.491 . S
C712 H703 0.950 . S
C712 C711 1.398 . S
C712 C713 1.391 . S
C713 H701 0.950 . S
C713 C709 1.393 . S
C713 C712 1.391 . S
C714 H704 0.950 . S
C714 C715 1.386 . S
C714 C716 1.391 . S
C715 C714 1.386 . S
C715 C719 1.393 . S
C716 H705 0.950 . S
C716 C714 1.391 . S
C716 C717 1.400 . S
C717 C711 1.491 . S
C717 C716 1.400 . S
C717 C718 1.398 . S
C718 H706 0.950 . S
C718 C717 1.398 . S
C718 C719 1.391 . S
C719 H707 0.950 . S
C719 C715 1.393 . S
C719 C718 1.391 . S
H720 C728 0.950 . S
H721 C733 0.950 . S
H722 C730 0.950 . S
H723 C732 0.950 . S
H724 C734 0.950 . S
H725 C736 0.950 . S
H726 C738 0.950 . S
H727 C739 0.976 . S
C728 H720 0.950 . S
C728 C729 1.386 1_655 S
C728 C730 1.391 . S
C729 C728 1.386 1_455 S
C729 C733 1.393 . S
C730 H722 0.950 . S
C730 C728 1.391 . S
C730 C731 1.400 1_655 S
C731 C730 1.400 1_455 S
C731 C732 1.398 . S
C731 C737 1.491 . S
C732 H723 0.950 . S
C732 C731 1.398 . S
C732 C733 1.391 . S
C733 H721 0.950 . S
C733 C729 1.393 . S
C733 C732 1.391 . S
C734 H724 0.950 . S
C734 C735 1.358 1_554 S
C734 C736 1.391 . S
C735 C734 1.358 1_556 S
C735 C739 1.369 1_456 S
C736 H725 0.950 . S
C736 C734 1.391 . S
C736 C737 1.400 . S
C737 C731 1.491 . S
C737 C736 1.400 . S
C737 C738 1.398 1_455 S
C738 H726 0.950 . S
C738 C737 1.398 1_655 S
C738 C739 1.391 . S
C739 H727 0.976 . S
C739 C735 1.369 1_654 S
C739 C738 1.391 . S
H740 C748 0.936 . S
H741 C753 0.950 . S
H742 C750 0.950 . S
H743 C752 0.950 . S
H744 C754 0.950 . S
H745 C756 0.950 . S
H746 C758 0.943 . S
H747 C759 0.950 . S
C748 H740 0.936 . S
C748 C749 1.386 . S
C748 C750 1.391 . S
C749 C748 1.386 . S
C749 C753 1.393 . S
C750 H742 0.950 . S
C750 C748 1.391 . S
C750 C751 1.400 . S
C751 C750 1.400 . S
C751 C752 1.398 . S
C751 C757 1.491 . S
C752 H743 0.950 . S
C752 C751 1.398 . S
C752 C753 1.391 . S
C753 H741 0.950 . S
C753 C749 1.393 . S
C753 C752 1.391 . S
C754 H744 0.950 . S
C754 C755 1.386 . S
C754 C756 1.391 . S
C755 C754 1.386 . S
C755 C759 1.393 . S
C756 H745 0.950 . S
C756 C754 1.391 . S
C756 C757 1.400 . S
C757 C751 1.491 . S
C757 C756 1.400 . S
C757 C758 1.398 . S
C758 H746 0.943 . S
C758 C757 1.398 . S
C758 C759 1.391 . S
C759 H747 0.950 . S
C759 C755 1.393 . S
C759 C758 1.391 . S
H760 C768 0.950 . S
H761 C773 0.950 . S
H762 C770 0.950 . S
H763 C772 0.950 . S
H764 C774 0.950 . S
H765 C776 0.950 . S
H766 C778 0.950 . S
H767 C779 0.950 . S
C768 H760 0.950 . S
C768 C769 1.386 . S
C768 C770 1.391 . S
C769 C768 1.386 . S
C769 C773 1.393 . S
C770 H762 0.950 . S
C770 C768 1.391 . S
C770 C771 1.400 . S
C771 C770 1.400 . S
C771 C772 1.398 . S
C771 C777 1.491 . S
C772 H763 0.950 . S
C772 C771 1.398 . S
C772 C773 1.391 . S
C773 H761 0.950 . S
C773 C769 1.393 . S
C773 C772 1.391 . S
C774 H764 0.950 . S
C774 C775 1.386 . S
C774 C776 1.391 . S
C775 C774 1.386 . S
C775 C779 1.393 . S
C776 H765 0.950 . S
C776 C774 1.391 . S
C776 C777 1.400 . S
C777 C771 1.491 . S
C777 C776 1.400 . S
C777 C778 1.398 . S
C778 H766 0.950 . S
C778 C777 1.398 . S
C778 C779 1.391 . S
C779 H767 0.950 . S
C779 C775 1.393 . S
C779 C778 1.391 . S
H780 C788 0.950 . S
H781 C793 0.950 . S
H782 C790 0.950 . S
H783 C792 0.950 . S
H784 C794 0.950 . S
H785 C796 0.950 . S
H786 C798 0.950 . S
H787 C799 0.950 . S
C788 H780 0.950 . S
C788 C789 1.386 . S
C788 C790 1.391 . S
C789 C788 1.386 . S
C789 C793 1.393 1_545 S
C790 H782 0.950 . S
C790 C788 1.391 . S
C790 C791 1.400 . S
C791 C790 1.400 . S
C791 C792 1.398 1_545 S
C791 C797 1.490 1_545 S
C792 H783 0.950 . S
C792 C791 1.398 1_565 S
C792 C793 1.391 . S
C793 H781 0.950 . S
C793 C789 1.393 1_565 S
C793 C792 1.391 . S
C794 H784 0.950 . S
C794 C795 1.386 . S
C794 C796 1.391 . S
C795 C794 1.386 . S
C795 C799 1.393 1_565 S
C796 H785 0.950 . S
C796 C794 1.391 . S
C796 C797 1.404 . S
C797 C791 1.490 1_565 S
C797 C796 1.404 . S
C797 C798 1.395 1_565 S
C798 H786 0.950 . S
C798 C797 1.395 1_545 S
C798 C799 1.391 . S
C799 H787 0.950 . S
C799 C795 1.393 1_545 S
C799 C798 1.391 . S
H800 C808 0.950 . S
H801 C813 0.950 . S
H802 C810 0.950 . S
H803 C812 0.950 . S
H804 C814 0.950 . S
H805 C816 0.950 . S
H806 C818 0.950 . S
H807 C819 0.950 . S
C808 H800 0.950 . S
C808 C809 1.386 . S
C808 C810 1.391 . S
C809 C808 1.386 . S
C809 C813 1.393 . S
C810 H802 0.950 . S
C810 C808 1.391 . S
C810 C811 1.400 . S
C811 C810 1.400 . S
C811 C812 1.398 . S
C811 C817 1.491 . S
C812 H803 0.950 . S
C812 C811 1.398 . S
C812 C813 1.391 . S
C813 H801 0.950 . S
C813 C809 1.393 . S
C813 C812 1.391 . S
C814 H804 0.950 . S
C814 C815 1.386 . S
C814 C816 1.391 . S
C815 C814 1.386 . S
C815 C819 1.393 . S
C816 H805 0.950 . S
C816 C814 1.391 . S
C816 C817 1.400 . S
C817 C811 1.491 . S
C817 C816 1.400 . S
C817 C818 1.398 . S
C818 H806 0.950 . S
C818 C817 1.398 . S
C818 C819 1.391 . S
C819 H807 0.950 . S
C819 C815 1.393 . S
C819 C818 1.391 . S
H820 C828 0.950 . S
H821 C833 0.950 . S
H822 C830 0.950 . S
H823 C832 0.950 . S
H824 C834 0.950 . S
H825 C836 0.950 . S
H826 C838 0.950 . S
H827 C839 0.950 . S
C828 H820 0.950 . S
C828 C829 1.386 1_655 S
C828 C830 1.391 . S
C829 C828 1.386 1_455 S
C829 C833 1.393 . S
C830 H822 0.950 . S
C830 C828 1.391 . S
C830 C831 1.400 1_655 S
C831 C830 1.400 1_455 S
C831 C832 1.398 . S
C831 C837 1.491 . S
C832 H823 0.950 . S
C832 C831 1.398 . S
C832 C833 1.391 . S
C833 H821 0.950 . S
C833 C829 1.393 . S
C833 C832 1.391 . S
C834 H824 0.950 . S
C834 C835 1.401 . S
C834 C836 1.391 . S
C835 C834 1.401 . S
C835 C839 1.379 1_455 S
C836 H825 0.950 . S
C836 C834 1.391 . S
C836 C837 1.400 . S
C837 C831 1.491 . S
C837 C836 1.400 . S
C837 C838 1.398 1_455 S
C838 H826 0.950 . S
C838 C837 1.398 1_655 S
C838 C839 1.391 . S
C839 H827 0.950 . S
C839 C835 1.379 1_655 S
C839 C838 1.391 . S
C489 C6 0.607 . S
C495 C451 0.551 . S
C509 C59 1.921 . S
C515 C301 1.783 . S
C529 C86 1.220 . S
C535 C361 1.217 . S
C549 C15 0.402 . S
C555 C421 0.422 . S
C575 C331 2.037 . S
C569 C50 2.022 . S
C595 C391 1.316 . S
C589 C95 1.307 . S
C609 C46 1.207 . S
C615 C181 1.165 . S
C629 C99 3.105 . S
C635 C271 3.097 . S
C649 C10 2.052 . S
C655 C151 2.074 . S
C675 C211 1.309 . S
C669 C55 1.300 . S
C695 C241 2.857 . S
C689 C90 3.008 . S
C709 C19 1.924 . S
C715 C121 1.794 . S
C735 C260 1.804 . S
C729 C18 1.696 . S
C749 C49 1.336 . S
C755 C140 1.343 . S
C769 C98 1.466 . S
C775 C200 1.468 . S
C795 C380 1.467 . S
C789 C58 1.433 . S
C815 C440 1.092 1_556 S
C809 C89 1.069 . S
C829 C9 1.319 . S
C835 C320 1.328 . S
