# Generated by pormake.
# Topology ftw, (4,12)-cn, num edge types: 1
# Building blocks:
#     Node 0, Type 0, BuildingBlock: NAWXER_clean_linker_0, # of connection points: 4
#     Node 1, Type 0, BuildingBlock: NAWXER_clean_linker_0, # of connection points: 4
#     Node 2, Type 0, BuildingBlock: NAWXER_clean_linker_0, # of connection points: 4
#     Node 3, Type 1, BuildingBlock: QEWDON_clean_sbu_0, # of connection points: 12
#     Edge 4, Type (0, 1), BuildingBlock: MIFKUJ_clean_linker_0, # of connection points: 2
#     Edge 5, Type (0, 1), BuildingBlock: MIFKUJ_clean_linker_0, # of connection points: 2
#     Edge 6, Type (0, 1), BuildingBlock: MIFKUJ_clean_linker_0, # of connection points: 2
#     Edge 7, Type (0, 1), BuildingBlock: MIFKUJ_clean_linker_0, # of connection points: 2
#     Edge 8, Type (0, 1), BuildingBlock: MIFKUJ_clean_linker_0, # of connection points: 2
#     Edge 9, Type (0, 1), BuildingBlock: MIFKUJ_clean_linker_0, # of connection points: 2
#     Edge 10, Type (0, 1), BuildingBlock: MIFKUJ_clean_linker_0, # of connection points: 2
#     Edge 11, Type (0, 1), BuildingBlock: MIFKUJ_clean_linker_0, # of connection points: 2
#     Edge 12, Type (0, 1), BuildingBlock: MIFKUJ_clean_linker_0, # of connection points: 2
#     Edge 13, Type (0, 1), BuildingBlock: MIFKUJ_clean_linker_0, # of connection points: 2
#     Edge 14, Type (0, 1), BuildingBlock: MIFKUJ_clean_linker_0, # of connection points: 2
#     Edge 15, Type (0, 1), BuildingBlock: MIFKUJ_clean_linker_0, # of connection points: 2
# Relax obj value: 0.054
# Max RMSD: 0.161
# Mean RMSD: 0.117
data_MOF--net-ftw--node1-QEWDON_clean_sbu_0--node2-NAWXER_clean_linker_0--edge1-MIFKUJ_clean_linker_0
_symmetry_space_group_name_H-M    P1
_symmetry_Int_Tables_number       1
_symmetry_cell_setting            triclinic
loop_
_symmetry_equiv_pos_as_xyz
'x, y, z'
_cell_length_a     32.519425
_cell_length_b     35.898103
_cell_length_c     35.688159
_cell_angle_alpha  90.111845
_cell_angle_beta   90.121595
_cell_angle_gamma 89.886078
loop_
_atom_site_label
_atom_site_type_symbol
_atom_site_fract_x
_atom_site_fract_y
_atom_site_fract_z
_atom_type_partial_charge
C0 C 0.01927 0.62066 0.5935 0.0
C1 C 0.98911 0.62165 0.62173 0.0
C2 C 0.02067 0.59106 0.56783 0.0
C3 C 0.99163 0.56214 0.56966 0.0
C4 C 0.95932 0.59334 0.62256 0.0
C5 C 0.96072 0.56389 0.597 0.0
C6 C 0.9958 0.52778 0.54678 0.0
C7 C 0.97411 0.61652 0.45744 0.0
C8 C 0.00835 0.62191 0.43387 0.0
C9 C 0.97305 0.58669 0.48272 0.0
C10 C 0.006 0.56146 0.48473 0.0
C11 C 0.04187 0.59718 0.43718 0.0
C12 C 0.04041 0.56706 0.46188 0.0
C13 C 0.00353 0.52742 0.50794 0.0
C14 C 0.97712 0.36645 0.46505 0.0
C15 C 0.00223 0.36641 0.43305 0.0
C16 C 0.97829 0.39639 0.49034 0.0
C17 C 0.0056 0.42628 0.48475 0.0
C18 C 0.02968 0.39601 0.42763 0.0
C19 C 0.03146 0.42546 0.45322 0.0
C20 C 0.00434 0.46055 0.50837 0.0
C21 C 0.03016 0.3704 0.59512 0.0
C22 C 0.00416 0.37045 0.62655 0.0
C23 C 0.02752 0.39898 0.56844 0.0
C24 C -0.00199 0.42749 0.5722 0.0
C25 C 0.97428 0.39851 0.62989 0.0
C26 C 0.97118 0.42658 0.60302 0.0
C27 C -0.00203 0.46096 0.54767 0.0
H28 H 0.04293 0.64181 0.59233 0.0
H29 H 0.0456 0.58996 0.54781 0.0
H30 H 0.93523 0.59356 0.64348 0.0
H31 H 0.93805 0.54191 0.59912 0.0
H32 H 0.94743 0.6345 0.45554 0.0
H33 H 0.94586 0.58255 0.49968 0.0
H34 H 0.0693 0.60079 0.42046 0.0
H35 H 0.06621 0.54794 0.46302 0.0
H36 H 0.95529 0.34416 0.46958 0.0
H37 H 0.9567 0.39671 0.51337 0.0
H38 H 0.04948 0.39659 0.40326 0.0
H39 H 0.05257 0.44815 0.44785 0.0
H40 H 0.05369 0.34922 0.59209 0.0
H41 H 0.04961 0.39949 0.5458 0.0
H42 H 0.95359 0.39902 0.65365 0.0
H43 H 0.94831 0.44825 0.60687 0.0
N44 N 0.99355 0.49459 0.5649 0.0
N45 N 0.00731 0.49391 0.4904 0.0
C46 C 0.57254 0.02327 0.64977 0.0
C47 C 0.60265 0.99532 0.65445 0.0
C48 C 0.54447 0.02162 0.61996 0.0
C49 C 0.546 0.99205 0.5942 0.0
C50 C 0.60333 0.96541 0.62886 0.0
C51 C 0.57568 0.96407 0.5989 0.0
C52 C 0.51982 0.99172 0.56026 0.0
C53 C 0.43188 0.97481 0.65758 0.0
C54 C 0.39579 0.99666 0.65676 0.0
C55 C 0.45865 0.97399 0.62684 0.0
C56 C 0.45068 0.99591 0.59502 0.0
C57 C 0.38773 0.01802 0.62454 0.0
C58 C 0.41488 0.01786 0.59437 0.0
C59 C 0.4764 0.99401 0.56063 0.0
C60 C 0.43159 0.96558 0.3982 0.0
C61 C 0.39352 0.98413 0.39874 0.0
C62 C 0.45896 0.96893 0.42838 0.0
C63 C 0.44932 0.99186 0.4592 0.0
C64 C 0.3838 0.00691 0.42947 0.0
C65 C 0.41142 0.01085 0.45923 0.0
C66 C 0.47565 0.99322 0.49338 0.0
C67 C 0.56796 0.03207 0.40594 0.0
C68 C 0.60041 0.00675 0.39958 0.0
C69 C 0.54013 0.02641 0.43525 0.0
C70 C 0.54434 0.99552 0.45899 0.0
C71 C 0.60338 0.97509 0.42273 0.0
C72 C 0.57606 0.96988 0.45239 0.0
C73 C 0.51909 0.99212 0.49319 0.0
H74 H 0.57136 0.04704 0.66844 0.0
H75 H 0.5224 0.04398 0.61637 0.0
H76 H 0.62532 0.94292 0.63183 0.0
H77 H 0.57756 0.94112 0.5792 0.0
H78 H 0.43948 0.95811 0.68183 0.0
H79 H 0.48488 0.95544 0.6278 0.0
H80 H 0.35987 0.03436 0.62201 0.0
H81 H 0.40739 0.03462 0.57005 0.0
H82 H 0.43954 0.94741 0.37504 0.0
H83 H 0.4868 0.95241 0.42803 0.0
H84 H 0.35474 0.02168 0.4305 0.0
H85 H 0.4028 0.02843 0.48266 0.0
H86 H 0.56488 0.05706 0.38925 0.0
H87 H 0.51637 0.04699 0.44035 0.0
H88 H 0.62715 0.9544 0.4183 0.0
H89 H 0.57995 0.94593 0.4705 0.0
N90 N 0.53926 0.9909 0.52657 0.0
N91 N 0.45637 0.9944 0.52713 0.0
C92 C 0.44444 0.38347 0.01931 0.0
C93 C 0.41411 0.3678 0.04224 0.0
C94 C 0.46615 0.41468 0.03137 0.0
C95 C 0.45786 0.43062 0.06649 0.0
C96 C 0.40639 0.38344 0.07774 0.0
C97 C 0.42797 0.4149 0.08967 0.0
C98 C 0.47962 0.46462 0.07778 0.0
C99 C 0.55595 0.36484 0.09423 0.0
C100 C 0.58176 0.36067 0.06286 0.0
C101 C 0.53844 0.39938 0.10265 0.0
C102 C 0.54688 0.43036 0.08011 0.0
C103 C 0.59164 0.39235 0.04155 0.0
C104 C 0.57464 0.42693 0.05036 0.0
C105 C 0.52248 0.46476 0.08352 0.0
C106 C 0.55353 0.63225 0.0864 0.0
C107 C 0.58488 0.63248 0.05938 0.0
C108 C 0.53486 0.59872 0.09655 0.0
C109 C 0.54694 0.5652 0.07929 0.0
C110 C 0.59904 0.59851 0.0446 0.0
C111 C 0.58026 0.56521 0.05448 0.0
C112 C 0.52222 0.53093 0.08262 0.0
C113 C 0.45068 0.6168 0.02157 0.0
C114 C 0.41675 0.62992 0.04183 0.0
C115 C 0.47003 0.5838 0.03204 0.0
C116 C 0.45674 0.56418 0.06381 0.0
C117 C 0.40191 0.60922 0.07231 0.0
C118 C 0.42189 0.57648 0.0833 0.0
C119 C 0.47928 0.53069 0.07613 0.0
H120 H 0.45094 0.37187 0.99191 0.0
H121 H 0.48898 0.42682 0.01302 0.0
H122 H 0.3827 0.37211 0.09568 0.0
H123 H 0.42115 0.42711 0.11675 0.0
H124 H 0.54858 0.3413 0.11189 0.0
H125 H 0.51714 0.40164 0.12585 0.0
H126 H 0.61099 0.39023 0.017 0.0
H127 H 0.5811 0.45052 0.03241 0.0
H128 H 0.54249 0.65802 0.09865 0.0
H129 H 0.50968 0.59919 0.11636 0.0
H130 H 0.62425 0.59771 0.02481 0.0
H131 H 0.59036 0.53968 0.04107 0.0
H132 H 0.4621 0.63204 0.99758 0.0
H133 H 0.49595 0.57395 0.01575 0.0
H134 H 0.37557 0.6189 0.08814 0.0
H135 H 0.41079 0.56129 0.10743 0.0
N136 N 0.45946 0.49753 0.07435 0.0
N137 N 0.54233 0.49787 0.08559 0.0
Zn138 Zn 0.03513 0.06376 0.9925 0.0
Zn139 Zn 0.04615 0.06456 0.08349 0.0
O140 O 0.03064 0.03233 0.03926 0.0
H141 H 0.03765 0.00648 0.03554 0.0
C142 C 0.97683 0.12728 0.94198 0.0
O143 O 0.97574 0.14404 0.97473 0.0
Zn144 Zn 0.95197 0.93203 0.08985 0.0
Zn145 Zn 0.95603 0.94126 0.99879 0.0
O146 O 0.97101 0.96608 0.04861 0.0
H147 H 0.97195 0.99276 0.0505 0.0
Zn148 Zn 0.93696 0.06789 0.98559 0.0
O149 O 0.96317 0.07461 0.03674 0.0
Zn150 Zn 0.91931 0.06478 0.07472 0.0
H151 H 0.9846 0.09286 0.04039 0.0
Zn152 Zn 0.048 0.92405 0.98702 0.0
O153 O 0.02523 0.91372 0.03887 0.0
H154 H 0.00419 0.8954 0.04373 0.0
Zn155 Zn 0.0707 0.92727 0.07446 0.0
C156 C 0.01462 0.86464 0.94018 0.0
O157 O 0.02086 0.8461 0.9714 0.0
O158 O 0.06372 0.11307 1.00342 0.0
O159 O 0.08127 0.10654 0.06343 0.0
O160 O 0.92453 0.89263 1.00598 0.0
O161 O 0.91437 0.89311 0.06762 0.0
O162 O 0.87433 0.07405 0.98924 0.0
O163 O 0.86374 0.07467 0.05102 0.0
C164 C 0.08755 -0.00059 0.11539 0.0
O165 O 0.10993 0.91505 0.98856 0.0
O166 O 0.12546 0.91606 0.0495 0.0
O167 O 0.92763 0.97088 0.95545 0.0
C168 C 0.08355 0.1238 0.03223 0.0
O169 O 0.06401 0.03995 0.94636 0.0
C170 C 0.90909 0.99519 0.12292 0.0
O171 O 0.9635 0.09408 0.93935 0.0
C172 C 0.9077 0.87937 0.03518 0.0
O173 O 0.02146 0.89949 0.93981 0.0
C174 C 0.96749 0.10375 0.12947 0.0
O175 O 0.08195 0.03437 0.11846 0.0
O176 O 0.06788 0.9813 0.09048 0.0
C177 C 0.85047 0.07667 0.0174 0.0
O178 O 0.91849 0.96108 0.12695 0.0
O179 O 0.92156 0.01208 0.09376 0.0
C180 C 0.02852 0.89005 0.13436 0.0
O181 O 0.93087 0.0984 0.118 0.0
O182 O 0.99762 0.08883 0.11199 0.0
C183 C 0.1358 0.9122 0.0152 0.0
O184 O 0.06355 0.89545 0.11956 0.0
O185 O 0.99628 0.90456 0.12006 0.0
C186 C 0.89085 0.9822 0.96009 0.0
O187 O 0.87414 0.97923 0.99345 0.0
C188 C 0.0941 0.01763 0.9506 0.0
O189 O 0.10383 0.0064 0.9845 0.0
H190 H 0.0063 0.29068 0.44244 0.0
H191 H 0.00188 0.24238 0.39342 0.0
H192 H 0.98353 0.32742 0.30994 0.0
H193 H 0.98905 0.37566 0.35842 0.0
H194 H 0.92488 0.24861 0.32198 0.0
H195 H 0.06074 0.30843 0.29431 0.0
H196 H 0.1296 0.32791 0.31581 0.0
H197 H 0.15464 0.21664 0.35366 0.0
H198 H 0.08558 0.19674 0.33294 0.0
H199 H 0.92531 0.16705 0.1447 0.0
H200 H 0.93341 0.20885 0.19803 0.0
H201 H 0.03112 0.13927 0.24102 0.0
H202 H 0.02509 0.09886 0.18563 0.0
H203 H 0.05047 0.20457 0.25651 0.0
H204 H 0.92588 0.13936 0.27421 0.0
H205 H 0.85793 0.11423 0.25747 0.0
H206 H 0.80938 0.22511 0.24849 0.0
H207 H 0.87753 0.25108 0.26386 0.0
C208 C 0.00128 0.29894 0.41361 0.0
C209 C -0.00168 0.33685 0.40411 0.0
C210 C -0.00118 0.27143 0.38573 0.0
C211 C 0.99264 0.28147 0.34814 0.0
C212 C 0.98858 0.31921 0.33879 0.0
C213 C 0.99187 0.34667 0.36643 0.0
C214 C 0.99063 0.25279 0.3183 0.0
C215 C 0.95215 0.23904 0.30734 0.0
C216 C 0.02642 0.23928 0.30053 0.0
C217 C 0.0679 0.25127 0.31259 0.0
C218 C 0.08076 0.28826 0.30762 0.0
C219 C 0.11986 0.29935 0.31957 0.0
C220 C 0.14643 0.27356 0.33623 0.0
C221 C 0.134 0.23661 0.34086 0.0
C222 C 0.09491 0.22543 0.32902 0.0
C223 C 0.94872 0.16081 0.16543 0.0
C224 C 0.97436 0.12957 0.16123 0.0
C225 C 0.95307 0.18455 0.1962 0.0
C226 C 0.98189 0.1767 0.22455 0.0
C227 C 0.00836 0.14592 0.21986 0.0
C228 C 0.00491 0.12277 0.18825 0.0
C229 C 0.98423 0.2008 0.25875 0.0
C230 C 0.02286 0.21365 0.27092 0.0
C231 C 0.94844 0.21265 0.27834 0.0
C232 C 0.90702 0.19719 0.26995 0.0
C233 C 0.90081 0.15843 0.26848 0.0
C234 C 0.8622 0.14402 0.25922 0.0
C235 C 0.82927 0.168 0.25204 0.0
C236 C 0.83491 0.20653 0.25407 0.0
C237 C 0.87357 0.22114 0.263 0.0
H238 H 0.79941 0.15673 0.24488 0.0
H239 H 0.17669 0.28218 0.34544 0.0
H240 H 0.68288 0.99001 0.40155 0.0
H241 H 0.73409 0.00032 0.35341 0.0
H242 H 0.64269 0.05321 0.28356 0.0
H243 H 0.59015 0.04006 0.33048 0.0
H244 H 0.68654 0.01283 0.24161 0.0
H245 H 0.72168 0.10382 0.33187 0.0
H246 H 0.73782 0.13103 0.39364 0.0
H247 H 0.84383 0.06013 0.403 0.0
H248 H 0.828 0.03208 0.34154 0.0
H249 H 0.84964 0.04927 0.11456 0.0
H250 H 0.79751 0.06676 0.16087 0.0
H251 H 0.8571 0.99665 0.24271 0.0
H252 H 0.90931 0.97979 0.19689 0.0
H253 H 0.82568 0.05845 0.2751 0.0
H254 H 0.78119 0.96576 0.18216 0.0
H255 H 0.76647 0.94823 0.11656 0.0
H256 H 0.67546 0.03481 0.10952 0.0
H257 H 0.68943 0.05244 0.17513 0.0
C258 C 0.67323 0.00328 0.37577 0.0
C259 C 0.632 0.01398 0.37009 0.0
C260 C 0.70296 0.00991 0.34844 0.0
C261 C 0.69269 0.02843 0.31507 0.0
C262 C 0.6516 0.03916 0.30917 0.0
C263 C 0.62158 0.03192 0.33628 0.0
C264 C 0.72463 0.03497 0.28589 0.0
C265 C 0.71662 0.02374 0.24885 0.0
C266 C 0.76404 0.04928 0.29494 0.0
C267 C 0.77344 0.06565 0.3322 0.0
C268 C 0.74823 0.09379 0.34724 0.0
C269 C 0.75737 0.10941 0.38218 0.0
C270 C 0.79178 0.09726 0.40226 0.0
C271 C 0.81716 0.06949 0.38743 0.0
C272 C 0.80814 0.05375 0.35252 0.0
C273 C 0.85247 0.03882 0.14276 0.0
C274 C 0.88342 0.01307 0.152 0.0
C275 C 0.82243 0.04854 0.16918 0.0
C276 C 0.82295 0.03248 0.2051 0.0
C277 C 0.85586 0.00926 0.21517 0.0
C278 C 0.88565 -0.00046 0.18887 0.0
C279 C 0.78764 0.03615 0.23122 0.0
C280 C 0.79514 0.04885 0.26774 0.0
C281 C 0.74754 0.02416 0.22143 0.0
C282 C 0.73717 0.01121 0.18312 0.0
C283 C 0.75812 0.98109 0.16657 0.0
C284 C 0.74985 0.97105 0.12943 0.0
C285 C 0.72039 0.99069 0.1088 0.0
C286 C 0.69851 0.01982 0.12544 0.0
C287 C 0.70657 0.02982 0.16257 0.0
H288 H 0.71437 0.98334 0.07996 0.0
H289 H 0.79883 0.10942 0.42929 0.0
H290 H 0.04343 0.62043 0.36382 0.0
H291 H 0.0456 0.66994 0.31735 0.0
H292 H 0.97401 0.74085 0.38976 0.0
H293 H 0.97353 0.69219 0.43774 0.0
H294 H 0.94703 0.73514 0.3099 0.0
H295 H 0.06611 0.76203 0.38586 0.0
H296 H 0.13134 0.74758 0.41808 0.0
H297 H 0.18614 0.7166 0.31316 0.0
H298 H 0.121 0.7303 0.28038 0.0
H299 H 0.97131 0.8925 0.19039 0.0
H300 H 0.96616 0.85125 0.24472 0.0
H301 H 0.07112 0.7888 0.20502 0.0
H302 H 0.07798 0.83156 0.1524 0.0
H303 H 0.07898 0.79395 0.27376 0.0
H304 H 0.96237 0.75995 0.19737 0.0
H305 H 0.89806 0.77098 0.16227 0.0
H306 H 0.83939 0.80979 0.26275 0.0
H307 H 0.90352 0.79938 0.29836 0.0
C308 C 0.02879 0.64671 0.37049 0.0
C309 C 0.00873 0.65219 0.40506 0.0
C310 C 0.02975 0.6749 0.34358 0.0
C311 C 0.01015 0.70907 0.35021 0.0
C312 C 0.98928 0.71459 0.38413 0.0
C313 C 0.98889 0.68658 0.41145 0.0
C314 C 0.01181 0.73888 0.32153 0.0
C315 C 0.97571 0.7485 0.30226 0.0
C316 C 0.04944 0.75544 0.31101 0.0
C317 C 0.08852 0.74683 0.33073 0.0
C318 C 0.09192 0.75175 0.36971 0.0
C319 C 0.12892 0.74378 0.38806 0.0
C320 C 0.16284 0.73109 0.36769 0.0
C321 C 0.15983 0.72638 0.32891 0.0
C322 C 0.12289 0.73426 0.31043 0.0
C323 C 0.99329 0.86998 0.19344 0.0
C324 C 0.02502 0.86519 0.16719 0.0
C325 C 0.99014 0.84617 0.22435 0.0
C326 C 0.01771 0.81621 0.22883 0.0
C327 C 0.04944 0.81161 0.20248 0.0
C328 C 0.05332 0.83604 0.17228 0.0
C329 C 0.01426 0.78985 0.26101 0.0
C330 C 0.0501 0.78084 0.28118 0.0
C331 C 0.97649 0.77323 0.27173 0.0
C332 C 0.93785 0.77926 0.25042 0.0
C333 C 0.93582 0.77104 0.21192 0.0
C334 C 0.8994 0.77715 0.19194 0.0
C335 C 0.8647 0.79118 0.21024 0.0
C336 C 0.86631 0.79899 0.2486 0.0
C337 C 0.90267 0.79296 0.26869 0.0
H338 H 0.83654 0.79592 0.19472 0.0
H339 H 0.19147 0.72499 0.38194 0.0
H340 H 0.31242 0.96574 0.40425 0.0
H341 H 0.26216 0.95932 0.35329 0.0
H342 H 0.35631 0.98564 0.27272 0.0
H343 H 0.40688 0.99153 0.3236 0.0
H344 H 0.28158 0.02815 0.26617 0.0
H345 H 0.32691 0.90125 0.27653 0.0
H346 H 0.3413 0.84186 0.30853 0.0
H347 H 0.21382 0.83172 0.3378 0.0
H348 H 0.19876 0.89149 0.30661 0.0
H349 H 0.1691 0.00047 0.10301 0.0
H350 H 0.22323 0.98854 0.14929 0.0
H351 H 0.13192 0.95092 0.2281 0.0
H352 H 0.07767 0.96249 0.18134 0.0
H353 H 0.20567 0.91213 0.2355 0.0
H354 H 0.1597 0.03843 0.23078 0.0
H355 H 0.14213 0.09803 0.20045 0.0
H356 H 0.26724 0.11046 0.16441 0.0
H357 H 0.28542 0.05054 0.19401 0.0
C358 C 0.32237 0.97 0.37563 0.0
C359 C 0.36348 0.97918 0.36779 0.0
C360 C 0.29374 0.96612 0.34659 0.0
C361 C 0.3056 0.9718 0.30925 0.0
C362 C 0.34663 0.98098 0.30135 0.0
C363 C 0.37545 0.98423 0.33035 0.0
C364 C 0.27471 0.96987 0.27866 0.0
C365 C 0.26549 0.00264 0.25903 0.0
C366 C 0.2527 0.93685 0.27036 0.0
C367 C 0.26179 0.90114 0.2896 0.0
C368 C 0.30201 0.88664 0.2902 0.0
C369 C 0.31028 0.85283 0.30812 0.0
C370 C 0.27852 0.83309 0.3253 0.0
C371 C 0.23841 0.8471 0.32457 0.0
C372 C 0.23 0.88094 0.30678 0.0
C373 C 0.16088 0.9883 0.12972 0.0
C374 C 0.11951 0.98203 0.13869 0.0
C375 C 0.19169 0.9818 0.15624 0.0
C376 C 0.18153 0.96954 0.1924 0.0
C377 C 0.14044 0.96046 0.20041 0.0
C378 C 0.10953 0.96691 0.17373 0.0
C379 C 0.21297 0.9703 0.22271 0.0
C380 C 0.22201 0.93753 0.24249 0.0
C381 C 0.23446 0.00347 0.23168 0.0
C382 C 0.22381 0.03975 0.21421 0.0
C383 C 0.1834 0.05371 0.21612 0.0
C384 C 0.17333 0.08757 0.1991 0.0
C385 C 0.20352 0.10795 0.18039 0.0
C386 C 0.24387 0.09458 0.17883 0.0
C387 C 0.25408 0.06067 0.19573 0.0
H388 H 0.19566 0.13415 0.1672 0.0
H389 H 0.28497 0.80688 0.33908 0.0
H390 H 0.97701 0.61186 0.69666 0.0
H391 H 0.9775 0.6587 0.74609 0.0
H392 H 0.00451 0.74393 0.6648 0.0
H393 H 0.00412 0.69683 0.61481 0.0
H394 H 0.05029 0.75324 0.72674 0.0
H395 H 0.90771 0.7363 0.70162 0.0
H396 H 0.84336 0.70155 0.69118 0.0
H397 H 0.85105 0.65632 0.80227 0.0
H398 H 0.91576 0.69042 0.81323 0.0
H399 H 0.01527 0.89157 0.86826 0.0
H400 H 0.00709 0.85597 0.8101 0.0
H401 H 0.98545 0.75622 0.87421 0.0
H402 H 0.99326 0.79153 0.93233 0.0
H403 H 0.93312 0.7617 0.81523 0.0
H404 H 0.07991 0.77497 0.83702 0.0
H405 H 0.14359 0.81097 0.84699 0.0
H406 H 0.12662 0.86515 0.74092 0.0
H407 H 0.06252 0.82979 0.73052 0.0
C408 C 0.98254 0.64062 0.68911 0.0
C409 C 0.98991 0.65065 0.65164 0.0
C410 C 0.98289 0.66741 0.71748 0.0
C411 C 0.99022 0.70501 0.70913 0.0
C412 C -0.00146 0.71512 0.67189 0.0
C413 C -0.00164 0.68819 0.64338 0.0
C414 C 0.98945 0.73336 0.7396 0.0
C415 C 0.02435 0.75561 0.74566 0.0
C416 C 0.95576 0.73629 0.76455 0.0
C417 C 0.91677 0.71574 0.75814 0.0
C418 C 0.89584 0.71874 0.72374 0.0
C419 C 0.85927 0.69919 0.71775 0.0
C420 C 0.84316 0.67669 0.74602 0.0
C421 C 0.86357 0.67375 0.78039 0.0
C422 C 0.90017 0.69323 0.78652 0.0
C423 C 0.00826 0.86215 0.86998 0.0
C424 C 0.00518 0.84434 0.90497 0.0
C425 C 0.00387 0.84181 0.8367 0.0
C426 C 0.99628 0.80333 0.83781 0.0
C427 C 0.99147 0.78586 0.87268 0.0
C428 C 0.99602 0.80609 0.9059 0.0
C429 C 0.99431 0.78076 0.80291 0.0
C430 C 0.95883 0.75965 0.796 0.0
C431 C 0.02736 0.7791 0.77713 0.0
C432 C 0.06613 0.80007 0.78322 0.0
C433 C 0.08958 0.79477 0.81595 0.0
C434 C 0.12578 0.81502 0.82166 0.0
C435 C 0.139 0.84047 0.79469 0.0
C436 C 0.11623 0.84552 0.76184 0.0
C437 C 0.07999 0.82536 0.75601 0.0
H438 H 0.16689 0.85625 0.79921 0.0
H439 H 0.81484 0.66158 0.74133 0.0
H440 H 0.37688 0.93927 0.70529 0.0
H441 H 0.32731 0.93965 0.7563 0.0
H442 H 0.29447 0.05309 0.72954 0.0
H443 H 0.34688 0.05431 0.68138 0.0
H444 H 0.29429 0.0492 0.79822 0.0
H445 H 0.23414 0.96977 0.70477 0.0
H446 H 0.22781 0.91676 0.66105 0.0
H447 H 0.24205 0.84014 0.75245 0.0
H448 H 0.24922 0.89283 0.79652 0.0
H449 H 0.09727 0.05327 0.88319 0.0
H450 H 0.14905 0.04582 0.8342 0.0
H451 H 0.2058 0.95674 0.89665 0.0
H452 H 0.15471 0.96464 0.94646 0.0
H453 H 0.19438 0.94604 0.8131 0.0
H454 H 0.25051 0.03152 0.90576 0.0
H455 H 0.24686 0.08722 0.94622 0.0
H456 H 0.23018 0.15651 0.84943 0.0
H457 H 0.23316 0.10113 0.80841 0.0
C458 C 0.35983 0.96463 0.71065 0.0
C459 C 0.366 0.99668 0.68865 0.0
C460 C 0.33072 0.96453 0.73951 0.0
C461 C 0.30615 0.99608 0.74638 0.0
C462 C 0.31268 0.02822 0.72485 0.0
C463 C 0.34246 0.02868 0.69674 0.0
C464 C 0.27413 0.99614 0.77629 0.0
C465 C 0.27226 0.02673 0.80095 0.0
C466 C 0.24544 0.96671 0.78067 0.0
C467 C 0.24262 0.93516 0.7539 0.0
C468 C 0.2364 0.94162 0.71546 0.0
C469 C 0.23258 0.91165 0.69061 0.0
C470 C 0.23463 0.8751 0.70393 0.0
C471 C 0.24058 0.86845 0.74212 0.0
C472 C 0.24452 0.89832 0.76703 0.0
C473 C 0.12034 0.03169 0.88633 0.0
C474 C 0.12188 0.00955 0.91878 0.0
C475 C 0.14997 0.0276 0.85836 0.0
C476 C 0.18131 0.00097 0.86205 0.0
C477 C 0.18181 0.9775 0.89342 0.0
C478 C 0.15259 0.98203 0.9218 0.0
C479 C 0.21466 -0.00091 0.834 0.0
C480 C 0.21671 0.96825 0.81 0.0
C481 C 0.24271 0.02873 0.82946 0.0
C482 C 0.24169 0.06212 0.85405 0.0
C483 C 0.24577 0.0586 0.89312 0.0
C484 C 0.24387 0.09012 0.91616 0.0
C485 C 0.23815 0.12538 0.90042 0.0
C486 C 0.23454 0.12919 0.86159 0.0
C487 C 0.23638 0.09774 0.83844 0.0
H488 H 0.2366 0.14974 0.91831 0.0
H489 H 0.23153 0.85195 0.68468 0.0
H490 H 0.00717 0.2944 0.62023 0.0
H491 H 0.01063 0.24868 0.6714 0.0
H492 H 0.01621 0.33811 0.75209 0.0
H493 H 0.01223 0.38372 0.70125 0.0
H494 H 0.07222 0.27815 0.767 0.0
H495 H 0.92881 0.30021 0.73904 0.0
H496 H 0.8674 0.30314 0.69852 0.0
H497 H 0.88068 0.18695 0.6723 0.0
H498 H 0.94263 0.18348 0.71224 0.0
H499 H 0.00443 0.19909 0.93778 0.0
H500 H 0.01755 0.23557 0.88146 0.0
H501 H 0.99064 0.13959 0.81278 0.0
H502 H 0.97664 0.10304 0.86908 0.0
H503 H 0.95017 0.19818 0.7879 0.0
H504 H 0.08924 0.17398 0.82198 0.0
H505 H 0.14933 0.17076 0.86408 0.0
H506 H 0.14518 0.2894 0.87914 0.0
H507 H 0.08448 0.29326 0.83784 0.0
C508 C 0.00953 0.30418 0.64888 0.0
C509 C 0.00906 0.34253 0.65686 0.0
C510 C 0.01144 0.27812 0.67804 0.0
C511 C 0.01354 0.29005 0.71553 0.0
C512 C 0.01467 0.32833 0.72338 0.0
C513 C 0.0121 0.35431 0.69437 0.0
C514 C 0.01215 0.26285 0.74681 0.0
C515 C 0.04553 0.26072 0.77175 0.0
C516 C 0.97768 0.23959 0.75245 0.0
C517 C 0.94069 0.24172 0.72817 0.0
C518 C 0.91893 0.27539 0.72428 0.0
C519 C 0.88396 0.27713 0.7015 0.0
C520 C 0.87024 0.24528 0.68273 0.0
C521 C 0.89142 0.21162 0.68677 0.0
C522 C 0.92646 0.20975 0.70946 0.0
C523 C 0.00173 0.18556 0.91074 0.0
C524 C 0.98924 0.14816 0.90799 0.0
C525 C 0.0095 0.20644 0.8785 0.0
C526 C 0.0054 0.19031 0.84279 0.0
C527 C 0.99403 0.15267 0.83999 0.0
C528 C 0.98615 0.13177 0.87225 0.0
C529 C 0.0102 0.21342 0.80848 0.0
C530 C 0.97731 0.21499 0.78296 0.0
C531 C 0.04522 0.23602 0.80233 0.0
C532 C 0.08205 0.23388 0.82697 0.0
C533 C 0.10093 0.19937 0.83449 0.0
C534 C 0.13513 0.19742 0.85822 0.0
C535 C 0.15106 0.22984 0.87433 0.0
C536 C 0.13279 0.26428 0.86672 0.0
C537 C 0.09849 0.26637 0.84312 0.0
H538 H 0.17759 0.2283 0.89263 0.0
H539 H 0.84312 0.24667 0.66515 0.0
H540 H 0.59249 0.02199 0.72634 0.0
H541 H 0.6437 0.02506 0.77649 0.0
H542 H 0.73412 0.97573 0.7034 0.0
H543 H 0.68385 0.97386 0.65267 0.0
H544 H 0.73238 0.94203 0.77239 0.0
H545 H 0.74078 0.06509 0.72281 0.0
H546 H 0.71554 0.12644 0.70195 0.0
H547 H 0.67109 0.14965 0.81279 0.0
H548 H 0.69554 0.08813 0.83422 0.0
H549 H 0.90783 0.97147 0.88573 0.0
H550 H 0.86054 0.97851 0.83282 0.0
H551 H 0.76746 0.02159 0.90714 0.0
H552 H 0.8144 0.01427 0.96038 0.0
H553 H 0.77146 0.05932 0.83705 0.0
H554 H 0.76296 0.93447 0.88561 0.0
H555 H 0.79166 0.87413 0.90577 0.0
H556 H 0.83847 0.85478 0.79505 0.0
H557 H 0.8108 0.91544 0.77436 0.0
C558 C 0.6234 0.01231 0.72062 0.0
C559 C 0.63376 0.99754 0.68527 0.0
C560 C 0.65262 0.01394 0.74945 0.0
C561 C 0.69278 0.0007 0.74367 0.0
C562 C 0.70326 0.98592 0.70856 0.0
C563 C 0.67426 0.98465 0.67962 0.0
C564 C 0.72367 0.00151 0.77443 0.0
C565 C 0.7413 0.96775 0.78618 0.0
C566 C 0.73481 0.03498 0.79287 0.0
C567 C 0.71956 0.0718 0.78001 0.0
C568 C 0.72521 0.08309 0.74265 0.0
C569 C 0.71114 0.11794 0.73074 0.0
C570 C 0.6916 0.14188 0.756 0.0
C571 C 0.68615 0.13103 0.79324 0.0
C572 C 0.70013 0.09618 0.80529 0.0
C573 C 0.87759 0.9831 0.89079 0.0
C574 C 0.86483 0.9921 0.92736 0.0
C575 C 0.85053 0.98694 0.86051 0.0
C576 C 0.81033 0.00013 0.86614 0.0
C577 C 0.7983 0.01126 0.90221 0.0
C578 C 0.82518 0.00701 0.93261 0.0
C579 C 0.78004 -0.00011 0.83492 0.0
C580 C 0.7625 0.03367 0.82318 0.0
C581 C 0.76908 0.96646 0.81632 0.0
C582 C 0.78519 0.92971 0.82854 0.0
C583 C 0.77965 0.9175 0.86563 0.0
C584 C 0.79568 0.88321 0.87715 0.0
C585 C 0.81691 0.86066 0.85174 0.0
C586 C 0.82206 0.87231 0.81471 0.0
C587 C 0.80622 0.90665 0.80307 0.0
H588 H 0.8293 0.83413 0.86074 0.0
H589 H 0.6808 0.16888 0.74674 0.0
H590 H 0.39407 0.30362 0.07831 0.0
H591 H 0.34254 0.25797 0.05902 0.0
H592 H 0.32395 0.31749 0.95537 0.0
H593 H 0.37535 0.36346 0.97476 0.0
H594 H 0.25359 0.30916 0.99343 0.0
H595 H 0.35846 0.23026 0.95086 0.0
H596 H 0.42449 0.1965 0.95019 0.0
H597 H 0.38723 0.13309 0.04613 0.0
H598 H 0.32124 0.1669 0.04786 0.0
H599 H 0.09391 0.16964 0.97187 0.0
H600 H 0.15331 0.20915 0.95898 0.0
H601 H 0.20396 0.18255 0.06748 0.0
H602 H 0.14491 0.14297 0.08078 0.0
H603 H 0.25921 0.17166 1.00612 0.0
H604 H 0.16294 0.26533 0.05541 0.0
H605 H 0.09671 0.29899 0.05435 0.0
H606 H 0.11908 0.33296 0.94089 0.0
H607 H 0.1854 0.29931 0.94132 0.0
C608 C 0.37952 0.30649 0.05113 0.0
C609 C 0.38827 0.3371 0.02815 0.0
C610 C 0.35045 0.28026 0.03994 0.0
C611 C 0.32963 0.28433 1.00567 0.0
C612 C 0.33989 0.31382 0.9818 0.0
C613 C 0.36926 0.33993 0.99286 0.0
C614 C 0.29322 0.26105 0.99797 0.0
C615 C 0.25494 0.279 0.99511 0.0
C616 C 0.29503 0.22178 1.00023 0.0
C617 C 0.33485 0.20134 0.99959 0.0
C618 C 0.36443 0.20936 0.97205 0.0
C619 C 0.40187 0.19016 0.97144 0.0
C620 C 0.41007 0.1627 0.99813 0.0
C621 C 0.38083 0.15437 0.02546 0.0
C622 C 0.34336 0.17352 0.02623 0.0
C623 C 0.11736 0.17265 0.99327 0.0
C624 C 0.11483 0.15301 0.02732 0.0
C625 C 0.1513 0.19508 0.98572 0.0
C626 C 0.18307 0.19816 0.01208 0.0
C627 C 0.17982 0.17999 0.04666 0.0
C628 C 0.14584 0.15776 0.05436 0.0
C629 C 0.22015 0.22009 1.00388 0.0
C630 C 0.25826 0.20175 1.00345 0.0
C631 C 0.2183 0.25894 0.99827 0.0
C632 C 0.17881 0.27954 0.99825 0.0
C633 C 0.15359 0.27983 0.03019 0.0
C634 C 0.1161 0.29894 0.02973 0.0
C635 C 0.10364 0.31802 0.99753 0.0
C636 C 0.12874 0.31815 0.96579 0.0
C637 C 0.1663 0.29912 0.96614 0.0
H638 H 0.07458 0.33277 0.99721 0.0
H639 H 0.43907 0.14785 0.9976 0.0
H640 H 0.45359 0.69746 0.03535 0.0
H641 H 0.42057 0.75726 0.02014 0.0
H642 H 0.30381 0.70157 0.00866 0.0
H643 H 0.33642 0.642 0.02478 0.0
H644 H 0.33028 0.75938 0.94847 0.0
H645 H 0.31334 0.73656 0.08492 0.0
H646 H 0.34304 0.72492 0.14749 0.0
H647 H 0.41634 0.82385 0.1381 0.0
H648 H 0.38739 0.83573 0.07519 0.0
H649 H 0.14866 0.85216 0.97268 0.0
H650 H 0.21119 0.81632 0.96701 0.0
H651 H 0.27705 0.90016 0.03021 0.0
H652 H 0.21213 0.93418 0.03959 0.0
H653 H 0.29741 0.84109 0.05662 0.0
H654 H 0.29548 0.87492 0.92882 0.0
H655 H 0.26532 0.88737 0.86664 0.0
H656 H 0.23236 0.77211 0.85557 0.0
H657 H 0.2616 0.75903 0.91787 0.0
C658 C 0.42093 0.69812 0.02927 0.0
C659 C 0.3973 0.66546 0.03133 0.0
C660 C 0.40228 0.73208 0.02052 0.0
C661 C 0.36 0.7335 0.01305 0.0
C662 C 0.33661 0.70073 0.01403 0.0
C663 C 0.35506 0.66695 0.02353 0.0
C664 C 0.33899 0.76938 1.00729 0.0
C665 C 0.32309 0.77766 0.97181 0.0
C666 C 0.33162 0.7938 0.0375 0.0
C667 C 0.34868 0.78674 0.07529 0.0
C668 C 0.33607 0.75561 0.09609 0.0
C669 C 0.3527 0.74901 0.13162 0.0
C670 C 0.38167 0.77356 0.14671 0.0
C671 C 0.39397 0.80481 0.12634 0.0
C672 C 0.37748 0.81149 0.09077 0.0
C673 C 0.17671 0.86338 0.98463 0.0
C674 C 0.1759 0.89584 1.00644 0.0
C675 C 0.21284 0.8431 0.98089 0.0
C676 C 0.24963 0.85584 0.99712 0.0
C677 C 0.24924 0.88969 0.01723 0.0
C678 C 0.21236 0.90921 0.02249 0.0
C679 C 0.28617 0.83083 0.99773 0.0
C680 C 0.30543 0.82431 0.03241 0.0
C681 C 0.2972 0.80852 0.96637 0.0
C682 C 0.28093 0.81599 0.92811 0.0
C683 C 0.28183 0.85221 0.91314 0.0
C684 C 0.26482 0.85939 0.87786 0.0
C685 C 0.24702 0.8305 0.85716 0.0
C686 C 0.24631 0.7944 0.8716 0.0
C687 C 0.26322 0.78708 0.90685 0.0
H688 H 0.23371 0.836 0.82994 0.0
H689 H 0.3945 0.76842 0.17423 0.0
H690 H 0.65694 0.34303 0.03292 0.0
H691 H 0.68235 0.2816 0.01499 0.0
H692 H 0.56862 0.23193 0.05102 0.0
H693 H 0.54163 0.29359 0.06704 0.0
H694 H 0.65203 0.20708 0.0844 0.0
H695 H 0.57797 0.22444 0.96808 0.0
H696 H 0.55862 0.26089 0.91222 0.0
H697 H 0.68484 0.2636 0.87729 0.0
H698 H 0.70506 0.22772 0.93321 0.0
H699 H 0.78075 0.05453 0.0541 0.0
H700 H 0.71376 0.08611 0.05206 0.0
H701 H 0.76103 0.16137 0.96804 0.0
H702 H 0.82538 0.12752 0.96729 0.0
H703 H 0.68827 0.16113 0.95762 0.0
H704 H 0.76842 0.16825 0.07252 0.0
H705 H 0.79963 0.14793 0.13218 0.0
H706 H 0.68042 0.1185 0.17409 0.0
H707 H 0.64884 0.13649 0.11393 0.0
C708 C 0.6368 0.31929 0.03623 0.0
C709 C 0.59728 0.32335 0.05168 0.0
C710 C 0.65144 0.28422 0.02598 0.0
C711 C 0.62709 0.25256 0.03141 0.0
C712 C 0.5876 0.25627 0.04647 0.0
C713 C 0.57257 0.29146 0.0561 0.0
C714 C 0.64519 0.21548 0.02522 0.0
C715 C 0.65922 0.19622 0.05675 0.0
C716 C 0.65535 0.2026 0.98906 0.0
C717 C 0.64301 0.22342 0.95493 0.0
C718 C 0.60162 0.23296 0.94859 0.0
C719 C 0.5905 0.25352 0.91689 0.0
C720 C 0.62048 0.26456 0.89123 0.0
C721 C 0.66164 0.25499 0.89715 0.0
C722 C 0.67292 0.23448 0.92881 0.0
C723 C 0.77591 0.07696 0.03428 0.0
C724 C 0.80807 0.08909 0.01118 0.0
C725 C 0.73787 0.09521 0.03332 0.0
C726 C 0.73266 0.1272 0.01102 0.0
C727 C 0.76388 0.13698 0.98569 0.0
C728 C 0.80096 0.1177 0.98536 0.0
C729 C 0.69807 0.1537 0.01703 0.0
C730 C 0.68037 0.17096 0.98546 0.0
C731 C 0.68679 0.16641 0.05334 0.0
C732 C 0.70638 0.1529 0.08838 0.0
C733 C 0.749 0.15659 0.09413 0.0
C734 C 0.76678 0.1454 0.12802 0.0
C735 C 0.74208 0.13153 0.15677 0.0
C736 C 0.69962 0.12859 0.15158 0.0
C737 C 0.68182 0.13895 0.11749 0.0
H738 H 0.75578 0.12332 0.18317 0.0
H739 H 0.61181 0.28052 0.86675 0.0
H740 H 0.60347 0.65246 0.9878 0.0
H741 H 0.6498 0.70247 0.96877 0.0
H742 H 0.6545 0.7422 0.08281 0.0
H743 H 0.60901 0.6917 0.10228 0.0
H744 H 0.66212 0.7999 0.02236 0.0
H745 H 0.71703 0.6784 0.06499 0.0
H746 H 0.7195 0.60989 0.05996 0.0
H747 H 0.75543 0.61852 0.94457 0.0
H748 H 0.7523 0.68716 0.94879 0.0
H749 H 0.85118 0.85792 0.08691 0.0
H750 H 0.78997 0.82048 0.07586 0.0
H751 H 0.8284 0.80008 0.96207 0.0
H752 H 0.88992 0.8381 0.97259 0.0
H753 H 0.79621 0.73587 1.00368 0.0
H754 H 0.76058 0.85627 0.96539 0.0
H755 H 0.75674 0.9248 0.96699 0.0
H756 H 0.68372 0.91983 0.067 0.0
H757 H 0.68808 0.85129 0.0665 0.0
C758 C 0.61372 0.67235 0.00866 0.0
C759 C 0.60383 0.66761 0.04671 0.0
C760 C 0.63967 0.7011 0.99764 0.0
C761 C 0.65581 0.7255 0.02453 0.0
C762 C 0.64214 0.72354 0.06173 0.0
C763 C 0.61634 0.69461 0.07284 0.0
C764 C 0.69296 0.74718 0.01611 0.0
C765 C 0.69145 0.78611 0.0181 0.0
C766 C 0.73083 0.72892 0.00925 0.0
C767 C 0.734 0.68779 1.00708 0.0
C768 C 0.72522 0.66565 0.0385 0.0
C769 C 0.72672 0.62682 0.0358 0.0
C770 C 0.73752 0.60986 1.00194 0.0
C771 C 0.74698 0.6317 0.97076 0.0
C772 C 0.74533 0.67056 0.97328 0.0
C773 C 0.84714 0.84501 0.0597 0.0
C774 C 0.8752 0.85123 0.03052 0.0
C775 C 0.81199 0.82389 0.05338 0.0
C776 C 0.80456 0.80833 0.01798 0.0
C777 C 0.83367 0.81231 0.98943 0.0
C778 C 0.86871 0.83391 0.99557 0.0
C779 C 0.76566 0.78861 0.0113 0.0
C780 C 0.76683 0.74993 1.00669 0.0
C781 C 0.72751 0.80723 0.01513 0.0
C782 C 0.72493 0.84856 0.01602 0.0
C783 C 0.74414 0.8698 0.98797 0.0
C784 C 0.74184 0.90867 0.98866 0.0
C785 C 0.72007 0.92669 0.01711 0.0
C786 C 0.70066 0.90587 0.045 0.0
C787 C 0.70303 0.86697 0.04451 0.0
H788 H 0.71811 0.95678 0.01738 0.0
H789 H 0.73865 0.57979 0.99989 0.0
loop_
_geom_bond_atom_site_label_1
_geom_bond_atom_site_label_2
_geom_bond_distance
_geom_bond_site_symmetry_2
_ccdc_geom_bond_type
C0 C1 1.384 1_455 S
C0 C2 1.384 . S
C0 H28 0.931 . S
C1 C0 1.384 1_655 S
C1 C4 1.382 . S
C2 C0 1.384 . S
C2 C3 1.381 1_455 S
C2 H29 0.930 . S
C3 C2 1.381 1_655 S
C3 C5 1.381 . S
C3 C6 1.487 . S
C4 C1 1.382 . S
C4 C5 1.387 . S
C4 H30 0.930 . S
C5 C3 1.381 . S
C5 C4 1.387 . S
C5 H31 0.931 . S
C6 C3 1.487 . S
C6 C13 1.399 1_655 S
C6 N44 1.343 . S
C7 C8 1.384 1_655 S
C7 C9 1.384 . S
C7 H32 0.931 . S
C8 C7 1.384 1_455 S
C8 C11 1.382 . S
C9 C7 1.384 . S
C9 C10 1.381 1_655 S
C9 H33 0.930 . S
C10 C9 1.381 1_455 S
C10 C12 1.381 . S
C10 C13 1.487 . S
C11 C8 1.382 . S
C11 C12 1.387 . S
C11 H34 0.930 . S
C12 C10 1.381 . S
C12 C11 1.387 . S
C12 H35 0.931 . S
C13 C6 1.399 1_455 S
C13 C10 1.487 . S
C13 N45 1.343 . S
C14 C15 1.384 1_655 S
C14 C16 1.384 . S
C14 H36 0.931 . S
C15 C14 1.384 1_455 S
C15 C18 1.382 . S
C16 C14 1.384 . S
C16 C17 1.381 1_655 S
C16 H37 0.930 . S
C17 C16 1.381 1_455 S
C17 C19 1.381 . S
C17 C20 1.487 . S
C18 C15 1.382 . S
C18 C19 1.387 . S
C18 H38 0.930 . S
C19 C17 1.381 . S
C19 C18 1.387 . S
C19 H39 0.931 . S
C20 C17 1.487 . S
C20 C27 1.399 1_455 S
C20 N45 1.343 . S
C21 C22 1.384 1_455 S
C21 C23 1.384 . S
C21 H40 0.931 . S
C22 C21 1.384 1_655 S
C22 C25 1.382 . S
C23 C21 1.384 . S
C23 C24 1.381 1_455 S
C23 H41 0.930 . S
C24 C23 1.381 1_655 S
C24 C26 1.381 . S
C24 C27 1.487 . S
C25 C22 1.382 . S
C25 C26 1.387 . S
C25 H42 0.930 . S
C26 C24 1.381 . S
C26 C25 1.387 . S
C26 H43 0.931 . S
C27 C20 1.399 1_655 S
C27 C24 1.487 . S
C27 N44 1.343 . S
H28 C0 0.931 . S
H29 C2 0.930 . S
H30 C4 0.930 . S
H31 C5 0.931 . S
H32 C7 0.931 . S
H33 C9 0.930 . S
H34 C11 0.930 . S
H35 C12 0.931 . S
H36 C14 0.931 . S
H37 C16 0.930 . S
H38 C18 0.930 . S
H39 C19 0.931 . S
H40 C21 0.931 . S
H41 C23 0.930 . S
H42 C25 0.930 . S
H43 C26 0.931 . S
N44 C6 1.343 . S
N44 C27 1.343 . S
N45 C13 1.343 . S
N45 C20 1.343 . S
C46 C47 1.366 1_545 S
C46 C48 1.384 . S
C46 H74 0.931 . S
C47 C46 1.366 1_565 S
C47 C50 1.401 . S
C48 C46 1.384 . S
C48 C49 1.381 1_545 S
C48 H75 0.930 . S
C49 C48 1.381 1_565 S
C49 C51 1.381 . S
C49 C52 1.487 . S
C50 C47 1.401 . S
C50 C51 1.387 . S
C50 H76 0.930 . S
C51 C49 1.381 . S
C51 C50 1.387 . S
C51 H77 0.931 . S
C52 C49 1.487 . S
C52 C59 1.399 1_565 S
C52 N90 1.343 . S
C53 C54 1.384 1_565 S
C53 C55 1.384 . S
C53 H78 0.931 . S
C54 C53 1.384 1_545 S
C54 C57 1.382 . S
C55 C53 1.384 . S
C55 C56 1.381 1_565 S
C55 H79 0.930 . S
C56 C55 1.381 1_545 S
C56 C58 1.381 . S
C56 C59 1.487 . S
C57 C54 1.382 . S
C57 C58 1.387 . S
C57 H80 0.930 . S
C58 C56 1.381 . S
C58 C57 1.387 . S
C58 H81 0.931 . S
C59 C52 1.399 1_545 S
C59 C56 1.487 . S
C59 N91 1.343 . S
C60 C61 1.384 1_565 S
C60 C62 1.384 . S
C60 H82 0.931 . S
C61 C60 1.384 1_545 S
C61 C64 1.382 . S
C62 C60 1.384 . S
C62 C63 1.381 1_565 S
C62 H83 0.930 . S
C63 C62 1.381 1_545 S
C63 C65 1.381 . S
C63 C66 1.487 . S
C64 C61 1.382 . S
C64 C65 1.387 . S
C64 H84 0.930 . S
C65 C63 1.381 . S
C65 C64 1.387 . S
C65 H85 0.931 . S
C66 C63 1.487 . S
C66 C73 1.399 1_545 S
C66 N91 1.343 . S
C67 C68 1.366 1_545 S
C67 C69 1.384 . S
C67 H86 0.931 . S
C68 C67 1.366 1_565 S
C68 C71 1.401 . S
C69 C67 1.384 . S
C69 C70 1.381 1_545 S
C69 H87 0.930 . S
C70 C69 1.381 1_565 S
C70 C72 1.381 . S
C70 C73 1.487 . S
C71 C68 1.401 . S
C71 C72 1.387 . S
C71 H88 0.930 . S
C72 C70 1.381 . S
C72 C71 1.387 . S
C72 H89 0.931 . S
C73 C66 1.399 1_565 S
C73 C70 1.487 . S
C73 N90 1.343 . S
H74 C46 0.931 . S
H75 C48 0.930 . S
H76 C50 0.930 . S
H77 C51 0.931 . S
H78 C53 0.931 . S
H79 C55 0.930 . S
H80 C57 0.930 . S
H81 C58 0.931 . S
H82 C60 0.931 . S
H83 C62 0.930 . S
H84 C64 0.930 . S
H85 C65 0.931 . S
H86 C67 0.931 . S
H87 C69 0.930 . S
H88 C71 0.930 . S
H89 C72 0.931 . S
N90 C52 1.343 . S
N90 C73 1.343 . S
N91 C59 1.343 . S
N91 C66 1.343 . S
C92 C93 1.380 1_556 S
C92 C94 1.384 1_556 S
C92 H120 0.935 . S
C93 C92 1.380 1_554 S
C93 C96 1.382 . S
C94 C92 1.384 1_554 S
C94 C95 1.392 . S
C94 H121 0.920 1_554 S
C95 C94 1.392 . S
C95 C97 1.381 . S
C95 C98 1.487 . S
C96 C93 1.382 . S
C96 C97 1.387 . S
C96 H122 0.930 . S
C97 C95 1.381 . S
C97 C96 1.387 . S
C97 H123 0.931 . S
C98 C95 1.487 . S
C98 C105 1.399 . S
C98 N136 1.343 . S
C99 C100 1.384 . S
C99 C101 1.384 . S
C99 H124 0.931 . S
C100 C99 1.384 . S
C100 C103 1.382 1_554 S
C101 C99 1.384 . S
C101 C102 1.381 . S
C101 H125 0.930 . S
C102 C101 1.381 . S
C102 C104 1.381 1_554 S
C102 C105 1.487 . S
C103 C100 1.382 1_556 S
C103 C104 1.387 . S
C103 H126 0.930 . S
C104 C102 1.381 1_556 S
C104 C103 1.387 . S
C104 H127 0.931 . S
C105 C98 1.399 . S
C105 C102 1.487 . S
C105 N137 1.343 . S
C106 C107 1.384 . S
C106 C108 1.384 . S
C106 H128 0.931 . S
C107 C106 1.384 . S
C107 C110 1.382 1_554 S
C108 C106 1.384 . S
C108 C109 1.381 . S
C108 H129 0.930 . S
C109 C108 1.381 . S
C109 C111 1.381 1_554 S
C109 C112 1.487 . S
C110 C107 1.382 1_556 S
C110 C111 1.387 . S
C110 H130 0.930 . S
C111 C109 1.381 1_556 S
C111 C110 1.387 . S
C111 H131 0.931 . S
C112 C109 1.487 . S
C112 C119 1.399 . S
C112 N137 1.343 . S
C113 C114 1.380 1_556 S
C113 C115 1.384 1_556 S
C113 H132 0.935 . S
C114 C113 1.380 1_554 S
C114 C117 1.382 . S
C115 C113 1.384 1_554 S
C115 C116 1.392 . S
C115 H133 0.920 1_554 S
C116 C115 1.392 . S
C116 C118 1.381 . S
C116 C119 1.487 . S
C117 C114 1.382 . S
C117 C118 1.387 . S
C117 H134 0.930 . S
C118 C116 1.381 . S
C118 C117 1.387 . S
C118 H135 0.931 . S
C119 C112 1.399 . S
C119 C116 1.487 . S
C119 N136 1.343 . S
H120 C92 0.935 . S
H121 C94 0.920 1_556 S
H122 C96 0.930 . S
H123 C97 0.931 . S
H124 C99 0.931 . S
H125 C101 0.930 . S
H126 C103 0.930 . S
H127 C104 0.931 . S
H128 C106 0.931 . S
H129 C108 0.930 . S
H130 C110 0.930 . S
H131 C111 0.931 . S
H132 C113 0.935 . S
H133 C115 0.920 1_556 S
H134 C117 0.930 . S
H135 C118 0.931 . S
N136 C98 1.343 . S
N136 C119 1.343 . S
N137 C105 1.343 . S
N137 C112 1.343 . S
Zn138 O140 1.933 1_556 S
Zn138 O158 1.985 . S
Zn138 O169 1.955 . S
Zn139 O140 1.911 . S
Zn139 O159 1.970 . S
Zn139 O175 1.945 . S
Zn139 O182 1.981 . S
O140 Zn138 1.933 1_554 S
O140 Zn139 1.911 . S
O140 H141 0.841 . S
H141 O140 0.841 . S
C142 O143 1.246 . S
C142 O171 1.276 1_455 S
O143 C142 1.246 . S
Zn144 O146 1.911 . S
Zn144 O161 1.970 . S
Zn144 O178 1.945 . S
Zn144 O185 1.981 . S
Zn145 O146 1.933 1_556 S
Zn145 O160 1.985 . S
Zn145 O167 1.955 . S
O146 Zn144 1.911 . S
O146 Zn145 1.933 1_554 S
O146 H147 0.841 . S
H147 O146 0.841 . S
Zn148 O149 1.933 1_556 S
Zn148 O162 1.985 . S
Zn148 O171 1.955 . S
O149 Zn148 1.933 1_554 S
O149 Zn150 1.911 . S
O149 H151 0.841 . S
Zn150 O149 1.911 . S
Zn150 O163 1.970 . S
Zn150 O179 1.981 . S
Zn150 O181 1.945 . S
H151 O149 0.841 . S
Zn152 O153 1.933 1_556 S
Zn152 O165 1.985 . S
Zn152 O173 1.955 . S
O153 Zn152 1.933 1_554 S
O153 H154 0.841 . S
O153 Zn155 1.911 . S
H154 O153 0.841 . S
Zn155 O153 1.911 . S
Zn155 O166 1.970 . S
Zn155 O176 1.981 . S
Zn155 O184 1.945 . S
C156 O157 1.246 . S
C156 O173 1.276 1_655 S
O157 C156 1.246 . S
O158 Zn138 1.985 . S
O158 C168 1.245 1_556 S
O159 Zn139 1.970 . S
O159 C168 1.263 . S
O160 Zn145 1.985 . S
O160 C172 1.245 1_556 S
O161 Zn144 1.970 . S
O161 C172 1.263 . S
O162 Zn148 1.985 . S
O162 C177 1.245 1_556 S
O163 Zn150 1.970 . S
O163 C177 1.263 . S
C164 O175 1.262 . S
C164 O176 1.245 1_545 S
O165 Zn152 1.985 . S
O165 C183 1.245 1_556 S
O166 Zn155 1.970 . S
O166 C183 1.263 . S
O167 Zn145 1.955 . S
O167 C186 1.276 1_565 S
C168 O158 1.245 1_554 S
C168 O159 1.263 . S
O169 Zn138 1.955 . S
O169 C188 1.276 1_545 S
C170 O178 1.262 1_545 S
C170 O179 1.245 . S
O171 C142 1.276 1_655 S
O171 Zn148 1.955 . S
C172 O160 1.245 1_554 S
C172 O161 1.263 . S
O173 Zn152 1.955 . S
O173 C156 1.276 1_455 S
C174 O181 1.262 1_455 S
C174 O182 1.245 . S
O175 Zn139 1.945 . S
O175 C164 1.262 . S
O176 Zn155 1.981 . S
O176 C164 1.245 1_565 S
C177 O162 1.245 1_554 S
C177 O163 1.263 . S
O178 Zn144 1.945 . S
O178 C170 1.262 1_565 S
O179 Zn150 1.981 . S
O179 C170 1.245 . S
C180 O184 1.262 . S
C180 O185 1.245 1_455 S
O181 Zn150 1.945 . S
O181 C174 1.262 1_655 S
O182 Zn139 1.981 . S
O182 C174 1.245 . S
C183 O165 1.245 1_554 S
C183 O166 1.263 . S
O184 Zn155 1.945 . S
O184 C180 1.262 . S
O185 Zn144 1.981 . S
O185 C180 1.245 1_655 S
C186 O167 1.276 1_545 S
C186 O187 1.246 . S
O187 C186 1.246 . S
C188 O169 1.276 1_565 S
C188 O189 1.246 . S
O189 C188 1.246 . S
H190 C208 0.951 . S
H191 C210 0.951 . S
H192 C212 0.950 . S
H193 C213 0.950 . S
H194 C215 0.950 . S
H195 C218 0.950 . S
H196 C219 0.950 . S
H197 C221 0.950 . S
H198 C222 0.950 . S
H199 C223 0.951 . S
H200 C225 0.951 . S
H201 C227 0.950 . S
H202 C228 0.950 . S
H203 C230 0.950 . S
H204 C233 0.950 . S
H205 C234 0.950 . S
H206 C236 0.950 . S
H207 C237 0.950 . S
C208 H190 0.951 . S
C208 C209 1.377 . S
C208 C210 1.388 . S
C209 C208 1.377 . S
C209 C213 1.375 1_455 S
C210 H191 0.951 . S
C210 C208 1.388 . S
C210 C211 1.366 . S
C211 C210 1.366 . S
C211 C212 1.414 1_455 S
C211 C214 1.499 . S
C212 H192 0.950 . S
C212 C211 1.414 1_655 S
C212 C213 1.374 . S
C213 H193 0.950 . S
C213 C209 1.375 1_655 S
C213 C212 1.374 . S
C214 C211 1.499 . S
C214 C215 1.373 1_455 S
C214 C216 1.389 . S
C215 H194 0.950 . S
C215 C214 1.373 1_655 S
C215 C231 1.377 . S
C216 C214 1.389 . S
C216 C217 1.524 . S
C216 C230 1.377 . S
C217 C216 1.524 . S
C217 C218 1.397 . S
C217 C222 1.363 . S
C218 H195 0.950 . S
C218 C217 1.397 . S
C218 C219 1.334 . S
C219 H196 0.950 . S
C219 C218 1.334 . S
C219 C220 1.287 . S
C220 C219 1.287 . S
C220 C221 1.524 . S
C220 H239 0.913 . S
C221 H197 0.950 . S
C221 C220 1.524 . S
C221 C222 1.415 . S
C222 H198 0.950 . S
C222 C217 1.363 . S
C222 C221 1.415 . S
C223 H199 0.951 . S
C223 C224 1.366 1_655 S
C223 C225 1.388 . S
C224 C223 1.366 1_455 S
C224 C228 1.385 . S
C225 H200 0.951 . S
C225 C223 1.388 . S
C225 C226 1.366 1_655 S
C226 C225 1.366 1_455 S
C226 C227 1.414 . S
C226 C229 1.499 . S
C227 H201 0.950 . S
C227 C226 1.414 . S
C227 C228 1.374 . S
C228 H202 0.950 . S
C228 C224 1.385 . S
C228 C227 1.374 . S
C229 C226 1.499 . S
C229 C230 1.373 . S
C229 C231 1.389 1_455 S
C230 H203 0.950 . S
C230 C216 1.377 . S
C230 C229 1.373 . S
C231 C215 1.377 . S
C231 C229 1.389 1_655 S
C231 C232 1.524 . S
C232 C231 1.524 . S
C232 C233 1.397 . S
C232 C237 1.363 . S
C233 H204 0.950 . S
C233 C232 1.397 . S
C233 C234 1.334 . S
C234 H205 0.950 . S
C234 C233 1.334 . S
C234 C235 1.287 . S
C235 C234 1.287 . S
C235 C236 1.524 . S
C235 H238 0.999 . S
C236 H206 0.950 . S
C236 C235 1.524 . S
C236 C237 1.415 . S
C237 H207 0.950 . S
C237 C232 1.363 . S
C237 C236 1.415 . S
H238 C235 0.999 . S
H239 C220 0.913 . S
H240 C258 0.951 . S
H241 C260 0.951 . S
H242 C262 0.950 . S
H243 C263 0.950 . S
H244 C265 0.951 . S
H245 C268 0.950 . S
H246 C269 0.950 . S
H247 C271 0.950 1_565 S
H248 C272 0.950 . S
H249 C273 0.951 . S
H250 C275 0.951 . S
H251 C277 0.950 . S
H252 C278 0.950 . S
H253 C280 0.950 . S
H254 C283 0.950 . S
H255 C284 0.950 . S
H256 C286 0.950 . S
H257 C287 0.950 . S
C258 H240 0.951 . S
C258 C259 1.357 1_565 S
C258 C260 1.388 . S
C259 C258 1.357 1_545 S
C259 C263 1.394 . S
C260 H241 0.951 . S
C260 C258 1.388 . S
C260 C261 1.366 1_565 S
C261 C260 1.366 1_545 S
C261 C262 1.414 . S
C261 C264 1.499 . S
C262 H242 0.950 . S
C262 C261 1.414 . S
C262 C263 1.374 . S
C263 H243 0.950 . S
C263 C259 1.394 . S
C263 C262 1.374 . S
C264 C261 1.499 . S
C264 C265 1.373 . S
C264 C266 1.389 . S
C265 H244 0.951 . S
C265 C264 1.373 . S
C265 C281 1.377 . S
C266 C264 1.389 . S
C266 C267 1.524 . S
C266 C280 1.377 . S
C267 C266 1.524 . S
C267 C268 1.397 . S
C267 C272 1.363 1_545 S
C268 H245 0.950 . S
C268 C267 1.397 . S
C268 C269 1.334 . S
C269 H246 0.950 . S
C269 C268 1.334 . S
C269 C270 1.287 . S
C270 C269 1.287 . S
C270 C271 1.524 . S
C270 H289 0.913 . S
C271 H247 0.950 1_545 S
C271 C270 1.524 . S
C271 C272 1.415 1_545 S
C272 H248 0.950 . S
C272 C267 1.363 1_565 S
C272 C271 1.415 1_565 S
C273 H249 0.951 . S
C273 C274 1.366 . S
C273 C275 1.388 . S
C274 C273 1.366 . S
C274 C278 1.385 1_545 S
C275 H250 0.951 . S
C275 C273 1.388 . S
C275 C276 1.366 . S
C276 C275 1.366 . S
C276 C277 1.414 1_545 S
C276 C279 1.499 . S
C277 H251 0.950 . S
C277 C276 1.414 1_565 S
C277 C278 1.374 . S
C278 H252 0.950 . S
C278 C274 1.385 1_565 S
C278 C277 1.374 . S
C279 C276 1.499 . S
C279 C280 1.373 . S
C279 C281 1.390 . S
C280 H253 0.950 . S
C280 C266 1.377 . S
C280 C279 1.373 . S
C281 C265 1.377 . S
C281 C279 1.390 . S
C281 C282 1.524 1_545 S
C282 C281 1.524 1_565 S
C282 C283 1.397 . S
C282 C287 1.363 1_565 S
C283 H254 0.950 . S
C283 C282 1.397 . S
C283 C284 1.334 . S
C284 H255 0.950 . S
C284 C283 1.334 . S
C284 C285 1.287 . S
C285 C284 1.287 . S
C285 C286 1.524 1_565 S
C285 H288 0.999 . S
C286 H256 0.950 . S
C286 C285 1.524 1_545 S
C286 C287 1.415 . S
C287 H257 0.950 . S
C287 C282 1.363 1_545 S
C287 C286 1.415 . S
H288 C285 0.999 . S
H289 C270 0.913 . S
H290 C308 0.951 . S
H291 C310 0.951 . S
H292 C312 0.950 . S
H293 C313 0.950 . S
H294 C315 0.950 . S
H295 C318 0.950 . S
H296 C319 0.950 . S
H297 C321 0.950 . S
H298 C322 0.950 . S
H299 C323 0.951 . S
H300 C325 0.951 . S
H301 C327 0.950 . S
H302 C328 0.950 . S
H303 C330 0.950 . S
H304 C333 0.950 . S
H305 C334 0.950 . S
H306 C336 0.950 . S
H307 C337 0.950 . S
C308 H290 0.951 . S
C308 C309 1.353 1_455 S
C308 C310 1.388 . S
C309 C308 1.353 1_655 S
C309 C313 1.398 . S
C310 H291 0.951 . S
C310 C308 1.388 . S
C310 C311 1.366 1_455 S
C311 C310 1.366 1_655 S
C311 C312 1.414 . S
C311 C314 1.499 . S
C312 H292 0.950 . S
C312 C311 1.414 . S
C312 C313 1.374 . S
C313 H293 0.950 . S
C313 C309 1.398 . S
C313 C312 1.374 . S
C314 C311 1.499 . S
C314 C315 1.373 . S
C314 C316 1.389 1_655 S
C315 H294 0.950 . S
C315 C314 1.373 . S
C315 C331 1.377 . S
C316 C314 1.389 1_455 S
C316 C317 1.524 . S
C316 C330 1.377 . S
C317 C316 1.524 . S
C317 C318 1.397 . S
C317 C322 1.363 . S
C318 H295 0.950 . S
C318 C317 1.397 . S
C318 C319 1.334 . S
C319 H296 0.950 . S
C319 C318 1.334 . S
C319 C320 1.287 . S
C320 C319 1.287 . S
C320 C321 1.524 . S
C320 H339 0.913 . S
C321 H297 0.950 . S
C321 C320 1.524 . S
C321 C322 1.415 . S
C322 H298 0.950 . S
C322 C317 1.363 . S
C322 C321 1.415 . S
C323 H299 0.951 . S
C323 C324 1.366 . S
C323 C325 1.388 . S
C324 C323 1.366 . S
C324 C328 1.385 1_655 S
C325 H300 0.951 . S
C325 C323 1.388 . S
C325 C326 1.366 . S
C326 C325 1.366 . S
C326 C327 1.414 1_655 S
C326 C329 1.499 . S
C327 H301 0.950 . S
C327 C326 1.414 1_455 S
C327 C328 1.374 . S
C328 H302 0.950 . S
C328 C324 1.385 1_455 S
C328 C327 1.374 . S
C329 C326 1.499 . S
C329 C330 1.373 1_655 S
C329 C331 1.389 . S
C330 H303 0.950 . S
C330 C316 1.377 . S
C330 C329 1.373 1_455 S
C331 C315 1.377 . S
C331 C329 1.389 . S
C331 C332 1.524 . S
C332 C331 1.524 . S
C332 C333 1.397 . S
C332 C337 1.363 . S
C333 H304 0.950 . S
C333 C332 1.397 . S
C333 C334 1.334 . S
C334 H305 0.950 . S
C334 C333 1.334 . S
C334 C335 1.287 . S
C335 C334 1.287 . S
C335 C336 1.524 . S
C335 H338 0.999 . S
C336 H306 0.950 . S
C336 C335 1.524 . S
C336 C337 1.415 . S
C337 H307 0.950 . S
C337 C332 1.363 . S
C337 C336 1.415 . S
H338 C335 0.999 . S
H339 C320 0.913 . S
H340 C358 0.951 . S
H341 C360 0.951 . S
H342 C362 0.950 . S
H343 C363 0.950 . S
H344 C365 0.950 . S
H345 C368 0.950 . S
H346 C369 0.950 . S
H347 C371 0.950 . S
H348 C372 0.950 . S
H349 C373 0.951 . S
H350 C375 0.951 . S
H351 C377 0.950 . S
H352 C378 0.950 . S
H353 C380 0.950 . S
H354 C383 0.950 . S
H355 C384 0.950 . S
H356 C386 0.950 . S
H357 C387 0.950 . S
C358 H340 0.951 . S
C358 C359 1.369 . S
C358 C360 1.388 . S
C359 C358 1.369 . S
C359 C363 1.381 1_565 S
C360 H341 0.951 . S
C360 C358 1.388 . S
C360 C361 1.366 . S
C361 C360 1.366 . S
C361 C362 1.414 1_565 S
C361 C364 1.499 . S
C362 H342 0.950 . S
C362 C361 1.414 1_545 S
C362 C363 1.374 . S
C363 H343 0.950 . S
C363 C359 1.381 1_545 S
C363 C362 1.374 . S
C364 C361 1.499 . S
C364 C365 1.373 1_565 S
C364 C366 1.389 . S
C365 H344 0.950 . S
C365 C364 1.373 1_545 S
C365 C381 1.377 . S
C366 C364 1.389 . S
C366 C367 1.524 . S
C366 C380 1.377 . S
C367 C366 1.524 . S
C367 C368 1.397 . S
C367 C372 1.363 . S
C368 H345 0.950 . S
C368 C367 1.397 . S
C368 C369 1.334 . S
C369 H346 0.950 . S
C369 C368 1.334 . S
C369 C370 1.287 . S
C370 C369 1.287 . S
C370 C371 1.524 . S
C370 H389 0.913 . S
C371 H347 0.950 . S
C371 C370 1.524 . S
C371 C372 1.415 . S
C372 H348 0.950 . S
C372 C367 1.363 . S
C372 C371 1.415 . S
C373 H349 0.951 . S
C373 C374 1.366 1_545 S
C373 C375 1.388 . S
C374 C373 1.366 1_565 S
C374 C378 1.385 . S
C375 H350 0.951 . S
C375 C373 1.388 . S
C375 C376 1.366 1_545 S
C376 C375 1.366 1_565 S
C376 C377 1.414 . S
C376 C379 1.499 . S
C377 H351 0.950 . S
C377 C376 1.414 . S
C377 C378 1.374 . S
C378 H352 0.950 . S
C378 C374 1.385 . S
C378 C377 1.374 . S
C379 C376 1.499 . S
C379 C380 1.373 . S
C379 C381 1.389 1_565 S
C380 H353 0.950 . S
C380 C366 1.377 . S
C380 C379 1.373 . S
C381 C365 1.377 . S
C381 C379 1.389 1_545 S
C381 C382 1.524 . S
C382 C381 1.524 . S
C382 C383 1.397 . S
C382 C387 1.363 . S
C383 H354 0.950 . S
C383 C382 1.397 . S
C383 C384 1.334 . S
C384 H355 0.950 . S
C384 C383 1.334 . S
C384 C385 1.287 . S
C385 C384 1.287 . S
C385 C386 1.524 . S
C385 H388 0.999 . S
C386 H356 0.950 . S
C386 C385 1.524 . S
C386 C387 1.415 . S
C387 H357 0.950 . S
C387 C382 1.363 . S
C387 C386 1.415 . S
H388 C385 0.999 . S
H389 C370 0.913 . S
H390 C408 0.951 . S
H391 C410 0.951 . S
H392 C412 0.950 . S
H393 C413 0.950 . S
H394 C415 0.950 . S
H395 C418 0.950 . S
H396 C419 0.950 . S
H397 C421 0.950 . S
H398 C422 0.950 . S
H399 C423 0.951 1_455 S
H400 C425 0.952 . S
H401 C427 0.950 . S
H402 C428 0.950 . S
H403 C430 0.950 . S
H404 C433 0.950 . S
H405 C434 0.950 . S
H406 C436 0.950 . S
H407 C437 0.950 . S
C408 H390 0.951 . S
C408 C409 1.366 . S
C408 C410 1.388 . S
C409 C408 1.366 . S
C409 C413 1.385 1_655 S
C410 H391 0.951 . S
C410 C408 1.388 . S
C410 C411 1.366 . S
C411 C410 1.366 . S
C411 C412 1.414 1_655 S
C411 C414 1.499 . S
C412 H392 0.950 . S
C412 C411 1.414 1_455 S
C412 C413 1.374 . S
C413 H393 0.950 . S
C413 C409 1.385 1_455 S
C413 C412 1.374 . S
C414 C411 1.499 . S
C414 C415 1.373 1_655 S
C414 C416 1.389 . S
C415 H394 0.950 . S
C415 C414 1.373 1_455 S
C415 C431 1.377 . S
C416 C414 1.389 . S
C416 C417 1.524 . S
C416 C430 1.377 . S
C417 C416 1.524 . S
C417 C418 1.397 . S
C417 C422 1.363 . S
C418 H395 0.950 . S
C418 C417 1.397 . S
C418 C419 1.334 . S
C419 H396 0.950 . S
C419 C418 1.334 . S
C419 C420 1.287 . S
C420 C419 1.287 . S
C420 C421 1.524 . S
C420 H439 0.913 . S
C421 H397 0.950 . S
C421 C420 1.524 . S
C421 C422 1.415 . S
C422 H398 0.950 . S
C422 C417 1.363 . S
C422 C421 1.415 . S
C423 H399 0.951 1_655 S
C423 C424 1.366 . S
C423 C425 1.388 1_655 S
C424 C423 1.366 . S
C424 C428 1.385 . S
C425 H400 0.952 . S
C425 C423 1.388 1_455 S
C425 C426 1.365 1_455 S
C426 C425 1.365 1_655 S
C426 C427 1.414 . S
C426 C429 1.499 . S
C427 H401 0.950 . S
C427 C426 1.414 . S
C427 C428 1.374 . S
C428 H402 0.950 . S
C428 C424 1.385 . S
C428 C427 1.374 . S
C429 C426 1.499 . S
C429 C430 1.373 . S
C429 C431 1.389 1_655 S
C430 H403 0.950 . S
C430 C416 1.377 . S
C430 C429 1.373 . S
C431 C415 1.377 . S
C431 C429 1.389 1_455 S
C431 C432 1.524 . S
C432 C431 1.524 . S
C432 C433 1.397 . S
C432 C437 1.363 . S
C433 H404 0.950 . S
C433 C432 1.397 . S
C433 C434 1.334 . S
C434 H405 0.950 . S
C434 C433 1.334 . S
C434 C435 1.287 . S
C435 C434 1.287 . S
C435 C436 1.524 . S
C435 H438 0.999 . S
C436 H406 0.950 . S
C436 C435 1.524 . S
C436 C437 1.415 . S
C437 H407 0.950 . S
C437 C432 1.363 . S
C437 C436 1.415 . S
H438 C435 0.999 . S
H439 C420 0.913 . S
H440 C458 0.951 . S
H441 C460 0.951 . S
H442 C462 0.950 . S
H443 C463 0.950 . S
H444 C465 0.950 . S
H445 C468 0.950 . S
H446 C469 0.950 . S
H447 C471 0.950 . S
H448 C472 0.950 . S
H449 C473 0.951 . S
H450 C475 0.951 . S
H451 C477 0.950 . S
H452 C478 0.950 . S
H453 C480 0.950 . S
H454 C483 0.950 . S
H455 C484 0.950 . S
H456 C486 0.950 . S
H457 C487 0.950 . S
C458 H440 0.951 . S
C458 C459 1.382 . S
C458 C460 1.388 . S
C459 C458 1.382 . S
C459 C463 1.369 1_565 S
C460 H441 0.951 . S
C460 C458 1.388 . S
C460 C461 1.366 . S
C461 C460 1.366 . S
C461 C462 1.414 1_565 S
C461 C464 1.499 . S
C462 H442 0.950 . S
C462 C461 1.414 1_545 S
C462 C463 1.374 . S
C463 H443 0.950 . S
C463 C459 1.369 1_545 S
C463 C462 1.374 . S
C464 C461 1.499 . S
C464 C465 1.373 1_565 S
C464 C466 1.389 . S
C465 H444 0.950 . S
C465 C464 1.373 1_545 S
C465 C481 1.377 . S
C466 C464 1.389 . S
C466 C467 1.524 . S
C466 C480 1.377 . S
C467 C466 1.524 . S
C467 C468 1.397 . S
C467 C472 1.363 . S
C468 H445 0.950 . S
C468 C467 1.397 . S
C468 C469 1.334 . S
C469 H446 0.950 . S
C469 C468 1.334 . S
C469 C470 1.287 . S
C470 C469 1.287 . S
C470 C471 1.524 . S
C470 H489 0.913 . S
C471 H447 0.950 . S
C471 C470 1.524 . S
C471 C472 1.415 . S
C472 H448 0.950 . S
C472 C467 1.363 . S
C472 C471 1.415 . S
C473 H449 0.951 . S
C473 C474 1.366 1_545 S
C473 C475 1.388 . S
C474 C473 1.366 1_565 S
C474 C478 1.385 . S
C475 H450 0.951 . S
C475 C473 1.388 . S
C475 C476 1.366 1_545 S
C476 C475 1.366 1_565 S
C476 C477 1.414 . S
C476 C479 1.499 . S
C477 H451 0.950 . S
C477 C476 1.414 . S
C477 C478 1.374 . S
C478 H452 0.950 . S
C478 C474 1.385 . S
C478 C477 1.374 . S
C479 C476 1.499 . S
C479 C480 1.373 . S
C479 C481 1.389 1_565 S
C480 H453 0.950 . S
C480 C466 1.377 . S
C480 C479 1.373 . S
C481 C465 1.377 . S
C481 C479 1.389 1_545 S
C481 C482 1.524 . S
C482 C481 1.524 . S
C482 C483 1.397 . S
C482 C487 1.363 . S
C483 H454 0.950 . S
C483 C482 1.397 . S
C483 C484 1.334 . S
C484 H455 0.950 . S
C484 C483 1.334 . S
C484 C485 1.287 . S
C485 C484 1.287 . S
C485 C486 1.524 . S
C485 H488 0.999 . S
C486 H456 0.950 . S
C486 C485 1.524 . S
C486 C487 1.415 . S
C487 H457 0.950 . S
C487 C482 1.363 . S
C487 C486 1.415 . S
H488 C485 0.999 . S
H489 C470 0.913 . S
H490 C508 0.951 . S
H491 C510 0.951 . S
H492 C512 0.950 . S
H493 C513 0.950 . S
H494 C515 0.950 . S
H495 C518 0.950 . S
H496 C519 0.950 . S
H497 C521 0.950 . S
H498 C522 0.950 . S
H499 C523 0.951 . S
H500 C525 0.951 . S
H501 C527 0.950 . S
H502 C528 0.950 . S
H503 C530 0.950 . S
H504 C533 0.950 . S
H505 C534 0.950 . S
H506 C536 0.950 . S
H507 C537 0.950 . S
C508 H490 0.951 . S
C508 C509 1.366 1_655 S
C508 C510 1.388 . S
C509 C508 1.366 1_455 S
C509 C513 1.385 . S
C510 H491 0.951 . S
C510 C508 1.388 . S
C510 C511 1.366 1_655 S
C511 C510 1.366 1_455 S
C511 C512 1.414 . S
C511 C514 1.499 . S
C512 H492 0.950 . S
C512 C511 1.414 . S
C512 C513 1.374 . S
C513 H493 0.950 . S
C513 C509 1.385 . S
C513 C512 1.374 . S
C514 C511 1.499 . S
C514 C515 1.373 . S
C514 C516 1.389 1_455 S
C515 H494 0.950 . S
C515 C514 1.373 . S
C515 C531 1.377 . S
C516 C514 1.389 1_655 S
C516 C517 1.524 . S
C516 C530 1.377 . S
C517 C516 1.524 . S
C517 C518 1.397 . S
C517 C522 1.363 . S
C518 H495 0.950 . S
C518 C517 1.397 . S
C518 C519 1.334 . S
C519 H496 0.950 . S
C519 C518 1.334 . S
C519 C520 1.287 . S
C520 C519 1.287 . S
C520 C521 1.524 . S
C520 H539 0.913 . S
C521 H497 0.950 . S
C521 C520 1.524 . S
C521 C522 1.415 . S
C522 H498 0.950 . S
C522 C517 1.363 . S
C522 C521 1.415 . S
C523 H499 0.951 . S
C523 C524 1.366 . S
C523 C525 1.388 . S
C524 C523 1.366 . S
C524 C528 1.385 1_455 S
C525 H500 0.951 . S
C525 C523 1.388 . S
C525 C526 1.366 . S
C526 C525 1.366 . S
C526 C527 1.414 1_455 S
C526 C529 1.499 . S
C527 H501 0.950 . S
C527 C526 1.414 1_655 S
C527 C528 1.374 . S
C528 H502 0.950 . S
C528 C524 1.385 1_655 S
C528 C527 1.374 . S
C529 C526 1.499 . S
C529 C530 1.373 1_455 S
C529 C531 1.389 . S
C530 H503 0.950 . S
C530 C516 1.377 . S
C530 C529 1.373 1_655 S
C531 C515 1.377 . S
C531 C529 1.389 . S
C531 C532 1.524 . S
C532 C531 1.524 . S
C532 C533 1.397 . S
C532 C537 1.363 . S
C533 H504 0.950 . S
C533 C532 1.397 . S
C533 C534 1.334 . S
C534 H505 0.950 . S
C534 C533 1.334 . S
C534 C535 1.287 . S
C535 C534 1.287 . S
C535 C536 1.524 . S
C535 H538 0.999 . S
C536 H506 0.950 . S
C536 C535 1.524 . S
C536 C537 1.415 . S
C537 H507 0.950 . S
C537 C532 1.363 . S
C537 C536 1.415 . S
H538 C535 0.999 . S
H539 C520 0.913 . S
H540 C558 0.951 . S
H541 C560 0.951 . S
H542 C562 0.950 . S
H543 C563 0.950 . S
H544 C565 0.950 . S
H545 C568 0.950 . S
H546 C569 0.950 . S
H547 C571 0.950 . S
H548 C572 0.950 . S
H549 C573 0.951 . S
H550 C575 0.951 . S
H551 C577 0.950 . S
H552 C578 0.950 . S
H553 C580 0.950 . S
H554 C583 0.950 . S
H555 C584 0.950 . S
H556 C586 0.950 . S
H557 C587 0.950 . S
C558 H540 0.951 . S
C558 C559 1.384 . S
C558 C560 1.388 . S
C559 C558 1.384 . S
C559 C563 1.368 1_545 S
C560 H541 0.951 . S
C560 C558 1.388 . S
C560 C561 1.366 . S
C561 C560 1.366 . S
C561 C562 1.414 1_545 S
C561 C564 1.499 . S
C562 H542 0.950 . S
C562 C561 1.414 1_565 S
C562 C563 1.374 . S
C563 H543 0.950 . S
C563 C559 1.368 1_565 S
C563 C562 1.374 . S
C564 C561 1.499 . S
C564 C565 1.373 1_545 S
C564 C566 1.389 . S
C565 H544 0.950 . S
C565 C564 1.373 1_565 S
C565 C581 1.377 . S
C566 C564 1.389 . S
C566 C567 1.524 . S
C566 C580 1.377 . S
C567 C566 1.524 . S
C567 C568 1.397 . S
C567 C572 1.363 . S
C568 H545 0.950 . S
C568 C567 1.397 . S
C568 C569 1.334 . S
C569 H546 0.950 . S
C569 C568 1.334 . S
C569 C570 1.287 . S
C570 C569 1.287 . S
C570 C571 1.524 . S
C570 H589 0.913 . S
C571 H547 0.950 . S
C571 C570 1.524 . S
C571 C572 1.415 . S
C572 H548 0.950 . S
C572 C567 1.363 . S
C572 C571 1.415 . S
C573 H549 0.951 . S
C573 C574 1.366 1_565 S
C573 C575 1.388 . S
C574 C573 1.366 1_545 S
C574 C578 1.385 . S
C575 H550 0.951 . S
C575 C573 1.388 . S
C575 C576 1.366 1_565 S
C576 C575 1.366 1_545 S
C576 C577 1.414 . S
C576 C579 1.499 . S
C577 H551 0.950 . S
C577 C576 1.414 . S
C577 C578 1.374 . S
C578 H552 0.950 . S
C578 C574 1.385 . S
C578 C577 1.374 . S
C579 C576 1.499 . S
C579 C580 1.373 . S
C579 C581 1.389 1_545 S
C580 H553 0.950 . S
C580 C566 1.377 . S
C580 C579 1.373 . S
C581 C565 1.377 . S
C581 C579 1.389 1_565 S
C581 C582 1.524 . S
C582 C581 1.524 . S
C582 C583 1.397 . S
C582 C587 1.363 . S
C583 H554 0.950 . S
C583 C582 1.397 . S
C583 C584 1.334 . S
C584 H555 0.950 . S
C584 C583 1.334 . S
C584 C585 1.287 . S
C585 C584 1.287 . S
C585 C586 1.524 . S
C585 H588 0.999 . S
C586 H556 0.950 . S
C586 C585 1.524 . S
C586 C587 1.415 . S
C587 H557 0.950 . S
C587 C582 1.363 . S
C587 C586 1.415 . S
H588 C585 0.999 . S
H589 C570 0.913 . S
H590 C608 0.951 . S
H591 C610 0.951 . S
H592 C612 0.963 . S
H593 C613 0.946 1_556 S
H594 C615 0.950 . S
H595 C618 0.950 . S
H596 C619 0.950 . S
H597 C621 0.950 . S
H598 C622 0.950 . S
H599 C623 0.967 . S
H600 C625 0.949 1_556 S
H601 C627 0.950 . S
H602 C628 0.950 . S
H603 C630 0.950 . S
H604 C633 0.950 . S
H605 C634 0.950 . S
H606 C636 0.950 . S
H607 C637 0.950 1_556 S
C608 H590 0.951 . S
C608 C609 1.366 . S
C608 C610 1.388 . S
C609 C608 1.366 . S
C609 C613 1.389 . S
C610 H591 0.951 . S
C610 C608 1.388 . S
C610 C611 1.366 . S
C611 C610 1.366 . S
C611 C612 1.403 1_554 S
C611 C614 1.499 . S
C612 H592 0.963 . S
C612 C611 1.403 1_556 S
C612 C613 1.373 1_556 S
C613 H593 0.946 1_554 S
C613 C609 1.389 . S
C613 C612 1.373 1_554 S
C614 C611 1.499 . S
C614 C615 1.373 . S
C614 C616 1.389 . S
C615 H594 0.950 . S
C615 C614 1.373 . S
C615 C631 1.377 . S
C616 C614 1.389 . S
C616 C617 1.524 . S
C616 C630 1.377 . S
C617 C616 1.524 . S
C617 C618 1.397 1_554 S
C617 C622 1.363 . S
C618 H595 0.950 . S
C618 C617 1.397 1_556 S
C618 C619 1.334 . S
C619 H596 0.950 . S
C619 C618 1.334 . S
C619 C620 1.287 . S
C620 C619 1.287 . S
C620 C621 1.524 1_556 S
C620 H639 0.913 . S
C621 H597 0.950 . S
C621 C620 1.524 1_554 S
C621 C622 1.415 . S
C622 H598 0.950 . S
C622 C617 1.363 . S
C622 C621 1.415 . S
C623 H599 0.967 . S
C623 C624 1.351 1_556 S
C623 C625 1.387 1_556 S
C624 C623 1.351 1_554 S
C624 C628 1.385 . S
C625 H600 0.949 1_554 S
C625 C623 1.387 1_554 S
C625 C626 1.368 . S
C626 C625 1.368 . S
C626 C627 1.414 . S
C626 C629 1.499 . S
C627 H601 0.950 . S
C627 C626 1.414 . S
C627 C628 1.374 . S
C628 H602 0.950 . S
C628 C624 1.385 . S
C628 C627 1.374 . S
C629 C626 1.499 . S
C629 C630 1.373 . S
C629 C631 1.389 . S
C630 H603 0.950 . S
C630 C616 1.377 . S
C630 C629 1.373 . S
C631 C615 1.377 . S
C631 C629 1.389 . S
C631 C632 1.524 . S
C632 C631 1.524 . S
C632 C633 1.397 . S
C632 C637 1.363 . S
C633 H604 0.950 . S
C633 C632 1.397 . S
C633 C634 1.334 . S
C634 H605 0.950 . S
C634 C633 1.334 . S
C634 C635 1.287 . S
C635 C634 1.287 . S
C635 C636 1.524 . S
C635 H638 0.999 . S
C636 H606 0.950 . S
C636 C635 1.524 . S
C636 C637 1.415 . S
C637 H607 0.950 1_554 S
C637 C632 1.363 . S
C637 C636 1.415 . S
H638 C635 0.999 . S
H639 C620 0.913 . S
H640 C658 0.951 . S
H641 C660 0.951 . S
H642 C662 0.950 . S
H643 C663 0.950 . S
H644 C665 0.950 . S
H645 C668 0.950 . S
H646 C669 0.950 . S
H647 C671 0.950 . S
H648 C672 0.950 . S
H649 C673 0.951 . S
H650 C675 0.951 . S
H651 C677 0.950 . S
H652 C678 0.950 . S
H653 C680 0.950 . S
H654 C683 0.950 . S
H655 C684 0.950 . S
H656 C686 0.950 . S
H657 C687 0.950 . S
C658 H640 0.951 . S
C658 C659 1.366 . S
C658 C660 1.388 . S
C659 C658 1.366 . S
C659 C663 1.385 . S
C660 H641 0.951 . S
C660 C658 1.388 . S
C660 C661 1.366 . S
C661 C660 1.366 . S
C661 C662 1.414 . S
C661 C664 1.499 . S
C662 H642 0.950 . S
C662 C661 1.414 . S
C662 C663 1.374 . S
C663 H643 0.950 . S
C663 C659 1.385 . S
C663 C662 1.374 . S
C664 C661 1.499 . S
C664 C665 1.373 1_554 S
C664 C666 1.389 . S
C665 H644 0.950 . S
C665 C664 1.373 1_556 S
C665 C681 1.377 . S
C666 C664 1.389 . S
C666 C667 1.524 . S
C666 C680 1.377 . S
C667 C666 1.524 . S
C667 C668 1.397 . S
C667 C672 1.363 . S
C668 H645 0.950 . S
C668 C667 1.397 . S
C668 C669 1.334 . S
C669 H646 0.950 . S
C669 C668 1.334 . S
C669 C670 1.287 . S
C670 C669 1.287 . S
C670 C671 1.524 . S
C670 H689 0.913 . S
C671 H647 0.950 . S
C671 C670 1.524 . S
C671 C672 1.415 . S
C672 H648 0.950 . S
C672 C667 1.363 . S
C672 C671 1.415 . S
C673 H649 0.951 . S
C673 C674 1.366 . S
C673 C675 1.388 . S
C674 C673 1.366 . S
C674 C678 1.385 . S
C675 H650 0.951 . S
C675 C673 1.388 . S
C675 C676 1.366 . S
C676 C675 1.366 . S
C676 C677 1.414 . S
C676 C679 1.499 . S
C677 H651 0.950 . S
C677 C676 1.414 . S
C677 C678 1.374 . S
C678 H652 0.950 . S
C678 C674 1.385 . S
C678 C677 1.374 . S
C679 C676 1.499 . S
C679 C680 1.373 . S
C679 C681 1.389 1_554 S
C680 H653 0.950 . S
C680 C666 1.377 . S
C680 C679 1.373 . S
C681 C665 1.377 . S
C681 C679 1.389 1_556 S
C681 C682 1.524 . S
C682 C681 1.524 . S
C682 C683 1.397 . S
C682 C687 1.363 . S
C683 H654 0.950 . S
C683 C682 1.397 . S
C683 C684 1.334 . S
C684 H655 0.950 . S
C684 C683 1.334 . S
C684 C685 1.287 . S
C685 C684 1.287 . S
C685 C686 1.524 . S
C685 H688 0.999 . S
C686 H656 0.950 . S
C686 C685 1.524 . S
C686 C687 1.415 . S
C687 H657 0.950 . S
C687 C682 1.363 . S
C687 C686 1.415 . S
H688 C685 0.999 . S
H689 C670 0.913 . S
H690 C708 0.951 . S
H691 C710 0.951 . S
H692 C712 0.950 . S
H693 C713 0.950 . S
H694 C715 0.950 . S
H695 C718 0.950 . S
H696 C719 0.950 . S
H697 C721 0.950 . S
H698 C722 0.950 . S
H699 C723 0.951 . S
H700 C725 0.951 . S
H701 C727 0.950 . S
H702 C728 0.950 . S
H703 C730 0.950 . S
H704 C733 0.950 . S
H705 C734 0.950 . S
H706 C736 0.950 . S
H707 C737 0.950 . S
C708 H690 0.951 . S
C708 C709 1.366 . S
C708 C710 1.388 . S
C709 C708 1.366 . S
C709 C713 1.385 . S
C710 H691 0.951 . S
C710 C708 1.388 . S
C710 C711 1.366 . S
C711 C710 1.366 . S
C711 C712 1.414 . S
C711 C714 1.499 . S
C712 H692 0.950 . S
C712 C711 1.414 . S
C712 C713 1.374 . S
C713 H693 0.950 . S
C713 C709 1.385 . S
C713 C712 1.374 . S
C714 C711 1.499 . S
C714 C715 1.373 . S
C714 C716 1.389 1_554 S
C715 H694 0.950 . S
C715 C714 1.373 . S
C715 C731 1.377 . S
C716 C714 1.389 1_556 S
C716 C717 1.524 . S
C716 C730 1.377 . S
C717 C716 1.524 . S
C717 C718 1.397 . S
C717 C722 1.363 . S
C718 H695 0.950 . S
C718 C717 1.397 . S
C718 C719 1.334 . S
C719 H696 0.950 . S
C719 C718 1.334 . S
C719 C720 1.287 . S
C720 C719 1.287 . S
C720 C721 1.524 . S
C720 H739 0.913 . S
C721 H697 0.950 . S
C721 C720 1.524 . S
C721 C722 1.415 . S
C722 H698 0.950 . S
C722 C717 1.363 . S
C722 C721 1.415 . S
C723 H699 0.951 . S
C723 C724 1.366 . S
C723 C725 1.388 . S
C724 C723 1.366 . S
C724 C728 1.385 . S
C725 H700 0.951 . S
C725 C723 1.388 . S
C725 C726 1.366 . S
C726 C725 1.366 . S
C726 C727 1.414 . S
C726 C729 1.499 . S
C727 H701 0.950 . S
C727 C726 1.414 . S
C727 C728 1.374 . S
C728 H702 0.950 . S
C728 C724 1.385 . S
C728 C727 1.374 . S
C729 C726 1.499 . S
C729 C730 1.373 1_554 S
C729 C731 1.389 . S
C730 H703 0.950 . S
C730 C716 1.377 . S
C730 C729 1.373 1_556 S
C731 C715 1.377 . S
C731 C729 1.389 . S
C731 C732 1.524 . S
C732 C731 1.524 . S
C732 C733 1.397 . S
C732 C737 1.363 . S
C733 H704 0.950 . S
C733 C732 1.397 . S
C733 C734 1.334 . S
C734 H705 0.950 . S
C734 C733 1.334 . S
C734 C735 1.287 . S
C735 C734 1.287 . S
C735 C736 1.524 . S
C735 H738 0.999 . S
C736 H706 0.950 . S
C736 C735 1.524 . S
C736 C737 1.415 . S
C737 H707 0.950 . S
C737 C732 1.363 . S
C737 C736 1.415 . S
H738 C735 0.999 . S
H739 C720 0.913 . S
H740 C758 0.951 . S
H741 C760 0.951 . S
H742 C762 0.950 . S
H743 C763 0.950 . S
H744 C765 0.950 . S
H745 C768 0.950 . S
H746 C769 0.950 . S
H747 C771 0.950 1_556 S
H748 C772 0.946 1_556 S
H749 C773 0.951 . S
H750 C775 0.951 . S
H751 C777 0.950 . S
H752 C778 0.950 . S
H753 C780 0.950 . S
H754 C783 0.950 . S
H755 C784 0.950 . S
H756 C786 0.950 . S
H757 C787 0.950 . S
C758 H740 0.951 . S
C758 C759 1.366 1_556 S
C758 C760 1.388 . S
C759 C758 1.366 1_554 S
C759 C763 1.385 . S
C760 H741 0.951 . S
C760 C758 1.388 . S
C760 C761 1.366 1_556 S
C761 C760 1.366 1_554 S
C761 C762 1.414 . S
C761 C764 1.499 . S
C762 H742 0.950 . S
C762 C761 1.414 . S
C762 C763 1.374 . S
C763 H743 0.950 . S
C763 C759 1.385 . S
C763 C762 1.374 . S
C764 C761 1.499 . S
C764 C765 1.373 . S
C764 C766 1.389 . S
C765 H744 0.950 . S
C765 C764 1.373 . S
C765 C781 1.377 . S
C766 C764 1.389 . S
C766 C767 1.524 . S
C766 C780 1.377 . S
C767 C766 1.524 . S
C767 C768 1.397 . S
C767 C772 1.367 . S
C768 H745 0.950 . S
C768 C767 1.397 . S
C768 C769 1.334 . S
C769 H746 0.950 . S
C769 C768 1.334 . S
C769 C770 1.287 . S
C770 C769 1.287 . S
C770 C771 1.524 . S
C770 H789 0.913 . S
C771 H747 0.950 1_554 S
C771 C770 1.524 . S
C771 C772 1.415 . S
C772 H748 0.946 1_554 S
C772 C767 1.367 . S
C772 C771 1.415 . S
C773 H749 0.951 . S
C773 C774 1.366 . S
C773 C775 1.388 . S
C774 C773 1.366 . S
C774 C778 1.385 1_554 S
C775 H750 0.951 . S
C775 C773 1.388 . S
C775 C776 1.366 . S
C776 C775 1.366 . S
C776 C777 1.414 1_554 S
C776 C779 1.499 . S
C777 H751 0.950 . S
C777 C776 1.414 1_556 S
C777 C778 1.374 . S
C778 H752 0.950 . S
C778 C774 1.385 1_556 S
C778 C777 1.374 . S
C779 C776 1.499 . S
C779 C780 1.373 . S
C779 C781 1.389 . S
C780 H753 0.950 . S
C780 C766 1.377 . S
C780 C779 1.373 . S
C781 C765 1.377 . S
C781 C779 1.389 . S
C781 C782 1.524 . S
C782 C781 1.524 . S
C782 C783 1.397 1_554 S
C782 C787 1.363 . S
C783 H754 0.950 . S
C783 C782 1.397 1_556 S
C783 C784 1.334 . S
C784 H755 0.950 . S
C784 C783 1.334 . S
C784 C785 1.287 1_556 S
C785 C784 1.287 1_554 S
C785 C786 1.524 . S
C785 H788 0.999 . S
C786 H756 0.950 . S
C786 C785 1.524 . S
C786 C787 1.415 . S
C787 H757 0.950 . S
C787 C782 1.363 . S
C787 C786 1.415 . S
H788 C785 0.999 . S
H789 C770 0.913 . S
C224 C174 1.952 . S
C209 C15 2.033 . S
C274 C170 1.360 . S
C259 C68 1.435 1_545 S
C324 C180 1.951 1_655 S
C309 C8 2.038 1_655 S
C374 C164 1.360 1_565 S
C359 C61 1.431 1_565 S
C409 C1 2.173 . S
C424 C156 2.072 . S
C474 C188 1.476 . S
C459 C54 1.568 1_565 S
C509 C22 2.175 1_455 S
C524 C142 2.067 . S
C559 C47 1.570 1_545 S
C574 C186 1.477 . S
C609 C93 0.931 . S
C624 C168 0.915 . S
C659 C114 0.944 . S
C674 C183 0.928 . S
C724 C177 0.928 . S
C709 C100 0.944 . S
C774 C172 0.921 . S
C759 C107 0.936 . S
