# Generated by pormake.
# Topology nom, (4,4)-cn, num edge types: 1
# Building blocks:
#     Node 0, Type 0, BuildingBlock: KUFVIS_clean_linker_0, # of connection points: 4
#     Node 1, Type 0, BuildingBlock: KUFVIS_clean_linker_0, # of connection points: 4
#     Node 2, Type 0, BuildingBlock: KUFVIS_clean_linker_0, # of connection points: 4
#     Node 3, Type 0, BuildingBlock: KUFVIS_clean_linker_0, # of connection points: 4
#     Node 4, Type 0, BuildingBlock: KUFVIS_clean_linker_0, # of connection points: 4
#     Node 5, Type 0, BuildingBlock: KUFVIS_clean_linker_0, # of connection points: 4
#     Node 6, Type 1, BuildingBlock: QUQFOY_clean_sbu_3, # of connection points: 4
#     Node 7, Type 1, BuildingBlock: QUQFOY_clean_sbu_3, # of connection points: 4
#     Node 8, Type 1, BuildingBlock: QUQFOY_clean_sbu_3, # of connection points: 4
#     Node 9, Type 1, BuildingBlock: QUQFOY_clean_sbu_3, # of connection points: 4
#     Node 10, Type 1, BuildingBlock: QUQFOY_clean_sbu_3, # of connection points: 4
#     Node 11, Type 1, BuildingBlock: QUQFOY_clean_sbu_3, # of connection points: 4
#     Edge 12, Type (0, 1), BuildingBlock: CIFDUS_clean_linker_0, # of connection points: 2
#     Edge 13, Type (0, 1), BuildingBlock: CIFDUS_clean_linker_0, # of connection points: 2
#     Edge 14, Type (0, 1), BuildingBlock: CIFDUS_clean_linker_0, # of connection points: 2
#     Edge 15, Type (0, 1), BuildingBlock: CIFDUS_clean_linker_0, # of connection points: 2
#     Edge 16, Type (0, 1), BuildingBlock: CIFDUS_clean_linker_0, # of connection points: 2
#     Edge 17, Type (0, 1), BuildingBlock: CIFDUS_clean_linker_0, # of connection points: 2
#     Edge 18, Type (0, 1), BuildingBlock: CIFDUS_clean_linker_0, # of connection points: 2
#     Edge 19, Type (0, 1), BuildingBlock: CIFDUS_clean_linker_0, # of connection points: 2
#     Edge 20, Type (0, 1), BuildingBlock: CIFDUS_clean_linker_0, # of connection points: 2
#     Edge 21, Type (0, 1), BuildingBlock: CIFDUS_clean_linker_0, # of connection points: 2
#     Edge 22, Type (0, 1), BuildingBlock: CIFDUS_clean_linker_0, # of connection points: 2
#     Edge 23, Type (0, 1), BuildingBlock: CIFDUS_clean_linker_0, # of connection points: 2
#     Edge 24, Type (0, 1), BuildingBlock: CIFDUS_clean_linker_0, # of connection points: 2
#     Edge 25, Type (0, 1), BuildingBlock: CIFDUS_clean_linker_0, # of connection points: 2
#     Edge 26, Type (0, 1), BuildingBlock: CIFDUS_clean_linker_0, # of connection points: 2
#     Edge 27, Type (0, 1), BuildingBlock: CIFDUS_clean_linker_0, # of connection points: 2
#     Edge 28, Type (0, 1), BuildingBlock: CIFDUS_clean_linker_0, # of connection points: 2
#     Edge 29, Type (0, 1), BuildingBlock: CIFDUS_clean_linker_0, # of connection points: 2
#     Edge 30, Type (0, 1), BuildingBlock: CIFDUS_clean_linker_0, # of connection points: 2
#     Edge 31, Type (0, 1), BuildingBlock: CIFDUS_clean_linker_0, # of connection points: 2
#     Edge 32, Type (0, 1), BuildingBlock: CIFDUS_clean_linker_0, # of connection points: 2
#     Edge 33, Type (0, 1), BuildingBlock: CIFDUS_clean_linker_0, # of connection points: 2
#     Edge 34, Type (0, 1), BuildingBlock: CIFDUS_clean_linker_0, # of connection points: 2
#     Edge 35, Type (0, 1), BuildingBlock: CIFDUS_clean_linker_0, # of connection points: 2
# Relax obj value: 0.003
# Max RMSD: 0.048
# Mean RMSD: 0.035
data_MOF--net-nom--node1-QUQFOY_clean_sbu_3--node2-KUFVIS_clean_linker_0--edge1-CIFDUS_clean_linker_0
_symmetry_space_group_name_H-M    P1
_symmetry_Int_Tables_number       1
_symmetry_cell_setting            triclinic
loop_
_symmetry_equiv_pos_as_xyz
'x, y, z'
_cell_length_a     40.24814
_cell_length_b     41.146066
_cell_length_c     42.370676
_cell_angle_alpha  89.916292
_cell_angle_beta   90.221038
_cell_angle_gamma 120.39083
loop_
_atom_site_label
_atom_site_type_symbol
_atom_site_fract_x
_atom_site_fract_y
_atom_site_fract_z
_atom_type_partial_charge
H0 H 0.14246 0.59795 0.31818 0.0
H1 H 0.05285 0.55891 0.24851 0.0
H2 H 0.02841 0.51263 0.34335 0.0
H3 H 0.97052 0.50743 0.33215 0.0
H4 H 0.88587 0.43847 0.26335 0.0
H5 H 1.00469 0.50008 0.23684 0.0
C6 C 0.11259 0.57944 0.3114 0.0
C7 C 0.08648 0.55581 0.33399 0.0
C8 C 0.1009 0.58003 0.28044 0.0
C9 C 0.06183 0.55717 0.27226 0.0
C10 C 0.03484 0.53217 0.2947 0.0
C11 C 0.0479 0.53166 0.32565 0.0
C12 C 0.99341 0.50635 0.28596 0.0
C13 C 0.96382 0.49572 0.30856 0.0
C14 C 0.92516 0.47033 0.30068 0.0
C15 C 0.9159 0.45634 0.26992 0.0
C16 C 0.94428 0.46778 0.24677 0.0
C17 C 0.98299 0.49226 0.25489 0.0
H18 H 0.58397 0.15015 0.49043 0.0
H19 H 0.5185 0.0649 0.42173 0.0
H20 H 0.52678 0.03468 0.51859 0.0
H21 H 0.47103 0.98286 0.50725 0.0
H22 H 0.44542 0.89552 0.44005 0.0
H23 H 0.51537 1.01027 0.41163 0.0
C24 C 0.5659 0.12057 0.48436 0.0
C25 C 0.55568 0.09339 0.50774 0.0
C26 C 0.55304 0.11042 0.45337 0.0
C27 C 0.52894 0.07216 0.44573 0.0
C28 C 0.5191 0.04376 0.46899 0.0
C29 C 0.53279 0.05516 0.50018 0.0
C30 C 0.49663 1.00256 0.46069 0.0
C31 C 0.47447 0.97483 0.48372 0.0
C32 C 0.45701 0.93624 0.47656 0.0
C33 C 0.45991 0.92527 0.44602 0.0
C34 C 0.48004 0.95185 0.42269 0.0
C35 C 0.49868 0.99033 0.42993 0.0
H36 H 0.54997 0.42238 0.61531 0.0
H37 H 0.49141 0.44964 0.68492 0.0
H38 H 0.49805 0.48672 0.58788 0.0
H39 H 0.44317 0.48518 0.60098 0.0
H40 H 0.41988 0.5467 0.67025 0.0
H41 H 0.49435 0.50433 0.6941 0.0
C42 C 0.53397 0.43619 0.62154 0.0
C43 C 0.52472 0.4542 0.59815 0.0
C44 C 0.523 0.4354 0.65281 0.0
C45 C 0.50075 0.45161 0.66072 0.0
C46 C 0.4915 0.4708 0.63756 0.0
C47 C 0.50363 0.4716 0.60609 0.0
C48 C 0.47113 0.4915 0.64645 0.0
C49 C 0.44785 0.49703 0.62447 0.0
C50 C 0.43062 0.51825 0.63264 0.0
C51 C 0.435 0.53225 0.6634 0.0
C52 C 0.45718 0.52654 0.68577 0.0
C53 C 0.47577 0.5069 0.677 0.0
H54 H 0.1652 0.59756 0.77729 0.0
H55 H 0.0806 0.52161 0.84288 0.0
H56 H 0.0474 0.53231 0.74785 0.0
H57 H 1.00204 0.47111 0.75667 0.0
H58 H 0.90806 0.4296 0.82157 0.0
H59 H 0.02057 0.51363 0.85267 0.0
C60 C 0.13528 0.57788 0.7829 0.0
C61 C 0.10736 0.5665 0.75917 0.0
C62 C 0.12582 0.56211 0.8131 0.0
C63 C 0.08748 0.53453 0.81973 0.0
C64 C 0.05837 0.5236 0.79648 0.0
C65 C 0.06893 0.53991 0.76617 0.0
C66 C 0.01706 0.49592 0.80378 0.0
C67 C 0.99161 0.47167 0.78006 0.0
C68 C 0.95219 0.44848 0.78637 0.0
C69 C 0.93843 0.44818 0.81657 0.0
C70 C 0.96293 0.47115 0.84049 0.0
C71 C 1.0022 0.49497 0.83419 0.0
H72 H 0.45577 0.89965 0.0004 0.0
H73 H 0.52758 0.98041 0.93156 0.0
H74 H 0.52208 0.01516 0.02746 0.0
H75 H 0.57459 0.06703 0.01622 0.0
H76 H 0.61547 0.15075 0.94398 0.0
H77 H 0.53931 0.03594 0.91855 0.0
C78 C 0.47548 0.92878 -0.00607 0.0
C79 C 0.48838 0.95657 0.01705 0.0
C80 C 0.48899 0.93742 0.96308 0.0
C81 C 0.51623 0.97482 0.95527 0.0
C82 C 0.52809 1.00429 0.97789 0.0
C83 C 0.51402 0.99424 0.00913 0.0
C84 C 0.55367 0.04509 0.9687 0.0
C85 C 0.57464 0.07371 -0.00845 0.0
C86 C 0.59562 0.11183 -0.01738 0.0
C87 C 0.59792 0.1214 0.95081 0.0
C88 C 0.57835 0.09401 0.92775 0.0
C89 C 0.55586 0.05617 0.93673 0.0
H90 H 0.49555 0.61812 0.12225 0.0
H91 H 0.53652 0.57119 0.19197 0.0
H92 H 0.52137 0.5335 0.09454 0.0
H93 H 0.57174 0.52596 0.10654 0.0
H94 H 0.57875 0.45056 0.17221 0.0
H95 H 0.52502 0.51276 0.20075 0.0
C96 C 0.50608 0.59927 0.12837 0.0
C97 C 0.50901 0.57714 0.10495 0.0
C98 C 0.51487 0.59637 0.15975 0.0
C99 C 0.52873 0.57218 0.16767 0.0
C100 C 0.53189 0.54925 0.14422 0.0
C101 C 0.52098 0.55159 0.11289 0.0
C102 C 0.54536 0.52221 0.15221 0.0
C103 C 0.56469 0.51256 0.12949 0.0
C104 C 0.5756 0.48582 0.13634 0.0
C105 C 0.56838 0.46958 0.16633 0.0
C106 C 0.55124 0.48005 0.18971 0.0
C107 C 0.5392 0.50583 0.18254 0.0
C108 C 0.74361 0.4562 0.38703 0.0
O109 O 0.74113 0.48261 0.40015 0.0
Cd110 Cd 0.68416 0.47883 0.4203 0.0
O111 O 0.71368 0.42363 0.38332 0.0
Cd112 Cd 0.64272 0.39159 0.39613 0.0
C113 C 0.62846 0.45308 0.35285 0.0
O114 O 0.65246 0.42057 0.44763 0.0
O115 O 0.59393 0.39196 0.43124 0.0
O116 O 0.64431 0.33325 0.405 0.0
C117 C 0.61768 0.41039 0.45301 0.0
O118 O 0.64644 0.47723 0.3745 0.0
C119 C 0.61184 0.31142 0.39231 0.0
O120 O 0.62539 0.42068 0.35361 0.0
O121 O 0.59422 0.32684 0.38042 0.0
C122 C 0.29951 0.58628 0.54823 0.0
O123 O 0.27011 0.5591 0.53521 0.0
Cd124 Cd 0.21534 0.56352 0.51817 0.0
O125 O 0.30194 0.61825 0.55145 0.0
Cd126 Cd 0.26734 0.65265 0.53892 0.0
C127 C 0.19483 0.59411 0.58765 0.0
O128 O 0.23894 0.62059 0.48923 0.0
O129 O 0.21899 0.65682 0.50691 0.0
O130 O 0.33098 0.70329 0.52444 0.0
C131 C 0.21705 0.63418 0.48578 0.0
O132 O 0.18612 0.5688 0.56673 0.0
C133 C 0.32874 0.7298 0.53761 0.0
O134 O 0.22445 0.62688 0.58459 0.0
O135 O 0.29767 0.72067 0.5522 0.0
C136 C 0.74898 0.30642 0.71516 0.0
O137 O 0.74583 0.275 0.708 0.0
Cd138 Cd 0.68445 0.21904 0.6974 0.0
O139 O 0.71906 0.30949 0.71717 0.0
Cd140 Cd 0.64792 0.27192 0.71057 0.0
C141 C 0.63609 0.20823 0.76674 0.0
O142 O 0.64951 0.23821 0.66372 0.0
O143 O 0.59323 0.22112 0.6824 0.0
O144 O 0.65444 0.3312 0.69292 0.0
C145 C 0.61327 0.21704 0.66155 0.0
O146 O 0.65083 0.19516 0.74764 0.0
C147 C 0.62583 0.32799 0.70817 0.0
O148 O 0.63449 0.23755 0.75989 0.0
O149 O 0.6072 0.29855 0.72484 0.0
C150 C 0.31488 0.59012 0.89596 0.0
O151 O 0.32193 0.56488 0.90539 0.0
Cd152 Cd 0.38407 0.57408 0.91839 0.0
O153 O 0.34217 0.6242 0.89262 0.0
Cd154 Cd 0.41411 0.66115 0.89978 0.0
C155 C 0.42799 0.60695 0.8469 0.0
O156 O 0.41424 0.63023 0.94903 0.0
O157 O 0.4701 0.66887 0.93001 0.0
O158 O 0.40783 0.71605 0.91271 0.0
C159 C 0.45045 0.6464 0.95185 0.0
O160 O 0.416 0.58136 0.86793 0.0
C161 C 0.43787 0.7397 0.89791 0.0
O162 O 0.42782 0.63741 0.85172 0.0
O163 O 0.45599 0.72669 0.88313 0.0
C164 C 0.74076 0.4696 0.04882 0.0
O165 O 0.77141 0.49579 0.03655 0.0
Cd166 Cd 0.82242 0.48861 0.01621 0.0
O167 O 0.73525 0.43623 0.05105 0.0
Cd168 Cd 0.76933 0.40123 0.03627 0.0
C169 C 0.8469 0.45628 0.08229 0.0
O170 O 0.79197 0.43231 -0.01427 0.0
O171 O 0.81833 0.40092 0.00143 0.0
O172 O 0.70595 0.34772 0.02331 0.0
C173 C 0.81497 0.42064 -0.01993 0.0
O174 O 0.85584 0.48206 0.06179 0.0
C175 C 0.71078 0.32255 0.03624 0.0
O176 O 0.81546 0.42484 0.08007 0.0
O177 O 0.74289 0.33381 0.04999 0.0
C178 C 0.30314 0.73254 0.21269 0.0
O179 O 0.30293 0.76047 0.20008 0.0
Cd180 Cd 0.36141 0.81872 0.18809 0.0
O181 O 0.33495 0.73404 0.2189 0.0
Cd182 Cd 0.40628 0.77346 0.21466 0.0
C183 C 0.40736 0.84128 0.26129 0.0
O184 O 0.40419 0.80152 0.16523 0.0
O185 O 0.46084 0.82285 0.1851 0.0
O186 O 0.39817 0.71261 0.20161 0.0
C187 C 0.44 0.82501 0.16368 0.0
O188 O 0.38983 0.84722 0.2389 0.0
C189 C 0.42716 0.71632 0.21673 0.0
O190 O 0.41517 0.81484 0.25965 0.0
O191 O 0.44721 0.7471 0.23164 0.0
H192 H 0.1667 0.58147 0.26677 0.0
H193 H 0.10262 0.63655 0.2448 0.0
H194 H 0.15953 0.68802 0.21893 0.0
H195 H 0.22985 0.72103 0.20926 0.0
H196 H 0.29355 0.66604 0.23449 0.0
H197 H 0.23459 0.61107 0.25258 0.0
C198 C 0.16503 0.60439 0.25565 0.0
C199 C 0.13077 0.60548 0.25776 0.0
C200 C 0.19805 0.63429 0.24206 0.0
C201 C 0.12869 0.63507 0.24323 0.0
C202 C 0.16135 0.66468 0.22885 0.0
C203 C 0.23077 0.69687 0.21841 0.0
C204 C 0.26633 0.69805 0.22094 0.0
C205 C 0.19661 0.66525 0.2292 0.0
C206 C 0.26683 0.66629 0.23264 0.0
C207 C 0.23305 0.63469 0.24293 0.0
H208 H 0.51238 0.13966 0.42655 0.0
H209 H 0.62507 0.15193 0.4307 0.0
H210 H 0.6537 0.21536 0.40867 0.0
H211 H 0.64783 0.27081 0.39711 0.0
H212 H 0.53523 0.25899 0.39228 0.0
H213 H 0.50535 0.19207 0.40534 0.0
C214 C 0.54291 0.1557 0.42127 0.0
C215 C 0.56664 0.14125 0.42999 0.0
C216 C 0.5593 0.19261 0.40926 0.0
C217 C 0.60631 0.16247 0.42375 0.0
C218 C 0.62273 0.19891 0.41158 0.0
C219 C 0.61672 0.25338 0.39831 0.0
C220 C 0.59382 0.26992 0.39428 0.0
C221 C 0.59974 0.21489 0.40567 0.0
C222 C 0.55351 0.24694 0.39544 0.0
C223 C 0.53639 0.20867 0.40303 0.0
H224 H 0.43586 0.58518 0.62077 0.0
H225 H 0.37247 0.46808 0.59386 0.0
H226 H 0.32757 0.47939 0.56305 0.0
H227 H 0.30289 0.52146 0.54837 0.0
H228 H 0.36609 0.63822 0.57722 0.0
H229 H 0.41433 0.62803 0.6028 0.0
C230 C 0.41237 0.56219 0.60792 0.0
C231 C 0.40717 0.52577 0.60985 0.0
C232 C 0.38637 0.56876 0.59095 0.0
C233 C 0.3771 0.49638 0.59266 0.0
C234 C 0.35127 0.5028 0.5753 0.0
C235 C 0.32739 0.54478 0.56 0.0
C236 C 0.33048 0.58048 0.56114 0.0
C237 C 0.35504 0.53869 0.57498 0.0
C238 C 0.36265 0.61038 0.57615 0.0
C239 C 0.39034 0.60461 0.59081 0.0
H240 H 0.89302 0.45486 0.76514 0.0
H241 H 0.9462 0.38721 0.75587 0.0
H242 H 0.88806 0.33749 0.72966 0.0
H243 H 0.81887 0.30997 0.71702 0.0
H244 H 0.76566 0.37768 0.72949 0.0
H245 H 0.82691 0.43057 0.74687 0.0
C246 C 0.89221 0.42968 0.7564 0.0
C247 C 0.92363 0.42454 0.76223 0.0
C248 C 0.85831 0.40087 0.7427 0.0
C249 C 0.92243 0.39183 0.75121 0.0
C250 C 0.88899 0.36325 0.73669 0.0
C251 C 0.82076 0.33643 0.72317 0.0
C252 C 0.7874 0.3395 0.72245 0.0
C253 C 0.85618 0.36685 0.73355 0.0
C254 C 0.79059 0.3742 0.73021 0.0
C255 C 0.82569 0.40459 0.7401 0.0
H256 H 0.53021 0.91209 0.93127 0.0
H257 H 0.41498 0.8907 0.94592 0.0
H258 H 0.38818 0.82758 0.92372 0.0
H259 H 0.39765 0.77518 0.90875 0.0
H260 H 0.51261 0.79614 0.8931 0.0
H261 H 0.53939 0.86255 0.90676 0.0
C262 C 0.49932 0.89407 0.92839 0.0
C263 C 0.47454 0.90578 0.94034 0.0
C264 C 0.48406 0.85739 0.91615 0.0
C265 C 0.43451 0.88212 0.93684 0.0
C266 C 0.41919 0.84591 0.92447 0.0
C267 C 0.4285 0.79448 0.90777 0.0
C268 C 0.45314 0.78072 0.9005 0.0
C269 C 0.44367 0.83264 0.91547 0.0
C270 C 0.49304 0.80607 0.89881 0.0
C271 C 0.5084 0.84404 0.90672 0.0
H272 H 0.64158 0.5347 0.10604 0.0
H273 H 0.56021 0.41629 0.11778 0.0
H274 H 0.60354 0.40044 0.09042 0.0
H275 H 0.6672 0.4204 0.06781 0.0
H276 H 0.74897 0.5391 0.05679 0.0
H277 H 0.70298 0.55458 0.07909 0.0
C278 C 0.63298 0.50547 0.10179 0.0
C279 C 0.59787 0.4767 0.11387 0.0
C280 C 0.65843 0.49659 0.08671 0.0
C281 C 0.58721 0.43889 0.10868 0.0
C282 C 0.61206 0.42983 0.09324 0.0
C283 C 0.6749 0.44964 0.07015 0.0
C284 C 0.71171 0.47847 0.06097 0.0
C285 C 0.64825 0.45846 0.08301 0.0
C286 C 0.72096 0.51624 0.06382 0.0
C287 C 0.69464 0.5252 0.07656 0.0
H288 H 0.47127 0.88183 0.49417 0.0
H289 H 0.39233 0.92184 0.50927 0.0
H290 H 0.34643 0.86169 0.53425 0.0
H291 H 0.32485 0.79416 0.54325 0.0
H292 H 0.40328 0.75424 0.52356 0.0
H293 H 0.45324 0.81768 0.50904 0.0
C294 C 0.44445 0.87769 0.50383 0.0
C295 C 0.435 0.90598 0.49987 0.0
C296 C 0.41778 0.84267 0.5167 0.0
C297 C 0.40026 0.9005 0.51232 0.0
C298 C 0.37386 0.86593 0.52618 0.0
C299 C 0.35315 0.7996 0.53642 0.0
C300 C 0.36019 0.76942 0.53409 0.0
C301 C 0.38163 0.83621 0.52721 0.0
C302 C 0.39696 0.77684 0.52515 0.0
C303 C 0.4256 0.81314 0.51687 0.0
H304 H 0.59632 0.45692 0.66584 0.0
H305 H 0.47993 0.37367 0.69012 0.0
H306 H 0.50289 0.33427 0.71434 0.0
H307 H 0.5549 0.319 0.71948 0.0
H308 H 0.66992 0.40062 0.68946 0.0
H309 H 0.64889 0.44518 0.67655 0.0
C310 C 0.5762 0.43066 0.67739 0.0
C311 C 0.5366 0.41799 0.67621 0.0
C312 C 0.58937 0.4075 0.68946 0.0
C313 C 0.51059 0.384 0.69104 0.0
C314 C 0.5237 0.3613 0.70441 0.0
C315 C 0.57544 0.34683 0.7107 0.0
C316 C 0.6138 0.35636 0.705 0.0
C317 C 0.56282 0.37197 0.70235 0.0
C318 C 0.64015 0.39245 0.6936 0.0
C319 C 0.62817 0.41798 0.68628 0.0
H320 H 0.14456 0.51608 0.84463 0.0
H321 H 0.17912 0.63288 0.83171 0.0
H322 H 0.24012 0.65229 0.85875 0.0
H323 H 0.28674 0.636 0.87992 0.0
H324 H 0.25255 0.51893 0.8919 0.0
H325 H 0.18849 0.4998 0.87167 0.0
C326 C 0.16499 0.54571 0.84865 0.0
C327 C 0.15754 0.57303 0.83615 0.0
C328 C 0.20045 0.55667 0.8635 0.0
C329 C 0.18441 0.6114 0.8411 0.0
C330 C 0.21937 0.62249 0.85634 0.0
C331 C 0.26518 0.60631 0.87844 0.0
C332 C 0.2748 0.57903 0.88698 0.0
C333 C 0.22829 0.59538 0.8666 0.0
C334 C 0.24621 0.54065 0.88525 0.0
C335 C 0.20945 0.5296 0.87365 0.0
H336 H 0.57602 0.16365 -0.00507 0.0
H337 H 0.65968 0.1318 0.01876 0.0
H338 H 0.70191 0.1944 0.04179 0.0
H339 H 0.71904 0.26124 0.04676 0.0
H340 H 0.63602 0.29286 0.0187 0.0
H341 H 0.58952 0.22752 0.00585 0.0
C342 C 0.60292 0.17009 0.00624 0.0
C343 C 0.61475 0.14329 0.00544 0.0
C344 C 0.62754 0.20647 0.01795 0.0
C345 C 0.64983 0.15189 0.0196 0.0
C346 C 0.67416 0.18785 0.0323 0.0
C347 C 0.69051 0.25365 0.03843 0.0
C348 C 0.68123 0.28203 0.03329 0.0
C349 C 0.66402 0.2159 0.03033 0.0
C350 C 0.64412 0.27173 0.02248 0.0
C351 C 0.61744 0.23432 0.01515 0.0
H352 H 0.44491 0.57901 0.17935 0.0
H353 H 0.56499 0.66179 0.19019 0.0
H354 H 0.54799 0.70582 0.21407 0.0
H355 H 0.49863 0.72414 0.22265 0.0
H356 H 0.37892 0.64196 0.20643 0.0
H357 H 0.3958 0.59427 0.19419 0.0
C358 C 0.46724 0.60619 0.18815 0.0
C359 C 0.50603 0.61717 0.18347 0.0
C360 C 0.45718 0.63175 0.20019 0.0
C361 C 0.53494 0.65264 0.19416 0.0
C362 C 0.52515 0.67794 0.20734 0.0
C363 C 0.47626 0.69554 0.21718 0.0
C364 C 0.43761 0.68667 0.21509 0.0
C365 C 0.48635 0.6684 0.2091 0.0
C366 C 0.4089 0.64959 0.2078 0.0
C367 C 0.41851 0.62227 0.20081 0.0
H368 H 0.91143 0.51869 0.3337 0.0
H369 H 0.86616 0.40052 0.31588 0.0
H370 H 0.80607 0.38515 0.34238 0.0
H371 H 0.76405 0.40598 0.3658 0.0
H372 H 0.8095 0.52459 0.3828 0.0
H373 H 0.87158 0.53898 0.36158 0.0
C374 C 0.88881 0.48954 0.33647 0.0
C375 C 0.89312 0.46079 0.32289 0.0
C376 C 0.85399 0.481 0.35104 0.0
C377 C 0.86336 0.42312 0.32616 0.0
C378 C 0.82893 0.41435 0.34109 0.0
C379 C 0.78758 0.43494 0.365 0.0
C380 C 0.7818 0.46411 0.37554 0.0
C381 C 0.82345 0.44316 0.35274 0.0
C382 C 0.81288 0.50148 0.37469 0.0
C383 C 0.84854 0.50983 0.36257 0.0
H384 H 0.10022 0.60926 0.37641 0.0
H385 H 0.10812 0.5099 0.36187 0.0
H386 H 0.14918 0.52492 0.4089 0.0
H387 H 0.18837 0.57033 0.4505 0.0
H388 H 0.18046 0.67009 0.46432 0.0
H389 H 0.13401 0.65118 0.42109 0.0
C390 C 0.10996 0.59035 0.38431 0.0
C391 C 0.10093 0.55831 0.36633 0.0
C392 C 0.13428 0.5998 0.41065 0.0
C393 C 0.11423 0.53427 0.37597 0.0
C394 C 0.1381 0.54319 0.4025 0.0
C395 C 0.17638 0.58783 0.44404 0.0
C396 C 0.18824 0.62185 0.46017 0.0
C397 C 0.14934 0.57656 0.41938 0.0
C398 C 0.17198 0.64394 0.45204 0.0
C399 C 0.14536 0.63311 0.42741 0.0
H400 H 0.51558 0.10188 0.55423 0.0
H401 H 0.62679 0.11726 0.53156 0.0
H402 H 0.65458 0.15578 0.57901 0.0
H403 H 0.64856 0.19121 0.62303 0.0
H404 H 0.53748 0.17744 0.64476 0.0
H405 H 0.50817 0.13223 0.60161 0.0
C406 C 0.54554 0.11264 0.56046 0.0
C407 C 0.56915 0.10649 0.54005 0.0
C408 C 0.56144 0.13577 0.58708 0.0
C409 C 0.60816 0.12124 0.54751 0.0
C410 C 0.62406 0.14361 0.57432 0.0
C411 C 0.6179 0.17814 0.61841 0.0
C412 C 0.59532 0.18807 0.63669 0.0
C413 C 0.60126 0.15216 0.59362 0.0
C414 C 0.55553 0.17048 0.63082 0.0
C415 C 0.53873 0.14458 0.6062 0.0
H416 H 0.46716 0.59381 0.7054 0.0
H417 H 0.45023 0.48782 0.74004 0.0
H418 H 0.44302 0.50494 0.79369 0.0
H419 H 0.43489 0.547 0.8296 0.0
H420 H 0.44917 0.65195 0.79453 0.0
H421 H 0.46374 0.63804 0.74214 0.0
C422 C 0.46209 0.57456 0.72475 0.0
C423 C 0.45881 0.53944 0.71872 0.0
C424 C 0.45702 0.58417 0.75536 0.0
C425 C 0.45309 0.51511 0.74408 0.0
C426 C 0.44859 0.52473 0.77471 0.0
C427 C 0.44147 0.56702 0.8106 0.0
C428 C 0.44041 0.60024 0.81595 0.0
C429 C 0.44946 0.55872 0.78046 0.0
C430 C 0.44947 0.62602 0.79107 0.0
C431 C 0.45779 0.6181 0.76107 0.0
H432 H 0.9048 0.48339 0.85271 0.0
H433 H 0.98185 0.45327 0.89724 0.0
H434 H 0.94283 0.43532 0.94545 0.0
H435 H 0.88298 0.42223 0.97248 0.0
H436 H 0.80599 0.45203 0.92682 0.0
H437 H 0.84848 0.47556 0.88116 0.0
C438 C 0.91341 0.47365 0.87329 0.0
C439 C 0.94589 0.46949 0.87165 0.0
C440 C 0.89036 0.4625 0.9003 0.0
C441 C 0.95706 0.45696 0.89825 0.0
C442 C 0.93448 0.44625 0.92556 0.0
C443 C 0.87556 0.43387 0.9525 0.0
C444 C 0.84113 0.43489 0.95276 0.0
C445 C 0.90038 0.44776 0.92643 0.0
C446 C 0.83218 0.45067 0.92703 0.0
C447 C 0.8565 0.46425 0.90098 0.0
H448 H 0.53176 0.95043 0.06208 0.0
H449 H 0.41799 0.93092 0.04292 0.0
H450 H 0.39269 0.88902 0.08867 0.0
H451 H 0.40152 0.85096 0.12892 0.0
H452 H 0.51516 0.86878 0.14686 0.0
H453 H 0.54203 0.91806 0.10663 0.0
C454 C 0.50181 0.93821 0.06887 0.0
C455 C 0.47676 0.94397 0.04972 0.0
C456 C 0.48729 0.91289 0.09424 0.0
C457 C 0.43775 0.92729 0.05791 0.0
C458 C 0.42324 0.90288 0.08366 0.0
C459 C 0.43218 0.86577 0.12409 0.0
C460 C 0.45623 0.8558 0.14031 0.0
C461 C 0.44744 0.89419 0.10109 0.0
C462 C 0.49601 0.8757 0.13436 0.0
C463 C 0.51142 0.90396 0.11146 0.0
H464 H 0.58333 0.5241 0.24079 0.0
H465 H 0.52175 0.4081 0.2108 0.0
H466 H 0.53829 0.38886 0.2603 0.0
H467 H 0.5774 0.40626 0.30866 0.0
H468 H 0.64083 0.52286 0.33772 0.0
H469 H 0.61647 0.54063 0.29208 0.0
C470 C 0.57246 0.49451 0.24565 0.0
C471 C 0.55139 0.4675 0.22238 0.0
C472 C 0.58325 0.48389 0.27361 0.0
C473 C 0.53796 0.42928 0.22856 0.0
C474 C 0.54774 0.41836 0.25666 0.0
C475 C 0.58572 0.43553 0.30512 0.0
C476 C 0.61144 0.46323 0.3263 0.0
C477 C 0.57167 0.44563 0.27877 0.0
C478 C 0.62137 0.50095 0.32164 0.0
C479 C 0.60741 0.51119 0.29556 0.0
H480 H 0.43781 0.95308 0.37408 0.0
H481 H 0.51706 0.9167 0.40108 0.0
H482 H 0.50214 0.87928 0.35261 0.0
H483 H 0.46184 0.85241 0.30518 0.0
H484 H 0.38082 0.88751 0.2794 0.0
H485 H 0.4007 0.92955 0.32485 0.0
C486 C 0.45262 0.93787 0.36869 0.0
C487 C 0.47894 0.93799 0.39049 0.0
C488 C 0.44279 0.91544 0.34148 0.0
C489 C 0.49725 0.9174 0.38408 0.0
C490 C 0.48833 0.89569 0.35666 0.0
C491 C 0.44853 0.86924 0.30954 0.0
C492 C 0.4196 0.86649 0.2891 0.0
C493 C 0.46027 0.89361 0.33567 0.0
C494 C 0.40305 0.88894 0.29481 0.0
C495 C 0.41447 0.91311 0.32076 0.0
H496 H 0.59702 0.47678 0.57996 0.0
H497 H 0.48119 0.4291 0.54438 0.0
H498 H 0.50035 0.41259 0.49473 0.0
H499 H 0.54833 0.40473 0.46467 0.0
H500 H 0.66321 0.44994 0.50251 0.0
H501 H 0.64595 0.47374 0.54844 0.0
C502 C 0.57623 0.4635 0.56099 0.0
C503 C 0.53779 0.45386 0.56569 0.0
C504 C 0.58704 0.45274 0.53339 0.0
C505 C 0.51101 0.43694 0.54107 0.0
C506 C 0.52185 0.42703 0.51296 0.0
C507 C 0.56957 0.41987 0.48295 0.0
C508 C 0.60684 0.42509 0.48042 0.0
C509 C 0.55943 0.4335 0.5094 0.0
C510 C 0.63423 0.44521 0.50405 0.0
C511 C 0.62446 0.45899 0.53025 0.0
H512 H 0.08887 0.52362 0.70661 0.0
H513 H 0.15522 0.63857 0.73891 0.0
H514 H 0.18677 0.65802 0.68751 0.0
H515 H 0.20037 0.64092 0.63556 0.0
H516 H 0.13452 0.52533 0.60405 0.0
H517 H 0.09779 0.50771 0.65284 0.0
C518 C 0.10942 0.55309 0.70207 0.0
C519 C 0.11989 0.5796 0.72646 0.0
C520 C 0.12804 0.56387 0.67279 0.0
C521 C 0.14696 0.61764 0.72046 0.0
C522 C 0.1651 0.62872 0.69117 0.0
C523 C 0.1778 0.61194 0.63925 0.0
C524 C 0.17069 0.58447 0.61631 0.0
C525 C 0.15679 0.60184 0.66751 0.0
C526 C 0.14095 0.54709 0.62136 0.0
C527 C 0.11982 0.53691 0.64929 0.0
H528 H 0.57263 0.15186 0.90363 0.0
H529 H 0.59402 0.06296 0.87709 0.0
H530 H 0.61213 0.08956 0.82393 0.0
H531 H 0.62771 0.14152 0.78694 0.0
H532 H 0.60834 0.23154 0.8149 0.0
H533 H 0.58424 0.20135 0.86582 0.0
C534 C 0.58101 0.13818 0.8861 0.0
C535 C 0.58249 0.10582 0.89428 0.0
C536 C 0.59238 0.15418 0.85608 0.0
C537 C 0.59257 0.08785 0.87125 0.0
C538 C 0.6033 0.10328 0.84101 0.0
C539 C 0.61815 0.15451 0.80413 0.0
C540 C 0.62033 0.18902 0.7972 0.0
C541 C 0.60435 0.13703 0.83348 0.0
C542 C 0.60731 0.20517 0.81964 0.0
C543 C 0.59342 0.1879 0.84877 0.0
H544 H 0.54515 0.63684 0.06635 0.0
H545 H 0.44585 0.52539 0.07271 0.0
H546 H 0.41877 0.53665 0.02475 0.0
H547 H 0.42087 0.58078 -0.01573 0.0
H548 H 0.52141 0.69164 0.97712 0.0
H549 H 0.55071 0.67825 0.02224 0.0
C550 C 0.51808 0.61478 0.05662 0.0
C551 C 0.49744 0.58034 0.07262 0.0
C552 C 0.50272 0.62167 0.02939 0.0
C553 C 0.46227 0.5519 0.06032 0.0
C554 C 0.44668 0.55852 0.0332 0.0
C555 C 0.44924 0.60189 -0.00741 0.0
C556 C 0.46876 0.63736 0.97789 0.0
C557 C 0.46615 0.59371 0.01811 0.0
C558 C 0.50582 0.66425 -0.01169 0.0
C559 C 0.52255 0.6566 0.01404 0.0
H560 H 0.96152 0.51553 0.19776 0.0
H561 H 0.89717 0.39781 0.22236 0.0
H562 H 0.86263 0.38324 0.17199 0.0
H563 H 0.84507 0.40529 0.12436 0.0
H564 H 0.90839 0.52357 0.1006 0.0
H565 H 0.94899 0.53658 0.14716 0.0
C566 C 0.94086 0.48656 0.19156 0.0
C567 C 0.93178 0.45776 0.21359 0.0
C568 C 0.92028 0.47863 0.16307 0.0
C569 C 0.90453 0.42037 0.20562 0.0
C570 C 0.88457 0.41212 0.17701 0.0
C571 C 0.8679 0.43388 0.12925 0.0
C572 C 0.87319 0.46346 0.1093 0.0
C573 C 0.89115 0.44124 0.15613 0.0
C574 C 0.90338 0.50026 0.1157 0.0
C575 C 0.9267 0.50777 0.14232 0.0
loop_
_geom_bond_atom_site_label_1
_geom_bond_atom_site_label_2
_geom_bond_distance
_geom_bond_site_symmetry_2
_ccdc_geom_bond_type
H0 C6 0.930 . S
H1 C9 0.931 . S
H2 C11 0.931 . S
H3 C13 0.930 . S
H4 C15 0.930 . S
H5 C17 0.931 . S
C6 H0 0.930 . S
C6 C7 1.380 . S
C6 C8 1.394 . S
C7 C6 1.380 . S
C7 C11 1.382 . S
C8 C6 1.394 . S
C8 C9 1.400 . S
C9 H1 0.931 . S
C9 C8 1.400 . S
C9 C10 1.375 . S
C10 C9 1.375 . S
C10 C11 1.415 . S
C10 C12 1.501 1_455 S
C11 H2 0.931 . S
C11 C7 1.382 . S
C11 C10 1.415 . S
C12 C10 1.501 1_655 S
C12 C13 1.384 . S
C12 C17 1.408 . S
C13 H3 0.930 . S
C13 C12 1.384 . S
C13 C14 1.389 . S
C14 C13 1.389 . S
C14 C15 1.405 . S
C15 H4 0.930 . S
C15 C14 1.405 . S
C15 C16 1.364 . S
C16 C15 1.364 . S
C16 C17 1.400 . S
C17 H5 0.931 . S
C17 C12 1.408 . S
C17 C16 1.400 . S
H18 C24 0.930 . S
H19 C27 0.931 . S
H20 C29 0.931 . S
H21 C31 0.930 . S
H22 C33 0.930 . S
H23 C35 0.939 . S
C24 H18 0.930 . S
C24 C25 1.380 . S
C24 C26 1.394 . S
C25 C24 1.380 . S
C25 C29 1.382 . S
C26 C24 1.394 . S
C26 C27 1.400 . S
C27 H19 0.931 . S
C27 C26 1.400 . S
C27 C28 1.375 . S
C28 C27 1.375 . S
C28 C29 1.415 . S
C28 C30 1.501 1_545 S
C29 H20 0.931 . S
C29 C25 1.382 . S
C29 C28 1.415 . S
C30 C28 1.501 1_565 S
C30 C31 1.384 . S
C30 C35 1.408 . S
C31 H21 0.930 . S
C31 C30 1.384 . S
C31 C32 1.389 . S
C32 C31 1.389 . S
C32 C33 1.405 . S
C33 H22 0.930 . S
C33 C32 1.405 . S
C33 C34 1.364 . S
C34 C33 1.364 . S
C34 C35 1.400 . S
C35 H23 0.939 . S
C35 C30 1.408 . S
C35 C34 1.400 . S
H36 C42 0.930 . S
H37 C45 0.931 . S
H38 C47 0.931 . S
H39 C49 0.930 . S
H40 C51 0.930 . S
H41 C53 0.931 . S
C42 H36 0.930 . S
C42 C43 1.380 . S
C42 C44 1.394 . S
C43 C42 1.380 . S
C43 C47 1.382 . S
C44 C42 1.394 . S
C44 C45 1.400 . S
C45 H37 0.931 . S
C45 C44 1.400 . S
C45 C46 1.375 . S
C46 C45 1.375 . S
C46 C47 1.415 . S
C46 C48 1.501 . S
C47 H38 0.931 . S
C47 C43 1.382 . S
C47 C46 1.415 . S
C48 C46 1.501 . S
C48 C49 1.384 . S
C48 C53 1.408 . S
C49 H39 0.930 . S
C49 C48 1.384 . S
C49 C50 1.389 . S
C50 C49 1.389 . S
C50 C51 1.405 . S
C51 H40 0.930 . S
C51 C50 1.405 . S
C51 C52 1.364 . S
C52 C51 1.364 . S
C52 C53 1.400 . S
C53 H41 0.931 . S
C53 C48 1.408 . S
C53 C52 1.400 . S
H54 C60 0.930 . S
H55 C63 0.931 . S
H56 C65 0.931 . S
H57 C67 0.930 . S
H58 C69 0.930 . S
H59 C71 0.931 . S
C60 H54 0.930 . S
C60 C61 1.380 . S
C60 C62 1.394 . S
C61 C60 1.380 . S
C61 C65 1.382 . S
C62 C60 1.394 . S
C62 C63 1.400 . S
C63 H55 0.931 . S
C63 C62 1.400 . S
C63 C64 1.375 . S
C64 C63 1.375 . S
C64 C65 1.415 . S
C64 C66 1.501 1_455 S
C65 H56 0.931 . S
C65 C61 1.382 . S
C65 C64 1.415 . S
C66 C64 1.501 1_655 S
C66 C67 1.384 . S
C66 C71 1.408 . S
C67 H57 0.930 . S
C67 C66 1.384 . S
C67 C68 1.389 . S
C68 C67 1.389 . S
C68 C69 1.405 . S
C69 H58 0.930 . S
C69 C68 1.405 . S
C69 C70 1.364 . S
C70 C69 1.364 . S
C70 C71 1.400 . S
C71 H59 0.931 . S
C71 C66 1.408 . S
C71 C70 1.400 . S
H72 C78 0.930 . S
H73 C81 0.931 . S
H74 C83 0.931 . S
H75 C85 0.930 . S
H76 C87 0.930 . S
H77 C89 0.931 . S
C78 H72 0.930 . S
C78 C79 1.380 . S
C78 C80 1.394 1_554 S
C79 C78 1.380 . S
C79 C83 1.382 . S
C80 C78 1.394 1_556 S
C80 C81 1.400 . S
C81 H73 0.931 . S
C81 C80 1.400 . S
C81 C82 1.375 . S
C82 C81 1.375 . S
C82 C83 1.415 1_556 S
C82 C84 1.501 1_565 S
C83 H74 0.931 . S
C83 C79 1.382 . S
C83 C82 1.415 1_554 S
C84 C82 1.501 1_545 S
C84 C85 1.384 1_556 S
C84 C89 1.408 . S
C85 H75 0.930 . S
C85 C84 1.384 1_554 S
C85 C86 1.387 1_554 S
C86 C85 1.387 1_556 S
C86 C87 1.413 . S
C87 H76 0.930 . S
C87 C86 1.413 . S
C87 C88 1.364 . S
C88 C87 1.364 . S
C88 C89 1.400 . S
C89 H77 0.931 . S
C89 C84 1.408 . S
C89 C88 1.400 . S
H90 C96 0.930 . S
H91 C99 0.931 . S
H92 C101 0.931 . S
H93 C103 0.930 . S
H94 C105 0.930 . S
H95 C107 0.931 . S
C96 H90 0.930 . S
C96 C97 1.380 . S
C96 C98 1.394 . S
C97 C96 1.380 . S
C97 C101 1.382 . S
C98 C96 1.394 . S
C98 C99 1.400 . S
C99 H91 0.931 . S
C99 C98 1.400 . S
C99 C100 1.375 . S
C100 C99 1.375 . S
C100 C101 1.415 . S
C100 C102 1.501 . S
C101 H92 0.931 . S
C101 C97 1.382 . S
C101 C100 1.415 . S
C102 C100 1.501 . S
C102 C103 1.384 . S
C102 C107 1.408 . S
C103 H93 0.930 . S
C103 C102 1.384 . S
C103 C104 1.389 . S
C104 C103 1.389 . S
C104 C105 1.405 . S
C105 H94 0.930 . S
C105 C104 1.405 . S
C105 C106 1.364 . S
C106 C105 1.364 . S
C106 C107 1.400 . S
C107 H95 0.931 . S
C107 C102 1.408 . S
C107 C106 1.400 . S
C108 O109 1.306 . S
C108 O111 1.160 . S
O109 C108 1.306 . S
O109 Cd110 2.228 . S
Cd110 O109 2.228 . S
Cd110 O114 2.273 . S
Cd110 O118 2.277 . S
O111 C108 1.160 . S
O111 Cd112 2.203 . S
Cd112 O111 2.203 . S
Cd112 O114 2.411 . S
Cd112 O115 2.333 . S
Cd112 O116 2.352 . S
Cd112 O120 2.277 . S
Cd112 O121 2.356 . S
C113 O118 1.209 . S
C113 O120 1.226 . S
O114 Cd110 2.273 . S
O114 Cd112 2.411 . S
O114 C117 1.320 . S
O115 Cd112 2.333 . S
O115 C117 1.214 . S
O116 Cd112 2.352 . S
O116 C119 1.258 . S
C117 O114 1.320 . S
C117 O115 1.214 . S
O118 Cd110 2.277 . S
O118 C113 1.209 . S
C119 O116 1.258 . S
C119 O121 1.282 . S
O120 Cd112 2.277 . S
O120 C113 1.226 . S
O121 Cd112 2.356 . S
O121 C119 1.282 . S
C122 O123 1.306 . S
C122 O125 1.160 . S
O123 C122 1.306 . S
O123 Cd124 2.228 . S
Cd124 O123 2.228 . S
Cd124 O128 2.273 . S
Cd124 O132 2.277 . S
O125 C122 1.160 . S
O125 Cd126 2.203 . S
Cd126 O125 2.203 . S
Cd126 O128 2.411 . S
Cd126 O129 2.333 . S
Cd126 O130 2.352 . S
Cd126 O134 2.277 . S
Cd126 O135 2.356 . S
C127 O132 1.209 . S
C127 O134 1.226 . S
O128 Cd124 2.273 . S
O128 Cd126 2.411 . S
O128 C131 1.320 . S
O129 Cd126 2.333 . S
O129 C131 1.214 . S
O130 Cd126 2.352 . S
O130 C133 1.258 . S
C131 O128 1.320 . S
C131 O129 1.214 . S
O132 Cd124 2.277 . S
O132 C127 1.209 . S
C133 O130 1.258 . S
C133 O135 1.282 . S
O134 Cd126 2.277 . S
O134 C127 1.226 . S
O135 Cd126 2.356 . S
O135 C133 1.282 . S
C136 O137 1.306 . S
C136 O139 1.160 . S
O137 C136 1.306 . S
O137 Cd138 2.228 . S
Cd138 O137 2.228 . S
Cd138 O142 2.273 . S
Cd138 O146 2.277 . S
O139 C136 1.160 . S
O139 Cd140 2.203 . S
Cd140 O139 2.203 . S
Cd140 O142 2.411 . S
Cd140 O143 2.333 . S
Cd140 O144 2.352 . S
Cd140 O148 2.277 . S
Cd140 O149 2.356 . S
C141 O146 1.209 . S
C141 O148 1.226 . S
O142 Cd138 2.273 . S
O142 Cd140 2.411 . S
O142 C145 1.320 . S
O143 Cd140 2.333 . S
O143 C145 1.214 . S
O144 Cd140 2.352 . S
O144 C147 1.258 . S
C145 O142 1.320 . S
C145 O143 1.214 . S
O146 Cd138 2.277 . S
O146 C141 1.209 . S
C147 O144 1.258 . S
C147 O149 1.282 . S
O148 Cd140 2.277 . S
O148 C141 1.226 . S
O149 Cd140 2.356 . S
O149 C147 1.282 . S
C150 O151 1.306 . S
C150 O153 1.160 . S
O151 C150 1.306 . S
O151 Cd152 2.228 . S
Cd152 O151 2.228 . S
Cd152 O156 2.273 . S
Cd152 O160 2.277 . S
O153 C150 1.160 . S
O153 Cd154 2.203 . S
Cd154 O153 2.203 . S
Cd154 O156 2.411 . S
Cd154 O157 2.333 . S
Cd154 O158 2.352 . S
Cd154 O162 2.277 . S
Cd154 O163 2.356 . S
C155 O160 1.209 . S
C155 O162 1.226 . S
O156 Cd152 2.273 . S
O156 Cd154 2.411 . S
O156 C159 1.320 . S
O157 Cd154 2.333 . S
O157 C159 1.214 . S
O158 Cd154 2.352 . S
O158 C161 1.258 . S
C159 O156 1.320 . S
C159 O157 1.214 . S
O160 Cd152 2.277 . S
O160 C155 1.209 . S
C161 O158 1.258 . S
C161 O163 1.282 . S
O162 Cd154 2.277 . S
O162 C155 1.226 . S
O163 Cd154 2.356 . S
O163 C161 1.282 . S
C164 O165 1.306 . S
C164 O167 1.160 . S
O165 C164 1.306 . S
O165 Cd166 2.228 . S
Cd166 O165 2.228 . S
Cd166 O170 2.273 . S
Cd166 O174 2.277 . S
O167 C164 1.160 . S
O167 Cd168 2.203 . S
Cd168 O167 2.203 . S
Cd168 O170 2.411 . S
Cd168 O171 2.333 . S
Cd168 O172 2.352 . S
Cd168 O176 2.277 . S
Cd168 O177 2.356 . S
C169 O174 1.209 . S
C169 O176 1.226 . S
O170 Cd166 2.273 . S
O170 Cd168 2.411 . S
O170 C173 1.320 . S
O171 Cd168 2.333 . S
O171 C173 1.214 . S
O172 Cd168 2.352 . S
O172 C175 1.258 . S
C173 O170 1.320 . S
C173 O171 1.214 . S
O174 Cd166 2.277 . S
O174 C169 1.209 . S
C175 O172 1.258 . S
C175 O177 1.282 . S
O176 Cd168 2.277 . S
O176 C169 1.226 . S
O177 Cd168 2.356 . S
O177 C175 1.282 . S
C178 O179 1.306 . S
C178 O181 1.160 . S
O179 C178 1.306 . S
O179 Cd180 2.228 . S
Cd180 O179 2.228 . S
Cd180 O184 2.273 . S
Cd180 O188 2.277 . S
O181 C178 1.160 . S
O181 Cd182 2.203 . S
Cd182 O181 2.203 . S
Cd182 O184 2.411 . S
Cd182 O185 2.333 . S
Cd182 O186 2.352 . S
Cd182 O190 2.277 . S
Cd182 O191 2.356 . S
C183 O188 1.209 . S
C183 O190 1.226 . S
O184 Cd180 2.273 . S
O184 Cd182 2.411 . S
O184 C187 1.320 . S
O185 Cd182 2.333 . S
O185 C187 1.214 . S
O186 Cd182 2.352 . S
O186 C189 1.258 . S
C187 O184 1.320 . S
C187 O185 1.214 . S
O188 Cd180 2.277 . S
O188 C183 1.209 . S
C189 O186 1.258 . S
C189 O191 1.282 . S
O190 Cd182 2.277 . S
O190 C183 1.226 . S
O191 Cd182 2.356 . S
O191 C189 1.282 . S
H192 C198 0.930 . S
H193 C201 0.930 . S
H194 C202 0.930 . S
H195 C203 0.930 . S
H196 C206 0.930 . S
H197 C207 0.930 . S
C198 H192 0.930 . S
C198 C199 1.355 . S
C198 C200 1.415 . S
C199 C198 1.355 . S
C199 C201 1.419 . S
C200 C198 1.415 . S
C200 C205 1.425 . S
C200 C207 1.409 . S
C201 H193 0.930 . S
C201 C199 1.419 . S
C201 C202 1.362 . S
C202 H194 0.930 . S
C202 C201 1.362 . S
C202 C205 1.409 . S
C203 H195 0.930 . S
C203 C204 1.355 . S
C203 C205 1.415 . S
C204 C203 1.355 . S
C204 C206 1.419 . S
C205 C200 1.425 . S
C205 C202 1.409 . S
C205 C203 1.415 . S
C206 H196 0.930 . S
C206 C204 1.419 . S
C206 C207 1.362 . S
C207 H197 0.930 . S
C207 C200 1.409 . S
C207 C206 1.362 . S
H208 C214 0.930 . S
H209 C217 0.930 . S
H210 C218 0.930 . S
H211 C219 0.930 . S
H212 C222 0.930 . S
H213 C223 0.930 . S
C214 H208 0.930 . S
C214 C215 1.355 . S
C214 C216 1.415 . S
C215 C214 1.355 . S
C215 C217 1.419 . S
C216 C214 1.415 . S
C216 C221 1.425 . S
C216 C223 1.409 . S
C217 H209 0.930 . S
C217 C215 1.419 . S
C217 C218 1.362 . S
C218 H210 0.930 . S
C218 C217 1.362 . S
C218 C221 1.409 . S
C219 H211 0.930 . S
C219 C220 1.355 . S
C219 C221 1.415 . S
C220 C219 1.355 . S
C220 C222 1.419 . S
C221 C216 1.425 . S
C221 C218 1.409 . S
C221 C219 1.415 . S
C222 H212 0.930 . S
C222 C220 1.419 . S
C222 C223 1.362 . S
C223 H213 0.930 . S
C223 C216 1.409 . S
C223 C222 1.362 . S
H224 C230 0.930 . S
H225 C233 0.930 . S
H226 C234 0.930 . S
H227 C235 0.930 . S
H228 C238 0.930 . S
H229 C239 0.930 . S
C230 H224 0.930 . S
C230 C231 1.355 . S
C230 C232 1.415 . S
C231 C230 1.355 . S
C231 C233 1.419 . S
C232 C230 1.415 . S
C232 C237 1.425 . S
C232 C239 1.409 . S
C233 H225 0.930 . S
C233 C231 1.419 . S
C233 C234 1.362 . S
C234 H226 0.930 . S
C234 C233 1.362 . S
C234 C237 1.409 . S
C235 H227 0.930 . S
C235 C236 1.355 . S
C235 C237 1.415 . S
C236 C235 1.355 . S
C236 C238 1.419 . S
C237 C232 1.425 . S
C237 C234 1.409 . S
C237 C235 1.415 . S
C238 H228 0.930 . S
C238 C236 1.419 . S
C238 C239 1.362 . S
C239 H229 0.930 . S
C239 C232 1.409 . S
C239 C238 1.362 . S
H240 C246 0.930 . S
H241 C249 0.930 . S
H242 C250 0.930 . S
H243 C251 0.930 . S
H244 C254 0.930 . S
H245 C255 0.930 . S
C246 H240 0.930 . S
C246 C247 1.355 . S
C246 C248 1.415 . S
C247 C246 1.355 . S
C247 C249 1.419 . S
C248 C246 1.415 . S
C248 C253 1.425 . S
C248 C255 1.409 . S
C249 H241 0.930 . S
C249 C247 1.419 . S
C249 C250 1.362 . S
C250 H242 0.930 . S
C250 C249 1.362 . S
C250 C253 1.409 . S
C251 H243 0.930 . S
C251 C252 1.355 . S
C251 C253 1.415 . S
C252 C251 1.355 . S
C252 C254 1.419 . S
C253 C248 1.425 . S
C253 C250 1.409 . S
C253 C251 1.415 . S
C254 H244 0.930 . S
C254 C252 1.419 . S
C254 C255 1.362 . S
C255 H245 0.930 . S
C255 C248 1.409 . S
C255 C254 1.362 . S
H256 C262 0.930 . S
H257 C265 0.930 . S
H258 C266 0.930 . S
H259 C267 0.930 . S
H260 C270 0.930 . S
H261 C271 0.930 . S
C262 H256 0.930 . S
C262 C263 1.355 . S
C262 C264 1.415 . S
C263 C262 1.355 . S
C263 C265 1.419 . S
C264 C262 1.415 . S
C264 C269 1.425 . S
C264 C271 1.409 . S
C265 H257 0.930 . S
C265 C263 1.419 . S
C265 C266 1.362 . S
C266 H258 0.930 . S
C266 C265 1.362 . S
C266 C269 1.409 . S
C267 H259 0.930 . S
C267 C268 1.355 . S
C267 C269 1.415 . S
C268 C267 1.355 . S
C268 C270 1.419 . S
C269 C264 1.425 . S
C269 C266 1.409 . S
C269 C267 1.415 . S
C270 H260 0.930 . S
C270 C268 1.419 . S
C270 C271 1.362 . S
C271 H261 0.930 . S
C271 C264 1.409 . S
C271 C270 1.362 . S
H272 C278 0.930 . S
H273 C281 0.930 . S
H274 C282 0.930 . S
H275 C283 0.930 . S
H276 C286 0.930 . S
H277 C287 0.930 . S
C278 H272 0.930 . S
C278 C279 1.355 . S
C278 C280 1.415 . S
C279 C278 1.355 . S
C279 C281 1.419 . S
C280 C278 1.415 . S
C280 C285 1.425 . S
C280 C287 1.409 . S
C281 H273 0.930 . S
C281 C279 1.419 . S
C281 C282 1.362 . S
C282 H274 0.930 . S
C282 C281 1.362 . S
C282 C285 1.409 . S
C283 H275 0.930 . S
C283 C284 1.355 . S
C283 C285 1.415 . S
C284 C283 1.355 . S
C284 C286 1.419 . S
C285 C280 1.425 . S
C285 C282 1.409 . S
C285 C283 1.415 . S
C286 H276 0.930 . S
C286 C284 1.419 . S
C286 C287 1.362 . S
C287 H277 0.930 . S
C287 C280 1.409 . S
C287 C286 1.362 . S
H288 C294 0.930 . S
H289 C297 0.930 . S
H290 C298 0.930 . S
H291 C299 0.930 . S
H292 C302 0.930 . S
H293 C303 0.930 . S
C294 H288 0.930 . S
C294 C295 1.355 . S
C294 C296 1.415 . S
C295 C294 1.355 . S
C295 C297 1.419 . S
C296 C294 1.415 . S
C296 C301 1.425 . S
C296 C303 1.409 . S
C297 H289 0.930 . S
C297 C295 1.419 . S
C297 C298 1.362 . S
C298 H290 0.930 . S
C298 C297 1.362 . S
C298 C301 1.409 . S
C299 H291 0.930 . S
C299 C300 1.355 . S
C299 C301 1.415 . S
C300 C299 1.355 . S
C300 C302 1.419 . S
C301 C296 1.425 . S
C301 C298 1.409 . S
C301 C299 1.415 . S
C302 H292 0.930 . S
C302 C300 1.419 . S
C302 C303 1.362 . S
C303 H293 0.930 . S
C303 C296 1.409 . S
C303 C302 1.362 . S
H304 C310 0.930 . S
H305 C313 0.930 . S
H306 C314 0.930 . S
H307 C315 0.930 . S
H308 C318 0.930 . S
H309 C319 0.930 . S
C310 H304 0.930 . S
C310 C311 1.355 . S
C310 C312 1.415 . S
C311 C310 1.355 . S
C311 C313 1.419 . S
C312 C310 1.415 . S
C312 C317 1.425 . S
C312 C319 1.409 . S
C313 H305 0.930 . S
C313 C311 1.419 . S
C313 C314 1.362 . S
C314 H306 0.930 . S
C314 C313 1.362 . S
C314 C317 1.409 . S
C315 H307 0.930 . S
C315 C316 1.355 . S
C315 C317 1.415 . S
C316 C315 1.355 . S
C316 C318 1.419 . S
C317 C312 1.425 . S
C317 C314 1.409 . S
C317 C315 1.415 . S
C318 H308 0.930 . S
C318 C316 1.419 . S
C318 C319 1.362 . S
C319 H309 0.930 . S
C319 C312 1.409 . S
C319 C318 1.362 . S
H320 C326 0.930 . S
H321 C329 0.930 . S
H322 C330 0.930 . S
H323 C331 0.930 . S
H324 C334 0.930 . S
H325 C335 0.930 . S
C326 H320 0.930 . S
C326 C327 1.355 . S
C326 C328 1.415 . S
C327 C326 1.355 . S
C327 C329 1.419 . S
C328 C326 1.415 . S
C328 C333 1.425 . S
C328 C335 1.409 . S
C329 H321 0.930 . S
C329 C327 1.419 . S
C329 C330 1.362 . S
C330 H322 0.930 . S
C330 C329 1.362 . S
C330 C333 1.409 . S
C331 H323 0.930 . S
C331 C332 1.355 . S
C331 C333 1.415 . S
C332 C331 1.355 . S
C332 C334 1.419 . S
C333 C328 1.425 . S
C333 C330 1.409 . S
C333 C331 1.415 . S
C334 H324 0.930 . S
C334 C332 1.419 . S
C334 C335 1.362 . S
C335 H325 0.930 . S
C335 C328 1.409 . S
C335 C334 1.362 . S
H336 C342 0.930 . S
H337 C345 0.930 . S
H338 C346 0.930 . S
H339 C347 0.930 . S
H340 C350 0.930 . S
H341 C351 0.930 . S
C342 H336 0.930 . S
C342 C343 1.355 . S
C342 C344 1.415 . S
C343 C342 1.355 . S
C343 C345 1.419 1_554 S
C344 C342 1.415 . S
C344 C349 1.425 . S
C344 C351 1.409 . S
C345 H337 0.930 . S
C345 C343 1.419 1_556 S
C345 C346 1.362 . S
C346 H338 0.930 . S
C346 C345 1.362 . S
C346 C349 1.409 1_556 S
C347 H339 0.930 . S
C347 C348 1.355 . S
C347 C349 1.415 . S
C348 C347 1.355 . S
C348 C350 1.419 . S
C349 C344 1.425 . S
C349 C346 1.409 1_554 S
C349 C347 1.415 . S
C350 H340 0.930 . S
C350 C348 1.419 . S
C350 C351 1.362 . S
C351 H341 0.930 . S
C351 C344 1.409 . S
C351 C350 1.362 . S
H352 C358 0.930 . S
H353 C361 0.930 . S
H354 C362 0.930 . S
H355 C363 0.930 . S
H356 C366 0.930 . S
H357 C367 0.930 . S
C358 H352 0.930 . S
C358 C359 1.355 . S
C358 C360 1.415 . S
C359 C358 1.355 . S
C359 C361 1.419 . S
C360 C358 1.415 . S
C360 C365 1.425 . S
C360 C367 1.409 . S
C361 H353 0.930 . S
C361 C359 1.419 . S
C361 C362 1.362 . S
C362 H354 0.930 . S
C362 C361 1.362 . S
C362 C365 1.409 . S
C363 H355 0.930 . S
C363 C364 1.355 . S
C363 C365 1.415 . S
C364 C363 1.355 . S
C364 C366 1.419 . S
C365 C360 1.425 . S
C365 C362 1.409 . S
C365 C363 1.415 . S
C366 H356 0.930 . S
C366 C364 1.419 . S
C366 C367 1.362 . S
C367 H357 0.930 . S
C367 C360 1.409 . S
C367 C366 1.362 . S
H368 C374 0.930 . S
H369 C377 0.930 . S
H370 C378 0.930 . S
H371 C379 0.930 . S
H372 C382 0.930 . S
H373 C383 0.930 . S
C374 H368 0.930 . S
C374 C375 1.355 . S
C374 C376 1.415 . S
C375 C374 1.355 . S
C375 C377 1.419 . S
C376 C374 1.415 . S
C376 C381 1.425 . S
C376 C383 1.409 . S
C377 H369 0.930 . S
C377 C375 1.419 . S
C377 C378 1.362 . S
C378 H370 0.930 . S
C378 C377 1.362 . S
C378 C381 1.409 . S
C379 H371 0.930 . S
C379 C380 1.355 . S
C379 C381 1.415 . S
C380 C379 1.355 . S
C380 C382 1.419 . S
C381 C376 1.425 . S
C381 C378 1.409 . S
C381 C379 1.415 . S
C382 H372 0.930 . S
C382 C380 1.419 . S
C382 C383 1.362 . S
C383 H373 0.930 . S
C383 C376 1.409 . S
C383 C382 1.362 . S
H384 C390 0.930 . S
H385 C393 0.930 . S
H386 C394 0.930 . S
H387 C395 0.930 . S
H388 C398 0.930 . S
H389 C399 0.930 . S
C390 H384 0.930 . S
C390 C391 1.355 . S
C390 C392 1.415 . S
C391 C390 1.355 . S
C391 C393 1.419 . S
C392 C390 1.415 . S
C392 C397 1.425 . S
C392 C399 1.409 . S
C393 H385 0.930 . S
C393 C391 1.419 . S
C393 C394 1.362 . S
C394 H386 0.930 . S
C394 C393 1.362 . S
C394 C397 1.409 . S
C395 H387 0.930 . S
C395 C396 1.355 . S
C395 C397 1.415 . S
C396 C395 1.355 . S
C396 C398 1.419 . S
C397 C392 1.425 . S
C397 C394 1.409 . S
C397 C395 1.415 . S
C398 H388 0.930 . S
C398 C396 1.419 . S
C398 C399 1.362 . S
C399 H389 0.930 . S
C399 C392 1.409 . S
C399 C398 1.362 . S
H400 C406 0.930 . S
H401 C409 0.930 . S
H402 C410 0.930 . S
H403 C411 0.930 . S
H404 C414 0.930 . S
H405 C415 0.930 . S
C406 H400 0.930 . S
C406 C407 1.355 . S
C406 C408 1.415 . S
C407 C406 1.355 . S
C407 C409 1.419 . S
C408 C406 1.415 . S
C408 C413 1.425 . S
C408 C415 1.409 . S
C409 H401 0.930 . S
C409 C407 1.419 . S
C409 C410 1.362 . S
C410 H402 0.930 . S
C410 C409 1.362 . S
C410 C413 1.409 . S
C411 H403 0.930 . S
C411 C412 1.355 . S
C411 C413 1.415 . S
C412 C411 1.355 . S
C412 C414 1.419 . S
C413 C408 1.425 . S
C413 C410 1.409 . S
C413 C411 1.415 . S
C414 H404 0.930 . S
C414 C412 1.419 . S
C414 C415 1.362 . S
C415 H405 0.930 . S
C415 C408 1.409 . S
C415 C414 1.362 . S
H416 C422 0.930 . S
H417 C425 0.930 . S
H418 C426 0.930 . S
H419 C427 0.930 . S
H420 C430 0.930 . S
H421 C431 0.930 . S
C422 H416 0.930 . S
C422 C423 1.355 . S
C422 C424 1.415 . S
C423 C422 1.355 . S
C423 C425 1.419 . S
C424 C422 1.415 . S
C424 C429 1.425 . S
C424 C431 1.409 . S
C425 H417 0.930 . S
C425 C423 1.419 . S
C425 C426 1.362 . S
C426 H418 0.930 . S
C426 C425 1.362 . S
C426 C429 1.409 . S
C427 H419 0.930 . S
C427 C428 1.355 . S
C427 C429 1.415 . S
C428 C427 1.355 . S
C428 C430 1.419 . S
C429 C424 1.425 . S
C429 C426 1.409 . S
C429 C427 1.415 . S
C430 H420 0.930 . S
C430 C428 1.419 . S
C430 C431 1.362 . S
C431 H421 0.930 . S
C431 C424 1.409 . S
C431 C430 1.362 . S
H432 C438 0.930 . S
H433 C441 0.930 . S
H434 C442 0.930 . S
H435 C443 0.930 1_554 S
H436 C446 0.930 . S
H437 C447 0.930 . S
C438 H432 0.930 . S
C438 C439 1.355 . S
C438 C440 1.415 . S
C439 C438 1.355 . S
C439 C441 1.419 . S
C440 C438 1.415 . S
C440 C445 1.425 . S
C440 C447 1.409 . S
C441 H433 0.930 . S
C441 C439 1.419 . S
C441 C442 1.362 . S
C442 H434 0.930 . S
C442 C441 1.362 . S
C442 C445 1.409 . S
C443 H435 0.930 1_556 S
C443 C444 1.355 . S
C443 C445 1.415 . S
C444 C443 1.355 . S
C444 C446 1.419 . S
C445 C440 1.425 . S
C445 C442 1.409 . S
C445 C443 1.415 . S
C446 H436 0.930 . S
C446 C444 1.419 . S
C446 C447 1.362 . S
C447 H437 0.930 . S
C447 C440 1.409 . S
C447 C446 1.362 . S
H448 C454 0.930 . S
H449 C457 0.930 . S
H450 C458 0.930 . S
H451 C459 0.930 . S
H452 C462 0.930 . S
H453 C463 0.930 . S
C454 H448 0.930 . S
C454 C455 1.355 . S
C454 C456 1.415 . S
C455 C454 1.355 . S
C455 C457 1.419 . S
C456 C454 1.415 . S
C456 C461 1.425 . S
C456 C463 1.409 . S
C457 H449 0.930 . S
C457 C455 1.419 . S
C457 C458 1.362 . S
C458 H450 0.930 . S
C458 C457 1.362 . S
C458 C461 1.409 . S
C459 H451 0.930 . S
C459 C460 1.355 . S
C459 C461 1.415 . S
C460 C459 1.355 . S
C460 C462 1.419 . S
C461 C456 1.425 . S
C461 C458 1.409 . S
C461 C459 1.415 . S
C462 H452 0.930 . S
C462 C460 1.419 . S
C462 C463 1.362 . S
C463 H453 0.930 . S
C463 C456 1.409 . S
C463 C462 1.362 . S
H464 C470 0.930 . S
H465 C473 0.930 . S
H466 C474 0.930 . S
H467 C475 0.930 . S
H468 C478 0.930 . S
H469 C479 0.930 . S
C470 H464 0.930 . S
C470 C471 1.355 . S
C470 C472 1.415 . S
C471 C470 1.355 . S
C471 C473 1.419 . S
C472 C470 1.415 . S
C472 C477 1.425 . S
C472 C479 1.409 . S
C473 H465 0.930 . S
C473 C471 1.419 . S
C473 C474 1.362 . S
C474 H466 0.930 . S
C474 C473 1.362 . S
C474 C477 1.409 . S
C475 H467 0.930 . S
C475 C476 1.355 . S
C475 C477 1.415 . S
C476 C475 1.355 . S
C476 C478 1.419 . S
C477 C472 1.425 . S
C477 C474 1.409 . S
C477 C475 1.415 . S
C478 H468 0.930 . S
C478 C476 1.419 . S
C478 C479 1.362 . S
C479 H469 0.930 . S
C479 C472 1.409 . S
C479 C478 1.362 . S
H480 C486 0.930 . S
H481 C489 0.930 . S
H482 C490 0.930 . S
H483 C491 0.930 . S
H484 C494 0.930 . S
H485 C495 0.930 . S
C486 H480 0.930 . S
C486 C487 1.355 . S
C486 C488 1.415 . S
C487 C486 1.355 . S
C487 C489 1.419 . S
C488 C486 1.415 . S
C488 C493 1.425 . S
C488 C495 1.409 . S
C489 H481 0.930 . S
C489 C487 1.419 . S
C489 C490 1.362 . S
C490 H482 0.930 . S
C490 C489 1.362 . S
C490 C493 1.409 . S
C491 H483 0.930 . S
C491 C492 1.355 . S
C491 C493 1.415 . S
C492 C491 1.355 . S
C492 C494 1.419 . S
C493 C488 1.425 . S
C493 C490 1.409 . S
C493 C491 1.415 . S
C494 H484 0.930 . S
C494 C492 1.419 . S
C494 C495 1.362 . S
C495 H485 0.930 . S
C495 C488 1.409 . S
C495 C494 1.362 . S
H496 C502 0.930 . S
H497 C505 0.930 . S
H498 C506 0.930 . S
H499 C507 0.930 . S
H500 C510 0.930 . S
H501 C511 0.930 . S
C502 H496 0.930 . S
C502 C503 1.355 . S
C502 C504 1.415 . S
C503 C502 1.355 . S
C503 C505 1.419 . S
C504 C502 1.415 . S
C504 C509 1.425 . S
C504 C511 1.409 . S
C505 H497 0.930 . S
C505 C503 1.419 . S
C505 C506 1.362 . S
C506 H498 0.930 . S
C506 C505 1.362 . S
C506 C509 1.409 . S
C507 H499 0.930 . S
C507 C508 1.355 . S
C507 C509 1.415 . S
C508 C507 1.355 . S
C508 C510 1.419 . S
C509 C504 1.425 . S
C509 C506 1.409 . S
C509 C507 1.415 . S
C510 H500 0.930 . S
C510 C508 1.419 . S
C510 C511 1.362 . S
C511 H501 0.930 . S
C511 C504 1.409 . S
C511 C510 1.362 . S
H512 C518 0.930 . S
H513 C521 0.930 . S
H514 C522 0.930 . S
H515 C523 0.930 . S
H516 C526 0.930 . S
H517 C527 0.930 . S
C518 H512 0.930 . S
C518 C519 1.355 . S
C518 C520 1.415 . S
C519 C518 1.355 . S
C519 C521 1.419 . S
C520 C518 1.415 . S
C520 C525 1.425 . S
C520 C527 1.409 . S
C521 H513 0.930 . S
C521 C519 1.419 . S
C521 C522 1.362 . S
C522 H514 0.930 . S
C522 C521 1.362 . S
C522 C525 1.409 . S
C523 H515 0.930 . S
C523 C524 1.355 . S
C523 C525 1.415 . S
C524 C523 1.355 . S
C524 C526 1.419 . S
C525 C520 1.425 . S
C525 C522 1.409 . S
C525 C523 1.415 . S
C526 H516 0.930 . S
C526 C524 1.419 . S
C526 C527 1.362 . S
C527 H517 0.930 . S
C527 C520 1.409 . S
C527 C526 1.362 . S
H528 C534 0.930 . S
H529 C537 0.930 . S
H530 C538 0.930 . S
H531 C539 0.930 . S
H532 C542 0.930 . S
H533 C543 0.930 . S
C534 H528 0.930 . S
C534 C535 1.355 . S
C534 C536 1.415 . S
C535 C534 1.355 . S
C535 C537 1.419 . S
C536 C534 1.415 . S
C536 C541 1.425 . S
C536 C543 1.409 . S
C537 H529 0.930 . S
C537 C535 1.419 . S
C537 C538 1.362 . S
C538 H530 0.930 . S
C538 C537 1.362 . S
C538 C541 1.409 . S
C539 H531 0.930 . S
C539 C540 1.355 . S
C539 C541 1.415 . S
C540 C539 1.355 . S
C540 C542 1.419 . S
C541 C536 1.425 . S
C541 C538 1.409 . S
C541 C539 1.415 . S
C542 H532 0.930 . S
C542 C540 1.419 . S
C542 C543 1.362 . S
C543 H533 0.930 . S
C543 C536 1.409 . S
C543 C542 1.362 . S
H544 C550 0.930 . S
H545 C553 0.930 . S
H546 C554 0.930 . S
H547 C555 0.930 . S
H548 C558 0.930 . S
H549 C559 0.930 . S
C550 H544 0.930 . S
C550 C551 1.355 . S
C550 C552 1.415 . S
C551 C550 1.355 . S
C551 C553 1.419 . S
C552 C550 1.415 . S
C552 C557 1.425 . S
C552 C559 1.409 1_554 S
C553 H545 0.930 . S
C553 C551 1.419 . S
C553 C554 1.362 . S
C554 H546 0.930 . S
C554 C553 1.362 . S
C554 C557 1.409 . S
C555 H547 0.930 . S
C555 C556 1.355 1_554 S
C555 C557 1.415 . S
C556 C555 1.355 1_556 S
C556 C558 1.419 . S
C557 C552 1.425 . S
C557 C554 1.409 . S
C557 C555 1.415 . S
C558 H548 0.930 . S
C558 C556 1.419 . S
C558 C559 1.362 . S
C559 H549 0.930 . S
C559 C552 1.409 1_556 S
C559 C558 1.362 . S
H560 C566 0.930 . S
H561 C569 0.930 . S
H562 C570 0.930 . S
H563 C571 0.930 . S
H564 C574 0.930 . S
H565 C575 0.930 . S
C566 H560 0.930 . S
C566 C567 1.355 . S
C566 C568 1.415 . S
C567 C566 1.355 . S
C567 C569 1.419 . S
C568 C566 1.415 . S
C568 C573 1.425 . S
C568 C575 1.409 . S
C569 H561 0.930 . S
C569 C567 1.419 . S
C569 C570 1.362 . S
C570 H562 0.930 . S
C570 C569 1.362 . S
C570 C573 1.409 . S
C571 H563 0.930 . S
C571 C572 1.355 . S
C571 C573 1.415 . S
C572 C571 1.355 . S
C572 C574 1.419 . S
C573 C568 1.425 . S
C573 C570 1.409 . S
C573 C571 1.415 . S
C574 H564 0.930 . S
C574 C572 1.419 . S
C574 C575 1.362 . S
C575 H565 0.930 . S
C575 C568 1.409 . S
C575 C574 1.362 . S
C204 C178 1.581 . S
C199 C8 1.528 . S
C215 C26 1.522 . S
C220 C119 1.561 . S
C231 C50 1.477 . S
C236 C122 1.567 . S
C247 C68 1.501 . S
C252 C136 1.582 . S
C268 C161 1.565 . S
C263 C80 1.546 . S
C279 C104 1.536 . S
C284 C164 1.549 . S
C295 C32 1.463 . S
C300 C133 1.552 . S
C311 C44 1.494 . S
C316 C147 1.562 . S
C327 C62 1.524 . S
C332 C150 1.534 . S
C348 C175 1.542 . S
C343 C86 1.459 1_554 S
C364 C189 1.563 . S
C359 C98 1.513 . S
C380 C108 1.538 . S
C375 C14 1.528 . S
C391 C7 1.463 . S
C396 C131 1.485 . S
C407 C25 1.423 . S
C412 C145 1.503 . S
C428 C155 1.501 . S
C423 C52 1.423 . S
C439 C70 1.479 . S
C444 C173 1.498 1_556 S
C460 C187 1.501 . S
C455 C79 1.487 . S
C476 C113 1.506 . S
C471 C106 1.471 . S
C492 C183 1.529 . S
C487 C34 1.504 . S
C503 C43 1.488 . S
C508 C117 1.516 . S
C524 C127 1.517 . S
C519 C61 1.461 . S
C535 C88 1.488 . S
C540 C141 1.527 . S
C551 C97 1.422 . S
C556 C159 1.512 . S
C567 C16 1.435 . S
C572 C169 1.514 . S
