# Generated by pormake.
# Topology zzz, (3,6)-cn, num edge types: 1
# Building blocks:
#     Node 0, Type 0, BuildingBlock: BELTOD_clean_linker_0, # of connection points: 3
#     Node 1, Type 0, BuildingBlock: BELTOD_clean_linker_0, # of connection points: 3
#     Node 2, Type 0, BuildingBlock: BELTOD_clean_linker_0, # of connection points: 3
#     Node 3, Type 0, BuildingBlock: BELTOD_clean_linker_0, # of connection points: 3
#     Node 4, Type 0, BuildingBlock: BELTOD_clean_linker_0, # of connection points: 3
#     Node 5, Type 0, BuildingBlock: BELTOD_clean_linker_0, # of connection points: 3
#     Node 6, Type 0, BuildingBlock: BELTOD_clean_linker_0, # of connection points: 3
#     Node 7, Type 0, BuildingBlock: BELTOD_clean_linker_0, # of connection points: 3
#     Node 8, Type 1, BuildingBlock: JUFBIX_clean_sbu_0, # of connection points: 6
#     Node 9, Type 1, BuildingBlock: JUFBIX_clean_sbu_0, # of connection points: 6
#     Node 10, Type 1, BuildingBlock: JUFBIX_clean_sbu_0, # of connection points: 6
#     Node 11, Type 1, BuildingBlock: JUFBIX_clean_sbu_0, # of connection points: 6
#     Edge 12, Type (0, 1), BuildingBlock: TEMPAE_clean_linker_10, # of connection points: 2
#     Edge 13, Type (0, 1), BuildingBlock: TEMPAE_clean_linker_10, # of connection points: 2
#     Edge 14, Type (0, 1), BuildingBlock: TEMPAE_clean_linker_10, # of connection points: 2
#     Edge 15, Type (0, 1), BuildingBlock: TEMPAE_clean_linker_10, # of connection points: 2
#     Edge 16, Type (0, 1), BuildingBlock: TEMPAE_clean_linker_10, # of connection points: 2
#     Edge 17, Type (0, 1), BuildingBlock: TEMPAE_clean_linker_10, # of connection points: 2
#     Edge 18, Type (0, 1), BuildingBlock: TEMPAE_clean_linker_10, # of connection points: 2
#     Edge 19, Type (0, 1), BuildingBlock: TEMPAE_clean_linker_10, # of connection points: 2
#     Edge 20, Type (0, 1), BuildingBlock: TEMPAE_clean_linker_10, # of connection points: 2
#     Edge 21, Type (0, 1), BuildingBlock: TEMPAE_clean_linker_10, # of connection points: 2
#     Edge 22, Type (0, 1), BuildingBlock: TEMPAE_clean_linker_10, # of connection points: 2
#     Edge 23, Type (0, 1), BuildingBlock: TEMPAE_clean_linker_10, # of connection points: 2
#     Edge 24, Type (0, 1), BuildingBlock: TEMPAE_clean_linker_10, # of connection points: 2
#     Edge 25, Type (0, 1), BuildingBlock: TEMPAE_clean_linker_10, # of connection points: 2
#     Edge 26, Type (0, 1), BuildingBlock: TEMPAE_clean_linker_10, # of connection points: 2
#     Edge 27, Type (0, 1), BuildingBlock: TEMPAE_clean_linker_10, # of connection points: 2
#     Edge 28, Type (0, 1), BuildingBlock: TEMPAE_clean_linker_10, # of connection points: 2
#     Edge 29, Type (0, 1), BuildingBlock: TEMPAE_clean_linker_10, # of connection points: 2
#     Edge 30, Type (0, 1), BuildingBlock: TEMPAE_clean_linker_10, # of connection points: 2
#     Edge 31, Type (0, 1), BuildingBlock: TEMPAE_clean_linker_10, # of connection points: 2
#     Edge 32, Type (0, 1), BuildingBlock: TEMPAE_clean_linker_10, # of connection points: 2
#     Edge 33, Type (0, 1), BuildingBlock: TEMPAE_clean_linker_10, # of connection points: 2
#     Edge 34, Type (0, 1), BuildingBlock: TEMPAE_clean_linker_10, # of connection points: 2
#     Edge 35, Type (0, 1), BuildingBlock: TEMPAE_clean_linker_10, # of connection points: 2
# Relax obj value: 0.263
# Max RMSD: 0.211
# Mean RMSD: 0.177
data_MOF--net-zzz--node1-JUFBIX_clean_sbu_0--node2-BELTOD_clean_linker_0--edge1-TEMPAE_clean_linker_10
_symmetry_space_group_name_H-M    P1
_symmetry_Int_Tables_number       1
_symmetry_cell_setting            triclinic
loop_
_symmetry_equiv_pos_as_xyz
'x, y, z'
_cell_length_a     54.461336
_cell_length_b     56.177806
_cell_length_c     21.378122
_cell_angle_alpha  82.461164
_cell_angle_beta   90.186595
_cell_angle_gamma 86.47786
loop_
_atom_site_label
_atom_site_type_symbol
_atom_site_fract_x
_atom_site_fract_y
_atom_site_fract_z
_atom_type_partial_charge
P0 P 0.76369 0.51922 0.32447 0.0
H1 H 0.76611 0.51729 0.4614 0.0
H2 H 0.79403 0.53524 0.52768 0.0
H3 H 0.81616 0.58309 0.36544 0.0
H4 H 0.78842 0.56451 0.29882 0.0
H5 H 0.72103 0.49372 0.29803 0.0
H6 H 0.68548 0.5044 0.22901 0.0
H7 H 0.70799 0.57719 0.18959 0.0
H8 H 0.74363 0.56644 0.2609 0.0
H9 H 0.80602 0.48467 0.3277 0.0
H10 H 0.7743 0.54407 0.19837 0.0
O11 O 0.7598 0.49285 0.36821 0.0
H12 H 0.84041 0.48025 0.2562 0.0
H13 H 0.80888 0.54042 0.12818 0.0
C14 C 0.77563 0.53913 0.37491 0.0
C15 C 0.7763 0.53219 0.44027 0.0
C16 C 0.79227 0.54264 0.47837 0.0
C17 C 0.8078 0.56028 0.45166 0.0
C18 C 0.80485 0.56918 0.38723 0.0
C19 C 0.78885 0.55866 0.34912 0.0
C20 C 0.73495 0.5293 0.28495 0.0
C21 C 0.71801 0.5122 0.27635 0.0
C22 C 0.6976 0.51834 0.23682 0.0
C23 C 0.69393 0.54165 0.20401 0.0
C24 C 0.71041 0.55909 0.21439 0.0
C25 C 0.73069 0.55299 0.25518 0.0
C26 C 0.78723 0.5143 0.2678 0.0
C27 C 0.80625 0.49655 0.28354 0.0
C28 C 0.82608 0.49426 0.24298 0.0
C29 C 0.82743 0.50997 0.18634 0.0
C30 C 0.80823 0.52769 0.17072 0.0
C31 C 0.78835 0.52982 0.21106 0.0
P32 P 0.06421 0.75336 0.29885 0.0
H33 H 0.07734 0.76189 0.42622 0.0
H34 H 0.05926 0.78953 0.49473 0.0
H35 H 0.99544 0.80314 0.37233 0.0
H36 H 0.01382 0.77577 0.30267 0.0
H37 H 0.0906 0.71465 0.2467 0.0
H38 H 0.07768 0.683 0.18936 0.0
H39 H 0.00174 0.7019 0.22902 0.0
H40 H 0.015 0.73392 0.28692 0.0
H41 H 0.09873 0.78999 0.25682 0.0
H42 H 0.02947 0.76756 0.19394 0.0
O43 O 0.09317 0.74716 0.32466 0.0
H44 H 0.0972 0.82305 0.16963 0.0
H45 H 0.02792 0.80038 0.10705 0.0
C46 C 0.04697 0.76659 0.35911 0.0
C47 C 0.05913 0.77016 0.41478 0.0
C48 C 0.04885 0.78608 0.45393 0.0
C49 C 0.02607 0.79859 0.4385 0.0
C50 C 0.01296 0.79358 0.3855 0.0
C51 C 0.02343 0.77782 0.3458 0.0
C52 C 0.05384 0.72649 0.27207 0.0
C53 C 0.07119 0.71156 0.24503 0.0
C54 C 0.06375 0.69339 0.21203 0.0
C55 C 0.03865 0.68983 0.20455 0.0
C56 C 0.02122 0.70426 0.23363 0.0
C57 C 0.02878 0.72245 0.26725 0.0
C58 C 0.06441 0.77609 0.23135 0.0
C59 C 0.08343 0.7919 0.2237 0.0
C60 C 0.08258 0.81073 0.17384 0.0
C61 C 0.06246 0.81422 0.1316 0.0
C62 C 0.04359 0.79816 0.1391 0.0
C63 C 0.04454 0.7793 0.1886 0.0
P64 P 0.75696 0.02109 0.23659 0.0
H65 H 0.75263 0.0331 0.36521 0.0
H66 H 0.7262 0.01751 0.4508 0.0
H67 H 0.71159 0.9575 0.35198 0.0
H68 H 0.7386 0.97295 0.26685 0.0
H69 H 0.80543 0.04047 0.22838 0.0
H70 H 0.84197 0.03037 0.16946 0.0
H71 H 0.80887 0.96718 0.12124 0.0
H72 H 0.77214 0.97733 0.18117 0.0
H73 H 0.70351 0.01968 0.24541 0.0
H74 H 0.7576 0.02429 0.0978 0.0
O75 O 0.7592 0.04976 0.24762 0.0
H76 H 0.67117 0.01808 0.16746 0.0
H77 H 0.72502 0.02287 0.01927 0.0
C78 C 0.74716 0.00444 0.30906 0.0
C79 C 0.74457 0.01608 0.36294 0.0
C80 C 0.7293 0.00723 0.41176 0.0
C81 C 0.71627 0.98667 0.4072 0.0
C82 C 0.72133 0.97341 0.3568 0.0
C83 C 0.73682 0.98222 0.3081 0.0
C84 C 0.78594 0.00983 0.20837 0.0
C85 C 0.80615 0.02415 0.20639 0.0
C86 C 0.82699 0.01845 0.17231 0.0
C87 C 0.82801 0.99829 0.1396 0.0
C88 C 0.80854 0.98286 0.14587 0.0
C89 C 0.7876 0.9886 0.18016 0.0
C90 C 0.73317 0.02091 0.1779 0.0
C91 C 0.70854 0.01995 0.1964 0.0
C92 C 0.69002 0.01909 0.15179 0.0
C93 C 0.6957 0.01982 0.08757 0.0
C94 C 0.72022 0.02202 0.06861 0.0
C95 C 0.73884 0.02264 0.11352 0.0
P96 P 0.44662 0.74496 0.21969 0.0
H97 H 0.43926 0.73895 0.35619 0.0
H98 H 0.46025 0.7121 0.44081 0.0
H99 H 0.51814 0.69558 0.31252 0.0
H100 H 0.49648 0.72186 0.22733 0.0
H101 H 0.41845 0.78596 0.15283 0.0
H102 H 0.42986 0.82282 0.08994 0.0
H103 H 0.50673 0.80153 0.12711 0.0
H104 H 0.49499 0.76508 0.19267 0.0
H105 H 0.41912 0.70215 0.22166 0.0
H106 H 0.47502 0.7368 0.10693 0.0
O107 O 0.41806 0.74947 0.24576 0.0
H108 H 0.42261 0.66807 0.16122 0.0
H109 H 0.47909 0.70263 0.04749 0.0
C110 C 0.46616 0.73227 0.28526 0.0
C111 C 0.45682 0.73013 0.34657 0.0
C112 C 0.46898 0.7148 0.3952 0.0
C113 C 0.49075 0.70137 0.3833 0.0
C114 C 0.50119 0.70532 0.32301 0.0
C115 C 0.48894 0.72057 0.27434 0.0
C116 C 0.45582 0.77294 0.17828 0.0
C117 C 0.43776 0.78938 0.14834 0.0
C118 C 0.44435 0.81034 0.11158 0.0
C119 C 0.46926 0.81511 0.10284 0.0
C120 C 0.48738 0.7986 0.13335 0.0
C121 C 0.48069 0.77768 0.1708 0.0
C122 C 0.44637 0.72225 0.16786 0.0
C123 C 0.4318 0.70263 0.18264 0.0
C124 C 0.43404 0.68304 0.14861 0.0
C125 C 0.45118 0.6826 0.09963 0.0
C126 C 0.46544 0.70255 0.08424 0.0
C127 C 0.46311 0.72216 0.11823 0.0
P128 P 0.21974 0.41484 0.31703 0.0
H129 H 0.20503 0.38731 0.21737 0.0
H130 H 0.17872 0.39957 0.12434 0.0
H131 H 0.18458 0.47402 0.1488 0.0
H132 H 0.2112 0.46181 0.24093 0.0
H133 H 0.27116 0.39673 0.34051 0.0
H134 H 0.30542 0.41333 0.39169 0.0
H135 H 0.26203 0.48016 0.39354 0.0
H136 H 0.22798 0.46364 0.34251 0.0
H137 H 0.16653 0.42546 0.29344 0.0
H138 H 0.21756 0.42382 0.44923 0.0
O139 O 0.22445 0.38498 0.33152 0.0
H140 H 0.1346 0.44411 0.35337 0.0
H141 H 0.1855 0.44277 0.50937 0.0
C142 C 0.21024 0.42364 0.23608 0.0
C143 C 0.20169 0.40631 0.20104 0.0
C144 C 0.18654 0.4133 0.14801 0.0
C145 C 0.17945 0.4377 0.13013 0.0
C146 C 0.18975 0.45509 0.16197 0.0
C147 C 0.20518 0.4481 0.21432 0.0
C148 C 0.24693 0.42886 0.33821 0.0
C149 C 0.26925 0.41516 0.35038 0.0
C150 C 0.28881 0.42464 0.37959 0.0
C151 C 0.28616 0.44787 0.39736 0.0
C152 C 0.2644 0.46209 0.38098 0.0
C153 C 0.24503 0.45273 0.35123 0.0
C154 C 0.19486 0.42418 0.36572 0.0
C155 C 0.171 0.42913 0.34043 0.0
C156 C 0.15268 0.4399 0.37469 0.0
C157 C 0.15775 0.44553 0.43533 0.0
C158 C 0.18112 0.43886 0.46248 0.0
C159 C 0.19948 0.4281 0.42804 0.0
P160 P 0.05851 0.25031 0.31215 0.0
H161 H 0.08436 0.24952 0.19233 0.0
H162 H 0.07824 0.22619 0.10554 0.0
H163 H 0.0083 0.20584 0.1838 0.0
H164 H 0.01417 0.22999 0.26881 0.0
H165 H 0.08134 0.2932 0.34245 0.0
H166 H 0.06474 0.32757 0.39108 0.0
H167 H 0.99117 0.30552 0.3671 0.0
H168 H 0.00788 0.27131 0.3164 0.0
H169 H 0.06549 0.1982 0.32761 0.0
H170 H 0.03137 0.25177 0.43251 0.0
O171 O 0.08915 0.24993 0.31599 0.0
H172 H 0.04961 0.16642 0.40314 0.0
H173 H 0.01495 0.22012 0.50662 0.0
C174 C 0.04992 0.24115 0.23767 0.0
C175 C 0.06732 0.24073 0.18959 0.0
C176 C 0.0639 0.22712 0.14028 0.0
C177 C 0.04309 0.21352 0.13847 0.0
C178 C 0.02455 0.21603 0.18337 0.0
C179 C 0.02789 0.22987 0.23227 0.0
C180 C 0.04585 0.27957 0.3261 0.0
C181 C 0.06158 0.29619 0.34522 0.0
C182 C 0.05208 0.31587 0.37316 0.0
C183 C 0.02673 0.319 0.38349 0.0
C184 C 0.01082 0.3034 0.3599 0.0
C185 C 0.02032 0.284 0.33048 0.0
C186 C 0.04903 0.22742 0.37297 0.0
C187 C 0.05464 0.20316 0.3668 0.0
C188 C 0.04558 0.18503 0.40993 0.0
C189 C 0.03074 0.19091 0.45999 0.0
C190 C 0.02592 0.21518 0.46757 0.0
C191 C 0.03527 0.2333 0.42486 0.0
P192 P 0.24813 0.10935 0.33008 0.0
H193 H 0.2577 0.14047 0.21284 0.0
H194 H 0.28323 0.13354 0.12265 0.0
H195 H 0.29018 0.0576 0.19155 0.0
H196 H 0.26427 0.06449 0.28025 0.0
H197 H 0.20978 0.12856 0.40595 0.0
H198 H 0.17384 0.11144 0.45697 0.0
H199 H 0.18651 0.04816 0.36378 0.0
H200 H 0.22246 0.06568 0.31156 0.0
H201 H 0.28777 0.12928 0.39593 0.0
H202 H 0.2588 0.05984 0.39045 0.0
O203 O 0.2465 0.13912 0.33039 0.0
H204 H 0.32035 0.11074 0.46788 0.0
H205 H 0.29236 0.04088 0.45745 0.0
C206 C 0.25923 0.10306 0.2541 0.0
C207 C 0.26403 0.1222 0.2076 0.0
C208 C 0.27882 0.11826 0.15615 0.0
C209 C 0.28917 0.09509 0.15047 0.0
C210 C 0.28246 0.07567 0.19412 0.0
C211 C 0.26761 0.07963 0.24538 0.0
C212 C 0.21872 0.09856 0.35427 0.0
C213 C 0.20446 0.11133 0.39474 0.0
C214 C 0.18389 0.1015 0.42409 0.0
C215 C 0.17738 0.07845 0.41444 0.0
C216 C 0.19121 0.06593 0.37227 0.0
C217 C 0.21167 0.07599 0.34213 0.0
C218 C 0.27078 0.096 0.38783 0.0
C219 C 0.2884 0.11003 0.41017 0.0
C220 C 0.30728 0.09929 0.4507 0.0
C221 C 0.30932 0.07416 0.46825 0.0
C222 C 0.29134 0.06027 0.44612 0.0
C223 C 0.27215 0.07112 0.40697 0.0
P224 P 0.43853 0.29166 0.35725 0.0
H225 H 0.41474 0.30269 0.23277 0.0
H226 H 0.42626 0.32871 0.13798 0.0
H227 H 0.49812 0.33371 0.21914 0.0
H228 H 0.48677 0.30737 0.31322 0.0
H229 H 0.41506 0.25479 0.43872 0.0
H230 H 0.42879 0.2146 0.48762 0.0
H231 H 0.49808 0.22091 0.3909 0.0
H232 H 0.48406 0.26149 0.34162 0.0
H233 H 0.41494 0.33405 0.40282 0.0
H234 H 0.48452 0.29273 0.42866 0.0
O235 O 0.40782 0.29367 0.35446 0.0
H236 H 0.4304 0.36385 0.46441 0.0
H237 H 0.50028 0.323 0.48842 0.0
C238 C 0.44969 0.30345 0.2808 0.0
C239 C 0.43324 0.30872 0.22951 0.0
C240 C 0.43984 0.3236 0.17526 0.0
C241 C 0.46291 0.33354 0.17189 0.0
C242 C 0.48008 0.32654 0.22105 0.0
C243 C 0.47358 0.31143 0.27484 0.0
C244 C 0.44833 0.26095 0.38554 0.0
C245 C 0.43301 0.2474 0.42684 0.0
C246 C 0.44088 0.22437 0.45481 0.0
C247 C 0.46444 0.21449 0.44274 0.0
C248 C 0.47983 0.22808 0.40109 0.0
C249 C 0.47179 0.25117 0.37258 0.0
C250 C 0.44845 0.31101 0.41184 0.0
C251 C 0.43334 0.33111 0.42278 0.0
C252 C 0.44219 0.34815 0.45774 0.0
C253 C 0.4665 0.34562 0.48087 0.0
C254 C 0.48148 0.32528 0.4709 0.0
C255 C 0.47243 0.30797 0.43709 0.0
Co256 Co 0.01887 0.01521 0.82148 0.0
C257 C 0.97326 0.99652 0.85248 0.0
Co258 Co 0.00252 0.99603 0.74851 0.0
C259 C 0.03114 0.05557 0.88681 0.0
C260 C 0.03764 0.02159 0.94414 0.0
N261 N 0.0307 0.03155 0.88536 0.0
N262 N 0.03768 0.06092 0.9442 0.0
C263 C 0.04203 0.03947 0.98007 0.0
H264 H 0.02555 0.06896 0.8475 0.0
H265 H 0.03844 0.00257 0.96105 0.0
C266 C 0.04799 0.01507 0.71713 0.0
N267 N 0.99085 0.97976 0.68461 0.0
C268 C 0.98883 0.95584 0.6848 0.0
C269 C 0.98707 0.98927 0.6239 0.0
N270 N 0.98443 0.94998 0.62642 0.0
C271 C 0.98312 0.97119 0.58832 0.0
C272 C 0.98981 0.04488 0.73292 0.0
O273 O 0.04673 0.02258 0.77079 0.0
O274 O 0.031 0.00269 0.70003 0.0
O275 O 0.98696 0.02562 0.70921 0.0
O276 O 0.00229 0.04385 0.78345 0.0
O277 O 0.974 0.9897 0.79795 0.0
H278 H 0.98884 0.00796 0.60559 0.0
H279 H 0.99174 0.94291 0.72663 0.0
O280 O 0.99095 0.00775 0.8709 0.0
O281 O 0.03541 0.98617 0.85845 0.0
O282 O 0.0185 0.9669 0.78856 0.0
C283 C 0.03224 0.96659 0.8368 0.0
H284 H 0.04746 0.0368 0.02935 0.0
H285 H 0.9813 0.97354 0.53747 0.0
Co286 Co 0.49164 0.02389 0.81917 0.0
C287 C 0.49814 0.97372 0.84219 0.0
Co288 Co 0.50889 0.00677 0.74117 0.0
C289 C 0.45355 0.04682 0.88973 0.0
C290 C 0.4858 0.03558 0.94572 0.0
N291 N 0.47667 0.03683 0.88657 0.0
N292 N 0.44776 0.05144 0.94855 0.0
C293 C 0.4682 0.04458 0.98369 0.0
H294 H 0.44076 0.04956 0.85038 0.0
H295 H 0.50378 0.0277 0.96118 0.0
C296 C 0.50174 0.05696 0.71769 0.0
N297 N 0.52397 0.99384 0.67423 0.0
C298 C 0.54658 0.98255 0.67322 0.0
C299 C 0.51636 0.99741 0.61353 0.0
N300 N 0.55373 0.97947 0.6141 0.0
C301 C 0.53451 0.98864 0.57662 0.0
C302 C 0.45814 0.01252 0.7313 0.0
O303 O 0.49284 0.05496 0.77296 0.0
O304 O 0.51015 0.03816 0.69566 0.0
O305 O 0.47715 0.00433 0.70484 0.0
O306 O 0.46062 0.02107 0.7828 0.0
O307 O 0.50735 0.97558 0.78726 0.0
H308 H 0.49944 0.00726 0.59654 0.0
H309 H 0.55804 0.97778 0.7149 0.0
O310 O 0.49033 0.99265 0.86451 0.0
O311 O 0.52299 0.0268 0.85425 0.0
O312 O 0.5403 0.00963 0.77805 0.0
C313 C 0.54229 0.01912 0.82836 0.0
H314 H 0.47019 0.04542 0.0337 0.0
H315 H 0.5342 0.99069 0.5256 0.0
Co316 Co 0.51198 0.51384 0.78333 0.0
C317 C 0.48498 0.47827 0.84952 0.0
Co318 Co 0.47221 0.51659 0.75908 0.0
C319 C 0.55626 0.52421 0.84839 0.0
C320 C 0.56316 0.49572 0.79253 0.0
N321 N 0.5452 0.51148 0.80801 0.0
N322 N 0.58016 0.51692 0.85918 0.0
C323 C 0.58456 0.49903 0.82368 0.0
H324 H 0.54681 0.538 0.87159 0.0
H325 H 0.5609 0.48216 0.76183 0.0
C326 C 0.49924 0.5521 0.69267 0.0
N327 N 0.43944 0.51926 0.73358 0.0
C328 C 0.42718 0.50357 0.70444 0.0
C329 C 0.42412 0.53921 0.72996 0.0
N330 N 0.40511 0.51312 0.68152 0.0
C331 C 0.40304 0.53551 0.6979 0.0
C332 C 0.48235 0.54269 0.85448 0.0
O333 O 0.51756 0.54116 0.72339 0.0
O334 O 0.47803 0.54411 0.70151 0.0
O335 O 0.46491 0.53637 0.82214 0.0
O336 O 0.5042 0.53475 0.84515 0.0
O337 O 0.46681 0.48887 0.81736 0.0
H338 H 0.42858 0.55589 0.7462 0.0
H339 H 0.43497 0.48607 0.69619 0.0
O340 O 0.50615 0.48661 0.84264 0.0
O341 O 0.51876 0.49285 0.72126 0.0
O342 O 0.47961 0.4969 0.69603 0.0
C343 C 0.50101 0.48781 0.68773 0.0
H344 H 0.60189 0.48874 0.82095 0.0
H345 H 0.3878 0.54859 0.68548 0.0
Co346 Co 0.99963 0.52665 0.78992 0.0
C347 C 0.03121 0.48985 0.85203 0.0
Co348 Co 0.98995 0.48979 0.77821 0.0
C349 C 0.00878 0.56427 0.86444 0.0
C350 C 0.01165 0.57646 0.76579 0.0
N351 N 0.00738 0.55688 0.80695 0.0
N352 N 0.0136 0.58768 0.86095 0.0
C353 C 0.01558 0.5954 0.79885 0.0
H354 H 0.00629 0.55264 0.9082 0.0
H355 H 0.01147 0.57705 0.71501 0.0
C356 C 0.95861 0.52678 0.71523 0.0
N357 N 0.98152 0.45976 0.7601 0.0
C358 C 0.99425 0.4449 0.72519 0.0
C359 C 0.95891 0.45117 0.76555 0.0
N360 N 0.98028 0.42793 0.70712 0.0
C361 C 0.95806 0.43171 0.73279 0.0
C362 C 0.96676 0.50541 0.87909 0.0
O363 O 0.97308 0.54072 0.73678 0.0
O364 O 0.9628 0.50416 0.72829 0.0
O365 O 0.96995 0.48719 0.85004 0.0
O366 O 0.97782 0.52427 0.86021 0.0
O367 O 0.0174 0.47574 0.82846 0.0
H368 H 0.94344 0.45969 0.78746 0.0
H369 H 0.01271 0.44774 0.70842 0.0
O370 O 0.02609 0.51243 0.84226 0.0
O371 O 0.02142 0.52843 0.71947 0.0
O372 O 0.00989 0.4927 0.70678 0.0
C373 C 0.02266 0.5104 0.68907 0.0
H374 H 0.01894 0.61359 0.77867 0.0
H375 H 0.94199 0.42197 0.72535 0.0
C376 C 0.16151 0.04378 0.48509 0.0
C377 C 0.15746 0.06703 0.45239 0.0
C378 C 0.14402 0.03388 0.52739 0.0
C379 C 0.12191 0.0475 0.5368 0.0
C380 C 0.11735 0.07061 0.50205 0.0
C381 C 0.13521 0.08013 0.46047 0.0
C382 C 0.14958 0.0092 0.56365 0.0
C383 C 0.09394 0.08562 0.51041 0.0
C384 C 0.06706 0.01637 0.61059 0.0
C385 C 0.06795 0.02197 0.67266 0.0
C386 C 0.08468 0.02426 0.56616 0.0
C387 C 0.10381 0.03795 0.58423 0.0
C388 C 0.10518 0.04321 0.64715 0.0
C389 C 0.08717 0.03524 0.69056 0.0
C390 C 0.08246 0.01846 0.49943 0.0
C391 C 0.1254 0.05767 0.66828 0.0
H392 H 0.17882 0.03371 0.47957 0.0
H393 H 0.13196 0.09804 0.4349 0.0
H394 H 0.15091 0.01061 0.61482 0.0
H395 H 0.13441 0.99741 0.55715 0.0
H396 H 0.16706 1.00048 0.54873 0.0
H397 H 0.09268 0.10281 0.47796 0.0
H398 H 0.07768 0.07539 0.50237 0.0
H399 H 0.09308 0.08978 0.55964 0.0
H400 H 0.05221 0.00623 0.59612 0.0
H401 H 0.08799 0.03968 0.73834 0.0
H402 H 0.09979 0.00924 0.4855 0.0
H403 H 0.07942 0.03537 0.46643 0.0
H404 H 0.06705 0.00684 0.49358 0.0
H405 H 0.14364 0.04925 0.65796 0.0
H406 H 0.12457 0.05921 0.71953 0.0
H407 H 0.124 0.07605 0.64167 0.0
C408 C 0.4572 0.17161 0.4828 0.0
C409 C 0.47302 0.19055 0.47627 0.0
C410 C 0.46386 0.14972 0.52014 0.0
C411 C 0.48694 0.14667 0.55182 0.0
C412 C 0.5034 0.16536 0.54354 0.0
C413 C 0.49625 0.1871 0.50575 0.0
C414 C 0.44586 0.13014 0.52728 0.0
C415 C 0.52816 0.16275 0.57648 0.0
C416 C 0.48966 0.10106 0.69975 0.0
C417 C 0.50046 0.08056 0.67729 0.0
C418 C 0.48593 0.12293 0.65989 0.0
C419 C 0.49317 0.12434 0.596 0.0
C420 C 0.50493 0.10398 0.57364 0.0
C421 C 0.50844 0.08233 0.61455 0.0
C422 C 0.47339 0.14428 0.68557 0.0
C423 C 0.51295 0.10478 0.5059 0.0
H424 H 0.43936 0.17408 0.45939 0.0
H425 H 0.50846 0.20174 0.50135 0.0
H426 H 0.45478 0.11309 0.51508 0.0
H427 H 0.44 0.12672 0.57715 0.0
H428 H 0.42921 0.1349 0.49697 0.0
H429 H 0.53955 0.17818 0.56141 0.0
H430 H 0.52556 0.16143 0.62825 0.0
H431 H 0.53841 0.14594 0.567 0.0
H432 H 0.48347 0.09989 0.74814 0.0
H433 H 0.51683 0.0666 0.59674 0.0
H434 H 0.45531 0.14898 0.6616 0.0
H435 H 0.48455 0.16019 0.67579 0.0
H436 H 0.47035 0.14071 0.73722 0.0
H437 H 0.49653 0.10736 0.47428 0.0
H438 H 0.52358 0.08804 0.49725 0.0
H439 H 0.52441 0.12028 0.49269 0.0
C440 C 0.29747 0.46513 0.49419 0.0
C441 C 0.30484 0.45644 0.4382 0.0
C442 C 0.31462 0.47322 0.53429 0.0
C443 C 0.33974 0.47296 0.51753 0.0
C444 C 0.34736 0.46403 0.46121 0.0
C445 C 0.3298 0.45563 0.42242 0.0
C446 C 0.3058 0.48219 0.59443 0.0
C447 C 0.37395 0.46381 0.44139 0.0
C448 C 0.37662 0.51763 0.5904 0.0
C449 C 0.38902 0.5029 0.64007 0.0
C450 C 0.36116 0.50797 0.54897 0.0
C451 C 0.35772 0.48298 0.55797 0.0
C452 C 0.3704 0.46794 0.60766 0.0
C453 C 0.38606 0.47808 0.64787 0.0
C454 C 0.34831 0.52455 0.4959 0.0
C455 C 0.36696 0.44127 0.61927 0.0
H456 H 0.27821 0.46534 0.50699 0.0
H457 H 0.33547 0.44889 0.37912 0.0
H458 H 0.31618 0.47228 0.63553 0.0
H459 H 0.30928 0.5015 0.59294 0.0
H460 H 0.28584 0.48007 0.6021 0.0
H461 H 0.37697 0.45571 0.39714 0.0
H462 H 0.37998 0.48247 0.43412 0.0
H463 H 0.38583 0.45357 0.47916 0.0
H464 H 0.37931 0.53674 0.58334 0.0
H465 H 0.39561 0.46669 0.68631 0.0
H466 H 0.32812 0.52481 0.50267 0.0
H467 H 0.35219 0.51786 0.45013 0.0
H468 H 0.3541 0.54328 0.4931 0.0
H469 H 0.3475 0.43823 0.63135 0.0
H470 H 0.37895 0.43193 0.65822 0.0
H471 H 0.37103 0.43296 0.57587 0.0
C472 C 0.02375 0.36035 0.41646 0.0
C473 C 0.01756 0.3363 0.42611 0.0
C474 C 0.01714 0.37613 0.46039 0.0
C475 C 0.00466 0.36742 0.51604 0.0
C476 C 0.99826 0.34316 0.52567 0.0
C477 C 0.00455 0.32799 0.48025 0.0
C478 C 0.02375 0.40202 0.44767 0.0
C479 C 0.98548 0.33301 0.58495 0.0
C480 C 0.00965 0.40058 0.65949 0.0
C481 C 0.98634 0.41256 0.65983 0.0
C482 C 0.01588 0.38578 0.61303 0.0
C483 C 0.99858 0.38349 0.5648 0.0
C484 C 0.97521 0.39603 0.56421 0.0
C485 C 0.96927 0.41017 0.61216 0.0
C486 C 0.04082 0.37235 0.61609 0.0
C487 C 0.95652 0.39463 0.51269 0.0
H488 H 0.03389 0.36675 0.37467 0.0
H489 H 0.00017 0.30927 0.48835 0.0
H490 H 0.00712 0.41424 0.45079 0.0
H491 H 0.03703 0.40584 0.48396 0.0
H492 H 0.03203 0.40633 0.40042 0.0
H493 H 0.98182 0.31376 0.58527 0.0
H494 H 0.99699 0.33475 0.62685 0.0
H495 H 0.96774 0.34335 0.58989 0.0
H496 H 0.02282 0.4025 0.69633 0.0
H497 H 0.95144 0.41987 0.61161 0.0
H498 H 0.05114 0.37771 0.5724 0.0
H499 H 0.03858 0.35273 0.61919 0.0
H500 H 0.05198 0.37577 0.65722 0.0
H501 H 0.96466 0.40006 0.46585 0.0
H502 H 0.93961 0.40632 0.51749 0.0
H503 H 0.95125 0.37582 0.51364 0.0
C504 C 0.8552 0.01451 0.0528 0.0
C505 C 0.84835 0.99484 0.09502 0.0
C506 C 0.87484 0.01223 0.01147 0.0
C507 C 0.88809 0.98971 0.01238 0.0
C508 C 0.88084 0.96956 0.05357 0.0
C509 C 0.86092 0.97234 0.09432 0.0
C510 C 0.88181 0.03415 0.96798 0.0
C511 C 0.8946 0.9453 0.05599 0.0
C512 C 0.92974 0.98514 0.87146 0.0
C513 C 0.95198 0.99211 0.89447 0.0
C514 C 0.90895 0.98312 0.91023 0.0
C515 C 0.91057 0.98803 0.97341 0.0
C516 C 0.93332 0.99387 0.99763 0.0
C517 C 0.95368 0.99592 0.95787 0.0
C518 C 0.88498 0.97687 0.88273 0.0
C519 C 0.9359 0.99908 0.06482 0.0
H520 H 0.84516 0.03181 0.0522 0.0
H521 H 0.85562 0.9571 0.12684 0.0
H522 H 0.90046 0.03901 0.98072 0.0
H523 H 0.88248 0.03019 0.9185 0.0
H524 H 0.86872 0.04995 0.97041 0.0
H525 H 0.88545 0.93103 0.08669 0.0
H526 H 0.89626 0.94003 0.00789 0.0
H527 H 0.91353 0.94631 0.07434 0.0
H528 H 0.92832 0.98207 0.8226 0.0
H529 H 0.97089 0.001 0.97633 0.0
H530 H 0.87177 0.99286 0.87821 0.0
H531 H 0.87666 0.96241 0.91453 0.0
H532 H 0.8874 0.97095 0.83543 0.0
H533 H 0.92498 0.01595 0.07081 0.0
H534 H 0.95533 0.00113 0.07805 0.0
H535 H 0.92857 0.98444 0.09808 0.0
C536 C 0.49545 0.85047 0.07848 0.0
C537 C 0.47606 0.83715 0.06162 0.0
C538 C 0.50105 0.87198 0.04152 0.0
C539 C 0.48672 0.88053 0.98687 0.0
C540 C 0.46756 0.86688 0.96871 0.0
C541 C 0.46262 0.84529 0.00595 0.0
C542 C 0.52181 0.88593 0.06198 0.0
C543 C 0.45176 0.87545 0.91098 0.0
C544 C 0.4808 0.94771 0.93289 0.0
C545 C 0.49595 0.94988 0.87977 0.0
C546 C 0.47784 0.92528 0.96835 0.0
C547 C 0.49062 0.9045 0.95089 0.0
C548 C 0.50633 0.90659 0.89805 0.0
C549 C 0.50867 0.92926 0.86276 0.0
C550 C 0.46063 0.92377 0.02383 0.0
C551 C 0.52052 0.88487 0.8786 0.0
H552 H 0.50584 0.84446 0.12157 0.0
H553 H 0.44801 0.83485 0.9916 0.0
H554 H 0.53443 0.89038 0.02211 0.0
H555 H 0.51427 0.90318 0.07629 0.0
H556 H 0.53256 0.87582 0.10224 0.0
H557 H 0.43818 0.86228 0.90201 0.0
H558 H 0.44163 0.89274 0.91701 0.0
H559 H 0.46344 0.87882 0.86873 0.0
H560 H 0.47083 0.96355 0.94623 0.0
H561 H 0.52054 0.93085 0.822 0.0
H562 H 0.47064 0.9156 0.06743 0.0
H563 H 0.44561 0.91197 0.01598 0.0
H564 H 0.4523 0.94167 0.03165 0.0
H565 H 0.53179 0.87555 0.91888 0.0
H566 H 0.53283 0.88969 0.83817 0.0
H567 H 0.50756 0.87188 0.86514 0.0
C568 C 0.65106 0.53807 0.16584 0.0
C569 C 0.67457 0.5464 0.15422 0.0
C570 C 0.63437 0.53727 0.11618 0.0
C571 C 0.64145 0.54486 0.05341 0.0
C572 C 0.66437 0.55517 0.04198 0.0
C573 C 0.68068 0.55586 0.09267 0.0
C574 C 0.60999 0.52646 0.13055 0.0
C575 C 0.67256 0.56359 0.97582 0.0
C576 C 0.61594 0.50925 0.93187 0.0
C577 C 0.59654 0.52479 0.90457 0.0
C578 C 0.63102 0.51592 0.97907 0.0
C579 C 0.62658 0.53868 0.99997 0.0
C580 C 0.60744 0.55473 0.97176 0.0
C581 C 0.59269 0.54762 0.92427 0.0
C582 C 0.65128 0.49824 0.00791 0.0
C583 C 0.6022 0.57916 0.99268 0.0
H584 H 0.64621 0.53102 0.21355 0.0
H585 H 0.69889 0.56218 0.08342 0.0
H586 H 0.59483 0.53764 0.10434 0.0
H587 H 0.61034 0.50836 0.11501 0.0
H588 H 0.60585 0.52459 0.18175 0.0
H589 H 0.68878 0.57467 0.9756 0.0
H590 H 0.67759 0.54772 0.95156 0.0
H591 H 0.65744 0.57425 0.94813 0.0
H592 H 0.61894 0.49149 0.91786 0.0
H593 H 0.57804 0.55994 0.90284 0.0
H594 H 0.64761 0.49296 0.05871 0.0
H595 H 0.66917 0.50674 0.00467 0.0
H596 H 0.65299 0.4817 0.98449 0.0
H597 H 0.59657 0.57702 0.04283 0.0
H598 H 0.5874 0.58997 0.96397 0.0
H599 H 0.61909 0.58931 0.98947 0.0
C600 C 0.04443 0.6504 0.16144 0.0
C601 C 0.03107 0.67256 0.16189 0.0
C602 C 0.04009 0.63557 0.11507 0.0
C603 C 0.02182 0.64296 0.0681 0.0
C604 C 0.00733 0.66465 0.07033 0.0
C605 C 0.01216 0.67922 0.11709 0.0
C606 C 0.05589 0.61254 0.11462 0.0
C607 C 0.98752 0.67308 0.02146 0.0
C608 C 0.03105 0.62067 0.90883 0.0
C609 C 0.01541 0.60164 0.91265 0.0
C610 C 0.0332 0.63428 0.95897 0.0
C611 C 0.01917 0.6289 0.01418 0.0
C612 C 0.0031 0.60989 0.01805 0.0
C613 C 0.00151 0.59642 0.96738 0.0
C614 C 0.05071 0.65426 0.95312 0.0
C615 C 0.98762 0.60378 0.07569 0.0
H616 H 0.05881 0.64494 0.19648 0.0
H617 H 0.0019 0.6964 0.1166 0.0
H618 H 0.04418 0.59719 0.11246 0.0
H619 H 0.06751 0.61397 0.07191 0.0
H620 H 0.06809 0.60851 0.1569 0.0
H621 H 0.97623 0.68896 0.03346 0.0
H622 H 0.9961 0.67799 0.97492 0.0
H623 H 0.97521 0.65841 0.01642 0.0
H624 H 0.04199 0.62462 0.86696 0.0
H625 H 0.98909 0.582 0.97021 0.0
H626 H 0.06487 0.65065 0.9912 0.0
H627 H 0.04062 0.67158 0.95888 0.0
H628 H 0.06014 0.65628 0.90689 0.0
H629 H 0.99967 0.59847 0.11776 0.0
H630 H 0.97555 0.58888 0.07061 0.0
H631 H 0.97594 0.61983 0.08475 0.0
C632 C 0.03527 0.15197 0.53093 0.0
C633 C 0.02017 0.17167 0.50371 0.0
C634 C 0.02549 0.13312 0.57061 0.0
C635 C 0.99986 0.13376 0.58213 0.0
C636 C 0.98453 0.15379 0.55548 0.0
C637 C 0.99493 0.17265 0.51678 0.0
C638 C 0.04264 0.11231 0.59898 0.0
C639 C 0.95717 0.15505 0.56671 0.0
C640 C 0.98091 0.07062 0.63037 0.0
C641 C 0.98386 0.06867 0.69603 0.0
C642 C 0.98375 0.09258 0.59235 0.0
C643 C 0.98944 0.11296 0.62093 0.0
C644 C 0.9894 0.11173 0.68746 0.0
C645 C 0.98655 0.08956 0.72429 0.0
C646 C 0.98332 0.09324 0.52154 0.0
C647 C 0.99531 0.13303 0.71991 0.0
H648 H 0.05482 0.15134 0.52124 0.0
H649 H 0.98322 0.18786 0.49531 0.0
H650 H 0.03873 0.10714 0.64966 0.0
H651 H 0.03995 0.09646 0.57432 0.0
H652 H 0.0622 0.11671 0.59479 0.0
H653 H 0.94805 0.17251 0.54566 0.0
H654 H 0.94872 0.14036 0.54596 0.0
H655 H 0.95343 0.15237 0.61806 0.0
H656 H 0.97866 0.0546 0.60818 0.0
H657 H 0.98848 0.08823 0.77515 0.0
H658 H 0.00248 0.09293 0.50401 0.0
H659 H 0.97351 0.11002 0.49856 0.0
H660 H 0.97437 0.07757 0.50689 0.0
H661 H 0.01541 0.13527 0.71749 0.0
H662 H 0.99002 0.13058 0.7704 0.0
H663 H 0.98585 0.14985 0.69611 0.0
C664 C 0.35372 0.07181 0.50228 0.0
C665 C 0.33039 0.06245 0.508 0.0
C666 C 0.37364 0.06128 0.53992 0.0
C667 C 0.37043 0.04035 0.58301 0.0
C668 C 0.34722 0.03033 0.58789 0.0
C669 C 0.32739 0.04171 0.55114 0.0
C670 C 0.39803 0.07283 0.53432 0.0
C671 C 0.34325 0.00777 0.6325 0.0
C672 C 0.43054 0.00682 0.64097 0.0
C673 C 0.434 0.01576 0.69837 0.0
C674 C 0.40912 0.0135 0.60446 0.0
C675 C 0.39112 0.02989 0.6253 0.0
C676 C 0.39396 0.03797 0.68466 0.0
C677 C 0.41519 0.03054 0.72079 0.0
C678 C 0.4063 0.00393 0.54224 0.0
C679 C 0.37545 0.0558 0.70822 0.0
H680 H 0.35656 0.08739 0.46813 0.0
H681 H 0.30945 0.03445 0.55697 0.0
H682 H 0.40348 0.07788 0.58066 0.0
H683 H 0.41258 0.05986 0.52076 0.0
H684 H 0.39741 0.08921 0.49889 0.0
H685 H 0.32474 0.00104 0.62649 0.0
H686 H 0.35738 0.99337 0.62488 0.0
H687 H 0.34528 0.01135 0.68198 0.0
H688 H 0.44492 0.99528 0.62352 0.0
H689 H 0.41759 0.0375 0.76514 0.0
H690 H 0.40862 0.01857 0.50293 0.0
H691 H 0.38759 0.99753 0.53756 0.0
H692 H 0.42008 0.98893 0.53696 0.0
H693 H 0.3754 0.07321 0.67693 0.0
H694 H 0.37958 0.05905 0.75722 0.0
H695 H 0.35664 0.04936 0.70677 0.0
C696 C 0.46439 0.37298 0.56372 0.0
C697 C 0.47647 0.36497 0.51201 0.0
C698 C 0.4724 0.39268 0.5904 0.0
C699 C 0.4926 0.40497 0.56359 0.0
C700 C 0.50522 0.39658 0.51219 0.0
C701 C 0.49712 0.37647 0.48733 0.0
C702 C 0.45871 0.40081 0.64598 0.0
C703 C 0.52646 0.40952 0.48156 0.0
C704 C 0.48808 0.46974 0.59421 0.0
C705 C 0.5038 0.46883 0.64654 0.0
C706 C 0.48578 0.44946 0.56342 0.0
C707 C 0.49907 0.42763 0.58669 0.0
C708 C 0.51623 0.42708 0.63688 0.0
C709 C 0.5186 0.44787 0.66589 0.0
C710 C 0.46771 0.45098 0.50907 0.0
C711 C 0.53044 0.40407 0.66366 0.0
H712 H 0.44849 0.36394 0.58281 0.0
H713 H 0.50627 0.37034 0.44684 0.0
H714 H 0.47182 0.40295 0.68441 0.0
H715 H 0.44892 0.4186 0.63154 0.0
H716 H 0.445 0.38795 0.66491 0.0
H717 H 0.53562 0.39953 0.44565 0.0
H718 H 0.51967 0.42755 0.45824 0.0
H719 H 0.54031 0.41234 0.51758 0.0
H720 H 0.47664 0.486 0.57931 0.0
H721 H 0.53051 0.44709 0.70695 0.0
H722 H 0.45115 0.44141 0.52491 0.0
H723 H 0.47589 0.44215 0.46989 0.0
H724 H 0.46177 0.46989 0.49077 0.0
H725 H 0.51774 0.39189 0.69044 0.0
H726 H 0.54551 0.40738 0.69599 0.0
H727 H 0.5384 0.39458 0.62539 0.0
C728 C 0.12488 0.47855 0.43735 0.0
C729 C 0.13879 0.45876 0.46932 0.0
C730 C 0.10623 0.49073 0.46801 0.0
C731 C 0.10134 0.48286 0.53206 0.0
C732 C 0.11579 0.46334 0.56509 0.0
C733 C 0.13439 0.45155 0.53331 0.0
C734 C 0.09129 0.51154 0.43142 0.0
C735 C 0.11102 0.45433 0.63342 0.0
C736 C 0.06277 0.51954 0.63722 0.0
C737 C 0.04077 0.50781 0.63888 0.0
C738 C 0.08239 0.51255 0.59967 0.0
C739 C 0.07977 0.49348 0.5633 0.0
C740 C 0.05693 0.48289 0.56132 0.0
C741 C 0.03771 0.49026 0.59894 0.0
C742 C 0.10643 0.52439 0.60241 0.0
C743 C 0.05329 0.46253 0.5231 0.0
H744 H 0.12855 0.48447 0.38813 0.0
H745 H 0.14501 0.4362 0.55807 0.0
H746 H 0.07205 0.50659 0.42616 0.0
H747 H 0.0907 0.5274 0.45742 0.0
H748 H 0.0988 0.51675 0.38366 0.0
H749 H 0.12491 0.44001 0.65336 0.0
H750 H 0.11109 0.46937 0.66226 0.0
H751 H 0.09255 0.447 0.63777 0.0
H752 H 0.06523 0.53302 0.66824 0.0
H753 H 0.02061 0.48128 0.59966 0.0
H754 H 0.11387 0.52886 0.55434 0.0
H755 H 0.12015 0.51171 0.62985 0.0
H756 H 0.10443 0.54106 0.62519 0.0
H757 H 0.05934 0.46737 0.47383 0.0
H758 H 0.0338 0.45777 0.52225 0.0
H759 H 0.06471 0.44632 0.54357 0.0
C760 C 0.03825 0.84966 0.07487 0.0
C761 C 0.06033 0.83537 0.08224 0.0
C762 C 0.03598 0.8703 0.0303 0.0
C763 C 0.05626 0.87671 0.99179 0.0
C764 C 0.07849 0.86212 0.99809 0.0
C765 C 0.08032 0.84165 0.04368 0.0
C766 C 0.01204 0.88555 0.02549 0.0
C767 C 0.10034 0.86828 0.95721 0.0
C768 C 0.03809 0.92169 0.84892 0.0
C769 C 0.04222 0.94349 0.8714 0.0
C770 C 0.0441 0.89959 0.88606 0.0
C771 C 0.05426 0.89936 0.94719 0.0
C772 C 0.05988 0.92124 0.96845 0.0
C773 C 0.0539 0.94304 0.93014 0.0
C774 C 0.03817 0.87662 0.86133 0.0
C775 C 0.07067 0.92176 0.0334 0.0
H776 H 0.02288 0.84501 0.10523 0.0
H777 H 0.09735 0.83048 0.04904 0.0
H778 H 0.01526 0.90385 0.03666 0.0
H779 H 0.00462 0.88753 0.97657 0.0
H780 H 0.9979 0.87776 0.05807 0.0
H781 H 0.11583 0.8544 0.96576 0.0
H782 H 0.09491 0.87023 0.90664 0.0
H783 H 0.1069 0.8858 0.96655 0.0
H784 H 0.02927 0.92187 0.8033 0.0
H785 H 0.05734 0.95978 0.94769 0.0
H786 H 0.02168 0.86943 0.88561 0.0
H787 H 0.05355 0.86273 0.87121 0.0
H788 H 0.03432 0.87954 0.80973 0.0
H789 H 0.07626 0.93994 0.04025 0.0
H790 H 0.08692 0.90883 0.04182 0.0
H791 H 0.05684 0.91622 0.06958 0.0
C792 C 0.67334 0.0353 0.98651 0.0
C793 C 0.67584 0.01847 0.04101 0.0
C794 C 0.65311 0.03554 0.94547 0.0
C795 C 0.63521 0.01843 0.95925 0.0
C796 C 0.63834 0.00068 0.01258 0.0
C797 C 0.65858 0.00098 0.05296 0.0
C798 C 0.65029 0.05481 0.88922 0.0
C799 C 0.6198 0.98194 0.02845 0.0
C800 C 0.56879 0.03356 0.90904 0.0
C801 C 0.5666 0.02043 0.85811 0.0
C802 C 0.59129 0.03374 0.9408 0.0
C803 C 0.61207 0.02027 0.92154 0.0
C804 C 0.61019 0.00747 0.86911 0.0
C805 C 0.58746 0.00781 0.8377 0.0
C806 C 0.5926 0.04776 0.99627 0.0
C807 C 0.63196 0.99283 0.84747 0.0
H808 H 0.68663 0.04889 0.97741 0.0
H809 H 0.66075 0.98773 0.09462 0.0
H810 H 0.64642 0.04674 0.84585 0.0
H811 H 0.6344 0.06745 0.89644 0.0
H812 H 0.66696 0.06522 0.88158 0.0
H813 H 0.62602 0.9682 0.06845 0.0
H814 H 0.60208 0.99077 0.04122 0.0
H815 H 0.61624 0.97271 0.98682 0.0
H816 H 0.55279 0.0435 0.92477 0.0
H817 H 0.58589 0.99764 0.79829 0.0
H818 H 0.60784 0.06006 0.99002 0.0
H819 H 0.59655 0.03518 0.04015 0.0
H820 H 0.57521 0.05854 0.00259 0.0
H821 H 0.64751 0.00445 0.83604 0.0
H822 H 0.6275 0.98421 0.80533 0.0
H823 H 0.63831 0.97858 0.88603 0.0
C824 C 0.45846 0.66362 0.00101 0.0
C825 C 0.45492 0.66105 0.06643 0.0
C826 C 0.46286 0.64344 0.96944 0.0
C827 C 0.46362 0.62012 0.00409 0.0
C828 C 0.45986 0.61737 0.07002 0.0
C829 C 0.45562 0.63788 0.10044 0.0
C830 C 0.46677 0.64707 0.89899 0.0
C831 C 0.46051 0.59278 0.10845 0.0
C832 C 0.45327 0.56926 0.90852 0.0
C833 C 0.47747 0.56065 0.89842 0.0
C834 C 0.44845 0.5881 0.94461 0.0
C835 C 0.46832 0.59866 0.97098 0.0
C836 C 0.49274 0.58949 0.96289 0.0
C837 C 0.49702 0.57055 0.92682 0.0
C838 C 0.42215 0.59725 0.95273 0.0
C839 C 0.51442 0.60029 0.9903 0.0
H840 H 0.45765 0.68145 0.97436 0.0
H841 H 0.4533 0.63576 0.15116 0.0
H842 H 0.48503 0.63888 0.88791 0.0
H843 H 0.45269 0.6379 0.87503 0.0
H844 H 0.46574 0.6664 0.87908 0.0
H845 H 0.45677 0.59372 0.15916 0.0
H846 H 0.44668 0.58174 0.08984 0.0
H847 H 0.4788 0.58331 0.10445 0.0
H848 H 0.43804 0.56165 0.88696 0.0
H849 H 0.51576 0.56402 0.91931 0.0
H850 H 0.4193 0.61599 0.92883 0.0
H851 H 0.41815 0.59759 0.00346 0.0
H852 H 0.40874 0.58605 0.93284 0.0
H853 H 0.51561 0.61914 0.96789 0.0
H854 H 0.53211 0.59012 0.98305 0.0
H855 H 0.51193 0.60074 0.04162 0.0
C856 C 0.84585 0.51197 0.07858 0.0
C857 C 0.84903 0.50839 0.14437 0.0
C858 C 0.86608 0.51137 0.03833 0.0
C859 C 0.89009 0.50675 0.06442 0.0
C860 C 0.89347 0.50284 0.1307 0.0
C861 C 0.87291 0.50384 0.1699 0.0
C862 C 0.86176 0.51573 0.9678 0.0
C863 C 0.9188 0.49771 0.16014 0.0
C864 C 0.93772 0.48406 0.95389 0.0
C865 C 0.94902 0.50523 0.93135 0.0
C866 C 0.91915 0.48411 0.99914 0.0
C867 C 0.91156 0.5059 0.02195 0.0
C868 C 0.92351 0.52715 0.00111 0.0
C869 C 0.94218 0.52654 0.9562 0.0
C870 C 0.90708 0.46101 0.02094 0.0
C871 C 0.91587 0.55076 0.0242 0.0
H872 H 0.82747 0.51512 0.05842 0.0
H873 H 0.8756 0.50144 0.22064 0.0
H874 H 0.87207 0.53119 0.94674 0.0
H875 H 0.86873 0.49977 0.94614 0.0
H876 H 0.84197 0.51952 0.95512 0.0
H877 H 0.91824 0.49459 0.2125 0.0
H878 H 0.92794 0.48161 0.14309 0.0
H879 H 0.93036 0.51303 0.14567 0.0
H880 H 0.94303 0.46748 0.93522 0.0
H881 H 0.95086 0.54298 0.9391 0.0
H882 H 0.88759 0.46265 0.00484 0.0
H883 H 0.90712 0.45754 0.07324 0.0
H884 H 0.91642 0.44527 0.00249 0.0
H885 H 0.89689 0.55666 0.00737 0.0
H886 H 0.92828 0.56517 0.00729 0.0
H887 H 0.91567 0.54858 0.07651 0.0
C888 C 0.01989 0.18915 0.06945 0.0
C889 C 0.04221 0.19454 0.0958 0.0
C890 C 0.01844 0.16897 0.03721 0.0
C891 C 0.03983 0.15381 0.03107 0.0
C892 C 0.06264 0.15992 0.05439 0.0
C893 C 0.06354 0.18008 0.08657 0.0
C894 C 0.99378 0.16319 0.01267 0.0
C895 C 0.08591 0.1443 0.04886 0.0
C896 C 0.03358 0.08699 0.02865 0.0
C897 C 0.03759 0.08442 0.96497 0.0
C898 C 0.03378 0.1095 0.05021 0.0
C899 C 0.038 0.13018 0.00712 0.0
C900 C 0.04153 0.12791 0.94247 0.0
C901 C 0.0413 0.10506 0.92217 0.0
C902 C 0.02977 0.11108 0.11949 0.0
C903 C 0.04605 0.1495 0.89502 0.0
H904 H 0.00337 0.20035 0.07545 0.0
H905 H 0.08084 0.18373 0.10745 0.0
H906 H 0.99533 0.15917 0.96335 0.0
H907 H 0.98745 0.14689 0.04159 0.0
H908 H 0.97959 0.17816 0.01434 0.0
H909 H 0.10253 0.15287 0.06308 0.0
H910 H 0.08465 0.12688 0.0795 0.0
H911 H 0.08822 0.14029 0.9997 0.0
H912 H 0.03007 0.07136 0.06192 0.0
H913 H 0.04452 0.10331 0.87298 0.0
H914 H 0.01408 0.12411 0.1255 0.0
H915 H 0.0463 0.11775 0.14027 0.0
H916 H 0.02599 0.09344 0.14651 0.0
H917 H 0.03167 0.16412 0.89852 0.0
H918 H 0.04626 0.14511 0.84583 0.0
H919 H 0.06399 0.15655 0.90541 0.0
C920 C 0.32826 0.10765 0.09845 0.0
C921 C 0.30941 0.09156 0.10532 0.0
C922 C 0.34969 0.10262 0.06516 0.0
C923 C 0.35244 0.08093 0.0382 0.0
C924 C 0.33286 0.06536 0.04139 0.0
C925 C 0.31157 0.07086 0.07497 0.0
C926 C 0.37012 0.11971 0.06284 0.0
C927 C 0.33499 0.04217 0.01272 0.0
C928 C 0.40652 0.07243 0.92905 0.0
C929 C 0.4239 0.05919 0.97064 0.0
C930 C 0.38303 0.07942 0.94993 0.0
C931 C 0.37684 0.07317 0.01399 0.0
C932 C 0.39427 0.05982 0.05611 0.0
C933 C 0.41748 0.05296 0.03393 0.0
C934 C 0.36492 0.09361 0.90361 0.0
C935 C 0.3884 0.05274 0.12484 0.0
H936 H 0.32697 0.12353 0.12235 0.0
H937 H 0.29695 0.05851 0.07931 0.0
H938 H 0.38561 0.11137 0.09361 0.0
H939 H 0.37726 0.12336 0.01421 0.0
H940 H 0.36398 0.1371 0.079 0.0
H941 H 0.31711 0.03367 0.01207 0.0
H942 H 0.3419 0.04536 0.96377 0.0
H943 H 0.34846 0.02931 0.04047 0.0
H944 H 0.41132 0.07753 0.88024 0.0
H945 H 0.43045 0.04232 0.06625 0.0
H946 H 0.36059 0.11166 0.91797 0.0
H947 H 0.34741 0.0845 0.90378 0.0
H948 H 0.37209 0.09591 0.85473 0.0
H949 H 0.3838 0.06907 0.1476 0.0
H950 H 0.40395 0.04224 0.15134 0.0
H951 H 0.37206 0.04179 0.12892 0.0
C952 C 0.46362 0.35129 0.05785 0.0
C953 C 0.46784 0.35337 0.12154 0.0
C954 C 0.46682 0.37075 0.01068 0.0
C955 C 0.47381 0.3929 0.02798 0.0
C956 C 0.47815 0.39501 0.09228 0.0
C957 C 0.47531 0.37516 0.13817 0.0
C958 C 0.46257 0.36768 0.94247 0.0
C959 C 0.4852 0.41841 0.11284 0.0
C960 C 0.50211 0.43994 0.91086 0.0
C961 C 0.48182 0.4561 0.89354 0.0
C962 C 0.49958 0.41886 0.95284 0.0
C963 C 0.47632 0.41409 0.97924 0.0
C964 C 0.45571 0.43025 0.96154 0.0
C965 C 0.45866 0.45094 0.91829 0.0
C966 C 0.52188 0.40184 0.96949 0.0
C967 C 0.4307 0.42601 0.98959 0.0
H968 H 0.45784 0.33443 0.04504 0.0
H969 H 0.47817 0.37692 0.18754 0.0
H970 H 0.44704 0.38008 0.9225 0.0
H971 H 0.47909 0.37243 0.91442 0.0
H972 H 0.45836 0.34899 0.93666 0.0
H973 H 0.48782 0.41707 0.16477 0.0
H974 H 0.50251 0.42403 0.08973 0.0
H975 H 0.47071 0.43281 0.09791 0.0
H976 H 0.52 0.4437 0.89118 0.0
H977 H 0.44294 0.46339 0.90505 0.0
H978 H 0.51787 0.38335 0.96143 0.0
H979 H 0.5265 0.40119 0.02028 0.0
H980 H 0.53823 0.4073 0.94147 0.0
H981 H 0.42484 0.40816 0.98091 0.0
H982 H 0.41645 0.44 0.96982 0.0
H983 H 0.43166 0.42591 0.04149 0.0
C984 C 0.15887 0.43779 0.02483 0.0
C985 C 0.15866 0.44469 0.08546 0.0
C986 C 0.13865 0.44398 0.98351 0.0
C987 C 0.11761 0.45676 0.0042 0.0
C988 C 0.11723 0.46331 0.06592 0.0
C989 C 0.13785 0.4574 0.10552 0.0
C990 C 0.13992 0.43717 0.91756 0.0
C991 C 0.09501 0.47655 0.09026 0.0
C992 C 0.07338 0.49537 0.89045 0.0
C993 C 0.05368 0.48054 0.88839 0.0
C994 C 0.09475 0.48738 0.92564 0.0
C995 C 0.09624 0.4642 0.96096 0.0
C996 C 0.07656 0.44896 0.9583 0.0
C997 C 0.05558 0.45722 0.9213 0.0
C998 C 0.11551 0.504 0.92611 0.0
C999 C 0.07728 0.42431 0.99633 0.0
H1000 H 0.17496 0.42785 0.0096 0.0
H1001 H 0.13753 0.4623 0.15294 0.0
H1002 H 0.12451 0.42591 0.90921 0.0
H1003 H 0.1379 0.45362 0.88257 0.0
H1004 H 0.15753 0.42713 0.90892 0.0
H1005 H 0.09722 0.47922 0.1405 0.0
H1006 H 0.09173 0.49444 0.06169 0.0
H1007 H 0.07838 0.46644 0.08555 0.0
H1008 H 0.07214 0.51329 0.86424 0.0
H1009 H 0.04037 0.44574 0.91975 0.0
H1010 H 0.13315 0.4946 0.91489 0.0
H1011 H 0.11755 0.50937 0.97389 0.0
H1012 H 0.11238 0.52055 0.89173 0.0
H1013 H 0.09423 0.41363 0.98597 0.0
H1014 H 0.06107 0.41422 0.98663 0.0
H1015 H 0.07776 0.42608 0.0474 0.0
C1016 C 0.99411 0.82058 0.49811 0.0
C1017 C 0.01775 0.81895 0.47264 0.0
C1018 C 0.98623 0.84041 0.52867 0.0
C1019 C 0.00211 0.8593 0.53201 0.0
C1020 C 0.02598 0.85763 0.50619 0.0
C1021 C 0.03356 0.8374 0.47747 0.0
C1022 C 0.96093 0.8412 0.55718 0.0
C1023 C 0.04335 0.87753 0.50744 0.0
C1024 C 0.97782 0.92324 0.54513 0.0
C1025 C 0.98543 0.92622 0.6064 0.0
C1026 C 0.98215 0.90125 0.52123 0.0
C1027 C 0.99375 0.88136 0.56002 0.0
C1028 C 0.99969 0.88357 0.62344 0.0
C1029 C 0.99573 0.90597 0.64566 0.0
C1030 C 0.97568 0.8998 0.45313 0.0
C1031 C 0.01151 0.86265 0.66701 0.0
H1032 H 0.98191 0.80627 0.49449 0.0
H1033 H 0.05172 0.83631 0.45701 0.0
H1034 H 0.96229 0.84391 0.60755 0.0
H1035 H 0.94947 0.85668 0.53275 0.0
H1036 H 0.9514 0.82447 0.55394 0.0
H1037 H 0.06122 0.87351 0.48496 0.0
H1038 H 0.0348 0.89461 0.48243 0.0
H1039 H 0.04695 0.88047 0.55685 0.0
H1040 H 0.96912 0.93832 0.51469 0.0
H1041 H 0.00168 0.90765 0.69309 0.0
H1042 H 0.96473 0.88404 0.44942 0.0
H1043 H 0.99281 0.89735 0.4261 0.0
H1044 H 0.96508 0.91625 0.43061 0.0
H1045 H 0.0028 0.84572 0.66117 0.0
H1046 H 0.01021 0.86563 0.71728 0.0
H1047 H 0.03125 0.86021 0.65526 0.0
C1048 C 0.68965 0.95828 0.47375 0.0
C1049 C 0.69462 0.98174 0.44794 0.0
C1050 C 0.66784 0.95376 0.5073 0.0
C1051 C 0.65048 0.9731 0.51385 0.0
C1052 C 0.65566 0.99681 0.48872 0.0
C1053 C 0.67764 0.00082 0.4564 0.0
C1054 C 0.66318 0.92833 0.53479 0.0
C1055 C 0.6376 0.01796 0.49405 0.0
C1056 C 0.58196 0.96728 0.53189 0.0
C1057 C 0.57824 0.97289 0.59341 0.0
C1058 C 0.60566 0.96551 0.50665 0.0
C1059 C 0.62628 0.9689 0.54424 0.0
C1060 C 0.62289 0.97215 0.60824 0.0
C1061 C 0.59895 0.97432 0.63192 0.0
C1062 C 0.6084 0.96201 0.43812 0.0
C1063 C 0.64438 0.97529 0.65052 0.0
H1064 H 0.70274 0.94348 0.46735 0.0
H1065 H 0.68107 0.01893 0.4354 0.0
H1066 H 0.65851 0.92762 0.58547 0.0
H1067 H 0.64719 0.92214 0.51048 0.0
H1068 H 0.67933 0.91563 0.53013 0.0
H1069 H 0.64458 0.0353 0.47253 0.0
H1070 H 0.61999 0.01537 0.4703 0.0
H1071 H 0.63354 0.01922 0.54436 0.0
H1072 H 0.56626 0.96532 0.50225 0.0
H1073 H 0.59664 0.97851 0.67958 0.0
H1074 H 0.62328 0.94811 0.43247 0.0
H1075 H 0.61357 0.97908 0.41056 0.0
H1076 H 0.59111 0.95667 0.41767 0.0
H1077 H 0.66065 0.96352 0.64075 0.0
H1078 H 0.63968 0.97124 0.70115 0.0
H1079 H 0.64961 0.99421 0.64172 0.0
C1080 C 0.4995 0.6828 0.4953 0.0
C1081 C 0.50018 0.68098 0.43049 0.0
C1082 C 0.50341 0.66232 0.54029 0.0
C1083 C 0.50817 0.63952 0.51989 0.0
C1084 C 0.51091 0.63786 0.45478 0.0
C1085 C 0.5068 0.65858 0.41088 0.0
C1086 C 0.50053 0.66487 0.60934 0.0
C1087 C 0.51607 0.61392 0.43102 0.0
C1088 C 0.52504 0.58413 0.63852 0.0
C1089 C 0.50207 0.5743 0.64827 0.0
C1090 C 0.52742 0.6055 0.59718 0.0
C1091 C 0.50635 0.61721 0.56508 0.0
C1092 C 0.48315 0.60735 0.57492 0.0
C1093 C 0.48132 0.58607 0.61624 0.0
C1094 C 0.55243 0.6155 0.58768 0.0
C1095 C 0.46019 0.61925 0.5416 0.0
H1096 H 0.49481 0.7001 0.51086 0.0
H1097 H 0.50713 0.65684 0.361 0.0
H1098 H 0.4828 0.65777 0.62614 0.0
H1099 H 0.51542 0.65421 0.63788 0.0
H1100 H 0.50065 0.68392 0.61808 0.0
H1101 H 0.52141 0.61607 0.38057 0.0
H1102 H 0.53095 0.60313 0.45927 0.0
H1103 H 0.49932 0.60356 0.43605 0.0
H1104 H 0.54115 0.57518 0.66325 0.0
H1105 H 0.46346 0.57868 0.62352 0.0
H1106 H 0.55189 0.63414 0.5997 0.0
H1107 H 0.55762 0.61635 0.53734 0.0
H1108 H 0.56693 0.60446 0.61695 0.0
H1109 H 0.45716 0.63794 0.5528 0.0
H1110 H 0.44352 0.60941 0.55512 0.0
H1111 H 0.4624 0.6203 0.48976 0.0
C1112 C 0.85289 0.56546 0.45988 0.0
C1113 C 0.82964 0.56571 0.4881 0.0
C1114 C 0.87448 0.56404 0.49643 0.0
C1115 C 0.87279 0.56271 0.56281 0.0
C1116 C 0.84945 0.56543 0.59088 0.0
C1117 C 0.82812 0.56694 0.55312 0.0
C1118 C 0.899 0.56142 0.46446 0.0
C1119 C 0.84686 0.56439 0.66144 0.0
C1120 C 0.92074 0.52048 0.65539 0.0
C1121 C 0.93679 0.53643 0.67632 0.0
C1122 C 0.89982 0.52893 0.61902 0.0
C1123 C 0.89474 0.55402 0.60288 0.0
C1124 C 0.91079 0.5703 0.62387 0.0
C1125 C 0.93167 0.5613 0.66046 0.0
C1126 C 0.8832 0.51091 0.5976 0.0
C1127 C 0.90597 0.59713 0.60738 0.0
H1128 H 0.85438 0.56433 0.40981 0.0
H1129 H 0.81023 0.56762 0.57511 0.0
H1130 H 0.91276 0.57213 0.48459 0.0
H1131 H 0.906 0.54228 0.47239 0.0
H1132 H 0.89752 0.56715 0.41276 0.0
H1133 H 0.82821 0.57107 0.67462 0.0
H1134 H 0.85011 0.54548 0.68381 0.0
H1135 H 0.86071 0.57513 0.68108 0.0
H1136 H 0.92447 0.50125 0.66747 0.0
H1137 H 0.94398 0.57374 0.67654 0.0
H1138 H 0.88229 0.51302 0.54529 0.0
H1139 H 0.86423 0.51421 0.61468 0.0
H1140 H 0.8896 0.49204 0.61498 0.0
H1141 H 0.90604 0.60203 0.55539 0.0
H1142 H 0.9199 0.6074 0.6286 0.0
H1143 H 0.88748 0.60277 0.62386 0.0
loop_
_geom_bond_atom_site_label_1
_geom_bond_atom_site_label_2
_geom_bond_distance
_geom_bond_site_symmetry_2
_ccdc_geom_bond_type
P0 O11 1.490 . S
P0 C14 1.812 . S
P0 C20 1.803 . S
P0 C26 1.819 . S
H1 C15 0.941 . S
H2 C16 0.939 . S
H3 C18 0.940 . S
H4 C19 0.940 . S
H5 C21 0.939 . S
H6 C22 0.942 . S
H7 C24 0.940 . S
H8 C25 0.939 . S
H9 C27 0.941 . S
H10 C31 0.939 . S
O11 P0 1.490 . S
H12 C28 0.939 . S
H13 C30 0.940 1_556 S
C14 P0 1.812 . S
C14 C15 1.389 . S
C14 C19 1.391 . S
C15 H1 0.941 . S
C15 C14 1.389 . S
C15 C16 1.397 . S
C16 H2 0.939 . S
C16 C15 1.397 . S
C16 C17 1.378 . S
C17 C16 1.378 . S
C17 C18 1.378 . S
C18 H3 0.940 . S
C18 C17 1.378 . S
C18 C19 1.396 . S
C19 H4 0.940 . S
C19 C14 1.391 . S
C19 C18 1.396 . S
C20 P0 1.803 . S
C20 C21 1.378 . S
C20 C25 1.400 . S
C21 H5 0.939 . S
C21 C20 1.378 . S
C21 C22 1.361 . S
C22 H6 0.942 . S
C22 C21 1.361 . S
C22 C23 1.369 . S
C23 C22 1.369 . S
C23 C24 1.404 . S
C24 H7 0.940 . S
C24 C23 1.404 . S
C24 C25 1.389 . S
C25 H8 0.939 . S
C25 C20 1.400 . S
C25 C24 1.389 . S
C26 P0 1.819 . S
C26 C27 1.391 . S
C26 C31 1.391 . S
C27 H9 0.941 . S
C27 C26 1.391 . S
C27 C28 1.396 . S
C28 H12 0.939 . S
C28 C27 1.396 . S
C28 C29 1.397 . S
C29 C28 1.397 . S
C29 C30 1.385 . S
C30 H13 0.940 1_554 S
C30 C29 1.385 . S
C30 C31 1.388 . S
C31 H10 0.939 . S
C31 C26 1.391 . S
C31 C30 1.388 . S
P32 O43 1.490 . S
P32 C46 1.812 . S
P32 C52 1.803 . S
P32 C58 1.819 . S
H33 C47 0.941 . S
H34 C48 0.939 . S
H35 C50 0.940 . S
H36 C51 0.950 . S
H37 C53 0.939 . S
H38 C54 0.942 . S
H39 C56 0.940 . S
H40 C57 0.958 . S
H41 C59 0.941 . S
H42 C63 0.927 1_655 S
O43 P32 1.490 . S
H44 C60 0.939 . S
H45 C62 0.940 . S
C46 P32 1.812 . S
C46 C47 1.389 . S
C46 C51 1.376 1_455 S
C47 H33 0.941 . S
C47 C46 1.389 . S
C47 C48 1.397 . S
C48 H34 0.939 . S
C48 C47 1.397 . S
C48 C49 1.378 . S
C49 C48 1.378 . S
C49 C50 1.378 1_455 S
C50 H35 0.940 . S
C50 C49 1.378 1_655 S
C50 C51 1.402 . S
C51 H36 0.950 . S
C51 C46 1.376 1_655 S
C51 C50 1.402 . S
C52 P32 1.803 . S
C52 C53 1.378 . S
C52 C57 1.368 1_455 S
C53 H37 0.939 . S
C53 C52 1.378 . S
C53 C54 1.361 . S
C54 H38 0.942 . S
C54 C53 1.361 . S
C54 C55 1.369 . S
C55 C54 1.369 . S
C55 C56 1.404 1_455 S
C56 H39 0.940 . S
C56 C55 1.404 1_655 S
C56 C57 1.404 . S
C57 H40 0.958 . S
C57 C52 1.368 1_655 S
C57 C56 1.404 . S
C58 P32 1.819 . S
C58 C59 1.391 . S
C58 C63 1.391 . S
C59 H41 0.941 . S
C59 C58 1.391 . S
C59 C60 1.396 . S
C60 H44 0.939 . S
C60 C59 1.396 . S
C60 C61 1.397 1_554 S
C61 C60 1.397 1_556 S
C61 C62 1.385 1_455 S
C62 H45 0.940 . S
C62 C61 1.385 1_655 S
C62 C63 1.388 1_656 S
C63 H42 0.927 1_455 S
C63 C58 1.391 . S
C63 C62 1.388 1_454 S
P64 O75 1.490 1_565 S
P64 C78 1.812 . S
P64 C84 1.803 . S
P64 C90 1.819 . S
H65 C79 0.941 . S
H66 C80 0.939 . S
H67 C82 0.940 . S
H68 C83 0.940 . S
H69 C85 0.939 . S
H70 C86 0.942 . S
H71 C88 0.940 . S
H72 C89 0.939 . S
H73 C91 0.941 . S
H74 C95 0.939 . S
O75 P64 1.490 1_545 S
H76 C92 0.939 1_556 S
H77 C94 0.940 . S
C78 P64 1.812 . S
C78 C79 1.389 . S
C78 C83 1.391 . S
C79 H65 0.941 . S
C79 C78 1.389 . S
C79 C80 1.397 . S
C80 H66 0.939 . S
C80 C79 1.397 . S
C80 C81 1.378 . S
C81 C80 1.378 . S
C81 C82 1.378 . S
C82 H67 0.940 . S
C82 C81 1.378 . S
C82 C83 1.396 . S
C83 H68 0.940 . S
C83 C78 1.391 . S
C83 C82 1.396 . S
C84 P64 1.803 . S
C84 C85 1.378 . S
C84 C89 1.400 . S
C85 H69 0.939 . S
C85 C84 1.378 . S
C85 C86 1.361 . S
C86 H70 0.942 . S
C86 C85 1.361 . S
C86 C87 1.369 . S
C87 C86 1.369 . S
C87 C88 1.404 . S
C88 H71 0.940 . S
C88 C87 1.404 . S
C88 C89 1.389 . S
C89 H72 0.939 . S
C89 C84 1.400 . S
C89 C88 1.389 . S
C90 P64 1.819 . S
C90 C91 1.391 . S
C90 C95 1.391 . S
C91 H73 0.941 . S
C91 C90 1.391 . S
C91 C92 1.396 . S
C92 H76 0.939 1_554 S
C92 C91 1.396 . S
C92 C93 1.397 1_554 S
C93 C92 1.397 1_556 S
C93 C94 1.385 . S
C94 H77 0.940 . S
C94 C93 1.385 . S
C94 C95 1.388 1_556 S
C95 H74 0.939 . S
C95 C90 1.391 . S
C95 C94 1.388 1_554 S
P96 O107 1.490 . S
P96 C110 1.812 . S
P96 C116 1.803 . S
P96 C122 1.819 . S
H97 C111 0.941 . S
H98 C112 0.939 . S
H99 C114 0.940 . S
H100 C115 0.940 . S
H101 C117 0.939 . S
H102 C118 0.942 . S
H103 C120 0.940 . S
H104 C121 0.939 . S
H105 C123 0.941 . S
H106 C127 0.939 . S
O107 P96 1.490 . S
H108 C124 0.939 . S
H109 C126 0.940 . S
C110 P96 1.812 . S
C110 C111 1.389 . S
C110 C115 1.391 . S
C111 H97 0.941 . S
C111 C110 1.389 . S
C111 C112 1.397 . S
C112 H98 0.939 . S
C112 C111 1.397 . S
C112 C113 1.378 . S
C113 C112 1.378 . S
C113 C114 1.378 . S
C114 H99 0.940 . S
C114 C113 1.378 . S
C114 C115 1.396 . S
C115 H100 0.940 . S
C115 C110 1.391 . S
C115 C114 1.396 . S
C116 P96 1.803 . S
C116 C117 1.378 . S
C116 C121 1.400 . S
C117 H101 0.939 . S
C117 C116 1.378 . S
C117 C118 1.361 . S
C118 H102 0.942 . S
C118 C117 1.361 . S
C118 C119 1.369 . S
C119 C118 1.369 . S
C119 C120 1.404 . S
C120 H103 0.940 . S
C120 C119 1.404 . S
C120 C121 1.389 . S
C121 H104 0.939 . S
C121 C116 1.400 . S
C121 C120 1.389 . S
C122 P96 1.819 . S
C122 C123 1.391 . S
C122 C127 1.391 . S
C123 H105 0.941 . S
C123 C122 1.391 . S
C123 C124 1.396 . S
C124 H108 0.939 . S
C124 C123 1.396 . S
C124 C125 1.388 1_554 S
C125 C124 1.388 1_556 S
C125 C126 1.383 . S
C126 H109 0.940 . S
C126 C125 1.383 . S
C126 C127 1.388 1_556 S
C127 H106 0.939 . S
C127 C122 1.391 . S
C127 C126 1.388 1_554 S
P128 O139 1.490 . S
P128 C142 1.812 . S
P128 C148 1.803 . S
P128 C154 1.819 . S
H129 C143 0.941 . S
H130 C144 0.939 . S
H131 C146 0.940 . S
H132 C147 0.940 . S
H133 C149 0.939 . S
H134 C150 0.942 . S
H135 C152 0.940 . S
H136 C153 0.939 . S
H137 C155 0.941 . S
H138 C159 0.939 . S
O139 P128 1.490 . S
H140 C156 0.939 . S
H141 C158 0.940 . S
C142 P128 1.812 . S
C142 C143 1.389 . S
C142 C147 1.391 . S
C143 H129 0.941 . S
C143 C142 1.389 . S
C143 C144 1.397 . S
C144 H130 0.939 . S
C144 C143 1.397 . S
C144 C145 1.378 . S
C145 C144 1.378 . S
C145 C146 1.378 . S
C146 H131 0.940 . S
C146 C145 1.378 . S
C146 C147 1.396 . S
C147 H132 0.940 . S
C147 C142 1.391 . S
C147 C146 1.396 . S
C148 P128 1.803 . S
C148 C149 1.378 . S
C148 C153 1.400 . S
C149 H133 0.939 . S
C149 C148 1.378 . S
C149 C150 1.361 . S
C150 H134 0.942 . S
C150 C149 1.361 . S
C150 C151 1.369 . S
C151 C150 1.369 . S
C151 C152 1.404 . S
C152 H135 0.940 . S
C152 C151 1.404 . S
C152 C153 1.389 . S
C153 H136 0.939 . S
C153 C148 1.400 . S
C153 C152 1.389 . S
C154 P128 1.819 . S
C154 C155 1.391 . S
C154 C159 1.391 . S
C155 H137 0.941 . S
C155 C154 1.391 . S
C155 C156 1.396 . S
C156 H140 0.939 . S
C156 C155 1.396 . S
C156 C157 1.397 . S
C157 C156 1.397 . S
C157 C158 1.385 . S
C158 H141 0.940 . S
C158 C157 1.385 . S
C158 C159 1.388 . S
C159 H138 0.939 . S
C159 C154 1.391 . S
C159 C158 1.388 . S
P160 O171 1.490 . S
P160 C174 1.812 . S
P160 C180 1.803 . S
P160 C186 1.819 . S
H161 C175 0.941 . S
H162 C176 0.939 . S
H163 C178 0.940 . S
H164 C179 0.944 . S
H165 C181 0.939 . S
H166 C182 0.942 . S
H167 C184 0.940 . S
H168 C185 0.954 . S
H169 C187 0.941 . S
H170 C191 0.934 1_655 S
O171 P160 1.490 . S
H172 C188 0.939 . S
H173 C190 0.940 . S
C174 P160 1.812 . S
C174 C175 1.389 . S
C174 C179 1.385 1_455 S
C175 H161 0.941 . S
C175 C174 1.389 . S
C175 C176 1.397 . S
C176 H162 0.939 . S
C176 C175 1.397 . S
C176 C177 1.378 . S
C177 C176 1.378 . S
C177 C178 1.378 1_455 S
C178 H163 0.940 . S
C178 C177 1.378 1_655 S
C178 C179 1.399 . S
C179 H164 0.944 . S
C179 C174 1.385 1_655 S
C179 C178 1.399 . S
C180 P160 1.803 . S
C180 C181 1.378 . S
C180 C185 1.379 1_455 S
C181 H165 0.939 . S
C181 C180 1.378 . S
C181 C182 1.361 . S
C182 H166 0.942 . S
C182 C181 1.361 . S
C182 C183 1.369 . S
C183 C182 1.369 . S
C183 C184 1.404 1_455 S
C184 H167 0.940 . S
C184 C183 1.404 1_655 S
C184 C185 1.396 . S
C185 H168 0.954 . S
C185 C180 1.379 1_655 S
C185 C184 1.396 . S
C186 P160 1.819 . S
C186 C187 1.391 . S
C186 C191 1.391 . S
C187 H169 0.941 . S
C187 C186 1.391 . S
C187 C188 1.396 . S
C188 H172 0.939 . S
C188 C187 1.396 . S
C188 C189 1.397 . S
C189 C188 1.397 . S
C189 C190 1.385 1_455 S
C190 H173 0.940 . S
C190 C189 1.385 1_655 S
C190 C191 1.388 1_655 S
C191 H170 0.934 1_455 S
C191 C186 1.391 . S
C191 C190 1.388 1_455 S
P192 O203 1.490 . S
P192 C206 1.812 . S
P192 C212 1.803 . S
P192 C218 1.819 . S
H193 C207 0.941 . S
H194 C208 0.939 . S
H195 C210 0.940 . S
H196 C211 0.940 . S
H197 C213 0.939 . S
H198 C214 0.942 . S
H199 C216 0.940 . S
H200 C217 0.939 . S
H201 C219 0.941 . S
H202 C223 0.939 . S
O203 P192 1.490 . S
H204 C220 0.939 . S
H205 C222 0.940 . S
C206 P192 1.812 . S
C206 C207 1.389 . S
C206 C211 1.391 . S
C207 H193 0.941 . S
C207 C206 1.389 . S
C207 C208 1.397 . S
C208 H194 0.939 . S
C208 C207 1.397 . S
C208 C209 1.378 . S
C209 C208 1.378 . S
C209 C210 1.378 . S
C210 H195 0.940 . S
C210 C209 1.378 . S
C210 C211 1.396 . S
C211 H196 0.940 . S
C211 C206 1.391 . S
C211 C210 1.396 . S
C212 P192 1.803 . S
C212 C213 1.378 . S
C212 C217 1.400 . S
C213 H197 0.939 . S
C213 C212 1.378 . S
C213 C214 1.361 . S
C214 H198 0.942 . S
C214 C213 1.361 . S
C214 C215 1.369 . S
C215 C214 1.369 . S
C215 C216 1.404 . S
C216 H199 0.940 . S
C216 C215 1.404 . S
C216 C217 1.389 . S
C217 H200 0.939 . S
C217 C212 1.400 . S
C217 C216 1.389 . S
C218 P192 1.819 . S
C218 C219 1.391 . S
C218 C223 1.391 . S
C219 H201 0.941 . S
C219 C218 1.391 . S
C219 C220 1.396 . S
C220 H204 0.939 . S
C220 C219 1.396 . S
C220 C221 1.397 . S
C221 C220 1.397 . S
C221 C222 1.385 . S
C222 H205 0.940 . S
C222 C221 1.385 . S
C222 C223 1.388 . S
C223 H202 0.939 . S
C223 C218 1.391 . S
C223 C222 1.388 . S
P224 O235 1.490 . S
P224 C238 1.812 . S
P224 C244 1.803 . S
P224 C250 1.819 . S
H225 C239 0.941 . S
H226 C240 0.939 . S
H227 C242 0.940 . S
H228 C243 0.940 . S
H229 C245 0.939 . S
H230 C246 0.942 . S
H231 C248 0.940 . S
H232 C249 0.939 . S
H233 C251 0.941 . S
H234 C255 0.939 . S
O235 P224 1.490 . S
H236 C252 0.939 . S
H237 C254 0.940 . S
C238 P224 1.812 . S
C238 C239 1.389 . S
C238 C243 1.391 . S
C239 H225 0.941 . S
C239 C238 1.389 . S
C239 C240 1.397 . S
C240 H226 0.939 . S
C240 C239 1.397 . S
C240 C241 1.378 . S
C241 C240 1.378 . S
C241 C242 1.378 . S
C242 H227 0.940 . S
C242 C241 1.378 . S
C242 C243 1.396 . S
C243 H228 0.940 . S
C243 C238 1.391 . S
C243 C242 1.396 . S
C244 P224 1.803 . S
C244 C245 1.378 . S
C244 C249 1.400 . S
C245 H229 0.939 . S
C245 C244 1.378 . S
C245 C246 1.361 . S
C246 H230 0.942 . S
C246 C245 1.361 . S
C246 C247 1.369 . S
C247 C246 1.369 . S
C247 C248 1.404 . S
C248 H231 0.940 . S
C248 C247 1.404 . S
C248 C249 1.389 . S
C249 H232 0.939 . S
C249 C244 1.400 . S
C249 C248 1.389 . S
C250 P224 1.819 . S
C250 C251 1.391 . S
C250 C255 1.391 . S
C251 H233 0.941 . S
C251 C250 1.391 . S
C251 C252 1.396 . S
C252 H236 0.939 . S
C252 C251 1.396 . S
C252 C253 1.397 . S
C253 C252 1.397 . S
C253 C254 1.385 . S
C254 H237 0.940 . S
C254 C253 1.385 . S
C254 C255 1.388 . S
C255 H234 0.939 . S
C255 C250 1.391 . S
C255 C254 1.388 . S
Co256 N261 2.057 . S
Co256 O273 2.021 . S
Co256 O276 2.062 1_455 S
Co256 O280 2.117 1_455 S
Co256 O281 2.020 1_545 S
C257 O277 1.259 1_545 S
C257 O280 1.258 . S
Co258 N267 2.056 . S
Co258 O274 2.117 1_665 S
Co258 O275 2.021 1_565 S
Co258 O277 2.021 . S
Co258 O282 2.061 1_655 S
C259 N261 1.316 . S
C259 N262 1.347 . S
C259 H264 0.931 . S
C260 N261 1.375 1_655 S
C260 C263 1.350 . S
C260 H265 0.930 . S
N261 Co256 2.057 . S
N261 C259 1.316 . S
N261 C260 1.375 1_455 S
N262 C259 1.347 . S
N262 C263 1.373 1_455 S
C263 C260 1.350 . S
C263 N262 1.373 1_655 S
C263 H284 0.931 1_556 S
H264 C259 0.931 . S
H265 C260 0.930 . S
C266 O273 1.259 . S
C266 O274 1.258 . S
N267 Co258 2.056 . S
N267 C268 1.316 . S
N267 C269 1.375 1_655 S
C268 N267 1.316 . S
C268 N270 1.347 . S
C268 H279 0.931 . S
C269 N267 1.375 1_455 S
C269 C271 1.350 . S
C269 H278 0.930 . S
N270 C268 1.347 . S
N270 C271 1.373 1_655 S
C271 C269 1.350 . S
C271 N270 1.373 1_455 S
C271 H285 0.931 . S
C272 O275 1.256 . S
C272 O276 1.255 . S
O273 Co256 2.021 . S
O273 C266 1.259 . S
O274 Co258 2.117 1_445 S
O274 C266 1.258 . S
O275 Co258 2.021 1_545 S
O275 C272 1.256 . S
O276 Co256 2.062 1_655 S
O276 C272 1.255 . S
O277 C257 1.259 1_565 S
O277 Co258 2.021 . S
H278 C269 0.930 . S
H279 C268 0.931 . S
O280 Co256 2.117 1_655 S
O280 C257 1.258 . S
O281 Co256 2.020 1_565 S
O281 C283 1.256 . S
O282 Co258 2.061 1_455 S
O282 C283 1.255 . S
C283 O281 1.256 . S
C283 O282 1.255 . S
H284 C263 0.931 1_554 S
H285 C271 0.931 . S
Co286 N291 2.057 . S
Co286 O303 2.021 . S
Co286 O306 2.062 . S
Co286 O310 2.117 1_545 S
Co286 O311 2.020 . S
C287 O307 1.259 . S
C287 O310 1.258 . S
Co288 N297 2.057 . S
Co288 O304 2.117 . S
Co288 O305 2.020 . S
Co288 O307 2.021 1_545 S
Co288 O312 2.064 1_545 S
C289 N291 1.316 . S
C289 N292 1.347 . S
C289 H294 0.931 . S
C290 N291 1.375 . S
C290 C293 1.350 . S
C290 H295 0.930 1_545 S
N291 Co286 2.057 . S
N291 C289 1.316 . S
N291 C290 1.375 . S
N292 C289 1.347 . S
N292 C293 1.373 . S
C293 C290 1.350 . S
C293 N292 1.373 . S
C293 H314 0.931 1_556 S
H294 C289 0.931 . S
H295 C290 0.930 1_565 S
C296 O303 1.259 . S
C296 O304 1.258 . S
N297 Co288 2.057 . S
N297 C298 1.316 1_545 S
N297 C299 1.375 . S
C298 N297 1.316 1_565 S
C298 N300 1.347 . S
C298 H309 0.931 . S
C299 N297 1.375 . S
C299 C301 1.350 . S
C299 H308 0.930 . S
N300 C298 1.347 . S
N300 C301 1.373 1_565 S
C301 C299 1.350 . S
C301 N300 1.373 1_545 S
C301 H315 0.931 . S
C302 O305 1.256 . S
C302 O306 1.255 . S
O303 Co286 2.021 . S
O303 C296 1.259 . S
O304 Co288 2.117 . S
O304 C296 1.258 . S
O305 Co288 2.020 . S
O305 C302 1.256 . S
O306 Co286 2.062 . S
O306 C302 1.255 . S
O307 C287 1.259 . S
O307 Co288 2.021 1_565 S
H308 C299 0.930 . S
H309 C298 0.931 . S
O310 Co286 2.117 1_565 S
O310 C287 1.258 . S
O311 Co286 2.020 . S
O311 C313 1.256 . S
O312 Co288 2.064 1_565 S
O312 C313 1.239 1_565 S
C313 O311 1.256 . S
C313 O312 1.239 1_545 S
H314 C293 0.931 1_554 S
H315 C301 0.931 . S
Co316 N321 2.057 . S
Co316 O333 2.021 . S
Co316 O336 2.062 . S
Co316 O340 2.117 . S
Co316 O341 2.020 . S
C317 O337 1.259 . S
C317 O340 1.258 . S
Co318 N327 2.057 . S
Co318 O334 2.117 . S
Co318 O335 2.020 . S
Co318 O337 2.021 . S
Co318 O342 2.062 . S
C319 N321 1.316 . S
C319 N322 1.347 . S
C319 H324 0.931 . S
C320 N321 1.375 . S
C320 C323 1.350 . S
C320 H325 0.930 . S
N321 Co316 2.057 . S
N321 C319 1.316 . S
N321 C320 1.375 . S
N322 C319 1.347 . S
N322 C323 1.373 . S
C323 C320 1.350 . S
C323 N322 1.373 . S
C323 H344 0.931 . S
H324 C319 0.931 . S
H325 C320 0.930 . S
C326 O333 1.259 . S
C326 O334 1.258 . S
N327 Co318 2.057 . S
N327 C328 1.316 . S
N327 C329 1.375 . S
C328 N327 1.316 . S
C328 N330 1.347 . S
C328 H339 0.931 . S
C329 N327 1.375 . S
C329 C331 1.350 . S
C329 H338 0.930 . S
N330 C328 1.347 . S
N330 C331 1.373 . S
C331 C329 1.350 . S
C331 N330 1.373 . S
C331 H345 0.931 . S
C332 O335 1.256 . S
C332 O336 1.255 . S
O333 Co316 2.021 . S
O333 C326 1.259 . S
O334 Co318 2.117 . S
O334 C326 1.258 . S
O335 Co318 2.020 . S
O335 C332 1.256 . S
O336 Co316 2.062 . S
O336 C332 1.255 . S
O337 C317 1.259 . S
O337 Co318 2.021 . S
H338 C329 0.930 . S
H339 C328 0.931 . S
O340 Co316 2.117 . S
O340 C317 1.258 . S
O341 Co316 2.020 . S
O341 C343 1.256 . S
O342 Co318 2.062 . S
O342 C343 1.255 . S
C343 O341 1.256 . S
C343 O342 1.255 . S
H344 C323 0.931 . S
H345 C331 0.931 . S
Co346 N351 2.057 . S
Co346 O363 2.021 1_455 S
Co346 O366 2.062 1_455 S
Co346 O370 2.117 . S
Co346 O371 2.020 . S
C347 O367 1.259 . S
C347 O370 1.258 . S
Co348 N357 2.057 . S
Co348 O364 2.117 . S
Co348 O365 2.020 . S
Co348 O367 2.021 1_655 S
Co348 O372 2.062 1_655 S
C349 N351 1.316 . S
C349 N352 1.347 . S
C349 H354 0.931 1_455 S
C350 N351 1.375 . S
C350 C353 1.350 . S
C350 H355 0.930 . S
N351 Co346 2.057 . S
N351 C349 1.316 . S
N351 C350 1.375 . S
N352 C349 1.347 . S
N352 C353 1.373 . S
C353 C350 1.350 . S
C353 N352 1.373 . S
C353 H374 0.931 . S
H354 C349 0.931 1_655 S
H355 C350 0.930 . S
C356 O363 1.259 . S
C356 O364 1.258 . S
N357 Co348 2.057 . S
N357 C358 1.316 . S
N357 C359 1.375 . S
C358 N357 1.316 . S
C358 N360 1.347 . S
C358 H369 0.931 1_655 S
C359 N357 1.375 . S
C359 C361 1.350 . S
C359 H368 0.930 . S
N360 C358 1.347 . S
N360 C361 1.373 . S
C361 C359 1.350 . S
C361 N360 1.373 . S
C361 H375 0.931 . S
C362 O365 1.256 . S
C362 O366 1.255 . S
O363 Co346 2.021 1_655 S
O363 C356 1.259 . S
O364 Co348 2.117 . S
O364 C356 1.258 . S
O365 Co348 2.020 . S
O365 C362 1.256 . S
O366 Co346 2.062 1_655 S
O366 C362 1.255 . S
O367 C347 1.259 . S
O367 Co348 2.021 1_455 S
H368 C359 0.930 . S
H369 C358 0.931 1_455 S
O370 Co346 2.117 . S
O370 C347 1.258 . S
O371 Co346 2.020 . S
O371 C373 1.256 . S
O372 Co348 2.062 1_455 S
O372 C373 1.255 . S
C373 O371 1.256 . S
C373 O372 1.255 . S
H374 C353 0.931 . S
H375 C361 0.931 . S
C376 C377 1.391 . S
C376 C378 1.394 . S
C376 H392 0.931 . S
C377 C376 1.391 . S
C377 C381 1.376 . S
C378 C376 1.394 . S
C378 C379 1.369 . S
C378 C382 1.531 . S
C379 C378 1.369 . S
C379 C380 1.410 . S
C379 C387 1.503 . S
C380 C379 1.410 . S
C380 C381 1.392 . S
C380 C383 1.511 . S
C381 C377 1.376 . S
C381 C380 1.392 . S
C381 H393 0.929 . S
C382 C378 1.531 . S
C382 H394 0.960 . S
C382 H395 0.962 . S
C382 H396 0.960 . S
C383 C380 1.511 . S
C383 H397 0.961 . S
C383 H398 0.961 . S
C383 H399 0.961 . S
C384 C385 1.370 . S
C384 C386 1.363 . S
C384 H400 0.931 1_545 S
C385 C384 1.370 . S
C385 C389 1.408 . S
C386 C384 1.363 . S
C386 C387 1.370 . S
C386 C390 1.524 . S
C387 C379 1.503 . S
C387 C386 1.370 . S
C387 C388 1.403 . S
C388 C387 1.403 . S
C388 C389 1.404 . S
C388 C391 1.539 . S
C389 C385 1.408 . S
C389 C388 1.404 . S
C389 H401 0.930 . S
C390 C386 1.524 . S
C390 H402 0.956 . S
C390 H403 0.961 . S
C390 H404 0.961 1_545 S
C391 C388 1.539 . S
C391 H405 0.958 . S
C391 H406 0.961 . S
C391 H407 0.960 . S
H392 C376 0.931 . S
H393 C381 0.929 . S
H394 C382 0.960 . S
H395 C382 0.962 . S
H396 C382 0.960 . S
H397 C383 0.961 . S
H398 C383 0.961 . S
H399 C383 0.961 . S
H400 C384 0.931 1_565 S
H401 C389 0.930 . S
H402 C390 0.956 . S
H403 C390 0.961 . S
H404 C390 0.961 1_565 S
H405 C391 0.958 . S
H406 C391 0.961 . S
H407 C391 0.960 . S
C408 C409 1.391 . S
C408 C410 1.394 . S
C408 H424 0.931 . S
C409 C408 1.391 . S
C409 C413 1.376 . S
C410 C408 1.394 . S
C410 C411 1.369 . S
C410 C414 1.531 . S
C411 C410 1.369 . S
C411 C412 1.410 . S
C411 C419 1.503 . S
C412 C411 1.410 . S
C412 C413 1.392 . S
C412 C415 1.511 . S
C413 C409 1.376 . S
C413 C412 1.392 . S
C413 H425 0.929 . S
C414 C410 1.531 . S
C414 H426 0.960 . S
C414 H427 0.962 . S
C414 H428 0.960 . S
C415 C412 1.511 . S
C415 H429 0.961 . S
C415 H430 0.961 . S
C415 H431 0.961 . S
C416 C417 1.370 . S
C416 C418 1.363 . S
C416 H432 0.931 . S
C417 C416 1.370 . S
C417 C421 1.408 . S
C418 C416 1.363 . S
C418 C419 1.370 . S
C418 C422 1.524 . S
C419 C411 1.503 . S
C419 C418 1.370 . S
C419 C420 1.403 . S
C420 C419 1.403 . S
C420 C421 1.404 . S
C420 C423 1.539 . S
C421 C417 1.408 . S
C421 C420 1.404 . S
C421 H433 0.930 . S
C422 C418 1.524 . S
C422 H434 0.956 . S
C422 H435 0.961 . S
C422 H436 0.961 . S
C423 C420 1.539 . S
C423 H437 0.958 . S
C423 H438 0.961 . S
C423 H439 0.960 . S
H424 C408 0.931 . S
H425 C413 0.929 . S
H426 C414 0.960 . S
H427 C414 0.962 . S
H428 C414 0.960 . S
H429 C415 0.961 . S
H430 C415 0.961 . S
H431 C415 0.961 . S
H432 C416 0.931 . S
H433 C421 0.930 . S
H434 C422 0.956 . S
H435 C422 0.961 . S
H436 C422 0.961 . S
H437 C423 0.958 . S
H438 C423 0.961 . S
H439 C423 0.960 . S
C440 C441 1.391 . S
C440 C442 1.394 . S
C440 H456 0.931 . S
C441 C440 1.391 . S
C441 C445 1.376 . S
C442 C440 1.394 . S
C442 C443 1.369 . S
C442 C446 1.531 . S
C443 C442 1.369 . S
C443 C444 1.410 . S
C443 C451 1.503 . S
C444 C443 1.410 . S
C444 C445 1.392 . S
C444 C447 1.511 . S
C445 C441 1.376 . S
C445 C444 1.392 . S
C445 H457 0.929 . S
C446 C442 1.531 . S
C446 H458 0.960 . S
C446 H459 0.962 . S
C446 H460 0.960 . S
C447 C444 1.511 . S
C447 H461 0.961 . S
C447 H462 0.961 . S
C447 H463 0.961 . S
C448 C449 1.370 . S
C448 C450 1.363 . S
C448 H464 0.931 . S
C449 C448 1.370 . S
C449 C453 1.408 . S
C450 C448 1.363 . S
C450 C451 1.370 . S
C450 C454 1.524 . S
C451 C443 1.503 . S
C451 C450 1.370 . S
C451 C452 1.403 . S
C452 C451 1.403 . S
C452 C453 1.404 . S
C452 C455 1.539 . S
C453 C449 1.408 . S
C453 C452 1.404 . S
C453 H465 0.930 . S
C454 C450 1.524 . S
C454 H466 0.956 . S
C454 H467 0.961 . S
C454 H468 0.961 . S
C455 C452 1.539 . S
C455 H469 0.958 . S
C455 H470 0.961 . S
C455 H471 0.960 . S
H456 C440 0.931 . S
H457 C445 0.929 . S
H458 C446 0.960 . S
H459 C446 0.962 . S
H460 C446 0.960 . S
H461 C447 0.961 . S
H462 C447 0.961 . S
H463 C447 0.961 . S
H464 C448 0.931 . S
H465 C453 0.930 . S
H466 C454 0.956 . S
H467 C454 0.961 . S
H468 C454 0.961 . S
H469 C455 0.958 . S
H470 C455 0.961 . S
H471 C455 0.960 . S
C472 C473 1.391 . S
C472 C474 1.394 . S
C472 H488 0.931 . S
C473 C472 1.391 . S
C473 C477 1.376 . S
C474 C472 1.394 . S
C474 C475 1.369 . S
C474 C478 1.531 . S
C475 C474 1.369 . S
C475 C476 1.410 . S
C475 C483 1.503 . S
C476 C475 1.410 . S
C476 C477 1.392 . S
C476 C479 1.511 . S
C477 C473 1.376 . S
C477 C476 1.392 . S
C477 H489 0.929 . S
C478 C474 1.531 . S
C478 H490 0.960 . S
C478 H491 0.962 1_655 S
C478 H492 0.960 . S
C479 C476 1.511 . S
C479 H493 0.961 . S
C479 H494 0.961 . S
C479 H495 0.961 . S
C480 C481 1.370 1_455 S
C480 C482 1.363 . S
C480 H496 0.931 . S
C481 C480 1.370 1_655 S
C481 C485 1.408 . S
C482 C480 1.363 . S
C482 C483 1.370 1_455 S
C482 C486 1.524 . S
C483 C475 1.503 . S
C483 C482 1.370 1_655 S
C483 C484 1.403 . S
C484 C483 1.403 . S
C484 C485 1.404 . S
C484 C487 1.539 . S
C485 C481 1.408 . S
C485 C484 1.404 . S
C485 H497 0.930 . S
C486 C482 1.524 . S
C486 H498 0.956 . S
C486 H499 0.961 . S
C486 H500 0.961 . S
C487 C484 1.539 . S
C487 H501 0.958 . S
C487 H502 0.961 . S
C487 H503 0.960 . S
H488 C472 0.931 . S
H489 C477 0.929 . S
H490 C478 0.960 . S
H491 C478 0.962 1_455 S
H492 C478 0.960 . S
H493 C479 0.961 . S
H494 C479 0.961 . S
H495 C479 0.961 . S
H496 C480 0.931 . S
H497 C485 0.930 . S
H498 C486 0.956 . S
H499 C486 0.961 . S
H500 C486 0.961 . S
H501 C487 0.958 . S
H502 C487 0.961 . S
H503 C487 0.960 . S
C504 C505 1.391 1_556 S
C504 C506 1.394 . S
C504 H520 0.931 . S
C505 C504 1.391 1_554 S
C505 C509 1.376 . S
C506 C504 1.394 . S
C506 C507 1.369 . S
C506 C510 1.531 . S
C507 C506 1.369 . S
C507 C508 1.410 1_556 S
C507 C515 1.503 . S
C508 C507 1.410 1_554 S
C508 C509 1.392 . S
C508 C511 1.511 . S
C509 C505 1.376 . S
C509 C508 1.392 . S
C509 H521 0.929 . S
C510 C506 1.531 . S
C510 H522 0.960 1_565 S
C510 H523 0.962 . S
C510 H524 0.960 1_565 S
C511 C508 1.511 . S
C511 H525 0.961 . S
C511 H526 0.961 . S
C511 H527 0.961 . S
C512 C513 1.370 . S
C512 C514 1.363 . S
C512 H528 0.931 . S
C513 C512 1.370 . S
C513 C517 1.408 1_565 S
C514 C512 1.363 . S
C514 C515 1.370 . S
C514 C518 1.524 . S
C515 C507 1.503 . S
C515 C514 1.370 . S
C515 C516 1.403 1_565 S
C516 C515 1.403 1_545 S
C516 C517 1.404 . S
C516 C519 1.539 . S
C517 C513 1.408 1_545 S
C517 C516 1.404 . S
C517 H529 0.930 . S
C518 C514 1.524 . S
C518 H530 0.956 . S
C518 H531 0.961 . S
C518 H532 0.961 . S
C519 C516 1.539 . S
C519 H533 0.958 . S
C519 H534 0.961 . S
C519 H535 0.960 1_556 S
H520 C504 0.931 . S
H521 C509 0.929 . S
H522 C510 0.960 1_545 S
H523 C510 0.962 . S
H524 C510 0.960 1_545 S
H525 C511 0.961 . S
H526 C511 0.961 . S
H527 C511 0.961 . S
H528 C512 0.931 . S
H529 C517 0.930 . S
H530 C518 0.956 . S
H531 C518 0.961 . S
H532 C518 0.961 . S
H533 C519 0.958 . S
H534 C519 0.961 . S
H535 C519 0.960 1_554 S
C536 C537 1.391 . S
C536 C538 1.394 . S
C536 H552 0.931 . S
C537 C536 1.391 . S
C537 C541 1.376 1_554 S
C538 C536 1.394 . S
C538 C539 1.369 1_554 S
C538 C542 1.531 . S
C539 C538 1.369 1_556 S
C539 C540 1.410 . S
C539 C547 1.503 . S
C540 C539 1.410 . S
C540 C541 1.392 . S
C540 C543 1.511 . S
C541 C537 1.376 1_556 S
C541 C540 1.392 . S
C541 H553 0.929 . S
C542 C538 1.531 . S
C542 H554 0.960 . S
C542 H555 0.962 . S
C542 H556 0.960 . S
C543 C540 1.511 . S
C543 H557 0.961 . S
C543 H558 0.961 . S
C543 H559 0.961 . S
C544 C545 1.370 . S
C544 C546 1.363 . S
C544 H560 0.931 . S
C545 C544 1.370 . S
C545 C549 1.408 . S
C546 C544 1.363 . S
C546 C547 1.370 . S
C546 C550 1.524 . S
C547 C539 1.503 . S
C547 C546 1.370 . S
C547 C548 1.403 . S
C548 C547 1.403 . S
C548 C549 1.404 . S
C548 C551 1.539 . S
C549 C545 1.408 . S
C549 C548 1.404 . S
C549 H561 0.930 . S
C550 C546 1.524 . S
C550 H562 0.956 1_556 S
C550 H563 0.961 . S
C550 H564 0.961 . S
C551 C548 1.539 . S
C551 H565 0.958 . S
C551 H566 0.961 . S
C551 H567 0.960 . S
H552 C536 0.931 . S
H553 C541 0.929 . S
H554 C542 0.960 . S
H555 C542 0.962 . S
H556 C542 0.960 . S
H557 C543 0.961 . S
H558 C543 0.961 . S
H559 C543 0.961 . S
H560 C544 0.931 . S
H561 C549 0.930 . S
H562 C550 0.956 1_554 S
H563 C550 0.961 . S
H564 C550 0.961 . S
H565 C551 0.958 . S
H566 C551 0.961 . S
H567 C551 0.960 . S
C568 C569 1.391 . S
C568 C570 1.394 . S
C568 H584 0.931 . S
C569 C568 1.391 . S
C569 C573 1.376 . S
C570 C568 1.394 . S
C570 C571 1.369 1_554 S
C570 C574 1.531 . S
C571 C570 1.369 1_556 S
C571 C572 1.410 . S
C571 C579 1.503 . S
C572 C571 1.410 . S
C572 C573 1.392 1_556 S
C572 C575 1.511 . S
C573 C569 1.376 . S
C573 C572 1.392 1_554 S
C573 H585 0.929 . S
C574 C570 1.531 . S
C574 H586 0.960 1_554 S
C574 H587 0.962 . S
C574 H588 0.960 . S
C575 C572 1.511 . S
C575 H589 0.961 . S
C575 H590 0.961 . S
C575 H591 0.961 . S
C576 C577 1.370 . S
C576 C578 1.363 . S
C576 H592 0.931 . S
C577 C576 1.370 . S
C577 C581 1.408 . S
C578 C576 1.363 . S
C578 C579 1.370 . S
C578 C582 1.524 1_556 S
C579 C571 1.503 . S
C579 C578 1.370 . S
C579 C580 1.403 . S
C580 C579 1.403 . S
C580 C581 1.404 . S
C580 C583 1.539 . S
C581 C577 1.408 . S
C581 C580 1.404 . S
C581 H593 0.930 . S
C582 C578 1.524 1_554 S
C582 H594 0.956 . S
C582 H595 0.961 . S
C582 H596 0.961 . S
C583 C580 1.539 . S
C583 H597 0.958 . S
C583 H598 0.961 . S
C583 H599 0.960 . S
H584 C568 0.931 . S
H585 C573 0.929 . S
H586 C574 0.960 1_556 S
H587 C574 0.962 . S
H588 C574 0.960 . S
H589 C575 0.961 . S
H590 C575 0.961 . S
H591 C575 0.961 . S
H592 C576 0.931 . S
H593 C581 0.930 . S
H594 C582 0.956 . S
H595 C582 0.961 . S
H596 C582 0.961 . S
H597 C583 0.958 . S
H598 C583 0.961 . S
H599 C583 0.960 . S
C600 C601 1.373 1_455 S
C600 C602 1.394 . S
C600 H616 0.931 . S
C601 C600 1.373 1_655 S
C601 C605 1.395 . S
C602 C600 1.394 . S
C602 C603 1.369 1_554 S
C602 C606 1.531 . S
C603 C602 1.369 1_556 S
C603 C604 1.410 1_455 S
C603 C611 1.503 . S
C604 C603 1.410 1_655 S
C604 C605 1.392 1_556 S
C604 C607 1.511 . S
C605 C601 1.395 . S
C605 C604 1.392 1_554 S
C605 H617 0.929 . S
C606 C602 1.531 . S
C606 H618 0.960 . S
C606 H619 0.962 . S
C606 H620 0.960 . S
C607 C604 1.511 . S
C607 H621 0.961 . S
C607 H622 0.961 . S
C607 H623 0.961 . S
C608 C609 1.370 . S
C608 C610 1.363 . S
C608 H624 0.931 . S
C609 C608 1.370 . S
C609 C613 1.408 1_455 S
C610 C608 1.363 . S
C610 C611 1.370 . S
C610 C614 1.524 . S
C611 C603 1.503 . S
C611 C610 1.370 . S
C611 C612 1.403 1_455 S
C612 C611 1.403 1_655 S
C612 C613 1.404 . S
C612 C615 1.539 . S
C613 C609 1.408 1_655 S
C613 C612 1.404 . S
C613 H625 0.930 . S
C614 C610 1.524 . S
C614 H626 0.956 . S
C614 H627 0.961 . S
C614 H628 0.961 . S
C615 C612 1.539 . S
C615 H629 0.958 1_556 S
C615 H630 0.961 . S
C615 H631 0.960 1_556 S
H616 C600 0.931 . S
H617 C605 0.929 . S
H618 C606 0.960 . S
H619 C606 0.962 . S
H620 C606 0.960 . S
H621 C607 0.961 . S
H622 C607 0.961 . S
H623 C607 0.961 . S
H624 C608 0.931 . S
H625 C613 0.930 . S
H626 C614 0.956 . S
H627 C614 0.961 . S
H628 C614 0.961 . S
H629 C615 0.958 1_554 S
H630 C615 0.961 . S
H631 C615 0.960 1_554 S
C632 C633 1.391 . S
C632 C634 1.394 . S
C632 H648 0.931 . S
C633 C632 1.391 . S
C633 C637 1.376 1_455 S
C634 C632 1.394 . S
C634 C635 1.369 1_455 S
C634 C638 1.531 . S
C635 C634 1.369 1_655 S
C635 C636 1.410 . S
C635 C643 1.503 . S
C636 C635 1.410 . S
C636 C637 1.392 . S
C636 C639 1.511 . S
C637 C633 1.376 1_655 S
C637 C636 1.392 . S
C637 H649 0.929 . S
C638 C634 1.531 . S
C638 H650 0.960 . S
C638 H651 0.962 . S
C638 H652 0.960 . S
C639 C636 1.511 . S
C639 H653 0.961 . S
C639 H654 0.961 . S
C639 H655 0.961 . S
C640 C641 1.370 . S
C640 C642 1.363 . S
C640 H656 0.931 1_655 S
C641 C640 1.370 . S
C641 C645 1.408 . S
C642 C640 1.363 . S
C642 C643 1.370 . S
C642 C646 1.524 1_655 S
C643 C635 1.503 . S
C643 C642 1.370 . S
C643 C644 1.403 . S
C644 C643 1.403 . S
C644 C645 1.404 . S
C644 C647 1.539 . S
C645 C641 1.408 . S
C645 C644 1.404 . S
C645 H657 0.930 . S
C646 C642 1.524 1_455 S
C646 H658 0.956 . S
C646 H659 0.973 . S
C646 H660 0.961 . S
C647 C644 1.539 . S
C647 H661 0.958 . S
C647 H662 0.961 . S
C647 H663 0.960 . S
H648 C632 0.931 . S
H649 C637 0.929 . S
H650 C638 0.960 . S
H651 C638 0.962 . S
H652 C638 0.960 . S
H653 C639 0.961 . S
H654 C639 0.961 . S
H655 C639 0.961 . S
H656 C640 0.931 1_455 S
H657 C645 0.930 . S
H658 C646 0.956 . S
H659 C646 0.973 . S
H660 C646 0.961 . S
H661 C647 0.958 . S
H662 C647 0.961 . S
H663 C647 0.960 . S
C664 C665 1.391 . S
C664 C666 1.394 . S
C664 H680 0.931 . S
C665 C664 1.391 . S
C665 C669 1.376 . S
C666 C664 1.394 . S
C666 C667 1.369 . S
C666 C670 1.531 . S
C667 C666 1.369 . S
C667 C668 1.410 . S
C667 C675 1.503 . S
C668 C667 1.410 . S
C668 C669 1.392 . S
C668 C671 1.511 . S
C669 C665 1.376 . S
C669 C668 1.392 . S
C669 H681 0.929 . S
C670 C666 1.531 . S
C670 H682 0.960 . S
C670 H683 0.962 . S
C670 H684 0.960 . S
C671 C668 1.511 . S
C671 H685 0.961 . S
C671 H686 0.961 . S
C671 H687 0.961 . S
C672 C673 1.370 . S
C672 C674 1.363 . S
C672 H688 0.931 1_545 S
C673 C672 1.370 . S
C673 C677 1.408 . S
C674 C672 1.363 . S
C674 C675 1.370 . S
C674 C678 1.524 . S
C675 C667 1.503 . S
C675 C674 1.370 . S
C675 C676 1.403 . S
C676 C675 1.403 . S
C676 C677 1.404 . S
C676 C679 1.539 . S
C677 C673 1.408 . S
C677 C676 1.404 . S
C677 H689 0.930 . S
C678 C674 1.524 . S
C678 H690 0.956 . S
C678 H691 0.961 . S
C678 H692 0.961 1_545 S
C679 C676 1.539 . S
C679 H693 0.958 . S
C679 H694 0.961 . S
C679 H695 0.960 . S
H680 C664 0.931 . S
H681 C669 0.929 . S
H682 C670 0.960 . S
H683 C670 0.962 . S
H684 C670 0.960 . S
H685 C671 0.961 . S
H686 C671 0.961 . S
H687 C671 0.961 . S
H688 C672 0.931 1_565 S
H689 C677 0.930 . S
H690 C678 0.956 . S
H691 C678 0.961 . S
H692 C678 0.961 1_565 S
H693 C679 0.958 . S
H694 C679 0.961 . S
H695 C679 0.960 . S
C696 C697 1.391 . S
C696 C698 1.394 . S
C696 H712 0.931 . S
C697 C696 1.391 . S
C697 C701 1.376 . S
C698 C696 1.394 . S
C698 C699 1.369 . S
C698 C702 1.531 . S
C699 C698 1.369 . S
C699 C700 1.410 . S
C699 C707 1.503 . S
C700 C699 1.410 . S
C700 C701 1.392 . S
C700 C703 1.511 . S
C701 C697 1.376 . S
C701 C700 1.392 . S
C701 H713 0.929 . S
C702 C698 1.531 . S
C702 H714 0.960 . S
C702 H715 0.962 . S
C702 H716 0.960 . S
C703 C700 1.511 . S
C703 H717 0.961 . S
C703 H718 0.961 . S
C703 H719 0.961 . S
C704 C705 1.370 . S
C704 C706 1.363 . S
C704 H720 0.931 . S
C705 C704 1.370 . S
C705 C709 1.408 . S
C706 C704 1.363 . S
C706 C707 1.370 . S
C706 C710 1.524 . S
C707 C699 1.503 . S
C707 C706 1.370 . S
C707 C708 1.403 . S
C708 C707 1.403 . S
C708 C709 1.404 . S
C708 C711 1.539 . S
C709 C705 1.408 . S
C709 C708 1.404 . S
C709 H721 0.930 . S
C710 C706 1.524 . S
C710 H722 0.956 . S
C710 H723 0.961 . S
C710 H724 0.961 . S
C711 C708 1.539 . S
C711 H725 0.958 . S
C711 H726 0.961 . S
C711 H727 0.960 . S
H712 C696 0.931 . S
H713 C701 0.929 . S
H714 C702 0.960 . S
H715 C702 0.962 . S
H716 C702 0.960 . S
H717 C703 0.961 . S
H718 C703 0.961 . S
H719 C703 0.961 . S
H720 C704 0.931 . S
H721 C709 0.930 . S
H722 C710 0.956 . S
H723 C710 0.961 . S
H724 C710 0.961 . S
H725 C711 0.958 . S
H726 C711 0.961 . S
H727 C711 0.960 . S
C728 C729 1.391 . S
C728 C730 1.394 . S
C728 H744 0.931 . S
C729 C728 1.391 . S
C729 C733 1.376 . S
C730 C728 1.394 . S
C730 C731 1.369 . S
C730 C734 1.531 . S
C731 C730 1.369 . S
C731 C732 1.410 . S
C731 C739 1.503 . S
C732 C731 1.410 . S
C732 C733 1.392 . S
C732 C735 1.511 . S
C733 C729 1.376 . S
C733 C732 1.392 . S
C733 H745 0.929 . S
C734 C730 1.531 . S
C734 H746 0.960 . S
C734 H747 0.962 . S
C734 H748 0.960 . S
C735 C732 1.511 . S
C735 H749 0.961 . S
C735 H750 0.961 . S
C735 H751 0.961 . S
C736 C737 1.370 . S
C736 C738 1.363 . S
C736 H752 0.931 . S
C737 C736 1.370 . S
C737 C741 1.408 . S
C738 C736 1.363 . S
C738 C739 1.370 . S
C738 C742 1.524 . S
C739 C731 1.503 . S
C739 C738 1.370 . S
C739 C740 1.403 . S
C740 C739 1.403 . S
C740 C741 1.404 . S
C740 C743 1.539 . S
C741 C737 1.408 . S
C741 C740 1.404 . S
C741 H753 0.930 . S
C742 C738 1.524 . S
C742 H754 0.956 . S
C742 H755 0.961 . S
C742 H756 0.961 . S
C743 C740 1.539 . S
C743 H757 0.958 . S
C743 H758 0.961 . S
C743 H759 0.960 . S
H744 C728 0.931 . S
H745 C733 0.929 . S
H746 C734 0.960 . S
H747 C734 0.962 . S
H748 C734 0.960 . S
H749 C735 0.961 . S
H750 C735 0.961 . S
H751 C735 0.961 . S
H752 C736 0.931 . S
H753 C741 0.930 . S
H754 C742 0.956 . S
H755 C742 0.961 . S
H756 C742 0.961 . S
H757 C743 0.958 . S
H758 C743 0.961 . S
H759 C743 0.960 . S
C760 C761 1.392 1_554 S
C760 C762 1.394 1_654 S
C760 H776 0.931 . S
C761 C760 1.392 1_556 S
C761 C765 1.373 1_655 S
C762 C760 1.394 1_456 S
C762 C763 1.369 . S
C762 C766 1.531 1_456 S
C763 C762 1.369 . S
C763 C764 1.410 . S
C763 C771 1.503 . S
C764 C763 1.410 . S
C764 C765 1.392 . S
C764 C767 1.511 . S
C765 C761 1.373 1_455 S
C765 C764 1.392 . S
C765 H777 0.929 . S
C766 C762 1.531 1_654 S
C766 H778 0.960 1_655 S
C766 H779 0.962 . S
C766 H780 0.964 . S
C767 C764 1.511 . S
C767 H781 0.961 . S
C767 H782 0.961 . S
C767 H783 0.961 . S
C768 C769 1.370 1_655 S
C768 C770 1.363 . S
C768 H784 0.931 . S
C769 C768 1.370 1_455 S
C769 C773 1.408 . S
C770 C768 1.363 . S
C770 C771 1.370 1_655 S
C770 C774 1.524 . S
C771 C763 1.503 . S
C771 C770 1.370 1_455 S
C771 C772 1.403 . S
C772 C771 1.403 . S
C772 C773 1.404 . S
C772 C775 1.539 . S
C773 C769 1.408 . S
C773 C772 1.404 . S
C773 H785 0.930 . S
C774 C770 1.524 . S
C774 H786 0.956 . S
C774 H787 0.961 . S
C774 H788 0.961 . S
C775 C772 1.539 . S
C775 H789 0.958 . S
C775 H790 0.961 . S
C775 H791 0.960 . S
H776 C760 0.931 . S
H777 C765 0.929 . S
H778 C766 0.960 1_455 S
H779 C766 0.962 . S
H780 C766 0.964 . S
H781 C767 0.961 . S
H782 C767 0.961 . S
H783 C767 0.961 . S
H784 C768 0.931 . S
H785 C773 0.930 . S
H786 C774 0.956 . S
H787 C774 0.961 . S
H788 C774 0.961 . S
H789 C775 0.958 . S
H790 C775 0.961 . S
H791 C775 0.960 . S
C792 C793 1.391 . S
C792 C794 1.394 . S
C792 H808 0.931 . S
C793 C792 1.391 . S
C793 C797 1.376 . S
C794 C792 1.394 . S
C794 C795 1.369 . S
C794 C798 1.531 . S
C795 C794 1.369 . S
C795 C796 1.410 . S
C795 C803 1.503 . S
C796 C795 1.410 . S
C796 C797 1.392 . S
C796 C799 1.511 . S
C797 C793 1.376 . S
C797 C796 1.392 . S
C797 H809 0.929 . S
C798 C794 1.531 . S
C798 H810 0.960 . S
C798 H811 0.962 1_565 S
C798 H812 0.960 . S
C799 C796 1.511 . S
C799 H813 0.961 . S
C799 H814 0.961 . S
C799 H815 0.961 . S
C800 C801 1.370 . S
C800 C802 1.363 1_545 S
C800 H816 0.931 . S
C801 C800 1.370 . S
C801 C805 1.408 1_545 S
C802 C800 1.363 1_565 S
C802 C803 1.370 . S
C802 C806 1.524 . S
C803 C795 1.503 . S
C803 C802 1.370 . S
C803 C804 1.403 . S
C804 C803 1.403 . S
C804 C805 1.404 . S
C804 C807 1.539 . S
C805 C801 1.408 1_565 S
C805 C804 1.404 . S
C805 H817 0.930 . S
C806 C802 1.524 . S
C806 H818 0.956 1_565 S
C806 H819 0.961 1_556 S
C806 H820 0.961 1_566 S
C807 C804 1.539 . S
C807 H821 0.958 . S
C807 H822 0.961 . S
C807 H823 0.960 . S
H808 C792 0.931 . S
H809 C797 0.929 . S
H810 C798 0.960 . S
H811 C798 0.962 1_545 S
H812 C798 0.960 . S
H813 C799 0.961 . S
H814 C799 0.961 . S
H815 C799 0.961 . S
H816 C800 0.931 . S
H817 C805 0.930 . S
H818 C806 0.956 1_545 S
H819 C806 0.961 1_554 S
H820 C806 0.961 1_544 S
H821 C807 0.958 . S
H822 C807 0.961 . S
H823 C807 0.960 . S
C824 C825 1.391 . S
C824 C826 1.394 . S
C824 H840 0.931 . S
C825 C824 1.391 . S
C825 C829 1.376 1_556 S
C826 C824 1.394 . S
C826 C827 1.369 . S
C826 C830 1.531 . S
C827 C826 1.369 . S
C827 C828 1.410 . S
C827 C835 1.503 . S
C828 C827 1.410 . S
C828 C829 1.392 1_556 S
C828 C831 1.511 1_556 S
C829 C825 1.376 1_554 S
C829 C828 1.392 1_554 S
C829 H841 0.929 . S
C830 C826 1.531 . S
C830 H842 0.960 . S
C830 H843 0.962 . S
C830 H844 0.960 . S
C831 C828 1.511 1_554 S
C831 H845 0.961 . S
C831 H846 0.961 . S
C831 H847 0.961 . S
C832 C833 1.370 . S
C832 C834 1.363 . S
C832 H848 0.931 . S
C833 C832 1.370 . S
C833 C837 1.408 . S
C834 C832 1.363 . S
C834 C835 1.370 . S
C834 C838 1.524 . S
C835 C827 1.503 . S
C835 C834 1.370 . S
C835 C836 1.403 . S
C836 C835 1.403 . S
C836 C837 1.404 . S
C836 C839 1.539 . S
C837 C833 1.408 . S
C837 C836 1.404 . S
C837 H849 0.930 . S
C838 C834 1.524 . S
C838 H850 0.956 . S
C838 H851 0.961 . S
C838 H852 0.961 . S
C839 C836 1.539 . S
C839 H853 0.958 . S
C839 H854 0.961 . S
C839 H855 0.960 . S
H840 C824 0.931 . S
H841 C829 0.929 . S
H842 C830 0.960 . S
H843 C830 0.962 . S
H844 C830 0.960 . S
H845 C831 0.961 . S
H846 C831 0.961 . S
H847 C831 0.961 . S
H848 C832 0.931 . S
H849 C837 0.930 . S
H850 C838 0.956 . S
H851 C838 0.961 . S
H852 C838 0.961 . S
H853 C839 0.958 . S
H854 C839 0.961 . S
H855 C839 0.960 . S
C856 C857 1.391 . S
C856 C858 1.394 . S
C856 H872 0.931 . S
C857 C856 1.391 . S
C857 C861 1.376 1_556 S
C858 C856 1.394 . S
C858 C859 1.369 . S
C858 C862 1.531 . S
C859 C858 1.369 . S
C859 C860 1.410 1_556 S
C859 C867 1.503 . S
C860 C859 1.410 1_554 S
C860 C861 1.392 . S
C860 C863 1.511 . S
C861 C857 1.376 1_554 S
C861 C860 1.392 . S
C861 H873 0.929 . S
C862 C858 1.531 . S
C862 H874 0.960 . S
C862 H875 0.962 . S
C862 H876 0.960 . S
C863 C860 1.511 . S
C863 H877 0.961 . S
C863 H878 0.961 . S
C863 H879 0.961 . S
C864 C865 1.370 . S
C864 C866 1.363 . S
C864 H880 0.931 . S
C865 C864 1.370 . S
C865 C869 1.408 . S
C866 C864 1.363 . S
C866 C867 1.370 . S
C866 C870 1.524 . S
C867 C859 1.503 . S
C867 C866 1.370 . S
C867 C868 1.403 . S
C868 C867 1.403 . S
C868 C869 1.404 . S
C868 C871 1.539 . S
C869 C865 1.408 . S
C869 C868 1.404 . S
C869 H881 0.930 . S
C870 C866 1.524 . S
C870 H882 0.956 . S
C870 H883 0.961 . S
C870 H884 0.961 . S
C871 C868 1.539 . S
C871 H885 0.958 . S
C871 H886 0.961 . S
C871 H887 0.960 . S
H872 C856 0.931 . S
H873 C861 0.929 . S
H874 C862 0.960 . S
H875 C862 0.962 . S
H876 C862 0.960 . S
H877 C863 0.961 . S
H878 C863 0.961 . S
H879 C863 0.961 . S
H880 C864 0.931 . S
H881 C869 0.930 . S
H882 C870 0.956 . S
H883 C870 0.961 . S
H884 C870 0.961 . S
H885 C871 0.958 . S
H886 C871 0.961 . S
H887 C871 0.960 . S
C888 C889 1.391 1_655 S
C888 C890 1.394 . S
C888 H904 0.931 . S
C889 C888 1.391 1_455 S
C889 C893 1.376 . S
C890 C888 1.394 . S
C890 C891 1.369 1_655 S
C890 C894 1.531 . S
C891 C890 1.369 1_455 S
C891 C892 1.410 . S
C891 C899 1.503 . S
C892 C891 1.410 . S
C892 C893 1.392 . S
C892 C895 1.511 . S
C893 C889 1.376 . S
C893 C892 1.392 . S
C893 H905 0.929 . S
C894 C890 1.531 . S
C894 H906 0.960 . S
C894 H907 0.962 . S
C894 H908 0.960 . S
C895 C892 1.511 . S
C895 H909 0.961 . S
C895 H910 0.961 . S
C895 H911 0.961 . S
C896 C897 1.370 1_655 S
C896 C898 1.363 . S
C896 H912 0.931 . S
C897 C896 1.370 1_455 S
C897 C901 1.408 1_554 S
C898 C896 1.363 . S
C898 C899 1.370 1_655 S
C898 C902 1.524 . S
C899 C891 1.503 . S
C899 C898 1.370 1_455 S
C899 C900 1.403 . S
C900 C899 1.403 . S
C900 C901 1.404 1_554 S
C900 C903 1.539 . S
C901 C897 1.408 1_556 S
C901 C900 1.404 1_556 S
C901 H913 0.930 . S
C902 C898 1.524 . S
C902 H914 0.956 . S
C902 H915 0.961 . S
C902 H916 0.961 . S
C903 C900 1.539 . S
C903 H917 0.958 1_554 S
C903 H918 0.961 1_554 S
C903 H919 0.960 . S
H904 C888 0.931 . S
H905 C893 0.929 . S
H906 C894 0.960 . S
H907 C894 0.962 . S
H908 C894 0.960 . S
H909 C895 0.961 . S
H910 C895 0.961 . S
H911 C895 0.961 . S
H912 C896 0.931 . S
H913 C901 0.930 . S
H914 C902 0.956 . S
H915 C902 0.961 . S
H916 C902 0.961 . S
H917 C903 0.958 1_556 S
H918 C903 0.961 1_556 S
H919 C903 0.960 . S
C920 C921 1.391 . S
C920 C922 1.394 . S
C920 H936 0.931 . S
C921 C920 1.391 . S
C921 C925 1.376 . S
C922 C920 1.394 . S
C922 C923 1.369 . S
C922 C926 1.531 . S
C923 C922 1.369 . S
C923 C924 1.410 . S
C923 C931 1.503 . S
C924 C923 1.410 . S
C924 C925 1.392 . S
C924 C927 1.511 . S
C925 C921 1.376 . S
C925 C924 1.392 . S
C925 H937 0.929 . S
C926 C922 1.531 . S
C926 H938 0.960 . S
C926 H939 0.962 . S
C926 H940 0.960 . S
C927 C924 1.511 . S
C927 H941 0.961 . S
C927 H942 0.961 . S
C927 H943 0.961 . S
C928 C929 1.370 . S
C928 C930 1.363 . S
C928 H944 0.931 1_554 S
C929 C928 1.370 . S
C929 C933 1.408 . S
C930 C928 1.363 . S
C930 C931 1.370 . S
C930 C934 1.524 . S
C931 C923 1.503 . S
C931 C930 1.370 . S
C931 C932 1.403 . S
C932 C931 1.403 . S
C932 C933 1.404 . S
C932 C935 1.539 . S
C933 C929 1.408 . S
C933 C932 1.404 . S
C933 H945 0.930 . S
C934 C930 1.524 . S
C934 H946 0.956 . S
C934 H947 0.961 . S
C934 H948 0.961 . S
C935 C932 1.539 . S
C935 H949 0.958 . S
C935 H950 0.961 1_545 S
C935 H951 0.960 . S
H936 C920 0.931 . S
H937 C925 0.929 . S
H938 C926 0.960 . S
H939 C926 0.962 . S
H940 C926 0.960 . S
H941 C927 0.961 . S
H942 C927 0.961 . S
H943 C927 0.961 . S
H944 C928 0.931 1_556 S
H945 C933 0.930 . S
H946 C934 0.956 . S
H947 C934 0.961 . S
H948 C934 0.961 . S
H949 C935 0.958 . S
H950 C935 0.961 1_565 S
H951 C935 0.960 . S
C952 C953 1.391 . S
C952 C954 1.394 . S
C952 H968 0.931 . S
C953 C952 1.391 . S
C953 C957 1.376 . S
C954 C952 1.394 . S
C954 C955 1.369 . S
C954 C958 1.531 . S
C955 C954 1.369 . S
C955 C956 1.410 . S
C955 C963 1.503 . S
C956 C955 1.410 . S
C956 C957 1.392 . S
C956 C959 1.511 . S
C957 C953 1.376 . S
C957 C956 1.392 . S
C957 H969 0.929 . S
C958 C954 1.531 . S
C958 H970 0.960 1_554 S
C958 H971 0.962 1_554 S
C958 H972 0.960 . S
C959 C956 1.511 . S
C959 H973 0.961 . S
C959 H974 0.961 . S
C959 H975 0.961 . S
C960 C961 1.370 . S
C960 C962 1.363 . S
C960 H976 0.931 . S
C961 C960 1.370 . S
C961 C965 1.408 . S
C962 C960 1.363 . S
C962 C963 1.370 1_556 S
C962 C966 1.524 1_556 S
C963 C955 1.503 . S
C963 C962 1.370 1_554 S
C963 C964 1.403 . S
C964 C963 1.403 . S
C964 C965 1.404 1_554 S
C964 C967 1.539 . S
C965 C961 1.408 . S
C965 C964 1.404 1_556 S
C965 H977 0.930 . S
C966 C962 1.524 1_554 S
C966 H978 0.956 1_554 S
C966 H979 0.961 . S
C966 H980 0.961 1_554 S
C967 C964 1.539 . S
C967 H981 0.958 . S
C967 H982 0.961 . S
C967 H983 0.960 . S
H968 C952 0.931 . S
H969 C957 0.929 . S
H970 C958 0.960 1_556 S
H971 C958 0.962 1_556 S
H972 C958 0.960 . S
H973 C959 0.961 . S
H974 C959 0.961 . S
H975 C959 0.961 . S
H976 C960 0.931 . S
H977 C965 0.930 . S
H978 C966 0.956 1_556 S
H979 C966 0.961 . S
H980 C966 0.961 1_556 S
H981 C967 0.958 . S
H982 C967 0.961 . S
H983 C967 0.960 . S
C984 C985 1.391 . S
C984 C986 1.394 . S
C984 H1000 0.931 . S
C985 C984 1.391 . S
C985 C989 1.376 . S
C986 C984 1.394 . S
C986 C987 1.369 . S
C986 C990 1.531 1_554 S
C987 C986 1.369 . S
C987 C988 1.410 . S
C987 C995 1.503 . S
C988 C987 1.410 . S
C988 C989 1.392 . S
C988 C991 1.511 . S
C989 C985 1.376 . S
C989 C988 1.392 . S
C989 H1001 0.929 . S
C990 C986 1.531 1_556 S
C990 H1002 0.960 . S
C990 H1003 0.962 . S
C990 H1004 0.960 . S
C991 C988 1.511 . S
C991 H1005 0.961 . S
C991 H1006 0.961 . S
C991 H1007 0.961 . S
C992 C993 1.370 . S
C992 C994 1.363 1_556 S
C992 H1008 0.931 . S
C993 C992 1.370 . S
C993 C997 1.408 . S
C994 C992 1.363 1_554 S
C994 C995 1.370 . S
C994 C998 1.524 . S
C995 C987 1.503 . S
C995 C994 1.370 . S
C995 C996 1.403 1_554 S
C996 C995 1.403 1_556 S
C996 C997 1.404 . S
C996 C999 1.539 . S
C997 C993 1.408 . S
C997 C996 1.404 . S
C997 H1009 0.930 . S
C998 C994 1.524 . S
C998 H1010 0.956 . S
C998 H1011 0.961 . S
C998 H1012 0.961 . S
C999 C996 1.539 . S
C999 H1013 0.958 . S
C999 H1014 0.961 . S
C999 H1015 0.960 1_556 S
H1000 C984 0.931 . S
H1001 C989 0.929 . S
H1002 C990 0.960 . S
H1003 C990 0.962 . S
H1004 C990 0.960 . S
H1005 C991 0.961 . S
H1006 C991 0.961 . S
H1007 C991 0.961 . S
H1008 C992 0.931 . S
H1009 C997 0.930 . S
H1010 C998 0.956 . S
H1011 C998 0.961 . S
H1012 C998 0.961 . S
H1013 C999 0.958 . S
H1014 C999 0.961 . S
H1015 C999 0.960 1_554 S
C1016 C1017 1.390 . S
C1016 C1018 1.394 . S
C1016 H1032 0.931 . S
C1017 C1016 1.390 . S
C1017 C1021 1.377 1_655 S
C1018 C1016 1.394 . S
C1018 C1019 1.369 . S
C1018 C1022 1.531 . S
C1019 C1018 1.369 . S
C1019 C1020 1.410 1_655 S
C1019 C1027 1.503 . S
C1020 C1019 1.410 1_455 S
C1020 C1021 1.392 . S
C1020 C1023 1.511 . S
C1021 C1017 1.377 1_455 S
C1021 C1020 1.392 . S
C1021 H1033 0.929 . S
C1022 C1018 1.531 . S
C1022 H1034 0.960 . S
C1022 H1035 0.962 . S
C1022 H1036 0.960 . S
C1023 C1020 1.511 . S
C1023 H1037 0.961 . S
C1023 H1038 0.961 . S
C1023 H1039 0.961 . S
C1024 C1025 1.370 . S
C1024 C1026 1.363 . S
C1024 H1040 0.931 . S
C1025 C1024 1.370 . S
C1025 C1029 1.408 1_655 S
C1026 C1024 1.363 . S
C1026 C1027 1.370 . S
C1026 C1030 1.524 . S
C1027 C1019 1.503 . S
C1027 C1026 1.370 . S
C1027 C1028 1.403 1_655 S
C1028 C1027 1.403 1_455 S
C1028 C1029 1.404 . S
C1028 C1031 1.539 . S
C1029 C1025 1.408 1_455 S
C1029 C1028 1.404 . S
C1029 H1041 0.930 . S
C1030 C1026 1.524 . S
C1030 H1042 0.956 . S
C1030 H1043 0.961 . S
C1030 H1044 0.961 . S
C1031 C1028 1.539 . S
C1031 H1045 0.958 . S
C1031 H1046 0.961 . S
C1031 H1047 0.960 . S
H1032 C1016 0.931 . S
H1033 C1021 0.929 . S
H1034 C1022 0.960 . S
H1035 C1022 0.962 . S
H1036 C1022 0.960 . S
H1037 C1023 0.961 . S
H1038 C1023 0.961 . S
H1039 C1023 0.961 . S
H1040 C1024 0.931 . S
H1041 C1029 0.930 . S
H1042 C1030 0.956 . S
H1043 C1030 0.961 . S
H1044 C1030 0.961 . S
H1045 C1031 0.958 . S
H1046 C1031 0.961 . S
H1047 C1031 0.960 . S
C1048 C1049 1.391 . S
C1048 C1050 1.394 . S
C1048 H1064 0.931 . S
C1049 C1048 1.391 . S
C1049 C1053 1.376 . S
C1050 C1048 1.394 . S
C1050 C1051 1.369 . S
C1050 C1054 1.531 . S
C1051 C1050 1.369 . S
C1051 C1052 1.410 . S
C1051 C1059 1.503 . S
C1052 C1051 1.410 . S
C1052 C1053 1.392 . S
C1052 C1055 1.511 . S
C1053 C1049 1.376 . S
C1053 C1052 1.392 . S
C1053 H1065 0.929 . S
C1054 C1050 1.531 . S
C1054 H1066 0.960 . S
C1054 H1067 0.962 . S
C1054 H1068 0.960 . S
C1055 C1052 1.511 . S
C1055 H1069 0.961 1_565 S
C1055 H1070 0.953 1_565 S
C1055 H1071 0.961 . S
C1056 C1057 1.370 . S
C1056 C1058 1.363 . S
C1056 H1072 0.931 . S
C1057 C1056 1.370 . S
C1057 C1061 1.408 . S
C1058 C1056 1.363 . S
C1058 C1059 1.370 . S
C1058 C1062 1.524 . S
C1059 C1051 1.503 . S
C1059 C1058 1.370 . S
C1059 C1060 1.403 . S
C1060 C1059 1.403 . S
C1060 C1061 1.404 . S
C1060 C1063 1.539 . S
C1061 C1057 1.408 . S
C1061 C1060 1.404 . S
C1061 H1073 0.930 . S
C1062 C1058 1.524 . S
C1062 H1074 0.956 . S
C1062 H1075 0.961 . S
C1062 H1076 0.961 . S
C1063 C1060 1.539 . S
C1063 H1077 0.958 . S
C1063 H1078 0.961 . S
C1063 H1079 0.960 . S
H1064 C1048 0.931 . S
H1065 C1053 0.929 . S
H1066 C1054 0.960 . S
H1067 C1054 0.962 . S
H1068 C1054 0.960 . S
H1069 C1055 0.961 1_545 S
H1070 C1055 0.953 1_545 S
H1071 C1055 0.961 . S
H1072 C1056 0.931 . S
H1073 C1061 0.930 . S
H1074 C1062 0.956 . S
H1075 C1062 0.961 . S
H1076 C1062 0.961 . S
H1077 C1063 0.958 . S
H1078 C1063 0.961 . S
H1079 C1063 0.960 . S
C1080 C1081 1.391 . S
C1080 C1082 1.394 . S
C1080 H1096 0.931 . S
C1081 C1080 1.391 . S
C1081 C1085 1.376 . S
C1082 C1080 1.394 . S
C1082 C1083 1.369 . S
C1082 C1086 1.531 . S
C1083 C1082 1.369 . S
C1083 C1084 1.410 . S
C1083 C1091 1.503 . S
C1084 C1083 1.410 . S
C1084 C1085 1.392 . S
C1084 C1087 1.511 . S
C1085 C1081 1.376 . S
C1085 C1084 1.392 . S
C1085 H1097 0.929 . S
C1086 C1082 1.531 . S
C1086 H1098 0.960 . S
C1086 H1099 0.962 . S
C1086 H1100 0.960 . S
C1087 C1084 1.511 . S
C1087 H1101 0.961 . S
C1087 H1102 0.961 . S
C1087 H1103 0.961 . S
C1088 C1089 1.370 . S
C1088 C1090 1.363 . S
C1088 H1104 0.931 . S
C1089 C1088 1.370 . S
C1089 C1093 1.408 . S
C1090 C1088 1.363 . S
C1090 C1091 1.370 . S
C1090 C1094 1.524 . S
C1091 C1083 1.503 . S
C1091 C1090 1.370 . S
C1091 C1092 1.403 . S
C1092 C1091 1.403 . S
C1092 C1093 1.404 . S
C1092 C1095 1.539 . S
C1093 C1089 1.408 . S
C1093 C1092 1.404 . S
C1093 H1105 0.930 . S
C1094 C1090 1.524 . S
C1094 H1106 0.956 . S
C1094 H1107 0.961 . S
C1094 H1108 0.961 . S
C1095 C1092 1.539 . S
C1095 H1109 0.958 . S
C1095 H1110 0.961 . S
C1095 H1111 0.960 . S
H1096 C1080 0.931 . S
H1097 C1085 0.929 . S
H1098 C1086 0.960 . S
H1099 C1086 0.962 . S
H1100 C1086 0.960 . S
H1101 C1087 0.961 . S
H1102 C1087 0.961 . S
H1103 C1087 0.961 . S
H1104 C1088 0.931 . S
H1105 C1093 0.930 . S
H1106 C1094 0.956 . S
H1107 C1094 0.961 . S
H1108 C1094 0.961 . S
H1109 C1095 0.958 . S
H1110 C1095 0.961 . S
H1111 C1095 0.960 . S
C1112 C1113 1.391 . S
C1112 C1114 1.394 . S
C1112 H1128 0.931 . S
C1113 C1112 1.391 . S
C1113 C1117 1.376 . S
C1114 C1112 1.394 . S
C1114 C1115 1.369 . S
C1114 C1118 1.531 . S
C1115 C1114 1.369 . S
C1115 C1116 1.410 . S
C1115 C1123 1.503 . S
C1116 C1115 1.410 . S
C1116 C1117 1.392 . S
C1116 C1119 1.511 . S
C1117 C1113 1.376 . S
C1117 C1116 1.392 . S
C1117 H1129 0.929 . S
C1118 C1114 1.531 . S
C1118 H1130 0.960 . S
C1118 H1131 0.962 . S
C1118 H1132 0.960 . S
C1119 C1116 1.511 . S
C1119 H1133 0.961 . S
C1119 H1134 0.961 . S
C1119 H1135 0.961 . S
C1120 C1121 1.370 . S
C1120 C1122 1.363 . S
C1120 H1136 0.931 . S
C1121 C1120 1.370 . S
C1121 C1125 1.408 . S
C1122 C1120 1.363 . S
C1122 C1123 1.370 . S
C1122 C1126 1.524 . S
C1123 C1115 1.503 . S
C1123 C1122 1.370 . S
C1123 C1124 1.403 . S
C1124 C1123 1.403 . S
C1124 C1125 1.404 . S
C1124 C1127 1.539 . S
C1125 C1121 1.408 . S
C1125 C1124 1.404 . S
C1125 H1137 0.930 . S
C1126 C1122 1.524 . S
C1126 H1138 0.956 . S
C1126 H1139 0.961 . S
C1126 H1140 0.961 . S
C1127 C1124 1.539 . S
C1127 H1141 0.958 . S
C1127 H1142 0.961 . S
C1127 H1143 0.960 . S
H1128 C1112 0.931 . S
H1129 C1117 0.929 . S
H1130 C1118 0.960 . S
H1131 C1118 0.962 . S
H1132 C1118 0.960 . S
H1133 C1119 0.961 . S
H1134 C1119 0.961 . S
H1135 C1119 0.961 . S
H1136 C1120 0.931 . S
H1137 C1125 0.930 . S
H1138 C1126 0.956 . S
H1139 C1126 0.961 . S
H1140 C1126 0.961 . S
H1141 C1127 0.958 . S
H1142 C1127 0.961 . S
H1143 C1127 0.960 . S
C377 C215 1.795 . S
C385 C266 1.771 . S
C417 C296 1.722 . S
C409 C247 1.693 . S
C449 N330 1.648 . S
C441 C151 1.661 . S
C481 N360 1.293 . S
C473 C183 1.359 1_655 S
C513 C257 1.784 1_565 S
C505 C87 1.646 . S
C537 C119 1.704 . S
C545 C287 1.722 . S
C569 C23 1.570 . S
C577 N322 1.649 . S
C601 C55 1.345 1_655 S
C609 N352 1.295 . S
C641 C272 0.385 . S
C633 C189 0.508 . S
C673 C302 0.595 . S
C665 C221 0.622 . S
C705 C343 0.637 . S
C697 C253 0.721 . S
C729 C157 0.569 . S
C737 C373 0.564 . S
C761 C61 0.465 1_655 S
C769 C283 0.406 . S
C801 C313 0.593 . S
C793 C93 0.784 . S
C833 C332 0.630 . S
C825 C125 0.705 . S
C857 C29 0.752 1_556 S
C865 C362 0.578 . S
C889 C177 1.488 . S
C897 N262 1.541 1_554 S
C921 C209 1.659 . S
C929 N292 1.659 1_554 S
C961 C317 1.772 . S
C953 C241 1.646 . S
C993 C347 1.963 . S
C985 C145 1.927 . S
C1017 C49 1.522 1_655 S
C1025 N270 1.526 . S
C1057 N300 1.670 . S
C1049 C81 1.619 . S
C1089 C326 1.768 . S
C1081 C113 1.728 . S
C1113 C17 1.816 . S
C1121 C356 1.969 . S
