# Generated by pormake.
# Topology anh, (6,3)-cn, num edge types: 1
# Building blocks:
#     Node 0, Type 0, BuildingBlock: INOVEN_clean_sbu_0, # of connection points: 6
#     Node 1, Type 0, BuildingBlock: INOVEN_clean_sbu_0, # of connection points: 6
#     Node 2, Type 0, BuildingBlock: INOVEN_clean_sbu_0, # of connection points: 6
#     Node 3, Type 1, BuildingBlock: BELTOD_clean_linker_0, # of connection points: 3
#     Node 4, Type 1, BuildingBlock: BELTOD_clean_linker_0, # of connection points: 3
#     Node 5, Type 1, BuildingBlock: BELTOD_clean_linker_0, # of connection points: 3
#     Node 6, Type 1, BuildingBlock: BELTOD_clean_linker_0, # of connection points: 3
#     Node 7, Type 1, BuildingBlock: BELTOD_clean_linker_0, # of connection points: 3
#     Node 8, Type 1, BuildingBlock: BELTOD_clean_linker_0, # of connection points: 3
#     Edge 9, Type (0, 1), BuildingBlock: UVAHIK_clean_linker_0, # of connection points: 2
#     Edge 10, Type (0, 1), BuildingBlock: UVAHIK_clean_linker_0, # of connection points: 2
#     Edge 11, Type (0, 1), BuildingBlock: UVAHIK_clean_linker_0, # of connection points: 2
#     Edge 12, Type (0, 1), BuildingBlock: UVAHIK_clean_linker_0, # of connection points: 2
#     Edge 13, Type (0, 1), BuildingBlock: UVAHIK_clean_linker_0, # of connection points: 2
#     Edge 14, Type (0, 1), BuildingBlock: UVAHIK_clean_linker_0, # of connection points: 2
#     Edge 15, Type (0, 1), BuildingBlock: UVAHIK_clean_linker_0, # of connection points: 2
#     Edge 16, Type (0, 1), BuildingBlock: UVAHIK_clean_linker_0, # of connection points: 2
#     Edge 17, Type (0, 1), BuildingBlock: UVAHIK_clean_linker_0, # of connection points: 2
#     Edge 18, Type (0, 1), BuildingBlock: UVAHIK_clean_linker_0, # of connection points: 2
#     Edge 19, Type (0, 1), BuildingBlock: UVAHIK_clean_linker_0, # of connection points: 2
#     Edge 20, Type (0, 1), BuildingBlock: UVAHIK_clean_linker_0, # of connection points: 2
#     Edge 21, Type (0, 1), BuildingBlock: UVAHIK_clean_linker_0, # of connection points: 2
#     Edge 22, Type (0, 1), BuildingBlock: UVAHIK_clean_linker_0, # of connection points: 2
#     Edge 23, Type (0, 1), BuildingBlock: UVAHIK_clean_linker_0, # of connection points: 2
#     Edge 24, Type (0, 1), BuildingBlock: UVAHIK_clean_linker_0, # of connection points: 2
#     Edge 25, Type (0, 1), BuildingBlock: UVAHIK_clean_linker_0, # of connection points: 2
#     Edge 26, Type (0, 1), BuildingBlock: UVAHIK_clean_linker_0, # of connection points: 2
# Relax obj value: 0.155
# Max RMSD: 0.199
# Mean RMSD: 0.143
data_MOF--net-anh--node1-INOVEN_clean_sbu_0--node2-BELTOD_clean_linker_0--edge1-UVAHIK_clean_linker_0
_symmetry_space_group_name_H-M    P1
_symmetry_Int_Tables_number       1
_symmetry_cell_setting            triclinic
loop_
_symmetry_equiv_pos_as_xyz
'x, y, z'
_cell_length_a     43.776737
_cell_length_b     50.256917
_cell_length_c     76.874497
_cell_angle_alpha  93.48664
_cell_angle_beta   89.204344
_cell_angle_gamma 127.0367
loop_
_atom_site_label
_atom_site_type_symbol
_atom_site_fract_x
_atom_site_fract_y
_atom_site_fract_z
_atom_type_partial_charge
Gd0 Gd 0.08252 0.51334 0.14342 0.0
Gd1 Gd 0.04479 0.54264 0.15935 0.0
C2 C 0.13337 0.59444 0.15344 0.0
C3 C 0.12343 0.50169 0.12506 0.0
C4 C 0.16344 0.5147 0.1273 0.0
C5 C 0.1851 0.53631 0.14184 0.0
C6 C 0.17926 0.50369 0.11579 0.0
C7 C 0.23714 0.53353 0.13418 0.0
C8 C 0.21594 0.5131 0.11917 0.0
C9 C 0.22169 0.54565 0.14527 0.0
C10 C 0.07857 0.51253 0.17838 0.0
C11 C 0.9948 0.46237 0.15006 0.0
C12 C 1.00492 0.55432 0.17872 0.0
C13 C 0.96588 0.53282 0.18514 0.0
C14 C 0.93797 0.50258 0.1759 0.0
C15 C 0.9563 0.54218 0.20059 0.0
C16 C 0.8903 0.49223 0.19681 0.0
C17 C 0.91871 0.52206 0.20638 0.0
C18 C 0.90059 0.4825 0.18165 0.0
C19 C 0.04962 0.54309 0.12424 0.0
O20 O 0.13087 0.56933 0.14503 0.0
O21 O 0.10415 0.5899 0.16172 0.0
O22 O 0.10106 0.4827 0.13728 0.0
O23 O 0.11784 0.52343 0.12103 0.0
O24 O 0.07579 0.48939 0.16844 0.0
O25 O 0.08626 0.53606 0.16956 0.0
O26 O 1.00009 0.48667 0.16064 0.0
O27 O 1.02138 0.46835 0.13905 0.0
O28 O 1.00769 0.55752 0.16189 0.0
O29 O 1.02881 0.54967 0.18507 0.0
O30 O 0.05406 0.56719 0.13408 0.0
O31 O 0.04098 0.51953 0.13328 0.0
H32 H 0.17314 0.54496 0.15089 0.0
H33 H 0.16276 0.48688 0.10456 0.0
H34 H 0.22688 0.50299 0.11052 0.0
H35 H 0.23747 0.56157 0.15684 0.0
H36 H 0.94482 0.49486 0.16395 0.0
H37 H 0.9777 0.5653 0.20798 0.0
H38 H 0.91173 0.53012 0.21815 0.0
H39 H 0.8794 0.4601 0.17373 0.0
Gd40 Gd 0.57781 0.01004 0.48 0.0
Gd41 Gd 0.5267 0.02981 0.47446 0.0
C42 C 0.48603 0.95252 0.47322 0.0
C43 C 0.6107 0.98488 0.49072 0.0
C44 C 0.60245 0.95227 0.49311 0.0
C45 C 0.63046 0.94794 0.48882 0.0
C46 C 0.56788 0.92585 0.49999 0.0
C47 C 0.59053 0.89175 0.49906 0.0
C48 C 0.56198 0.89584 0.50295 0.0
C49 C 0.62457 0.91802 0.4917 0.0
C50 C 0.57182 0.02051 0.44671 0.0
C51 C 0.61947 0.08756 0.47883 0.0
C52 C 0.49466 0.05684 0.4657 0.0
C53 C 0.50038 0.0886 0.47037 0.0
C54 C 0.47094 0.08781 0.47848 0.0
C55 C 0.53502 0.11972 0.46732 0.0
C56 C 0.511 0.14862 0.48096 0.0
C57 C 0.54024 0.14941 0.47254 0.0
C58 C 0.47621 0.11747 0.48378 0.0
C59 C 0.53587 0.02193 0.50804 0.0
O60 O 0.51799 0.96087 0.48075 0.0
O61 O 0.48434 0.97534 0.46675 0.0
O62 O 0.612 0.99255 0.47465 0.0
O63 O 0.59408 0.99395 0.50112 0.0
O64 O 0.60338 0.02933 0.45408 0.0
O65 O 0.54431 0.00525 0.45695 0.0
O66 O 0.5861 0.079 0.47306 0.0
O67 O 0.62268 0.06522 0.48479 0.0
O68 O 0.48222 0.03616 0.47809 0.0
O69 O 0.52097 0.0583 0.45649 0.0
O70 O 0.50383 0.01308 0.50133 0.0
O71 O 0.56167 0.03596 0.49703 0.0
H72 H 0.6572 0.96793 0.4834 0.0
H73 H 0.54571 0.92855 0.50331 0.0
H74 H 0.53553 0.87622 0.5087 0.0
H75 H 0.64681 0.91552 0.4882 0.0
H76 H 0.44388 0.06417 0.4809 0.0
H77 H 0.55828 0.1212 0.46109 0.0
H78 H 0.56749 0.173 0.47031 0.0
H79 H 0.45293 0.116 0.49001 0.0
Gd80 Gd 0.59359 0.55436 0.84298 0.0
Gd81 Gd 0.54065 0.47957 0.84489 0.0
C82 C 0.50074 0.51578 0.84568 0.0
C83 C 0.62772 0.61517 0.8346 0.0
C84 C 0.61921 0.63898 0.83174 0.0
C85 C 0.63894 0.66934 0.84187 0.0
C86 C 0.59332 0.63278 0.81855 0.0
C87 C 0.60857 0.68774 0.82518 0.0
C88 C 0.58809 0.65693 0.8153 0.0
C89 C 0.63358 0.69337 0.83869 0.0
C90 C 0.58153 0.53247 0.87529 0.0
C91 C 0.63434 0.51891 0.84434 0.0
C92 C 0.50692 0.41816 0.85193 0.0
C93 C 0.51264 0.39236 0.84771 0.0
C94 C 0.48318 0.36206 0.83895 0.0
C95 C 0.54728 0.39777 0.85179 0.0
C96 C 0.52316 0.34331 0.83791 0.0
C97 C 0.55243 0.37342 0.84697 0.0
C98 C 0.4884 0.33784 0.83405 0.0
C99 C 0.55246 0.50051 0.81229 0.0
O100 O 0.53395 0.54186 0.84012 0.0
O101 O 0.49776 0.48973 0.85099 0.0
O102 O 0.62638 0.60724 0.85064 0.0
O103 O 0.61379 0.58981 0.82313 0.0
O104 O 0.61455 0.55807 0.87045 0.0
O105 O 0.55675 0.52105 0.86325 0.0
O106 O 0.59993 0.49157 0.84779 0.0
O107 O 0.63883 0.54619 0.84007 0.0
O108 O 0.49652 0.42675 0.83884 0.0
O109 O 0.53214 0.44369 0.8625 0.0
O110 O 0.52012 0.47476 0.81744 0.0
O111 O 0.57766 0.51271 0.82428 0.0
H112 H 0.65904 0.67473 0.85212 0.0
H113 H 0.57765 0.60958 0.8105 0.0
H114 H 0.56887 0.65183 0.80469 0.0
H115 H 0.64928 0.7165 0.84679 0.0
H116 H 0.45617 0.35725 0.83573 0.0
H117 H 0.57057 0.42091 0.8585 0.0
H118 H 0.57964 0.37849 0.85 0.0
H119 H 0.46513 0.31472 0.82728 0.0
P120 P 0.59863 0.01812 0.20162 0.0
H121 H 0.57746 0.97426 0.17 0.0
H122 H 0.51568 0.92341 0.15925 0.0
H123 H 0.45821 0.94298 0.19811 0.0
H124 H 0.51975 0.9939 0.20861 0.0
H125 H 0.66087 0.08197 0.21814 0.0
H126 H 0.70292 0.13826 0.20826 0.0
H127 H 0.64425 0.10265 0.15799 0.0
H128 H 0.60095 0.04583 0.16824 0.0
H129 H 0.58616 0.9749 0.22888 0.0
H130 H 0.58781 0.0609 0.22449 0.0
O131 O 0.62548 0.00485 0.19919 0.0
H132 H 0.57382 0.97519 0.26006 0.0
H133 H 0.57662 0.06187 0.25576 0.0
C134 C 0.55334 0.98752 0.19034 0.0
C135 C 0.55148 0.96814 0.17587 0.0
C136 C 0.51615 0.93906 0.16974 0.0
C137 C 0.48223 0.92889 0.17809 0.0
C138 C 0.48398 0.94989 0.19164 0.0
C139 C 0.51921 0.97912 0.19761 0.0
C140 C 0.62668 0.05988 0.19419 0.0
C141 C 0.65614 0.08627 0.20515 0.0
C142 C 0.68037 0.1185 0.19946 0.0
C143 C 0.67655 0.12498 0.18244 0.0
C144 C 0.64762 0.09838 0.17123 0.0
C145 C 0.62276 0.06602 0.1771 0.0
C146 C 0.58941 0.01866 0.22454 0.0
C147 C 0.58422 0.99401 0.23466 0.0
C148 C 0.57684 0.99401 0.25241 0.0
C149 C 0.57468 0.01877 0.2603 0.0
C150 C 0.57873 0.04283 0.25002 0.0
C151 C 0.5854 0.04243 0.2322 0.0
P152 P 0.62936 0.56241 0.56948 0.0
H153 H 0.6606 0.54156 0.54288 0.0
H154 H 0.63798 0.48709 0.52964 0.0
H155 H 0.53257 0.44102 0.55747 0.0
H156 H 0.55595 0.49585 0.57099 0.0
H157 H 0.62994 0.61715 0.5844 0.0
H158 H 0.61012 0.64903 0.57314 0.0
H159 H 0.56727 0.58486 0.52572 0.0
H160 H 0.58764 0.55312 0.53711 0.0
H161 H 0.67527 0.56416 0.59732 0.0
H162 H 0.56659 0.54687 0.59207 0.0
O163 O 0.67644 0.58825 0.56649 0.0
H164 H 0.66624 0.55722 0.62859 0.0
H165 H 0.55774 0.54082 0.62343 0.0
C166 C 0.61022 0.52266 0.55814 0.0
C167 C 0.63251 0.5198 0.54606 0.0
C168 C 0.61937 0.48858 0.53838 0.0
C169 C 0.58352 0.45955 0.54257 0.0
C170 C 0.56059 0.46276 0.55419 0.0
C171 C 0.57381 0.4941 0.56186 0.0
C172 C 0.60951 0.58232 0.56177 0.0
C173 C 0.6155 0.60944 0.57174 0.0
C174 C 0.60405 0.62764 0.56529 0.0
C175 C 0.58683 0.61938 0.54857 0.0
C176 C 0.58055 0.59192 0.53863 0.0
C177 C 0.59191 0.5736 0.54517 0.0
C178 C 0.62202 0.55679 0.59248 0.0
C179 C 0.64961 0.55918 0.60294 0.0
C180 C 0.64448 0.55537 0.62085 0.0
C181 C 0.61147 0.54885 0.62859 0.0
C182 C 0.58341 0.54566 0.61791 0.0
C183 C 0.58856 0.54939 0.59999 0.0
P184 P 0.09307 0.55315 0.87709 0.0
H185 H 0.13196 0.55799 0.84462 0.0
H186 H 0.17867 0.54743 0.83768 0.0
H187 H 0.15284 0.49724 0.88534 0.0
H188 H 0.10581 0.5071 0.8919 0.0
H189 H 0.07308 0.59641 0.86789 0.0
H190 H 1.01333 0.58755 0.86196 0.0
H191 H 0.95284 0.481 0.86222 0.0
H192 H 1.014 0.49014 0.86791 0.0
H193 H 0.14129 0.59869 0.90678 0.0
H194 H 0.03453 0.49997 0.89891 0.0
O195 O 0.12698 0.59352 0.87413 0.0
H196 H 0.1348 0.59511 0.93823 0.0
H197 H 1.02759 0.49639 0.93052 0.0
C198 C 0.11476 0.5333 0.86876 0.0
C199 C 0.13521 0.54356 0.85326 0.0
C200 C 0.16268 0.53806 0.84947 0.0
C201 C 0.17057 0.52205 0.86109 0.0
C202 C 0.14789 0.50958 0.87596 0.0
C203 C 0.12052 0.51516 0.87974 0.0
C204 C 0.04876 0.544 0.86817 0.0
C205 C 0.04738 0.57093 0.86626 0.0
C206 C 1.01272 0.56585 0.8631 0.0
C207 C 0.97775 0.53357 0.8619 0.0
C208 C 0.97907 0.50628 0.86304 0.0
C209 C 1.01416 0.51147 0.86625 0.0
C210 C 0.08795 0.54991 0.90041 0.0
C211 C 0.11621 0.57632 0.91177 0.0
C212 C 0.11243 0.57428 0.92981 0.0
C213 C 0.08045 0.54562 0.93691 0.0
C214 C 0.0526 0.5188 0.92548 0.0
C215 C 0.05634 0.52095 0.90739 0.0
P216 P 0.08213 0.49837 0.42377 0.0
H217 H 0.12593 0.52717 0.45661 0.0
H218 H 0.16984 0.5849 0.4686 0.0
H219 H 0.13423 0.6166 0.42748 0.0
H220 H 0.089 0.55876 0.41628 0.0
H221 H 0.05172 0.4295 0.42784 0.0
H222 H 0.99193 0.38178 0.4386 0.0
H223 H 0.95572 0.44382 0.4508 0.0
H224 H 1.01622 0.49191 0.4397 0.0
H225 H 0.13413 0.54128 0.39749 0.0
H226 H 1.01393 0.45964 0.39989 0.0
O227 O 0.11371 0.49006 0.42436 0.0
H228 H 0.12628 0.54369 0.36635 0.0
H229 H 1.00599 0.46179 0.36867 0.0
C230 C 0.10487 0.53871 0.43532 0.0
C231 C 0.1268 0.54648 0.4505 0.0
C232 C 0.15233 0.57964 0.4572 0.0
C233 C 0.15663 0.60577 0.44873 0.0
C234 C 0.13198 0.59737 0.43439 0.0
C235 C 0.10613 0.56413 0.42785 0.0
C236 C 0.03886 0.46448 0.43336 0.0
C237 C 1.03131 0.43311 0.4331 0.0
C238 C 0.99699 0.40574 0.4393 0.0
C239 C 0.96908 0.40895 0.44579 0.0
C240 C 0.97656 0.44046 0.44589 0.0
C241 C 1.01121 0.46802 0.4397 0.0
C242 C 0.07463 0.50051 0.40105 0.0
C243 C 0.10597 0.52409 0.39134 0.0
C244 C 0.10142 0.52553 0.37357 0.0
C245 C 0.06548 0.50302 0.36509 0.0
C246 C 1.03405 0.47937 0.37486 0.0
C247 C 0.03856 0.47821 0.39273 0.0
P248 P 0.64002 0.05556 0.75069 0.0
H249 H 0.66722 0.10358 0.78067 0.0
H250 H 0.64346 0.13266 0.79434 0.0
H251 H 0.54115 0.07216 0.76138 0.0
H252 H 0.56583 0.04379 0.74741 0.0
H253 H 0.67875 0.02514 0.74699 0.0
H254 H 0.66714 0.97553 0.75824 0.0
H255 H 0.56574 0.95311 0.78324 0.0
H256 H 0.57751 0.00304 0.77173 0.0
H257 H 0.66949 0.10077 0.72275 0.0
H258 H 0.57958 -0.00352 0.72889 0.0
O259 O 0.68745 0.08445 0.75227 0.0
H260 H 0.65234 0.09305 0.69185 0.0
H261 H 0.56147 0.98858 0.69794 0.0
C262 C 0.61868 0.07208 0.76278 0.0
C263 C 0.63948 0.09631 0.77652 0.0
C264 C 0.62567 0.11279 0.78442 0.0
C265 C 0.59054 0.1051 0.77883 0.0
C266 C 0.56869 0.07925 0.76575 0.0
C267 C 0.58264 0.06284 0.75781 0.0
C268 C 0.6295 0.01813 0.75887 0.0
C269 C 0.65408 0.00964 0.75495 0.0
C270 C 0.64746 0.98131 0.76143 0.0
C271 C 0.61584 0.96066 0.77186 0.0
C272 C 0.59036 0.96857 0.77526 0.0
C273 C 0.59717 -0.00283 0.76879 0.0
C274 C 0.62635 0.04907 0.72798 0.0
C275 C 0.64602 0.07616 0.71741 0.0
C276 C 0.6359 0.07175 0.69976 0.0
C277 C 0.60553 0.04016 0.69237 0.0
C278 C 0.58538 0.01311 0.70314 0.0
C279 C 0.59563 0.01759 0.72084 0.0
P280 P 0.44162 0.33172 0.09148 0.0
H281 H 0.441 0.28915 0.11613 0.0
H282 H 0.49167 0.29753 0.13463 0.0
H283 H 0.57466 0.39025 0.11092 0.0
H284 H 0.52443 0.3814 0.09244 0.0
H285 H 0.38888 0.32653 0.11766 0.0
H286 H 0.38476 0.36864 0.13274 0.0
H287 H 0.48572 0.44615 0.10667 0.0
H288 H 0.48894 0.40407 0.09138 0.0
H289 H 0.49639 0.33663 0.06623 0.0
H290 H 0.40865 0.35099 0.0675 0.0
O291 O 0.40024 0.29356 0.09202 0.0
H292 H 0.5168 0.36165 0.0381 0.0
H293 H 0.42786 0.37479 0.03914 0.0
C294 C 0.47914 0.3342 0.10258 0.0
C295 C 0.4703 0.31077 0.11462 0.0
C296 C 0.49918 0.31576 0.1253 0.0
C297 C 0.53722 0.34441 0.12416 0.0
C298 C 0.54586 0.3675 0.11186 0.0
C299 C 0.51708 0.3625 0.10126 0.0
C300 C 0.43865 0.36215 0.10313 0.0
C301 C 0.41002 0.35259 0.11521 0.0
C302 C 0.408 0.37671 0.12396 0.0
C303 C 0.43481 0.41071 0.12079 0.0
C304 C 0.46432 0.42015 0.10918 0.0
C305 C 0.46621 0.39609 0.10046 0.0
C306 C 0.45193 0.34313 0.06923 0.0
C307 C 0.48128 0.34487 0.0604 0.0
C308 C 0.49273 0.35893 0.04423 0.0
C309 C 0.47456 0.37098 0.03658 0.0
C310 C 0.44322 0.36671 0.04492 0.0
C311 C 0.43198 0.35283 0.06106 0.0
C312 C 0.29988 0.54545 0.12642 0.0
C313 C 0.2732 0.53898 0.1391 0.0
C314 C 0.33 0.5442 0.13034 0.0
C315 C 0.34459 0.49622 0.15707 0.0
H316 H 0.44272 0.544 0.13479 0.0
C317 C 0.41965 0.43523 0.14585 0.0
C318 C 0.43037 0.43595 0.12847 0.0
C319 C 0.41176 0.45706 0.15233 0.0
C320 C 0.41551 0.53051 0.1412 0.0
H321 H 0.25876 0.52865 0.1662 0.0
H322 H 0.3115 0.52656 0.17304 0.0
H323 H 0.40803 0.56804 0.13692 0.0
H324 H 0.44238 0.46078 0.10445 0.0
H325 H 0.42814 0.4982 0.11556 0.0
H326 H 0.35035 0.45755 0.16019 0.0
C327 C 0.30899 0.53245 0.16006 0.0
C328 C 0.39576 0.54433 0.14246 0.0
C329 C 0.27895 0.53385 0.15616 0.0
C330 C 0.4347 0.45988 0.11797 0.0
C331 C 0.42671 0.48153 0.1244 0.0
C332 C 0.36416 0.48231 0.1557 0.0
C333 C 0.33388 0.53629 0.14701 0.0
C334 C 0.35931 0.52657 0.14969 0.0
C335 C 0.41422 0.47986 0.14152 0.0
C336 C 0.39894 0.49853 0.14699 0.0
H337 H 0.29638 0.54989 0.11323 0.0
H338 H 0.34853 0.54703 0.11995 0.0
H339 H 0.3164 0.48175 0.16258 0.0
H340 H 0.41667 0.41738 0.15432 0.0
H341 H 0.40263 0.45541 0.16565 0.0
C342 C 0.69024 0.13257 0.48356 0.0
C343 C 0.65415 0.12272 0.47793 0.0
C344 C 0.72322 0.16514 0.48161 0.0
C345 C 0.76076 0.23782 0.45538 0.0
H346 H 0.84264 0.28465 0.49054 0.0
C347 C 0.89705 0.37257 0.44742 0.0
C348 C 0.93213 0.37908 0.45188 0.0
C349 C 0.8623 0.34297 0.45187 0.0
C350 C 0.82019 0.27184 0.48052 0.0
H351 H 0.62456 0.13987 0.46618 0.0
H352 H 0.68189 0.19657 0.46295 0.0
H353 H 0.78381 0.22985 0.49591 0.0
H354 H 0.95802 0.36012 0.46527 0.0
H355 H 0.89773 0.30848 0.47272 0.0
H356 H 0.79728 0.27948 0.43986 0.0
C357 C 0.68479 0.17899 0.46866 0.0
C358 C 0.78642 0.24038 0.4836 0.0
C359 C 0.65183 0.14648 0.47064 0.0
C360 C 0.93156 0.35576 0.46141 0.0
C361 C 0.89691 0.32624 0.46587 0.0
C362 C 0.79454 0.26925 0.45227 0.0
C363 C 0.72099 0.18868 0.47395 0.0
C364 C 0.75637 0.22282 0.47102 0.0
C365 C 0.86175 0.31918 0.46096 0.0
C366 C 0.82487 0.28659 0.46473 0.0
H367 H 0.6932 0.11498 0.48918 0.0
H368 H 0.75064 0.17157 0.48566 0.0
H369 H 0.73849 0.22485 0.44527 0.0
H370 H 0.89637 0.38985 0.43999 0.0
H371 H 0.83581 0.33861 0.44807 0.0
C372 C 0.63767 0.74806 0.82185 0.0
C373 C 0.60511 0.71444 0.82104 0.0
C374 C 0.63487 0.77327 0.81786 0.0
C375 C 0.57567 0.78885 0.79369 0.0
H376 H 0.63464 0.87316 0.82142 0.0
C377 C 0.57417 0.90022 0.77905 0.0
C378 C 0.61035 0.9315 0.77936 0.0
C379 C 0.56989 0.87259 0.78536 0.0
C380 C 0.61815 0.84984 0.81349 0.0
H381 H 0.5439 0.68115 0.81544 0.0
H382 H 0.53914 0.72531 0.80828 0.0
H383 H 0.6339 0.82691 0.83001 0.0
H384 H 0.67006 0.95856 0.78712 0.0
H385 H 0.66277 0.91059 0.7979 0.0
H386 H 0.56053 0.8121 0.77697 0.0
C387 C 0.56688 0.73201 0.81194 0.0
C388 C 0.61774 0.82333 0.81841 0.0
C389 C 0.56964 0.70671 0.81602 0.0
C390 C 0.64189 0.93472 0.7865 0.0
C391 C 0.63761 0.90727 0.79287 0.0
C392 C 0.57611 0.81545 0.78875 0.0
C393 C 0.59948 0.7656 0.81287 0.0
C394 C 0.5971 0.79272 0.8084 0.0
C395 C 0.60165 0.87579 0.79228 0.0
C396 C 0.59796 0.84646 0.79841 0.0
H397 H 0.66561 0.75494 0.82526 0.0
H398 H 0.6607 0.7988 0.81835 0.0
H399 H 0.5597 0.76568 0.78562 0.0
H400 H 0.54936 0.89693 0.77355 0.0
H401 H 0.54175 0.84873 0.78484 0.0
C402 C 0.82433 0.43833 0.19808 0.0
C403 C 0.84927 0.47328 0.20107 0.0
C404 C 0.78481 0.42152 0.19699 0.0
C405 C 0.7254 0.44236 0.18076 0.0
H406 H 0.64295 0.34867 0.18577 0.0
C407 C 0.561 0.34722 0.1543 0.0
C408 C 0.56772 0.3518 0.13638 0.0
C409 C 0.59135 0.35903 0.16611 0.0
C410 C 0.66564 0.37496 0.1845 0.0
H411 H 0.85206 0.51731 0.20772 0.0
H412 H 0.78316 0.48782 0.20634 0.0
H413 H 0.70305 0.37607 0.20281 0.0
H414 H 0.61082 0.36979 0.11666 0.0
H415 H 0.66371 0.39101 0.13729 0.0
H416 H 0.68898 0.44094 0.1619 0.0
C417 C 0.79421 0.47356 0.20433 0.0
C418 C 0.69992 0.39059 0.19419 0.0
C419 C 0.83373 0.49042 0.20527 0.0
C420 C 0.60487 0.36658 0.13041 0.0
C421 C 0.63509 0.37863 0.14218 0.0
C422 C 0.6915 0.42672 0.17104 0.0
C423 C 0.76959 0.43938 0.19901 0.0
C424 C 0.73055 0.42425 0.19203 0.0
C425 C 0.62875 0.3758 0.16013 0.0
C426 C 0.66188 0.3927 0.17241 0.0
H427 H 0.83547 0.42431 0.19525 0.0
H428 H 0.76667 0.39515 0.19295 0.0
H429 H 0.74849 0.46812 0.17853 0.0
H430 H 0.53272 0.33612 0.15931 0.0
H431 H 0.58595 0.35662 0.17993 0.0
C432 C 0.45422 0.89145 0.47606 0.0
C433 C 0.45186 0.91692 0.47162 0.0
C434 C 0.42198 0.85792 0.47441 0.0
C435 C 0.31619 0.80348 0.47189 0.0
H436 H 0.32673 0.73752 0.4507 0.0
C437 C 0.18514 0.66714 0.45224 0.0
C438 C 0.18893 0.64146 0.45371 0.0
C439 C 0.21666 0.70075 0.45532 0.0
C440 C 0.32326 0.75544 0.45691 0.0
H441 H 0.41349 0.92696 0.46212 0.0
H442 H 0.35737 0.86856 0.45932 0.0
H443 H 0.38267 0.79573 0.45444 0.0
H444 H 0.22933 0.63153 0.45989 0.0
H445 H 0.28338 0.68955 0.46598 0.0
H446 H 0.25686 0.76318 0.47453 0.0
C447 C 0.38412 0.87454 0.46413 0.0
C448 C 0.35542 0.7889 0.45901 0.0
C449 C 0.41641 0.90804 0.46564 0.0
C450 C 0.2249 0.65037 0.45885 0.0
C451 C 0.25626 0.68387 0.46205 0.0
C452 C 0.28403 0.76993 0.46992 0.0
C453 C 0.38653 0.84905 0.46843 0.0
C454 C 0.3523 0.81335 0.46648 0.0
C455 C 0.25283 0.7096 0.46004 0.0
C456 C 0.28709 0.74541 0.46238 0.0
H457 H 0.48103 0.89736 0.48074 0.0
H458 H 0.42472 0.83891 0.47798 0.0
H459 H 0.31289 0.82165 0.47789 0.0
H460 H 0.15788 0.66136 0.44851 0.0
H461 H 0.21285 0.71979 0.45352 0.0
C462 C 0.51715 0.30203 0.81536 0.0
C463 C 0.52896 0.31788 0.8322 0.0
C464 C 0.52256 0.27813 0.80991 0.0
C465 C 0.53727 0.21913 0.8263 0.0
H466 H 0.57566 0.22189 0.78017 0.0
C467 C 0.58533 0.13784 0.8033 0.0
C468 C 0.57836 0.12567 0.78572 0.0
C469 C 0.57735 0.15985 0.80929 0.0
C470 C 0.56435 0.22039 0.79299 0.0
H471 H 0.55546 0.32087 0.85659 0.0
H472 H 0.56504 0.27911 0.84704 0.0
H473 H 0.56621 0.26339 0.78995 0.0
H474 H 0.55656 0.12667 0.76077 0.0
H475 H 0.54146 0.16401 0.77133 0.0
H476 H 0.53517 0.17597 0.8293 0.0
C477 C 0.55143 0.28512 0.83808 0.0
C478 C 0.55906 0.24429 0.79861 0.0
C479 C 0.54628 0.30925 0.84349 0.0
C480 C 0.56197 0.1352 0.77443 0.0
C481 C 0.55385 0.15708 0.78044 0.0
C482 C 0.54237 0.19508 0.82063 0.0
C483 C 0.5397 0.26935 0.82121 0.0
C484 C 0.54546 0.24395 0.81533 0.0
C485 C 0.56207 0.17019 0.79786 0.0
C486 C 0.55597 0.19539 0.8039 0.0
H487 H 0.50407 0.30837 0.80629 0.0
H488 H 0.51293 0.26624 0.79688 0.0
H489 H 0.52631 0.21797 0.83917 0.0
H490 H 0.59749 0.13071 0.81242 0.0
H491 H 0.58427 0.16955 0.82277 0.0
C492 C 0.55016 0.82907 0.50024 0.0
C493 C 0.58561 0.86075 0.50306 0.0
C494 C 0.54616 0.80011 0.50382 0.0
C495 C 0.60322 0.76903 0.50926 0.0
H496 H 0.51564 0.6987 0.53379 0.0
C497 C 0.58732 0.65045 0.52401 0.0
C498 C 0.57803 0.64089 0.54124 0.0
C499 C 0.58338 0.67383 0.51778 0.0
C500 C 0.54026 0.71813 0.52692 0.0
H501 H 0.64419 0.88673 0.51249 0.0
H502 H 0.63729 0.83648 0.51853 0.0
H503 H 0.51915 0.74706 0.52627 0.0
H504 H 0.55511 0.64694 0.56507 0.0
H505 H 0.54881 0.68811 0.55429 0.0
H506 H 0.62501 0.74085 0.51035 0.0
C507 C 0.61277 0.83391 0.51324 0.0
C508 C 0.5421 0.74568 0.52248 0.0
C509 C 0.61673 0.86275 0.50974 0.0
C510 C 0.56301 0.6541 0.5518 0.0
C511 C 0.559 0.67744 0.54556 0.0
C512 C 0.60133 0.74151 0.51363 0.0
C513 C 0.57755 0.80222 0.51022 0.0
C514 C 0.57394 0.77171 0.51385 0.0
C515 C 0.56998 0.68818 0.5286 0.0
C516 C 0.57009 0.71592 0.52272 0.0
H517 H 0.52568 0.82658 0.49497 0.0
H518 H 0.5187 0.77604 0.50125 0.0
H519 H 0.6279 0.78843 0.50241 0.0
H520 H 0.5992 0.64095 0.51556 0.0
H521 H 0.59159 0.68121 0.50457 0.0
C522 C 0.70475 0.54591 0.83983 0.0
C523 C 0.66871 0.51893 0.84539 0.0
C524 C 0.73709 0.54629 0.84114 0.0
C525 C 0.7674 0.49136 0.84862 0.0
H526 H 0.86664 0.57654 0.85752 0.0
C527 C 0.91004 0.50396 0.84914 0.0
C528 C 0.94057 0.52925 0.86028 0.0
C529 C 0.87644 0.50165 0.84715 0.0
C530 C 0.83923 0.55235 0.85523 0.0
H531 H 0.6391 0.47111 0.85681 0.0
H532 H 0.69519 0.47205 0.85944 0.0
H533 H 0.8102 0.5746 0.85488 0.0
H534 H 0.95803 0.57073 0.87878 0.0
H535 H 0.9001 0.56642 0.87561 0.0
H536 H 0.79651 0.46908 0.84958 0.0
C537 C 0.69855 0.49276 0.85368 0.0
C538 C 0.80656 0.55128 0.8534 0.0
C539 C 0.66616 0.49229 0.85225 0.0
C540 C 0.93579 0.5514 0.86972 0.0
C541 C 0.9023 0.54898 0.86784 0.0
C542 C 0.80014 0.49242 0.85054 0.0
C543 C 0.73478 0.51985 0.84821 0.0
C544 C 0.76991 0.52079 0.85006 0.0
C545 C 0.87209 0.52438 0.85634 0.0
C546 C 0.83675 0.52295 0.85395 0.0
H547 H 0.70809 0.56684 0.83438 0.0
H548 H 0.76393 0.56739 0.83641 0.0
H549 H 0.74009 0.46731 0.84583 0.0
H550 H 0.91251 0.48649 0.84158 0.0
H551 H 0.85427 0.48245 0.83805 0.0
C552 C 0.20493 0.6335 0.15094 0.0
C553 C 0.17012 0.62852 0.15397 0.0
C554 C 0.23961 0.6658 0.15209 0.0
C555 C 0.28115 0.75434 0.14949 0.0
H556 H 0.36286 0.77231 0.17957 0.0
C557 C 0.43301 0.88254 0.15669 0.0
C558 C 0.44598 0.89501 0.174 0.0
C559 C 0.39973 0.8499 0.15308 0.0
C560 C 0.34031 0.76762 0.17108 0.0
H561 H 0.14431 0.65355 0.16011 0.0
H562 H 0.20466 0.70979 0.16176 0.0
H563 H 0.30411 0.71515 0.17494 0.0
H564 H 0.43464 0.88293 0.20104 0.0
H565 H 0.37696 0.82599 0.19473 0.0
H566 H 0.31736 0.80688 0.14569 0.0
C567 C 0.20516 0.68875 0.15862 0.0
C568 C 0.30685 0.73491 0.16834 0.0
C569 C 0.17065 0.65651 0.15779 0.0
C570 C 0.42508 0.87418 0.18759 0.0
C571 C 0.3923 0.84148 0.18398 0.0
C572 C 0.3149 0.78699 0.152 0.0
C573 C 0.24004 0.69375 0.15594 0.0
C574 C 0.27669 0.72801 0.15773 0.0
C575 C 0.37932 0.82894 0.1667 0.0
C576 C 0.34457 0.79403 0.16304 0.0
H577 H 0.20548 0.61244 0.148 0.0
H578 H 0.26609 0.66896 0.14991 0.0
H579 H 0.25841 0.74969 0.14117 0.0
H580 H 0.44859 0.89804 0.14597 0.0
H581 H 0.39038 0.84082 0.13964 0.0
C582 C 0.50471 0.1832 0.50355 0.0
C583 C 0.51688 0.18012 0.48704 0.0
C584 C 0.51033 0.21281 0.50935 0.0
C585 C 0.52724 0.28859 0.49377 0.0
H586 H 0.56388 0.32452 0.54126 0.0
C587 C 0.57909 0.42126 0.5183 0.0
C588 C 0.57122 0.42606 0.53552 0.0
C589 C 0.57034 0.39055 0.51215 0.0
C590 C 0.55308 0.31461 0.52804 0.0
H591 H 0.54419 0.20566 0.46359 0.0
H592 H 0.55424 0.2575 0.47376 0.0
H593 H 0.55325 0.27263 0.53105 0.0
H594 H 0.5472 0.4019 0.55967 0.0
H595 H 0.531 0.34815 0.54881 0.0
H596 H 0.52697 0.33053 0.49076 0.0
C597 C 0.54015 0.2369 0.48218 0.0
C598 C 0.54708 0.28487 0.52217 0.0
C599 C 0.53474 0.20734 0.47643 0.0
C600 C 0.55336 0.39906 0.54628 0.0
C601 C 0.54456 0.36833 0.54013 0.0
C602 C 0.5331 0.31829 0.49965 0.0
C603 C 0.52808 0.24001 0.49873 0.0
C604 C 0.53418 0.27154 0.50496 0.0
C605 C 0.55343 0.36381 0.52306 0.0
C606 C 0.54618 0.33173 0.51686 0.0
H607 H 0.49121 0.16283 0.51212 0.0
H608 H 0.50042 0.21429 0.5221 0.0
H609 H 0.51678 0.27873 0.48051 0.0
H610 H 0.5924 0.44138 0.50958 0.0
H611 H 0.57785 0.3881 0.49898 0.0
C612 C 0.4318 0.48955 0.85327 0.0
C613 C 0.46676 0.51638 0.84674 0.0
C614 C 0.40002 0.49005 0.85445 0.0
C615 C 0.37212 0.54775 0.85468 0.0
H616 H 0.26983 0.46538 0.84649 0.0
C617 C 0.23823 0.54683 0.85135 0.0
C618 C 0.20368 0.52029 0.85836 0.0
C619 C 0.26985 0.54616 0.84963 0.0
C620 C 0.29807 0.48864 0.84905 0.0
H621 H 0.49504 0.56489 0.83626 0.0
H622 H 0.43977 0.56561 0.83812 0.0
H623 H 0.32496 0.46477 0.84409 0.0
H624 H 0.17599 0.47174 0.86874 0.0
H625 H 0.23091 0.47081 0.866 0.0
H626 H 0.34521 0.57161 0.85965 0.0
C627 C 0.43696 0.54424 0.84259 0.0
C628 C 0.32996 0.4883 0.84767 0.0
C629 C 0.46878 0.54373 0.84141 0.0
C630 C 0.20193 0.49287 0.86341 0.0
C631 C 0.23354 0.49218 0.86166 0.0
C632 C 0.34022 0.54809 0.85606 0.0
C633 C 0.40191 0.51738 0.84914 0.0
C634 C 0.36765 0.51784 0.85048 0.0
C635 C 0.26824 0.51891 0.85483 0.0
C636 C 0.30253 0.51854 0.85328 0.0
H637 H 0.42892 0.46807 0.8576 0.0
H638 H 0.37404 0.46905 0.85983 0.0
H639 H 0.40035 0.571 0.85727 0.0
H640 H 0.24132 0.56868 0.8475 0.0
H641 H 0.29561 0.56712 0.8441 0.0
C642 C 0.95164 0.40129 0.13998 0.0
C643 C 0.95905 0.42787 0.15121 0.0
C644 C 0.91897 0.36851 0.14193 0.0
C645 C 0.85088 0.31595 0.17526 0.0
H646 H 0.78781 0.25402 0.13628 0.0
C647 C 0.71222 0.18685 0.18718 0.0
C648 C 0.70384 0.15935 0.17654 0.0
C649 C 0.74113 0.21945 0.18287 0.0
C650 C 0.80534 0.27087 0.14731 0.0
H651 H 0.93725 0.44072 0.17305 0.0
H652 H 0.88056 0.38391 0.17635 0.0
H653 H 0.84284 0.3111 0.13097 0.0
H654 H 0.71838 0.14445 0.15275 0.0
H655 H 0.76954 0.2015 0.14533 0.0
H656 H 0.81432 0.27597 0.19161 0.0
C657 C 0.90015 0.38829 0.16615 0.0
C658 C 0.83685 0.30361 0.14425 0.0
C659 C 0.9326 0.42097 0.16416 0.0
C660 C 0.72404 0.16519 0.16112 0.0
C661 C 0.75335 0.19792 0.15688 0.0
C662 C 0.81966 0.2833 0.17831 0.0
C663 C 0.89316 0.36157 0.15523 0.0
C664 C 0.85983 0.3266 0.15822 0.0
C665 C 0.76284 0.22549 0.16792 0.0
C666 C 0.79622 0.26031 0.16441 0.0
H667 H 0.97138 0.40568 0.12986 0.0
H668 H 0.91454 0.34847 0.13337 0.0
H669 H 0.86843 0.33277 0.1863 0.0
H670 H 0.69676 0.1831 0.19903 0.0
H671 H 0.74678 0.23996 0.19145 0.0
C672 C 0.06377 0.57056 0.09611 0.0
C673 C 0.05299 0.54271 0.10508 0.0
C674 C 0.06699 0.57021 0.07798 0.0
C675 C 0.03514 0.51307 0.03842 0.0
H676 H 0.11993 0.59208 0.01736 0.0
C677 C 0.06381 0.51492 0.96435 0.0
C678 C 0.07627 0.54406 0.95616 0.0
C679 C 0.06096 0.51401 0.98251 0.0
C680 C 0.0958 0.56991 0.02299 0.0
H681 H 0.03733 0.4927 0.10218 0.0
H682 H 0.043 0.49205 0.0705 0.0
H683 H 0.11518 0.59204 0.04896 0.0
H684 H 0.09424 0.59468 0.96064 0.0
H685 H 0.08898 0.59304 0.99217 0.0
H686 H 1.01557 0.49104 0.01243 0.0
C687 C 0.04861 0.51406 0.07744 0.0
C688 C 0.09312 0.5699 0.04113 0.0
C689 C 0.04553 0.51449 0.09559 0.0
C690 C 0.08525 0.57205 0.96654 0.0
C691 C 0.08229 0.57111 0.98465 0.0
C692 C 0.03775 0.51312 0.02025 0.0
C693 C 0.05939 0.54193 0.06841 0.0
C694 C 0.06264 0.54156 0.04909 0.0
C695 C 0.07038 0.54218 0.99291 0.0
C696 C 0.068 0.54163 0.01228 0.0
H697 H 0.06968 0.59265 0.10311 0.0
H698 H 0.07493 0.59194 0.07142 0.0
H699 H 1.01106 0.49095 0.04411 0.0
H700 H 0.05704 0.49303 0.95675 0.0
H701 H 0.0521 0.49143 0.98842 0.0
C702 C 0.60031 0.04797 0.41919 0.0
C703 C 0.56815 0.02308 0.42801 0.0
C704 C 0.59846 0.04917 0.40118 0.0
C705 C 0.53096 0.01353 0.36241 0.0
H706 H 0.62316 0.04162 0.33802 0.0
C707 C 0.54097 0.99171 0.28767 0.0
C708 C 0.56993 0.02031 0.27936 0.0
C709 C 0.53812 0.99291 0.30581 0.0
C710 C 0.59731 0.03394 0.34468 0.0
H711 H 0.50848 0.98035 0.42519 0.0
H712 H 0.50552 0.9812 0.39351 0.0
H713 H 0.62306 0.04169 0.36961 0.0
H714 H 0.61833 0.07253 0.28336 0.0
H715 H 0.61395 0.07437 0.31514 0.0
H716 H 0.50499 0.0043 0.33707 0.0
C717 C 0.532 0.00052 0.40048 0.0
C718 C 0.59723 0.0342 0.36284 0.0
C719 C 0.53366 -0.00014 0.41862 0.0
C720 C 0.59561 0.05021 0.28945 0.0
C721 C 0.59322 0.05123 0.30759 0.0
C722 C 0.53087 0.01265 0.34416 0.0
C723 C 0.56464 0.02488 0.39146 0.0
C724 C 0.56419 0.02431 0.37202 0.0
C725 C 0.56468 0.02253 0.31593 0.0
C726 C 0.56417 0.02312 0.33519 0.0
H727 H 0.62709 0.06646 0.42622 0.0
H728 H 0.62384 0.06901 0.39489 0.0
H729 H 0.5051 0.00611 0.36895 0.0
H730 H 0.52075 0.96841 0.28013 0.0
H731 H 0.51601 0.97043 0.31199 0.0
C732 C 0.59714 0.53348 0.78842 0.0
C733 C 0.55999 0.50889 0.7939 0.0
C734 C 0.60395 0.53958 0.77072 0.0
C735 C 0.56274 0.49797 0.72724 0.0
H736 H 0.62841 0.58724 0.71086 0.0
C737 C 0.57033 0.52098 0.65434 0.0
C738 C 0.60637 0.54539 0.64771 0.0
C739 C 0.56562 0.51757 0.67228 0.0
C740 C 0.61035 0.56214 0.71524 0.0
H741 H 0.50072 0.47224 0.78537 0.0
H742 H 0.5125 0.48289 0.75463 0.0
H743 H 0.61897 0.57992 0.74212 0.0
H744 H 0.6656 0.58578 0.65485 0.0
H745 H 0.65757 0.57926 0.68612 0.0
H746 H 0.55422 0.48005 0.7005 0.0
C747 C 0.53649 0.49712 0.76387 0.0
C748 C 0.60494 0.55797 0.73314 0.0
C749 C 0.52971 0.49115 0.7815 0.0
C750 C 0.63754 0.56643 0.65949 0.0
C751 C 0.63284 0.56297 0.67745 0.0
C752 C 0.56824 0.50211 0.70939 0.0
C753 C 0.57373 0.52105 0.75823 0.0
C754 C 0.58078 0.52583 0.73931 0.0
C755 C 0.59684 0.53841 0.68406 0.0
C756 C 0.59184 0.53423 0.70314 0.0
H757 H 0.62099 0.54751 0.79774 0.0
H758 H 0.63298 0.55809 0.76675 0.0
H759 H 0.54455 0.47285 0.7316 0.0
H760 H 0.54578 0.50415 0.64565 0.0
H761 H 0.53738 0.49867 0.67693 0.0
C762 C 0.57964 0.03586 0.53328 0.0
C763 C 0.54246 0.02061 0.52663 0.0
C764 C 0.58603 0.03593 0.55106 0.0
C765 C 0.53819 0.99419 0.5913 0.0
H766 H 0.62239 0.0779 0.61444 0.0
C767 C 0.58592 0.00711 0.66339 0.0
C768 C 0.59544 0.03561 0.67346 0.0
C769 C 0.57849 0.00382 0.64543 0.0
C770 C 0.59865 0.05438 0.60818 0.0
H771 H 0.4827 0.99275 0.53316 0.0
H772 H 0.49381 0.99292 0.56425 0.0
H773 H 0.61158 0.07446 0.5831 0.0
H774 H 0.60293 0.08229 0.6726 0.0
H775 H 0.5903 0.07667 0.64133 0.0
H776 H 0.52499 0.9743 0.61651 0.0
C777 C 0.51802 0.00467 0.55574 0.0
C778 C 0.59272 0.05231 0.59019 0.0
C779 C 0.51167 0.00475 0.53797 0.0
C780 C 0.5965 0.06036 0.6652 0.0
C781 C 0.58924 0.05714 0.64727 0.0
C782 C 0.54428 -0.00378 0.60931 0.0
C783 C 0.55532 0.0206 0.56252 0.0
C784 C 0.56231 0.02226 0.58155 0.0
C785 C 0.58055 0.02902 0.63715 0.0
C786 C 0.5744 0.02643 0.61797 0.0
H787 H 0.60388 0.04816 0.52479 0.0
H788 H 0.61503 0.04804 0.55584 0.0
H789 H 0.51469 0.97062 0.58499 0.0
H790 H 0.58528 0.98775 0.66929 0.0
H791 H 0.57217 0.98198 0.63796 0.0
C792 C 0.53578 0.49169 0.89623 0.0
C793 C 0.57355 0.51785 0.8923 0.0
C794 C 0.52759 0.47734 0.91221 0.0
C795 C 0.56945 0.46447 0.94868 0.0
H796 H 0.4809 0.44616 0.97288 0.0
C797 C 0.50148 0.3788 0.00656 0.0
C798 C 0.48918 0.3894 0.02046 0.0
C799 C 0.51459 0.39615 0.99135 0.0
C800 C 0.50589 0.45133 0.96637 0.0
H801 H 0.6325 0.54939 0.90182 0.0
H802 H 0.61811 0.52418 0.92999 0.0
H803 H 0.49889 0.47399 0.9457 0.0
H804 H 0.48281 0.4275 0.02961 0.0
H805 H 0.50519 0.4574 0.0031 0.0
H806 H 0.57633 0.4417 0.96946 0.0
C807 C 0.59492 0.51477 0.92062 0.0
C808 C 0.51598 0.467 0.95072 0.0
C809 C 0.60312 0.52931 0.9046 0.0
C810 C 0.4911 0.41813 0.01897 0.0
C811 C 0.50407 0.43536 0.00381 0.0
C812 C 0.55919 0.44856 0.96434 0.0
C813 C 0.557 0.48877 0.92461 0.0
C814 C 0.54768 0.47353 0.94164 0.0
C815 C 0.51559 0.42439 0.98976 0.0
C816 C 0.52721 0.44175 0.97331 0.0
H817 H 0.51244 0.48224 0.88695 0.0
H818 H 0.49818 0.45702 0.9148 0.0
H819 H 0.59389 0.46902 0.94189 0.0
H820 H 0.50017 0.35668 0.00726 0.0
H821 H 0.52296 0.38694 0.98066 0.0
C822 C 0.08563 0.5402 0.20785 0.0
C823 C 0.07441 0.51158 0.19745 0.0
C824 C 0.08225 0.53905 0.22597 0.0
C825 C 0.07216 0.48844 0.26205 0.0
H826 H 0.04556 0.53943 0.28879 0.0
C827 C 0.04203 0.47359 0.33536 0.0
C828 C 0.06145 0.50345 0.34598 0.0
C829 C 0.04103 0.47421 0.31723 0.0
C830 C 0.05317 0.52518 0.28148 0.0
H831 H 0.04982 0.45915 0.19764 0.0
H832 H 0.04292 0.45679 0.22909 0.0
H833 H 0.0487 0.54118 0.25708 0.0
H834 H 0.09364 0.5572 0.346 0.0
H835 H 0.09172 0.55827 0.31429 0.0
H836 H 0.0762 0.4722 0.28643 0.0
C837 C 0.05537 0.48042 0.22345 0.0
C838 C 0.05514 0.52627 0.26331 0.0
C839 C 0.05911 0.48169 0.2054 0.0
C840 C 0.07873 0.53383 0.33812 0.0
C841 C 0.07738 0.53442 0.32 0.0
C842 C 0.0698 0.48711 0.28014 0.0
C843 C 0.06728 0.50916 0.23403 0.0
C844 C 0.06475 0.50795 0.25336 0.0
C845 C 0.05909 0.50467 0.30935 0.0
C846 C 0.06038 0.50551 0.29006 0.0
H847 H 0.0976 0.56359 0.20201 0.0
H848 H 0.09215 0.56178 0.23368 0.0
H849 H 0.08048 0.47458 0.25491 0.0
H850 H 1.02869 0.44983 0.34103 0.0
H851 H 1.02642 0.45086 0.30935 0.0
loop_
_geom_bond_atom_site_label_1
_geom_bond_atom_site_label_2
_geom_bond_distance
_geom_bond_site_symmetry_2
_ccdc_geom_bond_type
Gd0 C3 2.818 . S
Gd0 O20 2.377 . S
Gd0 O22 2.448 . S
Gd0 O23 2.506 . S
Gd0 O24 2.435 . S
Gd0 O25 2.717 . S
Gd0 O27 2.395 1_455 S
Gd0 O31 2.327 . S
Gd1 C12 2.818 1_455 S
Gd1 O21 2.395 . S
Gd1 O25 2.327 . S
Gd1 O26 2.377 1_455 S
Gd1 O28 2.448 1_455 S
Gd1 O29 2.506 1_455 S
Gd1 O30 2.435 . S
Gd1 O31 2.717 . S
C2 O20 1.240 . S
C2 O21 1.240 . S
C3 Gd0 2.818 . S
C3 C4 1.510 . S
C3 O22 1.249 . S
C3 O23 1.252 . S
C4 C3 1.510 . S
C4 C5 1.404 . S
C4 C6 1.352 . S
C5 C4 1.404 . S
C5 C9 1.389 . S
C5 H32 0.930 . S
C6 C4 1.352 . S
C6 C8 1.374 . S
C6 H33 0.931 . S
C7 C8 1.359 . S
C7 C9 1.364 . S
C8 C6 1.374 . S
C8 C7 1.359 . S
C8 H34 0.931 . S
C9 C5 1.389 . S
C9 C7 1.364 . S
C9 H35 0.931 . S
C10 O24 1.256 . S
C10 O25 1.257 . S
C11 O26 1.240 . S
C11 O27 1.240 . S
C12 Gd1 2.818 1_655 S
C12 C13 1.510 . S
C12 O28 1.249 . S
C12 O29 1.252 . S
C13 C12 1.510 . S
C13 C14 1.404 . S
C13 C15 1.352 . S
C14 C13 1.404 . S
C14 C18 1.389 . S
C14 H36 0.930 . S
C15 C13 1.352 . S
C15 C17 1.374 . S
C15 H37 0.931 . S
C16 C17 1.359 . S
C16 C18 1.364 . S
C17 C15 1.374 . S
C17 C16 1.359 . S
C17 H38 0.931 . S
C18 C14 1.389 . S
C18 C16 1.364 . S
C18 H39 0.931 . S
C19 O30 1.256 . S
C19 O31 1.257 . S
O20 Gd0 2.377 . S
O20 C2 1.240 . S
O21 Gd1 2.395 . S
O21 C2 1.240 . S
O22 Gd0 2.448 . S
O22 C3 1.249 . S
O23 Gd0 2.506 . S
O23 C3 1.252 . S
O24 Gd0 2.435 . S
O24 C10 1.256 . S
O25 Gd0 2.717 . S
O25 Gd1 2.327 . S
O25 C10 1.257 . S
O26 Gd1 2.377 1_655 S
O26 C11 1.240 . S
O27 Gd0 2.395 1_655 S
O27 C11 1.240 . S
O28 Gd1 2.448 1_655 S
O28 C12 1.249 . S
O29 Gd1 2.506 1_655 S
O29 C12 1.252 . S
O30 Gd1 2.435 . S
O30 C19 1.256 . S
O31 Gd0 2.327 . S
O31 Gd1 2.717 . S
O31 C19 1.257 . S
H32 C5 0.930 . S
H33 C6 0.931 . S
H34 C8 0.931 . S
H35 C9 0.931 . S
H36 C14 0.930 . S
H37 C15 0.931 . S
H38 C17 0.931 . S
H39 C18 0.931 . S
Gd40 C43 2.818 . S
Gd40 O60 2.377 . S
Gd40 O62 2.448 . S
Gd40 O63 2.506 . S
Gd40 O64 2.435 . S
Gd40 O65 2.717 1_565 S
Gd40 O67 2.395 1_565 S
Gd40 O71 2.327 1_565 S
Gd41 C52 2.818 . S
Gd41 O61 2.395 1_545 S
Gd41 O65 2.327 . S
Gd41 O66 2.377 . S
Gd41 O68 2.448 . S
Gd41 O69 2.506 . S
Gd41 O70 2.435 . S
Gd41 O71 2.717 . S
C42 O60 1.240 . S
C42 O61 1.240 . S
C43 Gd40 2.818 . S
C43 C44 1.510 . S
C43 O62 1.249 . S
C43 O63 1.252 . S
C44 C43 1.510 . S
C44 C45 1.404 . S
C44 C46 1.352 . S
C45 C44 1.404 . S
C45 C49 1.389 . S
C45 H72 0.930 . S
C46 C44 1.352 . S
C46 C48 1.374 . S
C46 H73 0.931 . S
C47 C48 1.359 . S
C47 C49 1.364 . S
C48 C46 1.374 . S
C48 C47 1.359 . S
C48 H74 0.931 . S
C49 C45 1.389 . S
C49 C47 1.364 . S
C49 H75 0.931 . S
C50 O64 1.256 1_545 S
C50 O65 1.257 . S
C51 O66 1.240 . S
C51 O67 1.240 . S
C52 Gd41 2.818 . S
C52 C53 1.510 . S
C52 O68 1.249 . S
C52 O69 1.252 . S
C53 C52 1.510 . S
C53 C54 1.404 . S
C53 C55 1.352 . S
C54 C53 1.404 . S
C54 C58 1.389 . S
C54 H76 0.930 . S
C55 C53 1.352 . S
C55 C57 1.374 . S
C55 H77 0.931 . S
C56 C57 1.359 . S
C56 C58 1.364 . S
C57 C55 1.374 . S
C57 C56 1.359 . S
C57 H78 0.931 . S
C58 C54 1.389 . S
C58 C56 1.364 . S
C58 H79 0.931 . S
C59 O70 1.256 . S
C59 O71 1.257 . S
O60 Gd40 2.377 . S
O60 C42 1.240 . S
O61 Gd41 2.395 1_565 S
O61 C42 1.240 . S
O62 Gd40 2.448 . S
O62 C43 1.249 . S
O63 Gd40 2.506 . S
O63 C43 1.252 . S
O64 Gd40 2.435 . S
O64 C50 1.256 1_565 S
O65 Gd40 2.717 1_545 S
O65 Gd41 2.327 . S
O65 C50 1.257 . S
O66 Gd41 2.377 . S
O66 C51 1.240 . S
O67 Gd40 2.395 1_545 S
O67 C51 1.240 . S
O68 Gd41 2.448 . S
O68 C52 1.249 . S
O69 Gd41 2.506 . S
O69 C52 1.252 . S
O70 Gd41 2.435 . S
O70 C59 1.256 . S
O71 Gd40 2.327 1_545 S
O71 Gd41 2.717 . S
O71 C59 1.257 . S
H72 C45 0.930 . S
H73 C46 0.931 . S
H74 C48 0.931 . S
H75 C49 0.931 . S
H76 C54 0.930 . S
H77 C55 0.931 . S
H78 C57 0.931 . S
H79 C58 0.931 . S
Gd80 C83 2.818 . S
Gd80 O100 2.377 . S
Gd80 O102 2.448 . S
Gd80 O103 2.506 . S
Gd80 O104 2.435 . S
Gd80 O105 2.717 . S
Gd80 O107 2.395 . S
Gd80 O111 2.327 . S
Gd81 C92 2.818 . S
Gd81 O101 2.395 . S
Gd81 O105 2.327 . S
Gd81 O106 2.377 . S
Gd81 O108 2.448 . S
Gd81 O109 2.506 . S
Gd81 O110 2.435 . S
Gd81 O111 2.717 . S
C82 O100 1.240 . S
C82 O101 1.240 . S
C83 Gd80 2.818 . S
C83 C84 1.510 . S
C83 O102 1.249 . S
C83 O103 1.252 . S
C84 C83 1.510 . S
C84 C85 1.404 . S
C84 C86 1.352 . S
C85 C84 1.404 . S
C85 C89 1.389 . S
C85 H112 0.930 . S
C86 C84 1.352 . S
C86 C88 1.374 . S
C86 H113 0.931 . S
C87 C88 1.359 . S
C87 C89 1.364 . S
C88 C86 1.374 . S
C88 C87 1.359 . S
C88 H114 0.931 . S
C89 C85 1.389 . S
C89 C87 1.364 . S
C89 H115 0.931 . S
C90 O104 1.256 . S
C90 O105 1.257 . S
C91 O106 1.240 . S
C91 O107 1.240 . S
C92 Gd81 2.818 . S
C92 C93 1.510 . S
C92 O108 1.249 . S
C92 O109 1.252 . S
C93 C92 1.510 . S
C93 C94 1.404 . S
C93 C95 1.352 . S
C94 C93 1.404 . S
C94 C98 1.389 . S
C94 H116 0.930 . S
C95 C93 1.352 . S
C95 C97 1.374 . S
C95 H117 0.931 . S
C96 C97 1.359 . S
C96 C98 1.364 . S
C97 C95 1.374 . S
C97 C96 1.359 . S
C97 H118 0.931 . S
C98 C94 1.389 . S
C98 C96 1.364 . S
C98 H119 0.931 . S
C99 O110 1.256 . S
C99 O111 1.257 . S
O100 Gd80 2.377 . S
O100 C82 1.240 . S
O101 Gd81 2.395 . S
O101 C82 1.240 . S
O102 Gd80 2.448 . S
O102 C83 1.249 . S
O103 Gd80 2.506 . S
O103 C83 1.252 . S
O104 Gd80 2.435 . S
O104 C90 1.256 . S
O105 Gd80 2.717 . S
O105 Gd81 2.327 . S
O105 C90 1.257 . S
O106 Gd81 2.377 . S
O106 C91 1.240 . S
O107 Gd80 2.395 . S
O107 C91 1.240 . S
O108 Gd81 2.448 . S
O108 C92 1.249 . S
O109 Gd81 2.506 . S
O109 C92 1.252 . S
O110 Gd81 2.435 . S
O110 C99 1.256 . S
O111 Gd80 2.327 . S
O111 Gd81 2.717 . S
O111 C99 1.257 . S
H112 C85 0.930 . S
H113 C86 0.931 . S
H114 C88 0.931 . S
H115 C89 0.931 . S
H116 C94 0.930 . S
H117 C95 0.931 . S
H118 C97 0.931 . S
H119 C98 0.931 . S
P120 O131 1.490 1_545 S
P120 C134 1.812 1_545 S
P120 C140 1.803 . S
P120 C146 1.819 . S
H121 C135 0.941 . S
H122 C136 0.939 . S
H123 C138 0.940 . S
H124 C139 0.940 . S
H125 C141 0.939 . S
H126 C142 0.942 . S
H127 C144 0.940 . S
H128 C145 0.939 . S
H129 C147 0.941 . S
H130 C151 0.939 . S
O131 P120 1.490 1_565 S
H132 C148 0.939 . S
H133 C150 0.940 . S
C134 P120 1.812 1_565 S
C134 C135 1.389 . S
C134 C139 1.391 . S
C135 H121 0.941 . S
C135 C134 1.389 . S
C135 C136 1.397 . S
C136 H122 0.939 . S
C136 C135 1.397 . S
C136 C137 1.378 . S
C137 C136 1.378 . S
C137 C138 1.378 . S
C138 H123 0.940 . S
C138 C137 1.378 . S
C138 C139 1.396 . S
C139 H124 0.940 . S
C139 C134 1.391 . S
C139 C138 1.396 . S
C140 P120 1.803 . S
C140 C141 1.378 . S
C140 C145 1.400 . S
C141 H125 0.939 . S
C141 C140 1.378 . S
C141 C142 1.361 . S
C142 H126 0.942 . S
C142 C141 1.361 . S
C142 C143 1.369 . S
C143 C142 1.369 . S
C143 C144 1.404 . S
C144 H127 0.940 . S
C144 C143 1.404 . S
C144 C145 1.389 . S
C145 H128 0.939 . S
C145 C140 1.400 . S
C145 C144 1.389 . S
C146 P120 1.819 . S
C146 C147 1.391 1_545 S
C146 C151 1.391 . S
C147 H129 0.941 . S
C147 C146 1.391 1_565 S
C147 C148 1.396 . S
C148 H132 0.939 . S
C148 C147 1.396 . S
C148 C149 1.397 1_565 S
C149 C148 1.397 1_545 S
C149 C150 1.385 . S
C150 H133 0.940 . S
C150 C149 1.385 . S
C150 C151 1.388 . S
C151 H130 0.939 . S
C151 C146 1.391 . S
C151 C150 1.388 . S
P152 O163 1.490 . S
P152 C166 1.812 . S
P152 C172 1.803 . S
P152 C178 1.819 . S
H153 C167 0.941 . S
H154 C168 0.939 . S
H155 C170 0.940 . S
H156 C171 0.940 . S
H157 C173 0.939 . S
H158 C174 0.942 . S
H159 C176 0.940 . S
H160 C177 0.939 . S
H161 C179 0.941 . S
H162 C183 0.939 . S
O163 P152 1.490 . S
H164 C180 0.939 . S
H165 C182 0.940 . S
C166 P152 1.812 . S
C166 C167 1.389 . S
C166 C171 1.391 . S
C167 H153 0.941 . S
C167 C166 1.389 . S
C167 C168 1.397 . S
C168 H154 0.939 . S
C168 C167 1.397 . S
C168 C169 1.378 . S
C169 C168 1.378 . S
C169 C170 1.378 . S
C170 H155 0.940 . S
C170 C169 1.378 . S
C170 C171 1.396 . S
C171 H156 0.940 . S
C171 C166 1.391 . S
C171 C170 1.396 . S
C172 P152 1.803 . S
C172 C173 1.378 . S
C172 C177 1.400 . S
C173 H157 0.939 . S
C173 C172 1.378 . S
C173 C174 1.361 . S
C174 H158 0.942 . S
C174 C173 1.361 . S
C174 C175 1.369 . S
C175 C174 1.369 . S
C175 C176 1.404 . S
C176 H159 0.940 . S
C176 C175 1.404 . S
C176 C177 1.389 . S
C177 H160 0.939 . S
C177 C172 1.400 . S
C177 C176 1.389 . S
C178 P152 1.819 . S
C178 C179 1.391 . S
C178 C183 1.391 . S
C179 H161 0.941 . S
C179 C178 1.391 . S
C179 C180 1.396 . S
C180 H164 0.939 . S
C180 C179 1.396 . S
C180 C181 1.397 . S
C181 C180 1.397 . S
C181 C182 1.385 . S
C182 H165 0.940 . S
C182 C181 1.385 . S
C182 C183 1.388 . S
C183 H162 0.939 . S
C183 C178 1.391 . S
C183 C182 1.388 . S
P184 O195 1.490 . S
P184 C198 1.812 . S
P184 C204 1.803 . S
P184 C210 1.819 . S
H185 C199 0.941 . S
H186 C200 0.939 . S
H187 C202 0.940 . S
H188 C203 0.940 . S
H189 C205 0.939 . S
H190 C206 0.942 1_655 S
H191 C208 0.940 . S
H192 C209 0.939 . S
H193 C211 0.941 . S
H194 C215 0.939 . S
O195 P184 1.490 . S
H196 C212 0.939 . S
H197 C214 0.940 . S
C198 P184 1.812 . S
C198 C199 1.389 . S
C198 C203 1.391 . S
C199 H185 0.941 . S
C199 C198 1.389 . S
C199 C200 1.397 . S
C200 H186 0.939 . S
C200 C199 1.397 . S
C200 C201 1.378 . S
C201 C200 1.378 . S
C201 C202 1.378 . S
C202 H187 0.940 . S
C202 C201 1.378 . S
C202 C203 1.396 . S
C203 H188 0.940 . S
C203 C198 1.391 . S
C203 C202 1.396 . S
C204 P184 1.803 . S
C204 C205 1.378 . S
C204 C209 1.400 . S
C205 H189 0.939 . S
C205 C204 1.378 . S
C205 C206 1.361 . S
C206 H190 0.942 1_455 S
C206 C205 1.361 . S
C206 C207 1.369 1_455 S
C207 C206 1.369 1_655 S
C207 C208 1.404 . S
C208 H191 0.940 . S
C208 C207 1.404 . S
C208 C209 1.389 1_655 S
C209 H192 0.939 . S
C209 C204 1.400 . S
C209 C208 1.389 1_455 S
C210 P184 1.819 . S
C210 C211 1.391 . S
C210 C215 1.391 . S
C211 H193 0.941 . S
C211 C210 1.391 . S
C211 C212 1.396 . S
C212 H196 0.939 . S
C212 C211 1.396 . S
C212 C213 1.397 . S
C213 C212 1.397 . S
C213 C214 1.385 . S
C214 H197 0.940 . S
C214 C213 1.385 . S
C214 C215 1.388 . S
C215 H194 0.939 . S
C215 C210 1.391 . S
C215 C214 1.388 . S
P216 O227 1.490 . S
P216 C230 1.812 . S
P216 C236 1.803 1_455 S
P216 C242 1.819 . S
H217 C231 0.941 . S
H218 C232 0.939 . S
H219 C234 0.940 . S
H220 C235 0.940 . S
H221 C237 0.939 . S
H222 C238 0.942 . S
H223 C240 0.940 . S
H224 C241 0.939 . S
H225 C243 0.941 . S
H226 C247 0.939 . S
O227 P216 1.490 . S
H228 C244 0.939 . S
H229 C246 0.940 . S
C230 P216 1.812 . S
C230 C231 1.389 . S
C230 C235 1.391 . S
C231 H217 0.941 . S
C231 C230 1.389 . S
C231 C232 1.397 . S
C232 H218 0.939 . S
C232 C231 1.397 . S
C232 C233 1.378 . S
C233 C232 1.378 . S
C233 C234 1.378 . S
C234 H219 0.940 . S
C234 C233 1.378 . S
C234 C235 1.396 . S
C235 H220 0.940 . S
C235 C230 1.391 . S
C235 C234 1.396 . S
C236 P216 1.803 1_655 S
C236 C237 1.378 . S
C236 C241 1.400 . S
C237 H221 0.939 . S
C237 C236 1.378 . S
C237 C238 1.361 . S
C238 H222 0.942 . S
C238 C237 1.361 . S
C238 C239 1.369 . S
C239 C238 1.369 . S
C239 C240 1.404 . S
C240 H223 0.940 . S
C240 C239 1.404 . S
C240 C241 1.389 . S
C241 H224 0.939 . S
C241 C236 1.400 . S
C241 C240 1.389 . S
C242 P216 1.819 . S
C242 C243 1.391 . S
C242 C247 1.391 1_455 S
C243 H225 0.941 . S
C243 C242 1.391 . S
C243 C244 1.396 . S
C244 H228 0.939 . S
C244 C243 1.396 . S
C244 C245 1.397 . S
C245 C244 1.397 . S
C245 C246 1.385 1_455 S
C246 H229 0.940 . S
C246 C245 1.385 1_655 S
C246 C247 1.388 . S
C247 H226 0.939 . S
C247 C242 1.391 1_655 S
C247 C246 1.388 . S
P248 O259 1.490 . S
P248 C262 1.812 . S
P248 C268 1.803 1_545 S
P248 C274 1.819 . S
H249 C263 0.941 . S
H250 C264 0.939 . S
H251 C266 0.940 . S
H252 C267 0.940 . S
H253 C269 0.939 . S
H254 C270 0.942 . S
H255 C272 0.940 . S
H256 C273 0.939 . S
H257 C275 0.941 . S
H258 C279 0.939 . S
O259 P248 1.490 . S
H260 C276 0.939 . S
H261 C278 0.940 . S
C262 P248 1.812 . S
C262 C263 1.389 . S
C262 C267 1.391 . S
C263 H249 0.941 . S
C263 C262 1.389 . S
C263 C264 1.397 . S
C264 H250 0.939 . S
C264 C263 1.397 . S
C264 C265 1.378 . S
C265 C264 1.378 . S
C265 C266 1.378 . S
C266 H251 0.940 . S
C266 C265 1.378 . S
C266 C267 1.396 . S
C267 H252 0.940 . S
C267 C262 1.391 . S
C267 C266 1.396 . S
C268 P248 1.803 1_565 S
C268 C269 1.378 . S
C268 C273 1.400 . S
C269 H253 0.939 . S
C269 C268 1.378 . S
C269 C270 1.361 . S
C270 H254 0.942 . S
C270 C269 1.361 . S
C270 C271 1.369 . S
C271 C270 1.369 . S
C271 C272 1.404 . S
C272 H255 0.940 . S
C272 C271 1.404 . S
C272 C273 1.389 . S
C273 H256 0.939 . S
C273 C268 1.400 . S
C273 C272 1.389 . S
C274 P248 1.819 . S
C274 C275 1.391 . S
C274 C279 1.391 1_545 S
C275 H257 0.941 . S
C275 C274 1.391 . S
C275 C276 1.396 . S
C276 H260 0.939 . S
C276 C275 1.396 . S
C276 C277 1.397 . S
C277 C276 1.397 . S
C277 C278 1.385 1_545 S
C278 H261 0.940 . S
C278 C277 1.385 1_565 S
C278 C279 1.388 . S
C279 H258 0.939 . S
C279 C274 1.391 1_565 S
C279 C278 1.388 . S
P280 O291 1.490 . S
P280 C294 1.812 . S
P280 C300 1.803 . S
P280 C306 1.819 . S
H281 C295 0.941 . S
H282 C296 0.939 . S
H283 C298 0.940 . S
H284 C299 0.940 . S
H285 C301 0.939 . S
H286 C302 0.942 . S
H287 C304 0.940 . S
H288 C305 0.939 . S
H289 C307 0.941 . S
H290 C311 0.939 . S
O291 P280 1.490 . S
H292 C308 0.939 . S
H293 C310 0.940 . S
C294 P280 1.812 . S
C294 C295 1.389 . S
C294 C299 1.391 . S
C295 H281 0.941 . S
C295 C294 1.389 . S
C295 C296 1.397 . S
C296 H282 0.939 . S
C296 C295 1.397 . S
C296 C297 1.378 . S
C297 C296 1.378 . S
C297 C298 1.378 . S
C298 H283 0.940 . S
C298 C297 1.378 . S
C298 C299 1.396 . S
C299 H284 0.940 . S
C299 C294 1.391 . S
C299 C298 1.396 . S
C300 P280 1.803 . S
C300 C301 1.378 . S
C300 C305 1.400 . S
C301 H285 0.939 . S
C301 C300 1.378 . S
C301 C302 1.361 . S
C302 H286 0.942 . S
C302 C301 1.361 . S
C302 C303 1.369 . S
C303 C302 1.369 . S
C303 C304 1.404 . S
C304 H287 0.940 . S
C304 C303 1.404 . S
C304 C305 1.389 . S
C305 H288 0.939 . S
C305 C300 1.400 . S
C305 C304 1.389 . S
C306 P280 1.819 . S
C306 C307 1.391 . S
C306 C311 1.391 . S
C307 H289 0.941 . S
C307 C306 1.391 . S
C307 C308 1.396 . S
C308 H292 0.939 . S
C308 C307 1.396 . S
C308 C309 1.397 . S
C309 C308 1.397 . S
C309 C310 1.385 . S
C310 H293 0.940 . S
C310 C309 1.385 . S
C310 C311 1.388 . S
C311 H290 0.939 . S
C311 C306 1.391 . S
C311 C310 1.388 . S
C312 C313 1.349 . S
C312 C314 1.327 . S
C312 H337 0.950 . S
C313 C312 1.349 . S
C313 C329 1.349 . S
C314 C312 1.327 . S
C314 C333 1.429 . S
C314 H338 0.950 . S
C315 C332 1.574 . S
C315 C334 1.368 . S
C315 H339 0.949 . S
H316 C320 0.949 . S
C317 C318 1.349 . S
C317 C319 1.327 . S
C317 H340 0.950 . S
C318 C317 1.349 . S
C318 C330 1.349 . S
C319 C317 1.327 . S
C319 C335 1.429 . S
C319 H341 0.950 . S
C320 H316 0.949 . S
C320 C328 1.574 . S
C320 C336 1.368 . S
H321 C329 0.950 . S
H322 C327 0.950 . S
H323 C328 0.949 . S
H324 C330 0.950 . S
H325 C331 0.950 . S
H326 C332 0.949 . S
C327 H322 0.950 . S
C327 C329 1.327 . S
C327 C333 1.429 . S
C328 C320 1.574 . S
C328 H323 0.949 . S
C328 C334 1.368 . S
C329 C313 1.349 . S
C329 H321 0.950 . S
C329 C327 1.327 . S
C330 C318 1.349 . S
C330 H324 0.950 . S
C330 C331 1.327 . S
C331 H325 0.950 . S
C331 C330 1.327 . S
C331 C335 1.429 . S
C332 C315 1.574 . S
C332 H326 0.949 . S
C332 C336 1.368 . S
C333 C314 1.429 . S
C333 C327 1.429 . S
C333 C334 1.523 . S
C334 C315 1.368 . S
C334 C328 1.368 . S
C334 C333 1.523 . S
C335 C319 1.429 . S
C335 C331 1.429 . S
C335 C336 1.523 . S
C336 C320 1.368 . S
C336 C332 1.368 . S
C336 C335 1.523 . S
H337 C312 0.950 . S
H338 C314 0.950 . S
H339 C315 0.949 . S
H340 C317 0.950 . S
H341 C319 0.950 . S
C342 C343 1.349 . S
C342 C344 1.327 . S
C342 H367 0.950 . S
C343 C342 1.349 . S
C343 C359 1.349 . S
C344 C342 1.327 . S
C344 C363 1.429 . S
C344 H368 0.950 . S
C345 C362 1.574 . S
C345 C364 1.368 . S
C345 H369 0.949 . S
H346 C350 0.949 . S
C347 C348 1.349 . S
C347 C349 1.327 . S
C347 H370 0.950 . S
C348 C347 1.349 . S
C348 C360 1.349 . S
C349 C347 1.327 . S
C349 C365 1.429 . S
C349 H371 0.950 . S
C350 H346 0.949 . S
C350 C358 1.574 . S
C350 C366 1.368 . S
H351 C359 0.950 . S
H352 C357 0.950 . S
H353 C358 0.949 . S
H354 C360 0.950 . S
H355 C361 0.950 . S
H356 C362 0.949 . S
C357 H352 0.950 . S
C357 C359 1.327 . S
C357 C363 1.429 . S
C358 C350 1.574 . S
C358 H353 0.949 . S
C358 C364 1.368 . S
C359 C343 1.349 . S
C359 H351 0.950 . S
C359 C357 1.327 . S
C360 C348 1.349 . S
C360 H354 0.950 . S
C360 C361 1.327 . S
C361 H355 0.950 . S
C361 C360 1.327 . S
C361 C365 1.429 . S
C362 C345 1.574 . S
C362 H356 0.949 . S
C362 C366 1.368 . S
C363 C344 1.429 . S
C363 C357 1.429 . S
C363 C364 1.523 . S
C364 C345 1.368 . S
C364 C358 1.368 . S
C364 C363 1.523 . S
C365 C349 1.429 . S
C365 C361 1.429 . S
C365 C366 1.523 . S
C366 C350 1.368 . S
C366 C362 1.368 . S
C366 C365 1.523 . S
H367 C342 0.950 . S
H368 C344 0.950 . S
H369 C345 0.949 . S
H370 C347 0.950 . S
H371 C349 0.950 . S
C372 C373 1.349 . S
C372 C374 1.327 . S
C372 H397 0.950 . S
C373 C372 1.349 . S
C373 C389 1.349 . S
C374 C372 1.327 . S
C374 C393 1.429 . S
C374 H398 0.950 . S
C375 C392 1.574 . S
C375 C394 1.368 . S
C375 H399 0.949 . S
H376 C380 0.949 . S
C377 C378 1.349 . S
C377 C379 1.327 . S
C377 H400 0.950 . S
C378 C377 1.349 . S
C378 C390 1.349 . S
C379 C377 1.327 . S
C379 C395 1.429 . S
C379 H401 0.950 . S
C380 H376 0.949 . S
C380 C388 1.574 . S
C380 C396 1.368 . S
H381 C389 0.950 . S
H382 C387 0.950 . S
H383 C388 0.949 . S
H384 C390 0.950 . S
H385 C391 0.950 . S
H386 C392 0.949 . S
C387 H382 0.950 . S
C387 C389 1.327 . S
C387 C393 1.429 . S
C388 C380 1.574 . S
C388 H383 0.949 . S
C388 C394 1.368 . S
C389 C373 1.349 . S
C389 H381 0.950 . S
C389 C387 1.327 . S
C390 C378 1.349 . S
C390 H384 0.950 . S
C390 C391 1.327 . S
C391 H385 0.950 . S
C391 C390 1.327 . S
C391 C395 1.429 . S
C392 C375 1.574 . S
C392 H386 0.949 . S
C392 C396 1.368 . S
C393 C374 1.429 . S
C393 C387 1.429 . S
C393 C394 1.523 . S
C394 C375 1.368 . S
C394 C388 1.368 . S
C394 C393 1.523 . S
C395 C379 1.429 . S
C395 C391 1.429 . S
C395 C396 1.523 . S
C396 C380 1.368 . S
C396 C392 1.368 . S
C396 C395 1.523 . S
H397 C372 0.950 . S
H398 C374 0.950 . S
H399 C375 0.949 . S
H400 C377 0.950 . S
H401 C379 0.950 . S
C402 C403 1.349 . S
C402 C404 1.327 . S
C402 H427 0.950 . S
C403 C402 1.349 . S
C403 C419 1.349 . S
C404 C402 1.327 . S
C404 C423 1.429 . S
C404 H428 0.950 . S
C405 C422 1.574 . S
C405 C424 1.368 . S
C405 H429 0.949 . S
H406 C410 0.949 . S
C407 C408 1.349 . S
C407 C409 1.327 . S
C407 H430 0.950 . S
C408 C407 1.349 . S
C408 C420 1.349 . S
C409 C407 1.327 . S
C409 C425 1.429 . S
C409 H431 0.950 . S
C410 H406 0.949 . S
C410 C418 1.574 . S
C410 C426 1.368 . S
H411 C419 0.950 . S
H412 C417 0.950 . S
H413 C418 0.949 . S
H414 C420 0.950 . S
H415 C421 0.950 . S
H416 C422 0.949 . S
C417 H412 0.950 . S
C417 C419 1.327 . S
C417 C423 1.429 . S
C418 C410 1.574 . S
C418 H413 0.949 . S
C418 C424 1.368 . S
C419 C403 1.349 . S
C419 H411 0.950 . S
C419 C417 1.327 . S
C420 C408 1.349 . S
C420 H414 0.950 . S
C420 C421 1.327 . S
C421 H415 0.950 . S
C421 C420 1.327 . S
C421 C425 1.429 . S
C422 C405 1.574 . S
C422 H416 0.949 . S
C422 C426 1.368 . S
C423 C404 1.429 . S
C423 C417 1.429 . S
C423 C424 1.523 . S
C424 C405 1.368 . S
C424 C418 1.368 . S
C424 C423 1.523 . S
C425 C409 1.429 . S
C425 C421 1.429 . S
C425 C426 1.523 . S
C426 C410 1.368 . S
C426 C422 1.368 . S
C426 C425 1.523 . S
H427 C402 0.950 . S
H428 C404 0.950 . S
H429 C405 0.949 . S
H430 C407 0.950 . S
H431 C409 0.950 . S
C432 C433 1.349 . S
C432 C434 1.327 . S
C432 H457 0.950 . S
C433 C432 1.349 . S
C433 C449 1.349 . S
C434 C432 1.327 . S
C434 C453 1.429 . S
C434 H458 0.950 . S
C435 C452 1.574 . S
C435 C454 1.368 . S
C435 H459 0.949 . S
H436 C440 0.949 . S
C437 C438 1.349 . S
C437 C439 1.327 . S
C437 H460 0.950 . S
C438 C437 1.349 . S
C438 C450 1.349 . S
C439 C437 1.327 . S
C439 C455 1.429 . S
C439 H461 0.950 . S
C440 H436 0.949 . S
C440 C448 1.574 . S
C440 C456 1.368 . S
H441 C449 0.950 . S
H442 C447 0.950 . S
H443 C448 0.949 . S
H444 C450 0.950 . S
H445 C451 0.950 . S
H446 C452 0.949 . S
C447 H442 0.950 . S
C447 C449 1.327 . S
C447 C453 1.429 . S
C448 C440 1.574 . S
C448 H443 0.949 . S
C448 C454 1.368 . S
C449 C433 1.349 . S
C449 H441 0.950 . S
C449 C447 1.327 . S
C450 C438 1.349 . S
C450 H444 0.950 . S
C450 C451 1.327 . S
C451 H445 0.950 . S
C451 C450 1.327 . S
C451 C455 1.429 . S
C452 C435 1.574 . S
C452 H446 0.949 . S
C452 C456 1.368 . S
C453 C434 1.429 . S
C453 C447 1.429 . S
C453 C454 1.523 . S
C454 C435 1.368 . S
C454 C448 1.368 . S
C454 C453 1.523 . S
C455 C439 1.429 . S
C455 C451 1.429 . S
C455 C456 1.523 . S
C456 C440 1.368 . S
C456 C452 1.368 . S
C456 C455 1.523 . S
H457 C432 0.950 . S
H458 C434 0.950 . S
H459 C435 0.949 . S
H460 C437 0.950 . S
H461 C439 0.950 . S
C462 C463 1.349 . S
C462 C464 1.327 . S
C462 H487 0.950 . S
C463 C462 1.349 . S
C463 C479 1.349 . S
C464 C462 1.327 . S
C464 C483 1.429 . S
C464 H488 0.950 . S
C465 C482 1.574 . S
C465 C484 1.368 . S
C465 H489 0.949 . S
H466 C470 0.949 . S
C467 C468 1.349 . S
C467 C469 1.327 . S
C467 H490 0.950 . S
C468 C467 1.349 . S
C468 C480 1.349 . S
C469 C467 1.327 . S
C469 C485 1.429 . S
C469 H491 0.950 . S
C470 H466 0.949 . S
C470 C478 1.574 . S
C470 C486 1.368 . S
H471 C479 0.950 . S
H472 C477 0.950 . S
H473 C478 0.949 . S
H474 C480 0.950 . S
H475 C481 0.950 . S
H476 C482 0.949 . S
C477 H472 0.950 . S
C477 C479 1.327 . S
C477 C483 1.429 . S
C478 C470 1.574 . S
C478 H473 0.949 . S
C478 C484 1.368 . S
C479 C463 1.349 . S
C479 H471 0.950 . S
C479 C477 1.327 . S
C480 C468 1.349 . S
C480 H474 0.950 . S
C480 C481 1.327 . S
C481 H475 0.950 . S
C481 C480 1.327 . S
C481 C485 1.429 . S
C482 C465 1.574 . S
C482 H476 0.949 . S
C482 C486 1.368 . S
C483 C464 1.429 . S
C483 C477 1.429 . S
C483 C484 1.523 . S
C484 C465 1.368 . S
C484 C478 1.368 . S
C484 C483 1.523 . S
C485 C469 1.429 . S
C485 C481 1.429 . S
C485 C486 1.523 . S
C486 C470 1.368 . S
C486 C482 1.368 . S
C486 C485 1.523 . S
H487 C462 0.950 . S
H488 C464 0.950 . S
H489 C465 0.949 . S
H490 C467 0.950 . S
H491 C469 0.950 . S
C492 C493 1.349 . S
C492 C494 1.327 . S
C492 H517 0.950 . S
C493 C492 1.349 . S
C493 C509 1.349 . S
C494 C492 1.327 . S
C494 C513 1.429 . S
C494 H518 0.950 . S
C495 C512 1.574 . S
C495 C514 1.368 . S
C495 H519 0.949 . S
H496 C500 0.949 . S
C497 C498 1.349 . S
C497 C499 1.327 . S
C497 H520 0.950 . S
C498 C497 1.349 . S
C498 C510 1.349 . S
C499 C497 1.327 . S
C499 C515 1.429 . S
C499 H521 0.950 . S
C500 H496 0.949 . S
C500 C508 1.574 . S
C500 C516 1.368 . S
H501 C509 0.950 . S
H502 C507 0.950 . S
H503 C508 0.949 . S
H504 C510 0.950 . S
H505 C511 0.950 . S
H506 C512 0.949 . S
C507 H502 0.950 . S
C507 C509 1.327 . S
C507 C513 1.429 . S
C508 C500 1.574 . S
C508 H503 0.949 . S
C508 C514 1.368 . S
C509 C493 1.349 . S
C509 H501 0.950 . S
C509 C507 1.327 . S
C510 C498 1.349 . S
C510 H504 0.950 . S
C510 C511 1.327 . S
C511 H505 0.950 . S
C511 C510 1.327 . S
C511 C515 1.429 . S
C512 C495 1.574 . S
C512 H506 0.949 . S
C512 C516 1.368 . S
C513 C494 1.429 . S
C513 C507 1.429 . S
C513 C514 1.523 . S
C514 C495 1.368 . S
C514 C508 1.368 . S
C514 C513 1.523 . S
C515 C499 1.429 . S
C515 C511 1.429 . S
C515 C516 1.523 . S
C516 C500 1.368 . S
C516 C512 1.368 . S
C516 C515 1.523 . S
H517 C492 0.950 . S
H518 C494 0.950 . S
H519 C495 0.949 . S
H520 C497 0.950 . S
H521 C499 0.950 . S
C522 C523 1.349 . S
C522 C524 1.327 . S
C522 H547 0.950 . S
C523 C522 1.349 . S
C523 C539 1.349 . S
C524 C522 1.327 . S
C524 C543 1.429 . S
C524 H548 0.950 . S
C525 C542 1.574 . S
C525 C544 1.368 . S
C525 H549 0.949 . S
H526 C530 0.949 . S
C527 C528 1.349 . S
C527 C529 1.327 . S
C527 H550 0.950 . S
C528 C527 1.349 . S
C528 C540 1.349 . S
C529 C527 1.327 . S
C529 C545 1.429 . S
C529 H551 0.950 . S
C530 H526 0.949 . S
C530 C538 1.574 . S
C530 C546 1.368 . S
H531 C539 0.950 . S
H532 C537 0.950 . S
H533 C538 0.949 . S
H534 C540 0.950 . S
H535 C541 0.950 . S
H536 C542 0.949 . S
C537 H532 0.950 . S
C537 C539 1.327 . S
C537 C543 1.429 . S
C538 C530 1.574 . S
C538 H533 0.949 . S
C538 C544 1.368 . S
C539 C523 1.349 . S
C539 H531 0.950 . S
C539 C537 1.327 . S
C540 C528 1.349 . S
C540 H534 0.950 . S
C540 C541 1.327 . S
C541 H535 0.950 . S
C541 C540 1.327 . S
C541 C545 1.429 . S
C542 C525 1.574 . S
C542 H536 0.949 . S
C542 C546 1.368 . S
C543 C524 1.429 . S
C543 C537 1.429 . S
C543 C544 1.523 . S
C544 C525 1.368 . S
C544 C538 1.368 . S
C544 C543 1.523 . S
C545 C529 1.429 . S
C545 C541 1.429 . S
C545 C546 1.523 . S
C546 C530 1.368 . S
C546 C542 1.368 . S
C546 C545 1.523 . S
H547 C522 0.950 . S
H548 C524 0.950 . S
H549 C525 0.949 . S
H550 C527 0.950 . S
H551 C529 0.950 . S
C552 C553 1.349 . S
C552 C554 1.327 . S
C552 H577 0.950 . S
C553 C552 1.349 . S
C553 C569 1.349 . S
C554 C552 1.327 . S
C554 C573 1.429 . S
C554 H578 0.950 . S
C555 C572 1.574 . S
C555 C574 1.368 . S
C555 H579 0.949 . S
H556 C560 0.949 . S
C557 C558 1.349 . S
C557 C559 1.327 . S
C557 H580 0.950 . S
C558 C557 1.349 . S
C558 C570 1.349 . S
C559 C557 1.327 . S
C559 C575 1.429 . S
C559 H581 0.950 . S
C560 H556 0.949 . S
C560 C568 1.574 . S
C560 C576 1.368 . S
H561 C569 0.950 . S
H562 C567 0.950 . S
H563 C568 0.949 . S
H564 C570 0.950 . S
H565 C571 0.950 . S
H566 C572 0.949 . S
C567 H562 0.950 . S
C567 C569 1.327 . S
C567 C573 1.429 . S
C568 C560 1.574 . S
C568 H563 0.949 . S
C568 C574 1.368 . S
C569 C553 1.349 . S
C569 H561 0.950 . S
C569 C567 1.327 . S
C570 C558 1.349 . S
C570 H564 0.950 . S
C570 C571 1.327 . S
C571 H565 0.950 . S
C571 C570 1.327 . S
C571 C575 1.429 . S
C572 C555 1.574 . S
C572 H566 0.949 . S
C572 C576 1.368 . S
C573 C554 1.429 . S
C573 C567 1.429 . S
C573 C574 1.523 . S
C574 C555 1.368 . S
C574 C568 1.368 . S
C574 C573 1.523 . S
C575 C559 1.429 . S
C575 C571 1.429 . S
C575 C576 1.523 . S
C576 C560 1.368 . S
C576 C572 1.368 . S
C576 C575 1.523 . S
H577 C552 0.950 . S
H578 C554 0.950 . S
H579 C555 0.949 . S
H580 C557 0.950 . S
H581 C559 0.950 . S
C582 C583 1.349 . S
C582 C584 1.327 . S
C582 H607 0.950 . S
C583 C582 1.349 . S
C583 C599 1.349 . S
C584 C582 1.327 . S
C584 C603 1.429 . S
C584 H608 0.950 . S
C585 C602 1.574 . S
C585 C604 1.368 . S
C585 H609 0.949 . S
H586 C590 0.949 . S
C587 C588 1.349 . S
C587 C589 1.327 . S
C587 H610 0.950 . S
C588 C587 1.349 . S
C588 C600 1.349 . S
C589 C587 1.327 . S
C589 C605 1.429 . S
C589 H611 0.950 . S
C590 H586 0.949 . S
C590 C598 1.574 . S
C590 C606 1.368 . S
H591 C599 0.950 . S
H592 C597 0.950 . S
H593 C598 0.949 . S
H594 C600 0.950 . S
H595 C601 0.950 . S
H596 C602 0.949 . S
C597 H592 0.950 . S
C597 C599 1.327 . S
C597 C603 1.429 . S
C598 C590 1.574 . S
C598 H593 0.949 . S
C598 C604 1.368 . S
C599 C583 1.349 . S
C599 H591 0.950 . S
C599 C597 1.327 . S
C600 C588 1.349 . S
C600 H594 0.950 . S
C600 C601 1.327 . S
C601 H595 0.950 . S
C601 C600 1.327 . S
C601 C605 1.429 . S
C602 C585 1.574 . S
C602 H596 0.949 . S
C602 C606 1.368 . S
C603 C584 1.429 . S
C603 C597 1.429 . S
C603 C604 1.523 . S
C604 C585 1.368 . S
C604 C598 1.368 . S
C604 C603 1.523 . S
C605 C589 1.429 . S
C605 C601 1.429 . S
C605 C606 1.523 . S
C606 C590 1.368 . S
C606 C602 1.368 . S
C606 C605 1.523 . S
H607 C582 0.950 . S
H608 C584 0.950 . S
H609 C585 0.949 . S
H610 C587 0.950 . S
H611 C589 0.950 . S
C612 C613 1.349 . S
C612 C614 1.327 . S
C612 H637 0.950 . S
C613 C612 1.349 . S
C613 C629 1.349 . S
C614 C612 1.327 . S
C614 C633 1.429 . S
C614 H638 0.950 . S
C615 C632 1.574 . S
C615 C634 1.368 . S
C615 H639 0.949 . S
H616 C620 0.949 . S
C617 C618 1.349 . S
C617 C619 1.327 . S
C617 H640 0.950 . S
C618 C617 1.349 . S
C618 C630 1.349 . S
C619 C617 1.327 . S
C619 C635 1.429 . S
C619 H641 0.950 . S
C620 H616 0.949 . S
C620 C628 1.574 . S
C620 C636 1.368 . S
H621 C629 0.950 . S
H622 C627 0.950 . S
H623 C628 0.949 . S
H624 C630 0.950 . S
H625 C631 0.950 . S
H626 C632 0.949 . S
C627 H622 0.950 . S
C627 C629 1.327 . S
C627 C633 1.429 . S
C628 C620 1.574 . S
C628 H623 0.949 . S
C628 C634 1.368 . S
C629 C613 1.349 . S
C629 H621 0.950 . S
C629 C627 1.327 . S
C630 C618 1.349 . S
C630 H624 0.950 . S
C630 C631 1.327 . S
C631 H625 0.950 . S
C631 C630 1.327 . S
C631 C635 1.429 . S
C632 C615 1.574 . S
C632 H626 0.949 . S
C632 C636 1.368 . S
C633 C614 1.429 . S
C633 C627 1.429 . S
C633 C634 1.523 . S
C634 C615 1.368 . S
C634 C628 1.368 . S
C634 C633 1.523 . S
C635 C619 1.429 . S
C635 C631 1.429 . S
C635 C636 1.523 . S
C636 C620 1.368 . S
C636 C632 1.368 . S
C636 C635 1.523 . S
H637 C612 0.950 . S
H638 C614 0.950 . S
H639 C615 0.949 . S
H640 C617 0.950 . S
H641 C619 0.950 . S
C642 C643 1.349 . S
C642 C644 1.327 . S
C642 H667 0.950 . S
C643 C642 1.349 . S
C643 C659 1.349 . S
C644 C642 1.327 . S
C644 C663 1.429 . S
C644 H668 0.950 . S
C645 C662 1.574 . S
C645 C664 1.368 . S
C645 H669 0.949 . S
H646 C650 0.949 . S
C647 C648 1.349 . S
C647 C649 1.327 . S
C647 H670 0.950 . S
C648 C647 1.349 . S
C648 C660 1.349 . S
C649 C647 1.327 . S
C649 C665 1.429 . S
C649 H671 0.950 . S
C650 H646 0.949 . S
C650 C658 1.574 . S
C650 C666 1.368 . S
H651 C659 0.950 . S
H652 C657 0.950 . S
H653 C658 0.949 . S
H654 C660 0.950 . S
H655 C661 0.950 . S
H656 C662 0.949 . S
C657 H652 0.950 . S
C657 C659 1.327 . S
C657 C663 1.429 . S
C658 C650 1.574 . S
C658 H653 0.949 . S
C658 C664 1.368 . S
C659 C643 1.349 . S
C659 H651 0.950 . S
C659 C657 1.327 . S
C660 C648 1.349 . S
C660 H654 0.950 . S
C660 C661 1.327 . S
C661 H655 0.950 . S
C661 C660 1.327 . S
C661 C665 1.429 . S
C662 C645 1.574 . S
C662 H656 0.949 . S
C662 C666 1.368 . S
C663 C644 1.429 . S
C663 C657 1.429 . S
C663 C664 1.523 . S
C664 C645 1.368 . S
C664 C658 1.368 . S
C664 C663 1.523 . S
C665 C649 1.429 . S
C665 C661 1.429 . S
C665 C666 1.523 . S
C666 C650 1.368 . S
C666 C662 1.368 . S
C666 C665 1.523 . S
H667 C642 0.950 . S
H668 C644 0.950 . S
H669 C645 0.949 . S
H670 C647 0.950 . S
H671 C649 0.950 . S
C672 C673 1.349 . S
C672 C674 1.327 . S
C672 H697 0.950 . S
C673 C672 1.349 . S
C673 C689 1.349 . S
C674 C672 1.327 . S
C674 C693 1.429 . S
C674 H698 0.950 . S
C675 C692 1.574 . S
C675 C694 1.368 . S
C675 H699 0.949 1_455 S
H676 C680 0.949 . S
C677 C678 1.349 . S
C677 C679 1.327 . S
C677 H700 0.950 . S
C678 C677 1.349 . S
C678 C690 1.349 . S
C679 C677 1.327 . S
C679 C695 1.429 1_556 S
C679 H701 0.950 1_455 S
C680 H676 0.949 . S
C680 C688 1.574 . S
C680 C696 1.368 . S
H681 C689 0.950 1_655 S
H682 C687 0.950 1_655 S
H683 C688 0.949 . S
H684 C690 0.950 . S
H685 C691 0.950 1_554 S
H686 C692 0.949 1_655 S
C687 H682 0.950 1_455 S
C687 C689 1.327 . S
C687 C693 1.429 . S
C688 C680 1.574 . S
C688 H683 0.949 . S
C688 C694 1.368 . S
C689 C673 1.349 . S
C689 H681 0.950 1_455 S
C689 C687 1.327 . S
C690 C678 1.349 . S
C690 H684 0.950 . S
C690 C691 1.327 . S
C691 H685 0.950 1_556 S
C691 C690 1.327 . S
C691 C695 1.429 1_556 S
C692 C675 1.574 . S
C692 H686 0.949 1_455 S
C692 C696 1.368 . S
C693 C674 1.429 . S
C693 C687 1.429 . S
C693 C694 1.523 . S
C694 C675 1.368 . S
C694 C688 1.368 . S
C694 C693 1.523 . S
C695 C679 1.429 1_554 S
C695 C691 1.429 1_554 S
C695 C696 1.523 . S
C696 C680 1.368 . S
C696 C692 1.368 . S
C696 C695 1.523 . S
H697 C672 0.950 . S
H698 C674 0.950 . S
H699 C675 0.949 1_655 S
H700 C677 0.950 . S
H701 C679 0.950 1_655 S
C702 C703 1.349 . S
C702 C704 1.327 . S
C702 H727 0.950 . S
C703 C702 1.349 . S
C703 C719 1.349 1_545 S
C704 C702 1.327 . S
C704 C723 1.429 . S
C704 H728 0.950 . S
C705 C722 1.574 . S
C705 C724 1.368 1_565 S
C705 H729 0.949 . S
H706 C710 0.949 . S
C707 C708 1.349 1_565 S
C707 C709 1.327 . S
C707 H730 0.950 . S
C708 C707 1.349 1_545 S
C708 C720 1.349 . S
C709 C707 1.327 . S
C709 C725 1.429 1_565 S
C709 H731 0.950 . S
C710 H706 0.949 . S
C710 C718 1.574 . S
C710 C726 1.368 . S
H711 C719 0.950 . S
H712 C717 0.950 . S
H713 C718 0.949 . S
H714 C720 0.950 . S
H715 C721 0.950 . S
H716 C722 0.949 . S
C717 H712 0.950 . S
C717 C719 1.327 . S
C717 C723 1.429 1_565 S
C718 C710 1.574 . S
C718 H713 0.949 . S
C718 C724 1.368 . S
C719 C703 1.349 1_565 S
C719 H711 0.950 . S
C719 C717 1.327 . S
C720 C708 1.349 . S
C720 H714 0.950 . S
C720 C721 1.327 . S
C721 H715 0.950 . S
C721 C720 1.327 . S
C721 C725 1.429 . S
C722 C705 1.574 . S
C722 H716 0.949 . S
C722 C726 1.368 1_565 S
C723 C704 1.429 . S
C723 C717 1.429 1_545 S
C723 C724 1.523 . S
C724 C705 1.368 1_545 S
C724 C718 1.368 . S
C724 C723 1.523 . S
C725 C709 1.429 1_545 S
C725 C721 1.429 . S
C725 C726 1.523 . S
C726 C710 1.368 . S
C726 C722 1.368 1_545 S
C726 C725 1.523 . S
H727 C702 0.950 . S
H728 C704 0.950 . S
H729 C705 0.949 . S
H730 C707 0.950 . S
H731 C709 0.950 . S
C732 C733 1.349 . S
C732 C734 1.327 . S
C732 H757 0.950 . S
C733 C732 1.349 . S
C733 C749 1.349 . S
C734 C732 1.327 . S
C734 C753 1.429 . S
C734 H758 0.950 . S
C735 C752 1.574 . S
C735 C754 1.368 . S
C735 H759 0.949 . S
H736 C740 0.949 . S
C737 C738 1.349 . S
C737 C739 1.327 . S
C737 H760 0.950 . S
C738 C737 1.349 . S
C738 C750 1.349 . S
C739 C737 1.327 . S
C739 C755 1.429 . S
C739 H761 0.950 . S
C740 H736 0.949 . S
C740 C748 1.574 . S
C740 C756 1.368 . S
H741 C749 0.950 . S
H742 C747 0.950 . S
H743 C748 0.949 . S
H744 C750 0.950 . S
H745 C751 0.950 . S
H746 C752 0.949 . S
C747 H742 0.950 . S
C747 C749 1.327 . S
C747 C753 1.429 . S
C748 C740 1.574 . S
C748 H743 0.949 . S
C748 C754 1.368 . S
C749 C733 1.349 . S
C749 H741 0.950 . S
C749 C747 1.327 . S
C750 C738 1.349 . S
C750 H744 0.950 . S
C750 C751 1.327 . S
C751 H745 0.950 . S
C751 C750 1.327 . S
C751 C755 1.429 . S
C752 C735 1.574 . S
C752 H746 0.949 . S
C752 C756 1.368 . S
C753 C734 1.429 . S
C753 C747 1.429 . S
C753 C754 1.523 . S
C754 C735 1.368 . S
C754 C748 1.368 . S
C754 C753 1.523 . S
C755 C739 1.429 . S
C755 C751 1.429 . S
C755 C756 1.523 . S
C756 C740 1.368 . S
C756 C752 1.368 . S
C756 C755 1.523 . S
H757 C732 0.950 . S
H758 C734 0.950 . S
H759 C735 0.949 . S
H760 C737 0.950 . S
H761 C739 0.950 . S
C762 C763 1.349 . S
C762 C764 1.327 . S
C762 H787 0.950 . S
C763 C762 1.349 . S
C763 C779 1.349 1_545 S
C764 C762 1.327 . S
C764 C783 1.429 . S
C764 H788 0.950 . S
C765 C782 1.574 . S
C765 C784 1.368 1_565 S
C765 H789 0.949 . S
H766 C770 0.949 . S
C767 C768 1.349 1_565 S
C767 C769 1.327 . S
C767 H790 0.950 . S
C768 C767 1.349 1_545 S
C768 C780 1.349 . S
C769 C767 1.327 . S
C769 C785 1.429 1_565 S
C769 H791 0.950 . S
C770 H766 0.949 . S
C770 C778 1.574 . S
C770 C786 1.368 . S
H771 C779 0.950 . S
H772 C777 0.950 . S
H773 C778 0.949 . S
H774 C780 0.950 . S
H775 C781 0.950 . S
H776 C782 0.949 . S
C777 H772 0.950 . S
C777 C779 1.327 . S
C777 C783 1.429 1_565 S
C778 C770 1.574 . S
C778 H773 0.949 . S
C778 C784 1.368 . S
C779 C763 1.349 1_565 S
C779 H771 0.950 . S
C779 C777 1.327 . S
C780 C768 1.349 . S
C780 H774 0.950 . S
C780 C781 1.327 . S
C781 H775 0.950 . S
C781 C780 1.327 . S
C781 C785 1.429 . S
C782 C765 1.574 . S
C782 H776 0.949 . S
C782 C786 1.368 1_565 S
C783 C764 1.429 . S
C783 C777 1.429 1_545 S
C783 C784 1.523 . S
C784 C765 1.368 1_545 S
C784 C778 1.368 . S
C784 C783 1.523 . S
C785 C769 1.429 1_545 S
C785 C781 1.429 . S
C785 C786 1.523 . S
C786 C770 1.368 . S
C786 C782 1.368 1_545 S
C786 C785 1.523 . S
H787 C762 0.950 . S
H788 C764 0.950 . S
H789 C765 0.949 . S
H790 C767 0.950 . S
H791 C769 0.950 . S
C792 C793 1.349 . S
C792 C794 1.327 . S
C792 H817 0.950 . S
C793 C792 1.349 . S
C793 C809 1.349 . S
C794 C792 1.327 . S
C794 C813 1.429 . S
C794 H818 0.950 . S
C795 C812 1.574 . S
C795 C814 1.368 . S
C795 H819 0.949 . S
H796 C800 0.949 . S
C797 C798 1.349 . S
C797 C799 1.327 . S
C797 H820 0.950 . S
C798 C797 1.349 . S
C798 C810 1.349 . S
C799 C797 1.327 . S
C799 C815 1.429 1_554 S
C799 H821 0.950 1_554 S
C800 H796 0.949 . S
C800 C808 1.574 . S
C800 C816 1.368 . S
H801 C809 0.950 . S
H802 C807 0.950 . S
H803 C808 0.949 . S
H804 C810 0.950 . S
H805 C811 0.950 . S
H806 C812 0.949 . S
C807 H802 0.950 . S
C807 C809 1.327 . S
C807 C813 1.429 . S
C808 C800 1.574 . S
C808 H803 0.949 . S
C808 C814 1.368 . S
C809 C793 1.349 . S
C809 H801 0.950 . S
C809 C807 1.327 . S
C810 C798 1.349 . S
C810 H804 0.950 . S
C810 C811 1.327 . S
C811 H805 0.950 . S
C811 C810 1.327 . S
C811 C815 1.429 1_554 S
C812 C795 1.574 . S
C812 H806 0.949 . S
C812 C816 1.368 . S
C813 C794 1.429 . S
C813 C807 1.429 . S
C813 C814 1.523 . S
C814 C795 1.368 . S
C814 C808 1.368 . S
C814 C813 1.523 . S
C815 C799 1.429 1_556 S
C815 C811 1.429 1_556 S
C815 C816 1.523 . S
C816 C800 1.368 . S
C816 C812 1.368 . S
C816 C815 1.523 . S
H817 C792 0.950 . S
H818 C794 0.950 . S
H819 C795 0.949 . S
H820 C797 0.950 . S
H821 C799 0.950 1_556 S
C822 C823 1.349 . S
C822 C824 1.327 . S
C822 H847 0.950 . S
C823 C822 1.349 . S
C823 C839 1.349 . S
C824 C822 1.327 . S
C824 C843 1.429 . S
C824 H848 0.950 . S
C825 C842 1.574 . S
C825 C844 1.368 . S
C825 H849 0.949 . S
H826 C830 0.949 . S
C827 C828 1.349 . S
C827 C829 1.327 . S
C827 H850 0.950 . S
C828 C827 1.349 . S
C828 C840 1.349 . S
C829 C827 1.327 . S
C829 C845 1.429 . S
C829 H851 0.950 . S
C830 H826 0.949 . S
C830 C838 1.574 . S
C830 C846 1.368 . S
H831 C839 0.950 . S
H832 C837 0.950 . S
H833 C838 0.949 . S
H834 C840 0.956 . S
H835 C841 0.950 . S
H836 C842 0.949 . S
C837 H832 0.950 . S
C837 C839 1.327 . S
C837 C843 1.429 . S
C838 C830 1.574 . S
C838 H833 0.949 . S
C838 C844 1.368 . S
C839 C823 1.349 . S
C839 H831 0.950 . S
C839 C837 1.327 . S
C840 C828 1.349 . S
C840 H834 0.956 . S
C840 C841 1.327 . S
C841 H835 0.950 . S
C841 C840 1.327 . S
C841 C845 1.429 . S
C842 C825 1.574 . S
C842 H836 0.949 . S
C842 C846 1.368 . S
C843 C824 1.429 . S
C843 C837 1.429 . S
C843 C844 1.523 . S
C844 C825 1.368 . S
C844 C838 1.368 . S
C844 C843 1.523 . S
C845 C829 1.429 . S
C845 C841 1.429 . S
C845 C846 1.523 . S
C846 C830 1.368 . S
C846 C842 1.368 . S
C846 C845 1.523 . S
H847 C822 0.950 . S
H848 C824 0.950 . S
H849 C825 0.949 . S
H850 C827 0.950 . S
H851 C829 0.950 . S
C313 C7 0.484 . S
C318 C303 0.438 . S
C343 C51 1.830 . S
C348 C239 1.776 . S
C373 C87 1.151 . S
C378 C271 1.136 . S
C403 C16 0.344 . S
C408 C297 0.317 . S
C438 C233 1.879 . S
C433 C42 1.924 . S
C468 C265 1.249 . S
C463 C96 1.266 . S
C493 C47 1.147 . S
C498 C175 1.144 . S
C523 C91 3.014 . S
C528 C207 2.945 . S
C553 C2 1.958 . S
C558 C137 1.915 . S
C588 C169 1.235 . S
C583 C56 1.245 . S
C618 C201 2.877 . S
C613 C82 2.906 . S
C643 C11 1.820 . S
C648 C143 1.771 . S
C678 C213 1.726 . S
C673 C19 1.696 . S
C703 C50 1.349 . S
C708 C149 1.359 . S
C733 C99 1.465 . S
C738 C181 1.485 . S
C768 C277 1.455 . S
C763 C59 1.453 . S
C798 C309 1.129 . S
C793 C90 1.122 . S
C823 C10 1.346 . S
C828 C245 1.349 . S
