# Generated by pormake.
# Topology ctn, (3,4)-cn, num edge types: 1
# Building blocks:
#     Node 0, Type 0, BuildingBlock: MIDCAF_clean_linker_0, # of connection points: 3
#     Node 1, Type 0, BuildingBlock: MIDCAF_clean_linker_0, # of connection points: 3
#     Node 2, Type 0, BuildingBlock: MIDCAF_clean_linker_0, # of connection points: 3
#     Node 3, Type 0, BuildingBlock: MIDCAF_clean_linker_0, # of connection points: 3
#     Node 4, Type 0, BuildingBlock: MIDCAF_clean_linker_0, # of connection points: 3
#     Node 5, Type 0, BuildingBlock: MIDCAF_clean_linker_0, # of connection points: 3
#     Node 6, Type 0, BuildingBlock: MIDCAF_clean_linker_0, # of connection points: 3
#     Node 7, Type 0, BuildingBlock: MIDCAF_clean_linker_0, # of connection points: 3
#     Node 8, Type 0, BuildingBlock: MIDCAF_clean_linker_0, # of connection points: 3
#     Node 9, Type 0, BuildingBlock: MIDCAF_clean_linker_0, # of connection points: 3
#     Node 10, Type 0, BuildingBlock: MIDCAF_clean_linker_0, # of connection points: 3
#     Node 11, Type 0, BuildingBlock: MIDCAF_clean_linker_0, # of connection points: 3
#     Node 12, Type 0, BuildingBlock: MIDCAF_clean_linker_0, # of connection points: 3
#     Node 13, Type 0, BuildingBlock: MIDCAF_clean_linker_0, # of connection points: 3
#     Node 14, Type 0, BuildingBlock: MIDCAF_clean_linker_0, # of connection points: 3
#     Node 15, Type 0, BuildingBlock: MIDCAF_clean_linker_0, # of connection points: 3
#     Node 16, Type 1, BuildingBlock: TATPOV_clean_sbu_0, # of connection points: 4
#     Node 17, Type 1, BuildingBlock: TATPOV_clean_sbu_0, # of connection points: 4
#     Node 18, Type 1, BuildingBlock: TATPOV_clean_sbu_0, # of connection points: 4
#     Node 19, Type 1, BuildingBlock: TATPOV_clean_sbu_0, # of connection points: 4
#     Node 20, Type 1, BuildingBlock: TATPOV_clean_sbu_0, # of connection points: 4
#     Node 21, Type 1, BuildingBlock: TATPOV_clean_sbu_0, # of connection points: 4
#     Node 22, Type 1, BuildingBlock: TATPOV_clean_sbu_0, # of connection points: 4
#     Node 23, Type 1, BuildingBlock: TATPOV_clean_sbu_0, # of connection points: 4
#     Node 24, Type 1, BuildingBlock: TATPOV_clean_sbu_0, # of connection points: 4
#     Node 25, Type 1, BuildingBlock: TATPOV_clean_sbu_0, # of connection points: 4
#     Node 26, Type 1, BuildingBlock: TATPOV_clean_sbu_0, # of connection points: 4
#     Node 27, Type 1, BuildingBlock: TATPOV_clean_sbu_0, # of connection points: 4
#     Edge 28, Type (0, 1), None
#     Edge 29, Type (0, 1), None
#     Edge 30, Type (0, 1), None
#     Edge 31, Type (0, 1), None
#     Edge 32, Type (0, 1), None
#     Edge 33, Type (0, 1), None
#     Edge 34, Type (0, 1), None
#     Edge 35, Type (0, 1), None
#     Edge 36, Type (0, 1), None
#     Edge 37, Type (0, 1), None
#     Edge 38, Type (0, 1), None
#     Edge 39, Type (0, 1), None
#     Edge 40, Type (0, 1), None
#     Edge 41, Type (0, 1), None
#     Edge 42, Type (0, 1), None
#     Edge 43, Type (0, 1), None
#     Edge 44, Type (0, 1), None
#     Edge 45, Type (0, 1), None
#     Edge 46, Type (0, 1), None
#     Edge 47, Type (0, 1), None
#     Edge 48, Type (0, 1), None
#     Edge 49, Type (0, 1), None
#     Edge 50, Type (0, 1), None
#     Edge 51, Type (0, 1), None
#     Edge 52, Type (0, 1), None
#     Edge 53, Type (0, 1), None
#     Edge 54, Type (0, 1), None
#     Edge 55, Type (0, 1), None
#     Edge 56, Type (0, 1), None
#     Edge 57, Type (0, 1), None
#     Edge 58, Type (0, 1), None
#     Edge 59, Type (0, 1), None
#     Edge 60, Type (0, 1), None
#     Edge 61, Type (0, 1), None
#     Edge 62, Type (0, 1), None
#     Edge 63, Type (0, 1), None
#     Edge 64, Type (0, 1), None
#     Edge 65, Type (0, 1), None
#     Edge 66, Type (0, 1), None
#     Edge 67, Type (0, 1), None
#     Edge 68, Type (0, 1), None
#     Edge 69, Type (0, 1), None
#     Edge 70, Type (0, 1), None
#     Edge 71, Type (0, 1), None
#     Edge 72, Type (0, 1), None
#     Edge 73, Type (0, 1), None
#     Edge 74, Type (0, 1), None
#     Edge 75, Type (0, 1), None
# Relax obj value: 0.004
# Max RMSD: 0.045
# Mean RMSD: 0.021
data_MOF--net-ctn--node1-TATPOV_clean_sbu_0--node2-MIDCAF_clean_linker_0--edge1-none
_symmetry_space_group_name_H-M    P1
_symmetry_Int_Tables_number       1
_symmetry_cell_setting            triclinic
loop_
_symmetry_equiv_pos_as_xyz
'x, y, z'
_cell_length_a     36.117435
_cell_length_b     36.128622
_cell_length_c     36.120391
_cell_angle_alpha  92.075849
_cell_angle_beta   92.088198
_cell_angle_gamma 92.145929
loop_
_atom_site_label
_atom_site_type_symbol
_atom_site_fract_x
_atom_site_fract_y
_atom_site_fract_z
_atom_type_partial_charge
C0 C 0.9033 0.02791 0.09645 0.0
C1 C 0.91052 0.00583 0.12693 0.0
C2 C 0.94177 0.9838 0.12687 0.0
C3 C 0.96558 0.98425 0.09724 0.0
H4 H 0.04251 0.92042 0.04119 0.0
H5 H 0.09382 0.87857 0.04111 0.0
H6 H 0.15381 0.95158 0.97025 0.0
H7 H 0.10235 0.99333 0.96997 0.0
H8 H 0.0456 0.04659 0.92062 0.0
H9 H 0.04493 0.09824 0.87914 0.0
H10 H 0.96774 0.15354 0.94885 0.0
H11 H 0.9681 0.1018 0.99021 0.0
H12 H 0.92119 0.04639 0.04417 0.0
H13 H 0.87945 0.04521 0.09564 0.0
H14 H 0.94804 0.96635 0.14986 0.0
H15 H 0.98962 0.96723 0.09837 0.0
N16 N 0.01263 0.98429 0.03414 0.0
N17 N 0.03567 0.01431 0.98281 0.0
N18 N 0.98351 0.03647 0.01205 0.0
C19 C 0.03786 0.98668 0.00726 0.0
C20 C 0.0085 0.03926 0.98495 0.0
C21 C 0.98535 0.00902 0.03673 0.0
C22 C 0.06833 0.96035 0.00571 0.0
C23 C 0.06656 0.92752 0.02545 0.0
C24 C 0.09595 0.90343 0.02532 0.0
C25 C 0.12797 0.91184 0.00583 0.0
C26 C 0.12958 0.94439 0.98569 0.0
C27 C 0.09999 0.96827 0.98544 0.0
C28 C 0.00701 0.07003 0.95888 0.0
C29 C 0.02837 0.06968 0.92709 0.0
C30 C 0.02791 0.09927 0.90321 0.0
C31 C 0.0064 0.13008 0.91077 0.0
C32 C 0.98473 0.13028 0.94231 0.0
C33 C 0.98487 0.10052 0.96598 0.0
C34 C 0.95891 0.00704 0.06713 0.0
C35 C 0.92732 0.02866 0.06697 0.0
C36 C 0.1917 0.6058 0.28383 0.0
C37 C 0.15757 0.5985 0.26448 0.0
C38 C 0.14605 0.6231 0.23752 0.0
C39 C 0.1685 0.65391 0.22956 0.0
H40 H 0.21579 0.7116 0.13333 0.0
H41 H 0.21791 0.74077 0.07317 0.0
H42 H 0.25185 0.84517 0.12801 0.0
H43 H 0.25147 0.81574 0.18812 0.0
H44 H 0.32589 0.79326 0.24705 0.0
H45 H 0.38709 0.80552 0.27517 0.0
H46 H 0.38071 0.70043 0.32857 0.0
H47 H 0.3187 0.688 0.30011 0.0
H48 H 0.24036 0.64124 0.29122 0.0
H49 H 0.20136 0.58744 0.30486 0.0
H50 H 0.11991 0.6183 0.22213 0.0
H51 H 0.15885 0.67205 0.20833 0.0
N52 N 0.21865 0.71293 0.20895 0.0
N53 N 0.27193 0.75106 0.22085 0.0
N54 N 0.25896 0.70191 0.25956 0.0
C55 C 0.24073 0.74217 0.19991 0.0
C56 C 0.28142 0.73103 0.25061 0.0
C57 C 0.22725 0.69298 0.23908 0.0
C58 C 0.2337 0.76145 0.16523 0.0
C59 C 0.22257 0.74102 0.13261 0.0
C60 C 0.22369 0.75764 0.09829 0.0
C61 C 0.23457 0.79516 0.09631 0.0
C62 C 0.24273 0.81632 0.1291 0.0
C63 C 0.24277 0.79946 0.16332 0.0
C64 C 0.31735 0.7395 0.27101 0.0
C65 C 0.33727 0.77272 0.2649 0.0
C66 C 0.37254 0.77977 0.28111 0.0
C67 C 0.3891 0.75377 0.30388 0.0
C68 C 0.36885 0.72096 0.31103 0.0
C69 C 0.33325 0.71392 0.29482 0.0
C70 C 0.20293 0.66095 0.24851 0.0
C71 C 0.21408 0.63672 0.27602 0.0
C72 C 0.01037 0.32628 0.97484 0.0
C73 C 0.01718 0.33905 0.93921 0.0
C74 C 0.02725 0.37662 0.93545 0.0
C75 C 0.02742 0.40142 0.96582 0.0
H76 H 0.96223 0.48917 0.97137 0.0
H77 H 0.91411 0.52719 0.94741 0.0
H78 H 0.88289 0.55547 0.05903 0.0
H79 H 0.93168 0.51644 0.08346 0.0
H80 H 0.02733 0.50518 0.135 0.0
H81 H 0.05445 0.50742 0.19803 0.0
H82 H 0.05839 0.388 0.19435 0.0
H83 H 0.03218 0.38581 0.13089 0.0
H84 H 0.00301 0.34147 0.03224 0.0
H85 H 0.0028 0.29742 0.97867 0.0
H86 H 0.03329 0.38738 0.90864 0.0
H87 H 0.03306 0.4306 0.96155 0.0
N88 N 0.98647 0.44465 0.01834 0.0
N89 N 0.98947 0.47139 0.07829 0.0
N90 N 0.02108 0.41672 0.06494 0.0
C91 C 0.97647 0.47153 0.04255 0.0
C92 C 0.01203 0.44418 0.08959 0.0
C93 C 0.00849 0.4173 0.02908 0.0
C94 C 0.95046 0.49929 0.02937 0.0
C95 C 0.94534 0.50353 0.99103 0.0
C96 C 0.91758 0.52536 0.9772 0.0
C97 C 0.89416 0.54379 0.00128 0.0
C98 C 0.90037 0.54132 0.03979 0.0
C99 C 0.92836 0.51916 0.05377 0.0
C100 C 0.02758 0.44529 0.12807 0.0
C101 C 0.03393 0.4794 0.14769 0.0
C102 C 0.04965 0.48072 0.18367 0.0
C103 C 0.0585 0.4479 0.20108 0.0
C104 C 0.05172 0.41375 0.18165 0.0
C105 C 0.03683 0.41249 0.14531 0.0
C106 C 0.01793 0.38927 0.00079 0.0
C107 C 0.01081 0.35132 0.00554 0.0
C108 C 0.77883 0.69226 0.10332 0.0
C109 C 0.75834 0.65888 0.09533 0.0
C110 C 0.72925 0.64903 0.11825 0.0
C111 C 0.72048 0.67229 0.14816 0.0
H112 H 0.62321 0.72687 0.20477 0.0
H113 H 0.56375 0.72927 0.23538 0.0
H114 H 0.62168 0.75093 0.34089 0.0
H115 H 0.68112 0.75051 0.31009 0.0
H116 H 0.73829 0.8304 0.28669 0.0
H117 H 0.76839 0.89058 0.29961 0.0
H118 H 0.82539 0.88154 0.1967 0.0
H119 H 0.7949 0.82054 0.18357 0.0
H120 H 0.7864 0.74107 0.13846 0.0
H121 H 0.80147 0.70067 0.08624 0.0
H122 H 0.71289 0.62354 0.11287 0.0
H123 H 0.6977 0.66386 0.16504 0.0
N124 N 0.70025 0.7229 0.20689 0.0
N125 N 0.71262 0.77616 0.24491 0.0
N126 N 0.7518 0.76226 0.19641 0.0
C127 C 0.69125 0.74529 0.23588 0.0
C128 C 0.7428 0.78507 0.22522 0.0
C129 C 0.73086 0.73086 0.18735 0.0
C130 C 0.65655 0.73864 0.25517 0.0
C131 C 0.62321 0.73109 0.23462 0.0
C132 C 0.58931 0.7324 0.25204 0.0
C133 C 0.58845 0.73984 0.29038 0.0
C134 C 0.62185 0.74452 0.31135 0.0
C135 C 0.6557 0.74452 0.29376 0.0
C136 C 0.76393 0.82057 0.23396 0.0
C137 C 0.75731 0.84098 0.26675 0.0
C138 C 0.77466 0.87568 0.27419 0.0
C139 C 0.79913 0.89116 0.24904 0.0
C140 C 0.80656 0.8705 0.21658 0.0
C141 C 0.78919 0.83547 0.20915 0.0
C142 C 0.74069 0.70591 0.15597 0.0
C143 C 0.77016 0.71547 0.13332 0.0
C144 C 0.0429 0.89503 0.53992 0.0
C145 C 0.00443 0.88774 0.54149 0.0
C146 C 0.9802 0.90916 0.5208 0.0
C147 C 0.99388 0.93614 0.49795 0.0
H148 H 0.96561 0.02624 0.42695 0.0
H149 H 0.91221 0.02792 0.38451 0.0
H150 H 0.98003 0.99588 0.29335 0.0
H151 H 0.03416 0.99457 0.33668 0.0
H152 H 0.13422 0.02626 0.3828 0.0
H153 H 0.19708 0.0541 0.38614 0.0
H154 H 0.19878 0.05002 0.50555 0.0
H155 H 0.13638 0.02128 0.50217 0.0
H156 H 0.08646 0.92657 0.51504 0.0
H157 H 0.06226 0.87909 0.55576 0.0
H158 H 0.95041 0.90479 0.52175 0.0
H159 H 0.97408 0.95156 0.48207 0.0
N160 N 0.02151 0.97795 0.43976 0.0
N161 N 0.06784 0.01373 0.41267 0.0
N162 N 0.08108 0.98209 0.4674 0.0
C163 C 0.0322 0.00033 0.41266 0.0
C164 C 0.09234 0.00497 0.4404 0.0
C165 C 0.04555 0.96832 0.46697 0.0
C166 C 0.0038 0.01025 0.38497 0.0
C167 C 0.96931 0.02052 0.39767 0.0
C168 C 0.93866 0.02116 0.37333 0.0
C169 C 0.94163 0.01117 0.33563 0.0
C170 C 0.97682 0.00342 0.32231 0.0
C171 C 0.00783 0.003 0.34692 0.0
C172 C 0.13048 0.02145 0.44219 0.0
C173 C 0.14808 0.03124 0.40972 0.0
C174 C 0.18407 0.04707 0.41164 0.0
C175 C 0.20276 0.05429 0.44612 0.0
C176 C 0.18498 0.04493 0.47861 0.0
C177 C 0.14937 0.02826 0.47664 0.0
C178 C 0.03226 0.94251 0.49493 0.0
C179 C 0.05674 0.92227 0.51676 0.0
C180 C 0.2764 0.77622 0.88067 0.0
C181 C 0.25066 0.80001 0.89611 0.0
C182 C 0.21844 0.80741 0.87504 0.0
C183 C 0.21178 0.79057 0.83965 0.0
H184 H 0.14213 0.78719 0.7441 0.0
H185 H 0.08978 0.8011 0.70333 0.0
H186 H 0.1209 0.71578 0.62477 0.0
H187 H 0.17322 0.70174 0.66547 0.0
H188 H 0.21632 0.63013 0.71337 0.0
H189 H 0.24626 0.57027 0.7138 0.0
H190 H 0.34357 0.62272 0.76853 0.0
H191 H 0.3136 0.68231 0.76919 0.0
H192 H 0.29017 0.74094 0.83511 0.0
H193 H 0.30169 0.77003 0.89586 0.0
H194 H 0.19812 0.82572 0.88606 0.0
H195 H 0.18637 0.79617 0.82438 0.0
N196 N 0.20095 0.75417 0.76558 0.0
N197 N 0.21354 0.70383 0.72551 0.0
N198 N 0.24984 0.71571 0.77995 0.0
C199 C 0.1931 0.73375 0.7336 0.0
C200 C 0.24211 0.69484 0.74848 0.0
C201 C 0.22942 0.7453 0.78888 0.0
C202 C 0.16188 0.74318 0.70827 0.0
C203 C 0.13798 0.77146 0.71809 0.0
C204 C 0.1079 0.77945 0.69467 0.0
C205 C 0.10109 0.75947 0.66082 0.0
C206 C 0.12534 0.73169 0.65065 0.0
C207 C 0.15533 0.72359 0.67411 0.0
C208 C 0.26254 0.66077 0.74157 0.0
C209 C 0.24451 0.62909 0.72448 0.0
C210 C 0.26157 0.59493 0.72459 0.0
C211 C 0.29721 0.59234 0.74078 0.0
C212 C 0.31626 0.62439 0.75538 0.0
C213 C 0.299 0.65832 0.75599 0.0
C214 C 0.23718 0.76593 0.8248 0.0
C215 C 0.26976 0.75944 0.84563 0.0
C216 C 0.98409 0.67948 0.55096 0.0
C217 C 0.95145 0.69717 0.55989 0.0
C218 C 0.91712 0.67797 0.55337 0.0
C219 C 0.91549 0.64162 0.53856 0.0
H220 H 0.84309 0.53031 0.50634 0.0
H221 H 0.79787 0.47774 0.50725 0.0
H222 H 0.88698 0.40529 0.53369 0.0
H223 H 0.93133 0.45719 0.53228 0.0
H224 H 0.98738 0.46728 0.45921 0.0
H225 H 0.02534 0.44402 0.41071 0.0
H226 H 0.05876 0.55611 0.3852 0.0
H227 H 0.01983 0.57985 0.43433 0.0
H228 H 0.00802 0.63057 0.52854 0.0
H229 H 0.01092 0.69367 0.55554 0.0
H230 H 0.89151 0.6909 0.5601 0.0
H231 H 0.88867 0.62741 0.53404 0.0
N232 N 0.91885 0.56132 0.5225 0.0
N233 N 0.94578 0.5147 0.48706 0.0
N234 N 0.97333 0.57433 0.49038 0.0
C235 C 0.91883 0.52555 0.50954 0.0
C236 C 0.97286 0.5387 0.47697 0.0
C237 C 0.94651 0.58573 0.51337 0.0
C238 C 0.89052 0.49756 0.5191 0.0
C239 C 0.85255 0.50326 0.51341 0.0
C240 C 0.82683 0.47314 0.51361 0.0
C241 C 0.83892 0.43716 0.51974 0.0
C242 C 0.87667 0.43241 0.52826 0.0
C243 C 0.90214 0.46219 0.52772 0.0
C244 C 0.00012 0.52552 0.45038 0.0
C245 C 0.00282 0.4872 0.44348 0.0
C246 C 0.02464 0.47376 0.4155 0.0
C247 C 0.0446 0.4982 0.39362 0.0
C248 C 0.04344 0.53659 0.40146 0.0
C249 C 0.02132 0.55017 0.42967 0.0
C250 C 0.94809 0.62413 0.5291 0.0
C251 C 0.98239 0.64347 0.53529 0.0
C252 C 0.93156 0.81612 0.73545 0.0
C253 C 0.9158 0.83125 0.70355 0.0
C254 C 0.88433 0.85265 0.70673 0.0
C255 C 0.86776 0.85725 0.74077 0.0
H256 H 0.79426 0.92269 0.80566 0.0
H257 H 0.73448 0.95176 0.79911 0.0
H258 H 0.68501 0.86808 0.86627 0.0
H259 H 0.7445 0.83946 0.87342 0.0
H260 H 0.80803 0.79192 0.92305 0.0
H261 H 0.80083 0.73216 0.95202 0.0
H262 H 0.86812 0.68241 0.8687 0.0
H263 H 0.87586 0.74192 0.84013 0.0
H264 H 0.92634 0.80674 0.79324 0.0
H265 H 0.95594 0.79965 0.73382 0.0
H266 H 0.87187 0.86505 0.68265 0.0
H267 H 0.84266 0.87269 0.74186 0.0
N268 N 0.83182 0.86184 0.8107 0.0
N269 N 0.813 0.82903 0.86197 0.0
N270 N 0.86461 0.81061 0.82957 0.0
C271 C 0.80824 0.85732 0.83875 0.0
C272 C 0.84125 0.80571 0.85773 0.0
C273 C 0.86027 0.83878 0.80611 0.0
C274 C 0.77409 0.87858 0.83977 0.0
C275 C 0.77076 0.91091 0.81957 0.0
C276 C 0.73657 0.92757 0.81582 0.0
C277 C 0.70505 0.91177 0.83167 0.0
C278 C 0.70877 0.88055 0.85333 0.0
C279 C 0.74299 0.86432 0.85763 0.0
C280 C 0.84222 0.77161 0.87909 0.0
C281 C 0.82184 0.76836 0.91133 0.0
C282 C 0.8177 0.73417 0.92793 0.0
C283 C 0.83337 0.70257 0.91218 0.0
C284 C 0.85528 0.70623 0.88111 0.0
C285 C 0.85995 0.74045 0.86492 0.0
C286 C 0.88194 0.83996 0.77221 0.0
C287 C 0.91459 0.82018 0.76945 0.0
C288 C 0.43157 0.31613 0.23547 0.0
C289 C 0.41581 0.33126 0.20356 0.0
C290 C 0.38434 0.35266 0.20673 0.0
C291 C 0.36777 0.35726 0.24077 0.0
H292 H 0.29425 0.4227 0.30565 0.0
H293 H 0.23448 0.45176 0.2991 0.0
H294 H 0.185 0.36808 0.36626 0.0
H295 H 0.24449 0.33946 0.3734 0.0
H296 H 0.30802 0.29193 0.42304 0.0
H297 H 0.30083 0.23217 0.45202 0.0
H298 H 0.36815 0.18243 0.36871 0.0
H299 H 0.37588 0.24194 0.34015 0.0
H300 H 0.42634 0.30675 0.29326 0.0
H301 H 0.45595 0.29965 0.23384 0.0
H302 H 0.37189 0.36505 0.18266 0.0
H303 H 0.34268 0.3727 0.24186 0.0
N304 N 0.33182 0.36185 0.3107 0.0
N305 N 0.313 0.32904 0.36197 0.0
N306 N 0.36462 0.31063 0.32957 0.0
C307 C 0.30823 0.35733 0.33874 0.0
C308 C 0.34125 0.30572 0.35774 0.0
C309 C 0.36028 0.33879 0.30611 0.0
C310 C 0.27408 0.37858 0.33976 0.0
C311 C 0.27075 0.41092 0.31956 0.0
C312 C 0.23656 0.42757 0.31581 0.0
C313 C 0.20504 0.41177 0.33166 0.0
C314 C 0.20877 0.38055 0.35331 0.0
C315 C 0.24299 0.36432 0.35762 0.0
C316 C 0.34222 0.27163 0.37909 0.0
C317 C 0.32184 0.26837 0.41133 0.0
C318 C 0.31771 0.23418 0.42793 0.0
C319 C 0.33338 0.20258 0.41219 0.0
C320 C 0.35531 0.20625 0.38112 0.0
C321 C 0.35996 0.24047 0.36493 0.0
C322 C 0.38195 0.33997 0.27222 0.0
C323 C 0.4146 0.32019 0.26946 0.0
C324 C 0.51037 0.82628 0.47484 0.0
C325 C 0.51719 0.83904 0.43922 0.0
C326 C 0.52726 0.87661 0.43546 0.0
C327 C 0.52743 0.90141 0.46583 0.0
H328 H 0.46228 0.98919 0.47138 0.0
H329 H 0.41416 0.02721 0.44742 0.0
H330 H 0.38293 0.05549 0.55903 0.0
H331 H 0.4317 0.01645 0.58346 0.0
H332 H 0.52736 0.00517 0.63501 0.0
H333 H 0.55447 0.00741 0.69804 0.0
H334 H 0.55839 0.88799 0.69436 0.0
H335 H 0.53219 0.88581 0.6309 0.0
H336 H 0.50301 0.84147 0.53224 0.0
H337 H 0.50279 0.79742 0.47868 0.0
H338 H 0.5333 0.88738 0.40864 0.0
H339 H 0.53308 0.9306 0.46156 0.0
N340 N 0.4865 0.94465 0.51835 0.0
N341 N 0.48949 0.97139 0.5783 0.0
N342 N 0.5211 0.91671 0.56495 0.0
C343 C 0.47649 0.97154 0.54255 0.0
C344 C 0.51205 0.94418 0.58959 0.0
C345 C 0.50851 0.9173 0.52908 0.0
C346 C 0.45049 -0.0007 0.52937 0.0
C347 C 0.44538 0.00354 0.49103 0.0
C348 C 0.41763 0.02538 0.47721 0.0
C349 C 0.39421 0.04381 0.50128 0.0
C350 C 0.4004 0.04133 0.5398 0.0
C351 C 0.4284 0.01917 0.55378 0.0
C352 C 0.52759 0.94528 0.62807 0.0
C353 C 0.53395 0.97939 0.64769 0.0
C354 C 0.54967 0.98071 0.68368 0.0
C355 C 0.55852 0.94789 0.70109 0.0
C356 C 0.55173 0.91374 0.68165 0.0
C357 C 0.53685 0.91248 0.64532 0.0
C358 C 0.51794 0.88927 0.50079 0.0
C359 C 0.51081 0.85132 0.50554 0.0
C360 C 0.27884 0.19225 0.60333 0.0
C361 C 0.25836 0.15887 0.59534 0.0
C362 C 0.22926 0.14902 0.61825 0.0
C363 C 0.22049 0.17228 0.64816 0.0
H364 H 0.12319 0.2269 0.70475 0.0
H365 H 0.06374 0.2293 0.73536 0.0
H366 H 0.12167 0.25088 0.84088 0.0
H367 H 0.18111 0.25045 0.81009 0.0
H368 H 0.23825 0.3304 0.78668 0.0
H369 H 0.26834 0.39059 0.7996 0.0
H370 H 0.32536 0.38154 0.6967 0.0
H371 H 0.29489 0.32054 0.68357 0.0
H372 H 0.28639 0.24107 0.63846 0.0
H373 H 0.30148 0.20066 0.58624 0.0
H374 H 0.21291 0.12352 0.61286 0.0
H375 H 0.19771 0.16384 0.66503 0.0
N376 N 0.20024 0.22288 0.70688 0.0
N377 N 0.2126 0.27615 0.7449 0.0
N378 N 0.25179 0.26225 0.69641 0.0
C379 C 0.19124 0.24527 0.73587 0.0
C380 C 0.24279 0.28506 0.72522 0.0
C381 C 0.23085 0.23085 0.68735 0.0
C382 C 0.15653 0.23863 0.75515 0.0
C383 C 0.12319 0.23109 0.7346 0.0
C384 C 0.08929 0.23242 0.75202 0.0
C385 C 0.08844 0.23983 0.79037 0.0
C386 C 0.12184 0.24449 0.81134 0.0
C387 C 0.15569 0.24448 0.79375 0.0
C388 C 0.2639 0.32056 0.73395 0.0
C389 C 0.25727 0.34097 0.76674 0.0
C390 C 0.27462 0.37568 0.77418 0.0
C391 C 0.29909 0.39117 0.74903 0.0
C392 C 0.30653 0.3705 0.71657 0.0
C393 C 0.28917 0.33547 0.70914 0.0
C394 C 0.24069 0.2059 0.65596 0.0
C395 C 0.27016 0.21546 0.63332 0.0
C396 C 0.6917 0.1058 0.78384 0.0
C397 C 0.65757 0.0985 0.76448 0.0
C398 C 0.64605 0.12309 0.73753 0.0
C399 C 0.6685 0.1539 0.72956 0.0
H400 H 0.71578 0.2116 0.63333 0.0
H401 H 0.71791 0.24078 0.57318 0.0
H402 H 0.75184 0.34517 0.62802 0.0
H403 H 0.75146 0.31574 0.68813 0.0
H404 H 0.82588 0.29326 0.74705 0.0
H405 H 0.88708 0.30552 0.77517 0.0
H406 H 0.88071 0.20044 0.82858 0.0
H407 H 0.81869 0.18801 0.80012 0.0
H408 H 0.74036 0.14124 0.79122 0.0
H409 H 0.70136 0.08744 0.80487 0.0
H410 H 0.61991 0.11829 0.72213 0.0
H411 H 0.65885 0.17205 0.70834 0.0
N412 N 0.71864 0.21293 0.70895 0.0
N413 N 0.77192 0.25107 0.72085 0.0
N414 N 0.75895 0.20191 0.75956 0.0
C415 C 0.74072 0.24217 0.69992 0.0
C416 C 0.78141 0.23103 0.75062 0.0
C417 C 0.72724 0.19298 0.73909 0.0
C418 C 0.73369 0.26145 0.66523 0.0
C419 C 0.72256 0.24103 0.63262 0.0
C420 C 0.72368 0.25764 0.59829 0.0
C421 C 0.73457 0.29516 0.59632 0.0
C422 C 0.74272 0.31632 0.6291 0.0
C423 C 0.74277 0.29946 0.66333 0.0
C424 C 0.81734 0.2395 0.77102 0.0
C425 C 0.83726 0.27273 0.76491 0.0
C426 C 0.87254 0.27978 0.78112 0.0
C427 C 0.88909 0.25378 0.80389 0.0
C428 C 0.86884 0.22096 0.81104 0.0
C429 C 0.83324 0.21392 0.79482 0.0
C430 C 0.70293 0.16095 0.74851 0.0
C431 C 0.71408 0.13672 0.77602 0.0
C432 C 0.40328 0.52792 0.59646 0.0
C433 C 0.4105 0.50583 0.62694 0.0
C434 C 0.44175 0.4838 0.62688 0.0
C435 C 0.46556 0.48426 0.59725 0.0
H436 H 0.54251 0.42043 0.54122 0.0
H437 H 0.59382 0.37858 0.54114 0.0
H438 H 0.6538 0.45158 0.47026 0.0
H439 H 0.60233 0.49333 0.46998 0.0
H440 H 0.5456 0.54658 0.42064 0.0
H441 H 0.54493 0.59824 0.37915 0.0
H442 H 0.46774 0.65354 0.44885 0.0
H443 H 0.46809 0.60181 0.49022 0.0
H444 H 0.42118 0.5464 0.54418 0.0
H445 H 0.37943 0.54522 0.59565 0.0
H446 H 0.44802 0.46636 0.64987 0.0
H447 H 0.48961 0.46724 0.59839 0.0
N448 N 0.51262 0.4843 0.53416 0.0
N449 N 0.53566 0.51431 0.48283 0.0
N450 N 0.4835 0.53648 0.51207 0.0
C451 C 0.53785 0.48669 0.50728 0.0
C452 C 0.50849 0.53927 0.48496 0.0
C453 C 0.48534 0.50903 0.53674 0.0
C454 C 0.56832 0.46035 0.50573 0.0
C455 C 0.56655 0.42753 0.52548 0.0
C456 C 0.59594 0.40344 0.52535 0.0
C457 C 0.62796 0.41184 0.50585 0.0
C458 C 0.62957 0.44439 0.4857 0.0
C459 C 0.59998 0.46827 0.48545 0.0
C460 C 0.50701 0.57003 0.4589 0.0
C461 C 0.52837 0.56968 0.4271 0.0
C462 C 0.52791 0.59927 0.40322 0.0
C463 C 0.5064 0.63008 0.41077 0.0
C464 C 0.48473 0.63028 0.44231 0.0
C465 C 0.48487 0.60052 0.46599 0.0
C466 C 0.4589 0.50705 0.56715 0.0
C467 C 0.42731 0.52867 0.56698 0.0
C468 C 0.54289 0.39503 0.03992 0.0
C469 C 0.50442 0.38773 0.04149 0.0
C470 C 0.48018 0.40914 0.02081 0.0
C471 C 0.49385 0.43613 -0.00204 0.0
H472 H 0.46554 0.52621 0.92696 0.0
H473 H 0.41215 0.52788 0.88453 0.0
H474 H 0.47999 0.49592 0.79335 0.0
H475 H 0.53411 0.49461 0.83669 0.0
H476 H 0.63417 0.52629 0.8828 0.0
H477 H 0.69703 0.55412 0.88614 0.0
H478 H 0.69873 0.55003 0.00554 0.0
H479 H 0.63633 0.5213 0.00217 0.0
H480 H 0.58644 0.42658 0.01503 0.0
H481 H 0.56226 0.37909 0.05576 0.0
H482 H 0.4504 0.40477 0.02176 0.0
H483 H 0.47405 0.45154 0.98208 0.0
N484 N 0.52147 0.47795 0.93977 0.0
N485 N 0.56779 0.51375 0.91267 0.0
N486 N 0.58104 0.4821 0.9674 0.0
C487 C 0.53215 0.50034 0.91267 0.0
C488 C 0.59229 0.50498 0.9404 0.0
C489 C 0.54551 0.46833 0.96697 0.0
C490 C 0.50375 0.51026 0.88498 0.0
C491 C 0.46925 0.52051 0.89768 0.0
C492 C 0.4386 0.52114 0.87334 0.0
C493 C 0.44158 0.51118 0.83564 0.0
C494 C 0.47677 0.50345 0.82232 0.0
C495 C 0.50778 0.50303 0.84693 0.0
C496 C 0.63043 0.52148 0.94219 0.0
C497 C 0.64803 0.53126 0.90972 0.0
C498 C 0.68402 0.54709 0.91164 0.0
C499 C 0.70272 0.55431 0.94612 0.0
C500 C 0.68493 0.54495 0.97861 0.0
C501 C 0.64932 0.52828 0.97664 0.0
C502 C 0.53223 0.44251 0.99493 0.0
C503 C 0.55672 0.42227 0.01675 0.0
C504 C 0.77639 0.27621 0.38069 0.0
C505 C 0.75066 0.3 0.39613 0.0
C506 C 0.71843 0.3074 0.37505 0.0
C507 C 0.71178 0.29055 0.33966 0.0
H508 H 0.64214 0.28718 0.2441 0.0
H509 H 0.58979 0.30109 0.20333 0.0
H510 H 0.62089 0.21574 0.12479 0.0
H511 H 0.6732 0.2017 0.16549 0.0
H512 H 0.71635 0.13012 0.21337 0.0
H513 H 0.7463 0.07026 0.2138 0.0
H514 H 0.84359 0.12272 0.26856 0.0
H515 H 0.8136 0.1823 0.26922 0.0
H516 H 0.79017 0.24093 0.33513 0.0
H517 H 0.80169 0.27002 0.39588 0.0
H518 H 0.69812 0.32571 0.38606 0.0
H519 H 0.68636 0.29615 0.32439 0.0
N520 N 0.70095 0.25415 0.26559 0.0
N521 N 0.71355 0.2038 0.22553 0.0
N522 N 0.74985 0.21569 0.27996 0.0
C523 C 0.6931 0.23372 0.23362 0.0
C524 C 0.74211 0.19483 0.24849 0.0
C525 C 0.72942 0.24528 0.28889 0.0
C526 C 0.66188 0.24316 0.20828 0.0
C527 C 0.63798 0.27144 0.2181 0.0
C528 C 0.60791 0.27943 0.19468 0.0
C529 C 0.60109 0.25944 0.16083 0.0
C530 C 0.62533 0.23165 0.15067 0.0
C531 C 0.65533 0.22355 0.17413 0.0
C532 C 0.76256 0.16076 0.24159 0.0
C533 C 0.74454 0.12908 0.22448 0.0
C534 C 0.76161 0.09492 0.2246 0.0
C535 C 0.79724 0.09233 0.24079 0.0
C536 C 0.81628 0.12438 0.2554 0.0
C537 C 0.79901 0.15831 0.25602 0.0
C538 C 0.73718 0.26591 0.32482 0.0
C539 C 0.76976 0.25942 0.34564 0.0
C540 C 0.4841 0.17947 0.05097 0.0
C541 C 0.45146 0.19716 0.0599 0.0
C542 C 0.41713 0.17795 0.05339 0.0
C543 C 0.4155 0.14161 0.03858 0.0
H544 H 0.3431 0.0303 0.00635 0.0
H545 H 0.29788 0.97773 0.00726 0.0
H546 H 0.38699 0.90527 0.0337 0.0
H547 H 0.43134 0.95718 0.03229 0.0
H548 H 0.48739 0.96728 0.95922 0.0
H549 H 0.52535 0.94402 0.91072 0.0
H550 H 0.55876 0.0561 0.8852 0.0
H551 H 0.51984 0.07985 0.93433 0.0
H552 H 0.50803 0.13056 0.02855 0.0
H553 H 0.51092 0.19366 0.05555 0.0
H554 H 0.39152 0.19088 0.06012 0.0
H555 H 0.38868 0.1274 0.03406 0.0
N556 N 0.41886 0.06131 0.02251 0.0
N557 N 0.44579 0.01469 0.98707 0.0
N558 N 0.47334 0.07432 0.99039 0.0
C559 C 0.41884 0.02554 0.00956 0.0
C560 C 0.47287 0.03869 0.97698 0.0
C561 C 0.44652 0.08572 0.01339 0.0
C562 C 0.39053 0.99755 0.01911 0.0
C563 C 0.35256 0.00325 0.01343 0.0
C564 C 0.32684 0.97313 0.01362 0.0
C565 C 0.33893 0.93715 0.01974 0.0
C566 C 0.37668 0.9324 0.02827 0.0
C567 C 0.40215 0.96218 0.02772 0.0
C568 C 0.50013 0.02551 0.95038 0.0
C569 C 0.50283 0.98719 0.94349 0.0
C570 C 0.52465 0.97375 0.91551 0.0
C571 C 0.5446 -0.0018 0.89363 0.0
C572 C 0.54345 0.03658 0.90147 0.0
C573 C 0.52132 0.05017 0.92967 0.0
C574 C 0.4481 0.12412 0.02912 0.0
C575 C 0.4824 0.14346 0.0353 0.0
Zn576 Zn 0.29477 0.82602 0.00471 0.0
Zn577 Zn 0.23663 0.86754 4e-05 0.0
O578 O 0.22914 0.83769 0.04751 0.0
O579 O 0.27344 0.7974 0.04591 0.0
O580 O 0.19122 0.89834 0.99621 0.0
O581 O 0.32674 0.87217 0.01658 0.0
O582 O 0.27907 0.90721 0.00713 0.0
C583 C 0.24517 0.81 0.06081 0.0
C584 C 0.25783 0.81603 0.93425 0.0
O585 O 0.23536 0.838 0.94925 0.0
O586 O 0.28668 0.80718 0.95222 0.0
C587 C 0.15983 0.88726 0.00731 0.0
O588 O 0.15636 0.85436 0.02141 0.0
C589 C 0.31349 0.90406 0.01483 0.0
Zn590 Zn 0.08963 0.42433 0.31283 0.0
Zn591 Zn 0.12089 0.49194 0.30158 0.0
O592 O 0.08799 0.50363 0.34529 0.0
O593 O 0.06095 0.44896 0.35313 0.0
O594 O 0.14742 0.54056 0.29271 0.0
O595 O 0.1396 0.40503 0.3265 0.0
O596 O 0.16472 0.45941 0.31397 0.0
C597 C 0.06558 0.48301 0.3625 0.0
C598 C 0.07447 0.44918 0.23939 0.0
O599 O 0.09241 0.47817 0.25228 0.0
O600 O 0.07017 0.42134 0.25935 0.0
C601 C 0.13473 0.56481 0.27158 0.0
O602 O 0.10201 0.55883 0.25489 0.0
C603 C 0.16802 0.42624 0.32402 0.0
Zn604 Zn 0.8145 0.58736 0.92512 0.0
Zn605 Zn 0.8013 0.61874 0.99225 0.0
O606 O 0.84506 0.58644 0.00559 0.0
O607 O 0.85455 0.55962 0.95119 0.0
O608 O 0.79055 0.64593 0.04014 0.0
O609 O 0.82823 0.63715 0.90555 0.0
O610 O 0.81456 0.6623 0.95954 0.0
C611 C 0.86307 0.56433 0.98543 0.0
C612 C 0.74072 0.57111 0.94809 0.0
O613 O 0.75271 0.58938 0.97723 0.0
O614 O 0.76138 0.56703 0.92077 0.0
C615 C 0.76654 0.63509 0.06263 0.0
O616 O 0.7479 0.60354 0.05558 0.0
C617 C 0.82532 0.66558 0.92659 0.0
Zn618 Zn 0.82857 -0.00198 0.29659 0.0
Zn619 Zn 0.86751 0.99474 0.23593 0.0
O620 O 0.83751 0.04237 0.23112 0.0
O621 O 0.80078 0.04123 0.27855 0.0
O622 O 0.89656 0.99219 0.18921 0.0
O623 O 0.87629 0.00757 0.32659 0.0
O624 O 0.909 0.00052 0.27681 0.0
C625 C 0.81156 0.05615 0.24952 0.0
C626 C 0.81594 0.92887 0.25702 0.0
O627 O 0.83764 0.94419 0.23446 0.0
O628 O 0.80808 0.94616 0.28663 0.0
C629 C 0.88628 0.00662 0.15911 0.0
O630 O 0.85477 0.0236 0.1574 0.0
C631 C 0.90746 0.00663 0.31168 0.0
Zn632 Zn 0.31454 0.08737 0.42513 0.0
Zn633 Zn 0.30133 0.11874 0.49226 0.0
O634 O 0.3451 0.08645 0.50559 0.0
O635 O 0.3546 0.05963 0.45119 0.0
O636 O 0.29058 0.14593 0.54015 0.0
O637 O 0.32826 0.13716 0.40555 0.0
O638 O 0.31458 0.16231 0.45954 0.0
C639 C 0.36311 0.06435 0.48543 0.0
C640 C 0.24076 0.0711 0.4481 0.0
O641 O 0.25275 0.08937 0.47723 0.0
O642 O 0.26142 0.06702 0.42077 0.0
C643 C 0.26656 0.13508 0.56263 0.0
O644 O 0.24794 0.10353 0.55558 0.0
C645 C 0.32534 0.16559 0.42659 0.0
Zn646 Zn 0.32852 0.49802 0.79658 0.0
Zn647 Zn 0.36748 0.49474 0.73593 0.0
O648 O 0.33748 0.54238 0.73112 0.0
O649 O 0.30074 0.54123 0.77853 0.0
O650 O 0.39653 0.4922 0.68922 0.0
O651 O 0.37624 0.50757 0.82659 0.0
O652 O 0.40895 0.50052 0.77681 0.0
C653 C 0.31152 0.55616 0.7495 0.0
C654 C 0.3159 0.42888 0.75701 0.0
O655 O 0.3376 0.44419 0.73445 0.0
O656 O 0.30803 0.44616 0.78661 0.0
C657 C 0.38626 0.50662 0.65911 0.0
O658 O 0.35475 0.5236 0.6574 0.0
C659 C 0.40741 0.50663 0.81168 0.0
Zn660 Zn 0.79477 0.32603 0.50472 0.0
Zn661 Zn 0.73662 0.36754 0.50005 0.0
O662 O 0.72914 0.33769 0.54752 0.0
O663 O 0.77344 0.29741 0.54592 0.0
O664 O 0.69121 0.39834 0.49622 0.0
O665 O 0.82673 0.37217 0.51659 0.0
O666 O 0.77906 0.40721 0.50713 0.0
C667 C 0.74517 0.31 0.56082 0.0
C668 C 0.75782 0.31602 0.43425 0.0
O669 O 0.73535 0.33799 0.44926 0.0
O670 O 0.78668 0.30719 0.45223 0.0
C671 C 0.65983 0.38727 0.50733 0.0
O672 O 0.65636 0.35437 0.52143 0.0
C673 C 0.81348 0.40406 0.51483 0.0
Zn674 Zn 0.58964 0.92433 0.81284 0.0
Zn675 Zn 0.6209 0.99194 0.80159 0.0
O676 O 0.58799 0.00362 0.8453 0.0
O677 O 0.56096 0.94895 0.85313 0.0
O678 O 0.64743 0.04056 0.79272 0.0
O679 O 0.63961 0.90503 0.82651 0.0
O680 O 0.66472 0.95941 0.81398 0.0
C681 C 0.56558 0.98301 0.86251 0.0
C682 C 0.57448 0.94917 0.7394 0.0
O683 O 0.59242 0.97816 0.75229 0.0
O684 O 0.57018 0.92133 0.75936 0.0
C685 C 0.63474 0.06481 0.77158 0.0
O686 O 0.60202 0.05882 0.7549 0.0
C687 C 0.66803 0.92624 0.82403 0.0
Zn688 Zn -0.00197 0.29852 0.82719 0.0
Zn689 Zn 0.99552 0.23888 0.86705 0.0
O690 O 0.04176 0.23306 0.83505 0.0
O691 O 0.03788 0.27825 0.79589 0.0
O692 O 0.99328 0.19247 0.89671 0.0
O693 O 0.01184 0.32894 0.87398 0.0
O694 O 0.0036 0.28011 0.9078 0.0
C695 C 0.05363 0.24988 0.80714 0.0
C696 C 0.92759 0.26112 0.8189 0.0
O697 O 0.94374 0.23804 0.83936 0.0
O698 O 0.94479 0.2906 0.81048 0.0
C699 C 0.00728 0.16217 0.8864 0.0
O700 O 0.02367 0.16006 0.85457 0.0
C701 C 0.01119 0.31465 0.90549 0.0
Zn702 Zn 0.49803 0.79852 0.32719 0.0
Zn703 Zn 0.49552 0.73887 0.36705 0.0
O704 O 0.54177 0.73306 0.33505 0.0
O705 O 0.53789 0.77825 0.29589 0.0
O706 O 0.49329 0.69247 0.39671 0.0
O707 O 0.51184 0.82893 0.37399 0.0
O708 O 0.5036 0.78011 0.4078 0.0
C709 C 0.55365 0.74988 0.30715 0.0
C710 C 0.42759 0.76112 0.3189 0.0
O711 O 0.44375 0.73803 0.33936 0.0
O712 O 0.4448 0.79059 0.31048 0.0
C713 C 0.50728 0.66217 0.38641 0.0
O714 O 0.52368 0.66005 0.35458 0.0
C715 C 0.51119 0.81465 0.40549 0.0
Zn716 Zn 0.92917 0.80961 0.58884 0.0
Zn717 Zn 0.99639 0.7983 0.62062 0.0
O718 O 0.00919 0.84086 0.58658 0.0
O719 O 0.95467 0.84859 0.55922 0.0
O720 O 0.04445 0.78922 0.64816 0.0
O721 O 0.90942 0.82492 0.63815 0.0
O722 O 0.9635 0.81231 0.66379 0.0
C723 C 0.98885 0.85761 0.56357 0.0
C724 C 0.95307 0.73565 0.57537 0.0
O725 O 0.98218 0.74859 0.59307 0.0
O726 O 0.92545 0.75579 0.57067 0.0
C727 C 0.06819 0.76675 0.63692 0.0
O728 O 0.06226 0.74877 0.60486 0.0
C729 C 0.93045 0.82287 0.66673 0.0
Zn730 Zn 0.42917 0.30959 0.08886 0.0
Zn731 Zn 0.4964 0.29829 0.12063 0.0
O732 O 0.5092 0.34085 0.08658 0.0
O733 O 0.45467 0.34857 0.05922 0.0
O734 O 0.54446 0.28922 0.14816 0.0
O735 O 0.40943 0.32491 0.13816 0.0
O736 O 0.46351 0.31231 0.1638 0.0
C737 C 0.48885 0.3576 0.06357 0.0
C738 C 0.45307 0.23564 0.07539 0.0
O739 O 0.48219 0.24858 0.09308 0.0
O740 O 0.42545 0.25578 0.07069 0.0
C741 C 0.5682 0.26673 0.13693 0.0
O742 O 0.56225 0.24873 0.10488 0.0
C743 C 0.43046 0.32287 0.16674 0.0
loop_
_geom_bond_atom_site_label_1
_geom_bond_atom_site_label_2
_geom_bond_distance
_geom_bond_site_symmetry_2
_ccdc_geom_bond_type
C0 C1 1.384 . S
C0 H13 0.947 . S
C0 C35 1.382 . S
C1 C0 1.384 . S
C1 C2 1.378 1_545 S
C2 C1 1.378 1_565 S
C2 C3 1.378 1_665 S
C2 H14 0.952 . S
C3 C2 1.378 1_445 S
C3 H15 0.950 1_545 S
C3 C34 1.383 1_455 S
H4 C23 0.947 . S
H5 C24 0.946 . S
H6 C26 0.953 . S
H7 C27 0.945 1_556 S
H8 C29 0.952 . S
H9 C30 0.949 . S
H10 C32 0.973 . S
H11 C33 0.948 1_655 S
H12 C35 0.951 . S
H13 C0 0.947 . S
H14 C2 0.952 . S
H15 C3 0.950 1_565 S
N16 C19 1.382 . S
N16 C21 1.363 . S
N17 C19 1.371 . S
N17 C20 1.372 . S
N18 C20 1.361 . S
N18 C21 1.377 . S
C19 N16 1.382 . S
C19 N17 1.371 . S
C19 C22 1.461 1_545 S
C20 N17 1.372 . S
C20 N18 1.361 . S
C20 C28 1.452 1_554 S
C21 N16 1.363 . S
C21 N18 1.377 . S
C21 C34 1.479 1_455 S
C22 C19 1.461 1_565 S
C22 C23 1.408 . S
C22 C27 1.379 1_565 S
C23 H4 0.947 . S
C23 C22 1.408 . S
C23 C24 1.388 . S
C24 H5 0.946 . S
C24 C23 1.388 . S
C24 C25 1.384 . S
C25 C24 1.384 . S
C25 C26 1.377 1_554 S
C26 H6 0.953 . S
C26 C25 1.377 1_556 S
C26 C27 1.369 1_566 S
C27 H7 0.945 1_554 S
C27 C22 1.379 1_545 S
C27 C26 1.369 1_544 S
C28 C20 1.452 1_556 S
C28 C29 1.379 . S
C28 C33 1.362 1_556 S
C29 H8 0.952 . S
C29 C28 1.379 . S
C29 C30 1.389 . S
C30 H9 0.949 . S
C30 C29 1.389 . S
C30 C31 1.387 . S
C31 C30 1.387 . S
C31 C32 1.355 1_455 S
C32 H10 0.973 . S
C32 C31 1.355 1_655 S
C32 C33 1.373 1_656 S
C33 H11 0.948 1_455 S
C33 C28 1.362 1_554 S
C33 C32 1.373 1_454 S
C34 C3 1.383 1_655 S
C34 C21 1.479 1_655 S
C34 C35 1.398 . S
C35 C0 1.382 . S
C35 H12 0.951 . S
C35 C34 1.398 . S
C36 C37 1.384 . S
C36 H49 0.947 . S
C36 C71 1.382 . S
C37 C36 1.384 . S
C37 C38 1.378 . S
C38 C37 1.378 . S
C38 C39 1.378 . S
C38 H50 0.952 . S
C39 C38 1.378 . S
C39 H51 0.950 . S
C39 C70 1.383 . S
H40 C59 0.947 . S
H41 C60 0.946 . S
H42 C62 0.953 . S
H43 C63 0.945 . S
H44 C65 0.952 . S
H45 C66 0.949 . S
H46 C68 0.950 . S
H47 C69 0.948 . S
H48 C71 0.951 . S
H49 C36 0.947 . S
H50 C38 0.952 . S
H51 C39 0.950 . S
N52 C55 1.382 . S
N52 C57 1.363 . S
N53 C55 1.371 . S
N53 C56 1.372 . S
N54 C56 1.361 . S
N54 C57 1.377 . S
C55 N52 1.382 . S
C55 N53 1.371 . S
C55 C58 1.480 . S
C56 N53 1.372 . S
C56 N54 1.361 . S
C56 C64 1.457 . S
C57 N52 1.363 . S
C57 N54 1.377 . S
C57 C70 1.479 . S
C58 C55 1.480 . S
C58 C59 1.383 . S
C58 C63 1.385 . S
C59 H40 0.947 . S
C59 C58 1.383 . S
C59 C60 1.388 . S
C60 H41 0.946 . S
C60 C59 1.388 . S
C60 C61 1.384 . S
C61 C60 1.384 . S
C61 C62 1.377 . S
C62 H42 0.953 . S
C62 C61 1.377 . S
C62 C63 1.369 . S
C63 H43 0.945 . S
C63 C58 1.385 . S
C63 C62 1.369 . S
C64 C56 1.457 . S
C64 C65 1.372 . S
C64 C69 1.364 . S
C65 H44 0.952 . S
C65 C64 1.372 . S
C65 C66 1.389 . S
C66 H45 0.949 . S
C66 C65 1.389 . S
C66 C67 1.387 . S
C67 C66 1.387 . S
C67 C68 1.372 . S
C68 H46 0.950 . S
C68 C67 1.372 . S
C68 C69 1.379 . S
C69 H47 0.948 . S
C69 C64 1.364 . S
C69 C68 1.379 . S
C70 C39 1.383 . S
C70 C57 1.479 . S
C70 C71 1.398 . S
C71 C36 1.382 . S
C71 H48 0.951 . S
C71 C70 1.398 . S
C72 C73 1.384 . S
C72 H85 0.947 1_655 S
C72 C107 1.382 1_556 S
C73 C72 1.384 . S
C73 C74 1.378 . S
C74 C73 1.378 . S
C74 C75 1.378 . S
C74 H86 0.952 . S
C75 C74 1.378 . S
C75 H87 0.950 . S
C75 C106 1.383 1_556 S
H76 C95 0.947 1_556 S
H77 C96 0.946 1_556 S
H78 C98 0.953 . S
H79 C99 0.945 . S
H80 C101 0.952 . S
H81 C102 0.949 . S
H82 C104 0.950 . S
H83 C105 0.948 . S
H84 C107 0.951 1_455 S
H85 C72 0.947 1_455 S
H86 C74 0.952 . S
H87 C75 0.950 . S
N88 C91 1.382 . S
N88 C93 1.363 . S
N89 C91 1.371 . S
N89 C92 1.372 . S
N90 C92 1.361 . S
N90 C93 1.377 . S
C91 N88 1.382 . S
C91 N89 1.371 . S
C91 C94 1.480 . S
C92 N89 1.372 . S
C92 N90 1.361 . S
C92 C100 1.457 1_655 S
C93 N88 1.363 . S
C93 N90 1.377 . S
C93 C106 1.479 . S
C94 C91 1.480 . S
C94 C95 1.383 . S
C94 C99 1.385 . S
C95 H76 0.947 1_554 S
C95 C94 1.383 . S
C95 C96 1.388 . S
C96 H77 0.946 1_554 S
C96 C95 1.388 . S
C96 C97 1.384 . S
C97 C96 1.384 . S
C97 C98 1.377 . S
C98 H78 0.953 . S
C98 C97 1.377 . S
C98 C99 1.369 . S
C99 H79 0.945 . S
C99 C94 1.385 . S
C99 C98 1.369 . S
C100 C92 1.457 1_455 S
C100 C101 1.372 1_455 S
C100 C105 1.364 . S
C101 H80 0.952 . S
C101 C100 1.372 1_655 S
C101 C102 1.389 1_655 S
C102 H81 0.949 . S
C102 C101 1.389 1_455 S
C102 C103 1.387 . S
C103 C102 1.387 . S
C103 C104 1.372 . S
C104 H82 0.950 . S
C104 C103 1.372 . S
C104 C105 1.379 . S
C105 H83 0.948 . S
C105 C100 1.364 . S
C105 C104 1.379 . S
C106 C75 1.383 1_554 S
C106 C93 1.479 . S
C106 C107 1.398 . S
C107 C72 1.382 1_554 S
C107 H84 0.951 1_655 S
C107 C106 1.398 . S
C108 C109 1.384 . S
C108 H121 0.947 . S
C108 C143 1.382 . S
C109 C108 1.384 . S
C109 C110 1.378 . S
C110 C109 1.378 . S
C110 C111 1.378 . S
C110 H122 0.952 . S
C111 C110 1.378 . S
C111 H123 0.950 . S
C111 C142 1.383 . S
H112 C131 0.947 . S
H113 C132 0.946 . S
H114 C134 0.953 . S
H115 C135 0.945 . S
H116 C137 0.952 . S
H117 C138 0.949 . S
H118 C140 0.950 . S
H119 C141 0.948 . S
H120 C143 0.951 . S
H121 C108 0.947 . S
H122 C110 0.952 . S
H123 C111 0.950 . S
N124 C127 1.382 . S
N124 C129 1.363 . S
N125 C127 1.371 . S
N125 C128 1.372 . S
N126 C128 1.361 . S
N126 C129 1.377 . S
C127 N124 1.382 . S
C127 N125 1.371 . S
C127 C130 1.480 . S
C128 N125 1.372 . S
C128 N126 1.361 . S
C128 C136 1.457 . S
C129 N124 1.363 . S
C129 N126 1.377 . S
C129 C142 1.479 . S
C130 C127 1.480 . S
C130 C131 1.383 . S
C130 C135 1.385 . S
C131 H112 0.947 . S
C131 C130 1.383 . S
C131 C132 1.388 . S
C132 H113 0.946 . S
C132 C131 1.388 . S
C132 C133 1.384 . S
C133 C132 1.384 . S
C133 C134 1.377 . S
C134 H114 0.953 . S
C134 C133 1.377 . S
C134 C135 1.369 . S
C135 H115 0.945 . S
C135 C130 1.385 . S
C135 C134 1.369 . S
C136 C128 1.457 . S
C136 C137 1.372 . S
C136 C141 1.364 . S
C137 H116 0.952 . S
C137 C136 1.372 . S
C137 C138 1.389 . S
C138 H117 0.949 . S
C138 C137 1.389 . S
C138 C139 1.387 . S
C139 C138 1.387 . S
C139 C140 1.372 . S
C140 H118 0.950 . S
C140 C139 1.372 . S
C140 C141 1.379 . S
C141 H119 0.948 . S
C141 C136 1.364 . S
C141 C140 1.379 . S
C142 C111 1.383 . S
C142 C129 1.479 . S
C142 C143 1.398 . S
C143 C108 1.382 . S
C143 H120 0.951 . S
C143 C142 1.398 . S
C144 C145 1.384 . S
C144 H157 0.947 . S
C144 C179 1.382 . S
C145 C144 1.384 . S
C145 C146 1.378 . S
C146 C145 1.378 . S
C146 C147 1.378 . S
C146 H158 0.952 1_455 S
C147 C146 1.378 . S
C147 H159 0.950 . S
C147 C178 1.383 . S
H148 C167 0.947 . S
H149 C168 0.946 . S
H150 C170 0.953 1_545 S
H151 C171 0.945 1_545 S
H152 C173 0.952 . S
H153 C174 0.949 . S
H154 C176 0.950 . S
H155 C177 0.948 . S
H156 C179 0.951 . S
H157 C144 0.947 . S
H158 C146 0.952 1_655 S
H159 C147 0.950 . S
N160 C163 1.382 . S
N160 C165 1.363 . S
N161 C163 1.371 . S
N161 C164 1.372 . S
N162 C164 1.361 . S
N162 C165 1.377 . S
C163 N160 1.382 . S
C163 N161 1.371 . S
C163 C166 1.480 . S
C164 N161 1.372 . S
C164 N162 1.361 . S
C164 C172 1.457 . S
C165 N160 1.363 . S
C165 N162 1.377 . S
C165 C178 1.479 . S
C166 C163 1.480 . S
C166 C167 1.383 1_455 S
C166 C171 1.385 . S
C167 H148 0.947 . S
C167 C166 1.383 1_655 S
C167 C168 1.388 . S
C168 H149 0.946 . S
C168 C167 1.388 . S
C168 C169 1.384 . S
C169 C168 1.384 . S
C169 C170 1.377 . S
C170 H150 0.953 1_565 S
C170 C169 1.377 . S
C170 C171 1.369 1_655 S
C171 H151 0.945 1_565 S
C171 C166 1.385 . S
C171 C170 1.369 1_455 S
C172 C164 1.457 . S
C172 C173 1.372 1_565 S
C172 C177 1.364 . S
C173 H152 0.952 . S
C173 C172 1.372 1_545 S
C173 C174 1.389 . S
C174 H153 0.949 . S
C174 C173 1.389 . S
C174 C175 1.387 . S
C175 C174 1.387 . S
C175 C176 1.372 . S
C176 H154 0.950 . S
C176 C175 1.372 . S
C176 C177 1.379 1_545 S
C177 H155 0.948 . S
C177 C172 1.364 . S
C177 C176 1.379 1_565 S
C178 C147 1.383 . S
C178 C165 1.479 . S
C178 C179 1.398 . S
C179 C144 1.382 . S
C179 H156 0.951 . S
C179 C178 1.398 . S
C180 C181 1.384 . S
C180 H193 0.947 . S
C180 C215 1.382 . S
C181 C180 1.384 . S
C181 C182 1.378 . S
C182 C181 1.378 . S
C182 C183 1.378 . S
C182 H194 0.952 . S
C183 C182 1.378 . S
C183 H195 0.950 . S
C183 C214 1.383 . S
H184 C203 0.947 . S
H185 C204 0.946 . S
H186 C206 0.953 . S
H187 C207 0.945 . S
H188 C209 0.952 . S
H189 C210 0.949 . S
H190 C212 0.950 . S
H191 C213 0.948 . S
H192 C215 0.951 . S
H193 C180 0.947 . S
H194 C182 0.952 . S
H195 C183 0.950 . S
N196 C199 1.382 . S
N196 C201 1.363 . S
N197 C199 1.371 . S
N197 C200 1.372 . S
N198 C200 1.361 . S
N198 C201 1.377 . S
C199 N196 1.382 . S
C199 N197 1.371 . S
C199 C202 1.480 . S
C200 N197 1.372 . S
C200 N198 1.361 . S
C200 C208 1.457 . S
C201 N196 1.363 . S
C201 N198 1.377 . S
C201 C214 1.479 . S
C202 C199 1.480 . S
C202 C203 1.383 . S
C202 C207 1.385 . S
C203 H184 0.947 . S
C203 C202 1.383 . S
C203 C204 1.388 . S
C204 H185 0.946 . S
C204 C203 1.388 . S
C204 C205 1.384 . S
C205 C204 1.384 . S
C205 C206 1.377 . S
C206 H186 0.953 . S
C206 C205 1.377 . S
C206 C207 1.369 . S
C207 H187 0.945 . S
C207 C202 1.385 . S
C207 C206 1.369 . S
C208 C200 1.457 . S
C208 C209 1.372 . S
C208 C213 1.364 . S
C209 H188 0.952 . S
C209 C208 1.372 . S
C209 C210 1.389 . S
C210 H189 0.949 . S
C210 C209 1.389 . S
C210 C211 1.387 . S
C211 C210 1.387 . S
C211 C212 1.372 . S
C212 H190 0.950 . S
C212 C211 1.372 . S
C212 C213 1.379 . S
C213 H191 0.948 . S
C213 C208 1.364 . S
C213 C212 1.379 . S
C214 C183 1.383 . S
C214 C201 1.479 . S
C214 C215 1.398 . S
C215 C180 1.382 . S
C215 H192 0.951 . S
C215 C214 1.398 . S
C216 C217 1.384 1_455 S
C216 H229 0.947 . S
C216 C251 1.382 . S
C217 C216 1.384 1_655 S
C217 C218 1.378 . S
C218 C217 1.378 . S
C218 C219 1.378 . S
C218 H230 0.952 . S
C219 C218 1.378 . S
C219 H231 0.950 . S
C219 C250 1.383 . S
H220 C239 0.947 . S
H221 C240 0.946 . S
H222 C242 0.953 . S
H223 C243 0.945 . S
H224 C245 0.952 1_655 S
H225 C246 0.949 . S
H226 C248 0.950 . S
H227 C249 0.948 . S
H228 C251 0.951 . S
H229 C216 0.947 . S
H230 C218 0.952 . S
H231 C219 0.950 . S
N232 C235 1.382 . S
N232 C237 1.363 . S
N233 C235 1.371 . S
N233 C236 1.372 . S
N234 C236 1.361 . S
N234 C237 1.377 . S
C235 N232 1.382 . S
C235 N233 1.371 . S
C235 C238 1.480 . S
C236 N233 1.372 . S
C236 N234 1.361 . S
C236 C244 1.457 1_655 S
C237 N232 1.363 . S
C237 N234 1.377 . S
C237 C250 1.479 . S
C238 C235 1.480 . S
C238 C239 1.383 . S
C238 C243 1.385 . S
C239 H220 0.947 . S
C239 C238 1.383 . S
C239 C240 1.388 . S
C240 H221 0.946 . S
C240 C239 1.388 . S
C240 C241 1.384 . S
C241 C240 1.384 . S
C241 C242 1.377 . S
C242 H222 0.953 . S
C242 C241 1.377 . S
C242 C243 1.369 . S
C243 H223 0.945 . S
C243 C238 1.385 . S
C243 C242 1.369 . S
C244 C236 1.457 1_455 S
C244 C245 1.372 . S
C244 C249 1.364 . S
C245 H224 0.952 1_455 S
C245 C244 1.372 . S
C245 C246 1.389 . S
C246 H225 0.949 . S
C246 C245 1.389 . S
C246 C247 1.387 . S
C247 C246 1.387 . S
C247 C248 1.372 . S
C248 H226 0.950 . S
C248 C247 1.372 . S
C248 C249 1.379 . S
C249 H227 0.948 . S
C249 C244 1.364 . S
C249 C248 1.379 . S
C250 C219 1.383 . S
C250 C237 1.479 . S
C250 C251 1.398 1_655 S
C251 C216 1.382 . S
C251 H228 0.951 . S
C251 C250 1.398 1_455 S
C252 C253 1.384 . S
C252 H265 0.947 . S
C252 C287 1.382 . S
C253 C252 1.384 . S
C253 C254 1.378 . S
C254 C253 1.378 . S
C254 C255 1.378 . S
C254 H266 0.952 . S
C255 C254 1.378 . S
C255 H267 0.950 . S
C255 C286 1.383 . S
H256 C275 0.947 . S
H257 C276 0.946 . S
H258 C278 0.953 . S
H259 C279 0.945 . S
H260 C281 0.952 . S
H261 C282 0.949 . S
H262 C284 0.950 . S
H263 C285 0.948 . S
H264 C287 0.951 . S
H265 C252 0.947 . S
H266 C254 0.952 . S
H267 C255 0.950 . S
N268 C271 1.382 . S
N268 C273 1.363 . S
N269 C271 1.371 . S
N269 C272 1.372 . S
N270 C272 1.361 . S
N270 C273 1.377 . S
C271 N268 1.382 . S
C271 N269 1.371 . S
C271 C274 1.480 . S
C272 N269 1.372 . S
C272 N270 1.361 . S
C272 C280 1.457 . S
C273 N268 1.363 . S
C273 N270 1.377 . S
C273 C286 1.479 . S
C274 C271 1.480 . S
C274 C275 1.383 . S
C274 C279 1.385 . S
C275 H256 0.947 . S
C275 C274 1.383 . S
C275 C276 1.388 . S
C276 H257 0.946 . S
C276 C275 1.388 . S
C276 C277 1.384 . S
C277 C276 1.384 . S
C277 C278 1.377 . S
C278 H258 0.953 . S
C278 C277 1.377 . S
C278 C279 1.369 . S
C279 H259 0.945 . S
C279 C274 1.385 . S
C279 C278 1.369 . S
C280 C272 1.457 . S
C280 C281 1.372 . S
C280 C285 1.364 . S
C281 H260 0.952 . S
C281 C280 1.372 . S
C281 C282 1.389 . S
C282 H261 0.949 . S
C282 C281 1.389 . S
C282 C283 1.387 . S
C283 C282 1.387 . S
C283 C284 1.372 . S
C284 H262 0.950 . S
C284 C283 1.372 . S
C284 C285 1.379 . S
C285 H263 0.948 . S
C285 C280 1.364 . S
C285 C284 1.379 . S
C286 C255 1.383 . S
C286 C273 1.479 . S
C286 C287 1.398 . S
C287 C252 1.382 . S
C287 H264 0.951 . S
C287 C286 1.398 . S
C288 C289 1.384 . S
C288 H301 0.947 . S
C288 C323 1.382 . S
C289 C288 1.384 . S
C289 C290 1.378 . S
C290 C289 1.378 . S
C290 C291 1.378 . S
C290 H302 0.952 . S
C291 C290 1.378 . S
C291 H303 0.950 . S
C291 C322 1.383 . S
H292 C311 0.947 . S
H293 C312 0.946 . S
H294 C314 0.953 . S
H295 C315 0.945 . S
H296 C317 0.952 . S
H297 C318 0.949 . S
H298 C320 0.950 . S
H299 C321 0.948 . S
H300 C323 0.951 . S
H301 C288 0.947 . S
H302 C290 0.952 . S
H303 C291 0.950 . S
N304 C307 1.382 . S
N304 C309 1.363 . S
N305 C307 1.371 . S
N305 C308 1.372 . S
N306 C308 1.361 . S
N306 C309 1.377 . S
C307 N304 1.382 . S
C307 N305 1.371 . S
C307 C310 1.480 . S
C308 N305 1.372 . S
C308 N306 1.361 . S
C308 C316 1.457 . S
C309 N304 1.363 . S
C309 N306 1.377 . S
C309 C322 1.479 . S
C310 C307 1.480 . S
C310 C311 1.383 . S
C310 C315 1.385 . S
C311 H292 0.947 . S
C311 C310 1.383 . S
C311 C312 1.388 . S
C312 H293 0.946 . S
C312 C311 1.388 . S
C312 C313 1.384 . S
C313 C312 1.384 . S
C313 C314 1.377 . S
C314 H294 0.953 . S
C314 C313 1.377 . S
C314 C315 1.369 . S
C315 H295 0.945 . S
C315 C310 1.385 . S
C315 C314 1.369 . S
C316 C308 1.457 . S
C316 C317 1.372 . S
C316 C321 1.364 . S
C317 H296 0.952 . S
C317 C316 1.372 . S
C317 C318 1.389 . S
C318 H297 0.949 . S
C318 C317 1.389 . S
C318 C319 1.387 . S
C319 C318 1.387 . S
C319 C320 1.372 . S
C320 H298 0.950 . S
C320 C319 1.372 . S
C320 C321 1.379 . S
C321 H299 0.948 . S
C321 C316 1.364 . S
C321 C320 1.379 . S
C322 C291 1.383 . S
C322 C309 1.479 . S
C322 C323 1.398 . S
C323 C288 1.382 . S
C323 H300 0.951 . S
C323 C322 1.398 . S
C324 C325 1.384 . S
C324 H337 0.947 . S
C324 C359 1.382 . S
C325 C324 1.384 . S
C325 C326 1.378 . S
C326 C325 1.378 . S
C326 C327 1.378 . S
C326 H338 0.952 . S
C327 C326 1.378 . S
C327 H339 0.950 . S
C327 C358 1.383 . S
H328 C347 0.947 1_565 S
H329 C348 0.946 . S
H330 C350 0.953 . S
H331 C351 0.945 . S
H332 C353 0.952 . S
H333 C354 0.949 . S
H334 C356 0.950 . S
H335 C357 0.948 . S
H336 C359 0.951 . S
H337 C324 0.947 . S
H338 C326 0.952 . S
H339 C327 0.950 . S
N340 C343 1.382 . S
N340 C345 1.363 . S
N341 C343 1.371 . S
N341 C344 1.372 . S
N342 C344 1.361 . S
N342 C345 1.377 . S
C343 N340 1.382 . S
C343 N341 1.371 . S
C343 C346 1.480 1_565 S
C344 N341 1.372 . S
C344 N342 1.361 . S
C344 C352 1.457 . S
C345 N340 1.363 . S
C345 N342 1.377 . S
C345 C358 1.479 . S
C346 C343 1.480 1_545 S
C346 C347 1.383 . S
C346 C351 1.385 . S
C347 H328 0.947 1_545 S
C347 C346 1.383 . S
C347 C348 1.388 . S
C348 H329 0.946 . S
C348 C347 1.388 . S
C348 C349 1.384 . S
C349 C348 1.384 . S
C349 C350 1.377 . S
C350 H330 0.953 . S
C350 C349 1.377 . S
C350 C351 1.369 . S
C351 H331 0.945 . S
C351 C346 1.385 . S
C351 C350 1.369 . S
C352 C344 1.457 . S
C352 C353 1.372 1_565 S
C352 C357 1.364 . S
C353 H332 0.952 . S
C353 C352 1.372 1_545 S
C353 C354 1.389 . S
C354 H333 0.949 . S
C354 C353 1.389 . S
C354 C355 1.387 1_545 S
C355 C354 1.387 1_565 S
C355 C356 1.372 . S
C356 H334 0.950 . S
C356 C355 1.372 . S
C356 C357 1.379 . S
C357 H335 0.948 . S
C357 C352 1.364 . S
C357 C356 1.379 . S
C358 C327 1.383 . S
C358 C345 1.479 . S
C358 C359 1.398 . S
C359 C324 1.382 . S
C359 H336 0.951 . S
C359 C358 1.398 . S
C360 C361 1.384 . S
C360 H373 0.947 . S
C360 C395 1.382 . S
C361 C360 1.384 . S
C361 C362 1.378 . S
C362 C361 1.378 . S
C362 C363 1.378 . S
C362 H374 0.952 . S
C363 C362 1.378 . S
C363 H375 0.950 . S
C363 C394 1.383 . S
H364 C383 0.947 . S
H365 C384 0.946 . S
H366 C386 0.953 . S
H367 C387 0.945 . S
H368 C389 0.952 . S
H369 C390 0.949 . S
H370 C392 0.950 . S
H371 C393 0.948 . S
H372 C395 0.951 . S
H373 C360 0.947 . S
H374 C362 0.952 . S
H375 C363 0.950 . S
N376 C379 1.382 . S
N376 C381 1.363 . S
N377 C379 1.371 . S
N377 C380 1.372 . S
N378 C380 1.361 . S
N378 C381 1.377 . S
C379 N376 1.382 . S
C379 N377 1.371 . S
C379 C382 1.480 . S
C380 N377 1.372 . S
C380 N378 1.361 . S
C380 C388 1.457 . S
C381 N376 1.363 . S
C381 N378 1.377 . S
C381 C394 1.479 . S
C382 C379 1.480 . S
C382 C383 1.383 . S
C382 C387 1.385 . S
C383 H364 0.947 . S
C383 C382 1.383 . S
C383 C384 1.388 . S
C384 H365 0.946 . S
C384 C383 1.388 . S
C384 C385 1.384 . S
C385 C384 1.384 . S
C385 C386 1.377 . S
C386 H366 0.953 . S
C386 C385 1.377 . S
C386 C387 1.369 . S
C387 H367 0.945 . S
C387 C382 1.385 . S
C387 C386 1.369 . S
C388 C380 1.457 . S
C388 C389 1.372 . S
C388 C393 1.364 . S
C389 H368 0.952 . S
C389 C388 1.372 . S
C389 C390 1.389 . S
C390 H369 0.949 . S
C390 C389 1.389 . S
C390 C391 1.387 . S
C391 C390 1.387 . S
C391 C392 1.372 . S
C392 H370 0.950 . S
C392 C391 1.372 . S
C392 C393 1.379 . S
C393 H371 0.948 . S
C393 C388 1.364 . S
C393 C392 1.379 . S
C394 C363 1.383 . S
C394 C381 1.479 . S
C394 C395 1.398 . S
C395 C360 1.382 . S
C395 H372 0.951 . S
C395 C394 1.398 . S
C396 C397 1.384 . S
C396 H409 0.947 . S
C396 C431 1.382 . S
C397 C396 1.384 . S
C397 C398 1.378 . S
C398 C397 1.378 . S
C398 C399 1.378 . S
C398 H410 0.952 . S
C399 C398 1.378 . S
C399 H411 0.950 . S
C399 C430 1.383 . S
H400 C419 0.947 . S
H401 C420 0.946 . S
H402 C422 0.953 . S
H403 C423 0.945 . S
H404 C425 0.952 . S
H405 C426 0.949 . S
H406 C428 0.950 . S
H407 C429 0.948 . S
H408 C431 0.951 . S
H409 C396 0.947 . S
H410 C398 0.952 . S
H411 C399 0.950 . S
N412 C415 1.382 . S
N412 C417 1.363 . S
N413 C415 1.371 . S
N413 C416 1.372 . S
N414 C416 1.361 . S
N414 C417 1.377 . S
C415 N412 1.382 . S
C415 N413 1.371 . S
C415 C418 1.480 . S
C416 N413 1.372 . S
C416 N414 1.361 . S
C416 C424 1.457 . S
C417 N412 1.363 . S
C417 N414 1.377 . S
C417 C430 1.479 . S
C418 C415 1.480 . S
C418 C419 1.383 . S
C418 C423 1.385 . S
C419 H400 0.947 . S
C419 C418 1.383 . S
C419 C420 1.388 . S
C420 H401 0.946 . S
C420 C419 1.388 . S
C420 C421 1.384 . S
C421 C420 1.384 . S
C421 C422 1.377 . S
C422 H402 0.953 . S
C422 C421 1.377 . S
C422 C423 1.369 . S
C423 H403 0.945 . S
C423 C418 1.385 . S
C423 C422 1.369 . S
C424 C416 1.457 . S
C424 C425 1.372 . S
C424 C429 1.364 . S
C425 H404 0.952 . S
C425 C424 1.372 . S
C425 C426 1.389 . S
C426 H405 0.949 . S
C426 C425 1.389 . S
C426 C427 1.387 . S
C427 C426 1.387 . S
C427 C428 1.372 . S
C428 H406 0.950 . S
C428 C427 1.372 . S
C428 C429 1.379 . S
C429 H407 0.948 . S
C429 C424 1.364 . S
C429 C428 1.379 . S
C430 C399 1.383 . S
C430 C417 1.479 . S
C430 C431 1.398 . S
C431 C396 1.382 . S
C431 H408 0.951 . S
C431 C430 1.398 . S
C432 C433 1.384 . S
C432 H445 0.947 . S
C432 C467 1.382 . S
C433 C432 1.384 . S
C433 C434 1.378 . S
C434 C433 1.378 . S
C434 C435 1.378 . S
C434 H446 0.952 . S
C435 C434 1.378 . S
C435 H447 0.950 . S
C435 C466 1.383 . S
H436 C455 0.947 . S
H437 C456 0.946 . S
H438 C458 0.953 . S
H439 C459 0.945 . S
H440 C461 0.952 . S
H441 C462 0.949 . S
H442 C464 0.950 . S
H443 C465 0.948 . S
H444 C467 0.951 . S
H445 C432 0.947 . S
H446 C434 0.952 . S
H447 C435 0.950 . S
N448 C451 1.382 . S
N448 C453 1.363 . S
N449 C451 1.371 . S
N449 C452 1.372 . S
N450 C452 1.361 . S
N450 C453 1.377 . S
C451 N448 1.382 . S
C451 N449 1.371 . S
C451 C454 1.480 . S
C452 N449 1.372 . S
C452 N450 1.361 . S
C452 C460 1.457 . S
C453 N448 1.363 . S
C453 N450 1.377 . S
C453 C466 1.479 . S
C454 C451 1.480 . S
C454 C455 1.383 . S
C454 C459 1.385 . S
C455 H436 0.947 . S
C455 C454 1.383 . S
C455 C456 1.388 . S
C456 H437 0.946 . S
C456 C455 1.388 . S
C456 C457 1.384 . S
C457 C456 1.384 . S
C457 C458 1.377 . S
C458 H438 0.953 . S
C458 C457 1.377 . S
C458 C459 1.369 . S
C459 H439 0.945 . S
C459 C454 1.385 . S
C459 C458 1.369 . S
C460 C452 1.457 . S
C460 C461 1.372 . S
C460 C465 1.364 . S
C461 H440 0.952 . S
C461 C460 1.372 . S
C461 C462 1.389 . S
C462 H441 0.949 . S
C462 C461 1.389 . S
C462 C463 1.387 . S
C463 C462 1.387 . S
C463 C464 1.372 . S
C464 H442 0.950 . S
C464 C463 1.372 . S
C464 C465 1.379 . S
C465 H443 0.948 . S
C465 C460 1.364 . S
C465 C464 1.379 . S
C466 C435 1.383 . S
C466 C453 1.479 . S
C466 C467 1.398 . S
C467 C432 1.382 . S
C467 H444 0.951 . S
C467 C466 1.398 . S
C468 C469 1.384 . S
C468 H481 0.947 . S
C468 C503 1.382 . S
C469 C468 1.384 . S
C469 C470 1.378 . S
C470 C469 1.378 . S
C470 C471 1.378 1_554 S
C470 H482 0.952 . S
C471 C470 1.378 1_556 S
C471 H483 0.950 . S
C471 C502 1.383 1_556 S
H472 C491 0.947 . S
H473 C492 0.946 . S
H474 C494 0.953 . S
H475 C495 0.945 . S
H476 C497 0.952 . S
H477 C498 0.949 . S
H478 C500 0.950 . S
H479 C501 0.948 1_554 S
H480 C503 0.951 . S
H481 C468 0.947 . S
H482 C470 0.952 . S
H483 C471 0.950 . S
N484 C487 1.382 . S
N484 C489 1.363 . S
N485 C487 1.371 . S
N485 C488 1.372 . S
N486 C488 1.361 . S
N486 C489 1.377 . S
C487 N484 1.382 . S
C487 N485 1.371 . S
C487 C490 1.480 . S
C488 N485 1.372 . S
C488 N486 1.361 . S
C488 C496 1.457 . S
C489 N484 1.363 . S
C489 N486 1.377 . S
C489 C502 1.479 1_556 S
C490 C487 1.480 . S
C490 C491 1.383 . S
C490 C495 1.385 . S
C491 H472 0.947 . S
C491 C490 1.383 . S
C491 C492 1.388 . S
C492 H473 0.946 . S
C492 C491 1.388 . S
C492 C493 1.384 . S
C493 C492 1.384 . S
C493 C494 1.377 . S
C494 H474 0.953 . S
C494 C493 1.377 . S
C494 C495 1.369 . S
C495 H475 0.945 . S
C495 C490 1.385 . S
C495 C494 1.369 . S
C496 C488 1.457 . S
C496 C497 1.372 . S
C496 C501 1.364 . S
C497 H476 0.952 . S
C497 C496 1.372 . S
C497 C498 1.389 . S
C498 H477 0.949 . S
C498 C497 1.389 . S
C498 C499 1.387 . S
C499 C498 1.387 . S
C499 C500 1.372 1_556 S
C500 H478 0.950 . S
C500 C499 1.372 1_554 S
C500 C501 1.379 1_554 S
C501 H479 0.948 1_556 S
C501 C496 1.364 . S
C501 C500 1.379 1_556 S
C502 C471 1.383 1_554 S
C502 C489 1.479 1_554 S
C502 C503 1.398 . S
C503 C468 1.382 . S
C503 H480 0.951 . S
C503 C502 1.398 . S
C504 C505 1.384 . S
C504 H517 0.947 . S
C504 C539 1.382 . S
C505 C504 1.384 . S
C505 C506 1.378 . S
C506 C505 1.378 . S
C506 C507 1.378 . S
C506 H518 0.952 . S
C507 C506 1.378 . S
C507 H519 0.950 . S
C507 C538 1.383 . S
H508 C527 0.947 . S
H509 C528 0.946 . S
H510 C530 0.953 . S
H511 C531 0.945 . S
H512 C533 0.952 . S
H513 C534 0.949 . S
H514 C536 0.950 . S
H515 C537 0.948 . S
H516 C539 0.951 . S
H517 C504 0.947 . S
H518 C506 0.952 . S
H519 C507 0.950 . S
N520 C523 1.382 . S
N520 C525 1.363 . S
N521 C523 1.371 . S
N521 C524 1.372 . S
N522 C524 1.361 . S
N522 C525 1.377 . S
C523 N520 1.382 . S
C523 N521 1.371 . S
C523 C526 1.480 . S
C524 N521 1.372 . S
C524 N522 1.361 . S
C524 C532 1.457 . S
C525 N520 1.363 . S
C525 N522 1.377 . S
C525 C538 1.479 . S
C526 C523 1.480 . S
C526 C527 1.383 . S
C526 C531 1.385 . S
C527 H508 0.947 . S
C527 C526 1.383 . S
C527 C528 1.388 . S
C528 H509 0.946 . S
C528 C527 1.388 . S
C528 C529 1.384 . S
C529 C528 1.384 . S
C529 C530 1.377 . S
C530 H510 0.953 . S
C530 C529 1.377 . S
C530 C531 1.369 . S
C531 H511 0.945 . S
C531 C526 1.385 . S
C531 C530 1.369 . S
C532 C524 1.457 . S
C532 C533 1.372 . S
C532 C537 1.364 . S
C533 H512 0.952 . S
C533 C532 1.372 . S
C533 C534 1.389 . S
C534 H513 0.949 . S
C534 C533 1.389 . S
C534 C535 1.387 . S
C535 C534 1.387 . S
C535 C536 1.372 . S
C536 H514 0.950 . S
C536 C535 1.372 . S
C536 C537 1.379 . S
C537 H515 0.948 . S
C537 C532 1.364 . S
C537 C536 1.379 . S
C538 C507 1.383 . S
C538 C525 1.479 . S
C538 C539 1.398 . S
C539 C504 1.382 . S
C539 H516 0.951 . S
C539 C538 1.398 . S
C540 C541 1.384 . S
C540 H553 0.947 . S
C540 C575 1.382 1_554 S
C541 C540 1.384 . S
C541 C542 1.378 . S
C542 C541 1.378 . S
C542 C543 1.378 . S
C542 H554 0.952 . S
C543 C542 1.378 . S
C543 H555 0.950 . S
C543 C574 1.383 . S
H544 C563 0.947 1_554 S
H545 C564 0.946 1_554 S
H546 C566 0.953 . S
H547 C567 0.945 . S
H548 C569 0.952 . S
H549 C570 0.949 1_565 S
H550 C572 0.950 . S
H551 C573 0.948 . S
H552 C575 0.951 . S
H553 C540 0.947 . S
H554 C542 0.952 . S
H555 C543 0.950 . S
N556 C559 1.382 . S
N556 C561 1.363 . S
N557 C559 1.371 . S
N557 C560 1.372 . S
N558 C560 1.361 . S
N558 C561 1.377 . S
C559 N556 1.382 . S
C559 N557 1.371 . S
C559 C562 1.480 . S
C560 N557 1.372 . S
C560 N558 1.361 . S
C560 C568 1.457 . S
C561 N556 1.363 . S
C561 N558 1.377 . S
C561 C574 1.479 1_556 S
C562 C559 1.480 . S
C562 C563 1.383 . S
C562 C567 1.385 1_545 S
C563 H544 0.947 1_556 S
C563 C562 1.383 . S
C563 C564 1.388 1_545 S
C564 H545 0.946 1_556 S
C564 C563 1.388 1_565 S
C564 C565 1.384 . S
C565 C564 1.384 . S
C565 C566 1.377 . S
C566 H546 0.953 . S
C566 C565 1.377 . S
C566 C567 1.369 . S
C567 H547 0.945 . S
C567 C562 1.385 1_565 S
C567 C566 1.369 . S
C568 C560 1.457 . S
C568 C569 1.372 . S
C568 C573 1.364 . S
C569 H548 0.952 . S
C569 C568 1.372 . S
C569 C570 1.389 . S
C570 H549 0.949 1_545 S
C570 C569 1.389 . S
C570 C571 1.387 . S
C571 C570 1.387 . S
C571 C572 1.372 . S
C572 H550 0.950 . S
C572 C571 1.372 . S
C572 C573 1.379 . S
C573 H551 0.948 . S
C573 C568 1.364 . S
C573 C572 1.379 . S
C574 C543 1.383 . S
C574 C561 1.479 1_554 S
C574 C575 1.398 1_554 S
C575 C540 1.382 1_556 S
C575 H552 0.951 . S
C575 C574 1.398 1_556 S
Zn576 O579 2.032 . S
Zn576 O581 2.049 1_554 S
Zn576 O586 2.066 1_554 S
Zn577 O578 1.962 . S
Zn577 O580 1.986 . S
Zn577 O582 1.996 . S
Zn577 O585 1.943 1_554 S
O578 Zn577 1.962 . S
O578 C583 1.254 . S
O579 Zn576 2.032 . S
O579 C583 1.269 . S
O580 Zn577 1.986 . S
O580 C587 1.262 . S
O581 Zn576 2.049 1_556 S
O581 C589 1.260 . S
O582 Zn577 1.996 . S
O582 C589 1.257 1_554 S
C583 O578 1.254 . S
C583 O579 1.269 . S
C584 O585 1.249 . S
C584 O586 1.270 . S
O585 Zn577 1.943 1_556 S
O585 C584 1.249 . S
O586 Zn576 2.066 1_556 S
O586 C584 1.270 . S
C587 O580 1.262 . S
C587 O588 1.232 . S
O588 C587 1.232 . S
C589 O581 1.260 . S
C589 O582 1.257 1_556 S
Zn590 O593 2.031 . S
Zn590 O595 2.049 . S
Zn590 O600 2.067 . S
Zn591 O592 1.962 . S
Zn591 O594 1.986 . S
Zn591 O596 1.996 . S
Zn591 O599 1.943 . S
O592 Zn591 1.962 . S
O592 C597 1.254 . S
O593 Zn590 2.031 . S
O593 C597 1.269 . S
O594 Zn591 1.986 . S
O594 C601 1.262 . S
O595 Zn590 2.049 . S
O595 C603 1.260 . S
O596 Zn591 1.996 . S
O596 C603 1.257 . S
C597 O592 1.254 . S
C597 O593 1.269 . S
C598 O599 1.249 . S
C598 O600 1.270 . S
O599 Zn591 1.943 . S
O599 C598 1.249 . S
O600 Zn590 2.067 . S
O600 C598 1.270 . S
C601 O594 1.262 . S
C601 O602 1.232 . S
O602 C601 1.232 . S
C603 O595 1.260 . S
C603 O596 1.257 . S
Zn604 O607 2.031 . S
Zn604 O609 2.049 . S
Zn604 O614 2.067 . S
Zn605 O606 1.962 . S
Zn605 O608 1.986 . S
Zn605 O610 1.996 1_554 S
Zn605 O613 1.943 . S
O606 Zn605 1.962 . S
O606 C611 1.254 . S
O607 Zn604 2.031 . S
O607 C611 1.269 1_556 S
O608 Zn605 1.986 . S
O608 C615 1.262 . S
O609 Zn604 2.049 . S
O609 C617 1.260 . S
O610 Zn605 1.996 1_556 S
O610 C617 1.257 . S
C611 O606 1.254 . S
C611 O607 1.269 1_554 S
C612 O613 1.249 1_556 S
C612 O614 1.270 . S
O613 Zn605 1.943 . S
O613 C612 1.249 1_554 S
O614 Zn604 2.067 . S
O614 C612 1.270 . S
C615 O608 1.262 . S
C615 O616 1.232 . S
O616 C615 1.232 . S
C617 O609 1.260 . S
C617 O610 1.257 . S
Zn618 O621 2.025 1_565 S
Zn618 O623 2.054 . S
Zn618 O628 2.076 . S
Zn619 O620 1.962 . S
Zn619 O622 1.986 . S
Zn619 O624 1.996 . S
Zn619 O627 1.943 1_545 S
O620 Zn619 1.962 . S
O620 C625 1.254 . S
O621 Zn618 2.025 1_545 S
O621 C625 1.269 . S
O622 Zn619 1.986 . S
O622 C629 1.262 . S
O623 Zn618 2.054 . S
O623 C631 1.260 . S
O624 Zn619 1.996 . S
O624 C631 1.257 1_545 S
C625 O620 1.254 . S
C625 O621 1.269 . S
C626 O627 1.249 . S
C626 O628 1.270 . S
O627 Zn619 1.943 1_565 S
O627 C626 1.249 . S
O628 Zn618 2.076 . S
O628 C626 1.270 . S
C629 O622 1.262 . S
C629 O630 1.232 . S
O630 C629 1.232 . S
C631 O623 1.260 . S
C631 O624 1.257 1_565 S
Zn632 O635 2.031 . S
Zn632 O637 2.049 . S
Zn632 O642 2.067 . S
Zn633 O634 1.962 . S
Zn633 O636 1.986 . S
Zn633 O638 1.996 . S
Zn633 O641 1.943 . S
O634 Zn633 1.962 . S
O634 C639 1.254 . S
O635 Zn632 2.031 . S
O635 C639 1.269 . S
O636 Zn633 1.986 . S
O636 C643 1.262 . S
O637 Zn632 2.049 . S
O637 C645 1.260 . S
O638 Zn633 1.996 . S
O638 C645 1.257 . S
C639 O634 1.254 . S
C639 O635 1.269 . S
C640 O641 1.249 . S
C640 O642 1.270 . S
O641 Zn633 1.943 . S
O641 C640 1.249 . S
O642 Zn632 2.067 . S
O642 C640 1.270 . S
C643 O636 1.262 . S
C643 O644 1.232 . S
O644 C643 1.232 . S
C645 O637 1.260 . S
C645 O638 1.257 . S
Zn646 O649 2.031 . S
Zn646 O651 2.049 . S
Zn646 O656 2.067 . S
Zn647 O648 1.962 . S
Zn647 O650 1.986 . S
Zn647 O652 1.996 . S
Zn647 O655 1.943 . S
O648 Zn647 1.962 . S
O648 C653 1.254 . S
O649 Zn646 2.031 . S
O649 C653 1.269 . S
O650 Zn647 1.986 . S
O650 C657 1.262 . S
O651 Zn646 2.049 . S
O651 C659 1.260 . S
O652 Zn647 1.996 . S
O652 C659 1.257 . S
C653 O648 1.254 . S
C653 O649 1.269 . S
C654 O655 1.249 . S
C654 O656 1.270 . S
O655 Zn647 1.943 . S
O655 C654 1.249 . S
O656 Zn646 2.067 . S
O656 C654 1.270 . S
C657 O650 1.262 . S
C657 O658 1.232 . S
O658 C657 1.232 . S
C659 O651 1.260 . S
C659 O652 1.257 . S
Zn660 O663 2.031 . S
Zn660 O665 2.049 . S
Zn660 O670 2.067 . S
Zn661 O662 1.962 . S
Zn661 O664 1.986 . S
Zn661 O666 1.996 . S
Zn661 O669 1.943 . S
O662 Zn661 1.962 . S
O662 C667 1.254 . S
O663 Zn660 2.031 . S
O663 C667 1.269 . S
O664 Zn661 1.986 . S
O664 C671 1.262 . S
O665 Zn660 2.049 . S
O665 C673 1.260 . S
O666 Zn661 1.996 . S
O666 C673 1.257 . S
C667 O662 1.254 . S
C667 O663 1.269 . S
C668 O669 1.249 . S
C668 O670 1.270 . S
O669 Zn661 1.943 . S
O669 C668 1.249 . S
O670 Zn660 2.067 . S
O670 C668 1.270 . S
C671 O664 1.262 . S
C671 O672 1.232 . S
O672 C671 1.232 . S
C673 O665 1.260 . S
C673 O666 1.257 . S
Zn674 O677 2.031 . S
Zn674 O679 2.049 . S
Zn674 O684 2.067 . S
Zn675 O676 1.962 . S
Zn675 O678 1.986 . S
Zn675 O680 1.996 1_545 S
Zn675 O683 1.943 . S
O676 Zn675 1.962 . S
O676 C681 1.254 . S
O677 Zn674 2.031 . S
O677 C681 1.269 1_565 S
O678 Zn675 1.986 . S
O678 C685 1.262 . S
O679 Zn674 2.049 . S
O679 C687 1.260 . S
O680 Zn675 1.996 1_565 S
O680 C687 1.257 . S
C681 O676 1.254 . S
C681 O677 1.269 1_545 S
C682 O683 1.249 1_565 S
C682 O684 1.270 . S
O683 Zn675 1.943 . S
O683 C682 1.249 1_545 S
O684 Zn674 2.067 . S
O684 C682 1.270 . S
C685 O678 1.262 . S
C685 O686 1.232 . S
O686 C685 1.232 . S
C687 O679 1.260 . S
C687 O680 1.257 . S
Zn688 O691 2.014 1_655 S
Zn688 O693 2.062 . S
Zn688 O698 2.091 . S
Zn689 O690 1.962 . S
Zn689 O692 1.986 . S
Zn689 O694 1.996 . S
Zn689 O697 1.943 1_455 S
O690 Zn689 1.962 . S
O690 C695 1.254 . S
O691 Zn688 2.014 1_455 S
O691 C695 1.269 . S
O692 Zn689 1.986 . S
O692 C699 1.262 . S
O693 Zn688 2.062 . S
O693 C701 1.260 . S
O694 Zn689 1.996 . S
O694 C701 1.257 1_455 S
C695 O690 1.254 . S
C695 O691 1.269 . S
C696 O697 1.249 . S
C696 O698 1.270 . S
O697 Zn689 1.943 1_655 S
O697 C696 1.249 . S
O698 Zn688 2.091 . S
O698 C696 1.270 . S
C699 O692 1.262 . S
C699 O700 1.232 . S
O700 C699 1.232 . S
C701 O693 1.260 . S
C701 O694 1.257 1_655 S
Zn702 O705 2.031 . S
Zn702 O707 2.049 . S
Zn702 O712 2.067 . S
Zn703 O704 1.962 . S
Zn703 O706 1.986 . S
Zn703 O708 1.996 . S
Zn703 O711 1.943 . S
O704 Zn703 1.962 . S
O704 C709 1.254 . S
O705 Zn702 2.031 . S
O705 C709 1.269 . S
O706 Zn703 1.986 . S
O706 C713 1.262 . S
O707 Zn702 2.049 . S
O707 C715 1.260 . S
O708 Zn703 1.996 . S
O708 C715 1.257 . S
C709 O704 1.254 . S
C709 O705 1.269 . S
C710 O711 1.249 . S
C710 O712 1.270 . S
O711 Zn703 1.943 . S
O711 C710 1.249 . S
O712 Zn702 2.067 . S
O712 C710 1.270 . S
C713 O706 1.262 . S
C713 O714 1.232 . S
O714 C713 1.232 . S
C715 O707 1.260 . S
C715 O708 1.257 . S
Zn716 O719 2.031 . S
Zn716 O721 2.049 . S
Zn716 O726 2.067 . S
Zn717 O718 1.962 . S
Zn717 O720 1.986 . S
Zn717 O722 1.996 1_455 S
Zn717 O725 1.943 . S
O718 Zn717 1.962 . S
O718 C723 1.254 . S
O719 Zn716 2.031 . S
O719 C723 1.269 1_655 S
O720 Zn717 1.986 . S
O720 C727 1.262 . S
O721 Zn716 2.049 . S
O721 C729 1.260 . S
O722 Zn717 1.996 1_655 S
O722 C729 1.257 . S
C723 O718 1.254 . S
C723 O719 1.269 1_455 S
C724 O725 1.249 1_655 S
C724 O726 1.270 . S
O725 Zn717 1.943 . S
O725 C724 1.249 1_455 S
O726 Zn716 2.067 . S
O726 C724 1.270 . S
C727 O720 1.262 . S
C727 O728 1.232 . S
O728 C727 1.232 . S
C729 O721 1.260 . S
C729 O722 1.257 . S
Zn730 O733 2.031 . S
Zn730 O735 2.049 . S
Zn730 O740 2.067 . S
Zn731 O732 1.962 . S
Zn731 O734 1.986 . S
Zn731 O736 1.996 . S
Zn731 O739 1.943 . S
O732 Zn731 1.962 . S
O732 C737 1.254 . S
O733 Zn730 2.031 . S
O733 C737 1.269 . S
O734 Zn731 1.986 . S
O734 C741 1.262 . S
O735 Zn730 2.049 . S
O735 C743 1.260 . S
O736 Zn731 1.996 . S
O736 C743 1.257 . S
C737 O732 1.254 . S
C737 O733 1.269 . S
C738 O739 1.249 . S
C738 O740 1.270 . S
O739 Zn731 1.943 . S
O739 C738 1.249 . S
O740 Zn730 2.067 . S
O740 C738 1.270 . S
C741 O734 1.262 . S
C741 O742 1.232 . S
O742 C741 1.232 . S
C743 O735 1.260 . S
C743 O736 1.257 . S
C584 C181 1.525 . S
C597 C247 1.514 . S
C283 C617 1.574 . S
C631 C169 1.585 . S
C643 C361 1.533 . S
C657 C433 1.432 . S
C421 C667 1.459 . S
C682 C355 1.575 . S
C427 C696 1.560 . S
C715 C325 1.463 . S
C385 C695 1.463 . S
C713 C463 1.430 . S
C253 C729 1.590 . S
C145 C723 1.558 . S
C205 C727 1.518 . S
C217 C724 1.559 . S
C139 C626 1.560 . S
C535 C625 1.460 . S
C589 C565 1.423 . S
C603 C313 1.559 . S
C175 C640 1.626 . S
C685 C397 1.525 . S
C639 C349 1.520 . S
C671 C457 1.441 . S
C668 C505 1.525 . S
C571 C681 1.514 . S
C319 C645 1.574 . S
C659 C493 1.585 . S
C109 C615 1.533 . S
C629 C1 1.432 . S
C583 C61 1.459 . S
C598 C103 1.575 . S
C67 C710 1.560 . S
C73 C701 1.463 . S
C133 C709 1.463 . S
C31 C699 1.431 . S
C743 C289 1.590 . S
C737 C469 1.558 . S
C741 C529 1.518 . S
C541 C738 1.559 . S
C391 C654 1.560 . S
C653 C211 1.460 . S
C673 C241 1.423 . S
C687 C277 1.559 . S
C499 C612 1.626 . S
C601 C37 1.525 . S
C97 C611 1.520 . S
C587 C25 1.441 . S
