# Generated by pormake.
# Topology ctn, (3,4)-cn, num edge types: 1
# Building blocks:
#     Node 0, Type 0, BuildingBlock: BETDIP_clean_linker_0, # of connection points: 3
#     Node 1, Type 0, BuildingBlock: BETDIP_clean_linker_0, # of connection points: 3
#     Node 2, Type 0, BuildingBlock: BETDIP_clean_linker_0, # of connection points: 3
#     Node 3, Type 0, BuildingBlock: BETDIP_clean_linker_0, # of connection points: 3
#     Node 4, Type 0, BuildingBlock: BETDIP_clean_linker_0, # of connection points: 3
#     Node 5, Type 0, BuildingBlock: BETDIP_clean_linker_0, # of connection points: 3
#     Node 6, Type 0, BuildingBlock: BETDIP_clean_linker_0, # of connection points: 3
#     Node 7, Type 0, BuildingBlock: BETDIP_clean_linker_0, # of connection points: 3
#     Node 8, Type 0, BuildingBlock: BETDIP_clean_linker_0, # of connection points: 3
#     Node 9, Type 0, BuildingBlock: BETDIP_clean_linker_0, # of connection points: 3
#     Node 10, Type 0, BuildingBlock: BETDIP_clean_linker_0, # of connection points: 3
#     Node 11, Type 0, BuildingBlock: BETDIP_clean_linker_0, # of connection points: 3
#     Node 12, Type 0, BuildingBlock: BETDIP_clean_linker_0, # of connection points: 3
#     Node 13, Type 0, BuildingBlock: BETDIP_clean_linker_0, # of connection points: 3
#     Node 14, Type 0, BuildingBlock: BETDIP_clean_linker_0, # of connection points: 3
#     Node 15, Type 0, BuildingBlock: BETDIP_clean_linker_0, # of connection points: 3
#     Node 16, Type 1, BuildingBlock: UXUYUI_clean_sbu_0, # of connection points: 4
#     Node 17, Type 1, BuildingBlock: UXUYUI_clean_sbu_0, # of connection points: 4
#     Node 18, Type 1, BuildingBlock: UXUYUI_clean_sbu_0, # of connection points: 4
#     Node 19, Type 1, BuildingBlock: UXUYUI_clean_sbu_0, # of connection points: 4
#     Node 20, Type 1, BuildingBlock: UXUYUI_clean_sbu_0, # of connection points: 4
#     Node 21, Type 1, BuildingBlock: UXUYUI_clean_sbu_0, # of connection points: 4
#     Node 22, Type 1, BuildingBlock: UXUYUI_clean_sbu_0, # of connection points: 4
#     Node 23, Type 1, BuildingBlock: UXUYUI_clean_sbu_0, # of connection points: 4
#     Node 24, Type 1, BuildingBlock: UXUYUI_clean_sbu_0, # of connection points: 4
#     Node 25, Type 1, BuildingBlock: UXUYUI_clean_sbu_0, # of connection points: 4
#     Node 26, Type 1, BuildingBlock: UXUYUI_clean_sbu_0, # of connection points: 4
#     Node 27, Type 1, BuildingBlock: UXUYUI_clean_sbu_0, # of connection points: 4
#     Edge 28, Type (0, 1), BuildingBlock: CIFDUS_clean_linker_0, # of connection points: 2
#     Edge 29, Type (0, 1), BuildingBlock: CIFDUS_clean_linker_0, # of connection points: 2
#     Edge 30, Type (0, 1), BuildingBlock: CIFDUS_clean_linker_0, # of connection points: 2
#     Edge 31, Type (0, 1), BuildingBlock: CIFDUS_clean_linker_0, # of connection points: 2
#     Edge 32, Type (0, 1), BuildingBlock: CIFDUS_clean_linker_0, # of connection points: 2
#     Edge 33, Type (0, 1), BuildingBlock: CIFDUS_clean_linker_0, # of connection points: 2
#     Edge 34, Type (0, 1), BuildingBlock: CIFDUS_clean_linker_0, # of connection points: 2
#     Edge 35, Type (0, 1), BuildingBlock: CIFDUS_clean_linker_0, # of connection points: 2
#     Edge 36, Type (0, 1), BuildingBlock: CIFDUS_clean_linker_0, # of connection points: 2
#     Edge 37, Type (0, 1), BuildingBlock: CIFDUS_clean_linker_0, # of connection points: 2
#     Edge 38, Type (0, 1), BuildingBlock: CIFDUS_clean_linker_0, # of connection points: 2
#     Edge 39, Type (0, 1), BuildingBlock: CIFDUS_clean_linker_0, # of connection points: 2
#     Edge 40, Type (0, 1), BuildingBlock: CIFDUS_clean_linker_0, # of connection points: 2
#     Edge 41, Type (0, 1), BuildingBlock: CIFDUS_clean_linker_0, # of connection points: 2
#     Edge 42, Type (0, 1), BuildingBlock: CIFDUS_clean_linker_0, # of connection points: 2
#     Edge 43, Type (0, 1), BuildingBlock: CIFDUS_clean_linker_0, # of connection points: 2
#     Edge 44, Type (0, 1), BuildingBlock: CIFDUS_clean_linker_0, # of connection points: 2
#     Edge 45, Type (0, 1), BuildingBlock: CIFDUS_clean_linker_0, # of connection points: 2
#     Edge 46, Type (0, 1), BuildingBlock: CIFDUS_clean_linker_0, # of connection points: 2
#     Edge 47, Type (0, 1), BuildingBlock: CIFDUS_clean_linker_0, # of connection points: 2
#     Edge 48, Type (0, 1), BuildingBlock: CIFDUS_clean_linker_0, # of connection points: 2
#     Edge 49, Type (0, 1), BuildingBlock: CIFDUS_clean_linker_0, # of connection points: 2
#     Edge 50, Type (0, 1), BuildingBlock: CIFDUS_clean_linker_0, # of connection points: 2
#     Edge 51, Type (0, 1), BuildingBlock: CIFDUS_clean_linker_0, # of connection points: 2
#     Edge 52, Type (0, 1), BuildingBlock: CIFDUS_clean_linker_0, # of connection points: 2
#     Edge 53, Type (0, 1), BuildingBlock: CIFDUS_clean_linker_0, # of connection points: 2
#     Edge 54, Type (0, 1), BuildingBlock: CIFDUS_clean_linker_0, # of connection points: 2
#     Edge 55, Type (0, 1), BuildingBlock: CIFDUS_clean_linker_0, # of connection points: 2
#     Edge 56, Type (0, 1), BuildingBlock: CIFDUS_clean_linker_0, # of connection points: 2
#     Edge 57, Type (0, 1), BuildingBlock: CIFDUS_clean_linker_0, # of connection points: 2
#     Edge 58, Type (0, 1), BuildingBlock: CIFDUS_clean_linker_0, # of connection points: 2
#     Edge 59, Type (0, 1), BuildingBlock: CIFDUS_clean_linker_0, # of connection points: 2
#     Edge 60, Type (0, 1), BuildingBlock: CIFDUS_clean_linker_0, # of connection points: 2
#     Edge 61, Type (0, 1), BuildingBlock: CIFDUS_clean_linker_0, # of connection points: 2
#     Edge 62, Type (0, 1), BuildingBlock: CIFDUS_clean_linker_0, # of connection points: 2
#     Edge 63, Type (0, 1), BuildingBlock: CIFDUS_clean_linker_0, # of connection points: 2
#     Edge 64, Type (0, 1), BuildingBlock: CIFDUS_clean_linker_0, # of connection points: 2
#     Edge 65, Type (0, 1), BuildingBlock: CIFDUS_clean_linker_0, # of connection points: 2
#     Edge 66, Type (0, 1), BuildingBlock: CIFDUS_clean_linker_0, # of connection points: 2
#     Edge 67, Type (0, 1), BuildingBlock: CIFDUS_clean_linker_0, # of connection points: 2
#     Edge 68, Type (0, 1), BuildingBlock: CIFDUS_clean_linker_0, # of connection points: 2
#     Edge 69, Type (0, 1), BuildingBlock: CIFDUS_clean_linker_0, # of connection points: 2
#     Edge 70, Type (0, 1), BuildingBlock: CIFDUS_clean_linker_0, # of connection points: 2
#     Edge 71, Type (0, 1), BuildingBlock: CIFDUS_clean_linker_0, # of connection points: 2
#     Edge 72, Type (0, 1), BuildingBlock: CIFDUS_clean_linker_0, # of connection points: 2
#     Edge 73, Type (0, 1), BuildingBlock: CIFDUS_clean_linker_0, # of connection points: 2
#     Edge 74, Type (0, 1), BuildingBlock: CIFDUS_clean_linker_0, # of connection points: 2
#     Edge 75, Type (0, 1), BuildingBlock: CIFDUS_clean_linker_0, # of connection points: 2
# Relax obj value: 0.069
# Max RMSD: 0.193
# Mean RMSD: 0.117
data_MOF--net-ctn--node1-UXUYUI_clean_sbu_0--node2-BETDIP_clean_linker_0--edge1-CIFDUS_clean_linker_0
_symmetry_space_group_name_H-M    P1
_symmetry_Int_Tables_number       1
_symmetry_cell_setting            triclinic
loop_
_symmetry_equiv_pos_as_xyz
'x, y, z'
_cell_length_a     58.534893
_cell_length_b     58.658232
_cell_length_c     64.340378
_cell_angle_alpha  93.385953
_cell_angle_beta   93.703027
_cell_angle_gamma 92.85698
loop_
_atom_site_label
_atom_site_type_symbol
_atom_site_fract_x
_atom_site_fract_y
_atom_site_fract_z
_atom_type_partial_charge
H0 H 0.04125 0.06471 0.05971 0.0
H1 H 0.09185 0.03898 0.02039 0.0
H2 H 0.07594 1.00386 0.07467 0.0
H3 H 0.09781 0.07657 0.01541 0.0
C4 C 0.08046 0.08229 0.0137 0.0
C5 C 0.05381 0.05225 0.05652 0.0
C6 C 0.05684 0.034 0.06961 0.0
C7 C 0.0668 0.05459 0.03912 0.0
C8 C 0.08232 0.03786 0.03419 0.0
C9 C 0.08564 0.01947 0.04687 0.0
C10 C 0.07313 0.01787 0.06474 0.0
N11 N 0.06355 0.07357 0.02655 0.0
H12 H 0.27714 0.69432 0.20257 0.0
H13 H 0.33644 0.73869 0.22186 0.0
H14 H 0.316 0.68517 0.26043 0.0
H15 H 0.33535 0.74518 0.18748 0.0
C16 C 0.31724 0.74481 0.18254 0.0
C17 C 0.29127 0.69937 0.21388 0.0
C18 C 0.29478 0.68711 0.23188 0.0
C19 C 0.30623 0.71781 0.20993 0.0
C20 C 0.32496 0.72421 0.22431 0.0
C21 C 0.32842 0.71245 0.24255 0.0
C22 C 0.31327 0.69408 0.24626 0.0
N23 N 0.30139 0.72991 0.19173 0.0
H24 H 0.95027 0.49692 0.01708 0.0
H25 H 0.00442 0.46847 0.05355 0.0
H26 H 0.97549 0.53027 0.0763 0.0
H27 H 0.991 0.43588 0.03658 0.0
C28 C 0.98635 0.4407 0.02089 0.0
C29 C 0.96151 0.49762 0.03118 0.0
C30 C 0.96061 0.51572 0.04648 0.0
C31 C 0.97686 0.48029 0.03376 0.0
C32 C 0.99215 0.48147 0.05161 0.0
C33 C 0.99193 0.49949 0.06702 0.0
C34 C 0.97592 0.51645 0.06442 0.0
N35 N 0.977 0.46231 0.01786 0.0
H36 H 0.72809 0.77571 0.19997 0.0
H37 H 0.74755 0.83664 0.23888 0.0
H38 H 0.78514 0.82002 0.18555 0.0
H39 H 0.7336 0.81666 0.2635 0.0
C40 C 0.71861 0.80707 0.25611 0.0
C41 C 0.73913 0.79103 0.20341 0.0
C42 C 0.75685 0.79626 0.19035 0.0
C43 C 0.73611 0.805 0.22143 0.0
C44 C 0.75043 0.82496 0.2258 0.0
C45 C 0.76831 0.8304 0.2131 0.0
C46 C 0.77134 0.81597 0.19539 0.0
N47 N 0.71863 0.79869 0.23485 0.0
H48 H 0.03667 0.96104 0.44196 0.0
H49 H 0.09754 0.98368 0.47991 0.0
H50 H 0.07647 0.02082 0.42696 0.0
H51 H 0.07902 0.96513 0.50502 0.0
C52 C 0.0697 0.95058 0.49662 0.0
C53 C 0.05105 0.97334 0.44532 0.0
C54 C 0.05463 0.99126 0.43209 0.0
C55 C 0.06592 0.97086 0.46292 0.0
C56 C 0.08531 0.9861 0.467 0.0
C57 C 0.08955 1.00389 0.45372 0.0
C58 C 0.07382 0.00655 0.43664 0.0
N59 N 0.06123 0.95223 0.47554 0.0
H60 H 0.22258 0.74589 0.81019 0.0
H61 H 0.25333 0.69615 0.77083 0.0
H62 H 0.2827 0.71324 0.83316 0.0
H63 H 0.23421 0.71248 0.74508 0.0
C64 C 0.21893 0.71916 0.7513 0.0
C65 C 0.23582 0.73386 0.80797 0.0
C66 C 0.25257 0.73113 0.82417 0.0
C67 C 0.23609 0.72171 0.78863 0.0
C68 C 0.25317 0.70604 0.78553 0.0
C69 C 0.27019 0.70294 0.80147 0.0
C70 C 0.2699 0.71578 0.82069 0.0
N71 N 0.21856 0.72544 0.77297 0.0
H72 H 1.00287 0.576 0.47112 0.0
H73 H 0.96238 0.51319 0.45721 0.0
H74 H 0.95057 0.55556 0.51161 0.0
H75 H 0.98994 0.50353 0.43803 0.0
C76 C 0.99843 0.51882 0.43284 0.0
C77 C 0.98947 0.56394 0.47512 0.0
C78 C 0.97732 0.56844 0.493 0.0
C79 C 0.98465 0.54392 0.46229 0.0
C80 C 0.96702 0.52838 0.4672 0.0
C81 C 0.95468 0.53247 0.48495 0.0
C82 C 0.95974 0.55264 0.49767 0.0
N83 N 0.99778 0.54012 0.44458 0.0
H84 H 0.80734 0.83175 0.77693 0.0
H85 H 0.83101 0.77719 0.81289 0.0
H86 H 0.77577 0.81686 0.83353 0.0
H87 H 0.84228 0.76364 0.78178 0.0
C88 C 0.84779 0.77872 0.77403 0.0
C89 C 0.80606 0.82156 0.79037 0.0
C90 C 0.78961 0.82625 0.80476 0.0
C91 C 0.82062 0.80358 0.79281 0.0
C92 C 0.81934 0.79066 0.81049 0.0
C93 C 0.8033 0.79531 0.82543 0.0
C94 C 0.78807 0.81288 0.82214 0.0
N95 N 0.8368 0.79957 0.77755 0.0
H96 H 0.29294 0.32913 0.27499 0.0
H97 H 0.31748 0.27434 0.31021 0.0
H98 H 0.26044 0.31154 0.33043 0.0
H99 H 0.3515 0.28524 0.29461 0.0
C100 C 0.34506 0.2886 0.27893 0.0
C101 C 0.29156 0.31863 0.28821 0.0
C102 C 0.27471 0.32261 0.3024 0.0
C103 C 0.30727 0.30169 0.29108 0.0
C104 C 0.30594 0.28804 0.30832 0.0
C105 C 0.28886 0.2913 0.32255 0.0
C106 C 0.2735 0.30879 0.3195 0.0
N107 N 0.32346 0.29836 0.27573 0.0
H108 H 0.45087 0.98669 0.51922 0.0
H109 H 0.50441 0.96418 0.56053 0.0
H110 H 0.46491 0.02063 0.58026 0.0
H111 H 0.49316 0.92939 0.54198 0.0
C112 C 0.49156 0.935 0.52618 0.0
C113 C 0.46052 0.98835 0.53424 0.0
C114 C 0.45559 0.00545 0.54929 0.0
C115 C 0.47767 0.97315 0.53832 0.0
C116 C 0.49054 0.97535 0.55761 0.0
C117 C 0.48625 0.99257 0.57285 0.0
C118 C 0.46874 0.00763 0.5685 0.0
N119 N 0.48201 0.95631 0.52242 0.0
H120 H 0.22073 0.27075 0.70067 0.0
H121 H 0.24186 0.33101 0.73954 0.0
H122 H 0.27468 0.31679 0.68266 0.0
H123 H 0.23268 0.30555 0.76491 0.0
C124 C 0.21608 0.29885 0.75799 0.0
C125 C 0.23182 0.2861 0.70363 0.0
C126 C 0.24817 0.29185 0.68939 0.0
C127 C 0.22977 0.29985 0.7219 0.0
C128 C 0.24365 0.32011 0.72563 0.0
C129 C 0.25979 0.3265 0.71147 0.0
C130 C 0.26206 0.31214 0.69348 0.0
N131 N 0.21337 0.29316 0.73612 0.0
H132 H 0.7702 0.20077 0.70222 0.0
H133 H 0.83265 0.23982 0.72278 0.0
H134 H 0.8076 0.1863 0.75937 0.0
H135 H 0.81391 0.26745 0.70668 0.0
C136 C 0.80597 0.25866 0.6925 0.0
C137 C 0.78476 0.20416 0.71344 0.0
C138 C 0.78685 0.19136 0.73124 0.0
C139 C 0.80079 0.22211 0.71051 0.0
C140 C 0.81977 0.22648 0.72509 0.0
C141 C 0.82218 0.21378 0.74287 0.0
C142 C 0.80561 0.19636 0.74583 0.0
N143 N 0.79727 0.2356 0.69297 0.0
H144 H 0.53714 0.56811 0.57175 0.0
H145 H 0.58318 0.54044 0.52867 0.0
H146 H 0.57351 0.50811 0.5858 0.0
H147 H 0.58505 0.57542 0.51792 0.0
C148 C 0.56824 0.58206 0.51954 0.0
C149 C 0.54905 0.5553 0.56761 0.0
C150 C 0.5539 0.53793 0.58121 0.0
C151 C 0.55988 0.55675 0.54887 0.0
C152 C 0.5752 0.54004 0.54333 0.0
C153 C 0.58037 0.52254 0.55662 0.0
C154 C 0.56986 0.52176 0.57566 0.0
N155 N 0.55464 0.5749 0.53581 0.0
H156 H 0.53449 0.45762 0.94835 0.0
H157 H 0.59018 0.48277 0.99191 0.0
H158 H 0.57591 0.51725 0.93577 0.0
H159 H 0.59216 0.44352 0.99428 0.0
C160 C 0.57427 0.43913 0.99655 0.0
C161 C 0.54844 0.4701 0.95293 0.0
C162 C 0.55386 0.48755 0.93965 0.0
C163 C 0.56182 0.46792 0.97158 0.0
C164 C 0.58004 0.48413 0.97741 0.0
C165 C 0.58537 0.50201 0.9646 0.0
C166 C 0.57218 0.50345 0.94572 0.0
N167 N 0.55694 0.44922 0.98411 0.0
H168 H 0.72726 0.24732 0.31394 0.0
H169 H 0.75741 0.20009 0.27188 0.0
H170 H 0.79133 0.21818 0.33206 0.0
H171 H 0.736 0.21465 0.24764 0.0
C172 C 0.72136 0.22202 0.25443 0.0
C173 C 0.7413 0.23664 0.31062 0.0
C174 C 0.75958 0.23475 0.32572 0.0
C175 C 0.74065 0.22486 0.291 0.0
C176 C 0.75795 0.2098 0.28671 0.0
C177 C 0.77616 0.20701 0.30157 0.0
C178 C 0.77704 0.2199 0.32084 0.0
N179 N 0.72216 0.22846 0.27618 0.0
H180 H 0.50418 0.08348 0.96574 0.0
H181 H 0.46473 0.02016 0.95145 0.0
H182 H 0.45159 0.06274 0.00559 0.0
H183 H 0.47098 0.02992 0.91784 0.0
C184 C 0.48897 0.03569 0.91949 0.0
C185 C 0.49066 0.07142 0.9695 0.0
C186 C 0.47866 0.07552 0.9875 0.0
C187 C 0.4853 0.05191 0.9561 0.0
C188 C 0.46822 0.0358 0.96117 0.0
C189 C 0.45618 0.03938 0.97922 0.0
C190 C 0.4614 0.05941 0.99213 0.0
N191 N 0.49771 0.0487 0.93792 0.0
Li192 Li 0.29184 0.89611 0.0054 0.0
Li193 Li 0.27854 0.86662 0.02856 0.0
Li194 Li 0.26792 0.8633 0.98949 0.0
Li195 Li 0.24998 0.89129 0.01321 0.0
C196 C 0.32103 0.86244 1.00028 0.0
N197 N 0.36642 0.8615 0.991 0.0
C198 C 0.33782 0.85767 0.01561 0.0
C199 C 0.32728 0.86644 0.98016 0.0
C200 C 0.36069 0.85734 0.01063 0.0
C201 C 0.35032 0.86598 0.9758 0.0
C202 C 0.28132 0.90619 0.05326 0.0
C203 C 0.26894 0.90634 0.08829 0.0
N204 N 0.28909 0.91749 0.0955 0.0
C205 C 0.30182 0.91781 0.06098 0.0
C206 C 0.26466 0.90056 0.06697 0.0
C207 C 0.30545 0.92331 0.08241 0.0
C208 C 0.31192 0.93311 0.98568 0.0
N209 N 0.31615 0.91789 1.0004 0.0
C210 C 0.35493 0.93303 0.00632 0.0
C211 C 0.33705 0.91782 0.01094 0.0
C212 C 0.35121 0.94864 0.99083 0.0
C213 C 0.32924 0.94866 0.98062 0.0
H214 H 0.29506 0.93318 0.9778 0.0
H215 H 0.33994 0.90581 0.02282 0.0
C216 C 0.27437 0.83005 0.05528 0.0
N217 N 0.28673 0.84972 0.05236 0.0
C218 C 0.28015 0.81698 0.07215 0.0
C219 C 0.3112 0.84469 0.08283 0.0
C220 C 0.30493 0.85711 0.06568 0.0
C221 C 0.29886 0.82419 0.08623 0.0
H222 H 0.26018 0.82433 0.04431 0.0
H223 H 0.31478 0.87255 0.06287 0.0
C224 C 0.25597 0.89836 0.96584 0.0
N225 N 0.24019 0.90169 0.92477 0.0
C226 C 0.23275 0.90124 0.96082 0.0
C227 C 0.27121 0.89742 0.94999 0.0
C228 C 0.2251 0.90284 0.93996 0.0
C229 C 0.26288 0.89904 0.92932 0.0
C230 C 0.22619 0.8504 0.01585 0.0
C231 C 0.21156 0.84251 0.99862 0.0
C232 C 0.21796 0.85129 0.03577 0.0
C233 C 0.18879 0.83595 1.0016 0.0
C234 C 0.19507 0.84463 0.0381 0.0
N235 N 0.18107 0.83718 0.0211 0.0
C236 C 0.2817 0.82652 0.96418 0.0
C237 C 0.24832 0.84226 0.94958 0.0
C238 C 0.28253 0.81149 0.9466 0.0
N239 N 0.26509 0.84189 0.96522 0.0
C240 C 0.24843 0.82742 0.9317 0.0
C241 C 0.26595 0.81199 0.92989 0.0
H242 H 0.29456 0.82605 0.97694 0.0
H243 H 0.23499 0.85424 0.95078 0.0
C244 C 0.22846 0.92801 0.03212 0.0
N245 N 0.22366 0.9086 0.01964 0.0
C246 C 0.21092 0.94165 0.03834 0.0
C247 C 0.18358 0.91572 0.01811 0.0
C248 C 0.2017 0.90241 0.01243 0.0
C249 C 0.18808 0.93555 0.03142 0.0
H250 H 0.24602 0.93303 0.03725 0.0
H251 H 0.19816 0.88726 1.00216 0.0
O252 O 0.29858 0.86311 1.00492 0.0
O253 O 0.27753 0.9005 0.03235 0.0
O254 O 0.26376 0.89674 0.98618 0.0
O255 O 0.24852 0.8569 0.01322 0.0
H256 H 0.33327 0.85435 0.03121 0.0
H257 H 0.31447 0.86989 0.96806 0.0
H258 H 0.37388 0.85379 0.02238 0.0
H259 H 0.35541 0.86917 0.96032 0.0
H260 H 0.25623 0.90201 0.09909 0.0
H261 H 0.31482 0.92245 0.05056 0.0
H262 H 0.2486 0.89184 0.06121 0.0
H263 H 0.32129 0.9322 0.08862 0.0
H264 H 0.37158 0.93225 0.01454 0.0
H265 H 0.32537 0.96069 0.96892 0.0
H266 H 0.27035 0.80113 0.07384 0.0
H267 H 0.32557 0.85116 0.09332 0.0
H268 H 0.22075 0.90212 0.97287 0.0
H269 H 0.28927 0.89545 0.95359 0.0
H270 H 0.20715 0.90497 0.93585 0.0
H271 H 0.27447 0.89823 0.91689 0.0
H272 H 0.21768 0.84159 0.98312 0.0
H273 H 0.22914 0.857 0.04931 0.0
H274 H 0.17724 0.82993 0.98839 0.0
H275 H 0.18844 0.84533 0.05342 0.0
H276 H 0.29606 0.79957 0.94613 0.0
H277 H 0.23529 0.82846 0.9192 0.0
H278 H 0.21527 0.95703 0.04823 0.0
H279 H 0.16622 0.91039 0.01237 0.0
Li280 Li 0.12005 0.50837 0.27657 0.0
Li281 Li 0.14542 0.4841 0.25951 0.0
Li282 Li 0.14875 0.52508 0.25581 0.0
Li283 Li 0.11575 0.50099 0.23699 0.0
C284 C 0.15531 0.51166 0.3027 0.0
N285 N 0.15632 0.51765 0.3457 0.0
C286 C 0.15514 0.4927 0.31489 0.0
C287 C 0.15606 0.53366 0.31241 0.0
C288 C 0.15567 0.49609 0.3366 0.0
C289 C 0.15652 0.53634 0.33415 0.0
C290 C 0.10777 0.45596 0.25805 0.0
C291 C 0.09532 0.42079 0.2383 0.0
N292 N 0.10066 0.4089 0.25531 0.0
C293 C 0.11311 0.44337 0.27534 0.0
C294 C 0.09881 0.44458 0.23936 0.0
C295 C 0.10941 0.4196 0.27363 0.0
C296 C 0.09317 0.53407 0.30416 0.0
N297 N 0.10238 0.51349 0.30056 0.0
C298 C 0.08679 0.49968 0.33123 0.0
C299 C 0.09923 0.49636 0.31359 0.0
C300 C 0.07711 0.52079 0.33543 0.0
C301 C 0.08046 0.53812 0.32157 0.0
H302 H 0.09553 0.54734 0.29346 0.0
H303 H 0.10658 0.48013 0.31046 0.0
C304 C 0.18276 0.46013 0.27596 0.0
N305 N 0.16423 0.45775 0.26196 0.0
C306 C 0.19686 0.44191 0.27905 0.0
C307 C 0.1733 0.41924 0.25256 0.0
C308 C 0.15966 0.43793 0.24998 0.0
C309 C 0.19212 0.42097 0.26742 0.0
H310 H 0.18672 0.47628 0.28472 0.0
H311 H 0.14541 0.43652 0.23839 0.0
C312 C 0.11448 0.55298 0.25042 0.0
N313 N 0.11439 0.59852 0.24155 0.0
C314 C 0.10557 0.55917 0.231 0.0
C315 C 0.12308 0.57 0.26542 0.0
C316 C 0.10573 0.58227 0.22679 0.0
C317 C 0.12298 0.59291 0.26061 0.0
C318 C 0.16383 0.48756 0.2233 0.0
C319 C 0.18731 0.49072 0.22877 0.0
C320 C 0.15583 0.47056 0.20807 0.0
C321 C 0.20246 0.47659 0.21901 0.0
C322 C 0.17154 0.45681 0.19865 0.0
N323 N 0.19433 0.46006 0.20429 0.0
C324 C 0.18599 0.55802 0.26658 0.0
C325 C 0.16668 0.56093 0.2334 0.0
C326 C 0.20058 0.57696 0.2635 0.0
N327 N 0.16926 0.55062 0.25173 0.0
C328 C 0.18072 0.58003 0.22975 0.0
C329 C 0.1979 0.58835 0.24494 0.0
H330 H 0.18802 0.54923 0.28082 0.0
H331 H 0.15359 0.55435 0.22164 0.0
C332 C 0.07254 0.49343 0.21396 0.0
N333 N 0.09515 0.49916 0.21254 0.0
C334 C 0.05706 0.49389 0.1965 0.0
C335 C 0.08835 0.50647 0.17652 0.0
C336 C 0.10327 0.50546 0.19429 0.0
C337 C 0.0648 0.50074 0.17743 0.0
H338 H 0.06651 0.4887 0.22874 0.0
H339 H 0.12126 0.51038 0.1937 0.0
O340 O 0.15432 0.50868 0.28138 0.0
O341 O 0.11109 0.47928 0.25942 0.0
O342 O 0.11488 0.53039 0.25468 0.0
O343 O 0.1487 0.50077 0.23309 0.0
H344 H 0.15419 0.47552 0.3077 0.0
H345 H 0.15614 0.54854 0.30328 0.0
H346 H 0.15541 0.48156 0.3462 0.0
H347 H 0.157 0.55327 0.34185 0.0
H348 H 0.08846 0.41178 0.22392 0.0
H349 H 0.12047 0.45176 0.28979 0.0
H350 H 0.0948 0.45395 0.22575 0.0
H351 H 0.11362 0.40965 0.28685 0.0
H352 H 0.08502 0.4859 0.34157 0.0
H353 H 0.07304 0.55454 0.32392 0.0
H354 H 0.21153 0.44433 0.29025 0.0
H355 H 0.16894 0.40351 0.24318 0.0
H356 H 0.09865 0.54631 0.21925 0.0
H357 H 0.13005 0.56557 0.28052 0.0
H358 H 0.09898 0.58728 0.21179 0.0
H359 H 0.12977 0.60622 0.27201 0.0
H360 H 0.1937 0.50379 0.24061 0.0
H361 H 0.13766 0.46784 0.20379 0.0
H362 H 0.22067 0.47872 0.22318 0.0
H363 H 0.16561 0.44348 0.18693 0.0
H364 H 0.21359 0.58283 0.27562 0.0
H365 H 0.17833 0.58804 0.21508 0.0
H366 H 0.03921 0.48893 0.198 0.0
H367 H 0.09519 0.5123 0.16241 0.0
Li368 Li 0.75622 0.64525 0.99627 0.0
Li369 Li 0.77325 0.67544 0.0218 0.0
Li370 Li 0.78086 0.6757 0.98316 0.0
Li371 Li 0.79892 0.64793 0.00621 0.0
C372 C 0.72894 0.67998 0.99044 0.0
N373 N 0.68331 0.68178 0.97699 0.0
C374 C 0.71298 0.687 1.00441 0.0
C375 C 0.72175 0.67416 0.96959 0.0
C376 C 0.68997 0.68773 0.99732 0.0
C377 C 0.6986 0.67509 0.9631 0.0
C378 C 0.77166 0.63717 0.04413 0.0
C379 C 0.78972 0.63634 0.07881 0.0
N380 N 0.76955 0.62824 0.08566 0.0
C381 C 0.75117 0.62862 0.05144 0.0
C382 C 0.79115 0.64088 0.05785 0.0
C383 C 0.75042 0.6243 0.07252 0.0
C384 C 0.73272 0.6068 0.97486 0.0
N385 N 0.73041 0.62406 0.9895 0.0
C386 C 0.69198 0.61033 0.99418 0.0
C387 C 0.71064 0.62593 0.99934 0.0
C388 C 0.69375 0.59244 0.97891 0.0
C389 C 0.71457 0.59078 0.96931 0.0
H390 H 0.74876 0.60536 0.96759 0.0
H391 H 0.70934 0.63953 0.01121 0.0
C392 C 0.78235 0.71148 0.05364 0.0
N393 N 0.76768 0.69351 0.04676 0.0
C394 C 0.7786 0.72448 0.07194 0.0
C395 C 0.74456 0.70049 0.07562 0.0
C396 C 0.74895 0.68798 0.05726 0.0
C397 C 0.7595 0.71904 0.08327 0.0
H398 H 0.79691 0.71582 0.04486 0.0
H399 H 0.73735 0.67383 0.05136 0.0
C400 C 0.78898 0.63765 0.95842 0.0
N401 N 0.80249 0.62933 0.91843 0.0
C402 C 0.81186 0.63364 0.95519 0.0
C403 C 0.77292 0.63717 0.94133 0.0
C404 C 0.81836 0.62951 0.93485 0.0
C405 C 0.78011 0.63303 0.92123 0.0
C406 C 0.82546 0.68803 0.01314 0.0
C407 C 0.83937 0.69466 0.99746 0.0
C408 C 0.83488 0.68755 0.03362 0.0
C409 C 0.86259 0.70043 1.00249 0.0
C410 C 0.85819 0.6934 0.03802 0.0
N411 N 0.87145 0.69965 0.02249 0.0
C412 C 0.76799 0.71115 0.9574 0.0
C413 C 0.80006 0.69226 0.94587 0.0
C414 C 0.76789 0.72478 0.94026 0.0
N415 N 0.78368 0.69499 0.95977 0.0
C416 C 0.8006 0.70554 0.92849 0.0
C417 C 0.7842 0.72196 0.92534 0.0
H418 H 0.75537 0.71342 0.96878 0.0
H419 H 0.81266 0.67967 0.9481 0.0
C420 C 0.81753 0.60817 0.01963 0.0
N421 N 0.82408 0.62855 0.0122 0.0
C422 C 0.83361 0.59204 0.02408 0.0
C423 C 0.86319 0.61793 0.01313 0.0
C424 C 0.84646 0.63365 0.0089 0.0
C425 C 0.85682 0.59666 0.02068 0.0
H426 H 0.79965 0.60431 0.02192 0.0
H427 H 0.85137 0.64962 1.00251 0.0
O428 O 0.75149 0.67883 0.99714 0.0
O429 O 0.77265 0.64173 0.02359 0.0
O430 O 0.78231 0.64172 0.97822 0.0
O431 O 0.80267 0.6824 0.00849 0.0
H432 H 0.71827 0.69177 0.02055 0.0
H433 H 0.73393 0.66894 0.95855 0.0
H434 H 0.6774 0.69302 0.00798 0.0
H435 H 0.69278 0.67051 0.94703 0.0
H436 H 0.80466 0.63922 0.08963 0.0
H437 H 0.73596 0.62552 0.04098 0.0
H438 H 0.80722 0.64711 0.05236 0.0
H439 H 0.73463 0.61783 0.07843 0.0
H440 H 0.67627 0.61245 1.00192 0.0
H441 H 0.71698 0.57704 0.9578 0.0
H442 H 0.79038 0.73886 0.07697 0.0
H443 H 0.72972 0.69549 0.08385 0.0
H444 H 0.8245 0.6339 0.96821 0.0
H445 H 0.7551 0.63994 0.94354 0.0
H446 H 0.83603 0.6265 0.93212 0.0
H447 H 0.76788 0.63272 0.90785 0.0
H448 H 0.83233 0.69529 0.98157 0.0
H449 H 0.82431 0.6828 0.046 0.0
H450 H 0.87358 0.7055 0.99049 0.0
H451 H 0.86572 0.69302 0.05379 0.0
H452 H 0.75519 0.7375 0.9388 0.0
H453 H 0.81346 0.7026 0.9174 0.0
H454 H 0.82785 0.57605 0.03012 0.0
H455 H 0.88079 0.62213 0.00995 0.0
Li456 Li 0.90593 0.0484 0.24836 0.0
Li457 Li 0.9357 0.02348 0.26477 0.0
Li458 Li 0.93329 0.03101 0.22578 0.0
Li459 Li 0.90453 0.00731 0.24022 0.0
C460 C 0.94409 0.07537 0.25795 0.0
N461 N 0.95073 0.12048 0.27298 0.0
C462 C 0.94986 0.08069 0.27916 0.0
C463 C 0.94197 0.09297 0.24435 0.0
C464 C 0.95309 0.10361 0.28646 0.0
C465 C 0.9453 0.11567 0.25226 0.0
C466 C 0.88475 0.0122 0.27592 0.0
C467 C 0.87018 0.98268 0.29681 0.0
N468 N 0.84841 0.9874 0.29042 0.0
C469 C 0.86226 0.01686 0.26963 0.0
C470 C 0.88881 0.99506 0.28967 0.0
C471 C 0.8441 1.00408 0.27711 0.0
C472 C 0.87002 0.07821 0.24031 0.0
N473 N 0.88712 0.07373 0.25457 0.0
C474 C 0.87432 0.10208 0.27896 0.0
C475 C 0.88945 0.08523 0.27366 0.0
C476 C 0.85629 0.10684 0.26462 0.0
C477 C 0.85446 0.0948 0.24497 0.0
H478 H 0.86797 0.0684 0.2255 0.0
H479 H 0.9026 0.08082 0.28507 0.0
C480 C 0.97698 0.01228 0.28619 0.0
N481 N 0.95556 0.01935 0.28891 0.0
C482 C 0.99194 0.00893 0.30343 0.0
C483 C 0.96273 0.02071 0.32603 0.0
C484 C 0.94823 0.02356 0.30832 0.0
C485 C 0.98499 0.01325 0.32378 0.0
H486 H 0.98237 0.00905 0.27056 0.0
H487 H 0.93116 0.02937 0.31004 0.0
C488 C 0.89756 0.0374 0.20053 0.0
N489 N 0.89508 0.04889 0.15942 0.0
C490 C 0.89232 0.02052 0.18443 0.0
C491 C 0.90141 0.06013 0.1957 0.0
C492 C 0.89116 0.02667 0.16375 0.0
C493 C 0.90012 0.06559 0.17483 0.0
C494 C 0.93854 0.97887 0.23601 0.0
C495 C 0.93039 0.96867 0.21659 0.0
C496 C 0.94716 0.96525 0.2515 0.0
C497 C 0.93096 0.94499 0.21298 0.0
C498 C 0.94749 0.94163 0.24727 0.0
N499 N 0.93944 0.93207 0.22827 0.0
C500 C 0.96873 0.05246 0.20372 0.0
C501 C 0.94934 0.02036 0.18528 0.0
C502 C 0.98297 0.05542 0.18728 0.0
N503 N 0.95222 0.03517 0.20245 0.0
C504 C 0.96298 0.02282 0.16843 0.0
C505 C 0.98024 0.04047 0.16923 0.0
H506 H 0.97106 0.06382 0.21763 0.0
H507 H 0.93639 0.00657 0.18456 0.0
C508 C 0.8649 0.98285 0.22113 0.0
N509 N 0.88311 0.98104 0.23505 0.0
C510 C 0.84927 0.96426 0.21611 0.0
C511 C 0.87067 0.94248 0.24061 0.0
C512 C 0.88588 0.96153 0.24516 0.0
C513 C 0.85219 0.94358 0.22568 0.0
H514 H 0.86245 0.99881 0.21394 0.0
H515 H 0.9 0.96064 0.25669 0.0
O516 O 0.9406 0.05303 0.25055 0.0
O517 O 0.90273 0.0241 0.26833 0.0
O518 O 0.8991 0.0317 0.22088 0.0
O519 O 0.93809 1.00203 0.23988 0.0
H520 H 0.95165 0.06731 0.2899 0.0
H521 H 0.93785 0.08916 0.22785 0.0
H522 H 0.95742 0.10798 0.30286 0.0
H523 H 0.94362 0.12946 0.24192 0.0
H524 H 0.87304 0.96926 0.30736 0.0
H525 H 0.85888 0.03002 0.25891 0.0
H526 H 0.90615 0.99116 0.29455 0.0
H527 H 0.82659 0.00739 0.27229 0.0
H528 H 0.87616 0.11061 0.29441 0.0
H529 H 0.84092 0.09793 0.23338 0.0
H530 H 0.00871 1.00278 0.30078 0.0
H531 H 0.95665 0.02468 0.34129 0.0
H532 H 0.88962 1.00278 0.18779 0.0
H533 H 0.90536 0.07342 0.20794 0.0
H534 H 0.88729 0.01376 0.15114 0.0
H535 H 0.90314 0.08311 0.17089 0.0
H536 H 0.92313 0.97881 0.20461 0.0
H537 H 0.95332 0.97276 0.2667 0.0
H538 H 0.92453 0.93686 0.19808 0.0
H539 H 0.95405 0.93089 0.25913 0.0
H540 H 0.99625 0.06905 0.1889 0.0
H541 H 0.95982 0.01105 0.15482 0.0
H542 H 0.83493 0.96613 0.20494 0.0
H543 H 0.87365 0.92694 0.24841 0.0
Li544 Li 0.27882 0.17605 0.5211 0.0
Li545 Li 0.26118 0.14406 0.49778 0.0
Li546 Li 0.30409 0.14674 0.50709 0.0
Li547 Li 0.28588 0.17251 0.48224 0.0
C548 C 0.27861 0.13861 0.54609 0.0
N549 N 0.27957 0.1304 0.58799 0.0
C550 C 0.25892 0.12988 0.55469 0.0
C551 C 0.29888 0.14281 0.55874 0.0
C552 C 0.25972 0.12596 0.57593 0.0
C553 C 0.299 0.13864 0.57989 0.0
C554 C 0.23391 0.1785 0.49104 0.0
C555 C 0.20144 0.17224 0.46597 0.0
N556 N 0.18744 0.17961 0.48075 0.0
C557 C 0.21925 0.18619 0.50594 0.0
C558 C 0.22499 0.17164 0.47084 0.0
C559 C 0.19579 0.18656 0.50045 0.0
C560 C 0.28714 0.21639 0.54811 0.0
N561 N 0.2741 0.19651 0.54477 0.0
C562 C 0.25425 0.20518 0.57543 0.0
C563 C 0.25768 0.19086 0.55787 0.0
C564 C 0.2677 0.22568 0.57952 0.0
C565 C 0.28427 0.23124 0.56548 0.0
H566 H 0.29984 0.22073 0.53732 0.0
H567 H 0.24706 0.17532 0.5546 0.0
C568 C 0.23466 0.10535 0.47887 0.0
N569 N 0.23466 0.12318 0.49338 0.0
C570 C 0.21585 0.08954 0.47587 0.0
C571 C 0.19734 0.11069 0.50275 0.0
C572 C 0.21653 0.12601 0.5053 0.0
C573 C 0.19679 0.09204 0.48792 0.0
H574 H 0.24941 0.10322 0.46981 0.0
H575 H 0.21702 0.14013 0.51693 0.0
C576 C 0.3299 0.18875 0.51297 0.0
N577 N 0.37428 0.20464 0.52514 0.0
C578 C 0.34477 0.19559 0.49808 0.0
C579 C 0.3375 0.19035 0.53407 0.0
C580 C 0.36717 0.20348 0.50454 0.0
C581 C 0.36003 0.19832 0.5399 0.0
C582 C 0.29284 0.13317 0.45978 0.0
C583 C 0.31529 0.12773 0.4562 0.0
C584 C 0.2765 0.13326 0.44297 0.0
C585 C 0.3211 0.12278 0.43576 0.0
C586 C 0.283 0.12826 0.42276 0.0
N587 N 0.30498 0.12318 0.4196 0.0
C588 C 0.32515 0.10882 0.52326 0.0
C589 C 0.35183 0.13513 0.51026 0.0
C590 C 0.34274 0.09479 0.52925 0.0
N591 N 0.32993 0.12869 0.51414 0.0
C592 C 0.36997 0.12164 0.51605 0.0
C593 C 0.36558 0.10115 0.52574 0.0
H594 H 0.30761 0.10389 0.526 0.0
H595 H 0.35528 0.15058 0.50247 0.0
C596 C 0.27422 0.20527 0.45287 0.0
N597 N 0.28986 0.18968 0.4577 0.0
C598 C 0.27634 0.21825 0.43544 0.0
C599 C 0.31072 0.19907 0.42819 0.0
C600 C 0.30797 0.18651 0.44579 0.0
C601 C 0.29481 0.21529 0.42275 0.0
H602 H 0.26015 0.20784 0.46269 0.0
H603 H 0.32042 0.17431 0.44998 0.0
O604 O 0.27809 0.1427 0.52534 0.0
O605 O 0.25688 0.1777 0.4962 0.0
O606 O 0.30793 0.18092 0.5069 0.0
O607 O 0.28688 0.13817 0.47967 0.0
H608 H 0.24315 0.12631 0.54511 0.0
H609 H 0.3144 0.149 0.55226 0.0
H610 H 0.24456 0.11936 0.58281 0.0
H611 H 0.31456 0.14187 0.58986 0.0
H612 H 0.19428 0.16687 0.45042 0.0
H613 H 0.2259 0.1917 0.5216 0.0
H614 H 0.23614 0.16587 0.45909 0.0
H615 H 0.18423 0.19235 0.51185 0.0
H616 H 0.24094 0.20038 0.58553 0.0
H617 H 0.29514 0.24677 0.56801 0.0
H618 H 0.21646 0.07527 0.46449 0.0
H619 H 0.18301 0.11356 0.51225 0.0
H620 H 0.33914 0.1947 0.48172 0.0
H621 H 0.3261 0.18569 0.54586 0.0
H622 H 0.3789 0.20868 0.49316 0.0
H623 H 0.36615 0.19956 0.55618 0.0
H624 H 0.32812 0.12748 0.46904 0.0
H625 H 0.25901 0.13718 0.44548 0.0
H626 H 0.33844 0.11866 0.43274 0.0
H627 H 0.27056 0.12839 0.40958 0.0
H628 H 0.3385 0.07926 0.53679 0.0
H629 H 0.38723 0.12702 0.51264 0.0
H630 H 0.26385 0.2308 0.4322 0.0
H631 H 0.32512 0.19595 0.41886 0.0
Li632 Li 0.42918 0.51715 0.77518 0.0
Li633 Li 0.40083 0.5413 0.75847 0.0
Li634 Li 0.40012 0.49829 0.74971 0.0
Li635 Li 0.42976 0.52413 0.73618 0.0
C636 C 0.39035 0.51048 0.79634 0.0
N637 N 0.3814 0.50074 0.83664 0.0
C638 C 0.38194 0.52718 0.8098 0.0
C639 C 0.39382 0.48872 0.80329 0.0
C640 C 0.37761 0.52195 0.83014 0.0
C641 C 0.38931 0.48415 0.82374 0.0
C642 C 0.44056 0.5693 0.76459 0.0
C643 C 0.4473 0.60659 0.75156 0.0
N644 N 0.45159 0.61561 0.77147 0.0
C645 C 0.44537 0.57887 0.78491 0.0
C646 C 0.44182 0.5832 0.74775 0.0
C647 C 0.45077 0.60234 0.78807 0.0
C648 C 0.46382 0.49782 0.80109 0.0
N649 N 0.44709 0.5131 0.80085 0.0
C650 C 0.45351 0.52104 0.83778 0.0
C651 C 0.44209 0.52496 0.81866 0.0
C652 C 0.47055 0.50501 0.83861 0.0
C653 C 0.47586 0.49354 0.81987 0.0
H654 H 0.46768 0.48873 0.78674 0.0
H655 H 0.42903 0.53731 0.8181 0.0
C656 C 0.363 0.56847 0.74944 0.0
N657 N 0.38146 0.56669 0.76308 0.0
C658 C 0.34735 0.58531 0.7529 0.0
C659 C 0.36969 0.59824 0.7846 0.0
C660 C 0.38509 0.58127 0.78038 0.0
C661 C 0.35028 0.6003 0.77089 0.0
H662 H 0.36003 0.55644 0.73606 0.0
H663 H 0.39941 0.57917 0.79141 0.0
C664 C 0.43744 0.47275 0.74638 0.0
N665 N 0.44356 0.42695 0.73697 0.0
C666 C 0.44369 0.46538 0.72659 0.0
C667 C 0.43474 0.45685 0.7615 0.0
C668 C 0.44659 0.44215 0.72209 0.0
C669 C 0.43778 0.43377 0.75642 0.0
C670 C 0.3893 0.53037 0.71153 0.0
C671 C 0.37793 0.51478 0.69661 0.0
C672 C 0.39396 0.55291 0.70652 0.0
C673 C 0.37178 0.52192 0.67678 0.0
C674 C 0.38753 0.5594 0.68653 0.0
N675 N 0.37669 0.54389 0.67218 0.0
C676 C 0.36409 0.4651 0.75514 0.0
C677 C 0.38396 0.45848 0.72463 0.0
C678 C 0.3501 0.44525 0.75025 0.0
N679 N 0.38081 0.47119 0.74249 0.0
C680 C 0.37042 0.43845 0.71918 0.0
C681 C 0.35323 0.43153 0.7321 0.0
H682 H 0.36157 0.47568 0.76903 0.0
H683 H 0.39692 0.46399 0.71451 0.0
C684 C 0.46811 0.54053 0.71378 0.0
N685 N 0.44786 0.52786 0.71232 0.0
C686 C 0.48071 0.54293 0.69612 0.0
C687 C 0.45152 0.51913 0.67587 0.0
C688 C 0.43969 0.51698 0.69388 0.0
C689 C 0.47229 0.53234 0.67677 0.0
H690 H 0.47447 0.54881 0.72864 0.0
H691 H 0.42404 0.50634 0.69316 0.0
O692 O 0.39504 0.51541 0.77647 0.0
O693 O 0.43525 0.54634 0.7612 0.0
O694 O 0.43424 0.49541 0.75098 0.0
O695 O 0.39573 0.52357 0.73093 0.0
H696 H 0.37888 0.54402 0.80466 0.0
H697 H 0.39986 0.47547 0.79301 0.0
H698 H 0.37125 0.53477 0.84075 0.0
H699 H 0.39205 0.46741 0.82933 0.0
H700 H 0.44824 0.61756 0.73867 0.0
H701 H 0.44476 0.56833 0.7981 0.0
H702 H 0.4388 0.57601 0.73191 0.0
H703 H 0.45433 0.61 0.80373 0.0
H704 H 0.44913 0.53059 0.85176 0.0
H705 H 0.48883 0.481 0.81978 0.0
H706 H 0.33293 0.58633 0.74165 0.0
H707 H 0.37256 0.60902 0.79886 0.0
H708 H 0.44616 0.47742 0.71477 0.0
H709 H 0.43046 0.46226 0.77703 0.0
H710 H 0.45125 0.43621 0.70678 0.0
H711 H 0.43562 0.42129 0.76795 0.0
H712 H 0.37401 0.49732 0.70026 0.0
H713 H 0.40227 0.5653 0.71801 0.0
H714 H 0.3631 0.51 0.66504 0.0
H715 H 0.39109 0.57679 0.68244 0.0
H716 H 0.33716 0.44054 0.76075 0.0
H717 H 0.37318 0.42867 0.70483 0.0
H718 H 0.49664 0.55329 0.69751 0.0
H719 H 0.44461 0.51028 0.66141 0.0
Li720 Li 0.78477 0.39573 0.51068 0.0
Li721 Li 0.76815 0.36572 0.52948 0.0
Li722 Li 0.76022 0.36579 0.49117 0.0
Li723 Li 0.74395 0.39577 0.51703 0.0
C724 C 0.80942 0.35512 0.50012 0.0
N725 N 0.84956 0.33941 0.4856 0.0
C726 C 0.82644 0.34781 0.51406 0.0
C727 C 0.81269 0.35413 0.47875 0.0
C728 C 0.84665 0.34002 0.50643 0.0
C729 C 0.83314 0.34623 0.47174 0.0
C730 C 0.78561 0.40344 0.55466 0.0
C731 C 0.79495 0.42029 0.58946 0.0
N732 N 0.81633 0.41226 0.58897 0.0
C733 C 0.80765 0.39537 0.5545 0.0
C734 C 0.77918 0.41602 0.57226 0.0
C735 C 0.82294 0.40001 0.57199 0.0
C736 C 0.81013 0.43783 0.52006 0.0
N737 N 0.81074 0.41736 0.50903 0.0
C738 C 0.84557 0.42987 0.49457 0.0
C739 C 0.82807 0.41317 0.49647 0.0
C740 C 0.8454 0.4512 0.50576 0.0
C741 C 0.82737 0.45496 0.51876 0.0
H742 H 0.79598 0.44103 0.52964 0.0
H743 H 0.82803 0.39721 0.48734 0.0
C744 C 0.78153 0.32525 0.54861 0.0
N745 N 0.77252 0.34596 0.55205 0.0
C746 C 0.78482 0.31082 0.56499 0.0
C747 C 0.76935 0.33922 0.58809 0.0
C748 C 0.76621 0.35299 0.57127 0.0
C749 C 0.77889 0.31786 0.58512 0.0
H750 H 0.78617 0.31995 0.53312 0.0
H751 H 0.75858 0.36928 0.57353 0.0
C752 C 0.76691 0.4185 0.48058 0.0
N753 N 0.78555 0.45637 0.46291 0.0
C754 C 0.76125 0.44044 0.48739 0.0
C755 C 0.78194 0.4158 0.4647 0.0
C756 C 0.77088 0.45938 0.47828 0.0
C757 C 0.79121 0.43517 0.45599 0.0
C758 C 0.72644 0.34744 0.52579 0.0
C759 C 0.72676 0.32375 0.52204 0.0
C760 C 0.71564 0.35641 0.54298 0.0
C761 C 0.71634 0.30939 0.53564 0.0
C762 C 0.70538 0.34148 0.55619 0.0
N763 N 0.70596 0.31848 0.55229 0.0
C764 C 0.75614 0.32426 0.46533 0.0
C765 C 0.75262 0.35791 0.44713 0.0
C766 C 0.75439 0.31078 0.44652 0.0
N767 N 0.75522 0.34737 0.46531 0.0
C768 C 0.75145 0.34519 0.42797 0.0
C769 C 0.75233 0.32117 0.42732 0.0
H770 H 0.75863 0.31627 0.47996 0.0
H771 H 0.75203 0.3763 0.44746 0.0
C772 C 0.72442 0.43364 0.53614 0.0
N773 N 0.71909 0.41439 0.52361 0.0
C774 C 0.70718 0.44743 0.54276 0.0
C775 C 0.67913 0.42157 0.52324 0.0
C776 C 0.69698 0.4082 0.517 0.0
C777 C 0.68411 0.44141 0.53648 0.0
H778 H 0.74215 0.43822 0.54109 0.0
H779 H 0.69318 0.39268 0.50719 0.0
O780 O 0.78928 0.36225 0.50729 0.0
O781 O 0.77027 0.39896 0.53777 0.0
O782 O 0.75821 0.39982 0.48979 0.0
O783 O 0.73724 0.36181 0.51311 0.0
H784 H 0.82404 0.34801 0.5306 0.0
H785 H 0.79979 0.35973 0.46771 0.0
H786 H 0.85999 0.33438 0.51706 0.0
H787 H 0.83596 0.34554 0.45526 0.0
H788 H 0.79019 0.42996 0.60321 0.0
H789 H 0.81294 0.38575 0.54099 0.0
H790 H 0.76212 0.42229 0.57269 0.0
H791 H 0.84007 0.39388 0.57206 0.0
H792 H 0.85873 0.42628 0.48396 0.0
H793 H 0.82652 0.47098 0.52785 0.0
H794 H 0.79229 0.29452 0.56203 0.0
H795 H 0.76414 0.34516 0.60324 0.0
H796 H 0.74972 0.44284 0.49971 0.0
H797 H 0.7868 0.39898 0.45945 0.0
H798 H 0.76675 0.47647 0.48347 0.0
H799 H 0.80302 0.43334 0.44382 0.0
H800 H 0.73517 0.31653 0.50891 0.0
H801 H 0.71551 0.37469 0.54629 0.0
H802 H 0.71656 0.29102 0.53298 0.0
H803 H 0.69708 0.34818 0.56962 0.0
H804 H 0.75472 0.29242 0.44716 0.0
H805 H 0.75042 0.35433 0.41385 0.0
H806 H 0.7119 0.46275 0.55264 0.0
H807 H 0.66161 0.41613 0.51814 0.0
Li808 Li 0.64985 0.97699 0.75845 0.0
Li809 Li 0.6224 1.00489 0.7739 0.0
Li810 Li 0.61969 0.99382 0.73665 0.0
Li811 Li 0.65073 0.01954 0.75041 0.0
C812 C 0.59895 0.95877 0.75216 0.0
N813 N 0.56379 0.92982 0.73378 0.0
C814 C 0.57623 0.96487 0.75289 0.0
C815 C 0.60382 0.93792 0.74222 0.0
C816 C 0.55869 0.95001 0.74345 0.0
C817 C 0.58578 0.92351 0.733 0.0
C818 C 0.6644 0.01074 0.79775 0.0
C819 C 0.67099 0.03817 0.82723 0.0
N820 N 0.67925 0.02149 0.83898 0.0
C821 C 0.67313 0.99391 0.81007 0.0
C822 C 0.66348 0.03309 0.80635 0.0
C823 C 0.6805 0.99967 0.83089 0.0
C824 C 0.68932 0.95031 0.75799 0.0
N825 N 0.66794 0.95159 0.76491 0.0
C826 C 0.67262 0.91769 0.78341 0.0
C827 C 0.65942 0.93573 0.77736 0.0
C828 C 0.69484 0.9158 0.7765 0.0
C829 C 0.70302 0.93242 0.76347 0.0
H830 H 0.69575 0.96324 0.74822 0.0
H831 H 0.64249 0.93734 0.78291 0.0
C832 C 0.58583 0.02267 0.79557 0.0
N833 N 0.60529 0.01107 0.79798 0.0
C834 C 0.57262 0.0272 0.81256 0.0
C835 C 0.59954 0.00759 0.8342 0.0
C836 C 0.61204 1.00316 0.81674 0.0
C837 C 0.57953 0.01976 0.83224 0.0
H838 H 0.58052 0.02835 0.7804 0.0
H839 H 0.62697 0.99315 0.81817 0.0
C840 C 0.65306 0.98279 0.71131 0.0
N841 N 0.65335 0.96497 0.6706 0.0
C842 C 0.64835 0.99658 0.69473 0.0
C843 C 0.65796 0.95995 0.70718 0.0
C844 C 0.64854 0.98724 0.67426 0.0
C845 C 0.65803 0.95126 0.68649 0.0
C846 C 0.61602 0.04766 0.74973 0.0
C847 C 0.61229 0.05751 0.73062 0.0
C848 C 0.61847 0.06164 0.76817 0.0
C849 C 0.61141 0.08124 0.73027 0.0
C850 C 0.61747 0.0853 0.76717 0.0
N851 N 0.61401 0.09454 0.7484 0.0
C852 C 0.58108 1.00354 0.71046 0.0
C853 C 0.5979 0.96957 0.6991 0.0
C854 C 0.56525 1.00155 0.69313 0.0
N855 N 0.59738 0.988 0.71291 0.0
C856 C 0.58248 0.96695 0.68148 0.0
C857 C 0.566 0.98325 0.6781 0.0
H858 H 0.58035 0.01759 0.72198 0.0
H859 H 0.61046 0.95697 0.70156 0.0
C860 C 0.68835 0.05252 0.75916 0.0
N861 N 0.67099 0.04508 0.74492 0.0
C862 C 0.70316 0.07102 0.75528 0.0
C863 C 0.6823 0.07366 0.72197 0.0
C864 C 0.66794 0.05513 0.7265 0.0
C865 C 0.70022 0.08191 0.73646 0.0
H866 H 0.69091 0.04394 0.77345 0.0
H867 H 0.65429 0.04883 0.71526 0.0
O868 O 0.61638 0.97335 0.76079 0.0
O869 O 0.65696 0.00533 0.77737 0.0
O870 O 0.6531 0.99162 0.73147 0.0
O871 O 0.61715 0.02444 0.75036 0.0
H872 H 0.57225 0.98103 0.76046 0.0
H873 H 0.62136 0.93307 0.74141 0.0
H874 H 0.54102 0.95455 0.74376 0.0
H875 H 0.58928 0.90737 0.72514 0.0
H876 H 0.6703 0.05539 0.83409 0.0
H877 H 0.67412 0.97655 0.80368 0.0
H878 H 0.65716 0.04642 0.79698 0.0
H879 H 0.68719 0.98679 0.84063 0.0
H880 H 0.66562 0.90564 0.79374 0.0
H881 H 0.71981 0.9316 0.75741 0.0
H882 H 0.55729 0.03663 0.81037 0.0
H883 H 0.6052 1.00113 0.84899 0.0
H884 H 0.64421 0.01417 0.6976 0.0
H885 H 0.66143 0.94896 0.71979 0.0
H886 H 0.64478 0.99767 0.66128 0.0
H887 H 0.66173 0.9336 0.68308 0.0
H888 H 0.61043 0.04698 0.71617 0.0
H889 H 0.62104 0.05434 0.7831 0.0
H890 H 0.60872 0.0891 0.71558 0.0
H891 H 0.6194 0.09632 0.78134 0.0
H892 H 0.55249 0.01419 0.6916 0.0
H893 H 0.58384 0.95255 0.67039 0.0
H894 H 0.717 0.07647 0.76674 0.0
H895 H 0.67923 0.08158 0.70734 0.0
Li896 Li 0.04464 0.25926 0.8646 0.0
Li897 Li 0.02042 0.27626 0.89095 0.0
Li898 Li 0.02794 0.23524 0.8904 0.0
Li899 Li 1.00274 0.24977 0.86296 0.0
C900 C 0.07165 0.25467 0.90144 0.0
N901 N 0.11409 0.23933 0.91343 0.0
C902 C 0.08399 0.26451 0.91932 0.0
C903 C 0.08087 0.23702 0.88965 0.0
C904 C 0.10543 0.25652 0.92513 0.0
C905 C 0.10235 0.22951 0.89597 0.0
C906 C 0.01585 0.3012 0.85444 0.0
C907 C 0.99084 0.33085 0.84477 0.0
N908 N 0.00948 0.34495 0.84223 0.0
C909 C 0.03475 0.3159 0.85153 0.0
C910 C 0.9937 0.30864 0.85084 0.0
C911 C 0.03118 0.33798 0.84543 0.0
C912 C 0.06873 0.2528 0.82855 0.0
N913 N 0.06975 0.26448 0.84749 0.0
C914 C 0.10523 0.28366 0.84049 0.0
C915 C 0.0876 0.27958 0.85373 0.0
C916 C 0.10464 0.27191 0.8207 0.0
C917 C 0.08609 0.25613 0.81494 0.0
H918 H 0.0543 0.24095 0.82396 0.0
H919 H 0.08794 0.28874 0.86885 0.0
C920 C 0.00815 0.29572 0.92869 0.0
N921 N 0.0159 0.30172 0.9102 0.0
C922 C 0.00464 0.31239 0.94437 0.0
C923 C 0.01724 0.34136 0.92187 0.0
C924 C 0.02052 0.32405 0.90657 0.0
C925 C 0.00935 0.3356 0.94117 0.0
H926 H 0.00484 0.27785 0.93132 0.0
H927 H 0.0271 0.32853 0.892 0.0
C928 C 0.01908 0.20674 0.85409 0.0
N929 N 1.00062 0.16312 0.8429 0.0
C930 C 1.00149 0.19728 0.86511 0.0
C931 C 0.02735 0.19396 0.83744 0.0
C932 C 0.99236 0.17523 0.8592 0.0
C933 C 0.01777 0.17195 0.832 0.0
C934 C 0.97615 0.2522 0.89738 0.0
C935 C 0.96372 0.23448 0.9059 0.0
C936 C 0.96557 0.27237 0.89306 0.0
C937 C 0.94076 0.23716 0.90972 0.0
C938 C 0.94258 0.27441 0.89712 0.0
N939 N 0.93074 0.2569 0.90528 0.0
C940 C 0.0234 0.21282 0.92739 0.0
C941 C 0.04506 0.19272 0.90317 0.0
C942 C 0.02633 0.19596 0.94166 0.0
N943 N 0.03272 0.21093 0.90859 0.0
C944 C 0.0485 0.17549 0.91701 0.0
C945 C 0.0391 0.17698 0.9366 0.0
H946 H 0.01378 0.22756 0.93135 0.0
H947 H 0.05225 0.19157 0.8881 0.0
C948 C 0.9772 0.25402 0.82522 0.0
N949 N 0.97655 0.24379 0.8436 0.0
C950 C 0.95888 0.25071 0.81015 0.0
C951 C 0.93965 0.22596 0.83297 0.0
C952 C 0.9583 0.22988 0.84767 0.0
C953 C 0.93972 0.23648 0.81387 0.0
H954 H 0.992 0.26484 0.82228 0.0
H955 H 0.95824 0.22164 0.86224 0.0
O956 O 0.05059 0.26225 0.89567 0.0
O957 O 0.01902 0.27943 0.86018 0.0
O958 O 0.02835 0.2283 0.8596 0.0
O959 O 0.99859 0.24974 0.89337 0.0
H960 H 0.07704 0.27816 0.92863 0.0
H961 H 0.07156 0.22915 0.87579 0.0
H962 H 0.11518 0.26398 0.93894 0.0
H963 H 0.10969 0.21586 0.88701 0.0
H964 H 0.9738 0.33686 0.842 0.0
H965 H 0.05199 0.31042 0.85415 0.0
H966 H 0.97885 0.29736 0.85255 0.0
H967 H 0.04565 0.34959 0.84325 0.0
H968 H 0.11891 0.29624 0.84559 0.0
H969 H 0.08497 0.24632 0.80009 0.0
H970 H 0.99828 0.30711 0.95888 0.0
H971 H 0.02142 0.35899 0.91883 0.0
H972 H 0.99498 0.20681 0.87812 0.0
H973 H 0.04105 0.20094 0.82881 0.0
H974 H 0.97873 0.16774 0.86759 0.0
H975 H 0.024 0.16188 0.81913 0.0
H976 H 0.9717 0.21877 0.90941 0.0
H977 H 0.97504 0.28634 0.88676 0.0
H978 H 0.93089 0.22355 0.91622 0.0
H979 H 0.93417 0.28992 0.89381 0.0
H980 H 0.01903 0.198 0.95665 0.0
H981 H 0.05824 0.16106 0.91234 0.0
H982 H 0.95966 0.25942 0.79582 0.0
H983 H 0.92549 0.21452 0.83643 0.0
Li984 Li 0.54926 0.7581 0.36247 0.0
Li985 Li 0.52618 0.77465 0.39233 0.0
Li986 Li 0.53321 0.73247 0.38909 0.0
Li987 Li 0.50886 0.74959 0.36333 0.0
C988 C 0.5765 0.75116 0.4014 0.0
N989 N 0.61686 0.73404 0.41688 0.0
C990 C 0.5876 0.76079 0.41997 0.0
C991 C 0.58592 0.73284 0.3907 0.0
C992 C 0.60801 0.7519 0.42753 0.0
C993 C 0.60633 0.72442 0.39878 0.0
C994 C 0.51151 0.79272 0.34912 0.0
C995 C 0.47546 0.809 0.33994 0.0
N996 N 0.48422 0.81673 0.32243 0.0
C997 C 0.52021 0.80097 0.33111 0.0
C998 C 0.48901 0.79691 0.35366 0.0
C999 C 0.50613 0.81302 0.31779 0.0
C1000 C 0.56886 0.76198 0.32384 0.0
N1001 N 0.57391 0.76405 0.34482 0.0
C1002 C 0.61324 0.77387 0.33963 0.0
C1003 C 0.59555 0.77015 0.35286 0.0
C1004 C 0.60861 0.77175 0.31782 0.0
C1005 C 0.58595 0.76582 0.31003 0.0
H1006 H 0.55143 0.7576 0.31782 0.0
H1007 H 0.59919 0.77212 0.36956 0.0
C1008 C 0.53215 0.79625 0.4324 0.0
N1009 N 0.52304 0.79904 0.41282 0.0
C1010 C 0.52938 0.81256 0.44862 0.0
C1011 C 0.50752 0.83424 0.42435 0.0
C1012 C 0.5111 0.81768 0.40849 0.0
C1013 C 0.51658 0.83178 0.44487 0.0
H1014 H 0.54127 0.7811 0.43548 0.0
H1015 H 0.50385 0.81946 0.39284 0.0
C1016 C 0.52111 0.71053 0.34611 0.0
N1017 N 0.49521 0.6775 0.32127 0.0
C1018 C 0.50547 0.69583 0.35495 0.0
C1019 C 0.52378 0.70827 0.32467 0.0
C1020 C 0.49248 0.67929 0.34213 0.0
C1021 C 0.51047 0.69151 0.31237 0.0
C1022 C 0.48397 0.74433 0.40124 0.0
C1023 C 0.47659 0.72241 0.40624 0.0
C1024 C 0.46994 0.76262 0.40454 0.0
C1025 C 0.45503 0.71908 0.41404 0.0
C1026 C 0.4485 0.75857 0.41237 0.0
N1027 N 0.44154 0.73707 0.4169 0.0
C1028 C 0.53511 0.71074 0.42689 0.0
C1029 C 0.54717 0.68793 0.39843 0.0
C1030 C 0.53983 0.69362 0.44053 0.0
N1031 N 0.53889 0.70764 0.40632 0.0
C1032 C 0.55222 0.67039 0.41153 0.0
C1033 C 0.5487 0.67315 0.43295 0.0
H1034 H 0.52868 0.72669 0.43275 0.0
H1035 H 0.55012 0.68596 0.38201 0.0
C1036 C 0.48494 0.74863 0.32373 0.0
N1037 N 0.48211 0.74388 0.34388 0.0
C1038 C 0.46678 0.74505 0.30854 0.0
C1039 C 0.44321 0.73055 0.33473 0.0
C1040 C 0.46176 0.73478 0.34951 0.0
C1041 C 0.44546 0.73583 0.31388 0.0
H1042 H 0.50144 0.7552 0.31941 0.0
H1043 H 0.45988 0.73038 0.36534 0.0
O1044 O 0.5563 0.75933 0.39389 0.0
O1045 O 0.525 0.78063 0.36219 0.0
O1046 O 0.53339 0.7273 0.35837 0.0
O1047 O 0.50506 0.74792 0.39367 0.0
H1048 H 0.58062 0.77503 0.42842 0.0
H1049 H 0.57752 0.72517 0.37631 0.0
H1050 H 0.61682 0.7592 0.44187 0.0
H1051 H 0.61378 0.71022 0.39068 0.0
H1052 H 0.45795 0.81217 0.34318 0.0
H1053 H 0.53766 0.79813 0.32747 0.0
H1054 H 0.48196 0.79053 0.36743 0.0
H1055 H 0.51262 0.81943 0.30377 0.0
H1056 H 0.6304 0.77812 0.34649 0.0
H1057 H 0.58132 0.76445 0.29342 0.0
H1058 H 0.53714 0.80998 0.46398 0.0
H1059 H 0.49721 0.84844 0.42061 0.0
H1060 H 0.5032 0.69737 0.3715 0.0
H1061 H 0.53588 0.7194 0.31757 0.0
H1062 H 0.48018 0.66792 0.34875 0.0
H1063 H 0.51225 0.68966 0.29573 0.0
H1064 H 0.48735 0.70812 0.40409 0.0
H1065 H 0.47555 0.77976 0.40119 0.0
H1066 H 0.44904 0.70219 0.41787 0.0
H1067 H 0.43742 0.77255 0.41491 0.0
H1068 H 0.53714 0.69665 0.45694 0.0
H1069 H 0.55882 0.65482 0.40494 0.0
H1070 H 0.46947 0.74964 0.2928 0.0
H1071 H 0.4274 0.72282 0.3396 0.0
Li1072 Li 0.0242 0.79075 0.61542 0.0
Li1073 Li 0.99914 0.77386 0.6411 0.0
Li1074 Li 0.04119 0.76492 0.64061 0.0
Li1075 Li 0.01272 0.74824 0.61339 0.0
C1076 C 0.03291 0.81682 0.65338 0.0
N1077 N 0.04451 0.86171 0.66702 0.0
C1078 C 0.01626 0.83081 0.66096 0.0
C1079 C 0.05552 0.82558 0.653 0.0
C1080 C 0.02246 0.85347 0.66772 0.0
C1081 C 0.06102 0.84834 0.65989 0.0
C1082 C 0.97108 0.78114 0.60643 0.0
C1083 C 0.93031 0.77208 0.60415 0.0
N1084 N 0.92658 0.79386 0.59916 0.0
C1085 C 0.96685 0.80338 0.60112 0.0
C1086 C 0.95268 0.7653 0.6078 0.0
C1087 C 0.94423 0.80949 0.59755 0.0
C1088 C 0.0412 0.81311 0.58109 0.0
N1089 N 0.03074 0.8168 0.59919 0.0
C1090 C 0.03089 0.85698 0.59426 0.0
C1091 C 0.02519 0.8382 0.60568 0.0
C1092 C 0.0421 0.85376 0.57572 0.0
C1093 C 0.04702 0.83139 0.56905 0.0
H1094 H 0.04522 0.79594 0.57607 0.0
H1095 H 0.0162 0.84077 0.61967 0.0
C1096 C 0.97518 0.76579 0.67667 0.0
N1097 N 0.97501 0.77863 0.65974 0.0
C1098 C 0.95857 0.76816 0.69121 0.0
C1099 C 0.94186 0.79711 0.67081 0.0
C1100 C 0.95891 0.79427 0.65673 0.0
C1101 C 0.94149 0.78395 0.68839 0.0
H1102 H 0.9884 0.7538 0.67902 0.0
H1103 H 0.95937 0.80479 0.64355 0.0
C1104 C 0.06584 0.76257 0.60618 0.0
N1105 N 0.11182 0.75993 0.59952 0.0
C1106 C 0.07428 0.74188 0.599 0.0
C1107 C 0.08073 0.78198 0.60969 0.0
C1108 C 0.0976 0.74087 0.59581 0.0
C1109 C 0.10393 0.78029 0.6063 0.0
C1110 C 0.00612 0.72219 0.64595 0.0
C1111 C 0.02155 0.70551 0.65065 0.0
C1112 C 0.98267 0.71621 0.64327 0.0
C1113 C 0.01327 0.68297 0.65222 0.0
C1114 C 0.97505 0.69349 0.64497 0.0
N1115 N 0.99038 0.67747 0.64935 0.0
C1116 C 0.0731 0.7735 0.67541 0.0
C1117 C 0.08037 0.7408 0.654 0.0
C1118 C 0.09171 0.76959 0.68922 0.0
N1119 N 0.06784 0.75924 0.65816 0.0
C1120 C 0.0991 0.73617 0.66745 0.0
C1121 C 0.10494 0.7506 0.68545 0.0
H1122 H 0.06264 0.78777 0.67866 0.0
H1123 H 0.07554 0.72935 0.64049 0.0
C1124 C 0.98659 0.72184 0.58069 0.0
N1125 N 0.00462 0.72155 0.59509 0.0
C1126 C 0.98009 0.70243 0.56755 0.0
C1127 C 0.01107 0.68285 0.58399 0.0
C1128 C 0.01695 0.70263 0.59681 0.0
C1129 C 0.99235 0.68252 0.56912 0.0
H1130 H 0.97728 0.73718 0.57933 0.0
H1131 H 0.03134 0.70284 0.60824 0.0
O1132 O 0.02711 0.79459 0.64665 0.0
O1133 O 0.99312 0.77488 0.61 0.0
O1134 O 0.04311 0.76384 0.60963 0.0
O1135 O 0.01394 0.74429 0.64403 0.0
H1136 H 0.99873 0.8243 0.66148 0.0
H1137 H 0.06871 0.8149 0.64759 0.0
H1138 H 0.00972 0.86453 0.67351 0.0
H1139 H 0.07844 0.85536 0.65962 0.0
H1140 H 0.91591 0.76002 0.60525 0.0
H1141 H 0.98086 0.81581 0.59984 0.0
H1142 H 0.95562 0.74794 0.61162 0.0
H1143 H 0.94071 0.82668 0.59352 0.0
H1144 H 0.02637 0.87385 0.59978 0.0
H1145 H 0.0557 0.82811 0.5549 0.0
H1146 H 0.9594 0.75798 0.70471 0.0
H1147 H 0.92904 0.8094 0.66783 0.0
H1148 H 0.06297 0.72673 0.59604 0.0
H1149 H 0.07441 0.7982 0.61487 0.0
H1150 H 0.10439 0.72493 0.59039 0.0
H1151 H 0.11565 0.79517 0.60902 0.0
H1152 H 0.03974 0.70987 0.6529 0.0
H1153 H 0.97049 0.72898 0.63997 0.0
H1154 H 0.02503 0.66985 0.65571 0.0
H1155 H 0.95695 0.6886 0.64284 0.0
H1156 H 0.09564 0.78135 0.70273 0.0
H1157 H 0.10849 0.7211 0.66406 0.0
H1158 H 0.9658 0.70314 0.55609 0.0
H1159 H 0.02091 0.66787 0.58593 0.0
Li1160 Li 0.52131 0.28782 0.12109 0.0
Li1161 Li 0.49871 0.27043 0.14799 0.0
Li1162 Li 0.54099 0.26502 0.14653 0.0
Li1163 Li 0.51343 0.24476 0.12021 0.0
C1164 C 0.52712 0.317 0.15484 0.0
N1165 N 0.53128 0.36417 0.15978 0.0
C1166 C 0.50846 0.32935 0.16055 0.0
C1167 C 0.54797 0.32862 0.15185 0.0
C1168 C 0.51089 0.35319 0.16294 0.0
C1169 C 0.5497 0.35248 0.15435 0.0
C1170 C 0.46838 0.27109 0.11253 0.0
C1171 C 0.4303 0.25342 0.10587 0.0
N1172 N 0.42196 0.27432 0.10302 0.0
C1173 C 0.45947 0.29235 0.10929 0.0
C1174 C 0.45372 0.25142 0.11058 0.0
C1175 C 0.43595 0.29365 0.10459 0.0
C1176 C 0.5395 0.30968 0.08746 0.0
N1177 N 0.5251 0.31287 0.10302 0.0
C1178 C 0.51686 0.34989 0.09136 0.0
C1179 C 0.51375 0.33251 0.10512 0.0
C1180 C 0.53185 0.3471 0.07527 0.0
C1181 C 0.54322 0.32661 0.07347 0.0
H1182 H 0.54803 0.29383 0.08576 0.0
H1183 H 0.50222 0.33474 0.11742 0.0
C1184 C 0.47918 0.26246 0.18559 0.0
N1185 N 0.4753 0.27348 0.1678 0.0
C1186 C 0.4639 0.26361 0.20137 0.0
C1187 C 0.44102 0.28812 0.1807 0.0
C1188 C 0.45664 0.28621 0.16513 0.0
C1189 C 0.44454 0.27676 0.19924 0.0
H1190 H 0.49431 0.25279 0.18764 0.0
H1191 H 0.45409 0.29539 0.1512 0.0
C1192 C 0.56498 0.25916 0.11348 0.0
N1193 N 0.61093 0.25197 0.11012 0.0
C1194 C 0.57194 0.2374 0.10759 0.0
C1195 C 0.58136 0.27732 0.11739 0.0
C1196 C 0.59525 0.2341 0.10604 0.0
C1197 C 0.60452 0.27333 0.11569 0.0
C1198 C 0.50694 0.22134 0.15588 0.0
C1199 C 0.52119 0.20536 0.1644 0.0
C1200 C 0.48339 0.21607 0.15272 0.0
C1201 C 0.51165 0.18418 0.16926 0.0
C1202 C 0.4745 0.19472 0.1578 0.0
N1203 N 0.4887 0.17933 0.16586 0.0
C1204 C 0.57647 0.27829 0.17796 0.0
C1205 C 0.57894 0.24115 0.16198 0.0
C1206 C 0.59565 0.27527 0.19145 0.0
N1207 N 0.5685 0.26131 0.16363 0.0
C1208 C 0.5982 0.23743 0.1751 0.0
C1209 C 0.60672 0.25454 0.19024 0.0
H1210 H 0.56771 0.29406 0.17915 0.0
H1211 H 0.57206 0.22777 0.15071 0.0
C1212 C 0.49437 0.21806 0.08433 0.0
N1213 N 0.50758 0.21739 0.10244 0.0
C1214 C 0.49025 0.19841 0.07093 0.0
C1215 C 0.5137 0.17781 0.0949 0.0
C1216 C 0.51738 0.19784 0.10779 0.0
C1217 C 0.49993 0.17787 0.07617 0.0
H1218 H 0.48706 0.23391 0.08025 0.0
H1219 H 0.52841 0.19788 0.12191 0.0
O1220 O 0.52503 0.29366 0.15232 0.0
O1221 O 0.4914 0.2695 0.11698 0.0
O1222 O 0.54227 0.26267 0.11545 0.0
O1223 O 0.51602 0.24209 0.15085 0.0
H1224 H 0.49224 0.32065 0.16299 0.0
H1225 H 0.56264 0.31933 0.14762 0.0
H1226 H 0.49655 0.36298 0.16726 0.0
H1227 H 0.5657 0.36169 0.15198 0.0
H1228 H 0.41876 0.23833 0.10439 0.0
H1229 H 0.47055 0.30772 0.11058 0.0
H1230 H 0.46033 0.23474 0.11248 0.0
H1231 H 0.42882 0.31003 0.10221 0.0
H1232 H 0.50784 0.36544 0.09345 0.0
H1233 H 0.55462 0.3235 0.06112 0.0
H1234 H 0.46732 0.25418 0.2151 0.0
H1235 H 0.42667 0.29886 0.17841 0.0
H1236 H 0.5595 0.22319 0.10437 0.0
H1237 H 0.57625 0.2943 0.12175 0.0
H1238 H 0.60089 0.21731 0.10162 0.0
H1239 H 0.61738 0.2872 0.1188 0.0
H1240 H 0.53943 0.20921 0.16715 0.0
H1241 H 0.47207 0.22842 0.14664 0.0
H1242 H 0.5225 0.1716 0.17574 0.0
H1243 H 0.4563 0.19042 0.15539 0.0
H1244 H 0.60172 0.28903 0.20272 0.0
H1245 H 0.60592 0.22105 0.17378 0.0
H1246 H 0.47941 0.19924 0.05674 0.0
H1247 H 0.5219 0.16253 0.09939 0.0
H1248 H 0.28802 0.75322 0.84841 0.0
H1249 H 0.21485 0.73885 0.84594 0.0
H1250 H 0.21246 0.76248 0.87814 0.0
H1251 H 0.23097 0.78781 0.90684 0.0
H1252 H 0.30413 0.80219 0.90944 0.0
H1253 H 0.30671 0.77777 0.8777 0.0
C1254 C 0.2716 0.75503 0.85505 0.0
C1255 C 0.25164 0.74437 0.84461 0.0
C1256 C 0.27031 0.7687 0.87366 0.0
C1257 C 0.23046 0.74713 0.8534 0.0
C1258 C 0.22907 0.76059 0.87189 0.0
C1259 C 0.24746 0.78571 0.9004 0.0
C1260 C 0.26731 0.79687 0.91058 0.0
C1261 C 0.24884 0.77165 0.88206 0.0
C1262 C 0.28859 0.79363 0.90212 0.0
C1263 C 0.29008 0.77974 0.88388 0.0
H1264 H 0.02694 0.55081 0.41641 0.0
H1265 H 0.9992 0.48118 0.40691 0.0
H1266 H 0.02057 0.47569 0.3758 0.0
H1267 H 0.04712 0.4905 0.35138 0.0
H1268 H 0.07631 0.55961 0.36138 0.0
H1269 H 0.05412 0.56557 0.39194 0.0
C1270 C 0.02555 0.53448 0.4075 0.0
C1271 C 0.01149 0.5164 0.41393 0.0
C1272 C 0.03808 0.53136 0.38966 0.0
C1273 C 0.00994 0.49532 0.40225 0.0
C1274 C 0.02214 0.49217 0.38447 0.0
C1275 C 0.04888 0.50681 0.36035 0.0
C1276 C 0.06347 0.52453 0.35402 0.0
C1277 C 0.03633 0.51002 0.37808 0.0
C1278 C 0.06504 0.54571 0.36566 0.0
C1279 C 0.05245 0.54911 0.38325 0.0
H1280 H 0.76639 0.77775 0.84466 0.0
H1281 H 0.84033 0.78391 0.84992 0.0
H1282 H 0.841 0.7619 0.88091 0.0
H1283 H 0.82075 0.74085 0.90669 0.0
H1284 H 0.74681 0.73431 0.9015 0.0
H1285 H 0.74604 0.75681 0.87076 0.0
C1286 C 0.78264 0.77442 0.85268 0.0
C1287 C 0.80327 0.78236 0.84476 0.0
C1288 C 0.78294 0.76172 0.87064 0.0
C1289 C 0.82417 0.7777 0.85535 0.0
C1290 C 0.82459 0.7652 0.87319 0.0
C1291 C 0.80445 0.74416 0.89876 0.0
C1292 C 0.78389 0.73583 0.90654 0.0
C1293 C 0.8041 0.75701 0.88093 0.0
C1294 C 0.76294 0.7407 0.89614 0.0
C1295 C 0.76246 0.75349 0.87843 0.0
H1296 H 0.06495 1.00492 0.39367 0.0
H1297 H 0.00775 0.98374 0.42848 0.0
H1298 H 0.98147 0.98797 0.39813 0.0
H1299 H 0.97459 0.99787 0.36172 0.0
H1300 H 0.0316 0.02204 0.32806 0.0
H1301 H 0.05791 0.01652 0.35798 0.0
C1302 C 0.04671 1.00152 0.39481 0.0
C1303 C 0.03849 0.99397 0.4135 0.0
C1304 C 0.03156 1.00447 0.37742 0.0
C1305 C 0.01476 0.9892 0.41431 0.0
C1306 C 0.99963 0.99179 0.39696 0.0
C1307 C 0.99271 1.00223 0.36095 0.0
C1308 C 1.00095 0.01024 0.34242 0.0
C1309 C 0.00783 0.99946 0.37844 0.0
C1310 C 0.02465 0.01539 0.34181 0.0
C1311 C 0.03977 0.01242 0.35903 0.0
H1312 H 0.25542 0.30374 0.64972 0.0
H1313 H 0.24761 0.24508 0.68662 0.0
H1314 H 0.25254 0.21962 0.65605 0.0
H1315 H 0.25987 0.2139 0.61898 0.0
H1316 H 0.268 0.27249 0.58208 0.0
H1317 H 0.26277 0.298 0.61259 0.0
C1318 C 0.25498 0.2854 0.65114 0.0
C1319 C 0.25106 0.27642 0.67052 0.0
C1320 C 0.25806 0.27079 0.6335 0.0
C1321 C 0.25022 0.25254 0.6719 0.0
C1322 C 0.25321 0.23793 0.65443 0.0
C1323 C 0.26029 0.23224 0.61754 0.0
C1324 C 0.26436 0.24119 0.59819 0.0
C1325 C 0.25715 0.24685 0.63515 0.0
C1326 C 0.26521 0.26507 0.59678 0.0
C1327 C 0.26207 0.2797 0.61422 0.0
H1328 H 0.50869 0.54315 0.58713 0.0
H1329 H 0.57267 0.52963 0.62002 0.0
H1330 H 0.55341 0.52735 0.65253 0.0
H1331 H 0.51811 0.5288 0.67167 0.0
H1332 H 0.45424 0.54188 0.63837 0.0
H1333 H 0.47372 0.54494 0.60615 0.0
C1334 C 0.51849 0.53992 0.60144 0.0
C1335 C 0.54214 0.53661 0.60107 0.0
C1336 C 0.50728 0.53855 0.62008 0.0
C1337 C 0.55442 0.53203 0.61976 0.0
C1338 C 0.54343 0.53084 0.6384 0.0
C1339 C 0.50853 0.53253 0.65739 0.0
C1340 C 0.48472 0.53507 0.65746 0.0
C1341 C 0.51984 0.53404 0.63877 0.0
C1342 C 0.47251 0.53962 0.63874 0.0
C1343 C 0.48366 0.54143 0.62029 0.0
H1344 H 0.78826 0.24401 0.65297 0.0
H1345 H 0.8156 0.30377 0.69045 0.0
H1346 H 0.80972 0.32734 0.66074 0.0
H1347 H 0.79683 0.33113 0.62419 0.0
H1348 H 0.76986 0.27163 0.5862 0.0
H1349 H 0.77578 0.2478 0.61587 0.0
C1350 C 0.79289 0.26218 0.65461 0.0
C1351 C 0.80224 0.27218 0.67393 0.0
C1352 C 0.7896 0.27568 0.63734 0.0
C1353 C 0.80832 0.29571 0.67575 0.0
C1354 C 0.80496 0.30921 0.65877 0.0
C1355 C 0.79208 0.31297 0.62244 0.0
C1356 C 0.7828 0.30322 0.60303 0.0
C1357 C 0.79557 0.2994 0.63952 0.0
C1358 C 0.77718 0.27956 0.60093 0.0
C1359 C 0.78046 0.26594 0.61792 0.0
H1360 H 0.49954 0.95848 0.5973 0.0
H1361 H 0.50471 0.03178 0.59398 0.0
H1362 H 0.52928 0.03542 0.62634 0.0
H1363 H 0.55063 0.01767 0.65478 0.0
H1364 H 0.54492 0.94434 0.6583 0.0
H1365 H 0.51976 0.94085 0.62642 0.0
C1366 C 0.50611 0.97526 0.60361 0.0
C1367 C 0.50032 0.99482 0.59313 0.0
C1368 C 0.52035 0.97722 0.62217 0.0
C1369 C 0.50869 0.01645 0.60177 0.0
C1370 C 0.52288 0.01853 0.62022 0.0
C1371 C 0.54366 1.00092 0.64878 0.0
C1372 C 0.54988 0.98129 0.659 0.0
C1373 C 0.52895 0.99902 0.63049 0.0
C1374 C 0.54086 0.95974 0.65067 0.0
C1375 C 0.5263 0.95772 0.63247 0.0
H1376 H 0.86751 0.21945 0.73601 0.0
H1377 H 0.82071 0.21918 0.78509 0.0
H1378 H 0.85276 0.22634 0.81132 0.0
H1379 H 0.89405 0.23266 0.82032 0.0
H1380 H 0.94109 0.23142 0.77132 0.0
H1381 H 0.90902 0.22537 0.74512 0.0
C1382 C 0.86436 0.22115 0.75245 0.0
C1383 C 0.84179 0.21877 0.75861 0.0
C1384 C 0.88291 0.22507 0.76747 0.0
C1385 C 0.83796 0.22073 0.77997 0.0
C1386 C 0.85627 0.2249 0.79497 0.0
C1387 C 0.89735 0.23082 0.80394 0.0
C1388 C 0.92005 0.23257 0.79791 0.0
C1389 C 0.87883 0.22697 0.78891 0.0
C1390 C 0.92385 0.23054 0.7765 0.0
C1391 C 0.9055 0.22691 0.76146 0.0
H1392 H 0.4976 0.88987 0.52771 0.0
H1393 H 0.49651 0.94408 0.48531 0.0
H1394 H 0.50471 0.91713 0.4566 0.0
H1395 H 0.51241 0.87817 0.44363 0.0
H1396 H 0.51038 0.82346 0.48574 0.0
H1397 H 0.50368 0.85063 0.51441 0.0
C1398 C 0.49918 0.89573 0.51216 0.0
C1399 C 0.49646 0.91887 0.50862 0.0
C1400 C 0.50351 0.88008 0.49567 0.0
C1401 C 0.49843 0.92631 0.48842 0.0
C1402 C 0.50316 0.91091 0.472 0.0
C1403 C 0.51023 0.87205 0.45898 0.0
C1404 C 0.51219 0.84865 0.46234 0.0
C1405 C 0.50568 0.88772 0.47543 0.0
C1406 C 0.50961 0.84134 0.48258 0.0
C1407 C 0.50552 0.85687 0.49905 0.0
H1408 H 0.17048 0.2879 0.74761 0.0
H1409 H 0.22039 0.29884 0.79999 0.0
H1410 H 0.19068 0.29111 0.82404 0.0
H1411 H 0.15061 0.28114 0.83021 0.0
H1412 H 0.10012 0.27263 0.77797 0.0
H1413 H 0.12996 0.27909 0.75395 0.0
C1414 C 0.17484 0.28849 0.76428 0.0
C1415 C 0.19763 0.29377 0.77204 0.0
C1416 C 0.15756 0.28436 0.77807 0.0
C1417 C 0.20296 0.29474 0.79368 0.0
C1418 C 0.18599 0.29033 0.80743 0.0
C1419 C 0.14599 0.28096 0.81361 0.0
C1420 C 0.123 0.27623 0.80606 0.0
C1421 C 0.1632 0.28518 0.79982 0.0
C1422 C 0.11764 0.27573 0.78436 0.0
C1423 C 0.13471 0.27962 0.77054 0.0
H1424 H 0.59058 0.59691 0.4873 0.0
H1425 H 0.52899 0.6062 0.51943 0.0
H1426 H 0.51748 0.63506 0.4954 0.0
H1427 H 0.52503 0.65774 0.46518 0.0
H1428 H 0.58686 0.64822 0.43332 0.0
H1429 H 0.59797 0.61922 0.45711 0.0
C1430 C 0.57462 0.60527 0.48902 0.0
C1431 C 0.56071 0.59948 0.50513 0.0
C1432 C 0.5681 0.62175 0.47512 0.0
C1433 C 0.54005 0.61035 0.50717 0.0
C1434 C 0.53345 0.62687 0.49343 0.0
C1435 C 0.541 0.64941 0.46351 0.0
C1436 C 0.55504 0.65516 0.44739 0.0
C1437 C 0.54737 0.63274 0.47735 0.0
C1438 C 0.57553 0.64394 0.44534 0.0
C1439 C 0.582 0.62744 0.45904 0.0
H1440 H 0.86798 0.81222 0.75218 0.0
H1441 H 0.86654 0.73979 0.76066 0.0
H1442 H 0.89498 0.7348 0.73477 0.0
H1443 H 0.92005 0.75092 0.70962 0.0
H1444 H 0.92275 0.82365 0.70214 0.0
H1445 H 0.89376 0.82849 0.72739 0.0
C1446 C 0.87386 0.79535 0.74834 0.0
C1447 C 0.86511 0.77635 0.75828 0.0
C1448 C 0.89036 0.79262 0.73351 0.0
C1449 C 0.87302 0.75465 0.7532 0.0
C1450 C 0.88926 0.75178 0.73839 0.0
C1451 C 0.91453 0.7679 0.71364 0.0
C1452 C 0.92367 0.78685 0.70384 0.0
C1453 C 0.89808 0.77065 0.72846 0.0
C1454 C 0.91585 0.80864 0.70908 0.0
C1455 C 0.89935 0.81148 0.72369 0.0
H1456 H 0.07573 0.94617 0.53818 0.0
H1457 H 0.04979 0.9092 0.48091 0.0
H1458 H 0.0394 0.87598 0.50021 0.0
H1459 H 0.03717 0.85748 0.53354 0.0
H1460 H 0.0623 0.89484 0.59089 0.0
H1461 H 0.07332 0.92777 0.5715 0.0
C1462 C 0.06783 0.9308 0.52996 0.0
C1463 C 0.06354 0.9302 0.50817 0.0
C1464 C 0.06166 0.91182 0.5412 0.0
C1465 C 0.05323 0.9102 0.49769 0.0
C1466 C 0.04729 0.89116 0.50872 0.0
C1467 C 0.0452 0.87278 0.54176 0.0
C1468 C 0.04887 0.87367 0.56366 0.0
C1469 C 0.05137 0.89177 0.5305 0.0
C1470 C 0.05904 0.89376 0.57409 0.0
C1471 C 0.06545 0.91258 0.56299 0.0
H1472 H 0.17724 0.73514 0.76021 0.0
H1473 H 0.21683 0.71322 0.70915 0.0
H1474 H 0.18526 0.72094 0.68416 0.0
H1475 H 0.14661 0.73447 0.67683 0.0
H1476 H 0.10675 0.75534 0.72813 0.0
H1477 H 0.13832 0.7478 0.75292 0.0
C1478 C 0.17899 0.73205 0.74362 0.0
C1479 C 0.1994 0.72369 0.73651 0.0
C1480 C 0.16074 0.73648 0.72936 0.0
C1481 C 0.20129 0.71968 0.71497 0.0
C1482 C 0.18325 0.72411 0.70069 0.0
C1483 C 0.14471 0.73716 0.69343 0.0
C1484 C 0.12428 0.74562 0.7005 0.0
C1485 C 0.1629 0.73254 0.70769 0.0
C1486 C 0.12236 0.74927 0.72213 0.0
C1487 C 0.14038 0.74479 0.73638 0.0
H1488 H 0.94877 0.5974 0.51214 0.0
H1489 H 0.02034 0.58612 0.50575 0.0
H1490 H 0.03121 0.62025 0.5284 0.0
H1491 H 0.02056 0.65347 0.54993 0.0
H1492 H 0.94908 0.66447 0.55714 0.0
H1493 H 0.93809 0.6304 0.5343 0.0
C1494 C 0.96674 0.60231 0.51583 0.0
C1495 C 0.98368 0.58921 0.5071 0.0
C1496 C 0.97293 0.62198 0.529 0.0
C1497 C 0.00691 0.59603 0.51192 0.0
C1498 C 0.01317 0.6155 0.525 0.0
C1499 C 1.00257 0.64831 0.5467 0.0
C1500 C 0.98571 0.6616 0.55529 0.0
C1501 C 0.99635 0.62863 0.53361 0.0
C1502 C 0.96246 0.65479 0.55057 0.0
C1503 C 0.95614 0.63521 0.53759 0.0
H1504 H 0.78512 0.86156 0.18718 0.0
H1505 H 0.78712 0.84527 0.25179 0.0
H1506 H 0.81276 0.87883 0.2614 0.0
H1507 H 0.83471 0.91283 0.25156 0.0
H1508 H 0.83371 0.92856 0.18683 0.0
H1509 H 0.80762 0.8953 0.17725 0.0
C1510 C 0.79132 0.86524 0.20334 0.0
C1511 C 0.78409 0.8509 0.21872 0.0
C1512 C 0.80621 0.88454 0.20878 0.0
C1513 C 0.79209 0.85616 0.23964 0.0
C1514 C 0.80688 0.87529 0.24516 0.0
C1515 C 0.82897 0.90889 0.23533 0.0
C1516 C 0.8362 0.92327 0.21998 0.0
C1517 C 0.81407 0.88961 0.22987 0.0
C1518 C 0.82822 0.91803 0.19905 0.0
C1519 C 0.81339 0.8989 0.19351 0.0
H1520 H 0.77011 0.1644 0.28193 0.0
H1521 H 0.82279 0.21242 0.31057 0.0
H1522 H 0.85208 0.18565 0.30225 0.0
H1523 H 0.86291 0.14886 0.28588 0.0
H1524 H 0.80993 0.10157 0.25662 0.0
H1525 H 0.78078 0.12802 0.26565 0.0
C1526 C 0.78801 0.16918 0.28618 0.0
C1527 C 0.79413 0.19053 0.29683 0.0
C1528 C 0.80481 0.15386 0.28107 0.0
C1529 C 0.81745 0.19606 0.30259 0.0
C1530 C 0.83427 0.1808 0.2977 0.0
C1531 C 0.84498 0.1443 0.28159 0.0
C1532 C 0.83871 0.12326 0.27042 0.0
C1533 C 0.82817 0.15967 0.28686 0.0
C1534 C 0.81536 0.11776 0.26487 0.0
C1535 C 0.79862 0.13283 0.27016 0.0
H1536 H 0.42367 0.01552 0.95299 0.0
H1537 H 0.44808 0.02478 0.01784 0.0
H1538 H 0.41791 0.9978 0.02713 0.0
H1539 H 0.38421 0.97194 0.01699 0.0
H1540 H 0.36072 0.96154 0.95197 0.0
H1541 H 0.39088 0.98853 0.94268 0.0
C1542 C 0.42258 0.01144 0.96913 0.0
C1543 C 0.43812 0.02231 0.98467 0.0
C1544 C 0.40525 0.99575 0.97438 0.0
C1545 C 0.43617 0.017 0.00556 0.0
C1546 C 0.41898 1.00145 0.01089 0.0
C1547 C 0.38582 0.97534 1.00075 0.0
C1548 C 0.37006 0.96474 0.98525 0.0
C1549 C 0.40337 0.99078 0.99545 0.0
C1550 C 0.3723 0.9697 0.96431 0.0
C1551 C 0.38966 0.98505 0.95894 0.0
H1552 H 0.25365 0.33506 0.2659 0.0
H1553 H 0.25967 0.35259 0.3322 0.0
H1554 H 0.23437 0.38398 0.32733 0.0
H1555 H 0.21108 0.407 0.3042 0.0
H1556 H 0.20645 0.39042 0.23775 0.0
H1557 H 0.23066 0.35824 0.24277 0.0
C1558 C 0.2496 0.34584 0.27929 0.0
C1559 C 0.25866 0.34137 0.2994 0.0
C1560 C 0.23525 0.36409 0.27636 0.0
C1561 C 0.25277 0.35534 0.31657 0.0
C1562 C 0.23842 0.37344 0.31379 0.0
C1563 C 0.21551 0.39649 0.29077 0.0
C1564 C 0.20687 0.40124 0.27061 0.0
C1565 C 0.22966 0.37807 0.29374 0.0
C1566 C 0.21253 0.38708 0.25347 0.0
C1567 C 0.22652 0.36872 0.25631 0.0
H1568 H 0.10942 0.02385 0.49059 0.0
H1569 H 0.11727 0.01882 0.42425 0.0
H1570 H 0.15071 0.04551 0.42891 0.0
H1571 H 0.17733 0.07097 0.45157 0.0
H1572 H 0.17065 0.07519 0.51808 0.0
H1573 H 0.13722 0.04835 0.51355 0.0
C1574 C 0.11859 0.02842 0.47718 0.0
C1575 C 0.11062 0.01945 0.45707 0.0
C1576 C 0.13799 0.0438 0.47996 0.0
C1577 C 0.12268 0.02575 0.43988 0.0
C1578 C 0.14192 0.04095 0.44252 0.0
C1579 C 0.16878 0.06584 0.46514 0.0
C1580 C 0.17658 0.07527 0.48513 0.0
C1581 C 0.14966 0.0502 0.46246 0.0
C1582 C 0.1649 0.06859 0.50245 0.0
C1583 C 0.14583 0.05308 0.49989 0.0
H1584 H 0.7677 0.15755 0.70357 0.0
H1585 H 0.76693 0.18391 0.76753 0.0
H1586 H 0.74008 0.15265 0.77474 0.0
H1587 H 0.71725 0.11746 0.76312 0.0
H1588 H 0.7184 0.09053 0.69934 0.0
H1589 H 0.74424 0.1225 0.69176 0.0
C1590 C 0.76144 0.15656 0.71901 0.0
C1591 C 0.76942 0.17297 0.73501 0.0
C1592 C 0.74605 0.13841 0.7231 0.0
C1593 C 0.76131 0.17133 0.755 0.0
C1594 C 0.74589 0.1535 0.75913 0.0
C1595 C 0.72329 0.11847 0.7476 0.0
C1596 C 0.71587 0.10154 0.73186 0.0
C1597 C 0.73832 0.13681 0.74337 0.0
C1598 C 0.72358 0.10341 0.71172 0.0
C1599 C 0.73848 0.12165 0.70739 0.0
H1600 H 0.4552 0.05203 0.55551 0.0
H1601 H 0.41252 0.99247 0.53302 0.0
H1602 H 0.38106 0.01661 0.52398 0.0
H1603 H 0.36586 0.05463 0.52155 0.0
H1604 H 0.40823 0.11447 0.54385 0.0
H1605 H 0.43954 0.09033 0.55369 0.0
C1606 C 0.43893 0.04436 0.54882 0.0
C1607 C 0.43628 0.02047 0.54487 0.0
C1608 C 0.42087 0.05842 0.54346 0.0
C1609 C 0.41513 0.01082 0.53599 0.0
C1610 C 0.39709 0.02461 0.53086 0.0
C1611 C 0.38185 0.06241 0.52877 0.0
C1612 C 0.38461 0.08638 0.53193 0.0
C1613 C 0.3998 0.04843 0.53438 0.0
C1614 C 0.40566 0.09611 0.54098 0.0
C1615 C 0.42356 0.0823 0.54674 0.0
H1616 H 0.61619 0.50706 0.58017 0.0
H1617 H 0.58152 0.49916 0.51876 0.0
H1618 H 0.61 0.47298 0.50727 0.0
H1619 H 0.64578 0.45362 0.51415 0.0
H1620 H 0.68053 0.46145 0.57556 0.0
H1621 H 0.65115 0.4863 0.58748 0.0
C1622 C 0.61472 0.49936 0.56437 0.0
C1623 C 0.59681 0.50519 0.55033 0.0
C1624 C 0.63132 0.48443 0.55777 0.0
C1625 C 0.59529 0.49522 0.52982 0.0
C1626 C 0.61155 0.48019 0.52324 0.0
C1627 C 0.64679 0.46052 0.53021 0.0
C1628 C 0.66549 0.45573 0.54386 0.0
C1629 C 0.62981 0.47487 0.53699 0.0
C1630 C 0.66659 0.46511 0.56458 0.0
C1631 C 0.6497 0.47925 0.57147 0.0
H1632 H 0.74259 0.27693 0.33464 0.0
H1633 H 0.77812 0.2232 0.36411 0.0
H1634 H 0.78 0.24541 0.39735 0.0
H1635 H 0.77158 0.27998 0.41825 0.0
H1636 H 0.73063 0.33056 0.38966 0.0
H1637 H 0.73079 0.30941 0.35612 0.0
C1638 C 0.75035 0.26964 0.34829 0.0
C1639 C 0.76032 0.24822 0.34642 0.0
C1640 C 0.7505 0.28203 0.36772 0.0
C1641 C 0.77079 0.23977 0.36457 0.0
C1642 C 0.77166 0.2524 0.38379 0.0
C1643 C 0.76225 0.28632 0.40489 0.0
C1644 C 0.7514 0.30728 0.40684 0.0
C1645 C 0.76154 0.27355 0.38557 0.0
C1646 C 0.73983 0.31502 0.3889 0.0
C1647 C 0.73966 0.30276 0.36958 0.0
H1648 H 0.53548 0.04307 0.91784 0.0
H1649 H 0.47399 0.0197 0.88054 0.0
H1650 H 0.49629 0.01321 0.8501 0.0
H1651 H 0.53333 0.01379 0.8341 0.0
H1652 H 0.59508 0.03586 0.87157 0.0
H1653 H 0.57271 0.04314 0.90189 0.0
C1654 C 0.52697 0.03664 0.90303 0.0
C1655 C 0.50308 0.032 0.90138 0.0
C1656 C 0.53998 0.03266 0.88563 0.0
C1657 C 0.49235 0.02344 0.88215 0.0
C1658 C 0.50509 0.01974 0.86474 0.0
C1659 C 0.54185 0.02036 0.84887 0.0
C1660 C 0.56582 0.02436 0.85056 0.0
C1661 C 0.52891 0.02427 0.86629 0.0
C1662 C 0.57666 0.03251 0.8699 0.0
C1663 C 0.56387 0.03675 0.88722 0.0
H1664 H 0.32274 0.27651 0.34914 0.0
H1665 H 0.24941 0.27186 0.33577 0.0
H1666 H 0.24481 0.24807 0.36522 0.0
H1667 H 0.26143 0.22857 0.39489 0.0
H1668 H 0.33469 0.23366 0.40884 0.0
H1669 H 0.33944 0.25671 0.3789 0.0
C1670 C 0.30577 0.27013 0.35257 0.0
C1671 C 0.28645 0.27616 0.34027 0.0
C1672 C 0.3032 0.2564 0.36964 0.0
C1673 C 0.26458 0.26786 0.34512 0.0
C1674 C 0.26192 0.25412 0.36192 0.0
C1675 C 0.27844 0.23486 0.39154 0.0
C1676 C 0.29764 0.22926 0.40425 0.0
C1677 C 0.28107 0.24838 0.37438 0.0
C1678 C 0.31957 0.23733 0.39928 0.0
C1679 C 0.32232 0.25069 0.38219 0.0
H1680 H 0.50752 0.48789 0.931 0.0
H1681 H 0.57191 0.49081 0.90205 0.0
H1682 H 0.55193 0.49571 0.86822 0.0
H1683 H 0.51631 0.50068 0.84701 0.0
H1684 H 0.45184 0.49893 0.8759 0.0
H1685 H 0.47159 0.49222 0.90947 0.0
C1686 C 0.51709 0.48936 0.91722 0.0
C1687 C 0.54115 0.48902 0.91903 0.0
C1688 C 0.50548 0.49259 0.8978 0.0
C1689 C 0.55339 0.49119 0.90108 0.0
C1690 C 0.54198 0.49397 0.88172 0.0
C1691 C 0.50656 0.49859 0.86061 0.0
C1692 C 0.48263 0.50035 0.85891 0.0
C1693 C 0.51805 0.49493 0.87992 0.0
C1694 C 0.47031 0.49793 0.87679 0.0
C1695 C 0.48158 0.49397 0.896 0.0
H1696 H 0.72509 0.77689 0.1606 0.0
H1697 H 0.79763 0.78133 0.17818 0.0
H1698 H 0.80481 0.75793 0.14689 0.0
H1699 H 0.79067 0.73647 0.11431 0.0
H1700 H 0.71822 0.73247 0.09622 0.0
H1701 H 0.71085 0.75496 0.12801 0.0
C1702 C 0.74244 0.77254 0.15767 0.0
C1703 C 0.76079 0.781 0.17169 0.0
C1704 C 0.74649 0.75909 0.13953 0.0
C1705 C 0.7832 0.77535 0.16753 0.0
C1706 C 0.78733 0.76188 0.14966 0.0
C1707 C 0.77327 0.74066 0.1172 0.0
C1708 C 0.75506 0.73273 0.10279 0.0
C1709 C 0.76915 0.75381 0.13545 0.0
C1710 C 0.73259 0.73805 0.10709 0.0
C1711 C 0.72834 0.75105 0.12524 0.0
H1712 H 0.04262 0.0678 0.09646 0.0
H1713 H 0.0389 0.99445 0.08437 0.0
H1714 H 0.016 0.99005 0.1143 0.0
H1715 H 0.99663 0.00681 0.14373 0.0
H1716 H 0.99778 0.08026 0.15436 0.0
H1717 H 0.02204 0.08468 0.12528 0.0
C1718 C 0.03662 0.05083 0.10017 0.0
C1719 C 0.04273 0.03151 0.08805 0.0
C1720 C 0.02298 0.04838 0.11726 0.0
C1721 C 0.03499 0.00967 0.09351 0.0
C1722 C 0.02167 0.00711 0.11058 0.0
C1723 C 1.00188 0.02385 0.13959 0.0
C1724 C 0.99523 0.04315 0.15141 0.0
C1725 C 0.0155 0.02633 0.12254 0.0
C1726 C 1.0028 0.06501 0.14591 0.0
C1727 C 0.01658 0.06759 0.12911 0.0
H1728 H 0.34429 0.76945 0.15881 0.0
H1729 H 0.27332 0.75111 0.16696 0.0
H1730 H 0.26144 0.77416 0.13814 0.0
H1731 H 0.27122 0.79984 0.11075 0.0
H1732 H 0.3424 0.81682 0.10175 0.0
H1733 H 0.35409 0.79436 0.13088 0.0
C1734 C 0.32623 0.77052 0.15423 0.0
C1735 C 0.30975 0.75858 0.16498 0.0
C1736 C 0.31952 0.78369 0.13755 0.0
C1737 C 0.28639 0.76006 0.15891 0.0
C1738 C 0.27957 0.77328 0.14243 0.0
C1739 C 0.2893 0.79846 0.11498 0.0
C1740 C 0.30584 0.81022 0.10402 0.0
C1741 C 0.29599 0.78516 0.13161 0.0
C1742 C 0.3292 0.80841 0.11006 0.0
C1743 C 0.33596 0.79539 0.12666 0.0
H1744 H 0.98423 0.51026 0.10795 0.0
H1745 H 0.03735 0.49058 0.06805 0.0
H1746 H 0.06415 0.48876 0.09842 0.0
H1747 H 0.07232 0.49152 0.13627 0.0
H1748 H 0.02017 0.51361 0.17632 0.0
H1749 H 0.99328 0.51544 0.146 0.0
C1750 C 1.00175 0.50589 0.10587 0.0
C1751 C 0.00859 0.5003 0.08568 0.0
C1752 C 0.01726 0.50505 0.12347 0.0
C1753 C 0.03138 0.49449 0.08338 0.0
C1754 C 0.04681 0.49355 0.10076 0.0
C1755 C 0.05521 0.49708 0.13846 0.0
C1756 C 0.04842 0.50224 0.15875 0.0
C1757 C 0.03989 0.49857 0.12089 0.0
C1758 C 0.0259 0.50901 0.16105 0.0
C1759 C 0.01049 0.51029 0.14365 0.0
H1760 H 0.37377 0.71265 0.23627 0.0
H1761 H 0.32633 0.72673 0.28326 0.0
H1762 H 0.35829 0.73606 0.30936 0.0
H1763 H 0.39963 0.73957 0.31884 0.0
H1764 H 0.44705 0.72201 0.27244 0.0
H1765 H 0.41531 0.71515 0.24609 0.0
C1766 C 0.37055 0.71796 0.25221 0.0
C1767 C 0.34786 0.71919 0.2579 0.0
C1768 C 0.38899 0.7227 0.26722 0.0
C1769 C 0.34373 0.72574 0.27861 0.0
C1770 C 0.36197 0.73104 0.29349 0.0
C1771 C 0.40311 0.73397 0.30305 0.0
C1772 C 0.4259 0.73147 0.29778 0.0
C1773 C 0.38468 0.72937 0.28802 0.0
C1774 C 0.42986 0.7246 0.27702 0.0
C1775 C 0.41165 0.72045 0.2619 0.0
H1776 H 1.00376 0.39941 0.02324 0.0
H1777 H 0.97495 0.44427 0.97898 0.0
H1778 H 0.97974 0.41582 0.95038 0.0
H1779 H 0.99182 0.37783 0.93804 0.0
H1780 H 0.02121 0.33358 0.9827 0.0
H1781 H 0.01633 0.36202 0.01098 0.0
C1782 C 0.99853 0.40293 0.00731 0.0
C1783 C 0.98899 0.42384 1.00324 0.0
C1784 C 1.00137 0.38655 0.991 0.0
C1785 C 0.98232 0.42827 0.98255 0.0
C1786 C 0.98506 0.412 0.96619 0.0
C1787 C 0.99733 0.3745 0.95393 0.0
C1788 C 0.00671 0.35346 0.95819 0.0
C1789 C 0.99457 0.39105 0.97023 0.0
C1790 C 0.01355 0.34939 0.97895 0.0
C1791 C 0.0109 0.36572 0.99516 0.0
H1792 H 0.6809 0.77691 0.24829 0.0
H1793 H 0.7124 0.82841 0.29321 0.0
H1794 H 0.68108 0.82268 0.31592 0.0
H1795 H 0.64497 0.80309 0.3232 0.0
H1796 H 0.61432 0.74965 0.27968 0.0
H1797 H 0.64472 0.75641 0.25618 0.0
C1798 C 0.68081 0.7869 0.26301 0.0
C1799 C 0.6989 0.80313 0.26906 0.0
C1800 C 0.66284 0.78324 0.27624 0.0
C1801 C 0.69866 0.81582 0.28824 0.0
C1802 C 0.68075 0.81256 0.30124 0.0
C1803 C 0.64501 0.79265 0.30874 0.0
C1804 C 0.62723 0.77585 0.30338 0.0
C1805 C 0.66282 0.79625 0.29547 0.0
C1806 C 0.62749 0.76295 0.28421 0.0
C1807 C 0.64501 0.76668 0.27077 0.0
H1808 H 0.04005 0.10302 1.00478 0.0
H1809 H 0.11036 0.10102 0.98869 0.0
H1810 H 0.10391 0.12979 0.96334 0.0
H1811 H 0.07851 0.15579 0.94591 0.0
H1812 H 0.00809 0.15797 0.96163 0.0
H1813 H 0.0144 0.12912 0.98702 0.0
C1814 C 0.05393 0.10891 0.99573 0.0
C1815 C 0.07568 0.09992 0.99862 0.0
C1816 C 0.0501 0.12555 0.98113 0.0
C1817 C 0.09348 0.10772 0.98676 0.0
C1818 C 0.08981 0.12416 0.97225 0.0
C1819 C 0.06446 0.14979 0.95472 0.0
C1820 C 0.04286 0.15906 0.9518 0.0
C1821 C 0.0682 0.13319 0.96928 0.0
C1822 C 0.02498 0.15134 0.96368 0.0
C1823 C 0.02854 0.13474 0.97815 0.0
H1824 H 0.39083 0.28371 0.28187 0.0
H1825 H 0.33365 0.28836 0.23689 0.0
H1826 H 0.35917 0.28492 0.20838 0.0
H1827 H 0.39779 0.28035 0.19617 0.0
H1828 H 0.45533 0.27843 0.24149 0.0
H1829 H 0.42966 0.2807 0.2697 0.0
C1830 C 0.384 0.28393 0.2658 0.0
C1831 C 0.36042 0.28627 0.26152 0.0
C1832 C 0.39885 0.28232 0.24947 0.0
C1833 C 0.35177 0.28667 0.24065 0.0
C1834 C 0.36636 0.28467 0.22431 0.0
C1835 C 0.40483 0.2807 0.21219 0.0
C1836 C 0.4286 0.27893 0.21648 0.0
C1837 C 0.38997 0.28255 0.22853 0.0
C1838 C 0.43715 0.27916 0.23749 0.0
C1839 C 0.42247 0.28066 0.25374 0.0
H1840 H 0.53253 0.42479 0.01039 0.0
H1841 H 0.60489 0.41363 0.01601 0.0
H1842 H 0.59834 0.3844 0.04072 0.0
H1843 H 0.57231 0.36212 0.06099 0.0
H1844 H 0.49993 0.37315 0.05618 0.0
H1845 H 0.50623 0.40242 0.03124 0.0
C1846 C 0.5468 0.41588 0.01698 0.0
C1847 C 0.56918 0.42127 0.01127 0.0
C1848 C 0.54294 0.39914 0.03146 0.0
C1849 C 0.58752 0.40973 0.02011 0.0
C1850 C 0.5838 0.39302 0.03426 0.0
C1851 C 0.55787 0.37079 0.05438 0.0
C1852 C 0.53567 0.36532 0.06042 0.0
C1853 C 0.56161 0.38758 0.04007 0.0
C1854 C 0.51723 0.37711 0.05197 0.0
C1855 C 0.52081 0.39378 0.03759 0.0
H1856 H 0.68229 0.24363 0.26363 0.0
H1857 H 0.71571 0.21057 0.21312 0.0
H1858 H 0.68346 0.21771 0.18873 0.0
H1859 H 0.6459 0.23354 0.18166 0.0
H1860 H 0.61228 0.26648 0.23213 0.0
H1861 H 0.64456 0.25951 0.2565 0.0
C1862 C 0.6825 0.23797 0.2473 0.0
C1863 C 0.70136 0.22653 0.24018 0.0
C1864 C 0.66391 0.24224 0.23331 0.0
C1865 C 0.70137 0.21938 0.21896 0.0
C1866 C 0.68295 0.22347 0.205 0.0
C1867 C 0.64554 0.23905 0.19801 0.0
C1868 C 0.62664 0.25055 0.20499 0.0
C1869 C 0.66412 0.23488 0.21199 0.0
C1870 C 0.6267 0.25788 0.22622 0.0
C1871 C 0.6451 0.25376 0.24023 0.0
H1872 H 0.48114 0.07975 0.03007 0.0
H1873 H 0.48757 0.11915 0.97598 0.0
H1874 H 0.49497 0.15408 0.9985 0.0
H1875 H 0.4991 0.1736 0.03358 0.0
H1876 H 0.49139 0.13424 0.08753 0.0
H1877 H 0.48489 0.09924 0.06503 0.0
C1878 C 0.48397 0.096 0.02317 0.0
C1879 C 0.48376 0.09674 1.00131 0.0
C1880 C 0.48797 0.11608 0.0362 0.0
C1881 C 0.48791 0.11795 0.99273 0.0
C1882 C 0.49198 0.13799 0.0056 0.0
C1883 C 0.49579 0.1574 0.04042 0.0
C1884 C 0.49576 0.15662 0.06226 0.0
C1885 C 0.49195 0.13729 0.02736 0.0
C1886 C 0.49181 0.13537 0.07082 0.0
C1887 C 0.48797 0.11533 0.05795 0.0
H1888 H 0.30565 0.33355 0.70689 0.0
H1889 H 0.24621 0.36829 0.72534 0.0
H1890 H 0.26973 0.40363 0.73334 0.0
H1891 H 0.30717 0.42475 0.73522 0.0
H1892 H 0.36669 0.39015 0.71679 0.0
H1893 H 0.34308 0.35491 0.70822 0.0
C1894 C 0.2978 0.34891 0.71244 0.0
C1895 C 0.27419 0.34818 0.71559 0.0
C1896 C 0.31143 0.36926 0.71697 0.0
C1897 C 0.26439 0.36823 0.72306 0.0
C1898 C 0.27781 0.38851 0.72755 0.0
C1899 C 0.31503 0.40946 0.72948 0.0
C1900 C 0.33871 0.41014 0.7267 0.0
C1901 C 0.30137 0.3892 0.72468 0.0
C1902 C 0.34848 0.39023 0.71888 0.0
C1903 C 0.33501 0.37001 0.71408 0.0
H1904 H 0.26402 0.65947 0.78402 0.0
H1905 H 0.31651 0.7085 0.81115 0.0
H1906 H 0.34591 0.68127 0.80425 0.0
H1907 H 0.35679 0.64385 0.78948 0.0
H1908 H 0.30367 0.5946 0.76351 0.0
H1909 H 0.27467 0.6218 0.77048 0.0
C1910 C 0.28191 0.66426 0.78833 0.0
C1911 C 0.28803 0.68607 0.79797 0.0
C1912 C 0.2987 0.64854 0.78431 0.0
C1913 C 0.31128 0.69179 0.80382 0.0
C1914 C 0.32812 0.67626 0.79977 0.0
C1915 C 0.33887 0.63893 0.78551 0.0
C1916 C 0.33264 0.61715 0.77568 0.0
C1917 C 0.32205 0.65459 0.78992 0.0
C1918 C 0.30922 0.61134 0.77056 0.0
C1919 C 0.2925 0.62684 0.77473 0.0
H1920 H 0.91028 0.53878 0.49356 0.0
H1921 H 0.95971 0.48704 0.48814 0.0
H1922 H 0.93064 0.45754 0.49489 0.0
H1923 H 0.89105 0.44626 0.50144 0.0
H1924 H 0.84077 0.49752 0.5048 0.0
H1925 H 0.87029 0.52732 0.50022 0.0
C1926 C 0.91466 0.52106 0.49407 0.0
C1927 C 0.93706 0.51506 0.49032 0.0
C1928 C 0.89771 0.50408 0.49761 0.0
C1929 C 0.94252 0.49202 0.49082 0.0
C1930 C 0.92592 0.47516 0.4947 0.0
C1931 C 0.88643 0.4639 0.50099 0.0
C1932 C 0.8636 0.46949 0.50348 0.0
C1933 C 0.9034 0.48094 0.49788 0.0
C1934 C 0.8582 0.49262 0.50327 0.0
C1935 C 0.87507 0.50971 0.50047 0.0
H1936 H 0.74288 0.82525 0.8009 0.0
H1937 H 0.80308 0.87065 0.80108 0.0
H1938 H 0.77919 0.90248 0.79313 0.0
H1939 H 0.74136 0.91717 0.78514 0.0
H1940 H 0.68111 0.87121 0.78236 0.0
H1941 H 0.7047 0.84011 0.79262 0.0
C1942 C 0.75066 0.8422 0.79942 0.0
C1943 C 0.77466 0.84567 0.80164 0.0
C1944 C 0.7368 0.86034 0.79432 0.0
C1945 C 0.78462 0.86762 0.79942 0.0
C1946 C 0.77097 0.88579 0.79484 0.0
C1947 C 0.73332 0.90032 0.78652 0.0
C1948 C 0.70936 0.89674 0.7829 0.0
C1949 C 0.74706 0.8823 0.79199 0.0
C1950 C 0.6994 0.87476 0.7853 0.0
C1951 C 0.71293 0.85683 0.79105 0.0
H1952 H 0.6164 0.5205 0.93956 0.0
H1953 H 0.59822 0.52189 1.00357 0.0
H1954 H 0.63012 0.54956 0.01366 0.0
H1955 H 0.66322 0.57345 1.00434 0.0
H1956 H 0.67992 0.5735 0.93994 0.0
H1957 H 0.64851 0.54532 0.93006 0.0
C1958 C 0.61919 0.52704 0.95569 0.0
C1959 C 0.60483 0.51902 0.97074 0.0
C1960 C 0.63737 0.54323 0.96136 0.0
C1961 C 0.60912 0.52743 0.99165 0.0
C1962 C 0.62729 0.54341 0.99744 0.0
C1963 C 0.65986 0.56753 0.9881 0.0
C1964 C 0.6741 0.57561 0.97296 0.0
C1965 C 0.64153 0.55146 0.98242 0.0
C1966 C 0.66958 0.56737 0.95203 0.0
C1967 C 0.65149 0.55133 0.94631 0.0
H1968 H 0.24816 0.68168 0.22468 0.0
H1969 H 0.30711 0.64665 0.24719 0.0
H1970 H 0.28244 0.61348 0.25371 0.0
H1971 H 0.24419 0.59403 0.25258 0.0
H1972 H 0.18532 0.62847 0.2292 0.0
H1973 H 0.20992 0.66197 0.22305 0.0
C1974 C 0.25566 0.66672 0.23082 0.0
C1975 C 0.2795 0.66682 0.23554 0.0
C1976 C 0.24138 0.6475 0.2343 0.0
C1977 C 0.28881 0.64731 0.24376 0.0
C1978 C 0.27472 0.62822 0.24737 0.0
C1979 C 0.23673 0.60895 0.24629 0.0
C1980 C 0.21295 0.60875 0.24138 0.0
C1981 C 0.25099 0.62813 0.24273 0.0
C1982 C 0.2036 0.62809 0.23293 0.0
C1983 C 0.21765 0.64729 0.2295 0.0
H1984 H 0.91616 0.51015 0.03064 0.0
H1985 H 0.967 0.56208 0.05567 0.0
H1986 H 0.93956 0.59158 0.05017 0.0
H1987 H 0.90108 0.60276 0.0378 0.0
H1988 H 0.85112 0.55058 0.01151 0.0
H1989 H 0.8783 0.52124 0.01779 0.0
C1990 C 0.92139 0.52793 0.03472 0.0
C1991 C 0.94373 0.53377 0.04353 0.0
C1992 C 0.90562 0.54486 0.03126 0.0
C1993 C 0.94989 0.55694 0.0491 0.0
C1994 C 0.93423 0.57389 0.04581 0.0
C1995 C 0.8962 0.585 0.03329 0.0
C1996 C 0.87393 0.57898 0.02431 0.0
C1997 C 0.91205 0.56807 0.03682 0.0
C1998 C 0.86791 0.55578 0.01879 0.0
C1999 C 0.88352 0.53893 0.02226 0.0
H2000 H 0.11904 1.00219 0.07206 0.0
H2001 H 0.08932 0.99753 0.00876 0.0
H2002 H 0.11763 0.97051 0.99855 0.0
H2003 H 0.1519 0.94935 0.00723 0.0
H2004 H 0.18211 0.95452 0.07038 0.0
H2005 H 0.15265 0.98003 0.08099 0.0
C2006 C 0.11862 0.99504 0.0561 0.0
C2007 C 0.10213 1.00195 0.04119 0.0
C2008 C 0.13516 0.97966 0.05026 0.0
C2009 C 0.10198 0.99271 0.0205 0.0
C2010 C 0.11813 0.97719 0.01465 0.0
C2011 C 0.15186 0.95583 0.02336 0.0
C2012 C 0.16926 0.95006 0.03795 0.0
C2013 C 0.13496 0.97071 0.02933 0.0
C2014 C 0.1691 0.95889 0.05876 0.0
C2015 C 0.15219 0.97343 0.06487 0.0
loop_
_geom_bond_atom_site_label_1
_geom_bond_atom_site_label_2
_geom_bond_distance
_geom_bond_site_symmetry_2
_ccdc_geom_bond_type
H0 C5 0.930 . S
H1 C8 0.930 . S
H2 C10 0.930 . S
H3 C4 1.016 . S
C4 H3 1.016 . S
C4 N11 1.286 1_556 S
C5 H0 0.930 . S
C5 C6 1.397 . S
C5 C7 1.361 . S
C6 C5 1.397 . S
C6 C10 1.390 . S
C7 C5 1.361 . S
C7 C8 1.393 . S
C7 N11 1.413 . S
C8 H1 0.930 . S
C8 C7 1.393 . S
C8 C9 1.399 . S
C9 C8 1.399 . S
C9 C10 1.381 . S
C10 H2 0.930 . S
C10 C6 1.390 . S
C10 C9 1.381 . S
N11 C4 1.286 1_554 S
N11 C7 1.413 . S
H12 C17 0.930 . S
H13 C20 0.930 . S
H14 C22 0.930 . S
H15 C16 1.016 . S
C16 H15 1.016 . S
C16 N23 1.286 . S
C17 H12 0.930 . S
C17 C18 1.397 . S
C17 C19 1.361 . S
C18 C17 1.397 . S
C18 C22 1.390 . S
C19 C17 1.361 . S
C19 C20 1.393 . S
C19 N23 1.413 . S
C20 H13 0.930 . S
C20 C19 1.393 . S
C20 C21 1.399 . S
C21 C20 1.399 . S
C21 C22 1.381 . S
C22 H14 0.930 . S
C22 C18 1.390 . S
C22 C21 1.381 . S
N23 C16 1.286 . S
N23 C19 1.413 . S
H24 C29 0.930 . S
H25 C32 0.937 . S
H26 C34 0.930 . S
H27 C28 1.016 1_455 S
C28 H27 1.016 1_655 S
C28 N35 1.286 . S
C29 H24 0.930 . S
C29 C30 1.397 . S
C29 C31 1.361 . S
C30 C29 1.397 . S
C30 C34 1.390 . S
C31 C29 1.361 . S
C31 C32 1.393 . S
C31 N35 1.413 . S
C32 H25 0.937 . S
C32 C31 1.393 . S
C32 C33 1.399 . S
C33 C32 1.399 . S
C33 C34 1.381 . S
C34 H26 0.930 . S
C34 C30 1.390 . S
C34 C33 1.381 . S
N35 C28 1.286 . S
N35 C31 1.413 . S
H36 C41 0.930 . S
H37 C44 0.930 . S
H38 C46 0.930 . S
H39 C40 1.016 . S
C40 H39 1.016 . S
C40 N47 1.286 . S
C41 H36 0.930 . S
C41 C42 1.397 . S
C41 C43 1.361 . S
C42 C41 1.397 . S
C42 C46 1.390 . S
C43 C41 1.361 . S
C43 C44 1.393 . S
C43 N47 1.413 . S
C44 H37 0.930 . S
C44 C43 1.393 . S
C44 C45 1.399 . S
C45 C44 1.399 . S
C45 C46 1.381 . S
C46 H38 0.930 . S
C46 C42 1.390 . S
C46 C45 1.381 . S
N47 C40 1.286 . S
N47 C43 1.413 . S
H48 C53 0.930 . S
H49 C56 0.930 . S
H50 C58 0.930 . S
H51 C52 1.016 . S
C52 H51 1.016 . S
C52 N59 1.286 . S
C53 H48 0.930 . S
C53 C54 1.397 . S
C53 C55 1.361 . S
C54 C53 1.397 . S
C54 C58 1.390 1_565 S
C55 C53 1.361 . S
C55 C56 1.393 . S
C55 N59 1.413 . S
C56 H49 0.930 . S
C56 C55 1.393 . S
C56 C57 1.400 . S
C57 C56 1.400 . S
C57 C58 1.381 1_565 S
C58 H50 0.930 . S
C58 C54 1.390 1_545 S
C58 C57 1.381 1_545 S
N59 C52 1.286 . S
N59 C55 1.413 . S
H60 C65 0.930 . S
H61 C68 0.930 . S
H62 C70 0.930 . S
H63 C64 1.016 . S
C64 H63 1.016 . S
C64 N71 1.286 . S
C65 H60 0.930 . S
C65 C66 1.397 . S
C65 C67 1.361 . S
C66 C65 1.397 . S
C66 C70 1.390 . S
C67 C65 1.361 . S
C67 C68 1.393 . S
C67 N71 1.413 . S
C68 H61 0.930 . S
C68 C67 1.393 . S
C68 C69 1.399 . S
C69 C68 1.399 . S
C69 C70 1.381 . S
C70 H62 0.930 . S
C70 C66 1.390 . S
C70 C69 1.381 . S
N71 C64 1.286 . S
N71 C67 1.413 . S
H72 C77 0.926 1_455 S
H73 C80 0.930 . S
H74 C82 0.930 . S
H75 C76 1.016 . S
C76 H75 1.016 . S
C76 N83 1.286 . S
C77 H72 0.926 1_655 S
C77 C78 1.400 . S
C77 C79 1.362 . S
C78 C77 1.400 . S
C78 C82 1.390 . S
C79 C77 1.362 . S
C79 C80 1.393 . S
C79 N83 1.413 1_655 S
C80 H73 0.930 . S
C80 C79 1.393 . S
C80 C81 1.399 . S
C81 C80 1.399 . S
C81 C82 1.381 . S
C82 H74 0.930 . S
C82 C78 1.390 . S
C82 C81 1.381 . S
N83 C76 1.286 . S
N83 C79 1.413 1_455 S
H84 C89 0.930 . S
H85 C92 0.930 . S
H86 C94 0.930 . S
H87 C88 1.016 . S
C88 H87 1.016 . S
C88 N95 1.286 . S
C89 H84 0.930 . S
C89 C90 1.397 . S
C89 C91 1.361 . S
C90 C89 1.397 . S
C90 C94 1.390 . S
C91 C89 1.361 . S
C91 C92 1.393 . S
C91 N95 1.413 . S
C92 H85 0.930 . S
C92 C91 1.393 . S
C92 C93 1.399 . S
C93 C92 1.399 . S
C93 C94 1.381 . S
C94 H86 0.930 . S
C94 C90 1.390 . S
C94 C93 1.381 . S
N95 C88 1.286 . S
N95 C91 1.413 . S
H96 C101 0.930 . S
H97 C104 0.930 . S
H98 C106 0.930 . S
H99 C100 1.016 . S
C100 H99 1.016 . S
C100 N107 1.286 . S
C101 H96 0.930 . S
C101 C102 1.397 . S
C101 C103 1.361 . S
C102 C101 1.397 . S
C102 C106 1.390 . S
C103 C101 1.361 . S
C103 C104 1.393 . S
C103 N107 1.413 . S
C104 H97 0.930 . S
C104 C103 1.393 . S
C104 C105 1.399 . S
C105 C104 1.399 . S
C105 C106 1.381 . S
C106 H98 0.930 . S
C106 C102 1.390 . S
C106 C105 1.381 . S
N107 C100 1.286 . S
N107 C103 1.413 . S
H108 C113 0.930 . S
H109 C116 0.930 . S
H110 C118 0.930 . S
H111 C112 1.016 . S
C112 H111 1.016 . S
C112 N119 1.286 . S
C113 H108 0.930 . S
C113 C114 1.397 1_565 S
C113 C115 1.361 . S
C114 C113 1.397 1_545 S
C114 C118 1.390 . S
C115 C113 1.361 . S
C115 C116 1.393 . S
C115 N119 1.413 . S
C116 H109 0.930 . S
C116 C115 1.393 . S
C116 C117 1.399 . S
C117 C116 1.399 . S
C117 C118 1.381 1_565 S
C118 H110 0.930 . S
C118 C114 1.390 . S
C118 C117 1.381 1_545 S
N119 C112 1.286 . S
N119 C115 1.413 . S
H120 C125 0.930 . S
H121 C128 0.930 . S
H122 C130 0.930 . S
H123 C124 1.016 . S
C124 H123 1.016 . S
C124 N131 1.286 . S
C125 H120 0.930 . S
C125 C126 1.397 . S
C125 C127 1.361 . S
C126 C125 1.397 . S
C126 C130 1.390 . S
C127 C125 1.361 . S
C127 C128 1.393 . S
C127 N131 1.413 . S
C128 H121 0.930 . S
C128 C127 1.393 . S
C128 C129 1.399 . S
C129 C128 1.399 . S
C129 C130 1.381 . S
C130 H122 0.930 . S
C130 C126 1.390 . S
C130 C129 1.381 . S
N131 C124 1.286 . S
N131 C127 1.413 . S
H132 C137 0.930 . S
H133 C140 0.930 . S
H134 C142 0.930 . S
H135 C136 1.016 . S
C136 H135 1.016 . S
C136 N143 1.286 . S
C137 H132 0.930 . S
C137 C138 1.397 . S
C137 C139 1.361 . S
C138 C137 1.397 . S
C138 C142 1.390 . S
C139 C137 1.361 . S
C139 C140 1.393 . S
C139 N143 1.413 . S
C140 H133 0.930 . S
C140 C139 1.393 . S
C140 C141 1.399 . S
C141 C140 1.399 . S
C141 C142 1.381 . S
C142 H134 0.930 . S
C142 C138 1.390 . S
C142 C141 1.381 . S
N143 C136 1.286 . S
N143 C139 1.413 . S
H144 C149 0.930 . S
H145 C152 0.930 . S
H146 C154 0.930 . S
H147 C148 1.016 . S
C148 H147 1.016 . S
C148 N155 1.286 . S
C149 H144 0.930 . S
C149 C150 1.397 . S
C149 C151 1.361 . S
C150 C149 1.397 . S
C150 C154 1.390 . S
C151 C149 1.361 . S
C151 C152 1.393 . S
C151 N155 1.413 . S
C152 H145 0.930 . S
C152 C151 1.393 . S
C152 C153 1.399 . S
C153 C152 1.399 . S
C153 C154 1.381 . S
C154 H146 0.930 . S
C154 C150 1.390 . S
C154 C153 1.381 . S
N155 C148 1.286 . S
N155 C151 1.413 . S
H156 C161 0.930 . S
H157 C164 0.930 . S
H158 C166 0.930 . S
H159 C160 1.016 . S
C160 H159 1.016 . S
C160 N167 1.286 1_554 S
C161 H156 0.930 . S
C161 C162 1.397 . S
C161 C163 1.361 . S
C162 C161 1.397 . S
C162 C166 1.390 . S
C163 C161 1.361 . S
C163 C164 1.393 . S
C163 N167 1.413 . S
C164 H157 0.930 . S
C164 C163 1.393 . S
C164 C165 1.399 . S
C165 C164 1.399 . S
C165 C166 1.381 . S
C166 H158 0.930 . S
C166 C162 1.390 . S
C166 C165 1.381 . S
N167 C160 1.286 1_556 S
N167 C163 1.413 . S
H168 C173 0.930 . S
H169 C176 0.930 . S
H170 C178 0.930 . S
H171 C172 1.016 . S
C172 H171 1.016 . S
C172 N179 1.286 . S
C173 H168 0.930 . S
C173 C174 1.397 . S
C173 C175 1.361 . S
C174 C173 1.397 . S
C174 C178 1.390 . S
C175 C173 1.361 . S
C175 C176 1.393 . S
C175 N179 1.413 . S
C176 H169 0.930 . S
C176 C175 1.393 . S
C176 C177 1.399 . S
C177 C176 1.399 . S
C177 C178 1.381 . S
C178 H170 0.930 . S
C178 C174 1.390 . S
C178 C177 1.381 . S
N179 C172 1.286 . S
N179 C175 1.413 . S
H180 C185 0.930 . S
H181 C188 0.930 . S
H182 C190 0.930 1_554 S
H183 C184 1.029 . S
C184 H183 1.029 . S
C184 N191 1.286 . S
C185 H180 0.930 . S
C185 C186 1.397 . S
C185 C187 1.361 . S
C186 C185 1.397 . S
C186 C190 1.390 . S
C187 C185 1.361 . S
C187 C188 1.393 . S
C187 N191 1.413 . S
C188 H181 0.930 . S
C188 C187 1.393 . S
C188 C189 1.399 . S
C189 C188 1.399 . S
C189 C190 1.381 . S
C190 H182 0.930 1_556 S
C190 C186 1.390 . S
C190 C189 1.381 . S
N191 C184 1.286 . S
N191 C187 1.413 . S
Li192 N209 1.990 . S
Li192 O252 1.956 . S
Li192 O253 1.970 . S
Li192 O254 1.961 1_554 S
Li193 N217 1.990 . S
Li193 O252 1.970 . S
Li193 O253 1.956 . S
Li193 O255 1.961 . S
Li194 N239 1.990 . S
Li194 O252 1.961 1_556 S
Li194 O254 1.956 . S
Li194 O255 1.970 1_556 S
Li195 N245 1.990 . S
Li195 O253 1.961 . S
Li195 O254 1.970 1_554 S
Li195 O255 1.956 . S
C196 C198 1.348 . S
C196 C199 1.356 1_554 S
C196 O252 1.325 . S
N197 C200 1.320 . S
N197 C201 1.274 1_554 S
C198 C196 1.348 . S
C198 C200 1.353 . S
C198 H256 0.929 . S
C199 C196 1.356 1_556 S
C199 C201 1.358 . S
C199 H257 0.930 . S
C200 N197 1.320 . S
C200 C198 1.353 . S
C200 H258 0.930 . S
C201 N197 1.274 1_556 S
C201 C199 1.358 . S
C201 H259 0.930 . S
C202 C205 1.348 . S
C202 C206 1.356 . S
C202 O253 1.325 . S
C203 N204 1.279 . S
C203 C206 1.358 . S
C203 H260 0.930 . S
N204 C203 1.279 . S
N204 C207 1.314 . S
C205 C202 1.348 . S
C205 C207 1.353 . S
C205 H261 0.929 . S
C206 C202 1.356 . S
C206 C203 1.358 . S
C206 H262 0.930 . S
C207 N204 1.314 . S
C207 C205 1.353 . S
C207 H263 0.930 . S
C208 N209 1.314 . S
C208 C213 1.352 1_554 S
C208 H214 0.930 1_554 S
N209 Li192 1.990 . S
N209 C208 1.314 . S
N209 C211 1.279 . S
C210 C211 1.358 . S
C210 C212 1.356 . S
C210 H264 0.930 . S
C211 N209 1.279 . S
C211 C210 1.358 . S
C211 H215 0.930 . S
C212 C210 1.356 . S
C212 C213 1.347 1_554 S
C213 C208 1.352 1_556 S
C213 C212 1.347 1_556 S
C213 H265 0.931 . S
H214 C208 0.930 1_556 S
H215 C211 0.930 . S
C216 N217 1.314 . S
C216 C218 1.353 . S
C216 H222 0.930 . S
N217 Li193 1.990 . S
N217 C216 1.314 . S
N217 C220 1.279 . S
C218 C216 1.353 . S
C218 C221 1.348 . S
C218 H266 0.929 . S
C219 C220 1.358 . S
C219 C221 1.356 . S
C219 H267 0.930 . S
C220 N217 1.279 . S
C220 C219 1.358 . S
C220 H223 0.930 . S
C221 C218 1.348 . S
C221 C219 1.356 . S
H222 C216 0.930 . S
H223 C220 0.930 . S
C224 C226 1.348 . S
C224 C227 1.356 . S
C224 O254 1.325 . S
N225 C228 1.314 . S
N225 C229 1.279 . S
C226 C224 1.348 . S
C226 C228 1.353 . S
C226 H268 0.929 . S
C227 C224 1.356 . S
C227 C229 1.358 . S
C227 H269 0.930 . S
C228 N225 1.314 . S
C228 C226 1.353 . S
C228 H270 0.930 . S
C229 N225 1.279 . S
C229 C227 1.358 . S
C229 H271 0.930 . S
C230 C231 1.348 1_554 S
C230 C232 1.356 . S
C230 O255 1.325 . S
C231 C230 1.348 1_556 S
C231 C233 1.357 . S
C231 H272 0.929 . S
C232 C230 1.356 . S
C232 C234 1.358 . S
C232 H273 0.930 . S
C233 C231 1.357 . S
C233 N235 1.300 1_556 S
C233 H274 0.942 . S
C234 C232 1.358 . S
C234 N235 1.279 . S
C234 H275 0.930 . S
N235 C233 1.300 1_554 S
N235 C234 1.279 . S
C236 C238 1.353 . S
C236 N239 1.314 . S
C236 H242 0.930 . S
C237 N239 1.279 . S
C237 C240 1.358 . S
C237 H243 0.930 . S
C238 C236 1.353 . S
C238 C241 1.348 . S
C238 H276 0.929 . S
N239 Li194 1.990 . S
N239 C236 1.314 . S
N239 C237 1.279 . S
C240 C237 1.358 . S
C240 C241 1.356 . S
C240 H277 0.930 . S
C241 C238 1.348 . S
C241 C240 1.356 . S
H242 C236 0.930 . S
H243 C237 0.930 . S
C244 N245 1.314 . S
C244 C246 1.353 . S
C244 H250 0.930 . S
N245 Li195 1.990 . S
N245 C244 1.314 . S
N245 C248 1.279 . S
C246 C244 1.353 . S
C246 C249 1.348 . S
C246 H278 0.929 . S
C247 C248 1.358 . S
C247 C249 1.356 . S
C247 H279 0.930 . S
C248 N245 1.279 . S
C248 C247 1.358 . S
C248 H251 0.930 . S
C249 C246 1.348 . S
C249 C247 1.356 . S
H250 C244 0.930 . S
H251 C248 0.930 . S
O252 Li192 1.956 . S
O252 Li193 1.970 . S
O252 Li194 1.961 1_554 S
O252 C196 1.325 . S
O253 Li192 1.970 . S
O253 Li193 1.956 . S
O253 Li195 1.961 . S
O253 C202 1.325 . S
O254 Li192 1.961 1_556 S
O254 Li194 1.956 . S
O254 Li195 1.970 1_556 S
O254 C224 1.325 . S
O255 Li193 1.961 . S
O255 Li194 1.970 1_554 S
O255 Li195 1.956 . S
O255 C230 1.325 . S
H256 C198 0.929 . S
H257 C199 0.930 . S
H258 C200 0.930 . S
H259 C201 0.930 . S
H260 C203 0.930 . S
H261 C205 0.929 . S
H262 C206 0.930 . S
H263 C207 0.930 . S
H264 C210 0.930 . S
H265 C213 0.931 . S
H266 C218 0.929 . S
H267 C219 0.930 . S
H268 C226 0.929 . S
H269 C227 0.930 . S
H270 C228 0.930 . S
H271 C229 0.930 . S
H272 C231 0.929 . S
H273 C232 0.930 . S
H274 C233 0.942 . S
H275 C234 0.930 . S
H276 C238 0.929 . S
H277 C240 0.930 . S
H278 C246 0.929 . S
H279 C247 0.930 . S
Li280 N297 1.990 . S
Li280 O340 1.956 . S
Li280 O341 1.970 . S
Li280 O342 1.961 . S
Li281 N305 1.990 . S
Li281 O340 1.970 . S
Li281 O341 1.956 . S
Li281 O343 1.961 . S
Li282 N327 1.990 . S
Li282 O340 1.961 . S
Li282 O342 1.956 . S
Li282 O343 1.970 . S
Li283 N333 1.990 . S
Li283 O341 1.961 . S
Li283 O342 1.970 . S
Li283 O343 1.956 . S
C284 C286 1.348 . S
C284 C287 1.356 . S
C284 O340 1.325 . S
N285 C288 1.314 . S
N285 C289 1.279 . S
C286 C284 1.348 . S
C286 C288 1.353 . S
C286 H344 0.929 . S
C287 C284 1.356 . S
C287 C289 1.358 . S
C287 H345 0.930 . S
C288 N285 1.314 . S
C288 C286 1.353 . S
C288 H346 0.930 . S
C289 N285 1.279 . S
C289 C287 1.358 . S
C289 H347 0.930 . S
C290 C293 1.348 . S
C290 C294 1.356 . S
C290 O341 1.325 . S
C291 N292 1.279 . S
C291 C294 1.358 . S
C291 H348 0.930 . S
N292 C291 1.279 . S
N292 C295 1.314 . S
C293 C290 1.348 . S
C293 C295 1.353 . S
C293 H349 0.929 . S
C294 C290 1.356 . S
C294 C291 1.358 . S
C294 H350 0.930 . S
C295 N292 1.314 . S
C295 C293 1.353 . S
C295 H351 0.930 . S
C296 N297 1.314 . S
C296 C301 1.353 . S
C296 H302 0.930 . S
N297 Li280 1.990 . S
N297 C296 1.314 . S
N297 C299 1.279 . S
C298 C299 1.358 . S
C298 C300 1.356 . S
C298 H352 0.930 . S
C299 N297 1.279 . S
C299 C298 1.358 . S
C299 H303 0.930 . S
C300 C298 1.356 . S
C300 C301 1.348 . S
C301 C296 1.353 . S
C301 C300 1.348 . S
C301 H353 0.929 . S
H302 C296 0.930 . S
H303 C299 0.930 . S
C304 N305 1.314 . S
C304 C306 1.353 . S
C304 H310 0.930 . S
N305 Li281 1.990 . S
N305 C304 1.314 . S
N305 C308 1.279 . S
C306 C304 1.353 . S
C306 C309 1.348 . S
C306 H354 0.929 . S
C307 C308 1.358 . S
C307 C309 1.356 . S
C307 H355 0.930 . S
C308 N305 1.279 . S
C308 C307 1.358 . S
C308 H311 0.930 . S
C309 C306 1.348 . S
C309 C307 1.356 . S
H310 C304 0.930 . S
H311 C308 0.930 . S
C312 C314 1.348 . S
C312 C315 1.356 . S
C312 O342 1.325 . S
N313 C316 1.314 . S
N313 C317 1.279 . S
C314 C312 1.348 . S
C314 C316 1.353 . S
C314 H356 0.929 . S
C315 C312 1.356 . S
C315 C317 1.358 . S
C315 H357 0.930 . S
C316 N313 1.314 . S
C316 C314 1.353 . S
C316 H358 0.930 . S
C317 N313 1.279 . S
C317 C315 1.358 . S
C317 H359 0.930 . S
C318 C319 1.348 . S
C318 C320 1.356 . S
C318 O343 1.325 . S
C319 C318 1.348 . S
C319 C321 1.353 . S
C319 H360 0.929 . S
C320 C318 1.356 . S
C320 C322 1.358 . S
C320 H361 0.930 . S
C321 C319 1.353 . S
C321 N323 1.314 . S
C321 H362 0.930 . S
C322 C320 1.358 . S
C322 N323 1.279 . S
C322 H363 0.930 . S
N323 C321 1.314 . S
N323 C322 1.279 . S
C324 C326 1.353 . S
C324 N327 1.314 . S
C324 H330 0.930 . S
C325 N327 1.279 . S
C325 C328 1.358 . S
C325 H331 0.930 . S
C326 C324 1.353 . S
C326 C329 1.348 . S
C326 H364 0.929 . S
N327 Li282 1.990 . S
N327 C324 1.314 . S
N327 C325 1.279 . S
C328 C325 1.358 . S
C328 C329 1.356 . S
C328 H365 0.930 . S
C329 C326 1.348 . S
C329 C328 1.356 . S
H330 C324 0.930 . S
H331 C325 0.930 . S
C332 N333 1.314 . S
C332 C334 1.353 . S
C332 H338 0.930 . S
N333 Li283 1.990 . S
N333 C332 1.314 . S
N333 C336 1.279 . S
C334 C332 1.353 . S
C334 C337 1.348 . S
C334 H366 0.929 . S
C335 C336 1.358 . S
C335 C337 1.356 . S
C335 H367 0.930 . S
C336 N333 1.279 . S
C336 C335 1.358 . S
C336 H339 0.930 . S
C337 C334 1.348 . S
C337 C335 1.356 . S
H338 C332 0.930 . S
H339 C336 0.930 . S
O340 Li280 1.956 . S
O340 Li281 1.970 . S
O340 Li282 1.961 . S
O340 C284 1.325 . S
O341 Li280 1.970 . S
O341 Li281 1.956 . S
O341 Li283 1.961 . S
O341 C290 1.325 . S
O342 Li280 1.961 . S
O342 Li282 1.956 . S
O342 Li283 1.970 . S
O342 C312 1.325 . S
O343 Li281 1.961 . S
O343 Li282 1.970 . S
O343 Li283 1.956 . S
O343 C318 1.325 . S
H344 C286 0.929 . S
H345 C287 0.930 . S
H346 C288 0.930 . S
H347 C289 0.930 . S
H348 C291 0.930 . S
H349 C293 0.929 . S
H350 C294 0.930 . S
H351 C295 0.930 . S
H352 C298 0.930 . S
H353 C301 0.929 . S
H354 C306 0.929 . S
H355 C307 0.930 . S
H356 C314 0.929 . S
H357 C315 0.930 . S
H358 C316 0.930 . S
H359 C317 0.930 . S
H360 C319 0.929 . S
H361 C320 0.930 . S
H362 C321 0.930 . S
H363 C322 0.930 . S
H364 C326 0.929 . S
H365 C328 0.930 . S
H366 C334 0.929 . S
H367 C335 0.930 . S
Li368 N385 1.990 . S
Li368 O428 1.956 . S
Li368 O429 1.970 1_556 S
Li368 O430 1.961 . S
Li369 N393 1.990 . S
Li369 O428 1.970 1_554 S
Li369 O429 1.956 . S
Li369 O431 1.961 . S
Li370 N415 1.990 . S
Li370 O428 1.961 . S
Li370 O430 1.956 . S
Li370 O431 1.970 1_556 S
Li371 N421 1.990 . S
Li371 O429 1.961 . S
Li371 O430 1.970 1_554 S
Li371 O431 1.956 . S
C372 C374 1.348 1_556 S
C372 C375 1.356 . S
C372 O428 1.325 . S
N373 C376 1.314 1_556 S
N373 C377 1.279 . S
C374 C372 1.348 1_554 S
C374 C376 1.353 . S
C374 H432 0.929 . S
C375 C372 1.356 . S
C375 C377 1.358 . S
C375 H433 0.930 . S
C376 N373 1.314 1_554 S
C376 C374 1.353 . S
C376 H434 0.930 . S
C377 N373 1.279 . S
C377 C375 1.358 . S
C377 H435 0.930 . S
C378 C381 1.348 . S
C378 C382 1.356 . S
C378 O429 1.325 . S
C379 N380 1.279 . S
C379 C382 1.358 . S
C379 H436 0.930 . S
N380 C379 1.279 . S
N380 C383 1.314 . S
C381 C378 1.348 . S
C381 C383 1.353 . S
C381 H437 0.929 . S
C382 C378 1.356 . S
C382 C379 1.358 . S
C382 H438 0.930 . S
C383 N380 1.314 . S
C383 C381 1.353 . S
C383 H439 0.930 . S
C384 N385 1.314 . S
C384 C389 1.353 . S
C384 H390 0.930 . S
N385 Li368 1.990 . S
N385 C384 1.314 . S
N385 C387 1.279 . S
C386 C387 1.358 . S
C386 C388 1.356 . S
C386 H440 0.930 . S
C387 N385 1.279 . S
C387 C386 1.358 . S
C387 H391 0.930 . S
C388 C386 1.356 . S
C388 C389 1.348 . S
C389 C384 1.353 . S
C389 C388 1.348 . S
C389 H441 0.929 . S
H390 C384 0.930 . S
H391 C387 0.930 . S
C392 N393 1.314 . S
C392 C394 1.353 . S
C392 H398 0.930 . S
N393 Li369 1.990 . S
N393 C392 1.314 . S
N393 C396 1.279 . S
C394 C392 1.353 . S
C394 C397 1.348 . S
C394 H442 0.929 . S
C395 C396 1.358 . S
C395 C397 1.356 . S
C395 H443 0.930 . S
C396 N393 1.279 . S
C396 C395 1.358 . S
C396 H399 0.930 . S
C397 C394 1.348 . S
C397 C395 1.356 . S
H398 C392 0.930 . S
H399 C396 0.930 . S
C400 C402 1.348 . S
C400 C403 1.356 . S
C400 O430 1.325 . S
N401 C404 1.314 . S
N401 C405 1.279 . S
C402 C400 1.348 . S
C402 C404 1.353 . S
C402 H444 0.929 . S
C403 C400 1.356 . S
C403 C405 1.358 . S
C403 H445 0.930 . S
C404 N401 1.314 . S
C404 C402 1.353 . S
C404 H446 0.930 . S
C405 N401 1.279 . S
C405 C403 1.358 . S
C405 H447 0.930 . S
C406 C407 1.348 1_554 S
C406 C408 1.356 . S
C406 O431 1.325 . S
C407 C406 1.348 1_556 S
C407 C409 1.353 . S
C407 H448 0.929 . S
C408 C406 1.356 . S
C408 C410 1.358 . S
C408 H449 0.930 . S
C409 C407 1.353 . S
C409 N411 1.314 1_556 S
C409 H450 0.930 . S
C410 C408 1.358 . S
C410 N411 1.279 . S
C410 H451 0.930 . S
N411 C409 1.314 1_554 S
N411 C410 1.279 . S
C412 C414 1.353 . S
C412 N415 1.314 . S
C412 H418 0.930 . S
C413 N415 1.279 . S
C413 C416 1.358 . S
C413 H419 0.930 . S
C414 C412 1.353 . S
C414 C417 1.348 . S
C414 H452 0.929 . S
N415 Li370 1.990 . S
N415 C412 1.314 . S
N415 C413 1.279 . S
C416 C413 1.358 . S
C416 C417 1.356 . S
C416 H453 0.930 . S
C417 C414 1.348 . S
C417 C416 1.356 . S
H418 C412 0.930 . S
H419 C413 0.930 . S
C420 N421 1.314 . S
C420 C422 1.353 . S
C420 H426 0.930 . S
N421 Li371 1.990 . S
N421 C420 1.314 . S
N421 C424 1.279 . S
C422 C420 1.353 . S
C422 C425 1.348 . S
C422 H454 0.929 . S
C423 C424 1.358 . S
C423 C425 1.356 . S
C423 H455 0.930 . S
C424 N421 1.279 . S
C424 C423 1.358 . S
C424 H427 0.930 . S
C425 C422 1.348 . S
C425 C423 1.356 . S
H426 C420 0.930 . S
H427 C424 0.930 . S
O428 Li368 1.956 . S
O428 Li369 1.970 1_556 S
O428 Li370 1.961 . S
O428 C372 1.325 . S
O429 Li368 1.970 1_554 S
O429 Li369 1.956 . S
O429 Li371 1.961 . S
O429 C378 1.325 . S
O430 Li368 1.961 . S
O430 Li370 1.956 . S
O430 Li371 1.970 1_556 S
O430 C400 1.325 . S
O431 Li369 1.961 . S
O431 Li370 1.970 1_554 S
O431 Li371 1.956 . S
O431 C406 1.325 . S
H432 C374 0.929 . S
H433 C375 0.930 . S
H434 C376 0.930 . S
H435 C377 0.930 . S
H436 C379 0.930 . S
H437 C381 0.929 . S
H438 C382 0.930 . S
H439 C383 0.930 . S
H440 C386 0.930 . S
H441 C389 0.929 . S
H442 C394 0.929 . S
H443 C395 0.930 . S
H444 C402 0.929 . S
H445 C403 0.930 . S
H446 C404 0.930 . S
H447 C405 0.930 . S
H448 C407 0.929 . S
H449 C408 0.930 . S
H450 C409 0.930 . S
H451 C410 0.930 . S
H452 C414 0.929 . S
H453 C416 0.930 . S
H454 C422 0.929 . S
H455 C423 0.930 . S
Li456 N473 1.990 . S
Li456 O516 1.956 . S
Li456 O517 1.970 . S
Li456 O518 1.961 . S
Li457 N481 1.990 . S
Li457 O516 1.970 . S
Li457 O517 1.956 . S
Li457 O519 1.961 1_545 S
Li458 N503 1.990 . S
Li458 O516 1.961 . S
Li458 O518 1.956 . S
Li458 O519 1.970 1_545 S
Li459 N509 1.990 . S
Li459 O517 1.961 1_565 S
Li459 O518 1.970 1_565 S
Li459 O519 1.956 . S
C460 C462 1.348 . S
C460 C463 1.356 . S
C460 O516 1.325 . S
N461 C464 1.314 . S
N461 C465 1.279 . S
C462 C460 1.348 . S
C462 C464 1.353 . S
C462 H520 0.929 . S
C463 C460 1.356 . S
C463 C465 1.358 . S
C463 H521 0.930 . S
C464 N461 1.314 . S
C464 C462 1.353 . S
C464 H522 0.930 . S
C465 N461 1.279 . S
C465 C463 1.358 . S
C465 H523 0.930 . S
C466 C469 1.348 . S
C466 C470 1.356 1_545 S
C466 O517 1.325 . S
C467 N468 1.279 1_565 S
C467 C470 1.358 . S
C467 H524 0.930 . S
N468 C467 1.279 1_545 S
N468 C471 1.314 . S
C469 C466 1.348 . S
C469 C471 1.353 . S
C469 H525 0.929 . S
C470 C466 1.356 1_565 S
C470 C467 1.358 . S
C470 H526 0.930 . S
C471 N468 1.314 . S
C471 C469 1.353 . S
C471 H527 0.930 . S
C472 N473 1.314 . S
C472 C477 1.353 . S
C472 H478 0.930 . S
N473 Li456 1.990 . S
N473 C472 1.314 . S
N473 C475 1.279 . S
C474 C475 1.358 . S
C474 C476 1.356 . S
C474 H528 0.930 . S
C475 N473 1.279 . S
C475 C474 1.358 . S
C475 H479 0.930 . S
C476 C474 1.356 . S
C476 C477 1.348 . S
C477 C472 1.353 . S
C477 C476 1.348 . S
C477 H529 0.929 . S
H478 C472 0.930 . S
H479 C475 0.930 . S
C480 N481 1.314 . S
C480 C482 1.353 . S
C480 H486 0.930 . S
N481 Li457 1.990 . S
N481 C480 1.314 . S
N481 C484 1.279 . S
C482 C480 1.353 . S
C482 C485 1.348 . S
C482 H530 0.929 1_655 S
C483 C484 1.358 . S
C483 C485 1.356 . S
C483 H531 0.930 . S
C484 N481 1.279 . S
C484 C483 1.358 . S
C484 H487 0.930 . S
C485 C482 1.348 . S
C485 C483 1.356 . S
H486 C480 0.930 . S
H487 C484 0.930 . S
C488 C490 1.348 . S
C488 C491 1.356 . S
C488 O518 1.325 . S
N489 C492 1.314 . S
N489 C493 1.279 . S
C490 C488 1.348 . S
C490 C492 1.353 . S
C490 H532 0.929 1_545 S
C491 C488 1.356 . S
C491 C493 1.358 . S
C491 H533 0.930 . S
C492 N489 1.314 . S
C492 C490 1.353 . S
C492 H534 0.930 1_545 S
C493 N489 1.279 . S
C493 C491 1.358 . S
C493 H535 0.930 . S
C494 C495 1.348 . S
C494 C496 1.356 . S
C494 O519 1.325 . S
C495 C494 1.348 . S
C495 C497 1.353 . S
C495 H536 0.929 . S
C496 C494 1.356 . S
C496 C498 1.358 . S
C496 H537 0.930 . S
C497 C495 1.353 . S
C497 N499 1.314 . S
C497 H538 0.930 . S
C498 C496 1.358 . S
C498 N499 1.279 . S
C498 H539 0.930 . S
N499 C497 1.314 . S
N499 C498 1.279 . S
C500 C502 1.353 . S
C500 N503 1.314 . S
C500 H506 0.930 . S
C501 N503 1.279 . S
C501 C504 1.358 . S
C501 H507 0.930 . S
C502 C500 1.353 . S
C502 C505 1.348 . S
C502 H540 0.929 1_655 S
N503 Li458 1.990 . S
N503 C500 1.314 . S
N503 C501 1.279 . S
C504 C501 1.358 . S
C504 C505 1.356 . S
C504 H541 0.930 . S
C505 C502 1.348 . S
C505 C504 1.356 . S
H506 C500 0.930 . S
H507 C501 0.930 . S
C508 N509 1.314 . S
C508 C510 1.353 . S
C508 H514 0.930 . S
N509 Li459 1.990 . S
N509 C508 1.314 . S
N509 C512 1.279 . S
C510 C508 1.353 . S
C510 C513 1.348 . S
C510 H542 0.929 . S
C511 C512 1.358 . S
C511 C513 1.356 . S
C511 H543 0.930 . S
C512 N509 1.279 . S
C512 C511 1.358 . S
C512 H515 0.930 . S
C513 C510 1.348 . S
C513 C511 1.356 . S
H514 C508 0.930 . S
H515 C512 0.930 . S
O516 Li456 1.956 . S
O516 Li457 1.970 . S
O516 Li458 1.961 . S
O516 C460 1.325 . S
O517 Li456 1.970 . S
O517 Li457 1.956 . S
O517 Li459 1.961 1_545 S
O517 C466 1.325 . S
O518 Li456 1.961 . S
O518 Li458 1.956 . S
O518 Li459 1.970 1_545 S
O518 C488 1.325 . S
O519 Li457 1.961 1_565 S
O519 Li458 1.970 1_565 S
O519 Li459 1.956 . S
O519 C494 1.325 . S
H520 C462 0.929 . S
H521 C463 0.930 . S
H522 C464 0.930 . S
H523 C465 0.930 . S
H524 C467 0.930 . S
H525 C469 0.929 . S
H526 C470 0.930 . S
H527 C471 0.930 . S
H528 C474 0.930 . S
H529 C477 0.929 . S
H530 C482 0.929 1_455 S
H531 C483 0.930 . S
H532 C490 0.929 1_565 S
H533 C491 0.930 . S
H534 C492 0.930 1_565 S
H535 C493 0.930 . S
H536 C495 0.929 . S
H537 C496 0.930 . S
H538 C497 0.930 . S
H539 C498 0.930 . S
H540 C502 0.929 1_455 S
H541 C504 0.930 . S
H542 C510 0.929 . S
H543 C511 0.930 . S
Li544 N561 1.990 . S
Li544 O604 1.956 . S
Li544 O605 1.970 . S
Li544 O606 1.961 . S
Li545 N569 1.990 . S
Li545 O604 1.970 . S
Li545 O605 1.956 . S
Li545 O607 1.961 . S
Li546 N591 1.990 . S
Li546 O604 1.961 . S
Li546 O606 1.956 . S
Li546 O607 1.970 . S
Li547 N597 1.990 . S
Li547 O605 1.961 . S
Li547 O606 1.970 . S
Li547 O607 1.956 . S
C548 C550 1.348 . S
C548 C551 1.356 . S
C548 O604 1.325 . S
N549 C552 1.314 . S
N549 C553 1.279 . S
C550 C548 1.348 . S
C550 C552 1.353 . S
C550 H608 0.929 . S
C551 C548 1.356 . S
C551 C553 1.358 . S
C551 H609 0.930 . S
C552 N549 1.314 . S
C552 C550 1.353 . S
C552 H610 0.930 . S
C553 N549 1.279 . S
C553 C551 1.358 . S
C553 H611 0.930 . S
C554 C557 1.348 . S
C554 C558 1.356 . S
C554 O605 1.325 . S
C555 N556 1.279 . S
C555 C558 1.358 . S
C555 H612 0.930 . S
N556 C555 1.279 . S
N556 C559 1.314 . S
C557 C554 1.348 . S
C557 C559 1.353 . S
C557 H613 0.929 . S
C558 C554 1.356 . S
C558 C555 1.358 . S
C558 H614 0.930 . S
C559 N556 1.314 . S
C559 C557 1.353 . S
C559 H615 0.930 . S
C560 N561 1.314 . S
C560 C565 1.353 . S
C560 H566 0.930 . S
N561 Li544 1.990 . S
N561 C560 1.314 . S
N561 C563 1.279 . S
C562 C563 1.358 . S
C562 C564 1.356 . S
C562 H616 0.930 . S
C563 N561 1.279 . S
C563 C562 1.358 . S
C563 H567 0.930 . S
C564 C562 1.356 . S
C564 C565 1.348 . S
C565 C560 1.353 . S
C565 C564 1.348 . S
C565 H617 0.929 . S
H566 C560 0.930 . S
H567 C563 0.930 . S
C568 N569 1.314 . S
C568 C570 1.353 . S
C568 H574 0.930 . S
N569 Li545 1.990 . S
N569 C568 1.314 . S
N569 C572 1.279 . S
C570 C568 1.353 . S
C570 C573 1.348 . S
C570 H618 0.929 . S
C571 C572 1.358 . S
C571 C573 1.356 . S
C571 H619 0.930 . S
C572 N569 1.279 . S
C572 C571 1.358 . S
C572 H575 0.930 . S
C573 C570 1.348 . S
C573 C571 1.356 . S
H574 C568 0.930 . S
H575 C572 0.930 . S
C576 C578 1.348 . S
C576 C579 1.356 . S
C576 O606 1.325 . S
N577 C580 1.314 . S
N577 C581 1.279 . S
C578 C576 1.348 . S
C578 C580 1.353 . S
C578 H620 0.929 . S
C579 C576 1.356 . S
C579 C581 1.358 . S
C579 H621 0.930 . S
C580 N577 1.314 . S
C580 C578 1.353 . S
C580 H622 0.930 . S
C581 N577 1.279 . S
C581 C579 1.358 . S
C581 H623 0.930 . S
C582 C583 1.348 . S
C582 C584 1.356 . S
C582 O607 1.325 . S
C583 C582 1.348 . S
C583 C585 1.353 . S
C583 H624 0.929 . S
C584 C582 1.356 . S
C584 C586 1.358 . S
C584 H625 0.930 . S
C585 C583 1.353 . S
C585 N587 1.314 . S
C585 H626 0.930 . S
C586 C584 1.358 . S
C586 N587 1.279 . S
C586 H627 0.930 . S
N587 C585 1.314 . S
N587 C586 1.279 . S
C588 C590 1.353 . S
C588 N591 1.314 . S
C588 H594 0.930 . S
C589 N591 1.279 . S
C589 C592 1.358 . S
C589 H595 0.930 . S
C590 C588 1.353 . S
C590 C593 1.348 . S
C590 H628 0.929 . S
N591 Li546 1.990 . S
N591 C588 1.314 . S
N591 C589 1.279 . S
C592 C589 1.358 . S
C592 C593 1.356 . S
C592 H629 0.930 . S
C593 C590 1.348 . S
C593 C592 1.356 . S
H594 C588 0.930 . S
H595 C589 0.930 . S
C596 N597 1.314 . S
C596 C598 1.353 . S
C596 H602 0.930 . S
N597 Li547 1.990 . S
N597 C596 1.314 . S
N597 C600 1.279 . S
C598 C596 1.353 . S
C598 C601 1.348 . S
C598 H630 0.929 . S
C599 C600 1.358 . S
C599 C601 1.356 . S
C599 H631 0.930 . S
C600 N597 1.279 . S
C600 C599 1.358 . S
C600 H603 0.930 . S
C601 C598 1.348 . S
C601 C599 1.356 . S
H602 C596 0.930 . S
H603 C600 0.930 . S
O604 Li544 1.956 . S
O604 Li545 1.970 . S
O604 Li546 1.961 . S
O604 C548 1.325 . S
O605 Li544 1.970 . S
O605 Li545 1.956 . S
O605 Li547 1.961 . S
O605 C554 1.325 . S
O606 Li544 1.961 . S
O606 Li546 1.956 . S
O606 Li547 1.970 . S
O606 C576 1.325 . S
O607 Li545 1.961 . S
O607 Li546 1.970 . S
O607 Li547 1.956 . S
O607 C582 1.325 . S
H608 C550 0.929 . S
H609 C551 0.930 . S
H610 C552 0.930 . S
H611 C553 0.930 . S
H612 C555 0.930 . S
H613 C557 0.929 . S
H614 C558 0.930 . S
H615 C559 0.930 . S
H616 C562 0.930 . S
H617 C565 0.929 . S
H618 C570 0.929 . S
H619 C571 0.930 . S
H620 C578 0.929 . S
H621 C579 0.930 . S
H622 C580 0.930 . S
H623 C581 0.930 . S
H624 C583 0.929 . S
H625 C584 0.930 . S
H626 C585 0.930 . S
H627 C586 0.930 . S
H628 C590 0.929 . S
H629 C592 0.930 . S
H630 C598 0.929 . S
H631 C599 0.930 . S
Li632 N649 1.990 . S
Li632 O692 1.956 . S
Li632 O693 1.970 . S
Li632 O694 1.961 . S
Li633 N657 1.990 . S
Li633 O692 1.970 . S
Li633 O693 1.956 . S
Li633 O695 1.961 . S
Li634 N679 1.990 . S
Li634 O692 1.961 . S
Li634 O694 1.956 . S
Li634 O695 1.970 . S
Li635 N685 1.990 . S
Li635 O693 1.961 . S
Li635 O694 1.970 . S
Li635 O695 1.956 . S
C636 C638 1.348 . S
C636 C639 1.356 . S
C636 O692 1.325 . S
N637 C640 1.314 . S
N637 C641 1.279 . S
C638 C636 1.348 . S
C638 C640 1.353 . S
C638 H696 0.929 . S
C639 C636 1.356 . S
C639 C641 1.358 . S
C639 H697 0.930 . S
C640 N637 1.314 . S
C640 C638 1.353 . S
C640 H698 0.930 . S
C641 N637 1.279 . S
C641 C639 1.358 . S
C641 H699 0.930 . S
C642 C645 1.348 . S
C642 C646 1.356 . S
C642 O693 1.325 . S
C643 N644 1.279 . S
C643 C646 1.358 . S
C643 H700 0.930 . S
N644 C643 1.279 . S
N644 C647 1.314 . S
C645 C642 1.348 . S
C645 C647 1.353 . S
C645 H701 0.929 . S
C646 C642 1.356 . S
C646 C643 1.358 . S
C646 H702 0.930 . S
C647 N644 1.314 . S
C647 C645 1.353 . S
C647 H703 0.930 . S
C648 N649 1.314 . S
C648 C653 1.353 . S
C648 H654 0.930 . S
N649 Li632 1.990 . S
N649 C648 1.314 . S
N649 C651 1.279 . S
C650 C651 1.358 . S
C650 C652 1.356 . S
C650 H704 0.930 . S
C651 N649 1.279 . S
C651 C650 1.358 . S
C651 H655 0.930 . S
C652 C650 1.356 . S
C652 C653 1.348 . S
C653 C648 1.353 . S
C653 C652 1.348 . S
C653 H705 0.929 . S
H654 C648 0.930 . S
H655 C651 0.930 . S
C656 N657 1.314 . S
C656 C658 1.353 . S
C656 H662 0.930 . S
N657 Li633 1.990 . S
N657 C656 1.314 . S
N657 C660 1.279 . S
C658 C656 1.353 . S
C658 C661 1.348 . S
C658 H706 0.929 . S
C659 C660 1.358 . S
C659 C661 1.356 . S
C659 H707 0.930 . S
C660 N657 1.279 . S
C660 C659 1.358 . S
C660 H663 0.930 . S
C661 C658 1.348 . S
C661 C659 1.356 . S
H662 C656 0.930 . S
H663 C660 0.930 . S
C664 C666 1.348 . S
C664 C667 1.356 . S
C664 O694 1.325 . S
N665 C668 1.314 . S
N665 C669 1.279 . S
C666 C664 1.348 . S
C666 C668 1.353 . S
C666 H708 0.929 . S
C667 C664 1.356 . S
C667 C669 1.358 . S
C667 H709 0.930 . S
C668 N665 1.314 . S
C668 C666 1.353 . S
C668 H710 0.930 . S
C669 N665 1.279 . S
C669 C667 1.358 . S
C669 H711 0.930 . S
C670 C671 1.348 . S
C670 C672 1.356 . S
C670 O695 1.325 . S
C671 C670 1.348 . S
C671 C673 1.353 . S
C671 H712 0.929 . S
C672 C670 1.356 . S
C672 C674 1.358 . S
C672 H713 0.930 . S
C673 C671 1.353 . S
C673 N675 1.314 . S
C673 H714 0.930 . S
C674 C672 1.358 . S
C674 N675 1.279 . S
C674 H715 0.930 . S
N675 C673 1.314 . S
N675 C674 1.279 . S
C676 C678 1.353 . S
C676 N679 1.314 . S
C676 H682 0.930 . S
C677 N679 1.279 . S
C677 C680 1.358 . S
C677 H683 0.930 . S
C678 C676 1.353 . S
C678 C681 1.348 . S
C678 H716 0.929 . S
N679 Li634 1.990 . S
N679 C676 1.314 . S
N679 C677 1.279 . S
C680 C677 1.358 . S
C680 C681 1.356 . S
C680 H717 0.930 . S
C681 C678 1.348 . S
C681 C680 1.356 . S
H682 C676 0.930 . S
H683 C677 0.930 . S
C684 N685 1.314 . S
C684 C686 1.353 . S
C684 H690 0.930 . S
N685 Li635 1.990 . S
N685 C684 1.314 . S
N685 C688 1.279 . S
C686 C684 1.353 . S
C686 C689 1.348 . S
C686 H718 0.929 . S
C687 C688 1.358 . S
C687 C689 1.356 . S
C687 H719 0.930 . S
C688 N685 1.279 . S
C688 C687 1.358 . S
C688 H691 0.930 . S
C689 C686 1.348 . S
C689 C687 1.356 . S
H690 C684 0.930 . S
H691 C688 0.930 . S
O692 Li632 1.956 . S
O692 Li633 1.970 . S
O692 Li634 1.961 . S
O692 C636 1.325 . S
O693 Li632 1.970 . S
O693 Li633 1.956 . S
O693 Li635 1.961 . S
O693 C642 1.325 . S
O694 Li632 1.961 . S
O694 Li634 1.956 . S
O694 Li635 1.970 . S
O694 C664 1.325 . S
O695 Li633 1.961 . S
O695 Li634 1.970 . S
O695 Li635 1.956 . S
O695 C670 1.325 . S
H696 C638 0.929 . S
H697 C639 0.930 . S
H698 C640 0.930 . S
H699 C641 0.930 . S
H700 C643 0.930 . S
H701 C645 0.929 . S
H702 C646 0.930 . S
H703 C647 0.930 . S
H704 C650 0.930 . S
H705 C653 0.929 . S
H706 C658 0.929 . S
H707 C659 0.930 . S
H708 C666 0.929 . S
H709 C667 0.930 . S
H710 C668 0.930 . S
H711 C669 0.930 . S
H712 C671 0.929 . S
H713 C672 0.930 . S
H714 C673 0.930 . S
H715 C674 0.930 . S
H716 C678 0.929 . S
H717 C680 0.930 . S
H718 C686 0.929 . S
H719 C687 0.930 . S
Li720 N737 1.990 . S
Li720 O780 1.956 . S
Li720 O781 1.970 . S
Li720 O782 1.961 . S
Li721 N745 1.990 . S
Li721 O780 1.970 . S
Li721 O781 1.956 . S
Li721 O783 1.961 . S
Li722 N767 1.990 . S
Li722 O780 1.961 . S
Li722 O782 1.956 . S
Li722 O783 1.970 . S
Li723 N773 1.990 . S
Li723 O781 1.961 . S
Li723 O782 1.970 . S
Li723 O783 1.956 . S
C724 C726 1.348 . S
C724 C727 1.356 . S
C724 O780 1.325 . S
N725 C728 1.314 . S
N725 C729 1.279 . S
C726 C724 1.348 . S
C726 C728 1.353 . S
C726 H784 0.929 . S
C727 C724 1.356 . S
C727 C729 1.358 . S
C727 H785 0.930 . S
C728 N725 1.314 . S
C728 C726 1.353 . S
C728 H786 0.930 . S
C729 N725 1.279 . S
C729 C727 1.358 . S
C729 H787 0.930 . S
C730 C733 1.348 . S
C730 C734 1.356 . S
C730 O781 1.325 . S
C731 N732 1.279 . S
C731 C734 1.358 . S
C731 H788 0.930 . S
N732 C731 1.279 . S
N732 C735 1.314 . S
C733 C730 1.348 . S
C733 C735 1.353 . S
C733 H789 0.929 . S
C734 C730 1.356 . S
C734 C731 1.358 . S
C734 H790 0.930 . S
C735 N732 1.314 . S
C735 C733 1.353 . S
C735 H791 0.930 . S
C736 N737 1.314 . S
C736 C741 1.353 . S
C736 H742 0.930 . S
N737 Li720 1.990 . S
N737 C736 1.314 . S
N737 C739 1.279 . S
C738 C739 1.358 . S
C738 C740 1.356 . S
C738 H792 0.930 . S
C739 N737 1.279 . S
C739 C738 1.358 . S
C739 H743 0.930 . S
C740 C738 1.356 . S
C740 C741 1.348 . S
C741 C736 1.353 . S
C741 C740 1.348 . S
C741 H793 0.929 . S
H742 C736 0.930 . S
H743 C739 0.930 . S
C744 N745 1.314 . S
C744 C746 1.353 . S
C744 H750 0.930 . S
N745 Li721 1.990 . S
N745 C744 1.314 . S
N745 C748 1.279 . S
C746 C744 1.353 . S
C746 C749 1.348 . S
C746 H794 0.929 . S
C747 C748 1.358 . S
C747 C749 1.356 . S
C747 H795 0.930 . S
C748 N745 1.279 . S
C748 C747 1.358 . S
C748 H751 0.930 . S
C749 C746 1.348 . S
C749 C747 1.356 . S
H750 C744 0.930 . S
H751 C748 0.930 . S
C752 C754 1.348 . S
C752 C755 1.356 . S
C752 O782 1.325 . S
N753 C756 1.314 . S
N753 C757 1.279 . S
C754 C752 1.348 . S
C754 C756 1.353 . S
C754 H796 0.929 . S
C755 C752 1.356 . S
C755 C757 1.358 . S
C755 H797 0.930 . S
C756 N753 1.314 . S
C756 C754 1.353 . S
C756 H798 0.930 . S
C757 N753 1.279 . S
C757 C755 1.358 . S
C757 H799 0.930 . S
C758 C759 1.348 . S
C758 C760 1.356 . S
C758 O783 1.325 . S
C759 C758 1.348 . S
C759 C761 1.353 . S
C759 H800 0.929 . S
C760 C758 1.356 . S
C760 C762 1.358 . S
C760 H801 0.930 . S
C761 C759 1.353 . S
C761 N763 1.314 . S
C761 H802 0.930 . S
C762 C760 1.358 . S
C762 N763 1.279 . S
C762 H803 0.930 . S
N763 C761 1.314 . S
N763 C762 1.279 . S
C764 C766 1.353 . S
C764 N767 1.314 . S
C764 H770 0.930 . S
C765 N767 1.279 . S
C765 C768 1.358 . S
C765 H771 0.930 . S
C766 C764 1.353 . S
C766 C769 1.348 . S
C766 H804 0.929 . S
N767 Li722 1.990 . S
N767 C764 1.314 . S
N767 C765 1.279 . S
C768 C765 1.358 . S
C768 C769 1.356 . S
C768 H805 0.930 . S
C769 C766 1.348 . S
C769 C768 1.356 . S
H770 C764 0.930 . S
H771 C765 0.930 . S
C772 N773 1.314 . S
C772 C774 1.353 . S
C772 H778 0.930 . S
N773 Li723 1.990 . S
N773 C772 1.314 . S
N773 C776 1.279 . S
C774 C772 1.353 . S
C774 C777 1.348 . S
C774 H806 0.929 . S
C775 C776 1.358 . S
C775 C777 1.356 . S
C775 H807 0.930 . S
C776 N773 1.279 . S
C776 C775 1.358 . S
C776 H779 0.930 . S
C777 C774 1.348 . S
C777 C775 1.356 . S
H778 C772 0.930 . S
H779 C776 0.930 . S
O780 Li720 1.956 . S
O780 Li721 1.970 . S
O780 Li722 1.961 . S
O780 C724 1.325 . S
O781 Li720 1.970 . S
O781 Li721 1.956 . S
O781 Li723 1.961 . S
O781 C730 1.325 . S
O782 Li720 1.961 . S
O782 Li722 1.956 . S
O782 Li723 1.970 . S
O782 C752 1.325 . S
O783 Li721 1.961 . S
O783 Li722 1.970 . S
O783 Li723 1.956 . S
O783 C758 1.325 . S
H784 C726 0.929 . S
H785 C727 0.930 . S
H786 C728 0.930 . S
H787 C729 0.930 . S
H788 C731 0.930 . S
H789 C733 0.929 . S
H790 C734 0.930 . S
H791 C735 0.930 . S
H792 C738 0.930 . S
H793 C741 0.929 . S
H794 C746 0.929 . S
H795 C747 0.930 . S
H796 C754 0.929 . S
H797 C755 0.930 . S
H798 C756 0.930 . S
H799 C757 0.930 . S
H800 C759 0.929 . S
H801 C760 0.930 . S
H802 C761 0.930 . S
H803 C762 0.930 . S
H804 C766 0.929 . S
H805 C768 0.930 . S
H806 C774 0.929 . S
H807 C775 0.930 . S
Li808 N825 1.990 . S
Li808 O868 1.956 . S
Li808 O869 1.970 1_565 S
Li808 O870 1.961 . S
Li809 N833 1.990 . S
Li809 O868 1.970 1_545 S
Li809 O869 1.956 . S
Li809 O871 1.961 . S
Li810 N855 1.990 . S
Li810 O868 1.961 . S
Li810 O870 1.956 . S
Li810 O871 1.970 1_565 S
Li811 N861 1.990 . S
Li811 O869 1.961 . S
Li811 O870 1.970 1_545 S
Li811 O871 1.956 . S
C812 C814 1.348 . S
C812 C815 1.356 . S
C812 O868 1.325 . S
N813 C816 1.314 . S
N813 C817 1.279 . S
C814 C812 1.348 . S
C814 C816 1.353 . S
C814 H872 0.929 . S
C815 C812 1.356 . S
C815 C817 1.358 . S
C815 H873 0.930 . S
C816 N813 1.314 . S
C816 C814 1.353 . S
C816 H874 0.930 . S
C817 N813 1.279 . S
C817 C815 1.358 . S
C817 H875 0.930 . S
C818 C821 1.348 1_545 S
C818 C822 1.356 . S
C818 O869 1.325 . S
C819 N820 1.279 . S
C819 C822 1.358 . S
C819 H876 0.930 . S
N820 C819 1.279 . S
N820 C823 1.314 1_545 S
C821 C818 1.348 1_565 S
C821 C823 1.353 . S
C821 H877 0.929 . S
C822 C818 1.356 . S
C822 C819 1.358 . S
C822 H878 0.930 . S
C823 N820 1.314 1_565 S
C823 C821 1.353 . S
C823 H879 0.930 . S
C824 N825 1.314 . S
C824 C829 1.353 . S
C824 H830 0.930 . S
N825 Li808 1.990 . S
N825 C824 1.314 . S
N825 C827 1.279 . S
C826 C827 1.358 . S
C826 C828 1.356 . S
C826 H880 0.930 . S
C827 N825 1.279 . S
C827 C826 1.358 . S
C827 H831 0.930 . S
C828 C826 1.356 . S
C828 C829 1.348 . S
C829 C824 1.353 . S
C829 C828 1.348 . S
C829 H881 0.929 . S
H830 C824 0.930 . S
H831 C827 0.930 . S
C832 N833 1.314 . S
C832 C834 1.353 . S
C832 H838 0.930 . S
N833 Li809 1.990 . S
N833 C832 1.314 . S
N833 C836 1.279 . S
C834 C832 1.353 . S
C834 C837 1.348 . S
C834 H882 0.929 . S
C835 C836 1.358 . S
C835 C837 1.356 . S
C835 H883 0.930 . S
C836 N833 1.279 . S
C836 C835 1.358 . S
C836 H839 0.930 . S
C837 C834 1.348 . S
C837 C835 1.356 . S
H838 C832 0.930 . S
H839 C836 0.930 . S
C840 C842 1.348 1_565 S
C840 C843 1.356 . S
C840 O870 1.325 . S
N841 C844 1.314 1_565 S
N841 C845 1.279 . S
C842 C840 1.348 1_545 S
C842 C844 1.353 . S
C842 H884 0.929 . S
C843 C840 1.356 . S
C843 C845 1.358 . S
C843 H885 0.930 . S
C844 N841 1.314 1_545 S
C844 C842 1.353 . S
C844 H886 0.930 . S
C845 N841 1.279 . S
C845 C843 1.358 . S
C845 H887 0.930 . S
C846 C847 1.348 . S
C846 C848 1.356 . S
C846 O871 1.325 . S
C847 C846 1.348 . S
C847 C849 1.353 . S
C847 H888 0.929 . S
C848 C846 1.356 . S
C848 C850 1.358 . S
C848 H889 0.930 . S
C849 C847 1.353 . S
C849 N851 1.314 . S
C849 H890 0.930 . S
C850 C848 1.358 . S
C850 N851 1.279 . S
C850 H891 0.930 . S
N851 C849 1.314 . S
N851 C850 1.279 . S
C852 C854 1.353 . S
C852 N855 1.314 . S
C852 H858 0.930 . S
C853 N855 1.279 . S
C853 C856 1.358 . S
C853 H859 0.930 . S
C854 C852 1.353 . S
C854 C857 1.348 . S
C854 H892 0.929 . S
N855 Li810 1.990 . S
N855 C852 1.314 . S
N855 C853 1.279 . S
C856 C853 1.358 . S
C856 C857 1.356 . S
C856 H893 0.930 . S
C857 C854 1.348 . S
C857 C856 1.356 . S
H858 C852 0.930 . S
H859 C853 0.930 . S
C860 N861 1.314 . S
C860 C862 1.353 . S
C860 H866 0.930 . S
N861 Li811 1.990 . S
N861 C860 1.314 . S
N861 C864 1.279 . S
C862 C860 1.353 . S
C862 C865 1.348 . S
C862 H894 0.929 . S
C863 C864 1.358 . S
C863 C865 1.356 . S
C863 H895 0.930 . S
C864 N861 1.279 . S
C864 C863 1.358 . S
C864 H867 0.930 . S
C865 C862 1.348 . S
C865 C863 1.356 . S
H866 C860 0.930 . S
H867 C864 0.930 . S
O868 Li808 1.956 . S
O868 Li809 1.970 1_565 S
O868 Li810 1.961 . S
O868 C812 1.325 . S
O869 Li808 1.970 1_545 S
O869 Li809 1.956 . S
O869 Li811 1.961 . S
O869 C818 1.325 . S
O870 Li808 1.961 . S
O870 Li810 1.956 . S
O870 Li811 1.970 1_565 S
O870 C840 1.325 . S
O871 Li809 1.961 . S
O871 Li810 1.970 1_545 S
O871 Li811 1.956 . S
O871 C846 1.325 . S
H872 C814 0.929 . S
H873 C815 0.930 . S
H874 C816 0.930 . S
H875 C817 0.930 . S
H876 C819 0.930 . S
H877 C821 0.929 . S
H878 C822 0.930 . S
H879 C823 0.930 . S
H880 C826 0.930 . S
H881 C829 0.929 . S
H882 C834 0.929 . S
H883 C835 0.930 . S
H884 C842 0.929 . S
H885 C843 0.930 . S
H886 C844 0.930 . S
H887 C845 0.930 . S
H888 C847 0.929 . S
H889 C848 0.930 . S
H890 C849 0.930 . S
H891 C850 0.930 . S
H892 C854 0.929 . S
H893 C856 0.930 . S
H894 C862 0.929 . S
H895 C863 0.930 . S
Li896 N913 1.990 . S
Li896 O956 1.956 . S
Li896 O957 1.970 . S
Li896 O958 1.961 . S
Li897 N921 1.980 1_455 S
Li897 O956 1.970 . S
Li897 O957 1.956 . S
Li897 O959 1.961 1_455 S
Li898 N943 1.990 . S
Li898 O956 1.961 . S
Li898 O958 1.956 . S
Li898 O959 1.970 1_455 S
Li899 N949 1.990 . S
Li899 O957 1.961 1_655 S
Li899 O958 1.970 1_655 S
Li899 O959 1.956 . S
C900 C902 1.348 . S
C900 C903 1.356 . S
C900 O956 1.325 . S
N901 C904 1.314 . S
N901 C905 1.279 . S
C902 C900 1.348 . S
C902 C904 1.353 . S
C902 H960 0.929 . S
C903 C900 1.356 . S
C903 C905 1.358 . S
C903 H961 0.930 . S
C904 N901 1.314 . S
C904 C902 1.353 . S
C904 H962 0.930 . S
C905 N901 1.279 . S
C905 C903 1.358 . S
C905 H963 0.930 . S
C906 C909 1.348 . S
C906 C910 1.356 1_455 S
C906 O957 1.325 . S
C907 N908 1.279 . S
C907 C910 1.358 . S
C907 H964 0.930 . S
N908 C907 1.279 . S
N908 C911 1.314 1_655 S
C909 C906 1.348 . S
C909 C911 1.353 . S
C909 H965 0.929 . S
C910 C906 1.356 1_655 S
C910 C907 1.358 . S
C910 H966 0.930 . S
C911 N908 1.314 1_455 S
C911 C909 1.353 . S
C911 H967 0.930 . S
C912 N913 1.314 . S
C912 C917 1.353 . S
C912 H918 0.930 . S
N913 Li896 1.990 . S
N913 C912 1.314 . S
N913 C915 1.279 . S
C914 C915 1.358 . S
C914 C916 1.356 . S
C914 H968 0.930 . S
C915 N913 1.279 . S
C915 C914 1.358 . S
C915 H919 0.930 . S
C916 C914 1.356 . S
C916 C917 1.348 . S
C917 C912 1.353 . S
C917 C916 1.348 . S
C917 H969 0.929 . S
H918 C912 0.930 . S
H919 C915 0.930 . S
C920 N921 1.327 . S
C920 C922 1.353 . S
C920 H926 0.930 . S
N921 Li897 1.980 1_655 S
N921 C920 1.327 . S
N921 C924 1.277 1_655 S
C922 C920 1.353 . S
C922 C925 1.348 . S
C922 H970 0.929 . S
C923 C924 1.357 1_655 S
C923 C925 1.358 . S
C923 H971 0.928 1_655 S
C924 N921 1.277 1_455 S
C924 C923 1.357 1_455 S
C924 H927 0.930 . S
C925 C922 1.348 . S
C925 C923 1.358 . S
H926 C920 0.930 . S
H927 C924 0.930 . S
C928 C930 1.348 1_455 S
C928 C931 1.356 . S
C928 O958 1.325 . S
N929 C932 1.314 1_455 S
N929 C933 1.279 . S
C930 C928 1.348 1_655 S
C930 C932 1.353 . S
C930 H972 0.929 . S
C931 C928 1.356 . S
C931 C933 1.358 . S
C931 H973 0.930 . S
C932 N929 1.314 1_655 S
C932 C930 1.353 . S
C932 H974 0.930 . S
C933 N929 1.279 . S
C933 C931 1.358 . S
C933 H975 0.930 . S
C934 C935 1.348 . S
C934 C936 1.356 . S
C934 O959 1.325 . S
C935 C934 1.348 . S
C935 C937 1.353 . S
C935 H976 0.929 . S
C936 C934 1.356 . S
C936 C938 1.358 . S
C936 H977 0.930 . S
C937 C935 1.353 . S
C937 N939 1.314 . S
C937 H978 0.930 . S
C938 C936 1.358 . S
C938 N939 1.279 . S
C938 H979 0.930 . S
N939 C937 1.314 . S
N939 C938 1.279 . S
C940 C942 1.353 . S
C940 N943 1.314 . S
C940 H946 0.930 . S
C941 N943 1.279 . S
C941 C944 1.358 . S
C941 H947 0.930 . S
C942 C940 1.353 . S
C942 C945 1.348 . S
C942 H980 0.929 . S
N943 Li898 1.990 . S
N943 C940 1.314 . S
N943 C941 1.279 . S
C944 C941 1.358 . S
C944 C945 1.356 . S
C944 H981 0.930 . S
C945 C942 1.348 . S
C945 C944 1.356 . S
H946 C940 0.930 . S
H947 C941 0.930 . S
C948 N949 1.314 . S
C948 C950 1.353 . S
C948 H954 0.930 . S
N949 Li899 1.990 . S
N949 C948 1.314 . S
N949 C952 1.279 . S
C950 C948 1.353 . S
C950 C953 1.348 . S
C950 H982 0.929 . S
C951 C952 1.358 . S
C951 C953 1.356 . S
C951 H983 0.930 . S
C952 N949 1.279 . S
C952 C951 1.358 . S
C952 H955 0.930 . S
C953 C950 1.348 . S
C953 C951 1.356 . S
H954 C948 0.930 . S
H955 C952 0.930 . S
O956 Li896 1.956 . S
O956 Li897 1.970 . S
O956 Li898 1.961 . S
O956 C900 1.325 . S
O957 Li896 1.970 . S
O957 Li897 1.956 . S
O957 Li899 1.961 1_455 S
O957 C906 1.325 . S
O958 Li896 1.961 . S
O958 Li898 1.956 . S
O958 Li899 1.970 1_455 S
O958 C928 1.325 . S
O959 Li897 1.961 1_655 S
O959 Li898 1.970 1_655 S
O959 Li899 1.956 . S
O959 C934 1.325 . S
H960 C902 0.929 . S
H961 C903 0.930 . S
H962 C904 0.930 . S
H963 C905 0.930 . S
H964 C907 0.930 . S
H965 C909 0.929 . S
H966 C910 0.930 . S
H967 C911 0.930 . S
H968 C914 0.930 . S
H969 C917 0.929 . S
H970 C922 0.929 . S
H971 C923 0.928 1_455 S
H972 C930 0.929 . S
H973 C931 0.930 . S
H974 C932 0.930 . S
H975 C933 0.930 . S
H976 C935 0.929 . S
H977 C936 0.930 . S
H978 C937 0.930 . S
H979 C938 0.930 . S
H980 C942 0.929 . S
H981 C944 0.930 . S
H982 C950 0.929 . S
H983 C951 0.930 . S
Li984 N1001 1.990 . S
Li984 O1044 1.956 . S
Li984 O1045 1.970 . S
Li984 O1046 1.961 . S
Li985 N1009 1.990 . S
Li985 O1044 1.970 . S
Li985 O1045 1.956 . S
Li985 O1047 1.961 . S
Li986 N1031 1.990 . S
Li986 O1044 1.961 . S
Li986 O1046 1.956 . S
Li986 O1047 1.970 . S
Li987 N1037 1.990 . S
Li987 O1045 1.961 . S
Li987 O1046 1.970 . S
Li987 O1047 1.956 . S
C988 C990 1.348 . S
C988 C991 1.356 . S
C988 O1044 1.325 . S
N989 C992 1.314 . S
N989 C993 1.279 . S
C990 C988 1.348 . S
C990 C992 1.353 . S
C990 H1048 0.929 . S
C991 C988 1.356 . S
C991 C993 1.358 . S
C991 H1049 0.930 . S
C992 N989 1.314 . S
C992 C990 1.353 . S
C992 H1050 0.930 . S
C993 N989 1.279 . S
C993 C991 1.358 . S
C993 H1051 0.930 . S
C994 C997 1.348 . S
C994 C998 1.356 . S
C994 O1045 1.325 . S
C995 N996 1.279 . S
C995 C998 1.358 . S
C995 H1052 0.930 . S
N996 C995 1.279 . S
N996 C999 1.314 . S
C997 C994 1.348 . S
C997 C999 1.353 . S
C997 H1053 0.929 . S
C998 C994 1.356 . S
C998 C995 1.358 . S
C998 H1054 0.930 . S
C999 N996 1.314 . S
C999 C997 1.353 . S
C999 H1055 0.930 . S
C1000 N1001 1.314 . S
C1000 C1005 1.353 . S
C1000 H1006 0.930 . S
N1001 Li984 1.990 . S
N1001 C1000 1.314 . S
N1001 C1003 1.279 . S
C1002 C1003 1.358 . S
C1002 C1004 1.356 . S
C1002 H1056 0.930 . S
C1003 N1001 1.279 . S
C1003 C1002 1.358 . S
C1003 H1007 0.930 . S
C1004 C1002 1.356 . S
C1004 C1005 1.348 . S
C1005 C1000 1.353 . S
C1005 C1004 1.348 . S
C1005 H1057 0.929 . S
H1006 C1000 0.930 . S
H1007 C1003 0.930 . S
C1008 N1009 1.314 . S
C1008 C1010 1.353 . S
C1008 H1014 0.930 . S
N1009 Li985 1.990 . S
N1009 C1008 1.314 . S
N1009 C1012 1.279 . S
C1010 C1008 1.353 . S
C1010 C1013 1.348 . S
C1010 H1058 0.929 . S
C1011 C1012 1.358 . S
C1011 C1013 1.356 . S
C1011 H1059 0.930 . S
C1012 N1009 1.279 . S
C1012 C1011 1.358 . S
C1012 H1015 0.930 . S
C1013 C1010 1.348 . S
C1013 C1011 1.356 . S
H1014 C1008 0.930 . S
H1015 C1012 0.930 . S
C1016 C1018 1.348 . S
C1016 C1019 1.356 . S
C1016 O1046 1.325 . S
N1017 C1020 1.314 . S
N1017 C1021 1.279 . S
C1018 C1016 1.348 . S
C1018 C1020 1.353 . S
C1018 H1060 0.929 . S
C1019 C1016 1.356 . S
C1019 C1021 1.358 . S
C1019 H1061 0.930 . S
C1020 N1017 1.314 . S
C1020 C1018 1.353 . S
C1020 H1062 0.930 . S
C1021 N1017 1.279 . S
C1021 C1019 1.358 . S
C1021 H1063 0.930 . S
C1022 C1023 1.348 . S
C1022 C1024 1.356 . S
C1022 O1047 1.325 . S
C1023 C1022 1.348 . S
C1023 C1025 1.353 . S
C1023 H1064 0.929 . S
C1024 C1022 1.356 . S
C1024 C1026 1.358 . S
C1024 H1065 0.930 . S
C1025 C1023 1.353 . S
C1025 N1027 1.314 . S
C1025 H1066 0.930 . S
C1026 C1024 1.358 . S
C1026 N1027 1.279 . S
C1026 H1067 0.930 . S
N1027 C1025 1.314 . S
N1027 C1026 1.279 . S
C1028 C1030 1.353 . S
C1028 N1031 1.314 . S
C1028 H1034 0.930 . S
C1029 N1031 1.279 . S
C1029 C1032 1.358 . S
C1029 H1035 0.930 . S
C1030 C1028 1.353 . S
C1030 C1033 1.348 . S
C1030 H1068 0.929 . S
N1031 Li986 1.990 . S
N1031 C1028 1.314 . S
N1031 C1029 1.279 . S
C1032 C1029 1.358 . S
C1032 C1033 1.356 . S
C1032 H1069 0.930 . S
C1033 C1030 1.348 . S
C1033 C1032 1.356 . S
H1034 C1028 0.930 . S
H1035 C1029 0.930 . S
C1036 N1037 1.314 . S
C1036 C1038 1.353 . S
C1036 H1042 0.930 . S
N1037 Li987 1.990 . S
N1037 C1036 1.314 . S
N1037 C1040 1.279 . S
C1038 C1036 1.353 . S
C1038 C1041 1.348 . S
C1038 H1070 0.929 . S
C1039 C1040 1.358 . S
C1039 C1041 1.356 . S
C1039 H1071 0.930 . S
C1040 N1037 1.279 . S
C1040 C1039 1.358 . S
C1040 H1043 0.930 . S
C1041 C1038 1.348 . S
C1041 C1039 1.356 . S
H1042 C1036 0.930 . S
H1043 C1040 0.930 . S
O1044 Li984 1.956 . S
O1044 Li985 1.970 . S
O1044 Li986 1.961 . S
O1044 C988 1.325 . S
O1045 Li984 1.970 . S
O1045 Li985 1.956 . S
O1045 Li987 1.961 . S
O1045 C994 1.325 . S
O1046 Li984 1.961 . S
O1046 Li986 1.956 . S
O1046 Li987 1.970 . S
O1046 C1016 1.325 . S
O1047 Li985 1.961 . S
O1047 Li986 1.970 . S
O1047 Li987 1.956 . S
O1047 C1022 1.325 . S
H1048 C990 0.929 . S
H1049 C991 0.930 . S
H1050 C992 0.930 . S
H1051 C993 0.930 . S
H1052 C995 0.930 . S
H1053 C997 0.929 . S
H1054 C998 0.930 . S
H1055 C999 0.930 . S
H1056 C1002 0.930 . S
H1057 C1005 0.929 . S
H1058 C1010 0.929 . S
H1059 C1011 0.930 . S
H1060 C1018 0.929 . S
H1061 C1019 0.930 . S
H1062 C1020 0.930 . S
H1063 C1021 0.930 . S
H1064 C1023 0.929 . S
H1065 C1024 0.930 . S
H1066 C1025 0.930 . S
H1067 C1026 0.930 . S
H1068 C1030 0.929 . S
H1069 C1032 0.930 . S
H1070 C1038 0.929 . S
H1071 C1039 0.930 . S
Li1072 N1089 1.990 . S
Li1072 O1132 1.956 . S
Li1072 O1133 1.970 1_455 S
Li1072 O1134 1.961 . S
Li1073 N1097 1.990 . S
Li1073 O1132 1.970 1_655 S
Li1073 O1133 1.956 . S
Li1073 O1135 1.961 1_655 S
Li1074 N1119 1.990 . S
Li1074 O1132 1.961 . S
Li1074 O1134 1.956 . S
Li1074 O1135 1.970 . S
Li1075 N1125 1.991 . S
Li1075 O1133 1.961 1_455 S
Li1075 O1134 1.970 . S
Li1075 O1135 1.956 . S
C1076 C1078 1.348 . S
C1076 C1079 1.356 . S
C1076 O1132 1.325 . S
N1077 C1080 1.314 . S
N1077 C1081 1.279 . S
C1078 C1076 1.348 . S
C1078 C1080 1.353 . S
C1078 H1136 0.929 1_455 S
C1079 C1076 1.356 . S
C1079 C1081 1.358 . S
C1079 H1137 0.930 . S
C1080 N1077 1.314 . S
C1080 C1078 1.353 . S
C1080 H1138 0.930 1_455 S
C1081 N1077 1.279 . S
C1081 C1079 1.358 . S
C1081 H1139 0.930 . S
C1082 C1085 1.348 . S
C1082 C1086 1.356 . S
C1082 O1133 1.325 . S
C1083 N1084 1.279 . S
C1083 C1086 1.358 . S
C1083 H1140 0.930 . S
N1084 C1083 1.279 . S
N1084 C1087 1.314 . S
C1085 C1082 1.348 . S
C1085 C1087 1.353 . S
C1085 H1141 0.929 . S
C1086 C1082 1.356 . S
C1086 C1083 1.358 . S
C1086 H1142 0.930 . S
C1087 N1084 1.314 . S
C1087 C1085 1.353 . S
C1087 H1143 0.930 . S
C1088 N1089 1.314 . S
C1088 C1093 1.353 . S
C1088 H1094 0.930 . S
N1089 Li1072 1.990 . S
N1089 C1088 1.314 . S
N1089 C1091 1.279 . S
C1090 C1091 1.358 . S
C1090 C1092 1.356 . S
C1090 H1144 0.930 . S
C1091 N1089 1.279 . S
C1091 C1090 1.358 . S
C1091 H1095 0.930 . S
C1092 C1090 1.356 . S
C1092 C1093 1.348 . S
C1093 C1088 1.353 . S
C1093 C1092 1.348 . S
C1093 H1145 0.929 . S
H1094 C1088 0.930 . S
H1095 C1091 0.930 . S
C1096 N1097 1.314 . S
C1096 C1098 1.353 . S
C1096 H1102 0.930 . S
N1097 Li1073 1.990 . S
N1097 C1096 1.314 . S
N1097 C1100 1.279 . S
C1098 C1096 1.353 . S
C1098 C1101 1.348 . S
C1098 H1146 0.929 . S
C1099 C1100 1.358 . S
C1099 C1101 1.356 . S
C1099 H1147 0.930 . S
C1100 N1097 1.279 . S
C1100 C1099 1.358 . S
C1100 H1103 0.930 . S
C1101 C1098 1.348 . S
C1101 C1099 1.356 . S
H1102 C1096 0.930 . S
H1103 C1100 0.930 . S
C1104 C1106 1.348 . S
C1104 C1107 1.356 . S
C1104 O1134 1.325 . S
N1105 C1108 1.314 . S
N1105 C1109 1.279 . S
C1106 C1104 1.348 . S
C1106 C1108 1.353 . S
C1106 H1148 0.929 . S
C1107 C1104 1.356 . S
C1107 C1109 1.358 . S
C1107 H1149 0.930 . S
C1108 N1105 1.314 . S
C1108 C1106 1.353 . S
C1108 H1150 0.930 . S
C1109 N1105 1.279 . S
C1109 C1107 1.358 . S
C1109 H1151 0.930 . S
C1110 C1111 1.348 . S
C1110 C1112 1.356 1_455 S
C1110 O1135 1.325 . S
C1111 C1110 1.348 . S
C1111 C1113 1.353 . S
C1111 H1152 0.929 . S
C1112 C1110 1.356 1_655 S
C1112 C1114 1.358 . S
C1112 H1153 0.930 . S
C1113 C1111 1.353 . S
C1113 N1115 1.314 1_455 S
C1113 H1154 0.930 . S
C1114 C1112 1.358 . S
C1114 N1115 1.279 . S
C1114 H1155 0.930 . S
N1115 C1113 1.314 1_655 S
N1115 C1114 1.279 . S
C1116 C1118 1.353 . S
C1116 N1119 1.314 . S
C1116 H1122 0.930 . S
C1117 N1119 1.279 . S
C1117 C1120 1.358 . S
C1117 H1123 0.930 . S
C1118 C1116 1.353 . S
C1118 C1121 1.348 . S
C1118 H1156 0.929 . S
N1119 Li1074 1.990 . S
N1119 C1116 1.314 . S
N1119 C1117 1.279 . S
C1120 C1117 1.358 . S
C1120 C1121 1.356 . S
C1120 H1157 0.930 . S
C1121 C1118 1.348 . S
C1121 C1120 1.356 . S
H1122 C1116 0.930 . S
H1123 C1117 0.930 . S
C1124 N1125 1.312 1_655 S
C1124 C1126 1.353 . S
C1124 H1130 0.930 . S
N1125 Li1075 1.991 . S
N1125 C1124 1.312 1_455 S
N1125 C1128 1.281 . S
C1126 C1124 1.353 . S
C1126 C1129 1.348 . S
C1126 H1158 0.929 . S
C1127 C1128 1.358 1_655 S
C1127 C1129 1.361 . S
C1127 H1159 0.927 1_655 S
C1128 N1125 1.281 . S
C1128 C1127 1.358 1_455 S
C1128 H1131 0.930 . S
C1129 C1126 1.348 . S
C1129 C1127 1.361 . S
H1130 C1124 0.930 . S
H1131 C1128 0.930 . S
O1132 Li1072 1.956 . S
O1132 Li1073 1.970 1_455 S
O1132 Li1074 1.961 . S
O1132 C1076 1.325 . S
O1133 Li1072 1.970 1_655 S
O1133 Li1073 1.956 . S
O1133 Li1075 1.961 1_655 S
O1133 C1082 1.325 . S
O1134 Li1072 1.961 . S
O1134 Li1074 1.956 . S
O1134 Li1075 1.970 . S
O1134 C1104 1.325 . S
O1135 Li1073 1.961 1_455 S
O1135 Li1074 1.970 . S
O1135 Li1075 1.956 . S
O1135 C1110 1.325 . S
H1136 C1078 0.929 1_655 S
H1137 C1079 0.930 . S
H1138 C1080 0.930 1_655 S
H1139 C1081 0.930 . S
H1140 C1083 0.930 . S
H1141 C1085 0.929 . S
H1142 C1086 0.930 . S
H1143 C1087 0.930 . S
H1144 C1090 0.930 . S
H1145 C1093 0.929 . S
H1146 C1098 0.929 . S
H1147 C1099 0.930 . S
H1148 C1106 0.929 . S
H1149 C1107 0.930 . S
H1150 C1108 0.930 . S
H1151 C1109 0.930 . S
H1152 C1111 0.929 . S
H1153 C1112 0.930 . S
H1154 C1113 0.930 . S
H1155 C1114 0.930 . S
H1156 C1118 0.929 . S
H1157 C1120 0.930 . S
H1158 C1126 0.929 . S
H1159 C1127 0.927 1_455 S
Li1160 N1177 1.990 . S
Li1160 O1220 1.956 . S
Li1160 O1221 1.970 . S
Li1160 O1222 1.961 . S
Li1161 N1185 1.990 . S
Li1161 O1220 1.970 . S
Li1161 O1221 1.956 . S
Li1161 O1223 1.961 . S
Li1162 N1207 1.990 . S
Li1162 O1220 1.961 . S
Li1162 O1222 1.956 . S
Li1162 O1223 1.970 . S
Li1163 N1213 1.990 . S
Li1163 O1221 1.961 . S
Li1163 O1222 1.970 . S
Li1163 O1223 1.956 . S
C1164 C1166 1.348 . S
C1164 C1167 1.356 . S
C1164 O1220 1.325 . S
N1165 C1168 1.314 . S
N1165 C1169 1.279 . S
C1166 C1164 1.348 . S
C1166 C1168 1.353 . S
C1166 H1224 0.929 . S
C1167 C1164 1.356 . S
C1167 C1169 1.358 . S
C1167 H1225 0.930 . S
C1168 N1165 1.314 . S
C1168 C1166 1.353 . S
C1168 H1226 0.930 . S
C1169 N1165 1.279 . S
C1169 C1167 1.358 . S
C1169 H1227 0.930 . S
C1170 C1173 1.348 . S
C1170 C1174 1.356 . S
C1170 O1221 1.325 . S
C1171 N1172 1.279 . S
C1171 C1174 1.358 . S
C1171 H1228 0.930 . S
N1172 C1171 1.279 . S
N1172 C1175 1.314 . S
C1173 C1170 1.348 . S
C1173 C1175 1.353 . S
C1173 H1229 0.929 . S
C1174 C1170 1.356 . S
C1174 C1171 1.358 . S
C1174 H1230 0.930 . S
C1175 N1172 1.314 . S
C1175 C1173 1.353 . S
C1175 H1231 0.930 . S
C1176 N1177 1.314 . S
C1176 C1181 1.353 . S
C1176 H1182 0.930 . S
N1177 Li1160 1.990 . S
N1177 C1176 1.314 . S
N1177 C1179 1.279 . S
C1178 C1179 1.358 . S
C1178 C1180 1.356 . S
C1178 H1232 0.930 . S
C1179 N1177 1.279 . S
C1179 C1178 1.358 . S
C1179 H1183 0.930 . S
C1180 C1178 1.356 . S
C1180 C1181 1.348 . S
C1181 C1176 1.353 . S
C1181 C1180 1.348 . S
C1181 H1233 0.929 . S
H1182 C1176 0.930 . S
H1183 C1179 0.930 . S
C1184 N1185 1.314 . S
C1184 C1186 1.353 . S
C1184 H1190 0.930 . S
N1185 Li1161 1.990 . S
N1185 C1184 1.314 . S
N1185 C1188 1.279 . S
C1186 C1184 1.353 . S
C1186 C1189 1.348 . S
C1186 H1234 0.929 . S
C1187 C1188 1.358 . S
C1187 C1189 1.356 . S
C1187 H1235 0.930 . S
C1188 N1185 1.279 . S
C1188 C1187 1.358 . S
C1188 H1191 0.930 . S
C1189 C1186 1.348 . S
C1189 C1187 1.356 . S
H1190 C1184 0.930 . S
H1191 C1188 0.930 . S
C1192 C1194 1.348 . S
C1192 C1195 1.356 . S
C1192 O1222 1.325 . S
N1193 C1196 1.314 . S
N1193 C1197 1.279 . S
C1194 C1192 1.348 . S
C1194 C1196 1.353 . S
C1194 H1236 0.929 . S
C1195 C1192 1.356 . S
C1195 C1197 1.358 . S
C1195 H1237 0.930 . S
C1196 N1193 1.314 . S
C1196 C1194 1.353 . S
C1196 H1238 0.930 . S
C1197 N1193 1.279 . S
C1197 C1195 1.358 . S
C1197 H1239 0.930 . S
C1198 C1199 1.348 . S
C1198 C1200 1.356 . S
C1198 O1223 1.325 . S
C1199 C1198 1.348 . S
C1199 C1201 1.353 . S
C1199 H1240 0.929 . S
C1200 C1198 1.356 . S
C1200 C1202 1.358 . S
C1200 H1241 0.930 . S
C1201 C1199 1.353 . S
C1201 N1203 1.314 . S
C1201 H1242 0.930 . S
C1202 C1200 1.358 . S
C1202 N1203 1.279 . S
C1202 H1243 0.930 . S
N1203 C1201 1.314 . S
N1203 C1202 1.279 . S
C1204 C1206 1.353 . S
C1204 N1207 1.314 . S
C1204 H1210 0.930 . S
C1205 N1207 1.279 . S
C1205 C1208 1.358 . S
C1205 H1211 0.930 . S
C1206 C1204 1.353 . S
C1206 C1209 1.348 . S
C1206 H1244 0.929 . S
N1207 Li1162 1.990 . S
N1207 C1204 1.314 . S
N1207 C1205 1.279 . S
C1208 C1205 1.358 . S
C1208 C1209 1.356 . S
C1208 H1245 0.930 . S
C1209 C1206 1.348 . S
C1209 C1208 1.356 . S
H1210 C1204 0.930 . S
H1211 C1205 0.930 . S
C1212 N1213 1.314 . S
C1212 C1214 1.353 . S
C1212 H1218 0.930 . S
N1213 Li1163 1.990 . S
N1213 C1212 1.314 . S
N1213 C1216 1.279 . S
C1214 C1212 1.353 . S
C1214 C1217 1.348 . S
C1214 H1246 0.929 . S
C1215 C1216 1.358 . S
C1215 C1217 1.356 . S
C1215 H1247 0.930 . S
C1216 N1213 1.279 . S
C1216 C1215 1.358 . S
C1216 H1219 0.930 . S
C1217 C1214 1.348 . S
C1217 C1215 1.356 . S
H1218 C1212 0.930 . S
H1219 C1216 0.930 . S
O1220 Li1160 1.956 . S
O1220 Li1161 1.970 . S
O1220 Li1162 1.961 . S
O1220 C1164 1.325 . S
O1221 Li1160 1.970 . S
O1221 Li1161 1.956 . S
O1221 Li1163 1.961 . S
O1221 C1170 1.325 . S
O1222 Li1160 1.961 . S
O1222 Li1162 1.956 . S
O1222 Li1163 1.970 . S
O1222 C1192 1.325 . S
O1223 Li1161 1.961 . S
O1223 Li1162 1.970 . S
O1223 Li1163 1.956 . S
O1223 C1198 1.325 . S
H1224 C1166 0.929 . S
H1225 C1167 0.930 . S
H1226 C1168 0.930 . S
H1227 C1169 0.930 . S
H1228 C1171 0.930 . S
H1229 C1173 0.929 . S
H1230 C1174 0.930 . S
H1231 C1175 0.930 . S
H1232 C1178 0.930 . S
H1233 C1181 0.929 . S
H1234 C1186 0.929 . S
H1235 C1187 0.930 . S
H1236 C1194 0.929 . S
H1237 C1195 0.930 . S
H1238 C1196 0.930 . S
H1239 C1197 0.930 . S
H1240 C1199 0.929 . S
H1241 C1200 0.930 . S
H1242 C1201 0.930 . S
H1243 C1202 0.930 . S
H1244 C1206 0.929 . S
H1245 C1208 0.930 . S
H1246 C1214 0.929 . S
H1247 C1215 0.930 . S
H1248 C1254 0.930 . S
H1249 C1257 0.930 . S
H1250 C1258 0.930 . S
H1251 C1259 0.930 . S
H1252 C1262 0.930 . S
H1253 C1263 0.930 . S
C1254 H1248 0.930 . S
C1254 C1255 1.355 . S
C1254 C1256 1.415 . S
C1255 C1254 1.355 . S
C1255 C1257 1.419 . S
C1256 C1254 1.415 . S
C1256 C1261 1.425 . S
C1256 C1263 1.409 . S
C1257 H1249 0.930 . S
C1257 C1255 1.419 . S
C1257 C1258 1.362 . S
C1258 H1250 0.930 . S
C1258 C1257 1.362 . S
C1258 C1261 1.409 . S
C1259 H1251 0.930 . S
C1259 C1260 1.355 . S
C1259 C1261 1.415 . S
C1260 C1259 1.355 . S
C1260 C1262 1.419 . S
C1261 C1256 1.425 . S
C1261 C1258 1.409 . S
C1261 C1259 1.415 . S
C1262 H1252 0.930 . S
C1262 C1260 1.419 . S
C1262 C1263 1.362 . S
C1263 H1253 0.930 . S
C1263 C1256 1.409 . S
C1263 C1262 1.362 . S
H1264 C1270 0.930 . S
H1265 C1273 0.930 . S
H1266 C1274 0.930 . S
H1267 C1275 0.930 . S
H1268 C1278 0.930 . S
H1269 C1279 0.930 . S
C1270 H1264 0.930 . S
C1270 C1271 1.355 . S
C1270 C1272 1.415 . S
C1271 C1270 1.355 . S
C1271 C1273 1.419 . S
C1272 C1270 1.415 . S
C1272 C1277 1.425 . S
C1272 C1279 1.409 . S
C1273 H1265 0.930 . S
C1273 C1271 1.419 . S
C1273 C1274 1.362 . S
C1274 H1266 0.930 . S
C1274 C1273 1.362 . S
C1274 C1277 1.409 . S
C1275 H1267 0.930 . S
C1275 C1276 1.355 . S
C1275 C1277 1.415 . S
C1276 C1275 1.355 . S
C1276 C1278 1.419 . S
C1277 C1272 1.425 . S
C1277 C1274 1.409 . S
C1277 C1275 1.415 . S
C1278 H1268 0.930 . S
C1278 C1276 1.419 . S
C1278 C1279 1.362 . S
C1279 H1269 0.930 . S
C1279 C1272 1.409 . S
C1279 C1278 1.362 . S
H1280 C1286 0.930 . S
H1281 C1289 0.930 . S
H1282 C1290 0.930 . S
H1283 C1291 0.930 . S
H1284 C1294 0.930 . S
H1285 C1295 0.930 . S
C1286 H1280 0.930 . S
C1286 C1287 1.355 . S
C1286 C1288 1.415 . S
C1287 C1286 1.355 . S
C1287 C1289 1.419 . S
C1288 C1286 1.415 . S
C1288 C1293 1.425 . S
C1288 C1295 1.409 . S
C1289 H1281 0.930 . S
C1289 C1287 1.419 . S
C1289 C1290 1.362 . S
C1290 H1282 0.930 . S
C1290 C1289 1.362 . S
C1290 C1293 1.409 . S
C1291 H1283 0.930 . S
C1291 C1292 1.355 . S
C1291 C1293 1.415 . S
C1292 C1291 1.355 . S
C1292 C1294 1.419 . S
C1293 C1288 1.425 . S
C1293 C1290 1.409 . S
C1293 C1291 1.415 . S
C1294 H1284 0.930 . S
C1294 C1292 1.419 . S
C1294 C1295 1.362 . S
C1295 H1285 0.930 . S
C1295 C1288 1.409 . S
C1295 C1294 1.362 . S
H1296 C1302 0.930 . S
H1297 C1305 0.930 . S
H1298 C1306 0.932 1_655 S
H1299 C1307 0.930 . S
H1300 C1310 0.930 . S
H1301 C1311 0.930 . S
C1302 H1296 0.930 . S
C1302 C1303 1.355 1_545 S
C1302 C1304 1.415 . S
C1303 C1302 1.355 1_565 S
C1303 C1305 1.419 . S
C1304 C1302 1.415 . S
C1304 C1309 1.425 1_545 S
C1304 C1311 1.409 . S
C1305 H1297 0.930 . S
C1305 C1303 1.419 . S
C1305 C1306 1.362 . S
C1306 H1298 0.932 1_455 S
C1306 C1305 1.362 . S
C1306 C1309 1.409 . S
C1307 H1299 0.930 . S
C1307 C1308 1.355 1_665 S
C1307 C1309 1.415 1_655 S
C1308 C1307 1.355 1_445 S
C1308 C1310 1.419 . S
C1309 C1304 1.425 1_565 S
C1309 C1306 1.409 . S
C1309 C1307 1.415 1_455 S
C1310 H1300 0.930 . S
C1310 C1308 1.419 . S
C1310 C1311 1.362 . S
C1311 H1301 0.930 . S
C1311 C1304 1.409 . S
C1311 C1310 1.362 . S
H1312 C1318 0.930 . S
H1313 C1321 0.930 . S
H1314 C1322 0.930 . S
H1315 C1323 0.930 . S
H1316 C1326 0.930 . S
H1317 C1327 0.930 . S
C1318 H1312 0.930 . S
C1318 C1319 1.355 . S
C1318 C1320 1.415 . S
C1319 C1318 1.355 . S
C1319 C1321 1.419 . S
C1320 C1318 1.415 . S
C1320 C1325 1.425 . S
C1320 C1327 1.409 . S
C1321 H1313 0.930 . S
C1321 C1319 1.419 . S
C1321 C1322 1.362 . S
C1322 H1314 0.930 . S
C1322 C1321 1.362 . S
C1322 C1325 1.409 . S
C1323 H1315 0.930 . S
C1323 C1324 1.355 . S
C1323 C1325 1.415 . S
C1324 C1323 1.355 . S
C1324 C1326 1.419 . S
C1325 C1320 1.425 . S
C1325 C1322 1.409 . S
C1325 C1323 1.415 . S
C1326 H1316 0.930 . S
C1326 C1324 1.419 . S
C1326 C1327 1.362 . S
C1327 H1317 0.930 . S
C1327 C1320 1.409 . S
C1327 C1326 1.362 . S
H1328 C1334 0.930 . S
H1329 C1337 0.930 . S
H1330 C1338 0.930 . S
H1331 C1339 0.930 . S
H1332 C1342 0.930 . S
H1333 C1343 0.930 . S
C1334 H1328 0.930 . S
C1334 C1335 1.355 . S
C1334 C1336 1.415 . S
C1335 C1334 1.355 . S
C1335 C1337 1.419 . S
C1336 C1334 1.415 . S
C1336 C1341 1.425 . S
C1336 C1343 1.409 . S
C1337 H1329 0.930 . S
C1337 C1335 1.419 . S
C1337 C1338 1.362 . S
C1338 H1330 0.930 . S
C1338 C1337 1.362 . S
C1338 C1341 1.409 . S
C1339 H1331 0.930 . S
C1339 C1340 1.355 . S
C1339 C1341 1.415 . S
C1340 C1339 1.355 . S
C1340 C1342 1.419 . S
C1341 C1336 1.425 . S
C1341 C1338 1.409 . S
C1341 C1339 1.415 . S
C1342 H1332 0.930 . S
C1342 C1340 1.419 . S
C1342 C1343 1.362 . S
C1343 H1333 0.930 . S
C1343 C1336 1.409 . S
C1343 C1342 1.362 . S
H1344 C1350 0.930 . S
H1345 C1353 0.930 . S
H1346 C1354 0.930 . S
H1347 C1355 0.930 . S
H1348 C1358 0.930 . S
H1349 C1359 0.930 . S
C1350 H1344 0.930 . S
C1350 C1351 1.355 . S
C1350 C1352 1.415 . S
C1351 C1350 1.355 . S
C1351 C1353 1.419 . S
C1352 C1350 1.415 . S
C1352 C1357 1.425 . S
C1352 C1359 1.409 . S
C1353 H1345 0.930 . S
C1353 C1351 1.419 . S
C1353 C1354 1.362 . S
C1354 H1346 0.930 . S
C1354 C1353 1.362 . S
C1354 C1357 1.409 . S
C1355 H1347 0.930 . S
C1355 C1356 1.355 . S
C1355 C1357 1.415 . S
C1356 C1355 1.355 . S
C1356 C1358 1.419 . S
C1357 C1352 1.425 . S
C1357 C1354 1.409 . S
C1357 C1355 1.415 . S
C1358 H1348 0.930 . S
C1358 C1356 1.419 . S
C1358 C1359 1.362 . S
C1359 H1349 0.930 . S
C1359 C1352 1.409 . S
C1359 C1358 1.362 . S
H1360 C1366 0.930 . S
H1361 C1369 0.930 . S
H1362 C1370 0.930 . S
H1363 C1371 0.930 1_545 S
H1364 C1374 0.930 . S
H1365 C1375 0.930 . S
C1366 H1360 0.930 . S
C1366 C1367 1.355 . S
C1366 C1368 1.415 . S
C1367 C1366 1.355 . S
C1367 C1369 1.419 1_565 S
C1368 C1366 1.415 . S
C1368 C1373 1.425 . S
C1368 C1375 1.409 . S
C1369 H1361 0.930 . S
C1369 C1367 1.419 1_545 S
C1369 C1370 1.362 . S
C1370 H1362 0.930 . S
C1370 C1369 1.362 . S
C1370 C1373 1.409 1_545 S
C1371 H1363 0.930 1_565 S
C1371 C1372 1.355 . S
C1371 C1373 1.415 . S
C1372 C1371 1.355 . S
C1372 C1374 1.419 . S
C1373 C1368 1.425 . S
C1373 C1370 1.409 1_565 S
C1373 C1371 1.415 . S
C1374 H1364 0.930 . S
C1374 C1372 1.419 . S
C1374 C1375 1.362 . S
C1375 H1365 0.930 . S
C1375 C1368 1.409 . S
C1375 C1374 1.362 . S
H1376 C1382 0.930 . S
H1377 C1385 0.930 . S
H1378 C1386 0.930 . S
H1379 C1387 0.930 . S
H1380 C1390 0.930 . S
H1381 C1391 0.930 . S
C1382 H1376 0.930 . S
C1382 C1383 1.355 . S
C1382 C1384 1.415 . S
C1383 C1382 1.355 . S
C1383 C1385 1.419 . S
C1384 C1382 1.415 . S
C1384 C1389 1.425 . S
C1384 C1391 1.409 . S
C1385 H1377 0.930 . S
C1385 C1383 1.419 . S
C1385 C1386 1.362 . S
C1386 H1378 0.930 . S
C1386 C1385 1.362 . S
C1386 C1389 1.409 . S
C1387 H1379 0.930 . S
C1387 C1388 1.355 . S
C1387 C1389 1.415 . S
C1388 C1387 1.355 . S
C1388 C1390 1.419 . S
C1389 C1384 1.425 . S
C1389 C1386 1.409 . S
C1389 C1387 1.415 . S
C1390 H1380 0.930 . S
C1390 C1388 1.419 . S
C1390 C1391 1.362 . S
C1391 H1381 0.930 . S
C1391 C1384 1.409 . S
C1391 C1390 1.362 . S
H1392 C1398 0.930 . S
H1393 C1401 0.930 . S
H1394 C1402 0.930 . S
H1395 C1403 0.930 . S
H1396 C1406 0.930 . S
H1397 C1407 0.930 . S
C1398 H1392 0.930 . S
C1398 C1399 1.355 . S
C1398 C1400 1.415 . S
C1399 C1398 1.355 . S
C1399 C1401 1.419 . S
C1400 C1398 1.415 . S
C1400 C1405 1.425 . S
C1400 C1407 1.409 . S
C1401 H1393 0.930 . S
C1401 C1399 1.419 . S
C1401 C1402 1.362 . S
C1402 H1394 0.930 . S
C1402 C1401 1.362 . S
C1402 C1405 1.409 . S
C1403 H1395 0.930 . S
C1403 C1404 1.355 . S
C1403 C1405 1.415 . S
C1404 C1403 1.355 . S
C1404 C1406 1.419 . S
C1405 C1400 1.425 . S
C1405 C1402 1.409 . S
C1405 C1403 1.415 . S
C1406 H1396 0.930 . S
C1406 C1404 1.419 . S
C1406 C1407 1.362 . S
C1407 H1397 0.930 . S
C1407 C1400 1.409 . S
C1407 C1406 1.362 . S
H1408 C1414 0.930 . S
H1409 C1417 0.930 . S
H1410 C1418 0.930 . S
H1411 C1419 0.930 . S
H1412 C1422 0.930 . S
H1413 C1423 0.930 . S
C1414 H1408 0.930 . S
C1414 C1415 1.355 . S
C1414 C1416 1.415 . S
C1415 C1414 1.355 . S
C1415 C1417 1.419 . S
C1416 C1414 1.415 . S
C1416 C1421 1.425 . S
C1416 C1423 1.409 . S
C1417 H1409 0.930 . S
C1417 C1415 1.419 . S
C1417 C1418 1.362 . S
C1418 H1410 0.930 . S
C1418 C1417 1.362 . S
C1418 C1421 1.409 . S
C1419 H1411 0.930 . S
C1419 C1420 1.355 . S
C1419 C1421 1.415 . S
C1420 C1419 1.355 . S
C1420 C1422 1.419 . S
C1421 C1416 1.425 . S
C1421 C1418 1.409 . S
C1421 C1419 1.415 . S
C1422 H1412 0.930 . S
C1422 C1420 1.419 . S
C1422 C1423 1.362 . S
C1423 H1413 0.930 . S
C1423 C1416 1.409 . S
C1423 C1422 1.362 . S
H1424 C1430 0.930 . S
H1425 C1433 0.930 . S
H1426 C1434 0.930 . S
H1427 C1435 0.930 . S
H1428 C1438 0.930 . S
H1429 C1439 0.930 . S
C1430 H1424 0.930 . S
C1430 C1431 1.355 . S
C1430 C1432 1.415 . S
C1431 C1430 1.355 . S
C1431 C1433 1.419 . S
C1432 C1430 1.415 . S
C1432 C1437 1.425 . S
C1432 C1439 1.409 . S
C1433 H1425 0.930 . S
C1433 C1431 1.419 . S
C1433 C1434 1.362 . S
C1434 H1426 0.930 . S
C1434 C1433 1.362 . S
C1434 C1437 1.409 . S
C1435 H1427 0.930 . S
C1435 C1436 1.355 . S
C1435 C1437 1.415 . S
C1436 C1435 1.355 . S
C1436 C1438 1.419 . S
C1437 C1432 1.425 . S
C1437 C1434 1.409 . S
C1437 C1435 1.415 . S
C1438 H1428 0.930 . S
C1438 C1436 1.419 . S
C1438 C1439 1.362 . S
C1439 H1429 0.930 . S
C1439 C1432 1.409 . S
C1439 C1438 1.362 . S
H1440 C1446 0.930 . S
H1441 C1449 0.930 . S
H1442 C1450 0.930 . S
H1443 C1451 0.930 . S
H1444 C1454 0.930 . S
H1445 C1455 0.930 . S
C1446 H1440 0.930 . S
C1446 C1447 1.355 . S
C1446 C1448 1.415 . S
C1447 C1446 1.355 . S
C1447 C1449 1.419 . S
C1448 C1446 1.415 . S
C1448 C1453 1.425 . S
C1448 C1455 1.409 . S
C1449 H1441 0.930 . S
C1449 C1447 1.419 . S
C1449 C1450 1.362 . S
C1450 H1442 0.930 . S
C1450 C1449 1.362 . S
C1450 C1453 1.409 . S
C1451 H1443 0.930 . S
C1451 C1452 1.355 . S
C1451 C1453 1.415 . S
C1452 C1451 1.355 . S
C1452 C1454 1.419 . S
C1453 C1448 1.425 . S
C1453 C1450 1.409 . S
C1453 C1451 1.415 . S
C1454 H1444 0.930 . S
C1454 C1452 1.419 . S
C1454 C1455 1.362 . S
C1455 H1445 0.930 . S
C1455 C1448 1.409 . S
C1455 C1454 1.362 . S
H1456 C1462 0.930 . S
H1457 C1465 0.930 . S
H1458 C1466 0.968 . S
H1459 C1467 0.930 . S
H1460 C1470 0.930 . S
H1461 C1471 0.930 . S
C1462 H1456 0.930 . S
C1462 C1463 1.355 . S
C1462 C1464 1.415 . S
C1463 C1462 1.355 . S
C1463 C1465 1.419 . S
C1464 C1462 1.415 . S
C1464 C1469 1.425 . S
C1464 C1471 1.409 . S
C1465 H1457 0.930 . S
C1465 C1463 1.419 . S
C1465 C1466 1.362 . S
C1466 H1458 0.968 . S
C1466 C1465 1.362 . S
C1466 C1469 1.409 . S
C1467 H1459 0.930 . S
C1467 C1468 1.355 . S
C1467 C1469 1.415 . S
C1468 C1467 1.355 . S
C1468 C1470 1.419 . S
C1469 C1464 1.425 . S
C1469 C1466 1.409 . S
C1469 C1467 1.415 . S
C1470 H1460 0.930 . S
C1470 C1468 1.419 . S
C1470 C1471 1.362 . S
C1471 H1461 0.930 . S
C1471 C1464 1.409 . S
C1471 C1470 1.362 . S
H1472 C1478 0.930 . S
H1473 C1481 0.930 . S
H1474 C1482 0.930 . S
H1475 C1483 0.930 . S
H1476 C1486 0.930 . S
H1477 C1487 0.930 . S
C1478 H1472 0.930 . S
C1478 C1479 1.355 . S
C1478 C1480 1.415 . S
C1479 C1478 1.355 . S
C1479 C1481 1.419 . S
C1480 C1478 1.415 . S
C1480 C1485 1.425 . S
C1480 C1487 1.409 . S
C1481 H1473 0.930 . S
C1481 C1479 1.419 . S
C1481 C1482 1.362 . S
C1482 H1474 0.930 . S
C1482 C1481 1.362 . S
C1482 C1485 1.409 . S
C1483 H1475 0.930 . S
C1483 C1484 1.355 . S
C1483 C1485 1.415 . S
C1484 C1483 1.355 . S
C1484 C1486 1.419 . S
C1485 C1480 1.425 . S
C1485 C1482 1.409 . S
C1485 C1483 1.415 . S
C1486 H1476 0.930 . S
C1486 C1484 1.419 . S
C1486 C1487 1.362 . S
C1487 H1477 0.930 . S
C1487 C1480 1.409 . S
C1487 C1486 1.362 . S
H1488 C1494 0.930 . S
H1489 C1497 0.930 . S
H1490 C1498 0.930 . S
H1491 C1499 0.930 . S
H1492 C1502 0.930 . S
H1493 C1503 0.930 . S
C1494 H1488 0.930 . S
C1494 C1495 1.355 . S
C1494 C1496 1.415 . S
C1495 C1494 1.355 . S
C1495 C1497 1.419 1_655 S
C1496 C1494 1.415 . S
C1496 C1501 1.425 1_655 S
C1496 C1503 1.409 . S
C1497 H1489 0.930 . S
C1497 C1495 1.419 1_455 S
C1497 C1498 1.362 . S
C1498 H1490 0.930 . S
C1498 C1497 1.362 . S
C1498 C1501 1.409 . S
C1499 H1491 0.930 . S
C1499 C1500 1.355 1_455 S
C1499 C1501 1.415 . S
C1500 C1499 1.355 1_655 S
C1500 C1502 1.419 . S
C1501 C1496 1.425 1_455 S
C1501 C1498 1.409 . S
C1501 C1499 1.415 . S
C1502 H1492 0.930 . S
C1502 C1500 1.419 . S
C1502 C1503 1.362 . S
C1503 H1493 0.930 . S
C1503 C1496 1.409 . S
C1503 C1502 1.362 . S
H1504 C1510 0.930 . S
H1505 C1513 0.930 . S
H1506 C1514 0.930 . S
H1507 C1515 0.930 . S
H1508 C1518 0.930 . S
H1509 C1519 0.930 . S
C1510 H1504 0.930 . S
C1510 C1511 1.355 . S
C1510 C1512 1.415 . S
C1511 C1510 1.355 . S
C1511 C1513 1.419 . S
C1512 C1510 1.415 . S
C1512 C1517 1.425 . S
C1512 C1519 1.409 . S
C1513 H1505 0.930 . S
C1513 C1511 1.419 . S
C1513 C1514 1.362 . S
C1514 H1506 0.930 . S
C1514 C1513 1.362 . S
C1514 C1517 1.409 . S
C1515 H1507 0.930 . S
C1515 C1516 1.355 . S
C1515 C1517 1.415 . S
C1516 C1515 1.355 . S
C1516 C1518 1.419 . S
C1517 C1512 1.425 . S
C1517 C1514 1.409 . S
C1517 C1515 1.415 . S
C1518 H1508 0.930 . S
C1518 C1516 1.419 . S
C1518 C1519 1.362 . S
C1519 H1509 0.930 . S
C1519 C1512 1.409 . S
C1519 C1518 1.362 . S
H1520 C1526 0.930 . S
H1521 C1529 0.930 . S
H1522 C1530 0.930 . S
H1523 C1531 0.930 . S
H1524 C1534 0.930 . S
H1525 C1535 0.930 . S
C1526 H1520 0.930 . S
C1526 C1527 1.355 . S
C1526 C1528 1.415 . S
C1527 C1526 1.355 . S
C1527 C1529 1.419 . S
C1528 C1526 1.415 . S
C1528 C1533 1.425 . S
C1528 C1535 1.409 . S
C1529 H1521 0.930 . S
C1529 C1527 1.419 . S
C1529 C1530 1.362 . S
C1530 H1522 0.930 . S
C1530 C1529 1.362 . S
C1530 C1533 1.409 . S
C1531 H1523 0.930 . S
C1531 C1532 1.355 . S
C1531 C1533 1.415 . S
C1532 C1531 1.355 . S
C1532 C1534 1.419 . S
C1533 C1528 1.425 . S
C1533 C1530 1.409 . S
C1533 C1531 1.415 . S
C1534 H1524 0.930 . S
C1534 C1532 1.419 . S
C1534 C1535 1.362 . S
C1535 H1525 0.930 . S
C1535 C1528 1.409 . S
C1535 C1534 1.362 . S
H1536 C1542 0.930 . S
H1537 C1545 0.930 . S
H1538 C1546 0.930 . S
H1539 C1547 0.930 . S
H1540 C1550 0.930 . S
H1541 C1551 0.930 . S
C1542 H1536 0.930 . S
C1542 C1543 1.355 1_565 S
C1542 C1544 1.415 . S
C1543 C1542 1.355 1_545 S
C1543 C1545 1.419 1_556 S
C1544 C1542 1.415 . S
C1544 C1549 1.393 1_556 S
C1544 C1551 1.409 . S
C1545 H1537 0.930 . S
C1545 C1543 1.419 1_554 S
C1545 C1546 1.362 1_545 S
C1546 H1538 0.930 . S
C1546 C1545 1.362 1_565 S
C1546 C1549 1.424 . S
C1547 H1539 0.930 . S
C1547 C1548 1.355 1_554 S
C1547 C1549 1.431 . S
C1548 C1547 1.355 1_556 S
C1548 C1550 1.419 . S
C1549 C1544 1.393 1_554 S
C1549 C1546 1.424 . S
C1549 C1547 1.431 . S
C1550 H1540 0.930 . S
C1550 C1548 1.419 . S
C1550 C1551 1.362 . S
C1551 H1541 0.930 . S
C1551 C1544 1.409 . S
C1551 C1550 1.362 . S
H1552 C1558 0.930 . S
H1553 C1561 0.930 . S
H1554 C1562 0.930 . S
H1555 C1563 0.930 . S
H1556 C1566 0.930 . S
H1557 C1567 0.930 . S
C1558 H1552 0.930 . S
C1558 C1559 1.355 . S
C1558 C1560 1.415 . S
C1559 C1558 1.355 . S
C1559 C1561 1.419 . S
C1560 C1558 1.415 . S
C1560 C1565 1.425 . S
C1560 C1567 1.409 . S
C1561 H1553 0.930 . S
C1561 C1559 1.419 . S
C1561 C1562 1.362 . S
C1562 H1554 0.930 . S
C1562 C1561 1.362 . S
C1562 C1565 1.409 . S
C1563 H1555 0.930 . S
C1563 C1564 1.355 . S
C1563 C1565 1.415 . S
C1564 C1563 1.355 . S
C1564 C1566 1.419 . S
C1565 C1560 1.425 . S
C1565 C1562 1.409 . S
C1565 C1563 1.415 . S
C1566 H1556 0.930 . S
C1566 C1564 1.419 . S
C1566 C1567 1.362 . S
C1567 H1557 0.930 . S
C1567 C1560 1.409 . S
C1567 C1566 1.362 . S
H1568 C1574 0.930 . S
H1569 C1577 0.930 1_565 S
H1570 C1578 0.930 . S
H1571 C1579 0.930 . S
H1572 C1582 0.930 . S
H1573 C1583 0.930 . S
C1574 H1568 0.930 . S
C1574 C1575 1.355 . S
C1574 C1576 1.415 . S
C1575 C1574 1.355 . S
C1575 C1577 1.419 . S
C1576 C1574 1.415 . S
C1576 C1581 1.425 . S
C1576 C1583 1.409 . S
C1577 H1569 0.930 1_545 S
C1577 C1575 1.419 . S
C1577 C1578 1.362 . S
C1578 H1570 0.930 . S
C1578 C1577 1.362 . S
C1578 C1581 1.409 . S
C1579 H1571 0.930 . S
C1579 C1580 1.355 . S
C1579 C1581 1.415 . S
C1580 C1579 1.355 . S
C1580 C1582 1.419 . S
C1581 C1576 1.425 . S
C1581 C1578 1.409 . S
C1581 C1579 1.415 . S
C1582 H1572 0.930 . S
C1582 C1580 1.419 . S
C1582 C1583 1.362 . S
C1583 H1573 0.930 . S
C1583 C1576 1.409 . S
C1583 C1582 1.362 . S
H1584 C1590 0.930 . S
H1585 C1593 0.930 . S
H1586 C1594 0.930 . S
H1587 C1595 0.930 . S
H1588 C1598 0.930 . S
H1589 C1599 0.930 . S
C1590 H1584 0.930 . S
C1590 C1591 1.355 . S
C1590 C1592 1.415 . S
C1591 C1590 1.355 . S
C1591 C1593 1.419 . S
C1592 C1590 1.415 . S
C1592 C1597 1.425 . S
C1592 C1599 1.409 . S
C1593 H1585 0.930 . S
C1593 C1591 1.419 . S
C1593 C1594 1.362 . S
C1594 H1586 0.930 . S
C1594 C1593 1.362 . S
C1594 C1597 1.409 . S
C1595 H1587 0.930 . S
C1595 C1596 1.355 . S
C1595 C1597 1.415 . S
C1596 C1595 1.355 . S
C1596 C1598 1.419 . S
C1597 C1592 1.425 . S
C1597 C1594 1.409 . S
C1597 C1595 1.415 . S
C1598 H1588 0.930 . S
C1598 C1596 1.419 . S
C1598 C1599 1.362 . S
C1599 H1589 0.930 . S
C1599 C1592 1.409 . S
C1599 C1598 1.362 . S
H1600 C1606 0.930 . S
H1601 C1609 0.930 1_565 S
H1602 C1610 0.930 . S
H1603 C1611 0.930 . S
H1604 C1614 0.930 . S
H1605 C1615 0.930 . S
C1606 H1600 0.930 . S
C1606 C1607 1.355 . S
C1606 C1608 1.415 . S
C1607 C1606 1.355 . S
C1607 C1609 1.419 . S
C1608 C1606 1.415 . S
C1608 C1613 1.425 . S
C1608 C1615 1.409 . S
C1609 H1601 0.930 1_545 S
C1609 C1607 1.419 . S
C1609 C1610 1.362 . S
C1610 H1602 0.930 . S
C1610 C1609 1.362 . S
C1610 C1613 1.409 . S
C1611 H1603 0.930 . S
C1611 C1612 1.355 . S
C1611 C1613 1.415 . S
C1612 C1611 1.355 . S
C1612 C1614 1.419 . S
C1613 C1608 1.425 . S
C1613 C1610 1.409 . S
C1613 C1611 1.415 . S
C1614 H1604 0.930 . S
C1614 C1612 1.419 . S
C1614 C1615 1.362 . S
C1615 H1605 0.930 . S
C1615 C1608 1.409 . S
C1615 C1614 1.362 . S
H1616 C1622 0.930 . S
H1617 C1625 0.930 . S
H1618 C1626 0.930 . S
H1619 C1627 0.930 . S
H1620 C1630 0.930 . S
H1621 C1631 0.930 . S
C1622 H1616 0.930 . S
C1622 C1623 1.355 . S
C1622 C1624 1.415 . S
C1623 C1622 1.355 . S
C1623 C1625 1.419 . S
C1624 C1622 1.415 . S
C1624 C1629 1.425 . S
C1624 C1631 1.409 . S
C1625 H1617 0.930 . S
C1625 C1623 1.419 . S
C1625 C1626 1.362 . S
C1626 H1618 0.930 . S
C1626 C1625 1.362 . S
C1626 C1629 1.409 . S
C1627 H1619 0.930 . S
C1627 C1628 1.355 . S
C1627 C1629 1.415 . S
C1628 C1627 1.355 . S
C1628 C1630 1.419 . S
C1629 C1624 1.425 . S
C1629 C1626 1.409 . S
C1629 C1627 1.415 . S
C1630 H1620 0.930 . S
C1630 C1628 1.419 . S
C1630 C1631 1.362 . S
C1631 H1621 0.930 . S
C1631 C1624 1.409 . S
C1631 C1630 1.362 . S
H1632 C1638 0.930 . S
H1633 C1641 0.930 . S
H1634 C1642 0.930 . S
H1635 C1643 0.930 . S
H1636 C1646 0.930 . S
H1637 C1647 0.930 . S
C1638 H1632 0.930 . S
C1638 C1639 1.355 . S
C1638 C1640 1.415 . S
C1639 C1638 1.355 . S
C1639 C1641 1.419 . S
C1640 C1638 1.415 . S
C1640 C1645 1.425 . S
C1640 C1647 1.409 . S
C1641 H1633 0.930 . S
C1641 C1639 1.419 . S
C1641 C1642 1.362 . S
C1642 H1634 0.930 . S
C1642 C1641 1.362 . S
C1642 C1645 1.409 . S
C1643 H1635 0.930 . S
C1643 C1644 1.355 . S
C1643 C1645 1.415 . S
C1644 C1643 1.355 . S
C1644 C1646 1.419 . S
C1645 C1640 1.425 . S
C1645 C1642 1.409 . S
C1645 C1643 1.415 . S
C1646 H1636 0.930 . S
C1646 C1644 1.419 . S
C1646 C1647 1.362 . S
C1647 H1637 0.930 . S
C1647 C1640 1.409 . S
C1647 C1646 1.362 . S
H1648 C1654 0.930 . S
H1649 C1657 0.930 . S
H1650 C1658 0.930 1_565 S
H1651 C1659 0.935 . S
H1652 C1662 0.930 . S
H1653 C1663 0.930 . S
C1654 H1648 0.930 . S
C1654 C1655 1.355 . S
C1654 C1656 1.415 . S
C1655 C1654 1.355 . S
C1655 C1657 1.419 . S
C1656 C1654 1.415 . S
C1656 C1661 1.425 . S
C1656 C1663 1.409 . S
C1657 H1649 0.930 . S
C1657 C1655 1.419 . S
C1657 C1658 1.362 . S
C1658 H1650 0.930 1_545 S
C1658 C1657 1.362 . S
C1658 C1661 1.409 . S
C1659 H1651 0.935 . S
C1659 C1660 1.355 . S
C1659 C1661 1.415 . S
C1660 C1659 1.355 . S
C1660 C1662 1.419 . S
C1661 C1656 1.425 . S
C1661 C1658 1.409 . S
C1661 C1659 1.415 . S
C1662 H1652 0.930 . S
C1662 C1660 1.419 . S
C1662 C1663 1.362 . S
C1663 H1653 0.930 . S
C1663 C1656 1.409 . S
C1663 C1662 1.362 . S
H1664 C1670 0.930 . S
H1665 C1673 0.930 . S
H1666 C1674 0.930 . S
H1667 C1675 0.930 . S
H1668 C1678 0.930 . S
H1669 C1679 0.930 . S
C1670 H1664 0.930 . S
C1670 C1671 1.355 . S
C1670 C1672 1.415 . S
C1671 C1670 1.355 . S
C1671 C1673 1.419 . S
C1672 C1670 1.415 . S
C1672 C1677 1.425 . S
C1672 C1679 1.409 . S
C1673 H1665 0.930 . S
C1673 C1671 1.419 . S
C1673 C1674 1.362 . S
C1674 H1666 0.930 . S
C1674 C1673 1.362 . S
C1674 C1677 1.409 . S
C1675 H1667 0.930 . S
C1675 C1676 1.355 . S
C1675 C1677 1.415 . S
C1676 C1675 1.355 . S
C1676 C1678 1.419 . S
C1677 C1672 1.425 . S
C1677 C1674 1.409 . S
C1677 C1675 1.415 . S
C1678 H1668 0.930 . S
C1678 C1676 1.419 . S
C1678 C1679 1.362 . S
C1679 H1669 0.930 . S
C1679 C1672 1.409 . S
C1679 C1678 1.362 . S
H1680 C1686 0.930 . S
H1681 C1689 0.930 . S
H1682 C1690 0.930 . S
H1683 C1691 0.930 . S
H1684 C1694 0.930 . S
H1685 C1695 0.930 . S
C1686 H1680 0.930 . S
C1686 C1687 1.355 . S
C1686 C1688 1.415 . S
C1687 C1686 1.355 . S
C1687 C1689 1.419 . S
C1688 C1686 1.415 . S
C1688 C1693 1.425 . S
C1688 C1695 1.409 . S
C1689 H1681 0.930 . S
C1689 C1687 1.419 . S
C1689 C1690 1.362 . S
C1690 H1682 0.930 . S
C1690 C1689 1.362 . S
C1690 C1693 1.409 . S
C1691 H1683 0.930 . S
C1691 C1692 1.355 . S
C1691 C1693 1.415 . S
C1692 C1691 1.355 . S
C1692 C1694 1.419 . S
C1693 C1688 1.425 . S
C1693 C1690 1.409 . S
C1693 C1691 1.415 . S
C1694 H1684 0.930 . S
C1694 C1692 1.419 . S
C1694 C1695 1.362 . S
C1695 H1685 0.930 . S
C1695 C1688 1.409 . S
C1695 C1694 1.362 . S
H1696 C1702 0.930 . S
H1697 C1705 0.930 . S
H1698 C1706 0.930 . S
H1699 C1707 0.930 . S
H1700 C1710 0.930 . S
H1701 C1711 0.930 . S
C1702 H1696 0.930 . S
C1702 C1703 1.355 . S
C1702 C1704 1.415 . S
C1703 C1702 1.355 . S
C1703 C1705 1.419 . S
C1704 C1702 1.415 . S
C1704 C1709 1.425 . S
C1704 C1711 1.409 . S
C1705 H1697 0.930 . S
C1705 C1703 1.419 . S
C1705 C1706 1.362 . S
C1706 H1698 0.930 . S
C1706 C1705 1.362 . S
C1706 C1709 1.409 . S
C1707 H1699 0.930 . S
C1707 C1708 1.355 . S
C1707 C1709 1.415 . S
C1708 C1707 1.355 . S
C1708 C1710 1.419 . S
C1709 C1704 1.425 . S
C1709 C1706 1.409 . S
C1709 C1707 1.415 . S
C1710 H1700 0.930 . S
C1710 C1708 1.419 . S
C1710 C1711 1.362 . S
C1711 H1701 0.930 . S
C1711 C1704 1.409 . S
C1711 C1710 1.362 . S
H1712 C1718 0.930 . S
H1713 C1721 0.930 1_565 S
H1714 C1722 0.935 1_565 S
H1715 C1723 0.930 . S
H1716 C1726 0.930 . S
H1717 C1727 0.930 . S
C1718 H1712 0.930 . S
C1718 C1719 1.355 . S
C1718 C1720 1.415 . S
C1719 C1718 1.355 . S
C1719 C1721 1.419 . S
C1720 C1718 1.415 . S
C1720 C1725 1.425 . S
C1720 C1727 1.409 . S
C1721 H1713 0.930 1_545 S
C1721 C1719 1.419 . S
C1721 C1722 1.358 1_455 S
C1722 H1714 0.935 1_545 S
C1722 C1721 1.358 1_655 S
C1722 C1725 1.408 1_655 S
C1723 H1715 0.930 . S
C1723 C1724 1.355 . S
C1723 C1725 1.415 1_655 S
C1724 C1723 1.355 . S
C1724 C1726 1.419 1_655 S
C1725 C1720 1.425 . S
C1725 C1722 1.408 1_455 S
C1725 C1723 1.415 1_455 S
C1726 H1716 0.930 . S
C1726 C1724 1.419 1_455 S
C1726 C1727 1.362 . S
C1727 H1717 0.930 . S
C1727 C1720 1.409 . S
C1727 C1726 1.362 . S
H1728 C1734 0.930 . S
H1729 C1737 0.930 . S
H1730 C1738 0.930 . S
H1731 C1739 0.930 . S
H1732 C1742 0.930 . S
H1733 C1743 0.930 . S
C1734 H1728 0.930 . S
C1734 C1735 1.355 . S
C1734 C1736 1.415 . S
C1735 C1734 1.355 . S
C1735 C1737 1.419 . S
C1736 C1734 1.415 . S
C1736 C1741 1.425 . S
C1736 C1743 1.409 . S
C1737 H1729 0.930 . S
C1737 C1735 1.419 . S
C1737 C1738 1.362 . S
C1738 H1730 0.930 . S
C1738 C1737 1.362 . S
C1738 C1741 1.409 . S
C1739 H1731 0.930 . S
C1739 C1740 1.355 . S
C1739 C1741 1.415 . S
C1740 C1739 1.355 . S
C1740 C1742 1.419 . S
C1741 C1736 1.425 . S
C1741 C1738 1.409 . S
C1741 C1739 1.415 . S
C1742 H1732 0.930 . S
C1742 C1740 1.419 . S
C1742 C1743 1.362 . S
C1743 H1733 0.930 . S
C1743 C1736 1.409 . S
C1743 C1742 1.362 . S
H1744 C1750 0.930 1_655 S
H1745 C1753 0.930 . S
H1746 C1754 0.930 . S
H1747 C1755 0.930 . S
H1748 C1758 0.930 . S
H1749 C1759 0.930 . S
C1750 H1744 0.930 1_455 S
C1750 C1751 1.355 . S
C1750 C1752 1.415 . S
C1751 C1750 1.355 . S
C1751 C1753 1.419 . S
C1752 C1750 1.415 . S
C1752 C1757 1.425 . S
C1752 C1759 1.409 . S
C1753 H1745 0.930 . S
C1753 C1751 1.419 . S
C1753 C1754 1.362 . S
C1754 H1746 0.930 . S
C1754 C1753 1.362 . S
C1754 C1757 1.409 . S
C1755 H1747 0.930 . S
C1755 C1756 1.355 . S
C1755 C1757 1.415 . S
C1756 C1755 1.355 . S
C1756 C1758 1.419 . S
C1757 C1752 1.425 . S
C1757 C1754 1.409 . S
C1757 C1755 1.415 . S
C1758 H1748 0.930 . S
C1758 C1756 1.419 . S
C1758 C1759 1.362 . S
C1759 H1749 0.930 . S
C1759 C1752 1.409 . S
C1759 C1758 1.362 . S
H1760 C1766 0.930 . S
H1761 C1769 0.930 . S
H1762 C1770 0.930 . S
H1763 C1771 0.930 . S
H1764 C1774 0.930 . S
H1765 C1775 0.930 . S
C1766 H1760 0.930 . S
C1766 C1767 1.355 . S
C1766 C1768 1.415 . S
C1767 C1766 1.355 . S
C1767 C1769 1.419 . S
C1768 C1766 1.415 . S
C1768 C1773 1.425 . S
C1768 C1775 1.409 . S
C1769 H1761 0.930 . S
C1769 C1767 1.419 . S
C1769 C1770 1.362 . S
C1770 H1762 0.930 . S
C1770 C1769 1.362 . S
C1770 C1773 1.409 . S
C1771 H1763 0.930 . S
C1771 C1772 1.355 . S
C1771 C1773 1.415 . S
C1772 C1771 1.355 . S
C1772 C1774 1.419 . S
C1773 C1768 1.425 . S
C1773 C1770 1.409 . S
C1773 C1771 1.415 . S
C1774 H1764 0.930 . S
C1774 C1772 1.419 . S
C1774 C1775 1.362 . S
C1775 H1765 0.930 . S
C1775 C1768 1.409 . S
C1775 C1774 1.362 . S
H1776 C1782 0.930 1_454 S
H1777 C1785 0.930 . S
H1778 C1786 0.930 . S
H1779 C1787 0.930 . S
H1780 C1790 0.930 . S
H1781 C1791 0.930 . S
C1782 H1776 0.930 1_656 S
C1782 C1783 1.355 . S
C1782 C1784 1.415 . S
C1783 C1782 1.355 . S
C1783 C1785 1.419 . S
C1784 C1782 1.415 . S
C1784 C1789 1.425 . S
C1784 C1791 1.409 1_655 S
C1785 H1777 0.930 . S
C1785 C1783 1.419 . S
C1785 C1786 1.362 . S
C1786 H1778 0.930 . S
C1786 C1785 1.362 . S
C1786 C1789 1.409 . S
C1787 H1779 0.930 . S
C1787 C1788 1.355 . S
C1787 C1789 1.415 . S
C1788 C1787 1.355 . S
C1788 C1790 1.419 1_655 S
C1789 C1784 1.425 . S
C1789 C1786 1.409 . S
C1789 C1787 1.415 . S
C1790 H1780 0.930 . S
C1790 C1788 1.419 1_455 S
C1790 C1791 1.362 . S
C1791 H1781 0.930 . S
C1791 C1784 1.409 1_455 S
C1791 C1790 1.362 . S
H1792 C1798 0.930 . S
H1793 C1801 0.930 . S
H1794 C1802 0.930 . S
H1795 C1803 0.930 . S
H1796 C1806 0.930 . S
H1797 C1807 0.930 . S
C1798 H1792 0.930 . S
C1798 C1799 1.355 . S
C1798 C1800 1.415 . S
C1799 C1798 1.355 . S
C1799 C1801 1.419 . S
C1800 C1798 1.415 . S
C1800 C1805 1.425 . S
C1800 C1807 1.409 . S
C1801 H1793 0.930 . S
C1801 C1799 1.419 . S
C1801 C1802 1.362 . S
C1802 H1794 0.930 . S
C1802 C1801 1.362 . S
C1802 C1805 1.409 . S
C1803 H1795 0.930 . S
C1803 C1804 1.355 . S
C1803 C1805 1.415 . S
C1804 C1803 1.355 . S
C1804 C1806 1.419 . S
C1805 C1800 1.425 . S
C1805 C1802 1.409 . S
C1805 C1803 1.415 . S
C1806 H1796 0.930 . S
C1806 C1804 1.419 . S
C1806 C1807 1.362 . S
C1807 H1797 0.930 . S
C1807 C1800 1.409 . S
C1807 C1806 1.362 . S
H1808 C1814 0.930 . S
H1809 C1817 0.930 . S
H1810 C1818 0.930 . S
H1811 C1819 0.930 . S
H1812 C1822 0.930 1_655 S
H1813 C1823 0.930 1_655 S
C1814 H1808 0.930 . S
C1814 C1815 1.355 . S
C1814 C1816 1.415 . S
C1815 C1814 1.355 . S
C1815 C1817 1.419 . S
C1816 C1814 1.415 . S
C1816 C1821 1.425 . S
C1816 C1823 1.409 . S
C1817 H1809 0.930 . S
C1817 C1815 1.419 . S
C1817 C1818 1.362 . S
C1818 H1810 0.930 . S
C1818 C1817 1.362 . S
C1818 C1821 1.409 . S
C1819 H1811 0.930 . S
C1819 C1820 1.355 . S
C1819 C1821 1.415 . S
C1820 C1819 1.355 . S
C1820 C1822 1.419 . S
C1821 C1816 1.425 . S
C1821 C1818 1.409 . S
C1821 C1819 1.415 . S
C1822 H1812 0.930 1_455 S
C1822 C1820 1.419 . S
C1822 C1823 1.362 . S
C1823 H1813 0.930 1_455 S
C1823 C1816 1.409 . S
C1823 C1822 1.362 . S
H1824 C1830 0.930 . S
H1825 C1833 0.930 . S
H1826 C1834 0.930 . S
H1827 C1835 0.930 . S
H1828 C1838 0.930 . S
H1829 C1839 0.930 . S
C1830 H1824 0.930 . S
C1830 C1831 1.355 . S
C1830 C1832 1.415 . S
C1831 C1830 1.355 . S
C1831 C1833 1.419 . S
C1832 C1830 1.415 . S
C1832 C1837 1.425 . S
C1832 C1839 1.409 . S
C1833 H1825 0.930 . S
C1833 C1831 1.419 . S
C1833 C1834 1.362 . S
C1834 H1826 0.930 . S
C1834 C1833 1.362 . S
C1834 C1837 1.409 . S
C1835 H1827 0.930 . S
C1835 C1836 1.355 . S
C1835 C1837 1.415 . S
C1836 C1835 1.355 . S
C1836 C1838 1.419 . S
C1837 C1832 1.425 . S
C1837 C1834 1.409 . S
C1837 C1835 1.415 . S
C1838 H1828 0.930 . S
C1838 C1836 1.419 . S
C1838 C1839 1.362 . S
C1839 H1829 0.930 . S
C1839 C1832 1.409 . S
C1839 C1838 1.362 . S
H1840 C1846 0.930 . S
H1841 C1849 0.930 . S
H1842 C1850 0.930 . S
H1843 C1851 0.930 . S
H1844 C1854 0.930 . S
H1845 C1855 0.930 . S
C1846 H1840 0.930 . S
C1846 C1847 1.355 . S
C1846 C1848 1.415 . S
C1847 C1846 1.355 . S
C1847 C1849 1.419 . S
C1848 C1846 1.415 . S
C1848 C1853 1.425 . S
C1848 C1855 1.409 . S
C1849 H1841 0.930 . S
C1849 C1847 1.419 . S
C1849 C1850 1.362 . S
C1850 H1842 0.930 . S
C1850 C1849 1.362 . S
C1850 C1853 1.409 . S
C1851 H1843 0.930 . S
C1851 C1852 1.355 . S
C1851 C1853 1.415 . S
C1852 C1851 1.355 . S
C1852 C1854 1.419 . S
C1853 C1848 1.425 . S
C1853 C1850 1.409 . S
C1853 C1851 1.415 . S
C1854 H1844 0.930 . S
C1854 C1852 1.419 . S
C1854 C1855 1.362 . S
C1855 H1845 0.930 . S
C1855 C1848 1.409 . S
C1855 C1854 1.362 . S
H1856 C1862 0.930 . S
H1857 C1865 0.930 . S
H1858 C1866 0.930 . S
H1859 C1867 0.930 . S
H1860 C1870 0.930 . S
H1861 C1871 0.930 . S
C1862 H1856 0.930 . S
C1862 C1863 1.355 . S
C1862 C1864 1.415 . S
C1863 C1862 1.355 . S
C1863 C1865 1.419 . S
C1864 C1862 1.415 . S
C1864 C1869 1.425 . S
C1864 C1871 1.409 . S
C1865 H1857 0.930 . S
C1865 C1863 1.419 . S
C1865 C1866 1.362 . S
C1866 H1858 0.930 . S
C1866 C1865 1.362 . S
C1866 C1869 1.409 . S
C1867 H1859 0.930 . S
C1867 C1868 1.355 . S
C1867 C1869 1.415 . S
C1868 C1867 1.355 . S
C1868 C1870 1.419 . S
C1869 C1864 1.425 . S
C1869 C1866 1.409 . S
C1869 C1867 1.415 . S
C1870 H1860 0.930 . S
C1870 C1868 1.419 . S
C1870 C1871 1.362 . S
C1871 H1861 0.930 . S
C1871 C1864 1.409 . S
C1871 C1870 1.362 . S
H1872 C1878 0.930 . S
H1873 C1881 0.930 . S
H1874 C1882 0.930 . S
H1875 C1883 0.930 . S
H1876 C1886 0.930 . S
H1877 C1887 0.930 . S
C1878 H1872 0.930 . S
C1878 C1879 1.355 1_554 S
C1878 C1880 1.415 . S
C1879 C1878 1.355 1_556 S
C1879 C1881 1.419 . S
C1880 C1878 1.415 . S
C1880 C1885 1.425 . S
C1880 C1887 1.409 . S
C1881 H1873 0.930 . S
C1881 C1879 1.419 . S
C1881 C1882 1.362 . S
C1882 H1874 0.930 . S
C1882 C1881 1.362 . S
C1882 C1885 1.409 1_556 S
C1883 H1875 0.930 . S
C1883 C1884 1.355 . S
C1883 C1885 1.415 . S
C1884 C1883 1.355 . S
C1884 C1886 1.419 . S
C1885 C1880 1.425 . S
C1885 C1882 1.409 1_554 S
C1885 C1883 1.415 . S
C1886 H1876 0.930 . S
C1886 C1884 1.419 . S
C1886 C1887 1.362 . S
C1887 H1877 0.930 . S
C1887 C1880 1.409 . S
C1887 C1886 1.362 . S
H1888 C1894 0.930 . S
H1889 C1897 0.930 . S
H1890 C1898 0.930 . S
H1891 C1899 0.930 . S
H1892 C1902 0.930 . S
H1893 C1903 0.930 . S
C1894 H1888 0.930 . S
C1894 C1895 1.355 . S
C1894 C1896 1.415 . S
C1895 C1894 1.355 . S
C1895 C1897 1.419 . S
C1896 C1894 1.415 . S
C1896 C1901 1.425 . S
C1896 C1903 1.409 . S
C1897 H1889 0.930 . S
C1897 C1895 1.419 . S
C1897 C1898 1.362 . S
C1898 H1890 0.930 . S
C1898 C1897 1.362 . S
C1898 C1901 1.409 . S
C1899 H1891 0.930 . S
C1899 C1900 1.355 . S
C1899 C1901 1.415 . S
C1900 C1899 1.355 . S
C1900 C1902 1.419 . S
C1901 C1896 1.425 . S
C1901 C1898 1.409 . S
C1901 C1899 1.415 . S
C1902 H1892 0.930 . S
C1902 C1900 1.419 . S
C1902 C1903 1.362 . S
C1903 H1893 0.930 . S
C1903 C1896 1.409 . S
C1903 C1902 1.362 . S
H1904 C1910 0.930 . S
H1905 C1913 0.930 . S
H1906 C1914 0.930 . S
H1907 C1915 0.930 . S
H1908 C1918 0.930 . S
H1909 C1919 0.930 . S
C1910 H1904 0.930 . S
C1910 C1911 1.355 . S
C1910 C1912 1.415 . S
C1911 C1910 1.355 . S
C1911 C1913 1.419 . S
C1912 C1910 1.415 . S
C1912 C1917 1.425 . S
C1912 C1919 1.409 . S
C1913 H1905 0.930 . S
C1913 C1911 1.419 . S
C1913 C1914 1.362 . S
C1914 H1906 0.930 . S
C1914 C1913 1.362 . S
C1914 C1917 1.409 . S
C1915 H1907 0.930 . S
C1915 C1916 1.355 . S
C1915 C1917 1.415 . S
C1916 C1915 1.355 . S
C1916 C1918 1.419 . S
C1917 C1912 1.425 . S
C1917 C1914 1.409 . S
C1917 C1915 1.415 . S
C1918 H1908 0.930 . S
C1918 C1916 1.419 . S
C1918 C1919 1.362 . S
C1919 H1909 0.930 . S
C1919 C1912 1.409 . S
C1919 C1918 1.362 . S
H1920 C1926 0.930 . S
H1921 C1929 0.930 . S
H1922 C1930 0.930 . S
H1923 C1931 0.930 . S
H1924 C1934 0.930 . S
H1925 C1935 0.930 . S
C1926 H1920 0.930 . S
C1926 C1927 1.355 . S
C1926 C1928 1.415 . S
C1927 C1926 1.355 . S
C1927 C1929 1.419 . S
C1928 C1926 1.415 . S
C1928 C1933 1.425 . S
C1928 C1935 1.409 . S
C1929 H1921 0.930 . S
C1929 C1927 1.419 . S
C1929 C1930 1.362 . S
C1930 H1922 0.930 . S
C1930 C1929 1.362 . S
C1930 C1933 1.409 . S
C1931 H1923 0.930 . S
C1931 C1932 1.355 . S
C1931 C1933 1.415 . S
C1932 C1931 1.355 . S
C1932 C1934 1.419 . S
C1933 C1928 1.425 . S
C1933 C1930 1.409 . S
C1933 C1931 1.415 . S
C1934 H1924 0.930 . S
C1934 C1932 1.419 . S
C1934 C1935 1.362 . S
C1935 H1925 0.930 . S
C1935 C1928 1.409 . S
C1935 C1934 1.362 . S
H1936 C1942 0.930 . S
H1937 C1945 0.930 . S
H1938 C1946 0.930 . S
H1939 C1947 0.930 . S
H1940 C1950 0.930 . S
H1941 C1951 0.930 . S
C1942 H1936 0.930 . S
C1942 C1943 1.355 . S
C1942 C1944 1.415 . S
C1943 C1942 1.355 . S
C1943 C1945 1.419 . S
C1944 C1942 1.415 . S
C1944 C1949 1.425 . S
C1944 C1951 1.409 . S
C1945 H1937 0.930 . S
C1945 C1943 1.419 . S
C1945 C1946 1.362 . S
C1946 H1938 0.930 . S
C1946 C1945 1.362 . S
C1946 C1949 1.409 . S
C1947 H1939 0.930 . S
C1947 C1948 1.355 . S
C1947 C1949 1.415 . S
C1948 C1947 1.355 . S
C1948 C1950 1.419 . S
C1949 C1944 1.425 . S
C1949 C1946 1.409 . S
C1949 C1947 1.415 . S
C1950 H1940 0.930 . S
C1950 C1948 1.419 . S
C1950 C1951 1.362 . S
C1951 H1941 0.930 . S
C1951 C1944 1.409 . S
C1951 C1950 1.362 . S
H1952 C1958 0.930 . S
H1953 C1961 0.935 . S
H1954 C1962 0.930 . S
H1955 C1963 0.930 1_554 S
H1956 C1966 0.930 . S
H1957 C1967 0.930 . S
C1958 H1952 0.930 . S
C1958 C1959 1.355 . S
C1958 C1960 1.415 . S
C1959 C1958 1.355 . S
C1959 C1961 1.413 1_556 S
C1960 C1958 1.415 . S
C1960 C1965 1.425 . S
C1960 C1967 1.409 . S
C1961 H1953 0.935 . S
C1961 C1959 1.413 1_554 S
C1961 C1962 1.363 . S
C1962 H1954 0.930 . S
C1962 C1961 1.363 . S
C1962 C1965 1.409 1_554 S
C1963 H1955 0.930 1_556 S
C1963 C1964 1.355 . S
C1963 C1965 1.415 . S
C1964 C1963 1.355 . S
C1964 C1966 1.419 . S
C1965 C1960 1.425 . S
C1965 C1962 1.409 1_556 S
C1965 C1963 1.415 . S
C1966 H1956 0.930 . S
C1966 C1964 1.419 . S
C1966 C1967 1.362 . S
C1967 H1957 0.930 . S
C1967 C1960 1.409 . S
C1967 C1966 1.362 . S
H1968 C1974 0.930 . S
H1969 C1977 0.930 . S
H1970 C1978 0.930 . S
H1971 C1979 0.930 . S
H1972 C1982 0.930 . S
H1973 C1983 0.930 . S
C1974 H1968 0.930 . S
C1974 C1975 1.355 . S
C1974 C1976 1.415 . S
C1975 C1974 1.355 . S
C1975 C1977 1.419 . S
C1976 C1974 1.415 . S
C1976 C1981 1.425 . S
C1976 C1983 1.409 . S
C1977 H1969 0.930 . S
C1977 C1975 1.419 . S
C1977 C1978 1.362 . S
C1978 H1970 0.930 . S
C1978 C1977 1.362 . S
C1978 C1981 1.409 . S
C1979 H1971 0.930 . S
C1979 C1980 1.355 . S
C1979 C1981 1.415 . S
C1980 C1979 1.355 . S
C1980 C1982 1.419 . S
C1981 C1976 1.425 . S
C1981 C1978 1.409 . S
C1981 C1979 1.415 . S
C1982 H1972 0.930 . S
C1982 C1980 1.419 . S
C1982 C1983 1.362 . S
C1983 H1973 0.930 . S
C1983 C1976 1.409 . S
C1983 C1982 1.362 . S
H1984 C1990 0.930 . S
H1985 C1993 0.930 . S
H1986 C1994 0.930 . S
H1987 C1995 0.930 . S
H1988 C1998 0.930 1_556 S
H1989 C1999 0.930 1_556 S
C1990 H1984 0.930 . S
C1990 C1991 1.355 . S
C1990 C1992 1.415 . S
C1991 C1990 1.355 . S
C1991 C1993 1.419 . S
C1992 C1990 1.415 . S
C1992 C1997 1.425 . S
C1992 C1999 1.409 . S
C1993 H1985 0.930 . S
C1993 C1991 1.419 . S
C1993 C1994 1.362 . S
C1994 H1986 0.930 . S
C1994 C1993 1.362 . S
C1994 C1997 1.409 . S
C1995 H1987 0.930 . S
C1995 C1996 1.355 . S
C1995 C1997 1.415 . S
C1996 C1995 1.355 . S
C1996 C1998 1.419 . S
C1997 C1992 1.425 . S
C1997 C1994 1.409 . S
C1997 C1995 1.415 . S
C1998 H1988 0.930 1_554 S
C1998 C1996 1.419 . S
C1998 C1999 1.362 . S
C1999 H1989 0.930 1_554 S
C1999 C1992 1.409 . S
C1999 C1998 1.362 . S
H2000 C2006 0.930 1_545 S
H2001 C2009 0.928 1_556 S
H2002 C2010 0.922 1_556 S
H2003 C2011 0.930 1_556 S
H2004 C2014 0.930 . S
H2005 C2015 0.930 . S
C2006 H2000 0.930 1_565 S
C2006 C2007 1.355 1_565 S
C2006 C2008 1.415 . S
C2007 C2006 1.355 1_545 S
C2007 C2009 1.418 . S
C2008 C2006 1.415 . S
C2008 C2013 1.425 . S
C2008 C2015 1.409 . S
C2009 H2001 0.928 1_554 S
C2009 C2007 1.418 . S
C2009 C2010 1.368 1_545 S
C2010 H2002 0.922 1_554 S
C2010 C2009 1.368 1_565 S
C2010 C2013 1.414 . S
C2011 H2003 0.930 1_554 S
C2011 C2012 1.355 . S
C2011 C2013 1.415 . S
C2012 C2011 1.355 . S
C2012 C2014 1.419 . S
C2013 C2008 1.425 . S
C2013 C2010 1.414 . S
C2013 C2011 1.415 . S
C2014 H2004 0.930 . S
C2014 C2012 1.419 . S
C2014 C2015 1.362 . S
C2015 H2005 0.930 . S
C2015 C2008 1.409 . S
C2015 C2014 1.362 . S
C1260 C241 1.749 . S
C1255 C66 1.743 . S
C1276 C300 1.153 . S
C1271 C76 1.149 . S
C1287 C93 1.874 . S
C1292 C417 1.859 . S
C1308 C485 1.529 1_455 S
C1303 C54 1.533 . S
C1324 C564 1.547 . S
C1319 C126 1.546 . S
C1340 C689 1.836 . S
C1335 C150 1.858 . S
C1351 C136 1.123 . S
C1356 C749 1.144 . S
C1372 C857 1.798 . S
C1367 C117 1.798 . S
C1383 C141 1.302 . S
C1388 C953 1.309 . S
C1404 C1013 1.328 . S
C1399 C112 1.325 . S
C1415 C124 1.542 . S
C1420 C916 1.554 . S
C1436 C1033 1.282 . S
C1431 C148 1.294 . S
C1447 C88 1.294 . S
C1452 C1101 1.286 . S
C1463 C52 1.615 . S
C1468 C1092 1.606 . S
C1479 C64 1.231 . S
C1484 C1121 1.246 . S
C1495 C78 1.222 . S
C1500 C1129 1.220 . S
C1511 C45 1.734 . S
C1516 C513 1.739 . S
C1527 C177 1.899 . S
C1532 C476 1.893 . S
C1548 C212 1.372 1_556 S
C1543 C189 1.370 . S
C1564 C309 1.617 . S
C1559 C102 1.616 . S
C1575 C57 1.745 1_545 S
C1580 C573 1.764 . S
C1596 C865 1.447 . S
C1591 C138 1.459 . S
C1612 C593 1.840 . S
C1607 C114 1.835 . S
C1628 C777 1.734 . S
C1623 C153 1.738 . S
C1644 C769 1.770 . S
C1639 C174 1.770 . S
C1655 C184 1.121 . S
C1660 C837 1.127 . S
C1671 C105 1.872 . S
C1676 C601 1.870 . S
C1692 C652 1.487 . S
C1687 C162 1.515 . S
C1703 C42 1.542 . S
C1708 C397 1.525 . S
C1724 C505 1.858 . S
C1719 C6 1.868 . S
C1740 C221 1.163 . S
C1735 C16 1.157 . S
C1756 C337 1.809 . S
C1751 C33 1.814 1_455 S
C1767 C21 1.289 . S
C1772 C1041 1.299 . S
C1783 C28 1.333 1_556 S
C1788 C925 1.327 . S
C1799 C40 1.542 . S
C1804 C1004 1.554 . S
C1815 C4 1.259 . S
C1820 C945 1.274 . S
C1836 C1189 1.281 . S
C1831 C100 1.299 . S
C1852 C1180 1.618 . S
C1847 C160 1.600 . S
C1868 C1209 1.246 . S
C1863 C172 1.232 . S
C1879 C186 1.194 . S
C1884 C1217 1.210 . S
C1895 C129 1.738 . S
C1900 C681 1.746 . S
C1916 C661 1.893 . S
C1911 C69 1.898 . S
C1932 C740 1.378 . S
C1927 C81 1.385 . S
C1948 C828 1.616 . S
C1943 C90 1.613 . S
C1959 C165 1.765 . S
C1964 C388 1.766 . S
C1980 C329 1.450 . S
C1975 C18 1.448 . S
C1991 C30 1.840 . S
C1996 C425 1.818 . S
C2012 C249 1.728 . S
C2007 C9 1.737 . S
