# Generated by pormake.
# Topology pts, (4,4)-cn, num edge types: 1
# Building blocks:
#     Node 0, Type 0, BuildingBlock: AZAVOO_clean_linker_0, # of connection points: 4
#     Node 1, Type 0, BuildingBlock: AZAVOO_clean_linker_0, # of connection points: 4
#     Node 2, Type 1, BuildingBlock: UXUYUI_clean_sbu_0, # of connection points: 4
#     Node 3, Type 1, BuildingBlock: UXUYUI_clean_sbu_0, # of connection points: 4
#     Edge 4, Type (0, 1), BuildingBlock: AJUNOK_clean_linker_0, # of connection points: 2
#     Edge 5, Type (0, 1), BuildingBlock: AJUNOK_clean_linker_0, # of connection points: 2
#     Edge 6, Type (0, 1), BuildingBlock: AJUNOK_clean_linker_0, # of connection points: 2
#     Edge 7, Type (0, 1), BuildingBlock: AJUNOK_clean_linker_0, # of connection points: 2
#     Edge 8, Type (0, 1), BuildingBlock: AJUNOK_clean_linker_0, # of connection points: 2
#     Edge 9, Type (0, 1), BuildingBlock: AJUNOK_clean_linker_0, # of connection points: 2
#     Edge 10, Type (0, 1), BuildingBlock: AJUNOK_clean_linker_0, # of connection points: 2
#     Edge 11, Type (0, 1), BuildingBlock: AJUNOK_clean_linker_0, # of connection points: 2
# Relax obj value: 0.129
# Max RMSD: 0.231
# Mean RMSD: 0.163
data_MOF--net-pts--node1-UXUYUI_clean_sbu_0--node2-AZAVOO_clean_linker_0--edge1-AJUNOK_clean_linker_0
_symmetry_space_group_name_H-M    P1
_symmetry_Int_Tables_number       1
_symmetry_cell_setting            triclinic
loop_
_symmetry_equiv_pos_as_xyz
'x, y, z'
_cell_length_a     26.382088
_cell_length_b     26.399701
_cell_length_c     45.410933
_cell_angle_alpha  91.723932
_cell_angle_beta   91.647168
_cell_angle_gamma 90.038185
loop_
_atom_site_label
_atom_site_type_symbol
_atom_site_fract_x
_atom_site_fract_y
_atom_site_fract_z
_atom_type_partial_charge
H0 H 0.43391 0.10591 0.81222 0.0
H1 H 0.87971 0.01298 0.04448 0.0
H2 H 0.44557 0.14445 0.97613 0.0
H3 H 0.3676 0.14599 0.9455 0.0
H4 H 0.36126 0.98253 0.94564 0.0
H5 H 0.4388 0.98143 0.9765 0.0
H6 H 0.52222 0.14157 0.93068 0.0
H7 H 0.48728 0.14199 0.88013 0.0
H8 H 0.47925 0.97828 0.87887 0.0
H9 H 0.51413 0.97855 0.92945 0.0
H10 H 0.63426 0.14098 0.94888 0.0
H11 H 0.69503 0.14164 0.90897 0.0
H12 H 0.69074 0.97798 0.9035 0.0
H13 H 0.62904 0.97787 0.94289 0.0
H14 H 0.66518 0.13995 0.01825 0.0
H15 H 0.75515 0.14015 0.03311 0.0
H16 H 0.76005 0.97768 0.01812 0.0
H17 H 0.67019 0.9782 0.00303 0.0
H18 H 0.58115 0.13845 0.06375 0.0
H19 H 0.64008 0.14186 0.10649 0.0
H20 H 0.66634 0.98099 0.09547 0.0
H21 H 0.6058 0.97765 0.05377 0.0
H22 H 0.47218 0.14262 0.04214 0.0
H23 H 0.40394 0.14351 0.07774 0.0
H24 H 0.40858 0.98002 0.07905 0.0
H25 H 0.47769 0.97965 0.04396 0.0
O26 O 0.44877 0.10484 0.83191 0.0
O27 O 0.44679 0.02063 0.83207 0.0
O28 O 0.8409 0.09807 0.04345 0.0
O29 O 0.8444 0.01414 0.03814 0.0
C30 C 0.50191 0.0612 0.98743 0.0
C31 C 0.53791 0.06015 0.96496 0.0
C32 C 0.58999 0.05924 0.97226 0.0
C33 C 0.60632 0.05886 0.00202 0.0
C34 C 0.5704 0.05893 0.02464 0.0
C35 C 0.51801 0.0605 0.01735 0.0
C36 C 0.44749 0.06286 0.97865 0.0
C37 C 0.42592 0.10919 0.97072 0.0
C38 C 0.38187 0.10995 0.95294 0.0
C39 C 0.35866 0.06437 0.94306 0.0
C40 C 0.37793 0.01824 0.95325 0.0
C41 C 0.42205 0.01752 0.971 0.0
C42 C 0.52064 0.06005 0.93358 0.0
C43 C 0.51332 0.10588 0.91929 0.0
C44 C 0.49319 0.10598 0.89049 0.0
C45 C 0.48028 0.06017 0.8755 0.0
C46 C 0.4887 0.01423 0.88979 0.0
C47 C 0.50876 0.01422 0.9186 0.0
C48 C 0.62743 0.0594 0.94862 0.0
C49 C 0.64644 0.10537 0.93894 0.0
C50 C 0.68108 0.10564 0.91625 0.0
C51 C 0.69712 0.05988 0.90289 0.0
C52 C 0.67817 0.01384 0.91289 0.0
C53 C 0.64339 0.01365 0.93551 0.0
C54 C 0.66139 0.05908 0.0096 0.0
C55 C 0.68592 0.10455 0.01802 0.0
C56 C 0.73722 0.1045 0.02656 0.0
C57 C 0.76474 0.05886 0.02697 0.0
C58 C 0.73999 0.01345 0.01815 0.0
C59 C 0.68876 0.01362 0.00943 0.0
C60 C 0.58938 0.05784 0.05564 0.0
C61 C 0.59771 0.10359 0.07152 0.0
C62 C 0.63213 0.1056 0.09554 0.0
C63 C 0.65913 0.06199 0.10368 0.0
C64 C 0.64634 0.01528 0.08971 0.0
C65 C 0.61151 0.01322 0.06595 0.0
C66 C 0.47985 0.0611 0.04062 0.0
C67 C 0.45875 0.10709 0.0504 0.0
C68 C 0.41948 0.10747 0.07045 0.0
C69 C 0.40034 0.06175 0.08082 0.0
C70 C 0.42258 0.0158 0.07148 0.0
C71 C 0.46196 0.01549 0.05149 0.0
C72 C 0.45768 0.06047 0.84519 0.0
C73 C 0.81894 0.05843 0.03668 0.0
H74 H 0.01603 0.44513 0.30808 0.0
H75 H 0.10359 0.87775 0.542 0.0
H76 H 0.98162 0.44687 0.46851 0.0
H77 H 0.97873 0.36992 0.43744 0.0
H78 H 0.13948 0.34884 0.45332 0.0
H79 H 0.14228 0.42734 0.48358 0.0
H80 H 0.98804 0.5356 0.4257 0.0
H81 H 0.98524 0.50262 0.3747 0.0
H82 H 0.14259 0.45831 0.38379 0.0
H83 H 0.145 0.49214 0.43458 0.0
H84 H 0.98831 0.64619 0.45728 0.0
H85 H 0.98702 0.71135 0.41995 0.0
H86 H 0.14109 0.67369 0.39842 0.0
H87 H 0.14234 0.60868 0.43607 0.0
H88 H 0.9855 0.65513 0.52236 0.0
H89 H 0.98308 0.74498 0.5371 0.0
H90 H 0.14105 0.75948 0.51582 0.0
H91 H 0.14281 0.66956 0.50096 0.0
H92 H 0.98904 0.56932 0.5633 0.0
H93 H 0.9841 0.62711 0.60625 0.0
H94 H 0.14189 0.66611 0.59737 0.0
H95 H 0.14725 0.60582 0.55583 0.0
H96 H 0.98516 0.47696 0.54592 0.0
H97 H 0.98348 0.40936 0.5817 0.0
H98 H 0.14555 0.39134 0.57501 0.0
H99 H 0.14707 0.46062 0.54021 0.0
O100 O 0.01825 0.45889 0.32808 0.0
O101 O 0.09892 0.43605 0.3341 0.0
O102 O 0.0224 0.83254 0.54697 0.0
O103 O 0.10329 0.84234 0.53583 0.0
C104 C 0.06628 0.49669 0.48757 0.0
C105 C 0.06722 0.53303 0.46529 0.0
C106 C 0.06668 0.58508 0.47292 0.0
C107 C 0.06608 0.60092 0.50282 0.0
C108 C 0.06701 0.56466 0.52525 0.0
C109 C 0.06669 0.51235 0.51761 0.0
C110 C 0.06207 0.44247 0.47842 0.0
C111 C 0.01575 0.4244 0.46637 0.0
C112 C 0.01422 0.38041 0.44856 0.0
C113 C 0.05894 0.35333 0.4429 0.0
C114 C 0.10452 0.36915 0.45718 0.0
C115 C 0.10607 0.41347 0.47484 0.0
C116 C 0.06668 0.51616 0.43377 0.0
C117 C 0.02198 0.51927 0.41649 0.0
C118 C 0.02045 0.50018 0.38743 0.0
C119 C 0.06364 0.47762 0.37521 0.0
C120 C 0.10862 0.47534 0.39253 0.0
C121 C 0.11014 0.49465 0.42152 0.0
C122 C 0.06556 0.62314 0.44953 0.0
C123 C 0.02182 0.65213 0.44457 0.0
C124 C 0.02116 0.68925 0.42334 0.0
C125 C 0.06418 0.69777 0.40663 0.0
C126 C 0.10751 0.66775 0.41106 0.0
C127 C 0.10828 0.63082 0.43249 0.0
C128 C 0.06439 0.6559 0.51077 0.0
C129 C 0.01951 0.67783 0.52089 0.0
C130 C 0.01827 0.7291 0.52934 0.0
C131 C 0.06201 0.75933 0.52789 0.0
C132 C 0.10675 0.73727 0.51733 0.0
C133 C 0.10787 0.68599 0.50876 0.0
C134 C 0.06852 0.5833 0.55642 0.0
C135 C 0.02321 0.58815 0.57166 0.0
C136 C 0.02018 0.62218 0.59576 0.0
C137 C 0.0621 0.65266 0.60449 0.0
C138 C 0.10881 0.64348 0.59117 0.0
C139 C 0.11205 0.60876 0.56748 0.0
C140 C 0.06627 0.47384 0.54067 0.0
C141 C 0.02036 0.45889 0.55255 0.0
C142 C 0.01941 0.4198 0.57264 0.0
C143 C 0.06429 0.39434 0.58078 0.0
C144 C 0.11039 0.41023 0.56922 0.0
C145 C 0.11133 0.44966 0.54933 0.0
C146 C 0.06156 0.45626 0.34458 0.0
C147 C 0.06115 0.81357 0.53747 0.0
Li148 Li 0.05361 0.08672 0.2664 0.0
Li149 Li 0.05044 0.99491 0.25937 0.0
Li150 Li 0.09466 0.04783 0.22471 0.0
Li151 Li 0.00203 0.0467 0.2262 0.0
C152 C 0.13914 0.05512 0.29059 0.0
N153 N 0.19214 0.09231 0.34 0.0
C154 C 0.13884 0.02874 0.31682 0.0
C155 C 0.16661 0.1003 0.28946 0.0
C156 C 0.16587 0.04817 0.34156 0.0
C157 C 0.19306 0.11853 0.31469 0.0
C158 C 0.94433 0.04991 0.27189 0.0
C159 C 0.85731 0.02223 0.26626 0.0
N160 N 0.84162 0.06954 0.2744 0.0
C161 C 0.92733 0.09826 0.2802 0.0
C162 C 0.90905 0.01152 0.26491 0.0
C163 C 0.87525 0.1074 0.28137 0.0
C164 C 0.06206 0.18735 0.29247 0.0
N165 N 0.05523 0.13725 0.29718 0.0
C166 C 0.0496 0.15334 0.34903 0.0
C167 C 0.0486 0.11992 0.32468 0.0
C168 C 0.05605 0.20542 0.34498 0.0
C169 C 0.06257 0.22235 0.31624 0.0
H170 H 0.06681 0.20011 0.27031 0.0
H171 H 0.04289 0.07985 0.32768 0.0
C172 C 0.09412 0.9048 0.28219 0.0
N173 N 0.05208 0.93461 0.28129 0.0
C174 C 0.09706 0.86442 0.3014 0.0
C175 C 0.01303 0.88558 0.3177 0.0
C176 C 0.01177 0.92546 0.29831 0.0
C177 C 0.05657 0.85532 0.31995 0.0
H178 H 0.12604 0.91358 0.2688 0.0
H179 H 0.97925 0.95017 0.29759 0.0
C180 C 0.0659 0.13403 0.20279 0.0
N181 N 0.10691 0.18485 0.15679 0.0
C182 C 0.04425 0.12877 0.1744 0.0
C183 C 0.10814 0.16539 0.20784 0.0
C184 C 0.06558 0.15478 0.15143 0.0
C185 C 0.12842 0.19065 0.18427 0.0
C186 C 0.0552 0.93936 0.21173 0.0
C187 C 0.10278 0.92105 0.20385 0.0
C188 C 0.01619 0.90522 0.21701 0.0
C189 C 0.11055 0.86877 0.20138 0.0
C190 C 0.02551 0.85322 0.21437 0.0
N191 N 0.07209 0.83622 0.20667 0.0
C192 C 0.19838 0.06059 0.20994 0.0
C193 C 0.14159 0.04379 0.16945 0.0
C194 C 0.23914 0.06346 0.19105 0.0
N195 N 0.15072 0.05135 0.19888 0.0
C196 C 0.18121 0.04634 0.14977 0.0
C197 C 0.23074 0.05667 0.1605 0.0
H198 H 0.20488 0.06558 0.23342 0.0
H199 H 0.10346 0.03557 0.16129 0.0
C200 C 0.91536 0.0974 0.20393 0.0
N201 N 0.93983 0.05207 0.2039 0.0
C202 C 0.86847 0.10209 0.18917 0.0
C203 C 0.87298 0.01346 0.17451 0.0
C204 C 0.91985 0.01053 0.18945 0.0
C205 C 0.84678 0.05971 0.17421 0.0
H206 H 0.93207 0.12975 0.21575 0.0
H207 H 0.94015 0.97504 0.18967 0.0
O208 O 0.11203 0.03728 0.26629 0.0
O209 O 0.99514 0.0405 0.26986 0.0
O210 O 0.04642 0.10784 0.2254 0.0
O211 O 0.04706 0.9904 0.21472 0.0
H212 H 0.1175 0.99397 0.31823 0.0
H213 H 0.16675 0.12156 0.26948 0.0
H214 H 0.16576 0.02827 0.36203 0.0
H215 H 0.21413 0.15364 0.31419 0.0
H216 H 0.82962 0.993 0.26068 0.0
H217 H 0.95393 0.12861 0.28537 0.0
H218 H 0.92148 0.97409 0.25796 0.0
H219 H 0.86158 0.14468 0.28767 0.0
H220 H 0.04584 0.1384 0.3708 0.0
H221 H 0.06746 0.26224 0.31216 0.0
H222 H 0.13131 0.84189 0.3026 0.0
H223 H 0.98069 0.87916 0.33128 0.0
H224 H 0.01176 0.10438 0.17007 0.0
H225 H 0.12544 0.16971 0.22966 0.0
H226 H 0.04941 0.15086 0.12932 0.0
H227 H 0.16134 0.21475 0.18781 0.0
H228 H 0.13353 0.94685 0.19992 0.0
H229 H 0.97939 0.91869 0.22362 0.0
H230 H 0.14721 0.85406 0.19537 0.0
H231 H 0.99578 0.82638 0.21859 0.0
H232 H 0.27679 0.07129 0.20021 0.0
H233 H 0.17327 0.03955 0.12646 0.0
H234 H 0.84913 0.13826 0.18971 0.0
H235 H 0.85762 0.98008 0.163 0.0
Li236 Li 0.9995 0.05023 0.76015 0.0
Li237 Li 0.08863 0.04615 0.76803 0.0
Li238 Li 0.05498 0.09126 0.72595 0.0
Li239 Li 0.05018 0.99407 0.72835 0.0
C240 C 0.03859 0.12831 0.79589 0.0
N241 N 0.02229 0.16769 0.85192 0.0
C242 C 0.03675 0.09627 0.81977 0.0
C243 C 0.03201 0.18045 0.80052 0.0
C244 C 0.02855 0.11685 0.84791 0.0
C245 C 0.02383 0.19962 0.82901 0.0
C246 C 0.04839 0.94974 0.78779 0.0
C247 C 0.08729 0.86829 0.79552 0.0
N248 N 0.06603 0.8668 0.82241 0.0
C249 C 0.02657 0.94712 0.81542 0.0
C250 C 0.0787 0.90976 0.77766 0.0
C251 C 0.03612 0.905 0.83262 0.0
C252 C 0.91449 0.01017 0.78715 0.0
N253 N 0.93626 0.05423 0.77928 0.0
C254 C 0.87349 0.10261 0.80446 0.0
C255 C 0.91593 0.09996 0.78682 0.0
C256 C 0.85153 0.05774 0.81399 0.0
C257 C 0.87185 0.01103 0.80465 0.0
H258 H 0.93133 0.97436 0.78065 0.0
H259 H 0.93356 0.13441 0.77987 0.0
C260 C 0.15969 0.09539 0.80751 0.0
N261 N 0.14233 0.04898 0.798 0.0
C262 C 0.19481 0.09986 0.83108 0.0
C263 C 0.19586 0.00865 0.83363 0.0
C264 C 0.16089 0.00597 0.81002 0.0
C265 C 0.21229 0.05608 0.84488 0.0
H266 H 0.14552 0.1291 0.79715 0.0
H267 H 0.14874 0.96947 0.80144 0.0
C268 C 0.94678 0.05541 0.71149 0.0
N269 N 0.84499 0.07818 0.70488 0.0
C270 C 0.91082 0.01651 0.70913 0.0
C271 C 0.93105 0.10588 0.71041 0.0
C272 C 0.85951 0.02881 0.70583 0.0
C273 C 0.87939 0.11661 0.70706 0.0
C274 C 0.16169 0.0428 0.73161 0.0
C275 C 0.18581 0.08998 0.73246 0.0
C276 C 0.18968 0.99912 0.73745 0.0
C277 C 0.23772 0.09271 0.73932 0.0
C278 C 0.24152 0.00346 0.74423 0.0
N279 N 0.26425 0.04977 0.74504 0.0
C280 C 0.06606 0.19424 0.71068 0.0
C281 C 0.05921 0.13535 0.67034 0.0
C282 C 0.06721 0.23469 0.69152 0.0
N283 N 0.06153 0.14585 0.69983 0.0
C284 C 0.06055 0.17459 0.65038 0.0
C285 C 0.06368 0.22517 0.66091 0.0
H286 H 0.06802 0.20145 0.73422 0.0
H287 H 0.05574 0.09644 0.66235 0.0
C288 C 0.01129 0.89913 0.70874 0.0
N289 N 0.05088 0.93162 0.70633 0.0
C290 C 0.01096 0.85235 0.69351 0.0
C291 C 0.09281 0.87274 0.67431 0.0
C292 C 0.09124 0.91946 0.68957 0.0
C293 C 0.05213 0.8388 0.67607 0.0
H294 H 0.98022 0.90942 0.72272 0.0
H295 H 0.12228 0.94597 0.68816 0.0
O296 O 0.04588 0.10891 0.768 0.0
O297 O 0.03853 0.99025 0.77035 0.0
O298 O 0.99701 0.04431 0.7158 0.0
O299 O 0.11065 0.03963 0.72588 0.0
H300 H 0.04188 0.05599 0.81664 0.0
H301 H 0.03283 0.20587 0.78231 0.0
H302 H 0.02716 0.0924 0.86657 0.0
H303 H 0.0186 0.23989 0.83289 0.0
H304 H 0.11101 0.83735 0.78804 0.0
H305 H 0.00231 0.97714 0.82352 0.0
H306 H 0.09639 0.91115 0.75656 0.0
H307 H 0.0196 0.90262 0.85407 0.0
H308 H 0.85859 0.1393 0.81109 0.0
H309 H 0.85631 0.97564 0.81183 0.0
H310 H 0.2072 0.13713 0.83889 0.0
H311 H 0.2099 0.97394 0.84302 0.0
H312 H 0.92234 0.97729 0.7101 0.0
H313 H 0.95835 0.13646 0.71254 0.0
H314 H 0.83122 0.99911 0.70411 0.0
H315 H 0.86663 0.1555 0.70634 0.0
H316 H 0.16452 0.12415 0.72818 0.0
H317 H 0.17143 0.96239 0.73715 0.0
H318 H 0.25688 0.12898 0.74021 0.0
H319 H 0.26363 0.97004 0.74899 0.0
H320 H 0.06971 0.27307 0.70056 0.0
H321 H 0.05913 0.16541 0.62697 0.0
H322 H 0.97917 0.82682 0.69553 0.0
H323 H 0.12505 0.86349 0.66092 0.0
C324 C 0.35931 0.03315 0.12668 0.0
C325 C 0.35688 0.06174 0.10101 0.0
C326 C 0.31861 0.03212 0.14589 0.0
C327 C 0.2737 0.05926 0.14006 0.0
H328 H 0.39309 0.01162 0.13206 0.0
H329 H 0.32208 0.00929 0.16527 0.0
S330 S 0.24804 0.13994 0.07581 0.0
N331 N 0.3056 0.11746 0.07063 0.0
N332 N 0.2296 0.11629 0.10701 0.0
C333 C 0.27082 0.08811 0.11452 0.0
C334 C 0.31228 0.08924 0.09498 0.0
C335 C 0.09856 0.3483 0.6247 0.0
C336 C 0.06318 0.35093 0.60099 0.0
C337 C 0.09837 0.3077 0.64396 0.0
C338 C 0.06301 0.26789 0.64018 0.0
H339 H 0.12639 0.37813 0.62857 0.0
H340 H 0.12652 0.30723 0.66179 0.0
S341 S 0.96241 0.25656 0.58148 0.0
N342 N 0.99234 0.30962 0.57452 0.0
N343 N 0.99101 0.23424 0.61118 0.0
C344 C 0.02736 0.27009 0.61658 0.0
C345 C 0.02762 0.31138 0.59694 0.0
C346 C 0.71307 0.02929 0.14548 0.0
C347 C 0.70462 0.06562 0.12381 0.0
C348 C 0.75867 0.02829 0.16214 0.0
C349 C 0.7975 0.06364 0.15782 0.0
H350 H 0.68453 0.00087 0.14924 0.0
H351 H 0.76383 0.9993 0.17834 0.0
S352 S 0.79528 0.16545 0.10332 0.0
N353 N 0.73966 0.13725 0.09864 0.0
N354 N 0.82492 0.13551 0.13015 0.0
C355 C 0.78929 0.10066 0.13663 0.0
C356 C 0.74299 0.10162 0.11959 0.0
C357 C 0.09393 0.7099 0.64632 0.0
C358 C 0.05624 0.69776 0.62463 0.0
C359 C 0.09207 0.75528 0.66318 0.0
C360 C 0.05222 0.78994 0.65916 0.0
H361 H 0.12553 0.68447 0.65 0.0
H362 H 0.12215 0.7635 0.67937 0.0
S363 S 0.9454 0.77785 0.60466 0.0
N364 N 0.97873 0.72558 0.59956 0.0
N365 N 0.97488 0.80999 0.6318 0.0
C366 C 0.01399 0.77815 0.63795 0.0
C367 C 0.01605 0.73228 0.62058 0.0
C368 C 0.32727 0.09101 0.89346 0.0
C369 C 0.31883 0.06455 0.91935 0.0
C370 C 0.29228 0.08875 0.86965 0.0
C371 C 0.24773 0.05972 0.87079 0.0
H372 H 0.36192 0.11246 0.89125 0.0
H373 H 0.30079 0.10879 0.84991 0.0
S374 S 0.20586 0.98698 0.9344 0.0
N375 N 0.26134 0.01093 0.94537 0.0
N376 N 0.1955 0.00657 0.90056 0.0
C377 C 0.23828 0.03405 0.89679 0.0
C378 C 0.27386 0.03645 0.92106 0.0
C379 C 0.09521 0.31467 0.3972 0.0
C380 C 0.05913 0.31295 0.4194 0.0
C381 C 0.09396 0.27979 0.37332 0.0
C382 C 0.05651 0.24183 0.37063 0.0
H383 H 0.12399 0.34402 0.39789 0.0
H384 H 0.12263 0.28256 0.35684 0.0
S385 S 0.95322 0.22108 0.42284 0.0
N386 N 0.98549 0.26962 0.43751 0.0
N387 N 0.9819 0.20515 0.39209 0.0
C388 C 0.02027 0.23958 0.39275 0.0
C389 C 0.0218 0.27491 0.41719 0.0
C390 C 0.77912 0.08957 0.88304 0.0
C391 C 0.73474 0.06025 0.87921 0.0
C392 C 0.81611 0.08934 0.86151 0.0
C393 C 0.81016 0.05968 0.83539 0.0
H394 H 0.78589 0.11202 0.90313 0.0
H395 H 0.85026 0.11154 0.8657 0.0
S396 S 0.69884 0.98002 0.8134 0.0
N397 N 0.68534 0.00354 0.84636 0.0
N398 N 0.75527 0.00275 0.80601 0.0
C399 C 0.76552 0.0311 0.83095 0.0
C400 C 0.72772 0.03147 0.85282 0.0
C401 C 0.07672 0.72812 0.35558 0.0
C402 C 0.06396 0.73861 0.38501 0.0
C403 C 0.07487 0.76616 0.33464 0.0
C404 C 0.06027 0.81589 0.34248 0.0
H405 H 0.08719 0.69003 0.3486 0.0
H406 H 0.08393 0.75639 0.31205 0.0
S407 S 0.02942 0.86394 0.41749 0.0
N408 N 0.04033 0.80291 0.42144 0.0
N409 N 0.03718 0.87446 0.38224 0.0
C410 C 0.0491 0.82712 0.37207 0.0
C411 C 0.05085 0.78846 0.39329 0.0
loop_
_geom_bond_atom_site_label_1
_geom_bond_atom_site_label_2
_geom_bond_distance
_geom_bond_site_symmetry_2
_ccdc_geom_bond_type
H0 O26 0.856 . S
H1 O29 0.854 . S
H2 C37 0.930 . S
H3 C38 0.930 . S
H4 C40 0.930 1_565 S
H5 C41 0.930 1_565 S
H6 C43 0.931 . S
H7 C44 0.930 . S
H8 C46 0.930 . S
H9 C47 0.929 . S
H10 C49 0.930 . S
H11 C50 0.931 . S
H12 C52 0.930 . S
H13 C53 0.929 . S
H14 C55 0.931 . S
H15 C56 0.930 . S
H16 C58 0.940 . S
H17 C59 0.932 1_565 S
H18 C61 0.930 . S
H19 C62 0.929 . S
H20 C64 0.931 . S
H21 C65 0.930 1_565 S
H22 C67 0.929 . S
H23 C68 0.931 . S
H24 C70 0.930 1_565 S
H25 C71 0.929 1_565 S
O26 H0 0.856 . S
O26 C72 1.300 . S
O27 C72 1.209 1_565 S
O28 C73 1.199 . S
O29 H1 0.854 . S
O29 C73 1.297 . S
C30 C31 1.404 . S
C30 C35 1.397 1_556 S
C30 C36 1.492 . S
C31 C30 1.404 . S
C31 C32 1.396 . S
C31 C42 1.492 . S
C32 C31 1.396 . S
C32 C33 1.397 . S
C32 C48 1.509 . S
C33 C32 1.397 . S
C33 C34 1.412 1_556 S
C33 C54 1.485 1_556 S
C34 C33 1.412 1_554 S
C34 C35 1.388 . S
C34 C60 1.490 . S
C35 C30 1.397 1_554 S
C35 C34 1.388 . S
C35 C66 1.519 . S
C36 C30 1.492 . S
C36 C37 1.363 . S
C36 C41 1.390 . S
C37 H2 0.930 . S
C37 C36 1.363 . S
C37 C38 1.372 . S
C38 H3 0.930 . S
C38 C37 1.372 . S
C38 C39 1.383 . S
C39 C38 1.383 . S
C39 C40 1.395 . S
C40 H4 0.930 1_545 S
C40 C39 1.395 . S
C40 C41 1.362 . S
C41 H5 0.930 1_545 S
C41 C36 1.390 . S
C41 C40 1.362 . S
C42 C31 1.492 . S
C42 C43 1.377 . S
C42 C47 1.397 1_545 S
C43 H6 0.931 . S
C43 C42 1.377 . S
C43 C44 1.376 . S
C44 H7 0.930 . S
C44 C43 1.376 . S
C44 C45 1.376 . S
C45 C44 1.376 . S
C45 C46 1.378 1_545 S
C45 C72 1.486 . S
C46 H8 0.930 . S
C46 C45 1.378 1_565 S
C46 C47 1.376 . S
C47 H9 0.929 . S
C47 C42 1.397 1_565 S
C47 C46 1.376 . S
C48 C32 1.509 . S
C48 C49 1.391 . S
C48 C53 1.386 1_545 S
C49 H10 0.930 . S
C49 C48 1.391 . S
C49 C50 1.375 . S
C50 H11 0.931 . S
C50 C49 1.375 . S
C50 C51 1.375 . S
C51 C50 1.375 . S
C51 C52 1.361 1_545 S
C52 H12 0.930 . S
C52 C51 1.361 1_565 S
C52 C53 1.399 . S
C53 H13 0.929 . S
C53 C48 1.386 1_565 S
C53 C52 1.399 . S
C54 C33 1.485 1_554 S
C54 C55 1.394 . S
C54 C59 1.360 1_554 S
C55 H14 0.931 . S
C55 C54 1.394 . S
C55 C56 1.372 . S
C56 H15 0.930 . S
C56 C55 1.372 . S
C56 C57 1.397 . S
C57 C56 1.397 . S
C57 C58 1.381 1_545 S
C57 C73 1.476 . S
C58 H16 0.940 . S
C58 C57 1.381 1_565 S
C58 C59 1.365 1_564 S
C59 H17 0.932 1_545 S
C59 C54 1.360 1_556 S
C59 C58 1.365 1_546 S
C60 C34 1.490 . S
C60 C61 1.380 . S
C60 C65 1.386 . S
C61 H18 0.930 . S
C61 C60 1.380 . S
C61 C62 1.381 . S
C62 H19 0.929 . S
C62 C61 1.381 . S
C62 C63 1.371 . S
C63 C62 1.371 . S
C63 C64 1.380 . S
C64 H20 0.931 . S
C64 C63 1.380 . S
C64 C65 1.387 . S
C65 H21 0.930 1_545 S
C65 C60 1.386 . S
C65 C64 1.387 . S
C66 C35 1.519 . S
C66 C67 1.377 . S
C66 C71 1.361 . S
C67 H22 0.929 . S
C67 C66 1.377 . S
C67 C68 1.386 . S
C68 H23 0.931 . S
C68 C67 1.386 . S
C68 C69 1.363 . S
C69 C68 1.363 . S
C69 C70 1.385 . S
C70 H24 0.930 1_545 S
C70 C69 1.385 . S
C70 C71 1.396 . S
C71 H25 0.929 1_545 S
C71 C66 1.361 . S
C71 C70 1.396 . S
C72 O26 1.300 . S
C72 O27 1.209 1_545 S
C72 C45 1.486 . S
C73 O28 1.199 . S
C73 O29 1.297 . S
C73 C57 1.476 . S
H74 O100 0.856 . S
H75 O103 0.854 . S
H76 C111 0.930 1_655 S
H77 C112 0.930 . S
H78 C114 0.930 . S
H79 C115 0.930 . S
H80 C117 0.931 1_655 S
H81 C118 0.930 1_655 S
H82 C120 0.930 . S
H83 C121 0.929 . S
H84 C123 0.930 1_655 S
H85 C124 0.940 . S
H86 C126 0.930 . S
H87 C127 0.929 . S
H88 C129 0.931 1_655 S
H89 C130 0.930 1_655 S
H90 C132 0.930 . S
H91 C133 0.932 . S
H92 C135 0.930 1_655 S
H93 C136 0.929 1_655 S
H94 C138 0.931 . S
H95 C139 0.930 . S
H96 C141 0.929 1_655 S
H97 C142 0.931 1_655 S
H98 C144 0.930 . S
H99 C145 0.929 . S
O100 H74 0.856 . S
O100 C146 1.300 . S
O101 C146 1.209 . S
O102 C147 1.199 . S
O103 H75 0.854 . S
O103 C147 1.297 . S
C104 C105 1.404 . S
C104 C109 1.397 . S
C104 C110 1.492 . S
C105 C104 1.404 . S
C105 C106 1.396 . S
C105 C116 1.492 . S
C106 C105 1.396 . S
C106 C107 1.397 . S
C106 C122 1.509 . S
C107 C106 1.397 . S
C107 C108 1.412 . S
C107 C128 1.485 . S
C108 C107 1.412 . S
C108 C109 1.388 . S
C108 C134 1.490 . S
C109 C104 1.397 . S
C109 C108 1.388 . S
C109 C140 1.519 . S
C110 C104 1.492 . S
C110 C111 1.363 . S
C110 C115 1.390 . S
C111 H76 0.930 1_455 S
C111 C110 1.363 . S
C111 C112 1.372 1_455 S
C112 H77 0.930 . S
C112 C111 1.372 1_655 S
C112 C113 1.383 1_655 S
C113 C112 1.383 1_455 S
C113 C114 1.395 . S
C114 H78 0.930 . S
C114 C113 1.395 . S
C114 C115 1.362 . S
C115 H79 0.930 . S
C115 C110 1.390 . S
C115 C114 1.362 . S
C116 C105 1.492 . S
C116 C117 1.377 . S
C116 C121 1.397 . S
C117 H80 0.931 1_455 S
C117 C116 1.377 . S
C117 C118 1.376 . S
C118 H81 0.930 1_455 S
C118 C117 1.376 . S
C118 C119 1.376 . S
C119 C118 1.376 . S
C119 C120 1.378 . S
C119 C146 1.486 . S
C120 H82 0.930 . S
C120 C119 1.378 . S
C120 C121 1.376 . S
C121 H83 0.929 . S
C121 C116 1.397 . S
C121 C120 1.376 . S
C122 C106 1.509 . S
C122 C123 1.391 . S
C122 C127 1.386 . S
C123 H84 0.930 1_455 S
C123 C122 1.391 . S
C123 C124 1.375 . S
C124 H85 0.940 . S
C124 C123 1.375 . S
C124 C125 1.375 . S
C125 C124 1.375 . S
C125 C126 1.361 . S
C126 H86 0.930 . S
C126 C125 1.361 . S
C126 C127 1.399 . S
C127 H87 0.929 . S
C127 C122 1.386 . S
C127 C126 1.399 . S
C128 C107 1.485 . S
C128 C129 1.394 . S
C128 C133 1.360 . S
C129 H88 0.931 1_455 S
C129 C128 1.394 . S
C129 C130 1.372 . S
C130 H89 0.930 1_455 S
C130 C129 1.372 . S
C130 C131 1.397 . S
C131 C130 1.397 . S
C131 C132 1.390 . S
C131 C147 1.476 . S
C132 H90 0.930 . S
C132 C131 1.390 . S
C132 C133 1.366 . S
C133 H91 0.932 . S
C133 C128 1.360 . S
C133 C132 1.366 . S
C134 C108 1.490 . S
C134 C135 1.380 . S
C134 C139 1.386 . S
C135 H92 0.930 1_455 S
C135 C134 1.380 . S
C135 C136 1.381 . S
C136 H93 0.929 1_455 S
C136 C135 1.381 . S
C136 C137 1.371 . S
C137 C136 1.371 . S
C137 C138 1.380 . S
C138 H94 0.931 . S
C138 C137 1.380 . S
C138 C139 1.387 . S
C139 H95 0.930 . S
C139 C134 1.386 . S
C139 C138 1.387 . S
C140 C109 1.519 . S
C140 C141 1.377 . S
C140 C145 1.361 . S
C141 H96 0.929 1_455 S
C141 C140 1.377 . S
C141 C142 1.386 . S
C142 H97 0.931 1_455 S
C142 C141 1.386 . S
C142 C143 1.363 . S
C143 C142 1.363 . S
C143 C144 1.385 . S
C144 H98 0.930 . S
C144 C143 1.385 . S
C144 C145 1.396 . S
C145 H99 0.929 . S
C145 C140 1.361 . S
C145 C144 1.396 . S
C146 O100 1.300 . S
C146 O101 1.209 . S
C146 C119 1.486 . S
C147 O102 1.199 . S
C147 O103 1.297 . S
C147 C131 1.476 . S
Li148 N165 1.990 . S
Li148 O208 1.956 . S
Li148 O209 1.970 1_455 S
Li148 O210 1.961 . S
Li149 N173 1.990 1_545 S
Li149 O208 1.970 . S
Li149 O209 1.956 1_455 S
Li149 O211 1.961 1_545 S
Li150 N195 1.990 . S
Li150 O208 1.961 . S
Li150 O210 1.956 . S
Li150 O211 1.970 1_545 S
Li151 N201 1.990 . S
Li151 O209 1.961 . S
Li151 O210 1.970 1_655 S
Li151 O211 1.956 1_645 S
C152 C154 1.348 . S
C152 C155 1.356 . S
C152 O208 1.325 . S
N153 C156 1.314 . S
N153 C157 1.279 . S
C154 C152 1.348 . S
C154 C156 1.353 . S
C154 H212 0.929 . S
C155 C152 1.356 . S
C155 C157 1.358 . S
C155 H213 0.930 . S
C156 N153 1.314 . S
C156 C154 1.353 . S
C156 H214 0.930 . S
C157 N153 1.279 . S
C157 C155 1.358 . S
C157 H215 0.930 . S
C158 C161 1.348 . S
C158 C162 1.356 . S
C158 O209 1.325 . S
C159 N160 1.279 . S
C159 C162 1.358 . S
C159 H216 0.930 1_545 S
N160 C159 1.279 . S
N160 C163 1.314 . S
C161 C158 1.348 . S
C161 C163 1.353 . S
C161 H217 0.929 . S
C162 C158 1.356 . S
C162 C159 1.358 . S
C162 H218 0.930 1_545 S
C163 N160 1.314 . S
C163 C161 1.353 . S
C163 H219 0.930 . S
C164 N165 1.314 . S
C164 C169 1.353 . S
C164 H170 0.930 1_455 S
N165 Li148 1.990 . S
N165 C164 1.314 . S
N165 C167 1.279 . S
C166 C167 1.358 . S
C166 C168 1.356 . S
C166 H220 0.930 . S
C167 N165 1.279 . S
C167 C166 1.358 . S
C167 H171 0.930 . S
C168 C166 1.356 . S
C168 C169 1.348 . S
C169 C164 1.353 . S
C169 C168 1.348 . S
C169 H221 0.929 1_455 S
H170 C164 0.930 1_655 S
H171 C167 0.930 . S
C172 N173 1.314 . S
C172 C174 1.353 . S
C172 H178 0.930 . S
N173 Li149 1.990 1_565 S
N173 C172 1.314 . S
N173 C176 1.274 1_455 S
C174 C172 1.353 . S
C174 C177 1.348 . S
C174 H222 0.929 . S
C175 C176 1.359 1_455 S
C175 C177 1.365 . S
C175 H223 0.921 1_455 S
C176 N173 1.274 1_655 S
C176 C175 1.359 1_655 S
C176 H179 0.937 . S
C177 C174 1.348 . S
C177 C175 1.365 . S
H178 C172 0.930 . S
H179 C176 0.937 . S
C180 C182 1.342 1_455 S
C180 C183 1.356 . S
C180 O210 1.325 . S
N181 C184 1.314 . S
N181 C185 1.279 . S
C182 C180 1.342 1_655 S
C182 C184 1.352 1_655 S
C182 H224 0.936 . S
C183 C180 1.356 . S
C183 C185 1.358 . S
C183 H225 0.930 . S
C184 N181 1.314 . S
C184 C182 1.352 1_455 S
C184 H226 0.930 1_455 S
C185 N181 1.279 . S
C185 C183 1.358 . S
C185 H227 0.930 . S
C186 C187 1.348 . S
C186 C188 1.356 1_455 S
C186 O211 1.325 . S
C187 C186 1.348 . S
C187 C189 1.353 . S
C187 H228 0.929 . S
C188 C186 1.356 1_655 S
C188 C190 1.358 . S
C188 H229 0.930 . S
C189 C187 1.353 . S
C189 N191 1.314 . S
C189 H230 0.930 . S
C190 C188 1.358 . S
C190 N191 1.279 1_655 S
C190 H231 0.930 . S
N191 C189 1.314 . S
N191 C190 1.279 1_455 S
C192 C194 1.353 . S
C192 N195 1.314 . S
C192 H198 0.930 . S
C193 N195 1.279 . S
C193 C196 1.358 . S
C193 H199 0.930 . S
C194 C192 1.353 . S
C194 C197 1.348 . S
C194 H232 0.929 . S
N195 Li150 1.990 . S
N195 C192 1.314 . S
N195 C193 1.279 . S
C196 C193 1.358 . S
C196 C197 1.356 . S
C196 H233 0.930 . S
C197 C194 1.348 . S
C197 C196 1.356 . S
H198 C192 0.930 . S
H199 C193 0.930 . S
C200 N201 1.314 . S
C200 C202 1.353 . S
C200 H206 0.930 . S
N201 Li151 1.990 . S
N201 C200 1.314 . S
N201 C204 1.279 . S
C202 C200 1.353 . S
C202 C205 1.348 . S
C202 H234 0.929 . S
C203 C204 1.358 . S
C203 C205 1.356 . S
C203 H235 0.930 1_545 S
C204 N201 1.279 . S
C204 C203 1.358 . S
C204 H207 0.930 1_545 S
C205 C202 1.348 . S
C205 C203 1.356 . S
H206 C200 0.930 . S
H207 C204 0.930 1_565 S
O208 Li148 1.956 . S
O208 Li149 1.970 . S
O208 Li150 1.961 . S
O208 C152 1.325 . S
O209 Li148 1.970 1_655 S
O209 Li149 1.956 1_655 S
O209 Li151 1.961 . S
O209 C158 1.325 . S
O210 Li148 1.961 . S
O210 Li150 1.956 . S
O210 Li151 1.970 1_455 S
O210 C180 1.325 . S
O211 Li149 1.961 1_565 S
O211 Li150 1.970 1_565 S
O211 Li151 1.956 1_465 S
O211 C186 1.325 . S
H212 C154 0.929 . S
H213 C155 0.930 . S
H214 C156 0.930 . S
H215 C157 0.930 . S
H216 C159 0.930 1_565 S
H217 C161 0.929 . S
H218 C162 0.930 1_565 S
H219 C163 0.930 . S
H220 C166 0.930 . S
H221 C169 0.929 1_655 S
H222 C174 0.929 . S
H223 C175 0.921 1_655 S
H224 C182 0.936 . S
H225 C183 0.930 . S
H226 C184 0.930 1_655 S
H227 C185 0.930 . S
H228 C187 0.929 . S
H229 C188 0.930 . S
H230 C189 0.930 . S
H231 C190 0.930 . S
H232 C194 0.929 . S
H233 C196 0.930 . S
H234 C202 0.929 . S
H235 C203 0.930 1_565 S
Li236 N253 1.990 1_455 S
Li236 O296 1.956 . S
Li236 O297 1.970 1_545 S
Li236 O298 1.961 1_455 S
Li237 N261 1.990 . S
Li237 O296 1.970 . S
Li237 O297 1.956 1_545 S
Li237 O299 1.961 . S
Li238 N283 1.990 . S
Li238 O296 1.961 . S
Li238 O298 1.956 1_455 S
Li238 O299 1.970 . S
Li239 N289 1.990 . S
Li239 O297 1.961 . S
Li239 O298 1.970 1_465 S
Li239 O299 1.956 1_565 S
C240 C242 1.348 . S
C240 C243 1.356 . S
C240 O296 1.325 . S
N241 C244 1.314 . S
N241 C245 1.279 . S
C242 C240 1.348 . S
C242 C244 1.353 . S
C242 H300 0.929 . S
C243 C240 1.356 . S
C243 C245 1.358 . S
C243 H301 0.930 1_455 S
C244 N241 1.314 . S
C244 C242 1.353 . S
C244 H302 0.930 . S
C245 N241 1.279 . S
C245 C243 1.358 . S
C245 H303 0.930 1_455 S
C246 C249 1.348 . S
C246 C250 1.356 . S
C246 O297 1.325 . S
C247 N248 1.279 . S
C247 C250 1.358 . S
C247 H304 0.930 . S
N248 C247 1.279 . S
N248 C251 1.314 . S
C249 C246 1.348 . S
C249 C251 1.353 . S
C249 H305 0.929 . S
C250 C246 1.356 . S
C250 C247 1.358 . S
C250 H306 0.930 . S
C251 N248 1.314 . S
C251 C249 1.353 . S
C251 H307 0.930 . S
C252 N253 1.314 . S
C252 C257 1.353 . S
C252 H258 0.930 1_545 S
N253 Li236 1.990 1_655 S
N253 C252 1.314 . S
N253 C255 1.279 . S
C254 C255 1.358 . S
C254 C256 1.356 . S
C254 H308 0.930 . S
C255 N253 1.279 . S
C255 C254 1.358 . S
C255 H259 0.930 . S
C256 C254 1.356 . S
C256 C257 1.348 . S
C257 C252 1.353 . S
C257 C256 1.348 . S
C257 H309 0.929 1_545 S
H258 C252 0.930 1_565 S
H259 C255 0.930 . S
C260 N261 1.314 . S
C260 C262 1.353 . S
C260 H266 0.930 . S
N261 Li237 1.990 . S
N261 C260 1.314 . S
N261 C264 1.272 1_545 S
C262 C260 1.353 . S
C262 C265 1.348 . S
C262 H310 0.929 . S
C263 C264 1.359 1_545 S
C263 C265 1.365 . S
C263 H311 0.921 1_545 S
C264 N261 1.272 1_565 S
C264 C263 1.359 1_565 S
C264 H267 0.938 . S
C265 C262 1.348 . S
C265 C263 1.365 . S
H266 C260 0.930 . S
H267 C264 0.938 . S
C268 C270 1.348 1_545 S
C268 C271 1.356 . S
C268 O298 1.325 . S
N269 C272 1.314 . S
N269 C273 1.279 . S
C270 C268 1.348 1_565 S
C270 C272 1.353 1_565 S
C270 H312 0.929 . S
C271 C268 1.356 . S
C271 C273 1.358 . S
C271 H313 0.930 . S
C272 N269 1.314 . S
C272 C270 1.353 1_545 S
C272 H314 0.930 1_545 S
C273 N269 1.279 . S
C273 C271 1.358 . S
C273 H315 0.930 . S
C274 C275 1.348 . S
C274 C276 1.356 1_545 S
C274 O299 1.325 . S
C275 C274 1.348 . S
C275 C277 1.353 . S
C275 H316 0.929 . S
C276 C274 1.356 1_565 S
C276 C278 1.358 . S
C276 H317 0.930 . S
C277 C275 1.353 . S
C277 N279 1.314 . S
C277 H318 0.930 . S
C278 C276 1.358 . S
C278 N279 1.279 1_565 S
C278 H319 0.930 . S
N279 C277 1.314 . S
N279 C278 1.279 1_545 S
C280 C282 1.353 . S
C280 N283 1.314 . S
C280 H286 0.930 . S
C281 N283 1.279 . S
C281 C284 1.358 . S
C281 H287 0.930 1_455 S
C282 C280 1.353 . S
C282 C285 1.348 . S
C282 H320 0.929 . S
N283 Li238 1.990 . S
N283 C280 1.314 . S
N283 C281 1.279 . S
C284 C281 1.358 . S
C284 C285 1.356 . S
C284 H321 0.930 1_455 S
C285 C282 1.348 . S
C285 C284 1.356 . S
H286 C280 0.930 . S
H287 C281 0.930 1_655 S
C288 N289 1.314 . S
C288 C290 1.353 . S
C288 H294 0.930 . S
N289 Li239 1.990 . S
N289 C288 1.314 . S
N289 C292 1.279 . S
C290 C288 1.353 . S
C290 C293 1.348 . S
C290 H322 0.929 . S
C291 C292 1.358 . S
C291 C293 1.356 . S
C291 H323 0.930 . S
C292 N289 1.279 . S
C292 C291 1.358 . S
C292 H295 0.930 . S
C293 C290 1.348 . S
C293 C291 1.356 . S
H294 C288 0.930 . S
H295 C292 0.930 . S
O296 Li236 1.956 . S
O296 Li237 1.970 . S
O296 Li238 1.961 . S
O296 C240 1.325 . S
O297 Li236 1.970 1_565 S
O297 Li237 1.956 1_565 S
O297 Li239 1.961 . S
O297 C246 1.325 . S
O298 Li236 1.961 1_655 S
O298 Li238 1.956 1_655 S
O298 Li239 1.970 1_645 S
O298 C268 1.325 . S
O299 Li237 1.961 . S
O299 Li238 1.970 . S
O299 Li239 1.956 1_545 S
O299 C274 1.325 . S
H300 C242 0.929 . S
H301 C243 0.930 1_655 S
H302 C244 0.930 . S
H303 C245 0.930 1_655 S
H304 C247 0.930 . S
H305 C249 0.929 . S
H306 C250 0.930 . S
H307 C251 0.930 . S
H308 C254 0.930 . S
H309 C257 0.929 1_565 S
H310 C262 0.929 . S
H311 C263 0.921 1_565 S
H312 C270 0.929 . S
H313 C271 0.930 . S
H314 C272 0.930 1_565 S
H315 C273 0.930 . S
H316 C275 0.929 . S
H317 C276 0.930 . S
H318 C277 0.930 . S
H319 C278 0.930 . S
H320 C282 0.929 . S
H321 C284 0.930 1_655 S
H322 C290 0.929 . S
H323 C291 0.930 . S
C324 C325 1.369 . S
C324 C326 1.419 . S
C324 H328 0.930 1_545 S
C325 C324 1.369 . S
C325 C334 1.429 . S
C326 C324 1.419 . S
C326 C327 1.363 . S
C326 H329 0.929 1_545 S
C327 C326 1.363 . S
C327 C333 1.428 . S
H328 C324 0.930 1_565 S
H329 C326 0.929 1_565 S
S330 N331 1.613 . S
S330 N332 1.610 . S
N331 S330 1.613 . S
N331 C334 1.350 . S
N332 S330 1.610 . S
N332 C333 1.351 . S
C333 C327 1.428 . S
C333 N332 1.351 . S
C333 C334 1.434 . S
C334 C325 1.429 . S
C334 N331 1.350 . S
C334 C333 1.434 . S
C335 C336 1.369 . S
C335 C337 1.419 . S
C335 H339 0.930 . S
C336 C335 1.369 . S
C336 C345 1.429 . S
C337 C335 1.419 . S
C337 C338 1.363 . S
C337 H340 0.929 . S
C338 C337 1.363 . S
C338 C344 1.428 . S
H339 C335 0.930 . S
H340 C337 0.929 . S
S341 N342 1.613 . S
S341 N343 1.610 . S
N342 S341 1.613 . S
N342 C345 1.350 1_655 S
N343 S341 1.610 . S
N343 C344 1.351 1_655 S
C344 C338 1.428 . S
C344 N343 1.351 1_455 S
C344 C345 1.434 . S
C345 C336 1.429 . S
C345 N342 1.350 1_455 S
C345 C344 1.434 . S
C346 C347 1.369 . S
C346 C348 1.419 . S
C346 H350 0.930 . S
C347 C346 1.369 . S
C347 C356 1.429 . S
C348 C346 1.419 . S
C348 C349 1.363 . S
C348 H351 0.929 1_545 S
C349 C348 1.363 . S
C349 C355 1.428 . S
H350 C346 0.930 . S
H351 C348 0.929 1_565 S
S352 N353 1.613 . S
S352 N354 1.610 . S
N353 S352 1.613 . S
N353 C356 1.350 . S
N354 S352 1.610 . S
N354 C355 1.351 . S
C355 C349 1.428 . S
C355 N354 1.351 . S
C355 C356 1.434 . S
C356 C347 1.429 . S
C356 N353 1.350 . S
C356 C355 1.434 . S
C357 C358 1.369 . S
C357 C359 1.419 . S
C357 H361 0.930 . S
C358 C357 1.369 . S
C358 C367 1.429 . S
C359 C357 1.419 . S
C359 C360 1.363 . S
C359 H362 0.929 . S
C360 C359 1.363 . S
C360 C366 1.428 . S
H361 C357 0.930 . S
H362 C359 0.929 . S
S363 N364 1.613 1_655 S
S363 N365 1.610 1_655 S
N364 S363 1.613 1_455 S
N364 C367 1.350 . S
N365 S363 1.610 1_455 S
N365 C366 1.351 . S
C366 C360 1.428 . S
C366 N365 1.351 . S
C366 C367 1.434 . S
C367 C358 1.429 . S
C367 N364 1.350 . S
C367 C366 1.434 . S
C368 C369 1.369 . S
C368 C370 1.419 . S
C368 H372 0.930 . S
C369 C368 1.369 . S
C369 C378 1.429 . S
C370 C368 1.419 . S
C370 C371 1.363 . S
C370 H373 0.929 . S
C371 C370 1.363 . S
C371 C377 1.428 . S
H372 C368 0.930 . S
H373 C370 0.929 . S
S374 N375 1.613 . S
S374 N376 1.610 . S
N375 S374 1.613 . S
N375 C378 1.350 1_565 S
N376 S374 1.610 . S
N376 C377 1.351 1_565 S
C377 C371 1.428 . S
C377 N376 1.351 1_545 S
C377 C378 1.434 . S
C378 C369 1.429 . S
C378 N375 1.350 1_545 S
C378 C377 1.434 . S
C379 C380 1.369 . S
C379 C381 1.419 . S
C379 H383 0.930 . S
C380 C379 1.369 . S
C380 C389 1.429 . S
C381 C379 1.419 . S
C381 C382 1.363 . S
C381 H384 0.929 . S
C382 C381 1.363 . S
C382 C388 1.428 . S
H383 C379 0.930 . S
H384 C381 0.929 . S
S385 N386 1.613 . S
S385 N387 1.610 . S
N386 S385 1.613 . S
N386 C389 1.350 1_655 S
N387 S385 1.610 . S
N387 C388 1.351 1_655 S
C388 C382 1.428 . S
C388 N387 1.351 1_455 S
C388 C389 1.434 . S
C389 C380 1.429 . S
C389 N386 1.350 1_455 S
C389 C388 1.434 . S
C390 C391 1.369 . S
C390 C392 1.419 . S
C390 H394 0.930 . S
C391 C390 1.369 . S
C391 C400 1.434 . S
C392 C390 1.419 . S
C392 C393 1.363 . S
C392 H395 0.929 . S
C393 C392 1.363 . S
C393 C399 1.428 . S
H394 C390 0.930 . S
H395 C392 0.929 . S
S396 N397 1.613 . S
S396 N398 1.610 . S
N397 S396 1.613 . S
N397 C400 1.342 1_565 S
N398 S396 1.610 . S
N398 C399 1.351 1_565 S
C399 C393 1.428 . S
C399 N398 1.351 1_545 S
C399 C400 1.436 . S
C400 C391 1.434 . S
C400 N397 1.342 1_545 S
C400 C399 1.436 . S
C401 C402 1.369 . S
C401 C403 1.419 . S
C401 H405 0.930 . S
C402 C401 1.369 . S
C402 C411 1.429 . S
C403 C401 1.419 . S
C403 C404 1.363 . S
C403 H406 0.929 . S
C404 C403 1.363 . S
C404 C410 1.428 . S
H405 C401 0.930 . S
H406 C403 0.929 . S
S407 N408 1.613 . S
S407 N409 1.610 . S
N408 S407 1.613 . S
N408 C411 1.350 . S
N409 S407 1.610 . S
N409 C410 1.351 . S
C410 C404 1.428 . S
C410 N409 1.351 . S
C410 C411 1.434 . S
C411 C402 1.429 . S
C411 N408 1.350 . S
C411 C410 1.434 . S
C327 C197 2.152 . S
C325 C69 2.148 . S
C338 C285 2.166 . S
C336 C143 2.156 . S
C349 C205 1.631 . S
C347 C63 1.468 . S
C360 C293 1.610 . S
C358 C137 1.451 . S
C371 C265 1.573 . S
C369 C39 1.449 . S
C382 C168 1.538 . S
C380 C113 1.437 . S
C393 C256 0.819 . S
C391 C51 0.821 . S
C402 C125 0.880 . S
C404 C177 0.885 . S
