# Generated by pormake.
# Topology tsx, (6,3)-cn, num edge types: 1
# Building blocks:
#     Node 0, Type 0, BuildingBlock: FUNLAD_clean_sbu_0, # of connection points: 6
#     Node 1, Type 0, BuildingBlock: FUNLAD_clean_sbu_0, # of connection points: 6
#     Node 2, Type 1, BuildingBlock: MIDCAF_clean_linker_0, # of connection points: 3
#     Node 3, Type 1, BuildingBlock: MIDCAF_clean_linker_0, # of connection points: 3
#     Node 4, Type 1, BuildingBlock: MIDCAF_clean_linker_0, # of connection points: 3
#     Node 5, Type 1, BuildingBlock: MIDCAF_clean_linker_0, # of connection points: 3
#     Edge 6, Type (0, 1), BuildingBlock: OJICUG_clean_linker_0, # of connection points: 2
#     Edge 7, Type (0, 1), BuildingBlock: OJICUG_clean_linker_0, # of connection points: 2
#     Edge 8, Type (0, 1), BuildingBlock: OJICUG_clean_linker_0, # of connection points: 2
#     Edge 9, Type (0, 1), BuildingBlock: OJICUG_clean_linker_0, # of connection points: 2
#     Edge 10, Type (0, 1), BuildingBlock: OJICUG_clean_linker_0, # of connection points: 2
#     Edge 11, Type (0, 1), BuildingBlock: OJICUG_clean_linker_0, # of connection points: 2
#     Edge 12, Type (0, 1), BuildingBlock: OJICUG_clean_linker_0, # of connection points: 2
#     Edge 13, Type (0, 1), BuildingBlock: OJICUG_clean_linker_0, # of connection points: 2
#     Edge 14, Type (0, 1), BuildingBlock: OJICUG_clean_linker_0, # of connection points: 2
#     Edge 15, Type (0, 1), BuildingBlock: OJICUG_clean_linker_0, # of connection points: 2
#     Edge 16, Type (0, 1), BuildingBlock: OJICUG_clean_linker_0, # of connection points: 2
#     Edge 17, Type (0, 1), BuildingBlock: OJICUG_clean_linker_0, # of connection points: 2
# Relax obj value: 0.165
# Max RMSD: 0.154
# Mean RMSD: 0.080
data_MOF--net-tsx--node1-FUNLAD_clean_sbu_0--node2-MIDCAF_clean_linker_0--edge1-OJICUG_clean_linker_0
_symmetry_space_group_name_H-M    P1
_symmetry_Int_Tables_number       1
_symmetry_cell_setting            triclinic
loop_
_symmetry_equiv_pos_as_xyz
'x, y, z'
_cell_length_a     17.940979
_cell_length_b     19.926821
_cell_length_c     40.433982
_cell_angle_alpha  91.078834
_cell_angle_beta   92.104289
_cell_angle_gamma 90.011002
loop_
_atom_site_label
_atom_site_type_symbol
_atom_site_fract_x
_atom_site_fract_y
_atom_site_fract_z
_atom_type_partial_charge
C0 C 0.94343 0.92912 0.00813 0.0
N1 N 0.06573 0.03365 0.08213 0.0
C2 C 0.00028 0.0348 0.09809 0.0
C3 C 0.00034 0.0356 0.13257 0.0
C4 C 0.06836 0.03621 0.1508 0.0
C5 C 0.13514 0.03732 0.13382 0.0
C6 C 0.13255 0.03547 0.09922 0.0
Zn7 Zn 0.0617 0.02495 0.03168 0.0
C8 C 0.15911 0.91678 0.00681 0.0
N9 N 0.05005 0.00495 0.92639 0.0
C10 C 0.98367 0.01102 0.90931 0.0
C11 C 0.1142 0.9917 0.91053 0.0
C12 C 0.113 0.98318 0.87619 0.0
C13 C 0.04542 0.98966 0.85803 0.0
C14 C 0.98021 0.00414 0.87487 0.0
Zn15 Zn 0.05406 0.01476 0.97676 0.0
O16 O 0.97444 0.95575 0.03384 0.0
C17 C 0.95463 0.1217 0.00036 0.0
O18 O 0.96578 0.94402 0.97973 0.0
H19 H 0.16649 0.98764 0.9245 0.0
H20 H 0.94779 0.03393 0.08408 0.0
H21 H 0.93326 0.02104 0.9224 0.0
O22 O 0.98146 0.10468 0.02854 0.0
O23 O 0.97729 0.09247 0.97447 0.0
H24 H 0.18391 0.03423 0.08604 0.0
O25 O 0.14353 0.08504 0.97434 0.0
O26 O 0.149 0.09327 0.02862 0.0
O27 O 0.12966 0.93701 0.97985 0.0
O28 O 0.14174 0.94484 0.03396 0.0
C29 C 0.17394 0.10921 0.00086 0.0
H30 H 0.94771 0.03547 0.14488 0.0
H31 H 0.18864 0.03746 0.14714 0.0
H32 H 0.16448 0.97265 0.86391 0.0
H33 H 0.92702 0.00907 0.86158 0.0
C34 C 0.34848 0.37482 0.49738 0.0
N35 N 0.44934 0.48396 0.57604 0.0
C36 C 0.38773 0.47171 0.59365 0.0
C37 C 0.39283 0.47075 0.62822 0.0
C38 C 0.46182 0.48318 0.64474 0.0
C39 C 0.52446 0.49519 0.62591 0.0
C40 C 0.51702 0.49507 0.59146 0.0
Zn41 Zn 0.44189 0.48667 0.52552 0.0
C42 C 0.5607 0.4057 0.49433 0.0
N43 N 0.42805 0.49113 0.41992 0.0
C44 C 0.36484 0.4759 0.40162 0.0
C45 C 0.49216 0.50826 0.40519 0.0
C46 C 0.49411 0.51204 0.37091 0.0
C47 C 0.43 0.49664 0.35146 0.0
C48 C 0.36482 0.47769 0.36701 0.0
Zn49 Zn 0.43196 0.48839 0.47048 0.0
O50 O 0.37465 0.40182 0.52401 0.0
C51 C 0.31302 0.56914 0.50067 0.0
O52 O 0.36233 0.40084 0.46976 0.0
H53 H 0.54227 0.51883 0.42001 0.0
H54 H 0.33445 0.46313 0.58089 0.0
H55 H 0.31454 0.46228 0.41383 0.0
O56 O 0.34617 0.55038 0.5273 0.0
O57 O 0.33718 0.54978 0.47291 0.0
H58 H 0.56541 0.50418 0.57702 0.0
O59 O 0.50258 0.57613 0.47249 0.0
O60 O 0.50896 0.57156 0.52663 0.0
O61 O 0.52622 0.42672 0.4686 0.0
O62 O 0.538 0.42302 0.52268 0.0
C63 C 0.5265 0.59999 0.50025 0.0
H64 H 0.3431 0.4618 0.64189 0.0
H65 H 0.57883 0.50418 0.63771 0.0
H66 H 0.54565 0.52589 0.35964 0.0
H67 H 0.31441 0.46539 0.3526 0.0
C68 C 0.85869 0.23327 0.45284 0.0
C69 C 0.80368 0.2193 0.47559 0.0
C70 C 0.80288 0.15571 0.49014 0.0
C71 C 0.8532 0.10589 0.48049 0.0
H72 H 0.94424 0.84032 0.45318 0.0
H73 H 0.00219 0.73798 0.47527 0.0
H74 H 0.20042 0.8513 0.50361 0.0
H75 H 0.14301 0.95226 0.48071 0.0
H76 H 0.06034 0.91734 0.35633 0.0
H77 H 0.08199 0.92134 0.29719 0.0
H78 H 0.03689 0.13409 0.29838 0.0
H79 H 0.01474 0.13047 0.35757 0.0
H80 H 0.94852 0.19559 0.42471 0.0
H81 H 0.86198 0.28224 0.4418 0.0
H82 H 0.76103 0.14337 0.50768 0.0
H83 H 0.84941 0.05645 0.49101 0.0
N84 N 0.97045 0.00993 0.46017 0.0
N85 N 0.03427 0.96568 0.41492 0.0
N86 N 0.97396 0.06932 0.41062 0.0
C87 C 0.0125 0.96069 0.44655 0.0
C88 C 0.01493 0.01983 0.39672 0.0
C89 C 0.95137 0.0648 0.4422 0.0
C90 C 0.03905 0.9038 0.46604 0.0
C91 C -0.00082 0.84329 0.46517 0.0
C92 C 0.03233 0.78503 0.47768 0.0
C93 C 0.10568 0.78683 0.49123 0.0
C94 C 0.14339 0.84862 0.4939 0.0
C95 C 0.11067 0.9064 0.48093 0.0
C96 C 0.03511 0.02349 0.36163 0.0
C97 C 0.05589 0.96519 0.34414 0.0
C98 C 0.068 0.96732 0.31026 0.0
C99 C 0.06068 0.02792 0.29328 0.0
C100 C 0.04324 0.0868 0.31097 0.0
C101 C 0.03008 0.08455 0.34479 0.0
C102 C 0.90479 0.11887 0.45605 0.0
C103 C 0.90835 0.1836 0.44307 0.0
C104 C 0.79798 0.77518 0.55519 0.0
C105 C 0.76238 0.78868 0.52458 0.0
C106 C 0.79119 0.83904 0.5048 0.0
C107 C 0.85247 0.87764 0.51645 0.0
H108 H 0.99276 0.09139 0.51841 0.0
H109 H 0.07053 0.17903 0.49522 0.0
H110 H 0.26807 0.07514 0.53093 0.0
H111 H 0.19017 0.98861 0.55406 0.0
H112 H 0.07783 0.04924 0.64761 0.0
H113 H 0.08744 0.05783 0.70792 0.0
H114 H 0.98709 0.86199 0.71469 0.0
H115 H 0.97625 0.85337 0.65425 0.0
H116 H 0.88382 0.80162 0.59069 0.0
H117 H 0.77808 0.73548 0.57057 0.0
H118 H 0.76484 0.85002 0.48098 0.0
H119 H 0.87215 0.91784 0.50136 0.0
N120 N 0.9857 0.95063 0.54316 0.0
N121 N 0.0549 0.98813 0.5905 0.0
N122 N 0.96088 0.90836 0.59548 0.0
C123 C 0.04092 0.98941 0.55733 0.0
C124 C 0.0147 0.94802 0.60979 0.0
C125 C 0.94605 0.90911 0.56227 0.0
C126 C 0.08594 0.03366 0.53761 0.0
C127 C 0.05282 0.08633 0.51993 0.0
C128 C 0.09726 0.13627 0.50679 0.0
C129 C 0.17521 0.13407 0.51164 0.0
C130 C 0.20807 0.07837 0.5272 0.0
C131 C 0.16375 0.02905 0.54045 0.0
C132 C 0.02605 0.95068 0.64617 0.0
C133 C 0.05844 0.00767 0.66189 0.0
C134 C 0.06357 0.01286 0.69637 0.0
C135 C 0.03769 0.9607 0.71577 0.0
C136 C 0.00762 0.90275 0.70017 0.0
C137 C 0.0012 0.89801 0.66565 0.0
C138 C 0.88582 0.86579 0.54787 0.0
C139 C 0.85877 0.81315 0.56669 0.0
C140 C 0.42904 0.7358 0.95702 0.0
C141 C 0.39546 0.72834 0.98754 0.0
C142 C 0.413 0.67229 0.00677 0.0
C143 C 0.45693 0.62077 0.99383 0.0
H144 H 0.67005 0.47266 0.99464 0.0
H145 H 0.75808 0.38744 0.01451 0.0
H146 H 0.64539 0.23866 0.95175 0.0
H147 H 0.55799 0.32381 0.93179 0.0
H148 H 0.53479 0.39239 0.85325 0.0
H149 H 0.51856 0.38655 0.793 0.0
H150 H 0.46268 0.59723 0.79196 0.0
H151 H 0.47901 0.60355 0.85193 0.0
H152 H 0.49293 0.68963 0.91942 0.0
H153 H 0.41713 0.77931 0.94204 0.0
H154 H 0.38784 0.66576 0.03045 0.0
H155 H 0.46552 0.57594 0.00804 0.0
N156 N 0.54455 0.51405 0.96078 0.0
N157 N 0.55331 0.45241 0.9109 0.0
N158 N 0.49966 0.55922 0.91073 0.0
C159 C 0.56593 0.45774 0.94421 0.0
C160 C 0.5203 0.50315 0.89395 0.0
C161 C 0.51116 0.56498 0.94404 0.0
C162 C 0.60811 0.40473 0.96139 0.0
C163 C 0.66271 0.42126 0.98599 0.0
C164 C 0.71305 0.37255 -0.00265 0.0
C165 C 0.70931 0.30692 0.98413 0.0
C166 C 0.65034 0.28931 0.96181 0.0
C167 C 0.60046 0.3379 0.95037 0.0
C168 C 0.5085 0.49849 0.8575 0.0
C169 C 0.51892 0.43747 0.84021 0.0
C170 C 0.50921 0.43396 0.80573 0.0
C171 C 0.48966 0.4915 0.78782 0.0
C172 C 0.4786 0.55225 0.80509 0.0
C173 C 0.48759 0.55568 0.83951 0.0
C174 C 0.48281 0.62479 0.96151 0.0
C175 C 0.47206 0.68437 0.94405 0.0
C176 C 0.39695 0.36329 -0.00211 0.0
C177 C 0.4176 0.297 0.00514 0.0
C178 C 0.48538 0.28535 0.02265 0.0
C179 C 0.5264 0.33901 0.03645 0.0
H180 H 0.62148 0.59691 0.00242 0.0
H181 H 0.69608 0.69159 0.98531 0.0
H182 H 0.76307 0.73158 0.08762 0.0
H183 H 0.68585 0.64002 0.1046 0.0
H184 H 0.60772 0.56743 0.16163 0.0
H185 H 0.57491 0.56611 0.21928 0.0
H186 H 0.38674 0.43728 0.19361 0.0
H187 H 0.4218 0.43631 0.13592 0.0
H188 H 0.41737 0.46744 0.00845 0.0
H189 H 0.34482 0.37376 0.98462 0.0
H190 H 0.50313 0.23467 0.02813 0.0
H191 H 0.57489 0.3289 0.05235 0.0
N192 N 0.57245 0.50827 0.04409 0.0
N193 N 0.58135 0.55326 0.09817 0.0
N194 N 0.51214 0.45545 0.08724 0.0
C195 C 0.59897 0.5562 0.06584 0.0
C196 C 0.53764 0.50337 0.10903 0.0
C197 C 0.52959 0.45762 0.05491 0.0
C198 C 0.64664 0.61144 0.05487 0.0
C199 C 0.65164 0.62632 0.02118 0.0
C200 C 0.69485 0.68037 0.01138 0.0
C201 C 0.73486 0.71995 0.0351 0.0
C202 C 0.73123 0.7037 0.0687 0.0
C203 C 0.68727 0.6506 0.07846 0.0
C204 C 0.51741 0.50199 0.14416 0.0
C205 C 0.55931 0.53882 0.16824 0.0
C206 C 0.54002 0.53847 0.20135 0.0
C207 C 0.47758 0.50214 0.2112 0.0
C208 C 0.43564 0.46521 0.18705 0.0
C209 C 0.45561 0.46483 0.15393 0.0
C210 C 0.501 0.40483 0.03228 0.0
C211 C 0.43837 0.41701 0.01155 0.0
C212 C 0.28672 0.15986 0.02839 0.0
C213 C 0.23962 0.15345 5e-05 0.0
H214 H 0.38023 0.20932 0.05183 0.0
C215 C 0.25558 0.19011 0.97179 0.0
H216 H 0.27637 0.13169 0.05043 0.0
C217 C 0.31571 0.23512 0.9726 0.0
C218 C 0.36144 0.24274 0.00142 0.0
H219 H 0.22022 0.18575 0.94956 0.0
H220 H 0.32551 0.26495 0.95106 0.0
C221 C 0.34703 0.20367 0.02902 0.0
C222 C 0.27058 0.85428 0.03024 0.0
C223 C 0.21484 0.86273 0.00527 0.0
H224 H 0.37328 0.80432 0.04417 0.0
C225 C 0.21608 0.82255 0.97642 0.0
H226 H 0.27067 0.88469 0.05273 0.0
C227 C 0.27393 0.77783 0.97159 0.0
C228 C 0.33212 0.77206 0.99543 0.0
H229 H 0.17326 0.82698 0.95698 0.0
H230 H 0.27405 0.74857 0.94871 0.0
C231 C 0.32913 0.80881 0.02534 0.0
C232 C 0.87435 0.82494 0.99001 0.0
C233 C 0.88347 0.87995 0.01196 0.0
H234 H 0.82133 0.72989 0.98051 0.0
C235 C 0.83844 0.88525 0.03949 0.0
H236 H 0.90873 0.81985 0.96863 0.0
C237 C 0.78739 0.83497 0.04588 0.0
C238 C 0.78156 0.77733 0.02534 0.0
H239 H 0.84364 0.92784 0.05649 0.0
H240 H 0.75373 0.84064 0.06744 0.0
C241 C 0.82415 0.77365 -0.00321 0.0
C242 C 0.86238 0.18423 0.96556 0.0
C243 C 0.89407 0.17161 -0.00289 0.0
H244 H 0.77974 0.23657 0.93701 0.0
C245 C 0.86487 0.20451 0.02488 0.0
H246 H 0.88345 0.16003 0.94358 0.0
C247 C 0.80454 0.24878 0.021 0.0
C248 C 0.77219 0.25988 0.98938 0.0
H249 H 0.8881 0.19566 0.04951 0.0
H250 H 0.78254 0.2735 0.04264 0.0
C251 C 0.80226 0.22764 0.96177 0.0
C252 C 0.58172 0.69606 0.53215 0.0
C253 C 0.5778 0.65772 0.50269 0.0
H254 H 0.64226 0.7691 0.56156 0.0
C255 C 0.62891 0.67019 0.47798 0.0
H256 H 0.5423 0.68825 0.55139 0.0
C257 C 0.68706 0.71644 0.484 0.0
C258 C 0.69411 0.75063 0.51468 0.0
H259 H 0.62691 0.64118 0.45504 0.0
H260 H 0.72893 0.72225 0.46563 0.0
C261 C 0.63897 0.74224 0.538 0.0
C262 C 0.65805 0.32681 0.51782 0.0
C263 C 0.6252 0.36022 0.49063 0.0
H264 H 0.74074 0.25583 0.5345 0.0
C265 C 0.65281 0.34807 0.45901 0.0
H266 H 0.63787 0.33504 0.54248 0.0
C267 C 0.71107 0.3031 0.4545 0.0
C268 C 0.74359 0.26895 0.48146 0.0
H269 H 0.62886 0.37278 0.43748 0.0
H270 H 0.72948 0.29392 0.4296 0.0
C271 C 0.71657 0.28125 0.51324 0.0
C272 C 0.31029 0.2758 0.52873 0.0
C273 C 0.30497 0.31232 0.49939 0.0
H274 H 0.27365 0.19148 0.5553 0.0
C275 C 0.25775 0.28884 0.47314 0.0
H276 H 0.3463 0.29229 0.5494 0.0
C277 C 0.21538 0.23033 0.47665 0.0
C278 C 0.22117 0.19414 0.50615 0.0
H279 H 0.25255 0.31622 0.45028 0.0
H280 H 0.17834 0.21335 0.45643 0.0
C281 C 0.26916 0.2175 0.53202 0.0
C282 C 0.24518 0.66386 0.52786 0.0
C283 C 0.25073 0.61746 0.50145 0.0
H284 H 0.19415 0.75464 0.54536 0.0
C285 C 0.20095 0.62222 0.47398 0.0
H286 H 0.28299 0.66139 0.54931 0.0
C287 C 0.14955 0.67465 0.47201 0.0
C288 C 0.14772 0.724 0.49722 0.0
H289 H 0.20373 0.58689 0.45336 0.0
H290 H 0.11472 0.67903 0.44969 0.0
C291 C 0.19456 0.71718 0.5256 0.0
C292 C 0.11141 0.07903 0.20705 0.0
C293 C 0.0691 0.03321 0.18732 0.0
H294 H 0.14145 0.11362 0.25636 0.0
C295 C 0.02623 0.98462 0.20265 0.0
H296 H 0.14474 0.11705 0.19574 0.0
C297 C 0.02507 0.98214 0.23707 0.0
C298 C 0.06599 0.02877 0.25686 0.0
H299 H 0.99362 0.94841 0.18796 0.0
H300 H 0.9907 0.94468 0.24823 0.0
C301 C 0.10928 0.07725 0.24159 0.0
C302 C 0.07445 0.925 0.80648 0.0
C303 C 0.04315 0.98187 0.82162 0.0
H304 H 0.09636 0.87337 0.76082 0.0
C305 C 0.0101 0.03156 0.8018 0.0
H306 H 0.09992 0.88592 0.82134 0.0
C307 C 0.00906 0.02487 0.76736 0.0
C308 C 0.03986 0.96781 0.75221 0.0
H309 H 0.98599 0.07598 0.81296 0.0
H310 H 0.9834 0.06391 0.75253 0.0
C311 C 0.07214 0.9177 0.77202 0.0
C312 C 0.50861 0.53681 0.69798 0.0
C313 C 0.46848 0.48495 0.6814 0.0
H314 H 0.54678 0.57932 0.74456 0.0
C315 C 0.43523 0.43502 0.70006 0.0
H316 H 0.53428 0.57627 0.68426 0.0
C317 C 0.4425 0.43671 0.73463 0.0
C318 C 0.48234 0.48883 0.75117 0.0
H319 H 0.4044 0.39423 0.68789 0.0
H320 H 0.41622 0.39773 0.74845 0.0
C321 C 0.51521 0.53887 0.73249 0.0
C322 C 0.45706 0.55893 0.30048 0.0
C323 C 0.43279 0.49995 0.3151 0.0
H324 H 0.4873 0.60675 0.25613 0.0
C325 C 0.41775 0.44288 0.29514 0.0
H326 H 0.46834 0.60371 0.31545 0.0
C327 C 0.4305 0.44385 0.26121 0.0
C328 C 0.45756 0.50227 0.24663 0.0
H329 H 0.39955 0.39669 0.30603 0.0
H330 H 0.42199 0.39803 0.24676 0.0
C331 C 0.46859 0.56032 0.26658 0.0
loop_
_geom_bond_atom_site_label_1
_geom_bond_atom_site_label_2
_geom_bond_distance
_geom_bond_site_symmetry_2
_ccdc_geom_bond_type
C0 O16 1.251 . S
C0 O18 1.254 1_554 S
N1 C2 1.333 1_445 S
N1 C6 1.307 . S
N1 Zn7 2.020 . S
C2 N1 1.333 1_665 S
C2 C3 1.379 . S
C2 H20 0.952 . S
C3 C2 1.379 . S
C3 C4 1.390 1_665 S
C3 H30 0.949 . S
C4 C3 1.390 1_445 S
C4 C5 1.357 . S
C5 C4 1.357 . S
C5 C6 1.370 . S
C5 H31 0.950 . S
C6 N1 1.307 . S
C6 C5 1.370 . S
C6 H24 0.948 . S
Zn7 N1 2.020 . S
Zn7 O16 2.039 1_445 S
Zn7 O22 2.034 1_455 S
Zn7 O26 2.025 . S
Zn7 O28 2.024 1_545 S
C8 O27 1.246 1_554 S
C8 O28 1.249 . S
N9 C10 1.307 1_445 S
N9 C11 1.333 . S
N9 Zn15 2.020 . S
C10 N9 1.307 1_665 S
C10 C14 1.370 . S
C10 H21 0.948 . S
C11 N9 1.333 . S
C11 C12 1.379 . S
C11 H19 0.952 . S
C12 C11 1.379 . S
C12 C13 1.390 . S
C12 H32 0.949 . S
C13 C12 1.390 . S
C13 C14 1.357 1_445 S
C14 C10 1.370 . S
C14 C13 1.357 1_665 S
C14 H33 0.950 . S
Zn15 N9 2.020 . S
Zn15 O18 2.025 1_445 S
Zn15 O23 2.024 1_455 S
Zn15 O25 2.039 . S
Zn15 O27 2.034 1_545 S
O16 C0 1.251 . S
O16 Zn7 2.039 1_665 S
C17 O22 1.246 . S
C17 O23 1.249 1_554 S
O18 C0 1.254 1_556 S
O18 Zn15 2.025 1_665 S
H19 C11 0.952 . S
H20 C2 0.952 . S
H21 C10 0.948 . S
O22 Zn7 2.034 1_655 S
O22 C17 1.246 . S
O23 Zn15 2.024 1_655 S
O23 C17 1.249 1_556 S
H24 C6 0.948 . S
O25 Zn15 2.039 . S
O25 C29 1.251 1_556 S
O26 Zn7 2.025 . S
O26 C29 1.254 . S
O27 C8 1.246 1_556 S
O27 Zn15 2.034 1_565 S
O28 Zn7 2.024 1_565 S
O28 C8 1.249 . S
C29 O25 1.251 1_554 S
C29 O26 1.254 . S
H30 C3 0.949 . S
H31 C5 0.950 . S
H32 C12 0.949 . S
H33 C14 0.950 . S
C34 O50 1.251 . S
C34 O52 1.254 . S
N35 C36 1.333 . S
N35 C40 1.307 . S
N35 Zn41 2.020 . S
C36 N35 1.333 . S
C36 C37 1.379 . S
C36 H54 0.952 . S
C37 C36 1.379 . S
C37 C38 1.390 . S
C37 H64 0.949 . S
C38 C37 1.390 . S
C38 C39 1.357 . S
C39 C38 1.357 . S
C39 C40 1.370 . S
C39 H65 0.950 . S
C40 N35 1.307 . S
C40 C39 1.370 . S
C40 H58 0.948 . S
Zn41 N35 2.020 . S
Zn41 O50 2.039 . S
Zn41 O56 2.034 . S
Zn41 O60 2.025 . S
Zn41 O62 2.024 . S
C42 O61 1.246 . S
C42 O62 1.249 . S
N43 C44 1.307 . S
N43 C45 1.333 . S
N43 Zn49 2.020 . S
C44 N43 1.307 . S
C44 C48 1.370 . S
C44 H55 0.948 . S
C45 N43 1.333 . S
C45 C46 1.379 . S
C45 H53 0.952 . S
C46 C45 1.379 . S
C46 C47 1.390 . S
C46 H66 0.949 . S
C47 C46 1.390 . S
C47 C48 1.357 . S
C48 C44 1.370 . S
C48 C47 1.357 . S
C48 H67 0.950 . S
Zn49 N43 2.020 . S
Zn49 O52 2.025 . S
Zn49 O57 2.024 . S
Zn49 O59 2.039 . S
Zn49 O61 2.034 . S
O50 C34 1.251 . S
O50 Zn41 2.039 . S
C51 O56 1.246 . S
C51 O57 1.249 . S
O52 C34 1.254 . S
O52 Zn49 2.025 . S
H53 C45 0.952 . S
H54 C36 0.952 . S
H55 C44 0.948 . S
O56 Zn41 2.034 . S
O56 C51 1.246 . S
O57 Zn49 2.024 . S
O57 C51 1.249 . S
H58 C40 0.948 . S
O59 Zn49 2.039 . S
O59 C63 1.251 . S
O60 Zn41 2.025 . S
O60 C63 1.254 . S
O61 C42 1.246 . S
O61 Zn49 2.034 . S
O62 Zn41 2.024 . S
O62 C42 1.249 . S
C63 O59 1.251 . S
C63 O60 1.254 . S
H64 C37 0.949 . S
H65 C39 0.950 . S
H66 C46 0.949 . S
H67 C48 0.950 . S
C68 C69 1.384 . S
C68 H81 0.947 . S
C68 C103 1.382 . S
C69 C68 1.384 . S
C69 C70 1.378 . S
C70 C69 1.378 . S
C70 C71 1.378 . S
C70 H82 0.952 . S
C71 C70 1.378 . S
C71 H83 0.950 . S
C71 C102 1.383 . S
H72 C91 0.947 . S
H73 C92 0.946 . S
H74 C94 0.953 . S
H75 C95 0.945 . S
H76 C97 0.952 . S
H77 C98 0.949 . S
H78 C100 0.950 . S
H79 C101 0.948 . S
H80 C103 0.951 . S
H81 C68 0.947 . S
H82 C70 0.952 . S
H83 C71 0.950 . S
N84 C87 1.382 1_545 S
N84 C89 1.363 1_455 S
N85 C87 1.371 . S
N85 C88 1.372 1_565 S
N86 C88 1.361 1_655 S
N86 C89 1.377 . S
C87 N84 1.382 1_565 S
C87 N85 1.371 . S
C87 C90 1.480 . S
C88 N85 1.372 1_545 S
C88 N86 1.361 1_455 S
C88 C96 1.457 . S
C89 N84 1.363 1_655 S
C89 N86 1.377 . S
C89 C102 1.479 . S
C90 C87 1.480 . S
C90 C91 1.383 . S
C90 C95 1.385 . S
C91 H72 0.947 . S
C91 C90 1.383 . S
C91 C92 1.388 . S
C92 H73 0.946 . S
C92 C91 1.388 . S
C92 C93 1.384 . S
C93 C92 1.384 . S
C93 C94 1.377 . S
C94 H74 0.953 . S
C94 C93 1.377 . S
C94 C95 1.369 . S
C95 H75 0.945 . S
C95 C90 1.385 . S
C95 C94 1.369 . S
C96 C88 1.457 . S
C96 C97 1.372 1_545 S
C96 C101 1.364 1_455 S
C97 H76 0.952 . S
C97 C96 1.372 1_565 S
C97 C98 1.389 . S
C98 H77 0.949 . S
C98 C97 1.389 . S
C98 C99 1.387 1_565 S
C99 C98 1.387 1_545 S
C99 C100 1.372 1_455 S
C100 H78 0.950 . S
C100 C99 1.372 1_655 S
C100 C101 1.379 . S
C101 H79 0.948 . S
C101 C96 1.364 1_655 S
C101 C100 1.379 . S
C102 C71 1.383 . S
C102 C89 1.479 . S
C102 C103 1.398 . S
C103 C68 1.382 . S
C103 H80 0.951 . S
C103 C102 1.398 . S
C104 C105 1.384 . S
C104 H117 0.947 . S
C104 C139 1.382 . S
C105 C104 1.384 . S
C105 C106 1.378 . S
C106 C105 1.378 . S
C106 C107 1.378 . S
C106 H118 0.952 . S
C107 C106 1.378 . S
C107 H119 0.950 . S
C107 C138 1.383 . S
H108 C127 0.947 . S
H109 C128 0.946 . S
H110 C130 0.953 . S
H111 C131 0.945 . S
H112 C133 0.952 . S
H113 C134 0.949 . S
H114 C136 0.950 . S
H115 C137 0.948 . S
H116 C139 0.951 . S
H117 C104 0.947 . S
H118 C106 0.952 . S
H119 C107 0.950 . S
N120 C123 1.382 1_565 S
N120 C125 1.363 1_455 S
N121 C123 1.371 . S
N121 C124 1.372 1_545 S
N122 C124 1.361 1_655 S
N122 C125 1.377 . S
C123 N120 1.382 1_545 S
C123 N121 1.371 . S
C123 C126 1.480 . S
C124 N121 1.372 1_565 S
C124 N122 1.361 1_455 S
C124 C132 1.457 . S
C125 N120 1.363 1_655 S
C125 N122 1.377 . S
C125 C138 1.479 . S
C126 C123 1.480 . S
C126 C127 1.383 . S
C126 C131 1.385 . S
C127 H108 0.947 . S
C127 C126 1.383 . S
C127 C128 1.388 . S
C128 H109 0.946 . S
C128 C127 1.388 . S
C128 C129 1.384 . S
C129 C128 1.384 . S
C129 C130 1.377 . S
C130 H110 0.953 . S
C130 C129 1.377 . S
C130 C131 1.369 . S
C131 H111 0.945 . S
C131 C126 1.385 . S
C131 C130 1.369 . S
C132 C124 1.457 . S
C132 C133 1.372 1_565 S
C132 C137 1.364 1_455 S
C133 H112 0.952 . S
C133 C132 1.372 1_545 S
C133 C134 1.389 . S
C134 H113 0.949 . S
C134 C133 1.389 . S
C134 C135 1.387 . S
C135 C134 1.387 . S
C135 C136 1.372 1_445 S
C136 H114 0.950 . S
C136 C135 1.372 1_665 S
C136 C137 1.379 . S
C137 H115 0.948 . S
C137 C132 1.364 1_655 S
C137 C136 1.379 . S
C138 C107 1.383 . S
C138 C125 1.479 . S
C138 C139 1.398 . S
C139 C104 1.382 . S
C139 H116 0.951 . S
C139 C138 1.398 . S
C140 C141 1.384 1_556 S
C140 H153 0.947 . S
C140 C175 1.382 . S
C141 C140 1.384 1_554 S
C141 C142 1.378 . S
C142 C141 1.378 . S
C142 C143 1.378 . S
C142 H154 0.952 . S
C143 C142 1.378 . S
C143 H155 0.950 . S
C143 C174 1.383 1_554 S
H144 C163 0.947 . S
H145 C164 0.946 . S
H146 C166 0.953 . S
H147 C167 0.945 . S
H148 C169 0.952 . S
H149 C170 0.949 . S
H150 C172 0.950 . S
H151 C173 0.948 . S
H152 C175 0.951 . S
H153 C140 0.947 . S
H154 C142 0.952 . S
H155 C143 0.950 . S
N156 C159 1.382 . S
N156 C161 1.363 . S
N157 C159 1.371 . S
N157 C160 1.372 . S
N158 C160 1.361 . S
N158 C161 1.377 . S
C159 N156 1.382 . S
C159 N157 1.371 . S
C159 C162 1.480 . S
C160 N157 1.372 . S
C160 N158 1.361 . S
C160 C168 1.457 . S
C161 N156 1.363 . S
C161 N158 1.377 . S
C161 C174 1.479 . S
C162 C159 1.480 . S
C162 C163 1.383 1_556 S
C162 C167 1.385 . S
C163 H144 0.947 . S
C163 C162 1.383 1_554 S
C163 C164 1.388 . S
C164 H145 0.946 . S
C164 C163 1.388 . S
C164 C165 1.384 . S
C165 C164 1.384 . S
C165 C166 1.377 1_554 S
C166 H146 0.953 . S
C166 C165 1.377 1_556 S
C166 C167 1.369 . S
C167 H147 0.945 . S
C167 C162 1.385 . S
C167 C166 1.369 . S
C168 C160 1.457 . S
C168 C169 1.372 . S
C168 C173 1.364 . S
C169 H148 0.952 . S
C169 C168 1.372 . S
C169 C170 1.389 . S
C170 H149 0.949 . S
C170 C169 1.389 . S
C170 C171 1.387 . S
C171 C170 1.387 . S
C171 C172 1.372 . S
C172 H150 0.950 . S
C172 C171 1.372 . S
C172 C173 1.379 . S
C173 H151 0.948 . S
C173 C168 1.364 . S
C173 C172 1.379 . S
C174 C143 1.383 1_556 S
C174 C161 1.479 . S
C174 C175 1.398 . S
C175 C140 1.382 . S
C175 H152 0.951 . S
C175 C174 1.398 . S
C176 C177 1.384 1_554 S
C176 H189 0.947 . S
C176 C211 1.382 . S
C177 C176 1.384 1_556 S
C177 C178 1.378 . S
C178 C177 1.378 . S
C178 C179 1.378 . S
C178 H190 0.952 . S
C179 C178 1.378 . S
C179 H191 0.950 . S
C179 C210 1.383 1_556 S
H180 C199 0.947 1_556 S
H181 C200 0.946 . S
H182 C202 0.953 . S
H183 C203 0.945 . S
H184 C205 0.952 . S
H185 C206 0.949 . S
H186 C208 0.950 . S
H187 C209 0.948 . S
H188 C211 0.951 . S
H189 C176 0.947 . S
H190 C178 0.952 . S
H191 C179 0.950 . S
N192 C195 1.382 . S
N192 C197 1.363 . S
N193 C195 1.371 . S
N193 C196 1.372 . S
N194 C196 1.361 . S
N194 C197 1.377 . S
C195 N192 1.382 . S
C195 N193 1.371 . S
C195 C198 1.480 . S
C196 N193 1.372 . S
C196 N194 1.361 . S
C196 C204 1.457 . S
C197 N192 1.363 . S
C197 N194 1.377 . S
C197 C210 1.479 . S
C198 C195 1.480 . S
C198 C199 1.383 . S
C198 C203 1.385 . S
C199 H180 0.947 1_554 S
C199 C198 1.383 . S
C199 C200 1.388 1_554 S
C200 H181 0.946 . S
C200 C199 1.388 1_556 S
C200 C201 1.384 1_556 S
C201 C200 1.384 1_554 S
C201 C202 1.377 . S
C202 H182 0.953 . S
C202 C201 1.377 . S
C202 C203 1.369 . S
C203 H183 0.945 . S
C203 C198 1.385 . S
C203 C202 1.369 . S
C204 C196 1.457 . S
C204 C205 1.372 . S
C204 C209 1.364 . S
C205 H184 0.952 . S
C205 C204 1.372 . S
C205 C206 1.389 . S
C206 H185 0.949 . S
C206 C205 1.389 . S
C206 C207 1.387 . S
C207 C206 1.387 . S
C207 C208 1.372 . S
C208 H186 0.950 . S
C208 C207 1.372 . S
C208 C209 1.379 . S
C209 H187 0.948 . S
C209 C204 1.364 . S
C209 C208 1.379 . S
C210 C179 1.383 1_554 S
C210 C197 1.479 . S
C210 C211 1.398 . S
C211 C176 1.382 . S
C211 H188 0.951 . S
C211 C210 1.398 . S
C212 C213 1.387 . S
C212 H216 0.950 . S
C212 C221 1.390 . S
C213 C212 1.387 . S
C213 C215 1.387 1_554 S
H214 C221 0.950 . S
C215 C213 1.387 1_556 S
C215 C217 1.390 . S
C215 H219 0.950 . S
H216 C212 0.950 . S
C217 C215 1.390 . S
C217 C218 1.387 . S
C217 H220 0.950 . S
C218 C217 1.387 . S
C218 C221 1.387 1_556 S
H219 C215 0.950 . S
H220 C217 0.950 . S
C221 C212 1.390 . S
C221 H214 0.950 . S
C221 C218 1.387 1_554 S
C222 C223 1.387 . S
C222 H226 0.950 . S
C222 C231 1.390 . S
C223 C222 1.387 . S
C223 C225 1.387 1_554 S
H224 C231 0.950 . S
C225 C223 1.387 1_556 S
C225 C227 1.390 . S
C225 H229 0.950 . S
H226 C222 0.950 . S
C227 C225 1.390 . S
C227 C228 1.387 1_556 S
C227 H230 0.950 . S
C228 C227 1.387 1_554 S
C228 C231 1.387 . S
H229 C225 0.950 . S
H230 C227 0.950 . S
C231 C222 1.390 . S
C231 H224 0.950 . S
C231 C228 1.387 . S
C232 C233 1.387 1_556 S
C232 H236 0.950 . S
C232 C241 1.390 . S
C233 C232 1.387 1_554 S
C233 C235 1.387 . S
H234 C241 0.950 . S
C235 C233 1.387 . S
C235 C237 1.390 . S
C235 H239 0.950 . S
H236 C232 0.950 . S
C237 C235 1.390 . S
C237 C238 1.387 1_554 S
C237 H240 0.950 . S
C238 C237 1.387 1_556 S
C238 C241 1.387 . S
H239 C235 0.950 . S
H240 C237 0.950 . S
C241 C232 1.390 . S
C241 H234 0.950 . S
C241 C238 1.387 . S
C242 C243 1.387 1_556 S
C242 H246 0.950 . S
C242 C251 1.390 1_556 S
C243 C242 1.387 1_554 S
C243 C245 1.387 . S
H244 C251 0.950 1_556 S
C245 C243 1.387 . S
C245 C247 1.390 . S
C245 H249 0.950 . S
H246 C242 0.950 . S
C247 C245 1.390 . S
C247 C248 1.387 . S
C247 H250 0.950 . S
C248 C247 1.387 . S
C248 C251 1.387 . S
H249 C245 0.950 . S
H250 C247 0.950 . S
C251 C242 1.390 1_554 S
C251 H244 0.950 1_554 S
C251 C248 1.387 . S
C252 C253 1.387 . S
C252 H256 0.950 . S
C252 C261 1.390 . S
C253 C252 1.387 . S
C253 C255 1.387 . S
H254 C261 0.950 . S
C255 C253 1.387 . S
C255 C257 1.390 . S
C255 H259 0.950 . S
H256 C252 0.950 . S
C257 C255 1.390 . S
C257 C258 1.387 . S
C257 H260 0.950 . S
C258 C257 1.387 . S
C258 C261 1.387 . S
H259 C255 0.950 . S
H260 C257 0.950 . S
C261 C252 1.390 . S
C261 H254 0.950 . S
C261 C258 1.387 . S
C262 C263 1.387 . S
C262 H266 0.950 . S
C262 C271 1.390 . S
C263 C262 1.387 . S
C263 C265 1.387 . S
H264 C271 0.950 . S
C265 C263 1.387 . S
C265 C267 1.390 . S
C265 H269 0.950 . S
H266 C262 0.950 . S
C267 C265 1.390 . S
C267 C268 1.387 . S
C267 H270 0.950 . S
C268 C267 1.387 . S
C268 C271 1.387 . S
H269 C265 0.950 . S
H270 C267 0.950 . S
C271 C262 1.390 . S
C271 H264 0.950 . S
C271 C268 1.387 . S
C272 C273 1.387 . S
C272 H276 0.950 . S
C272 C281 1.390 . S
C273 C272 1.387 . S
C273 C275 1.387 . S
H274 C281 0.950 . S
C275 C273 1.387 . S
C275 C277 1.390 . S
C275 H279 0.950 . S
H276 C272 0.950 . S
C277 C275 1.390 . S
C277 C278 1.387 . S
C277 H280 0.950 . S
C278 C277 1.387 . S
C278 C281 1.387 . S
H279 C275 0.950 . S
H280 C277 0.950 . S
C281 C272 1.390 . S
C281 H274 0.950 . S
C281 C278 1.387 . S
C282 C283 1.387 . S
C282 H286 0.950 . S
C282 C291 1.390 . S
C283 C282 1.387 . S
C283 C285 1.387 . S
H284 C291 0.950 . S
C285 C283 1.387 . S
C285 C287 1.390 . S
C285 H289 0.950 . S
H286 C282 0.950 . S
C287 C285 1.390 . S
C287 C288 1.387 . S
C287 H290 0.950 . S
C288 C287 1.387 . S
C288 C291 1.387 . S
H289 C285 0.950 . S
H290 C287 0.950 . S
C291 C282 1.390 . S
C291 H284 0.950 . S
C291 C288 1.387 . S
C292 C293 1.387 . S
C292 H296 0.950 . S
C292 C301 1.390 . S
C293 C292 1.387 . S
C293 C295 1.387 1_445 S
H294 C301 0.950 . S
C295 C293 1.387 1_665 S
C295 C297 1.390 . S
C295 H299 0.950 . S
H296 C292 0.950 . S
C297 C295 1.390 . S
C297 C298 1.390 1_565 S
C297 H300 0.950 . S
C298 C297 1.390 1_545 S
C298 C301 1.384 1_655 S
H299 C295 0.950 . S
H300 C297 0.950 . S
C301 C292 1.390 . S
C301 H294 0.950 . S
C301 C298 1.384 1_455 S
C302 C303 1.387 1_565 S
C302 H306 0.950 . S
C302 C311 1.390 . S
C303 C302 1.387 1_545 S
C303 C305 1.387 . S
H304 C311 0.950 . S
C305 C303 1.387 . S
C305 C307 1.390 . S
C305 H309 0.950 1_455 S
H306 C302 0.950 . S
C307 C305 1.390 . S
C307 C308 1.387 . S
C307 H310 0.950 1_455 S
C308 C307 1.387 . S
C308 C311 1.387 1_545 S
H309 C305 0.950 1_655 S
H310 C307 0.950 1_655 S
C311 C302 1.390 . S
C311 H304 0.950 . S
C311 C308 1.387 1_565 S
C312 C313 1.387 . S
C312 H316 0.950 . S
C312 C321 1.390 . S
C313 C312 1.387 . S
C313 C315 1.387 . S
H314 C321 0.950 . S
C315 C313 1.387 . S
C315 C317 1.390 . S
C315 H319 0.950 . S
H316 C312 0.950 . S
C317 C315 1.390 . S
C317 C318 1.387 . S
C317 H320 0.950 . S
C318 C317 1.387 . S
C318 C321 1.387 . S
H319 C315 0.950 . S
H320 C317 0.950 . S
C321 C312 1.390 . S
C321 H314 0.950 . S
C321 C318 1.387 . S
C322 C323 1.387 . S
C322 H326 0.950 . S
C322 C331 1.390 . S
C323 C322 1.387 . S
C323 C325 1.387 . S
H324 C331 0.950 . S
C325 C323 1.387 . S
C325 C327 1.390 . S
C325 H329 0.950 . S
H326 C322 0.950 . S
C327 C325 1.390 . S
C327 C328 1.387 . S
C327 H330 0.950 . S
C328 C327 1.387 . S
C328 C331 1.387 . S
H329 C325 0.950 . S
H330 C327 0.950 . S
C331 C322 1.390 . S
C331 H324 0.950 . S
C331 C328 1.387 . S
C218 C177 1.552 . S
C213 C29 1.624 . S
C223 C8 1.595 . S
C228 C141 1.532 . S
C233 C0 1.581 . S
C238 C201 1.488 1_556 S
C243 C17 1.610 . S
C248 C165 1.501 . S
C253 C63 1.624 . S
C258 C105 1.550 . S
C263 C42 1.595 . S
C268 C69 1.531 . S
C278 C129 1.488 . S
C273 C34 1.581 . S
C288 C93 1.501 . S
C283 C51 1.610 . S
C293 C4 1.491 . S
C298 C99 1.487 1_655 S
C303 C13 1.490 . S
C308 C135 1.487 . S
C318 C171 1.487 . S
C313 C38 1.490 . S
C323 C47 1.489 . S
C328 C207 1.487 . S
