# Generated by pormake.
# Topology sqc, (4,8)-cn, num edge types: 1
# Building blocks:
#     Node 0, Type 0, BuildingBlock: MIFKUJ_clean_linker_1, # of connection points: 4
#     Node 1, Type 0, BuildingBlock: MIFKUJ_clean_linker_1, # of connection points: 4
#     Node 2, Type 0, BuildingBlock: MIFKUJ_clean_linker_1, # of connection points: 4
#     Node 3, Type 0, BuildingBlock: MIFKUJ_clean_linker_1, # of connection points: 4
#     Node 4, Type 0, BuildingBlock: MIFKUJ_clean_linker_1, # of connection points: 4
#     Node 5, Type 0, BuildingBlock: MIFKUJ_clean_linker_1, # of connection points: 4
#     Node 6, Type 0, BuildingBlock: MIFKUJ_clean_linker_1, # of connection points: 4
#     Node 7, Type 0, BuildingBlock: MIFKUJ_clean_linker_1, # of connection points: 4
#     Node 8, Type 1, BuildingBlock: TAGTUT_clean_sbu_3, # of connection points: 8
#     Node 9, Type 1, BuildingBlock: TAGTUT_clean_sbu_3, # of connection points: 8
#     Node 10, Type 1, BuildingBlock: TAGTUT_clean_sbu_3, # of connection points: 8
#     Node 11, Type 1, BuildingBlock: TAGTUT_clean_sbu_3, # of connection points: 8
#     Edge 12, Type (0, 1), BuildingBlock: EZIPEK_clean_linker_0, # of connection points: 2
#     Edge 13, Type (0, 1), BuildingBlock: EZIPEK_clean_linker_0, # of connection points: 2
#     Edge 14, Type (0, 1), BuildingBlock: EZIPEK_clean_linker_0, # of connection points: 2
#     Edge 15, Type (0, 1), BuildingBlock: EZIPEK_clean_linker_0, # of connection points: 2
#     Edge 16, Type (0, 1), BuildingBlock: EZIPEK_clean_linker_0, # of connection points: 2
#     Edge 17, Type (0, 1), BuildingBlock: EZIPEK_clean_linker_0, # of connection points: 2
#     Edge 18, Type (0, 1), BuildingBlock: EZIPEK_clean_linker_0, # of connection points: 2
#     Edge 19, Type (0, 1), BuildingBlock: EZIPEK_clean_linker_0, # of connection points: 2
#     Edge 20, Type (0, 1), BuildingBlock: EZIPEK_clean_linker_0, # of connection points: 2
#     Edge 21, Type (0, 1), BuildingBlock: EZIPEK_clean_linker_0, # of connection points: 2
#     Edge 22, Type (0, 1), BuildingBlock: EZIPEK_clean_linker_0, # of connection points: 2
#     Edge 23, Type (0, 1), BuildingBlock: EZIPEK_clean_linker_0, # of connection points: 2
#     Edge 24, Type (0, 1), BuildingBlock: EZIPEK_clean_linker_0, # of connection points: 2
#     Edge 25, Type (0, 1), BuildingBlock: EZIPEK_clean_linker_0, # of connection points: 2
#     Edge 26, Type (0, 1), BuildingBlock: EZIPEK_clean_linker_0, # of connection points: 2
#     Edge 27, Type (0, 1), BuildingBlock: EZIPEK_clean_linker_0, # of connection points: 2
#     Edge 28, Type (0, 1), BuildingBlock: EZIPEK_clean_linker_0, # of connection points: 2
#     Edge 29, Type (0, 1), BuildingBlock: EZIPEK_clean_linker_0, # of connection points: 2
#     Edge 30, Type (0, 1), BuildingBlock: EZIPEK_clean_linker_0, # of connection points: 2
#     Edge 31, Type (0, 1), BuildingBlock: EZIPEK_clean_linker_0, # of connection points: 2
#     Edge 32, Type (0, 1), BuildingBlock: EZIPEK_clean_linker_0, # of connection points: 2
#     Edge 33, Type (0, 1), BuildingBlock: EZIPEK_clean_linker_0, # of connection points: 2
#     Edge 34, Type (0, 1), BuildingBlock: EZIPEK_clean_linker_0, # of connection points: 2
#     Edge 35, Type (0, 1), BuildingBlock: EZIPEK_clean_linker_0, # of connection points: 2
#     Edge 36, Type (0, 1), BuildingBlock: EZIPEK_clean_linker_0, # of connection points: 2
#     Edge 37, Type (0, 1), BuildingBlock: EZIPEK_clean_linker_0, # of connection points: 2
#     Edge 38, Type (0, 1), BuildingBlock: EZIPEK_clean_linker_0, # of connection points: 2
#     Edge 39, Type (0, 1), BuildingBlock: EZIPEK_clean_linker_0, # of connection points: 2
#     Edge 40, Type (0, 1), BuildingBlock: EZIPEK_clean_linker_0, # of connection points: 2
#     Edge 41, Type (0, 1), BuildingBlock: EZIPEK_clean_linker_0, # of connection points: 2
#     Edge 42, Type (0, 1), BuildingBlock: EZIPEK_clean_linker_0, # of connection points: 2
#     Edge 43, Type (0, 1), BuildingBlock: EZIPEK_clean_linker_0, # of connection points: 2
# Relax obj value: 0.146
# Max RMSD: 0.259
# Mean RMSD: 0.179
data_MOF--net-sqc--node1-TAGTUT_clean_sbu_3--node2-MIFKUJ_clean_linker_1--edge1-EZIPEK_clean_linker_0
_symmetry_space_group_name_H-M    P1
_symmetry_Int_Tables_number       1
_symmetry_cell_setting            triclinic
loop_
_symmetry_equiv_pos_as_xyz
'x, y, z'
_cell_length_a     22.542179
_cell_length_b     22.55118
_cell_length_c     66.654223
_cell_angle_alpha  91.316166
_cell_angle_beta   89.984077
_cell_angle_gamma 89.641644
loop_
_atom_site_label
_atom_site_type_symbol
_atom_site_fract_x
_atom_site_fract_y
_atom_site_fract_z
_atom_type_partial_charge
H0 H 0.89488 0.92399 0.50266 0.0
H1 H 0.8081 0.89091 0.48347 0.0
H2 H 0.88243 0.96468 0.42997 0.0
H3 H 0.96672 0.00251 0.44944 0.0
H4 H 0.04983 0.94694 0.46695 0.0
H5 H 0.9497 0.98708 0.54432 0.0
H6 H 0.8547 0.00569 0.55979 0.0
H7 H 0.8012 0.10496 0.50776 0.0
H8 H 0.89624 0.08553 0.49281 0.0
H9 H 0.12329 0.13251 0.52262 0.0
H10 H 0.21026 0.16382 0.54226 0.0
H11 H 0.27582 0.98372 0.541 0.0
H12 H 0.18769 0.95172 0.52224 0.0
H13 H 0.03657 0.05981 0.53151 0.0
H14 H 0.19605 0.05799 0.483 0.0
H15 H 0.2893 0.02768 0.46676 0.0
H16 H 0.22464 0.84877 0.46014 0.0
H17 H 0.13303 0.87782 0.47765 0.0
C18 C 0.93723 0.96671 0.47762 0.0
C19 C 0.89179 0.93492 0.48697 0.0
C20 C 0.8424 0.91562 0.47601 0.0
C21 C 0.83904 0.92508 0.45529 0.0
C22 C 0.88416 0.95697 0.44594 0.0
C23 C 0.9325 0.97802 0.45703 0.0
C24 C 0.99081 0.98643 0.48895 0.0
C25 C 0.04699 0.97179 0.48105 0.0
C26 C 0.98715 0.01836 0.50745 0.0
C27 C 0.92939 0.03304 0.51709 0.0
C28 C 0.91661 0.01183 0.53614 0.0
C29 C 0.86078 0.02126 0.54473 0.0
C30 C 0.81487 0.05098 0.53437 0.0
C31 C 0.83049 0.07642 0.51585 0.0
C32 C 0.88645 0.06671 0.50724 0.0
C33 C 0.14913 0.03982 0.52081 0.0
C34 C 0.15631 0.09971 0.52659 0.0
C35 C 0.20607 0.11771 0.53758 0.0
C36 C 0.24961 0.07616 0.54282 0.0
C37 C 0.24295 0.01647 0.53685 0.0
C38 C 0.19272 -0.00171 0.52617 0.0
C39 C 0.09572 0.021 0.50935 0.0
C40 C 0.03957 0.03544 0.51732 0.0
C41 C 0.09958 0.9881 0.49101 0.0
C42 C 0.15735 0.97016 0.48174 0.0
C43 C 0.20242 0.01184 0.47864 0.0
C44 C 0.25566 0.99462 0.46936 0.0
C45 C 0.26385 0.93596 0.46228 0.0
C46 C 0.21934 0.89412 0.4656 0.0
C47 C 0.1668 0.91095 0.47536 0.0
H48 H 0.35068 0.79327 0.80309 0.0
H49 H 0.3061 0.88604 0.81624 0.0
H50 H 0.22029 0.91272 0.75934 0.0
H51 H 0.26338 0.81925 0.7463 0.0
H52 H 0.30192 0.69022 0.78828 0.0
H53 H 0.42208 0.85115 0.76052 0.0
H54 H 0.44435 0.93662 0.73949 0.0
H55 H 0.37409 0.84235 0.68778 0.0
H56 H 0.34965 0.75846 0.70872 0.0
H57 H 0.34812 0.59302 0.71434 0.0
H58 H 0.39266 0.51348 0.69371 0.0
H59 H 0.52651 0.48699 0.73895 0.0
H60 H 0.48048 0.56628 0.76004 0.0
H61 H 0.42617 0.69232 0.72699 0.0
H62 H 0.305 0.53667 0.74879 0.0
H63 H 0.26879 0.44787 0.76489 0.0
H64 H 0.31433 0.52358 0.8228 0.0
H65 H 0.35639 0.61009 0.80661 0.0
C66 C 0.31094 0.79962 0.77365 0.0
C67 C 0.32198 0.81881 0.79348 0.0
C68 C 0.29694 0.87177 0.80093 0.0
C69 C 0.26045 0.90618 0.78866 0.0
C70 C 0.24877 0.88685 0.76892 0.0
C71 C 0.27341 0.83368 0.76152 0.0
C72 C 0.33967 0.74469 0.76553 0.0
C73 C 0.33001 0.69058 0.77508 0.0
C74 C 0.37442 0.7449 0.74791 0.0
C75 C 0.38426 0.7986 0.73614 0.0
C76 C 0.4105 0.84944 0.74475 0.0
C77 C 0.42348 0.89781 0.73281 0.0
C78 C 0.41128 0.89506 0.71215 0.0
C79 C 0.38401 0.84485 0.70369 0.0
C80 C 0.37028 0.79714 0.71561 0.0
C81 C 0.41044 0.58443 0.73882 0.0
C82 C 0.38629 0.56925 0.72002 0.0
C83 C 0.41187 0.52438 0.70822 0.0
C84 C 0.4627 0.4947 0.71486 0.0
C85 C 0.48703 0.50947 0.73372 0.0
C86 C 0.46065 0.55406 0.74575 0.0
C87 C 0.38765 0.63787 0.74942 0.0
C88 C 0.39899 0.69186 0.74044 0.0
C89 C 0.35242 0.63654 0.76696 0.0
C90 C 0.33488 0.58007 0.77638 0.0
C91 C 0.31029 0.53328 0.76483 0.0
C92 C 0.28863 0.48278 0.77404 0.0
C93 C 0.28816 0.47957 0.79503 0.0
C94 C 0.31403 0.52537 0.80657 0.0
C95 C 0.33764 0.57489 0.79733 0.0
H96 H 0.49257 0.1168 0.0286 0.0
H97 H 0.3996 0.09248 0.04593 0.0
H98 H 0.45499 0.90935 0.0483 0.0
H99 H 0.54716 0.93308 0.03094 0.0
H100 H 0.63482 -0.00077 0.04187 0.0
H101 H 0.53973 0.1695 0.98471 0.0
H102 H 0.46076 0.17654 0.95935 0.0
H103 H 0.43585 0.98724 0.96107 0.0
H104 H 0.51404 0.98012 0.98648 0.0
H105 H 0.70147 0.02955 0.95894 0.0
H106 H 0.78412 0.05135 0.93697 0.0
H107 H 0.89043 0.10195 0.98834 0.0
H108 H 0.80495 0.08672 0.0104 0.0
H109 H 0.64019 0.09973 0.97661 0.0
H110 H 0.74051 0.92534 0.00168 0.0
H111 H 0.81313 0.86064 0.01822 0.0
H112 H 0.82267 0.98547 0.06812 0.0
H113 H 0.7494 0.04932 0.05185 0.0
C114 C 0.52674 0.02676 0.02871 0.0
C115 C 0.48437 0.0714 0.03273 0.0
C116 C 0.43166 0.0577 0.04254 0.0
C117 C 0.42122 -0.00069 0.0483 0.0
C118 C 0.46285 0.9546 0.04391 0.0
C119 C 0.51535 0.96823 0.03418 0.0
C120 C 0.5833 0.04058 0.01885 0.0
C121 C 0.63624 0.02154 0.02761 0.0
C122 C 0.585 0.06796 0.00011 0.0
C123 C 0.53163 0.07453 0.98766 0.0
C124 C 0.51628 0.12985 0.97993 0.0
C125 C 0.47192 0.13376 0.96544 0.0
C126 C 0.44345 0.08225 0.9584 0.0
C127 C 0.45783 0.02718 0.9664 0.0
C128 C 0.50167 0.02335 0.98101 0.0
C129 C 0.74642 0.05743 0.98636 0.0
C130 C 0.74225 0.04585 0.9656 0.0
C131 C 0.78953 0.05781 0.95303 0.0
C132 C 0.84299 0.0789 0.96103 0.0
C133 C 0.84911 0.08622 0.98192 0.0
C134 C 0.80064 0.07674 0.9945 0.0
C135 C 0.69213 0.05432 -0.00122 0.0
C136 C 0.63953 0.07795 0.99096 0.0
C137 C 0.69019 0.0256 0.01737 0.0
C138 C 0.74074 0.99237 0.02547 0.0
C139 C 0.7593 0.93921 0.01598 0.0
C140 C 0.79998 0.90219 0.02544 0.0
C141 C 0.82282 0.91859 0.04432 0.0
C142 C 0.80529 0.97238 0.05354 0.0
C143 C 0.76414 0.0089 0.04423 0.0
H144 H 0.27857 0.21759 0.28613 0.0
H145 H 0.30646 0.13812 0.30902 0.0
H146 H 0.45678 0.09369 0.27136 0.0
H147 H 0.42778 0.17202 0.24818 0.0
H148 H 0.37854 0.30908 0.27634 0.0
H149 H 0.22919 0.17431 0.24791 0.0
H150 H 0.19421 0.08229 0.23133 0.0
H151 H 0.32148 0.10531 0.18387 0.0
H152 H 0.3561 0.1972 0.20028 0.0
H153 H 0.40703 0.44061 0.22113 0.0
H154 H 0.38931 0.53177 0.20244 0.0
H155 H 0.20466 0.48613 0.19639 0.0
H156 H 0.22151 0.39633 0.21564 0.0
H157 H 0.28657 0.29993 0.20875 0.0
H158 H 0.46426 0.38906 0.26011 0.0
H159 H 0.49678 0.47376 0.28096 0.0
H160 H 0.31597 0.53661 0.28519 0.0
H161 H 0.28339 0.45224 0.26393 0.0
C162 C 0.35093 0.19984 0.26548 0.0
C163 C 0.31668 0.18973 0.28261 0.0
C164 C 0.33269 0.14488 0.29566 0.0
C165 C 0.38385 0.11069 0.29189 0.0
C166 C 0.4172 0.11984 0.27445 0.0
C167 C 0.40059 0.16406 0.26124 0.0
C168 C 0.33966 0.25276 0.25358 0.0
C169 C 0.35834 0.30722 0.26155 0.0
C170 C 0.31393 0.24972 0.23435 0.0
C171 C 0.29509 0.1925 0.22524 0.0
C172 C 0.2502 0.15893 0.23411 0.0
C173 C 0.23049 0.10646 0.22477 0.0
C174 C 0.25582 0.08693 0.20655 0.0
C175 C 0.30196 0.1195 0.19806 0.0
C176 C 0.32127 0.17204 0.20728 0.0
C177 C 0.31543 0.41178 0.21995 0.0
C178 C 0.36252 0.4506 0.21606 0.0
C179 C 0.35261 0.50243 0.20538 0.0
C180 C 0.29572 0.51542 0.19812 0.0
C181 C 0.2488 0.47673 0.20195 0.0
C182 C 0.25853 0.42534 0.21277 0.0
C183 C 0.32499 0.35725 0.23162 0.0
C184 C 0.30659 0.30213 0.22355 0.0
C185 C 0.35159 0.35928 0.25079 0.0
C186 C 0.37157 0.41479 0.26056 0.0
C187 C 0.43186 0.42179 0.26518 0.0
C188 C 0.45033 0.46976 0.27707 0.0
C189 C 0.40852 0.5106 0.28467 0.0
C190 C 0.34856 0.5052 0.27936 0.0
C191 C 0.33013 0.45744 0.26727 0.0
H192 H 0.88025 0.25841 0.21604 0.0
H193 H 0.9019 0.34052 0.19421 0.0
H194 H 0.94817 0.45001 0.24573 0.0
H195 H 0.92825 0.36607 0.26793 0.0
H196 H 0.95901 0.20471 0.23911 0.0
H197 H 0.77594 0.3184 0.24651 0.0
H198 H 0.72216 0.40986 0.2562 0.0
H199 H 0.78553 0.3944 0.31689 0.0
H200 H 0.84006 0.30336 0.3072 0.0
H201 H 0.8502 0.10623 0.30813 0.0
H202 H 0.80502 0.01562 0.32032 0.0
H203 H 0.76635 0.95931 0.25945 0.0
H204 H 0.80735 0.05255 0.24725 0.0
H205 H 0.7964 0.19387 0.28877 0.0
H206 H 0.94356 0.03469 0.26618 0.0
H207 H 0.96778 0.95083 0.24317 0.0
H208 H 0.93574 0.06225 0.19249 0.0
H209 H 0.90544 0.14278 0.21492 0.0
C210 C 0.90344 0.30611 0.24354 0.0
C211 C 0.89545 0.29987 0.22272 0.0
C212 C 0.90756 0.34656 0.21027 0.0
C213 C 0.92707 0.4006 0.21843 0.0
C214 C 0.93356 0.40804 0.23931 0.0
C215 C 0.92203 0.3606 0.25188 0.0
C216 C 0.8933 0.25371 0.25584 0.0
C217 C 0.92338 0.20188 0.25002 0.0
C218 C 0.84744 0.2512 0.27015 0.0
C219 C 0.81259 0.30462 0.27612 0.0
C220 C 0.77847 0.33482 0.26189 0.0
C221 C 0.7478 0.38677 0.26737 0.0
C222 C 0.75043 0.40876 0.28719 0.0
C223 C 0.78341 0.378 0.30151 0.0
C224 C 0.8142 0.32615 0.29602 0.0
C225 C 0.8329 0.08593 0.27678 0.0
C226 C 0.83189 0.07458 0.29737 0.0
C227 C 0.80649 0.02279 0.30431 0.0
C228 C 0.78221 0.98101 0.29078 0.0
C229 C 0.78476 0.9912 0.2701 0.0
C230 C 0.8085 0.04412 0.26318 0.0
C231 C 0.8571 0.14292 0.26994 0.0
C232 C 0.83196 0.19595 0.27784 0.0
C233 C 0.90255 0.14614 0.2553 0.0
C234 C 0.92199 0.0951 0.24237 0.0
C235 C 0.94102 0.04074 0.25013 0.0
C236 C 0.95538 0.99323 0.23705 0.0
C237 C 0.95343 0.00059 0.21615 0.0
C238 C 0.93737 0.05565 0.20854 0.0
C239 C 0.92052 0.10178 0.22143 0.0
H240 H 0.72233 0.88648 0.71909 0.0
H241 H 0.704 0.97509 0.69938 0.0
H242 H 0.89043 0.01647 0.7012 0.0
H243 H 0.90954 0.92629 0.72018 0.0
H244 H 0.78143 0.78913 0.7117 0.0
H245 H 0.79724 0.94447 0.76269 0.0
H246 H 0.83245 0.02841 0.78346 0.0
H247 H 0.00998 0.95599 0.7817 0.0
H248 H 0.97512 0.87235 0.76077 0.0
H249 H 0.9536 0.69624 0.7663 0.0
H250 H 0.97098 0.61638 0.78996 0.0
H251 H 0.78237 0.58906 0.79473 0.0
H252 H 0.76464 0.66938 0.77097 0.0
H253 H 0.89446 0.79654 0.77547 0.0
H254 H 0.88218 0.63868 0.72883 0.0
H255 H 0.85228 0.54769 0.71102 0.0
H256 H 0.67578 0.61871 0.70383 0.0
H257 H 0.7049 0.7095 0.72235 0.0
C258 C 0.81725 0.89973 0.72122 0.0
C259 C 0.75941 0.9143 0.71519 0.0
C260 C 0.74886 0.96502 0.70411 0.0
C261 C 0.79591 0.00208 0.69891 0.0
C262 C 0.85366 0.98835 0.70517 0.0
C263 C 0.86437 0.93708 0.71602 0.0
C264 C 0.82803 0.84547 0.73293 0.0
C265 C 0.80537 0.79088 0.72582 0.0
C266 C 0.86126 0.84699 0.75089 0.0
C267 C 0.88368 0.90244 0.76021 0.0
C268 C 0.84401 0.94759 0.76625 0.0
C269 C 0.86394 0.99518 0.77811 0.0
C270 C 0.92357 -0.00221 0.78405 0.0
C271 C 0.96386 0.95443 0.77716 0.0
C272 C 0.94398 0.90692 0.7653 0.0
C273 C 0.85789 0.68837 0.76686 0.0
C274 C 0.91598 0.67277 0.77229 0.0
C275 C 0.9259 0.62756 0.78578 0.0
C276 C 0.87787 0.5977 0.79409 0.0
C277 C 0.81974 0.61219 0.78844 0.0
C278 C 0.80977 0.65742 0.77483 0.0
C279 C 0.84796 0.74061 0.75433 0.0
C280 C 0.8706 0.79474 0.76132 0.0
C281 C 0.81544 0.73814 0.73622 0.0
C282 C 0.79566 0.68091 0.7271 0.0
C283 C 0.83647 0.63416 0.72407 0.0
C284 C 0.81955 0.58224 0.71389 0.0
C285 C 0.76185 0.57661 0.70628 0.0
C286 C 0.72034 0.62226 0.7098 0.0
C287 C 0.73714 0.6741 0.72017 0.0
H288 H 0.37922 0.42597 0.00752 0.0
H289 H 0.28945 0.39861 0.98898 0.0
H290 H 0.37353 0.44764 0.9337 0.0
H291 H 0.46044 0.4819 0.95241 0.0
H292 H 0.53879 0.43005 0.97151 0.0
H293 H 0.43999 0.4915 0.04783 0.0
H294 H 0.3452 0.5174 0.0625 0.0
H295 H 0.29768 0.60712 0.00785 0.0
H296 H 0.39228 0.58092 0.99381 0.0
H297 H 0.61805 0.62359 0.02446 0.0
H298 H 0.70582 0.65415 0.04378 0.0
H299 H 0.77003 0.47361 0.04227 0.0
H300 H 0.68083 0.44219 0.02414 0.0
H301 H 0.53077 0.55658 0.03328 0.0
H302 H 0.67792 0.54607 0.98016 0.0
H303 H 0.76812 0.51478 0.96199 0.0
H304 H 0.71964 0.3316 0.96844 0.0
H305 H 0.62925 0.36268 0.98657 0.0
C306 C 0.42668 0.45739 0.98152 0.0
C307 C 0.37786 0.43295 0.99152 0.0
C308 C 0.32672 0.41663 0.98091 0.0
C309 C 0.32489 0.42059 0.95992 0.0
C310 C 0.37387 0.44413 0.94988 0.0
C311 C 0.4238 0.46306 0.96057 0.0
C312 C 0.48127 0.47632 0.99257 0.0
C313 C 0.53682 0.45796 0.98497 0.0
C314 C 0.47931 0.51249 0.01025 0.0
C315 C 0.42244 0.53241 0.01946 0.0
C316 C 0.40833 0.51604 0.03898 0.0
C317 C 0.35276 0.52977 0.04714 0.0
C318 C 0.30852 0.55914 0.03591 0.0
C319 C 0.32564 0.57978 0.01684 0.0
C320 C 0.38138 0.56591 0.00869 0.0
C321 C 0.64284 0.5306 0.02263 0.0
C322 C 0.65093 0.59048 0.02828 0.0
C323 C 0.70119 0.60808 0.03911 0.0
C324 C 0.74456 0.56621 0.04426 0.0
C325 C 0.73732 0.50664 0.03823 0.0
C326 C 0.68649 0.48884 0.0278 0.0
C327 C 0.58806 0.5117 0.01184 0.0
C328 C 0.53259 0.52939 0.01965 0.0
C329 C 0.59006 0.47537 0.99425 0.0
C330 C 0.64684 0.45668 0.98468 0.0
C331 C 0.6872 0.49917 0.978 0.0
C332 C 0.73871 0.4814 0.96776 0.0
C333 C 0.75061 0.42096 0.96413 0.0
C334 C 0.71143 0.37838 0.97138 0.0
C335 C 0.65973 0.39614 0.9815 0.0
H336 H 0.05136 0.39726 0.44083 0.0
H337 H 0.96763 0.42854 0.41979 0.0
H338 H 0.95294 0.59146 0.45475 0.0
H339 H 0.03528 0.55922 0.47617 0.0
H340 H 0.16117 0.48351 0.4495 0.0
H341 H 0.988 0.38668 0.48056 0.0
H342 H 0.89867 0.3768 0.50125 0.0
H343 H 0.98281 0.47688 0.54918 0.0
H344 H 0.06946 0.49134 0.52806 0.0
H345 H 0.22854 0.48129 0.5313 0.0
H346 H 0.3063 0.44927 0.55447 0.0
H347 H 0.36099 0.31293 0.51178 0.0
H348 H 0.28397 0.34614 0.48828 0.0
H349 H 0.13882 0.40595 0.518 0.0
H350 H 0.27286 0.53884 0.49522 0.0
H351 H 0.35273 0.59742 0.48071 0.0
H352 H 0.34483 0.48988 0.42646 0.0
H353 H 0.26505 0.43088 0.44094 0.0
C354 C 0.04864 0.47587 0.46004 0.0
C355 C 0.02972 0.43949 0.44398 0.0
C356 C 0.98236 0.45729 0.43202 0.0
C357 C 0.95463 0.51231 0.43573 0.0
C358 C 0.97404 0.54889 0.45171 0.0
C359 C 0.02062 0.53057 0.4639 0.0
C360 C 0.09959 0.45783 0.47225 0.0
C361 C 0.15647 0.46505 0.46431 0.0
C362 C 0.09309 0.43916 0.49216 0.0
C363 C 0.0356 0.43944 0.50281 0.0
C364 C 0.98631 0.4086 0.49516 0.0
C365 C 0.93563 0.40251 0.507 0.0
C366 C 0.93491 0.42521 0.52681 0.0
C367 C 0.98281 0.4587 0.53398 0.0
C368 C 0.03232 0.46651 0.52198 0.0
C369 C 0.25129 0.41641 0.50807 0.0
C370 C 0.25787 0.44509 0.52683 0.0
C371 C 0.30168 0.42662 0.54005 0.0
C372 C 0.3388 0.37868 0.53479 0.0
C373 C 0.3325 0.35003 0.516 0.0
C374 C 0.28919 0.36922 0.5026 0.0
C375 C 0.20041 0.43147 0.49529 0.0
C376 C 0.14363 0.42313 0.50301 0.0
C377 C 0.20705 0.45497 0.47603 0.0
C378 C 0.2637 0.47994 0.46923 0.0
C379 C 0.28986 0.52627 0.48052 0.0
C380 C 0.33481 0.56013 0.47221 0.0
C381 C 0.35403 0.54783 0.45257 0.0
C382 C 0.33024 0.49968 0.44167 0.0
C383 C 0.28519 0.46594 0.44994 0.0
C384 C 0.17725 0.66283 0.14741 0.0
C385 C 0.97486 0.56794 0.15704 0.0
C386 C 0.93306 0.63716 0.09815 0.0
Mg387 Mg 0.21362 0.78165 0.12352 0.0
Mg388 Mg 0.11316 0.88249 0.11342 0.0
O389 O 0.13661 0.80347 0.11053 0.0
Mg390 Mg 0.08473 0.74459 0.12337 0.0
O391 O 0.03748 0.68256 0.13608 0.0
Mg392 Mg 0.06668 0.61193 0.1204 0.0
Mg393 Mg 0.95582 0.69154 0.13977 0.0
C394 C -0.00392 0.82709 0.09617 0.0
O395 O 0.04751 0.81016 0.14745 0.0
O396 O 0.255 0.84992 0.10252 0.0
O397 O 0.95574 0.77736 0.1546 0.0
O398 O 0.20918 0.85866 0.14765 0.0
O399 O 0.18414 0.91848 0.09631 0.0
O400 O 0.12405 0.90833 0.1441 0.0
O401 O 0.11794 0.67663 0.09993 0.0
O402 O 0.2124 0.70767 0.0991 0.0
C403 C 0.17136 0.67196 0.0933 0.0
C404 C 0.2367 0.89751 0.0942 0.0
O405 O 0.00984 0.77553 0.10253 0.0
O406 O 0.0157 0.55698 0.14395 0.0
O407 O 0.02684 0.87358 0.10001 0.0
O408 O 0.98344 0.61083 0.09943 0.0
O409 O 0.9465 0.61711 0.15825 0.0
O410 O 0.91441 0.67391 0.11155 0.0
O411 O 0.16245 0.71625 0.14323 0.0
O412 O 0.14675 0.61839 0.14119 0.0
C413 C 0.17253 0.89931 0.15339 0.0
C414 C -0.00224 0.81497 0.15678 0.0
C415 C 0.68722 0.81769 0.39657 0.0
C416 C 0.76062 0.60052 0.38829 0.0
C417 C 0.66113 0.60077 0.33215 0.0
Mg418 Mg 0.56971 0.88294 0.37821 0.0
Mg419 Mg 0.44905 0.80901 0.36451 0.0
O420 O 0.5315 0.81477 0.36381 0.0
Mg421 Mg 0.58602 0.74974 0.37128 0.0
O422 O 0.64596 0.68861 0.37835 0.0
Mg423 Mg 0.71312 0.7156 0.3613 0.0
Mg424 Mg 0.62835 0.60791 0.37655 0.0
C425 C 0.48151 0.68732 0.34293 0.0
O426 O 0.52593 0.71106 0.39572 0.0
O427 O 0.50932 0.9429 0.35872 0.0
O428 O 0.5487 0.61312 0.39446 0.0
O429 O 0.49702 0.88365 0.40358 0.0
O430 O 0.43042 0.88875 0.34891 0.0
O431 O 0.42303 0.82231 0.39493 0.0
O432 O 0.64921 0.78217 0.34688 0.0
O433 O 0.63688 0.87938 0.3528 0.0
C434 C 0.66174 0.83618 0.34324 0.0
C435 C 0.46099 0.93638 0.34869 0.0
O436 O 0.5358 0.68991 0.34872 0.0
O437 O 0.77022 0.64806 0.37858 0.0
O438 O 0.44149 0.72506 0.34835 0.0
O439 O 0.69594 0.64431 0.33596 0.0
O440 O 0.70939 0.57664 0.38945 0.0
O441 O 0.62644 0.5819 0.34566 0.0
O442 O 0.63085 0.81361 0.39399 0.0
O443 O 0.72395 0.78503 0.38653 0.0
C444 C 0.44748 0.85833 0.40733 0.0
C445 C 0.5179 0.65737 0.40118 0.0
C446 C 0.68321 0.15202 0.64634 0.0
C447 C 0.4739 0.07178 0.65504 0.0
C448 C 0.43956 0.14459 0.59643 0.0
Mg449 Mg 0.73047 0.26541 0.62193 0.0
Mg450 Mg 0.64261 0.3755 0.60798 0.0
O451 O 0.65582 0.29403 0.60919 0.0
Mg452 Mg 0.5988 0.24043 0.62188 0.0
O453 O 0.54605 0.18238 0.63444 0.0
Mg454 Mg 0.57018 0.10958 0.61884 0.0
Mg455 Mg 0.46531 0.19745 0.63815 0.0
C456 C 0.51888 0.32889 0.59315 0.0
O457 O 0.56771 0.30831 0.64612 0.0
O458 O 0.77886 0.32465 0.5993 0.0
O459 O 0.47297 0.28343 0.65285 0.0
O460 O 0.73033 0.34338 0.64569 0.0
O461 O 0.71372 0.39215 0.58786 0.0
O462 O 0.6625 0.41121 0.63696 0.0
O463 O 0.62651 0.16968 0.59848 0.0
O464 O 0.72362 0.19078 0.59815 0.0
C465 C 0.67948 0.15962 0.59211 0.0
C466 C 0.7646 0.36677 0.58753 0.0
O467 O 0.52775 0.27773 0.6007 0.0
O468 O 0.51416 0.05849 0.64198 0.0
O469 O 0.55416 0.37276 0.59579 0.0
O470 O 0.48789 0.11475 0.59779 0.0
O471 O 0.44984 0.12319 0.6566 0.0
O472 O 0.42334 0.18268 0.60978 0.0
O473 O 0.67307 0.20633 0.64204 0.0
O474 O 0.64977 0.10999 0.63994 0.0
C475 C 0.70147 0.3918 0.64903 0.0
C476 C 0.51817 0.31713 0.65526 0.0
C477 C 0.1738 0.31852 0.90148 0.0
C478 C 0.26799 0.11316 0.89699 0.0
C479 C 0.17994 0.09746 0.83778 0.0
Mg480 Mg 0.0563 0.37516 0.88078 0.0
Mg481 Mg 0.94414 0.29212 0.86569 0.0
O482 O 0.02566 0.30415 0.86558 0.0
Mg483 Mg 0.08363 0.24247 0.87373 0.0
O484 O 0.14722 0.18632 0.88193 0.0
Mg485 Mg 0.21555 0.21928 0.86695 0.0
Mg486 Mg 0.14023 0.10398 0.88165 0.0
C487 C 0.98756 0.17474 0.84354 0.0
O488 O 0.02237 0.19597 0.89639 0.0
O489 O 0.99369 0.43076 0.86071 0.0
O490 O 0.05918 0.10267 0.89845 0.0
O491 O 0.98004 0.3726 0.90468 0.0
O492 O 0.92077 0.37001 0.8498 0.0
O493 O 0.91451 0.30256 0.89597 0.0
O494 O 0.14926 0.28079 0.85094 0.0
O495 O 0.12783 0.37662 0.85666 0.0
C496 C 0.15818 0.33585 0.84772 0.0
C497 C 0.947 0.42015 0.85018 0.0
O498 O 0.04122 0.18035 0.84988 0.0
O499 O 0.27502 0.15932 0.88637 0.0
O500 O 0.94472 0.20909 0.84905 0.0
O501 O 0.20885 0.14537 0.84146 0.0
O502 O 0.21979 0.08372 0.89723 0.0
O503 O 0.14727 0.07502 0.85122 0.0
O504 O 0.11879 0.3094 0.89758 0.0
O505 O 0.21516 0.28938 0.89238 0.0
C506 C 0.93274 0.34316 0.90806 0.0
C507 C 0.02082 0.14285 0.90314 0.0
C508 C 0.32109 0.94565 0.43025 0.0
C509 C 0.31571 0.91979 0.44937 0.0
C510 C 0.40107 0.85464 0.44169 0.0
C511 C 0.4086 0.88367 0.42326 0.0
N512 N 0.3836 0.96469 0.4017 0.0
N513 N 0.35674 0.85756 0.47492 0.0
C514 C 0.37144 0.93212 0.41824 0.0
C515 C 0.35768 0.87658 0.45561 0.0
N516 N 0.27606 0.97975 0.42284 0.0
N517 N 0.43413 0.80526 0.4456 0.0
H518 H 0.32606 0.87338 0.4855 0.0
H519 H 0.3893 0.83016 0.48088 0.0
H520 H 0.46758 0.78963 0.43598 0.0
H521 H 0.42606 0.77796 0.45768 0.0
H522 H 0.27474 0.99408 0.40811 0.0
H523 H 0.23681 0.9888 0.43063 0.0
H524 H 0.36217 0.00452 0.39861 0.0
H525 H 0.41865 0.95478 0.39199 0.0
C526 C 0.38242 0.97681 0.68949 0.0
C527 C 0.42782 0.94393 0.69894 0.0
C528 C 0.50317 0.00125 0.68176 0.0
C529 C 0.4579 0.02759 0.67005 0.0
N530 N 0.35438 0.0341 0.66078 0.0
N531 N 0.53159 0.91766 0.70173 0.0
C532 C 0.39738 0.01387 0.67341 0.0
C533 C 0.48835 0.95414 0.69448 0.0
N534 N 0.32522 0.97345 0.69617 0.0
N535 N 0.55971 0.02292 0.68151 0.0
H536 H 0.52274 0.88218 0.71101 0.0
H537 H 0.5757 0.91947 0.6971 0.0
H538 H 0.57217 0.05927 0.67313 0.0
H539 H 0.59272 0.009 0.69132 0.0
H540 H 0.29127 0.00093 0.69116 0.0
H541 H 0.31287 0.94727 0.70817 0.0
H542 H 0.31049 0.02001 0.66127 0.0
H543 H 0.36338 0.06071 0.6486 0.0
C544 C 0.33814 0.09324 0.94804 0.0
C545 C 0.39834 0.08606 0.94252 0.0
C546 C 0.37179 0.08691 0.9069 0.0
C547 C 0.3126 0.1007 0.91248 0.0
N548 N 0.24099 0.12753 0.93832 0.0
N549 N 0.47478 0.0802 0.9172 0.0
C550 C 0.29594 0.10622 0.93304 0.0
C551 C 0.41591 0.08394 0.92206 0.0
N552 N 0.32133 0.08764 0.96763 0.0
N553 N 0.38525 0.0749 0.88721 0.0
H554 H 0.50815 0.07564 0.92791 0.0
H555 H 0.49098 0.08524 0.90272 0.0
H556 H 0.3536 0.07627 0.8758 0.0
H557 H 0.42631 0.05886 0.88235 0.0
H558 H 0.27725 0.08509 0.97219 0.0
H559 H 0.35139 0.08056 0.97924 0.0
H560 H 0.22867 0.13778 0.95305 0.0
H561 H 0.20908 0.14055 0.92798 0.0
C562 C 0.19722 0.05129 0.17722 0.0
C563 C 0.22927 0.03736 0.19472 0.0
C564 C 0.21765 0.93114 0.18679 0.0
C565 C 0.19226 0.94582 0.16801 0.0
N566 N 0.17676 0.02141 0.14314 0.0
N567 N 0.2757 0.96465 0.21559 0.0
C568 C 0.18685 0.00633 0.16262 0.0
C569 C 0.24095 0.97734 0.19944 0.0
N570 N 0.17677 0.10772 0.17447 0.0
N571 N 0.21823 0.87358 0.19275 0.0
H572 H 0.2923 -0.00257 0.22532 0.0
H573 H 0.29124 0.92219 0.21858 0.0
H574 H 0.20149 0.83881 0.18392 0.0
H575 H 0.23057 0.86092 0.20708 0.0
H576 H 0.1482 0.11861 0.16281 0.0
H577 H 0.1832 0.14214 0.18497 0.0
H578 H 0.17814 0.06505 0.13834 0.0
H579 H 0.17501 0.9906 0.13128 0.0
C580 C 0.3454 0.13116 0.54905 0.0
C581 C 0.29956 0.09394 0.55613 0.0
C582 C 0.35209 0.0829 0.58792 0.0
C583 C 0.39454 0.12482 0.58173 0.0
N584 N 0.43022 0.19319 0.55739 0.0
N585 N 0.25285 0.04479 0.58376 0.0
C586 C 0.39083 0.15033 0.56255 0.0
C587 C 0.30117 0.07257 0.57597 0.0
N588 N 0.34648 0.14646 0.52933 0.0
N589 N 0.361 0.05205 0.6051 0.0
H590 H 0.21375 0.03769 0.57572 0.0
H591 H 0.24921 0.0341 0.59883 0.0
H592 H 0.39805 0.0581 0.61427 0.0
H593 H 0.33476 0.01648 0.60923 0.0
H594 H 0.38149 0.16888 0.52279 0.0
H595 H 0.31422 0.13277 0.51904 0.0
H596 H 0.42602 0.21851 0.54459 0.0
H597 H 0.46552 0.20584 0.56663 0.0
C598 C 0.17469 0.96135 0.80439 0.0
C599 C 0.23344 0.96195 0.79678 0.0
C600 C 0.24355 0.06616 0.8077 0.0
C601 C 0.19033 0.06108 0.81888 0.0
N602 N 0.09318 0.0178 0.81916 0.0
N603 N 0.32331 0.01503 0.78978 0.0
C604 C 0.15193 0.01287 0.81442 0.0
C605 C 0.26746 0.01474 0.79777 0.0
N606 N 0.14203 0.9105 0.80307 0.0
N607 N 0.26861 0.12051 0.80534 0.0
H608 H 0.34095 0.9792 0.78152 0.0
H609 H 0.35326 0.04942 0.79219 0.0
H610 H 0.24717 0.15968 0.80982 0.0
H611 H 0.30553 0.12775 0.79636 0.0
H612 H 0.10178 0.9049 0.81043 0.0
H613 H 0.15675 0.87217 0.79551 0.0
H614 H 0.06133 0.98664 0.81504 0.0
H615 H 0.07539 0.05685 0.82534 0.0
C616 C 0.36964 0.98915 0.08108 0.0
C617 C 0.36805 0.98413 0.05985 0.0
C618 C 0.27697 0.92627 0.06103 0.0
C619 C 0.27893 0.93087 0.08226 0.0
N620 N 0.31735 0.97704 0.1125 0.0
N621 N 0.31536 0.96052 0.02932 0.0
C622 C 0.32221 0.96577 0.0923 0.0
C623 C 0.31985 0.95686 0.04972 0.0
N624 N 0.4178 0.01376 0.09049 0.0
N625 N 0.23582 0.8906 0.05181 0.0
H626 H 0.34651 0.98261 0.0207 0.0
H627 H 0.27861 0.94625 0.02114 0.0
H628 H 0.20306 0.86832 0.05967 0.0
H629 H 0.23615 0.88005 0.03653 0.0
H630 H 0.42508 0.01204 0.10588 0.0
H631 H 0.45256 0.03326 0.08275 0.0
H632 H 0.3439 0.0072 0.12035 0.0
H633 H 0.28341 0.9598 0.12123 0.0
C634 C 0.40426 0.00558 0.30109 0.0
C635 C 0.40389 0.06656 0.30657 0.0
C636 C 0.43795 0.04278 0.34037 0.0
C637 C 0.4434 0.98227 0.33426 0.0
N638 N 0.44876 0.91 0.30685 0.0
N639 N 0.43305 0.14472 0.32985 0.0
C640 C 0.43139 0.96468 0.31405 0.0
C641 C 0.42439 0.08571 0.32578 0.0
N642 N 0.37743 0.9864 0.28375 0.0
N643 N 0.44361 0.05923 0.36013 0.0
H644 H 0.42476 0.17756 0.31943 0.0
H645 H 0.45381 0.16059 0.34284 0.0
H646 H 0.45374 0.02942 0.37133 0.0
H647 H 0.43331 0.10165 0.36564 0.0
H648 H 0.37131 0.94164 0.28014 0.0
H649 H 0.35614 0.01498 0.27395 0.0
H650 H 0.44607 0.89751 0.29173 0.0
H651 H 0.47229 0.87969 0.31541 0.0
C652 C 0.71693 0.10842 0.53943 0.0
C653 C 0.75479 0.06071 0.5444 0.0
C654 C 0.71104 0.06049 0.57795 0.0
C655 C 0.69016 0.11895 0.57483 0.0
N656 N 0.66551 0.19631 0.55172 0.0
N657 N 0.7503 0.96993 0.56241 0.0
C658 C 0.68978 0.14193 0.5552 0.0
C659 C 0.73989 0.02949 0.56188 0.0
N660 N 0.69946 0.11541 0.52008 0.0
N661 N 0.70628 0.03621 0.59642 0.0
H662 H 0.76776 0.94681 0.54996 0.0
H663 H 0.73644 0.94339 0.57408 0.0
H664 H 0.68272 0.05714 0.60804 0.0
H665 H 0.7271 -0.0033 0.60026 0.0
H666 H 0.66829 0.14711 0.51586 0.0
H667 H 0.7091 0.08312 0.50906 0.0
H668 H 0.67019 0.2174 0.53805 0.0
H669 H 0.64312 0.22108 0.5628 0.0
C670 C 0.68986 0.92281 0.29804 0.0
C671 C 0.75259 0.92807 0.29889 0.0
C672 C 0.75738 0.85404 0.32512 0.0
C673 C 0.69472 0.85155 0.32499 0.0
N674 N 0.60375 0.86494 0.30687 0.0
N675 N 0.84655 0.88505 0.30794 0.0
C676 C 0.66202 0.87915 0.30967 0.0
C677 C 0.78654 0.88851 0.31058 0.0
N678 N 0.6564 0.96248 0.28765 0.0
N679 N 0.78856 0.82681 0.33987 0.0
H680 H 0.86851 0.9098 0.2972 0.0
H681 H 0.87334 0.85391 0.31492 0.0
H682 H 0.76812 0.80019 0.35034 0.0
H683 H 0.83381 0.83283 0.34224 0.0
H684 H 0.61031 0.9647 0.2886 0.0
H685 H 0.67446 -0.00371 0.27926 0.0
H686 H 0.5786 0.87995 0.29487 0.0
H687 H 0.58269 0.8331 0.31545 0.0
C688 C 0.8457 0.85074 0.07238 0.0
C689 C 0.86493 0.8798 0.05489 0.0
C690 C 0.96686 0.84935 0.06147 0.0
C691 C 0.94935 0.83274 0.08094 0.0
N692 N 0.87277 0.81256 0.10492 0.0
N693 N 0.94369 0.90752 0.03245 0.0
C694 C 0.88872 0.83069 0.08629 0.0
C695 C 0.92536 0.87821 0.04906 0.0
N696 N 0.78644 0.84277 0.07558 0.0
N697 N 0.02334 0.83747 0.055 0.0
H698 H 0.91459 0.92899 0.02283 0.0
H699 H 0.98815 0.9139 0.0289 0.0
H700 H 0.05443 0.81562 0.06384 0.0
H701 H 0.0374 0.84367 0.04031 0.0
H702 H 0.76949 0.81782 0.08718 0.0
H703 H 0.75425 0.85694 0.06547 0.0
H704 H 0.82995 0.81647 0.11067 0.0
H705 H 0.90342 0.79567 0.11505 0.0
C706 C 0.92726 0.03366 0.81965 0.0
C707 C 0.94236 0.0423 0.79928 0.0
C708 C 0.994 0.13412 0.80842 0.0
C709 C 0.97408 0.12808 0.8285 0.0
N710 N 0.91444 0.07768 0.85281 0.0
N711 N 0.9843 0.1024 0.77352 0.0
C712 C 0.93853 0.07947 0.834 0.0
C713 C 0.97447 0.09287 0.79344 0.0
N714 N 0.90393 0.9808 0.82539 0.0
N715 N 0.03167 0.17908 0.80373 0.0
H716 H 0.97115 0.07263 0.76219 0.0
H717 H 0.00167 0.14151 0.76805 0.0
H718 H 0.04442 0.21215 0.814 0.0
H719 H 0.05335 0.18176 0.79 0.0
H720 H 0.89834 0.9694 0.84032 0.0
H721 H 0.89489 0.94595 0.81531 0.0
H722 H 0.88246 0.04711 0.8569 0.0
H723 H 0.92321 0.10937 0.86403 0.0
C724 C 0.78581 0.83566 0.44109 0.0
C725 C 0.79068 0.89832 0.44293 0.0
C726 C 0.7168 0.90984 0.4162 0.0
C727 C 0.71151 0.84738 0.41477 0.0
N728 N 0.72534 0.75272 0.43017 0.0
N729 N 0.74938 0.9948 0.43622 0.0
C730 C 0.74055 0.81107 0.42882 0.0
C731 C 0.75224 0.93541 0.43178 0.0
N732 N 0.82695 0.7994 0.4497 0.0
N733 N 0.69068 0.94441 0.40213 0.0
H734 H 0.77408 0.01451 0.44778 0.0
H735 H 0.71859 0.02324 0.42978 0.0
H736 H 0.66379 0.92687 0.39078 0.0
H737 H 0.69857 0.98967 0.40101 0.0
H738 H 0.8287 0.75376 0.44692 0.0
H739 H 0.86305 0.81506 0.45796 0.0
H740 H 0.74145 0.72535 0.44134 0.0
H741 H 0.69175 0.73366 0.42142 0.0
C742 C 0.02153 0.9228 0.20085 0.0
C743 C 0.96505 0.95069 0.20179 0.0
C744 C 0.93539 0.8975 0.17111 0.0
C745 C 0.98877 0.8641 0.17158 0.0
N746 N 0.07554 0.83475 0.1904 0.0
N747 N 0.86286 0.95228 0.19081 0.0
C748 C 0.03012 0.87386 0.1874 0.0
C749 C 0.92025 0.93426 0.18782 0.0
N750 N 0.06751 0.94391 0.21223 0.0
N751 N 0.90011 0.89581 0.15445 0.0
H752 H 0.8494 0.97705 0.20344 0.0
H753 H 0.82782 0.93708 0.18192 0.0
H754 H 0.91154 0.87182 0.14145 0.0
H755 H 0.86331 0.92347 0.15277 0.0
H756 H 0.11075 0.92787 0.21073 0.0
H757 H 0.06371 0.98092 0.22181 0.0
H758 H 0.10232 0.83653 0.20314 0.0
H759 H 0.08224 0.79687 0.18144 0.0
C760 C 0.91243 0.05191 0.93296 0.0
C761 C 0.89138 0.09475 0.94716 0.0
C762 C 0.9621 0.16609 0.93443 0.0
C763 C 0.97494 0.12716 0.91794 0.0
N764 N 0.95227 0.03566 0.89974 0.0
N765 N 0.88722 0.19785 0.95816 0.0
C766 C 0.94725 0.0707 0.91666 0.0
C767 C 0.91356 0.15343 0.94702 0.0
N768 N 0.90059 0.99311 0.9353 0.0
N769 N -0.00191 0.21293 0.93902 0.0
H770 H 0.84939 0.19164 0.96684 0.0
H771 H 0.89949 0.24214 0.95702 0.0
H772 H 0.03643 0.22247 0.93101 0.0
H773 H 0.99381 0.23725 0.95243 0.0
H774 H 0.91954 0.95973 0.92627 0.0
H775 H 0.87725 0.97739 0.94759 0.0
H776 H 0.92792 -0.0031 0.89755 0.0
H777 H 0.97558 0.04813 0.88705 0.0
C778 C 0.79714 0.05062 0.66537 0.0
C779 C 0.78378 0.05384 0.68618 0.0
C780 C 0.7212 0.14146 0.6812 0.0
C781 C 0.73097 0.1351 0.66027 0.0
N782 N 0.79304 0.09957 0.63337 0.0
N783 N 0.74901 0.11134 0.71472 0.0
C784 C 0.77461 0.09523 0.65276 0.0
C785 C 0.75137 0.10276 0.69438 0.0
N786 N 0.82743 0.00289 0.65744 0.0
N787 N 0.68006 0.18148 0.68828 0.0
H788 H 0.77093 0.08335 0.72459 0.0
H789 H 0.73003 0.14863 0.7217 0.0
H790 H 0.65925 0.21197 0.67904 0.0
H791 H 0.66512 0.18322 0.70306 0.0
H792 H 0.83216 0.99471 0.64208 0.0
H793 H 0.84481 0.96913 0.66613 0.0
H794 H 0.82788 0.07478 0.62716 0.0
H795 H 0.77708 0.13293 0.62421 0.0
C796 C 0.85713 0.39095 0.95748 0.0
C797 C 0.79911 0.40275 0.95018 0.0
C798 C 0.83339 0.38694 0.91568 0.0
C799 C 0.88922 0.36719 0.92294 0.0
N800 N 0.95656 0.35279 0.95042 0.0
N801 N 0.72973 0.40583 0.92262 0.0
C802 C 0.90202 0.37035 0.94379 0.0
C803 C 0.78663 0.39893 0.92937 0.0
N804 N 0.86912 0.40017 0.97741 0.0
N805 N 0.8261 0.39787 0.89572 0.0
H806 H 0.69412 0.41703 0.93199 0.0
H807 H 0.71694 0.39594 0.90791 0.0
H808 H 0.86012 0.39285 0.88521 0.0
H809 H 0.78859 0.41847 0.88989 0.0
H810 H 0.91133 0.3976 0.98363 0.0
H811 H 0.83674 0.41376 0.98775 0.0
H812 H 0.96753 0.34832 0.96547 0.0
H813 H 0.99069 0.33989 0.94068 0.0
C814 C -0.00065 0.46315 0.19998 0.0
C815 C 0.93984 0.44878 0.20457 0.0
C816 C 0.90431 0.50685 0.17652 0.0
C817 C 0.96341 0.5248 0.17279 0.0
N818 N 0.06486 0.53297 0.18448 0.0
N819 N 0.83518 0.46721 0.20048 0.0
C820 C 0.01046 0.50666 0.18549 0.0
C821 C 0.8921 0.47404 0.19386 0.0
N822 N 0.04526 0.43393 0.20891 0.0
N823 N 0.86027 0.51914 0.16312 0.0
H824 H 0.8249 0.44391 0.21336 0.0
H825 H 0.79899 0.48939 0.19439 0.0
H826 H 0.86765 0.54218 0.14998 0.0
H827 H 0.81769 0.50174 0.16405 0.0
H828 H 0.08926 0.43801 0.20435 0.0
H829 H 0.0391 0.40211 0.21981 0.0
H830 H 0.09841 0.52573 0.1949 0.0
H831 H 0.07472 0.56668 0.17459 0.0
C832 C 0.84746 0.53861 0.43189 0.0
C833 C 0.90439 0.5316 0.42312 0.0
C834 C 0.86432 0.56048 0.39062 0.0
C835 C 0.80964 0.57515 0.40007 0.0
N836 N 0.7537 0.59057 0.4308 0.0
N837 N 0.96988 0.54547 0.39492 0.0
C838 C 0.80224 0.56746 0.42101 0.0
C839 C 0.91373 0.54505 0.40266 0.0
N840 N 0.83617 0.51658 0.45043 0.0
N841 N 0.8686 0.55946 0.37016 0.0
H842 H 0.00747 0.53548 0.40335 0.0
H843 H 0.97965 0.56099 0.3807 0.0
H844 H 0.83285 0.56911 0.36082 0.0
H845 H 0.90578 0.54338 0.36245 0.0
H846 H 0.79374 0.51541 0.45662 0.0
H847 H 0.86797 0.49403 0.45875 0.0
H848 H 0.74959 0.5914 0.44638 0.0
H849 H 0.72048 0.61461 0.42369 0.0
C850 C 0.77083 0.52782 0.67242 0.0
C851 C 0.74774 0.52678 0.69222 0.0
C852 C 0.69626 0.4335 0.68429 0.0
C853 C 0.72198 0.43343 0.66488 0.0
N854 N 0.79275 0.47293 0.64165 0.0
N855 N 0.69475 0.47634 0.71811 0.0
C856 C 0.76224 0.47822 0.65936 0.0
C857 C 0.71217 0.47885 0.69851 0.0
N858 N 0.79853 0.57751 0.66576 0.0
N859 N 0.656 0.39085 0.68889 0.0
H860 H 0.70526 0.50922 0.72877 0.0
H861 H 0.67324 0.4402 0.72418 0.0
H862 H 0.64613 0.35552 0.67909 0.0
H863 H 0.63044 0.39173 0.7019 0.0
H864 H 0.81008 0.58354 0.65083 0.0
H865 H 0.80535 0.61533 0.67475 0.0
H866 H 0.82738 0.50079 0.63777 0.0
H867 H 0.78728 0.43737 0.63154 0.0
C868 C 0.79776 0.56082 0.07717 0.0
C869 C 0.79492 0.58356 0.05752 0.0
C870 C 0.88441 0.64247 0.06425 0.0
C871 C 0.88955 0.61564 0.08318 0.0
N872 N 0.85915 0.53993 0.10593 0.0
N873 N 0.84057 0.63834 0.03099 0.0
C874 C 0.84877 0.57173 0.08905 0.0
C875 C 0.83971 0.62234 0.05064 0.0
N876 N 0.75039 0.53145 0.08494 0.0
N877 N 0.92141 0.68779 0.05948 0.0
H878 H 0.809 0.62381 0.02058 0.0
H879 H 0.87514 0.66188 0.02463 0.0
H880 H 0.95607 0.7016 0.06882 0.0
H881 H 0.9155 0.71396 0.04696 0.0
H882 H 0.74767 0.51956 0.09992 0.0
H883 H 0.71106 0.52424 0.07705 0.0
H884 H 0.83412 0.50325 0.10983 0.0
H885 H 0.89634 0.54647 0.115 0.0
C886 C 0.6602 0.46046 0.3012 0.0
C887 C 0.71839 0.46397 0.29322 0.0
C888 C 0.72035 0.57049 0.30126 0.0
C889 C 0.66949 0.56329 0.31342 0.0
N890 N 0.5759 0.51372 0.31572 0.0
N891 N 0.8026 0.52257 0.28374 0.0
C892 C 0.63434 0.51191 0.31041 0.0
C893 C 0.74766 0.5194 0.2923 0.0
N894 N 0.63111 0.40743 0.30078 0.0
N895 N 0.74012 0.62617 0.29744 0.0
H896 H 0.82291 0.48643 0.27642 0.0
H897 H 0.82923 0.56008 0.28475 0.0
H898 H 0.71627 0.66397 0.30196 0.0
H899 H 0.77479 0.63484 0.28763 0.0
H900 H 0.59141 0.40006 0.30826 0.0
H901 H 0.64811 0.36958 0.29349 0.0
H902 H 0.54644 0.47892 0.31344 0.0
H903 H 0.55563 0.5532 0.32053 0.0
C904 C 0.87803 0.3499 0.54602 0.0
C905 C 0.88701 0.40994 0.54091 0.0
C906 C 0.81968 0.44232 0.56779 0.0
C907 C 0.80624 0.38215 0.57144 0.0
N908 N 0.80864 0.28004 0.55929 0.0
N909 N 0.8554 0.51225 0.54365 0.0
C910 C 0.83114 0.33621 0.55913 0.0
C911 C 0.85423 0.45592 0.55076 0.0
N912 N 0.91579 0.30615 0.53928 0.0
N913 N 0.80198 0.48618 0.581 0.0
H914 H 0.87918 0.52332 0.53085 0.0
H915 H 0.8281 0.54626 0.54923 0.0
H916 H 0.77869 0.47784 0.59415 0.0
H917 H 0.81566 0.53005 0.57994 0.0
H918 H 0.91376 0.26276 0.54431 0.0
H919 H 0.9529 0.3141 0.53044 0.0
H920 H 0.82225 0.2467 0.54918 0.0
H921 H 0.77174 0.26858 0.56776 0.0
C922 C 0.90586 0.49361 0.80154 0.0
C923 C 0.88943 0.55089 0.80872 0.0
C924 C 0.90353 0.52021 0.84343 0.0
C925 C 0.92633 0.46518 0.83609 0.0
N926 N 0.95815 0.40227 0.80819 0.0
N927 N 0.87732 0.62189 0.83606 0.0
C928 C 0.92959 0.45238 0.81514 0.0
C929 C 0.8893 0.5651 0.82958 0.0
N930 N 0.89816 0.47852 0.78172 0.0
N931 N 0.89385 0.52879 0.86354 0.0
H932 H 0.86499 0.6555 0.82637 0.0
H933 H 0.88324 0.6367 0.85083 0.0
H934 H 0.90394 0.49676 0.87408 0.0
H935 H 0.87154 0.56552 0.86964 0.0
H936 H 0.90326 0.43544 0.77598 0.0
H937 H 0.88148 0.50802 0.77125 0.0
H938 H 0.96775 0.39402 0.7931 0.0
H939 H 0.97724 0.37114 0.81759 0.0
C940 C 0.23043 0.54115 0.06261 0.0
C941 C 0.24851 0.57249 0.0455 0.0
C942 C 0.18861 0.65732 0.05653 0.0
C943 C 0.18487 0.63257 0.07587 0.0
N944 N 0.19338 0.54716 0.09676 0.0
N945 N 0.19876 0.63273 0.02133 0.0
C946 C 0.20163 0.5726 0.07862 0.0
C947 C 0.21469 0.62325 0.04069 0.0
N948 N 0.2386 0.4812 0.0629 0.0
N949 N 0.16833 0.71348 0.05333 0.0
H950 H 0.20489 0.59979 0.01025 0.0
H951 H 0.17065 0.66722 0.01717 0.0
H952 H 0.14622 0.73874 0.06435 0.0
H953 H 0.17604 0.73539 0.03997 0.0
H954 H 0.22261 0.45452 0.07421 0.0
H955 H 0.25664 0.45805 0.05055 0.0
H956 H 0.21123 0.50615 0.10048 0.0
H957 H 0.17004 0.56854 0.10832 0.0
C958 C 0.28898 0.39376 0.81838 0.0
C959 C 0.25691 0.4308 0.80523 0.0
C960 C 0.16519 0.38096 0.81449 0.0
C961 C 0.19507 0.35463 0.83069 0.0
N962 N 0.28586 0.33599 0.84854 0.0
N963 N 0.16196 0.46428 0.79251 0.0
C964 C 0.25739 0.36007 0.8326 0.0
C965 C 0.19437 0.42495 0.8034 0.0
N966 N 0.34944 0.39093 0.81724 0.0
N967 N 0.10829 0.36477 0.8101 0.0
H968 H 0.18059 0.49952 0.78495 0.0
H969 H 0.11574 0.46545 0.79258 0.0
H970 H 0.08614 0.33233 0.8181 0.0
H971 H 0.08594 0.37867 0.79734 0.0
H972 H 0.37494 0.361 0.82527 0.0
H973 H 0.37353 0.41459 0.80674 0.0
H974 H 0.33003 0.34451 0.8521 0.0
H975 H 0.26401 0.30997 0.85883 0.0
C976 C 0.44555 0.36984 0.54459 0.0
C977 C 0.38507 0.3596 0.54901 0.0
C978 C 0.41164 0.32763 0.58273 0.0
C979 C 0.47222 0.33527 0.57788 0.0
N980 N 0.54724 0.345 0.55225 0.0
N981 N 0.31163 0.31479 0.57009 0.0
C982 C 0.48934 0.35062 0.55819 0.0
C983 C 0.36838 0.33405 0.56744 0.0
N984 N 0.46123 0.40028 0.52791 0.0
N985 N 0.39526 0.31679 0.60203 0.0
H986 H 0.27911 0.31816 0.55903 0.0
H987 H 0.29847 0.29045 0.5824 0.0
H988 H 0.42589 0.31225 0.61363 0.0
H989 H 0.35129 0.31684 0.60683 0.0
H990 H 0.50439 0.41445 0.52527 0.0
H991 H 0.43052 0.4162 0.51762 0.0
H992 H 0.5609 0.35007 0.53746 0.0
H993 H 0.58059 0.3289 0.56156 0.0
C994 C 0.42142 0.5442 0.32034 0.0
C995 C 0.4271 0.55606 0.2996 0.0
C996 C 0.47476 0.65086 0.30749 0.0
C997 C 0.46482 0.64106 0.32818 0.0
N998 N 0.42532 0.58206 0.35467 0.0
N999 N 0.45252 0.62192 0.27303 0.0
C1000 C 0.43706 0.58876 0.33472 0.0
C1001 C 0.4521 0.60973 0.29304 0.0
N1002 N 0.40311 0.48953 0.32623 0.0
N1003 N 0.50673 0.69899 0.30175 0.0
H1004 H 0.43701 0.59226 0.26202 0.0
H1005 H 0.46418 0.66285 0.26736 0.0
H1006 H 0.52256 0.73107 0.31189 0.0
H1007 H 0.52126 0.70526 0.28714 0.0
H1008 H 0.40443 0.47566 0.341 0.0
H1009 H 0.39027 0.45598 0.31614 0.0
H1010 H 0.39885 0.54857 0.36024 0.0
H1011 H 0.43961 0.61215 0.36571 0.0
C1012 C 0.25696 0.33732 0.94866 0.0
C1013 C 0.27318 0.39811 0.94808 0.0
C1014 C 0.20675 0.41175 0.91931 0.0
C1015 C 0.19177 0.35109 0.91993 0.0
N1016 N 0.18396 0.26334 0.93941 0.0
N1017 N 0.24915 0.4966 0.93704 0.0
C1018 C 0.21014 0.31668 0.93624 0.0
C1019 C 0.24313 0.43661 0.93477 0.0
N1020 N 0.28935 0.29788 0.95951 0.0
N1021 N 0.18832 0.44473 0.90355 0.0
H1022 H 0.27422 0.51592 0.94859 0.0
H1023 H 0.22485 0.52697 0.92879 0.0
H1024 H 0.15943 0.42789 0.89263 0.0
H1025 H 0.20351 0.48739 0.90094 0.0
H1026 H 0.28251 0.25222 0.95862 0.0
H1027 H 0.32691 0.3095 0.96776 0.0
H1028 H 0.19123 0.23937 0.95237 0.0
H1029 H 0.15006 0.24699 0.9302 0.0
C1030 C 0.4825 0.38795 0.70561 0.0
C1031 C 0.48985 0.44879 0.70149 0.0
C1032 C 0.5221 0.42371 0.66724 0.0
C1033 C 0.5148 0.36289 0.6714 0.0
N1034 N 0.50804 0.28676 0.69618 0.0
N1035 N 0.53329 0.52355 0.68095 0.0
C1036 C 0.50141 0.34488 0.69115 0.0
C1037 C 0.51542 0.46628 0.68311 0.0
N1038 N 0.45461 0.37122 0.72277 0.0
N1039 N 0.53193 0.44107 0.64803 0.0
H1040 H 0.5293 0.55542 0.69249 0.0
H1041 H 0.55727 0.5377 0.66861 0.0
H1042 H 0.53619 0.41108 0.63598 0.0
H1043 H 0.53142 0.48526 0.64382 0.0
H1044 H 0.44184 0.32771 0.72532 0.0
H1045 H 0.44024 0.40132 0.73386 0.0
H1046 H 0.5043 0.27219 0.71084 0.0
H1047 H 0.52354 0.25417 0.68608 0.0
C1048 C 0.37362 0.62764 0.42822 0.0
C1049 C 0.3958 0.58781 0.44261 0.0
C1050 C 0.49709 0.6158 0.43446 0.0
C1051 C 0.47533 0.64492 0.4173 0.0
N1052 N 0.39306 0.681 0.39781 0.0
N1053 N 0.47819 0.54338 0.45992 0.0
C1054 C 0.41356 0.65282 0.41438 0.0
C1055 C 0.45746 0.58246 0.44615 0.0
N1056 N 0.31443 0.64114 0.42785 0.0
N1057 N 0.55567 0.62053 0.43951 0.0
H1058 H 0.45028 0.51897 0.46904 0.0
H1059 H 0.52287 0.53242 0.46145 0.0
H1060 H 0.58536 0.64592 0.43135 0.0
H1061 H 0.57342 0.60454 0.45277 0.0
H1062 H 0.29625 0.67407 0.419 0.0
H1063 H 0.28415 0.6231 0.43783 0.0
H1064 H 0.34865 0.68159 0.39353 0.0
H1065 H 0.42098 0.70121 0.38761 0.0
C1066 C 0.29652 0.56587 0.16497 0.0
C1067 C 0.28427 0.5683 0.18584 0.0
C1068 C 0.22124 0.656 0.18163 0.0
C1069 C 0.22808 0.64905 0.16058 0.0
N1070 N 0.2873 0.61409 0.1329 0.0
N1071 N 0.25132 0.62467 0.21484 0.0
C1072 C 0.27162 0.60985 0.15257 0.0
C1073 C 0.2524 0.61695 0.19445 0.0
N1074 N 0.32823 0.51936 0.15684 0.0
N1075 N 0.18188 0.69702 0.18914 0.0
H1076 H 0.27398 0.59629 0.22438 0.0
H1077 H 0.23245 0.66139 0.22218 0.0
H1078 H 0.16117 0.72782 0.18003 0.0
H1079 H 0.16892 0.69995 0.20412 0.0
H1080 H 0.33259 0.51127 0.14148 0.0
H1081 H 0.34799 0.4868 0.16551 0.0
H1082 H 0.32156 0.58972 0.12616 0.0
H1083 H 0.26929 0.64687 0.12392 0.0
loop_
_geom_bond_atom_site_label_1
_geom_bond_atom_site_label_2
_geom_bond_distance
_geom_bond_site_symmetry_2
_ccdc_geom_bond_type
H0 C19 0.949 . S
H1 C20 0.950 . S
H2 C22 0.950 1_545 S
H3 C23 0.969 . S
H4 C25 0.950 . S
H5 C28 0.950 1_565 S
H6 C29 0.950 . S
H7 C31 0.951 . S
H8 C32 0.949 . S
H9 C34 0.949 . S
H10 C35 0.950 . S
H11 C37 0.950 1_565 S
H12 C38 0.949 1_565 S
H13 C40 0.950 . S
H14 C43 0.950 1_545 S
H15 C44 0.962 . S
H16 C46 0.951 . S
H17 C47 0.949 . S
C18 C19 1.376 . S
C18 C23 1.373 1_565 S
C18 C24 1.483 . S
C19 H0 0.949 . S
C19 C18 1.376 . S
C19 C20 1.397 . S
C20 H1 0.950 . S
C20 C19 1.397 . S
C20 C21 1.391 . S
C21 C20 1.391 . S
C21 C22 1.405 . S
C22 H2 0.950 1_565 S
C22 C21 1.405 . S
C22 C23 1.362 1_565 S
C23 H3 0.969 . S
C23 C18 1.373 1_545 S
C23 C22 1.362 1_545 S
C24 C18 1.483 . S
C24 C25 1.382 1_655 S
C24 C26 1.403 1_565 S
C25 H4 0.950 . S
C25 C24 1.382 1_455 S
C25 C41 1.411 . S
C26 C24 1.403 1_545 S
C26 C27 1.489 . S
C26 C40 1.411 1_655 S
C27 C26 1.489 . S
C27 C28 1.383 . S
C27 C32 1.382 . S
C28 H5 0.950 1_545 S
C28 C27 1.383 . S
C28 C29 1.395 . S
C29 H6 0.950 . S
C29 C28 1.395 . S
C29 C30 1.288 . S
C30 C29 1.288 . S
C30 C31 1.392 . S
C31 H7 0.951 . S
C31 C30 1.392 . S
C31 C32 1.392 . S
C32 H8 0.949 . S
C32 C27 1.382 . S
C32 C31 1.392 . S
C33 C34 1.376 . S
C33 C38 1.387 . S
C33 C39 1.483 . S
C34 H9 0.949 . S
C34 C33 1.376 . S
C34 C35 1.397 . S
C35 H10 0.950 . S
C35 C34 1.397 . S
C35 C36 1.391 . S
C36 C35 1.391 . S
C36 C37 1.405 . S
C37 H11 0.950 1_545 S
C37 C36 1.405 . S
C37 C38 1.368 . S
C38 H12 0.949 1_545 S
C38 C33 1.387 . S
C38 C37 1.368 . S
C39 C33 1.483 . S
C39 C40 1.382 . S
C39 C41 1.403 1_545 S
C40 H13 0.950 . S
C40 C26 1.411 1_455 S
C40 C39 1.382 . S
C41 C25 1.411 . S
C41 C39 1.403 1_565 S
C41 C42 1.489 . S
C42 C41 1.489 . S
C42 C43 1.383 . S
C42 C47 1.382 . S
C43 H14 0.950 1_565 S
C43 C42 1.383 . S
C43 C44 1.395 . S
C44 H15 0.962 . S
C44 C43 1.395 . S
C44 C45 1.288 . S
C45 C44 1.288 . S
C45 C46 1.392 . S
C46 H16 0.951 . S
C46 C45 1.392 . S
C46 C47 1.392 . S
C47 H17 0.949 . S
C47 C42 1.382 . S
C47 C46 1.392 . S
H48 C67 0.949 . S
H49 C68 0.950 . S
H50 C70 0.950 . S
H51 C71 0.950 . S
H52 C73 0.950 . S
H53 C76 0.950 . S
H54 C77 0.950 . S
H55 C79 0.951 . S
H56 C80 0.949 . S
H57 C82 0.949 . S
H58 C83 0.950 . S
H59 C85 0.950 . S
H60 C86 0.950 . S
H61 C88 0.950 . S
H62 C91 0.950 . S
H63 C92 0.950 . S
H64 C94 0.951 . S
H65 C95 0.949 . S
C66 C67 1.376 . S
C66 C71 1.386 . S
C66 C72 1.483 . S
C67 H48 0.949 . S
C67 C66 1.376 . S
C67 C68 1.397 . S
C68 H49 0.950 . S
C68 C67 1.397 . S
C68 C69 1.391 . S
C69 C68 1.391 . S
C69 C70 1.405 . S
C70 H50 0.950 . S
C70 C69 1.405 . S
C70 C71 1.367 . S
C71 H51 0.950 . S
C71 C66 1.386 . S
C71 C70 1.367 . S
C72 C66 1.483 . S
C72 C73 1.382 . S
C72 C74 1.403 . S
C73 H52 0.950 . S
C73 C72 1.382 . S
C73 C89 1.411 . S
C74 C72 1.403 . S
C74 C75 1.489 . S
C74 C88 1.411 . S
C75 C74 1.489 . S
C75 C76 1.383 . S
C75 C80 1.382 . S
C76 H53 0.950 . S
C76 C75 1.383 . S
C76 C77 1.395 . S
C77 H54 0.950 . S
C77 C76 1.395 . S
C77 C78 1.288 . S
C78 C77 1.288 . S
C78 C79 1.392 . S
C79 H55 0.951 . S
C79 C78 1.392 . S
C79 C80 1.392 . S
C80 H56 0.949 . S
C80 C75 1.382 . S
C80 C79 1.392 . S
C81 C82 1.376 . S
C81 C86 1.386 . S
C81 C87 1.483 . S
C82 H57 0.949 . S
C82 C81 1.376 . S
C82 C83 1.397 . S
C83 H58 0.950 . S
C83 C82 1.397 . S
C83 C84 1.391 . S
C84 C83 1.391 . S
C84 C85 1.405 . S
C85 H59 0.950 . S
C85 C84 1.405 . S
C85 C86 1.367 . S
C86 H60 0.950 . S
C86 C81 1.386 . S
C86 C85 1.367 . S
C87 C81 1.483 . S
C87 C88 1.382 . S
C87 C89 1.403 . S
C88 H61 0.950 . S
C88 C74 1.411 . S
C88 C87 1.382 . S
C89 C73 1.411 . S
C89 C87 1.403 . S
C89 C90 1.489 . S
C90 C89 1.489 . S
C90 C91 1.383 . S
C90 C95 1.382 . S
C91 H62 0.950 . S
C91 C90 1.383 . S
C91 C92 1.395 . S
C92 H63 0.950 . S
C92 C91 1.395 . S
C92 C93 1.288 . S
C93 C92 1.288 . S
C93 C94 1.392 . S
C94 H64 0.951 . S
C94 C93 1.392 . S
C94 C95 1.392 . S
C95 H65 0.949 . S
C95 C90 1.382 . S
C95 C94 1.392 . S
H96 C115 0.949 1_545 S
H97 C116 0.950 . S
H98 C118 0.950 . S
H99 C119 0.950 1_556 S
H100 C121 0.950 . S
H101 C124 0.950 1_554 S
H102 C125 0.950 . S
H103 C127 0.951 . S
H104 C128 0.949 1_565 S
H105 C130 0.949 1_565 S
H106 C131 0.950 . S
H107 C133 0.950 . S
H108 C134 0.950 1_554 S
H109 C136 0.950 . S
H110 C139 0.950 1_556 S
H111 C140 0.950 . S
H112 C142 0.951 . S
H113 C143 0.949 1_545 S
C114 C115 1.376 . S
C114 C119 1.386 . S
C114 C120 1.483 . S
C115 H96 0.949 1_565 S
C115 C114 1.376 . S
C115 C116 1.397 . S
C116 H97 0.950 . S
C116 C115 1.397 . S
C116 C117 1.391 . S
C117 C116 1.391 . S
C117 C118 1.405 . S
C118 H98 0.950 . S
C118 C117 1.405 . S
C118 C119 1.367 . S
C119 H99 0.950 1_554 S
C119 C114 1.386 . S
C119 C118 1.367 . S
C120 C114 1.483 . S
C120 C121 1.382 . S
C120 C122 1.403 1_564 S
C121 H100 0.950 . S
C121 C120 1.382 . S
C121 C137 1.411 . S
C122 C120 1.403 1_546 S
C122 C123 1.489 . S
C122 C136 1.411 . S
C123 C122 1.489 . S
C123 C124 1.383 . S
C123 C128 1.382 . S
C124 H101 0.950 1_556 S
C124 C123 1.383 . S
C124 C125 1.395 . S
C125 H102 0.950 . S
C125 C124 1.395 . S
C125 C126 1.288 . S
C126 C125 1.288 . S
C126 C127 1.392 . S
C127 H103 0.951 . S
C127 C126 1.392 . S
C127 C128 1.392 . S
C128 H104 0.949 1_545 S
C128 C123 1.382 . S
C128 C127 1.392 . S
C129 C130 1.376 . S
C129 C134 1.386 . S
C129 C135 1.483 . S
C130 H105 0.949 1_545 S
C130 C129 1.376 . S
C130 C131 1.397 . S
C131 H106 0.950 . S
C131 C130 1.397 . S
C131 C132 1.391 . S
C132 C131 1.391 . S
C132 C133 1.405 . S
C133 H107 0.950 . S
C133 C132 1.405 . S
C133 C134 1.367 . S
C134 H108 0.950 1_556 S
C134 C129 1.386 . S
C134 C133 1.367 . S
C135 C129 1.483 . S
C135 C136 1.382 . S
C135 C137 1.403 1_546 S
C136 H109 0.950 . S
C136 C122 1.411 . S
C136 C135 1.382 . S
C137 C121 1.411 . S
C137 C135 1.403 1_564 S
C137 C138 1.489 . S
C138 C137 1.489 . S
C138 C139 1.383 . S
C138 C143 1.382 . S
C139 H110 0.950 1_554 S
C139 C138 1.383 . S
C139 C140 1.395 . S
C140 H111 0.950 . S
C140 C139 1.395 . S
C140 C141 1.288 . S
C141 C140 1.288 . S
C141 C142 1.392 . S
C142 H112 0.951 . S
C142 C141 1.392 . S
C142 C143 1.392 . S
C143 H113 0.949 1_565 S
C143 C138 1.382 . S
C143 C142 1.392 . S
H144 C163 0.949 . S
H145 C164 0.950 . S
H146 C166 0.950 . S
H147 C167 0.950 . S
H148 C169 0.950 . S
H149 C172 0.950 . S
H150 C173 0.950 . S
H151 C175 0.951 . S
H152 C176 0.949 . S
H153 C178 0.949 . S
H154 C179 0.950 . S
H155 C181 0.950 . S
H156 C182 0.950 . S
H157 C184 0.950 . S
H158 C187 0.950 . S
H159 C188 0.950 . S
H160 C190 0.951 . S
H161 C191 0.949 . S
C162 C163 1.376 . S
C162 C167 1.386 . S
C162 C168 1.483 . S
C163 H144 0.949 . S
C163 C162 1.376 . S
C163 C164 1.397 . S
C164 H145 0.950 . S
C164 C163 1.397 . S
C164 C165 1.391 . S
C165 C164 1.391 . S
C165 C166 1.405 . S
C166 H146 0.950 . S
C166 C165 1.405 . S
C166 C167 1.367 . S
C167 H147 0.950 . S
C167 C162 1.386 . S
C167 C166 1.367 . S
C168 C162 1.483 . S
C168 C169 1.382 . S
C168 C170 1.403 . S
C169 H148 0.950 . S
C169 C168 1.382 . S
C169 C185 1.411 . S
C170 C168 1.403 . S
C170 C171 1.489 . S
C170 C184 1.411 . S
C171 C170 1.489 . S
C171 C172 1.383 . S
C171 C176 1.382 . S
C172 H149 0.950 . S
C172 C171 1.383 . S
C172 C173 1.395 . S
C173 H150 0.950 . S
C173 C172 1.395 . S
C173 C174 1.288 . S
C174 C173 1.288 . S
C174 C175 1.392 . S
C175 H151 0.951 . S
C175 C174 1.392 . S
C175 C176 1.392 . S
C176 H152 0.949 . S
C176 C171 1.382 . S
C176 C175 1.392 . S
C177 C178 1.376 . S
C177 C182 1.386 . S
C177 C183 1.483 . S
C178 H153 0.949 . S
C178 C177 1.376 . S
C178 C179 1.397 . S
C179 H154 0.950 . S
C179 C178 1.397 . S
C179 C180 1.391 . S
C180 C179 1.391 . S
C180 C181 1.405 . S
C181 H155 0.950 . S
C181 C180 1.405 . S
C181 C182 1.367 . S
C182 H156 0.950 . S
C182 C177 1.386 . S
C182 C181 1.367 . S
C183 C177 1.483 . S
C183 C184 1.382 . S
C183 C185 1.403 . S
C184 H157 0.950 . S
C184 C170 1.411 . S
C184 C183 1.382 . S
C185 C169 1.411 . S
C185 C183 1.403 . S
C185 C186 1.489 . S
C186 C185 1.489 . S
C186 C187 1.383 . S
C186 C191 1.382 . S
C187 H158 0.950 . S
C187 C186 1.383 . S
C187 C188 1.395 . S
C188 H159 0.950 . S
C188 C187 1.395 . S
C188 C189 1.288 . S
C189 C188 1.288 . S
C189 C190 1.392 . S
C190 H160 0.951 . S
C190 C189 1.392 . S
C190 C191 1.392 . S
C191 H161 0.949 . S
C191 C186 1.382 . S
C191 C190 1.392 . S
H192 C211 0.949 . S
H193 C212 0.950 . S
H194 C214 0.950 . S
H195 C215 0.950 . S
H196 C217 0.950 . S
H197 C220 0.950 . S
H198 C221 0.950 . S
H199 C223 0.951 . S
H200 C224 0.949 . S
H201 C226 0.949 . S
H202 C227 0.950 1_565 S
H203 C229 0.950 . S
H204 C230 0.950 . S
H205 C232 0.950 . S
H206 C235 0.950 . S
H207 C236 0.950 . S
H208 C238 0.951 . S
H209 C239 0.949 . S
C210 C211 1.376 . S
C210 C215 1.386 . S
C210 C216 1.483 . S
C211 H192 0.949 . S
C211 C210 1.376 . S
C211 C212 1.397 . S
C212 H193 0.950 . S
C212 C211 1.397 . S
C212 C213 1.391 . S
C213 C212 1.391 . S
C213 C214 1.405 . S
C214 H194 0.950 . S
C214 C213 1.405 . S
C214 C215 1.367 . S
C215 H195 0.950 . S
C215 C210 1.386 . S
C215 C214 1.367 . S
C216 C210 1.483 . S
C216 C217 1.382 . S
C216 C218 1.403 . S
C217 H196 0.950 . S
C217 C216 1.382 . S
C217 C233 1.411 . S
C218 C216 1.403 . S
C218 C219 1.489 . S
C218 C232 1.411 . S
C219 C218 1.489 . S
C219 C220 1.383 . S
C219 C224 1.382 . S
C220 H197 0.950 . S
C220 C219 1.383 . S
C220 C221 1.395 . S
C221 H198 0.950 . S
C221 C220 1.395 . S
C221 C222 1.288 . S
C222 C221 1.288 . S
C222 C223 1.392 . S
C223 H199 0.951 . S
C223 C222 1.392 . S
C223 C224 1.392 . S
C224 H200 0.949 . S
C224 C219 1.382 . S
C224 C223 1.392 . S
C225 C226 1.376 . S
C225 C230 1.386 . S
C225 C231 1.483 . S
C226 H201 0.949 . S
C226 C225 1.376 . S
C226 C227 1.397 . S
C227 H202 0.950 1_545 S
C227 C226 1.397 . S
C227 C228 1.391 1_545 S
C228 C227 1.391 1_565 S
C228 C229 1.405 . S
C229 H203 0.950 . S
C229 C228 1.405 . S
C229 C230 1.367 1_565 S
C230 H204 0.950 . S
C230 C225 1.386 . S
C230 C229 1.367 1_545 S
C231 C225 1.483 . S
C231 C232 1.382 . S
C231 C233 1.403 . S
C232 H205 0.950 . S
C232 C218 1.411 . S
C232 C231 1.382 . S
C233 C217 1.411 . S
C233 C231 1.403 . S
C233 C234 1.489 . S
C234 C233 1.489 . S
C234 C235 1.383 . S
C234 C239 1.382 . S
C235 H206 0.950 . S
C235 C234 1.383 . S
C235 C236 1.395 1_545 S
C236 H207 0.950 . S
C236 C235 1.395 1_565 S
C236 C237 1.288 . S
C237 C236 1.288 . S
C237 C238 1.392 1_565 S
C238 H208 0.951 . S
C238 C237 1.392 1_545 S
C238 C239 1.392 . S
C239 H209 0.949 . S
C239 C234 1.382 . S
C239 C238 1.392 . S
H240 C259 0.949 . S
H241 C260 0.950 1_545 S
H242 C262 0.950 . S
H243 C263 0.950 . S
H244 C265 0.950 . S
H245 C268 0.950 . S
H246 C269 0.950 . S
H247 C271 0.951 1_455 S
H248 C272 0.949 . S
H249 C274 0.949 . S
H250 C275 0.959 . S
H251 C277 0.950 . S
H252 C278 0.950 . S
H253 C280 0.950 . S
H254 C283 0.950 . S
H255 C284 0.950 . S
H256 C286 0.951 . S
H257 C287 0.949 . S
C258 C259 1.376 . S
C258 C263 1.386 . S
C258 C264 1.483 . S
C259 H240 0.949 . S
C259 C258 1.376 . S
C259 C260 1.397 . S
C260 H241 0.950 1_565 S
C260 C259 1.397 . S
C260 C261 1.391 1_565 S
C261 C260 1.391 1_545 S
C261 C262 1.405 . S
C262 H242 0.950 . S
C262 C261 1.405 . S
C262 C263 1.367 1_545 S
C263 H243 0.950 . S
C263 C258 1.386 . S
C263 C262 1.367 1_565 S
C264 C258 1.483 . S
C264 C265 1.382 . S
C264 C266 1.403 . S
C265 H244 0.950 . S
C265 C264 1.382 . S
C265 C281 1.411 . S
C266 C264 1.403 . S
C266 C267 1.489 . S
C266 C280 1.411 . S
C267 C266 1.489 . S
C267 C268 1.383 . S
C267 C272 1.382 . S
C268 H245 0.950 . S
C268 C267 1.383 . S
C268 C269 1.395 1_565 S
C269 H246 0.950 . S
C269 C268 1.395 1_545 S
C269 C270 1.288 . S
C270 C269 1.288 . S
C270 C271 1.392 1_545 S
C271 H247 0.951 1_655 S
C271 C270 1.392 1_565 S
C271 C272 1.392 . S
C272 H248 0.949 . S
C272 C267 1.382 . S
C272 C271 1.392 . S
C273 C274 1.376 . S
C273 C278 1.386 . S
C273 C279 1.483 . S
C274 H249 0.949 . S
C274 C273 1.376 . S
C274 C275 1.397 . S
C275 H250 0.959 . S
C275 C274 1.397 . S
C275 C276 1.391 . S
C276 C275 1.391 . S
C276 C277 1.405 . S
C277 H251 0.950 . S
C277 C276 1.405 . S
C277 C278 1.367 . S
C278 H252 0.950 . S
C278 C273 1.386 . S
C278 C277 1.367 . S
C279 C273 1.483 . S
C279 C280 1.382 . S
C279 C281 1.403 . S
C280 H253 0.950 . S
C280 C266 1.411 . S
C280 C279 1.382 . S
C281 C265 1.411 . S
C281 C279 1.403 . S
C281 C282 1.489 . S
C282 C281 1.489 . S
C282 C283 1.383 . S
C282 C287 1.382 . S
C283 H254 0.950 . S
C283 C282 1.383 . S
C283 C284 1.395 . S
C284 H255 0.950 . S
C284 C283 1.395 . S
C284 C285 1.288 . S
C285 C284 1.288 . S
C285 C286 1.392 . S
C286 H256 0.951 . S
C286 C285 1.392 . S
C286 C287 1.392 . S
C287 H257 0.949 . S
C287 C282 1.382 . S
C287 C286 1.392 . S
H288 C307 0.949 . S
H289 C308 0.950 . S
H290 C310 0.950 . S
H291 C311 0.950 . S
H292 C313 0.950 . S
H293 C316 0.950 . S
H294 C317 0.950 . S
H295 C319 0.951 . S
H296 C320 0.949 . S
H297 C322 0.949 . S
H298 C323 0.950 . S
H299 C325 0.950 . S
H300 C326 0.950 . S
H301 C328 0.950 . S
H302 C331 0.950 . S
H303 C332 0.950 . S
H304 C334 0.951 . S
H305 C335 0.949 . S
C306 C307 1.376 . S
C306 C311 1.386 . S
C306 C312 1.483 . S
C307 H288 0.949 . S
C307 C306 1.376 . S
C307 C308 1.397 . S
C308 H289 0.950 . S
C308 C307 1.397 . S
C308 C309 1.391 . S
C309 C308 1.391 . S
C309 C310 1.405 . S
C310 H290 0.950 . S
C310 C309 1.405 . S
C310 C311 1.367 . S
C311 H291 0.950 . S
C311 C306 1.386 . S
C311 C310 1.367 . S
C312 C306 1.483 . S
C312 C313 1.382 . S
C312 C314 1.403 1_556 S
C313 H292 0.950 . S
C313 C312 1.382 . S
C313 C329 1.411 . S
C314 C312 1.403 1_554 S
C314 C315 1.489 . S
C314 C328 1.411 . S
C315 C314 1.489 . S
C315 C316 1.383 . S
C315 C320 1.382 . S
C316 H293 0.950 . S
C316 C315 1.383 . S
C316 C317 1.395 . S
C317 H294 0.950 . S
C317 C316 1.395 . S
C317 C318 1.288 . S
C318 C317 1.288 . S
C318 C319 1.392 . S
C319 H295 0.951 . S
C319 C318 1.392 . S
C319 C320 1.392 . S
C320 H296 0.949 . S
C320 C315 1.382 . S
C320 C319 1.392 . S
C321 C322 1.376 . S
C321 C326 1.386 . S
C321 C327 1.483 . S
C322 H297 0.949 . S
C322 C321 1.376 . S
C322 C323 1.397 . S
C323 H298 0.950 . S
C323 C322 1.397 . S
C323 C324 1.391 . S
C324 C323 1.391 . S
C324 C325 1.405 . S
C325 H299 0.950 . S
C325 C324 1.405 . S
C325 C326 1.367 . S
C326 H300 0.950 . S
C326 C321 1.386 . S
C326 C325 1.367 . S
C327 C321 1.483 . S
C327 C328 1.382 . S
C327 C329 1.403 1_554 S
C328 H301 0.950 . S
C328 C314 1.411 . S
C328 C327 1.382 . S
C329 C313 1.411 . S
C329 C327 1.403 1_556 S
C329 C330 1.489 . S
C330 C329 1.489 . S
C330 C331 1.383 . S
C330 C335 1.382 . S
C331 H302 0.950 . S
C331 C330 1.383 . S
C331 C332 1.395 . S
C332 H303 0.950 . S
C332 C331 1.395 . S
C332 C333 1.288 . S
C333 C332 1.288 . S
C333 C334 1.392 . S
C334 H304 0.951 . S
C334 C333 1.392 . S
C334 C335 1.392 . S
C335 H305 0.949 . S
C335 C330 1.382 . S
C335 C334 1.392 . S
H336 C355 0.949 . S
H337 C356 0.950 . S
H338 C358 0.950 . S
H339 C359 0.950 . S
H340 C361 0.950 . S
H341 C364 0.950 . S
H342 C365 0.950 . S
H343 C367 0.951 . S
H344 C368 0.949 . S
H345 C370 0.949 . S
H346 C371 0.950 . S
H347 C373 0.950 . S
H348 C374 0.950 . S
H349 C376 0.950 . S
H350 C379 0.950 . S
H351 C380 0.950 . S
H352 C382 0.951 . S
H353 C383 0.949 . S
C354 C355 1.376 . S
C354 C359 1.386 . S
C354 C360 1.483 . S
C355 H336 0.949 . S
C355 C354 1.376 . S
C355 C356 1.397 1_455 S
C356 H337 0.950 . S
C356 C355 1.397 1_655 S
C356 C357 1.391 . S
C357 C356 1.391 . S
C357 C358 1.405 . S
C358 H338 0.950 . S
C358 C357 1.405 . S
C358 C359 1.367 1_655 S
C359 H339 0.950 . S
C359 C354 1.386 . S
C359 C358 1.367 1_455 S
C360 C354 1.483 . S
C360 C361 1.382 . S
C360 C362 1.403 . S
C361 H340 0.950 . S
C361 C360 1.382 . S
C361 C377 1.411 . S
C362 C360 1.403 . S
C362 C363 1.489 . S
C362 C376 1.411 . S
C363 C362 1.489 . S
C363 C364 1.383 . S
C363 C368 1.382 . S
C364 H341 0.950 . S
C364 C363 1.383 . S
C364 C365 1.395 1_455 S
C365 H342 0.950 . S
C365 C364 1.395 1_655 S
C365 C366 1.288 . S
C366 C365 1.288 . S
C366 C367 1.392 1_655 S
C367 H343 0.951 . S
C367 C366 1.392 1_455 S
C367 C368 1.392 . S
C368 H344 0.949 . S
C368 C363 1.382 . S
C368 C367 1.392 . S
C369 C370 1.376 . S
C369 C374 1.386 . S
C369 C375 1.483 . S
C370 H345 0.949 . S
C370 C369 1.376 . S
C370 C371 1.397 . S
C371 H346 0.950 . S
C371 C370 1.397 . S
C371 C372 1.391 . S
C372 C371 1.391 . S
C372 C373 1.405 . S
C373 H347 0.950 . S
C373 C372 1.405 . S
C373 C374 1.367 . S
C374 H348 0.950 . S
C374 C369 1.386 . S
C374 C373 1.367 . S
C375 C369 1.483 . S
C375 C376 1.382 . S
C375 C377 1.403 . S
C376 H349 0.950 . S
C376 C362 1.411 . S
C376 C375 1.382 . S
C377 C361 1.411 . S
C377 C375 1.403 . S
C377 C378 1.489 . S
C378 C377 1.489 . S
C378 C379 1.383 . S
C378 C383 1.382 . S
C379 H350 0.950 . S
C379 C378 1.383 . S
C379 C380 1.395 . S
C380 H351 0.950 . S
C380 C379 1.395 . S
C380 C381 1.288 . S
C381 C380 1.288 . S
C381 C382 1.392 . S
C382 H352 0.951 . S
C382 C381 1.392 . S
C382 C383 1.392 . S
C383 H353 0.949 . S
C383 C378 1.382 . S
C383 C382 1.392 . S
C384 O411 1.312 . S
C384 O412 1.208 . S
C385 O406 1.331 1_655 S
C385 O409 1.244 . S
C386 O408 1.264 1_655 S
C386 O410 1.273 . S
Mg387 O389 1.936 . S
Mg387 O396 2.081 . S
Mg387 O398 2.023 . S
Mg387 O402 2.031 . S
Mg387 O411 2.291 . S
Mg388 O389 1.963 . S
Mg388 O399 1.942 . S
Mg388 O400 1.955 . S
Mg388 O407 1.986 . S
O389 Mg387 1.936 . S
O389 Mg388 1.963 . S
O389 Mg390 1.915 . S
Mg390 O389 1.915 . S
Mg390 O391 1.915 . S
Mg390 O395 2.013 . S
Mg390 O401 2.114 . S
Mg390 O405 2.013 . S
Mg390 O411 2.114 . S
O391 Mg390 1.915 . S
O391 Mg392 1.936 . S
O391 Mg393 1.963 1_455 S
Mg392 O391 1.936 . S
Mg392 O401 2.291 . S
Mg392 O406 2.081 . S
Mg392 O408 2.023 . S
Mg392 O412 2.031 . S
Mg393 O391 1.963 1_655 S
Mg393 O397 1.986 . S
Mg393 O409 1.942 . S
Mg393 O410 1.955 . S
C394 O405 1.191 . S
C394 O407 1.307 . S
O395 Mg390 2.013 . S
O395 C414 1.191 . S
O396 Mg387 2.081 . S
O396 C404 1.331 . S
O397 Mg393 1.986 . S
O397 C414 1.307 1_655 S
O398 Mg387 2.023 . S
O398 C413 1.264 . S
O399 Mg388 1.942 . S
O399 C404 1.244 . S
O400 Mg388 1.955 . S
O400 C413 1.273 . S
O401 Mg390 2.114 . S
O401 Mg392 2.291 . S
O401 C403 1.312 . S
O402 Mg387 2.031 . S
O402 C403 1.208 . S
C403 O401 1.312 . S
C403 O402 1.208 . S
C404 O396 1.331 . S
C404 O399 1.244 . S
O405 Mg390 2.013 . S
O405 C394 1.191 . S
O406 C385 1.331 1_455 S
O406 Mg392 2.081 . S
O407 Mg388 1.986 . S
O407 C394 1.307 . S
O408 C386 1.264 1_455 S
O408 Mg392 2.023 . S
O409 C385 1.244 . S
O409 Mg393 1.942 . S
O410 C386 1.273 . S
O410 Mg393 1.955 . S
O411 C384 1.312 . S
O411 Mg387 2.291 . S
O411 Mg390 2.114 . S
O412 C384 1.208 . S
O412 Mg392 2.031 . S
C413 O398 1.264 . S
C413 O400 1.273 . S
C414 O395 1.191 . S
C414 O397 1.307 1_455 S
C415 O442 1.312 . S
C415 O443 1.208 . S
C416 O437 1.331 . S
C416 O440 1.244 . S
C417 O439 1.264 . S
C417 O441 1.273 . S
Mg418 O420 1.936 . S
Mg418 O427 2.081 . S
Mg418 O429 2.023 . S
Mg418 O433 2.031 . S
Mg418 O442 2.291 . S
Mg419 O420 1.963 . S
Mg419 O430 1.942 . S
Mg419 O431 1.955 . S
Mg419 O438 1.986 . S
O420 Mg418 1.936 . S
O420 Mg419 1.963 . S
O420 Mg421 1.915 . S
Mg421 O420 1.915 . S
Mg421 O422 1.915 . S
Mg421 O426 2.013 . S
Mg421 O432 2.114 . S
Mg421 O436 2.013 . S
Mg421 O442 2.114 . S
O422 Mg421 1.915 . S
O422 Mg423 1.936 . S
O422 Mg424 1.963 . S
Mg423 O422 1.936 . S
Mg423 O432 2.291 . S
Mg423 O437 2.081 . S
Mg423 O439 2.023 . S
Mg423 O443 2.031 . S
Mg424 O422 1.963 . S
Mg424 O428 1.986 . S
Mg424 O440 1.942 . S
Mg424 O441 1.955 . S
C425 O436 1.191 . S
C425 O438 1.307 . S
O426 Mg421 2.013 . S
O426 C445 1.191 . S
O427 Mg418 2.081 . S
O427 C435 1.331 . S
O428 Mg424 1.986 . S
O428 C445 1.307 . S
O429 Mg418 2.023 . S
O429 C444 1.264 . S
O430 Mg419 1.942 . S
O430 C435 1.244 . S
O431 Mg419 1.955 . S
O431 C444 1.273 . S
O432 Mg421 2.114 . S
O432 Mg423 2.291 . S
O432 C434 1.312 . S
O433 Mg418 2.031 . S
O433 C434 1.208 . S
C434 O432 1.312 . S
C434 O433 1.208 . S
C435 O427 1.331 . S
C435 O430 1.244 . S
O436 Mg421 2.013 . S
O436 C425 1.191 . S
O437 C416 1.331 . S
O437 Mg423 2.081 . S
O438 Mg419 1.986 . S
O438 C425 1.307 . S
O439 C417 1.264 . S
O439 Mg423 2.023 . S
O440 C416 1.244 . S
O440 Mg424 1.942 . S
O441 C417 1.273 . S
O441 Mg424 1.955 . S
O442 C415 1.312 . S
O442 Mg418 2.291 . S
O442 Mg421 2.114 . S
O443 C415 1.208 . S
O443 Mg423 2.031 . S
C444 O429 1.264 . S
C444 O431 1.273 . S
C445 O426 1.191 . S
C445 O428 1.307 . S
C446 O473 1.312 . S
C446 O474 1.208 . S
C447 O468 1.331 . S
C447 O471 1.244 . S
C448 O470 1.264 . S
C448 O472 1.273 . S
Mg449 O451 1.936 . S
Mg449 O458 2.081 . S
Mg449 O460 2.023 . S
Mg449 O464 2.031 . S
Mg449 O473 2.291 . S
Mg450 O451 1.963 . S
Mg450 O461 1.942 . S
Mg450 O462 1.955 . S
Mg450 O469 1.986 . S
O451 Mg449 1.936 . S
O451 Mg450 1.963 . S
O451 Mg452 1.915 . S
Mg452 O451 1.915 . S
Mg452 O453 1.915 . S
Mg452 O457 2.013 . S
Mg452 O463 2.114 . S
Mg452 O467 2.013 . S
Mg452 O473 2.114 . S
O453 Mg452 1.915 . S
O453 Mg454 1.936 . S
O453 Mg455 1.963 . S
Mg454 O453 1.936 . S
Mg454 O463 2.291 . S
Mg454 O468 2.081 . S
Mg454 O470 2.023 . S
Mg454 O474 2.031 . S
Mg455 O453 1.963 . S
Mg455 O459 1.986 . S
Mg455 O471 1.942 . S
Mg455 O472 1.955 . S
C456 O467 1.191 . S
C456 O469 1.307 . S
O457 Mg452 2.013 . S
O457 C476 1.191 . S
O458 Mg449 2.081 . S
O458 C466 1.331 . S
O459 Mg455 1.986 . S
O459 C476 1.307 . S
O460 Mg449 2.023 . S
O460 C475 1.264 . S
O461 Mg450 1.942 . S
O461 C466 1.244 . S
O462 Mg450 1.955 . S
O462 C475 1.273 . S
O463 Mg452 2.114 . S
O463 Mg454 2.291 . S
O463 C465 1.312 . S
O464 Mg449 2.031 . S
O464 C465 1.208 . S
C465 O463 1.312 . S
C465 O464 1.208 . S
C466 O458 1.331 . S
C466 O461 1.244 . S
O467 Mg452 2.013 . S
O467 C456 1.191 . S
O468 C447 1.331 . S
O468 Mg454 2.081 . S
O469 Mg450 1.986 . S
O469 C456 1.307 . S
O470 C448 1.264 . S
O470 Mg454 2.023 . S
O471 C447 1.244 . S
O471 Mg455 1.942 . S
O472 C448 1.273 . S
O472 Mg455 1.955 . S
O473 C446 1.312 . S
O473 Mg449 2.291 . S
O473 Mg452 2.114 . S
O474 C446 1.208 . S
O474 Mg454 2.031 . S
C475 O460 1.264 . S
C475 O462 1.273 . S
C476 O457 1.191 . S
C476 O459 1.307 . S
C477 O504 1.312 . S
C477 O505 1.208 . S
C478 O499 1.331 . S
C478 O502 1.244 . S
C479 O501 1.264 . S
C479 O503 1.273 . S
Mg480 O482 1.936 . S
Mg480 O489 2.081 . S
Mg480 O491 2.023 . S
Mg480 O495 2.031 . S
Mg480 O504 2.291 . S
Mg481 O482 1.963 1_655 S
Mg481 O492 1.942 . S
Mg481 O493 1.955 . S
Mg481 O500 1.986 . S
O482 Mg480 1.936 . S
O482 Mg481 1.963 1_455 S
O482 Mg483 1.915 . S
Mg483 O482 1.915 . S
Mg483 O484 1.915 . S
Mg483 O488 2.013 . S
Mg483 O494 2.114 . S
Mg483 O498 2.013 . S
Mg483 O504 2.114 . S
O484 Mg483 1.915 . S
O484 Mg485 1.936 . S
O484 Mg486 1.963 . S
Mg485 O484 1.936 . S
Mg485 O494 2.291 . S
Mg485 O499 2.081 . S
Mg485 O501 2.023 . S
Mg485 O505 2.031 . S
Mg486 O484 1.963 . S
Mg486 O490 1.986 . S
Mg486 O502 1.942 . S
Mg486 O503 1.955 . S
C487 O498 1.191 . S
C487 O500 1.307 1_455 S
O488 Mg483 2.013 . S
O488 C507 1.191 . S
O489 Mg480 2.081 . S
O489 C497 1.331 1_455 S
O490 Mg486 1.986 . S
O490 C507 1.307 . S
O491 Mg480 2.023 . S
O491 C506 1.264 1_455 S
O492 Mg481 1.942 . S
O492 C497 1.244 . S
O493 Mg481 1.955 . S
O493 C506 1.273 . S
O494 Mg483 2.114 . S
O494 Mg485 2.291 . S
O494 C496 1.312 . S
O495 Mg480 2.031 . S
O495 C496 1.208 . S
C496 O494 1.312 . S
C496 O495 1.208 . S
C497 O489 1.331 1_655 S
C497 O492 1.244 . S
O498 Mg483 2.013 . S
O498 C487 1.191 . S
O499 C478 1.331 . S
O499 Mg485 2.081 . S
O500 Mg481 1.986 . S
O500 C487 1.307 1_655 S
O501 C479 1.264 . S
O501 Mg485 2.023 . S
O502 C478 1.244 . S
O502 Mg486 1.942 . S
O503 C479 1.273 . S
O503 Mg486 1.955 . S
O504 C477 1.312 . S
O504 Mg480 2.291 . S
O504 Mg483 2.114 . S
O505 C477 1.208 . S
O505 Mg485 2.031 . S
C506 O491 1.264 1_655 S
C506 O493 1.273 . S
C507 O488 1.191 . S
C507 O490 1.307 . S
C508 C509 1.363 . S
C508 C514 1.379 . S
C508 N516 1.356 . S
C509 C508 1.363 . S
C509 C515 1.363 . S
C510 C511 1.363 . S
C510 C515 1.379 . S
C510 N517 1.356 . S
C511 C510 1.363 . S
C511 C514 1.363 . S
N512 C514 1.356 . S
N512 H524 0.984 . S
N512 H525 0.985 . S
N513 C515 1.356 . S
N513 H518 0.984 . S
N513 H519 0.985 . S
C514 C508 1.379 . S
C514 C511 1.363 . S
C514 N512 1.356 . S
C515 C509 1.363 . S
C515 C510 1.379 . S
C515 N513 1.356 . S
N516 C508 1.356 . S
N516 H522 0.984 . S
N516 H523 0.984 . S
N517 C510 1.356 . S
N517 H520 0.984 . S
N517 H521 0.985 . S
H518 N513 0.984 . S
H519 N513 0.985 . S
H520 N517 0.984 . S
H521 N517 0.985 . S
H522 N516 0.984 . S
H523 N516 0.984 . S
H524 N512 0.984 . S
H525 N512 0.985 . S
C526 C527 1.363 . S
C526 C532 1.379 1_565 S
C526 N534 1.356 . S
C527 C526 1.363 . S
C527 C533 1.363 . S
C528 C529 1.363 . S
C528 C533 1.379 1_545 S
C528 N535 1.356 . S
C529 C528 1.363 . S
C529 C532 1.363 . S
N530 C532 1.356 . S
N530 H542 0.984 . S
N530 H543 0.985 . S
N531 C533 1.356 . S
N531 H536 0.984 . S
N531 H537 0.985 . S
C532 C526 1.379 1_545 S
C532 C529 1.363 . S
C532 N530 1.356 . S
C533 C527 1.363 . S
C533 C528 1.379 1_565 S
C533 N531 1.356 . S
N534 C526 1.356 . S
N534 H540 0.984 . S
N534 H541 0.984 . S
N535 C528 1.356 . S
N535 H538 0.984 . S
N535 H539 0.985 . S
H536 N531 0.984 . S
H537 N531 0.985 . S
H538 N535 0.984 . S
H539 N535 0.985 . S
H540 N534 0.984 . S
H541 N534 0.984 . S
H542 N530 0.984 . S
H543 N530 0.985 . S
C544 C545 1.363 . S
C544 C550 1.379 . S
C544 N552 1.356 . S
C545 C544 1.363 . S
C545 C551 1.363 . S
C546 C547 1.363 . S
C546 C551 1.379 . S
C546 N553 1.356 . S
C547 C546 1.363 . S
C547 C550 1.363 . S
N548 C550 1.356 . S
N548 H560 0.984 . S
N548 H561 0.985 . S
N549 C551 1.356 . S
N549 H554 0.984 . S
N549 H555 0.985 . S
C550 C544 1.379 . S
C550 C547 1.363 . S
C550 N548 1.356 . S
C551 C545 1.363 . S
C551 C546 1.379 . S
C551 N549 1.356 . S
N552 C544 1.356 . S
N552 H558 0.984 . S
N552 H559 0.984 . S
N553 C546 1.356 . S
N553 H556 0.984 . S
N553 H557 0.985 . S
H554 N549 0.984 . S
H555 N549 0.985 . S
H556 N553 0.984 . S
H557 N553 0.985 . S
H558 N552 0.984 . S
H559 N552 0.984 . S
H560 N548 0.984 . S
H561 N548 0.985 . S
C562 C563 1.363 . S
C562 C568 1.379 1_545 S
C562 N570 1.356 . S
C563 C562 1.363 . S
C563 C569 1.363 1_545 S
C564 C565 1.363 . S
C564 C569 1.379 . S
C564 N571 1.356 . S
C565 C564 1.363 . S
C565 C568 1.363 . S
N566 C568 1.356 . S
N566 H578 0.984 1_565 S
N566 H579 0.985 . S
N567 C569 1.356 1_545 S
N567 H572 0.984 . S
N567 H573 0.985 1_545 S
C568 C562 1.379 1_565 S
C568 C565 1.363 . S
C568 N566 1.356 . S
C569 C563 1.363 1_565 S
C569 C564 1.379 . S
C569 N567 1.356 1_565 S
N570 C562 1.356 . S
N570 H576 0.984 . S
N570 H577 0.984 . S
N571 C564 1.356 . S
N571 H574 0.984 . S
N571 H575 0.985 . S
H572 N567 0.984 . S
H573 N567 0.985 1_565 S
H574 N571 0.984 . S
H575 N571 0.985 . S
H576 N570 0.984 . S
H577 N570 0.984 . S
H578 N566 0.984 1_545 S
H579 N566 0.985 . S
C580 C581 1.363 . S
C580 C586 1.379 . S
C580 N588 1.356 . S
C581 C580 1.363 . S
C581 C587 1.363 . S
C582 C583 1.363 . S
C582 C587 1.379 . S
C582 N589 1.356 . S
C583 C582 1.363 . S
C583 C586 1.363 . S
N584 C586 1.356 . S
N584 H596 0.984 . S
N584 H597 0.985 . S
N585 C587 1.356 . S
N585 H590 0.984 . S
N585 H591 0.985 1_545 S
C586 C580 1.379 . S
C586 C583 1.363 . S
C586 N584 1.356 . S
C587 C581 1.363 . S
C587 C582 1.379 . S
C587 N585 1.356 . S
N588 C580 1.356 . S
N588 H594 0.984 . S
N588 H595 0.984 . S
N589 C582 1.356 . S
N589 H592 0.984 . S
N589 H593 0.985 . S
H590 N585 0.984 . S
H591 N585 0.985 1_565 S
H592 N589 0.984 . S
H593 N589 0.985 . S
H594 N588 0.984 . S
H595 N588 0.984 . S
H596 N584 0.984 . S
H597 N584 0.985 . S
C598 C599 1.363 . S
C598 C604 1.379 1_565 S
C598 N606 1.356 . S
C599 C598 1.363 . S
C599 C605 1.363 1_565 S
C600 C601 1.363 . S
C600 C605 1.379 . S
C600 N607 1.356 . S
C601 C600 1.363 . S
C601 C604 1.363 . S
N602 C604 1.356 . S
N602 H614 0.984 . S
N602 H615 0.985 . S
N603 C605 1.356 1_565 S
N603 H608 0.984 . S
N603 H609 0.985 1_565 S
C604 C598 1.379 1_545 S
C604 C601 1.363 . S
C604 N602 1.356 . S
C605 C599 1.363 1_545 S
C605 C600 1.379 . S
C605 N603 1.356 1_545 S
N606 C598 1.356 . S
N606 H612 0.984 . S
N606 H613 0.984 . S
N607 C600 1.356 . S
N607 H610 0.984 . S
N607 H611 0.985 . S
H608 N603 0.984 . S
H609 N603 0.985 1_545 S
H610 N607 0.984 . S
H611 N607 0.985 . S
H612 N606 0.984 . S
H613 N606 0.984 . S
H614 N602 0.984 . S
H615 N602 0.985 . S
C616 C617 1.363 . S
C616 C622 1.379 . S
C616 N624 1.356 . S
C617 C616 1.363 . S
C617 C623 1.363 . S
C618 C619 1.363 . S
C618 C623 1.379 . S
C618 N625 1.356 . S
C619 C618 1.363 . S
C619 C622 1.363 . S
N620 C622 1.356 . S
N620 H632 0.984 . S
N620 H633 0.985 . S
N621 C623 1.356 . S
N621 H626 0.984 . S
N621 H627 0.985 . S
C622 C616 1.379 . S
C622 C619 1.363 . S
C622 N620 1.356 . S
C623 C617 1.363 . S
C623 C618 1.379 . S
C623 N621 1.356 . S
N624 C616 1.356 . S
N624 H630 0.984 . S
N624 H631 0.984 . S
N625 C618 1.356 . S
N625 H628 0.984 . S
N625 H629 0.985 . S
H626 N621 0.984 . S
H627 N621 0.985 . S
H628 N625 0.984 . S
H629 N625 0.985 . S
H630 N624 0.984 . S
H631 N624 0.984 . S
H632 N620 0.984 . S
H633 N620 0.985 . S
C634 C635 1.363 1_565 S
C634 C640 1.379 . S
C634 N642 1.356 1_565 S
C635 C634 1.363 1_545 S
C635 C641 1.363 . S
C636 C637 1.363 . S
C636 C641 1.379 1_565 S
C636 N643 1.356 . S
C637 C636 1.363 . S
C637 C640 1.363 . S
N638 C640 1.356 . S
N638 H650 0.984 . S
N638 H651 0.985 . S
N639 C641 1.356 . S
N639 H644 0.984 . S
N639 H645 0.985 . S
C640 C634 1.379 . S
C640 C637 1.363 . S
C640 N638 1.356 . S
C641 C635 1.363 . S
C641 C636 1.379 1_545 S
C641 N639 1.356 . S
N642 C634 1.356 1_545 S
N642 H648 0.984 1_545 S
N642 H649 0.984 . S
N643 C636 1.356 . S
N643 H646 0.984 . S
N643 H647 0.985 1_565 S
H644 N639 0.984 . S
H645 N639 0.985 . S
H646 N643 0.984 . S
H647 N643 0.985 1_545 S
H648 N642 0.984 1_565 S
H649 N642 0.984 . S
H650 N638 0.984 . S
H651 N638 0.985 . S
C652 C653 1.363 . S
C652 C658 1.379 . S
C652 N660 1.356 . S
C653 C652 1.363 . S
C653 C659 1.363 . S
C654 C655 1.363 . S
C654 C659 1.379 . S
C654 N661 1.356 . S
C655 C654 1.363 . S
C655 C658 1.363 . S
N656 C658 1.356 . S
N656 H668 0.984 . S
N656 H669 0.985 . S
N657 C659 1.356 . S
N657 H662 0.984 . S
N657 H663 0.985 1_545 S
C658 C652 1.379 . S
C658 C655 1.363 . S
C658 N656 1.356 . S
C659 C653 1.363 . S
C659 C654 1.379 . S
C659 N657 1.356 . S
N660 C652 1.356 . S
N660 H666 0.984 . S
N660 H667 0.984 . S
N661 C654 1.356 . S
N661 H664 0.984 . S
N661 H665 0.985 . S
H662 N657 0.984 . S
H663 N657 0.985 1_565 S
H664 N661 0.984 . S
H665 N661 0.985 . S
H666 N660 0.984 . S
H667 N660 0.984 . S
H668 N656 0.984 . S
H669 N656 0.985 . S
C670 C671 1.363 . S
C670 C676 1.379 . S
C670 N678 1.356 . S
C671 C670 1.363 . S
C671 C677 1.363 . S
C672 C673 1.363 . S
C672 C677 1.379 . S
C672 N679 1.356 . S
C673 C672 1.363 . S
C673 C676 1.363 . S
N674 C676 1.356 . S
N674 H686 0.984 . S
N674 H687 0.985 . S
N675 C677 1.356 . S
N675 H680 0.984 . S
N675 H681 0.985 . S
C676 C670 1.379 . S
C676 C673 1.363 . S
C676 N674 1.356 . S
C677 C671 1.363 . S
C677 C672 1.379 . S
C677 N675 1.356 . S
N678 C670 1.356 . S
N678 H684 0.984 . S
N678 H685 0.984 . S
N679 C672 1.356 . S
N679 H682 0.984 . S
N679 H683 0.985 . S
H680 N675 0.984 . S
H681 N675 0.985 . S
H682 N679 0.984 . S
H683 N679 0.985 . S
H684 N678 0.984 . S
H685 N678 0.984 . S
H686 N674 0.984 . S
H687 N674 0.985 . S
C688 C689 1.363 . S
C688 C694 1.379 . S
C688 N696 1.356 . S
C689 C688 1.363 . S
C689 C695 1.363 . S
C690 C691 1.361 1_455 S
C690 C695 1.379 1_455 S
C690 N697 1.356 . S
C691 C690 1.361 1_655 S
C691 C694 1.374 . S
N692 C694 1.356 . S
N692 H704 0.984 . S
N692 H705 0.985 . S
N693 C695 1.356 . S
N693 H698 0.984 . S
N693 H699 0.985 1_565 S
C694 C688 1.379 . S
C694 C691 1.374 . S
C694 N692 1.356 . S
C695 C689 1.363 . S
C695 C690 1.379 1_655 S
C695 N693 1.356 . S
N696 C688 1.356 . S
N696 H702 0.984 . S
N696 H703 0.984 . S
N697 C690 1.356 . S
N697 H700 0.984 . S
N697 H701 0.985 . S
H698 N693 0.984 . S
H699 N693 0.985 1_545 S
H700 N697 0.984 . S
H701 N697 0.985 . S
H702 N696 0.984 . S
H703 N696 0.984 . S
H704 N692 0.984 . S
H705 N692 0.985 . S
C706 C707 1.363 . S
C706 C712 1.379 . S
C706 N714 1.356 . S
C707 C706 1.363 . S
C707 C713 1.363 . S
C708 C709 1.363 . S
C708 C713 1.379 . S
C708 N715 1.356 1_655 S
C709 C708 1.363 . S
C709 C712 1.363 . S
N710 C712 1.356 . S
N710 H722 0.984 . S
N710 H723 0.985 . S
N711 C713 1.356 . S
N711 H716 0.984 . S
N711 H717 0.985 . S
C712 C706 1.379 . S
C712 C709 1.363 . S
C712 N710 1.356 . S
C713 C707 1.363 . S
C713 C708 1.379 . S
C713 N711 1.356 . S
N714 C706 1.356 . S
N714 H720 0.984 1_545 S
N714 H721 0.984 1_545 S
N715 C708 1.356 1_455 S
N715 H718 0.984 . S
N715 H719 0.985 . S
H716 N711 0.984 . S
H717 N711 0.985 . S
H718 N715 0.984 . S
H719 N715 0.985 . S
H720 N714 0.984 1_565 S
H721 N714 0.984 1_565 S
H722 N710 0.984 . S
H723 N710 0.985 . S
C724 C725 1.363 . S
C724 C730 1.379 . S
C724 N732 1.356 . S
C725 C724 1.363 . S
C725 C731 1.363 . S
C726 C727 1.363 . S
C726 C731 1.379 . S
C726 N733 1.356 . S
C727 C726 1.363 . S
C727 C730 1.363 . S
N728 C730 1.356 . S
N728 H740 0.984 . S
N728 H741 0.985 . S
N729 C731 1.356 . S
N729 H734 0.984 . S
N729 H735 0.985 1_565 S
C730 C724 1.379 . S
C730 C727 1.363 . S
C730 N728 1.356 . S
C731 C725 1.363 . S
C731 C726 1.379 . S
C731 N729 1.356 . S
N732 C724 1.356 . S
N732 H738 0.984 . S
N732 H739 0.984 . S
N733 C726 1.356 . S
N733 H736 0.984 . S
N733 H737 0.985 . S
H734 N729 0.984 . S
H735 N729 0.985 1_545 S
H736 N733 0.984 . S
H737 N733 0.985 . S
H738 N732 0.984 . S
H739 N732 0.984 . S
H740 N728 0.984 . S
H741 N728 0.985 . S
C742 C743 1.363 . S
C742 C748 1.379 1_655 S
C742 N750 1.356 1_655 S
C743 C742 1.363 . S
C743 C749 1.363 . S
C744 C745 1.363 . S
C744 C749 1.379 . S
C744 N751 1.356 . S
C745 C744 1.363 . S
C745 C748 1.363 1_655 S
N746 C748 1.356 . S
N746 H758 0.984 . S
N746 H759 0.985 . S
N747 C749 1.356 . S
N747 H752 0.984 . S
N747 H753 0.985 . S
C748 C742 1.379 1_455 S
C748 C745 1.363 1_455 S
C748 N746 1.356 . S
C749 C743 1.363 . S
C749 C744 1.379 . S
C749 N747 1.356 . S
N750 C742 1.356 1_455 S
N750 H756 0.984 . S
N750 H757 0.984 1_455 S
N751 C744 1.356 . S
N751 H754 0.984 . S
N751 H755 0.985 . S
H752 N747 0.984 . S
H753 N747 0.985 . S
H754 N751 0.984 . S
H755 N751 0.985 . S
H756 N750 0.984 . S
H757 N750 0.984 1_655 S
H758 N746 0.984 . S
H759 N746 0.985 . S
C760 C761 1.363 . S
C760 C766 1.379 . S
C760 N768 1.356 . S
C761 C760 1.363 . S
C761 C767 1.363 . S
C762 C763 1.363 . S
C762 C767 1.379 . S
C762 N769 1.356 . S
C763 C762 1.363 . S
C763 C766 1.363 . S
N764 C766 1.356 1_455 S
N764 H776 0.984 . S
N764 H777 0.985 . S
N765 C767 1.356 . S
N765 H770 0.984 . S
N765 H771 0.985 . S
C766 C760 1.379 . S
C766 C763 1.363 . S
C766 N764 1.356 1_655 S
C767 C761 1.363 . S
C767 C762 1.379 . S
C767 N765 1.356 . S
N768 C760 1.356 . S
N768 H774 0.984 1_545 S
N768 H775 0.984 . S
N769 C762 1.356 . S
N769 H772 0.984 1_655 S
N769 H773 0.985 . S
H770 N765 0.984 . S
H771 N765 0.985 . S
H772 N769 0.984 1_455 S
H773 N769 0.985 . S
H774 N768 0.984 1_565 S
H775 N768 0.984 . S
H776 N764 0.984 . S
H777 N764 0.985 . S
C778 C779 1.363 . S
C778 C784 1.379 . S
C778 N786 1.356 . S
C779 C778 1.363 . S
C779 C785 1.363 . S
C780 C781 1.363 . S
C780 C785 1.379 . S
C780 N787 1.356 . S
C781 C780 1.363 . S
C781 C784 1.363 . S
N782 C784 1.356 . S
N782 H794 0.984 . S
N782 H795 0.985 . S
N783 C785 1.356 . S
N783 H788 0.984 . S
N783 H789 0.985 . S
C784 C778 1.379 . S
C784 C781 1.363 . S
C784 N782 1.356 . S
C785 C779 1.363 . S
C785 C780 1.379 . S
C785 N783 1.356 . S
N786 C778 1.356 . S
N786 H792 0.984 . S
N786 H793 0.984 . S
N787 C780 1.356 . S
N787 H790 0.984 . S
N787 H791 0.985 . S
H788 N783 0.984 . S
H789 N783 0.985 . S
H790 N787 0.984 . S
H791 N787 0.985 . S
H792 N786 0.984 . S
H793 N786 0.984 . S
H794 N782 0.984 . S
H795 N782 0.985 . S
C796 C797 1.363 . S
C796 C802 1.379 . S
C796 N804 1.356 . S
C797 C796 1.363 . S
C797 C803 1.363 . S
C798 C799 1.363 . S
C798 C803 1.379 . S
C798 N805 1.356 . S
C799 C798 1.363 . S
C799 C802 1.363 . S
N800 C802 1.356 . S
N800 H812 0.984 . S
N800 H813 0.985 . S
N801 C803 1.356 . S
N801 H806 0.984 . S
N801 H807 0.985 . S
C802 C796 1.379 . S
C802 C799 1.363 . S
C802 N800 1.356 . S
C803 C797 1.363 . S
C803 C798 1.379 . S
C803 N801 1.356 . S
N804 C796 1.356 . S
N804 H810 0.984 . S
N804 H811 0.984 . S
N805 C798 1.356 . S
N805 H808 0.984 . S
N805 H809 0.985 . S
H806 N801 0.984 . S
H807 N801 0.985 . S
H808 N805 0.984 . S
H809 N805 0.985 . S
H810 N804 0.984 . S
H811 N804 0.984 . S
H812 N800 0.984 . S
H813 N800 0.985 . S
C814 C815 1.363 . S
C814 C820 1.379 . S
C814 N822 1.356 1_655 S
C815 C814 1.363 . S
C815 C821 1.363 . S
C816 C817 1.363 . S
C816 C821 1.379 . S
C816 N823 1.356 . S
C817 C816 1.363 . S
C817 C820 1.363 . S
N818 C820 1.356 1_455 S
N818 H830 0.984 . S
N818 H831 0.985 . S
N819 C821 1.356 . S
N819 H824 0.984 . S
N819 H825 0.985 . S
C820 C814 1.379 . S
C820 C817 1.363 . S
C820 N818 1.356 1_655 S
C821 C815 1.363 . S
C821 C816 1.379 . S
C821 N819 1.356 . S
N822 C814 1.356 1_455 S
N822 H828 0.984 . S
N822 H829 0.984 1_455 S
N823 C816 1.356 . S
N823 H826 0.984 . S
N823 H827 0.985 . S
H824 N819 0.984 . S
H825 N819 0.985 . S
H826 N823 0.984 . S
H827 N823 0.985 . S
H828 N822 0.984 . S
H829 N822 0.984 1_655 S
H830 N818 0.984 . S
H831 N818 0.985 . S
C832 C833 1.363 . S
C832 C838 1.379 . S
C832 N840 1.356 . S
C833 C832 1.363 . S
C833 C839 1.363 . S
C834 C835 1.363 . S
C834 C839 1.379 . S
C834 N841 1.356 . S
C835 C834 1.363 . S
C835 C838 1.363 . S
N836 C838 1.356 . S
N836 H848 0.984 . S
N836 H849 0.985 . S
N837 C839 1.356 . S
N837 H842 0.984 . S
N837 H843 0.985 . S
C838 C832 1.379 . S
C838 C835 1.363 . S
C838 N836 1.356 . S
C839 C833 1.363 . S
C839 C834 1.379 . S
C839 N837 1.356 . S
N840 C832 1.356 . S
N840 H846 0.984 . S
N840 H847 0.984 . S
N841 C834 1.356 . S
N841 H844 0.984 . S
N841 H845 0.985 . S
H842 N837 0.984 . S
H843 N837 0.985 . S
H844 N841 0.984 . S
H845 N841 0.985 . S
H846 N840 0.984 . S
H847 N840 0.984 . S
H848 N836 0.984 . S
H849 N836 0.985 . S
C850 C851 1.363 . S
C850 C856 1.379 . S
C850 N858 1.356 . S
C851 C850 1.363 . S
C851 C857 1.363 . S
C852 C853 1.363 . S
C852 C857 1.379 . S
C852 N859 1.356 . S
C853 C852 1.363 . S
C853 C856 1.363 . S
N854 C856 1.356 . S
N854 H866 0.984 . S
N854 H867 0.985 . S
N855 C857 1.356 . S
N855 H860 0.984 . S
N855 H861 0.985 . S
C856 C850 1.379 . S
C856 C853 1.363 . S
C856 N854 1.356 . S
C857 C851 1.363 . S
C857 C852 1.379 . S
C857 N855 1.356 . S
N858 C850 1.356 . S
N858 H864 0.984 . S
N858 H865 0.984 . S
N859 C852 1.356 . S
N859 H862 0.984 . S
N859 H863 0.985 . S
H860 N855 0.984 . S
H861 N855 0.985 . S
H862 N859 0.984 . S
H863 N859 0.985 . S
H864 N858 0.984 . S
H865 N858 0.984 . S
H866 N854 0.984 . S
H867 N854 0.985 . S
C868 C869 1.363 . S
C868 C874 1.379 . S
C868 N876 1.356 . S
C869 C868 1.363 . S
C869 C875 1.363 . S
C870 C871 1.363 . S
C870 C875 1.379 . S
C870 N877 1.356 . S
C871 C870 1.363 . S
C871 C874 1.363 . S
N872 C874 1.356 . S
N872 H884 0.984 . S
N872 H885 0.985 . S
N873 C875 1.356 . S
N873 H878 0.984 . S
N873 H879 0.985 . S
C874 C868 1.379 . S
C874 C871 1.363 . S
C874 N872 1.356 . S
C875 C869 1.363 . S
C875 C870 1.379 . S
C875 N873 1.356 . S
N876 C868 1.356 . S
N876 H882 0.984 . S
N876 H883 0.984 . S
N877 C870 1.356 . S
N877 H880 0.984 . S
N877 H881 0.985 . S
H878 N873 0.984 . S
H879 N873 0.985 . S
H880 N877 0.984 . S
H881 N877 0.985 . S
H882 N876 0.984 . S
H883 N876 0.984 . S
H884 N872 0.984 . S
H885 N872 0.985 . S
C886 C887 1.363 . S
C886 C892 1.379 . S
C886 N894 1.356 . S
C887 C886 1.363 . S
C887 C893 1.363 . S
C888 C889 1.363 . S
C888 C893 1.379 . S
C888 N895 1.356 . S
C889 C888 1.363 . S
C889 C892 1.363 . S
N890 C892 1.356 . S
N890 H902 0.984 . S
N890 H903 0.985 . S
N891 C893 1.356 . S
N891 H896 0.984 . S
N891 H897 0.985 . S
C892 C886 1.379 . S
C892 C889 1.363 . S
C892 N890 1.356 . S
C893 C887 1.363 . S
C893 C888 1.379 . S
C893 N891 1.356 . S
N894 C886 1.356 . S
N894 H900 0.984 . S
N894 H901 0.984 . S
N895 C888 1.356 . S
N895 H898 0.984 . S
N895 H899 0.985 . S
H896 N891 0.984 . S
H897 N891 0.985 . S
H898 N895 0.984 . S
H899 N895 0.985 . S
H900 N894 0.984 . S
H901 N894 0.984 . S
H902 N890 0.984 . S
H903 N890 0.985 . S
C904 C905 1.363 . S
C904 C910 1.379 . S
C904 N912 1.356 . S
C905 C904 1.363 . S
C905 C911 1.363 . S
C906 C907 1.363 . S
C906 C911 1.379 . S
C906 N913 1.356 . S
C907 C906 1.363 . S
C907 C910 1.363 . S
N908 C910 1.356 . S
N908 H920 0.984 . S
N908 H921 0.985 . S
N909 C911 1.356 . S
N909 H914 0.984 . S
N909 H915 0.985 . S
C910 C904 1.379 . S
C910 C907 1.363 . S
C910 N908 1.356 . S
C911 C905 1.363 . S
C911 C906 1.379 . S
C911 N909 1.356 . S
N912 C904 1.356 . S
N912 H918 0.984 . S
N912 H919 0.984 . S
N913 C906 1.356 . S
N913 H916 0.984 . S
N913 H917 0.985 . S
H914 N909 0.984 . S
H915 N909 0.985 . S
H916 N913 0.984 . S
H917 N913 0.985 . S
H918 N912 0.984 . S
H919 N912 0.984 . S
H920 N908 0.984 . S
H921 N908 0.985 . S
C922 C923 1.363 . S
C922 C928 1.379 . S
C922 N930 1.356 . S
C923 C922 1.363 . S
C923 C929 1.363 . S
C924 C925 1.363 . S
C924 C929 1.379 . S
C924 N931 1.364 . S
C925 C924 1.363 . S
C925 C928 1.363 . S
N926 C928 1.356 . S
N926 H938 0.984 . S
N926 H939 0.985 . S
N927 C929 1.356 . S
N927 H932 0.984 . S
N927 H933 0.985 1_655 S
C928 C922 1.379 . S
C928 C925 1.363 . S
C928 N926 1.356 . S
C929 C923 1.363 . S
C929 C924 1.379 . S
C929 N927 1.356 . S
N930 C922 1.356 . S
N930 H936 0.984 . S
N930 H937 0.984 . S
N931 C924 1.364 . S
N931 H934 0.985 . S
N931 H935 0.976 1_655 S
H932 N927 0.984 . S
H933 N927 0.985 1_455 S
H934 N931 0.985 . S
H935 N931 0.976 1_455 S
H936 N930 0.984 . S
H937 N930 0.984 . S
H938 N926 0.984 . S
H939 N926 0.985 . S
C940 C941 1.363 . S
C940 C946 1.379 . S
C940 N948 1.356 . S
C941 C940 1.363 . S
C941 C947 1.363 . S
C942 C943 1.363 . S
C942 C947 1.379 . S
C942 N949 1.356 . S
C943 C942 1.363 . S
C943 C946 1.363 . S
N944 C946 1.356 . S
N944 H956 0.984 . S
N944 H957 0.985 . S
N945 C947 1.356 . S
N945 H950 0.984 . S
N945 H951 0.985 . S
C946 C940 1.379 . S
C946 C943 1.363 . S
C946 N944 1.356 . S
C947 C941 1.363 . S
C947 C942 1.379 . S
C947 N945 1.356 . S
N948 C940 1.356 . S
N948 H954 0.984 . S
N948 H955 0.984 . S
N949 C942 1.356 . S
N949 H952 0.984 . S
N949 H953 0.985 . S
H950 N945 0.984 . S
H951 N945 0.985 . S
H952 N949 0.984 . S
H953 N949 0.985 . S
H954 N948 0.984 . S
H955 N948 0.984 . S
H956 N944 0.984 . S
H957 N944 0.985 . S
C958 C959 1.363 . S
C958 C964 1.379 . S
C958 N966 1.356 . S
C959 C958 1.363 . S
C959 C965 1.363 . S
C960 C961 1.363 . S
C960 C965 1.379 . S
C960 N967 1.356 . S
C961 C960 1.363 . S
C961 C964 1.363 . S
N962 C964 1.356 . S
N962 H974 0.984 . S
N962 H975 0.985 . S
N963 C965 1.356 . S
N963 H968 0.984 . S
N963 H969 0.985 . S
C964 C958 1.379 . S
C964 C961 1.363 . S
C964 N962 1.356 . S
C965 C959 1.363 . S
C965 C960 1.379 . S
C965 N963 1.356 . S
N966 C958 1.356 . S
N966 H972 0.984 . S
N966 H973 0.984 . S
N967 C960 1.356 . S
N967 H970 0.984 . S
N967 H971 0.985 . S
H968 N963 0.984 . S
H969 N963 0.985 . S
H970 N967 0.984 . S
H971 N967 0.985 . S
H972 N966 0.984 . S
H973 N966 0.984 . S
H974 N962 0.984 . S
H975 N962 0.985 . S
C976 C977 1.363 . S
C976 C982 1.379 . S
C976 N984 1.356 . S
C977 C976 1.363 . S
C977 C983 1.363 . S
C978 C979 1.363 . S
C978 C983 1.379 . S
C978 N985 1.356 . S
C979 C978 1.363 . S
C979 C982 1.363 . S
N980 C982 1.356 . S
N980 H992 0.984 . S
N980 H993 0.985 . S
N981 C983 1.356 . S
N981 H986 0.984 . S
N981 H987 0.985 . S
C982 C976 1.379 . S
C982 C979 1.363 . S
C982 N980 1.356 . S
C983 C977 1.363 . S
C983 C978 1.379 . S
C983 N981 1.356 . S
N984 C976 1.356 . S
N984 H990 0.984 . S
N984 H991 0.984 . S
N985 C978 1.356 . S
N985 H988 0.984 . S
N985 H989 0.985 . S
H986 N981 0.984 . S
H987 N981 0.985 . S
H988 N985 0.984 . S
H989 N985 0.985 . S
H990 N984 0.984 . S
H991 N984 0.984 . S
H992 N980 0.984 . S
H993 N980 0.985 . S
C994 C995 1.363 . S
C994 C1000 1.379 . S
C994 N1002 1.356 . S
C995 C994 1.363 . S
C995 C1001 1.363 . S
C996 C997 1.363 . S
C996 C1001 1.379 . S
C996 N1003 1.356 . S
C997 C996 1.363 . S
C997 C1000 1.363 . S
N998 C1000 1.356 . S
N998 H1010 0.984 . S
N998 H1011 0.985 . S
N999 C1001 1.356 . S
N999 H1004 0.984 . S
N999 H1005 0.985 . S
C1000 C994 1.379 . S
C1000 C997 1.363 . S
C1000 N998 1.356 . S
C1001 C995 1.363 . S
C1001 C996 1.379 . S
C1001 N999 1.356 . S
N1002 C994 1.356 . S
N1002 H1008 0.984 . S
N1002 H1009 0.984 . S
N1003 C996 1.356 . S
N1003 H1006 0.984 . S
N1003 H1007 0.985 . S
H1004 N999 0.984 . S
H1005 N999 0.985 . S
H1006 N1003 0.984 . S
H1007 N1003 0.985 . S
H1008 N1002 0.984 . S
H1009 N1002 0.984 . S
H1010 N998 0.984 . S
H1011 N998 0.985 . S
C1012 C1013 1.363 . S
C1012 C1018 1.379 . S
C1012 N1020 1.356 . S
C1013 C1012 1.363 . S
C1013 C1019 1.363 . S
C1014 C1015 1.363 . S
C1014 C1019 1.379 . S
C1014 N1021 1.356 . S
C1015 C1014 1.363 . S
C1015 C1018 1.363 . S
N1016 C1018 1.356 . S
N1016 H1028 0.984 . S
N1016 H1029 0.985 . S
N1017 C1019 1.356 . S
N1017 H1022 0.984 . S
N1017 H1023 0.985 . S
C1018 C1012 1.379 . S
C1018 C1015 1.363 . S
C1018 N1016 1.356 . S
C1019 C1013 1.363 . S
C1019 C1014 1.379 . S
C1019 N1017 1.356 . S
N1020 C1012 1.356 . S
N1020 H1026 0.984 . S
N1020 H1027 0.984 . S
N1021 C1014 1.356 . S
N1021 H1024 0.984 . S
N1021 H1025 0.985 . S
H1022 N1017 0.984 . S
H1023 N1017 0.985 . S
H1024 N1021 0.984 . S
H1025 N1021 0.985 . S
H1026 N1020 0.984 . S
H1027 N1020 0.984 . S
H1028 N1016 0.984 . S
H1029 N1016 0.985 . S
C1030 C1031 1.363 . S
C1030 C1036 1.379 . S
C1030 N1038 1.356 . S
C1031 C1030 1.363 . S
C1031 C1037 1.363 . S
C1032 C1033 1.363 . S
C1032 C1037 1.379 . S
C1032 N1039 1.356 . S
C1033 C1032 1.363 . S
C1033 C1036 1.363 . S
N1034 C1036 1.356 . S
N1034 H1046 0.984 . S
N1034 H1047 0.985 . S
N1035 C1037 1.356 . S
N1035 H1040 0.984 . S
N1035 H1041 0.985 . S
C1036 C1030 1.379 . S
C1036 C1033 1.363 . S
C1036 N1034 1.356 . S
C1037 C1031 1.363 . S
C1037 C1032 1.379 . S
C1037 N1035 1.356 . S
N1038 C1030 1.356 . S
N1038 H1044 0.984 . S
N1038 H1045 0.984 . S
N1039 C1032 1.356 . S
N1039 H1042 0.984 . S
N1039 H1043 0.985 . S
H1040 N1035 0.984 . S
H1041 N1035 0.985 . S
H1042 N1039 0.984 . S
H1043 N1039 0.985 . S
H1044 N1038 0.984 . S
H1045 N1038 0.984 . S
H1046 N1034 0.984 . S
H1047 N1034 0.985 . S
C1048 C1049 1.363 . S
C1048 C1054 1.379 . S
C1048 N1056 1.356 . S
C1049 C1048 1.363 . S
C1049 C1055 1.363 . S
C1050 C1051 1.363 . S
C1050 C1055 1.379 . S
C1050 N1057 1.356 . S
C1051 C1050 1.363 . S
C1051 C1054 1.363 . S
N1052 C1054 1.356 . S
N1052 H1064 0.984 . S
N1052 H1065 0.985 . S
N1053 C1055 1.356 . S
N1053 H1058 0.984 . S
N1053 H1059 0.985 . S
C1054 C1048 1.379 . S
C1054 C1051 1.363 . S
C1054 N1052 1.356 . S
C1055 C1049 1.363 . S
C1055 C1050 1.379 . S
C1055 N1053 1.356 . S
N1056 C1048 1.356 . S
N1056 H1062 0.984 . S
N1056 H1063 0.984 . S
N1057 C1050 1.356 . S
N1057 H1060 0.984 . S
N1057 H1061 0.985 . S
H1058 N1053 0.984 . S
H1059 N1053 0.985 . S
H1060 N1057 0.984 . S
H1061 N1057 0.985 . S
H1062 N1056 0.984 . S
H1063 N1056 0.984 . S
H1064 N1052 0.984 . S
H1065 N1052 0.985 . S
C1066 C1067 1.363 . S
C1066 C1072 1.379 . S
C1066 N1074 1.356 . S
C1067 C1066 1.363 . S
C1067 C1073 1.363 . S
C1068 C1069 1.363 . S
C1068 C1073 1.379 . S
C1068 N1075 1.356 . S
C1069 C1068 1.363 . S
C1069 C1072 1.363 . S
N1070 C1072 1.356 . S
N1070 H1082 0.984 . S
N1070 H1083 0.985 . S
N1071 C1073 1.356 . S
N1071 H1076 0.984 . S
N1071 H1077 0.985 . S
C1072 C1066 1.379 . S
C1072 C1069 1.363 . S
C1072 N1070 1.356 . S
C1073 C1067 1.363 . S
C1073 C1068 1.379 . S
C1073 N1071 1.356 . S
N1074 C1066 1.356 . S
N1074 H1080 0.984 . S
N1074 H1081 0.984 . S
N1075 C1068 1.356 . S
N1075 H1078 0.984 . S
N1075 H1079 0.985 . S
H1076 N1071 0.984 . S
H1077 N1071 0.985 . S
H1078 N1075 0.984 . S
H1079 N1075 0.985 . S
H1080 N1074 0.984 . S
H1081 N1074 0.984 . S
H1082 N1070 0.984 . S
H1083 N1070 0.985 . S
C511 C444 1.759 . S
C509 C45 1.828 . S
C527 C78 1.717 . S
C529 C447 1.703 . S
C545 C126 1.698 . S
C547 C478 1.679 . S
C565 C413 1.734 . S
C563 C174 1.780 . S
C583 C448 1.760 . S
C581 C36 1.823 . S
C601 C479 1.738 . S
C599 C69 1.795 . S
C619 C404 1.685 . S
C617 C117 1.717 . S
C637 C435 1.705 . S
C635 C165 1.733 . S
C653 C30 1.410 . S
C655 C465 1.358 . S
C671 C228 1.407 . S
C673 C434 1.346 . S
C689 C141 1.324 . S
C691 C394 1.329 1_655 S
C709 C487 1.350 1_655 S
C707 C270 1.341 . S
C727 C415 1.357 . S
C725 C21 1.423 . S
C743 C237 1.342 . S
C745 C414 1.354 1_655 S
C761 C132 1.345 . S
C763 C507 1.341 1_655 S
C781 C446 1.348 . S
C779 C261 1.411 . S
C797 C333 1.825 . S
C799 C506 1.756 . S
C815 C213 1.734 . S
C817 C385 1.706 . S
C833 C357 1.714 . S
C835 C416 1.683 . S
C851 C285 1.807 . S
C853 C475 1.732 . S
C871 C386 1.762 . S
C869 C324 1.825 . S
C887 C222 1.780 . S
C889 C417 1.735 . S
C905 C366 1.701 . S
C907 C466 1.682 . S
C925 C497 1.708 . S
C923 C276 1.747 . S
C941 C318 1.408 . S
C943 C403 1.355 . S
C959 C93 1.389 . S
C961 C496 1.343 . S
C977 C372 1.343 . S
C979 C456 1.339 . S
C997 C425 1.354 . S
C995 C189 1.342 . S
C1015 C477 1.360 . S
C1013 C309 1.426 . S
C1033 C476 1.356 . S
C1031 C84 1.361 . S
C1051 C445 1.339 . S
C1049 C381 1.326 . S
C1069 C384 1.345 . S
C1067 C180 1.407 . S
