# Generated by pormake.
# Topology nom, (4,4)-cn, num edge types: 1
# Building blocks:
#     Node 0, Type 0, BuildingBlock: MUDLON_clean_linker_0, # of connection points: 4
#     Node 1, Type 0, BuildingBlock: MUDLON_clean_linker_0, # of connection points: 4
#     Node 2, Type 0, BuildingBlock: MUDLON_clean_linker_0, # of connection points: 4
#     Node 3, Type 0, BuildingBlock: MUDLON_clean_linker_0, # of connection points: 4
#     Node 4, Type 0, BuildingBlock: MUDLON_clean_linker_0, # of connection points: 4
#     Node 5, Type 0, BuildingBlock: MUDLON_clean_linker_0, # of connection points: 4
#     Node 6, Type 1, BuildingBlock: QUQFOY_clean_sbu_3, # of connection points: 4
#     Node 7, Type 1, BuildingBlock: QUQFOY_clean_sbu_3, # of connection points: 4
#     Node 8, Type 1, BuildingBlock: QUQFOY_clean_sbu_3, # of connection points: 4
#     Node 9, Type 1, BuildingBlock: QUQFOY_clean_sbu_3, # of connection points: 4
#     Node 10, Type 1, BuildingBlock: QUQFOY_clean_sbu_3, # of connection points: 4
#     Node 11, Type 1, BuildingBlock: QUQFOY_clean_sbu_3, # of connection points: 4
#     Edge 12, Type (0, 1), BuildingBlock: AJUNOK_clean_linker_0, # of connection points: 2
#     Edge 13, Type (0, 1), BuildingBlock: AJUNOK_clean_linker_0, # of connection points: 2
#     Edge 14, Type (0, 1), BuildingBlock: AJUNOK_clean_linker_0, # of connection points: 2
#     Edge 15, Type (0, 1), BuildingBlock: AJUNOK_clean_linker_0, # of connection points: 2
#     Edge 16, Type (0, 1), BuildingBlock: AJUNOK_clean_linker_0, # of connection points: 2
#     Edge 17, Type (0, 1), BuildingBlock: AJUNOK_clean_linker_0, # of connection points: 2
#     Edge 18, Type (0, 1), BuildingBlock: AJUNOK_clean_linker_0, # of connection points: 2
#     Edge 19, Type (0, 1), BuildingBlock: AJUNOK_clean_linker_0, # of connection points: 2
#     Edge 20, Type (0, 1), BuildingBlock: AJUNOK_clean_linker_0, # of connection points: 2
#     Edge 21, Type (0, 1), BuildingBlock: AJUNOK_clean_linker_0, # of connection points: 2
#     Edge 22, Type (0, 1), BuildingBlock: AJUNOK_clean_linker_0, # of connection points: 2
#     Edge 23, Type (0, 1), BuildingBlock: AJUNOK_clean_linker_0, # of connection points: 2
#     Edge 24, Type (0, 1), BuildingBlock: AJUNOK_clean_linker_0, # of connection points: 2
#     Edge 25, Type (0, 1), BuildingBlock: AJUNOK_clean_linker_0, # of connection points: 2
#     Edge 26, Type (0, 1), BuildingBlock: AJUNOK_clean_linker_0, # of connection points: 2
#     Edge 27, Type (0, 1), BuildingBlock: AJUNOK_clean_linker_0, # of connection points: 2
#     Edge 28, Type (0, 1), BuildingBlock: AJUNOK_clean_linker_0, # of connection points: 2
#     Edge 29, Type (0, 1), BuildingBlock: AJUNOK_clean_linker_0, # of connection points: 2
#     Edge 30, Type (0, 1), BuildingBlock: AJUNOK_clean_linker_0, # of connection points: 2
#     Edge 31, Type (0, 1), BuildingBlock: AJUNOK_clean_linker_0, # of connection points: 2
#     Edge 32, Type (0, 1), BuildingBlock: AJUNOK_clean_linker_0, # of connection points: 2
#     Edge 33, Type (0, 1), BuildingBlock: AJUNOK_clean_linker_0, # of connection points: 2
#     Edge 34, Type (0, 1), BuildingBlock: AJUNOK_clean_linker_0, # of connection points: 2
#     Edge 35, Type (0, 1), BuildingBlock: AJUNOK_clean_linker_0, # of connection points: 2
# Relax obj value: 0.008
# Max RMSD: 0.106
# Mean RMSD: 0.061
data_MOF--net-nom--node1-QUQFOY_clean_sbu_3--node2-MUDLON_clean_linker_0--edge1-AJUNOK_clean_linker_0
_symmetry_space_group_name_H-M    P1
_symmetry_Int_Tables_number       1
_symmetry_cell_setting            triclinic
loop_
_symmetry_equiv_pos_as_xyz
'x, y, z'
_cell_length_a     48.720718
_cell_length_b     50.8921
_cell_length_c     49.218612
_cell_angle_alpha  90.479143
_cell_angle_beta   89.749211
_cell_angle_gamma 120.69105
loop_
_atom_site_label
_atom_site_type_symbol
_atom_site_fract_x
_atom_site_fract_y
_atom_site_fract_z
_atom_type_partial_charge
H0 H 0.16292 0.55135 0.29666 0.0
N1 N 0.11681 0.55338 0.3238 0.0
H2 H 0.20342 0.59088 0.26724 0.0
H3 H 0.11723 0.60454 0.30561 0.0
H4 H 0.15818 0.64449 0.27766 0.0
H5 H 0.13771 0.6079 0.35103 0.0
H6 H 0.16503 0.62247 0.39447 0.0
H7 H 0.12497 0.51786 0.35809 0.0
H8 H 0.15183 0.5323 0.40244 0.0
H9 H 0.07614 0.50526 0.29441 0.0
H10 H 0.08159 0.57692 0.34573 0.0
H11 H 0.02 0.48764 0.28479 0.0
H12 H 0.02629 0.55997 0.3359 0.0
H13 H 0.8761 0.44826 0.25746 0.0
H14 H 0.85194 0.42749 0.2129 0.0
H15 H 0.86764 0.51602 0.1904 0.0
H16 H 0.89211 0.53659 0.23472 0.0
H17 H 0.87297 0.54 0.28972 0.0
H18 H 0.82662 0.52509 0.31888 0.0
H19 H 0.81996 0.43851 0.33404 0.0
H20 H 0.86606 0.45344 0.30421 0.0
H21 H 0.94238 0.50189 0.2443 0.0
H22 H 0.99282 0.50855 0.25881 0.0
H23 H 0.97133 0.51937 0.34186 0.0
N24 N 0.89851 0.50679 0.27568 0.0
H25 H 0.92095 0.5134 0.32755 0.0
C26 C 0.13711 0.57486 0.30343 0.0
C27 C 0.16133 0.57127 0.2919 0.0
C28 C 0.1845 0.59393 0.2753 0.0
C29 C 0.18399 0.62081 0.27011 0.0
C30 C 0.1589 0.6238 0.28073 0.0
C31 C 0.13551 0.60095 0.29699 0.0
C32 C 0.12949 0.56166 0.35101 0.0
C33 C 0.14031 0.59101 0.362 0.0
C34 C 0.15587 0.59938 0.38702 0.0
C35 C 0.16098 0.57868 0.40159 0.0
C36 C 0.14879 0.54891 0.3913 0.0
C37 C 0.13327 0.54055 0.36617 0.0
C38 C 0.0832 0.5423 0.32074 0.0
C39 C 0.06514 0.51694 0.30382 0.0
C40 C 0.0332 0.50703 0.29826 0.0
C41 C 0.01872 0.52242 0.30958 0.0
C42 C 0.03656 0.54729 0.32721 0.0
C43 C 0.06845 0.55716 0.33274 0.0
C44 C 0.88585 0.49404 0.24925 0.0
C45 C 0.8743 0.46311 0.24289 0.0
C46 C 0.86044 0.45127 0.21752 0.0
C47 C 0.85773 0.47012 0.19831 0.0
C48 C 0.86965 0.50104 0.20473 0.0
C49 C 0.88354 0.51282 0.22996 0.0
C50 C 0.87297 0.498 0.29496 0.0
C51 C 0.86173 0.51801 0.29967 0.0
C52 C 0.83544 0.50952 0.31644 0.0
C53 C 0.82003 0.48083 0.32908 0.0
C54 C 0.83146 0.46078 0.32457 0.0
C55 C 0.85773 0.46925 0.30759 0.0
C56 C 0.92615 0.50541 0.2848 0.0
C57 C 0.94749 0.50446 0.26584 0.0
C58 C 0.97672 0.50841 0.27414 0.0
C59 C 0.98597 0.51422 0.30151 0.0
C60 C 0.96485 0.5149 0.32058 0.0
C61 C 0.93561 0.51098 0.31232 0.0
H62 H 0.45748 0.8836 0.45441 0.0
N63 N 0.42114 0.90846 0.44059 0.0
H64 H 0.44087 0.83947 0.48358 0.0
H65 H 0.36984 0.8818 0.472 0.0
H66 H 0.35192 0.8362 0.4997 0.0
H67 H 0.37 0.88288 0.40903 0.0
H68 H 0.36518 0.86201 0.36312 0.0
H69 H 0.46928 0.90947 0.41105 0.0
H70 H 0.4647 0.88861 0.36494 0.0
H71 H 0.4774 0.93375 0.47012 0.0
H72 H 0.41831 0.95534 0.42125 0.0
H73 H 0.51525 0.9877 0.47665 0.0
H74 H 0.45723 0.00963 0.42626 0.0
H75 H 0.6322 0.167 0.50114 0.0
H76 H 0.63843 0.18498 0.54818 0.0
H77 H 0.53741 0.1245 0.56142 0.0
H78 H 0.53098 0.10813 0.5143 0.0
H79 H 0.53961 0.15425 0.48105 0.0
H80 H 0.54755 0.20079 0.45987 0.0
H81 H 0.62604 0.20739 0.41321 0.0
H82 H 0.61804 0.16058 0.43467 0.0
H83 H 0.59194 0.08647 0.46636 0.0
H84 H 0.55487 0.0325 0.45616 0.0
H85 H 0.47654 0.04963 0.45739 0.0
N86 N 0.5783 0.13004 0.47506 0.0
H87 H 0.5138 0.10336 0.46587 0.0
C88 C 0.41493 0.88622 0.46127 0.0
C89 C 0.43494 0.87412 0.465 0.0
C90 C 0.42515 0.84852 0.48135 0.0
C91 C 0.3947 0.8338 0.4934 0.0
C92 C 0.37556 0.847 0.49082 0.0
C93 C 0.3857 0.87301 0.47498 0.0
C94 C 0.41981 0.89753 0.41332 0.0
C95 C 0.39073 0.88427 0.39943 0.0
C96 C 0.38809 0.87248 0.37329 0.0
C97 C 0.41455 0.87361 0.36061 0.0
C98 C 0.44387 0.88712 0.37445 0.0
C99 C 0.44653 0.89907 0.40067 0.0
C100 C 0.44452 0.94025 0.44532 0.0
C101 C 0.47248 0.9499 0.46057 0.0
C102 C 0.4945 0.98107 0.46408 0.0
C103 C 0.48945 0.00325 0.45201 0.0
C104 C 0.46173 0.9934 0.43639 0.0
C105 C 0.4395 0.96233 0.43333 0.0
C106 C 0.58133 0.13621 0.50395 0.0
C107 C 0.6115 0.15739 0.51432 0.0
C108 C 0.61498 0.16758 0.54118 0.0
C109 C 0.58829 0.15653 0.55838 0.0
C110 C 0.55828 0.13411 0.54845 0.0
C111 C 0.5547 0.12434 0.52143 0.0
C112 C 0.57831 0.15386 0.45937 0.0
C113 C 0.55791 0.16507 0.46569 0.0
C114 C 0.56252 0.19177 0.45363 0.0
C115 C 0.58768 0.20786 0.43523 0.0
C116 C 0.60677 0.19563 0.42768 0.0
C117 C 0.60209 0.16885 0.43969 0.0
C118 C 0.55584 0.09901 0.46693 0.0
C119 C 0.56679 0.07851 0.46397 0.0
C120 C 0.54548 0.04762 0.45847 0.0
C121 C 0.51254 0.03647 0.45619 0.0
C122 C 0.50171 0.05729 0.45857 0.0
C123 C 0.52312 0.08824 0.4636 0.0
H124 H 0.45862 0.58728 0.65442 0.0
N125 N 0.4276 0.53404 0.68288 0.0
H126 H 0.43391 0.60569 0.62205 0.0
H127 H 0.36835 0.50405 0.66473 0.0
H128 H 0.34344 0.52214 0.63274 0.0
H129 H 0.38926 0.50063 0.72266 0.0
H130 H 0.38357 0.51827 0.76758 0.0
H131 H 0.46485 0.59172 0.7035 0.0
H132 H 0.46061 0.60928 0.74884 0.0
H133 H 0.49252 0.5713 0.68248 0.0
H134 H 0.4157 0.47945 0.66702 0.0
H135 H 0.53139 0.5556 0.6736 0.0
H136 H 0.45425 0.46372 0.65638 0.0
H137 H 0.63656 0.48616 0.60949 0.0
H138 H 0.63926 0.4739 0.5618 0.0
H139 H 0.53638 0.42677 0.55669 0.0
H140 H 0.53385 0.43816 0.60477 0.0
H141 H 0.54309 0.40654 0.63845 0.0
H142 H 0.5518 0.36799 0.65919 0.0
H143 H 0.63852 0.43925 0.69614 0.0
H144 H 0.62975 0.47798 0.67513 0.0
H145 H 0.59228 0.52304 0.63049 0.0
H146 H 0.55472 0.54029 0.63986 0.0
H147 H 0.49068 0.45355 0.67761 0.0
N148 N 0.58476 0.46847 0.63943 0.0
H149 H 0.52714 0.43599 0.66692 0.0
C150 C 0.41508 0.54432 0.66188 0.0
C151 C 0.43357 0.57294 0.64953 0.0
C152 C 0.41943 0.58345 0.63122 0.0
C153 C 0.38673 0.56541 0.62508 0.0
C154 C 0.36873 0.53643 0.63693 0.0
C155 C 0.38281 0.52607 0.65517 0.0
C156 C 0.42748 0.54472 0.70993 0.0
C157 C 0.40506 0.52429 0.72845 0.0
C158 C 0.40197 0.53441 0.75406 0.0
C159 C 0.42147 0.56525 0.76166 0.0
C160 C 0.44481 0.58553 0.74337 0.0
C161 C 0.44758 0.57542 0.71757 0.0
C162 C 0.45121 0.5263 0.67582 0.0
C163 C 0.48402 0.54778 0.67699 0.0
C164 C 0.50625 0.53877 0.67163 0.0
C165 C 0.49604 0.50825 0.66454 0.0
C166 C 0.46308 0.48718 0.66249 0.0
C167 C 0.44098 0.49614 0.66825 0.0
C168 C 0.58521 0.46344 0.61059 0.0
C169 C 0.61468 0.47362 0.59792 0.0
C170 C 0.61612 0.46676 0.57066 0.0
C171 C 0.58801 0.44983 0.55539 0.0
C172 C 0.5584 0.43994 0.56797 0.0
C173 C 0.55696 0.4466 0.59537 0.0
C174 C 0.58589 0.4453 0.65528 0.0
C175 C 0.5636 0.41397 0.65149 0.0
C176 C 0.56854 0.39191 0.66339 0.0
C177 C 0.596 0.40072 0.67897 0.0
C178 C 0.61735 0.43193 0.68394 0.0
C179 C 0.61227 0.454 0.67217 0.0
C180 C 0.56289 0.47829 0.64782 0.0
C181 C 0.57016 0.50785 0.64091 0.0
C182 C 0.5487 0.51771 0.64641 0.0
C183 C 0.51949 0.49827 0.65937 0.0
C184 C 0.51258 0.46892 0.66701 0.0
C185 C 0.53382 0.45889 0.66109 0.0
H186 H 0.16212 0.63733 0.7992 0.0
N187 N 0.11813 0.58723 0.77358 0.0
H188 H 0.20299 0.64189 0.83099 0.0
H189 H 0.1233 0.53996 0.79436 0.0
H190 H 0.16483 0.54456 0.82458 0.0
H191 H 0.14084 0.55337 0.74868 0.0
H192 H 0.16219 0.56 0.70306 0.0
H193 H 0.12319 0.62739 0.73654 0.0
H194 H 0.14518 0.63426 0.69021 0.0
H195 H 0.07716 0.5929 0.80517 0.0
H196 H 0.08468 0.52809 0.75321 0.0
H197 H 0.02328 0.55291 0.81844 0.0
H198 H 0.03172 0.48856 0.76649 0.0
H199 H 0.89047 0.45668 0.84743 0.0
H200 H 0.86492 0.45903 0.88959 0.0
H201 H 0.86791 0.38107 0.91985 0.0
H202 H 0.8945 0.37964 0.87808 0.0
H203 H 0.88208 0.35519 0.8244 0.0
H204 H 0.83407 0.32193 0.7978 0.0
H205 H 0.82676 0.40024 0.77614 0.0
H206 H 0.87416 0.43312 0.80349 0.0
H207 H 0.95409 0.46256 0.86324 0.0
H208 H 0.00241 0.50602 0.84592 0.0
H209 H 0.97499 0.47135 0.76416 0.0
N210 N 0.90755 0.41444 0.83452 0.0
H211 H 0.92682 0.42752 0.78119 0.0
C212 C 0.13991 0.58853 0.79408 0.0
C213 C 0.16241 0.617 0.80503 0.0
C214 C 0.18587 0.61956 0.82291 0.0
C215 C 0.18759 0.59366 0.82977 0.0
C216 C 0.16417 0.56494 0.81972 0.0
C217 C 0.14046 0.56234 0.80221 0.0
C218 C 0.12995 0.58977 0.74615 0.0
C219 C 0.14126 0.57095 0.73627 0.0
C220 C 0.15342 0.57465 0.71003 0.0
C221 C 0.15491 0.59736 0.69312 0.0
C222 C 0.14406 0.61646 0.70292 0.0
C223 C 0.13147 0.6125 0.72921 0.0
C224 C 0.0852 0.5639 0.77815 0.0
C225 C 0.06707 0.57028 0.79631 0.0
C226 C 0.03645 0.5474 0.80398 0.0
C227 C 0.0233 0.51758 0.79354 0.0
C228 C 0.04098 0.51141 0.77461 0.0
C229 C 0.07159 0.53423 0.76703 0.0
C230 C 0.89473 0.41811 0.85984 0.0
C231 C 0.88602 0.44039 0.86331 0.0
C232 C 0.87135 0.44166 0.88735 0.0
C233 C 0.86482 0.42051 0.90818 0.0
C234 C 0.87351 0.39827 0.90456 0.0
C235 C 0.88848 0.39726 0.88069 0.0
C236 C 0.88164 0.39647 0.81593 0.0
C237 C 0.87026 0.36513 0.81364 0.0
C238 C 0.84292 0.34625 0.79845 0.0
C239 C 0.82644 0.35845 0.78521 0.0
C240 C 0.83852 0.3901 0.78668 0.0
C241 C 0.86571 0.40894 0.80212 0.0
C242 C 0.93487 0.44207 0.82367 0.0
C243 C 0.95751 0.46455 0.84145 0.0
C244 C 0.98545 0.48957 0.83154 0.0
C245 C 0.99223 0.49244 0.80363 0.0
C246 C 0.97027 0.46992 0.78579 0.0
C247 C 0.94226 0.44489 0.79566 0.0
H248 H 0.55057 0.15033 0.96923 0.0
N249 N 0.58343 0.12418 0.94853 0.0
H250 H 0.57293 0.19638 -0.00272 0.0
H251 H 0.64 0.15235 0.97246 0.0
H252 H 0.66325 0.19963 -0.00073 0.0
H253 H 0.62681 0.13826 0.91018 0.0
H254 H 0.62465 0.15222 0.86299 0.0
H255 H 0.53489 0.12841 0.92558 0.0
H256 H 0.53308 0.14343 0.87843 0.0
H257 H 0.52535 0.0987 0.97428 0.0
H258 H 0.59288 0.07867 0.93705 0.0
H259 H 0.48928 0.04458 0.98272 0.0
H260 H 0.55608 0.02423 0.94355 0.0
H261 H 0.37709 0.85745 0.00132 0.0
H262 H 0.36721 0.83475 0.04648 0.0
H263 H 0.4609 0.90598 0.07206 0.0
H264 H 0.47138 0.92753 0.02698 0.0
H265 H 0.47107 0.87952 -0.005 0.0
H266 H 0.4683 0.83407 0.97536 0.0
H267 H 0.4007 0.82816 0.91577 0.0
H268 H 0.40314 0.87373 0.93578 0.0
H269 H 0.41747 0.94383 0.9696 0.0
H270 H 0.45399 -0.00174 0.96148 0.0
H271 H 0.53414 0.98554 0.97515 0.0
N272 N 0.43215 0.90181 0.98184 0.0
H273 H 0.4977 0.93135 0.98141 0.0
C274 C 0.59368 0.14778 0.96887 0.0
C275 C 0.57477 0.16018 0.97649 0.0
C276 C 0.58775 0.18684 0.99224 0.0
C277 C 0.62007 0.20203 -8e-05 0.0
C278 C 0.63826 0.18845 0.99373 0.0
C279 C 0.62509 0.16153 0.97839 0.0
C280 C 0.58126 0.13263 0.92124 0.0
C281 C 0.60629 0.13929 0.90332 0.0
C282 C 0.60496 0.14712 0.87652 0.0
C283 C 0.57863 0.14868 0.86731 0.0
C284 C 0.55357 0.14233 0.88527 0.0
C285 C 0.55469 0.13397 0.9121 0.0
C286 C 0.5622 0.09277 0.95551 0.0
C287 C 0.53257 0.08273 0.96805 0.0
C288 C 0.51166 0.05156 0.97248 0.0
C289 C 0.51962 0.02981 0.96383 0.0
C290 C 0.54929 0.04014 0.95112 0.0
C291 C 0.57036 0.07126 0.94725 0.0
C292 C 0.42498 0.89396 0.01025 0.0
C293 C 0.39524 0.86852 0.01684 0.0
C294 C 0.38967 0.85556 0.04263 0.0
C295 C 0.41367 0.86811 0.06255 0.0
C296 C 0.4424 0.89516 0.05679 0.0
C297 C 0.44822 0.90778 0.03086 0.0
C298 C 0.437 0.87993 0.96693 0.0
C299 C 0.45646 0.86921 0.97716 0.0
C300 C 0.45486 0.84319 0.96599 0.0
C301 C 0.43428 0.82778 0.94417 0.0
C302 C 0.41698 0.83994 0.93244 0.0
C303 C 0.41831 0.86584 0.94383 0.0
C304 C 0.45466 0.93347 0.97605 0.0
C305 C 0.44297 0.95289 0.97048 0.0
C306 C 0.46392 0.98405 0.9662 0.0
C307 C 0.49715 0.99652 0.96782 0.0
C308 C 0.5088 0.97684 0.97321 0.0
C309 C 0.48785 0.94564 0.97694 0.0
H310 H 0.53782 0.38345 0.14461 0.0
N311 N 0.52979 0.42837 0.16218 0.0
H312 H 0.5798 0.38697 0.11498 0.0
H313 H 0.5753 0.48015 0.13574 0.0
H314 H 0.61592 0.48345 0.10454 0.0
H315 H 0.58675 0.46583 0.18765 0.0
H316 H 0.60017 0.46204 0.23464 0.0
H317 H 0.49238 0.38786 0.19913 0.0
H318 H 0.5056 0.38421 0.24655 0.0
H319 H 0.47817 0.41321 0.13284 0.0
H320 H 0.55017 0.4862 0.18205 0.0
H321 H 0.45182 0.44268 0.12637 0.0
H322 H 0.52318 0.51492 0.17709 0.0
H323 H 0.36367 0.53557 0.11564 0.0
H324 H 0.35549 0.54927 0.07021 0.0
H325 H 0.45352 0.57925 0.05 0.0
H326 H 0.462 0.56724 0.09585 0.0
H327 H 0.46392 0.60587 0.13339 0.0
H328 H 0.46228 0.64793 0.156 0.0
H329 H 0.38147 0.58308 0.2035 0.0
H330 H 0.38277 0.541 0.18022 0.0
H331 H 0.39265 0.48606 0.14435 0.0
H332 H 0.42057 0.45808 0.15071 0.0
H333 H 0.51096 0.54315 0.14678 0.0
N334 N 0.41781 0.54541 0.13728 0.0
H335 H 0.48264 0.57088 0.14189 0.0
C336 C 0.55295 0.43124 0.14219 0.0
C337 C 0.55454 0.40524 0.13559 0.0
C338 C 0.57837 0.40728 0.11839 0.0
C339 C 0.60084 0.43539 0.10682 0.0
C340 C 0.59893 0.46144 0.11304 0.0
C341 C 0.57544 0.4595 0.13076 0.0
C342 C 0.53851 0.42688 0.18985 0.0
C343 C 0.56891 0.44787 0.20027 0.0
C344 C 0.57651 0.4458 0.22716 0.0
C345 C 0.55398 0.42271 0.24411 0.0
C346 C 0.52355 0.40191 0.23376 0.0
C347 C 0.51594 0.40404 0.20684 0.0
C348 C 0.51575 0.44709 0.15819 0.0
C349 C 0.48814 0.4355 0.14237 0.0
C350 C 0.473 0.45229 0.13894 0.0
C351 C 0.48509 0.48106 0.15154 0.0
C352 C 0.51327 0.49298 0.16693 0.0
C353 C 0.52859 0.47632 0.17006 0.0
C354 C 0.41316 0.54988 0.10916 0.0
C355 C 0.38318 0.54456 0.1012 0.0
C356 C 0.37853 0.55221 0.07517 0.0
C357 C 0.40375 0.56489 0.05633 0.0
C358 C 0.43364 0.56952 0.06408 0.0
C359 C 0.43842 0.56233 0.0903 0.0
C360 C 0.42316 0.57022 0.15502 0.0
C361 C 0.44659 0.60068 0.14935 0.0
C362 C 0.44571 0.62477 0.16238 0.0
C363 C 0.42161 0.61874 0.18138 0.0
C364 C 0.40016 0.58833 0.18879 0.0
C365 C 0.40096 0.56432 0.17567 0.0
C366 C 0.43545 0.53038 0.14259 0.0
C367 C 0.41849 0.49858 0.14518 0.0
C368 C 0.43454 0.48266 0.14848 0.0
C369 C 0.4681 0.49828 0.14892 0.0
C370 C 0.48512 0.53036 0.14679 0.0
C371 C 0.46895 0.5463 0.14385 0.0
C372 C 0.70097 0.44761 0.38347 0.0
O373 O 0.69624 0.4691 0.39037 0.0
Cd374 Cd 0.64668 0.46206 0.40647 0.0
O375 O 0.67877 0.41971 0.38543 0.0
Cd376 Cd 0.62268 0.38919 0.40194 0.0
C377 C 0.59904 0.42012 0.35265 0.0
O378 O 0.63288 0.42342 0.4395 0.0
O379 O 0.58417 0.38656 0.43685 0.0
O380 O 0.63853 0.35339 0.41699 0.0
C381 C 0.6051 0.41015 0.4494 0.0
O382 O 0.6126 0.44504 0.36616 0.0
C383 C 0.61361 0.32952 0.40857 0.0
O384 O 0.60004 0.39698 0.36089 0.0
O385 O 0.59283 0.33343 0.39679 0.0
C386 C 0.30613 0.59732 0.56498 0.0
O387 O 0.28099 0.57439 0.5556 0.0
Cd388 Cd 0.2365 0.57558 0.53738 0.0
O389 O 0.30983 0.62399 0.56406 0.0
Cd390 Cd 0.27968 0.64757 0.5456 0.0
C391 C 0.22006 0.60987 0.59081 0.0
O392 O 0.25904 0.61571 0.50525 0.0
O393 O 0.23688 0.64187 0.51514 0.0
O394 O 0.32842 0.68843 0.52564 0.0
C395 C 0.24 0.62447 0.49844 0.0
O396 O 0.21189 0.58648 0.57586 0.0
C397 C 0.32605 0.71026 0.53559 0.0
O398 O 0.2452 0.63521 0.58543 0.0
O399 O 0.3027 0.70299 0.55155 0.0
C400 C 0.70704 0.27185 0.73209 0.0
O401 O 0.70426 0.24712 0.72316 0.0
Cd402 Cd 0.65524 0.20646 0.70489 0.0
O403 O 0.68383 0.2766 0.73035 0.0
Cd404 Cd 0.62865 0.25211 0.71239 0.0
C405 C 0.60537 0.19615 0.75887 0.0
O406 O 0.63922 0.23051 0.67247 0.0
O407 O 0.58974 0.21611 0.67895 0.0
O408 O 0.64462 0.30301 0.69682 0.0
C409 C 0.61075 0.21569 0.66398 0.0
O410 O 0.61976 0.18632 0.74405 0.0
C411 C 0.6202 0.30325 0.70551 0.0
O412 O 0.60596 0.22072 0.75287 0.0
O413 O 0.59947 0.27951 0.71796 0.0
C414 C 0.29203 0.59648 0.88903 0.0
O415 O 0.28764 0.57116 0.89766 0.0
Cd416 Cd 0.33019 0.56572 0.91594 0.0
O417 O 0.31916 0.62077 0.89141 0.0
Cd418 Cd 0.37289 0.639 0.91001 0.0
C419 C 0.38421 0.59618 0.86342 0.0
O420 O 0.35664 0.60541 0.94882 0.0
O421 O 0.40742 0.63142 0.94126 0.0
O422 O 0.37246 0.68159 0.93151 0.0
C423 C 0.38452 0.61246 0.95603 0.0
O424 O 0.36528 0.57303 0.87757 0.0
C425 C 0.3961 0.70236 0.9186 0.0
O426 O 0.39007 0.62284 0.86985 0.0
O427 O 0.40936 0.6938 0.90121 0.0
C428 C 0.70869 0.438 0.05422 0.0
O429 O 0.73411 0.46221 0.04746 0.0
Cd430 Cd 0.78093 0.46036 0.0345 0.0
O431 O 0.7076 0.41251 0.05443 0.0
Cd432 Cd 0.74214 0.39139 0.0449 0.0
C433 C 0.79391 0.43394 0.09384 0.0
O434 O 0.76885 0.41911 0.00327 0.0
O435 O 0.78954 0.396 0.02397 0.0
O436 O 0.69606 0.34971 0.02304 0.0
C437 C 0.78893 0.41022 0.00318 0.0
O438 O 0.80374 0.45548 0.07667 0.0
C439 C 0.69627 0.32831 0.03583 0.0
O440 O 0.76953 0.40788 0.08872 0.0
O441 O 0.7179 0.33622 0.05372 0.0
C442 C 0.29317 0.72696 0.22218 0.0
O443 O 0.29078 0.74895 0.21301 0.0
Cd444 Cd 0.33671 0.79555 0.19816 0.0
O445 O 0.32005 0.72837 0.22245 0.0
Cd446 Cd 0.37634 0.76072 0.20825 0.0
C447 C 0.38501 0.8135 0.25508 0.0
O448 O 0.36327 0.77894 0.16799 0.0
O449 O 0.41356 0.80003 0.17638 0.0
O450 O 0.36832 0.71191 0.19374 0.0
C451 C 0.39167 0.79772 0.16093 0.0
O452 O 0.36767 0.81891 0.23951 0.0
C453 C 0.39412 0.71539 0.20329 0.0
O454 O 0.39107 0.79256 0.24913 0.0
O455 O 0.4124 0.74055 0.21543 0.0
C456 C 0.24261 0.65566 0.26358 0.0
C457 C 0.21121 0.64683 0.25606 0.0
C458 C 0.26886 0.68134 0.25222 0.0
C459 C 0.26479 0.69948 0.23312 0.0
H460 H 0.24699 0.64309 0.27892 0.0
H461 H 0.29252 0.68741 0.259 0.0
S462 S 0.18768 0.68471 0.20476 0.0
N463 N 0.1776 0.65696 0.22682 0.0
N464 N 0.227 0.70584 0.20595 0.0
C465 C 0.23357 0.69063 0.22499 0.0
C466 C 0.20679 0.66419 0.23635 0.0
C467 C 0.57169 0.24318 0.4152 0.0
C468 C 0.59556 0.23861 0.42603 0.0
C469 C 0.57802 0.27257 0.40879 0.0
C470 C 0.60837 0.29853 0.41334 0.0
H471 H 0.54781 0.22392 0.412 0.0
H472 H 0.55871 0.27498 0.40091 0.0
S473 S 0.67921 0.29859 0.44103 0.0
N474 N 0.65077 0.26225 0.44072 0.0
N475 N 0.66281 0.31744 0.42867 0.0
C476 C 0.63263 0.29412 0.42365 0.0
C477 C 0.6262 0.26418 0.42999 0.0
C478 C 0.34986 0.55733 0.58677 0.0
C479 C 0.37049 0.57662 0.60724 0.0
C480 C 0.3302 0.56495 0.57247 0.0
C481 C 0.3304 0.59223 0.57798 0.0
H482 H 0.34818 0.53565 0.58236 0.0
H483 H 0.31407 0.54884 0.55744 0.0
S484 S 0.38157 0.65148 0.62865 0.0
N485 N 0.39109 0.62481 0.6316 0.0
N486 N 0.35439 0.63947 0.60439 0.0
C487 C 0.35216 0.61254 0.59743 0.0
C488 C 0.37215 0.60466 0.61214 0.0
C489 C 0.79417 0.31496 0.75321 0.0
C490 C 0.79616 0.33783 0.77073 0.0
C491 C 0.76537 0.29399 0.7406 0.0
C492 C 0.73742 0.29513 0.74492 0.0
H493 H 0.81506 0.31316 0.74927 0.0
H494 H 0.76507 0.27671 0.72739 0.0
S495 S 0.72973 0.35014 0.78972 0.0
N496 N 0.76756 0.35995 0.79237 0.0
N497 N 0.71354 0.32099 0.76827 0.0
C498 C 0.73916 0.31815 0.76218 0.0
C499 C 0.76848 0.33938 0.77517 0.0
C500 C 0.41305 0.77375 0.95681 0.0
C501 C 0.42677 0.79659 0.93697 0.0
C502 C 0.40343 0.74342 0.95058 0.0
C503 C 0.40772 0.73488 0.92438 0.0
H504 H 0.409 0.77928 0.9772 0.0
H505 H 0.39254 0.72651 0.96645 0.0
S506 S 0.44312 0.78635 0.86532 0.0
N507 N 0.44433 0.80897 0.89017 0.0
N508 N 0.42706 0.7518 0.87847 0.0
C509 C 0.42205 0.75763 0.90444 0.0
C510 C 0.43129 0.78853 0.9107 0.0
C511 C 0.65901 0.46211 0.09473 0.0
C512 C 0.6276 0.43785 0.09012 0.0
C513 C 0.68514 0.46297 0.08176 0.0
C514 C 0.68082 0.43935 0.06409 0.0
H515 H 0.66365 0.47989 0.1094 0.0
H516 H 0.70896 0.48138 0.08675 0.0
S517 S 0.60356 0.37329 0.04177 0.0
N518 N 0.59364 0.39184 0.06365 0.0
N519 N 0.64294 0.39275 0.0404 0.0
C520 C 0.6496 0.41581 0.05822 0.0
C521 C 0.62295 0.41523 0.07095 0.0
C522 C 0.3632 0.79625 0.53015 0.0
C523 C 0.3813 0.8032 0.5061 0.0
C524 C 0.34654 0.76637 0.54029 0.0
C525 C 0.34749 0.74231 0.52688 0.0
H526 H 0.36118 0.81389 0.54082 0.0
H527 H 0.33208 0.76198 0.55835 0.0
S528 S 0.39214 0.74851 0.46357 0.0
N529 N 0.39946 0.78348 0.46936 0.0
N530 N 0.36917 0.72775 0.48886 0.0
C531 C 0.36667 0.74921 0.50351 0.0
C532 C 0.38332 0.77953 0.49302 0.0
C533 C 0.58105 0.35142 0.70194 0.0
C534 C 0.60366 0.37741 0.68769 0.0
C535 C 0.58696 0.32792 0.70829 0.0
C536 C 0.61553 0.32941 0.70035 0.0
H537 H 0.55851 0.3491 0.70794 0.0
H538 H 0.56866 0.30817 0.71901 0.0
S539 S 0.68217 0.39271 0.66219 0.0
N540 N 0.6555 0.40333 0.66564 0.0
N541 N 0.6668 0.35941 0.67754 0.0
C542 C 0.6385 0.35558 0.68637 0.0
C543 C 0.63251 0.3795 0.68005 0.0
C544 C 0.20868 0.57515 0.86675 0.0
C545 C 0.21449 0.59644 0.84617 0.0
C546 C 0.23386 0.57559 0.88081 0.0
C547 C 0.2658 0.59755 0.87506 0.0
H548 H 0.18445 0.55777 0.87184 0.0
H549 H 0.22823 0.5585 0.89624 0.0
S550 S 0.294 0.65783 0.82253 0.0
N551 N 0.25472 0.63957 0.82024 0.0
N552 N 0.30195 0.64102 0.84726 0.0
C553 C 0.27197 0.61935 0.85491 0.0
C554 C 0.24636 0.61866 0.84034 0.0
C555 C 0.65761 0.24188 0.0331 0.0
C556 C 0.63599 0.23353 0.01135 0.0
C557 C 0.6761 0.27243 0.04169 0.0
C558 C 0.67375 0.29579 0.02878 0.0
H559 H 0.66081 0.22477 0.04312 0.0
H560 H 0.69305 0.27784 0.058 0.0
S561 S 0.61976 0.28573 0.97142 0.0
N562 N 0.61281 0.25102 0.97747 0.0
N563 N 0.64679 0.30811 0.99394 0.0
C564 C 0.65124 0.28752 0.00771 0.0
C565 C 0.63256 0.25649 -0.00108 0.0
C566 C 0.38455 0.63857 0.18599 0.0
C567 C 0.41532 0.64325 0.18978 0.0
C568 C 0.37805 0.66192 0.19091 0.0
C569 C 0.40198 0.69099 0.19996 0.0
H570 H 0.36547 0.61691 0.17824 0.0
H571 H 0.35402 0.65716 0.18718 0.0
S572 S 0.48621 0.71451 0.21455 0.0
N573 N 0.46977 0.67864 0.20418 0.0
N574 N 0.45757 0.72281 0.2136 0.0
C575 C 0.43273 0.69581 0.20462 0.0
C576 C 0.43941 0.67192 0.1994 0.0
C577 C 0.76316 0.44297 0.34052 0.0
C578 C 0.79093 0.47135 0.34553 0.0
C579 C 0.73436 0.43498 0.35361 0.0
C580 C 0.73226 0.45521 0.372 0.0
H581 H 0.76336 0.42731 0.3256 0.0
H582 H 0.71333 0.41331 0.34848 0.0
S583 S 0.79926 0.53033 0.39505 0.0
N584 N 0.81543 0.51817 0.37239 0.0
N585 N 0.76118 0.50351 0.39659 0.0
C586 C 0.76021 0.48303 0.37813 0.0
C587 C 0.78957 0.49101 0.365 0.0
C588 C 0.1745 0.60506 0.44689 0.0
C589 C 0.18051 0.58894 0.42667 0.0
C590 C 0.19386 0.61652 0.47003 0.0
C591 C 0.21994 0.61225 0.47379 0.0
H592 H 0.15467 0.60886 0.4448 0.0
H593 H 0.18826 0.62873 0.48508 0.0
S594 S 0.2468 0.57302 0.42598 0.0
N595 N 0.21508 0.57037 0.41129 0.0
N596 N 0.25123 0.59144 0.45489 0.0
C597 C 0.22623 0.5962 0.45365 0.0
C598 C 0.20656 0.58463 0.43009 0.0
C599 C 0.61777 0.17443 0.60248 0.0
C600 C 0.59185 0.16942 0.5862 0.0
C601 C 0.62328 0.1889 0.62784 0.0
C602 C 0.60286 0.19857 0.63807 0.0
H603 H 0.63417 0.16741 0.59544 0.0
H604 H 0.64385 0.19269 0.63945 0.0
S605 S 0.5318 0.19126 0.60351 0.0
N606 N 0.54582 0.17584 0.58204 0.0
N607 N 0.55562 0.20205 0.63022 0.0
C608 C 0.57638 0.19304 0.62241 0.0
C609 C 0.571 0.1787 0.59636 0.0
C610 C 0.411 0.55855 0.81163 0.0
C611 C 0.4161 0.57605 0.78815 0.0
C612 C 0.40183 0.56593 0.83616 0.0
C613 C 0.39777 0.59131 0.83827 0.0
H614 H 0.41338 0.53852 0.81088 0.0
H615 H 0.3973 0.55127 0.85348 0.0
S616 S 0.40881 0.64498 0.78298 0.0
N617 N 0.41671 0.62013 0.76864 0.0
N618 N 0.40041 0.63454 0.81504 0.0
C619 C 0.40409 0.6098 0.81529 0.0
C620 C 0.41305 0.60205 0.79017 0.0
C621 C 0.81975 0.4225 0.9308 0.0
C622 C 0.84744 0.42053 0.93303 0.0
C623 C 0.80147 0.4201 0.95374 0.0
C624 C 0.81006 0.41535 0.97968 0.0
H625 H 0.81155 0.42494 0.91108 0.0
H626 H 0.7799 0.42095 0.95096 0.0
S627 S 0.88252 0.41237 -0.00311 0.0
N628 N 0.88425 0.41662 0.9636 0.0
N629 N 0.84948 0.41129 0.00661 0.0
C630 C 0.8383 0.41444 0.98233 0.0
C631 C 0.85708 0.41721 0.95904 0.0
C632 C 0.38037 0.83956 0.10276 0.0
C633 C 0.40939 0.85182 0.08852 0.0
C634 C 0.37499 0.82229 0.12628 0.0
C635 C 0.39853 0.81686 0.13658 0.0
H636 H 0.36159 0.84321 0.09559 0.0
H637 H 0.35219 0.81315 0.13648 0.0
S638 S 0.47808 0.84271 0.10633 0.0
N639 N 0.46152 0.85625 0.08589 0.0
N640 N 0.45171 0.82464 0.13063 0.0
C641 C 0.42778 0.82924 0.12278 0.0
C642 C 0.43314 0.84651 0.09862 0.0
C643 C 0.57647 0.4467 0.28921 0.0
C644 C 0.56257 0.42056 0.27249 0.0
C645 C 0.58701 0.44595 0.31544 0.0
C646 C 0.58431 0.41905 0.32596 0.0
H647 H 0.57958 0.46805 0.28181 0.0
H648 H 0.59813 0.46694 0.32722 0.0
S649 S 0.54846 0.34399 0.29034 0.0
N650 N 0.54576 0.36682 0.26828 0.0
N651 N 0.56536 0.36514 0.31766 0.0
C652 C 0.56952 0.39244 0.30964 0.0
C653 C 0.55869 0.39325 0.28291 0.0
C654 C 0.39666 0.86842 0.31249 0.0
C655 C 0.41093 0.86042 0.33301 0.0
C656 C 0.38958 0.85393 0.28709 0.0
C657 C 0.3963 0.83063 0.28117 0.0
H658 H 0.39033 0.88569 0.3163 0.0
H659 H 0.37796 0.86059 0.27226 0.0
S660 S 0.43511 0.8023 0.32787 0.0
N661 N 0.43272 0.82869 0.3457 0.0
N662 N 0.4196 0.80133 0.29786 0.0
C663 C 0.41174 0.82323 0.30127 0.0
C664 C 0.41903 0.83813 0.32719 0.0
C665 C 0.57053 0.41033 0.51842 0.0
C666 C 0.58976 0.44096 0.52693 0.0
C667 C 0.57456 0.40069 0.4927 0.0
C668 C 0.59818 0.42129 0.4748 0.0
H669 H 0.55319 0.39342 0.53215 0.0
H670 H 0.56012 0.37671 0.48734 0.0
S671 S 0.65113 0.50474 0.48562 0.0
N672 N 0.63037 0.49246 0.51403 0.0
N673 N 0.63861 0.4742 0.46608 0.0
C674 C 0.61635 0.45223 0.48248 0.0
C675 C 0.61198 0.4621 0.50846 0.0
C676 C 0.19553 0.62922 0.65814 0.0
C677 C 0.16869 0.60129 0.66559 0.0
C678 C 0.21146 0.63206 0.63355 0.0
C679 C 0.20103 0.6071 0.61547 0.0
H680 H 0.20503 0.64862 0.6719 0.0
H681 H 0.23266 0.6538 0.62909 0.0
S682 S 0.1292 0.53001 0.62458 0.0
N683 N 0.13058 0.54906 0.65233 0.0
N684 N 0.16011 0.55414 0.60607 0.0
C685 C 0.1731 0.57944 0.62224 0.0
C686 C 0.15708 0.57662 0.64731 0.0
C687 C 0.5813 0.18579 0.8331 0.0
C688 C 0.57821 0.15745 0.83891 0.0
C689 C 0.58786 0.19736 0.80658 0.0
C690 C 0.5916 0.18091 0.78512 0.0
H691 H 0.58062 0.1999 0.84939 0.0
H692 H 0.59198 0.22011 0.80328 0.0
S693 S 0.57972 0.10294 0.78954 0.0
N694 N 0.57509 0.11147 0.82102 0.0
N695 N 0.58704 0.1328 0.7711 0.0
C696 C 0.58582 0.15136 0.79048 0.0
C697 C 0.57927 0.13975 0.81744 0.0
C698 C 0.4226 0.60439 0.01982 0.0
C699 C 0.39948 0.57535 0.02943 0.0
C700 C 0.418 0.6159 -0.0044 0.0
C701 C 0.38991 0.59899 0.98036 0.0
H702 H 0.444 0.61878 0.03151 0.0
H703 H 0.43609 0.63862 0.98927 0.0
S704 S 0.32389 0.52032 -0.00529 0.0
N705 N 0.34903 0.5287 0.02019 0.0
N706 N 0.33985 0.55086 0.97522 0.0
C707 C 0.36707 0.56957 0.9892 0.0
C708 C 0.37199 0.55763 0.0136 0.0
C709 C 0.85717 0.47438 0.14792 0.0
C710 C 0.84226 0.45798 0.17161 0.0
C711 C 0.84169 0.46571 0.12278 0.0
C712 C 0.81066 0.4402 0.12026 0.0
H713 H 0.88082 0.49453 0.14891 0.0
H714 H 0.85401 0.47955 0.10527 0.0
S715 S 0.76163 0.38882 0.1761 0.0
N716 N 0.79511 0.41453 0.19101 0.0
N717 N 0.76603 0.39783 0.14358 0.0
C718 C 0.79594 0.42279 0.14362 0.0
C719 C 0.81173 0.43177 0.16933 0.0
loop_
_geom_bond_atom_site_label_1
_geom_bond_atom_site_label_2
_geom_bond_distance
_geom_bond_site_symmetry_2
_ccdc_geom_bond_type
H0 C27 0.929 . S
N1 C26 1.433 . S
N1 C32 1.435 . S
N1 C38 1.423 . S
H2 C28 0.930 . S
H3 C31 0.931 . S
H4 C30 0.929 . S
H5 C33 0.930 . S
H6 C34 0.932 . S
H7 C37 0.929 . S
H8 C36 0.931 . S
H9 C39 0.929 . S
H10 C43 0.932 . S
H11 C40 0.931 . S
H12 C42 0.929 . S
H13 C45 0.929 . S
H14 C46 0.930 . S
H15 C48 0.929 . S
H16 C49 0.931 . S
H17 C51 0.930 . S
H18 C52 0.932 . S
H19 C54 0.931 . S
H20 C55 0.929 . S
H21 C57 0.929 . S
H22 C58 0.931 . S
H23 C60 0.929 . S
N24 C44 1.433 . S
N24 C50 1.435 . S
N24 C56 1.423 . S
H25 C61 0.932 . S
C26 N1 1.433 . S
C26 C27 1.363 . S
C26 C31 1.370 . S
C27 H0 0.929 . S
C27 C26 1.363 . S
C27 C28 1.385 . S
C28 H2 0.930 . S
C28 C27 1.385 . S
C28 C29 1.357 . S
C29 C28 1.357 . S
C29 C30 1.406 . S
C30 H4 0.929 . S
C30 C29 1.406 . S
C30 C31 1.391 . S
C31 H3 0.931 . S
C31 C26 1.370 . S
C31 C30 1.391 . S
C32 N1 1.435 . S
C32 C33 1.358 . S
C32 C37 1.371 . S
C33 H5 0.930 . S
C33 C32 1.358 . S
C33 C34 1.405 . S
C34 H6 0.932 . S
C34 C33 1.405 . S
C34 C35 1.383 . S
C35 C34 1.383 . S
C35 C36 1.393 . S
C36 H8 0.931 . S
C36 C35 1.393 . S
C36 C37 1.382 . S
C37 H7 0.929 . S
C37 C32 1.371 . S
C37 C36 1.382 . S
C38 N1 1.423 . S
C38 C39 1.362 . S
C38 C43 1.388 . S
C39 H9 0.929 . S
C39 C38 1.362 . S
C39 C40 1.376 . S
C40 H11 0.931 . S
C40 C39 1.376 . S
C40 C41 1.396 . S
C41 C40 1.396 . S
C41 C42 1.348 . S
C41 C59 1.472 1_455 S
C42 H12 0.929 . S
C42 C41 1.348 . S
C42 C43 1.443 . S
C43 H10 0.932 . S
C43 C38 1.388 . S
C43 C42 1.443 . S
C44 N24 1.433 . S
C44 C45 1.363 . S
C44 C49 1.370 . S
C45 H13 0.929 . S
C45 C44 1.363 . S
C45 C46 1.385 . S
C46 H14 0.930 . S
C46 C45 1.385 . S
C46 C47 1.357 . S
C47 C46 1.357 . S
C47 C48 1.406 . S
C48 H15 0.929 . S
C48 C47 1.406 . S
C48 C49 1.391 . S
C49 H16 0.931 . S
C49 C44 1.370 . S
C49 C48 1.391 . S
C50 N24 1.435 . S
C50 C51 1.358 . S
C50 C55 1.371 . S
C51 H17 0.930 . S
C51 C50 1.358 . S
C51 C52 1.405 . S
C52 H18 0.932 . S
C52 C51 1.405 . S
C52 C53 1.383 . S
C53 C52 1.383 . S
C53 C54 1.393 . S
C54 H19 0.931 . S
C54 C53 1.393 . S
C54 C55 1.382 . S
C55 H20 0.929 . S
C55 C50 1.371 . S
C55 C54 1.382 . S
C56 N24 1.423 . S
C56 C57 1.362 . S
C56 C61 1.388 . S
C57 H21 0.929 . S
C57 C56 1.362 . S
C57 C58 1.376 . S
C58 H22 0.931 . S
C58 C57 1.376 . S
C58 C59 1.396 . S
C59 C41 1.472 1_655 S
C59 C58 1.396 . S
C59 C60 1.348 . S
C60 H23 0.929 . S
C60 C59 1.348 . S
C60 C61 1.443 . S
C61 H25 0.932 . S
C61 C56 1.388 . S
C61 C60 1.443 . S
H62 C89 0.929 . S
N63 C88 1.433 . S
N63 C94 1.435 . S
N63 C100 1.423 . S
H64 C90 0.930 . S
H65 C93 0.931 . S
H66 C92 0.929 . S
H67 C95 0.930 . S
H68 C96 0.932 . S
H69 C99 0.929 . S
H70 C98 0.931 . S
H71 C101 0.929 . S
H72 C105 0.932 . S
H73 C102 0.931 . S
H74 C104 0.929 1_545 S
H75 C107 0.929 . S
H76 C108 0.930 . S
H77 C110 0.929 . S
H78 C111 0.931 . S
H79 C113 0.930 . S
H80 C114 0.932 . S
H81 C116 0.931 . S
H82 C117 0.929 . S
H83 C119 0.929 . S
H84 C120 0.931 . S
H85 C122 0.929 . S
N86 C106 1.433 . S
N86 C112 1.435 . S
N86 C118 1.423 . S
H87 C123 0.932 . S
C88 N63 1.433 . S
C88 C89 1.363 . S
C88 C93 1.370 . S
C89 H62 0.929 . S
C89 C88 1.363 . S
C89 C90 1.385 . S
C90 H64 0.930 . S
C90 C89 1.385 . S
C90 C91 1.357 . S
C91 C90 1.357 . S
C91 C92 1.406 . S
C92 H66 0.929 . S
C92 C91 1.406 . S
C92 C93 1.391 . S
C93 H65 0.931 . S
C93 C88 1.370 . S
C93 C92 1.391 . S
C94 N63 1.435 . S
C94 C95 1.358 . S
C94 C99 1.371 . S
C95 H67 0.930 . S
C95 C94 1.358 . S
C95 C96 1.405 . S
C96 H68 0.932 . S
C96 C95 1.405 . S
C96 C97 1.383 . S
C97 C96 1.383 . S
C97 C98 1.393 . S
C98 H70 0.931 . S
C98 C97 1.393 . S
C98 C99 1.382 . S
C99 H69 0.929 . S
C99 C94 1.371 . S
C99 C98 1.382 . S
C100 N63 1.423 . S
C100 C101 1.362 . S
C100 C105 1.388 . S
C101 H71 0.929 . S
C101 C100 1.362 . S
C101 C102 1.376 . S
C102 H73 0.931 . S
C102 C101 1.376 . S
C102 C103 1.396 1_565 S
C103 C102 1.396 1_545 S
C103 C104 1.348 1_545 S
C103 C121 1.472 . S
C104 H74 0.929 1_565 S
C104 C103 1.348 1_565 S
C104 C105 1.443 . S
C105 H72 0.932 . S
C105 C100 1.388 . S
C105 C104 1.443 . S
C106 N86 1.433 . S
C106 C107 1.363 . S
C106 C111 1.370 . S
C107 H75 0.929 . S
C107 C106 1.363 . S
C107 C108 1.385 . S
C108 H76 0.930 . S
C108 C107 1.385 . S
C108 C109 1.357 . S
C109 C108 1.357 . S
C109 C110 1.406 . S
C110 H77 0.929 . S
C110 C109 1.406 . S
C110 C111 1.391 . S
C111 H78 0.931 . S
C111 C106 1.370 . S
C111 C110 1.391 . S
C112 N86 1.435 . S
C112 C113 1.358 . S
C112 C117 1.371 . S
C113 H79 0.930 . S
C113 C112 1.358 . S
C113 C114 1.405 . S
C114 H80 0.932 . S
C114 C113 1.405 . S
C114 C115 1.383 . S
C115 C114 1.383 . S
C115 C116 1.393 . S
C116 H81 0.931 . S
C116 C115 1.393 . S
C116 C117 1.382 . S
C117 H82 0.929 . S
C117 C112 1.371 . S
C117 C116 1.382 . S
C118 N86 1.423 . S
C118 C119 1.362 . S
C118 C123 1.388 . S
C119 H83 0.929 . S
C119 C118 1.362 . S
C119 C120 1.376 . S
C120 H84 0.931 . S
C120 C119 1.376 . S
C120 C121 1.396 . S
C121 C103 1.472 . S
C121 C120 1.396 . S
C121 C122 1.348 . S
C122 H85 0.929 . S
C122 C121 1.348 . S
C122 C123 1.443 . S
C123 H87 0.932 . S
C123 C118 1.388 . S
C123 C122 1.443 . S
H124 C151 0.929 . S
N125 C150 1.433 . S
N125 C156 1.435 . S
N125 C162 1.423 . S
H126 C152 0.930 . S
H127 C155 0.931 . S
H128 C154 0.929 . S
H129 C157 0.930 . S
H130 C158 0.932 . S
H131 C161 0.929 . S
H132 C160 0.931 . S
H133 C163 0.929 . S
H134 C167 0.932 . S
H135 C164 0.931 . S
H136 C166 0.929 . S
H137 C169 0.929 . S
H138 C170 0.930 . S
H139 C172 0.929 . S
H140 C173 0.931 . S
H141 C175 0.930 . S
H142 C176 0.932 . S
H143 C178 0.931 . S
H144 C179 0.929 . S
H145 C181 0.929 . S
H146 C182 0.931 . S
H147 C184 0.929 . S
N148 C168 1.433 . S
N148 C174 1.435 . S
N148 C180 1.423 . S
H149 C185 0.932 . S
C150 N125 1.433 . S
C150 C151 1.363 . S
C150 C155 1.370 . S
C151 H124 0.929 . S
C151 C150 1.363 . S
C151 C152 1.385 . S
C152 H126 0.930 . S
C152 C151 1.385 . S
C152 C153 1.357 . S
C153 C152 1.357 . S
C153 C154 1.406 . S
C154 H128 0.929 . S
C154 C153 1.406 . S
C154 C155 1.391 . S
C155 H127 0.931 . S
C155 C150 1.370 . S
C155 C154 1.391 . S
C156 N125 1.435 . S
C156 C157 1.358 . S
C156 C161 1.371 . S
C157 H129 0.930 . S
C157 C156 1.358 . S
C157 C158 1.405 . S
C158 H130 0.932 . S
C158 C157 1.405 . S
C158 C159 1.383 . S
C159 C158 1.383 . S
C159 C160 1.393 . S
C160 H132 0.931 . S
C160 C159 1.393 . S
C160 C161 1.382 . S
C161 H131 0.929 . S
C161 C156 1.371 . S
C161 C160 1.382 . S
C162 N125 1.423 . S
C162 C163 1.362 . S
C162 C167 1.388 . S
C163 H133 0.929 . S
C163 C162 1.362 . S
C163 C164 1.376 . S
C164 H135 0.931 . S
C164 C163 1.376 . S
C164 C165 1.396 . S
C165 C164 1.396 . S
C165 C166 1.348 . S
C165 C183 1.472 . S
C166 H136 0.929 . S
C166 C165 1.348 . S
C166 C167 1.443 . S
C167 H134 0.932 . S
C167 C162 1.388 . S
C167 C166 1.443 . S
C168 N148 1.433 . S
C168 C169 1.363 . S
C168 C173 1.370 . S
C169 H137 0.929 . S
C169 C168 1.363 . S
C169 C170 1.385 . S
C170 H138 0.930 . S
C170 C169 1.385 . S
C170 C171 1.357 . S
C171 C170 1.357 . S
C171 C172 1.406 . S
C172 H139 0.929 . S
C172 C171 1.406 . S
C172 C173 1.391 . S
C173 H140 0.931 . S
C173 C168 1.370 . S
C173 C172 1.391 . S
C174 N148 1.435 . S
C174 C175 1.358 . S
C174 C179 1.371 . S
C175 H141 0.930 . S
C175 C174 1.358 . S
C175 C176 1.405 . S
C176 H142 0.932 . S
C176 C175 1.405 . S
C176 C177 1.383 . S
C177 C176 1.383 . S
C177 C178 1.393 . S
C178 H143 0.931 . S
C178 C177 1.393 . S
C178 C179 1.382 . S
C179 H144 0.929 . S
C179 C174 1.371 . S
C179 C178 1.382 . S
C180 N148 1.423 . S
C180 C181 1.362 . S
C180 C185 1.388 . S
C181 H145 0.929 . S
C181 C180 1.362 . S
C181 C182 1.376 . S
C182 H146 0.931 . S
C182 C181 1.376 . S
C182 C183 1.396 . S
C183 C165 1.472 . S
C183 C182 1.396 . S
C183 C184 1.348 . S
C184 H147 0.929 . S
C184 C183 1.348 . S
C184 C185 1.443 . S
C185 H149 0.932 . S
C185 C180 1.388 . S
C185 C184 1.443 . S
H186 C213 0.929 . S
N187 C212 1.433 . S
N187 C218 1.435 . S
N187 C224 1.423 . S
H188 C214 0.930 . S
H189 C217 0.931 . S
H190 C216 0.929 . S
H191 C219 0.930 . S
H192 C220 0.932 . S
H193 C223 0.929 . S
H194 C222 0.931 . S
H195 C225 0.929 . S
H196 C229 0.932 . S
H197 C226 0.931 . S
H198 C228 0.929 . S
H199 C231 0.929 . S
H200 C232 0.930 . S
H201 C234 0.929 . S
H202 C235 0.931 . S
H203 C237 0.930 . S
H204 C238 0.932 . S
H205 C240 0.931 . S
H206 C241 0.929 . S
H207 C243 0.929 . S
H208 C244 0.931 . S
H209 C246 0.929 . S
N210 C230 1.433 . S
N210 C236 1.435 . S
N210 C242 1.423 . S
H211 C247 0.932 . S
C212 N187 1.433 . S
C212 C213 1.363 . S
C212 C217 1.370 . S
C213 H186 0.929 . S
C213 C212 1.363 . S
C213 C214 1.385 . S
C214 H188 0.930 . S
C214 C213 1.385 . S
C214 C215 1.357 . S
C215 C214 1.357 . S
C215 C216 1.406 . S
C216 H190 0.929 . S
C216 C215 1.406 . S
C216 C217 1.391 . S
C217 H189 0.931 . S
C217 C212 1.370 . S
C217 C216 1.391 . S
C218 N187 1.435 . S
C218 C219 1.358 . S
C218 C223 1.371 . S
C219 H191 0.930 . S
C219 C218 1.358 . S
C219 C220 1.405 . S
C220 H192 0.932 . S
C220 C219 1.405 . S
C220 C221 1.383 . S
C221 C220 1.383 . S
C221 C222 1.393 . S
C222 H194 0.931 . S
C222 C221 1.393 . S
C222 C223 1.382 . S
C223 H193 0.929 . S
C223 C218 1.371 . S
C223 C222 1.382 . S
C224 N187 1.423 . S
C224 C225 1.362 . S
C224 C229 1.388 . S
C225 H195 0.929 . S
C225 C224 1.362 . S
C225 C226 1.376 . S
C226 H197 0.931 . S
C226 C225 1.376 . S
C226 C227 1.396 . S
C227 C226 1.396 . S
C227 C228 1.348 . S
C227 C245 1.472 1_455 S
C228 H198 0.929 . S
C228 C227 1.348 . S
C228 C229 1.443 . S
C229 H196 0.932 . S
C229 C224 1.388 . S
C229 C228 1.443 . S
C230 N210 1.433 . S
C230 C231 1.363 . S
C230 C235 1.370 . S
C231 H199 0.929 . S
C231 C230 1.363 . S
C231 C232 1.385 . S
C232 H200 0.930 . S
C232 C231 1.385 . S
C232 C233 1.357 . S
C233 C232 1.357 . S
C233 C234 1.406 . S
C234 H201 0.929 . S
C234 C233 1.406 . S
C234 C235 1.391 . S
C235 H202 0.931 . S
C235 C230 1.370 . S
C235 C234 1.391 . S
C236 N210 1.435 . S
C236 C237 1.358 . S
C236 C241 1.371 . S
C237 H203 0.930 . S
C237 C236 1.358 . S
C237 C238 1.405 . S
C238 H204 0.932 . S
C238 C237 1.405 . S
C238 C239 1.383 . S
C239 C238 1.383 . S
C239 C240 1.393 . S
C240 H205 0.931 . S
C240 C239 1.393 . S
C240 C241 1.382 . S
C241 H206 0.929 . S
C241 C236 1.371 . S
C241 C240 1.382 . S
C242 N210 1.423 . S
C242 C243 1.362 . S
C242 C247 1.388 . S
C243 H207 0.929 . S
C243 C242 1.362 . S
C243 C244 1.376 . S
C244 H208 0.931 . S
C244 C243 1.376 . S
C244 C245 1.396 . S
C245 C227 1.472 1_655 S
C245 C244 1.396 . S
C245 C246 1.348 . S
C246 H209 0.929 . S
C246 C245 1.348 . S
C246 C247 1.443 . S
C247 H211 0.932 . S
C247 C242 1.388 . S
C247 C246 1.443 . S
H248 C275 0.929 . S
N249 C274 1.433 . S
N249 C280 1.435 . S
N249 C286 1.423 . S
H250 C276 0.930 . S
H251 C279 0.931 . S
H252 C278 0.929 . S
H253 C281 0.930 . S
H254 C282 0.932 . S
H255 C285 0.929 . S
H256 C284 0.931 . S
H257 C287 0.929 . S
H258 C291 0.932 . S
H259 C288 0.931 . S
H260 C290 0.929 . S
H261 C293 0.929 . S
H262 C294 0.930 . S
H263 C296 0.929 . S
H264 C297 0.931 . S
H265 C299 0.937 . S
H266 C300 0.932 . S
H267 C302 0.931 . S
H268 C303 0.929 . S
H269 C305 0.929 . S
H270 C306 0.930 1_554 S
H271 C308 0.929 . S
N272 C292 1.433 . S
N272 C298 1.435 1_554 S
N272 C304 1.423 1_554 S
H273 C309 0.932 . S
C274 N249 1.433 . S
C274 C275 1.363 . S
C274 C279 1.370 . S
C275 H248 0.929 . S
C275 C274 1.363 . S
C275 C276 1.385 . S
C276 H250 0.930 . S
C276 C275 1.385 . S
C276 C277 1.357 1_556 S
C277 C276 1.357 1_554 S
C277 C278 1.406 . S
C278 H252 0.929 . S
C278 C277 1.406 . S
C278 C279 1.391 1_554 S
C279 H251 0.931 . S
C279 C274 1.370 . S
C279 C278 1.391 1_556 S
C280 N249 1.435 . S
C280 C281 1.358 . S
C280 C285 1.371 . S
C281 H253 0.930 . S
C281 C280 1.358 . S
C281 C282 1.405 . S
C282 H254 0.932 . S
C282 C281 1.405 . S
C282 C283 1.383 . S
C283 C282 1.383 . S
C283 C284 1.393 . S
C284 H256 0.931 . S
C284 C283 1.393 . S
C284 C285 1.382 . S
C285 H255 0.929 . S
C285 C280 1.371 . S
C285 C284 1.382 . S
C286 N249 1.423 . S
C286 C287 1.362 . S
C286 C291 1.388 . S
C287 H257 0.929 . S
C287 C286 1.362 . S
C287 C288 1.376 . S
C288 H259 0.931 . S
C288 C287 1.376 . S
C288 C289 1.396 . S
C289 C288 1.396 . S
C289 C290 1.348 . S
C289 C307 1.472 1_545 S
C290 H260 0.929 . S
C290 C289 1.348 . S
C290 C291 1.443 . S
C291 H258 0.932 . S
C291 C286 1.388 . S
C291 C290 1.443 . S
C292 N272 1.433 . S
C292 C293 1.363 . S
C292 C297 1.370 . S
C293 H261 0.929 . S
C293 C292 1.363 . S
C293 C294 1.385 . S
C294 H262 0.930 . S
C294 C293 1.385 . S
C294 C295 1.357 . S
C295 C294 1.357 . S
C295 C296 1.406 . S
C296 H263 0.929 . S
C296 C295 1.406 . S
C296 C297 1.391 . S
C297 H264 0.931 . S
C297 C292 1.370 . S
C297 C296 1.391 . S
C298 N272 1.435 1_556 S
C298 C299 1.356 1_556 S
C298 C303 1.371 . S
C299 H265 0.937 . S
C299 C298 1.356 1_554 S
C299 C300 1.400 1_554 S
C300 H266 0.932 . S
C300 C299 1.400 1_556 S
C300 C301 1.383 . S
C301 C300 1.383 . S
C301 C302 1.393 . S
C302 H267 0.931 . S
C302 C301 1.393 . S
C302 C303 1.382 . S
C303 H268 0.929 . S
C303 C298 1.371 . S
C303 C302 1.382 . S
C304 N272 1.423 1_556 S
C304 C305 1.362 1_556 S
C304 C309 1.388 . S
C305 H269 0.929 . S
C305 C304 1.362 1_554 S
C305 C306 1.375 1_554 S
C306 H270 0.930 1_556 S
C306 C305 1.375 1_556 S
C306 C307 1.399 . S
C307 C289 1.472 1_565 S
C307 C306 1.399 . S
C307 C308 1.348 . S
C308 H271 0.929 . S
C308 C307 1.348 . S
C308 C309 1.443 . S
C309 H273 0.932 . S
C309 C304 1.388 . S
C309 C308 1.443 . S
H310 C337 0.929 . S
N311 C336 1.433 . S
N311 C342 1.435 . S
N311 C348 1.423 . S
H312 C338 0.930 . S
H313 C341 0.931 . S
H314 C340 0.929 . S
H315 C343 0.930 . S
H316 C344 0.932 . S
H317 C347 0.929 . S
H318 C346 0.931 . S
H319 C349 0.929 . S
H320 C353 0.932 . S
H321 C350 0.931 . S
H322 C352 0.929 . S
H323 C355 0.929 . S
H324 C356 0.930 . S
H325 C358 0.929 . S
H326 C359 0.931 . S
H327 C361 0.930 . S
H328 C362 0.932 . S
H329 C364 0.931 . S
H330 C365 0.929 . S
H331 C367 0.929 . S
H332 C368 0.931 . S
H333 C370 0.929 . S
N334 C354 1.433 . S
N334 C360 1.435 . S
N334 C366 1.423 . S
H335 C371 0.932 . S
C336 N311 1.433 . S
C336 C337 1.363 . S
C336 C341 1.370 . S
C337 H310 0.929 . S
C337 C336 1.363 . S
C337 C338 1.385 . S
C338 H312 0.930 . S
C338 C337 1.385 . S
C338 C339 1.357 . S
C339 C338 1.357 . S
C339 C340 1.406 . S
C340 H314 0.929 . S
C340 C339 1.406 . S
C340 C341 1.391 . S
C341 H313 0.931 . S
C341 C336 1.370 . S
C341 C340 1.391 . S
C342 N311 1.435 . S
C342 C343 1.358 . S
C342 C347 1.371 . S
C343 H315 0.930 . S
C343 C342 1.358 . S
C343 C344 1.405 . S
C344 H316 0.932 . S
C344 C343 1.405 . S
C344 C345 1.383 . S
C345 C344 1.383 . S
C345 C346 1.393 . S
C346 H318 0.931 . S
C346 C345 1.393 . S
C346 C347 1.382 . S
C347 H317 0.929 . S
C347 C342 1.371 . S
C347 C346 1.382 . S
C348 N311 1.423 . S
C348 C349 1.362 . S
C348 C353 1.388 . S
C349 H319 0.929 . S
C349 C348 1.362 . S
C349 C350 1.376 . S
C350 H321 0.931 . S
C350 C349 1.376 . S
C350 C351 1.396 . S
C351 C350 1.396 . S
C351 C352 1.348 . S
C351 C369 1.472 . S
C352 H322 0.929 . S
C352 C351 1.348 . S
C352 C353 1.443 . S
C353 H320 0.932 . S
C353 C348 1.388 . S
C353 C352 1.443 . S
C354 N334 1.433 . S
C354 C355 1.363 . S
C354 C359 1.370 . S
C355 H323 0.929 . S
C355 C354 1.363 . S
C355 C356 1.385 . S
C356 H324 0.930 . S
C356 C355 1.385 . S
C356 C357 1.357 . S
C357 C356 1.357 . S
C357 C358 1.406 . S
C358 H325 0.929 . S
C358 C357 1.406 . S
C358 C359 1.391 . S
C359 H326 0.931 . S
C359 C354 1.370 . S
C359 C358 1.391 . S
C360 N334 1.435 . S
C360 C361 1.358 . S
C360 C365 1.371 . S
C361 H327 0.930 . S
C361 C360 1.358 . S
C361 C362 1.405 . S
C362 H328 0.932 . S
C362 C361 1.405 . S
C362 C363 1.383 . S
C363 C362 1.383 . S
C363 C364 1.393 . S
C364 H329 0.931 . S
C364 C363 1.393 . S
C364 C365 1.382 . S
C365 H330 0.929 . S
C365 C360 1.371 . S
C365 C364 1.382 . S
C366 N334 1.423 . S
C366 C367 1.362 . S
C366 C371 1.388 . S
C367 H331 0.929 . S
C367 C366 1.362 . S
C367 C368 1.376 . S
C368 H332 0.931 . S
C368 C367 1.376 . S
C368 C369 1.396 . S
C369 C351 1.472 . S
C369 C368 1.396 . S
C369 C370 1.348 . S
C370 H333 0.929 . S
C370 C369 1.348 . S
C370 C371 1.443 . S
C371 H335 0.932 . S
C371 C366 1.388 . S
C371 C370 1.443 . S
C372 O373 1.306 . S
C372 O375 1.160 . S
O373 C372 1.306 . S
O373 Cd374 2.228 . S
Cd374 O373 2.228 . S
Cd374 O378 2.273 . S
Cd374 O382 2.277 . S
O375 C372 1.160 . S
O375 Cd376 2.203 . S
Cd376 O375 2.203 . S
Cd376 O378 2.411 . S
Cd376 O379 2.333 . S
Cd376 O380 2.352 . S
Cd376 O384 2.277 . S
Cd376 O385 2.356 . S
C377 O382 1.209 . S
C377 O384 1.226 . S
O378 Cd374 2.273 . S
O378 Cd376 2.411 . S
O378 C381 1.320 . S
O379 Cd376 2.333 . S
O379 C381 1.214 . S
O380 Cd376 2.352 . S
O380 C383 1.258 . S
C381 O378 1.320 . S
C381 O379 1.214 . S
O382 Cd374 2.277 . S
O382 C377 1.209 . S
C383 O380 1.258 . S
C383 O385 1.282 . S
O384 Cd376 2.277 . S
O384 C377 1.226 . S
O385 Cd376 2.356 . S
O385 C383 1.282 . S
C386 O387 1.306 . S
C386 O389 1.160 . S
O387 C386 1.306 . S
O387 Cd388 2.228 . S
Cd388 O387 2.228 . S
Cd388 O392 2.273 . S
Cd388 O396 2.277 . S
O389 C386 1.160 . S
O389 Cd390 2.203 . S
Cd390 O389 2.203 . S
Cd390 O392 2.411 . S
Cd390 O393 2.333 . S
Cd390 O394 2.352 . S
Cd390 O398 2.277 . S
Cd390 O399 2.356 . S
C391 O396 1.209 . S
C391 O398 1.226 . S
O392 Cd388 2.273 . S
O392 Cd390 2.411 . S
O392 C395 1.320 . S
O393 Cd390 2.333 . S
O393 C395 1.214 . S
O394 Cd390 2.352 . S
O394 C397 1.258 . S
C395 O392 1.320 . S
C395 O393 1.214 . S
O396 Cd388 2.277 . S
O396 C391 1.209 . S
C397 O394 1.258 . S
C397 O399 1.282 . S
O398 Cd390 2.277 . S
O398 C391 1.226 . S
O399 Cd390 2.356 . S
O399 C397 1.282 . S
C400 O401 1.306 . S
C400 O403 1.160 . S
O401 C400 1.306 . S
O401 Cd402 2.228 . S
Cd402 O401 2.228 . S
Cd402 O406 2.273 . S
Cd402 O410 2.277 . S
O403 C400 1.160 . S
O403 Cd404 2.203 . S
Cd404 O403 2.203 . S
Cd404 O406 2.411 . S
Cd404 O407 2.333 . S
Cd404 O408 2.352 . S
Cd404 O412 2.277 . S
Cd404 O413 2.356 . S
C405 O410 1.209 . S
C405 O412 1.226 . S
O406 Cd402 2.273 . S
O406 Cd404 2.411 . S
O406 C409 1.320 . S
O407 Cd404 2.333 . S
O407 C409 1.214 . S
O408 Cd404 2.352 . S
O408 C411 1.258 . S
C409 O406 1.320 . S
C409 O407 1.214 . S
O410 Cd402 2.277 . S
O410 C405 1.209 . S
C411 O408 1.258 . S
C411 O413 1.282 . S
O412 Cd404 2.277 . S
O412 C405 1.226 . S
O413 Cd404 2.356 . S
O413 C411 1.282 . S
C414 O415 1.306 . S
C414 O417 1.160 . S
O415 C414 1.306 . S
O415 Cd416 2.228 . S
Cd416 O415 2.228 . S
Cd416 O420 2.273 . S
Cd416 O424 2.277 . S
O417 C414 1.160 . S
O417 Cd418 2.203 . S
Cd418 O417 2.203 . S
Cd418 O420 2.411 . S
Cd418 O421 2.333 . S
Cd418 O422 2.352 . S
Cd418 O426 2.277 . S
Cd418 O427 2.356 . S
C419 O424 1.209 . S
C419 O426 1.226 . S
O420 Cd416 2.273 . S
O420 Cd418 2.411 . S
O420 C423 1.320 . S
O421 Cd418 2.333 . S
O421 C423 1.214 . S
O422 Cd418 2.352 . S
O422 C425 1.258 . S
C423 O420 1.320 . S
C423 O421 1.214 . S
O424 Cd416 2.277 . S
O424 C419 1.209 . S
C425 O422 1.258 . S
C425 O427 1.282 . S
O426 Cd418 2.277 . S
O426 C419 1.226 . S
O427 Cd418 2.356 . S
O427 C425 1.282 . S
C428 O429 1.306 . S
C428 O431 1.160 . S
O429 C428 1.306 . S
O429 Cd430 2.228 . S
Cd430 O429 2.228 . S
Cd430 O434 2.273 . S
Cd430 O438 2.277 . S
O431 C428 1.160 . S
O431 Cd432 2.203 . S
Cd432 O431 2.203 . S
Cd432 O434 2.411 . S
Cd432 O435 2.333 . S
Cd432 O436 2.352 . S
Cd432 O440 2.277 . S
Cd432 O441 2.356 . S
C433 O438 1.209 . S
C433 O440 1.226 . S
O434 Cd430 2.273 . S
O434 Cd432 2.411 . S
O434 C437 1.320 . S
O435 Cd432 2.333 . S
O435 C437 1.214 . S
O436 Cd432 2.352 . S
O436 C439 1.258 . S
C437 O434 1.320 . S
C437 O435 1.214 . S
O438 Cd430 2.277 . S
O438 C433 1.209 . S
C439 O436 1.258 . S
C439 O441 1.282 . S
O440 Cd432 2.277 . S
O440 C433 1.226 . S
O441 Cd432 2.356 . S
O441 C439 1.282 . S
C442 O443 1.306 . S
C442 O445 1.160 . S
O443 C442 1.306 . S
O443 Cd444 2.228 . S
Cd444 O443 2.228 . S
Cd444 O448 2.273 . S
Cd444 O452 2.277 . S
O445 C442 1.160 . S
O445 Cd446 2.203 . S
Cd446 O445 2.203 . S
Cd446 O448 2.411 . S
Cd446 O449 2.333 . S
Cd446 O450 2.352 . S
Cd446 O454 2.277 . S
Cd446 O455 2.356 . S
C447 O452 1.209 . S
C447 O454 1.226 . S
O448 Cd444 2.273 . S
O448 Cd446 2.411 . S
O448 C451 1.320 . S
O449 Cd446 2.333 . S
O449 C451 1.214 . S
O450 Cd446 2.352 . S
O450 C453 1.258 . S
C451 O448 1.320 . S
C451 O449 1.214 . S
O452 Cd444 2.277 . S
O452 C447 1.209 . S
C453 O450 1.258 . S
C453 O455 1.282 . S
O454 Cd446 2.277 . S
O454 C447 1.226 . S
O455 Cd446 2.356 . S
O455 C453 1.282 . S
C456 C457 1.369 . S
C456 C458 1.419 . S
C456 H460 0.930 . S
C457 C456 1.369 . S
C457 C466 1.429 . S
C458 C456 1.419 . S
C458 C459 1.363 . S
C458 H461 0.929 . S
C459 C458 1.363 . S
C459 C465 1.428 . S
H460 C456 0.930 . S
H461 C458 0.929 . S
S462 N463 1.613 . S
S462 N464 1.610 . S
N463 S462 1.613 . S
N463 C466 1.350 . S
N464 S462 1.610 . S
N464 C465 1.351 . S
C465 C459 1.428 . S
C465 N464 1.351 . S
C465 C466 1.434 . S
C466 C457 1.429 . S
C466 N463 1.350 . S
C466 C465 1.434 . S
C467 C468 1.369 . S
C467 C469 1.419 . S
C467 H471 0.930 . S
C468 C467 1.369 . S
C468 C477 1.429 . S
C469 C467 1.419 . S
C469 C470 1.363 . S
C469 H472 0.929 . S
C470 C469 1.363 . S
C470 C476 1.428 . S
H471 C467 0.930 . S
H472 C469 0.929 . S
S473 N474 1.613 . S
S473 N475 1.610 . S
N474 S473 1.613 . S
N474 C477 1.350 . S
N475 S473 1.610 . S
N475 C476 1.351 . S
C476 C470 1.428 . S
C476 N475 1.351 . S
C476 C477 1.434 . S
C477 C468 1.429 . S
C477 N474 1.350 . S
C477 C476 1.434 . S
C478 C479 1.369 . S
C478 C480 1.419 . S
C478 H482 0.930 . S
C479 C478 1.369 . S
C479 C488 1.429 . S
C480 C478 1.419 . S
C480 C481 1.363 . S
C480 H483 0.929 . S
C481 C480 1.363 . S
C481 C487 1.428 . S
H482 C478 0.930 . S
H483 C480 0.929 . S
S484 N485 1.613 . S
S484 N486 1.610 . S
N485 S484 1.613 . S
N485 C488 1.350 . S
N486 S484 1.610 . S
N486 C487 1.351 . S
C487 C481 1.428 . S
C487 N486 1.351 . S
C487 C488 1.434 . S
C488 C479 1.429 . S
C488 N485 1.350 . S
C488 C487 1.434 . S
C489 C490 1.369 . S
C489 C491 1.419 . S
C489 H493 0.930 . S
C490 C489 1.369 . S
C490 C499 1.429 . S
C491 C489 1.419 . S
C491 C492 1.363 . S
C491 H494 0.929 . S
C492 C491 1.363 . S
C492 C498 1.428 . S
H493 C489 0.930 . S
H494 C491 0.929 . S
S495 N496 1.613 . S
S495 N497 1.610 . S
N496 S495 1.613 . S
N496 C499 1.350 . S
N497 S495 1.610 . S
N497 C498 1.351 . S
C498 C492 1.428 . S
C498 N497 1.351 . S
C498 C499 1.434 . S
C499 C490 1.429 . S
C499 N496 1.350 . S
C499 C498 1.434 . S
C500 C501 1.369 . S
C500 C502 1.419 . S
C500 H504 0.930 . S
C501 C500 1.369 . S
C501 C510 1.429 . S
C502 C500 1.419 . S
C502 C503 1.363 . S
C502 H505 0.929 . S
C503 C502 1.363 . S
C503 C509 1.428 . S
H504 C500 0.930 . S
H505 C502 0.929 . S
S506 N507 1.613 . S
S506 N508 1.610 . S
N507 S506 1.613 . S
N507 C510 1.350 . S
N508 S506 1.610 . S
N508 C509 1.351 . S
C509 C503 1.428 . S
C509 N508 1.351 . S
C509 C510 1.434 . S
C510 C501 1.429 . S
C510 N507 1.350 . S
C510 C509 1.434 . S
C511 C512 1.369 . S
C511 C513 1.419 . S
C511 H515 0.930 . S
C512 C511 1.369 . S
C512 C521 1.429 . S
C513 C511 1.419 . S
C513 C514 1.363 . S
C513 H516 0.929 . S
C514 C513 1.363 . S
C514 C520 1.428 . S
H515 C511 0.930 . S
H516 C513 0.929 . S
S517 N518 1.613 . S
S517 N519 1.610 . S
N518 S517 1.613 . S
N518 C521 1.350 . S
N519 S517 1.610 . S
N519 C520 1.351 . S
C520 C514 1.428 . S
C520 N519 1.351 . S
C520 C521 1.434 . S
C521 C512 1.429 . S
C521 N518 1.350 . S
C521 C520 1.434 . S
C522 C523 1.369 . S
C522 C524 1.419 . S
C522 H526 0.930 . S
C523 C522 1.369 . S
C523 C532 1.429 . S
C524 C522 1.419 . S
C524 C525 1.363 . S
C524 H527 0.929 . S
C525 C524 1.363 . S
C525 C531 1.428 . S
H526 C522 0.930 . S
H527 C524 0.929 . S
S528 N529 1.613 . S
S528 N530 1.610 . S
N529 S528 1.613 . S
N529 C532 1.350 . S
N530 S528 1.610 . S
N530 C531 1.351 . S
C531 C525 1.428 . S
C531 N530 1.351 . S
C531 C532 1.434 . S
C532 C523 1.429 . S
C532 N529 1.350 . S
C532 C531 1.434 . S
C533 C534 1.369 . S
C533 C535 1.419 . S
C533 H537 0.930 . S
C534 C533 1.369 . S
C534 C543 1.429 . S
C535 C533 1.419 . S
C535 C536 1.363 . S
C535 H538 0.929 . S
C536 C535 1.363 . S
C536 C542 1.428 . S
H537 C533 0.930 . S
H538 C535 0.929 . S
S539 N540 1.613 . S
S539 N541 1.610 . S
N540 S539 1.613 . S
N540 C543 1.350 . S
N541 S539 1.610 . S
N541 C542 1.351 . S
C542 C536 1.428 . S
C542 N541 1.351 . S
C542 C543 1.434 . S
C543 C534 1.429 . S
C543 N540 1.350 . S
C543 C542 1.434 . S
C544 C545 1.369 . S
C544 C546 1.419 . S
C544 H548 0.930 . S
C545 C544 1.369 . S
C545 C554 1.429 . S
C546 C544 1.419 . S
C546 C547 1.363 . S
C546 H549 0.929 . S
C547 C546 1.363 . S
C547 C553 1.428 . S
H548 C544 0.930 . S
H549 C546 0.929 . S
S550 N551 1.613 . S
S550 N552 1.610 . S
N551 S550 1.613 . S
N551 C554 1.350 . S
N552 S550 1.610 . S
N552 C553 1.351 . S
C553 C547 1.428 . S
C553 N552 1.351 . S
C553 C554 1.434 . S
C554 C545 1.429 . S
C554 N551 1.350 . S
C554 C553 1.434 . S
C555 C556 1.369 . S
C555 C557 1.419 . S
C555 H559 0.930 . S
C556 C555 1.369 . S
C556 C565 1.429 . S
C557 C555 1.419 . S
C557 C558 1.363 . S
C557 H560 0.929 . S
C558 C557 1.363 . S
C558 C564 1.428 . S
H559 C555 0.930 . S
H560 C557 0.929 . S
S561 N562 1.613 . S
S561 N563 1.605 1_556 S
N562 S561 1.613 . S
N562 C565 1.350 1_556 S
N563 S561 1.605 1_554 S
N563 C564 1.357 . S
C564 C558 1.428 . S
C564 N563 1.357 . S
C564 C565 1.434 . S
C565 C556 1.429 . S
C565 N562 1.350 1_554 S
C565 C564 1.434 . S
C566 C567 1.369 . S
C566 C568 1.419 . S
C566 H570 0.930 . S
C567 C566 1.369 . S
C567 C576 1.429 . S
C568 C566 1.419 . S
C568 C569 1.363 . S
C568 H571 0.929 . S
C569 C568 1.363 . S
C569 C575 1.428 . S
H570 C566 0.930 . S
H571 C568 0.929 . S
S572 N573 1.613 . S
S572 N574 1.610 . S
N573 S572 1.613 . S
N573 C576 1.350 . S
N574 S572 1.610 . S
N574 C575 1.351 . S
C575 C569 1.428 . S
C575 N574 1.351 . S
C575 C576 1.434 . S
C576 C567 1.429 . S
C576 N573 1.350 . S
C576 C575 1.434 . S
C577 C578 1.369 . S
C577 C579 1.419 . S
C577 H581 0.930 . S
C578 C577 1.369 . S
C578 C587 1.429 . S
C579 C577 1.419 . S
C579 C580 1.363 . S
C579 H582 0.929 . S
C580 C579 1.363 . S
C580 C586 1.428 . S
H581 C577 0.930 . S
H582 C579 0.929 . S
S583 N584 1.613 . S
S583 N585 1.610 . S
N584 S583 1.613 . S
N584 C587 1.350 . S
N585 S583 1.610 . S
N585 C586 1.351 . S
C586 C580 1.428 . S
C586 N585 1.351 . S
C586 C587 1.434 . S
C587 C578 1.429 . S
C587 N584 1.350 . S
C587 C586 1.434 . S
C588 C589 1.369 . S
C588 C590 1.419 . S
C588 H592 0.930 . S
C589 C588 1.369 . S
C589 C598 1.429 . S
C590 C588 1.419 . S
C590 C591 1.363 . S
C590 H593 0.929 . S
C591 C590 1.363 . S
C591 C597 1.428 . S
H592 C588 0.930 . S
H593 C590 0.929 . S
S594 N595 1.613 . S
S594 N596 1.610 . S
N595 S594 1.613 . S
N595 C598 1.350 . S
N596 S594 1.610 . S
N596 C597 1.351 . S
C597 C591 1.428 . S
C597 N596 1.351 . S
C597 C598 1.434 . S
C598 C589 1.429 . S
C598 N595 1.350 . S
C598 C597 1.434 . S
C599 C600 1.369 . S
C599 C601 1.419 . S
C599 H603 0.930 . S
C600 C599 1.369 . S
C600 C609 1.429 . S
C601 C599 1.419 . S
C601 C602 1.363 . S
C601 H604 0.929 . S
C602 C601 1.363 . S
C602 C608 1.428 . S
H603 C599 0.930 . S
H604 C601 0.929 . S
S605 N606 1.613 . S
S605 N607 1.610 . S
N606 S605 1.613 . S
N606 C609 1.350 . S
N607 S605 1.610 . S
N607 C608 1.351 . S
C608 C602 1.428 . S
C608 N607 1.351 . S
C608 C609 1.434 . S
C609 C600 1.429 . S
C609 N606 1.350 . S
C609 C608 1.434 . S
C610 C611 1.369 . S
C610 C612 1.419 . S
C610 H614 0.930 . S
C611 C610 1.369 . S
C611 C620 1.429 . S
C612 C610 1.419 . S
C612 C613 1.363 . S
C612 H615 0.929 . S
C613 C612 1.363 . S
C613 C619 1.428 . S
H614 C610 0.930 . S
H615 C612 0.929 . S
S616 N617 1.613 . S
S616 N618 1.610 . S
N617 S616 1.613 . S
N617 C620 1.350 . S
N618 S616 1.610 . S
N618 C619 1.351 . S
C619 C613 1.428 . S
C619 N618 1.351 . S
C619 C620 1.434 . S
C620 C611 1.429 . S
C620 N617 1.350 . S
C620 C619 1.434 . S
C621 C622 1.369 . S
C621 C623 1.419 . S
C621 H625 0.930 . S
C622 C621 1.369 . S
C622 C631 1.429 . S
C623 C621 1.419 . S
C623 C624 1.363 . S
C623 H626 0.929 . S
C624 C623 1.363 . S
C624 C630 1.428 1_556 S
H625 C621 0.930 . S
H626 C623 0.929 . S
S627 N628 1.613 1_554 S
S627 N629 1.610 . S
N628 S627 1.613 1_556 S
N628 C631 1.350 . S
N629 S627 1.610 . S
N629 C630 1.351 . S
C630 C624 1.428 1_554 S
C630 N629 1.351 . S
C630 C631 1.434 1_554 S
C631 C622 1.429 . S
C631 N628 1.350 . S
C631 C630 1.434 1_556 S
C632 C633 1.369 . S
C632 C634 1.419 . S
C632 H636 0.930 . S
C633 C632 1.369 . S
C633 C642 1.429 . S
C634 C632 1.419 . S
C634 C635 1.363 . S
C634 H637 0.929 . S
C635 C634 1.363 . S
C635 C641 1.428 . S
H636 C632 0.930 . S
H637 C634 0.929 . S
S638 N639 1.613 . S
S638 N640 1.610 . S
N639 S638 1.613 . S
N639 C642 1.350 . S
N640 S638 1.610 . S
N640 C641 1.351 . S
C641 C635 1.428 . S
C641 N640 1.351 . S
C641 C642 1.434 . S
C642 C633 1.429 . S
C642 N639 1.350 . S
C642 C641 1.434 . S
C643 C644 1.369 . S
C643 C645 1.419 . S
C643 H647 0.930 . S
C644 C643 1.369 . S
C644 C653 1.429 . S
C645 C643 1.419 . S
C645 C646 1.363 . S
C645 H648 0.929 . S
C646 C645 1.363 . S
C646 C652 1.428 . S
H647 C643 0.930 . S
H648 C645 0.929 . S
S649 N650 1.613 . S
S649 N651 1.610 . S
N650 S649 1.613 . S
N650 C653 1.350 . S
N651 S649 1.610 . S
N651 C652 1.351 . S
C652 C646 1.428 . S
C652 N651 1.351 . S
C652 C653 1.434 . S
C653 C644 1.429 . S
C653 N650 1.350 . S
C653 C652 1.434 . S
C654 C655 1.369 . S
C654 C656 1.419 . S
C654 H658 0.930 . S
C655 C654 1.369 . S
C655 C664 1.429 . S
C656 C654 1.419 . S
C656 C657 1.363 . S
C656 H659 0.929 . S
C657 C656 1.363 . S
C657 C663 1.428 . S
H658 C654 0.930 . S
H659 C656 0.929 . S
S660 N661 1.613 . S
S660 N662 1.610 . S
N661 S660 1.613 . S
N661 C664 1.350 . S
N662 S660 1.610 . S
N662 C663 1.351 . S
C663 C657 1.428 . S
C663 N662 1.351 . S
C663 C664 1.434 . S
C664 C655 1.429 . S
C664 N661 1.350 . S
C664 C663 1.434 . S
C665 C666 1.369 . S
C665 C667 1.419 . S
C665 H669 0.930 . S
C666 C665 1.369 . S
C666 C675 1.429 . S
C667 C665 1.419 . S
C667 C668 1.363 . S
C667 H670 0.929 . S
C668 C667 1.363 . S
C668 C674 1.428 . S
H669 C665 0.930 . S
H670 C667 0.929 . S
S671 N672 1.613 . S
S671 N673 1.610 . S
N672 S671 1.613 . S
N672 C675 1.350 . S
N673 S671 1.610 . S
N673 C674 1.351 . S
C674 C668 1.428 . S
C674 N673 1.351 . S
C674 C675 1.434 . S
C675 C666 1.429 . S
C675 N672 1.350 . S
C675 C674 1.434 . S
C676 C677 1.369 . S
C676 C678 1.419 . S
C676 H680 0.930 . S
C677 C676 1.369 . S
C677 C686 1.429 . S
C678 C676 1.419 . S
C678 C679 1.363 . S
C678 H681 0.929 . S
C679 C678 1.363 . S
C679 C685 1.428 . S
H680 C676 0.930 . S
H681 C678 0.929 . S
S682 N683 1.613 . S
S682 N684 1.610 . S
N683 S682 1.613 . S
N683 C686 1.350 . S
N684 S682 1.610 . S
N684 C685 1.351 . S
C685 C679 1.428 . S
C685 N684 1.351 . S
C685 C686 1.434 . S
C686 C677 1.429 . S
C686 N683 1.350 . S
C686 C685 1.434 . S
C687 C688 1.369 . S
C687 C689 1.419 . S
C687 H691 0.930 . S
C688 C687 1.369 . S
C688 C697 1.429 . S
C689 C687 1.419 . S
C689 C690 1.363 . S
C689 H692 0.929 . S
C690 C689 1.363 . S
C690 C696 1.428 . S
H691 C687 0.930 . S
H692 C689 0.929 . S
S693 N694 1.613 . S
S693 N695 1.610 . S
N694 S693 1.613 . S
N694 C697 1.350 . S
N695 S693 1.610 . S
N695 C696 1.351 . S
C696 C690 1.428 . S
C696 N695 1.351 . S
C696 C697 1.434 . S
C697 C688 1.429 . S
C697 N694 1.350 . S
C697 C696 1.434 . S
C698 C699 1.359 1_554 S
C698 C700 1.419 1_554 S
C698 H702 0.930 . S
C699 C698 1.359 1_556 S
C699 C708 1.462 . S
C700 C698 1.419 1_556 S
C700 C701 1.363 . S
C700 H703 0.929 . S
C701 C700 1.363 . S
C701 C707 1.428 . S
H702 C698 0.930 . S
H703 C700 0.929 . S
S704 N705 1.613 . S
S704 N706 1.610 . S
N705 S704 1.613 . S
N705 C708 1.350 . S
N706 S704 1.610 . S
N706 C707 1.351 . S
C707 C701 1.428 . S
C707 N706 1.351 . S
C707 C708 1.434 . S
C708 C699 1.462 . S
C708 N705 1.350 . S
C708 C707 1.434 . S
C709 C710 1.369 . S
C709 C711 1.419 . S
C709 H713 0.930 . S
C710 C709 1.369 . S
C710 C719 1.429 . S
C711 C709 1.419 . S
C711 C712 1.363 . S
C711 H714 0.929 . S
C712 C711 1.363 . S
C712 C718 1.428 . S
H713 C709 0.930 . S
H714 C711 0.929 . S
S715 N716 1.613 . S
S715 N717 1.610 . S
N716 S715 1.613 . S
N716 C719 1.350 . S
N717 S715 1.610 . S
N717 C718 1.351 . S
C718 C712 1.428 . S
C718 N717 1.351 . S
C718 C719 1.434 . S
C719 C710 1.429 . S
C719 N716 1.350 . S
C719 C718 1.434 . S
C459 C442 1.691 . S
C457 C29 1.587 . S
C468 C115 1.589 . S
C470 C383 1.615 . S
C479 C153 1.548 . S
C481 C386 1.673 . S
C490 C239 1.569 . S
C492 C400 1.594 . S
C503 C425 1.647 . S
C501 C301 1.615 . S
C512 C339 1.784 . S
C514 C428 1.929 . S
C523 C91 1.546 . S
C525 C397 1.669 . S
C534 C177 1.560 . S
C536 C411 1.585 . S
C545 C215 1.544 . S
C547 C414 1.663 . S
C558 C439 1.911 . S
C556 C277 1.764 . S
C569 C453 1.627 . S
C567 C363 1.596 . S
C580 C372 1.556 . S
C578 C53 1.535 . S
C589 C35 1.548 . S
C591 C395 1.567 . S
C600 C109 1.394 . S
C602 C409 1.512 . S
C613 C419 1.487 . S
C611 C159 1.480 . S
C622 C233 1.578 . S
C624 C437 1.699 1_556 S
C635 C451 1.551 . S
C633 C295 1.384 . S
C646 C377 1.445 . S
C644 C345 1.438 . S
C657 C447 1.498 . S
C655 C97 1.490 . S
C666 C171 1.399 . S
C668 C381 1.524 . S
C679 C391 1.589 . S
C677 C221 1.561 . S
C688 C283 1.441 . S
C690 C405 1.449 . S
C699 C357 1.378 1_556 S
C701 C423 1.568 . S
C710 C47 1.585 . S
C712 C433 1.731 . S
