# Generated by pormake.
# Topology eea, (3,6)-cn, num edge types: 1
# Building blocks:
#     Node 0, Type 0, BuildingBlock: PAMTOO_clean_linker_0, # of connection points: 3
#     Node 1, Type 0, BuildingBlock: PAMTOO_clean_linker_0, # of connection points: 3
#     Node 2, Type 0, BuildingBlock: PAMTOO_clean_linker_0, # of connection points: 3
#     Node 3, Type 0, BuildingBlock: PAMTOO_clean_linker_0, # of connection points: 3
#     Node 4, Type 0, BuildingBlock: PAMTOO_clean_linker_0, # of connection points: 3
#     Node 5, Type 0, BuildingBlock: PAMTOO_clean_linker_0, # of connection points: 3
#     Node 6, Type 0, BuildingBlock: PAMTOO_clean_linker_0, # of connection points: 3
#     Node 7, Type 0, BuildingBlock: PAMTOO_clean_linker_0, # of connection points: 3
#     Node 8, Type 0, BuildingBlock: PAMTOO_clean_linker_0, # of connection points: 3
#     Node 9, Type 0, BuildingBlock: PAMTOO_clean_linker_0, # of connection points: 3
#     Node 10, Type 0, BuildingBlock: PAMTOO_clean_linker_0, # of connection points: 3
#     Node 11, Type 0, BuildingBlock: PAMTOO_clean_linker_0, # of connection points: 3
#     Node 12, Type 0, BuildingBlock: PAMTOO_clean_linker_0, # of connection points: 3
#     Node 13, Type 0, BuildingBlock: PAMTOO_clean_linker_0, # of connection points: 3
#     Node 14, Type 0, BuildingBlock: PAMTOO_clean_linker_0, # of connection points: 3
#     Node 15, Type 0, BuildingBlock: PAMTOO_clean_linker_0, # of connection points: 3
#     Node 16, Type 0, BuildingBlock: PAMTOO_clean_linker_0, # of connection points: 3
#     Node 17, Type 0, BuildingBlock: PAMTOO_clean_linker_0, # of connection points: 3
#     Node 18, Type 1, BuildingBlock: KUMBUR_clean_sbu_0, # of connection points: 6
#     Node 19, Type 1, BuildingBlock: KUMBUR_clean_sbu_0, # of connection points: 6
#     Node 20, Type 1, BuildingBlock: KUMBUR_clean_sbu_0, # of connection points: 6
#     Node 21, Type 1, BuildingBlock: KUMBUR_clean_sbu_0, # of connection points: 6
#     Node 22, Type 1, BuildingBlock: KUMBUR_clean_sbu_0, # of connection points: 6
#     Node 23, Type 1, BuildingBlock: KUMBUR_clean_sbu_0, # of connection points: 6
#     Node 24, Type 1, BuildingBlock: KUMBUR_clean_sbu_0, # of connection points: 6
#     Node 25, Type 1, BuildingBlock: KUMBUR_clean_sbu_0, # of connection points: 6
#     Node 26, Type 1, BuildingBlock: KUMBUR_clean_sbu_0, # of connection points: 6
#     Edge 27, Type (0, 1), BuildingBlock: KIFKEQ_clean_linker_1, # of connection points: 2
#     Edge 28, Type (0, 1), BuildingBlock: KIFKEQ_clean_linker_1, # of connection points: 2
#     Edge 29, Type (0, 1), BuildingBlock: KIFKEQ_clean_linker_1, # of connection points: 2
#     Edge 30, Type (0, 1), BuildingBlock: KIFKEQ_clean_linker_1, # of connection points: 2
#     Edge 31, Type (0, 1), BuildingBlock: KIFKEQ_clean_linker_1, # of connection points: 2
#     Edge 32, Type (0, 1), BuildingBlock: KIFKEQ_clean_linker_1, # of connection points: 2
#     Edge 33, Type (0, 1), BuildingBlock: KIFKEQ_clean_linker_1, # of connection points: 2
#     Edge 34, Type (0, 1), BuildingBlock: KIFKEQ_clean_linker_1, # of connection points: 2
#     Edge 35, Type (0, 1), BuildingBlock: KIFKEQ_clean_linker_1, # of connection points: 2
#     Edge 36, Type (0, 1), BuildingBlock: KIFKEQ_clean_linker_1, # of connection points: 2
#     Edge 37, Type (0, 1), BuildingBlock: KIFKEQ_clean_linker_1, # of connection points: 2
#     Edge 38, Type (0, 1), BuildingBlock: KIFKEQ_clean_linker_1, # of connection points: 2
#     Edge 39, Type (0, 1), BuildingBlock: KIFKEQ_clean_linker_1, # of connection points: 2
#     Edge 40, Type (0, 1), BuildingBlock: KIFKEQ_clean_linker_1, # of connection points: 2
#     Edge 41, Type (0, 1), BuildingBlock: KIFKEQ_clean_linker_1, # of connection points: 2
#     Edge 42, Type (0, 1), BuildingBlock: KIFKEQ_clean_linker_1, # of connection points: 2
#     Edge 43, Type (0, 1), BuildingBlock: KIFKEQ_clean_linker_1, # of connection points: 2
#     Edge 44, Type (0, 1), BuildingBlock: KIFKEQ_clean_linker_1, # of connection points: 2
#     Edge 45, Type (0, 1), BuildingBlock: KIFKEQ_clean_linker_1, # of connection points: 2
#     Edge 46, Type (0, 1), BuildingBlock: KIFKEQ_clean_linker_1, # of connection points: 2
#     Edge 47, Type (0, 1), BuildingBlock: KIFKEQ_clean_linker_1, # of connection points: 2
#     Edge 48, Type (0, 1), BuildingBlock: KIFKEQ_clean_linker_1, # of connection points: 2
#     Edge 49, Type (0, 1), BuildingBlock: KIFKEQ_clean_linker_1, # of connection points: 2
#     Edge 50, Type (0, 1), BuildingBlock: KIFKEQ_clean_linker_1, # of connection points: 2
#     Edge 51, Type (0, 1), BuildingBlock: KIFKEQ_clean_linker_1, # of connection points: 2
#     Edge 52, Type (0, 1), BuildingBlock: KIFKEQ_clean_linker_1, # of connection points: 2
#     Edge 53, Type (0, 1), BuildingBlock: KIFKEQ_clean_linker_1, # of connection points: 2
#     Edge 54, Type (0, 1), BuildingBlock: KIFKEQ_clean_linker_1, # of connection points: 2
#     Edge 55, Type (0, 1), BuildingBlock: KIFKEQ_clean_linker_1, # of connection points: 2
#     Edge 56, Type (0, 1), BuildingBlock: KIFKEQ_clean_linker_1, # of connection points: 2
#     Edge 57, Type (0, 1), BuildingBlock: KIFKEQ_clean_linker_1, # of connection points: 2
#     Edge 58, Type (0, 1), BuildingBlock: KIFKEQ_clean_linker_1, # of connection points: 2
#     Edge 59, Type (0, 1), BuildingBlock: KIFKEQ_clean_linker_1, # of connection points: 2
#     Edge 60, Type (0, 1), BuildingBlock: KIFKEQ_clean_linker_1, # of connection points: 2
#     Edge 61, Type (0, 1), BuildingBlock: KIFKEQ_clean_linker_1, # of connection points: 2
#     Edge 62, Type (0, 1), BuildingBlock: KIFKEQ_clean_linker_1, # of connection points: 2
#     Edge 63, Type (0, 1), BuildingBlock: KIFKEQ_clean_linker_1, # of connection points: 2
#     Edge 64, Type (0, 1), BuildingBlock: KIFKEQ_clean_linker_1, # of connection points: 2
#     Edge 65, Type (0, 1), BuildingBlock: KIFKEQ_clean_linker_1, # of connection points: 2
#     Edge 66, Type (0, 1), BuildingBlock: KIFKEQ_clean_linker_1, # of connection points: 2
#     Edge 67, Type (0, 1), BuildingBlock: KIFKEQ_clean_linker_1, # of connection points: 2
#     Edge 68, Type (0, 1), BuildingBlock: KIFKEQ_clean_linker_1, # of connection points: 2
#     Edge 69, Type (0, 1), BuildingBlock: KIFKEQ_clean_linker_1, # of connection points: 2
#     Edge 70, Type (0, 1), BuildingBlock: KIFKEQ_clean_linker_1, # of connection points: 2
#     Edge 71, Type (0, 1), BuildingBlock: KIFKEQ_clean_linker_1, # of connection points: 2
#     Edge 72, Type (0, 1), BuildingBlock: KIFKEQ_clean_linker_1, # of connection points: 2
#     Edge 73, Type (0, 1), BuildingBlock: KIFKEQ_clean_linker_1, # of connection points: 2
#     Edge 74, Type (0, 1), BuildingBlock: KIFKEQ_clean_linker_1, # of connection points: 2
#     Edge 75, Type (0, 1), BuildingBlock: KIFKEQ_clean_linker_1, # of connection points: 2
#     Edge 76, Type (0, 1), BuildingBlock: KIFKEQ_clean_linker_1, # of connection points: 2
#     Edge 77, Type (0, 1), BuildingBlock: KIFKEQ_clean_linker_1, # of connection points: 2
#     Edge 78, Type (0, 1), BuildingBlock: KIFKEQ_clean_linker_1, # of connection points: 2
#     Edge 79, Type (0, 1), BuildingBlock: KIFKEQ_clean_linker_1, # of connection points: 2
#     Edge 80, Type (0, 1), BuildingBlock: KIFKEQ_clean_linker_1, # of connection points: 2
# Relax obj value: 0.023
# Max RMSD: 0.164
# Mean RMSD: 0.119
data_MOF--net-eea--node1-KUMBUR_clean_sbu_0--node2-PAMTOO_clean_linker_0--edge1-KIFKEQ_clean_linker_1
_symmetry_space_group_name_H-M    P1
_symmetry_Int_Tables_number       1
_symmetry_cell_setting            triclinic
loop_
_symmetry_equiv_pos_as_xyz
'x, y, z'
_cell_length_a     54.604779
_cell_length_b     56.392565
_cell_length_c     66.693284
_cell_angle_alpha  89.964541
_cell_angle_beta   89.676049
_cell_angle_gamma 120.03452
loop_
_atom_site_label
_atom_site_type_symbol
_atom_site_fract_x
_atom_site_fract_y
_atom_site_fract_z
_atom_type_partial_charge
H0 H 0.25953 0.07637 0.43999 0.0
H1 H 0.25513 0.15038 0.43979 0.0
H2 H 0.21534 0.09161 0.39283 0.0
H3 H 0.24491 0.14867 0.37817 0.0
C4 C 0.24477 0.15915 0.39227 0.0
O5 O 0.22726 0.13981 0.40615 0.0
H6 H 0.26686 0.17055 0.39794 0.0
C7 C 0.25219 0.08909 0.43312 0.0
C8 C 0.23618 0.08039 0.41542 0.0
C9 C 0.2589 0.11409 0.44215 0.0
C10 C 0.24983 0.13084 0.43317 0.0
C11 C 0.23469 0.12291 0.4152 0.0
C12 C 0.22761 0.09766 0.40648 0.0
H13 H 0.96217 0.17944 0.44027 0.0
H14 H 0.88514 0.10144 0.43493 0.0
H15 H 0.94324 0.13337 0.3855 0.0
H16 H 0.88213 0.09942 0.37264 0.0
C17 C 0.87366 0.08861 0.38718 0.0
O18 O 0.89582 0.0916 0.39886 0.0
H19 H 0.86236 0.09807 0.39466 0.0
C20 C 0.94811 0.16143 0.43168 0.0
C21 C 0.95563 0.15906 0.41186 0.0
C22 C 0.92255 0.14094 0.4403 0.0
C23 C 0.90503 0.11751 0.42888 0.0
C24 C 0.91254 0.11474 0.40927 0.0
C25 C 0.93761 0.13563 0.4007 0.0
H26 H 0.84931 0.77969 0.43662 0.0
H27 H 0.93286 0.78916 0.43754 0.0
H28 H 0.90726 0.81984 0.38777 0.0
H29 H 0.94472 0.79935 0.37398 0.0
C30 C 0.9525 0.79722 0.38887 0.0
O31 O 0.94827 0.81323 0.40262 0.0
H32 H 0.93995 0.77519 0.39321 0.0
C33 C 0.87001 0.78703 0.42993 0.0
C34 C 0.87593 0.80046 0.4113 0.0
C35 C 0.89034 0.78292 0.43985 0.0
C36 C 0.91669 0.79184 0.43032 0.0
C37 C 0.92274 0.80486 0.41151 0.0
C38 C 0.90246 0.80952 0.40217 0.0
H39 H 0.08359 0.23678 0.60008 0.0
H40 H 0.15963 0.23224 0.60584 0.0
H41 H 0.10009 0.20583 0.65442 0.0
H42 H 0.15907 0.22406 0.66912 0.0
C43 C 0.16838 0.22562 0.65397 0.0
O44 O 0.14703 0.20896 0.64092 0.0
H45 H 0.17835 0.24747 0.6492 0.0
C46 C 0.09731 0.23235 0.609 0.0
C47 C 0.0888 0.22187 0.62863 0.0
C48 C 0.123 0.23679 0.60055 0.0
C49 C 0.13968 0.22903 0.61175 0.0
C50 C 0.13113 0.2174 0.6309 0.0
C51 C 0.10592 0.21408 0.63937 0.0
H52 H 0.78317 0.84404 0.59813 0.0
H53 H 0.78945 0.92292 0.60478 0.0
H54 H 0.8249 0.89446 0.64942 0.0
H55 H 0.80037 0.92635 0.66726 0.0
C56 C 0.799 0.93618 0.65318 0.0
O57 O 0.81623 0.93434 0.63879 0.0
H58 H 0.77651 0.92514 0.64827 0.0
C59 C 0.79026 0.86284 0.60647 0.0
C60 C 0.80481 0.86673 0.62462 0.0
C61 C 0.78459 0.88298 0.59913 0.0
C62 C 0.79358 0.90712 0.61017 0.0
C63 C 0.80808 0.91118 0.62821 0.0
C64 C 0.81391 0.89118 0.63532 0.0
H65 H 0.18904 0.94153 0.60512 0.0
H66 H 0.10745 0.86796 0.60476 0.0
H67 H 0.12899 0.92601 0.65255 0.0
H68 H 0.09348 0.87294 0.6686 0.0
C69 C 0.08779 0.8611 0.65441 0.0
O70 O 0.09018 0.87823 0.63871 0.0
H71 H 0.10282 0.85338 0.65207 0.0
C72 C 0.16855 0.92846 0.61204 0.0
C73 C 0.16156 0.93677 0.63 0.0
C74 C 0.14911 0.90392 0.60258 0.0
C75 C 0.1225 0.88722 0.61159 0.0
C76 C 0.11538 0.89506 0.62968 0.0
C77 C 0.13465 0.9201 0.63859 0.0
H78 H 0.91946 0.40614 0.77533 0.0
H79 H 0.91564 0.48055 0.77511 0.0
H80 H 0.88084 0.4245 0.72611 0.0
H81 H 0.91244 0.48291 0.71306 0.0
C82 C 0.91097 0.49241 0.7273 0.0
O83 O 0.89194 0.47221 0.74005 0.0
H84 H 0.93242 0.50313 0.73411 0.0
C85 C 0.91262 0.41921 0.76841 0.0
C86 C 0.89862 0.41163 0.74987 0.0
C87 C 0.91866 0.44381 0.77789 0.0
C88 C 0.91132 0.46148 0.76818 0.0
C89 C 0.89822 0.45466 0.74941 0.0
C90 C 0.8916 0.42971 0.74039 0.0
H91 H 0.62849 0.51444 0.77392 0.0
H92 H 0.5522 0.43593 0.76811 0.0
H93 H 0.61168 0.46795 0.7195 0.0
H94 H 0.55244 0.431 0.70463 0.0
C95 C 0.54305 0.42266 0.71961 0.0
O96 O 0.56423 0.42594 0.73252 0.0
H97 H 0.53281 0.43422 0.72527 0.0
C98 C 0.61483 0.49632 0.76529 0.0
C99 C 0.62296 0.49391 0.74567 0.0
C100 C 0.58918 0.47566 0.7737 0.0
C101 C 0.57214 0.45213 0.76222 0.0
C102 C 0.58032 0.4493 0.74286 0.0
C103 C 0.60552 0.47028 0.73452 0.0
H104 H 0.51483 0.11025 0.76929 0.0
H105 H 0.5979 0.11895 0.76945 0.0
H106 H 0.57408 0.15474 0.72186 0.0
H107 H 0.61344 0.13879 0.70571 0.0
C108 C 0.61824 0.13212 0.72012 0.0
O109 O 0.61453 0.1464 0.73565 0.0
H110 H 0.60312 0.10976 0.72195 0.0
C111 C 0.53549 0.11782 0.76242 0.0
C112 C 0.54195 0.133 0.74453 0.0
C113 C 0.5556 0.11295 0.77178 0.0
C114 C 0.58231 0.12292 0.76266 0.0
C115 C 0.58894 0.13769 0.74456 0.0
C116 C 0.5689 0.14319 0.73574 0.0
H117 H 0.75484 0.57782 0.93712 0.0
H118 H 0.82551 0.56381 0.93734 0.0
H119 H 0.76399 0.53164 0.98507 0.0
H120 H 0.81896 0.54408 1.00158 0.0
C121 C 0.83065 0.55138 0.98714 0.0
O122 O 0.81231 0.53738 0.97158 0.0
H123 H 0.83826 0.57373 0.98584 0.0
C124 C 0.76648 0.56916 0.94415 0.0
C125 C 0.75629 0.55427 0.96215 0.0
C126 C 0.79107 0.57219 0.93482 0.0
C127 C 0.80618 0.56111 0.94412 0.0
C128 C 0.79676 0.54689 0.96237 0.0
C129 C 0.7714 0.54288 0.97109 0.0
H130 H 0.44918 0.17799 0.93169 0.0
H131 H 0.45495 0.25649 0.93864 0.0
H132 H 0.492 0.22907 0.98263 0.0
H133 H 0.4664 0.25957 1.00105 0.0
C134 C 0.4649 0.26964 0.98713 0.0
O135 O 0.48202 0.26805 0.97252 0.0
H136 H 0.44238 0.25869 0.9823 0.0
C137 C 0.45674 0.19689 0.93997 0.0
C138 C 0.47143 0.20076 0.9581 0.0
C139 C 0.45069 0.21684 0.93278 0.0
C140 C 0.45935 0.24083 0.94392 0.0
C141 C 0.47396 0.24495 0.96189 0.0
C142 C 0.48021 0.22518 0.96885 0.0
H143 H 0.85526 0.2743 0.93894 0.0
H144 H 0.77335 0.20113 0.9387 0.0
H145 H 0.7954 0.25939 0.9864 0.0
H146 H 0.75913 0.2063 1.00253 0.0
C147 C 0.75366 0.19451 0.98832 0.0
O148 O 0.75628 0.21171 0.97261 0.0
H149 H 0.76874 0.18682 0.98614 0.0
C150 C 0.83476 0.26138 0.94589 0.0
C151 C 0.82791 0.26985 0.96384 0.0
C152 C 0.81516 0.23687 0.93648 0.0
C153 C 0.78853 0.22036 0.9455 0.0
C154 C 0.78153 0.22835 0.96357 0.0
C155 C 0.80097 0.25336 0.97245 0.0
H156 H 0.59213 0.74191 0.10441 0.0
H157 H 0.58373 0.81392 0.10771 0.0
H158 H 0.55391 0.76203 0.05605 0.0
H159 H 0.58342 0.82047 0.0458 0.0
C160 C 0.58063 0.82887 0.06018 0.0
O161 O 0.56157 0.80762 0.07222 0.0
H162 H 0.60166 0.83999 0.06757 0.0
C163 C 0.58518 0.75524 0.09807 0.0
C164 C 0.57223 0.74897 0.07918 0.0
C165 C 0.58926 0.77845 0.10874 0.0
C166 C 0.58078 0.79583 0.09992 0.0
C167 C 0.56837 0.79004 0.0809 0.0
C168 C 0.5636 0.76638 0.07073 0.0
H169 H 0.29455 0.84742 0.10694 0.0
H170 H 0.21794 0.76914 0.10129 0.0
H171 H 0.27678 0.80125 0.0523 0.0
H172 H 0.21595 0.76676 0.03894 0.0
C173 C 0.2073 0.75611 0.0535 0.0
O174 O 0.22933 0.75932 0.06543 0.0
H175 H 0.19583 0.76558 0.0607 0.0
C176 C 0.28071 0.82937 0.09832 0.0
C177 C 0.28859 0.82701 0.07861 0.0
C178 C 0.25509 0.80878 0.10681 0.0
C179 C 0.23787 0.78528 0.09535 0.0
C180 C 0.24574 0.78253 0.07585 0.0
C181 C 0.27087 0.8035 0.06742 0.0
H182 H 0.18184 0.44232 0.10176 0.0
H183 H 0.26568 0.45291 0.10278 0.0
H184 H 0.24158 0.48797 0.05485 0.0
H185 H 0.28016 0.46961 0.03982 0.0
C186 C 0.28731 0.46603 0.05452 0.0
O187 O 0.28246 0.48067 0.06913 0.0
H188 H 0.27462 0.44364 0.05771 0.0
C189 C 0.20266 0.45028 0.09506 0.0
C190 C 0.20918 0.4656 0.07724 0.0
C191 C 0.22294 0.44587 0.10463 0.0
C192 C 0.24992 0.45648 0.09581 0.0
C193 C 0.25658 0.47129 0.07774 0.0
C194 C 0.23634 0.4763 0.06868 0.0
H195 H 0.42036 0.91122 0.27044 0.0
H196 H 0.49072 0.89673 0.27 0.0
H197 H 0.43041 0.86576 0.31851 0.0
H198 H 0.48761 0.88235 0.33361 0.0
C199 C 0.49831 0.88581 0.31878 0.0
O200 O 0.4782 0.87084 0.30443 0.0
H201 H 0.50856 0.90815 0.31548 0.0
C202 C 0.4321 0.90261 0.27739 0.0
C203 C 0.42226 0.88801 0.29553 0.0
C204 C 0.45645 0.90541 0.26783 0.0
C205 C 0.47161 0.89427 0.27698 0.0
C206 C 0.4626 0.88043 0.29541 0.0
C207 C 0.43755 0.87677 0.30442 0.0
H208 H 0.11586 0.51091 0.26555 0.0
H209 H 0.12224 0.58979 0.2725 0.0
H210 H 0.15701 0.56073 0.31721 0.0
H211 H 0.13243 0.59268 0.33506 0.0
C212 C 0.13121 0.60259 0.32096 0.0
O213 O 0.1486 0.6008 0.30667 0.0
H214 H 0.10879 0.5916 0.31594 0.0
C215 C 0.12287 0.52962 0.27399 0.0
C216 C 0.13718 0.53328 0.29222 0.0
C217 C 0.11735 0.54987 0.26669 0.0
C218 C 0.12625 0.5739 0.27786 0.0
C219 C 0.1405 0.57773 0.29598 0.0
C220 C 0.14619 0.55761 0.30305 0.0
H221 H 0.52208 0.60725 0.27178 0.0
H222 H 0.44041 0.53381 0.27111 0.0
H223 H 0.46177 0.59165 0.31905 0.0
H224 H 0.4258 0.53846 0.33491 0.0
C225 C 0.42029 0.52673 0.32068 0.0
O226 O 0.42293 0.544 0.30501 0.0
H227 H 0.43533 0.51901 0.31844 0.0
C228 C 0.50155 0.59418 0.27864 0.0
C229 C 0.49449 0.60243 0.29661 0.0
C230 C 0.48214 0.56971 0.26911 0.0
C231 C 0.45545 0.55302 0.27801 0.0
C232 C 0.44823 0.5608 0.29609 0.0
C233 C 0.4675 0.58577 0.3051 0.0
Tb234 Tb 0.50306 0.99519 0.99555 0.0
C235 C 0.5587 0.08817 0.05692 0.0
C236 C 0.60839 0.10217 0.05637 0.0
C237 C 0.59376 0.13522 0.06474 0.0
C238 C 0.5798 0.08199 0.05373 0.0
C239 C 0.56529 0.11463 0.06301 0.0
C240 C 0.6153 0.129 0.0614 0.0
C241 C 0.51522 0.09758 0.06716 0.0
N242 N 0.53153 0.06758 0.05535 0.0
C243 C 0.5098 0.07163 0.06115 0.0
C244 C 0.54308 0.11928 0.06783 0.0
Tb245 Tb 0.52463 0.02586 0.04508 0.0
N246 N 0.57214 0.05577 0.04914 0.0
C247 C 0.59216 0.04796 0.04838 0.0
C248 C 0.62906 0.09458 0.05447 0.0
C249 C 0.62085 0.06725 0.05074 0.0
H250 H 0.48818 0.05506 0.06062 0.0
H251 H 0.63661 0.06103 0.04959 0.0
H252 H 0.63716 0.14487 0.06329 0.0
H253 H 0.49792 0.10082 0.07127 0.0
H254 H 0.58636 0.02702 0.0454 0.0
H255 H 0.39143 0.96216 0.99284 0.0
H256 H 0.65128 0.10947 0.05629 0.0
H257 H 0.53754 0.96447 0.97924 0.0
H258 H 0.44208 0.99562 0.9955 0.0
H259 H 0.52637 0.91788 0.96954 0.0
H260 H 0.59931 0.15578 0.0692 0.0
H261 H 0.37539 0.91309 0.98774 0.0
H262 H 0.38814 0.87658 0.98124 0.0
H263 H 0.54723 0.13932 0.07259 0.0
H264 H 0.425 0.8645 0.97464 0.0
N265 N 0.45522 0.96595 0.99242 0.0
C266 C 0.4357 0.9744 0.99317 0.0
C267 C 0.39779 0.92773 0.98887 0.0
C268 C 0.41791 0.91947 0.98681 0.0
C269 C 0.40677 0.95542 0.99168 0.0
C270 C 0.44677 0.93937 0.98851 0.0
H271 H 0.4767 0.87991 0.96984 0.0
N272 N 0.49466 0.95292 0.9854 0.0
C273 C 0.50954 0.92171 0.97386 0.0
C274 C 0.46729 0.9326 0.98477 0.0
C275 C 0.51577 0.94811 0.97929 0.0
C276 C 0.48149 0.90032 0.97412 0.0
C277 C 0.45988 0.90571 0.9793 0.0
O278 O 0.5242 1.00426 0.96759 0.0
O279 O 0.53546 0.02653 0.01386 0.0
O280 O 0.52191 0.05582 0.02574 0.0
O281 O 0.49117 0.02673 1.00125 0.0
O282 O 0.54864 0.01093 0.99154 0.0
O283 O 0.48974 0.01175 0.97266 0.0
O284 O 0.50116 0.01355 0.07204 0.0
O285 O 0.49252 0.9942 0.02677 0.0
O286 O 0.50667 0.96577 0.01478 0.0
O287 O 0.53739 0.99484 0.03931 0.0
O288 O 0.47894 0.01012 0.04844 0.0
O289 O 0.53944 0.01194 0.06897 0.0
C290 C 0.55734 0.02881 1.00559 0.0
C291 C 0.49638 1.00114 0.93957 0.0
C292 C 0.49524 0.00806 0.90341 0.0
C293 C 0.50708 0.01805 0.92244 0.0
C294 C 0.47297 0.98086 0.90177 0.0
C295 C 0.47425 0.97408 0.93749 0.0
C296 C 0.4627 0.96401 0.91868 0.0
C297 C 0.50436 0.05071 0.01058 0.0
C298 C 0.50776 0.01216 0.95958 0.0
C299 C 0.43118 0.88538 0.97861 0.0
C300 C 0.4102 0.89225 0.98238 0.0
C301 C 0.47043 0.9919 0.03463 0.0
C302 C 0.52731 0.01983 0.1015 0.0
C303 C 0.51812 1.00229 0.11839 0.0
C304 C 0.52469 0.01311 0.13805 0.0
C305 C 0.54037 0.04182 0.14027 0.0
C306 C 0.54345 0.04817 0.10432 0.0
C307 C 0.54983 0.05907 0.12356 0.0
C308 C 0.52474 0.97111 0.02959 0.0
C309 C 0.51912 0.00851 0.08109 0.0
H310 H 0.52405 0.03906 0.92399 0.0
H311 H 0.46361 0.97256 0.88734 0.0
H312 H 0.46572 0.9608 0.95038 0.0
H313 H 0.44558 0.94309 0.91723 0.0
H314 H 0.50606 0.98035 0.11612 0.0
H315 H 0.5451 0.05117 0.15495 0.0
H316 H 0.55089 0.06195 0.0917 0.0
H317 H 0.56196 0.08105 0.12555 0.0
Tb318 Tb 0.03777 0.50774 0.99729 0.0
C319 C 0.94046 0.47592 0.05764 0.0
C320 C 0.92595 0.50966 0.0534 0.0
C321 C 0.89187 0.46377 0.06487 0.0
C322 C 0.94676 0.50187 0.0521 0.0
C323 C 0.91311 0.45665 0.06449 0.0
C324 C 0.89829 0.49027 0.05934 0.0
C325 C 0.93051 0.42572 0.07163 0.0
N326 N 0.96164 0.47001 0.05722 0.0
C327 C 0.95733 0.44561 0.06479 0.0
C328 C 0.9082 0.43113 0.07126 0.0
Tb329 Tb 1.00479 0.50365 0.04552 0.0
N330 N 0.97381 0.52001 0.04668 0.0
C331 C 0.98189 0.54701 0.04383 0.0
C332 C 0.93381 0.53689 0.04933 0.0
C333 C 0.96201 0.55573 0.04482 0.0
H334 H 0.97435 0.44112 0.06504 0.0
H335 H 0.96845 0.57697 0.04201 0.0
H336 H 0.88193 0.49576 0.06021 0.0
H337 H 0.92707 0.40624 0.07716 0.0
H338 H 1.00349 0.56193 0.04024 0.0
H339 H 0.07275 0.43344 1.0017 0.0
H340 H 0.91847 0.54371 0.05008 0.0
H341 H 0.0691 0.57017 0.97764 0.0
H342 H 0.03807 0.44898 1.00282 0.0
H343 H 0.11685 0.60481 0.96604 0.0
H344 H 0.87064 0.44919 0.06991 0.0
H345 H 0.12301 0.4663 0.99409 0.0
H346 H 0.16016 0.51413 0.98415 0.0
H347 H 0.88748 0.41574 0.07663 0.0
H348 H 0.17222 0.56089 0.97437 0.0
N349 N 0.06826 0.49079 0.99647 0.0
C350 C 0.05981 0.46374 0.99943 0.0
C351 C 0.10783 0.47334 0.99456 0.0
C352 C 0.11608 0.50064 0.99039 0.0
C353 C 0.07948 0.45473 0.99881 0.0
C354 C 0.09549 0.50873 0.99134 0.0
H355 H 0.15608 0.5948 0.96726 0.0
N356 N 0.08126 0.54102 0.98588 0.0
C357 C 0.11306 0.58523 0.97164 0.0
C358 C 0.10224 0.53482 0.98579 0.0
C359 C 0.086 0.5655 0.97817 0.0
C360 C 0.13517 0.57954 0.9724 0.0
C361 C 0.12981 0.5539 0.97924 0.0
O362 O 0.02845 0.51561 0.96826 0.0
O363 O 1.00429 0.50909 0.01362 0.0
O364 O 0.97435 0.46857 0.0278 0.0
O365 O 1.00532 0.46523 1.00528 0.0
O366 O 0.0211 0.53505 0.9899 0.0
O367 O 0.02214 0.47587 0.97625 0.0
O368 O 1.0143 0.49617 0.07463 0.0
O369 O 0.03831 0.50236 0.02918 0.0
O370 O 0.06783 0.54294 0.01493 0.0
O371 O 0.03674 0.54632 0.03732 0.0
O372 O 0.02154 0.47637 0.0528 0.0
O373 O 0.02094 0.5359 0.06626 0.0
C374 C 1.00195 0.5268 1.0036 0.0
C375 C 0.03379 0.48991 0.94251 0.0
C376 C 0.029 0.4839 0.90625 0.0
C377 C 0.01844 0.48652 0.92489 0.0
C378 C 0.05537 0.48521 0.9054 0.0
C379 C 0.06009 0.49122 0.94136 0.0
C380 C 0.07086 0.489 0.92287 0.0
C381 C 0.9802 0.45488 0.01424 0.0
C382 C 0.02158 0.49126 0.96189 0.0
C383 C 0.15082 0.54646 0.97918 0.0
C384 C 0.14396 0.51985 0.98475 0.0
C385 C 0.04071 0.48465 0.03912 0.0
C386 C 1.00942 0.52251 0.10016 0.0
C387 C 0.02413 0.52465 0.11791 0.0
C388 C 1.01379 0.52773 0.13653 0.0
C389 C 0.98827 0.52816 0.13719 0.0
C390 C 0.98399 0.52297 0.10116 0.0
C391 C 0.97344 0.52565 0.1196 0.0
C392 C 0.06171 0.55683 0.02809 0.0
C393 C 0.02142 0.52067 0.08079 0.0
H394 H 0.99793 0.48517 0.92577 0.0
H395 H 0.06402 0.48337 0.8912 0.0
H396 H 0.07217 0.49362 0.95469 0.0
H397 H 0.09116 0.48999 0.9221 0.0
H398 H 0.04396 0.52462 0.11715 0.0
H399 H 0.97971 0.53027 0.15133 0.0
H400 H 0.97243 0.52158 0.08775 0.0
H401 H 0.95381 0.52599 0.12024 0.0
Tb402 Tb 0.54066 0.51464 0.04512 0.0
C403 C 0.47872 0.54522 0.98242 0.0
C404 C 0.42936 0.51093 0.98605 0.0
C405 C 0.44247 0.5566 0.97429 0.0
C406 C 0.45826 0.51914 0.98781 0.0
C407 C 0.47117 0.56416 0.97518 0.0
C408 C 0.42157 0.53 0.97974 0.0
C409 C 0.52071 0.59565 0.96871 0.0
N410 N 0.50611 0.55157 0.9834 0.0
C411 C 0.52708 0.57609 0.97598 0.0
C412 C 0.49265 0.5898 0.96854 0.0
Tb413 Tb 0.51471 0.51856 0.99594 0.0
N414 N 0.46674 0.50135 0.99364 0.0
C415 C 0.44713 0.47428 0.99644 0.0
C416 C 0.40922 0.48362 0.99009 0.0
C417 C 0.41818 0.46513 0.995 0.0
H418 H 0.54887 0.58094 0.97616 0.0
H419 H 0.40281 0.44383 0.99779 0.0
H420 H 0.39948 0.52418 0.97852 0.0
H421 H 0.53745 0.61523 0.96329 0.0
H422 H 0.45344 0.4596 1.00037 0.0
H423 H 0.6524 0.58965 0.04201 0.0
H424 H 0.3868 0.47649 0.98901 0.0
H425 H 0.50712 0.4522 0.06475 0.0
H426 H 0.60162 0.57376 0.04033 0.0
H427 H 0.51898 0.41779 0.0768 0.0
H428 H 0.43621 0.57093 0.96895 0.0
H429 H 0.66876 0.55705 0.0501 0.0
H430 H 0.65649 0.50934 0.06026 0.0
H431 H 0.48776 0.60494 0.96286 0.0
H432 H 0.62011 0.46246 0.06984 0.0
N433 N 0.58868 0.53202 0.04679 0.0
C434 C 0.60814 0.55912 0.04391 0.0
C435 C 0.6463 0.54986 0.04936 0.0
C436 C 0.62634 0.52251 0.05347 0.0
C437 C 0.63714 0.56832 0.04484 0.0
C438 C 0.59738 0.51422 0.05217 0.0
H439 H 0.56873 0.42822 0.07637 0.0
N440 N 0.54966 0.48163 0.05706 0.0
C441 C 0.53554 0.43745 0.07135 0.0
C442 C 0.5771 0.48806 0.05757 0.0
C443 C 0.52892 0.45704 0.06457 0.0
C444 C 0.56363 0.44338 0.07104 0.0
C445 C 0.5849 0.46912 0.06438 0.0
O446 O 0.52141 0.50633 0.07374 0.0
O447 O 0.50662 0.51299 0.02774 0.0
O448 O 0.51922 0.55349 0.01321 0.0
O449 O 0.55213 0.55694 0.03691 0.0
O450 O 0.49541 0.48677 0.05135 0.0
O451 O 0.55645 0.54619 0.06648 0.0
O452 O 0.53434 0.52653 0.96747 0.0
O453 O 0.54882 0.52025 0.01332 0.0
O454 O 0.536 0.47985 0.02775 0.0
O455 O 0.50263 0.47609 1.00438 0.0
O456 O 0.55988 0.54672 0.98995 0.0
O457 O 0.49949 0.48661 0.97494 0.0
C458 C 0.48546 0.49499 0.03729 0.0
C459 C 0.55171 0.53163 0.10025 0.0
C460 C 0.55182 0.53723 0.13664 0.0
C461 C 0.53936 0.53515 0.11777 0.0
C462 C 0.5764 0.53516 0.13772 0.0
C463 C 0.57626 0.5297 0.10177 0.0
C464 C 0.58842 0.53132 0.1204 0.0
C465 C 0.53832 0.5672 0.02719 0.0
C466 C 0.53916 0.53059 0.08052 0.0
C467 C 0.61365 0.47678 0.06483 0.0
C468 C 0.63436 0.50346 0.05937 0.0
C469 C 0.56998 0.53844 1.00385 0.0
C470 C 0.50478 0.50029 0.94092 0.0
C471 C 0.51865 0.49796 0.92382 0.0
C472 C 0.5067 0.49493 0.90466 0.0
C473 C 0.48096 0.49474 0.90283 0.0
C474 C 0.47918 0.50016 0.93872 0.0
C475 C 0.46743 0.49749 0.91975 0.0
C476 C 0.51646 0.46588 0.01415 0.0
C477 C 0.51692 0.50205 0.96091 0.0
H478 H 0.52054 0.53693 0.11667 0.0
H479 H 0.58627 0.53637 0.15202 0.0
H480 H 0.58621 0.5272 0.08858 0.0
H481 H 0.60735 0.52978 0.12141 0.0
H482 H 0.53832 0.49784 0.92549 0.0
H483 H 0.47141 0.49266 0.88827 0.0
H484 H 0.46811 0.50182 0.95161 0.0
H485 H 0.44765 0.49737 0.91818 0.0
Tb486 Tb 0.16931 0.32765 0.32802 0.0
C487 C 0.22607 0.41966 0.39049 0.0
C488 C 0.27567 0.43344 0.38939 0.0
C489 C 0.2614 0.46644 0.39876 0.0
C490 C 0.24701 0.41347 0.38671 0.0
C491 C 0.23287 0.44602 0.39701 0.0
C492 C 0.2828 0.46016 0.39495 0.0
C493 C 0.18287 0.42925 0.40122 0.0
N494 N 0.19886 0.39926 0.38881 0.0
C495 C 0.17724 0.4034 0.39476 0.0
C496 C 0.2108 0.45076 0.40211 0.0
Tb497 Tb 0.19151 0.35775 0.37761 0.0
N498 N 0.23913 0.38735 0.38162 0.0
C499 C 0.25901 0.37938 0.38048 0.0
C500 C 0.29618 0.42573 0.38702 0.0
C501 C 0.28775 0.39847 0.38285 0.0
H502 H 0.15556 0.387 0.394 0.0
H503 H 0.30339 0.39213 0.38136 0.0
H504 H 0.30471 0.47588 0.39686 0.0
H505 H 0.16566 0.43256 0.40547 0.0
H506 H 0.25308 0.3585 0.37716 0.0
H507 H 0.05758 0.2943 0.32615 0.0
H508 H 0.31845 0.44046 0.38885 0.0
H509 H 0.2038 0.29721 0.31112 0.0
H510 H 0.10824 0.32787 0.3286 0.0
H511 H 0.19268 0.25072 0.30115 0.0
H512 H 0.26712 0.48692 0.40356 0.0
H513 H 0.04164 0.24531 0.32078 0.0
H514 H 0.05448 0.20895 0.31384 0.0
H515 H 0.21512 0.47073 0.40718 0.0
H516 H 0.09137 0.19706 0.30679 0.0
N517 N 0.12147 0.29833 0.32511 0.0
C518 C 0.10189 0.30668 0.32614 0.0
C519 C 0.06404 0.26 0.32182 0.0
C520 C 0.08421 0.25183 0.31948 0.0
C521 C 0.07297 0.28764 0.32477 0.0
C522 C 0.11307 0.27179 0.32106 0.0
H523 H 0.14306 0.21265 0.30162 0.0
N524 N 0.16096 0.28549 0.31761 0.0
C525 C 0.17585 0.25447 0.30567 0.0
C526 C 0.13361 0.26512 0.31706 0.0
C527 C 0.18206 0.28081 0.31125 0.0
C528 C 0.14783 0.23301 0.30601 0.0
C529 C 0.12622 0.23829 0.31144 0.0
O530 O 0.19035 0.33722 0.30002 0.0
O531 O 0.2019 0.35902 0.34624 0.0
O532 O 0.18842 0.38793 0.35872 0.0
O533 O 0.15744 0.35909 0.33422 0.0
O534 O 0.21486 0.34348 0.32373 0.0
O535 O 0.1554 0.3439 0.3053 0.0
O536 O 0.1697 0.34705 0.40532 0.0
O537 O 0.15907 0.32646 0.35931 0.0
O538 O 0.17299 0.29798 0.34692 0.0
O539 O 0.20432 0.32694 0.37118 0.0
O540 O 0.14585 0.34196 0.38147 0.0
O541 O 0.20486 0.34066 0.4001 0.0
C542 C 0.22368 0.36134 0.3378 0.0
C543 C 0.16219 0.33362 0.27214 0.0
C544 C 0.16136 0.34037 0.23593 0.0
C545 C 0.17304 0.35044 0.25498 0.0
C546 C 0.13911 0.31316 0.23429 0.0
C547 C 0.14006 0.30656 0.27006 0.0
C548 C 0.12868 0.29639 0.25124 0.0
C549 C 0.1706 0.38293 0.34374 0.0
C550 C 0.17352 0.34471 0.29213 0.0
C551 C 0.09754 0.2179 0.31087 0.0
C552 C 0.07654 0.22467 0.3149 0.0
C553 C 0.13709 0.32401 0.36748 0.0
C554 C 0.19683 0.34917 0.43349 0.0
C555 C 0.18485 0.33155 0.45013 0.0
C556 C 0.19572 0.34044 0.46954 0.0
C557 C 0.21835 0.36728 0.47206 0.0
C558 C 0.21927 0.37589 0.43644 0.0
C559 C 0.22988 0.38488 0.45563 0.0
C560 C 0.19134 0.3032 0.36151 0.0
C561 C 0.18628 0.3392 0.41313 0.0
H562 H 0.19001 0.37145 0.25652 0.0
H563 H 0.12989 0.30478 0.21984 0.0
H564 H 0.13141 0.29334 0.28297 0.0
H565 H 0.11157 0.27547 0.24978 0.0
H566 H 0.16757 0.31083 0.44794 0.0
H567 H 0.22694 0.37474 0.48682 0.0
H568 H 0.22875 0.38973 0.42393 0.0
H569 H 0.24722 0.40554 0.45776 0.0
Tb570 Tb 0.70378 0.84067 0.33009 0.0
C571 C 0.6064 0.80838 0.39036 0.0
C572 C 0.59171 0.84196 0.38592 0.0
C573 C 0.55768 0.79601 0.39732 0.0
C574 C 0.61263 0.8343 0.38478 0.0
C575 C 0.57904 0.78903 0.39711 0.0
C576 C 0.56402 0.82246 0.39172 0.0
C577 C 0.59661 0.7583 0.40447 0.0
N578 N 0.62768 0.8026 0.39006 0.0
C579 C 0.62344 0.77826 0.39769 0.0
C580 C 0.57421 0.76357 0.40394 0.0
Tb581 Tb 0.6708 0.8363 0.37836 0.0
N582 N 0.63969 0.85252 0.37946 0.0
C583 C 0.64768 0.87949 0.37659 0.0
C584 C 0.59948 0.86915 0.38181 0.0
C585 C 0.62769 0.88808 0.37743 0.0
H586 H 0.64053 0.77388 0.39804 0.0
H587 H 0.63406 0.90931 0.3746 0.0
H588 H 0.54756 0.82784 0.39244 0.0
H589 H 0.59324 0.73885 0.41005 0.0
H590 H 0.66928 0.89448 0.37307 0.0
H591 H 0.73952 0.76694 0.33441 0.0
H592 H 0.58404 0.87586 0.38244 0.0
H593 H 0.73475 0.90308 0.31042 0.0
H594 H 0.70453 0.78211 0.3354 0.0
H595 H 0.78248 0.93803 0.29899 0.0
H596 H 0.53643 0.78135 0.40227 0.0
H597 H 0.78979 0.80017 0.32714 0.0
H598 H 0.82676 0.84817 0.31743 0.0
H599 H 0.55348 0.74811 0.40925 0.0
H600 H 0.8385 0.89485 0.30768 0.0
N601 N 0.73455 0.82405 0.32931 0.0
C602 C 0.72627 0.79702 0.33214 0.0
C603 C 0.77448 0.80704 0.32756 0.0
C604 C 0.78255 0.83432 0.32347 0.0
C605 C 0.74612 0.78822 0.33161 0.0
C606 C 0.76179 0.84218 0.32433 0.0
H607 H 0.82199 0.92845 0.30042 0.0
N608 N 0.74721 0.87419 0.31876 0.0
C609 C 0.77883 0.91851 0.3046 0.0
C610 C 0.76835 0.86822 0.31879 0.0
C611 C 0.75178 0.8986 0.31104 0.0
C612 C 0.80109 0.91306 0.30549 0.0
C613 C 0.79591 0.88748 0.31234 0.0
O614 O 0.6945 0.84851 0.30104 0.0
O615 O 0.67022 0.84179 0.34648 0.0
O616 O 0.64049 0.80113 0.36068 0.0
O617 O 0.67146 0.79806 0.33799 0.0
O618 O 0.68685 0.86782 0.3228 0.0
O619 O 0.6883 0.80882 0.30904 0.0
O620 O 0.68045 0.82879 0.40742 0.0
O621 O 0.70438 0.8352 0.36196 0.0
O622 O 0.73376 0.87587 0.34776 0.0
O623 O 0.70266 0.87904 0.37026 0.0
O624 O 0.68769 0.80909 0.38552 0.0
O625 O 0.68673 0.86844 0.39919 0.0
C626 C 0.66772 0.85945 0.33652 0.0
C627 C 0.70003 0.82287 0.27531 0.0
C628 C 0.69529 0.81635 0.23907 0.0
C629 C 0.68451 0.81884 0.25768 0.0
C630 C 0.72203 0.8184 0.23831 0.0
C631 C 0.72667 0.82489 0.27422 0.0
C632 C 0.73763 0.82278 0.25579 0.0
C633 C 0.64638 0.78756 0.34704 0.0
C634 C 0.68772 0.82418 0.29466 0.0
C635 C 0.8171 0.88028 0.3124 0.0
C636 C 0.81043 0.85371 0.31796 0.0
C637 C 0.70686 0.81748 0.37183 0.0
C638 C 0.67533 0.85484 0.43306 0.0
C639 C 0.69014 0.85707 0.45077 0.0
C640 C 0.67975 0.85994 0.46943 0.0
C641 C 0.65408 0.86009 0.47017 0.0
C642 C 0.64974 0.85499 0.43413 0.0
C643 C 0.63915 0.85748 0.45261 0.0
C644 C 0.72761 0.88966 0.361 0.0
C645 C 0.68737 0.85322 0.41365 0.0
H646 H 0.66377 0.81695 0.25851 0.0
H647 H 0.7309 0.81676 0.22416 0.0
H648 H 0.73889 0.82781 0.28756 0.0
H649 H 0.7582 0.82435 0.25508 0.0
H650 H 0.71008 0.85727 0.44996 0.0
H651 H 0.64549 0.86205 0.48435 0.0
H652 H 0.63808 0.8535 0.42075 0.0
H653 H 0.6194 0.85759 0.45331 0.0
Tb654 Tb 0.20612 0.84708 0.37846 0.0
C655 C 0.14463 0.87868 0.31621 0.0
C656 C 0.09529 0.84413 0.3194 0.0
C657 C 0.1083 0.89005 0.30832 0.0
C658 C 0.12421 0.85243 0.32123 0.0
C659 C 0.13702 0.89772 0.30927 0.0
C660 C 0.08744 0.86327 0.3134 0.0
C661 C 0.18659 0.92957 0.30322 0.0
N662 N 0.17204 0.88514 0.31725 0.0
C663 C 0.19302 0.90991 0.31018 0.0
C664 C 0.15848 0.92358 0.303 0.0
Tb665 Tb 0.18072 0.85196 0.32931 0.0
N666 N 0.13276 0.83459 0.32677 0.0
C667 C 0.11322 0.80741 0.3292 0.0
C668 C 0.07522 0.81669 0.32307 0.0
C669 C 0.08426 0.79818 0.32769 0.0
H670 H 0.21483 0.91486 0.31041 0.0
H671 H 0.06894 0.77678 0.33019 0.0
H672 H 0.06533 0.85738 0.31214 0.0
H673 H 0.20332 0.94933 0.29809 0.0
H674 H 0.11961 0.79272 0.33291 0.0
H675 H 0.31774 0.92255 0.37623 0.0
H676 H 0.05279 0.80949 0.32193 0.0
H677 H 0.17268 0.78422 0.39739 0.0
H678 H 0.26693 0.90647 0.37442 0.0
H679 H 0.18466 0.7497 0.40895 0.0
H680 H 0.10199 0.90444 0.30322 0.0
H681 H 0.33428 0.88995 0.38383 0.0
H682 H 0.32216 0.84207 0.39334 0.0
H683 H 0.15355 0.9388 0.29757 0.0
H684 H 0.28587 0.79491 0.40236 0.0
N685 N 0.25415 0.86464 0.38034 0.0
C686 C 0.27353 0.89183 0.37779 0.0
C687 C 0.3118 0.88268 0.38303 0.0
C688 C 0.29191 0.85521 0.3868 0.0
C689 C 0.30254 0.90114 0.37879 0.0
C690 C 0.26293 0.84682 0.38545 0.0
H691 H 0.23448 0.76035 0.40854 0.0
N692 N 0.21523 0.81396 0.39 0.0
C693 C 0.2012 0.76951 0.40373 0.0
C694 C 0.2427 0.8205 0.39053 0.0
C695 C 0.19451 0.78917 0.39723 0.0
C696 C 0.22933 0.77557 0.40343 0.0
C697 C 0.25057 0.8015 0.39707 0.0
O698 O 0.18658 0.83808 0.40699 0.0
O699 O 0.17218 0.84555 0.36102 0.0
O700 O 0.18462 0.8863 0.34707 0.0
O701 O 0.21741 0.88948 0.37075 0.0
O702 O 0.16084 0.81886 0.38433 0.0
O703 O 0.22148 0.87818 0.40017 0.0
O704 O 0.20076 0.86075 0.30096 0.0
O705 O 0.21468 0.85344 0.34674 0.0
O706 O 0.2019 0.81278 0.36069 0.0
O707 O 0.16881 0.80933 0.33717 0.0
O708 O 0.22595 0.88046 0.32372 0.0
O709 O 0.16592 0.82059 0.30784 0.0
C710 C 0.15095 0.82725 0.37034 0.0
C711 C 0.21647 0.86304 0.43378 0.0
C712 C 0.21684 0.86897 0.47014 0.0
C713 C 0.20445 0.86707 0.45127 0.0
C714 C 0.24101 0.86621 0.47126 0.0
C715 C 0.24059 0.86039 0.43534 0.0
C716 C 0.25268 0.86184 0.45398 0.0
C717 C 0.20342 0.89974 0.36127 0.0
C718 C 0.20409 0.86225 0.41403 0.0
C719 C 0.27935 0.80927 0.39756 0.0
C720 C 0.30001 0.83611 0.39242 0.0
C721 C 0.23593 0.8719 0.33753 0.0
C722 C 0.17173 0.83511 0.27401 0.0
C723 C 0.18544 0.83242 0.25696 0.0
C724 C 0.17375 0.82981 0.23775 0.0
C725 C 0.14844 0.83043 0.23583 0.0
C726 C 0.14657 0.83579 0.27171 0.0
C727 C 0.13508 0.83355 0.2527 0.0
C728 C 0.18259 0.79902 0.3469 0.0
C729 C 0.18355 0.83642 0.29405 0.0
H730 H 0.18595 0.86939 0.45014 0.0
H731 H 0.25081 0.8673 0.48557 0.0
H732 H 0.25027 0.85745 0.42218 0.0
H733 H 0.27129 0.85976 0.45502 0.0
H734 H 0.20478 0.83169 0.25869 0.0
H735 H 0.13911 0.82869 0.22123 0.0
H736 H 0.13565 0.83777 0.28457 0.0
H737 H 0.11564 0.83406 0.25105 0.0
Tb738 Tb 0.83747 0.66185 0.66252 0.0
C739 C 0.8933 0.75476 0.72382 0.0
C740 C 0.94297 0.76867 0.72317 0.0
C741 C 0.92846 0.80181 0.73156 0.0
C742 C 0.91435 0.74853 0.72059 0.0
C743 C 0.89997 0.78124 0.7299 0.0
C744 C 0.94995 0.79553 0.72817 0.0
C745 C 0.84994 0.76427 0.73423 0.0
N746 N 0.86611 0.7342 0.72233 0.0
C747 C 0.84443 0.73829 0.72822 0.0
C748 C 0.87781 0.78595 0.7348 0.0
Tb749 Tb 0.85909 0.69243 0.71206 0.0
N750 N 0.90662 0.72227 0.71603 0.0
C751 C 0.92659 0.7144 0.71526 0.0
C752 C 0.96358 0.76101 0.72124 0.0
C753 C 0.9553 0.73366 0.71756 0.0
H754 H 0.8228 0.72173 0.72777 0.0
H755 H 0.97102 0.7274 0.71639 0.0
H756 H 0.97183 0.81138 0.73001 0.0
H757 H 0.83267 0.76754 0.7384 0.0
H758 H 0.92072 0.69344 0.71231 0.0
H759 H 0.72578 0.6286 0.65978 0.0
H760 H 0.98582 0.77588 0.72302 0.0
H761 H 0.87213 0.6313 0.64622 0.0
H762 H 0.77639 0.66211 0.66257 0.0
H763 H 0.86111 0.58482 0.63634 0.0
H764 H 0.93407 0.82238 0.736 0.0
H765 H 0.70987 0.57961 0.6544 0.0
H766 H 0.72275 0.54325 0.64767 0.0
H767 H 0.88202 0.80601 0.73955 0.0
H768 H 0.7597 0.53131 0.64103 0.0
N769 N 0.78965 0.63256 0.65928 0.0
C770 C 0.77008 0.64093 0.66011 0.0
C771 C 0.73226 0.59428 0.65559 0.0
C772 C 0.75243 0.5861 0.65344 0.0
C773 C 0.74117 0.62192 0.65856 0.0
C774 C 0.78127 0.60603 0.65521 0.0
H775 H 0.81145 0.54682 0.63638 0.0
N776 N 0.82919 0.61968 0.6522 0.0
C777 C 0.84422 0.5886 0.64063 0.0
C778 C 0.80185 0.59935 0.65144 0.0
C779 C 0.85038 0.61495 0.64615 0.0
C780 C 0.81618 0.56719 0.64073 0.0
C781 C 0.79451 0.5725 0.64587 0.0
O782 O 0.85868 0.67116 0.63459 0.0
O783 O 0.86989 0.69317 0.68084 0.0
O784 O 0.85619 0.72239 0.69278 0.0
O785 O 0.82541 0.69323 0.66835 0.0
O786 O 0.88302 0.67749 0.65855 0.0
O787 O 0.8242 0.6786 0.63975 0.0
O788 O 0.83565 0.68017 0.73904 0.0
O789 O 0.82696 0.66081 0.69375 0.0
O790 O 0.84091 0.63231 0.6817 0.0
O791 O 0.87167 0.66125 0.70629 0.0
O792 O 0.8134 0.6767 0.71548 0.0
O793 O 0.87395 0.67858 0.73596 0.0
C794 C 0.89175 0.69538 0.67259 0.0
C795 C 0.83111 0.66857 0.60656 0.0
C796 C 0.83035 0.67635 0.5705 0.0
C797 C 0.84202 0.68585 0.58964 0.0
C798 C 0.80801 0.64925 0.56853 0.0
C799 C 0.80893 0.64159 0.60416 0.0
C800 C 0.79753 0.632 0.58523 0.0
C801 C 0.83854 0.71721 0.67767 0.0
C802 C 0.84231 0.6792 0.62666 0.0
C803 C 0.76583 0.55215 0.64508 0.0
C804 C 0.7448 0.55894 0.64888 0.0
C805 C 0.80488 0.65852 0.70164 0.0
C806 C 0.86186 0.68654 0.76849 0.0
C807 C 0.85275 0.66905 0.7854 0.0
C808 C 0.85932 0.67992 0.80505 0.0
C809 C 0.87494 0.70863 0.80723 0.0
C810 C 0.87794 0.7149 0.77128 0.0
C811 C 0.88433 0.72584 0.7905 0.0
C812 C 0.85896 0.63754 0.69652 0.0
C813 C 0.85364 0.67517 0.74809 0.0
H814 H 0.85902 0.7068 0.59144 0.0
H815 H 0.79876 0.64135 0.55399 0.0
H816 H 0.80024 0.62802 0.6169 0.0
H817 H 0.78037 0.61115 0.58352 0.0
H818 H 0.84073 0.6471 0.78316 0.0
H819 H 0.87966 0.71802 0.8219 0.0
H820 H 0.88534 0.72865 0.75864 0.0
H821 H 0.89641 0.74783 0.79246 0.0
Tb822 Tb 0.37065 0.17487 0.66376 0.0
C823 C 0.27306 0.14297 0.72383 0.0
C824 C 0.25873 0.17687 0.71973 0.0
C825 C 0.22444 0.13088 0.7309 0.0
C826 C 0.27948 0.169 0.71842 0.0
C827 C 0.24564 0.1237 0.73055 0.0
C828 C 0.23099 0.15746 0.7255 0.0
C829 C 0.26288 0.09264 0.73767 0.0
N830 N 0.29419 0.137 0.72344 0.0
C831 C 0.28976 0.11253 0.73095 0.0
C832 C 0.24061 0.09811 0.73724 0.0
Tb833 Tb 0.33745 0.17065 0.71193 0.0
N834 N 0.30659 0.18714 0.71313 0.0
C835 C 0.31478 0.21419 0.71045 0.0
C836 C 0.26671 0.20417 0.71585 0.0
C837 C 0.29496 0.22299 0.71149 0.0
H838 H 0.30675 0.10799 0.73123 0.0
H839 H 0.3015 0.24429 0.70882 0.0
H840 H 0.21466 0.163 0.72635 0.0
H841 H 0.25935 0.07309 0.74314 0.0
H842 H 0.33643 0.22911 0.70698 0.0
H843 H 0.40628 0.10111 0.66876 0.0
H844 H 0.25142 0.21104 0.71663 0.0
H845 H 0.40164 0.23698 0.6436 0.0
H846 H 0.37132 0.11635 0.66947 0.0
H847 H 0.44931 0.27168 0.63192 0.0
H848 H 0.20315 0.1163 0.73583 0.0
H849 H 0.45658 0.13424 0.6615 0.0
H850 H 0.4936 0.18213 0.65158 0.0
H851 H 0.21983 0.08271 0.74251 0.0
H852 H 0.50536 0.22868 0.64141 0.0
N853 N 0.40141 0.15824 0.6633 0.0
C854 C 0.39309 0.13121 0.66624 0.0
C855 C 0.44129 0.14114 0.66182 0.0
C856 C 0.44941 0.1684 0.65758 0.0
C857 C 0.41291 0.12238 0.66586 0.0
C858 C 0.42867 0.17631 0.65832 0.0
H859 H 0.48883 0.26214 0.63365 0.0
N860 N 0.41411 0.20824 0.65236 0.0
C861 C 0.44568 0.25227 0.63777 0.0
C862 C 0.43525 0.20227 0.65255 0.0
C863 C 0.41866 0.23251 0.64436 0.0
C864 C 0.46795 0.24685 0.63883 0.0
C865 C 0.46279 0.22141 0.64599 0.0
O866 O 0.36149 0.18247 0.63458 0.0
O867 O 0.33714 0.17626 0.68004 0.0
O868 O 0.30711 0.13569 0.69407 0.0
O869 O 0.33824 0.13236 0.67171 0.0
O870 O 0.35385 0.20206 0.65623 0.0
O871 O 0.35528 0.14288 0.64281 0.0
O872 O 0.34674 0.16288 0.74102 0.0
O873 O 0.37113 0.16948 0.69568 0.0
O874 O 0.40058 0.21021 0.68133 0.0
O875 O 0.3695 0.21334 0.70388 0.0
O876 O 0.35411 0.14329 0.71917 0.0
O877 O 0.35354 0.20272 0.73281 0.0
C878 C 0.33478 0.19394 0.66999 0.0
C879 C 0.36774 0.15691 0.60914 0.0
C880 C 0.36447 0.15137 0.57278 0.0
C881 C 0.35308 0.15368 0.59118 0.0
C882 C 0.39096 0.15287 0.57256 0.0
C883 C 0.39409 0.15826 0.60857 0.0
C884 C 0.40568 0.15639 0.59036 0.0
C885 C 0.31305 0.122 0.68057 0.0
C886 C 0.35492 0.15816 0.62829 0.0
C887 C 0.48397 0.2142 0.64621 0.0
C888 C 0.47728 0.1877 0.65201 0.0
C889 C 0.37345 0.15171 0.70562 0.0
C890 C 0.34181 0.18907 0.76665 0.0
C891 C 0.35649 0.19117 0.7844 0.0
C892 C 0.34606 0.1941 0.80304 0.0
C893 C 0.32049 0.19443 0.8037 0.0
C894 C 0.31633 0.18943 0.76765 0.0
C895 C 0.3057 0.19197 0.7861 0.0
C896 C 0.39445 0.22395 0.69462 0.0
C897 C 0.35388 0.18735 0.74728 0.0
H898 H 0.33254 0.15226 0.5916 0.0
H899 H 0.40034 0.15141 0.55859 0.0
H900 H 0.40561 0.16045 0.62213 0.0
H901 H 0.42604 0.15747 0.59006 0.0
H902 H 0.37635 0.19121 0.78365 0.0
H903 H 0.31187 0.19642 0.81785 0.0
H904 H 0.30479 0.18808 0.75424 0.0
H905 H 0.28603 0.19224 0.78674 0.0
Tb906 Tb 0.87129 0.17897 0.71228 0.0
C907 C 0.81162 0.21204 0.64928 0.0
C908 C 0.76224 0.17733 0.65156 0.0
C909 C 0.77549 0.2234 0.64072 0.0
C910 C 0.79109 0.18568 0.65393 0.0
C911 C 0.80419 0.23114 0.6422 0.0
C912 C 0.75452 0.19651 0.64541 0.0
C913 C 0.85391 0.26318 0.63704 0.0
N914 N 0.83901 0.21853 0.65077 0.0
C915 C 0.86017 0.24345 0.6441 0.0
C916 C 0.8258 0.25712 0.63631 0.0
Tb917 Tb 0.84741 0.18518 0.66286 0.0
N918 N 0.79953 0.16779 0.65957 0.0
C919 C 0.77998 0.14055 0.66159 0.0
C920 C 0.74211 0.1498 0.65484 0.0
C921 C 0.75108 0.13127 0.65958 0.0
H922 H 0.88198 0.24847 0.64471 0.0
H923 H 0.73573 0.10981 0.66177 0.0
H924 H 0.73246 0.19058 0.64371 0.0
H925 H 0.87077 0.28306 0.6322 0.0
H926 H 0.78629 0.12582 0.66536 0.0
H927 H 0.98254 0.25557 0.71324 0.0
H928 H 0.71972 0.14255 0.65327 0.0
H929 H 0.83818 0.11547 0.73002 0.0
H930 H 0.93164 0.23904 0.71101 0.0
H931 H 0.85044 0.08063 0.7403 0.0
H932 H 0.76931 0.23784 0.63549 0.0
H933 H 0.99951 0.22283 0.71872 0.0
H934 H 0.98779 0.17442 0.72596 0.0
H935 H 0.821 0.2724 0.63079 0.0
H936 H 0.95171 0.12665 0.7336 0.0
N937 N 0.91932 0.19693 0.71475 0.0
C938 C 0.93845 0.22436 0.71352 0.0
C939 C 0.97702 0.21537 0.71778 0.0
C940 C 0.95731 0.18756 0.72033 0.0
C941 C 0.96751 0.23391 0.71476 0.0
C942 C 0.92829 0.17898 0.7189 0.0
H943 H 0.90036 0.09157 0.73942 0.0
N944 N 0.88067 0.14567 0.72295 0.0
C945 C 0.8669 0.1007 0.73547 0.0
C946 C 0.9082 0.15234 0.72328 0.0
C947 C 0.86005 0.12054 0.72972 0.0
C948 C 0.89509 0.10693 0.73489 0.0
C949 C 0.91623 0.13318 0.72906 0.0
O950 O 0.85121 0.16842 0.74061 0.0
O951 O 0.83783 0.1778 0.69444 0.0
O952 O 0.85051 0.21897 0.68089 0.0
O953 O 0.88218 0.22154 0.70537 0.0
O954 O 0.82589 0.15036 0.71732 0.0
O955 O 0.88542 0.2092 0.73461 0.0
O956 O 0.86824 0.19462 0.63478 0.0
O957 O 0.88087 0.18661 0.68082 0.0
O958 O 0.8682 0.14565 0.69381 0.0
O959 O 0.83531 0.1424 0.67025 0.0
O960 O 0.89283 0.2141 0.65814 0.0
O961 O 0.83366 0.15415 0.64118 0.0
C962 C 0.81638 0.15917 0.70336 0.0
C963 C 0.88027 0.19292 0.76788 0.0
C964 C 0.88104 0.19923 0.8042 0.0
C965 C 0.86871 0.19758 0.78535 0.0
C966 C 0.9047 0.19566 0.80532 0.0
C967 C 0.90384 0.18938 0.76943 0.0
C968 C 0.9159 0.19065 0.78805 0.0
C969 C 0.86861 0.23201 0.69556 0.0
C970 C 0.86804 0.19247 0.74814 0.0
C971 C 0.94506 0.14113 0.72941 0.0
C972 C 0.9656 0.16831 0.72504 0.0
C973 C 0.90239 0.2055 0.6722 0.0
C974 C 0.8401 0.16902 0.60745 0.0
C975 C 0.85384 0.1659 0.59059 0.0
C976 C 0.84236 0.16316 0.57129 0.0
C977 C 0.81726 0.16408 0.56907 0.0
C978 C 0.81515 0.17 0.60485 0.0
C979 C 0.80389 0.16764 0.58575 0.0
C980 C 0.84918 0.13209 0.67982 0.0
C981 C 0.85153 0.1703 0.62763 0.0
H982 H 0.85063 0.20055 0.78422 0.0
H983 H 0.91445 0.19656 0.81962 0.0
H984 H 0.9131 0.18587 0.75627 0.0
H985 H 0.9341 0.1879 0.78909 0.0
H986 H 0.87301 0.16491 0.59255 0.0
H987 H 0.8081 0.16226 0.55439 0.0
H988 H 0.8042 0.1723 0.61755 0.0
H989 H 0.7846 0.16838 0.58388 0.0
H990 H 0.34205 0.84813 0.0931 0.0
H991 H 0.2951 0.85616 0.04433 0.0
H992 H 0.38589 0.88641 0.07943 0.0
H993 H 0.33891 0.89503 0.03095 0.0
H994 H 0.41897 0.98677 0.04052 0.0
H995 H 0.37432 0.945 0.04863 0.0
H996 H 0.41629 0.89762 0.04416 0.0
H997 H 0.46071 0.93922 0.03563 0.0
C998 C 0.34119 0.85805 0.07941 0.0
C999 C 0.31526 0.84927 0.06976 0.0
C1000 C 0.36622 0.8798 0.07155 0.0
C1001 C 0.36571 0.89358 0.05414 0.0
C1002 C 0.33982 0.8847 0.04439 0.0
C1003 C 0.31486 0.8625 0.052 0.0
C1004 C 0.41844 0.96731 0.04085 0.0
C1005 C 0.44311 0.96614 0.03698 0.0
C1006 C 0.39296 0.94347 0.04545 0.0
C1007 C 0.39191 0.91814 0.04696 0.0
C1008 C 0.41655 0.91691 0.04301 0.0
C1009 C 0.4419 0.94067 0.03796 0.0
H1010 H 0.20704 0.51293 0.07547 0.0
H1011 H 0.16121 0.42788 0.05871 0.0
H1012 H 0.16728 0.51831 0.0648 0.0
H1013 H 0.12203 0.43325 0.0469 0.0
H1014 H 0.04324 0.44074 0.05233 0.0
H1015 H 0.08481 0.43709 0.05969 0.0
H1016 H 0.1386 0.52083 0.04005 0.0
H1017 H 0.09667 0.52471 0.03396 0.0
C1018 C 0.18867 0.49558 0.06898 0.0
C1019 C 0.18713 0.47002 0.06787 0.0
C1020 C 0.16582 0.49861 0.06278 0.0
C1021 C 0.14098 0.47615 0.05513 0.0
C1022 C 0.14027 0.4509 0.05319 0.0
C1023 C 0.16288 0.44782 0.0597 0.0
C1024 C 0.06399 0.45829 0.04948 0.0
C1025 C 0.06662 0.4827 0.04196 0.0
C1026 C 0.08796 0.45618 0.05351 0.0
C1027 C 0.11542 0.47851 0.05023 0.0
C1028 C 0.11799 0.50316 0.04293 0.0
C1029 C 0.09389 0.50531 0.03909 0.0
H1030 H 0.5231 0.70738 0.06405 0.0
H1031 H 0.6119 0.73486 0.0704 0.0
H1032 H 0.51535 0.66421 0.04988 0.0
H1033 H 0.60469 0.69246 0.05541 0.0
H1034 H 0.57708 0.60221 0.05408 0.0
H1035 H 0.58524 0.64658 0.0647 0.0
H1036 H 0.52196 0.64056 0.02308 0.0
H1037 H 0.51251 0.59514 0.01332 0.0
C1038 C 0.54103 0.70433 0.062 0.0
C1039 C 0.56802 0.72423 0.06846 0.0
C1040 C 0.53667 0.67966 0.05381 0.0
C1041 C 0.55933 0.67458 0.05168 0.0
C1042 C 0.58658 0.69523 0.0573 0.0
C1043 C 0.5908 0.71964 0.06576 0.0
C1044 C 0.56489 0.61027 0.0471 0.0
C1045 C 0.54426 0.59506 0.03269 0.0
C1046 C 0.5698 0.63599 0.05308 0.0
C1047 C 0.55447 0.64745 0.04466 0.0
C1048 C 0.53402 0.63236 0.03005 0.0
C1049 C 0.52885 0.6064 0.02424 0.0
H1050 H 0.8829 0.28611 0.97199 0.0
H1051 H 0.82115 0.31215 0.97731 0.0
H1052 H 0.91898 0.32956 0.9858 0.0
H1053 H 0.85749 0.35632 0.99037 0.0
H1054 H 0.92467 0.42673 0.02687 0.0
H1055 H 0.88779 0.38127 0.01682 0.0
H1056 H 0.94702 0.37537 0.97675 0.0
H1057 H 0.98412 0.41988 0.98772 0.0
C1058 C 0.87711 0.30127 0.97606 0.0
C1059 C 0.84925 0.2958 0.97346 0.0
C1060 C 0.89785 0.32632 0.98387 0.0
C1061 C 0.89144 0.34684 0.98901 0.0
C1062 C 0.8633 0.34104 0.98683 0.0
C1063 C 0.84242 0.31575 0.97927 0.0
C1064 C 0.92998 0.41552 0.01622 0.0
C1065 C 0.9576 0.42696 1.00838 0.0
C1066 C 0.90865 0.38951 0.0102 0.0
C1067 C 0.91424 0.37435 0.99596 0.0
C1068 C 0.94187 0.38596 0.98807 0.0
C1069 C 0.96323 0.41176 0.99426 0.0
H1070 H 0.70498 0.50751 0.96602 0.0
H1071 H 0.74829 0.59386 0.97886 0.0
H1072 H 0.66047 0.50323 0.97785 0.0
H1073 H 0.70451 0.58966 0.992 0.0
H1074 H 0.61779 0.58206 0.9901 0.0
H1075 H 0.66268 0.5853 0.98169 0.0
H1076 H 0.63055 0.50231 1.00287 0.0
H1077 H 0.58485 0.4987 1.00978 0.0
C1078 C 0.70499 0.52546 0.97182 0.0
C1079 C 0.72996 0.55102 0.97146 0.0
C1080 C 0.67949 0.52306 0.97875 0.0
C1081 C 0.67843 0.54614 0.98581 0.0
C1082 C 0.70396 0.57148 0.9862 0.0
C1083 C 0.72925 0.57394 0.97888 0.0
C1084 C 0.62046 0.5646 0.99311 0.0
C1085 C 0.59799 0.54042 1.00114 0.0
C1086 C 0.6464 0.56649 0.98846 0.0
C1087 C 0.65081 0.5442 0.99172 0.0
C1088 C 0.62818 0.51992 0.99988 0.0
C1089 C 0.60199 0.51793 1.00423 0.0
H1090 H 0.47101 0.18556 0.99735 0.0
H1091 H 0.48454 0.16675 0.93683 0.0
H1092 H 0.47985 0.15005 0.01017 0.0
H1093 H 0.49212 0.13048 0.94977 0.0
H1094 H 0.46857 0.04791 0.98089 0.0
H1095 H 0.46148 0.08457 0.96828 0.0
H1096 H 0.52158 0.14039 0.01114 0.0
H1097 H 0.52949 0.10402 0.02341 0.0
C1098 C 0.4761 0.1741 0.98675 0.0
C1099 C 0.47705 0.17917 0.96599 0.0
C1100 C 0.48102 0.15365 0.99414 0.0
C1101 C 0.48656 0.13749 0.98096 0.0
C1102 C 0.48754 0.14245 0.96025 0.0
C1103 C 0.48305 0.16317 0.95286 0.0
C1104 C 0.48034 0.06796 0.98768 0.0
C1105 C 0.49939 0.07285 1.00339 0.0
C1106 C 0.47631 0.08897 0.98037 0.0
C1107 C 0.49095 0.11527 0.98875 0.0
C1108 C 0.5098 0.1202 1.00455 0.0
C1109 C 0.5142 0.09929 0.01165 0.0
H1110 H 0.73793 0.14588 1.00644 0.0
H1111 H 0.70232 0.18913 0.97612 0.0
H1112 H 0.69066 0.10685 0.01181 0.0
H1113 H 0.65487 0.14962 0.98079 0.0
H1114 H 0.57154 0.08288 1.00887 0.0
H1115 H 0.61856 0.12326 1.00518 0.0
H1116 H 0.65349 0.07066 0.99353 0.0
H1117 H 0.60669 0.03052 0.99806 0.0
C1118 C 0.71995 0.1468 1.0006 0.0
C1119 C 0.72397 0.17023 0.99031 0.0
C1120 C 0.69282 0.12441 1.00363 0.0
C1121 C 0.66883 0.12481 0.99649 0.0
C1122 C 0.67279 0.14856 0.98657 0.0
C1123 C 0.70003 0.17111 0.98364 0.0
C1124 C 0.5894 0.08002 1.00596 0.0
C1125 C 0.58569 0.05357 1.00448 0.0
C1126 C 0.61631 0.10317 1.0035 0.0
C1127 C 0.64001 0.10034 0.99919 0.0
C1128 C 0.63597 0.07375 0.9973 0.0
C1129 C 0.60914 0.0507 0.9998 0.0
H1130 H 0.8835 0.58693 1.00058 0.0
H1131 H 0.83433 0.50543 0.97664 0.0
H1132 H 0.9238 0.58009 1.00465 0.0
H1133 H 0.87515 0.49871 0.98002 0.0
H1134 H 0.94582 0.48718 1.0084 0.0
H1135 H 0.90434 0.49241 1.0038 0.0
H1136 H 0.95911 0.57682 0.9862 0.0
H1137 H 1.00033 0.57167 0.99163 0.0
C1138 C 0.88154 0.56772 0.99575 0.0
C1139 C 0.85599 0.5471 0.98768 0.0
C1140 C 0.90471 0.56377 0.99805 0.0
C1141 C 0.90307 0.53897 0.99241 0.0
C1142 C 0.87729 0.51808 0.98458 0.0
C1143 C 0.85396 0.52203 0.98239 0.0
C1144 C 0.94893 0.50693 1.00388 0.0
C1145 C 0.97636 0.52934 1.00114 0.0
C1146 C 0.92511 0.50986 1.00091 0.0
C1147 C 0.9282 0.53517 0.99483 0.0
C1148 C 0.95576 0.55721 0.99138 0.0
C1149 C 0.97945 0.55427 0.99439 0.0
H1150 H 0.48804 0.29994 0.02119 0.0
H1151 H 0.46158 0.3055 0.96141 0.0
H1152 H 0.50076 0.34742 0.02745 0.0
H1153 H 0.47496 0.3533 0.96735 0.0
H1154 H 0.47135 0.42673 0.99319 0.0
H1155 H 0.45962 0.37976 0.98658 0.0
H1156 H 0.53468 0.3939 0.01808 0.0
H1157 H 0.54622 0.44075 0.02492 0.0
C1158 C 0.48515 0.31147 1.00936 0.0
C1159 C 0.47372 0.29915 0.99086 0.0
C1160 C 0.49259 0.3387 0.01287 0.0
C1161 C 0.48884 0.3542 0.99792 0.0
C1162 C 0.47772 0.34186 0.9793 0.0
C1163 C 0.47023 0.3146 0.97583 0.0
C1164 C 0.48537 0.41986 0.99871 0.0
C1165 C 0.50955 0.43745 1.0098 0.0
C1166 C 0.47872 0.39293 0.99481 0.0
C1167 C 0.49616 0.38299 1.00182 0.0
C1168 C 0.52051 0.40071 0.01274 0.0
C1169 C 0.52714 0.42761 0.01666 0.0
H1170 H 0.20134 0.72501 0.0202 0.0
H1171 H 0.16759 0.71959 0.07968 0.0
H1172 H 0.16671 0.67677 0.01452 0.0
H1173 H 0.13321 0.67111 0.07432 0.0
H1174 H 0.05535 0.5955 0.04868 0.0
H1175 H 0.09102 0.64294 0.05514 0.0
H1176 H 0.15364 0.6307 0.02437 0.0
H1177 H 0.11793 0.58332 0.01777 0.0
C1178 C 0.18654 0.71337 0.03209 0.0
C1179 C 0.18678 0.72604 0.05026 0.0
C1180 C 0.16681 0.68569 0.02891 0.0
C1181 C 0.14698 0.67 0.04391 0.0
C1182 C 0.14778 0.68264 0.0623 0.0
C1183 C 0.16752 0.71032 0.06544 0.0
C1184 C 0.07672 0.60287 0.04331 0.0
C1185 C 0.08361 0.5856 0.03246 0.0
C1186 C 0.09726 0.63009 0.04712 0.0
C1187 C 0.12527 0.64077 0.04024 0.0
C1188 C 0.13221 0.62337 0.0296 0.0
C1189 C 0.11168 0.59614 0.02581 0.0
H1190 H 0.31684 0.45149 0.07998 0.0
H1191 H 0.32744 0.49854 0.02639 0.0
H1192 H 0.36526 0.46005 0.07626 0.0
H1193 H 0.37574 0.50685 0.02238 0.0
H1194 H 0.47042 0.5345 0.03151 0.0
H1195 H 0.4237 0.52976 0.03651 0.0
H1196 H 0.39027 0.44523 0.05391 0.0
H1197 H 0.43691 0.45013 0.04884 0.0
C1198 C 0.32969 0.46389 0.06751 0.0
C1199 C 0.31831 0.47415 0.05341 0.0
C1200 C 0.35733 0.46861 0.06524 0.0
C1201 C 0.3744 0.48388 0.04886 0.0
C1202 C 0.36335 0.49514 0.03523 0.0
C1203 C 0.33564 0.49033 0.03748 0.0
C1204 C 0.45298 0.51483 0.03608 0.0
C1205 C 0.45712 0.49243 0.0392 0.0
C1206 C 0.42619 0.51212 0.03906 0.0
C1207 C 0.40309 0.4871 0.04565 0.0
C1208 C 0.40753 0.4649 0.04907 0.0
C1209 C 0.43421 0.4676 0.04601 0.0
H1210 H 0.5574 0.8358 0.02586 0.0
H1211 H 0.58038 0.86614 0.08616 0.0
H1212 H 0.54296 0.86965 0.01927 0.0
H1213 H 0.56533 0.89974 0.07986 0.0
H1214 H 0.56862 0.97647 0.05262 0.0
H1215 H 0.58065 0.94136 0.06061 0.0
H1216 H 0.50763 0.88177 0.0278 0.0
H1217 H 0.49575 0.91686 0.01969 0.0
C1218 C 0.55914 0.84965 0.03773 0.0
C1219 C 0.57031 0.84871 0.05642 0.0
C1220 C 0.55072 0.86892 0.03404 0.0
C1221 C 0.55312 0.88754 0.04901 0.0
C1222 C 0.56366 0.88604 0.06789 0.0
C1223 C 0.57211 0.86677 0.07156 0.0
C1224 C 0.55507 0.95586 0.04717 0.0
C1225 C 0.53147 0.94961 0.03525 0.0
C1226 C 0.56189 0.93568 0.05184 0.0
C1227 C 0.5452 0.90875 0.04476 0.0
C1228 C 0.52126 0.9024 0.03319 0.0
C1229 C 0.51445 0.92257 0.02852 0.0
H1230 H 1.00928 0.17999 0.42594 0.0
H1231 H 0.96179 0.1883 0.37769 0.0
H1232 H 0.05299 0.21826 0.41212 0.0
H1233 H 1.00549 0.22716 0.36416 0.0
H1234 H 0.08569 0.31885 0.37373 0.0
H1235 H 0.04111 0.27703 0.38188 0.0
H1236 H 0.08303 0.22967 0.37668 0.0
H1237 H 0.12738 0.27132 0.3681 0.0
C1238 C 1.00828 0.18996 0.41233 0.0
C1239 C 0.98224 0.18126 0.40287 0.0
C1240 C 0.03324 0.2117 0.40438 0.0
C1241 C 0.03254 0.22557 0.38708 0.0
C1242 C 1.00654 0.21676 0.37751 0.0
C1243 C 0.98164 0.19456 0.3852 0.0
C1244 C 0.08515 0.29938 0.3739 0.0
C1245 C 0.10979 0.29823 0.36981 0.0
C1246 C 0.05971 0.27551 0.37852 0.0
C1247 C 0.05868 0.25017 0.37985 0.0
C1248 C 0.08328 0.24896 0.37567 0.0
C1249 C 0.10859 0.27276 0.3706 0.0
H1250 H 0.87187 0.84671 0.41141 0.0
H1251 H 0.82991 0.76339 0.39051 0.0
H1252 H 0.83201 0.85159 0.40016 0.0
H1253 H 0.79046 0.76829 0.3784 0.0
H1254 H 0.70984 0.77349 0.38434 0.0
H1255 H 0.75173 0.77031 0.3918 0.0
H1256 H 0.80488 0.85486 0.37386 0.0
H1257 H 0.76266 0.85815 0.36738 0.0
C1258 C 0.85434 0.82968 0.40392 0.0
C1259 C 0.85394 0.80474 0.40171 0.0
C1260 C 0.83147 0.83243 0.3974 0.0
C1261 C 0.80765 0.81027 0.38847 0.0
C1262 C 0.808 0.78566 0.38558 0.0
C1263 C 0.83073 0.78287 0.39228 0.0
C1264 C 0.73052 0.79131 0.38185 0.0
C1265 C 0.73292 0.8158 0.3747 0.0
C1266 C 0.75464 0.78947 0.38597 0.0
C1267 C 0.78198 0.81222 0.38325 0.0
C1268 C 0.78432 0.8369 0.37628 0.0
C1269 C 0.76008 0.83873 0.37225 0.0
H1270 H 0.22116 0.03227 0.43499 0.0
H1271 H 0.23435 0.06719 0.37545 0.0
H1272 H 0.21343 0.98937 0.42074 0.0
H1273 H 0.22541 0.02356 0.36121 0.0
H1274 H 0.17725 0.92761 0.34784 0.0
H1275 H 0.18429 0.9716 0.35973 0.0
H1276 H 0.24689 0.97698 0.40152 0.0
H1277 H 0.24067 0.93367 0.38939 0.0
C1278 C 0.22247 0.03088 0.41886 0.0
C1279 C 0.22888 0.05345 0.40642 0.0
C1280 C 0.21789 0.00621 0.41072 0.0
C1281 C 0.21912 1.00329 0.38991 0.0
C1282 C 0.22428 0.02531 0.37732 0.0
C1283 C 0.22928 0.05023 0.3855 0.0
C1284 C 0.19291 0.93838 0.35928 0.0
C1285 C 0.20849 0.92706 0.36754 0.0
C1286 C 0.19684 0.96353 0.36612 0.0
C1287 C 0.21598 0.97754 0.38162 0.0
C1288 C 0.23176 0.96643 0.38969 0.0
C1289 C 0.2282 0.9416 0.38267 0.0
H1290 H 0.54941 0.61871 0.30497 0.0
H1291 H 0.48753 0.64461 0.31011 0.0
H1292 H 0.58541 0.6622 0.31879 0.0
H1293 H 0.52379 0.68882 0.3232 0.0
H1294 H 0.59089 0.75932 0.3597 0.0
H1295 H 0.55408 0.71382 0.34969 0.0
H1296 H 0.61335 0.70802 0.3096 0.0
H1297 H 0.6504 0.7526 0.32052 0.0
C1298 C 0.54358 0.63384 0.30902 0.0
C1299 C 0.51571 0.62833 0.30635 0.0
C1300 C 0.56426 0.65891 0.31682 0.0
C1301 C 0.5578 0.6794 0.32191 0.0
C1302 C 0.52964 0.67355 0.3197 0.0
C1303 C 0.50881 0.64824 0.31213 0.0
C1304 C 0.59623 0.74813 0.34905 0.0
C1305 C 0.62384 0.75962 0.34119 0.0
C1306 C 0.57493 0.72208 0.34306 0.0
C1307 C 0.58055 0.70695 0.32883 0.0
C1308 C 0.60818 0.7186 0.32091 0.0
C1309 C 0.62951 0.74444 0.32708 0.0
H1310 H 0.41445 0.92739 0.31289 0.0
H1311 H 0.37084 0.84137 0.29893 0.0
H1312 H 0.37064 0.92312 0.32608 0.0
H1313 H 0.32635 0.83704 0.31083 0.0
H1314 H 0.25069 0.83201 0.3429 0.0
H1315 H 0.29638 0.83567 0.33597 0.0
H1316 H 0.3289 0.91917 0.31585 0.0
H1317 H 0.28395 0.91582 0.32428 0.0
C1318 C 0.39534 0.90752 0.31269 0.0
C1319 C 0.39598 0.88471 0.30496 0.0
C1320 C 0.37005 0.90503 0.32004 0.0
C1321 C 0.34444 0.87977 0.31936 0.0
C1322 C 0.34542 0.85679 0.31196 0.0
C1323 C 0.37092 0.85922 0.305 0.0
C1324 C 0.2679 0.85135 0.33758 0.0
C1325 C 0.26397 0.87393 0.33479 0.0
C1326 C 0.2941 0.85338 0.33321 0.0
C1327 C 0.31683 0.8778 0.32534 0.0
C1328 C 0.31252 0.90021 0.32238 0.0
C1329 C 0.28655 0.89827 0.32705 0.0
H1330 H 0.18647 0.53845 0.30641 0.0
H1331 H 0.09879 0.47893 0.29617 0.0
H1332 H 0.19456 0.50235 0.3191 0.0
H1333 H 0.10634 0.44293 0.30959 0.0
H1334 H 0.13464 0.38028 0.31431 0.0
H1335 H 0.12723 0.41662 0.30203 0.0
H1336 H 0.18627 0.47196 0.3458 0.0
H1337 H 0.1951 0.43596 0.35719 0.0
C1338 C 0.16887 0.51764 0.30708 0.0
C1339 C 0.14206 0.51143 0.30019 0.0
C1340 C 0.17342 0.49693 0.31446 0.0
C1341 C 0.15113 0.46957 0.31539 0.0
C1342 C 0.1242 0.46357 0.30873 0.0
C1343 C 0.11979 0.4842 0.30109 0.0
C1344 C 0.1461 0.40017 0.32136 0.0
C1345 C 0.16528 0.40501 0.33694 0.0
C1346 C 0.14163 0.42105 0.3144 0.0
C1347 C 0.15596 0.44733 0.32296 0.0
C1348 C 0.17506 0.45214 0.33864 0.0
C1349 C 0.17982 0.4313 0.34542 0.0
H1350 H 0.40451 0.47767 0.33815 0.0
H1351 H 0.36895 0.52188 0.30916 0.0
H1352 H 0.35718 0.43872 0.34353 0.0
H1353 H 0.32142 0.48246 0.31385 0.0
H1354 H 0.23824 0.41542 0.34196 0.0
H1355 H 0.28535 0.45573 0.33834 0.0
H1356 H 0.31968 0.40303 0.32511 0.0
H1357 H 0.27282 0.36295 0.32955 0.0
C1358 C 0.38652 0.47882 0.3326 0.0
C1359 C 0.39057 0.50249 0.32266 0.0
C1360 C 0.35936 0.45647 0.33564 0.0
C1361 C 0.33536 0.45717 0.32888 0.0
C1362 C 0.33935 0.48116 0.31932 0.0
C1363 C 0.36663 0.50366 0.31639 0.0
C1364 C 0.25599 0.41252 0.33871 0.0
C1365 C 0.25209 0.38604 0.33673 0.0
C1366 C 0.28295 0.43563 0.3363 0.0
C1367 C 0.3065 0.43275 0.33155 0.0
C1368 C 0.30228 0.40614 0.32921 0.0
C1369 C 0.27541 0.38314 0.33165 0.0
H1370 H 0.54337 0.90131 0.29327 0.0
H1371 H 0.5047 0.85289 0.34635 0.0
H1372 H 0.58325 0.89322 0.2967 0.0
H1373 H 0.54469 0.84504 0.35006 0.0
H1374 H 0.6119 0.81907 0.34111 0.0
H1375 H 0.5698 0.82304 0.33564 0.0
H1376 H 0.6232 0.90804 0.3191 0.0
H1377 H 0.66509 0.90389 0.32462 0.0
C1378 C 0.54333 0.88871 0.30556 0.0
C1379 C 0.5211 0.87795 0.31963 0.0
C1380 C 0.56626 0.88425 0.30765 0.0
C1381 C 0.56744 0.86874 0.32382 0.0
C1382 C 0.54449 0.85695 0.33738 0.0
C1383 C 0.52159 0.86149 0.3353 0.0
C1384 C 0.6146 0.83866 0.3366 0.0
C1385 C 0.64182 0.86144 0.33393 0.0
C1386 C 0.59046 0.84093 0.33335 0.0
C1387 C 0.59299 0.86589 0.32695 0.0
C1388 C 0.62032 0.88842 0.32381 0.0
C1389 C 0.64437 0.88614 0.32713 0.0
H1390 H 0.15474 0.63355 0.35467 0.0
H1391 H 0.12752 0.63794 0.2949 0.0
H1392 H 0.16746 0.68112 0.36048 0.0
H1393 H 0.1409 0.68585 0.30038 0.0
H1394 H 0.13752 0.75979 0.3259 0.0
H1395 H 0.12586 0.71279 0.3194 0.0
H1396 H 0.20125 0.72735 0.35063 0.0
H1397 H 0.21272 0.77418 0.35734 0.0
C1398 C 0.15167 0.64484 0.34275 0.0
C1399 C 0.14001 0.63216 0.32439 0.0
C1400 C 0.15911 0.67212 0.346 0.0
C1401 C 0.15516 0.68734 0.33091 0.0
C1402 C 0.14382 0.67464 0.31243 0.0
C1403 C 0.13633 0.64732 0.30922 0.0
C1404 C 0.15164 0.753 0.33136 0.0
C1405 C 0.17585 0.77068 0.34238 0.0
C1406 C 0.14503 0.72606 0.32753 0.0
C1407 C 0.16255 0.71621 0.33456 0.0
C1408 C 0.187 0.73407 0.34531 0.0
C1409 C 0.19358 0.76097 0.34915 0.0
H1410 H 0.86762 0.05774 0.35373 0.0
H1411 H 0.83373 0.05198 0.41322 0.0
H1412 H 0.83282 0.00961 0.34784 0.0
H1413 H 0.79918 1.0036 0.40763 0.0
H1414 H 0.72126 0.92825 0.38174 0.0
H1415 H 0.757 0.97564 0.38837 0.0
H1416 H 0.81959 0.96345 0.3575 0.0
H1417 H 0.78384 0.91615 0.35074 0.0
C1418 C 0.85275 0.04605 0.36557 0.0
C1419 C 0.85301 0.0586 0.38381 0.0
C1420 C 0.83292 0.01844 0.36228 0.0
C1421 C 0.813 1.00268 0.37721 0.0
C1422 C 0.81381 0.01519 0.39566 0.0
C1423 C 0.83366 0.04282 0.39893 0.0
C1424 C 0.74264 0.93562 0.37638 0.0
C1425 C 0.74951 0.91839 0.36546 0.0
C1426 C 0.76322 0.96282 0.38028 0.0
C1427 C 0.79123 0.97349 0.37343 0.0
C1428 C 0.79815 0.95613 0.36272 0.0
C1429 C 0.77759 0.92894 0.35883 0.0
H1430 H 0.98242 0.78239 0.41371 0.0
H1431 H 0.99226 0.83017 0.36069 0.0
H1432 H 0.03084 0.79115 0.40952 0.0
H1433 H 0.04062 0.83872 0.35621 0.0
H1434 H 0.13563 0.86668 0.3651 0.0
H1435 H 0.08879 0.86158 0.37025 0.0
H1436 H 0.05568 0.77674 0.38658 0.0
H1437 H 0.10243 0.78197 0.38132 0.0
C1438 C 0.99509 0.79496 0.40125 0.0
C1439 C 0.98348 0.80533 0.38742 0.0
C1440 C 0.02274 0.79981 0.39872 0.0
C1441 C 0.03961 0.81536 0.38235 0.0
C1442 C 0.02836 0.82676 0.36902 0.0
C1443 C 1.00063 0.82182 0.37154 0.0
C1444 C 0.11823 0.84686 0.36944 0.0
C1445 C 0.12251 0.82448 0.37223 0.0
C1446 C 0.09137 0.84394 0.37252 0.0
C1447 C 0.06833 0.81874 0.37889 0.0
C1448 C 0.07289 0.79654 0.38192 0.0
C1449 C 0.09964 0.79944 0.37876 0.0
H1450 H 0.2459 0.19735 0.41795 0.0
H1451 H 0.22147 0.16615 0.35798 0.0
H1452 H 0.23163 0.23148 0.41152 0.0
H1453 H 0.20786 0.20055 0.35124 0.0
H1454 H 0.16186 0.24895 0.35165 0.0
H1455 H 0.17328 0.21354 0.35976 0.0
H1456 H 0.24702 0.27284 0.3921 0.0
H1457 H 0.23541 0.30824 0.38416 0.0
C1458 C 0.23744 0.19787 0.4034 0.0
C1459 C 0.23488 0.17931 0.38843 0.0
C1460 C 0.22946 0.21748 0.39965 0.0
C1461 C 0.21872 0.21887 0.38082 0.0
C1462 C 0.21573 0.19988 0.36598 0.0
C1463 C 0.22367 0.18028 0.36976 0.0
C1464 C 0.18063 0.25452 0.36037 0.0
C1465 C 0.19794 0.28156 0.367 0.0
C1466 C 0.18717 0.23417 0.36503 0.0
C1467 C 0.21117 0.24033 0.37649 0.0
C1468 C 0.2282 0.26729 0.38343 0.0
C1469 C 0.22163 0.28765 0.37878 0.0
H1470 H 0.62955 0.52273 0.71123 0.0
H1471 H 0.67634 0.51541 0.76041 0.0
H1472 H 0.67337 0.56154 0.6978 0.0
H1473 H 0.7202 0.55361 0.74668 0.0
H1474 H 0.79499 0.60578 0.70251 0.0
H1475 H 0.75053 0.56426 0.7111 0.0
H1476 H 0.7088 0.61185 0.71565 0.0
H1477 H 0.7535 0.65355 0.70751 0.0
C1478 C 0.64928 0.52922 0.71898 0.0
C1479 C 0.64964 0.51621 0.73687 0.0
C1480 C 0.67424 0.55138 0.71134 0.0
C1481 C 0.70009 0.56042 0.72119 0.0
C1482 C 0.70056 0.54687 0.73874 0.0
C1483 C 0.67552 0.52517 0.74664 0.0
C1484 C 0.77623 0.6073 0.70487 0.0
C1485 C 0.77752 0.6328 0.70393 0.0
C1486 C 0.75086 0.58357 0.70994 0.0
C1487 C 0.72628 0.5849 0.71395 0.0
C1488 C 0.72739 0.61026 0.71243 0.0
C1489 C 0.7529 0.63405 0.70782 0.0
H1490 H 0.53936 0.18015 0.74356 0.0
H1491 H 0.4945 0.09568 0.7253 0.0
H1492 H 0.49963 0.18555 0.73276 0.0
H1493 H 0.45534 0.10108 0.71345 0.0
H1494 H 0.37609 0.10785 0.7188 0.0
H1495 H 0.4177 0.10438 0.72643 0.0
H1496 H 0.47143 0.18845 0.70752 0.0
H1497 H 0.42942 0.1921 0.70104 0.0
C1498 C 0.52122 0.16295 0.73674 0.0
C1499 C 0.51994 0.13753 0.73521 0.0
C1500 C 0.4984 0.16598 0.73047 0.0
C1501 C 0.47383 0.14368 0.72237 0.0
C1502 C 0.47338 0.11859 0.72006 0.0
C1503 C 0.49597 0.1155 0.72661 0.0
C1504 C 0.39684 0.12551 0.71616 0.0
C1505 C 0.39943 0.14995 0.70871 0.0
C1506 C 0.42083 0.12351 0.72036 0.0
C1507 C 0.44828 0.14599 0.71735 0.0
C1508 C 0.45081 0.17067 0.71016 0.0
C1509 C 0.42669 0.1727 0.70612 0.0
H1510 H 0.9005 0.39978 0.70994 0.0
H1511 H 0.88085 0.36262 0.76892 0.0
H1512 H 0.89234 0.35644 0.69561 0.0
H1513 H 0.87402 0.32006 0.75464 0.0
H1514 H 0.9039 0.26508 0.72493 0.0
H1515 H 0.90959 0.30825 0.73697 0.0
H1516 H 0.85013 0.30426 0.69289 0.0
H1517 H 0.84352 0.26039 0.68113 0.0
C1518 C 0.8942 0.38241 0.71983 0.0
C1519 C 0.89176 0.38491 0.74066 0.0
C1520 C 0.88966 0.35767 0.71161 0.0
C1521 C 0.88296 0.33511 0.72408 0.0
C1522 C 0.87969 0.33732 0.74475 0.0
C1523 C 0.88377 0.3618 0.75291 0.0
C1524 C 0.89203 0.27329 0.71769 0.0
C1525 C 0.87333 0.25919 0.70194 0.0
C1526 C 0.89529 0.29804 0.72465 0.0
C1527 C 0.88025 0.3095 0.71588 0.0
C1528 C 0.86212 0.29591 0.6998 0.0
C1529 C 0.85845 0.27084 0.69304 0.0
H1530 H 0.15449 0.97893 0.64334 0.0
H1531 H 0.2165 0.95317 0.6384 0.0
H1532 H 0.19063 0.02316 0.65646 0.0
H1533 H 0.25237 0.99666 0.6523 0.0
H1534 H 0.31728 0.08699 0.65424 0.0
H1535 H 0.28034 0.04243 0.64325 0.0
H1536 H 0.22071 0.04827 0.68293 0.0
H1537 H 0.25742 0.09381 0.69297 0.0
C1538 C 0.17578 0.9826 0.64541 0.0
C1539 C 0.18275 0.96273 0.63968 0.0
C1540 C 0.19654 0.00793 0.653 0.0
C1541 C 0.22469 0.01382 0.65531 0.0
C1542 C 0.23123 0.99335 0.65026 0.0
C1543 C 0.21061 0.96828 0.64241 0.0
C1544 C 0.29633 0.07885 0.66068 0.0
C1545 C 0.29053 0.09406 0.67469 0.0
C1546 C 0.27507 0.05301 0.65449 0.0
C1547 C 0.24737 0.04137 0.66227 0.0
C1548 C 0.24162 0.05653 0.6764 0.0
C1549 C 0.26286 0.0826 0.68241 0.0
H1550 H 0.06688 0.25576 0.62239 0.0
H1551 H 0.05048 0.18346 0.65571 0.0
H1552 H 0.02295 0.25095 0.63422 0.0
H1553 H 1.00742 0.18026 0.66941 0.0
H1554 H 0.91553 0.16428 0.67204 0.0
H1555 H 0.96096 0.16828 0.66346 0.0
H1556 H 0.9983 0.25629 0.65917 0.0
H1557 H 0.95242 0.25168 0.6663 0.0
C1558 C 0.05399 0.23876 0.63231 0.0
C1559 C 0.06237 0.2197 0.63763 0.0
C1560 C 0.02877 0.23635 0.63959 0.0
C1561 C 1.01119 0.21526 0.65302 0.0
C1562 C 0.01992 0.19659 0.65888 0.0
C1563 C 0.04503 0.19868 0.65122 0.0
C1564 C 0.93361 0.18445 0.66952 0.0
C1565 C 0.93054 0.20774 0.67007 0.0
C1566 C 0.95984 0.18684 0.66461 0.0
C1567 C 0.9837 0.21263 0.66023 0.0
C1568 C 0.98054 0.23593 0.66168 0.0
C1569 C 0.95425 0.23342 0.66606 0.0
H1570 H 0.76648 0.81242 0.62898 0.0
H1571 H 0.85427 0.8721 0.63861 0.0
H1572 H 0.77416 0.77664 0.64269 0.0
H1573 H 0.86248 0.83621 0.65158 0.0
H1574 H 0.86338 0.77058 0.69039 0.0
H1575 H 0.85451 0.80638 0.67857 0.0
H1576 H 0.79487 0.7501 0.6355 0.0
H1577 H 0.8023 0.71397 0.64824 0.0
C1578 C 0.78753 0.81777 0.63382 0.0
C1579 C 0.80979 0.84499 0.63268 0.0
C1580 C 0.79201 0.79726 0.64163 0.0
C1581 C 0.81901 0.80337 0.64822 0.0
C1582 C 0.8413 0.83071 0.64702 0.0
C1583 C 0.83668 0.85129 0.63947 0.0
C1584 C 0.84796 0.76568 0.67869 0.0
C1585 C 0.83325 0.73919 0.67056 0.0
C1586 C 0.84317 0.78639 0.67165 0.0
C1587 C 0.82389 0.78127 0.65604 0.0
C1588 C 0.80942 0.75479 0.64781 0.0
C1589 C 0.8139 0.73403 0.65504 0.0
H1590 H 0.03631 0.85556 0.64239 0.0
H1591 H 0.07228 0.81269 0.6728 0.0
H1592 H 0.98892 0.81606 0.64733 0.0
H1593 H 0.02507 0.77367 0.67843 0.0
H1594 H 0.9411 0.69715 0.66497 0.0
H1595 H 0.98783 0.73732 0.66028 0.0
H1596 H 0.95283 0.78986 0.67192 0.0
H1597 H 0.90586 0.74943 0.67578 0.0
C1598 C 0.03411 0.83762 0.64999 0.0
C1599 C 0.05813 0.83685 0.6566 0.0
C1600 C 1.00691 0.81508 0.65307 0.0
C1601 C 1.00308 0.79144 0.66309 0.0
C1602 C 0.02714 0.79114 0.67019 0.0
C1603 C 0.05423 0.81353 0.667 0.0
C1604 C 0.94352 0.71732 0.66668 0.0
C1605 C 0.92007 0.72017 0.67139 0.0
C1606 C 0.97031 0.74038 0.66409 0.0
C1607 C 0.97431 0.76696 0.66592 0.0
C1608 C 0.95061 0.76977 0.67028 0.0
C1609 C 0.92373 0.7466 0.67283 0.0
H1610 H 0.17417 0.19219 0.68142 0.0
H1611 H 0.21341 0.24069 0.62848 0.0
H1612 H 0.21331 0.18295 0.68471 0.0
H1613 H 0.25242 0.23129 0.6315 0.0
H1614 H 0.3335 0.23924 0.65863 0.0
H1615 H 0.29239 0.24482 0.65364 0.0
H1616 H 0.23721 0.15994 0.66973 0.0
H1617 H 0.27858 0.15453 0.67467 0.0
C1618 C 0.19106 0.20061 0.67036 0.0
C1619 C 0.191 0.21752 0.65487 0.0
C1620 C 0.21345 0.19525 0.67218 0.0
C1621 C 0.2363 0.20664 0.65852 0.0
C1622 C 0.23553 0.22263 0.64254 0.0
C1623 C 0.21311 0.22789 0.6407 0.0
C1624 C 0.31256 0.22182 0.66115 0.0
C1625 C 0.30931 0.19673 0.66769 0.0
C1626 C 0.28895 0.22492 0.65814 0.0
C1627 C 0.26135 0.20286 0.66132 0.0
C1628 C 0.2581 0.1775 0.66741 0.0
C1629 C 0.28181 0.1744 0.67036 0.0
H1630 H 0.82334 0.96744 0.68663 0.0
H1631 H 0.79451 0.97127 0.6273 0.0
H1632 H 0.83594 0.01497 0.69245 0.0
H1633 H 0.80776 0.01915 0.63279 0.0
H1634 H 0.80402 0.0927 0.659 0.0
H1635 H 0.7928 0.04588 0.65219 0.0
H1636 H 0.8692 0.06126 0.68234 0.0
H1637 H 0.88024 0.10791 0.68932 0.0
C1638 C 0.8199 0.9786 0.6748 0.0
C1639 C 0.8078 0.96576 0.65658 0.0
C1640 C 0.82727 0.00586 0.67805 0.0
C1641 C 0.82281 0.0209 0.6631 0.0
C1642 C 0.81107 0.00806 0.64474 0.0
C1643 C 0.80365 0.98077 0.64152 0.0
C1644 C 0.81846 0.08612 0.66413 0.0
C1645 C 0.84281 0.10395 0.67497 0.0
C1646 C 0.8121 0.05929 0.66013 0.0
C1647 C 0.83002 0.04971 0.6668 0.0
C1648 C 0.85465 0.06776 0.67732 0.0
C1649 C 0.86098 0.09454 0.68132 0.0
H1650 H 0.48605 0.40021 0.71453 0.0
H1651 H 0.55074 0.37785 0.71842 0.0
H1652 H 0.45051 0.35241 0.70884 0.0
H1653 H 0.51514 0.32981 0.71355 0.0
H1654 H 0.45007 0.25132 0.68274 0.0
H1655 H 0.48544 0.29878 0.68891 0.0
H1656 H 0.42471 0.30873 0.72437 0.0
H1657 H 0.38886 0.26161 0.71727 0.0
C1658 C 0.49255 0.38494 0.71454 0.0
C1659 C 0.52105 0.3927 0.71742 0.0
C1660 C 0.47217 0.35748 0.71136 0.0
C1661 C 0.47979 0.33705 0.71088 0.0
C1662 C 0.50843 0.34492 0.71364 0.0
C1663 C 0.52884 0.37243 0.71668 0.0
C1664 C 0.44408 0.26369 0.69161 0.0
C1665 C 0.41636 0.25267 0.69914 0.0
C1666 C 0.46457 0.29091 0.69542 0.0
C1667 C 0.45805 0.30781 0.70712 0.0
C1668 C 0.43045 0.29658 0.71499 0.0
C1669 C 0.40988 0.26941 0.71103 0.0
H1670 H 0.6348 0.09734 0.70552 0.0
H1671 H 0.66938 0.17835 0.73032 0.0
H1672 H 0.68232 0.10469 0.70064 0.0
H1673 H 0.71729 0.18558 0.72612 0.0
H1674 H 0.80069 0.19837 0.69812 0.0
H1675 H 0.7534 0.19255 0.70217 0.0
H1676 H 0.72094 0.10779 0.71859 0.0
H1677 H 0.76787 0.11353 0.7137 0.0
C1678 C 0.65263 0.11656 0.71034 0.0
C1679 C 0.64819 0.13687 0.71893 0.0
C1680 C 0.67997 0.12081 0.70757 0.0
C1681 C 0.70389 0.14561 0.71323 0.0
C1682 C 0.6995 0.16622 0.72151 0.0
C1683 C 0.672 0.16198 0.72419 0.0
C1684 C 0.7833 0.1784 0.70221 0.0
C1685 C 0.78779 0.15613 0.70491 0.0
C1686 C 0.75621 0.17513 0.70486 0.0
C1687 C 0.73305 0.14959 0.71058 0.0
C1688 C 0.73792 0.12759 0.71372 0.0
C1689 C 0.76489 0.13087 0.71102 0.0
H1690 H 0.91249 0.53078 0.75301 0.0
H1691 H 0.88854 0.50018 0.69286 0.0
H1692 H 0.89878 0.56533 0.74658 0.0
H1693 H 0.87547 0.53498 0.68613 0.0
H1694 H 0.82953 0.58334 0.68661 0.0
H1695 H 0.84088 0.54791 0.69466 0.0
H1696 H 0.91435 0.60696 0.72735 0.0
H1697 H 0.90279 0.64245 0.71945 0.0
C1698 C 0.90432 0.53157 0.73841 0.0
C1699 C 0.90176 0.51307 0.72338 0.0
C1700 C 0.89665 0.5514 0.73466 0.0
C1701 C 0.88615 0.55305 0.7158 0.0
C1702 C 0.88317 0.53414 0.70089 0.0
C1703 C 0.89081 0.51431 0.70467 0.0
C1704 C 0.84822 0.58886 0.69541 0.0
C1705 C 0.86548 0.61587 0.70213 0.0
C1706 C 0.85474 0.5685 0.70003 0.0
C1707 C 0.87866 0.57457 0.71154 0.0
C1708 C 0.89561 0.60148 0.71862 0.0
C1709 C 0.88906 0.62188 0.714 0.0
H1710 H 0.46904 0.95759 0.25922 0.0
H1711 H 0.46554 0.8863 0.23254 0.0
H1712 H 0.48573 0.98222 0.22721 0.0
H1713 H 0.48139 0.91071 0.20029 0.0
H1714 H 0.47547 0.96333 0.14383 0.0
H1715 H 0.45907 0.93593 0.17463 0.0
H1716 H 0.53466 0.99504 0.20492 0.0
H1717 H 0.55214 0.02154 0.17409 0.0
C1718 C 0.47166 0.94717 0.24646 0.0
C1719 C 0.46612 0.92011 0.24833 0.0
C1720 C 0.48123 0.96124 0.2282 0.0
C1721 C 0.48476 0.9483 0.21132 0.0
C1722 C 0.47871 0.92106 0.21307 0.0
C1723 C 0.46981 0.9072 0.23149 0.0
C1724 C 0.48898 0.97028 0.15686 0.0
C1725 C 0.51507 0.99506 0.15633 0.0
C1726 C 0.47943 0.95461 0.17454 0.0
C1727 C 0.49548 0.96361 0.19216 0.0
C1728 C 0.52171 0.98789 0.1916 0.0
C1729 C 0.53155 1.00318 0.17389 0.0
H1730 H 0.1276 0.53331 0.23066 0.0
H1731 H 0.07264 0.55745 0.25962 0.0
H1732 H 0.1034 0.52827 0.19893 0.0
H1733 H 0.04769 0.55149 0.22822 0.0
H1734 H 0.02726 0.56621 0.16552 0.0
H1735 H 0.05276 0.57157 0.19655 0.0
H1736 H 0.06105 0.50142 0.18112 0.0
H1737 H 0.03636 0.49684 0.14967 0.0
C1738 C 0.1101 0.53722 0.23025 0.0
C1739 C 0.10207 0.5459 0.24755 0.0
C1740 C 0.09613 0.53424 0.21209 0.0
C1741 C 0.07359 0.53958 0.21089 0.0
C1742 C 0.06534 0.54781 0.22838 0.0
C1743 C 0.07953 0.55111 0.24643 0.0
C1744 C 0.03452 0.55194 0.16881 0.0
C1745 C 0.02974 0.53105 0.15524 0.0
C1746 C 0.04903 0.55489 0.18666 0.0
C1747 C 0.05883 0.53679 0.19153 0.0
C1748 C 0.0542 0.51599 0.17781 0.0
C1749 C 0.03996 0.51326 0.15981 0.0
H1750 H 0.45183 0.5532 0.23424 0.0
H1751 H 0.53059 0.56904 0.26052 0.0
H1752 H 0.46737 0.54519 0.20172 0.0
H1753 H 0.54583 0.56022 0.22841 0.0
H1754 H 0.58016 0.57511 0.1655 0.0
H1755 H 0.56192 0.58171 0.19707 0.0
H1756 H 0.47826 0.51632 0.18186 0.0
H1757 H 0.49664 0.51041 0.1498 0.0
C1758 C 0.47226 0.5545 0.23311 0.0
C1759 C 0.49012 0.562 0.24985 0.0
C1760 C 0.48119 0.54988 0.21449 0.0
C1761 C 0.50809 0.55245 0.21227 0.0
C1762 C 0.52535 0.55884 0.22932 0.0
C1763 C 0.51656 0.56372 0.2478 0.0
C1764 C 0.55786 0.56217 0.1689 0.0
C1765 C 0.53988 0.54209 0.15526 0.0
C1766 C 0.54738 0.5658 0.18708 0.0
C1767 C 0.51864 0.54923 0.19229 0.0
C1768 C 0.50046 0.52958 0.17837 0.0
C1769 C 0.51095 0.52614 0.16 0.0
H1770 H 0.90992 0.40927 0.80941 0.0
H1771 H 0.95964 0.49427 0.79151 0.0
H1772 H 0.93613 0.41967 0.84065 0.0
H1773 H 0.98512 0.50471 0.82326 0.0
H1774 H 1.00356 0.512 0.89258 0.0
H1775 H 0.97558 0.50321 0.86197 0.0
H1776 H 0.9884 0.43545 0.848 0.0
H1777 H 1.01639 0.44429 0.8784 0.0
C1778 C 0.92642 0.43018 0.8121 0.0
C1779 C 0.93293 0.45084 0.79774 0.0
C1780 C 0.94131 0.43611 0.83005 0.0
C1781 C 0.96277 0.46292 0.83426 0.0
C1782 C 0.96855 0.48387 0.82039 0.0
C1783 C 0.95388 0.47788 0.80225 0.0
C1784 C 1.0003 0.49523 0.88294 0.0
C1785 C 1.01214 0.47884 0.88779 0.0
C1786 C 0.98448 0.49032 0.86543 0.0
C1787 C 0.9798 0.46861 0.8527 0.0
C1788 C 0.99151 0.45217 0.85764 0.0
C1789 C 1.00767 0.45735 0.87493 0.0
H1790 H 0.56102 0.43582 0.80236 0.0
H1791 H 0.59596 0.52252 0.79163 0.0
H1792 H 0.54252 0.44025 0.83463 0.0
H1793 H 0.5783 0.52694 0.82428 0.0
H1794 H 0.48262 0.45617 0.8756 0.0
H1795 H 0.50458 0.45159 0.84493 0.0
H1796 H 0.58414 0.52154 0.862 0.0
H1797 H 0.56209 0.52606 0.89284 0.0
C1798 C 0.56479 0.45583 0.80681 0.0
C1799 C 0.57981 0.47875 0.79416 0.0
C1800 C 0.5543 0.45835 0.82538 0.0
C1801 C 0.55888 0.48391 0.83195 0.0
C1802 C 0.57468 0.50701 0.8197 0.0
C1803 C 0.58488 0.50445 0.80099 0.0
C1804 C 0.50482 0.47052 0.87282 0.0
C1805 C 0.52063 0.49153 0.88656 0.0
C1806 C 0.51743 0.46778 0.85535 0.0
C1807 C 0.54607 0.48621 0.85106 0.0
C1808 C 0.56199 0.50714 0.86487 0.0
C1809 C 0.54944 0.50961 0.88254 0.0
H1810 H 0.58675 0.12658 0.8063 0.0
H1811 H 0.50816 0.0645 0.78087 0.0
H1812 H 0.57314 0.10288 0.83866 0.0
H1813 H 0.49491 0.04017 0.81277 0.0
H1814 H 0.4636 0.01635 0.87595 0.0
H1815 H 0.47914 0.04231 0.8448 0.0
H1816 H 0.56553 0.06462 0.85788 0.0
H1817 H 0.54978 0.0394 0.88962 0.0
C1818 C 0.56674 0.10762 0.80757 0.0
C1819 C 0.54843 0.09751 0.79109 0.0
C1820 C 0.55891 0.09395 0.82613 0.0
C1821 C 0.53269 0.06965 0.82857 0.0
C1822 C 0.51488 0.05919 0.81178 0.0
C1823 C 0.52253 0.07303 0.79338 0.0
C1824 C 0.48593 0.02693 0.87219 0.0
C1825 C 0.50544 0.0257 0.88516 0.0
C1826 C 0.49489 0.04168 0.85421 0.0
C1827 C 0.52362 0.05531 0.84846 0.0
C1828 C 0.54328 0.05464 0.86176 0.0
C1829 C 0.53429 0.04014 0.87996 0.0
H1830 H 0.11412 0.2763 0.58334 0.0
H1831 H 0.15385 0.22781 0.5715 0.0
H1832 H 0.1296 0.29796 0.5506 0.0
H1833 H 0.17067 0.25092 0.53919 0.0
H1834 H 0.14031 0.31068 0.48156 0.0
H1835 H 0.12155 0.28377 0.51252 0.0
H1836 H 0.20566 0.30195 0.52846 0.0
H1837 H 0.22441 0.32912 0.49775 0.0
C1838 C 0.12582 0.26991 0.57377 0.0
C1839 C 0.13249 0.25001 0.58028 0.0
C1840 C 0.13483 0.28253 0.55499 0.0
C1841 C 0.15128 0.2761 0.54232 0.0
C1842 C 0.15813 0.25638 0.54871 0.0
C1843 C 0.14863 0.24331 0.56735 0.0
C1844 C 0.15468 0.30863 0.49159 0.0
C1845 C 0.18381 0.32205 0.48729 0.0
C1846 C 0.144 0.2934 0.50933 0.0
C1847 C 0.16217 0.29081 0.5229 0.0
C1848 C 0.19115 0.30344 0.51823 0.0
C1849 C 0.20188 0.31908 0.50072 0.0
H1850 H 0.79456 0.8663 0.56305 0.0
H1851 H 0.73958 0.89017 0.59232 0.0
H1852 H 0.77001 0.86102 0.53145 0.0
H1853 H 0.71426 0.88394 0.56106 0.0
H1854 H 0.69304 0.8983 0.4985 0.0
H1855 H 0.71881 0.90383 0.52942 0.0
H1856 H 0.72765 0.83405 0.51376 0.0
H1857 H 0.70273 0.82934 0.4824 0.0
C1858 C 0.77697 0.87009 0.56274 0.0
C1859 C 0.76905 0.87878 0.58008 0.0
C1860 C 0.7628 0.86697 0.54465 0.0
C1861 C 0.74015 0.87216 0.54357 0.0
C1862 C 0.73199 0.88037 0.56112 0.0
C1863 C 0.74639 0.88382 0.57909 0.0
C1864 C 0.70048 0.88414 0.50172 0.0
C1865 C 0.6958 0.86333 0.48811 0.0
C1866 C 0.71515 0.88719 0.51951 0.0
C1867 C 0.72519 0.86925 0.52428 0.0
C1868 C 0.72062 0.84851 0.51052 0.0
C1869 C 0.70625 0.8457 0.49258 0.0
H1870 H 0.11853 0.88726 0.56785 0.0
H1871 H 0.19749 0.90319 0.59382 0.0
H1872 H 0.13367 0.87882 0.53534 0.0
H1873 H 0.21231 0.89388 0.56172 0.0
H1874 H 0.24585 0.90715 0.49867 0.0
H1875 H 0.22818 0.91455 0.5302 0.0
H1876 H 0.14398 0.84963 0.5156 0.0
H1877 H 0.1618 0.84298 0.48355 0.0
C1878 C 0.13892 0.8885 0.56666 0.0
C1879 C 0.15694 0.89613 0.58331 0.0
C1880 C 0.14762 0.88363 0.54803 0.0
C1881 C 0.17444 0.88603 0.54572 0.0
C1882 C 0.19189 0.8926 0.56268 0.0
C1883 C 0.18334 0.89777 0.58116 0.0
C1884 C 0.22355 0.8945 0.50219 0.0
C1885 C 0.20526 0.87435 0.48872 0.0
C1886 C 0.21339 0.89858 0.52036 0.0
C1887 C 0.18467 0.88237 0.52574 0.0
C1888 C 0.16618 0.86263 0.51198 0.0
C1889 C 0.17635 0.85877 0.49362 0.0
H1890 H 0.62748 0.82855 0.12447 0.0
H1891 H 0.5816 0.74208 0.13873 0.0
H1892 H 0.65147 0.83787 0.15674 0.0
H1893 H 0.60628 0.75145 0.1706 0.0
H1894 H 0.68466 0.77763 0.21079 0.0
H1895 H 0.65756 0.76884 0.17996 0.0
H1896 H 0.64077 0.83396 0.19463 0.0
H1897 H 0.66801 0.84279 0.22559 0.0
C1898 C 0.62223 0.81156 0.13453 0.0
C1899 C 0.60277 0.78451 0.12886 0.0
C1900 C 0.63605 0.81693 0.15299 0.0
C1901 C 0.6309 0.79535 0.16607 0.0
C1902 C 0.61099 0.76843 0.16065 0.0
C1903 C 0.59696 0.76309 0.14234 0.0
C1904 C 0.67523 0.7901 0.2074 0.0
C1905 C 0.67848 0.81093 0.22053 0.0
C1906 C 0.65955 0.78493 0.18986 0.0
C1907 C 0.64703 0.80069 0.18495 0.0
C1908 C 0.65032 0.8216 0.19803 0.0
C1909 C 0.66571 0.82653 0.21576 0.0
H1910 H 0.26259 0.8559 0.12478 0.0
H1911 H 0.22647 0.76904 0.1355 0.0
H1912 H 0.24522 0.86063 0.15744 0.0
H1913 H 0.2082 0.77381 0.16777 0.0
H1914 H 0.22928 0.85997 0.22604 0.0
H1915 H 0.25103 0.85495 0.19522 0.0
H1916 H 0.17075 0.78609 0.17802 0.0
H1917 H 0.14908 0.79121 0.20865 0.0
C1918 C 0.25132 0.83785 0.13413 0.0
C1919 C 0.24587 0.81202 0.1273 0.0
C1920 C 0.24127 0.8406 0.15285 0.0
C1921 C 0.22522 0.81757 0.1651 0.0
C1922 C 0.22021 0.79187 0.15852 0.0
C1923 C 0.23057 0.78915 0.13995 0.0
C1924 C 0.21641 0.84365 0.21572 0.0
C1925 C 0.18748 0.82604 0.21969 0.0
C1926 C 0.22879 0.84088 0.19806 0.0
C1927 C 0.21258 0.82012 0.18422 0.0
C1928 C 0.18382 0.80214 0.18846 0.0
C1929 C 0.17138 0.80518 0.20591 0.0
H1930 H 0.25344 0.45971 0.13946 0.0
H1931 H 0.17594 0.39686 0.11325 0.0
H1932 H 0.23954 0.43573 0.1717 0.0
H1933 H 0.16242 0.37231 0.14506 0.0
H1934 H 0.12992 0.34819 0.20801 0.0
H1935 H 0.1458 0.37422 0.1769 0.0
H1936 H 0.23218 0.39743 0.19089 0.0
H1937 H 0.21608 0.37209 0.22256 0.0
C1938 C 0.23362 0.44053 0.14054 0.0
C1939 C 0.21568 0.43028 0.12387 0.0
C1940 C 0.22563 0.42671 0.15902 0.0
C1941 C 0.19962 0.40213 0.16122 0.0
C1942 C 0.1822 0.39153 0.14425 0.0
C1943 C 0.19002 0.4055 0.12591 0.0
C1944 C 0.15232 0.35896 0.20446 0.0
C1945 C 0.17173 0.35796 0.21766 0.0
C1946 C 0.16148 0.37375 0.1865 0.0
C1947 C 0.19031 0.38767 0.18104 0.0
C1948 C 0.20985 0.38721 0.19456 0.0
C1949 C 0.20066 0.37265 0.21272 0.0
H1950 H 0.80371 0.6244 0.92625 0.0
H1951 H 0.80052 0.55324 0.89961 0.0
H1952 H 0.82048 0.64909 0.89426 0.0
H1953 H 0.81645 0.57769 0.86738 0.0
H1954 H 0.81022 0.63005 0.81089 0.0
H1955 H 0.79394 0.6027 0.84172 0.0
H1956 H 0.86946 0.66207 0.87194 0.0
H1957 H 0.88683 0.68853 0.84109 0.0
C1958 C 0.80644 0.61404 0.9135 0.0
C1959 C 0.80095 0.587 0.91538 0.0
C1960 C 0.81605 0.62813 0.89526 0.0
C1961 C 0.81966 0.61522 0.87839 0.0
C1962 C 0.8137 0.58801 0.88015 0.0
C1963 C 0.80477 0.57414 0.89856 0.0
C1964 C 0.82374 0.63707 0.82391 0.0
C1965 C 0.84978 0.6619 0.82336 0.0
C1966 C 0.81426 0.62144 0.84161 0.0
C1967 C 0.83032 0.63052 0.85922 0.0
C1968 C 0.85649 0.65486 0.85863 0.0
C1969 C 0.86627 0.67012 0.84091 0.0
H1970 H 0.40539 0.22365 0.92607 0.0
H1971 H 0.46077 0.2004 0.89665 0.0
H1972 H 0.38006 0.21743 0.89481 0.0
H1973 H 0.43617 0.19509 0.86507 0.0
H1974 H 0.36894 0.16339 0.816 0.0
H1975 H 0.39374 0.16797 0.84739 0.0
H1976 H 0.38478 0.23762 0.8632 0.0
H1977 H 0.35918 0.23227 0.83222 0.0
C1978 C 0.41228 0.21743 0.91282 0.0
C1979 C 0.43507 0.21258 0.91376 0.0
C1980 C 0.39787 0.21399 0.89484 0.0
C1981 C 0.40613 0.20594 0.87727 0.0
C1982 C 0.42889 0.20092 0.8783 0.0
C1983 C 0.44308 0.20404 0.89638 0.0
C1984 C 0.37241 0.1797 0.82621 0.0
C1985 C 0.36199 0.19736 0.82176 0.0
C1986 C 0.38671 0.18242 0.84417 0.0
C1987 C 0.3912 0.2031 0.85798 0.0
C1988 C 0.38117 0.22105 0.85324 0.0
C1989 C 0.3666 0.21809 0.83542 0.0
H1990 H 0.78454 0.22043 0.90177 0.0
H1991 H 0.86322 0.23552 0.92772 0.0
H1992 H 0.79934 0.21149 0.86931 0.0
H1993 H 0.87768 0.22566 0.89569 0.0
H1994 H 0.91084 0.23738 0.83258 0.0
H1995 H 0.89371 0.24561 0.86406 0.0
H1996 H 0.80884 0.18179 0.84974 0.0
H1997 H 0.82613 0.17438 0.81773 0.0
C1998 C 0.8048 0.22138 0.90058 0.0
C1999 C 0.82283 0.2289 0.91722 0.0
C2000 C 0.81331 0.21622 0.88199 0.0
C2001 C 0.83994 0.21819 0.87968 0.0
C2002 C 0.85741 0.22471 0.89663 0.0
C2003 C 0.84906 0.23018 0.91508 0.0
C2004 C 0.88851 0.22517 0.83615 0.0
C2005 C 0.86986 0.20512 0.82277 0.0
C2006 C 0.87866 0.22972 0.8543 0.0
C2007 C 0.8499 0.21406 0.85974 0.0
C2008 C 0.83108 0.1944 0.84607 0.0
C2009 C 0.84095 0.19009 0.82773 0.0
H2010 H 0.24673 0.13161 0.47703 0.0
H2011 H 0.30844 0.1153 0.44948 0.0
H2012 H 0.27201 0.1413 0.50883 0.0
H2013 H 0.33432 0.12587 0.48088 0.0
H2014 H 0.35482 0.11343 0.54412 0.0
H2015 H 0.32962 0.10587 0.5127 0.0
H2016 H 0.31357 0.17169 0.52695 0.0
H2017 H 0.33817 0.17858 0.55882 0.0
C2018 C 0.26599 0.13057 0.47774 0.0
C2019 C 0.27552 0.12247 0.46091 0.0
C2020 C 0.28053 0.13617 0.49592 0.0
C2021 C 0.30508 0.13406 0.49755 0.0
C2022 C 0.31511 0.12699 0.48039 0.0
C2023 C 0.30041 0.12109 0.46234 0.0
C2024 C 0.34598 0.12633 0.54049 0.0
C2025 C 0.34859 0.14669 0.55384 0.0
C2026 C 0.33164 0.12212 0.52242 0.0
C2027 C 0.31979 0.13838 0.5171 0.0
C2028 C 0.32216 0.1586 0.53061 0.0
C2029 C 0.3363 0.16261 0.54884 0.0
H2030 H 0.93059 0.18816 0.45841 0.0
H2031 H 0.89417 0.10125 0.46909 0.0
H2032 H 0.91366 0.19301 0.4912 0.0
H2033 H 0.87635 0.10615 0.50151 0.0
H2034 H 0.81761 0.12409 0.54251 0.0
H2035 H 0.83916 0.11857 0.51197 0.0
H2036 H 0.9196 0.18744 0.5289 0.0
H2037 H 0.89795 0.19286 0.55964 0.0
C2038 C 0.91936 0.17012 0.46779 0.0
C2039 C 0.91368 0.14425 0.4609 0.0
C2040 C 0.90957 0.17295 0.48659 0.0
C2041 C 0.89355 0.14995 0.49887 0.0
C2042 C 0.88834 0.1242 0.49225 0.0
C2043 C 0.89845 0.12141 0.47358 0.0
C2044 C 0.83993 0.13796 0.53975 0.0
C2045 C 0.85609 0.15896 0.5534 0.0
C2046 C 0.8523 0.13468 0.52235 0.0
C2047 C 0.88106 0.15258 0.51804 0.0
C2048 C 0.89735 0.17343 0.53179 0.0
C2049 C 0.88504 0.17643 0.54941 0.0
H2050 H 0.85925 0.78759 0.4706 0.0
H2051 H 0.90686 0.74766 0.45532 0.0
H2052 H 0.84609 0.76348 0.50262 0.0
H2053 H 0.8945 0.72444 0.48785 0.0
H2054 H 0.88502 0.7075 0.55697 0.0
H2055 H 0.9014 0.73486 0.526 0.0
H2056 H 0.81544 0.71324 0.51265 0.0
H2057 H 0.79916 0.68584 0.54335 0.0
C2058 C 0.86688 0.77363 0.47395 0.0
C2059 C 0.88386 0.7694 0.46007 0.0
C2060 C 0.85945 0.75995 0.49243 0.0
C2061 C 0.86916 0.74198 0.49774 0.0
C2062 C 0.88689 0.73836 0.48425 0.0
C2063 C 0.89402 0.75176 0.4656 0.0
C2064 C 0.86974 0.70885 0.54747 0.0
C2065 C 0.84082 0.69451 0.55254 0.0
C2066 C 0.87906 0.72431 0.5297 0.0
C2067 C 0.8597 0.72618 0.51688 0.0
C2068 C 0.8309 0.71237 0.52226 0.0
C2069 C 0.82155 0.69657 0.53978 0.0
loop_
_geom_bond_atom_site_label_1
_geom_bond_atom_site_label_2
_geom_bond_distance
_geom_bond_site_symmetry_2
_ccdc_geom_bond_type
H0 C7 0.929 . S
H1 C10 0.930 . S
H2 C12 0.929 . S
H3 C4 0.969 . S
C4 H3 0.969 . S
C4 O5 1.550 . S
C4 H6 0.973 . S
O5 C4 1.550 . S
O5 C11 1.412 . S
H6 C4 0.973 . S
C7 H0 0.929 . S
C7 C8 1.400 . S
C7 C9 1.364 . S
C8 C7 1.400 . S
C8 C12 1.377 . S
C9 C7 1.364 . S
C9 C10 1.374 . S
C10 H1 0.930 . S
C10 C9 1.374 . S
C10 C11 1.383 . S
C11 O5 1.412 . S
C11 C10 1.383 . S
C11 C12 1.394 . S
C12 H2 0.929 . S
C12 C8 1.377 . S
C12 C11 1.394 . S
H13 C20 0.929 . S
H14 C23 0.930 . S
H15 C25 0.929 . S
H16 C17 0.969 . S
C17 H16 0.969 . S
C17 O18 1.550 . S
C17 H19 0.973 . S
O18 C17 1.550 . S
O18 C24 1.412 . S
H19 C17 0.973 . S
C20 H13 0.929 . S
C20 C21 1.400 . S
C20 C22 1.364 . S
C21 C20 1.400 . S
C21 C25 1.377 . S
C22 C20 1.364 . S
C22 C23 1.374 . S
C23 H14 0.930 . S
C23 C22 1.374 . S
C23 C24 1.383 . S
C24 O18 1.412 . S
C24 C23 1.383 . S
C24 C25 1.394 . S
C25 H15 0.929 . S
C25 C21 1.377 . S
C25 C24 1.394 . S
H26 C33 0.929 . S
H27 C36 0.930 . S
H28 C38 0.929 . S
H29 C30 0.969 . S
C30 H29 0.969 . S
C30 O31 1.550 . S
C30 H32 0.973 . S
O31 C30 1.550 . S
O31 C37 1.412 . S
H32 C30 0.973 . S
C33 H26 0.929 . S
C33 C34 1.400 . S
C33 C35 1.364 . S
C34 C33 1.400 . S
C34 C38 1.377 . S
C35 C33 1.364 . S
C35 C36 1.374 . S
C36 H27 0.930 . S
C36 C35 1.374 . S
C36 C37 1.383 . S
C37 O31 1.412 . S
C37 C36 1.383 . S
C37 C38 1.394 . S
C38 H28 0.929 . S
C38 C34 1.377 . S
C38 C37 1.394 . S
H39 C46 0.929 . S
H40 C49 0.930 . S
H41 C51 0.929 . S
H42 C43 0.969 . S
C43 H42 0.969 . S
C43 O44 1.550 . S
C43 H45 0.973 . S
O44 C43 1.550 . S
O44 C50 1.412 . S
H45 C43 0.973 . S
C46 H39 0.929 . S
C46 C47 1.400 . S
C46 C48 1.364 . S
C47 C46 1.400 . S
C47 C51 1.377 . S
C48 C46 1.364 . S
C48 C49 1.374 . S
C49 H40 0.930 . S
C49 C48 1.374 . S
C49 C50 1.383 . S
C50 O44 1.412 . S
C50 C49 1.383 . S
C50 C51 1.394 . S
C51 H41 0.929 . S
C51 C47 1.377 . S
C51 C50 1.394 . S
H52 C59 0.929 . S
H53 C62 0.930 . S
H54 C64 0.929 . S
H55 C56 0.969 . S
C56 H55 0.969 . S
C56 O57 1.550 . S
C56 H58 0.973 . S
O57 C56 1.550 . S
O57 C63 1.412 . S
H58 C56 0.973 . S
C59 H52 0.929 . S
C59 C60 1.400 . S
C59 C61 1.364 . S
C60 C59 1.400 . S
C60 C64 1.377 . S
C61 C59 1.364 . S
C61 C62 1.374 . S
C62 H53 0.930 . S
C62 C61 1.374 . S
C62 C63 1.383 . S
C63 O57 1.412 . S
C63 C62 1.383 . S
C63 C64 1.394 . S
C64 H54 0.929 . S
C64 C60 1.377 . S
C64 C63 1.394 . S
H65 C72 0.929 . S
H66 C75 0.930 . S
H67 C77 0.929 . S
H68 C69 0.969 . S
C69 H68 0.969 . S
C69 O70 1.550 . S
C69 H71 0.973 . S
O70 C69 1.550 . S
O70 C76 1.412 . S
H71 C69 0.973 . S
C72 H65 0.929 . S
C72 C73 1.400 . S
C72 C74 1.364 . S
C73 C72 1.400 . S
C73 C77 1.377 . S
C74 C72 1.364 . S
C74 C75 1.374 . S
C75 H66 0.930 . S
C75 C74 1.374 . S
C75 C76 1.383 . S
C76 O70 1.412 . S
C76 C75 1.383 . S
C76 C77 1.394 . S
C77 H67 0.929 . S
C77 C73 1.377 . S
C77 C76 1.394 . S
H78 C85 0.929 . S
H79 C88 0.930 . S
H80 C90 0.929 . S
H81 C82 0.969 . S
C82 H81 0.969 . S
C82 O83 1.550 . S
C82 H84 0.973 . S
O83 C82 1.550 . S
O83 C89 1.412 . S
H84 C82 0.973 . S
C85 H78 0.929 . S
C85 C86 1.400 . S
C85 C87 1.364 . S
C86 C85 1.400 . S
C86 C90 1.377 . S
C87 C85 1.364 . S
C87 C88 1.374 . S
C88 H79 0.930 . S
C88 C87 1.374 . S
C88 C89 1.383 . S
C89 O83 1.412 . S
C89 C88 1.383 . S
C89 C90 1.394 . S
C90 H80 0.929 . S
C90 C86 1.377 . S
C90 C89 1.394 . S
H91 C98 0.929 . S
H92 C101 0.930 . S
H93 C103 0.929 . S
H94 C95 0.969 . S
C95 H94 0.969 . S
C95 O96 1.550 . S
C95 H97 0.973 . S
O96 C95 1.550 . S
O96 C102 1.412 . S
H97 C95 0.973 . S
C98 H91 0.929 . S
C98 C99 1.400 . S
C98 C100 1.364 . S
C99 C98 1.400 . S
C99 C103 1.377 . S
C100 C98 1.364 . S
C100 C101 1.374 . S
C101 H92 0.930 . S
C101 C100 1.374 . S
C101 C102 1.383 . S
C102 O96 1.412 . S
C102 C101 1.383 . S
C102 C103 1.394 . S
C103 H93 0.929 . S
C103 C99 1.377 . S
C103 C102 1.394 . S
H104 C111 0.929 . S
H105 C114 0.930 . S
H106 C116 0.929 . S
H107 C108 0.969 . S
C108 H107 0.969 . S
C108 O109 1.550 . S
C108 H110 0.973 . S
O109 C108 1.550 . S
O109 C115 1.412 . S
H110 C108 0.973 . S
C111 H104 0.929 . S
C111 C112 1.400 . S
C111 C113 1.364 . S
C112 C111 1.400 . S
C112 C116 1.377 . S
C113 C111 1.364 . S
C113 C114 1.374 . S
C114 H105 0.930 . S
C114 C113 1.374 . S
C114 C115 1.383 . S
C115 O109 1.412 . S
C115 C114 1.383 . S
C115 C116 1.394 . S
C116 H106 0.929 . S
C116 C112 1.377 . S
C116 C115 1.394 . S
H117 C124 0.929 . S
H118 C127 0.930 . S
H119 C129 0.929 . S
H120 C121 0.969 . S
C121 H120 0.969 . S
C121 O122 1.550 . S
C121 H123 0.973 . S
O122 C121 1.550 . S
O122 C128 1.412 . S
H123 C121 0.973 . S
C124 H117 0.929 . S
C124 C125 1.400 . S
C124 C126 1.364 . S
C125 C124 1.400 . S
C125 C129 1.377 . S
C126 C124 1.364 . S
C126 C127 1.374 . S
C127 H118 0.930 . S
C127 C126 1.374 . S
C127 C128 1.383 . S
C128 O122 1.412 . S
C128 C127 1.383 . S
C128 C129 1.394 . S
C129 H119 0.929 . S
C129 C125 1.377 . S
C129 C128 1.394 . S
H130 C137 0.929 . S
H131 C140 0.930 . S
H132 C142 0.929 . S
H133 C134 0.969 . S
C134 H133 0.969 . S
C134 O135 1.550 . S
C134 H136 0.973 . S
O135 C134 1.550 . S
O135 C141 1.412 . S
H136 C134 0.973 . S
C137 H130 0.929 . S
C137 C138 1.400 . S
C137 C139 1.364 . S
C138 C137 1.400 . S
C138 C142 1.377 . S
C139 C137 1.364 . S
C139 C140 1.374 . S
C140 H131 0.930 . S
C140 C139 1.374 . S
C140 C141 1.383 . S
C141 O135 1.412 . S
C141 C140 1.383 . S
C141 C142 1.394 . S
C142 H132 0.929 . S
C142 C138 1.377 . S
C142 C141 1.394 . S
H143 C150 0.929 . S
H144 C153 0.930 . S
H145 C155 0.929 . S
H146 C147 0.969 . S
C147 H146 0.969 . S
C147 O148 1.550 . S
C147 H149 0.973 . S
O148 C147 1.550 . S
O148 C154 1.412 . S
H149 C147 0.973 . S
C150 H143 0.929 . S
C150 C151 1.400 . S
C150 C152 1.364 . S
C151 C150 1.400 . S
C151 C155 1.377 . S
C152 C150 1.364 . S
C152 C153 1.374 . S
C153 H144 0.930 . S
C153 C152 1.374 . S
C153 C154 1.383 . S
C154 O148 1.412 . S
C154 C153 1.383 . S
C154 C155 1.394 . S
C155 H145 0.929 . S
C155 C151 1.377 . S
C155 C154 1.394 . S
H156 C163 0.929 . S
H157 C166 0.930 . S
H158 C168 0.929 . S
H159 C160 0.969 . S
C160 H159 0.969 . S
C160 O161 1.550 . S
C160 H162 0.973 . S
O161 C160 1.550 . S
O161 C167 1.412 . S
H162 C160 0.973 . S
C163 H156 0.929 . S
C163 C164 1.400 . S
C163 C165 1.364 . S
C164 C163 1.400 . S
C164 C168 1.377 . S
C165 C163 1.364 . S
C165 C166 1.374 . S
C166 H157 0.930 . S
C166 C165 1.374 . S
C166 C167 1.383 . S
C167 O161 1.412 . S
C167 C166 1.383 . S
C167 C168 1.394 . S
C168 H158 0.929 . S
C168 C164 1.377 . S
C168 C167 1.394 . S
H169 C176 0.929 . S
H170 C179 0.930 . S
H171 C181 0.929 . S
H172 C173 0.969 . S
C173 H172 0.969 . S
C173 O174 1.550 . S
C173 H175 0.973 . S
O174 C173 1.550 . S
O174 C180 1.412 . S
H175 C173 0.973 . S
C176 H169 0.929 . S
C176 C177 1.400 . S
C176 C178 1.364 . S
C177 C176 1.400 . S
C177 C181 1.377 . S
C178 C176 1.364 . S
C178 C179 1.374 . S
C179 H170 0.930 . S
C179 C178 1.374 . S
C179 C180 1.383 . S
C180 O174 1.412 . S
C180 C179 1.383 . S
C180 C181 1.394 . S
C181 H171 0.929 . S
C181 C177 1.377 . S
C181 C180 1.394 . S
H182 C189 0.929 . S
H183 C192 0.930 . S
H184 C194 0.929 . S
H185 C186 0.969 . S
C186 H185 0.969 . S
C186 O187 1.550 . S
C186 H188 0.973 . S
O187 C186 1.550 . S
O187 C193 1.412 . S
H188 C186 0.973 . S
C189 H182 0.929 . S
C189 C190 1.400 . S
C189 C191 1.364 . S
C190 C189 1.400 . S
C190 C194 1.377 . S
C191 C189 1.364 . S
C191 C192 1.374 . S
C192 H183 0.930 . S
C192 C191 1.374 . S
C192 C193 1.383 . S
C193 O187 1.412 . S
C193 C192 1.383 . S
C193 C194 1.394 . S
C194 H184 0.929 . S
C194 C190 1.377 . S
C194 C193 1.394 . S
H195 C202 0.929 . S
H196 C205 0.930 . S
H197 C207 0.929 . S
H198 C199 0.969 . S
C199 H198 0.969 . S
C199 O200 1.550 . S
C199 H201 0.973 . S
O200 C199 1.550 . S
O200 C206 1.412 . S
H201 C199 0.973 . S
C202 H195 0.929 . S
C202 C203 1.400 . S
C202 C204 1.364 . S
C203 C202 1.400 . S
C203 C207 1.377 . S
C204 C202 1.364 . S
C204 C205 1.374 . S
C205 H196 0.930 . S
C205 C204 1.374 . S
C205 C206 1.383 . S
C206 O200 1.412 . S
C206 C205 1.383 . S
C206 C207 1.394 . S
C207 H197 0.929 . S
C207 C203 1.377 . S
C207 C206 1.394 . S
H208 C215 0.929 . S
H209 C218 0.930 . S
H210 C220 0.929 . S
H211 C212 0.969 . S
C212 H211 0.969 . S
C212 O213 1.550 . S
C212 H214 0.973 . S
O213 C212 1.550 . S
O213 C219 1.412 . S
H214 C212 0.973 . S
C215 H208 0.929 . S
C215 C216 1.400 . S
C215 C217 1.364 . S
C216 C215 1.400 . S
C216 C220 1.377 . S
C217 C215 1.364 . S
C217 C218 1.374 . S
C218 H209 0.930 . S
C218 C217 1.374 . S
C218 C219 1.383 . S
C219 O213 1.412 . S
C219 C218 1.383 . S
C219 C220 1.394 . S
C220 H210 0.929 . S
C220 C216 1.377 . S
C220 C219 1.394 . S
H221 C228 0.929 . S
H222 C231 0.930 . S
H223 C233 0.929 . S
H224 C225 0.969 . S
C225 H224 0.969 . S
C225 O226 1.550 . S
C225 H227 0.973 . S
O226 C225 1.550 . S
O226 C232 1.412 . S
H227 C225 0.973 . S
C228 H221 0.929 . S
C228 C229 1.400 . S
C228 C230 1.364 . S
C229 C228 1.400 . S
C229 C233 1.377 . S
C230 C228 1.364 . S
C230 C231 1.374 . S
C231 H222 0.930 . S
C231 C230 1.374 . S
C231 C232 1.383 . S
C232 O226 1.412 . S
C232 C231 1.383 . S
C232 C233 1.394 . S
C233 H223 0.929 . S
C233 C229 1.377 . S
C233 C232 1.394 . S
Tb234 N265 2.660 . S
Tb234 N272 2.600 . S
Tb234 O278 2.546 . S
Tb234 O279 2.610 1_566 S
Tb234 O281 2.320 1_565 S
Tb234 O282 2.552 1_565 S
Tb234 O283 2.413 1_565 S
Tb234 O285 2.362 1_556 S
Tb234 O286 2.422 . S
Tb234 C298 2.831 1_565 S
C235 C238 1.432 . S
C235 C239 1.414 . S
C235 N242 1.359 . S
C236 C238 1.417 . S
C236 C240 1.432 . S
C236 C248 1.410 . S
C237 C239 1.444 . S
C237 C240 1.317 . S
C237 H260 0.929 . S
C238 C235 1.432 . S
C238 C236 1.417 . S
C238 N246 1.360 . S
C239 C235 1.414 . S
C239 C237 1.444 . S
C239 C244 1.385 . S
C240 C236 1.432 . S
C240 C237 1.317 . S
C240 H252 0.930 . S
C241 C243 1.392 . S
C241 C244 1.370 . S
C241 H253 0.931 . S
N242 C235 1.359 . S
N242 C243 1.327 . S
N242 Tb245 2.600 . S
C243 C241 1.392 . S
C243 N242 1.327 . S
C243 H250 0.930 . S
C244 C239 1.385 . S
C244 C241 1.370 . S
C244 H263 0.930 . S
Tb245 N242 2.600 . S
Tb245 N246 2.660 . S
Tb245 O279 2.362 . S
Tb245 O280 2.421 . S
Tb245 O284 2.546 . S
Tb245 O285 2.610 1_545 S
Tb245 O287 2.320 1_545 S
Tb245 O288 2.552 1_545 S
Tb245 O289 2.413 1_545 S
Tb245 C309 2.833 . S
N246 C238 1.360 . S
N246 Tb245 2.660 . S
N246 C247 1.305 . S
C247 N246 1.305 . S
C247 C249 1.407 . S
C247 H254 0.930 . S
C248 C236 1.410 . S
C248 C249 1.345 . S
C248 H256 0.930 . S
C249 C247 1.407 . S
C249 C248 1.345 . S
C249 H251 0.930 . S
H250 C243 0.930 . S
H251 C249 0.930 . S
H252 C240 0.930 . S
H253 C241 0.931 . S
H254 C247 0.930 . S
H255 C269 0.930 . S
H256 C248 0.930 . S
H257 C275 0.930 . S
H258 C266 0.930 . S
H259 C273 0.931 . S
H260 C237 0.929 . S
H261 C267 0.930 . S
H262 C300 0.930 . S
H263 C244 0.930 . S
H264 C299 0.929 . S
N265 Tb234 2.660 . S
N265 C266 1.305 . S
N265 C270 1.360 . S
C266 H258 0.930 . S
C266 N265 1.305 . S
C266 C269 1.407 . S
C267 H261 0.930 . S
C267 C268 1.410 . S
C267 C269 1.345 . S
C268 C267 1.410 . S
C268 C270 1.417 . S
C268 C300 1.432 . S
C269 H255 0.930 . S
C269 C266 1.407 . S
C269 C267 1.345 . S
C270 N265 1.360 . S
C270 C268 1.417 . S
C270 C274 1.432 . S
H271 C276 0.930 . S
N272 Tb234 2.600 . S
N272 C274 1.359 . S
N272 C275 1.327 . S
C273 H259 0.931 . S
C273 C275 1.392 . S
C273 C276 1.370 . S
C274 C270 1.432 . S
C274 N272 1.359 . S
C274 C277 1.414 . S
C275 H257 0.930 . S
C275 N272 1.327 . S
C275 C273 1.392 . S
C276 H271 0.930 . S
C276 C273 1.370 . S
C276 C277 1.385 . S
C277 C274 1.414 . S
C277 C276 1.385 . S
C277 C299 1.444 . S
O278 Tb234 2.546 . S
O278 C298 1.222 1_565 S
O279 Tb234 2.610 1_544 S
O279 Tb245 2.362 . S
O279 C290 1.283 1_554 S
O280 Tb245 2.421 . S
O280 C297 1.262 . S
O281 Tb234 2.320 1_545 S
O281 C297 1.260 1_556 S
O282 Tb234 2.552 1_545 S
O282 C290 1.243 . S
O283 Tb234 2.413 1_545 S
O283 C298 1.281 . S
O284 Tb245 2.546 . S
O284 C309 1.251 . S
O285 Tb234 2.362 1_554 S
O285 Tb245 2.610 1_565 S
O285 C301 1.283 . S
O286 Tb234 2.422 . S
O286 C308 1.260 1_556 S
O287 Tb245 2.320 1_565 S
O287 C308 1.260 . S
O288 Tb245 2.552 1_565 S
O288 C301 1.243 . S
O289 Tb245 2.413 1_565 S
O289 C309 1.256 1_565 S
C290 O279 1.283 1_556 S
C290 O282 1.243 . S
C291 C293 1.382 . S
C291 C295 1.393 1_545 S
C291 C298 1.505 . S
C292 C293 1.400 . S
C292 C294 1.384 . S
C293 C291 1.382 . S
C293 C292 1.400 . S
C293 H310 0.930 . S
C294 C292 1.384 . S
C294 C296 1.392 1_545 S
C294 H311 0.931 . S
C295 C291 1.393 1_565 S
C295 C296 1.401 . S
C295 H312 0.930 . S
C296 C294 1.392 1_565 S
C296 C295 1.401 . S
C296 H313 0.930 . S
C297 O280 1.262 . S
C297 O281 1.260 1_554 S
C298 Tb234 2.831 1_545 S
C298 O278 1.222 1_545 S
C298 O283 1.281 . S
C298 C291 1.505 . S
C299 H264 0.929 . S
C299 C277 1.444 . S
C299 C300 1.317 . S
C300 H262 0.930 . S
C300 C268 1.432 . S
C300 C299 1.317 . S
C301 O285 1.283 . S
C301 O288 1.243 . S
C302 C303 1.340 1_545 S
C302 C306 1.428 . S
C302 C309 1.507 . S
C303 C302 1.340 1_565 S
C303 C304 1.400 . S
C303 H314 0.930 . S
C304 C303 1.400 . S
C304 C305 1.384 . S
C305 C304 1.384 . S
C305 C307 1.392 1_565 S
C305 H315 0.931 . S
C306 C302 1.428 . S
C306 C307 1.401 . S
C306 H316 0.930 . S
C307 C305 1.392 1_545 S
C307 C306 1.401 . S
C307 H317 0.930 . S
C308 O286 1.260 1_554 S
C308 O287 1.260 . S
C309 Tb245 2.833 . S
C309 O284 1.251 . S
C309 O289 1.256 1_545 S
C309 C302 1.507 . S
H310 C293 0.930 . S
H311 C294 0.931 . S
H312 C295 0.930 . S
H313 C296 0.930 . S
H314 C303 0.930 . S
H315 C305 0.931 . S
H316 C306 0.930 . S
H317 C307 0.930 . S
Tb318 N349 2.660 . S
Tb318 N356 2.600 . S
Tb318 O362 2.546 . S
Tb318 O363 2.610 1_456 S
Tb318 O365 2.320 1_455 S
Tb318 O366 2.552 1_455 S
Tb318 O367 2.413 . S
Tb318 O369 2.362 1_556 S
Tb318 O370 2.396 1_556 S
Tb318 C382 2.833 . S
C319 C322 1.432 . S
C319 C323 1.414 . S
C319 N326 1.359 . S
C320 C322 1.417 . S
C320 C324 1.432 . S
C320 C332 1.410 . S
C321 C323 1.444 . S
C321 C324 1.317 . S
C321 H344 0.929 . S
C322 C319 1.432 . S
C322 C320 1.417 . S
C322 N330 1.360 . S
C323 C319 1.414 . S
C323 C321 1.444 . S
C323 C328 1.385 . S
C324 C320 1.432 . S
C324 C321 1.317 . S
C324 H336 0.930 . S
C325 C327 1.392 . S
C325 C328 1.370 . S
C325 H337 0.931 . S
N326 C319 1.359 . S
N326 C327 1.327 . S
N326 Tb329 2.600 . S
C327 C325 1.392 . S
C327 N326 1.327 . S
C327 H334 0.930 . S
C328 C323 1.385 . S
C328 C325 1.370 . S
C328 H347 0.930 . S
Tb329 N326 2.600 . S
Tb329 N330 2.660 . S
Tb329 O363 2.362 . S
Tb329 O364 2.421 . S
Tb329 O368 2.546 . S
Tb329 O369 2.610 1_655 S
Tb329 O371 2.320 1_655 S
Tb329 O372 2.552 1_655 S
Tb329 O373 2.413 1_655 S
Tb329 C393 2.833 . S
N330 C322 1.360 . S
N330 Tb329 2.660 . S
N330 C331 1.305 . S
C331 N330 1.305 . S
C331 C333 1.407 . S
C331 H338 0.930 . S
C332 C320 1.410 . S
C332 C333 1.345 . S
C332 H340 0.930 . S
C333 C331 1.407 . S
C333 C332 1.345 . S
C333 H335 0.930 . S
H334 C327 0.930 . S
H335 C333 0.930 . S
H336 C324 0.930 . S
H337 C325 0.931 . S
H338 C331 0.930 . S
H339 C353 0.930 . S
H340 C332 0.930 . S
H341 C359 0.930 . S
H342 C350 0.930 . S
H343 C357 0.931 . S
H344 C321 0.929 . S
H345 C351 0.930 . S
H346 C384 0.930 . S
H347 C328 0.930 . S
H348 C383 0.929 . S
N349 Tb318 2.660 . S
N349 C350 1.305 . S
N349 C354 1.360 . S
C350 H342 0.930 . S
C350 N349 1.305 . S
C350 C353 1.407 . S
C351 H345 0.930 . S
C351 C352 1.410 . S
C351 C353 1.345 . S
C352 C351 1.410 . S
C352 C354 1.417 . S
C352 C384 1.432 . S
C353 H339 0.930 . S
C353 C350 1.407 . S
C353 C351 1.345 . S
C354 N349 1.360 . S
C354 C352 1.417 . S
C354 C358 1.432 . S
H355 C360 0.930 . S
N356 Tb318 2.600 . S
N356 C358 1.359 . S
N356 C359 1.327 . S
C357 H343 0.931 . S
C357 C359 1.392 . S
C357 C360 1.370 . S
C358 C354 1.432 . S
C358 N356 1.359 . S
C358 C361 1.414 . S
C359 H341 0.930 . S
C359 N356 1.327 . S
C359 C357 1.392 . S
C360 H355 0.930 . S
C360 C357 1.370 . S
C360 C361 1.385 . S
C361 C358 1.414 . S
C361 C360 1.385 . S
C361 C383 1.444 . S
O362 Tb318 2.546 . S
O362 C382 1.251 . S
O363 Tb318 2.610 1_654 S
O363 Tb329 2.362 . S
O363 C374 1.283 1_554 S
O364 Tb329 2.421 . S
O364 C381 1.262 . S
O365 Tb318 2.320 1_655 S
O365 C381 1.260 1_556 S
O366 Tb318 2.552 1_655 S
O366 C374 1.243 . S
O367 Tb318 2.413 . S
O367 C382 1.256 . S
O368 Tb329 2.546 . S
O368 C393 1.251 . S
O369 Tb318 2.362 1_554 S
O369 Tb329 2.610 1_455 S
O369 C385 1.283 . S
O370 Tb318 2.396 1_554 S
O370 C392 1.312 . S
O371 Tb329 2.320 1_455 S
O371 C392 1.260 . S
O372 Tb329 2.552 1_455 S
O372 C385 1.243 . S
O373 Tb329 2.413 1_455 S
O373 C393 1.256 1_455 S
C374 O363 1.283 1_556 S
C374 O366 1.243 . S
C375 C377 1.382 1_455 S
C375 C379 1.393 . S
C375 C382 1.500 . S
C376 C377 1.400 . S
C376 C378 1.384 . S
C377 C375 1.382 1_655 S
C377 C376 1.400 . S
C377 H394 0.930 . S
C378 C376 1.384 . S
C378 C380 1.392 1_655 S
C378 H395 0.931 . S
C379 C375 1.393 . S
C379 C380 1.401 . S
C379 H396 0.930 . S
C380 C378 1.392 1_455 S
C380 C379 1.401 . S
C380 H397 0.930 . S
C381 O364 1.262 . S
C381 O365 1.260 1_554 S
C382 Tb318 2.833 . S
C382 O362 1.251 . S
C382 O367 1.256 . S
C382 C375 1.500 . S
C383 H348 0.929 . S
C383 C361 1.444 . S
C383 C384 1.317 . S
C384 H346 0.930 . S
C384 C352 1.432 . S
C384 C383 1.317 . S
C385 O369 1.283 . S
C385 O372 1.243 . S
C386 C387 1.382 . S
C386 C390 1.393 1_455 S
C386 C393 1.500 1_455 S
C387 C386 1.382 . S
C387 C388 1.400 . S
C387 H398 0.930 . S
C388 C387 1.400 . S
C388 C389 1.384 . S
C389 C388 1.384 . S
C389 C391 1.392 1_455 S
C389 H399 0.931 . S
C390 C386 1.393 1_655 S
C390 C391 1.401 . S
C390 H400 0.930 . S
C391 C389 1.392 1_655 S
C391 C390 1.401 . S
C391 H401 0.930 . S
C392 O370 1.312 . S
C392 O371 1.260 . S
C393 Tb329 2.833 . S
C393 O368 1.251 . S
C393 O373 1.256 1_655 S
C393 C386 1.500 1_655 S
H394 C377 0.930 . S
H395 C378 0.931 . S
H396 C379 0.930 . S
H397 C380 0.930 . S
H398 C387 0.930 . S
H399 C389 0.931 . S
H400 C390 0.930 . S
H401 C391 0.930 . S
Tb402 N433 2.660 . S
Tb402 N440 2.600 . S
Tb402 O446 2.546 . S
Tb402 O447 2.610 . S
Tb402 O449 2.320 . S
Tb402 O450 2.552 . S
Tb402 O451 2.413 . S
Tb402 O453 2.362 . S
Tb402 O454 2.421 . S
Tb402 C466 2.833 . S
C403 C406 1.432 . S
C403 C407 1.414 . S
C403 N410 1.359 . S
C404 C406 1.417 . S
C404 C408 1.432 . S
C404 C416 1.410 . S
C405 C407 1.444 . S
C405 C408 1.317 . S
C405 H428 0.929 . S
C406 C403 1.432 . S
C406 C404 1.417 . S
C406 N414 1.360 . S
C407 C403 1.414 . S
C407 C405 1.444 . S
C407 C412 1.385 . S
C408 C404 1.432 . S
C408 C405 1.317 . S
C408 H420 0.930 . S
C409 C411 1.392 . S
C409 C412 1.370 . S
C409 H421 0.931 . S
N410 C403 1.359 . S
N410 C411 1.327 . S
N410 Tb413 2.600 . S
C411 C409 1.392 . S
C411 N410 1.327 . S
C411 H418 0.930 . S
C412 C407 1.385 . S
C412 C409 1.370 . S
C412 H431 0.930 . S
Tb413 N410 2.600 . S
Tb413 N414 2.660 . S
Tb413 O447 2.362 1_556 S
Tb413 O448 2.421 1_556 S
Tb413 O452 2.546 . S
Tb413 O453 2.610 1_556 S
Tb413 O455 2.320 . S
Tb413 O456 2.552 . S
Tb413 O457 2.413 . S
Tb413 C477 2.833 . S
N414 C406 1.360 . S
N414 Tb413 2.660 . S
N414 C415 1.305 . S
C415 N414 1.305 . S
C415 C417 1.407 . S
C415 H422 0.930 . S
C416 C404 1.410 . S
C416 C417 1.345 . S
C416 H424 0.930 . S
C417 C415 1.407 . S
C417 C416 1.345 . S
C417 H419 0.930 . S
H418 C411 0.930 . S
H419 C417 0.930 . S
H420 C408 0.930 . S
H421 C409 0.931 . S
H422 C415 0.930 . S
H423 C437 0.930 . S
H424 C416 0.930 . S
H425 C443 0.930 . S
H426 C434 0.930 . S
H427 C441 0.931 . S
H428 C405 0.929 . S
H429 C435 0.930 . S
H430 C468 0.930 . S
H431 C412 0.930 . S
H432 C467 0.929 . S
N433 Tb402 2.660 . S
N433 C434 1.305 . S
N433 C438 1.360 . S
C434 H426 0.930 . S
C434 N433 1.305 . S
C434 C437 1.407 . S
C435 H429 0.930 . S
C435 C436 1.410 . S
C435 C437 1.345 . S
C436 C435 1.410 . S
C436 C438 1.417 . S
C436 C468 1.432 . S
C437 H423 0.930 . S
C437 C434 1.407 . S
C437 C435 1.345 . S
C438 N433 1.360 . S
C438 C436 1.417 . S
C438 C442 1.432 . S
H439 C444 0.930 . S
N440 Tb402 2.600 . S
N440 C442 1.359 . S
N440 C443 1.327 . S
C441 H427 0.931 . S
C441 C443 1.392 . S
C441 C444 1.370 . S
C442 C438 1.432 . S
C442 N440 1.359 . S
C442 C445 1.414 . S
C443 H425 0.930 . S
C443 N440 1.327 . S
C443 C441 1.392 . S
C444 H439 0.930 . S
C444 C441 1.370 . S
C444 C445 1.385 . S
C445 C442 1.414 . S
C445 C444 1.385 . S
C445 C467 1.444 . S
O446 Tb402 2.546 . S
O446 C466 1.251 . S
O447 Tb402 2.610 . S
O447 Tb413 2.362 1_554 S
O447 C458 1.283 . S
O448 Tb413 2.421 1_554 S
O448 C465 1.262 . S
O449 Tb402 2.320 . S
O449 C465 1.260 . S
O450 Tb402 2.552 . S
O450 C458 1.243 . S
O451 Tb402 2.413 . S
O451 C466 1.256 . S
O452 Tb413 2.546 . S
O452 C477 1.251 . S
O453 Tb402 2.362 . S
O453 Tb413 2.610 1_554 S
O453 C469 1.283 1_554 S
O454 Tb402 2.421 . S
O454 C476 1.262 . S
O455 Tb413 2.320 . S
O455 C476 1.260 1_556 S
O456 Tb413 2.552 . S
O456 C469 1.243 . S
O457 Tb413 2.413 . S
O457 C477 1.256 . S
C458 O447 1.283 . S
C458 O450 1.243 . S
C459 C461 1.382 . S
C459 C463 1.393 . S
C459 C466 1.500 . S
C460 C461 1.400 . S
C460 C462 1.384 . S
C461 C459 1.382 . S
C461 C460 1.400 . S
C461 H478 0.930 . S
C462 C460 1.384 . S
C462 C464 1.392 . S
C462 H479 0.931 . S
C463 C459 1.393 . S
C463 C464 1.401 . S
C463 H480 0.930 . S
C464 C462 1.392 . S
C464 C463 1.401 . S
C464 H481 0.930 . S
C465 O448 1.262 . S
C465 O449 1.260 . S
C466 Tb402 2.833 . S
C466 O446 1.251 . S
C466 O451 1.256 . S
C466 C459 1.500 . S
C467 H432 0.929 . S
C467 C445 1.444 . S
C467 C468 1.317 . S
C468 H430 0.930 . S
C468 C436 1.432 . S
C468 C467 1.317 . S
C469 O453 1.283 1_556 S
C469 O456 1.243 . S
C470 C471 1.382 . S
C470 C474 1.393 . S
C470 C477 1.500 . S
C471 C470 1.382 . S
C471 C472 1.400 . S
C471 H482 0.930 . S
C472 C471 1.400 . S
C472 C473 1.384 . S
C473 C472 1.384 . S
C473 C475 1.392 . S
C473 H483 0.931 . S
C474 C470 1.393 . S
C474 C475 1.401 . S
C474 H484 0.930 . S
C475 C473 1.392 . S
C475 C474 1.401 . S
C475 H485 0.930 . S
C476 O454 1.262 . S
C476 O455 1.260 1_554 S
C477 Tb413 2.833 . S
C477 O452 1.251 . S
C477 O457 1.256 . S
C477 C470 1.500 . S
H478 C461 0.930 . S
H479 C462 0.931 . S
H480 C463 0.930 . S
H481 C464 0.930 . S
H482 C471 0.930 . S
H483 C473 0.931 . S
H484 C474 0.930 . S
H485 C475 0.930 . S
Tb486 N517 2.660 . S
Tb486 N524 2.600 . S
Tb486 O530 2.546 . S
Tb486 O531 2.610 . S
Tb486 O533 2.320 . S
Tb486 O534 2.552 . S
Tb486 O535 2.413 . S
Tb486 O537 2.362 . S
Tb486 O538 2.421 . S
Tb486 C550 2.833 . S
C487 C490 1.432 . S
C487 C491 1.414 . S
C487 N494 1.359 . S
C488 C490 1.417 . S
C488 C492 1.432 . S
C488 C500 1.410 . S
C489 C491 1.444 . S
C489 C492 1.317 . S
C489 H512 0.929 . S
C490 C487 1.432 . S
C490 C488 1.417 . S
C490 N498 1.360 . S
C491 C487 1.414 . S
C491 C489 1.444 . S
C491 C496 1.385 . S
C492 C488 1.432 . S
C492 C489 1.317 . S
C492 H504 0.930 . S
C493 C495 1.392 . S
C493 C496 1.370 . S
C493 H505 0.931 . S
N494 C487 1.359 . S
N494 C495 1.327 . S
N494 Tb497 2.600 . S
C495 C493 1.392 . S
C495 N494 1.327 . S
C495 H502 0.930 . S
C496 C491 1.385 . S
C496 C493 1.370 . S
C496 H515 0.930 . S
Tb497 N494 2.600 . S
Tb497 N498 2.660 . S
Tb497 O531 2.362 . S
Tb497 O532 2.421 . S
Tb497 O536 2.546 . S
Tb497 O537 2.610 . S
Tb497 O539 2.320 . S
Tb497 O540 2.552 . S
Tb497 O541 2.413 . S
Tb497 C561 2.833 . S
N498 C490 1.360 . S
N498 Tb497 2.660 . S
N498 C499 1.305 . S
C499 N498 1.305 . S
C499 C501 1.407 . S
C499 H506 0.930 . S
C500 C488 1.410 . S
C500 C501 1.345 . S
C500 H508 0.930 . S
C501 C499 1.407 . S
C501 C500 1.345 . S
C501 H503 0.930 . S
H502 C495 0.930 . S
H503 C501 0.930 . S
H504 C492 0.930 . S
H505 C493 0.931 . S
H506 C499 0.930 . S
H507 C521 0.930 . S
H508 C500 0.930 . S
H509 C527 0.930 . S
H510 C518 0.930 . S
H511 C525 0.931 . S
H512 C489 0.929 . S
H513 C519 0.930 . S
H514 C552 0.930 . S
H515 C496 0.930 . S
H516 C551 0.929 . S
N517 Tb486 2.660 . S
N517 C518 1.305 . S
N517 C522 1.360 . S
C518 H510 0.930 . S
C518 N517 1.305 . S
C518 C521 1.407 . S
C519 H513 0.930 . S
C519 C520 1.410 . S
C519 C521 1.345 . S
C520 C519 1.410 . S
C520 C522 1.417 . S
C520 C552 1.432 . S
C521 H507 0.930 . S
C521 C518 1.407 . S
C521 C519 1.345 . S
C522 N517 1.360 . S
C522 C520 1.417 . S
C522 C526 1.432 . S
H523 C528 0.930 . S
N524 Tb486 2.600 . S
N524 C526 1.359 . S
N524 C527 1.327 . S
C525 H511 0.931 . S
C525 C527 1.392 . S
C525 C528 1.370 . S
C526 C522 1.432 . S
C526 N524 1.359 . S
C526 C529 1.414 . S
C527 H509 0.930 . S
C527 N524 1.327 . S
C527 C525 1.392 . S
C528 H523 0.930 . S
C528 C525 1.370 . S
C528 C529 1.385 . S
C529 C526 1.414 . S
C529 C528 1.385 . S
C529 C551 1.444 . S
O530 Tb486 2.546 . S
O530 C550 1.251 . S
O531 Tb486 2.610 . S
O531 Tb497 2.362 . S
O531 C542 1.283 . S
O532 Tb497 2.421 . S
O532 C549 1.262 . S
O533 Tb486 2.320 . S
O533 C549 1.260 . S
O534 Tb486 2.552 . S
O534 C542 1.243 . S
O535 Tb486 2.413 . S
O535 C550 1.256 . S
O536 Tb497 2.546 . S
O536 C561 1.251 . S
O537 Tb486 2.362 . S
O537 Tb497 2.610 . S
O537 C553 1.283 . S
O538 Tb486 2.421 . S
O538 C560 1.262 . S
O539 Tb497 2.320 . S
O539 C560 1.260 . S
O540 Tb497 2.552 . S
O540 C553 1.243 . S
O541 Tb497 2.413 . S
O541 C561 1.256 . S
C542 O531 1.283 . S
C542 O534 1.243 . S
C543 C545 1.382 . S
C543 C547 1.393 . S
C543 C550 1.500 . S
C544 C545 1.400 . S
C544 C546 1.384 . S
C545 C543 1.382 . S
C545 C544 1.400 . S
C545 H562 0.930 . S
C546 C544 1.384 . S
C546 C548 1.392 . S
C546 H563 0.931 . S
C547 C543 1.393 . S
C547 C548 1.401 . S
C547 H564 0.930 . S
C548 C546 1.392 . S
C548 C547 1.401 . S
C548 H565 0.930 . S
C549 O532 1.262 . S
C549 O533 1.260 . S
C550 Tb486 2.833 . S
C550 O530 1.251 . S
C550 O535 1.256 . S
C550 C543 1.500 . S
C551 H516 0.929 . S
C551 C529 1.444 . S
C551 C552 1.317 . S
C552 H514 0.930 . S
C552 C520 1.432 . S
C552 C551 1.317 . S
C553 O537 1.283 . S
C553 O540 1.243 . S
C554 C555 1.382 . S
C554 C558 1.393 . S
C554 C561 1.500 . S
C555 C554 1.382 . S
C555 C556 1.400 . S
C555 H566 0.930 . S
C556 C555 1.400 . S
C556 C557 1.384 . S
C557 C556 1.384 . S
C557 C559 1.392 . S
C557 H567 0.931 . S
C558 C554 1.393 . S
C558 C559 1.401 . S
C558 H568 0.930 . S
C559 C557 1.392 . S
C559 C558 1.401 . S
C559 H569 0.930 . S
C560 O538 1.262 . S
C560 O539 1.260 . S
C561 Tb497 2.833 . S
C561 O536 1.251 . S
C561 O541 1.256 . S
C561 C554 1.500 . S
H562 C545 0.930 . S
H563 C546 0.931 . S
H564 C547 0.930 . S
H565 C548 0.930 . S
H566 C555 0.930 . S
H567 C557 0.931 . S
H568 C558 0.930 . S
H569 C559 0.930 . S
Tb570 N601 2.660 . S
Tb570 N608 2.600 . S
Tb570 O614 2.546 . S
Tb570 O615 2.610 . S
Tb570 O617 2.320 . S
Tb570 O618 2.552 . S
Tb570 O619 2.413 . S
Tb570 O621 2.362 . S
Tb570 O622 2.421 . S
Tb570 C634 2.833 . S
C571 C574 1.432 . S
C571 C575 1.414 . S
C571 N578 1.359 . S
C572 C574 1.417 . S
C572 C576 1.432 . S
C572 C584 1.410 . S
C573 C575 1.444 . S
C573 C576 1.317 . S
C573 H596 0.929 . S
C574 C571 1.432 . S
C574 C572 1.417 . S
C574 N582 1.360 . S
C575 C571 1.414 . S
C575 C573 1.444 . S
C575 C580 1.385 . S
C576 C572 1.432 . S
C576 C573 1.317 . S
C576 H588 0.930 . S
C577 C579 1.392 . S
C577 C580 1.370 . S
C577 H589 0.931 . S
N578 C571 1.359 . S
N578 C579 1.327 . S
N578 Tb581 2.600 . S
C579 C577 1.392 . S
C579 N578 1.327 . S
C579 H586 0.930 . S
C580 C575 1.385 . S
C580 C577 1.370 . S
C580 H599 0.930 . S
Tb581 N578 2.600 . S
Tb581 N582 2.660 . S
Tb581 O615 2.362 . S
Tb581 O616 2.421 . S
Tb581 O620 2.546 . S
Tb581 O621 2.610 . S
Tb581 O623 2.320 . S
Tb581 O624 2.552 . S
Tb581 O625 2.413 . S
Tb581 C645 2.833 . S
N582 C574 1.360 . S
N582 Tb581 2.660 . S
N582 C583 1.305 . S
C583 N582 1.305 . S
C583 C585 1.407 . S
C583 H590 0.930 . S
C584 C572 1.410 . S
C584 C585 1.345 . S
C584 H592 0.930 . S
C585 C583 1.407 . S
C585 C584 1.345 . S
C585 H587 0.930 . S
H586 C579 0.930 . S
H587 C585 0.930 . S
H588 C576 0.930 . S
H589 C577 0.931 . S
H590 C583 0.930 . S
H591 C605 0.930 . S
H592 C584 0.930 . S
H593 C611 0.930 . S
H594 C602 0.930 . S
H595 C609 0.931 . S
H596 C573 0.929 . S
H597 C603 0.930 . S
H598 C636 0.930 . S
H599 C580 0.930 . S
H600 C635 0.929 . S
N601 Tb570 2.660 . S
N601 C602 1.305 . S
N601 C606 1.360 . S
C602 H594 0.930 . S
C602 N601 1.305 . S
C602 C605 1.407 . S
C603 H597 0.930 . S
C603 C604 1.410 . S
C603 C605 1.345 . S
C604 C603 1.410 . S
C604 C606 1.417 . S
C604 C636 1.432 . S
C605 H591 0.930 . S
C605 C602 1.407 . S
C605 C603 1.345 . S
C606 N601 1.360 . S
C606 C604 1.417 . S
C606 C610 1.432 . S
H607 C612 0.930 . S
N608 Tb570 2.600 . S
N608 C610 1.359 . S
N608 C611 1.327 . S
C609 H595 0.931 . S
C609 C611 1.392 . S
C609 C612 1.370 . S
C610 C606 1.432 . S
C610 N608 1.359 . S
C610 C613 1.414 . S
C611 H593 0.930 . S
C611 N608 1.327 . S
C611 C609 1.392 . S
C612 H607 0.930 . S
C612 C609 1.370 . S
C612 C613 1.385 . S
C613 C610 1.414 . S
C613 C612 1.385 . S
C613 C635 1.444 . S
O614 Tb570 2.546 . S
O614 C634 1.251 . S
O615 Tb570 2.610 . S
O615 Tb581 2.362 . S
O615 C626 1.283 . S
O616 Tb581 2.421 . S
O616 C633 1.262 . S
O617 Tb570 2.320 . S
O617 C633 1.260 . S
O618 Tb570 2.552 . S
O618 C626 1.243 . S
O619 Tb570 2.413 . S
O619 C634 1.256 . S
O620 Tb581 2.546 . S
O620 C645 1.251 . S
O621 Tb570 2.362 . S
O621 Tb581 2.610 . S
O621 C637 1.283 . S
O622 Tb570 2.421 . S
O622 C644 1.262 . S
O623 Tb581 2.320 . S
O623 C644 1.260 . S
O624 Tb581 2.552 . S
O624 C637 1.243 . S
O625 Tb581 2.413 . S
O625 C645 1.256 . S
C626 O615 1.283 . S
C626 O618 1.243 . S
C627 C629 1.382 . S
C627 C631 1.393 . S
C627 C634 1.500 . S
C628 C629 1.400 . S
C628 C630 1.384 . S
C629 C627 1.382 . S
C629 C628 1.400 . S
C629 H646 0.930 . S
C630 C628 1.384 . S
C630 C632 1.392 . S
C630 H647 0.931 . S
C631 C627 1.393 . S
C631 C632 1.401 . S
C631 H648 0.930 . S
C632 C630 1.392 . S
C632 C631 1.401 . S
C632 H649 0.930 . S
C633 O616 1.262 . S
C633 O617 1.260 . S
C634 Tb570 2.833 . S
C634 O614 1.251 . S
C634 O619 1.256 . S
C634 C627 1.500 . S
C635 H600 0.929 . S
C635 C613 1.444 . S
C635 C636 1.317 . S
C636 H598 0.930 . S
C636 C604 1.432 . S
C636 C635 1.317 . S
C637 O621 1.283 . S
C637 O624 1.243 . S
C638 C639 1.382 . S
C638 C642 1.393 . S
C638 C645 1.500 . S
C639 C638 1.382 . S
C639 C640 1.400 . S
C639 H650 0.930 . S
C640 C639 1.400 . S
C640 C641 1.384 . S
C641 C640 1.384 . S
C641 C643 1.392 . S
C641 H651 0.931 . S
C642 C638 1.393 . S
C642 C643 1.401 . S
C642 H652 0.930 . S
C643 C641 1.392 . S
C643 C642 1.401 . S
C643 H653 0.930 . S
C644 O622 1.262 . S
C644 O623 1.260 . S
C645 Tb581 2.833 . S
C645 O620 1.251 . S
C645 O625 1.256 . S
C645 C638 1.500 . S
H646 C629 0.930 . S
H647 C630 0.931 . S
H648 C631 0.930 . S
H649 C632 0.930 . S
H650 C639 0.930 . S
H651 C641 0.931 . S
H652 C642 0.930 . S
H653 C643 0.930 . S
Tb654 N685 2.660 . S
Tb654 N692 2.600 . S
Tb654 O698 2.546 . S
Tb654 O699 2.610 . S
Tb654 O701 2.320 . S
Tb654 O702 2.552 . S
Tb654 O703 2.413 . S
Tb654 O705 2.362 . S
Tb654 O706 2.421 . S
Tb654 C718 2.833 . S
C655 C658 1.432 . S
C655 C659 1.414 . S
C655 N662 1.359 . S
C656 C658 1.417 . S
C656 C660 1.432 . S
C656 C668 1.410 . S
C657 C659 1.444 . S
C657 C660 1.317 . S
C657 H680 0.929 . S
C658 C655 1.432 . S
C658 C656 1.417 . S
C658 N666 1.360 . S
C659 C655 1.414 . S
C659 C657 1.444 . S
C659 C664 1.385 . S
C660 C656 1.432 . S
C660 C657 1.317 . S
C660 H672 0.930 . S
C661 C663 1.392 . S
C661 C664 1.370 . S
C661 H673 0.931 . S
N662 C655 1.359 . S
N662 C663 1.327 . S
N662 Tb665 2.600 . S
C663 C661 1.392 . S
C663 N662 1.327 . S
C663 H670 0.930 . S
C664 C659 1.385 . S
C664 C661 1.370 . S
C664 H683 0.930 . S
Tb665 N662 2.600 . S
Tb665 N666 2.660 . S
Tb665 O699 2.362 . S
Tb665 O700 2.421 . S
Tb665 O704 2.546 . S
Tb665 O705 2.610 . S
Tb665 O707 2.320 . S
Tb665 O708 2.552 . S
Tb665 O709 2.413 . S
Tb665 C729 2.833 . S
N666 C658 1.360 . S
N666 Tb665 2.660 . S
N666 C667 1.305 . S
C667 N666 1.305 . S
C667 C669 1.407 . S
C667 H674 0.930 . S
C668 C656 1.410 . S
C668 C669 1.345 . S
C668 H676 0.930 . S
C669 C667 1.407 . S
C669 C668 1.345 . S
C669 H671 0.930 . S
H670 C663 0.930 . S
H671 C669 0.930 . S
H672 C660 0.930 . S
H673 C661 0.931 . S
H674 C667 0.930 . S
H675 C689 0.930 . S
H676 C668 0.930 . S
H677 C695 0.930 . S
H678 C686 0.930 . S
H679 C693 0.931 . S
H680 C657 0.929 . S
H681 C687 0.930 . S
H682 C720 0.930 . S
H683 C664 0.930 . S
H684 C719 0.929 . S
N685 Tb654 2.660 . S
N685 C686 1.305 . S
N685 C690 1.360 . S
C686 H678 0.930 . S
C686 N685 1.305 . S
C686 C689 1.407 . S
C687 H681 0.930 . S
C687 C688 1.410 . S
C687 C689 1.345 . S
C688 C687 1.410 . S
C688 C690 1.417 . S
C688 C720 1.432 . S
C689 H675 0.930 . S
C689 C686 1.407 . S
C689 C687 1.345 . S
C690 N685 1.360 . S
C690 C688 1.417 . S
C690 C694 1.432 . S
H691 C696 0.930 . S
N692 Tb654 2.600 . S
N692 C694 1.359 . S
N692 C695 1.327 . S
C693 H679 0.931 . S
C693 C695 1.392 . S
C693 C696 1.370 . S
C694 C690 1.432 . S
C694 N692 1.359 . S
C694 C697 1.414 . S
C695 H677 0.930 . S
C695 N692 1.327 . S
C695 C693 1.392 . S
C696 H691 0.930 . S
C696 C693 1.370 . S
C696 C697 1.385 . S
C697 C694 1.414 . S
C697 C696 1.385 . S
C697 C719 1.444 . S
O698 Tb654 2.546 . S
O698 C718 1.251 . S
O699 Tb654 2.610 . S
O699 Tb665 2.362 . S
O699 C710 1.283 . S
O700 Tb665 2.421 . S
O700 C717 1.262 . S
O701 Tb654 2.320 . S
O701 C717 1.260 . S
O702 Tb654 2.552 . S
O702 C710 1.243 . S
O703 Tb654 2.413 . S
O703 C718 1.256 . S
O704 Tb665 2.546 . S
O704 C729 1.251 . S
O705 Tb654 2.362 . S
O705 Tb665 2.610 . S
O705 C721 1.283 . S
O706 Tb654 2.421 . S
O706 C728 1.262 . S
O707 Tb665 2.320 . S
O707 C728 1.260 . S
O708 Tb665 2.552 . S
O708 C721 1.243 . S
O709 Tb665 2.413 . S
O709 C729 1.256 . S
C710 O699 1.283 . S
C710 O702 1.243 . S
C711 C713 1.382 . S
C711 C715 1.393 . S
C711 C718 1.500 . S
C712 C713 1.400 . S
C712 C714 1.384 . S
C713 C711 1.382 . S
C713 C712 1.400 . S
C713 H730 0.930 . S
C714 C712 1.384 . S
C714 C716 1.392 . S
C714 H731 0.931 . S
C715 C711 1.393 . S
C715 C716 1.401 . S
C715 H732 0.930 . S
C716 C714 1.392 . S
C716 C715 1.401 . S
C716 H733 0.930 . S
C717 O700 1.262 . S
C717 O701 1.260 . S
C718 Tb654 2.833 . S
C718 O698 1.251 . S
C718 O703 1.256 . S
C718 C711 1.500 . S
C719 H684 0.929 . S
C719 C697 1.444 . S
C719 C720 1.317 . S
C720 H682 0.930 . S
C720 C688 1.432 . S
C720 C719 1.317 . S
C721 O705 1.283 . S
C721 O708 1.243 . S
C722 C723 1.382 . S
C722 C726 1.393 . S
C722 C729 1.500 . S
C723 C722 1.382 . S
C723 C724 1.400 . S
C723 H734 0.930 . S
C724 C723 1.400 . S
C724 C725 1.384 . S
C725 C724 1.384 . S
C725 C727 1.392 . S
C725 H735 0.931 . S
C726 C722 1.393 . S
C726 C727 1.401 . S
C726 H736 0.930 . S
C727 C725 1.392 . S
C727 C726 1.401 . S
C727 H737 0.930 . S
C728 O706 1.262 . S
C728 O707 1.260 . S
C729 Tb665 2.833 . S
C729 O704 1.251 . S
C729 O709 1.256 . S
C729 C722 1.500 . S
H730 C713 0.930 . S
H731 C714 0.931 . S
H732 C715 0.930 . S
H733 C716 0.930 . S
H734 C723 0.930 . S
H735 C725 0.931 . S
H736 C726 0.930 . S
H737 C727 0.930 . S
Tb738 N769 2.660 . S
Tb738 N776 2.600 . S
Tb738 O782 2.546 . S
Tb738 O783 2.610 . S
Tb738 O785 2.320 . S
Tb738 O786 2.552 . S
Tb738 O787 2.413 . S
Tb738 O789 2.362 . S
Tb738 O790 2.421 . S
Tb738 C802 2.833 . S
C739 C742 1.432 . S
C739 C743 1.414 . S
C739 N746 1.359 . S
C740 C742 1.417 . S
C740 C744 1.432 . S
C740 C752 1.410 . S
C741 C743 1.444 . S
C741 C744 1.317 . S
C741 H764 0.929 . S
C742 C739 1.432 . S
C742 C740 1.417 . S
C742 N750 1.360 . S
C743 C739 1.414 . S
C743 C741 1.444 . S
C743 C748 1.385 . S
C744 C740 1.432 . S
C744 C741 1.317 . S
C744 H756 0.930 . S
C745 C747 1.392 . S
C745 C748 1.370 . S
C745 H757 0.931 . S
N746 C739 1.359 . S
N746 C747 1.327 . S
N746 Tb749 2.600 . S
C747 C745 1.392 . S
C747 N746 1.327 . S
C747 H754 0.930 . S
C748 C743 1.385 . S
C748 C745 1.370 . S
C748 H767 0.930 . S
Tb749 N746 2.600 . S
Tb749 N750 2.660 . S
Tb749 O783 2.362 . S
Tb749 O784 2.421 . S
Tb749 O788 2.546 . S
Tb749 O789 2.610 . S
Tb749 O791 2.320 . S
Tb749 O792 2.552 . S
Tb749 O793 2.413 . S
Tb749 C813 2.833 . S
N750 C742 1.360 . S
N750 Tb749 2.660 . S
N750 C751 1.305 . S
C751 N750 1.305 . S
C751 C753 1.407 . S
C751 H758 0.930 . S
C752 C740 1.410 . S
C752 C753 1.345 . S
C752 H760 0.930 . S
C753 C751 1.407 . S
C753 C752 1.345 . S
C753 H755 0.930 . S
H754 C747 0.930 . S
H755 C753 0.930 . S
H756 C744 0.930 . S
H757 C745 0.931 . S
H758 C751 0.930 . S
H759 C773 0.930 . S
H760 C752 0.930 . S
H761 C779 0.930 . S
H762 C770 0.930 . S
H763 C777 0.931 . S
H764 C741 0.929 . S
H765 C771 0.930 . S
H766 C804 0.930 . S
H767 C748 0.930 . S
H768 C803 0.929 . S
N769 Tb738 2.660 . S
N769 C770 1.305 . S
N769 C774 1.360 . S
C770 H762 0.930 . S
C770 N769 1.305 . S
C770 C773 1.407 . S
C771 H765 0.930 . S
C771 C772 1.410 . S
C771 C773 1.345 . S
C772 C771 1.410 . S
C772 C774 1.417 . S
C772 C804 1.432 . S
C773 H759 0.930 . S
C773 C770 1.407 . S
C773 C771 1.345 . S
C774 N769 1.360 . S
C774 C772 1.417 . S
C774 C778 1.432 . S
H775 C780 0.930 . S
N776 Tb738 2.600 . S
N776 C778 1.359 . S
N776 C779 1.327 . S
C777 H763 0.931 . S
C777 C779 1.392 . S
C777 C780 1.370 . S
C778 C774 1.432 . S
C778 N776 1.359 . S
C778 C781 1.414 . S
C779 H761 0.930 . S
C779 N776 1.327 . S
C779 C777 1.392 . S
C780 H775 0.930 . S
C780 C777 1.370 . S
C780 C781 1.385 . S
C781 C778 1.414 . S
C781 C780 1.385 . S
C781 C803 1.444 . S
O782 Tb738 2.546 . S
O782 C802 1.251 . S
O783 Tb738 2.610 . S
O783 Tb749 2.362 . S
O783 C794 1.283 . S
O784 Tb749 2.421 . S
O784 C801 1.262 . S
O785 Tb738 2.320 . S
O785 C801 1.260 . S
O786 Tb738 2.552 . S
O786 C794 1.243 . S
O787 Tb738 2.413 . S
O787 C802 1.256 . S
O788 Tb749 2.546 . S
O788 C813 1.251 . S
O789 Tb738 2.362 . S
O789 Tb749 2.610 . S
O789 C805 1.283 . S
O790 Tb738 2.421 . S
O790 C812 1.262 . S
O791 Tb749 2.320 . S
O791 C812 1.260 . S
O792 Tb749 2.552 . S
O792 C805 1.243 . S
O793 Tb749 2.413 . S
O793 C813 1.256 . S
C794 O783 1.283 . S
C794 O786 1.243 . S
C795 C797 1.382 . S
C795 C799 1.393 . S
C795 C802 1.500 . S
C796 C797 1.400 . S
C796 C798 1.384 . S
C797 C795 1.382 . S
C797 C796 1.400 . S
C797 H814 0.930 . S
C798 C796 1.384 . S
C798 C800 1.392 . S
C798 H815 0.931 . S
C799 C795 1.393 . S
C799 C800 1.401 . S
C799 H816 0.930 . S
C800 C798 1.392 . S
C800 C799 1.401 . S
C800 H817 0.930 . S
C801 O784 1.262 . S
C801 O785 1.260 . S
C802 Tb738 2.833 . S
C802 O782 1.251 . S
C802 O787 1.256 . S
C802 C795 1.500 . S
C803 H768 0.929 . S
C803 C781 1.444 . S
C803 C804 1.317 . S
C804 H766 0.930 . S
C804 C772 1.432 . S
C804 C803 1.317 . S
C805 O789 1.283 . S
C805 O792 1.243 . S
C806 C807 1.382 . S
C806 C810 1.393 . S
C806 C813 1.500 . S
C807 C806 1.382 . S
C807 C808 1.400 . S
C807 H818 0.930 . S
C808 C807 1.400 . S
C808 C809 1.384 . S
C809 C808 1.384 . S
C809 C811 1.392 . S
C809 H819 0.931 . S
C810 C806 1.393 . S
C810 C811 1.401 . S
C810 H820 0.930 . S
C811 C809 1.392 . S
C811 C810 1.401 . S
C811 H821 0.930 . S
C812 O790 1.262 . S
C812 O791 1.260 . S
C813 Tb749 2.833 . S
C813 O788 1.251 . S
C813 O793 1.256 . S
C813 C806 1.500 . S
H814 C797 0.930 . S
H815 C798 0.931 . S
H816 C799 0.930 . S
H817 C800 0.930 . S
H818 C807 0.930 . S
H819 C809 0.931 . S
H820 C810 0.930 . S
H821 C811 0.930 . S
Tb822 N853 2.660 . S
Tb822 N860 2.600 . S
Tb822 O866 2.546 . S
Tb822 O867 2.610 . S
Tb822 O869 2.320 . S
Tb822 O870 2.552 . S
Tb822 O871 2.413 . S
Tb822 O873 2.362 . S
Tb822 O874 2.421 . S
Tb822 C886 2.833 . S
C823 C826 1.432 . S
C823 C827 1.414 . S
C823 N830 1.359 . S
C824 C826 1.417 . S
C824 C828 1.432 . S
C824 C836 1.410 . S
C825 C827 1.444 . S
C825 C828 1.317 . S
C825 H848 0.929 . S
C826 C823 1.432 . S
C826 C824 1.417 . S
C826 N834 1.360 . S
C827 C823 1.414 . S
C827 C825 1.444 . S
C827 C832 1.385 . S
C828 C824 1.432 . S
C828 C825 1.317 . S
C828 H840 0.930 . S
C829 C831 1.392 . S
C829 C832 1.370 . S
C829 H841 0.931 . S
N830 C823 1.359 . S
N830 C831 1.327 . S
N830 Tb833 2.600 . S
C831 C829 1.392 . S
C831 N830 1.327 . S
C831 H838 0.930 . S
C832 C827 1.385 . S
C832 C829 1.370 . S
C832 H851 0.930 . S
Tb833 N830 2.600 . S
Tb833 N834 2.660 . S
Tb833 O867 2.362 . S
Tb833 O868 2.421 . S
Tb833 O872 2.546 . S
Tb833 O873 2.610 . S
Tb833 O875 2.320 . S
Tb833 O876 2.552 . S
Tb833 O877 2.413 . S
Tb833 C897 2.833 . S
N834 C826 1.360 . S
N834 Tb833 2.660 . S
N834 C835 1.305 . S
C835 N834 1.305 . S
C835 C837 1.407 . S
C835 H842 0.930 . S
C836 C824 1.410 . S
C836 C837 1.345 . S
C836 H844 0.930 . S
C837 C835 1.407 . S
C837 C836 1.345 . S
C837 H839 0.930 . S
H838 C831 0.930 . S
H839 C837 0.930 . S
H840 C828 0.930 . S
H841 C829 0.931 . S
H842 C835 0.930 . S
H843 C857 0.930 . S
H844 C836 0.930 . S
H845 C863 0.930 . S
H846 C854 0.930 . S
H847 C861 0.931 . S
H848 C825 0.929 . S
H849 C855 0.930 . S
H850 C888 0.930 . S
H851 C832 0.930 . S
H852 C887 0.929 . S
N853 Tb822 2.660 . S
N853 C854 1.305 . S
N853 C858 1.360 . S
C854 H846 0.930 . S
C854 N853 1.305 . S
C854 C857 1.407 . S
C855 H849 0.930 . S
C855 C856 1.410 . S
C855 C857 1.345 . S
C856 C855 1.410 . S
C856 C858 1.417 . S
C856 C888 1.432 . S
C857 H843 0.930 . S
C857 C854 1.407 . S
C857 C855 1.345 . S
C858 N853 1.360 . S
C858 C856 1.417 . S
C858 C862 1.432 . S
H859 C864 0.930 . S
N860 Tb822 2.600 . S
N860 C862 1.359 . S
N860 C863 1.327 . S
C861 H847 0.931 . S
C861 C863 1.392 . S
C861 C864 1.370 . S
C862 C858 1.432 . S
C862 N860 1.359 . S
C862 C865 1.414 . S
C863 H845 0.930 . S
C863 N860 1.327 . S
C863 C861 1.392 . S
C864 H859 0.930 . S
C864 C861 1.370 . S
C864 C865 1.385 . S
C865 C862 1.414 . S
C865 C864 1.385 . S
C865 C887 1.444 . S
O866 Tb822 2.546 . S
O866 C886 1.251 . S
O867 Tb822 2.610 . S
O867 Tb833 2.362 . S
O867 C878 1.283 . S
O868 Tb833 2.421 . S
O868 C885 1.262 . S
O869 Tb822 2.320 . S
O869 C885 1.260 . S
O870 Tb822 2.552 . S
O870 C878 1.243 . S
O871 Tb822 2.413 . S
O871 C886 1.256 . S
O872 Tb833 2.546 . S
O872 C897 1.251 . S
O873 Tb822 2.362 . S
O873 Tb833 2.610 . S
O873 C889 1.283 . S
O874 Tb822 2.421 . S
O874 C896 1.262 . S
O875 Tb833 2.320 . S
O875 C896 1.260 . S
O876 Tb833 2.552 . S
O876 C889 1.243 . S
O877 Tb833 2.413 . S
O877 C897 1.256 . S
C878 O867 1.283 . S
C878 O870 1.243 . S
C879 C881 1.382 . S
C879 C883 1.393 . S
C879 C886 1.500 . S
C880 C881 1.400 . S
C880 C882 1.384 . S
C881 C879 1.382 . S
C881 C880 1.400 . S
C881 H898 0.930 . S
C882 C880 1.384 . S
C882 C884 1.392 . S
C882 H899 0.931 . S
C883 C879 1.393 . S
C883 C884 1.401 . S
C883 H900 0.930 . S
C884 C882 1.392 . S
C884 C883 1.401 . S
C884 H901 0.930 . S
C885 O868 1.262 . S
C885 O869 1.260 . S
C886 Tb822 2.833 . S
C886 O866 1.251 . S
C886 O871 1.256 . S
C886 C879 1.500 . S
C887 H852 0.929 . S
C887 C865 1.444 . S
C887 C888 1.317 . S
C888 H850 0.930 . S
C888 C856 1.432 . S
C888 C887 1.317 . S
C889 O873 1.283 . S
C889 O876 1.243 . S
C890 C891 1.382 . S
C890 C894 1.393 . S
C890 C897 1.500 . S
C891 C890 1.382 . S
C891 C892 1.400 . S
C891 H902 0.930 . S
C892 C891 1.400 . S
C892 C893 1.384 . S
C893 C892 1.384 . S
C893 C895 1.392 . S
C893 H903 0.931 . S
C894 C890 1.393 . S
C894 C895 1.401 . S
C894 H904 0.930 . S
C895 C893 1.392 . S
C895 C894 1.401 . S
C895 H905 0.930 . S
C896 O874 1.262 . S
C896 O875 1.260 . S
C897 Tb833 2.833 . S
C897 O872 1.251 . S
C897 O877 1.256 . S
C897 C890 1.500 . S
H898 C881 0.930 . S
H899 C882 0.931 . S
H900 C883 0.930 . S
H901 C884 0.930 . S
H902 C891 0.930 . S
H903 C893 0.931 . S
H904 C894 0.930 . S
H905 C895 0.930 . S
Tb906 N937 2.660 . S
Tb906 N944 2.600 . S
Tb906 O950 2.546 . S
Tb906 O951 2.610 . S
Tb906 O953 2.320 . S
Tb906 O954 2.552 . S
Tb906 O955 2.413 . S
Tb906 O957 2.362 . S
Tb906 O958 2.421 . S
Tb906 C970 2.833 . S
C907 C910 1.432 . S
C907 C911 1.414 . S
C907 N914 1.359 . S
C908 C910 1.417 . S
C908 C912 1.432 . S
C908 C920 1.410 . S
C909 C911 1.444 . S
C909 C912 1.317 . S
C909 H932 0.929 . S
C910 C907 1.432 . S
C910 C908 1.417 . S
C910 N918 1.360 . S
C911 C907 1.414 . S
C911 C909 1.444 . S
C911 C916 1.385 . S
C912 C908 1.432 . S
C912 C909 1.317 . S
C912 H924 0.930 . S
C913 C915 1.392 . S
C913 C916 1.370 . S
C913 H925 0.931 . S
N914 C907 1.359 . S
N914 C915 1.327 . S
N914 Tb917 2.600 . S
C915 C913 1.392 . S
C915 N914 1.327 . S
C915 H922 0.930 . S
C916 C911 1.385 . S
C916 C913 1.370 . S
C916 H935 0.930 . S
Tb917 N914 2.600 . S
Tb917 N918 2.660 . S
Tb917 O951 2.362 . S
Tb917 O952 2.421 . S
Tb917 O956 2.546 . S
Tb917 O957 2.610 . S
Tb917 O959 2.320 . S
Tb917 O960 2.552 . S
Tb917 O961 2.413 . S
Tb917 C981 2.833 . S
N918 C910 1.360 . S
N918 Tb917 2.660 . S
N918 C919 1.305 . S
C919 N918 1.305 . S
C919 C921 1.407 . S
C919 H926 0.930 . S
C920 C908 1.410 . S
C920 C921 1.345 . S
C920 H928 0.930 . S
C921 C919 1.407 . S
C921 C920 1.345 . S
C921 H923 0.930 . S
H922 C915 0.930 . S
H923 C921 0.930 . S
H924 C912 0.930 . S
H925 C913 0.931 . S
H926 C919 0.930 . S
H927 C941 0.930 . S
H928 C920 0.930 . S
H929 C947 0.930 . S
H930 C938 0.930 . S
H931 C945 0.931 . S
H932 C909 0.929 . S
H933 C939 0.930 1_455 S
H934 C972 0.930 1_455 S
H935 C916 0.930 . S
H936 C971 0.929 . S
N937 Tb906 2.660 . S
N937 C938 1.305 . S
N937 C942 1.360 . S
C938 H930 0.930 . S
C938 N937 1.305 . S
C938 C941 1.407 . S
C939 H933 0.930 1_655 S
C939 C940 1.410 . S
C939 C941 1.345 . S
C940 C939 1.410 . S
C940 C942 1.417 . S
C940 C972 1.432 . S
C941 H927 0.930 . S
C941 C938 1.407 . S
C941 C939 1.345 . S
C942 N937 1.360 . S
C942 C940 1.417 . S
C942 C946 1.432 . S
H943 C948 0.930 . S
N944 Tb906 2.600 . S
N944 C946 1.359 . S
N944 C947 1.327 . S
C945 H931 0.931 . S
C945 C947 1.392 . S
C945 C948 1.370 . S
C946 C942 1.432 . S
C946 N944 1.359 . S
C946 C949 1.414 . S
C947 H929 0.930 . S
C947 N944 1.327 . S
C947 C945 1.392 . S
C948 H943 0.930 . S
C948 C945 1.370 . S
C948 C949 1.385 . S
C949 C946 1.414 . S
C949 C948 1.385 . S
C949 C971 1.444 . S
O950 Tb906 2.546 . S
O950 C970 1.251 . S
O951 Tb906 2.610 . S
O951 Tb917 2.362 . S
O951 C962 1.283 . S
O952 Tb917 2.421 . S
O952 C969 1.262 . S
O953 Tb906 2.320 . S
O953 C969 1.260 . S
O954 Tb906 2.552 . S
O954 C962 1.243 . S
O955 Tb906 2.413 . S
O955 C970 1.256 . S
O956 Tb917 2.546 . S
O956 C981 1.251 . S
O957 Tb906 2.362 . S
O957 Tb917 2.610 . S
O957 C973 1.283 . S
O958 Tb906 2.421 . S
O958 C980 1.262 . S
O959 Tb917 2.320 . S
O959 C980 1.260 . S
O960 Tb917 2.552 . S
O960 C973 1.243 . S
O961 Tb917 2.413 . S
O961 C981 1.256 . S
C962 O951 1.283 . S
C962 O954 1.243 . S
C963 C965 1.382 . S
C963 C967 1.393 . S
C963 C970 1.500 . S
C964 C965 1.400 . S
C964 C966 1.384 . S
C965 C963 1.382 . S
C965 C964 1.400 . S
C965 H982 0.930 . S
C966 C964 1.384 . S
C966 C968 1.392 . S
C966 H983 0.931 . S
C967 C963 1.393 . S
C967 C968 1.401 . S
C967 H984 0.930 . S
C968 C966 1.392 . S
C968 C967 1.401 . S
C968 H985 0.930 . S
C969 O952 1.262 . S
C969 O953 1.260 . S
C970 Tb906 2.833 . S
C970 O950 1.251 . S
C970 O955 1.256 . S
C970 C963 1.500 . S
C971 H936 0.929 . S
C971 C949 1.444 . S
C971 C972 1.317 . S
C972 H934 0.930 1_655 S
C972 C940 1.432 . S
C972 C971 1.317 . S
C973 O957 1.283 . S
C973 O960 1.243 . S
C974 C975 1.382 . S
C974 C978 1.393 . S
C974 C981 1.500 . S
C975 C974 1.382 . S
C975 C976 1.400 . S
C975 H986 0.930 . S
C976 C975 1.400 . S
C976 C977 1.384 . S
C977 C976 1.384 . S
C977 C979 1.392 . S
C977 H987 0.931 . S
C978 C974 1.393 . S
C978 C979 1.401 . S
C978 H988 0.930 . S
C979 C977 1.392 . S
C979 C978 1.401 . S
C979 H989 0.930 . S
C980 O958 1.262 . S
C980 O959 1.260 . S
C981 Tb917 2.833 . S
C981 O956 1.251 . S
C981 O961 1.256 . S
C981 C974 1.500 . S
H982 C965 0.930 . S
H983 C966 0.931 . S
H984 C967 0.930 . S
H985 C968 0.930 . S
H986 C975 0.930 . S
H987 C977 0.931 . S
H988 C978 0.930 . S
H989 C979 0.930 . S
H990 C998 0.950 . S
H991 C1003 0.950 . S
H992 C1000 0.950 . S
H993 C1002 0.950 . S
H994 C1004 0.950 . S
H995 C1006 0.950 . S
H996 C1008 0.950 . S
H997 C1009 0.950 . S
C998 H990 0.950 . S
C998 C999 1.386 . S
C998 C1000 1.391 . S
C999 C998 1.386 . S
C999 C1003 1.393 . S
C1000 H992 0.950 . S
C1000 C998 1.391 . S
C1000 C1001 1.400 . S
C1001 C1000 1.400 . S
C1001 C1002 1.398 . S
C1001 C1007 1.491 . S
C1002 H993 0.950 . S
C1002 C1001 1.398 . S
C1002 C1003 1.391 . S
C1003 H991 0.950 . S
C1003 C999 1.393 . S
C1003 C1002 1.391 . S
C1004 H994 0.950 . S
C1004 C1005 1.386 . S
C1004 C1006 1.391 . S
C1005 C1004 1.386 . S
C1005 C1009 1.393 . S
C1006 H995 0.950 . S
C1006 C1004 1.391 . S
C1006 C1007 1.400 . S
C1007 C1001 1.491 . S
C1007 C1006 1.400 . S
C1007 C1008 1.398 . S
C1008 H996 0.950 . S
C1008 C1007 1.398 . S
C1008 C1009 1.391 . S
C1009 H997 0.950 . S
C1009 C1005 1.393 . S
C1009 C1008 1.391 . S
H1010 C1018 0.950 . S
H1011 C1023 0.950 . S
H1012 C1020 0.950 . S
H1013 C1022 0.950 . S
H1014 C1024 0.950 . S
H1015 C1026 0.950 . S
H1016 C1028 0.950 . S
H1017 C1029 0.950 . S
C1018 H1010 0.950 . S
C1018 C1019 1.386 . S
C1018 C1020 1.391 . S
C1019 C1018 1.386 . S
C1019 C1023 1.393 . S
C1020 H1012 0.950 . S
C1020 C1018 1.391 . S
C1020 C1021 1.400 . S
C1021 C1020 1.400 . S
C1021 C1022 1.398 . S
C1021 C1027 1.491 . S
C1022 H1013 0.950 . S
C1022 C1021 1.398 . S
C1022 C1023 1.391 . S
C1023 H1011 0.950 . S
C1023 C1019 1.393 . S
C1023 C1022 1.391 . S
C1024 H1014 0.950 . S
C1024 C1025 1.386 . S
C1024 C1026 1.391 . S
C1025 C1024 1.386 . S
C1025 C1029 1.393 . S
C1026 H1015 0.950 . S
C1026 C1024 1.391 . S
C1026 C1027 1.400 . S
C1027 C1021 1.491 . S
C1027 C1026 1.400 . S
C1027 C1028 1.398 . S
C1028 H1016 0.950 . S
C1028 C1027 1.398 . S
C1028 C1029 1.391 . S
C1029 H1017 0.950 . S
C1029 C1025 1.393 . S
C1029 C1028 1.391 . S
H1030 C1038 0.950 . S
H1031 C1043 0.950 . S
H1032 C1040 0.950 . S
H1033 C1042 0.950 . S
H1034 C1044 0.950 . S
H1035 C1046 0.950 . S
H1036 C1048 0.950 . S
H1037 C1049 0.950 . S
C1038 H1030 0.950 . S
C1038 C1039 1.386 . S
C1038 C1040 1.391 . S
C1039 C1038 1.386 . S
C1039 C1043 1.393 . S
C1040 H1032 0.950 . S
C1040 C1038 1.391 . S
C1040 C1041 1.400 . S
C1041 C1040 1.400 . S
C1041 C1042 1.398 . S
C1041 C1047 1.491 . S
C1042 H1033 0.950 . S
C1042 C1041 1.398 . S
C1042 C1043 1.391 . S
C1043 H1031 0.950 . S
C1043 C1039 1.393 . S
C1043 C1042 1.391 . S
C1044 H1034 0.950 . S
C1044 C1045 1.386 . S
C1044 C1046 1.391 . S
C1045 C1044 1.386 . S
C1045 C1049 1.393 . S
C1046 H1035 0.950 . S
C1046 C1044 1.391 . S
C1046 C1047 1.400 . S
C1047 C1041 1.491 . S
C1047 C1046 1.400 . S
C1047 C1048 1.398 . S
C1048 H1036 0.950 . S
C1048 C1047 1.398 . S
C1048 C1049 1.391 . S
C1049 H1037 0.950 . S
C1049 C1045 1.393 . S
C1049 C1048 1.391 . S
H1050 C1058 0.950 . S
H1051 C1063 0.950 . S
H1052 C1060 0.950 . S
H1053 C1062 0.950 . S
H1054 C1064 0.950 1_554 S
H1055 C1066 0.950 . S
H1056 C1068 0.950 . S
H1057 C1069 0.950 . S
C1058 H1050 0.950 . S
C1058 C1059 1.386 . S
C1058 C1060 1.391 . S
C1059 C1058 1.386 . S
C1059 C1063 1.393 . S
C1060 H1052 0.950 . S
C1060 C1058 1.391 . S
C1060 C1061 1.400 . S
C1061 C1060 1.400 . S
C1061 C1062 1.398 . S
C1061 C1067 1.491 . S
C1062 H1053 0.950 . S
C1062 C1061 1.398 . S
C1062 C1063 1.391 . S
C1063 H1051 0.950 . S
C1063 C1059 1.393 . S
C1063 C1062 1.391 . S
C1064 H1054 0.950 1_556 S
C1064 C1065 1.386 . S
C1064 C1066 1.391 . S
C1065 C1064 1.386 . S
C1065 C1069 1.393 . S
C1066 H1055 0.950 . S
C1066 C1064 1.391 . S
C1066 C1067 1.400 . S
C1067 C1061 1.491 . S
C1067 C1066 1.400 . S
C1067 C1068 1.398 . S
C1068 H1056 0.950 . S
C1068 C1067 1.398 . S
C1068 C1069 1.391 . S
C1069 H1057 0.950 . S
C1069 C1065 1.393 . S
C1069 C1068 1.391 . S
H1070 C1078 0.950 . S
H1071 C1083 0.950 . S
H1072 C1080 0.950 . S
H1073 C1082 0.950 . S
H1074 C1084 0.950 . S
H1075 C1086 0.945 1_554 S
H1076 C1088 0.950 . S
H1077 C1089 0.950 . S
C1078 H1070 0.950 . S
C1078 C1079 1.386 . S
C1078 C1080 1.391 . S
C1079 C1078 1.386 . S
C1079 C1083 1.393 . S
C1080 H1072 0.950 . S
C1080 C1078 1.391 . S
C1080 C1081 1.400 . S
C1081 C1080 1.400 . S
C1081 C1082 1.398 . S
C1081 C1087 1.491 . S
C1082 H1073 0.950 . S
C1082 C1081 1.398 . S
C1082 C1083 1.391 . S
C1083 H1071 0.950 . S
C1083 C1079 1.393 . S
C1083 C1082 1.391 . S
C1084 H1074 0.950 . S
C1084 C1085 1.386 1_554 S
C1084 C1086 1.391 1_554 S
C1085 C1084 1.386 1_556 S
C1085 C1089 1.393 . S
C1086 H1075 0.945 1_556 S
C1086 C1084 1.391 1_556 S
C1086 C1087 1.400 . S
C1087 C1081 1.491 . S
C1087 C1086 1.400 . S
C1087 C1088 1.398 . S
C1088 H1076 0.950 . S
C1088 C1087 1.398 . S
C1088 C1089 1.391 . S
C1089 H1077 0.950 . S
C1089 C1085 1.393 . S
C1089 C1088 1.391 . S
H1090 C1098 0.950 . S
H1091 C1103 0.950 . S
H1092 C1100 0.950 . S
H1093 C1102 0.950 . S
H1094 C1104 0.950 . S
H1095 C1106 0.950 . S
H1096 C1108 0.971 . S
H1097 C1109 0.950 . S
C1098 H1090 0.950 . S
C1098 C1099 1.386 . S
C1098 C1100 1.391 . S
C1099 C1098 1.386 . S
C1099 C1103 1.393 . S
C1100 H1092 0.950 . S
C1100 C1098 1.391 . S
C1100 C1101 1.400 . S
C1101 C1100 1.400 . S
C1101 C1102 1.398 . S
C1101 C1107 1.491 . S
C1102 H1093 0.950 . S
C1102 C1101 1.398 . S
C1102 C1103 1.391 . S
C1103 H1091 0.950 . S
C1103 C1099 1.393 . S
C1103 C1102 1.391 . S
C1104 H1094 0.950 . S
C1104 C1105 1.386 . S
C1104 C1106 1.391 . S
C1105 C1104 1.386 . S
C1105 C1109 1.393 1_556 S
C1106 H1095 0.950 . S
C1106 C1104 1.391 . S
C1106 C1107 1.400 . S
C1107 C1101 1.491 . S
C1107 C1106 1.400 . S
C1107 C1108 1.368 1_556 S
C1108 H1096 0.971 . S
C1108 C1107 1.368 1_554 S
C1108 C1109 1.402 . S
C1109 H1097 0.950 . S
C1109 C1105 1.393 1_554 S
C1109 C1108 1.402 . S
H1110 C1118 0.950 . S
H1111 C1123 0.950 . S
H1112 C1120 0.950 1_554 S
H1113 C1122 0.950 . S
H1114 C1124 0.950 . S
H1115 C1126 0.950 . S
H1116 C1128 0.977 . S
H1117 C1129 0.950 . S
C1118 H1110 0.950 . S
C1118 C1119 1.386 . S
C1118 C1120 1.391 . S
C1119 C1118 1.386 . S
C1119 C1123 1.393 . S
C1120 H1112 0.950 1_556 S
C1120 C1118 1.391 . S
C1120 C1121 1.400 . S
C1121 C1120 1.400 . S
C1121 C1122 1.398 . S
C1121 C1127 1.491 . S
C1122 H1113 0.950 . S
C1122 C1121 1.398 . S
C1122 C1123 1.391 . S
C1123 H1111 0.950 . S
C1123 C1119 1.393 . S
C1123 C1122 1.391 . S
C1124 H1114 0.950 . S
C1124 C1125 1.386 . S
C1124 C1126 1.391 . S
C1125 C1124 1.386 . S
C1125 C1129 1.393 1_556 S
C1126 H1115 0.950 . S
C1126 C1124 1.391 . S
C1126 C1127 1.400 . S
C1127 C1121 1.491 . S
C1127 C1126 1.400 . S
C1127 C1128 1.361 1_556 S
C1128 H1116 0.977 . S
C1128 C1127 1.361 1_554 S
C1128 C1129 1.404 . S
C1129 H1117 0.950 . S
C1129 C1125 1.393 1_554 S
C1129 C1128 1.404 . S
H1130 C1138 0.950 . S
H1131 C1143 0.950 . S
H1132 C1140 0.950 . S
H1133 C1142 0.950 . S
H1134 C1144 0.929 1_554 S
H1135 C1146 0.950 . S
H1136 C1148 0.950 . S
H1137 C1149 0.950 . S
C1138 H1130 0.950 . S
C1138 C1139 1.386 . S
C1138 C1140 1.391 . S
C1139 C1138 1.386 . S
C1139 C1143 1.393 . S
C1140 H1132 0.950 . S
C1140 C1138 1.391 . S
C1140 C1141 1.400 . S
C1141 C1140 1.400 . S
C1141 C1142 1.398 . S
C1141 C1147 1.491 . S
C1142 H1133 0.950 . S
C1142 C1141 1.398 . S
C1142 C1143 1.391 . S
C1143 H1131 0.950 . S
C1143 C1139 1.393 . S
C1143 C1142 1.391 . S
C1144 H1134 0.929 1_556 S
C1144 C1145 1.386 . S
C1144 C1146 1.391 . S
C1145 C1144 1.386 . S
C1145 C1149 1.393 . S
C1146 H1135 0.950 . S
C1146 C1144 1.391 . S
C1146 C1147 1.400 . S
C1147 C1141 1.491 . S
C1147 C1146 1.400 . S
C1147 C1148 1.398 . S
C1148 H1136 0.950 . S
C1148 C1147 1.398 . S
C1148 C1149 1.391 . S
C1149 H1137 0.950 . S
C1149 C1145 1.393 . S
C1149 C1148 1.391 . S
H1150 C1158 0.950 . S
H1151 C1163 0.950 . S
H1152 C1160 0.950 . S
H1153 C1162 0.950 . S
H1154 C1164 0.950 . S
H1155 C1166 0.950 . S
H1156 C1168 0.950 . S
H1157 C1169 0.950 . S
C1158 H1150 0.950 . S
C1158 C1159 1.386 . S
C1158 C1160 1.391 . S
C1159 C1158 1.386 . S
C1159 C1163 1.393 . S
C1160 H1152 0.950 . S
C1160 C1158 1.391 . S
C1160 C1161 1.400 . S
C1161 C1160 1.400 . S
C1161 C1162 1.398 . S
C1161 C1167 1.491 . S
C1162 H1153 0.950 . S
C1162 C1161 1.398 . S
C1162 C1163 1.391 . S
C1163 H1151 0.950 . S
C1163 C1159 1.393 . S
C1163 C1162 1.391 . S
C1164 H1154 0.950 . S
C1164 C1165 1.386 . S
C1164 C1166 1.391 . S
C1165 C1164 1.386 . S
C1165 C1169 1.393 . S
C1166 H1155 0.950 . S
C1166 C1164 1.391 . S
C1166 C1167 1.400 . S
C1167 C1161 1.491 . S
C1167 C1166 1.400 . S
C1167 C1168 1.398 . S
C1168 H1156 0.950 . S
C1168 C1167 1.398 . S
C1168 C1169 1.391 . S
C1169 H1157 0.950 . S
C1169 C1165 1.393 . S
C1169 C1168 1.391 . S
H1170 C1178 0.950 . S
H1171 C1183 0.950 . S
H1172 C1180 0.950 . S
H1173 C1182 0.950 . S
H1174 C1184 0.950 . S
H1175 C1186 0.950 . S
H1176 C1188 0.950 . S
H1177 C1189 0.950 . S
C1178 H1170 0.950 . S
C1178 C1179 1.386 . S
C1178 C1180 1.391 . S
C1179 C1178 1.386 . S
C1179 C1183 1.393 . S
C1180 H1172 0.950 . S
C1180 C1178 1.391 . S
C1180 C1181 1.400 . S
C1181 C1180 1.400 . S
C1181 C1182 1.398 . S
C1181 C1187 1.491 . S
C1182 H1173 0.950 . S
C1182 C1181 1.398 . S
C1182 C1183 1.391 . S
C1183 H1171 0.950 . S
C1183 C1179 1.393 . S
C1183 C1182 1.391 . S
C1184 H1174 0.950 . S
C1184 C1185 1.386 . S
C1184 C1186 1.391 . S
C1185 C1184 1.386 . S
C1185 C1189 1.393 . S
C1186 H1175 0.950 . S
C1186 C1184 1.391 . S
C1186 C1187 1.400 . S
C1187 C1181 1.491 . S
C1187 C1186 1.400 . S
C1187 C1188 1.398 . S
C1188 H1176 0.950 . S
C1188 C1187 1.398 . S
C1188 C1189 1.391 . S
C1189 H1177 0.950 . S
C1189 C1185 1.393 . S
C1189 C1188 1.391 . S
H1190 C1198 0.950 . S
H1191 C1203 0.950 . S
H1192 C1200 0.950 . S
H1193 C1202 0.950 . S
H1194 C1204 1.008 . S
H1195 C1206 0.950 . S
H1196 C1208 0.950 . S
H1197 C1209 0.950 . S
C1198 H1190 0.950 . S
C1198 C1199 1.386 . S
C1198 C1200 1.391 . S
C1199 C1198 1.386 . S
C1199 C1203 1.393 . S
C1200 H1192 0.950 . S
C1200 C1198 1.391 . S
C1200 C1201 1.400 . S
C1201 C1200 1.400 . S
C1201 C1202 1.398 . S
C1201 C1207 1.491 . S
C1202 H1193 0.950 . S
C1202 C1201 1.398 . S
C1202 C1203 1.391 . S
C1203 H1191 0.950 . S
C1203 C1199 1.393 . S
C1203 C1202 1.391 . S
C1204 H1194 1.008 . S
C1204 C1205 1.386 . S
C1204 C1206 1.391 . S
C1205 C1204 1.386 . S
C1205 C1209 1.393 . S
C1206 H1195 0.950 . S
C1206 C1204 1.391 . S
C1206 C1207 1.400 . S
C1207 C1201 1.491 . S
C1207 C1206 1.400 . S
C1207 C1208 1.398 . S
C1208 H1196 0.950 . S
C1208 C1207 1.398 . S
C1208 C1209 1.391 . S
C1209 H1197 0.950 . S
C1209 C1205 1.393 . S
C1209 C1208 1.391 . S
H1210 C1218 0.950 . S
H1211 C1223 0.950 . S
H1212 C1220 0.950 . S
H1213 C1222 0.950 . S
H1214 C1224 0.950 . S
H1215 C1226 0.950 . S
H1216 C1228 0.950 . S
H1217 C1229 0.950 . S
C1218 H1210 0.950 . S
C1218 C1219 1.386 . S
C1218 C1220 1.391 . S
C1219 C1218 1.386 . S
C1219 C1223 1.393 . S
C1220 H1212 0.950 . S
C1220 C1218 1.391 . S
C1220 C1221 1.400 . S
C1221 C1220 1.400 . S
C1221 C1222 1.398 . S
C1221 C1227 1.491 . S
C1222 H1213 0.950 . S
C1222 C1221 1.398 . S
C1222 C1223 1.391 . S
C1223 H1211 0.950 . S
C1223 C1219 1.393 . S
C1223 C1222 1.391 . S
C1224 H1214 0.950 . S
C1224 C1225 1.386 . S
C1224 C1226 1.391 . S
C1225 C1224 1.386 . S
C1225 C1229 1.393 . S
C1226 H1215 0.950 . S
C1226 C1224 1.391 . S
C1226 C1227 1.400 . S
C1227 C1221 1.491 . S
C1227 C1226 1.400 . S
C1227 C1228 1.398 . S
C1228 H1216 0.950 . S
C1228 C1227 1.398 . S
C1228 C1229 1.391 . S
C1229 H1217 0.950 . S
C1229 C1225 1.393 . S
C1229 C1228 1.391 . S
H1230 C1238 0.950 . S
H1231 C1243 0.950 . S
H1232 C1240 0.950 1_455 S
H1233 C1242 0.950 . S
H1234 C1244 0.950 . S
H1235 C1246 0.950 . S
H1236 C1248 0.950 . S
H1237 C1249 0.950 . S
C1238 H1230 0.950 . S
C1238 C1239 1.386 . S
C1238 C1240 1.391 . S
C1239 C1238 1.386 . S
C1239 C1243 1.393 . S
C1240 H1232 0.950 1_655 S
C1240 C1238 1.391 . S
C1240 C1241 1.400 . S
C1241 C1240 1.400 . S
C1241 C1242 1.398 . S
C1241 C1247 1.491 1_655 S
C1242 H1233 0.950 . S
C1242 C1241 1.398 . S
C1242 C1243 1.391 . S
C1243 H1231 0.950 . S
C1243 C1239 1.393 . S
C1243 C1242 1.391 . S
C1244 H1234 0.950 . S
C1244 C1245 1.386 . S
C1244 C1246 1.391 . S
C1245 C1244 1.386 . S
C1245 C1249 1.393 . S
C1246 H1235 0.950 . S
C1246 C1244 1.391 . S
C1246 C1247 1.400 . S
C1247 C1241 1.491 1_455 S
C1247 C1246 1.400 . S
C1247 C1248 1.398 . S
C1248 H1236 0.950 . S
C1248 C1247 1.398 . S
C1248 C1249 1.391 . S
C1249 H1237 0.950 . S
C1249 C1245 1.393 . S
C1249 C1248 1.391 . S
H1250 C1258 0.950 . S
H1251 C1263 0.950 . S
H1252 C1260 0.950 . S
H1253 C1262 0.950 . S
H1254 C1264 0.950 . S
H1255 C1266 0.950 . S
H1256 C1268 0.950 . S
H1257 C1269 0.950 . S
C1258 H1250 0.950 . S
C1258 C1259 1.386 . S
C1258 C1260 1.391 . S
C1259 C1258 1.386 . S
C1259 C1263 1.393 . S
C1260 H1252 0.950 . S
C1260 C1258 1.391 . S
C1260 C1261 1.400 . S
C1261 C1260 1.400 . S
C1261 C1262 1.398 . S
C1261 C1267 1.491 . S
C1262 H1253 0.950 . S
C1262 C1261 1.398 . S
C1262 C1263 1.391 . S
C1263 H1251 0.950 . S
C1263 C1259 1.393 . S
C1263 C1262 1.391 . S
C1264 H1254 0.950 . S
C1264 C1265 1.386 . S
C1264 C1266 1.391 . S
C1265 C1264 1.386 . S
C1265 C1269 1.393 . S
C1266 H1255 0.950 . S
C1266 C1264 1.391 . S
C1266 C1267 1.400 . S
C1267 C1261 1.491 . S
C1267 C1266 1.400 . S
C1267 C1268 1.398 . S
C1268 H1256 0.950 . S
C1268 C1267 1.398 . S
C1268 C1269 1.391 . S
C1269 H1257 0.950 . S
C1269 C1265 1.393 . S
C1269 C1268 1.391 . S
H1270 C1278 0.950 . S
H1271 C1283 0.950 . S
H1272 C1280 0.950 . S
H1273 C1282 0.950 . S
H1274 C1284 0.950 . S
H1275 C1286 0.950 1_545 S
H1276 C1288 0.950 . S
H1277 C1289 0.950 . S
C1278 H1270 0.950 . S
C1278 C1279 1.386 . S
C1278 C1280 1.391 . S
C1279 C1278 1.386 . S
C1279 C1283 1.393 . S
C1280 H1272 0.950 . S
C1280 C1278 1.391 . S
C1280 C1281 1.400 . S
C1281 C1280 1.400 . S
C1281 C1282 1.398 . S
C1281 C1287 1.491 1_545 S
C1282 H1273 0.950 . S
C1282 C1281 1.398 . S
C1282 C1283 1.391 . S
C1283 H1271 0.950 . S
C1283 C1279 1.393 . S
C1283 C1282 1.391 . S
C1284 H1274 0.950 . S
C1284 C1285 1.386 . S
C1284 C1286 1.391 . S
C1285 C1284 1.386 . S
C1285 C1289 1.393 . S
C1286 H1275 0.950 1_565 S
C1286 C1284 1.391 . S
C1286 C1287 1.400 . S
C1287 C1281 1.491 1_565 S
C1287 C1286 1.400 . S
C1287 C1288 1.398 . S
C1288 H1276 0.950 . S
C1288 C1287 1.398 . S
C1288 C1289 1.391 . S
C1289 H1277 0.950 . S
C1289 C1285 1.393 . S
C1289 C1288 1.391 . S
H1290 C1298 0.950 . S
H1291 C1303 0.950 . S
H1292 C1300 0.950 . S
H1293 C1302 0.950 . S
H1294 C1304 0.950 . S
H1295 C1306 0.950 . S
H1296 C1308 0.950 . S
H1297 C1309 0.950 . S
C1298 H1290 0.950 . S
C1298 C1299 1.386 . S
C1298 C1300 1.391 . S
C1299 C1298 1.386 . S
C1299 C1303 1.393 . S
C1300 H1292 0.950 . S
C1300 C1298 1.391 . S
C1300 C1301 1.400 . S
C1301 C1300 1.400 . S
C1301 C1302 1.398 . S
C1301 C1307 1.491 . S
C1302 H1293 0.950 . S
C1302 C1301 1.398 . S
C1302 C1303 1.391 . S
C1303 H1291 0.950 . S
C1303 C1299 1.393 . S
C1303 C1302 1.391 . S
C1304 H1294 0.950 . S
C1304 C1305 1.386 . S
C1304 C1306 1.391 . S
C1305 C1304 1.386 . S
C1305 C1309 1.393 . S
C1306 H1295 0.950 . S
C1306 C1304 1.391 . S
C1306 C1307 1.400 . S
C1307 C1301 1.491 . S
C1307 C1306 1.400 . S
C1307 C1308 1.398 . S
C1308 H1296 0.950 . S
C1308 C1307 1.398 . S
C1308 C1309 1.391 . S
C1309 H1297 0.950 . S
C1309 C1305 1.393 . S
C1309 C1308 1.391 . S
H1310 C1318 0.950 . S
H1311 C1323 0.950 . S
H1312 C1320 0.950 . S
H1313 C1322 0.950 . S
H1314 C1324 0.950 . S
H1315 C1326 0.950 . S
H1316 C1328 0.950 . S
H1317 C1329 0.950 . S
C1318 H1310 0.950 . S
C1318 C1319 1.386 . S
C1318 C1320 1.391 . S
C1319 C1318 1.386 . S
C1319 C1323 1.393 . S
C1320 H1312 0.950 . S
C1320 C1318 1.391 . S
C1320 C1321 1.400 . S
C1321 C1320 1.400 . S
C1321 C1322 1.398 . S
C1321 C1327 1.491 . S
C1322 H1313 0.950 . S
C1322 C1321 1.398 . S
C1322 C1323 1.391 . S
C1323 H1311 0.950 . S
C1323 C1319 1.393 . S
C1323 C1322 1.391 . S
C1324 H1314 0.950 . S
C1324 C1325 1.386 . S
C1324 C1326 1.391 . S
C1325 C1324 1.386 . S
C1325 C1329 1.393 . S
C1326 H1315 0.950 . S
C1326 C1324 1.391 . S
C1326 C1327 1.400 . S
C1327 C1321 1.491 . S
C1327 C1326 1.400 . S
C1327 C1328 1.398 . S
C1328 H1316 0.950 . S
C1328 C1327 1.398 . S
C1328 C1329 1.391 . S
C1329 H1317 0.950 . S
C1329 C1325 1.393 . S
C1329 C1328 1.391 . S
H1330 C1338 0.950 . S
H1331 C1343 0.950 . S
H1332 C1340 0.950 . S
H1333 C1342 0.950 . S
H1334 C1344 0.950 . S
H1335 C1346 0.950 . S
H1336 C1348 0.950 . S
H1337 C1349 0.950 . S
C1338 H1330 0.950 . S
C1338 C1339 1.386 . S
C1338 C1340 1.391 . S
C1339 C1338 1.386 . S
C1339 C1343 1.393 . S
C1340 H1332 0.950 . S
C1340 C1338 1.391 . S
C1340 C1341 1.400 . S
C1341 C1340 1.400 . S
C1341 C1342 1.398 . S
C1341 C1347 1.491 . S
C1342 H1333 0.950 . S
C1342 C1341 1.398 . S
C1342 C1343 1.391 . S
C1343 H1331 0.950 . S
C1343 C1339 1.393 . S
C1343 C1342 1.391 . S
C1344 H1334 0.950 . S
C1344 C1345 1.386 . S
C1344 C1346 1.391 . S
C1345 C1344 1.386 . S
C1345 C1349 1.393 . S
C1346 H1335 0.950 . S
C1346 C1344 1.391 . S
C1346 C1347 1.400 . S
C1347 C1341 1.491 . S
C1347 C1346 1.400 . S
C1347 C1348 1.398 . S
C1348 H1336 0.950 . S
C1348 C1347 1.398 . S
C1348 C1349 1.391 . S
C1349 H1337 0.950 . S
C1349 C1345 1.393 . S
C1349 C1348 1.391 . S
H1350 C1358 0.950 . S
H1351 C1363 0.950 . S
H1352 C1360 0.950 . S
H1353 C1362 0.950 . S
H1354 C1364 0.950 . S
H1355 C1366 0.950 . S
H1356 C1368 0.950 . S
H1357 C1369 0.950 . S
C1358 H1350 0.950 . S
C1358 C1359 1.386 . S
C1358 C1360 1.391 . S
C1359 C1358 1.386 . S
C1359 C1363 1.393 . S
C1360 H1352 0.950 . S
C1360 C1358 1.391 . S
C1360 C1361 1.400 . S
C1361 C1360 1.400 . S
C1361 C1362 1.398 . S
C1361 C1367 1.491 . S
C1362 H1353 0.950 . S
C1362 C1361 1.398 . S
C1362 C1363 1.391 . S
C1363 H1351 0.950 . S
C1363 C1359 1.393 . S
C1363 C1362 1.391 . S
C1364 H1354 0.950 . S
C1364 C1365 1.386 . S
C1364 C1366 1.391 . S
C1365 C1364 1.386 . S
C1365 C1369 1.393 . S
C1366 H1355 0.950 . S
C1366 C1364 1.391 . S
C1366 C1367 1.400 . S
C1367 C1361 1.491 . S
C1367 C1366 1.400 . S
C1367 C1368 1.398 . S
C1368 H1356 0.950 . S
C1368 C1367 1.398 . S
C1368 C1369 1.391 . S
C1369 H1357 0.950 . S
C1369 C1365 1.393 . S
C1369 C1368 1.391 . S
H1370 C1378 0.950 . S
H1371 C1383 0.950 . S
H1372 C1380 0.950 . S
H1373 C1382 0.950 . S
H1374 C1384 0.950 . S
H1375 C1386 0.950 . S
H1376 C1388 0.950 . S
H1377 C1389 0.950 . S
C1378 H1370 0.950 . S
C1378 C1379 1.386 . S
C1378 C1380 1.391 . S
C1379 C1378 1.386 . S
C1379 C1383 1.393 . S
C1380 H1372 0.950 . S
C1380 C1378 1.391 . S
C1380 C1381 1.400 . S
C1381 C1380 1.400 . S
C1381 C1382 1.398 . S
C1381 C1387 1.491 . S
C1382 H1373 0.950 . S
C1382 C1381 1.398 . S
C1382 C1383 1.391 . S
C1383 H1371 0.950 . S
C1383 C1379 1.393 . S
C1383 C1382 1.391 . S
C1384 H1374 0.950 . S
C1384 C1385 1.386 . S
C1384 C1386 1.391 . S
C1385 C1384 1.386 . S
C1385 C1389 1.393 . S
C1386 H1375 0.950 . S
C1386 C1384 1.391 . S
C1386 C1387 1.400 . S
C1387 C1381 1.491 . S
C1387 C1386 1.400 . S
C1387 C1388 1.398 . S
C1388 H1376 0.950 . S
C1388 C1387 1.398 . S
C1388 C1389 1.391 . S
C1389 H1377 0.950 . S
C1389 C1385 1.393 . S
C1389 C1388 1.391 . S
H1390 C1398 0.950 . S
H1391 C1403 0.950 . S
H1392 C1400 0.950 . S
H1393 C1402 0.950 . S
H1394 C1404 0.950 . S
H1395 C1406 0.950 . S
H1396 C1408 0.950 . S
H1397 C1409 0.950 . S
C1398 H1390 0.950 . S
C1398 C1399 1.386 . S
C1398 C1400 1.391 . S
C1399 C1398 1.386 . S
C1399 C1403 1.393 . S
C1400 H1392 0.950 . S
C1400 C1398 1.391 . S
C1400 C1401 1.400 . S
C1401 C1400 1.400 . S
C1401 C1402 1.398 . S
C1401 C1407 1.491 . S
C1402 H1393 0.950 . S
C1402 C1401 1.398 . S
C1402 C1403 1.391 . S
C1403 H1391 0.950 . S
C1403 C1399 1.393 . S
C1403 C1402 1.391 . S
C1404 H1394 0.950 . S
C1404 C1405 1.386 . S
C1404 C1406 1.391 . S
C1405 C1404 1.386 . S
C1405 C1409 1.393 . S
C1406 H1395 0.950 . S
C1406 C1404 1.391 . S
C1406 C1407 1.400 . S
C1407 C1401 1.491 . S
C1407 C1406 1.400 . S
C1407 C1408 1.398 . S
C1408 H1396 0.950 . S
C1408 C1407 1.398 . S
C1408 C1409 1.391 . S
C1409 H1397 0.950 . S
C1409 C1405 1.393 . S
C1409 C1408 1.391 . S
H1410 C1418 0.950 . S
H1411 C1423 0.950 . S
H1412 C1420 0.950 . S
H1413 C1422 0.950 . S
H1414 C1424 0.950 . S
H1415 C1426 0.950 . S
H1416 C1428 0.950 . S
H1417 C1429 0.950 . S
C1418 H1410 0.950 . S
C1418 C1419 1.386 . S
C1418 C1420 1.391 1_545 S
C1419 C1418 1.386 . S
C1419 C1423 1.393 . S
C1420 H1412 0.950 . S
C1420 C1418 1.391 1_565 S
C1420 C1421 1.400 . S
C1421 C1420 1.400 . S
C1421 C1422 1.398 . S
C1421 C1427 1.491 . S
C1422 H1413 0.950 . S
C1422 C1421 1.398 . S
C1422 C1423 1.391 1_565 S
C1423 H1411 0.950 . S
C1423 C1419 1.393 . S
C1423 C1422 1.391 1_545 S
C1424 H1414 0.950 . S
C1424 C1425 1.386 . S
C1424 C1426 1.391 . S
C1425 C1424 1.386 . S
C1425 C1429 1.393 . S
C1426 H1415 0.950 . S
C1426 C1424 1.391 . S
C1426 C1427 1.400 . S
C1427 C1421 1.491 . S
C1427 C1426 1.400 . S
C1427 C1428 1.398 . S
C1428 H1416 0.950 . S
C1428 C1427 1.398 . S
C1428 C1429 1.391 . S
C1429 H1417 0.950 . S
C1429 C1425 1.393 . S
C1429 C1428 1.391 . S
H1430 C1438 0.950 . S
H1431 C1443 0.950 1_655 S
H1432 C1440 0.950 . S
H1433 C1442 0.950 . S
H1434 C1444 0.950 . S
H1435 C1446 0.950 . S
H1436 C1448 0.950 . S
H1437 C1449 0.950 . S
C1438 H1430 0.950 . S
C1438 C1439 1.386 1_455 S
C1438 C1440 1.391 . S
C1439 C1438 1.386 1_655 S
C1439 C1443 1.393 1_655 S
C1440 H1432 0.950 . S
C1440 C1438 1.391 . S
C1440 C1441 1.400 . S
C1441 C1440 1.400 . S
C1441 C1442 1.398 . S
C1441 C1447 1.491 . S
C1442 H1433 0.950 . S
C1442 C1441 1.398 . S
C1442 C1443 1.391 . S
C1443 H1431 0.950 1_455 S
C1443 C1439 1.393 1_455 S
C1443 C1442 1.391 . S
C1444 H1434 0.950 . S
C1444 C1445 1.386 . S
C1444 C1446 1.391 . S
C1445 C1444 1.386 . S
C1445 C1449 1.393 . S
C1446 H1435 0.950 . S
C1446 C1444 1.391 . S
C1446 C1447 1.400 . S
C1447 C1441 1.491 . S
C1447 C1446 1.400 . S
C1447 C1448 1.398 . S
C1448 H1436 0.950 . S
C1448 C1447 1.398 . S
C1448 C1449 1.391 . S
C1449 H1437 0.950 . S
C1449 C1445 1.393 . S
C1449 C1448 1.391 . S
H1450 C1458 0.950 . S
H1451 C1463 0.950 . S
H1452 C1460 0.950 . S
H1453 C1462 0.950 . S
H1454 C1464 0.950 . S
H1455 C1466 0.950 . S
H1456 C1468 0.950 . S
H1457 C1469 0.950 . S
C1458 H1450 0.950 . S
C1458 C1459 1.386 . S
C1458 C1460 1.391 . S
C1459 C1458 1.386 . S
C1459 C1463 1.393 . S
C1460 H1452 0.950 . S
C1460 C1458 1.391 . S
C1460 C1461 1.400 . S
C1461 C1460 1.400 . S
C1461 C1462 1.398 . S
C1461 C1467 1.491 . S
C1462 H1453 0.950 . S
C1462 C1461 1.398 . S
C1462 C1463 1.391 . S
C1463 H1451 0.950 . S
C1463 C1459 1.393 . S
C1463 C1462 1.391 . S
C1464 H1454 0.950 . S
C1464 C1465 1.386 . S
C1464 C1466 1.391 . S
C1465 C1464 1.386 . S
C1465 C1469 1.393 . S
C1466 H1455 0.950 . S
C1466 C1464 1.391 . S
C1466 C1467 1.400 . S
C1467 C1461 1.491 . S
C1467 C1466 1.400 . S
C1467 C1468 1.398 . S
C1468 H1456 0.950 . S
C1468 C1467 1.398 . S
C1468 C1469 1.391 . S
C1469 H1457 0.950 . S
C1469 C1465 1.393 . S
C1469 C1468 1.391 . S
H1470 C1478 0.950 . S
H1471 C1483 0.950 . S
H1472 C1480 0.950 . S
H1473 C1482 0.950 . S
H1474 C1484 0.950 . S
H1475 C1486 0.950 . S
H1476 C1488 0.950 . S
H1477 C1489 0.950 . S
C1478 H1470 0.950 . S
C1478 C1479 1.386 . S
C1478 C1480 1.391 . S
C1479 C1478 1.386 . S
C1479 C1483 1.393 . S
C1480 H1472 0.950 . S
C1480 C1478 1.391 . S
C1480 C1481 1.400 . S
C1481 C1480 1.400 . S
C1481 C1482 1.398 . S
C1481 C1487 1.491 . S
C1482 H1473 0.950 . S
C1482 C1481 1.398 . S
C1482 C1483 1.391 . S
C1483 H1471 0.950 . S
C1483 C1479 1.393 . S
C1483 C1482 1.391 . S
C1484 H1474 0.950 . S
C1484 C1485 1.386 . S
C1484 C1486 1.391 . S
C1485 C1484 1.386 . S
C1485 C1489 1.393 . S
C1486 H1475 0.950 . S
C1486 C1484 1.391 . S
C1486 C1487 1.400 . S
C1487 C1481 1.491 . S
C1487 C1486 1.400 . S
C1487 C1488 1.398 . S
C1488 H1476 0.950 . S
C1488 C1487 1.398 . S
C1488 C1489 1.391 . S
C1489 H1477 0.950 . S
C1489 C1485 1.393 . S
C1489 C1488 1.391 . S
H1490 C1498 0.950 . S
H1491 C1503 0.950 . S
H1492 C1500 0.950 . S
H1493 C1502 0.950 . S
H1494 C1504 0.950 . S
H1495 C1506 0.950 . S
H1496 C1508 0.950 . S
H1497 C1509 0.950 . S
C1498 H1490 0.950 . S
C1498 C1499 1.386 . S
C1498 C1500 1.391 . S
C1499 C1498 1.386 . S
C1499 C1503 1.393 . S
C1500 H1492 0.950 . S
C1500 C1498 1.391 . S
C1500 C1501 1.400 . S
C1501 C1500 1.400 . S
C1501 C1502 1.398 . S
C1501 C1507 1.491 . S
C1502 H1493 0.950 . S
C1502 C1501 1.398 . S
C1502 C1503 1.391 . S
C1503 H1491 0.950 . S
C1503 C1499 1.393 . S
C1503 C1502 1.391 . S
C1504 H1494 0.950 . S
C1504 C1505 1.386 . S
C1504 C1506 1.391 . S
C1505 C1504 1.386 . S
C1505 C1509 1.393 . S
C1506 H1495 0.950 . S
C1506 C1504 1.391 . S
C1506 C1507 1.400 . S
C1507 C1501 1.491 . S
C1507 C1506 1.400 . S
C1507 C1508 1.398 . S
C1508 H1496 0.950 . S
C1508 C1507 1.398 . S
C1508 C1509 1.391 . S
C1509 H1497 0.950 . S
C1509 C1505 1.393 . S
C1509 C1508 1.391 . S
H1510 C1518 0.950 . S
H1511 C1523 0.950 . S
H1512 C1520 0.950 . S
H1513 C1522 0.950 . S
H1514 C1524 0.950 . S
H1515 C1526 0.950 . S
H1516 C1528 0.950 . S
H1517 C1529 0.950 . S
C1518 H1510 0.950 . S
C1518 C1519 1.386 . S
C1518 C1520 1.391 . S
C1519 C1518 1.386 . S
C1519 C1523 1.393 . S
C1520 H1512 0.950 . S
C1520 C1518 1.391 . S
C1520 C1521 1.400 . S
C1521 C1520 1.400 . S
C1521 C1522 1.398 . S
C1521 C1527 1.491 . S
C1522 H1513 0.950 . S
C1522 C1521 1.398 . S
C1522 C1523 1.391 . S
C1523 H1511 0.950 . S
C1523 C1519 1.393 . S
C1523 C1522 1.391 . S
C1524 H1514 0.950 . S
C1524 C1525 1.386 . S
C1524 C1526 1.391 . S
C1525 C1524 1.386 . S
C1525 C1529 1.393 . S
C1526 H1515 0.950 . S
C1526 C1524 1.391 . S
C1526 C1527 1.400 . S
C1527 C1521 1.491 . S
C1527 C1526 1.400 . S
C1527 C1528 1.398 . S
C1528 H1516 0.950 . S
C1528 C1527 1.398 . S
C1528 C1529 1.391 . S
C1529 H1517 0.950 . S
C1529 C1525 1.393 . S
C1529 C1528 1.391 . S
H1530 C1538 0.950 . S
H1531 C1543 0.950 . S
H1532 C1540 0.950 . S
H1533 C1542 0.950 . S
H1534 C1544 0.950 . S
H1535 C1546 0.950 . S
H1536 C1548 0.950 . S
H1537 C1549 0.950 . S
C1538 H1530 0.950 . S
C1538 C1539 1.386 . S
C1538 C1540 1.391 . S
C1539 C1538 1.386 . S
C1539 C1543 1.393 . S
C1540 H1532 0.950 . S
C1540 C1538 1.391 . S
C1540 C1541 1.400 . S
C1541 C1540 1.400 . S
C1541 C1542 1.398 . S
C1541 C1547 1.491 1_565 S
C1542 H1533 0.950 . S
C1542 C1541 1.398 . S
C1542 C1543 1.391 . S
C1543 H1531 0.950 . S
C1543 C1539 1.393 . S
C1543 C1542 1.391 . S
C1544 H1534 0.950 . S
C1544 C1545 1.386 . S
C1544 C1546 1.391 . S
C1545 C1544 1.386 . S
C1545 C1549 1.393 . S
C1546 H1535 0.950 . S
C1546 C1544 1.391 . S
C1546 C1547 1.400 . S
C1547 C1541 1.491 1_545 S
C1547 C1546 1.400 . S
C1547 C1548 1.398 . S
C1548 H1536 0.950 . S
C1548 C1547 1.398 . S
C1548 C1549 1.391 . S
C1549 H1537 0.950 . S
C1549 C1545 1.393 . S
C1549 C1548 1.391 . S
H1550 C1558 0.950 . S
H1551 C1563 0.950 . S
H1552 C1560 0.950 . S
H1553 C1562 0.950 1_655 S
H1554 C1564 0.950 . S
H1555 C1566 0.950 . S
H1556 C1568 0.950 1_455 S
H1557 C1569 0.950 . S
C1558 H1550 0.950 . S
C1558 C1559 1.386 . S
C1558 C1560 1.391 . S
C1559 C1558 1.386 . S
C1559 C1563 1.393 . S
C1560 H1552 0.950 . S
C1560 C1558 1.391 . S
C1560 C1561 1.400 . S
C1561 C1560 1.400 . S
C1561 C1562 1.398 . S
C1561 C1567 1.491 1_455 S
C1562 H1553 0.950 1_455 S
C1562 C1561 1.398 . S
C1562 C1563 1.391 . S
C1563 H1551 0.950 . S
C1563 C1559 1.393 . S
C1563 C1562 1.391 . S
C1564 H1554 0.950 . S
C1564 C1565 1.386 . S
C1564 C1566 1.391 . S
C1565 C1564 1.386 . S
C1565 C1569 1.393 . S
C1566 H1555 0.950 . S
C1566 C1564 1.391 . S
C1566 C1567 1.400 . S
C1567 C1561 1.491 1_655 S
C1567 C1566 1.400 . S
C1567 C1568 1.398 . S
C1568 H1556 0.950 1_655 S
C1568 C1567 1.398 . S
C1568 C1569 1.391 . S
C1569 H1557 0.950 . S
C1569 C1565 1.393 . S
C1569 C1568 1.391 . S
H1570 C1578 0.950 . S
H1571 C1583 0.950 . S
H1572 C1580 0.950 . S
H1573 C1582 0.950 . S
H1574 C1584 0.950 . S
H1575 C1586 0.950 . S
H1576 C1588 0.950 . S
H1577 C1589 0.950 . S
C1578 H1570 0.950 . S
C1578 C1579 1.386 . S
C1578 C1580 1.391 . S
C1579 C1578 1.386 . S
C1579 C1583 1.393 . S
C1580 H1572 0.950 . S
C1580 C1578 1.391 . S
C1580 C1581 1.400 . S
C1581 C1580 1.400 . S
C1581 C1582 1.398 . S
C1581 C1587 1.491 . S
C1582 H1573 0.950 . S
C1582 C1581 1.398 . S
C1582 C1583 1.391 . S
C1583 H1571 0.950 . S
C1583 C1579 1.393 . S
C1583 C1582 1.391 . S
C1584 H1574 0.950 . S
C1584 C1585 1.386 . S
C1584 C1586 1.391 . S
C1585 C1584 1.386 . S
C1585 C1589 1.393 . S
C1586 H1575 0.950 . S
C1586 C1584 1.391 . S
C1586 C1587 1.400 . S
C1587 C1581 1.491 . S
C1587 C1586 1.400 . S
C1587 C1588 1.398 . S
C1588 H1576 0.950 . S
C1588 C1587 1.398 . S
C1588 C1589 1.391 . S
C1589 H1577 0.950 . S
C1589 C1585 1.393 . S
C1589 C1588 1.391 . S
H1590 C1598 0.950 . S
H1591 C1603 0.950 . S
H1592 C1600 0.950 . S
H1593 C1602 0.950 . S
H1594 C1604 0.950 . S
H1595 C1606 0.950 . S
H1596 C1608 0.950 . S
H1597 C1609 0.950 . S
C1598 H1590 0.950 . S
C1598 C1599 1.386 1_655 S
C1598 C1600 1.391 . S
C1599 C1598 1.386 1_455 S
C1599 C1603 1.393 . S
C1600 H1592 0.950 . S
C1600 C1598 1.391 . S
C1600 C1601 1.400 . S
C1601 C1600 1.400 . S
C1601 C1602 1.398 . S
C1601 C1607 1.491 . S
C1602 H1593 0.950 . S
C1602 C1601 1.398 . S
C1602 C1603 1.391 1_655 S
C1603 H1591 0.950 . S
C1603 C1599 1.393 . S
C1603 C1602 1.391 1_455 S
C1604 H1594 0.950 . S
C1604 C1605 1.386 . S
C1604 C1606 1.391 . S
C1605 C1604 1.386 . S
C1605 C1609 1.393 . S
C1606 H1595 0.950 . S
C1606 C1604 1.391 . S
C1606 C1607 1.400 . S
C1607 C1601 1.491 . S
C1607 C1606 1.400 . S
C1607 C1608 1.398 . S
C1608 H1596 0.950 . S
C1608 C1607 1.398 . S
C1608 C1609 1.391 . S
C1609 H1597 0.950 . S
C1609 C1605 1.393 . S
C1609 C1608 1.391 . S
H1610 C1618 0.950 . S
H1611 C1623 0.950 . S
H1612 C1620 0.950 . S
H1613 C1622 0.950 . S
H1614 C1624 0.950 . S
H1615 C1626 0.950 . S
H1616 C1628 0.950 . S
H1617 C1629 0.950 . S
C1618 H1610 0.950 . S
C1618 C1619 1.386 . S
C1618 C1620 1.391 . S
C1619 C1618 1.386 . S
C1619 C1623 1.393 . S
C1620 H1612 0.950 . S
C1620 C1618 1.391 . S
C1620 C1621 1.400 . S
C1621 C1620 1.400 . S
C1621 C1622 1.398 . S
C1621 C1627 1.491 . S
C1622 H1613 0.950 . S
C1622 C1621 1.398 . S
C1622 C1623 1.391 . S
C1623 H1611 0.950 . S
C1623 C1619 1.393 . S
C1623 C1622 1.391 . S
C1624 H1614 0.950 . S
C1624 C1625 1.386 . S
C1624 C1626 1.391 . S
C1625 C1624 1.386 . S
C1625 C1629 1.393 . S
C1626 H1615 0.950 . S
C1626 C1624 1.391 . S
C1626 C1627 1.400 . S
C1627 C1621 1.491 . S
C1627 C1626 1.400 . S
C1627 C1628 1.398 . S
C1628 H1616 0.950 . S
C1628 C1627 1.398 . S
C1628 C1629 1.391 . S
C1629 H1617 0.950 . S
C1629 C1625 1.393 . S
C1629 C1628 1.391 . S
H1630 C1638 0.950 . S
H1631 C1643 0.950 . S
H1632 C1640 0.950 . S
H1633 C1642 0.950 . S
H1634 C1644 0.950 . S
H1635 C1646 0.950 . S
H1636 C1648 0.950 . S
H1637 C1649 0.950 . S
C1638 H1630 0.950 . S
C1638 C1639 1.386 . S
C1638 C1640 1.391 1_565 S
C1639 C1638 1.386 . S
C1639 C1643 1.393 1_565 S
C1640 H1632 0.950 . S
C1640 C1638 1.391 1_545 S
C1640 C1641 1.400 . S
C1641 C1640 1.400 . S
C1641 C1642 1.398 . S
C1641 C1647 1.491 . S
C1642 H1633 0.950 . S
C1642 C1641 1.398 . S
C1642 C1643 1.391 . S
C1643 H1631 0.950 . S
C1643 C1639 1.393 1_545 S
C1643 C1642 1.391 . S
C1644 H1634 0.950 . S
C1644 C1645 1.386 . S
C1644 C1646 1.391 . S
C1645 C1644 1.386 . S
C1645 C1649 1.393 . S
C1646 H1635 0.950 . S
C1646 C1644 1.391 . S
C1646 C1647 1.400 . S
C1647 C1641 1.491 . S
C1647 C1646 1.400 . S
C1647 C1648 1.398 . S
C1648 H1636 0.950 . S
C1648 C1647 1.398 . S
C1648 C1649 1.391 . S
C1649 H1637 0.950 . S
C1649 C1645 1.393 . S
C1649 C1648 1.391 . S
H1650 C1658 0.950 . S
H1651 C1663 0.950 . S
H1652 C1660 0.950 . S
H1653 C1662 0.950 . S
H1654 C1664 0.950 . S
H1655 C1666 0.950 . S
H1656 C1668 0.950 . S
H1657 C1669 0.950 . S
C1658 H1650 0.950 . S
C1658 C1659 1.386 . S
C1658 C1660 1.391 . S
C1659 C1658 1.386 . S
C1659 C1663 1.393 . S
C1660 H1652 0.950 . S
C1660 C1658 1.391 . S
C1660 C1661 1.400 . S
C1661 C1660 1.400 . S
C1661 C1662 1.398 . S
C1661 C1667 1.491 . S
C1662 H1653 0.950 . S
C1662 C1661 1.398 . S
C1662 C1663 1.391 . S
C1663 H1651 0.950 . S
C1663 C1659 1.393 . S
C1663 C1662 1.391 . S
C1664 H1654 0.950 . S
C1664 C1665 1.386 . S
C1664 C1666 1.391 . S
C1665 C1664 1.386 . S
C1665 C1669 1.393 . S
C1666 H1655 0.950 . S
C1666 C1664 1.391 . S
C1666 C1667 1.400 . S
C1667 C1661 1.491 . S
C1667 C1666 1.400 . S
C1667 C1668 1.398 . S
C1668 H1656 0.950 . S
C1668 C1667 1.398 . S
C1668 C1669 1.391 . S
C1669 H1657 0.950 . S
C1669 C1665 1.393 . S
C1669 C1668 1.391 . S
H1670 C1678 0.950 . S
H1671 C1683 0.950 . S
H1672 C1680 0.950 . S
H1673 C1682 0.950 . S
H1674 C1684 0.950 . S
H1675 C1686 0.950 . S
H1676 C1688 0.950 . S
H1677 C1689 0.950 . S
C1678 H1670 0.950 . S
C1678 C1679 1.386 . S
C1678 C1680 1.391 . S
C1679 C1678 1.386 . S
C1679 C1683 1.393 . S
C1680 H1672 0.950 . S
C1680 C1678 1.391 . S
C1680 C1681 1.400 . S
C1681 C1680 1.400 . S
C1681 C1682 1.398 . S
C1681 C1687 1.491 . S
C1682 H1673 0.950 . S
C1682 C1681 1.398 . S
C1682 C1683 1.391 . S
C1683 H1671 0.950 . S
C1683 C1679 1.393 . S
C1683 C1682 1.391 . S
C1684 H1674 0.950 . S
C1684 C1685 1.386 . S
C1684 C1686 1.391 . S
C1685 C1684 1.386 . S
C1685 C1689 1.393 . S
C1686 H1675 0.950 . S
C1686 C1684 1.391 . S
C1686 C1687 1.400 . S
C1687 C1681 1.491 . S
C1687 C1686 1.400 . S
C1687 C1688 1.398 . S
C1688 H1676 0.950 . S
C1688 C1687 1.398 . S
C1688 C1689 1.391 . S
C1689 H1677 0.950 . S
C1689 C1685 1.393 . S
C1689 C1688 1.391 . S
H1690 C1698 0.950 . S
H1691 C1703 0.950 . S
H1692 C1700 0.950 . S
H1693 C1702 0.950 . S
H1694 C1704 0.950 . S
H1695 C1706 0.950 . S
H1696 C1708 0.950 . S
H1697 C1709 0.950 . S
C1698 H1690 0.950 . S
C1698 C1699 1.386 . S
C1698 C1700 1.391 . S
C1699 C1698 1.386 . S
C1699 C1703 1.393 . S
C1700 H1692 0.950 . S
C1700 C1698 1.391 . S
C1700 C1701 1.400 . S
C1701 C1700 1.400 . S
C1701 C1702 1.398 . S
C1701 C1707 1.491 . S
C1702 H1693 0.950 . S
C1702 C1701 1.398 . S
C1702 C1703 1.391 . S
C1703 H1691 0.950 . S
C1703 C1699 1.393 . S
C1703 C1702 1.391 . S
C1704 H1694 0.950 . S
C1704 C1705 1.386 . S
C1704 C1706 1.391 . S
C1705 C1704 1.386 . S
C1705 C1709 1.393 . S
C1706 H1695 0.950 . S
C1706 C1704 1.391 . S
C1706 C1707 1.400 . S
C1707 C1701 1.491 . S
C1707 C1706 1.400 . S
C1707 C1708 1.398 . S
C1708 H1696 0.950 . S
C1708 C1707 1.398 . S
C1708 C1709 1.391 . S
C1709 H1697 0.950 . S
C1709 C1705 1.393 . S
C1709 C1708 1.391 . S
H1710 C1718 0.950 . S
H1711 C1723 0.950 . S
H1712 C1720 0.950 . S
H1713 C1722 0.950 . S
H1714 C1724 0.950 . S
H1715 C1726 0.950 . S
H1716 C1728 0.950 . S
H1717 C1729 0.950 . S
C1718 H1710 0.950 . S
C1718 C1719 1.386 . S
C1718 C1720 1.391 . S
C1719 C1718 1.386 . S
C1719 C1723 1.393 . S
C1720 H1712 0.950 . S
C1720 C1718 1.391 . S
C1720 C1721 1.400 . S
C1721 C1720 1.400 . S
C1721 C1722 1.398 . S
C1721 C1727 1.491 . S
C1722 H1713 0.950 . S
C1722 C1721 1.398 . S
C1722 C1723 1.391 . S
C1723 H1711 0.950 . S
C1723 C1719 1.393 . S
C1723 C1722 1.391 . S
C1724 H1714 0.950 . S
C1724 C1725 1.386 . S
C1724 C1726 1.391 . S
C1725 C1724 1.386 . S
C1725 C1729 1.393 . S
C1726 H1715 0.950 . S
C1726 C1724 1.391 . S
C1726 C1727 1.400 . S
C1727 C1721 1.491 . S
C1727 C1726 1.400 . S
C1727 C1728 1.398 . S
C1728 H1716 0.950 . S
C1728 C1727 1.398 . S
C1728 C1729 1.391 . S
C1729 H1717 0.950 . S
C1729 C1725 1.393 . S
C1729 C1728 1.391 . S
H1730 C1738 0.950 . S
H1731 C1743 0.950 . S
H1732 C1740 0.950 . S
H1733 C1742 0.950 . S
H1734 C1744 0.950 . S
H1735 C1746 0.950 . S
H1736 C1748 0.950 . S
H1737 C1749 0.950 . S
C1738 H1730 0.950 . S
C1738 C1739 1.386 . S
C1738 C1740 1.391 . S
C1739 C1738 1.386 . S
C1739 C1743 1.393 . S
C1740 H1732 0.950 . S
C1740 C1738 1.391 . S
C1740 C1741 1.400 . S
C1741 C1740 1.400 . S
C1741 C1742 1.398 . S
C1741 C1747 1.491 . S
C1742 H1733 0.950 . S
C1742 C1741 1.398 . S
C1742 C1743 1.391 . S
C1743 H1731 0.950 . S
C1743 C1739 1.393 . S
C1743 C1742 1.391 . S
C1744 H1734 0.950 . S
C1744 C1745 1.386 . S
C1744 C1746 1.391 . S
C1745 C1744 1.386 . S
C1745 C1749 1.393 . S
C1746 H1735 0.950 . S
C1746 C1744 1.391 . S
C1746 C1747 1.400 . S
C1747 C1741 1.491 . S
C1747 C1746 1.400 . S
C1747 C1748 1.398 . S
C1748 H1736 0.950 . S
C1748 C1747 1.398 . S
C1748 C1749 1.391 . S
C1749 H1737 0.950 . S
C1749 C1745 1.393 . S
C1749 C1748 1.391 . S
H1750 C1758 0.950 . S
H1751 C1763 0.950 . S
H1752 C1760 0.950 . S
H1753 C1762 0.950 . S
H1754 C1764 0.950 . S
H1755 C1766 0.950 . S
H1756 C1768 0.950 . S
H1757 C1769 0.950 . S
C1758 H1750 0.950 . S
C1758 C1759 1.386 . S
C1758 C1760 1.391 . S
C1759 C1758 1.386 . S
C1759 C1763 1.393 . S
C1760 H1752 0.950 . S
C1760 C1758 1.391 . S
C1760 C1761 1.400 . S
C1761 C1760 1.400 . S
C1761 C1762 1.398 . S
C1761 C1767 1.491 . S
C1762 H1753 0.950 . S
C1762 C1761 1.398 . S
C1762 C1763 1.391 . S
C1763 H1751 0.950 . S
C1763 C1759 1.393 . S
C1763 C1762 1.391 . S
C1764 H1754 0.950 . S
C1764 C1765 1.386 . S
C1764 C1766 1.391 . S
C1765 C1764 1.386 . S
C1765 C1769 1.393 . S
C1766 H1755 0.950 . S
C1766 C1764 1.391 . S
C1766 C1767 1.400 . S
C1767 C1761 1.491 . S
C1767 C1766 1.400 . S
C1767 C1768 1.398 . S
C1768 H1756 0.950 . S
C1768 C1767 1.398 . S
C1768 C1769 1.391 . S
C1769 H1757 0.950 . S
C1769 C1765 1.393 . S
C1769 C1768 1.391 . S
H1770 C1778 0.950 . S
H1771 C1783 0.950 . S
H1772 C1780 0.950 . S
H1773 C1782 0.950 . S
H1774 C1784 0.950 . S
H1775 C1786 0.950 . S
H1776 C1788 0.950 . S
H1777 C1789 0.950 . S
C1778 H1770 0.950 . S
C1778 C1779 1.386 . S
C1778 C1780 1.391 . S
C1779 C1778 1.386 . S
C1779 C1783 1.393 . S
C1780 H1772 0.950 . S
C1780 C1778 1.391 . S
C1780 C1781 1.400 . S
C1781 C1780 1.400 . S
C1781 C1782 1.398 . S
C1781 C1787 1.491 . S
C1782 H1773 0.950 . S
C1782 C1781 1.398 . S
C1782 C1783 1.391 . S
C1783 H1771 0.950 . S
C1783 C1779 1.393 . S
C1783 C1782 1.391 . S
C1784 H1774 0.950 . S
C1784 C1785 1.386 . S
C1784 C1786 1.391 . S
C1785 C1784 1.386 . S
C1785 C1789 1.393 . S
C1786 H1775 0.950 . S
C1786 C1784 1.391 . S
C1786 C1787 1.400 . S
C1787 C1781 1.491 . S
C1787 C1786 1.400 . S
C1787 C1788 1.398 . S
C1788 H1776 0.950 . S
C1788 C1787 1.398 . S
C1788 C1789 1.391 . S
C1789 H1777 0.950 . S
C1789 C1785 1.393 . S
C1789 C1788 1.391 . S
H1790 C1798 0.950 . S
H1791 C1803 0.950 . S
H1792 C1800 0.950 . S
H1793 C1802 0.950 . S
H1794 C1804 0.950 . S
H1795 C1806 0.950 . S
H1796 C1808 0.950 . S
H1797 C1809 0.950 . S
C1798 H1790 0.950 . S
C1798 C1799 1.386 . S
C1798 C1800 1.391 . S
C1799 C1798 1.386 . S
C1799 C1803 1.393 . S
C1800 H1792 0.950 . S
C1800 C1798 1.391 . S
C1800 C1801 1.400 . S
C1801 C1800 1.400 . S
C1801 C1802 1.398 . S
C1801 C1807 1.491 . S
C1802 H1793 0.950 . S
C1802 C1801 1.398 . S
C1802 C1803 1.391 . S
C1803 H1791 0.950 . S
C1803 C1799 1.393 . S
C1803 C1802 1.391 . S
C1804 H1794 0.950 . S
C1804 C1805 1.386 . S
C1804 C1806 1.391 . S
C1805 C1804 1.386 . S
C1805 C1809 1.393 . S
C1806 H1795 0.950 . S
C1806 C1804 1.391 . S
C1806 C1807 1.400 . S
C1807 C1801 1.491 . S
C1807 C1806 1.400 . S
C1807 C1808 1.398 . S
C1808 H1796 0.950 . S
C1808 C1807 1.398 . S
C1808 C1809 1.391 . S
C1809 H1797 0.950 . S
C1809 C1805 1.393 . S
C1809 C1808 1.391 . S
H1810 C1818 0.950 . S
H1811 C1823 0.950 . S
H1812 C1820 0.950 . S
H1813 C1822 0.950 . S
H1814 C1824 0.950 . S
H1815 C1826 0.950 . S
H1816 C1828 0.950 . S
H1817 C1829 0.950 . S
C1818 H1810 0.950 . S
C1818 C1819 1.386 . S
C1818 C1820 1.391 . S
C1819 C1818 1.386 . S
C1819 C1823 1.393 . S
C1820 H1812 0.950 . S
C1820 C1818 1.391 . S
C1820 C1821 1.400 . S
C1821 C1820 1.400 . S
C1821 C1822 1.398 . S
C1821 C1827 1.491 . S
C1822 H1813 0.950 . S
C1822 C1821 1.398 . S
C1822 C1823 1.391 . S
C1823 H1811 0.950 . S
C1823 C1819 1.393 . S
C1823 C1822 1.391 . S
C1824 H1814 0.950 . S
C1824 C1825 1.386 . S
C1824 C1826 1.391 . S
C1825 C1824 1.386 . S
C1825 C1829 1.393 . S
C1826 H1815 0.950 . S
C1826 C1824 1.391 . S
C1826 C1827 1.400 . S
C1827 C1821 1.491 . S
C1827 C1826 1.400 . S
C1827 C1828 1.398 . S
C1828 H1816 0.950 . S
C1828 C1827 1.398 . S
C1828 C1829 1.391 . S
C1829 H1817 0.950 . S
C1829 C1825 1.393 . S
C1829 C1828 1.391 . S
H1830 C1838 0.950 . S
H1831 C1843 0.950 . S
H1832 C1840 0.950 . S
H1833 C1842 0.950 . S
H1834 C1844 0.950 . S
H1835 C1846 0.950 . S
H1836 C1848 0.950 . S
H1837 C1849 0.950 . S
C1838 H1830 0.950 . S
C1838 C1839 1.386 . S
C1838 C1840 1.391 . S
C1839 C1838 1.386 . S
C1839 C1843 1.393 . S
C1840 H1832 0.950 . S
C1840 C1838 1.391 . S
C1840 C1841 1.400 . S
C1841 C1840 1.400 . S
C1841 C1842 1.398 . S
C1841 C1847 1.491 . S
C1842 H1833 0.950 . S
C1842 C1841 1.398 . S
C1842 C1843 1.391 . S
C1843 H1831 0.950 . S
C1843 C1839 1.393 . S
C1843 C1842 1.391 . S
C1844 H1834 0.950 . S
C1844 C1845 1.386 . S
C1844 C1846 1.391 . S
C1845 C1844 1.386 . S
C1845 C1849 1.393 . S
C1846 H1835 0.950 . S
C1846 C1844 1.391 . S
C1846 C1847 1.400 . S
C1847 C1841 1.491 . S
C1847 C1846 1.400 . S
C1847 C1848 1.398 . S
C1848 H1836 0.950 . S
C1848 C1847 1.398 . S
C1848 C1849 1.391 . S
C1849 H1837 0.950 . S
C1849 C1845 1.393 . S
C1849 C1848 1.391 . S
H1850 C1858 0.950 . S
H1851 C1863 0.950 . S
H1852 C1860 0.950 . S
H1853 C1862 0.950 . S
H1854 C1864 0.950 . S
H1855 C1866 0.950 . S
H1856 C1868 0.950 . S
H1857 C1869 0.950 . S
C1858 H1850 0.950 . S
C1858 C1859 1.386 . S
C1858 C1860 1.391 . S
C1859 C1858 1.386 . S
C1859 C1863 1.393 . S
C1860 H1852 0.950 . S
C1860 C1858 1.391 . S
C1860 C1861 1.400 . S
C1861 C1860 1.400 . S
C1861 C1862 1.398 . S
C1861 C1867 1.491 . S
C1862 H1853 0.950 . S
C1862 C1861 1.398 . S
C1862 C1863 1.391 . S
C1863 H1851 0.950 . S
C1863 C1859 1.393 . S
C1863 C1862 1.391 . S
C1864 H1854 0.950 . S
C1864 C1865 1.386 . S
C1864 C1866 1.391 . S
C1865 C1864 1.386 . S
C1865 C1869 1.393 . S
C1866 H1855 0.950 . S
C1866 C1864 1.391 . S
C1866 C1867 1.400 . S
C1867 C1861 1.491 . S
C1867 C1866 1.400 . S
C1867 C1868 1.398 . S
C1868 H1856 0.950 . S
C1868 C1867 1.398 . S
C1868 C1869 1.391 . S
C1869 H1857 0.950 . S
C1869 C1865 1.393 . S
C1869 C1868 1.391 . S
H1870 C1878 0.950 . S
H1871 C1883 0.950 . S
H1872 C1880 0.950 . S
H1873 C1882 0.950 . S
H1874 C1884 0.950 . S
H1875 C1886 0.950 . S
H1876 C1888 0.950 . S
H1877 C1889 0.950 . S
C1878 H1870 0.950 . S
C1878 C1879 1.386 . S
C1878 C1880 1.391 . S
C1879 C1878 1.386 . S
C1879 C1883 1.393 . S
C1880 H1872 0.950 . S
C1880 C1878 1.391 . S
C1880 C1881 1.400 . S
C1881 C1880 1.400 . S
C1881 C1882 1.398 . S
C1881 C1887 1.491 . S
C1882 H1873 0.950 . S
C1882 C1881 1.398 . S
C1882 C1883 1.391 . S
C1883 H1871 0.950 . S
C1883 C1879 1.393 . S
C1883 C1882 1.391 . S
C1884 H1874 0.950 . S
C1884 C1885 1.386 . S
C1884 C1886 1.391 . S
C1885 C1884 1.386 . S
C1885 C1889 1.393 . S
C1886 H1875 0.950 . S
C1886 C1884 1.391 . S
C1886 C1887 1.400 . S
C1887 C1881 1.491 . S
C1887 C1886 1.400 . S
C1887 C1888 1.398 . S
C1888 H1876 0.950 . S
C1888 C1887 1.398 . S
C1888 C1889 1.391 . S
C1889 H1877 0.950 . S
C1889 C1885 1.393 . S
C1889 C1888 1.391 . S
H1890 C1898 0.950 . S
H1891 C1903 0.950 . S
H1892 C1900 0.950 . S
H1893 C1902 0.950 . S
H1894 C1904 0.950 . S
H1895 C1906 0.950 . S
H1896 C1908 0.950 . S
H1897 C1909 0.950 . S
C1898 H1890 0.950 . S
C1898 C1899 1.386 . S
C1898 C1900 1.391 . S
C1899 C1898 1.386 . S
C1899 C1903 1.393 . S
C1900 H1892 0.950 . S
C1900 C1898 1.391 . S
C1900 C1901 1.400 . S
C1901 C1900 1.400 . S
C1901 C1902 1.398 . S
C1901 C1907 1.491 . S
C1902 H1893 0.950 . S
C1902 C1901 1.398 . S
C1902 C1903 1.391 . S
C1903 H1891 0.950 . S
C1903 C1899 1.393 . S
C1903 C1902 1.391 . S
C1904 H1894 0.950 . S
C1904 C1905 1.386 . S
C1904 C1906 1.391 . S
C1905 C1904 1.386 . S
C1905 C1909 1.393 . S
C1906 H1895 0.950 . S
C1906 C1904 1.391 . S
C1906 C1907 1.400 . S
C1907 C1901 1.491 . S
C1907 C1906 1.400 . S
C1907 C1908 1.398 . S
C1908 H1896 0.950 . S
C1908 C1907 1.398 . S
C1908 C1909 1.391 . S
C1909 H1897 0.950 . S
C1909 C1905 1.393 . S
C1909 C1908 1.391 . S
H1910 C1918 0.950 . S
H1911 C1923 0.950 . S
H1912 C1920 0.950 . S
H1913 C1922 0.950 . S
H1914 C1924 0.950 . S
H1915 C1926 0.950 . S
H1916 C1928 0.950 . S
H1917 C1929 0.950 . S
C1918 H1910 0.950 . S
C1918 C1919 1.386 . S
C1918 C1920 1.391 . S
C1919 C1918 1.386 . S
C1919 C1923 1.393 . S
C1920 H1912 0.950 . S
C1920 C1918 1.391 . S
C1920 C1921 1.400 . S
C1921 C1920 1.400 . S
C1921 C1922 1.398 . S
C1921 C1927 1.491 . S
C1922 H1913 0.950 . S
C1922 C1921 1.398 . S
C1922 C1923 1.391 . S
C1923 H1911 0.950 . S
C1923 C1919 1.393 . S
C1923 C1922 1.391 . S
C1924 H1914 0.950 . S
C1924 C1925 1.386 . S
C1924 C1926 1.391 . S
C1925 C1924 1.386 . S
C1925 C1929 1.393 . S
C1926 H1915 0.950 . S
C1926 C1924 1.391 . S
C1926 C1927 1.400 . S
C1927 C1921 1.491 . S
C1927 C1926 1.400 . S
C1927 C1928 1.398 . S
C1928 H1916 0.950 . S
C1928 C1927 1.398 . S
C1928 C1929 1.391 . S
C1929 H1917 0.950 . S
C1929 C1925 1.393 . S
C1929 C1928 1.391 . S
H1930 C1938 0.950 . S
H1931 C1943 0.950 . S
H1932 C1940 0.950 . S
H1933 C1942 0.950 . S
H1934 C1944 0.950 . S
H1935 C1946 0.950 . S
H1936 C1948 0.950 . S
H1937 C1949 0.950 . S
C1938 H1930 0.950 . S
C1938 C1939 1.386 . S
C1938 C1940 1.391 . S
C1939 C1938 1.386 . S
C1939 C1943 1.393 . S
C1940 H1932 0.950 . S
C1940 C1938 1.391 . S
C1940 C1941 1.400 . S
C1941 C1940 1.400 . S
C1941 C1942 1.398 . S
C1941 C1947 1.491 . S
C1942 H1933 0.950 . S
C1942 C1941 1.398 . S
C1942 C1943 1.391 . S
C1943 H1931 0.950 . S
C1943 C1939 1.393 . S
C1943 C1942 1.391 . S
C1944 H1934 0.950 . S
C1944 C1945 1.386 . S
C1944 C1946 1.391 . S
C1945 C1944 1.386 . S
C1945 C1949 1.393 . S
C1946 H1935 0.950 . S
C1946 C1944 1.391 . S
C1946 C1947 1.400 . S
C1947 C1941 1.491 . S
C1947 C1946 1.400 . S
C1947 C1948 1.398 . S
C1948 H1936 0.950 . S
C1948 C1947 1.398 . S
C1948 C1949 1.391 . S
C1949 H1937 0.950 . S
C1949 C1945 1.393 . S
C1949 C1948 1.391 . S
H1950 C1958 0.950 . S
H1951 C1963 0.950 . S
H1952 C1960 0.950 . S
H1953 C1962 0.950 . S
H1954 C1964 0.950 . S
H1955 C1966 0.950 . S
H1956 C1968 0.950 . S
H1957 C1969 0.950 . S
C1958 H1950 0.950 . S
C1958 C1959 1.386 . S
C1958 C1960 1.391 . S
C1959 C1958 1.386 . S
C1959 C1963 1.393 . S
C1960 H1952 0.950 . S
C1960 C1958 1.391 . S
C1960 C1961 1.400 . S
C1961 C1960 1.400 . S
C1961 C1962 1.398 . S
C1961 C1967 1.491 . S
C1962 H1953 0.950 . S
C1962 C1961 1.398 . S
C1962 C1963 1.391 . S
C1963 H1951 0.950 . S
C1963 C1959 1.393 . S
C1963 C1962 1.391 . S
C1964 H1954 0.950 . S
C1964 C1965 1.386 . S
C1964 C1966 1.391 . S
C1965 C1964 1.386 . S
C1965 C1969 1.393 . S
C1966 H1955 0.950 . S
C1966 C1964 1.391 . S
C1966 C1967 1.400 . S
C1967 C1961 1.491 . S
C1967 C1966 1.400 . S
C1967 C1968 1.398 . S
C1968 H1956 0.950 . S
C1968 C1967 1.398 . S
C1968 C1969 1.391 . S
C1969 H1957 0.950 . S
C1969 C1965 1.393 . S
C1969 C1968 1.391 . S
H1970 C1978 0.950 . S
H1971 C1983 0.950 . S
H1972 C1980 0.950 . S
H1973 C1982 0.950 . S
H1974 C1984 0.950 . S
H1975 C1986 0.950 . S
H1976 C1988 0.950 . S
H1977 C1989 0.950 . S
C1978 H1970 0.950 . S
C1978 C1979 1.386 . S
C1978 C1980 1.391 . S
C1979 C1978 1.386 . S
C1979 C1983 1.393 . S
C1980 H1972 0.950 . S
C1980 C1978 1.391 . S
C1980 C1981 1.400 . S
C1981 C1980 1.400 . S
C1981 C1982 1.398 . S
C1981 C1987 1.491 . S
C1982 H1973 0.950 . S
C1982 C1981 1.398 . S
C1982 C1983 1.391 . S
C1983 H1971 0.950 . S
C1983 C1979 1.393 . S
C1983 C1982 1.391 . S
C1984 H1974 0.950 . S
C1984 C1985 1.386 . S
C1984 C1986 1.391 . S
C1985 C1984 1.386 . S
C1985 C1989 1.393 . S
C1986 H1975 0.950 . S
C1986 C1984 1.391 . S
C1986 C1987 1.400 . S
C1987 C1981 1.491 . S
C1987 C1986 1.400 . S
C1987 C1988 1.398 . S
C1988 H1976 0.950 . S
C1988 C1987 1.398 . S
C1988 C1989 1.391 . S
C1989 H1977 0.950 . S
C1989 C1985 1.393 . S
C1989 C1988 1.391 . S
H1990 C1998 0.950 . S
H1991 C2003 0.950 . S
H1992 C2000 0.950 . S
H1993 C2002 0.950 . S
H1994 C2004 0.950 . S
H1995 C2006 0.950 . S
H1996 C2008 0.950 . S
H1997 C2009 0.950 . S
C1998 H1990 0.950 . S
C1998 C1999 1.386 . S
C1998 C2000 1.391 . S
C1999 C1998 1.386 . S
C1999 C2003 1.393 . S
C2000 H1992 0.950 . S
C2000 C1998 1.391 . S
C2000 C2001 1.400 . S
C2001 C2000 1.400 . S
C2001 C2002 1.398 . S
C2001 C2007 1.491 . S
C2002 H1993 0.950 . S
C2002 C2001 1.398 . S
C2002 C2003 1.391 . S
C2003 H1991 0.950 . S
C2003 C1999 1.393 . S
C2003 C2002 1.391 . S
C2004 H1994 0.950 . S
C2004 C2005 1.386 . S
C2004 C2006 1.391 . S
C2005 C2004 1.386 . S
C2005 C2009 1.393 . S
C2006 H1995 0.950 . S
C2006 C2004 1.391 . S
C2006 C2007 1.400 . S
C2007 C2001 1.491 . S
C2007 C2006 1.400 . S
C2007 C2008 1.398 . S
C2008 H1996 0.950 . S
C2008 C2007 1.398 . S
C2008 C2009 1.391 . S
C2009 H1997 0.950 . S
C2009 C2005 1.393 . S
C2009 C2008 1.391 . S
H2010 C2018 0.950 . S
H2011 C2023 0.950 . S
H2012 C2020 0.950 . S
H2013 C2022 0.950 . S
H2014 C2024 0.950 . S
H2015 C2026 0.950 . S
H2016 C2028 0.950 . S
H2017 C2029 0.950 . S
C2018 H2010 0.950 . S
C2018 C2019 1.386 . S
C2018 C2020 1.391 . S
C2019 C2018 1.386 . S
C2019 C2023 1.393 . S
C2020 H2012 0.950 . S
C2020 C2018 1.391 . S
C2020 C2021 1.400 . S
C2021 C2020 1.400 . S
C2021 C2022 1.398 . S
C2021 C2027 1.491 . S
C2022 H2013 0.950 . S
C2022 C2021 1.398 . S
C2022 C2023 1.391 . S
C2023 H2011 0.950 . S
C2023 C2019 1.393 . S
C2023 C2022 1.391 . S
C2024 H2014 0.950 . S
C2024 C2025 1.386 . S
C2024 C2026 1.391 . S
C2025 C2024 1.386 . S
C2025 C2029 1.393 . S
C2026 H2015 0.950 . S
C2026 C2024 1.391 . S
C2026 C2027 1.400 . S
C2027 C2021 1.491 . S
C2027 C2026 1.400 . S
C2027 C2028 1.398 . S
C2028 H2016 0.950 . S
C2028 C2027 1.398 . S
C2028 C2029 1.391 . S
C2029 H2017 0.950 . S
C2029 C2025 1.393 . S
C2029 C2028 1.391 . S
H2030 C2038 0.950 . S
H2031 C2043 0.950 . S
H2032 C2040 0.950 . S
H2033 C2042 0.950 . S
H2034 C2044 0.950 . S
H2035 C2046 0.950 . S
H2036 C2048 0.950 . S
H2037 C2049 0.950 . S
C2038 H2030 0.950 . S
C2038 C2039 1.386 . S
C2038 C2040 1.391 . S
C2039 C2038 1.386 . S
C2039 C2043 1.393 . S
C2040 H2032 0.950 . S
C2040 C2038 1.391 . S
C2040 C2041 1.400 . S
C2041 C2040 1.400 . S
C2041 C2042 1.398 . S
C2041 C2047 1.491 . S
C2042 H2033 0.950 . S
C2042 C2041 1.398 . S
C2042 C2043 1.391 . S
C2043 H2031 0.950 . S
C2043 C2039 1.393 . S
C2043 C2042 1.391 . S
C2044 H2034 0.950 . S
C2044 C2045 1.386 . S
C2044 C2046 1.391 . S
C2045 C2044 1.386 . S
C2045 C2049 1.393 . S
C2046 H2035 0.950 . S
C2046 C2044 1.391 . S
C2046 C2047 1.400 . S
C2047 C2041 1.491 . S
C2047 C2046 1.400 . S
C2047 C2048 1.398 . S
C2048 H2036 0.950 . S
C2048 C2047 1.398 . S
C2048 C2049 1.391 . S
C2049 H2037 0.950 . S
C2049 C2045 1.393 . S
C2049 C2048 1.391 . S
H2050 C2058 0.950 . S
H2051 C2063 0.950 . S
H2052 C2060 0.950 . S
H2053 C2062 0.950 . S
H2054 C2064 0.950 . S
H2055 C2066 0.950 . S
H2056 C2068 0.950 . S
H2057 C2069 0.950 . S
C2058 H2050 0.950 . S
C2058 C2059 1.386 . S
C2058 C2060 1.391 . S
C2059 C2058 1.386 . S
C2059 C2063 1.393 . S
C2060 H2052 0.950 . S
C2060 C2058 1.391 . S
C2060 C2061 1.400 . S
C2061 C2060 1.400 . S
C2061 C2062 1.398 . S
C2061 C2067 1.491 . S
C2062 H2053 0.950 . S
C2062 C2061 1.398 . S
C2062 C2063 1.391 . S
C2063 H2051 0.950 . S
C2063 C2059 1.393 . S
C2063 C2062 1.391 . S
C2064 H2054 0.950 . S
C2064 C2065 1.386 . S
C2064 C2066 1.391 . S
C2065 C2064 1.386 . S
C2065 C2069 1.393 . S
C2066 H2055 0.950 . S
C2066 C2064 1.391 . S
C2066 C2067 1.400 . S
C2067 C2061 1.491 . S
C2067 C2066 1.400 . S
C2067 C2068 1.398 . S
C2068 H2056 0.950 . S
C2068 C2067 1.398 . S
C2068 C2069 1.391 . S
C2069 H2057 0.950 . S
C2069 C2065 1.393 . S
C2069 C2068 1.391 . S
C999 C177 1.457 . S
C1005 C301 1.380 . S
C1019 C190 1.478 . S
C1025 C385 1.422 . S
C1039 C164 1.451 . S
C1045 C465 1.448 . S
C1059 C151 1.426 . S
C1065 C381 1.419 1_556 S
C1085 C469 1.363 . S
C1079 C125 1.441 . S
C1099 C138 1.402 . S
C1105 C297 1.402 1_556 S
C1125 C290 1.429 . S
C1119 C147 1.464 . S
C1145 C374 1.459 . S
C1139 C121 1.476 . S
C1159 C134 1.455 . S
C1165 C476 1.478 1_556 S
C1179 C173 1.438 . S
C1185 C392 1.442 . S
C1199 C186 1.416 . S
C1205 C458 1.420 . S
C1225 C308 1.424 . S
C1219 C160 1.435 . S
C1245 C553 1.380 . S
C1239 C21 1.457 . S
C1259 C34 1.483 . S
C1265 C637 1.412 . S
C1279 C8 1.451 . S
C1285 C717 1.437 . S
C1299 C229 1.429 . S
C1305 C633 1.418 . S
C1319 C203 1.434 . S
C1325 C721 1.382 . S
C1339 C216 1.409 . S
C1345 C549 1.406 . S
C1359 C225 1.462 . S
C1365 C542 1.430 . S
C1379 C199 1.469 . S
C1385 C626 1.466 . S
C1405 C728 1.477 . S
C1399 C212 1.482 . S
C1419 C17 1.425 . S
C1425 C644 1.450 . S
C1445 C710 1.419 . S
C1439 C30 1.416 . S
C1459 C4 1.408 . S
C1465 C560 1.442 . S
C1485 C805 1.402 . S
C1479 C99 1.450 . S
C1499 C112 1.483 . S
C1505 C889 1.412 . S
C1525 C969 1.442 . S
C1519 C86 1.443 . S
C1545 C885 1.430 . S
C1539 C73 1.428 . S
C1565 C973 1.391 . S
C1559 C47 1.434 . S
C1579 C60 1.402 . S
C1585 C801 1.397 . S
C1599 C69 1.436 . S
C1605 C794 1.458 . S
C1619 C43 1.475 . S
C1625 C878 1.464 . S
C1645 C980 1.477 . S
C1639 C56 1.482 . S
C1659 C95 1.451 . S
C1665 C896 1.453 . S
C1679 C108 1.437 . S
C1685 C962 1.400 . S
C1699 C82 1.407 . S
C1705 C812 1.436 . S
C1719 C204 1.565 . S
C1725 C304 1.427 . S
C1745 C388 1.486 . S
C1739 C217 1.615 . S
C1759 C230 1.559 . S
C1765 C460 1.371 . S
C1779 C87 1.590 . S
C1785 C376 1.415 . S
C1799 C100 1.573 . S
C1805 C472 1.450 . S
C1825 C292 1.347 . S
C1819 C113 1.522 . S
C1839 C48 1.565 . S
C1845 C556 1.429 . S
C1859 C61 1.619 . S
C1865 C640 1.490 . S
C1879 C74 1.559 . S
C1885 C712 1.369 . S
C1899 C165 1.590 . S
C1905 C628 1.376 . S
C1925 C724 1.434 . S
C1919 C178 1.585 . S
C1939 C191 1.525 . S
C1945 C544 1.339 . S
C1959 C126 1.565 . S
C1965 C808 1.430 . S
C1979 C139 1.624 . S
C1985 C892 1.457 . S
C2005 C964 1.365 . S
C1999 C152 1.560 . S
C2019 C9 1.583 . S
C2025 C880 1.385 . S
C2039 C22 1.580 . S
C2045 C976 1.457 . S
C2059 C35 1.523 . S
C2065 C796 1.366 . S
