# Generated by pormake.
# Topology rtl, (3,6)-cn, num edge types: 1
# Building blocks:
#     Node 0, Type 0, BuildingBlock: ESEHIV_clean_linker_0, # of connection points: 3
#     Node 1, Type 0, BuildingBlock: ESEHIV_clean_linker_0, # of connection points: 3
#     Node 2, Type 0, BuildingBlock: ESEHIV_clean_linker_0, # of connection points: 3
#     Node 3, Type 0, BuildingBlock: ESEHIV_clean_linker_0, # of connection points: 3
#     Node 4, Type 1, BuildingBlock: KUMJIN_clean_sbu_1, # of connection points: 6
#     Node 5, Type 1, BuildingBlock: KUMJIN_clean_sbu_1, # of connection points: 6
#     Edge 6, Type (0, 1), BuildingBlock: XUDNAN_clean_linker_2, # of connection points: 2
#     Edge 7, Type (0, 1), BuildingBlock: XUDNAN_clean_linker_2, # of connection points: 2
#     Edge 8, Type (0, 1), BuildingBlock: XUDNAN_clean_linker_2, # of connection points: 2
#     Edge 9, Type (0, 1), BuildingBlock: XUDNAN_clean_linker_2, # of connection points: 2
#     Edge 10, Type (0, 1), BuildingBlock: XUDNAN_clean_linker_2, # of connection points: 2
#     Edge 11, Type (0, 1), BuildingBlock: XUDNAN_clean_linker_2, # of connection points: 2
#     Edge 12, Type (0, 1), BuildingBlock: XUDNAN_clean_linker_2, # of connection points: 2
#     Edge 13, Type (0, 1), BuildingBlock: XUDNAN_clean_linker_2, # of connection points: 2
#     Edge 14, Type (0, 1), BuildingBlock: XUDNAN_clean_linker_2, # of connection points: 2
#     Edge 15, Type (0, 1), BuildingBlock: XUDNAN_clean_linker_2, # of connection points: 2
#     Edge 16, Type (0, 1), BuildingBlock: XUDNAN_clean_linker_2, # of connection points: 2
#     Edge 17, Type (0, 1), BuildingBlock: XUDNAN_clean_linker_2, # of connection points: 2
# Relax obj value: 0.018
# Max RMSD: 0.117
# Mean RMSD: 0.069
data_MOF--net-rtl--node1-KUMJIN_clean_sbu_1--node2-ESEHIV_clean_linker_0--edge1-XUDNAN_clean_linker_2
_symmetry_space_group_name_H-M    P1
_symmetry_Int_Tables_number       1
_symmetry_cell_setting            triclinic
loop_
_symmetry_equiv_pos_as_xyz
'x, y, z'
_cell_length_a     30.639594
_cell_length_b     31.47738
_cell_length_c     27.817815
_cell_angle_alpha  76.953568
_cell_angle_beta   99.034203
_cell_angle_gamma 91.314577
loop_
_atom_site_label
_atom_site_type_symbol
_atom_site_fract_x
_atom_site_fract_y
_atom_site_fract_z
_atom_type_partial_charge
H0 H 0.15694 0.88223 1.00113 0.0
H1 H 0.24915 0.79023 0.10286 0.0
H2 H 0.25217 0.81695 0.94456 0.0
C3 C 0.18454 0.85955 0.0082 0.0
C4 C 0.20291 0.85215 0.96778 0.0
C5 C 0.20064 0.83704 0.05718 0.0
C6 C 0.23605 0.80735 0.06515 0.0
C7 C 0.25492 0.7998 0.02479 0.0
C8 C 0.23765 0.82195 0.97602 0.0
H9 H 0.63762 0.63489 0.66113 0.0
H10 H 0.702 0.72135 0.55301 0.0
H11 H 0.72264 0.73536 0.70541 0.0
C12 C 0.66047 0.66134 0.65267 0.0
C13 C 0.67983 0.68259 0.69012 0.0
C14 C 0.66809 0.67574 0.60335 0.0
C15 C 0.69591 0.71106 0.59126 0.0
C16 C 0.7157 0.73315 0.62755 0.0
C17 C 0.70781 0.71841 0.6772 0.0
H18 H 0.87953 0.14226 0.07628 0.0
H19 H 0.78769 0.18668 0.15654 0.0
H20 H 0.75647 0.20333 0.99706 0.0
C21 C 0.84828 0.15774 0.07624 0.0
C22 C 0.81918 0.17185 0.03115 0.0
C23 C 0.83635 0.16216 0.12157 0.0
C24 C 0.79585 0.18189 0.12157 0.0
C25 C 0.767 0.19737 0.07684 0.0
C26 C 0.77869 0.19178 0.03178 0.0
H27 H 0.36526 0.39077 0.44437 0.0
H28 H 0.30773 0.29137 0.54742 0.0
H29 H 0.29267 0.28659 0.39208 0.0
C30 C 0.34589 0.3614 0.45162 0.0
C31 C 0.3296 0.34102 0.41241 0.0
C32 C 0.33819 0.34325 0.50037 0.0
C33 C 0.31389 0.30489 0.50966 0.0
C34 C 0.29726 0.28396 0.47117 0.0
C35 C 0.30481 0.30256 0.42217 0.0
Eu36 Eu 0.03773 0.96306 0.5126 0.0
C37 C 0.92168 0.11746 0.5033 0.0
N38 N 0.96379 0.11191 0.52791 0.0
C39 C 0.98222 0.18358 0.48574 0.0
C40 C 0.90868 0.15582 0.46692 0.0
C41 C 0.99364 0.1448 0.52127 0.0
C42 C 0.93974 0.18889 0.45793 0.0
C43 C 0.84733 0.08977 0.49112 0.0
C44 C 0.89166 0.08462 0.51495 0.0
C45 C 0.83455 0.12709 0.45326 0.0
C46 C 0.86517 0.16004 0.44117 0.0
Eu47 Eu 0.98207 0.04349 0.58276 0.0
N48 N 0.90519 0.04882 0.5515 0.0
C49 C 0.81693 0.05792 0.50718 0.0
C50 C 0.87487 0.01992 0.57037 0.0
C51 C 0.83057 0.02339 0.54779 0.0
H52 H 0.02669 0.14029 0.54222 0.0
H53 H 0.80695 0.9996 0.56195 0.0
H54 H 0.96012 0.8853 0.50296 0.0
H55 H 0.2116 0.93887 0.59398 0.0
H56 H 0.88462 0.99409 0.60296 0.0
H57 H 0.78257 0.06063 0.48987 0.0
H58 H 0.146 0.97827 0.54004 0.0
H59 H 0.00625 0.20919 0.47955 0.0
H60 H 0.8008 0.13128 0.43399 0.0
H61 H 0.85464 0.18902 0.41259 0.0
H62 H 0.94648 0.81001 0.54617 0.0
H63 H 0.93105 0.21886 0.43023 0.0
H64 H 0.2037 0.86426 0.6443 0.0
N65 N 0.0229 0.88901 0.54723 0.0
C66 C 0.05629 0.86599 0.58006 0.0
C67 C 0.97732 0.82552 0.55658 0.0
C68 C 0.05077 0.82207 0.60396 0.0
C69 C 0.98485 0.86858 0.53287 0.0
C70 C 0.01013 0.80238 0.59298 0.0
N71 N 0.10186 0.92702 0.56173 0.0
C72 C 0.14259 0.9457 0.56211 0.0
C73 C 0.13359 0.86151 0.61762 0.0
C74 C 0.09718 0.88536 0.58695 0.0
C75 C 0.17495 0.88146 0.62096 0.0
C76 C 0.17958 0.92356 0.59256 0.0
H77 H 1.00447 0.7688 0.61073 0.0
H78 H 0.08274 0.76502 0.65515 0.0
H79 H 0.1554 0.79942 0.66659 0.0
O80 O 0.0693 0.98867 0.44723 0.0
O81 O 0.06875 0.97039 0.58977 0.0
O82 O 0.00797 0.97675 0.62524 0.0
O83 O 0.04526 0.9228 0.4596 0.0
O84 O 0.07012 0.02957 0.50868 0.0
O85 O 0.05476 0.05664 0.57632 0.0
O86 O 0.94669 0.06146 0.63791 0.0
O87 O 0.99099 0.06395 0.50106 0.0
O88 O 0.97544 0.00126 0.47465 0.0
O89 O 0.01694 0.07153 0.64272 0.0
O90 O 0.9579 0.97322 0.59234 0.0
O91 O 0.96377 0.9586 0.51614 0.0
C92 C 0.04921 0.96498 0.62914 0.0
C93 C 0.04592 0.96023 0.37612 0.0
C94 C 0.0513 0.94362 0.29584 0.0
C95 C 0.01758 0.97449 0.27287 0.0
C96 C 0.01187 0.99044 0.35286 0.0
C97 C 0.99792 0.99763 0.30138 0.0
C98 C 0.06524 0.93671 0.34762 0.0
C99 C 0.07824 0.05528 0.54059 0.0
C100 C 0.06293 0.95373 0.42963 0.0
C101 C 0.08645 0.79869 0.63625 0.0
C102 C 0.12785 0.81826 0.64272 0.0
C103 C 0.97403 0.0438 0.46635 0.0
C104 C 0.97592 0.11789 0.67644 0.0
C105 C 0.94606 0.15584 0.73188 0.0
C106 C 0.96765 0.1939 0.71129 0.0
C107 C 0.99691 0.15632 0.65589 0.0
C108 C 0.9503 0.11798 0.71406 0.0
C109 C 0.99266 0.19412 0.67328 0.0
C110 C 0.94514 0.95226 0.55668 0.0
C111 C 0.98148 0.07672 0.6612 0.0
H112 H 0.00621 0.98041 0.23302 0.0
H113 H 0.99651 0.00863 0.37439 0.0
H114 H 0.972 0.02136 0.28351 0.0
H115 H 0.0919 0.91373 0.36566 0.0
H116 H 0.96477 0.22356 0.72421 0.0
H117 H 0.01688 0.15704 0.62689 0.0
H118 H 0.93445 0.08818 0.73032 0.0
H119 H 0.009 0.22365 0.65744 0.0
Eu120 Eu 0.47604 0.48393 0.99796 0.0
C121 C 0.66033 0.51029 0.08187 0.0
N122 N 0.63286 0.482 0.10659 0.0
C123 C 0.68637 0.42432 0.12013 0.0
C124 C 0.70069 0.49591 0.07226 0.0
C125 C 0.64708 0.44045 0.12935 0.0
C126 C 0.71271 0.45189 0.09021 0.0
C127 C 0.67998 0.58532 0.04998 0.0
C128 C 0.65034 0.5544 0.07105 0.0
C129 C 0.71849 0.57096 0.03662 0.0
C130 C 0.72882 0.52628 0.04771 0.0
Eu131 Eu 0.56412 0.51163 0.11405 0.0
N132 N 0.61284 0.56719 0.08428 0.0
C133 C 0.67083 0.62967 0.04486 0.0
C134 C 0.60533 0.61008 0.08298 0.0
C135 C 0.63386 0.64205 0.0625 0.0
H136 H 0.62791 0.41939 0.15427 0.0
H137 H 0.62714 0.67616 0.05992 0.0
H138 H 0.37974 0.53223 0.99404 0.0
H139 H 0.5054 0.31153 1.00475 0.0
H140 H 0.57625 0.61947 0.09588 0.0
H141 H 0.69281 0.65447 0.02888 0.0
H142 H 0.51828 0.39077 0.98179 0.0
H143 H 0.6965 0.39079 0.13651 0.0
H144 H 0.74135 0.59417 0.01956 0.0
H145 H 0.7596 0.51575 0.03923 0.0
H146 H 0.30551 0.51265 0.01637 0.0
H147 H 0.7434 0.43949 0.0836 0.0
H148 H 0.43952 0.28415 0.04304 0.0
N149 N 0.40371 0.46697 0.01484 0.0
C150 C 0.39412 0.42428 0.03 0.0
C151 C 0.33021 0.48747 0.02071 0.0
C152 C 0.35251 0.41141 0.04338 0.0
C153 C 0.3721 0.49851 0.00807 0.0
C154 C 0.32062 0.44375 0.03934 0.0
N155 N 0.46335 0.40766 0.01216 0.0
C156 C 0.4905 0.37904 1.0004 0.0
C157 C 0.4155 0.34877 0.04123 0.0
C158 C 0.42523 0.39356 0.02916 0.0
C159 C 0.44568 0.31887 0.03418 0.0
C160 C 0.48287 0.33418 0.01257 0.0
H161 H 0.2882 0.43524 0.04918 0.0
H162 H 0.31212 0.35621 0.06971 0.0
H163 H 0.36732 0.30122 0.06768 0.0
O164 O 0.46282 0.46487 0.92657 0.0
O165 O 0.45235 0.48377 0.07205 0.0
O166 O 0.5128 0.45945 0.13189 0.0
O167 O 0.45224 0.53186 0.92863 0.0
O168 O 0.54363 0.45123 0.02364 0.0
O169 O 0.55433 0.44101 0.10854 0.0
O170 O 0.54573 0.53819 0.17461 0.0
O171 O 0.558 0.55469 0.03538 0.0
O172 O 0.54679 0.50234 0.99112 0.0
O173 O 0.60936 0.50739 0.18386 0.0
O174 O 0.50399 0.55621 0.08988 0.0
O175 O 0.46647 0.55226 0.01048 0.0
C176 C 0.46978 0.46444 0.11795 0.0
C177 C 0.41001 0.50413 0.86248 0.0
C178 C 0.37663 0.48192 0.78609 0.0
C179 C 0.33656 0.50155 0.78887 0.0
C180 C 0.36974 0.52331 0.86472 0.0
C181 C 0.33331 0.52218 0.82783 0.0
C182 C 0.41333 0.48408 0.82289 0.0
C183 C 0.55577 0.42638 0.06821 0.0
C184 C 0.44916 0.50325 0.90099 0.0
C185 C 0.34368 0.36682 0.05864 0.0
C186 C 0.37516 0.33551 0.05759 0.0
C187 C 0.56047 0.54123 0.99464 0.0
C188 C 0.57871 0.5053 0.25698 0.0
C189 C 0.57959 0.51361 0.34241 0.0
C190 C 0.57709 0.46802 0.35826 0.0
C191 C 0.57597 0.45994 0.27339 0.0
C192 C 0.58047 0.53188 0.29145 0.0
C193 C 0.57558 0.44149 0.32396 0.0
C194 C 0.4748 0.57078 0.04932 0.0
C195 C 0.58223 0.52566 0.20476 0.0
H196 H 0.30743 0.50011 0.76168 0.0
H197 H 0.36635 0.53889 0.89492 0.0
H198 H 0.30221 0.53685 0.82978 0.0
H199 H 0.44478 0.46994 0.82104 0.0
H200 H 0.57616 0.45283 0.3971 0.0
H201 H 0.57484 0.43889 0.24732 0.0
H202 H 0.58378 0.5668 0.27859 0.0
H203 H 0.57442 0.40644 0.3368 0.0
H204 H 0.21814 0.25908 0.42268 0.0
H205 H 0.32149 0.21499 0.5492 0.0
H206 H 0.27744 0.15082 0.57909 0.0
H207 H 0.12789 0.22884 0.48626 0.0
H208 H 0.09364 0.21003 0.43657 0.0
H209 H 0.13431 0.25122 0.42216 0.0
H210 H 0.16982 0.20356 0.37357 0.0
H211 H 0.12883 0.16246 0.38729 0.0
H212 H 0.18677 0.14831 0.40406 0.0
H213 H 0.21937 0.09621 0.60089 0.0
H214 H 0.15338 0.04942 0.60754 0.0
H215 H 0.08907 0.12502 0.46505 0.0
C216 C 0.23189 0.23532 0.45594 0.0
C217 C 0.2731 0.24232 0.48387 0.0
C218 C 0.28972 0.21069 0.5276 0.0
C219 C 0.26502 0.17403 0.54484 0.0
C220 C 0.22388 0.1689 0.51762 0.0
C221 C 0.20765 0.19814 0.47362 0.0
C222 C 0.16183 0.18518 0.45242 0.0
C223 C 0.1274 0.22095 0.44917 0.0
C224 C 0.16183 0.17422 0.4013 0.0
C225 C 0.15473 0.14472 0.49185 0.0
C226 C 0.19089 0.13611 0.52929 0.0
C227 C 0.19115 0.10213 0.57139 0.0
C228 C 0.15362 0.07594 0.57507 0.0
C229 C 0.1168 0.08364 0.53661 0.0
C230 C 0.11733 0.1183 0.49447 0.0
H231 H 0.26942 0.73748 0.97355 0.0
H232 H 0.32783 0.79497 0.09626 0.0
H233 H 0.39206 0.74515 0.11244 0.0
H234 H 0.30317 0.6279 0.03151 0.0
H235 H 0.31456 0.61427 0.97513 0.0
H236 H 0.27367 0.65549 0.9717 0.0
H237 H 0.31489 0.71094 0.91114 0.0
H238 H 0.35591 0.66983 0.9144 0.0
H239 H 0.37255 0.72117 0.9295 0.0
H240 H 0.44814 0.68821 0.11747 0.0
H241 H 0.49268 0.62593 0.11271 0.0
H242 H 0.39974 0.60598 0.98483 0.0
C243 C 0.29598 0.73986 1.00346 0.0
C244 C 0.29359 0.76998 0.03382 0.0
C245 C 0.32869 0.77174 0.07303 0.0
C246 C 0.36546 0.74384 0.08224 0.0
C247 C 0.3667 0.71448 0.0518 0.0
C248 C 0.33299 0.71219 0.01321 0.0
C249 C 0.34211 0.67658 0.98721 0.0
C250 C 0.30625 0.64149 0.99167 0.0
C251 C 0.34664 0.69579 0.9323 0.0
C252 C 0.38601 0.65899 0.01762 0.0
C253 C 0.39953 0.68151 0.05451 0.0
C254 C 0.43804 0.67041 0.0886 0.0
C255 C 0.46308 0.63482 0.08556 0.0
C256 C 0.4496 0.61056 0.04863 0.0
C257 C 0.41094 0.62355 0.0136 0.0
H258 H 0.79461 0.75813 0.6773 0.0
H259 H 0.69853 0.79742 0.54244 0.0
H260 H 0.74657 0.85734 0.51062 0.0
H261 H 0.82586 0.87013 0.68706 0.0
H262 H 0.88315 0.8556 0.70989 0.0
H263 H 0.84083 0.81587 0.72309 0.0
H264 H 0.88005 0.76305 0.68387 0.0
H265 H 0.92215 0.80283 0.67001 0.0
H266 H 0.8911 0.781 0.6207 0.0
H267 H 0.8076 0.90816 0.48904 0.0
H268 H 0.87443 0.95364 0.48436 0.0
H269 H 0.92837 0.88776 0.63568 0.0
C270 C 0.78333 0.7798 0.64151 0.0
C271 C 0.74304 0.7723 0.61201 0.0
C272 C 0.72971 0.80151 0.56524 0.0
C273 C 0.75667 0.83592 0.54686 0.0
C274 C 0.79666 0.84152 0.57599 0.0
C275 C 0.8097 0.81493 0.62272 0.0
C276 C 0.85445 0.82857 0.64621 0.0
C277 C 0.85084 0.84343 0.69443 0.0
C278 C 0.88896 0.79166 0.65576 0.0
C279 C 0.86446 0.86657 0.60516 0.0
C280 C 0.83088 0.873 0.56471 0.0
C281 C 0.83377 0.90401 0.5208 0.0
C282 C 0.87184 0.92945 0.51831 0.0
C283 C 0.90592 0.92441 0.55985 0.0
C284 C 0.90216 0.8927 0.60386 0.0
H285 H 0.73407 0.27299 0.01242 0.0
H286 H 0.70867 0.17742 0.14381 0.0
H287 H 0.64743 0.22349 0.15219 0.0
H288 H 0.71824 0.36389 0.05582 0.0
H289 H 0.69073 0.39725 0.99804 0.0
H290 H 0.72865 0.35482 0.99694 0.0
H291 H 0.66874 0.31893 0.9433 0.0
H292 H 0.63056 0.36199 0.94224 0.0
H293 H 0.61605 0.30584 0.96373 0.0
H294 H 0.59578 0.28396 0.15262 0.0
H295 H 0.55386 0.35281 0.14134 0.0
H296 H 0.61061 0.40711 0.00772 0.0
C297 C 0.7147 0.26102 0.04196 0.0
C298 C 0.72618 0.22162 0.07749 0.0
C299 C 0.70073 0.20772 0.11645 0.0
C300 C 0.66573 0.23352 0.12135 0.0
C301 C 0.65621 0.27283 0.0866 0.0
C302 C 0.6795 0.28624 0.0472 0.0
C303 C 0.66449 0.33116 0.01686 0.0
C304 C 0.70279 0.3637 0.01695 0.0
C305 C 0.64372 0.32935 0.96336 0.0
C306 C 0.63006 0.34139 0.04619 0.0
C307 C 0.62564 0.3073 0.0862 0.0
C308 C 0.59827 0.31053 0.12085 0.0
C309 C 0.57483 0.34967 0.11436 0.0
C310 C 0.57878 0.3847 0.07342 0.0
C311 C 0.60636 0.38031 0.03871 0.0
H312 H 0.17176 0.91474 0.07108 0.0
H313 H 0.18262 0.77616 0.13912 0.0
H314 H 0.14632 0.7884 0.20815 0.0
H315 H 0.19023 0.9532 0.18491 0.0
H316 H 0.15052 0.99729 0.1618 0.0
H317 H 0.17906 0.97773 0.119 0.0
H318 H 0.1039 0.96406 0.06777 0.0
H319 H 0.07512 0.98341 0.11051 0.0
H320 H 0.06382 0.92996 0.09859 0.0
H321 H 0.1077 0.81569 0.26902 0.0
H322 H 0.06965 0.85615 0.3173 0.0
H323 H 0.08179 0.97619 0.20754 0.0
C324 C 0.16632 0.88685 0.1003 0.0
C325 C 0.18014 0.84446 0.09964 0.0
C326 C 0.17297 0.80904 0.13913 0.0
C327 C 0.1521 0.81561 0.17833 0.0
C328 C 0.13847 0.85775 0.1774 0.0
C329 C 0.14531 0.89276 0.13942 0.0
C330 C 0.1269 0.93466 0.14673 0.0
C331 C 0.16389 0.96766 0.15353 0.0
C332 C 0.09026 0.95415 0.10332 0.0
C333 C 0.10837 0.91772 0.19466 0.0
C334 C 0.11558 0.87332 0.21191 0.0
C335 C 0.10188 0.85046 0.25589 0.0
C336 C 0.08043 0.87368 0.28307 0.0
C337 C 0.07271 0.9192 0.266 0.0
C338 C 0.08674 0.94132 0.22109 0.0
H339 H 0.66764 0.59925 0.74401 0.0
H340 H 0.6631 0.73526 0.75189 0.0
H341 H 0.63568 0.71349 0.83259 0.0
H342 H 0.56768 0.56972 0.78936 0.0
H343 H 0.58632 0.51613 0.82438 0.0
H344 H 0.61016 0.54168 0.76998 0.0
H345 H 0.68845 0.5324 0.82272 0.0
H346 H 0.6648 0.50646 0.87721 0.0
H347 H 0.69924 0.55351 0.87849 0.0
H348 H 0.60285 0.67747 0.90917 0.0
H349 H 0.56944 0.62974 0.97672 0.0
H350 H 0.59421 0.51729 0.91858 0.0
C351 C 0.66122 0.62453 0.76279 0.0
C352 C 0.66782 0.66908 0.7414 0.0
C353 C 0.65922 0.70091 0.76767 0.0
C354 C 0.64327 0.68887 0.81346 0.0
C355 C 0.63613 0.64484 0.83273 0.0
C356 C 0.64511 0.61311 0.80839 0.0
C357 C 0.6327 0.56826 0.8359 0.0
C358 C 0.5971 0.54776 0.80294 0.0
C359 C 0.67375 0.5384 0.85469 0.0
C360 C 0.61447 0.57981 0.87897 0.0
C361 C 0.61707 0.62411 0.87668 0.0
C362 C 0.60121 0.64268 0.91165 0.0
C363 C 0.58246 0.61526 0.95005 0.0
C364 C 0.5798 0.56974 0.9534 0.0
C365 C 0.59589 0.55196 0.91713 0.0
H366 H 0.81769 0.10337 0.2035 0.0
H367 H 0.92078 0.18794 0.14754 0.0
H368 H 0.96697 0.16869 0.23127 0.0
H369 H 0.83065 0.12587 0.32514 0.0
H370 H 0.82076 0.07069 0.35653 0.0
H371 H 0.79601 0.09102 0.29244 0.0
H372 H 0.83157 0.02708 0.26713 0.0
H373 H 0.85634 0.00638 0.33111 0.0
H374 H 0.89044 0.01803 0.28264 0.0
H375 H 0.99865 0.1447 0.32319 0.0
H376 H 0.01895 0.10826 0.41265 0.0
H377 H 0.89766 0.03495 0.40575 0.0
C378 C 0.85022 0.1174 0.20892 0.0
C379 C 0.86595 0.14706 0.16949 0.0
C380 C 0.90855 0.16488 0.17748 0.0
C381 C 0.93471 0.1544 0.22485 0.0
C382 C 0.91786 0.12565 0.26334 0.0
C383 C 0.87695 0.10673 0.25559 0.0
C384 C 0.86686 0.07603 0.30274 0.0
C385 C 0.82615 0.09187 0.32021 0.0
C386 C 0.86099 0.0291 0.29547 0.0
C387 C 0.90857 0.0804 0.3382 0.0
C388 C 0.93718 0.10994 0.31517 0.0
C389 C 0.97681 0.12106 0.34136 0.0
C390 C 0.98793 0.10055 0.39204 0.0
C391 C 0.95997 0.06872 0.41525 0.0
C392 C 0.9197 0.05886 0.38824 0.0
H393 H 0.31751 0.42241 0.51759 0.0
H394 H 0.39791 0.30573 0.5802 0.0
H395 H 0.42056 0.33131 0.65804 0.0
H396 H 0.3908 0.49816 0.5785 0.0
H397 H 0.3446 0.52737 0.5891 0.0
H398 H 0.3394 0.50277 0.53594 0.0
H399 H 0.27124 0.46025 0.56472 0.0
H400 H 0.27654 0.48421 0.61826 0.0
H401 H 0.27629 0.42573 0.62665 0.0
H402 H 0.42791 0.36487 0.73149 0.0
H403 H 0.4222 0.40574 0.79586 0.0
H404 H 0.33769 0.50219 0.68659 0.0
C405 C 0.34096 0.40311 0.54722 0.0
C406 C 0.35664 0.36248 0.54295 0.0
C407 C 0.38611 0.33719 0.58285 0.0
C408 C 0.39905 0.35143 0.62709 0.0
C409 C 0.38213 0.39103 0.63087 0.0
C410 C 0.35401 0.41678 0.59198 0.0
C411 C 0.33816 0.45637 0.60737 0.0
C412 C 0.35421 0.49868 0.57585 0.0
C413 C 0.28756 0.45662 0.60405 0.0
C414 C 0.36096 0.44824 0.66122 0.0
C415 C 0.38637 0.41053 0.67376 0.0
C416 C 0.40885 0.39495 0.72188 0.0
C417 C 0.40554 0.41862 0.7582 0.0
C418 C 0.38003 0.4577 0.74641 0.0
C419 C 0.35748 0.47254 0.69704 0.0
H420 H 0.67607 0.59211 0.59215 0.0
H421 H 0.60957 0.71592 0.52344 0.0
H422 H 0.57453 0.68568 0.45219 0.0
H423 H 0.70244 0.57173 0.48065 0.0
H424 H 0.69468 0.51361 0.49703 0.0
H425 H 0.71024 0.5431 0.54535 0.0
H426 H 0.64206 0.51306 0.58617 0.0
H427 H 0.6263 0.48339 0.53791 0.0
H428 H 0.58772 0.52095 0.54937 0.0
H429 H 0.55015 0.64366 0.38677 0.0
H430 H 0.54033 0.59377 0.32926 0.0
H431 H 0.62623 0.4983 0.438 0.0
C432 C 0.65337 0.61235 0.56249 0.0
C433 C 0.6449 0.65606 0.56318 0.0
C434 C 0.61603 0.68223 0.5234 0.0
C435 C 0.59597 0.66532 0.48299 0.0
C436 C 0.60542 0.62226 0.48288 0.0
C437 C 0.63353 0.59612 0.52145 0.0
C438 C 0.64086 0.55216 0.5101 0.0
C439 C 0.68997 0.54474 0.50816 0.0
C440 C 0.62317 0.51521 0.54816 0.0
C441 C 0.61311 0.55801 0.45883 0.0
C442 C 0.59249 0.59844 0.44419 0.0
C443 C 0.56607 0.61186 0.39783 0.0
C444 C 0.56099 0.5834 0.36524 0.0
C445 C 0.58267 0.54212 0.37884 0.0
C446 C 0.60864 0.52927 0.42664 0.0
H447 H 0.89678 0.19218 0.99391 0.0
H448 H 0.76727 0.13759 0.96056 0.0
H449 H 0.78551 0.12769 0.88026 0.0
H450 H 0.90241 0.25186 0.86857 0.0
H451 H 0.96075 0.24199 0.87273 0.0
H452 H 0.93795 0.24383 0.92812 0.0
H453 H 0.97045 0.16684 0.97085 0.0
H454 H 0.99348 0.16482 0.91567 0.0
H455 H 0.95731 0.12229 0.94038 0.0
H456 H 0.81833 0.12244 0.80451 0.0
H457 H 0.86253 0.12482 0.73682 0.0
H458 H 0.96978 0.18508 0.81799 0.0
C459 C 0.87245 0.17786 0.96979 0.0
C460 C 0.83065 0.16554 0.98336 0.0
C461 C 0.79937 0.14748 0.95062 0.0
C462 C 0.80949 0.1416 0.90509 0.0
C463 C 0.85091 0.15428 0.89268 0.0
C464 C 0.88183 0.17224 0.92392 0.0
C465 C 0.92354 0.18397 0.90117 0.0
C466 C 0.93161 0.23335 0.89211 0.0
C467 C 0.96356 0.15792 0.93397 0.0
C468 C 0.9113 0.16965 0.85236 0.0
C469 C 0.86936 0.15236 0.84836 0.0
C470 C 0.85114 0.13605 0.80713 0.0
C471 C 0.87649 0.13741 0.76899 0.0
C472 C 0.9194 0.15528 0.77215 0.0
C473 C 0.93684 0.17175 0.81435 0.0
H474 H 0.40557 0.32952 0.37705 0.0
H475 H 0.27798 0.39494 0.33501 0.0
H476 H 0.29833 0.43118 0.25271 0.0
H477 H 0.4699 0.416 0.32242 0.0
H478 H 0.50553 0.38149 0.30142 0.0
H479 H 0.47938 0.35979 0.35515 0.0
H480 H 0.44658 0.29845 0.31193 0.0
H481 H 0.47256 0.32143 0.25821 0.0
H482 H 0.41374 0.313 0.25074 0.0
H483 H 0.3352 0.46416 0.17759 0.0
H484 H 0.38463 0.49036 0.11536 0.0
H485 H 0.488 0.40218 0.20572 0.0
C486 C 0.3818 0.35098 0.35003 0.0
C487 C 0.34014 0.35942 0.36178 0.0
C488 C 0.30986 0.38794 0.32615 0.0
C489 C 0.32119 0.4086 0.2795 0.0
C490 C 0.36281 0.40002 0.26908 0.0
C491 C 0.39248 0.37155 0.30319 0.0
C492 C 0.4354 0.36873 0.28331 0.0
C493 C 0.47485 0.38238 0.31771 0.0
C494 C 0.44247 0.32266 0.27559 0.0
C495 C 0.42615 0.40154 0.23372 0.0
C496 C 0.38384 0.41873 0.22583 0.0
C497 C 0.36816 0.45045 0.18317 0.0
C498 C 0.39643 0.46498 0.14782 0.0
C499 C 0.43999 0.44796 0.15517 0.0
C500 C 0.45486 0.41578 0.19884 0.0
H501 H 0.16056 0.81953 0.89057 0.0
H502 H 0.20563 0.93966 0.93202 0.0
H503 H 0.17393 0.98167 0.84765 0.0
H504 H 0.17572 0.84942 0.75826 0.0
H505 H 0.1259 0.82131 0.74057 0.0
H506 H 0.15762 0.80327 0.80166 0.0
H507 H 0.08477 0.81069 0.83732 0.0
H508 H 0.05535 0.83162 0.77539 0.0
H509 H 0.05703 0.86301 0.8224 0.0
H510 H 0.13652 0.01025 0.75992 0.0
H511 H 0.09208 0.02426 0.67546 0.0
H512 H 0.06769 0.88595 0.69251 0.0
C513 C 0.16422 0.85461 0.88134 0.0
C514 C 0.18584 0.87664 0.91695 0.0
C515 C 0.18933 0.92254 0.90463 0.0
C516 C 0.17156 0.9465 0.85699 0.0
C517 C 0.15007 0.92391 0.82261 0.0
C518 C 0.14601 0.87905 0.83426 0.0
C519 C 0.11878 0.86306 0.79171 0.0
C520 C 0.14624 0.8325 0.77187 0.0
C521 C 0.07647 0.84079 0.80768 0.0
C522 C 0.10832 0.90589 0.75416 0.0
C523 C 0.12696 0.94055 0.77266 0.0
C524 C 0.12166 0.98344 0.74507 0.0
C525 C 0.09631 0.99113 0.6974 0.0
C526 C 0.07638 0.95617 0.67842 0.0
C527 C 0.08264 0.91307 0.70677 0.0
loop_
_geom_bond_atom_site_label_1
_geom_bond_atom_site_label_2
_geom_bond_distance
_geom_bond_site_symmetry_2
_ccdc_geom_bond_type
H0 C3 0.931 . S
H1 C6 0.928 . S
H2 C8 0.930 . S
C3 H0 0.931 . S
C3 C4 1.413 1_554 S
C3 C5 1.360 . S
C4 C3 1.413 1_556 S
C4 C8 1.429 . S
C5 C3 1.360 . S
C5 C6 1.372 . S
C6 H1 0.928 . S
C6 C5 1.372 . S
C6 C7 1.404 . S
C7 C6 1.404 . S
C7 C8 1.391 1_554 S
C8 H2 0.930 . S
C8 C4 1.429 . S
C8 C7 1.391 1_556 S
H9 C12 0.931 . S
H10 C15 0.928 . S
H11 C17 0.930 . S
C12 H9 0.931 . S
C12 C13 1.413 . S
C12 C14 1.360 . S
C13 C12 1.413 . S
C13 C17 1.429 . S
C14 C12 1.360 . S
C14 C15 1.372 . S
C15 H10 0.928 . S
C15 C14 1.372 . S
C15 C16 1.404 . S
C16 C15 1.404 . S
C16 C17 1.391 . S
C17 H11 0.930 . S
C17 C13 1.429 . S
C17 C16 1.391 . S
H18 C21 0.931 . S
H19 C24 0.928 . S
H20 C26 0.930 1_556 S
C21 H18 0.931 . S
C21 C22 1.413 . S
C21 C23 1.360 . S
C22 C21 1.413 . S
C22 C26 1.429 . S
C23 C21 1.360 . S
C23 C24 1.372 . S
C24 H19 0.928 . S
C24 C23 1.372 . S
C24 C25 1.404 . S
C25 C24 1.404 . S
C25 C26 1.391 . S
C26 H20 0.930 1_554 S
C26 C22 1.429 . S
C26 C25 1.391 . S
H27 C30 0.931 . S
H28 C33 0.928 . S
H29 C35 0.930 . S
C30 H27 0.931 . S
C30 C31 1.413 . S
C30 C32 1.360 . S
C31 C30 1.413 . S
C31 C35 1.429 . S
C32 C30 1.360 . S
C32 C33 1.372 . S
C33 H28 0.928 . S
C33 C32 1.372 . S
C33 C34 1.404 . S
C34 C33 1.404 . S
C34 C35 1.391 . S
C35 H29 0.930 . S
C35 C31 1.429 . S
C35 C34 1.391 . S
Eu36 N65 2.600 . S
Eu36 N71 2.562 . S
Eu36 O80 2.462 . S
Eu36 O81 2.373 . S
Eu36 O83 2.432 . S
Eu36 O84 2.291 1_565 S
Eu36 O88 2.334 1_455 S
Eu36 O91 2.372 1_455 S
Eu36 C100 2.787 . S
C37 N38 1.365 . S
C37 C40 1.405 . S
C37 C44 1.448 . S
N38 C37 1.365 . S
N38 C41 1.319 . S
N38 Eu47 2.600 . S
C39 C41 1.397 . S
C39 C42 1.367 . S
C39 H59 0.931 1_655 S
C40 C37 1.405 . S
C40 C42 1.403 . S
C40 C46 1.439 . S
C41 N38 1.319 . S
C41 C39 1.397 . S
C41 H52 0.930 1_655 S
C42 C39 1.367 . S
C42 C40 1.403 . S
C42 H63 0.929 . S
C43 C44 1.430 . S
C43 C45 1.387 . S
C43 C49 1.404 . S
C44 C37 1.448 . S
C44 C43 1.430 . S
C44 N48 1.351 . S
C45 C43 1.387 . S
C45 C46 1.374 . S
C45 H60 0.931 . S
C46 C40 1.439 . S
C46 C45 1.374 . S
C46 H61 0.931 . S
Eu47 N38 2.600 . S
Eu47 N48 2.562 . S
Eu47 O82 2.335 1_655 S
Eu47 O85 2.372 1_655 S
Eu47 O86 2.462 . S
Eu47 O87 2.373 . S
Eu47 O89 2.432 . S
Eu47 O90 2.291 1_545 S
Eu47 C111 2.787 . S
N48 C44 1.351 . S
N48 Eu47 2.562 . S
N48 C50 1.325 . S
C49 C43 1.404 . S
C49 C51 1.366 . S
C49 H57 0.930 . S
C50 N48 1.325 . S
C50 C51 1.416 . S
C50 H56 0.929 . S
C51 C49 1.366 . S
C51 C50 1.416 . S
C51 H53 0.930 . S
H52 C41 0.930 1_455 S
H53 C51 0.930 . S
H54 C69 0.930 1_655 S
H55 C76 0.930 . S
H56 C50 0.929 . S
H57 C49 0.930 . S
H58 C72 0.929 . S
H59 C39 0.931 1_455 S
H60 C45 0.931 . S
H61 C46 0.931 . S
H62 C67 0.931 1_655 S
H63 C42 0.929 . S
H64 C75 0.930 . S
N65 Eu36 2.600 . S
N65 C66 1.365 . S
N65 C69 1.319 . S
C66 N65 1.365 . S
C66 C68 1.405 . S
C66 C74 1.448 . S
C67 H62 0.931 1_455 S
C67 C69 1.397 . S
C67 C70 1.367 . S
C68 C66 1.405 . S
C68 C70 1.403 . S
C68 C101 1.439 . S
C69 H54 0.930 1_455 S
C69 N65 1.319 . S
C69 C67 1.397 . S
C70 C67 1.367 . S
C70 C68 1.403 . S
C70 H77 0.929 . S
N71 Eu36 2.562 . S
N71 C72 1.325 . S
N71 C74 1.351 . S
C72 H58 0.929 . S
C72 N71 1.325 . S
C72 C76 1.416 . S
C73 C74 1.430 . S
C73 C75 1.404 . S
C73 C102 1.387 . S
C74 C66 1.448 . S
C74 N71 1.351 . S
C74 C73 1.430 . S
C75 H64 0.930 . S
C75 C73 1.404 . S
C75 C76 1.366 . S
C76 H55 0.930 . S
C76 C72 1.416 . S
C76 C75 1.366 . S
H77 C70 0.929 . S
H78 C101 0.931 . S
H79 C102 0.931 . S
O80 Eu36 2.462 . S
O80 C100 1.252 . S
O81 Eu36 2.373 . S
O81 C92 1.249 . S
O82 Eu47 2.335 1_455 S
O82 C92 1.264 1_545 S
O83 Eu36 2.432 . S
O83 C100 1.268 . S
O84 Eu36 2.291 1_545 S
O84 C99 1.255 . S
O85 Eu47 2.372 1_455 S
O85 C99 1.257 . S
O86 Eu47 2.462 . S
O86 C111 1.252 . S
O87 Eu47 2.373 . S
O87 C103 1.249 . S
O88 Eu36 2.334 1_655 S
O88 C103 1.266 1_565 S
O89 Eu47 2.432 . S
O89 C111 1.268 . S
O90 Eu47 2.291 1_565 S
O90 C110 1.255 . S
O91 Eu36 2.372 1_655 S
O91 C110 1.257 . S
C92 O81 1.249 . S
C92 O82 1.264 1_565 S
C93 C96 1.382 . S
C93 C98 1.390 . S
C93 C100 1.506 . S
C94 C95 1.398 . S
C94 C98 1.392 . S
C95 C94 1.398 . S
C95 C97 1.372 . S
C95 H112 0.931 . S
C96 C93 1.382 . S
C96 C97 1.390 . S
C96 H113 0.931 . S
C97 C95 1.372 . S
C97 C96 1.390 . S
C97 H114 0.929 . S
C98 C93 1.390 . S
C98 C94 1.392 . S
C98 H115 0.930 . S
C99 O84 1.255 . S
C99 O85 1.257 . S
C100 Eu36 2.787 . S
C100 O80 1.252 . S
C100 O83 1.268 . S
C100 C93 1.506 . S
C101 C68 1.439 . S
C101 H78 0.931 . S
C101 C102 1.374 . S
C102 C73 1.387 . S
C102 H79 0.931 . S
C102 C101 1.374 . S
C103 O87 1.249 . S
C103 O88 1.266 1_545 S
C104 C107 1.382 . S
C104 C108 1.390 . S
C104 C111 1.506 . S
C105 C106 1.398 . S
C105 C108 1.392 . S
C106 C105 1.398 . S
C106 C109 1.372 . S
C106 H116 0.931 . S
C107 C104 1.382 . S
C107 C109 1.390 . S
C107 H117 0.931 . S
C108 C104 1.390 . S
C108 C105 1.392 . S
C108 H118 0.930 . S
C109 C106 1.372 . S
C109 C107 1.390 . S
C109 H119 0.929 . S
C110 O90 1.255 . S
C110 O91 1.257 . S
C111 Eu47 2.787 . S
C111 O86 1.252 . S
C111 O89 1.268 . S
C111 C104 1.506 . S
H112 C95 0.931 . S
H113 C96 0.931 . S
H114 C97 0.929 . S
H115 C98 0.930 . S
H116 C106 0.931 . S
H117 C107 0.931 . S
H118 C108 0.930 . S
H119 C109 0.929 . S
Eu120 N149 2.600 . S
Eu120 N155 2.562 1_556 S
Eu120 O164 2.462 . S
Eu120 O165 2.373 1_556 S
Eu120 O167 2.432 . S
Eu120 O168 2.291 1_556 S
Eu120 O172 2.335 . S
Eu120 O175 2.372 1_556 S
Eu120 C184 2.787 . S
C121 N122 1.365 . S
C121 C124 1.405 . S
C121 C128 1.448 . S
N122 C121 1.365 . S
N122 C125 1.319 . S
N122 Eu131 2.600 . S
C123 C125 1.397 . S
C123 C126 1.367 . S
C123 H143 0.931 . S
C124 C121 1.405 . S
C124 C126 1.403 . S
C124 C130 1.439 . S
C125 N122 1.319 . S
C125 C123 1.397 . S
C125 H136 0.930 . S
C126 C123 1.367 . S
C126 C124 1.403 . S
C126 H147 0.929 . S
C127 C128 1.430 . S
C127 C129 1.387 . S
C127 C133 1.404 . S
C128 C121 1.448 . S
C128 C127 1.430 . S
C128 N132 1.351 . S
C129 C127 1.387 . S
C129 C130 1.374 . S
C129 H144 0.931 . S
C130 C124 1.439 . S
C130 C129 1.374 . S
C130 H145 0.931 . S
Eu131 N122 2.600 . S
Eu131 N132 2.562 . S
Eu131 O166 2.335 . S
Eu131 O169 2.372 . S
Eu131 O170 2.462 . S
Eu131 O171 2.373 . S
Eu131 O173 2.432 . S
Eu131 O174 2.291 . S
Eu131 C195 2.787 . S
N132 C128 1.351 . S
N132 Eu131 2.562 . S
N132 C134 1.325 . S
C133 C127 1.404 . S
C133 C135 1.366 . S
C133 H141 0.930 . S
C134 N132 1.325 . S
C134 C135 1.416 . S
C134 H140 0.929 . S
C135 C133 1.366 . S
C135 C134 1.416 . S
C135 H137 0.930 . S
H136 C125 0.930 . S
H137 C135 0.930 . S
H138 C153 0.930 . S
H139 C160 0.930 . S
H140 C134 0.929 . S
H141 C133 0.930 . S
H142 C156 0.929 . S
H143 C123 0.931 . S
H144 C129 0.931 . S
H145 C130 0.931 . S
H146 C151 0.931 . S
H147 C126 0.929 . S
H148 C159 0.930 . S
N149 Eu120 2.600 . S
N149 C150 1.366 1_556 S
N149 C153 1.319 . S
C150 N149 1.366 1_554 S
C150 C152 1.405 . S
C150 C158 1.448 . S
C151 H146 0.931 . S
C151 C153 1.397 . S
C151 C154 1.367 1_556 S
C152 C150 1.405 . S
C152 C154 1.403 . S
C152 C185 1.439 . S
C153 H138 0.930 . S
C153 N149 1.319 . S
C153 C151 1.397 . S
C154 C151 1.367 1_554 S
C154 C152 1.403 . S
C154 H161 0.929 . S
N155 Eu120 2.562 1_554 S
N155 C156 1.325 . S
N155 C158 1.351 . S
C156 H142 0.929 . S
C156 N155 1.325 . S
C156 C160 1.416 . S
C157 C158 1.430 . S
C157 C159 1.404 . S
C157 C186 1.387 . S
C158 C150 1.448 . S
C158 N155 1.351 . S
C158 C157 1.430 . S
C159 H148 0.930 . S
C159 C157 1.404 . S
C159 C160 1.366 . S
C160 H139 0.930 . S
C160 C156 1.416 . S
C160 C159 1.366 . S
H161 C154 0.929 . S
H162 C185 0.931 . S
H163 C186 0.931 . S
O164 Eu120 2.462 . S
O164 C184 1.252 . S
O165 Eu120 2.373 1_554 S
O165 C176 1.249 . S
O166 Eu131 2.335 . S
O166 C176 1.264 . S
O167 Eu120 2.432 . S
O167 C184 1.268 . S
O168 Eu120 2.291 1_554 S
O168 C183 1.255 . S
O169 Eu131 2.372 . S
O169 C183 1.257 . S
O170 Eu131 2.462 . S
O170 C195 1.252 . S
O171 Eu131 2.373 . S
O171 C187 1.249 1_554 S
O172 Eu120 2.335 . S
O172 C187 1.264 . S
O173 Eu131 2.432 . S
O173 C195 1.268 . S
O174 Eu131 2.291 . S
O174 C194 1.255 . S
O175 Eu120 2.372 1_554 S
O175 C194 1.257 . S
C176 O165 1.249 . S
C176 O166 1.264 . S
C177 C180 1.382 . S
C177 C182 1.390 . S
C177 C184 1.506 . S
C178 C179 1.398 . S
C178 C182 1.392 . S
C179 C178 1.398 . S
C179 C181 1.372 . S
C179 H196 0.931 . S
C180 C177 1.382 . S
C180 C181 1.390 . S
C180 H197 0.931 . S
C181 C179 1.372 . S
C181 C180 1.390 . S
C181 H198 0.929 . S
C182 C177 1.390 . S
C182 C178 1.392 . S
C182 H199 0.930 . S
C183 O168 1.255 . S
C183 O169 1.257 . S
C184 Eu120 2.787 . S
C184 O164 1.252 . S
C184 O167 1.268 . S
C184 C177 1.506 . S
C185 C152 1.439 . S
C185 H162 0.931 . S
C185 C186 1.374 . S
C186 C157 1.387 . S
C186 H163 0.931 . S
C186 C185 1.374 . S
C187 O171 1.249 1_556 S
C187 O172 1.264 . S
C188 C191 1.382 . S
C188 C192 1.390 . S
C188 C195 1.506 . S
C189 C190 1.398 . S
C189 C192 1.392 . S
C190 C189 1.398 . S
C190 C193 1.372 . S
C190 H200 0.931 . S
C191 C188 1.382 . S
C191 C193 1.390 . S
C191 H201 0.931 . S
C192 C188 1.390 . S
C192 C189 1.392 . S
C192 H202 0.930 . S
C193 C190 1.372 . S
C193 C191 1.390 . S
C193 H203 0.929 . S
C194 O174 1.255 . S
C194 O175 1.257 . S
C195 Eu131 2.787 . S
C195 O170 1.252 . S
C195 O173 1.268 . S
C195 C188 1.506 . S
H196 C179 0.931 . S
H197 C180 0.931 . S
H198 C181 0.929 . S
H199 C182 0.930 . S
H200 C190 0.931 . S
H201 C191 0.931 . S
H202 C192 0.930 . S
H203 C193 0.929 . S
H204 C216 0.930 . S
H205 C218 0.930 . S
H206 C219 0.930 . S
H207 C223 0.959 . S
H208 C223 0.959 . S
H209 C223 0.961 . S
H210 C224 0.960 . S
H211 C224 0.961 . S
H212 C224 0.959 . S
H213 C227 0.929 . S
H214 C228 0.931 . S
H215 C230 0.930 . S
C216 H204 0.930 . S
C216 C217 1.399 . S
C216 C221 1.399 . S
C217 C216 1.399 . S
C217 C218 1.376 . S
C218 H205 0.930 . S
C218 C217 1.376 . S
C218 C219 1.388 . S
C219 H206 0.930 . S
C219 C218 1.388 . S
C219 C220 1.390 . S
C220 C219 1.390 . S
C220 C221 1.394 . S
C220 C226 1.465 . S
C221 C216 1.399 . S
C221 C220 1.394 . S
C221 C222 1.516 . S
C222 C221 1.516 . S
C222 C223 1.502 . S
C222 C224 1.561 . S
C222 C225 1.526 . S
C223 H207 0.959 . S
C223 H208 0.959 . S
C223 H209 0.961 . S
C223 C222 1.502 . S
C224 H210 0.960 . S
C224 H211 0.961 . S
C224 H212 0.959 . S
C224 C222 1.561 . S
C225 C222 1.526 . S
C225 C226 1.396 . S
C225 C230 1.390 . S
C226 C220 1.465 . S
C226 C225 1.396 . S
C226 C227 1.399 . S
C227 H213 0.929 . S
C227 C226 1.399 . S
C227 C228 1.385 . S
C228 H214 0.931 . S
C228 C227 1.385 . S
C228 C229 1.389 . S
C229 C228 1.389 . S
C229 C230 1.387 . S
C230 H215 0.930 . S
C230 C225 1.390 . S
C230 C229 1.387 . S
H231 C243 0.930 . S
H232 C245 0.930 . S
H233 C246 0.930 . S
H234 C250 0.959 . S
H235 C250 0.959 . S
H236 C250 0.961 . S
H237 C251 0.960 . S
H238 C251 0.961 . S
H239 C251 0.959 . S
H240 C254 0.929 . S
H241 C255 0.931 . S
H242 C257 0.930 1_556 S
C243 H231 0.930 . S
C243 C244 1.399 1_556 S
C243 C248 1.399 1_556 S
C244 C243 1.399 1_554 S
C244 C245 1.376 . S
C245 H232 0.930 . S
C245 C244 1.376 . S
C245 C246 1.388 . S
C246 H233 0.930 . S
C246 C245 1.388 . S
C246 C247 1.390 . S
C247 C246 1.390 . S
C247 C248 1.394 . S
C247 C253 1.465 . S
C248 C243 1.399 1_554 S
C248 C247 1.394 . S
C248 C249 1.516 1_554 S
C249 C248 1.516 1_556 S
C249 C250 1.502 . S
C249 C251 1.561 . S
C249 C252 1.526 1_556 S
C250 H234 0.959 . S
C250 H235 0.959 . S
C250 H236 0.961 . S
C250 C249 1.502 . S
C251 H237 0.960 . S
C251 H238 0.961 . S
C251 H239 0.959 . S
C251 C249 1.561 . S
C252 C249 1.526 1_554 S
C252 C253 1.396 . S
C252 C257 1.390 . S
C253 C247 1.465 . S
C253 C252 1.396 . S
C253 C254 1.399 . S
C254 H240 0.929 . S
C254 C253 1.399 . S
C254 C255 1.385 . S
C255 H241 0.931 . S
C255 C254 1.385 . S
C255 C256 1.389 . S
C256 C255 1.389 . S
C256 C257 1.387 . S
C257 H242 0.930 1_554 S
C257 C252 1.390 . S
C257 C256 1.387 . S
H258 C270 0.930 . S
H259 C272 0.930 . S
H260 C273 0.930 . S
H261 C277 0.959 . S
H262 C277 0.959 . S
H263 C277 0.961 . S
H264 C278 0.960 . S
H265 C278 0.961 . S
H266 C278 0.959 . S
H267 C281 0.929 . S
H268 C282 0.931 . S
H269 C284 0.930 . S
C270 H258 0.930 . S
C270 C271 1.399 . S
C270 C275 1.399 . S
C271 C270 1.399 . S
C271 C272 1.376 . S
C272 H259 0.930 . S
C272 C271 1.376 . S
C272 C273 1.388 . S
C273 H260 0.930 . S
C273 C272 1.388 . S
C273 C274 1.390 . S
C274 C273 1.390 . S
C274 C275 1.394 . S
C274 C280 1.465 . S
C275 C270 1.399 . S
C275 C274 1.394 . S
C275 C276 1.516 . S
C276 C275 1.516 . S
C276 C277 1.502 . S
C276 C278 1.561 . S
C276 C279 1.526 . S
C277 H261 0.959 . S
C277 H262 0.959 . S
C277 H263 0.961 . S
C277 C276 1.502 . S
C278 H264 0.960 . S
C278 H265 0.961 . S
C278 H266 0.959 . S
C278 C276 1.561 . S
C279 C276 1.526 . S
C279 C280 1.396 . S
C279 C284 1.390 . S
C280 C274 1.465 . S
C280 C279 1.396 . S
C280 C281 1.399 . S
C281 H267 0.929 . S
C281 C280 1.399 . S
C281 C282 1.385 . S
C282 H268 0.931 . S
C282 C281 1.385 . S
C282 C283 1.389 . S
C283 C282 1.389 . S
C283 C284 1.387 . S
C284 H269 0.930 . S
C284 C279 1.390 . S
C284 C283 1.387 . S
H285 C297 0.930 1_556 S
H286 C299 0.930 . S
H287 C300 0.930 . S
H288 C304 0.959 1_554 S
H289 C304 0.959 . S
H290 C304 0.961 . S
H291 C305 0.960 . S
H292 C305 0.961 . S
H293 C305 0.959 . S
H294 C308 0.929 . S
H295 C309 0.931 . S
H296 C311 0.930 1_556 S
C297 H285 0.930 1_554 S
C297 C298 1.399 . S
C297 C302 1.399 . S
C298 C297 1.399 . S
C298 C299 1.376 . S
C299 H286 0.930 . S
C299 C298 1.376 . S
C299 C300 1.388 . S
C300 H287 0.930 . S
C300 C299 1.388 . S
C300 C301 1.390 . S
C301 C300 1.390 . S
C301 C302 1.394 . S
C301 C307 1.465 . S
C302 C297 1.399 . S
C302 C301 1.394 . S
C302 C303 1.516 1_554 S
C303 C302 1.516 1_556 S
C303 C304 1.502 . S
C303 C305 1.561 . S
C303 C306 1.526 1_556 S
C304 H288 0.959 1_556 S
C304 H289 0.959 . S
C304 H290 0.961 . S
C304 C303 1.502 . S
C305 H291 0.960 . S
C305 H292 0.961 . S
C305 H293 0.959 . S
C305 C303 1.561 . S
C306 C303 1.526 1_554 S
C306 C307 1.396 . S
C306 C311 1.390 . S
C307 C301 1.465 . S
C307 C306 1.396 . S
C307 C308 1.399 . S
C308 H294 0.929 . S
C308 C307 1.399 . S
C308 C309 1.385 . S
C309 H295 0.931 . S
C309 C308 1.385 . S
C309 C310 1.389 . S
C310 C309 1.389 . S
C310 C311 1.387 . S
C311 H296 0.930 1_554 S
C311 C306 1.390 . S
C311 C310 1.387 . S
H312 C324 0.930 . S
H313 C326 0.930 . S
H314 C327 0.930 . S
H315 C331 0.959 . S
H316 C331 0.959 1_545 S
H317 C331 0.961 1_545 S
H318 C332 0.960 . S
H319 C332 0.961 . S
H320 C332 0.959 1_565 S
H321 C335 0.929 . S
H322 C336 0.931 . S
H323 C338 0.930 . S
C324 H312 0.930 . S
C324 C325 1.399 . S
C324 C329 1.399 . S
C325 C324 1.399 . S
C325 C326 1.376 . S
C326 H313 0.930 . S
C326 C325 1.376 . S
C326 C327 1.388 . S
C327 H314 0.930 . S
C327 C326 1.388 . S
C327 C328 1.390 . S
C328 C327 1.390 . S
C328 C329 1.394 . S
C328 C334 1.465 . S
C329 C324 1.399 . S
C329 C328 1.394 . S
C329 C330 1.516 . S
C330 C329 1.516 . S
C330 C331 1.502 . S
C330 C332 1.561 1_565 S
C330 C333 1.526 . S
C331 H315 0.959 . S
C331 H316 0.959 1_565 S
C331 H317 0.961 1_565 S
C331 C330 1.502 . S
C332 H318 0.960 . S
C332 H319 0.961 . S
C332 H320 0.959 1_545 S
C332 C330 1.561 1_545 S
C333 C330 1.526 . S
C333 C334 1.396 . S
C333 C338 1.390 . S
C334 C328 1.465 . S
C334 C333 1.396 . S
C334 C335 1.399 . S
C335 H321 0.929 . S
C335 C334 1.399 . S
C335 C336 1.385 . S
C336 H322 0.931 . S
C336 C335 1.385 . S
C336 C337 1.389 . S
C337 C336 1.389 . S
C337 C338 1.387 . S
C338 H323 0.930 . S
C338 C333 1.390 . S
C338 C337 1.387 . S
H339 C351 0.930 . S
H340 C353 0.930 . S
H341 C354 0.930 . S
H342 C358 0.959 . S
H343 C358 0.959 . S
H344 C358 0.961 . S
H345 C359 0.960 . S
H346 C359 0.961 . S
H347 C359 0.959 . S
H348 C362 0.929 . S
H349 C363 0.931 . S
H350 C365 0.930 . S
C351 H339 0.930 . S
C351 C352 1.399 . S
C351 C356 1.399 . S
C352 C351 1.399 . S
C352 C353 1.376 . S
C353 H340 0.930 . S
C353 C352 1.376 . S
C353 C354 1.388 . S
C354 H341 0.930 . S
C354 C353 1.388 . S
C354 C355 1.390 . S
C355 C354 1.390 . S
C355 C356 1.394 . S
C355 C361 1.465 . S
C356 C351 1.399 . S
C356 C355 1.394 . S
C356 C357 1.516 . S
C357 C356 1.516 . S
C357 C358 1.502 . S
C357 C359 1.561 . S
C357 C360 1.526 . S
C358 H342 0.959 . S
C358 H343 0.959 . S
C358 H344 0.961 . S
C358 C357 1.502 . S
C359 H345 0.960 . S
C359 H346 0.961 . S
C359 H347 0.959 . S
C359 C357 1.561 . S
C360 C357 1.526 . S
C360 C361 1.396 . S
C360 C365 1.390 . S
C361 C355 1.465 . S
C361 C360 1.396 . S
C361 C362 1.399 . S
C362 H348 0.929 . S
C362 C361 1.399 . S
C362 C363 1.385 . S
C363 H349 0.931 . S
C363 C362 1.385 . S
C363 C364 1.389 . S
C364 C363 1.389 . S
C364 C365 1.387 . S
C365 H350 0.930 . S
C365 C360 1.390 . S
C365 C364 1.387 . S
H366 C378 0.930 . S
H367 C380 0.930 . S
H368 C381 0.930 . S
H369 C385 0.959 1_545 S
H370 C385 0.959 . S
H371 C385 0.961 . S
H372 C386 0.960 . S
H373 C386 0.961 . S
H374 C386 0.959 1_545 S
H375 C389 0.929 . S
H376 C390 0.931 . S
H377 C392 0.930 1_565 S
C378 H366 0.930 . S
C378 C379 1.399 . S
C378 C383 1.399 . S
C379 C378 1.399 . S
C379 C380 1.376 . S
C380 H367 0.930 . S
C380 C379 1.376 . S
C380 C381 1.388 . S
C381 H368 0.930 . S
C381 C380 1.388 . S
C381 C382 1.390 . S
C382 C381 1.390 . S
C382 C383 1.394 . S
C382 C388 1.465 . S
C383 C378 1.399 . S
C383 C382 1.394 . S
C383 C384 1.516 . S
C384 C383 1.516 . S
C384 C385 1.502 1_545 S
C384 C386 1.561 1_545 S
C384 C387 1.526 . S
C385 H369 0.959 1_565 S
C385 H370 0.959 . S
C385 H371 0.961 . S
C385 C384 1.502 1_565 S
C386 H372 0.960 . S
C386 H373 0.961 . S
C386 H374 0.959 1_565 S
C386 C384 1.561 1_565 S
C387 C384 1.526 . S
C387 C388 1.396 . S
C387 C392 1.390 . S
C388 C382 1.465 . S
C388 C387 1.396 . S
C388 C389 1.399 . S
C389 H375 0.929 . S
C389 C388 1.399 . S
C389 C390 1.385 . S
C390 H376 0.931 . S
C390 C389 1.385 . S
C390 C391 1.389 . S
C391 C390 1.389 . S
C391 C392 1.387 . S
C392 H377 0.930 1_545 S
C392 C387 1.390 . S
C392 C391 1.387 . S
H393 C405 0.930 . S
H394 C407 0.930 . S
H395 C408 0.930 . S
H396 C412 0.959 . S
H397 C412 0.959 . S
H398 C412 0.961 . S
H399 C413 0.960 . S
H400 C413 0.961 . S
H401 C413 0.959 . S
H402 C416 0.929 . S
H403 C417 0.931 . S
H404 C419 0.930 . S
C405 H393 0.930 . S
C405 C406 1.399 . S
C405 C410 1.399 . S
C406 C405 1.399 . S
C406 C407 1.376 . S
C407 H394 0.930 . S
C407 C406 1.376 . S
C407 C408 1.388 . S
C408 H395 0.930 . S
C408 C407 1.388 . S
C408 C409 1.390 . S
C409 C408 1.390 . S
C409 C410 1.394 . S
C409 C415 1.465 . S
C410 C405 1.399 . S
C410 C409 1.394 . S
C410 C411 1.516 . S
C411 C410 1.516 . S
C411 C412 1.502 . S
C411 C413 1.561 . S
C411 C414 1.526 . S
C412 H396 0.959 . S
C412 H397 0.959 . S
C412 H398 0.961 . S
C412 C411 1.502 . S
C413 H399 0.960 . S
C413 H400 0.961 . S
C413 H401 0.959 . S
C413 C411 1.561 . S
C414 C411 1.526 . S
C414 C415 1.396 . S
C414 C419 1.390 . S
C415 C409 1.465 . S
C415 C414 1.396 . S
C415 C416 1.399 . S
C416 H402 0.929 . S
C416 C415 1.399 . S
C416 C417 1.385 . S
C417 H403 0.931 . S
C417 C416 1.385 . S
C417 C418 1.389 . S
C418 C417 1.389 . S
C418 C419 1.387 . S
C419 H404 0.930 . S
C419 C414 1.390 . S
C419 C418 1.387 . S
H420 C432 0.930 . S
H421 C434 0.930 . S
H422 C435 0.930 . S
H423 C439 0.959 . S
H424 C439 0.959 . S
H425 C439 0.961 . S
H426 C440 0.960 . S
H427 C440 0.961 . S
H428 C440 0.959 . S
H429 C443 0.929 . S
H430 C444 0.931 . S
H431 C446 0.930 . S
C432 H420 0.930 . S
C432 C433 1.399 . S
C432 C437 1.399 . S
C433 C432 1.399 . S
C433 C434 1.376 . S
C434 H421 0.930 . S
C434 C433 1.376 . S
C434 C435 1.388 . S
C435 H422 0.930 . S
C435 C434 1.388 . S
C435 C436 1.390 . S
C436 C435 1.390 . S
C436 C437 1.394 . S
C436 C442 1.465 . S
C437 C432 1.399 . S
C437 C436 1.394 . S
C437 C438 1.516 . S
C438 C437 1.516 . S
C438 C439 1.502 . S
C438 C440 1.561 . S
C438 C441 1.526 . S
C439 H423 0.959 . S
C439 H424 0.959 . S
C439 H425 0.961 . S
C439 C438 1.502 . S
C440 H426 0.960 . S
C440 H427 0.961 . S
C440 H428 0.959 . S
C440 C438 1.561 . S
C441 C438 1.526 . S
C441 C442 1.396 . S
C441 C446 1.390 . S
C442 C436 1.465 . S
C442 C441 1.396 . S
C442 C443 1.399 . S
C443 H429 0.929 . S
C443 C442 1.399 . S
C443 C444 1.385 . S
C444 H430 0.931 . S
C444 C443 1.385 . S
C444 C445 1.389 . S
C445 C444 1.389 . S
C445 C446 1.387 . S
C446 H431 0.930 . S
C446 C441 1.390 . S
C446 C445 1.387 . S
H447 C459 0.930 1_554 S
H448 C461 0.930 . S
H449 C462 0.930 . S
H450 C466 0.959 . S
H451 C466 0.959 . S
H452 C466 0.961 . S
H453 C467 0.960 . S
H454 C467 0.961 . S
H455 C467 0.959 . S
H456 C470 0.929 . S
H457 C471 0.931 . S
H458 C473 0.930 . S
C459 H447 0.930 1_556 S
C459 C460 1.399 . S
C459 C464 1.399 . S
C460 C459 1.399 . S
C460 C461 1.376 . S
C461 H448 0.930 . S
C461 C460 1.376 . S
C461 C462 1.388 . S
C462 H449 0.930 . S
C462 C461 1.388 . S
C462 C463 1.390 . S
C463 C462 1.390 . S
C463 C464 1.394 . S
C463 C469 1.465 . S
C464 C459 1.399 . S
C464 C463 1.394 . S
C464 C465 1.516 . S
C465 C464 1.516 . S
C465 C466 1.502 . S
C465 C467 1.561 . S
C465 C468 1.526 . S
C466 H450 0.959 . S
C466 H451 0.959 . S
C466 H452 0.961 . S
C466 C465 1.502 . S
C467 H453 0.960 . S
C467 H454 0.961 . S
C467 H455 0.959 . S
C467 C465 1.561 . S
C468 C465 1.526 . S
C468 C469 1.396 . S
C468 C473 1.390 . S
C469 C463 1.465 . S
C469 C468 1.396 . S
C469 C470 1.399 . S
C470 H456 0.929 . S
C470 C469 1.399 . S
C470 C471 1.385 . S
C471 H457 0.931 . S
C471 C470 1.385 . S
C471 C472 1.389 . S
C472 C471 1.389 . S
C472 C473 1.387 . S
C473 H458 0.930 . S
C473 C468 1.390 . S
C473 C472 1.387 . S
H474 C486 0.930 . S
H475 C488 0.930 . S
H476 C489 0.930 . S
H477 C493 0.959 . S
H478 C493 0.959 . S
H479 C493 0.961 . S
H480 C494 0.960 . S
H481 C494 0.961 . S
H482 C494 0.959 . S
H483 C497 0.929 . S
H484 C498 0.931 . S
H485 C500 0.930 . S
C486 H474 0.930 . S
C486 C487 1.399 . S
C486 C491 1.399 . S
C487 C486 1.399 . S
C487 C488 1.376 . S
C488 H475 0.930 . S
C488 C487 1.376 . S
C488 C489 1.388 . S
C489 H476 0.930 . S
C489 C488 1.388 . S
C489 C490 1.390 . S
C490 C489 1.390 . S
C490 C491 1.394 . S
C490 C496 1.465 . S
C491 C486 1.399 . S
C491 C490 1.394 . S
C491 C492 1.516 . S
C492 C491 1.516 . S
C492 C493 1.502 . S
C492 C494 1.561 . S
C492 C495 1.526 . S
C493 H477 0.959 . S
C493 H478 0.959 . S
C493 H479 0.961 . S
C493 C492 1.502 . S
C494 H480 0.960 . S
C494 H481 0.961 . S
C494 H482 0.959 . S
C494 C492 1.561 . S
C495 C492 1.526 . S
C495 C496 1.396 . S
C495 C500 1.390 . S
C496 C490 1.465 . S
C496 C495 1.396 . S
C496 C497 1.399 . S
C497 H483 0.929 . S
C497 C496 1.399 . S
C497 C498 1.385 . S
C498 H484 0.931 . S
C498 C497 1.385 . S
C498 C499 1.389 . S
C499 C498 1.389 . S
C499 C500 1.387 . S
C500 H485 0.930 . S
C500 C495 1.390 . S
C500 C499 1.387 . S
H501 C513 0.930 . S
H502 C515 0.930 . S
H503 C516 0.930 1_545 S
H504 C520 0.959 . S
H505 C520 0.959 . S
H506 C520 0.961 . S
H507 C521 0.960 . S
H508 C521 0.961 . S
H509 C521 0.959 . S
H510 C524 0.916 1_545 S
H511 C525 0.931 . S
H512 C527 0.930 . S
C513 H501 0.930 . S
C513 C514 1.399 . S
C513 C518 1.399 . S
C514 C513 1.399 . S
C514 C515 1.376 . S
C515 H502 0.930 . S
C515 C514 1.376 . S
C515 C516 1.388 . S
C516 H503 0.930 1_565 S
C516 C515 1.388 . S
C516 C517 1.390 . S
C517 C516 1.390 . S
C517 C518 1.394 . S
C517 C523 1.465 . S
C518 C513 1.399 . S
C518 C517 1.394 . S
C518 C519 1.516 . S
C519 C518 1.516 . S
C519 C520 1.502 . S
C519 C521 1.561 . S
C519 C522 1.526 . S
C520 H504 0.959 . S
C520 H505 0.959 . S
C520 H506 0.961 . S
C520 C519 1.502 . S
C521 H507 0.960 . S
C521 H508 0.961 . S
C521 H509 0.959 . S
C521 C519 1.561 . S
C522 C519 1.526 . S
C522 C523 1.396 . S
C522 C527 1.390 . S
C523 C517 1.465 . S
C523 C522 1.396 . S
C523 C524 1.410 . S
C524 H510 0.916 1_565 S
C524 C523 1.410 . S
C524 C525 1.388 1_565 S
C525 H511 0.931 . S
C525 C524 1.388 1_545 S
C525 C526 1.389 1_545 S
C526 C525 1.389 1_565 S
C526 C527 1.387 . S
C527 H512 0.930 . S
C527 C522 1.390 . S
C527 C526 1.387 . S
C229 C99 1.521 . S
C217 C34 1.558 . S
C244 C7 1.558 . S
C256 C194 1.550 . S
C271 C16 1.542 . S
C283 C110 1.518 . S
C298 C25 1.547 . S
C310 C183 1.509 . S
C337 C94 1.298 . S
C325 C5 1.512 . S
C364 C187 1.561 . S
C352 C13 1.559 . S
C379 C23 1.518 . S
C391 C103 1.542 . S
C406 C32 1.508 . S
C418 C178 1.406 . S
C445 C189 1.374 . S
C433 C14 1.508 . S
C472 C105 1.405 . S
C460 C22 1.525 1_556 S
C499 C176 1.550 . S
C487 C31 1.542 . S
C514 C4 1.538 . S
C526 C92 1.541 . S
