# Generated by pormake.
# Topology anh, (6,3)-cn, num edge types: 1
# Building blocks:
#     Node 0, Type 0, BuildingBlock: MIFKUJ_clean_sbu_0, # of connection points: 6
#     Node 1, Type 0, BuildingBlock: MIFKUJ_clean_sbu_0, # of connection points: 6
#     Node 2, Type 0, BuildingBlock: MIFKUJ_clean_sbu_0, # of connection points: 6
#     Node 3, Type 1, BuildingBlock: ESEHIV_clean_linker_0, # of connection points: 3
#     Node 4, Type 1, BuildingBlock: ESEHIV_clean_linker_0, # of connection points: 3
#     Node 5, Type 1, BuildingBlock: ESEHIV_clean_linker_0, # of connection points: 3
#     Node 6, Type 1, BuildingBlock: ESEHIV_clean_linker_0, # of connection points: 3
#     Node 7, Type 1, BuildingBlock: ESEHIV_clean_linker_0, # of connection points: 3
#     Node 8, Type 1, BuildingBlock: ESEHIV_clean_linker_0, # of connection points: 3
#     Edge 9, Type (0, 1), BuildingBlock: XUDNAN_clean_linker_2, # of connection points: 2
#     Edge 10, Type (0, 1), BuildingBlock: XUDNAN_clean_linker_2, # of connection points: 2
#     Edge 11, Type (0, 1), BuildingBlock: XUDNAN_clean_linker_2, # of connection points: 2
#     Edge 12, Type (0, 1), BuildingBlock: XUDNAN_clean_linker_2, # of connection points: 2
#     Edge 13, Type (0, 1), BuildingBlock: XUDNAN_clean_linker_2, # of connection points: 2
#     Edge 14, Type (0, 1), BuildingBlock: XUDNAN_clean_linker_2, # of connection points: 2
#     Edge 15, Type (0, 1), BuildingBlock: XUDNAN_clean_linker_2, # of connection points: 2
#     Edge 16, Type (0, 1), BuildingBlock: XUDNAN_clean_linker_2, # of connection points: 2
#     Edge 17, Type (0, 1), BuildingBlock: XUDNAN_clean_linker_2, # of connection points: 2
#     Edge 18, Type (0, 1), BuildingBlock: XUDNAN_clean_linker_2, # of connection points: 2
#     Edge 19, Type (0, 1), BuildingBlock: XUDNAN_clean_linker_2, # of connection points: 2
#     Edge 20, Type (0, 1), BuildingBlock: XUDNAN_clean_linker_2, # of connection points: 2
#     Edge 21, Type (0, 1), BuildingBlock: XUDNAN_clean_linker_2, # of connection points: 2
#     Edge 22, Type (0, 1), BuildingBlock: XUDNAN_clean_linker_2, # of connection points: 2
#     Edge 23, Type (0, 1), BuildingBlock: XUDNAN_clean_linker_2, # of connection points: 2
#     Edge 24, Type (0, 1), BuildingBlock: XUDNAN_clean_linker_2, # of connection points: 2
#     Edge 25, Type (0, 1), BuildingBlock: XUDNAN_clean_linker_2, # of connection points: 2
#     Edge 26, Type (0, 1), BuildingBlock: XUDNAN_clean_linker_2, # of connection points: 2
# Relax obj value: 0.135
# Max RMSD: 0.186
# Mean RMSD: 0.149
data_MOF--net-anh--node1-MIFKUJ_clean_sbu_0--node2-ESEHIV_clean_linker_0--edge1-XUDNAN_clean_linker_2
_symmetry_space_group_name_H-M    P1
_symmetry_Int_Tables_number       1
_symmetry_cell_setting            triclinic
loop_
_symmetry_equiv_pos_as_xyz
'x, y, z'
_cell_length_a     29.160052
_cell_length_b     29.125991
_cell_length_c     48.834942
_cell_angle_alpha  93.663914
_cell_angle_beta   90.854421
_cell_angle_gamma 119.66634
loop_
_atom_site_label
_atom_site_type_symbol
_atom_site_fract_x
_atom_site_fract_y
_atom_site_fract_z
_atom_type_partial_charge
Zn0 Zn 0.06092 0.58521 0.15922 0.0
Zn1 Zn 0.93545 0.46383 0.1611 0.0
C2 C 0.13337 0.53745 0.15318 0.0
O3 O 0.09193 0.48958 0.15045 0.0
C4 C 0.84893 0.47919 0.14628 0.0
O5 O 0.8381 0.43721 0.12982 0.0
O6 O 0.09175 0.66391 0.16051 0.0
O7 O 0.01499 0.55683 0.12425 0.0
O8 O 0.97619 0.47046 0.1273 0.0
C9 C 0.1251 0.68855 0.14287 0.0
O10 O 0.13419 0.66123 0.1234 0.0
O11 O 0.1268 0.57752 0.1564 0.0
C12 C 0.87092 0.35114 0.17406 0.0
O13 O 0.90491 0.36153 0.19472 0.0
O14 O 0.87852 0.38726 0.1585 0.0
O15 O 0.97287 0.47983 0.19812 0.0
O16 O 0.03293 0.56481 0.19662 0.0
O17 O 0.89267 0.50239 0.16051 0.0
C18 C 0.99536 0.5101 0.11299 0.0
C19 C 0.00487 0.52501 0.21003 0.0
Zn20 Zn 0.55672 0.07822 0.49735 0.0
Zn21 Zn 0.48917 0.91501 0.49452 0.0
C22 C 0.6602 0.15787 0.50367 0.0
O23 O 0.63814 0.17308 0.52277 0.0
C24 C 0.39447 0.82855 0.51309 0.0
O25 O 0.42647 0.81423 0.52396 0.0
O26 O 0.5242 0.12301 0.4898 0.0
O27 O 0.52318 0.01002 0.47629 0.0
O28 O 0.49114 0.93355 0.45476 0.0
C29 C 0.54453 0.15963 0.47352 0.0
O30 O 0.58603 0.16655 0.46024 0.0
O31 O 0.632 0.115 0.48903 0.0
C32 C 0.55897 0.87524 0.51445 0.0
O33 O 0.57396 0.9101 0.53585 0.0
O34 O 0.52565 0.87262 0.49649 0.0
O35 O 0.51585 0.97648 0.52496 0.0
O36 O 0.55127 0.06189 0.537 0.0
O37 O 0.41314 0.86968 0.49999 0.0
C38 C 0.50843 0.98247 0.45366 0.0
C39 C 0.53237 0.01457 0.54374 0.0
Zn40 Zn 0.59008 0.52433 0.83457 0.0
Zn41 Zn 0.48522 0.55528 0.83531 0.0
C42 C 0.55408 0.416 0.84764 0.0
O43 O 0.56906 0.43991 0.87251 0.0
C44 C 0.50553 0.66277 0.84074 0.0
O45 O 0.46538 0.64003 0.85649 0.0
O46 O 0.66657 0.54787 0.83323 0.0
O47 O 0.57592 0.55696 0.80266 0.0
O48 O 0.48982 0.51053 0.80351 0.0
C49 C 0.67929 0.53057 0.81182 0.0
O50 O 0.64273 0.50168 0.79236 0.0
O51 O 0.55578 0.44315 0.8278 0.0
C52 C 0.37241 0.48654 0.83038 0.0
O53 O 0.38368 0.44805 0.82953 0.0
O54 O 0.40941 0.53437 0.83342 0.0
O55 O 0.50195 0.5449 0.87374 0.0
O56 O 0.57791 0.5442 0.873 0.0
O57 O 0.52366 0.63476 0.82935 0.0
C58 C 0.53126 0.52853 0.79017 0.0
C59 C 0.54142 0.54631 0.88598 0.0
H60 H 0.40582 0.98403 0.25778 0.0
H61 H 0.57108 0.09498 0.25641 0.0
H62 H 0.47761 0.02533 0.18017 0.0
C63 C 0.44023 0.00648 0.24608 0.0
C64 C 0.43564 0.00167 0.21721 0.0
C65 C 0.48925 0.03933 0.26 0.0
C66 C 0.53395 0.06828 0.24515 0.0
C67 C 0.53059 0.06387 0.2162 0.0
C68 C 0.48111 0.0297 0.20242 0.0
H69 H 0.57149 0.59105 0.59166 0.0
H70 H 0.53453 0.42885 0.58084 0.0
H71 H 0.57951 0.52227 0.51195 0.0
C72 C 0.56971 0.55874 0.57857 0.0
C73 C 0.57852 0.56398 0.55027 0.0
C74 C 0.55459 0.51036 0.58989 0.0
C75 C 0.54703 0.46671 0.57257 0.0
C76 C 0.55406 0.47075 0.54441 0.0
C77 C 0.57261 0.5198 0.53365 0.0
H78 H 0.96466 0.54428 0.90707 0.0
H79 H 0.08525 0.50131 0.9134 0.0
H80 H 0.04414 0.53351 0.8351 0.0
C81 C 0.99561 0.53944 0.89768 0.0
C82 C 0.00133 0.54187 0.86909 0.0
C83 C 0.026 0.52495 0.9137 0.0
C84 C 0.06293 0.51424 0.90124 0.0
C85 C 0.06943 0.51739 0.87302 0.0
C86 C 0.03975 0.53251 0.8571 0.0
H87 H 0.9525 0.43177 0.40621 0.0
H88 H 0.08062 0.59201 0.4227 0.0
H89 H 0.01807 0.49165 0.48873 0.0
C90 C 0.98168 0.46367 0.42022 0.0
C91 C 0.98278 0.45564 0.44822 0.0
C92 C 0.01602 0.51325 0.41069 0.0
C93 C 0.05208 0.55409 0.42965 0.0
C94 C 0.05244 0.54686 0.4577 0.0
C95 C 0.01799 0.49741 0.46701 0.0
H96 H 0.51029 0.08634 0.74754 0.0
H97 H 0.53656 0.95438 0.74983 0.0
H98 H 0.55276 0.04765 0.8247 0.0
C99 C 0.5211 0.06254 0.7593 0.0
C100 C 0.5319 0.07385 0.78805 0.0
C101 C 0.52268 0.01961 0.74541 0.0
C102 C 0.53456 0.98717 0.76045 0.0
C103 C 0.54481 0.99664 0.78894 0.0
C104 C 0.54339 0.03989 0.80277 0.0
H105 H 0.44251 0.54156 0.08507 0.0
H106 H 0.57895 0.52268 0.09267 0.0
H107 H 0.49637 0.52457 0.16463 0.0
C108 C 0.46917 0.5346 0.09758 0.0
C109 C 0.46299 0.53117 0.12603 0.0
C110 C 0.51173 0.53288 0.0856 0.0
C111 C 0.54631 0.52461 0.10198 0.0
C112 C 0.54118 0.52126 0.13033 0.0
C113 C 0.49981 0.52552 0.14259 0.0
H114 H 0.16423 0.46252 0.14245 0.0
H115 H 0.22652 0.63077 0.1635 0.0
H116 H 0.31719 0.64514 0.16347 0.0
H117 H 0.26476 0.45067 0.18271 0.0
H118 H 0.26764 0.40459 0.15731 0.0
H119 H 0.20711 0.40642 0.16089 0.0
H120 H 0.20499 0.42192 0.10936 0.0
H121 H 0.26511 0.41961 0.10557 0.0
H122 H 0.26153 0.47649 0.09586 0.0
H123 H 0.40154 0.64232 0.15989 0.0
H124 H 0.47335 0.62338 0.14852 0.0
H125 H 0.35775 0.45812 0.12817 0.0
C126 C 0.1969 0.50231 0.14729 0.0
C127 C 0.18795 0.54541 0.15317 0.0
C128 C 0.23205 0.59696 0.15906 0.0
C129 C 0.28385 0.60556 0.15922 0.0
C130 C 0.29128 0.56229 0.15345 0.0
C131 C 0.24908 0.51172 0.14738 0.0
C132 C 0.2682 0.47265 0.14035 0.0
C133 C 0.25089 0.43112 0.16158 0.0
C134 C 0.24882 0.44614 0.11104 0.0
C135 C 0.32768 0.50945 0.14259 0.0
C136 C 0.34009 0.56081 0.15079 0.0
C137 C 0.39232 0.60219 0.1537 0.0
C138 C 0.43285 0.59111 0.1474 0.0
C139 C 0.42095 0.53927 0.13805 0.0
C140 C 0.36776 0.49784 0.13591 0.0
H141 H 0.71402 0.26457 0.51296 0.0
H142 H 0.72697 0.13174 0.47689 0.0
H143 H 0.81611 0.19402 0.46189 0.0
H144 H 0.77157 0.34443 0.45837 0.0
H145 H 0.80303 0.40566 0.48002 0.0
H146 H 0.74331 0.35004 0.49011 0.0
H147 H 0.78974 0.35394 0.53639 0.0
H148 H 0.85003 0.40954 0.52666 0.0
H149 H 0.85002 0.35091 0.53653 0.0
H150 H 0.90087 0.27182 0.44811 0.0
H151 H 0.97319 0.35862 0.43566 0.0
H152 H 0.90302 0.43882 0.48102 0.0
C153 C 0.73618 0.24851 0.50255 0.0
C154 C 0.71449 0.19363 0.49652 0.0
C155 C 0.74355 0.17393 0.4819 0.0
C156 C 0.79406 0.20889 0.47338 0.0
C157 C 0.81424 0.26312 0.47948 0.0
C158 C 0.78596 0.28268 0.49358 0.0
C159 C 0.81389 0.3424 0.49546 0.0
C160 C 0.78102 0.36177 0.48005 0.0
C161 C 0.82671 0.36556 0.52556 0.0
C162 C 0.86312 0.35377 0.48078 0.0
C163 C 0.86257 0.30759 0.47152 0.0
C164 C 0.90212 0.30823 0.45558 0.0
C165 C 0.94285 0.3574 0.44864 0.0
C166 C 0.94362 0.40477 0.45791 0.0
C167 C 0.90375 0.40297 0.47441 0.0
H168 H 0.46098 0.72482 0.8529 0.0
H169 H 0.59665 0.72831 0.81557 0.0
H170 H 0.62851 0.82092 0.80483 0.0
H171 H 0.43652 0.79245 0.80364 0.0
H172 H 0.41607 0.82795 0.82741 0.0
H173 H 0.40822 0.76508 0.8353 0.0
H174 H 0.46238 0.80848 0.88137 0.0
H175 H 0.47085 0.87178 0.87348 0.0
H176 H 0.52782 0.86516 0.88127 0.0
H177 H 0.64163 0.91018 0.79477 0.0
H178 H 0.63071 0.98518 0.78216 0.0
H179 H 0.48555 0.92349 0.82502 0.0
C180 C 0.49798 0.74532 0.84294 0.0
C181 C 0.52662 0.71931 0.83532 0.0
C182 C 0.57418 0.74736 0.82175 0.0
C183 C 0.59272 0.80012 0.81572 0.0
C184 C 0.56329 0.82439 0.82337 0.0
C185 C 0.51676 0.79776 0.83656 0.0
C186 C 0.48993 0.83093 0.84028 0.0
C187 C 0.43443 0.80241 0.82578 0.0
C188 C 0.48762 0.84492 0.87092 0.0
C189 C 0.52767 0.87978 0.82622 0.0
C190 C 0.57037 0.87565 0.81718 0.0
C191 C 0.60883 0.91414 0.80211 0.0
C192 C 0.6025 0.95677 0.79517 0.0
C193 C 0.55793 0.96061 0.8031 0.0
C194 C 0.52083 0.92236 0.81947 0.0
H195 H 0.74458 0.42057 0.12982 0.0
H196 H 0.85874 0.57073 0.17275 0.0
H197 H 0.78755 0.59283 0.18002 0.0
H198 H 0.67172 0.46573 0.09431 0.0
H199 H 0.60893 0.40686 0.09741 0.0
H200 H 0.66849 0.40292 0.09768 0.0
H201 H 0.64534 0.36103 0.14441 0.0
H202 H 0.58613 0.36602 0.14445 0.0
H203 H 0.63415 0.39582 0.17305 0.0
H204 H 0.70353 0.60072 0.1789 0.0
H205 H 0.61847 0.5962 0.16647 0.0
H206 H 0.56044 0.43938 0.12616 0.0
C207 C 0.75484 0.45815 0.14083 0.0
C208 C 0.80744 0.4941 0.15056 0.0
C209 C 0.81878 0.5426 0.16505 0.0
C210 C 0.7785 0.55529 0.16941 0.0
C211 C 0.72692 0.51864 0.15961 0.0
C212 C 0.71521 0.471 0.14564 0.0
C213 C 0.6575 0.43918 0.13598 0.0
C214 C 0.65133 0.42808 0.10449 0.0
C215 C 0.62912 0.38745 0.15033 0.0
C216 C 0.63872 0.4772 0.14558 0.0
C217 C 0.67891 0.52251 0.15963 0.0
C218 C 0.67159 0.56494 0.16844 0.0
C219 C 0.62295 0.56187 0.16162 0.0
C220 C 0.58256 0.51686 0.14603 0.0
C221 C 0.59009 0.47342 0.13889 0.0
H222 H 0.33938 0.72318 0.52081 0.0
H223 H 0.32008 0.85724 0.50395 0.0
H224 H 0.22371 0.79823 0.49791 0.0
H225 H 0.25348 0.63944 0.46965 0.0
H226 H 0.22749 0.58012 0.48766 0.0
H227 H 0.29269 0.63425 0.4969 0.0
H228 H 0.26663 0.63701 0.54729 0.0
H229 H 0.20085 0.58295 0.53808 0.0
H230 H 0.21006 0.64438 0.55449 0.0
H231 H 0.13347 0.72496 0.48646 0.0
H232 H 0.05727 0.6419 0.46607 0.0
H233 H 0.13387 0.55416 0.48919 0.0
C234 C 0.31458 0.74031 0.51693 0.0
C235 C 0.33685 0.7947 0.51332 0.0
C236 C 0.30357 0.81562 0.50712 0.0
C237 C 0.24878 0.7825 0.50385 0.0
C238 C 0.22798 0.72867 0.50693 0.0
C239 C 0.25985 0.70763 0.51322 0.0
C240 C 0.22882 0.64768 0.5111 0.0
C241 C 0.25199 0.62403 0.49007 0.0
C242 C 0.22644 0.62676 0.53943 0.0
C243 C 0.17519 0.63817 0.50111 0.0
C244 C 0.17523 0.68552 0.49968 0.0
C245 C 0.13241 0.68757 0.48811 0.0
C246 C 0.08937 0.64035 0.47661 0.0
C247 C 0.08985 0.59204 0.47655 0.0
C248 C 0.13219 0.59053 0.48988 0.0
H249 H 0.56091 0.36412 0.79986 0.0
H250 H 0.52135 0.34162 0.88505 0.0
H251 H 0.50934 0.25138 0.87911 0.0
H252 H 0.4706 0.22679 0.77214 0.0
H253 H 0.51694 0.22682 0.74812 0.0
H254 H 0.51772 0.28773 0.75845 0.0
H255 H 0.61681 0.33127 0.77395 0.0
H256 H 0.61624 0.27045 0.76383 0.0
H257 H 0.63734 0.30038 0.79847 0.0
H258 H 0.50352 0.16342 0.86399 0.0
H259 H 0.50541 0.08638 0.84129 0.0
H260 H 0.55678 0.16972 0.7672 0.0
C261 C 0.54861 0.33978 0.81709 0.0
C262 C 0.54145 0.35984 0.84286 0.0
C263 C 0.52674 0.3271 0.86507 0.0
C264 C 0.51983 0.27571 0.8619 0.0
C265 C 0.52819 0.25748 0.83641 0.0
C266 C 0.54228 0.28854 0.81438 0.0
C267 C 0.55164 0.2606 0.78962 0.0
C268 C 0.51185 0.24986 0.76567 0.0
C269 C 0.60891 0.29258 0.78097 0.0
C270 C 0.54118 0.20934 0.80123 0.0
C271 C 0.52706 0.20797 0.82812 0.0
C272 C 0.51478 0.16424 0.84293 0.0
C273 C 0.51653 0.12066 0.82986 0.0
C274 C 0.53121 0.12102 0.80222 0.0
C275 C 0.54418 0.16673 0.78805 0.0
H276 H 0.60956 0.85022 0.55406 0.0
H277 H 0.54377 0.80755 0.46989 0.0
H278 H 0.55601 0.73 0.46787 0.0
H279 H 0.7066 0.79827 0.54461 0.0
H280 H 0.69615 0.77505 0.57853 0.0
H281 H 0.69257 0.83343 0.57191 0.0
H282 H 0.5988 0.79087 0.59059 0.0
H283 H 0.60178 0.73229 0.59694 0.0
H284 H 0.54821 0.72701 0.57555 0.0
H285 H 0.55462 0.64883 0.47791 0.0
H286 H 0.54807 0.57152 0.49773 0.0
H287 H 0.62541 0.66765 0.57405 0.0
C288 C 0.59956 0.82558 0.53492 0.0
C289 C 0.5755 0.83481 0.5122 0.0
C290 C 0.56202 0.80118 0.48764 0.0
C291 C 0.56911 0.75711 0.48619 0.0
C292 C 0.59064 0.74767 0.50929 0.0
C293 C 0.60678 0.78135 0.53305 0.0
C294 C 0.62384 0.75878 0.5557 0.0
C295 C 0.68334 0.79345 0.56312 0.0
C296 C 0.59119 0.75183 0.58118 0.0
C297 C 0.61119 0.70572 0.54143 0.0
C298 C 0.59271 0.70064 0.5146 0.0
C299 C 0.57133 0.65294 0.49846 0.0
C300 C 0.56825 0.60899 0.51003 0.0
C301 C 0.58746 0.61285 0.53749 0.0
C302 C 0.61039 0.66264 0.55304 0.0
H303 H 0.76761 0.59903 0.8439 0.0
H304 H 0.70963 0.47367 0.77777 0.0
H305 H 0.79414 0.47385 0.78052 0.0
H306 H 0.91143 0.6666 0.82451 0.0
H307 H 0.93436 0.68272 0.86015 0.0
H308 H 0.87377 0.68037 0.84932 0.0
H309 H 0.82381 0.61274 0.88506 0.0
H310 H 0.88389 0.61458 0.89581 0.0
H311 H 0.82656 0.55215 0.88429 0.0
H312 H 0.87643 0.4762 0.79564 0.0
H313 H 0.95171 0.48115 0.82165 0.0
H314 H 0.95878 0.60698 0.87738 0.0
C315 C 0.77338 0.57277 0.82946 0.0
C316 C 0.73232 0.53651 0.81057 0.0
C317 C 0.74086 0.50222 0.7922 0.0
C318 C 0.78877 0.50211 0.79356 0.0
C319 C 0.82796 0.53728 0.81299 0.0
C320 C 0.82116 0.57257 0.83036 0.0
C321 C 0.8674 0.60252 0.85116 0.0
C322 C 0.89858 0.66156 0.84597 0.0
C323 C 0.84929 0.59498 0.88082 0.0
C324 C 0.89904 0.57541 0.84423 0.0
C325 C 0.87637 0.53903 0.82163 0.0
C326 C 0.89555 0.50568 0.81281 0.0
C327 C 0.93852 0.50897 0.8277 0.0
C328 C 0.96163 0.54509 0.85132 0.0
C329 C 0.94221 0.57944 0.85926 0.0
H330 H 0.22633 0.74503 0.12747 0.0
H331 H 0.10613 0.76048 0.17158 0.0
H332 H 0.17252 0.85182 0.18871 0.0
H333 H 0.31851 0.79825 0.17859 0.0
H334 H 0.37545 0.83277 0.15852 0.0
H335 H 0.31722 0.77554 0.14321 0.0
H336 H 0.31213 0.82998 0.10458 0.0
H337 H 0.37112 0.88754 0.11951 0.0
H338 H 0.31175 0.89084 0.1134 0.0
H339 H 0.25312 0.93216 0.20838 0.0
H340 H 0.34191 0.99642 0.22881 0.0
H341 H 0.41104 0.92779 0.17354 0.0
C342 C 0.21354 0.76858 0.13968 0.0
C343 C 0.16111 0.74611 0.14801 0.0
C344 C 0.1461 0.77727 0.16484 0.0
C345 C 0.18351 0.82922 0.17456 0.0
C346 C 0.23565 0.84932 0.16722 0.0
C347 C 0.25064 0.82017 0.14991 0.0
C348 C 0.31025 0.84727 0.14871 0.0
C349 C 0.33156 0.81132 0.15781 0.0
C350 C 0.32731 0.86497 0.11983 0.0
C351 C 0.32654 0.8945 0.16933 0.0
C352 C 0.28289 0.89565 0.17921 0.0
C353 C 0.28763 0.93237 0.20039 0.0
C354 C 0.33813 0.96834 0.21205 0.0
C355 C 0.38326 0.96706 0.20272 0.0
C356 C 0.37734 0.93038 0.18066 0.0
H357 H 0.60226 0.26237 0.46154 0.0
H358 H 0.44839 0.14584 0.48671 0.0
H359 H 0.42645 0.21629 0.49708 0.0
H360 H 0.63202 0.34912 0.51265 0.0
H361 H 0.66448 0.40959 0.49558 0.0
H362 H 0.66186 0.35067 0.48037 0.0
H363 H 0.61759 0.35659 0.43567 0.0
H364 H 0.62076 0.41656 0.45041 0.0
H365 H 0.55841 0.36147 0.43706 0.0
H366 H 0.42999 0.29678 0.5163 0.0
H367 H 0.45787 0.38256 0.5422 0.0
H368 H 0.61034 0.44974 0.50607 0.0
C369 C 0.56297 0.25155 0.46785 0.0
C370 C 0.52683 0.19889 0.47321 0.0
C371 C 0.47646 0.18605 0.4824 0.0
C372 C 0.46354 0.22577 0.48813 0.0
C373 C 0.5013 0.27798 0.48438 0.0
C374 C 0.5498 0.29103 0.47399 0.0
C375 C 0.58676 0.35056 0.47667 0.0
C376 C 0.63931 0.36582 0.49229 0.0
C377 C 0.59643 0.37259 0.44826 0.0
C378 C 0.55372 0.36815 0.49306 0.0
C379 C 0.50374 0.32588 0.49617 0.0
C380 C 0.46834 0.33048 0.51336 0.0
C381 C 0.48471 0.37906 0.52824 0.0
C382 C 0.53621 0.4222 0.52606 0.0
C383 C 0.57051 0.4173 0.50761 0.0
H384 H 0.33781 0.55542 0.82075 0.0
H385 H 0.28338 0.39285 0.83863 0.0
H386 H 0.1933 0.37893 0.84365 0.0
H387 H 0.27389 0.58426 0.86901 0.0
H388 H 0.25671 0.62451 0.84943 0.0
H389 H 0.31333 0.61844 0.84114 0.0
H390 H 0.27563 0.58516 0.791 0.0
H391 H 0.21887 0.59173 0.79901 0.0
H392 H 0.20998 0.52922 0.78446 0.0
H393 H 0.11607 0.38802 0.85573 0.0
H394 H 0.05517 0.41841 0.87235 0.0
H395 H 0.15859 0.57443 0.84562 0.0
C396 C 0.3066 0.51643 0.82498 0.0
C397 C 0.31735 0.4752 0.82942 0.0
C398 C 0.27576 0.42483 0.83503 0.0
C399 C 0.22452 0.41655 0.83781 0.0
C400 C 0.21566 0.45874 0.83433 0.0
C401 C 0.25538 0.50749 0.8276 0.0
C402 C 0.23724 0.54802 0.82796 0.0
C403 C 0.27236 0.59661 0.8481 0.0
C404 C 0.2353 0.56448 0.79887 0.0
C405 C 0.1823 0.51552 0.83799 0.0
C406 C 0.17023 0.46378 0.84092 0.0
C407 C 0.12433 0.42786 0.8528 0.0
C408 C 0.09027 0.44546 0.86232 0.0
C409 C 0.10253 0.49839 0.85993 0.0
C410 C 0.14825 0.53347 0.84703 0.0
H411 H 0.83489 0.26753 0.20657 0.0
H412 H 0.7912 0.32128 0.13493 0.0
H413 H 0.70144 0.24447 0.1338 0.0
H414 H 0.74787 0.12052 0.18601 0.0
H415 H 0.73251 0.10657 0.22119 0.0
H416 H 0.79602 0.1604 0.21348 0.0
H417 H 0.78048 0.22516 0.2456 0.0
H418 H 0.71696 0.17186 0.25323 0.0
H419 H 0.72204 0.2303 0.23974 0.0
H420 H 0.61338 0.17313 0.14558 0.0
H421 H 0.53452 0.10959 0.16798 0.0
H422 H 0.63509 0.09601 0.22977 0.0
C423 C 0.80694 0.26224 0.19014 0.0
C424 C 0.82016 0.30054 0.17091 0.0
C425 C 0.78215 0.29255 0.14994 0.0
C426 C 0.73099 0.24885 0.14903 0.0
C427 C 0.71859 0.21288 0.16891 0.0
C428 C 0.75568 0.21849 0.1888 0.0
C429 C 0.73082 0.17687 0.20921 0.0
C430 C 0.75313 0.13883 0.20735 0.0
C431 C 0.738 0.20261 0.23867 0.0
C432 C 0.67352 0.1492 0.19864 0.0
C433 C 0.66744 0.17008 0.17517 0.0
C434 C 0.61769 0.15519 0.16346 0.0
C435 C 0.57295 0.1187 0.17634 0.0
C436 C 0.57808 0.09718 0.2007 0.0
C437 C 0.62935 0.11173 0.21135 0.0
H438 H 0.01978 0.58378 0.07519 0.0
H439 H 0.96949 0.41772 0.08251 0.0
H440 H 0.96916 0.40378 0.03218 0.0
H441 H 0.94112 0.56322 0.01266 0.0
H442 H 0.9909 0.62237 -0.00137 0.0
H443 H 0.98673 0.61957 0.03532 0.0
H444 H 0.08481 0.64349 0.04011 0.0
H445 H 0.08937 0.64652 0.00347 0.0
H446 H 0.10639 0.60359 0.02065 0.0
H447 H 0.97709 0.40794 0.98192 0.0
H448 H 0.99198 0.42984 0.93368 0.0
H449 H 0.03453 0.59242 0.95808 0.0
C450 C 0.00857 0.54443 0.06621 0.0
C451 C 0.99461 0.50178 0.0828 0.0
C452 C 0.98014 0.45093 0.07024 0.0
C453 C 0.97983 0.4426 0.04168 0.0
C454 C 0.99371 0.48541 0.02598 0.0
C455 C 0.00765 0.53529 0.0377 0.0
C456 C 0.0212 0.57449 0.01602 0.0
C457 C 0.98268 0.59618 0.01564 0.0
C458 C 0.07887 0.61968 0.02032 0.0
C459 C 0.01321 0.53883 0.99029 0.0
C460 C 0.99736 0.48764 0.99663 0.0
C461 C 0.98909 0.44772 0.97663 0.0
C462 C 0.99765 0.46048 0.94938 0.0
C463 C 0.01405 0.51258 0.9424 0.0
C464 C 0.02136 0.55217 0.96301 0.0
H465 H 0.52853 0.94891 0.40436 0.0
H466 H 0.49259 0.06434 0.44299 0.0
H467 H 0.49082 0.09746 0.39777 0.0
H468 H 0.60941 0.0296 0.34958 0.0
H469 H 0.58252 0.97276 0.32481 0.0
H470 H 0.58856 0.96461 0.36072 0.0
H471 H 0.48855 0.89525 0.35908 0.0
H472 H 0.48194 0.90408 0.32339 0.0
H473 H 0.4411 0.91363 0.34785 0.0
H474 H 0.4838 0.11095 0.34736 0.0
H475 H 0.4755 0.1059 0.29638 0.0
H476 H 0.51372 0.9798 0.29106 0.0
C477 C 0.52146 0.98195 0.4033 0.0
C478 C 0.51235 0.00545 0.42718 0.0
C479 C 0.50216 0.04778 0.42506 0.0
C480 C 0.50037 0.06622 0.3994 0.0
C481 C 0.50884 0.04166 0.37611 0.0
C482 C 0.51961 0.0007 0.3779 0.0
C483 C 0.52343 0.9783 0.34977 0.0
C484 C 0.57931 0.98685 0.34601 0.0
C485 C 0.48124 0.91933 0.34474 0.0
C486 C 0.51201 0.01218 0.33177 0.0
C487 C 0.50396 0.04875 0.34729 0.0
C488 C 0.49067 0.08292 0.33504 0.0
C489 C 0.48585 0.07973 0.30622 0.0
C490 C 0.4942 0.04264 0.2902 0.0
C491 C 0.50751 0.00864 0.30308 0.0
H492 H 0.59726 0.58935 0.752 0.0
H493 H 0.45608 0.43876 0.76129 0.0
H494 H 0.44798 0.41721 0.71106 0.0
H495 H 0.54816 0.61511 0.69019 0.0
H496 H 0.61151 0.64671 0.67509 0.0
H497 H 0.60797 0.64932 0.71191 0.0
H498 H 0.66887 0.60851 0.71568 0.0
H499 H 0.67279 0.60593 0.67889 0.0
H500 H 0.6509 0.54649 0.69644 0.0
H501 H 0.45375 0.41298 0.66033 0.0
H502 H 0.47226 0.426 0.6116 0.0
H503 H 0.60956 0.58007 0.63475 0.0
C504 C 0.565 0.55166 0.7434 0.0
C505 C 0.52739 0.51548 0.76035 0.0
C506 C 0.48512 0.46696 0.74851 0.0
C507 C 0.48031 0.45437 0.72009 0.0
C508 C 0.51766 0.49112 0.70387 0.0
C509 C 0.55902 0.5389 0.715 0.0
C510 C 0.59223 0.57237 0.69279 0.0
C511 C 0.58981 0.62392 0.69249 0.0
C512 C 0.64959 0.58397 0.69616 0.0
C513 C 0.56365 0.53541 0.66747 0.0
C514 C 0.52069 0.4889 0.67439 0.0
C515 C 0.4875 0.44902 0.65463 0.0
C516 C 0.4986 0.45671 0.627 0.0
C517 C 0.5428 0.5038 0.61932 0.0
C518 C 0.57546 0.54374 0.63993 0.0
H519 H 0.57364 0.08697 0.58878 0.0
H520 H 0.47602 0.91842 0.56545 0.0
H521 H 0.46037 0.90186 0.61438 0.0
H522 H 0.63419 0.07264 0.6508 0.0
H523 H 0.63564 0.12878 0.66949 0.0
H524 H 0.6394 0.12693 0.63269 0.0
H525 H 0.55853 0.14093 0.62855 0.0
H526 H 0.55412 0.14207 0.66531 0.0
H527 H 0.49771 0.09557 0.64332 0.0
H528 H 0.45339 0.90403 0.66585 0.0
H529 H 0.4612 0.92384 0.71621 0.0
H530 H 0.56459 0.09078 0.70603 0.0
C531 C 0.54907 0.04651 0.59392 0.0
C532 C 0.52577 0.00399 0.57319 0.0
C533 C 0.49427 0.95164 0.5809 0.0
C534 C 0.485 0.94186 0.60865 0.0
C535 C 0.50781 0.98479 0.62848 0.0
C536 C 0.53973 0.03601 0.6215 0.0
C537 C 0.56036 0.07502 0.6468 0.0
C538 C 0.62099 0.10244 0.65014 0.0
C539 C 0.54153 0.11579 0.64593 0.0
C540 C 0.53451 0.03785 0.66911 0.0
C541 C 0.50432 0.98598 0.6581 0.0
C542 C 0.47712 0.94446 0.67467 0.0
C543 C 0.48183 0.9561 0.70325 0.0
C544 C 0.51356 0.00883 0.71505 0.0
C545 C 0.53953 0.05021 0.69762 0.0
H546 H 0.46273 0.49794 0.92168 0.0
H547 H 0.63068 0.60738 0.91816 0.0
H548 H 0.63954 0.61894 0.96888 0.0
H549 H 0.43759 0.5601 0.98139 0.0
H550 H 0.3935 0.49857 0.99559 0.0
H551 H 0.39934 0.50064 0.95896 0.0
H552 H 0.4232 0.42594 0.95786 0.0
H553 H 0.41721 0.4235 0.99446 0.0
H554 H 0.47761 0.43412 0.97965 0.0
H555 H 0.63069 0.61924 0.01914 0.0
H556 H 0.60646 0.60297 0.06707 0.0
H557 H 0.44479 0.48926 0.03902 0.0
C558 C 0.50118 0.52461 0.9317 0.0
C559 C 0.54604 0.55226 0.9162 0.0
C560 C 0.59599 0.58594 0.9298 0.0
C561 C 0.60131 0.59291 0.95853 0.0
C562 C 0.55644 0.56512 0.97327 0.0
C563 C 0.50744 0.53104 0.96044 0.0
C564 C 0.46645 0.50342 0.98133 0.0
C565 C 0.42158 0.5165 0.97918 0.0
C566 C 0.44486 0.44318 0.97813 0.0
C567 C 0.49993 0.52825 0.00788 0.0
C568 C 0.55165 0.56379 0.00261 0.0
C569 C 0.59043 0.59133 0.02356 0.0
C570 C 0.57631 0.58167 0.05068 0.0
C571 C 0.52391 0.54453 0.05668 0.0
C572 C 0.48503 0.51805 0.03498 0.0
H573 H 0.98191 0.44977 0.24696 0.0
H574 H 0.03726 0.61728 0.24143 0.0
H575 H 0.04227 0.63085 0.29191 0.0
H576 H 0.90344 0.43233 0.30625 0.0
H577 H 0.92189 0.38861 0.32143 0.0
H578 H 0.9202 0.39082 0.28465 0.0
H579 H 0.01769 0.41229 0.28411 0.0
H580 H 0.01948 0.40974 0.32084 0.0
H581 H 0.06748 0.46819 0.30555 0.0
H582 H 0.0372 0.62603 0.34218 0.0
H583 H 0.03365 0.60604 0.39032 0.0
H584 H 0.99146 0.44362 0.3642 0.0
C585 C 0.99487 0.48921 0.25643 0.0
C586 C 0.0089 0.53245 0.24031 0.0
C587 C 0.0264 0.58363 0.25339 0.0
C588 C 0.0291 0.59171 0.28202 0.0
C589 C 0.01479 0.54834 0.2973 0.0
C590 C 0.99879 0.49824 0.2851 0.0
C591 C 0.98828 0.45921 0.30655 0.0
C592 C 0.92999 0.41514 0.30459 0.0
C593 C 0.02547 0.43601 0.30411 0.0
C594 C 0.00117 0.49544 0.33263 0.0
C595 C 0.01536 0.54636 0.3267 0.0
C596 C 0.02722 0.58658 0.34716 0.0
C597 C 0.02564 0.57482 0.37453 0.0
C598 C 0.01379 0.52355 0.38135 0.0
C599 C 0.00071 0.48322 0.35993 0.0
loop_
_geom_bond_atom_site_label_1
_geom_bond_atom_site_label_2
_geom_bond_distance
_geom_bond_site_symmetry_2
_ccdc_geom_bond_type
Zn0 O6 1.969 . S
Zn0 O7 1.965 . S
Zn0 O11 2.024 . S
Zn0 O16 1.969 . S
Zn1 O8 1.969 . S
Zn1 O14 1.969 . S
Zn1 O15 1.965 . S
Zn1 O17 2.024 . S
C2 O3 1.229 . S
C2 O11 1.058 . S
O3 C2 1.229 . S
C4 O5 1.229 . S
C4 O17 1.058 . S
O5 C4 1.229 . S
O6 Zn0 1.969 . S
O6 C9 1.267 . S
O7 Zn0 1.965 . S
O7 C18 1.260 1_455 S
O8 Zn1 1.969 . S
O8 C18 1.258 . S
C9 O6 1.267 . S
C9 O10 1.228 . S
O10 C9 1.228 . S
O11 Zn0 2.024 . S
O11 C2 1.058 . S
C12 O13 1.228 . S
C12 O14 1.267 . S
O13 C12 1.228 . S
O14 Zn1 1.969 . S
O14 C12 1.267 . S
O15 Zn1 1.965 . S
O15 C19 1.260 1_655 S
O16 Zn0 1.969 . S
O16 C19 1.258 . S
O17 Zn1 2.024 . S
O17 C4 1.058 . S
C18 O7 1.260 1_655 S
C18 O8 1.258 . S
C19 O15 1.260 1_455 S
C19 O16 1.258 . S
Zn20 O26 1.969 . S
Zn20 O27 1.965 . S
Zn20 O31 2.024 . S
Zn20 O36 1.969 . S
Zn21 O28 1.969 . S
Zn21 O34 1.969 . S
Zn21 O35 1.965 . S
Zn21 O37 2.024 . S
C22 O23 1.229 . S
C22 O31 1.058 . S
O23 C22 1.229 . S
C24 O25 1.229 . S
C24 O37 1.058 . S
O25 C24 1.229 . S
O26 Zn20 1.969 . S
O26 C29 1.267 . S
O27 Zn20 1.965 . S
O27 C38 1.260 . S
O28 Zn21 1.969 . S
O28 C38 1.258 1_565 S
C29 O26 1.267 . S
C29 O30 1.228 . S
O30 C29 1.228 . S
O31 Zn20 2.024 . S
O31 C22 1.058 . S
C32 O33 1.228 . S
C32 O34 1.267 . S
O33 C32 1.228 . S
O34 Zn21 1.969 . S
O34 C32 1.267 . S
O35 Zn21 1.965 . S
O35 C39 1.260 1_565 S
O36 Zn20 1.969 . S
O36 C39 1.258 . S
O37 Zn21 2.024 . S
O37 C24 1.058 . S
C38 O27 1.260 . S
C38 O28 1.258 1_545 S
C39 O35 1.260 1_545 S
C39 O36 1.258 . S
Zn40 O46 1.969 . S
Zn40 O47 1.965 . S
Zn40 O51 2.024 . S
Zn40 O56 1.969 . S
Zn41 O48 1.969 . S
Zn41 O54 1.969 . S
Zn41 O55 1.965 . S
Zn41 O57 2.024 . S
C42 O43 1.229 . S
C42 O51 1.058 . S
O43 C42 1.229 . S
C44 O45 1.229 . S
C44 O57 1.058 . S
O45 C44 1.229 . S
O46 Zn40 1.969 . S
O46 C49 1.267 . S
O47 Zn40 1.965 . S
O47 C58 1.260 . S
O48 Zn41 1.969 . S
O48 C58 1.258 . S
C49 O46 1.267 . S
C49 O50 1.228 . S
O50 C49 1.228 . S
O51 Zn40 2.024 . S
O51 C42 1.058 . S
C52 O53 1.228 . S
C52 O54 1.267 . S
O53 C52 1.228 . S
O54 Zn41 1.969 . S
O54 C52 1.267 . S
O55 Zn41 1.965 . S
O55 C59 1.260 . S
O56 Zn40 1.969 . S
O56 C59 1.258 . S
O57 Zn41 2.024 . S
O57 C44 1.058 . S
C58 O47 1.260 . S
C58 O48 1.258 . S
C59 O55 1.260 . S
C59 O56 1.258 . S
H60 C63 0.931 . S
H61 C66 0.928 . S
H62 C68 0.930 . S
C63 H60 0.931 . S
C63 C64 1.413 . S
C63 C65 1.360 1_565 S
C64 C63 1.413 . S
C64 C68 1.429 1_565 S
C65 C63 1.360 1_545 S
C65 C66 1.372 . S
C66 H61 0.928 . S
C66 C65 1.372 . S
C66 C67 1.404 . S
C67 C66 1.404 . S
C67 C68 1.391 . S
C68 H62 0.930 . S
C68 C64 1.429 1_545 S
C68 C67 1.391 . S
H69 C72 0.931 . S
H70 C75 0.928 . S
H71 C77 0.930 . S
C72 H69 0.931 . S
C72 C73 1.413 . S
C72 C74 1.360 . S
C73 C72 1.413 . S
C73 C77 1.429 . S
C74 C72 1.360 . S
C74 C75 1.372 . S
C75 H70 0.928 . S
C75 C74 1.372 . S
C75 C76 1.404 . S
C76 C75 1.404 . S
C76 C77 1.391 . S
C77 H71 0.930 . S
C77 C73 1.429 . S
C77 C76 1.391 . S
H78 C81 0.931 . S
H79 C84 0.928 . S
H80 C86 0.930 . S
C81 H78 0.931 . S
C81 C82 1.413 . S
C81 C83 1.360 1_655 S
C82 C81 1.413 . S
C82 C86 1.429 1_655 S
C83 C81 1.360 1_455 S
C83 C84 1.372 . S
C84 H79 0.928 . S
C84 C83 1.372 . S
C84 C85 1.404 . S
C85 C84 1.404 . S
C85 C86 1.391 . S
C86 H80 0.930 . S
C86 C82 1.429 1_455 S
C86 C85 1.391 . S
H87 C90 0.931 . S
H88 C93 0.928 . S
H89 C95 0.930 . S
C90 H87 0.931 . S
C90 C91 1.413 . S
C90 C92 1.360 1_655 S
C91 C90 1.413 . S
C91 C95 1.429 1_655 S
C92 C90 1.360 1_455 S
C92 C93 1.372 . S
C93 H88 0.928 . S
C93 C92 1.372 . S
C93 C94 1.404 . S
C94 C93 1.404 . S
C94 C95 1.391 . S
C95 H89 0.930 . S
C95 C91 1.429 1_455 S
C95 C94 1.391 . S
H96 C99 0.931 . S
H97 C102 0.928 . S
H98 C104 0.930 . S
C99 H96 0.931 . S
C99 C100 1.413 . S
C99 C101 1.360 . S
C100 C99 1.413 . S
C100 C104 1.429 . S
C101 C99 1.360 . S
C101 C102 1.372 1_545 S
C102 H97 0.928 . S
C102 C101 1.372 1_565 S
C102 C103 1.404 . S
C103 C102 1.404 . S
C103 C104 1.391 1_565 S
C104 H98 0.930 . S
C104 C100 1.429 . S
C104 C103 1.391 1_545 S
H105 C108 0.931 . S
H106 C111 0.928 . S
H107 C113 0.930 . S
C108 H105 0.931 . S
C108 C109 1.413 . S
C108 C110 1.360 . S
C109 C108 1.413 . S
C109 C113 1.429 . S
C110 C108 1.360 . S
C110 C111 1.372 . S
C111 H106 0.928 . S
C111 C110 1.372 . S
C111 C112 1.404 . S
C112 C111 1.404 . S
C112 C113 1.391 . S
C113 H107 0.930 . S
C113 C109 1.429 . S
C113 C112 1.391 . S
H114 C126 0.930 . S
H115 C128 0.930 . S
H116 C129 0.930 . S
H117 C133 0.959 . S
H118 C133 0.959 . S
H119 C133 0.961 . S
H120 C134 0.960 . S
H121 C134 0.961 . S
H122 C134 0.959 . S
H123 C137 0.929 . S
H124 C138 0.931 . S
H125 C140 0.930 . S
C126 H114 0.930 . S
C126 C127 1.399 . S
C126 C131 1.399 . S
C127 C126 1.399 . S
C127 C128 1.376 . S
C128 H115 0.930 . S
C128 C127 1.376 . S
C128 C129 1.388 . S
C129 H116 0.930 . S
C129 C128 1.388 . S
C129 C130 1.390 . S
C130 C129 1.390 . S
C130 C131 1.394 . S
C130 C136 1.465 . S
C131 C126 1.399 . S
C131 C130 1.394 . S
C131 C132 1.516 . S
C132 C131 1.516 . S
C132 C133 1.502 . S
C132 C134 1.561 . S
C132 C135 1.526 . S
C133 H117 0.959 . S
C133 H118 0.959 . S
C133 H119 0.961 . S
C133 C132 1.502 . S
C134 H120 0.960 . S
C134 H121 0.961 . S
C134 H122 0.959 . S
C134 C132 1.561 . S
C135 C132 1.526 . S
C135 C136 1.396 . S
C135 C140 1.390 . S
C136 C130 1.465 . S
C136 C135 1.396 . S
C136 C137 1.399 . S
C137 H123 0.929 . S
C137 C136 1.399 . S
C137 C138 1.385 . S
C138 H124 0.931 . S
C138 C137 1.385 . S
C138 C139 1.389 . S
C139 C138 1.389 . S
C139 C140 1.387 . S
C140 H125 0.930 . S
C140 C135 1.390 . S
C140 C139 1.387 . S
H141 C153 0.930 . S
H142 C155 0.930 . S
H143 C156 0.930 . S
H144 C160 0.959 . S
H145 C160 0.959 . S
H146 C160 0.961 . S
H147 C161 0.960 . S
H148 C161 0.961 . S
H149 C161 0.959 . S
H150 C164 0.929 . S
H151 C165 0.931 . S
H152 C167 0.930 . S
C153 H141 0.930 . S
C153 C154 1.399 . S
C153 C158 1.399 . S
C154 C153 1.399 . S
C154 C155 1.376 . S
C155 H142 0.930 . S
C155 C154 1.376 . S
C155 C156 1.388 . S
C156 H143 0.930 . S
C156 C155 1.388 . S
C156 C157 1.390 . S
C157 C156 1.390 . S
C157 C158 1.394 . S
C157 C163 1.465 . S
C158 C153 1.399 . S
C158 C157 1.394 . S
C158 C159 1.516 . S
C159 C158 1.516 . S
C159 C160 1.502 . S
C159 C161 1.561 . S
C159 C162 1.526 . S
C160 H144 0.959 . S
C160 H145 0.959 . S
C160 H146 0.961 . S
C160 C159 1.502 . S
C161 H147 0.960 . S
C161 H148 0.961 . S
C161 H149 0.959 . S
C161 C159 1.561 . S
C162 C159 1.526 . S
C162 C163 1.396 . S
C162 C167 1.390 . S
C163 C157 1.465 . S
C163 C162 1.396 . S
C163 C164 1.399 . S
C164 H150 0.929 . S
C164 C163 1.399 . S
C164 C165 1.385 . S
C165 H151 0.931 . S
C165 C164 1.385 . S
C165 C166 1.389 . S
C166 C165 1.389 . S
C166 C167 1.387 . S
C167 H152 0.930 . S
C167 C162 1.390 . S
C167 C166 1.387 . S
H168 C180 0.930 . S
H169 C182 0.930 . S
H170 C183 0.930 . S
H171 C187 0.959 . S
H172 C187 0.959 . S
H173 C187 0.961 . S
H174 C188 0.960 . S
H175 C188 0.961 . S
H176 C188 0.959 . S
H177 C191 0.929 . S
H178 C192 0.931 . S
H179 C194 0.930 . S
C180 H168 0.930 . S
C180 C181 1.399 . S
C180 C185 1.399 . S
C181 C180 1.399 . S
C181 C182 1.376 . S
C182 H169 0.930 . S
C182 C181 1.376 . S
C182 C183 1.388 . S
C183 H170 0.930 . S
C183 C182 1.388 . S
C183 C184 1.390 . S
C184 C183 1.390 . S
C184 C185 1.394 . S
C184 C190 1.465 . S
C185 C180 1.399 . S
C185 C184 1.394 . S
C185 C186 1.516 . S
C186 C185 1.516 . S
C186 C187 1.502 . S
C186 C188 1.561 . S
C186 C189 1.526 . S
C187 H171 0.959 . S
C187 H172 0.959 . S
C187 H173 0.961 . S
C187 C186 1.502 . S
C188 H174 0.960 . S
C188 H175 0.961 . S
C188 H176 0.959 . S
C188 C186 1.561 . S
C189 C186 1.526 . S
C189 C190 1.396 . S
C189 C194 1.390 . S
C190 C184 1.465 . S
C190 C189 1.396 . S
C190 C191 1.399 . S
C191 H177 0.929 . S
C191 C190 1.399 . S
C191 C192 1.385 . S
C192 H178 0.931 . S
C192 C191 1.385 . S
C192 C193 1.389 . S
C193 C192 1.389 . S
C193 C194 1.387 . S
C194 H179 0.930 . S
C194 C189 1.390 . S
C194 C193 1.387 . S
H195 C207 0.930 . S
H196 C209 0.930 . S
H197 C210 0.930 . S
H198 C214 0.959 . S
H199 C214 0.959 . S
H200 C214 0.961 . S
H201 C215 0.960 . S
H202 C215 0.961 . S
H203 C215 0.959 . S
H204 C218 0.929 . S
H205 C219 0.931 . S
H206 C221 0.930 . S
C207 H195 0.930 . S
C207 C208 1.399 . S
C207 C212 1.399 . S
C208 C207 1.399 . S
C208 C209 1.376 . S
C209 H196 0.930 . S
C209 C208 1.376 . S
C209 C210 1.388 . S
C210 H197 0.930 . S
C210 C209 1.388 . S
C210 C211 1.390 . S
C211 C210 1.390 . S
C211 C212 1.394 . S
C211 C217 1.465 . S
C212 C207 1.399 . S
C212 C211 1.394 . S
C212 C213 1.516 . S
C213 C212 1.516 . S
C213 C214 1.502 . S
C213 C215 1.561 . S
C213 C216 1.526 . S
C214 H198 0.959 . S
C214 H199 0.959 . S
C214 H200 0.961 . S
C214 C213 1.502 . S
C215 H201 0.960 . S
C215 H202 0.961 . S
C215 H203 0.959 . S
C215 C213 1.561 . S
C216 C213 1.526 . S
C216 C217 1.396 . S
C216 C221 1.390 . S
C217 C211 1.465 . S
C217 C216 1.396 . S
C217 C218 1.399 . S
C218 H204 0.929 . S
C218 C217 1.399 . S
C218 C219 1.385 . S
C219 H205 0.931 . S
C219 C218 1.385 . S
C219 C220 1.389 . S
C220 C219 1.389 . S
C220 C221 1.387 . S
C221 H206 0.930 . S
C221 C216 1.390 . S
C221 C220 1.387 . S
H222 C234 0.930 . S
H223 C236 0.930 . S
H224 C237 0.930 . S
H225 C241 0.959 . S
H226 C241 0.959 . S
H227 C241 0.961 . S
H228 C242 0.960 . S
H229 C242 0.961 . S
H230 C242 0.959 . S
H231 C245 0.929 . S
H232 C246 0.931 . S
H233 C248 0.930 . S
C234 H222 0.930 . S
C234 C235 1.399 . S
C234 C239 1.399 . S
C235 C234 1.399 . S
C235 C236 1.376 . S
C236 H223 0.930 . S
C236 C235 1.376 . S
C236 C237 1.388 . S
C237 H224 0.930 . S
C237 C236 1.388 . S
C237 C238 1.390 . S
C238 C237 1.390 . S
C238 C239 1.394 . S
C238 C244 1.465 . S
C239 C234 1.399 . S
C239 C238 1.394 . S
C239 C240 1.516 . S
C240 C239 1.516 . S
C240 C241 1.502 . S
C240 C242 1.561 . S
C240 C243 1.526 . S
C241 H225 0.959 . S
C241 H226 0.959 . S
C241 H227 0.961 . S
C241 C240 1.502 . S
C242 H228 0.960 . S
C242 H229 0.961 . S
C242 H230 0.959 . S
C242 C240 1.561 . S
C243 C240 1.526 . S
C243 C244 1.396 . S
C243 C248 1.390 . S
C244 C238 1.465 . S
C244 C243 1.396 . S
C244 C245 1.399 . S
C245 H231 0.929 . S
C245 C244 1.399 . S
C245 C246 1.385 . S
C246 H232 0.931 . S
C246 C245 1.385 . S
C246 C247 1.389 . S
C247 C246 1.389 . S
C247 C248 1.387 . S
C248 H233 0.930 . S
C248 C243 1.390 . S
C248 C247 1.387 . S
H249 C261 0.930 . S
H250 C263 0.930 . S
H251 C264 0.930 . S
H252 C268 0.959 . S
H253 C268 0.959 . S
H254 C268 0.961 . S
H255 C269 0.960 . S
H256 C269 0.961 . S
H257 C269 0.959 . S
H258 C272 0.929 . S
H259 C273 0.931 . S
H260 C275 0.930 . S
C261 H249 0.930 . S
C261 C262 1.399 . S
C261 C266 1.399 . S
C262 C261 1.399 . S
C262 C263 1.376 . S
C263 H250 0.930 . S
C263 C262 1.376 . S
C263 C264 1.388 . S
C264 H251 0.930 . S
C264 C263 1.388 . S
C264 C265 1.390 . S
C265 C264 1.390 . S
C265 C266 1.394 . S
C265 C271 1.465 . S
C266 C261 1.399 . S
C266 C265 1.394 . S
C266 C267 1.516 . S
C267 C266 1.516 . S
C267 C268 1.502 . S
C267 C269 1.561 . S
C267 C270 1.526 . S
C268 H252 0.959 . S
C268 H253 0.959 . S
C268 H254 0.961 . S
C268 C267 1.502 . S
C269 H255 0.960 . S
C269 H256 0.961 . S
C269 H257 0.959 . S
C269 C267 1.561 . S
C270 C267 1.526 . S
C270 C271 1.396 . S
C270 C275 1.390 . S
C271 C265 1.465 . S
C271 C270 1.396 . S
C271 C272 1.399 . S
C272 H258 0.929 . S
C272 C271 1.399 . S
C272 C273 1.385 . S
C273 H259 0.931 . S
C273 C272 1.385 . S
C273 C274 1.389 . S
C274 C273 1.389 . S
C274 C275 1.387 . S
C275 H260 0.930 . S
C275 C270 1.390 . S
C275 C274 1.387 . S
H276 C288 0.930 . S
H277 C290 0.930 . S
H278 C291 0.930 . S
H279 C295 0.959 . S
H280 C295 0.959 . S
H281 C295 0.961 . S
H282 C296 0.960 . S
H283 C296 0.961 . S
H284 C296 0.959 . S
H285 C299 0.929 . S
H286 C300 0.931 . S
H287 C302 0.930 . S
C288 H276 0.930 . S
C288 C289 1.399 . S
C288 C293 1.399 . S
C289 C288 1.399 . S
C289 C290 1.376 . S
C290 H277 0.930 . S
C290 C289 1.376 . S
C290 C291 1.388 . S
C291 H278 0.930 . S
C291 C290 1.388 . S
C291 C292 1.390 . S
C292 C291 1.390 . S
C292 C293 1.394 . S
C292 C298 1.465 . S
C293 C288 1.399 . S
C293 C292 1.394 . S
C293 C294 1.516 . S
C294 C293 1.516 . S
C294 C295 1.502 . S
C294 C296 1.561 . S
C294 C297 1.526 . S
C295 H279 0.959 . S
C295 H280 0.959 . S
C295 H281 0.961 . S
C295 C294 1.502 . S
C296 H282 0.960 . S
C296 H283 0.961 . S
C296 H284 0.959 . S
C296 C294 1.561 . S
C297 C294 1.526 . S
C297 C298 1.396 . S
C297 C302 1.390 . S
C298 C292 1.465 . S
C298 C297 1.396 . S
C298 C299 1.399 . S
C299 H285 0.929 . S
C299 C298 1.399 . S
C299 C300 1.385 . S
C300 H286 0.931 . S
C300 C299 1.385 . S
C300 C301 1.389 . S
C301 C300 1.389 . S
C301 C302 1.387 . S
C302 H287 0.930 . S
C302 C297 1.390 . S
C302 C301 1.387 . S
H303 C315 0.930 . S
H304 C317 0.930 . S
H305 C318 0.930 . S
H306 C322 0.959 . S
H307 C322 0.959 . S
H308 C322 0.961 . S
H309 C323 0.960 . S
H310 C323 0.961 . S
H311 C323 0.959 . S
H312 C326 0.929 . S
H313 C327 0.931 . S
H314 C329 0.930 . S
C315 H303 0.930 . S
C315 C316 1.399 . S
C315 C320 1.399 . S
C316 C315 1.399 . S
C316 C317 1.376 . S
C317 H304 0.930 . S
C317 C316 1.376 . S
C317 C318 1.388 . S
C318 H305 0.930 . S
C318 C317 1.388 . S
C318 C319 1.390 . S
C319 C318 1.390 . S
C319 C320 1.394 . S
C319 C325 1.465 . S
C320 C315 1.399 . S
C320 C319 1.394 . S
C320 C321 1.516 . S
C321 C320 1.516 . S
C321 C322 1.502 . S
C321 C323 1.561 . S
C321 C324 1.526 . S
C322 H306 0.959 . S
C322 H307 0.959 . S
C322 H308 0.961 . S
C322 C321 1.502 . S
C323 H309 0.960 . S
C323 H310 0.961 . S
C323 H311 0.959 . S
C323 C321 1.561 . S
C324 C321 1.526 . S
C324 C325 1.396 . S
C324 C329 1.390 . S
C325 C319 1.465 . S
C325 C324 1.396 . S
C325 C326 1.399 . S
C326 H312 0.929 . S
C326 C325 1.399 . S
C326 C327 1.385 . S
C327 H313 0.931 . S
C327 C326 1.385 . S
C327 C328 1.389 . S
C328 C327 1.389 . S
C328 C329 1.387 . S
C329 H314 0.930 . S
C329 C324 1.390 . S
C329 C328 1.387 . S
H330 C342 0.930 . S
H331 C344 0.930 . S
H332 C345 0.930 . S
H333 C349 0.959 . S
H334 C349 0.959 . S
H335 C349 0.961 . S
H336 C350 0.960 . S
H337 C350 0.961 . S
H338 C350 0.959 . S
H339 C353 0.929 . S
H340 C354 0.931 . S
H341 C356 0.930 . S
C342 H330 0.930 . S
C342 C343 1.399 . S
C342 C347 1.399 . S
C343 C342 1.399 . S
C343 C344 1.376 . S
C344 H331 0.930 . S
C344 C343 1.376 . S
C344 C345 1.388 . S
C345 H332 0.930 . S
C345 C344 1.388 . S
C345 C346 1.390 . S
C346 C345 1.390 . S
C346 C347 1.394 . S
C346 C352 1.465 . S
C347 C342 1.399 . S
C347 C346 1.394 . S
C347 C348 1.516 . S
C348 C347 1.516 . S
C348 C349 1.502 . S
C348 C350 1.561 . S
C348 C351 1.526 . S
C349 H333 0.959 . S
C349 H334 0.959 . S
C349 H335 0.961 . S
C349 C348 1.502 . S
C350 H336 0.960 . S
C350 H337 0.961 . S
C350 H338 0.959 . S
C350 C348 1.561 . S
C351 C348 1.526 . S
C351 C352 1.396 . S
C351 C356 1.390 . S
C352 C346 1.465 . S
C352 C351 1.396 . S
C352 C353 1.399 . S
C353 H339 0.929 . S
C353 C352 1.399 . S
C353 C354 1.385 . S
C354 H340 0.931 . S
C354 C353 1.385 . S
C354 C355 1.389 . S
C355 C354 1.389 . S
C355 C356 1.387 . S
C356 H341 0.930 . S
C356 C351 1.390 . S
C356 C355 1.387 . S
H357 C369 0.930 . S
H358 C371 0.930 . S
H359 C372 0.930 . S
H360 C376 0.959 . S
H361 C376 0.959 . S
H362 C376 0.961 . S
H363 C377 0.960 . S
H364 C377 0.961 . S
H365 C377 0.959 . S
H366 C380 0.929 . S
H367 C381 0.931 . S
H368 C383 0.930 . S
C369 H357 0.930 . S
C369 C370 1.399 . S
C369 C374 1.399 . S
C370 C369 1.399 . S
C370 C371 1.376 . S
C371 H358 0.930 . S
C371 C370 1.376 . S
C371 C372 1.388 . S
C372 H359 0.930 . S
C372 C371 1.388 . S
C372 C373 1.390 . S
C373 C372 1.390 . S
C373 C374 1.394 . S
C373 C379 1.465 . S
C374 C369 1.399 . S
C374 C373 1.394 . S
C374 C375 1.516 . S
C375 C374 1.516 . S
C375 C376 1.502 . S
C375 C377 1.561 . S
C375 C378 1.526 . S
C376 H360 0.959 . S
C376 H361 0.959 . S
C376 H362 0.961 . S
C376 C375 1.502 . S
C377 H363 0.960 . S
C377 H364 0.961 . S
C377 H365 0.959 . S
C377 C375 1.561 . S
C378 C375 1.526 . S
C378 C379 1.396 . S
C378 C383 1.390 . S
C379 C373 1.465 . S
C379 C378 1.396 . S
C379 C380 1.399 . S
C380 H366 0.929 . S
C380 C379 1.399 . S
C380 C381 1.385 . S
C381 H367 0.931 . S
C381 C380 1.385 . S
C381 C382 1.389 . S
C382 C381 1.389 . S
C382 C383 1.387 . S
C383 H368 0.930 . S
C383 C378 1.390 . S
C383 C382 1.387 . S
H384 C396 0.930 . S
H385 C398 0.930 . S
H386 C399 0.930 . S
H387 C403 0.959 . S
H388 C403 0.959 . S
H389 C403 0.961 . S
H390 C404 0.960 . S
H391 C404 0.961 . S
H392 C404 0.959 . S
H393 C407 0.929 . S
H394 C408 0.931 . S
H395 C410 0.930 . S
C396 H384 0.930 . S
C396 C397 1.399 . S
C396 C401 1.399 . S
C397 C396 1.399 . S
C397 C398 1.376 . S
C398 H385 0.930 . S
C398 C397 1.376 . S
C398 C399 1.388 . S
C399 H386 0.930 . S
C399 C398 1.388 . S
C399 C400 1.390 . S
C400 C399 1.390 . S
C400 C401 1.394 . S
C400 C406 1.465 . S
C401 C396 1.399 . S
C401 C400 1.394 . S
C401 C402 1.516 . S
C402 C401 1.516 . S
C402 C403 1.502 . S
C402 C404 1.561 . S
C402 C405 1.526 . S
C403 H387 0.959 . S
C403 H388 0.959 . S
C403 H389 0.961 . S
C403 C402 1.502 . S
C404 H390 0.960 . S
C404 H391 0.961 . S
C404 H392 0.959 . S
C404 C402 1.561 . S
C405 C402 1.526 . S
C405 C406 1.396 . S
C405 C410 1.390 . S
C406 C400 1.465 . S
C406 C405 1.396 . S
C406 C407 1.399 . S
C407 H393 0.929 . S
C407 C406 1.399 . S
C407 C408 1.385 . S
C408 H394 0.931 . S
C408 C407 1.385 . S
C408 C409 1.389 . S
C409 C408 1.389 . S
C409 C410 1.387 . S
C410 H395 0.930 . S
C410 C405 1.390 . S
C410 C409 1.387 . S
H411 C423 0.930 . S
H412 C425 0.930 . S
H413 C426 0.930 . S
H414 C430 0.959 . S
H415 C430 0.959 . S
H416 C430 0.961 . S
H417 C431 0.960 . S
H418 C431 0.961 . S
H419 C431 0.959 . S
H420 C434 0.929 . S
H421 C435 0.931 . S
H422 C437 0.930 . S
C423 H411 0.930 . S
C423 C424 1.399 . S
C423 C428 1.399 . S
C424 C423 1.399 . S
C424 C425 1.376 . S
C425 H412 0.930 . S
C425 C424 1.376 . S
C425 C426 1.388 . S
C426 H413 0.930 . S
C426 C425 1.388 . S
C426 C427 1.390 . S
C427 C426 1.390 . S
C427 C428 1.394 . S
C427 C433 1.465 . S
C428 C423 1.399 . S
C428 C427 1.394 . S
C428 C429 1.516 . S
C429 C428 1.516 . S
C429 C430 1.502 . S
C429 C431 1.561 . S
C429 C432 1.526 . S
C430 H414 0.959 . S
C430 H415 0.959 . S
C430 H416 0.961 . S
C430 C429 1.502 . S
C431 H417 0.960 . S
C431 H418 0.961 . S
C431 H419 0.959 . S
C431 C429 1.561 . S
C432 C429 1.526 . S
C432 C433 1.396 . S
C432 C437 1.390 . S
C433 C427 1.465 . S
C433 C432 1.396 . S
C433 C434 1.399 . S
C434 H420 0.929 . S
C434 C433 1.399 . S
C434 C435 1.385 . S
C435 H421 0.931 . S
C435 C434 1.385 . S
C435 C436 1.389 . S
C436 C435 1.389 . S
C436 C437 1.387 . S
C437 H422 0.930 . S
C437 C432 1.390 . S
C437 C436 1.387 . S
H438 C450 0.930 . S
H439 C452 0.930 1_655 S
H440 C453 0.930 . S
H441 C457 0.959 1_655 S
H442 C457 0.959 . S
H443 C457 0.961 . S
H444 C458 0.960 . S
H445 C458 0.961 . S
H446 C458 0.959 . S
H447 C461 0.929 . S
H448 C462 0.931 . S
H449 C464 0.930 . S
C450 H438 0.930 . S
C450 C451 1.399 . S
C450 C455 1.399 . S
C451 C450 1.399 . S
C451 C452 1.376 . S
C452 H439 0.930 1_455 S
C452 C451 1.376 . S
C452 C453 1.388 . S
C453 H440 0.930 . S
C453 C452 1.388 . S
C453 C454 1.390 . S
C454 C453 1.390 . S
C454 C455 1.394 . S
C454 C460 1.465 . S
C455 C450 1.399 . S
C455 C454 1.394 . S
C455 C456 1.516 . S
C456 C455 1.516 . S
C456 C457 1.502 . S
C456 C458 1.561 . S
C456 C459 1.526 . S
C457 H441 0.959 1_455 S
C457 H442 0.959 . S
C457 H443 0.961 . S
C457 C456 1.502 . S
C458 H444 0.960 . S
C458 H445 0.961 . S
C458 H446 0.959 . S
C458 C456 1.561 . S
C459 C456 1.526 . S
C459 C460 1.396 . S
C459 C464 1.390 1_554 S
C460 C454 1.465 . S
C460 C459 1.396 . S
C460 C461 1.399 1_554 S
C461 H447 0.929 . S
C461 C460 1.399 1_556 S
C461 C462 1.385 . S
C462 H448 0.931 . S
C462 C461 1.385 . S
C462 C463 1.389 . S
C463 C462 1.389 . S
C463 C464 1.387 . S
C464 H449 0.930 . S
C464 C459 1.390 1_556 S
C464 C463 1.387 . S
H465 C477 0.930 . S
H466 C479 0.930 . S
H467 C480 0.930 . S
H468 C484 0.959 . S
H469 C484 0.959 . S
H470 C484 0.961 . S
H471 C485 0.960 . S
H472 C485 0.961 . S
H473 C485 0.959 . S
H474 C488 0.929 . S
H475 C489 0.931 . S
H476 C491 0.930 . S
C477 H465 0.930 . S
C477 C478 1.399 1_565 S
C477 C482 1.399 . S
C478 C477 1.399 1_545 S
C478 C479 1.376 . S
C479 H466 0.930 . S
C479 C478 1.376 . S
C479 C480 1.388 . S
C480 H467 0.930 . S
C480 C479 1.388 . S
C480 C481 1.390 . S
C481 C480 1.390 . S
C481 C482 1.394 1_545 S
C481 C487 1.465 . S
C482 C477 1.399 . S
C482 C481 1.394 1_565 S
C482 C483 1.516 . S
C483 C482 1.516 . S
C483 C484 1.502 . S
C483 C485 1.561 . S
C483 C486 1.527 1_565 S
C484 H468 0.959 . S
C484 H469 0.959 . S
C484 H470 0.961 . S
C484 C483 1.502 . S
C485 H471 0.960 . S
C485 H472 0.961 . S
C485 H473 0.959 . S
C485 C483 1.561 . S
C486 C483 1.527 1_545 S
C486 C487 1.395 . S
C486 C491 1.390 1_545 S
C487 C481 1.465 . S
C487 C486 1.395 . S
C487 C488 1.399 . S
C488 H474 0.929 . S
C488 C487 1.399 . S
C488 C489 1.385 . S
C489 H475 0.931 . S
C489 C488 1.385 . S
C489 C490 1.389 . S
C490 C489 1.389 . S
C490 C491 1.387 1_545 S
C491 H476 0.930 . S
C491 C486 1.390 1_565 S
C491 C490 1.387 1_565 S
H492 C504 0.930 . S
H493 C506 0.930 . S
H494 C507 0.930 . S
H495 C511 0.959 . S
H496 C511 0.959 . S
H497 C511 0.961 . S
H498 C512 0.960 . S
H499 C512 0.961 . S
H500 C512 0.959 . S
H501 C515 0.929 . S
H502 C516 0.931 . S
H503 C518 0.930 . S
C504 H492 0.930 . S
C504 C505 1.399 . S
C504 C509 1.399 . S
C505 C504 1.399 . S
C505 C506 1.376 . S
C506 H493 0.930 . S
C506 C505 1.376 . S
C506 C507 1.388 . S
C507 H494 0.930 . S
C507 C506 1.388 . S
C507 C508 1.390 . S
C508 C507 1.390 . S
C508 C509 1.394 . S
C508 C514 1.465 . S
C509 C504 1.399 . S
C509 C508 1.394 . S
C509 C510 1.516 . S
C510 C509 1.516 . S
C510 C511 1.502 . S
C510 C512 1.561 . S
C510 C513 1.526 . S
C511 H495 0.959 . S
C511 H496 0.959 . S
C511 H497 0.961 . S
C511 C510 1.502 . S
C512 H498 0.960 . S
C512 H499 0.961 . S
C512 H500 0.959 . S
C512 C510 1.561 . S
C513 C510 1.526 . S
C513 C514 1.396 . S
C513 C518 1.390 . S
C514 C508 1.465 . S
C514 C513 1.396 . S
C514 C515 1.399 . S
C515 H501 0.929 . S
C515 C514 1.399 . S
C515 C516 1.385 . S
C516 H502 0.931 . S
C516 C515 1.385 . S
C516 C517 1.389 . S
C517 C516 1.389 . S
C517 C518 1.387 . S
C518 H503 0.930 . S
C518 C513 1.390 . S
C518 C517 1.387 . S
H519 C531 0.930 . S
H520 C533 0.930 . S
H521 C534 0.930 . S
H522 C538 0.959 . S
H523 C538 0.959 . S
H524 C538 0.961 . S
H525 C539 0.960 . S
H526 C539 0.961 . S
H527 C539 0.959 . S
H528 C542 0.929 . S
H529 C543 0.931 . S
H530 C545 0.930 . S
C531 H519 0.930 . S
C531 C532 1.399 . S
C531 C536 1.399 . S
C532 C531 1.399 . S
C532 C533 1.376 1_545 S
C533 H520 0.930 . S
C533 C532 1.376 1_565 S
C533 C534 1.388 . S
C534 H521 0.930 . S
C534 C533 1.388 . S
C534 C535 1.390 . S
C535 C534 1.390 . S
C535 C536 1.394 1_565 S
C535 C541 1.465 . S
C536 C531 1.399 . S
C536 C535 1.394 1_545 S
C536 C537 1.516 . S
C537 C536 1.516 . S
C537 C538 1.502 . S
C537 C539 1.561 . S
C537 C540 1.526 . S
C538 H522 0.959 . S
C538 H523 0.959 . S
C538 H524 0.961 . S
C538 C537 1.502 . S
C539 H525 0.960 . S
C539 H526 0.961 . S
C539 H527 0.959 . S
C539 C537 1.561 . S
C540 C537 1.526 . S
C540 C541 1.396 1_545 S
C540 C545 1.390 . S
C541 C535 1.465 . S
C541 C540 1.396 1_565 S
C541 C542 1.399 . S
C542 H528 0.929 . S
C542 C541 1.399 . S
C542 C543 1.385 . S
C543 H529 0.931 . S
C543 C542 1.385 . S
C543 C544 1.389 1_565 S
C544 C543 1.389 1_545 S
C544 C545 1.387 . S
C545 H530 0.930 . S
C545 C540 1.390 . S
C545 C544 1.387 . S
H546 C558 0.930 . S
H547 C560 0.930 . S
H548 C561 0.930 . S
H549 C565 0.959 . S
H550 C565 0.959 . S
H551 C565 0.961 . S
H552 C566 0.960 . S
H553 C566 0.961 . S
H554 C566 0.959 . S
H555 C569 0.929 . S
H556 C570 0.931 . S
H557 C572 0.930 . S
C558 H546 0.930 . S
C558 C559 1.399 . S
C558 C563 1.399 . S
C559 C558 1.399 . S
C559 C560 1.376 . S
C560 H547 0.930 . S
C560 C559 1.376 . S
C560 C561 1.388 . S
C561 H548 0.930 . S
C561 C560 1.388 . S
C561 C562 1.390 . S
C562 C561 1.390 . S
C562 C563 1.394 . S
C562 C568 1.465 . S
C563 C558 1.399 . S
C563 C562 1.394 . S
C563 C564 1.516 . S
C564 C563 1.516 . S
C564 C565 1.502 . S
C564 C566 1.561 . S
C564 C567 1.526 . S
C565 H549 0.959 . S
C565 H550 0.959 . S
C565 H551 0.961 . S
C565 C564 1.502 . S
C566 H552 0.960 . S
C566 H553 0.961 . S
C566 H554 0.959 . S
C566 C564 1.561 . S
C567 C564 1.526 . S
C567 C568 1.396 . S
C567 C572 1.390 1_556 S
C568 C562 1.465 . S
C568 C567 1.396 . S
C568 C569 1.399 1_556 S
C569 H555 0.929 . S
C569 C568 1.399 1_554 S
C569 C570 1.385 . S
C570 H556 0.931 . S
C570 C569 1.385 . S
C570 C571 1.389 . S
C571 C570 1.389 . S
C571 C572 1.387 . S
C572 H557 0.930 . S
C572 C567 1.390 1_554 S
C572 C571 1.387 . S
H573 C585 0.930 . S
H574 C587 0.930 . S
H575 C588 0.930 . S
H576 C592 0.959 . S
H577 C592 0.959 . S
H578 C592 0.961 . S
H579 C593 0.960 . S
H580 C593 0.961 . S
H581 C593 0.959 1_455 S
H582 C596 0.929 . S
H583 C597 0.931 . S
H584 C599 0.930 . S
C585 H573 0.930 . S
C585 C586 1.399 1_655 S
C585 C590 1.399 . S
C586 C585 1.399 1_455 S
C586 C587 1.376 . S
C587 H574 0.930 . S
C587 C586 1.376 . S
C587 C588 1.388 . S
C588 H575 0.930 . S
C588 C587 1.388 . S
C588 C589 1.390 . S
C589 C588 1.390 . S
C589 C590 1.394 1_455 S
C589 C595 1.465 . S
C590 C585 1.399 . S
C590 C589 1.394 1_655 S
C590 C591 1.516 . S
C591 C590 1.516 . S
C591 C592 1.502 . S
C591 C593 1.561 . S
C591 C594 1.526 . S
C592 H576 0.959 . S
C592 H577 0.959 . S
C592 H578 0.961 . S
C592 C591 1.502 . S
C593 H579 0.960 . S
C593 H580 0.961 . S
C593 H581 0.959 1_655 S
C593 C591 1.561 . S
C594 C591 1.526 . S
C594 C595 1.396 1_655 S
C594 C599 1.390 . S
C595 C589 1.465 . S
C595 C594 1.396 1_455 S
C595 C596 1.399 . S
C596 H582 0.929 . S
C596 C595 1.399 . S
C596 C597 1.385 . S
C597 H583 0.931 . S
C597 C596 1.385 . S
C597 C598 1.389 . S
C598 C597 1.389 . S
C598 C599 1.387 1_455 S
C599 H584 0.930 . S
C599 C594 1.390 . S
C599 C598 1.387 1_655 S
C127 C2 1.292 . S
C139 C109 1.425 . S
C154 C22 1.392 . S
C166 C91 1.439 . S
C181 C44 1.358 . S
C193 C103 1.413 . S
C208 C4 1.482 . S
C220 C112 1.532 . S
C247 C94 1.509 . S
C235 C24 1.478 . S
C274 C100 1.538 . S
C262 C42 1.401 . S
C289 C32 1.241 . S
C301 C73 1.295 . S
C316 C49 1.203 . S
C328 C82 1.255 . S
C343 C9 1.258 . S
C355 C64 1.245 . S
C382 C76 1.223 . S
C370 C29 1.227 . S
C409 C85 1.230 . S
C397 C52 1.228 . S
C424 C12 1.165 . S
C436 C67 1.266 . S
C463 C83 1.431 . S
C451 C18 1.435 1_455 S
C478 C38 1.414 . S
C490 C65 1.436 . S
C505 C58 1.438 . S
C517 C74 1.432 . S
C544 C101 1.504 . S
C532 C39 1.502 . S
C571 C110 1.492 . S
C559 C59 1.469 . S
C586 C19 1.443 . S
C598 C92 1.491 . S
