# Generated by pormake.
# Topology eea, (3,6)-cn, num edge types: 1
# Building blocks:
#     Node 0, Type 0, BuildingBlock: BETDIP_clean_linker_0, # of connection points: 3
#     Node 1, Type 0, BuildingBlock: BETDIP_clean_linker_0, # of connection points: 3
#     Node 2, Type 0, BuildingBlock: BETDIP_clean_linker_0, # of connection points: 3
#     Node 3, Type 0, BuildingBlock: BETDIP_clean_linker_0, # of connection points: 3
#     Node 4, Type 0, BuildingBlock: BETDIP_clean_linker_0, # of connection points: 3
#     Node 5, Type 0, BuildingBlock: BETDIP_clean_linker_0, # of connection points: 3
#     Node 6, Type 0, BuildingBlock: BETDIP_clean_linker_0, # of connection points: 3
#     Node 7, Type 0, BuildingBlock: BETDIP_clean_linker_0, # of connection points: 3
#     Node 8, Type 0, BuildingBlock: BETDIP_clean_linker_0, # of connection points: 3
#     Node 9, Type 0, BuildingBlock: BETDIP_clean_linker_0, # of connection points: 3
#     Node 10, Type 0, BuildingBlock: BETDIP_clean_linker_0, # of connection points: 3
#     Node 11, Type 0, BuildingBlock: BETDIP_clean_linker_0, # of connection points: 3
#     Node 12, Type 0, BuildingBlock: BETDIP_clean_linker_0, # of connection points: 3
#     Node 13, Type 0, BuildingBlock: BETDIP_clean_linker_0, # of connection points: 3
#     Node 14, Type 0, BuildingBlock: BETDIP_clean_linker_0, # of connection points: 3
#     Node 15, Type 0, BuildingBlock: BETDIP_clean_linker_0, # of connection points: 3
#     Node 16, Type 0, BuildingBlock: BETDIP_clean_linker_0, # of connection points: 3
#     Node 17, Type 0, BuildingBlock: BETDIP_clean_linker_0, # of connection points: 3
#     Node 18, Type 1, BuildingBlock: KUMBOL_clean_sbu_0, # of connection points: 6
#     Node 19, Type 1, BuildingBlock: KUMBOL_clean_sbu_0, # of connection points: 6
#     Node 20, Type 1, BuildingBlock: KUMBOL_clean_sbu_0, # of connection points: 6
#     Node 21, Type 1, BuildingBlock: KUMBOL_clean_sbu_0, # of connection points: 6
#     Node 22, Type 1, BuildingBlock: KUMBOL_clean_sbu_0, # of connection points: 6
#     Node 23, Type 1, BuildingBlock: KUMBOL_clean_sbu_0, # of connection points: 6
#     Node 24, Type 1, BuildingBlock: KUMBOL_clean_sbu_0, # of connection points: 6
#     Node 25, Type 1, BuildingBlock: KUMBOL_clean_sbu_0, # of connection points: 6
#     Node 26, Type 1, BuildingBlock: KUMBOL_clean_sbu_0, # of connection points: 6
#     Edge 27, Type (0, 1), BuildingBlock: ZUJKAS_clean_linker_0, # of connection points: 2
#     Edge 28, Type (0, 1), BuildingBlock: ZUJKAS_clean_linker_0, # of connection points: 2
#     Edge 29, Type (0, 1), BuildingBlock: ZUJKAS_clean_linker_0, # of connection points: 2
#     Edge 30, Type (0, 1), BuildingBlock: ZUJKAS_clean_linker_0, # of connection points: 2
#     Edge 31, Type (0, 1), BuildingBlock: ZUJKAS_clean_linker_0, # of connection points: 2
#     Edge 32, Type (0, 1), BuildingBlock: ZUJKAS_clean_linker_0, # of connection points: 2
#     Edge 33, Type (0, 1), BuildingBlock: ZUJKAS_clean_linker_0, # of connection points: 2
#     Edge 34, Type (0, 1), BuildingBlock: ZUJKAS_clean_linker_0, # of connection points: 2
#     Edge 35, Type (0, 1), BuildingBlock: ZUJKAS_clean_linker_0, # of connection points: 2
#     Edge 36, Type (0, 1), BuildingBlock: ZUJKAS_clean_linker_0, # of connection points: 2
#     Edge 37, Type (0, 1), BuildingBlock: ZUJKAS_clean_linker_0, # of connection points: 2
#     Edge 38, Type (0, 1), BuildingBlock: ZUJKAS_clean_linker_0, # of connection points: 2
#     Edge 39, Type (0, 1), BuildingBlock: ZUJKAS_clean_linker_0, # of connection points: 2
#     Edge 40, Type (0, 1), BuildingBlock: ZUJKAS_clean_linker_0, # of connection points: 2
#     Edge 41, Type (0, 1), BuildingBlock: ZUJKAS_clean_linker_0, # of connection points: 2
#     Edge 42, Type (0, 1), BuildingBlock: ZUJKAS_clean_linker_0, # of connection points: 2
#     Edge 43, Type (0, 1), BuildingBlock: ZUJKAS_clean_linker_0, # of connection points: 2
#     Edge 44, Type (0, 1), BuildingBlock: ZUJKAS_clean_linker_0, # of connection points: 2
#     Edge 45, Type (0, 1), BuildingBlock: ZUJKAS_clean_linker_0, # of connection points: 2
#     Edge 46, Type (0, 1), BuildingBlock: ZUJKAS_clean_linker_0, # of connection points: 2
#     Edge 47, Type (0, 1), BuildingBlock: ZUJKAS_clean_linker_0, # of connection points: 2
#     Edge 48, Type (0, 1), BuildingBlock: ZUJKAS_clean_linker_0, # of connection points: 2
#     Edge 49, Type (0, 1), BuildingBlock: ZUJKAS_clean_linker_0, # of connection points: 2
#     Edge 50, Type (0, 1), BuildingBlock: ZUJKAS_clean_linker_0, # of connection points: 2
#     Edge 51, Type (0, 1), BuildingBlock: ZUJKAS_clean_linker_0, # of connection points: 2
#     Edge 52, Type (0, 1), BuildingBlock: ZUJKAS_clean_linker_0, # of connection points: 2
#     Edge 53, Type (0, 1), BuildingBlock: ZUJKAS_clean_linker_0, # of connection points: 2
#     Edge 54, Type (0, 1), BuildingBlock: ZUJKAS_clean_linker_0, # of connection points: 2
#     Edge 55, Type (0, 1), BuildingBlock: ZUJKAS_clean_linker_0, # of connection points: 2
#     Edge 56, Type (0, 1), BuildingBlock: ZUJKAS_clean_linker_0, # of connection points: 2
#     Edge 57, Type (0, 1), BuildingBlock: ZUJKAS_clean_linker_0, # of connection points: 2
#     Edge 58, Type (0, 1), BuildingBlock: ZUJKAS_clean_linker_0, # of connection points: 2
#     Edge 59, Type (0, 1), BuildingBlock: ZUJKAS_clean_linker_0, # of connection points: 2
#     Edge 60, Type (0, 1), BuildingBlock: ZUJKAS_clean_linker_0, # of connection points: 2
#     Edge 61, Type (0, 1), BuildingBlock: ZUJKAS_clean_linker_0, # of connection points: 2
#     Edge 62, Type (0, 1), BuildingBlock: ZUJKAS_clean_linker_0, # of connection points: 2
#     Edge 63, Type (0, 1), BuildingBlock: ZUJKAS_clean_linker_0, # of connection points: 2
#     Edge 64, Type (0, 1), BuildingBlock: ZUJKAS_clean_linker_0, # of connection points: 2
#     Edge 65, Type (0, 1), BuildingBlock: ZUJKAS_clean_linker_0, # of connection points: 2
#     Edge 66, Type (0, 1), BuildingBlock: ZUJKAS_clean_linker_0, # of connection points: 2
#     Edge 67, Type (0, 1), BuildingBlock: ZUJKAS_clean_linker_0, # of connection points: 2
#     Edge 68, Type (0, 1), BuildingBlock: ZUJKAS_clean_linker_0, # of connection points: 2
#     Edge 69, Type (0, 1), BuildingBlock: ZUJKAS_clean_linker_0, # of connection points: 2
#     Edge 70, Type (0, 1), BuildingBlock: ZUJKAS_clean_linker_0, # of connection points: 2
#     Edge 71, Type (0, 1), BuildingBlock: ZUJKAS_clean_linker_0, # of connection points: 2
#     Edge 72, Type (0, 1), BuildingBlock: ZUJKAS_clean_linker_0, # of connection points: 2
#     Edge 73, Type (0, 1), BuildingBlock: ZUJKAS_clean_linker_0, # of connection points: 2
#     Edge 74, Type (0, 1), BuildingBlock: ZUJKAS_clean_linker_0, # of connection points: 2
#     Edge 75, Type (0, 1), BuildingBlock: ZUJKAS_clean_linker_0, # of connection points: 2
#     Edge 76, Type (0, 1), BuildingBlock: ZUJKAS_clean_linker_0, # of connection points: 2
#     Edge 77, Type (0, 1), BuildingBlock: ZUJKAS_clean_linker_0, # of connection points: 2
#     Edge 78, Type (0, 1), BuildingBlock: ZUJKAS_clean_linker_0, # of connection points: 2
#     Edge 79, Type (0, 1), BuildingBlock: ZUJKAS_clean_linker_0, # of connection points: 2
#     Edge 80, Type (0, 1), BuildingBlock: ZUJKAS_clean_linker_0, # of connection points: 2
# Relax obj value: 0.025
# Max RMSD: 0.154
# Mean RMSD: 0.114
data_MOF--net-eea--node1-KUMBOL_clean_sbu_0--node2-BETDIP_clean_linker_0--edge1-ZUJKAS_clean_linker_0
_symmetry_space_group_name_H-M    P1
_symmetry_Int_Tables_number       1
_symmetry_cell_setting            triclinic
loop_
_symmetry_equiv_pos_as_xyz
'x, y, z'
_cell_length_a     71.212975
_cell_length_b     72.869702
_cell_length_c     82.920036
_cell_angle_alpha  90.153824
_cell_angle_beta   90.104413
_cell_angle_gamma 119.9769
loop_
_atom_site_label
_atom_site_type_symbol
_atom_site_fract_x
_atom_site_fract_y
_atom_site_fract_z
_atom_type_partial_charge
H0 H 0.20778 0.0939 0.39279 0.0
H1 H 0.22798 0.13524 0.43403 0.0
H2 H 0.24097 0.08366 0.43211 0.0
H3 H 0.19302 0.13212 0.42617 0.0
C4 C 0.1984 0.13712 0.41388 0.0
C5 C 0.21575 0.09842 0.40444 0.0
C6 C 0.22382 0.08631 0.41163 0.0
C7 C 0.21691 0.11581 0.41257 0.0
C8 C 0.22688 0.12165 0.42781 0.0
C9 C 0.23556 0.11007 0.43499 0.0
C10 C 0.23395 0.09244 0.4268 0.0
N11 N 0.20826 0.12746 0.40508 0.0
H12 H 0.92327 0.12223 0.3882 0.0
H13 H 0.88482 0.09745 0.43095 0.0
H14 H 0.93576 0.16254 0.42967 0.0
H15 H 0.88823 0.06758 0.42111 0.0
C16 C 0.88193 0.06799 0.40924 0.0
C17 C 0.91966 0.12457 0.40047 0.0
C18 C 0.93178 0.1445 0.40797 0.0
C19 C 0.90294 0.10751 0.40877 0.0
C20 C 0.89794 0.11053 0.4246 0.0
C21 C 0.9096 0.13038 0.43222 0.0
C22 C 0.92658 0.14722 0.42383 0.0
N23 N 0.89084 0.08757 0.40087 0.0
H24 H 0.90079 0.80941 0.39263 0.0
H25 H 0.92367 0.79044 0.43398 0.0
H26 H 0.86032 0.78376 0.43457 0.0
H27 H 0.95618 0.82056 0.42508 0.0
C28 C 0.95503 0.81567 0.41254 0.0
C29 C 0.89825 0.80309 0.40474 0.0
C30 C 0.87838 0.79668 0.41261 0.0
C31 C 0.91489 0.80129 0.41246 0.0
C32 C 0.91129 0.79252 0.42805 0.0
C33 C 0.89169 0.7863 0.43607 0.0
C34 C 0.87544 0.78855 0.42833 0.0
N35 N 0.93486 0.80782 0.40428 0.0
H36 H 0.09665 0.19648 0.63352 0.0
H37 H 0.13826 0.21482 0.59202 0.0
H38 H 0.08459 0.22615 0.59304 0.0
H39 H 0.13898 0.18417 0.60019 0.0
C40 C 0.14314 0.18887 0.61273 0.0
C41 C 0.10079 0.20332 0.62157 0.0
C42 C 0.08828 0.21108 0.61421 0.0
C43 C 0.11871 0.20439 0.61357 0.0
C44 C 0.12429 0.21363 0.59816 0.0
C45 C 0.11207 0.22151 0.59063 0.0
C46 C 0.0941 0.2201 0.59875 0.0
N47 N 0.1314 0.19682 0.62137 0.0
H48 H 0.7984 0.88899 0.63947 0.0
H49 H 0.78107 0.9142 0.59899 0.0
H50 H 0.7798 0.8549 0.59437 0.0
H51 H 0.76679 0.92453 0.62038 0.0
C52 C 0.78128 0.93162 0.62788 0.0
C53 C 0.79336 0.88769 0.62698 0.0
C54 C 0.7896 0.87 0.61768 0.0
C55 C 0.78967 0.90332 0.62046 0.0
C56 C 0.78305 0.90171 0.60429 0.0
C57 C 0.77946 0.88429 0.59478 0.0
C58 C 0.78275 0.86851 0.60159 0.0
N59 N 0.79287 0.92065 0.6303 0.0
H60 H 0.1109 0.91105 0.63328 0.0
H61 H 0.09179 0.86657 0.59404 0.0
H62 H 0.15355 0.92395 0.59287 0.0
H63 H 0.05792 0.86463 0.60157 0.0
C64 C 0.05919 0.86167 0.61427 0.0
C65 C 0.11449 0.90653 0.62173 0.0
C66 C 0.13415 0.92001 0.61389 0.0
C67 C 0.09893 0.88757 0.61443 0.0
C68 C 0.10341 0.88161 0.5994 0.0
C69 C 0.12322 0.89455 0.59161 0.0
C70 C 0.13835 0.91378 0.5989 0.0
N71 N 0.07907 0.87446 0.62256 0.0
H72 H 0.88327 0.43243 0.72651 0.0
H73 H 0.90546 0.47171 0.76894 0.0
H74 H 0.91764 0.42002 0.76378 0.0
H75 H 0.87627 0.47546 0.76334 0.0
C76 C 0.8772 0.47709 0.75031 0.0
C77 C 0.89139 0.43615 0.73811 0.0
C78 C 0.90048 0.42418 0.74392 0.0
C79 C 0.89258 0.45292 0.74721 0.0
C80 C 0.90358 0.45822 0.76211 0.0
C81 C 0.91292 0.44657 0.76802 0.0
C82 C 0.91117 0.42953 0.75892 0.0
N83 N 0.88321 0.46459 0.74082 0.0
H84 H 0.59368 0.44913 0.72637 0.0
H85 H 0.5522 0.42827 0.76803 0.0
H86 H 0.6063 0.49153 0.76648 0.0
H87 H 0.5479 0.39653 0.76043 0.0
C88 C 0.54589 0.39693 0.74747 0.0
C89 C 0.58955 0.45227 0.73824 0.0
C90 C 0.60234 0.47225 0.74551 0.0
C91 C 0.57181 0.43605 0.74645 0.0
C92 C 0.56642 0.44023 0.76183 0.0
C93 C 0.57875 0.46021 0.76906 0.0
C94 C 0.59672 0.47608 0.76088 0.0
N95 N 0.55924 0.41594 0.73884 0.0
H96 H 0.56964 0.1419 0.72445 0.0
H97 H 0.58857 0.11892 0.76561 0.0
H98 H 0.52695 0.11619 0.76517 0.0
H99 H 0.60524 0.11063 0.74566 0.0
C100 C 0.61286 0.12522 0.73875 0.0
C101 C 0.56621 0.13501 0.73639 0.0
C102 C 0.54618 0.1292 0.74378 0.0
C103 C 0.58145 0.13097 0.74402 0.0
C104 C 0.57686 0.12182 0.75951 0.0
C105 C 0.55711 0.11617 0.76717 0.0
C106 C 0.54201 0.12006 0.75921 0.0
N107 N 0.60115 0.13607 0.7359 0.0
H108 H 0.76426 0.53553 0.96992 0.0
H109 H 0.80541 0.55597 0.9281 0.0
H110 H 0.75063 0.56534 0.93032 0.0
H111 H 0.80974 0.52837 0.93501 0.0
C112 C 0.81223 0.53072 0.94795 0.0
C113 C 0.76811 0.54268 0.95807 0.0
C114 C 0.75519 0.55032 0.95119 0.0
C115 C 0.7861 0.54433 0.94974 0.0
C116 C 0.79134 0.55411 0.93449 0.0
C117 C 0.77857 0.56162 0.92735 0.0
C118 C 0.76053 0.55958 0.93577 0.0
N119 N 0.79904 0.53663 0.95702 0.0
H120 H 0.47378 0.22959 0.96887 0.0
H121 H 0.44768 0.24478 0.92759 0.0
H122 H 0.44905 0.18664 0.92838 0.0
H123 H 0.4378 0.26042 0.94706 0.0
C124 C 0.4524 0.26813 0.95441 0.0
C125 C 0.46634 0.2254 0.95702 0.0
C126 C 0.46225 0.2064 0.94956 0.0
C127 C 0.46065 0.23903 0.94938 0.0
C128 C 0.45162 0.23409 0.9338 0.0
C129 C 0.44744 0.21522 0.92618 0.0
C130 C 0.45262 0.20139 0.93417 0.0
N131 N 0.46432 0.25767 0.95758 0.0
H132 H 0.78363 0.2419 0.96893 0.0
H133 H 0.7653 0.2009 0.92744 0.0
H134 H 0.82783 0.25708 0.92925 0.0
H135 H 0.73188 0.19372 0.93436 0.0
C136 C 0.73205 0.19314 0.94744 0.0
C137 C 0.78742 0.23833 0.95708 0.0
C138 C 0.80792 0.25153 0.95025 0.0
C139 C 0.77168 0.2204 0.94876 0.0
C140 C 0.7768 0.2153 0.9336 0.0
C141 C 0.79713 0.22835 0.92653 0.0
C142 C 0.81243 0.24652 0.93488 0.0
N143 N 0.75113 0.20745 0.95611 0.0
H144 H 0.54802 0.76565 0.05826 0.0
H145 H 0.5731 0.80922 0.09815 0.0
H146 H 0.57046 0.74926 0.10119 0.0
H147 H 0.58268 0.8333 0.07797 0.0
C148 C 0.56851 0.82595 0.07016 0.0
C149 C 0.55503 0.76951 0.07026 0.0
C150 C 0.55836 0.75484 0.07894 0.0
C151 C 0.56084 0.78934 0.07688 0.0
C152 C 0.56939 0.79431 0.09261 0.0
C153 C 0.57256 0.77975 0.10151 0.0
C154 C 0.56717 0.76014 0.09456 0.0
N155 N 0.55737 0.80371 0.06758 0.0
H156 H 0.25982 0.78571 0.05734 0.0
H157 H 0.21618 0.76333 0.09753 0.0
H158 H 0.26866 0.82757 0.09716 0.0
H159 H 0.2191 0.73229 0.08955 0.0
C160 C 0.21419 0.73289 0.07723 0.0
C161 C 0.25485 0.78881 0.06889 0.0
C162 C 0.2669 0.80881 0.07635 0.0
C163 C 0.2368 0.7723 0.07658 0.0
C164 C 0.23045 0.77587 0.09175 0.0
C165 C 0.24186 0.79581 0.09921 0.0
C166 C 0.25993 0.81218 0.09139 0.0
N167 N 0.22485 0.75235 0.06869 0.0
H168 H 0.23136 0.47088 0.0566 0.0
H169 H 0.25041 0.44804 0.09779 0.0
H170 H 0.18837 0.44443 0.09708 0.0
H171 H 0.26726 0.43991 0.07781 0.0
C172 C 0.27488 0.4546 0.07102 0.0
C173 C 0.22789 0.46385 0.0685 0.0
C174 C 0.20776 0.45776 0.07581 0.0
C175 C 0.24321 0.45996 0.07617 0.0
C176 C 0.23861 0.45076 0.09165 0.0
C177 C 0.21876 0.44489 0.09924 0.0
C178 C 0.20353 0.4485 0.0912 0.0
N179 N 0.26305 0.46532 0.06815 0.0
H180 H 0.4292 0.86502 0.30168 0.0
H181 H 0.47132 0.88433 0.26042 0.0
H182 H 0.41706 0.8947 0.26123 0.0
H183 H 0.47252 0.85379 0.2684 0.0
C184 C 0.47636 0.85825 0.28101 0.0
C185 C 0.43338 0.87197 0.28976 0.0
C186 C 0.42088 0.87979 0.28246 0.0
C187 C 0.45137 0.87317 0.28177 0.0
C188 C 0.457 0.88255 0.2664 0.0
C189 C 0.44485 0.89057 0.25899 0.0
C190 C 0.42682 0.88904 0.26709 0.0
N191 N 0.46419 0.86576 0.28961 0.0
H192 H 0.14858 0.56437 0.29686 0.0
H193 H 0.12349 0.58347 0.2572 0.0
H194 H 0.11201 0.51981 0.25918 0.0
H195 H 0.15324 0.61546 0.26318 0.0
C196 C 0.15196 0.61543 0.27624 0.0
C197 C 0.13951 0.56052 0.28566 0.0
C198 C 0.1308 0.54017 0.27888 0.0
C199 C 0.13729 0.57629 0.2778 0.0
C200 C 0.12564 0.57148 0.26322 0.0
C201 C 0.11661 0.55118 0.25634 0.0
C202 C 0.11931 0.53564 0.26424 0.0
N203 N 0.14644 0.59669 0.28501 0.0
H204 H 0.44664 0.57832 0.30005 0.0
H205 H 0.42866 0.53499 0.2601 0.0
H206 H 0.49047 0.59232 0.26026 0.0
H207 H 0.39466 0.53244 0.26701 0.0
C208 C 0.39543 0.5293 0.27973 0.0
C209 C 0.45055 0.57412 0.28849 0.0
C210 C 0.47048 0.58778 0.28104 0.0
C211 C 0.43515 0.5554 0.28078 0.0
C212 C 0.44011 0.54986 0.26576 0.0
C213 C 0.46014 0.56301 0.25832 0.0
C214 C 0.47509 0.58198 0.26601 0.0
N215 N 0.41496 0.54209 0.28847 0.0
Gd216 Gd 0.50857 0.01608 0.03439 0.0
Gd217 Gd 0.48821 0.9957 0.99303 0.0
C218 C 0.42104 0.93818 0.98459 0.0
C219 C 0.42984 0.91216 0.97422 0.0
C220 C 0.45857 0.94767 0.98116 0.0
C221 C 0.44336 0.95305 0.98589 0.0
C222 C 0.45201 0.92733 0.97491 0.0
C223 C 0.41437 0.91757 0.97908 0.0
C224 C 0.40611 0.94463 0.98852 0.0
C225 C 0.41358 0.96562 0.99306 0.0
N226 N 0.45039 0.97314 0.99105 0.0
C227 C 0.43589 0.97982 0.99405 0.0
H228 H 0.44136 0.99595 0.99763 0.0
C229 C 0.49528 0.9591 0.97539 0.0
N230 N 0.4798 0.96276 0.98186 0.0
C231 C 0.48961 0.93913 0.96916 0.0
C232 C 0.4679 0.92307 0.96911 0.0
H233 H 0.5121 0.97147 0.9755 0.0
H234 H 0.39731 0.90586 0.97816 0.0
H235 H 0.55649 0.01803 0.03052 0.0
H236 H 0.38882 0.93367 0.98777 0.0
H237 H 0.40218 0.97088 0.99585 0.0
H238 H 0.42447 0.89637 0.96961 0.0
H239 H 0.48234 0.03834 0.05153 0.0
H240 H 0.60696 0.08071 0.04221 0.0
H241 H 0.59532 0.04404 0.03348 0.0
H242 H 0.56821 0.11515 0.05978 0.0
H243 H 0.50198 0.93613 0.96442 0.0
H244 H 0.46353 0.90764 0.96422 0.0
H245 H 0.5967 0.10728 0.05168 0.0
H246 H 0.49067 0.07288 0.06313 0.0
N247 N 0.54605 0.03979 0.03701 0.0
C248 C 0.58985 0.06935 0.04085 0.0
C249 C 0.58334 0.04866 0.03598 0.0
C250 C 0.57417 0.07496 0.0444 0.0
C251 C 0.55212 0.05957 0.04245 0.0
C252 C 0.56125 0.03393 0.03433 0.0
N253 N 0.51518 0.04833 0.04588 0.0
C254 C 0.53616 0.06398 0.04706 0.0
C255 C 0.50361 0.07062 0.05859 0.0
C256 C 0.52506 0.08721 0.05922 0.0
C257 C 0.49895 0.05108 0.05204 0.0
C258 C 0.5417 0.08392 0.05365 0.0
H259 H 0.52864 0.10231 0.06436 0.0
O260 O 0.49273 0.00484 0.05757 0.0
O261 O 0.48183 0.99203 0.0193 0.0
O262 O 0.47956 0.02035 1.00151 0.0
O263 O 0.50493 0.04098 0.02123 0.0
O264 O 0.47277 0.00331 0.03876 0.0
O265 O 0.52096 0.00232 0.05166 0.0
O266 O 0.50396 0.00585 0.96972 0.0
O267 O 0.5151 0.01952 0.0081 0.0
O268 O 0.51839 0.99244 0.02565 0.0
O269 O 0.49311 0.97135 0.006 0.0
O270 O 0.52392 0.0082 0.98848 0.0
O271 O 0.47664 0.00994 0.97552 0.0
C272 C 0.46565 0.99005 0.02692 0.0
C273 C 0.56362 0.09966 0.05489 0.0
C274 C 0.57984 0.09518 0.05027 0.0
C275 C 0.50698 -1e-05 0.06276 0.0
C276 C 0.51572 0.00771 0.07905 0.0
C277 C 0.5332 0.02829 0.08131 0.0
C278 C 0.50618 0.99463 0.09254 0.0
C279 C 0.51391 0.00221 0.10822 0.0
C280 C 0.54097 0.03585 0.09677 0.0
C281 C 0.5314 0.02296 0.11015 0.0
C282 C 0.49045 0.03812 0.01002 0.0
C283 C 0.53117 0.02136 1.00039 0.0
C284 C 0.49031 0.01141 0.96443 0.0
C285 C 0.4813 0.00364 0.94821 0.0
C286 C 0.46332 0.98333 0.94614 0.0
C287 C 0.49099 0.01646 0.93463 0.0
C288 C 0.48275 0.00902 0.91899 0.0
C289 C 0.45516 0.97579 0.93076 0.0
C290 C 0.46478 0.98845 0.91728 0.0
C291 C 0.50811 0.97479 0.01693 0.0
H292 H 0.54085 0.03853 0.07115 0.0
H293 H 0.49256 0.97876 0.09084 0.0
H294 H 0.55448 0.05175 0.09839 0.0
H295 H 0.53788 0.02915 0.12203 0.0
H296 H 0.4556 0.97328 0.95639 0.0
H297 H 0.50475 0.03224 0.93628 0.0
H298 H 0.44136 0.96002 0.92926 0.0
H299 H 0.45829 0.98198 0.90547 0.0
Gd300 Gd 0.99603 0.49233 0.03288 0.0
Gd301 Gd 0.02232 0.49426 0.99392 0.0
C302 C 0.08332 0.48872 0.99061 0.0
C303 C 0.11036 0.52412 0.98213 0.0
C304 C 0.07293 0.51524 0.98602 0.0
C305 C 0.06751 0.49499 0.99062 0.0
C306 C 0.09432 0.52995 0.98144 0.0
C307 C 0.10487 0.50353 0.9867 0.0
C308 C 0.0769 0.46764 0.99416 0.0
C309 C 0.05507 0.45327 0.9971 0.0
N310 N 0.04654 0.48109 0.9943 0.0
C311 C 0.03998 0.46024 0.99693 0.0
H312 H 0.02321 0.44895 0.9993 0.0
C313 C 0.06102 0.53926 0.97918 0.0
N314 N 0.057 0.52026 0.98536 0.0
C315 C 0.08203 0.55446 0.97463 0.0
C316 C 0.09882 0.54988 0.97593 0.0
H317 H 0.04809 0.5429 0.97824 0.0
H318 H 0.11729 0.49908 0.98681 0.0
H319 H 0.99396 0.53698 0.02808 0.0
H320 H 0.08855 0.4622 0.99432 0.0
H321 H 0.04986 0.43684 0.99959 0.0
H322 H 0.12695 0.53525 0.97879 0.0
H323 H 0.97145 0.44342 0.04822 0.0
H324 H 0.92853 0.52267 0.03498 0.0
H325 H 0.96693 0.54857 0.02911 0.0
H326 H 0.89167 0.44938 0.04981 0.0
H327 H 0.08526 0.56969 0.97011 0.0
H328 H 0.11506 0.56164 0.97233 0.0
H329 H 0.90045 0.48547 0.04232 0.0
H330 H 0.93476 0.4161 0.05679 0.0
N331 N 0.9712 0.5047 0.0331 0.0
C332 C 0.94037 0.51747 0.03455 0.0
C333 C 0.96201 0.53213 0.03124 0.0
C334 C 0.93437 0.49639 0.03769 0.0
C335 C 0.95042 0.49047 0.03704 0.0
C336 C 0.97732 0.52548 0.03069 0.0
N337 N 0.96176 0.46566 0.04164 0.0
C338 C 0.94553 0.47028 0.04142 0.0
C339 C 0.93755 0.43125 0.05244 0.0
C340 C 0.92045 0.43544 0.05162 0.0
C341 C 0.9583 0.44675 0.04762 0.0
C342 C 0.92439 0.45527 0.04632 0.0
H343 H 0.90442 0.42345 0.05545 0.0
O344 O 1.00353 0.48739 0.05731 0.0
O345 O 0.02281 0.49107 0.02039 0.0
O346 O 0.99683 0.46063 1.00111 0.0
O347 O 0.97271 0.46421 0.01801 0.0
O348 O 0.00952 0.47085 0.0395 0.0
O349 O 0.0076 0.51788 0.0504 0.0
O350 O 0.01607 0.49967 0.96923 0.0
O351 O 0.99568 0.49587 0.00637 0.0
O352 O 0.02114 0.52608 0.02559 0.0
O353 O 0.04535 0.52261 0.00869 0.0
O354 O 0.00914 0.51595 0.98717 0.0
O355 O 0.00991 0.46854 0.97654 0.0
C356 C 0.02444 0.4775 0.0287 0.0
C357 C 0.90806 0.46074 0.04621 0.0
C358 C 0.91305 0.48128 0.04193 0.0
C359 C 0.00795 0.50617 0.06214 0.0
C360 C 0.99789 0.50699 0.07737 0.0
C361 C 0.97685 0.50397 0.07772 0.0
C362 C 0.00948 0.5106 0.09182 0.0
C363 C 1.00016 0.51116 0.10664 0.0
C364 C 0.96745 0.50444 0.09234 0.0
C365 C 0.97898 0.50799 0.10674 0.0
C366 C 0.97745 0.4531 0.00786 0.0
C367 C 0.99427 0.50954 0.99801 0.0
C368 C 0.01079 0.48057 0.96459 0.0
C369 C 0.02096 0.47894 0.94967 0.0
C370 C 0.04025 0.47815 0.95003 0.0
C371 C 0.0111 0.47805 0.93481 0.0
C372 C 0.02028 0.47618 0.92032 0.0
C373 C 0.04953 0.47646 0.9357 0.0
C374 C 0.03962 0.47542 0.92092 0.0
C375 C 0.04051 0.53369 0.01881 0.0
H376 H 0.9677 0.50128 0.06675 0.0
H377 H 0.02587 0.51323 0.09147 0.0
H378 H 0.95116 0.502 0.09252 0.0
H379 H 0.97122 0.50801 0.11795 0.0
H380 H 0.04806 0.47871 0.96132 0.0
H381 H 0.99606 0.4784 0.93457 0.0
H382 H 0.06442 0.47588 0.93606 0.0
H383 H 0.04715 0.47419 0.90995 0.0
Gd384 Gd 0.51135 0.51996 0.99288 0.0
Gd385 Gd 0.53098 0.51515 0.03321 0.0
C386 C 0.59782 0.52166 0.03929 0.0
C387 C 0.58863 0.48594 0.04687 0.0
C388 C 0.56018 0.49448 0.04207 0.0
C389 C 0.57555 0.51509 0.03841 0.0
C390 C 0.56653 0.47979 0.04674 0.0
C391 C 0.60426 0.50685 0.04312 0.0
C392 C 0.61292 0.54304 0.03671 0.0
C393 C 0.60565 0.55736 0.03397 0.0
N394 N 0.56873 0.52899 0.03489 0.0
C395 C 0.58338 0.55008 0.0333 0.0
H396 H 0.57805 0.56133 0.03106 0.0
C397 C 0.52343 0.46986 0.04753 0.0
N398 N 0.53902 0.48916 0.04196 0.0
C399 C 0.52889 0.45468 0.0522 0.0
C400 C 0.55051 0.45956 0.0516 0.0
H401 H 0.50668 0.466 0.04788 0.0
H402 H 0.62128 0.51154 0.04365 0.0
H403 H 0.46337 0.47491 0.9938 0.0
H404 H 0.63017 0.54872 0.0372 0.0
H405 H 0.61719 0.574 0.03227 0.0
H406 H 0.59384 0.47482 0.05025 0.0
H407 H 0.53834 0.5699 0.97951 0.0
H408 H 0.41341 0.48965 0.98406 0.0
H409 H 0.42474 0.46336 0.9902 0.0
H410 H 0.45284 0.56395 0.97253 0.0
H411 H 0.51643 0.43923 0.05623 0.0
H412 H 0.55471 0.4478 0.05527 0.0
H413 H 0.42403 0.52735 0.97788 0.0
H414 H 0.53048 0.59766 0.97053 0.0
N415 N 0.47404 0.50754 0.98997 0.0
C416 C 0.43045 0.49484 0.98564 0.0
C417 C 0.43677 0.47996 0.98908 0.0
C418 C 0.44625 0.51615 0.98379 0.0
C419 C 0.46821 0.52204 0.9859 0.0
C420 C 0.45875 0.48659 0.99109 0.0
N421 N 0.50529 0.5472 0.98394 0.0
C422 C 0.48436 0.54257 0.98283 0.0
C423 C 0.51736 0.58226 0.97401 0.0
C424 C 0.49595 0.57802 0.97349 0.0
C425 C 0.52175 0.56649 0.97908 0.0
C426 C 0.47909 0.55787 0.97767 0.0
H427 H 0.49258 0.59022 0.96948 0.0
O428 O 0.52776 0.52657 0.96981 0.0
O429 O 0.53798 0.52038 0.00709 0.0
O430 O 0.53972 0.54906 0.02722 0.0
O431 O 0.51411 0.54645 0.0084 0.0
O432 O 0.54728 0.54268 0.98925 0.0
O433 O 0.49891 0.49619 0.97384 0.0
O434 O 0.51533 0.50775 0.05663 0.0
O435 O 0.50408 0.51414 0.01898 0.0
O436 O 0.50127 0.48587 0.99918 0.0
O437 O 0.5265 0.48764 0.01806 0.0
O438 O 0.49516 0.49233 0.03724 0.0
O439 O 0.54295 0.53889 0.05222 0.0
C440 C 0.5543 0.53504 1.00017 0.0
C441 C 0.45723 0.55237 0.97634 0.0
C442 C 0.44083 0.53153 0.97939 0.0
C443 C 0.51344 0.50856 0.96344 0.0
C444 C 0.50551 0.50981 0.94733 0.0
C445 C 0.49124 0.51762 0.94536 0.0
C446 C 0.51293 0.50385 0.93372 0.0
C447 C 0.50644 0.506 0.91808 0.0
C448 C 0.4847 0.51981 0.92998 0.0
C449 C 0.49233 0.5142 0.91642 0.0
C450 C 0.52865 0.5568 0.01981 0.0
C451 C 0.48791 0.49947 0.02609 0.0
C452 C 0.52924 0.52602 0.06286 0.0
C453 C 0.53821 0.5253 0.07867 0.0
C454 C 0.55574 0.5217 0.07985 0.0
C455 C 0.5288 0.52778 0.09277 0.0
C456 C 0.53676 0.52658 0.10808 0.0
C457 C 0.56369 0.52041 0.09493 0.0
C458 C 0.55428 0.52277 0.10896 0.0
C459 C 0.5116 0.4775 0.00681 0.0
H460 H 0.48529 0.52219 0.95565 0.0
H461 H 0.52367 0.49748 0.93539 0.0
H462 H 0.47385 0.52607 0.92855 0.0
H463 H 0.48738 0.51662 0.90463 0.0
H464 H 0.56325 0.51984 0.06916 0.0
H465 H 0.51544 0.53085 0.09177 0.0
H466 H 0.57715 0.51749 0.09576 0.0
H467 H 0.56056 0.52133 0.1205 0.0
Gd468 Gd 0.17383 0.3498 0.3671 0.0
Gd469 Gd 0.15384 0.3271 0.32624 0.0
C470 C 0.08591 0.2703 0.319 0.0
C471 C 0.09368 0.24248 0.31157 0.0
C472 C 0.12312 0.27827 0.31676 0.0
C473 C 0.10835 0.28474 0.32018 0.0
C474 C 0.116 0.25719 0.31205 0.0
C475 C 0.07865 0.24902 0.31506 0.0
C476 C 0.07147 0.27779 0.32144 0.0
C477 C 0.07956 0.29932 0.3244 0.0
N478 N 0.11595 0.30543 0.32389 0.0
C479 C 0.10197 0.31304 0.3254 0.0
H480 H 0.10793 0.32959 0.32783 0.0
C481 C 0.15967 0.28798 0.31203 0.0
N482 N 0.14452 0.29292 0.31725 0.0
C483 C 0.15342 0.26724 0.30736 0.0
C484 C 0.1315 0.2517 0.30757 0.0
H485 H 0.17664 0.29993 0.31199 0.0
H486 H 0.06147 0.23763 0.31429 0.0
H487 H 0.21991 0.3478 0.36528 0.0
H488 H 0.05411 0.26719 0.32071 0.0
H489 H 0.06855 0.30536 0.32602 0.0
H490 H 0.08787 0.22615 0.30814 0.0
H491 H 0.15034 0.37617 0.38158 0.0
H492 H 0.27315 0.40932 0.37592 0.0
H493 H 0.25908 0.37173 0.36876 0.0
H494 H 0.23875 0.44965 0.38882 0.0
H495 H 0.1655 0.26325 0.30363 0.0
H496 H 0.1267 0.23566 0.30389 0.0
H497 H 0.26546 0.43853 0.38289 0.0
H498 H 0.16097 0.41223 0.39119 0.0
N499 N 0.21163 0.37167 0.36981 0.0
C500 C 0.25588 0.39893 0.37424 0.0
C501 C 0.248 0.3777 0.37027 0.0
C502 C 0.24134 0.40634 0.37644 0.0
C503 C 0.219 0.39208 0.37425 0.0
C504 C 0.2257 0.36416 0.36829 0.0
N505 N 0.18269 0.38359 0.37672 0.0
C506 C 0.20404 0.39828 0.37776 0.0
C507 C 0.17325 0.40855 0.3874 0.0
C508 C 0.19514 0.42412 0.38789 0.0
C509 C 0.16729 0.38815 0.38199 0.0
C510 C 0.21088 0.41898 0.38333 0.0
H511 H 0.19973 0.43986 0.39221 0.0
O512 O 0.15802 0.3418 0.39047 0.0
O513 O 0.14671 0.32582 0.35232 0.0
O514 O 0.14629 0.35317 0.33272 0.0
O515 O 0.17164 0.37441 0.35225 0.0
O516 O 0.13827 0.33912 0.37076 0.0
O517 O 0.18366 0.33489 0.38531 0.0
O518 O 0.16994 0.33472 0.30297 0.0
O519 O 0.18088 0.35125 0.341 0.0
O520 O 0.18187 0.32418 0.36027 0.0
O521 O 0.15589 0.30257 0.34128 0.0
O522 O 0.18952 0.33796 0.3227 0.0
O523 O 0.14361 0.34088 0.30737 0.0
C524 C 0.13077 0.32526 0.35932 0.0
C525 C 0.23315 0.43361 0.38469 0.0
C526 C 0.24835 0.42728 0.38131 0.0
C527 C 0.17044 0.33492 0.39616 0.0
C528 C 0.17968 0.34261 0.41231 0.0
C529 C 0.19623 0.36362 0.41461 0.0
C530 C 0.1719 0.32882 0.42557 0.0
C531 C 0.18067 0.33594 0.44111 0.0
C532 C 0.20493 0.37082 0.42994 0.0
C533 C 0.19725 0.35714 0.44311 0.0
C534 C 0.1574 0.3713 0.34077 0.0
C535 C 0.19691 0.3519 0.33409 0.0
C536 C 0.15715 0.34086 0.29679 0.0
C537 C 0.14821 0.33229 0.28072 0.0
C538 C 0.13116 0.3114 0.27898 0.0
C539 C 0.15696 0.34499 0.26694 0.0
C540 C 0.14871 0.33685 0.25144 0.0
C541 C 0.123 0.30319 0.26373 0.0
C542 C 0.13169 0.31573 0.25005 0.0
C543 C 0.17036 0.30584 0.35259 0.0
H544 H 0.20242 0.37444 0.40459 0.0
H545 H 0.15925 0.31252 0.42372 0.0
H546 H 0.21765 0.3871 0.43163 0.0
H547 H 0.2041 0.36326 0.45491 0.0
H548 H 0.12421 0.30143 0.2894 0.0
H549 H 0.16997 0.36122 0.26835 0.0
H550 H 0.10992 0.28698 0.26248 0.0
H551 H 0.12524 0.30876 0.23835 0.0
Gd552 Gd 0.66418 0.82404 0.36745 0.0
Gd553 Gd 0.68863 0.82881 0.32742 0.0
C554 C 0.74676 0.81959 0.31934 0.0
C555 C 0.77488 0.85499 0.31181 0.0
C556 C 0.73863 0.8481 0.31828 0.0
C557 C 0.73218 0.82717 0.32153 0.0
C558 C 0.75996 0.86219 0.31314 0.0
C559 C 0.76825 0.8337 0.31478 0.0
C560 C 0.73909 0.7979 0.32118 0.0
C561 C 0.71741 0.78438 0.32511 0.0
N562 N 0.7112 0.81386 0.32562 0.0
C563 C 0.70357 0.79262 0.32713 0.0
H564 H 0.68683 0.78187 0.33 0.0
C565 C 0.72843 0.87402 0.31395 0.0
N566 N 0.72361 0.85431 0.31906 0.0
C567 C 0.74948 0.8887 0.30912 0.0
C568 C 0.76539 0.88283 0.30887 0.0
H569 H 0.71611 0.87854 0.31408 0.0
H570 H 0.77972 0.82819 0.31316 0.0
H571 H 0.66345 0.86972 0.36555 0.0
H572 H 0.74963 0.79136 0.31927 0.0
H573 H 0.7113 0.76756 0.32644 0.0
H574 H 0.79137 0.8656 0.30796 0.0
H575 H 0.6391 0.77448 0.38142 0.0
H576 H 0.59909 0.85679 0.37518 0.0
H577 H 0.63733 0.88219 0.3687 0.0
H578 H 0.5608 0.78257 0.38709 0.0
H579 H 0.75339 0.90447 0.30549 0.0
H580 H 0.78163 0.89415 0.30492 0.0
H581 H 0.5704 0.81938 0.38143 0.0
H582 H 0.60247 0.74738 0.39033 0.0
N583 N 0.64015 0.83728 0.36953 0.0
C584 C 0.61043 0.85112 0.37359 0.0
C585 C 0.63202 0.86552 0.37002 0.0
C586 C 0.60386 0.82967 0.37553 0.0
C587 C 0.61936 0.82319 0.37354 0.0
C588 C 0.6468 0.85835 0.36822 0.0
N589 N 0.6299 0.7975 0.37628 0.0
C590 C 0.61403 0.8026 0.37696 0.0
C591 C 0.60548 0.76282 0.38655 0.0
C592 C 0.58872 0.76754 0.38669 0.0
C593 C 0.62619 0.77819 0.38153 0.0
C594 C 0.59297 0.78775 0.38216 0.0
H595 H 0.57274 0.75567 0.39071 0.0
O596 O 0.67183 0.81687 0.39113 0.0
O597 O 0.69038 0.8235 0.35345 0.0
O598 O 0.66212 0.7948 0.3328 0.0
O599 O 0.63971 0.79709 0.35221 0.0
O600 O 0.67697 0.80133 0.3713 0.0
O601 O 0.67714 0.8483 0.38604 0.0
O602 O 0.68204 0.83738 0.30389 0.0
O603 O 0.66254 0.82948 0.34139 0.0
O604 O 0.68956 0.85822 0.36149 0.0
O605 O 0.71269 0.85591 0.34278 0.0
O606 O 0.67628 0.85187 0.32365 0.0
O607 O 0.67588 0.80546 0.30817 0.0
C608 C 0.69177 0.80888 0.36038 0.0
C609 C 0.57713 0.79379 0.38325 0.0
C610 C 0.58259 0.81474 0.38001 0.0
C611 C 0.67728 0.83553 0.39696 0.0
C612 C 0.66799 0.83585 0.41267 0.0
C613 C 0.64611 0.83005 0.41411 0.0
C614 C 0.68124 0.84203 0.42642 0.0
C615 C 0.67271 0.84235 0.44166 0.0
C616 C 0.6375 0.8303 0.42914 0.0
C617 C 0.65066 0.83638 0.44286 0.0
C618 C 0.64338 0.78682 0.34059 0.0
C619 C 0.66143 0.8443 0.33453 0.0
C620 C 0.67648 0.81894 0.29758 0.0
C621 C 0.68624 0.81927 0.28193 0.0
C622 C 0.7072 0.82215 0.2809 0.0
C623 C 0.67448 0.81694 0.26777 0.0
C624 C 0.68358 0.8176 0.2526 0.0
C625 C 0.71639 0.82294 0.26589 0.0
C626 C 0.70471 0.82073 0.25179 0.0
C627 C 0.7085 0.8663 0.35398 0.0
H628 H 0.63569 0.82532 0.40368 0.0
H629 H 0.69823 0.8468 0.42521 0.0
H630 H 0.62056 0.8257 0.43017 0.0
H631 H 0.64351 0.83611 0.45443 0.0
H632 H 0.71642 0.82374 0.29162 0.0
H633 H 0.65832 0.81484 0.26858 0.0
H634 H 0.73258 0.82517 0.2652 0.0
H635 H 0.71203 0.8211 0.24027 0.0
Gd636 Gd 0.17884 0.85163 0.32579 0.0
Gd637 Gd 0.19768 0.84837 0.36669 0.0
C638 C 0.26512 0.85777 0.37625 0.0
C639 C 0.2568 0.82275 0.38513 0.0
C640 C 0.22776 0.82953 0.37774 0.0
C641 C 0.2428 0.85022 0.37394 0.0
C642 C 0.23455 0.81565 0.38367 0.0
C643 C 0.27206 0.84381 0.3815 0.0
C644 C 0.27973 0.8793 0.3738 0.0
C645 C 0.27197 0.89273 0.36928 0.0
N646 N 0.23552 0.86336 0.36914 0.0
C647 C 0.2497 0.88451 0.36717 0.0
H648 H 0.24406 0.8952 0.36379 0.0
C649 C 0.19099 0.80401 0.38221 0.0
N650 N 0.20643 0.82338 0.37663 0.0
C651 C 0.1969 0.78956 0.38795 0.0
C652 C 0.21877 0.79532 0.38851 0.0
H653 H 0.17406 0.79953 0.38178 0.0
H654 H 0.28915 0.84927 0.38317 0.0
H655 H 0.13189 0.80543 0.32778 0.0
H656 H 0.29696 0.88582 0.37573 0.0
H657 H 0.28312 0.90945 0.36752 0.0
H658 H 0.26235 0.81229 0.38955 0.0
H659 H 0.20365 0.9005 0.31058 0.0
H660 H 0.07995 0.81705 0.31757 0.0
H661 H 0.09287 0.79228 0.32455 0.0
H662 H 0.11643 0.89082 0.30421 0.0
H663 H 0.1846 0.77405 0.39198 0.0
H664 H 0.22333 0.78417 0.3931 0.0
H665 H 0.08885 0.85409 0.31058 0.0
H666 H 0.1941 0.92684 0.30074 0.0
N667 N 0.14118 0.83764 0.32334 0.0
C668 C 0.09715 0.82303 0.31918 0.0
C669 C 0.10438 0.80897 0.32303 0.0
C670 C 0.11222 0.84448 0.31692 0.0
C671 C 0.13444 0.85136 0.31897 0.0
C672 C 0.12658 0.81653 0.32487 0.0
N673 N 0.17109 0.87738 0.316 0.0
C674 C 0.14991 0.87191 0.31518 0.0
C675 C 0.18152 0.91148 0.30483 0.0
C676 C 0.15984 0.90645 0.30459 0.0
C677 C 0.18687 0.89655 0.31036 0.0
C678 C 0.14367 0.88632 0.30952 0.0
H679 H 0.15572 0.91798 0.30019 0.0
O680 O 0.19461 0.85852 0.3024 0.0
O681 O 0.20537 0.85284 0.34065 0.0
O682 O 0.20627 0.88203 0.36003 0.0
O683 O 0.18164 0.879 0.34017 0.0
O684 O 0.21484 0.8745 0.32236 0.0
O685 O 0.16756 0.82722 0.3073 0.0
O686 O 0.18146 0.84093 0.38991 0.0
O687 O 0.17104 0.84691 0.35184 0.0
O688 O 0.16991 0.81792 0.33252 0.0
O689 O 0.19452 0.82076 0.35237 0.0
O690 O 0.16183 0.82498 0.36997 0.0
O691 O 0.20817 0.87253 0.38533 0.0
C692 C 0.22178 0.86735 0.33371 0.0
C693 C 0.12155 0.87993 0.30839 0.0
C694 C 0.10585 0.85902 0.31204 0.0
C695 C 0.18107 0.8399 0.29649 0.0
C696 C 0.17185 0.83969 0.28055 0.0
C697 C 0.15419 0.84308 0.2791 0.0
C698 C 0.18098 0.83641 0.26661 0.0
C699 C 0.17265 0.83673 0.25125 0.0
C700 C 0.14586 0.8434 0.26395 0.0
C701 C 0.15502 0.8403 0.25009 0.0
C702 C 0.19581 0.88971 0.3517 0.0
C703 C 0.15476 0.83206 0.35866 0.0
C704 C 0.19458 0.85957 0.39598 0.0
C705 C 0.20349 0.85979 0.41204 0.0
C706 C 0.22203 0.85789 0.41373 0.0
C707 C 0.19318 0.86165 0.42586 0.0
C708 C 0.20128 0.86155 0.44137 0.0
C709 C 0.23008 0.85762 0.42901 0.0
C710 C 0.21978 0.85937 0.44275 0.0
C711 C 0.18039 0.81018 0.34076 0.0
H712 H 0.14682 0.84542 0.28963 0.0
H713 H 0.19471 0.83391 0.2677 0.0
H714 H 0.13221 0.84601 0.26294 0.0
H715 H 0.14809 0.84038 0.23846 0.0
H716 H 0.2303 0.85663 0.40329 0.0
H717 H 0.17904 0.86344 0.42449 0.0
H718 H 0.24432 0.856 0.43022 0.0
H719 H 0.22622 0.85879 0.45446 0.0
Gd720 Gd 0.83733 0.68096 0.70055 0.0
Gd721 Gd 0.82094 0.65735 0.65952 0.0
C722 C 0.7549 0.59947 0.6487 0.0
C723 C 0.76458 0.57272 0.64215 0.0
C724 C 0.79255 0.60851 0.64925 0.0
C725 C 0.77696 0.61425 0.65152 0.0
C726 C 0.78661 0.58781 0.6442 0.0
C727 C 0.74876 0.57856 0.64434 0.0
C728 C 0.73977 0.60633 0.64983 0.0
C729 C 0.74683 0.62752 0.65337 0.0
N730 N 0.7835 0.63464 0.65552 0.0
C731 C 0.76889 0.64159 0.656 0.0
H732 H 0.77405 0.65792 0.6587 0.0
C733 C 0.82977 0.6195 0.64676 0.0
N734 N 0.81367 0.62362 0.65095 0.0
C735 C 0.8247 0.59914 0.6419 0.0
C736 C 0.80302 0.58314 0.6408 0.0
H737 H 0.84655 0.63182 0.6476 0.0
H738 H 0.73187 0.56693 0.64226 0.0
H739 H 0.88464 0.68123 0.70175 0.0
H740 H 0.72269 0.59551 0.64766 0.0
H741 H 0.7353 0.63305 0.65406 0.0
H742 H 0.75967 0.55668 0.6384 0.0
H743 H 0.81127 0.706 0.71271 0.0
H744 H 0.93574 0.74504 0.70903 0.0
H745 H 0.92356 0.70711 0.70465 0.0
H746 H 0.89769 0.78287 0.71832 0.0
H747 H 0.83751 0.5958 0.63897 0.0
H748 H 0.79913 0.56742 0.63691 0.0
H749 H 0.92593 0.77331 0.7139 0.0
H750 H 0.81989 0.74225 0.72032 0.0
N751 N 0.87475 0.70426 0.7041 0.0
C752 C 0.91859 0.73373 0.7078 0.0
C753 C 0.91178 0.71233 0.70538 0.0
C754 C 0.90314 0.74015 0.70915 0.0
C755 C 0.88105 0.7248 0.70736 0.0
C756 C 0.88965 0.69768 0.70376 0.0
N757 N 0.84419 0.71467 0.70885 0.0
C758 C 0.86524 0.73019 0.70984 0.0
C759 C 0.8328 0.73908 0.71735 0.0
C760 C 0.85438 0.75546 0.71769 0.0
C761 C 0.82798 0.71859 0.71311 0.0
C762 C 0.87095 0.75106 0.71415 0.0
H763 H 0.85808 0.77131 0.72102 0.0
O764 O 0.8203 0.67333 0.72344 0.0
O765 O 0.81187 0.65619 0.68514 0.0
O766 O 0.81169 0.68264 0.66454 0.0
O767 O 0.83544 0.70472 0.68452 0.0
O768 O 0.80117 0.66877 0.70256 0.0
O769 O 0.8472 0.66775 0.72005 0.0
O770 O 0.83962 0.66657 0.63739 0.0
O771 O 0.84647 0.68215 0.6749 0.0
O772 O 0.84668 0.65579 0.69552 0.0
O773 O 0.82308 0.63355 0.67548 0.0
O774 O 0.85686 0.66871 0.65785 0.0
O775 O 0.81108 0.66976 0.6394 0.0
C776 C 0.79506 0.65488 0.69117 0.0
C777 C 0.89295 0.76667 0.71519 0.0
C778 C 0.90903 0.76123 0.71267 0.0
C779 C 0.83311 0.66758 0.73018 0.0
C780 C 0.8414 0.67633 0.74633 0.0
C781 C 0.85674 0.69784 0.7483 0.0
C782 C 0.83405 0.66307 0.75992 0.0
C783 C 0.84209 0.67124 0.77544 0.0
C784 C 0.86468 0.70607 0.7636 0.0
C785 C 0.85745 0.69292 0.77708 0.0
C786 C 0.82186 0.70098 0.67242 0.0
C787 C 0.86314 0.68294 0.66901 0.0
C788 C 0.82649 0.67137 0.63 0.0
C789 C 0.82019 0.66301 0.61349 0.0
C790 C 0.80734 0.64118 0.61076 0.0
C791 C 0.82772 0.67693 0.6003 0.0
C792 C 0.82274 0.6691 0.58433 0.0
C793 C 0.80233 0.63326 0.59507 0.0
C794 C 0.81006 0.64703 0.58195 0.0
C795 C 0.83659 0.6374 0.68769 0.0
H796 H 0.8626 0.70826 0.73803 0.0
H797 H 0.82235 0.64639 0.75835 0.0
H798 H 0.87646 0.72272 0.76502 0.0
H799 H 0.8637 0.6998 0.78884 0.0
H800 H 0.80135 0.63025 0.62072 0.0
H801 H 0.83734 0.69381 0.60254 0.0
H802 H 0.79259 0.61635 0.59305 0.0
H803 H 0.80631 0.64026 0.56993 0.0
Gd804 Gd 0.33169 0.15512 0.69968 0.0
Gd805 Gd 0.35575 0.16082 0.65913 0.0
C806 C 0.40383 0.13673 0.65386 0.0
C807 C 0.43698 0.16884 0.64666 0.0
C808 C 0.40384 0.16986 0.65162 0.0
C809 C 0.39295 0.14843 0.65495 0.0
C810 C 0.42582 0.18017 0.64697 0.0
C811 C 0.42598 0.14714 0.65004 0.0
C812 C 0.392 0.11483 0.65622 0.0
C813 C 0.36996 0.10512 0.65963 0.0
N814 N 0.3715 0.13883 0.65853 0.0
C815 C 0.35989 0.11734 0.66067 0.0
H816 H 0.34291 0.10928 0.66347 0.0
C817 C 0.40143 0.20018 0.64536 0.0
N818 N 0.39246 0.1802 0.65156 0.0
C819 C 0.42326 0.21123 0.6409 0.0
C820 C 0.43564 0.2013 0.64199 0.0
H821 H 0.39176 0.20777 0.64421 0.0
H822 H 0.43462 0.13844 0.64927 0.0
H823 H 0.3315 0.20109 0.6973 0.0
H824 H 0.39963 0.10522 0.65518 0.0
H825 H 0.36065 0.08816 0.66145 0.0
H826 H 0.45391 0.17654 0.64327 0.0
H827 H 0.30721 0.10772 0.71717 0.0
H828 H 0.26704 0.18876 0.70538 0.0
H829 H 0.30556 0.21387 0.69957 0.0
H830 H 0.22836 0.11518 0.71906 0.0
H831 H 0.43045 0.2273 0.6365 0.0
H832 H 0.45249 0.20978 0.63834 0.0
H833 H 0.23805 0.15161 0.71195 0.0
H834 H 0.27071 0.08139 0.72696 0.0
N835 N 0.3078 0.16867 0.70094 0.0
C836 C 0.27829 0.18292 0.70412 0.0
C837 C 0.30005 0.19718 0.70095 0.0
C838 C 0.27149 0.16146 0.70632 0.0
C839 C 0.28687 0.15477 0.70476 0.0
C840 C 0.31472 0.1898 0.69966 0.0
N841 N 0.29741 0.12935 0.70914 0.0
C842 C 0.28146 0.13436 0.70891 0.0
C843 C 0.27346 0.09615 0.7218 0.0
C844 C 0.25646 0.10044 0.72063 0.0
C845 C 0.29408 0.11107 0.71629 0.0
C846 C 0.26048 0.11999 0.71457 0.0
H847 H 0.24057 0.08898 0.72509 0.0
O848 O 0.34045 0.14808 0.72306 0.0
O849 O 0.35837 0.15606 0.68525 0.0
O850 O 0.32523 0.12863 0.66161 0.0
O851 O 0.3079 0.12564 0.68626 0.0
O852 O 0.34554 0.13335 0.70298 0.0
O853 O 0.34279 0.17847 0.71892 0.0
O854 O 0.35466 0.17421 0.63598 0.0
O855 O 0.32962 0.16089 0.67358 0.0
O856 O 0.35756 0.18933 0.69493 0.0
O857 O 0.37884 0.19027 0.6731 0.0
O858 O 0.34409 0.18442 0.65654 0.0
O859 O 0.3413 0.1403 0.6384 0.0
C860 C 0.36035 0.14169 0.6921 0.0
C861 C 0.24463 0.12607 0.71493 0.0
C862 C 0.25016 0.14682 0.71088 0.0
C863 C 0.34398 0.16587 0.72947 0.0
C864 C 0.33358 0.16428 0.74508 0.0
C865 C 0.31193 0.15953 0.74591 0.0
C866 C 0.3454 0.16749 0.75936 0.0
C867 C 0.3356 0.16573 0.77443 0.0
C868 C 0.30205 0.15754 0.76081 0.0
C869 C 0.31377 0.16056 0.77502 0.0
C870 C 0.3092 0.11821 0.67199 0.0
C871 C 0.32878 0.17611 0.66708 0.0
C872 C 0.34596 0.15596 0.6286 0.0
C873 C 0.35556 0.15537 0.61309 0.0
C874 C 0.37495 0.15487 0.61237 0.0
C875 C 0.34477 0.15477 0.59878 0.0
C876 C 0.35317 0.15351 0.58372 0.0
C877 C 0.3836 0.15399 0.5975 0.0
C878 C 0.3728 0.15327 0.58324 0.0
C879 C 0.3752 0.19903 0.68586 0.0
H880 H 0.30271 0.15748 0.73511 0.0
H881 H 0.36215 0.17121 0.75874 0.0
H882 H 0.28533 0.15382 0.76133 0.0
H883 H 0.3059 0.1593 0.78647 0.0
H884 H 0.38328 0.15493 0.62324 0.0
H885 H 0.32981 0.15523 0.59941 0.0
H886 H 0.39856 0.15355 0.59704 0.0
H887 H 0.37955 0.152 0.57188 0.0
Gd888 Gd 0.84807 0.18687 0.65935 0.0
Gd889 Gd 0.86769 0.18339 0.69995 0.0
C890 C 0.93446 0.19079 0.70884 0.0
C891 C 0.92525 0.15554 0.71776 0.0
C892 C 0.89682 0.1633 0.71062 0.0
C893 C 0.91223 0.1838 0.70668 0.0
C894 C 0.90312 0.14902 0.71648 0.0
C895 C 0.9409 0.17643 0.71403 0.0
C896 C 0.94948 0.2122 0.70634 0.0
C897 C 0.94223 0.22604 0.70185 0.0
N898 N 0.90543 0.19734 0.70194 0.0
C899 C 0.92004 0.21836 0.69986 0.0
H900 H 0.91479 0.22935 0.69652 0.0
C901 C 0.85989 0.13861 0.71544 0.0
N902 N 0.87562 0.15776 0.70973 0.0
C903 C 0.86529 0.12376 0.72108 0.0
C904 C 0.887 0.1289 0.72144 0.0
H905 H 0.84309 0.13459 0.71519 0.0
H906 H 0.95791 0.18145 0.71559 0.0
H907 H 0.79999 0.1419 0.66089 0.0
H908 H 0.96666 0.21832 0.7082 0.0
H909 H 0.95372 0.24267 0.70003 0.0
H910 H 0.93043 0.14476 0.72213 0.0
H911 H 0.87506 0.23641 0.64524 0.0
H912 H 0.75009 0.1566 0.65076 0.0
H913 H 0.76135 0.13039 0.65743 0.0
H914 H 0.78961 0.23056 0.63811 0.0
H915 H 0.85274 0.10841 0.72521 0.0
H916 H 0.89117 0.11745 0.72597 0.0
H917 H 0.76077 0.19414 0.64396 0.0
H918 H 0.86723 0.26411 0.63594 0.0
N919 N 0.81074 0.17444 0.65652 0.0
C920 C 0.76714 0.16177 0.6523 0.0
C921 C 0.77342 0.14693 0.65602 0.0
C922 C 0.78297 0.18299 0.65011 0.0
C923 C 0.80493 0.18887 0.65216 0.0
C924 C 0.79541 0.15354 0.65796 0.0
N925 N 0.84201 0.21386 0.6498 0.0
C926 C 0.8211 0.20925 0.64871 0.0
C927 C 0.85411 0.24877 0.63954 0.0
C928 C 0.83271 0.24456 0.639 0.0
C929 C 0.85848 0.23304 0.64476 0.0
C930 C 0.81585 0.22449 0.64335 0.0
H931 H 0.82935 0.25672 0.63486 0.0
O932 O 0.86336 0.19308 0.6358 0.0
O933 O 0.8746 0.1874 0.6738 0.0
O934 O 0.87711 0.21714 0.69289 0.0
O935 O 0.85127 0.21411 0.6742 0.0
O936 O 0.88414 0.20893 0.65543 0.0
O937 O 0.83609 0.16205 0.64116 0.0
O938 O 0.85233 0.17686 0.72348 0.0
O939 O 0.84083 0.18221 0.68552 0.0
O940 O 0.83777 0.1529 0.66641 0.0
O941 O 0.86293 0.15519 0.68557 0.0
O942 O 0.83187 0.16085 0.70412 0.0
O943 O 0.87927 0.20809 0.71822 0.0
C944 C 0.89102 0.20155 0.66664 0.0
C945 C 0.79399 0.21903 0.64208 0.0
C946 C 0.77757 0.1983 0.64542 0.0
C947 C 0.84961 0.17433 0.63018 0.0
C948 C 0.84037 0.17371 0.61417 0.0
C949 C 0.82337 0.17801 0.61239 0.0
C950 C 0.84865 0.16877 0.6005 0.0
C951 C 0.83991 0.16799 0.58508 0.0
C952 C 0.81471 0.17739 0.59717 0.0
C953 C 0.82287 0.17242 0.58359 0.0
C954 C 0.86629 0.22491 0.68519 0.0
C955 C 0.82466 0.16776 0.69279 0.0
C956 C 0.86595 0.19557 0.72919 0.0
C957 C 0.87538 0.19599 0.74508 0.0
C958 C 0.89391 0.19399 0.74642 0.0
C959 C 0.86555 0.19807 0.7591 0.0
C960 C 0.87411 0.19808 0.77446 0.0
C961 C 0.9024 0.19385 0.76154 0.0
C962 C 0.89259 0.1958 0.77548 0.0
C963 C 0.84791 0.14466 0.67448 0.0
H964 H 0.81678 0.18182 0.62271 0.0
H965 H 0.86165 0.16524 0.60193 0.0
H966 H 0.80163 0.18081 0.59589 0.0
H967 H 0.81602 0.1723 0.5719 0.0
H968 H 0.90181 0.19255 0.73582 0.0
H969 H 0.85142 0.19992 0.758 0.0
H970 H 0.91662 0.19214 0.76247 0.0
H971 H 0.89935 0.1953 0.78706 0.0
H972 H 0.3043 0.83804 0.0915 0.0
H973 H 0.33651 0.86717 0.07964 0.0
H974 H 0.30887 0.84693 0.03213 0.0
H975 H 0.27562 0.8186 0.04405 0.0
H976 H 0.3654 0.86779 0.06053 0.0
H977 H 0.32706 0.90812 0.02937 0.0
H978 H 0.31244 0.88676 0.04337 0.0
H979 H 0.31675 0.88122 0.02297 0.0
C980 C 0.30471 0.83999 0.07855 0.0
C981 C 0.28702 0.82608 0.06881 0.0
C982 C 0.32336 0.85657 0.07174 0.0
C983 C 0.32507 0.85958 0.05498 0.0
C984 C 0.30777 0.84536 0.04512 0.0
H985 H 0.45566 0.94951 0.01926 0.0
H986 H 0.42107 0.91698 0.02319 0.0
C987 C 0.28886 0.82891 0.05196 0.0
C988 C 0.3452 0.87744 0.04809 0.0
H989 H 0.36463 0.92231 0.02533 0.0
C990 C 0.36521 0.87969 0.05281 0.0
C991 C 0.345 0.89307 0.03808 0.0
C992 C 0.32419 0.89234 0.03326 0.0
C993 C 0.38494 0.89738 0.0483 0.0
C994 C 0.38476 0.9129 0.03815 0.0
C995 C 0.36478 0.91035 0.03302 0.0
C996 C 0.40501 0.93267 0.03379 0.0
C997 C 0.40567 0.89969 0.05519 0.0
C998 C 0.40722 0.95247 0.03755 0.0
C999 C 0.42676 0.97114 0.03473 0.0
C1000 C 0.44444 0.9704 0.02802 0.0
C1001 C 0.44217 0.95063 0.02407 0.0
C1002 C 0.42249 0.93197 0.02658 0.0
H1003 H 0.4026 0.88971 0.06606 0.0
H1004 H 0.41344 0.89453 0.04604 0.0
H1005 H 0.41723 0.9164 0.05852 0.0
H1006 H 0.39402 0.95347 0.04314 0.0
H1007 H 0.42821 0.98618 0.03809 0.0
H1008 H 0.16469 0.42881 0.07307 0.0
H1009 H 0.13583 0.43395 0.06206 0.0
H1010 H 0.18291 0.49791 0.04885 0.0
H1011 H 0.21204 0.4929 0.06011 0.0
H1012 H 0.14721 0.49445 0.06624 0.0
H1013 H 0.11903 0.43737 0.01537 0.0
H1014 H 0.12075 0.42599 0.0341 0.0
H1015 H 0.14501 0.44676 0.02505 0.0
C1016 C 0.16896 0.44394 0.06771 0.0
C1017 C 0.19068 0.46049 0.06753 0.0
C1018 C 0.15244 0.44679 0.06128 0.0
C1019 C 0.15717 0.46623 0.05444 0.0
C1020 C 0.17888 0.48271 0.05396 0.0
H1021 H 0.0666 0.50939 0.02524 0.0
H1022 H 0.09958 0.50774 0.03026 0.0
C1023 C 0.19552 0.47981 0.06032 0.0
C1024 C 0.13919 0.46959 0.04889 0.0
H1025 H 0.09484 0.44926 0.02404 0.0
C1026 C 0.13593 0.48479 0.05685 0.0
C1027 C 0.12441 0.45692 0.03668 0.0
C1028 C 0.12755 0.44098 0.02719 0.0
C1029 C 0.1178 0.48704 0.05345 0.0
C1030 C 0.10271 0.474 0.04151 0.0
C1031 C 0.10631 0.45919 0.03324 0.0
C1032 C 0.08272 0.47496 0.03783 0.0
C1033 C 0.1145 0.50274 0.06316 0.0
C1034 C 0.06219 0.45697 0.04 0.0
C1035 C 0.04329 0.45782 0.03689 0.0
C1036 C 0.04454 0.47654 0.03121 0.0
C1037 C 0.06508 0.49458 0.02916 0.0
C1038 C 0.08398 0.49373 0.03226 0.0
H1039 H 0.1244 0.50762 0.07439 0.0
H1040 H 0.11943 0.51715 0.05584 0.0
H1041 H 0.09719 0.49603 0.06647 0.0
H1042 H 0.06077 0.44232 0.04433 0.0
H1043 H 0.02766 0.44379 0.03882 0.0
H1044 H 0.56547 0.74711 0.04784 0.0
H1045 H 0.55891 0.71354 0.03623 0.0
H1046 H 0.53499 0.68292 0.08209 0.0
H1047 H 0.54034 0.71607 0.09353 0.0
H1048 H 0.57722 0.69053 0.04473 0.0
H1049 H 0.48827 0.64209 0.05206 0.0
H1050 H 0.50276 0.67052 0.05445 0.0
H1051 H 0.50179 0.65375 0.07073 0.0
C1052 C 0.55831 0.73312 0.05535 0.0
C1053 C 0.55337 0.73427 0.07161 0.0
C1054 C 0.55477 0.714 0.04874 0.0
C1055 C 0.54621 0.69568 0.05824 0.0
C1056 C 0.54117 0.69674 0.07444 0.0
H1057 H 0.55843 0.58467 0.04151 0.0
H1058 H 0.56315 0.61879 0.05023 0.0
C1059 C 0.54453 0.71579 0.08102 0.0
C1060 C 0.54358 0.67571 0.05148 0.0
H1061 H 0.507 0.62318 0.04657 0.0
C1062 C 0.56183 0.67582 0.04499 0.0
C1063 C 0.52342 0.65663 0.05164 0.0
C1064 C 0.50291 0.65574 0.05744 0.0
C1065 C 0.56058 0.65724 0.03897 0.0
C1066 C 0.54068 0.63795 0.03989 0.0
C1067 C 0.52232 0.63794 0.04606 0.0
C1068 C 0.53835 0.61758 0.03437 0.0
C1069 C 0.58051 0.65854 0.03148 0.0
C1070 C 0.52244 0.6053 0.02292 0.0
C1071 C 0.51938 0.58563 0.01818 0.0
C1072 C 0.53236 0.5779 0.02466 0.0
C1073 C 0.54832 0.59024 0.03614 0.0
C1074 C 0.55117 0.60984 0.04104 0.0
H1075 H 0.59206 0.67486 0.02733 0.0
H1076 H 0.58898 0.65416 0.04061 0.0
H1077 H 0.5762 0.64753 0.02106 0.0
H1078 H 0.51222 0.61087 0.01773 0.0
H1079 H 0.5066 0.5764 0.00961 0.0
H1080 H 0.85141 0.2659 0.95229 0.0
H1081 H 0.87957 0.29923 0.96395 0.0
H1082 H 0.8309 0.31407 0.97943 0.0
H1083 H 0.80254 0.28084 0.96749 0.0
H1084 H 0.88621 0.34027 0.95431 0.0
H1085 H 0.87037 0.32522 0.01999 0.0
H1086 H 0.86083 0.30405 0.00529 0.0
H1087 H 0.84734 0.31915 0.00742 0.0
C1088 C 0.84665 0.27622 0.95819 0.0
C1089 C 0.82471 0.27077 0.95883 0.0
C1090 C 0.86276 0.2952 0.96492 0.0
C1091 C 0.85731 0.30904 0.97261 0.0
C1092 C 0.83541 0.30344 0.97374 0.0
H1093 H 0.93404 0.43486 0.01396 0.0
H1094 H 0.90516 0.39984 0.00566 0.0
C1095 C 0.81923 0.28443 0.96693 0.0
C1096 C 0.87471 0.32995 0.97842 0.0
H1097 H 0.89715 0.35977 0.01233 0.0
C1098 C 0.88867 0.34454 0.967 0.0
C1099 C 0.87773 0.33547 0.99495 0.0
C1100 C 0.86341 0.32016 0.00769 0.0
C1101 C 0.90547 0.36464 0.97164 0.0
C1102 C 0.90876 0.3701 0.98821 0.0
C1103 C 0.89469 0.35553 0.99964 0.0
C1104 C 0.92655 0.39096 0.99387 0.0
C1105 C 0.91917 0.38003 0.95868 0.0
C1106 C 0.94827 0.39747 0.99032 0.0
C1107 C 0.96487 0.41756 0.99501 0.0
C1108 C 0.96008 0.43142 0.00354 0.0
C1109 C 0.93836 0.42458 0.00749 0.0
C1110 C 0.92178 0.40455 0.00273 0.0
H1111 H 0.91084 0.37577 0.94678 0.0
H1112 H 0.92324 0.39645 0.96178 0.0
H1113 H 0.93452 0.37972 0.95746 0.0
H1114 H 0.95239 0.38705 0.98384 0.0
H1115 H 0.98142 0.42223 0.99188 0.0
H1116 H 0.74363 0.58073 0.95417 0.0
H1117 H 0.71018 0.57704 0.96527 0.0
H1118 H 0.68936 0.51248 0.97846 0.0
H1119 H 0.72299 0.51611 0.96734 0.0
H1120 H 0.66942 0.54907 0.95408 0.0
H1121 H 0.6754 0.535 0.01921 0.0
H1122 H 0.69851 0.54546 0.00591 0.0
H1123 H 0.67895 0.51764 0.00572 0.0
C1124 C 0.73203 0.56577 0.95955 0.0
C1125 C 0.73595 0.54866 0.95975 0.0
C1126 C 0.71292 0.56371 0.96595 0.0
C1127 C 0.69723 0.54453 0.97281 0.0
C1128 C 0.70136 0.52758 0.97352 0.0
H1129 H 0.56397 0.50308 0.00315 0.0
H1130 H 0.59868 0.50496 0.99743 0.0
C1131 C 0.72059 0.52966 0.96714 0.0
C1132 C 0.67597 0.54199 0.97792 0.0
H1133 H 0.64213 0.53156 0.01016 0.0
C1134 C 0.66352 0.5453 0.96637 0.0
C1135 C 0.66811 0.53687 0.99392 0.0
C1136 C 0.68097 0.5337 0.00697 0.0
C1137 C 0.64358 0.54369 0.97031 0.0
C1138 C 0.63591 0.539 0.98635 0.0
C1139 C 0.64809 0.53527 0.99789 0.0
C1140 C 0.61542 0.53823 0.99126 0.0
C1141 C 0.63072 0.54678 0.95717 0.0
C1142 C 0.61339 0.55639 0.99005 0.0
C1143 C 0.59363 0.55536 0.99339 0.0
C1144 C 0.57559 0.53626 0.99831 0.0
C1145 C 0.57771 0.51815 0.99978 0.0
C1146 C 0.59752 0.51918 0.99644 0.0
H1147 H 0.63592 0.54479 0.94497 0.0
H1148 H 0.61311 0.5354 0.95847 0.0
H1149 H 0.63325 0.56306 0.95803 0.0
H1150 H 0.62703 0.57131 0.98625 0.0
H1151 H 0.59237 0.56949 0.99201 0.0
H1152 H 0.4797 0.18381 0.93649 0.0
H1153 H 0.48481 0.15663 0.9495 0.0
H1154 H 0.46272 0.16864 0.99461 0.0
H1155 H 0.45645 0.19513 0.98147 0.0
H1156 H 0.50984 0.15805 0.9746 0.0
H1157 H 0.42269 0.10545 0.98881 0.0
H1158 H 0.43206 0.12797 0.97563 0.0
H1159 H 0.43432 0.13166 0.99714 0.0
C1160 C 0.47574 0.18056 0.94915 0.0
C1161 C 0.46735 0.19141 0.95788 0.0
C1162 C 0.47885 0.16515 0.9566 0.0
C1163 C 0.47374 0.16034 0.97293 0.0
C1164 C 0.46629 0.17178 0.98189 0.0
H1165 H 0.51166 0.07819 0.02278 0.0
H1166 H 0.50709 0.10812 0.01558 0.0
C1167 C 0.463 0.18711 0.97441 0.0
C1168 C 0.47589 0.14304 0.98035 0.0
H1169 H 0.44694 0.09446 0.99791 0.0
C1170 C 0.49613 0.14418 0.97978 0.0
C1171 C 0.45787 0.12487 0.98689 0.0
C1172 C 0.43545 0.12224 0.98705 0.0
C1173 C 0.49881 0.12748 0.98535 0.0
C1174 C 0.48086 0.10943 0.99209 0.0
C1175 C 0.46069 0.10841 0.99287 0.0
C1176 C 0.48239 0.0909 0.99753 0.0
C1177 C 0.52062 0.12901 0.98337 0.0
C1178 C 0.46929 0.07104 0.99031 0.0
C1179 C 0.47147 0.05371 0.99468 0.0
C1180 C 0.48685 0.05597 0.00634 0.0
C1181 C 0.49953 0.07579 0.01386 0.0
C1182 C 0.49715 0.09303 0.00961 0.0
H1183 H 0.53082 0.14117 0.97435 0.0
H1184 H 0.52939 0.13356 0.99508 0.0
H1185 H 0.51877 0.11356 0.97956 0.0
H1186 H 0.45772 0.06906 0.981 0.0
H1187 H 0.4614 0.03869 0.98866 0.0
H1188 H 0.69502 0.16345 0.9334 0.0
H1189 H 0.66161 0.13703 0.94637 0.0
H1190 H 0.68999 0.16142 0.99311 0.0
H1191 H 0.72378 0.18768 0.98013 0.0
H1192 H 0.66933 0.11854 0.99222 0.0
H1193 H 0.61521 0.1453 0.96711 0.0
H1194 H 0.62954 0.14047 0.95144 0.0
H1195 H 0.64436 0.16119 0.96601 0.0
C1196 C 0.69409 0.16326 0.94644 0.0
C1197 C 0.71192 0.17767 0.95574 0.0
C1198 C 0.67493 0.14826 0.95385 0.0
C1199 C 0.6731 0.14753 0.97072 0.0
C1200 C 0.69098 0.16182 0.98007 0.0
H1201 H 0.54257 0.0624 0.00761 0.0
H1202 H 0.578 0.0941 0.00383 0.0
C1203 C 0.71026 0.17682 0.97264 0.0
C1204 C 0.65276 0.13119 0.97843 0.0
H1205 H 0.59781 0.10948 0.97696 0.0
C1206 C 0.6537 0.11674 0.98909 0.0
C1207 C 0.63238 0.12907 0.97465 0.0
C1208 C 0.63031 0.14499 0.96432 0.0
C1209 C 0.63475 0.09956 0.99535 0.0
C1210 C 0.61427 0.09646 0.99051 0.0
C1211 C 0.61343 0.11161 0.98055 0.0
C1212 C 0.59354 0.0771 0.99474 0.0
C1213 C 0.63699 0.0849 0.007 0.0
C1214 C 0.59038 0.05693 0.991 0.0
C1215 C 0.57028 0.0388 0.99351 0.0
C1216 C 0.55286 0.04044 0.99973 0.0
C1217 C 0.55589 0.06058 0.00335 0.0
C1218 C 0.5761 0.07873 1.00103 0.0
H1219 H 0.65226 0.09348 0.01409 0.0
H1220 H 0.62318 0.07755 0.01549 0.0
H1221 H 0.63764 0.07214 1.00013 0.0
H1222 H 0.60324 0.05522 0.98558 0.0
H1223 H 0.56817 0.02347 0.99024 0.0
H1224 H 0.84067 0.52309 0.93219 0.0
H1225 H 0.8698 0.51846 0.94326 0.0
H1226 H 0.85199 0.52633 0.9914 0.0
H1227 H 0.823 0.53161 0.98024 0.0
H1228 H 0.89524 0.54831 0.98762 0.0
H1229 H 0.86538 0.46721 0.96458 0.0
H1230 H 0.86843 0.48494 0.94856 0.0
H1231 H 0.84893 0.47964 0.96427 0.0
C1232 C 0.84286 0.52372 0.94515 0.0
C1233 C 0.82945 0.52757 0.95533 0.0
C1234 C 0.85945 0.5209 0.95149 0.0
C1235 C 0.86285 0.5215 0.96821 0.0
C1236 C 0.84959 0.52558 0.97846 0.0
H1237 H 0.95163 0.47942 0.00289 0.0
H1238 H 0.91955 0.48266 0.99802 0.0
C1239 C 0.833 0.52857 0.97208 0.0
C1240 C 0.88076 0.51863 0.97478 0.0
H1241 H 0.90286 0.48651 0.97241 0.0
C1242 C 0.89677 0.53466 0.98448 0.0
C1243 C 0.88267 0.50067 0.97095 0.0
C1244 C 0.8653 0.48205 0.96167 0.0
C1245 C 0.91497 0.53364 0.98991 0.0
C1246 C 0.91764 0.51633 0.98518 0.0
C1247 C 0.90116 0.49993 0.97597 0.0
C1248 C 0.9374 0.51496 0.9893 0.0
C1249 C 0.93097 0.55116 1.00076 0.0
C1250 C 0.95831 0.53186 0.98598 0.0
C1251 C 0.97671 0.5302 0.98927 0.0
C1252 C 0.97468 0.51153 0.99578 0.0
C1253 C 0.9538 0.49433 0.99853 0.0
C1254 C 0.9354 0.49611 0.99554 0.0
H1255 H 0.92289 0.55806 0.00802 0.0
H1256 H 0.93911 0.54549 0.00911 0.0
H1257 H 0.94347 0.56404 0.99325 0.0
H1258 H 0.96045 0.54625 0.98051 0.0
H1259 H 0.99258 0.54348 0.98654 0.0
H1260 H 0.48754 0.2928 0.97384 0.0
H1261 H 0.49802 0.32784 0.98493 0.0
H1262 H 0.44274 0.3258 0.96173 0.0
H1263 H 0.43203 0.29068 0.95076 0.0
H1264 H 0.50779 0.3645 0.96754 0.0
H1265 H 0.43804 0.34166 0.00841 0.0
H1266 H 0.44454 0.3226 1.00005 0.0
H1267 H 0.43025 0.3323 0.9881 0.0
C1268 C 0.47753 0.29975 0.97122 0.0
C1269 C 0.45889 0.28904 0.96152 0.0
C1270 C 0.48355 0.31974 0.97755 0.0
C1271 C 0.47095 0.3292 0.97435 0.0
C1272 C 0.4524 0.31854 0.96463 0.0
H1273 H 0.47723 0.44855 0.98885 0.0
H1274 H 0.46838 0.41255 0.98172 0.0
C1275 C 0.44638 0.29859 0.9583 0.0
C1276 C 0.47767 0.35065 0.98055 0.0
H1277 H 0.46025 0.37858 0.00295 0.0
C1278 C 0.49755 0.3676 0.97544 0.0
C1279 C 0.46422 0.35454 0.99084 0.0
C1280 C 0.44316 0.33679 0.99731 0.0
C1281 C 0.504 0.38852 0.97986 0.0
C1282 C 0.4903 0.39244 0.98985 0.0
C1283 C 0.47064 0.37545 0.99524 0.0
C1284 C 0.49575 0.41416 0.99439 0.0
C1285 C 0.52502 0.40631 0.97338 0.0
C1286 C 0.51397 0.42684 0.00399 0.0
C1287 C 0.51913 0.44745 0.00804 0.0
C1288 C 0.50603 0.45563 0.00267 0.0
C1289 C 0.48768 0.44277 0.99317 0.0
C1290 C 0.48255 0.42218 0.98912 0.0
H1291 H 0.53131 0.40101 0.96319 0.0
H1292 H 0.52292 0.41965 0.96923 0.0
H1293 H 0.5374 0.41233 0.98312 0.0
H1294 H 0.52419 0.4208 0.00834 0.0
H1295 H 0.53352 0.457 0.01523 0.0
H1296 H 0.19914 0.69292 0.08775 0.0
H1297 H 0.17004 0.65998 0.07619 0.0
H1298 H 0.16056 0.69563 0.03874 0.0
H1299 H 0.19041 0.7285 0.04986 0.0
H1300 H 0.12908 0.64695 0.0732 0.0
H1301 H 0.16167 0.65085 0.01193 0.0
H1302 H 0.17783 0.66862 0.0279 0.0
H1303 H 0.15919 0.67358 0.01661 0.0
C1304 C 0.19103 0.69365 0.07691 0.0
C1305 C 0.19715 0.71317 0.0696 0.0
C1306 C 0.17436 0.67485 0.07033 0.0
C1307 C 0.16325 0.6752 0.05642 0.0
C1308 C 0.16926 0.6948 0.04918 0.0
H1309 H 0.03636 0.5657 0.03262 0.0
H1310 H 0.06547 0.60075 0.04093 0.0
C1311 C 0.18625 0.71361 0.0556 0.0
C1312 C 0.14482 0.65512 0.05005 0.0
H1313 H 0.12496 0.62431 0.01625 0.0
C1314 C 0.12824 0.64198 0.06075 0.0
C1315 C 0.14377 0.64846 0.03385 0.0
C1316 C 0.16167 0.661 0.02195 0.0
C1317 C 0.11081 0.62241 0.05577 0.0
C1318 C 0.10937 0.6161 0.03944 0.0
C1319 C 0.12589 0.62925 0.02872 0.0
C1320 C 0.0915 0.59543 0.03343 0.0
C1321 C 0.09458 0.60842 0.06826 0.0
C1322 C 0.09634 0.58114 0.0257 0.0
C1323 C 0.07975 0.56131 0.02061 0.0
C1324 C 0.0579 0.55527 0.02324 0.0
C1325 C 0.05302 0.56978 0.03061 0.0
C1326 C 0.06966 0.58977 0.03547 0.0
H1327 H 0.10139 0.61262 0.08066 0.0
H1328 H 0.08018 0.61049 0.06774 0.0
H1329 H 0.08919 0.59146 0.06606 0.0
H1330 H 0.11303 0.58513 0.02391 0.0
H1331 H 0.08411 0.55052 0.01501 0.0
H1332 H 0.29744 0.43403 0.07281 0.0
H1333 H 0.33348 0.44476 0.06224 0.0
H1334 H 0.33804 0.50186 0.04325 0.0
H1335 H 0.30174 0.49113 0.05389 0.0
H1336 H 0.34749 0.45375 0.0293 0.0
H1337 H 0.395 0.52282 0.06995 0.0
H1338 H 0.36752 0.50261 0.07443 0.0
H1339 H 0.37261 0.52189 0.05913 0.0
C1340 C 0.3061 0.44889 0.06638 0.0
C1341 C 0.29674 0.46171 0.06419 0.0
C1342 C 0.32671 0.455 0.06034 0.0
C1343 C 0.33859 0.4742 0.05207 0.0
C1344 C 0.3293 0.4871 0.04978 0.0
H1345 H 0.47481 0.52885 0.02162 0.0
H1346 H 0.43827 0.5236 0.02543 0.0
C1347 C 0.30851 0.48091 0.05578 0.0
C1348 C 0.36049 0.4802 0.04573 0.0
H1349 H 0.41464 0.51409 0.0518 0.0
C1350 C 0.36218 0.46707 0.03411 0.0
C1351 C 0.37965 0.49765 0.05191 0.0
C1352 C 0.3788 0.51206 0.06462 0.0
C1353 C 0.38244 0.47061 0.02873 0.0
C1354 C 0.40171 0.4875 0.03544 0.0
C1355 C 0.39998 0.50112 0.04664 0.0
C1356 C 0.42364 0.49046 0.03184 0.0
C1357 C 0.38282 0.45611 0.01589 0.0
C1358 C 0.4278 0.47372 0.03421 0.0
C1359 C 0.44854 0.47662 0.03172 0.0
C1360 C 0.46571 0.49635 0.02687 0.0
C1361 C 0.46175 0.51327 0.02478 0.0
C1362 C 0.44089 0.51031 0.02713 0.0
H1363 H 0.36826 0.44983 0.00799 0.0
H1364 H 0.39745 0.46435 0.00826 0.0
H1365 H 0.38274 0.44238 0.02172 0.0
H1366 H 0.41513 0.45848 0.03842 0.0
H1367 H 0.45127 0.46348 0.03386 0.0
H1368 H 0.58679 0.86839 0.07298 0.0
H1369 H 0.5749 0.89131 0.06049 0.0
H1370 H 0.52283 0.83713 0.03647 0.0
H1371 H 0.53446 0.81408 0.04907 0.0
H1372 H 0.57007 0.89752 0.02726 0.0
H1373 H 0.49207 0.86418 0.06063 0.0
H1374 H 0.51362 0.85942 0.06672 0.0
H1375 H 0.49676 0.84549 0.04973 0.0
C1376 C 0.57282 0.86141 0.06502 0.0
C1377 C 0.56149 0.83952 0.06205 0.0
C1378 C 0.56609 0.87448 0.05789 0.0
C1379 C 0.54786 0.86584 0.04773 0.0
C1380 C 0.53673 0.84401 0.04448 0.0
H1381 H 0.48616 0.93352 0.0066 0.0
H1382 H 0.49554 0.90597 0.01166 0.0
C1383 C 0.54345 0.8309 0.05164 0.0
C1384 C 0.54054 0.87983 0.04072 0.0
H1385 H 0.50001 0.89185 0.04248 0.0
C1386 C 0.55468 0.8962 0.03047 0.0
C1387 C 0.52039 0.87793 0.04489 0.0
C1388 C 0.50484 0.86093 0.05618 0.0
C1389 C 0.54942 0.91107 0.02455 0.0
C1390 C 0.52967 0.90966 0.02922 0.0
C1391 C 0.51514 0.89283 0.03895 0.0
C1392 C 0.5246 0.92646 0.02527 0.0
C1393 C 0.56513 0.92829 0.01347 0.0
C1394 C 0.53777 0.94699 0.03137 0.0
C1395 C 0.53251 0.96273 0.0285 0.0
C1396 C 0.51393 0.95821 0.0195 0.0
C1397 C 0.50076 0.9376 0.01338 0.0
C1398 C 0.50602 0.92182 0.0163 0.0
H1399 H 0.57599 0.92363 0.00733 0.0
H1400 H 0.55642 0.93218 0.00418 0.0
H1401 H 0.57541 0.94281 0.02065 0.0
H1402 H 0.55192 0.95074 0.03862 0.0
H1403 H 0.54297 0.97839 0.03345 0.0
H1404 H 0.94143 0.18582 0.40674 0.0
H1405 H 0.97355 0.21595 0.39514 0.0
H1406 H 0.99615 0.17413 0.37881 0.0
H1407 H 0.96395 0.14387 0.39032 0.0
H1408 H 0.015 0.22921 0.40452 0.0
H1409 H 0.00621 0.21045 0.3391 0.0
H1410 H 0.98402 0.19717 0.35308 0.0
H1411 H 1.00439 0.18955 0.3516 0.0
C1412 C 0.95315 0.18301 0.40055 0.0
C1413 C 0.95018 0.16245 0.39951 0.0
C1414 C 0.97145 0.20023 0.39387 0.0
C1415 C 0.98718 0.19731 0.38595 0.0
C1416 C 0.98402 0.17674 0.38452 0.0
H1417 H 0.11917 0.28352 0.35577 0.0
H1418 H 0.08362 0.25251 0.36091 0.0
C1419 C 0.96563 0.15945 0.39115 0.0
C1420 C 0.00771 0.21602 0.38053 0.0
H1421 H 0.0404 0.23885 0.34785 0.0
C1422 C 0.02043 0.23139 0.39209 0.0
C1423 C 0.0149 0.21878 0.36434 0.0
C1424 C 1.00159 0.20322 0.35126 0.0
C1425 C 0.04023 0.24925 0.388 0.0
C1426 C 0.0474 0.25204 0.37183 0.0
C1427 C 0.03479 0.23669 0.36023 0.0
C1428 C 0.06817 0.27072 0.36694 0.0
C1429 C 0.05359 0.26475 0.40111 0.0
C1430 C 0.07112 0.29121 0.36824 0.0
C1431 C 0.0914 0.30894 0.36522 0.0
C1432 C 0.10893 0.30646 0.36053 0.0
C1433 C 0.10582 0.28592 0.3589 0.0
C1434 C 0.08554 0.26818 0.36192 0.0
H1435 H 0.04828 0.25791 0.41334 0.0
H1436 H 0.07103 0.26987 0.39973 0.0
H1437 H 0.05183 0.27901 0.40025 0.0
H1438 H 0.05786 0.2935 0.37198 0.0
H1439 H 0.09348 0.32462 0.36675 0.0
H1440 H 0.88033 0.8307 0.3968 0.0
H1441 H 0.8498 0.8341 0.38653 0.0
H1442 H 0.80552 0.76945 0.4001 0.0
H1443 H 0.83577 0.76618 0.41063 0.0
H1444 H 0.81923 0.81376 0.36358 0.0
H1445 H 0.7787 0.79948 0.42276 0.0
H1446 H 0.80596 0.80416 0.42066 0.0
H1447 H 0.78307 0.77818 0.41698 0.0
C1448 C 0.86409 0.81719 0.39745 0.0
C1449 C 0.86042 0.79827 0.40471 0.0
C1450 C 0.84664 0.81917 0.39165 0.0
C1451 C 0.82523 0.80223 0.39296 0.0
C1452 C 0.82174 0.783 0.39945 0.0
H1453 H 0.69529 0.77495 0.36934 0.0
H1454 H 0.72839 0.77399 0.37592 0.0
C1455 C 0.83908 0.7811 0.40538 0.0
C1456 C 0.80649 0.80451 0.38754 0.0
H1457 H 0.75757 0.7977 0.3998 0.0
C1458 C 0.80585 0.81046 0.37155 0.0
C1459 C 0.78902 0.80034 0.39794 0.0
C1460 C 0.78929 0.79541 0.41558 0.0
C1461 C 0.78793 0.81156 0.36552 0.0
C1462 C 0.77012 0.80664 0.37575 0.0
C1463 C 0.77101 0.80116 0.39185 0.0
C1464 C 0.75029 0.80689 0.37013 0.0
C1465 C 0.78781 0.81708 0.34806 0.0
C1466 C 0.75146 0.82565 0.36458 0.0
C1467 C 0.73253 0.82616 0.36076 0.0
C1468 C 0.71201 0.80792 0.36235 0.0
C1469 C 0.71088 0.78915 0.36777 0.0
C1470 C 0.72979 0.78862 0.37156 0.0
H1471 H 0.80069 0.81636 0.34103 0.0
H1472 H 0.7719 0.806 0.34259 0.0
H1473 H 0.79042 0.83337 0.34714 0.0
H1474 H 0.76695 0.84013 0.3638 0.0
H1475 H 0.73399 0.84105 0.35713 0.0
H1476 H 0.22918 0.08019 0.37965 0.0
H1477 H 0.22407 0.04762 0.36681 0.0
H1478 H 0.20789 0.01628 0.41293 0.0
H1479 H 0.21219 0.04834 0.42571 0.0
H1480 H 0.24534 0.02484 0.3731 0.0
H1481 H 0.15716 0.97582 0.38431 0.0
H1482 H 0.17162 0.00432 0.38627 0.0
H1483 H 0.17239 0.9881 0.4023 0.0
C1484 C 0.22429 0.06627 0.387 0.0
C1485 C 0.22106 0.06683 0.40369 0.0
C1486 C 0.22152 0.04775 0.37968 0.0
C1487 C 0.21531 0.02949 0.3889 0.0
C1488 C 0.21231 0.03009 0.40556 0.0
H1489 H 0.22672 0.91904 0.372 0.0
H1490 H 0.23202 0.95378 0.37942 0.0
C1491 C 0.21504 0.04852 0.41287 0.0
C1492 C 0.21227 0.00981 0.38129 0.0
H1493 H 0.17563 0.95719 0.37708 0.0
C1494 C 0.23005 0.01007 0.37379 0.0
C1495 C 0.19222 0.99067 0.382 0.0
C1496 C 0.17219 0.9897 0.38901 0.0
C1497 C 0.22852 0.99145 0.36752 0.0
C1498 C 0.2088 0.97208 0.36909 0.0
C1499 C 0.19081 0.97201 0.37605 0.0
C1500 C 0.20646 0.95157 0.36391 0.0
C1501 C 0.24798 0.99272 0.35924 0.0
C1502 C 0.18999 0.93857 0.35304 0.0
C1503 C 0.18668 0.91857 0.34899 0.0
C1504 C 0.19984 0.91119 0.35567 0.0
C1505 C 0.2164 0.92428 0.36652 0.0
C1506 C 0.21959 0.94425 0.37066 0.0
H1507 H 0.25908 0.00895 0.35469 0.0
H1508 H 0.25716 0.98871 0.368 0.0
H1509 H 0.24303 0.98141 0.34898 0.0
H1510 H 0.17951 0.94381 0.34783 0.0
H1511 H 0.17349 0.90878 0.34087 0.0
H1512 H 0.48312 0.59563 0.31284 0.0
H1513 H 0.51103 0.62909 0.32485 0.0
H1514 H 0.52273 0.65918 0.27836 0.0
H1515 H 0.49448 0.62622 0.26645 0.0
H1516 H 0.5545 0.65205 0.31755 0.0
H1517 H 0.51597 0.70073 0.30684 0.0
H1518 H 0.50126 0.67223 0.30505 0.0
H1519 H 0.51805 0.6883 0.28876 0.0
C1520 C 0.49138 0.60949 0.30525 0.0
C1521 C 0.48658 0.60822 0.28868 0.0
C1522 C 0.50743 0.62855 0.3121 0.0
C1523 C 0.51881 0.64672 0.30254 0.0
C1524 C 0.51392 0.64551 0.28604 0.0
H1525 H 0.64454 0.7582 0.31955 0.0
H1526 H 0.61434 0.72381 0.31119 0.0
C1527 C 0.49791 0.62654 0.27921 0.0
C1528 C 0.53639 0.66679 0.30958 0.0
H1529 H 0.55377 0.71958 0.31331 0.0
C1530 C 0.55427 0.66679 0.31676 0.0
C1531 C 0.53597 0.68597 0.30874 0.0
C1532 C 0.51668 0.68682 0.30208 0.0
C1533 C 0.57201 0.68557 0.3227 0.0
C1534 C 0.57206 0.70494 0.32111 0.0
C1535 C 0.55389 0.7048 0.31434 0.0
C1536 C 0.59065 0.72553 0.32647 0.0
C1537 C 0.59039 0.68442 0.33077 0.0
C1538 C 0.58732 0.73825 0.33752 0.0
C1539 C 0.60445 0.75803 0.34212 0.0
C1540 C 0.62539 0.76557 0.33586 0.0
C1541 C 0.6287 0.75284 0.32474 0.0
C1542 C 0.61147 0.73306 0.32005 0.0
H1543 H 0.58514 0.6682 0.33522 0.0
H1544 H 0.60357 0.68863 0.32191 0.0
H1545 H 0.59708 0.69567 0.34107 0.0
H1546 H 0.57137 0.7329 0.34252 0.0
H1547 H 0.60112 0.76753 0.35042 0.0
H1548 H 0.3878 0.84557 0.2979 0.0
H1549 H 0.35409 0.84235 0.30851 0.0
H1550 H 0.37654 0.90746 0.29603 0.0
H1551 H 0.40997 0.91067 0.28528 0.0
H1552 H 0.34478 0.86313 0.33211 0.0
H1553 H 0.3189 0.87741 0.27274 0.0
H1554 H 0.34107 0.87228 0.27494 0.0
H1555 H 0.3452 0.89841 0.27862 0.0
C1556 C 0.38562 0.85925 0.29759 0.0
C1557 C 0.40145 0.87829 0.29055 0.0
C1558 C 0.36631 0.85737 0.30359 0.0
C1559 C 0.36247 0.87449 0.30268 0.0
C1560 C 0.37876 0.89381 0.29641 0.0
H1561 H 0.25989 0.90126 0.32474 0.0
H1562 H 0.29416 0.90242 0.31876 0.0
C1563 C 0.39793 0.89565 0.29033 0.0
C1564 C 0.34144 0.87224 0.30808 0.0
H1565 H 0.29937 0.87876 0.29556 0.0
C1566 C 0.33474 0.86637 0.32409 0.0
C1567 C 0.32821 0.87631 0.2976 0.0
C1568 C 0.33357 0.88123 0.27998 0.0
C1569 C 0.31568 0.86527 0.33005 0.0
C1570 C 0.30283 0.87002 0.3197 0.0
C1571 C 0.30931 0.87541 0.3036 0.0
C1572 C 0.2827 0.86974 0.32518 0.0
C1573 C 0.30994 0.85986 0.34752 0.0
C1574 C 0.2648 0.85108 0.33096 0.0
C1575 C 0.24523 0.85046 0.33447 0.0
C1576 C 0.24314 0.86851 0.3323 0.0
C1577 C 0.26112 0.88721 0.32674 0.0
C1578 C 0.28069 0.88785 0.32329 0.0
H1579 H 0.32379 0.86121 0.35468 0.0
H1580 H 0.30471 0.87051 0.35285 0.0
H1581 H 0.29633 0.84333 0.3485 0.0
H1582 H 0.26563 0.8367 0.33212 0.0
H1583 H 0.23153 0.83563 0.33827 0.0
H1584 H 0.12755 0.53055 0.31106 0.0
H1585 H 0.13298 0.50335 0.32404 0.0
H1586 H 0.14586 0.48507 0.27768 0.0
H1587 H 0.14116 0.51255 0.26471 0.0
H1588 H 0.11045 0.45963 0.31874 0.0
H1589 H 0.19776 0.49418 0.30494 0.0
H1590 H 0.18384 0.50908 0.3032 0.0
H1591 H 0.18159 0.4911 0.28742 0.0
C1592 C 0.13181 0.5209 0.30367 0.0
C1593 C 0.13398 0.52372 0.28687 0.0
C1594 C 0.13478 0.50532 0.31109 0.0
C1595 C 0.14012 0.49244 0.30183 0.0
C1596 C 0.14212 0.49511 0.28506 0.0
H1597 H 0.12651 0.37061 0.32066 0.0
H1598 H 0.12201 0.40045 0.31281 0.0
C1599 C 0.13918 0.51065 0.27765 0.0
C1600 C 0.14307 0.47579 0.30957 0.0
H1601 H 0.179 0.45803 0.31342 0.0
C1602 C 0.12549 0.45936 0.31774 0.0
C1603 C 0.16282 0.47568 0.30845 0.0
C1604 C 0.18265 0.49357 0.30067 0.0
C1605 C 0.12689 0.44235 0.3243 0.0
C1606 C 0.14625 0.44164 0.32236 0.0
C1607 C 0.16408 0.45849 0.31473 0.0
C1608 C 0.14827 0.42337 0.32778 0.0
C1609 C 0.10766 0.42533 0.33326 0.0
C1610 C 0.16484 0.42645 0.33852 0.0
C1611 C 0.16767 0.40949 0.34286 0.0
C1612 C 0.15393 0.38909 0.33656 0.0
C1613 C 0.13729 0.38606 0.32583 0.0
C1614 C 0.13456 0.40307 0.32144 0.0
H1615 H 0.097 0.43126 0.33785 0.0
H1616 H 0.09791 0.41192 0.32493 0.0
H1617 H 0.1129 0.41927 0.34358 0.0
H1618 H 0.17575 0.44204 0.34342 0.0
H1619 H 0.1809 0.41251 0.35091 0.0
H1620 H 0.39127 0.51239 0.31012 0.0
H1621 H 0.35869 0.48251 0.32176 0.0
H1622 H 0.32263 0.47836 0.27871 0.0
H1623 H 0.35524 0.50768 0.26688 0.0
H1624 H 0.31877 0.47617 0.32897 0.0
H1625 H 0.31117 0.4186 0.28215 0.0
H1626 H 0.33498 0.44444 0.28406 0.0
H1627 H 0.31129 0.44127 0.27367 0.0
C1628 C 0.37638 0.50511 0.30317 0.0
C1629 C 0.37578 0.51222 0.28754 0.0
C1630 C 0.35777 0.48805 0.30983 0.0
C1631 C 0.3383 0.47786 0.30097 0.0
C1632 C 0.33758 0.48553 0.2856 0.0
H1633 H 0.208 0.39359 0.33607 0.0
H1634 H 0.24307 0.42437 0.3298 0.0
C1635 C 0.35617 0.50238 0.2789 0.0
C1636 C 0.31876 0.45918 0.30769 0.0
H1637 H 0.28056 0.40803 0.29916 0.0
C1638 C 0.3105 0.46118 0.32255 0.0
C1639 C 0.30816 0.4395 0.29946 0.0
C1640 C 0.31698 0.43572 0.28404 0.0
C1641 C 0.29164 0.44424 0.32918 0.0
C1642 C 0.28039 0.42485 0.32055 0.0
C1643 C 0.28899 0.4228 0.30584 0.0
C1644 C 0.25958 0.40648 0.32621 0.0
C1645 C 0.28432 0.44729 0.34551 0.0
C1646 C 0.25681 0.38595 0.3261 0.0
C1647 C 0.23654 0.36827 0.32924 0.0
C1648 C 0.21875 0.37075 0.33303 0.0
C1649 C 0.22158 0.39125 0.33367 0.0
C1650 C 0.24174 0.40892 0.33015 0.0
H1651 H 0.29812 0.45945 0.35274 0.0
H1652 H 0.27247 0.45282 0.34396 0.0
H1653 H 0.27652 0.4323 0.35236 0.0
H1654 H 0.27021 0.38354 0.32308 0.0
H1655 H 0.23467 0.3526 0.32849 0.0
H1656 H 0.4945 0.8708 0.31144 0.0
H1657 H 0.52545 0.86874 0.32251 0.0
H1658 H 0.52887 0.83848 0.27873 0.0
H1659 H 0.49842 0.84094 0.26754 0.0
H1660 H 0.53208 0.83521 0.32855 0.0
H1661 H 0.59025 0.88752 0.28249 0.0
H1662 H 0.56386 0.8849 0.28499 0.0
H1663 H 0.56681 0.86527 0.27382 0.0
C1664 C 0.50184 0.86367 0.30421 0.0
C1665 C 0.49414 0.85614 0.28857 0.0
C1666 C 0.51953 0.8625 0.31054 0.0
C1667 C 0.52983 0.85385 0.30133 0.0
C1668 C 0.52163 0.84573 0.28593 0.0
H1669 H 0.61902 0.81228 0.3353 0.0
H1670 H 0.58686 0.81457 0.32853 0.0
C1671 C 0.5041 0.847 0.27958 0.0
C1672 C 0.54917 0.85332 0.3077 0.0
H1673 H 0.60171 0.8682 0.29889 0.0
C1674 C 0.54739 0.84258 0.32216 0.0
C1675 C 0.56925 0.86313 0.29949 0.0
C1676 C 0.57278 0.87604 0.28443 0.0
C1677 C 0.56493 0.84101 0.32844 0.0
C1678 C 0.58483 0.85013 0.3199 0.0
C1679 C 0.5866 0.86114 0.30554 0.0
C1680 C 0.60411 0.84867 0.32543 0.0
C1681 C 0.56191 0.82993 0.34434 0.0
C1682 C 0.62484 0.86689 0.32567 0.0
C1683 C 0.64333 0.86546 0.32909 0.0
C1684 C 0.64155 0.84588 0.33281 0.0
C1685 C 0.62086 0.82769 0.33295 0.0
C1686 C 0.60238 0.82903 0.32915 0.0
H1687 H 0.54932 0.83063 0.35179 0.0
H1688 H 0.55652 0.81299 0.34211 0.0
H1689 H 0.57722 0.83708 0.35129 0.0
H1690 H 0.62679 0.88225 0.32284 0.0
H1691 H 0.65911 0.87968 0.32871 0.0
H1692 H 0.15104 0.62242 0.30879 0.0
H1693 H 0.15639 0.65491 0.32183 0.0
H1694 H 0.16656 0.6848 0.27533 0.0
H1695 H 0.16154 0.65248 0.26225 0.0
H1696 H 0.19682 0.71032 0.29849 0.0
H1697 H 0.1125 0.67581 0.32123 0.0
H1698 H 0.12639 0.66201 0.32716 0.0
H1699 H 0.12011 0.66272 0.30626 0.0
C1700 C 0.15446 0.63593 0.30136 0.0
C1701 C 0.15582 0.63498 0.28449 0.0
C1702 C 0.15739 0.65442 0.30882 0.0
C1703 C 0.16154 0.67211 0.29951 0.0
C1704 C 0.16328 0.67127 0.28271 0.0
H1705 H 0.14987 0.78145 0.32002 0.0
H1706 H 0.14567 0.74759 0.31119 0.0
C1707 C 0.16041 0.65284 0.27526 0.0
C1708 C 0.16414 0.6916 0.30718 0.0
H1709 H 0.13714 0.71129 0.32856 0.0
C1710 C 0.18383 0.71055 0.30513 0.0
C1711 C 0.14704 0.69181 0.31567 0.0
C1712 C 0.12524 0.67206 0.31763 0.0
C1713 C 0.18685 0.7298 0.31127 0.0
C1714 C 0.16983 0.72997 0.31991 0.0
C1715 C 0.15019 0.71101 0.32204 0.0
C1716 C 0.17174 0.74989 0.32608 0.0
C1717 C 0.20796 0.74986 0.30799 0.0
C1718 C 0.18753 0.76217 0.33762 0.0
C1719 C 0.19009 0.7816 0.34263 0.0
C1720 C 0.17673 0.78898 0.3363 0.0
C1721 C 0.16049 0.7763 0.32511 0.0
C1722 C 0.158 0.75691 0.32007 0.0
H1723 H 0.21725 0.7477 0.29814 0.0
H1724 H 0.20506 0.763 0.30469 0.0
H1725 H 0.21814 0.75461 0.31905 0.0
H1726 H 0.19807 0.75685 0.34259 0.0
H1727 H 0.20288 0.79101 0.35116 0.0
H1728 H 0.86969 0.02836 0.41926 0.0
H1729 H 0.84077 0.99478 0.40841 0.0
H1730 H 0.82584 0.02882 0.37287 0.0
H1731 H 0.85548 0.0624 0.38326 0.0
H1732 H 0.79924 0.97991 0.40756 0.0
H1733 H 0.82718 0.98526 0.34457 0.0
H1734 H 0.84412 0.00339 0.36009 0.0
H1735 H 0.82387 0.00726 0.35014 0.0
C1736 C 0.86042 0.02862 0.40897 0.0
C1737 C 0.86494 0.04791 0.40199 0.0
C1738 C 0.84385 0.00944 0.40281 0.0
C1739 C 0.83126 0.00916 0.38964 0.0
C1740 C 0.83569 0.02851 0.38272 0.0
H1741 H 0.70475 0.89744 0.36968 0.0
H1742 H 0.73395 0.93254 0.37772 0.0
C1743 C 0.85255 0.04772 0.38872 0.0
C1744 C 0.81295 0.98863 0.38377 0.0
H1745 H 0.79134 0.95762 0.35024 0.0
C1746 C 0.79759 0.97503 0.39502 0.0
C1747 C 0.81086 0.98207 0.36745 0.0
C1748 C 0.8275 0.99516 0.3549 0.0
C1749 C 0.7803 0.95512 0.39048 0.0
C1750 C 0.77775 0.9489 0.37406 0.0
C1751 C 0.79311 0.96247 0.36279 0.0
C1752 C 0.75978 0.92804 0.36843 0.0
C1753 C 0.76543 0.94074 0.40346 0.0
C1754 C 0.76442 0.91413 0.35986 0.0
C1755 C 0.74773 0.89424 0.35494 0.0
C1756 C 0.72601 0.88776 0.35857 0.0
C1757 C 0.72132 0.90184 0.36687 0.0
C1758 C 0.73803 0.92188 0.37158 0.0
H1759 H 0.77328 0.94504 0.41553 0.0
H1760 H 0.7507 0.94227 0.40397 0.0
H1761 H 0.76037 0.92391 0.40096 0.0
H1762 H 0.78104 0.91851 0.35721 0.0
H1763 H 0.75192 0.88377 0.3486 0.0
H1764 H 0.95951 0.80208 0.38231 0.0
H1765 H 0.99254 0.8046 0.37082 0.0
H1766 H 0.02832 0.83759 0.4135 0.0
H1767 H 0.99541 0.83465 0.42512 0.0
H1768 H 0.03299 0.83835 0.36355 0.0
H1769 H 0.04062 0.7892 0.41101 0.0
H1770 H 0.0165 0.79114 0.40856 0.0
H1771 H 0.0397 0.81158 0.41911 0.0
C1772 C 0.97444 0.8099 0.3892 0.0
C1773 C 0.97486 0.81803 0.40468 0.0
C1774 C 0.99332 0.81135 0.38262 0.0
C1775 C 0.01287 0.8209 0.39142 0.0
C1776 C 0.01337 0.82966 0.40663 0.0
H1777 H 0.14431 0.86352 0.35668 0.0
H1778 H 0.10947 0.86074 0.36312 0.0
C1779 C 0.99456 0.82809 0.41322 0.0
C1780 C 0.03274 0.82156 0.38492 0.0
H1781 H 0.07124 0.80832 0.39407 0.0
C1782 C 0.04128 0.83163 0.37013 0.0
C1783 C 0.04346 0.81256 0.39338 0.0
C1784 C 0.0345 0.80033 0.40881 0.0
C1785 C 0.06044 0.83334 0.36377 0.0
C1786 C 0.07168 0.82509 0.37257 0.0
C1787 C 0.06284 0.81473 0.38724 0.0
C1788 C 0.0925 0.82678 0.36699 0.0
C1789 C 0.06808 0.84364 0.34754 0.0
C1790 C 0.095 0.8088 0.36719 0.0
C1791 C 0.11509 0.81052 0.36393 0.0
C1792 C 0.13309 0.83014 0.35995 0.0
C1793 C 0.13058 0.84807 0.35927 0.0
C1794 C 0.11055 0.84645 0.36289 0.0
H1795 H 0.05445 0.84242 0.34017 0.0
H1796 H 0.07996 0.86071 0.34925 0.0
H1797 H 0.07599 0.83628 0.34074 0.0
H1798 H 0.08147 0.79343 0.3703 0.0
H1799 H 0.11666 0.7965 0.36472 0.0
H1800 H 0.17027 0.14937 0.42405 0.0
H1801 H 0.16343 0.17619 0.4121 0.0
H1802 H 0.21108 0.18816 0.37538 0.0
H1803 H 0.21709 0.16063 0.38682 0.0
H1804 H 0.18906 0.21643 0.40938 0.0
H1805 H 0.16348 0.18405 0.3478 0.0
H1806 H 0.16616 0.16886 0.36385 0.0
H1807 H 0.18962 0.1876 0.35266 0.0
C1808 C 0.179 0.15755 0.41328 0.0
C1809 C 0.194 0.15284 0.40625 0.0
C1810 C 0.17514 0.17286 0.40647 0.0
C1811 C 0.18644 0.18395 0.39264 0.0
C1812 C 0.20162 0.17936 0.38571 0.0
H1813 H 0.2051 0.30757 0.36805 0.0
H1814 H 0.20906 0.27782 0.37711 0.0
C1815 C 0.20517 0.16374 0.39233 0.0
C1816 C 0.1833 0.20119 0.38613 0.0
H1817 H 0.17347 0.22043 0.35158 0.0
C1818 C 0.18546 0.21718 0.39676 0.0
C1819 C 0.17827 0.20205 0.36972 0.0
C1820 C 0.17401 0.18459 0.3579 0.0
C1821 C 0.18306 0.23413 0.39142 0.0
C1822 C 0.1793 0.23564 0.37483 0.0
C1823 C 0.17673 0.21946 0.36424 0.0
C1824 C 0.17762 0.25369 0.36831 0.0
C1825 C 0.18411 0.24994 0.40371 0.0
C1826 C 0.15916 0.25002 0.35955 0.0
C1827 C 0.15708 0.267 0.35402 0.0
C1828 C 0.17337 0.28796 0.35726 0.0
C1829 C 0.19214 0.2916 0.36558 0.0
C1830 C 0.19435 0.27461 0.37086 0.0
H1831 H 0.18009 0.24298 0.41599 0.0
H1832 H 0.20082 0.2637 0.40414 0.0
H1833 H 0.17279 0.25572 0.4006 0.0
H1834 H 0.14611 0.23401 0.35732 0.0
H1835 H 0.14242 0.26369 0.34764 0.0
H1836 H 0.64296 0.49603 0.75788 0.0
H1837 H 0.67422 0.5261 0.74541 0.0
H1838 H 0.63663 0.51746 0.70229 0.0
H1839 H 0.60534 0.48687 0.71466 0.0
H1840 H 0.6778 0.52719 0.69518 0.0
H1841 H 0.67978 0.58362 0.74082 0.0
H1842 H 0.68184 0.56237 0.74986 0.0
H1843 H 0.65749 0.55682 0.73918 0.0
C1844 C 0.64139 0.50052 0.74572 0.0
C1845 C 0.62167 0.4893 0.7373 0.0
C1846 C 0.65922 0.51776 0.73864 0.0
C1847 C 0.6576 0.52442 0.72309 0.0
C1848 C 0.63819 0.51272 0.71436 0.0
H1849 H 0.75596 0.65209 0.69503 0.0
H1850 H 0.721 0.62005 0.6998 0.0
C1851 C 0.62036 0.49524 0.7214 0.0
C1852 C 0.6761 0.54379 0.71613 0.0
H1853 H 0.7111 0.596 0.7242 0.0
C1854 C 0.68498 0.54231 0.70142 0.0
C1855 C 0.68518 0.56364 0.72409 0.0
C1856 C 0.67543 0.5668 0.73927 0.0
C1857 C 0.70316 0.55995 0.69475 0.0
C1858 C 0.71308 0.57951 0.70322 0.0
C1859 C 0.70371 0.58107 0.71768 0.0
C1860 C 0.7335 0.59846 0.69776 0.0
C1861 C 0.71125 0.55744 0.67857 0.0
C1862 C 0.75218 0.5971 0.69467 0.0
C1863 C 0.77202 0.61536 0.69159 0.0
C1864 C 0.77366 0.63539 0.69175 0.0
C1865 C 0.75502 0.63679 0.69464 0.0
C1866 C 0.73508 0.61849 0.6974 0.0
H1867 H 0.69807 0.54455 0.67136 0.0
H1868 H 0.71809 0.57231 0.67159 0.0
H1869 H 0.72409 0.55324 0.68037 0.0
H1870 H 0.75173 0.58206 0.69543 0.0
H1871 H 0.78623 0.61385 0.68992 0.0
H1872 H 0.55062 0.16364 0.72677 0.0
H1873 H 0.52161 0.16824 0.71481 0.0
H1874 H 0.47416 0.1055 0.73034 0.0
H1875 H 0.5029 0.10065 0.74192 0.0
H1876 H 0.46781 0.11425 0.69864 0.0
H1877 H 0.47815 0.17846 0.7405 0.0
H1878 H 0.50191 0.18297 0.72964 0.0
H1879 H 0.4902 0.1622 0.74434 0.0
C1880 C 0.53402 0.15078 0.72748 0.0
C1881 C 0.52907 0.13187 0.73547 0.0
C1882 C 0.51743 0.15351 0.7208 0.0
C1883 C 0.49562 0.13736 0.72194 0.0
C1884 C 0.4908 0.11826 0.72942 0.0
H1885 H 0.36511 0.10861 0.70139 0.0
H1886 H 0.39878 0.10845 0.707 0.0
C1887 C 0.50727 0.11556 0.73612 0.0
C1888 C 0.47762 0.14004 0.71542 0.0
H1889 H 0.4504 0.16715 0.72106 0.0
C1890 C 0.46408 0.12591 0.70348 0.0
C1891 C 0.47279 0.15532 0.72166 0.0
C1892 C 0.48638 0.17054 0.73483 0.0
C1893 C 0.44575 0.12642 0.69776 0.0
C1894 C 0.44044 0.14121 0.70436 0.0
C1895 C 0.45438 0.15579 0.71597 0.0
C1896 C 0.41998 0.14109 0.70007 0.0
C1897 C 0.43239 0.11122 0.68455 0.0
C1898 C 0.42048 0.15962 0.69468 0.0
C1899 C 0.40116 0.15978 0.69168 0.0
C1900 C 0.38094 0.14134 0.69381 0.0
C1901 C 0.38046 0.1229 0.69929 0.0
C1902 C 0.39973 0.12277 0.70237 0.0
H1903 H 0.44201 0.10589 0.67743 0.0
H1904 H 0.41851 0.097 0.68994 0.0
H1905 H 0.426 0.1187 0.67629 0.0
H1906 H 0.43583 0.17405 0.69297 0.0
H1907 H 0.40205 0.17441 0.68793 0.0
H1908 H 0.93091 0.41209 0.73982 0.0
H1909 H 0.92581 0.3794 0.72745 0.0
H1910 H 0.86018 0.36171 0.7147 0.0
H1911 H 0.86485 0.39408 0.72747 0.0
H1912 H 0.88885 0.33681 0.73837 0.0
H1913 H 0.88992 0.35291 0.67265 0.0
H1914 H 0.90341 0.3739 0.68736 0.0
H1915 H 0.87444 0.36019 0.68566 0.0
C1916 C 0.91539 0.40129 0.73436 0.0
C1917 C 0.89822 0.40562 0.73476 0.0
C1918 C 0.91258 0.38272 0.7272 0.0
C1919 C 0.89268 0.3683 0.72012 0.0
C1920 C 0.87575 0.37285 0.71994 0.0
H1921 H 0.84203 0.24334 0.67782 0.0
H1922 H 0.84883 0.27841 0.68594 0.0
C1923 C 0.87848 0.39137 0.7272 0.0
C1924 C 0.88907 0.34765 0.71423 0.0
H1925 H 0.88221 0.31858 0.68015 0.0
C1926 C 0.88746 0.33279 0.72565 0.0
C1927 C 0.88705 0.34253 0.69766 0.0
C1928 C 0.88888 0.35818 0.68503 0.0
C1929 C 0.88366 0.31273 0.72093 0.0
C1930 C 0.88209 0.30769 0.70431 0.0
C1931 C 0.88356 0.32255 0.69288 0.0
C1932 C 0.87871 0.28696 0.69861 0.0
C1933 C 0.88081 0.29698 0.73384 0.0
C1934 C 0.89354 0.28036 0.70271 0.0
C1935 C 0.88963 0.26027 0.6982 0.0
C1936 C 0.871 0.24656 0.68927 0.0
C1937 C 0.85658 0.25353 0.68466 0.0
C1938 C 0.86042 0.27357 0.68929 0.0
H1939 H 0.87624 0.30099 0.74559 0.0
H1940 H 0.8682 0.28067 0.73037 0.0
H1941 H 0.89635 0.29716 0.73561 0.0
H1942 H 0.90805 0.29067 0.70954 0.0
H1943 H 0.90118 0.25549 0.70179 0.0
H1944 H 0.14744 0.92881 0.6455 0.0
H1945 H 0.17552 0.96263 0.65687 0.0
H1946 H 0.18623 0.99131 0.60987 0.0
H1947 H 0.15774 0.95799 0.5986 0.0
H1948 H 0.21854 0.98476 0.64893 0.0
H1949 H 0.18117 0.03434 0.63751 0.0
H1950 H 0.166 0.0058 0.63618 0.0
H1951 H 0.18267 0.02125 0.61962 0.0
C1952 C 0.15549 0.94244 0.63766 0.0
C1953 C 0.15036 0.94067 0.62113 0.0
C1954 C 0.17162 0.96171 0.64415 0.0
C1955 C 0.18278 0.97958 0.63427 0.0
C1956 C 0.17755 0.97788 0.61781 0.0
H1957 H 0.29524 0.10471 0.64124 0.0
H1958 H 0.26449 0.07067 0.63268 0.0
C1959 C 0.16144 0.95871 0.61134 0.0
C1960 C 0.20068 0.99974 0.64088 0.0
H1961 H 0.21913 0.05286 0.64367 0.0
C1962 C 0.21856 0.99961 0.64796 0.0
C1963 C 0.2007 0.01912 0.63959 0.0
C1964 C 0.1815 0.02015 0.63296 0.0
C1965 C 0.23672 0.01844 0.65331 0.0
C1966 C 0.23693 0.03783 0.65163 0.0
C1967 C 0.21896 0.03795 0.64481 0.0
C1968 C 0.25571 0.05823 0.65685 0.0
C1969 C 0.25583 0.01757 0.66031 0.0
C1970 C 0.26089 0.06247 0.67326 0.0
C1971 C 0.27839 0.08188 0.67817 0.0
C1972 C 0.29102 0.09742 0.66679 0.0
C1973 C 0.28589 0.09303 0.65032 0.0
C1974 C 0.26829 0.07365 0.64541 0.0
H1975 H 0.25484 0.00209 0.65796 0.0
H1976 H 0.27125 0.03038 0.65523 0.0
H1977 H 0.25632 0.01999 0.67355 0.0
H1978 H 0.2513 0.05081 0.68229 0.0
H1979 H 0.28218 0.08454 0.69086 0.0
H1980 H 0.05508 0.177 0.62962 0.0
H1981 H 0.02153 0.17406 0.64032 0.0
H1982 H 0.04454 0.23933 0.62799 0.0
H1983 H 0.07779 0.24223 0.61713 0.0
H1984 H 0.01259 0.19482 0.66399 0.0
H1985 H 0.98679 0.20996 0.60491 0.0
H1986 H 0.00882 0.20459 0.60693 0.0
H1987 H 0.0132 0.23079 0.61076 0.0
C1988 C 0.05304 0.19076 0.62936 0.0
C1989 C 0.06897 0.20976 0.62233 0.0
C1990 C 0.03383 0.18905 0.6354 0.0
C1991 C 0.0302 0.2063 0.63456 0.0
C1992 C 0.04659 0.22558 0.62831 0.0
H1993 H 0.92932 0.23498 0.65743 0.0
H1994 H 0.96315 0.23541 0.65117 0.0
C1995 C 0.06566 0.22725 0.62217 0.0
C1996 C 0.0093 0.20425 0.64007 0.0
H1997 H 0.9676 0.21155 0.62789 0.0
C1998 C 1.00264 0.19829 0.65607 0.0
C1999 C 0.99617 0.20861 0.62971 0.0
C2000 C 1.00147 0.21362 0.61208 0.0
C2001 C 0.98374 0.19741 0.66214 0.0
C2002 C 0.97103 0.20251 0.65193 0.0
C2003 C 0.97745 0.20795 0.63583 0.0
C2004 C 0.95117 0.20263 0.65758 0.0
C2005 C 0.97806 0.1919 0.67961 0.0
C2006 C 0.93312 0.18415 0.66344 0.0
C2007 C 0.9138 0.18396 0.66713 0.0
C2008 C 0.91212 0.20224 0.66503 0.0
C2009 C 0.93024 0.22075 0.65937 0.0
C2010 C 0.94956 0.22098 0.65576 0.0
H2011 H 0.99185 0.19295 0.68667 0.0
H2012 H 0.97313 0.2027 0.68506 0.0
H2013 H 0.96427 0.17546 0.68055 0.0
H2014 H 0.93363 0.16961 0.66454 0.0
H2015 H 0.89996 0.16928 0.67102 0.0
H2016 H 0.82249 0.8736 0.63712 0.0
H2017 H 0.82758 0.84485 0.64745 0.0
H2018 H 0.76801 0.79889 0.62445 0.0
H2019 H 0.76262 0.82737 0.6143 0.0
H2020 H 0.79838 0.80812 0.66691 0.0
H2021 H 0.81512 0.78644 0.60647 0.0
H2022 H 0.81662 0.81151 0.61049 0.0
H2023 H 0.79074 0.78796 0.60782 0.0
C2024 C 0.81037 0.85736 0.63442 0.0
C2025 C 0.7923 0.85275 0.62473 0.0
C2026 C 0.81335 0.84099 0.64027 0.0
C2027 C 0.79835 0.81984 0.63645 0.0
C2028 C 0.77997 0.81516 0.62723 0.0
H2029 H 0.78952 0.6984 0.65292 0.0
H2030 H 0.78339 0.7273 0.64491 0.0
C2031 C 0.77697 0.83146 0.62142 0.0
C2032 C 0.80196 0.80255 0.6419 0.0
H2033 H 0.81104 0.76354 0.62805 0.0
C2034 C 0.80126 0.79841 0.65846 0.0
C2035 C 0.80563 0.78994 0.63079 0.0
C2036 C 0.80727 0.79422 0.6129 0.0
C2037 C 0.8037 0.78161 0.66421 0.0
C2038 C 0.80735 0.76897 0.65308 0.0
C2039 C 0.80814 0.77321 0.63653 0.0
C2040 C 0.81073 0.75145 0.65834 0.0
C2041 C 0.80184 0.77725 0.68209 0.0
C2042 C 0.82829 0.75553 0.66835 0.0
C2043 C 0.83182 0.7391 0.67294 0.0
C2044 C 0.81791 0.71826 0.66754 0.0
C2045 C 0.80048 0.71425 0.65734 0.0
C2046 C 0.79694 0.73072 0.65277 0.0
H2047 H 0.79321 0.78438 0.68833 0.0
H2048 H 0.79316 0.75995 0.68449 0.0
H2049 H 0.81834 0.78427 0.6874 0.0
H2050 H 0.83948 0.7715 0.67242 0.0
H2051 H 0.84568 0.74284 0.68053 0.0
H2052 H 0.01819 0.84142 0.60285 0.0
H2053 H 0.98585 0.81272 0.61544 0.0
H2054 H 0.02415 0.81491 0.65658 0.0
H2055 H 0.05643 0.84426 0.64424 0.0
H2056 H 0.97862 0.77469 0.62233 0.0
H2057 H 0.97283 0.81219 0.67895 0.0
H2058 H 0.99052 0.82731 0.66264 0.0
H2059 H 0.99848 0.81346 0.67651 0.0
C2060 C 0.01962 0.83597 0.61469 0.0
C2061 C 0.03974 0.84511 0.6226 0.0
C2062 C 1.00116 0.81956 0.62188 0.0
C2063 C 1.00244 0.81176 0.63707 0.0
C2064 C 0.02258 0.82098 0.64506 0.0
H2065 H 0.90161 0.68468 0.66473 0.0
H2066 H 0.93676 0.71612 0.65911 0.0
C2067 C 0.04106 0.83765 0.63794 0.0
C2068 C 0.98296 0.79305 0.64384 0.0
H2069 H 0.94932 0.77492 0.67652 0.0
C2070 C 0.97223 0.7748 0.63418 0.0
C2071 C 0.97448 0.7932 0.65925 0.0
C2072 C 0.98453 0.81265 0.66989 0.0
C2073 C 0.95324 0.75681 0.63937 0.0
C2074 C 0.94509 0.75672 0.65495 0.0
C2075 C 0.95578 0.77493 0.66468 0.0
C2076 C 0.92485 0.73818 0.6609 0.0
C2077 C 0.94171 0.73837 0.62784 0.0
C2078 C 0.9068 0.74027 0.66468 0.0
C2079 C 0.88683 0.72238 0.66816 0.0
C2080 C 0.88468 0.70213 0.66806 0.0
C2081 C 0.90294 0.70015 0.66493 0.0
C2082 C 0.92294 0.71806 0.66164 0.0
H2083 H 0.94669 0.74317 0.61515 0.0
H2084 H 0.94582 0.72599 0.63093 0.0
H2085 H 0.92385 0.7313 0.62862 0.0
H2086 H 0.90789 0.75563 0.66421 0.0
H2087 H 0.87294 0.72433 0.67021 0.0
H2088 H 0.16183 0.20167 0.64297 0.0
H2089 H 0.19276 0.1994 0.6538 0.0
H2090 H 0.19515 0.16848 0.61006 0.0
H2091 H 0.16468 0.17112 0.59911 0.0
H2092 H 0.19889 0.16547 0.65977 0.0
H2093 H 0.25682 0.21728 0.61335 0.0
H2094 H 0.2306 0.21496 0.61606 0.0
H2095 H 0.23312 0.19508 0.60491 0.0
C2096 C 0.16894 0.19435 0.6357 0.0
C2097 C 0.16094 0.18667 0.62014 0.0
C2098 C 0.18661 0.19306 0.64189 0.0
C2099 C 0.19661 0.18415 0.63262 0.0
C2100 C 0.18813 0.1759 0.6173 0.0
H2101 H 0.28661 0.14349 0.66731 0.0
H2102 H 0.25418 0.14509 0.6599 0.0
C2103 C 0.1706 0.17729 0.61109 0.0
C2104 C 0.21591 0.18346 0.63886 0.0
H2105 H 0.26838 0.19821 0.62992 0.0
C2106 C 0.21416 0.17276 0.65333 0.0
C2107 C 0.23592 0.19315 0.63056 0.0
C2108 C 0.23936 0.20594 0.61545 0.0
C2109 C 0.23172 0.17121 0.65959 0.0
C2110 C 0.25159 0.1803 0.651 0.0
C2111 C 0.25329 0.19118 0.63659 0.0
C2112 C 0.271 0.17916 0.65666 0.0
C2113 C 0.22878 0.16024 0.67552 0.0
C2114 C 0.29155 0.19759 0.65699 0.0
C2115 C 0.31017 0.19656 0.66075 0.0
C2116 C 0.30869 0.17717 0.66472 0.0
C2117 C 0.28818 0.15874 0.6647 0.0
C2118 C 0.26956 0.1597 0.66056 0.0
H2119 H 0.21597 0.16064 0.68288 0.0
H2120 H 0.22382 0.14338 0.67336 0.0
H2121 H 0.24405 0.16774 0.68252 0.0
H2122 H 0.29327 0.21283 0.65404 0.0
H2123 H 0.32581 0.21095 0.66051 0.0
H2124 H 0.81718 0.95562 0.64691 0.0
H2125 H 0.8293 0.99123 0.65765 0.0
H2126 H 0.77421 0.99073 0.63545 0.0
H2127 H 0.76192 0.95513 0.62487 0.0
H2128 H 0.83994 0.02758 0.63984 0.0
H2129 H 0.77222 0.00928 0.68161 0.0
H2130 H 0.77719 0.98908 0.67349 0.0
H2131 H 0.76323 0.99921 0.66161 0.0
C2132 C 0.80755 0.96303 0.64448 0.0
C2133 C 0.78854 0.95264 0.63513 0.0
C2134 C 0.8145 0.98335 0.6506 0.0
C2135 C 0.80246 0.99344 0.64756 0.0
C2136 C 0.78346 0.98302 0.63825 0.0
H2137 H 0.81305 0.11506 0.65724 0.0
H2138 H 0.80327 0.0784 0.65165 0.0
C2139 C 0.77653 0.96276 0.63215 0.0
C2140 C 0.81025 0.01534 0.65328 0.0
H2141 H 0.79485 0.04576 0.67457 0.0
C2142 C 0.83026 0.03157 0.64762 0.0
C2143 C 0.79755 0.02043 0.66343 0.0
C2144 C 0.77645 0.00356 0.67052 0.0
C2145 C 0.83747 0.05289 0.65128 0.0
C2146 C 0.82443 0.058 0.66101 0.0
C2147 C 0.80472 0.04174 0.66703 0.0
C2148 C 0.83055 0.08019 0.66457 0.0
C2149 C 0.85856 0.06983 0.6442 0.0
C2150 C 0.84906 0.09324 0.67379 0.0
C2151 C 0.85475 0.11422 0.67698 0.0
C2152 C 0.84191 0.12246 0.6711 0.0
C2153 C 0.82332 0.10926 0.66193 0.0
C2154 C 0.81765 0.08829 0.65876 0.0
H2155 H 0.86442 0.06355 0.6344 0.0
H2156 H 0.85673 0.08305 0.63934 0.0
H2157 H 0.87113 0.07637 0.6538 0.0
H2158 H 0.85907 0.08717 0.67854 0.0
H2159 H 0.86931 0.124 0.68393 0.0
H2160 H 0.51643 0.36084 0.76193 0.0
H2161 H 0.48744 0.32861 0.74934 0.0
H2162 H 0.50787 0.35688 0.70239 0.0
H2163 H 0.53689 0.38935 0.71494 0.0
H2164 H 0.4535 0.32795 0.72562 0.0
H2165 H 0.50504 0.29617 0.70228 0.0
H2166 H 0.51332 0.31415 0.71928 0.0
H2167 H 0.5138 0.3238 0.69934 0.0
C2168 C 0.51477 0.36016 0.74891 0.0
C2169 C 0.52889 0.37755 0.73942 0.0
C2170 C 0.49821 0.34179 0.74177 0.0
C2171 C 0.49562 0.3404 0.72497 0.0
C2172 C 0.50974 0.35768 0.71539 0.0
H2173 H 0.40752 0.2299 0.66741 0.0
H2174 H 0.43603 0.26489 0.67599 0.0
C2175 C 0.52626 0.37618 0.72256 0.0
C2176 C 0.47789 0.32084 0.71763 0.0
H2177 H 0.46745 0.27546 0.69803 0.0
C2178 C 0.45649 0.31649 0.71949 0.0
C2179 C 0.48196 0.30608 0.70958 0.0
C2180 C 0.50473 0.31008 0.70748 0.0
C2181 C 0.43893 0.29761 0.71357 0.0
C2182 C 0.4429 0.28242 0.70602 0.0
C2183 C 0.4644 0.28705 0.70386 0.0
C2184 C 0.42502 0.2614 0.70068 0.0
C2185 C 0.41634 0.29427 0.71532 0.0
C2186 C 0.40935 0.24767 0.71169 0.0
C2187 C 0.39295 0.22763 0.70676 0.0
C2188 C 0.39206 0.22071 0.69077 0.0
C2189 C 0.4078 0.23449 0.6798 0.0
C2190 C 0.4241 0.25461 0.6847 0.0
H2191 H 0.41659 0.30959 0.71641 0.0
H2192 H 0.40593 0.28535 0.70489 0.0
H2193 H 0.4089 0.28508 0.72645 0.0
H2194 H 0.41004 0.25228 0.72419 0.0
H2195 H 0.38129 0.21738 0.71562 0.0
H2196 H 0.6352 0.10442 0.74055 0.0
H2197 H 0.67098 0.1147 0.72965 0.0
H2198 H 0.67558 0.1716 0.71015 0.0
H2199 H 0.63955 0.16132 0.72114 0.0
H2200 H 0.68447 0.12291 0.69665 0.0
H2201 H 0.73292 0.19288 0.73628 0.0
H2202 H 0.70545 0.17292 0.74106 0.0
H2203 H 0.71046 0.19188 0.72551 0.0
C2204 C 0.64382 0.11914 0.73394 0.0
C2205 C 0.63455 0.13204 0.73171 0.0
C2206 C 0.66427 0.12499 0.72771 0.0
C2207 C 0.67609 0.14401 0.7192 0.0
C2208 C 0.66689 0.15698 0.71686 0.0
H2209 H 0.81177 0.19719 0.68768 0.0
H2210 H 0.77535 0.19229 0.69153 0.0
C2211 C 0.64626 0.15105 0.72306 0.0
C2212 C 0.69785 0.14976 0.71269 0.0
H2213 H 0.75213 0.18362 0.71813 0.0
C2214 C 0.69927 0.13631 0.70123 0.0
C2215 C 0.71716 0.16732 0.71858 0.0
C2216 C 0.71661 0.18208 0.73111 0.0
C2217 C 0.7194 0.13962 0.69574 0.0
C2218 C 0.73881 0.15662 0.70216 0.0
C2219 C 0.73736 0.17057 0.71319 0.0
C2220 C 0.76063 0.15934 0.69851 0.0
C2221 C 0.71949 0.12474 0.68311 0.0
C2222 C 0.76468 0.14258 0.70118 0.0
C2223 C 0.78534 0.14528 0.69868 0.0
C2224 C 0.80252 0.16481 0.69352 0.0
C2225 C 0.79867 0.18174 0.69109 0.0
C2226 C 0.77789 0.17899 0.69347 0.0
H2227 H 0.70485 0.11839 0.67529 0.0
H2228 H 0.73404 0.13267 0.67537 0.0
H2229 H 0.71931 0.11108 0.68913 0.0
H2230 H 0.75199 0.1275 0.70563 0.0
H2231 H 0.78799 0.13213 0.70106 0.0
H2232 H 0.87664 0.48552 0.71804 0.0
H2233 H 0.86877 0.51165 0.7061 0.0
H2234 H 0.85813 0.52912 0.75352 0.0
H2235 H 0.8657 0.5028 0.76554 0.0
H2236 H 0.82654 0.52385 0.7309 0.0
H2237 H 0.90989 0.57604 0.70777 0.0
H2238 H 0.89742 0.54887 0.70133 0.0
H2239 H 0.90366 0.55538 0.7223 0.0
C2240 C 0.87258 0.49489 0.72592 0.0
C2241 C 0.87187 0.49225 0.74274 0.0
C2242 C 0.8682 0.50987 0.71908 0.0
C2243 C 0.86319 0.52251 0.72896 0.0
C2244 C 0.86205 0.51957 0.74571 0.0
H2245 H 0.86715 0.64019 0.70912 0.0
H2246 H 0.87289 0.61162 0.71848 0.0
C2247 C 0.86639 0.50459 0.75255 0.0
C2248 C 0.85921 0.53889 0.7219 0.0
H2249 H 0.88344 0.58529 0.70091 0.0
C2250 C 0.83894 0.53726 0.7243 0.0
C2251 C 0.87553 0.55646 0.71346 0.0
C2252 C 0.89792 0.55949 0.71114 0.0
C2253 C 0.83452 0.55279 0.71849 0.0
C2254 C 0.85074 0.5702 0.70984 0.0
C2255 C 0.87101 0.57181 0.70743 0.0
C2256 C 0.84733 0.5874 0.7038 0.0
C2257 C 0.81278 0.55074 0.72204 0.0
C2258 C 0.83121 0.58325 0.6923 0.0
C2259 C 0.82779 0.59952 0.68697 0.0
C2260 C 0.8406 0.62028 0.69294 0.0
C2261 C 0.85696 0.6244 0.70428 0.0
C2262 C 0.86032 0.60811 0.70963 0.0
H2263 H 0.80419 0.5393 0.73191 0.0
H2264 H 0.81462 0.56631 0.72545 0.0
H2265 H 0.80246 0.54499 0.71107 0.0
H2266 H 0.82124 0.56742 0.68747 0.0
H2267 H 0.81491 0.59572 0.67835 0.0
H2268 H 0.45731 0.87725 0.23217 0.0
H2269 H 0.46813 0.89472 0.20583 0.0
H2270 H 0.45724 0.94449 0.22305 0.0
H2271 H 0.44667 0.92732 0.24941 0.0
H2272 H 0.44285 0.9071 0.18435 0.0
H2273 H 0.52094 0.97493 0.20552 0.0
H2274 H 0.50668 0.95041 0.21658 0.0
H2275 H 0.49757 0.96935 0.21737 0.0
C2276 C 0.45736 0.89199 0.23037 0.0
C2277 C 0.45119 0.90093 0.2429 0.0
C2278 C 0.4634 0.90186 0.2153 0.0
C2279 C 0.46364 0.92097 0.21256 0.0
C2280 C 0.45734 0.92984 0.22498 0.0
H2281 H 0.50252 0.01322 0.13649 0.0
H2282 H 0.48911 0.99221 0.16107 0.0
C2283 C 0.45116 0.91993 0.23999 0.0
C2284 C 0.47059 0.93179 0.19676 0.0
H2285 H 0.50976 0.977 0.17905 0.0
C2286 C 0.45754 0.92232 0.18312 0.0
C2287 C 0.48973 0.95163 0.19523 0.0
C2288 C 0.50469 0.96218 0.2094 0.0
C2289 C 0.4628 0.93252 0.16805 0.0
C2290 C 0.48189 0.95249 0.16655 0.0
C2291 C 0.49508 0.96174 0.18019 0.0
C2292 C 0.48842 0.9644 0.1511 0.0
C2293 C 0.44748 0.92213 0.15405 0.0
C2294 C 0.49234 0.95574 0.13721 0.0
C2295 C 0.4999 0.96772 0.12307 0.0
C2296 C 0.50402 0.9887 0.12265 0.0
C2297 C 0.49973 0.99718 0.13649 0.0
C2298 C 0.49203 0.98517 0.15054 0.0
H2299 H 0.43103 0.91009 0.15817 0.0
H2300 H 0.44609 0.93404 0.1466 0.0
H2301 H 0.45378 0.91399 0.1463 0.0
H2302 H 0.49017 0.93994 0.13743 0.0
H2303 H 0.50331 0.96085 0.11267 0.0
H2304 H 0.08708 0.56274 0.24704 0.0
H2305 H 0.06775 0.55534 0.2213 0.0
H2306 H 0.099 0.521 0.20505 0.0
H2307 H 0.11871 0.52861 0.23066 0.0
H2308 H 0.08709 0.5664 0.18963 0.0
H2309 H 0.03318 0.47958 0.19747 0.0
H2310 H 0.04695 0.49722 0.21419 0.0
H2311 H 0.06161 0.48951 0.20082 0.0
C2312 C 0.08995 0.55371 0.23796 0.0
C2313 C 0.10443 0.54625 0.24089 0.0
C2314 C 0.07881 0.54942 0.22331 0.0
C2315 C 0.0818 0.53744 0.2114 0.0
C2316 C 0.09621 0.52995 0.21424 0.0
H2317 H 0.02617 0.49523 0.1158 0.0
H2318 H 0.04693 0.50229 0.14085 0.0
C2319 C 0.10741 0.53429 0.22887 0.0
C2320 C 0.07026 0.53332 0.19581 0.0
H2321 H 0.03188 0.49392 0.17224 0.0
C2322 C 0.07499 0.55058 0.18581 0.0
C2323 C 0.05462 0.51263 0.19089 0.0
C2324 C 0.04859 0.49363 0.20142 0.0
C2325 C 0.06456 0.54768 0.17088 0.0
C2326 C 0.04865 0.52702 0.16605 0.0
C2327 C 0.04407 0.50974 0.176 0.0
C2328 C 0.03631 0.52304 0.15082 0.0
C2329 C 0.07095 0.56672 0.16031 0.0
C2330 C 0.0233 0.53219 0.14824 0.0
C2331 C 0.01159 0.52837 0.1339 0.0
C2332 C 0.01253 0.51514 0.12192 0.0
C2333 C 0.02538 0.50577 0.12466 0.0
C2334 C 0.03713 0.50966 0.139 0.0
H2335 H 0.08726 0.58006 0.16355 0.0
H2336 H 0.07099 0.56271 0.14738 0.0
H2337 H 0.0591 0.57224 0.1619 0.0
H2338 H 0.02211 0.54224 0.15735 0.0
H2339 H 1.002 0.53596 0.13212 0.0
H2340 H 0.49896 0.56713 0.24919 0.0
H2341 H 0.50871 0.55907 0.22299 0.0
H2342 H 0.44347 0.53612 0.20586 0.0
H2343 H 0.4338 0.54507 0.23187 0.0
H2344 H 0.49268 0.5215 0.20691 0.0
H2345 H 0.47909 0.5782 0.17104 0.0
H2346 H 0.48002 0.5788 0.19279 0.0
H2347 H 0.45606 0.55938 0.1824 0.0
C2348 C 0.48673 0.56064 0.23979 0.0
C2349 C 0.46566 0.55702 0.24258 0.0
C2350 C 0.49229 0.55587 0.22486 0.0
C2351 C 0.47694 0.54733 0.21237 0.0
C2352 C 0.45572 0.54313 0.21521 0.0
H2353 H 0.49367 0.51192 0.11441 0.0
H2354 H 0.47772 0.51596 0.13939 0.0
C2355 C 0.45014 0.548 0.23015 0.0
C2356 C 0.48334 0.5428 0.19647 0.0
H2357 H 0.48923 0.55648 0.15663 0.0
C2358 C 0.49185 0.5291 0.19592 0.0
C2359 C 0.48221 0.55271 0.18212 0.0
C2360 C 0.47403 0.56824 0.18205 0.0
C2361 C 0.49951 0.52524 0.18145 0.0
C2362 C 0.49876 0.53545 0.16721 0.0
C2363 C 0.48973 0.54869 0.16762 0.0
C2364 C 0.50835 0.53339 0.15196 0.0
C2365 C 0.50845 0.51033 0.1815 0.0
C2366 C 0.53086 0.54222 0.15072 0.0
C2367 C 0.54005 0.5402 0.13644 0.0
C2368 C 0.5269 0.52923 0.1231 0.0
C2369 C 0.50432 0.52065 0.12435 0.0
C2370 C 0.49514 0.52282 0.13864 0.0
H2371 H 0.50352 0.50023 0.19244 0.0
H2372 H 0.50293 0.49996 0.17064 0.0
H2373 H 0.52642 0.5197 0.18125 0.0
H2374 H 0.54133 0.55075 0.1608 0.0
H2375 H 0.55751 0.5474 0.13582 0.0
H2376 H 0.95189 0.44981 0.77514 0.0
H2377 H 0.96981 0.45678 0.8015 0.0
H2378 H 0.91784 0.46262 0.82279 0.0
H2379 H 0.89967 0.45545 0.79647 0.0
H2380 H 0.98216 0.49361 0.8235 0.0
H2381 H 0.92242 0.41506 0.84882 0.0
H2382 H 0.92555 0.42002 0.82739 0.0
H2383 H 0.91177 0.43017 0.83935 0.0
C2384 C 0.94427 0.45256 0.78545 0.0
C2385 C 0.92432 0.45195 0.78379 0.0
C2386 C 0.95458 0.45665 0.80044 0.0
C2387 C 0.94502 0.46002 0.81404 0.0
C2388 C 0.92535 0.45989 0.81241 0.0
H2389 H 1.00277 0.50001 0.90986 0.0
H2390 H 0.98436 0.4969 0.88413 0.0
C2391 C 0.91508 0.45593 0.79738 0.0
C2392 C 0.95545 0.46312 0.83 0.0
H2393 H 0.95069 0.43862 0.86601 0.0
C2394 C 0.97527 0.48169 0.83286 0.0
C2395 C 0.94642 0.44739 0.84204 0.0
C2396 C 0.92544 0.42694 0.83932 0.0
C2397 C 0.98636 0.48493 0.84754 0.0
C2398 C 0.97731 0.4692 0.85959 0.0
C2399 C 0.95747 0.45066 0.85673 0.0
C2400 C 0.98857 0.47133 0.87505 0.0
C2401 C 0.0079 0.50488 0.84997 0.0
C2402 C 0.99677 0.45782 0.87846 0.0
C2403 C 0.00725 0.45954 0.89311 0.0
C2404 C 0.0095 0.47467 0.90466 0.0
C2405 C 1.00115 0.48812 0.90123 0.0
C2406 C 0.99078 0.48647 0.88652 0.0
H2407 H 0.01433 0.51376 0.83854 0.0
H2408 H 0.00595 0.51534 0.85872 0.0
H2409 H 0.01999 0.50106 0.85502 0.0
H2410 H 0.99509 0.44597 0.86976 0.0
H2411 H 0.01326 0.44878 0.8955 0.0
H2412 H 0.57096 0.43738 0.79673 0.0
H2413 H 0.56018 0.44453 0.82301 0.0
H2414 H 0.56097 0.49968 0.80332 0.0
H2415 H 0.57262 0.49304 0.77726 0.0
H2416 H 0.57871 0.50838 0.83204 0.0
H2417 H 0.5011 0.43245 0.83547 0.0
H2418 H 0.52407 0.42873 0.83374 0.0
H2419 H 0.51734 0.44075 0.81745 0.0
C2420 C 0.56879 0.451 0.79807 0.0
C2421 C 0.57251 0.46462 0.785 0.0
C2422 C 0.5625 0.455 0.81303 0.0
C2423 C 0.55926 0.47237 0.81507 0.0
C2424 C 0.56327 0.48614 0.80204 0.0
H2425 H 0.48453 0.48808 0.8899 0.0
H2426 H 0.4984 0.48056 0.86546 0.0
C2427 C 0.56993 0.48235 0.78717 0.0
C2428 C 0.55188 0.47641 0.83075 0.0
H2429 H 0.51182 0.45404 0.85895 0.0
C2430 C 0.56405 0.49651 0.83791 0.0
C2431 C 0.5326 0.46102 0.83832 0.0
C2432 C 0.5179 0.43961 0.83078 0.0
C2433 C 0.55744 0.5017 0.85232 0.0
C2434 C 0.53852 0.48609 0.86015 0.0
C2435 C 0.52644 0.46595 0.85305 0.0
C2436 C 0.5303 0.49058 0.87525 0.0
C2437 C 0.5704 0.52411 0.85864 0.0
C2438 C 0.54347 0.49846 0.88905 0.0
C2439 C 0.53577 0.50338 0.90296 0.0
C2440 C 0.51453 0.50007 0.90351 0.0
C2441 C 0.50114 0.49139 0.88985 0.0
C2442 C 0.50897 0.48683 0.87588 0.0
H2443 H 0.58024 0.53535 0.84899 0.0
H2444 H 0.55968 0.52953 0.86393 0.0
H2445 H 0.58171 0.52479 0.86814 0.0
H2446 H 0.55978 0.50093 0.88904 0.0
H2447 H 0.54665 0.51015 0.91315 0.0
H2448 H 0.58385 0.12535 0.79362 0.0
H2449 H 0.57468 0.10799 0.82003 0.0
H2450 H 0.50908 0.06675 0.8038 0.0
H2451 H 0.51828 0.08328 0.7773 0.0
H2452 H 0.54475 0.10489 0.84226 0.0
H2453 H 0.5246 0.02469 0.82199 0.0
H2454 H 0.53861 0.04768 0.80927 0.0
H2455 H 0.50954 0.03436 0.81111 0.0
C2456 C 0.56756 0.11235 0.7956 0.0
C2457 C 0.55183 0.1057 0.78328 0.0
C2458 C 0.56231 0.10255 0.81074 0.0
C2459 C 0.54128 0.08582 0.81383 0.0
C2460 C 0.52554 0.0793 0.80162 0.0
H2461 H 0.4621 0.01253 0.89226 0.0
H2462 H 0.47835 0.03217 0.86753 0.0
C2463 C 0.53077 0.089 0.7865 0.0
C2464 C 0.53544 0.0755 0.82993 0.0
H2465 H 0.51177 0.02709 0.84823 0.0
C2466 C 0.53784 0.08793 0.84361 0.0
C2467 C 0.52655 0.05336 0.83172 0.0
C2468 C 0.52488 0.03928 0.81776 0.0
C2469 C 0.53065 0.07866 0.85887 0.0
C2470 C 0.52089 0.05646 0.86046 0.0
C2471 C 0.51911 0.04412 0.84692 0.0
C2472 C 0.5114 0.04553 0.8759 0.0
C2473 C 0.53275 0.09249 0.87311 0.0
C2474 C 0.52465 0.04661 0.88884 0.0
C2475 C 0.51541 0.03514 0.90299 0.0
C2476 C 0.49275 0.02238 0.90443 0.0
C2477 C 0.4796 0.02182 0.89151 0.0
C2478 C 0.48884 0.03315 0.87738 0.0
H2479 H 0.53867 0.10918 0.86955 0.0
H2480 H 0.51686 0.08624 0.87921 0.0
H2481 H 0.54431 0.09224 0.88197 0.0
H2482 H 0.54213 0.05593 0.88785 0.0
H2483 H 0.52605 0.03578 0.91259 0.0
H2484 H 0.15276 0.24903 0.57925 0.0
H2485 H 0.16265 0.26593 0.55277 0.0
H2486 H 0.09528 0.23363 0.53877 0.0
H2487 H 0.08524 0.21648 0.56517 0.0
H2488 H 0.1544 0.24729 0.52155 0.0
H2489 H 0.1154 0.29635 0.53003 0.0
H2490 H 0.12062 0.28349 0.5466 0.0
H2491 H 0.09808 0.26844 0.53328 0.0
C2492 C 0.14005 0.24535 0.5705 0.0
C2493 C 0.11818 0.23146 0.57438 0.0
C2494 C 0.14572 0.2551 0.55539 0.0
C2495 C 0.12968 0.25128 0.54389 0.0
C2496 C 0.10789 0.23715 0.54759 0.0
H2497 H 0.13861 0.30674 0.44871 0.0
H2498 H 0.1255 0.28434 0.47275 0.0
C2499 C 0.10218 0.22738 0.56269 0.0
C2500 C 0.13582 0.26211 0.52803 0.0
H2501 H 0.13075 0.29783 0.50452 0.0
C2502 C 0.14923 0.25833 0.51781 0.0
C2503 C 0.12895 0.27642 0.52315 0.0
C2504 C 0.11511 0.28161 0.53386 0.0
C2505 C 0.15594 0.26846 0.50281 0.0
C2506 C 0.14942 0.28309 0.49805 0.0
C2507 C 0.13571 0.2866 0.50817 0.0
C2508 C 0.1574 0.29567 0.483 0.0
C2509 C 0.16976 0.26323 0.49212 0.0
C2510 C 0.17967 0.30949 0.48078 0.0
C2511 C 0.1872 0.32219 0.46705 0.0
C2512 C 0.17261 0.32151 0.45527 0.0
C2513 C 0.1503 0.30748 0.45744 0.0
C2514 C 0.14277 0.29477 0.47122 0.0
H2515 H 0.16784 0.24753 0.49511 0.0
H2516 H 0.16564 0.26322 0.47919 0.0
H2517 H 0.18706 0.27534 0.49391 0.0
H2518 H 0.19125 0.31077 0.48984 0.0
H2519 H 0.2045 0.33265 0.4657 0.0
H2520 H 0.74877 0.89293 0.58312 0.0
H2521 H 0.73454 0.88783 0.55562 0.0
H2522 H 0.77759 0.8654 0.54084 0.0
H2523 H 0.7923 0.87085 0.56827 0.0
H2524 H 0.7583 0.90485 0.52496 0.0
H2525 H 0.71456 0.81681 0.52931 0.0
H2526 H 0.7238 0.83375 0.54691 0.0
H2527 H 0.74284 0.83066 0.53472 0.0
C2528 C 0.75548 0.88723 0.57398 0.0
C2529 C 0.7716 0.88219 0.5779 0.0
C2530 C 0.74726 0.88425 0.55831 0.0
C2531 C 0.75489 0.87605 0.54632 0.0
C2532 C 0.77132 0.87148 0.55003 0.0
H2533 H 0.7036 0.83198 0.44959 0.0
H2534 H 0.72595 0.84184 0.47399 0.0
C2535 C 0.77963 0.87453 0.5657 0.0
C2536 C 0.7451 0.87171 0.53005 0.0
H2537 H 0.71169 0.83142 0.50482 0.0
C2538 C 0.74818 0.88882 0.52048 0.0
C2539 C 0.73205 0.85078 0.5243 0.0
C2540 C 0.72791 0.83187 0.53433 0.0
C2541 C 0.7384 0.88553 0.50524 0.0
C2542 C 0.72479 0.86456 0.49968 0.0
C2543 C 0.72212 0.84747 0.50913 0.0
C2544 C 0.71236 0.85987 0.48443 0.0
C2545 C 0.74286 0.90452 0.49521 0.0
C2546 C 0.69727 0.86669 0.48225 0.0
C2547 C 0.68464 0.86128 0.46827 0.0
C2548 C 0.68667 0.84871 0.45627 0.0
C2549 C 0.70186 0.84194 0.45848 0.0
C2550 C 0.71455 0.84744 0.47245 0.0
H2551 H 0.75841 0.91872 0.49873 0.0
H2552 H 0.74345 0.90139 0.48216 0.0
H2553 H 0.72971 0.90826 0.49713 0.0
H2554 H 0.69497 0.8759 0.4915 0.0
H2555 H 0.67325 0.86691 0.46687 0.0
H2556 H 0.09647 0.87644 0.5654 0.0
H2557 H 0.10567 0.86695 0.53938 0.0
H2558 H 0.17096 0.88943 0.55621 0.0
H2559 H 0.16172 0.89813 0.58233 0.0
H2560 H 0.13615 0.89306 0.51757 0.0
H2561 H 0.15521 0.83199 0.53801 0.0
H2562 H 0.14107 0.8414 0.55057 0.0
H2563 H 0.17018 0.85625 0.54911 0.0
C2564 C 0.11267 0.879 0.56364 0.0
C2565 C 0.12836 0.88806 0.57595 0.0
C2566 C 0.11794 0.87369 0.54874 0.0
C2567 C 0.13891 0.87718 0.54593 0.0
C2568 C 0.15455 0.88616 0.5582 0.0
H2569 H 0.22071 0.88404 0.46885 0.0
H2570 H 0.20332 0.88632 0.49354 0.0
C2571 C 0.14931 0.89141 0.57307 0.0
C2572 C 0.14493 0.87247 0.52995 0.0
H2573 H 0.16909 0.84734 0.51202 0.0
C2574 C 0.14301 0.88278 0.51629 0.0
C2575 C 0.15379 0.85897 0.52829 0.0
C2576 C 0.15498 0.84635 0.54226 0.0
C2577 C 0.15071 0.88076 0.50118 0.0
C2578 C 0.16048 0.86809 0.49974 0.0
C2579 C 0.16172 0.85719 0.51324 0.0
C2580 C 0.17065 0.86686 0.48454 0.0
C2581 C 0.14918 0.89282 0.48696 0.0
C2582 C 0.15796 0.85512 0.47134 0.0
C2583 C 0.16785 0.85354 0.45723 0.0
C2584 C 0.1906 0.86371 0.45611 0.0
C2585 C 0.20317 0.87568 0.46937 0.0
C2586 C 0.19328 0.87713 0.48346 0.0
H2587 H 0.1429 0.90349 0.4904 0.0
H2588 H 0.16538 0.90239 0.48134 0.0
H2589 H 0.13819 0.88145 0.47772 0.0
H2590 H 0.14043 0.84694 0.47204 0.0
H2591 H 0.15766 0.84397 0.44735 0.0
H2592 H 0.55843 0.75496 0.12833 0.0
H2593 H 0.5754 0.76276 0.15504 0.0
H2594 H 0.62517 0.82393 0.13831 0.0
H2595 H 0.60807 0.81633 0.11164 0.0
H2596 H 0.61562 0.77002 0.1619 0.0
H2597 H 0.60858 0.8394 0.18072 0.0
H2598 H 0.59343 0.82259 0.16396 0.0
H2599 H 0.62132 0.8428 0.16145 0.0
C2600 C 0.57289 0.77014 0.13041 0.0
C2601 C 0.58196 0.78506 0.11795 0.0
C2602 C 0.58252 0.7746 0.14567 0.0
C2603 C 0.60137 0.79403 0.14872 0.0
C2604 C 0.61031 0.80906 0.13634 0.0
H2605 H 0.69732 0.84067 0.22485 0.0
H2606 H 0.67665 0.83497 0.19983 0.0
C2607 C 0.60059 0.80468 0.12111 0.0
C2608 C 0.61256 0.79785 0.16446 0.0
H2609 H 0.63241 0.83221 0.19633 0.0
C2610 C 0.6191 0.78351 0.1695 0.0
C2611 C 0.61712 0.81549 0.17432 0.0
C2612 C 0.60956 0.83084 0.16993 0.0
C2613 C 0.63045 0.78655 0.18399 0.0
C2614 C 0.63527 0.80432 0.19369 0.0
C2615 C 0.62869 0.81864 0.18876 0.0
C2616 C 0.64731 0.80829 0.20898 0.0
C2617 C 0.63761 0.77099 0.18872 0.0
C2618 C 0.63746 0.79528 0.22236 0.0
C2619 C 0.64917 0.79848 0.23661 0.0
C2620 C 0.67095 0.8147 0.23767 0.0
C2621 C 0.68065 0.8279 0.22429 0.0
C2622 C 0.66886 0.82477 0.21007 0.0
H2623 H 0.63561 0.76 0.1787 0.0
H2624 H 0.65487 0.77951 0.19257 0.0
H2625 H 0.62778 0.76144 0.19908 0.0
H2626 H 0.62077 0.78254 0.22169 0.0
H2627 H 0.64135 0.78798 0.24669 0.0
H2628 H 0.23027 0.77053 0.12592 0.0
H2629 H 0.21903 0.77701 0.15228 0.0
H2630 H 0.22698 0.83621 0.13498 0.0
H2631 H 0.23795 0.82975 0.10857 0.0
H2632 H 0.24365 0.81437 0.17331 0.0
H2633 H 0.16391 0.80295 0.15337 0.0
H2634 H 0.17862 0.79304 0.14199 0.0
H2635 H 0.18677 0.82066 0.14128 0.0
C2636 C 0.22944 0.78483 0.1277 0.0
C2637 C 0.23493 0.79961 0.11517 0.0
C2638 C 0.22316 0.78856 0.14277 0.0
C2639 C 0.22202 0.80699 0.14549 0.0
C2640 C 0.22757 0.8218 0.13305 0.0
H2641 H 0.18262 0.8591 0.22318 0.0
H2642 H 0.19577 0.85189 0.19808 0.0
C2643 C 0.23397 0.81816 0.11802 0.0
C2644 C 0.21517 0.81086 0.16138 0.0
H2645 H 0.17537 0.81621 0.1798 0.0
C2646 C 0.22867 0.81467 0.1748 0.0
C2647 C 0.19565 0.81126 0.1632 0.0
C2648 C 0.18026 0.8066 0.14925 0.0
C2649 C 0.22344 0.81947 0.18999 0.0
C2650 C 0.20394 0.81998 0.19181 0.0
C2651 C 0.19034 0.81589 0.17838 0.0
C2652 C 0.19735 0.82499 0.20743 0.0
C2653 C 0.23915 0.82457 0.20379 0.0
C2654 C 0.19396 0.81232 0.22107 0.0
C2655 C 0.18653 0.81648 0.23548 0.0
C2656 C 0.18205 0.83319 0.2364 0.0
C2657 C 0.18571 0.84598 0.22278 0.0
C2658 C 0.19327 0.84191 0.20845 0.0
H2659 H 0.25566 0.82914 0.19945 0.0
H2660 H 0.24018 0.83765 0.21135 0.0
H2661 H 0.23347 0.81036 0.2115 0.0
H2662 H 0.19651 0.79888 0.22047 0.0
H2663 H 0.18358 0.8062 0.24571 0.0
H2664 H 0.18015 0.41185 0.10961 0.0
H2665 H 0.17122 0.39572 0.13629 0.0
H2666 H 0.23689 0.43756 0.15211 0.0
H2667 H 0.24575 0.4545 0.12559 0.0
H2668 H 0.18781 0.37463 0.15238 0.0
H2669 H 0.20256 0.44562 0.18761 0.0
H2670 H 0.20092 0.44467 0.16588 0.0
H2671 H 0.22525 0.44905 0.17587 0.0
C2672 C 0.19265 0.41789 0.11881 0.0
C2673 C 0.21363 0.43466 0.11545 0.0
C2674 C 0.18755 0.40852 0.13405 0.0
C2675 C 0.20326 0.41564 0.14632 0.0
C2676 C 0.22435 0.43209 0.14296 0.0
H2677 H 0.19135 0.36562 0.24453 0.0
H2678 H 0.20597 0.38561 0.2195 0.0
C2679 C 0.22946 0.44157 0.12771 0.0
C2680 C 0.19748 0.40538 0.16245 0.0
H2681 H 0.19343 0.41456 0.20244 0.0
C2682 C 0.18909 0.3834 0.16331 0.0
C2683 C 0.19921 0.41682 0.17675 0.0
C2684 C 0.20729 0.44031 0.17654 0.0
C2685 C 0.1822 0.37253 0.17801 0.0
C2686 C 0.18356 0.38389 0.19222 0.0
C2687 C 0.19244 0.40593 0.19149 0.0
C2688 C 0.17477 0.37286 0.20775 0.0
C2689 C 0.17341 0.34892 0.17824 0.0
C2690 C 0.15236 0.35953 0.20956 0.0
C2691 C 0.14394 0.34829 0.22386 0.0
C2692 C 0.15776 0.35006 0.23668 0.0
C2693 C 0.18021 0.36396 0.23498 0.0
C2694 C 0.18862 0.37532 0.22066 0.0
H2695 H 0.17785 0.34333 0.16718 0.0
H2696 H 0.17953 0.34435 0.18894 0.0
H2697 H 0.15546 0.34065 0.17899 0.0
H2698 H 0.14137 0.3577 0.19983 0.0
H2699 H 0.12655 0.33816 0.22483 0.0
H2700 H 0.81868 0.59022 0.91562 0.0
H2701 H 0.82766 0.60656 0.88891 0.0
H2702 H 0.76008 0.57203 0.87553 0.0
H2703 H 0.75096 0.55553 0.90219 0.0
H2704 H 0.82016 0.58739 0.85844 0.0
H2705 H 0.77742 0.63326 0.86479 0.0
H2706 H 0.78315 0.62141 0.8818 0.0
H2707 H 0.76096 0.60535 0.86846 0.0
C2708 C 0.80573 0.586 0.90697 0.0
C2709 C 0.78408 0.57162 0.91109 0.0
C2710 C 0.81088 0.59542 0.89173 0.0
C2711 C 0.79452 0.59076 0.8803 0.0
C2712 C 0.77292 0.57623 0.88428 0.0
H2713 H 0.80063 0.64045 0.7831 0.0
H2714 H 0.78837 0.6191 0.80773 0.0
C2715 C 0.76774 0.56682 0.89953 0.0
C2716 C 0.80016 0.60095 0.86417 0.0
H2717 H 0.79278 0.6342 0.83935 0.0
C2718 C 0.81417 0.59762 0.85426 0.0
C2719 C 0.79224 0.6142 0.85869 0.0
C2720 C 0.77775 0.61897 0.86901 0.0
C2721 C 0.82047 0.60718 0.83904 0.0
C2722 C 0.81287 0.62074 0.83368 0.0
C2723 C 0.79856 0.62377 0.84346 0.0
C2724 C 0.82038 0.63275 0.81834 0.0
C2725 C 0.83506 0.60252 0.82876 0.0
C2726 C 0.84241 0.64752 0.81613 0.0
C2727 C 0.84946 0.65964 0.80209 0.0
C2728 C 0.8346 0.65739 0.78995 0.0
C2729 C 0.81253 0.64241 0.79211 0.0
C2730 C 0.80548 0.63029 0.80622 0.0
H2731 H 0.8342 0.58742 0.83231 0.0
H2732 H 0.83075 0.60157 0.81578 0.0
H2733 H 0.85208 0.61544 0.83032 0.0
H2734 H 0.85416 0.64997 0.82542 0.0
H2735 H 0.86658 0.67088 0.80076 0.0
H2736 H 0.4131 0.17756 0.9165 0.0
H2737 H 0.39543 0.16866 0.88998 0.0
H2738 H 0.44058 0.23145 0.87307 0.0
H2739 H 0.45845 0.24046 0.89956 0.0
H2740 H 0.37781 0.19423 0.87417 0.0
H2741 H 0.44065 0.18772 0.83879 0.0
H2742 H 0.43836 0.18441 0.86043 0.0
H2743 H 0.44962 0.21036 0.85189 0.0
C2744 C 0.41941 0.18937 0.90707 0.0
C2745 C 0.43714 0.20968 0.91004 0.0
C2746 C 0.40928 0.1843 0.89199 0.0
C2747 C 0.41688 0.19936 0.87963 0.0
C2748 C 0.43468 0.21959 0.88248 0.0
H2749 H 0.37611 0.19863 0.78102 0.0
H2750 H 0.39597 0.20654 0.8066 0.0
C2751 C 0.44472 0.22474 0.8976 0.0
C2752 C 0.40553 0.19419 0.86396 0.0
H2753 H 0.41046 0.18443 0.8244 0.0
C2754 C 0.38485 0.19201 0.86327 0.0
C2755 C 0.41498 0.19153 0.84984 0.0
C2756 C 0.43708 0.19348 0.85016 0.0
C2757 C 0.37336 0.18743 0.84869 0.0
C2758 C 0.38261 0.18438 0.83456 0.0
C2759 C 0.40338 0.18667 0.83527 0.0
C2760 C 0.37103 0.17898 0.81892 0.0
C2761 C 0.35167 0.18644 0.84851 0.0
C2762 C 0.35069 0.1606 0.81728 0.0
C2763 C 0.33929 0.15613 0.80275 0.0
C2764 C 0.3482 0.1698 0.78953 0.0
C2765 C 0.36892 0.18777 0.791 0.0
C2766 C 0.38024 0.19233 0.80559 0.0
H2767 H 0.34985 0.19496 0.85898 0.0
H2768 H 0.34943 0.19337 0.83726 0.0
H2769 H 0.33856 0.16965 0.84917 0.0
H2770 H 0.34357 0.14978 0.8273 0.0
H2771 H 0.32351 0.14198 0.80184 0.0
H2772 H 0.83553 0.23187 0.91692 0.0
H2773 H 0.84511 0.22504 0.89023 0.0
H2774 H 0.78042 0.20503 0.8732 0.0
H2775 H 0.77095 0.21278 0.89973 0.0
H2776 H 0.82825 0.18848 0.87277 0.0
H2777 H 0.81726 0.24877 0.83972 0.0
H2778 H 0.81794 0.24796 0.86145 0.0
H2779 H 0.79384 0.22969 0.85061 0.0
C2780 C 0.82339 0.22628 0.90746 0.0
C2781 C 0.80253 0.22313 0.91044 0.0
C2782 C 0.82885 0.22222 0.89223 0.0
C2783 C 0.8136 0.21487 0.87964 0.0
C2784 C 0.79259 0.21113 0.88264 0.0
H2785 H 0.8307 0.18085 0.78114 0.0
H2786 H 0.81429 0.18405 0.8062 0.0
C2787 C 0.78712 0.21531 0.89788 0.0
C2788 C 0.81989 0.21106 0.86345 0.0
H2789 H 0.82668 0.22733 0.82419 0.0
C2790 C 0.82781 0.19691 0.86214 0.0
C2791 C 0.81931 0.22208 0.84959 0.0
C2792 C 0.81181 0.23812 0.85036 0.0
C2793 C 0.83543 0.19372 0.84741 0.0
C2794 C 0.83516 0.20498 0.83367 0.0
C2795 C 0.82675 0.21869 0.8348 0.0
C2796 C 0.8449 0.20368 0.81829 0.0
C2797 C 0.844 0.17854 0.84661 0.0
C2798 C 0.86749 0.21398 0.81679 0.0
C2799 C 0.87692 0.21243 0.80249 0.0
C2800 C 0.86392 0.20042 0.78941 0.0
C2801 C 0.84121 0.19039 0.79089 0.0
C2802 C 0.83179 0.19209 0.80521 0.0
H2803 H 0.83984 0.1685 0.85755 0.0
H2804 H 0.83741 0.16812 0.83583 0.0
H2805 H 0.86191 0.18766 0.84546 0.0
H2806 H 0.87784 0.22319 0.82674 0.0
H2807 H 0.89443 0.22073 0.80168 0.0
H2808 H 0.23183 0.08417 0.46003 0.0
H2809 H 0.25175 0.09415 0.48556 0.0
H2810 H 0.28364 0.15991 0.47179 0.0
H2811 H 0.26406 0.15006 0.44602 0.0
H2812 H 0.29864 0.11712 0.48787 0.0
H2813 H 0.26014 0.15801 0.51849 0.0
H2814 H 0.24733 0.13973 0.50192 0.0
H2815 H 0.26925 0.166 0.49813 0.0
C2816 C 0.2431 0.10076 0.46241 0.0
C2817 C 0.24647 0.11632 0.45096 0.0
C2818 C 0.25435 0.10643 0.47703 0.0
C2819 C 0.26901 0.12774 0.48055 0.0
C2820 C 0.27213 0.14339 0.46935 0.0
H2821 H 0.36959 0.17253 0.55462 0.0
H2822 H 0.34969 0.16759 0.52937 0.0
C2823 C 0.26091 0.13774 0.45467 0.0
C2824 C 0.2819 0.13334 0.49558 0.0
H2825 H 0.28952 0.15816 0.53197 0.0
C2826 C 0.29673 0.12616 0.4975 0.0
C2827 C 0.2792 0.14502 0.50809 0.0
C2828 C 0.26303 0.15256 0.50671 0.0
C2829 C 0.30897 0.13031 0.51168 0.0
C2830 C 0.30637 0.14208 0.52417 0.0
C2831 C 0.29154 0.14928 0.52227 0.0
C2832 C 0.31828 0.1462 0.53957 0.0
C2833 C 0.3242 0.12166 0.51338 0.0
C2834 C 0.30709 0.13612 0.55366 0.0
C2835 C 0.31839 0.13874 0.56804 0.0
C2836 C 0.34109 0.15165 0.56861 0.0
C2837 C 0.35217 0.16221 0.55452 0.0
C2838 C 0.34084 0.15949 0.54012 0.0
H2839 H 0.32145 0.10978 0.50388 0.0
H2840 H 0.34118 0.13486 0.51241 0.0
H2841 H 0.3223 0.11419 0.52538 0.0
H2842 H 0.28967 0.12574 0.55341 0.0
H2843 H 0.30938 0.13017 0.5786 0.0
H2844 H 0.86908 0.11596 0.44473 0.0
H2845 H 0.85959 0.12183 0.47183 0.0
H2846 H 0.92739 0.15799 0.48438 0.0
H2847 H 0.93705 0.15207 0.4573 0.0
H2848 H 0.86981 0.11126 0.5021 0.0
H2849 H 0.90455 0.19824 0.49572 0.0
H2850 H 0.89975 0.18102 0.47863 0.0
H2851 H 0.92286 0.18862 0.49147 0.0
C2852 C 0.88199 0.12501 0.45329 0.0
C2853 C 0.90384 0.13362 0.44882 0.0
C2854 C 0.87653 0.12842 0.46875 0.0
C2855 C 0.89279 0.14059 0.48004 0.0
C2856 C 0.9146 0.14892 0.47574 0.0
H2857 H 0.88234 0.18194 0.57723 0.0
H2858 H 0.89623 0.17426 0.55261 0.0
C2859 C 0.92009 0.14553 0.46026 0.0
C2860 C 0.88678 0.14448 0.49629 0.0
H2861 H 0.89001 0.18346 0.5211 0.0
C2862 C 0.87426 0.12704 0.50628 0.0
C2863 C 0.89271 0.1651 0.50174 0.0
C2864 C 0.90556 0.18434 0.49132 0.0
C2865 C 0.86742 0.12967 0.52155 0.0
C2866 C 0.87292 0.15024 0.52685 0.0
C2867 C 0.88583 0.16771 0.51701 0.0
C2868 C 0.86455 0.1539 0.54218 0.0
C2869 C 0.85447 0.1104 0.53193 0.0
C2870 C 0.84215 0.14505 0.54445 0.0
C2871 C 0.83419 0.14932 0.55849 0.0
C2872 C 0.84846 0.16268 0.57053 0.0
C2873 C 0.87091 0.17139 0.56828 0.0
C2874 C 0.87887 0.16712 0.55419 0.0
H2875 H 0.85714 0.09716 0.52839 0.0
H2876 H 0.85872 0.11413 0.54487 0.0
H2877 H 0.83695 0.1049 0.53044 0.0
H2878 H 0.83081 0.13512 0.53521 0.0
H2879 H 0.81681 0.1422 0.55989 0.0
H2880 H 0.88041 0.79988 0.46304 0.0
H2881 H 0.872 0.78352 0.48978 0.0
H2882 H 0.88414 0.73455 0.47229 0.0
H2883 H 0.89366 0.75161 0.44582 0.0
H2884 H 0.84102 0.74785 0.49883 0.0
H2885 H 0.9164 0.74736 0.5134 0.0
H2886 H 0.91454 0.76192 0.49652 0.0
H2887 H 0.90536 0.73402 0.49464 0.0
C2888 C 0.88161 0.78581 0.46504 0.0
C2889 C 0.88783 0.77706 0.45246 0.0
C2890 C 0.87677 0.77644 0.4803 0.0
C2891 C 0.87776 0.75794 0.48323 0.0
C2892 C 0.88394 0.74918 0.47059 0.0
H2893 H 0.80224 0.66506 0.55532 0.0
H2894 H 0.81626 0.68742 0.53164 0.0
C2895 C 0.88923 0.75882 0.45542 0.0
C2896 C 0.87089 0.74708 0.49914 0.0
H2897 H 0.88487 0.72347 0.52869 0.0
C2898 C 0.85078 0.74277 0.50543 0.0
C2899 C 0.88371 0.74076 0.50803 0.0
C2900 C 0.9063 0.74648 0.50288 0.0
C2901 C 0.84287 0.73183 0.52001 0.0
C2902 C 0.85495 0.72411 0.52826 0.0
C2903 C 0.87539 0.72903 0.52227 0.0
C2904 C 0.84647 0.7105 0.54285 0.0
C2905 C 0.82178 0.72898 0.52647 0.0
C2906 C 0.85906 0.71544 0.55696 0.0
C2907 C 0.85137 0.70218 0.57045 0.0
C2908 C 0.83083 0.68369 0.57017 0.0
C2909 C 0.81824 0.67893 0.55602 0.0
C2910 C 0.82609 0.69198 0.54249 0.0
H2911 H 0.81892 0.74187 0.5223 0.0
H2912 H 0.80818 0.71379 0.5219 0.0
H2913 H 0.82149 0.72873 0.53985 0.0
H2914 H 0.87493 0.72953 0.55753 0.0
H2915 H 0.86175 0.70625 0.58096 0.0
loop_
_geom_bond_atom_site_label_1
_geom_bond_atom_site_label_2
_geom_bond_distance
_geom_bond_site_symmetry_2
_ccdc_geom_bond_type
H0 C5 0.930 . S
H1 C8 0.930 . S
H2 C10 0.930 . S
H3 C4 1.016 . S
C4 H3 1.016 . S
C4 N11 1.286 . S
C5 H0 0.930 . S
C5 C6 1.397 . S
C5 C7 1.361 . S
C6 C5 1.397 . S
C6 C10 1.390 . S
C7 C5 1.361 . S
C7 C8 1.393 . S
C7 N11 1.413 . S
C8 H1 0.930 . S
C8 C7 1.393 . S
C8 C9 1.399 . S
C9 C8 1.399 . S
C9 C10 1.381 . S
C10 H2 0.930 . S
C10 C6 1.390 . S
C10 C9 1.381 . S
N11 C4 1.286 . S
N11 C7 1.413 . S
H12 C17 0.930 . S
H13 C20 0.930 . S
H14 C22 0.930 . S
H15 C16 1.016 . S
C16 H15 1.016 . S
C16 N23 1.286 . S
C17 H12 0.930 . S
C17 C18 1.397 . S
C17 C19 1.361 . S
C18 C17 1.397 . S
C18 C22 1.390 . S
C19 C17 1.361 . S
C19 C20 1.393 . S
C19 N23 1.413 . S
C20 H13 0.930 . S
C20 C19 1.393 . S
C20 C21 1.399 . S
C21 C20 1.399 . S
C21 C22 1.381 . S
C22 H14 0.930 . S
C22 C18 1.390 . S
C22 C21 1.381 . S
N23 C16 1.286 . S
N23 C19 1.413 . S
H24 C29 0.930 . S
H25 C32 0.930 . S
H26 C34 0.930 . S
H27 C28 1.016 . S
C28 H27 1.016 . S
C28 N35 1.286 . S
C29 H24 0.930 . S
C29 C30 1.397 . S
C29 C31 1.361 . S
C30 C29 1.397 . S
C30 C34 1.390 . S
C31 C29 1.361 . S
C31 C32 1.393 . S
C31 N35 1.413 . S
C32 H25 0.930 . S
C32 C31 1.393 . S
C32 C33 1.399 . S
C33 C32 1.399 . S
C33 C34 1.381 . S
C34 H26 0.930 . S
C34 C30 1.390 . S
C34 C33 1.381 . S
N35 C28 1.286 . S
N35 C31 1.413 . S
H36 C41 0.930 . S
H37 C44 0.930 . S
H38 C46 0.930 . S
H39 C40 1.016 . S
C40 H39 1.016 . S
C40 N47 1.286 . S
C41 H36 0.930 . S
C41 C42 1.397 . S
C41 C43 1.361 . S
C42 C41 1.397 . S
C42 C46 1.390 . S
C43 C41 1.361 . S
C43 C44 1.393 . S
C43 N47 1.413 . S
C44 H37 0.930 . S
C44 C43 1.393 . S
C44 C45 1.399 . S
C45 C44 1.399 . S
C45 C46 1.381 . S
C46 H38 0.930 . S
C46 C42 1.390 . S
C46 C45 1.381 . S
N47 C40 1.286 . S
N47 C43 1.413 . S
H48 C53 0.930 . S
H49 C56 0.930 . S
H50 C58 0.930 . S
H51 C52 1.016 . S
C52 H51 1.016 . S
C52 N59 1.286 . S
C53 H48 0.930 . S
C53 C54 1.397 . S
C53 C55 1.361 . S
C54 C53 1.397 . S
C54 C58 1.390 . S
C55 C53 1.361 . S
C55 C56 1.393 . S
C55 N59 1.413 . S
C56 H49 0.930 . S
C56 C55 1.393 . S
C56 C57 1.399 . S
C57 C56 1.399 . S
C57 C58 1.381 . S
C58 H50 0.930 . S
C58 C54 1.390 . S
C58 C57 1.381 . S
N59 C52 1.286 . S
N59 C55 1.413 . S
H60 C65 0.930 . S
H61 C68 0.930 . S
H62 C70 0.930 . S
H63 C64 1.016 . S
C64 H63 1.016 . S
C64 N71 1.286 . S
C65 H60 0.930 . S
C65 C66 1.397 . S
C65 C67 1.361 . S
C66 C65 1.397 . S
C66 C70 1.390 . S
C67 C65 1.361 . S
C67 C68 1.393 . S
C67 N71 1.413 . S
C68 H61 0.930 . S
C68 C67 1.393 . S
C68 C69 1.399 . S
C69 C68 1.399 . S
C69 C70 1.381 . S
C70 H62 0.930 . S
C70 C66 1.390 . S
C70 C69 1.381 . S
N71 C64 1.286 . S
N71 C67 1.413 . S
H72 C77 0.930 . S
H73 C80 0.930 . S
H74 C82 0.930 . S
H75 C76 1.016 . S
C76 H75 1.016 . S
C76 N83 1.286 . S
C77 H72 0.930 . S
C77 C78 1.397 . S
C77 C79 1.361 . S
C78 C77 1.397 . S
C78 C82 1.390 . S
C79 C77 1.361 . S
C79 C80 1.393 . S
C79 N83 1.413 . S
C80 H73 0.930 . S
C80 C79 1.393 . S
C80 C81 1.399 . S
C81 C80 1.399 . S
C81 C82 1.381 . S
C82 H74 0.930 . S
C82 C78 1.390 . S
C82 C81 1.381 . S
N83 C76 1.286 . S
N83 C79 1.413 . S
H84 C89 0.930 . S
H85 C92 0.930 . S
H86 C94 0.930 . S
H87 C88 1.016 . S
C88 H87 1.016 . S
C88 N95 1.286 . S
C89 H84 0.930 . S
C89 C90 1.397 . S
C89 C91 1.361 . S
C90 C89 1.397 . S
C90 C94 1.390 . S
C91 C89 1.361 . S
C91 C92 1.393 . S
C91 N95 1.413 . S
C92 H85 0.930 . S
C92 C91 1.393 . S
C92 C93 1.399 . S
C93 C92 1.399 . S
C93 C94 1.381 . S
C94 H86 0.930 . S
C94 C90 1.390 . S
C94 C93 1.381 . S
N95 C88 1.286 . S
N95 C91 1.413 . S
H96 C101 0.930 . S
H97 C104 0.930 . S
H98 C106 0.930 . S
H99 C100 1.016 . S
C100 H99 1.016 . S
C100 N107 1.286 . S
C101 H96 0.930 . S
C101 C102 1.397 . S
C101 C103 1.361 . S
C102 C101 1.397 . S
C102 C106 1.390 . S
C103 C101 1.361 . S
C103 C104 1.393 . S
C103 N107 1.413 . S
C104 H97 0.930 . S
C104 C103 1.393 . S
C104 C105 1.399 . S
C105 C104 1.399 . S
C105 C106 1.381 . S
C106 H98 0.930 . S
C106 C102 1.390 . S
C106 C105 1.381 . S
N107 C100 1.286 . S
N107 C103 1.413 . S
H108 C113 0.930 . S
H109 C116 0.930 . S
H110 C118 0.930 . S
H111 C112 1.016 . S
C112 H111 1.016 . S
C112 N119 1.286 . S
C113 H108 0.930 . S
C113 C114 1.397 . S
C113 C115 1.361 . S
C114 C113 1.397 . S
C114 C118 1.390 . S
C115 C113 1.361 . S
C115 C116 1.393 . S
C115 N119 1.413 . S
C116 H109 0.930 . S
C116 C115 1.393 . S
C116 C117 1.399 . S
C117 C116 1.399 . S
C117 C118 1.381 . S
C118 H110 0.930 . S
C118 C114 1.390 . S
C118 C117 1.381 . S
N119 C112 1.286 . S
N119 C115 1.413 . S
H120 C125 0.930 . S
H121 C128 0.930 . S
H122 C130 0.930 . S
H123 C124 1.016 . S
C124 H123 1.016 . S
C124 N131 1.286 . S
C125 H120 0.930 . S
C125 C126 1.397 . S
C125 C127 1.361 . S
C126 C125 1.397 . S
C126 C130 1.390 . S
C127 C125 1.361 . S
C127 C128 1.393 . S
C127 N131 1.413 . S
C128 H121 0.930 . S
C128 C127 1.393 . S
C128 C129 1.399 . S
C129 C128 1.399 . S
C129 C130 1.381 . S
C130 H122 0.930 . S
C130 C126 1.390 . S
C130 C129 1.381 . S
N131 C124 1.286 . S
N131 C127 1.413 . S
H132 C137 0.930 . S
H133 C140 0.930 . S
H134 C142 0.930 . S
H135 C136 1.016 . S
C136 H135 1.016 . S
C136 N143 1.286 . S
C137 H132 0.930 . S
C137 C138 1.397 . S
C137 C139 1.361 . S
C138 C137 1.397 . S
C138 C142 1.390 . S
C139 C137 1.361 . S
C139 C140 1.393 . S
C139 N143 1.413 . S
C140 H133 0.930 . S
C140 C139 1.393 . S
C140 C141 1.399 . S
C141 C140 1.399 . S
C141 C142 1.381 . S
C142 H134 0.930 . S
C142 C138 1.390 . S
C142 C141 1.381 . S
N143 C136 1.286 . S
N143 C139 1.413 . S
H144 C149 0.930 . S
H145 C152 0.930 . S
H146 C154 0.930 . S
H147 C148 1.016 . S
C148 H147 1.016 . S
C148 N155 1.286 . S
C149 H144 0.930 . S
C149 C150 1.397 . S
C149 C151 1.361 . S
C150 C149 1.397 . S
C150 C154 1.390 . S
C151 C149 1.361 . S
C151 C152 1.393 . S
C151 N155 1.413 . S
C152 H145 0.930 . S
C152 C151 1.393 . S
C152 C153 1.399 . S
C153 C152 1.399 . S
C153 C154 1.381 . S
C154 H146 0.930 . S
C154 C150 1.390 . S
C154 C153 1.381 . S
N155 C148 1.286 . S
N155 C151 1.413 . S
H156 C161 0.930 . S
H157 C164 0.930 . S
H158 C166 0.930 . S
H159 C160 1.016 . S
C160 H159 1.016 . S
C160 N167 1.286 . S
C161 H156 0.930 . S
C161 C162 1.397 . S
C161 C163 1.361 . S
C162 C161 1.397 . S
C162 C166 1.390 . S
C163 C161 1.361 . S
C163 C164 1.393 . S
C163 N167 1.413 . S
C164 H157 0.930 . S
C164 C163 1.393 . S
C164 C165 1.399 . S
C165 C164 1.399 . S
C165 C166 1.381 . S
C166 H158 0.930 . S
C166 C162 1.390 . S
C166 C165 1.381 . S
N167 C160 1.286 . S
N167 C163 1.413 . S
H168 C173 0.930 . S
H169 C176 0.930 . S
H170 C178 0.930 . S
H171 C172 1.016 . S
C172 H171 1.016 . S
C172 N179 1.286 . S
C173 H168 0.930 . S
C173 C174 1.397 . S
C173 C175 1.361 . S
C174 C173 1.397 . S
C174 C178 1.390 . S
C175 C173 1.361 . S
C175 C176 1.393 . S
C175 N179 1.413 . S
C176 H169 0.930 . S
C176 C175 1.393 . S
C176 C177 1.399 . S
C177 C176 1.399 . S
C177 C178 1.381 . S
C178 H170 0.930 . S
C178 C174 1.390 . S
C178 C177 1.381 . S
N179 C172 1.286 . S
N179 C175 1.413 . S
H180 C185 0.930 . S
H181 C188 0.930 . S
H182 C190 0.930 . S
H183 C184 1.016 . S
C184 H183 1.016 . S
C184 N191 1.286 . S
C185 H180 0.930 . S
C185 C186 1.397 . S
C185 C187 1.361 . S
C186 C185 1.397 . S
C186 C190 1.390 . S
C187 C185 1.361 . S
C187 C188 1.393 . S
C187 N191 1.413 . S
C188 H181 0.930 . S
C188 C187 1.393 . S
C188 C189 1.399 . S
C189 C188 1.399 . S
C189 C190 1.381 . S
C190 H182 0.930 . S
C190 C186 1.390 . S
C190 C189 1.381 . S
N191 C184 1.286 . S
N191 C187 1.413 . S
H192 C197 0.930 . S
H193 C200 0.930 . S
H194 C202 0.930 . S
H195 C196 1.016 . S
C196 H195 1.016 . S
C196 N203 1.286 . S
C197 H192 0.930 . S
C197 C198 1.397 . S
C197 C199 1.361 . S
C198 C197 1.397 . S
C198 C202 1.390 . S
C199 C197 1.361 . S
C199 C200 1.393 . S
C199 N203 1.413 . S
C200 H193 0.930 . S
C200 C199 1.393 . S
C200 C201 1.399 . S
C201 C200 1.399 . S
C201 C202 1.381 . S
C202 H194 0.930 . S
C202 C198 1.390 . S
C202 C201 1.381 . S
N203 C196 1.286 . S
N203 C199 1.413 . S
H204 C209 0.930 . S
H205 C212 0.930 . S
H206 C214 0.930 . S
H207 C208 1.016 . S
C208 H207 1.016 . S
C208 N215 1.286 . S
C209 H204 0.930 . S
C209 C210 1.397 . S
C209 C211 1.361 . S
C210 C209 1.397 . S
C210 C214 1.390 . S
C211 C209 1.361 . S
C211 C212 1.393 . S
C211 N215 1.413 . S
C212 H205 0.930 . S
C212 C211 1.393 . S
C212 C213 1.399 . S
C213 C212 1.399 . S
C213 C214 1.381 . S
C214 H206 0.930 . S
C214 C210 1.390 . S
C214 C213 1.381 . S
N215 C208 1.286 . S
N215 C211 1.413 . S
Gd216 N247 2.661 . S
Gd216 N253 2.601 . S
Gd216 O260 2.545 . S
Gd216 O261 2.606 1_545 S
Gd216 O263 2.429 . S
Gd216 O264 2.545 1_545 S
Gd216 O265 2.389 1_545 S
Gd216 O267 2.362 . S
Gd216 O268 2.324 1_545 S
Gd216 C275 2.828 . S
Gd217 N226 2.661 . S
Gd217 N230 2.601 . S
Gd217 O261 2.362 1_556 S
Gd217 O262 2.324 1_565 S
Gd217 O266 2.545 . S
Gd217 O267 2.606 1_566 S
Gd217 O269 2.429 1_556 S
Gd217 O270 2.545 1_565 S
Gd217 O271 2.412 1_565 S
Gd217 C284 2.828 1_565 S
C218 C221 1.417 . S
C218 C223 1.431 . S
C218 C224 1.412 . S
C219 C222 1.437 . S
C219 C223 1.317 . S
C219 H238 0.929 . S
C220 C221 1.426 . S
C220 C222 1.413 . S
C220 N230 1.359 . S
C221 C218 1.417 . S
C221 C220 1.426 . S
C221 N226 1.350 . S
C222 C219 1.437 . S
C222 C220 1.413 . S
C222 C232 1.391 . S
C223 C218 1.431 . S
C223 C219 1.317 . S
C223 H234 0.930 . S
C224 C218 1.412 . S
C224 C225 1.355 . S
C224 H236 0.930 . S
C225 C224 1.355 . S
C225 C227 1.402 . S
C225 H237 0.930 . S
N226 Gd217 2.661 . S
N226 C221 1.350 . S
N226 C227 1.307 . S
C227 C225 1.402 . S
C227 N226 1.307 . S
C227 H228 0.932 1_565 S
H228 C227 0.932 1_545 S
C229 N230 1.334 . S
C229 C231 1.394 . S
C229 H233 0.930 . S
N230 Gd217 2.601 . S
N230 C220 1.359 . S
N230 C229 1.334 . S
C231 C229 1.394 . S
C231 C232 1.359 . S
C231 H243 0.930 . S
C232 C222 1.391 . S
C232 C231 1.359 . S
C232 H244 0.929 . S
H233 C229 0.930 . S
H234 C223 0.930 . S
H235 C252 0.930 . S
H236 C224 0.930 . S
H237 C225 0.930 . S
H238 C219 0.929 . S
H239 C257 0.930 . S
H240 C248 0.930 . S
H241 C249 0.930 . S
H242 C273 0.929 . S
H243 C231 0.930 . S
H244 C232 0.929 . S
H245 C274 0.930 . S
H246 C255 0.930 . S
N247 Gd216 2.661 . S
N247 C251 1.350 . S
N247 C252 1.307 . S
C248 H240 0.930 . S
C248 C249 1.355 . S
C248 C250 1.412 . S
C249 H241 0.930 . S
C249 C248 1.355 . S
C249 C252 1.402 . S
C250 C248 1.412 . S
C250 C251 1.417 . S
C250 C274 1.431 . S
C251 N247 1.350 . S
C251 C250 1.417 . S
C251 C254 1.426 . S
C252 H235 0.930 . S
C252 N247 1.307 . S
C252 C249 1.402 . S
N253 Gd216 2.601 . S
N253 C254 1.359 . S
N253 C257 1.334 . S
C254 C251 1.426 . S
C254 N253 1.359 . S
C254 C258 1.413 . S
C255 H246 0.930 . S
C255 C256 1.359 . S
C255 C257 1.394 . S
C256 C255 1.359 . S
C256 C258 1.391 . S
C256 H259 0.929 . S
C257 H239 0.930 . S
C257 N253 1.334 . S
C257 C255 1.394 . S
C258 C254 1.413 . S
C258 C256 1.391 . S
C258 C273 1.437 . S
H259 C256 0.929 . S
O260 Gd216 2.545 . S
O260 C275 1.258 . S
O261 Gd216 2.606 1_565 S
O261 Gd217 2.362 1_554 S
O261 C272 1.284 . S
O262 Gd217 2.324 1_545 S
O262 C282 1.254 1_556 S
O263 Gd216 2.429 . S
O263 C282 1.268 . S
O264 Gd216 2.545 1_565 S
O264 C272 1.250 . S
O265 Gd216 2.389 1_565 S
O265 C275 1.214 1_565 S
O266 Gd217 2.545 . S
O266 C284 1.258 1_565 S
O267 Gd216 2.362 . S
O267 Gd217 2.606 1_544 S
O267 C283 1.284 1_554 S
O268 Gd216 2.324 1_565 S
O268 C291 1.254 . S
O269 Gd217 2.429 1_554 S
O269 C291 1.268 . S
O270 Gd217 2.545 1_545 S
O270 C283 1.250 . S
O271 Gd217 2.412 1_545 S
O271 C284 1.252 . S
C272 O261 1.284 . S
C272 O264 1.250 . S
C273 H242 0.929 . S
C273 C258 1.437 . S
C273 C274 1.317 . S
C274 H245 0.930 . S
C274 C250 1.431 . S
C274 C273 1.317 . S
C275 Gd216 2.828 . S
C275 O260 1.258 . S
C275 O265 1.214 1_545 S
C275 C276 1.497 . S
C276 C275 1.497 . S
C276 C277 1.395 . S
C276 C278 1.380 1_545 S
C277 C276 1.395 . S
C277 C280 1.398 . S
C277 H292 0.930 . S
C278 C276 1.380 1_565 S
C278 C279 1.391 . S
C278 H293 0.930 . S
C279 C278 1.391 . S
C279 C281 1.387 . S
C280 C277 1.398 . S
C280 C281 1.380 1_545 S
C280 H294 0.930 . S
C281 C279 1.387 . S
C281 C280 1.380 1_565 S
C281 H295 0.930 . S
C282 O262 1.254 1_554 S
C282 O263 1.268 . S
C283 O267 1.284 1_556 S
C283 O270 1.250 . S
C284 Gd217 2.828 1_545 S
C284 O266 1.258 1_545 S
C284 O271 1.252 . S
C284 C285 1.497 . S
C285 C284 1.497 . S
C285 C286 1.395 1_545 S
C285 C287 1.380 . S
C286 C285 1.395 1_565 S
C286 C289 1.401 . S
C286 H296 0.930 . S
C287 C285 1.380 . S
C287 C288 1.391 . S
C287 H297 0.930 . S
C288 C287 1.391 . S
C288 C290 1.387 . S
C289 C286 1.401 . S
C289 C290 1.365 1_565 S
C289 H298 0.942 . S
C290 C288 1.387 . S
C290 C289 1.365 1_545 S
C290 H299 0.930 . S
C291 O268 1.254 . S
C291 O269 1.268 . S
H292 C277 0.930 . S
H293 C278 0.930 . S
H294 C280 0.930 . S
H295 C281 0.930 . S
H296 C286 0.930 . S
H297 C287 0.930 . S
H298 C289 0.942 . S
H299 C290 0.930 . S
Gd300 N331 2.661 . S
Gd300 N337 2.601 . S
Gd300 O344 2.545 . S
Gd300 O345 2.606 1_655 S
Gd300 O347 2.429 . S
Gd300 O348 2.545 1_655 S
Gd300 O349 2.412 1_655 S
Gd300 O351 2.362 . S
Gd300 O352 2.324 1_655 S
Gd300 C359 2.828 1_655 S
Gd301 N310 2.661 . S
Gd301 N314 2.601 . S
Gd301 O345 2.362 1_556 S
Gd301 O346 2.324 1_455 S
Gd301 O350 2.545 . S
Gd301 O351 2.606 1_456 S
Gd301 O353 2.429 1_556 S
Gd301 O354 2.545 1_455 S
Gd301 O355 2.412 . S
Gd301 C368 2.828 . S
C302 C305 1.417 . S
C302 C307 1.431 . S
C302 C308 1.412 . S
C303 C306 1.437 . S
C303 C307 1.317 . S
C303 H322 0.929 . S
C304 C305 1.426 . S
C304 C306 1.413 . S
C304 N314 1.359 . S
C305 C302 1.417 . S
C305 C304 1.426 . S
C305 N310 1.350 . S
C306 C303 1.437 . S
C306 C304 1.413 . S
C306 C316 1.391 . S
C307 C302 1.431 . S
C307 C303 1.317 . S
C307 H318 0.930 . S
C308 C302 1.412 . S
C308 C309 1.355 . S
C308 H320 0.930 . S
C309 C308 1.355 . S
C309 C311 1.402 . S
C309 H321 0.930 . S
N310 Gd301 2.661 . S
N310 C305 1.350 . S
N310 C311 1.307 . S
C311 C309 1.402 . S
C311 N310 1.307 . S
C311 H312 0.930 . S
H312 C311 0.930 . S
C313 N314 1.334 . S
C313 C315 1.394 . S
C313 H317 0.930 . S
N314 Gd301 2.601 . S
N314 C304 1.359 . S
N314 C313 1.334 . S
C315 C313 1.394 . S
C315 C316 1.359 . S
C315 H327 0.930 . S
C316 C306 1.391 . S
C316 C315 1.359 . S
C316 H328 0.929 . S
H317 C313 0.930 . S
H318 C307 0.930 . S
H319 C336 0.912 1_455 S
H320 C308 0.930 . S
H321 C309 0.930 . S
H322 C303 0.929 . S
H323 C341 0.930 . S
H324 C332 0.930 . S
H325 C333 0.930 . S
H326 C357 0.929 . S
H327 C315 0.930 . S
H328 C316 0.929 . S
H329 C358 0.930 . S
H330 C339 0.930 . S
N331 Gd300 2.661 . S
N331 C335 1.350 . S
N331 C336 1.307 . S
C332 H324 0.930 . S
C332 C333 1.355 . S
C332 C334 1.412 . S
C333 H325 0.930 . S
C333 C332 1.355 . S
C333 C336 1.402 . S
C334 C332 1.412 . S
C334 C335 1.417 . S
C334 C358 1.431 . S
C335 N331 1.350 . S
C335 C334 1.417 . S
C335 C338 1.426 . S
C336 H319 0.912 1_655 S
C336 N331 1.307 . S
C336 C333 1.402 . S
N337 Gd300 2.601 . S
N337 C338 1.359 . S
N337 C341 1.334 . S
C338 C335 1.426 . S
C338 N337 1.359 . S
C338 C342 1.413 . S
C339 H330 0.930 . S
C339 C340 1.359 . S
C339 C341 1.394 . S
C340 C339 1.359 . S
C340 C342 1.391 . S
C340 H343 0.929 . S
C341 H323 0.930 . S
C341 N337 1.334 . S
C341 C339 1.394 . S
C342 C338 1.413 . S
C342 C340 1.391 . S
C342 C357 1.437 . S
H343 C340 0.929 . S
O344 Gd300 2.545 . S
O344 C359 1.258 1_655 S
O345 Gd300 2.606 1_455 S
O345 Gd301 2.362 1_554 S
O345 C356 1.284 . S
O346 Gd301 2.324 1_655 S
O346 C366 1.254 1_556 S
O347 Gd300 2.429 . S
O347 C366 1.268 . S
O348 Gd300 2.545 1_455 S
O348 C356 1.250 . S
O349 Gd300 2.412 1_455 S
O349 C359 1.252 . S
O350 Gd301 2.545 . S
O350 C368 1.258 . S
O351 Gd300 2.362 . S
O351 Gd301 2.606 1_654 S
O351 C367 1.284 1_554 S
O352 Gd300 2.324 1_455 S
O352 C375 1.254 . S
O353 Gd301 2.429 1_554 S
O353 C375 1.268 . S
O354 Gd301 2.545 1_655 S
O354 C367 1.250 . S
O355 Gd301 2.412 . S
O355 C368 1.252 . S
C356 O345 1.284 . S
C356 O348 1.250 . S
C357 H326 0.929 . S
C357 C342 1.437 . S
C357 C358 1.317 . S
C358 H329 0.930 . S
C358 C334 1.431 . S
C358 C357 1.317 . S
C359 Gd300 2.828 1_455 S
C359 O344 1.258 1_455 S
C359 O349 1.252 . S
C359 C360 1.497 . S
C360 C359 1.497 . S
C360 C361 1.395 1_455 S
C360 C362 1.380 . S
C361 C360 1.395 1_655 S
C361 C364 1.398 . S
C361 H376 0.930 . S
C362 C360 1.380 . S
C362 C363 1.391 . S
C362 H377 0.930 . S
C363 C362 1.391 . S
C363 C365 1.387 . S
C364 C361 1.398 . S
C364 C365 1.380 1_655 S
C364 H378 0.930 . S
C365 C363 1.387 . S
C365 C364 1.380 1_455 S
C365 H379 0.930 . S
C366 O346 1.254 1_554 S
C366 O347 1.268 . S
C367 O351 1.284 1_556 S
C367 O354 1.250 . S
C368 Gd301 2.828 . S
C368 O350 1.258 . S
C368 O355 1.252 . S
C368 C369 1.497 . S
C369 C368 1.497 . S
C369 C370 1.395 . S
C369 C371 1.380 1_455 S
C370 C369 1.395 . S
C370 C373 1.398 . S
C370 H380 0.930 . S
C371 C369 1.380 1_655 S
C371 C372 1.391 . S
C371 H381 0.930 . S
C372 C371 1.391 . S
C372 C374 1.387 . S
C373 C370 1.398 . S
C373 C374 1.380 1_455 S
C373 H382 0.930 . S
C374 C372 1.387 . S
C374 C373 1.380 1_655 S
C374 H383 0.930 . S
C375 O352 1.254 . S
C375 O353 1.268 . S
H376 C361 0.930 . S
H377 C362 0.930 . S
H378 C364 0.930 . S
H379 C365 0.930 . S
H380 C370 0.930 . S
H381 C371 0.930 . S
H382 C373 0.930 . S
H383 C374 0.930 . S
Gd384 N415 2.661 . S
Gd384 N421 2.601 . S
Gd384 O428 2.545 . S
Gd384 O429 2.606 1_556 S
Gd384 O431 2.429 1_556 S
Gd384 O432 2.545 . S
Gd384 O433 2.412 . S
Gd384 O435 2.362 1_556 S
Gd384 O436 2.324 . S
Gd384 C443 2.828 . S
Gd385 N394 2.661 . S
Gd385 N398 2.601 . S
Gd385 O429 2.362 . S
Gd385 O430 2.324 . S
Gd385 O434 2.545 . S
Gd385 O435 2.606 . S
Gd385 O437 2.429 . S
Gd385 O438 2.545 . S
Gd385 O439 2.412 . S
Gd385 C452 2.828 . S
C386 C389 1.417 . S
C386 C391 1.431 . S
C386 C392 1.412 . S
C387 C390 1.437 . S
C387 C391 1.317 . S
C387 H406 0.929 . S
C388 C389 1.426 . S
C388 C390 1.413 . S
C388 N398 1.359 . S
C389 C386 1.417 . S
C389 C388 1.426 . S
C389 N394 1.350 . S
C390 C387 1.437 . S
C390 C388 1.413 . S
C390 C400 1.391 . S
C391 C386 1.431 . S
C391 C387 1.317 . S
C391 H402 0.930 . S
C392 C386 1.412 . S
C392 C393 1.355 . S
C392 H404 0.930 . S
C393 C392 1.355 . S
C393 C395 1.402 . S
C393 H405 0.930 . S
N394 Gd385 2.661 . S
N394 C389 1.350 . S
N394 C395 1.307 . S
C395 C393 1.402 . S
C395 N394 1.307 . S
C395 H396 0.930 . S
H396 C395 0.930 . S
C397 N398 1.334 . S
C397 C399 1.394 . S
C397 H401 0.930 . S
N398 Gd385 2.601 . S
N398 C388 1.359 . S
N398 C397 1.334 . S
C399 C397 1.394 . S
C399 C400 1.359 . S
C399 H411 0.930 . S
C400 C390 1.391 . S
C400 C399 1.359 . S
C400 H412 0.929 . S
H401 C397 0.930 . S
H402 C391 0.930 . S
H403 C420 0.930 . S
H404 C392 0.930 . S
H405 C393 0.930 . S
H406 C387 0.929 . S
H407 C425 0.930 . S
H408 C416 0.930 . S
H409 C417 0.930 . S
H410 C441 0.929 . S
H411 C399 0.930 . S
H412 C400 0.929 . S
H413 C442 0.930 . S
H414 C423 0.930 . S
N415 Gd384 2.661 . S
N415 C419 1.350 . S
N415 C420 1.307 . S
C416 H408 0.930 . S
C416 C417 1.355 . S
C416 C418 1.412 . S
C417 H409 0.930 . S
C417 C416 1.355 . S
C417 C420 1.402 . S
C418 C416 1.412 . S
C418 C419 1.417 . S
C418 C442 1.431 . S
C419 N415 1.350 . S
C419 C418 1.417 . S
C419 C422 1.426 . S
C420 H403 0.930 . S
C420 N415 1.307 . S
C420 C417 1.402 . S
N421 Gd384 2.601 . S
N421 C422 1.359 . S
N421 C425 1.334 . S
C422 C419 1.426 . S
C422 N421 1.359 . S
C422 C426 1.413 . S
C423 H414 0.930 . S
C423 C424 1.359 . S
C423 C425 1.394 . S
C424 C423 1.359 . S
C424 C426 1.391 . S
C424 H427 0.929 . S
C425 H407 0.930 . S
C425 N421 1.334 . S
C425 C423 1.394 . S
C426 C422 1.413 . S
C426 C424 1.391 . S
C426 C441 1.437 . S
H427 C424 0.929 . S
O428 Gd384 2.545 . S
O428 C443 1.258 . S
O429 Gd384 2.606 1_554 S
O429 Gd385 2.362 . S
O429 C440 1.284 1_554 S
O430 Gd385 2.324 . S
O430 C450 1.254 . S
O431 Gd384 2.429 1_554 S
O431 C450 1.268 . S
O432 Gd384 2.545 . S
O432 C440 1.250 . S
O433 Gd384 2.412 . S
O433 C443 1.252 . S
O434 Gd385 2.545 . S
O434 C452 1.258 . S
O435 Gd384 2.362 1_554 S
O435 Gd385 2.606 . S
O435 C451 1.284 . S
O436 Gd384 2.324 . S
O436 C459 1.254 1_556 S
O437 Gd385 2.429 . S
O437 C459 1.268 . S
O438 Gd385 2.545 . S
O438 C451 1.250 . S
O439 Gd385 2.412 . S
O439 C452 1.252 . S
C440 O429 1.284 1_556 S
C440 O432 1.250 . S
C441 H410 0.929 . S
C441 C426 1.437 . S
C441 C442 1.317 . S
C442 H413 0.930 . S
C442 C418 1.431 . S
C442 C441 1.317 . S
C443 Gd384 2.828 . S
C443 O428 1.258 . S
C443 O433 1.252 . S
C443 C444 1.497 . S
C444 C443 1.497 . S
C444 C445 1.395 . S
C444 C446 1.380 . S
C445 C444 1.395 . S
C445 C448 1.398 . S
C445 H460 0.930 . S
C446 C444 1.380 . S
C446 C447 1.391 . S
C446 H461 0.930 . S
C447 C446 1.391 . S
C447 C449 1.387 . S
C448 C445 1.398 . S
C448 C449 1.380 . S
C448 H462 0.930 . S
C449 C447 1.387 . S
C449 C448 1.380 . S
C449 H463 0.930 . S
C450 O430 1.254 . S
C450 O431 1.268 . S
C451 O435 1.284 . S
C451 O438 1.250 . S
C452 Gd385 2.828 . S
C452 O434 1.258 . S
C452 O439 1.252 . S
C452 C453 1.497 . S
C453 C452 1.497 . S
C453 C454 1.395 . S
C453 C455 1.380 . S
C454 C453 1.395 . S
C454 C457 1.398 . S
C454 H464 0.930 . S
C455 C453 1.380 . S
C455 C456 1.391 . S
C455 H465 0.930 . S
C456 C455 1.391 . S
C456 C458 1.387 . S
C457 C454 1.398 . S
C457 C458 1.380 . S
C457 H466 0.930 . S
C458 C456 1.387 . S
C458 C457 1.380 . S
C458 H467 0.930 . S
C459 O436 1.254 1_554 S
C459 O437 1.268 . S
H460 C445 0.930 . S
H461 C446 0.930 . S
H462 C448 0.930 . S
H463 C449 0.930 . S
H464 C454 0.930 . S
H465 C455 0.930 . S
H466 C457 0.930 . S
H467 C458 0.930 . S
Gd468 N499 2.661 . S
Gd468 N505 2.601 . S
Gd468 O512 2.545 . S
Gd468 O513 2.606 . S
Gd468 O515 2.429 . S
Gd468 O516 2.545 . S
Gd468 O517 2.412 . S
Gd468 O519 2.362 . S
Gd468 O520 2.324 . S
Gd468 C527 2.828 . S
Gd469 N478 2.661 . S
Gd469 N482 2.601 . S
Gd469 O513 2.362 . S
Gd469 O514 2.324 . S
Gd469 O518 2.545 . S
Gd469 O519 2.606 . S
Gd469 O521 2.429 . S
Gd469 O522 2.545 . S
Gd469 O523 2.412 . S
Gd469 C536 2.828 . S
C470 C473 1.417 . S
C470 C475 1.431 . S
C470 C476 1.412 . S
C471 C474 1.437 . S
C471 C475 1.317 . S
C471 H490 0.929 . S
C472 C473 1.426 . S
C472 C474 1.413 . S
C472 N482 1.359 . S
C473 C470 1.417 . S
C473 C472 1.426 . S
C473 N478 1.350 . S
C474 C471 1.437 . S
C474 C472 1.413 . S
C474 C484 1.391 . S
C475 C470 1.431 . S
C475 C471 1.317 . S
C475 H486 0.930 . S
C476 C470 1.412 . S
C476 C477 1.355 . S
C476 H488 0.930 . S
C477 C476 1.355 . S
C477 C479 1.402 . S
C477 H489 0.930 . S
N478 Gd469 2.661 . S
N478 C473 1.350 . S
N478 C479 1.307 . S
C479 C477 1.402 . S
C479 N478 1.307 . S
C479 H480 0.930 . S
H480 C479 0.930 . S
C481 N482 1.334 . S
C481 C483 1.394 . S
C481 H485 0.930 . S
N482 Gd469 2.601 . S
N482 C472 1.359 . S
N482 C481 1.334 . S
C483 C481 1.394 . S
C483 C484 1.359 . S
C483 H495 0.930 . S
C484 C474 1.391 . S
C484 C483 1.359 . S
C484 H496 0.929 . S
H485 C481 0.930 . S
H486 C475 0.930 . S
H487 C504 0.930 . S
H488 C476 0.930 . S
H489 C477 0.930 . S
H490 C471 0.929 . S
H491 C509 0.930 . S
H492 C500 0.930 . S
H493 C501 0.930 . S
H494 C525 0.929 . S
H495 C483 0.930 . S
H496 C484 0.929 . S
H497 C526 0.930 . S
H498 C507 0.930 . S
N499 Gd468 2.661 . S
N499 C503 1.350 . S
N499 C504 1.307 . S
C500 H492 0.930 . S
C500 C501 1.355 . S
C500 C502 1.412 . S
C501 H493 0.930 . S
C501 C500 1.355 . S
C501 C504 1.402 . S
C502 C500 1.412 . S
C502 C503 1.417 . S
C502 C526 1.431 . S
C503 N499 1.350 . S
C503 C502 1.417 . S
C503 C506 1.426 . S
C504 H487 0.930 . S
C504 N499 1.307 . S
C504 C501 1.402 . S
N505 Gd468 2.601 . S
N505 C506 1.359 . S
N505 C509 1.334 . S
C506 C503 1.426 . S
C506 N505 1.359 . S
C506 C510 1.413 . S
C507 H498 0.930 . S
C507 C508 1.359 . S
C507 C509 1.394 . S
C508 C507 1.359 . S
C508 C510 1.391 . S
C508 H511 0.929 . S
C509 H491 0.930 . S
C509 N505 1.334 . S
C509 C507 1.394 . S
C510 C506 1.413 . S
C510 C508 1.391 . S
C510 C525 1.437 . S
H511 C508 0.929 . S
O512 Gd468 2.545 . S
O512 C527 1.258 . S
O513 Gd468 2.606 . S
O513 Gd469 2.362 . S
O513 C524 1.284 . S
O514 Gd469 2.324 . S
O514 C534 1.254 . S
O515 Gd468 2.429 . S
O515 C534 1.268 . S
O516 Gd468 2.545 . S
O516 C524 1.250 . S
O517 Gd468 2.412 . S
O517 C527 1.252 . S
O518 Gd469 2.545 . S
O518 C536 1.258 . S
O519 Gd468 2.362 . S
O519 Gd469 2.606 . S
O519 C535 1.284 . S
O520 Gd468 2.324 . S
O520 C543 1.254 . S
O521 Gd469 2.429 . S
O521 C543 1.268 . S
O522 Gd469 2.545 . S
O522 C535 1.250 . S
O523 Gd469 2.412 . S
O523 C536 1.252 . S
C524 O513 1.284 . S
C524 O516 1.250 . S
C525 H494 0.929 . S
C525 C510 1.437 . S
C525 C526 1.317 . S
C526 H497 0.930 . S
C526 C502 1.431 . S
C526 C525 1.317 . S
C527 Gd468 2.828 . S
C527 O512 1.258 . S
C527 O517 1.252 . S
C527 C528 1.497 . S
C528 C527 1.497 . S
C528 C529 1.395 . S
C528 C530 1.380 . S
C529 C528 1.395 . S
C529 C532 1.398 . S
C529 H544 0.930 . S
C530 C528 1.380 . S
C530 C531 1.391 . S
C530 H545 0.930 . S
C531 C530 1.391 . S
C531 C533 1.387 . S
C532 C529 1.398 . S
C532 C533 1.380 . S
C532 H546 0.930 . S
C533 C531 1.387 . S
C533 C532 1.380 . S
C533 H547 0.930 . S
C534 O514 1.254 . S
C534 O515 1.268 . S
C535 O519 1.284 . S
C535 O522 1.250 . S
C536 Gd469 2.828 . S
C536 O518 1.258 . S
C536 O523 1.252 . S
C536 C537 1.497 . S
C537 C536 1.497 . S
C537 C538 1.395 . S
C537 C539 1.380 . S
C538 C537 1.395 . S
C538 C541 1.398 . S
C538 H548 0.930 . S
C539 C537 1.380 . S
C539 C540 1.391 . S
C539 H549 0.930 . S
C540 C539 1.391 . S
C540 C542 1.387 . S
C541 C538 1.398 . S
C541 C542 1.380 . S
C541 H550 0.930 . S
C542 C540 1.387 . S
C542 C541 1.380 . S
C542 H551 0.930 . S
C543 O520 1.254 . S
C543 O521 1.268 . S
H544 C529 0.930 . S
H545 C530 0.930 . S
H546 C532 0.930 . S
H547 C533 0.930 . S
H548 C538 0.930 . S
H549 C539 0.930 . S
H550 C541 0.930 . S
H551 C542 0.930 . S
Gd552 N583 2.661 . S
Gd552 N589 2.601 . S
Gd552 O596 2.545 . S
Gd552 O597 2.606 . S
Gd552 O599 2.429 . S
Gd552 O600 2.545 . S
Gd552 O601 2.412 . S
Gd552 O603 2.362 . S
Gd552 O604 2.324 . S
Gd552 C611 2.828 . S
Gd553 N562 2.661 . S
Gd553 N566 2.601 . S
Gd553 O597 2.362 . S
Gd553 O598 2.324 . S
Gd553 O602 2.545 . S
Gd553 O603 2.606 . S
Gd553 O605 2.429 . S
Gd553 O606 2.545 . S
Gd553 O607 2.412 . S
Gd553 C620 2.828 . S
C554 C557 1.417 . S
C554 C559 1.431 . S
C554 C560 1.412 . S
C555 C558 1.437 . S
C555 C559 1.317 . S
C555 H574 0.929 . S
C556 C557 1.426 . S
C556 C558 1.413 . S
C556 N566 1.359 . S
C557 C554 1.417 . S
C557 C556 1.426 . S
C557 N562 1.350 . S
C558 C555 1.437 . S
C558 C556 1.413 . S
C558 C568 1.391 . S
C559 C554 1.431 . S
C559 C555 1.317 . S
C559 H570 0.930 . S
C560 C554 1.412 . S
C560 C561 1.355 . S
C560 H572 0.930 . S
C561 C560 1.355 . S
C561 C563 1.402 . S
C561 H573 0.930 . S
N562 Gd553 2.661 . S
N562 C557 1.350 . S
N562 C563 1.307 . S
C563 C561 1.402 . S
C563 N562 1.307 . S
C563 H564 0.930 . S
H564 C563 0.930 . S
C565 N566 1.334 . S
C565 C567 1.394 . S
C565 H569 0.930 . S
N566 Gd553 2.601 . S
N566 C556 1.359 . S
N566 C565 1.334 . S
C567 C565 1.394 . S
C567 C568 1.359 . S
C567 H579 0.930 . S
C568 C558 1.391 . S
C568 C567 1.359 . S
C568 H580 0.929 . S
H569 C565 0.930 . S
H570 C559 0.930 . S
H571 C588 0.930 . S
H572 C560 0.930 . S
H573 C561 0.930 . S
H574 C555 0.929 . S
H575 C593 0.930 . S
H576 C584 0.930 . S
H577 C585 0.930 . S
H578 C609 0.929 . S
H579 C567 0.930 . S
H580 C568 0.929 . S
H581 C610 0.930 . S
H582 C591 0.930 . S
N583 Gd552 2.661 . S
N583 C587 1.350 . S
N583 C588 1.307 . S
C584 H576 0.930 . S
C584 C585 1.355 . S
C584 C586 1.412 . S
C585 H577 0.930 . S
C585 C584 1.355 . S
C585 C588 1.402 . S
C586 C584 1.412 . S
C586 C587 1.417 . S
C586 C610 1.431 . S
C587 N583 1.350 . S
C587 C586 1.417 . S
C587 C590 1.426 . S
C588 H571 0.930 . S
C588 N583 1.307 . S
C588 C585 1.402 . S
N589 Gd552 2.601 . S
N589 C590 1.359 . S
N589 C593 1.334 . S
C590 C587 1.426 . S
C590 N589 1.359 . S
C590 C594 1.413 . S
C591 H582 0.930 . S
C591 C592 1.359 . S
C591 C593 1.394 . S
C592 C591 1.359 . S
C592 C594 1.391 . S
C592 H595 0.929 . S
C593 H575 0.930 . S
C593 N589 1.334 . S
C593 C591 1.394 . S
C594 C590 1.413 . S
C594 C592 1.391 . S
C594 C609 1.437 . S
H595 C592 0.929 . S
O596 Gd552 2.545 . S
O596 C611 1.258 . S
O597 Gd552 2.606 . S
O597 Gd553 2.362 . S
O597 C608 1.284 . S
O598 Gd553 2.324 . S
O598 C618 1.254 . S
O599 Gd552 2.429 . S
O599 C618 1.268 . S
O600 Gd552 2.545 . S
O600 C608 1.250 . S
O601 Gd552 2.412 . S
O601 C611 1.252 . S
O602 Gd553 2.545 . S
O602 C620 1.258 . S
O603 Gd552 2.362 . S
O603 Gd553 2.606 . S
O603 C619 1.284 . S
O604 Gd552 2.324 . S
O604 C627 1.254 . S
O605 Gd553 2.429 . S
O605 C627 1.268 . S
O606 Gd553 2.545 . S
O606 C619 1.250 . S
O607 Gd553 2.412 . S
O607 C620 1.252 . S
C608 O597 1.284 . S
C608 O600 1.250 . S
C609 H578 0.929 . S
C609 C594 1.437 . S
C609 C610 1.317 . S
C610 H581 0.930 . S
C610 C586 1.431 . S
C610 C609 1.317 . S
C611 Gd552 2.828 . S
C611 O596 1.258 . S
C611 O601 1.252 . S
C611 C612 1.497 . S
C612 C611 1.497 . S
C612 C613 1.395 . S
C612 C614 1.380 . S
C613 C612 1.395 . S
C613 C616 1.398 . S
C613 H628 0.930 . S
C614 C612 1.380 . S
C614 C615 1.391 . S
C614 H629 0.930 . S
C615 C614 1.391 . S
C615 C617 1.387 . S
C616 C613 1.398 . S
C616 C617 1.380 . S
C616 H630 0.930 . S
C617 C615 1.387 . S
C617 C616 1.380 . S
C617 H631 0.930 . S
C618 O598 1.254 . S
C618 O599 1.268 . S
C619 O603 1.284 . S
C619 O606 1.250 . S
C620 Gd553 2.828 . S
C620 O602 1.258 . S
C620 O607 1.252 . S
C620 C621 1.497 . S
C621 C620 1.497 . S
C621 C622 1.395 . S
C621 C623 1.380 . S
C622 C621 1.395 . S
C622 C625 1.398 . S
C622 H632 0.930 . S
C623 C621 1.380 . S
C623 C624 1.391 . S
C623 H633 0.930 . S
C624 C623 1.391 . S
C624 C626 1.387 . S
C625 C622 1.398 . S
C625 C626 1.380 . S
C625 H634 0.930 . S
C626 C624 1.387 . S
C626 C625 1.380 . S
C626 H635 0.930 . S
C627 O604 1.254 . S
C627 O605 1.268 . S
H628 C613 0.930 . S
H629 C614 0.930 . S
H630 C616 0.930 . S
H631 C617 0.930 . S
H632 C622 0.930 . S
H633 C623 0.930 . S
H634 C625 0.930 . S
H635 C626 0.930 . S
Gd636 N667 2.661 . S
Gd636 N673 2.601 . S
Gd636 O680 2.545 . S
Gd636 O681 2.606 . S
Gd636 O683 2.429 . S
Gd636 O684 2.545 . S
Gd636 O685 2.412 . S
Gd636 O687 2.362 . S
Gd636 O688 2.324 . S
Gd636 C695 2.828 . S
Gd637 N646 2.661 . S
Gd637 N650 2.601 . S
Gd637 O681 2.362 . S
Gd637 O682 2.324 . S
Gd637 O686 2.545 . S
Gd637 O687 2.606 . S
Gd637 O689 2.429 . S
Gd637 O690 2.545 . S
Gd637 O691 2.412 . S
Gd637 C704 2.828 . S
C638 C641 1.417 . S
C638 C643 1.431 . S
C638 C644 1.412 . S
C639 C642 1.437 . S
C639 C643 1.317 . S
C639 H658 0.929 . S
C640 C641 1.426 . S
C640 C642 1.413 . S
C640 N650 1.359 . S
C641 C638 1.417 . S
C641 C640 1.426 . S
C641 N646 1.350 . S
C642 C639 1.437 . S
C642 C640 1.413 . S
C642 C652 1.391 . S
C643 C638 1.431 . S
C643 C639 1.317 . S
C643 H654 0.930 . S
C644 C638 1.412 . S
C644 C645 1.355 . S
C644 H656 0.930 . S
C645 C644 1.355 . S
C645 C647 1.402 . S
C645 H657 0.930 . S
N646 Gd637 2.661 . S
N646 C641 1.350 . S
N646 C647 1.307 . S
C647 C645 1.402 . S
C647 N646 1.307 . S
C647 H648 0.930 . S
H648 C647 0.930 . S
C649 N650 1.334 . S
C649 C651 1.394 . S
C649 H653 0.930 . S
N650 Gd637 2.601 . S
N650 C640 1.359 . S
N650 C649 1.334 . S
C651 C649 1.394 . S
C651 C652 1.359 . S
C651 H663 0.930 . S
C652 C642 1.391 . S
C652 C651 1.359 . S
C652 H664 0.929 . S
H653 C649 0.930 . S
H654 C643 0.930 . S
H655 C672 0.930 . S
H656 C644 0.930 . S
H657 C645 0.930 . S
H658 C639 0.929 . S
H659 C677 0.930 . S
H660 C668 0.930 . S
H661 C669 0.930 . S
H662 C693 0.929 . S
H663 C651 0.930 . S
H664 C652 0.929 . S
H665 C694 0.930 . S
H666 C675 0.930 . S
N667 Gd636 2.661 . S
N667 C671 1.350 . S
N667 C672 1.307 . S
C668 H660 0.930 . S
C668 C669 1.355 . S
C668 C670 1.412 . S
C669 H661 0.930 . S
C669 C668 1.355 . S
C669 C672 1.402 . S
C670 C668 1.412 . S
C670 C671 1.417 . S
C670 C694 1.431 . S
C671 N667 1.350 . S
C671 C670 1.417 . S
C671 C674 1.426 . S
C672 H655 0.930 . S
C672 N667 1.307 . S
C672 C669 1.402 . S
N673 Gd636 2.601 . S
N673 C674 1.359 . S
N673 C677 1.334 . S
C674 C671 1.426 . S
C674 N673 1.359 . S
C674 C678 1.413 . S
C675 H666 0.930 . S
C675 C676 1.359 . S
C675 C677 1.394 . S
C676 C675 1.359 . S
C676 C678 1.391 . S
C676 H679 0.929 . S
C677 H659 0.930 . S
C677 N673 1.334 . S
C677 C675 1.394 . S
C678 C674 1.413 . S
C678 C676 1.391 . S
C678 C693 1.437 . S
H679 C676 0.929 . S
O680 Gd636 2.545 . S
O680 C695 1.258 . S
O681 Gd636 2.606 . S
O681 Gd637 2.362 . S
O681 C692 1.284 . S
O682 Gd637 2.324 . S
O682 C702 1.254 . S
O683 Gd636 2.429 . S
O683 C702 1.268 . S
O684 Gd636 2.545 . S
O684 C692 1.250 . S
O685 Gd636 2.412 . S
O685 C695 1.252 . S
O686 Gd637 2.545 . S
O686 C704 1.258 . S
O687 Gd636 2.362 . S
O687 Gd637 2.606 . S
O687 C703 1.284 . S
O688 Gd636 2.324 . S
O688 C711 1.254 . S
O689 Gd637 2.429 . S
O689 C711 1.268 . S
O690 Gd637 2.545 . S
O690 C703 1.250 . S
O691 Gd637 2.412 . S
O691 C704 1.252 . S
C692 O681 1.284 . S
C692 O684 1.250 . S
C693 H662 0.929 . S
C693 C678 1.437 . S
C693 C694 1.317 . S
C694 H665 0.930 . S
C694 C670 1.431 . S
C694 C693 1.317 . S
C695 Gd636 2.828 . S
C695 O680 1.258 . S
C695 O685 1.252 . S
C695 C696 1.497 . S
C696 C695 1.497 . S
C696 C697 1.395 . S
C696 C698 1.380 . S
C697 C696 1.395 . S
C697 C700 1.398 . S
C697 H712 0.930 . S
C698 C696 1.380 . S
C698 C699 1.391 . S
C698 H713 0.930 . S
C699 C698 1.391 . S
C699 C701 1.387 . S
C700 C697 1.398 . S
C700 C701 1.380 . S
C700 H714 0.930 . S
C701 C699 1.387 . S
C701 C700 1.380 . S
C701 H715 0.930 . S
C702 O682 1.254 . S
C702 O683 1.268 . S
C703 O687 1.284 . S
C703 O690 1.250 . S
C704 Gd637 2.828 . S
C704 O686 1.258 . S
C704 O691 1.252 . S
C704 C705 1.497 . S
C705 C704 1.497 . S
C705 C706 1.395 . S
C705 C707 1.380 . S
C706 C705 1.395 . S
C706 C709 1.398 . S
C706 H716 0.930 . S
C707 C705 1.380 . S
C707 C708 1.391 . S
C707 H717 0.930 . S
C708 C707 1.391 . S
C708 C710 1.387 . S
C709 C706 1.398 . S
C709 C710 1.380 . S
C709 H718 0.930 . S
C710 C708 1.387 . S
C710 C709 1.380 . S
C710 H719 0.930 . S
C711 O688 1.254 . S
C711 O689 1.268 . S
H712 C697 0.930 . S
H713 C698 0.930 . S
H714 C700 0.930 . S
H715 C701 0.930 . S
H716 C706 0.930 . S
H717 C707 0.930 . S
H718 C709 0.930 . S
H719 C710 0.930 . S
Gd720 N751 2.661 . S
Gd720 N757 2.601 . S
Gd720 O764 2.545 . S
Gd720 O765 2.606 . S
Gd720 O767 2.429 . S
Gd720 O768 2.545 . S
Gd720 O769 2.412 . S
Gd720 O771 2.362 . S
Gd720 O772 2.324 . S
Gd720 C779 2.828 . S
Gd721 N730 2.661 . S
Gd721 N734 2.601 . S
Gd721 O765 2.362 . S
Gd721 O766 2.324 . S
Gd721 O770 2.545 . S
Gd721 O771 2.606 . S
Gd721 O773 2.429 . S
Gd721 O774 2.545 . S
Gd721 O775 2.412 . S
Gd721 C788 2.828 . S
C722 C725 1.417 . S
C722 C727 1.431 . S
C722 C728 1.412 . S
C723 C726 1.437 . S
C723 C727 1.317 . S
C723 H742 0.929 . S
C724 C725 1.426 . S
C724 C726 1.413 . S
C724 N734 1.359 . S
C725 C722 1.417 . S
C725 C724 1.426 . S
C725 N730 1.350 . S
C726 C723 1.437 . S
C726 C724 1.413 . S
C726 C736 1.391 . S
C727 C722 1.431 . S
C727 C723 1.317 . S
C727 H738 0.930 . S
C728 C722 1.412 . S
C728 C729 1.355 . S
C728 H740 0.930 . S
C729 C728 1.355 . S
C729 C731 1.402 . S
C729 H741 0.930 . S
N730 Gd721 2.661 . S
N730 C725 1.350 . S
N730 C731 1.307 . S
C731 C729 1.402 . S
C731 N730 1.307 . S
C731 H732 0.930 . S
H732 C731 0.930 . S
C733 N734 1.334 . S
C733 C735 1.394 . S
C733 H737 0.930 . S
N734 Gd721 2.601 . S
N734 C724 1.359 . S
N734 C733 1.334 . S
C735 C733 1.394 . S
C735 C736 1.359 . S
C735 H747 0.930 . S
C736 C726 1.391 . S
C736 C735 1.359 . S
C736 H748 0.929 . S
H737 C733 0.930 . S
H738 C727 0.930 . S
H739 C756 0.930 . S
H740 C728 0.930 . S
H741 C729 0.930 . S
H742 C723 0.929 . S
H743 C761 0.930 . S
H744 C752 0.930 . S
H745 C753 0.930 . S
H746 C777 0.929 . S
H747 C735 0.930 . S
H748 C736 0.929 . S
H749 C778 0.930 . S
H750 C759 0.930 . S
N751 Gd720 2.661 . S
N751 C755 1.350 . S
N751 C756 1.307 . S
C752 H744 0.930 . S
C752 C753 1.355 . S
C752 C754 1.412 . S
C753 H745 0.930 . S
C753 C752 1.355 . S
C753 C756 1.402 . S
C754 C752 1.412 . S
C754 C755 1.417 . S
C754 C778 1.431 . S
C755 N751 1.350 . S
C755 C754 1.417 . S
C755 C758 1.426 . S
C756 H739 0.930 . S
C756 N751 1.307 . S
C756 C753 1.402 . S
N757 Gd720 2.601 . S
N757 C758 1.359 . S
N757 C761 1.334 . S
C758 C755 1.426 . S
C758 N757 1.359 . S
C758 C762 1.413 . S
C759 H750 0.930 . S
C759 C760 1.359 . S
C759 C761 1.394 . S
C760 C759 1.359 . S
C760 C762 1.391 . S
C760 H763 0.929 . S
C761 H743 0.930 . S
C761 N757 1.334 . S
C761 C759 1.394 . S
C762 C758 1.413 . S
C762 C760 1.391 . S
C762 C777 1.437 . S
H763 C760 0.929 . S
O764 Gd720 2.545 . S
O764 C779 1.258 . S
O765 Gd720 2.606 . S
O765 Gd721 2.362 . S
O765 C776 1.284 . S
O766 Gd721 2.324 . S
O766 C786 1.254 . S
O767 Gd720 2.429 . S
O767 C786 1.268 . S
O768 Gd720 2.545 . S
O768 C776 1.250 . S
O769 Gd720 2.412 . S
O769 C779 1.252 . S
O770 Gd721 2.545 . S
O770 C788 1.258 . S
O771 Gd720 2.362 . S
O771 Gd721 2.606 . S
O771 C787 1.284 . S
O772 Gd720 2.324 . S
O772 C795 1.254 . S
O773 Gd721 2.429 . S
O773 C795 1.268 . S
O774 Gd721 2.545 . S
O774 C787 1.250 . S
O775 Gd721 2.412 . S
O775 C788 1.252 . S
C776 O765 1.284 . S
C776 O768 1.250 . S
C777 H746 0.929 . S
C777 C762 1.437 . S
C777 C778 1.317 . S
C778 H749 0.930 . S
C778 C754 1.431 . S
C778 C777 1.317 . S
C779 Gd720 2.828 . S
C779 O764 1.258 . S
C779 O769 1.252 . S
C779 C780 1.497 . S
C780 C779 1.497 . S
C780 C781 1.395 . S
C780 C782 1.380 . S
C781 C780 1.395 . S
C781 C784 1.398 . S
C781 H796 0.930 . S
C782 C780 1.380 . S
C782 C783 1.391 . S
C782 H797 0.930 . S
C783 C782 1.391 . S
C783 C785 1.387 . S
C784 C781 1.398 . S
C784 C785 1.380 . S
C784 H798 0.930 . S
C785 C783 1.387 . S
C785 C784 1.380 . S
C785 H799 0.930 . S
C786 O766 1.254 . S
C786 O767 1.268 . S
C787 O771 1.284 . S
C787 O774 1.250 . S
C788 Gd721 2.828 . S
C788 O770 1.258 . S
C788 O775 1.252 . S
C788 C789 1.497 . S
C789 C788 1.497 . S
C789 C790 1.395 . S
C789 C791 1.380 . S
C790 C789 1.395 . S
C790 C793 1.398 . S
C790 H800 0.930 . S
C791 C789 1.380 . S
C791 C792 1.391 . S
C791 H801 0.930 . S
C792 C791 1.391 . S
C792 C794 1.387 . S
C793 C790 1.398 . S
C793 C794 1.380 . S
C793 H802 0.930 . S
C794 C792 1.387 . S
C794 C793 1.380 . S
C794 H803 0.930 . S
C795 O772 1.254 . S
C795 O773 1.268 . S
H796 C781 0.930 . S
H797 C782 0.930 . S
H798 C784 0.930 . S
H799 C785 0.930 . S
H800 C790 0.930 . S
H801 C791 0.930 . S
H802 C793 0.930 . S
H803 C794 0.930 . S
Gd804 N835 2.661 . S
Gd804 N841 2.601 . S
Gd804 O848 2.545 . S
Gd804 O849 2.606 . S
Gd804 O851 2.429 . S
Gd804 O852 2.545 . S
Gd804 O853 2.412 . S
Gd804 O855 2.362 . S
Gd804 O856 2.324 . S
Gd804 C863 2.828 . S
Gd805 N814 2.661 . S
Gd805 N818 2.601 . S
Gd805 O849 2.362 . S
Gd805 O850 2.324 . S
Gd805 O854 2.545 . S
Gd805 O855 2.606 . S
Gd805 O857 2.429 . S
Gd805 O858 2.545 . S
Gd805 O859 2.412 . S
Gd805 C872 2.828 . S
C806 C809 1.417 . S
C806 C811 1.431 . S
C806 C812 1.412 . S
C807 C810 1.437 . S
C807 C811 1.317 . S
C807 H826 0.929 . S
C808 C809 1.426 . S
C808 C810 1.413 . S
C808 N818 1.359 . S
C809 C806 1.417 . S
C809 C808 1.426 . S
C809 N814 1.350 . S
C810 C807 1.437 . S
C810 C808 1.413 . S
C810 C820 1.391 . S
C811 C806 1.431 . S
C811 C807 1.317 . S
C811 H822 0.930 . S
C812 C806 1.412 . S
C812 C813 1.355 . S
C812 H824 0.930 . S
C813 C812 1.355 . S
C813 C815 1.402 . S
C813 H825 0.930 . S
N814 Gd805 2.661 . S
N814 C809 1.350 . S
N814 C815 1.307 . S
C815 C813 1.402 . S
C815 N814 1.307 . S
C815 H816 0.930 . S
H816 C815 0.930 . S
C817 N818 1.334 . S
C817 C819 1.394 . S
C817 H821 0.930 . S
N818 Gd805 2.601 . S
N818 C808 1.359 . S
N818 C817 1.334 . S
C819 C817 1.394 . S
C819 C820 1.359 . S
C819 H831 0.930 . S
C820 C810 1.391 . S
C820 C819 1.359 . S
C820 H832 0.929 . S
H821 C817 0.930 . S
H822 C811 0.930 . S
H823 C840 0.930 . S
H824 C812 0.930 . S
H825 C813 0.930 . S
H826 C807 0.929 . S
H827 C845 0.930 . S
H828 C836 0.930 . S
H829 C837 0.930 . S
H830 C861 0.929 . S
H831 C819 0.930 . S
H832 C820 0.929 . S
H833 C862 0.930 . S
H834 C843 0.930 . S
N835 Gd804 2.661 . S
N835 C839 1.350 . S
N835 C840 1.307 . S
C836 H828 0.930 . S
C836 C837 1.355 . S
C836 C838 1.412 . S
C837 H829 0.930 . S
C837 C836 1.355 . S
C837 C840 1.402 . S
C838 C836 1.412 . S
C838 C839 1.417 . S
C838 C862 1.431 . S
C839 N835 1.350 . S
C839 C838 1.417 . S
C839 C842 1.426 . S
C840 H823 0.930 . S
C840 N835 1.307 . S
C840 C837 1.402 . S
N841 Gd804 2.601 . S
N841 C842 1.359 . S
N841 C845 1.334 . S
C842 C839 1.426 . S
C842 N841 1.359 . S
C842 C846 1.413 . S
C843 H834 0.930 . S
C843 C844 1.359 . S
C843 C845 1.394 . S
C844 C843 1.359 . S
C844 C846 1.391 . S
C844 H847 0.929 . S
C845 H827 0.930 . S
C845 N841 1.334 . S
C845 C843 1.394 . S
C846 C842 1.413 . S
C846 C844 1.391 . S
C846 C861 1.437 . S
H847 C844 0.929 . S
O848 Gd804 2.545 . S
O848 C863 1.258 . S
O849 Gd804 2.606 . S
O849 Gd805 2.362 . S
O849 C860 1.284 . S
O850 Gd805 2.324 . S
O850 C870 1.254 . S
O851 Gd804 2.429 . S
O851 C870 1.268 . S
O852 Gd804 2.545 . S
O852 C860 1.250 . S
O853 Gd804 2.412 . S
O853 C863 1.252 . S
O854 Gd805 2.545 . S
O854 C872 1.258 . S
O855 Gd804 2.362 . S
O855 Gd805 2.606 . S
O855 C871 1.284 . S
O856 Gd804 2.324 . S
O856 C879 1.254 . S
O857 Gd805 2.429 . S
O857 C879 1.268 . S
O858 Gd805 2.545 . S
O858 C871 1.250 . S
O859 Gd805 2.412 . S
O859 C872 1.252 . S
C860 O849 1.284 . S
C860 O852 1.250 . S
C861 H830 0.929 . S
C861 C846 1.437 . S
C861 C862 1.317 . S
C862 H833 0.930 . S
C862 C838 1.431 . S
C862 C861 1.317 . S
C863 Gd804 2.828 . S
C863 O848 1.258 . S
C863 O853 1.252 . S
C863 C864 1.497 . S
C864 C863 1.497 . S
C864 C865 1.395 . S
C864 C866 1.380 . S
C865 C864 1.395 . S
C865 C868 1.398 . S
C865 H880 0.930 . S
C866 C864 1.380 . S
C866 C867 1.391 . S
C866 H881 0.930 . S
C867 C866 1.391 . S
C867 C869 1.387 . S
C868 C865 1.398 . S
C868 C869 1.380 . S
C868 H882 0.930 . S
C869 C867 1.387 . S
C869 C868 1.380 . S
C869 H883 0.930 . S
C870 O850 1.254 . S
C870 O851 1.268 . S
C871 O855 1.284 . S
C871 O858 1.250 . S
C872 Gd805 2.828 . S
C872 O854 1.258 . S
C872 O859 1.252 . S
C872 C873 1.497 . S
C873 C872 1.497 . S
C873 C874 1.395 . S
C873 C875 1.380 . S
C874 C873 1.395 . S
C874 C877 1.398 . S
C874 H884 0.930 . S
C875 C873 1.380 . S
C875 C876 1.391 . S
C875 H885 0.930 . S
C876 C875 1.391 . S
C876 C878 1.387 . S
C877 C874 1.398 . S
C877 C878 1.380 . S
C877 H886 0.930 . S
C878 C876 1.387 . S
C878 C877 1.380 . S
C878 H887 0.930 . S
C879 O856 1.254 . S
C879 O857 1.268 . S
H880 C865 0.930 . S
H881 C866 0.930 . S
H882 C868 0.930 . S
H883 C869 0.930 . S
H884 C874 0.930 . S
H885 C875 0.930 . S
H886 C877 0.930 . S
H887 C878 0.930 . S
Gd888 N919 2.661 . S
Gd888 N925 2.601 . S
Gd888 O932 2.545 . S
Gd888 O933 2.606 . S
Gd888 O935 2.429 . S
Gd888 O936 2.545 . S
Gd888 O937 2.412 . S
Gd888 O939 2.362 . S
Gd888 O940 2.324 . S
Gd888 C947 2.828 . S
Gd889 N898 2.661 . S
Gd889 N902 2.601 . S
Gd889 O933 2.362 . S
Gd889 O934 2.324 . S
Gd889 O938 2.545 . S
Gd889 O939 2.606 . S
Gd889 O941 2.429 . S
Gd889 O942 2.545 . S
Gd889 O943 2.412 . S
Gd889 C956 2.828 . S
C890 C893 1.417 . S
C890 C895 1.431 . S
C890 C896 1.412 . S
C891 C894 1.437 . S
C891 C895 1.317 . S
C891 H910 0.929 . S
C892 C893 1.426 . S
C892 C894 1.413 . S
C892 N902 1.359 . S
C893 C890 1.417 . S
C893 C892 1.426 . S
C893 N898 1.350 . S
C894 C891 1.437 . S
C894 C892 1.413 . S
C894 C904 1.391 . S
C895 C890 1.431 . S
C895 C891 1.317 . S
C895 H906 0.930 . S
C896 C890 1.412 . S
C896 C897 1.355 . S
C896 H908 0.930 . S
C897 C896 1.355 . S
C897 C899 1.402 . S
C897 H909 0.930 . S
N898 Gd889 2.661 . S
N898 C893 1.350 . S
N898 C899 1.307 . S
C899 C897 1.402 . S
C899 N898 1.307 . S
C899 H900 0.930 . S
H900 C899 0.930 . S
C901 N902 1.334 . S
C901 C903 1.394 . S
C901 H905 0.930 . S
N902 Gd889 2.601 . S
N902 C892 1.359 . S
N902 C901 1.334 . S
C903 C901 1.394 . S
C903 C904 1.359 . S
C903 H915 0.930 . S
C904 C894 1.391 . S
C904 C903 1.359 . S
C904 H916 0.929 . S
H905 C901 0.930 . S
H906 C895 0.930 . S
H907 C924 0.930 . S
H908 C896 0.930 . S
H909 C897 0.930 . S
H910 C891 0.929 . S
H911 C929 0.930 . S
H912 C920 0.930 . S
H913 C921 0.930 . S
H914 C945 0.929 . S
H915 C903 0.930 . S
H916 C904 0.929 . S
H917 C946 0.930 . S
H918 C927 0.930 . S
N919 Gd888 2.661 . S
N919 C923 1.350 . S
N919 C924 1.307 . S
C920 H912 0.930 . S
C920 C921 1.355 . S
C920 C922 1.412 . S
C921 H913 0.930 . S
C921 C920 1.355 . S
C921 C924 1.402 . S
C922 C920 1.412 . S
C922 C923 1.417 . S
C922 C946 1.431 . S
C923 N919 1.350 . S
C923 C922 1.417 . S
C923 C926 1.426 . S
C924 H907 0.930 . S
C924 N919 1.307 . S
C924 C921 1.402 . S
N925 Gd888 2.601 . S
N925 C926 1.359 . S
N925 C929 1.334 . S
C926 C923 1.426 . S
C926 N925 1.359 . S
C926 C930 1.413 . S
C927 H918 0.930 . S
C927 C928 1.359 . S
C927 C929 1.394 . S
C928 C927 1.359 . S
C928 C930 1.391 . S
C928 H931 0.929 . S
C929 H911 0.930 . S
C929 N925 1.334 . S
C929 C927 1.394 . S
C930 C926 1.413 . S
C930 C928 1.391 . S
C930 C945 1.437 . S
H931 C928 0.929 . S
O932 Gd888 2.545 . S
O932 C947 1.258 . S
O933 Gd888 2.606 . S
O933 Gd889 2.362 . S
O933 C944 1.284 . S
O934 Gd889 2.324 . S
O934 C954 1.254 . S
O935 Gd888 2.429 . S
O935 C954 1.268 . S
O936 Gd888 2.545 . S
O936 C944 1.250 . S
O937 Gd888 2.412 . S
O937 C947 1.252 . S
O938 Gd889 2.545 . S
O938 C956 1.258 . S
O939 Gd888 2.362 . S
O939 Gd889 2.606 . S
O939 C955 1.284 . S
O940 Gd888 2.324 . S
O940 C963 1.254 . S
O941 Gd889 2.429 . S
O941 C963 1.268 . S
O942 Gd889 2.545 . S
O942 C955 1.250 . S
O943 Gd889 2.412 . S
O943 C956 1.252 . S
C944 O933 1.284 . S
C944 O936 1.250 . S
C945 H914 0.929 . S
C945 C930 1.437 . S
C945 C946 1.317 . S
C946 H917 0.930 . S
C946 C922 1.431 . S
C946 C945 1.317 . S
C947 Gd888 2.828 . S
C947 O932 1.258 . S
C947 O937 1.252 . S
C947 C948 1.497 . S
C948 C947 1.497 . S
C948 C949 1.395 . S
C948 C950 1.380 . S
C949 C948 1.395 . S
C949 C952 1.398 . S
C949 H964 0.930 . S
C950 C948 1.380 . S
C950 C951 1.391 . S
C950 H965 0.930 . S
C951 C950 1.391 . S
C951 C953 1.387 . S
C952 C949 1.398 . S
C952 C953 1.380 . S
C952 H966 0.930 . S
C953 C951 1.387 . S
C953 C952 1.380 . S
C953 H967 0.930 . S
C954 O934 1.254 . S
C954 O935 1.268 . S
C955 O939 1.284 . S
C955 O942 1.250 . S
C956 Gd889 2.828 . S
C956 O938 1.258 . S
C956 O943 1.252 . S
C956 C957 1.497 . S
C957 C956 1.497 . S
C957 C958 1.395 . S
C957 C959 1.380 . S
C958 C957 1.395 . S
C958 C961 1.398 . S
C958 H968 0.930 . S
C959 C957 1.380 . S
C959 C960 1.391 . S
C959 H969 0.930 . S
C960 C959 1.391 . S
C960 C962 1.387 . S
C961 C958 1.398 . S
C961 C962 1.380 . S
C961 H970 0.930 . S
C962 C960 1.387 . S
C962 C961 1.380 . S
C962 H971 0.930 . S
C963 O940 1.254 . S
C963 O941 1.268 . S
H964 C949 0.930 . S
H965 C950 0.930 . S
H966 C952 0.930 . S
H967 C953 0.930 . S
H968 C958 0.930 . S
H969 C959 0.930 . S
H970 C961 0.930 . S
H971 C962 0.930 . S
H972 C980 0.929 . S
H973 C982 0.930 . S
H974 C984 0.930 . S
H975 C987 0.929 . S
H976 C990 0.930 . S
H977 C992 0.960 . S
H978 C992 0.960 . S
H979 C992 0.960 . S
C980 H972 0.929 . S
C980 C981 1.377 . S
C980 C982 1.384 . S
C981 C980 1.377 . S
C981 C987 1.390 . S
C982 H973 0.930 . S
C982 C980 1.384 . S
C982 C983 1.372 . S
C983 C982 1.372 . S
C983 C984 1.400 . S
C983 C988 1.490 . S
C984 H974 0.930 . S
C984 C983 1.400 . S
C984 C987 1.386 . S
H985 C1001 0.930 . S
H986 C1002 0.931 . S
C987 H975 0.929 . S
C987 C981 1.390 . S
C987 C984 1.386 . S
C988 C983 1.490 . S
C988 C990 1.395 . S
C988 C991 1.403 . S
H989 C995 0.930 . S
C990 H976 0.930 . S
C990 C988 1.395 . S
C990 C993 1.403 . S
C991 C988 1.403 . S
C991 C992 1.524 . S
C991 C995 1.400 . S
C992 H977 0.960 . S
C992 H978 0.960 . S
C992 H979 0.960 . S
C992 C991 1.524 . S
C993 C990 1.403 . S
C993 C994 1.392 . S
C993 C997 1.495 . S
C994 C993 1.392 . S
C994 C995 1.385 . S
C994 C996 1.478 . S
C995 H989 0.930 . S
C995 C991 1.400 . S
C995 C994 1.385 . S
C996 C994 1.478 . S
C996 C998 1.381 . S
C996 C1002 1.383 . S
C997 C993 1.495 . S
C997 H1003 0.959 . S
C997 H1004 0.961 . S
C997 H1005 0.960 . S
C998 C996 1.381 . S
C998 C999 1.394 . S
C998 H1006 0.930 . S
C999 C998 1.394 . S
C999 C1000 1.383 . S
C999 H1007 0.929 . S
C1000 C999 1.383 . S
C1000 C1001 1.377 . S
C1001 H985 0.930 . S
C1001 C1000 1.377 . S
C1001 C1002 1.379 . S
C1002 H986 0.931 . S
C1002 C996 1.383 . S
C1002 C1001 1.379 . S
H1003 C997 0.959 . S
H1004 C997 0.961 . S
H1005 C997 0.960 . S
H1006 C998 0.930 . S
H1007 C999 0.929 . S
H1008 C1016 0.929 . S
H1009 C1018 0.930 . S
H1010 C1020 0.930 . S
H1011 C1023 0.929 . S
H1012 C1026 0.930 . S
H1013 C1028 0.960 . S
H1014 C1028 0.960 . S
H1015 C1028 0.960 . S
C1016 H1008 0.929 . S
C1016 C1017 1.377 . S
C1016 C1018 1.384 . S
C1017 C1016 1.377 . S
C1017 C1023 1.390 . S
C1018 H1009 0.930 . S
C1018 C1016 1.384 . S
C1018 C1019 1.372 . S
C1019 C1018 1.372 . S
C1019 C1020 1.400 . S
C1019 C1024 1.490 . S
C1020 H1010 0.930 . S
C1020 C1019 1.400 . S
C1020 C1023 1.386 . S
H1021 C1037 0.930 . S
H1022 C1038 0.931 . S
C1023 H1011 0.929 . S
C1023 C1017 1.390 . S
C1023 C1020 1.386 . S
C1024 C1019 1.490 . S
C1024 C1026 1.395 . S
C1024 C1027 1.403 . S
H1025 C1031 0.930 . S
C1026 H1012 0.930 . S
C1026 C1024 1.395 . S
C1026 C1029 1.403 . S
C1027 C1024 1.403 . S
C1027 C1028 1.524 . S
C1027 C1031 1.400 . S
C1028 H1013 0.960 . S
C1028 H1014 0.960 . S
C1028 H1015 0.960 . S
C1028 C1027 1.524 . S
C1029 C1026 1.403 . S
C1029 C1030 1.392 . S
C1029 C1033 1.495 . S
C1030 C1029 1.392 . S
C1030 C1031 1.385 . S
C1030 C1032 1.478 . S
C1031 H1025 0.930 . S
C1031 C1027 1.400 . S
C1031 C1030 1.385 . S
C1032 C1030 1.478 . S
C1032 C1034 1.381 . S
C1032 C1038 1.383 . S
C1033 C1029 1.495 . S
C1033 H1039 0.959 . S
C1033 H1040 0.961 . S
C1033 H1041 0.960 . S
C1034 C1032 1.381 . S
C1034 C1035 1.394 . S
C1034 H1042 0.930 . S
C1035 C1034 1.394 . S
C1035 C1036 1.383 . S
C1035 H1043 0.929 . S
C1036 C1035 1.383 . S
C1036 C1037 1.377 . S
C1037 H1021 0.930 . S
C1037 C1036 1.377 . S
C1037 C1038 1.379 . S
C1038 H1022 0.931 . S
C1038 C1032 1.383 . S
C1038 C1037 1.379 . S
H1039 C1033 0.959 . S
H1040 C1033 0.961 . S
H1041 C1033 0.960 . S
H1042 C1034 0.930 . S
H1043 C1035 0.929 . S
H1044 C1052 0.929 . S
H1045 C1054 0.930 . S
H1046 C1056 0.930 . S
H1047 C1059 0.929 . S
H1048 C1062 0.930 . S
H1049 C1064 0.960 . S
H1050 C1064 0.960 . S
H1051 C1064 0.960 . S
C1052 H1044 0.929 . S
C1052 C1053 1.377 . S
C1052 C1054 1.384 . S
C1053 C1052 1.377 . S
C1053 C1059 1.390 . S
C1054 H1045 0.930 . S
C1054 C1052 1.384 . S
C1054 C1055 1.372 . S
C1055 C1054 1.372 . S
C1055 C1056 1.400 . S
C1055 C1060 1.490 . S
C1056 H1046 0.930 . S
C1056 C1055 1.400 . S
C1056 C1059 1.386 . S
H1057 C1073 0.930 . S
H1058 C1074 0.931 . S
C1059 H1047 0.929 . S
C1059 C1053 1.390 . S
C1059 C1056 1.386 . S
C1060 C1055 1.490 . S
C1060 C1062 1.395 . S
C1060 C1063 1.403 . S
H1061 C1067 0.930 . S
C1062 H1048 0.930 . S
C1062 C1060 1.395 . S
C1062 C1065 1.403 . S
C1063 C1060 1.403 . S
C1063 C1064 1.524 . S
C1063 C1067 1.400 . S
C1064 H1049 0.960 . S
C1064 H1050 0.960 . S
C1064 H1051 0.960 . S
C1064 C1063 1.524 . S
C1065 C1062 1.403 . S
C1065 C1066 1.392 . S
C1065 C1069 1.495 . S
C1066 C1065 1.392 . S
C1066 C1067 1.385 . S
C1066 C1068 1.478 . S
C1067 H1061 0.930 . S
C1067 C1063 1.400 . S
C1067 C1066 1.385 . S
C1068 C1066 1.478 . S
C1068 C1070 1.381 . S
C1068 C1074 1.383 . S
C1069 C1065 1.495 . S
C1069 H1075 0.959 . S
C1069 H1076 0.961 . S
C1069 H1077 0.960 . S
C1070 C1068 1.381 . S
C1070 C1071 1.394 . S
C1070 H1078 0.930 . S
C1071 C1070 1.394 . S
C1071 C1072 1.383 . S
C1071 H1079 0.929 . S
C1072 C1071 1.383 . S
C1072 C1073 1.377 . S
C1073 H1057 0.930 . S
C1073 C1072 1.377 . S
C1073 C1074 1.379 . S
C1074 H1058 0.931 . S
C1074 C1068 1.383 . S
C1074 C1073 1.379 . S
H1075 C1069 0.959 . S
H1076 C1069 0.961 . S
H1077 C1069 0.960 . S
H1078 C1070 0.930 . S
H1079 C1071 0.929 . S
H1080 C1088 0.929 . S
H1081 C1090 0.930 . S
H1082 C1092 0.930 . S
H1083 C1095 0.929 . S
H1084 C1098 0.930 . S
H1085 C1100 0.960 . S
H1086 C1100 0.960 . S
H1087 C1100 0.960 1_556 S
C1088 H1080 0.929 . S
C1088 C1089 1.377 . S
C1088 C1090 1.384 . S
C1089 C1088 1.377 . S
C1089 C1095 1.390 . S
C1090 H1081 0.930 . S
C1090 C1088 1.384 . S
C1090 C1091 1.372 . S
C1091 C1090 1.372 . S
C1091 C1092 1.400 . S
C1091 C1096 1.490 . S
C1092 H1082 0.930 . S
C1092 C1091 1.400 . S
C1092 C1095 1.386 . S
H1093 C1109 0.930 . S
H1094 C1110 0.931 . S
C1095 H1083 0.929 . S
C1095 C1089 1.390 . S
C1095 C1092 1.386 . S
C1096 C1091 1.490 . S
C1096 C1098 1.395 . S
C1096 C1099 1.403 . S
H1097 C1103 0.930 1_554 S
C1098 H1084 0.930 . S
C1098 C1096 1.395 . S
C1098 C1101 1.403 . S
C1099 C1096 1.403 . S
C1099 C1100 1.524 1_556 S
C1099 C1103 1.400 . S
C1100 H1085 0.960 . S
C1100 H1086 0.960 . S
C1100 H1087 0.960 1_554 S
C1100 C1099 1.524 1_554 S
C1101 C1098 1.403 . S
C1101 C1102 1.392 . S
C1101 C1105 1.495 . S
C1102 C1101 1.392 . S
C1102 C1103 1.385 . S
C1102 C1104 1.478 . S
C1103 H1097 0.930 1_556 S
C1103 C1099 1.400 . S
C1103 C1102 1.385 . S
C1104 C1102 1.478 . S
C1104 C1106 1.381 . S
C1104 C1110 1.383 . S
C1105 C1101 1.495 . S
C1105 H1111 0.959 . S
C1105 H1112 0.961 . S
C1105 H1113 0.960 . S
C1106 C1104 1.381 . S
C1106 C1107 1.394 . S
C1106 H1114 0.930 . S
C1107 C1106 1.394 . S
C1107 C1108 1.383 . S
C1107 H1115 0.929 . S
C1108 C1107 1.383 . S
C1108 C1109 1.377 . S
C1109 H1093 0.930 . S
C1109 C1108 1.377 . S
C1109 C1110 1.379 . S
C1110 H1094 0.931 . S
C1110 C1104 1.383 . S
C1110 C1109 1.379 . S
H1111 C1105 0.959 . S
H1112 C1105 0.961 . S
H1113 C1105 0.960 . S
H1114 C1106 0.930 . S
H1115 C1107 0.929 . S
H1116 C1124 0.929 . S
H1117 C1126 0.930 . S
H1118 C1128 0.930 . S
H1119 C1131 0.929 . S
H1120 C1134 0.930 . S
H1121 C1136 0.986 . S
H1122 C1136 0.954 1_556 S
H1123 C1136 0.959 . S
C1124 H1116 0.929 . S
C1124 C1125 1.377 . S
C1124 C1126 1.384 . S
C1125 C1124 1.377 . S
C1125 C1131 1.390 . S
C1126 H1117 0.930 . S
C1126 C1124 1.384 . S
C1126 C1127 1.372 . S
C1127 C1126 1.372 . S
C1127 C1128 1.400 . S
C1127 C1132 1.490 . S
C1128 H1118 0.930 . S
C1128 C1127 1.400 . S
C1128 C1131 1.386 . S
H1129 C1145 0.930 . S
H1130 C1146 0.931 . S
C1131 H1119 0.929 . S
C1131 C1125 1.390 . S
C1131 C1128 1.386 . S
C1132 C1127 1.490 . S
C1132 C1134 1.395 . S
C1132 C1135 1.403 . S
H1133 C1139 0.930 1_554 S
C1134 H1120 0.930 . S
C1134 C1132 1.395 . S
C1134 C1137 1.403 . S
C1135 C1132 1.403 . S
C1135 C1136 1.503 1_556 S
C1135 C1139 1.400 . S
C1136 H1121 0.986 . S
C1136 H1122 0.954 1_554 S
C1136 H1123 0.959 . S
C1136 C1135 1.503 1_554 S
C1137 C1134 1.403 . S
C1137 C1138 1.392 . S
C1137 C1141 1.495 . S
C1138 C1137 1.392 . S
C1138 C1139 1.385 . S
C1138 C1140 1.478 . S
C1139 H1133 0.930 1_556 S
C1139 C1135 1.400 . S
C1139 C1138 1.385 . S
C1140 C1138 1.478 . S
C1140 C1142 1.381 . S
C1140 C1146 1.383 . S
C1141 C1137 1.495 . S
C1141 H1147 0.959 . S
C1141 H1148 0.961 . S
C1141 H1149 0.960 . S
C1142 C1140 1.381 . S
C1142 C1143 1.394 . S
C1142 H1150 0.930 . S
C1143 C1142 1.394 . S
C1143 C1144 1.383 . S
C1143 H1151 0.929 . S
C1144 C1143 1.383 . S
C1144 C1145 1.377 1_556 S
C1145 H1129 0.930 . S
C1145 C1144 1.377 1_554 S
C1145 C1146 1.379 1_554 S
C1146 H1130 0.931 . S
C1146 C1140 1.383 . S
C1146 C1145 1.379 1_556 S
H1147 C1141 0.959 . S
H1148 C1141 0.961 . S
H1149 C1141 0.960 . S
H1150 C1142 0.930 . S
H1151 C1143 0.929 . S
H1152 C1160 0.929 . S
H1153 C1162 0.930 . S
H1154 C1164 0.930 . S
H1155 C1167 0.929 . S
H1156 C1170 0.930 . S
H1157 C1172 0.960 . S
H1158 C1172 0.960 . S
H1159 C1172 0.960 . S
C1160 H1152 0.929 . S
C1160 C1161 1.377 . S
C1160 C1162 1.384 . S
C1161 C1160 1.377 . S
C1161 C1167 1.390 . S
C1162 H1153 0.930 . S
C1162 C1160 1.384 . S
C1162 C1163 1.372 . S
C1163 C1162 1.372 . S
C1163 C1164 1.400 . S
C1163 C1168 1.490 . S
C1164 H1154 0.930 . S
C1164 C1163 1.400 . S
C1164 C1167 1.386 . S
H1165 C1181 0.930 . S
H1166 C1182 0.931 . S
C1167 H1155 0.929 . S
C1167 C1161 1.390 . S
C1167 C1164 1.386 . S
C1168 C1163 1.490 . S
C1168 C1170 1.395 . S
C1168 C1171 1.403 . S
H1169 C1175 0.930 . S
C1170 H1156 0.930 . S
C1170 C1168 1.395 . S
C1170 C1173 1.403 . S
C1171 C1168 1.403 . S
C1171 C1172 1.524 . S
C1171 C1175 1.400 . S
C1172 H1157 0.960 . S
C1172 H1158 0.960 . S
C1172 H1159 0.960 . S
C1172 C1171 1.524 . S
C1173 C1170 1.403 . S
C1173 C1174 1.392 . S
C1173 C1177 1.495 . S
C1174 C1173 1.392 . S
C1174 C1175 1.385 . S
C1174 C1176 1.478 . S
C1175 H1169 0.930 . S
C1175 C1171 1.400 . S
C1175 C1174 1.385 . S
C1176 C1174 1.478 . S
C1176 C1178 1.381 . S
C1176 C1182 1.383 1_556 S
C1177 C1173 1.495 . S
C1177 H1183 0.959 . S
C1177 H1184 0.991 . S
C1177 H1185 0.960 . S
C1178 C1176 1.381 . S
C1178 C1179 1.394 . S
C1178 H1186 0.930 . S
C1179 C1178 1.394 . S
C1179 C1180 1.378 . S
C1179 H1187 0.929 . S
C1180 C1179 1.378 . S
C1180 C1181 1.380 1_556 S
C1181 H1165 0.930 . S
C1181 C1180 1.380 1_554 S
C1181 C1182 1.379 . S
C1182 H1166 0.931 . S
C1182 C1176 1.383 1_554 S
C1182 C1181 1.379 . S
H1183 C1177 0.959 . S
H1184 C1177 0.991 . S
H1185 C1177 0.960 . S
H1186 C1178 0.930 . S
H1187 C1179 0.929 . S
H1188 C1196 0.929 . S
H1189 C1198 0.930 . S
H1190 C1200 0.930 . S
H1191 C1203 0.929 . S
H1192 C1206 0.930 . S
H1193 C1208 0.960 . S
H1194 C1208 0.960 . S
H1195 C1208 0.960 . S
C1196 H1188 0.929 . S
C1196 C1197 1.377 . S
C1196 C1198 1.384 . S
C1197 C1196 1.377 . S
C1197 C1203 1.390 . S
C1198 H1189 0.930 . S
C1198 C1196 1.384 . S
C1198 C1199 1.372 . S
C1199 C1198 1.372 . S
C1199 C1200 1.400 . S
C1199 C1204 1.490 . S
C1200 H1190 0.930 . S
C1200 C1199 1.400 . S
C1200 C1203 1.386 . S
H1201 C1217 0.930 . S
H1202 C1218 0.931 . S
C1203 H1191 0.929 . S
C1203 C1197 1.390 . S
C1203 C1200 1.386 . S
C1204 C1199 1.490 . S
C1204 C1206 1.395 . S
C1204 C1207 1.403 . S
H1205 C1211 0.930 . S
C1206 H1192 0.930 . S
C1206 C1204 1.395 . S
C1206 C1209 1.403 . S
C1207 C1204 1.403 . S
C1207 C1208 1.524 . S
C1207 C1211 1.400 . S
C1208 H1193 0.960 . S
C1208 H1194 0.960 . S
C1208 H1195 0.960 . S
C1208 C1207 1.524 . S
C1209 C1206 1.403 . S
C1209 C1210 1.392 . S
C1209 C1213 1.495 . S
C1210 C1209 1.392 . S
C1210 C1211 1.385 . S
C1210 C1212 1.478 . S
C1211 H1205 0.930 . S
C1211 C1207 1.400 . S
C1211 C1210 1.385 . S
C1212 C1210 1.478 . S
C1212 C1214 1.381 . S
C1212 C1218 1.383 1_556 S
C1213 C1209 1.495 . S
C1213 H1219 0.959 . S
C1213 H1220 0.961 . S
C1213 H1221 0.960 . S
C1214 C1212 1.381 . S
C1214 C1215 1.394 . S
C1214 H1222 0.930 . S
C1215 C1214 1.394 . S
C1215 C1216 1.383 . S
C1215 H1223 0.929 . S
C1216 C1215 1.383 . S
C1216 C1217 1.377 1_556 S
C1217 H1201 0.930 . S
C1217 C1216 1.377 1_554 S
C1217 C1218 1.379 . S
C1218 H1202 0.931 . S
C1218 C1212 1.383 1_554 S
C1218 C1217 1.379 . S
H1219 C1213 0.959 . S
H1220 C1213 0.961 . S
H1221 C1213 0.960 . S
H1222 C1214 0.930 . S
H1223 C1215 0.929 . S
H1224 C1232 0.929 . S
H1225 C1234 0.930 . S
H1226 C1236 0.930 . S
H1227 C1239 0.929 . S
H1228 C1242 0.930 . S
H1229 C1244 0.960 . S
H1230 C1244 0.960 . S
H1231 C1244 0.960 . S
C1232 H1224 0.929 . S
C1232 C1233 1.377 . S
C1232 C1234 1.384 . S
C1233 C1232 1.377 . S
C1233 C1239 1.390 . S
C1234 H1225 0.930 . S
C1234 C1232 1.384 . S
C1234 C1235 1.372 . S
C1235 C1234 1.372 . S
C1235 C1236 1.400 . S
C1235 C1240 1.490 . S
C1236 H1226 0.930 . S
C1236 C1235 1.400 . S
C1236 C1239 1.386 . S
H1237 C1253 0.930 . S
H1238 C1254 0.931 . S
C1239 H1227 0.929 . S
C1239 C1233 1.390 . S
C1239 C1236 1.386 . S
C1240 C1235 1.490 . S
C1240 C1242 1.395 . S
C1240 C1243 1.403 . S
H1241 C1247 0.930 . S
C1242 H1228 0.930 . S
C1242 C1240 1.395 . S
C1242 C1245 1.403 . S
C1243 C1240 1.403 . S
C1243 C1244 1.524 . S
C1243 C1247 1.400 . S
C1244 H1229 0.960 . S
C1244 H1230 0.960 . S
C1244 H1231 0.960 . S
C1244 C1243 1.524 . S
C1245 C1242 1.403 . S
C1245 C1246 1.392 . S
C1245 C1249 1.495 . S
C1246 C1245 1.392 . S
C1246 C1247 1.385 . S
C1246 C1248 1.478 . S
C1247 H1241 0.930 . S
C1247 C1243 1.400 . S
C1247 C1246 1.385 . S
C1248 C1246 1.478 . S
C1248 C1250 1.381 . S
C1248 C1254 1.383 1_556 S
C1249 C1245 1.495 . S
C1249 H1255 0.959 . S
C1249 H1256 0.961 . S
C1249 H1257 0.960 . S
C1250 C1248 1.381 . S
C1250 C1251 1.394 . S
C1250 H1258 0.930 . S
C1251 C1250 1.394 . S
C1251 C1252 1.383 . S
C1251 H1259 0.929 . S
C1252 C1251 1.383 . S
C1252 C1253 1.377 1_556 S
C1253 H1237 0.930 . S
C1253 C1252 1.377 1_554 S
C1253 C1254 1.379 . S
C1254 H1238 0.931 . S
C1254 C1248 1.383 1_554 S
C1254 C1253 1.379 . S
H1255 C1249 0.959 . S
H1256 C1249 0.961 . S
H1257 C1249 0.960 . S
H1258 C1250 0.930 . S
H1259 C1251 0.929 . S
H1260 C1268 0.929 . S
H1261 C1270 0.930 . S
H1262 C1272 0.930 . S
H1263 C1275 0.929 . S
H1264 C1278 0.930 . S
H1265 C1280 0.960 . S
H1266 C1280 0.960 . S
H1267 C1280 0.960 . S
C1268 H1260 0.929 . S
C1268 C1269 1.377 . S
C1268 C1270 1.384 . S
C1269 C1268 1.377 . S
C1269 C1275 1.390 . S
C1270 H1261 0.930 . S
C1270 C1268 1.384 . S
C1270 C1271 1.372 . S
C1271 C1270 1.372 . S
C1271 C1272 1.400 . S
C1271 C1276 1.490 . S
C1272 H1262 0.930 . S
C1272 C1271 1.400 . S
C1272 C1275 1.386 . S
H1273 C1289 0.930 . S
H1274 C1290 0.931 . S
C1275 H1263 0.929 . S
C1275 C1269 1.390 . S
C1275 C1272 1.386 . S
C1276 C1271 1.490 . S
C1276 C1278 1.395 . S
C1276 C1279 1.403 . S
H1277 C1283 0.930 . S
C1278 H1264 0.930 . S
C1278 C1276 1.395 . S
C1278 C1281 1.403 . S
C1279 C1276 1.403 . S
C1279 C1280 1.524 . S
C1279 C1283 1.400 . S
C1280 H1265 0.960 . S
C1280 H1266 0.960 . S
C1280 H1267 0.960 . S
C1280 C1279 1.524 . S
C1281 C1278 1.403 . S
C1281 C1282 1.392 . S
C1281 C1285 1.495 . S
C1282 C1281 1.392 . S
C1282 C1283 1.385 . S
C1282 C1284 1.478 . S
C1283 H1277 0.930 . S
C1283 C1279 1.400 . S
C1283 C1282 1.385 . S
C1284 C1282 1.478 . S
C1284 C1286 1.381 1_556 S
C1284 C1290 1.383 . S
C1285 C1281 1.495 . S
C1285 H1291 0.959 . S
C1285 H1292 0.961 . S
C1285 H1293 0.960 . S
C1286 C1284 1.381 1_554 S
C1286 C1287 1.394 . S
C1286 H1294 0.930 . S
C1287 C1286 1.394 . S
C1287 C1288 1.384 1_554 S
C1287 H1295 0.929 . S
C1288 C1287 1.384 1_556 S
C1288 C1289 1.376 . S
C1289 H1273 0.930 . S
C1289 C1288 1.376 . S
C1289 C1290 1.379 . S
C1290 H1274 0.931 . S
C1290 C1284 1.383 . S
C1290 C1289 1.379 . S
H1291 C1285 0.959 . S
H1292 C1285 0.961 . S
H1293 C1285 0.960 . S
H1294 C1286 0.930 . S
H1295 C1287 0.929 . S
H1296 C1304 0.929 . S
H1297 C1306 0.930 . S
H1298 C1308 0.930 . S
H1299 C1311 0.929 . S
H1300 C1314 0.930 . S
H1301 C1316 0.960 . S
H1302 C1316 0.960 . S
H1303 C1316 0.960 . S
C1304 H1296 0.929 . S
C1304 C1305 1.377 . S
C1304 C1306 1.384 . S
C1305 C1304 1.377 . S
C1305 C1311 1.390 . S
C1306 H1297 0.930 . S
C1306 C1304 1.384 . S
C1306 C1307 1.372 . S
C1307 C1306 1.372 . S
C1307 C1308 1.400 . S
C1307 C1312 1.490 . S
C1308 H1298 0.930 . S
C1308 C1307 1.400 . S
C1308 C1311 1.386 . S
H1309 C1325 0.930 . S
H1310 C1326 0.931 . S
C1311 H1299 0.929 . S
C1311 C1305 1.390 . S
C1311 C1308 1.386 . S
C1312 C1307 1.490 . S
C1312 C1314 1.395 . S
C1312 C1315 1.403 . S
H1313 C1319 0.930 . S
C1314 H1300 0.930 . S
C1314 C1312 1.395 . S
C1314 C1317 1.403 . S
C1315 C1312 1.403 . S
C1315 C1316 1.524 . S
C1315 C1319 1.400 . S
C1316 H1301 0.960 . S
C1316 H1302 0.960 . S
C1316 H1303 0.960 . S
C1316 C1315 1.524 . S
C1317 C1314 1.403 . S
C1317 C1318 1.392 . S
C1317 C1321 1.495 . S
C1318 C1317 1.392 . S
C1318 C1319 1.385 . S
C1318 C1320 1.478 . S
C1319 H1313 0.930 . S
C1319 C1315 1.400 . S
C1319 C1318 1.385 . S
C1320 C1318 1.478 . S
C1320 C1322 1.381 . S
C1320 C1326 1.383 . S
C1321 C1317 1.495 . S
C1321 H1327 0.959 . S
C1321 H1328 0.961 . S
C1321 H1329 0.960 . S
C1322 C1320 1.381 . S
C1322 C1323 1.394 . S
C1322 H1330 0.930 . S
C1323 C1322 1.394 . S
C1323 C1324 1.383 . S
C1323 H1331 0.929 . S
C1324 C1323 1.383 . S
C1324 C1325 1.377 . S
C1325 H1309 0.930 . S
C1325 C1324 1.377 . S
C1325 C1326 1.379 . S
C1326 H1310 0.931 . S
C1326 C1320 1.383 . S
C1326 C1325 1.379 . S
H1327 C1321 0.959 . S
H1328 C1321 0.961 . S
H1329 C1321 0.960 . S
H1330 C1322 0.930 . S
H1331 C1323 0.929 . S
H1332 C1340 0.929 . S
H1333 C1342 0.930 . S
H1334 C1344 0.930 . S
H1335 C1347 0.929 . S
H1336 C1350 0.930 . S
H1337 C1352 0.960 . S
H1338 C1352 0.960 . S
H1339 C1352 0.960 . S
C1340 H1332 0.929 . S
C1340 C1341 1.377 . S
C1340 C1342 1.384 . S
C1341 C1340 1.377 . S
C1341 C1347 1.390 . S
C1342 H1333 0.930 . S
C1342 C1340 1.384 . S
C1342 C1343 1.372 . S
C1343 C1342 1.372 . S
C1343 C1344 1.400 . S
C1343 C1348 1.490 . S
C1344 H1334 0.930 . S
C1344 C1343 1.400 . S
C1344 C1347 1.386 . S
H1345 C1361 0.930 . S
H1346 C1362 0.931 . S
C1347 H1335 0.929 . S
C1347 C1341 1.390 . S
C1347 C1344 1.386 . S
C1348 C1343 1.490 . S
C1348 C1350 1.395 . S
C1348 C1351 1.403 . S
H1349 C1355 0.930 . S
C1350 H1336 0.930 . S
C1350 C1348 1.395 . S
C1350 C1353 1.403 . S
C1351 C1348 1.403 . S
C1351 C1352 1.524 . S
C1351 C1355 1.400 . S
C1352 H1337 0.960 . S
C1352 H1338 0.960 . S
C1352 H1339 0.960 . S
C1352 C1351 1.524 . S
C1353 C1350 1.403 . S
C1353 C1354 1.392 . S
C1353 C1357 1.495 . S
C1354 C1353 1.392 . S
C1354 C1355 1.385 . S
C1354 C1356 1.478 . S
C1355 H1349 0.930 . S
C1355 C1351 1.400 . S
C1355 C1354 1.385 . S
C1356 C1354 1.478 . S
C1356 C1358 1.381 . S
C1356 C1362 1.383 . S
C1357 C1353 1.495 . S
C1357 H1363 0.959 . S
C1357 H1364 0.961 . S
C1357 H1365 0.960 . S
C1358 C1356 1.381 . S
C1358 C1359 1.394 . S
C1358 H1366 0.930 . S
C1359 C1358 1.394 . S
C1359 C1360 1.383 . S
C1359 H1367 0.929 . S
C1360 C1359 1.383 . S
C1360 C1361 1.377 . S
C1361 H1345 0.930 . S
C1361 C1360 1.377 . S
C1361 C1362 1.379 . S
C1362 H1346 0.931 . S
C1362 C1356 1.383 . S
C1362 C1361 1.379 . S
H1363 C1357 0.959 . S
H1364 C1357 0.961 . S
H1365 C1357 0.960 . S
H1366 C1358 0.930 . S
H1367 C1359 0.929 . S
H1368 C1376 0.929 . S
H1369 C1378 0.930 . S
H1370 C1380 0.930 . S
H1371 C1383 0.929 . S
H1372 C1386 0.930 . S
H1373 C1388 0.960 . S
H1374 C1388 0.960 . S
H1375 C1388 0.960 . S
C1376 H1368 0.929 . S
C1376 C1377 1.377 . S
C1376 C1378 1.384 . S
C1377 C1376 1.377 . S
C1377 C1383 1.390 . S
C1378 H1369 0.930 . S
C1378 C1376 1.384 . S
C1378 C1379 1.372 . S
C1379 C1378 1.372 . S
C1379 C1380 1.400 . S
C1379 C1384 1.490 . S
C1380 H1370 0.930 . S
C1380 C1379 1.400 . S
C1380 C1383 1.386 . S
H1381 C1397 0.930 . S
H1382 C1398 0.931 . S
C1383 H1371 0.929 . S
C1383 C1377 1.390 . S
C1383 C1380 1.386 . S
C1384 C1379 1.490 . S
C1384 C1386 1.395 . S
C1384 C1387 1.403 . S
H1385 C1391 0.930 . S
C1386 H1372 0.930 . S
C1386 C1384 1.395 . S
C1386 C1389 1.403 . S
C1387 C1384 1.403 . S
C1387 C1388 1.524 . S
C1387 C1391 1.400 . S
C1388 H1373 0.960 . S
C1388 H1374 0.960 . S
C1388 H1375 0.960 . S
C1388 C1387 1.524 . S
C1389 C1386 1.403 . S
C1389 C1390 1.392 . S
C1389 C1393 1.495 . S
C1390 C1389 1.392 . S
C1390 C1391 1.385 . S
C1390 C1392 1.478 . S
C1391 H1385 0.930 . S
C1391 C1387 1.400 . S
C1391 C1390 1.385 . S
C1392 C1390 1.478 . S
C1392 C1394 1.381 . S
C1392 C1398 1.383 . S
C1393 C1389 1.495 . S
C1393 H1399 0.959 . S
C1393 H1400 0.961 . S
C1393 H1401 0.960 . S
C1394 C1392 1.381 . S
C1394 C1395 1.394 . S
C1394 H1402 0.930 . S
C1395 C1394 1.394 . S
C1395 C1396 1.383 . S
C1395 H1403 0.929 . S
C1396 C1395 1.383 . S
C1396 C1397 1.377 . S
C1397 H1381 0.930 . S
C1397 C1396 1.377 . S
C1397 C1398 1.379 . S
C1398 H1382 0.931 . S
C1398 C1392 1.383 . S
C1398 C1397 1.379 . S
H1399 C1393 0.959 . S
H1400 C1393 0.961 . S
H1401 C1393 0.960 . S
H1402 C1394 0.930 . S
H1403 C1395 0.929 . S
H1404 C1412 0.929 . S
H1405 C1414 0.930 . S
H1406 C1416 0.930 . S
H1407 C1419 0.929 . S
H1408 C1422 0.930 . S
H1409 C1424 0.960 . S
H1410 C1424 0.960 . S
H1411 C1424 0.960 . S
C1412 H1404 0.929 . S
C1412 C1413 1.377 . S
C1412 C1414 1.384 . S
C1413 C1412 1.377 . S
C1413 C1419 1.390 . S
C1414 H1405 0.930 . S
C1414 C1412 1.384 . S
C1414 C1415 1.372 . S
C1415 C1414 1.372 . S
C1415 C1416 1.400 . S
C1415 C1420 1.490 . S
C1416 H1406 0.930 . S
C1416 C1415 1.400 . S
C1416 C1419 1.386 . S
H1417 C1433 0.930 . S
H1418 C1434 0.931 . S
C1419 H1407 0.929 . S
C1419 C1413 1.390 . S
C1419 C1416 1.386 . S
C1420 C1415 1.490 . S
C1420 C1422 1.395 1_655 S
C1420 C1423 1.403 . S
H1421 C1427 0.930 . S
C1422 H1408 0.930 . S
C1422 C1420 1.395 1_455 S
C1422 C1425 1.403 . S
C1423 C1420 1.403 . S
C1423 C1424 1.524 . S
C1423 C1427 1.400 1_655 S
C1424 H1409 0.960 . S
C1424 H1410 0.960 . S
C1424 H1411 0.960 . S
C1424 C1423 1.524 . S
C1425 C1422 1.403 . S
C1425 C1426 1.392 . S
C1425 C1429 1.495 . S
C1426 C1425 1.392 . S
C1426 C1427 1.385 . S
C1426 C1428 1.478 . S
C1427 H1421 0.930 . S
C1427 C1423 1.400 1_455 S
C1427 C1426 1.385 . S
C1428 C1426 1.478 . S
C1428 C1430 1.381 . S
C1428 C1434 1.383 . S
C1429 C1425 1.495 . S
C1429 H1435 0.959 . S
C1429 H1436 0.961 . S
C1429 H1437 0.960 . S
C1430 C1428 1.381 . S
C1430 C1431 1.394 . S
C1430 H1438 0.930 . S
C1431 C1430 1.394 . S
C1431 C1432 1.383 . S
C1431 H1439 0.929 . S
C1432 C1431 1.383 . S
C1432 C1433 1.377 . S
C1433 H1417 0.930 . S
C1433 C1432 1.377 . S
C1433 C1434 1.379 . S
C1434 H1418 0.931 . S
C1434 C1428 1.383 . S
C1434 C1433 1.379 . S
H1435 C1429 0.959 . S
H1436 C1429 0.961 . S
H1437 C1429 0.960 . S
H1438 C1430 0.930 . S
H1439 C1431 0.929 . S
H1440 C1448 0.929 . S
H1441 C1450 0.930 . S
H1442 C1452 0.930 . S
H1443 C1455 0.929 . S
H1444 C1458 0.930 . S
H1445 C1460 0.960 . S
H1446 C1460 0.960 . S
H1447 C1460 0.960 . S
C1448 H1440 0.929 . S
C1448 C1449 1.377 . S
C1448 C1450 1.384 . S
C1449 C1448 1.377 . S
C1449 C1455 1.390 . S
C1450 H1441 0.930 . S
C1450 C1448 1.384 . S
C1450 C1451 1.372 . S
C1451 C1450 1.372 . S
C1451 C1452 1.400 . S
C1451 C1456 1.490 . S
C1452 H1442 0.930 . S
C1452 C1451 1.400 . S
C1452 C1455 1.386 . S
H1453 C1469 0.930 . S
H1454 C1470 0.931 . S
C1455 H1443 0.929 . S
C1455 C1449 1.390 . S
C1455 C1452 1.386 . S
C1456 C1451 1.490 . S
C1456 C1458 1.395 . S
C1456 C1459 1.403 . S
H1457 C1463 0.930 . S
C1458 H1444 0.930 . S
C1458 C1456 1.395 . S
C1458 C1461 1.403 . S
C1459 C1456 1.403 . S
C1459 C1460 1.524 . S
C1459 C1463 1.400 . S
C1460 H1445 0.960 . S
C1460 H1446 0.960 . S
C1460 H1447 0.960 . S
C1460 C1459 1.524 . S
C1461 C1458 1.403 . S
C1461 C1462 1.392 . S
C1461 C1465 1.495 . S
C1462 C1461 1.392 . S
C1462 C1463 1.385 . S
C1462 C1464 1.478 . S
C1463 H1457 0.930 . S
C1463 C1459 1.400 . S
C1463 C1462 1.385 . S
C1464 C1462 1.478 . S
C1464 C1466 1.381 . S
C1464 C1470 1.383 . S
C1465 C1461 1.495 . S
C1465 H1471 0.959 . S
C1465 H1472 0.961 . S
C1465 H1473 0.960 . S
C1466 C1464 1.381 . S
C1466 C1467 1.394 . S
C1466 H1474 0.930 . S
C1467 C1466 1.394 . S
C1467 C1468 1.383 . S
C1467 H1475 0.929 . S
C1468 C1467 1.383 . S
C1468 C1469 1.377 . S
C1469 H1453 0.930 . S
C1469 C1468 1.377 . S
C1469 C1470 1.379 . S
C1470 H1454 0.931 . S
C1470 C1464 1.383 . S
C1470 C1469 1.379 . S
H1471 C1465 0.959 . S
H1472 C1465 0.961 . S
H1473 C1465 0.960 . S
H1474 C1466 0.930 . S
H1475 C1467 0.929 . S
H1476 C1484 0.929 . S
H1477 C1486 0.930 . S
H1478 C1488 0.930 . S
H1479 C1491 0.929 . S
H1480 C1494 0.930 . S
H1481 C1496 0.960 1_565 S
H1482 C1496 0.960 . S
H1483 C1496 0.960 . S
C1484 H1476 0.929 . S
C1484 C1485 1.377 . S
C1484 C1486 1.384 . S
C1485 C1484 1.377 . S
C1485 C1491 1.390 . S
C1486 H1477 0.930 . S
C1486 C1484 1.384 . S
C1486 C1487 1.372 . S
C1487 C1486 1.372 . S
C1487 C1488 1.400 . S
C1487 C1492 1.490 . S
C1488 H1478 0.930 . S
C1488 C1487 1.400 . S
C1488 C1491 1.386 . S
H1489 C1505 0.930 . S
H1490 C1506 0.931 . S
C1491 H1479 0.929 . S
C1491 C1485 1.390 . S
C1491 C1488 1.386 . S
C1492 C1487 1.490 . S
C1492 C1494 1.395 . S
C1492 C1495 1.403 . S
H1493 C1499 0.930 . S
C1494 H1480 0.930 . S
C1494 C1492 1.395 . S
C1494 C1497 1.403 . S
C1495 C1492 1.403 . S
C1495 C1496 1.524 . S
C1495 C1499 1.400 1_545 S
C1496 H1481 0.960 1_545 S
C1496 H1482 0.960 . S
C1496 H1483 0.960 . S
C1496 C1495 1.524 . S
C1497 C1494 1.403 . S
C1497 C1498 1.392 1_545 S
C1497 C1501 1.495 . S
C1498 C1497 1.392 1_565 S
C1498 C1499 1.385 . S
C1498 C1500 1.478 . S
C1499 H1493 0.930 . S
C1499 C1495 1.400 1_565 S
C1499 C1498 1.385 . S
C1500 C1498 1.478 . S
C1500 C1502 1.381 . S
C1500 C1506 1.383 . S
C1501 C1497 1.495 . S
C1501 H1507 0.959 . S
C1501 H1508 0.961 1_545 S
C1501 H1509 0.981 . S
C1502 C1500 1.381 . S
C1502 C1503 1.394 . S
C1502 H1510 0.930 . S
C1503 C1502 1.394 . S
C1503 C1504 1.383 . S
C1503 H1511 0.929 . S
C1504 C1503 1.383 . S
C1504 C1505 1.377 . S
C1505 H1489 0.930 . S
C1505 C1504 1.377 . S
C1505 C1506 1.379 . S
C1506 H1490 0.931 . S
C1506 C1500 1.383 . S
C1506 C1505 1.379 . S
H1507 C1501 0.959 . S
H1508 C1501 0.961 1_565 S
H1509 C1501 0.981 . S
H1510 C1502 0.930 . S
H1511 C1503 0.929 . S
H1512 C1520 0.929 . S
H1513 C1522 0.930 . S
H1514 C1524 0.930 . S
H1515 C1527 0.929 . S
H1516 C1530 0.930 . S
H1517 C1532 0.960 . S
H1518 C1532 0.960 . S
H1519 C1532 0.960 . S
C1520 H1512 0.929 . S
C1520 C1521 1.377 . S
C1520 C1522 1.384 . S
C1521 C1520 1.377 . S
C1521 C1527 1.390 . S
C1522 H1513 0.930 . S
C1522 C1520 1.384 . S
C1522 C1523 1.372 . S
C1523 C1522 1.372 . S
C1523 C1524 1.400 . S
C1523 C1528 1.490 . S
C1524 H1514 0.930 . S
C1524 C1523 1.400 . S
C1524 C1527 1.386 . S
H1525 C1541 0.930 . S
H1526 C1542 0.931 . S
C1527 H1515 0.929 . S
C1527 C1521 1.390 . S
C1527 C1524 1.386 . S
C1528 C1523 1.490 . S
C1528 C1530 1.395 . S
C1528 C1531 1.403 . S
H1529 C1535 0.930 . S
C1530 H1516 0.930 . S
C1530 C1528 1.395 . S
C1530 C1533 1.403 . S
C1531 C1528 1.403 . S
C1531 C1532 1.524 . S
C1531 C1535 1.400 . S
C1532 H1517 0.960 . S
C1532 H1518 0.960 . S
C1532 H1519 0.960 . S
C1532 C1531 1.524 . S
C1533 C1530 1.403 . S
C1533 C1534 1.392 . S
C1533 C1537 1.495 . S
C1534 C1533 1.392 . S
C1534 C1535 1.385 . S
C1534 C1536 1.478 . S
C1535 H1529 0.930 . S
C1535 C1531 1.400 . S
C1535 C1534 1.385 . S
C1536 C1534 1.478 . S
C1536 C1538 1.381 . S
C1536 C1542 1.383 . S
C1537 C1533 1.495 . S
C1537 H1543 0.959 . S
C1537 H1544 0.961 . S
C1537 H1545 0.960 . S
C1538 C1536 1.381 . S
C1538 C1539 1.394 . S
C1538 H1546 0.930 . S
C1539 C1538 1.394 . S
C1539 C1540 1.383 . S
C1539 H1547 0.929 . S
C1540 C1539 1.383 . S
C1540 C1541 1.377 . S
C1541 H1525 0.930 . S
C1541 C1540 1.377 . S
C1541 C1542 1.379 . S
C1542 H1526 0.931 . S
C1542 C1536 1.383 . S
C1542 C1541 1.379 . S
H1543 C1537 0.959 . S
H1544 C1537 0.961 . S
H1545 C1537 0.960 . S
H1546 C1538 0.930 . S
H1547 C1539 0.929 . S
H1548 C1556 0.929 . S
H1549 C1558 0.930 . S
H1550 C1560 0.930 . S
H1551 C1563 0.929 . S
H1552 C1566 0.930 . S
H1553 C1568 0.960 . S
H1554 C1568 0.960 . S
H1555 C1568 0.960 . S
C1556 H1548 0.929 . S
C1556 C1557 1.377 . S
C1556 C1558 1.384 . S
C1557 C1556 1.377 . S
C1557 C1563 1.390 . S
C1558 H1549 0.930 . S
C1558 C1556 1.384 . S
C1558 C1559 1.372 . S
C1559 C1558 1.372 . S
C1559 C1560 1.400 . S
C1559 C1564 1.490 . S
C1560 H1550 0.930 . S
C1560 C1559 1.400 . S
C1560 C1563 1.386 . S
H1561 C1577 0.930 . S
H1562 C1578 0.931 . S
C1563 H1551 0.929 . S
C1563 C1557 1.390 . S
C1563 C1560 1.386 . S
C1564 C1559 1.490 . S
C1564 C1566 1.395 . S
C1564 C1567 1.403 . S
H1565 C1571 0.930 . S
C1566 H1552 0.930 . S
C1566 C1564 1.395 . S
C1566 C1569 1.403 . S
C1567 C1564 1.403 . S
C1567 C1568 1.524 . S
C1567 C1571 1.400 . S
C1568 H1553 0.960 . S
C1568 H1554 0.960 . S
C1568 H1555 0.960 . S
C1568 C1567 1.524 . S
C1569 C1566 1.403 . S
C1569 C1570 1.392 . S
C1569 C1573 1.495 . S
C1570 C1569 1.392 . S
C1570 C1571 1.385 . S
C1570 C1572 1.478 . S
C1571 H1565 0.930 . S
C1571 C1567 1.400 . S
C1571 C1570 1.385 . S
C1572 C1570 1.478 . S
C1572 C1574 1.381 . S
C1572 C1578 1.383 . S
C1573 C1569 1.495 . S
C1573 H1579 0.959 . S
C1573 H1580 0.961 . S
C1573 H1581 0.960 . S
C1574 C1572 1.381 . S
C1574 C1575 1.394 . S
C1574 H1582 0.930 . S
C1575 C1574 1.394 . S
C1575 C1576 1.383 . S
C1575 H1583 0.929 . S
C1576 C1575 1.383 . S
C1576 C1577 1.377 . S
C1577 H1561 0.930 . S
C1577 C1576 1.377 . S
C1577 C1578 1.379 . S
C1578 H1562 0.931 . S
C1578 C1572 1.383 . S
C1578 C1577 1.379 . S
H1579 C1573 0.959 . S
H1580 C1573 0.961 . S
H1581 C1573 0.960 . S
H1582 C1574 0.930 . S
H1583 C1575 0.929 . S
H1584 C1592 0.929 . S
H1585 C1594 0.930 . S
H1586 C1596 0.930 . S
H1587 C1599 0.929 . S
H1588 C1602 0.930 . S
H1589 C1604 0.960 . S
H1590 C1604 0.960 . S
H1591 C1604 0.960 . S
C1592 H1584 0.929 . S
C1592 C1593 1.377 . S
C1592 C1594 1.384 . S
C1593 C1592 1.377 . S
C1593 C1599 1.390 . S
C1594 H1585 0.930 . S
C1594 C1592 1.384 . S
C1594 C1595 1.372 . S
C1595 C1594 1.372 . S
C1595 C1596 1.400 . S
C1595 C1600 1.490 . S
C1596 H1586 0.930 . S
C1596 C1595 1.400 . S
C1596 C1599 1.386 . S
H1597 C1613 0.930 . S
H1598 C1614 0.931 . S
C1599 H1587 0.929 . S
C1599 C1593 1.390 . S
C1599 C1596 1.386 . S
C1600 C1595 1.490 . S
C1600 C1602 1.395 . S
C1600 C1603 1.403 . S
H1601 C1607 0.930 . S
C1602 H1588 0.930 . S
C1602 C1600 1.395 . S
C1602 C1605 1.403 . S
C1603 C1600 1.403 . S
C1603 C1604 1.524 . S
C1603 C1607 1.400 . S
C1604 H1589 0.960 . S
C1604 H1590 0.960 . S
C1604 H1591 0.960 . S
C1604 C1603 1.524 . S
C1605 C1602 1.403 . S
C1605 C1606 1.392 . S
C1605 C1609 1.495 . S
C1606 C1605 1.392 . S
C1606 C1607 1.385 . S
C1606 C1608 1.478 . S
C1607 H1601 0.930 . S
C1607 C1603 1.400 . S
C1607 C1606 1.385 . S
C1608 C1606 1.478 . S
C1608 C1610 1.381 . S
C1608 C1614 1.383 . S
C1609 C1605 1.495 . S
C1609 H1615 0.959 . S
C1609 H1616 0.961 . S
C1609 H1617 0.960 . S
C1610 C1608 1.381 . S
C1610 C1611 1.394 . S
C1610 H1618 0.930 . S
C1611 C1610 1.394 . S
C1611 C1612 1.383 . S
C1611 H1619 0.929 . S
C1612 C1611 1.383 . S
C1612 C1613 1.377 . S
C1613 H1597 0.930 . S
C1613 C1612 1.377 . S
C1613 C1614 1.379 . S
C1614 H1598 0.931 . S
C1614 C1608 1.383 . S
C1614 C1613 1.379 . S
H1615 C1609 0.959 . S
H1616 C1609 0.961 . S
H1617 C1609 0.960 . S
H1618 C1610 0.930 . S
H1619 C1611 0.929 . S
H1620 C1628 0.929 . S
H1621 C1630 0.930 . S
H1622 C1632 0.930 . S
H1623 C1635 0.929 . S
H1624 C1638 0.930 . S
H1625 C1640 0.960 . S
H1626 C1640 0.960 . S
H1627 C1640 0.960 . S
C1628 H1620 0.929 . S
C1628 C1629 1.377 . S
C1628 C1630 1.384 . S
C1629 C1628 1.377 . S
C1629 C1635 1.390 . S
C1630 H1621 0.930 . S
C1630 C1628 1.384 . S
C1630 C1631 1.372 . S
C1631 C1630 1.372 . S
C1631 C1632 1.400 . S
C1631 C1636 1.490 . S
C1632 H1622 0.930 . S
C1632 C1631 1.400 . S
C1632 C1635 1.386 . S
H1633 C1649 0.930 . S
H1634 C1650 0.931 . S
C1635 H1623 0.929 . S
C1635 C1629 1.390 . S
C1635 C1632 1.386 . S
C1636 C1631 1.490 . S
C1636 C1638 1.395 . S
C1636 C1639 1.403 . S
H1637 C1643 0.930 . S
C1638 H1624 0.930 . S
C1638 C1636 1.395 . S
C1638 C1641 1.403 . S
C1639 C1636 1.403 . S
C1639 C1640 1.524 . S
C1639 C1643 1.400 . S
C1640 H1625 0.960 . S
C1640 H1626 0.960 . S
C1640 H1627 0.960 . S
C1640 C1639 1.524 . S
C1641 C1638 1.403 . S
C1641 C1642 1.392 . S
C1641 C1645 1.495 . S
C1642 C1641 1.392 . S
C1642 C1643 1.385 . S
C1642 C1644 1.478 . S
C1643 H1637 0.930 . S
C1643 C1639 1.400 . S
C1643 C1642 1.385 . S
C1644 C1642 1.478 . S
C1644 C1646 1.381 . S
C1644 C1650 1.383 . S
C1645 C1641 1.495 . S
C1645 H1651 0.959 . S
C1645 H1652 0.961 . S
C1645 H1653 0.960 . S
C1646 C1644 1.381 . S
C1646 C1647 1.394 . S
C1646 H1654 0.930 . S
C1647 C1646 1.394 . S
C1647 C1648 1.383 . S
C1647 H1655 0.929 . S
C1648 C1647 1.383 . S
C1648 C1649 1.377 . S
C1649 H1633 0.930 . S
C1649 C1648 1.377 . S
C1649 C1650 1.379 . S
C1650 H1634 0.931 . S
C1650 C1644 1.383 . S
C1650 C1649 1.379 . S
H1651 C1645 0.959 . S
H1652 C1645 0.961 . S
H1653 C1645 0.960 . S
H1654 C1646 0.930 . S
H1655 C1647 0.929 . S
H1656 C1664 0.929 . S
H1657 C1666 0.930 . S
H1658 C1668 0.930 . S
H1659 C1671 0.929 . S
H1660 C1674 0.930 . S
H1661 C1676 0.960 . S
H1662 C1676 0.960 . S
H1663 C1676 0.960 . S
C1664 H1656 0.929 . S
C1664 C1665 1.377 . S
C1664 C1666 1.384 . S
C1665 C1664 1.377 . S
C1665 C1671 1.390 . S
C1666 H1657 0.930 . S
C1666 C1664 1.384 . S
C1666 C1667 1.372 . S
C1667 C1666 1.372 . S
C1667 C1668 1.400 . S
C1667 C1672 1.490 . S
C1668 H1658 0.930 . S
C1668 C1667 1.400 . S
C1668 C1671 1.386 . S
H1669 C1685 0.930 . S
H1670 C1686 0.931 . S
C1671 H1659 0.929 . S
C1671 C1665 1.390 . S
C1671 C1668 1.386 . S
C1672 C1667 1.490 . S
C1672 C1674 1.395 . S
C1672 C1675 1.403 . S
H1673 C1679 0.930 . S
C1674 H1660 0.930 . S
C1674 C1672 1.395 . S
C1674 C1677 1.403 . S
C1675 C1672 1.403 . S
C1675 C1676 1.524 . S
C1675 C1679 1.400 . S
C1676 H1661 0.960 . S
C1676 H1662 0.960 . S
C1676 H1663 0.960 . S
C1676 C1675 1.524 . S
C1677 C1674 1.403 . S
C1677 C1678 1.392 . S
C1677 C1681 1.495 . S
C1678 C1677 1.392 . S
C1678 C1679 1.385 . S
C1678 C1680 1.478 . S
C1679 H1673 0.930 . S
C1679 C1675 1.400 . S
C1679 C1678 1.385 . S
C1680 C1678 1.478 . S
C1680 C1682 1.381 . S
C1680 C1686 1.383 . S
C1681 C1677 1.495 . S
C1681 H1687 0.959 . S
C1681 H1688 0.961 . S
C1681 H1689 0.960 . S
C1682 C1680 1.381 . S
C1682 C1683 1.394 . S
C1682 H1690 0.930 . S
C1683 C1682 1.394 . S
C1683 C1684 1.383 . S
C1683 H1691 0.929 . S
C1684 C1683 1.383 . S
C1684 C1685 1.377 . S
C1685 H1669 0.930 . S
C1685 C1684 1.377 . S
C1685 C1686 1.379 . S
C1686 H1670 0.931 . S
C1686 C1680 1.383 . S
C1686 C1685 1.379 . S
H1687 C1681 0.959 . S
H1688 C1681 0.961 . S
H1689 C1681 0.960 . S
H1690 C1682 0.930 . S
H1691 C1683 0.929 . S
H1692 C1700 0.929 . S
H1693 C1702 0.930 . S
H1694 C1704 0.930 . S
H1695 C1707 0.929 . S
H1696 C1710 0.930 . S
H1697 C1712 0.960 . S
H1698 C1712 0.960 . S
H1699 C1712 0.960 . S
C1700 H1692 0.929 . S
C1700 C1701 1.377 . S
C1700 C1702 1.384 . S
C1701 C1700 1.377 . S
C1701 C1707 1.390 . S
C1702 H1693 0.930 . S
C1702 C1700 1.384 . S
C1702 C1703 1.372 . S
C1703 C1702 1.372 . S
C1703 C1704 1.400 . S
C1703 C1708 1.490 . S
C1704 H1694 0.930 . S
C1704 C1703 1.400 . S
C1704 C1707 1.386 . S
H1705 C1721 0.930 . S
H1706 C1722 0.931 . S
C1707 H1695 0.929 . S
C1707 C1701 1.390 . S
C1707 C1704 1.386 . S
C1708 C1703 1.490 . S
C1708 C1710 1.395 . S
C1708 C1711 1.403 . S
H1709 C1715 0.930 . S
C1710 H1696 0.930 . S
C1710 C1708 1.395 . S
C1710 C1713 1.403 . S
C1711 C1708 1.403 . S
C1711 C1712 1.524 . S
C1711 C1715 1.400 . S
C1712 H1697 0.960 . S
C1712 H1698 0.960 . S
C1712 H1699 0.960 . S
C1712 C1711 1.524 . S
C1713 C1710 1.403 . S
C1713 C1714 1.392 . S
C1713 C1717 1.495 . S
C1714 C1713 1.392 . S
C1714 C1715 1.385 . S
C1714 C1716 1.478 . S
C1715 H1709 0.930 . S
C1715 C1711 1.400 . S
C1715 C1714 1.385 . S
C1716 C1714 1.478 . S
C1716 C1718 1.381 . S
C1716 C1722 1.383 . S
C1717 C1713 1.495 . S
C1717 H1723 0.959 . S
C1717 H1724 0.961 . S
C1717 H1725 0.960 . S
C1718 C1716 1.381 . S
C1718 C1719 1.394 . S
C1718 H1726 0.930 . S
C1719 C1718 1.394 . S
C1719 C1720 1.383 . S
C1719 H1727 0.929 . S
C1720 C1719 1.383 . S
C1720 C1721 1.377 . S
C1721 H1705 0.930 . S
C1721 C1720 1.377 . S
C1721 C1722 1.379 . S
C1722 H1706 0.931 . S
C1722 C1716 1.383 . S
C1722 C1721 1.379 . S
H1723 C1717 0.959 . S
H1724 C1717 0.961 . S
H1725 C1717 0.960 . S
H1726 C1718 0.930 . S
H1727 C1719 0.929 . S
H1728 C1736 0.929 . S
H1729 C1738 0.930 1_565 S
H1730 C1740 0.930 . S
H1731 C1743 0.929 . S
H1732 C1746 0.930 . S
H1733 C1748 0.960 . S
H1734 C1748 0.960 . S
H1735 C1748 0.960 . S
C1736 H1728 0.929 . S
C1736 C1737 1.377 . S
C1736 C1738 1.384 . S
C1737 C1736 1.377 . S
C1737 C1743 1.390 . S
C1738 H1729 0.930 1_545 S
C1738 C1736 1.384 . S
C1738 C1739 1.372 1_545 S
C1739 C1738 1.372 1_565 S
C1739 C1740 1.400 1_565 S
C1739 C1744 1.490 . S
C1740 H1730 0.930 . S
C1740 C1739 1.400 1_545 S
C1740 C1743 1.386 . S
H1741 C1757 0.930 . S
H1742 C1758 0.931 . S
C1743 H1731 0.929 . S
C1743 C1737 1.390 . S
C1743 C1740 1.386 . S
C1744 C1739 1.490 . S
C1744 C1746 1.395 . S
C1744 C1747 1.403 . S
H1745 C1751 0.930 . S
C1746 H1732 0.930 . S
C1746 C1744 1.395 . S
C1746 C1749 1.403 . S
C1747 C1744 1.403 . S
C1747 C1748 1.524 . S
C1747 C1751 1.400 . S
C1748 H1733 0.960 . S
C1748 H1734 0.960 . S
C1748 H1735 0.960 . S
C1748 C1747 1.524 . S
C1749 C1746 1.403 . S
C1749 C1750 1.392 . S
C1749 C1753 1.495 . S
C1750 C1749 1.392 . S
C1750 C1751 1.385 . S
C1750 C1752 1.478 . S
C1751 H1745 0.930 . S
C1751 C1747 1.400 . S
C1751 C1750 1.385 . S
C1752 C1750 1.478 . S
C1752 C1754 1.381 . S
C1752 C1758 1.383 . S
C1753 C1749 1.495 . S
C1753 H1759 0.959 . S
C1753 H1760 0.961 . S
C1753 H1761 0.960 . S
C1754 C1752 1.381 . S
C1754 C1755 1.394 . S
C1754 H1762 0.930 . S
C1755 C1754 1.394 . S
C1755 C1756 1.383 . S
C1755 H1763 0.929 . S
C1756 C1755 1.383 . S
C1756 C1757 1.377 . S
C1757 H1741 0.930 . S
C1757 C1756 1.377 . S
C1757 C1758 1.379 . S
C1758 H1742 0.931 . S
C1758 C1752 1.383 . S
C1758 C1757 1.379 . S
H1759 C1753 0.959 . S
H1760 C1753 0.961 . S
H1761 C1753 0.960 . S
H1762 C1754 0.930 . S
H1763 C1755 0.929 . S
H1764 C1772 0.929 . S
H1765 C1774 0.930 . S
H1766 C1776 0.930 . S
H1767 C1779 0.929 . S
H1768 C1782 0.930 . S
H1769 C1784 0.960 . S
H1770 C1784 0.960 . S
H1771 C1784 0.960 . S
C1772 H1764 0.929 . S
C1772 C1773 1.377 . S
C1772 C1774 1.384 1_655 S
C1773 C1772 1.377 . S
C1773 C1779 1.390 . S
C1774 H1765 0.930 . S
C1774 C1772 1.384 1_455 S
C1774 C1775 1.372 . S
C1775 C1774 1.372 . S
C1775 C1776 1.400 . S
C1775 C1780 1.490 . S
C1776 H1766 0.930 . S
C1776 C1775 1.400 . S
C1776 C1779 1.386 1_455 S
H1777 C1793 0.930 . S
H1778 C1794 0.931 . S
C1779 H1767 0.929 . S
C1779 C1773 1.390 . S
C1779 C1776 1.386 1_655 S
C1780 C1775 1.490 . S
C1780 C1782 1.395 . S
C1780 C1783 1.403 . S
H1781 C1787 0.930 . S
C1782 H1768 0.930 . S
C1782 C1780 1.395 . S
C1782 C1785 1.403 . S
C1783 C1780 1.403 . S
C1783 C1784 1.524 . S
C1783 C1787 1.400 . S
C1784 H1769 0.960 . S
C1784 H1770 0.960 . S
C1784 H1771 0.960 . S
C1784 C1783 1.524 . S
C1785 C1782 1.403 . S
C1785 C1786 1.392 . S
C1785 C1789 1.495 . S
C1786 C1785 1.392 . S
C1786 C1787 1.385 . S
C1786 C1788 1.478 . S
C1787 H1781 0.930 . S
C1787 C1783 1.400 . S
C1787 C1786 1.385 . S
C1788 C1786 1.478 . S
C1788 C1790 1.381 . S
C1788 C1794 1.383 . S
C1789 C1785 1.495 . S
C1789 H1795 0.959 . S
C1789 H1796 0.961 . S
C1789 H1797 0.960 . S
C1790 C1788 1.381 . S
C1790 C1791 1.394 . S
C1790 H1798 0.930 . S
C1791 C1790 1.394 . S
C1791 C1792 1.383 . S
C1791 H1799 0.929 . S
C1792 C1791 1.383 . S
C1792 C1793 1.377 . S
C1793 H1777 0.930 . S
C1793 C1792 1.377 . S
C1793 C1794 1.379 . S
C1794 H1778 0.931 . S
C1794 C1788 1.383 . S
C1794 C1793 1.379 . S
H1795 C1789 0.959 . S
H1796 C1789 0.961 . S
H1797 C1789 0.960 . S
H1798 C1790 0.930 . S
H1799 C1791 0.929 . S
H1800 C1808 0.929 . S
H1801 C1810 0.930 . S
H1802 C1812 0.930 . S
H1803 C1815 0.929 . S
H1804 C1818 0.930 . S
H1805 C1820 0.960 . S
H1806 C1820 0.960 . S
H1807 C1820 0.960 . S
C1808 H1800 0.929 . S
C1808 C1809 1.377 . S
C1808 C1810 1.384 . S
C1809 C1808 1.377 . S
C1809 C1815 1.390 . S
C1810 H1801 0.930 . S
C1810 C1808 1.384 . S
C1810 C1811 1.372 . S
C1811 C1810 1.372 . S
C1811 C1812 1.400 . S
C1811 C1816 1.490 . S
C1812 H1802 0.930 . S
C1812 C1811 1.400 . S
C1812 C1815 1.386 . S
H1813 C1829 0.930 . S
H1814 C1830 0.931 . S
C1815 H1803 0.929 . S
C1815 C1809 1.390 . S
C1815 C1812 1.386 . S
C1816 C1811 1.490 . S
C1816 C1818 1.395 . S
C1816 C1819 1.403 . S
H1817 C1823 0.930 . S
C1818 H1804 0.930 . S
C1818 C1816 1.395 . S
C1818 C1821 1.403 . S
C1819 C1816 1.403 . S
C1819 C1820 1.524 . S
C1819 C1823 1.400 . S
C1820 H1805 0.960 . S
C1820 H1806 0.960 . S
C1820 H1807 0.960 . S
C1820 C1819 1.524 . S
C1821 C1818 1.403 . S
C1821 C1822 1.392 . S
C1821 C1825 1.495 . S
C1822 C1821 1.392 . S
C1822 C1823 1.385 . S
C1822 C1824 1.478 . S
C1823 H1817 0.930 . S
C1823 C1819 1.400 . S
C1823 C1822 1.385 . S
C1824 C1822 1.478 . S
C1824 C1826 1.381 . S
C1824 C1830 1.383 . S
C1825 C1821 1.495 . S
C1825 H1831 0.959 . S
C1825 H1832 0.961 . S
C1825 H1833 0.960 . S
C1826 C1824 1.381 . S
C1826 C1827 1.394 . S
C1826 H1834 0.930 . S
C1827 C1826 1.394 . S
C1827 C1828 1.383 . S
C1827 H1835 0.929 . S
C1828 C1827 1.383 . S
C1828 C1829 1.377 . S
C1829 H1813 0.930 . S
C1829 C1828 1.377 . S
C1829 C1830 1.379 . S
C1830 H1814 0.931 . S
C1830 C1824 1.383 . S
C1830 C1829 1.379 . S
H1831 C1825 0.959 . S
H1832 C1825 0.961 . S
H1833 C1825 0.960 . S
H1834 C1826 0.930 . S
H1835 C1827 0.929 . S
H1836 C1844 0.929 . S
H1837 C1846 0.930 . S
H1838 C1848 0.930 . S
H1839 C1851 0.929 . S
H1840 C1854 0.930 . S
H1841 C1856 0.960 . S
H1842 C1856 0.960 . S
H1843 C1856 0.960 . S
C1844 H1836 0.929 . S
C1844 C1845 1.377 . S
C1844 C1846 1.384 . S
C1845 C1844 1.377 . S
C1845 C1851 1.390 . S
C1846 H1837 0.930 . S
C1846 C1844 1.384 . S
C1846 C1847 1.372 . S
C1847 C1846 1.372 . S
C1847 C1848 1.400 . S
C1847 C1852 1.490 . S
C1848 H1838 0.930 . S
C1848 C1847 1.400 . S
C1848 C1851 1.386 . S
H1849 C1865 0.930 . S
H1850 C1866 0.931 . S
C1851 H1839 0.929 . S
C1851 C1845 1.390 . S
C1851 C1848 1.386 . S
C1852 C1847 1.490 . S
C1852 C1854 1.395 . S
C1852 C1855 1.403 . S
H1853 C1859 0.930 . S
C1854 H1840 0.930 . S
C1854 C1852 1.395 . S
C1854 C1857 1.403 . S
C1855 C1852 1.403 . S
C1855 C1856 1.524 . S
C1855 C1859 1.400 . S
C1856 H1841 0.960 . S
C1856 H1842 0.960 . S
C1856 H1843 0.960 . S
C1856 C1855 1.524 . S
C1857 C1854 1.403 . S
C1857 C1858 1.392 . S
C1857 C1861 1.495 . S
C1858 C1857 1.392 . S
C1858 C1859 1.385 . S
C1858 C1860 1.478 . S
C1859 H1853 0.930 . S
C1859 C1855 1.400 . S
C1859 C1858 1.385 . S
C1860 C1858 1.478 . S
C1860 C1862 1.381 . S
C1860 C1866 1.383 . S
C1861 C1857 1.495 . S
C1861 H1867 0.959 . S
C1861 H1868 0.961 . S
C1861 H1869 0.960 . S
C1862 C1860 1.381 . S
C1862 C1863 1.394 . S
C1862 H1870 0.930 . S
C1863 C1862 1.394 . S
C1863 C1864 1.383 . S
C1863 H1871 0.929 . S
C1864 C1863 1.383 . S
C1864 C1865 1.377 . S
C1865 H1849 0.930 . S
C1865 C1864 1.377 . S
C1865 C1866 1.379 . S
C1866 H1850 0.931 . S
C1866 C1860 1.383 . S
C1866 C1865 1.379 . S
H1867 C1861 0.959 . S
H1868 C1861 0.961 . S
H1869 C1861 0.960 . S
H1870 C1862 0.930 . S
H1871 C1863 0.929 . S
H1872 C1880 0.929 . S
H1873 C1882 0.930 . S
H1874 C1884 0.930 . S
H1875 C1887 0.929 . S
H1876 C1890 0.930 . S
H1877 C1892 0.960 . S
H1878 C1892 0.960 . S
H1879 C1892 0.960 . S
C1880 H1872 0.929 . S
C1880 C1881 1.377 . S
C1880 C1882 1.384 . S
C1881 C1880 1.377 . S
C1881 C1887 1.390 . S
C1882 H1873 0.930 . S
C1882 C1880 1.384 . S
C1882 C1883 1.372 . S
C1883 C1882 1.372 . S
C1883 C1884 1.400 . S
C1883 C1888 1.490 . S
C1884 H1874 0.930 . S
C1884 C1883 1.400 . S
C1884 C1887 1.386 . S
H1885 C1901 0.930 . S
H1886 C1902 0.931 . S
C1887 H1875 0.929 . S
C1887 C1881 1.390 . S
C1887 C1884 1.386 . S
C1888 C1883 1.490 . S
C1888 C1890 1.395 . S
C1888 C1891 1.403 . S
H1889 C1895 0.930 . S
C1890 H1876 0.930 . S
C1890 C1888 1.395 . S
C1890 C1893 1.403 . S
C1891 C1888 1.403 . S
C1891 C1892 1.524 . S
C1891 C1895 1.400 . S
C1892 H1877 0.960 . S
C1892 H1878 0.960 . S
C1892 H1879 0.960 . S
C1892 C1891 1.524 . S
C1893 C1890 1.403 . S
C1893 C1894 1.392 . S
C1893 C1897 1.495 . S
C1894 C1893 1.392 . S
C1894 C1895 1.385 . S
C1894 C1896 1.478 . S
C1895 H1889 0.930 . S
C1895 C1891 1.400 . S
C1895 C1894 1.385 . S
C1896 C1894 1.478 . S
C1896 C1898 1.381 . S
C1896 C1902 1.383 . S
C1897 C1893 1.495 . S
C1897 H1903 0.959 . S
C1897 H1904 0.961 . S
C1897 H1905 0.960 . S
C1898 C1896 1.381 . S
C1898 C1899 1.394 . S
C1898 H1906 0.930 . S
C1899 C1898 1.394 . S
C1899 C1900 1.383 . S
C1899 H1907 0.929 . S
C1900 C1899 1.383 . S
C1900 C1901 1.377 . S
C1901 H1885 0.930 . S
C1901 C1900 1.377 . S
C1901 C1902 1.379 . S
C1902 H1886 0.931 . S
C1902 C1896 1.383 . S
C1902 C1901 1.379 . S
H1903 C1897 0.959 . S
H1904 C1897 0.961 . S
H1905 C1897 0.960 . S
H1906 C1898 0.930 . S
H1907 C1899 0.929 . S
H1908 C1916 0.929 . S
H1909 C1918 0.930 . S
H1910 C1920 0.930 . S
H1911 C1923 0.929 . S
H1912 C1926 0.930 . S
H1913 C1928 0.960 . S
H1914 C1928 0.960 . S
H1915 C1928 0.960 . S
C1916 H1908 0.929 . S
C1916 C1917 1.377 . S
C1916 C1918 1.384 . S
C1917 C1916 1.377 . S
C1917 C1923 1.390 . S
C1918 H1909 0.930 . S
C1918 C1916 1.384 . S
C1918 C1919 1.372 . S
C1919 C1918 1.372 . S
C1919 C1920 1.400 . S
C1919 C1924 1.490 . S
C1920 H1910 0.930 . S
C1920 C1919 1.400 . S
C1920 C1923 1.386 . S
H1921 C1937 0.930 . S
H1922 C1938 0.931 . S
C1923 H1911 0.929 . S
C1923 C1917 1.390 . S
C1923 C1920 1.386 . S
C1924 C1919 1.490 . S
C1924 C1926 1.395 . S
C1924 C1927 1.403 . S
H1925 C1931 0.930 . S
C1926 H1912 0.930 . S
C1926 C1924 1.395 . S
C1926 C1929 1.403 . S
C1927 C1924 1.403 . S
C1927 C1928 1.524 . S
C1927 C1931 1.400 . S
C1928 H1913 0.960 . S
C1928 H1914 0.960 . S
C1928 H1915 0.960 . S
C1928 C1927 1.524 . S
C1929 C1926 1.403 . S
C1929 C1930 1.392 . S
C1929 C1933 1.495 . S
C1930 C1929 1.392 . S
C1930 C1931 1.385 . S
C1930 C1932 1.478 . S
C1931 H1925 0.930 . S
C1931 C1927 1.400 . S
C1931 C1930 1.385 . S
C1932 C1930 1.478 . S
C1932 C1934 1.381 . S
C1932 C1938 1.383 . S
C1933 C1929 1.495 . S
C1933 H1939 0.959 . S
C1933 H1940 0.961 . S
C1933 H1941 0.960 . S
C1934 C1932 1.381 . S
C1934 C1935 1.394 . S
C1934 H1942 0.930 . S
C1935 C1934 1.394 . S
C1935 C1936 1.383 . S
C1935 H1943 0.929 . S
C1936 C1935 1.383 . S
C1936 C1937 1.377 . S
C1937 H1921 0.930 . S
C1937 C1936 1.377 . S
C1937 C1938 1.379 . S
C1938 H1922 0.931 . S
C1938 C1932 1.383 . S
C1938 C1937 1.379 . S
H1939 C1933 0.959 . S
H1940 C1933 0.961 . S
H1941 C1933 0.960 . S
H1942 C1934 0.930 . S
H1943 C1935 0.929 . S
H1944 C1952 0.929 . S
H1945 C1954 0.930 . S
H1946 C1956 0.930 . S
H1947 C1959 0.929 . S
H1948 C1962 0.930 . S
H1949 C1964 0.960 . S
H1950 C1964 0.951 1_565 S
H1951 C1964 0.960 . S
C1952 H1944 0.929 . S
C1952 C1953 1.377 . S
C1952 C1954 1.384 . S
C1953 C1952 1.377 . S
C1953 C1959 1.390 . S
C1954 H1945 0.930 . S
C1954 C1952 1.384 . S
C1954 C1955 1.372 . S
C1955 C1954 1.372 . S
C1955 C1956 1.400 . S
C1955 C1960 1.490 . S
C1956 H1946 0.930 . S
C1956 C1955 1.400 . S
C1956 C1959 1.386 . S
H1957 C1973 0.930 . S
H1958 C1974 0.931 . S
C1959 H1947 0.929 . S
C1959 C1953 1.390 . S
C1959 C1956 1.386 . S
C1960 C1955 1.490 . S
C1960 C1962 1.395 . S
C1960 C1963 1.403 1_565 S
H1961 C1967 0.930 . S
C1962 H1948 0.930 . S
C1962 C1960 1.395 . S
C1962 C1965 1.403 1_565 S
C1963 C1960 1.403 1_545 S
C1963 C1964 1.524 . S
C1963 C1967 1.400 . S
C1964 H1949 0.960 . S
C1964 H1950 0.951 1_545 S
C1964 H1951 0.960 . S
C1964 C1963 1.524 . S
C1965 C1962 1.403 1_545 S
C1965 C1966 1.392 . S
C1965 C1969 1.495 . S
C1966 C1965 1.392 . S
C1966 C1967 1.385 . S
C1966 C1968 1.478 . S
C1967 H1961 0.930 . S
C1967 C1963 1.400 . S
C1967 C1966 1.385 . S
C1968 C1966 1.478 . S
C1968 C1970 1.381 . S
C1968 C1974 1.383 . S
C1969 C1965 1.495 . S
C1969 H1975 0.959 1_545 S
C1969 H1976 0.961 . S
C1969 H1977 0.960 . S
C1970 C1968 1.381 . S
C1970 C1971 1.394 . S
C1970 H1978 0.930 . S
C1971 C1970 1.394 . S
C1971 C1972 1.383 . S
C1971 H1979 0.929 . S
C1972 C1971 1.383 . S
C1972 C1973 1.377 . S
C1973 H1957 0.930 . S
C1973 C1972 1.377 . S
C1973 C1974 1.379 . S
C1974 H1958 0.931 . S
C1974 C1968 1.383 . S
C1974 C1973 1.379 . S
H1975 C1969 0.959 1_565 S
H1976 C1969 0.961 . S
H1977 C1969 0.960 . S
H1978 C1970 0.930 . S
H1979 C1971 0.929 . S
H1980 C1988 0.929 . S
H1981 C1990 0.930 . S
H1982 C1992 0.930 . S
H1983 C1995 0.929 . S
H1984 C1998 0.930 . S
H1985 C2000 0.960 . S
H1986 C2000 0.960 . S
H1987 C2000 0.960 . S
C1988 H1980 0.929 . S
C1988 C1989 1.377 . S
C1988 C1990 1.384 . S
C1989 C1988 1.377 . S
C1989 C1995 1.390 . S
C1990 H1981 0.930 . S
C1990 C1988 1.384 . S
C1990 C1991 1.372 . S
C1991 C1990 1.372 . S
C1991 C1992 1.400 . S
C1991 C1996 1.490 . S
C1992 H1982 0.930 . S
C1992 C1991 1.400 . S
C1992 C1995 1.386 . S
H1993 C2009 0.930 . S
H1994 C2010 0.931 . S
C1995 H1983 0.929 . S
C1995 C1989 1.390 . S
C1995 C1992 1.386 . S
C1996 C1991 1.490 . S
C1996 C1998 1.395 . S
C1996 C1999 1.403 . S
H1997 C2003 0.930 . S
C1998 H1984 0.930 . S
C1998 C1996 1.395 . S
C1998 C2001 1.403 1_455 S
C1999 C1996 1.403 . S
C1999 C2000 1.524 . S
C1999 C2003 1.400 1_455 S
C2000 H1985 0.960 . S
C2000 H1986 0.960 . S
C2000 H1987 0.960 . S
C2000 C1999 1.524 . S
C2001 C1998 1.403 1_655 S
C2001 C2002 1.392 . S
C2001 C2005 1.495 . S
C2002 C2001 1.392 . S
C2002 C2003 1.385 . S
C2002 C2004 1.478 . S
C2003 H1997 0.930 . S
C2003 C1999 1.400 1_655 S
C2003 C2002 1.385 . S
C2004 C2002 1.478 . S
C2004 C2006 1.381 . S
C2004 C2010 1.383 . S
C2005 C2001 1.495 . S
C2005 H2011 0.959 . S
C2005 H2012 0.961 . S
C2005 H2013 0.960 . S
C2006 C2004 1.381 . S
C2006 C2007 1.394 . S
C2006 H2014 0.930 . S
C2007 C2006 1.394 . S
C2007 C2008 1.383 . S
C2007 H2015 0.929 . S
C2008 C2007 1.383 . S
C2008 C2009 1.377 . S
C2009 H1993 0.930 . S
C2009 C2008 1.377 . S
C2009 C2010 1.379 . S
C2010 H1994 0.931 . S
C2010 C2004 1.383 . S
C2010 C2009 1.379 . S
H2011 C2005 0.959 . S
H2012 C2005 0.961 . S
H2013 C2005 0.960 . S
H2014 C2006 0.930 . S
H2015 C2007 0.929 . S
H2016 C2024 0.929 . S
H2017 C2026 0.930 . S
H2018 C2028 0.930 . S
H2019 C2031 0.929 . S
H2020 C2034 0.930 . S
H2021 C2036 0.960 . S
H2022 C2036 0.960 . S
H2023 C2036 0.960 . S
C2024 H2016 0.929 . S
C2024 C2025 1.377 . S
C2024 C2026 1.384 . S
C2025 C2024 1.377 . S
C2025 C2031 1.390 . S
C2026 H2017 0.930 . S
C2026 C2024 1.384 . S
C2026 C2027 1.372 . S
C2027 C2026 1.372 . S
C2027 C2028 1.400 . S
C2027 C2032 1.490 . S
C2028 H2018 0.930 . S
C2028 C2027 1.400 . S
C2028 C2031 1.386 . S
H2029 C2045 0.930 . S
H2030 C2046 0.931 . S
C2031 H2019 0.929 . S
C2031 C2025 1.390 . S
C2031 C2028 1.386 . S
C2032 C2027 1.490 . S
C2032 C2034 1.395 . S
C2032 C2035 1.403 . S
H2033 C2039 0.930 . S
C2034 H2020 0.930 . S
C2034 C2032 1.395 . S
C2034 C2037 1.403 . S
C2035 C2032 1.403 . S
C2035 C2036 1.524 . S
C2035 C2039 1.400 . S
C2036 H2021 0.960 . S
C2036 H2022 0.960 . S
C2036 H2023 0.960 . S
C2036 C2035 1.524 . S
C2037 C2034 1.403 . S
C2037 C2038 1.392 . S
C2037 C2041 1.495 . S
C2038 C2037 1.392 . S
C2038 C2039 1.385 . S
C2038 C2040 1.478 . S
C2039 H2033 0.930 . S
C2039 C2035 1.400 . S
C2039 C2038 1.385 . S
C2040 C2038 1.478 . S
C2040 C2042 1.381 . S
C2040 C2046 1.383 . S
C2041 C2037 1.495 . S
C2041 H2047 0.959 . S
C2041 H2048 0.961 . S
C2041 H2049 0.960 . S
C2042 C2040 1.381 . S
C2042 C2043 1.394 . S
C2042 H2050 0.930 . S
C2043 C2042 1.394 . S
C2043 C2044 1.383 . S
C2043 H2051 0.929 . S
C2044 C2043 1.383 . S
C2044 C2045 1.377 . S
C2045 H2029 0.930 . S
C2045 C2044 1.377 . S
C2045 C2046 1.379 . S
C2046 H2030 0.931 . S
C2046 C2040 1.383 . S
C2046 C2045 1.379 . S
H2047 C2041 0.959 . S
H2048 C2041 0.961 . S
H2049 C2041 0.960 . S
H2050 C2042 0.930 . S
H2051 C2043 0.929 . S
H2052 C2060 0.929 . S
H2053 C2062 0.930 . S
H2054 C2064 0.930 . S
H2055 C2067 0.929 . S
H2056 C2070 0.930 . S
H2057 C2072 0.960 . S
H2058 C2072 0.960 . S
H2059 C2072 0.960 . S
C2060 H2052 0.929 . S
C2060 C2061 1.377 . S
C2060 C2062 1.384 1_455 S
C2061 C2060 1.377 . S
C2061 C2067 1.390 . S
C2062 H2053 0.930 . S
C2062 C2060 1.384 1_655 S
C2062 C2063 1.372 . S
C2063 C2062 1.372 . S
C2063 C2064 1.400 1_655 S
C2063 C2068 1.490 . S
C2064 H2054 0.930 . S
C2064 C2063 1.400 1_455 S
C2064 C2067 1.386 . S
H2065 C2081 0.930 . S
H2066 C2082 0.931 . S
C2067 H2055 0.929 . S
C2067 C2061 1.390 . S
C2067 C2064 1.386 . S
C2068 C2063 1.490 . S
C2068 C2070 1.395 . S
C2068 C2071 1.403 . S
H2069 C2075 0.930 . S
C2070 H2056 0.930 . S
C2070 C2068 1.395 . S
C2070 C2073 1.403 . S
C2071 C2068 1.403 . S
C2071 C2072 1.524 . S
C2071 C2075 1.400 . S
C2072 H2057 0.960 . S
C2072 H2058 0.960 . S
C2072 H2059 0.960 . S
C2072 C2071 1.524 . S
C2073 C2070 1.403 . S
C2073 C2074 1.392 . S
C2073 C2077 1.495 . S
C2074 C2073 1.392 . S
C2074 C2075 1.385 . S
C2074 C2076 1.478 . S
C2075 H2069 0.930 . S
C2075 C2071 1.400 . S
C2075 C2074 1.385 . S
C2076 C2074 1.478 . S
C2076 C2078 1.381 . S
C2076 C2082 1.383 . S
C2077 C2073 1.495 . S
C2077 H2083 0.959 . S
C2077 H2084 0.961 . S
C2077 H2085 0.960 . S
C2078 C2076 1.381 . S
C2078 C2079 1.394 . S
C2078 H2086 0.930 . S
C2079 C2078 1.394 . S
C2079 C2080 1.383 . S
C2079 H2087 0.929 . S
C2080 C2079 1.383 . S
C2080 C2081 1.377 . S
C2081 H2065 0.930 . S
C2081 C2080 1.377 . S
C2081 C2082 1.379 . S
C2082 H2066 0.931 . S
C2082 C2076 1.383 . S
C2082 C2081 1.379 . S
H2083 C2077 0.959 . S
H2084 C2077 0.961 . S
H2085 C2077 0.960 . S
H2086 C2078 0.930 . S
H2087 C2079 0.929 . S
H2088 C2096 0.929 . S
H2089 C2098 0.930 . S
H2090 C2100 0.930 . S
H2091 C2103 0.929 . S
H2092 C2106 0.930 . S
H2093 C2108 0.960 . S
H2094 C2108 0.960 . S
H2095 C2108 0.960 . S
C2096 H2088 0.929 . S
C2096 C2097 1.377 . S
C2096 C2098 1.384 . S
C2097 C2096 1.377 . S
C2097 C2103 1.390 . S
C2098 H2089 0.930 . S
C2098 C2096 1.384 . S
C2098 C2099 1.372 . S
C2099 C2098 1.372 . S
C2099 C2100 1.400 . S
C2099 C2104 1.490 . S
C2100 H2090 0.930 . S
C2100 C2099 1.400 . S
C2100 C2103 1.386 . S
H2101 C2117 0.930 . S
H2102 C2118 0.931 . S
C2103 H2091 0.929 . S
C2103 C2097 1.390 . S
C2103 C2100 1.386 . S
C2104 C2099 1.490 . S
C2104 C2106 1.395 . S
C2104 C2107 1.403 . S
H2105 C2111 0.930 . S
C2106 H2092 0.930 . S
C2106 C2104 1.395 . S
C2106 C2109 1.403 . S
C2107 C2104 1.403 . S
C2107 C2108 1.524 . S
C2107 C2111 1.400 . S
C2108 H2093 0.960 . S
C2108 H2094 0.960 . S
C2108 H2095 0.960 . S
C2108 C2107 1.524 . S
C2109 C2106 1.403 . S
C2109 C2110 1.392 . S
C2109 C2113 1.495 . S
C2110 C2109 1.392 . S
C2110 C2111 1.385 . S
C2110 C2112 1.478 . S
C2111 H2105 0.930 . S
C2111 C2107 1.400 . S
C2111 C2110 1.385 . S
C2112 C2110 1.478 . S
C2112 C2114 1.381 . S
C2112 C2118 1.383 . S
C2113 C2109 1.495 . S
C2113 H2119 0.959 . S
C2113 H2120 0.961 . S
C2113 H2121 0.960 . S
C2114 C2112 1.381 . S
C2114 C2115 1.394 . S
C2114 H2122 0.930 . S
C2115 C2114 1.394 . S
C2115 C2116 1.383 . S
C2115 H2123 0.929 . S
C2116 C2115 1.383 . S
C2116 C2117 1.377 . S
C2117 H2101 0.930 . S
C2117 C2116 1.377 . S
C2117 C2118 1.379 . S
C2118 H2102 0.931 . S
C2118 C2112 1.383 . S
C2118 C2117 1.379 . S
H2119 C2113 0.959 . S
H2120 C2113 0.961 . S
H2121 C2113 0.960 . S
H2122 C2114 0.930 . S
H2123 C2115 0.929 . S
H2124 C2132 0.929 . S
H2125 C2134 0.932 . S
H2126 C2136 0.930 . S
H2127 C2139 0.929 . S
H2128 C2142 0.930 . S
H2129 C2144 0.960 . S
H2130 C2144 0.960 . S
H2131 C2144 0.960 . S
C2132 H2124 0.929 . S
C2132 C2133 1.377 . S
C2132 C2134 1.369 1_565 S
C2133 C2132 1.377 . S
C2133 C2139 1.390 . S
C2134 H2125 0.932 . S
C2134 C2132 1.369 1_545 S
C2134 C2135 1.385 . S
C2135 C2134 1.385 . S
C2135 C2136 1.400 . S
C2135 C2140 1.490 . S
C2136 H2126 0.930 . S
C2136 C2135 1.400 . S
C2136 C2139 1.386 1_545 S
H2137 C2153 0.930 . S
H2138 C2154 0.931 . S
C2139 H2127 0.929 . S
C2139 C2133 1.390 . S
C2139 C2136 1.386 1_565 S
C2140 C2135 1.490 . S
C2140 C2142 1.395 . S
C2140 C2143 1.403 . S
H2141 C2147 0.930 . S
C2142 H2128 0.930 . S
C2142 C2140 1.395 . S
C2142 C2145 1.403 . S
C2143 C2140 1.403 . S
C2143 C2144 1.524 . S
C2143 C2147 1.400 . S
C2144 H2129 0.960 . S
C2144 H2130 0.960 . S
C2144 H2131 0.960 . S
C2144 C2143 1.524 . S
C2145 C2142 1.403 . S
C2145 C2146 1.392 . S
C2145 C2149 1.495 . S
C2146 C2145 1.392 . S
C2146 C2147 1.385 . S
C2146 C2148 1.478 . S
C2147 H2141 0.930 . S
C2147 C2143 1.400 . S
C2147 C2146 1.385 . S
C2148 C2146 1.478 . S
C2148 C2150 1.381 . S
C2148 C2154 1.383 . S
C2149 C2145 1.495 . S
C2149 H2155 0.959 . S
C2149 H2156 0.961 . S
C2149 H2157 0.960 . S
C2150 C2148 1.381 . S
C2150 C2151 1.394 . S
C2150 H2158 0.930 . S
C2151 C2150 1.394 . S
C2151 C2152 1.383 . S
C2151 H2159 0.929 . S
C2152 C2151 1.383 . S
C2152 C2153 1.377 . S
C2153 H2137 0.930 . S
C2153 C2152 1.377 . S
C2153 C2154 1.379 . S
C2154 H2138 0.931 . S
C2154 C2148 1.383 . S
C2154 C2153 1.379 . S
H2155 C2149 0.959 . S
H2156 C2149 0.961 . S
H2157 C2149 0.960 . S
H2158 C2150 0.930 . S
H2159 C2151 0.929 . S
H2160 C2168 0.929 . S
H2161 C2170 0.930 . S
H2162 C2172 0.930 . S
H2163 C2175 0.929 . S
H2164 C2178 0.930 . S
H2165 C2180 0.960 . S
H2166 C2180 0.960 . S
H2167 C2180 0.960 . S
C2168 H2160 0.929 . S
C2168 C2169 1.377 . S
C2168 C2170 1.384 . S
C2169 C2168 1.377 . S
C2169 C2175 1.390 . S
C2170 H2161 0.930 . S
C2170 C2168 1.384 . S
C2170 C2171 1.372 . S
C2171 C2170 1.372 . S
C2171 C2172 1.400 . S
C2171 C2176 1.490 . S
C2172 H2162 0.930 . S
C2172 C2171 1.400 . S
C2172 C2175 1.386 . S
H2173 C2189 0.930 . S
H2174 C2190 0.931 . S
C2175 H2163 0.929 . S
C2175 C2169 1.390 . S
C2175 C2172 1.386 . S
C2176 C2171 1.490 . S
C2176 C2178 1.395 . S
C2176 C2179 1.403 . S
H2177 C2183 0.930 . S
C2178 H2164 0.930 . S
C2178 C2176 1.395 . S
C2178 C2181 1.403 . S
C2179 C2176 1.403 . S
C2179 C2180 1.524 . S
C2179 C2183 1.400 . S
C2180 H2165 0.960 . S
C2180 H2166 0.960 . S
C2180 H2167 0.960 . S
C2180 C2179 1.524 . S
C2181 C2178 1.403 . S
C2181 C2182 1.392 . S
C2181 C2185 1.495 . S
C2182 C2181 1.392 . S
C2182 C2183 1.385 . S
C2182 C2184 1.478 . S
C2183 H2177 0.930 . S
C2183 C2179 1.400 . S
C2183 C2182 1.385 . S
C2184 C2182 1.478 . S
C2184 C2186 1.381 . S
C2184 C2190 1.383 . S
C2185 C2181 1.495 . S
C2185 H2191 0.959 . S
C2185 H2192 0.961 . S
C2185 H2193 0.960 . S
C2186 C2184 1.381 . S
C2186 C2187 1.394 . S
C2186 H2194 0.930 . S
C2187 C2186 1.394 . S
C2187 C2188 1.383 . S
C2187 H2195 0.929 . S
C2188 C2187 1.383 . S
C2188 C2189 1.377 . S
C2189 H2173 0.930 . S
C2189 C2188 1.377 . S
C2189 C2190 1.379 . S
C2190 H2174 0.931 . S
C2190 C2184 1.383 . S
C2190 C2189 1.379 . S
H2191 C2185 0.959 . S
H2192 C2185 0.961 . S
H2193 C2185 0.960 . S
H2194 C2186 0.930 . S
H2195 C2187 0.929 . S
H2196 C2204 0.929 . S
H2197 C2206 0.930 . S
H2198 C2208 0.930 . S
H2199 C2211 0.929 . S
H2200 C2214 0.930 . S
H2201 C2216 0.960 . S
H2202 C2216 0.960 . S
H2203 C2216 0.960 . S
C2204 H2196 0.929 . S
C2204 C2205 1.377 . S
C2204 C2206 1.384 . S
C2205 C2204 1.377 . S
C2205 C2211 1.390 . S
C2206 H2197 0.930 . S
C2206 C2204 1.384 . S
C2206 C2207 1.372 . S
C2207 C2206 1.372 . S
C2207 C2208 1.400 . S
C2207 C2212 1.490 . S
C2208 H2198 0.930 . S
C2208 C2207 1.400 . S
C2208 C2211 1.386 . S
H2209 C2225 0.930 . S
H2210 C2226 0.931 . S
C2211 H2199 0.929 . S
C2211 C2205 1.390 . S
C2211 C2208 1.386 . S
C2212 C2207 1.490 . S
C2212 C2214 1.395 . S
C2212 C2215 1.403 . S
H2213 C2219 0.930 . S
C2214 H2200 0.930 . S
C2214 C2212 1.395 . S
C2214 C2217 1.403 . S
C2215 C2212 1.403 . S
C2215 C2216 1.524 . S
C2215 C2219 1.400 . S
C2216 H2201 0.960 . S
C2216 H2202 0.960 . S
C2216 H2203 0.960 . S
C2216 C2215 1.524 . S
C2217 C2214 1.403 . S
C2217 C2218 1.392 . S
C2217 C2221 1.495 . S
C2218 C2217 1.392 . S
C2218 C2219 1.385 . S
C2218 C2220 1.478 . S
C2219 H2213 0.930 . S
C2219 C2215 1.400 . S
C2219 C2218 1.385 . S
C2220 C2218 1.478 . S
C2220 C2222 1.381 . S
C2220 C2226 1.383 . S
C2221 C2217 1.495 . S
C2221 H2227 0.959 . S
C2221 H2228 0.961 . S
C2221 H2229 0.960 . S
C2222 C2220 1.381 . S
C2222 C2223 1.394 . S
C2222 H2230 0.930 . S
C2223 C2222 1.394 . S
C2223 C2224 1.383 . S
C2223 H2231 0.929 . S
C2224 C2223 1.383 . S
C2224 C2225 1.377 . S
C2225 H2209 0.930 . S
C2225 C2224 1.377 . S
C2225 C2226 1.379 . S
C2226 H2210 0.931 . S
C2226 C2220 1.383 . S
C2226 C2225 1.379 . S
H2227 C2221 0.959 . S
H2228 C2221 0.961 . S
H2229 C2221 0.960 . S
H2230 C2222 0.930 . S
H2231 C2223 0.929 . S
H2232 C2240 0.929 . S
H2233 C2242 0.930 . S
H2234 C2244 0.930 . S
H2235 C2247 0.929 . S
H2236 C2250 0.930 . S
H2237 C2252 0.960 . S
H2238 C2252 0.960 . S
H2239 C2252 0.960 . S
C2240 H2232 0.929 . S
C2240 C2241 1.377 . S
C2240 C2242 1.384 . S
C2241 C2240 1.377 . S
C2241 C2247 1.390 . S
C2242 H2233 0.930 . S
C2242 C2240 1.384 . S
C2242 C2243 1.372 . S
C2243 C2242 1.372 . S
C2243 C2244 1.400 . S
C2243 C2248 1.490 . S
C2244 H2234 0.930 . S
C2244 C2243 1.400 . S
C2244 C2247 1.386 . S
H2245 C2261 0.930 . S
H2246 C2262 0.931 . S
C2247 H2235 0.929 . S
C2247 C2241 1.390 . S
C2247 C2244 1.386 . S
C2248 C2243 1.490 . S
C2248 C2250 1.395 . S
C2248 C2251 1.403 . S
H2249 C2255 0.930 . S
C2250 H2236 0.930 . S
C2250 C2248 1.395 . S
C2250 C2253 1.403 . S
C2251 C2248 1.403 . S
C2251 C2252 1.524 . S
C2251 C2255 1.400 . S
C2252 H2237 0.960 . S
C2252 H2238 0.960 . S
C2252 H2239 0.960 . S
C2252 C2251 1.524 . S
C2253 C2250 1.403 . S
C2253 C2254 1.392 . S
C2253 C2257 1.495 . S
C2254 C2253 1.392 . S
C2254 C2255 1.385 . S
C2254 C2256 1.478 . S
C2255 H2249 0.930 . S
C2255 C2251 1.400 . S
C2255 C2254 1.385 . S
C2256 C2254 1.478 . S
C2256 C2258 1.381 . S
C2256 C2262 1.383 . S
C2257 C2253 1.495 . S
C2257 H2263 0.959 . S
C2257 H2264 0.961 . S
C2257 H2265 0.960 . S
C2258 C2256 1.381 . S
C2258 C2259 1.394 . S
C2258 H2266 0.930 . S
C2259 C2258 1.394 . S
C2259 C2260 1.383 . S
C2259 H2267 0.929 . S
C2260 C2259 1.383 . S
C2260 C2261 1.377 . S
C2261 H2245 0.930 . S
C2261 C2260 1.377 . S
C2261 C2262 1.379 . S
C2262 H2246 0.931 . S
C2262 C2256 1.383 . S
C2262 C2261 1.379 . S
H2263 C2257 0.959 . S
H2264 C2257 0.961 . S
H2265 C2257 0.960 . S
H2266 C2258 0.930 . S
H2267 C2259 0.929 . S
H2268 C2276 0.929 . S
H2269 C2278 0.930 . S
H2270 C2280 0.930 . S
H2271 C2283 0.929 . S
H2272 C2286 0.930 . S
H2273 C2288 0.960 . S
H2274 C2288 0.960 . S
H2275 C2288 0.960 . S
C2276 H2268 0.929 . S
C2276 C2277 1.377 . S
C2276 C2278 1.384 . S
C2277 C2276 1.377 . S
C2277 C2283 1.390 . S
C2278 H2269 0.930 . S
C2278 C2276 1.384 . S
C2278 C2279 1.372 . S
C2279 C2278 1.372 . S
C2279 C2280 1.400 . S
C2279 C2284 1.490 . S
C2280 H2270 0.930 . S
C2280 C2279 1.400 . S
C2280 C2283 1.386 . S
H2281 C2297 0.930 . S
H2282 C2298 0.931 . S
C2283 H2271 0.929 . S
C2283 C2277 1.390 . S
C2283 C2280 1.386 . S
C2284 C2279 1.490 . S
C2284 C2286 1.395 . S
C2284 C2287 1.403 . S
H2285 C2291 0.930 . S
C2286 H2272 0.930 . S
C2286 C2284 1.395 . S
C2286 C2289 1.403 . S
C2287 C2284 1.403 . S
C2287 C2288 1.524 . S
C2287 C2291 1.400 . S
C2288 H2273 0.960 . S
C2288 H2274 0.960 . S
C2288 H2275 0.960 . S
C2288 C2287 1.524 . S
C2289 C2286 1.403 . S
C2289 C2290 1.392 . S
C2289 C2293 1.495 . S
C2290 C2289 1.392 . S
C2290 C2291 1.385 . S
C2290 C2292 1.478 . S
C2291 H2285 0.930 . S
C2291 C2287 1.400 . S
C2291 C2290 1.385 . S
C2292 C2290 1.478 . S
C2292 C2294 1.381 . S
C2292 C2298 1.383 . S
C2293 C2289 1.495 . S
C2293 H2299 0.959 . S
C2293 H2300 0.961 . S
C2293 H2301 0.960 . S
C2294 C2292 1.381 . S
C2294 C2295 1.394 . S
C2294 H2302 0.930 . S
C2295 C2294 1.394 . S
C2295 C2296 1.383 . S
C2295 H2303 0.929 . S
C2296 C2295 1.383 . S
C2296 C2297 1.377 . S
C2297 H2281 0.930 . S
C2297 C2296 1.377 . S
C2297 C2298 1.379 . S
C2298 H2282 0.931 . S
C2298 C2292 1.383 . S
C2298 C2297 1.379 . S
H2299 C2293 0.959 . S
H2300 C2293 0.961 . S
H2301 C2293 0.960 . S
H2302 C2294 0.930 . S
H2303 C2295 0.929 . S
H2304 C2312 0.929 . S
H2305 C2314 0.930 . S
H2306 C2316 0.930 . S
H2307 C2319 0.929 . S
H2308 C2322 0.930 . S
H2309 C2324 0.960 . S
H2310 C2324 0.960 . S
H2311 C2324 0.960 . S
C2312 H2304 0.929 . S
C2312 C2313 1.377 . S
C2312 C2314 1.384 . S
C2313 C2312 1.377 . S
C2313 C2319 1.390 . S
C2314 H2305 0.930 . S
C2314 C2312 1.384 . S
C2314 C2315 1.372 . S
C2315 C2314 1.372 . S
C2315 C2316 1.400 . S
C2315 C2320 1.490 . S
C2316 H2306 0.930 . S
C2316 C2315 1.400 . S
C2316 C2319 1.386 . S
H2317 C2333 0.930 . S
H2318 C2334 0.931 . S
C2319 H2307 0.929 . S
C2319 C2313 1.390 . S
C2319 C2316 1.386 . S
C2320 C2315 1.490 . S
C2320 C2322 1.395 . S
C2320 C2323 1.403 . S
H2321 C2327 0.930 . S
C2322 H2308 0.930 . S
C2322 C2320 1.395 . S
C2322 C2325 1.403 . S
C2323 C2320 1.403 . S
C2323 C2324 1.524 . S
C2323 C2327 1.400 . S
C2324 H2309 0.960 . S
C2324 H2310 0.960 . S
C2324 H2311 0.960 . S
C2324 C2323 1.524 . S
C2325 C2322 1.403 . S
C2325 C2326 1.392 . S
C2325 C2329 1.495 . S
C2326 C2325 1.392 . S
C2326 C2327 1.385 . S
C2326 C2328 1.478 . S
C2327 H2321 0.930 . S
C2327 C2323 1.400 . S
C2327 C2326 1.385 . S
C2328 C2326 1.478 . S
C2328 C2330 1.381 . S
C2328 C2334 1.383 . S
C2329 C2325 1.495 . S
C2329 H2335 0.959 . S
C2329 H2336 0.961 . S
C2329 H2337 0.960 . S
C2330 C2328 1.381 . S
C2330 C2331 1.394 . S
C2330 H2338 0.930 . S
C2331 C2330 1.394 . S
C2331 C2332 1.383 . S
C2331 H2339 0.929 . S
C2332 C2331 1.383 . S
C2332 C2333 1.377 . S
C2333 H2317 0.930 . S
C2333 C2332 1.377 . S
C2333 C2334 1.379 . S
C2334 H2318 0.931 . S
C2334 C2328 1.383 . S
C2334 C2333 1.379 . S
H2335 C2329 0.959 . S
H2336 C2329 0.961 . S
H2337 C2329 0.960 . S
H2338 C2330 0.930 . S
H2339 C2331 0.929 . S
H2340 C2348 0.929 . S
H2341 C2350 0.930 . S
H2342 C2352 0.930 . S
H2343 C2355 0.929 . S
H2344 C2358 0.930 . S
H2345 C2360 0.960 . S
H2346 C2360 0.960 . S
H2347 C2360 0.960 . S
C2348 H2340 0.929 . S
C2348 C2349 1.377 . S
C2348 C2350 1.384 . S
C2349 C2348 1.377 . S
C2349 C2355 1.390 . S
C2350 H2341 0.930 . S
C2350 C2348 1.384 . S
C2350 C2351 1.372 . S
C2351 C2350 1.372 . S
C2351 C2352 1.400 . S
C2351 C2356 1.490 . S
C2352 H2342 0.930 . S
C2352 C2351 1.400 . S
C2352 C2355 1.386 . S
H2353 C2369 0.930 . S
H2354 C2370 0.931 . S
C2355 H2343 0.929 . S
C2355 C2349 1.390 . S
C2355 C2352 1.386 . S
C2356 C2351 1.490 . S
C2356 C2358 1.395 . S
C2356 C2359 1.403 . S
H2357 C2363 0.930 . S
C2358 H2344 0.930 . S
C2358 C2356 1.395 . S
C2358 C2361 1.403 . S
C2359 C2356 1.403 . S
C2359 C2360 1.524 . S
C2359 C2363 1.400 . S
C2360 H2345 0.960 . S
C2360 H2346 0.960 . S
C2360 H2347 0.960 . S
C2360 C2359 1.524 . S
C2361 C2358 1.403 . S
C2361 C2362 1.392 . S
C2361 C2365 1.495 . S
C2362 C2361 1.392 . S
C2362 C2363 1.385 . S
C2362 C2364 1.478 . S
C2363 H2357 0.930 . S
C2363 C2359 1.400 . S
C2363 C2362 1.385 . S
C2364 C2362 1.478 . S
C2364 C2366 1.381 . S
C2364 C2370 1.383 . S
C2365 C2361 1.495 . S
C2365 H2371 0.959 . S
C2365 H2372 0.961 . S
C2365 H2373 0.960 . S
C2366 C2364 1.381 . S
C2366 C2367 1.394 . S
C2366 H2374 0.930 . S
C2367 C2366 1.394 . S
C2367 C2368 1.383 . S
C2367 H2375 0.929 . S
C2368 C2367 1.383 . S
C2368 C2369 1.377 . S
C2369 H2353 0.930 . S
C2369 C2368 1.377 . S
C2369 C2370 1.379 . S
C2370 H2354 0.931 . S
C2370 C2364 1.383 . S
C2370 C2369 1.379 . S
H2371 C2365 0.959 . S
H2372 C2365 0.961 . S
H2373 C2365 0.960 . S
H2374 C2366 0.930 . S
H2375 C2367 0.929 . S
H2376 C2384 0.929 . S
H2377 C2386 0.930 . S
H2378 C2388 0.930 . S
H2379 C2391 0.929 . S
H2380 C2394 0.930 . S
H2381 C2396 0.960 . S
H2382 C2396 0.960 . S
H2383 C2396 0.960 . S
C2384 H2376 0.929 . S
C2384 C2385 1.377 . S
C2384 C2386 1.384 . S
C2385 C2384 1.377 . S
C2385 C2391 1.390 . S
C2386 H2377 0.930 . S
C2386 C2384 1.384 . S
C2386 C2387 1.372 . S
C2387 C2386 1.372 . S
C2387 C2388 1.400 . S
C2387 C2392 1.490 . S
C2388 H2378 0.930 . S
C2388 C2387 1.400 . S
C2388 C2391 1.386 . S
H2389 C2405 0.930 . S
H2390 C2406 0.931 . S
C2391 H2379 0.929 . S
C2391 C2385 1.390 . S
C2391 C2388 1.386 . S
C2392 C2387 1.490 . S
C2392 C2394 1.395 . S
C2392 C2395 1.403 . S
H2393 C2399 0.930 . S
C2394 H2380 0.930 . S
C2394 C2392 1.395 . S
C2394 C2397 1.403 . S
C2395 C2392 1.403 . S
C2395 C2396 1.524 . S
C2395 C2399 1.400 . S
C2396 H2381 0.960 . S
C2396 H2382 0.960 . S
C2396 H2383 0.960 . S
C2396 C2395 1.524 . S
C2397 C2394 1.403 . S
C2397 C2398 1.392 . S
C2397 C2401 1.495 . S
C2398 C2397 1.392 . S
C2398 C2399 1.385 . S
C2398 C2400 1.478 . S
C2399 H2393 0.930 . S
C2399 C2395 1.400 . S
C2399 C2398 1.385 . S
C2400 C2398 1.478 . S
C2400 C2402 1.381 . S
C2400 C2406 1.383 . S
C2401 C2397 1.495 . S
C2401 H2407 0.959 . S
C2401 H2408 0.961 . S
C2401 H2409 0.960 . S
C2402 C2400 1.381 . S
C2402 C2403 1.394 . S
C2402 H2410 0.930 . S
C2403 C2402 1.394 . S
C2403 C2404 1.383 . S
C2403 H2411 0.929 . S
C2404 C2403 1.383 . S
C2404 C2405 1.377 . S
C2405 H2389 0.930 . S
C2405 C2404 1.377 . S
C2405 C2406 1.379 . S
C2406 H2390 0.931 . S
C2406 C2400 1.383 . S
C2406 C2405 1.379 . S
H2407 C2401 0.959 . S
H2408 C2401 0.961 . S
H2409 C2401 0.960 . S
H2410 C2402 0.930 . S
H2411 C2403 0.929 . S
H2412 C2420 0.929 . S
H2413 C2422 0.930 . S
H2414 C2424 0.930 . S
H2415 C2427 0.929 . S
H2416 C2430 0.930 . S
H2417 C2432 0.960 . S
H2418 C2432 0.960 . S
H2419 C2432 0.960 . S
C2420 H2412 0.929 . S
C2420 C2421 1.377 . S
C2420 C2422 1.384 . S
C2421 C2420 1.377 . S
C2421 C2427 1.390 . S
C2422 H2413 0.930 . S
C2422 C2420 1.384 . S
C2422 C2423 1.372 . S
C2423 C2422 1.372 . S
C2423 C2424 1.400 . S
C2423 C2428 1.490 . S
C2424 H2414 0.930 . S
C2424 C2423 1.400 . S
C2424 C2427 1.386 . S
H2425 C2441 0.930 . S
H2426 C2442 0.931 . S
C2427 H2415 0.929 . S
C2427 C2421 1.390 . S
C2427 C2424 1.386 . S
C2428 C2423 1.490 . S
C2428 C2430 1.395 . S
C2428 C2431 1.403 . S
H2429 C2435 0.930 . S
C2430 H2416 0.930 . S
C2430 C2428 1.395 . S
C2430 C2433 1.403 . S
C2431 C2428 1.403 . S
C2431 C2432 1.524 . S
C2431 C2435 1.400 . S
C2432 H2417 0.960 . S
C2432 H2418 0.960 . S
C2432 H2419 0.960 . S
C2432 C2431 1.524 . S
C2433 C2430 1.403 . S
C2433 C2434 1.392 . S
C2433 C2437 1.495 . S
C2434 C2433 1.392 . S
C2434 C2435 1.385 . S
C2434 C2436 1.478 . S
C2435 H2429 0.930 . S
C2435 C2431 1.400 . S
C2435 C2434 1.385 . S
C2436 C2434 1.478 . S
C2436 C2438 1.381 . S
C2436 C2442 1.383 . S
C2437 C2433 1.495 . S
C2437 H2443 0.959 . S
C2437 H2444 0.961 . S
C2437 H2445 0.960 . S
C2438 C2436 1.381 . S
C2438 C2439 1.394 . S
C2438 H2446 0.930 . S
C2439 C2438 1.394 . S
C2439 C2440 1.383 . S
C2439 H2447 0.929 . S
C2440 C2439 1.383 . S
C2440 C2441 1.377 . S
C2441 H2425 0.930 . S
C2441 C2440 1.377 . S
C2441 C2442 1.379 . S
C2442 H2426 0.931 . S
C2442 C2436 1.383 . S
C2442 C2441 1.379 . S
H2443 C2437 0.959 . S
H2444 C2437 0.961 . S
H2445 C2437 0.960 . S
H2446 C2438 0.930 . S
H2447 C2439 0.929 . S
H2448 C2456 0.929 . S
H2449 C2458 0.930 . S
H2450 C2460 0.930 . S
H2451 C2463 0.929 . S
H2452 C2466 0.930 . S
H2453 C2468 0.960 . S
H2454 C2468 0.960 . S
H2455 C2468 0.960 . S
C2456 H2448 0.929 . S
C2456 C2457 1.377 . S
C2456 C2458 1.384 . S
C2457 C2456 1.377 . S
C2457 C2463 1.390 . S
C2458 H2449 0.930 . S
C2458 C2456 1.384 . S
C2458 C2459 1.372 . S
C2459 C2458 1.372 . S
C2459 C2460 1.400 . S
C2459 C2464 1.490 . S
C2460 H2450 0.930 . S
C2460 C2459 1.400 . S
C2460 C2463 1.386 . S
H2461 C2477 0.930 . S
H2462 C2478 0.931 . S
C2463 H2451 0.929 . S
C2463 C2457 1.390 . S
C2463 C2460 1.386 . S
C2464 C2459 1.490 . S
C2464 C2466 1.395 . S
C2464 C2467 1.403 . S
H2465 C2471 0.930 . S
C2466 H2452 0.930 . S
C2466 C2464 1.395 . S
C2466 C2469 1.403 . S
C2467 C2464 1.403 . S
C2467 C2468 1.524 . S
C2467 C2471 1.400 . S
C2468 H2453 0.960 . S
C2468 H2454 0.960 . S
C2468 H2455 0.960 . S
C2468 C2467 1.524 . S
C2469 C2466 1.403 . S
C2469 C2470 1.392 . S
C2469 C2473 1.495 . S
C2470 C2469 1.392 . S
C2470 C2471 1.385 . S
C2470 C2472 1.478 . S
C2471 H2465 0.930 . S
C2471 C2467 1.400 . S
C2471 C2470 1.385 . S
C2472 C2470 1.478 . S
C2472 C2474 1.381 . S
C2472 C2478 1.383 . S
C2473 C2469 1.495 . S
C2473 H2479 0.959 . S
C2473 H2480 0.961 . S
C2473 H2481 0.960 . S
C2474 C2472 1.381 . S
C2474 C2475 1.394 . S
C2474 H2482 0.930 . S
C2475 C2474 1.394 . S
C2475 C2476 1.383 . S
C2475 H2483 0.929 . S
C2476 C2475 1.383 . S
C2476 C2477 1.377 . S
C2477 H2461 0.930 . S
C2477 C2476 1.377 . S
C2477 C2478 1.379 . S
C2478 H2462 0.931 . S
C2478 C2472 1.383 . S
C2478 C2477 1.379 . S
H2479 C2473 0.959 . S
H2480 C2473 0.961 . S
H2481 C2473 0.960 . S
H2482 C2474 0.930 . S
H2483 C2475 0.929 . S
H2484 C2492 0.929 . S
H2485 C2494 0.930 . S
H2486 C2496 0.930 . S
H2487 C2499 0.929 . S
H2488 C2502 0.930 . S
H2489 C2504 0.960 . S
H2490 C2504 0.960 . S
H2491 C2504 0.960 . S
C2492 H2484 0.929 . S
C2492 C2493 1.377 . S
C2492 C2494 1.384 . S
C2493 C2492 1.377 . S
C2493 C2499 1.390 . S
C2494 H2485 0.930 . S
C2494 C2492 1.384 . S
C2494 C2495 1.372 . S
C2495 C2494 1.372 . S
C2495 C2496 1.400 . S
C2495 C2500 1.490 . S
C2496 H2486 0.930 . S
C2496 C2495 1.400 . S
C2496 C2499 1.386 . S
H2497 C2513 0.930 . S
H2498 C2514 0.931 . S
C2499 H2487 0.929 . S
C2499 C2493 1.390 . S
C2499 C2496 1.386 . S
C2500 C2495 1.490 . S
C2500 C2502 1.395 . S
C2500 C2503 1.403 . S
H2501 C2507 0.930 . S
C2502 H2488 0.930 . S
C2502 C2500 1.395 . S
C2502 C2505 1.403 . S
C2503 C2500 1.403 . S
C2503 C2504 1.524 . S
C2503 C2507 1.400 . S
C2504 H2489 0.960 . S
C2504 H2490 0.960 . S
C2504 H2491 0.960 . S
C2504 C2503 1.524 . S
C2505 C2502 1.403 . S
C2505 C2506 1.392 . S
C2505 C2509 1.495 . S
C2506 C2505 1.392 . S
C2506 C2507 1.385 . S
C2506 C2508 1.478 . S
C2507 H2501 0.930 . S
C2507 C2503 1.400 . S
C2507 C2506 1.385 . S
C2508 C2506 1.478 . S
C2508 C2510 1.381 . S
C2508 C2514 1.383 . S
C2509 C2505 1.495 . S
C2509 H2515 0.959 . S
C2509 H2516 0.961 . S
C2509 H2517 0.960 . S
C2510 C2508 1.381 . S
C2510 C2511 1.394 . S
C2510 H2518 0.930 . S
C2511 C2510 1.394 . S
C2511 C2512 1.383 . S
C2511 H2519 0.929 . S
C2512 C2511 1.383 . S
C2512 C2513 1.377 . S
C2513 H2497 0.930 . S
C2513 C2512 1.377 . S
C2513 C2514 1.379 . S
C2514 H2498 0.931 . S
C2514 C2508 1.383 . S
C2514 C2513 1.379 . S
H2515 C2509 0.959 . S
H2516 C2509 0.961 . S
H2517 C2509 0.960 . S
H2518 C2510 0.930 . S
H2519 C2511 0.929 . S
H2520 C2528 0.929 . S
H2521 C2530 0.930 . S
H2522 C2532 0.930 . S
H2523 C2535 0.929 . S
H2524 C2538 0.930 . S
H2525 C2540 0.960 . S
H2526 C2540 0.960 . S
H2527 C2540 0.960 . S
C2528 H2520 0.929 . S
C2528 C2529 1.377 . S
C2528 C2530 1.384 . S
C2529 C2528 1.377 . S
C2529 C2535 1.390 . S
C2530 H2521 0.930 . S
C2530 C2528 1.384 . S
C2530 C2531 1.372 . S
C2531 C2530 1.372 . S
C2531 C2532 1.400 . S
C2531 C2536 1.490 . S
C2532 H2522 0.930 . S
C2532 C2531 1.400 . S
C2532 C2535 1.386 . S
H2533 C2549 0.930 . S
H2534 C2550 0.931 . S
C2535 H2523 0.929 . S
C2535 C2529 1.390 . S
C2535 C2532 1.386 . S
C2536 C2531 1.490 . S
C2536 C2538 1.395 . S
C2536 C2539 1.403 . S
H2537 C2543 0.930 . S
C2538 H2524 0.930 . S
C2538 C2536 1.395 . S
C2538 C2541 1.403 . S
C2539 C2536 1.403 . S
C2539 C2540 1.524 . S
C2539 C2543 1.400 . S
C2540 H2525 0.960 . S
C2540 H2526 0.960 . S
C2540 H2527 0.960 . S
C2540 C2539 1.524 . S
C2541 C2538 1.403 . S
C2541 C2542 1.392 . S
C2541 C2545 1.495 . S
C2542 C2541 1.392 . S
C2542 C2543 1.385 . S
C2542 C2544 1.478 . S
C2543 H2537 0.930 . S
C2543 C2539 1.400 . S
C2543 C2542 1.385 . S
C2544 C2542 1.478 . S
C2544 C2546 1.381 . S
C2544 C2550 1.383 . S
C2545 C2541 1.495 . S
C2545 H2551 0.959 . S
C2545 H2552 0.961 . S
C2545 H2553 0.960 . S
C2546 C2544 1.381 . S
C2546 C2547 1.394 . S
C2546 H2554 0.930 . S
C2547 C2546 1.394 . S
C2547 C2548 1.383 . S
C2547 H2555 0.929 . S
C2548 C2547 1.383 . S
C2548 C2549 1.377 . S
C2549 H2533 0.930 . S
C2549 C2548 1.377 . S
C2549 C2550 1.379 . S
C2550 H2534 0.931 . S
C2550 C2544 1.383 . S
C2550 C2549 1.379 . S
H2551 C2545 0.959 . S
H2552 C2545 0.961 . S
H2553 C2545 0.960 . S
H2554 C2546 0.930 . S
H2555 C2547 0.929 . S
H2556 C2564 0.929 . S
H2557 C2566 0.930 . S
H2558 C2568 0.930 . S
H2559 C2571 0.929 . S
H2560 C2574 0.930 . S
H2561 C2576 0.960 . S
H2562 C2576 0.960 . S
H2563 C2576 0.960 . S
C2564 H2556 0.929 . S
C2564 C2565 1.377 . S
C2564 C2566 1.384 . S
C2565 C2564 1.377 . S
C2565 C2571 1.390 . S
C2566 H2557 0.930 . S
C2566 C2564 1.384 . S
C2566 C2567 1.372 . S
C2567 C2566 1.372 . S
C2567 C2568 1.400 . S
C2567 C2572 1.490 . S
C2568 H2558 0.930 . S
C2568 C2567 1.400 . S
C2568 C2571 1.386 . S
H2569 C2585 0.930 . S
H2570 C2586 0.931 . S
C2571 H2559 0.929 . S
C2571 C2565 1.390 . S
C2571 C2568 1.386 . S
C2572 C2567 1.490 . S
C2572 C2574 1.395 . S
C2572 C2575 1.403 . S
H2573 C2579 0.930 . S
C2574 H2560 0.930 . S
C2574 C2572 1.395 . S
C2574 C2577 1.403 . S
C2575 C2572 1.403 . S
C2575 C2576 1.524 . S
C2575 C2579 1.400 . S
C2576 H2561 0.960 . S
C2576 H2562 0.960 . S
C2576 H2563 0.960 . S
C2576 C2575 1.524 . S
C2577 C2574 1.403 . S
C2577 C2578 1.392 . S
C2577 C2581 1.495 . S
C2578 C2577 1.392 . S
C2578 C2579 1.385 . S
C2578 C2580 1.478 . S
C2579 H2573 0.930 . S
C2579 C2575 1.400 . S
C2579 C2578 1.385 . S
C2580 C2578 1.478 . S
C2580 C2582 1.381 . S
C2580 C2586 1.383 . S
C2581 C2577 1.495 . S
C2581 H2587 0.959 . S
C2581 H2588 0.961 . S
C2581 H2589 0.960 . S
C2582 C2580 1.381 . S
C2582 C2583 1.394 . S
C2582 H2590 0.930 . S
C2583 C2582 1.394 . S
C2583 C2584 1.383 . S
C2583 H2591 0.929 . S
C2584 C2583 1.383 . S
C2584 C2585 1.377 . S
C2585 H2569 0.930 . S
C2585 C2584 1.377 . S
C2585 C2586 1.379 . S
C2586 H2570 0.931 . S
C2586 C2580 1.383 . S
C2586 C2585 1.379 . S
H2587 C2581 0.959 . S
H2588 C2581 0.961 . S
H2589 C2581 0.960 . S
H2590 C2582 0.930 . S
H2591 C2583 0.929 . S
H2592 C2600 0.929 . S
H2593 C2602 0.930 . S
H2594 C2604 0.930 . S
H2595 C2607 0.929 . S
H2596 C2610 0.930 . S
H2597 C2612 0.960 . S
H2598 C2612 0.960 . S
H2599 C2612 0.960 . S
C2600 H2592 0.929 . S
C2600 C2601 1.377 . S
C2600 C2602 1.384 . S
C2601 C2600 1.377 . S
C2601 C2607 1.390 . S
C2602 H2593 0.930 . S
C2602 C2600 1.384 . S
C2602 C2603 1.372 . S
C2603 C2602 1.372 . S
C2603 C2604 1.400 . S
C2603 C2608 1.490 . S
C2604 H2594 0.930 . S
C2604 C2603 1.400 . S
C2604 C2607 1.386 . S
H2605 C2621 0.930 . S
H2606 C2622 0.931 . S
C2607 H2595 0.929 . S
C2607 C2601 1.390 . S
C2607 C2604 1.386 . S
C2608 C2603 1.490 . S
C2608 C2610 1.395 . S
C2608 C2611 1.403 . S
H2609 C2615 0.930 . S
C2610 H2596 0.930 . S
C2610 C2608 1.395 . S
C2610 C2613 1.403 . S
C2611 C2608 1.403 . S
C2611 C2612 1.524 . S
C2611 C2615 1.400 . S
C2612 H2597 0.960 . S
C2612 H2598 0.960 . S
C2612 H2599 0.960 . S
C2612 C2611 1.524 . S
C2613 C2610 1.403 . S
C2613 C2614 1.392 . S
C2613 C2617 1.495 . S
C2614 C2613 1.392 . S
C2614 C2615 1.385 . S
C2614 C2616 1.478 . S
C2615 H2609 0.930 . S
C2615 C2611 1.400 . S
C2615 C2614 1.385 . S
C2616 C2614 1.478 . S
C2616 C2618 1.381 . S
C2616 C2622 1.383 . S
C2617 C2613 1.495 . S
C2617 H2623 0.959 . S
C2617 H2624 0.961 . S
C2617 H2625 0.960 . S
C2618 C2616 1.381 . S
C2618 C2619 1.394 . S
C2618 H2626 0.930 . S
C2619 C2618 1.394 . S
C2619 C2620 1.383 . S
C2619 H2627 0.929 . S
C2620 C2619 1.383 . S
C2620 C2621 1.377 . S
C2621 H2605 0.930 . S
C2621 C2620 1.377 . S
C2621 C2622 1.379 . S
C2622 H2606 0.931 . S
C2622 C2616 1.383 . S
C2622 C2621 1.379 . S
H2623 C2617 0.959 . S
H2624 C2617 0.961 . S
H2625 C2617 0.960 . S
H2626 C2618 0.930 . S
H2627 C2619 0.929 . S
H2628 C2636 0.929 . S
H2629 C2638 0.930 . S
H2630 C2640 0.930 . S
H2631 C2643 0.929 . S
H2632 C2646 0.930 . S
H2633 C2648 0.960 . S
H2634 C2648 0.960 . S
H2635 C2648 0.960 . S
C2636 H2628 0.929 . S
C2636 C2637 1.377 . S
C2636 C2638 1.384 . S
C2637 C2636 1.377 . S
C2637 C2643 1.390 . S
C2638 H2629 0.930 . S
C2638 C2636 1.384 . S
C2638 C2639 1.372 . S
C2639 C2638 1.372 . S
C2639 C2640 1.400 . S
C2639 C2644 1.490 . S
C2640 H2630 0.930 . S
C2640 C2639 1.400 . S
C2640 C2643 1.386 . S
H2641 C2657 0.930 . S
H2642 C2658 0.931 . S
C2643 H2631 0.929 . S
C2643 C2637 1.390 . S
C2643 C2640 1.386 . S
C2644 C2639 1.490 . S
C2644 C2646 1.395 . S
C2644 C2647 1.403 . S
H2645 C2651 0.930 . S
C2646 H2632 0.930 . S
C2646 C2644 1.395 . S
C2646 C2649 1.403 . S
C2647 C2644 1.403 . S
C2647 C2648 1.524 . S
C2647 C2651 1.400 . S
C2648 H2633 0.960 . S
C2648 H2634 0.960 . S
C2648 H2635 0.960 . S
C2648 C2647 1.524 . S
C2649 C2646 1.403 . S
C2649 C2650 1.392 . S
C2649 C2653 1.495 . S
C2650 C2649 1.392 . S
C2650 C2651 1.385 . S
C2650 C2652 1.478 . S
C2651 H2645 0.930 . S
C2651 C2647 1.400 . S
C2651 C2650 1.385 . S
C2652 C2650 1.478 . S
C2652 C2654 1.381 . S
C2652 C2658 1.383 . S
C2653 C2649 1.495 . S
C2653 H2659 0.959 . S
C2653 H2660 0.961 . S
C2653 H2661 0.960 . S
C2654 C2652 1.381 . S
C2654 C2655 1.394 . S
C2654 H2662 0.930 . S
C2655 C2654 1.394 . S
C2655 C2656 1.383 . S
C2655 H2663 0.929 . S
C2656 C2655 1.383 . S
C2656 C2657 1.377 . S
C2657 H2641 0.930 . S
C2657 C2656 1.377 . S
C2657 C2658 1.379 . S
C2658 H2642 0.931 . S
C2658 C2652 1.383 . S
C2658 C2657 1.379 . S
H2659 C2653 0.959 . S
H2660 C2653 0.961 . S
H2661 C2653 0.960 . S
H2662 C2654 0.930 . S
H2663 C2655 0.929 . S
H2664 C2672 0.929 . S
H2665 C2674 0.930 . S
H2666 C2676 0.930 . S
H2667 C2679 0.929 . S
H2668 C2682 0.930 . S
H2669 C2684 0.960 . S
H2670 C2684 0.960 . S
H2671 C2684 0.960 . S
C2672 H2664 0.929 . S
C2672 C2673 1.377 . S
C2672 C2674 1.384 . S
C2673 C2672 1.377 . S
C2673 C2679 1.390 . S
C2674 H2665 0.930 . S
C2674 C2672 1.384 . S
C2674 C2675 1.372 . S
C2675 C2674 1.372 . S
C2675 C2676 1.400 . S
C2675 C2680 1.490 . S
C2676 H2666 0.930 . S
C2676 C2675 1.400 . S
C2676 C2679 1.386 . S
H2677 C2693 0.930 . S
H2678 C2694 0.931 . S
C2679 H2667 0.929 . S
C2679 C2673 1.390 . S
C2679 C2676 1.386 . S
C2680 C2675 1.490 . S
C2680 C2682 1.395 . S
C2680 C2683 1.403 . S
H2681 C2687 0.930 . S
C2682 H2668 0.930 . S
C2682 C2680 1.395 . S
C2682 C2685 1.403 . S
C2683 C2680 1.403 . S
C2683 C2684 1.524 . S
C2683 C2687 1.400 . S
C2684 H2669 0.960 . S
C2684 H2670 0.960 . S
C2684 H2671 0.960 . S
C2684 C2683 1.524 . S
C2685 C2682 1.403 . S
C2685 C2686 1.392 . S
C2685 C2689 1.495 . S
C2686 C2685 1.392 . S
C2686 C2687 1.385 . S
C2686 C2688 1.478 . S
C2687 H2681 0.930 . S
C2687 C2683 1.400 . S
C2687 C2686 1.385 . S
C2688 C2686 1.478 . S
C2688 C2690 1.381 . S
C2688 C2694 1.383 . S
C2689 C2685 1.495 . S
C2689 H2695 0.959 . S
C2689 H2696 0.961 . S
C2689 H2697 0.960 . S
C2690 C2688 1.381 . S
C2690 C2691 1.394 . S
C2690 H2698 0.930 . S
C2691 C2690 1.394 . S
C2691 C2692 1.383 . S
C2691 H2699 0.929 . S
C2692 C2691 1.383 . S
C2692 C2693 1.377 . S
C2693 H2677 0.930 . S
C2693 C2692 1.377 . S
C2693 C2694 1.379 . S
C2694 H2678 0.931 . S
C2694 C2688 1.383 . S
C2694 C2693 1.379 . S
H2695 C2689 0.959 . S
H2696 C2689 0.961 . S
H2697 C2689 0.960 . S
H2698 C2690 0.930 . S
H2699 C2691 0.929 . S
H2700 C2708 0.929 . S
H2701 C2710 0.930 . S
H2702 C2712 0.930 . S
H2703 C2715 0.929 . S
H2704 C2718 0.930 . S
H2705 C2720 0.960 . S
H2706 C2720 0.960 . S
H2707 C2720 0.960 . S
C2708 H2700 0.929 . S
C2708 C2709 1.377 . S
C2708 C2710 1.384 . S
C2709 C2708 1.377 . S
C2709 C2715 1.390 . S
C2710 H2701 0.930 . S
C2710 C2708 1.384 . S
C2710 C2711 1.372 . S
C2711 C2710 1.372 . S
C2711 C2712 1.400 . S
C2711 C2716 1.490 . S
C2712 H2702 0.930 . S
C2712 C2711 1.400 . S
C2712 C2715 1.386 . S
H2713 C2729 0.930 . S
H2714 C2730 0.931 . S
C2715 H2703 0.929 . S
C2715 C2709 1.390 . S
C2715 C2712 1.386 . S
C2716 C2711 1.490 . S
C2716 C2718 1.395 . S
C2716 C2719 1.403 . S
H2717 C2723 0.930 . S
C2718 H2704 0.930 . S
C2718 C2716 1.395 . S
C2718 C2721 1.403 . S
C2719 C2716 1.403 . S
C2719 C2720 1.524 . S
C2719 C2723 1.400 . S
C2720 H2705 0.960 . S
C2720 H2706 0.960 . S
C2720 H2707 0.960 . S
C2720 C2719 1.524 . S
C2721 C2718 1.403 . S
C2721 C2722 1.392 . S
C2721 C2725 1.495 . S
C2722 C2721 1.392 . S
C2722 C2723 1.385 . S
C2722 C2724 1.478 . S
C2723 H2717 0.930 . S
C2723 C2719 1.400 . S
C2723 C2722 1.385 . S
C2724 C2722 1.478 . S
C2724 C2726 1.381 . S
C2724 C2730 1.383 . S
C2725 C2721 1.495 . S
C2725 H2731 0.959 . S
C2725 H2732 0.961 . S
C2725 H2733 0.960 . S
C2726 C2724 1.381 . S
C2726 C2727 1.394 . S
C2726 H2734 0.930 . S
C2727 C2726 1.394 . S
C2727 C2728 1.383 . S
C2727 H2735 0.929 . S
C2728 C2727 1.383 . S
C2728 C2729 1.377 . S
C2729 H2713 0.930 . S
C2729 C2728 1.377 . S
C2729 C2730 1.379 . S
C2730 H2714 0.931 . S
C2730 C2724 1.383 . S
C2730 C2729 1.379 . S
H2731 C2725 0.959 . S
H2732 C2725 0.961 . S
H2733 C2725 0.960 . S
H2734 C2726 0.930 . S
H2735 C2727 0.929 . S
H2736 C2744 0.929 . S
H2737 C2746 0.930 . S
H2738 C2748 0.930 . S
H2739 C2751 0.929 . S
H2740 C2754 0.930 . S
H2741 C2756 0.960 . S
H2742 C2756 0.960 . S
H2743 C2756 0.960 . S
C2744 H2736 0.929 . S
C2744 C2745 1.377 . S
C2744 C2746 1.384 . S
C2745 C2744 1.377 . S
C2745 C2751 1.390 . S
C2746 H2737 0.930 . S
C2746 C2744 1.384 . S
C2746 C2747 1.372 . S
C2747 C2746 1.372 . S
C2747 C2748 1.400 . S
C2747 C2752 1.490 . S
C2748 H2738 0.930 . S
C2748 C2747 1.400 . S
C2748 C2751 1.386 . S
H2749 C2765 0.930 . S
H2750 C2766 0.931 . S
C2751 H2739 0.929 . S
C2751 C2745 1.390 . S
C2751 C2748 1.386 . S
C2752 C2747 1.490 . S
C2752 C2754 1.395 . S
C2752 C2755 1.403 . S
H2753 C2759 0.930 . S
C2754 H2740 0.930 . S
C2754 C2752 1.395 . S
C2754 C2757 1.403 . S
C2755 C2752 1.403 . S
C2755 C2756 1.524 . S
C2755 C2759 1.400 . S
C2756 H2741 0.960 . S
C2756 H2742 0.960 . S
C2756 H2743 0.960 . S
C2756 C2755 1.524 . S
C2757 C2754 1.403 . S
C2757 C2758 1.392 . S
C2757 C2761 1.495 . S
C2758 C2757 1.392 . S
C2758 C2759 1.385 . S
C2758 C2760 1.478 . S
C2759 H2753 0.930 . S
C2759 C2755 1.400 . S
C2759 C2758 1.385 . S
C2760 C2758 1.478 . S
C2760 C2762 1.381 . S
C2760 C2766 1.383 . S
C2761 C2757 1.495 . S
C2761 H2767 0.959 . S
C2761 H2768 0.961 . S
C2761 H2769 0.960 . S
C2762 C2760 1.381 . S
C2762 C2763 1.394 . S
C2762 H2770 0.930 . S
C2763 C2762 1.394 . S
C2763 C2764 1.383 . S
C2763 H2771 0.929 . S
C2764 C2763 1.383 . S
C2764 C2765 1.377 . S
C2765 H2749 0.930 . S
C2765 C2764 1.377 . S
C2765 C2766 1.379 . S
C2766 H2750 0.931 . S
C2766 C2760 1.383 . S
C2766 C2765 1.379 . S
H2767 C2761 0.959 . S
H2768 C2761 0.961 . S
H2769 C2761 0.960 . S
H2770 C2762 0.930 . S
H2771 C2763 0.929 . S
H2772 C2780 0.929 . S
H2773 C2782 0.930 . S
H2774 C2784 0.930 . S
H2775 C2787 0.929 . S
H2776 C2790 0.930 . S
H2777 C2792 0.960 . S
H2778 C2792 0.960 . S
H2779 C2792 0.960 . S
C2780 H2772 0.929 . S
C2780 C2781 1.377 . S
C2780 C2782 1.384 . S
C2781 C2780 1.377 . S
C2781 C2787 1.390 . S
C2782 H2773 0.930 . S
C2782 C2780 1.384 . S
C2782 C2783 1.372 . S
C2783 C2782 1.372 . S
C2783 C2784 1.400 . S
C2783 C2788 1.490 . S
C2784 H2774 0.930 . S
C2784 C2783 1.400 . S
C2784 C2787 1.386 . S
H2785 C2801 0.930 . S
H2786 C2802 0.931 . S
C2787 H2775 0.929 . S
C2787 C2781 1.390 . S
C2787 C2784 1.386 . S
C2788 C2783 1.490 . S
C2788 C2790 1.395 . S
C2788 C2791 1.403 . S
H2789 C2795 0.930 . S
C2790 H2776 0.930 . S
C2790 C2788 1.395 . S
C2790 C2793 1.403 . S
C2791 C2788 1.403 . S
C2791 C2792 1.524 . S
C2791 C2795 1.400 . S
C2792 H2777 0.960 . S
C2792 H2778 0.960 . S
C2792 H2779 0.960 . S
C2792 C2791 1.524 . S
C2793 C2790 1.403 . S
C2793 C2794 1.392 . S
C2793 C2797 1.495 . S
C2794 C2793 1.392 . S
C2794 C2795 1.385 . S
C2794 C2796 1.478 . S
C2795 H2789 0.930 . S
C2795 C2791 1.400 . S
C2795 C2794 1.385 . S
C2796 C2794 1.478 . S
C2796 C2798 1.381 . S
C2796 C2802 1.383 . S
C2797 C2793 1.495 . S
C2797 H2803 0.959 . S
C2797 H2804 0.961 . S
C2797 H2805 0.960 . S
C2798 C2796 1.381 . S
C2798 C2799 1.394 . S
C2798 H2806 0.930 . S
C2799 C2798 1.394 . S
C2799 C2800 1.383 . S
C2799 H2807 0.929 . S
C2800 C2799 1.383 . S
C2800 C2801 1.377 . S
C2801 H2785 0.930 . S
C2801 C2800 1.377 . S
C2801 C2802 1.379 . S
C2802 H2786 0.931 . S
C2802 C2796 1.383 . S
C2802 C2801 1.379 . S
H2803 C2797 0.959 . S
H2804 C2797 0.961 . S
H2805 C2797 0.960 . S
H2806 C2798 0.930 . S
H2807 C2799 0.929 . S
H2808 C2816 0.929 . S
H2809 C2818 0.930 . S
H2810 C2820 0.930 . S
H2811 C2823 0.929 . S
H2812 C2826 0.930 . S
H2813 C2828 0.960 . S
H2814 C2828 0.960 . S
H2815 C2828 0.960 . S
C2816 H2808 0.929 . S
C2816 C2817 1.377 . S
C2816 C2818 1.384 . S
C2817 C2816 1.377 . S
C2817 C2823 1.390 . S
C2818 H2809 0.930 . S
C2818 C2816 1.384 . S
C2818 C2819 1.372 . S
C2819 C2818 1.372 . S
C2819 C2820 1.400 . S
C2819 C2824 1.490 . S
C2820 H2810 0.930 . S
C2820 C2819 1.400 . S
C2820 C2823 1.386 . S
H2821 C2837 0.930 . S
H2822 C2838 0.931 . S
C2823 H2811 0.929 . S
C2823 C2817 1.390 . S
C2823 C2820 1.386 . S
C2824 C2819 1.490 . S
C2824 C2826 1.395 . S
C2824 C2827 1.403 . S
H2825 C2831 0.930 . S
C2826 H2812 0.930 . S
C2826 C2824 1.395 . S
C2826 C2829 1.403 . S
C2827 C2824 1.403 . S
C2827 C2828 1.524 . S
C2827 C2831 1.400 . S
C2828 H2813 0.960 . S
C2828 H2814 0.960 . S
C2828 H2815 0.960 . S
C2828 C2827 1.524 . S
C2829 C2826 1.403 . S
C2829 C2830 1.392 . S
C2829 C2833 1.495 . S
C2830 C2829 1.392 . S
C2830 C2831 1.385 . S
C2830 C2832 1.478 . S
C2831 H2825 0.930 . S
C2831 C2827 1.400 . S
C2831 C2830 1.385 . S
C2832 C2830 1.478 . S
C2832 C2834 1.381 . S
C2832 C2838 1.383 . S
C2833 C2829 1.495 . S
C2833 H2839 0.959 . S
C2833 H2840 0.961 . S
C2833 H2841 0.960 . S
C2834 C2832 1.381 . S
C2834 C2835 1.394 . S
C2834 H2842 0.930 . S
C2835 C2834 1.394 . S
C2835 C2836 1.383 . S
C2835 H2843 0.929 . S
C2836 C2835 1.383 . S
C2836 C2837 1.377 . S
C2837 H2821 0.930 . S
C2837 C2836 1.377 . S
C2837 C2838 1.379 . S
C2838 H2822 0.931 . S
C2838 C2832 1.383 . S
C2838 C2837 1.379 . S
H2839 C2833 0.959 . S
H2840 C2833 0.961 . S
H2841 C2833 0.960 . S
H2842 C2834 0.930 . S
H2843 C2835 0.929 . S
H2844 C2852 0.929 . S
H2845 C2854 0.930 . S
H2846 C2856 0.930 . S
H2847 C2859 0.929 . S
H2848 C2862 0.930 . S
H2849 C2864 0.960 . S
H2850 C2864 0.960 . S
H2851 C2864 0.960 . S
C2852 H2844 0.929 . S
C2852 C2853 1.377 . S
C2852 C2854 1.384 . S
C2853 C2852 1.377 . S
C2853 C2859 1.390 . S
C2854 H2845 0.930 . S
C2854 C2852 1.384 . S
C2854 C2855 1.372 . S
C2855 C2854 1.372 . S
C2855 C2856 1.400 . S
C2855 C2860 1.490 . S
C2856 H2846 0.930 . S
C2856 C2855 1.400 . S
C2856 C2859 1.386 . S
H2857 C2873 0.930 . S
H2858 C2874 0.931 . S
C2859 H2847 0.929 . S
C2859 C2853 1.390 . S
C2859 C2856 1.386 . S
C2860 C2855 1.490 . S
C2860 C2862 1.395 . S
C2860 C2863 1.403 . S
H2861 C2867 0.930 . S
C2862 H2848 0.930 . S
C2862 C2860 1.395 . S
C2862 C2865 1.403 . S
C2863 C2860 1.403 . S
C2863 C2864 1.524 . S
C2863 C2867 1.400 . S
C2864 H2849 0.960 . S
C2864 H2850 0.960 . S
C2864 H2851 0.960 . S
C2864 C2863 1.524 . S
C2865 C2862 1.403 . S
C2865 C2866 1.392 . S
C2865 C2869 1.495 . S
C2866 C2865 1.392 . S
C2866 C2867 1.385 . S
C2866 C2868 1.478 . S
C2867 H2861 0.930 . S
C2867 C2863 1.400 . S
C2867 C2866 1.385 . S
C2868 C2866 1.478 . S
C2868 C2870 1.381 . S
C2868 C2874 1.383 . S
C2869 C2865 1.495 . S
C2869 H2875 0.959 . S
C2869 H2876 0.961 . S
C2869 H2877 0.960 . S
C2870 C2868 1.381 . S
C2870 C2871 1.394 . S
C2870 H2878 0.930 . S
C2871 C2870 1.394 . S
C2871 C2872 1.383 . S
C2871 H2879 0.929 . S
C2872 C2871 1.383 . S
C2872 C2873 1.377 . S
C2873 H2857 0.930 . S
C2873 C2872 1.377 . S
C2873 C2874 1.379 . S
C2874 H2858 0.931 . S
C2874 C2868 1.383 . S
C2874 C2873 1.379 . S
H2875 C2869 0.959 . S
H2876 C2869 0.961 . S
H2877 C2869 0.960 . S
H2878 C2870 0.930 . S
H2879 C2871 0.929 . S
H2880 C2888 0.929 . S
H2881 C2890 0.930 . S
H2882 C2892 0.930 . S
H2883 C2895 0.929 . S
H2884 C2898 0.930 . S
H2885 C2900 0.960 . S
H2886 C2900 0.960 . S
H2887 C2900 0.960 . S
C2888 H2880 0.929 . S
C2888 C2889 1.377 . S
C2888 C2890 1.384 . S
C2889 C2888 1.377 . S
C2889 C2895 1.390 . S
C2890 H2881 0.930 . S
C2890 C2888 1.384 . S
C2890 C2891 1.372 . S
C2891 C2890 1.372 . S
C2891 C2892 1.400 . S
C2891 C2896 1.490 . S
C2892 H2882 0.930 . S
C2892 C2891 1.400 . S
C2892 C2895 1.386 . S
H2893 C2909 0.930 . S
H2894 C2910 0.931 . S
C2895 H2883 0.929 . S
C2895 C2889 1.390 . S
C2895 C2892 1.386 . S
C2896 C2891 1.490 . S
C2896 C2898 1.395 . S
C2896 C2899 1.403 . S
H2897 C2903 0.930 . S
C2898 H2884 0.930 . S
C2898 C2896 1.395 . S
C2898 C2901 1.403 . S
C2899 C2896 1.403 . S
C2899 C2900 1.524 . S
C2899 C2903 1.400 . S
C2900 H2885 0.960 . S
C2900 H2886 0.960 . S
C2900 H2887 0.960 . S
C2900 C2899 1.524 . S
C2901 C2898 1.403 . S
C2901 C2902 1.392 . S
C2901 C2905 1.495 . S
C2902 C2901 1.392 . S
C2902 C2903 1.385 . S
C2902 C2904 1.478 . S
C2903 H2897 0.930 . S
C2903 C2899 1.400 . S
C2903 C2902 1.385 . S
C2904 C2902 1.478 . S
C2904 C2906 1.381 . S
C2904 C2910 1.383 . S
C2905 C2901 1.495 . S
C2905 H2911 0.959 . S
C2905 H2912 0.961 . S
C2905 H2913 0.960 . S
C2906 C2904 1.381 . S
C2906 C2907 1.394 . S
C2906 H2914 0.930 . S
C2907 C2906 1.394 . S
C2907 C2908 1.383 . S
C2907 H2915 0.929 . S
C2908 C2907 1.383 . S
C2908 C2909 1.377 . S
C2909 H2893 0.930 . S
C2909 C2908 1.377 . S
C2909 C2910 1.379 . S
C2910 H2894 0.931 . S
C2910 C2904 1.383 . S
C2910 C2909 1.379 . S
H2911 C2905 0.959 . S
H2912 C2905 0.961 . S
H2913 C2905 0.960 . S
H2914 C2906 0.930 . S
H2915 C2907 0.929 . S
C981 C162 1.428 . S
C1000 C272 1.365 . S
C1017 C174 1.455 . S
C1036 C356 1.379 . S
C1053 C150 1.427 . S
C1072 C450 1.400 . S
C1089 C138 1.401 . S
C1108 C366 1.394 1_556 S
C1144 C440 1.318 . S
C1125 C114 1.407 . S
C1161 C126 1.375 . S
C1180 C282 1.381 1_556 S
C1216 C283 1.403 . S
C1197 C136 1.483 . S
C1252 C367 1.440 . S
C1233 C112 1.508 . S
C1269 C124 1.506 . S
C1288 C459 1.499 1_556 S
C1305 C160 1.473 . S
C1324 C375 1.452 . S
C1341 C172 1.453 . S
C1360 C451 1.405 . S
C1396 C291 1.392 . S
C1377 C148 1.444 . S
C1432 C524 1.342 . S
C1413 C18 1.429 . S
C1449 C30 1.458 . S
C1468 C608 1.427 . S
C1485 C6 1.426 . S
C1504 C702 1.403 . S
C1521 C210 1.403 . S
C1540 C618 1.386 . S
C1557 C186 1.409 . S
C1576 C692 1.377 . S
C1593 C198 1.378 . S
C1612 C534 1.358 . S
C1629 C208 1.487 . S
C1648 C535 1.456 . S
C1665 C184 1.512 . S
C1684 C619 1.484 . S
C1720 C711 1.489 . S
C1701 C196 1.505 . S
C1737 C16 1.473 . S
C1756 C627 1.454 . S
C1792 C703 1.425 . S
C1773 C28 1.454 . S
C1809 C4 1.450 . S
C1828 C543 1.434 . S
C1864 C776 1.372 . S
C1845 C90 1.428 . S
C1881 C102 1.458 . S
C1900 C860 1.422 . S
C1936 C954 1.421 . S
C1917 C78 1.424 . S
C1972 C870 1.379 . S
C1953 C66 1.403 . S
C2008 C944 1.378 . S
C1989 C42 1.408 . S
C2025 C54 1.376 . S
C2044 C786 1.364 . S
C2061 C64 1.485 . S
C2080 C787 1.395 . S
C2097 C40 1.512 . S
C2116 C871 1.483 . S
C2152 C963 1.499 . S
C2133 C52 1.507 . S
C2169 C88 1.469 . S
C2188 C879 1.422 . S
C2205 C100 1.453 . S
C2224 C955 1.405 . S
C2241 C76 1.447 . S
C2260 C795 1.421 . S
C2277 C189 1.560 . S
C2296 C279 1.467 . S
C2332 C363 1.509 . S
C2313 C201 1.633 . S
C2349 C213 1.572 . S
C2368 C456 1.351 . S
C2385 C81 1.602 . S
C2404 C372 1.369 . S
C2421 C93 1.591 . S
C2440 C447 1.466 . S
C2476 C288 1.389 . S
C2457 C105 1.531 . S
C2493 C45 1.557 . S
C2512 C531 1.439 . S
C2529 C57 1.632 . S
C2548 C615 1.492 . S
C2565 C69 1.574 . S
C2584 C708 1.420 . S
C2601 C153 1.605 . S
C2620 C624 1.420 . S
C2656 C699 1.486 . S
C2637 C165 1.590 . S
C2673 C177 1.528 . S
C2692 C540 1.322 . S
C2709 C117 1.557 . S
C2728 C783 1.447 . S
C2745 C129 1.631 . S
C2764 C867 1.450 . S
C2800 C960 1.362 . S
C2781 C141 1.572 . S
C2817 C9 1.605 . S
C2836 C876 1.418 . S
C2853 C21 1.589 . S
C2872 C951 1.483 . S
C2889 C33 1.532 . S
C2908 C792 1.387 . S
