# Generated by pormake.
# Topology anh, (6,3)-cn, num edge types: 1
# Building blocks:
#     Node 0, Type 0, BuildingBlock: CUKXOW_clean_sbu_0, # of connection points: 6
#     Node 1, Type 0, BuildingBlock: CUKXOW_clean_sbu_0, # of connection points: 6
#     Node 2, Type 0, BuildingBlock: CUKXOW_clean_sbu_0, # of connection points: 6
#     Node 3, Type 1, BuildingBlock: KAKCAD_clean_linker_0, # of connection points: 3
#     Node 4, Type 1, BuildingBlock: KAKCAD_clean_linker_0, # of connection points: 3
#     Node 5, Type 1, BuildingBlock: KAKCAD_clean_linker_0, # of connection points: 3
#     Node 6, Type 1, BuildingBlock: KAKCAD_clean_linker_0, # of connection points: 3
#     Node 7, Type 1, BuildingBlock: KAKCAD_clean_linker_0, # of connection points: 3
#     Node 8, Type 1, BuildingBlock: KAKCAD_clean_linker_0, # of connection points: 3
#     Edge 9, Type (0, 1), BuildingBlock: EZIPEK_clean_linker_0, # of connection points: 2
#     Edge 10, Type (0, 1), BuildingBlock: EZIPEK_clean_linker_0, # of connection points: 2
#     Edge 11, Type (0, 1), BuildingBlock: EZIPEK_clean_linker_0, # of connection points: 2
#     Edge 12, Type (0, 1), BuildingBlock: EZIPEK_clean_linker_0, # of connection points: 2
#     Edge 13, Type (0, 1), BuildingBlock: EZIPEK_clean_linker_0, # of connection points: 2
#     Edge 14, Type (0, 1), BuildingBlock: EZIPEK_clean_linker_0, # of connection points: 2
#     Edge 15, Type (0, 1), BuildingBlock: EZIPEK_clean_linker_0, # of connection points: 2
#     Edge 16, Type (0, 1), BuildingBlock: EZIPEK_clean_linker_0, # of connection points: 2
#     Edge 17, Type (0, 1), BuildingBlock: EZIPEK_clean_linker_0, # of connection points: 2
#     Edge 18, Type (0, 1), BuildingBlock: EZIPEK_clean_linker_0, # of connection points: 2
#     Edge 19, Type (0, 1), BuildingBlock: EZIPEK_clean_linker_0, # of connection points: 2
#     Edge 20, Type (0, 1), BuildingBlock: EZIPEK_clean_linker_0, # of connection points: 2
#     Edge 21, Type (0, 1), BuildingBlock: EZIPEK_clean_linker_0, # of connection points: 2
#     Edge 22, Type (0, 1), BuildingBlock: EZIPEK_clean_linker_0, # of connection points: 2
#     Edge 23, Type (0, 1), BuildingBlock: EZIPEK_clean_linker_0, # of connection points: 2
#     Edge 24, Type (0, 1), BuildingBlock: EZIPEK_clean_linker_0, # of connection points: 2
#     Edge 25, Type (0, 1), BuildingBlock: EZIPEK_clean_linker_0, # of connection points: 2
#     Edge 26, Type (0, 1), BuildingBlock: EZIPEK_clean_linker_0, # of connection points: 2
# Relax obj value: 0.136
# Max RMSD: 0.194
# Mean RMSD: 0.140
data_MOF--net-anh--node1-CUKXOW_clean_sbu_0--node2-KAKCAD_clean_linker_0--edge1-EZIPEK_clean_linker_0
_symmetry_space_group_name_H-M    P1
_symmetry_Int_Tables_number       1
_symmetry_cell_setting            triclinic
loop_
_symmetry_equiv_pos_as_xyz
'x, y, z'
_cell_length_a     27.154289
_cell_length_b     26.449371
_cell_length_c     51.139747
_cell_angle_alpha  95.182701
_cell_angle_beta   90.20514
_cell_angle_gamma 113.63871
loop_
_atom_site_label
_atom_site_type_symbol
_atom_site_fract_x
_atom_site_fract_y
_atom_site_fract_z
_atom_type_partial_charge
Tb0 Tb 0.08178 0.55877 0.15602 0.0
C1 C 0.04283 0.50259 0.2088 0.0
Tb2 Tb 1.018 0.43137 0.15448 0.0
O3 O 1.01323 0.58421 0.15581 0.0
O4 O 1.00082 0.50255 0.15492 0.0
O5 O 0.07724 0.54593 0.1978 0.0
C6 C 0.93827 0.33062 0.15014 0.0
O7 O 1.01181 0.45514 0.19544 0.0
C8 C 0.12476 0.46823 0.16342 0.0
C9 C 0.05102 0.48554 0.10138 0.0
O10 O 0.93375 0.37654 0.15775 0.0
O11 O 0.98786 0.34115 0.14445 0.0
O12 O 0.08883 0.42367 0.17186 0.0
O13 O 0.09945 0.48698 0.14886 0.0
O14 O 1.01974 0.44115 0.11266 0.0
O15 O 0.08274 0.53329 0.11455 0.0
C16 C 0.16599 0.65607 0.15865 0.0
O17 O 0.12657 0.63932 0.14112 0.0
O18 O 0.1573 0.6189 0.17492 0.0
C19 C 0.97593 0.53415 0.15502 0.0
Tb20 Tb 0.50379 1.00522 0.4998 0.0
C21 C 0.56606 0.03062 0.44757 0.0
Tb22 Tb 0.62832 0.07715 0.50341 0.0
O23 O 0.48981 0.07475 0.4862 0.0
O24 O 0.55677 0.08921 0.51036 0.0
O25 O 0.52111 0.99939 0.45849 0.0
C26 C 0.71565 0.17016 0.50376 0.0
O27 O 0.61026 0.0659 0.46109 0.0
C28 C 0.60741 0.97005 0.49912 0.0
C29 C 0.56706 0.04044 0.55536 0.0
O30 O 0.67183 0.15807 0.48973 0.0
O31 O 0.71072 0.12975 0.5177 0.0
O32 O 0.65609 0.00887 0.5008 0.0
O33 O 0.57583 0.9942 0.49884 0.0
O34 O 0.61116 0.07509 0.54496 0.0
O35 O 0.52247 0.00764 0.54146 0.0
C36 C 0.40629 0.92615 0.50201 0.0
O37 O 0.42 0.97789 0.51056 0.0
O38 O 0.44733 0.91878 0.49233 0.0
C39 C 0.53503 0.11221 0.4964 0.0
Tb40 Tb 0.50989 0.52099 0.82624 0.0
C41 C 0.56285 0.55172 0.88338 0.0
Tb42 Tb 0.63259 0.58434 0.83301 0.0
O43 O 0.51507 0.44797 0.83973 0.0
O44 O 0.57848 0.50167 0.81984 0.0
O45 O 0.5178 0.53914 0.86893 0.0
C46 C 0.73749 0.61506 0.83246 0.0
O47 O 0.61109 0.56542 0.87324 0.0
C48 C 0.58668 0.65555 0.83633 0.0
C49 C 0.57722 0.55858 0.77635 0.0
O50 O 0.70538 0.57528 0.84534 0.0
O51 O 0.71082 0.63683 0.8199 0.0
O52 O 0.63796 0.66963 0.83957 0.0
O53 O 0.56506 0.60343 0.8332 0.0
O54 O 0.62206 0.56932 0.79033 0.0
O55 O 0.52976 0.54421 0.78683 0.0
C56 C 0.40746 0.48271 0.8108 0.0
O57 O 0.4395 0.45879 0.80435 0.0
O58 O 0.43269 0.52793 0.82625 0.0
C59 C 0.56372 0.45933 0.83247 0.0
C60 C 0.59367 0.06131 0.32116 0.0
C61 C 0.57604 0.01329 0.33433 0.0
C62 C 0.59403 0.05722 0.29373 0.0
C63 C 0.57659 1.00499 0.27909 0.0
C64 C 0.55989 0.95706 0.29249 0.0
C65 C 0.55963 0.96121 0.31989 0.0
C66 C 0.57371 1.00032 0.24994 0.0
C67 C 0.61541 0.03651 0.23602 0.0
C68 C 0.61197 0.03336 0.2084 0.0
C69 C 0.56603 0.99273 0.19468 0.0
C70 C 0.52422 0.95575 0.20842 0.0
C71 C 0.52841 0.96017 0.23598 0.0
C72 C 0.47497 0.91302 0.19464 0.0
C73 C 0.44614 0.9269 0.17566 0.0
C74 C 0.45363 0.859 0.20245 0.0
C75 C 0.40322 0.82066 0.19268 0.0
C76 C 0.37333 0.83547 0.17484 0.0
C77 C 0.65689 0.07265 0.19429 0.0
C78 C 0.68278 0.12852 0.20461 0.0
C79 C 0.67613 0.05442 0.17137 0.0
C80 C 0.72151 0.09089 0.15965 0.0
C81 C 0.74825 0.14591 0.17078 0.0
C82 C 0.72811 0.16466 0.19303 0.0
C83 C 0.39546 0.8883 0.16583 0.0
H84 H 0.60636 0.1018 0.33211 0.0
H85 H 0.60656 0.09481 0.28396 0.0
H86 H 0.54684 0.91633 0.28175 0.0
H87 H 0.54603 0.92381 0.32985 0.0
H88 H 0.65113 0.06661 0.24677 0.0
H89 H 0.49536 0.93316 0.24668 0.0
H90 H 0.5627 0.98993 0.17343 0.0
H91 H 0.4615 0.96833 0.16944 0.0
H92 H 0.47528 0.84696 0.21679 0.0
H93 H 0.38673 0.77991 0.19969 0.0
H94 H 0.66837 0.14423 0.22189 0.0
H95 H 0.65728 0.0116 0.16303 0.0
H96 H 0.37269 0.90021 0.15203 0.0
H97 H 0.74804 0.20719 0.20168 0.0
H98 H 0.73661 0.07594 0.14239 0.0
C99 C 0.53611 0.55851 0.64948 0.0
C100 C 0.58288 0.56426 0.66355 0.0
C101 C 0.53575 0.55815 0.62216 0.0
C102 C 0.58176 0.56231 0.60857 0.0
C103 C 0.6286 0.56831 0.62262 0.0
C104 C 0.62938 0.57001 0.64998 0.0
C105 C 0.58015 0.55766 0.57966 0.0
C106 C 0.57105 0.5968 0.56607 0.0
C107 C 0.56995 0.5927 0.53847 0.0
C108 C 0.57642 0.54735 0.52442 0.0
C109 C 0.58459 0.50704 0.53812 0.0
C110 C 0.58708 0.51331 0.56572 0.0
C111 C 0.58731 0.45599 0.52466 0.0
C112 C 0.54567 0.4202 0.50692 0.0
C113 C 0.62623 0.43781 0.53327 0.0
C114 C 0.62115 0.38362 0.52611 0.0
C115 C 0.57735 0.34671 0.51001 0.0
C116 C 0.56498 0.63834 0.52528 0.0
C117 C 0.52349 0.65568 0.53184 0.0
C118 C 0.60668 0.67103 0.51011 0.0
C119 C 0.60892 0.7221 0.50333 0.0
C120 C 0.56916 0.74081 0.51135 0.0
C121 C 0.52541 0.70634 0.52481 0.0
C122 C 0.54069 0.36585 0.49968 0.0
H123 H 0.49989 0.554 0.65967 0.0
H124 H 0.49919 0.55314 0.61157 0.0
H125 H 0.66444 0.57156 0.61237 0.0
H126 H 0.66582 0.57467 0.66057 0.0
H127 H 0.56654 0.6316 0.57709 0.0
H128 H 0.59246 0.48232 0.57654 0.0
H129 H 0.57503 0.54345 0.50313 0.0
H130 H 0.51483 0.43282 0.50021 0.0
H131 H 0.6589 0.46457 0.54686 0.0
H132 H 0.64988 0.36966 0.53422 0.0
H133 H 0.49104 0.63137 0.54364 0.0
H134 H 0.63949 0.65901 0.50513 0.0
H135 H 0.50657 0.3378 0.48723 0.0
H136 H 0.49445 0.72014 0.53121 0.0
H137 H 0.64306 0.74829 0.493 0.0
C138 C 0.1163 0.51586 0.97962 0.0
C139 C 0.06491 0.49348 0.98977 0.0
C140 C 0.12188 0.52546 0.95319 0.0
C141 C 0.07606 0.51323 0.93689 0.0
C142 C 1.02465 0.48884 0.94695 0.0
C143 C 1.0191 0.47884 0.97324 0.0
C144 C 0.08137 0.5283 0.90975 0.0
C145 C 0.11283 0.51169 0.89233 0.0
C146 C 0.11462 0.52322 0.866 0.0
C147 C 0.08493 0.55165 0.85724 0.0
C148 C 0.0536 0.56861 0.87466 0.0
C149 C 0.05281 0.55769 0.90098 0.0
C150 C 1.01714 0.59218 0.86495 0.0
C151 C 0.03369 0.63224 0.84683 0.0
C152 C 0.9639 0.57184 0.87295 0.0
C153 C 0.92759 0.59039 0.8628 0.0
C154 C 0.94364 0.62923 0.84435 0.0
C155 C 0.1476 0.50549 0.84772 0.0
C156 C 0.2003 0.51526 0.85564 0.0
C157 C 0.12711 0.47914 0.82247 0.0
C158 C 0.15917 0.46257 0.80541 0.0
C159 C 0.21174 0.47254 0.81359 0.0
C160 C 0.23207 0.49891 0.8387 0.0
C161 C 0.99691 0.65084 0.83654 0.0
H162 H 0.15192 0.52735 0.99232 0.0
H163 H 0.16183 0.54437 0.94576 0.0
H164 H 0.98881 0.47844 0.93455 0.0
H165 H 0.97925 0.4614 0.98092 0.0
H166 H 0.13447 0.48828 0.89905 0.0
H167 H 0.02906 0.57128 0.91463 0.0
H168 H 0.08539 0.55956 0.83679 0.0
H169 H 0.07469 0.64864 0.8405 0.0
H170 H 0.94971 0.54014 0.88643 0.0
H171 H 0.88633 0.57329 0.86882 0.0
H172 H 0.21719 0.53617 0.87483 0.0
H173 H 0.0863 0.47091 0.81608 0.0
H174 H 1.00946 0.68089 0.82223 0.0
H175 H 0.27289 0.50709 0.84514 0.0
H176 H 0.14325 0.44228 0.78602 0.0
C177 C 0.03558 0.57998 0.3344 0.0
C178 C 0.02913 0.52869 0.32135 0.0
C179 C 0.03419 0.58626 0.36175 0.0
C180 C 1.02615 0.54122 0.37635 0.0
C181 C 1.01888 0.48965 0.36307 0.0
C182 C 1.02046 0.48348 0.33575 0.0
C183 C 0.02771 0.54849 0.40543 0.0
C184 C 0.9899 0.50858 0.41952 0.0
C185 C 0.99289 0.51393 0.44715 0.0
C186 C 0.03484 0.55962 0.46065 0.0
C187 C 0.07337 0.59955 0.44674 0.0
C188 C 0.06885 0.59411 0.41916 0.0
C189 C 0.11965 0.64603 0.46065 0.0
C190 C 0.11292 0.6756 0.48368 0.0
C191 C 0.17102 0.66215 0.45031 0.0
C192 C 0.21408 0.70846 0.46187 0.0
C193 C 0.20681 0.73906 0.48416 0.0
C194 C 0.95355 0.47004 0.46155 0.0
C195 C 0.89921 0.44493 0.45274 0.0
C196 C 0.97052 0.4503 0.48301 0.0
C197 C 0.93436 0.40465 0.49454 0.0
C198 C 0.88107 0.37783 0.48453 0.0
C199 C 0.86337 0.39902 0.46404 0.0
C200 C 0.15645 0.72179 0.49547 0.0
H201 H 0.04218 0.61515 0.32342 0.0
H202 H 0.03948 0.62632 0.3715 0.0
H203 H 1.01336 0.45447 0.37385 0.0
H204 H 1.01552 0.44366 0.32583 0.0
H205 H 0.95856 0.47278 0.40887 0.0
H206 H 0.09828 0.62489 0.40827 0.0
H207 H 0.03805 0.56359 0.48192 0.0
H208 H 0.0738 0.66417 0.49205 0.0
H209 H 0.17788 0.63932 0.43305 0.0
H210 H 0.253 0.72106 0.45315 0.0
H211 H 0.88465 0.45995 0.43666 0.0
H212 H 1.01217 0.46847 0.49013 0.0
H213 H 0.15053 0.74512 0.5128 0.0
H214 H 0.82212 0.37899 0.45631 0.0
H215 H 0.9484 0.38873 0.51045 0.0
C216 C 0.52329 0.99678 0.6798 0.0
C217 C 0.56838 0.03386 0.66808 0.0
C218 C 0.52265 0.99644 0.70709 0.0
C219 C 0.56681 0.03371 0.72302 0.0
C220 C 0.61223 0.07021 0.71118 0.0
C221 C 0.61314 0.07002 0.68388 0.0
C222 C 0.56444 0.03647 0.75197 0.0
C223 C 0.54817 0.98826 0.76486 0.0
C224 C 0.54478 0.99062 0.79239 0.0
C225 C 0.55712 0.04252 0.80695 0.0
C226 C 0.57367 0.09117 0.79404 0.0
C227 C 0.57751 0.08763 0.76668 0.0
C228 C 0.58404 0.14619 0.80802 0.0
C229 C 0.54188 0.15577 0.82016 0.0
C230 C 0.63241 0.19164 0.80439 0.0
C231 C 0.6371 0.24588 0.81101 0.0
C232 C 0.59329 0.25535 0.82108 0.0
C233 C 0.53235 0.93892 0.80537 0.0
C234 C 0.49389 0.88795 0.79369 0.0
C235 C 0.56464 0.93862 0.82687 0.0
C236 C 0.56239 0.88833 0.83466 0.0
C237 C 0.5279 0.83775 0.82105 0.0
C238 C 0.49196 0.83779 0.80134 0.0
C239 C 0.54639 0.2101 0.82653 0.0
H240 H 0.48844 0.96863 0.66782 0.0
H241 H 0.48705 0.96825 0.71579 0.0
H242 H 0.64689 0.09904 0.72307 0.0
H243 H 0.6483 0.0987 0.67508 0.0
H244 H 0.53998 0.94902 0.75339 0.0
H245 H 0.58888 0.12486 0.75663 0.0
H246 H 0.55414 0.04514 0.82812 0.0
H247 H 0.50401 0.12145 0.82278 0.0
H248 H 0.66528 0.18516 0.79486 0.0
H249 H 0.6735 0.28035 0.80665 0.0
H250 H 0.46772 0.8868 0.77741 0.0
H251 H 0.59478 0.97702 0.83621 0.0
H252 H 0.51218 0.21683 0.83426 0.0
H253 H 0.46524 0.79919 0.79057 0.0
H254 H 0.59077 0.88901 0.84977 0.0
C255 C 0.58493 0.50925 0.00681 0.0
C256 C 0.56298 0.54346 -0.00352 0.0
C257 C 0.58408 0.50359 0.03378 0.0
C258 C 0.56114 0.532 0.05092 0.0
C259 C 0.53998 0.56696 0.04045 0.0
C260 C 0.54081 0.57255 0.0135 0.0
C261 C 0.55829 0.5245 0.07952 0.0
C262 C 0.6021 0.52323 0.09357 0.0
C263 C 0.60026 0.51656 0.12057 0.0
C264 C 0.55234 0.5111 0.1338 0.0
C265 C 0.50773 0.5137 0.1199 0.0
C266 C 0.51161 0.51911 0.09275 0.0
C267 C 0.45645 0.51203 0.13231 0.0
C268 C 0.42753 0.47222 0.14932 0.0
C269 C 0.43228 0.54681 0.12415 0.0
C270 C 0.38005 0.53967 0.13106 0.0
C271 C 0.35011 0.49833 0.14695 0.0
C272 C 0.65066 0.51783 0.13369 0.0
C273 C 0.65353 0.46951 0.14181 0.0
C274 C 0.69936 0.56487 0.13275 0.0
C275 C 0.74929 0.56326 0.13877 0.0
C276 C 0.75248 0.5144 0.14573 0.0
C277 C 0.70378 0.46784 0.14781 0.0
C278 C 0.37514 0.46565 0.15664 0.0
H279 H 0.60195 0.48626 0.99391 0.0
H280 H 0.60023 0.47595 0.04111 0.0
H281 H 0.52276 0.59009 0.05313 0.0
H282 H 0.52367 0.5991 0.00585 0.0
H283 H 0.63852 0.52814 0.08343 0.0
H284 H 0.47735 0.51842 0.08155 0.0
H285 H 0.55058 0.5069 0.15467 0.0
H286 H 0.44428 0.44449 0.15598 0.0
H287 H 0.45325 0.5788 0.11151 0.0
H288 H 0.3625 0.56598 0.12351 0.0
H289 H 0.61717 0.43213 0.14214 0.0
H290 H 0.69892 0.60246 0.12612 0.0
H291 H 0.35332 0.43362 0.1691 0.0
H292 H 0.70477 0.42959 0.1532 0.0
H293 H 0.7858 0.59986 0.13707 0.0
C294 C 0.22587 0.51937 0.17422 0.0
C295 C 0.18263 0.47543 0.15965 0.0
C296 C 0.24879 0.4426 0.13917 0.0
C297 C 0.29219 0.48883 0.15241 0.0
N298 N 0.32223 0.57397 0.18102 0.0
N299 N 0.15322 0.39683 0.12682 0.0
C300 C 0.28062 0.52795 0.16947 0.0
C301 C 0.19429 0.43732 0.14186 0.0
N302 N 0.21452 0.55165 0.19357 0.0
N303 N 0.25969 0.40337 0.12396 0.0
H304 H 0.11294 0.38989 0.1289 0.0
H305 H 0.15873 0.37205 0.11112 0.0
H306 H 0.29862 0.40746 0.11991 0.0
H307 H 0.23055 0.36517 0.11643 0.0
H308 H 0.24305 0.58015 0.20713 0.0
H309 H 0.17542 0.547 0.19733 0.0
H310 H 0.31738 0.60794 0.19066 0.0
H311 H 0.36242 0.57969 0.17979 0.0
C312 C 0.75622 0.2733 0.5117 0.0
C313 C 0.76266 0.22339 0.50418 0.0
C314 C 0.8502 0.27538 0.48659 0.0
C315 C 0.84391 0.32539 0.49415 0.0
N316 N 0.7981 0.37378 0.51902 0.0
N317 N 0.81992 0.17688 0.49026 0.0
C318 C 0.79909 0.32488 0.50839 0.0
C319 C 0.81132 0.22451 0.4938 0.0
N320 N 0.70873 0.27124 0.52152 0.0
N321 N 0.89113 0.27593 0.47093 0.0
H322 H 0.79148 0.13832 0.49424 0.0
H323 H 0.85693 0.17625 0.48548 0.0
H324 H 0.92036 0.31212 0.46493 0.0
H325 H 0.89392 0.24018 0.46211 0.0
H326 H 0.69871 0.30541 0.52399 0.0
H327 H 0.678 0.23456 0.5262 0.0
H328 H 0.76892 0.37626 0.53159 0.0
H329 H 0.82934 0.41219 0.51707 0.0
C330 C 0.52244 0.7024 0.84461 0.0
C331 C 0.56346 0.69511 0.82966 0.0
C332 C 0.57882 0.77948 0.80848 0.0
C333 C 0.53774 0.78688 0.82334 0.0
N334 N 0.46374 0.75138 0.85179 0.0
N335 N 0.62147 0.71843 0.79298 0.0
C336 C 0.5072 0.74682 0.84016 0.0
C337 C 0.58883 0.73124 0.81027 0.0
N338 N 0.50026 0.66883 0.86398 0.0
N339 N 0.60932 0.81939 0.79307 0.0
H340 H 0.62856 0.68251 0.79302 0.0
H341 H 0.63667 0.73966 0.77667 0.0
H342 H 0.60148 0.85383 0.78975 0.0
H343 H 0.64463 0.82044 0.78478 0.0
H344 H 0.47457 0.67551 0.87759 0.0
H345 H 0.51006 0.63566 0.86739 0.0
H346 H 0.43651 0.7209 0.8622 0.0
H347 H 0.45273 0.78429 0.84944 0.0
C348 C 0.89593 0.55033 0.17382 0.0
C349 C 0.91584 0.52048 0.15507 0.0
C350 C 0.82718 0.48387 0.1308 0.0
C351 C 0.80711 0.51244 0.14996 0.0
N352 N 0.81878 0.56255 0.19271 0.0
N353 N 0.89595 0.45049 0.11833 0.0
C354 C 0.84054 0.54257 0.17235 0.0
C355 C 0.87983 0.48424 0.13456 0.0
N356 N 0.93018 0.58709 0.19301 0.0
N357 N 0.79708 0.45886 0.10814 0.0
H358 H 0.93417 0.4508 0.11985 0.0
H359 H 0.87023 0.41902 0.10484 0.0
H360 H 0.75868 0.45744 0.10463 0.0
H361 H 0.81155 0.44328 0.09191 0.0
H362 H 0.92059 0.61582 0.20477 0.0
H363 H 0.96927 0.59064 0.19662 0.0
H364 H 0.83877 0.57947 0.21087 0.0
H365 H 0.77863 0.55746 0.19235 0.0
C366 C 0.30927 0.88619 0.48701 0.0
C367 C 0.35163 0.88234 0.50189 0.0
C368 C 0.29432 0.78706 0.50986 0.0
C369 C 0.25245 0.79053 0.49451 0.0
N370 N 0.21444 0.84587 0.47383 0.0
N371 N 0.38163 0.8357 0.53262 0.0
C372 C 0.25801 0.8412 0.48506 0.0
C373 C 0.34321 0.83473 0.51498 0.0
N374 N 0.31901 0.93091 0.47316 0.0
N375 N 0.28781 0.7376 0.5187 0.0
H376 H 0.41762 0.87041 0.53698 0.0
H377 H 0.37618 0.80425 0.5446 0.0
H378 H 0.25134 0.70283 0.5165 0.0
H379 H 0.31886 0.73016 0.52717 0.0
H380 H 0.29167 0.93294 0.45941 0.0
H381 H 0.35604 0.96473 0.47381 0.0
H382 H 0.21441 0.8833 0.46906 0.0
H383 H 0.17663 0.81312 0.47132 0.0
C384 C 0.56365 0.37727 0.80383 0.0
C385 C 0.58189 0.41364 0.82732 0.0
C386 C 0.61148 0.34786 0.8463 0.0
C387 C 0.59367 0.3119 0.82274 0.0
N388 N 0.5641 0.29702 0.77707 0.0
N389 N 0.63204 0.43945 0.86875 0.0
C390 C 0.5736 0.32831 0.80082 0.0
C391 C 0.60882 0.40078 0.84785 0.0
N392 N 0.53391 0.3877 0.78505 0.0
N393 N 0.6292 0.33054 0.86741 0.0
H394 H 0.63071 0.47841 0.87024 0.0
H395 H 0.65636 0.43505 0.88337 0.0
H396 H 0.63319 0.29281 0.86658 0.0
H397 H 0.63709 0.35183 0.88612 0.0
H398 H 0.51353 0.35925 0.76918 0.0
H399 H 0.52648 0.42353 0.78608 0.0
H400 H 0.55546 0.31003 0.75967 0.0
H401 H 0.56919 0.25989 0.77423 0.0
C402 C 0.6149 0.89748 0.52556 0.0
C403 C 0.59367 0.91058 0.50285 0.0
C404 C 0.55661 0.8119 0.4854 0.0
C405 C 0.57651 0.79899 0.50843 0.0
N406 N 0.61708 0.82699 0.55223 0.0
N407 N 0.54064 0.88032 0.46211 0.0
C408 C 0.60359 0.84113 0.52899 0.0
C409 C 0.56303 0.86765 0.48315 0.0
N410 N 0.64637 0.93902 0.5439 0.0
N411 N 0.53311 0.77099 0.46534 0.0
H412 H 0.54837 0.92084 0.45869 0.0
H413 H 0.51265 0.85099 0.44863 0.0
H414 H 0.52655 0.72967 0.4667 0.0
H415 H 0.52272 0.77791 0.44682 0.0
H416 H 0.6699 0.93346 0.55855 0.0
H417 H 0.65027 0.97991 0.54429 0.0
H418 H 0.63022 0.85428 0.56925 0.0
H419 H 0.61159 0.78664 0.55526 0.0
C420 C 0.83266 0.6767 0.84504 0.0
C421 C 0.79494 0.62942 0.82988 0.0
C422 C 0.8669 0.60443 0.81319 0.0
C423 C 0.90189 0.64343 0.8328 0.0
N424 N 0.92311 0.72179 0.86496 0.0
N425 N 0.77458 0.55165 0.79702 0.0
C426 C 0.88665 0.68232 0.84747 0.0
C427 C 0.81172 0.59479 0.81276 0.0
N428 N 0.81643 0.71508 0.85739 0.0
N429 N 0.88672 0.57571 0.79581 0.0
H430 H 0.73405 0.54499 0.79554 0.0
H431 H 0.7832 0.52132 0.78608 0.0
H432 H 0.92742 0.58282 0.79617 0.0
H433 H 0.86445 0.5487 0.77991 0.0
H434 H 0.84267 0.75258 0.86717 0.0
H435 H 0.77666 0.71115 0.85631 0.0
H436 H 0.91358 0.74771 0.87862 0.0
H437 H 0.96344 0.72753 0.86605 0.0
C438 C 0.22518 0.74853 0.18137 0.0
C439 C 0.2151 0.70797 0.15961 0.0
C440 C 0.30693 0.75631 0.14524 0.0
C441 C 0.31728 0.79617 0.16731 0.0
N442 N 0.2846 0.83811 0.2031 0.0
N443 N 0.2415 0.67775 0.11811 0.0
C444 C 0.27567 0.79482 0.18429 0.0
C445 C 0.25433 0.71363 0.14052 0.0
N446 N 0.18686 0.74187 0.19959 0.0
N447 N 0.34815 0.75792 0.12957 0.0
H448 H 0.20416 0.64467 0.11447 0.0
H449 H 0.2663 0.68275 0.10223 0.0
H450 H 0.38653 0.78984 0.13194 0.0
H451 H 0.34542 0.72656 0.11507 0.0
H452 H 0.19377 0.76577 0.21761 0.0
H453 H 0.14817 0.71049 0.19716 0.0
H454 H 0.2547 0.84256 0.21453 0.0
H455 H 0.32139 0.87234 0.20592 0.0
C456 C 0.52787 0.19418 0.52237 0.0
C457 C 0.54639 0.17237 0.49994 0.0
C458 C 0.58843 0.26558 0.48504 0.0
C459 C 0.56681 0.28665 0.50643 0.0
N460 N 0.51134 0.2711 0.54409 0.0
N461 N 0.58624 0.18488 0.45769 0.0
C462 C 0.5353 0.25093 0.52476 0.0
C463 C 0.57445 0.20742 0.48064 0.0
N464 N 0.5034 0.16065 0.54148 0.0
N465 N 0.62331 0.30137 0.46926 0.0
H466 H 0.57686 0.14267 0.45387 0.0
H467 H 0.60131 0.20708 0.44162 0.0
H468 H 0.63324 0.34398 0.47149 0.0
H469 H 0.64552 0.28961 0.45529 0.0
H470 H 0.49496 0.17516 0.55978 0.0
H471 H 0.49434 0.11824 0.5398 0.0
H472 H 0.48283 0.2463 0.55619 0.0
H473 H 0.51721 0.3127 0.54705 0.0
C474 C 0.34144 0.50402 0.78569 0.0
C475 C 0.35282 0.46578 0.79959 0.0
C476 C 0.25715 0.41078 0.80299 0.0
C477 C 0.24803 0.45711 0.79663 0.0
N478 N 0.27522 0.54054 0.77544 0.0
N479 N 0.32296 0.37695 0.81695 0.0
C480 C 0.28804 0.5005 0.78488 0.0
C481 C 0.31099 0.41616 0.80604 0.0
N482 N 0.382 0.54391 0.77404 0.0
N483 N 0.21417 0.36388 0.80788 0.0
H484 H 0.36219 0.37972 0.81901 0.0
H485 H 0.29446 0.34231 0.82443 0.0
H486 H 0.17487 0.36126 0.806 0.0
H487 H 0.2169 0.32708 0.81167 0.0
H488 H 0.37631 0.57186 0.7626 0.0
H489 H 0.42128 0.54612 0.77428 0.0
H490 H 0.30312 0.57682 0.76893 0.0
H491 H 0.23549 0.53689 0.77447 0.0
C492 C 0.84472 0.26556 0.13601 0.0
C493 C 0.8934 0.27533 0.14996 0.0
C494 C 0.84873 0.18862 0.17022 0.0
C495 C 0.79854 0.18456 0.15999 0.0
N496 N 0.74738 0.21773 0.13292 0.0
N497 N 0.94245 0.24756 0.18113 0.0
C498 C 0.79619 0.22223 0.14249 0.0
C499 C 0.89603 0.23659 0.16683 0.0
N500 N 0.84538 0.29745 0.1163 0.0
N501 N 0.85091 0.14686 0.18345 0.0
H502 H 0.97818 0.2818 0.17915 0.0
H503 H 0.9449 0.22468 0.19623 0.0
H504 H 0.81676 0.11182 0.18677 0.0
H505 H 0.88672 0.14447 0.18911 0.0
H506 H 0.81226 0.28995 0.10386 0.0
H507 H 0.88082 0.32844 0.11076 0.0
H508 H 0.74221 0.24767 0.12271 0.0
H509 H 0.71134 0.18491 0.13634 0.0
C510 C 0.03446 0.52094 0.06046 0.0
C511 C 0.04985 0.48309 0.07255 0.0
C512 C 0.0675 0.44635 0.02966 0.0
C513 C 0.05893 0.48908 0.01818 0.0
N514 N 0.04213 0.57244 0.02289 0.0
N515 N 0.08665 0.41358 0.06952 0.0
C516 C 0.04442 0.52785 0.03362 0.0
C517 C 0.06754 0.44642 0.05739 0.0
N518 N 1.00877 0.54899 0.07445 0.0
N519 N 0.07454 0.40524 0.01401 0.0
H520 H 0.08681 0.41221 0.08978 0.0
H521 H 0.10596 0.39088 0.05977 0.0
H522 H 0.07516 0.40424 0.99358 0.0
H523 H 0.07533 0.36983 0.02106 0.0
H524 H 0.99172 0.57284 0.06593 0.0
H525 H 0.99961 0.54396 0.0941 0.0
H526 H 0.03761 0.6052 0.03399 0.0
H527 H 0.0495 0.57934 0.00324 0.0
C528 C 0.53027 0.03579 0.40294 0.0
C529 C 0.56774 0.02508 0.41855 0.0
C530 C 0.61334 0.01123 0.37896 0.0
C531 C 0.57327 0.01738 0.36333 0.0
N532 N 0.48833 0.02576 0.35979 0.0
N533 N 0.63822 0.9917 0.42119 0.0
C534 C 0.53015 0.0268 0.37514 0.0
C535 C 0.60754 0.00987 0.40651 0.0
N536 N 0.49638 0.05689 0.41458 0.0
N537 N 0.65761 0.00807 0.36755 0.0
H538 H 0.63455 0.98892 0.44135 0.0
H539 H 0.66372 0.97439 0.41305 0.0
H540 H 0.66296 0.00834 0.34736 0.0
H541 H 0.69104 0.00984 0.37827 0.0
H542 H 0.4727 0.07156 0.40412 0.0
H543 H 0.49524 0.06444 0.43485 0.0
H544 H 0.45287 0.02602 0.36736 0.0
H545 H 0.48703 0.01988 0.33931 0.0
C546 C 0.59339 0.52139 0.73184 0.0
C547 C 0.57948 0.56038 0.74756 0.0
C548 C 0.5744 0.60558 0.70855 0.0
C549 C 0.58275 0.56335 0.69254 0.0
N550 N 0.58877 0.47436 0.68844 0.0
N551 N 0.5448 0.63186 0.75004 0.0
C552 C 0.58935 0.51943 0.70403 0.0
C553 C 0.56618 0.60005 0.73568 0.0
N554 N 0.60974 0.48569 0.74334 0.0
N555 N 0.57636 0.65208 0.69807 0.0
H556 H 0.53836 0.62984 0.77005 0.0
H557 H 0.5291 0.65695 0.74161 0.0
H558 H 0.58372 0.65841 0.67837 0.0
H559 H 0.57618 0.68673 0.70944 0.0
H560 H 0.62632 0.46104 0.73295 0.0
H561 H 0.61023 0.48318 0.76355 0.0
H562 H 0.58754 0.43844 0.6958 0.0
H563 H 0.58416 0.47042 0.66801 0.0
C564 C 0.57063 0.08608 0.60092 0.0
C565 C 0.56705 0.03876 0.58418 0.0
C566 C 0.56935 0.99037 0.62253 0.0
C567 C 0.5682 0.03569 0.63918 0.0
N568 N 0.55721 0.12211 0.64434 0.0
N569 N 0.55277 0.94196 0.57887 0.0
C570 C 0.5661 0.08244 0.62843 0.0
C571 C 0.56309 0.98962 0.59492 0.0
N572 N 0.57803 0.13441 0.5906 0.0
N573 N 0.57863 0.94909 0.63305 0.0
H574 H 0.54938 0.93961 0.55847 0.0
H575 H 0.54344 0.90353 0.58586 0.0
H576 H 0.58408 0.94849 0.6532 0.0
H577 H 0.58593 0.91823 0.62175 0.0
H578 H 0.58741 0.17198 0.60202 0.0
H579 H 0.5783 0.13809 0.57049 0.0
H580 H 0.54936 0.15397 0.63728 0.0
H581 H 0.55275 0.1205 0.66453 0.0
C582 C 0.59178 0.59875 0.92917 0.0
C583 C 0.55978 0.55064 0.91242 0.0
C584 C 0.52399 0.50132 0.95117 0.0
C585 C 0.56107 0.54684 0.96761 0.0
N586 N 0.6354 0.63652 0.97222 0.0
N587 N 0.50178 0.45286 0.90759 0.0
C588 C 0.59637 0.59502 0.95661 0.0
C589 C 0.52729 0.50109 0.92344 0.0
N590 N 0.61617 0.64852 0.919 0.0
N591 N 0.48473 0.45872 0.96206 0.0
H592 H 0.50356 0.45039 0.88727 0.0
H593 H 0.48297 0.41429 0.91472 0.0
H594 H 0.481 0.45728 0.9823 0.0
H595 H 0.45292 0.42747 0.95107 0.0
H596 H 0.63558 0.68603 0.93056 0.0
H597 H 0.61242 0.65322 0.89915 0.0
H598 H 0.66608 0.66979 0.96486 0.0
H599 H 0.63979 0.6354 0.99241 0.0
C600 C 0.08199 0.51155 0.25411 0.0
C601 C 0.03828 0.50731 0.23759 0.0
C602 C 0.98619 0.51146 0.27617 0.0
C603 C 0.03235 0.52227 0.29248 0.0
N604 N 0.1265 0.54028 0.2973 0.0
N605 N 0.94921 0.50545 0.23222 0.0
C606 C 0.08102 0.5247 0.28154 0.0
C607 C 0.99033 0.50767 0.24843 0.0
N608 N 0.12276 0.49943 0.24377 0.0
N609 N 0.93813 0.50328 0.28724 0.0
H610 H 0.9496 0.49979 0.21181 0.0
H611 H 0.91605 0.51242 0.23883 0.0
H612 H 0.9339 0.50686 0.30751 0.0
H613 H 0.90165 0.48912 0.27653 0.0
H614 H 0.15351 0.49702 0.25513 0.0
H615 H 0.12223 0.48519 0.22406 0.0
H616 H 0.16443 0.54858 0.29001 0.0
H617 H 0.12716 0.54942 0.31761 0.0
loop_
_geom_bond_atom_site_label_1
_geom_bond_atom_site_label_2
_geom_bond_distance
_geom_bond_site_symmetry_2
_ccdc_geom_bond_type
Tb0 O3 2.453 1_455 S
Tb0 O4 2.596 1_455 S
Tb0 O5 2.374 . S
Tb0 O13 2.343 . S
Tb0 O15 2.353 . S
Tb0 O17 2.427 . S
Tb0 O18 2.513 . S
C1 O5 1.251 . S
C1 O7 1.263 . S
Tb2 O4 2.343 1_455 S
Tb2 O7 2.353 . S
Tb2 O10 2.427 1_455 S
Tb2 O11 2.513 1_455 S
Tb2 O12 2.453 . S
Tb2 O13 2.596 . S
Tb2 O14 2.374 . S
O3 Tb0 2.453 1_655 S
O3 C19 1.245 . S
O4 Tb0 2.596 1_655 S
O4 Tb2 2.343 1_655 S
O4 C19 1.259 . S
O5 Tb0 2.374 . S
O5 C1 1.251 . S
C6 O10 1.275 . S
C6 O11 1.246 . S
O7 C1 1.263 . S
O7 Tb2 2.353 . S
C8 O12 1.245 . S
C8 O13 1.259 . S
C9 O14 1.250 . S
C9 O15 1.263 . S
O10 Tb2 2.427 1_655 S
O10 C6 1.275 . S
O11 Tb2 2.513 1_655 S
O11 C6 1.246 . S
O12 Tb2 2.453 . S
O12 C8 1.245 . S
O13 Tb0 2.343 . S
O13 Tb2 2.596 . S
O13 C8 1.259 . S
O14 Tb2 2.374 . S
O14 C9 1.250 . S
O15 Tb0 2.353 . S
O15 C9 1.263 . S
C16 O17 1.275 . S
C16 O18 1.246 . S
O17 Tb0 2.427 . S
O17 C16 1.275 . S
O18 Tb0 2.513 . S
O18 C16 1.246 . S
C19 O3 1.245 . S
C19 O4 1.259 . S
Tb20 O23 2.453 . S
Tb20 O24 2.596 . S
Tb20 O25 2.374 . S
Tb20 O33 2.343 1_545 S
Tb20 O35 2.353 . S
Tb20 O37 2.427 1_545 S
Tb20 O38 2.513 1_545 S
C21 O25 1.251 . S
C21 O27 1.263 . S
Tb22 O24 2.343 . S
Tb22 O27 2.353 . S
Tb22 O30 2.427 . S
Tb22 O31 2.513 . S
Tb22 O32 2.453 1_545 S
Tb22 O33 2.596 1_545 S
Tb22 O34 2.374 . S
O23 Tb20 2.453 . S
O23 C39 1.245 . S
O24 Tb20 2.596 . S
O24 Tb22 2.343 . S
O24 C39 1.259 . S
O25 Tb20 2.374 . S
O25 C21 1.251 . S
C26 O30 1.275 . S
C26 O31 1.246 . S
O27 C21 1.263 . S
O27 Tb22 2.353 . S
C28 O32 1.245 . S
C28 O33 1.259 . S
C29 O34 1.250 . S
C29 O35 1.263 . S
O30 Tb22 2.427 . S
O30 C26 1.275 . S
O31 Tb22 2.513 . S
O31 C26 1.246 . S
O32 Tb22 2.453 1_565 S
O32 C28 1.245 . S
O33 Tb20 2.343 1_565 S
O33 Tb22 2.596 1_565 S
O33 C28 1.259 . S
O34 Tb22 2.374 . S
O34 C29 1.250 . S
O35 Tb20 2.353 . S
O35 C29 1.263 . S
C36 O37 1.275 . S
C36 O38 1.246 . S
O37 Tb20 2.427 1_565 S
O37 C36 1.275 . S
O38 Tb20 2.513 1_565 S
O38 C36 1.246 . S
C39 O23 1.245 . S
C39 O24 1.259 . S
Tb40 O43 2.453 . S
Tb40 O44 2.596 . S
Tb40 O45 2.374 . S
Tb40 O53 2.343 . S
Tb40 O55 2.353 . S
Tb40 O57 2.427 . S
Tb40 O58 2.513 . S
C41 O45 1.251 . S
C41 O47 1.263 . S
Tb42 O44 2.343 . S
Tb42 O47 2.353 . S
Tb42 O50 2.427 . S
Tb42 O51 2.513 . S
Tb42 O52 2.453 . S
Tb42 O53 2.596 . S
Tb42 O54 2.374 . S
O43 Tb40 2.453 . S
O43 C59 1.245 . S
O44 Tb40 2.596 . S
O44 Tb42 2.343 . S
O44 C59 1.259 . S
O45 Tb40 2.374 . S
O45 C41 1.251 . S
C46 O50 1.275 . S
C46 O51 1.246 . S
O47 C41 1.263 . S
O47 Tb42 2.353 . S
C48 O52 1.245 . S
C48 O53 1.259 . S
C49 O54 1.250 . S
C49 O55 1.263 . S
O50 Tb42 2.427 . S
O50 C46 1.275 . S
O51 Tb42 2.513 . S
O51 C46 1.246 . S
O52 Tb42 2.453 . S
O52 C48 1.245 . S
O53 Tb40 2.343 . S
O53 Tb42 2.596 . S
O53 C48 1.259 . S
O54 Tb42 2.374 . S
O54 C49 1.250 . S
O55 Tb40 2.353 . S
O55 C49 1.263 . S
C56 O57 1.275 . S
C56 O58 1.246 . S
O57 Tb40 2.427 . S
O57 C56 1.275 . S
O58 Tb40 2.513 . S
O58 C56 1.246 . S
C59 O43 1.245 . S
C59 O44 1.259 . S
C60 C61 1.386 . S
C60 C62 1.397 . S
C60 H84 0.931 . S
C61 C60 1.386 . S
C61 C65 1.397 . S
C62 C60 1.397 . S
C62 C63 1.384 . S
C62 H85 0.930 . S
C63 C62 1.384 . S
C63 C64 1.377 . S
C63 C66 1.481 . S
C64 C63 1.377 . S
C64 C65 1.389 . S
C64 H86 0.929 1_545 S
C65 C61 1.397 . S
C65 C64 1.389 . S
C65 H87 0.931 1_545 S
C66 C63 1.481 . S
C66 C67 1.387 . S
C66 C71 1.390 . S
C67 C66 1.387 . S
C67 C68 1.401 . S
C67 H88 0.930 . S
C68 C67 1.401 . S
C68 C69 1.376 . S
C68 C77 1.511 . S
C69 C68 1.376 . S
C69 C70 1.392 1_545 S
C69 H90 0.931 . S
C70 C69 1.392 1_565 S
C70 C71 1.361 1_565 S
C70 C72 1.500 . S
C71 C66 1.390 . S
C71 C70 1.361 1_545 S
C71 H89 0.931 1_545 S
C72 C70 1.500 . S
C72 C73 1.371 . S
C72 C74 1.365 . S
C73 C72 1.371 . S
C73 C83 1.386 . S
C73 H91 0.931 . S
C74 C72 1.365 . S
C74 C75 1.409 . S
C74 H92 0.929 . S
C75 C74 1.409 . S
C75 C76 1.380 . S
C75 H93 0.930 . S
C76 C75 1.380 . S
C76 C83 1.357 . S
C77 C68 1.511 . S
C77 C78 1.341 . S
C77 C79 1.371 . S
C78 C77 1.341 . S
C78 C82 1.394 . S
C78 H94 0.930 . S
C79 C77 1.371 . S
C79 C80 1.392 . S
C79 H95 0.931 . S
C80 C79 1.392 . S
C80 C81 1.331 . S
C80 H98 0.932 . S
C81 C80 1.331 . S
C81 C82 1.336 . S
C82 C78 1.394 . S
C82 C81 1.336 . S
C82 H97 0.929 . S
C83 C73 1.386 . S
C83 C76 1.357 . S
C83 H96 0.928 . S
H84 C60 0.931 . S
H85 C62 0.930 . S
H86 C64 0.929 1_565 S
H87 C65 0.931 1_565 S
H88 C67 0.930 . S
H89 C71 0.931 1_565 S
H90 C69 0.931 . S
H91 C73 0.931 . S
H92 C74 0.929 . S
H93 C75 0.930 . S
H94 C78 0.930 . S
H95 C79 0.931 . S
H96 C83 0.928 . S
H97 C82 0.929 . S
H98 C80 0.932 . S
C99 C100 1.386 . S
C99 C101 1.397 . S
C99 H123 0.931 . S
C100 C99 1.386 . S
C100 C104 1.397 . S
C101 C99 1.397 . S
C101 C102 1.384 . S
C101 H124 0.930 . S
C102 C101 1.384 . S
C102 C103 1.377 . S
C102 C105 1.481 . S
C103 C102 1.377 . S
C103 C104 1.389 . S
C103 H125 0.929 . S
C104 C100 1.397 . S
C104 C103 1.389 . S
C104 H126 0.931 . S
C105 C102 1.481 . S
C105 C106 1.387 . S
C105 C110 1.390 . S
C106 C105 1.387 . S
C106 C107 1.401 . S
C106 H127 0.930 . S
C107 C106 1.401 . S
C107 C108 1.376 . S
C107 C116 1.511 . S
C108 C107 1.376 . S
C108 C109 1.392 . S
C108 H129 0.931 . S
C109 C108 1.392 . S
C109 C110 1.361 . S
C109 C111 1.500 . S
C110 C105 1.390 . S
C110 C109 1.361 . S
C110 H128 0.931 . S
C111 C109 1.500 . S
C111 C112 1.371 . S
C111 C113 1.365 . S
C112 C111 1.371 . S
C112 C122 1.386 . S
C112 H130 0.931 . S
C113 C111 1.365 . S
C113 C114 1.409 . S
C113 H131 0.929 . S
C114 C113 1.409 . S
C114 C115 1.380 . S
C114 H132 0.930 . S
C115 C114 1.380 . S
C115 C122 1.357 . S
C116 C107 1.511 . S
C116 C117 1.341 . S
C116 C118 1.371 . S
C117 C116 1.341 . S
C117 C121 1.394 . S
C117 H133 0.930 . S
C118 C116 1.371 . S
C118 C119 1.392 . S
C118 H134 0.931 . S
C119 C118 1.392 . S
C119 C120 1.331 . S
C119 H137 0.932 . S
C120 C119 1.331 . S
C120 C121 1.336 . S
C121 C117 1.394 . S
C121 C120 1.336 . S
C121 H136 0.929 . S
C122 C112 1.386 . S
C122 C115 1.357 . S
C122 H135 0.928 . S
H123 C99 0.931 . S
H124 C101 0.930 . S
H125 C103 0.929 . S
H126 C104 0.931 . S
H127 C106 0.930 . S
H128 C110 0.931 . S
H129 C108 0.931 . S
H130 C112 0.931 . S
H131 C113 0.929 . S
H132 C114 0.930 . S
H133 C117 0.930 . S
H134 C118 0.931 . S
H135 C122 0.928 . S
H136 C121 0.929 . S
H137 C119 0.932 . S
C138 C139 1.367 1_556 S
C138 C140 1.397 . S
C138 H162 0.931 1_556 S
C139 C138 1.367 1_554 S
C139 C143 1.374 1_554 S
C140 C138 1.397 . S
C140 C141 1.384 . S
C140 H163 0.930 . S
C141 C140 1.384 . S
C141 C142 1.377 . S
C141 C144 1.481 . S
C142 C141 1.377 . S
C142 C143 1.389 . S
C142 H164 0.929 1_455 S
C143 C139 1.374 1_556 S
C143 C142 1.389 . S
C143 H165 0.931 1_455 S
C144 C141 1.481 . S
C144 C145 1.387 . S
C144 C149 1.390 . S
C145 C144 1.387 . S
C145 C146 1.401 . S
C145 H166 0.930 . S
C146 C145 1.401 . S
C146 C147 1.376 . S
C146 C155 1.511 . S
C147 C146 1.376 . S
C147 C148 1.392 . S
C147 H168 0.931 . S
C148 C147 1.392 . S
C148 C149 1.361 . S
C148 C150 1.500 1_455 S
C149 C144 1.390 . S
C149 C148 1.361 . S
C149 H167 0.933 . S
C150 C148 1.500 1_655 S
C150 C151 1.371 . S
C150 C152 1.365 . S
C151 C150 1.371 . S
C151 C161 1.386 . S
C151 H169 0.931 1_655 S
C152 C150 1.365 . S
C152 C153 1.409 . S
C152 H170 0.929 . S
C153 C152 1.409 . S
C153 C154 1.380 . S
C153 H171 0.930 . S
C154 C153 1.380 . S
C154 C161 1.357 . S
C155 C146 1.511 . S
C155 C156 1.341 . S
C155 C157 1.371 . S
C156 C155 1.341 . S
C156 C160 1.394 . S
C156 H172 0.930 . S
C157 C155 1.371 . S
C157 C158 1.392 . S
C157 H173 0.931 . S
C158 C157 1.392 . S
C158 C159 1.331 . S
C158 H176 0.932 . S
C159 C158 1.331 . S
C159 C160 1.336 . S
C160 C156 1.394 . S
C160 C159 1.336 . S
C160 H175 0.929 . S
C161 C151 1.386 . S
C161 C154 1.357 . S
C161 H174 0.928 . S
H162 C138 0.931 1_554 S
H163 C140 0.930 . S
H164 C142 0.929 1_655 S
H165 C143 0.931 1_655 S
H166 C145 0.930 . S
H167 C149 0.933 . S
H168 C147 0.931 . S
H169 C151 0.931 1_455 S
H170 C152 0.929 . S
H171 C153 0.930 . S
H172 C156 0.930 . S
H173 C157 0.931 . S
H174 C161 0.928 . S
H175 C160 0.929 . S
H176 C158 0.932 . S
C177 C178 1.386 . S
C177 C179 1.397 . S
C177 H201 0.931 . S
C178 C177 1.386 . S
C178 C182 1.397 1_655 S
C179 C177 1.397 . S
C179 C180 1.384 . S
C179 H202 0.930 . S
C180 C179 1.384 . S
C180 C181 1.377 1_655 S
C180 C183 1.481 . S
C181 C180 1.377 1_455 S
C181 C182 1.389 . S
C181 H203 0.929 . S
C182 C178 1.397 1_455 S
C182 C181 1.389 . S
C182 H204 0.931 . S
C183 C180 1.481 . S
C183 C184 1.387 . S
C183 C188 1.390 1_655 S
C184 C183 1.387 . S
C184 C185 1.401 . S
C184 H205 0.930 . S
C185 C184 1.401 . S
C185 C186 1.371 1_655 S
C185 C194 1.511 . S
C186 C185 1.371 1_455 S
C186 C187 1.398 . S
C186 H207 0.932 . S
C187 C186 1.398 . S
C187 C188 1.361 . S
C187 C189 1.500 . S
C188 C183 1.390 1_455 S
C188 C187 1.361 . S
C188 H206 0.931 . S
C189 C187 1.500 . S
C189 C190 1.371 . S
C189 C191 1.365 . S
C190 C189 1.371 . S
C190 C200 1.386 . S
C190 H208 0.931 . S
C191 C189 1.365 . S
C191 C192 1.409 . S
C191 H209 0.929 . S
C192 C191 1.409 . S
C192 C193 1.380 . S
C192 H210 0.930 . S
C193 C192 1.380 . S
C193 C200 1.357 . S
C194 C185 1.511 . S
C194 C195 1.341 . S
C194 C196 1.371 . S
C195 C194 1.341 . S
C195 C199 1.394 . S
C195 H211 0.930 . S
C196 C194 1.371 . S
C196 C197 1.392 . S
C196 H212 0.931 . S
C197 C196 1.392 . S
C197 C198 1.331 . S
C197 H215 0.932 . S
C198 C197 1.331 . S
C198 C199 1.336 . S
C199 C195 1.394 . S
C199 C198 1.336 . S
C199 H214 0.929 . S
C200 C190 1.386 . S
C200 C193 1.357 . S
C200 H213 0.928 . S
H201 C177 0.931 . S
H202 C179 0.930 . S
H203 C181 0.929 . S
H204 C182 0.931 . S
H205 C184 0.930 . S
H206 C188 0.931 . S
H207 C186 0.932 . S
H208 C190 0.931 . S
H209 C191 0.929 . S
H210 C192 0.930 . S
H211 C195 0.930 . S
H212 C196 0.931 . S
H213 C200 0.928 . S
H214 C199 0.929 . S
H215 C197 0.932 . S
C216 C217 1.386 1_565 S
C216 C218 1.397 . S
C216 H240 0.931 . S
C217 C216 1.386 1_545 S
C217 C221 1.397 . S
C218 C216 1.397 . S
C218 C219 1.384 1_565 S
C218 H241 0.930 . S
C219 C218 1.384 1_545 S
C219 C220 1.377 . S
C219 C222 1.481 . S
C220 C219 1.377 . S
C220 C221 1.389 . S
C220 H242 0.929 . S
C221 C217 1.397 . S
C221 C220 1.389 . S
C221 H243 0.931 . S
C222 C219 1.481 . S
C222 C223 1.387 1_545 S
C222 C227 1.390 . S
C223 C222 1.387 1_565 S
C223 C224 1.401 . S
C223 H244 0.930 . S
C224 C223 1.401 . S
C224 C225 1.376 1_565 S
C224 C233 1.511 . S
C225 C224 1.376 1_545 S
C225 C226 1.392 . S
C225 H246 0.931 . S
C226 C225 1.392 . S
C226 C227 1.361 . S
C226 C228 1.500 . S
C227 C222 1.390 . S
C227 C226 1.361 . S
C227 H245 0.931 . S
C228 C226 1.500 . S
C228 C229 1.371 . S
C228 C230 1.365 . S
C229 C228 1.371 . S
C229 C239 1.386 . S
C229 H247 0.931 . S
C230 C228 1.365 . S
C230 C231 1.409 . S
C230 H248 0.929 . S
C231 C230 1.409 . S
C231 C232 1.380 . S
C231 H249 0.930 . S
C232 C231 1.380 . S
C232 C239 1.357 . S
C233 C224 1.511 . S
C233 C234 1.341 . S
C233 C235 1.371 . S
C234 C233 1.341 . S
C234 C238 1.394 . S
C234 H250 0.930 . S
C235 C233 1.371 . S
C235 C236 1.392 . S
C235 H251 0.931 . S
C236 C235 1.392 . S
C236 C237 1.331 . S
C236 H254 0.932 . S
C237 C236 1.331 . S
C237 C238 1.336 . S
C238 C234 1.394 . S
C238 C237 1.336 . S
C238 H253 0.929 . S
C239 C229 1.386 . S
C239 C232 1.357 . S
C239 H252 0.928 . S
H240 C216 0.931 . S
H241 C218 0.930 . S
H242 C220 0.929 . S
H243 C221 0.931 . S
H244 C223 0.930 . S
H245 C227 0.931 . S
H246 C225 0.931 . S
H247 C229 0.931 . S
H248 C230 0.929 . S
H249 C231 0.930 . S
H250 C234 0.930 . S
H251 C235 0.931 . S
H252 C239 0.928 . S
H253 C238 0.929 . S
H254 C236 0.932 . S
C255 C256 1.386 1_554 S
C255 C257 1.397 . S
C255 H279 0.931 1_554 S
C256 C255 1.386 1_556 S
C256 C260 1.397 1_556 S
C257 C255 1.397 . S
C257 C258 1.384 . S
C257 H280 0.930 . S
C258 C257 1.384 . S
C258 C259 1.377 . S
C258 C261 1.481 . S
C259 C258 1.377 . S
C259 C260 1.389 . S
C259 H281 0.929 . S
C260 C256 1.397 1_554 S
C260 C259 1.389 . S
C260 H282 0.931 . S
C261 C258 1.481 . S
C261 C262 1.387 . S
C261 C266 1.390 . S
C262 C261 1.387 . S
C262 C263 1.401 . S
C262 H283 0.930 . S
C263 C262 1.401 . S
C263 C264 1.376 . S
C263 C272 1.511 . S
C264 C263 1.376 . S
C264 C265 1.392 . S
C264 H285 0.931 . S
C265 C264 1.392 . S
C265 C266 1.361 . S
C265 C267 1.500 . S
C266 C261 1.390 . S
C266 C265 1.361 . S
C266 H284 0.931 . S
C267 C265 1.500 . S
C267 C268 1.371 . S
C267 C269 1.365 . S
C268 C267 1.371 . S
C268 C278 1.386 . S
C268 H286 0.931 . S
C269 C267 1.365 . S
C269 C270 1.409 . S
C269 H287 0.929 . S
C270 C269 1.409 . S
C270 C271 1.380 . S
C270 H288 0.930 . S
C271 C270 1.380 . S
C271 C278 1.357 . S
C272 C263 1.511 . S
C272 C273 1.341 . S
C272 C274 1.371 . S
C273 C272 1.341 . S
C273 C277 1.394 . S
C273 H289 0.930 . S
C274 C272 1.371 . S
C274 C275 1.392 . S
C274 H290 0.931 . S
C275 C274 1.392 . S
C275 C276 1.331 . S
C275 H293 0.932 . S
C276 C275 1.331 . S
C276 C277 1.336 . S
C277 C273 1.394 . S
C277 C276 1.336 . S
C277 H292 0.929 . S
C278 C268 1.386 . S
C278 C271 1.357 . S
C278 H291 0.928 . S
H279 C255 0.931 1_556 S
H280 C257 0.930 . S
H281 C259 0.929 . S
H282 C260 0.931 . S
H283 C262 0.930 . S
H284 C266 0.931 . S
H285 C264 0.931 . S
H286 C268 0.931 . S
H287 C269 0.929 . S
H288 C270 0.930 . S
H289 C273 0.930 . S
H290 C274 0.931 . S
H291 C278 0.928 . S
H292 C277 0.929 . S
H293 C275 0.932 . S
C294 C295 1.363 . S
C294 C300 1.379 . S
C294 N302 1.356 . S
C295 C294 1.363 . S
C295 C301 1.363 . S
C296 C297 1.363 . S
C296 C301 1.379 . S
C296 N303 1.356 . S
C297 C296 1.363 . S
C297 C300 1.363 . S
N298 C300 1.356 . S
N298 H310 0.984 . S
N298 H311 0.985 . S
N299 C301 1.356 . S
N299 H304 0.984 . S
N299 H305 0.985 . S
C300 C294 1.379 . S
C300 C297 1.363 . S
C300 N298 1.356 . S
C301 C295 1.363 . S
C301 C296 1.379 . S
C301 N299 1.356 . S
N302 C294 1.356 . S
N302 H308 0.984 . S
N302 H309 0.984 . S
N303 C296 1.356 . S
N303 H306 0.984 . S
N303 H307 0.985 . S
H304 N299 0.984 . S
H305 N299 0.985 . S
H306 N303 0.984 . S
H307 N303 0.985 . S
H308 N302 0.984 . S
H309 N302 0.984 . S
H310 N298 0.984 . S
H311 N298 0.985 . S
C312 C313 1.363 . S
C312 C318 1.379 . S
C312 N320 1.356 . S
C313 C312 1.363 . S
C313 C319 1.363 . S
C314 C315 1.363 . S
C314 C319 1.379 . S
C314 N321 1.356 . S
C315 C314 1.363 . S
C315 C318 1.363 . S
N316 C318 1.356 . S
N316 H328 0.984 . S
N316 H329 0.985 . S
N317 C319 1.356 . S
N317 H322 0.984 . S
N317 H323 0.985 . S
C318 C312 1.379 . S
C318 C315 1.363 . S
C318 N316 1.356 . S
C319 C313 1.363 . S
C319 C314 1.379 . S
C319 N317 1.356 . S
N320 C312 1.356 . S
N320 H326 0.984 . S
N320 H327 0.984 . S
N321 C314 1.356 . S
N321 H324 0.984 . S
N321 H325 0.985 . S
H322 N317 0.984 . S
H323 N317 0.985 . S
H324 N321 0.984 . S
H325 N321 0.985 . S
H326 N320 0.984 . S
H327 N320 0.984 . S
H328 N316 0.984 . S
H329 N316 0.985 . S
C330 C331 1.363 . S
C330 C336 1.379 . S
C330 N338 1.356 . S
C331 C330 1.363 . S
C331 C337 1.363 . S
C332 C333 1.363 . S
C332 C337 1.379 . S
C332 N339 1.356 . S
C333 C332 1.363 . S
C333 C336 1.363 . S
N334 C336 1.356 . S
N334 H346 0.984 . S
N334 H347 0.985 . S
N335 C337 1.356 . S
N335 H340 0.984 . S
N335 H341 0.985 . S
C336 C330 1.379 . S
C336 C333 1.363 . S
C336 N334 1.356 . S
C337 C331 1.363 . S
C337 C332 1.379 . S
C337 N335 1.356 . S
N338 C330 1.356 . S
N338 H344 0.984 . S
N338 H345 0.984 . S
N339 C332 1.356 . S
N339 H342 0.984 . S
N339 H343 0.985 . S
H340 N335 0.984 . S
H341 N335 0.985 . S
H342 N339 0.984 . S
H343 N339 0.985 . S
H344 N338 0.984 . S
H345 N338 0.984 . S
H346 N334 0.984 . S
H347 N334 0.985 . S
C348 C349 1.363 . S
C348 C354 1.379 . S
C348 N356 1.356 . S
C349 C348 1.363 . S
C349 C355 1.363 . S
C350 C351 1.363 . S
C350 C355 1.379 . S
C350 N357 1.356 . S
C351 C350 1.363 . S
C351 C354 1.363 . S
N352 C354 1.356 . S
N352 H364 0.984 . S
N352 H365 0.985 . S
N353 C355 1.356 . S
N353 H358 0.984 . S
N353 H359 0.985 . S
C354 C348 1.379 . S
C354 C351 1.363 . S
C354 N352 1.356 . S
C355 C349 1.363 . S
C355 C350 1.379 . S
C355 N353 1.356 . S
N356 C348 1.356 . S
N356 H362 0.984 . S
N356 H363 0.984 . S
N357 C350 1.356 . S
N357 H360 0.984 . S
N357 H361 0.985 . S
H358 N353 0.984 . S
H359 N353 0.985 . S
H360 N357 0.984 . S
H361 N357 0.985 . S
H362 N356 0.984 . S
H363 N356 0.984 . S
H364 N352 0.984 . S
H365 N352 0.985 . S
C366 C367 1.363 . S
C366 C372 1.379 . S
C366 N374 1.356 . S
C367 C366 1.363 . S
C367 C373 1.363 . S
C368 C369 1.363 . S
C368 C373 1.379 . S
C368 N375 1.356 . S
C369 C368 1.363 . S
C369 C372 1.363 . S
N370 C372 1.356 . S
N370 H382 0.984 . S
N370 H383 0.985 . S
N371 C373 1.356 . S
N371 H376 0.984 . S
N371 H377 0.985 . S
C372 C366 1.379 . S
C372 C369 1.363 . S
C372 N370 1.356 . S
C373 C367 1.363 . S
C373 C368 1.379 . S
C373 N371 1.356 . S
N374 C366 1.356 . S
N374 H380 0.984 . S
N374 H381 0.984 . S
N375 C368 1.356 . S
N375 H378 0.984 . S
N375 H379 0.985 . S
H376 N371 0.984 . S
H377 N371 0.985 . S
H378 N375 0.984 . S
H379 N375 0.985 . S
H380 N374 0.984 . S
H381 N374 0.984 . S
H382 N370 0.984 . S
H383 N370 0.985 . S
C384 C385 1.363 . S
C384 C390 1.379 . S
C384 N392 1.356 . S
C385 C384 1.363 . S
C385 C391 1.363 . S
C386 C387 1.363 . S
C386 C391 1.379 . S
C386 N393 1.356 . S
C387 C386 1.363 . S
C387 C390 1.363 . S
N388 C390 1.356 . S
N388 H400 0.984 . S
N388 H401 0.985 . S
N389 C391 1.356 . S
N389 H394 0.984 . S
N389 H395 0.985 . S
C390 C384 1.379 . S
C390 C387 1.363 . S
C390 N388 1.356 . S
C391 C385 1.363 . S
C391 C386 1.379 . S
C391 N389 1.356 . S
N392 C384 1.356 . S
N392 H398 0.984 . S
N392 H399 0.984 . S
N393 C386 1.356 . S
N393 H396 0.984 . S
N393 H397 0.985 . S
H394 N389 0.984 . S
H395 N389 0.985 . S
H396 N393 0.984 . S
H397 N393 0.985 . S
H398 N392 0.984 . S
H399 N392 0.984 . S
H400 N388 0.984 . S
H401 N388 0.985 . S
C402 C403 1.363 . S
C402 C408 1.379 . S
C402 N410 1.356 . S
C403 C402 1.363 . S
C403 C409 1.363 . S
C404 C405 1.363 . S
C404 C409 1.379 . S
C404 N411 1.356 . S
C405 C404 1.363 . S
C405 C408 1.363 . S
N406 C408 1.356 . S
N406 H418 0.984 . S
N406 H419 0.985 . S
N407 C409 1.356 . S
N407 H412 0.984 . S
N407 H413 0.985 . S
C408 C402 1.379 . S
C408 C405 1.363 . S
C408 N406 1.356 . S
C409 C403 1.363 . S
C409 C404 1.379 . S
C409 N407 1.356 . S
N410 C402 1.356 . S
N410 H416 0.984 . S
N410 H417 0.984 . S
N411 C404 1.356 . S
N411 H414 0.984 . S
N411 H415 0.985 . S
H412 N407 0.984 . S
H413 N407 0.985 . S
H414 N411 0.984 . S
H415 N411 0.985 . S
H416 N410 0.984 . S
H417 N410 0.984 . S
H418 N406 0.984 . S
H419 N406 0.985 . S
C420 C421 1.363 . S
C420 C426 1.379 . S
C420 N428 1.356 . S
C421 C420 1.363 . S
C421 C427 1.363 . S
C422 C423 1.363 . S
C422 C427 1.379 . S
C422 N429 1.356 . S
C423 C422 1.363 . S
C423 C426 1.363 . S
N424 C426 1.356 . S
N424 H436 0.984 . S
N424 H437 0.985 . S
N425 C427 1.356 . S
N425 H430 0.984 . S
N425 H431 0.985 . S
C426 C420 1.379 . S
C426 C423 1.363 . S
C426 N424 1.356 . S
C427 C421 1.363 . S
C427 C422 1.379 . S
C427 N425 1.356 . S
N428 C420 1.356 . S
N428 H434 0.984 . S
N428 H435 0.984 . S
N429 C422 1.356 . S
N429 H432 0.984 . S
N429 H433 0.985 . S
H430 N425 0.984 . S
H431 N425 0.985 . S
H432 N429 0.984 . S
H433 N429 0.985 . S
H434 N428 0.984 . S
H435 N428 0.984 . S
H436 N424 0.984 . S
H437 N424 0.985 . S
C438 C439 1.363 . S
C438 C444 1.379 . S
C438 N446 1.356 . S
C439 C438 1.363 . S
C439 C445 1.363 . S
C440 C441 1.363 . S
C440 C445 1.379 . S
C440 N447 1.356 . S
C441 C440 1.363 . S
C441 C444 1.363 . S
N442 C444 1.356 . S
N442 H454 0.984 . S
N442 H455 0.985 . S
N443 C445 1.356 . S
N443 H448 0.984 . S
N443 H449 0.985 . S
C444 C438 1.379 . S
C444 C441 1.363 . S
C444 N442 1.356 . S
C445 C439 1.363 . S
C445 C440 1.379 . S
C445 N443 1.356 . S
N446 C438 1.356 . S
N446 H452 0.984 . S
N446 H453 0.984 . S
N447 C440 1.356 . S
N447 H450 0.984 . S
N447 H451 0.985 . S
H448 N443 0.984 . S
H449 N443 0.985 . S
H450 N447 0.984 . S
H451 N447 0.985 . S
H452 N446 0.984 . S
H453 N446 0.984 . S
H454 N442 0.984 . S
H455 N442 0.985 . S
C456 C457 1.363 . S
C456 C462 1.379 . S
C456 N464 1.356 . S
C457 C456 1.363 . S
C457 C463 1.363 . S
C458 C459 1.363 . S
C458 C463 1.379 . S
C458 N465 1.356 . S
C459 C458 1.363 . S
C459 C462 1.363 . S
N460 C462 1.356 . S
N460 H472 0.984 . S
N460 H473 0.985 . S
N461 C463 1.356 . S
N461 H466 0.984 . S
N461 H467 0.985 . S
C462 C456 1.379 . S
C462 C459 1.363 . S
C462 N460 1.356 . S
C463 C457 1.363 . S
C463 C458 1.379 . S
C463 N461 1.356 . S
N464 C456 1.356 . S
N464 H470 0.984 . S
N464 H471 0.984 . S
N465 C458 1.356 . S
N465 H468 0.984 . S
N465 H469 0.985 . S
H466 N461 0.984 . S
H467 N461 0.985 . S
H468 N465 0.984 . S
H469 N465 0.985 . S
H470 N464 0.984 . S
H471 N464 0.984 . S
H472 N460 0.984 . S
H473 N460 0.985 . S
C474 C475 1.363 . S
C474 C480 1.379 . S
C474 N482 1.356 . S
C475 C474 1.363 . S
C475 C481 1.363 . S
C476 C477 1.363 . S
C476 C481 1.379 . S
C476 N483 1.356 . S
C477 C476 1.363 . S
C477 C480 1.363 . S
N478 C480 1.356 . S
N478 H490 0.984 . S
N478 H491 0.985 . S
N479 C481 1.356 . S
N479 H484 0.984 . S
N479 H485 0.985 . S
C480 C474 1.379 . S
C480 C477 1.363 . S
C480 N478 1.356 . S
C481 C475 1.363 . S
C481 C476 1.379 . S
C481 N479 1.356 . S
N482 C474 1.356 . S
N482 H488 0.984 . S
N482 H489 0.984 . S
N483 C476 1.356 . S
N483 H486 0.984 . S
N483 H487 0.985 . S
H484 N479 0.984 . S
H485 N479 0.985 . S
H486 N483 0.984 . S
H487 N483 0.985 . S
H488 N482 0.984 . S
H489 N482 0.984 . S
H490 N478 0.984 . S
H491 N478 0.985 . S
C492 C493 1.363 . S
C492 C498 1.379 . S
C492 N500 1.356 . S
C493 C492 1.363 . S
C493 C499 1.363 . S
C494 C495 1.363 . S
C494 C499 1.379 . S
C494 N501 1.356 . S
C495 C494 1.363 . S
C495 C498 1.363 . S
N496 C498 1.356 . S
N496 H508 0.984 . S
N496 H509 0.985 . S
N497 C499 1.356 . S
N497 H502 0.984 . S
N497 H503 0.985 . S
C498 C492 1.379 . S
C498 C495 1.363 . S
C498 N496 1.356 . S
C499 C493 1.363 . S
C499 C494 1.379 . S
C499 N497 1.356 . S
N500 C492 1.356 . S
N500 H506 0.984 . S
N500 H507 0.984 . S
N501 C494 1.356 . S
N501 H504 0.984 . S
N501 H505 0.985 . S
H502 N497 0.984 . S
H503 N497 0.985 . S
H504 N501 0.984 . S
H505 N501 0.985 . S
H506 N500 0.984 . S
H507 N500 0.984 . S
H508 N496 0.984 . S
H509 N496 0.985 . S
C510 C511 1.363 . S
C510 C516 1.379 . S
C510 N518 1.356 . S
C511 C510 1.363 . S
C511 C517 1.363 . S
C512 C513 1.363 . S
C512 C517 1.379 . S
C512 N519 1.356 . S
C513 C512 1.363 . S
C513 C516 1.363 . S
N514 C516 1.356 . S
N514 H526 0.984 . S
N514 H527 0.985 . S
N515 C517 1.356 . S
N515 H520 0.984 . S
N515 H521 0.985 . S
C516 C510 1.379 . S
C516 C513 1.363 . S
C516 N514 1.356 . S
C517 C511 1.363 . S
C517 C512 1.379 . S
C517 N515 1.356 . S
N518 C510 1.356 . S
N518 H524 0.984 . S
N518 H525 0.984 . S
N519 C512 1.356 . S
N519 H522 0.984 1_554 S
N519 H523 0.985 . S
H520 N515 0.984 . S
H521 N515 0.985 . S
H522 N519 0.984 1_556 S
H523 N519 0.985 . S
H524 N518 0.984 . S
H525 N518 0.984 . S
H526 N514 0.984 . S
H527 N514 0.985 . S
C528 C529 1.363 . S
C528 C534 1.379 . S
C528 N536 1.356 . S
C529 C528 1.363 . S
C529 C535 1.363 . S
C530 C531 1.363 . S
C530 C535 1.379 . S
C530 N537 1.356 1_545 S
C531 C530 1.363 . S
C531 C534 1.363 . S
N532 C534 1.356 . S
N532 H544 0.984 . S
N532 H545 0.985 . S
N533 C535 1.356 1_565 S
N533 H538 0.984 . S
N533 H539 0.985 . S
C534 C528 1.379 . S
C534 C531 1.363 . S
C534 N532 1.356 . S
C535 C529 1.363 . S
C535 C530 1.379 . S
C535 N533 1.356 1_545 S
N536 C528 1.356 . S
N536 H542 0.984 . S
N536 H543 0.984 . S
N537 C530 1.356 1_565 S
N537 H540 0.984 1_565 S
N537 H541 0.985 . S
H538 N533 0.984 . S
H539 N533 0.985 . S
H540 N537 0.984 1_545 S
H541 N537 0.985 . S
H542 N536 0.984 . S
H543 N536 0.984 . S
H544 N532 0.984 . S
H545 N532 0.985 . S
C546 C547 1.363 . S
C546 C552 1.379 . S
C546 N554 1.356 . S
C547 C546 1.363 . S
C547 C553 1.363 . S
C548 C549 1.363 . S
C548 C553 1.379 . S
C548 N555 1.356 . S
C549 C548 1.363 . S
C549 C552 1.363 . S
N550 C552 1.356 . S
N550 H562 0.984 . S
N550 H563 0.985 . S
N551 C553 1.356 . S
N551 H556 0.984 . S
N551 H557 0.985 . S
C552 C546 1.379 . S
C552 C549 1.363 . S
C552 N550 1.356 . S
C553 C547 1.363 . S
C553 C548 1.379 . S
C553 N551 1.356 . S
N554 C546 1.356 . S
N554 H560 0.984 . S
N554 H561 0.984 . S
N555 C548 1.356 . S
N555 H558 0.984 . S
N555 H559 0.985 . S
H556 N551 0.984 . S
H557 N551 0.985 . S
H558 N555 0.984 . S
H559 N555 0.985 . S
H560 N554 0.984 . S
H561 N554 0.984 . S
H562 N550 0.984 . S
H563 N550 0.985 . S
C564 C565 1.363 . S
C564 C570 1.379 . S
C564 N572 1.356 . S
C565 C564 1.363 . S
C565 C571 1.363 1_545 S
C566 C567 1.363 1_565 S
C566 C571 1.379 . S
C566 N573 1.356 . S
C567 C566 1.363 1_545 S
C567 C570 1.363 . S
N568 C570 1.356 . S
N568 H580 0.984 . S
N568 H581 0.985 . S
N569 C571 1.356 . S
N569 H574 0.984 . S
N569 H575 0.985 . S
C570 C564 1.379 . S
C570 C567 1.363 . S
C570 N568 1.356 . S
C571 C565 1.363 1_565 S
C571 C566 1.379 . S
C571 N569 1.356 . S
N572 C564 1.356 . S
N572 H578 0.984 . S
N572 H579 0.984 . S
N573 C566 1.356 . S
N573 H576 0.984 . S
N573 H577 0.985 . S
H574 N569 0.984 . S
H575 N569 0.985 . S
H576 N573 0.984 . S
H577 N573 0.985 . S
H578 N572 0.984 . S
H579 N572 0.984 . S
H580 N568 0.984 . S
H581 N568 0.985 . S
C582 C583 1.363 . S
C582 C588 1.379 . S
C582 N590 1.356 . S
C583 C582 1.363 . S
C583 C589 1.363 . S
C584 C585 1.363 . S
C584 C589 1.379 . S
C584 N591 1.356 . S
C585 C584 1.363 . S
C585 C588 1.363 . S
N586 C588 1.356 . S
N586 H598 0.984 . S
N586 H599 0.985 . S
N587 C589 1.356 . S
N587 H592 0.984 . S
N587 H593 0.985 . S
C588 C582 1.379 . S
C588 C585 1.363 . S
C588 N586 1.356 . S
C589 C583 1.363 . S
C589 C584 1.379 . S
C589 N587 1.356 . S
N590 C582 1.356 . S
N590 H596 0.984 . S
N590 H597 0.984 . S
N591 C584 1.356 . S
N591 H594 0.984 . S
N591 H595 0.985 . S
H592 N587 0.984 . S
H593 N587 0.985 . S
H594 N591 0.984 . S
H595 N591 0.985 . S
H596 N590 0.984 . S
H597 N590 0.984 . S
H598 N586 0.984 . S
H599 N586 0.985 . S
C600 C601 1.363 . S
C600 C606 1.379 . S
C600 N608 1.356 . S
C601 C600 1.363 . S
C601 C607 1.363 1_455 S
C602 C603 1.363 1_655 S
C602 C607 1.379 . S
C602 N609 1.356 . S
C603 C602 1.363 1_455 S
C603 C606 1.363 . S
N604 C606 1.356 . S
N604 H616 0.984 . S
N604 H617 0.985 . S
N605 C607 1.356 . S
N605 H610 0.984 . S
N605 H611 0.985 . S
C606 C600 1.379 . S
C606 C603 1.363 . S
C606 N604 1.356 . S
C607 C601 1.363 1_655 S
C607 C602 1.379 . S
C607 N605 1.356 . S
N608 C600 1.356 . S
N608 H614 0.984 . S
N608 H615 0.984 . S
N609 C602 1.356 . S
N609 H612 0.984 . S
N609 H613 0.985 . S
H610 N605 0.984 . S
H611 N605 0.985 . S
H612 N609 0.984 . S
H613 N609 0.985 . S
H614 N608 0.984 . S
H615 N608 0.984 . S
H616 N604 0.984 . S
H617 N604 0.985 . S
C295 C8 2.074 . S
C297 C271 2.122 . S
C313 C26 1.424 . S
C315 C198 1.406 . S
C331 C48 1.588 . S
C333 C237 1.618 . S
C349 C19 1.966 . S
C351 C276 1.944 . S
C369 C193 1.562 . S
C367 C36 1.575 . S
C387 C232 1.816 . S
C385 C59 1.821 . S
C403 C28 1.610 . S
C405 C120 1.643 . S
C421 C46 1.300 . S
C423 C154 1.296 . S
C439 C16 1.645 . S
C441 C76 1.631 . S
C459 C115 1.781 . S
C457 C39 1.801 . S
C477 C159 1.107 . S
C475 C56 1.113 . S
C493 C6 1.491 . S
C495 C81 1.457 . S
C513 C139 1.490 . S
C511 C9 1.408 . S
C529 C21 1.516 . S
C531 C61 1.522 . S
C547 C49 1.482 . S
C549 C100 1.494 . S
C567 C217 1.482 . S
C565 C29 1.480 . S
C585 C256 1.594 . S
C583 C41 1.577 . S
C601 C1 1.505 . S
C603 C178 1.516 1_455 S
