# Generated by pormake.
# Topology pyr, (3,6)-cn, num edge types: 1
# Building blocks:
#     Node 0, Type 0, BuildingBlock: QEWDON_clean_linker_0, # of connection points: 3
#     Node 1, Type 0, BuildingBlock: QEWDON_clean_linker_0, # of connection points: 3
#     Node 2, Type 0, BuildingBlock: QEWDON_clean_linker_0, # of connection points: 3
#     Node 3, Type 0, BuildingBlock: QEWDON_clean_linker_0, # of connection points: 3
#     Node 4, Type 0, BuildingBlock: QEWDON_clean_linker_0, # of connection points: 3
#     Node 5, Type 0, BuildingBlock: QEWDON_clean_linker_0, # of connection points: 3
#     Node 6, Type 0, BuildingBlock: QEWDON_clean_linker_0, # of connection points: 3
#     Node 7, Type 0, BuildingBlock: QEWDON_clean_linker_0, # of connection points: 3
#     Node 8, Type 1, BuildingBlock: GEDQOX_clean_sbu_0, # of connection points: 6
#     Node 9, Type 1, BuildingBlock: GEDQOX_clean_sbu_0, # of connection points: 6
#     Node 10, Type 1, BuildingBlock: GEDQOX_clean_sbu_0, # of connection points: 6
#     Node 11, Type 1, BuildingBlock: GEDQOX_clean_sbu_0, # of connection points: 6
#     Edge 12, Type (0, 1), BuildingBlock: UVAHIK_clean_linker_0, # of connection points: 2
#     Edge 13, Type (0, 1), BuildingBlock: UVAHIK_clean_linker_0, # of connection points: 2
#     Edge 14, Type (0, 1), BuildingBlock: UVAHIK_clean_linker_0, # of connection points: 2
#     Edge 15, Type (0, 1), BuildingBlock: UVAHIK_clean_linker_0, # of connection points: 2
#     Edge 16, Type (0, 1), BuildingBlock: UVAHIK_clean_linker_0, # of connection points: 2
#     Edge 17, Type (0, 1), BuildingBlock: UVAHIK_clean_linker_0, # of connection points: 2
#     Edge 18, Type (0, 1), BuildingBlock: UVAHIK_clean_linker_0, # of connection points: 2
#     Edge 19, Type (0, 1), BuildingBlock: UVAHIK_clean_linker_0, # of connection points: 2
#     Edge 20, Type (0, 1), BuildingBlock: UVAHIK_clean_linker_0, # of connection points: 2
#     Edge 21, Type (0, 1), BuildingBlock: UVAHIK_clean_linker_0, # of connection points: 2
#     Edge 22, Type (0, 1), BuildingBlock: UVAHIK_clean_linker_0, # of connection points: 2
#     Edge 23, Type (0, 1), BuildingBlock: UVAHIK_clean_linker_0, # of connection points: 2
#     Edge 24, Type (0, 1), BuildingBlock: UVAHIK_clean_linker_0, # of connection points: 2
#     Edge 25, Type (0, 1), BuildingBlock: UVAHIK_clean_linker_0, # of connection points: 2
#     Edge 26, Type (0, 1), BuildingBlock: UVAHIK_clean_linker_0, # of connection points: 2
#     Edge 27, Type (0, 1), BuildingBlock: UVAHIK_clean_linker_0, # of connection points: 2
#     Edge 28, Type (0, 1), BuildingBlock: UVAHIK_clean_linker_0, # of connection points: 2
#     Edge 29, Type (0, 1), BuildingBlock: UVAHIK_clean_linker_0, # of connection points: 2
#     Edge 30, Type (0, 1), BuildingBlock: UVAHIK_clean_linker_0, # of connection points: 2
#     Edge 31, Type (0, 1), BuildingBlock: UVAHIK_clean_linker_0, # of connection points: 2
#     Edge 32, Type (0, 1), BuildingBlock: UVAHIK_clean_linker_0, # of connection points: 2
#     Edge 33, Type (0, 1), BuildingBlock: UVAHIK_clean_linker_0, # of connection points: 2
#     Edge 34, Type (0, 1), BuildingBlock: UVAHIK_clean_linker_0, # of connection points: 2
#     Edge 35, Type (0, 1), BuildingBlock: UVAHIK_clean_linker_0, # of connection points: 2
# Relax obj value: 0.194
# Max RMSD: 0.287
# Mean RMSD: 0.202
data_MOF--net-pyr--node1-GEDQOX_clean_sbu_0--node2-QEWDON_clean_linker_0--edge1-UVAHIK_clean_linker_0
_symmetry_space_group_name_H-M    P1
_symmetry_Int_Tables_number       1
_symmetry_cell_setting            triclinic
loop_
_symmetry_equiv_pos_as_xyz
'x, y, z'
_cell_length_a     49.718719
_cell_length_b     49.749592
_cell_length_c     48.037481
_cell_angle_alpha  88.123602
_cell_angle_beta   91.281693
_cell_angle_gamma 97.175789
loop_
_atom_site_label
_atom_site_type_symbol
_atom_site_fract_x
_atom_site_fract_y
_atom_site_fract_z
_atom_type_partial_charge
H0 H 0.26578 0.23139 0.16746 0.0
C1 C 0.25342 0.22106 0.18377 0.0
C2 C 0.25956 0.19546 0.1945 0.0
C3 C 0.23284 0.23481 0.19495 0.0
H4 H 0.24743 0.16383 0.22525 0.0
C5 C 0.24383 0.18365 0.21733 0.0
C6 C 0.22336 0.19686 0.22989 0.0
C7 C 0.21823 0.22246 0.218 0.0
C8 C 0.23221 0.26475 0.18736 0.0
H9 H 0.20408 0.23389 0.22775 0.0
C10 C 0.21037 0.27657 0.17321 0.0
C11 C 0.21294 0.30524 0.16633 0.0
C12 C 0.25555 0.28214 0.19474 0.0
H13 H 0.27234 0.27417 0.20557 0.0
C14 C 0.2578 0.30984 0.18854 0.0
H15 H 0.19216 0.2637 0.1671 0.0
C16 C 0.23696 0.32117 0.17449 0.0
H17 H 0.2397 0.34281 0.16987 0.0
H18 H 0.27606 0.3227 0.19454 0.0
H19 H 0.35035 0.81389 0.84688 0.0
C20 C 0.36233 0.80366 0.83299 0.0
C21 C 0.39073 0.80982 0.8328 0.0
C22 C 0.34898 0.78458 0.8151 0.0
H23 H 0.4276 0.79935 0.81529 0.0
C24 C 0.4057 0.7952 0.8153 0.0
C25 C 0.39247 0.77528 0.79771 0.0
C26 C 0.36395 0.77071 0.79736 0.0
C27 C 0.31915 0.77971 0.81455 0.0
H28 H 0.35321 0.75633 0.78327 0.0
C29 C 0.30445 0.79082 0.79272 0.0
C30 C 0.27593 0.78778 0.79289 0.0
C31 C 0.30534 0.7651 0.83644 0.0
H32 H 0.31647 0.75654 0.85349 0.0
C33 C 0.27704 0.76153 0.83646 0.0
H34 H 0.31528 0.80266 0.77621 0.0
C35 C 0.26237 0.77288 0.81491 0.0
H36 H 0.24043 0.76996 0.81545 0.0
H37 H 0.26643 0.75014 0.85335 0.0
H38 H 0.72685 0.54256 0.96213 0.0
C39 C 0.71879 0.5232 0.97154 0.0
C40 C 0.73641 0.50442 0.97998 0.0
C41 C 0.69069 0.51668 0.97429 0.0
H42 H 0.73942 0.46477 0.99816 0.0
C43 C 0.72571 0.47909 0.99139 0.0
C44 C 0.69759 0.47212 0.99397 0.0
C45 C 0.68025 0.49126 0.98563 0.0
C46 C 0.67183 0.53504 0.96271 0.0
H47 H 0.65846 0.4859 0.9864 0.0
C48 C 0.67276 0.54273 0.93433 0.0
C49 C 0.65237 0.55659 0.92179 0.0
C50 C 0.65122 0.5426 0.97912 0.0
H51 H 0.65011 0.53673 1.00102 0.0
C52 C 0.63163 0.55743 0.96724 0.0
H53 H 0.68885 0.53686 0.92191 0.0
C54 C 0.63192 0.56409 0.93876 0.0
H55 H 0.61553 0.57426 0.93001 0.0
H56 H 0.61566 0.56305 0.97997 0.0
H57 H 0.83839 0.86149 0.3136 0.0
C58 C 0.83533 0.84216 0.32489 0.0
C59 C 0.84661 0.83956 0.35171 0.0
C60 C 0.8205 0.81971 0.31244 0.0
H61 H 0.85096 0.81283 0.38711 0.0
C62 C 0.84259 0.8145 0.3662 0.0
C63 C 0.82817 0.79169 0.35388 0.0
C64 C 0.81729 0.79451 0.32683 0.0
C65 C 0.80915 0.82222 0.28395 0.0
H66 H 0.80631 0.77711 0.31684 0.0
C67 C 0.81605 0.80513 0.26336 0.0
C68 C 0.80522 0.80685 0.23623 0.0
C69 C 0.79134 0.84133 0.27723 0.0
H70 H 0.78579 0.85474 0.29286 0.0
C71 C 0.78013 0.84282 0.25033 0.0
H72 H 0.82996 0.79048 0.26847 0.0
C73 C 0.7869 0.82556 0.22989 0.0
H74 H 0.77828 0.82715 0.20908 0.0
H75 H 0.76621 0.85742 0.2453 0.0
H76 H 0.87202 0.86107 0.90999 0.0
C77 C 0.88186 0.87254 0.89271 0.0
C78 C 0.90668 0.86524 0.88273 0.0
C79 C 0.86867 0.89375 0.88001 0.0
H80 H 0.93639 0.87433 0.85049 0.0
C81 C 0.91826 0.88028 0.85926 0.0
C82 C 0.90595 0.90166 0.84568 0.0
C83 C 0.88106 0.90798 0.85651 0.0
C84 C 0.83881 0.89503 0.88588 0.0
H85 H 0.87063 0.9234 0.84607 0.0
C86 C 0.8278 0.91423 0.90301 0.0
C87 C 0.79893 0.91233 0.90744 0.0
C88 C 0.82056 0.8749 0.87349 0.0
H89 H 0.82794 0.86012 0.86045 0.0
C90 C 0.79276 0.87325 0.87755 0.0
H91 H 0.84134 0.92993 0.91298 0.0
C92 C 0.78215 0.89154 0.89426 0.0
H93 H 0.76039 0.8894 0.89694 0.0
H94 H 0.77923 0.85746 0.86769 0.0
H95 H 0.70669 0.2757 0.39385 0.0
C96 C 0.70152 0.26733 0.37362 0.0
C97 C 0.72019 0.25341 0.35994 0.0
C98 C 0.67566 0.2694 0.36195 0.0
H99 H 0.7262 0.23004 0.32388 0.0
C100 C 0.71271 0.24202 0.33397 0.0
C101 C 0.68707 0.24425 0.32187 0.0
C102 C 0.66901 0.25847 0.33574 0.0
C103 C 0.65442 0.28022 0.37816 0.0
H104 H 0.64929 0.26044 0.32637 0.0
C105 C 0.66024 0.30367 0.39406 0.0
C106 C 0.63985 0.31284 0.40994 0.0
C107 C 0.62798 0.26623 0.37835 0.0
H108 H 0.62295 0.24782 0.3669 0.0
C109 C 0.60777 0.27546 0.39373 0.0
H110 H 0.6805 0.3146 0.39426 0.0
C111 C 0.61359 0.29856 0.4094 0.0
H112 H 0.59742 0.30539 0.42102 0.0
H113 H 0.58752 0.26455 0.39362 0.0
H114 H 0.38956 0.64529 0.24502 0.0
C115 C 0.37052 0.64936 0.23539 0.0
C116 C 0.37054 0.6694 0.21401 0.0
C117 C 0.34615 0.6339 0.24362 0.0
H118 H 0.34542 0.68926 0.18451 0.0
C119 C 0.34587 0.67368 0.20076 0.0
C120 C 0.32149 0.65848 0.20869 0.0
C121 C 0.32168 0.63899 0.23037 0.0
C122 C 0.34612 0.6118 0.26529 0.0
H123 H 0.30272 0.6274 0.23653 0.0
C124 C 0.36297 0.61493 0.28926 0.0
C125 C 0.36261 0.59398 0.30981 0.0
C126 C 0.32906 0.58727 0.26203 0.0
H127 H 0.31631 0.5839 0.24359 0.0
C128 C 0.32842 0.56662 0.28238 0.0
H129 H 0.37635 0.63362 0.2919 0.0
C130 C 0.34493 0.56992 0.30614 0.0
H131 H 0.34365 0.55365 0.32177 0.0
H132 H 0.31506 0.54793 0.27971 0.0
H133 H 0.25098 0.29505 0.83298 0.0
C134 C 0.23625 0.28325 0.81984 0.0
C135 C 0.23495 0.2898 0.79128 0.0
C136 C 0.21882 0.26158 0.83154 0.0
H137 H 0.2159 0.27874 0.75199 0.0
C138 C 0.21616 0.27433 0.77423 0.0
C139 C 0.19877 0.25237 0.78536 0.0
C140 C 0.20018 0.24616 0.81411 0.0
C141 C 0.22004 0.25549 0.86202 0.0
H142 H 0.18644 0.22963 0.82296 0.0
C143 C 0.22315 0.27679 0.88078 0.0
C144 C 0.22478 0.27166 0.90968 0.0
C145 C 0.21826 0.22866 0.8726 0.0
H146 H 0.21612 0.2118 0.85868 0.0
C147 C 0.21967 0.22338 0.90133 0.0
H148 H 0.22355 0.29749 0.87288 0.0
C149 C 0.22287 0.24471 0.91983 0.0
H150 H 0.22402 0.24017 0.942 0.0
H151 H 0.21837 0.20266 0.90929 0.0
Nd152 Nd 0.07378 0.03417 0.53683 0.0
Nd153 Nd 0.03916 0.07896 0.53699 0.0
C154 C 0.10197 0.99345 0.52934 0.0
C155 C 0.11315 0.97316 0.54774 0.0
C156 C 0.09831 0.96062 0.57018 0.0
C157 C 0.11006 0.94301 0.5887 0.0
C158 C 0.13699 0.93784 0.58537 0.0
C159 C 0.15161 0.95021 0.56261 0.0
C160 C 0.13976 0.96764 0.54397 0.0
C161 C 0.08961 0.07225 0.57584 0.0
C162 C 0.03097 0.03001 0.58729 0.0
C163 C 1.00909 0.118 0.5463 0.0
C164 C 0.98983 0.13373 0.53097 0.0
C165 C 0.99764 0.15089 0.50795 0.0
C166 C 0.97856 0.16484 0.49352 0.0
C167 C 0.95129 0.16183 0.50173 0.0
C168 C 0.94371 0.14472 0.52488 0.0
C169 C 0.96276 0.13101 0.53938 0.0
C170 C 1.02185 0.04005 0.49918 0.0
C171 C 0.08287 0.08282 0.48664 0.0
O172 O 0.07555 0.99137 0.52639 0.0
O173 O 0.11315 0.01845 0.53212 0.0
O174 O 0.09066 0.04654 0.57995 0.0
O175 O 0.08199 0.07746 0.55127 0.0
O176 O 0.04497 1.01553 0.57162 0.0
O177 O 1.02907 0.05579 0.58003 0.0
O178 O 0.03486 0.12272 0.54035 0.0
O179 O 1.00083 0.09224 0.55048 0.0
O180 O 1.02067 0.06568 0.49481 0.0
O181 O 0.03035 0.03546 0.52356 0.0
O182 O 0.06754 0.09706 0.5012 0.0
O183 O 0.08581 0.05755 0.49479 0.0
H184 H 0.07779 0.96474 0.57369 0.0
H185 H 0.09805 0.93356 0.60572 0.0
H186 H 0.1725 0.94709 0.55961 0.0
H187 H 0.15164 0.97735 0.52695 0.0
H188 H 1.01839 0.15343 0.50097 0.0
H189 H 0.98524 0.17809 0.47603 0.0
H190 H 0.92287 0.14141 0.53156 0.0
H191 H 0.95621 0.1179 0.55704 0.0
Nd192 Nd 0.533 0.03466 0.08104 0.0
Nd193 Nd 0.53657 0.07092 0.03868 0.0
C194 C 0.52728 0.99374 0.11826 0.0
C195 C 0.52796 0.96455 0.12262 0.0
C196 C 0.52912 0.94726 0.10033 0.0
C197 C 0.52782 0.91922 0.10533 0.0
C198 C 0.52528 0.90817 0.13269 0.0
C199 C 0.52478 0.92588 0.15488 0.0
C200 C 0.52617 0.95376 0.14986 0.0
C201 C 0.49644 0.07274 0.0891 0.0
C202 C 0.50424 1.01519 1.02319 0.0
C203 C 0.53816 0.11571 1.00697 0.0
C204 C 0.55087 0.14376 1.01014 0.0
C205 C 0.53748 0.16531 0.9999 0.0
C206 C 0.54909 0.19208 1.00344 0.0
C207 C 0.57436 0.19765 1.01715 0.0
C208 C 0.58764 0.176 0.02754 0.0
C209 C 0.57593 0.14928 0.02421 0.0
C210 C 0.57383 0.03444 0.02886 0.0
C211 C 0.57333 0.086 0.09427 0.0
O212 O 0.55023 1.00876 0.11371 0.0
O213 O 0.5074 1.00125 0.10298 0.0
O214 O 0.51444 0.06616 0.10703 0.0
O215 O 0.49958 0.0609 0.0665 0.0
O216 O 0.51806 1.00717 0.04487 0.0
O217 O 0.5044 0.0412 1.01769 0.0
O218 O 0.51841 0.10755 0.0238 0.0
O219 O 0.55455 0.09751 1.00428 0.0
O220 O 0.55704 0.04306 1.01063 0.0
O221 O 0.57001 0.04427 0.05257 0.0
O222 O 0.55976 0.09607 0.07347 0.0
O223 O 0.56945 0.05996 0.0998 0.0
H224 H 0.53054 0.95537 0.07913 0.0
H225 H 0.52846 0.90619 0.0878 0.0
H226 H 0.52226 0.91818 0.17612 0.0
H227 H 0.52512 0.96688 0.16727 0.0
H228 H 0.51803 0.16141 0.98919 0.0
H229 H 0.53853 0.20841 0.99507 0.0
H230 H 0.60697 0.17974 0.03849 0.0
H231 H 0.58646 0.13296 0.03267 0.0
Nd232 Nd 0.531 0.55125 0.59297 0.0
Nd233 Nd 0.58115 0.59365 0.58866 0.0
C234 C 0.4885 0.51439 0.58672 0.0
C235 C 0.46553 0.50103 0.60286 0.0
C236 C 0.44843 0.51574 0.61761 0.0
C237 C 0.42822 0.50208 0.63454 0.0
C238 C 0.42524 0.47366 0.63722 0.0
C239 C 0.44194 0.45908 0.62191 0.0
C240 C 0.46178 0.47264 0.60478 0.0
C241 C 0.56032 0.55819 0.64152 0.0
C242 C 0.52877 0.61003 0.61912 0.0
C243 C 0.62999 0.62173 0.59057 0.0
C244 C 0.65674 0.61948 0.57926 0.0
C245 C 0.67791 0.64044 0.58312 0.0
C246 C 0.70182 0.64112 0.56823 0.0
C247 C 0.70472 0.62091 0.54908 0.0
C248 C 0.68419 0.59893 0.54678 0.0
C249 C 0.66039 0.59821 0.56181 0.0
C250 C 0.54115 0.59865 0.54917 0.0
C251 C 0.58421 0.53484 0.56125 0.0
O252 O 0.48839 0.5399 0.57884 0.0
O253 O 0.51236 0.50869 0.59528 0.0
O254 O 0.5341 0.55322 0.64058 0.0
O255 O 0.5702 0.55771 0.61764 0.0
O256 O 0.51443 0.59026 0.60542 0.0
O257 O 0.55557 0.61295 0.61964 0.0
O258 O 0.62112 0.6039 0.60992 0.0
O259 O 0.61132 0.62619 0.572 0.0
O260 O 0.55468 0.61933 0.56111 0.0
O261 O 0.54938 0.57687 0.5576 0.0
O262 O 0.59636 0.55972 0.5643 0.0
O263 O 0.5597 0.52692 0.57066 0.0
H264 H 0.45105 0.53769 0.61657 0.0
H265 H 0.41556 0.51369 0.64624 0.0
H266 H 0.43979 0.43714 0.6234 0.0
H267 H 0.47471 0.46094 0.59352 0.0
H268 H 0.67537 0.65705 0.59647 0.0
H269 H 0.71717 0.65846 0.57019 0.0
H270 H 0.68598 0.58302 0.53231 0.0
H271 H 0.64435 0.58181 0.55863 0.0
Nd272 Nd 0.03312 0.57512 0.04305 0.0
Nd273 Nd 0.07611 0.58342 0.99854 0.0
C274 C 0.99048 0.56249 0.0747 0.0
C275 C 0.97078 0.57939 0.08457 0.0
C276 C 0.97474 0.60738 0.07875 0.0
C277 C 0.95537 0.62364 0.08625 0.0
C278 C 0.93161 0.61219 0.09965 0.0
C279 C 0.92784 0.5841 0.10573 0.0
C280 C 0.9473 0.56778 0.09811 0.0
C281 C 0.07688 0.61241 0.05572 0.0
C282 C 0.03293 0.6283 0.99963 0.0
C283 C 0.12088 0.58695 0.96959 0.0
C284 C 0.14426 0.57163 0.97218 0.0
C285 C 0.15598 0.56379 0.94799 0.0
C286 C 0.17219 0.54278 0.94927 0.0
C287 C 0.17674 0.52921 0.97478 0.0
C288 C 0.16727 0.53901 0.99936 0.0
C289 C 0.15102 0.56001 0.99806 0.0
C290 C 1.0258 0.56084 0.98079 0.0
C291 C 0.0767 0.52967 0.0429 0.0
O292 O 0.98982 0.55954 0.04773 0.0
O293 O 1.01518 0.56773 0.08487 0.0
O294 O 0.05215 0.61531 0.06189 0.0
O295 O 0.07773 0.59013 0.04434 0.0
O296 O 1.01779 0.60949 1.01468 0.0
O297 O 0.0585 0.62503 0.99431 0.0
O298 O 0.1176 0.60348 0.9896 0.0
O299 O 0.09833 0.57226 0.96223 0.0
O300 O 0.04079 0.57921 0.96633 0.0
O301 O 0.03781 0.55489 1.00304 0.0
O302 O 0.08778 0.54366 1.02104 0.0
O303 O 0.05527 0.53747 0.05496 0.0
H304 H 0.99273 0.61663 0.06813 0.0
H305 H 0.95913 0.64524 0.08174 0.0
H306 H 0.90966 0.57472 0.1159 0.0
H307 H 0.94387 0.54613 0.10246 0.0
H308 H 0.15091 0.57244 0.92784 0.0
H309 H 0.17963 0.53591 0.93005 0.0
H310 H 0.17035 0.52891 1.01929 0.0
H311 H 0.14203 0.56564 1.01702 0.0
C312 C 0.21965 0.16639 0.27485 0.0
C313 C 0.20829 0.18464 0.25607 0.0
C314 C 0.20604 0.15553 0.29914 0.0
C315 C 0.13742 0.15043 0.33641 0.0
H316 H 0.17872 0.12216 0.39749 0.0
C317 C 0.08969 0.11868 0.44665 0.0
C318 C 0.09702 0.09502 0.46039 0.0
C319 C 0.10271 0.12952 0.42198 0.0
C320 C 0.16664 0.12975 0.38066 0.0
H321 H 0.17226 0.20485 0.24968 0.0
H322 H 0.14975 0.18757 0.29189 0.0
H323 H 0.20178 0.14089 0.35582 0.0
H324 H 0.12459 0.06473 0.4581 0.0
H325 H 0.14742 0.08376 0.416 0.0
H326 H 0.10239 0.13992 0.36208 0.0
C327 C 0.16907 0.18085 0.28769 0.0
C328 C 0.18002 0.14055 0.35623 0.0
C329 C 0.1825 0.19139 0.26316 0.0
C330 C 0.11812 0.0829 0.44848 0.0
C331 C 0.13145 0.09401 0.42416 0.0
C332 C 0.12414 0.14004 0.36107 0.0
C333 C 0.1804 0.16257 0.30646 0.0
C334 C 0.16582 0.15109 0.33323 0.0
C335 C 0.12402 0.11752 0.41021 0.0
C336 C 0.13839 0.12929 0.38375 0.0
H337 H 0.23948 0.16057 0.27122 0.0
H338 H 0.2159 0.14133 0.31204 0.0
H339 H 0.125 0.15755 0.31966 0.0
H340 H 0.07362 0.12878 0.45482 0.0
H341 H 0.09628 0.14769 0.41233 0.0
C342 C 0.39144 0.85487 0.85525 0.0
C343 C 0.40426 0.83178 0.85065 0.0
C344 C 0.40304 0.87489 0.87304 0.0
C345 C 0.45548 0.88744 0.9295 0.0
H346 H 0.44048 0.96149 0.91694 0.0
C347 C 0.48404 0.96803 1.01238 0.0
C348 C 0.49149 0.99502 1.00345 0.0
C349 C 0.47355 0.94851 0.9934 0.0
C350 C 0.44531 0.94106 0.92069 0.0
H351 H 0.44009 0.81232 0.86081 0.0
H352 H 0.46117 0.84806 0.89048 0.0
H353 H 0.42441 0.92768 0.88343 0.0
H354 H 0.49415 0.02277 0.96765 0.0
H355 H 0.47714 0.9887 0.93432 0.0
H356 H 0.47781 0.9012 0.9659 0.0
C357 C 0.44152 0.85019 0.88111 0.0
C358 C 0.43558 0.9214 0.90159 0.0
C359 C 0.42961 0.82982 0.86365 0.0
C360 C 0.4882 1.00217 0.9752 0.0
C361 C 0.4783 0.98255 0.95608 0.0
C362 C 0.46572 0.90724 0.94831 0.0
C363 C 0.42825 0.8729 0.88632 0.0
C364 C 0.44016 0.89419 0.90588 0.0
C365 C 0.47087 0.95537 0.96486 0.0
C366 C 0.46052 0.93432 0.94439 0.0
H367 H 0.37223 0.85756 0.84515 0.0
H368 H 0.39183 0.89169 0.87671 0.0
H369 H 0.45924 0.86675 0.93386 0.0
H370 H 0.48628 0.96198 0.0341 0.0
H371 H 0.46748 0.92807 1.00125 0.0
C372 C 0.63973 0.5835 0.87903 0.0
C373 C 0.65112 0.56119 0.89093 0.0
C374 C 0.63572 0.58599 0.85021 0.0
C375 C 0.62963 0.54326 0.78765 0.0
H376 H 0.62355 0.61217 0.7494 0.0
C377 C 0.60327 0.55763 0.66951 0.0
C378 C 0.5762 0.56293 0.66744 0.0
C379 C 0.61735 0.56011 0.69504 0.0
C380 C 0.62555 0.59287 0.75985 0.0
H381 H 0.66836 0.52461 0.88106 0.0
H382 H 0.66349 0.53019 0.83121 0.0
H383 H 0.64079 0.61145 0.79747 0.0
H384 H 0.54304 0.57639 0.68956 0.0
H385 H 0.56801 0.58152 0.73397 0.0
H386 H 0.61463 0.52491 0.74967 0.0
C387 C 0.65648 0.5452 0.84417 0.0
C388 C 0.63509 0.59235 0.78745 0.0
C389 C 0.65982 0.54231 0.87298 0.0
C390 C 0.56384 0.57197 0.69077 0.0
C391 C 0.5781 0.57508 0.71602 0.0
C392 C 0.62072 0.54386 0.75992 0.0
C393 C 0.64358 0.56658 0.83238 0.0
C394 C 0.6366 0.5675 0.802 0.0
C395 C 0.60473 0.56869 0.71844 0.0
C396 C 0.61808 0.5686 0.74607 0.0
H397 H 0.63332 0.59884 0.89197 0.0
H398 H 0.6255 0.60265 0.84214 0.0
H399 H 0.62984 0.52368 0.79808 0.0
H400 H 0.61317 0.55064 0.65173 0.0
H401 H 0.63787 0.55494 0.69667 0.0
C402 C 0.84132 0.78796 0.21084 0.0
C403 C 0.81364 0.78921 0.21477 0.0
C404 C 0.84964 0.76955 0.19261 0.0
C405 C 0.82834 0.70338 0.16484 0.0
H406 H 0.89094 0.72175 0.11806 0.0
C407 C 0.89951 0.62685 0.13402 0.0
C408 C 0.91128 0.62982 0.10761 0.0
C409 C 0.88269 0.64539 0.14259 0.0
C410 C 0.87316 0.7163 0.13063 0.0
H411 H 0.77287 0.77291 0.20233 0.0
H412 H 0.78752 0.74019 0.17042 0.0
H413 H 0.87078 0.75765 0.14011 0.0
H414 H 0.91307 0.65334 0.06871 0.0
H415 H 0.88385 0.68579 0.08376 0.0
H416 H 0.83128 0.6619 0.15602 0.0
C417 C 0.8027 0.75358 0.18145 0.0
C418 C 0.86177 0.73685 0.14342 0.0
C419 C 0.79435 0.77232 0.1995 0.0
C420 C 0.90476 0.65087 0.08942 0.0
C421 C 0.88799 0.6694 0.09799 0.0
C422 C 0.83985 0.68276 0.15216 0.0
C423 C 0.83044 0.75185 0.17811 0.0
C424 C 0.83969 0.73054 0.16119 0.0
C425 C 0.87731 0.66724 0.1249 0.0
C426 C 0.86276 0.68899 0.13544 0.0
H427 H 0.85654 0.8009 0.22232 0.0
H428 H 0.87115 0.76847 0.1907 0.0
H429 H 0.81142 0.69795 0.17859 0.0
H430 H 0.90431 0.61097 0.14857 0.0
H431 H 0.875 0.64336 0.16357 0.0
C432 C 0.29764 0.16413 0.19906 0.0
C433 C 0.28312 0.18187 0.18267 0.0
C434 C 0.31971 0.15224 0.18841 0.0
C435 C 0.35679 0.14155 0.12052 0.0
H436 H 0.41073 0.11833 0.17206 0.0
C437 C 0.44768 0.08548 0.08145 0.0
C438 C 0.47188 0.08618 0.09756 0.0
C439 C 0.42471 0.09686 0.09101 0.0
C440 C 0.3963 0.12489 0.15694 0.0
H441 H 0.2817 0.19984 0.14092 0.0
H442 H 0.32005 0.18044 0.12311 0.0
H443 H 0.37292 0.13854 0.18948 0.0
H444 H 0.49026 0.10051 0.13644 0.0
H445 H 0.45162 0.12078 0.15238 0.0
H446 H 0.38088 0.12877 0.08788 0.0
C447 C 0.31421 0.17513 0.14433 0.0
C448 C 0.37381 0.1363 0.16723 0.0
C449 C 0.292 0.18686 0.15491 0.0
C450 C 0.47219 0.09919 0.12328 0.0
C451 C 0.4495 0.11074 0.13269 0.0
C452 C 0.37945 0.13031 0.11019 0.0
C453 C 0.32884 0.1575 0.16076 0.0
C454 C 0.35331 0.14499 0.14938 0.0
C455 C 0.42488 0.10968 0.11707 0.0
C456 C 0.39997 0.12168 0.12809 0.0
H457 H 0.29237 0.15957 0.22057 0.0
H458 H 0.32946 0.13863 0.20218 0.0
H459 H 0.34183 0.1473 0.10554 0.0
H460 H 0.44624 0.07562 0.06161 0.0
H461 H 0.40659 0.095 0.078 0.0
C462 C 0.2389 0.81518 0.77766 0.0
C463 C 0.26047 0.80105 0.77073 0.0
C464 C 0.22495 0.82858 0.75701 0.0
C465 C 0.2319 0.85688 0.68488 0.0
H466 H 0.15436 0.85841 0.68992 0.0
C467 C 0.16839 0.90302 0.59745 0.0
C468 C 0.15008 0.92037 0.60601 0.0
C469 C 0.18139 0.88738 0.61699 0.0
C470 C 0.17605 0.85829 0.68834 0.0
H471 H 0.28393 0.78937 0.73665 0.0
H472 H 0.25933 0.81242 0.70047 0.0
H473 H 0.17778 0.8327 0.72482 0.0
H474 H 0.1313 0.93491 0.64206 0.0
H475 H 0.15356 0.90723 0.67599 0.0
H476 H 0.23002 0.88237 0.64825 0.0
C477 C 0.25353 0.81363 0.72195 0.0
C478 C 0.1895 0.84362 0.70837 0.0
C479 C 0.26759 0.80036 0.74265 0.0
C480 C 0.14485 0.92141 0.6346 0.0
C481 C 0.15767 0.90561 0.6541 0.0
C482 C 0.2184 0.87139 0.66474 0.0
C483 C 0.23213 0.82805 0.72889 0.0
C484 C 0.21764 0.84289 0.70701 0.0
C485 C 0.1762 0.88856 0.64552 0.0
C486 C 0.19036 0.8724 0.66637 0.0
H487 H 0.23322 0.81645 0.79917 0.0
H488 H 0.20893 0.83988 0.7632 0.0
H489 H 0.25364 0.85716 0.68342 0.0
H490 H 0.17259 0.90135 0.57559 0.0
H491 H 0.19533 0.87417 0.60975 0.0
C492 C 0.78018 0.53492 0.98504 0.0
C493 C 0.76594 0.51061 0.97581 0.0
C494 C 0.80828 0.54009 0.9821 0.0
C495 C 0.86823 0.50433 0.97172 0.0
H496 H 0.90417 0.57733 0.9593 0.0
C497 C 0.98251 0.53208 0.99175 0.0
C498 C 0.99678 0.55256 0.97519 0.0
C499 C 0.95446 0.52613 0.9887 0.0
C500 C 0.89448 0.55674 0.96234 0.0
H501 H 0.76948 0.4732 0.95515 0.0
H502 H 0.81834 0.48245 0.94924 0.0
H503 H 0.85489 0.56924 0.95893 0.0
H504 H 0.99332 0.58195 0.94143 0.0
H505 H 0.9443 0.57097 0.93536 0.0
H506 H 0.90774 0.4917 0.9744 0.0
C507 C 0.8081 0.4972 0.95959 0.0
C508 C 0.86618 0.55217 0.96258 0.0
C509 C 0.78011 0.49191 0.96286 0.0
C510 C 0.98273 0.56613 0.95456 0.0
C511 C 0.95464 0.56002 0.95131 0.0
C512 C 0.89648 0.50886 0.9712 0.0
C513 C 0.82263 0.52117 0.96952 0.0
C514 C 0.85269 0.52595 0.96765 0.0
C515 C 0.94009 0.54028 0.9687 0.0
C516 C 0.90999 0.53517 0.96694 0.0
H517 H 0.76968 0.54959 0.99522 0.0
H518 H 0.8188 0.55857 0.99038 0.0
H519 H 0.85863 0.48391 0.97603 0.0
H520 H 0.99294 0.52117 1.00767 0.0
H521 H 0.94397 0.51106 1.00271 0.0
C522 C 0.84441 0.75739 0.38788 0.0
C523 C 0.82404 0.76531 0.36967 0.0
C524 C 0.83931 0.73437 0.40531 0.0
C525 C 0.79353 0.67157 0.41858 0.0
H526 H 0.7991 0.69178 0.49593 0.0
C527 C 0.72013 0.62337 0.50005 0.0
C528 C 0.72671 0.62526 0.52854 0.0
C529 C 0.73913 0.63307 0.48008 0.0
C530 C 0.7981 0.68523 0.47462 0.0
H531 H 0.78282 0.75415 0.35448 0.0
H532 H 0.7743 0.71361 0.38433 0.0
H533 H 0.81985 0.72279 0.46036 0.0
H534 H 0.75904 0.63623 0.55853 0.0
H535 H 0.79277 0.65231 0.52359 0.0
H536 H 0.77141 0.63418 0.43268 0.0
C537 C 0.79417 0.72535 0.3851 0.0
C538 C 0.80994 0.70319 0.45418 0.0
C539 C 0.79909 0.7486 0.36799 0.0
C540 C 0.75338 0.63488 0.53667 0.0
C541 C 0.77261 0.64422 0.51663 0.0
C542 C 0.78213 0.65333 0.43909 0.0
C543 C 0.81396 0.71849 0.40446 0.0
C544 C 0.80673 0.69701 0.42593 0.0
C545 C 0.76533 0.64463 0.48811 0.0
C546 C 0.7831 0.6605 0.46726 0.0
H547 H 0.86413 0.76933 0.3892 0.0
H548 H 0.85493 0.72936 0.41998 0.0
H549 H 0.79111 0.66627 0.3969 0.0
H550 H 0.69964 0.61635 0.49314 0.0
H551 H 0.73247 0.63331 0.45848 0.0
C552 C 0.1701 0.3291 0.16326 0.0
C553 C 0.19245 0.32034 0.15014 0.0
C554 C 0.15587 0.34973 0.15098 0.0
C555 C 0.13809 0.40472 0.12983 0.0
H556 H 0.13687 0.4185 0.05002 0.0
C557 C 0.07923 0.49073 0.07904 0.0
C558 C 0.08895 0.50478 0.05451 0.0
C559 C 0.09088 0.46797 0.09017 0.0
C560 C 0.13715 0.41539 0.07243 0.0
H561 H 0.21707 0.32734 0.11348 0.0
H562 H 0.19264 0.36245 0.09214 0.0
H563 H 0.15702 0.37966 0.06935 0.0
H564 H 0.11906 0.5047 1.02264 0.0
H565 H 0.13939 0.46568 0.04188 0.0
H566 H 0.11815 0.44046 0.13284 0.0
C567 C 0.18534 0.35318 0.11167 0.0
C568 C 0.14891 0.39274 0.08372 0.0
C569 C 0.19946 0.33263 0.12393 0.0
C570 C 0.1108 0.49482 0.04153 0.0
C571 C 0.12244 0.472 0.05261 0.0
C572 C 0.12625 0.42732 0.11852 0.0
C573 C 0.16352 0.3628 0.12512 0.0
C574 C 0.14982 0.3868 0.11277 0.0
C575 C 0.11283 0.45798 0.0773 0.0
C576 C 0.12552 0.43334 0.08951 0.0
H577 H 0.16447 0.321 0.1838 0.0
H578 H 0.13912 0.35578 0.16224 0.0
H579 H 0.13853 0.40178 0.15224 0.0
H580 H 0.06249 0.49738 0.08988 0.0
H581 H 0.08226 0.45797 0.10885 0.0
C582 C 0.66254 0.43979 1.01913 0.0
C583 C 0.68621 0.44424 1.00323 0.0
C584 C 0.65061 0.41344 0.02562 0.0
C585 C 0.66356 0.34229 0.03078 0.0
H586 H 0.58773 0.32569 1.00966 0.0
C587 C 0.61449 0.23317 1.01354 0.0
C588 C 0.58712 0.22595 1.02012 0.0
C589 C 0.62642 0.25999 1.01541 0.0
C590 C 0.60875 0.32999 1.01624 0.0
H591 H 0.71603 0.42423 0.9821 0.0
H592 H 0.69566 0.37847 0.99415 0.0
H593 H 0.60919 0.37245 1.00707 0.0
H594 H 0.55096 0.24084 0.03464 0.0
H595 H 0.57191 0.28768 0.03854 0.0
H596 H 0.66327 0.29992 0.03995 0.0
C597 C 0.68643 0.39541 1.00165 0.0
C598 C 0.62104 0.3568 1.01469 0.0
C599 C 0.69815 0.42169 0.99484 0.0
C600 C 0.57202 0.24597 0.0291 0.0
C601 C 0.58403 0.27278 0.03127 0.0
C602 C 0.65122 0.31551 0.03265 0.0
C603 C 0.66232 0.39103 1.01668 0.0
C604 C 0.64868 0.36312 1.0214 0.0
C605 C 0.61133 0.28017 0.0242 0.0
C606 C 0.6238 0.30893 0.02482 0.0
H607 H 0.65305 0.45666 0.02634 0.0
H608 H 0.63213 0.41057 0.03746 0.0
H609 H 0.68485 0.3467 0.03639 0.0
H610 H 0.62651 0.21819 1.00623 0.0
H611 H 0.6473 0.26497 1.00923 0.0
C612 C 0.85895 0.86998 0.39152 0.0
C613 C 0.8638 0.86248 0.36438 0.0
C614 C 0.87684 0.88967 0.40465 0.0
C615 C 0.93395 0.9441 0.39155 0.0
H616 H 0.94729 0.93301 0.47067 0.0
C617 C 0.99182 0.02688 0.4585 0.0
C618 C 1.00737 0.01917 0.48146 0.0
C619 C 0.97614 1.00735 0.44294 0.0
C620 C 0.94418 0.93624 0.4485 0.0
H621 H 0.89074 0.8697 0.32942 0.0
H622 H 0.92251 0.90363 0.35252 0.0
H623 H 0.91613 0.9002 0.44598 0.0
H624 H 1.0198 0.9851 0.50547 0.0
H625 H 0.99312 0.95075 0.47766 0.0
H626 H 0.96283 0.9796 0.39389 0.0
C627 C 0.90459 0.89487 0.36354 0.0
C628 C 0.92586 0.91765 0.4344 0.0
C629 C 0.88645 0.87543 0.35027 0.0
C630 C 1.00782 0.99154 0.48796 0.0
C631 C 0.99236 0.97193 0.47215 0.0
C632 C 0.95254 0.96253 0.40559 0.0
C633 C 0.90022 0.90195 0.39106 0.0
C634 C 0.92023 0.92151 0.40582 0.0
C635 C 0.97593 0.97962 0.44974 0.0
C636 C 0.95765 0.95902 0.43432 0.0
H637 H 0.84145 0.86036 0.4027 0.0
H638 H 0.87242 0.8951 0.42556 0.0
H639 H 0.93001 0.94786 0.3696 0.0
H640 H 0.99109 0.04808 0.45304 0.0
H641 H 0.96347 1.01411 0.42615 0.0
C642 C 0.39879 0.73168 0.77509 0.0
C643 C 0.40805 0.75914 0.77965 0.0
C644 C 0.41231 0.7167 0.7571 0.0
C645 C 0.47759 0.71163 0.72621 0.0
H646 H 0.43506 0.67123 0.66923 0.0
C647 C 0.52835 0.65341 0.64399 0.0
C648 C 0.51463 0.62856 0.6354 0.0
C649 C 0.51548 0.67042 0.66049 0.0
C650 C 0.44725 0.68202 0.68524 0.0
H651 H 0.43941 0.79205 0.76905 0.0
H652 H 0.46358 0.76542 0.7383 0.0
H653 H 0.4129 0.69843 0.70086 0.0
H654 H 0.47668 0.60198 0.63748 0.0
H655 H 0.45452 0.63106 0.66701 0.0
H656 H 0.51179 0.69456 0.71145 0.0
C657 C 0.4456 0.75574 0.74861 0.0
C658 C 0.43453 0.69774 0.70326 0.0
C659 C 0.4318 0.77093 0.76634 0.0
C660 C 0.4877 0.62114 0.64351 0.0
C661 C 0.47495 0.63795 0.66038 0.0
C662 C 0.49029 0.69556 0.70846 0.0
C663 C 0.43574 0.7286 0.74354 0.0
C664 C 0.44954 0.71262 0.72397 0.0
C665 C 0.48868 0.66281 0.6692 0.0
C666 C 0.47528 0.68045 0.68775 0.0
H667 H 0.38103 0.72162 0.7855 0.0
H668 H 0.40455 0.69566 0.75394 0.0
H669 H 0.48959 0.72271 0.74218 0.0
H670 H 0.54907 0.6598 0.63791 0.0
H671 H 0.52658 0.6896 0.6663 0.0
C672 C 0.90258 0.92555 0.79726 0.0
C673 C 0.91858 0.91619 0.81941 0.0
C674 C 0.91436 0.93808 0.77267 0.0
C675 C 0.98017 0.94782 0.73196 0.0
H676 H 0.94526 1.00209 0.6902 0.0
C677 C 1.02054 0.9903 0.62246 0.0
C678 C 1.01785 0.0173 0.61387 0.0
C679 C 1.00851 0.9784 0.64714 0.0
C680 C 0.95563 0.98715 0.70151 0.0
H681 H 0.96044 0.91415 0.83211 0.0
H682 H 0.98062 0.93561 0.78999 0.0
H683 H 0.92502 0.98172 0.7329 0.0
H684 H 0.99984 0.05262 0.62566 0.0
H685 H 0.97923 0.03221 0.66836 0.0
H686 H 1.01102 0.95357 0.70091 0.0
C687 C 0.95874 0.9328 0.7912 0.0
C688 C 0.94365 0.97503 0.72617 0.0
C689 C 0.94699 0.92032 0.81575 0.0
C690 C 1.00252 0.03182 0.63115 0.0
C691 C 0.99041 0.01989 0.65584 0.0
C692 C 0.99208 0.95986 0.70727 0.0
C693 C 0.94277 0.9419 0.76891 0.0
C694 C 0.95562 0.95505 0.7421 0.0
C695 C 0.99312 0.99285 0.66454 0.0
C696 C 0.98016 0.97987 0.69135 0.0
H697 H 0.88069 0.92264 0.79848 0.0
H698 H 0.90092 0.94422 0.75629 0.0
H699 H 0.99025 0.93243 0.7429 0.0
H700 H 0.03201 0.97815 0.61003 0.0
H701 H 1.01105 0.95752 0.6523 0.0
C702 C 0.65197 0.21481 0.29482 0.0
C703 C 0.67796 0.22959 0.29617 0.0
C704 C 0.64327 0.20035 0.27123 0.0
C705 C 0.65482 0.19429 0.19647 0.0
H706 H 0.61663 0.12224 0.20924 0.0
C707 C 0.59073 0.13209 0.11197 0.0
C708 C 0.59086 0.10383 0.11313 0.0
C709 C 0.60469 0.14828 0.1323 0.0
C710 C 0.62751 0.14219 0.20522 0.0
H711 H 0.71511 0.24095 0.27359 0.0
H712 H 0.69985 0.21536 0.23211 0.0
H713 H 0.63451 0.14864 0.24867 0.0
H714 H 0.60735 0.07067 0.13528 0.0
H715 H 0.63184 0.09881 0.17027 0.0
H716 H 0.64768 0.18764 0.15283 0.0
C717 C 0.68621 0.21523 0.2494 0.0
C718 C 0.63749 0.15746 0.22788 0.0
C719 C 0.69502 0.22967 0.27319 0.0
C720 C 0.60648 0.09232 0.134 0.0
C721 C 0.62044 0.10845 0.15416 0.0
C722 C 0.64468 0.17899 0.17368 0.0
C723 C 0.66031 0.2002 0.24832 0.0
C724 C 0.65104 0.18376 0.22383 0.0
C725 C 0.61906 0.13649 0.15408 0.0
C726 C 0.63083 0.15277 0.17784 0.0
H727 H 0.63845 0.21399 0.31228 0.0
H728 H 0.62309 0.18924 0.27094 0.0
H729 H 0.66507 0.21456 0.19272 0.0
H730 H 0.57896 0.14158 0.09607 0.0
H731 H 0.60316 0.16982 0.13168 0.0
C732 C 0.38551 0.62173 0.34869 0.0
C733 C 0.38059 0.59694 0.33501 0.0
C734 C 0.40173 0.62395 0.37291 0.0
C735 C 0.42522 0.58274 0.43102 0.0
H736 H 0.4841 0.64098 0.43947 0.0
C737 C 0.50947 0.57658 0.51351 0.0
C738 C 0.52072 0.60026 0.52665 0.0
C739 C 0.49085 0.57783 0.49151 0.0
C740 C 0.46744 0.62484 0.43769 0.0
H741 H 0.38985 0.55541 0.33561 0.0
H742 H 0.41749 0.55919 0.37805 0.0
H743 H 0.45447 0.64045 0.39813 0.0
H744 H 0.52101 0.64379 0.52759 0.0
H745 H 0.48795 0.64602 0.48928 0.0
H746 H 0.43791 0.56707 0.47044 0.0
C747 C 0.40853 0.57678 0.37021 0.0
C748 C 0.45055 0.62453 0.41397 0.0
C749 C 0.39262 0.57462 0.34592 0.0
C750 C 0.51269 0.62524 0.51769 0.0
C751 C 0.4939 0.62651 0.49568 0.0
C752 C 0.4419 0.58317 0.45479 0.0
C753 C 0.4131 0.60138 0.38408 0.0
C754 C 0.42964 0.60316 0.41017 0.0
C755 C 0.48285 0.6028 0.48223 0.0
C756 C 0.46359 0.6039 0.45817 0.0
H757 H 0.37635 0.63925 0.34106 0.0
H758 H 0.40486 0.64313 0.38328 0.0
H759 H 0.40891 0.56629 0.42886 0.0
H760 H 0.51536 0.55703 0.51996 0.0
H761 H 0.48319 0.55922 0.48137 0.0
C762 C 0.21044 0.29413 0.95199 0.0
C763 C 0.22728 0.29467 0.92883 0.0
C764 C 0.20942 0.3176 0.96699 0.0
C765 C 0.24082 0.38951 0.97438 0.0
H766 H 0.16593 0.40317 0.97829 0.0
C767 C 0.20542 0.49503 0.99577 0.0
C768 C 0.18698 0.50247 0.97514 0.0
C769 C 0.21274 0.46869 0.99711 0.0
C770 C 0.18695 0.39955 0.97765 0.0
H771 H 0.25821 0.31931 0.90495 0.0
H772 H 0.25598 0.3603 0.93054 0.0
H773 H 0.17602 0.35761 0.96995 0.0
H774 H 0.16151 0.48807 0.94008 0.0
H775 H 0.17433 0.44255 0.94235 0.0
H776 H 0.25143 0.43214 0.98037 0.0
C777 C 0.24364 0.34187 0.93734 0.0
C778 C 0.19279 0.37338 0.97317 0.0
C779 C 0.24466 0.31846 0.9224 0.0
C780 C 0.17616 0.48318 0.95588 0.0
C781 C 0.18317 0.45697 0.95744 0.0
C782 C 0.23493 0.41579 0.97898 0.0
C783 C 0.22523 0.34201 0.95911 0.0
C784 C 0.21974 0.36824 0.97033 0.0
C785 C 0.20125 0.44934 0.97821 0.0
C786 C 0.2079 0.42116 0.97943 0.0
H787 H 0.19686 0.27608 0.95747 0.0
H788 H 0.19531 0.31696 0.98392 0.0
H789 H 0.2618 0.38611 0.97268 0.0
H790 H 0.21398 0.5095 1.01093 0.0
H791 H 0.22682 0.46325 1.01325 0.0
C792 C 0.7713 0.91935 0.94996 0.0
C793 C 0.78433 0.93039 0.92555 0.0
C794 C 0.75097 0.932 0.96285 0.0
C795 C 0.7011 0.98339 0.94769 0.0
H796 H 0.68495 0.97181 0.026 0.0
C797 C 0.60015 1.01362 0.99203 0.0
C798 C 0.59875 0.02201 1.01974 0.0
C799 C 0.62322 1.0033 0.98196 0.0
C800 C 0.68904 0.97559 1.00409 0.0
H801 H 0.78508 0.96393 0.89576 0.0
H802 H 0.75073 0.98655 0.91847 0.0
H803 H 0.72416 0.95424 1.00695 0.0
H804 H 0.62165 0.02537 0.05855 0.0
H805 H 0.66195 1.00755 0.04115 0.0
H806 H 0.66639 1.00514 0.94485 0.0
C807 C 0.75605 0.96781 0.92784 0.0
C808 C 0.7117 0.96507 0.9929 0.0
C809 C 0.77646 0.9551 0.91497 0.0
C810 C 0.62157 0.01916 0.03715 0.0
C811 C 0.64487 1.00876 0.02701 0.0
C812 C 0.67847 0.99384 0.95885 0.0
C813 C 0.74225 0.95627 0.95179 0.0
C814 C 0.71832 0.96855 0.96432 0.0
C815 C 0.64641 1.0008 0.99899 0.0
C816 C 0.67162 0.99008 0.98732 0.0
H817 H 0.77579 0.89988 0.95831 0.0
H818 H 0.74111 0.92178 0.9808 0.0
H819 H 0.70466 0.9866 0.92563 0.0
H820 H 0.58318 1.01512 0.97776 0.0
H821 H 0.62259 0.997 0.96059 0.0
C822 C 0.76996 0.24817 0.35794 0.0
C823 C 0.74651 0.24874 0.37371 0.0
C824 C 0.79411 0.24191 0.37067 0.0
C825 C 0.83053 0.23996 0.43807 0.0
H826 H 0.86576 0.18317 0.40623 0.0
C827 C 0.90941 0.1856 0.50021 0.0
C828 C 0.93058 0.17592 0.48608 0.0
C829 C 0.88889 0.19709 0.48553 0.0
C830 C 0.85658 0.19944 0.41518 0.0
H831 H 0.73042 0.24316 0.41548 0.0
H832 H 0.77267 0.23318 0.43761 0.0
H833 H 0.82673 0.19903 0.38225 0.0
H834 H 0.94692 0.17152 0.44519 0.0
H835 H 0.9118 0.1926 0.41969 0.0
H836 H 0.86037 0.24065 0.47087 0.0
C837 C 0.77232 0.23767 0.4154 0.0
C838 C 0.83412 0.20845 0.40143 0.0
C839 C 0.7481 0.24355 0.40266 0.0
C840 C 0.93111 0.17891 0.45686 0.0
C841 C 0.91069 0.19066 0.44216 0.0
C842 C 0.8532 0.23121 0.45165 0.0
C843 C 0.79548 0.23647 0.39951 0.0
C844 C 0.8206 0.2285 0.41296 0.0
C845 C 0.88907 0.19958 0.45627 0.0
C846 C 0.86627 0.21048 0.44066 0.0
H847 H 0.76968 0.25245 0.3357 0.0
H848 H 0.81174 0.24138 0.35795 0.0
H849 H 0.82071 0.2557 0.44725 0.0
H850 H 0.90852 0.18414 0.52271 0.0
H851 H 0.8725 0.20337 0.4972 0.0
C852 C 0.27248 0.66584 0.20748 0.0
C853 C 0.29601 0.66202 0.19329 0.0
C854 C 0.24817 0.66784 0.19279 0.0
C855 C 0.21945 0.67519 0.12039 0.0
H856 H 0.1542 0.63805 0.15366 0.0
C857 C 0.12694 0.62358 0.06013 0.0
C858 C 0.10099 0.62754 0.06882 0.0
C859 C 0.14999 0.63482 0.0747 0.0
C860 C 0.17217 0.64893 0.1443 0.0
H861 H 0.31277 0.65735 0.15279 0.0
H862 H 0.27035 0.65963 0.12721 0.0
H863 H 0.19619 0.64382 0.181 0.0
H864 H 0.07872 0.64705 0.09898 0.0
H865 H 0.11926 0.66601 0.12517 0.0
H866 H 0.19549 0.67837 0.083 0.0
C867 C 0.27059 0.66212 0.14952 0.0
C868 C 0.19629 0.65234 0.15998 0.0
C869 C 0.29494 0.6606 0.16417 0.0
C870 C 0.09851 0.64379 0.09178 0.0
C871 C 0.12161 0.65455 0.10678 0.0
C872 C 0.19542 0.6713 0.10457 0.0
C873 C 0.24678 0.66555 0.16362 0.0
C874 C 0.22043 0.66497 0.14804 0.0
C875 C 0.1475 0.64976 0.09858 0.0
C876 C 0.17173 0.65768 0.11626 0.0
H877 H 0.27291 0.66726 0.22995 0.0
H878 H 0.23045 0.67099 0.20435 0.0
H879 H 0.2374 0.68565 0.11066 0.0
H880 H 0.12941 0.61096 0.04269 0.0
H881 H 0.16971 0.63058 0.06816 0.0
C882 C 0.28181 0.31405 0.78551 0.0
C883 C 0.25399 0.31206 0.7789 0.0
C884 C 0.30005 0.33379 0.77237 0.0
C885 C 0.30622 0.39876 0.73288 0.0
H886 H 0.36901 0.37268 0.70165 0.0
C887 C 0.37803 0.46253 0.65514 0.0
C888 C 0.40557 0.4589 0.65664 0.0
C889 C 0.35927 0.44645 0.67186 0.0
C890 C 0.35188 0.38049 0.71063 0.0
H891 H 0.22327 0.32977 0.75423 0.0
H892 H 0.25527 0.36439 0.73121 0.0
H893 H 0.33693 0.34155 0.72808 0.0
H894 H 0.4355 0.43711 0.67782 0.0
H895 H 0.40311 0.40972 0.70758 0.0
H896 H 0.32133 0.43782 0.71553 0.0
C897 C 0.2629 0.35066 0.74656 0.0
C898 C 0.33345 0.36258 0.72571 0.0
C899 C 0.24466 0.33074 0.75953 0.0
C900 C 0.41426 0.43993 0.67598 0.0
C901 C 0.39567 0.42416 0.69289 0.0
C902 C 0.32485 0.41682 0.71795 0.0
C903 C 0.29082 0.35206 0.75251 0.0
C904 C 0.31046 0.3715 0.737 0.0
C905 C 0.36785 0.4267 0.69056 0.0
C906 C 0.34794 0.40788 0.70669 0.0
H907 H 0.28958 0.29981 0.80021 0.0
H908 H 0.32145 0.33459 0.77752 0.0
H909 H 0.28869 0.40617 0.74149 0.0
H910 H 0.3709 0.47703 0.64029 0.0
H911 H 0.33799 0.44882 0.66939 0.0
C912 C 0.90436 0.8183 0.90823 0.0
C913 C 0.91986 0.84116 0.8957 0.0
C914 C 0.9165 0.7959 0.91955 0.0
C915 C 0.98524 0.773 0.94095 0.0
H916 H 0.94376 0.70177 0.94371 0.0
C917 C 0.03581 0.67452 0.97325 0.0
C918 C 1.02046 0.65304 0.98801 0.0
C919 C 1.02392 0.69728 0.96235 0.0
C920 C 0.95579 0.72147 0.94351 0.0
H921 H 0.96141 0.85724 0.8864 0.0
H922 H 0.98209 0.81851 0.9049 0.0
H923 H 0.92303 0.74035 0.92467 0.0
H924 H 0.97986 0.63958 1.00245 0.0
H925 H 0.9594 0.67864 0.98372 0.0
H926 H 1.01812 0.75387 0.95949 0.0
C927 C 0.96036 0.81788 0.90648 0.0
C928 C 0.9437 0.744 0.93246 0.0
C929 C 0.94823 0.84033 0.89528 0.0
C930 C 0.99266 0.65538 0.9913 0.0
C931 C 0.98074 0.67799 0.98024 0.0
C932 C 0.99739 0.75042 0.95182 0.0
C933 C 0.94486 0.79496 0.91891 0.0
C934 C 0.95804 0.77046 0.9309 0.0
C935 C 0.99602 0.69957 0.96547 0.0
C936 C 0.98297 0.72404 0.95347 0.0
H937 H 0.88253 0.81732 0.90897 0.0
H938 H 0.90338 0.77932 0.92908 0.0
H939 H 0.99732 0.79265 0.94094 0.0
H940 H 0.05719 0.6738 0.97003 0.0
H941 H 0.03668 0.71293 0.95099 0.0
C942 C 0.41521 0.69672 0.2257 0.0
C943 C 0.39601 0.68639 0.2056 0.0
C944 C 0.43723 0.71563 0.21802 0.0
C945 C 0.47297 0.75034 0.1561 0.0
H946 H 0.48428 0.81113 0.20527 0.0
C947 C 0.50367 0.86148 0.1208 0.0
C948 C 0.52092 0.87836 0.13826 0.0
C949 C 0.49583 0.83435 0.12853 0.0
C950 C 0.48182 0.79412 0.19153 0.0
H951 H 0.38628 0.68606 0.16135 0.0
H952 H 0.42361 0.71981 0.14819 0.0
H953 H 0.45681 0.76975 0.22051 0.0
H954 H 0.54544 0.8792 0.17627 0.0
H955 H 0.53112 0.83201 0.19005 0.0
H956 H 0.49661 0.77581 0.12641 0.0
C957 C 0.42207 0.7132 0.16985 0.0
C958 C 0.4661 0.77026 0.2003 0.0
C959 C 0.4003 0.69411 0.17748 0.0
C960 C 0.53159 0.86696 0.16267 0.0
C961 C 0.52353 0.83992 0.17052 0.0
C962 C 0.4884 0.7744 0.14718 0.0
C963 C 0.44042 0.72482 0.19011 0.0
C964 C 0.46082 0.74829 0.18242 0.0
C965 C 0.50492 0.8236 0.15395 0.0
C966 C 0.49241 0.79673 0.16458 0.0
H967 H 0.41257 0.69119 0.24755 0.0
H968 H 0.45126 0.72368 0.23413 0.0
H969 H 0.46988 0.73365 0.142 0.0
H970 H 0.49485 0.86958 0.10201 0.0
H971 H 0.48127 0.8223 0.11546 0.0
C972 C 0.16677 0.24718 0.74413 0.0
C973 C 0.18026 0.23529 0.7665 0.0
C974 C 0.152 0.23105 0.72443 0.0
C975 C 0.14257 0.1926 0.67624 0.0
H976 H 0.09841 0.12497 0.69538 0.0
C977 C 0.09414 0.11998 0.5921 0.0
C978 C 0.09633 0.09243 0.59748 0.0
C979 C 0.10051 0.13881 0.61301 0.0
C980 C 0.1108 0.14374 0.68969 0.0
H981 H 0.18789 0.19708 0.78626 0.0
H982 H 0.16189 0.16894 0.75204 0.0
H983 H 0.11595 0.15538 0.7322 0.0
H984 H 0.10657 0.06283 0.6288 0.0
H985 H 0.11816 0.09556 0.66497 0.0
H986 H 0.13822 0.18063 0.63385 0.0
C987 C 0.16263 0.19075 0.74983 0.0
C988 C 0.12078 0.16116 0.71078 0.0
C989 C 0.17752 0.20689 0.76947 0.0
C990 C 0.10473 0.08398 0.62407 0.0
C991 C 0.11111 0.10272 0.64489 0.0
C992 C 0.13269 0.17513 0.65515 0.0
C993 C 0.15023 0.20267 0.72677 0.0
C994 C 0.13719 0.18554 0.70432 0.0
C995 C 0.10914 0.13037 0.63964 0.0
C996 C 0.11715 0.15024 0.66168 0.0
H997 H 0.16806 0.26901 0.74156 0.0
H998 H 0.14229 0.24079 0.70712 0.0
H999 H 0.15543 0.21111 0.67062 0.0
H1000 H 0.08753 0.12697 0.57179 0.0
H1001 H 0.09855 0.15994 0.60838 0.0
C1002 C 0.63519 0.33653 0.45429 0.0
C1003 C 0.64538 0.33719 0.42722 0.0
C1004 C 0.63697 0.36006 0.46954 0.0
C1005 C 0.64088 0.43385 0.45911 0.0
H1006 H 0.64407 0.43128 0.53989 0.0
C1007 C 0.61896 0.52308 0.52783 0.0
C1008 C 0.59823 0.51487 0.54689 0.0
C1009 C 0.63116 0.50374 0.51362 0.0
C1010 C 0.64337 0.43237 0.51732 0.0
H1011 H 0.66671 0.3628 0.39539 0.0
H1012 H 0.67019 0.40418 0.42231 0.0
H1013 H 0.65562 0.39291 0.51427 0.0
H1014 H 0.5747 0.48003 0.56663 0.0
H1015 H 0.59626 0.44653 0.54235 0.0
H1016 H 0.62804 0.47322 0.46242 0.0
C1017 C 0.66046 0.38541 0.43156 0.0
C1018 C 0.64986 0.41037 0.50263 0.0
C1019 C 0.65871 0.3617 0.41625 0.0
C1020 C 0.59048 0.48704 0.55197 0.0
C1021 C 0.60298 0.46782 0.53824 0.0
C1022 C 0.63466 0.45603 0.47387 0.0
C1023 C 0.6491 0.38495 0.45819 0.0
C1024 C 0.64762 0.41035 0.47337 0.0
C1025 C 0.62326 0.47592 0.51876 0.0
C1026 C 0.63486 0.45503 0.50312 0.0
H1027 H 0.62508 0.31786 0.46343 0.0
H1028 H 0.62765 0.35889 0.48977 0.0
H1029 H 0.63875 0.43451 0.43663 0.0
H1030 H 0.6253 0.5444 0.52344 0.0
H1031 H 0.64674 0.51047 0.49866 0.0
loop_
_geom_bond_atom_site_label_1
_geom_bond_atom_site_label_2
_geom_bond_distance
_geom_bond_site_symmetry_2
_ccdc_geom_bond_type
H0 C1 0.949 . S
C1 H0 0.949 . S
C1 C2 1.395 . S
C1 C3 1.391 . S
C2 C1 1.395 . S
C2 C5 1.390 . S
C3 C1 1.391 . S
C3 C7 1.387 . S
C3 C8 1.491 . S
H4 C5 0.950 . S
C5 C2 1.390 . S
C5 H4 0.950 . S
C5 C6 1.378 . S
C6 C5 1.378 . S
C6 C7 1.409 . S
C7 C3 1.387 . S
C7 C6 1.409 . S
C7 H9 0.951 . S
C8 C3 1.491 . S
C8 C10 1.382 . S
C8 C12 1.404 . S
H9 C7 0.951 . S
C10 C8 1.382 . S
C10 C11 1.390 . S
C10 H15 0.949 . S
C11 C10 1.390 . S
C11 C16 1.399 . S
C12 C8 1.404 . S
C12 H13 0.950 . S
C12 C14 1.375 . S
H13 C12 0.950 . S
C14 C12 1.375 . S
C14 C16 1.382 . S
C14 H18 0.950 . S
H15 C10 0.949 . S
C16 C11 1.399 . S
C16 C14 1.382 . S
C16 H17 0.952 . S
H17 C16 0.952 . S
H18 C14 0.950 . S
H19 C20 0.949 . S
C20 H19 0.949 . S
C20 C21 1.395 . S
C20 C22 1.391 . S
C21 C20 1.395 . S
C21 C24 1.390 . S
C22 C20 1.391 . S
C22 C26 1.387 . S
C22 C27 1.491 . S
H23 C24 0.950 . S
C24 C21 1.390 . S
C24 H23 0.950 . S
C24 C25 1.378 . S
C25 C24 1.378 . S
C25 C26 1.409 . S
C26 C22 1.387 . S
C26 C25 1.409 . S
C26 H28 0.951 . S
C27 C22 1.491 . S
C27 C29 1.382 . S
C27 C31 1.404 . S
H28 C26 0.951 . S
C29 C27 1.382 . S
C29 C30 1.390 . S
C29 H34 0.949 . S
C30 C29 1.390 . S
C30 C35 1.399 . S
C31 C27 1.404 . S
C31 H32 0.950 . S
C31 C33 1.375 . S
H32 C31 0.950 . S
C33 C31 1.375 . S
C33 C35 1.382 . S
C33 H37 0.950 . S
H34 C29 0.949 . S
C35 C30 1.399 . S
C35 C33 1.382 . S
C35 H36 0.952 . S
H36 C35 0.952 . S
H37 C33 0.950 . S
H38 C39 0.949 . S
C39 H38 0.949 . S
C39 C40 1.395 . S
C39 C41 1.391 . S
C40 C39 1.395 . S
C40 C43 1.390 . S
C41 C39 1.391 . S
C41 C45 1.387 . S
C41 C46 1.491 . S
H42 C43 0.950 . S
C43 C40 1.390 . S
C43 H42 0.950 . S
C43 C44 1.378 . S
C44 C43 1.378 . S
C44 C45 1.409 . S
C45 C41 1.387 . S
C45 C44 1.409 . S
C45 H47 0.951 . S
C46 C41 1.491 . S
C46 C48 1.382 . S
C46 C50 1.404 . S
H47 C45 0.951 . S
C48 C46 1.382 . S
C48 C49 1.390 . S
C48 H53 0.949 . S
C49 C48 1.390 . S
C49 C54 1.399 . S
C50 C46 1.404 . S
C50 H51 0.950 . S
C50 C52 1.375 . S
H51 C50 0.950 . S
C52 C50 1.375 . S
C52 C54 1.382 . S
C52 H56 0.950 . S
H53 C48 0.949 . S
C54 C49 1.399 . S
C54 C52 1.382 . S
C54 H55 0.952 . S
H55 C54 0.952 . S
H56 C52 0.950 . S
H57 C58 0.949 . S
C58 H57 0.949 . S
C58 C59 1.395 . S
C58 C60 1.391 . S
C59 C58 1.395 . S
C59 C62 1.390 . S
C60 C58 1.391 . S
C60 C64 1.387 . S
C60 C65 1.491 . S
H61 C62 0.950 . S
C62 C59 1.390 . S
C62 H61 0.950 . S
C62 C63 1.378 . S
C63 C62 1.378 . S
C63 C64 1.409 . S
C64 C60 1.387 . S
C64 C63 1.409 . S
C64 H66 0.951 . S
C65 C60 1.491 . S
C65 C67 1.382 . S
C65 C69 1.404 . S
H66 C64 0.951 . S
C67 C65 1.382 . S
C67 C68 1.390 . S
C67 H72 0.949 . S
C68 C67 1.390 . S
C68 C73 1.399 . S
C69 C65 1.404 . S
C69 H70 0.950 . S
C69 C71 1.375 . S
H70 C69 0.950 . S
C71 C69 1.375 . S
C71 C73 1.382 . S
C71 H75 0.950 . S
H72 C67 0.949 . S
C73 C68 1.399 . S
C73 C71 1.382 . S
C73 H74 0.952 . S
H74 C73 0.952 . S
H75 C71 0.950 . S
H76 C77 0.949 . S
C77 H76 0.949 . S
C77 C78 1.395 . S
C77 C79 1.391 . S
C78 C77 1.395 . S
C78 C81 1.390 . S
C79 C77 1.391 . S
C79 C83 1.387 . S
C79 C84 1.491 . S
H80 C81 0.950 . S
C81 C78 1.390 . S
C81 H80 0.950 . S
C81 C82 1.378 . S
C82 C81 1.378 . S
C82 C83 1.409 . S
C83 C79 1.387 . S
C83 C82 1.409 . S
C83 H85 0.951 . S
C84 C79 1.491 . S
C84 C86 1.382 . S
C84 C88 1.404 . S
H85 C83 0.951 . S
C86 C84 1.382 . S
C86 C87 1.390 . S
C86 H91 0.949 . S
C87 C86 1.390 . S
C87 C92 1.399 . S
C88 C84 1.404 . S
C88 H89 0.950 . S
C88 C90 1.375 . S
H89 C88 0.950 . S
C90 C88 1.375 . S
C90 C92 1.382 . S
C90 H94 0.950 . S
H91 C86 0.949 . S
C92 C87 1.399 . S
C92 C90 1.382 . S
C92 H93 0.952 . S
H93 C92 0.952 . S
H94 C90 0.950 . S
H95 C96 0.949 . S
C96 H95 0.949 . S
C96 C97 1.395 . S
C96 C98 1.391 . S
C97 C96 1.395 . S
C97 C100 1.390 . S
C98 C96 1.391 . S
C98 C102 1.387 . S
C98 C103 1.491 . S
H99 C100 0.950 . S
C100 C97 1.390 . S
C100 H99 0.950 . S
C100 C101 1.378 . S
C101 C100 1.378 . S
C101 C102 1.409 . S
C102 C98 1.387 . S
C102 C101 1.409 . S
C102 H104 0.951 . S
C103 C98 1.491 . S
C103 C105 1.382 . S
C103 C107 1.404 . S
H104 C102 0.951 . S
C105 C103 1.382 . S
C105 C106 1.390 . S
C105 H110 0.949 . S
C106 C105 1.390 . S
C106 C111 1.399 . S
C107 C103 1.404 . S
C107 H108 0.950 . S
C107 C109 1.375 . S
H108 C107 0.950 . S
C109 C107 1.375 . S
C109 C111 1.382 . S
C109 H113 0.950 . S
H110 C105 0.949 . S
C111 C106 1.399 . S
C111 C109 1.382 . S
C111 H112 0.952 . S
H112 C111 0.952 . S
H113 C109 0.950 . S
H114 C115 0.949 . S
C115 H114 0.949 . S
C115 C116 1.395 . S
C115 C117 1.391 . S
C116 C115 1.395 . S
C116 C119 1.390 . S
C117 C115 1.391 . S
C117 C121 1.387 . S
C117 C122 1.491 . S
H118 C119 0.950 . S
C119 C116 1.390 . S
C119 H118 0.950 . S
C119 C120 1.378 . S
C120 C119 1.378 . S
C120 C121 1.409 . S
C121 C117 1.387 . S
C121 C120 1.409 . S
C121 H123 0.951 . S
C122 C117 1.491 . S
C122 C124 1.382 . S
C122 C126 1.404 . S
H123 C121 0.951 . S
C124 C122 1.382 . S
C124 C125 1.390 . S
C124 H129 0.949 . S
C125 C124 1.390 . S
C125 C130 1.399 . S
C126 C122 1.404 . S
C126 H127 0.950 . S
C126 C128 1.375 . S
H127 C126 0.950 . S
C128 C126 1.375 . S
C128 C130 1.382 . S
C128 H132 0.950 . S
H129 C124 0.949 . S
C130 C125 1.399 . S
C130 C128 1.382 . S
C130 H131 0.952 . S
H131 C130 0.952 . S
H132 C128 0.950 . S
H133 C134 0.949 . S
C134 H133 0.949 . S
C134 C135 1.395 . S
C134 C136 1.391 . S
C135 C134 1.395 . S
C135 C138 1.390 . S
C136 C134 1.391 . S
C136 C140 1.387 . S
C136 C141 1.491 . S
H137 C138 0.950 . S
C138 C135 1.390 . S
C138 H137 0.950 . S
C138 C139 1.378 . S
C139 C138 1.378 . S
C139 C140 1.409 . S
C140 C136 1.387 . S
C140 C139 1.409 . S
C140 H142 0.951 . S
C141 C136 1.491 . S
C141 C143 1.382 . S
C141 C145 1.404 . S
H142 C140 0.951 . S
C143 C141 1.382 . S
C143 C144 1.390 . S
C143 H148 0.949 . S
C144 C143 1.390 . S
C144 C149 1.399 . S
C145 C141 1.404 . S
C145 H146 0.950 . S
C145 C147 1.375 . S
H146 C145 0.950 . S
C147 C145 1.375 . S
C147 C149 1.382 . S
C147 H151 0.950 . S
H148 C143 0.949 . S
C149 C144 1.399 . S
C149 C147 1.382 . S
C149 H150 0.952 . S
H150 C149 0.952 . S
H151 C147 0.950 . S
Nd152 C154 2.836 1_545 S
Nd152 O172 2.500 1_545 S
Nd152 O173 2.478 1_545 S
Nd152 O174 2.487 . S
Nd152 O175 2.682 . S
Nd152 O176 2.410 . S
Nd152 O181 2.414 1_445 S
Nd152 O183 2.424 . S
Nd153 C163 2.836 . S
Nd153 O175 2.414 1_655 S
Nd153 O177 2.424 . S
Nd153 O178 2.500 . S
Nd153 O179 2.492 . S
Nd153 O180 2.487 1_545 S
Nd153 O181 2.682 1_545 S
Nd153 O182 2.410 . S
C154 Nd152 2.836 1_565 S
C154 C155 1.498 . S
C154 O172 1.258 . S
C154 O173 1.270 . S
C155 C154 1.498 . S
C155 C156 1.366 . S
C155 C160 1.407 . S
C156 C155 1.366 . S
C156 C157 1.392 . S
C156 H184 0.930 . S
C157 C156 1.392 . S
C157 C158 1.398 . S
C157 H185 0.929 . S
C158 C157 1.398 . S
C158 C159 1.352 . S
C159 C158 1.352 . S
C159 C160 1.384 . S
C159 H186 0.930 . S
C160 C155 1.407 . S
C160 C159 1.384 . S
C160 H187 0.929 . S
C161 O174 1.241 . S
C161 O175 1.273 . S
C162 O176 1.251 1_665 S
C162 O177 1.268 1_565 S
C163 Nd153 2.836 . S
C163 C164 1.498 . S
C163 O178 1.258 . S
C163 O179 1.239 . S
C164 C163 1.498 . S
C164 C165 1.366 . S
C164 C169 1.407 . S
C165 C164 1.366 . S
C165 C166 1.392 . S
C165 H188 0.930 . S
C166 C165 1.392 . S
C166 C167 1.398 . S
C166 H189 0.929 . S
C167 C166 1.398 . S
C167 C168 1.352 . S
C168 C167 1.352 . S
C168 C169 1.384 . S
C168 H190 0.930 . S
C169 C164 1.407 . S
C169 C168 1.384 . S
C169 H191 0.929 . S
C170 O180 1.241 . S
C170 O181 1.273 . S
C171 O182 1.251 1_455 S
C171 O183 1.268 . S
O172 Nd152 2.500 1_565 S
O172 C154 1.258 . S
O173 Nd152 2.478 1_565 S
O173 C154 1.270 . S
O174 Nd152 2.487 . S
O174 C161 1.241 . S
O175 Nd152 2.682 . S
O175 Nd153 2.414 1_455 S
O175 C161 1.273 . S
O176 Nd152 2.410 . S
O176 C162 1.251 1_445 S
O177 Nd153 2.424 . S
O177 C162 1.268 1_545 S
O178 Nd153 2.500 . S
O178 C163 1.258 . S
O179 Nd153 2.492 . S
O179 C163 1.239 . S
O180 Nd153 2.487 1_565 S
O180 C170 1.241 . S
O181 Nd152 2.414 1_665 S
O181 Nd153 2.682 1_565 S
O181 C170 1.273 . S
O182 Nd153 2.410 . S
O182 C171 1.251 1_655 S
O183 Nd152 2.424 . S
O183 C171 1.268 . S
H184 C156 0.930 . S
H185 C157 0.929 . S
H186 C159 0.930 . S
H187 C160 0.929 . S
H188 C165 0.930 . S
H189 C166 0.929 . S
H190 C168 0.930 . S
H191 C169 0.929 . S
Nd192 C194 2.836 1_545 S
Nd192 O212 2.500 1_545 S
Nd192 O213 2.492 1_545 S
Nd192 O214 2.487 . S
Nd192 O215 2.682 . S
Nd192 O216 2.410 1_545 S
Nd192 O221 2.414 . S
Nd192 O223 2.424 . S
Nd193 C203 2.836 . S
Nd193 O215 2.414 . S
Nd193 O217 2.424 . S
Nd193 O218 2.500 . S
Nd193 O219 2.492 . S
Nd193 O220 2.487 . S
Nd193 O221 2.682 . S
Nd193 O222 2.410 . S
C194 Nd192 2.836 1_565 S
C194 C195 1.498 . S
C194 O212 1.258 . S
C194 O213 1.239 . S
C195 C194 1.498 . S
C195 C196 1.366 . S
C195 C200 1.407 . S
C196 C195 1.366 . S
C196 C197 1.392 . S
C196 H224 0.930 . S
C197 C196 1.392 . S
C197 C198 1.398 . S
C197 H225 0.929 . S
C198 C197 1.398 . S
C198 C199 1.352 . S
C199 C198 1.352 . S
C199 C200 1.384 . S
C199 H226 0.930 . S
C200 C195 1.407 . S
C200 C199 1.384 . S
C200 H227 0.929 . S
C201 O214 1.241 . S
C201 O215 1.273 . S
C202 O216 1.251 . S
C202 O217 1.268 1_565 S
C203 Nd193 2.836 . S
C203 C204 1.498 . S
C203 O218 1.258 . S
C203 O219 1.239 . S
C204 C203 1.498 . S
C204 C205 1.366 . S
C204 C209 1.407 . S
C205 C204 1.366 . S
C205 C206 1.392 . S
C205 H228 0.930 . S
C206 C205 1.392 . S
C206 C207 1.398 . S
C206 H229 0.929 . S
C207 C206 1.398 . S
C207 C208 1.352 . S
C208 C207 1.352 . S
C208 C209 1.384 . S
C208 H230 0.930 1_554 S
C209 C204 1.407 . S
C209 C208 1.384 . S
C209 H231 0.929 . S
C210 O220 1.241 . S
C210 O221 1.273 . S
C211 O222 1.251 . S
C211 O223 1.268 . S
O212 Nd192 2.500 1_565 S
O212 C194 1.258 . S
O213 Nd192 2.492 1_565 S
O213 C194 1.239 . S
O214 Nd192 2.487 . S
O214 C201 1.241 . S
O215 Nd192 2.682 . S
O215 Nd193 2.414 . S
O215 C201 1.273 . S
O216 Nd192 2.410 1_565 S
O216 C202 1.251 . S
O217 Nd193 2.424 . S
O217 C202 1.268 1_545 S
O218 Nd193 2.500 . S
O218 C203 1.258 . S
O219 Nd193 2.492 . S
O219 C203 1.239 . S
O220 Nd193 2.487 . S
O220 C210 1.241 . S
O221 Nd192 2.414 . S
O221 Nd193 2.682 . S
O221 C210 1.273 . S
O222 Nd193 2.410 . S
O222 C211 1.251 . S
O223 Nd192 2.424 . S
O223 C211 1.268 . S
H224 C196 0.930 . S
H225 C197 0.929 . S
H226 C199 0.930 . S
H227 C200 0.929 . S
H228 C205 0.930 . S
H229 C206 0.929 . S
H230 C208 0.930 1_556 S
H231 C209 0.929 . S
Nd232 C234 2.836 . S
Nd232 O252 2.500 . S
Nd232 O253 2.492 . S
Nd232 O254 2.487 . S
Nd232 O255 2.682 . S
Nd232 O256 2.410 . S
Nd232 O261 2.414 . S
Nd232 O263 2.424 . S
Nd233 C243 2.836 . S
Nd233 O255 2.414 . S
Nd233 O257 2.424 . S
Nd233 O258 2.500 . S
Nd233 O259 2.492 . S
Nd233 O260 2.487 . S
Nd233 O261 2.682 . S
Nd233 O262 2.410 . S
C234 Nd232 2.836 . S
C234 C235 1.498 . S
C234 O252 1.258 . S
C234 O253 1.239 . S
C235 C234 1.498 . S
C235 C236 1.366 . S
C235 C240 1.407 . S
C236 C235 1.366 . S
C236 C237 1.392 . S
C236 H264 0.930 . S
C237 C236 1.392 . S
C237 C238 1.398 . S
C237 H265 0.929 . S
C238 C237 1.398 . S
C238 C239 1.352 . S
C239 C238 1.352 . S
C239 C240 1.384 . S
C239 H266 0.930 . S
C240 C235 1.407 . S
C240 C239 1.384 . S
C240 H267 0.929 . S
C241 O254 1.241 . S
C241 O255 1.273 . S
C242 O256 1.251 . S
C242 O257 1.268 . S
C243 Nd233 2.836 . S
C243 C244 1.498 . S
C243 O258 1.258 . S
C243 O259 1.239 . S
C244 C243 1.498 . S
C244 C245 1.366 . S
C244 C249 1.407 . S
C245 C244 1.366 . S
C245 C246 1.392 . S
C245 H268 0.930 . S
C246 C245 1.392 . S
C246 C247 1.398 . S
C246 H269 0.929 . S
C247 C246 1.398 . S
C247 C248 1.352 . S
C248 C247 1.352 . S
C248 C249 1.384 . S
C248 H270 0.930 . S
C249 C244 1.407 . S
C249 C248 1.384 . S
C249 H271 0.929 . S
C250 O260 1.241 . S
C250 O261 1.273 . S
C251 O262 1.251 . S
C251 O263 1.268 . S
O252 Nd232 2.500 . S
O252 C234 1.258 . S
O253 Nd232 2.492 . S
O253 C234 1.239 . S
O254 Nd232 2.487 . S
O254 C241 1.241 . S
O255 Nd232 2.682 . S
O255 Nd233 2.414 . S
O255 C241 1.273 . S
O256 Nd232 2.410 . S
O256 C242 1.251 . S
O257 Nd233 2.424 . S
O257 C242 1.268 . S
O258 Nd233 2.500 . S
O258 C243 1.258 . S
O259 Nd233 2.492 . S
O259 C243 1.239 . S
O260 Nd233 2.487 . S
O260 C250 1.241 . S
O261 Nd232 2.414 . S
O261 Nd233 2.682 . S
O261 C250 1.273 . S
O262 Nd233 2.410 . S
O262 C251 1.251 . S
O263 Nd232 2.424 . S
O263 C251 1.268 . S
H264 C236 0.930 . S
H265 C237 0.929 . S
H266 C239 0.930 . S
H267 C240 0.929 . S
H268 C245 0.930 . S
H269 C246 0.929 . S
H270 C248 0.930 . S
H271 C249 0.929 . S
Nd272 C274 2.836 1_455 S
Nd272 O292 2.500 1_455 S
Nd272 O293 2.492 . S
Nd272 O294 2.487 . S
Nd272 O295 2.682 . S
Nd272 O296 2.410 . S
Nd272 O301 2.414 1_455 S
Nd272 O303 2.424 . S
Nd273 C283 2.836 . S
Nd273 O295 2.414 1_556 S
Nd273 O297 2.424 . S
Nd273 O298 2.500 . S
Nd273 O299 2.492 . S
Nd273 O300 2.487 1_455 S
Nd273 O301 2.682 1_456 S
Nd273 O302 2.410 . S
C274 Nd272 2.836 1_655 S
C274 C275 1.498 . S
C274 O292 1.258 . S
C274 O293 1.239 1_655 S
C275 C274 1.498 . S
C275 C276 1.366 . S
C275 C280 1.407 . S
C276 C275 1.366 . S
C276 C277 1.392 . S
C276 H304 0.930 . S
C277 C276 1.392 . S
C277 C278 1.398 . S
C277 H305 0.929 . S
C278 C277 1.398 . S
C278 C279 1.352 . S
C279 C278 1.352 . S
C279 C280 1.384 . S
C279 H306 0.930 . S
C280 C275 1.407 . S
C280 C279 1.384 . S
C280 H307 0.929 1_655 S
C281 O294 1.241 . S
C281 O295 1.273 . S
C282 O296 1.251 . S
C282 O297 1.268 1_554 S
C283 Nd273 2.836 . S
C283 C284 1.498 . S
C283 O298 1.258 . S
C283 O299 1.239 . S
C284 C283 1.498 . S
C284 C285 1.366 . S
C284 C289 1.407 . S
C285 C284 1.366 . S
C285 C286 1.392 . S
C285 H308 0.930 . S
C286 C285 1.392 . S
C286 C287 1.398 . S
C286 H309 0.929 . S
C287 C286 1.398 . S
C287 C288 1.352 . S
C288 C287 1.352 . S
C288 C289 1.384 . S
C288 H310 0.930 . S
C289 C284 1.407 . S
C289 C288 1.384 . S
C289 H311 0.929 . S
C290 O300 1.241 . S
C290 O301 1.273 1_556 S
C291 O302 1.251 1_554 S
C291 O303 1.268 . S
O292 Nd272 2.500 1_655 S
O292 C274 1.258 . S
O293 Nd272 2.492 . S
O293 C274 1.239 1_455 S
O294 Nd272 2.487 . S
O294 C281 1.241 . S
O295 Nd272 2.682 . S
O295 Nd273 2.414 1_554 S
O295 C281 1.273 . S
O296 Nd272 2.410 . S
O296 C282 1.251 . S
O297 Nd273 2.424 . S
O297 C282 1.268 1_556 S
O298 Nd273 2.500 . S
O298 C283 1.258 . S
O299 Nd273 2.492 . S
O299 C283 1.239 . S
O300 Nd273 2.487 1_655 S
O300 C290 1.241 . S
O301 Nd272 2.414 1_655 S
O301 Nd273 2.682 1_654 S
O301 C290 1.273 1_554 S
O302 Nd273 2.410 . S
O302 C291 1.251 1_556 S
O303 Nd272 2.424 . S
O303 C291 1.268 . S
H304 C276 0.930 . S
H305 C277 0.929 . S
H306 C279 0.930 . S
H307 C280 0.929 1_455 S
H308 C285 0.930 . S
H309 C286 0.929 . S
H310 C288 0.930 . S
H311 C289 0.929 . S
C312 C313 1.349 . S
C312 C314 1.327 . S
C312 H337 0.950 . S
C313 C312 1.349 . S
C313 C329 1.349 . S
C314 C312 1.327 . S
C314 C333 1.429 . S
C314 H338 0.950 . S
C315 C332 1.574 . S
C315 C334 1.368 . S
C315 H339 0.949 . S
H316 C320 0.949 . S
C317 C318 1.349 . S
C317 C319 1.327 . S
C317 H340 0.950 . S
C318 C317 1.349 . S
C318 C330 1.349 . S
C319 C317 1.327 . S
C319 C335 1.429 . S
C319 H341 0.950 . S
C320 H316 0.949 . S
C320 C328 1.574 . S
C320 C336 1.368 . S
H321 C329 0.950 . S
H322 C327 0.950 . S
H323 C328 0.949 . S
H324 C330 0.950 . S
H325 C331 0.950 . S
H326 C332 0.949 . S
C327 H322 0.950 . S
C327 C329 1.327 . S
C327 C333 1.429 . S
C328 C320 1.574 . S
C328 H323 0.949 . S
C328 C334 1.368 . S
C329 C313 1.349 . S
C329 H321 0.950 . S
C329 C327 1.327 . S
C330 C318 1.349 . S
C330 H324 0.950 . S
C330 C331 1.327 . S
C331 H325 0.950 . S
C331 C330 1.327 . S
C331 C335 1.429 . S
C332 C315 1.574 . S
C332 H326 0.949 . S
C332 C336 1.368 . S
C333 C314 1.429 . S
C333 C327 1.429 . S
C333 C334 1.523 . S
C334 C315 1.368 . S
C334 C328 1.368 . S
C334 C333 1.523 . S
C335 C319 1.429 . S
C335 C331 1.429 . S
C335 C336 1.523 . S
C336 C320 1.368 . S
C336 C332 1.368 . S
C336 C335 1.523 . S
H337 C312 0.950 . S
H338 C314 0.950 . S
H339 C315 0.949 . S
H340 C317 0.950 . S
H341 C319 0.950 . S
C342 C343 1.349 . S
C342 C344 1.327 . S
C342 H367 0.950 . S
C343 C342 1.349 . S
C343 C359 1.349 . S
C344 C342 1.327 . S
C344 C363 1.429 . S
C344 H368 0.950 . S
C345 C362 1.574 . S
C345 C364 1.368 . S
C345 H369 0.949 . S
H346 C350 0.949 . S
C347 C348 1.349 . S
C347 C349 1.327 1_554 S
C347 H370 0.950 . S
C348 C347 1.349 . S
C348 C360 1.349 1_554 S
C349 C347 1.327 1_556 S
C349 C365 1.429 . S
C349 H371 0.950 . S
C350 H346 0.949 . S
C350 C358 1.574 . S
C350 C366 1.368 . S
H351 C359 0.950 . S
H352 C357 0.950 . S
H353 C358 0.949 . S
H354 C360 0.950 . S
H355 C361 0.950 . S
H356 C362 0.949 . S
C357 H352 0.950 . S
C357 C359 1.327 . S
C357 C363 1.429 . S
C358 C350 1.574 . S
C358 H353 0.949 . S
C358 C364 1.368 . S
C359 C343 1.349 . S
C359 H351 0.950 . S
C359 C357 1.327 . S
C360 C348 1.349 1_556 S
C360 H354 0.950 . S
C360 C361 1.327 . S
C361 H355 0.950 . S
C361 C360 1.327 . S
C361 C365 1.429 . S
C362 C345 1.574 . S
C362 H356 0.949 . S
C362 C366 1.368 . S
C363 C344 1.429 . S
C363 C357 1.429 . S
C363 C364 1.523 . S
C364 C345 1.368 . S
C364 C358 1.368 . S
C364 C363 1.523 . S
C365 C349 1.429 . S
C365 C361 1.429 . S
C365 C366 1.523 . S
C366 C350 1.368 . S
C366 C362 1.368 . S
C366 C365 1.523 . S
H367 C342 0.950 . S
H368 C344 0.950 . S
H369 C345 0.949 . S
H370 C347 0.950 . S
H371 C349 0.950 . S
C372 C373 1.349 . S
C372 C374 1.327 . S
C372 H397 0.950 . S
C373 C372 1.349 . S
C373 C389 1.349 . S
C374 C372 1.327 . S
C374 C393 1.429 . S
C374 H398 0.950 . S
C375 C392 1.574 . S
C375 C394 1.368 . S
C375 H399 0.949 . S
H376 C380 0.949 . S
C377 C378 1.349 . S
C377 C379 1.327 . S
C377 H400 0.950 . S
C378 C377 1.349 . S
C378 C390 1.349 . S
C379 C377 1.327 . S
C379 C395 1.429 . S
C379 H401 0.950 . S
C380 H376 0.949 . S
C380 C388 1.574 . S
C380 C396 1.368 . S
H381 C389 0.950 . S
H382 C387 0.950 . S
H383 C388 0.949 . S
H384 C390 0.950 . S
H385 C391 0.950 . S
H386 C392 0.949 . S
C387 H382 0.950 . S
C387 C389 1.327 . S
C387 C393 1.429 . S
C388 C380 1.574 . S
C388 H383 0.949 . S
C388 C394 1.368 . S
C389 C373 1.349 . S
C389 H381 0.950 . S
C389 C387 1.327 . S
C390 C378 1.349 . S
C390 H384 0.950 . S
C390 C391 1.327 . S
C391 H385 0.950 . S
C391 C390 1.327 . S
C391 C395 1.429 . S
C392 C375 1.574 . S
C392 H386 0.949 . S
C392 C396 1.368 . S
C393 C374 1.429 . S
C393 C387 1.429 . S
C393 C394 1.523 . S
C394 C375 1.368 . S
C394 C388 1.368 . S
C394 C393 1.523 . S
C395 C379 1.429 . S
C395 C391 1.429 . S
C395 C396 1.523 . S
C396 C380 1.368 . S
C396 C392 1.368 . S
C396 C395 1.523 . S
H397 C372 0.950 . S
H398 C374 0.950 . S
H399 C375 0.949 . S
H400 C377 0.950 . S
H401 C379 0.950 . S
C402 C403 1.349 . S
C402 C404 1.327 . S
C402 H427 0.950 . S
C403 C402 1.349 . S
C403 C419 1.349 . S
C404 C402 1.327 . S
C404 C423 1.429 . S
C404 H428 0.950 . S
C405 C422 1.574 . S
C405 C424 1.368 . S
C405 H429 0.949 . S
H406 C410 0.949 . S
C407 C408 1.349 . S
C407 C409 1.327 . S
C407 H430 0.950 . S
C408 C407 1.349 . S
C408 C420 1.349 . S
C409 C407 1.327 . S
C409 C425 1.429 . S
C409 H431 0.950 . S
C410 H406 0.949 . S
C410 C418 1.574 . S
C410 C426 1.368 . S
H411 C419 0.950 . S
H412 C417 0.950 . S
H413 C418 0.949 . S
H414 C420 0.950 . S
H415 C421 0.950 . S
H416 C422 0.949 . S
C417 H412 0.950 . S
C417 C419 1.327 . S
C417 C423 1.429 . S
C418 C410 1.574 . S
C418 H413 0.949 . S
C418 C424 1.368 . S
C419 C403 1.349 . S
C419 H411 0.950 . S
C419 C417 1.327 . S
C420 C408 1.349 . S
C420 H414 0.950 . S
C420 C421 1.327 . S
C421 H415 0.950 . S
C421 C420 1.327 . S
C421 C425 1.429 . S
C422 C405 1.574 . S
C422 H416 0.949 . S
C422 C426 1.368 . S
C423 C404 1.429 . S
C423 C417 1.429 . S
C423 C424 1.523 . S
C424 C405 1.368 . S
C424 C418 1.368 . S
C424 C423 1.523 . S
C425 C409 1.429 . S
C425 C421 1.429 . S
C425 C426 1.523 . S
C426 C410 1.368 . S
C426 C422 1.368 . S
C426 C425 1.523 . S
H427 C402 0.950 . S
H428 C404 0.950 . S
H429 C405 0.949 . S
H430 C407 0.950 . S
H431 C409 0.950 . S
C432 C433 1.349 . S
C432 C434 1.327 . S
C432 H457 0.950 . S
C433 C432 1.349 . S
C433 C449 1.349 . S
C434 C432 1.327 . S
C434 C453 1.429 . S
C434 H458 0.950 . S
C435 C452 1.574 . S
C435 C454 1.368 . S
C435 H459 0.949 . S
H436 C440 0.949 . S
C437 C438 1.349 . S
C437 C439 1.327 . S
C437 H460 0.950 . S
C438 C437 1.349 . S
C438 C450 1.349 . S
C439 C437 1.327 . S
C439 C455 1.429 . S
C439 H461 0.950 . S
C440 H436 0.949 . S
C440 C448 1.574 . S
C440 C456 1.368 . S
H441 C449 0.950 . S
H442 C447 0.950 . S
H443 C448 0.949 . S
H444 C450 0.950 . S
H445 C451 0.950 . S
H446 C452 0.949 . S
C447 H442 0.950 . S
C447 C449 1.327 . S
C447 C453 1.429 . S
C448 C440 1.574 . S
C448 H443 0.949 . S
C448 C454 1.368 . S
C449 C433 1.349 . S
C449 H441 0.950 . S
C449 C447 1.327 . S
C450 C438 1.349 . S
C450 H444 0.950 . S
C450 C451 1.327 . S
C451 H445 0.950 . S
C451 C450 1.327 . S
C451 C455 1.429 . S
C452 C435 1.574 . S
C452 H446 0.949 . S
C452 C456 1.368 . S
C453 C434 1.429 . S
C453 C447 1.429 . S
C453 C454 1.523 . S
C454 C435 1.368 . S
C454 C448 1.368 . S
C454 C453 1.523 . S
C455 C439 1.429 . S
C455 C451 1.429 . S
C455 C456 1.523 . S
C456 C440 1.368 . S
C456 C452 1.368 . S
C456 C455 1.523 . S
H457 C432 0.950 . S
H458 C434 0.950 . S
H459 C435 0.949 . S
H460 C437 0.950 . S
H461 C439 0.950 . S
C462 C463 1.349 . S
C462 C464 1.327 . S
C462 H487 0.950 . S
C463 C462 1.349 . S
C463 C479 1.349 . S
C464 C462 1.327 . S
C464 C483 1.429 . S
C464 H488 0.950 . S
C465 C482 1.574 . S
C465 C484 1.368 . S
C465 H489 0.949 . S
H466 C470 0.949 . S
C467 C468 1.349 . S
C467 C469 1.327 . S
C467 H490 0.950 . S
C468 C467 1.349 . S
C468 C480 1.349 . S
C469 C467 1.327 . S
C469 C485 1.429 . S
C469 H491 0.950 . S
C470 H466 0.949 . S
C470 C478 1.574 . S
C470 C486 1.368 . S
H471 C479 0.950 . S
H472 C477 0.950 . S
H473 C478 0.949 . S
H474 C480 0.950 . S
H475 C481 0.950 . S
H476 C482 0.949 . S
C477 H472 0.950 . S
C477 C479 1.327 . S
C477 C483 1.429 . S
C478 C470 1.574 . S
C478 H473 0.949 . S
C478 C484 1.368 . S
C479 C463 1.349 . S
C479 H471 0.950 . S
C479 C477 1.327 . S
C480 C468 1.349 . S
C480 H474 0.950 . S
C480 C481 1.327 . S
C481 H475 0.950 . S
C481 C480 1.327 . S
C481 C485 1.429 . S
C482 C465 1.574 . S
C482 H476 0.949 . S
C482 C486 1.368 . S
C483 C464 1.429 . S
C483 C477 1.429 . S
C483 C484 1.523 . S
C484 C465 1.368 . S
C484 C478 1.368 . S
C484 C483 1.523 . S
C485 C469 1.429 . S
C485 C481 1.429 . S
C485 C486 1.523 . S
C486 C470 1.368 . S
C486 C482 1.368 . S
C486 C485 1.523 . S
H487 C462 0.950 . S
H488 C464 0.950 . S
H489 C465 0.949 . S
H490 C467 0.950 . S
H491 C469 0.950 . S
C492 C493 1.349 . S
C492 C494 1.327 . S
C492 H517 0.950 . S
C493 C492 1.349 . S
C493 C509 1.349 . S
C494 C492 1.327 . S
C494 C513 1.429 . S
C494 H518 0.950 . S
C495 C512 1.574 . S
C495 C514 1.368 . S
C495 H519 0.949 . S
H496 C500 0.949 . S
C497 C498 1.349 . S
C497 C499 1.327 . S
C497 H520 0.950 . S
C498 C497 1.349 . S
C498 C510 1.349 . S
C499 C497 1.327 . S
C499 C515 1.429 . S
C499 H521 0.950 . S
C500 H496 0.949 . S
C500 C508 1.574 . S
C500 C516 1.368 . S
H501 C509 0.950 . S
H502 C507 0.950 . S
H503 C508 0.949 . S
H504 C510 0.950 . S
H505 C511 0.950 . S
H506 C512 0.949 . S
C507 H502 0.950 . S
C507 C509 1.327 . S
C507 C513 1.429 . S
C508 C500 1.574 . S
C508 H503 0.949 . S
C508 C514 1.368 . S
C509 C493 1.349 . S
C509 H501 0.950 . S
C509 C507 1.327 . S
C510 C498 1.349 . S
C510 H504 0.950 . S
C510 C511 1.327 . S
C511 H505 0.950 . S
C511 C510 1.327 . S
C511 C515 1.429 . S
C512 C495 1.574 . S
C512 H506 0.949 . S
C512 C516 1.368 . S
C513 C494 1.429 . S
C513 C507 1.429 . S
C513 C514 1.523 . S
C514 C495 1.368 . S
C514 C508 1.368 . S
C514 C513 1.523 . S
C515 C499 1.429 . S
C515 C511 1.429 . S
C515 C516 1.523 . S
C516 C500 1.368 . S
C516 C512 1.368 . S
C516 C515 1.523 . S
H517 C492 0.950 . S
H518 C494 0.950 . S
H519 C495 0.949 . S
H520 C497 0.950 . S
H521 C499 0.950 . S
C522 C523 1.349 . S
C522 C524 1.327 . S
C522 H547 0.950 . S
C523 C522 1.349 . S
C523 C539 1.349 . S
C524 C522 1.327 . S
C524 C543 1.429 . S
C524 H548 0.950 . S
C525 C542 1.574 . S
C525 C544 1.368 . S
C525 H549 0.949 . S
H526 C530 0.949 . S
C527 C528 1.349 . S
C527 C529 1.327 . S
C527 H550 0.950 . S
C528 C527 1.349 . S
C528 C540 1.349 . S
C529 C527 1.327 . S
C529 C545 1.429 . S
C529 H551 0.950 . S
C530 H526 0.949 . S
C530 C538 1.574 . S
C530 C546 1.368 . S
H531 C539 0.950 . S
H532 C537 0.950 . S
H533 C538 0.949 . S
H534 C540 0.950 . S
H535 C541 0.950 . S
H536 C542 0.949 . S
C537 H532 0.950 . S
C537 C539 1.327 . S
C537 C543 1.429 . S
C538 C530 1.574 . S
C538 H533 0.949 . S
C538 C544 1.368 . S
C539 C523 1.349 . S
C539 H531 0.950 . S
C539 C537 1.327 . S
C540 C528 1.349 . S
C540 H534 0.950 . S
C540 C541 1.327 . S
C541 H535 0.950 . S
C541 C540 1.327 . S
C541 C545 1.429 . S
C542 C525 1.574 . S
C542 H536 0.949 . S
C542 C546 1.368 . S
C543 C524 1.429 . S
C543 C537 1.429 . S
C543 C544 1.523 . S
C544 C525 1.368 . S
C544 C538 1.368 . S
C544 C543 1.523 . S
C545 C529 1.429 . S
C545 C541 1.429 . S
C545 C546 1.523 . S
C546 C530 1.368 . S
C546 C542 1.368 . S
C546 C545 1.523 . S
H547 C522 0.950 . S
H548 C524 0.950 . S
H549 C525 0.949 . S
H550 C527 0.950 . S
H551 C529 0.950 . S
C552 C553 1.349 . S
C552 C554 1.327 . S
C552 H577 0.950 . S
C553 C552 1.349 . S
C553 C569 1.349 . S
C554 C552 1.327 . S
C554 C573 1.429 . S
C554 H578 0.950 . S
C555 C572 1.574 . S
C555 C574 1.368 . S
C555 H579 0.949 . S
H556 C560 0.949 . S
C557 C558 1.349 . S
C557 C559 1.327 . S
C557 H580 0.950 . S
C558 C557 1.349 . S
C558 C570 1.349 . S
C559 C557 1.327 . S
C559 C575 1.429 . S
C559 H581 0.950 . S
C560 H556 0.949 . S
C560 C568 1.574 . S
C560 C576 1.368 . S
H561 C569 0.950 . S
H562 C567 0.950 . S
H563 C568 0.949 . S
H564 C570 0.923 1_556 S
H565 C571 0.950 . S
H566 C572 0.949 . S
C567 H562 0.950 . S
C567 C569 1.327 . S
C567 C573 1.429 . S
C568 C560 1.574 . S
C568 H563 0.949 . S
C568 C574 1.368 . S
C569 C553 1.349 . S
C569 H561 0.950 . S
C569 C567 1.327 . S
C570 C558 1.349 . S
C570 H564 0.923 1_554 S
C570 C571 1.327 . S
C571 H565 0.950 . S
C571 C570 1.327 . S
C571 C575 1.429 . S
C572 C555 1.574 . S
C572 H566 0.949 . S
C572 C576 1.368 . S
C573 C554 1.429 . S
C573 C567 1.429 . S
C573 C574 1.523 . S
C574 C555 1.368 . S
C574 C568 1.368 . S
C574 C573 1.523 . S
C575 C559 1.429 . S
C575 C571 1.429 . S
C575 C576 1.523 . S
C576 C560 1.368 . S
C576 C572 1.368 . S
C576 C575 1.523 . S
H577 C552 0.950 . S
H578 C554 0.950 . S
H579 C555 0.949 . S
H580 C557 0.950 . S
H581 C559 0.950 . S
C582 C583 1.349 . S
C582 C584 1.327 . S
C582 H607 0.950 . S
C583 C582 1.349 . S
C583 C599 1.349 . S
C584 C582 1.327 . S
C584 C603 1.429 . S
C584 H608 0.950 . S
C585 C602 1.574 . S
C585 C604 1.368 . S
C585 H609 0.949 . S
H586 C590 0.949 . S
C587 C588 1.349 1_556 S
C587 C589 1.327 . S
C587 H610 0.950 . S
C588 C587 1.349 1_554 S
C588 C600 1.349 . S
C589 C587 1.327 . S
C589 C605 1.429 . S
C589 H611 0.950 . S
C590 H586 0.949 . S
C590 C598 1.574 . S
C590 C606 1.368 . S
H591 C599 0.950 . S
H592 C597 0.950 . S
H593 C598 0.949 . S
H594 C600 0.950 . S
H595 C601 0.950 . S
H596 C602 0.949 . S
C597 H592 0.950 . S
C597 C599 1.327 . S
C597 C603 1.429 . S
C598 C590 1.574 . S
C598 H593 0.949 . S
C598 C604 1.368 . S
C599 C583 1.349 . S
C599 H591 0.950 . S
C599 C597 1.327 . S
C600 C588 1.349 . S
C600 H594 0.950 . S
C600 C601 1.327 . S
C601 H595 0.950 . S
C601 C600 1.327 . S
C601 C605 1.429 1_554 S
C602 C585 1.574 . S
C602 H596 0.949 . S
C602 C606 1.368 . S
C603 C584 1.429 . S
C603 C597 1.429 . S
C603 C604 1.523 . S
C604 C585 1.368 . S
C604 C598 1.368 . S
C604 C603 1.523 . S
C605 C589 1.429 . S
C605 C601 1.429 1_556 S
C605 C606 1.523 . S
C606 C590 1.368 . S
C606 C602 1.368 . S
C606 C605 1.523 . S
H607 C582 0.950 . S
H608 C584 0.950 . S
H609 C585 0.949 . S
H610 C587 0.950 . S
H611 C589 0.950 . S
C612 C613 1.349 . S
C612 C614 1.327 . S
C612 H637 0.950 . S
C613 C612 1.349 . S
C613 C629 1.349 . S
C614 C612 1.327 . S
C614 C633 1.429 . S
C614 H638 0.950 . S
C615 C632 1.574 . S
C615 C634 1.368 . S
C615 H639 0.949 . S
H616 C620 0.949 . S
C617 C618 1.349 . S
C617 C619 1.327 . S
C617 H640 0.950 1_655 S
C618 C617 1.349 . S
C618 C630 1.349 . S
C619 C617 1.327 . S
C619 C635 1.429 . S
C619 H641 0.950 . S
C620 H616 0.949 . S
C620 C628 1.574 . S
C620 C636 1.368 . S
H621 C629 0.950 . S
H622 C627 0.950 . S
H623 C628 0.949 . S
H624 C630 0.950 . S
H625 C631 0.950 . S
H626 C632 0.949 . S
C627 H622 0.950 . S
C627 C629 1.327 . S
C627 C633 1.429 . S
C628 C620 1.574 . S
C628 H623 0.949 . S
C628 C634 1.368 . S
C629 C613 1.349 . S
C629 H621 0.950 . S
C629 C627 1.327 . S
C630 C618 1.349 . S
C630 H624 0.950 . S
C630 C631 1.327 . S
C631 H625 0.950 . S
C631 C630 1.327 . S
C631 C635 1.429 . S
C632 C615 1.574 . S
C632 H626 0.949 . S
C632 C636 1.368 . S
C633 C614 1.429 . S
C633 C627 1.429 . S
C633 C634 1.523 . S
C634 C615 1.368 . S
C634 C628 1.368 . S
C634 C633 1.523 . S
C635 C619 1.429 . S
C635 C631 1.429 . S
C635 C636 1.523 . S
C636 C620 1.368 . S
C636 C632 1.368 . S
C636 C635 1.523 . S
H637 C612 0.950 . S
H638 C614 0.950 . S
H639 C615 0.949 . S
H640 C617 0.950 1_455 S
H641 C619 0.950 . S
C642 C643 1.349 . S
C642 C644 1.327 . S
C642 H667 0.950 . S
C643 C642 1.349 . S
C643 C659 1.349 . S
C644 C642 1.327 . S
C644 C663 1.429 . S
C644 H668 0.950 . S
C645 C662 1.574 . S
C645 C664 1.368 . S
C645 H669 0.949 . S
H646 C650 0.949 . S
C647 C648 1.349 . S
C647 C649 1.327 . S
C647 H670 0.950 . S
C648 C647 1.349 . S
C648 C660 1.349 . S
C649 C647 1.327 . S
C649 C665 1.429 . S
C649 H671 0.950 . S
C650 H646 0.949 . S
C650 C658 1.574 . S
C650 C666 1.368 . S
H651 C659 0.950 . S
H652 C657 0.950 . S
H653 C658 0.949 . S
H654 C660 0.950 . S
H655 C661 0.950 . S
H656 C662 0.949 . S
C657 H652 0.950 . S
C657 C659 1.327 . S
C657 C663 1.429 . S
C658 C650 1.574 . S
C658 H653 0.949 . S
C658 C664 1.368 . S
C659 C643 1.349 . S
C659 H651 0.950 . S
C659 C657 1.327 . S
C660 C648 1.349 . S
C660 H654 0.950 . S
C660 C661 1.327 . S
C661 H655 0.950 . S
C661 C660 1.327 . S
C661 C665 1.429 . S
C662 C645 1.574 . S
C662 H656 0.949 . S
C662 C666 1.368 . S
C663 C644 1.429 . S
C663 C657 1.429 . S
C663 C664 1.523 . S
C664 C645 1.368 . S
C664 C658 1.368 . S
C664 C663 1.523 . S
C665 C649 1.429 . S
C665 C661 1.429 . S
C665 C666 1.523 . S
C666 C650 1.368 . S
C666 C662 1.368 . S
C666 C665 1.523 . S
H667 C642 0.950 . S
H668 C644 0.950 . S
H669 C645 0.949 . S
H670 C647 0.950 . S
H671 C649 0.950 . S
C672 C673 1.349 . S
C672 C674 1.327 . S
C672 H697 0.950 . S
C673 C672 1.349 . S
C673 C689 1.349 . S
C674 C672 1.327 . S
C674 C693 1.429 . S
C674 H698 0.950 . S
C675 C692 1.574 . S
C675 C694 1.368 . S
C675 H699 0.949 . S
H676 C680 0.949 . S
C677 C678 1.349 . S
C677 C679 1.327 . S
C677 H700 0.950 . S
C678 C677 1.349 . S
C678 C690 1.349 . S
C679 C677 1.327 . S
C679 C695 1.429 . S
C679 H701 0.950 . S
C680 H676 0.949 . S
C680 C688 1.574 . S
C680 C696 1.368 . S
H681 C689 0.950 . S
H682 C687 0.950 . S
H683 C688 0.949 . S
H684 C690 0.950 . S
H685 C691 0.950 . S
H686 C692 0.949 . S
C687 H682 0.950 . S
C687 C689 1.327 . S
C687 C693 1.429 . S
C688 C680 1.574 . S
C688 H683 0.949 . S
C688 C694 1.368 . S
C689 C673 1.349 . S
C689 H681 0.950 . S
C689 C687 1.327 . S
C690 C678 1.349 . S
C690 H684 0.950 . S
C690 C691 1.327 . S
C691 H685 0.950 . S
C691 C690 1.327 . S
C691 C695 1.429 . S
C692 C675 1.574 . S
C692 H686 0.949 . S
C692 C696 1.368 . S
C693 C674 1.429 . S
C693 C687 1.429 . S
C693 C694 1.523 . S
C694 C675 1.368 . S
C694 C688 1.368 . S
C694 C693 1.523 . S
C695 C679 1.429 . S
C695 C691 1.429 . S
C695 C696 1.523 . S
C696 C680 1.368 . S
C696 C692 1.368 . S
C696 C695 1.523 . S
H697 C672 0.950 . S
H698 C674 0.950 . S
H699 C675 0.949 . S
H700 C677 0.950 . S
H701 C679 0.950 . S
C702 C703 1.349 . S
C702 C704 1.327 . S
C702 H727 0.950 . S
C703 C702 1.349 . S
C703 C719 1.349 . S
C704 C702 1.327 . S
C704 C723 1.429 . S
C704 H728 0.950 . S
C705 C722 1.574 . S
C705 C724 1.368 . S
C705 H729 0.949 . S
H706 C710 0.949 . S
C707 C708 1.349 . S
C707 C709 1.327 . S
C707 H730 0.950 . S
C708 C707 1.349 . S
C708 C720 1.349 . S
C709 C707 1.327 . S
C709 C725 1.429 . S
C709 H731 0.950 . S
C710 H706 0.949 . S
C710 C718 1.574 . S
C710 C726 1.368 . S
H711 C719 0.950 . S
H712 C717 0.950 . S
H713 C718 0.949 . S
H714 C720 0.950 . S
H715 C721 0.950 . S
H716 C722 0.949 . S
C717 H712 0.950 . S
C717 C719 1.327 . S
C717 C723 1.429 . S
C718 C710 1.574 . S
C718 H713 0.949 . S
C718 C724 1.368 . S
C719 C703 1.349 . S
C719 H711 0.950 . S
C719 C717 1.327 . S
C720 C708 1.349 . S
C720 H714 0.950 . S
C720 C721 1.327 . S
C721 H715 0.950 . S
C721 C720 1.327 . S
C721 C725 1.429 . S
C722 C705 1.574 . S
C722 H716 0.949 . S
C722 C726 1.368 . S
C723 C704 1.429 . S
C723 C717 1.429 . S
C723 C724 1.523 . S
C724 C705 1.368 . S
C724 C718 1.368 . S
C724 C723 1.523 . S
C725 C709 1.429 . S
C725 C721 1.429 . S
C725 C726 1.523 . S
C726 C710 1.368 . S
C726 C722 1.368 . S
C726 C725 1.523 . S
H727 C702 0.950 . S
H728 C704 0.950 . S
H729 C705 0.949 . S
H730 C707 0.950 . S
H731 C709 0.950 . S
C732 C733 1.349 . S
C732 C734 1.327 . S
C732 H757 0.950 . S
C733 C732 1.349 . S
C733 C749 1.349 . S
C734 C732 1.327 . S
C734 C753 1.429 . S
C734 H758 0.950 . S
C735 C752 1.574 . S
C735 C754 1.368 . S
C735 H759 0.949 . S
H736 C740 0.949 . S
C737 C738 1.349 . S
C737 C739 1.327 . S
C737 H760 0.950 . S
C738 C737 1.349 . S
C738 C750 1.349 . S
C739 C737 1.327 . S
C739 C755 1.429 . S
C739 H761 0.950 . S
C740 H736 0.949 . S
C740 C748 1.574 . S
C740 C756 1.368 . S
H741 C749 0.950 . S
H742 C747 0.950 . S
H743 C748 0.949 . S
H744 C750 0.950 . S
H745 C751 0.950 . S
H746 C752 0.949 . S
C747 H742 0.950 . S
C747 C749 1.327 . S
C747 C753 1.429 . S
C748 C740 1.574 . S
C748 H743 0.949 . S
C748 C754 1.368 . S
C749 C733 1.349 . S
C749 H741 0.950 . S
C749 C747 1.327 . S
C750 C738 1.349 . S
C750 H744 0.950 . S
C750 C751 1.327 . S
C751 H745 0.950 . S
C751 C750 1.327 . S
C751 C755 1.429 . S
C752 C735 1.574 . S
C752 H746 0.949 . S
C752 C756 1.368 . S
C753 C734 1.429 . S
C753 C747 1.429 . S
C753 C754 1.523 . S
C754 C735 1.368 . S
C754 C748 1.368 . S
C754 C753 1.523 . S
C755 C739 1.429 . S
C755 C751 1.429 . S
C755 C756 1.523 . S
C756 C740 1.368 . S
C756 C752 1.368 . S
C756 C755 1.523 . S
H757 C732 0.950 . S
H758 C734 0.950 . S
H759 C735 0.949 . S
H760 C737 0.950 . S
H761 C739 0.950 . S
C762 C763 1.349 . S
C762 C764 1.327 . S
C762 H787 0.950 . S
C763 C762 1.349 . S
C763 C779 1.349 . S
C764 C762 1.327 . S
C764 C783 1.429 . S
C764 H788 0.950 . S
C765 C782 1.574 . S
C765 C784 1.368 . S
C765 H789 0.949 . S
H766 C770 0.949 . S
C767 C768 1.349 . S
C767 C769 1.327 . S
C767 H790 0.950 . S
C768 C767 1.349 . S
C768 C780 1.349 . S
C769 C767 1.327 . S
C769 C785 1.429 . S
C769 H791 0.950 . S
C770 H766 0.949 . S
C770 C778 1.574 . S
C770 C786 1.368 . S
H771 C779 0.950 . S
H772 C777 0.950 . S
H773 C778 0.949 . S
H774 C780 0.950 . S
H775 C781 0.950 . S
H776 C782 0.949 . S
C777 H772 0.950 . S
C777 C779 1.327 . S
C777 C783 1.429 . S
C778 C770 1.574 . S
C778 H773 0.949 . S
C778 C784 1.368 . S
C779 C763 1.349 . S
C779 H771 0.950 . S
C779 C777 1.327 . S
C780 C768 1.349 . S
C780 H774 0.950 . S
C780 C781 1.327 . S
C781 H775 0.950 . S
C781 C780 1.327 . S
C781 C785 1.429 . S
C782 C765 1.574 . S
C782 H776 0.949 . S
C782 C786 1.368 . S
C783 C764 1.429 . S
C783 C777 1.429 . S
C783 C784 1.523 . S
C784 C765 1.368 . S
C784 C778 1.368 . S
C784 C783 1.523 . S
C785 C769 1.429 . S
C785 C781 1.429 . S
C785 C786 1.523 . S
C786 C770 1.368 . S
C786 C782 1.368 . S
C786 C785 1.523 . S
H787 C762 0.950 . S
H788 C764 0.950 . S
H789 C765 0.949 . S
H790 C767 0.950 . S
H791 C769 0.950 . S
C792 C793 1.349 . S
C792 C794 1.327 . S
C792 H817 0.950 . S
C793 C792 1.349 . S
C793 C809 1.349 . S
C794 C792 1.327 . S
C794 C813 1.429 . S
C794 H818 0.950 1_556 S
C795 C812 1.574 . S
C795 C814 1.368 . S
C795 H819 0.949 . S
H796 C800 0.949 . S
C797 C798 1.349 . S
C797 C799 1.327 . S
C797 H820 0.950 1_565 S
C798 C797 1.349 . S
C798 C810 1.349 . S
C799 C797 1.327 . S
C799 C815 1.429 . S
C799 H821 0.950 1_554 S
C800 H796 0.949 . S
C800 C808 1.574 . S
C800 C816 1.368 . S
H801 C809 0.950 . S
H802 C807 0.950 . S
H803 C808 0.949 . S
H804 C810 0.950 . S
H805 C811 0.950 . S
H806 C812 0.949 . S
C807 H802 0.950 . S
C807 C809 1.327 . S
C807 C813 1.429 . S
C808 C800 1.574 . S
C808 H803 0.949 . S
C808 C814 1.368 1_554 S
C809 C793 1.349 . S
C809 H801 0.950 . S
C809 C807 1.327 . S
C810 C798 1.349 . S
C810 H804 0.950 . S
C810 C811 1.327 . S
C811 H805 0.950 . S
C811 C810 1.327 . S
C811 C815 1.429 . S
C812 C795 1.574 . S
C812 H806 0.949 . S
C812 C816 1.368 1_556 S
C813 C794 1.429 . S
C813 C807 1.429 . S
C813 C814 1.523 . S
C814 C795 1.368 . S
C814 C808 1.368 1_556 S
C814 C813 1.523 . S
C815 C799 1.429 . S
C815 C811 1.429 . S
C815 C816 1.523 . S
C816 C800 1.368 . S
C816 C812 1.368 1_554 S
C816 C815 1.523 . S
H817 C792 0.950 . S
H818 C794 0.950 1_554 S
H819 C795 0.949 . S
H820 C797 0.950 1_545 S
H821 C799 0.950 1_556 S
C822 C823 1.349 . S
C822 C824 1.327 . S
C822 H847 0.950 . S
C823 C822 1.349 . S
C823 C839 1.349 . S
C824 C822 1.327 . S
C824 C843 1.429 . S
C824 H848 0.950 . S
C825 C842 1.574 . S
C825 C844 1.368 . S
C825 H849 0.949 . S
H826 C830 0.949 . S
C827 C828 1.349 . S
C827 C829 1.327 . S
C827 H850 0.950 . S
C828 C827 1.349 . S
C828 C840 1.349 . S
C829 C827 1.327 . S
C829 C845 1.429 . S
C829 H851 0.950 . S
C830 H826 0.949 . S
C830 C838 1.574 . S
C830 C846 1.368 . S
H831 C839 0.950 . S
H832 C837 0.950 . S
H833 C838 0.949 . S
H834 C840 0.950 . S
H835 C841 0.950 . S
H836 C842 0.949 . S
C837 H832 0.950 . S
C837 C839 1.327 . S
C837 C843 1.429 . S
C838 C830 1.574 . S
C838 H833 0.949 . S
C838 C844 1.368 . S
C839 C823 1.349 . S
C839 H831 0.950 . S
C839 C837 1.327 . S
C840 C828 1.349 . S
C840 H834 0.950 . S
C840 C841 1.327 . S
C841 H835 0.950 . S
C841 C840 1.327 . S
C841 C845 1.429 . S
C842 C825 1.574 . S
C842 H836 0.949 . S
C842 C846 1.368 . S
C843 C824 1.429 . S
C843 C837 1.429 . S
C843 C844 1.523 . S
C844 C825 1.368 . S
C844 C838 1.368 . S
C844 C843 1.523 . S
C845 C829 1.429 . S
C845 C841 1.429 . S
C845 C846 1.523 . S
C846 C830 1.368 . S
C846 C842 1.368 . S
C846 C845 1.523 . S
H847 C822 0.950 . S
H848 C824 0.950 . S
H849 C825 0.949 . S
H850 C827 0.950 . S
H851 C829 0.950 . S
C852 C853 1.349 . S
C852 C854 1.327 . S
C852 H877 0.950 . S
C853 C852 1.349 . S
C853 C869 1.349 . S
C854 C852 1.327 . S
C854 C873 1.429 . S
C854 H878 0.950 . S
C855 C872 1.574 . S
C855 C874 1.368 . S
C855 H879 0.949 . S
H856 C860 0.949 . S
C857 C858 1.349 . S
C857 C859 1.327 . S
C857 H880 0.950 . S
C858 C857 1.349 . S
C858 C870 1.349 . S
C859 C857 1.327 . S
C859 C875 1.429 . S
C859 H881 0.950 . S
C860 H856 0.949 . S
C860 C868 1.574 . S
C860 C876 1.368 . S
H861 C869 0.950 . S
H862 C867 0.950 . S
H863 C868 0.949 . S
H864 C870 0.950 . S
H865 C871 0.950 . S
H866 C872 0.949 . S
C867 H862 0.950 . S
C867 C869 1.327 . S
C867 C873 1.429 . S
C868 C860 1.574 . S
C868 H863 0.949 . S
C868 C874 1.368 . S
C869 C853 1.349 . S
C869 H861 0.950 . S
C869 C867 1.327 . S
C870 C858 1.349 . S
C870 H864 0.950 . S
C870 C871 1.327 . S
C871 H865 0.950 . S
C871 C870 1.327 . S
C871 C875 1.429 . S
C872 C855 1.574 . S
C872 H866 0.949 . S
C872 C876 1.368 . S
C873 C854 1.429 . S
C873 C867 1.429 . S
C873 C874 1.523 . S
C874 C855 1.368 . S
C874 C868 1.368 . S
C874 C873 1.523 . S
C875 C859 1.429 . S
C875 C871 1.429 . S
C875 C876 1.523 . S
C876 C860 1.368 . S
C876 C872 1.368 . S
C876 C875 1.523 . S
H877 C852 0.950 . S
H878 C854 0.950 . S
H879 C855 0.949 . S
H880 C857 0.950 . S
H881 C859 0.950 . S
C882 C883 1.349 . S
C882 C884 1.327 . S
C882 H907 0.950 . S
C883 C882 1.349 . S
C883 C899 1.349 . S
C884 C882 1.327 . S
C884 C903 1.429 . S
C884 H908 0.950 . S
C885 C902 1.574 . S
C885 C904 1.368 . S
C885 H909 0.949 . S
H886 C890 0.949 . S
C887 C888 1.349 . S
C887 C889 1.327 . S
C887 H910 0.950 . S
C888 C887 1.349 . S
C888 C900 1.349 . S
C889 C887 1.327 . S
C889 C905 1.429 . S
C889 H911 0.950 . S
C890 H886 0.949 . S
C890 C898 1.574 . S
C890 C906 1.368 . S
H891 C899 0.950 . S
H892 C897 0.950 . S
H893 C898 0.949 . S
H894 C900 0.950 . S
H895 C901 0.950 . S
H896 C902 0.949 . S
C897 H892 0.950 . S
C897 C899 1.327 . S
C897 C903 1.429 . S
C898 C890 1.574 . S
C898 H893 0.949 . S
C898 C904 1.368 . S
C899 C883 1.349 . S
C899 H891 0.950 . S
C899 C897 1.327 . S
C900 C888 1.349 . S
C900 H894 0.950 . S
C900 C901 1.327 . S
C901 H895 0.950 . S
C901 C900 1.327 . S
C901 C905 1.429 . S
C902 C885 1.574 . S
C902 H896 0.949 . S
C902 C906 1.368 . S
C903 C884 1.429 . S
C903 C897 1.429 . S
C903 C904 1.523 . S
C904 C885 1.368 . S
C904 C898 1.368 . S
C904 C903 1.523 . S
C905 C889 1.429 . S
C905 C901 1.429 . S
C905 C906 1.523 . S
C906 C890 1.368 . S
C906 C902 1.368 . S
C906 C905 1.523 . S
H907 C882 0.950 . S
H908 C884 0.950 . S
H909 C885 0.949 . S
H910 C887 0.950 . S
H911 C889 0.950 . S
C912 C913 1.349 . S
C912 C914 1.327 . S
C912 H937 0.950 . S
C913 C912 1.349 . S
C913 C929 1.349 . S
C914 C912 1.327 . S
C914 C933 1.429 . S
C914 H938 0.950 . S
C915 C932 1.574 . S
C915 C934 1.368 . S
C915 H939 0.949 . S
H916 C920 0.949 . S
C917 C918 1.349 1_455 S
C917 C919 1.327 1_455 S
C917 H940 0.950 . S
C918 C917 1.349 1_655 S
C918 C930 1.349 . S
C919 C917 1.327 1_655 S
C919 C935 1.429 . S
C919 H941 0.950 1_655 S
C920 H916 0.949 . S
C920 C928 1.574 . S
C920 C936 1.368 . S
H921 C929 0.950 . S
H922 C927 0.950 . S
H923 C928 0.949 . S
H924 C930 0.950 . S
H925 C931 0.950 . S
H926 C932 0.949 . S
C927 H922 0.950 . S
C927 C929 1.327 . S
C927 C933 1.429 . S
C928 C920 1.574 . S
C928 H923 0.949 . S
C928 C934 1.368 . S
C929 C913 1.349 . S
C929 H921 0.950 . S
C929 C927 1.327 . S
C930 C918 1.349 . S
C930 H924 0.950 . S
C930 C931 1.327 . S
C931 H925 0.950 . S
C931 C930 1.327 . S
C931 C935 1.429 . S
C932 C915 1.574 . S
C932 H926 0.949 . S
C932 C936 1.368 . S
C933 C914 1.429 . S
C933 C927 1.429 . S
C933 C934 1.523 . S
C934 C915 1.368 . S
C934 C928 1.368 . S
C934 C933 1.523 . S
C935 C919 1.429 . S
C935 C931 1.429 . S
C935 C936 1.523 . S
C936 C920 1.368 . S
C936 C932 1.368 . S
C936 C935 1.523 . S
H937 C912 0.950 . S
H938 C914 0.950 . S
H939 C915 0.949 . S
H940 C917 0.950 . S
H941 C919 0.950 1_455 S
C942 C943 1.349 . S
C942 C944 1.327 . S
C942 H967 0.950 . S
C943 C942 1.349 . S
C943 C959 1.349 . S
C944 C942 1.327 . S
C944 C963 1.429 . S
C944 H968 0.950 . S
C945 C962 1.574 . S
C945 C964 1.368 . S
C945 H969 0.949 . S
H946 C950 0.949 . S
C947 C948 1.349 . S
C947 C949 1.327 . S
C947 H970 0.950 . S
C948 C947 1.349 . S
C948 C960 1.349 . S
C949 C947 1.327 . S
C949 C965 1.429 . S
C949 H971 0.950 . S
C950 H946 0.949 . S
C950 C958 1.574 . S
C950 C966 1.368 . S
H951 C959 0.950 . S
H952 C957 0.950 . S
H953 C958 0.949 . S
H954 C960 0.950 . S
H955 C961 0.950 . S
H956 C962 0.949 . S
C957 H952 0.950 . S
C957 C959 1.327 . S
C957 C963 1.429 . S
C958 C950 1.574 . S
C958 H953 0.949 . S
C958 C964 1.368 . S
C959 C943 1.349 . S
C959 H951 0.950 . S
C959 C957 1.327 . S
C960 C948 1.349 . S
C960 H954 0.950 . S
C960 C961 1.327 . S
C961 H955 0.950 . S
C961 C960 1.327 . S
C961 C965 1.429 . S
C962 C945 1.574 . S
C962 H956 0.949 . S
C962 C966 1.368 . S
C963 C944 1.429 . S
C963 C957 1.429 . S
C963 C964 1.523 . S
C964 C945 1.368 . S
C964 C958 1.368 . S
C964 C963 1.523 . S
C965 C949 1.429 . S
C965 C961 1.429 . S
C965 C966 1.523 . S
C966 C950 1.368 . S
C966 C962 1.368 . S
C966 C965 1.523 . S
H967 C942 0.950 . S
H968 C944 0.950 . S
H969 C945 0.949 . S
H970 C947 0.950 . S
H971 C949 0.950 . S
C972 C973 1.349 . S
C972 C974 1.327 . S
C972 H997 0.950 . S
C973 C972 1.349 . S
C973 C989 1.349 . S
C974 C972 1.327 . S
C974 C993 1.429 . S
C974 H998 0.950 . S
C975 C992 1.574 . S
C975 C994 1.368 . S
C975 H999 0.949 . S
H976 C980 0.949 . S
C977 C978 1.349 . S
C977 C979 1.327 . S
C977 H1000 0.950 . S
C978 C977 1.349 . S
C978 C990 1.349 . S
C979 C977 1.327 . S
C979 C995 1.429 . S
C979 H1001 0.950 . S
C980 H976 0.949 . S
C980 C988 1.574 . S
C980 C996 1.368 . S
H981 C989 0.950 . S
H982 C987 0.950 . S
H983 C988 0.949 . S
H984 C990 0.950 . S
H985 C991 0.950 . S
H986 C992 0.949 . S
C987 H982 0.950 . S
C987 C989 1.327 . S
C987 C993 1.429 . S
C988 C980 1.574 . S
C988 H983 0.949 . S
C988 C994 1.368 . S
C989 C973 1.349 . S
C989 H981 0.950 . S
C989 C987 1.327 . S
C990 C978 1.349 . S
C990 H984 0.950 . S
C990 C991 1.327 . S
C991 H985 0.950 . S
C991 C990 1.327 . S
C991 C995 1.429 . S
C992 C975 1.574 . S
C992 H986 0.949 . S
C992 C996 1.368 . S
C993 C974 1.429 . S
C993 C987 1.429 . S
C993 C994 1.523 . S
C994 C975 1.368 . S
C994 C988 1.368 . S
C994 C993 1.523 . S
C995 C979 1.429 . S
C995 C991 1.429 . S
C995 C996 1.523 . S
C996 C980 1.368 . S
C996 C992 1.368 . S
C996 C995 1.523 . S
H997 C972 0.950 . S
H998 C974 0.950 . S
H999 C975 0.949 . S
H1000 C977 0.950 . S
H1001 C979 0.950 . S
C1002 C1003 1.349 . S
C1002 C1004 1.327 . S
C1002 H1027 0.950 . S
C1003 C1002 1.349 . S
C1003 C1019 1.349 . S
C1004 C1002 1.327 . S
C1004 C1023 1.429 . S
C1004 H1028 0.950 . S
C1005 C1022 1.574 . S
C1005 C1024 1.368 . S
C1005 H1029 0.949 . S
H1006 C1010 0.949 . S
C1007 C1008 1.349 . S
C1007 C1009 1.327 . S
C1007 H1030 0.950 . S
C1008 C1007 1.349 . S
C1008 C1020 1.349 . S
C1009 C1007 1.327 . S
C1009 C1025 1.429 . S
C1009 H1031 0.950 . S
C1010 H1006 0.949 . S
C1010 C1018 1.574 . S
C1010 C1026 1.368 . S
H1011 C1019 0.950 . S
H1012 C1017 0.950 . S
H1013 C1018 0.949 . S
H1014 C1020 0.950 . S
H1015 C1021 0.950 . S
H1016 C1022 0.949 . S
C1017 H1012 0.950 . S
C1017 C1019 1.327 . S
C1017 C1023 1.429 . S
C1018 C1010 1.574 . S
C1018 H1013 0.949 . S
C1018 C1024 1.368 . S
C1019 C1003 1.349 . S
C1019 H1011 0.950 . S
C1019 C1017 1.327 . S
C1020 C1008 1.349 . S
C1020 H1014 0.950 . S
C1020 C1021 1.327 . S
C1021 H1015 0.950 . S
C1021 C1020 1.327 . S
C1021 C1025 1.429 . S
C1022 C1005 1.574 . S
C1022 H1016 0.949 . S
C1022 C1026 1.368 . S
C1023 C1004 1.429 . S
C1023 C1017 1.429 . S
C1023 C1024 1.523 . S
C1024 C1005 1.368 . S
C1024 C1018 1.368 . S
C1024 C1023 1.523 . S
C1025 C1009 1.429 . S
C1025 C1021 1.429 . S
C1025 C1026 1.523 . S
C1026 C1010 1.368 . S
C1026 C1022 1.368 . S
C1026 C1025 1.523 . S
H1027 C1002 0.950 . S
H1028 C1004 0.950 . S
H1029 C1005 0.949 . S
H1030 C1007 0.950 . S
H1031 C1009 0.950 . S
C313 C6 3.230 . S
C318 C171 3.197 . S
C343 C21 2.758 . S
C348 C202 2.779 . S
C378 C241 0.526 . S
C373 C49 0.583 . S
C403 C68 0.584 . S
C408 C278 0.275 . S
C438 C201 3.751 . S
C433 C2 3.791 . S
C468 C158 1.248 . S
C463 C30 1.202 . S
C498 C290 0.853 . S
C493 C40 0.857 . S
C528 C247 0.742 . S
C523 C63 0.741 . S
C553 C11 2.273 . S
C558 C291 2.519 . S
C588 C207 1.607 . S
C583 C44 1.613 . S
C613 C59 0.314 . S
C618 C170 0.496 . S
C643 C25 2.743 . S
C648 C242 2.770 . S
C678 C162 3.298 . S
C673 C82 3.343 . S
C703 C101 2.375 . S
C708 C211 2.419 . S
C733 C125 0.920 . S
C738 C250 0.919 . S
C763 C144 0.382 . S
C768 C287 0.294 . S
C793 C87 2.520 . S
C798 C210 2.624 1_565 S
C828 C167 2.137 . S
C823 C97 2.099 . S
C858 C281 0.943 . S
C853 C120 0.995 . S
C888 C238 0.807 . S
C883 C135 0.811 . S
C913 C78 2.642 . S
C918 C282 2.663 1_656 S
C948 C198 1.274 . S
C943 C116 1.277 . S
C978 C161 0.712 . S
C973 C139 0.705 . S
C1003 C106 2.201 . S
C1008 C251 2.491 . S
