# Generated by pormake.
# Topology anh, (6,3)-cn, num edge types: 1
# Building blocks:
#     Node 0, Type 0, BuildingBlock: VOLQOD_clean_sbu_1, # of connection points: 6
#     Node 1, Type 0, BuildingBlock: VOLQOD_clean_sbu_1, # of connection points: 6
#     Node 2, Type 0, BuildingBlock: VOLQOD_clean_sbu_1, # of connection points: 6
#     Node 3, Type 1, BuildingBlock: KAKCAD_clean_linker_0, # of connection points: 3
#     Node 4, Type 1, BuildingBlock: KAKCAD_clean_linker_0, # of connection points: 3
#     Node 5, Type 1, BuildingBlock: KAKCAD_clean_linker_0, # of connection points: 3
#     Node 6, Type 1, BuildingBlock: KAKCAD_clean_linker_0, # of connection points: 3
#     Node 7, Type 1, BuildingBlock: KAKCAD_clean_linker_0, # of connection points: 3
#     Node 8, Type 1, BuildingBlock: KAKCAD_clean_linker_0, # of connection points: 3
#     Edge 9, Type (0, 1), BuildingBlock: TEMPAE_clean_linker_10, # of connection points: 2
#     Edge 10, Type (0, 1), BuildingBlock: TEMPAE_clean_linker_10, # of connection points: 2
#     Edge 11, Type (0, 1), BuildingBlock: TEMPAE_clean_linker_10, # of connection points: 2
#     Edge 12, Type (0, 1), BuildingBlock: TEMPAE_clean_linker_10, # of connection points: 2
#     Edge 13, Type (0, 1), BuildingBlock: TEMPAE_clean_linker_10, # of connection points: 2
#     Edge 14, Type (0, 1), BuildingBlock: TEMPAE_clean_linker_10, # of connection points: 2
#     Edge 15, Type (0, 1), BuildingBlock: TEMPAE_clean_linker_10, # of connection points: 2
#     Edge 16, Type (0, 1), BuildingBlock: TEMPAE_clean_linker_10, # of connection points: 2
#     Edge 17, Type (0, 1), BuildingBlock: TEMPAE_clean_linker_10, # of connection points: 2
#     Edge 18, Type (0, 1), BuildingBlock: TEMPAE_clean_linker_10, # of connection points: 2
#     Edge 19, Type (0, 1), BuildingBlock: TEMPAE_clean_linker_10, # of connection points: 2
#     Edge 20, Type (0, 1), BuildingBlock: TEMPAE_clean_linker_10, # of connection points: 2
#     Edge 21, Type (0, 1), BuildingBlock: TEMPAE_clean_linker_10, # of connection points: 2
#     Edge 22, Type (0, 1), BuildingBlock: TEMPAE_clean_linker_10, # of connection points: 2
#     Edge 23, Type (0, 1), BuildingBlock: TEMPAE_clean_linker_10, # of connection points: 2
#     Edge 24, Type (0, 1), BuildingBlock: TEMPAE_clean_linker_10, # of connection points: 2
#     Edge 25, Type (0, 1), BuildingBlock: TEMPAE_clean_linker_10, # of connection points: 2
#     Edge 26, Type (0, 1), BuildingBlock: TEMPAE_clean_linker_10, # of connection points: 2
# Relax obj value: 0.167
# Max RMSD: 0.230
# Mean RMSD: 0.114
data_MOF--net-anh--node1-VOLQOD_clean_sbu_1--node2-KAKCAD_clean_linker_0--edge1-TEMPAE_clean_linker_10
_symmetry_space_group_name_H-M    P1
_symmetry_Int_Tables_number       1
_symmetry_cell_setting            triclinic
loop_
_symmetry_equiv_pos_as_xyz
'x, y, z'
_cell_length_a     35.085872
_cell_length_b     35.058142
_cell_length_c     75.606995
_cell_angle_alpha  90.188095
_cell_angle_beta   89.783073
_cell_angle_gamma 120.15149
loop_
_atom_site_label
_atom_site_type_symbol
_atom_site_fract_x
_atom_site_fract_y
_atom_site_fract_z
_atom_type_partial_charge
O0 O 0.00943 0.54381 0.19715 0.0
Zn1 Zn 0.00808 0.55302 0.17105 0.0
O2 O 0.00794 0.50504 0.15772 0.0
Zn3 Zn 0.9544 0.4753 0.14366 0.0
Zn4 Zn 0.01041 0.46306 0.174 0.0
Zn5 Zn 0.05887 0.52873 0.14203 0.0
O6 O 0.96768 0.47958 0.11764 0.0
O7 O 0.04084 0.51511 0.11665 0.0
O8 O 0.95427 0.55801 0.16623 0.0
O9 O 0.91682 0.50237 0.14772 0.0
O10 O 0.91794 0.41158 0.15039 0.0
O11 O 0.95789 0.40284 0.17097 0.0
O12 O 0.06442 0.45791 0.17023 0.0
O13 O 0.0614 0.61073 0.16514 0.0
O14 O 0.0972 0.50321 0.14769 0.0
O15 O 0.09621 0.59446 0.14452 0.0
C16 C 0.0095 0.51359 0.2064 0.0
C17 C 0.00361 0.49596 0.10895 0.0
C18 C 0.92367 0.38739 0.16132 0.0
C19 C 0.92045 0.53471 0.15674 0.0
C20 C 0.09585 0.47597 0.15911 0.0
C21 C 0.09326 0.62243 0.15434 0.0
O22 O 0.00962 0.48073 0.19925 0.0
O23 O 0.44844 0.00477 0.45668 0.0
Zn24 Zn 0.44185 0.00218 0.48314 0.0
O25 O 0.48425 0.98892 0.4941 0.0
Zn26 Zn 0.52423 0.03692 0.50942 0.0
Zn27 Zn 0.51869 0.9806 0.47577 0.0
Zn28 Zn 0.45288 0.93598 0.50832 0.0
O29 O 0.52044 0.0181 0.53472 0.0
O30 O 0.46514 0.94896 0.53421 0.0
O31 O 0.45006 0.06034 0.49164 0.0
O32 O 0.50864 0.08432 0.50902 0.0
O33 O 0.58674 0.06522 0.50108 0.0
O34 O 0.58158 0.03047 0.47587 0.0
O35 O 0.51985 0.92453 0.47961 0.0
O36 O 0.37953 0.95411 0.48802 0.0
O37 O 0.47248 0.89309 0.50178 0.0
O38 O 0.38765 0.90705 0.50495 0.0
C39 C 0.46878 0.99291 0.44603 0.0
C40 C 0.49395 0.98248 0.54267 0.0
C41 C 0.60425 0.06053 0.4871 0.0
C42 C 0.47902 0.08964 0.50173 0.0
C43 C 0.49931 0.89286 0.49044 0.0
C44 C 0.36323 0.91829 0.49676 0.0
O45 O 0.49477 0.98016 0.45162 0.0
O46 O 0.47327 0.49024 0.79447 0.0
Zn47 Zn 0.45943 0.47469 0.82029 0.0
O48 O 0.5078 0.51636 0.83532 0.0
Zn49 Zn 0.48659 0.5433 0.85228 0.0
Zn50 Zn 0.55313 0.5624 0.82075 0.0
Zn51 Zn 0.53286 0.48587 0.84789 0.0
O52 O 0.49581 0.53075 0.87732 0.0
O53 O 0.52252 0.4856 0.87408 0.0
O54 O 0.40266 0.47263 0.82623 0.0
O55 O 0.42191 0.51912 0.84889 0.0
O56 O 0.51426 0.60864 0.84852 0.0
O57 O 0.55444 0.61954 0.82436 0.0
O58 O 0.61306 0.57217 0.82628 0.0
O59 O 0.44988 0.41366 0.82307 0.0
O60 O 0.59837 0.51642 0.8442 0.0
O61 O 0.50593 0.42298 0.83978 0.0
C62 C 0.50808 0.51883 0.78656 0.0
C63 C 0.50895 0.50596 0.88389 0.0
C64 C 0.53884 0.63372 0.83622 0.0
C65 C 0.39305 0.4922 0.83812 0.0
C66 C 0.62578 0.55056 0.83561 0.0
C67 C 0.47189 0.39847 0.83056 0.0
O68 O 0.54163 0.54719 0.79511 0.0
C69 C 0.47645 0.05378 0.30444 0.0
C70 C 0.45683 0.01371 0.3138 0.0
C71 C 0.48293 0.05437 0.28618 0.0
C72 C 0.46951 0.01488 0.2769 0.0
C73 C 0.44845 0.97473 0.28612 0.0
C74 C 0.44233 0.97415 0.30438 0.0
C75 C 0.47963 0.01544 0.25786 0.0
C76 C 0.52213 0.04461 0.25148 0.0
C77 C 0.53302 0.04256 0.23379 0.0
C78 C 0.50102 0.0117 0.22234 0.0
C79 C 0.45812 0.98299 0.2284 0.0
C80 C 0.44767 0.98506 0.24621 0.0
C81 C 0.42471 0.94998 0.21628 0.0
C82 C 0.42141 0.96105 0.1987 0.0
C83 C 0.3962 0.90685 0.22219 0.0
C84 C 0.36493 0.87553 0.21085 0.0
C85 C 0.3617 0.88639 0.19324 0.0
C86 C 0.57792 0.07254 0.22718 0.0
C87 C 0.59718 0.11814 0.22968 0.0
C88 C 0.60109 0.05589 0.21784 0.0
C89 C 0.64282 0.08455 0.21091 0.0
C90 C 0.66181 0.1304 0.21299 0.0
C91 C 0.63855 0.14682 0.22254 0.0
C92 C 0.39019 0.92952 0.18728 0.0
H93 H 0.48733 0.08477 0.31126 0.0
H94 H 0.49879 0.08572 0.27932 0.0
H95 H 0.4383 0.94384 0.27932 0.0
H96 H 0.4278 0.94278 0.31118 0.0
H97 H 0.54728 0.06776 0.26042 0.0
H98 H 0.41456 0.96318 0.25104 0.0
H99 H 0.50972 0.00995 0.20871 0.0
H100 H 0.44268 0.99419 0.19381 0.0
H101 H 0.39826 0.8971 0.23557 0.0
H102 H 0.34284 0.84283 0.21598 0.0
H103 H 0.57962 0.13166 0.23669 0.0
H104 H 0.5869 0.02068 0.21593 0.0
H105 H 0.38853 0.93882 0.17378 0.0
H106 H 0.65168 0.18196 0.22408 0.0
H107 H 0.6601 0.07078 0.20387 0.0
C108 C 0.51397 0.54756 0.64301 0.0
C109 C 0.53445 0.53025 0.65367 0.0
C110 C 0.51954 0.54974 0.62468 0.0
C111 C 0.5452 0.53415 0.61662 0.0
C112 C 0.56598 0.51719 0.6272 0.0
C113 C 0.56095 0.51557 0.64555 0.0
C114 C 0.5485 0.53364 0.59715 0.0
C115 C 0.55911 0.57141 0.58725 0.0
C116 C 0.5594 0.57019 0.56866 0.0
C117 C 0.54955 0.53064 0.56011 0.0
C118 C 0.53908 0.49262 0.56988 0.0
C119 C 0.53876 0.4945 0.58842 0.0
C120 C 0.52697 0.45048 0.56081 0.0
C121 C 0.50034 0.43742 0.54559 0.0
C122 C 0.54127 0.42251 0.56757 0.0
C123 C 0.52868 0.38214 0.55949 0.0
C124 C 0.5019 0.36906 0.54439 0.0
C125 C 0.56702 0.60917 0.55818 0.0
C126 C 0.54945 0.63531 0.56399 0.0
C127 C 0.5896 0.61919 0.54188 0.0
C128 C 0.59313 0.65358 0.53139 0.0
C129 C 0.57487 0.67901 0.53718 0.0
C130 C 0.55358 0.66997 0.55366 0.0
C131 C 0.48816 0.39716 0.53738 0.0
H132 H 0.4928 0.55852 0.64877 0.0
H133 H 0.50272 0.56243 0.61675 0.0
H134 H 0.58621 0.50528 0.62126 0.0
H135 H 0.57798 0.50293 0.65336 0.0
H136 H 0.56712 0.60174 0.59409 0.0
H137 H 0.52915 0.46497 0.59612 0.0
H138 H 0.54917 0.52914 0.5458 0.0
H139 H 0.48819 0.45788 0.5402 0.0
H140 H 0.56247 0.43193 0.57906 0.0
H141 H 0.54035 0.36131 0.56494 0.0
H142 H 0.531 0.62806 0.57624 0.0
H143 H 0.60417 0.60019 0.53714 0.0
H144 H 0.46737 0.3876 0.52576 0.0
H145 H 0.53851 0.68866 0.55825 0.0
H146 H 0.60981 0.66014 0.51873 0.0
C147 C 0.05215 0.542 0.9678 0.0
C148 C 0.01137 0.52037 0.97659 0.0
C149 C 0.0538 0.54764 0.94949 0.0
C150 C 0.01474 0.53259 0.93983 0.0
C151 C 0.974 0.51127 0.94865 0.0
C152 C 0.9723 0.50479 0.9669 0.0
C153 C 0.01628 0.53885 0.92054 0.0
C154 C 0.03668 0.52193 0.90969 0.0
C155 C 0.03683 0.52644 0.89127 0.0
C156 C 0.01654 0.54821 0.88373 0.0
C157 C -0.00413 0.56536 0.89447 0.0
C158 C -0.00367 0.5608 0.91293 0.0
C159 C 0.97142 0.58537 0.88644 0.0
C160 C 0.98604 0.60994 0.87066 0.0
C161 C 0.93161 0.57779 0.89406 0.0
C162 C 0.9065 0.59323 0.88593 0.0
C163 C 0.92014 0.61604 0.86983 0.0
C164 C 0.05898 0.50898 0.87999 0.0
C165 C 0.09099 0.53658 0.86773 0.0
C166 C 0.05046 0.46568 0.88228 0.0
C167 C 0.07519 0.45092 0.87308 0.0
C168 C 0.10938 0.47949 0.86167 0.0
C169 C 0.11616 0.52211 0.85873 0.0
C170 C 0.96034 0.62475 0.86232 0.0
H171 H 0.08262 0.55415 0.9751 0.0
H172 H 0.08553 0.56425 0.94289 0.0
H173 H 0.94351 0.49924 0.94138 0.0
H174 H 0.94057 0.48821 0.9735 0.0
H175 H 0.05234 0.50514 0.91559 0.0
H176 H 0.98134 0.57445 0.92151 0.0
H177 H 0.01564 0.55032 0.86945 0.0
H178 H 0.01691 0.61707 0.86458 0.0
H179 H 0.91862 0.55816 0.90593 0.0
H180 H 0.87507 0.58513 0.89177 0.0
H181 H 0.09821 0.57019 0.86583 0.0
H182 H 0.02537 0.44362 0.8915 0.0
H183 H 0.97137 0.64219 0.84987 0.0
H184 H 0.14264 0.54532 0.85029 0.0
H185 H 0.06853 0.41765 0.87538 0.0
C186 C 0.94474 0.49514 0.34713 0.0
C187 C 0.9858 0.52258 0.33905 0.0
C188 C 0.94067 0.49314 0.36553 0.0
C189 C 0.97768 0.51801 0.37631 0.0
C190 C 0.01862 0.5458 0.36821 0.0
C191 C 0.02253 0.54835 0.34983 0.0
C192 C 0.97411 0.51396 0.3959 0.0
C193 C 0.94673 0.47295 0.40388 0.0
C194 C 0.94466 0.46844 0.42237 0.0
C195 C 0.97163 0.50528 0.43294 0.0
C196 C -0.00028 0.54646 0.42517 0.0
C197 C -0.00038 0.55068 0.4067 0.0
C198 C 0.03135 0.58454 0.43607 0.0
C199 C 0.01962 0.59321 0.45279 0.0
C200 C 0.07437 0.61215 0.42976 0.0
C201 C 0.10488 0.64756 0.43983 0.0
C202 C 0.09358 0.65597 0.45666 0.0
C203 C 0.91435 0.42502 0.43047 0.0
C204 C 0.87162 0.39895 0.42369 0.0
C205 C 0.92771 0.40914 0.44483 0.0
C206 C 0.89876 0.36804 0.45228 0.0
C207 C 0.85595 0.34216 0.44551 0.0
C208 C 0.84285 0.35797 0.43107 0.0
C209 C 0.05049 0.62865 0.46301 0.0
H210 H 0.9158 0.47442 0.33927 0.0
H211 H 0.9085 0.47187 0.37128 0.0
H212 H 0.04803 0.56499 0.37604 0.0
H213 H 0.05451 0.57043 0.34409 0.0
H214 H 0.92786 0.44403 0.3957 0.0
H215 H 0.01984 0.58276 0.4007 0.0
H216 H 0.97113 0.50174 0.44718 0.0
H217 H 0.9866 0.57275 0.45796 0.0
H218 H 0.08487 0.60609 0.41709 0.0
H219 H 0.13748 0.66847 0.43436 0.0
H220 H 0.86018 0.41041 0.41275 0.0
H221 H 0.96063 0.42827 0.4502 0.0
H222 H 0.04084 0.63427 0.47594 0.0
H223 H 0.8103 0.33854 0.42539 0.0
H224 H 0.90966 0.35679 0.46346 0.0
C225 C 0.46524 0.94486 0.68522 0.0
C226 C 0.48469 0.98442 0.67561 0.0
C227 C 0.45979 0.94527 0.70352 0.0
C228 C 0.47411 0.98532 0.71257 0.0
C229 C 0.49448 0.02495 0.70291 0.0
C230 C 0.49946 0.02446 0.68461 0.0
C231 C 0.46734 0.98578 0.73196 0.0
C232 C 0.47301 0.95716 0.74317 0.0
C233 C 0.46663 0.95744 0.76153 0.0
C234 C 0.45482 0.98708 0.76866 0.0
C235 C 0.45002 0.01651 0.75769 0.0
C236 C 0.45573 0.0153 0.73937 0.0
C237 C 0.44203 0.05059 0.76543 0.0
C238 C 0.40908 0.03975 0.77824 0.0
C239 C 0.46894 0.09478 0.76045 0.0
C240 C 0.4635 0.12771 0.76829 0.0
C241 C 0.43063 0.11717 0.78115 0.0
C242 C 0.47352 0.92757 0.77323 0.0
C243 C 0.45939 0.88408 0.76791 0.0
C244 C 0.49509 0.9425 0.78958 0.0
C245 C 0.50278 0.91463 0.80026 0.0
C246 C 0.48926 0.87136 0.79477 0.0
C247 C 0.4674 0.85642 0.77849 0.0
C248 C 0.40326 0.07276 0.78598 0.0
H249 H 0.45319 0.91352 0.67853 0.0
H250 H 0.44346 0.91412 0.7105 0.0
H251 H 0.50679 0.05646 0.70949 0.0
H252 H 0.51506 0.05545 0.67749 0.0
H253 H 0.48374 0.93555 0.73764 0.0
H254 H 0.45083 0.03737 0.73091 0.0
H255 H 0.4502 0.98793 0.78281 0.0
H256 H 0.3878 0.00578 0.78222 0.0
H257 H 0.49511 0.10406 0.75083 0.0
H258 H 0.48595 0.16163 0.76457 0.0
H259 H 0.44221 0.87138 0.7555 0.0
H260 H 0.50687 0.97602 0.79397 0.0
H261 H 0.37736 0.0635 0.79571 0.0
H262 H 0.45721 0.82354 0.77368 0.0
H263 H 0.51941 0.92703 0.81279 0.0
C264 C 0.52625 0.46374 0.02589 0.0
C265 C 0.49601 0.47065 0.01633 0.0
C266 C 0.52528 0.46313 0.04435 0.0
C267 C 0.49431 0.46983 0.05363 0.0
C268 C 0.4636 0.47602 0.04402 0.0
C269 C 0.46435 0.47626 0.02556 0.0
C270 C 0.49503 0.472 0.07326 0.0
C271 C 0.53525 0.49395 0.08229 0.0
C272 C 0.53663 0.49677 0.10085 0.0
C273 C 0.49681 0.47927 0.11034 0.0
C274 C 0.45607 0.45815 0.10148 0.0
C275 C 0.45567 0.45351 0.08298 0.0
C276 C 0.41404 0.44333 0.11125 0.0
C277 C 0.4078 0.42658 0.1286 0.0
C278 C 0.38029 0.44795 0.10341 0.0
C279 C 0.34166 0.43655 0.11263 0.0
C280 C 0.33596 0.42096 0.13005 0.0
C281 C 0.57983 0.51733 0.1101 0.0
C282 C 0.61379 0.51116 0.10341 0.0
C283 C 0.58758 0.54254 0.12564 0.0
C284 C 0.62828 0.56075 0.13428 0.0
C285 C 0.66204 0.5548 0.12731 0.0
C286 C 0.65444 0.52999 0.11181 0.0
C287 C 0.36924 0.41594 0.13799 0.0
H288 H 0.55064 0.45879 0.01907 0.0
H289 H 0.54888 0.4575 0.05135 0.0
H290 H 0.43976 0.48196 0.05074 0.0
H291 H 0.441 0.48216 0.0185 0.0
H292 H 0.56571 0.50968 0.07479 0.0
H293 H 0.42455 0.43553 0.07607 0.0
H294 H 0.49756 0.48241 0.12459 0.0
H295 H 0.43277 0.422 0.13499 0.0
H296 H 0.38417 0.46188 0.09032 0.0
H297 H 0.31691 0.44177 0.10636 0.0
H298 H 0.6088 0.49094 0.09182 0.0
H299 H 0.56238 0.5484 0.13107 0.0
H300 H 0.36552 0.40414 0.15147 0.0
H301 H 0.67965 0.52397 0.10645 0.0
H302 H 0.63347 0.57952 0.14634 0.0
C303 C 0.12732 0.42938 0.16933 0.0
C304 C 0.1309 0.46422 0.15897 0.0
C305 C 0.1591 0.41628 0.1682 0.0
C306 C 0.19506 0.43855 0.15642 0.0
C307 C 0.19964 0.47474 0.14644 0.0
C308 C 0.16754 0.48708 0.14784 0.0
C309 C 0.15331 0.37771 0.17908 0.0
C310 C 0.23774 0.49963 0.1338 0.0
C311 C 0.3024 0.43857 0.15557 0.0
C312 C 0.29692 0.4144 0.14006 0.0
C313 C 0.26759 0.44309 0.16235 0.0
C314 C 0.22672 0.42287 0.15335 0.0
C315 C 0.21973 0.39425 0.13892 0.0
C316 C 0.25508 0.39049 0.1324 0.0
C317 C 0.27611 0.47334 0.17792 0.0
C318 C 0.17645 0.37152 0.12912 0.0
H319 H 0.09915 0.41159 0.17801 0.0
H320 H 0.17087 0.51432 0.13992 0.0
H321 H 0.14352 0.34882 0.17032 0.0
H322 H 0.18478 0.38541 0.18549 0.0
H323 H 0.12761 0.36832 0.18946 0.0
H324 H 0.23749 0.52824 0.12765 0.0
H325 H 0.26951 0.51181 0.14081 0.0
H326 H 0.23634 0.47722 0.1231 0.0
H327 H 0.33482 0.45707 0.16149 0.0
H328 H 0.25085 0.37135 0.12052 0.0
H329 H 0.24713 0.45983 0.18688 0.0
H330 H 0.28217 0.50577 0.17307 0.0
H331 H 0.3054 0.47881 0.18559 0.0
H332 H 0.1483 0.35712 0.1385 0.0
H333 H 0.17393 0.34494 0.12029 0.0
H334 H 0.17345 0.39605 0.12089 0.0
C335 C 0.67663 0.12553 0.49554 0.0
C336 C 0.6501 0.09447 0.48276 0.0
C337 C 0.71607 0.16345 0.49076 0.0
C338 C 0.72887 0.17056 0.47277 0.0
C339 C 0.70442 0.13738 0.46009 0.0
C340 C 0.66536 0.09952 0.46527 0.0
C341 C 0.74183 0.19763 0.50473 0.0
C342 C 0.71705 0.1437 0.44076 0.0
C343 C 0.78038 0.28755 0.45594 0.0
C344 C 0.82447 0.29899 0.4535 0.0
C345 C 0.74925 0.24602 0.4624 0.0
C346 C 0.76261 0.21524 0.46675 0.0
C347 C 0.80733 0.22696 0.46489 0.0
C348 C 0.83782 0.26878 0.4582 0.0
C349 C 0.70183 0.23487 0.46426 0.0
C350 C 0.82273 0.19507 0.46958 0.0
H351 H 0.66545 0.12146 0.50916 0.0
H352 H 0.64526 0.07551 0.45532 0.0
H353 H 0.77777 0.21134 0.50291 0.0
H354 H 0.73525 0.22535 0.50354 0.0
H355 H 0.7325 0.18385 0.5183 0.0
H356 H 0.69885 0.11247 0.43315 0.0
H357 H 0.70944 0.1682 0.435 0.0
H358 H 0.75292 0.15678 0.43911 0.0
H359 H 0.77011 0.31114 0.4527 0.0
H360 H 0.87184 0.2774 0.45624 0.0
H361 H 0.69071 0.22588 0.47815 0.0
H362 H 0.68032 0.20591 0.45588 0.0
H363 H 0.69702 0.26269 0.46037 0.0
H364 H 0.81147 0.18173 0.48307 0.0
H365 H 0.85918 0.21069 0.46895 0.0
H366 H 0.80806 0.1667 0.46029 0.0
C367 C 0.55874 0.7002 0.818 0.0
C368 C 0.544 0.678 0.83417 0.0
C369 C 0.5546 0.73698 0.81421 0.0
C370 C 0.53612 0.75244 0.82706 0.0
C371 C 0.5254 0.73301 0.84405 0.0
C372 C 0.52906 0.69562 0.84737 0.0
C373 C 0.56628 0.75669 0.79588 0.0
C374 C 0.50709 0.74963 0.85828 0.0
C375 C 0.54042 0.85852 0.81368 0.0
C376 C 0.49921 0.84208 0.80551 0.0
C377 C 0.55199 0.82999 0.82195 0.0
C378 C 0.52199 0.78405 0.82166 0.0
C379 C 0.47949 0.76758 0.81433 0.0
C380 C 0.46847 0.79687 0.80654 0.0
C381 C 0.59713 0.84882 0.8301 0.0
C382 C 0.4465 0.71871 0.81373 0.0
H383 H 0.57069 0.68708 0.80776 0.0
H384 H 0.51828 0.67906 0.86002 0.0
H385 H 0.53567 0.74903 0.78872 0.0
H386 H 0.58707 0.79309 0.79662 0.0
H387 H 0.58409 0.74365 0.78802 0.0
H388 H 0.50913 0.73734 0.87157 0.0
H389 H 0.52496 0.78623 0.85856 0.0
H390 H 0.47195 0.73816 0.85546 0.0
H391 H 0.56445 0.89341 0.81294 0.0
H392 H 0.43612 0.78412 0.80071 0.0
H393 H 0.61872 0.84293 0.82111 0.0
H394 H 0.59527 0.83239 0.84285 0.0
H395 H 0.61279 0.88492 0.8324 0.0
H396 H 0.45954 0.7018 0.80532 0.0
H397 H 0.41416 0.71155 0.80831 0.0
H398 H 0.44115 0.70431 0.82716 0.0
C399 C 0.8888 0.58335 0.16393 0.0
C400 C 0.8845 0.54512 0.15597 0.0
C401 C 0.85516 0.59385 0.1625 0.0
C402 C 0.81663 0.56549 0.15285 0.0
C403 C 0.81168 0.5263 0.14523 0.0
C404 C 0.8456 0.51666 0.14689 0.0
C405 C 0.8615 0.63582 0.17083 0.0
C406 C 0.77094 0.49491 0.13489 0.0
C407 C 0.70494 0.55554 0.15355 0.0
C408 C 0.70436 0.57095 0.13655 0.0
C409 C 0.74358 0.55841 0.16021 0.0
C410 C 0.78201 0.57708 0.14954 0.0
C411 C 0.78285 0.59787 0.13341 0.0
C412 C 0.7438 0.59434 0.12705 0.0
C413 C 0.74165 0.53667 0.17764 0.0
C414 C 0.82334 0.61886 0.12177 0.0
H415 H 0.91872 0.60548 0.17102 0.0
H416 H 0.84171 0.48684 0.14084 0.0
H417 H 0.8688 0.66065 0.16034 0.0
H418 H 0.83102 0.62997 0.17769 0.0
H419 H 0.88916 0.64992 0.18043 0.0
H420 H 0.77169 0.46511 0.13036 0.0
H421 H 0.74103 0.48415 0.14313 0.0
H422 H 0.76779 0.51189 0.1231 0.0
H423 H 0.67436 0.53755 0.1609 0.0
H424 H 0.74326 0.60673 0.11398 0.0
H425 H 0.77281 0.55594 0.18511 0.0
H426 H 0.73708 0.50342 0.17512 0.0
H427 H 0.71375 0.53279 0.18596 0.0
H428 H 0.85351 0.63858 0.12976 0.0
H429 H 0.82133 0.64051 0.11156 0.0
H430 H 0.82668 0.59261 0.11495 0.0
C431 C 0.29239 0.88518 0.48032 0.0
C432 C 0.31563 0.8863 0.49552 0.0
C433 C 0.25058 0.84897 0.47685 0.0
C434 C 0.23134 0.81373 0.48911 0.0
C435 C 0.25244 0.81727 0.50544 0.0
C436 C 0.29478 0.85329 0.50835 0.0
C437 C 0.22927 0.84638 0.45923 0.0
C438 C 0.23203 0.7813 0.51917 0.0
C439 C 0.11694 0.72174 0.47651 0.0
C440 C 0.12727 0.69329 0.46728 0.0
C441 C 0.15016 0.76007 0.48472 0.0
C442 C 0.19457 0.77039 0.48326 0.0
C443 C 0.20474 0.74054 0.47477 0.0
C444 C 0.1709 0.70211 0.46714 0.0
C445 C 0.13789 0.79034 0.49419 0.0
C446 C 0.2517 0.7502 0.47289 0.0
H447 H 0.30831 0.91076 0.47041 0.0
H448 H 0.31237 0.85453 0.5203 0.0
H449 H 0.23113 0.82141 0.45078 0.0
H450 H 0.19395 0.83577 0.46099 0.0
H451 H 0.2457 0.87847 0.45215 0.0
H452 H 0.24729 0.79319 0.53237 0.0
H453 H 0.19603 0.76834 0.52025 0.0
H454 H 0.23684 0.7535 0.5152 0.0
H455 H 0.08325 0.71508 0.47672 0.0
H456 H 0.17887 0.6795 0.46053 0.0
H457 H 0.14453 0.81832 0.48542 0.0
H458 H 0.15783 0.80422 0.50635 0.0
H459 H 0.10238 0.773 0.49782 0.0
H460 H 0.27133 0.78108 0.46524 0.0
H461 H 0.2538 0.72321 0.46606 0.0
H462 H 0.26719 0.75526 0.48609 0.0
C463 C 0.41625 0.32098 0.82259 0.0
C464 C 0.45963 0.35227 0.82721 0.0
C465 C 0.40545 0.27843 0.81719 0.0
C466 C 0.43913 0.26759 0.81591 0.0
C467 C 0.48252 0.29838 0.82139 0.0
C468 C 0.49213 0.34025 0.82719 0.0
C469 C 0.35853 0.2459 0.81203 0.0
C470 C 0.5195 0.28825 0.81995 0.0
C471 C 0.41921 0.15213 0.80816 0.0
C472 C 0.42658 0.15297 0.78987 0.0
C473 C 0.42062 0.18834 0.81678 0.0
C474 C 0.43058 0.22645 0.80689 0.0
C475 C 0.436 0.22667 0.78833 0.0
C476 C 0.43331 0.1897 0.78003 0.0
C477 C 0.41345 0.18655 0.83652 0.0
C478 C 0.44691 0.26682 0.77733 0.0
H479 H 0.39093 0.33008 0.82284 0.0
H480 H 0.52571 0.36442 0.83073 0.0
H481 H 0.35624 0.24224 0.79743 0.0
H482 H 0.34802 0.21291 0.81771 0.0
H483 H 0.33524 0.25673 0.81649 0.0
H484 H 0.55062 0.31457 0.8259 0.0
H485 H 0.51022 0.25658 0.82658 0.0
H486 H 0.52573 0.28465 0.80581 0.0
H487 H 0.41415 0.12399 0.8159 0.0
H488 H 0.43777 0.19007 0.76583 0.0
H489 H 0.39117 0.19933 0.84003 0.0
H490 H 0.44537 0.2078 0.84323 0.0
H491 H 0.39921 0.15249 0.84176 0.0
H492 H 0.42175 0.2767 0.77938 0.0
H493 H 0.44876 0.26106 0.76297 0.0
H494 H 0.47912 0.29494 0.78155 0.0
C495 C 0.48306 0.81903 0.501 0.0
C496 C 0.51022 0.85735 0.49134 0.0
C497 C 0.49677 0.78884 0.50498 0.0
C498 C 0.53876 0.79736 0.4992 0.0
C499 C 0.56476 0.83403 0.4882 0.0
C500 C 0.5501 0.86367 0.48434 0.0
C501 C 0.46769 0.74964 0.51652 0.0
C502 C 0.60948 0.84387 0.48164 0.0
C503 C 0.5867 0.75443 0.53283 0.0
C504 C 0.57485 0.71303 0.52575 0.0
C505 C 0.57833 0.7839 0.52356 0.0
C506 C 0.55734 0.77136 0.50687 0.0
C507 C 0.54869 0.73111 0.49902 0.0
C508 C 0.55763 0.70228 0.50859 0.0
C509 C 0.5887 0.82687 0.53229 0.0
C510 C 0.52673 0.71684 0.48119 0.0
H511 H 0.45186 0.81359 0.50619 0.0
H512 H 0.57118 0.89314 0.47677 0.0
H513 H 0.46446 0.719 0.51078 0.0
H514 H 0.48294 0.7543 0.52977 0.0
H515 H 0.43421 0.74512 0.51824 0.0
H516 H 0.62146 0.868 0.4706 0.0
H517 H 0.63357 0.85794 0.49263 0.0
H518 H 0.60864 0.8133 0.47716 0.0
H519 H 0.60057 0.76285 0.54603 0.0
H520 H 0.54839 0.67014 0.50314 0.0
H521 H 0.55752 0.82545 0.53627 0.0
H522 H 0.60596 0.85471 0.52291 0.0
H523 H 0.60951 0.83388 0.54425 0.0
H524 H 0.49104 0.70509 0.48265 0.0
H525 H 0.53038 0.68962 0.47546 0.0
H526 H 0.54057 0.74487 0.47177 0.0
C527 C 0.70482 0.6063 0.8293 0.0
C528 C 0.67342 0.56627 0.83707 0.0
C529 C 0.75011 0.62271 0.83162 0.0
C530 C 0.7641 0.59853 0.84198 0.0
C531 C 0.73261 0.55749 0.84936 0.0
C532 C 0.68771 0.54189 0.84681 0.0
C533 C 0.7828 0.66646 0.82351 0.0
C534 C 0.74626 0.5305 0.86042 0.0
C535 C 0.87534 0.60745 0.84316 0.0
C536 C 0.88913 0.62508 0.86013 0.0
C537 C 0.83649 0.60292 0.836 0.0
C538 C 0.81132 0.61645 0.84612 0.0
C539 C 0.82821 0.63935 0.86224 0.0
C540 C 0.86702 0.64329 0.8691 0.0
C541 C 0.8199 0.57902 0.81861 0.0
C542 C 0.80277 0.65501 0.87328 0.0
H543 H 0.69406 0.62533 0.8217 0.0
H544 H 0.66376 0.51082 0.85275 0.0
H545 H 0.79788 0.69172 0.83408 0.0
H546 H 0.80986 0.66429 0.81684 0.0
H547 H 0.76704 0.67788 0.81378 0.0
H548 H 0.71767 0.49854 0.86464 0.0
H549 H 0.76933 0.52367 0.85284 0.0
H550 H 0.76385 0.54933 0.87242 0.0
H551 H 0.8925 0.59338 0.83621 0.0
H552 H 0.87819 0.6575 0.88214 0.0
H553 H 0.80433 0.59396 0.81062 0.0
H554 H 0.79449 0.54418 0.82122 0.0
H555 H 0.84685 0.57926 0.81076 0.0
H556 H 0.78878 0.67082 0.86487 0.0
H557 H 0.82371 0.67883 0.88364 0.0
H558 H 0.77486 0.62627 0.87988 0.0
C559 C 0.13472 0.69527 0.16931 0.0
C560 C 0.13013 0.66842 0.15476 0.0
C561 C 0.17361 0.73544 0.17192 0.0
C562 C 0.20831 0.74949 0.15947 0.0
C563 C 0.20213 0.7248 0.14383 0.0
C564 C 0.16319 0.68412 0.14175 0.0
C565 C 0.17894 0.76074 0.18884 0.0
C566 C 0.23771 0.73971 0.12992 0.0
C567 C 0.30175 0.86337 0.1707 0.0
C568 C 0.32748 0.85275 0.18154 0.0
C569 C 0.26464 0.83017 0.16193 0.0
C570 C 0.25274 0.78557 0.16444 0.0
C571 C 0.28061 0.77509 0.1742 0.0
C572 C 0.31795 0.80892 0.18244 0.0
C573 C 0.23661 0.84266 0.15105 0.0
C574 C 0.26915 0.72789 0.17718 0.0
H575 H 0.10916 0.68357 0.17934 0.0
H576 H 0.15947 0.66387 0.13029 0.0
H577 H 0.20393 0.75932 0.19734 0.0
H578 H 0.1909 0.79595 0.18593 0.0
H579 H 0.14763 0.74723 0.19642 0.0
H580 H 0.22417 0.72333 0.117 0.0
H581 H 0.25463 0.77599 0.12808 0.0
H582 H 0.26278 0.73125 0.13417 0.0
H583 H 0.30907 0.89724 0.16985 0.0
H584 H 0.33862 0.80078 0.19033 0.0
H585 H 0.20797 0.83788 0.15904 0.0
H586 H 0.22368 0.82147 0.13912 0.0
H587 H 0.25541 0.87775 0.14686 0.0
H588 H 0.23872 0.71064 0.18531 0.0
H589 H 0.29586 0.72563 0.18407 0.0
H590 H 0.26249 0.71008 0.1644 0.0
C591 C 0.44081 0.13382 0.50212 0.0
C592 C 0.47863 0.13087 0.50526 0.0
C593 C 0.43969 0.17212 0.50666 0.0
C594 C 0.47738 0.20814 0.51432 0.0
C595 C 0.51617 0.20594 0.51681 0.0
C596 C 0.51624 0.16728 0.51233 0.0
C597 C 0.39778 0.17342 0.50388 0.0
C598 C 0.55725 0.24392 0.52476 0.0
C599 C 0.49668 0.32416 0.51786 0.0
C600 C 0.48917 0.32633 0.53594 0.0
C601 C 0.49034 0.28484 0.51025 0.0
C602 C 0.47588 0.24708 0.52104 0.0
C603 C 0.46542 0.24845 0.53904 0.0
C604 C 0.47242 0.28821 0.5463 0.0
C605 C 0.50197 0.2846 0.49103 0.0
C606 C 0.44947 0.20871 0.55092 0.0
H607 H 0.41168 0.10577 0.49663 0.0
H608 H 0.5458 0.16546 0.51454 0.0
H609 H 0.38333 0.17391 0.5169 0.0
H610 H 0.40488 0.20397 0.49681 0.0
H611 H 0.37289 0.14448 0.49626 0.0
H612 H 0.58551 0.23798 0.52469 0.0
H613 H 0.5669 0.27476 0.51738 0.0
H614 H 0.5506 0.24929 0.53864 0.0
H615 H 0.50973 0.35376 0.50987 0.0
H616 H 0.46599 0.28987 0.56024 0.0
H617 H 0.47601 0.25474 0.48425 0.0
H618 H 0.5331 0.28374 0.49008 0.0
H619 H 0.50651 0.31429 0.48391 0.0
H620 H 0.42216 0.17908 0.54454 0.0
H621 H 0.43791 0.21373 0.56395 0.0
H622 H 0.47672 0.2019 0.5532 0.0
C623 C 0.33984 0.5148 0.84832 0.0
C624 C 0.3477 0.4844 0.83934 0.0
C625 C 0.29722 0.5082 0.84982 0.0
C626 C 0.26143 0.46989 0.84237 0.0
C627 C 0.26904 0.43916 0.83315 0.0
C628 C 0.31228 0.44694 0.83163 0.0
C629 C 0.2905 0.54208 0.85959 0.0
C630 C 0.23151 0.39772 0.82526 0.0
C631 C 0.15676 0.44569 0.86565 0.0
C632 C 0.14156 0.46744 0.85468 0.0
C633 C 0.19359 0.44238 0.86092 0.0
C634 C 0.21614 0.46191 0.845 0.0
C635 C 0.19876 0.4804 0.83314 0.0
C636 C 0.16138 0.48265 0.83807 0.0
C637 C 0.21074 0.42171 0.8738 0.0
C638 C 0.22184 0.50145 0.81599 0.0
H639 H 0.36714 0.54406 0.85413 0.0
H640 H 0.31823 0.42329 0.82471 0.0
H641 H 0.27304 0.55397 0.85101 0.0
H642 H 0.26963 0.52684 0.87145 0.0
H643 H 0.32211 0.57096 0.86391 0.0
H644 H 0.24325 0.37845 0.81763 0.0
H645 H 0.20931 0.37654 0.83596 0.0
H646 H 0.21161 0.40605 0.81641 0.0
H647 H 0.14198 0.43402 0.87856 0.0
H648 H 0.14913 0.49849 0.82932 0.0
H649 H 0.24 0.4481 0.88073 0.0
H650 H 0.22124 0.40069 0.86676 0.0
H651 H 0.18562 0.40138 0.88389 0.0
H652 H 0.25181 0.53357 0.81888 0.0
H653 H 0.20045 0.50747 0.80699 0.0
H654 H 0.23258 0.48052 0.80905 0.0
C655 C 0.89589 0.31133 0.17291 0.0
C656 C 0.88753 0.34208 0.1646 0.0
C657 C 0.86114 0.27107 0.17904 0.0
C658 C 0.81732 0.2622 0.17723 0.0
C659 C 0.80864 0.29182 0.1678 0.0
C660 C 0.84392 0.33124 0.16139 0.0
C661 C 0.87149 0.23947 0.18846 0.0
C662 C 0.76233 0.28375 0.16577 0.0
C663 C 0.71501 0.1532 0.18758 0.0
C664 C 0.70475 0.16137 0.20464 0.0
C665 C 0.75326 0.18466 0.17883 0.0
C666 C 0.78113 0.22551 0.18718 0.0
C667 C 0.77208 0.2331 0.20469 0.0
C668 C 0.73432 0.20067 0.21329 0.0
C669 C 0.76265 0.17498 0.16036 0.0
C670 C 0.80097 0.27642 0.21403 0.0
H671 H 0.92963 0.3194 0.17518 0.0
H672 H 0.83732 0.35493 0.15498 0.0
H673 H 0.86768 0.24173 0.20293 0.0
H674 H 0.84829 0.20495 0.1844 0.0
H675 H 0.90575 0.24699 0.1858 0.0
H676 H 0.76093 0.30811 0.15683 0.0
H677 H 0.74017 0.25017 0.1605 0.0
H678 H 0.74935 0.28588 0.17892 0.0
H679 H 0.6923 0.12304 0.18074 0.0
H680 H 0.7273 0.20667 0.22665 0.0
H681 H 0.79805 0.18549 0.15883 0.0
H682 H 0.75501 0.19385 0.15066 0.0
H683 H 0.74256 0.13936 0.15704 0.0
H684 H 0.83561 0.2838 0.21427 0.0
H685 H 0.7901 0.2764 0.22785 0.0
H686 H 0.80041 0.30355 0.20673 0.0
C687 C 0.03692 0.49533 0.07986 0.0
C688 C 0.00232 0.49457 0.08947 0.0
C689 C 0.03742 0.49664 0.06133 0.0
C690 C 0.00312 0.49845 0.0523 0.0
C691 C 0.96779 0.4971 0.06193 0.0
C692 C 0.96753 0.49459 0.08044 0.0
C693 C 0.07505 0.4969 0.05146 0.0
C694 C 0.93114 0.49993 0.05275 0.0
C695 C 0.03082 0.55148 0.00697 0.0
C696 C 0.00956 0.51458 0.99591 0.0
C697 C 0.02853 0.54668 0.02539 0.0
C698 C 0.00529 0.50386 0.03282 0.0
C699 C 0.98426 0.46643 0.02165 0.0
C700 C 0.9862 0.47231 0.00327 0.0
C701 C 0.05056 0.5874 0.0369 0.0
C702 C 0.96007 0.42027 0.02911 0.0
H703 H 0.06365 0.49493 0.08684 0.0
H704 H 0.94092 0.49434 0.08787 0.0
H705 H 0.06209 0.47063 0.04122 0.0
H706 H 0.09479 0.52887 0.04454 0.0
H707 H 0.09722 0.49187 0.06038 0.0
H708 H 0.90549 0.49725 0.06214 0.0
H709 H 0.94495 0.53184 0.04565 0.0
H710 H 0.91526 0.47336 0.04272 0.0
H711 H 0.04855 0.58413 0.00116 0.0
H712 H 0.97 0.44387 0.9946 0.0
H713 H 0.07621 0.5867 0.04519 0.0
H714 H 0.02601 0.58808 0.046 0.0
H715 H 0.06621 0.6183 0.02902 0.0
H716 H 0.98268 0.41454 0.03744 0.0
H717 H 0.94638 0.39468 0.01859 0.0
H718 H 0.93262 0.41618 0.03774 0.0
C719 C 0.4784 0.97489 0.41492 0.0
C720 C 0.46292 -0.00505 0.42676 0.0
C721 C 0.47449 0.97782 0.39661 0.0
C722 C 0.45504 0.00177 0.38997 0.0
C723 C 0.4388 0.0216 0.40182 0.0
C724 C 0.44272 0.01776 0.42009 0.0
C725 C 0.49177 0.95581 0.38435 0.0
C726 C 0.41822 0.04772 0.39518 0.0
C727 C 0.48973 0.04485 0.34337 0.0
C728 C 0.45415 0.01318 0.33341 0.0
C729 C 0.48963 0.04247 0.36187 0.0
C730 C 0.4533 0.00728 0.3706 0.0
C731 C 0.41665 0.976 0.3607 0.0
C732 C 0.41741 0.97946 0.34221 0.0
C733 C 0.52918 0.07667 0.37201 0.0
C734 C 0.37736 0.93799 0.36958 0.0
H735 H 0.49375 0.95693 0.41996 0.0
H736 H 0.43077 0.03346 0.42915 0.0
H737 H 0.46536 0.93307 0.37521 0.0
H738 H 0.51897 0.98106 0.37613 0.0
H739 H 0.50423 0.93684 0.39164 0.0
H740 H 0.40566 0.05965 0.40613 0.0
H741 H 0.44294 0.07664 0.38753 0.0
H742 H 0.39057 0.02725 0.3861 0.0
H743 H 0.51851 0.07065 0.3367 0.0
H744 H 0.38948 0.9553 0.33462 0.0
H745 H 0.54634 0.06091 0.37829 0.0
H746 H 0.51859 0.09095 0.38276 0.0
H747 H 0.55306 0.10388 0.36339 0.0
H748 H 0.38762 0.91611 0.37596 0.0
H749 H 0.35041 0.91807 0.3601 0.0
H750 H 0.3643 0.95034 0.38015 0.0
C751 C 0.55102 0.54006 0.75842 0.0
C752 C 0.51005 0.51909 0.76704 0.0
C753 C 0.5538 0.54078 0.73993 0.0
C754 C 0.51463 0.52069 0.72982 0.0
C755 C 0.47312 0.4996 0.73842 0.0
C756 C 0.47132 0.4987 0.75697 0.0
C757 C 0.59867 0.56293 0.73122 0.0
C758 C 0.43069 0.47843 0.72802 0.0
C759 C 0.52619 0.56083 0.68256 0.0
C760 C 0.52794 0.52716 0.67316 0.0
C761 C 0.52054 0.5585 0.70097 0.0
C762 C 0.51736 0.52201 0.71023 0.0
C763 C 0.51877 0.48776 0.70086 0.0
C764 C 0.52365 0.49055 0.68242 0.0
C765 C 0.51872 0.59545 0.71053 0.0
C766 C 0.51593 0.44854 0.71034 0.0
H767 H 0.58109 0.55555 0.76613 0.0
H768 H 0.43957 0.48265 0.76358 0.0
H769 H 0.6018 0.53912 0.7225 0.0
H770 H 0.60264 0.5905 0.72276 0.0
H771 H 0.62591 0.57615 0.74101 0.0
H772 H 0.40113 0.46359 0.73672 0.0
H773 H 0.42948 0.50338 0.71942 0.0
H774 H 0.42922 0.45231 0.71924 0.0
H775 H 0.53004 0.58951 0.67558 0.0
H776 H 0.52403 0.46393 0.67526 0.0
H777 H 0.54754 0.6127 0.71945 0.0
H778 H 0.48867 0.58193 0.7189 0.0
H779 H 0.51872 0.61999 0.70128 0.0
H780 H 0.54378 0.45984 0.71974 0.0
H781 H 0.51683 0.42436 0.70107 0.0
H782 H 0.48506 0.43153 0.71819 0.0
C783 C 0.53142 0.0135 0.57157 0.0
C784 C 0.49541 0.98064 0.56218 0.0
C785 C 0.53198 0.01347 0.59012 0.0
C786 C 0.4954 0.98014 0.59945 0.0
C787 C 0.45937 0.94638 0.59005 0.0
C788 C 0.45994 0.94686 0.57152 0.0
C789 C 0.57125 0.04965 0.59973 0.0
C790 C 0.41957 0.91055 0.59957 0.0
C791 C 0.5059 0.96004 0.64801 0.0
C792 C 0.48837 0.98386 0.65614 0.0
C793 C 0.50907 0.95905 0.62953 0.0
C794 C 0.49369 0.98187 0.61902 0.0
C795 C 0.4759 0.00592 0.62719 0.0
C796 C 0.47372 0.00684 0.64568 0.0
C797 C 0.52879 0.9336 0.62125 0.0
C798 C 0.45861 0.03017 0.61641 0.0
H799 H 0.55911 0.0395 0.56444 0.0
H800 H 0.43193 0.92141 0.56435 0.0
H801 H 0.56109 0.07032 0.60726 0.0
H802 H 0.58411 0.03522 0.60942 0.0
H803 H 0.59832 0.07127 0.59054 0.0
H804 H 0.39507 0.88573 0.59032 0.0
H805 H 0.42977 0.89339 0.60909 0.0
H806 H 0.4033 0.92542 0.60728 0.0
H807 H 0.51755 0.94257 0.65614 0.0
H808 H 0.4597 0.02485 0.65198 0.0
H809 H 0.55708 0.95572 0.61268 0.0
H810 H 0.50405 0.90693 0.6127 0.0
H811 H 0.54031 0.91865 0.63131 0.0
H812 H 0.48514 0.05495 0.60781 0.0
H813 H 0.44579 0.04728 0.62483 0.0
H814 H 0.43171 0.00665 0.60762 0.0
C815 C 0.50014 0.52761 0.91453 0.0
C816 C 0.50791 0.50027 0.90331 0.0
C817 C 0.49866 0.52235 0.93294 0.0
C818 C 0.50467 0.48867 0.94028 0.0
C819 C 0.51248 0.46092 0.92906 0.0
C820 C 0.51423 0.46719 0.9107 0.0
C821 C 0.49068 0.55284 0.94453 0.0
C822 C 0.51868 0.42443 0.93645 0.0
C823 C 0.53897 0.50024 0.98839 0.0
C824 C 0.49842 0.4736 -0.0032 0.0
C825 C 0.54156 0.50513 0.96995 0.0
C826 C 0.50269 0.48251 0.95974 0.0
C827 C 0.46177 0.45487 0.96815 0.0
C828 C 0.46009 0.45093 0.98662 0.0
C829 C 0.58571 0.53521 0.96145 0.0
C830 C 0.41972 0.42985 0.95764 0.0
H831 H 0.49542 0.55337 0.90894 0.0
H832 H 0.52006 0.44579 0.90213 0.0
H833 H 0.46021 0.53345 0.95244 0.0
H834 H 0.5183 0.57027 0.95398 0.0
H835 H 0.48732 0.5778 0.93674 0.0
H836 H 0.52429 0.40561 0.92592 0.0
H837 H 0.5472 0.43839 0.9456 0.0
H838 H 0.48917 0.40121 0.94422 0.0
H839 H 0.56856 0.51818 -0.00372 0.0
H840 H 0.42878 0.43 0.99313 0.0
H841 H 0.58469 0.56252 0.95451 0.0
H842 H 0.59324 0.51683 0.95139 0.0
H843 H 0.61294 0.54962 0.97125 0.0
H844 H 0.41286 0.45337 0.95053 0.0
H845 H 0.39089 0.40851 0.96615 0.0
H846 H 0.42339 0.40892 0.94752 0.0
C847 C 0.02222 0.55675 0.23426 0.0
C848 C 0.00804 0.5161 0.22585 0.0
C849 C 0.02001 0.55941 0.2527 0.0
C850 C 0.00234 0.52037 0.2629 0.0
C851 C 0.98791 0.47924 0.25448 0.0
C852 C -0.00864 0.47766 0.23605 0.0
C853 C 0.03656 0.60395 0.26128 0.0
C854 C 0.96819 0.43684 0.26492 0.0
C855 C 0.02839 0.52636 0.31175 0.0
C856 C 0.99056 0.52342 0.31948 0.0
C857 C 0.03309 0.5264 0.29334 0.0
C858 C -0.0013 0.52242 0.28238 0.0
C859 C 0.96045 0.51947 0.29003 0.0
C860 C 0.95703 0.52045 0.30849 0.0
C861 C 0.07464 0.53022 0.28562 0.0
C862 C 0.92289 0.51471 0.27873 0.0
H863 H 0.03541 0.58658 0.22641 0.0
H864 H 0.98001 0.44613 0.22959 0.0
H865 H 0.00927 0.60458 0.26847 0.0
H866 H 0.06235 0.61005 0.27116 0.0
H867 H 0.05052 0.63126 0.2515 0.0
H868 H 0.95815 0.40754 0.25633 0.0
H869 H -0.00769 0.43843 0.27476 0.0
H870 H 0.93885 0.43226 0.27236 0.0
H871 H 0.05416 0.52785 0.32009 0.0
H872 H 0.92803 0.51896 0.3143 0.0
H873 H 0.08987 0.55805 0.27612 0.0
H874 H 0.06656 0.49976 0.27819 0.0
H875 H 0.09927 0.53552 0.29595 0.0
H876 H 0.93474 0.54323 0.26963 0.0
H877 H 0.89528 0.51251 0.28676 0.0
H878 H 0.91011 0.4846 0.27042 0.0
loop_
_geom_bond_atom_site_label_1
_geom_bond_atom_site_label_2
_geom_bond_distance
_geom_bond_site_symmetry_2
_ccdc_geom_bond_type
O0 Zn1 1.953 1_655 S
O0 C16 1.225 1_655 S
Zn1 O0 1.953 1_455 S
Zn1 O2 1.949 . S
Zn1 O8 1.919 1_455 S
Zn1 O13 1.924 . S
O2 Zn1 1.949 . S
O2 Zn3 1.923 1_455 S
O2 Zn4 1.950 . S
O2 Zn5 1.945 . S
Zn3 O2 1.923 1_655 S
Zn3 O6 1.933 . S
Zn3 O9 1.941 . S
Zn3 O10 1.965 . S
Zn4 O2 1.950 . S
Zn4 O11 1.938 1_455 S
Zn4 O12 1.906 . S
Zn4 O22 1.953 . S
Zn5 O2 1.945 . S
Zn5 O7 1.932 . S
Zn5 O14 1.977 . S
Zn5 O15 1.910 . S
O6 Zn3 1.933 . S
O6 C17 1.226 1_655 S
O7 Zn5 1.932 . S
O7 C17 1.307 . S
O8 Zn1 1.919 1_655 S
O8 C19 1.253 . S
O9 Zn3 1.941 . S
O9 C19 1.283 . S
O10 Zn3 1.965 . S
O10 C18 1.303 . S
O11 Zn4 1.938 1_655 S
O11 C18 1.247 . S
O12 Zn4 1.906 . S
O12 C20 1.304 . S
O13 Zn1 1.924 . S
O13 C21 1.311 . S
O14 Zn5 1.977 . S
O14 C20 1.272 . S
O15 Zn5 1.910 . S
O15 C21 1.231 . S
C16 O0 1.225 1_455 S
C16 O22 1.298 . S
C17 O6 1.226 1_455 S
C17 O7 1.307 . S
C18 O10 1.303 . S
C18 O11 1.247 . S
C19 O8 1.253 . S
C19 O9 1.283 . S
C20 O12 1.304 . S
C20 O14 1.272 . S
C21 O13 1.311 . S
C21 O15 1.231 . S
O22 Zn4 1.953 . S
O22 C16 1.298 . S
O23 Zn24 1.953 . S
O23 C39 1.225 . S
Zn24 O23 1.953 . S
Zn24 O25 1.949 . S
Zn24 O31 1.919 . S
Zn24 O36 1.924 1_545 S
O25 Zn24 1.949 . S
O25 Zn26 1.923 . S
O25 Zn27 1.960 . S
O25 Zn28 1.945 1_545 S
Zn26 O25 1.923 . S
Zn26 O29 1.933 . S
Zn26 O32 1.941 . S
Zn26 O33 1.965 . S
Zn27 O25 1.960 . S
Zn27 O34 1.947 . S
Zn27 O35 1.889 1_545 S
Zn27 O45 1.959 1_545 S
Zn28 O25 1.945 1_565 S
Zn28 O30 1.932 . S
Zn28 O37 1.977 . S
Zn28 O38 1.910 . S
O29 Zn26 1.933 . S
O29 C40 1.226 . S
O30 Zn28 1.932 . S
O30 C40 1.307 1_565 S
O31 Zn24 1.919 . S
O31 C42 1.253 . S
O32 Zn26 1.941 . S
O32 C42 1.283 . S
O33 Zn26 1.965 . S
O33 C41 1.303 . S
O34 Zn27 1.947 . S
O34 C41 1.247 . S
O35 Zn27 1.889 1_565 S
O35 C43 1.304 . S
O36 Zn24 1.924 1_565 S
O36 C44 1.311 . S
O37 Zn28 1.977 . S
O37 C43 1.272 . S
O38 Zn28 1.910 . S
O38 C44 1.231 . S
C39 O23 1.225 . S
C39 O45 1.279 1_545 S
C40 O29 1.226 . S
C40 O30 1.307 1_545 S
C41 O33 1.303 . S
C41 O34 1.247 . S
C42 O31 1.253 . S
C42 O32 1.283 . S
C43 O35 1.304 . S
C43 O37 1.272 . S
C44 O36 1.311 . S
C44 O38 1.231 . S
O45 Zn27 1.959 1_565 S
O45 C39 1.279 1_565 S
O46 Zn47 1.953 . S
O46 C62 1.225 . S
Zn47 O46 1.953 . S
Zn47 O48 1.949 . S
Zn47 O54 1.919 . S
Zn47 O59 1.924 . S
O48 Zn47 1.949 . S
O48 Zn49 1.923 . S
O48 Zn50 1.950 . S
O48 Zn51 1.945 . S
Zn49 O48 1.923 . S
Zn49 O52 1.933 . S
Zn49 O55 1.941 . S
Zn49 O56 1.965 . S
Zn50 O48 1.950 . S
Zn50 O57 1.938 . S
Zn50 O58 1.906 . S
Zn50 O68 1.953 . S
Zn51 O48 1.945 . S
Zn51 O53 1.932 . S
Zn51 O60 1.977 . S
Zn51 O61 1.910 . S
O52 Zn49 1.933 . S
O52 C63 1.226 . S
O53 Zn51 1.932 . S
O53 C63 1.307 . S
O54 Zn47 1.919 . S
O54 C65 1.253 . S
O55 Zn49 1.941 . S
O55 C65 1.283 . S
O56 Zn49 1.965 . S
O56 C64 1.303 . S
O57 Zn50 1.938 . S
O57 C64 1.247 . S
O58 Zn50 1.906 . S
O58 C66 1.304 . S
O59 Zn47 1.924 . S
O59 C67 1.311 . S
O60 Zn51 1.977 . S
O60 C66 1.272 . S
O61 Zn51 1.910 . S
O61 C67 1.231 . S
C62 O46 1.225 . S
C62 O68 1.298 . S
C63 O52 1.226 . S
C63 O53 1.307 . S
C64 O56 1.303 . S
C64 O57 1.247 . S
C65 O54 1.253 . S
C65 O55 1.283 . S
C66 O58 1.304 . S
C66 O60 1.272 . S
C67 O59 1.311 . S
C67 O61 1.231 . S
O68 Zn50 1.953 . S
O68 C62 1.298 . S
C69 C70 1.386 . S
C69 C71 1.397 . S
C69 H93 0.931 . S
C70 C69 1.386 . S
C70 C74 1.397 1_545 S
C71 C69 1.397 . S
C71 C72 1.384 . S
C71 H94 0.930 . S
C72 C71 1.384 . S
C72 C73 1.377 1_545 S
C72 C75 1.481 . S
C73 C72 1.377 1_565 S
C73 C74 1.389 . S
C73 H95 0.929 . S
C74 C70 1.397 1_565 S
C74 C73 1.389 . S
C74 H96 0.931 . S
C75 C72 1.481 . S
C75 C76 1.387 . S
C75 C80 1.390 1_545 S
C76 C75 1.387 . S
C76 C77 1.401 . S
C76 H97 0.930 . S
C77 C76 1.401 . S
C77 C78 1.376 . S
C77 C86 1.511 . S
C78 C77 1.376 . S
C78 C79 1.392 1_545 S
C78 H99 0.931 . S
C79 C78 1.392 1_565 S
C79 C80 1.361 . S
C79 C81 1.500 . S
C80 C75 1.390 1_565 S
C80 C79 1.361 . S
C80 H98 0.931 . S
C81 C79 1.500 . S
C81 C82 1.371 . S
C81 C83 1.365 . S
C82 C81 1.371 . S
C82 C92 1.386 . S
C82 H100 0.931 . S
C83 C81 1.365 . S
C83 C84 1.409 . S
C83 H101 0.929 . S
C84 C83 1.409 . S
C84 C85 1.380 . S
C84 H102 0.930 . S
C85 C84 1.380 . S
C85 C92 1.357 . S
C86 C77 1.511 . S
C86 C87 1.341 . S
C86 C88 1.371 . S
C87 C86 1.341 . S
C87 C91 1.394 . S
C87 H103 0.930 . S
C88 C86 1.371 . S
C88 C89 1.392 . S
C88 H104 0.931 . S
C89 C88 1.392 . S
C89 C90 1.331 . S
C89 H107 0.932 . S
C90 C89 1.331 . S
C90 C91 1.336 . S
C91 C87 1.394 . S
C91 C90 1.336 . S
C91 H106 0.929 . S
C92 C82 1.386 . S
C92 C85 1.357 . S
C92 H105 0.928 . S
H93 C69 0.931 . S
H94 C71 0.930 . S
H95 C73 0.929 . S
H96 C74 0.931 . S
H97 C76 0.930 . S
H98 C80 0.931 . S
H99 C78 0.931 . S
H100 C82 0.931 . S
H101 C83 0.929 . S
H102 C84 0.930 . S
H103 C87 0.930 . S
H104 C88 0.931 . S
H105 C92 0.928 . S
H106 C91 0.929 . S
H107 C89 0.932 . S
C108 C109 1.386 . S
C108 C110 1.397 . S
C108 H132 0.931 . S
C109 C108 1.386 . S
C109 C113 1.397 . S
C110 C108 1.397 . S
C110 C111 1.384 . S
C110 H133 0.930 . S
C111 C110 1.384 . S
C111 C112 1.377 . S
C111 C114 1.481 . S
C112 C111 1.377 . S
C112 C113 1.389 . S
C112 H134 0.929 . S
C113 C109 1.397 . S
C113 C112 1.389 . S
C113 H135 0.931 . S
C114 C111 1.481 . S
C114 C115 1.387 . S
C114 C119 1.390 . S
C115 C114 1.387 . S
C115 C116 1.401 . S
C115 H136 0.930 . S
C116 C115 1.401 . S
C116 C117 1.376 . S
C116 C125 1.511 . S
C117 C116 1.376 . S
C117 C118 1.392 . S
C117 H138 0.931 . S
C118 C117 1.392 . S
C118 C119 1.361 . S
C118 C120 1.500 . S
C119 C114 1.390 . S
C119 C118 1.361 . S
C119 H137 0.931 . S
C120 C118 1.500 . S
C120 C121 1.371 . S
C120 C122 1.365 . S
C121 C120 1.371 . S
C121 C131 1.386 . S
C121 H139 0.931 . S
C122 C120 1.365 . S
C122 C123 1.409 . S
C122 H140 0.929 . S
C123 C122 1.409 . S
C123 C124 1.380 . S
C123 H141 0.930 . S
C124 C123 1.380 . S
C124 C131 1.357 . S
C125 C116 1.511 . S
C125 C126 1.341 . S
C125 C127 1.371 . S
C126 C125 1.341 . S
C126 C130 1.394 . S
C126 H142 0.930 . S
C127 C125 1.371 . S
C127 C128 1.392 . S
C127 H143 0.931 . S
C128 C127 1.392 . S
C128 C129 1.331 . S
C128 H146 0.932 . S
C129 C128 1.331 . S
C129 C130 1.336 . S
C130 C126 1.394 . S
C130 C129 1.336 . S
C130 H145 0.929 . S
C131 C121 1.386 . S
C131 C124 1.357 . S
C131 H144 0.928 . S
H132 C108 0.931 . S
H133 C110 0.930 . S
H134 C112 0.929 . S
H135 C113 0.931 . S
H136 C115 0.930 . S
H137 C119 0.931 . S
H138 C117 0.931 . S
H139 C121 0.931 . S
H140 C122 0.929 . S
H141 C123 0.930 . S
H142 C126 0.930 . S
H143 C127 0.931 . S
H144 C131 0.928 . S
H145 C130 0.929 . S
H146 C128 0.932 . S
C147 C148 1.386 . S
C147 C149 1.397 . S
C147 H171 0.931 . S
C148 C147 1.386 . S
C148 C152 1.397 1_455 S
C149 C147 1.397 . S
C149 C150 1.384 . S
C149 H172 0.930 . S
C150 C149 1.384 . S
C150 C151 1.377 1_455 S
C150 C153 1.481 . S
C151 C150 1.377 1_655 S
C151 C152 1.389 . S
C151 H173 0.929 . S
C152 C148 1.397 1_655 S
C152 C151 1.389 . S
C152 H174 0.931 . S
C153 C150 1.481 . S
C153 C154 1.387 . S
C153 C158 1.390 1_455 S
C154 C153 1.387 . S
C154 C155 1.401 . S
C154 H175 0.930 . S
C155 C154 1.401 . S
C155 C156 1.376 . S
C155 C164 1.511 . S
C156 C155 1.376 . S
C156 C157 1.392 1_455 S
C156 H177 0.931 . S
C157 C156 1.392 1_655 S
C157 C158 1.361 . S
C157 C159 1.500 . S
C158 C153 1.390 1_655 S
C158 C157 1.361 . S
C158 H176 0.931 . S
C159 C157 1.500 . S
C159 C160 1.371 . S
C159 C161 1.365 . S
C160 C159 1.371 . S
C160 C170 1.386 . S
C160 H178 0.931 . S
C161 C159 1.365 . S
C161 C162 1.409 . S
C161 H179 0.929 . S
C162 C161 1.409 . S
C162 C163 1.380 . S
C162 H180 0.930 . S
C163 C162 1.380 . S
C163 C170 1.357 . S
C164 C155 1.511 . S
C164 C165 1.341 . S
C164 C166 1.371 . S
C165 C164 1.341 . S
C165 C169 1.394 . S
C165 H181 0.930 . S
C166 C164 1.371 . S
C166 C167 1.392 . S
C166 H182 0.931 . S
C167 C166 1.392 . S
C167 C168 1.331 . S
C167 H185 0.932 . S
C168 C167 1.331 . S
C168 C169 1.336 . S
C169 C165 1.394 . S
C169 C168 1.336 . S
C169 H184 0.929 . S
C170 C160 1.386 . S
C170 C163 1.357 . S
C170 H183 0.928 . S
H171 C147 0.931 . S
H172 C149 0.930 . S
H173 C151 0.929 . S
H174 C152 0.931 . S
H175 C154 0.930 . S
H176 C158 0.931 . S
H177 C156 0.931 . S
H178 C160 0.931 . S
H179 C161 0.929 . S
H180 C162 0.930 . S
H181 C165 0.930 . S
H182 C166 0.931 . S
H183 C170 0.928 . S
H184 C169 0.929 . S
H185 C167 0.932 . S
C186 C187 1.386 1_655 S
C186 C188 1.397 . S
C186 H210 0.931 . S
C187 C186 1.386 1_455 S
C187 C191 1.397 . S
C188 C186 1.397 . S
C188 C189 1.384 1_655 S
C188 H211 0.930 . S
C189 C188 1.384 1_455 S
C189 C190 1.377 . S
C189 C192 1.481 . S
C190 C189 1.377 . S
C190 C191 1.389 . S
C190 H212 0.929 . S
C191 C187 1.397 . S
C191 C190 1.389 . S
C191 H213 0.931 . S
C192 C189 1.481 . S
C192 C193 1.387 1_455 S
C192 C197 1.390 . S
C193 C192 1.387 1_655 S
C193 C194 1.401 . S
C193 H214 0.930 . S
C194 C193 1.401 . S
C194 C195 1.376 1_655 S
C194 C203 1.511 . S
C195 C194 1.376 1_455 S
C195 C196 1.392 . S
C195 H216 0.931 . S
C196 C195 1.392 . S
C196 C197 1.361 . S
C196 C198 1.500 . S
C197 C192 1.390 . S
C197 C196 1.361 . S
C197 H215 0.931 . S
C198 C196 1.500 . S
C198 C199 1.371 . S
C198 C200 1.365 . S
C199 C198 1.371 . S
C199 C209 1.386 . S
C199 H217 0.931 . S
C200 C198 1.365 . S
C200 C201 1.409 . S
C200 H218 0.929 . S
C201 C200 1.409 . S
C201 C202 1.380 . S
C201 H219 0.930 . S
C202 C201 1.380 . S
C202 C209 1.357 . S
C203 C194 1.511 . S
C203 C204 1.341 . S
C203 C205 1.371 . S
C204 C203 1.341 . S
C204 C208 1.394 . S
C204 H220 0.930 . S
C205 C203 1.371 . S
C205 C206 1.392 . S
C205 H221 0.931 . S
C206 C205 1.392 . S
C206 C207 1.331 . S
C206 H224 0.932 . S
C207 C206 1.331 . S
C207 C208 1.336 . S
C208 C204 1.394 . S
C208 C207 1.336 . S
C208 H223 0.929 . S
C209 C199 1.386 . S
C209 C202 1.357 . S
C209 H222 0.928 . S
H210 C186 0.931 . S
H211 C188 0.930 . S
H212 C190 0.929 . S
H213 C191 0.931 . S
H214 C193 0.930 . S
H215 C197 0.931 . S
H216 C195 0.931 . S
H217 C199 0.931 . S
H218 C200 0.929 . S
H219 C201 0.930 . S
H220 C204 0.930 . S
H221 C205 0.931 . S
H222 C209 0.928 . S
H223 C208 0.929 . S
H224 C206 0.932 . S
C225 C226 1.386 1_565 S
C225 C227 1.397 . S
C225 H249 0.931 . S
C226 C225 1.386 1_545 S
C226 C230 1.397 . S
C227 C225 1.397 . S
C227 C228 1.384 1_565 S
C227 H250 0.930 . S
C228 C227 1.384 1_545 S
C228 C229 1.377 . S
C228 C231 1.481 . S
C229 C228 1.377 . S
C229 C230 1.389 . S
C229 H251 0.929 . S
C230 C226 1.397 . S
C230 C229 1.389 . S
C230 H252 0.931 . S
C231 C228 1.481 . S
C231 C232 1.387 1_545 S
C231 C236 1.390 . S
C232 C231 1.387 1_565 S
C232 C233 1.401 . S
C232 H253 0.930 . S
C233 C232 1.401 . S
C233 C234 1.376 1_565 S
C233 C242 1.511 . S
C234 C233 1.376 1_545 S
C234 C235 1.392 . S
C234 H255 0.931 . S
C235 C234 1.392 . S
C235 C236 1.361 . S
C235 C237 1.500 . S
C236 C231 1.390 . S
C236 C235 1.361 . S
C236 H254 0.931 . S
C237 C235 1.500 . S
C237 C238 1.371 . S
C237 C239 1.365 . S
C238 C237 1.371 . S
C238 C248 1.386 . S
C238 H256 0.931 . S
C239 C237 1.365 . S
C239 C240 1.409 . S
C239 H257 0.929 . S
C240 C239 1.409 . S
C240 C241 1.380 . S
C240 H258 0.930 . S
C241 C240 1.380 . S
C241 C248 1.357 . S
C242 C233 1.511 . S
C242 C243 1.341 . S
C242 C244 1.371 . S
C243 C242 1.341 . S
C243 C247 1.394 . S
C243 H259 0.930 . S
C244 C242 1.371 . S
C244 C245 1.392 . S
C244 H260 0.931 . S
C245 C244 1.392 . S
C245 C246 1.331 . S
C245 H263 0.932 . S
C246 C245 1.331 . S
C246 C247 1.336 . S
C247 C243 1.394 . S
C247 C246 1.336 . S
C247 H262 0.929 . S
C248 C238 1.386 . S
C248 C241 1.357 . S
C248 H261 0.928 . S
H249 C225 0.931 . S
H250 C227 0.930 . S
H251 C229 0.929 . S
H252 C230 0.931 . S
H253 C232 0.930 . S
H254 C236 0.931 . S
H255 C234 0.931 . S
H256 C238 0.931 . S
H257 C239 0.929 . S
H258 C240 0.930 . S
H259 C243 0.930 . S
H260 C244 0.931 . S
H261 C248 0.928 . S
H262 C247 0.929 . S
H263 C245 0.932 . S
C264 C265 1.386 . S
C264 C266 1.397 . S
C264 H288 0.931 . S
C265 C264 1.386 . S
C265 C269 1.397 . S
C266 C264 1.397 . S
C266 C267 1.384 . S
C266 H289 0.930 . S
C267 C266 1.384 . S
C267 C268 1.377 . S
C267 C270 1.481 . S
C268 C267 1.377 . S
C268 C269 1.389 . S
C268 H290 0.929 . S
C269 C265 1.397 . S
C269 C268 1.389 . S
C269 H291 0.931 . S
C270 C267 1.481 . S
C270 C271 1.387 . S
C270 C275 1.390 . S
C271 C270 1.387 . S
C271 C272 1.401 . S
C271 H292 0.930 . S
C272 C271 1.401 . S
C272 C273 1.376 . S
C272 C281 1.511 . S
C273 C272 1.376 . S
C273 C274 1.392 . S
C273 H294 0.931 . S
C274 C273 1.392 . S
C274 C275 1.361 . S
C274 C276 1.500 . S
C275 C270 1.390 . S
C275 C274 1.361 . S
C275 H293 0.931 . S
C276 C274 1.500 . S
C276 C277 1.371 . S
C276 C278 1.365 . S
C277 C276 1.371 . S
C277 C287 1.386 . S
C277 H295 0.931 . S
C278 C276 1.365 . S
C278 C279 1.409 . S
C278 H296 0.929 . S
C279 C278 1.409 . S
C279 C280 1.380 . S
C279 H297 0.930 . S
C280 C279 1.380 . S
C280 C287 1.357 . S
C281 C272 1.511 . S
C281 C282 1.341 . S
C281 C283 1.371 . S
C282 C281 1.341 . S
C282 C286 1.394 . S
C282 H298 0.930 . S
C283 C281 1.371 . S
C283 C284 1.392 . S
C283 H299 0.931 . S
C284 C283 1.392 . S
C284 C285 1.331 . S
C284 H302 0.932 . S
C285 C284 1.331 . S
C285 C286 1.336 . S
C286 C282 1.394 . S
C286 C285 1.336 . S
C286 H301 0.929 . S
C287 C277 1.386 . S
C287 C280 1.357 . S
C287 H300 0.928 . S
H288 C264 0.931 . S
H289 C266 0.930 . S
H290 C268 0.929 . S
H291 C269 0.931 . S
H292 C271 0.930 . S
H293 C275 0.931 . S
H294 C273 0.931 . S
H295 C277 0.931 . S
H296 C278 0.929 . S
H297 C279 0.930 . S
H298 C282 0.930 . S
H299 C283 0.931 . S
H300 C287 0.928 . S
H301 C286 0.929 . S
H302 C284 0.932 . S
C303 C304 1.391 . S
C303 C305 1.394 . S
C303 H319 0.931 . S
C304 C303 1.391 . S
C304 C308 1.376 . S
C305 C303 1.394 . S
C305 C306 1.369 . S
C305 C309 1.531 . S
C306 C305 1.369 . S
C306 C307 1.410 . S
C306 C314 1.503 . S
C307 C306 1.410 . S
C307 C308 1.392 . S
C307 C310 1.511 . S
C308 C304 1.376 . S
C308 C307 1.392 . S
C308 H320 0.929 . S
C309 C305 1.531 . S
C309 H321 0.960 . S
C309 H322 0.962 . S
C309 H323 0.960 . S
C310 C307 1.511 . S
C310 H324 0.961 . S
C310 H325 0.961 . S
C310 H326 0.961 . S
C311 C312 1.370 . S
C311 C313 1.363 . S
C311 H327 0.931 . S
C312 C311 1.370 . S
C312 C316 1.408 . S
C313 C311 1.363 . S
C313 C314 1.370 . S
C313 C317 1.524 . S
C314 C306 1.503 . S
C314 C313 1.370 . S
C314 C315 1.403 . S
C315 C314 1.403 . S
C315 C316 1.404 . S
C315 C318 1.539 . S
C316 C312 1.408 . S
C316 C315 1.404 . S
C316 H328 0.930 . S
C317 C313 1.524 . S
C317 H329 0.956 . S
C317 H330 0.961 . S
C317 H331 0.961 . S
C318 C315 1.539 . S
C318 H332 0.958 . S
C318 H333 0.961 . S
C318 H334 0.960 . S
H319 C303 0.931 . S
H320 C308 0.929 . S
H321 C309 0.960 . S
H322 C309 0.962 . S
H323 C309 0.960 . S
H324 C310 0.961 . S
H325 C310 0.961 . S
H326 C310 0.961 . S
H327 C311 0.931 . S
H328 C316 0.930 . S
H329 C317 0.956 . S
H330 C317 0.961 . S
H331 C317 0.961 . S
H332 C318 0.958 . S
H333 C318 0.961 . S
H334 C318 0.960 . S
C335 C336 1.391 . S
C335 C337 1.394 . S
C335 H351 0.931 . S
C336 C335 1.391 . S
C336 C340 1.376 . S
C337 C335 1.394 . S
C337 C338 1.369 . S
C337 C341 1.531 . S
C338 C337 1.369 . S
C338 C339 1.410 . S
C338 C346 1.503 . S
C339 C338 1.410 . S
C339 C340 1.392 . S
C339 C342 1.511 . S
C340 C336 1.376 . S
C340 C339 1.392 . S
C340 H352 0.929 . S
C341 C337 1.531 . S
C341 H353 0.960 . S
C341 H354 0.962 . S
C341 H355 0.960 . S
C342 C339 1.511 . S
C342 H356 0.961 . S
C342 H357 0.961 . S
C342 H358 0.961 . S
C343 C344 1.370 . S
C343 C345 1.363 . S
C343 H359 0.931 . S
C344 C343 1.370 . S
C344 C348 1.408 . S
C345 C343 1.363 . S
C345 C346 1.370 . S
C345 C349 1.524 . S
C346 C338 1.503 . S
C346 C345 1.370 . S
C346 C347 1.403 . S
C347 C346 1.403 . S
C347 C348 1.404 . S
C347 C350 1.539 . S
C348 C344 1.408 . S
C348 C347 1.404 . S
C348 H360 0.930 . S
C349 C345 1.524 . S
C349 H361 0.956 . S
C349 H362 0.961 . S
C349 H363 0.961 . S
C350 C347 1.539 . S
C350 H364 0.958 . S
C350 H365 0.961 . S
C350 H366 0.960 . S
H351 C335 0.931 . S
H352 C340 0.929 . S
H353 C341 0.960 . S
H354 C341 0.962 . S
H355 C341 0.960 . S
H356 C342 0.961 . S
H357 C342 0.961 . S
H358 C342 0.961 . S
H359 C343 0.931 . S
H360 C348 0.930 . S
H361 C349 0.956 . S
H362 C349 0.961 . S
H363 C349 0.961 . S
H364 C350 0.958 . S
H365 C350 0.961 . S
H366 C350 0.960 . S
C367 C368 1.391 . S
C367 C369 1.394 . S
C367 H383 0.931 . S
C368 C367 1.391 . S
C368 C372 1.376 . S
C369 C367 1.394 . S
C369 C370 1.369 . S
C369 C373 1.531 . S
C370 C369 1.369 . S
C370 C371 1.410 . S
C370 C378 1.503 . S
C371 C370 1.410 . S
C371 C372 1.392 . S
C371 C374 1.511 . S
C372 C368 1.376 . S
C372 C371 1.392 . S
C372 H384 0.929 . S
C373 C369 1.531 . S
C373 H385 0.960 . S
C373 H386 0.962 . S
C373 H387 0.960 . S
C374 C371 1.511 . S
C374 H388 0.961 . S
C374 H389 0.961 . S
C374 H390 0.961 . S
C375 C376 1.370 . S
C375 C377 1.363 . S
C375 H391 0.931 . S
C376 C375 1.370 . S
C376 C380 1.408 . S
C377 C375 1.363 . S
C377 C378 1.370 . S
C377 C381 1.524 . S
C378 C370 1.503 . S
C378 C377 1.370 . S
C378 C379 1.403 . S
C379 C378 1.403 . S
C379 C380 1.404 . S
C379 C382 1.539 . S
C380 C376 1.408 . S
C380 C379 1.404 . S
C380 H392 0.930 . S
C381 C377 1.524 . S
C381 H393 0.956 . S
C381 H394 0.961 . S
C381 H395 0.961 . S
C382 C379 1.539 . S
C382 H396 0.958 . S
C382 H397 0.961 . S
C382 H398 0.960 . S
H383 C367 0.931 . S
H384 C372 0.929 . S
H385 C373 0.960 . S
H386 C373 0.962 . S
H387 C373 0.960 . S
H388 C374 0.961 . S
H389 C374 0.961 . S
H390 C374 0.961 . S
H391 C375 0.931 . S
H392 C380 0.930 . S
H393 C381 0.956 . S
H394 C381 0.961 . S
H395 C381 0.961 . S
H396 C382 0.958 . S
H397 C382 0.961 . S
H398 C382 0.960 . S
C399 C400 1.391 . S
C399 C401 1.394 . S
C399 H415 0.931 . S
C400 C399 1.391 . S
C400 C404 1.376 . S
C401 C399 1.394 . S
C401 C402 1.369 . S
C401 C405 1.531 . S
C402 C401 1.369 . S
C402 C403 1.410 . S
C402 C410 1.503 . S
C403 C402 1.410 . S
C403 C404 1.392 . S
C403 C406 1.511 . S
C404 C400 1.376 . S
C404 C403 1.392 . S
C404 H416 0.929 . S
C405 C401 1.531 . S
C405 H417 0.960 . S
C405 H418 0.962 . S
C405 H419 0.960 . S
C406 C403 1.511 . S
C406 H420 0.961 . S
C406 H421 0.961 . S
C406 H422 0.961 . S
C407 C408 1.370 . S
C407 C409 1.363 . S
C407 H423 0.931 . S
C408 C407 1.370 . S
C408 C412 1.408 . S
C409 C407 1.363 . S
C409 C410 1.370 . S
C409 C413 1.524 . S
C410 C402 1.503 . S
C410 C409 1.370 . S
C410 C411 1.403 . S
C411 C410 1.403 . S
C411 C412 1.404 . S
C411 C414 1.539 . S
C412 C408 1.408 . S
C412 C411 1.404 . S
C412 H424 0.930 . S
C413 C409 1.524 . S
C413 H425 0.956 . S
C413 H426 0.961 . S
C413 H427 0.961 . S
C414 C411 1.539 . S
C414 H428 0.958 . S
C414 H429 0.961 . S
C414 H430 0.960 . S
H415 C399 0.931 . S
H416 C404 0.929 . S
H417 C405 0.960 . S
H418 C405 0.962 . S
H419 C405 0.960 . S
H420 C406 0.961 . S
H421 C406 0.961 . S
H422 C406 0.961 . S
H423 C407 0.931 . S
H424 C412 0.930 . S
H425 C413 0.956 . S
H426 C413 0.961 . S
H427 C413 0.961 . S
H428 C414 0.958 . S
H429 C414 0.961 . S
H430 C414 0.960 . S
C431 C432 1.391 . S
C431 C433 1.394 . S
C431 H447 0.931 . S
C432 C431 1.391 . S
C432 C436 1.376 . S
C433 C431 1.394 . S
C433 C434 1.369 . S
C433 C437 1.531 . S
C434 C433 1.369 . S
C434 C435 1.410 . S
C434 C442 1.503 . S
C435 C434 1.410 . S
C435 C436 1.392 . S
C435 C438 1.511 . S
C436 C432 1.376 . S
C436 C435 1.392 . S
C436 H448 0.929 . S
C437 C433 1.531 . S
C437 H449 0.960 . S
C437 H450 0.962 . S
C437 H451 0.960 . S
C438 C435 1.511 . S
C438 H452 0.961 . S
C438 H453 0.961 . S
C438 H454 0.961 . S
C439 C440 1.370 . S
C439 C441 1.363 . S
C439 H455 0.931 . S
C440 C439 1.370 . S
C440 C444 1.408 . S
C441 C439 1.363 . S
C441 C442 1.370 . S
C441 C445 1.524 . S
C442 C434 1.503 . S
C442 C441 1.370 . S
C442 C443 1.403 . S
C443 C442 1.403 . S
C443 C444 1.404 . S
C443 C446 1.539 . S
C444 C440 1.408 . S
C444 C443 1.404 . S
C444 H456 0.930 . S
C445 C441 1.524 . S
C445 H457 0.956 . S
C445 H458 0.961 . S
C445 H459 0.961 . S
C446 C443 1.539 . S
C446 H460 0.958 . S
C446 H461 0.961 . S
C446 H462 0.960 . S
H447 C431 0.931 . S
H448 C436 0.929 . S
H449 C437 0.960 . S
H450 C437 0.962 . S
H451 C437 0.960 . S
H452 C438 0.961 . S
H453 C438 0.961 . S
H454 C438 0.961 . S
H455 C439 0.931 . S
H456 C444 0.930 . S
H457 C445 0.956 . S
H458 C445 0.961 . S
H459 C445 0.961 . S
H460 C446 0.958 . S
H461 C446 0.961 . S
H462 C446 0.960 . S
C463 C464 1.391 . S
C463 C465 1.394 . S
C463 H479 0.931 . S
C464 C463 1.391 . S
C464 C468 1.376 . S
C465 C463 1.394 . S
C465 C466 1.369 . S
C465 C469 1.531 . S
C466 C465 1.369 . S
C466 C467 1.410 . S
C466 C474 1.503 . S
C467 C466 1.410 . S
C467 C468 1.392 . S
C467 C470 1.511 . S
C468 C464 1.376 . S
C468 C467 1.392 . S
C468 H480 0.929 . S
C469 C465 1.531 . S
C469 H481 0.960 . S
C469 H482 0.962 . S
C469 H483 0.960 . S
C470 C467 1.511 . S
C470 H484 0.961 . S
C470 H485 0.961 . S
C470 H486 0.961 . S
C471 C472 1.370 . S
C471 C473 1.363 . S
C471 H487 0.931 . S
C472 C471 1.370 . S
C472 C476 1.408 . S
C473 C471 1.363 . S
C473 C474 1.370 . S
C473 C477 1.524 . S
C474 C466 1.503 . S
C474 C473 1.370 . S
C474 C475 1.403 . S
C475 C474 1.403 . S
C475 C476 1.404 . S
C475 C478 1.539 . S
C476 C472 1.408 . S
C476 C475 1.404 . S
C476 H488 0.930 . S
C477 C473 1.524 . S
C477 H489 0.956 . S
C477 H490 0.961 . S
C477 H491 0.961 . S
C478 C475 1.539 . S
C478 H492 0.958 . S
C478 H493 0.961 . S
C478 H494 0.960 . S
H479 C463 0.931 . S
H480 C468 0.929 . S
H481 C469 0.960 . S
H482 C469 0.962 . S
H483 C469 0.960 . S
H484 C470 0.961 . S
H485 C470 0.961 . S
H486 C470 0.961 . S
H487 C471 0.931 . S
H488 C476 0.930 . S
H489 C477 0.956 . S
H490 C477 0.961 . S
H491 C477 0.961 . S
H492 C478 0.958 . S
H493 C478 0.961 . S
H494 C478 0.960 . S
C495 C496 1.391 . S
C495 C497 1.394 . S
C495 H511 0.931 . S
C496 C495 1.391 . S
C496 C500 1.376 . S
C497 C495 1.394 . S
C497 C498 1.369 . S
C497 C501 1.531 . S
C498 C497 1.369 . S
C498 C499 1.410 . S
C498 C506 1.503 . S
C499 C498 1.410 . S
C499 C500 1.392 . S
C499 C502 1.511 . S
C500 C496 1.376 . S
C500 C499 1.392 . S
C500 H512 0.929 . S
C501 C497 1.531 . S
C501 H513 0.960 . S
C501 H514 0.962 . S
C501 H515 0.960 . S
C502 C499 1.511 . S
C502 H516 0.961 . S
C502 H517 0.961 . S
C502 H518 0.961 . S
C503 C504 1.370 . S
C503 C505 1.363 . S
C503 H519 0.931 . S
C504 C503 1.370 . S
C504 C508 1.408 . S
C505 C503 1.363 . S
C505 C506 1.370 . S
C505 C509 1.524 . S
C506 C498 1.503 . S
C506 C505 1.370 . S
C506 C507 1.403 . S
C507 C506 1.403 . S
C507 C508 1.404 . S
C507 C510 1.539 . S
C508 C504 1.408 . S
C508 C507 1.404 . S
C508 H520 0.930 . S
C509 C505 1.524 . S
C509 H521 0.956 . S
C509 H522 0.961 . S
C509 H523 0.961 . S
C510 C507 1.539 . S
C510 H524 0.958 . S
C510 H525 0.961 . S
C510 H526 0.960 . S
H511 C495 0.931 . S
H512 C500 0.929 . S
H513 C501 0.960 . S
H514 C501 0.962 . S
H515 C501 0.960 . S
H516 C502 0.961 . S
H517 C502 0.961 . S
H518 C502 0.961 . S
H519 C503 0.931 . S
H520 C508 0.930 . S
H521 C509 0.956 . S
H522 C509 0.961 . S
H523 C509 0.961 . S
H524 C510 0.958 . S
H525 C510 0.961 . S
H526 C510 0.960 . S
C527 C528 1.391 . S
C527 C529 1.394 . S
C527 H543 0.931 . S
C528 C527 1.391 . S
C528 C532 1.376 . S
C529 C527 1.394 . S
C529 C530 1.369 . S
C529 C533 1.531 . S
C530 C529 1.369 . S
C530 C531 1.410 . S
C530 C538 1.503 . S
C531 C530 1.410 . S
C531 C532 1.392 . S
C531 C534 1.511 . S
C532 C528 1.376 . S
C532 C531 1.392 . S
C532 H544 0.929 . S
C533 C529 1.531 . S
C533 H545 0.960 . S
C533 H546 0.962 . S
C533 H547 0.960 . S
C534 C531 1.511 . S
C534 H548 0.961 . S
C534 H549 0.961 . S
C534 H550 0.961 . S
C535 C536 1.370 . S
C535 C537 1.363 . S
C535 H551 0.931 . S
C536 C535 1.370 . S
C536 C540 1.408 . S
C537 C535 1.363 . S
C537 C538 1.370 . S
C537 C541 1.524 . S
C538 C530 1.503 . S
C538 C537 1.370 . S
C538 C539 1.403 . S
C539 C538 1.403 . S
C539 C540 1.404 . S
C539 C542 1.539 . S
C540 C536 1.408 . S
C540 C539 1.404 . S
C540 H552 0.930 . S
C541 C537 1.524 . S
C541 H553 0.956 . S
C541 H554 0.961 . S
C541 H555 0.961 . S
C542 C539 1.539 . S
C542 H556 0.958 . S
C542 H557 0.961 . S
C542 H558 0.960 . S
H543 C527 0.931 . S
H544 C532 0.929 . S
H545 C533 0.960 . S
H546 C533 0.962 . S
H547 C533 0.960 . S
H548 C534 0.961 . S
H549 C534 0.961 . S
H550 C534 0.961 . S
H551 C535 0.931 . S
H552 C540 0.930 . S
H553 C541 0.956 . S
H554 C541 0.961 . S
H555 C541 0.961 . S
H556 C542 0.958 . S
H557 C542 0.961 . S
H558 C542 0.960 . S
C559 C560 1.391 . S
C559 C561 1.394 . S
C559 H575 0.931 . S
C560 C559 1.391 . S
C560 C564 1.376 . S
C561 C559 1.394 . S
C561 C562 1.369 . S
C561 C565 1.531 . S
C562 C561 1.369 . S
C562 C563 1.410 . S
C562 C570 1.503 . S
C563 C562 1.410 . S
C563 C564 1.392 . S
C563 C566 1.511 . S
C564 C560 1.376 . S
C564 C563 1.392 . S
C564 H576 0.929 . S
C565 C561 1.531 . S
C565 H577 0.960 . S
C565 H578 0.962 . S
C565 H579 0.960 . S
C566 C563 1.511 . S
C566 H580 0.961 . S
C566 H581 0.961 . S
C566 H582 0.961 . S
C567 C568 1.370 . S
C567 C569 1.363 . S
C567 H583 0.931 . S
C568 C567 1.370 . S
C568 C572 1.408 . S
C569 C567 1.363 . S
C569 C570 1.370 . S
C569 C573 1.524 . S
C570 C562 1.503 . S
C570 C569 1.370 . S
C570 C571 1.403 . S
C571 C570 1.403 . S
C571 C572 1.404 . S
C571 C574 1.539 . S
C572 C568 1.408 . S
C572 C571 1.404 . S
C572 H584 0.930 . S
C573 C569 1.524 . S
C573 H585 0.956 . S
C573 H586 0.961 . S
C573 H587 0.961 . S
C574 C571 1.539 . S
C574 H588 0.958 . S
C574 H589 0.961 . S
C574 H590 0.960 . S
H575 C559 0.931 . S
H576 C564 0.929 . S
H577 C565 0.960 . S
H578 C565 0.962 . S
H579 C565 0.960 . S
H580 C566 0.961 . S
H581 C566 0.961 . S
H582 C566 0.961 . S
H583 C567 0.931 . S
H584 C572 0.930 . S
H585 C573 0.956 . S
H586 C573 0.961 . S
H587 C573 0.961 . S
H588 C574 0.958 . S
H589 C574 0.961 . S
H590 C574 0.960 . S
C591 C592 1.391 . S
C591 C593 1.394 . S
C591 H607 0.931 . S
C592 C591 1.391 . S
C592 C596 1.376 . S
C593 C591 1.394 . S
C593 C594 1.369 . S
C593 C597 1.531 . S
C594 C593 1.369 . S
C594 C595 1.410 . S
C594 C602 1.503 . S
C595 C594 1.410 . S
C595 C596 1.392 . S
C595 C598 1.511 . S
C596 C592 1.376 . S
C596 C595 1.392 . S
C596 H608 0.929 . S
C597 C593 1.531 . S
C597 H609 0.960 . S
C597 H610 0.962 . S
C597 H611 0.960 . S
C598 C595 1.511 . S
C598 H612 0.961 . S
C598 H613 0.961 . S
C598 H614 0.961 . S
C599 C600 1.370 . S
C599 C601 1.363 . S
C599 H615 0.931 . S
C600 C599 1.370 . S
C600 C604 1.408 . S
C601 C599 1.363 . S
C601 C602 1.370 . S
C601 C605 1.524 . S
C602 C594 1.503 . S
C602 C601 1.370 . S
C602 C603 1.403 . S
C603 C602 1.403 . S
C603 C604 1.404 . S
C603 C606 1.539 . S
C604 C600 1.408 . S
C604 C603 1.404 . S
C604 H616 0.930 . S
C605 C601 1.524 . S
C605 H617 0.956 . S
C605 H618 0.961 . S
C605 H619 0.961 . S
C606 C603 1.539 . S
C606 H620 0.958 . S
C606 H621 0.961 . S
C606 H622 0.960 . S
H607 C591 0.931 . S
H608 C596 0.929 . S
H609 C597 0.960 . S
H610 C597 0.962 . S
H611 C597 0.960 . S
H612 C598 0.961 . S
H613 C598 0.961 . S
H614 C598 0.961 . S
H615 C599 0.931 . S
H616 C604 0.930 . S
H617 C605 0.956 . S
H618 C605 0.961 . S
H619 C605 0.961 . S
H620 C606 0.958 . S
H621 C606 0.961 . S
H622 C606 0.960 . S
C623 C624 1.391 . S
C623 C625 1.394 . S
C623 H639 0.931 . S
C624 C623 1.391 . S
C624 C628 1.376 . S
C625 C623 1.394 . S
C625 C626 1.369 . S
C625 C629 1.531 . S
C626 C625 1.369 . S
C626 C627 1.410 . S
C626 C634 1.503 . S
C627 C626 1.410 . S
C627 C628 1.392 . S
C627 C630 1.511 . S
C628 C624 1.376 . S
C628 C627 1.392 . S
C628 H640 0.929 . S
C629 C625 1.531 . S
C629 H641 0.960 . S
C629 H642 0.962 . S
C629 H643 0.960 . S
C630 C627 1.511 . S
C630 H644 0.961 . S
C630 H645 0.961 . S
C630 H646 0.961 . S
C631 C632 1.370 . S
C631 C633 1.363 . S
C631 H647 0.931 . S
C632 C631 1.370 . S
C632 C636 1.408 . S
C633 C631 1.363 . S
C633 C634 1.370 . S
C633 C637 1.524 . S
C634 C626 1.503 . S
C634 C633 1.370 . S
C634 C635 1.403 . S
C635 C634 1.403 . S
C635 C636 1.404 . S
C635 C638 1.539 . S
C636 C632 1.408 . S
C636 C635 1.404 . S
C636 H648 0.930 . S
C637 C633 1.524 . S
C637 H649 0.956 . S
C637 H650 0.961 . S
C637 H651 0.961 . S
C638 C635 1.539 . S
C638 H652 0.958 . S
C638 H653 0.961 . S
C638 H654 0.960 . S
H639 C623 0.931 . S
H640 C628 0.929 . S
H641 C629 0.960 . S
H642 C629 0.962 . S
H643 C629 0.960 . S
H644 C630 0.961 . S
H645 C630 0.961 . S
H646 C630 0.961 . S
H647 C631 0.931 . S
H648 C636 0.930 . S
H649 C637 0.956 . S
H650 C637 0.961 . S
H651 C637 0.961 . S
H652 C638 0.958 . S
H653 C638 0.961 . S
H654 C638 0.960 . S
C655 C656 1.391 . S
C655 C657 1.394 . S
C655 H671 0.931 . S
C656 C655 1.391 . S
C656 C660 1.376 . S
C657 C655 1.394 . S
C657 C658 1.369 . S
C657 C661 1.531 . S
C658 C657 1.369 . S
C658 C659 1.410 . S
C658 C666 1.503 . S
C659 C658 1.410 . S
C659 C660 1.392 . S
C659 C662 1.511 . S
C660 C656 1.376 . S
C660 C659 1.392 . S
C660 H672 0.929 . S
C661 C657 1.531 . S
C661 H673 0.960 . S
C661 H674 0.962 . S
C661 H675 0.960 . S
C662 C659 1.511 . S
C662 H676 0.961 . S
C662 H677 0.961 . S
C662 H678 0.961 . S
C663 C664 1.370 . S
C663 C665 1.363 . S
C663 H679 0.931 . S
C664 C663 1.370 . S
C664 C668 1.408 . S
C665 C663 1.363 . S
C665 C666 1.370 . S
C665 C669 1.524 . S
C666 C658 1.503 . S
C666 C665 1.370 . S
C666 C667 1.403 . S
C667 C666 1.403 . S
C667 C668 1.404 . S
C667 C670 1.539 . S
C668 C664 1.408 . S
C668 C667 1.404 . S
C668 H680 0.930 . S
C669 C665 1.524 . S
C669 H681 0.956 . S
C669 H682 0.961 . S
C669 H683 0.961 . S
C670 C667 1.539 . S
C670 H684 0.958 . S
C670 H685 0.961 . S
C670 H686 0.960 . S
H671 C655 0.931 . S
H672 C660 0.929 . S
H673 C661 0.960 . S
H674 C661 0.962 . S
H675 C661 0.960 . S
H676 C662 0.961 . S
H677 C662 0.961 . S
H678 C662 0.961 . S
H679 C663 0.931 . S
H680 C668 0.930 . S
H681 C669 0.956 . S
H682 C669 0.961 . S
H683 C669 0.961 . S
H684 C670 0.958 . S
H685 C670 0.961 . S
H686 C670 0.960 . S
C687 C688 1.391 . S
C687 C689 1.394 . S
C687 H703 0.931 . S
C688 C687 1.391 . S
C688 C692 1.376 1_455 S
C689 C687 1.394 . S
C689 C690 1.369 . S
C689 C693 1.531 . S
C690 C689 1.369 . S
C690 C691 1.410 1_455 S
C690 C698 1.503 . S
C691 C690 1.410 1_655 S
C691 C692 1.392 . S
C691 C694 1.511 . S
C692 C688 1.376 1_655 S
C692 C691 1.392 . S
C692 H704 0.929 . S
C693 C689 1.531 . S
C693 H705 0.960 . S
C693 H706 0.962 . S
C693 H707 0.960 . S
C694 C691 1.511 . S
C694 H708 0.961 . S
C694 H709 0.961 . S
C694 H710 0.961 . S
C695 C696 1.370 . S
C695 C697 1.363 . S
C695 H711 0.931 . S
C696 C695 1.370 . S
C696 C700 1.408 1_455 S
C697 C695 1.363 . S
C697 C698 1.370 . S
C697 C701 1.524 . S
C698 C690 1.503 . S
C698 C697 1.370 . S
C698 C699 1.403 1_455 S
C699 C698 1.403 1_655 S
C699 C700 1.404 . S
C699 C702 1.539 . S
C700 C696 1.408 1_655 S
C700 C699 1.404 . S
C700 H712 0.930 . S
C701 C697 1.524 . S
C701 H713 0.956 . S
C701 H714 0.961 . S
C701 H715 0.961 . S
C702 C699 1.539 . S
C702 H716 0.958 . S
C702 H717 0.961 . S
C702 H718 0.960 . S
H703 C687 0.931 . S
H704 C692 0.929 . S
H705 C693 0.960 . S
H706 C693 0.962 . S
H707 C693 0.960 . S
H708 C694 0.961 . S
H709 C694 0.961 . S
H710 C694 0.961 . S
H711 C695 0.931 . S
H712 C700 0.930 . S
H713 C701 0.956 . S
H714 C701 0.961 . S
H715 C701 0.961 . S
H716 C702 0.958 . S
H717 C702 0.961 . S
H718 C702 0.960 . S
C719 C720 1.391 1_565 S
C719 C721 1.394 . S
C719 H735 0.931 . S
C720 C719 1.391 1_545 S
C720 C724 1.376 . S
C721 C719 1.394 . S
C721 C722 1.369 1_565 S
C721 C725 1.531 . S
C722 C721 1.369 1_545 S
C722 C723 1.410 . S
C722 C730 1.503 . S
C723 C722 1.410 . S
C723 C724 1.392 . S
C723 C726 1.511 . S
C724 C720 1.376 . S
C724 C723 1.392 . S
C724 H736 0.929 . S
C725 C721 1.531 . S
C725 H737 0.960 . S
C725 H738 0.962 . S
C725 H739 0.960 . S
C726 C723 1.511 . S
C726 H740 0.961 . S
C726 H741 0.961 . S
C726 H742 0.961 . S
C727 C728 1.370 . S
C727 C729 1.363 . S
C727 H743 0.931 . S
C728 C727 1.370 . S
C728 C732 1.408 1_545 S
C729 C727 1.363 . S
C729 C730 1.370 . S
C729 C733 1.524 . S
C730 C722 1.503 . S
C730 C729 1.370 . S
C730 C731 1.403 1_545 S
C731 C730 1.403 1_565 S
C731 C732 1.404 . S
C731 C734 1.539 . S
C732 C728 1.408 1_565 S
C732 C731 1.404 . S
C732 H744 0.930 . S
C733 C729 1.524 . S
C733 H745 0.956 . S
C733 H746 0.961 . S
C733 H747 0.961 . S
C734 C731 1.539 . S
C734 H748 0.958 . S
C734 H749 0.961 . S
C734 H750 0.960 . S
H735 C719 0.931 . S
H736 C724 0.929 . S
H737 C725 0.960 . S
H738 C725 0.962 . S
H739 C725 0.960 . S
H740 C726 0.961 . S
H741 C726 0.961 . S
H742 C726 0.961 . S
H743 C727 0.931 . S
H744 C732 0.930 . S
H745 C733 0.956 . S
H746 C733 0.961 . S
H747 C733 0.961 . S
H748 C734 0.958 . S
H749 C734 0.961 . S
H750 C734 0.960 . S
C751 C752 1.391 . S
C751 C753 1.394 . S
C751 H767 0.931 . S
C752 C751 1.391 . S
C752 C756 1.376 . S
C753 C751 1.394 . S
C753 C754 1.369 . S
C753 C757 1.531 . S
C754 C753 1.369 . S
C754 C755 1.410 . S
C754 C762 1.503 . S
C755 C754 1.410 . S
C755 C756 1.392 . S
C755 C758 1.511 . S
C756 C752 1.376 . S
C756 C755 1.392 . S
C756 H768 0.929 . S
C757 C753 1.531 . S
C757 H769 0.960 . S
C757 H770 0.962 . S
C757 H771 0.960 . S
C758 C755 1.511 . S
C758 H772 0.961 . S
C758 H773 0.961 . S
C758 H774 0.961 . S
C759 C760 1.370 . S
C759 C761 1.363 . S
C759 H775 0.931 . S
C760 C759 1.370 . S
C760 C764 1.408 . S
C761 C759 1.363 . S
C761 C762 1.370 . S
C761 C765 1.524 . S
C762 C754 1.503 . S
C762 C761 1.370 . S
C762 C763 1.403 . S
C763 C762 1.403 . S
C763 C764 1.404 . S
C763 C766 1.539 . S
C764 C760 1.408 . S
C764 C763 1.404 . S
C764 H776 0.930 . S
C765 C761 1.524 . S
C765 H777 0.956 . S
C765 H778 0.961 . S
C765 H779 0.961 . S
C766 C763 1.539 . S
C766 H780 0.958 . S
C766 H781 0.961 . S
C766 H782 0.960 . S
H767 C751 0.931 . S
H768 C756 0.929 . S
H769 C757 0.960 . S
H770 C757 0.962 . S
H771 C757 0.960 . S
H772 C758 0.961 . S
H773 C758 0.961 . S
H774 C758 0.961 . S
H775 C759 0.931 . S
H776 C764 0.930 . S
H777 C765 0.956 . S
H778 C765 0.961 . S
H779 C765 0.961 . S
H780 C766 0.958 . S
H781 C766 0.961 . S
H782 C766 0.960 . S
C783 C784 1.391 . S
C783 C785 1.394 . S
C783 H799 0.931 . S
C784 C783 1.391 . S
C784 C788 1.376 1_545 S
C785 C783 1.394 . S
C785 C786 1.369 . S
C785 C789 1.531 . S
C786 C785 1.369 . S
C786 C787 1.410 1_545 S
C786 C794 1.503 . S
C787 C786 1.410 1_565 S
C787 C788 1.392 . S
C787 C790 1.511 . S
C788 C784 1.376 1_565 S
C788 C787 1.392 . S
C788 H800 0.929 . S
C789 C785 1.531 . S
C789 H801 0.960 . S
C789 H802 0.962 . S
C789 H803 0.960 . S
C790 C787 1.511 . S
C790 H804 0.961 . S
C790 H805 0.961 . S
C790 H806 0.961 . S
C791 C792 1.370 1_565 S
C791 C793 1.363 . S
C791 H807 0.931 . S
C792 C791 1.370 1_545 S
C792 C796 1.408 . S
C793 C791 1.363 . S
C793 C794 1.370 1_565 S
C793 C797 1.524 . S
C794 C786 1.503 . S
C794 C793 1.370 1_545 S
C794 C795 1.403 . S
C795 C794 1.403 . S
C795 C796 1.404 . S
C795 C798 1.539 . S
C796 C792 1.408 . S
C796 C795 1.404 . S
C796 H808 0.930 . S
C797 C793 1.524 . S
C797 H809 0.956 . S
C797 H810 0.961 . S
C797 H811 0.961 . S
C798 C795 1.539 . S
C798 H812 0.958 . S
C798 H813 0.961 . S
C798 H814 0.960 . S
H799 C783 0.931 . S
H800 C788 0.929 . S
H801 C789 0.960 . S
H802 C789 0.962 . S
H803 C789 0.960 . S
H804 C790 0.961 . S
H805 C790 0.961 . S
H806 C790 0.961 . S
H807 C791 0.931 . S
H808 C796 0.930 . S
H809 C797 0.956 . S
H810 C797 0.961 . S
H811 C797 0.961 . S
H812 C798 0.958 . S
H813 C798 0.961 . S
H814 C798 0.960 . S
C815 C816 1.391 . S
C815 C817 1.394 . S
C815 H831 0.931 . S
C816 C815 1.391 . S
C816 C820 1.376 . S
C817 C815 1.394 . S
C817 C818 1.369 . S
C817 C821 1.531 . S
C818 C817 1.369 . S
C818 C819 1.410 . S
C818 C826 1.503 . S
C819 C818 1.410 . S
C819 C820 1.392 . S
C819 C822 1.511 . S
C820 C816 1.376 . S
C820 C819 1.392 . S
C820 H832 0.929 . S
C821 C817 1.531 . S
C821 H833 0.960 . S
C821 H834 0.962 . S
C821 H835 0.960 . S
C822 C819 1.511 . S
C822 H836 0.961 . S
C822 H837 0.961 . S
C822 H838 0.961 . S
C823 C824 1.370 . S
C823 C825 1.363 . S
C823 H839 0.931 . S
C824 C823 1.370 . S
C824 C828 1.408 . S
C825 C823 1.363 . S
C825 C826 1.370 . S
C825 C829 1.524 . S
C826 C818 1.503 . S
C826 C825 1.370 . S
C826 C827 1.403 . S
C827 C826 1.403 . S
C827 C828 1.404 . S
C827 C830 1.539 . S
C828 C824 1.408 . S
C828 C827 1.404 . S
C828 H840 0.930 . S
C829 C825 1.524 . S
C829 H841 0.956 . S
C829 H842 0.961 . S
C829 H843 0.961 . S
C830 C827 1.539 . S
C830 H844 0.958 . S
C830 H845 0.961 . S
C830 H846 0.960 . S
H831 C815 0.931 . S
H832 C820 0.929 . S
H833 C821 0.960 . S
H834 C821 0.962 . S
H835 C821 0.960 . S
H836 C822 0.961 . S
H837 C822 0.961 . S
H838 C822 0.961 . S
H839 C823 0.931 . S
H840 C828 0.930 . S
H841 C829 0.956 . S
H842 C829 0.961 . S
H843 C829 0.961 . S
H844 C830 0.958 . S
H845 C830 0.961 . S
H846 C830 0.960 . S
C847 C848 1.391 . S
C847 C849 1.394 . S
C847 H863 0.931 . S
C848 C847 1.391 . S
C848 C852 1.376 1_455 S
C849 C847 1.394 . S
C849 C850 1.375 . S
C849 C853 1.531 . S
C850 C849 1.375 . S
C850 C851 1.405 1_455 S
C850 C858 1.505 . S
C851 C850 1.405 1_655 S
C851 C852 1.392 . S
C851 C854 1.511 . S
C852 C848 1.376 1_655 S
C852 C851 1.392 . S
C852 H864 0.929 . S
C853 C849 1.531 . S
C853 H865 0.960 . S
C853 H866 0.962 . S
C853 H867 0.960 . S
C854 C851 1.511 . S
C854 H868 0.961 . S
C854 H869 0.961 . S
C854 H870 0.961 . S
C855 C856 1.370 . S
C855 C857 1.363 . S
C855 H871 0.931 . S
C856 C855 1.370 . S
C856 C860 1.408 1_455 S
C857 C855 1.363 . S
C857 C858 1.370 . S
C857 C861 1.524 . S
C858 C850 1.505 . S
C858 C857 1.370 . S
C858 C859 1.403 1_455 S
C859 C858 1.403 1_655 S
C859 C860 1.404 . S
C859 C862 1.539 . S
C860 C856 1.408 1_655 S
C860 C859 1.404 . S
C860 H872 0.930 . S
C861 C857 1.524 . S
C861 H873 0.956 . S
C861 H874 0.961 . S
C861 H875 0.961 . S
C862 C859 1.539 . S
C862 H876 0.958 . S
C862 H877 0.961 . S
C862 H878 0.960 . S
H863 C847 0.931 . S
H864 C852 0.929 . S
H865 C853 0.960 . S
H866 C853 0.962 . S
H867 C853 0.960 . S
H868 C854 0.961 . S
H869 C854 0.961 . S
H870 C854 0.961 . S
H871 C855 0.931 . S
H872 C860 0.930 . S
H873 C861 0.956 . S
H874 C861 0.961 . S
H875 C861 0.961 . S
H876 C862 0.958 . S
H877 C862 0.961 . S
H878 C862 0.960 . S
C304 C20 1.210 . S
C312 C280 1.198 . S
C336 C41 1.242 . S
C344 C207 1.221 . S
C368 C64 1.258 . S
C376 C246 1.254 . S
C400 C19 1.222 . S
C408 C285 1.241 . S
C440 C202 1.227 . S
C432 C44 1.198 . S
C472 C241 1.200 . S
C464 C67 1.219 . S
C496 C43 1.159 . S
C504 C129 1.206 . S
C528 C66 1.209 . S
C536 C163 1.201 . S
C560 C21 1.214 . S
C568 C85 1.217 . S
C600 C124 1.235 . S
C592 C42 1.200 . S
C632 C168 1.257 . S
C624 C65 1.163 . S
C656 C18 1.245 . S
C664 C90 1.225 . S
C696 C148 1.460 1_554 S
C688 C17 1.455 . S
C720 C39 1.451 . S
C728 C70 1.456 . S
C752 C62 1.470 . S
C760 C109 1.473 . S
C792 C226 1.442 . S
C784 C40 1.441 . S
C824 C265 1.461 1_556 S
C816 C63 1.458 . S
C848 C16 1.449 . S
C856 C187 1.455 . S
