# Generated by pormake.
# Topology pyr, (3,6)-cn, num edge types: 1
# Building blocks:
#     Node 0, Type 0, BuildingBlock: MIDCAF_clean_linker_0, # of connection points: 3
#     Node 1, Type 0, BuildingBlock: MIDCAF_clean_linker_0, # of connection points: 3
#     Node 2, Type 0, BuildingBlock: MIDCAF_clean_linker_0, # of connection points: 3
#     Node 3, Type 0, BuildingBlock: MIDCAF_clean_linker_0, # of connection points: 3
#     Node 4, Type 0, BuildingBlock: MIDCAF_clean_linker_0, # of connection points: 3
#     Node 5, Type 0, BuildingBlock: MIDCAF_clean_linker_0, # of connection points: 3
#     Node 6, Type 0, BuildingBlock: MIDCAF_clean_linker_0, # of connection points: 3
#     Node 7, Type 0, BuildingBlock: MIDCAF_clean_linker_0, # of connection points: 3
#     Node 8, Type 1, BuildingBlock: FUNLAD_clean_sbu_0, # of connection points: 6
#     Node 9, Type 1, BuildingBlock: FUNLAD_clean_sbu_0, # of connection points: 6
#     Node 10, Type 1, BuildingBlock: FUNLAD_clean_sbu_0, # of connection points: 6
#     Node 11, Type 1, BuildingBlock: FUNLAD_clean_sbu_0, # of connection points: 6
#     Edge 12, Type (0, 1), BuildingBlock: UVAHIK_clean_linker_0, # of connection points: 2
#     Edge 13, Type (0, 1), BuildingBlock: UVAHIK_clean_linker_0, # of connection points: 2
#     Edge 14, Type (0, 1), BuildingBlock: UVAHIK_clean_linker_0, # of connection points: 2
#     Edge 15, Type (0, 1), BuildingBlock: UVAHIK_clean_linker_0, # of connection points: 2
#     Edge 16, Type (0, 1), BuildingBlock: UVAHIK_clean_linker_0, # of connection points: 2
#     Edge 17, Type (0, 1), BuildingBlock: UVAHIK_clean_linker_0, # of connection points: 2
#     Edge 18, Type (0, 1), BuildingBlock: UVAHIK_clean_linker_0, # of connection points: 2
#     Edge 19, Type (0, 1), BuildingBlock: UVAHIK_clean_linker_0, # of connection points: 2
#     Edge 20, Type (0, 1), BuildingBlock: UVAHIK_clean_linker_0, # of connection points: 2
#     Edge 21, Type (0, 1), BuildingBlock: UVAHIK_clean_linker_0, # of connection points: 2
#     Edge 22, Type (0, 1), BuildingBlock: UVAHIK_clean_linker_0, # of connection points: 2
#     Edge 23, Type (0, 1), BuildingBlock: UVAHIK_clean_linker_0, # of connection points: 2
#     Edge 24, Type (0, 1), BuildingBlock: UVAHIK_clean_linker_0, # of connection points: 2
#     Edge 25, Type (0, 1), BuildingBlock: UVAHIK_clean_linker_0, # of connection points: 2
#     Edge 26, Type (0, 1), BuildingBlock: UVAHIK_clean_linker_0, # of connection points: 2
#     Edge 27, Type (0, 1), BuildingBlock: UVAHIK_clean_linker_0, # of connection points: 2
#     Edge 28, Type (0, 1), BuildingBlock: UVAHIK_clean_linker_0, # of connection points: 2
#     Edge 29, Type (0, 1), BuildingBlock: UVAHIK_clean_linker_0, # of connection points: 2
#     Edge 30, Type (0, 1), BuildingBlock: UVAHIK_clean_linker_0, # of connection points: 2
#     Edge 31, Type (0, 1), BuildingBlock: UVAHIK_clean_linker_0, # of connection points: 2
#     Edge 32, Type (0, 1), BuildingBlock: UVAHIK_clean_linker_0, # of connection points: 2
#     Edge 33, Type (0, 1), BuildingBlock: UVAHIK_clean_linker_0, # of connection points: 2
#     Edge 34, Type (0, 1), BuildingBlock: UVAHIK_clean_linker_0, # of connection points: 2
#     Edge 35, Type (0, 1), BuildingBlock: UVAHIK_clean_linker_0, # of connection points: 2
# Relax obj value: 0.039
# Max RMSD: 0.057
# Mean RMSD: 0.023
data_MOF--net-pry--node1-FUNLAD_clean_sbu_0--node2-MIDCAF_clean_linker_0--edge1-UVAHIK_clean_linker_0
_symmetry_space_group_name_H-M    P1
_symmetry_Int_Tables_number       1
_symmetry_cell_setting            triclinic
loop_
_symmetry_equiv_pos_as_xyz
'x, y, z'
_cell_length_a     54.654195
_cell_length_b     57.25838
_cell_length_c     57.667839
_cell_angle_alpha  90.069225
_cell_angle_beta   90.146445
_cell_angle_gamma 86.860039
loop_
_atom_site_label
_atom_site_type_symbol
_atom_site_fract_x
_atom_site_fract_y
_atom_site_fract_z
_atom_type_partial_charge
C0 C 0.10266 0.14528 0.24421 0.0
C1 C 0.1122 0.12331 0.25197 0.0
C2 C 0.1313 0.11194 0.23931 0.0
C3 C 0.14069 0.12225 0.21947 0.0
H4 H 0.20112 0.11758 0.17662 0.0
H5 H 0.23798 0.10015 0.15848 0.0
H6 H 0.22847 0.14842 0.10122 0.0
H7 H 0.19211 0.16625 0.11959 0.0
H8 H 0.15549 0.20871 0.12406 0.0
H9 H 0.13718 0.2441 0.10682 0.0
H10 H 0.07968 0.2457 0.15813 0.0
H11 H 0.09838 0.21029 0.17587 0.0
H12 H 0.10412 0.17244 0.21878 0.0
H13 H 0.08779 0.15443 0.25343 0.0
H14 H 0.1393 0.09517 0.24492 0.0
H15 H 0.15547 0.1129 0.2103 0.0
N16 N 0.1617 0.14496 0.18016 0.0
N17 N 0.1603 0.17427 0.15186 0.0
N18 N 0.13062 0.17498 0.18122 0.0
C19 C 0.1713 0.15445 0.16085 0.0
C20 C 0.14001 0.18471 0.16184 0.0
C21 C 0.14138 0.15503 0.19049 0.0
C22 C 0.19357 0.14342 0.14966 0.0
C23 C 0.20686 0.1245 0.16016 0.0
C24 C 0.22798 0.11439 0.14967 0.0
C25 C 0.23632 0.12287 0.12836 0.0
C26 C 0.2229 0.14166 0.11781 0.0
C27 C 0.20189 0.15183 0.12833 0.0
C28 C 0.12846 0.20647 0.15143 0.0
C29 C 0.13893 0.21649 0.13177 0.0
C30 C 0.1283 0.2368 0.12171 0.0
C31 C 0.10682 0.24776 0.13093 0.0
C32 C 0.09635 0.23786 0.15066 0.0
C33 C 0.10702 0.21746 0.16078 0.0
C34 C 0.13117 0.1442 0.21162 0.0
C35 C 0.11196 0.15555 0.22424 0.0
C36 C 0.28142 0.90103 0.64784 0.0
C37 C 0.27313 0.89275 0.6264 0.0
C38 C 0.28639 0.87397 0.61573 0.0
C39 C 0.30737 0.86365 0.62625 0.0
H40 H 0.35374 0.80663 0.62192 0.0
H41 H 0.3721 0.7713 0.60459 0.0
H42 H 0.42982 0.76987 0.65595 0.0
H43 H 0.41108 0.80519 0.67378 0.0
H44 H 0.40499 0.84251 0.71716 0.0
H45 H 0.42117 0.86037 0.75208 0.0
H46 H 0.36986 0.91978 0.74341 0.0
H47 H 0.35383 0.90221 0.70853 0.0
H48 H 0.30835 0.89768 0.67482 0.0
H49 H 0.27176 0.91562 0.65641 0.0
H50 H 0.28034 0.86699 0.59935 0.0
H51 H 0.31701 0.84916 0.61751 0.0
N52 N 0.34901 0.84107 0.64978 0.0
N53 N 0.37868 0.84024 0.6793 0.0
N54 N 0.34758 0.87022 0.6783 0.0
C55 C 0.3693 0.83061 0.6598 0.0
C56 C 0.3679 0.86012 0.68865 0.0
C57 C 0.338 0.86083 0.65888 0.0
C58 C 0.38088 0.80892 0.64932 0.0
C59 C 0.37036 0.7989 0.62962 0.0
C60 C 0.38102 0.77863 0.61951 0.0
C61 C 0.40257 0.76774 0.62873 0.0
C62 C 0.4131 0.77765 0.64849 0.0
C63 C 0.4024 0.798 0.65866 0.0
C64 C 0.37806 0.87085 0.70991 0.0
C65 C 0.39717 0.85941 0.72264 0.0
C66 C 0.40638 0.86959 0.74276 0.0
C67 C 0.39685 0.89154 0.75055 0.0
C68 C 0.37785 0.90301 0.73776 0.0
C69 C 0.36854 0.8928 0.71779 0.0
C70 C 0.31573 0.87193 0.64769 0.0
C71 C 0.30251 0.8908 0.65832 0.0
C72 C 0.59758 0.35341 0.97783 0.0
C73 C 0.57508 0.34555 0.96999 0.0
C74 C 0.55938 0.36083 0.95708 0.0
C75 C 0.56673 0.38289 0.95079 0.0
H76 H 0.55664 0.42444 0.89545 0.0
H77 H 0.54226 0.43325 0.85636 0.0
H78 H 0.60018 0.48075 0.8475 0.0
H79 H 0.61469 0.47212 0.88676 0.0
H80 H 0.65915 0.46898 0.92092 0.0
H81 H 0.70081 0.47871 0.93036 0.0
H82 H 0.70018 0.43367 0.99032 0.0
H83 H 0.65839 0.424 0.98112 0.0
H84 H 0.62282 0.38066 0.97709 0.0
H85 H 0.60989 0.3421 0.9881 0.0
H86 H 0.54199 0.35525 0.95067 0.0
H87 H 0.55461 0.39379 0.93994 0.0
N88 N 0.58819 0.42127 0.92806 0.0
N89 N 0.6195 0.44726 0.92412 0.0
N90 N 0.62088 0.4199 0.95443 0.0
C91 C 0.59802 0.43912 0.91652 0.0
C92 C 0.63095 0.43788 0.94318 0.0
C93 C 0.59938 0.4116 0.94704 0.0
C94 C 0.5871 0.44729 0.89421 0.0
C95 C 0.56619 0.43702 0.88538 0.0
C96 C 0.55796 0.44197 0.86292 0.0
C97 C 0.57032 0.45741 0.8488 0.0
C98 C 0.59027 0.46881 0.85804 0.0
C99 C 0.59862 0.46378 0.88052 0.0
C100 C 0.6554 0.44553 0.95015 0.0
C101 C 0.66772 0.46129 0.93627 0.0
C102 C 0.69168 0.46679 0.94157 0.0
C103 C 0.70382 0.45679 0.96095 0.0
C104 C 0.69124 0.44174 0.97534 0.0
C105 C 0.66731 0.43613 0.96998 0.0
C106 C 0.58992 0.3902 0.95731 0.0
C107 C 0.6049 0.37556 0.97164 0.0
C108 C 0.81705 0.57195 0.47537 0.0
C109 C 0.80462 0.5569 0.46076 0.0
C110 C 0.81698 0.54685 0.44157 0.0
C111 C 0.84101 0.5523 0.43665 0.0
H112 H 0.8943 0.54168 0.38766 0.0
H113 H 0.90892 0.53336 0.34843 0.0
H114 H 0.96687 0.58073 0.35826 0.0
H115 H 0.95237 0.58923 0.39734 0.0
H116 H 0.95418 0.61963 0.44208 0.0
H117 H 0.96665 0.65823 0.45289 0.0
H118 H 0.89846 0.67146 0.48952 0.0
H119 H 0.88566 0.63284 0.47841 0.0
H120 H 0.84985 0.58966 0.48169 0.0
H121 H 0.80793 0.58007 0.49022 0.0
H122 H 0.80798 0.53491 0.4302 0.0
H123 H 0.84976 0.54456 0.42143 0.0
N124 N 0.88931 0.56635 0.42517 0.0
N125 N 0.92064 0.59226 0.42964 0.0
N126 N 0.88774 0.59361 0.45562 0.0
C127 C 0.91086 0.57448 0.41786 0.0
C128 C 0.90932 0.60188 0.44855 0.0
C129 C 0.87772 0.57568 0.44415 0.0
C130 C 0.92189 0.56642 0.39559 0.0
C131 C 0.9104 0.55005 0.38164 0.0
C132 C 0.91882 0.5452 0.35918 0.0
C133 C 0.93881 0.55666 0.35022 0.0
C134 C 0.95114 0.57196 0.3646 0.0
C135 C 0.94285 0.57673 0.38705 0.0
C136 C 0.91872 0.62327 0.45902 0.0
C137 C 0.94196 0.63056 0.45278 0.0
C138 C 0.94923 0.65266 0.45913 0.0
C139 C 0.9334 0.66799 0.47182 0.0
C140 C 0.91087 0.66012 0.47942 0.0
C141 C 0.90362 0.63793 0.47317 0.0
C142 C 0.85319 0.56806 0.45074 0.0
C143 C 0.84105 0.57752 0.47039 0.0
C144 C 0.77928 0.90143 0.86104 0.0
C145 C 0.77096 0.89309 0.88241 0.0
C146 C 0.78459 0.8746 0.89324 0.0
C147 C 0.80579 0.86458 0.88292 0.0
H148 H 0.85289 0.8085 0.88828 0.0
H149 H 0.87165 0.77371 0.90627 0.0
H150 H 0.92915 0.77165 0.85496 0.0
H151 H 0.91002 0.80647 0.83646 0.0
H152 H 0.90371 0.84343 0.79276 0.0
H153 H 0.91987 0.861 0.75779 0.0
H154 H 0.86813 0.92018 0.76558 0.0
H155 H 0.85212 0.90289 0.80051 0.0
H156 H 0.80629 0.89825 0.83421 0.0
H157 H 0.76912 0.91544 0.85203 0.0
H158 H 0.77905 0.86797 0.90989 0.0
H159 H 0.81572 0.85038 0.89187 0.0
N160 N 0.8477 0.84232 0.85983 0.0
N161 N 0.87741 0.84142 0.8305 0.0
N162 N 0.84599 0.87114 0.83103 0.0
C163 C 0.86811 0.83192 0.85004 0.0
C164 C 0.86644 0.8611 0.82089 0.0
C165 C 0.83648 0.86187 0.8505 0.0
C166 C 0.8799 0.81048 0.86085 0.0
C167 C 0.86955 0.80075 0.88072 0.0
C168 C 0.88043 0.78078 0.89121 0.0
C169 C 0.90206 0.76989 0.88222 0.0
C170 C 0.91239 0.77946 0.86226 0.0
C171 C 0.90147 0.79952 0.8517 0.0
C172 C 0.87656 0.87167 0.79958 0.0
C173 C 0.89579 0.86021 0.78708 0.0
C174 C 0.90499 0.87023 0.76693 0.0
C175 C 0.89534 0.89204 0.75887 0.0
C176 C 0.87622 0.90352 0.77142 0.0
C177 C 0.86692 0.89347 0.79143 0.0
C178 C 0.81406 0.87282 0.8615 0.0
C179 C 0.80057 0.89146 0.85074 0.0
C180 C 0.63028 0.10985 0.27256 0.0
C181 C 0.61128 0.12136 0.25982 0.0
C182 C 0.60167 0.14323 0.26775 0.0
C183 C 0.61081 0.15329 0.28796 0.0
H184 H 0.5965 0.20706 0.33721 0.0
H185 H 0.57741 0.24201 0.35546 0.0
H186 H 0.63496 0.24032 0.40699 0.0
H187 H 0.65368 0.20538 0.38925 0.0
H188 H 0.69063 0.16313 0.3933 0.0
H189 H 0.7273 0.14549 0.41144 0.0
H190 H 0.73726 0.09818 0.35339 0.0
H191 H 0.70012 0.11539 0.33547 0.0
H192 H 0.65424 0.1105 0.30186 0.0
H193 H 0.63833 0.09313 0.26681 0.0
H194 H 0.58688 0.15248 0.25845 0.0
H195 H 0.60294 0.17013 0.29354 0.0
N196 N 0.62909 0.17216 0.33149 0.0
N197 N 0.65877 0.17132 0.36099 0.0
N198 N 0.66043 0.14239 0.33225 0.0
C199 C 0.63839 0.18172 0.35106 0.0
C200 C 0.66994 0.15171 0.35175 0.0
C201 C 0.64002 0.15243 0.32198 0.0
C202 C 0.62663 0.20322 0.36173 0.0
C203 C 0.60507 0.21411 0.35245 0.0
C204 C 0.59417 0.23425 0.36286 0.0
C205 C 0.60454 0.24396 0.38281 0.0
C206 C 0.62616 0.23313 0.39193 0.0
C207 C 0.63702 0.21308 0.38159 0.0
C208 C 0.69233 0.14075 0.36284 0.0
C209 C 0.70057 0.14895 0.38435 0.0
C210 C 0.72175 0.1389 0.39473 0.0
C211 C 0.73539 0.12045 0.38388 0.0
C212 C 0.72709 0.11215 0.36242 0.0
C213 C 0.70581 0.12214 0.35206 0.0
C214 C 0.62993 0.14181 0.30064 0.0
C215 C 0.63952 0.11994 0.29263 0.0
C216 C 0.32113 0.54877 0.07068 0.0
C217 C 0.30886 0.55972 0.05187 0.0
C218 C 0.32163 0.57477 0.03764 0.0
C219 C 0.34593 0.57945 0.04266 0.0
H220 H 0.39244 0.63419 0.03752 0.0
H221 H 0.40721 0.67222 0.02753 0.0
H222 H 0.47716 0.65272 0.05907 0.0
H223 H 0.46222 0.61494 0.06961 0.0
H224 H 0.45791 0.5861 0.11636 0.0
H225 H 0.47182 0.57646 0.15544 0.0
H226 H 0.41274 0.53005 0.16317 0.0
H227 H 0.39872 0.5395 0.12395 0.0
H228 H 0.35409 0.54487 0.09055 0.0
H229 H 0.31185 0.5368 0.08174 0.0
H230 H 0.31259 0.58355 0.02308 0.0
H231 H 0.35502 0.59161 0.03168 0.0
N232 N 0.39363 0.59335 0.05755 0.0
N233 N 0.4267 0.59022 0.08348 0.0
N234 N 0.39424 0.56555 0.08743 0.0
C235 C 0.41565 0.6006 0.06478 0.0
C236 C 0.4162 0.57268 0.09491 0.0
C237 C 0.38291 0.57564 0.06865 0.0
C238 C 0.426 0.62167 0.05472 0.0
C239 C 0.41113 0.63782 0.04192 0.0
C240 C 0.41964 0.65963 0.03613 0.0
C241 C 0.44324 0.66566 0.04285 0.0
C242 C 0.45868 0.64884 0.05415 0.0
C243 C 0.45014 0.62712 0.06008 0.0
C244 C 0.42692 0.56386 0.11707 0.0
C245 C 0.44802 0.57356 0.12617 0.0
C246 C 0.45598 0.56814 0.14863 0.0
C247 C 0.44315 0.55279 0.16243 0.0
C248 C 0.42302 0.54191 0.15288 0.0
C249 C 0.41494 0.54742 0.13042 0.0
C250 C 0.35799 0.56906 0.06195 0.0
C251 C 0.34542 0.55331 0.07562 0.0
C252 C 0.0891 0.35365 0.53738 0.0
C253 C 0.06547 0.34777 0.54403 0.0
C254 C 0.05021 0.36464 0.55543 0.0
C255 C 0.05898 0.38623 0.56156 0.0
H256 H 0.0522 0.42637 0.61856 0.0
H257 H 0.03853 0.43592 0.65768 0.0
H258 H 0.09754 0.48245 0.66552 0.0
H259 H 0.11134 0.47307 0.62625 0.0
H260 H 0.15565 0.46792 0.59249 0.0
H261 H 0.19765 0.47633 0.58326 0.0
H262 H 0.19609 0.43012 0.52412 0.0
H263 H 0.15389 0.42173 0.53313 0.0
H264 H 0.11655 0.37886 0.53903 0.0
H265 H 0.10139 0.34102 0.52869 0.0
H266 H 0.03171 0.36087 0.5603 0.0
H267 H 0.04704 0.39844 0.57119 0.0
N268 N 0.08294 0.42263 0.58545 0.0
N269 N 0.11549 0.44721 0.58949 0.0
N270 N 0.11566 0.41971 0.55927 0.0
C271 C 0.09362 0.44003 0.59702 0.0
C272 C 0.12656 0.43729 0.57052 0.0
C273 C 0.09372 0.41243 0.56656 0.0
C274 C 0.08313 0.44868 0.6193 0.0
C275 C 0.06213 0.43891 0.62841 0.0
C276 C 0.05431 0.44427 0.65089 0.0
C277 C 0.06717 0.45965 0.66472 0.0
C278 C 0.08724 0.47057 0.6552 0.0
C279 C 0.09518 0.4651 0.63271 0.0
C280 C 0.15136 0.44398 0.56366 0.0
C281 C 0.16409 0.45966 0.57738 0.0
C282 C 0.18825 0.46441 0.5722 0.0
C283 C 0.20022 0.45371 0.55312 0.0
C284 C 0.18728 0.4387 0.53889 0.0
C285 C 0.16312 0.43383 0.54414 0.0
C286 C 0.08315 0.39152 0.55628 0.0
C287 C 0.09783 0.37535 0.54337 0.0
C288 C 0.02453 0.02 0.46323 0.0
N289 N 0.01348 0.05594 0.52565 0.0
C290 C 0.03586 0.06416 0.52117 0.0
C291 C 0.04018 0.08758 0.52506 0.0
C292 C 0.02126 0.10278 0.53352 0.0
C293 C 0.99876 0.09358 0.53932 0.0
C294 C 0.99522 0.06993 0.53517 0.0
Zn295 Zn 0.00698 0.02345 0.51336 0.0
C296 C 0.95876 0.02312 0.48891 0.0
N297 N 0.9952 0.95686 0.48399 0.0
C298 C 0.0133 0.94361 0.47333 0.0
C299 C 0.97308 0.94815 0.48857 0.0
C300 C 0.96877 0.925 0.48324 0.0
C301 C 0.98741 0.91059 0.47308 0.0
C302 C 0.00978 0.92029 0.4677 0.0
Zn303 Zn 1.00156 0.98924 0.49655 0.0
O304 O 0.02252 0.03306 0.48105 0.0
C305 C 0.04978 0.98957 0.52099 0.0
O306 O 0.01723 0.99931 0.46435 0.0
H307 H 0.95901 0.9589 0.49724 0.0
H308 H 0.05008 0.05283 0.51348 0.0
H309 H 0.03076 0.95091 0.46989 0.0
O310 O 0.04191 0.01037 0.52552 0.0
O311 O 0.0366 0.97662 0.50882 0.0
H312 H 0.97754 0.06304 0.53849 0.0
O313 O 0.98609 0.97961 0.52894 0.0
O314 O 0.99119 0.01349 0.54549 0.0
O315 O 0.96652 1.00226 0.48447 0.0
O316 O 0.97202 0.03606 0.501 0.0
C317 C 0.98396 0.99277 0.54669 0.0
H318 H 0.05793 0.09389 0.52075 0.0
H319 H 0.98367 0.10476 0.54579 0.0
H320 H 0.95138 0.9182 0.48803 0.0
H321 H 0.02454 0.90985 0.45964 0.0
C322 C 0.54853 0.99053 0.98874 0.0
N323 N 0.51232 0.05695 0.98434 0.0
C324 C 0.5345 0.0656 0.98893 0.0
C325 C 0.53887 0.0887 0.98358 0.0
C326 C 0.52025 0.10314 0.97337 0.0
C327 C 0.4978 0.09351 0.96802 0.0
C328 C 0.49421 0.07023 0.97369 0.0
Zn329 Zn 0.50593 0.02456 0.99676 0.0
C330 C 0.48256 0.99406 0.96334 0.0
N331 N 0.49392 0.95782 0.02549 0.0
C332 C 0.51221 0.9438 0.03496 0.0
C333 C 0.47148 0.94964 0.02104 0.0
C334 C 0.46714 0.92624 0.02491 0.0
C335 C 0.48609 0.91101 0.03333 0.0
C336 C 0.50865 0.92017 0.0391 0.0
Zn337 Zn 0.50044 0.99031 0.01335 0.0
O338 O 0.54083 0.01145 0.98449 0.0
C339 C 0.52387 0.02073 0.04677 0.0
O340 O 0.5353 0.97759 1.00078 0.0
H341 H 0.45723 0.96101 0.01339 0.0
H342 H 0.54857 0.05481 0.99759 0.0
H343 H 0.52994 0.95066 0.03826 0.0
O344 O 0.52169 0.03398 0.02911 0.0
O345 O 0.51652 1.00006 0.04546 0.0
H346 H 0.4767 0.06298 0.97023 0.0
O347 O 0.46562 1.00352 0.02573 0.0
O348 O 0.47101 0.03729 0.00921 0.0
O349 O 0.4846 0.98092 0.98107 0.0
O350 O 0.48998 0.0147 0.96458 0.0
C351 C 0.45785 0.02438 0.02136 0.0
H352 H 0.55632 0.09545 0.98835 0.0
H353 H 0.48305 0.10397 0.95992 0.0
H354 H 0.44934 0.91996 0.02063 0.0
H355 H 0.52377 0.90897 0.04553 0.0
C356 C 0.5148 0.46037 0.48999 0.0
N357 N 0.51612 0.48902 0.55717 0.0
C358 C 0.50682 0.46983 0.56699 0.0
C359 C 0.51147 0.46461 0.59031 0.0
C360 C 0.52605 0.47916 0.60346 0.0
C361 C 0.53588 0.4985 0.5927 0.0
C362 C 0.53055 0.5032 0.56949 0.0
Zn363 Zn 0.50719 0.49851 0.52403 0.0
C364 C 0.55008 0.51679 0.49921 0.0
N365 N 0.4887 0.52085 0.45552 0.0
C366 C 0.4743 0.50643 0.44347 0.0
C367 C 0.49847 0.53953 0.44516 0.0
C368 C 0.4946 0.54374 0.42152 0.0
C369 C 0.48046 0.52862 0.40851 0.0
C370 C 0.46978 0.51012 0.41997 0.0
Zn371 Zn 0.49756 0.51163 0.48877 0.0
O372 O 0.51667 0.46405 0.51167 0.0
C373 C 0.45467 0.49333 0.51362 0.0
O374 O 0.50719 0.47709 0.47689 0.0
H375 H 0.50993 0.55072 0.45506 0.0
H376 H 0.4954 0.4588 0.55686 0.0
H377 H 0.46685 0.49157 0.45194 0.0
O378 O 0.47057 0.48949 0.52946 0.0
O379 O 0.46106 0.50247 0.49467 0.0
H380 H 0.53751 0.51854 0.56146 0.0
O381 O 0.4881 0.54613 0.50113 0.0
O382 O 0.49756 0.53301 0.53591 0.0
O383 O 0.5342 0.52061 0.48334 0.0
O384 O 0.54367 0.50769 0.51817 0.0
C385 C 0.48999 0.54976 0.52283 0.0
H386 H 0.50369 0.44945 0.598 0.0
H387 H 0.54692 0.51032 0.60235 0.0
H388 H 0.50334 0.55813 0.41339 0.0
H389 H 0.45833 0.4983 0.41079 0.0
C390 C 0.9929 0.55456 0.99121 0.0
N391 N 0.99226 0.52641 0.05862 0.0
C392 C 1.00154 0.54569 0.06839 0.0
C393 C 0.99695 0.55102 0.09169 0.0
C394 C 0.98245 0.5365 0.10486 0.0
C395 C 0.97265 0.51708 0.09415 0.0
C396 C 0.97792 0.51226 0.07097 0.0
Zn397 Zn 1.00105 0.51672 0.02551 0.0
C398 C 0.95803 0.498 1.00089 0.0
N399 N 0.01909 0.49386 0.9571 0.0
C400 C 0.03334 0.50829 0.94501 0.0
C401 C 0.00947 0.47501 0.94684 0.0
C402 C 0.01338 0.47059 0.92324 0.0
C403 C 0.0274 0.48569 0.91019 0.0
C404 C 0.0379 0.50441 0.92156 0.0
Zn405 Zn 0.01036 0.5033 0.99031 0.0
O406 O 0.99128 0.55108 0.01293 0.0
C407 C 0.05339 0.52202 0.01494 0.0
O408 O 1.00044 0.53772 0.97821 0.0
H409 H 0.99812 0.46381 0.95677 0.0
H410 H 0.01288 0.55669 0.05824 0.0
H411 H 0.04067 0.52329 0.9534 0.0
O412 O 0.03765 0.52596 0.03084 0.0
O413 O 0.04683 0.51269 0.99609 0.0
H414 H 0.97099 0.49685 0.06298 0.0
O415 O 0.02012 0.46891 1.00287 0.0
O416 O 0.01095 0.4823 0.03761 0.0
O417 O 0.97376 0.49407 0.98499 0.0
O418 O 0.96458 0.50731 0.01975 0.0
C419 C 0.01847 0.46545 0.02461 0.0
H420 H 0.00471 0.56623 0.09936 0.0
H421 H 0.96168 0.50528 0.10381 0.0
H422 H 0.00479 0.45604 0.91517 0.0
H423 H 0.04925 0.51622 0.91235 0.0
C424 C 0.09721 0.12572 0.29327 0.0
C425 C 0.10246 0.11231 0.27327 0.0
C426 C 0.08866 0.11527 0.31342 0.0
C427 C 0.08483 0.05739 0.3424 0.0
H428 H 0.03684 0.09131 0.38082 0.0
C429 C 0.03722 0.01552 0.42131 0.0
C430 C 0.03439 0.02946 0.44134 0.0
C431 C 0.04563 0.02503 0.40056 0.0
C432 C 0.05041 0.08166 0.3704 0.0
H433 H 0.10222 0.07739 0.25872 0.0
H434 H 0.08702 0.05924 0.29368 0.0
H435 H 0.05081 0.10903 0.3452 0.0
H436 H 0.03856 0.06429 0.45521 0.0
H437 H 0.05313 0.08069 0.41924 0.0
H438 H 0.08419 0.02993 0.36764 0.0
C439 C 0.09003 0.07777 0.29402 0.0
C440 C 0.05849 0.09186 0.34995 0.0
C441 C 0.09871 0.0882 0.27391 0.0
C442 C 0.04042 0.05301 0.44015 0.0
C443 C 0.04864 0.0625 0.41944 0.0
C444 C 0.07663 0.04713 0.36282 0.0
C445 C 0.08496 0.09113 0.31412 0.0
C446 C 0.07595 0.07996 0.33571 0.0
C447 C 0.0512 0.04872 0.39932 0.0
C448 C 0.05945 0.05921 0.37718 0.0
H449 H 0.10022 0.14426 0.29352 0.0
H450 H 0.08539 0.12611 0.32862 0.0
H451 H 0.09854 0.04779 0.33211 0.0
H452 H 0.03274 0.99733 0.42159 0.0
H453 H 0.04725 0.01395 0.38535 0.0
C454 C 0.41032 0.9265 0.77279 0.0
C455 C 0.40644 0.90243 0.772 0.0
C456 C 0.41878 0.93686 0.79308 0.0
C457 C 0.44948 0.9226 0.84943 0.0
H458 H 0.42352 0.98448 0.86704 0.0
C459 C 0.46647 0.96123 0.94004 0.0
C460 C 0.47266 0.98473 0.94136 0.0
C461 C 0.45838 0.95181 0.9192 0.0
C462 C 0.43114 0.96729 0.86225 0.0
H463 H 0.40824 0.87044 0.79212 0.0
H464 H 0.4227 0.88847 0.82756 0.0
H465 H 0.40963 0.96671 0.83118 0.0
H466 H 0.4747 0.01685 0.92176 0.0
H467 H 0.46042 1.00035 0.88528 0.0
H468 H 0.47073 0.92308 0.88065 0.0
C469 C 0.41969 0.89933 0.81235 0.0
C470 C 0.42321 0.95709 0.84164 0.0
C471 C 0.41136 0.88895 0.79201 0.0
C472 C 0.47008 0.9987 0.92137 0.0
C473 C 0.46181 0.98927 0.90048 0.0
C474 C 0.45729 0.93274 0.87006 0.0
C475 C 0.42349 0.92345 0.8132 0.0
C476 C 0.4322 0.93454 0.83498 0.0
C477 C 0.45613 0.96562 0.89909 0.0
C478 C 0.44814 0.95517 0.8768 0.0
H479 H 0.40706 0.93734 0.75759 0.0
H480 H 0.42189 0.95538 0.79289 0.0
H481 H 0.45722 0.90545 0.84471 0.0
H482 H 0.46813 0.94993 0.95508 0.0
H483 H 0.45378 0.93365 0.91886 0.0
C484 C 0.55961 0.44029 0.81049 0.0
C485 C 0.56357 0.46015 0.82402 0.0
C486 C 0.5545 0.44245 0.78686 0.0
C487 C 0.5609 0.48265 0.73746 0.0
H488 H 0.51612 0.44164 0.70775 0.0
C489 C 0.55364 0.47666 0.63816 0.0
C490 C 0.53019 0.47498 0.62852 0.0
C491 C 0.55725 0.47439 0.66204 0.0
C492 C 0.5285 0.45339 0.71578 0.0
H493 H 0.56483 0.49789 0.82358 0.0
H494 H 0.55536 0.5018 0.78228 0.0
H495 H 0.52191 0.43979 0.74956 0.0
H496 H 0.49215 0.46948 0.63618 0.0
H497 H 0.49831 0.46589 0.67795 0.0
H498 H 0.56691 0.49676 0.7038 0.0
C499 C 0.5567 0.48448 0.78985 0.0
C500 C 0.53206 0.45213 0.73974 0.0
C501 C 0.56202 0.48228 0.8135 0.0
C502 C 0.51049 0.47055 0.64315 0.0
C503 C 0.51404 0.46849 0.66707 0.0
C504 C 0.5572 0.48403 0.71353 0.0
C505 C 0.55306 0.46455 0.77621 0.0
C506 C 0.54844 0.46663 0.75086 0.0
C507 C 0.53743 0.47061 0.67684 0.0
C508 C 0.5411 0.4693 0.70236 0.0
H509 H 0.56115 0.42295 0.81804 0.0
H510 H 0.55231 0.42669 0.77684 0.0
H511 H 0.57386 0.49389 0.74538 0.0
H512 H 0.56921 0.4798 0.62722 0.0
H513 H 0.5756 0.4756 0.6689 0.0
C514 C 0.94956 0.57415 0.31218 0.0
C515 C 0.94558 0.55416 0.32545 0.0
C516 C 0.95463 0.57222 0.28855 0.0
C517 C 0.94802 0.5325 0.23867 0.0
H518 H 0.99267 0.57378 0.20948 0.0
C519 C 0.95492 0.53912 0.13948 0.0
C520 C 0.97835 0.54079 0.1299 0.0
C521 C 0.95138 0.54134 0.16335 0.0
C522 C 0.98032 0.56196 0.21736 0.0
H523 H 0.9443 0.51643 0.32455 0.0
H524 H 0.95371 0.51292 0.28324 0.0
H525 H 0.98706 0.57525 0.25131 0.0
H526 H 0.01641 0.54628 0.13767 0.0
H527 H 0.01038 0.54979 0.17945 0.0
H528 H 0.94186 0.5187 0.20484 0.0
C529 C 0.9524 0.53017 0.29102 0.0
C530 C 0.97687 0.563 0.24134 0.0
C531 C 0.94711 0.53213 0.31467 0.0
C532 C 0.9981 0.54521 0.14459 0.0
C533 C 0.99461 0.54723 0.16851 0.0
C534 C 0.95161 0.53135 0.21472 0.0
C535 C 0.95602 0.55022 0.27763 0.0
C536 C 0.96054 0.5484 0.25227 0.0
C537 C 0.97125 0.54506 0.17822 0.0
C538 C 0.96767 0.54618 0.20374 0.0
H539 H 0.94804 0.59141 0.31993 0.0
H540 H 0.95682 0.58807 0.27873 0.0
H541 H 0.93508 0.52119 0.24644 0.0
H542 H 0.93933 0.536 0.12848 0.0
H543 H 0.93305 0.54012 0.17016 0.0
C544 C 0.26433 0.08795 0.11791 0.0
C545 C 0.25891 0.11225 0.11718 0.0
C546 C 0.28543 0.07804 0.10724 0.0
C547 C 0.33103 0.08939 0.06196 0.0
H548 H 0.37099 0.04127 0.09362 0.0
C549 C 0.42691 0.05764 0.02859 0.0
C550 C 0.43416 0.03382 0.03102 0.0
C551 C 0.40512 0.06677 0.03858 0.0
C552 C 0.35988 0.05444 0.08435 0.0
H553 H 0.27195 0.14518 0.10497 0.0
H554 H 0.30849 0.12789 0.0862 0.0
H555 H 0.33391 0.05788 0.11208 0.0
H556 H 0.42386 1.00084 0.04552 0.0
H557 H 0.38566 0.01666 0.06254 0.0
H558 H 0.35684 0.08591 0.03416 0.0
C559 C 0.29623 0.11646 0.09478 0.0
C560 C 0.33862 0.064 0.09499 0.0
C561 C 0.27522 0.12637 0.10553 0.0
C562 C 0.4189 0.0193 0.0434 0.0
C563 C 0.39705 0.02841 0.05331 0.0
C564 C 0.35222 0.07975 0.05126 0.0
C565 C 0.3016 0.09217 0.09547 0.0
C566 C 0.32399 0.08168 0.08398 0.0
C567 C 0.38994 0.05232 0.05119 0.0
C568 C 0.36701 0.06222 0.06235 0.0
H569 H 0.25205 0.07647 0.12638 0.0
H570 H 0.28887 0.05925 0.10786 0.0
H571 H 0.31997 0.10272 0.05283 0.0
H572 H 0.43827 0.06936 0.01927 0.0
H573 H 0.40047 0.08532 0.03684 0.0
C574 C 0.22958 0.90927 0.62844 0.0
C575 C 0.25066 0.90352 0.61525 0.0
C576 C 0.20832 0.91899 0.61788 0.0
C577 C 0.17768 0.92574 0.56052 0.0
H578 H 0.13745 0.97332 0.59259 0.0
C579 C 0.08894 0.99495 0.54272 0.0
C580 C 0.07363 0.98029 0.53046 0.0
C581 C 0.11098 0.986 0.55244 0.0
C582 C 0.14858 0.96022 0.58325 0.0
H583 H 0.26606 0.904 0.58066 0.0
H584 H 0.22913 0.9212 0.56226 0.0
H585 H 0.17514 0.95752 0.61057 0.0
H586 H 0.06963 0.9447 0.51869 0.0
H587 H 0.10779 0.92903 0.53596 0.0
H588 H 0.15142 0.92886 0.53295 0.0
C589 C 0.2288 0.91773 0.58071 0.0
C590 C 0.17007 0.95091 0.59373 0.0
C591 C 0.25002 0.90791 0.59127 0.0
C592 C 0.08103 0.95652 0.52793 0.0
C593 C 0.10301 0.94754 0.53775 0.0
C594 C 0.15623 0.93511 0.55 0.0
C595 C 0.20762 0.92333 0.59385 0.0
C596 C 0.18487 0.93349 0.58255 0.0
C597 C 0.11823 0.96213 0.55026 0.0
C598 C 0.14134 0.95243 0.56126 0.0
H599 H 0.22935 0.90581 0.6469 0.0
H600 H 0.19227 0.92269 0.62851 0.0
H601 H 0.18844 0.91217 0.55147 0.0
H602 H 0.08388 0.01338 0.54489 0.0
H603 H 0.1224 0.99785 0.5616 0.0
C604 C 0.73802 0.46577 0.98815 0.0
C605 C 0.72986 0.46125 0.96554 0.0
C606 C 0.76271 0.46941 0.99242 0.0
C607 C 0.82432 0.45724 0.96832 0.0
H608 H 0.84247 0.50843 0.00773 0.0
C609 C 0.92396 0.48514 0.97555 0.0
C610 C 0.9322 0.49236 0.99738 0.0
C611 C 0.89933 0.48072 0.97208 0.0
C612 C 0.83774 0.49384 0.99695 0.0
H613 H 0.7412 0.45673 0.92973 0.0
H614 H 0.78425 0.46324 0.93716 0.0
H615 H 0.79928 0.50201 1.00107 0.0
H616 H 0.92118 0.50006 0.03282 0.0
H617 H 0.87837 0.49189 0.02687 0.0
H618 H 0.8627 0.44893 0.96429 0.0
C619 C 0.77158 0.46391 0.95158 0.0
C620 C 0.81298 0.49021 0.99311 0.0
C621 C 0.74689 0.46044 0.9473 0.0
C622 C 0.91538 0.49468 0.01574 0.0
C623 C 0.89079 0.49013 0.0123 0.0
C624 C 0.84907 0.46078 0.97226 0.0
C625 C 0.77976 0.46839 0.97418 0.0
C626 C 0.80602 0.47195 0.97866 0.0
C627 C 0.88242 0.48328 0.99038 0.0
C628 C 0.85609 0.47919 0.98654 0.0
H629 H 0.72527 0.46662 1.00253 0.0
H630 H 0.76853 0.47268 0.01004 0.0
H631 H 0.81948 0.44281 0.95736 0.0
H632 H 0.93645 0.48327 0.96103 0.0
H633 H 0.89345 0.47577 0.9549 0.0
C634 C 0.77004 0.54804 0.48739 0.0
C635 C 0.7785 0.55248 0.46492 0.0
C636 C 0.7453 0.54438 0.49123 0.0
C637 C 0.68863 0.52883 0.46075 0.0
H638 H 0.65652 0.55515 0.51548 0.0
C639 C 0.58393 0.5293 0.4736 0.0
C640 C 0.5759 0.52229 0.49552 0.0
C641 C 0.60855 0.53355 0.46995 0.0
C642 C 0.6653 0.54756 0.5002 0.0
H643 H 0.76763 0.55702 0.42896 0.0
H644 H 0.72449 0.5509 0.43565 0.0
H645 H 0.69981 0.56116 0.50897 0.0
H646 H 0.58733 0.51467 0.53091 0.0
H647 H 0.63027 0.52216 0.5245 0.0
H648 H 0.65401 0.51542 0.4519 0.0
C649 C 0.737 0.54969 0.45025 0.0
C650 C 0.69011 0.55093 0.49651 0.0
C651 C 0.76173 0.55322 0.4464 0.0
C652 C 0.59293 0.52002 0.5138 0.0
C653 C 0.6175 0.52443 0.51018 0.0
C654 C 0.66379 0.52558 0.46438 0.0
C655 C 0.72847 0.54523 0.47271 0.0
C656 C 0.70209 0.54157 0.47674 0.0
C657 C 0.62561 0.53105 0.48817 0.0
C658 C 0.65188 0.53488 0.48416 0.0
H659 H 0.7826 0.54715 0.50196 0.0
H660 H 0.73942 0.54062 0.50869 0.0
H661 H 0.69736 0.52104 0.44554 0.0
H662 H 0.57126 0.53125 0.45916 0.0
H663 H 0.61424 0.53889 0.45286 0.0
C664 C 0.08594 0.28813 0.13363 0.0
C665 C 0.09566 0.26949 0.11998 0.0
C666 C 0.07648 0.30886 0.12329 0.0
C667 C 0.05382 0.33389 0.06707 0.0
H668 H 0.06813 0.39289 0.09571 0.0
C669 C 0.03494 0.42355 0.02126 0.0
C670 C 0.02584 0.44236 0.03503 0.0
C671 C 0.04264 0.40214 0.03145 0.0
C672 C 0.0637 0.37658 0.0876 0.0
H673 H 0.10226 0.25793 0.08458 0.0
H674 H 0.08634 0.29413 0.06666 0.0
H675 H 0.08265 0.35634 0.1139 0.0
H676 H 0.01734 0.45316 0.07033 0.0
H677 H 0.03054 0.41597 0.08793 0.0
H678 H 0.03503 0.35423 0.04065 0.0
C679 C 0.08582 0.29271 0.08537 0.0
C680 C 0.07201 0.35557 0.09807 0.0
C681 C 0.09525 0.27201 0.0957 0.0
C682 C 0.02435 0.43913 0.05916 0.0
C683 C 0.03208 0.4178 0.06931 0.0
C684 C 0.04554 0.35493 0.05656 0.0
C685 C 0.07646 0.31151 0.09901 0.0
C686 C 0.0672 0.33391 0.08797 0.0
C687 C 0.0415 0.39906 0.05564 0.0
C688 C 0.05035 0.37657 0.0667 0.0
H689 H 0.08609 0.28692 0.15237 0.0
H690 H 0.06914 0.32281 0.13437 0.0
H691 H 0.04944 0.31758 0.05893 0.0
H692 H 0.03638 0.42543 1.00264 0.0
H693 H 0.04999 0.38817 0.0204 0.0
C694 C 0.58689 0.30277 0.96865 0.0
C695 C 0.56903 0.32081 0.97307 0.0
C696 C 0.58069 0.27946 0.9687 0.0
C697 C 0.53484 0.23944 0.98866 0.0
H698 H 0.55882 0.20111 0.93714 0.0
C699 C 0.50515 0.14526 0.9756 0.0
C700 C 0.52385 0.12841 0.96991 0.0
C701 C 0.5094 0.16908 0.97473 0.0
C702 C 0.55215 0.2115 0.95175 0.0
H703 H 0.53093 0.32852 0.98199 0.0
H704 H 0.52008 0.28764 0.98208 0.0
H705 H 0.56927 0.24187 0.93957 0.0
H706 H 0.5613 0.1234 0.95777 0.0
H707 H 0.5689 0.16486 0.95676 0.0
H708 H 0.51804 0.209 1.00106 0.0
C709 C 0.53886 0.2916 0.97856 0.0
C710 C 0.55816 0.23484 0.95314 0.0
C711 C 0.54503 0.31498 0.97838 0.0
C712 C 0.5466 0.13594 0.96253 0.0
C713 C 0.55087 0.15973 0.96172 0.0
C714 C 0.52893 0.21604 0.98733 0.0
C715 C 0.55653 0.27365 0.97325 0.0
C716 C 0.54972 0.249 0.9717 0.0
C717 C 0.53245 0.17658 0.96817 0.0
C718 C 0.53766 0.20175 0.96893 0.0
H719 H 0.60547 0.3067 0.96422 0.0
H720 H 0.59477 0.26596 0.96486 0.0
H721 H 0.52824 0.24991 1.00325 0.0
H722 H 0.48747 0.14006 0.98155 0.0
H723 H 0.4947 0.18162 0.97947 0.0
C724 C 0.92144 0.71072 0.47012 0.0
C725 C 0.93934 0.69278 0.47482 0.0
C726 C 0.92756 0.73405 0.46999 0.0
C727 C 0.97332 0.77447 0.48968 0.0
H728 H 0.94919 0.81201 0.43764 0.0
C729 C 0.00272 0.86855 0.47562 0.0
C730 C 0.98393 0.88527 0.46975 0.0
C731 C 0.99855 0.8447 0.47497 0.0
C732 C 0.9559 0.80184 0.45238 0.0
H733 H 0.97744 0.6853 0.48405 0.0
H734 H 0.98816 0.72621 0.48381 0.0
H735 H 0.93885 0.77125 0.44052 0.0
H736 H 0.94643 0.89 0.45751 0.0
H737 H 0.93899 0.84849 0.45687 0.0
H738 H 0.99006 0.80513 0.50176 0.0
C739 C 0.9694 0.72215 0.48023 0.0
C740 C 0.94996 0.7785 0.45404 0.0
C741 C 0.9633 0.69875 0.48024 0.0
C742 C 0.96119 0.87757 0.4624 0.0
C743 C 0.95702 0.85375 0.46181 0.0
C744 C 0.97917 0.79786 0.48809 0.0
C745 C 0.95169 0.73998 0.47462 0.0
C746 C 0.95844 0.76463 0.4728 0.0
C747 C 0.97551 0.83705 0.46846 0.0
C748 C 0.97039 0.81186 0.4695 0.0
H749 H 0.90289 0.70669 0.46561 0.0
H750 H 0.91345 0.74746 0.46594 0.0
H751 H 0.97995 0.76423 0.50442 0.0
H752 H 0.02038 0.87389 0.48156 0.0
H753 H 0.0133 0.83226 0.47987 0.0
C754 C 0.42349 0.72743 0.63143 0.0
C755 C 0.41372 0.74604 0.61777 0.0
C756 C 0.43291 0.7067 0.62109 0.0
C757 C 0.45533 0.68155 0.56493 0.0
H758 H 0.44086 0.62267 0.59353 0.0
C759 C 0.47365 0.59166 0.51931 0.0
C760 C 0.48281 0.57294 0.53314 0.0
C761 C 0.46608 0.61314 0.52941 0.0
C762 C 0.44532 0.63895 0.58543 0.0
H763 H 0.40701 0.75758 0.58238 0.0
H764 H 0.42286 0.72135 0.56445 0.0
H765 H 0.42649 0.65929 0.61166 0.0
H766 H 0.49161 0.56235 0.56846 0.0
H767 H 0.47863 0.59967 0.58593 0.0
H768 H 0.474 0.66109 0.53857 0.0
C769 C 0.42345 0.7228 0.58316 0.0
C770 C 0.4371 0.65999 0.59587 0.0
C771 C 0.41405 0.74351 0.59349 0.0
C772 C 0.48453 0.57632 0.55725 0.0
C773 C 0.47693 0.59771 0.56732 0.0
C774 C 0.46351 0.66047 0.55444 0.0
C775 C 0.43283 0.70402 0.59681 0.0
C776 C 0.44199 0.6816 0.58579 0.0
C777 C 0.46743 0.61636 0.55359 0.0
C778 C 0.45865 0.63889 0.56458 0.0
H779 H 0.42339 0.72866 0.65017 0.0
H780 H 0.44028 0.69275 0.63216 0.0
H781 H 0.45974 0.69783 0.55681 0.0
H782 H 0.47204 0.58966 0.50069 0.0
H783 H 0.45866 0.62707 0.51833 0.0
C784 C 0.91005 0.88907 0.7175 0.0
C785 C 0.90494 0.90275 0.73736 0.0
C786 C 0.91831 0.89929 0.69711 0.0
C787 C 0.948 0.95133 0.67472 0.0
H788 H 0.92064 0.9328 0.61586 0.0
C789 C 0.97063 0.99769 0.58838 0.0
C790 C 0.97384 0.98352 0.56856 0.0
C791 C 0.9617 0.98848 0.60905 0.0
C792 C 0.92873 0.93801 0.63209 0.0
H793 H 0.90512 0.9379 0.7514 0.0
H794 H 0.91942 0.95571 0.71583 0.0
H795 H 0.90678 0.91523 0.65161 0.0
H796 H 0.97014 0.94847 0.55507 0.0
H797 H 0.9551 0.93246 0.59096 0.0
H798 H 0.97018 0.9739 0.65521 0.0
C799 C 0.91707 0.93706 0.71603 0.0
C800 C 0.92074 0.92792 0.65263 0.0
C801 C 0.90863 0.92687 0.73637 0.0
C802 C 0.96779 0.95999 0.56992 0.0
C803 C 0.95898 0.95079 0.59054 0.0
C804 C 0.9561 0.96135 0.65415 0.0
C805 C 0.92187 0.92343 0.69608 0.0
C806 C 0.93032 0.93437 0.67422 0.0
C807 C 0.95581 0.96487 0.61044 0.0
C808 C 0.94666 0.95476 0.63251 0.0
H809 H 0.90723 0.8705 0.71757 0.0
H810 H 0.92207 0.88823 0.68215 0.0
H811 H 0.95597 0.95653 0.69102 0.0
H812 H 0.97505 0.01589 0.58795 0.0
H813 H 0.95921 0.99996 0.62389 0.0
C814 C 0.59702 0.12423 0.21829 0.0
C815 C 0.6018 0.11062 0.23824 0.0
C816 C 0.58893 0.11397 0.1978 0.0
C817 C 0.55912 0.0621 0.17509 0.0
H818 H 0.58756 0.07999 0.11667 0.0
C819 C 0.53707 0.01567 0.08849 0.0
C820 C 0.53408 0.02986 0.06869 0.0
C821 C 0.54597 0.02481 0.10927 0.0
C822 C 0.57918 0.07496 0.13277 0.0
H823 H 0.6012 0.07558 0.25238 0.0
H824 H 0.58719 0.05767 0.21662 0.0
H825 H 0.60111 0.09761 0.15262 0.0
H826 H 0.53819 0.06484 0.0553 0.0
H827 H 0.55318 0.08075 0.09136 0.0
H828 H 0.53695 0.03967 0.15524 0.0
C829 C 0.58968 0.0763 0.21683 0.0
C830 C 0.58699 0.08508 0.15342 0.0
C831 C 0.59793 0.08654 0.23727 0.0
C832 C 0.54036 0.05333 0.07014 0.0
C833 C 0.54913 0.06245 0.09086 0.0
C834 C 0.5512 0.05205 0.15441 0.0
C835 C 0.58523 0.08985 0.19678 0.0
C836 C 0.577 0.07887 0.17484 0.0
C837 C 0.55204 0.04837 0.11076 0.0
C838 C 0.56104 0.05842 0.13294 0.0
H839 H 0.59998 0.14278 0.21837 0.0
H840 H 0.58543 0.12497 0.18276 0.0
H841 H 0.55084 0.05709 0.19126 0.0
H842 H 0.53247 0.99752 0.08799 0.0
H843 H 0.54825 0.01333 0.12412 0.0
C844 C 0.45038 0.52739 0.19751 0.0
C845 C 0.44954 0.54964 0.18725 0.0
C846 C 0.45509 0.52484 0.22123 0.0
C847 C 0.47902 0.55601 0.27243 0.0
H848 H 0.44187 0.51184 0.30678 0.0
C849 C 0.47481 0.55361 0.37278 0.0
C850 C 0.47767 0.53134 0.383 0.0
C851 C 0.47213 0.55589 0.34875 0.0
C852 C 0.45251 0.52412 0.29737 0.0
H853 H 0.45271 0.58667 0.19373 0.0
H854 H 0.46051 0.5823 0.23507 0.0
H855 H 0.43624 0.51539 0.26499 0.0
H856 H 0.48078 0.49404 0.37581 0.0
H857 H 0.47557 0.49809 0.33409 0.0
H858 H 0.49488 0.56501 0.30504 0.0
C859 C 0.4582 0.56672 0.2248 0.0
C860 C 0.44938 0.52608 0.27341 0.0
C861 C 0.45369 0.56924 0.20109 0.0
C862 C 0.47799 0.51145 0.36862 0.0
C863 C 0.47511 0.51374 0.34469 0.0
C864 C 0.48198 0.55418 0.29644 0.0
C865 C 0.45881 0.54451 0.23521 0.0
C866 C 0.46261 0.54204 0.26063 0.0
C867 C 0.47209 0.53595 0.33452 0.0
C868 C 0.46878 0.53818 0.30912 0.0
H869 H 0.44743 0.51198 0.18718 0.0
H870 H 0.45585 0.50743 0.22861 0.0
H871 H 0.48978 0.56823 0.2631 0.0
H872 H 0.47424 0.56927 0.38335 0.0
H873 H 0.46962 0.57323 0.34134 0.0
C874 C 0.05979 0.48518 0.6997 0.0
C875 C 0.06082 0.46288 0.68951 0.0
C876 C 0.05491 0.48785 0.72337 0.0
C877 C 0.03067 0.45684 0.77432 0.0
H878 H 0.06692 0.50164 0.80902 0.0
C879 C 0.03351 0.46032 0.87474 0.0
C880 C 0.03034 0.4827 0.88474 0.0
C881 C 0.03648 0.45779 0.85077 0.0
C882 C 0.05653 0.48918 0.79951 0.0
H883 H 0.05786 0.42586 0.69606 0.0
H884 H 0.04979 0.43041 0.73731 0.0
H885 H 0.07318 0.49774 0.76735 0.0
H886 H 0.02689 0.5199 0.87718 0.0
H887 H 0.03261 0.51542 0.83558 0.0
H888 H 0.01443 0.44801 0.80671 0.0
C889 C 0.05207 0.44595 0.72703 0.0
C890 C 0.06002 0.48701 0.77562 0.0
C891 C 0.05674 0.44332 0.70337 0.0
C892 C 0.02993 0.50242 0.87018 0.0
C893 C 0.0331 0.49989 0.84632 0.0
C894 C 0.02735 0.45887 0.79826 0.0
C895 C 0.05122 0.46822 0.73735 0.0
C896 C 0.04711 0.47084 0.76271 0.0
C897 C 0.0365 0.47758 0.83638 0.0
C898 C 0.04021 0.4751 0.81106 0.0
H899 H 0.06268 0.50056 0.68935 0.0
H900 H 0.05398 0.5053 0.73068 0.0
H901 H 0.02014 0.44445 0.76488 0.0
H902 H 0.03414 0.44478 0.88546 0.0
H903 H 0.03927 0.44038 0.84354 0.0
C904 C 0.73195 0.88917 0.90494 0.0
C905 C 0.74811 0.90346 0.89335 0.0
C906 C 0.71067 0.89883 0.91542 0.0
C907 C 0.68202 0.95495 0.93731 0.0
H908 H 0.62241 0.9213 0.93464 0.0
C909 C 0.58742 0.99552 0.96654 0.0
C910 C 0.57219 0.98105 0.97904 0.0
C911 C 0.6092 0.98633 0.95654 0.0
C912 C 0.63897 0.93081 0.93576 0.0
H913 H 0.7544 0.93929 0.88386 0.0
H914 H 0.71696 0.95604 0.90155 0.0
H915 H 0.65941 0.90492 0.91593 0.0
H916 H 0.56817 0.94558 0.99108 0.0
H917 H 0.60613 0.9296 0.97369 0.0
H918 H 0.66138 0.98097 0.95697 0.0
C919 C 0.72095 0.93735 0.90285 0.0
C920 C 0.66023 0.9214 0.92504 0.0
C921 C 0.7423 0.92769 0.89242 0.0
C922 C 0.57942 0.95724 0.98154 0.0
C923 C 0.60112 0.94803 0.97143 0.0
C924 C 0.6607 0.96442 0.94795 0.0
C925 C 0.70484 0.92306 0.91452 0.0
C926 C 0.68209 0.93329 0.92572 0.0
C927 C 0.6162 0.96242 0.95869 0.0
C928 C 0.63893 0.95243 0.94737 0.0
H929 H 0.73561 0.87041 0.90578 0.0
H930 H 0.69891 0.88727 0.92447 0.0
H931 H 0.69857 0.96445 0.93854 0.0
H932 H 0.58241 0.01394 0.96426 0.0
H933 H 0.62028 0.99786 0.94668 0.0
C934 C 0.77443 0.12435 0.4065 0.0
C935 C 0.75823 0.11007 0.39484 0.0
C936 C 0.79578 0.11468 0.41692 0.0
C937 C 0.82466 0.05857 0.43847 0.0
H938 H 0.88423 0.09223 0.43553 0.0
C939 C 0.91968 0.01807 0.46687 0.0
C940 C 0.93497 0.03254 0.4794 0.0
C941 C 0.89776 0.02724 0.45705 0.0
C942 C 0.86769 0.08272 0.43672 0.0
H943 H 0.75189 0.07426 0.38521 0.0
H944 H 0.78945 0.05749 0.40279 0.0
H945 H 0.84702 0.10862 0.41708 0.0
H946 H 0.93898 0.06796 0.4917 0.0
H947 H 0.90078 0.08389 0.47461 0.0
H948 H 0.84554 0.03253 0.45792 0.0
C949 C 0.78545 0.07617 0.40418 0.0
C950 C 0.84631 0.09213 0.42616 0.0
C951 C 0.76403 0.08584 0.39382 0.0
C952 C 0.92768 0.05632 0.48212 0.0
C953 C 0.90585 0.0655 0.4722 0.0
C954 C 0.8461 0.04909 0.44894 0.0
C955 C 0.80161 0.09047 0.41589 0.0
C956 C 0.82447 0.08023 0.42694 0.0
C957 C 0.8907 0.05112 0.45941 0.0
C958 C 0.86785 0.0611 0.44826 0.0
H959 H 0.77077 0.1431 0.40741 0.0
H960 H 0.80759 0.12622 0.42601 0.0
H961 H 0.80813 0.04907 0.43975 0.0
H962 H 0.92474 0.99968 0.46443 0.0
H963 H 0.88661 0.01573 0.44715 0.0
C964 C 0.26601 0.55694 0.06639 0.0
C965 C 0.28253 0.55618 0.04774 0.0
C966 C 0.24114 0.55392 0.06266 0.0
C967 C 0.19349 0.55617 0.01681 0.0
H968 H 0.15787 0.52036 0.06127 0.0
C969 C 0.09598 0.52549 1.0 0.0
C970 C 0.07922 0.52763 0.01844 0.0
C971 C 0.1206 0.52993 1.00345 0.0
C972 C 0.16751 0.53061 0.04884 0.0
H973 H 0.28601 0.55148 0.01059 0.0
H974 H 0.24257 0.54581 1.00405 0.0
H975 H 0.20134 0.52566 0.06731 0.0
H976 H 0.07508 0.53645 0.05487 0.0
H977 H 0.11815 0.54412 0.06088 0.0
H978 H 0.15961 0.56074 0.99817 0.0
C979 C 0.24876 0.54918 0.02152 0.0
C980 C 0.19243 0.53368 0.0523 0.0
C981 C 0.27365 0.55236 0.02525 0.0
C982 C 0.08754 0.5346 0.04033 0.0
C983 C 0.11222 0.53887 0.0438 0.0
C984 C 0.16859 0.55296 0.01328 0.0
C985 C 0.2322 0.54993 0.0402 0.0
C986 C 0.20572 0.54653 0.03635 0.0
C987 C 0.12901 0.53645 0.02543 0.0
C988 C 0.15535 0.54018 0.02928 0.0
H989 H 0.27225 0.56028 0.08386 0.0
H990 H 0.22887 0.55507 0.07737 0.0
H991 H 0.20306 0.56648 1.00438 0.0
H992 H 0.09014 0.52019 0.98291 0.0
H993 H 0.13316 0.52773 0.98901 0.0
C994 C 0.23477 0.46162 0.52609 0.0
C995 C 0.22641 0.45754 0.54866 0.0
C996 C 0.25952 0.4651 0.52205 0.0
C997 C 0.31625 0.48103 0.55219 0.0
H998 H 0.34831 0.45455 0.49751 0.0
C999 C 0.42087 0.48076 0.53924 0.0
C1000 C 0.42887 0.48777 0.5173 0.0
C1001 C 0.39626 0.47643 0.5429 0.0
C1002 C 0.33954 0.46218 0.51277 0.0
H1003 H 0.23749 0.45326 0.5846 0.0
H1004 H 0.28064 0.45901 0.57757 0.0
H1005 H 0.30506 0.44839 0.50417 0.0
H1006 H 0.41742 0.49529 0.4819 0.0
H1007 H 0.3745 0.48766 0.48832 0.0
H1008 H 0.35082 0.49461 0.56087 0.0
C1009 C 0.26805 0.46013 0.56303 0.0
C1010 C 0.31475 0.45873 0.51656 0.0
C1011 C 0.24332 0.45681 0.56707 0.0
C1012 C 0.41184 0.48995 0.49902 0.0
C1013 C 0.38728 0.48545 0.50264 0.0
C1014 C 0.34105 0.48435 0.54847 0.0
C1015 C 0.27646 0.46439 0.54049 0.0
C1016 C 0.3028 0.46812 0.53632 0.0
C1017 C 0.3792 0.47885 0.52467 0.0
C1018 C 0.35295 0.47498 0.52872 0.0
H1019 H 0.2221 0.46248 0.5116 0.0
H1020 H 0.26531 0.46867 0.50452 0.0
H1021 H 0.30754 0.48887 0.56737 0.0
H1022 H 0.43354 0.47888 0.55367 0.0
H1023 H 0.3906 0.47111 0.55999 0.0
C1024 C 0.92357 0.72973 0.88057 0.0
C1025 C 0.91354 0.74861 0.89372 0.0
C1026 C 0.93336 0.70941 0.89147 0.0
C1027 C 0.93082 0.67655 0.94668 0.0
H1028 H 0.98978 0.64383 0.9236 0.0
C1029 C 0.97645 0.59643 0.99461 0.0
C1030 C 0.98547 0.57763 0.9808 0.0
C1031 C 0.96868 0.61783 0.98447 0.0
C1032 C 0.97315 0.6526 0.93016 0.0
H1033 H 0.90689 0.76112 0.9288 0.0
H1034 H 0.92383 0.7258 0.94771 0.0
H1035 H 0.97442 0.67989 0.90485 0.0
H1036 H 0.99356 0.56677 0.94544 0.0
H1037 H 0.97982 0.60378 0.92786 0.0
H1038 H 0.92938 0.64918 0.97183 0.0
C1039 C 0.92371 0.72649 0.92894 0.0
C1040 C 0.96434 0.67331 0.91938 0.0
C1041 C 0.91398 0.74678 0.91806 0.0
C1042 C 0.98679 0.58086 0.95666 0.0
C1043 C 0.97903 0.6022 0.94655 0.0
C1044 C 0.9396 0.65582 0.95743 0.0
C1045 C 0.93336 0.70745 0.9158 0.0
C1046 C 0.94301 0.68554 0.92745 0.0
C1047 C 0.96976 0.62097 0.96027 0.0
C1048 C 0.96084 0.64349 0.94927 0.0
H1049 H 0.92329 0.73037 0.8618 0.0
H1050 H 0.94037 0.69501 0.88077 0.0
H1051 H 0.91413 0.68528 0.95316 0.0
H1052 H 0.97523 0.59459 0.01325 0.0
H1053 H 0.96196 0.63197 0.99563 0.0
C1054 C 0.44448 0.70301 0.02004 0.0
C1055 C 0.45088 0.68999 0.04001 0.0
C1056 C 0.44986 0.72654 0.01845 0.0
C1057 C 0.48812 0.77145 0.04374 0.0
H1058 H 0.43588 0.81458 0.02204 0.0
C1059 C 0.49159 0.87193 0.05314 0.0
C1060 C 0.48279 0.88549 0.0343 0.0
C1061 C 0.48848 0.84784 0.05363 0.0
C1062 C 0.45077 0.80276 0.02788 0.0
H1063 H 0.46813 0.69152 0.0739 0.0
H1064 H 0.47768 0.73238 0.071 0.0
H1065 H 0.42985 0.77277 0.02226 0.0
H1066 H 0.46466 0.88433 1.00083 0.0
H1067 H 0.45934 0.84249 1.00165 0.0
H1068 H 0.50903 0.8015 0.04939 0.0
C1069 C 0.46879 0.72434 0.05645 0.0
C1070 C 0.44732 0.77879 0.02797 0.0
C1071 C 0.46335 0.70087 0.05807 0.0
C1072 C 0.47112 0.87446 0.01586 0.0
C1073 C 0.46808 0.85046 0.01632 0.0
C1074 C 0.49161 0.79545 0.0436 0.0
C1075 C 0.46178 0.73752 0.03678 0.0
C1076 C 0.46593 0.76288 0.03592 0.0
C1077 C 0.47661 0.83687 0.03523 0.0
C1078 C 0.47296 0.81137 0.03567 0.0
H1079 H 0.43514 0.69507 0.0057 0.0
H1080 H 0.44455 0.73619 1.00293 0.0
H1081 H 0.50288 0.75957 0.04978 0.0
H1082 H 0.50055 0.87999 0.06763 0.0
H1083 H 0.49502 0.83788 0.06857 0.0
C1084 C 0.04512 0.31266 0.55897 0.0
C1085 C 0.0576 0.32353 0.54099 0.0
C1086 C 0.03948 0.28926 0.55719 0.0
C1087 C 0.06036 0.23482 0.52832 0.0
H1088 H 0.99865 0.21242 0.54977 0.0
C1089 C 0.036 0.13931 0.51599 0.0
C1090 C 0.02451 0.1283 0.53446 0.0
C1091 C 0.03908 0.16331 0.51646 0.0
C1092 C 0.01607 0.21839 0.54396 0.0
H1093 H 0.07311 0.31852 0.50666 0.0
H1094 H 0.06331 0.27751 0.50358 0.0
H1095 H 0.00507 0.2543 0.55033 0.0
H1096 H 0.00705 0.13386 0.56786 0.0
H1097 H 0.01266 0.17596 0.56883 0.0
H1098 H 0.07153 0.199 0.52221 0.0
C1099 C 0.05818 0.28711 0.51917 0.0
C1100 C 0.01971 0.24236 0.5442 0.0
C1101 C 0.06378 0.31058 0.52093 0.0
C1102 C 0.01589 0.14189 0.55335 0.0
C1103 C 0.01904 0.16598 0.55385 0.0
C1104 C 0.05675 0.21089 0.52813 0.0
C1105 C 0.04625 0.27614 0.53742 0.0
C1106 C 0.04191 0.25082 0.53639 0.0
C1107 C 0.03078 0.17692 0.53544 0.0
C1108 C 0.03456 0.20239 0.53593 0.0
H1109 H 0.04052 0.32196 0.57487 0.0
H1110 H 0.0306 0.28122 0.57167 0.0
H1111 H 0.07784 0.24075 0.52262 0.0
H1112 H 0.04232 0.12942 0.50093 0.0
H1113 H 0.04772 0.17125 0.50178 0.0
C1114 C 0.59263 0.26733 0.41845 0.0
C1115 C 0.5931 0.26532 0.39412 0.0
C1116 C 0.58294 0.28771 0.42916 0.0
C1117 C 0.54248 0.34086 0.41916 0.0
H1118 H 0.57778 0.36546 0.47139 0.0
C1119 C 0.52058 0.43373 0.45565 0.0
C1120 C 0.52203 0.43718 0.47976 0.0
C1121 C 0.52819 0.41226 0.44571 0.0
C1122 C 0.56747 0.35869 0.45705 0.0
H1123 H 0.58345 0.28333 0.36205 0.0
H1124 H 0.56644 0.31887 0.38074 0.0
H1125 H 0.59285 0.32914 0.45303 0.0
H1126 H 0.5323 0.42051 0.51236 0.0
H1127 H 0.5453 0.3829 0.49504 0.0
H1128 H 0.51713 0.37043 0.42314 0.0
C1129 C 0.5734 0.30453 0.39154 0.0
C1130 C 0.57614 0.33784 0.44648 0.0
C1131 C 0.58314 0.28412 0.38081 0.0
C1132 C 0.53099 0.41849 0.49373 0.0
C1133 C 0.5386 0.39696 0.48377 0.0
C1134 C 0.53377 0.36169 0.42976 0.0
C1135 C 0.57338 0.30667 0.41586 0.0
C1136 C 0.56383 0.32869 0.42734 0.0
C1137 C 0.53742 0.3936 0.45959 0.0
C1138 C 0.54621 0.37096 0.44879 0.0
H1139 H 0.59967 0.25305 0.4293 0.0
H1140 H 0.58281 0.28856 0.44793 0.0
H1141 H 0.53232 0.33415 0.40468 0.0
H1142 H 0.51384 0.44773 0.44432 0.0
H1143 H 0.52733 0.41049 0.42703 0.0
loop_
_geom_bond_atom_site_label_1
_geom_bond_atom_site_label_2
_geom_bond_distance
_geom_bond_site_symmetry_2
_ccdc_geom_bond_type
C0 C1 1.384 . S
C0 H13 0.947 . S
C0 C35 1.382 . S
C1 C0 1.384 . S
C1 C2 1.378 . S
C2 C1 1.378 . S
C2 C3 1.378 . S
C2 H14 0.952 . S
C3 C2 1.378 . S
C3 H15 0.950 . S
C3 C34 1.383 . S
H4 C23 0.947 . S
H5 C24 0.946 . S
H6 C26 0.953 . S
H7 C27 0.945 . S
H8 C29 0.952 . S
H9 C30 0.949 . S
H10 C32 0.950 . S
H11 C33 0.948 . S
H12 C35 0.951 . S
H13 C0 0.947 . S
H14 C2 0.952 . S
H15 C3 0.950 . S
N16 C19 1.382 . S
N16 C21 1.363 . S
N17 C19 1.371 . S
N17 C20 1.372 . S
N18 C20 1.361 . S
N18 C21 1.377 . S
C19 N16 1.382 . S
C19 N17 1.371 . S
C19 C22 1.480 . S
C20 N17 1.372 . S
C20 N18 1.361 . S
C20 C28 1.457 . S
C21 N16 1.363 . S
C21 N18 1.377 . S
C21 C34 1.479 . S
C22 C19 1.480 . S
C22 C23 1.383 . S
C22 C27 1.385 . S
C23 H4 0.947 . S
C23 C22 1.383 . S
C23 C24 1.388 . S
C24 H5 0.946 . S
C24 C23 1.388 . S
C24 C25 1.384 . S
C25 C24 1.384 . S
C25 C26 1.377 . S
C26 H6 0.953 . S
C26 C25 1.377 . S
C26 C27 1.369 . S
C27 H7 0.945 . S
C27 C22 1.385 . S
C27 C26 1.369 . S
C28 C20 1.457 . S
C28 C29 1.372 . S
C28 C33 1.364 . S
C29 H8 0.952 . S
C29 C28 1.372 . S
C29 C30 1.389 . S
C30 H9 0.949 . S
C30 C29 1.389 . S
C30 C31 1.387 . S
C31 C30 1.387 . S
C31 C32 1.372 . S
C32 H10 0.950 . S
C32 C31 1.372 . S
C32 C33 1.379 . S
C33 H11 0.948 . S
C33 C28 1.364 . S
C33 C32 1.379 . S
C34 C3 1.383 . S
C34 C21 1.479 . S
C34 C35 1.398 . S
C35 C0 1.382 . S
C35 H12 0.951 . S
C35 C34 1.398 . S
C36 C37 1.384 . S
C36 H49 0.947 . S
C36 C71 1.382 . S
C37 C36 1.384 . S
C37 C38 1.378 . S
C38 C37 1.378 . S
C38 C39 1.378 . S
C38 H50 0.952 . S
C39 C38 1.378 . S
C39 H51 0.950 . S
C39 C70 1.383 . S
H40 C59 0.947 . S
H41 C60 0.946 . S
H42 C62 0.953 . S
H43 C63 0.945 . S
H44 C65 0.952 . S
H45 C66 0.949 . S
H46 C68 0.950 . S
H47 C69 0.948 . S
H48 C71 0.951 . S
H49 C36 0.947 . S
H50 C38 0.952 . S
H51 C39 0.950 . S
N52 C55 1.382 . S
N52 C57 1.363 . S
N53 C55 1.371 . S
N53 C56 1.372 . S
N54 C56 1.361 . S
N54 C57 1.377 . S
C55 N52 1.382 . S
C55 N53 1.371 . S
C55 C58 1.480 . S
C56 N53 1.372 . S
C56 N54 1.361 . S
C56 C64 1.457 . S
C57 N52 1.363 . S
C57 N54 1.377 . S
C57 C70 1.479 . S
C58 C55 1.480 . S
C58 C59 1.383 . S
C58 C63 1.385 . S
C59 H40 0.947 . S
C59 C58 1.383 . S
C59 C60 1.388 . S
C60 H41 0.946 . S
C60 C59 1.388 . S
C60 C61 1.384 . S
C61 C60 1.384 . S
C61 C62 1.377 . S
C62 H42 0.953 . S
C62 C61 1.377 . S
C62 C63 1.369 . S
C63 H43 0.945 . S
C63 C58 1.385 . S
C63 C62 1.369 . S
C64 C56 1.457 . S
C64 C65 1.372 . S
C64 C69 1.364 . S
C65 H44 0.952 . S
C65 C64 1.372 . S
C65 C66 1.389 . S
C66 H45 0.949 . S
C66 C65 1.389 . S
C66 C67 1.387 . S
C67 C66 1.387 . S
C67 C68 1.372 . S
C68 H46 0.950 . S
C68 C67 1.372 . S
C68 C69 1.379 . S
C69 H47 0.948 . S
C69 C64 1.364 . S
C69 C68 1.379 . S
C70 C39 1.383 . S
C70 C57 1.479 . S
C70 C71 1.398 . S
C71 C36 1.382 . S
C71 H48 0.951 . S
C71 C70 1.398 . S
C72 C73 1.384 . S
C72 H85 0.947 . S
C72 C107 1.382 . S
C73 C72 1.384 . S
C73 C74 1.378 . S
C74 C73 1.378 . S
C74 C75 1.378 . S
C74 H86 0.952 . S
C75 C74 1.378 . S
C75 H87 0.950 . S
C75 C106 1.383 . S
H76 C95 0.947 . S
H77 C96 0.946 . S
H78 C98 0.953 . S
H79 C99 0.945 . S
H80 C101 0.952 . S
H81 C102 0.949 . S
H82 C104 0.950 . S
H83 C105 0.948 . S
H84 C107 0.951 . S
H85 C72 0.947 . S
H86 C74 0.952 . S
H87 C75 0.950 . S
N88 C91 1.382 . S
N88 C93 1.363 . S
N89 C91 1.371 . S
N89 C92 1.372 . S
N90 C92 1.361 . S
N90 C93 1.377 . S
C91 N88 1.382 . S
C91 N89 1.371 . S
C91 C94 1.480 . S
C92 N89 1.372 . S
C92 N90 1.361 . S
C92 C100 1.457 . S
C93 N88 1.363 . S
C93 N90 1.377 . S
C93 C106 1.479 . S
C94 C91 1.480 . S
C94 C95 1.383 . S
C94 C99 1.385 . S
C95 H76 0.947 . S
C95 C94 1.383 . S
C95 C96 1.388 . S
C96 H77 0.946 . S
C96 C95 1.388 . S
C96 C97 1.384 . S
C97 C96 1.384 . S
C97 C98 1.377 . S
C98 H78 0.953 . S
C98 C97 1.377 . S
C98 C99 1.369 . S
C99 H79 0.945 . S
C99 C94 1.385 . S
C99 C98 1.369 . S
C100 C92 1.457 . S
C100 C101 1.372 . S
C100 C105 1.364 . S
C101 H80 0.952 . S
C101 C100 1.372 . S
C101 C102 1.389 . S
C102 H81 0.949 . S
C102 C101 1.389 . S
C102 C103 1.387 . S
C103 C102 1.387 . S
C103 C104 1.372 . S
C104 H82 0.950 . S
C104 C103 1.372 . S
C104 C105 1.379 . S
C105 H83 0.948 . S
C105 C100 1.364 . S
C105 C104 1.379 . S
C106 C75 1.383 . S
C106 C93 1.479 . S
C106 C107 1.398 . S
C107 C72 1.382 . S
C107 H84 0.951 . S
C107 C106 1.398 . S
C108 C109 1.384 . S
C108 H121 0.947 . S
C108 C143 1.382 . S
C109 C108 1.384 . S
C109 C110 1.378 . S
C110 C109 1.378 . S
C110 C111 1.378 . S
C110 H122 0.952 . S
C111 C110 1.378 . S
C111 H123 0.950 . S
C111 C142 1.383 . S
H112 C131 0.947 . S
H113 C132 0.946 . S
H114 C134 0.953 . S
H115 C135 0.945 . S
H116 C137 0.952 . S
H117 C138 0.949 . S
H118 C140 0.950 . S
H119 C141 0.948 . S
H120 C143 0.951 . S
H121 C108 0.947 . S
H122 C110 0.952 . S
H123 C111 0.950 . S
N124 C127 1.382 . S
N124 C129 1.363 . S
N125 C127 1.371 . S
N125 C128 1.372 . S
N126 C128 1.361 . S
N126 C129 1.377 . S
C127 N124 1.382 . S
C127 N125 1.371 . S
C127 C130 1.480 . S
C128 N125 1.372 . S
C128 N126 1.361 . S
C128 C136 1.457 . S
C129 N124 1.363 . S
C129 N126 1.377 . S
C129 C142 1.479 . S
C130 C127 1.480 . S
C130 C131 1.383 . S
C130 C135 1.385 . S
C131 H112 0.947 . S
C131 C130 1.383 . S
C131 C132 1.388 . S
C132 H113 0.946 . S
C132 C131 1.388 . S
C132 C133 1.384 . S
C133 C132 1.384 . S
C133 C134 1.377 . S
C134 H114 0.953 . S
C134 C133 1.377 . S
C134 C135 1.369 . S
C135 H115 0.945 . S
C135 C130 1.385 . S
C135 C134 1.369 . S
C136 C128 1.457 . S
C136 C137 1.372 . S
C136 C141 1.364 . S
C137 H116 0.952 . S
C137 C136 1.372 . S
C137 C138 1.389 . S
C138 H117 0.949 . S
C138 C137 1.389 . S
C138 C139 1.387 . S
C139 C138 1.387 . S
C139 C140 1.372 . S
C140 H118 0.950 . S
C140 C139 1.372 . S
C140 C141 1.379 . S
C141 H119 0.948 . S
C141 C136 1.364 . S
C141 C140 1.379 . S
C142 C111 1.383 . S
C142 C129 1.479 . S
C142 C143 1.398 . S
C143 C108 1.382 . S
C143 H120 0.951 . S
C143 C142 1.398 . S
C144 C145 1.384 . S
C144 H157 0.947 . S
C144 C179 1.382 . S
C145 C144 1.384 . S
C145 C146 1.378 . S
C146 C145 1.378 . S
C146 C147 1.378 . S
C146 H158 0.952 . S
C147 C146 1.378 . S
C147 H159 0.950 . S
C147 C178 1.383 . S
H148 C167 0.947 . S
H149 C168 0.946 . S
H150 C170 0.953 . S
H151 C171 0.945 . S
H152 C173 0.952 . S
H153 C174 0.949 . S
H154 C176 0.950 . S
H155 C177 0.948 . S
H156 C179 0.951 . S
H157 C144 0.947 . S
H158 C146 0.952 . S
H159 C147 0.950 . S
N160 C163 1.382 . S
N160 C165 1.363 . S
N161 C163 1.371 . S
N161 C164 1.372 . S
N162 C164 1.361 . S
N162 C165 1.377 . S
C163 N160 1.382 . S
C163 N161 1.371 . S
C163 C166 1.480 . S
C164 N161 1.372 . S
C164 N162 1.361 . S
C164 C172 1.457 . S
C165 N160 1.363 . S
C165 N162 1.377 . S
C165 C178 1.479 . S
C166 C163 1.480 . S
C166 C167 1.383 . S
C166 C171 1.385 . S
C167 H148 0.947 . S
C167 C166 1.383 . S
C167 C168 1.388 . S
C168 H149 0.946 . S
C168 C167 1.388 . S
C168 C169 1.384 . S
C169 C168 1.384 . S
C169 C170 1.377 . S
C170 H150 0.953 . S
C170 C169 1.377 . S
C170 C171 1.369 . S
C171 H151 0.945 . S
C171 C166 1.385 . S
C171 C170 1.369 . S
C172 C164 1.457 . S
C172 C173 1.372 . S
C172 C177 1.364 . S
C173 H152 0.952 . S
C173 C172 1.372 . S
C173 C174 1.389 . S
C174 H153 0.949 . S
C174 C173 1.389 . S
C174 C175 1.387 . S
C175 C174 1.387 . S
C175 C176 1.372 . S
C176 H154 0.950 . S
C176 C175 1.372 . S
C176 C177 1.379 . S
C177 H155 0.948 . S
C177 C172 1.364 . S
C177 C176 1.379 . S
C178 C147 1.383 . S
C178 C165 1.479 . S
C178 C179 1.398 . S
C179 C144 1.382 . S
C179 H156 0.951 . S
C179 C178 1.398 . S
C180 C181 1.384 . S
C180 H193 0.947 . S
C180 C215 1.382 . S
C181 C180 1.384 . S
C181 C182 1.378 . S
C182 C181 1.378 . S
C182 C183 1.378 . S
C182 H194 0.952 . S
C183 C182 1.378 . S
C183 H195 0.950 . S
C183 C214 1.383 . S
H184 C203 0.947 . S
H185 C204 0.946 . S
H186 C206 0.953 . S
H187 C207 0.945 . S
H188 C209 0.952 . S
H189 C210 0.949 . S
H190 C212 0.950 . S
H191 C213 0.948 . S
H192 C215 0.951 . S
H193 C180 0.947 . S
H194 C182 0.952 . S
H195 C183 0.950 . S
N196 C199 1.382 . S
N196 C201 1.363 . S
N197 C199 1.371 . S
N197 C200 1.372 . S
N198 C200 1.361 . S
N198 C201 1.377 . S
C199 N196 1.382 . S
C199 N197 1.371 . S
C199 C202 1.480 . S
C200 N197 1.372 . S
C200 N198 1.361 . S
C200 C208 1.457 . S
C201 N196 1.363 . S
C201 N198 1.377 . S
C201 C214 1.479 . S
C202 C199 1.480 . S
C202 C203 1.383 . S
C202 C207 1.385 . S
C203 H184 0.947 . S
C203 C202 1.383 . S
C203 C204 1.388 . S
C204 H185 0.946 . S
C204 C203 1.388 . S
C204 C205 1.384 . S
C205 C204 1.384 . S
C205 C206 1.377 . S
C206 H186 0.953 . S
C206 C205 1.377 . S
C206 C207 1.369 . S
C207 H187 0.945 . S
C207 C202 1.385 . S
C207 C206 1.369 . S
C208 C200 1.457 . S
C208 C209 1.372 . S
C208 C213 1.364 . S
C209 H188 0.952 . S
C209 C208 1.372 . S
C209 C210 1.389 . S
C210 H189 0.949 . S
C210 C209 1.389 . S
C210 C211 1.387 . S
C211 C210 1.387 . S
C211 C212 1.372 . S
C212 H190 0.950 . S
C212 C211 1.372 . S
C212 C213 1.379 . S
C213 H191 0.948 . S
C213 C208 1.364 . S
C213 C212 1.379 . S
C214 C183 1.383 . S
C214 C201 1.479 . S
C214 C215 1.398 . S
C215 C180 1.382 . S
C215 H192 0.951 . S
C215 C214 1.398 . S
C216 C217 1.384 . S
C216 H229 0.947 . S
C216 C251 1.382 . S
C217 C216 1.384 . S
C217 C218 1.378 . S
C218 C217 1.378 . S
C218 C219 1.378 . S
C218 H230 0.952 . S
C219 C218 1.378 . S
C219 H231 0.950 . S
C219 C250 1.383 . S
H220 C239 0.947 . S
H221 C240 0.946 . S
H222 C242 0.953 . S
H223 C243 0.945 . S
H224 C245 0.952 . S
H225 C246 0.949 . S
H226 C248 0.950 . S
H227 C249 0.948 . S
H228 C251 0.951 . S
H229 C216 0.947 . S
H230 C218 0.952 . S
H231 C219 0.950 . S
N232 C235 1.382 . S
N232 C237 1.363 . S
N233 C235 1.371 . S
N233 C236 1.372 . S
N234 C236 1.361 . S
N234 C237 1.377 . S
C235 N232 1.382 . S
C235 N233 1.371 . S
C235 C238 1.480 . S
C236 N233 1.372 . S
C236 N234 1.361 . S
C236 C244 1.457 . S
C237 N232 1.363 . S
C237 N234 1.377 . S
C237 C250 1.479 . S
C238 C235 1.480 . S
C238 C239 1.383 . S
C238 C243 1.385 . S
C239 H220 0.947 . S
C239 C238 1.383 . S
C239 C240 1.388 . S
C240 H221 0.946 . S
C240 C239 1.388 . S
C240 C241 1.384 . S
C241 C240 1.384 . S
C241 C242 1.377 . S
C242 H222 0.953 . S
C242 C241 1.377 . S
C242 C243 1.369 . S
C243 H223 0.945 . S
C243 C238 1.385 . S
C243 C242 1.369 . S
C244 C236 1.457 . S
C244 C245 1.372 . S
C244 C249 1.364 . S
C245 H224 0.952 . S
C245 C244 1.372 . S
C245 C246 1.389 . S
C246 H225 0.949 . S
C246 C245 1.389 . S
C246 C247 1.387 . S
C247 C246 1.387 . S
C247 C248 1.372 . S
C248 H226 0.950 . S
C248 C247 1.372 . S
C248 C249 1.379 . S
C249 H227 0.948 . S
C249 C244 1.364 . S
C249 C248 1.379 . S
C250 C219 1.383 . S
C250 C237 1.479 . S
C250 C251 1.398 . S
C251 C216 1.382 . S
C251 H228 0.951 . S
C251 C250 1.398 . S
C252 C253 1.384 . S
C252 H265 0.947 . S
C252 C287 1.382 . S
C253 C252 1.384 . S
C253 C254 1.378 . S
C254 C253 1.378 . S
C254 C255 1.378 . S
C254 H266 0.952 . S
C255 C254 1.378 . S
C255 H267 0.950 . S
C255 C286 1.383 . S
H256 C275 0.947 . S
H257 C276 0.946 . S
H258 C278 0.953 . S
H259 C279 0.945 . S
H260 C281 0.952 . S
H261 C282 0.949 . S
H262 C284 0.950 . S
H263 C285 0.948 . S
H264 C287 0.951 . S
H265 C252 0.947 . S
H266 C254 0.952 . S
H267 C255 0.950 . S
N268 C271 1.382 . S
N268 C273 1.363 . S
N269 C271 1.371 . S
N269 C272 1.372 . S
N270 C272 1.361 . S
N270 C273 1.377 . S
C271 N268 1.382 . S
C271 N269 1.371 . S
C271 C274 1.480 . S
C272 N269 1.372 . S
C272 N270 1.361 . S
C272 C280 1.457 . S
C273 N268 1.363 . S
C273 N270 1.377 . S
C273 C286 1.479 . S
C274 C271 1.480 . S
C274 C275 1.383 . S
C274 C279 1.385 . S
C275 H256 0.947 . S
C275 C274 1.383 . S
C275 C276 1.388 . S
C276 H257 0.946 . S
C276 C275 1.388 . S
C276 C277 1.384 . S
C277 C276 1.384 . S
C277 C278 1.377 . S
C278 H258 0.953 . S
C278 C277 1.377 . S
C278 C279 1.369 . S
C279 H259 0.945 . S
C279 C274 1.385 . S
C279 C278 1.369 . S
C280 C272 1.457 . S
C280 C281 1.372 . S
C280 C285 1.364 . S
C281 H260 0.952 . S
C281 C280 1.372 . S
C281 C282 1.389 . S
C282 H261 0.949 . S
C282 C281 1.389 . S
C282 C283 1.387 . S
C283 C282 1.387 . S
C283 C284 1.372 . S
C284 H262 0.950 . S
C284 C283 1.372 . S
C284 C285 1.379 . S
C285 H263 0.948 . S
C285 C280 1.364 . S
C285 C284 1.379 . S
C286 C255 1.383 . S
C286 C273 1.479 . S
C286 C287 1.398 . S
C287 C252 1.382 . S
C287 H264 0.951 . S
C287 C286 1.398 . S
C288 O304 1.251 . S
C288 O306 1.254 1_545 S
N289 C290 1.333 . S
N289 C294 1.307 . S
N289 Zn295 2.020 . S
C290 N289 1.333 . S
C290 C291 1.379 . S
C290 H308 0.952 . S
C291 C290 1.379 . S
C291 C292 1.390 . S
C291 H318 0.949 . S
C292 C291 1.390 . S
C292 C293 1.357 . S
C293 C292 1.357 . S
C293 C294 1.370 . S
C293 H319 0.950 . S
C294 N289 1.307 . S
C294 C293 1.370 . S
C294 H312 0.948 1_455 S
Zn295 N289 2.020 . S
Zn295 O304 2.039 . S
Zn295 O310 2.034 . S
Zn295 O314 2.025 1_455 S
Zn295 O316 2.024 1_455 S
C296 O315 1.246 1_545 S
C296 O316 1.249 . S
N297 C298 1.307 . S
N297 C299 1.333 . S
N297 Zn303 2.020 . S
C298 N297 1.307 . S
C298 C302 1.370 . S
C298 H309 0.948 1_655 S
C299 N297 1.333 . S
C299 C300 1.379 . S
C299 H307 0.952 . S
C300 C299 1.379 . S
C300 C301 1.390 . S
C300 H320 0.949 . S
C301 C300 1.390 . S
C301 C302 1.357 . S
C302 C298 1.370 . S
C302 C301 1.357 . S
C302 H321 0.950 . S
Zn303 N297 2.020 . S
Zn303 O306 2.025 1_655 S
Zn303 O311 2.024 1_655 S
Zn303 O313 2.039 . S
Zn303 O315 2.034 . S
O304 C288 1.251 . S
O304 Zn295 2.039 . S
C305 O310 1.246 1_565 S
C305 O311 1.249 . S
O306 C288 1.254 1_565 S
O306 Zn303 2.025 1_455 S
H307 C299 0.952 . S
H308 C290 0.952 . S
H309 C298 0.948 1_455 S
O310 Zn295 2.034 . S
O310 C305 1.246 1_545 S
O311 Zn303 2.024 1_455 S
O311 C305 1.249 . S
H312 C294 0.948 1_655 S
O313 Zn303 2.039 . S
O313 C317 1.251 . S
O314 Zn295 2.025 1_655 S
O314 C317 1.254 1_545 S
O315 C296 1.246 1_565 S
O315 Zn303 2.034 . S
O316 Zn295 2.024 1_655 S
O316 C296 1.249 . S
C317 O313 1.251 . S
C317 O314 1.254 1_565 S
H318 C291 0.949 . S
H319 C293 0.950 . S
H320 C300 0.949 . S
H321 C302 0.950 . S
C322 O338 1.251 1_565 S
C322 O340 1.254 . S
N323 C324 1.333 . S
N323 C328 1.307 . S
N323 Zn329 2.020 . S
C324 N323 1.333 . S
C324 C325 1.379 . S
C324 H342 0.952 . S
C325 C324 1.379 . S
C325 C326 1.390 . S
C325 H352 0.949 . S
C326 C325 1.390 . S
C326 C327 1.357 . S
C327 C326 1.357 . S
C327 C328 1.370 . S
C327 H353 0.950 . S
C328 N323 1.307 . S
C328 C327 1.370 . S
C328 H346 0.948 . S
Zn329 N323 2.020 . S
Zn329 O338 2.039 . S
Zn329 O344 2.034 1_556 S
Zn329 O348 2.025 1_556 S
Zn329 O350 2.024 . S
C330 O349 1.246 . S
C330 O350 1.249 1_565 S
N331 C332 1.307 . S
N331 C333 1.333 . S
N331 Zn337 2.020 . S
C332 N331 1.307 . S
C332 C336 1.370 . S
C332 H343 0.948 . S
C333 N331 1.333 . S
C333 C334 1.379 . S
C333 H341 0.952 . S
C334 C333 1.379 . S
C334 C335 1.390 . S
C334 H354 0.949 . S
C335 C334 1.390 . S
C335 C336 1.357 . S
C336 C332 1.370 . S
C336 C335 1.357 . S
C336 H355 0.950 . S
Zn337 N331 2.020 . S
Zn337 O340 2.025 1_554 S
Zn337 O345 2.024 . S
Zn337 O347 2.039 . S
Zn337 O349 2.034 1_554 S
O338 C322 1.251 1_545 S
O338 Zn329 2.039 . S
C339 O344 1.246 . S
C339 O345 1.249 1_545 S
O340 C322 1.254 . S
O340 Zn337 2.025 1_556 S
H341 C333 0.952 . S
H342 C324 0.952 . S
H343 C332 0.948 . S
O344 Zn329 2.034 1_554 S
O344 C339 1.246 . S
O345 Zn337 2.024 . S
O345 C339 1.249 1_565 S
H346 C328 0.948 . S
O347 Zn337 2.039 . S
O347 C351 1.251 1_565 S
O348 Zn329 2.025 1_554 S
O348 C351 1.254 . S
O349 C330 1.246 . S
O349 Zn337 2.034 1_556 S
O350 Zn329 2.024 . S
O350 C330 1.249 1_545 S
C351 O347 1.251 1_545 S
C351 O348 1.254 . S
H352 C325 0.949 . S
H353 C327 0.950 . S
H354 C334 0.949 . S
H355 C336 0.950 . S
C356 O372 1.251 . S
C356 O374 1.254 . S
N357 C358 1.333 . S
N357 C362 1.307 . S
N357 Zn363 2.020 . S
C358 N357 1.333 . S
C358 C359 1.379 . S
C358 H376 0.952 . S
C359 C358 1.379 . S
C359 C360 1.390 . S
C359 H386 0.949 . S
C360 C359 1.390 . S
C360 C361 1.357 . S
C361 C360 1.357 . S
C361 C362 1.370 . S
C361 H387 0.950 . S
C362 N357 1.307 . S
C362 C361 1.370 . S
C362 H380 0.948 . S
Zn363 N357 2.020 . S
Zn363 O372 2.039 . S
Zn363 O378 2.034 . S
Zn363 O382 2.025 . S
Zn363 O384 2.024 . S
C364 O383 1.246 . S
C364 O384 1.249 . S
N365 C366 1.307 . S
N365 C367 1.333 . S
N365 Zn371 2.020 . S
C366 N365 1.307 . S
C366 C370 1.370 . S
C366 H377 0.948 . S
C367 N365 1.333 . S
C367 C368 1.379 . S
C367 H375 0.952 . S
C368 C367 1.379 . S
C368 C369 1.390 . S
C368 H388 0.949 . S
C369 C368 1.390 . S
C369 C370 1.357 . S
C370 C366 1.370 . S
C370 C369 1.357 . S
C370 H389 0.950 . S
Zn371 N365 2.020 . S
Zn371 O374 2.025 . S
Zn371 O379 2.024 . S
Zn371 O381 2.039 . S
Zn371 O383 2.034 . S
O372 C356 1.251 . S
O372 Zn363 2.039 . S
C373 O378 1.246 . S
C373 O379 1.249 . S
O374 C356 1.254 . S
O374 Zn371 2.025 . S
H375 C367 0.952 . S
H376 C358 0.952 . S
H377 C366 0.948 . S
O378 Zn363 2.034 . S
O378 C373 1.246 . S
O379 Zn371 2.024 . S
O379 C373 1.249 . S
H380 C362 0.948 . S
O381 Zn371 2.039 . S
O381 C385 1.251 . S
O382 Zn363 2.025 . S
O382 C385 1.254 . S
O383 C364 1.246 . S
O383 Zn371 2.034 . S
O384 Zn363 2.024 . S
O384 C364 1.249 . S
C385 O381 1.251 . S
C385 O382 1.254 . S
H386 C359 0.949 . S
H387 C361 0.950 . S
H388 C368 0.949 . S
H389 C370 0.950 . S
C390 O406 1.251 1_556 S
C390 O408 1.254 . S
N391 C392 1.333 . S
N391 C396 1.307 . S
N391 Zn397 2.020 . S
C392 N391 1.333 . S
C392 C393 1.379 . S
C392 H410 0.952 . S
C393 C392 1.379 . S
C393 C394 1.390 . S
C393 H420 0.949 . S
C394 C393 1.390 . S
C394 C395 1.357 . S
C395 C394 1.357 . S
C395 C396 1.370 . S
C395 H421 0.950 . S
C396 N391 1.307 . S
C396 C395 1.370 . S
C396 H414 0.948 . S
Zn397 N391 2.020 . S
Zn397 O406 2.039 . S
Zn397 O412 2.034 1_655 S
Zn397 O416 2.025 1_655 S
Zn397 O418 2.024 . S
C398 O417 1.246 . S
C398 O418 1.249 1_556 S
N399 C400 1.307 . S
N399 C401 1.333 . S
N399 Zn405 2.020 . S
C400 N399 1.307 . S
C400 C404 1.370 . S
C400 H411 0.948 . S
C401 N399 1.333 . S
C401 C402 1.379 . S
C401 H409 0.952 . S
C402 C401 1.379 . S
C402 C403 1.390 . S
C402 H422 0.949 . S
C403 C402 1.390 . S
C403 C404 1.357 . S
C404 C400 1.370 . S
C404 C403 1.357 . S
C404 H423 0.950 . S
Zn405 N399 2.020 . S
Zn405 O408 2.025 1_455 S
Zn405 O413 2.024 . S
Zn405 O415 2.039 . S
Zn405 O417 2.034 1_455 S
O406 C390 1.251 1_554 S
O406 Zn397 2.039 . S
C407 O412 1.246 . S
C407 O413 1.249 1_554 S
O408 C390 1.254 . S
O408 Zn405 2.025 1_655 S
H409 C401 0.952 . S
H410 C392 0.952 . S
H411 C400 0.948 . S
O412 Zn397 2.034 1_455 S
O412 C407 1.246 . S
O413 Zn405 2.024 . S
O413 C407 1.249 1_556 S
H414 C396 0.948 . S
O415 Zn405 2.039 . S
O415 C419 1.251 1_556 S
O416 Zn397 2.025 1_455 S
O416 C419 1.254 . S
O417 C398 1.246 . S
O417 Zn405 2.034 1_655 S
O418 Zn397 2.024 . S
O418 C398 1.249 1_554 S
C419 O415 1.251 1_554 S
C419 O416 1.254 . S
H420 C393 0.949 . S
H421 C395 0.950 . S
H422 C402 0.949 . S
H423 C404 0.950 . S
C424 C425 1.349 . S
C424 C426 1.327 . S
C424 H449 0.950 . S
C425 C424 1.349 . S
C425 C441 1.349 . S
C426 C424 1.327 . S
C426 C445 1.429 . S
C426 H450 0.950 . S
C427 C444 1.574 . S
C427 C446 1.368 . S
C427 H451 0.949 . S
H428 C432 0.949 . S
C429 C430 1.349 . S
C429 C431 1.327 . S
C429 H452 0.950 1_545 S
C430 C429 1.349 . S
C430 C442 1.349 . S
C431 C429 1.327 . S
C431 C447 1.429 . S
C431 H453 0.950 . S
C432 H428 0.949 . S
C432 C440 1.574 . S
C432 C448 1.368 . S
H433 C441 0.950 . S
H434 C439 0.950 . S
H435 C440 0.949 . S
H436 C442 0.950 . S
H437 C443 0.950 . S
H438 C444 0.949 . S
C439 H434 0.950 . S
C439 C441 1.327 . S
C439 C445 1.429 . S
C440 C432 1.574 . S
C440 H435 0.949 . S
C440 C446 1.368 . S
C441 C425 1.349 . S
C441 H433 0.950 . S
C441 C439 1.327 . S
C442 C430 1.349 . S
C442 H436 0.950 . S
C442 C443 1.327 . S
C443 H437 0.950 . S
C443 C442 1.327 . S
C443 C447 1.429 . S
C444 C427 1.574 . S
C444 H438 0.949 . S
C444 C448 1.368 . S
C445 C426 1.429 . S
C445 C439 1.429 . S
C445 C446 1.523 . S
C446 C427 1.368 . S
C446 C440 1.368 . S
C446 C445 1.523 . S
C447 C431 1.429 . S
C447 C443 1.429 . S
C447 C448 1.523 . S
C448 C432 1.368 . S
C448 C444 1.368 . S
C448 C447 1.523 . S
H449 C424 0.950 . S
H450 C426 0.950 . S
H451 C427 0.949 . S
H452 C429 0.950 1_565 S
H453 C431 0.950 . S
C454 C455 1.349 . S
C454 C456 1.327 . S
C454 H479 0.950 . S
C455 C454 1.349 . S
C455 C471 1.349 . S
C456 C454 1.327 . S
C456 C475 1.429 . S
C456 H480 0.950 . S
C457 C474 1.574 . S
C457 C476 1.368 . S
C457 H481 0.949 . S
H458 C462 0.949 . S
C459 C460 1.349 . S
C459 C461 1.327 . S
C459 H482 0.950 . S
C460 C459 1.349 . S
C460 C472 1.349 . S
C461 C459 1.327 . S
C461 C477 1.429 . S
C461 H483 0.950 . S
C462 H458 0.949 . S
C462 C470 1.574 . S
C462 C478 1.368 . S
H463 C471 0.950 . S
H464 C469 0.950 . S
H465 C470 0.949 . S
H466 C472 0.950 1_545 S
H467 C473 0.950 . S
H468 C474 0.949 . S
C469 H464 0.950 . S
C469 C471 1.327 . S
C469 C475 1.429 . S
C470 C462 1.574 . S
C470 H465 0.949 . S
C470 C476 1.368 . S
C471 C455 1.349 . S
C471 H463 0.950 . S
C471 C469 1.327 . S
C472 C460 1.349 . S
C472 H466 0.950 1_565 S
C472 C473 1.327 . S
C473 H467 0.950 . S
C473 C472 1.327 . S
C473 C477 1.429 . S
C474 C457 1.574 . S
C474 H468 0.949 . S
C474 C478 1.368 . S
C475 C456 1.429 . S
C475 C469 1.429 . S
C475 C476 1.523 . S
C476 C457 1.368 . S
C476 C470 1.368 . S
C476 C475 1.523 . S
C477 C461 1.429 . S
C477 C473 1.429 . S
C477 C478 1.523 . S
C478 C462 1.368 . S
C478 C474 1.368 . S
C478 C477 1.523 . S
H479 C454 0.950 . S
H480 C456 0.950 . S
H481 C457 0.949 . S
H482 C459 0.950 . S
H483 C461 0.950 . S
C484 C485 1.349 . S
C484 C486 1.327 . S
C484 H509 0.950 . S
C485 C484 1.349 . S
C485 C501 1.349 . S
C486 C484 1.327 . S
C486 C505 1.429 . S
C486 H510 0.950 . S
C487 C504 1.574 . S
C487 C506 1.368 . S
C487 H511 0.949 . S
H488 C492 0.949 . S
C489 C490 1.349 . S
C489 C491 1.327 . S
C489 H512 0.950 . S
C490 C489 1.349 . S
C490 C502 1.349 . S
C491 C489 1.327 . S
C491 C507 1.429 . S
C491 H513 0.950 . S
C492 H488 0.949 . S
C492 C500 1.574 . S
C492 C508 1.368 . S
H493 C501 0.950 . S
H494 C499 0.950 . S
H495 C500 0.949 . S
H496 C502 0.950 . S
H497 C503 0.950 . S
H498 C504 0.949 . S
C499 H494 0.950 . S
C499 C501 1.327 . S
C499 C505 1.429 . S
C500 C492 1.574 . S
C500 H495 0.949 . S
C500 C506 1.368 . S
C501 C485 1.349 . S
C501 H493 0.950 . S
C501 C499 1.327 . S
C502 C490 1.349 . S
C502 H496 0.950 . S
C502 C503 1.327 . S
C503 H497 0.950 . S
C503 C502 1.327 . S
C503 C507 1.429 . S
C504 C487 1.574 . S
C504 H498 0.949 . S
C504 C508 1.368 . S
C505 C486 1.429 . S
C505 C499 1.429 . S
C505 C506 1.523 . S
C506 C487 1.368 . S
C506 C500 1.368 . S
C506 C505 1.523 . S
C507 C491 1.429 . S
C507 C503 1.429 . S
C507 C508 1.523 . S
C508 C492 1.368 . S
C508 C504 1.368 . S
C508 C507 1.523 . S
H509 C484 0.950 . S
H510 C486 0.950 . S
H511 C487 0.949 . S
H512 C489 0.950 . S
H513 C491 0.950 . S
C514 C515 1.349 . S
C514 C516 1.327 . S
C514 H539 0.950 . S
C515 C514 1.349 . S
C515 C531 1.349 . S
C516 C514 1.327 . S
C516 C535 1.429 . S
C516 H540 0.950 . S
C517 C534 1.574 . S
C517 C536 1.368 . S
C517 H541 0.949 . S
H518 C522 0.949 . S
C519 C520 1.349 . S
C519 C521 1.327 . S
C519 H542 0.950 . S
C520 C519 1.349 . S
C520 C532 1.349 . S
C521 C519 1.327 . S
C521 C537 1.429 . S
C521 H543 0.950 . S
C522 H518 0.949 . S
C522 C530 1.574 . S
C522 C538 1.368 . S
H523 C531 0.950 . S
H524 C529 0.950 . S
H525 C530 0.949 . S
H526 C532 0.950 . S
H527 C533 0.950 . S
H528 C534 0.949 . S
C529 H524 0.950 . S
C529 C531 1.327 . S
C529 C535 1.429 . S
C530 C522 1.574 . S
C530 H525 0.949 . S
C530 C536 1.368 . S
C531 C515 1.349 . S
C531 H523 0.950 . S
C531 C529 1.327 . S
C532 C520 1.349 . S
C532 H526 0.950 . S
C532 C533 1.327 . S
C533 H527 0.950 . S
C533 C532 1.327 . S
C533 C537 1.429 . S
C534 C517 1.574 . S
C534 H528 0.949 . S
C534 C538 1.368 . S
C535 C516 1.429 . S
C535 C529 1.429 . S
C535 C536 1.523 . S
C536 C517 1.368 . S
C536 C530 1.368 . S
C536 C535 1.523 . S
C537 C521 1.429 . S
C537 C533 1.429 . S
C537 C538 1.523 . S
C538 C522 1.368 . S
C538 C534 1.368 . S
C538 C537 1.523 . S
H539 C514 0.950 . S
H540 C516 0.950 . S
H541 C517 0.949 . S
H542 C519 0.950 . S
H543 C521 0.950 . S
C544 C545 1.349 . S
C544 C546 1.327 . S
C544 H569 0.950 . S
C545 C544 1.349 . S
C545 C561 1.349 . S
C546 C544 1.327 . S
C546 C565 1.429 . S
C546 H570 0.950 . S
C547 C564 1.574 . S
C547 C566 1.368 . S
C547 H571 0.949 . S
H548 C552 0.949 . S
C549 C550 1.349 . S
C549 C551 1.327 . S
C549 H572 0.950 . S
C550 C549 1.349 . S
C550 C562 1.349 . S
C551 C549 1.327 . S
C551 C567 1.429 . S
C551 H573 0.950 . S
C552 H548 0.949 . S
C552 C560 1.574 . S
C552 C568 1.368 . S
H553 C561 0.950 . S
H554 C559 0.950 . S
H555 C560 0.949 . S
H556 C562 0.938 1_565 S
H557 C563 0.950 . S
H558 C564 0.949 . S
C559 H554 0.950 . S
C559 C561 1.327 . S
C559 C565 1.429 . S
C560 C552 1.574 . S
C560 H555 0.949 . S
C560 C566 1.368 . S
C561 C545 1.349 . S
C561 H553 0.950 . S
C561 C559 1.327 . S
C562 C550 1.349 . S
C562 H556 0.938 1_545 S
C562 C563 1.327 . S
C563 H557 0.950 . S
C563 C562 1.327 . S
C563 C567 1.429 . S
C564 C547 1.574 . S
C564 H558 0.949 . S
C564 C568 1.368 . S
C565 C546 1.429 . S
C565 C559 1.429 . S
C565 C566 1.523 . S
C566 C547 1.368 . S
C566 C560 1.368 . S
C566 C565 1.523 . S
C567 C551 1.429 . S
C567 C563 1.429 . S
C567 C568 1.523 . S
C568 C552 1.368 . S
C568 C564 1.368 . S
C568 C567 1.523 . S
H569 C544 0.950 . S
H570 C546 0.950 . S
H571 C547 0.949 . S
H572 C549 0.950 . S
H573 C551 0.950 . S
C574 C575 1.349 . S
C574 C576 1.327 . S
C574 H599 0.950 . S
C575 C574 1.349 . S
C575 C591 1.349 . S
C576 C574 1.327 . S
C576 C595 1.429 . S
C576 H600 0.950 . S
C577 C594 1.574 . S
C577 C596 1.368 . S
C577 H601 0.949 . S
H578 C582 0.949 . S
C579 C580 1.349 . S
C579 C581 1.327 . S
C579 H602 0.950 . S
C580 C579 1.349 . S
C580 C592 1.349 . S
C581 C579 1.327 . S
C581 C597 1.429 . S
C581 H603 0.950 . S
C582 H578 0.949 . S
C582 C590 1.574 . S
C582 C598 1.368 . S
H583 C591 0.950 . S
H584 C589 0.950 . S
H585 C590 0.949 . S
H586 C592 0.950 . S
H587 C593 0.950 . S
H588 C594 0.949 . S
C589 H584 0.950 . S
C589 C591 1.327 . S
C589 C595 1.429 . S
C590 C582 1.574 . S
C590 H585 0.949 . S
C590 C596 1.368 . S
C591 C575 1.349 . S
C591 H583 0.950 . S
C591 C589 1.327 . S
C592 C580 1.349 . S
C592 H586 0.950 . S
C592 C593 1.327 . S
C593 H587 0.950 . S
C593 C592 1.327 . S
C593 C597 1.429 . S
C594 C577 1.574 . S
C594 H588 0.949 . S
C594 C598 1.368 . S
C595 C576 1.429 . S
C595 C589 1.429 . S
C595 C596 1.523 . S
C596 C577 1.368 . S
C596 C590 1.368 . S
C596 C595 1.523 . S
C597 C581 1.429 . S
C597 C593 1.429 . S
C597 C598 1.523 . S
C598 C582 1.368 . S
C598 C594 1.368 . S
C598 C597 1.523 . S
H599 C574 0.950 . S
H600 C576 0.950 . S
H601 C577 0.949 . S
H602 C579 0.950 . S
H603 C581 0.950 . S
C604 C605 1.349 . S
C604 C606 1.327 . S
C604 H629 0.950 . S
C605 C604 1.349 . S
C605 C621 1.349 . S
C606 C604 1.327 . S
C606 C625 1.429 . S
C606 H630 0.950 . S
C607 C624 1.574 . S
C607 C626 1.368 . S
C607 H631 0.949 . S
H608 C612 0.949 . S
C609 C610 1.349 . S
C609 C611 1.327 . S
C609 H632 0.950 . S
C610 C609 1.349 . S
C610 C622 1.349 . S
C611 C609 1.327 . S
C611 C627 1.429 . S
C611 H633 0.950 . S
C612 H608 0.949 . S
C612 C620 1.574 . S
C612 C628 1.368 . S
H613 C621 0.950 . S
H614 C619 0.950 . S
H615 C620 0.949 . S
H616 C622 0.950 1_554 S
H617 C623 0.950 . S
H618 C624 0.949 . S
C619 H614 0.950 . S
C619 C621 1.327 . S
C619 C625 1.429 . S
C620 C612 1.574 . S
C620 H615 0.949 . S
C620 C626 1.368 . S
C621 C605 1.349 . S
C621 H613 0.950 . S
C621 C619 1.327 . S
C622 C610 1.349 . S
C622 H616 0.950 1_556 S
C622 C623 1.327 . S
C623 H617 0.950 . S
C623 C622 1.327 . S
C623 C627 1.429 . S
C624 C607 1.574 . S
C624 H618 0.949 . S
C624 C628 1.368 . S
C625 C606 1.429 . S
C625 C619 1.429 . S
C625 C626 1.523 . S
C626 C607 1.368 . S
C626 C620 1.368 . S
C626 C625 1.523 . S
C627 C611 1.429 . S
C627 C623 1.429 . S
C627 C628 1.523 . S
C628 C612 1.368 . S
C628 C624 1.368 . S
C628 C627 1.523 . S
H629 C604 0.950 . S
H630 C606 0.950 . S
H631 C607 0.949 . S
H632 C609 0.950 . S
H633 C611 0.950 . S
C634 C635 1.349 . S
C634 C636 1.327 . S
C634 H659 0.950 . S
C635 C634 1.349 . S
C635 C651 1.349 . S
C636 C634 1.327 . S
C636 C655 1.429 . S
C636 H660 0.950 . S
C637 C654 1.574 . S
C637 C656 1.368 . S
C637 H661 0.949 . S
H638 C642 0.949 . S
C639 C640 1.349 . S
C639 C641 1.327 . S
C639 H662 0.950 . S
C640 C639 1.349 . S
C640 C652 1.349 . S
C641 C639 1.327 . S
C641 C657 1.429 . S
C641 H663 0.950 . S
C642 H638 0.949 . S
C642 C650 1.574 . S
C642 C658 1.368 . S
H643 C651 0.950 . S
H644 C649 0.950 . S
H645 C650 0.949 . S
H646 C652 0.950 . S
H647 C653 0.950 . S
H648 C654 0.949 . S
C649 H644 0.950 . S
C649 C651 1.327 . S
C649 C655 1.429 . S
C650 C642 1.574 . S
C650 H645 0.949 . S
C650 C656 1.368 . S
C651 C635 1.349 . S
C651 H643 0.950 . S
C651 C649 1.327 . S
C652 C640 1.349 . S
C652 H646 0.950 . S
C652 C653 1.327 . S
C653 H647 0.950 . S
C653 C652 1.327 . S
C653 C657 1.429 . S
C654 C637 1.574 . S
C654 H648 0.949 . S
C654 C658 1.368 . S
C655 C636 1.429 . S
C655 C649 1.429 . S
C655 C656 1.523 . S
C656 C637 1.368 . S
C656 C650 1.368 . S
C656 C655 1.523 . S
C657 C641 1.429 . S
C657 C653 1.429 . S
C657 C658 1.523 . S
C658 C642 1.368 . S
C658 C654 1.368 . S
C658 C657 1.523 . S
H659 C634 0.950 . S
H660 C636 0.950 . S
H661 C637 0.949 . S
H662 C639 0.950 . S
H663 C641 0.950 . S
C664 C665 1.349 . S
C664 C666 1.327 . S
C664 H689 0.950 . S
C665 C664 1.349 . S
C665 C681 1.349 . S
C666 C664 1.327 . S
C666 C685 1.429 . S
C666 H690 0.950 . S
C667 C684 1.574 . S
C667 C686 1.368 . S
C667 H691 0.949 . S
H668 C672 0.949 . S
C669 C670 1.349 . S
C669 C671 1.327 . S
C669 H692 0.950 1_554 S
C670 C669 1.349 . S
C670 C682 1.349 . S
C671 C669 1.327 . S
C671 C687 1.429 . S
C671 H693 0.950 . S
C672 H668 0.949 . S
C672 C680 1.574 . S
C672 C688 1.368 . S
H673 C681 0.950 . S
H674 C679 0.950 . S
H675 C680 0.949 . S
H676 C682 0.950 . S
H677 C683 0.950 . S
H678 C684 0.949 . S
C679 H674 0.950 . S
C679 C681 1.327 . S
C679 C685 1.429 . S
C680 C672 1.574 . S
C680 H675 0.949 . S
C680 C686 1.368 . S
C681 C665 1.349 . S
C681 H673 0.950 . S
C681 C679 1.327 . S
C682 C670 1.349 . S
C682 H676 0.950 . S
C682 C683 1.327 . S
C683 H677 0.950 . S
C683 C682 1.327 . S
C683 C687 1.429 . S
C684 C667 1.574 . S
C684 H678 0.949 . S
C684 C688 1.368 . S
C685 C666 1.429 . S
C685 C679 1.429 . S
C685 C686 1.523 . S
C686 C667 1.368 . S
C686 C680 1.368 . S
C686 C685 1.523 . S
C687 C671 1.429 . S
C687 C683 1.429 . S
C687 C688 1.523 . S
C688 C672 1.368 . S
C688 C684 1.368 . S
C688 C687 1.523 . S
H689 C664 0.950 . S
H690 C666 0.950 . S
H691 C667 0.949 . S
H692 C669 0.950 1_556 S
H693 C671 0.950 . S
C694 C695 1.349 . S
C694 C696 1.327 . S
C694 H719 0.950 . S
C695 C694 1.349 . S
C695 C711 1.349 . S
C696 C694 1.327 . S
C696 C715 1.429 . S
C696 H720 0.950 . S
C697 C714 1.574 . S
C697 C716 1.368 . S
C697 H721 0.949 . S
H698 C702 0.949 . S
C699 C700 1.349 . S
C699 C701 1.327 . S
C699 H722 0.950 . S
C700 C699 1.349 . S
C700 C712 1.349 . S
C701 C699 1.327 . S
C701 C717 1.429 . S
C701 H723 0.950 . S
C702 H698 0.949 . S
C702 C710 1.574 . S
C702 C718 1.368 . S
H703 C711 0.950 . S
H704 C709 0.950 . S
H705 C710 0.949 . S
H706 C712 0.950 . S
H707 C713 0.950 . S
H708 C714 0.949 . S
C709 H704 0.950 . S
C709 C711 1.327 . S
C709 C715 1.429 . S
C710 C702 1.574 . S
C710 H705 0.949 . S
C710 C716 1.368 . S
C711 C695 1.349 . S
C711 H703 0.950 . S
C711 C709 1.327 . S
C712 C700 1.349 . S
C712 H706 0.950 . S
C712 C713 1.327 . S
C713 H707 0.950 . S
C713 C712 1.327 . S
C713 C717 1.429 . S
C714 C697 1.574 . S
C714 H708 0.949 . S
C714 C718 1.368 . S
C715 C696 1.429 . S
C715 C709 1.429 . S
C715 C716 1.523 . S
C716 C697 1.368 . S
C716 C710 1.368 . S
C716 C715 1.523 . S
C717 C701 1.429 . S
C717 C713 1.429 . S
C717 C718 1.523 . S
C718 C702 1.368 . S
C718 C714 1.368 . S
C718 C717 1.523 . S
H719 C694 0.950 . S
H720 C696 0.950 . S
H721 C697 0.949 . S
H722 C699 0.950 . S
H723 C701 0.950 . S
C724 C725 1.349 . S
C724 C726 1.327 . S
C724 H749 0.950 . S
C725 C724 1.349 . S
C725 C741 1.349 . S
C726 C724 1.327 . S
C726 C745 1.429 . S
C726 H750 0.950 . S
C727 C744 1.574 . S
C727 C746 1.368 . S
C727 H751 0.949 . S
H728 C732 0.949 . S
C729 C730 1.349 . S
C729 C731 1.327 . S
C729 H752 0.950 . S
C730 C729 1.349 . S
C730 C742 1.349 . S
C731 C729 1.327 . S
C731 C747 1.429 . S
C731 H753 0.950 . S
C732 H728 0.949 . S
C732 C740 1.574 . S
C732 C748 1.368 . S
H733 C741 0.950 . S
H734 C739 0.950 . S
H735 C740 0.949 . S
H736 C742 0.950 . S
H737 C743 0.950 . S
H738 C744 0.949 . S
C739 H734 0.950 . S
C739 C741 1.327 . S
C739 C745 1.429 . S
C740 C732 1.574 . S
C740 H735 0.949 . S
C740 C746 1.368 . S
C741 C725 1.349 . S
C741 H733 0.950 . S
C741 C739 1.327 . S
C742 C730 1.349 . S
C742 H736 0.950 . S
C742 C743 1.327 . S
C743 H737 0.950 . S
C743 C742 1.327 . S
C743 C747 1.429 . S
C744 C727 1.574 . S
C744 H738 0.949 . S
C744 C748 1.368 . S
C745 C726 1.429 . S
C745 C739 1.429 . S
C745 C746 1.523 . S
C746 C727 1.368 . S
C746 C740 1.368 . S
C746 C745 1.523 . S
C747 C731 1.429 . S
C747 C743 1.429 . S
C747 C748 1.523 . S
C748 C732 1.368 . S
C748 C744 1.368 . S
C748 C747 1.523 . S
H749 C724 0.950 . S
H750 C726 0.950 . S
H751 C727 0.949 . S
H752 C729 0.950 . S
H753 C731 0.950 . S
C754 C755 1.349 . S
C754 C756 1.327 . S
C754 H779 0.950 . S
C755 C754 1.349 . S
C755 C771 1.349 . S
C756 C754 1.327 . S
C756 C775 1.429 . S
C756 H780 0.950 . S
C757 C774 1.574 . S
C757 C776 1.368 . S
C757 H781 0.949 . S
H758 C762 0.949 . S
C759 C760 1.349 . S
C759 C761 1.327 . S
C759 H782 0.950 . S
C760 C759 1.349 . S
C760 C772 1.349 . S
C761 C759 1.327 . S
C761 C777 1.429 . S
C761 H783 0.950 . S
C762 H758 0.949 . S
C762 C770 1.574 . S
C762 C778 1.368 . S
H763 C771 0.950 . S
H764 C769 0.950 . S
H765 C770 0.949 . S
H766 C772 0.950 . S
H767 C773 0.950 . S
H768 C774 0.949 . S
C769 H764 0.950 . S
C769 C771 1.327 . S
C769 C775 1.429 . S
C770 C762 1.574 . S
C770 H765 0.949 . S
C770 C776 1.368 . S
C771 C755 1.349 . S
C771 H763 0.950 . S
C771 C769 1.327 . S
C772 C760 1.349 . S
C772 H766 0.950 . S
C772 C773 1.327 . S
C773 H767 0.950 . S
C773 C772 1.327 . S
C773 C777 1.429 . S
C774 C757 1.574 . S
C774 H768 0.949 . S
C774 C778 1.368 . S
C775 C756 1.429 . S
C775 C769 1.429 . S
C775 C776 1.523 . S
C776 C757 1.368 . S
C776 C770 1.368 . S
C776 C775 1.523 . S
C777 C761 1.429 . S
C777 C773 1.429 . S
C777 C778 1.523 . S
C778 C762 1.368 . S
C778 C774 1.368 . S
C778 C777 1.523 . S
H779 C754 0.950 . S
H780 C756 0.950 . S
H781 C757 0.949 . S
H782 C759 0.950 . S
H783 C761 0.950 . S
C784 C785 1.349 . S
C784 C786 1.327 . S
C784 H809 0.950 . S
C785 C784 1.349 . S
C785 C801 1.349 . S
C786 C784 1.327 . S
C786 C805 1.429 . S
C786 H810 0.950 . S
C787 C804 1.574 . S
C787 C806 1.368 . S
C787 H811 0.949 . S
H788 C792 0.949 . S
C789 C790 1.349 . S
C789 C791 1.327 . S
C789 H812 0.950 1_565 S
C790 C789 1.349 . S
C790 C802 1.349 . S
C791 C789 1.327 . S
C791 C807 1.429 . S
C791 H813 0.950 . S
C792 H788 0.949 . S
C792 C800 1.574 . S
C792 C808 1.368 . S
H793 C801 0.950 . S
H794 C799 0.950 . S
H795 C800 0.949 . S
H796 C802 0.950 . S
H797 C803 0.950 . S
H798 C804 0.949 . S
C799 H794 0.950 . S
C799 C801 1.327 . S
C799 C805 1.429 . S
C800 C792 1.574 . S
C800 H795 0.949 . S
C800 C806 1.368 . S
C801 C785 1.349 . S
C801 H793 0.950 . S
C801 C799 1.327 . S
C802 C790 1.349 . S
C802 H796 0.950 . S
C802 C803 1.327 . S
C803 H797 0.950 . S
C803 C802 1.327 . S
C803 C807 1.429 . S
C804 C787 1.574 . S
C804 H798 0.949 . S
C804 C808 1.368 . S
C805 C786 1.429 . S
C805 C799 1.429 . S
C805 C806 1.523 . S
C806 C787 1.368 . S
C806 C800 1.368 . S
C806 C805 1.523 . S
C807 C791 1.429 . S
C807 C803 1.429 . S
C807 C808 1.523 . S
C808 C792 1.368 . S
C808 C804 1.368 . S
C808 C807 1.523 . S
H809 C784 0.950 . S
H810 C786 0.950 . S
H811 C787 0.949 . S
H812 C789 0.950 1_545 S
H813 C791 0.950 . S
C814 C815 1.349 . S
C814 C816 1.327 . S
C814 H839 0.950 . S
C815 C814 1.349 . S
C815 C831 1.349 . S
C816 C814 1.327 . S
C816 C835 1.429 . S
C816 H840 0.950 . S
C817 C834 1.574 . S
C817 C836 1.368 . S
C817 H841 0.949 . S
H818 C822 0.949 . S
C819 C820 1.349 . S
C819 C821 1.327 . S
C819 H842 0.942 1_545 S
C820 C819 1.349 . S
C820 C832 1.349 . S
C821 C819 1.327 . S
C821 C837 1.429 . S
C821 H843 0.950 . S
C822 H818 0.949 . S
C822 C830 1.574 . S
C822 C838 1.368 . S
H823 C831 0.950 . S
H824 C829 0.950 . S
H825 C830 0.949 . S
H826 C832 0.950 . S
H827 C833 0.950 . S
H828 C834 0.949 . S
C829 H824 0.950 . S
C829 C831 1.327 . S
C829 C835 1.429 . S
C830 C822 1.574 . S
C830 H825 0.949 . S
C830 C836 1.368 . S
C831 C815 1.349 . S
C831 H823 0.950 . S
C831 C829 1.327 . S
C832 C820 1.349 . S
C832 H826 0.950 . S
C832 C833 1.327 . S
C833 H827 0.950 . S
C833 C832 1.327 . S
C833 C837 1.429 . S
C834 C817 1.574 . S
C834 H828 0.949 . S
C834 C838 1.368 . S
C835 C816 1.429 . S
C835 C829 1.429 . S
C835 C836 1.523 . S
C836 C817 1.368 . S
C836 C830 1.368 . S
C836 C835 1.523 . S
C837 C821 1.429 . S
C837 C833 1.429 . S
C837 C838 1.523 . S
C838 C822 1.368 . S
C838 C834 1.368 . S
C838 C837 1.523 . S
H839 C814 0.950 . S
H840 C816 0.950 . S
H841 C817 0.949 . S
H842 C819 0.942 1_565 S
H843 C821 0.950 . S
C844 C845 1.349 . S
C844 C846 1.327 . S
C844 H869 0.950 . S
C845 C844 1.349 . S
C845 C861 1.349 . S
C846 C844 1.327 . S
C846 C865 1.429 . S
C846 H870 0.950 . S
C847 C864 1.574 . S
C847 C866 1.368 . S
C847 H871 0.949 . S
H848 C852 0.949 . S
C849 C850 1.349 . S
C849 C851 1.327 . S
C849 H872 0.950 . S
C850 C849 1.349 . S
C850 C862 1.349 . S
C851 C849 1.327 . S
C851 C867 1.429 . S
C851 H873 0.950 . S
C852 H848 0.949 . S
C852 C860 1.574 . S
C852 C868 1.368 . S
H853 C861 0.950 . S
H854 C859 0.950 . S
H855 C860 0.949 . S
H856 C862 0.950 . S
H857 C863 0.950 . S
H858 C864 0.949 . S
C859 H854 0.950 . S
C859 C861 1.327 . S
C859 C865 1.429 . S
C860 C852 1.574 . S
C860 H855 0.949 . S
C860 C866 1.368 . S
C861 C845 1.349 . S
C861 H853 0.950 . S
C861 C859 1.327 . S
C862 C850 1.349 . S
C862 H856 0.950 . S
C862 C863 1.327 . S
C863 H857 0.950 . S
C863 C862 1.327 . S
C863 C867 1.429 . S
C864 C847 1.574 . S
C864 H858 0.949 . S
C864 C868 1.368 . S
C865 C846 1.429 . S
C865 C859 1.429 . S
C865 C866 1.523 . S
C866 C847 1.368 . S
C866 C860 1.368 . S
C866 C865 1.523 . S
C867 C851 1.429 . S
C867 C863 1.429 . S
C867 C868 1.523 . S
C868 C852 1.368 . S
C868 C864 1.368 . S
C868 C867 1.523 . S
H869 C844 0.950 . S
H870 C846 0.950 . S
H871 C847 0.949 . S
H872 C849 0.950 . S
H873 C851 0.950 . S
C874 C875 1.349 . S
C874 C876 1.327 . S
C874 H899 0.950 . S
C875 C874 1.349 . S
C875 C891 1.349 . S
C876 C874 1.327 . S
C876 C895 1.429 . S
C876 H900 0.950 . S
C877 C894 1.574 . S
C877 C896 1.368 . S
C877 H901 0.949 . S
H878 C882 0.949 . S
C879 C880 1.349 . S
C879 C881 1.327 . S
C879 H902 0.950 . S
C880 C879 1.349 . S
C880 C892 1.349 . S
C881 C879 1.327 . S
C881 C897 1.429 . S
C881 H903 0.950 . S
C882 H878 0.949 . S
C882 C890 1.574 . S
C882 C898 1.368 . S
H883 C891 0.950 . S
H884 C889 0.950 . S
H885 C890 0.949 . S
H886 C892 0.950 . S
H887 C893 0.950 . S
H888 C894 0.949 . S
C889 H884 0.950 . S
C889 C891 1.327 . S
C889 C895 1.429 . S
C890 C882 1.574 . S
C890 H885 0.949 . S
C890 C896 1.368 . S
C891 C875 1.349 . S
C891 H883 0.950 . S
C891 C889 1.327 . S
C892 C880 1.349 . S
C892 H886 0.950 . S
C892 C893 1.327 . S
C893 H887 0.950 . S
C893 C892 1.327 . S
C893 C897 1.429 . S
C894 C877 1.574 . S
C894 H888 0.949 . S
C894 C898 1.368 . S
C895 C876 1.429 . S
C895 C889 1.429 . S
C895 C896 1.523 . S
C896 C877 1.368 . S
C896 C890 1.368 . S
C896 C895 1.523 . S
C897 C881 1.429 . S
C897 C893 1.429 . S
C897 C898 1.523 . S
C898 C882 1.368 . S
C898 C894 1.368 . S
C898 C897 1.523 . S
H899 C874 0.950 . S
H900 C876 0.950 . S
H901 C877 0.949 . S
H902 C879 0.950 . S
H903 C881 0.950 . S
C904 C905 1.349 . S
C904 C906 1.327 . S
C904 H929 0.950 . S
C905 C904 1.349 . S
C905 C921 1.349 . S
C906 C904 1.327 . S
C906 C925 1.429 . S
C906 H930 0.950 . S
C907 C924 1.574 . S
C907 C926 1.368 . S
C907 H931 0.949 . S
H908 C912 0.949 . S
C909 C910 1.349 . S
C909 C911 1.327 . S
C909 H932 0.950 1_565 S
C910 C909 1.349 . S
C910 C922 1.349 . S
C911 C909 1.327 . S
C911 C927 1.429 . S
C911 H933 0.950 . S
C912 H908 0.949 . S
C912 C920 1.574 . S
C912 C928 1.368 . S
H913 C921 0.950 . S
H914 C919 0.950 . S
H915 C920 0.949 . S
H916 C922 0.950 . S
H917 C923 0.950 . S
H918 C924 0.949 . S
C919 H914 0.950 . S
C919 C921 1.327 . S
C919 C925 1.429 . S
C920 C912 1.574 . S
C920 H915 0.949 . S
C920 C926 1.368 . S
C921 C905 1.349 . S
C921 H913 0.950 . S
C921 C919 1.327 . S
C922 C910 1.349 . S
C922 H916 0.950 . S
C922 C923 1.327 . S
C923 H917 0.950 . S
C923 C922 1.327 . S
C923 C927 1.429 . S
C924 C907 1.574 . S
C924 H918 0.949 . S
C924 C928 1.368 . S
C925 C906 1.429 . S
C925 C919 1.429 . S
C925 C926 1.523 . S
C926 C907 1.368 . S
C926 C920 1.368 . S
C926 C925 1.523 . S
C927 C911 1.429 . S
C927 C923 1.429 . S
C927 C928 1.523 . S
C928 C912 1.368 . S
C928 C924 1.368 . S
C928 C927 1.523 . S
H929 C904 0.950 . S
H930 C906 0.950 . S
H931 C907 0.949 . S
H932 C909 0.950 1_545 S
H933 C911 0.950 . S
C934 C935 1.349 . S
C934 C936 1.327 . S
C934 H959 0.950 . S
C935 C934 1.349 . S
C935 C951 1.349 . S
C936 C934 1.327 . S
C936 C955 1.429 . S
C936 H960 0.950 . S
C937 C954 1.574 . S
C937 C956 1.368 . S
C937 H961 0.949 . S
H938 C942 0.949 . S
C939 C940 1.349 . S
C939 C941 1.327 . S
C939 H962 0.950 1_545 S
C940 C939 1.349 . S
C940 C952 1.349 . S
C941 C939 1.327 . S
C941 C957 1.429 . S
C941 H963 0.950 . S
C942 H938 0.949 . S
C942 C950 1.574 . S
C942 C958 1.368 . S
H943 C951 0.950 . S
H944 C949 0.950 . S
H945 C950 0.949 . S
H946 C952 0.950 . S
H947 C953 0.950 . S
H948 C954 0.949 . S
C949 H944 0.950 . S
C949 C951 1.327 . S
C949 C955 1.429 . S
C950 C942 1.574 . S
C950 H945 0.949 . S
C950 C956 1.368 . S
C951 C935 1.349 . S
C951 H943 0.950 . S
C951 C949 1.327 . S
C952 C940 1.349 . S
C952 H946 0.950 . S
C952 C953 1.327 . S
C953 H947 0.950 . S
C953 C952 1.327 . S
C953 C957 1.429 . S
C954 C937 1.574 . S
C954 H948 0.949 . S
C954 C958 1.368 . S
C955 C936 1.429 . S
C955 C949 1.429 . S
C955 C956 1.523 . S
C956 C937 1.368 . S
C956 C950 1.368 . S
C956 C955 1.523 . S
C957 C941 1.429 . S
C957 C953 1.429 . S
C957 C958 1.523 . S
C958 C942 1.368 . S
C958 C954 1.368 . S
C958 C957 1.523 . S
H959 C934 0.950 . S
H960 C936 0.950 . S
H961 C937 0.949 . S
H962 C939 0.950 1_565 S
H963 C941 0.950 . S
C964 C965 1.349 . S
C964 C966 1.327 . S
C964 H989 0.950 . S
C965 C964 1.349 . S
C965 C981 1.349 . S
C966 C964 1.327 . S
C966 C985 1.429 . S
C966 H990 0.950 . S
C967 C984 1.574 . S
C967 C986 1.368 . S
C967 H991 0.949 . S
H968 C972 0.949 . S
C969 C970 1.349 . S
C969 C971 1.327 . S
C969 H992 0.950 1_554 S
C970 C969 1.349 . S
C970 C982 1.349 . S
C971 C969 1.327 . S
C971 C987 1.429 . S
C971 H993 0.950 1_554 S
C972 H968 0.949 . S
C972 C980 1.574 . S
C972 C988 1.368 . S
H973 C981 0.950 . S
H974 C979 0.950 . S
H975 C980 0.949 . S
H976 C982 0.950 . S
H977 C983 0.950 . S
H978 C984 0.949 . S
C979 H974 0.950 . S
C979 C981 1.327 . S
C979 C985 1.429 . S
C980 C972 1.574 . S
C980 H975 0.949 . S
C980 C986 1.368 . S
C981 C965 1.349 . S
C981 H973 0.950 . S
C981 C979 1.327 . S
C982 C970 1.349 . S
C982 H976 0.950 . S
C982 C983 1.327 . S
C983 H977 0.950 . S
C983 C982 1.327 . S
C983 C987 1.429 . S
C984 C967 1.574 . S
C984 H978 0.949 . S
C984 C988 1.368 . S
C985 C966 1.429 . S
C985 C979 1.429 . S
C985 C986 1.523 . S
C986 C967 1.368 . S
C986 C980 1.368 . S
C986 C985 1.523 . S
C987 C971 1.429 . S
C987 C983 1.429 . S
C987 C988 1.523 . S
C988 C972 1.368 . S
C988 C984 1.368 . S
C988 C987 1.523 . S
H989 C964 0.950 . S
H990 C966 0.950 . S
H991 C967 0.949 . S
H992 C969 0.950 1_556 S
H993 C971 0.950 1_556 S
C994 C995 1.349 . S
C994 C996 1.327 . S
C994 H1019 0.950 . S
C995 C994 1.349 . S
C995 C1011 1.349 . S
C996 C994 1.327 . S
C996 C1015 1.429 . S
C996 H1020 0.950 . S
C997 C1014 1.574 . S
C997 C1016 1.368 . S
C997 H1021 0.949 . S
H998 C1002 0.949 . S
C999 C1000 1.349 . S
C999 C1001 1.327 . S
C999 H1022 0.950 . S
C1000 C999 1.349 . S
C1000 C1012 1.349 . S
C1001 C999 1.327 . S
C1001 C1017 1.429 . S
C1001 H1023 0.950 . S
C1002 H998 0.949 . S
C1002 C1010 1.574 . S
C1002 C1018 1.368 . S
H1003 C1011 0.950 . S
H1004 C1009 0.950 . S
H1005 C1010 0.949 . S
H1006 C1012 0.950 . S
H1007 C1013 0.950 . S
H1008 C1014 0.949 . S
C1009 H1004 0.950 . S
C1009 C1011 1.327 . S
C1009 C1015 1.429 . S
C1010 C1002 1.574 . S
C1010 H1005 0.949 . S
C1010 C1016 1.368 . S
C1011 C995 1.349 . S
C1011 H1003 0.950 . S
C1011 C1009 1.327 . S
C1012 C1000 1.349 . S
C1012 H1006 0.950 . S
C1012 C1013 1.327 . S
C1013 H1007 0.950 . S
C1013 C1012 1.327 . S
C1013 C1017 1.429 . S
C1014 C997 1.574 . S
C1014 H1008 0.949 . S
C1014 C1018 1.368 . S
C1015 C996 1.429 . S
C1015 C1009 1.429 . S
C1015 C1016 1.523 . S
C1016 C997 1.368 . S
C1016 C1010 1.368 . S
C1016 C1015 1.523 . S
C1017 C1001 1.429 . S
C1017 C1013 1.429 . S
C1017 C1018 1.523 . S
C1018 C1002 1.368 . S
C1018 C1014 1.368 . S
C1018 C1017 1.523 . S
H1019 C994 0.950 . S
H1020 C996 0.950 . S
H1021 C997 0.949 . S
H1022 C999 0.950 . S
H1023 C1001 0.950 . S
C1024 C1025 1.349 . S
C1024 C1026 1.327 . S
C1024 H1049 0.950 . S
C1025 C1024 1.349 . S
C1025 C1041 1.349 . S
C1026 C1024 1.327 . S
C1026 C1045 1.429 . S
C1026 H1050 0.950 . S
C1027 C1044 1.574 . S
C1027 C1046 1.368 . S
C1027 H1051 0.949 . S
H1028 C1032 0.949 . S
C1029 C1030 1.349 . S
C1029 C1031 1.327 . S
C1029 H1052 0.950 1_556 S
C1030 C1029 1.349 . S
C1030 C1042 1.349 . S
C1031 C1029 1.327 . S
C1031 C1047 1.429 . S
C1031 H1053 0.950 . S
C1032 H1028 0.949 . S
C1032 C1040 1.574 . S
C1032 C1048 1.368 . S
H1033 C1041 0.950 . S
H1034 C1039 0.950 . S
H1035 C1040 0.949 . S
H1036 C1042 0.950 . S
H1037 C1043 0.950 . S
H1038 C1044 0.949 . S
C1039 H1034 0.950 . S
C1039 C1041 1.327 . S
C1039 C1045 1.429 . S
C1040 C1032 1.574 . S
C1040 H1035 0.949 . S
C1040 C1046 1.368 . S
C1041 C1025 1.349 . S
C1041 H1033 0.950 . S
C1041 C1039 1.327 . S
C1042 C1030 1.349 . S
C1042 H1036 0.950 . S
C1042 C1043 1.327 . S
C1043 H1037 0.950 . S
C1043 C1042 1.327 . S
C1043 C1047 1.429 . S
C1044 C1027 1.574 . S
C1044 H1038 0.949 . S
C1044 C1048 1.368 . S
C1045 C1026 1.429 . S
C1045 C1039 1.429 . S
C1045 C1046 1.523 . S
C1046 C1027 1.368 . S
C1046 C1040 1.368 . S
C1046 C1045 1.523 . S
C1047 C1031 1.429 . S
C1047 C1043 1.429 . S
C1047 C1048 1.523 . S
C1048 C1032 1.368 . S
C1048 C1044 1.368 . S
C1048 C1047 1.523 . S
H1049 C1024 0.950 . S
H1050 C1026 0.950 . S
H1051 C1027 0.949 . S
H1052 C1029 0.950 1_554 S
H1053 C1031 0.950 . S
C1054 C1055 1.349 . S
C1054 C1056 1.327 . S
C1054 H1079 0.950 . S
C1055 C1054 1.349 . S
C1055 C1071 1.349 . S
C1056 C1054 1.327 . S
C1056 C1075 1.429 . S
C1056 H1080 0.950 . S
C1057 C1074 1.574 . S
C1057 C1076 1.368 . S
C1057 H1081 0.949 . S
H1058 C1062 0.949 . S
C1059 C1060 1.349 . S
C1059 C1061 1.327 . S
C1059 H1082 0.950 . S
C1060 C1059 1.349 . S
C1060 C1072 1.349 . S
C1061 C1059 1.327 . S
C1061 C1077 1.429 . S
C1061 H1083 0.950 . S
C1062 H1058 0.949 . S
C1062 C1070 1.574 . S
C1062 C1078 1.368 . S
H1063 C1071 0.950 . S
H1064 C1069 0.950 . S
H1065 C1070 0.949 . S
H1066 C1072 0.950 . S
H1067 C1073 0.950 . S
H1068 C1074 0.949 . S
C1069 H1064 0.950 . S
C1069 C1071 1.327 . S
C1069 C1075 1.429 . S
C1070 C1062 1.574 . S
C1070 H1065 0.949 . S
C1070 C1076 1.368 . S
C1071 C1055 1.349 . S
C1071 H1063 0.950 . S
C1071 C1069 1.327 . S
C1072 C1060 1.349 . S
C1072 H1066 0.950 . S
C1072 C1073 1.327 . S
C1073 H1067 0.950 . S
C1073 C1072 1.327 . S
C1073 C1077 1.429 . S
C1074 C1057 1.574 . S
C1074 H1068 0.949 . S
C1074 C1078 1.368 . S
C1075 C1056 1.429 . S
C1075 C1069 1.429 . S
C1075 C1076 1.523 . S
C1076 C1057 1.368 . S
C1076 C1070 1.368 . S
C1076 C1075 1.523 . S
C1077 C1061 1.429 . S
C1077 C1073 1.429 . S
C1077 C1078 1.523 . S
C1078 C1062 1.368 . S
C1078 C1074 1.368 . S
C1078 C1077 1.523 . S
H1079 C1054 0.950 . S
H1080 C1056 0.950 . S
H1081 C1057 0.949 . S
H1082 C1059 0.950 . S
H1083 C1061 0.950 . S
C1084 C1085 1.349 . S
C1084 C1086 1.327 . S
C1084 H1109 0.950 . S
C1085 C1084 1.349 . S
C1085 C1101 1.349 . S
C1086 C1084 1.327 . S
C1086 C1105 1.429 . S
C1086 H1110 0.950 . S
C1087 C1104 1.574 . S
C1087 C1106 1.368 . S
C1087 H1111 0.949 . S
H1088 C1092 0.949 . S
C1089 C1090 1.349 . S
C1089 C1091 1.327 . S
C1089 H1112 0.950 . S
C1090 C1089 1.349 . S
C1090 C1102 1.349 . S
C1091 C1089 1.327 . S
C1091 C1107 1.429 . S
C1091 H1113 0.950 . S
C1092 H1088 0.949 . S
C1092 C1100 1.574 . S
C1092 C1108 1.368 . S
H1093 C1101 0.950 . S
H1094 C1099 0.950 . S
H1095 C1100 0.949 . S
H1096 C1102 0.950 . S
H1097 C1103 0.950 . S
H1098 C1104 0.949 . S
C1099 H1094 0.950 . S
C1099 C1101 1.327 . S
C1099 C1105 1.429 . S
C1100 C1092 1.574 . S
C1100 H1095 0.949 . S
C1100 C1106 1.368 . S
C1101 C1085 1.349 . S
C1101 H1093 0.950 . S
C1101 C1099 1.327 . S
C1102 C1090 1.349 . S
C1102 H1096 0.950 . S
C1102 C1103 1.327 . S
C1103 H1097 0.950 . S
C1103 C1102 1.327 . S
C1103 C1107 1.429 . S
C1104 C1087 1.574 . S
C1104 H1098 0.949 . S
C1104 C1108 1.368 . S
C1105 C1086 1.429 . S
C1105 C1099 1.429 . S
C1105 C1106 1.523 . S
C1106 C1087 1.368 . S
C1106 C1100 1.368 . S
C1106 C1105 1.523 . S
C1107 C1091 1.429 . S
C1107 C1103 1.429 . S
C1107 C1108 1.523 . S
C1108 C1092 1.368 . S
C1108 C1104 1.368 . S
C1108 C1107 1.523 . S
H1109 C1084 0.950 . S
H1110 C1086 0.950 . S
H1111 C1087 0.949 . S
H1112 C1089 0.950 . S
H1113 C1091 0.950 . S
C1114 C1115 1.349 . S
C1114 C1116 1.327 . S
C1114 H1139 0.950 . S
C1115 C1114 1.349 . S
C1115 C1131 1.349 . S
C1116 C1114 1.327 . S
C1116 C1135 1.429 . S
C1116 H1140 0.950 . S
C1117 C1134 1.574 . S
C1117 C1136 1.368 . S
C1117 H1141 0.949 . S
H1118 C1122 0.949 . S
C1119 C1120 1.349 . S
C1119 C1121 1.327 . S
C1119 H1142 0.950 . S
C1120 C1119 1.349 . S
C1120 C1132 1.349 . S
C1121 C1119 1.327 . S
C1121 C1137 1.429 . S
C1121 H1143 0.950 . S
C1122 H1118 0.949 . S
C1122 C1130 1.574 . S
C1122 C1138 1.368 . S
H1123 C1131 0.950 . S
H1124 C1129 0.950 . S
H1125 C1130 0.949 . S
H1126 C1132 0.950 . S
H1127 C1133 0.950 . S
H1128 C1134 0.949 . S
C1129 H1124 0.950 . S
C1129 C1131 1.327 . S
C1129 C1135 1.429 . S
C1130 C1122 1.574 . S
C1130 H1125 0.949 . S
C1130 C1136 1.368 . S
C1131 C1115 1.349 . S
C1131 H1123 0.950 . S
C1131 C1129 1.327 . S
C1132 C1120 1.349 . S
C1132 H1126 0.950 . S
C1132 C1133 1.327 . S
C1133 H1127 0.950 . S
C1133 C1132 1.327 . S
C1133 C1137 1.429 . S
C1134 C1117 1.574 . S
C1134 H1128 0.949 . S
C1134 C1138 1.368 . S
C1135 C1116 1.429 . S
C1135 C1129 1.429 . S
C1135 C1136 1.523 . S
C1136 C1117 1.368 . S
C1136 C1130 1.368 . S
C1136 C1135 1.523 . S
C1137 C1121 1.429 . S
C1137 C1133 1.429 . S
C1137 C1138 1.523 . S
C1138 C1122 1.368 . S
C1138 C1134 1.368 . S
C1138 C1137 1.523 . S
H1139 C1114 0.950 . S
H1140 C1116 0.950 . S
H1141 C1117 0.949 . S
H1142 C1119 0.950 . S
H1143 C1121 0.950 . S
C425 C1 2.300 . S
C430 C288 2.330 . S
C455 C67 2.264 . S
C460 C330 2.299 . S
C490 C360 0.961 . S
C485 C97 0.949 . S
C515 C133 1.042 . S
C520 C394 1.040 . S
C550 C351 1.880 . S
C545 C25 1.844 . S
C580 C305 1.872 . S
C575 C37 1.846 . S
C610 C398 1.360 . S
C605 C103 1.329 . S
C640 C364 1.412 . S
C635 C109 1.404 . S
C665 C31 2.199 . S
C670 C419 2.231 . S
C700 C326 1.107 . S
C695 C73 1.089 . S
C725 C139 1.128 . S
C730 C301 1.132 . S
C755 C61 2.153 . S
C760 C385 2.187 . S
C790 C317 2.343 . S
C785 C175 2.339 . S
C815 C181 2.253 . S
C820 C339 2.282 . S
C845 C247 0.981 . S
C850 C369 0.979 . S
C875 C277 1.041 . S
C880 C403 1.037 . S
C905 C145 1.869 . S
C910 C322 1.875 . S
C940 C296 1.876 . S
C935 C211 1.847 . S
C970 C407 1.340 . S
C965 C217 1.335 . S
C1000 C373 1.433 . S
C995 C283 1.429 . S
C1025 C169 2.224 . S
C1030 C390 2.223 . S
C1060 C335 1.106 . S
C1055 C241 1.105 . S
C1090 C292 1.121 . S
C1085 C253 1.112 . S
C1115 C205 2.159 . S
C1120 C356 2.196 . S
