# Generated by pormake.
# Topology rtl, (3,6)-cn, num edge types: 1
# Building blocks:
#     Node 0, Type 0, BuildingBlock: CUQRIR_clean_linker_1, # of connection points: 3
#     Node 1, Type 0, BuildingBlock: CUQRIR_clean_linker_1, # of connection points: 3
#     Node 2, Type 0, BuildingBlock: CUQRIR_clean_linker_1, # of connection points: 3
#     Node 3, Type 0, BuildingBlock: CUQRIR_clean_linker_1, # of connection points: 3
#     Node 4, Type 1, BuildingBlock: KUMBUR_clean_sbu_1, # of connection points: 6
#     Node 5, Type 1, BuildingBlock: KUMBUR_clean_sbu_1, # of connection points: 6
#     Edge 6, Type (0, 1), BuildingBlock: CIFDUS_clean_linker_0, # of connection points: 2
#     Edge 7, Type (0, 1), BuildingBlock: CIFDUS_clean_linker_0, # of connection points: 2
#     Edge 8, Type (0, 1), BuildingBlock: CIFDUS_clean_linker_0, # of connection points: 2
#     Edge 9, Type (0, 1), BuildingBlock: CIFDUS_clean_linker_0, # of connection points: 2
#     Edge 10, Type (0, 1), BuildingBlock: CIFDUS_clean_linker_0, # of connection points: 2
#     Edge 11, Type (0, 1), BuildingBlock: CIFDUS_clean_linker_0, # of connection points: 2
#     Edge 12, Type (0, 1), BuildingBlock: CIFDUS_clean_linker_0, # of connection points: 2
#     Edge 13, Type (0, 1), BuildingBlock: CIFDUS_clean_linker_0, # of connection points: 2
#     Edge 14, Type (0, 1), BuildingBlock: CIFDUS_clean_linker_0, # of connection points: 2
#     Edge 15, Type (0, 1), BuildingBlock: CIFDUS_clean_linker_0, # of connection points: 2
#     Edge 16, Type (0, 1), BuildingBlock: CIFDUS_clean_linker_0, # of connection points: 2
#     Edge 17, Type (0, 1), BuildingBlock: CIFDUS_clean_linker_0, # of connection points: 2
# Relax obj value: 0.065
# Max RMSD: 0.236
# Mean RMSD: 0.181
data_MOF--net-rtl--node1-KUMBUR_clean_sbu_1--node2-CUQRIR_clean_linker_1--edge1-CIFDUS_clean_linker_0
_symmetry_space_group_name_H-M    P1
_symmetry_Int_Tables_number       1
_symmetry_cell_setting            triclinic
loop_
_symmetry_equiv_pos_as_xyz
'x, y, z'
_cell_length_a     28.4257
_cell_length_b     28.984144
_cell_length_c     21.662265
_cell_angle_alpha  74.681189
_cell_angle_beta   97.485585
_cell_angle_gamma 91.264747
loop_
_atom_site_label
_atom_site_type_symbol
_atom_site_fract_x
_atom_site_fract_y
_atom_site_fract_z
_atom_type_partial_charge
C0 C 0.23676 0.80257 0.98123 0.0
N1 N 0.20374 0.82645 1.00086 0.0
N2 N 0.2669 0.77778 0.03238 0.0
C3 C 0.23759 0.80113 0.91239 0.0
C4 C 0.25047 0.7873 0.08389 0.0
N5 N 0.21189 0.81664 0.06471 0.0
C6 C 0.27336 0.77013 0.15272 0.0
H7 H 0.20189 0.80821 0.88408 0.0
H8 H 0.25069 0.7659 0.91022 0.0
H9 H 0.26173 0.82925 0.88959 0.0
H10 H 0.26853 0.79697 0.17972 0.0
H11 H 0.31183 0.76301 0.15508 0.0
H12 H 0.25615 0.73659 0.17657 0.0
C13 C 0.73695 0.73495 0.72027 0.0
N14 N 0.70785 0.6984 0.71379 0.0
N15 N 0.75411 0.75561 0.66405 0.0
C16 C 0.74889 0.75015 0.78154 0.0
C17 C 0.73464 0.73006 0.62325 0.0
N18 N 0.70679 0.69499 0.65362 0.0
C19 C 0.74365 0.73849 0.55416 0.0
H20 H 0.75862 0.78848 0.77103 0.0
H21 H 0.77965 0.72851 0.81092 0.0
H22 H 0.71865 0.74385 0.81024 0.0
H23 H 0.77231 0.71379 0.5521 0.0
H24 H 0.75512 0.77548 0.53359 0.0
H25 H 0.71131 0.73104 0.52385 0.0
C26 C 0.80374 0.22798 0.17942 0.0
N27 N 0.83854 0.20411 0.16346 0.0
N28 N 0.77293 0.2486 0.12659 0.0
C29 C 0.80192 0.2336 0.24618 0.0
C30 C 0.79064 0.23639 0.07768 0.0
N31 N 0.83049 0.20918 0.10029 0.0
C32 C 0.769 0.25072 1.00813 0.0
H33 H 0.78099 0.20401 0.27299 0.0
H34 H 0.78501 0.26815 0.24429 0.0
H35 H 0.83819 0.23177 0.27289 0.0
H36 H 0.7853 0.28454 0.98333 0.0
H37 H 0.73015 0.25658 1.004 0.0
H38 H 0.7759 0.22315 0.98329 0.0
C39 C 0.30584 0.28082 0.43889 0.0
N40 N 0.33675 0.31657 0.44272 0.0
N41 N 0.28389 0.26724 0.49297 0.0
C42 C 0.29964 0.25714 0.38451 0.0
C43 C 0.30275 0.29637 0.52937 0.0
N44 N 0.33505 0.32582 0.49914 0.0
C45 C 0.28736 0.2986 0.59246 0.0
H46 H 0.26978 0.27493 0.34842 0.0
H47 H 0.29125 0.21873 0.40234 0.0
H48 H 0.33205 0.2606 0.36018 0.0
H49 H 0.3109 0.27497 0.63275 0.0
H50 H 0.2502 0.28667 0.59568 0.0
H51 H 0.29037 0.33554 0.59814 0.0
Tb52 Tb 0.06281 0.96679 0.5444 0.0
C53 C 0.94714 0.14551 0.50627 0.0
N54 N 0.98555 0.13093 0.55114 0.0
C55 C 0.01972 0.20868 0.51744 0.0
C56 C 0.9447 0.19129 0.4625 0.0
C57 C 0.01987 0.16314 0.56045 0.0
C58 C 0.98254 0.2224 0.46715 0.0
C59 C 0.86586 0.13099 0.46731 0.0
C60 C 0.90835 0.11606 0.50852 0.0
C61 C 0.86413 0.17522 0.42068 0.0
C62 C 0.9036 0.20529 0.41805 0.0
Tb63 Tb 0.98394 0.05331 0.61348 0.0
N64 N 0.91165 0.0735 0.55377 0.0
C65 C 0.8262 0.1015 0.47551 0.0
C66 C 0.87242 0.04603 0.56503 0.0
C67 C 0.8293 0.05918 0.52532 0.0
H68 H 0.04779 0.15381 0.60071 0.0
H69 H 0.79858 0.03669 0.5331 0.0
H70 H 0.03797 0.85782 0.62666 0.0
H71 H 0.23244 0.05535 0.52526 0.0
H72 H 0.87489 0.01346 0.60369 0.0
H73 H 0.79283 0.11162 0.44475 0.0
H74 H 0.15008 0.03874 0.48673 0.0
H75 H 0.048 0.23333 0.52359 0.0
H76 H 0.83197 0.18711 0.38803 0.0
H77 H 0.90126 0.24004 0.38334 0.0
H78 H 0.07505 0.79561 0.72144 0.0
H79 H 0.98218 0.25788 0.43442 0.0
H80 H 0.27273 1.00454 0.62818 0.0
N81 N 0.09603 0.90518 0.62728 0.0
C82 C 0.14115 0.9112 0.6528 0.0
C83 C 0.0939 0.82816 0.70295 0.0
C84 C 0.16393 0.8768 0.7064 0.0
C85 C 0.07283 0.86347 0.64973 0.0
C86 C 0.13941 0.83514 0.73201 0.0
N87 N 0.14145 0.98261 0.57068 0.0
C88 C 0.16634 0.01758 0.53316 0.0
C89 C 0.21206 0.95888 0.64696 0.0
C90 C 0.16446 0.95181 0.62399 0.0
C91 C 0.23612 0.99777 0.61223 0.0
C92 C 0.21349 0.02654 0.55418 0.0
H93 H 0.15562 0.80779 0.77325 0.0
H94 H 0.22861 0.85903 0.77315 0.0
H95 H 0.27093 0.93092 0.72102 0.0
O96 O 0.10486 0.94914 0.4807 0.0
O97 O 0.05484 0.95485 0.64728 0.0
O98 O 0.05442 0.02953 0.66297 0.0
O99 O 0.03475 0.92184 0.48631 0.0
O100 O 0.07004 0.04511 0.51065 0.0
O101 O 0.05814 0.07206 0.5986 0.0
O102 O 0.96239 0.02557 0.70533 0.0
O103 O 0.95703 0.02756 0.52904 0.0
O104 O 0.02145 0.02588 0.47646 0.0
O105 O 0.96149 0.10105 0.66244 0.0
O106 O 0.96218 0.9776 0.63512 0.0
O107 O 0.9928 0.93726 0.56691 0.0
C108 C 0.0666 0.98428 0.68318 0.0
C109 C 0.0903 0.87715 0.45141 0.0
C110 C 0.11165 0.82976 0.38055 0.0
C111 C 0.1268 0.79247 0.43567 0.0
C112 C 0.10624 0.83967 0.50527 0.0
C113 C 0.12404 0.79748 0.49738 0.0
C114 C 0.09328 0.8722 0.38901 0.0
C115 C 0.07768 0.0761 0.54556 0.0
C116 C 0.07304 0.92261 0.45919 0.0
C117 C 0.21049 0.88484 0.73178 0.0
C118 C 0.23454 0.92584 0.70212 0.0
C119 C 0.97635 0.03479 0.47572 0.0
C120 C 0.97657 0.07545 0.77561 0.0
C121 C 0.96686 0.09689 0.87511 0.0
C122 C 1.01627 0.09229 0.89304 0.0
C123 C 0.02575 0.07126 0.79427 0.0
C124 C 0.94726 0.0881 0.81616 0.0
C125 C 0.04539 0.07945 0.85288 0.0
C126 C 0.96393 0.94115 0.60896 0.0
C127 C 0.95536 0.0675 0.71368 0.0
H128 H 0.14199 0.75973 0.43125 0.0
H129 H 0.10573 0.84315 0.55337 0.0
H130 H 0.13645 0.76879 0.53933 0.0
H131 H 0.08147 0.90138 0.34726 0.0
H132 H 0.03237 0.09826 0.93838 0.0
H133 H 0.04892 0.06189 0.76353 0.0
H134 H 0.90933 0.09198 0.80115 0.0
H135 H 0.08336 0.07598 0.86715 0.0
Tb136 Tb 0.471 0.48916 1.00859 0.0
C137 C 0.64297 0.59983 0.07123 0.0
N138 N 0.63495 0.55315 0.09967 0.0
C139 C 0.71237 0.53147 0.08355 0.0
C140 C 0.68529 0.61389 0.04455 0.0
C141 C 0.66954 0.51925 0.10878 0.0
C142 C 0.72005 0.5789 0.05053 0.0
C143 C 0.61446 0.68186 0.03774 0.0
C144 C 0.6078 0.63312 0.06764 0.0
C145 C 0.65597 0.69604 1.00923 0.0
C146 C 0.69133 0.66213 1.01266 0.0
Tb147 Tb 0.56363 0.53637 0.13701 0.0
N148 N 0.56786 0.61786 0.09523 0.0
C149 C 0.57971 0.71498 0.0387 0.0
C150 C 0.53611 0.65072 0.10126 0.0
C151 C 0.54086 0.69942 0.07171 0.0
H152 H 0.66385 0.48277 0.13499 0.0
H153 H 0.5149 0.72503 0.07533 0.0
H154 H 0.38892 0.57538 0.94701 0.0
H155 H 0.45224 0.29934 0.10716 0.0
H156 H 0.50748 0.64016 0.12992 0.0
H157 H 0.58343 0.75276 1.01625 0.0
H158 H 0.49411 0.37324 0.05782 0.0
H159 H 0.73937 0.50434 0.08951 0.0
H160 H 0.66144 0.73327 0.98539 0.0
H161 H 0.72335 0.67365 0.99105 0.0
H162 H 0.30439 0.58729 0.95417 0.0
H163 H 0.75307 0.5882 0.03056 0.0
H164 H 0.36894 0.30429 0.12733 0.0
N165 N 0.39198 0.50386 1.00687 0.0
C166 C 0.3665 0.46604 0.03588 0.0
C167 C 0.32154 0.55311 0.97803 0.0
C168 C 0.31774 0.47069 0.03946 0.0
C169 C 0.36968 0.54641 0.97497 0.0
C170 C 0.29558 0.51527 1.01129 0.0
N171 N 0.43564 0.41903 0.05346 0.0
C172 C 0.45776 0.37539 0.06674 0.0
C173 C 0.36366 0.38107 0.08715 0.0
C174 C 0.38903 0.42199 0.0596 0.0
C175 C 0.38716 0.33663 0.10591 0.0
C176 C 0.4342 0.33369 0.0946 0.0
H177 H 0.25821 0.52043 1.01315 0.0
H178 H 0.25525 0.43345 0.07352 0.0
H179 H 0.29547 0.35486 0.11514 0.0
O180 O 0.50168 0.46226 0.94187 0.0
O181 O 0.47933 0.45073 0.11188 0.0
O182 O 0.49777 0.50512 0.17189 0.0
O183 O 0.42951 0.48768 0.92105 0.0
O184 O 0.54282 0.45832 0.0311 0.0
O185 O 0.57282 0.46148 0.13546 0.0
O186 O 0.58828 0.57046 0.20952 0.0
O187 O 0.57782 0.53958 0.03779 0.0
O188 O 0.5059 0.55754 0.97581 0.0
O189 O 0.60063 0.49549 0.22428 0.0
O190 O 0.48981 0.56168 0.12334 0.0
O191 O 0.46397 0.56268 1.01726 0.0
C192 C 0.47459 0.46751 0.16141 0.0
C193 C 0.47016 0.4886 0.83213 0.0
C194 C 0.46547 0.47442 0.72527 0.0
C195 C 0.4834 0.52043 0.70156 0.0
C196 C 0.48834 0.53424 0.80817 0.0
C197 C 0.49486 0.55004 0.74297 0.0
C198 C 0.45875 0.45913 0.7907 0.0
C199 C 0.57199 0.44364 0.08516 0.0
C200 C 0.46362 0.46953 0.90022 0.0
C201 C 0.29262 0.43052 0.06966 0.0
C202 C 0.31553 0.38576 0.09339 0.0
C203 C 0.55209 0.56263 0.98401 0.0
C204 C 0.58913 0.52234 0.31563 0.0
C205 C 0.60031 0.53668 0.42306 0.0
C206 C 0.55977 0.50944 0.43796 0.0
C207 C 0.54883 0.49525 0.33166 0.0
C208 C 0.61476 0.54287 0.3615 0.0
C209 C 0.53436 0.4888 0.39255 0.0
C210 C 0.45928 0.57495 0.07046 0.0
C211 C 0.60396 0.53104 0.25074 0.0
H212 H 0.4891 0.5332 0.65143 0.0
H213 H 0.49746 0.55737 0.83969 0.0
H214 H 0.50901 0.58527 0.72452 0.0
H215 H 0.44414 0.4241 0.80965 0.0
H216 H 0.54797 0.50368 0.48496 0.0
H217 H 0.52846 0.47928 0.29713 0.0
H218 H 0.64541 0.56447 0.34868 0.0
H219 H 0.50326 0.46779 0.40453 0.0
H220 H 0.2048 0.24845 0.42005 0.0
H221 H 0.28907 0.19891 0.6056 0.0
H222 H 0.23048 0.13784 0.6405 0.0
H223 H 0.15486 0.09837 0.61841 0.0
H224 H 0.07596 0.13999 0.42833 0.0
H225 H 0.13251 0.20405 0.39458 0.0
C226 C 0.21056 0.22382 0.46769 0.0
C227 C 0.25077 0.22884 0.51065 0.0
C228 C 0.17743 0.18758 0.48665 0.0
C229 C 0.25774 0.19665 0.57237 0.0
C230 C 0.22439 0.16156 0.59222 0.0
C231 C 0.15009 0.12179 0.56979 0.0
C232 C 0.11126 0.11517 0.526 0.0
C233 C 0.18388 0.15695 0.55002 0.0
C234 C 0.10573 0.14473 0.46267 0.0
C235 C 0.13803 0.18123 0.44345 0.0
H236 H 0.28443 0.68883 0.1086 0.0
H237 H 0.33615 0.79643 0.95504 0.0
H238 H 0.39835 0.74136 0.94883 0.0
H239 H 0.43862 0.66229 0.98854 0.0
H240 H 0.39542 0.56104 0.15501 0.0
H241 H 0.32959 0.61371 0.15579 0.0
C242 C 0.3099 0.7005 0.07473 0.0
C243 C 0.30543 0.74638 0.03188 0.0
C244 C 0.34685 0.66954 0.07368 0.0
C245 C 0.33825 0.76083 0.98746 0.0
C246 C 0.37397 0.72951 0.98423 0.0
C247 C 0.4145 0.65198 0.02462 0.0
C248 C 0.42057 0.60755 0.07054 0.0
C249 C 0.37851 0.68368 0.02697 0.0
C250 C 0.39037 0.5947 0.11839 0.0
C251 C 0.35303 0.6249 0.11906 0.0
H252 H 0.84484 0.75736 0.71602 0.0
H253 H 0.73458 0.84222 0.58219 0.0
H254 H 0.79017 0.90796 0.55225 0.0
H255 H 0.87132 0.93994 0.56174 0.0
H256 H 0.98083 0.85659 0.69947 0.0
H257 H 0.92514 0.79131 0.73009 0.0
C258 C 0.83326 0.7905 0.68077 0.0
C259 C 0.78617 0.79514 0.65056 0.0
C260 C 0.86547 0.82796 0.66407 0.0
C261 C 0.77098 0.83808 0.6052 0.0
C262 C 0.8027 0.87546 0.58817 0.0
C263 C 0.88271 0.90746 0.59855 0.0
C264 C 0.93012 0.90232 0.62742 0.0
C265 C 0.85018 0.8706 0.61673 0.0
C266 C 0.94475 0.86049 0.67539 0.0
C267 C 0.91281 0.82344 0.69331 0.0
H268 H 0.75053 0.33523 0.04615 0.0
H269 H 0.703 0.22647 0.2019 0.0
H270 H 0.63717 0.27827 0.2058 0.0
H271 H 0.59384 0.35574 0.16555 0.0
H272 H 0.63636 0.46034 1.0015 0.0
H273 H 0.7031 0.40916 0.99926 0.0
C274 C 0.72515 0.32264 0.07993 0.0
C275 C 0.73171 0.27744 0.12408 0.0
C276 C 0.68672 0.35206 0.08052 0.0
C277 C 0.69897 0.26159 0.16827 0.0
C278 C 0.66132 0.29108 0.17035 0.0
C279 C 0.61787 0.36701 0.12951 0.0
C280 C 0.61101 0.41164 0.08429 0.0
C281 C 0.6551 0.33663 0.12712 0.0
C282 C 0.64146 0.42598 0.03684 0.0
C283 C 0.6795 0.3968 0.03557 0.0
H284 H 0.1561 0.76088 0.14165 0.0
H285 H 0.20722 0.90438 0.08376 0.0
H286 H 0.17547 0.92384 0.1744 0.0
H287 H 0.1432 0.89565 0.27869 0.0
H288 H 0.09245 0.75104 0.33547 0.0
H289 H 0.11373 0.73617 0.23697 0.0
C290 C 0.15879 0.79673 0.14813 0.0
C291 C 0.18351 0.83134 0.10661 0.0
C292 C 0.14138 0.80701 0.20084 0.0
C293 C 0.18771 0.87759 0.11512 0.0
C294 C 0.17003 0.8884 0.16723 0.0
C295 C 0.13572 0.86129 0.26877 0.0
C296 C 0.11713 0.82421 0.31527 0.0
C297 C 0.14823 0.85284 0.21176 0.0
C298 C 0.10782 0.77984 0.30146 0.0
C299 C 0.11979 0.77132 0.24495 0.0
H300 H 0.62145 0.71087 0.74318 0.0
H301 H 0.74389 0.61777 0.79772 0.0
H302 H 0.70712 0.56722 0.88859 0.0
H303 H 0.63958 0.55001 0.95203 0.0
H304 H 0.51599 0.64243 0.89493 0.0
H305 H 0.55304 0.69257 0.80506 0.0
C306 C 0.63944 0.67903 0.77464 0.0
C307 C 0.68468 0.66717 0.76383 0.0
C308 C 0.61786 0.65028 0.8261 0.0
C309 C 0.70865 0.62671 0.80518 0.0
C310 C 0.68772 0.59812 0.85699 0.0
C311 C 0.62093 0.58123 0.91998 0.0
C312 C 0.57522 0.59266 0.93015 0.0
C313 C 0.64231 0.6096 0.86798 0.0
C314 C 0.55116 0.63288 0.88789 0.0
C315 C 0.57235 0.66158 0.8366 0.0
H316 H 0.81927 0.12237 0.24479 0.0
H317 H 0.93278 0.21741 0.18574 0.0
H318 H 0.98812 0.16939 0.2749 0.0
H319 H 1.00157 0.10464 0.37592 0.0
H320 H 0.88564 0.01363 0.43908 0.0
H321 H 0.8335 0.05536 0.3423 0.0
C322 C 0.85647 0.13155 0.25099 0.0
C323 C 0.8726 0.17228 0.20852 0.0
C324 C 0.8872 0.10484 0.30345 0.0
C325 C 0.92031 0.1852 0.21698 0.0
C326 C 0.95161 0.15814 0.26836 0.0
C327 C 0.96514 0.09351 0.36758 0.0
C328 C 0.94716 0.05636 0.41407 0.0
C329 C 0.93518 0.11844 0.31266 0.0
C330 C 0.89989 0.04238 0.4037 0.0
C331 C 0.87018 0.06617 0.34853 0.0
H332 H 0.40005 0.30578 0.60271 0.0
H333 H 0.33259 0.42166 0.45226 0.0
H334 H 0.37168 0.48 0.50581 0.0
H335 H 0.41757 0.49654 0.60283 0.0
H336 H 0.48521 0.37913 0.7526 0.0
H337 H 0.45384 0.32275 0.69223 0.0
C338 C 0.39479 0.34391 0.5815 0.0
C339 C 0.36355 0.35987 0.52444 0.0
C340 C 0.41691 0.37671 0.61288 0.0
C341 C 0.35672 0.40907 0.49637 0.0
C342 C 0.37879 0.44217 0.52716 0.0
C343 C 0.42628 0.45876 0.62151 0.0
C344 C 0.45283 0.44198 0.68284 0.0
C345 C 0.40792 0.42631 0.5865 0.0
C346 C 0.46383 0.39286 0.70632 0.0
C347 C 0.44606 0.36056 0.67176 0.0
H348 H 0.74301 0.63272 0.60013 0.0
H349 H 0.61211 0.68205 0.64169 0.0
H350 H 0.56687 0.63347 0.57817 0.0
H351 H 0.56484 0.58415 0.50075 0.0
H352 H 0.69641 0.53941 0.4536 0.0
H353 H 0.74118 0.58002 0.52748 0.0
C354 C 0.70459 0.63228 0.59558 0.0
C355 C 0.68078 0.66063 0.62551 0.0
C356 C 0.67904 0.60603 0.55666 0.0
C357 C 0.63108 0.65976 0.62002 0.0
C358 C 0.60529 0.63256 0.58291 0.0
C359 C 0.6033 0.58271 0.50735 0.0
C360 C 0.62722 0.55909 0.47116 0.0
C361 C 0.62889 0.60658 0.54955 0.0
C362 C 0.67711 0.558 0.47992 0.0
C363 C 0.70275 0.58096 0.52248 0.0
H364 H 0.81465 0.13637 0.04567 0.0
H365 H 0.91403 0.24609 0.06987 0.0
H366 H 0.96645 0.22006 1.00375 0.0
H367 H 0.98249 0.16754 0.93639 0.0
H368 H 0.88178 0.05904 0.90856 0.0
H369 H 0.83087 0.08336 0.97753 0.0
C370 C 0.84797 0.15412 0.03639 0.0
C371 C 0.86126 0.19244 0.06293 0.0
C372 C 0.87723 0.13948 0.99724 0.0
C373 C 0.90401 0.21588 0.05066 0.0
C374 C 0.93362 0.20123 1.01258 0.0
C375 C 0.94963 0.1489 0.94593 0.0
C376 C 0.93603 0.11147 0.91743 0.0
C377 C 0.9205 0.16319 0.98539 0.0
C378 C 0.89288 0.08826 0.92938 0.0
C379 C 0.86386 0.10199 0.96909 0.0
H380 H 0.31242 0.38019 0.32939 0.0
H381 H 0.43108 0.30388 0.45528 0.0
H382 H 0.4854 0.34313 0.37824 0.0
H383 H 0.49855 0.39976 0.27411 0.0
H384 H 0.38027 0.48153 0.1541 0.0
H385 H 0.32603 0.43961 0.22823 0.0
C386 C 0.35017 0.37223 0.33925 0.0
C387 C 0.36811 0.33908 0.39687 0.0
C388 C 0.38096 0.39578 0.29552 0.0
C389 C 0.41697 0.32918 0.41058 0.0
C390 C 0.44781 0.35161 0.36671 0.0
C391 C 0.46089 0.40823 0.2646 0.0
C392 C 0.44297 0.44273 0.20808 0.0
C393 C 0.43021 0.38504 0.30894 0.0
C394 C 0.39442 0.45415 0.1964 0.0
C395 C 0.3635 0.43043 0.23909 0.0
H396 H 0.20978 0.91777 0.93698 0.0
H397 H 0.11625 0.79776 0.96779 0.0
H398 H 0.06238 0.838 0.87131 0.0
H399 H 0.04824 0.90294 0.77087 0.0
H400 H 0.1414 0.02388 0.74062 0.0
H401 H 0.18943 0.9882 0.84427 0.0
C402 C 0.17649 0.90168 0.9237 0.0
C403 C 0.16614 0.85554 0.95925 0.0
C404 C 0.14654 0.92473 0.8677 0.0
C405 C 0.12387 0.83384 0.94145 0.0
C406 C 0.09367 0.8565 0.88592 0.0
C407 C 0.07869 0.92164 0.78769 0.0
C408 C 0.09185 0.96553 0.74848 0.0
C409 C 0.10559 0.90119 0.84747 0.0
C410 C 0.13088 0.98997 0.77044 0.0
C411 C 0.1583 0.96957 0.82946 0.0
loop_
_geom_bond_atom_site_label_1
_geom_bond_atom_site_label_2
_geom_bond_distance
_geom_bond_site_symmetry_2
_ccdc_geom_bond_type
C0 N1 1.317 . S
C0 N2 1.348 1_556 S
C0 C3 1.485 . S
N1 C0 1.317 . S
N1 N5 1.370 1_556 S
N2 C0 1.348 1_554 S
N2 C4 1.346 . S
C3 C0 1.485 . S
C3 H7 0.960 . S
C3 H8 0.961 . S
C3 H9 0.960 . S
C4 N2 1.346 . S
C4 N5 1.307 . S
C4 C6 1.486 . S
N5 N1 1.370 1_554 S
N5 C4 1.307 . S
C6 C4 1.486 . S
C6 H10 0.960 . S
C6 H11 0.960 . S
C6 H12 0.959 . S
H7 C3 0.960 . S
H8 C3 0.961 . S
H9 C3 0.960 . S
H10 C6 0.960 . S
H11 C6 0.960 . S
H12 C6 0.959 . S
C13 N14 1.317 . S
C13 N15 1.348 . S
C13 C16 1.485 . S
N14 C13 1.317 . S
N14 N18 1.370 . S
N15 C13 1.348 . S
N15 C17 1.346 . S
C16 C13 1.485 . S
C16 H20 0.960 . S
C16 H21 0.961 . S
C16 H22 0.960 . S
C17 N15 1.346 . S
C17 N18 1.307 . S
C17 C19 1.486 . S
N18 N14 1.370 . S
N18 C17 1.307 . S
C19 C17 1.486 . S
C19 H23 0.960 . S
C19 H24 0.960 . S
C19 H25 0.959 . S
H20 C16 0.960 . S
H21 C16 0.961 . S
H22 C16 0.960 . S
H23 C19 0.960 . S
H24 C19 0.960 . S
H25 C19 0.959 . S
C26 N27 1.317 . S
C26 N28 1.348 . S
C26 C29 1.485 . S
N27 C26 1.317 . S
N27 N31 1.370 . S
N28 C26 1.348 . S
N28 C30 1.346 . S
C29 C26 1.485 . S
C29 H33 0.960 . S
C29 H34 0.961 . S
C29 H35 0.960 . S
C30 N28 1.346 . S
C30 N31 1.307 . S
C30 C32 1.486 1_554 S
N31 N27 1.370 . S
N31 C30 1.307 . S
C32 C30 1.486 1_556 S
C32 H36 0.960 . S
C32 H37 0.960 . S
C32 H38 0.959 . S
H33 C29 0.960 . S
H34 C29 0.961 . S
H35 C29 0.960 . S
H36 C32 0.960 . S
H37 C32 0.960 . S
H38 C32 0.959 . S
C39 N40 1.317 . S
C39 N41 1.348 . S
C39 C42 1.485 . S
N40 C39 1.317 . S
N40 N44 1.370 . S
N41 C39 1.348 . S
N41 C43 1.346 . S
C42 C39 1.485 . S
C42 H46 0.960 . S
C42 H47 0.961 . S
C42 H48 0.960 . S
C43 N41 1.346 . S
C43 N44 1.307 . S
C43 C45 1.486 . S
N44 N40 1.370 . S
N44 C43 1.307 . S
C45 C43 1.486 . S
C45 H49 0.960 . S
C45 H50 0.960 . S
C45 H51 0.959 . S
H46 C42 0.960 . S
H47 C42 0.961 . S
H48 C42 0.960 . S
H49 C45 0.960 . S
H50 C45 0.960 . S
H51 C45 0.959 . S
Tb52 N81 2.617 . S
Tb52 N87 2.572 . S
Tb52 O96 2.465 . S
Tb52 O97 2.387 . S
Tb52 O99 2.428 . S
Tb52 O100 2.308 1_565 S
Tb52 O104 2.349 1_465 S
Tb52 O107 2.393 1_455 S
Tb52 C116 2.802 . S
C53 N54 1.379 . S
C53 C56 1.416 . S
C53 C60 1.424 . S
N54 C53 1.379 . S
N54 C57 1.334 1_655 S
N54 Tb63 2.617 . S
C55 C57 1.390 . S
C55 C58 1.339 1_455 S
C55 H75 0.930 . S
C56 C53 1.416 . S
C56 C58 1.416 . S
C56 C62 1.448 . S
C57 N54 1.334 1_455 S
C57 C55 1.390 . S
C57 H68 0.930 . S
C58 C55 1.339 1_655 S
C58 C56 1.416 . S
C58 H79 0.930 . S
C59 C60 1.413 . S
C59 C61 1.427 . S
C59 C65 1.416 . S
C60 C53 1.424 . S
C60 C59 1.413 . S
C60 N64 1.361 . S
C61 C59 1.427 . S
C61 C62 1.328 . S
C61 H76 0.929 . S
C62 C56 1.448 . S
C62 C61 1.328 . S
C62 H77 0.930 . S
Tb63 N54 2.617 . S
Tb63 N64 2.572 . S
Tb63 O98 2.349 1_655 S
Tb63 O101 2.393 1_655 S
Tb63 O102 2.465 . S
Tb63 O103 2.387 . S
Tb63 O105 2.428 . S
Tb63 O106 2.308 1_545 S
Tb63 C127 2.802 . S
N64 C60 1.361 . S
N64 Tb63 2.572 . S
N64 C66 1.340 . S
C65 C59 1.416 . S
C65 C67 1.332 . S
C65 H73 0.931 . S
C66 N64 1.340 . S
C66 C67 1.407 . S
C66 H72 0.930 . S
C67 C65 1.332 . S
C67 C66 1.407 . S
C67 H69 0.929 . S
H68 C57 0.930 . S
H69 C67 0.929 . S
H70 C85 0.930 1_655 S
H71 C92 0.929 . S
H72 C66 0.930 . S
H73 C65 0.931 . S
H74 C88 0.930 . S
H75 C55 0.930 . S
H76 C61 0.929 . S
H77 C62 0.930 . S
H78 C83 0.930 1_655 S
H79 C58 0.930 . S
H80 C91 0.931 . S
N81 Tb52 2.617 . S
N81 C82 1.379 . S
N81 C85 1.334 . S
C82 N81 1.379 . S
C82 C84 1.416 . S
C82 C90 1.424 . S
C83 H78 0.930 1_455 S
C83 C85 1.390 . S
C83 C86 1.339 . S
C84 C82 1.416 . S
C84 C86 1.416 . S
C84 C117 1.448 . S
C85 H70 0.930 1_455 S
C85 N81 1.334 . S
C85 C83 1.390 . S
C86 C83 1.339 . S
C86 C84 1.416 . S
C86 H93 0.930 . S
N87 Tb52 2.572 . S
N87 C88 1.340 . S
N87 C90 1.361 . S
C88 H74 0.930 . S
C88 N87 1.340 . S
C88 C92 1.407 . S
C89 C90 1.413 . S
C89 C91 1.416 . S
C89 C118 1.427 . S
C90 C82 1.424 . S
C90 N87 1.361 . S
C90 C89 1.413 . S
C91 H80 0.931 . S
C91 C89 1.416 . S
C91 C92 1.332 . S
C92 H71 0.929 . S
C92 C88 1.407 . S
C92 C91 1.332 . S
H93 C86 0.930 . S
H94 C117 0.930 . S
H95 C118 0.929 . S
O96 Tb52 2.465 . S
O96 C116 1.264 . S
O97 Tb52 2.387 . S
O97 C108 1.264 . S
O98 Tb63 2.349 1_455 S
O98 C108 1.243 1_545 S
O99 Tb52 2.428 . S
O99 C116 1.256 . S
O100 Tb52 2.308 1_545 S
O100 C115 1.266 . S
O101 Tb63 2.393 1_455 S
O101 C115 1.248 . S
O102 Tb63 2.465 . S
O102 C127 1.264 . S
O103 Tb63 2.387 . S
O103 C119 1.264 . S
O104 Tb52 2.349 1_645 S
O104 C119 1.243 . S
O105 Tb63 2.428 . S
O105 C127 1.256 . S
O106 Tb63 2.308 1_565 S
O106 C126 1.266 . S
O107 Tb52 2.393 1_655 S
O107 C126 1.248 . S
C108 O97 1.264 . S
C108 O98 1.243 1_565 S
C109 C112 1.399 . S
C109 C114 1.383 . S
C109 C116 1.496 . S
C110 C111 1.399 . S
C110 C114 1.389 . S
C111 C110 1.399 . S
C111 C113 1.380 . S
C111 H128 0.929 . S
C112 C109 1.399 . S
C112 C113 1.392 . S
C112 H129 0.929 . S
C113 C111 1.380 . S
C113 C112 1.392 . S
C113 H130 0.929 . S
C114 C109 1.383 . S
C114 C110 1.389 . S
C114 H131 0.931 . S
C115 O100 1.266 . S
C115 O101 1.248 . S
C116 Tb52 2.802 . S
C116 O96 1.264 . S
C116 O99 1.256 . S
C116 C109 1.496 . S
C117 C84 1.448 . S
C117 H94 0.930 . S
C117 C118 1.328 . S
C118 C89 1.427 . S
C118 H95 0.929 . S
C118 C117 1.328 . S
C119 O103 1.264 . S
C119 O104 1.243 . S
C120 C123 1.399 . S
C120 C124 1.383 . S
C120 C127 1.496 . S
C121 C122 1.399 . S
C121 C124 1.389 . S
C122 C121 1.399 . S
C122 C125 1.380 . S
C122 H132 0.929 . S
C123 C120 1.399 . S
C123 C125 1.392 . S
C123 H133 0.929 . S
C124 C120 1.383 . S
C124 C121 1.389 . S
C124 H134 0.931 . S
C125 C122 1.380 . S
C125 C123 1.392 . S
C125 H135 0.929 . S
C126 O106 1.266 . S
C126 O107 1.248 . S
C127 Tb63 2.802 . S
C127 O102 1.264 . S
C127 O105 1.256 . S
C127 C120 1.496 . S
H128 C111 0.929 . S
H129 C112 0.929 . S
H130 C113 0.929 . S
H131 C114 0.931 . S
H132 C122 0.929 . S
H133 C123 0.929 . S
H134 C124 0.931 . S
H135 C125 0.929 . S
Tb136 N165 2.614 1_556 S
Tb136 N171 2.570 1_556 S
Tb136 O180 2.482 . S
Tb136 O181 2.368 1_556 S
Tb136 O183 2.444 . S
Tb136 O184 2.304 1_556 S
Tb136 O188 2.358 . S
Tb136 O191 2.386 1_556 S
Tb136 C200 2.821 . S
C137 N138 1.379 . S
C137 C140 1.416 . S
C137 C144 1.424 . S
N138 C137 1.379 . S
N138 C141 1.334 . S
N138 Tb147 2.617 . S
C139 C141 1.390 . S
C139 C142 1.339 . S
C139 H159 0.930 . S
C140 C137 1.416 . S
C140 C142 1.416 . S
C140 C146 1.448 . S
C141 N138 1.334 . S
C141 C139 1.390 . S
C141 H152 0.930 . S
C142 C139 1.339 . S
C142 C140 1.416 . S
C142 H163 0.930 . S
C143 C144 1.413 . S
C143 C145 1.427 . S
C143 C149 1.416 . S
C144 C137 1.424 . S
C144 C143 1.413 . S
C144 N148 1.361 . S
C145 C143 1.427 . S
C145 C146 1.328 . S
C145 H160 0.929 . S
C146 C140 1.448 . S
C146 C145 1.328 . S
C146 H161 0.930 . S
Tb147 N138 2.617 . S
Tb147 N148 2.572 . S
Tb147 O182 2.349 . S
Tb147 O185 2.393 . S
Tb147 O186 2.465 . S
Tb147 O187 2.387 . S
Tb147 O189 2.428 . S
Tb147 O190 2.308 . S
Tb147 C211 2.802 . S
N148 C144 1.361 . S
N148 Tb147 2.572 . S
N148 C150 1.340 . S
C149 C143 1.416 . S
C149 C151 1.332 . S
C149 H157 0.931 . S
C150 N148 1.340 . S
C150 C151 1.407 . S
C150 H156 0.930 . S
C151 C149 1.332 . S
C151 C150 1.407 . S
C151 H153 0.929 . S
H152 C141 0.930 . S
H153 C151 0.929 . S
H154 C169 0.930 . S
H155 C176 0.929 . S
H156 C150 0.930 . S
H157 C149 0.931 . S
H158 C172 0.930 . S
H159 C139 0.930 . S
H160 C145 0.929 . S
H161 C146 0.930 . S
H162 C167 0.930 . S
H163 C142 0.930 . S
H164 C175 0.931 . S
N165 Tb136 2.614 1_554 S
N165 C166 1.379 . S
N165 C169 1.334 1_554 S
C166 N165 1.379 . S
C166 C168 1.416 . S
C166 C174 1.424 . S
C167 H162 0.930 . S
C167 C169 1.390 . S
C167 C170 1.339 1_556 S
C168 C166 1.416 . S
C168 C170 1.416 . S
C168 C201 1.448 . S
C169 H154 0.930 . S
C169 N165 1.334 1_556 S
C169 C167 1.390 . S
C170 C167 1.339 1_554 S
C170 C168 1.416 . S
C170 H177 0.930 . S
N171 Tb136 2.570 1_554 S
N171 C172 1.340 . S
N171 C174 1.361 . S
C172 H158 0.930 . S
C172 N171 1.340 . S
C172 C176 1.407 . S
C173 C174 1.413 . S
C173 C175 1.416 . S
C173 C202 1.427 . S
C174 C166 1.424 . S
C174 N171 1.361 . S
C174 C173 1.413 . S
C175 H164 0.931 . S
C175 C173 1.416 . S
C175 C176 1.332 . S
C176 H155 0.929 . S
C176 C172 1.407 . S
C176 C175 1.332 . S
H177 C170 0.930 . S
H178 C201 0.930 . S
H179 C202 0.929 . S
O180 Tb136 2.482 . S
O180 C200 1.264 . S
O181 Tb136 2.368 1_554 S
O181 C192 1.264 . S
O182 Tb147 2.349 . S
O182 C192 1.243 . S
O183 Tb136 2.444 . S
O183 C200 1.256 . S
O184 Tb136 2.304 1_554 S
O184 C199 1.266 . S
O185 Tb147 2.393 . S
O185 C199 1.248 . S
O186 Tb147 2.465 . S
O186 C211 1.264 . S
O187 Tb147 2.387 . S
O187 C203 1.264 1_554 S
O188 Tb136 2.358 . S
O188 C203 1.243 . S
O189 Tb147 2.428 . S
O189 C211 1.256 . S
O190 Tb147 2.308 . S
O190 C210 1.266 . S
O191 Tb136 2.386 1_554 S
O191 C210 1.248 . S
C192 O181 1.264 . S
C192 O182 1.243 . S
C193 C196 1.399 . S
C193 C198 1.383 . S
C193 C200 1.496 . S
C194 C195 1.399 . S
C194 C198 1.389 . S
C195 C194 1.399 . S
C195 C197 1.380 . S
C195 H212 0.929 . S
C196 C193 1.399 . S
C196 C197 1.392 . S
C196 H213 0.929 . S
C197 C195 1.380 . S
C197 C196 1.392 . S
C197 H214 0.929 . S
C198 C193 1.383 . S
C198 C194 1.389 . S
C198 H215 0.931 . S
C199 O184 1.266 . S
C199 O185 1.248 . S
C200 Tb136 2.821 . S
C200 O180 1.264 . S
C200 O183 1.256 . S
C200 C193 1.496 . S
C201 C168 1.448 . S
C201 H178 0.930 . S
C201 C202 1.328 . S
C202 C173 1.427 . S
C202 H179 0.929 . S
C202 C201 1.328 . S
C203 O187 1.264 1_556 S
C203 O188 1.243 . S
C204 C207 1.399 . S
C204 C208 1.383 . S
C204 C211 1.496 . S
C205 C206 1.399 . S
C205 C208 1.389 . S
C206 C205 1.399 . S
C206 C209 1.380 . S
C206 H216 0.929 . S
C207 C204 1.399 . S
C207 C209 1.392 . S
C207 H217 0.929 . S
C208 C204 1.383 . S
C208 C205 1.389 . S
C208 H218 0.931 . S
C209 C206 1.380 . S
C209 C207 1.392 . S
C209 H219 0.929 . S
C210 O190 1.266 . S
C210 O191 1.248 . S
C211 Tb147 2.802 . S
C211 O186 1.264 . S
C211 O189 1.256 . S
C211 C204 1.496 . S
H212 C195 0.929 . S
H213 C196 0.929 . S
H214 C197 0.929 . S
H215 C198 0.931 . S
H216 C206 0.929 . S
H217 C207 0.929 . S
H218 C208 0.931 . S
H219 C209 0.929 . S
H220 C226 0.930 . S
H221 C229 0.930 . S
H222 C230 0.930 . S
H223 C231 0.930 . S
H224 C234 0.930 . S
H225 C235 0.930 . S
C226 H220 0.930 . S
C226 C227 1.355 . S
C226 C228 1.415 . S
C227 C226 1.355 . S
C227 C229 1.419 . S
C228 C226 1.415 . S
C228 C233 1.425 . S
C228 C235 1.409 . S
C229 H221 0.930 . S
C229 C227 1.419 . S
C229 C230 1.362 . S
C230 H222 0.930 . S
C230 C229 1.362 . S
C230 C233 1.409 . S
C231 H223 0.930 . S
C231 C232 1.355 . S
C231 C233 1.415 . S
C232 C231 1.355 . S
C232 C234 1.419 . S
C233 C228 1.425 . S
C233 C230 1.409 . S
C233 C231 1.415 . S
C234 H224 0.930 . S
C234 C232 1.419 . S
C234 C235 1.362 . S
C235 H225 0.930 . S
C235 C228 1.409 . S
C235 C234 1.362 . S
H236 C242 0.930 . S
H237 C245 0.930 . S
H238 C246 0.930 . S
H239 C247 0.930 . S
H240 C250 0.930 . S
H241 C251 0.930 . S
C242 H236 0.930 . S
C242 C243 1.355 . S
C242 C244 1.415 . S
C243 C242 1.355 . S
C243 C245 1.419 . S
C244 C242 1.415 . S
C244 C249 1.425 . S
C244 C251 1.409 . S
C245 H237 0.930 . S
C245 C243 1.419 . S
C245 C246 1.362 . S
C246 H238 0.930 . S
C246 C245 1.362 . S
C246 C249 1.409 . S
C247 H239 0.930 . S
C247 C248 1.355 . S
C247 C249 1.415 . S
C248 C247 1.355 . S
C248 C250 1.419 . S
C249 C244 1.425 . S
C249 C246 1.409 . S
C249 C247 1.415 . S
C250 H240 0.930 . S
C250 C248 1.419 . S
C250 C251 1.362 . S
C251 H241 0.930 . S
C251 C244 1.409 . S
C251 C250 1.362 . S
H252 C258 0.930 . S
H253 C261 0.930 . S
H254 C262 0.930 . S
H255 C263 0.930 . S
H256 C266 0.930 . S
H257 C267 0.930 . S
C258 H252 0.930 . S
C258 C259 1.355 . S
C258 C260 1.415 . S
C259 C258 1.355 . S
C259 C261 1.419 . S
C260 C258 1.415 . S
C260 C265 1.425 . S
C260 C267 1.409 . S
C261 H253 0.930 . S
C261 C259 1.419 . S
C261 C262 1.362 . S
C262 H254 0.930 . S
C262 C261 1.362 . S
C262 C265 1.409 . S
C263 H255 0.930 . S
C263 C264 1.355 . S
C263 C265 1.415 . S
C264 C263 1.355 . S
C264 C266 1.419 . S
C265 C260 1.425 . S
C265 C262 1.409 . S
C265 C263 1.415 . S
C266 H256 0.930 . S
C266 C264 1.419 . S
C266 C267 1.362 . S
C267 H257 0.930 . S
C267 C260 1.409 . S
C267 C266 1.362 . S
H268 C274 0.930 . S
H269 C277 0.930 . S
H270 C278 0.930 . S
H271 C279 0.930 . S
H272 C282 0.930 . S
H273 C283 0.930 . S
C274 H268 0.930 . S
C274 C275 1.355 . S
C274 C276 1.415 . S
C275 C274 1.355 . S
C275 C277 1.419 . S
C276 C274 1.415 . S
C276 C281 1.425 . S
C276 C283 1.409 . S
C277 H269 0.930 . S
C277 C275 1.419 . S
C277 C278 1.362 . S
C278 H270 0.930 . S
C278 C277 1.362 . S
C278 C281 1.409 . S
C279 H271 0.930 . S
C279 C280 1.355 . S
C279 C281 1.415 . S
C280 C279 1.355 . S
C280 C282 1.419 . S
C281 C276 1.425 . S
C281 C278 1.409 . S
C281 C279 1.415 . S
C282 H272 0.930 . S
C282 C280 1.419 . S
C282 C283 1.362 . S
C283 H273 0.930 . S
C283 C276 1.409 . S
C283 C282 1.362 . S
H284 C290 0.930 . S
H285 C293 0.930 . S
H286 C294 0.930 . S
H287 C295 0.930 . S
H288 C298 0.930 . S
H289 C299 0.930 . S
C290 H284 0.930 . S
C290 C291 1.355 . S
C290 C292 1.415 . S
C291 C290 1.355 . S
C291 C293 1.419 . S
C292 C290 1.415 . S
C292 C297 1.425 . S
C292 C299 1.409 . S
C293 H285 0.930 . S
C293 C291 1.419 . S
C293 C294 1.362 . S
C294 H286 0.930 . S
C294 C293 1.362 . S
C294 C297 1.409 . S
C295 H287 0.930 . S
C295 C296 1.355 . S
C295 C297 1.415 . S
C296 C295 1.355 . S
C296 C298 1.419 . S
C297 C292 1.425 . S
C297 C294 1.409 . S
C297 C295 1.415 . S
C298 H288 0.930 . S
C298 C296 1.419 . S
C298 C299 1.362 . S
C299 H289 0.930 . S
C299 C292 1.409 . S
C299 C298 1.362 . S
H300 C306 0.930 . S
H301 C309 0.930 . S
H302 C310 0.930 . S
H303 C311 0.930 . S
H304 C314 0.930 . S
H305 C315 0.930 . S
C306 H300 0.930 . S
C306 C307 1.355 . S
C306 C308 1.415 . S
C307 C306 1.355 . S
C307 C309 1.419 . S
C308 C306 1.415 . S
C308 C313 1.425 . S
C308 C315 1.409 . S
C309 H301 0.930 . S
C309 C307 1.419 . S
C309 C310 1.362 . S
C310 H302 0.930 . S
C310 C309 1.362 . S
C310 C313 1.409 . S
C311 H303 0.930 . S
C311 C312 1.355 . S
C311 C313 1.415 . S
C312 C311 1.355 . S
C312 C314 1.419 . S
C313 C308 1.425 . S
C313 C310 1.409 . S
C313 C311 1.415 . S
C314 H304 0.930 . S
C314 C312 1.419 . S
C314 C315 1.362 . S
C315 H305 0.930 . S
C315 C308 1.409 . S
C315 C314 1.362 . S
H316 C322 0.930 . S
H317 C325 0.930 . S
H318 C326 0.930 . S
H319 C327 0.930 . S
H320 C330 0.930 . S
H321 C331 0.930 . S
C322 H316 0.930 . S
C322 C323 1.355 . S
C322 C324 1.415 . S
C323 C322 1.355 . S
C323 C325 1.419 . S
C324 C322 1.415 . S
C324 C329 1.425 . S
C324 C331 1.409 . S
C325 H317 0.930 . S
C325 C323 1.419 . S
C325 C326 1.362 . S
C326 H318 0.930 . S
C326 C325 1.362 . S
C326 C329 1.409 . S
C327 H319 0.930 . S
C327 C328 1.355 . S
C327 C329 1.415 . S
C328 C327 1.355 . S
C328 C330 1.419 . S
C329 C324 1.425 . S
C329 C326 1.409 . S
C329 C327 1.415 . S
C330 H320 0.930 . S
C330 C328 1.419 . S
C330 C331 1.362 . S
C331 H321 0.930 . S
C331 C324 1.409 . S
C331 C330 1.362 . S
H332 C338 0.930 . S
H333 C341 0.930 . S
H334 C342 0.930 . S
H335 C343 0.930 . S
H336 C346 0.930 . S
H337 C347 0.930 . S
C338 H332 0.930 . S
C338 C339 1.355 . S
C338 C340 1.415 . S
C339 C338 1.355 . S
C339 C341 1.419 . S
C340 C338 1.415 . S
C340 C345 1.425 . S
C340 C347 1.409 . S
C341 H333 0.930 . S
C341 C339 1.419 . S
C341 C342 1.362 . S
C342 H334 0.930 . S
C342 C341 1.362 . S
C342 C345 1.409 . S
C343 H335 0.930 . S
C343 C344 1.355 . S
C343 C345 1.415 . S
C344 C343 1.355 . S
C344 C346 1.419 . S
C345 C340 1.425 . S
C345 C342 1.409 . S
C345 C343 1.415 . S
C346 H336 0.930 . S
C346 C344 1.419 . S
C346 C347 1.362 . S
C347 H337 0.930 . S
C347 C340 1.409 . S
C347 C346 1.362 . S
H348 C354 0.930 . S
H349 C357 0.930 . S
H350 C358 0.930 . S
H351 C359 0.930 . S
H352 C362 0.930 . S
H353 C363 0.930 . S
C354 H348 0.930 . S
C354 C355 1.355 . S
C354 C356 1.415 . S
C355 C354 1.355 . S
C355 C357 1.419 . S
C356 C354 1.415 . S
C356 C361 1.425 . S
C356 C363 1.409 . S
C357 H349 0.930 . S
C357 C355 1.419 . S
C357 C358 1.362 . S
C358 H350 0.930 . S
C358 C357 1.362 . S
C358 C361 1.409 . S
C359 H351 0.930 . S
C359 C360 1.355 . S
C359 C361 1.415 . S
C360 C359 1.355 . S
C360 C362 1.419 . S
C361 C356 1.425 . S
C361 C358 1.409 . S
C361 C359 1.415 . S
C362 H352 0.930 . S
C362 C360 1.419 . S
C362 C363 1.362 . S
C363 H353 0.930 . S
C363 C356 1.409 . S
C363 C362 1.362 . S
H364 C370 0.930 . S
H365 C373 0.930 . S
H366 C374 0.930 . S
H367 C375 0.930 . S
H368 C378 0.916 1_565 S
H369 C379 0.930 1_554 S
C370 H364 0.930 . S
C370 C371 1.355 . S
C370 C372 1.415 1_554 S
C371 C370 1.355 . S
C371 C373 1.419 1_554 S
C372 C370 1.415 1_556 S
C372 C377 1.425 . S
C372 C379 1.409 . S
C373 H365 0.930 . S
C373 C371 1.419 1_556 S
C373 C374 1.362 . S
C374 H366 0.930 . S
C374 C373 1.362 . S
C374 C377 1.409 . S
C375 H367 0.930 . S
C375 C376 1.355 . S
C375 C377 1.415 . S
C376 C375 1.355 . S
C376 C378 1.419 . S
C377 C372 1.425 . S
C377 C374 1.409 . S
C377 C375 1.415 . S
C378 H368 0.916 1_545 S
C378 C376 1.419 . S
C378 C379 1.362 . S
C379 H369 0.930 1_556 S
C379 C372 1.409 . S
C379 C378 1.362 . S
H380 C386 0.930 . S
H381 C389 0.930 . S
H382 C390 0.930 . S
H383 C391 0.930 . S
H384 C394 0.930 . S
H385 C395 0.930 . S
C386 H380 0.930 . S
C386 C387 1.355 . S
C386 C388 1.415 . S
C387 C386 1.355 . S
C387 C389 1.419 . S
C388 C386 1.415 . S
C388 C393 1.425 . S
C388 C395 1.409 . S
C389 H381 0.930 . S
C389 C387 1.419 . S
C389 C390 1.362 . S
C390 H382 0.930 . S
C390 C389 1.362 . S
C390 C393 1.409 . S
C391 H383 0.930 . S
C391 C392 1.355 . S
C391 C393 1.415 . S
C392 C391 1.355 . S
C392 C394 1.419 . S
C393 C388 1.425 . S
C393 C390 1.409 . S
C393 C391 1.415 . S
C394 H384 0.930 . S
C394 C392 1.419 . S
C394 C395 1.362 . S
C395 H385 0.930 . S
C395 C388 1.409 . S
C395 C394 1.362 . S
H396 C402 0.930 . S
H397 C405 0.930 . S
H398 C406 0.930 . S
H399 C407 0.930 . S
H400 C410 0.930 . S
H401 C411 0.930 . S
C402 H396 0.930 . S
C402 C403 1.355 . S
C402 C404 1.415 . S
C403 C402 1.355 . S
C403 C405 1.419 . S
C404 C402 1.415 . S
C404 C409 1.425 . S
C404 C411 1.409 . S
C405 H397 0.930 . S
C405 C403 1.419 . S
C405 C406 1.362 . S
C406 H398 0.930 . S
C406 C405 1.362 . S
C406 C409 1.409 . S
C407 H399 0.930 . S
C407 C408 1.355 . S
C407 C409 1.415 . S
C408 C407 1.355 . S
C408 C410 1.419 . S
C409 C404 1.425 . S
C409 C406 1.409 . S
C409 C407 1.415 . S
C410 H400 0.930 . S
C410 C408 1.419 . S
C410 C411 1.362 . S
C411 H401 0.930 . S
C411 C404 1.409 . S
C411 C410 1.362 . S
C232 C115 1.665 . S
C227 N41 1.669 . S
C243 N2 1.632 . S
C248 C210 1.596 . S
C259 N15 1.676 . S
C264 C126 1.651 . S
C275 N28 1.621 . S
C280 C199 1.615 . S
C296 C110 1.334 . S
C291 N5 1.582 . S
C312 C203 1.660 . S
C307 N14 1.638 . S
C323 N27 1.553 . S
C328 C119 1.604 . S
C339 N44 1.549 . S
C344 C194 1.445 . S
C360 C205 1.350 . S
C355 N18 1.580 . S
C376 C121 1.440 . S
C371 N31 1.574 . S
C392 C192 1.647 . S
C387 N40 1.658 . S
C403 N1 1.597 . S
C408 C108 1.601 . S
