# Generated by pormake.
# Topology eea, (3,6)-cn, num edge types: 1
# Building blocks:
#     Node 0, Type 0, BuildingBlock: PAMTOO_clean_linker_0, # of connection points: 3
#     Node 1, Type 0, BuildingBlock: PAMTOO_clean_linker_0, # of connection points: 3
#     Node 2, Type 0, BuildingBlock: PAMTOO_clean_linker_0, # of connection points: 3
#     Node 3, Type 0, BuildingBlock: PAMTOO_clean_linker_0, # of connection points: 3
#     Node 4, Type 0, BuildingBlock: PAMTOO_clean_linker_0, # of connection points: 3
#     Node 5, Type 0, BuildingBlock: PAMTOO_clean_linker_0, # of connection points: 3
#     Node 6, Type 0, BuildingBlock: PAMTOO_clean_linker_0, # of connection points: 3
#     Node 7, Type 0, BuildingBlock: PAMTOO_clean_linker_0, # of connection points: 3
#     Node 8, Type 0, BuildingBlock: PAMTOO_clean_linker_0, # of connection points: 3
#     Node 9, Type 0, BuildingBlock: PAMTOO_clean_linker_0, # of connection points: 3
#     Node 10, Type 0, BuildingBlock: PAMTOO_clean_linker_0, # of connection points: 3
#     Node 11, Type 0, BuildingBlock: PAMTOO_clean_linker_0, # of connection points: 3
#     Node 12, Type 0, BuildingBlock: PAMTOO_clean_linker_0, # of connection points: 3
#     Node 13, Type 0, BuildingBlock: PAMTOO_clean_linker_0, # of connection points: 3
#     Node 14, Type 0, BuildingBlock: PAMTOO_clean_linker_0, # of connection points: 3
#     Node 15, Type 0, BuildingBlock: PAMTOO_clean_linker_0, # of connection points: 3
#     Node 16, Type 0, BuildingBlock: PAMTOO_clean_linker_0, # of connection points: 3
#     Node 17, Type 0, BuildingBlock: PAMTOO_clean_linker_0, # of connection points: 3
#     Node 18, Type 1, BuildingBlock: LEVNOQ01_clean_sbu_1, # of connection points: 6
#     Node 19, Type 1, BuildingBlock: LEVNOQ01_clean_sbu_1, # of connection points: 6
#     Node 20, Type 1, BuildingBlock: LEVNOQ01_clean_sbu_1, # of connection points: 6
#     Node 21, Type 1, BuildingBlock: LEVNOQ01_clean_sbu_1, # of connection points: 6
#     Node 22, Type 1, BuildingBlock: LEVNOQ01_clean_sbu_1, # of connection points: 6
#     Node 23, Type 1, BuildingBlock: LEVNOQ01_clean_sbu_1, # of connection points: 6
#     Node 24, Type 1, BuildingBlock: LEVNOQ01_clean_sbu_1, # of connection points: 6
#     Node 25, Type 1, BuildingBlock: LEVNOQ01_clean_sbu_1, # of connection points: 6
#     Node 26, Type 1, BuildingBlock: LEVNOQ01_clean_sbu_1, # of connection points: 6
#     Edge 27, Type (0, 1), BuildingBlock: TEMPAE_clean_linker_10, # of connection points: 2
#     Edge 28, Type (0, 1), BuildingBlock: TEMPAE_clean_linker_10, # of connection points: 2
#     Edge 29, Type (0, 1), BuildingBlock: TEMPAE_clean_linker_10, # of connection points: 2
#     Edge 30, Type (0, 1), BuildingBlock: TEMPAE_clean_linker_10, # of connection points: 2
#     Edge 31, Type (0, 1), BuildingBlock: TEMPAE_clean_linker_10, # of connection points: 2
#     Edge 32, Type (0, 1), BuildingBlock: TEMPAE_clean_linker_10, # of connection points: 2
#     Edge 33, Type (0, 1), BuildingBlock: TEMPAE_clean_linker_10, # of connection points: 2
#     Edge 34, Type (0, 1), BuildingBlock: TEMPAE_clean_linker_10, # of connection points: 2
#     Edge 35, Type (0, 1), BuildingBlock: TEMPAE_clean_linker_10, # of connection points: 2
#     Edge 36, Type (0, 1), BuildingBlock: TEMPAE_clean_linker_10, # of connection points: 2
#     Edge 37, Type (0, 1), BuildingBlock: TEMPAE_clean_linker_10, # of connection points: 2
#     Edge 38, Type (0, 1), BuildingBlock: TEMPAE_clean_linker_10, # of connection points: 2
#     Edge 39, Type (0, 1), BuildingBlock: TEMPAE_clean_linker_10, # of connection points: 2
#     Edge 40, Type (0, 1), BuildingBlock: TEMPAE_clean_linker_10, # of connection points: 2
#     Edge 41, Type (0, 1), BuildingBlock: TEMPAE_clean_linker_10, # of connection points: 2
#     Edge 42, Type (0, 1), BuildingBlock: TEMPAE_clean_linker_10, # of connection points: 2
#     Edge 43, Type (0, 1), BuildingBlock: TEMPAE_clean_linker_10, # of connection points: 2
#     Edge 44, Type (0, 1), BuildingBlock: TEMPAE_clean_linker_10, # of connection points: 2
#     Edge 45, Type (0, 1), BuildingBlock: TEMPAE_clean_linker_10, # of connection points: 2
#     Edge 46, Type (0, 1), BuildingBlock: TEMPAE_clean_linker_10, # of connection points: 2
#     Edge 47, Type (0, 1), BuildingBlock: TEMPAE_clean_linker_10, # of connection points: 2
#     Edge 48, Type (0, 1), BuildingBlock: TEMPAE_clean_linker_10, # of connection points: 2
#     Edge 49, Type (0, 1), BuildingBlock: TEMPAE_clean_linker_10, # of connection points: 2
#     Edge 50, Type (0, 1), BuildingBlock: TEMPAE_clean_linker_10, # of connection points: 2
#     Edge 51, Type (0, 1), BuildingBlock: TEMPAE_clean_linker_10, # of connection points: 2
#     Edge 52, Type (0, 1), BuildingBlock: TEMPAE_clean_linker_10, # of connection points: 2
#     Edge 53, Type (0, 1), BuildingBlock: TEMPAE_clean_linker_10, # of connection points: 2
#     Edge 54, Type (0, 1), BuildingBlock: TEMPAE_clean_linker_10, # of connection points: 2
#     Edge 55, Type (0, 1), BuildingBlock: TEMPAE_clean_linker_10, # of connection points: 2
#     Edge 56, Type (0, 1), BuildingBlock: TEMPAE_clean_linker_10, # of connection points: 2
#     Edge 57, Type (0, 1), BuildingBlock: TEMPAE_clean_linker_10, # of connection points: 2
#     Edge 58, Type (0, 1), BuildingBlock: TEMPAE_clean_linker_10, # of connection points: 2
#     Edge 59, Type (0, 1), BuildingBlock: TEMPAE_clean_linker_10, # of connection points: 2
#     Edge 60, Type (0, 1), BuildingBlock: TEMPAE_clean_linker_10, # of connection points: 2
#     Edge 61, Type (0, 1), BuildingBlock: TEMPAE_clean_linker_10, # of connection points: 2
#     Edge 62, Type (0, 1), BuildingBlock: TEMPAE_clean_linker_10, # of connection points: 2
#     Edge 63, Type (0, 1), BuildingBlock: TEMPAE_clean_linker_10, # of connection points: 2
#     Edge 64, Type (0, 1), BuildingBlock: TEMPAE_clean_linker_10, # of connection points: 2
#     Edge 65, Type (0, 1), BuildingBlock: TEMPAE_clean_linker_10, # of connection points: 2
#     Edge 66, Type (0, 1), BuildingBlock: TEMPAE_clean_linker_10, # of connection points: 2
#     Edge 67, Type (0, 1), BuildingBlock: TEMPAE_clean_linker_10, # of connection points: 2
#     Edge 68, Type (0, 1), BuildingBlock: TEMPAE_clean_linker_10, # of connection points: 2
#     Edge 69, Type (0, 1), BuildingBlock: TEMPAE_clean_linker_10, # of connection points: 2
#     Edge 70, Type (0, 1), BuildingBlock: TEMPAE_clean_linker_10, # of connection points: 2
#     Edge 71, Type (0, 1), BuildingBlock: TEMPAE_clean_linker_10, # of connection points: 2
#     Edge 72, Type (0, 1), BuildingBlock: TEMPAE_clean_linker_10, # of connection points: 2
#     Edge 73, Type (0, 1), BuildingBlock: TEMPAE_clean_linker_10, # of connection points: 2
#     Edge 74, Type (0, 1), BuildingBlock: TEMPAE_clean_linker_10, # of connection points: 2
#     Edge 75, Type (0, 1), BuildingBlock: TEMPAE_clean_linker_10, # of connection points: 2
#     Edge 76, Type (0, 1), BuildingBlock: TEMPAE_clean_linker_10, # of connection points: 2
#     Edge 77, Type (0, 1), BuildingBlock: TEMPAE_clean_linker_10, # of connection points: 2
#     Edge 78, Type (0, 1), BuildingBlock: TEMPAE_clean_linker_10, # of connection points: 2
#     Edge 79, Type (0, 1), BuildingBlock: TEMPAE_clean_linker_10, # of connection points: 2
#     Edge 80, Type (0, 1), BuildingBlock: TEMPAE_clean_linker_10, # of connection points: 2
# Relax obj value: 0.082
# Max RMSD: 0.114
# Mean RMSD: 0.099
data_MOF--net-eea--node1-LEVNOQ01_clean_sbu_1--node2-PAMTOO_clean_linker_0--edge1-TEMPAE_clean_linker_10
_symmetry_space_group_name_H-M    P1
_symmetry_Int_Tables_number       1
_symmetry_cell_setting            triclinic
loop_
_symmetry_equiv_pos_as_xyz
'x, y, z'
_cell_length_a     58.989283
_cell_length_b     58.860469
_cell_length_c     45.08657
_cell_angle_alpha  90.281302
_cell_angle_beta   90.381587
_cell_angle_gamma 119.89474
loop_
_atom_site_label
_atom_site_type_symbol
_atom_site_fract_x
_atom_site_fract_y
_atom_site_fract_z
_atom_type_partial_charge
H0 H 0.26937 0.09988 0.39746 0.0
H1 H 0.24343 0.15614 0.4011 0.0
H2 H 0.21079 0.09479 0.33592 0.0
H3 H 0.21064 0.14108 0.30994 0.0
C4 C 0.21928 0.15326 0.33023 0.0
O5 O 0.2126 0.13722 0.35453 0.0
H6 H 0.24095 0.16467 0.32775 0.0
C7 C 0.25808 0.10802 0.38781 0.0
C8 C 0.23976 0.0943 0.36525 0.0
C9 C 0.25852 0.12942 0.40181 0.0
C10 C 0.24389 0.14003 0.38993 0.0
C11 C 0.22786 0.12813 0.36508 0.0
C12 C 0.22529 0.10503 0.35319 0.0
H13 H 0.91368 0.16237 0.38987 0.0
H14 H 0.84531 0.08509 0.38524 0.0
H15 H 0.90181 0.11086 0.3165 0.0
H16 H 0.84625 0.06258 0.29708 0.0
C17 C 0.83962 0.06058 0.3204 0.0
O18 O 0.86108 0.07113 0.33905 0.0
H19 H 0.82837 0.07106 0.32308 0.0
C20 C 0.90112 0.14416 0.37826 0.0
C21 C 0.90959 0.13962 0.35091 0.0
C22 C 0.87775 0.12491 0.39135 0.0
C23 C 0.8634 0.10064 0.37647 0.0
C24 C 0.87255 0.09565 0.35011 0.0
C25 C 0.89514 0.11516 0.33699 0.0
H26 H 0.83404 0.75628 0.38782 0.0
H27 H 0.90562 0.75456 0.40167 0.0
H28 H 0.89502 0.78948 0.32328 0.0
H29 H 0.92605 0.76145 0.31432 0.0
C30 C 0.93391 0.76379 0.33732 0.0
O31 O 0.92752 0.77986 0.35322 0.0
H32 H 0.92517 0.74414 0.34774 0.0
C33 C 0.853 0.75995 0.38032 0.0
C34 C 0.8624 0.77269 0.35326 0.0
C35 C 0.86824 0.75323 0.3983 0.0
C36 C 0.89331 0.75949 0.38845 0.0
C37 C 0.90284 0.77239 0.36141 0.0
C38 C 0.88738 0.77902 0.34382 0.0
H39 H 0.09238 0.25351 0.61942 0.0
H40 H 0.15817 0.24105 0.62409 0.0
H41 H 0.10008 0.21044 0.69203 0.0
H42 H 0.1566 0.22477 0.71495 0.0
C43 C 0.16421 0.22723 0.692 0.0
O44 O 0.14343 0.21373 0.67262 0.0
H45 H 0.17488 0.24858 0.68705 0.0
C46 C 0.10351 0.24626 0.63126 0.0
C47 C 0.09356 0.23217 0.65762 0.0
C48 C 0.12682 0.24975 0.61897 0.0
C49 C 0.14024 0.23877 0.63328 0.0
C50 C 0.13067 0.22482 0.65963 0.0
C51 C 0.1074 0.22151 0.6718 0.0
H52 H 0.73257 0.82952 0.62136 0.0
H53 H 0.75306 0.91046 0.62228 0.0
H54 H 0.78934 0.88323 0.68438 0.0
H55 H 0.78486 0.92927 0.71192 0.0
C56 C 0.77711 0.93248 0.69079 0.0
O57 O 0.78514 0.92309 0.66754 0.0
H58 H 0.75534 0.92203 0.69195 0.0
C59 C 0.74316 0.84888 0.63148 0.0
C60 C 0.76157 0.85385 0.65396 0.0
C61 C 0.74097 0.86934 0.61888 0.0
C62 C 0.75414 0.89424 0.63206 0.0
C63 C 0.7707 0.89873 0.65649 0.0
C64 C 0.77474 0.87876 0.66719 0.0
H65 H 0.16209 0.90607 0.61118 0.0
H66 H 0.08359 0.84086 0.60766 0.0
H67 H 0.11141 0.89011 0.68551 0.0
H68 H 0.0775 0.83918 0.70354 0.0
C69 C 0.06733 0.82967 0.68237 0.0
O70 O 0.07199 0.84859 0.66162 0.0
H71 H 0.07502 0.81687 0.67442 0.0
C72 C 0.14346 0.89385 0.62179 0.0
C73 C 0.13935 0.90054 0.65017 0.0
C74 C 0.12334 0.87322 0.60567 0.0
C75 C 0.09943 0.85704 0.61964 0.0
C76 C 0.09544 0.86296 0.64873 0.0
C77 C 0.11512 0.88504 0.66364 0.0
H78 H 0.92935 0.42436 0.7292 0.0
H79 H 0.91484 0.48884 0.73434 0.0
H80 H 0.8815 0.43284 0.66312 0.0
H81 H 0.89588 0.49278 0.64605 0.0
C82 C 0.89643 0.49789 0.66991 0.0
O83 O 0.88583 0.47532 0.68627 0.0
H84 H 0.91709 0.51139 0.67682 0.0
C85 C 0.92183 0.43606 0.71916 0.0
C86 C 0.90519 0.4261 0.69455 0.0
C87 C 0.92463 0.45804 0.73434 0.0
C88 C 0.91386 0.47243 0.72218 0.0
C89 C 0.89941 0.46393 0.69558 0.0
C90 C 0.895 0.44073 0.68176 0.0
H91 H 0.57898 0.49442 0.72977 0.0
H92 H 0.51523 0.41533 0.72466 0.0
H93 H 0.56446 0.44852 0.64953 0.0
H94 H 0.50725 0.4004 0.63248 0.0
C95 C 0.50329 0.3972 0.65661 0.0
O96 O 0.52654 0.40632 0.67179 0.0
H97 H 0.49291 0.40785 0.66336 0.0
C98 C 0.56751 0.47668 0.71687 0.0
C99 C 0.57492 0.47462 0.68774 0.0
C100 C 0.54565 0.45571 0.73013 0.0
C101 C 0.53154 0.43209 0.71445 0.0
C102 C 0.53877 0.42972 0.68569 0.0
C103 C 0.55974 0.45099 0.67204 0.0
H104 H 0.49804 0.08126 0.72406 0.0
H105 H 0.57399 0.08829 0.73393 0.0
H106 H 0.55587 0.11887 0.65677 0.0
H107 H 0.59377 0.10437 0.64251 0.0
C108 C 0.60051 0.10278 0.66508 0.0
O109 O 0.59259 0.11502 0.68532 0.0
H110 H 0.59171 0.08165 0.67071 0.0
C111 C 0.51711 0.08662 0.71531 0.0
C112 C 0.52421 0.09905 0.68771 0.0
C113 C 0.53458 0.08233 0.73238 0.0
C114 C 0.55994 0.09123 0.72142 0.0
C115 C 0.56759 0.10458 0.69436 0.0
C116 C 0.54975 0.10849 0.67757 0.0
H117 H 0.75686 0.58669 0.95219 0.0
H118 H 0.82474 0.57762 0.95725 0.0
H119 H 0.76931 0.54927 0.02747 0.0
H120 H 0.82317 0.55667 0.04768 0.0
C121 C 0.83074 0.56095 0.02469 0.0
O122 O 0.80999 0.54952 0.00492 0.0
H123 H 0.84174 0.58262 0.02182 0.0
C124 C 0.76913 0.5812 0.96458 0.0
C125 C 0.76061 0.5689 0.99227 0.0
C126 C 0.79255 0.58523 0.95181 0.0
C127 C 0.80687 0.57537 0.96654 0.0
C128 C 0.798 0.56193 0.99328 0.0
C129 C 0.77541 0.55931 0.00649 0.0
H130 H 0.40501 0.16498 0.95688 0.0
H131 H 0.41826 0.24383 0.95824 0.0
H132 H 0.45549 0.22024 0.02312 0.0
H133 H 0.44992 0.26598 0.04657 0.0
C134 C 0.44313 0.26926 0.02481 0.0
O135 O 0.45119 0.25894 0.00258 0.0
H136 H 0.42137 0.25963 0.02487 0.0
C137 C 0.41296 0.18396 0.96772 0.0
C138 C 0.42997 0.19002 0.99209 0.0
C139 C 0.40875 0.20332 0.95515 0.0
C140 C 0.42062 0.22838 0.96815 0.0
C141 C 0.43712 0.23415 0.99277 0.0
C142 C 0.44172 0.21508 0.00482 0.0
H143 H 0.8326 0.23826 0.94626 0.0
H144 H 0.7539 0.17386 0.93858 0.0
H145 H 0.77909 0.22099 0.01801 0.0
H146 H 0.74366 0.17219 0.03421 0.0
C147 C 0.73356 0.16265 0.01302 0.0
O148 O 0.74016 0.18128 0.99138 0.0
H149 H 0.73965 0.14831 0.00607 0.0
C150 C 0.81364 0.22578 0.95606 0.0
C151 C 0.80848 0.23175 0.98435 0.0
C152 C 0.794 0.20563 0.93893 0.0
C153 C 0.76947 0.18943 0.95155 0.0
C154 C 0.76439 0.19489 0.98031 0.0
C155 C 0.78367 0.21626 -0.00358 0.0
H156 H 0.59299 0.75671 0.06642 0.0
H157 H 0.57802 0.82108 0.06843 0.0
H158 H 0.54273 0.76185 0.00073 0.0
H159 H 0.55082 0.81481 0.97867 0.0
C160 C 0.55578 0.82402 0.00109 0.0
O161 O 0.54685 0.80481 0.02224 0.0
H162 H 0.57742 0.83679 0.00305 0.0
C163 C 0.58503 0.76783 0.05595 0.0
C164 C 0.56834 0.75722 0.03139 0.0
C165 C 0.58844 0.79073 0.06958 0.0
C166 C 0.57637 0.8039 0.05741 0.0
C167 C 0.56064 0.79383 0.032 0.0
C168 C 0.55646 0.77046 0.01908 0.0
H169 H 0.24233 0.83285 0.05142 0.0
H170 H 0.18187 0.75197 0.06147 0.0
H171 H 0.236 0.77369 0.99047 0.0
H172 H 0.17883 0.72596 0.97319 0.0
C173 C 0.1727 0.7252 -0.00342 0.0
O174 O 0.19458 0.73574 0.01463 0.0
H175 H 0.16225 0.73654 -0.00148 0.0
C176 C 0.23202 0.81261 0.04401 0.0
C177 C 0.24168 0.80537 0.01954 0.0
C178 C 0.21052 0.79354 0.05998 0.0
C179 C 0.19791 0.76749 0.04951 0.0
C180 C 0.20658 0.76078 0.02397 0.0
C181 C 0.22856 0.77952 0.00921 0.0
H182 H 0.16589 0.41207 0.06165 0.0
H183 H 0.24318 0.4224 0.07036 0.0
H184 H 0.2236 0.45441 -0.00456 0.0
H185 H 0.26064 0.44042 0.97754 0.0
C186 C 0.26769 0.43762 -0.00061 0.0
O187 O 0.26064 0.44929 0.02134 0.0
H188 H 0.25852 0.41621 0.00366 0.0
C189 C 0.18522 0.41878 0.05274 0.0
C190 C 0.19222 0.43279 0.02615 0.0
C191 C 0.20338 0.41509 0.06914 0.0
C192 C 0.22879 0.42496 0.05804 0.0
C193 C 0.2359 0.4388 0.03126 0.0
C194 C 0.21775 0.44306 0.01563 0.0
H195 H 0.41953 0.91595 0.28621 0.0
H196 H 0.48936 0.9099 0.28766 0.0
H197 H 0.43674 0.88174 0.36073 0.0
H198 H 0.49151 0.89258 0.37845 0.0
C199 C 0.49854 0.89532 0.35524 0.0
O200 O 0.47734 0.88299 0.33618 0.0
H201 H 0.50974 0.91672 0.35055 0.0
C202 C 0.43299 0.91153 0.29775 0.0
C203 C 0.42618 0.90018 0.32602 0.0
C204 C 0.45602 0.91596 0.28362 0.0
C205 C 0.47164 0.90727 0.29777 0.0
C206 C 0.46423 0.89443 0.32507 0.0
C207 C 0.44193 0.89139 0.33946 0.0
H208 H 0.07694 0.50124 0.27952 0.0
H209 H 0.07899 0.57447 0.29426 0.0
H210 H 0.13088 0.55726 0.34302 0.0
H211 H 0.11149 0.59313 0.37808 0.0
C212 C 0.10529 0.59762 0.35659 0.0
O213 O 0.11649 0.59138 0.33369 0.0
H214 H 0.08353 0.58622 0.35509 0.0
C215 C 0.0847 0.51976 0.29122 0.0
C216 C 0.10495 0.52693 0.31214 0.0
C217 C 0.07536 0.53683 0.28406 0.0
C218 C 0.08568 0.5608 0.29933 0.0
C219 C 0.10524 0.56761 0.32086 0.0
C220 C 0.11487 0.55087 0.32725 0.0
H221 H 0.49757 0.57132 0.28355 0.0
H222 H 0.4198 0.50541 0.27301 0.0
H223 H 0.44022 0.5547 0.35049 0.0
H224 H 0.40667 0.50472 0.36835 0.0
C225 C 0.39809 0.4943 0.34701 0.0
O226 O 0.40379 0.51226 0.32474 0.0
H227 H 0.40658 0.48159 0.34169 0.0
C228 C 0.47811 0.5587 0.2921 0.0
C229 C 0.47115 0.56533 0.31892 0.0
C230 C 0.45947 0.53821 0.27437 0.0
C231 C 0.43459 0.52152 0.28613 0.0
C232 C 0.42811 0.52705 0.31416 0.0
C233 C 0.44604 0.54945 0.32998 0.0
O234 O 0.51694 0.01001 0.94375 0.0
Mg235 Mg 0.52212 -0.00287 0.98485 0.0
O236 O 0.47964 0.00664 0.9577 0.0
Mg237 Mg 0.48153 -0.00049 0.00874 0.0
O238 O 0.49159 0.96578 0.0033 0.0
O239 O 0.5244 0.96485 0.97883 0.0
O240 O 0.48467 -0.00696 0.05909 0.0
O241 O 0.43976 0.96128 0.00338 0.0
Mg242 Mg 0.44108 -0.00193 0.03159 0.0
O243 O 0.47085 0.03266 0.01605 0.0
O244 O 0.44324 0.97744 0.06887 0.0
O245 O 0.41279 0.97638 -0.00028 0.0
O246 O 0.4389 0.02898 0.04642 0.0
C247 C 0.54607 0.04094 0.01866 0.0
C248 C 0.49652 0.01098 0.93772 0.0
C249 C 0.50336 0.95337 0.99426 0.0
C250 C 0.46549 0.98127 0.07652 0.0
C251 C 0.41718 0.95766 -0.00335 0.0
C252 C 0.45893 0.04296 0.03012 0.0
O253 O 0.55057 0.02244 0.01442 0.0
O254 O 0.52331 0.03737 0.01327 0.0
O255 O 0.01604 0.47995 0.93797 0.0
Mg256 Mg 0.00958 0.5049 0.96648 0.0
O257 O 0.98002 0.45903 0.96198 0.0
Mg258 Mg -0.00242 0.47479 0.0097 0.0
O259 O 0.03183 0.51872 0.00349 0.0
O260 O 0.03911 0.54136 0.96103 0.0
O261 O 0.01379 0.49206 0.05875 0.0
O262 O 0.02966 0.46423 0.00021 0.0
Mg263 Mg -0.00797 0.44699 0.04813 0.0
O264 O 0.96368 0.42975 0.01674 0.0
O265 O 0.9802 0.46247 0.08246 0.0
O266 O 0.03152 0.45476 0.04635 0.0
O267 O 0.97139 0.40862 0.05349 0.0
C268 C 0.95998 0.49755 0.99449 0.0
C269 C -0.0075 0.4622 0.93812 0.0
C270 C 0.04539 0.53979 0.98807 0.0
C271 C 0.00022 0.48472 0.08228 0.0
C272 C 0.04148 0.45968 0.02085 0.0
C273 C 0.95708 0.40852 0.03178 0.0
O274 O 0.97287 0.50408 0.97051 0.0
O275 O 0.96659 0.48737 0.01536 0.0
O276 O 0.53394 0.51847 0.07218 0.0
Mg277 Mg 0.50343 0.49453 0.04197 0.0
O278 O 0.51768 0.53849 0.04798 0.0
Mg279 Mg 0.52038 0.52139 0.00062 0.0
O280 O 0.51071 0.47682 0.00844 0.0
O281 O 0.49468 0.45853 0.05285 0.0
O282 O 0.52172 0.50906 0.95057 0.0
O283 O 0.56284 0.53153 0.01257 0.0
Mg284 Mg 0.55932 0.56445 0.95948 0.0
O285 O 0.53102 0.56252 0.98766 0.0
O286 O 0.53588 0.54483 0.92327 0.0
O287 O 0.58441 0.55004 0.97187 0.0
O288 O 0.56902 0.59854 0.98248 0.0
C289 C 0.46064 0.50035 0.01361 0.0
C290 C 0.52682 0.53531 0.07218 0.0
C291 C 0.50279 0.45736 0.02675 0.0
C292 C 0.52489 0.52009 0.92522 0.0
C293 C 0.58301 0.53953 -0.00338 0.0
C294 C 0.54706 0.58621 -0.00402 0.0
O295 O 0.46754 0.4952 0.03824 0.0
O296 O 0.477 0.50919 0.99247 0.0
O297 O 0.13444 0.31343 0.27319 0.0
Mg298 Mg 0.16502 0.32281 0.30401 0.0
O299 O 0.14913 0.35093 0.29459 0.0
Mg300 Mg 0.14669 0.33239 0.34343 0.0
O301 O 0.15757 0.29824 0.33769 0.0
O302 O 0.17608 0.29674 0.29466 0.0
O303 O 0.14605 0.31639 0.39255 0.0
O304 O 0.10481 0.3 0.33209 0.0
Mg305 Mg 0.11946 0.33734 0.38443 0.0
O306 O 0.13464 0.36433 0.35148 0.0
O307 O 0.14459 0.34593 0.42064 0.0
O308 O 0.08963 0.29789 0.37678 0.0
O309 O 0.10377 0.36053 0.38365 0.0
C310 C 0.20561 0.37256 0.33192 0.0
C311 C 0.14063 0.33706 0.27107 0.0
C312 C 0.16689 0.28726 0.32033 0.0
C313 C 0.14935 0.32747 0.4179 0.0
C314 C 0.08706 0.28814 0.35109 0.0
C315 C 0.11986 0.37278 0.36253 0.0
O316 O 0.19961 0.36059 0.30714 0.0
O317 O 0.18906 0.36412 0.35276 0.0
O318 O 0.68451 0.81395 0.27441 0.0
Mg319 Mg 0.67521 0.83508 0.30566 0.0
O320 O 0.64676 0.79204 0.29401 0.0
Mg321 Mg 0.66372 0.80707 0.34301 0.0
O322 O 0.69963 0.85256 0.3401 0.0
O323 O 0.70183 0.87146 0.29606 0.0
O324 O 0.6753 0.8188 0.39383 0.0
O325 O 0.69745 0.79786 0.33329 0.0
Mg326 Mg 0.65737 0.7696 0.37768 0.0
O327 O 0.62907 0.76317 0.34719 0.0
O328 O 0.65183 0.78223 0.41776 0.0
O329 O 0.69362 0.7727 0.37056 0.0
O330 O 0.63101 0.73195 0.37416 0.0
C331 C 0.62582 0.82905 0.32907 0.0
C332 C 0.66089 0.79689 0.27131 0.0
C333 C 0.71109 0.8724 0.32223 0.0
C334 C 0.66604 0.80673 0.41816 0.0
C335 C 0.70623 0.7857 0.34845 0.0
C336 C 0.61877 0.73905 0.35606 0.0
O337 O 0.63885 0.83515 0.30532 0.0
O338 O 0.6324 0.81907 0.35006 0.0
O339 O 0.20033 0.84933 0.40805 0.0
Mg340 Mg 0.17094 0.82649 0.37605 0.0
O341 O 0.18506 0.86987 0.38288 0.0
Mg342 Mg 0.18716 0.85182 0.33615 0.0
O343 O 0.17495 0.80623 0.3427 0.0
O344 O 0.15914 0.79002 0.38787 0.0
O345 O 0.18668 0.83514 0.28677 0.0
O346 O 0.22907 0.86102 0.34867 0.0
Mg347 Mg 0.21389 0.88129 0.29814 0.0
O348 O 0.20022 0.89655 0.32904 0.0
O349 O 0.18921 0.86783 0.26174 0.0
O350 O 0.24336 0.87072 0.3035 0.0
O351 O 0.23324 0.92036 0.29777 0.0
C352 C 0.12799 0.83176 0.34863 0.0
C353 C 0.19349 0.86643 0.40744 0.0
C354 C 0.16458 0.78681 0.36114 0.0
C355 C 0.18368 0.8443 0.26231 0.0
C356 C 0.24652 0.8654 0.32974 0.0
C357 C 0.21729 0.91896 0.31799 0.0
O358 O 0.13494 0.82677 0.37327 0.0
O359 O 0.1443 0.84101 0.32753 0.0
O360 O 0.84028 0.66145 0.59804 0.0
Mg361 Mg 0.85764 0.65849 0.63631 0.0
O362 O 0.81709 0.67596 0.62168 0.0
Mg363 Mg 0.81546 0.66367 0.67271 0.0
O364 O 0.83042 0.63495 0.6653 0.0
O365 O 0.85784 0.62461 0.64291 0.0
O366 O 0.81584 0.64935 0.72281 0.0
O367 O 0.77453 0.62879 0.66116 0.0
Mg368 Mg 0.78646 0.66562 0.71196 0.0
O369 O 0.79941 0.69326 0.67948 0.0
O370 O 0.8103 0.67704 0.74972 0.0
O371 O 0.75832 0.6254 0.70548 0.0
O372 O 0.76655 0.6847 0.71101 0.0
C373 C 0.88032 0.7067 0.675 0.0
C374 C 0.82569 0.67148 0.59755 0.0
C375 C 0.83891 0.61873 0.66106 0.0
C376 C 0.81723 0.66008 0.74797 0.0
C377 C 0.75653 0.61619 0.67968 0.0
C378 C 0.78231 0.69877 0.69048 0.0
O379 O 0.88534 0.69324 0.65703 0.0
O380 O 0.85701 0.69953 0.68306 0.0
O381 O 0.34506 0.14328 0.6061 0.0
Mg382 Mg 0.33974 0.16723 0.63792 0.0
O383 O 0.30911 0.12454 0.63005 0.0
Mg384 Mg 0.33202 0.14274 0.67613 0.0
O385 O 0.36648 0.18867 0.66893 0.0
O386 O 0.36427 0.20298 0.62355 0.0
O387 O 0.35154 0.15937 0.72416 0.0
O388 O 0.36356 0.13229 0.66207 0.0
Mg389 Mg 0.32845 0.11307 0.71382 0.0
O390 O 0.2986 0.09782 0.68395 0.0
O391 O 0.32087 0.12907 0.75084 0.0
O392 O 0.3671 0.12035 0.70676 0.0
O393 O 0.30624 0.07451 0.718 0.0
C394 C 0.29338 0.16371 0.66742 0.0
C395 C 0.32109 0.12677 0.60606 0.0
C396 C 0.37492 0.20738 0.64947 0.0
C397 C 0.34027 0.15166 0.74911 0.0
C398 C 0.37596 0.12653 0.68084 0.0
C399 C 0.29158 0.07586 0.69761 0.0
O400 O 0.30395 0.16825 0.64218 0.0
O401 O 0.30167 0.15489 0.6879 0.0
O402 O 0.86742 0.18409 0.73878 0.0
Mg403 Mg 0.83658 0.15994 0.70885 0.0
O404 O 0.8516 0.20395 0.71351 0.0
Mg405 Mg 0.85262 0.1847 0.66714 0.0
O406 O 0.84254 0.13999 0.67651 0.0
O407 O 0.82687 0.12424 0.72186 0.0
O408 O 0.85258 0.16803 0.61883 0.0
O409 O 0.89568 0.19586 0.67583 0.0
Mg410 Mg 0.87865 0.21809 0.62314 0.0
O411 O 0.86381 0.22798 0.65824 0.0
O412 O 0.85058 0.19697 0.59051 0.0
O413 O 0.91027 0.21093 0.63128 0.0
O414 O 0.88992 0.25645 0.62371 0.0
C415 C 0.79338 0.16519 0.68145 0.0
C416 C 0.86086 0.20134 0.7379 0.0
C417 C 0.83433 0.12136 0.69604 0.0
C418 C 0.84748 0.17438 0.59365 0.0
C419 C 0.91355 0.20347 0.65648 0.0
C420 C 0.87546 0.25122 0.64683 0.0
O421 O 0.80072 0.16082 0.70623 0.0
O422 O 0.80924 0.17289 0.65984 0.0
C423 C 0.27326 0.84752 -0.00388 0.0
C424 C 0.26787 0.82367 0.00851 0.0
C425 C 0.29908 0.86673 0.99019 0.0
C426 C 0.31976 0.86204 -0.00227 0.0
C427 C 0.31418 0.83741 0.00893 0.0
C428 C 0.28815 0.81836 0.01394 0.0
C429 C 0.30435 0.89272 0.97792 0.0
C430 C 0.33566 0.83196 0.01813 0.0
C431 C 0.38698 0.91435 0.97299 0.0
C432 C 0.39464 0.93127 -0.00251 0.0
C433 C 0.36303 0.89067 0.97321 0.0
C434 C 0.34687 0.88427 -0.00153 0.0
C435 C 0.35563 0.90067 0.02394 0.0
C436 C 0.37942 0.92406 0.02304 0.0
C437 C 0.35438 0.87327 0.94598 0.0
C438 C 0.33921 0.89441 0.05153 0.0
H439 H 0.25739 0.85143 0.99207 0.0
H440 H 0.28376 0.79991 0.02396 0.0
H441 H 0.31313 0.90799 -0.00445 0.0
H442 H 0.31856 0.8988 0.95953 0.0
H443 H 0.28622 0.892 0.96966 0.0
H444 H 0.32814 0.81072 0.02162 0.0
H445 H 0.3513 0.83918 0.00129 0.0
H446 H 0.34467 0.8425 0.03923 0.0
H447 H 0.39907 0.92013 0.95338 0.0
H448 H 0.38577 0.9373 0.04202 0.0
H449 H 0.33792 0.87414 0.93504 0.0
H450 H 0.34713 0.85258 0.95217 0.0
H451 H 0.37043 0.87929 0.92977 0.0
H452 H 0.32201 0.8968 0.04692 0.0
H453 H 0.35033 0.90744 0.07051 0.0
H454 H 0.33177 0.87379 0.0582 0.0
C455 C 0.14735 0.41836 0.00724 0.0
C456 C 0.17313 0.4386 0.01174 0.0
C457 C 0.12719 0.4239 0.00209 0.0
C458 C 0.13306 0.45034 0.00151 0.0
C459 C 0.15946 0.47078 0.00268 0.0
C460 C 0.17929 0.46464 0.00782 0.0
C461 C 0.09935 0.40149 0.0006 0.0
C462 C 0.16658 0.49919 0.00172 0.0
C463 C 0.07502 0.4601 0.98643 0.0
C464 C 0.0662 0.45971 0.01538 0.0
C465 C 0.09759 0.45832 0.98137 0.0
C466 C 0.11154 0.45618 0.00583 0.0
C467 C 0.10342 0.45714 0.03508 0.0
C468 C 0.08084 0.45881 0.03946 0.0
C469 C 0.10586 0.45764 0.94992 0.0
C470 C 0.11794 0.45526 0.06186 0.0
H471 H 0.1427 0.39819 0.00997 0.0
H472 H 0.19926 0.48031 0.01133 0.0
H473 H 0.08945 0.40056 0.02177 0.0
H474 H 0.08831 0.40453 0.98254 0.0
H475 H 0.09839 0.38234 -0.00306 0.0
H476 H 0.18754 0.51214 -0.00366 0.0
H477 H 0.15439 0.50225 0.98515 0.0
H478 H 0.16293 0.50519 0.02374 0.0
H479 H 0.06391 0.46105 0.9677 0.0
H480 H 0.07442 0.45897 0.06189 0.0
H481 H 0.10174 0.43755 0.94435 0.0
H482 H 0.12721 0.47095 0.9475 0.0
H483 H 0.09534 0.46329 0.93367 0.0
H484 H 0.11624 0.43562 0.06234 0.0
H485 H 0.11025 0.45833 0.08302 0.0
H486 H 0.13904 0.47001 0.06059 0.0
C487 C 0.57556 0.7224 0.01056 0.0
C488 C 0.55886 0.7298 0.02368 0.0
C489 C 0.56804 0.69588 0.00782 0.0
C490 C 0.54366 0.6767 0.01942 0.0
C491 C 0.52657 0.68421 0.03221 0.0
C492 C 0.53434 0.71083 0.03394 0.0
C493 C 0.58657 0.6885 0.99345 0.0
C494 C 0.50087 0.66438 0.04558 0.0
C495 C 0.52338 0.60983 0.98891 0.0
C496 C 0.53713 0.6024 0.00819 0.0
C497 C 0.52339 0.63331 0.99357 0.0
C498 C 0.53669 0.6489 0.01866 0.0
C499 C 0.54734 0.63945 0.04035 0.0
C500 C 0.54799 0.61641 0.03447 0.0
C501 C 0.51234 0.64299 0.96962 0.0
C502 C 0.56061 0.65506 0.06808 0.0
H503 H 0.59467 0.73737 0.00316 0.0
H504 H 0.52187 0.71696 0.04475 0.0
H505 H 0.59411 0.6802 0.01032 0.0
H506 H 0.57616 0.67321 0.97614 0.0
H507 H 0.60351 0.70558 0.98315 0.0
H508 H 0.48869 0.67318 0.05174 0.0
H509 H 0.48956 0.64783 0.02996 0.0
H510 H 0.50473 0.65614 0.06582 0.0
H511 H 0.5154 0.59899 0.96834 0.0
H512 H 0.55876 0.61054 0.04915 0.0
H513 H 0.52869 0.65815 0.95646 0.0
H514 H 0.50161 0.6522 0.9793 0.0
H515 H 0.49899 0.62693 0.95432 0.0
H516 H 0.58052 0.67106 0.06257 0.0
H517 H 0.5625 0.64265 0.0853 0.0
H518 H 0.54964 0.66417 0.07742 0.0
C519 C 0.82072 0.27474 0.00778 0.0
C520 C 0.82803 0.25659 -0.00163 0.0
C521 C 0.8397 0.30066 0.01441 0.0
C522 C 0.86641 0.30846 0.011 0.0
C523 C 0.87388 0.28988 0.00292 0.0
C524 C 0.85454 0.26403 -0.00282 0.0
C525 C 0.83112 0.31988 0.02367 0.0
C526 C 0.90225 0.29753 -0.0008 0.0
C527 C 0.9197 0.37843 -0.00147 0.0
C528 C 0.93216 0.38435 0.0263 0.0
C529 C 0.89707 0.35408 0.99349 0.0
C530 C 0.88692 0.33577 0.0169 0.0
C531 C 0.8985 0.34249 0.04539 0.0
C532 C 0.92105 0.36664 0.04968 0.0
C533 C 0.88484 0.34742 0.96288 0.0
C534 C 0.88794 0.32362 0.07098 0.0
H535 H 0.8002 0.26909 0.00833 0.0
H536 H 0.86013 0.24986 0.99018 0.0
H537 H 0.84307 0.33215 0.04267 0.0
H538 H 0.83398 0.33322 0.00498 0.0
H539 H 0.81017 0.30984 0.02994 0.0
H540 H 0.90466 0.28059 0.99287 0.0
H541 H 0.9112 0.31267 0.98179 0.0
H542 H 0.91328 0.30619 0.02013 0.0
H543 H 0.92816 0.39228 0.98057 0.0
H544 H 0.93027 0.37147 0.07145 0.0
H545 H 0.86341 0.33937 0.96421 0.0
H546 H 0.88802 0.33204 0.95269 0.0
H547 H 0.89325 0.36472 0.94811 0.0
H548 H 0.86653 0.31544 0.07292 0.0
H549 H 0.8974 0.33306 0.09244 0.0
H550 H 0.89137 0.30697 0.06691 0.0
C551 C 0.71865 0.54193 0.02058 0.0
C552 C 0.73533 0.56468 0.00468 0.0
C553 C 0.69317 0.53604 0.02794 0.0
C554 C 0.68375 0.55259 0.01799 0.0
C555 C 0.70104 0.57649 0.00401 0.0
C556 C 0.72676 0.58256 -0.00162 0.0
C557 C 0.67582 0.51111 0.04443 0.0
C558 C 0.6918 0.59464 0.99258 0.0
C559 C 0.61604 0.52668 0.9864 0.0
C560 C 0.60544 0.53701 0.00636 0.0
C561 C 0.64067 0.52938 0.99156 0.0
C562 C 0.65522 0.54325 0.01708 0.0
C563 C 0.64358 0.5517 0.03865 0.0
C564 C 0.61859 0.54838 0.03305 0.0
C565 C 0.65201 0.51949 0.96825 0.0
C566 C 0.65823 0.56592 0.06647 0.0
H567 H 0.72481 0.52791 0.02597 0.0
H568 H 0.73977 0.60086 0.98754 0.0
H569 H 0.66227 0.51357 0.05931 0.0
H570 H 0.66387 0.49524 0.02829 0.0
H571 H 0.68756 0.50481 0.05783 0.0
H572 H 0.70807 0.6132 0.98383 0.0
H573 H 0.67724 0.5847 0.97445 0.0
H574 H 0.68201 0.59948 0.0104 0.0
H575 H 0.60559 0.51766 0.96591 0.0
H576 H 0.61025 0.55635 0.04845 0.0
H577 H 0.66007 0.50794 0.97862 0.0
H578 H 0.66833 0.53639 0.95697 0.0
H579 H 0.63724 0.50701 0.95124 0.0
H580 H 0.66795 0.55584 0.07667 0.0
H581 H 0.64513 0.56738 0.08303 0.0
H582 H 0.67373 0.58606 0.06087 0.0
C583 C 0.46533 0.17959 0.00055 0.0
C584 C 0.43864 0.17161 0.00106 0.0
C585 C 0.47391 0.16171 0.00597 0.0
C586 C 0.45526 0.13542 0.01213 0.0
C587 C 0.42833 0.1275 0.01365 0.0
C588 C 0.4203 0.14575 0.00784 0.0
C589 C 0.50271 0.17072 0.00401 0.0
C590 C 0.40793 0.0996 0.02061 0.0
C591 C 0.46467 0.07791 -0.00393 0.0
C592 C 0.46589 0.07005 0.02494 0.0
C593 C 0.46309 0.10056 0.99127 0.0
C594 C 0.46346 0.11568 0.016 0.0
C595 C 0.46772 0.10928 0.0449 0.0
C596 C 0.46838 0.08611 0.04911 0.0
C597 C 0.45829 0.10668 0.96015 0.0
C598 C 0.46915 0.12552 0.07161 0.0
H599 H 0.47941 0.19962 0.99481 0.0
H600 H 0.3997 0.13979 0.00823 0.0
H601 H 0.50924 0.16384 0.02339 0.0
H602 H 0.50631 0.16214 0.98385 0.0
H603 H 0.51486 0.1924 0.00282 0.0
H604 H 0.38795 0.09695 0.02189 0.0
H605 H 0.40792 0.08617 0.00325 0.0
H606 H 0.41262 0.09367 0.04207 0.0
H607 H 0.46246 0.06513 0.97753 0.0
H608 H 0.46937 0.07978 0.0714 0.0
H609 H 0.4707 0.12788 0.95554 0.0
H610 H 0.43759 0.10177 0.95783 0.0
H611 H 0.46218 0.09533 0.94318 0.0
H612 H 0.48174 0.14672 0.0671 0.0
H613 H 0.47689 0.12048 0.09152 0.0
H614 H 0.44929 0.12205 0.07667 0.0
C615 C 0.69114 0.12246 0.0252 0.0
C616 C 0.70455 0.14899 0.01779 0.0
C617 C 0.6639 0.10892 0.02787 0.0
C618 C 0.64988 0.12238 0.02305 0.0
C619 C 0.66347 0.14953 0.01726 0.0
C620 C 0.69077 0.16265 0.01515 0.0
C621 C 0.65003 0.07994 0.03438 0.0
C622 C 0.64911 0.16441 0.01198 0.0
C623 C 0.58305 0.07568 0.9928 0.0
C624 C 0.56876 0.0672 0.01898 0.0
C625 C 0.60923 0.09542 0.99343 0.0
C626 C 0.62102 0.10718 0.02094 0.0
C627 C 0.60569 0.10079 0.04689 0.0
C628 C 0.57959 0.08037 0.04571 0.0
C629 C 0.62489 0.10133 0.96528 0.0
C630 C 0.61746 0.11363 0.07637 0.0
H631 H 0.70192 0.11213 0.02808 0.0
H632 H 0.70126 0.18343 0.0104 0.0
H633 H 0.63674 0.07549 0.05346 0.0
H634 H 0.63787 0.06876 0.01493 0.0
H635 H 0.66391 0.07286 0.03948 0.0
H636 H 0.66267 0.18581 0.00974 0.0
H637 H 0.63712 0.15707 0.99139 0.0
H638 H 0.63552 0.16112 0.03046 0.0
H639 H 0.57445 0.06509 0.97223 0.0
H640 H 0.56839 0.07347 0.06592 0.0
H641 H 0.63763 0.09245 0.96654 0.0
H642 H 0.63774 0.12275 0.96255 0.0
H643 H 0.61213 0.09329 0.94529 0.0
H644 H 0.62872 0.1048 0.08571 0.0
H645 H 0.60216 0.11087 0.0925 0.0
H646 H 0.63118 0.13491 0.07373 0.0
C647 C 0.83878 0.52362 0.01149 0.0
C648 C 0.84875 0.54992 0.01996 0.0
C649 C 0.85546 0.51332 0.00706 0.0
C650 C 0.88267 0.52948 0.01207 0.0
C651 C 0.89274 0.5558 0.02151 0.0
C652 C 0.87565 0.56569 0.02536 0.0
C653 C 0.84399 0.4852 -0.00315 0.0
C654 C 0.92161 0.57359 0.02734 0.0
C655 C 0.92604 0.49965 0.02587 0.0
C656 C 0.93843 0.50338 -0.00157 0.0
C657 C 0.90729 0.50738 0.03041 0.0
C658 C 0.90079 0.51911 0.00697 0.0
C659 C 0.91253 0.52205 0.97892 0.0
C660 C 0.93116 0.51414 0.97499 0.0
C661 C 0.89506 0.50377 0.06058 0.0
C662 C 0.90594 0.53422 0.95326 0.0
H663 H 0.81791 0.51113 0.00803 0.0
H664 H 0.88331 0.58584 0.03254 0.0
H665 H 0.85324 0.48434 0.97585 0.0
H666 H 0.84815 0.47396 0.01357 0.0
H667 H 0.8225 0.47545 0.99321 0.0
H668 H 0.92623 0.59336 0.03524 0.0
H669 H 0.92861 0.56479 0.04423 0.0
H670 H 0.93271 0.5758 0.00676 0.0
H671 H 0.93145 0.49129 0.04407 0.0
H672 H 0.94042 0.51691 0.9536 0.0
H673 H 0.87343 0.49304 0.05849 0.0
H674 H 0.90094 0.52321 0.07062 0.0
H675 H 0.90097 0.49287 0.0759 0.0
H676 H 0.88453 0.52354 0.94905 0.0
H677 H 0.91596 0.53409 0.93254 0.0
H678 H 0.91172 0.5548 0.95884 0.0
C679 C 0.44158 0.31091 0.02931 0.0
C680 C 0.45491 0.29814 0.01995 0.0
C681 C 0.45254 0.33795 0.02566 0.0
C682 C 0.47735 0.35239 0.01222 0.0
C683 C 0.4908 0.33957 0.00242 0.0
C684 C 0.47965 0.31263 0.00698 0.0
C685 C 0.43793 0.35118 0.03705 0.0
C686 C 0.51723 0.35439 0.98795 0.0
C687 C 0.49131 0.42019 0.99204 0.0
C688 C 0.50288 0.43341 0.01857 0.0
C689 C 0.48477 0.39393 0.9883 0.0
C690 C 0.49019 0.38123 0.01162 0.0
C691 C 0.50458 0.39561 0.03689 0.0
C692 C 0.51065 0.4216 0.04009 0.0
C693 C 0.46995 0.37921 0.96077 0.0
C694 C 0.51108 0.38292 0.06209 0.0
H695 H 0.42271 0.29974 0.03981 0.0
H696 H 0.49035 0.30292 0.00035 0.0
H697 H 0.44946 0.36527 0.05504 0.0
H698 H 0.43531 0.36247 0.01904 0.0
H699 H 0.41839 0.33695 0.04585 0.0
H700 H 0.52341 0.34103 0.97807 0.0
H701 H 0.51694 0.36734 0.97033 0.0
H702 H 0.53213 0.36709 0.00466 0.0
H703 H 0.48545 0.42957 0.97543 0.0
H704 H 0.51999 0.43222 0.06041 0.0
H705 H 0.44892 0.36688 0.96608 0.0
H706 H 0.47698 0.36597 0.95276 0.0
H707 H 0.4718 0.39273 0.94263 0.0
H708 H 0.49306 0.37032 0.07474 0.0
H709 H 0.52585 0.39768 0.07762 0.0
H710 H 0.51861 0.37026 0.05362 0.0
C711 C 0.16116 0.68364 0.02512 0.0
C712 C 0.1542 0.6972 0.00473 0.0
C713 C 0.14449 0.65692 0.0303 0.0
C714 C 0.12063 0.6435 0.0144 0.0
C715 C 0.11294 0.65736 0.99498 0.0
C716 C 0.12989 0.68407 0.99037 0.0
C717 C 0.15319 0.64282 0.05137 0.0
C718 C 0.0875 0.64366 0.97765 0.0
C719 C 0.091 0.57501 0.98511 0.0
C720 C 0.06782 0.56274 0.00115 0.0
C721 C 0.11009 0.60079 0.99165 0.0
C722 C 0.10534 0.61457 0.01431 0.0
C723 C 0.08322 0.60127 0.0327 0.0
C724 C 0.06458 0.57518 0.02593 0.0
C725 C 0.13377 0.61408 0.97202 0.0
C726 C 0.07782 0.61529 0.05735 0.0
H727 H 0.1799 0.69357 0.03652 0.0
H728 H 0.12455 0.69461 0.97474 0.0
H729 H 0.13664 0.62855 0.06498 0.0
H730 H 0.16044 0.63169 0.03845 0.0
H731 H 0.16919 0.65669 0.0664 0.0
H732 H 0.08339 0.65767 0.96563 0.0
H733 H 0.08829 0.63 0.9612 0.0
H734 H 0.07097 0.63189 0.99269 0.0
H735 H 0.09335 0.56503 0.96609 0.0
H736 H 0.04648 0.56545 0.03822 0.0
H737 H 0.15172 0.62629 0.98538 0.0
H738 H 0.13129 0.62721 0.95639 0.0
H739 H 0.13661 0.5997 0.95885 0.0
H740 H 0.09604 0.62874 0.06968 0.0
H741 H 0.06326 0.60128 0.07318 0.0
H742 H 0.06995 0.62729 0.0477 0.0
C743 C 0.30778 0.43495 0.98673 0.0
C744 C 0.29706 0.44962 -0.00167 0.0
C745 C 0.33495 0.44519 0.98617 0.0
C746 C 0.35179 0.47075 -0.00254 0.0
C747 C 0.34114 0.48621 0.00763 0.0
C748 C 0.31389 0.47558 0.00762 0.0
C749 C 0.34557 0.42825 0.97463 0.0
C750 C 0.35845 0.51361 0.01965 0.0
C751 C 0.4151 0.48157 0.03214 0.0
C752 C 0.43327 0.49455 0.0096 0.0
C753 C 0.38871 0.47414 0.0285 0.0
C754 C 0.38014 0.48003 0.00176 0.0
C755 C 0.39845 0.49387 0.97921 0.0
C756 C 0.42482 0.50083 0.98332 0.0
C757 C 0.36985 0.45938 0.0531 0.0
C758 C 0.39009 0.50074 0.9505 0.0
H759 H 0.29481 0.41519 0.97866 0.0
H760 H 0.30578 0.4874 0.01559 0.0
H761 H 0.36105 0.43911 0.95809 0.0
H762 H 0.35462 0.42313 0.99317 0.0
H763 H 0.3301 0.40981 0.96417 0.0
H764 H 0.34731 0.52381 0.02448 0.0
H765 H 0.36818 0.51275 0.04043 0.0
H766 H 0.37407 0.52541 0.00361 0.0
H767 H 0.42136 0.47663 0.05258 0.0
H768 H 0.43874 0.51093 0.96584 0.0
H769 H 0.35494 0.43962 0.045 0.0
H770 H 0.35936 0.46976 0.05998 0.0
H771 H 0.3798 0.45704 0.07289 0.0
H772 H 0.3781 0.48262 0.93725 0.0
H773 H 0.40708 0.51449 0.93701 0.0
H774 H 0.37774 0.5097 0.95489 0.0
C775 C 0.51756 0.82902 0.01729 0.0
C776 C 0.54276 0.84013 0.00526 0.0
C777 C 0.50527 0.84391 0.02103 0.0
C778 C 0.51802 0.87009 0.01131 0.0
C779 C 0.54336 0.88138 -0.00107 0.0
C780 C 0.55542 0.8662 -0.00395 0.0
C781 C 0.47843 0.83139 0.03461 0.0
C782 C 0.5575 0.90933 0.98808 0.0
C783 C 0.48693 0.90733 0.98206 0.0
C784 C 0.495 0.92687 0.0038 0.0
C785 C 0.49127 0.88627 0.98594 0.0
C786 C 0.50446 0.88544 0.01189 0.0
C787 C 0.50928 0.90322 0.03555 0.0
C788 C 0.50425 0.92382 0.03124 0.0
C789 C 0.48521 0.86723 0.96054 0.0
C790 C 0.52312 0.9028 0.06365 0.0
H791 H 0.50738 0.80865 0.02385 0.0
H792 H 0.57469 0.87459 0.98634 0.0
H793 H 0.47716 0.84478 0.05106 0.0
H794 H 0.46363 0.82734 0.01702 0.0
H795 H 0.47331 0.81264 0.0457 0.0
H796 H 0.57754 0.91541 0.98028 0.0
H797 H 0.54633 0.9115 0.96949 0.0
H798 H 0.55893 0.92292 0.00608 0.0
H799 H 0.47997 0.91007 0.96077 0.0
H800 H 0.51072 0.9393 0.04782 0.0
H801 H 0.47749 0.847 0.96878 0.0
H802 H 0.50346 0.87269 0.94828 0.0
H803 H 0.47076 0.86743 0.94476 0.0
H804 H 0.51625 0.88242 0.07088 0.0
H805 H 0.52017 0.91375 0.08195 0.0
H806 H 0.54442 0.91216 0.05944 0.0
C807 C 0.95337 0.15297 0.32919 0.0
C808 C 0.93489 0.15974 0.33867 0.0
C809 C 0.97915 0.1724 0.32329 0.0
C810 C 0.98646 0.19904 0.32738 0.0
C811 C 0.9672 0.20593 0.33389 0.0
C812 C 0.94158 0.18614 0.3394 0.0
C813 C -0.00103 0.16426 0.31568 0.0
C814 C 0.97415 0.23415 0.33815 0.0
C815 C 0.04935 0.24596 0.36626 0.0
C816 C 0.06325 0.26338 0.34354 0.0
C817 C 0.0251 0.22375 0.36062 0.0
C818 C 0.01433 0.21909 0.33158 0.0
C819 C 0.02904 0.23563 0.30809 0.0
C820 C 0.05357 0.25765 0.31435 0.0
C821 C 0.01032 0.20619 0.38621 0.0
C822 C 0.01829 0.23092 0.27682 0.0
H823 H 0.94827 0.13255 0.32843 0.0
H824 H 0.9271 0.19137 0.34597 0.0
H825 H 0.01377 0.17819 0.30006 0.0
H826 H 0.00938 0.16413 0.3362 0.0
H827 H 0.98945 0.14427 0.30572 0.0
H828 H 0.95651 0.23635 0.33885 0.0
H829 H 0.98509 0.24176 0.35938 0.0
H830 H 0.98696 0.24649 0.32008 0.0
H831 H 0.05717 0.25007 0.38871 0.0
H832 H 0.06451 0.27103 0.29671 0.0
H833 H 0.00357 0.18542 0.3805 0.0
H834 H -0.00727 0.20783 0.39084 0.0
H835 H 0.0224 0.21135 0.4068 0.0
H836 H 0.01029 0.21009 0.27031 0.0
H837 H 0.03338 0.24351 0.26058 0.0
H838 H 0.00195 0.23513 0.27556 0.0
C839 C 0.84901 0.80548 0.34314 0.0
C840 C 0.84619 0.78092 0.33681 0.0
C841 C 0.82836 0.81029 0.33766 0.0
C842 C 0.80458 0.78997 0.32557 0.0
C843 C 0.80311 0.76641 0.31555 0.0
C844 C 0.82394 0.76203 0.32163 0.0
C845 C 0.83081 0.83564 0.3488 0.0
C846 C 0.77825 0.74438 0.30224 0.0
C847 C 0.74271 0.77837 0.36285 0.0
C848 C 0.7316 0.7875 0.3418 0.0
C849 C 0.76666 0.7797 0.35791 0.0
C850 C 0.77992 0.79022 0.33101 0.0
C851 C 0.76912 0.79984 0.30971 0.0
C852 C 0.74503 0.79849 0.31542 0.0
C853 C 0.77759 0.76952 0.38154 0.0
C854 C 0.78283 0.81119 0.28087 0.0
H855 H 0.86623 0.8199 0.35521 0.0
H856 H 0.82184 0.74297 0.31703 0.0
H857 H 0.8202 0.84233 0.3341 0.0
H858 H 0.82207 0.83251 0.37119 0.0
H859 H 0.85161 0.85136 0.35061 0.0
H860 H 0.78191 0.73008 0.29007 0.0
H861 H 0.7642 0.73383 0.32024 0.0
H862 H 0.76893 0.75205 0.28688 0.0
H863 H 0.73271 0.7702 0.3835 0.0
H864 H 0.73661 0.80575 0.29918 0.0
H865 H 0.79756 0.78499 0.38822 0.0
H866 H 0.77909 0.75271 0.37266 0.0
H867 H 0.76527 0.76297 0.40168 0.0
H868 H 0.80304 0.82737 0.28528 0.0
H869 H 0.77239 0.81878 0.26713 0.0
H870 H 0.78441 0.79596 0.26795 0.0
C871 C 0.22559 0.0566 0.32972 0.0
C872 C 0.23264 0.06695 0.35851 0.0
C873 C 0.21903 0.03066 0.32372 0.0
C874 C 0.22046 0.01527 0.34688 0.0
C875 C 0.22653 0.02524 0.37614 0.0
C876 C 0.23195 0.05076 0.38169 0.0
C877 C 0.21162 0.02007 0.29245 0.0
C878 C 0.22892 0.00963 0.40128 0.0
C879 C 0.19525 0.94275 0.33671 0.0
C880 C 0.21799 0.9431 0.32733 0.0
C881 C 0.19553 0.96625 0.3428 0.0
C882 C 0.21922 0.99024 0.33998 0.0
C883 C 0.24238 0.99053 0.33143 0.0
C884 C 0.2414 0.9669 0.32492 0.0
C885 C 0.17048 0.96547 0.35152 0.0
C886 C 0.26818 0.0158 0.32908 0.0
H887 H 0.22573 0.06888 0.31181 0.0
H888 H 0.23602 0.05811 0.40431 0.0
H889 H 0.22766 0.01794 0.28261 0.0
H890 H 0.19389 0.00034 0.2925 0.0
H891 H 0.20786 0.03313 0.27807 0.0
H892 H 0.2309 0.01916 0.42323 0.0
H893 H 0.21171 0.9896 0.40177 0.0
H894 H 0.24644 0.0076 0.39784 0.0
H895 H 0.17712 0.92425 0.3383 0.0
H896 H 0.25902 0.96704 0.31791 0.0
H897 H 0.16515 0.97561 0.33452 0.0
H898 H 0.17318 0.97606 0.37283 0.0
H899 H 0.15397 0.94511 0.3538 0.0
H900 H 0.26674 0.02843 0.31186 0.0
H901 H 0.28453 0.01239 0.32329 0.0
H902 H 0.27303 0.02679 0.35042 0.0
C903 C 0.51526 0.59979 0.33512 0.0
C904 C 0.48873 0.59155 0.33123 0.0
C905 C 0.53364 0.62637 0.33832 0.0
C906 C 0.52511 0.64501 0.33772 0.0
C907 C 0.49819 0.63668 0.33532 0.0
C908 C 0.48021 0.60989 0.33217 0.0
C909 C 0.56227 0.63454 0.34113 0.0
C910 C 0.48852 0.65607 0.33441 0.0
C911 C 0.57569 0.70707 0.37379 0.0
C912 C 0.59154 0.71994 0.34961 0.0
C913 C 0.55229 0.68362 0.36989 0.0
C914 C 0.54467 0.67305 0.341 0.0
C915 C 0.55907 0.68763 0.31609 0.0
C916 C 0.58273 0.71113 0.32073 0.0
C917 C 0.53765 0.6687 0.39702 0.0
C918 C 0.55091 0.67721 0.28488 0.0
H919 H 0.52172 0.58548 0.334 0.0
H920 H 0.4597 0.60346 0.3284 0.0
H921 H 0.57294 0.64615 0.3215 0.0
H922 H 0.57105 0.64719 0.36103 0.0
H923 H 0.56539 0.61747 0.34277 0.0
H924 H 0.46689 0.6463 0.33595 0.0
H925 H 0.49734 0.67064 0.35272 0.0
H926 H 0.49457 0.66701 0.31327 0.0
H927 H 0.58268 0.71431 0.3961 0.0
H928 H 0.59516 0.72132 0.30212 0.0
H929 H 0.54208 0.65274 0.40126 0.0
H930 H 0.51623 0.65955 0.39362 0.0
H931 H 0.54338 0.68152 0.41705 0.0
H932 H 0.55677 0.66232 0.28028 0.0
H933 H 0.56033 0.69303 0.26824 0.0
H934 H 0.52936 0.66754 0.28207 0.0
C935 C 0.3845 0.87262 0.3541 0.0
C936 C 0.40153 0.89611 0.33976 0.0
C937 C 0.35888 0.8665 0.36108 0.0
C938 C 0.34998 0.88388 0.35259 0.0
C939 C 0.3679 0.9087 0.34096 0.0
C940 C 0.39358 0.91471 0.33532 0.0
C941 C 0.34074 0.84043 0.37498 0.0
C942 C 0.35931 0.92786 0.33141 0.0
C943 C 0.28363 0.85882 0.31711 0.0
C944 C 0.27095 0.86597 0.33814 0.0
C945 C 0.30865 0.86267 0.3227 0.0
C946 C 0.32154 0.87446 0.34982 0.0
C947 C 0.30818 0.88024 0.37195 0.0
C948 C 0.28282 0.87571 0.36591 0.0
C949 C 0.32193 0.85567 0.29869 0.0
C950 C 0.32118 0.89251 0.40122 0.0
H951 H 0.39045 0.85819 0.35808 0.0
H952 H 0.40697 0.93339 0.32545 0.0
H953 H 0.327 0.842 0.3904 0.0
H954 H 0.32898 0.82606 0.35734 0.0
H955 H 0.35181 0.83269 0.38726 0.0
H956 H 0.37615 0.94736 0.32594 0.0
H957 H 0.34655 0.92002 0.31141 0.0
H958 H 0.34775 0.93045 0.34901 0.0
H959 H 0.27422 0.8509 0.29583 0.0
H960 H 0.27292 0.88117 0.38222 0.0
H961 H 0.32961 0.84335 0.30783 0.0
H962 H 0.33879 0.87381 0.29004 0.0
H963 H 0.3085 0.84491 0.27987 0.0
H964 H 0.33018 0.88163 0.41112 0.0
H965 H 0.30719 0.89297 0.41727 0.0
H966 H 0.33712 0.91291 0.39766 0.0
C967 C 0.1173 0.4945 0.29393 0.0
C968 C 0.11595 0.50953 0.31739 0.0
C969 C 0.12259 0.47429 0.29932 0.0
C970 C 0.12815 0.47011 0.32864 0.0
C971 C 0.13031 0.48743 0.35175 0.0
C972 C 0.12356 0.50663 0.34601 0.0
C973 C 0.11938 0.45576 0.27424 0.0
C974 C 0.13746 0.4842 0.38305 0.0
C975 C 0.10009 0.40039 0.35321 0.0
C976 C 0.12191 0.39706 0.35174 0.0
C977 C 0.10189 0.42404 0.34512 0.0
C978 C 0.12632 0.44497 0.3361 0.0
C979 C 0.14845 0.4417 0.33439 0.0
C980 C 0.14585 0.41745 0.3418 0.0
C981 C 0.07769 0.42668 0.34667 0.0
C982 C 0.17486 0.46392 0.32553 0.0
H983 H 0.1128 0.49754 0.27147 0.0
H984 H 0.12287 0.51828 0.36429 0.0
H985 H 0.13555 0.45132 0.27429 0.0
H986 H 0.10089 0.43696 0.27725 0.0
H987 H 0.11857 0.46376 0.25224 0.0
H988 H 0.14361 0.50214 0.3967 0.0
H989 H 0.12029 0.46769 0.3937 0.0
H990 H 0.15351 0.47952 0.38307 0.0
H991 H 0.08155 0.38444 0.36073 0.0
H992 H 0.16274 0.41477 0.34094 0.0
H993 H 0.07441 0.43387 0.32525 0.0
H994 H 0.08035 0.44124 0.36404 0.0
H995 H 0.05988 0.40784 0.35192 0.0
H996 H 0.17417 0.46933 0.30217 0.0
H997 H 0.19051 0.45874 0.32778 0.0
H998 H 0.18016 0.48153 0.33941 0.0
C999 C 0.35672 0.45093 0.3522 0.0
C1000 C 0.36894 0.47822 0.35013 0.0
C1001 C 0.32941 0.43562 0.35265 0.0
C1002 C 0.3141 0.44799 0.35084 0.0
C1003 C 0.3264 0.47565 0.35049 0.0
C1004 C 0.35377 0.49049 0.35051 0.0
C1005 C 0.31694 0.40615 0.35357 0.0
C1006 C 0.31069 0.48948 0.3486 0.0
C1007 C 0.2491 0.40552 0.31265 0.0
C1008 C 0.23233 0.39473 0.33683 0.0
C1009 C 0.27554 0.42398 0.31694 0.0
C1010 C 0.28546 0.43177 0.34613 0.0
C1011 C 0.26835 0.4222 0.37056 0.0
C1012 C 0.24188 0.40375 0.3656 0.0
C1013 C 0.29312 0.43407 0.29026 0.0
C1014 C 0.27825 0.43022 0.40198 0.0
H1015 H 0.36852 0.44153 0.35261 0.0
H1016 H 0.36335 0.51169 0.34966 0.0
H1017 H 0.30198 0.39806 0.37119 0.0
H1018 H 0.30686 0.39757 0.33213 0.0
H1019 H 0.33151 0.39977 0.35768 0.0
H1020 H 0.32321 0.51111 0.35047 0.0
H1021 H 0.29997 0.48468 0.3271 0.0
H1022 H 0.29589 0.48262 0.36639 0.0
H1023 H 0.24175 0.39891 0.29032 0.0
H1024 H 0.22896 0.39555 0.38437 0.0
H1025 H 0.30708 0.42661 0.29061 0.0
H1026 H 0.30478 0.45579 0.29094 0.0
H1027 H 0.28193 0.42787 0.26902 0.0
H1028 H 0.28983 0.42087 0.40855 0.0
H1029 H 0.26201 0.42424 0.41793 0.0
H1030 H 0.29137 0.45173 0.40373 0.0
C1031 C 0.50614 0.8575 0.34283 0.0
C1032 C 0.51619 0.88372 0.35176 0.0
C1033 C 0.52262 0.84685 0.33931 0.0
C1034 C 0.54966 0.86254 0.34572 0.0
C1035 C 0.55973 0.88869 0.35583 0.0
C1036 C 0.54286 0.89894 0.35873 0.0
C1037 C 0.51116 0.81894 0.32837 0.0
C1038 C 0.5884 0.90594 0.36322 0.0
C1039 C 0.59156 0.83114 0.35983 0.0
C1040 C 0.60459 0.83535 0.33275 0.0
C1041 C 0.57311 0.8393 0.36418 0.0
C1042 C 0.56763 0.85199 0.34091 0.0
C1043 C 0.5801 0.85552 0.31325 0.0
C1044 C 0.59838 0.84715 0.3095 0.0
C1045 C 0.56007 0.83504 0.39393 0.0
C1046 C 0.57465 0.86878 0.28781 0.0
H1047 H 0.48541 0.84534 0.33821 0.0
H1048 H 0.55054 0.91899 0.3663 0.0
H1049 H 0.52076 0.81848 0.30747 0.0
H1050 H 0.51491 0.80724 0.34486 0.0
H1051 H 0.48975 0.80939 0.32424 0.0
H1052 H 0.59297 0.92552 0.37177 0.0
H1053 H 0.59453 0.89639 0.38013 0.0
H1054 H 0.60025 0.90868 0.34315 0.0
H1055 H 0.5962 0.822 0.37789 0.0
H1056 H 0.60824 0.85039 0.28843 0.0
H1057 H 0.53851 0.82471 0.39106 0.0
H1058 H 0.56599 0.85426 0.40459 0.0
H1059 H 0.56525 0.82347 0.4091 0.0
H1060 H 0.55339 0.85853 0.28269 0.0
H1061 H 0.58527 0.86917 0.26739 0.0
H1062 H 0.58054 0.88924 0.29416 0.0
C1063 C 0.10761 0.63484 0.32795 0.0
C1064 C 0.11406 0.62604 0.35377 0.0
C1065 C 0.11768 0.66159 0.32313 0.0
C1066 C 0.13394 0.67971 0.34508 0.0
C1067 C 0.14078 0.67091 0.37103 0.0
C1068 C 0.13086 0.64406 0.37496 0.0
C1069 C 0.11048 0.67042 0.29498 0.0
C1070 C 0.15779 0.68978 0.39512 0.0
C1071 C 0.17229 0.75332 0.33632 0.0
C1072 C 0.15583 0.76007 0.35135 0.0
C1073 C 0.16479 0.7268 0.33225 0.0
C1074 C 0.14042 0.70727 0.34341 0.0
C1075 C 0.12301 0.71429 0.35635 0.0
C1076 C 0.131 0.74068 0.36017 0.0
C1077 C 0.18352 0.71978 0.31784 0.0
C1078 C 0.09672 0.69404 0.36825 0.0
H1079 H 0.09497 0.62072 0.31136 0.0
H1080 H 0.13615 0.63714 0.39462 0.0
H1081 H 0.09791 0.67894 0.30028 0.0
H1082 H 0.12833 0.686 0.28426 0.0
H1083 H 0.09985 0.65404 0.27888 0.0
H1084 H 0.16259 0.67988 0.41298 0.0
H1085 H 0.17629 0.7054 0.38562 0.0
H1086 H 0.14757 0.69942 0.40516 0.0
H1087 H 0.19145 0.76857 0.32943 0.0
H1088 H 0.11818 0.74622 0.37128 0.0
H1089 H 0.17304 0.70325 0.30193 0.0
H1090 H 0.19256 0.71335 0.33508 0.0
H1091 H 0.19939 0.73669 0.306 0.0
H1092 H 0.08538 0.679 0.35104 0.0
H1093 H 0.0849 0.70287 0.37578 0.0
H1094 H 0.09963 0.68387 0.38731 0.0
C1095 C 0.79583 0.01954 0.31963 0.0
C1096 C 0.82237 0.03199 0.32728 0.0
C1097 C 0.7796 -0.00737 0.32413 0.0
C1098 C 0.79024 0.97789 0.33668 0.0
C1099 C 0.8169 0.99044 0.34511 0.0
C1100 C 0.83279 0.01727 0.33978 0.0
C1101 C 0.75133 0.97975 0.31418 0.0
C1102 C 0.82889 0.97537 0.35858 0.0
C1103 C 0.73741 0.90958 0.35719 0.0
C1104 C 0.73517 0.89642 0.33048 0.0
C1105 C 0.75696 0.93596 0.36077 0.0
C1106 C 0.77419 0.94896 0.33703 0.0
C1107 C 0.77354 0.93474 0.31139 0.0
C1108 C 0.75403 0.90857 0.30851 0.0
C1109 C 0.75773 0.95044 0.38879 0.0
C1110 C 0.79157 0.94772 0.28557 0.0
H1111 H 0.78791 0.03083 0.30953 0.0
H1112 H 0.85345 0.02659 0.34518 0.0
H1113 H 0.74784 0.96578 0.29575 0.0
H1114 H 0.73829 0.96839 0.33261 0.0
H1115 H 0.74577 -0.00578 0.30645 0.0
H1116 H 0.84864 0.98858 0.36812 0.0
H1117 H 0.81619 0.9622 0.37624 0.0
H1118 H 0.83068 0.96289 0.34131 0.0
H1119 H 0.72278 0.90002 0.37416 0.0
H1120 H 0.75237 0.89808 0.28802 0.0
H1121 H 0.74889 0.9629 0.38433 0.0
H1122 H 0.7782 0.96353 0.3963 0.0
H1123 H 0.7467 0.93677 0.40697 0.0
H1124 H 0.78581 0.96076 0.27413 0.0
H1125 H 0.79077 0.93318 0.26915 0.0
H1126 H 0.81208 0.96001 0.2933 0.0
C1127 C 0.97785 0.78627 0.36323 0.0
C1128 C 0.9632 0.77553 0.33713 0.0
C1129 C 0.00504 0.79675 0.36367 0.0
C1130 C 0.01779 0.79579 0.33759 0.0
C1131 C 0.00304 0.78458 0.31128 0.0
C1132 C 0.97588 0.77458 0.31137 0.0
C1133 C 0.02006 0.80851 0.39219 0.0
C1134 C 0.01585 0.78253 0.28329 0.0
C1135 C 0.09171 0.83976 0.33346 0.0
C1136 C 0.10016 0.82285 0.34378 0.0
C1137 C 0.06483 0.83123 0.33118 0.0
C1138 C 0.04628 0.80501 0.33849 0.0
C1139 C 0.05496 0.78767 0.34781 0.0
C1140 C 0.0818 0.79695 0.35081 0.0
C1141 C 0.05625 0.8504 0.32189 0.0
C1142 C 0.03592 0.75941 0.35506 0.0
H1143 H 0.96798 0.78646 0.38335 0.0
H1144 H 0.96448 0.76577 0.29136 0.0
H1145 H 0.02873 0.79672 0.40028 0.0
H1146 H 0.03643 0.82864 0.38824 0.0
H1147 H 0.00749 0.80936 0.4099 0.0
H1148 H 0.00182 0.77431 0.26437 0.0
H1149 H 0.03207 0.80211 0.27705 0.0
H1150 H 0.02446 0.7698 0.28721 0.0
H1151 H 0.10606 0.85983 0.32824 0.0
H1152 H 0.08852 0.78388 0.35857 0.0
H1153 H 0.0451 0.85294 0.34009 0.0
H1154 H 0.04298 0.84267 0.30232 0.0
H1155 H 0.07307 0.86989 0.31635 0.0
H1156 H 0.02425 0.75846 0.37469 0.0
H1157 H 0.04594 0.74807 0.35986 0.0
H1158 H 0.02202 0.74979 0.3363 0.0
C1159 C 0.22295 0.19722 0.32401 0.0
C1160 C 0.20855 0.1714 0.33382 0.0
C1161 C 0.21289 0.2142 0.32636 0.0
C1162 C 0.18786 0.205 0.33885 0.0
C1163 C 0.17333 0.17902 0.34911 0.0
C1164 C 0.18368 0.16232 0.34598 0.0
C1165 C 0.2287 0.24173 0.3146 0.0
C1166 C 0.1466 0.16865 0.36251 0.0
C1167 C 0.17661 0.26124 0.35611 0.0
C1168 C 0.16633 0.26316 0.32885 0.0
C1169 C 0.18176 0.24072 0.36099 0.0
C1170 C 0.17613 0.222 0.33811 0.0
C1171 C 0.16302 0.22244 0.31196 0.0
C1172 C 0.15849 0.24326 0.30755 0.0
C1173 C 0.1954 0.2405 0.38932 0.0
C1174 C 0.15624 0.20258 0.28724 0.0
H1175 H 0.24196 0.20402 0.31417 0.0
H1176 H 0.1723 0.14212 0.353 0.0
H1177 H 0.21807 0.24444 0.29579 0.0
H1178 H 0.23134 0.25621 0.33207 0.0
H1179 H 0.24828 0.24611 0.30679 0.0
H1180 H 0.13943 0.14918 0.37287 0.0
H1181 H 0.14699 0.18252 0.37953 0.0
H1182 H 0.1324 0.16671 0.34504 0.0
H1183 H 0.18247 0.27674 0.37254 0.0
H1184 H 0.15008 0.24476 0.28668 0.0
H1185 H 0.21643 0.24804 0.38484 0.0
H1186 H 0.18715 0.22026 0.39779 0.0
H1187 H 0.19386 0.253 0.40683 0.0
H1188 H 0.17433 0.2069 0.2753 0.0
H1189 H 0.14224 0.20305 0.271 0.0
H1190 H 0.14765 0.18247 0.29615 0.0
C1191 C 0.61512 0.49035 0.65621 0.0
C1192 C 0.59978 0.49609 0.67525 0.0
C1193 C 0.6406 0.5096 0.64881 0.0
C1194 C 0.65148 0.53475 0.66195 0.0
C1195 C 0.63557 0.5413 0.67921 0.0
C1196 C 0.60968 0.52212 0.68482 0.0
C1197 C 0.65647 0.50226 0.62893 0.0
C1198 C 0.6465 0.56788 0.69397 0.0
C1199 C 0.72117 0.57117 0.68966 0.0
C1200 C 0.73215 0.5927 0.67077 0.0
C1201 C 0.69542 0.55089 0.68531 0.0
C1202 C 0.68017 0.55273 0.66203 0.0
C1203 C 0.69179 0.5736 0.64165 0.0
C1204 C 0.71789 0.59336 0.64615 0.0
C1205 C 0.68397 0.52856 0.70706 0.0
C1206 C 0.6762 0.57601 0.61642 0.0
H1207 H 0.60805 0.47052 0.64836 0.0
H1208 H 0.59771 0.52734 0.69812 0.0
H1209 H 0.66977 0.51893 0.61476 0.0
H1210 H 0.66866 0.49687 0.64276 0.0
H1211 H 0.64368 0.48523 0.61443 0.0
H1212 H 0.63113 0.57045 0.705 0.0
H1213 H 0.66128 0.57033 0.71096 0.0
H1214 H 0.6565 0.58369 0.67753 0.0
H1215 H 0.7324 0.57078 0.70859 0.0
H1216 H 0.72649 0.61025 0.63173 0.0
H1217 H 0.67419 0.50948 0.69508 0.0
H1218 H 0.66897 0.52975 0.72064 0.0
H1219 H 0.69907 0.52888 0.7222 0.0
H1220 H 0.66472 0.55696 0.60464 0.0
H1221 H 0.68891 0.59112 0.60024 0.0
H1222 H 0.66209 0.58152 0.62531 0.0
C1223 C 0.51149 0.12862 0.66168 0.0
C1224 C 0.50493 0.10348 0.67129 0.0
C1225 C 0.49183 0.13452 0.65428 0.0
C1226 C 0.46525 0.11494 0.6572 0.0
C1227 C 0.45878 0.08883 0.66328 0.0
C1228 C 0.47876 0.08338 0.66991 0.0
C1229 C 0.49955 0.16236 0.6467 0.0
C1230 C 0.43074 0.06727 0.66671 0.0
C1231 C 0.41823 0.13053 0.69595 0.0
C1232 C 0.40047 0.12699 0.67319 0.0
C1233 C 0.4404 0.12846 0.69042 0.0
C1234 C 0.44486 0.12243 0.66136 0.0
C1235 C 0.42789 0.12039 0.63784 0.0
C1236 C 0.40582 0.12283 0.64402 0.0
C1237 C 0.45819 0.13123 0.71617 0.0
C1238 C 0.43233 0.1144 0.60654 0.0
H1239 H 0.53174 0.14418 0.66237 0.0
H1240 H 0.47375 0.06375 0.67658 0.0
H1241 H 0.48568 0.16298 0.63043 0.0
H1242 H 0.49921 0.17282 0.66708 0.0
H1243 H 0.51961 0.17304 0.63752 0.0
H1244 H 0.42892 0.04756 0.66697 0.0
H1245 H 0.42305 0.07018 0.68794 0.0
H1246 H 0.41827 0.0678 0.64854 0.0
H1247 H 0.41445 0.13436 0.7184 0.0
H1248 H 0.39221 0.12033 0.62633 0.0
H1249 H 0.47877 0.14567 0.71093 0.0
H1250 H 0.45714 0.11215 0.72028 0.0
H1251 H 0.45287 0.13764 0.73691 0.0
H1252 H 0.45311 0.12706 0.60036 0.0
H1253 H 0.41973 0.11717 0.59023 0.0
H1254 H 0.42795 0.09379 0.60499 0.0
C1255 C 0.8962 0.38901 0.66045 0.0
C1256 C 0.89355 0.39802 0.68813 0.0
C1257 C 0.88852 0.36252 0.65635 0.0
C1258 C 0.87816 0.34509 0.6806 0.0
C1259 C 0.8738 0.3539 0.70797 0.0
C1260 C 0.88142 0.38032 0.71132 0.0
C1261 C 0.89309 0.35352 0.62671 0.0
C1262 C 0.86305 0.33608 0.7344 0.0
C1263 C 0.85125 0.27419 0.65916 0.0
C1264 C 0.87398 0.2725 0.66142 0.0
C1265 C 0.85164 0.29737 0.66739 0.0
C1266 C 0.87526 0.31879 0.67818 0.0
C1267 C 0.89745 0.316 0.68324 0.0
C1268 C 0.89663 0.29287 0.6743 0.0
C1269 C 0.82753 0.29961 0.6623 0.0
C1270 C 0.92266 0.33809 0.69593 0.0
H1271 H 0.90542 0.40284 0.64261 0.0
H1272 H 0.879 0.38746 0.73262 0.0
H1273 H 0.90904 0.34881 0.62893 0.0
H1274 H 0.87526 0.3354 0.61922 0.0
H1275 H 0.89861 0.36869 0.60939 0.0
H1276 H 0.85618 0.34455 0.75186 0.0
H1277 H 0.84665 0.31657 0.72778 0.0
H1278 H 0.87865 0.33305 0.74419 0.0
H1279 H 0.83378 0.25812 0.6492 0.0
H1280 H 0.91404 0.29111 0.67619 0.0
H1281 H 0.83021 0.3114 0.64215 0.0
H1282 H 0.82433 0.30982 0.68116 0.0
H1283 H 0.80976 0.2801 0.65911 0.0
H1284 H 0.93212 0.35374 0.67917 0.0
H1285 H 0.9366 0.33143 0.70236 0.0
H1286 H 0.91877 0.34686 0.71571 0.0
C1287 C 0.186 0.93309 0.66023 0.0
C1288 C 0.15958 0.92575 0.66304 0.0
C1289 C 0.20568 0.959 0.66502 0.0
C1290 C 0.19881 0.97778 0.67411 0.0
C1291 C 0.17227 0.97023 0.6787 0.0
C1292 C 0.15286 0.94424 0.67283 0.0
C1293 C 0.23379 0.96637 0.65965 0.0
C1294 C 0.16436 0.98972 0.6889 0.0
C1295 C 0.25481 0.0338 0.71426 0.0
C1296 C 0.26607 0.05239 0.69174 0.0
C1297 C 0.23178 0.01014 0.70928 0.0
C1298 C 0.21985 0.00477 0.68094 0.0
C1299 C 0.23021 0.02403 0.65848 0.0
C1300 C 0.2533 0.04786 0.66423 0.0
C1301 C 0.22112 0.99027 0.73391 0.0
C1302 C 0.21789 0.01886 0.62796 0.0
H1303 H 0.1912 0.91872 0.65288 0.0
H1304 H 0.13243 0.93871 0.67454 0.0
H1305 H 0.2426 0.98233 0.64315 0.0
H1306 H 0.24536 0.97384 0.6805 0.0
H1307 H 0.23565 0.94956 0.65139 0.0
H1308 H 0.14314 0.98021 0.69377 0.0
H1309 H 0.17559 0.00028 0.70911 0.0
H1310 H 0.16898 0.00457 0.67144 0.0
H1311 H 0.26431 0.03752 0.73582 0.0
H1312 H 0.26191 0.06235 0.6469 0.0
H1313 H 0.22416 0.97358 0.72842 0.0
H1314 H 0.19978 0.98233 0.73626 0.0
H1315 H 0.23083 -0.00127 0.75558 0.0
H1316 H 0.22236 0.00517 0.61575 0.0
H1317 H 0.22536 0.03715 0.61492 0.0
H1318 H 0.19631 0.00944 0.62939 0.0
C1319 C 0.06138 0.24726 0.66689 0.0
C1320 C 0.06776 0.2273 0.66847 0.0
C1321 C 0.0356 0.24183 0.67054 0.0
C1322 C 0.01572 0.21586 0.67646 0.0
C1323 C 0.02246 0.19617 0.68108 0.0
C1324 C 0.04844 0.20208 0.67684 0.0
C1325 C 0.02933 0.26347 0.66552 0.0
C1326 C 0.00196 0.16838 0.68808 0.0
C1327 C 0.94888 0.20824 0.69164 0.0
C1328 C 0.93825 0.20368 0.66286 0.0
C1329 C 0.97372 0.21108 0.6969 0.0
C1330 C 0.98787 0.20886 0.67287 0.0
C1331 C 0.97637 0.20257 0.64416 0.0
C1332 C 0.95185 0.20034 0.63948 0.0
C1333 C 0.9853 0.21769 0.7278 0.0
C1334 C 0.99048 0.19943 0.61799 0.0
H1335 H 0.07637 0.26694 0.66118 0.0
H1336 H 0.05318 0.18654 0.67818 0.0
H1337 H 0.01823 0.25976 0.64437 0.0
H1338 H 0.01682 0.26387 0.68353 0.0
H1339 H 0.04723 0.28304 0.66431 0.0
H1340 H 0.01082 0.15698 0.69701 0.0
H1341 H 0.98778 0.16801 0.70439 0.0
H1342 H 0.99089 0.15849 0.66754 0.0
H1343 H 0.93832 0.21073 0.70979 0.0
H1344 H 0.94343 0.1963 0.61731 0.0
H1345 H 0.00129 0.23841 0.72865 0.0
H1346 H -0.00605 0.20535 0.73379 0.0
H1347 H 0.97054 0.21504 0.74465 0.0
H1348 H 0.00795 0.21857 0.61293 0.0
H1349 H 0.97787 0.19225 0.59779 0.0
H1350 H -0.00263 0.18548 0.6233 0.0
C1351 C 0.77475 0.82894 0.68834 0.0
C1352 C 0.76969 0.83424 0.65959 0.0
C1353 C 0.78069 0.80895 0.69323 0.0
C1354 C 0.78095 0.79383 0.66882 0.0
C1355 C 0.77724 0.80008 0.63969 0.0
C1356 C 0.77221 0.82056 0.63541 0.0
C1357 C 0.78547 0.80321 0.72452 0.0
C1358 C 0.77683 0.78406 0.61315 0.0
C1359 C 0.80534 0.74555 0.67575 0.0
C1360 C 0.78198 0.72248 0.6817 0.0
C1361 C 0.80551 0.76926 0.67209 0.0
C1362 C 0.78167 0.76947 0.67377 0.0
C1363 C 0.75793 0.74598 0.67872 0.0
C1364 C 0.75843 0.72277 0.68293 0.0
C1365 C 0.83117 0.79414 0.66732 0.0
C1366 C 0.73201 0.74536 0.67976 0.0
H1367 H 0.77324 0.83977 0.70701 0.0
H1368 H 0.76951 0.8254 0.61298 0.0
H1369 H 0.76863 0.78442 0.73179 0.0
H1370 H 0.80309 0.80103 0.72549 0.0
H1371 H 0.78809 0.81887 0.74037 0.0
H1372 H 0.77566 0.79281 0.59182 0.0
H1373 H 0.79453 0.78204 0.613 0.0
H1374 H 0.75963 0.76403 0.6145 0.0
H1375 H 0.82357 0.74526 0.67532 0.0
H1376 H 0.74039 0.70482 0.68752 0.0
H1377 H 0.83492 0.80804 0.68592 0.0
H1378 H 0.83031 0.80386 0.64668 0.0
H1379 H 0.84787 0.79047 0.66589 0.0
H1380 H 0.73217 0.75798 0.69821 0.0
H1381 H 0.71529 0.72524 0.68293 0.0
H1382 H 0.72874 0.75327 0.65888 0.0
C1383 C 0.02467 0.78702 0.68198 0.0
C1384 C 0.03844 0.814 0.68776 0.0
C1385 C -0.00257 0.77263 0.68473 0.0
C1386 C 0.98369 0.78562 0.69338 0.0
C1387 C -0.00237 0.81272 0.70021 0.0
C1388 C 0.02494 0.8266 0.69745 0.0
C1389 C 0.98326 0.74372 0.67715 0.0
C1390 C 0.98362 0.82717 0.70937 0.0
C1391 C 0.91583 0.74973 0.66098 0.0
C1392 C 0.90232 0.73218 0.68372 0.0
C1393 C 0.94197 0.76914 0.66479 0.0
C1394 C 0.95469 0.77107 0.69218 0.0
C1395 C 0.94012 0.75543 0.71638 0.0
C1396 C 0.91394 0.73582 0.71177 0.0
C1397 C 0.95667 0.78519 0.63826 0.0
C1398 C 0.95289 0.75747 0.74612 0.0
H1399 H 0.03516 0.77729 0.67462 0.0
H1400 H 0.03575 0.84749 0.70204 0.0
H1401 H 0.97067 0.73226 0.69584 0.0
H1402 H 0.97034 0.73991 0.65754 0.0
H1403 H -0.00307 0.7364 0.67214 0.0
H1404 H -0.0026 0.84808 0.71486 0.0
H1405 H 0.97039 0.82625 0.69122 0.0
H1406 H 0.97127 0.81764 0.72895 0.0
H1407 H 0.90669 0.74658 0.63924 0.0
H1408 H 0.90344 0.72196 0.72921 0.0
H1409 H 0.96877 0.77729 0.62902 0.0
H1410 H 0.97003 0.80592 0.64467 0.0
H1411 H 0.94321 0.78454 0.62049 0.0
H1412 H 0.96469 0.74757 0.74488 0.0
H1413 H 0.93818 0.74806 0.76386 0.0
H1414 H 0.96632 0.77827 0.75231 0.0
C1415 C 0.19467 0.21843 0.66154 0.0
C1416 C 0.18304 0.2171 0.68896 0.0
C1417 C 0.21233 0.20919 0.65817 0.0
C1418 C 0.21868 0.19863 0.68293 0.0
C1419 C 0.2071 0.19741 0.71072 0.0
C1420 C 0.18935 0.20663 0.7134 0.0
C1421 C 0.22427 0.21084 0.62817 0.0
C1422 C 0.21363 0.18657 0.73768 0.0
C1423 C 0.2474 0.15431 0.66895 0.0
C1424 C 0.27404 0.17177 0.67346 0.0
C1425 C 0.22906 0.16275 0.67213 0.0
C1426 C 0.23777 0.18924 0.6799 0.0
C1427 C 0.2648 0.20685 0.68461 0.0
C1428 C 0.28264 0.19786 0.68123 0.0
C1429 C 0.20046 0.14349 0.66669 0.0
C1430 C 0.2749 0.23524 0.69276 0.0
H1431 H 0.18987 0.2267 0.64273 0.0
H1432 H 0.18048 0.20575 0.73465 0.0
H1433 H 0.24583 0.22344 0.62968 0.0
H1434 H 0.22011 0.1911 0.62082 0.0
H1435 H 0.21674 0.21896 0.61101 0.0
H1436 H 0.20246 0.18639 0.7575 0.0
H1437 H 0.2094 0.16628 0.7331 0.0
H1438 H 0.23483 0.19853 0.74289 0.0
H1439 H 0.24101 0.13423 0.66245 0.0
H1440 H 0.30342 0.21133 0.68421 0.0
H1441 H 0.19307 0.15021 0.64795 0.0
H1442 H 0.18896 0.14248 0.68652 0.0
H1443 H 0.19685 0.12348 0.66147 0.0
H1444 H 0.26998 0.24497 0.67486 0.0
H1445 H 0.29642 0.24617 0.69639 0.0
H1446 H 0.26531 0.23661 0.71324 0.0
C1447 C 0.77187 0.97231 0.69022 0.0
C1448 C 0.78788 0.96126 0.68657 0.0
C1449 C 0.78205 -0.00069 0.68711 0.0
C1450 C 0.8088 0.01543 0.68006 0.0
C1451 C 0.82483 0.00424 0.67545 0.0
C1452 C 0.81425 0.97726 0.67925 0.0
C1453 C 0.7645 0.01073 0.69271 0.0
C1454 C 0.85336 0.02084 0.66774 0.0
C1455 C 0.82636 0.08486 0.66132 0.0
C1456 C 0.83312 0.09638 0.68957 0.0
C1457 C 0.81999 0.05866 0.65719 0.0
C1458 C 0.82056 0.04417 0.68192 0.0
C1459 C 0.82962 0.0566 0.70982 0.0
C1460 C 0.83582 0.0826 0.71325 0.0
C1461 C 0.81095 0.04603 0.627 0.0
C1462 C 0.83072 0.04192 0.73672 0.0
H1463 H 0.75152 0.9599 0.69603 0.0
H1464 H 0.82664 0.96863 0.67667 0.0
H1465 H 0.77138 0.02343 0.71283 0.0
H1466 H 0.76536 0.02316 0.67386 0.0
H1467 H 0.7438 -0.00467 0.69599 0.0
H1468 H 0.86194 0.00874 0.66029 0.0
H1469 H 0.85594 0.03492 0.65001 0.0
H1470 H 0.86452 0.03244 0.68749 0.0
H1471 H 0.82445 0.09568 0.643 0.0
H1472 H 0.84162 0.09182 0.73499 0.0
H1473 H 0.78941 0.03299 0.62703 0.0
H1474 H 0.81979 0.03374 0.62157 0.0
H1475 H 0.81593 0.06082 0.60932 0.0
H1476 H 0.81054 0.02739 0.7434 0.0
H1477 H 0.84074 0.0552 0.75591 0.0
H1478 H 0.84104 0.03101 0.73154 0.0
C1479 C 0.46569 0.35924 0.68206 0.0
C1480 C 0.48683 0.36851 0.66263 0.0
C1481 C 0.44965 0.33228 0.68664 0.0
C1482 C 0.45516 0.31443 0.67159 0.0
C1483 C 0.47797 0.32397 0.65422 0.0
C1484 C 0.4935 0.35097 0.64984 0.0
C1485 C 0.42562 0.32287 0.70551 0.0
C1486 C 0.48472 0.30561 0.63812 0.0
C1487 C 0.41248 0.24058 0.68107 0.0
C1488 C 0.39546 0.23444 0.65669 0.0
C1489 C 0.43208 0.26671 0.68673 0.0
C1490 C 0.43423 0.2868 0.66772 0.0
C1491 C 0.41665 0.2806 0.6436 0.0
C1492 C 0.39766 0.25461 0.63838 0.0
C1493 C 0.45065 0.27277 0.7126 0.0
C1494 C 0.41801 0.30141 0.62289 0.0
H1495 H 0.46116 0.37301 0.69278 0.0
H1496 H 0.51044 0.35839 0.63563 0.0
H1497 H 0.40804 0.31514 0.69093 0.0
H1498 H 0.42314 0.30666 0.72006 0.0
H1499 H 0.42647 0.33887 0.71951 0.0
H1500 H 0.50519 0.31591 0.63008 0.0
H1501 H 0.482 0.28935 0.65272 0.0
H1502 H 0.47143 0.29684 0.61868 0.0
H1503 H 0.41075 0.22503 0.69533 0.0
H1504 H 0.38432 0.25015 0.61977 0.0
H1505 H 0.45056 0.28799 0.72711 0.0
H1506 H 0.47088 0.28081 0.70438 0.0
H1507 H 0.44557 0.25514 0.72608 0.0
H1508 H 0.41627 0.31662 0.63565 0.0
H1509 H 0.40233 0.29325 0.60565 0.0
H1510 H 0.43717 0.31121 0.61159 0.0
C1511 C 0.6412 0.10143 0.65224 0.0
C1512 C 0.62998 0.11521 0.66501 0.0
C1513 C 0.66841 0.11184 0.65241 0.0
C1514 C 0.68482 0.13668 0.66567 0.0
C1515 C 0.67372 0.15131 0.67723 0.0
C1516 C 0.64644 0.14051 0.67653 0.0
C1517 C 0.6795 0.09579 0.63942 0.0
C1518 C 0.69059 0.17797 0.69128 0.0
C1519 C 0.74773 0.14582 0.69979 0.0
C1520 C 0.76612 0.15975 0.67778 0.0
C1521 C 0.7214 0.13868 0.69624 0.0
C1522 C 0.71316 0.14596 0.67022 0.0
C1523 C 0.73175 0.16093 0.64837 0.0
C1524 C 0.75802 0.16744 0.65228 0.0
C1525 C 0.70222 0.12262 0.72004 0.0
C1526 C 0.72382 0.16947 0.62055 0.0
H1527 H 0.62856 0.0822 0.64261 0.0
H1528 H 0.63805 0.15173 0.68561 0.0
H1529 H 0.69515 0.10764 0.62343 0.0
H1530 H 0.68846 0.08992 0.65735 0.0
H1531 H 0.66434 0.07782 0.62789 0.0
H1532 H 0.6792 0.18773 0.69704 0.0
H1533 H 0.69989 0.17598 0.71182 0.0
H1534 H 0.70654 0.1908 0.67607 0.0
H1535 H 0.75376 0.1398 0.71961 0.0
H1536 H 0.77215 0.17838 0.63527 0.0
H1537 H 0.68746 0.10329 0.71073 0.0
H1538 H 0.69159 0.13258 0.72793 0.0
H1539 H 0.71193 0.11929 0.73938 0.0
H1540 H 0.71233 0.15221 0.60588 0.0
H1541 H 0.74103 0.18423 0.60808 0.0
H1542 H 0.71116 0.17787 0.62596 0.0
C1543 C 0.86169 0.50379 0.69649 0.0
C1544 C 0.88103 0.51171 0.67458 0.0
C1545 C 0.84778 0.51707 0.70072 0.0
C1546 C 0.85374 0.53906 0.68312 0.0
C1547 C 0.87338 0.5473 0.66118 0.0
C1548 C 0.8867 0.53342 0.65715 0.0
C1549 C 0.82665 0.50749 0.72383 0.0
C1550 C 0.88051 0.57093 0.64208 0.0
C1551 C 0.815 0.57113 0.66339 0.0
C1552 C 0.82998 0.59501 0.6783 0.0
C1553 C 0.81977 0.55038 0.66814 0.0
C1554 C 0.84024 0.55426 0.68776 0.0
C1555 C 0.85199 0.57663 0.70656 0.0
C1556 C 0.8462 0.59669 0.70192 0.0
C1557 C 0.80595 0.52624 0.6487 0.0
C1558 C 0.87396 0.58163 0.72773 0.0
H1559 H 0.85725 0.48717 0.71043 0.0
H1560 H 0.90175 0.53962 0.64046 0.0
H1561 H 0.83046 0.52348 0.73971 0.0
H1562 H 0.80752 0.50144 0.71294 0.0
H1563 H 0.82507 0.49061 0.73645 0.0
H1564 H 0.89686 0.57521 0.62684 0.0
H1565 H 0.86333 0.56763 0.62857 0.0
H1566 H 0.88626 0.58847 0.65627 0.0
H1567 H 0.80238 0.56995 0.64512 0.0
H1568 H 0.85774 0.61533 0.71336 0.0
H1569 H 0.80288 0.50853 0.66069 0.0
H1570 H 0.81812 0.52861 0.62903 0.0
H1571 H 0.78673 0.52314 0.64075 0.0
H1572 H 0.87021 0.56343 0.73905 0.0
H1573 H 0.87702 0.59664 0.74475 0.0
H1574 H 0.89233 0.58892 0.71505 0.0
C1575 C 0.47619 0.92197 0.23275 0.0
C1576 C 0.46258 0.92838 0.25361 0.0
C1577 C 0.48047 0.93203 0.20384 0.0
C1578 C 0.46988 0.9479 0.19508 0.0
C1579 C 0.45669 0.95496 0.21602 0.0
C1580 C 0.45397 0.94585 0.24515 0.0
C1581 C 0.49549 0.92491 0.18234 0.0
C1582 C 0.44438 0.9712 0.20735 0.0
C1583 C 0.48974 0.98781 0.12428 0.0
C1584 C 0.4686 0.97189 0.10557 0.0
C1585 C 0.49086 0.98001 0.15342 0.0
C1586 C 0.47068 0.95549 0.16355 0.0
C1587 C 0.45002 0.93884 0.14407 0.0
C1588 C 0.44907 0.94742 0.11542 0.0
C1589 C 0.51297 -0.00159 0.1737 0.0
C1590 C 0.4283 0.91242 0.15383 0.0
H1591 H 0.48287 0.90844 0.23849 0.0
H1592 H 0.44449 0.95208 0.2611 0.0
H1593 H 0.48213 0.9119 0.16461 0.0
H1594 H 0.51092 0.94278 0.17147 0.0
H1595 H 0.50479 0.91473 0.19337 0.0
H1596 H 0.43515 0.97537 0.22643 0.0
H1597 H 0.45927 0.99007 0.19776 0.0
H1598 H 0.42916 0.96067 0.19002 0.0
H1599 H 0.5047 0.00684 0.1166 0.0
H1600 H 0.43283 0.93508 0.10074 0.0
H1601 H 0.52222 0.98801 0.18425 0.0
H1602 H 0.50521 0.00538 0.19177 0.0
H1603 H 0.52818 0.01574 0.16178 0.0
H1604 H 0.43656 0.90052 0.16277 0.0
H1605 H 0.41454 0.90127 0.1354 0.0
H1606 H 0.41713 0.91506 0.17191 0.0
C1607 C 0.03913 0.50493 0.25076 0.0
C1608 C 0.05786 0.53094 0.25789 0.0
C1609 C 0.02755 0.49826 0.22251 0.0
C1610 C 0.03403 0.51828 0.20148 0.0
C1611 C 0.05065 0.5448 0.20961 0.0
C1612 C 0.06267 0.55081 0.23761 0.0
C1613 C 0.01028 0.46966 0.21446 0.0
C1614 C 0.05734 0.56667 0.18793 0.0
C1615 C 0.03502 0.50228 0.12038 0.0
C1616 C 0.01051 0.49771 0.11081 0.0
C1617 C 0.04276 0.50868 0.15007 0.0
C1618 C 0.02588 0.51147 0.17013 0.0
C1619 C 0.00151 0.50783 0.16018 0.0
C1620 C -0.00613 0.50045 0.13063 0.0
C1621 C 0.06843 0.51131 0.16023 0.0
C1622 C 0.98331 0.51113 0.18087 0.0
H1623 H 0.03469 0.48955 0.26666 0.0
H1624 H 0.07718 0.57095 0.2427 0.0
H1625 H -0.00794 0.46632 0.20329 0.0
H1626 H 0.0207 0.46365 0.19864 0.0
H1627 H 0.00498 0.45681 0.23419 0.0
H1628 H 0.06735 0.58623 0.19895 0.0
H1629 H 0.07046 0.5663 0.17064 0.0
H1630 H 0.03941 0.564 0.17658 0.0
H1631 H 0.04736 0.49916 0.1051 0.0
H1632 H 0.97464 0.49623 0.12309 0.0
H1633 H 0.06493 0.49709 0.17815 0.0
H1634 H 0.08135 0.53121 0.16953 0.0
H1635 H 0.07887 0.50779 0.14194 0.0
H1636 H 0.97665 0.49616 0.19852 0.0
H1637 H 0.96583 0.50922 0.16911 0.0
H1638 H -0.00622 0.53062 0.19196 0.0
C1639 C 0.45846 0.51359 0.22792 0.0
C1640 C 0.46569 0.53726 0.24269 0.0
C1641 C 0.46684 0.51357 0.19877 0.0
C1642 C 0.48332 0.53777 0.1847 0.0
C1643 C 0.4897 0.56158 0.1991 0.0
C1644 C 0.48018 0.56097 0.22747 0.0
C1645 C 0.45879 0.48776 0.18347 0.0
C1646 C 0.50758 0.58781 0.18514 0.0
C1647 C 0.53069 0.53993 0.12702 0.0
C1648 C 0.51874 0.54126 0.10065 0.0
C1649 C 0.51934 0.53882 0.15456 0.0
C1650 C 0.49526 0.53861 0.15563 0.0
C1651 C 0.48346 0.54071 0.12915 0.0
C1652 C 0.49556 0.54239 0.10196 0.0
C1653 C 0.53283 0.53729 0.18246 0.0
C1654 C 0.45751 0.54 0.12945 0.0
H1655 H 0.44699 0.49522 0.23937 0.0
H1656 H 0.48481 0.57935 0.23814 0.0
H1657 H 0.45214 0.48786 0.16041 0.0
H1658 H 0.47584 0.48468 0.18222 0.0
H1659 H 0.44287 0.47099 0.19542 0.0
H1660 H 0.5106 0.60453 0.19945 0.0
H1661 H 0.52692 0.58964 0.18083 0.0
H1662 H 0.49945 0.58934 0.16349 0.0
H1663 H 0.54845 0.53876 0.126 0.0
H1664 H 0.48591 0.54283 0.0816 0.0
H1665 H 0.52009 0.51865 0.19404 0.0
H1666 H 0.53635 0.55352 0.19786 0.0
H1667 H 0.55182 0.53839 0.17781 0.0
H1668 H 0.44237 0.52125 0.13909 0.0
H1669 H 0.45098 0.54189 0.10688 0.0
H1670 H 0.45878 0.55603 0.14367 0.0
C1671 C 0.91795 0.439 0.78406 0.0
C1672 C 0.93224 0.46066 0.76579 0.0
C1673 C 0.92662 0.43823 0.81263 0.0
C1674 C 0.94969 0.4601 0.82355 0.0
C1675 C 0.96337 0.48282 0.80591 0.0
C1676 C 0.95452 0.48277 0.77688 0.0
C1677 C 0.91168 0.41354 0.83056 0.0
C1678 C 0.98766 0.50675 0.8174 0.0
C1679 C 0.95881 0.46317 0.90666 0.0
C1680 C 0.97833 0.45637 0.90982 0.0
C1681 C 0.94976 0.46509 0.8786 0.0
C1682 C 0.95957 0.45876 0.85329 0.0
C1683 C 0.9781 0.45027 0.85646 0.0
C1684 C 0.98781 0.44983 0.88479 0.0
C1685 C 0.93067 0.47507 0.87598 0.0
C1686 C 0.98801 0.44219 0.82994 0.0
H1687 H 0.90045 0.42207 0.77538 0.0
H1688 H 0.96542 0.49947 0.76261 0.0
H1689 H 0.92466 0.40555 0.83631 0.0
H1690 H 0.90511 0.41798 0.85168 0.0
H1691 H 0.89427 0.39815 0.81844 0.0
H1692 H -0.00539 0.52353 0.80197 0.0
H1693 H 0.98386 0.51279 0.83931 0.0
H1694 H 0.00355 0.50208 0.82062 0.0
H1695 H 0.95192 0.46882 0.92602 0.0
H1696 H 0.00321 0.445 0.88737 0.0
H1697 H 0.91249 0.46031 0.86457 0.0
H1698 H 0.93928 0.49304 0.8623 0.0
H1699 H 0.92545 0.47972 0.89793 0.0
H1700 H 0.97131 0.4267 0.81703 0.0
H1701 H 0.00128 0.4347 0.83642 0.0
H1702 H -0.00128 0.45914 0.81503 0.0
C1703 C 0.55713 0.47043 0.78279 0.0
C1704 C 0.53801 0.45857 0.76052 0.0
C1705 C 0.55086 0.47616 0.81067 0.0
C1706 C 0.52476 0.46967 0.81646 0.0
C1707 C 0.50504 0.45627 0.79468 0.0
C1708 C 0.51192 0.45088 0.76686 0.0
C1709 C 0.57251 0.49059 0.83327 0.0
C1710 C 0.47702 0.44902 0.80015 0.0
C1711 C 0.51397 0.4788 0.89738 0.0
C1712 C 0.51933 0.50484 0.89734 0.0
C1713 C 0.51371 0.46617 0.87075 0.0
C1714 C 0.51915 0.48006 0.84375 0.0
C1715 C 0.52258 0.5056 0.84343 0.0
C1716 C 0.5224 0.51756 0.87019 0.0
C1717 C 0.50933 0.43865 0.87174 0.0
C1718 C 0.52855 0.52119 0.81516 0.0
H1719 H 0.57721 0.47587 0.77811 0.0
H1720 H 0.4971 0.44173 0.74963 0.0
H1721 H 0.57557 0.5106 0.83687 0.0
H1722 H 0.56706 0.4804 0.85488 0.0
H1723 H 0.59131 0.49234 0.82613 0.0
H1724 H 0.46351 0.43533 0.7829 0.0
H1725 H 0.47062 0.43986 0.82222 0.0
H1726 H 0.47536 0.46698 0.80009 0.0
H1727 H 0.51131 0.46875 0.91825 0.0
H1728 H 0.5261 0.53755 0.86987 0.0
H1729 H 0.52812 0.43913 0.86792 0.0
H1730 H 0.49554 0.42638 0.85389 0.0
H1731 H 0.50153 0.42923 0.89346 0.0
H1732 H 0.5483 0.5262 0.80736 0.0
H1733 H 0.5281 0.53969 0.81828 0.0
H1734 H 0.51436 0.50946 0.79738 0.0
C1735 C 0.54407 0.07797 0.78601 0.0
C1736 C 0.52631 0.06979 0.76208 0.0
C1737 C 0.53602 0.06733 0.81438 0.0
C1738 C 0.50943 0.04855 0.81919 0.0
C1739 C 0.49136 0.04032 0.79531 0.0
C1740 C 0.5001 0.05059 0.76699 0.0
C1741 C 0.55602 0.0761 0.83921 0.0
C1742 C 0.4628 0.02062 0.79967 0.0
C1743 C 0.49876 0.00426 0.88421 0.0
C1744 C 0.49316 0.01692 0.90697 0.0
C1745 C 0.50262 0.01352 0.85515 0.0
C1746 C 0.50105 0.0362 0.84876 0.0
C1747 C 0.49357 0.04802 0.87128 0.0
C1748 C 0.48963 0.03814 0.90031 0.0
C1749 C 0.5103 0.00014 0.83184 0.0
C1750 C 0.49147 0.07209 0.86521 0.0
H1751 H 0.56422 0.09302 0.78279 0.0
H1752 H 0.48624 0.04351 0.74867 0.0
H1753 H 0.5503 0.0847 0.85762 0.0
H1754 H 0.55678 0.05897 0.84821 0.0
H1755 H 0.57593 0.09082 0.83183 0.0
H1756 H 0.45098 0.01733 0.77915 0.0
H1757 H 0.46057 0.0016 0.80674 0.0
H1758 H 0.45471 0.02744 0.81756 0.0
H1759 H 0.5015 0.98782 0.88955 0.0
H1760 H 0.48564 0.0481 0.91808 0.0
H1761 H 0.53094 0.0133 0.82546 0.0
H1762 H 0.49808 -0.00396 0.81157 0.0
H1763 H 0.50833 0.98142 0.83981 0.0
H1764 H 0.51134 0.08921 0.86243 0.0
H1765 H 0.48176 0.0765 0.88359 0.0
H1766 H 0.4804 0.06962 0.84431 0.0
C1767 C 0.13459 0.28628 0.58477 0.0
C1768 C 0.13598 0.26356 0.59029 0.0
C1769 C 0.13983 0.29762 0.55658 0.0
C1770 C 0.14682 0.28606 0.53339 0.0
C1771 C 0.1497 0.26403 0.53923 0.0
C1772 C 0.14418 0.25298 0.56762 0.0
C1773 C 0.13645 0.32109 0.55126 0.0
C1774 C 0.15732 0.25133 0.51509 0.0
C1775 C 0.12711 0.29356 0.45551 0.0
C1776 C 0.15037 0.31447 0.44501 0.0
C1777 C 0.1258 0.28401 0.48421 0.0
C1778 C 0.14851 0.29536 0.50248 0.0
C1779 C 0.17234 0.31595 0.49146 0.0
C1780 C 0.17287 0.32561 0.46289 0.0
C1781 C 0.09982 0.26263 0.49543 0.0
C1782 C 0.19697 0.32833 0.51019 0.0
H1783 H 0.12869 0.29479 0.60237 0.0
H1784 H 0.14513 0.23533 0.57166 0.0
H1785 H 0.15368 0.33671 0.53972 0.0
H1786 H 0.11914 0.31527 0.53671 0.0
H1787 H 0.13365 0.32933 0.57223 0.0
H1788 H 0.16133 0.23607 0.52387 0.0
H1789 H 0.14128 0.24208 0.49839 0.0
H1790 H 0.17494 0.26631 0.50345 0.0
H1791 H 0.10959 0.28561 0.44178 0.0
H1792 H 0.19063 0.34224 0.45478 0.0
H1793 H 0.09377 0.26996 0.51482 0.0
H1794 H 0.10163 0.24569 0.503 0.0
H1795 H 0.08414 0.25568 0.47823 0.0
H1796 H 0.19455 0.33879 0.52936 0.0
H1797 H 0.21431 0.3425 0.49746 0.0
H1798 H 0.20073 0.313 0.51922 0.0
C1799 C 0.73963 0.85517 0.56712 0.0
C1800 C 0.73009 0.86545 0.58862 0.0
C1801 C 0.72842 0.84847 0.53889 0.0
C1802 C 0.70746 0.8527 0.53177 0.0
C1803 C 0.69851 0.86429 0.55288 0.0
C1804 C 0.71002 0.8706 0.58131 0.0
C1805 C 0.73821 0.83565 0.51727 0.0
C1806 C 0.67612 0.86892 0.54576 0.0
C1807 C 0.69318 0.84663 0.44942 0.0
C1808 C 0.67391 0.82018 0.44715 0.0
C1809 C 0.70319 0.85817 0.47725 0.0
C1810 C 0.69371 0.84276 0.50309 0.0
C1811 C 0.6733 0.81645 0.50096 0.0
C1812 C 0.66349 0.80557 0.47303 0.0
C1813 C 0.72502 0.88629 0.47889 0.0
C1814 C 0.66315 0.79915 0.52793 0.0
H1815 H 0.75555 0.8517 0.57275 0.0
H1816 H 0.70282 0.87866 0.59803 0.0
H1817 H 0.72247 0.8153 0.51236 0.0
H1818 H 0.74359 0.84639 0.496 0.0
H1819 H 0.75549 0.8349 0.526 0.0
H1820 H 0.67317 0.88037 0.56345 0.0
H1821 H 0.67964 0.87949 0.52446 0.0
H1822 H 0.65782 0.84983 0.54302 0.0
H1823 H 0.70121 0.85799 0.42948 0.0
H1824 H 0.64841 0.78513 0.47148 0.0
H1825 H 0.74354 0.88693 0.48525 0.0
H1826 H 0.7209 0.89717 0.4962 0.0
H1827 H 0.72796 0.89645 0.45737 0.0
H1828 H 0.6786 0.79548 0.53687 0.0
H1829 H 0.64558 0.77992 0.52274 0.0
H1830 H 0.65818 0.80897 0.54569 0.0
C1831 C 0.12173 0.84701 0.56058 0.0
C1832 C 0.12771 0.87098 0.57373 0.0
C1833 C 0.1306 0.84629 0.53189 0.0
C1834 C 0.14646 0.87013 0.51685 0.0
C1835 C 0.15122 0.89412 0.52946 0.0
C1836 C 0.14099 0.89409 0.55722 0.0
C1837 C 0.12401 0.82021 0.51827 0.0
C1838 C 0.16858 0.92004 0.51459 0.0
C1839 C 0.19597 0.87207 0.46231 0.0
C1840 C 0.18445 0.87238 0.43519 0.0
C1841 C 0.18387 0.87157 0.48916 0.0
C1842 C 0.15933 0.87049 0.48866 0.0
C1843 C 0.14787 0.87128 0.46136 0.0
C1844 C 0.16085 0.87276 0.43495 0.0
C1845 C 0.19712 0.87173 0.518 0.0
C1846 C 0.12135 0.86932 0.45994 0.0
H1847 H 0.1112 0.82909 0.57311 0.0
H1848 H 0.14477 0.91258 0.56689 0.0
H1849 H 0.11786 0.81915 0.49474 0.0
H1850 H 0.14159 0.81798 0.51863 0.0
H1851 H 0.10817 0.80355 0.53044 0.0
H1852 H 0.17037 0.93695 0.52758 0.0
H1853 H 0.18845 0.92272 0.51171 0.0
H1854 H 0.16086 0.92031 0.4922 0.0
H1855 H 0.21404 0.87146 0.46246 0.0
H1856 H 0.15154 0.87242 0.41401 0.0
H1857 H 0.1849 0.85319 0.53 0.0
H1858 H 0.19928 0.888 0.53249 0.0
H1859 H 0.21675 0.87394 0.51453 0.0
H1860 H 0.10654 0.85068 0.47011 0.0
H1861 H 0.11507 0.87 0.43683 0.0
H1862 H 0.12154 0.88549 0.47286 0.0
C1863 C 0.62549 0.80248 0.10425 0.0
C1864 C 0.59984 0.79705 0.09951 0.0
C1865 C 0.6348 0.80304 0.13303 0.0
C1866 C 0.61773 0.79738 0.15728 0.0
C1867 C 0.59202 0.79274 0.1526 0.0
C1868 C 0.58342 0.79283 0.12363 0.0
C1869 C 0.66257 0.80877 0.13739 0.0
C1870 C 0.57333 0.78664 0.17799 0.0
C1871 C 0.63535 0.77254 0.22618 0.0
C1872 C 0.64886 0.79577 0.24256 0.0
C1873 C 0.62444 0.77259 0.19841 0.0
C1874 C 0.62693 0.79631 0.18751 0.0
C1875 C 0.63961 0.81947 0.2048 0.0
C1876 C 0.6506 0.81893 0.23207 0.0
C1877 C 0.6108 0.74752 0.18044 0.0
C1878 C 0.64221 0.84498 0.19421 0.0
H1879 H 0.63791 0.80541 0.08536 0.0
H1880 H 0.56337 0.7881 0.11964 0.0
H1881 H 0.67306 0.82526 0.15335 0.0
H1882 H 0.66251 0.79141 0.14696 0.0
H1883 H 0.6736 0.81386 0.1163 0.0
H1884 H 0.5542 0.78411 0.17056 0.0
H1885 H 0.56985 0.76837 0.18901 0.0
H1886 H 0.58194 0.80256 0.19489 0.0
H1887 H 0.63379 0.75466 0.23479 0.0
H1888 H 0.66068 0.83675 0.24532 0.0
H1889 H 0.62165 0.74981 0.15963 0.0
H1890 H 0.59083 0.7432 0.17407 0.0
H1891 H 0.60931 0.73052 0.19274 0.0
H1892 H 0.6552 0.85197 0.17467 0.0
H1893 H 0.65045 0.86052 0.21164 0.0
H1894 H 0.62291 0.8421 0.18709 0.0
C1895 C 0.22195 0.8197 0.10747 0.0
C1896 C 0.20293 0.8001 0.08894 0.0
C1897 C 0.21555 0.82496 0.13553 0.0
C1898 C 0.1898 0.80939 0.14608 0.0
C1899 C 0.17046 0.78963 0.12773 0.0
C1900 C 0.17708 0.78566 0.09911 0.0
C1901 C 0.23652 0.847 0.15405 0.0
C1902 C 0.1429 0.77239 0.13854 0.0
C1903 C 0.18632 0.81119 0.22985 0.0
C1904 C 0.17933 0.8305 0.23372 0.0
C1905 C 0.18831 0.80287 0.20123 0.0
C1906 C 0.18325 0.81424 0.17623 0.0
C1907 C 0.17435 0.83232 0.1802 0.0
C1908 C 0.17227 0.84002 0.20893 0.0
C1909 C 0.19751 0.78325 0.1977 0.0
C1910 C 0.16921 0.84527 0.15418 0.0
H1911 H 0.24212 0.83065 0.10056 0.0
H1912 H 0.16196 0.77096 0.08491 0.0
H1913 H 0.22961 0.86044 0.16171 0.0
H1914 H 0.24087 0.83891 0.17406 0.0
H1915 H 0.25496 0.85859 0.14161 0.0
H1916 H 0.13041 0.75712 0.12198 0.0
H1917 H 0.14325 0.76261 0.15938 0.0
H1918 H 0.13377 0.78445 0.14369 0.0
H1919 H 0.19187 0.80387 0.24896 0.0
H1920 H 0.16662 0.85482 0.21191 0.0
H1921 H 0.21774 0.79323 0.18906 0.0
H1922 H 0.18497 0.76779 0.18139 0.0
H1923 H 0.19741 0.77385 0.21905 0.0
H1924 H 0.18798 0.85861 0.1432 0.0
H1925 H 0.15993 0.85687 0.16103 0.0
H1926 H 0.15642 0.83046 0.13745 0.0
C1927 C 0.21177 0.41505 0.12371 0.0
C1928 C 0.19583 0.40284 0.09881 0.0
C1929 C 0.20315 0.40558 0.15241 0.0
C1930 C 0.17803 0.38338 0.15621 0.0
C1931 C 0.16215 0.37062 0.13106 0.0
C1932 C 0.17127 0.38045 0.1027 0.0
C1933 C 0.22083 0.41941 0.17867 0.0
C1934 C 0.1354 0.34669 0.13413 0.0
C1935 C 0.16366 0.34117 0.22417 0.0
C1936 C 0.14946 0.34932 0.24182 0.0
C1937 C 0.17367 0.35265 0.19677 0.0
C1938 C 0.16886 0.37245 0.18626 0.0
C1939 C 0.15461 0.38093 0.20399 0.0
C1940 C 0.14542 0.36953 0.23195 0.0
C1941 C 0.18933 0.34349 0.17904 0.0
C1942 C 0.14881 0.40174 0.19322 0.0
H1943 H 0.23062 0.43254 0.12084 0.0
H1944 H 0.15898 0.37083 0.08347 0.0
H1945 H 0.21079 0.42585 0.19449 0.0
H1946 H 0.22533 0.40569 0.19065 0.0
H1947 H 0.23951 0.43678 0.17201 0.0
H1948 H 0.12518 0.33954 0.11242 0.0
H1949 H 0.13717 0.33062 0.14462 0.0
H1950 H 0.12313 0.35123 0.14882 0.0
H1951 H 0.16745 0.32601 0.23215 0.0
H1952 H 0.13473 0.37602 0.24579 0.0
H1953 H 0.20868 0.36041 0.17347 0.0
H1954 H 0.17907 0.33449 0.15782 0.0
H1955 H 0.19249 0.3289 0.19117 0.0
H1956 H 0.16734 0.42005 0.18859 0.0
H1957 H 0.13749 0.40615 0.20958 0.0
H1958 H 0.13751 0.39526 0.17209 0.0
C1959 C 0.79521 0.61813 0.91446 0.0
C1960 C 0.80094 0.59846 0.92244 0.0
C1961 C 0.80021 0.6287 0.88585 0.0
C1962 C 0.81234 0.62027 0.86496 0.0
C1963 C 0.81977 0.60176 0.87335 0.0
C1964 C 0.81358 0.59073 0.90175 0.0
C1965 C 0.79139 0.64795 0.87762 0.0
C1966 C 0.83356 0.59301 0.85196 0.0
C1967 C 0.79782 0.6238 0.78354 0.0
C1968 C 0.81893 0.64806 0.77565 0.0
C1969 C 0.79558 0.61444 0.81253 0.0
C1970 C 0.81544 0.62935 0.83373 0.0
C1971 C 0.83749 0.65331 0.82532 0.0
C1972 C 0.83866 0.66271 0.79646 0.0
C1973 C 0.77123 0.58937 0.82088 0.0
C1974 C 0.85935 0.66947 0.84704 0.0
H1975 H 0.78625 0.62498 0.93041 0.0
H1976 H 0.81795 0.57543 0.90725 0.0
H1977 H 0.80794 0.66615 0.86872 0.0
H1978 H 0.77622 0.63935 0.85988 0.0
H1979 H 0.78312 0.65323 0.89679 0.0
H1980 H 0.84063 0.58078 0.86287 0.0
H1981 H 0.82003 0.58144 0.8336 0.0
H1982 H 0.85048 0.61029 0.84197 0.0
H1983 H 0.7822 0.61298 0.76754 0.0
H1984 H 0.85465 0.68176 0.79033 0.0
H1985 H 0.76073 0.59349 0.83855 0.0
H1986 H 0.77653 0.57513 0.82993 0.0
H1987 H 0.75767 0.5801 0.80173 0.0
H1988 H 0.85238 0.67813 0.8641 0.0
H1989 H 0.87657 0.68565 0.83598 0.0
H1990 H 0.86562 0.65693 0.85871 0.0
C1991 C 0.37238 0.17593 0.91965 0.0
C1992 C 0.39622 0.19871 0.92565 0.0
C1993 C 0.36235 0.1698 0.89061 0.0
C1994 C 0.37684 0.18668 0.86721 0.0
C1995 C 0.40051 0.21008 0.87336 0.0
C1996 C 0.40984 0.21589 0.90257 0.0
C1997 C 0.33693 0.14472 0.88484 0.0
C1998 C 0.4167 0.22825 0.84888 0.0
C1999 C 0.36949 0.15714 0.79072 0.0
C2000 C 0.35301 0.16463 0.77682 0.0
C2001 C 0.3773 0.16411 0.82028 0.0
C2002 C 0.36846 0.17904 0.83602 0.0
C2003 C 0.35218 0.18707 0.82178 0.0
C2004 C 0.34439 0.17949 0.79224 0.0
C2005 C 0.39434 0.15483 0.8349 0.0
C2006 C 0.34238 0.20292 0.83801 0.0
H2007 H 0.36194 0.16266 0.93758 0.0
H2008 H 0.42856 0.23324 0.90714 0.0
H2009 H 0.32376 0.14848 0.8706 0.0
H2010 H 0.34087 0.13059 0.87279 0.0
H2011 H 0.32661 0.13545 0.90571 0.0
H2012 H 0.43375 0.2465 0.8576 0.0
H2013 H 0.42399 0.2181 0.83427 0.0
H2014 H 0.40453 0.2336 0.83494 0.0
H2015 H 0.37525 0.14479 0.77881 0.0
H2016 H 0.3309 0.18438 0.7815 0.0
H2017 H 0.38404 0.14227 0.8541 0.0
H2018 H 0.41261 0.17185 0.84353 0.0
H2019 H 0.39959 0.14347 0.81942 0.0
H2020 H 0.33042 0.19168 0.85718 0.0
H2021 H 0.33034 0.20807 0.82351 0.0
H2022 H 0.35914 0.22126 0.84693 0.0
C2023 C 0.79397 0.18088 0.89339 0.0
C2024 C 0.79908 0.20436 0.90709 0.0
C2025 C 0.80271 0.18095 0.86445 0.0
C2026 C 0.8172 0.20511 0.84948 0.0
C2027 C 0.82115 0.22858 0.86274 0.0
C2028 C 0.81154 0.22781 0.8911 0.0
C2029 C 0.79742 0.15541 0.85043 0.0
C2030 C 0.83676 0.25475 0.8477 0.0
C2031 C 0.8659 0.20939 0.79231 0.0
C2032 C 0.85277 0.20805 0.76583 0.0
C2033 C 0.85471 0.20894 0.81979 0.0
C2034 C 0.8295 0.20629 0.8206 0.0
C2035 C 0.81647 0.20564 0.79392 0.0
C2036 C 0.82851 0.20706 0.76682 0.0
C2037 C 0.86951 0.21054 0.84791 0.0
C2038 C 0.78926 0.20207 0.79396 0.0
H2039 H 0.78417 0.16275 0.90568 0.0
H2040 H 0.81482 0.2459 0.90141 0.0
H2041 H 0.79027 0.15386 0.82727 0.0
H2042 H 0.81584 0.15469 0.84964 0.0
H2043 H 0.78278 0.1382 0.86302 0.0
H2044 H 0.83759 0.27112 0.86094 0.0
H2045 H 0.85705 0.25886 0.84409 0.0
H2046 H 0.82818 0.25435 0.82561 0.0
H2047 H 0.88448 0.20983 0.7915 0.0
H2048 H 0.818 0.20542 0.74637 0.0
H2049 H 0.85864 0.19206 0.86046 0.0
H2050 H 0.87123 0.22665 0.86235 0.0
H2051 H 0.88945 0.21392 0.84339 0.0
H2052 H 0.77558 0.1832 0.80461 0.0
H2053 H 0.7819 0.20209 0.77123 0.0
H2054 H 0.78895 0.21785 0.80717 0.0
C2055 C 0.24753 0.11628 0.45333 0.0
C2056 C 0.26617 0.13322 0.43316 0.0
C2057 C 0.25489 0.1132 0.48184 0.0
C2058 C 0.28142 0.1282 0.49061 0.0
C2059 C 0.30016 0.14639 0.47076 0.0
C2060 C 0.29236 0.14829 0.44183 0.0
C2061 C 0.23451 0.09308 0.50204 0.0
C2062 C 0.32848 0.1633 0.47984 0.0
C2063 C 0.29549 0.13815 0.5727 0.0
C2064 C 0.30697 0.12268 0.57799 0.0
C2065 C 0.28712 0.14012 0.54433 0.0
C2066 C 0.28934 0.12536 0.52091 0.0
C2067 C 0.29947 0.10839 0.52645 0.0
C2068 C 0.3089 0.10779 0.55497 0.0
C2069 C 0.27728 0.15909 0.53913 0.0
C2070 C 0.30081 0.09137 0.50217 0.0
H2071 H 0.2274 0.1041 0.446 0.0
H2072 H 0.30672 0.1608 0.42578 0.0
H2073 H 0.24058 0.07888 0.50923 0.0
H2074 H 0.23267 0.10276 0.52231 0.0
H2075 H 0.21498 0.0821 0.49112 0.0
H2076 H 0.34019 0.17753 0.4624 0.0
H2077 H 0.32997 0.17426 0.50054 0.0
H2078 H 0.33721 0.15079 0.48456 0.0
H2079 H 0.29461 0.15013 0.59041 0.0
H2080 H 0.31815 0.09614 0.55916 0.0
H2081 H 0.25734 0.14877 0.52924 0.0
H2082 H 0.29016 0.17426 0.52313 0.0
H2083 H 0.27672 0.16903 0.5599 0.0
H2084 H 0.28126 0.07943 0.4916 0.0
H2085 H 0.30756 0.07801 0.51061 0.0
H2086 H 0.31438 0.10381 0.48467 0.0
C2087 C 0.87796 0.1553 0.4314 0.0
C2088 C 0.86944 0.12963 0.42111 0.0
C2089 C 0.8726 0.16014 0.46026 0.0
C2090 C 0.85665 0.1388 0.47874 0.0
C2091 C 0.84647 0.1129 0.46807 0.0
C2092 C 0.85367 0.10862 0.43991 0.0
C2093 C 0.88466 0.18814 0.47121 0.0
C2094 C 0.82818 0.08967 0.48658 0.0
C2095 C 0.86421 0.15186 0.56165 0.0
C2096 C 0.84564 0.15959 0.5666 0.0
C2097 C 0.86759 0.14437 0.53319 0.0
C2098 C 0.85131 0.14371 0.50955 0.0
C2099 C 0.83117 0.14957 0.51508 0.0
C2100 C 0.82895 0.15802 0.54348 0.0
C2101 C 0.8899 0.1392 0.528 0.0
C2102 C 0.81283 0.14823 0.49073 0.0
H2103 H 0.88916 0.17188 0.41717 0.0
H2104 H 0.84718 0.08864 0.43317 0.0
H2105 H 0.86914 0.19279 0.47677 0.0
H2106 H 0.89618 0.19078 0.4918 0.0
H2107 H 0.89774 0.20246 0.45457 0.0
H2108 H 0.81973 0.07094 0.47388 0.0
H2109 H 0.83879 0.0882 0.5062 0.0
H2110 H 0.81195 0.09228 0.4949 0.0
H2111 H 0.87751 0.15373 0.57947 0.0
H2112 H 0.81478 0.1643 0.54739 0.0
H2113 H 0.9043 0.15432 0.51298 0.0
H2114 H 0.88271 0.11991 0.51696 0.0
H2115 H 0.9001 0.13954 0.54894 0.0
H2116 H 0.82333 0.16502 0.47559 0.0
H2117 H 0.79568 0.14893 0.4997 0.0
H2118 H 0.80575 0.13 0.47737 0.0
C2119 C 0.87516 0.74762 0.45227 0.0
C2120 C 0.85822 0.74086 0.4277 0.0
C2121 C 0.86592 0.73635 0.48012 0.0
C2122 C 0.83895 0.71827 0.48375 0.0
C2123 C 0.8216 0.71192 0.45934 0.0
C2124 C 0.83147 0.72294 0.43155 0.0
C2125 C 0.8852 0.74322 0.50545 0.0
C2126 C 0.79267 0.69304 0.46244 0.0
C2127 C 0.82538 0.66818 0.54293 0.0
C2128 C 0.82172 0.68006 0.56813 0.0
C2129 C 0.82992 0.6799 0.51513 0.0
C2130 C 0.8297 0.70366 0.51202 0.0
C2131 C 0.82314 0.71432 0.53663 0.0
C2132 C 0.8195 0.70252 0.56467 0.0
C2133 C 0.83728 0.668 0.48977 0.0
C2134 C 0.82168 0.73908 0.5338 0.0
H2135 H 0.89571 0.76184 0.44984 0.0
H2136 H 0.81817 0.7172 0.41273 0.0
H2137 H 0.87924 0.75084 0.52462 0.0
H2138 H 0.88535 0.72534 0.51289 0.0
H2139 H 0.90541 0.75812 0.49919 0.0
H2140 H 0.78146 0.69203 0.44209 0.0
H2141 H 0.78927 0.67311 0.46715 0.0
H2142 H 0.78485 0.69899 0.48143 0.0
H2143 H 0.82666 0.65052 0.54536 0.0
H2144 H 0.81663 0.71178 0.58401 0.0
H2145 H 0.85796 0.68139 0.4837 0.0
H2146 H 0.82507 0.66546 0.46988 0.0
H2147 H 0.83508 0.64867 0.49549 0.0
H2148 H 0.84175 0.7562 0.53296 0.0
H2149 H 0.81144 0.74185 0.55287 0.0
H2150 H 0.81142 0.73879 0.51296 0.0
loop_
_geom_bond_atom_site_label_1
_geom_bond_atom_site_label_2
_geom_bond_distance
_geom_bond_site_symmetry_2
_ccdc_geom_bond_type
H0 C7 0.929 . S
H1 C10 0.930 . S
H2 C12 0.929 . S
H3 C4 0.969 . S
C4 H3 0.969 . S
C4 O5 1.550 . S
C4 H6 0.973 . S
O5 C4 1.550 . S
O5 C11 1.412 . S
H6 C4 0.973 . S
C7 H0 0.929 . S
C7 C8 1.400 . S
C7 C9 1.364 . S
C8 C7 1.400 . S
C8 C12 1.377 . S
C9 C7 1.364 . S
C9 C10 1.374 . S
C10 H1 0.930 . S
C10 C9 1.374 . S
C10 C11 1.383 . S
C11 O5 1.412 . S
C11 C10 1.383 . S
C11 C12 1.394 . S
C12 H2 0.929 . S
C12 C8 1.377 . S
C12 C11 1.394 . S
H13 C20 0.929 . S
H14 C23 0.930 . S
H15 C25 0.929 . S
H16 C17 0.969 . S
C17 H16 0.969 . S
C17 O18 1.550 . S
C17 H19 0.973 . S
O18 C17 1.550 . S
O18 C24 1.412 . S
H19 C17 0.973 . S
C20 H13 0.929 . S
C20 C21 1.400 . S
C20 C22 1.364 . S
C21 C20 1.400 . S
C21 C25 1.377 . S
C22 C20 1.364 . S
C22 C23 1.374 . S
C23 H14 0.930 . S
C23 C22 1.374 . S
C23 C24 1.383 . S
C24 O18 1.412 . S
C24 C23 1.383 . S
C24 C25 1.394 . S
C25 H15 0.929 . S
C25 C21 1.377 . S
C25 C24 1.394 . S
H26 C33 0.929 . S
H27 C36 0.930 . S
H28 C38 0.929 . S
H29 C30 0.969 . S
C30 H29 0.969 . S
C30 O31 1.550 . S
C30 H32 0.973 . S
O31 C30 1.550 . S
O31 C37 1.412 . S
H32 C30 0.973 . S
C33 H26 0.929 . S
C33 C34 1.400 . S
C33 C35 1.364 . S
C34 C33 1.400 . S
C34 C38 1.377 . S
C35 C33 1.364 . S
C35 C36 1.374 . S
C36 H27 0.930 . S
C36 C35 1.374 . S
C36 C37 1.383 . S
C37 O31 1.412 . S
C37 C36 1.383 . S
C37 C38 1.394 . S
C38 H28 0.929 . S
C38 C34 1.377 . S
C38 C37 1.394 . S
H39 C46 0.929 . S
H40 C49 0.930 . S
H41 C51 0.929 . S
H42 C43 0.969 . S
C43 H42 0.969 . S
C43 O44 1.550 . S
C43 H45 0.973 . S
O44 C43 1.550 . S
O44 C50 1.412 . S
H45 C43 0.973 . S
C46 H39 0.929 . S
C46 C47 1.400 . S
C46 C48 1.364 . S
C47 C46 1.400 . S
C47 C51 1.377 . S
C48 C46 1.364 . S
C48 C49 1.374 . S
C49 H40 0.930 . S
C49 C48 1.374 . S
C49 C50 1.383 . S
C50 O44 1.412 . S
C50 C49 1.383 . S
C50 C51 1.394 . S
C51 H41 0.929 . S
C51 C47 1.377 . S
C51 C50 1.394 . S
H52 C59 0.929 . S
H53 C62 0.930 . S
H54 C64 0.929 . S
H55 C56 0.969 . S
C56 H55 0.969 . S
C56 O57 1.550 . S
C56 H58 0.973 . S
O57 C56 1.550 . S
O57 C63 1.412 . S
H58 C56 0.973 . S
C59 H52 0.929 . S
C59 C60 1.400 . S
C59 C61 1.364 . S
C60 C59 1.400 . S
C60 C64 1.377 . S
C61 C59 1.364 . S
C61 C62 1.374 . S
C62 H53 0.930 . S
C62 C61 1.374 . S
C62 C63 1.383 . S
C63 O57 1.412 . S
C63 C62 1.383 . S
C63 C64 1.394 . S
C64 H54 0.929 . S
C64 C60 1.377 . S
C64 C63 1.394 . S
H65 C72 0.929 . S
H66 C75 0.930 . S
H67 C77 0.929 . S
H68 C69 0.969 . S
C69 H68 0.969 . S
C69 O70 1.550 . S
C69 H71 0.973 . S
O70 C69 1.550 . S
O70 C76 1.412 . S
H71 C69 0.973 . S
C72 H65 0.929 . S
C72 C73 1.400 . S
C72 C74 1.364 . S
C73 C72 1.400 . S
C73 C77 1.377 . S
C74 C72 1.364 . S
C74 C75 1.374 . S
C75 H66 0.930 . S
C75 C74 1.374 . S
C75 C76 1.383 . S
C76 O70 1.412 . S
C76 C75 1.383 . S
C76 C77 1.394 . S
C77 H67 0.929 . S
C77 C73 1.377 . S
C77 C76 1.394 . S
H78 C85 0.929 . S
H79 C88 0.930 . S
H80 C90 0.929 . S
H81 C82 0.969 . S
C82 H81 0.969 . S
C82 O83 1.550 . S
C82 H84 0.973 . S
O83 C82 1.550 . S
O83 C89 1.412 . S
H84 C82 0.973 . S
C85 H78 0.929 . S
C85 C86 1.400 . S
C85 C87 1.364 . S
C86 C85 1.400 . S
C86 C90 1.377 . S
C87 C85 1.364 . S
C87 C88 1.374 . S
C88 H79 0.930 . S
C88 C87 1.374 . S
C88 C89 1.383 . S
C89 O83 1.412 . S
C89 C88 1.383 . S
C89 C90 1.394 . S
C90 H80 0.929 . S
C90 C86 1.377 . S
C90 C89 1.394 . S
H91 C98 0.929 . S
H92 C101 0.930 . S
H93 C103 0.929 . S
H94 C95 0.969 . S
C95 H94 0.969 . S
C95 O96 1.550 . S
C95 H97 0.973 . S
O96 C95 1.550 . S
O96 C102 1.412 . S
H97 C95 0.973 . S
C98 H91 0.929 . S
C98 C99 1.400 . S
C98 C100 1.364 . S
C99 C98 1.400 . S
C99 C103 1.377 . S
C100 C98 1.364 . S
C100 C101 1.374 . S
C101 H92 0.930 . S
C101 C100 1.374 . S
C101 C102 1.383 . S
C102 O96 1.412 . S
C102 C101 1.383 . S
C102 C103 1.394 . S
C103 H93 0.929 . S
C103 C99 1.377 . S
C103 C102 1.394 . S
H104 C111 0.929 . S
H105 C114 0.930 . S
H106 C116 0.929 . S
H107 C108 0.969 . S
C108 H107 0.969 . S
C108 O109 1.550 . S
C108 H110 0.973 . S
O109 C108 1.550 . S
O109 C115 1.412 . S
H110 C108 0.973 . S
C111 H104 0.929 . S
C111 C112 1.400 . S
C111 C113 1.364 . S
C112 C111 1.400 . S
C112 C116 1.377 . S
C113 C111 1.364 . S
C113 C114 1.374 . S
C114 H105 0.930 . S
C114 C113 1.374 . S
C114 C115 1.383 . S
C115 O109 1.412 . S
C115 C114 1.383 . S
C115 C116 1.394 . S
C116 H106 0.929 . S
C116 C112 1.377 . S
C116 C115 1.394 . S
H117 C124 0.929 . S
H118 C127 0.930 . S
H119 C129 0.929 . S
H120 C121 0.969 . S
C121 H120 0.969 . S
C121 O122 1.550 . S
C121 H123 0.973 1_554 S
O122 C121 1.550 . S
O122 C128 1.398 1_554 S
H123 C121 0.973 1_556 S
C124 H117 0.929 . S
C124 C125 1.400 . S
C124 C126 1.364 . S
C125 C124 1.400 . S
C125 C129 1.377 1_556 S
C126 C124 1.364 . S
C126 C127 1.374 . S
C127 H118 0.930 . S
C127 C126 1.374 . S
C127 C128 1.416 . S
C128 O122 1.398 1_556 S
C128 C127 1.416 . S
C128 C129 1.380 1_556 S
C129 H119 0.929 . S
C129 C125 1.377 1_554 S
C129 C128 1.380 1_554 S
H130 C137 0.929 . S
H131 C140 0.930 . S
H132 C142 0.929 . S
H133 C134 0.969 . S
C134 H133 0.969 . S
C134 O135 1.550 . S
C134 H136 0.973 1_554 S
O135 C134 1.550 . S
O135 C141 1.412 . S
H136 C134 0.973 1_556 S
C137 H130 0.929 . S
C137 C138 1.381 1_556 S
C137 C139 1.364 . S
C138 C137 1.381 1_554 S
C138 C142 1.387 . S
C139 C137 1.364 . S
C139 C140 1.374 . S
C140 H131 0.930 . S
C140 C139 1.374 . S
C140 C141 1.383 1_556 S
C141 O135 1.412 . S
C141 C140 1.383 1_554 S
C141 C142 1.394 . S
C142 H132 0.929 . S
C142 C138 1.387 . S
C142 C141 1.394 . S
H143 C150 0.929 . S
H144 C153 0.930 . S
H145 C155 0.929 . S
H146 C147 0.969 . S
C147 H146 0.969 . S
C147 O148 1.550 . S
C147 H149 0.973 1_554 S
O148 C147 1.550 . S
O148 C154 1.412 1_554 S
H149 C147 0.973 1_556 S
C150 H143 0.929 . S
C150 C151 1.400 . S
C150 C152 1.364 . S
C151 C150 1.400 . S
C151 C155 1.377 1_556 S
C152 C150 1.364 . S
C152 C153 1.374 . S
C153 H144 0.930 . S
C153 C152 1.374 . S
C153 C154 1.383 . S
C154 O148 1.412 1_556 S
C154 C153 1.383 . S
C154 C155 1.394 1_556 S
C155 H145 0.929 . S
C155 C151 1.377 1_554 S
C155 C154 1.394 1_554 S
H156 C163 0.929 . S
H157 C166 0.930 . S
H158 C168 0.929 1_556 S
H159 C160 0.969 . S
C160 H159 0.969 . S
C160 O161 1.550 . S
C160 H162 0.973 . S
O161 C160 1.550 . S
O161 C167 1.412 . S
H162 C160 0.973 . S
C163 H156 0.929 . S
C163 C164 1.400 . S
C163 C165 1.364 . S
C164 C163 1.400 . S
C164 C168 1.377 . S
C165 C163 1.364 . S
C165 C166 1.374 . S
C166 H157 0.930 . S
C166 C165 1.374 . S
C166 C167 1.383 . S
C167 O161 1.412 . S
C167 C166 1.383 . S
C167 C168 1.394 . S
C168 H158 0.929 1_554 S
C168 C164 1.377 . S
C168 C167 1.394 . S
H169 C176 0.929 . S
H170 C179 0.930 . S
H171 C181 0.929 1_556 S
H172 C173 0.969 . S
C173 H172 0.969 . S
C173 O174 1.550 . S
C173 H175 0.973 . S
O174 C173 1.550 . S
O174 C180 1.412 . S
H175 C173 0.973 . S
C176 H169 0.929 . S
C176 C177 1.400 . S
C176 C178 1.364 . S
C177 C176 1.400 . S
C177 C181 1.377 . S
C178 C176 1.364 . S
C178 C179 1.374 . S
C179 H170 0.930 . S
C179 C178 1.374 . S
C179 C180 1.383 . S
C180 O174 1.412 . S
C180 C179 1.383 . S
C180 C181 1.394 . S
C181 H171 0.929 1_554 S
C181 C177 1.377 . S
C181 C180 1.394 . S
H182 C189 0.929 . S
H183 C192 0.930 . S
H184 C194 0.929 . S
H185 C186 0.969 . S
C186 H185 0.969 . S
C186 O187 1.550 . S
C186 H188 0.973 . S
O187 C186 1.550 . S
O187 C193 1.412 . S
H188 C186 0.973 . S
C189 H182 0.929 . S
C189 C190 1.400 . S
C189 C191 1.364 . S
C190 C189 1.400 . S
C190 C194 1.377 . S
C191 C189 1.364 . S
C191 C192 1.374 . S
C192 H183 0.930 . S
C192 C191 1.374 . S
C192 C193 1.383 . S
C193 O187 1.412 . S
C193 C192 1.383 . S
C193 C194 1.394 . S
C194 H184 0.929 . S
C194 C190 1.377 . S
C194 C193 1.394 . S
H195 C202 0.929 . S
H196 C205 0.930 . S
H197 C207 0.929 . S
H198 C199 0.969 . S
C199 H198 0.969 . S
C199 O200 1.550 . S
C199 H201 0.973 . S
O200 C199 1.550 . S
O200 C206 1.412 . S
H201 C199 0.973 . S
C202 H195 0.929 . S
C202 C203 1.400 . S
C202 C204 1.364 . S
C203 C202 1.400 . S
C203 C207 1.377 . S
C204 C202 1.364 . S
C204 C205 1.374 . S
C205 H196 0.930 . S
C205 C204 1.374 . S
C205 C206 1.383 . S
C206 O200 1.412 . S
C206 C205 1.383 . S
C206 C207 1.394 . S
C207 H197 0.929 . S
C207 C203 1.377 . S
C207 C206 1.394 . S
H208 C215 0.929 . S
H209 C218 0.930 . S
H210 C220 0.929 . S
H211 C212 0.969 . S
C212 H211 0.969 . S
C212 O213 1.550 . S
C212 H214 0.973 . S
O213 C212 1.550 . S
O213 C219 1.412 . S
H214 C212 0.973 . S
C215 H208 0.929 . S
C215 C216 1.400 . S
C215 C217 1.364 . S
C216 C215 1.400 . S
C216 C220 1.377 . S
C217 C215 1.364 . S
C217 C218 1.374 . S
C218 H209 0.930 . S
C218 C217 1.374 . S
C218 C219 1.383 . S
C219 O213 1.412 . S
C219 C218 1.383 . S
C219 C220 1.394 . S
C220 H210 0.929 . S
C220 C216 1.377 . S
C220 C219 1.394 . S
H221 C228 0.929 . S
H222 C231 0.930 . S
H223 C233 0.929 . S
H224 C225 0.969 . S
C225 H224 0.969 . S
C225 O226 1.550 . S
C225 H227 0.973 . S
O226 C225 1.550 . S
O226 C232 1.412 . S
H227 C225 0.973 . S
C228 H221 0.929 . S
C228 C229 1.400 . S
C228 C230 1.364 . S
C229 C228 1.400 . S
C229 C233 1.377 . S
C230 C228 1.364 . S
C230 C231 1.374 . S
C231 H222 0.930 . S
C231 C230 1.374 . S
C231 C232 1.383 . S
C232 O226 1.412 . S
C232 C231 1.383 . S
C232 C233 1.394 . S
C233 H223 0.929 . S
C233 C229 1.377 . S
C233 C232 1.394 . S
O234 Mg235 1.990 . S
O234 C248 1.253 . S
Mg235 O234 1.990 . S
Mg235 O238 2.180 1_546 S
Mg235 O239 2.117 1_545 S
Mg235 O253 2.030 . S
O236 Mg237 2.072 1_556 S
O236 C248 1.260 . S
Mg237 O236 2.072 1_554 S
Mg237 O238 2.099 1_545 S
Mg237 O240 2.079 . S
Mg237 O241 2.072 1_545 S
Mg237 O243 2.099 . S
Mg237 O254 2.079 . S
O238 Mg235 2.180 1_564 S
O238 Mg237 2.099 1_565 S
O238 C249 1.279 1_554 S
O239 Mg235 2.117 1_565 S
O239 C249 1.250 . S
O240 Mg237 2.079 . S
O240 C250 1.264 1_545 S
O241 Mg237 2.072 1_565 S
O241 C251 1.260 . S
Mg242 O243 2.180 . S
Mg242 O244 2.030 1_545 S
Mg242 O245 1.990 1_545 S
Mg242 O246 2.117 . S
O243 Mg237 2.099 . S
O243 Mg242 2.180 . S
O243 C252 1.279 . S
O244 Mg242 2.030 1_565 S
O244 C250 1.248 . S
O245 Mg242 1.990 1_565 S
O245 C251 1.253 . S
O246 Mg242 2.117 . S
O246 C252 1.250 . S
C247 O253 1.248 1_554 S
C247 O254 1.264 . S
C248 O234 1.253 . S
C248 O236 1.260 . S
C249 O238 1.279 1_556 S
C249 O239 1.250 . S
C250 O240 1.264 1_565 S
C250 O244 1.248 . S
C251 O241 1.260 . S
C251 O245 1.253 . S
C252 O243 1.279 . S
C252 O246 1.250 . S
O253 Mg235 2.030 . S
O253 C247 1.248 1_556 S
O254 Mg237 2.079 . S
O254 C247 1.264 . S
O255 Mg256 1.990 . S
O255 C269 1.253 1_455 S
Mg256 O255 1.990 . S
Mg256 O259 2.180 1_556 S
Mg256 O260 2.117 . S
Mg256 O274 2.030 1_455 S
O257 Mg258 2.072 1_656 S
O257 C269 1.260 . S
Mg258 O257 2.072 1_454 S
Mg258 O259 2.099 . S
Mg258 O261 2.079 . S
Mg258 O262 2.072 . S
Mg258 O264 2.099 1_455 S
Mg258 O275 2.079 1_455 S
O259 Mg256 2.180 1_554 S
O259 Mg258 2.099 . S
O259 C270 1.271 1_554 S
O260 Mg256 2.117 . S
O260 C270 1.271 . S
O261 Mg258 2.079 . S
O261 C271 1.264 . S
O262 Mg258 2.072 . S
O262 C272 1.260 . S
Mg263 O264 2.180 1_455 S
Mg263 O265 2.030 . S
Mg263 O266 1.990 . S
Mg263 O267 2.117 1_455 S
O264 Mg258 2.099 1_655 S
O264 Mg263 2.180 1_655 S
O264 C273 1.279 . S
O265 Mg263 2.030 . S
O265 C271 1.248 . S
O266 Mg263 1.990 . S
O266 C272 1.253 . S
O267 Mg263 2.117 1_655 S
O267 C273 1.250 . S
C268 O274 1.248 1_554 S
C268 O275 1.264 . S
C269 O255 1.253 1_655 S
C269 O257 1.260 . S
C270 O259 1.271 1_556 S
C270 O260 1.271 . S
C271 O261 1.264 . S
C271 O265 1.248 . S
C272 O262 1.260 . S
C272 O266 1.253 . S
C273 O264 1.279 . S
C273 O267 1.250 . S
O274 Mg256 2.030 1_655 S
O274 C268 1.248 1_556 S
O275 Mg258 2.079 1_655 S
O275 C268 1.264 . S
O276 Mg277 1.990 . S
O276 C290 1.253 . S
Mg277 O276 1.990 . S
Mg277 O280 2.180 . S
Mg277 O281 2.117 . S
Mg277 O295 2.030 . S
O278 Mg279 2.072 . S
O278 C290 1.260 . S
Mg279 O278 2.072 . S
Mg279 O280 2.099 . S
Mg279 O282 2.079 1_554 S
Mg279 O283 2.072 . S
Mg279 O285 2.099 1_554 S
Mg279 O296 2.079 . S
O280 Mg277 2.180 . S
O280 Mg279 2.099 . S
O280 C291 1.279 . S
O281 Mg277 2.117 . S
O281 C291 1.250 . S
O282 Mg279 2.079 1_556 S
O282 C292 1.264 . S
O283 Mg279 2.072 . S
O283 C293 1.260 . S
Mg284 O285 2.180 . S
Mg284 O286 2.030 . S
Mg284 O287 1.990 . S
Mg284 O288 2.133 . S
O285 Mg279 2.099 1_556 S
O285 Mg284 2.180 . S
O285 C294 1.279 1_556 S
O286 Mg284 2.030 . S
O286 C292 1.248 . S
O287 Mg284 1.990 . S
O287 C293 1.253 1_556 S
O288 Mg284 2.133 . S
O288 C294 1.244 1_556 S
C289 O295 1.248 . S
C289 O296 1.264 . S
C290 O276 1.253 . S
C290 O278 1.260 . S
C291 O280 1.279 . S
C291 O281 1.250 . S
C292 O282 1.264 . S
C292 O286 1.248 . S
C293 O283 1.260 . S
C293 O287 1.253 1_554 S
C294 O285 1.279 1_554 S
C294 O288 1.244 1_554 S
O295 Mg277 2.030 . S
O295 C289 1.248 . S
O296 Mg279 2.079 . S
O296 C289 1.264 . S
O297 Mg298 1.990 . S
O297 C311 1.253 . S
Mg298 O297 1.990 . S
Mg298 O301 2.180 . S
Mg298 O302 2.117 . S
Mg298 O316 2.030 . S
O299 Mg300 2.072 . S
O299 C311 1.260 . S
Mg300 O299 2.072 . S
Mg300 O301 2.099 . S
Mg300 O303 2.079 . S
Mg300 O304 2.072 . S
Mg300 O306 2.099 . S
Mg300 O317 2.079 . S
O301 Mg298 2.180 . S
O301 Mg300 2.099 . S
O301 C312 1.279 . S
O302 Mg298 2.117 . S
O302 C312 1.250 . S
O303 Mg300 2.079 . S
O303 C313 1.264 . S
O304 Mg300 2.072 . S
O304 C314 1.260 . S
Mg305 O306 2.180 . S
Mg305 O307 2.030 . S
Mg305 O308 1.990 . S
Mg305 O309 2.117 . S
O306 Mg300 2.099 . S
O306 Mg305 2.180 . S
O306 C315 1.279 . S
O307 Mg305 2.030 . S
O307 C313 1.248 . S
O308 Mg305 1.990 . S
O308 C314 1.253 . S
O309 Mg305 2.117 . S
O309 C315 1.250 . S
C310 O316 1.248 . S
C310 O317 1.264 . S
C311 O297 1.253 . S
C311 O299 1.260 . S
C312 O301 1.279 . S
C312 O302 1.250 . S
C313 O303 1.264 . S
C313 O307 1.248 . S
C314 O304 1.260 . S
C314 O308 1.253 . S
C315 O306 1.279 . S
C315 O309 1.250 . S
O316 Mg298 2.030 . S
O316 C310 1.248 . S
O317 Mg300 2.079 . S
O317 C310 1.264 . S
O318 Mg319 1.990 . S
O318 C332 1.253 . S
Mg319 O318 1.990 . S
Mg319 O322 2.180 . S
Mg319 O323 2.117 . S
Mg319 O337 2.030 . S
O320 Mg321 2.072 . S
O320 C332 1.260 . S
Mg321 O320 2.072 . S
Mg321 O322 2.099 . S
Mg321 O324 2.079 . S
Mg321 O325 2.072 . S
Mg321 O327 2.099 . S
Mg321 O338 2.079 . S
O322 Mg319 2.180 . S
O322 Mg321 2.099 . S
O322 C333 1.279 . S
O323 Mg319 2.117 . S
O323 C333 1.250 . S
O324 Mg321 2.079 . S
O324 C334 1.264 . S
O325 Mg321 2.072 . S
O325 C335 1.260 . S
Mg326 O327 2.180 . S
Mg326 O328 2.030 . S
Mg326 O329 1.990 . S
Mg326 O330 2.117 . S
O327 Mg321 2.099 . S
O327 Mg326 2.180 . S
O327 C336 1.279 . S
O328 Mg326 2.030 . S
O328 C334 1.248 . S
O329 Mg326 1.990 . S
O329 C335 1.253 . S
O330 Mg326 2.117 . S
O330 C336 1.250 . S
C331 O337 1.248 . S
C331 O338 1.264 . S
C332 O318 1.253 . S
C332 O320 1.260 . S
C333 O322 1.279 . S
C333 O323 1.250 . S
C334 O324 1.264 . S
C334 O328 1.248 . S
C335 O325 1.260 . S
C335 O329 1.253 . S
C336 O327 1.279 . S
C336 O330 1.250 . S
O337 Mg319 2.030 . S
O337 C331 1.248 . S
O338 Mg321 2.079 . S
O338 C331 1.264 . S
O339 Mg340 1.990 . S
O339 C353 1.253 . S
Mg340 O339 1.990 . S
Mg340 O343 2.180 . S
Mg340 O344 2.117 . S
Mg340 O358 2.030 . S
O341 Mg342 2.072 . S
O341 C353 1.260 . S
Mg342 O341 2.072 . S
Mg342 O343 2.099 . S
Mg342 O345 2.079 . S
Mg342 O346 2.072 . S
Mg342 O348 2.099 . S
Mg342 O359 2.079 . S
O343 Mg340 2.180 . S
O343 Mg342 2.099 . S
O343 C354 1.279 . S
O344 Mg340 2.117 . S
O344 C354 1.250 . S
O345 Mg342 2.079 . S
O345 C355 1.264 . S
O346 Mg342 2.072 . S
O346 C356 1.260 . S
Mg347 O348 2.180 . S
Mg347 O349 2.030 . S
Mg347 O350 1.990 . S
Mg347 O351 2.117 . S
O348 Mg342 2.099 . S
O348 Mg347 2.180 . S
O348 C357 1.279 . S
O349 Mg347 2.030 . S
O349 C355 1.248 . S
O350 Mg347 1.990 . S
O350 C356 1.253 . S
O351 Mg347 2.117 . S
O351 C357 1.250 . S
C352 O358 1.248 . S
C352 O359 1.264 . S
C353 O339 1.253 . S
C353 O341 1.260 . S
C354 O343 1.279 . S
C354 O344 1.250 . S
C355 O345 1.264 . S
C355 O349 1.248 . S
C356 O346 1.260 . S
C356 O350 1.253 . S
C357 O348 1.279 . S
C357 O351 1.250 . S
O358 Mg340 2.030 . S
O358 C352 1.248 . S
O359 Mg342 2.079 . S
O359 C352 1.264 . S
O360 Mg361 1.990 . S
O360 C374 1.253 . S
Mg361 O360 1.990 . S
Mg361 O364 2.180 . S
Mg361 O365 2.117 . S
Mg361 O379 2.030 . S
O362 Mg363 2.072 . S
O362 C374 1.260 . S
Mg363 O362 2.072 . S
Mg363 O364 2.099 . S
Mg363 O366 2.079 . S
Mg363 O367 2.072 . S
Mg363 O369 2.099 . S
Mg363 O380 2.079 . S
O364 Mg361 2.180 . S
O364 Mg363 2.099 . S
O364 C375 1.279 . S
O365 Mg361 2.117 . S
O365 C375 1.250 . S
O366 Mg363 2.079 . S
O366 C376 1.264 . S
O367 Mg363 2.072 . S
O367 C377 1.260 . S
Mg368 O369 2.180 . S
Mg368 O370 2.030 . S
Mg368 O371 1.990 . S
Mg368 O372 2.117 . S
O369 Mg363 2.099 . S
O369 Mg368 2.180 . S
O369 C378 1.279 . S
O370 Mg368 2.030 . S
O370 C376 1.248 . S
O371 Mg368 1.990 . S
O371 C377 1.253 . S
O372 Mg368 2.117 . S
O372 C378 1.250 . S
C373 O379 1.248 . S
C373 O380 1.264 . S
C374 O360 1.253 . S
C374 O362 1.260 . S
C375 O364 1.279 . S
C375 O365 1.250 . S
C376 O366 1.264 . S
C376 O370 1.248 . S
C377 O367 1.260 . S
C377 O371 1.253 . S
C378 O369 1.279 . S
C378 O372 1.250 . S
O379 Mg361 2.030 . S
O379 C373 1.248 . S
O380 Mg363 2.079 . S
O380 C373 1.264 . S
O381 Mg382 1.990 . S
O381 C395 1.253 . S
Mg382 O381 1.990 . S
Mg382 O385 2.180 . S
Mg382 O386 2.117 . S
Mg382 O400 2.030 . S
O383 Mg384 2.072 . S
O383 C395 1.260 . S
Mg384 O383 2.072 . S
Mg384 O385 2.099 . S
Mg384 O387 2.079 . S
Mg384 O388 2.072 . S
Mg384 O390 2.099 . S
Mg384 O401 2.079 . S
O385 Mg382 2.180 . S
O385 Mg384 2.099 . S
O385 C396 1.279 . S
O386 Mg382 2.117 . S
O386 C396 1.250 . S
O387 Mg384 2.079 . S
O387 C397 1.264 . S
O388 Mg384 2.072 . S
O388 C398 1.260 . S
Mg389 O390 2.180 . S
Mg389 O391 2.030 . S
Mg389 O392 1.990 . S
Mg389 O393 2.117 . S
O390 Mg384 2.099 . S
O390 Mg389 2.180 . S
O390 C399 1.279 . S
O391 Mg389 2.030 . S
O391 C397 1.248 . S
O392 Mg389 1.990 . S
O392 C398 1.253 . S
O393 Mg389 2.117 . S
O393 C399 1.250 . S
C394 O400 1.248 . S
C394 O401 1.264 . S
C395 O381 1.253 . S
C395 O383 1.260 . S
C396 O385 1.279 . S
C396 O386 1.250 . S
C397 O387 1.264 . S
C397 O391 1.248 . S
C398 O388 1.260 . S
C398 O392 1.253 . S
C399 O390 1.279 . S
C399 O393 1.250 . S
O400 Mg382 2.030 . S
O400 C394 1.248 . S
O401 Mg384 2.079 . S
O401 C394 1.264 . S
O402 Mg403 1.990 . S
O402 C416 1.253 . S
Mg403 O402 1.990 . S
Mg403 O406 2.180 . S
Mg403 O407 2.117 . S
Mg403 O421 2.030 . S
O404 Mg405 2.072 . S
O404 C416 1.260 . S
Mg405 O404 2.072 . S
Mg405 O406 2.099 . S
Mg405 O408 2.079 . S
Mg405 O409 2.072 . S
Mg405 O411 2.099 . S
Mg405 O422 2.079 . S
O406 Mg403 2.180 . S
O406 Mg405 2.099 . S
O406 C417 1.279 . S
O407 Mg403 2.117 . S
O407 C417 1.250 . S
O408 Mg405 2.079 . S
O408 C418 1.264 . S
O409 Mg405 2.072 . S
O409 C419 1.260 . S
Mg410 O411 2.180 . S
Mg410 O412 2.030 . S
Mg410 O413 1.990 . S
Mg410 O414 2.117 . S
O411 Mg405 2.099 . S
O411 Mg410 2.180 . S
O411 C420 1.279 . S
O412 Mg410 2.030 . S
O412 C418 1.248 . S
O413 Mg410 1.990 . S
O413 C419 1.253 . S
O414 Mg410 2.117 . S
O414 C420 1.250 . S
C415 O421 1.248 . S
C415 O422 1.264 . S
C416 O402 1.253 . S
C416 O404 1.260 . S
C417 O406 1.279 . S
C417 O407 1.250 . S
C418 O408 1.264 . S
C418 O412 1.248 . S
C419 O409 1.260 . S
C419 O413 1.253 . S
C420 O411 1.279 . S
C420 O414 1.250 . S
O421 Mg403 2.030 . S
O421 C415 1.248 . S
O422 Mg405 2.079 . S
O422 C415 1.264 . S
C423 C424 1.391 . S
C423 C425 1.394 . S
C423 H439 0.924 1_554 S
C424 C423 1.391 . S
C424 C428 1.376 . S
C425 C423 1.394 . S
C425 C426 1.369 . S
C425 C429 1.531 1_554 S
C426 C425 1.369 . S
C426 C427 1.410 . S
C426 C434 1.503 . S
C427 C426 1.410 . S
C427 C428 1.392 . S
C427 C430 1.511 . S
C428 C424 1.376 . S
C428 C427 1.392 . S
C428 H440 0.929 . S
C429 C425 1.531 1_556 S
C429 H441 0.960 1_556 S
C429 H442 0.962 . S
C429 H443 0.960 . S
C430 C427 1.511 . S
C430 H444 0.961 . S
C430 H445 0.961 . S
C430 H446 0.961 . S
C431 C432 1.370 1_556 S
C431 C433 1.363 . S
C431 H447 0.931 . S
C432 C431 1.370 1_554 S
C432 C436 1.408 . S
C433 C431 1.363 . S
C433 C434 1.370 1_556 S
C433 C437 1.524 . S
C434 C426 1.503 . S
C434 C433 1.370 1_554 S
C434 C435 1.403 . S
C435 C434 1.403 . S
C435 C436 1.404 . S
C435 C438 1.539 . S
C436 C432 1.408 . S
C436 C435 1.404 . S
C436 H448 0.930 . S
C437 C433 1.524 . S
C437 H449 0.956 . S
C437 H450 0.961 . S
C437 H451 0.961 . S
C438 C435 1.539 . S
C438 H452 0.958 . S
C438 H453 0.961 . S
C438 H454 0.960 . S
H439 C423 0.924 1_556 S
H440 C428 0.929 . S
H441 C429 0.960 1_554 S
H442 C429 0.962 . S
H443 C429 0.960 . S
H444 C430 0.961 . S
H445 C430 0.961 . S
H446 C430 0.961 . S
H447 C431 0.931 . S
H448 C436 0.930 . S
H449 C437 0.956 . S
H450 C437 0.961 . S
H451 C437 0.961 . S
H452 C438 0.958 . S
H453 C438 0.961 . S
H454 C438 0.960 . S
C455 C456 1.391 . S
C455 C457 1.394 . S
C455 H471 0.931 . S
C456 C455 1.391 . S
C456 C460 1.376 . S
C457 C455 1.394 . S
C457 C458 1.369 . S
C457 C461 1.531 . S
C458 C457 1.369 . S
C458 C459 1.410 . S
C458 C466 1.503 . S
C459 C458 1.410 . S
C459 C460 1.392 . S
C459 C462 1.511 . S
C460 C456 1.376 . S
C460 C459 1.392 . S
C460 H472 0.929 . S
C461 C457 1.531 . S
C461 H473 0.960 . S
C461 H474 0.962 . S
C461 H475 0.960 . S
C462 C459 1.511 . S
C462 H476 0.961 . S
C462 H477 0.961 . S
C462 H478 0.961 . S
C463 C464 1.370 1_556 S
C463 C465 1.363 . S
C463 H479 0.931 . S
C464 C463 1.370 1_554 S
C464 C468 1.408 . S
C465 C463 1.363 . S
C465 C466 1.370 1_556 S
C465 C469 1.524 . S
C466 C458 1.503 . S
C466 C465 1.370 1_554 S
C466 C467 1.403 . S
C467 C466 1.403 . S
C467 C468 1.404 . S
C467 C470 1.539 . S
C468 C464 1.408 . S
C468 C467 1.404 . S
C468 H480 0.930 . S
C469 C465 1.524 . S
C469 H481 0.956 . S
C469 H482 0.961 . S
C469 H483 0.961 . S
C470 C467 1.539 . S
C470 H484 0.958 . S
C470 H485 0.961 . S
C470 H486 0.960 . S
H471 C455 0.931 . S
H472 C460 0.929 . S
H473 C461 0.960 . S
H474 C461 0.962 . S
H475 C461 0.960 . S
H476 C462 0.961 . S
H477 C462 0.961 . S
H478 C462 0.961 . S
H479 C463 0.931 . S
H480 C468 0.930 . S
H481 C469 0.956 . S
H482 C469 0.961 . S
H483 C469 0.961 . S
H484 C470 0.958 . S
H485 C470 0.961 . S
H486 C470 0.960 . S
C487 C488 1.391 . S
C487 C489 1.394 . S
C487 H503 0.931 . S
C488 C487 1.391 . S
C488 C492 1.376 . S
C489 C487 1.394 . S
C489 C490 1.369 . S
C489 C493 1.531 . S
C490 C489 1.369 . S
C490 C491 1.410 . S
C490 C498 1.503 . S
C491 C490 1.410 . S
C491 C492 1.392 . S
C491 C494 1.511 . S
C492 C488 1.376 . S
C492 C491 1.392 . S
C492 H504 0.929 . S
C493 C489 1.531 . S
C493 H505 0.960 . S
C493 H506 0.962 1_554 S
C493 H507 0.960 . S
C494 C491 1.511 . S
C494 H508 0.961 . S
C494 H509 0.961 . S
C494 H510 0.961 . S
C495 C496 1.370 1_556 S
C495 C497 1.363 . S
C495 H511 0.931 . S
C496 C495 1.370 1_554 S
C496 C500 1.408 . S
C497 C495 1.363 . S
C497 C498 1.370 1_556 S
C497 C501 1.524 . S
C498 C490 1.503 . S
C498 C497 1.370 1_554 S
C498 C499 1.403 . S
C499 C498 1.403 . S
C499 C500 1.404 . S
C499 C502 1.539 . S
C500 C496 1.408 . S
C500 C499 1.404 . S
C500 H512 0.930 . S
C501 C497 1.524 . S
C501 H513 0.956 . S
C501 H514 0.961 . S
C501 H515 0.961 . S
C502 C499 1.539 . S
C502 H516 0.958 . S
C502 H517 0.961 . S
C502 H518 0.960 . S
H503 C487 0.931 . S
H504 C492 0.929 . S
H505 C493 0.960 . S
H506 C493 0.962 1_556 S
H507 C493 0.960 . S
H508 C494 0.961 . S
H509 C494 0.961 . S
H510 C494 0.961 . S
H511 C495 0.931 . S
H512 C500 0.930 . S
H513 C501 0.956 . S
H514 C501 0.961 . S
H515 C501 0.961 . S
H516 C502 0.958 . S
H517 C502 0.961 . S
H518 C502 0.960 . S
C519 C520 1.391 . S
C519 C521 1.394 . S
C519 H535 0.931 . S
C520 C519 1.391 . S
C520 C524 1.376 1_554 S
C521 C519 1.394 . S
C521 C522 1.369 . S
C521 C525 1.531 . S
C522 C521 1.369 . S
C522 C523 1.410 1_554 S
C522 C530 1.503 . S
C523 C522 1.410 1_556 S
C523 C524 1.392 . S
C523 C526 1.511 . S
C524 C520 1.376 1_556 S
C524 C523 1.392 . S
C524 H536 0.929 . S
C525 C521 1.531 . S
C525 H537 0.960 . S
C525 H538 0.962 . S
C525 H539 0.960 . S
C526 C523 1.511 . S
C526 H540 0.961 . S
C526 H541 0.961 . S
C526 H542 0.961 . S
C527 C528 1.370 1_556 S
C527 C529 1.363 . S
C527 H543 0.931 . S
C528 C527 1.370 1_554 S
C528 C532 1.408 . S
C529 C527 1.363 . S
C529 C530 1.370 1_556 S
C529 C533 1.524 . S
C530 C522 1.503 . S
C530 C529 1.370 1_554 S
C530 C531 1.403 . S
C531 C530 1.403 . S
C531 C532 1.404 . S
C531 C534 1.539 . S
C532 C528 1.408 . S
C532 C531 1.404 . S
C532 H544 0.930 . S
C533 C529 1.524 . S
C533 H545 0.956 . S
C533 H546 0.961 . S
C533 H547 0.961 . S
C534 C531 1.539 . S
C534 H548 0.958 . S
C534 H549 0.961 . S
C534 H550 0.960 . S
H535 C519 0.931 . S
H536 C524 0.929 . S
H537 C525 0.960 . S
H538 C525 0.962 . S
H539 C525 0.960 . S
H540 C526 0.961 . S
H541 C526 0.961 . S
H542 C526 0.961 . S
H543 C527 0.931 . S
H544 C532 0.930 . S
H545 C533 0.956 . S
H546 C533 0.961 . S
H547 C533 0.961 . S
H548 C534 0.958 . S
H549 C534 0.961 . S
H550 C534 0.960 . S
C551 C552 1.391 . S
C551 C553 1.394 . S
C551 H567 0.931 . S
C552 C551 1.391 . S
C552 C556 1.376 1_554 S
C553 C551 1.394 . S
C553 C554 1.369 . S
C553 C557 1.531 . S
C554 C553 1.369 . S
C554 C555 1.410 1_554 S
C554 C562 1.503 . S
C555 C554 1.410 1_556 S
C555 C556 1.392 . S
C555 C558 1.511 . S
C556 C552 1.376 1_556 S
C556 C555 1.392 . S
C556 H568 0.929 . S
C557 C553 1.531 . S
C557 H569 0.960 . S
C557 H570 0.962 . S
C557 H571 0.960 . S
C558 C555 1.511 . S
C558 H572 0.961 . S
C558 H573 0.961 . S
C558 H574 0.961 . S
C559 C560 1.370 1_556 S
C559 C561 1.363 . S
C559 H575 0.931 . S
C560 C559 1.370 1_554 S
C560 C564 1.408 . S
C561 C559 1.363 . S
C561 C562 1.370 1_556 S
C561 C565 1.524 . S
C562 C554 1.503 . S
C562 C561 1.370 1_554 S
C562 C563 1.403 . S
C563 C562 1.403 . S
C563 C564 1.404 . S
C563 C566 1.539 . S
C564 C560 1.408 . S
C564 C563 1.404 . S
C564 H576 0.930 . S
C565 C561 1.524 . S
C565 H577 0.956 . S
C565 H578 0.961 . S
C565 H579 0.961 . S
C566 C563 1.539 . S
C566 H580 0.958 . S
C566 H581 0.961 . S
C566 H582 0.960 . S
H567 C551 0.931 . S
H568 C556 0.929 . S
H569 C557 0.960 . S
H570 C557 0.962 . S
H571 C557 0.960 . S
H572 C558 0.961 . S
H573 C558 0.961 . S
H574 C558 0.961 . S
H575 C559 0.931 . S
H576 C564 0.930 . S
H577 C565 0.956 . S
H578 C565 0.961 . S
H579 C565 0.961 . S
H580 C566 0.958 . S
H581 C566 0.961 . S
H582 C566 0.960 . S
C583 C584 1.391 . S
C583 C585 1.394 . S
C583 H599 0.931 . S
C584 C583 1.391 . S
C584 C588 1.376 . S
C585 C583 1.394 . S
C585 C586 1.369 . S
C585 C589 1.531 . S
C586 C585 1.369 . S
C586 C587 1.410 . S
C586 C594 1.503 . S
C587 C586 1.410 . S
C587 C588 1.392 . S
C587 C590 1.511 . S
C588 C584 1.376 . S
C588 C587 1.392 . S
C588 H600 0.929 . S
C589 C585 1.531 . S
C589 H601 0.960 . S
C589 H602 0.962 1_554 S
C589 H603 0.960 . S
C590 C587 1.511 . S
C590 H604 0.961 . S
C590 H605 0.961 . S
C590 H606 0.961 . S
C591 C592 1.370 1_556 S
C591 C593 1.363 . S
C591 H607 0.931 . S
C592 C591 1.370 1_554 S
C592 C596 1.408 . S
C593 C591 1.363 . S
C593 C594 1.370 1_556 S
C593 C597 1.524 . S
C594 C586 1.503 . S
C594 C593 1.370 1_554 S
C594 C595 1.403 . S
C595 C594 1.403 . S
C595 C596 1.404 . S
C595 C598 1.539 . S
C596 C592 1.408 . S
C596 C595 1.404 . S
C596 H608 0.930 . S
C597 C593 1.524 . S
C597 H609 0.956 . S
C597 H610 0.961 . S
C597 H611 0.961 . S
C598 C595 1.539 . S
C598 H612 0.958 . S
C598 H613 0.961 . S
C598 H614 0.960 . S
H599 C583 0.931 . S
H600 C588 0.929 . S
H601 C589 0.960 . S
H602 C589 0.962 1_556 S
H603 C589 0.960 . S
H604 C590 0.961 . S
H605 C590 0.961 . S
H606 C590 0.961 . S
H607 C591 0.931 . S
H608 C596 0.930 . S
H609 C597 0.956 . S
H610 C597 0.961 . S
H611 C597 0.961 . S
H612 C598 0.958 . S
H613 C598 0.961 . S
H614 C598 0.960 . S
C615 C616 1.391 . S
C615 C617 1.394 . S
C615 H631 0.931 . S
C616 C615 1.391 . S
C616 C620 1.376 . S
C617 C615 1.394 . S
C617 C618 1.369 . S
C617 C621 1.531 . S
C618 C617 1.369 . S
C618 C619 1.410 . S
C618 C626 1.503 . S
C619 C618 1.410 . S
C619 C620 1.392 . S
C619 C622 1.514 . S
C620 C616 1.376 . S
C620 C619 1.392 . S
C620 H632 0.916 1_554 S
C621 C617 1.531 . S
C621 H633 0.960 . S
C621 H634 0.962 . S
C621 H635 0.960 . S
C622 C619 1.514 . S
C622 H636 0.951 1_554 S
C622 H637 0.956 1_554 S
C622 H638 0.972 . S
C623 C624 1.370 1_556 S
C623 C625 1.363 . S
C623 H639 0.931 . S
C624 C623 1.370 1_554 S
C624 C628 1.408 . S
C625 C623 1.363 . S
C625 C626 1.370 1_556 S
C625 C629 1.524 . S
C626 C618 1.503 . S
C626 C625 1.370 1_554 S
C626 C627 1.403 . S
C627 C626 1.403 . S
C627 C628 1.404 . S
C627 C630 1.539 . S
C628 C624 1.408 . S
C628 C627 1.404 . S
C628 H640 0.930 . S
C629 C625 1.524 . S
C629 H641 0.956 . S
C629 H642 0.961 . S
C629 H643 0.961 . S
C630 C627 1.539 . S
C630 H644 0.958 . S
C630 H645 0.961 . S
C630 H646 0.960 . S
H631 C615 0.931 . S
H632 C620 0.916 1_556 S
H633 C621 0.960 . S
H634 C621 0.962 . S
H635 C621 0.960 . S
H636 C622 0.951 1_556 S
H637 C622 0.956 1_556 S
H638 C622 0.972 . S
H639 C623 0.931 . S
H640 C628 0.930 . S
H641 C629 0.956 . S
H642 C629 0.961 . S
H643 C629 0.961 . S
H644 C630 0.958 . S
H645 C630 0.961 . S
H646 C630 0.960 . S
C647 C648 1.404 . S
C647 C649 1.392 1_554 S
C647 H663 0.922 1_554 S
C648 C647 1.404 . S
C648 C652 1.376 . S
C649 C647 1.392 1_556 S
C649 C650 1.369 1_556 S
C649 C653 1.531 . S
C650 C649 1.369 1_554 S
C650 C651 1.410 . S
C650 C658 1.503 . S
C651 C650 1.410 . S
C651 C652 1.392 . S
C651 C654 1.511 . S
C652 C648 1.376 . S
C652 C651 1.392 . S
C652 H664 0.929 . S
C653 C649 1.531 . S
C653 H665 0.960 . S
C653 H666 0.962 1_556 S
C653 H667 0.960 . S
C654 C651 1.511 . S
C654 H668 0.961 . S
C654 H669 0.961 . S
C654 H670 0.961 . S
C655 C656 1.370 . S
C655 C657 1.363 . S
C655 H671 0.931 . S
C656 C655 1.370 . S
C656 C660 1.408 1_554 S
C657 C655 1.363 . S
C657 C658 1.370 . S
C657 C661 1.524 . S
C658 C650 1.503 . S
C658 C657 1.370 . S
C658 C659 1.403 1_554 S
C659 C658 1.403 1_556 S
C659 C660 1.404 . S
C659 C662 1.539 . S
C660 C656 1.408 1_556 S
C660 C659 1.404 . S
C660 H672 0.930 . S
C661 C657 1.524 . S
C661 H673 0.956 . S
C661 H674 0.961 . S
C661 H675 0.961 . S
C662 C659 1.539 . S
C662 H676 0.958 . S
C662 H677 0.961 . S
C662 H678 0.960 . S
H663 C647 0.922 1_556 S
H664 C652 0.929 . S
H665 C653 0.960 . S
H666 C653 0.962 1_554 S
H667 C653 0.960 . S
H668 C654 0.961 . S
H669 C654 0.961 . S
H670 C654 0.961 . S
H671 C655 0.931 . S
H672 C660 0.930 . S
H673 C661 0.956 . S
H674 C661 0.961 . S
H675 C661 0.961 . S
H676 C662 0.958 . S
H677 C662 0.961 . S
H678 C662 0.960 . S
C679 C680 1.391 . S
C679 C681 1.394 . S
C679 H695 0.931 . S
C680 C679 1.391 . S
C680 C684 1.376 . S
C681 C679 1.394 . S
C681 C682 1.369 . S
C681 C685 1.531 . S
C682 C681 1.369 . S
C682 C683 1.410 . S
C682 C690 1.503 . S
C683 C682 1.410 . S
C683 C684 1.392 . S
C683 C686 1.520 . S
C684 C680 1.376 . S
C684 C683 1.392 . S
C684 H696 0.929 . S
C685 C681 1.531 . S
C685 H697 0.960 . S
C685 H698 0.962 . S
C685 H699 0.960 . S
C686 C683 1.520 . S
C686 H700 0.942 1_554 S
C686 H701 0.951 1_554 S
C686 H702 0.980 . S
C687 C688 1.370 1_556 S
C687 C689 1.363 . S
C687 H703 0.931 . S
C688 C687 1.370 1_554 S
C688 C692 1.408 . S
C689 C687 1.363 . S
C689 C690 1.370 1_556 S
C689 C693 1.524 . S
C690 C682 1.503 . S
C690 C689 1.370 1_554 S
C690 C691 1.403 . S
C691 C690 1.403 . S
C691 C692 1.404 . S
C691 C694 1.539 . S
C692 C688 1.408 . S
C692 C691 1.404 . S
C692 H704 0.930 . S
C693 C689 1.524 . S
C693 H705 0.956 . S
C693 H706 0.961 . S
C693 H707 0.961 . S
C694 C691 1.539 . S
C694 H708 0.958 . S
C694 H709 0.961 . S
C694 H710 0.960 . S
H695 C679 0.931 . S
H696 C684 0.929 . S
H697 C685 0.960 . S
H698 C685 0.962 . S
H699 C685 0.960 . S
H700 C686 0.942 1_556 S
H701 C686 0.951 1_556 S
H702 C686 0.980 . S
H703 C687 0.931 . S
H704 C692 0.930 . S
H705 C693 0.956 . S
H706 C693 0.961 . S
H707 C693 0.961 . S
H708 C694 0.958 . S
H709 C694 0.961 . S
H710 C694 0.960 . S
C711 C712 1.391 . S
C711 C713 1.394 . S
C711 H727 0.931 . S
C712 C711 1.391 . S
C712 C716 1.376 1_554 S
C713 C711 1.394 . S
C713 C714 1.369 . S
C713 C717 1.531 . S
C714 C713 1.369 . S
C714 C715 1.410 1_554 S
C714 C722 1.503 . S
C715 C714 1.410 1_556 S
C715 C716 1.392 . S
C715 C718 1.511 . S
C716 C712 1.376 1_556 S
C716 C715 1.392 . S
C716 H728 0.929 . S
C717 C713 1.531 . S
C717 H729 0.960 . S
C717 H730 0.962 . S
C717 H731 0.960 . S
C718 C715 1.511 . S
C718 H732 0.961 . S
C718 H733 0.961 . S
C718 H734 0.961 . S
C719 C720 1.370 1_556 S
C719 C721 1.363 . S
C719 H735 0.931 . S
C720 C719 1.370 1_554 S
C720 C724 1.408 . S
C721 C719 1.363 . S
C721 C722 1.370 1_556 S
C721 C725 1.524 . S
C722 C714 1.503 . S
C722 C721 1.370 1_554 S
C722 C723 1.403 . S
C723 C722 1.403 . S
C723 C724 1.404 . S
C723 C726 1.539 . S
C724 C720 1.408 . S
C724 C723 1.404 . S
C724 H736 0.930 . S
C725 C721 1.524 . S
C725 H737 0.956 . S
C725 H738 0.961 . S
C725 H739 0.961 . S
C726 C723 1.539 . S
C726 H740 0.958 . S
C726 H741 0.961 . S
C726 H742 0.960 . S
H727 C711 0.931 . S
H728 C716 0.929 . S
H729 C717 0.960 . S
H730 C717 0.962 . S
H731 C717 0.960 . S
H732 C718 0.961 . S
H733 C718 0.961 . S
H734 C718 0.961 . S
H735 C719 0.931 . S
H736 C724 0.930 . S
H737 C725 0.956 . S
H738 C725 0.961 . S
H739 C725 0.961 . S
H740 C726 0.958 . S
H741 C726 0.961 . S
H742 C726 0.960 . S
C743 C744 1.391 1_556 S
C743 C745 1.394 . S
C743 H759 0.931 . S
C744 C743 1.391 1_554 S
C744 C748 1.376 . S
C745 C743 1.394 . S
C745 C746 1.369 1_556 S
C745 C749 1.531 . S
C746 C745 1.369 1_554 S
C746 C747 1.410 . S
C746 C754 1.503 . S
C747 C746 1.410 . S
C747 C748 1.392 . S
C747 C750 1.511 . S
C748 C744 1.376 . S
C748 C747 1.392 . S
C748 H760 0.929 . S
C749 C745 1.531 . S
C749 H761 0.960 . S
C749 H762 0.962 . S
C749 H763 0.960 . S
C750 C747 1.511 . S
C750 H764 0.961 . S
C750 H765 0.961 . S
C750 H766 0.961 . S
C751 C752 1.370 . S
C751 C753 1.363 . S
C751 H767 0.931 . S
C752 C751 1.370 . S
C752 C756 1.408 1_554 S
C753 C751 1.363 . S
C753 C754 1.370 . S
C753 C757 1.524 . S
C754 C746 1.503 . S
C754 C753 1.370 . S
C754 C755 1.403 1_554 S
C755 C754 1.403 1_556 S
C755 C756 1.404 . S
C755 C758 1.539 . S
C756 C752 1.408 1_556 S
C756 C755 1.404 . S
C756 H768 0.930 . S
C757 C753 1.524 . S
C757 H769 0.956 . S
C757 H770 0.961 . S
C757 H771 0.961 . S
C758 C755 1.539 . S
C758 H772 0.958 . S
C758 H773 0.961 . S
C758 H774 0.960 . S
H759 C743 0.931 . S
H760 C748 0.929 . S
H761 C749 0.960 . S
H762 C749 0.962 . S
H763 C749 0.960 . S
H764 C750 0.961 . S
H765 C750 0.961 . S
H766 C750 0.961 . S
H767 C751 0.931 . S
H768 C756 0.930 . S
H769 C757 0.956 . S
H770 C757 0.961 . S
H771 C757 0.961 . S
H772 C758 0.958 . S
H773 C758 0.961 . S
H774 C758 0.960 . S
C775 C776 1.391 . S
C775 C777 1.394 . S
C775 H791 0.931 . S
C776 C775 1.391 . S
C776 C780 1.376 . S
C777 C775 1.394 . S
C777 C778 1.369 . S
C777 C781 1.531 . S
C778 C777 1.369 . S
C778 C779 1.410 . S
C778 C786 1.503 . S
C779 C778 1.410 . S
C779 C780 1.392 . S
C779 C782 1.511 1_554 S
C780 C776 1.376 . S
C780 C779 1.392 . S
C780 H792 0.929 1_554 S
C781 C777 1.531 . S
C781 H793 0.960 . S
C781 H794 0.962 . S
C781 H795 0.960 . S
C782 C779 1.511 1_556 S
C782 H796 0.961 . S
C782 H797 0.961 . S
C782 H798 0.961 1_556 S
C783 C784 1.370 1_556 S
C783 C785 1.363 . S
C783 H799 0.931 . S
C784 C783 1.370 1_554 S
C784 C788 1.408 . S
C785 C783 1.363 . S
C785 C786 1.370 1_556 S
C785 C789 1.524 . S
C786 C778 1.503 . S
C786 C785 1.370 1_554 S
C786 C787 1.403 . S
C787 C786 1.403 . S
C787 C788 1.404 . S
C787 C790 1.539 . S
C788 C784 1.408 . S
C788 C787 1.404 . S
C788 H800 0.930 . S
C789 C785 1.524 . S
C789 H801 0.956 . S
C789 H802 0.961 . S
C789 H803 0.961 . S
C790 C787 1.539 . S
C790 H804 0.958 . S
C790 H805 0.961 . S
C790 H806 0.960 . S
H791 C775 0.931 . S
H792 C780 0.929 1_556 S
H793 C781 0.960 . S
H794 C781 0.962 . S
H795 C781 0.960 . S
H796 C782 0.961 . S
H797 C782 0.961 . S
H798 C782 0.961 1_554 S
H799 C783 0.931 . S
H800 C788 0.930 . S
H801 C789 0.956 . S
H802 C789 0.961 . S
H803 C789 0.961 . S
H804 C790 0.958 . S
H805 C790 0.961 . S
H806 C790 0.960 . S
C807 C808 1.391 . S
C807 C809 1.394 . S
C807 H823 0.931 . S
C808 C807 1.391 . S
C808 C812 1.376 . S
C809 C807 1.394 . S
C809 C810 1.369 . S
C809 C813 1.531 1_655 S
C810 C809 1.369 . S
C810 C811 1.410 . S
C810 C818 1.503 1_655 S
C811 C810 1.410 . S
C811 C812 1.392 . S
C811 C814 1.511 . S
C812 C808 1.376 . S
C812 C811 1.392 . S
C812 H824 0.929 . S
C813 C809 1.531 1_455 S
C813 H825 0.960 . S
C813 H826 0.962 . S
C813 H827 0.960 . S
C814 C811 1.511 . S
C814 H828 0.961 . S
C814 H829 0.961 . S
C814 H830 0.961 . S
C815 C816 1.370 . S
C815 C817 1.363 . S
C815 H831 0.931 . S
C816 C815 1.370 . S
C816 C820 1.408 . S
C817 C815 1.363 . S
C817 C818 1.370 . S
C817 C821 1.524 . S
C818 C810 1.503 1_455 S
C818 C817 1.370 . S
C818 C819 1.403 . S
C819 C818 1.403 . S
C819 C820 1.404 . S
C819 C822 1.539 . S
C820 C816 1.408 . S
C820 C819 1.404 . S
C820 H832 0.930 . S
C821 C817 1.524 . S
C821 H833 0.956 . S
C821 H834 0.961 . S
C821 H835 0.961 . S
C822 C819 1.539 . S
C822 H836 0.958 . S
C822 H837 0.961 . S
C822 H838 0.961 1_455 S
H823 C807 0.931 . S
H824 C812 0.929 . S
H825 C813 0.960 . S
H826 C813 0.962 . S
H827 C813 0.960 . S
H828 C814 0.961 . S
H829 C814 0.961 . S
H830 C814 0.961 . S
H831 C815 0.931 . S
H832 C820 0.930 . S
H833 C821 0.956 . S
H834 C821 0.961 . S
H835 C821 0.961 . S
H836 C822 0.958 . S
H837 C822 0.961 . S
H838 C822 0.961 1_655 S
C839 C840 1.391 . S
C839 C841 1.394 . S
C839 H855 0.931 . S
C840 C839 1.391 . S
C840 C844 1.376 . S
C841 C839 1.394 . S
C841 C842 1.369 . S
C841 C845 1.531 . S
C842 C841 1.369 . S
C842 C843 1.410 . S
C842 C850 1.503 . S
C843 C842 1.410 . S
C843 C844 1.392 . S
C843 C846 1.511 . S
C844 C840 1.376 . S
C844 C843 1.392 . S
C844 H856 0.929 . S
C845 C841 1.531 . S
C845 H857 0.960 . S
C845 H858 0.962 . S
C845 H859 0.960 . S
C846 C843 1.511 . S
C846 H860 0.961 . S
C846 H861 0.961 . S
C846 H862 0.961 . S
C847 C848 1.370 . S
C847 C849 1.363 . S
C847 H863 0.931 . S
C848 C847 1.370 . S
C848 C852 1.408 . S
C849 C847 1.363 . S
C849 C850 1.370 . S
C849 C853 1.524 . S
C850 C842 1.503 . S
C850 C849 1.370 . S
C850 C851 1.403 . S
C851 C850 1.403 . S
C851 C852 1.404 . S
C851 C854 1.539 . S
C852 C848 1.408 . S
C852 C851 1.404 . S
C852 H864 0.930 . S
C853 C849 1.524 . S
C853 H865 0.956 . S
C853 H866 0.961 . S
C853 H867 0.961 . S
C854 C851 1.539 . S
C854 H868 0.958 . S
C854 H869 0.961 . S
C854 H870 0.960 . S
H855 C839 0.931 . S
H856 C844 0.929 . S
H857 C845 0.960 . S
H858 C845 0.962 . S
H859 C845 0.960 . S
H860 C846 0.961 . S
H861 C846 0.961 . S
H862 C846 0.961 . S
H863 C847 0.931 . S
H864 C852 0.930 . S
H865 C853 0.956 . S
H866 C853 0.961 . S
H867 C853 0.961 . S
H868 C854 0.958 . S
H869 C854 0.961 . S
H870 C854 0.960 . S
C871 C872 1.391 . S
C871 C873 1.394 . S
C871 H887 0.931 . S
C872 C871 1.391 . S
C872 C876 1.376 . S
C873 C871 1.394 . S
C873 C874 1.369 . S
C873 C877 1.531 . S
C874 C873 1.369 . S
C874 C875 1.410 . S
C874 C882 1.503 1_545 S
C875 C874 1.410 . S
C875 C876 1.392 . S
C875 C878 1.511 . S
C876 C872 1.376 . S
C876 C875 1.392 . S
C876 H888 0.929 . S
C877 C873 1.531 . S
C877 H889 0.960 . S
C877 H890 0.962 . S
C877 H891 0.960 . S
C878 C875 1.511 . S
C878 H892 0.961 . S
C878 H893 0.961 . S
C878 H894 0.961 . S
C879 C880 1.370 . S
C879 C881 1.363 . S
C879 H895 0.931 . S
C880 C879 1.370 . S
C880 C884 1.408 . S
C881 C879 1.363 . S
C881 C882 1.370 . S
C881 C885 1.524 . S
C882 C874 1.503 1_565 S
C882 C881 1.370 . S
C882 C883 1.403 . S
C883 C882 1.403 . S
C883 C884 1.404 . S
C883 C886 1.539 1_565 S
C884 C880 1.408 . S
C884 C883 1.404 . S
C884 H896 0.930 . S
C885 C881 1.524 . S
C885 H897 0.956 . S
C885 H898 0.961 . S
C885 H899 0.961 . S
C886 C883 1.539 1_545 S
C886 H900 0.958 . S
C886 H901 0.961 . S
C886 H902 0.960 . S
H887 C871 0.931 . S
H888 C876 0.929 . S
H889 C877 0.960 . S
H890 C877 0.962 . S
H891 C877 0.960 . S
H892 C878 0.961 . S
H893 C878 0.961 . S
H894 C878 0.961 . S
H895 C879 0.931 . S
H896 C884 0.930 . S
H897 C885 0.956 . S
H898 C885 0.961 . S
H899 C885 0.961 . S
H900 C886 0.958 . S
H901 C886 0.961 . S
H902 C886 0.960 . S
C903 C904 1.391 . S
C903 C905 1.394 . S
C903 H919 0.931 . S
C904 C903 1.391 . S
C904 C908 1.376 . S
C905 C903 1.394 . S
C905 C906 1.369 . S
C905 C909 1.531 . S
C906 C905 1.369 . S
C906 C907 1.410 . S
C906 C914 1.503 . S
C907 C906 1.410 . S
C907 C908 1.392 . S
C907 C910 1.511 . S
C908 C904 1.376 . S
C908 C907 1.392 . S
C908 H920 0.929 . S
C909 C905 1.531 . S
C909 H921 0.960 . S
C909 H922 0.962 . S
C909 H923 0.960 . S
C910 C907 1.511 . S
C910 H924 0.961 . S
C910 H925 0.961 . S
C910 H926 0.961 . S
C911 C912 1.370 . S
C911 C913 1.363 . S
C911 H927 0.931 . S
C912 C911 1.370 . S
C912 C916 1.408 . S
C913 C911 1.363 . S
C913 C914 1.370 . S
C913 C917 1.524 . S
C914 C906 1.503 . S
C914 C913 1.370 . S
C914 C915 1.403 . S
C915 C914 1.403 . S
C915 C916 1.404 . S
C915 C918 1.539 . S
C916 C912 1.408 . S
C916 C915 1.404 . S
C916 H928 0.930 . S
C917 C913 1.524 . S
C917 H929 0.956 . S
C917 H930 0.961 . S
C917 H931 0.961 . S
C918 C915 1.539 . S
C918 H932 0.958 . S
C918 H933 0.961 . S
C918 H934 0.960 . S
H919 C903 0.931 . S
H920 C908 0.929 . S
H921 C909 0.960 . S
H922 C909 0.962 . S
H923 C909 0.960 . S
H924 C910 0.961 . S
H925 C910 0.961 . S
H926 C910 0.961 . S
H927 C911 0.931 . S
H928 C916 0.930 . S
H929 C917 0.956 . S
H930 C917 0.961 . S
H931 C917 0.961 . S
H932 C918 0.958 . S
H933 C918 0.961 . S
H934 C918 0.960 . S
C935 C936 1.391 . S
C935 C937 1.394 . S
C935 H951 0.931 . S
C936 C935 1.391 . S
C936 C940 1.376 . S
C937 C935 1.394 . S
C937 C938 1.369 . S
C937 C941 1.531 . S
C938 C937 1.369 . S
C938 C939 1.410 . S
C938 C946 1.503 . S
C939 C938 1.410 . S
C939 C940 1.392 . S
C939 C942 1.511 . S
C940 C936 1.376 . S
C940 C939 1.392 . S
C940 H952 0.929 . S
C941 C937 1.531 . S
C941 H953 0.960 . S
C941 H954 0.962 . S
C941 H955 0.960 . S
C942 C939 1.511 . S
C942 H956 0.961 . S
C942 H957 0.961 . S
C942 H958 0.961 . S
C943 C944 1.370 . S
C943 C945 1.363 . S
C943 H959 0.931 . S
C944 C943 1.370 . S
C944 C948 1.408 . S
C945 C943 1.363 . S
C945 C946 1.370 . S
C945 C949 1.524 . S
C946 C938 1.503 . S
C946 C945 1.370 . S
C946 C947 1.403 . S
C947 C946 1.403 . S
C947 C948 1.404 . S
C947 C950 1.539 . S
C948 C944 1.408 . S
C948 C947 1.404 . S
C948 H960 0.930 . S
C949 C945 1.524 . S
C949 H961 0.956 . S
C949 H962 0.961 . S
C949 H963 0.961 . S
C950 C947 1.539 . S
C950 H964 0.958 . S
C950 H965 0.961 . S
C950 H966 0.960 . S
H951 C935 0.931 . S
H952 C940 0.929 . S
H953 C941 0.960 . S
H954 C941 0.962 . S
H955 C941 0.960 . S
H956 C942 0.961 . S
H957 C942 0.961 . S
H958 C942 0.961 . S
H959 C943 0.931 . S
H960 C948 0.930 . S
H961 C949 0.956 . S
H962 C949 0.961 . S
H963 C949 0.961 . S
H964 C950 0.958 . S
H965 C950 0.961 . S
H966 C950 0.960 . S
C967 C968 1.391 . S
C967 C969 1.394 . S
C967 H983 0.931 . S
C968 C967 1.391 . S
C968 C972 1.376 . S
C969 C967 1.394 . S
C969 C970 1.369 . S
C969 C973 1.531 . S
C970 C969 1.369 . S
C970 C971 1.410 . S
C970 C978 1.503 . S
C971 C970 1.410 . S
C971 C972 1.392 . S
C971 C974 1.511 . S
C972 C968 1.376 . S
C972 C971 1.392 . S
C972 H984 0.929 . S
C973 C969 1.531 . S
C973 H985 0.960 . S
C973 H986 0.962 . S
C973 H987 0.960 . S
C974 C971 1.511 . S
C974 H988 0.961 . S
C974 H989 0.961 . S
C974 H990 0.961 . S
C975 C976 1.370 . S
C975 C977 1.363 . S
C975 H991 0.931 . S
C976 C975 1.370 . S
C976 C980 1.408 . S
C977 C975 1.363 . S
C977 C978 1.370 . S
C977 C981 1.524 . S
C978 C970 1.503 . S
C978 C977 1.370 . S
C978 C979 1.403 . S
C979 C978 1.403 . S
C979 C980 1.404 . S
C979 C982 1.539 . S
C980 C976 1.408 . S
C980 C979 1.404 . S
C980 H992 0.930 . S
C981 C977 1.524 . S
C981 H993 0.956 . S
C981 H994 0.961 . S
C981 H995 0.961 . S
C982 C979 1.539 . S
C982 H996 0.958 . S
C982 H997 0.961 . S
C982 H998 0.960 . S
H983 C967 0.931 . S
H984 C972 0.929 . S
H985 C973 0.960 . S
H986 C973 0.962 . S
H987 C973 0.960 . S
H988 C974 0.961 . S
H989 C974 0.961 . S
H990 C974 0.961 . S
H991 C975 0.931 . S
H992 C980 0.930 . S
H993 C981 0.956 . S
H994 C981 0.961 . S
H995 C981 0.961 . S
H996 C982 0.958 . S
H997 C982 0.961 . S
H998 C982 0.960 . S
C999 C1000 1.391 . S
C999 C1001 1.394 . S
C999 H1015 0.931 . S
C1000 C999 1.391 . S
C1000 C1004 1.376 . S
C1001 C999 1.394 . S
C1001 C1002 1.369 . S
C1001 C1005 1.531 . S
C1002 C1001 1.369 . S
C1002 C1003 1.410 . S
C1002 C1010 1.503 . S
C1003 C1002 1.410 . S
C1003 C1004 1.392 . S
C1003 C1006 1.511 . S
C1004 C1000 1.376 . S
C1004 C1003 1.392 . S
C1004 H1016 0.929 . S
C1005 C1001 1.531 . S
C1005 H1017 0.960 . S
C1005 H1018 0.962 . S
C1005 H1019 0.960 . S
C1006 C1003 1.511 . S
C1006 H1020 0.961 . S
C1006 H1021 0.961 . S
C1006 H1022 0.961 . S
C1007 C1008 1.370 . S
C1007 C1009 1.363 . S
C1007 H1023 0.931 . S
C1008 C1007 1.370 . S
C1008 C1012 1.408 . S
C1009 C1007 1.363 . S
C1009 C1010 1.370 . S
C1009 C1013 1.524 . S
C1010 C1002 1.503 . S
C1010 C1009 1.370 . S
C1010 C1011 1.403 . S
C1011 C1010 1.403 . S
C1011 C1012 1.404 . S
C1011 C1014 1.539 . S
C1012 C1008 1.408 . S
C1012 C1011 1.404 . S
C1012 H1024 0.930 . S
C1013 C1009 1.524 . S
C1013 H1025 0.956 . S
C1013 H1026 0.961 . S
C1013 H1027 0.961 . S
C1014 C1011 1.539 . S
C1014 H1028 0.958 . S
C1014 H1029 0.961 . S
C1014 H1030 0.960 . S
H1015 C999 0.931 . S
H1016 C1004 0.929 . S
H1017 C1005 0.960 . S
H1018 C1005 0.962 . S
H1019 C1005 0.960 . S
H1020 C1006 0.961 . S
H1021 C1006 0.961 . S
H1022 C1006 0.961 . S
H1023 C1007 0.931 . S
H1024 C1012 0.930 . S
H1025 C1013 0.956 . S
H1026 C1013 0.961 . S
H1027 C1013 0.961 . S
H1028 C1014 0.958 . S
H1029 C1014 0.961 . S
H1030 C1014 0.960 . S
C1031 C1032 1.391 . S
C1031 C1033 1.394 . S
C1031 H1047 0.931 . S
C1032 C1031 1.391 . S
C1032 C1036 1.376 . S
C1033 C1031 1.394 . S
C1033 C1034 1.369 . S
C1033 C1037 1.531 . S
C1034 C1033 1.369 . S
C1034 C1035 1.410 . S
C1034 C1042 1.503 . S
C1035 C1034 1.410 . S
C1035 C1036 1.392 . S
C1035 C1038 1.511 . S
C1036 C1032 1.376 . S
C1036 C1035 1.392 . S
C1036 H1048 0.929 . S
C1037 C1033 1.531 . S
C1037 H1049 0.960 . S
C1037 H1050 0.962 . S
C1037 H1051 0.960 . S
C1038 C1035 1.511 . S
C1038 H1052 0.961 . S
C1038 H1053 0.961 . S
C1038 H1054 0.961 . S
C1039 C1040 1.370 . S
C1039 C1041 1.363 . S
C1039 H1055 0.931 . S
C1040 C1039 1.370 . S
C1040 C1044 1.408 . S
C1041 C1039 1.363 . S
C1041 C1042 1.370 . S
C1041 C1045 1.524 . S
C1042 C1034 1.503 . S
C1042 C1041 1.370 . S
C1042 C1043 1.403 . S
C1043 C1042 1.403 . S
C1043 C1044 1.404 . S
C1043 C1046 1.539 . S
C1044 C1040 1.408 . S
C1044 C1043 1.404 . S
C1044 H1056 0.930 . S
C1045 C1041 1.524 . S
C1045 H1057 0.956 . S
C1045 H1058 0.961 . S
C1045 H1059 0.961 . S
C1046 C1043 1.539 . S
C1046 H1060 0.958 . S
C1046 H1061 0.961 . S
C1046 H1062 0.960 . S
H1047 C1031 0.931 . S
H1048 C1036 0.929 . S
H1049 C1037 0.960 . S
H1050 C1037 0.962 . S
H1051 C1037 0.960 . S
H1052 C1038 0.961 . S
H1053 C1038 0.961 . S
H1054 C1038 0.961 . S
H1055 C1039 0.931 . S
H1056 C1044 0.930 . S
H1057 C1045 0.956 . S
H1058 C1045 0.961 . S
H1059 C1045 0.961 . S
H1060 C1046 0.958 . S
H1061 C1046 0.961 . S
H1062 C1046 0.960 . S
C1063 C1064 1.391 . S
C1063 C1065 1.394 . S
C1063 H1079 0.931 . S
C1064 C1063 1.391 . S
C1064 C1068 1.376 . S
C1065 C1063 1.394 . S
C1065 C1066 1.369 . S
C1065 C1069 1.531 . S
C1066 C1065 1.369 . S
C1066 C1067 1.410 . S
C1066 C1074 1.503 . S
C1067 C1066 1.410 . S
C1067 C1068 1.392 . S
C1067 C1070 1.511 . S
C1068 C1064 1.376 . S
C1068 C1067 1.392 . S
C1068 H1080 0.929 . S
C1069 C1065 1.531 . S
C1069 H1081 0.960 . S
C1069 H1082 0.962 . S
C1069 H1083 0.960 . S
C1070 C1067 1.511 . S
C1070 H1084 0.961 . S
C1070 H1085 0.961 . S
C1070 H1086 0.961 . S
C1071 C1072 1.370 . S
C1071 C1073 1.363 . S
C1071 H1087 0.931 . S
C1072 C1071 1.370 . S
C1072 C1076 1.408 . S
C1073 C1071 1.363 . S
C1073 C1074 1.370 . S
C1073 C1077 1.524 . S
C1074 C1066 1.503 . S
C1074 C1073 1.370 . S
C1074 C1075 1.403 . S
C1075 C1074 1.403 . S
C1075 C1076 1.404 . S
C1075 C1078 1.539 . S
C1076 C1072 1.408 . S
C1076 C1075 1.404 . S
C1076 H1088 0.930 . S
C1077 C1073 1.524 . S
C1077 H1089 0.956 . S
C1077 H1090 0.961 . S
C1077 H1091 0.961 . S
C1078 C1075 1.539 . S
C1078 H1092 0.958 . S
C1078 H1093 0.961 . S
C1078 H1094 0.960 . S
H1079 C1063 0.931 . S
H1080 C1068 0.929 . S
H1081 C1069 0.960 . S
H1082 C1069 0.962 . S
H1083 C1069 0.960 . S
H1084 C1070 0.961 . S
H1085 C1070 0.961 . S
H1086 C1070 0.961 . S
H1087 C1071 0.931 . S
H1088 C1076 0.930 . S
H1089 C1077 0.956 . S
H1090 C1077 0.961 . S
H1091 C1077 0.961 . S
H1092 C1078 0.958 . S
H1093 C1078 0.961 . S
H1094 C1078 0.960 . S
C1095 C1096 1.391 . S
C1095 C1097 1.394 1_545 S
C1095 H1111 0.931 . S
C1096 C1095 1.391 . S
C1096 C1100 1.376 . S
C1097 C1095 1.394 1_565 S
C1097 C1098 1.369 . S
C1097 C1101 1.531 . S
C1098 C1097 1.369 . S
C1098 C1099 1.410 . S
C1098 C1106 1.503 . S
C1099 C1098 1.410 . S
C1099 C1100 1.392 1_565 S
C1099 C1102 1.511 . S
C1100 C1096 1.376 . S
C1100 C1099 1.392 1_545 S
C1100 H1112 0.929 . S
C1101 C1097 1.531 . S
C1101 H1113 0.960 . S
C1101 H1114 0.962 . S
C1101 H1115 0.960 . S
C1102 C1099 1.511 . S
C1102 H1116 0.961 . S
C1102 H1117 0.961 . S
C1102 H1118 0.961 . S
C1103 C1104 1.370 . S
C1103 C1105 1.363 . S
C1103 H1119 0.931 . S
C1104 C1103 1.370 . S
C1104 C1108 1.408 . S
C1105 C1103 1.363 . S
C1105 C1106 1.370 . S
C1105 C1109 1.524 . S
C1106 C1098 1.503 . S
C1106 C1105 1.370 . S
C1106 C1107 1.403 . S
C1107 C1106 1.403 . S
C1107 C1108 1.404 . S
C1107 C1110 1.539 . S
C1108 C1104 1.408 . S
C1108 C1107 1.404 . S
C1108 H1120 0.930 . S
C1109 C1105 1.524 . S
C1109 H1121 0.956 . S
C1109 H1122 0.961 . S
C1109 H1123 0.961 . S
C1110 C1107 1.539 . S
C1110 H1124 0.958 . S
C1110 H1125 0.961 . S
C1110 H1126 0.960 . S
H1111 C1095 0.931 . S
H1112 C1100 0.929 . S
H1113 C1101 0.960 . S
H1114 C1101 0.962 . S
H1115 C1101 0.960 . S
H1116 C1102 0.961 . S
H1117 C1102 0.961 . S
H1118 C1102 0.961 . S
H1119 C1103 0.931 . S
H1120 C1108 0.930 . S
H1121 C1109 0.956 . S
H1122 C1109 0.961 . S
H1123 C1109 0.961 . S
H1124 C1110 0.958 . S
H1125 C1110 0.961 . S
H1126 C1110 0.960 . S
C1127 C1128 1.391 . S
C1127 C1129 1.394 1_655 S
C1127 H1143 0.931 . S
C1128 C1127 1.391 . S
C1128 C1132 1.376 . S
C1129 C1127 1.394 1_455 S
C1129 C1130 1.369 . S
C1129 C1133 1.531 . S
C1130 C1129 1.369 . S
C1130 C1131 1.410 . S
C1130 C1138 1.503 . S
C1131 C1130 1.410 . S
C1131 C1132 1.392 1_455 S
C1131 C1134 1.511 . S
C1132 C1128 1.376 . S
C1132 C1131 1.392 1_655 S
C1132 H1144 0.929 . S
C1133 C1129 1.531 . S
C1133 H1145 0.960 . S
C1133 H1146 0.962 . S
C1133 H1147 0.960 . S
C1134 C1131 1.511 . S
C1134 H1148 0.961 . S
C1134 H1149 0.961 . S
C1134 H1150 0.961 . S
C1135 C1136 1.370 . S
C1135 C1137 1.363 . S
C1135 H1151 0.931 . S
C1136 C1135 1.370 . S
C1136 C1140 1.408 . S
C1137 C1135 1.363 . S
C1137 C1138 1.370 . S
C1137 C1141 1.524 . S
C1138 C1130 1.503 . S
C1138 C1137 1.370 . S
C1138 C1139 1.403 . S
C1139 C1138 1.403 . S
C1139 C1140 1.404 . S
C1139 C1142 1.539 . S
C1140 C1136 1.408 . S
C1140 C1139 1.404 . S
C1140 H1152 0.930 . S
C1141 C1137 1.524 . S
C1141 H1153 0.956 . S
C1141 H1154 0.961 . S
C1141 H1155 0.961 . S
C1142 C1139 1.539 . S
C1142 H1156 0.958 . S
C1142 H1157 0.961 . S
C1142 H1158 0.960 . S
H1143 C1127 0.931 . S
H1144 C1132 0.929 . S
H1145 C1133 0.960 . S
H1146 C1133 0.962 . S
H1147 C1133 0.960 . S
H1148 C1134 0.961 . S
H1149 C1134 0.961 . S
H1150 C1134 0.961 . S
H1151 C1135 0.931 . S
H1152 C1140 0.930 . S
H1153 C1141 0.956 . S
H1154 C1141 0.961 . S
H1155 C1141 0.961 . S
H1156 C1142 0.958 . S
H1157 C1142 0.961 . S
H1158 C1142 0.960 . S
C1159 C1160 1.391 . S
C1159 C1161 1.394 . S
C1159 H1175 0.931 . S
C1160 C1159 1.391 . S
C1160 C1164 1.376 . S
C1161 C1159 1.394 . S
C1161 C1162 1.369 . S
C1161 C1165 1.531 . S
C1162 C1161 1.369 . S
C1162 C1163 1.410 . S
C1162 C1170 1.503 . S
C1163 C1162 1.410 . S
C1163 C1164 1.392 . S
C1163 C1166 1.511 . S
C1164 C1160 1.376 . S
C1164 C1163 1.392 . S
C1164 H1176 0.929 . S
C1165 C1161 1.531 . S
C1165 H1177 0.960 . S
C1165 H1178 0.962 . S
C1165 H1179 0.960 . S
C1166 C1163 1.511 . S
C1166 H1180 0.961 . S
C1166 H1181 0.961 . S
C1166 H1182 0.961 . S
C1167 C1168 1.370 . S
C1167 C1169 1.363 . S
C1167 H1183 0.931 . S
C1168 C1167 1.370 . S
C1168 C1172 1.408 . S
C1169 C1167 1.363 . S
C1169 C1170 1.370 . S
C1169 C1173 1.524 . S
C1170 C1162 1.503 . S
C1170 C1169 1.370 . S
C1170 C1171 1.403 . S
C1171 C1170 1.403 . S
C1171 C1172 1.404 . S
C1171 C1174 1.539 . S
C1172 C1168 1.408 . S
C1172 C1171 1.404 . S
C1172 H1184 0.930 . S
C1173 C1169 1.524 . S
C1173 H1185 0.956 . S
C1173 H1186 0.961 . S
C1173 H1187 0.961 . S
C1174 C1171 1.539 . S
C1174 H1188 0.958 . S
C1174 H1189 0.961 . S
C1174 H1190 0.960 . S
H1175 C1159 0.931 . S
H1176 C1164 0.929 . S
H1177 C1165 0.960 . S
H1178 C1165 0.962 . S
H1179 C1165 0.960 . S
H1180 C1166 0.961 . S
H1181 C1166 0.961 . S
H1182 C1166 0.961 . S
H1183 C1167 0.931 . S
H1184 C1172 0.930 . S
H1185 C1173 0.956 . S
H1186 C1173 0.961 . S
H1187 C1173 0.961 . S
H1188 C1174 0.958 . S
H1189 C1174 0.961 . S
H1190 C1174 0.960 . S
C1191 C1192 1.391 . S
C1191 C1193 1.394 . S
C1191 H1207 0.931 . S
C1192 C1191 1.391 . S
C1192 C1196 1.376 . S
C1193 C1191 1.394 . S
C1193 C1194 1.369 . S
C1193 C1197 1.531 . S
C1194 C1193 1.369 . S
C1194 C1195 1.410 . S
C1194 C1202 1.503 . S
C1195 C1194 1.410 . S
C1195 C1196 1.392 . S
C1195 C1198 1.511 . S
C1196 C1192 1.376 . S
C1196 C1195 1.392 . S
C1196 H1208 0.929 . S
C1197 C1193 1.531 . S
C1197 H1209 0.960 . S
C1197 H1210 0.962 . S
C1197 H1211 0.960 . S
C1198 C1195 1.511 . S
C1198 H1212 0.961 . S
C1198 H1213 0.961 . S
C1198 H1214 0.961 . S
C1199 C1200 1.370 . S
C1199 C1201 1.363 . S
C1199 H1215 0.931 . S
C1200 C1199 1.370 . S
C1200 C1204 1.408 . S
C1201 C1199 1.363 . S
C1201 C1202 1.370 . S
C1201 C1205 1.524 . S
C1202 C1194 1.503 . S
C1202 C1201 1.370 . S
C1202 C1203 1.403 . S
C1203 C1202 1.403 . S
C1203 C1204 1.404 . S
C1203 C1206 1.539 . S
C1204 C1200 1.408 . S
C1204 C1203 1.404 . S
C1204 H1216 0.930 . S
C1205 C1201 1.524 . S
C1205 H1217 0.956 . S
C1205 H1218 0.961 . S
C1205 H1219 0.961 . S
C1206 C1203 1.539 . S
C1206 H1220 0.958 . S
C1206 H1221 0.961 . S
C1206 H1222 0.960 . S
H1207 C1191 0.931 . S
H1208 C1196 0.929 . S
H1209 C1197 0.960 . S
H1210 C1197 0.962 . S
H1211 C1197 0.960 . S
H1212 C1198 0.961 . S
H1213 C1198 0.961 . S
H1214 C1198 0.961 . S
H1215 C1199 0.931 . S
H1216 C1204 0.930 . S
H1217 C1205 0.956 . S
H1218 C1205 0.961 . S
H1219 C1205 0.961 . S
H1220 C1206 0.958 . S
H1221 C1206 0.961 . S
H1222 C1206 0.960 . S
C1223 C1224 1.391 . S
C1223 C1225 1.394 . S
C1223 H1239 0.931 . S
C1224 C1223 1.391 . S
C1224 C1228 1.376 . S
C1225 C1223 1.394 . S
C1225 C1226 1.369 . S
C1225 C1229 1.531 . S
C1226 C1225 1.369 . S
C1226 C1227 1.410 . S
C1226 C1234 1.503 . S
C1227 C1226 1.410 . S
C1227 C1228 1.392 . S
C1227 C1230 1.511 . S
C1228 C1224 1.376 . S
C1228 C1227 1.392 . S
C1228 H1240 0.929 . S
C1229 C1225 1.531 . S
C1229 H1241 0.960 . S
C1229 H1242 0.962 . S
C1229 H1243 0.960 . S
C1230 C1227 1.511 . S
C1230 H1244 0.961 . S
C1230 H1245 0.961 . S
C1230 H1246 0.961 . S
C1231 C1232 1.370 . S
C1231 C1233 1.363 . S
C1231 H1247 0.931 . S
C1232 C1231 1.370 . S
C1232 C1236 1.408 . S
C1233 C1231 1.363 . S
C1233 C1234 1.370 . S
C1233 C1237 1.524 . S
C1234 C1226 1.503 . S
C1234 C1233 1.370 . S
C1234 C1235 1.403 . S
C1235 C1234 1.403 . S
C1235 C1236 1.404 . S
C1235 C1238 1.539 . S
C1236 C1232 1.408 . S
C1236 C1235 1.404 . S
C1236 H1248 0.930 . S
C1237 C1233 1.524 . S
C1237 H1249 0.956 . S
C1237 H1250 0.961 . S
C1237 H1251 0.961 . S
C1238 C1235 1.539 . S
C1238 H1252 0.958 . S
C1238 H1253 0.961 . S
C1238 H1254 0.960 . S
H1239 C1223 0.931 . S
H1240 C1228 0.929 . S
H1241 C1229 0.960 . S
H1242 C1229 0.962 . S
H1243 C1229 0.960 . S
H1244 C1230 0.961 . S
H1245 C1230 0.961 . S
H1246 C1230 0.961 . S
H1247 C1231 0.931 . S
H1248 C1236 0.930 . S
H1249 C1237 0.956 . S
H1250 C1237 0.961 . S
H1251 C1237 0.961 . S
H1252 C1238 0.958 . S
H1253 C1238 0.961 . S
H1254 C1238 0.960 . S
C1255 C1256 1.391 . S
C1255 C1257 1.394 . S
C1255 H1271 0.931 . S
C1256 C1255 1.391 . S
C1256 C1260 1.376 . S
C1257 C1255 1.394 . S
C1257 C1258 1.369 . S
C1257 C1261 1.531 . S
C1258 C1257 1.369 . S
C1258 C1259 1.410 . S
C1258 C1266 1.503 . S
C1259 C1258 1.410 . S
C1259 C1260 1.392 . S
C1259 C1262 1.511 . S
C1260 C1256 1.376 . S
C1260 C1259 1.392 . S
C1260 H1272 0.929 . S
C1261 C1257 1.531 . S
C1261 H1273 0.960 . S
C1261 H1274 0.962 . S
C1261 H1275 0.960 . S
C1262 C1259 1.511 . S
C1262 H1276 0.961 . S
C1262 H1277 0.961 . S
C1262 H1278 0.961 . S
C1263 C1264 1.370 . S
C1263 C1265 1.363 . S
C1263 H1279 0.931 . S
C1264 C1263 1.370 . S
C1264 C1268 1.408 . S
C1265 C1263 1.363 . S
C1265 C1266 1.370 . S
C1265 C1269 1.524 . S
C1266 C1258 1.503 . S
C1266 C1265 1.370 . S
C1266 C1267 1.403 . S
C1267 C1266 1.403 . S
C1267 C1268 1.404 . S
C1267 C1270 1.539 . S
C1268 C1264 1.408 . S
C1268 C1267 1.404 . S
C1268 H1280 0.930 . S
C1269 C1265 1.524 . S
C1269 H1281 0.956 . S
C1269 H1282 0.961 . S
C1269 H1283 0.961 . S
C1270 C1267 1.539 . S
C1270 H1284 0.958 . S
C1270 H1285 0.961 . S
C1270 H1286 0.960 . S
H1271 C1255 0.931 . S
H1272 C1260 0.929 . S
H1273 C1261 0.960 . S
H1274 C1261 0.962 . S
H1275 C1261 0.960 . S
H1276 C1262 0.961 . S
H1277 C1262 0.961 . S
H1278 C1262 0.961 . S
H1279 C1263 0.931 . S
H1280 C1268 0.930 . S
H1281 C1269 0.956 . S
H1282 C1269 0.961 . S
H1283 C1269 0.961 . S
H1284 C1270 0.958 . S
H1285 C1270 0.961 . S
H1286 C1270 0.960 . S
C1287 C1288 1.391 . S
C1287 C1289 1.394 . S
C1287 H1303 0.931 . S
C1288 C1287 1.391 . S
C1288 C1292 1.376 . S
C1289 C1287 1.394 . S
C1289 C1290 1.369 . S
C1289 C1293 1.531 . S
C1290 C1289 1.369 . S
C1290 C1291 1.410 . S
C1290 C1298 1.503 1_565 S
C1291 C1290 1.410 . S
C1291 C1292 1.392 . S
C1291 C1294 1.511 1_565 S
C1292 C1288 1.376 . S
C1292 C1291 1.392 . S
C1292 H1304 0.929 . S
C1293 C1289 1.531 . S
C1293 H1305 0.960 . S
C1293 H1306 0.962 . S
C1293 H1307 0.960 . S
C1294 C1291 1.511 1_545 S
C1294 H1308 0.961 1_545 S
C1294 H1309 0.961 . S
C1294 H1310 0.961 . S
C1295 C1296 1.370 . S
C1295 C1297 1.363 . S
C1295 H1311 0.931 . S
C1296 C1295 1.370 . S
C1296 C1300 1.408 . S
C1297 C1295 1.363 . S
C1297 C1298 1.370 . S
C1297 C1301 1.524 . S
C1298 C1290 1.503 1_545 S
C1298 C1297 1.370 . S
C1298 C1299 1.403 . S
C1299 C1298 1.403 . S
C1299 C1300 1.404 . S
C1299 C1302 1.539 . S
C1300 C1296 1.408 . S
C1300 C1299 1.404 . S
C1300 H1312 0.930 . S
C1301 C1297 1.524 . S
C1301 H1313 0.956 1_545 S
C1301 H1314 0.961 1_545 S
C1301 H1315 0.961 . S
C1302 C1299 1.539 . S
C1302 H1316 0.958 . S
C1302 H1317 0.961 . S
C1302 H1318 0.960 . S
H1303 C1287 0.931 . S
H1304 C1292 0.929 . S
H1305 C1293 0.960 . S
H1306 C1293 0.962 . S
H1307 C1293 0.960 . S
H1308 C1294 0.961 1_565 S
H1309 C1294 0.961 . S
H1310 C1294 0.961 . S
H1311 C1295 0.931 . S
H1312 C1300 0.930 . S
H1313 C1301 0.956 1_565 S
H1314 C1301 0.961 1_565 S
H1315 C1301 0.961 . S
H1316 C1302 0.958 . S
H1317 C1302 0.961 . S
H1318 C1302 0.960 . S
C1319 C1320 1.391 . S
C1319 C1321 1.394 . S
C1319 H1335 0.931 . S
C1320 C1319 1.391 . S
C1320 C1324 1.376 . S
C1321 C1319 1.394 . S
C1321 C1322 1.369 . S
C1321 C1325 1.531 . S
C1322 C1321 1.369 . S
C1322 C1323 1.410 . S
C1322 C1330 1.503 1_455 S
C1323 C1322 1.410 . S
C1323 C1324 1.392 . S
C1323 C1326 1.511 . S
C1324 C1320 1.376 . S
C1324 C1323 1.392 . S
C1324 H1336 0.929 . S
C1325 C1321 1.531 . S
C1325 H1337 0.960 . S
C1325 H1338 0.962 . S
C1325 H1339 0.960 . S
C1326 C1323 1.511 . S
C1326 H1340 0.961 . S
C1326 H1341 0.961 1_455 S
C1326 H1342 0.962 . S
C1327 C1328 1.370 . S
C1327 C1329 1.363 . S
C1327 H1343 0.931 . S
C1328 C1327 1.370 . S
C1328 C1332 1.408 . S
C1329 C1327 1.363 . S
C1329 C1330 1.370 . S
C1329 C1333 1.524 1_655 S
C1330 C1322 1.503 1_655 S
C1330 C1329 1.370 . S
C1330 C1331 1.403 . S
C1331 C1330 1.403 . S
C1331 C1332 1.404 . S
C1331 C1334 1.539 . S
C1332 C1328 1.408 . S
C1332 C1331 1.404 . S
C1332 H1344 0.930 . S
C1333 C1329 1.524 1_455 S
C1333 H1345 0.956 . S
C1333 H1346 0.961 . S
C1333 H1347 0.961 1_455 S
C1334 C1331 1.539 . S
C1334 H1348 0.958 . S
C1334 H1349 0.961 . S
C1334 H1350 0.960 . S
H1335 C1319 0.931 . S
H1336 C1324 0.929 . S
H1337 C1325 0.960 . S
H1338 C1325 0.962 . S
H1339 C1325 0.960 . S
H1340 C1326 0.961 . S
H1341 C1326 0.961 1_655 S
H1342 C1326 0.962 . S
H1343 C1327 0.931 . S
H1344 C1332 0.930 . S
H1345 C1333 0.956 . S
H1346 C1333 0.961 . S
H1347 C1333 0.961 1_655 S
H1348 C1334 0.958 . S
H1349 C1334 0.961 . S
H1350 C1334 0.960 . S
C1351 C1352 1.391 . S
C1351 C1353 1.394 . S
C1351 H1367 0.931 . S
C1352 C1351 1.391 . S
C1352 C1356 1.376 . S
C1353 C1351 1.394 . S
C1353 C1354 1.369 . S
C1353 C1357 1.531 . S
C1354 C1353 1.369 . S
C1354 C1355 1.410 . S
C1354 C1362 1.503 . S
C1355 C1354 1.410 . S
C1355 C1356 1.392 . S
C1355 C1358 1.511 . S
C1356 C1352 1.376 . S
C1356 C1355 1.392 . S
C1356 H1368 0.929 . S
C1357 C1353 1.531 . S
C1357 H1369 0.960 . S
C1357 H1370 0.962 . S
C1357 H1371 0.960 . S
C1358 C1355 1.511 . S
C1358 H1372 0.961 . S
C1358 H1373 0.961 . S
C1358 H1374 0.961 . S
C1359 C1360 1.370 . S
C1359 C1361 1.363 . S
C1359 H1375 0.931 . S
C1360 C1359 1.370 . S
C1360 C1364 1.408 . S
C1361 C1359 1.363 . S
C1361 C1362 1.370 . S
C1361 C1365 1.524 . S
C1362 C1354 1.503 . S
C1362 C1361 1.370 . S
C1362 C1363 1.403 . S
C1363 C1362 1.403 . S
C1363 C1364 1.404 . S
C1363 C1366 1.539 . S
C1364 C1360 1.408 . S
C1364 C1363 1.404 . S
C1364 H1376 0.930 . S
C1365 C1361 1.524 . S
C1365 H1377 0.956 . S
C1365 H1378 0.961 . S
C1365 H1379 0.961 . S
C1366 C1363 1.539 . S
C1366 H1380 0.958 . S
C1366 H1381 0.961 . S
C1366 H1382 0.960 . S
H1367 C1351 0.931 . S
H1368 C1356 0.929 . S
H1369 C1357 0.960 . S
H1370 C1357 0.962 . S
H1371 C1357 0.960 . S
H1372 C1358 0.961 . S
H1373 C1358 0.961 . S
H1374 C1358 0.961 . S
H1375 C1359 0.931 . S
H1376 C1364 0.930 . S
H1377 C1365 0.956 . S
H1378 C1365 0.961 . S
H1379 C1365 0.961 . S
H1380 C1366 0.958 . S
H1381 C1366 0.961 . S
H1382 C1366 0.960 . S
C1383 C1384 1.391 . S
C1383 C1385 1.394 . S
C1383 H1399 0.931 . S
C1384 C1383 1.391 . S
C1384 C1388 1.376 . S
C1385 C1383 1.394 . S
C1385 C1386 1.369 1_455 S
C1385 C1389 1.531 1_455 S
C1386 C1385 1.369 1_655 S
C1386 C1387 1.410 1_655 S
C1386 C1394 1.503 . S
C1387 C1386 1.410 1_455 S
C1387 C1388 1.392 . S
C1387 C1390 1.511 1_455 S
C1388 C1384 1.376 . S
C1388 C1387 1.392 . S
C1388 H1400 0.929 . S
C1389 C1385 1.531 1_655 S
C1389 H1401 0.960 . S
C1389 H1402 0.962 . S
C1389 H1403 0.960 1_655 S
C1390 C1387 1.511 1_655 S
C1390 H1404 0.961 . S
C1390 H1405 0.961 . S
C1390 H1406 0.961 . S
C1391 C1392 1.370 . S
C1391 C1393 1.363 . S
C1391 H1407 0.931 . S
C1392 C1391 1.370 . S
C1392 C1396 1.408 . S
C1393 C1391 1.363 . S
C1393 C1394 1.370 . S
C1393 C1397 1.524 . S
C1394 C1386 1.503 . S
C1394 C1393 1.370 . S
C1394 C1395 1.403 . S
C1395 C1394 1.403 . S
C1395 C1396 1.404 . S
C1395 C1398 1.539 . S
C1396 C1392 1.408 . S
C1396 C1395 1.404 . S
C1396 H1408 0.930 . S
C1397 C1393 1.524 . S
C1397 H1409 0.956 . S
C1397 H1410 0.961 . S
C1397 H1411 0.961 . S
C1398 C1395 1.539 . S
C1398 H1412 0.958 . S
C1398 H1413 0.961 . S
C1398 H1414 0.960 . S
H1399 C1383 0.931 . S
H1400 C1388 0.929 . S
H1401 C1389 0.960 . S
H1402 C1389 0.962 . S
H1403 C1389 0.960 1_455 S
H1404 C1390 0.961 . S
H1405 C1390 0.961 . S
H1406 C1390 0.961 . S
H1407 C1391 0.931 . S
H1408 C1396 0.930 . S
H1409 C1397 0.956 . S
H1410 C1397 0.961 . S
H1411 C1397 0.961 . S
H1412 C1398 0.958 . S
H1413 C1398 0.961 . S
H1414 C1398 0.960 . S
C1415 C1416 1.391 . S
C1415 C1417 1.394 . S
C1415 H1431 0.931 . S
C1416 C1415 1.391 . S
C1416 C1420 1.376 . S
C1417 C1415 1.394 . S
C1417 C1418 1.369 . S
C1417 C1421 1.531 . S
C1418 C1417 1.369 . S
C1418 C1419 1.410 . S
C1418 C1426 1.503 . S
C1419 C1418 1.410 . S
C1419 C1420 1.392 . S
C1419 C1422 1.511 . S
C1420 C1416 1.376 . S
C1420 C1419 1.392 . S
C1420 H1432 0.929 . S
C1421 C1417 1.531 . S
C1421 H1433 0.960 . S
C1421 H1434 0.962 . S
C1421 H1435 0.960 . S
C1422 C1419 1.511 . S
C1422 H1436 0.961 . S
C1422 H1437 0.961 . S
C1422 H1438 0.961 . S
C1423 C1424 1.370 . S
C1423 C1425 1.363 . S
C1423 H1439 0.931 . S
C1424 C1423 1.370 . S
C1424 C1428 1.408 . S
C1425 C1423 1.363 . S
C1425 C1426 1.370 . S
C1425 C1429 1.524 . S
C1426 C1418 1.503 . S
C1426 C1425 1.370 . S
C1426 C1427 1.403 . S
C1427 C1426 1.403 . S
C1427 C1428 1.404 . S
C1427 C1430 1.539 . S
C1428 C1424 1.408 . S
C1428 C1427 1.404 . S
C1428 H1440 0.930 . S
C1429 C1425 1.524 . S
C1429 H1441 0.956 . S
C1429 H1442 0.961 . S
C1429 H1443 0.961 . S
C1430 C1427 1.539 . S
C1430 H1444 0.958 . S
C1430 H1445 0.961 . S
C1430 H1446 0.960 . S
H1431 C1415 0.931 . S
H1432 C1420 0.929 . S
H1433 C1421 0.960 . S
H1434 C1421 0.962 . S
H1435 C1421 0.960 . S
H1436 C1422 0.961 . S
H1437 C1422 0.961 . S
H1438 C1422 0.961 . S
H1439 C1423 0.931 . S
H1440 C1428 0.930 . S
H1441 C1429 0.956 . S
H1442 C1429 0.961 . S
H1443 C1429 0.961 . S
H1444 C1430 0.958 . S
H1445 C1430 0.961 . S
H1446 C1430 0.960 . S
C1447 C1448 1.391 . S
C1447 C1449 1.394 1_565 S
C1447 H1463 0.931 . S
C1448 C1447 1.391 . S
C1448 C1452 1.376 . S
C1449 C1447 1.394 1_545 S
C1449 C1450 1.369 . S
C1449 C1453 1.531 . S
C1450 C1449 1.369 . S
C1450 C1451 1.410 . S
C1450 C1458 1.503 . S
C1451 C1450 1.410 . S
C1451 C1452 1.392 1_545 S
C1451 C1454 1.511 . S
C1452 C1448 1.376 . S
C1452 C1451 1.392 1_565 S
C1452 H1464 0.929 . S
C1453 C1449 1.531 . S
C1453 H1465 0.960 . S
C1453 H1466 0.962 . S
C1453 H1467 0.960 . S
C1454 C1451 1.511 . S
C1454 H1468 0.961 . S
C1454 H1469 0.961 . S
C1454 H1470 0.961 . S
C1455 C1456 1.370 . S
C1455 C1457 1.363 . S
C1455 H1471 0.931 . S
C1456 C1455 1.370 . S
C1456 C1460 1.408 . S
C1457 C1455 1.363 . S
C1457 C1458 1.370 . S
C1457 C1461 1.524 . S
C1458 C1450 1.503 . S
C1458 C1457 1.370 . S
C1458 C1459 1.403 . S
C1459 C1458 1.403 . S
C1459 C1460 1.404 . S
C1459 C1462 1.539 . S
C1460 C1456 1.408 . S
C1460 C1459 1.404 . S
C1460 H1472 0.930 . S
C1461 C1457 1.524 . S
C1461 H1473 0.956 . S
C1461 H1474 0.961 . S
C1461 H1475 0.961 . S
C1462 C1459 1.539 . S
C1462 H1476 0.958 . S
C1462 H1477 0.961 . S
C1462 H1478 0.960 . S
H1463 C1447 0.931 . S
H1464 C1452 0.929 . S
H1465 C1453 0.960 . S
H1466 C1453 0.962 . S
H1467 C1453 0.960 . S
H1468 C1454 0.961 . S
H1469 C1454 0.961 . S
H1470 C1454 0.961 . S
H1471 C1455 0.931 . S
H1472 C1460 0.930 . S
H1473 C1461 0.956 . S
H1474 C1461 0.961 . S
H1475 C1461 0.961 . S
H1476 C1462 0.958 . S
H1477 C1462 0.961 . S
H1478 C1462 0.960 . S
C1479 C1480 1.391 . S
C1479 C1481 1.394 . S
C1479 H1495 0.931 . S
C1480 C1479 1.391 . S
C1480 C1484 1.376 . S
C1481 C1479 1.394 . S
C1481 C1482 1.369 . S
C1481 C1485 1.531 . S
C1482 C1481 1.369 . S
C1482 C1483 1.410 . S
C1482 C1490 1.503 . S
C1483 C1482 1.410 . S
C1483 C1484 1.392 . S
C1483 C1486 1.511 . S
C1484 C1480 1.376 . S
C1484 C1483 1.392 . S
C1484 H1496 0.929 . S
C1485 C1481 1.531 . S
C1485 H1497 0.960 . S
C1485 H1498 0.962 . S
C1485 H1499 0.960 . S
C1486 C1483 1.511 . S
C1486 H1500 0.961 . S
C1486 H1501 0.961 . S
C1486 H1502 0.961 . S
C1487 C1488 1.370 . S
C1487 C1489 1.363 . S
C1487 H1503 0.931 . S
C1488 C1487 1.370 . S
C1488 C1492 1.408 . S
C1489 C1487 1.363 . S
C1489 C1490 1.370 . S
C1489 C1493 1.524 . S
C1490 C1482 1.503 . S
C1490 C1489 1.370 . S
C1490 C1491 1.403 . S
C1491 C1490 1.403 . S
C1491 C1492 1.404 . S
C1491 C1494 1.539 . S
C1492 C1488 1.408 . S
C1492 C1491 1.404 . S
C1492 H1504 0.930 . S
C1493 C1489 1.524 . S
C1493 H1505 0.956 . S
C1493 H1506 0.961 . S
C1493 H1507 0.961 . S
C1494 C1491 1.539 . S
C1494 H1508 0.958 . S
C1494 H1509 0.961 . S
C1494 H1510 0.960 . S
H1495 C1479 0.931 . S
H1496 C1484 0.929 . S
H1497 C1485 0.960 . S
H1498 C1485 0.962 . S
H1499 C1485 0.960 . S
H1500 C1486 0.961 . S
H1501 C1486 0.961 . S
H1502 C1486 0.961 . S
H1503 C1487 0.931 . S
H1504 C1492 0.930 . S
H1505 C1493 0.956 . S
H1506 C1493 0.961 . S
H1507 C1493 0.961 . S
H1508 C1494 0.958 . S
H1509 C1494 0.961 . S
H1510 C1494 0.960 . S
C1511 C1512 1.391 . S
C1511 C1513 1.394 . S
C1511 H1527 0.931 . S
C1512 C1511 1.391 . S
C1512 C1516 1.376 . S
C1513 C1511 1.394 . S
C1513 C1514 1.369 . S
C1513 C1517 1.531 . S
C1514 C1513 1.369 . S
C1514 C1515 1.410 . S
C1514 C1522 1.503 . S
C1515 C1514 1.410 . S
C1515 C1516 1.392 . S
C1515 C1518 1.511 . S
C1516 C1512 1.376 . S
C1516 C1515 1.392 . S
C1516 H1528 0.929 . S
C1517 C1513 1.531 . S
C1517 H1529 0.960 . S
C1517 H1530 0.962 . S
C1517 H1531 0.960 . S
C1518 C1515 1.511 . S
C1518 H1532 0.961 . S
C1518 H1533 0.961 . S
C1518 H1534 0.961 . S
C1519 C1520 1.370 . S
C1519 C1521 1.363 . S
C1519 H1535 0.931 . S
C1520 C1519 1.370 . S
C1520 C1524 1.408 . S
C1521 C1519 1.363 . S
C1521 C1522 1.370 . S
C1521 C1525 1.524 . S
C1522 C1514 1.503 . S
C1522 C1521 1.370 . S
C1522 C1523 1.403 . S
C1523 C1522 1.403 . S
C1523 C1524 1.404 . S
C1523 C1526 1.539 . S
C1524 C1520 1.408 . S
C1524 C1523 1.404 . S
C1524 H1536 0.930 . S
C1525 C1521 1.524 . S
C1525 H1537 0.956 . S
C1525 H1538 0.961 . S
C1525 H1539 0.961 . S
C1526 C1523 1.539 . S
C1526 H1540 0.958 . S
C1526 H1541 0.961 . S
C1526 H1542 0.960 . S
H1527 C1511 0.931 . S
H1528 C1516 0.929 . S
H1529 C1517 0.960 . S
H1530 C1517 0.962 . S
H1531 C1517 0.960 . S
H1532 C1518 0.961 . S
H1533 C1518 0.961 . S
H1534 C1518 0.961 . S
H1535 C1519 0.931 . S
H1536 C1524 0.930 . S
H1537 C1525 0.956 . S
H1538 C1525 0.961 . S
H1539 C1525 0.961 . S
H1540 C1526 0.958 . S
H1541 C1526 0.961 . S
H1542 C1526 0.960 . S
C1543 C1544 1.391 . S
C1543 C1545 1.394 . S
C1543 H1559 0.931 . S
C1544 C1543 1.391 . S
C1544 C1548 1.376 . S
C1545 C1543 1.394 . S
C1545 C1546 1.369 . S
C1545 C1549 1.531 . S
C1546 C1545 1.369 . S
C1546 C1547 1.410 . S
C1546 C1554 1.503 . S
C1547 C1546 1.410 . S
C1547 C1548 1.392 . S
C1547 C1550 1.511 . S
C1548 C1544 1.376 . S
C1548 C1547 1.392 . S
C1548 H1560 0.929 . S
C1549 C1545 1.531 . S
C1549 H1561 0.960 . S
C1549 H1562 0.962 . S
C1549 H1563 0.960 . S
C1550 C1547 1.511 . S
C1550 H1564 0.961 . S
C1550 H1565 0.961 . S
C1550 H1566 0.961 . S
C1551 C1552 1.370 . S
C1551 C1553 1.363 . S
C1551 H1567 0.931 . S
C1552 C1551 1.370 . S
C1552 C1556 1.408 . S
C1553 C1551 1.363 . S
C1553 C1554 1.370 . S
C1553 C1557 1.524 . S
C1554 C1546 1.503 . S
C1554 C1553 1.370 . S
C1554 C1555 1.403 . S
C1555 C1554 1.403 . S
C1555 C1556 1.404 . S
C1555 C1558 1.539 . S
C1556 C1552 1.408 . S
C1556 C1555 1.404 . S
C1556 H1568 0.930 . S
C1557 C1553 1.524 . S
C1557 H1569 0.956 . S
C1557 H1570 0.961 . S
C1557 H1571 0.961 . S
C1558 C1555 1.539 . S
C1558 H1572 0.958 . S
C1558 H1573 0.961 . S
C1558 H1574 0.960 . S
H1559 C1543 0.931 . S
H1560 C1548 0.929 . S
H1561 C1549 0.960 . S
H1562 C1549 0.962 . S
H1563 C1549 0.960 . S
H1564 C1550 0.961 . S
H1565 C1550 0.961 . S
H1566 C1550 0.961 . S
H1567 C1551 0.931 . S
H1568 C1556 0.930 . S
H1569 C1557 0.956 . S
H1570 C1557 0.961 . S
H1571 C1557 0.961 . S
H1572 C1558 0.958 . S
H1573 C1558 0.961 . S
H1574 C1558 0.960 . S
C1575 C1576 1.391 . S
C1575 C1577 1.394 . S
C1575 H1591 0.931 . S
C1576 C1575 1.391 . S
C1576 C1580 1.376 . S
C1577 C1575 1.394 . S
C1577 C1578 1.369 . S
C1577 C1581 1.531 . S
C1578 C1577 1.369 . S
C1578 C1579 1.410 . S
C1578 C1586 1.503 . S
C1579 C1578 1.410 . S
C1579 C1580 1.392 . S
C1579 C1582 1.511 . S
C1580 C1576 1.376 . S
C1580 C1579 1.392 . S
C1580 H1592 0.929 . S
C1581 C1577 1.531 . S
C1581 H1593 0.960 . S
C1581 H1594 0.962 . S
C1581 H1595 0.960 . S
C1582 C1579 1.511 . S
C1582 H1596 0.961 . S
C1582 H1597 0.961 . S
C1582 H1598 0.961 . S
C1583 C1584 1.370 1_545 S
C1583 C1585 1.363 1_545 S
C1583 H1599 0.931 . S
C1584 C1583 1.370 1_565 S
C1584 C1588 1.408 . S
C1585 C1583 1.363 1_565 S
C1585 C1586 1.370 . S
C1585 C1589 1.524 1_565 S
C1586 C1578 1.503 . S
C1586 C1585 1.370 . S
C1586 C1587 1.403 . S
C1587 C1586 1.403 . S
C1587 C1588 1.404 . S
C1587 C1590 1.539 . S
C1588 C1584 1.408 . S
C1588 C1587 1.404 . S
C1588 H1600 0.930 . S
C1589 C1585 1.524 1_545 S
C1589 H1601 0.956 . S
C1589 H1602 0.961 . S
C1589 H1603 0.961 . S
C1590 C1587 1.539 . S
C1590 H1604 0.958 . S
C1590 H1605 0.961 . S
C1590 H1606 0.960 . S
H1591 C1575 0.931 . S
H1592 C1580 0.929 . S
H1593 C1581 0.960 . S
H1594 C1581 0.962 . S
H1595 C1581 0.960 . S
H1596 C1582 0.961 . S
H1597 C1582 0.961 . S
H1598 C1582 0.961 . S
H1599 C1583 0.931 . S
H1600 C1588 0.930 . S
H1601 C1589 0.956 . S
H1602 C1589 0.961 . S
H1603 C1589 0.961 . S
H1604 C1590 0.958 . S
H1605 C1590 0.961 . S
H1606 C1590 0.960 . S
C1607 C1608 1.391 . S
C1607 C1609 1.394 . S
C1607 H1623 0.931 . S
C1608 C1607 1.391 . S
C1608 C1612 1.376 . S
C1609 C1607 1.394 . S
C1609 C1610 1.369 . S
C1609 C1613 1.531 . S
C1610 C1609 1.369 . S
C1610 C1611 1.410 . S
C1610 C1618 1.503 . S
C1611 C1610 1.410 . S
C1611 C1612 1.392 . S
C1611 C1614 1.511 . S
C1612 C1608 1.376 . S
C1612 C1611 1.392 . S
C1612 H1624 0.929 . S
C1613 C1609 1.531 . S
C1613 H1625 0.960 . S
C1613 H1626 0.962 . S
C1613 H1627 0.960 . S
C1614 C1611 1.511 . S
C1614 H1628 0.961 . S
C1614 H1629 0.961 . S
C1614 H1630 0.961 . S
C1615 C1616 1.370 . S
C1615 C1617 1.363 . S
C1615 H1631 0.931 . S
C1616 C1615 1.370 . S
C1616 C1620 1.408 . S
C1617 C1615 1.363 . S
C1617 C1618 1.370 . S
C1617 C1621 1.524 . S
C1618 C1610 1.503 . S
C1618 C1617 1.370 . S
C1618 C1619 1.403 . S
C1619 C1618 1.403 . S
C1619 C1620 1.404 . S
C1619 C1622 1.539 1_455 S
C1620 C1616 1.408 . S
C1620 C1619 1.404 . S
C1620 H1632 0.930 1_455 S
C1621 C1617 1.524 . S
C1621 H1633 0.956 . S
C1621 H1634 0.961 . S
C1621 H1635 0.961 . S
C1622 C1619 1.539 1_655 S
C1622 H1636 0.958 . S
C1622 H1637 0.961 . S
C1622 H1638 0.960 1_655 S
H1623 C1607 0.931 . S
H1624 C1612 0.929 . S
H1625 C1613 0.960 . S
H1626 C1613 0.962 . S
H1627 C1613 0.960 . S
H1628 C1614 0.961 . S
H1629 C1614 0.961 . S
H1630 C1614 0.961 . S
H1631 C1615 0.931 . S
H1632 C1620 0.930 1_655 S
H1633 C1621 0.956 . S
H1634 C1621 0.961 . S
H1635 C1621 0.961 . S
H1636 C1622 0.958 . S
H1637 C1622 0.961 . S
H1638 C1622 0.960 1_455 S
C1639 C1640 1.391 . S
C1639 C1641 1.394 . S
C1639 H1655 0.931 . S
C1640 C1639 1.391 . S
C1640 C1644 1.376 . S
C1641 C1639 1.394 . S
C1641 C1642 1.369 . S
C1641 C1645 1.531 . S
C1642 C1641 1.369 . S
C1642 C1643 1.410 . S
C1642 C1650 1.503 . S
C1643 C1642 1.410 . S
C1643 C1644 1.392 . S
C1643 C1646 1.511 . S
C1644 C1640 1.376 . S
C1644 C1643 1.392 . S
C1644 H1656 0.929 . S
C1645 C1641 1.531 . S
C1645 H1657 0.960 . S
C1645 H1658 0.962 . S
C1645 H1659 0.960 . S
C1646 C1643 1.511 . S
C1646 H1660 0.961 . S
C1646 H1661 0.961 . S
C1646 H1662 0.961 . S
C1647 C1648 1.370 . S
C1647 C1649 1.363 . S
C1647 H1663 0.931 . S
C1648 C1647 1.370 . S
C1648 C1652 1.408 . S
C1649 C1647 1.363 . S
C1649 C1650 1.370 . S
C1649 C1653 1.524 . S
C1650 C1642 1.503 . S
C1650 C1649 1.370 . S
C1650 C1651 1.403 . S
C1651 C1650 1.403 . S
C1651 C1652 1.404 . S
C1651 C1654 1.539 . S
C1652 C1648 1.408 . S
C1652 C1651 1.404 . S
C1652 H1664 0.930 . S
C1653 C1649 1.524 . S
C1653 H1665 0.956 . S
C1653 H1666 0.961 . S
C1653 H1667 0.961 . S
C1654 C1651 1.539 . S
C1654 H1668 0.958 . S
C1654 H1669 0.961 . S
C1654 H1670 0.960 . S
H1655 C1639 0.931 . S
H1656 C1644 0.929 . S
H1657 C1645 0.960 . S
H1658 C1645 0.962 . S
H1659 C1645 0.960 . S
H1660 C1646 0.961 . S
H1661 C1646 0.961 . S
H1662 C1646 0.961 . S
H1663 C1647 0.931 . S
H1664 C1652 0.930 . S
H1665 C1653 0.956 . S
H1666 C1653 0.961 . S
H1667 C1653 0.961 . S
H1668 C1654 0.958 . S
H1669 C1654 0.961 . S
H1670 C1654 0.960 . S
C1671 C1672 1.391 . S
C1671 C1673 1.394 . S
C1671 H1687 0.931 . S
C1672 C1671 1.391 . S
C1672 C1676 1.376 . S
C1673 C1671 1.394 . S
C1673 C1674 1.369 . S
C1673 C1677 1.531 . S
C1674 C1673 1.369 . S
C1674 C1675 1.410 . S
C1674 C1682 1.503 . S
C1675 C1674 1.410 . S
C1675 C1676 1.392 . S
C1675 C1678 1.529 . S
C1676 C1672 1.376 . S
C1676 C1675 1.392 . S
C1676 H1688 0.929 . S
C1677 C1673 1.531 . S
C1677 H1689 0.960 . S
C1677 H1690 0.962 . S
C1677 H1691 0.960 . S
C1678 C1675 1.529 . S
C1678 H1692 0.971 1_655 S
C1678 H1693 0.960 . S
C1678 H1694 0.930 1_655 S
C1679 C1680 1.370 . S
C1679 C1681 1.363 . S
C1679 H1695 0.931 . S
C1680 C1679 1.370 . S
C1680 C1684 1.408 . S
C1681 C1679 1.363 . S
C1681 C1682 1.370 . S
C1681 C1685 1.524 . S
C1682 C1674 1.503 . S
C1682 C1681 1.370 . S
C1682 C1683 1.403 . S
C1683 C1682 1.403 . S
C1683 C1684 1.404 . S
C1683 C1686 1.539 . S
C1684 C1680 1.408 . S
C1684 C1683 1.404 . S
C1684 H1696 0.930 1_655 S
C1685 C1681 1.524 . S
C1685 H1697 0.956 . S
C1685 H1698 0.961 . S
C1685 H1699 0.961 . S
C1686 C1683 1.539 . S
C1686 H1700 0.958 . S
C1686 H1701 0.961 1_655 S
C1686 H1702 0.960 . S
H1687 C1671 0.931 . S
H1688 C1676 0.929 . S
H1689 C1677 0.960 . S
H1690 C1677 0.962 . S
H1691 C1677 0.960 . S
H1692 C1678 0.971 1_455 S
H1693 C1678 0.960 . S
H1694 C1678 0.930 1_455 S
H1695 C1679 0.931 . S
H1696 C1684 0.930 1_455 S
H1697 C1685 0.956 . S
H1698 C1685 0.961 . S
H1699 C1685 0.961 . S
H1700 C1686 0.958 . S
H1701 C1686 0.961 1_455 S
H1702 C1686 0.960 . S
C1703 C1704 1.391 . S
C1703 C1705 1.394 . S
C1703 H1719 0.931 . S
C1704 C1703 1.391 . S
C1704 C1708 1.376 . S
C1705 C1703 1.394 . S
C1705 C1706 1.369 . S
C1705 C1709 1.531 . S
C1706 C1705 1.369 . S
C1706 C1707 1.410 . S
C1706 C1714 1.503 . S
C1707 C1706 1.410 . S
C1707 C1708 1.392 . S
C1707 C1710 1.511 . S
C1708 C1704 1.376 . S
C1708 C1707 1.392 . S
C1708 H1720 0.929 . S
C1709 C1705 1.531 . S
C1709 H1721 0.960 . S
C1709 H1722 0.962 . S
C1709 H1723 0.960 . S
C1710 C1707 1.511 . S
C1710 H1724 0.961 . S
C1710 H1725 0.961 . S
C1710 H1726 0.961 . S
C1711 C1712 1.370 . S
C1711 C1713 1.363 . S
C1711 H1727 0.931 . S
C1712 C1711 1.370 . S
C1712 C1716 1.408 . S
C1713 C1711 1.363 . S
C1713 C1714 1.370 . S
C1713 C1717 1.524 . S
C1714 C1706 1.503 . S
C1714 C1713 1.370 . S
C1714 C1715 1.403 . S
C1715 C1714 1.403 . S
C1715 C1716 1.404 . S
C1715 C1718 1.539 . S
C1716 C1712 1.408 . S
C1716 C1715 1.404 . S
C1716 H1728 0.930 . S
C1717 C1713 1.524 . S
C1717 H1729 0.956 . S
C1717 H1730 0.961 . S
C1717 H1731 0.961 . S
C1718 C1715 1.539 . S
C1718 H1732 0.958 . S
C1718 H1733 0.961 . S
C1718 H1734 0.960 . S
H1719 C1703 0.931 . S
H1720 C1708 0.929 . S
H1721 C1709 0.960 . S
H1722 C1709 0.962 . S
H1723 C1709 0.960 . S
H1724 C1710 0.961 . S
H1725 C1710 0.961 . S
H1726 C1710 0.961 . S
H1727 C1711 0.931 . S
H1728 C1716 0.930 . S
H1729 C1717 0.956 . S
H1730 C1717 0.961 . S
H1731 C1717 0.961 . S
H1732 C1718 0.958 . S
H1733 C1718 0.961 . S
H1734 C1718 0.960 . S
C1735 C1736 1.391 . S
C1735 C1737 1.394 . S
C1735 H1751 0.931 . S
C1736 C1735 1.391 . S
C1736 C1740 1.376 . S
C1737 C1735 1.394 . S
C1737 C1738 1.369 . S
C1737 C1741 1.531 . S
C1738 C1737 1.369 . S
C1738 C1739 1.410 . S
C1738 C1746 1.503 . S
C1739 C1738 1.410 . S
C1739 C1740 1.392 . S
C1739 C1742 1.511 . S
C1740 C1736 1.376 . S
C1740 C1739 1.392 . S
C1740 H1752 0.929 . S
C1741 C1737 1.531 . S
C1741 H1753 0.960 . S
C1741 H1754 0.962 . S
C1741 H1755 0.960 . S
C1742 C1739 1.511 . S
C1742 H1756 0.961 . S
C1742 H1757 0.961 . S
C1742 H1758 0.961 . S
C1743 C1744 1.370 . S
C1743 C1745 1.363 . S
C1743 H1759 0.947 . S
C1744 C1743 1.370 . S
C1744 C1748 1.408 . S
C1745 C1743 1.363 . S
C1745 C1746 1.370 . S
C1745 C1749 1.524 . S
C1746 C1738 1.503 . S
C1746 C1745 1.370 . S
C1746 C1747 1.403 . S
C1747 C1746 1.403 . S
C1747 C1748 1.404 . S
C1747 C1750 1.539 . S
C1748 C1744 1.408 . S
C1748 C1747 1.404 . S
C1748 H1760 0.930 . S
C1749 C1745 1.524 . S
C1749 H1761 0.956 . S
C1749 H1762 0.961 . S
C1749 H1763 0.961 1_545 S
C1750 C1747 1.539 . S
C1750 H1764 0.958 . S
C1750 H1765 0.961 . S
C1750 H1766 0.960 . S
H1751 C1735 0.931 . S
H1752 C1740 0.929 . S
H1753 C1741 0.960 . S
H1754 C1741 0.962 . S
H1755 C1741 0.960 . S
H1756 C1742 0.961 . S
H1757 C1742 0.961 . S
H1758 C1742 0.961 . S
H1759 C1743 0.947 . S
H1760 C1748 0.930 . S
H1761 C1749 0.956 . S
H1762 C1749 0.961 . S
H1763 C1749 0.961 1_565 S
H1764 C1750 0.958 . S
H1765 C1750 0.961 . S
H1766 C1750 0.960 . S
C1767 C1768 1.391 . S
C1767 C1769 1.394 . S
C1767 H1783 0.931 . S
C1768 C1767 1.391 . S
C1768 C1772 1.376 . S
C1769 C1767 1.394 . S
C1769 C1770 1.369 . S
C1769 C1773 1.531 . S
C1770 C1769 1.369 . S
C1770 C1771 1.410 . S
C1770 C1778 1.503 . S
C1771 C1770 1.410 . S
C1771 C1772 1.392 . S
C1771 C1774 1.511 . S
C1772 C1768 1.376 . S
C1772 C1771 1.392 . S
C1772 H1784 0.929 . S
C1773 C1769 1.531 . S
C1773 H1785 0.960 . S
C1773 H1786 0.962 . S
C1773 H1787 0.960 . S
C1774 C1771 1.511 . S
C1774 H1788 0.961 . S
C1774 H1789 0.961 . S
C1774 H1790 0.961 . S
C1775 C1776 1.370 . S
C1775 C1777 1.363 . S
C1775 H1791 0.931 . S
C1776 C1775 1.370 . S
C1776 C1780 1.408 . S
C1777 C1775 1.363 . S
C1777 C1778 1.370 . S
C1777 C1781 1.524 . S
C1778 C1770 1.503 . S
C1778 C1777 1.370 . S
C1778 C1779 1.403 . S
C1779 C1778 1.403 . S
C1779 C1780 1.404 . S
C1779 C1782 1.539 . S
C1780 C1776 1.408 . S
C1780 C1779 1.404 . S
C1780 H1792 0.930 . S
C1781 C1777 1.524 . S
C1781 H1793 0.956 . S
C1781 H1794 0.961 . S
C1781 H1795 0.961 . S
C1782 C1779 1.539 . S
C1782 H1796 0.958 . S
C1782 H1797 0.961 . S
C1782 H1798 0.960 . S
H1783 C1767 0.931 . S
H1784 C1772 0.929 . S
H1785 C1773 0.960 . S
H1786 C1773 0.962 . S
H1787 C1773 0.960 . S
H1788 C1774 0.961 . S
H1789 C1774 0.961 . S
H1790 C1774 0.961 . S
H1791 C1775 0.931 . S
H1792 C1780 0.930 . S
H1793 C1781 0.956 . S
H1794 C1781 0.961 . S
H1795 C1781 0.961 . S
H1796 C1782 0.958 . S
H1797 C1782 0.961 . S
H1798 C1782 0.960 . S
C1799 C1800 1.391 . S
C1799 C1801 1.394 . S
C1799 H1815 0.931 . S
C1800 C1799 1.391 . S
C1800 C1804 1.376 . S
C1801 C1799 1.394 . S
C1801 C1802 1.369 . S
C1801 C1805 1.531 . S
C1802 C1801 1.369 . S
C1802 C1803 1.410 . S
C1802 C1810 1.503 . S
C1803 C1802 1.410 . S
C1803 C1804 1.392 . S
C1803 C1806 1.511 . S
C1804 C1800 1.376 . S
C1804 C1803 1.392 . S
C1804 H1816 0.929 . S
C1805 C1801 1.531 . S
C1805 H1817 0.960 . S
C1805 H1818 0.962 . S
C1805 H1819 0.960 . S
C1806 C1803 1.511 . S
C1806 H1820 0.961 . S
C1806 H1821 0.961 . S
C1806 H1822 0.961 . S
C1807 C1808 1.370 . S
C1807 C1809 1.363 . S
C1807 H1823 0.931 . S
C1808 C1807 1.370 . S
C1808 C1812 1.408 . S
C1809 C1807 1.363 . S
C1809 C1810 1.370 . S
C1809 C1813 1.524 . S
C1810 C1802 1.503 . S
C1810 C1809 1.370 . S
C1810 C1811 1.403 . S
C1811 C1810 1.403 . S
C1811 C1812 1.404 . S
C1811 C1814 1.539 . S
C1812 C1808 1.408 . S
C1812 C1811 1.404 . S
C1812 H1824 0.930 . S
C1813 C1809 1.524 . S
C1813 H1825 0.956 . S
C1813 H1826 0.961 . S
C1813 H1827 0.961 . S
C1814 C1811 1.539 . S
C1814 H1828 0.958 . S
C1814 H1829 0.961 . S
C1814 H1830 0.960 . S
H1815 C1799 0.931 . S
H1816 C1804 0.929 . S
H1817 C1805 0.960 . S
H1818 C1805 0.962 . S
H1819 C1805 0.960 . S
H1820 C1806 0.961 . S
H1821 C1806 0.961 . S
H1822 C1806 0.961 . S
H1823 C1807 0.931 . S
H1824 C1812 0.930 . S
H1825 C1813 0.956 . S
H1826 C1813 0.961 . S
H1827 C1813 0.961 . S
H1828 C1814 0.958 . S
H1829 C1814 0.961 . S
H1830 C1814 0.960 . S
C1831 C1832 1.391 . S
C1831 C1833 1.394 . S
C1831 H1847 0.931 . S
C1832 C1831 1.391 . S
C1832 C1836 1.376 . S
C1833 C1831 1.394 . S
C1833 C1834 1.369 . S
C1833 C1837 1.531 . S
C1834 C1833 1.369 . S
C1834 C1835 1.410 . S
C1834 C1842 1.503 . S
C1835 C1834 1.410 . S
C1835 C1836 1.392 . S
C1835 C1838 1.511 . S
C1836 C1832 1.376 . S
C1836 C1835 1.392 . S
C1836 H1848 0.929 . S
C1837 C1833 1.531 . S
C1837 H1849 0.960 . S
C1837 H1850 0.962 . S
C1837 H1851 0.960 . S
C1838 C1835 1.511 . S
C1838 H1852 0.961 . S
C1838 H1853 0.961 . S
C1838 H1854 0.961 . S
C1839 C1840 1.370 . S
C1839 C1841 1.363 . S
C1839 H1855 0.931 . S
C1840 C1839 1.370 . S
C1840 C1844 1.408 . S
C1841 C1839 1.363 . S
C1841 C1842 1.370 . S
C1841 C1845 1.524 . S
C1842 C1834 1.503 . S
C1842 C1841 1.370 . S
C1842 C1843 1.403 . S
C1843 C1842 1.403 . S
C1843 C1844 1.404 . S
C1843 C1846 1.539 . S
C1844 C1840 1.408 . S
C1844 C1843 1.404 . S
C1844 H1856 0.930 . S
C1845 C1841 1.524 . S
C1845 H1857 0.956 . S
C1845 H1858 0.961 . S
C1845 H1859 0.961 . S
C1846 C1843 1.539 . S
C1846 H1860 0.958 . S
C1846 H1861 0.961 . S
C1846 H1862 0.960 . S
H1847 C1831 0.931 . S
H1848 C1836 0.929 . S
H1849 C1837 0.960 . S
H1850 C1837 0.962 . S
H1851 C1837 0.960 . S
H1852 C1838 0.961 . S
H1853 C1838 0.961 . S
H1854 C1838 0.961 . S
H1855 C1839 0.931 . S
H1856 C1844 0.930 . S
H1857 C1845 0.956 . S
H1858 C1845 0.961 . S
H1859 C1845 0.961 . S
H1860 C1846 0.958 . S
H1861 C1846 0.961 . S
H1862 C1846 0.960 . S
C1863 C1864 1.391 . S
C1863 C1865 1.394 . S
C1863 H1879 0.931 . S
C1864 C1863 1.391 . S
C1864 C1868 1.376 . S
C1865 C1863 1.394 . S
C1865 C1866 1.369 . S
C1865 C1869 1.531 . S
C1866 C1865 1.369 . S
C1866 C1867 1.410 . S
C1866 C1874 1.503 . S
C1867 C1866 1.410 . S
C1867 C1868 1.392 . S
C1867 C1870 1.511 . S
C1868 C1864 1.376 . S
C1868 C1867 1.392 . S
C1868 H1880 0.929 . S
C1869 C1865 1.531 . S
C1869 H1881 0.960 . S
C1869 H1882 0.962 . S
C1869 H1883 0.960 . S
C1870 C1867 1.511 . S
C1870 H1884 0.961 . S
C1870 H1885 0.961 . S
C1870 H1886 0.961 . S
C1871 C1872 1.370 . S
C1871 C1873 1.363 . S
C1871 H1887 0.931 . S
C1872 C1871 1.370 . S
C1872 C1876 1.408 . S
C1873 C1871 1.363 . S
C1873 C1874 1.370 . S
C1873 C1877 1.524 . S
C1874 C1866 1.503 . S
C1874 C1873 1.370 . S
C1874 C1875 1.403 . S
C1875 C1874 1.403 . S
C1875 C1876 1.404 . S
C1875 C1878 1.539 . S
C1876 C1872 1.408 . S
C1876 C1875 1.404 . S
C1876 H1888 0.930 . S
C1877 C1873 1.524 . S
C1877 H1889 0.956 . S
C1877 H1890 0.961 . S
C1877 H1891 0.961 . S
C1878 C1875 1.539 . S
C1878 H1892 0.958 . S
C1878 H1893 0.961 . S
C1878 H1894 0.960 . S
H1879 C1863 0.931 . S
H1880 C1868 0.929 . S
H1881 C1869 0.960 . S
H1882 C1869 0.962 . S
H1883 C1869 0.960 . S
H1884 C1870 0.961 . S
H1885 C1870 0.961 . S
H1886 C1870 0.961 . S
H1887 C1871 0.931 . S
H1888 C1876 0.930 . S
H1889 C1877 0.956 . S
H1890 C1877 0.961 . S
H1891 C1877 0.961 . S
H1892 C1878 0.958 . S
H1893 C1878 0.961 . S
H1894 C1878 0.960 . S
C1895 C1896 1.391 . S
C1895 C1897 1.394 . S
C1895 H1911 0.931 . S
C1896 C1895 1.391 . S
C1896 C1900 1.376 . S
C1897 C1895 1.394 . S
C1897 C1898 1.369 . S
C1897 C1901 1.531 . S
C1898 C1897 1.369 . S
C1898 C1899 1.410 . S
C1898 C1906 1.503 . S
C1899 C1898 1.410 . S
C1899 C1900 1.392 . S
C1899 C1902 1.511 . S
C1900 C1896 1.376 . S
C1900 C1899 1.392 . S
C1900 H1912 0.929 . S
C1901 C1897 1.531 . S
C1901 H1913 0.960 . S
C1901 H1914 0.962 . S
C1901 H1915 0.960 . S
C1902 C1899 1.511 . S
C1902 H1916 0.961 . S
C1902 H1917 0.961 . S
C1902 H1918 0.961 . S
C1903 C1904 1.370 . S
C1903 C1905 1.363 . S
C1903 H1919 0.931 . S
C1904 C1903 1.370 . S
C1904 C1908 1.408 . S
C1905 C1903 1.363 . S
C1905 C1906 1.370 . S
C1905 C1909 1.524 . S
C1906 C1898 1.503 . S
C1906 C1905 1.370 . S
C1906 C1907 1.403 . S
C1907 C1906 1.403 . S
C1907 C1908 1.404 . S
C1907 C1910 1.539 . S
C1908 C1904 1.408 . S
C1908 C1907 1.404 . S
C1908 H1920 0.930 . S
C1909 C1905 1.524 . S
C1909 H1921 0.956 . S
C1909 H1922 0.961 . S
C1909 H1923 0.961 . S
C1910 C1907 1.539 . S
C1910 H1924 0.958 . S
C1910 H1925 0.961 . S
C1910 H1926 0.960 . S
H1911 C1895 0.931 . S
H1912 C1900 0.929 . S
H1913 C1901 0.960 . S
H1914 C1901 0.962 . S
H1915 C1901 0.960 . S
H1916 C1902 0.961 . S
H1917 C1902 0.961 . S
H1918 C1902 0.961 . S
H1919 C1903 0.931 . S
H1920 C1908 0.930 . S
H1921 C1909 0.956 . S
H1922 C1909 0.961 . S
H1923 C1909 0.961 . S
H1924 C1910 0.958 . S
H1925 C1910 0.961 . S
H1926 C1910 0.960 . S
C1927 C1928 1.391 . S
C1927 C1929 1.394 . S
C1927 H1943 0.931 . S
C1928 C1927 1.391 . S
C1928 C1932 1.376 . S
C1929 C1927 1.394 . S
C1929 C1930 1.369 . S
C1929 C1933 1.531 . S
C1930 C1929 1.369 . S
C1930 C1931 1.410 . S
C1930 C1938 1.503 . S
C1931 C1930 1.410 . S
C1931 C1932 1.392 . S
C1931 C1934 1.511 . S
C1932 C1928 1.376 . S
C1932 C1931 1.392 . S
C1932 H1944 0.929 . S
C1933 C1929 1.531 . S
C1933 H1945 0.960 . S
C1933 H1946 0.962 . S
C1933 H1947 0.960 . S
C1934 C1931 1.511 . S
C1934 H1948 0.961 . S
C1934 H1949 0.961 . S
C1934 H1950 0.961 . S
C1935 C1936 1.370 . S
C1935 C1937 1.363 . S
C1935 H1951 0.931 . S
C1936 C1935 1.370 . S
C1936 C1940 1.408 . S
C1937 C1935 1.363 . S
C1937 C1938 1.370 . S
C1937 C1941 1.524 . S
C1938 C1930 1.503 . S
C1938 C1937 1.370 . S
C1938 C1939 1.403 . S
C1939 C1938 1.403 . S
C1939 C1940 1.404 . S
C1939 C1942 1.539 . S
C1940 C1936 1.408 . S
C1940 C1939 1.404 . S
C1940 H1952 0.930 . S
C1941 C1937 1.524 . S
C1941 H1953 0.956 . S
C1941 H1954 0.961 . S
C1941 H1955 0.961 . S
C1942 C1939 1.539 . S
C1942 H1956 0.958 . S
C1942 H1957 0.961 . S
C1942 H1958 0.960 . S
H1943 C1927 0.931 . S
H1944 C1932 0.929 . S
H1945 C1933 0.960 . S
H1946 C1933 0.962 . S
H1947 C1933 0.960 . S
H1948 C1934 0.961 . S
H1949 C1934 0.961 . S
H1950 C1934 0.961 . S
H1951 C1935 0.931 . S
H1952 C1940 0.930 . S
H1953 C1941 0.956 . S
H1954 C1941 0.961 . S
H1955 C1941 0.961 . S
H1956 C1942 0.958 . S
H1957 C1942 0.961 . S
H1958 C1942 0.960 . S
C1959 C1960 1.391 . S
C1959 C1961 1.394 . S
C1959 H1975 0.931 . S
C1960 C1959 1.391 . S
C1960 C1964 1.376 . S
C1961 C1959 1.394 . S
C1961 C1962 1.369 . S
C1961 C1965 1.531 . S
C1962 C1961 1.369 . S
C1962 C1963 1.410 . S
C1962 C1970 1.503 . S
C1963 C1962 1.410 . S
C1963 C1964 1.392 . S
C1963 C1966 1.511 . S
C1964 C1960 1.376 . S
C1964 C1963 1.392 . S
C1964 H1976 0.929 . S
C1965 C1961 1.531 . S
C1965 H1977 0.960 . S
C1965 H1978 0.962 . S
C1965 H1979 0.960 . S
C1966 C1963 1.511 . S
C1966 H1980 0.961 . S
C1966 H1981 0.961 . S
C1966 H1982 0.961 . S
C1967 C1968 1.370 . S
C1967 C1969 1.363 . S
C1967 H1983 0.931 . S
C1968 C1967 1.370 . S
C1968 C1972 1.408 . S
C1969 C1967 1.363 . S
C1969 C1970 1.370 . S
C1969 C1973 1.524 . S
C1970 C1962 1.503 . S
C1970 C1969 1.370 . S
C1970 C1971 1.403 . S
C1971 C1970 1.403 . S
C1971 C1972 1.404 . S
C1971 C1974 1.539 . S
C1972 C1968 1.408 . S
C1972 C1971 1.404 . S
C1972 H1984 0.930 . S
C1973 C1969 1.524 . S
C1973 H1985 0.956 . S
C1973 H1986 0.961 . S
C1973 H1987 0.961 . S
C1974 C1971 1.539 . S
C1974 H1988 0.958 . S
C1974 H1989 0.961 . S
C1974 H1990 0.960 . S
H1975 C1959 0.931 . S
H1976 C1964 0.929 . S
H1977 C1965 0.960 . S
H1978 C1965 0.962 . S
H1979 C1965 0.960 . S
H1980 C1966 0.961 . S
H1981 C1966 0.961 . S
H1982 C1966 0.961 . S
H1983 C1967 0.931 . S
H1984 C1972 0.930 . S
H1985 C1973 0.956 . S
H1986 C1973 0.961 . S
H1987 C1973 0.961 . S
H1988 C1974 0.958 . S
H1989 C1974 0.961 . S
H1990 C1974 0.960 . S
C1991 C1992 1.391 . S
C1991 C1993 1.394 . S
C1991 H2007 0.931 . S
C1992 C1991 1.391 . S
C1992 C1996 1.376 . S
C1993 C1991 1.394 . S
C1993 C1994 1.369 . S
C1993 C1997 1.531 . S
C1994 C1993 1.369 . S
C1994 C1995 1.410 . S
C1994 C2002 1.503 . S
C1995 C1994 1.410 . S
C1995 C1996 1.392 . S
C1995 C1998 1.511 . S
C1996 C1992 1.376 . S
C1996 C1995 1.392 . S
C1996 H2008 0.929 . S
C1997 C1993 1.531 . S
C1997 H2009 0.960 . S
C1997 H2010 0.962 . S
C1997 H2011 0.960 . S
C1998 C1995 1.511 . S
C1998 H2012 0.961 . S
C1998 H2013 0.961 . S
C1998 H2014 0.961 . S
C1999 C2000 1.370 . S
C1999 C2001 1.363 . S
C1999 H2015 0.931 . S
C2000 C1999 1.370 . S
C2000 C2004 1.408 . S
C2001 C1999 1.363 . S
C2001 C2002 1.370 . S
C2001 C2005 1.524 . S
C2002 C1994 1.503 . S
C2002 C2001 1.370 . S
C2002 C2003 1.403 . S
C2003 C2002 1.403 . S
C2003 C2004 1.404 . S
C2003 C2006 1.539 . S
C2004 C2000 1.408 . S
C2004 C2003 1.404 . S
C2004 H2016 0.930 . S
C2005 C2001 1.524 . S
C2005 H2017 0.956 . S
C2005 H2018 0.961 . S
C2005 H2019 0.961 . S
C2006 C2003 1.539 . S
C2006 H2020 0.958 . S
C2006 H2021 0.961 . S
C2006 H2022 0.960 . S
H2007 C1991 0.931 . S
H2008 C1996 0.929 . S
H2009 C1997 0.960 . S
H2010 C1997 0.962 . S
H2011 C1997 0.960 . S
H2012 C1998 0.961 . S
H2013 C1998 0.961 . S
H2014 C1998 0.961 . S
H2015 C1999 0.931 . S
H2016 C2004 0.930 . S
H2017 C2005 0.956 . S
H2018 C2005 0.961 . S
H2019 C2005 0.961 . S
H2020 C2006 0.958 . S
H2021 C2006 0.961 . S
H2022 C2006 0.960 . S
C2023 C2024 1.391 . S
C2023 C2025 1.394 . S
C2023 H2039 0.931 . S
C2024 C2023 1.391 . S
C2024 C2028 1.376 . S
C2025 C2023 1.394 . S
C2025 C2026 1.369 . S
C2025 C2029 1.531 . S
C2026 C2025 1.369 . S
C2026 C2027 1.410 . S
C2026 C2034 1.503 . S
C2027 C2026 1.410 . S
C2027 C2028 1.392 . S
C2027 C2030 1.511 . S
C2028 C2024 1.376 . S
C2028 C2027 1.392 . S
C2028 H2040 0.929 . S
C2029 C2025 1.531 . S
C2029 H2041 0.960 . S
C2029 H2042 0.962 . S
C2029 H2043 0.960 . S
C2030 C2027 1.511 . S
C2030 H2044 0.961 . S
C2030 H2045 0.961 . S
C2030 H2046 0.961 . S
C2031 C2032 1.370 . S
C2031 C2033 1.363 . S
C2031 H2047 0.931 . S
C2032 C2031 1.370 . S
C2032 C2036 1.408 . S
C2033 C2031 1.363 . S
C2033 C2034 1.370 . S
C2033 C2037 1.524 . S
C2034 C2026 1.503 . S
C2034 C2033 1.370 . S
C2034 C2035 1.403 . S
C2035 C2034 1.403 . S
C2035 C2036 1.404 . S
C2035 C2038 1.539 . S
C2036 C2032 1.408 . S
C2036 C2035 1.404 . S
C2036 H2048 0.930 . S
C2037 C2033 1.524 . S
C2037 H2049 0.956 . S
C2037 H2050 0.961 . S
C2037 H2051 0.961 . S
C2038 C2035 1.539 . S
C2038 H2052 0.958 . S
C2038 H2053 0.961 . S
C2038 H2054 0.960 . S
H2039 C2023 0.931 . S
H2040 C2028 0.929 . S
H2041 C2029 0.960 . S
H2042 C2029 0.962 . S
H2043 C2029 0.960 . S
H2044 C2030 0.961 . S
H2045 C2030 0.961 . S
H2046 C2030 0.961 . S
H2047 C2031 0.931 . S
H2048 C2036 0.930 . S
H2049 C2037 0.956 . S
H2050 C2037 0.961 . S
H2051 C2037 0.961 . S
H2052 C2038 0.958 . S
H2053 C2038 0.961 . S
H2054 C2038 0.960 . S
C2055 C2056 1.391 . S
C2055 C2057 1.394 . S
C2055 H2071 0.931 . S
C2056 C2055 1.391 . S
C2056 C2060 1.376 . S
C2057 C2055 1.394 . S
C2057 C2058 1.369 . S
C2057 C2061 1.531 . S
C2058 C2057 1.369 . S
C2058 C2059 1.410 . S
C2058 C2066 1.503 . S
C2059 C2058 1.410 . S
C2059 C2060 1.392 . S
C2059 C2062 1.511 . S
C2060 C2056 1.376 . S
C2060 C2059 1.392 . S
C2060 H2072 0.929 . S
C2061 C2057 1.531 . S
C2061 H2073 0.960 . S
C2061 H2074 0.962 . S
C2061 H2075 0.960 . S
C2062 C2059 1.511 . S
C2062 H2076 0.961 . S
C2062 H2077 0.961 . S
C2062 H2078 0.961 . S
C2063 C2064 1.370 . S
C2063 C2065 1.363 . S
C2063 H2079 0.931 . S
C2064 C2063 1.370 . S
C2064 C2068 1.408 . S
C2065 C2063 1.363 . S
C2065 C2066 1.370 . S
C2065 C2069 1.524 . S
C2066 C2058 1.503 . S
C2066 C2065 1.370 . S
C2066 C2067 1.403 . S
C2067 C2066 1.403 . S
C2067 C2068 1.404 . S
C2067 C2070 1.539 . S
C2068 C2064 1.408 . S
C2068 C2067 1.404 . S
C2068 H2080 0.930 . S
C2069 C2065 1.524 . S
C2069 H2081 0.956 . S
C2069 H2082 0.961 . S
C2069 H2083 0.961 . S
C2070 C2067 1.539 . S
C2070 H2084 0.958 . S
C2070 H2085 0.961 . S
C2070 H2086 0.960 . S
H2071 C2055 0.931 . S
H2072 C2060 0.929 . S
H2073 C2061 0.960 . S
H2074 C2061 0.962 . S
H2075 C2061 0.960 . S
H2076 C2062 0.961 . S
H2077 C2062 0.961 . S
H2078 C2062 0.961 . S
H2079 C2063 0.931 . S
H2080 C2068 0.930 . S
H2081 C2069 0.956 . S
H2082 C2069 0.961 . S
H2083 C2069 0.961 . S
H2084 C2070 0.958 . S
H2085 C2070 0.961 . S
H2086 C2070 0.960 . S
C2087 C2088 1.391 . S
C2087 C2089 1.394 . S
C2087 H2103 0.931 . S
C2088 C2087 1.391 . S
C2088 C2092 1.376 . S
C2089 C2087 1.394 . S
C2089 C2090 1.369 . S
C2089 C2093 1.531 . S
C2090 C2089 1.369 . S
C2090 C2091 1.410 . S
C2090 C2098 1.503 . S
C2091 C2090 1.410 . S
C2091 C2092 1.392 . S
C2091 C2094 1.511 . S
C2092 C2088 1.376 . S
C2092 C2091 1.392 . S
C2092 H2104 0.929 . S
C2093 C2089 1.531 . S
C2093 H2105 0.960 . S
C2093 H2106 0.962 . S
C2093 H2107 0.960 . S
C2094 C2091 1.511 . S
C2094 H2108 0.961 . S
C2094 H2109 0.961 . S
C2094 H2110 0.961 . S
C2095 C2096 1.370 . S
C2095 C2097 1.363 . S
C2095 H2111 0.931 . S
C2096 C2095 1.370 . S
C2096 C2100 1.408 . S
C2097 C2095 1.363 . S
C2097 C2098 1.370 . S
C2097 C2101 1.524 . S
C2098 C2090 1.503 . S
C2098 C2097 1.370 . S
C2098 C2099 1.403 . S
C2099 C2098 1.403 . S
C2099 C2100 1.404 . S
C2099 C2102 1.539 . S
C2100 C2096 1.408 . S
C2100 C2099 1.404 . S
C2100 H2112 0.930 . S
C2101 C2097 1.524 . S
C2101 H2113 0.956 . S
C2101 H2114 0.961 . S
C2101 H2115 0.961 . S
C2102 C2099 1.539 . S
C2102 H2116 0.958 . S
C2102 H2117 0.961 . S
C2102 H2118 0.960 . S
H2103 C2087 0.931 . S
H2104 C2092 0.929 . S
H2105 C2093 0.960 . S
H2106 C2093 0.962 . S
H2107 C2093 0.960 . S
H2108 C2094 0.961 . S
H2109 C2094 0.961 . S
H2110 C2094 0.961 . S
H2111 C2095 0.931 . S
H2112 C2100 0.930 . S
H2113 C2101 0.956 . S
H2114 C2101 0.961 . S
H2115 C2101 0.961 . S
H2116 C2102 0.958 . S
H2117 C2102 0.961 . S
H2118 C2102 0.960 . S
C2119 C2120 1.391 . S
C2119 C2121 1.394 . S
C2119 H2135 0.931 . S
C2120 C2119 1.391 . S
C2120 C2124 1.376 . S
C2121 C2119 1.394 . S
C2121 C2122 1.369 . S
C2121 C2125 1.531 . S
C2122 C2121 1.369 . S
C2122 C2123 1.410 . S
C2122 C2130 1.503 . S
C2123 C2122 1.410 . S
C2123 C2124 1.392 . S
C2123 C2126 1.511 . S
C2124 C2120 1.376 . S
C2124 C2123 1.392 . S
C2124 H2136 0.929 . S
C2125 C2121 1.531 . S
C2125 H2137 0.960 . S
C2125 H2138 0.962 . S
C2125 H2139 0.960 . S
C2126 C2123 1.511 . S
C2126 H2140 0.961 . S
C2126 H2141 0.961 . S
C2126 H2142 0.961 . S
C2127 C2128 1.370 . S
C2127 C2129 1.363 . S
C2127 H2143 0.931 . S
C2128 C2127 1.370 . S
C2128 C2132 1.408 . S
C2129 C2127 1.363 . S
C2129 C2130 1.370 . S
C2129 C2133 1.524 . S
C2130 C2122 1.503 . S
C2130 C2129 1.370 . S
C2130 C2131 1.403 . S
C2131 C2130 1.403 . S
C2131 C2132 1.404 . S
C2131 C2134 1.539 . S
C2132 C2128 1.408 . S
C2132 C2131 1.404 . S
C2132 H2144 0.930 . S
C2133 C2129 1.524 . S
C2133 H2145 0.956 . S
C2133 H2146 0.961 . S
C2133 H2147 0.961 . S
C2134 C2131 1.539 . S
C2134 H2148 0.958 . S
C2134 H2149 0.961 . S
C2134 H2150 0.960 . S
H2135 C2119 0.931 . S
H2136 C2124 0.929 . S
H2137 C2125 0.960 . S
H2138 C2125 0.962 . S
H2139 C2125 0.960 . S
H2140 C2126 0.961 . S
H2141 C2126 0.961 . S
H2142 C2126 0.961 . S
H2143 C2127 0.931 . S
H2144 C2132 0.930 . S
H2145 C2133 0.956 . S
H2146 C2133 0.961 . S
H2147 C2133 0.961 . S
H2148 C2134 0.958 . S
H2149 C2134 0.961 . S
H2150 C2134 0.960 . S
C424 C177 1.408 . S
C432 C251 1.396 . S
C456 C190 1.390 . S
C464 C272 1.377 . S
C488 C164 1.351 . S
C496 C294 1.244 . S
C520 C151 1.384 1_554 S
C528 C273 1.190 . S
C560 C293 1.378 . S
C552 C125 1.435 1_554 S
C584 C138 1.413 . S
C592 C252 1.217 . S
C624 C247 1.418 . S
C616 C147 1.440 . S
C656 C268 1.390 . S
C648 C121 1.339 . S
C680 C134 1.486 . S
C688 C291 1.276 . S
C712 C173 1.374 . S
C720 C270 1.251 1_554 S
C744 C186 1.413 . S
C752 C289 1.400 . S
C784 C249 1.276 1_554 S
C776 C160 1.401 . S
C816 C314 1.403 . S
C808 C21 1.451 . S
C840 C34 1.431 . S
C848 C335 1.391 . S
C872 C8 1.382 . S
C880 C357 1.210 . S
C904 C229 1.341 . S
C912 C336 1.239 . S
C936 C203 1.437 . S
C944 C356 1.380 . S
C968 C216 1.372 . S
C976 C315 1.256 . S
C1000 C225 1.436 . S
C1008 C310 1.416 . S
C1032 C199 1.339 . S
C1040 C331 1.389 . S
C1072 C354 1.250 . S
C1064 C212 1.443 . S
C1096 C17 1.456 . S
C1104 C333 1.260 . S
C1136 C352 1.369 . S
C1128 C30 1.339 . S
C1160 C4 1.479 . S
C1168 C312 1.276 . S
C1200 C377 1.394 . S
C1192 C99 1.441 . S
C1224 C112 1.434 . S
C1232 C398 1.380 . S
C1264 C420 1.218 . S
C1256 C86 1.370 . S
C1296 C399 1.242 . S
C1288 C73 1.344 . S
C1328 C419 1.389 . S
C1320 C47 1.396 . S
C1352 C60 1.388 . S
C1360 C378 1.211 . S
C1384 C69 1.429 . S
C1392 C373 1.412 . S
C1416 C43 1.364 . S
C1424 C394 1.394 . S
C1456 C417 1.268 . S
C1448 C56 1.482 . S
C1480 C95 1.430 . S
C1488 C396 1.239 . S
C1512 C108 1.413 . S
C1520 C415 1.400 . S
C1544 C82 1.402 . S
C1552 C375 1.265 . S
C1576 C204 1.470 . S
C1584 C250 1.466 . S
C1616 C271 1.523 . S
C1608 C217 1.540 . S
C1640 C230 1.540 . S
C1648 C290 1.492 . S
C1672 C87 1.612 . S
C1680 C269 1.564 . S
C1704 C100 1.552 . S
C1712 C292 1.536 . S
C1744 C248 1.525 . S
C1736 C113 1.553 . S
C1768 C48 1.496 . S
C1776 C313 1.478 . S
C1800 C61 1.527 . S
C1808 C334 1.514 . S
C1832 C74 1.540 . S
C1840 C353 1.492 . S
C1864 C165 1.628 . S
C1872 C332 1.545 . S
C1904 C355 1.542 . S
C1896 C178 1.560 . S
C1928 C191 1.553 . S
C1936 C311 1.527 . S
C1960 C126 1.495 . S
C1968 C376 1.477 . S
C1992 C139 1.542 . S
C2000 C397 1.526 . S
C2032 C416 1.489 . S
C2024 C152 1.543 . S
C2056 C9 1.607 . S
C2064 C395 1.569 . S
C2088 C22 1.562 . S
C2096 C418 1.544 . S
C2120 C35 1.553 . S
C2128 C374 1.526 . S
