# Generated by pormake.
# Topology anh, (6,3)-cn, num edge types: 1
# Building blocks:
#     Node 0, Type 0, BuildingBlock: MIFKUJ_clean_sbu_0, # of connection points: 6
#     Node 1, Type 0, BuildingBlock: MIFKUJ_clean_sbu_0, # of connection points: 6
#     Node 2, Type 0, BuildingBlock: MIFKUJ_clean_sbu_0, # of connection points: 6
#     Node 3, Type 1, BuildingBlock: ESEHIV_clean_linker_0, # of connection points: 3
#     Node 4, Type 1, BuildingBlock: ESEHIV_clean_linker_0, # of connection points: 3
#     Node 5, Type 1, BuildingBlock: ESEHIV_clean_linker_0, # of connection points: 3
#     Node 6, Type 1, BuildingBlock: ESEHIV_clean_linker_0, # of connection points: 3
#     Node 7, Type 1, BuildingBlock: ESEHIV_clean_linker_0, # of connection points: 3
#     Node 8, Type 1, BuildingBlock: ESEHIV_clean_linker_0, # of connection points: 3
#     Edge 9, Type (0, 1), BuildingBlock: FUNLAD_clean_linker_1, # of connection points: 2
#     Edge 10, Type (0, 1), BuildingBlock: FUNLAD_clean_linker_1, # of connection points: 2
#     Edge 11, Type (0, 1), BuildingBlock: FUNLAD_clean_linker_1, # of connection points: 2
#     Edge 12, Type (0, 1), BuildingBlock: FUNLAD_clean_linker_1, # of connection points: 2
#     Edge 13, Type (0, 1), BuildingBlock: FUNLAD_clean_linker_1, # of connection points: 2
#     Edge 14, Type (0, 1), BuildingBlock: FUNLAD_clean_linker_1, # of connection points: 2
#     Edge 15, Type (0, 1), BuildingBlock: FUNLAD_clean_linker_1, # of connection points: 2
#     Edge 16, Type (0, 1), BuildingBlock: FUNLAD_clean_linker_1, # of connection points: 2
#     Edge 17, Type (0, 1), BuildingBlock: FUNLAD_clean_linker_1, # of connection points: 2
#     Edge 18, Type (0, 1), BuildingBlock: FUNLAD_clean_linker_1, # of connection points: 2
#     Edge 19, Type (0, 1), BuildingBlock: FUNLAD_clean_linker_1, # of connection points: 2
#     Edge 20, Type (0, 1), BuildingBlock: FUNLAD_clean_linker_1, # of connection points: 2
#     Edge 21, Type (0, 1), BuildingBlock: FUNLAD_clean_linker_1, # of connection points: 2
#     Edge 22, Type (0, 1), BuildingBlock: FUNLAD_clean_linker_1, # of connection points: 2
#     Edge 23, Type (0, 1), BuildingBlock: FUNLAD_clean_linker_1, # of connection points: 2
#     Edge 24, Type (0, 1), BuildingBlock: FUNLAD_clean_linker_1, # of connection points: 2
#     Edge 25, Type (0, 1), BuildingBlock: FUNLAD_clean_linker_1, # of connection points: 2
#     Edge 26, Type (0, 1), BuildingBlock: FUNLAD_clean_linker_1, # of connection points: 2
# Relax obj value: 0.135
# Max RMSD: 0.185
# Mean RMSD: 0.148
data_MOF--net-anh--node1-MIFKUJ_clean_sbu_0--node2-ESEHIV_clean_linker_0--edge1-FUNLAD_clean_linker_1
_symmetry_space_group_name_H-M    P1
_symmetry_Int_Tables_number       1
_symmetry_cell_setting            triclinic
loop_
_symmetry_equiv_pos_as_xyz
'x, y, z'
_cell_length_a     30.300453
_cell_length_b     30.373323
_cell_length_c     51.316749
_cell_angle_alpha  93.410025
_cell_angle_beta   90.925178
_cell_angle_gamma 120.50117
loop_
_atom_site_label
_atom_site_type_symbol
_atom_site_fract_x
_atom_site_fract_y
_atom_site_fract_z
_atom_type_partial_charge
Zn0 Zn 0.04639 0.53746 0.18303 0.0
Zn1 Zn 0.91565 0.51349 0.18033 0.0
C2 C 0.13925 0.54172 0.19778 0.0
O3 O 0.13689 0.56945 0.21773 0.0
C4 C 0.83265 0.52623 0.16455 0.0
O5 O 0.83534 0.50187 0.14315 0.0
O6 O 0.08541 0.61481 0.18418 0.0
O7 O 1.0019 0.50856 0.14985 0.0
O8 O 0.96488 0.55486 0.15351 0.0
C9 C 0.11808 0.6355 0.16697 0.0
O10 O 0.1209 0.60621 0.14796 0.0
O11 O 0.1026 0.52077 0.18037 0.0
C12 C 0.83243 0.41104 0.17653 0.0
O13 O 0.81922 0.43106 0.19612 0.0
O14 O 0.87451 0.43906 0.16603 0.0
O15 O 0.94067 0.51402 0.21694 0.0
O16 O 0.0147 0.51524 0.21742 0.0
O17 O 0.86479 0.53753 0.18359 0.0
C18 C 0.98785 0.53712 0.13998 0.0
C19 C 0.976 0.51105 0.22886 0.0
Zn20 Zn 0.5179 0.03413 0.48911 0.0
Zn21 Zn 0.51287 0.92193 0.48639 0.0
C22 C 0.6243 0.11096 0.50041 0.0
O23 O 0.60398 0.12382 0.51969 0.0
C24 C 0.41215 0.84312 0.46964 0.0
O25 O 0.43782 0.8438 0.44916 0.0
O26 O 0.50176 0.09073 0.49033 0.0
O27 O 0.47996 0.98882 0.45688 0.0
O28 O 0.5285 0.95439 0.4519 0.0
C29 C 0.52521 0.12723 0.47571 0.0
O30 O 0.55663 0.12552 0.45888 0.0
O31 O 0.59547 0.07102 0.48532 0.0
C32 C 0.52662 0.84684 0.50629 0.0
O33 O 0.5021 0.85617 0.52463 0.0
O34 O 0.53754 0.87175 0.486 0.0
O35 O 0.54552 0.96605 0.52002 0.0
O36 O 0.49952 0.00345 0.52357 0.0
O37 O 0.43547 0.87625 0.48885 0.0
C38 C 0.50105 0.97064 0.4422 0.0
C39 C 0.52468 0.98552 0.53401 0.0
Zn40 Zn 0.62417 0.54687 0.82667 0.0
Zn41 Zn 0.51051 0.5772 0.81907 0.0
C42 C 0.62057 0.45246 0.82909 0.0
O43 O 0.66008 0.48257 0.84522 0.0
C44 C 0.52847 0.66366 0.79247 0.0
O45 O 0.50458 0.62745 0.7735 0.0
O46 O 0.70124 0.58059 0.82923 0.0
O47 O 0.60393 0.5793 0.79992 0.0
O48 O 0.52296 0.54302 0.78752 0.0
C49 C 0.72444 0.57701 0.80951 0.0
O50 O 0.69837 0.55559 0.78716 0.0
O51 O 0.59646 0.47089 0.81777 0.0
C52 C 0.42228 0.5765 0.83497 0.0
O53 O 0.45856 0.61768 0.84844 0.0
O54 O 0.43452 0.54932 0.82055 0.0
O55 O 0.53553 0.56918 0.85446 0.0
O56 O 0.59957 0.55441 0.86173 0.0
O57 O 0.5395 0.65235 0.81414 0.0
C58 C 0.56745 0.55088 0.7834 0.0
C59 C 0.56439 0.56207 0.86986 0.0
H60 H 0.44913 0.93226 0.23643 0.0
H61 H 0.58828 0.07756 0.24377 0.0
H62 H 0.50089 0.02192 0.1698 0.0
C63 C 0.47603 0.96714 0.2279 0.0
C64 C 0.46889 0.97315 0.20147 0.0
C65 C 0.51872 0.00483 0.2432 0.0
C66 C 0.55524 0.04843 0.23181 0.0
C67 C 0.54959 0.05545 0.20544 0.0
C68 C 0.50635 0.01719 0.19012 0.0
H69 H 0.5923 0.59641 0.57804 0.0
H70 H 0.59868 0.45887 0.5821 0.0
H71 H 0.60367 0.51851 0.50777 0.0
C72 C 0.59431 0.56491 0.56827 0.0
C73 C 0.5971 0.56161 0.54091 0.0
C74 C 0.59517 0.52844 0.58344 0.0
C75 C 0.59962 0.48852 0.571 0.0
C76 C 0.60223 0.48463 0.54379 0.0
C77 C 0.60134 0.52138 0.52881 0.0
H78 H 0.99881 0.58514 0.93916 0.0
H79 H 0.14136 0.58671 0.94277 0.0
H80 H 0.07427 0.5884 0.86857 0.0
C81 C 0.03035 0.58516 0.92956 0.0
C82 C 0.03175 0.58681 0.90229 0.0
C83 C 0.06949 0.58462 0.94432 0.0
C84 C 0.1109 0.58691 0.93146 0.0
C85 C 0.11287 0.58772 0.90419 0.0
C86 C 0.0731 0.58775 0.88958 0.0
H87 H 0.94495 0.40554 0.42615 0.0
H88 H 0.09127 0.54311 0.43043 0.0
H89 H 0.01577 0.48426 0.50137 0.0
C90 C 0.97694 0.43602 0.43801 0.0
C91 C 0.97585 0.43856 0.46551 0.0
C92 C 0.01881 0.47354 0.42553 0.0
C93 C 0.0601 0.51358 0.4405 0.0
C94 C 0.05973 0.51812 0.4679 0.0
C95 C 0.01691 0.48076 0.48028 0.0
H96 H 0.51412 0.10013 0.73924 0.0
H97 H 0.52094 0.96269 0.7385 0.0
H98 H 0.52963 0.04414 0.81192 0.0
C99 C 0.51764 0.07211 0.7498 0.0
C100 C 0.5229 0.07767 0.77721 0.0
C101 C 0.51741 0.03119 0.73574 0.0
C102 C 0.5208 0.99421 0.74936 0.0
C103 C 0.52448 0.99799 0.77691 0.0
C104 C 0.52577 0.04017 0.79074 0.0
H105 H 0.4013 0.53533 0.06855 0.0
H106 H 0.55321 0.55836 0.0673 0.0
H107 H 0.47666 0.53196 0.13949 0.0
C108 C 0.43438 0.53798 0.07868 0.0
C109 C 0.43436 0.53352 0.10574 0.0
C110 C 0.4766 0.54612 0.06453 0.0
C111 C 0.51954 0.55026 0.07783 0.0
C112 C 0.5201 0.54468 0.10477 0.0
C113 C 0.47723 0.53652 0.11877 0.0
H114 H 0.21797 0.56127 0.20921 0.0
C115 C 0.18709 0.54112 0.1942 0.0
H116 H 0.16484 0.50025 0.15698 0.0
H117 H 0.41494 0.63523 0.14676 0.0
H118 H 0.40316 0.70855 0.14673 0.0
H119 H 0.31911 0.69935 0.1551 0.0
H120 H 0.24665 0.61719 0.16421 0.0
C121 C 0.1953 0.52095 0.17212 0.0
C122 C 0.24632 0.52705 0.16734 0.0
C123 C 0.28814 0.57548 0.16187 0.0
C124 C 0.33619 0.58051 0.15617 0.0
C125 C 0.37746 0.62923 0.15092 0.0
C126 C 0.37124 0.67162 0.15085 0.0
C127 C 0.32394 0.66647 0.15567 0.0
C128 C 0.28273 0.61908 0.16105 0.0
H129 H 0.3522 0.50808 0.10767 0.0
C130 C 0.38812 0.52477 0.11938 0.0
H131 H 0.42445 0.56106 0.15643 0.0
H132 H 0.1747 0.42952 0.17793 0.0
H133 H 0.18654 0.35613 0.1773 0.0
H134 H 0.26963 0.36482 0.16673 0.0
H135 H 0.34149 0.44703 0.15674 0.0
C136 C 0.38888 0.54058 0.14447 0.0
C137 C 0.34171 0.53684 0.15494 0.0
C138 C 0.30036 0.48878 0.16098 0.0
C139 C 0.25256 0.48385 0.16715 0.0
C140 C 0.21179 0.43533 0.173 0.0
C141 C 0.2181 0.39294 0.17276 0.0
C142 C 0.26488 0.39782 0.16679 0.0
C143 C 0.3057 0.44511 0.16098 0.0
H144 H 0.69165 0.13695 0.47611 0.0
C145 C 0.67749 0.14701 0.49344 0.0
H146 H 0.6929 0.20418 0.52369 0.0
H147 H 0.93346 0.33119 0.5107 0.0
H148 H 0.93098 0.28992 0.55014 0.0
H149 H 0.84873 0.22297 0.56559 0.0
H150 H 0.76836 0.19651 0.54155 0.0
C151 C 0.70635 0.19376 0.5062 0.0
C152 C 0.75621 0.23383 0.49656 0.0
C153 C 0.80285 0.24967 0.51104 0.0
C154 C 0.85037 0.28882 0.50227 0.0
C155 C 0.89632 0.30242 0.51668 0.0
C156 C 0.89545 0.27889 0.53932 0.0
C157 C 0.84913 0.24117 0.54801 0.0
C158 C 0.80328 0.22644 0.53408 0.0
H159 H 0.92159 0.41023 0.49754 0.0
C160 C 0.93071 0.39904 0.4788 0.0
H161 H 0.90978 0.33798 0.44995 0.0
H162 H 0.67372 0.21714 0.46564 0.0
H163 H 0.67588 0.25997 0.42698 0.0
H164 H 0.75811 0.32696 0.41153 0.0
H165 H 0.83857 0.35193 0.43491 0.0
C166 C 0.90067 0.35039 0.4683 0.0
C167 C 0.85116 0.31273 0.47922 0.0
C168 C 0.80437 0.29773 0.46509 0.0
C169 C 0.75692 0.25859 0.47382 0.0
C170 C 0.71087 0.24581 0.4597 0.0
C171 C 0.71153 0.27026 0.43747 0.0
C172 C 0.75781 0.30799 0.42879 0.0
C173 C 0.80376 0.32179 0.44236 0.0
H174 H 0.52783 0.72269 0.76992 0.0
C175 C 0.53563 0.7148 0.78932 0.0
H176 H 0.55025 0.74049 0.82939 0.0
H177 H 0.59637 0.94033 0.76022 0.0
H178 H 0.66903 0.93568 0.7444 0.0
H179 H 0.68545 0.86812 0.75737 0.0
H180 H 0.62886 0.8044 0.78602 0.0
C181 C 0.54538 0.74909 0.80966 0.0
C182 C 0.54178 0.79554 0.80597 0.0
C183 C 0.57629 0.83361 0.79004 0.0
C184 C 0.56752 0.87329 0.7831 0.0
C185 C 0.60146 0.90963 0.76631 0.0
C186 C 0.64337 0.90745 0.75712 0.0
C187 C 0.65257 0.86937 0.76439 0.0
C188 C 0.61961 0.83284 0.78069 0.0
H189 H 0.55356 0.97285 0.80954 0.0
C190 C 0.53063 0.95997 0.79119 0.0
H191 H 0.48562 0.89654 0.7639 0.0
H192 H 0.47168 0.73231 0.83947 0.0
H193 H 0.402 0.74004 0.8572 0.0
H194 H 0.38746 0.8094 0.8454 0.0
H195 H 0.44329 0.8722 0.81606 0.0
C196 C 0.51072 0.91102 0.78149 0.0
C197 C 0.52498 0.87554 0.7926 0.0
C198 C 0.49273 0.83979 0.81006 0.0
C199 C 0.50118 0.79977 0.81684 0.0
C200 C 0.46746 0.76378 0.83383 0.0
C201 C 0.42719 0.7677 0.84411 0.0
C202 C 0.41901 0.80677 0.83747 0.0
C203 C 0.45119 0.84244 0.82059 0.0
H204 H 0.79053 0.55876 0.18493 0.0
C205 C 0.79084 0.53737 0.16725 0.0
H206 H 0.75124 0.49655 0.13172 0.0
H207 H 0.53082 0.44507 0.15601 0.0
H208 H 0.52461 0.36429 0.16421 0.0
H209 H 0.6022 0.35749 0.16764 0.0
H210 H 0.68644 0.43111 0.16219 0.0
C211 C 0.75251 0.52005 0.14886 0.0
C212 C 0.70786 0.52725 0.15211 0.0
C213 C 0.65906 0.48411 0.15576 0.0
C214 C 0.61444 0.48831 0.15433 0.0
C215 C 0.56602 0.44416 0.15714 0.0
C216 C 0.56191 0.39755 0.16187 0.0
C217 C 0.60558 0.39366 0.16371 0.0
C218 C 0.65366 0.4362 0.16055 0.0
H219 H 0.59782 0.55588 0.10403 0.0
C220 C 0.56648 0.54723 0.11679 0.0
H221 H 0.54186 0.52627 0.15497 0.0
H222 H 0.7961 0.61868 0.14628 0.0
H223 H 0.80287 0.701 0.1423 0.0
H224 H 0.72587 0.70913 0.14274 0.0
H225 H 0.64139 0.6345 0.1467 0.0
C226 C 0.57217 0.53736 0.14144 0.0
C227 C 0.61889 0.53576 0.14937 0.0
C228 C 0.6682 0.58006 0.14854 0.0
C229 C 0.71274 0.57567 0.14934 0.0
C230 C 0.76111 0.61995 0.14658 0.0
C231 C 0.76553 0.66748 0.14419 0.0
C232 C 0.72217 0.67204 0.14436 0.0
C233 C 0.67396 0.62895 0.14648 0.0
H234 H 0.34076 0.77665 0.45252 0.0
C235 C 0.35828 0.80114 0.47044 0.0
H236 H 0.34978 0.81106 0.51076 0.0
H237 H 0.11893 0.64108 0.45068 0.0
H238 H 0.12613 0.7136 0.42952 0.0
H239 H 0.20304 0.79959 0.43774 0.0
H240 H 0.27366 0.81335 0.46687 0.0
C241 C 0.33196 0.78882 0.49232 0.0
C242 C 0.28089 0.74041 0.49217 0.0
C243 C 0.2389 0.73341 0.4761 0.0
C244 C 0.19392 0.68406 0.47194 0.0
C245 C 0.15374 0.67775 0.45475 0.0
C246 C 0.15732 0.7191 0.44251 0.0
C247 C 0.20067 0.7675 0.4471 0.0
C248 C 0.24105 0.77481 0.46371 0.0
H249 H 0.09284 0.58073 0.50001 0.0
C250 C 0.10205 0.56445 0.48301 0.0
H251 H 0.16047 0.57158 0.45856 0.0
H252 H 0.35075 0.7419 0.52732 0.0
H253 H 0.34122 0.67031 0.55034 0.0
H254 H 0.26247 0.58534 0.54369 0.0
H255 H 0.19255 0.57143 0.51384 0.0
C256 C 0.15026 0.58882 0.47471 0.0
C257 C 0.19035 0.64197 0.48439 0.0
C258 C 0.2302 0.65006 0.50234 0.0
C259 C 0.27551 0.6993 0.5063 0.0
C260 C 0.31538 0.70557 0.52369 0.0
C261 C 0.31042 0.66475 0.53703 0.0
C262 C 0.26608 0.61688 0.53326 0.0
C263 C 0.22637 0.60935 0.51607 0.0
H264 H 0.63781 0.39046 0.82745 0.0
C265 C 0.60782 0.39909 0.8233 0.0
H266 H 0.53109 0.36939 0.80989 0.0
H267 H 0.51429 0.1813 0.74121 0.0
H268 H 0.49464 0.22565 0.70953 0.0
H269 H 0.50196 0.30881 0.72196 0.0
H270 H 0.52771 0.34754 0.76625 0.0
C271 C 0.56134 0.36116 0.81404 0.0
C272 C 0.55186 0.30834 0.80735 0.0
C273 C 0.53699 0.28641 0.78127 0.0
C274 C 0.53454 0.23927 0.77389 0.0
C275 C 0.5184 0.21772 0.74779 0.0
C276 C 0.50669 0.24265 0.72939 0.0
C277 C 0.51064 0.28939 0.7364 0.0
C278 C 0.52552 0.31118 0.76198 0.0
H279 H 0.50128 0.11666 0.80811 0.0
C280 C 0.52466 0.12264 0.79137 0.0
H281 H 0.57666 0.17497 0.76637 0.0
H282 H 0.56742 0.33193 0.86026 0.0
H283 H 0.59043 0.28956 0.89185 0.0
H284 H 0.59802 0.21461 0.87797 0.0
H285 H 0.58091 0.18055 0.83274 0.0
C286 C 0.55304 0.16986 0.78295 0.0
C287 C 0.54858 0.21483 0.79236 0.0
C288 C 0.56168 0.23584 0.8187 0.0
C289 C 0.56112 0.2814 0.82638 0.0
C290 C 0.57033 0.2993 0.85314 0.0
C291 C 0.58312 0.27508 0.8715 0.0
C292 C 0.58712 0.23273 0.86371 0.0
C293 C 0.57672 0.21325 0.83765 0.0
H294 H 0.53305 0.79101 0.52867 0.0
C295 C 0.54101 0.8081 0.51001 0.0
H296 H 0.56879 0.80717 0.47247 0.0
H297 H 0.65339 0.7005 0.5561 0.0
H298 H 0.713 0.7884 0.57277 0.0
H299 H 0.7104 0.86046 0.55449 0.0
H300 H 0.64784 0.84495 0.51952 0.0
C301 C 0.56224 0.79245 0.49169 0.0
C302 C 0.57345 0.75158 0.49733 0.0
C303 C 0.61137 0.76143 0.51701 0.0
C304 C 0.61331 0.72002 0.52725 0.0
C305 C 0.65031 0.73067 0.5476 0.0
C306 C 0.68481 0.78091 0.55728 0.0
C307 C 0.68332 0.82148 0.54701 0.0
C308 C 0.64711 0.81208 0.52709 0.0
H309 H 0.61696 0.60844 0.50667 0.0
C310 C 0.59706 0.60058 0.52478 0.0
H311 H 0.55119 0.61768 0.54918 0.0
H312 H 0.50262 0.72097 0.45644 0.0
H313 H 0.44617 0.63347 0.43805 0.0
H314 H 0.44978 0.56145 0.4557 0.0
H315 H 0.50984 0.57643 0.49187 0.0
C316 C 0.57308 0.62607 0.53177 0.0
C317 C 0.57796 0.66908 0.5174 0.0
C318 C 0.54355 0.65964 0.49594 0.0
C319 C 0.54144 0.70113 0.48578 0.0
C320 C 0.50569 0.69073 0.46485 0.0
C321 C 0.47317 0.64076 0.45413 0.0
C322 C 0.47521 0.6002 0.46407 0.0
C323 C 0.5098 0.60928 0.48481 0.0
H324 H 0.7949 0.58129 0.79549 0.0
C325 C 0.7777 0.58814 0.81253 0.0
H326 H 0.78608 0.60672 0.85337 0.0
H327 H 0.92897 0.50397 0.85128 0.0
H328 H 0.84794 0.42374 0.84381 0.0
H329 H 0.76743 0.42333 0.83497 0.0
H330 H 0.76753 0.50289 0.83315 0.0
C331 C 0.80272 0.60013 0.83605 0.0
C332 C 0.8515 0.60019 0.83974 0.0
C333 C 0.85043 0.55315 0.84113 0.0
C334 C 0.8965 0.55334 0.84712 0.0
C335 C 0.89475 0.50591 0.84766 0.0
C336 C 0.84858 0.45963 0.84324 0.0
C337 C 0.80328 0.4594 0.8382 0.0
C338 C 0.80394 0.50545 0.83714 0.0
H339 H 0.95297 0.57286 0.8985 0.0
C340 C 0.98795 0.58556 0.88808 0.0
H341 H 0.02375 0.61723 0.85326 0.0
H342 H 0.8671 0.69642 0.83634 0.0
H343 H 0.94832 0.77664 0.84367 0.0
H344 H 0.02794 0.77705 0.85514 0.0
H345 H 0.02699 0.69735 0.85926 0.0
C346 C 0.98899 0.60092 0.86394 0.0
C347 C 0.94312 0.60049 0.85266 0.0
C348 C 0.9446 0.64738 0.84994 0.0
C349 C 0.89865 0.6472 0.84351 0.0
C350 C 0.90092 0.69453 0.84133 0.0
C351 C 0.94724 0.74077 0.84545 0.0
C352 C 0.99208 0.741 0.8519 0.0
C353 C 0.991 0.69498 0.85421 0.0
H354 H 0.15791 0.71132 0.18904 0.0
C355 C 0.15874 0.68983 0.17152 0.0
H356 H 0.20191 0.69001 0.13943 0.0
H357 H 0.34833 0.93459 0.15651 0.0
H358 H 0.29525 0.92948 0.11917 0.0
H359 H 0.21999 0.84686 0.10266 0.0
H360 H 0.19702 0.76884 0.12359 0.0
C361 C 0.20008 0.71081 0.15695 0.0
C362 C 0.24695 0.76024 0.16596 0.0
C363 C 0.26068 0.80518 0.15315 0.0
C364 C 0.3046 0.85273 0.16245 0.0
C365 C 0.31605 0.89737 0.14997 0.0
C366 C 0.28578 0.89498 0.12857 0.0
C367 C 0.24337 0.84846 0.11928 0.0
C368 C 0.23066 0.80399 0.13142 0.0
H369 H 0.42786 0.92239 0.16556 0.0
C370 C 0.42328 0.93201 0.18569 0.0
H371 H 0.37289 0.91501 0.21637 0.0
H372 H 0.23493 0.67995 0.19312 0.0
H373 H 0.28985 0.68411 0.22905 0.0
H374 H 0.36641 0.76622 0.24494 0.0
H375 H 0.3884 0.84436 0.22477 0.0
C376 C 0.37763 0.90467 0.19641 0.0
C377 C 0.33523 0.85486 0.18422 0.0
C378 C 0.32275 0.8093 0.19625 0.0
C379 C 0.27861 0.76201 0.18715 0.0
C380 C 0.26749 0.71713 0.19942 0.0
C381 C 0.29889 0.71887 0.22005 0.0
C382 C 0.34197 0.76504 0.22896 0.0
C383 C 0.35398 0.80976 0.21727 0.0
H384 H 0.48996 0.17139 0.49015 0.0
C385 C 0.52305 0.17419 0.4807 0.0
H386 H 0.5973 0.22331 0.46829 0.0
H387 H 0.59087 0.42554 0.46359 0.0
H388 H 0.60653 0.40962 0.41879 0.0
H389 H 0.60246 0.32873 0.40415 0.0
H390 H 0.58328 0.26353 0.43425 0.0
C391 C 0.56391 0.22045 0.47736 0.0
C392 C 0.56571 0.26891 0.48629 0.0
C393 C 0.5757 0.30608 0.46821 0.0
C394 C 0.57703 0.3523 0.47651 0.0
C395 C 0.58867 0.38945 0.45827 0.0
C396 C 0.5978 0.38084 0.43248 0.0
C397 C 0.59555 0.33532 0.42424 0.0
C398 C 0.58458 0.29822 0.44178 0.0
H399 H 0.62787 0.42847 0.5413 0.0
C400 C 0.60404 0.44049 0.53154 0.0
H401 H 0.54606 0.42094 0.50216 0.0
H402 H 0.55945 0.21315 0.52799 0.0
H403 H 0.5376 0.2259 0.57184 0.0
H404 H 0.52369 0.29765 0.58393 0.0
H405 H 0.53418 0.3583 0.55253 0.0
C406 C 0.57119 0.41022 0.51165 0.0
C407 C 0.5672 0.36072 0.50269 0.0
C408 C 0.55533 0.32264 0.52052 0.0
C409 C 0.5579 0.27836 0.51278 0.0
C410 C 0.55337 0.24493 0.53206 0.0
C411 C 0.54151 0.2522 0.55747 0.0
C412 C 0.53407 0.29277 0.56433 0.0
C413 C 0.54081 0.32766 0.54616 0.0
H414 H 0.33868 0.52724 0.82581 0.0
C415 C 0.36824 0.56288 0.83601 0.0
H416 H 0.38488 0.63077 0.85828 0.0
H417 H 0.18882 0.63948 0.83306 0.0
H418 H 0.24852 0.70361 0.80543 0.0
H419 H 0.33235 0.71178 0.79735 0.0
H420 H 0.35723 0.65625 0.81701 0.0
C421 C 0.35531 0.59399 0.84907 0.0
C422 C 0.30141 0.58217 0.85006 0.0
C423 C 0.28678 0.61376 0.83774 0.0
C424 C 0.23819 0.60856 0.84206 0.0
C425 C 0.22523 0.64176 0.83027 0.0
C426 C 0.25907 0.6786 0.81435 0.0
C427 C 0.30627 0.68321 0.8098 0.0
C428 C 0.32015 0.65125 0.82128 0.0
H429 H 0.19102 0.5998 0.90514 0.0
C430 C 0.15752 0.58851 0.89221 0.0
H431 H 0.12604 0.56033 0.85336 0.0
H432 H 0.31649 0.51407 0.87625 0.0
H433 H 0.25452 0.44659 0.90128 0.0
H434 H 0.16798 0.43387 0.90608 0.0
H435 H 0.14342 0.48947 0.88621 0.0
C436 C 0.15825 0.57271 0.86727 0.0
C437 C 0.20426 0.57152 0.85851 0.0
C438 C 0.21702 0.53692 0.86893 0.0
C439 C 0.26613 0.54294 0.86523 0.0
C440 C 0.27917 0.51026 0.87757 0.0
C441 C 0.24398 0.47143 0.89214 0.0
C442 C 0.19533 0.46436 0.89492 0.0
C443 C 0.18182 0.49667 0.88354 0.0
H444 H 0.8122 0.34006 0.15196 0.0
C445 C 0.79893 0.35665 0.16701 0.0
H446 H 0.73888 0.34452 0.1913 0.0
H447 H 0.55186 0.14757 0.14146 0.0
H448 H 0.53451 0.21077 0.12459 0.0
H449 H 0.60158 0.3023 0.12728 0.0
H450 H 0.68619 0.3315 0.14736 0.0
C451 C 0.7531 0.32744 0.17706 0.0
C452 C 0.71856 0.27198 0.16898 0.0
C453 C 0.66979 0.25543 0.15668 0.0
C454 C 0.63131 0.20255 0.15473 0.0
C455 C 0.58238 0.18729 0.14329 0.0
C456 C 0.57202 0.22312 0.13351 0.0
C457 C 0.60978 0.2747 0.13507 0.0
C458 C 0.65808 0.29095 0.14665 0.0
H459 H 0.61461 0.13453 0.21069 0.0
C460 C 0.58943 0.10461 0.1958 0.0
H461 H 0.57503 0.08736 0.1547 0.0
H462 H 0.80959 0.28942 0.19163 0.0
H463 H 0.82876 0.2251 0.20414 0.0
H464 H 0.76361 0.13306 0.19763 0.0
H465 H 0.67822 0.10507 0.17898 0.0
C466 C 0.59862 0.11494 0.17067 0.0
C467 C 0.64183 0.16644 0.16501 0.0
C468 C 0.69255 0.18218 0.1741 0.0
C469 C 0.7307 0.23513 0.17677 0.0
C470 C 0.77956 0.24979 0.18822 0.0
C471 C 0.79106 0.21317 0.19562 0.0
C472 C 0.75435 0.16137 0.19203 0.0
C473 C 0.70554 0.14584 0.18147 0.0
H474 H 0.97969 0.56955 0.10418 0.0
C475 C 0.99598 0.54839 0.1124 0.0
H476 H 0.03766 0.51083 0.10496 0.0
H477 H 0.97407 0.46726 0.98408 0.0
H478 H 0.92814 0.38158 -0.00115 0.0
H479 H 0.92598 0.36801 0.04584 0.0
H480 H 0.97008 0.44002 0.07833 0.0
C481 C 0.02215 0.53306 0.09725 0.0
C482 C 0.02607 0.54156 0.06897 0.0
C483 C 0.99986 0.49901 0.05027 0.0
C484 C 1.00041 0.5069 0.02323 0.0
C485 C 0.97433 0.46363 0.00492 0.0
C486 C 0.94788 0.41416 0.01312 0.0
C487 C 0.94672 0.40652 0.03956 0.0
C488 C 0.97227 0.44826 0.05801 0.0
H489 H 0.10425 0.59079 0.98366 0.0
C490 C 0.06873 0.58151 0.97314 0.0
H491 H 0.98909 0.55143 0.97683 0.0
H492 H 0.08656 0.63075 0.09947 0.0
H493 H 0.13126 0.71669 0.08489 0.0
H494 H 0.12711 0.73096 0.03831 0.0
H495 H 0.07904 0.65935 0.00599 0.0
C496 C 0.02618 0.56491 0.98666 0.0
C497 C 0.02696 0.55734 0.01498 0.0
C498 C 0.05373 0.59993 0.03368 0.0
C499 C 0.05422 0.59191 0.06068 0.0
C500 C 0.0833 0.63481 0.07885 0.0
C501 C 0.10942 0.68433 0.07073 0.0
C502 C 0.10722 0.69235 0.04449 0.0
C503 C 0.07971 0.65082 0.0261 0.0
H504 H 0.47099 0.98556 0.40666 0.0
C505 C 0.49536 0.97166 0.41379 0.0
H506 H 0.54441 0.9437 0.40321 0.0
H507 H 0.44801 0.87849 0.28649 0.0
H508 H 0.4192 0.79552 0.30305 0.0
H509 H 0.43374 0.78832 0.34966 0.0
H510 H 0.47756 0.86417 0.37997 0.0
C511 C 0.52067 0.95872 0.39669 0.0
C512 C 0.51542 0.96347 0.36831 0.0
C513 C 0.48979 0.91877 0.35092 0.0
C514 C 0.48082 0.92288 0.32414 0.0
C515 C 0.45539 0.87761 0.3071 0.0
C516 C 0.43869 0.8297 0.31634 0.0
C517 C 0.44691 0.82566 0.34257 0.0
C518 C 0.47211 0.86952 0.35976 0.0
H519 H 0.56587 0.01835 0.27942 0.0
C520 C 0.52669 0.99942 0.2711 0.0
H521 H 0.44817 0.95709 0.27933 0.0
H522 H 0.57306 0.05735 0.39557 0.0
H523 H 0.59842 0.14008 0.37964 0.0
H524 H 0.57544 0.14663 0.33427 0.0
H525 H 0.52815 0.07069 0.30447 0.0
C526 C 0.48774 0.97542 0.28686 0.0
C527 C 0.49732 0.97167 0.31489 0.0
C528 C 0.52282 0.01644 0.33236 0.0
C529 C 0.53337 0.01244 0.3589 0.0
C530 C 0.56185 0.05795 0.37553 0.0
C531 C 0.577 0.10576 0.3666 0.0
C532 C 0.56427 0.10946 0.34103 0.0
C533 C 0.53745 0.06549 0.32404 0.0
H534 H 0.61858 0.54721 0.75442 0.0
C535 C 0.57958 0.53855 0.75727 0.0
H536 H 0.50693 0.5139 0.73889 0.0
H537 H 0.668 0.60475 0.64325 0.0
H538 H 0.70323 0.68737 0.66775 0.0
H539 H 0.67231 0.69467 0.71106 0.0
H540 H 0.60715 0.61942 0.73036 0.0
C541 C 0.54619 0.52305 0.7365 0.0
C542 C 0.56211 0.51953 0.70955 0.0
C543 C 0.59856 0.56451 0.69807 0.0
C544 C 0.6141 0.56078 0.67245 0.0
C545 C 0.65299 0.60574 0.66211 0.0
C546 C 0.67383 0.65338 0.67605 0.0
C547 C 0.65661 0.65745 0.70047 0.0
C548 C 0.61941 0.61374 0.71143 0.0
H549 H 0.57167 0.55465 0.61878 0.0
C550 C 0.58827 0.53189 0.61194 0.0
H551 H 0.61885 0.48663 0.62402 0.0
H552 H 0.49151 0.42622 0.7258 0.0
H553 H 0.45268 0.3443 0.70021 0.0
H554 H 0.47694 0.33831 0.65505 0.0
H555 H 0.53975 0.41426 0.63506 0.0
C556 C 0.60174 0.50938 0.62971 0.0
C557 C 0.59066 0.51265 0.65768 0.0
C558 C 0.5542 0.46777 0.66912 0.0
C559 C 0.53997 0.47123 0.6951 0.0
C560 C 0.50338 0.42584 0.70605 0.0
C561 C 0.48091 0.37854 0.69161 0.0
C562 C 0.49453 0.37518 0.66617 0.0
C563 C 0.53068 0.41911 0.65494 0.0
H564 H 0.55092 0.96975 0.5707 0.0
C565 C 0.52964 0.98624 0.5626 0.0
H566 H 0.48812 0.02364 0.5712 0.0
H567 H 0.47235 0.91051 0.68009 0.0
H568 H 0.41487 0.83146 0.65399 0.0
H569 H 0.40148 0.83131 0.60642 0.0
H570 H 0.44557 0.9101 0.58467 0.0
C571 C 0.5083 0.00563 0.57877 0.0
C572 C 0.51437 0.00569 0.60751 0.0
C573 C 0.48793 0.95923 0.61989 0.0
C574 C 0.49514 0.95941 0.64734 0.0
C575 C 0.46827 0.91256 0.65928 0.0
C576 C 0.4351 0.86691 0.64454 0.0
C577 C 0.42761 0.86681 0.61776 0.0
C578 C 0.45344 0.91232 0.60549 0.0
H579 H 0.49537 0.04762 0.69788 0.0
C580 C 0.51309 0.02833 0.7068 0.0
H581 H 0.55192 0.98762 0.69912 0.0
H582 H 0.57027 0.1012 0.5897 0.0
H583 H 0.62844 0.18011 0.6157 0.0
H584 H 0.64248 0.18016 0.66321 0.0
H585 H 0.59822 0.10141 0.68499 0.0
C586 C 0.53286 0.00637 0.69118 0.0
C587 C 0.52803 0.00609 0.66233 0.0
C588 C 0.55493 0.05246 0.64989 0.0
C589 C 0.54757 0.05231 0.62246 0.0
C590 C 0.57453 0.09913 0.61049 0.0
C591 C 0.60811 0.1447 0.62518 0.0
C592 C 0.61595 0.14473 0.65192 0.0
C593 C 0.58997 0.09927 0.66422 0.0
H594 H 0.58191 0.55541 0.91073 0.0
C595 C 0.55699 0.56207 0.89814 0.0
H596 H 0.49415 0.57422 0.89651 0.0
H597 H 0.41413 0.46628 0.00218 0.0
H598 H 0.34524 0.408 0.97078 0.0
H599 H 0.35212 0.42143 0.92372 0.0
H600 H 0.42804 0.49305 0.90777 0.0
C601 C 0.52055 0.56911 0.90876 0.0
C602 C 0.51304 0.5658 0.93729 0.0
C603 C 0.46784 0.52442 0.94627 0.0
C604 C 0.46368 0.51689 0.97342 0.0
C605 C 0.41899 0.47418 0.98183 0.0
C606 C 0.37922 0.44035 0.96399 0.0
C607 C 0.38311 0.44788 0.9375 0.0
C608 C 0.42691 0.4892 0.9286 0.0
H609 H 0.45065 0.56476 0.02832 0.0
C610 C 0.47551 0.55192 0.03603 0.0
H611 H 0.52724 0.52673 0.02613 0.0
H612 H 0.59988 0.65478 0.92699 0.0
H613 H 0.66755 0.71467 0.95854 0.0
H614 H 0.66149 0.70027 0.0055 0.0
H615 H 0.58751 0.62616 0.02119 0.0
C616 C 0.50306 0.54101 0.01939 0.0
C617 C 0.50448 0.55117 0.99142 0.0
C618 C 0.54831 0.59422 0.98259 0.0
C619 C 0.55231 0.60194 0.95551 0.0
C620 C 0.59571 0.64619 0.94727 0.0
C621 C 0.63462 0.68109 0.9652 0.0
C622 C 0.63118 0.67302 0.99163 0.0
C623 C 0.58857 0.63024 0.00036 0.0
H624 H 0.93746 0.49873 0.26607 0.0
C625 C 0.97072 0.50153 0.25678 0.0
H626 H 0.03884 0.49904 0.26227 0.0
H627 H 0.03067 0.5618 0.384 0.0
H628 H 0.08482 0.64692 0.36982 0.0
H629 H 0.10075 0.66007 0.32313 0.0
H630 H 0.06194 0.58799 0.29034 0.0
C631 C 0.00497 0.49595 0.27091 0.0
C632 C 0.99826 0.48727 0.29908 0.0
C633 C 0.02258 0.52952 0.31802 0.0
C634 C 0.01478 0.52169 0.34498 0.0
C635 C 0.03708 0.56506 0.36337 0.0
C636 C 0.06787 0.61431 0.35546 0.0
C637 C 0.07673 0.62173 0.32917 0.0
C638 C 0.05425 0.58001 0.31057 0.0
H639 H 0.05748 0.4895 0.38827 0.0
C640 C 0.02022 0.47358 0.39674 0.0
H641 H 0.94159 0.44777 0.38913 0.0
H642 H 0.94608 0.39827 0.26755 0.0
H643 H 0.89216 0.3127 0.28164 0.0
H644 H 0.88009 0.29869 0.3285 0.0
H645 H 0.92171 0.37013 0.36156 0.0
C646 C 0.97914 0.46231 0.38123 0.0
C647 C 0.98439 0.4712 0.35296 0.0
C648 C 0.95957 0.42904 0.33394 0.0
C649 C 0.96656 0.43709 0.30694 0.0
C650 C 0.9418 0.39429 0.28832 0.0
C651 C 0.91086 0.34499 0.29614 0.0
C652 C 0.90407 0.3371 0.32252 0.0
C653 C 0.92814 0.37846 0.3413 0.0
loop_
_geom_bond_atom_site_label_1
_geom_bond_atom_site_label_2
_geom_bond_distance
_geom_bond_site_symmetry_2
_ccdc_geom_bond_type
Zn0 O6 1.969 . S
Zn0 O7 1.965 . S
Zn0 O11 2.024 . S
Zn0 O16 1.969 . S
Zn1 O8 1.969 . S
Zn1 O14 1.969 . S
Zn1 O15 1.965 . S
Zn1 O17 2.024 . S
C2 O3 1.229 . S
C2 O11 1.058 . S
O3 C2 1.229 . S
C4 O5 1.229 . S
C4 O17 1.058 . S
O5 C4 1.229 . S
O6 Zn0 1.969 . S
O6 C9 1.267 . S
O7 Zn0 1.965 . S
O7 C18 1.260 1_455 S
O8 Zn1 1.969 . S
O8 C18 1.258 . S
C9 O6 1.267 . S
C9 O10 1.228 . S
O10 C9 1.228 . S
O11 Zn0 2.024 . S
O11 C2 1.058 . S
C12 O13 1.228 . S
C12 O14 1.267 . S
O13 C12 1.228 . S
O14 Zn1 1.969 . S
O14 C12 1.267 . S
O15 Zn1 1.965 . S
O15 C19 1.260 1_655 S
O16 Zn0 1.969 . S
O16 C19 1.258 . S
O17 Zn1 2.024 . S
O17 C4 1.058 . S
C18 O7 1.260 1_655 S
C18 O8 1.258 . S
C19 O15 1.260 1_455 S
C19 O16 1.258 . S
Zn20 O26 1.969 . S
Zn20 O27 1.965 . S
Zn20 O31 2.024 . S
Zn20 O36 1.969 . S
Zn21 O28 1.969 . S
Zn21 O34 1.969 . S
Zn21 O35 1.965 . S
Zn21 O37 2.024 . S
C22 O23 1.229 . S
C22 O31 1.058 . S
O23 C22 1.229 . S
C24 O25 1.229 . S
C24 O37 1.058 . S
O25 C24 1.229 . S
O26 Zn20 1.969 . S
O26 C29 1.267 . S
O27 Zn20 1.965 . S
O27 C38 1.260 . S
O28 Zn21 1.969 . S
O28 C38 1.258 1_565 S
C29 O26 1.267 . S
C29 O30 1.228 . S
O30 C29 1.228 . S
O31 Zn20 2.024 . S
O31 C22 1.058 . S
C32 O33 1.228 . S
C32 O34 1.267 . S
O33 C32 1.228 . S
O34 Zn21 1.969 . S
O34 C32 1.267 . S
O35 Zn21 1.965 . S
O35 C39 1.260 1_565 S
O36 Zn20 1.969 . S
O36 C39 1.258 . S
O37 Zn21 2.024 . S
O37 C24 1.058 . S
C38 O27 1.260 . S
C38 O28 1.258 1_545 S
C39 O35 1.260 1_545 S
C39 O36 1.258 . S
Zn40 O46 1.969 . S
Zn40 O47 1.965 . S
Zn40 O51 2.024 . S
Zn40 O56 1.969 . S
Zn41 O48 1.969 . S
Zn41 O54 1.969 . S
Zn41 O55 1.965 . S
Zn41 O57 2.024 . S
C42 O43 1.229 . S
C42 O51 1.058 . S
O43 C42 1.229 . S
C44 O45 1.229 . S
C44 O57 1.058 . S
O45 C44 1.229 . S
O46 Zn40 1.969 . S
O46 C49 1.267 . S
O47 Zn40 1.965 . S
O47 C58 1.260 . S
O48 Zn41 1.969 . S
O48 C58 1.258 . S
C49 O46 1.267 . S
C49 O50 1.228 . S
O50 C49 1.228 . S
O51 Zn40 2.024 . S
O51 C42 1.058 . S
C52 O53 1.228 . S
C52 O54 1.267 . S
O53 C52 1.228 . S
O54 Zn41 1.969 . S
O54 C52 1.267 . S
O55 Zn41 1.965 . S
O55 C59 1.260 . S
O56 Zn40 1.969 . S
O56 C59 1.258 . S
O57 Zn41 2.024 . S
O57 C44 1.058 . S
C58 O47 1.260 . S
C58 O48 1.258 . S
C59 O55 1.260 . S
C59 O56 1.258 . S
H60 C63 0.931 . S
H61 C66 0.928 . S
H62 C68 0.930 . S
C63 H60 0.931 . S
C63 C64 1.413 . S
C63 C65 1.360 1_565 S
C64 C63 1.413 . S
C64 C68 1.429 1_565 S
C65 C63 1.360 1_545 S
C65 C66 1.372 . S
C66 H61 0.928 . S
C66 C65 1.372 . S
C66 C67 1.404 . S
C67 C66 1.404 . S
C67 C68 1.391 . S
C68 H62 0.930 . S
C68 C64 1.429 1_545 S
C68 C67 1.391 . S
H69 C72 0.931 . S
H70 C75 0.928 . S
H71 C77 0.930 . S
C72 H69 0.931 . S
C72 C73 1.413 . S
C72 C74 1.360 . S
C73 C72 1.413 . S
C73 C77 1.429 . S
C74 C72 1.360 . S
C74 C75 1.372 . S
C75 H70 0.928 . S
C75 C74 1.372 . S
C75 C76 1.404 . S
C76 C75 1.404 . S
C76 C77 1.391 . S
C77 H71 0.930 . S
C77 C73 1.429 . S
C77 C76 1.391 . S
H78 C81 0.931 . S
H79 C84 0.928 . S
H80 C86 0.930 . S
C81 H78 0.931 . S
C81 C82 1.413 . S
C81 C83 1.360 1_655 S
C82 C81 1.413 . S
C82 C86 1.429 1_655 S
C83 C81 1.360 1_455 S
C83 C84 1.372 . S
C84 H79 0.928 . S
C84 C83 1.372 . S
C84 C85 1.404 . S
C85 C84 1.404 . S
C85 C86 1.391 . S
C86 H80 0.930 . S
C86 C82 1.429 1_455 S
C86 C85 1.391 . S
H87 C90 0.931 . S
H88 C93 0.928 . S
H89 C95 0.930 . S
C90 H87 0.931 . S
C90 C91 1.413 . S
C90 C92 1.360 1_655 S
C91 C90 1.413 . S
C91 C95 1.429 1_655 S
C92 C90 1.360 1_455 S
C92 C93 1.372 . S
C93 H88 0.928 . S
C93 C92 1.372 . S
C93 C94 1.404 . S
C94 C93 1.404 . S
C94 C95 1.391 . S
C95 H89 0.930 . S
C95 C91 1.429 1_455 S
C95 C94 1.391 . S
H96 C99 0.931 . S
H97 C102 0.928 . S
H98 C104 0.930 . S
C99 H96 0.931 . S
C99 C100 1.413 . S
C99 C101 1.360 . S
C100 C99 1.413 . S
C100 C104 1.429 . S
C101 C99 1.360 . S
C101 C102 1.372 1_545 S
C102 H97 0.928 . S
C102 C101 1.372 1_565 S
C102 C103 1.404 . S
C103 C102 1.404 . S
C103 C104 1.391 1_565 S
C104 H98 0.930 . S
C104 C100 1.429 . S
C104 C103 1.391 1_545 S
H105 C108 0.931 . S
H106 C111 0.928 . S
H107 C113 0.930 . S
C108 H105 0.931 . S
C108 C109 1.413 . S
C108 C110 1.360 . S
C109 C108 1.413 . S
C109 C113 1.429 . S
C110 C108 1.360 . S
C110 C111 1.372 . S
C111 H106 0.928 . S
C111 C110 1.372 . S
C111 C112 1.404 . S
C112 C111 1.404 . S
C112 C113 1.391 . S
C113 H107 0.930 . S
C113 C109 1.429 . S
C113 C112 1.391 . S
H114 C115 0.951 . S
C115 H114 0.951 . S
C115 C121 1.265 . S
H116 C121 0.950 . S
H117 C125 0.949 . S
H118 C126 0.950 . S
H119 C127 0.951 . S
H120 C128 0.951 . S
C121 C115 1.265 . S
C121 H116 0.950 . S
C121 C122 1.478 . S
C122 C121 1.478 . S
C122 C123 1.397 . S
C122 C139 1.394 . S
C123 C122 1.397 . S
C123 C124 1.438 . S
C123 C128 1.429 . S
C124 C123 1.438 . S
C124 C125 1.428 . S
C124 C137 1.394 . S
C125 H117 0.949 . S
C125 C124 1.428 . S
C125 C126 1.345 . S
C126 H118 0.950 . S
C126 C125 1.345 . S
C126 C127 1.424 . S
C127 H119 0.951 . S
C127 C126 1.424 . S
C127 C128 1.347 . S
C128 H120 0.951 . S
C128 C123 1.429 . S
C128 C127 1.347 . S
H129 C130 0.951 . S
C130 H129 0.951 . S
C130 C136 1.265 . S
H131 C136 0.950 . S
H132 C140 0.949 . S
H133 C141 0.950 . S
H134 C142 0.951 . S
H135 C143 0.951 . S
C136 C130 1.265 . S
C136 H131 0.950 . S
C136 C137 1.478 . S
C137 C124 1.394 . S
C137 C136 1.478 . S
C137 C138 1.397 . S
C138 C137 1.397 . S
C138 C139 1.438 . S
C138 C143 1.429 . S
C139 C122 1.394 . S
C139 C138 1.438 . S
C139 C140 1.428 . S
C140 H132 0.949 . S
C140 C139 1.428 . S
C140 C141 1.345 . S
C141 H133 0.950 . S
C141 C140 1.345 . S
C141 C142 1.424 . S
C142 H134 0.951 . S
C142 C141 1.424 . S
C142 C143 1.347 . S
C143 H135 0.951 . S
C143 C138 1.429 . S
C143 C142 1.347 . S
H144 C145 0.951 . S
C145 H144 0.951 . S
C145 C151 1.265 . S
H146 C151 0.950 . S
H147 C155 0.949 . S
H148 C156 0.950 . S
H149 C157 0.951 . S
H150 C158 0.951 . S
C151 C145 1.265 . S
C151 H146 0.950 . S
C151 C152 1.478 . S
C152 C151 1.478 . S
C152 C153 1.397 . S
C152 C169 1.394 . S
C153 C152 1.397 . S
C153 C154 1.438 . S
C153 C158 1.429 . S
C154 C153 1.438 . S
C154 C155 1.428 . S
C154 C167 1.394 . S
C155 H147 0.949 . S
C155 C154 1.428 . S
C155 C156 1.345 . S
C156 H148 0.950 . S
C156 C155 1.345 . S
C156 C157 1.424 . S
C157 H149 0.951 . S
C157 C156 1.424 . S
C157 C158 1.347 . S
C158 H150 0.951 . S
C158 C153 1.429 . S
C158 C157 1.347 . S
H159 C160 0.951 . S
C160 H159 0.951 . S
C160 C166 1.265 . S
H161 C166 0.950 . S
H162 C170 0.949 . S
H163 C171 0.950 . S
H164 C172 0.951 . S
H165 C173 0.951 . S
C166 C160 1.265 . S
C166 H161 0.950 . S
C166 C167 1.478 . S
C167 C154 1.394 . S
C167 C166 1.478 . S
C167 C168 1.397 . S
C168 C167 1.397 . S
C168 C169 1.438 . S
C168 C173 1.429 . S
C169 C152 1.394 . S
C169 C168 1.438 . S
C169 C170 1.428 . S
C170 H162 0.949 . S
C170 C169 1.428 . S
C170 C171 1.345 . S
C171 H163 0.950 . S
C171 C170 1.345 . S
C171 C172 1.424 . S
C172 H164 0.951 . S
C172 C171 1.424 . S
C172 C173 1.347 . S
C173 H165 0.951 . S
C173 C168 1.429 . S
C173 C172 1.347 . S
H174 C175 0.951 . S
C175 H174 0.951 . S
C175 C181 1.265 . S
H176 C181 0.950 . S
H177 C185 0.949 . S
H178 C186 0.950 . S
H179 C187 0.951 . S
H180 C188 0.951 . S
C181 C175 1.265 . S
C181 H176 0.950 . S
C181 C182 1.478 . S
C182 C181 1.478 . S
C182 C183 1.397 . S
C182 C199 1.394 . S
C183 C182 1.397 . S
C183 C184 1.438 . S
C183 C188 1.429 . S
C184 C183 1.438 . S
C184 C185 1.428 . S
C184 C197 1.394 . S
C185 H177 0.949 . S
C185 C184 1.428 . S
C185 C186 1.345 . S
C186 H178 0.950 . S
C186 C185 1.345 . S
C186 C187 1.424 . S
C187 H179 0.951 . S
C187 C186 1.424 . S
C187 C188 1.347 . S
C188 H180 0.951 . S
C188 C183 1.429 . S
C188 C187 1.347 . S
H189 C190 0.951 . S
C190 H189 0.951 . S
C190 C196 1.265 . S
H191 C196 0.950 . S
H192 C200 0.949 . S
H193 C201 0.950 . S
H194 C202 0.951 . S
H195 C203 0.951 . S
C196 C190 1.265 . S
C196 H191 0.950 . S
C196 C197 1.478 . S
C197 C184 1.394 . S
C197 C196 1.478 . S
C197 C198 1.397 . S
C198 C197 1.397 . S
C198 C199 1.438 . S
C198 C203 1.429 . S
C199 C182 1.394 . S
C199 C198 1.438 . S
C199 C200 1.428 . S
C200 H192 0.949 . S
C200 C199 1.428 . S
C200 C201 1.345 . S
C201 H193 0.950 . S
C201 C200 1.345 . S
C201 C202 1.424 . S
C202 H194 0.951 . S
C202 C201 1.424 . S
C202 C203 1.347 . S
C203 H195 0.951 . S
C203 C198 1.429 . S
C203 C202 1.347 . S
H204 C205 0.951 . S
C205 H204 0.951 . S
C205 C211 1.265 . S
H206 C211 0.950 . S
H207 C215 0.949 . S
H208 C216 0.950 . S
H209 C217 0.951 . S
H210 C218 0.951 . S
C211 C205 1.265 . S
C211 H206 0.950 . S
C211 C212 1.478 . S
C212 C211 1.478 . S
C212 C213 1.397 . S
C212 C229 1.394 . S
C213 C212 1.397 . S
C213 C214 1.438 . S
C213 C218 1.429 . S
C214 C213 1.438 . S
C214 C215 1.428 . S
C214 C227 1.394 . S
C215 H207 0.949 . S
C215 C214 1.428 . S
C215 C216 1.345 . S
C216 H208 0.950 . S
C216 C215 1.345 . S
C216 C217 1.424 . S
C217 H209 0.951 . S
C217 C216 1.424 . S
C217 C218 1.347 . S
C218 H210 0.951 . S
C218 C213 1.429 . S
C218 C217 1.347 . S
H219 C220 0.951 . S
C220 H219 0.951 . S
C220 C226 1.265 . S
H221 C226 0.950 . S
H222 C230 0.949 . S
H223 C231 0.950 . S
H224 C232 0.951 . S
H225 C233 0.951 . S
C226 C220 1.265 . S
C226 H221 0.950 . S
C226 C227 1.478 . S
C227 C214 1.394 . S
C227 C226 1.478 . S
C227 C228 1.397 . S
C228 C227 1.397 . S
C228 C229 1.438 . S
C228 C233 1.429 . S
C229 C212 1.394 . S
C229 C228 1.438 . S
C229 C230 1.428 . S
C230 H222 0.949 . S
C230 C229 1.428 . S
C230 C231 1.345 . S
C231 H223 0.950 . S
C231 C230 1.345 . S
C231 C232 1.424 . S
C232 H224 0.951 . S
C232 C231 1.424 . S
C232 C233 1.347 . S
C233 H225 0.951 . S
C233 C228 1.429 . S
C233 C232 1.347 . S
H234 C235 0.951 . S
C235 H234 0.951 . S
C235 C241 1.265 . S
H236 C241 0.950 . S
H237 C245 0.949 . S
H238 C246 0.950 . S
H239 C247 0.951 . S
H240 C248 0.951 . S
C241 C235 1.265 . S
C241 H236 0.950 . S
C241 C242 1.478 . S
C242 C241 1.478 . S
C242 C243 1.397 . S
C242 C259 1.394 . S
C243 C242 1.397 . S
C243 C244 1.438 . S
C243 C248 1.429 . S
C244 C243 1.438 . S
C244 C245 1.428 . S
C244 C257 1.394 . S
C245 H237 0.949 . S
C245 C244 1.428 . S
C245 C246 1.345 . S
C246 H238 0.950 . S
C246 C245 1.345 . S
C246 C247 1.424 . S
C247 H239 0.951 . S
C247 C246 1.424 . S
C247 C248 1.347 . S
C248 H240 0.951 . S
C248 C243 1.429 . S
C248 C247 1.347 . S
H249 C250 0.951 . S
C250 H249 0.951 . S
C250 C256 1.265 . S
H251 C256 0.950 . S
H252 C260 0.949 . S
H253 C261 0.950 . S
H254 C262 0.951 . S
H255 C263 0.951 . S
C256 C250 1.265 . S
C256 H251 0.950 . S
C256 C257 1.478 . S
C257 C244 1.394 . S
C257 C256 1.478 . S
C257 C258 1.397 . S
C258 C257 1.397 . S
C258 C259 1.438 . S
C258 C263 1.429 . S
C259 C242 1.394 . S
C259 C258 1.438 . S
C259 C260 1.428 . S
C260 H252 0.949 . S
C260 C259 1.428 . S
C260 C261 1.345 . S
C261 H253 0.950 . S
C261 C260 1.345 . S
C261 C262 1.424 . S
C262 H254 0.951 . S
C262 C261 1.424 . S
C262 C263 1.347 . S
C263 H255 0.951 . S
C263 C258 1.429 . S
C263 C262 1.347 . S
H264 C265 0.951 . S
C265 H264 0.951 . S
C265 C271 1.265 . S
H266 C271 0.950 . S
H267 C275 0.949 . S
H268 C276 0.950 . S
H269 C277 0.951 . S
H270 C278 0.951 . S
C271 C265 1.265 . S
C271 H266 0.950 . S
C271 C272 1.478 . S
C272 C271 1.478 . S
C272 C273 1.397 . S
C272 C289 1.394 . S
C273 C272 1.397 . S
C273 C274 1.438 . S
C273 C278 1.429 . S
C274 C273 1.438 . S
C274 C275 1.428 . S
C274 C287 1.394 . S
C275 H267 0.949 . S
C275 C274 1.428 . S
C275 C276 1.345 . S
C276 H268 0.950 . S
C276 C275 1.345 . S
C276 C277 1.424 . S
C277 H269 0.951 . S
C277 C276 1.424 . S
C277 C278 1.347 . S
C278 H270 0.951 . S
C278 C273 1.429 . S
C278 C277 1.347 . S
H279 C280 0.951 . S
C280 H279 0.951 . S
C280 C286 1.265 . S
H281 C286 0.950 . S
H282 C290 0.949 . S
H283 C291 0.950 . S
H284 C292 0.951 . S
H285 C293 0.951 . S
C286 C280 1.265 . S
C286 H281 0.950 . S
C286 C287 1.478 . S
C287 C274 1.394 . S
C287 C286 1.478 . S
C287 C288 1.397 . S
C288 C287 1.397 . S
C288 C289 1.438 . S
C288 C293 1.429 . S
C289 C272 1.394 . S
C289 C288 1.438 . S
C289 C290 1.428 . S
C290 H282 0.949 . S
C290 C289 1.428 . S
C290 C291 1.345 . S
C291 H283 0.950 . S
C291 C290 1.345 . S
C291 C292 1.424 . S
C292 H284 0.951 . S
C292 C291 1.424 . S
C292 C293 1.347 . S
C293 H285 0.951 . S
C293 C288 1.429 . S
C293 C292 1.347 . S
H294 C295 0.951 . S
C295 H294 0.951 . S
C295 C301 1.265 . S
H296 C301 0.950 . S
H297 C305 0.949 . S
H298 C306 0.950 . S
H299 C307 0.951 . S
H300 C308 0.951 . S
C301 C295 1.265 . S
C301 H296 0.950 . S
C301 C302 1.478 . S
C302 C301 1.478 . S
C302 C303 1.397 . S
C302 C319 1.394 . S
C303 C302 1.397 . S
C303 C304 1.438 . S
C303 C308 1.429 . S
C304 C303 1.438 . S
C304 C305 1.428 . S
C304 C317 1.394 . S
C305 H297 0.949 . S
C305 C304 1.428 . S
C305 C306 1.345 . S
C306 H298 0.950 . S
C306 C305 1.345 . S
C306 C307 1.424 . S
C307 H299 0.951 . S
C307 C306 1.424 . S
C307 C308 1.347 . S
C308 H300 0.951 . S
C308 C303 1.429 . S
C308 C307 1.347 . S
H309 C310 0.951 . S
C310 H309 0.951 . S
C310 C316 1.265 . S
H311 C316 0.950 . S
H312 C320 0.949 . S
H313 C321 0.950 . S
H314 C322 0.951 . S
H315 C323 0.951 . S
C316 C310 1.265 . S
C316 H311 0.950 . S
C316 C317 1.478 . S
C317 C304 1.394 . S
C317 C316 1.478 . S
C317 C318 1.397 . S
C318 C317 1.397 . S
C318 C319 1.438 . S
C318 C323 1.429 . S
C319 C302 1.394 . S
C319 C318 1.438 . S
C319 C320 1.428 . S
C320 H312 0.949 . S
C320 C319 1.428 . S
C320 C321 1.345 . S
C321 H313 0.950 . S
C321 C320 1.345 . S
C321 C322 1.424 . S
C322 H314 0.951 . S
C322 C321 1.424 . S
C322 C323 1.347 . S
C323 H315 0.951 . S
C323 C318 1.429 . S
C323 C322 1.347 . S
H324 C325 0.951 . S
C325 H324 0.951 . S
C325 C331 1.265 . S
H326 C331 0.950 . S
H327 C335 0.949 . S
H328 C336 0.950 . S
H329 C337 0.951 . S
H330 C338 0.951 . S
C331 C325 1.265 . S
C331 H326 0.950 . S
C331 C332 1.478 . S
C332 C331 1.478 . S
C332 C333 1.397 . S
C332 C349 1.394 . S
C333 C332 1.397 . S
C333 C334 1.438 . S
C333 C338 1.429 . S
C334 C333 1.438 . S
C334 C335 1.428 . S
C334 C347 1.394 . S
C335 H327 0.949 . S
C335 C334 1.428 . S
C335 C336 1.345 . S
C336 H328 0.950 . S
C336 C335 1.345 . S
C336 C337 1.424 . S
C337 H329 0.951 . S
C337 C336 1.424 . S
C337 C338 1.347 . S
C338 H330 0.951 . S
C338 C333 1.429 . S
C338 C337 1.347 . S
H339 C340 0.951 . S
C340 H339 0.951 . S
C340 C346 1.265 . S
H341 C346 0.950 . S
H342 C350 0.949 . S
H343 C351 0.950 . S
H344 C352 0.951 . S
H345 C353 0.951 . S
C346 C340 1.265 . S
C346 H341 0.950 . S
C346 C347 1.478 . S
C347 C334 1.394 . S
C347 C346 1.478 . S
C347 C348 1.397 . S
C348 C347 1.397 . S
C348 C349 1.438 . S
C348 C353 1.429 . S
C349 C332 1.394 . S
C349 C348 1.438 . S
C349 C350 1.428 . S
C350 H342 0.949 . S
C350 C349 1.428 . S
C350 C351 1.345 . S
C351 H343 0.950 . S
C351 C350 1.345 . S
C351 C352 1.424 . S
C352 H344 0.951 . S
C352 C351 1.424 . S
C352 C353 1.347 . S
C353 H345 0.951 . S
C353 C348 1.429 . S
C353 C352 1.347 . S
H354 C355 0.951 . S
C355 H354 0.951 . S
C355 C361 1.265 . S
H356 C361 0.950 . S
H357 C365 0.949 . S
H358 C366 0.950 . S
H359 C367 0.951 . S
H360 C368 0.951 . S
C361 C355 1.265 . S
C361 H356 0.950 . S
C361 C362 1.478 . S
C362 C361 1.478 . S
C362 C363 1.397 . S
C362 C379 1.394 . S
C363 C362 1.397 . S
C363 C364 1.438 . S
C363 C368 1.429 . S
C364 C363 1.438 . S
C364 C365 1.428 . S
C364 C377 1.394 . S
C365 H357 0.949 . S
C365 C364 1.428 . S
C365 C366 1.345 . S
C366 H358 0.950 . S
C366 C365 1.345 . S
C366 C367 1.424 . S
C367 H359 0.951 . S
C367 C366 1.424 . S
C367 C368 1.347 . S
C368 H360 0.951 . S
C368 C363 1.429 . S
C368 C367 1.347 . S
H369 C370 0.951 . S
C370 H369 0.951 . S
C370 C376 1.265 . S
H371 C376 0.950 . S
H372 C380 0.949 . S
H373 C381 0.950 . S
H374 C382 0.951 . S
H375 C383 0.951 . S
C376 C370 1.265 . S
C376 H371 0.950 . S
C376 C377 1.478 . S
C377 C364 1.394 . S
C377 C376 1.478 . S
C377 C378 1.397 . S
C378 C377 1.397 . S
C378 C379 1.438 . S
C378 C383 1.429 . S
C379 C362 1.394 . S
C379 C378 1.438 . S
C379 C380 1.428 . S
C380 H372 0.949 . S
C380 C379 1.428 . S
C380 C381 1.345 . S
C381 H373 0.950 . S
C381 C380 1.345 . S
C381 C382 1.424 . S
C382 H374 0.951 . S
C382 C381 1.424 . S
C382 C383 1.347 . S
C383 H375 0.951 . S
C383 C378 1.429 . S
C383 C382 1.347 . S
H384 C385 0.951 . S
C385 H384 0.951 . S
C385 C391 1.265 . S
H386 C391 0.950 . S
H387 C395 0.949 . S
H388 C396 0.950 . S
H389 C397 0.951 . S
H390 C398 0.951 . S
C391 C385 1.265 . S
C391 H386 0.950 . S
C391 C392 1.478 . S
C392 C391 1.478 . S
C392 C393 1.397 . S
C392 C409 1.394 . S
C393 C392 1.397 . S
C393 C394 1.438 . S
C393 C398 1.429 . S
C394 C393 1.438 . S
C394 C395 1.428 . S
C394 C407 1.394 . S
C395 H387 0.949 . S
C395 C394 1.428 . S
C395 C396 1.345 . S
C396 H388 0.950 . S
C396 C395 1.345 . S
C396 C397 1.424 . S
C397 H389 0.951 . S
C397 C396 1.424 . S
C397 C398 1.347 . S
C398 H390 0.951 . S
C398 C393 1.429 . S
C398 C397 1.347 . S
H399 C400 0.951 . S
C400 H399 0.951 . S
C400 C406 1.265 . S
H401 C406 0.950 . S
H402 C410 0.949 . S
H403 C411 0.950 . S
H404 C412 0.951 . S
H405 C413 0.951 . S
C406 C400 1.265 . S
C406 H401 0.950 . S
C406 C407 1.478 . S
C407 C394 1.394 . S
C407 C406 1.478 . S
C407 C408 1.397 . S
C408 C407 1.397 . S
C408 C409 1.438 . S
C408 C413 1.429 . S
C409 C392 1.394 . S
C409 C408 1.438 . S
C409 C410 1.428 . S
C410 H402 0.949 . S
C410 C409 1.428 . S
C410 C411 1.345 . S
C411 H403 0.950 . S
C411 C410 1.345 . S
C411 C412 1.424 . S
C412 H404 0.951 . S
C412 C411 1.424 . S
C412 C413 1.347 . S
C413 H405 0.951 . S
C413 C408 1.429 . S
C413 C412 1.347 . S
H414 C415 0.951 . S
C415 H414 0.951 . S
C415 C421 1.265 . S
H416 C421 0.950 . S
H417 C425 0.949 . S
H418 C426 0.950 . S
H419 C427 0.951 . S
H420 C428 0.951 . S
C421 C415 1.265 . S
C421 H416 0.950 . S
C421 C422 1.478 . S
C422 C421 1.478 . S
C422 C423 1.397 . S
C422 C439 1.394 . S
C423 C422 1.397 . S
C423 C424 1.438 . S
C423 C428 1.429 . S
C424 C423 1.438 . S
C424 C425 1.428 . S
C424 C437 1.394 . S
C425 H417 0.949 . S
C425 C424 1.428 . S
C425 C426 1.345 . S
C426 H418 0.950 . S
C426 C425 1.345 . S
C426 C427 1.424 . S
C427 H419 0.951 . S
C427 C426 1.424 . S
C427 C428 1.347 . S
C428 H420 0.951 . S
C428 C423 1.429 . S
C428 C427 1.347 . S
H429 C430 0.951 . S
C430 H429 0.951 . S
C430 C436 1.265 . S
H431 C436 0.950 . S
H432 C440 0.949 . S
H433 C441 0.950 . S
H434 C442 0.951 . S
H435 C443 0.951 . S
C436 C430 1.265 . S
C436 H431 0.950 . S
C436 C437 1.478 . S
C437 C424 1.394 . S
C437 C436 1.478 . S
C437 C438 1.397 . S
C438 C437 1.397 . S
C438 C439 1.438 . S
C438 C443 1.429 . S
C439 C422 1.394 . S
C439 C438 1.438 . S
C439 C440 1.428 . S
C440 H432 0.949 . S
C440 C439 1.428 . S
C440 C441 1.345 . S
C441 H433 0.950 . S
C441 C440 1.345 . S
C441 C442 1.424 . S
C442 H434 0.951 . S
C442 C441 1.424 . S
C442 C443 1.347 . S
C443 H435 0.951 . S
C443 C438 1.429 . S
C443 C442 1.347 . S
H444 C445 0.951 . S
C445 H444 0.951 . S
C445 C451 1.265 . S
H446 C451 0.950 . S
H447 C455 0.949 . S
H448 C456 0.950 . S
H449 C457 0.951 . S
H450 C458 0.951 . S
C451 C445 1.265 . S
C451 H446 0.950 . S
C451 C452 1.478 . S
C452 C451 1.478 . S
C452 C453 1.397 . S
C452 C469 1.394 . S
C453 C452 1.397 . S
C453 C454 1.438 . S
C453 C458 1.429 . S
C454 C453 1.438 . S
C454 C455 1.428 . S
C454 C467 1.394 . S
C455 H447 0.949 . S
C455 C454 1.428 . S
C455 C456 1.345 . S
C456 H448 0.950 . S
C456 C455 1.345 . S
C456 C457 1.424 . S
C457 H449 0.951 . S
C457 C456 1.424 . S
C457 C458 1.347 . S
C458 H450 0.951 . S
C458 C453 1.429 . S
C458 C457 1.347 . S
H459 C460 0.951 . S
C460 H459 0.951 . S
C460 C466 1.265 . S
H461 C466 0.950 . S
H462 C470 0.949 . S
H463 C471 0.950 . S
H464 C472 0.951 . S
H465 C473 0.951 . S
C466 C460 1.265 . S
C466 H461 0.950 . S
C466 C467 1.478 . S
C467 C454 1.394 . S
C467 C466 1.478 . S
C467 C468 1.397 . S
C468 C467 1.397 . S
C468 C469 1.438 . S
C468 C473 1.429 . S
C469 C452 1.394 . S
C469 C468 1.438 . S
C469 C470 1.428 . S
C470 H462 0.949 . S
C470 C469 1.428 . S
C470 C471 1.345 . S
C471 H463 0.950 . S
C471 C470 1.345 . S
C471 C472 1.424 . S
C472 H464 0.951 . S
C472 C471 1.424 . S
C472 C473 1.347 . S
C473 H465 0.951 . S
C473 C468 1.429 . S
C473 C472 1.347 . S
H474 C475 0.951 1_655 S
C475 H474 0.951 1_455 S
C475 C481 1.265 . S
H476 C481 0.950 . S
H477 C485 0.949 1_655 S
H478 C486 0.956 1_655 S
H479 C487 0.951 . S
H480 C488 0.951 . S
C481 C475 1.265 . S
C481 H476 0.950 . S
C481 C482 1.478 . S
C482 C481 1.478 . S
C482 C483 1.397 . S
C482 C499 1.394 . S
C483 C482 1.397 . S
C483 C484 1.438 . S
C483 C488 1.429 . S
C484 C483 1.438 . S
C484 C485 1.428 1_554 S
C484 C497 1.394 1_554 S
C485 H477 0.949 1_455 S
C485 C484 1.428 1_556 S
C485 C486 1.336 . S
C486 H478 0.956 1_455 S
C486 C485 1.336 . S
C486 C487 1.427 1_556 S
C487 H479 0.951 . S
C487 C486 1.427 1_554 S
C487 C488 1.347 . S
C488 H480 0.951 . S
C488 C483 1.429 . S
C488 C487 1.347 . S
H489 C490 0.951 . S
C490 H489 0.951 . S
C490 C496 1.265 . S
H491 C496 0.950 1_655 S
H492 C500 0.949 . S
H493 C501 0.950 . S
H494 C502 0.951 . S
H495 C503 0.951 1_556 S
C496 C490 1.265 . S
C496 H491 0.950 1_455 S
C496 C497 1.478 . S
C497 C484 1.394 1_556 S
C497 C496 1.478 . S
C497 C498 1.397 1_556 S
C498 C497 1.397 1_554 S
C498 C499 1.438 . S
C498 C503 1.429 . S
C499 C482 1.394 . S
C499 C498 1.438 . S
C499 C500 1.428 . S
C500 H492 0.949 . S
C500 C499 1.428 . S
C500 C501 1.345 . S
C501 H493 0.950 . S
C501 C500 1.345 . S
C501 C502 1.424 . S
C502 H494 0.951 . S
C502 C501 1.424 . S
C502 C503 1.347 . S
C503 H495 0.951 1_554 S
C503 C498 1.429 . S
C503 C502 1.347 . S
H504 C505 0.951 1_565 S
C505 H504 0.951 1_545 S
C505 C511 1.265 . S
H506 C511 0.950 . S
H507 C515 0.949 . S
H508 C516 0.950 . S
H509 C517 0.951 . S
H510 C518 0.951 . S
C511 C505 1.265 . S
C511 H506 0.950 . S
C511 C512 1.478 . S
C512 C511 1.478 . S
C512 C513 1.397 1_545 S
C512 C529 1.394 . S
C513 C512 1.397 1_565 S
C513 C514 1.438 . S
C513 C518 1.429 . S
C514 C513 1.438 . S
C514 C515 1.428 . S
C514 C527 1.394 1_565 S
C515 H507 0.949 . S
C515 C514 1.428 . S
C515 C516 1.345 . S
C516 H508 0.950 . S
C516 C515 1.345 . S
C516 C517 1.424 . S
C517 H509 0.951 . S
C517 C516 1.424 . S
C517 C518 1.347 . S
C518 H510 0.951 . S
C518 C513 1.429 . S
C518 C517 1.347 . S
H519 C520 0.951 . S
C520 H519 0.951 . S
C520 C526 1.265 . S
H521 C526 0.950 . S
H522 C530 0.949 . S
H523 C531 0.950 . S
H524 C532 0.951 . S
H525 C533 0.951 . S
C526 C520 1.265 . S
C526 H521 0.950 . S
C526 C527 1.478 . S
C527 C514 1.394 1_545 S
C527 C526 1.478 . S
C527 C528 1.397 . S
C528 C527 1.397 . S
C528 C529 1.438 . S
C528 C533 1.429 . S
C529 C512 1.394 . S
C529 C528 1.438 . S
C529 C530 1.428 . S
C530 H522 0.949 . S
C530 C529 1.428 . S
C530 C531 1.345 . S
C531 H523 0.950 . S
C531 C530 1.345 . S
C531 C532 1.424 . S
C532 H524 0.951 . S
C532 C531 1.424 . S
C532 C533 1.347 . S
C533 H525 0.951 . S
C533 C528 1.429 . S
C533 C532 1.347 . S
H534 C535 0.951 . S
C535 H534 0.951 . S
C535 C541 1.265 . S
H536 C541 0.950 . S
H537 C545 0.949 . S
H538 C546 0.950 . S
H539 C547 0.951 . S
H540 C548 0.951 . S
C541 C535 1.265 . S
C541 H536 0.950 . S
C541 C542 1.478 . S
C542 C541 1.478 . S
C542 C543 1.397 . S
C542 C559 1.394 . S
C543 C542 1.397 . S
C543 C544 1.438 . S
C543 C548 1.429 . S
C544 C543 1.438 . S
C544 C545 1.428 . S
C544 C557 1.394 . S
C545 H537 0.949 . S
C545 C544 1.428 . S
C545 C546 1.345 . S
C546 H538 0.950 . S
C546 C545 1.345 . S
C546 C547 1.424 . S
C547 H539 0.951 . S
C547 C546 1.424 . S
C547 C548 1.347 . S
C548 H540 0.951 . S
C548 C543 1.429 . S
C548 C547 1.347 . S
H549 C550 0.951 . S
C550 H549 0.951 . S
C550 C556 1.265 . S
H551 C556 0.950 . S
H552 C560 0.949 . S
H553 C561 0.950 . S
H554 C562 0.951 . S
H555 C563 0.951 . S
C556 C550 1.265 . S
C556 H551 0.950 . S
C556 C557 1.478 . S
C557 C544 1.394 . S
C557 C556 1.478 . S
C557 C558 1.397 . S
C558 C557 1.397 . S
C558 C559 1.438 . S
C558 C563 1.429 . S
C559 C542 1.394 . S
C559 C558 1.438 . S
C559 C560 1.428 . S
C560 H552 0.949 . S
C560 C559 1.428 . S
C560 C561 1.345 . S
C561 H553 0.950 . S
C561 C560 1.345 . S
C561 C562 1.424 . S
C562 H554 0.951 . S
C562 C561 1.424 . S
C562 C563 1.347 . S
C563 H555 0.951 . S
C563 C558 1.429 . S
C563 C562 1.347 . S
H564 C565 0.951 . S
C565 H564 0.951 . S
C565 C571 1.265 . S
H566 C571 0.950 . S
H567 C575 0.949 . S
H568 C576 0.950 . S
H569 C577 0.951 . S
H570 C578 0.951 . S
C571 C565 1.265 . S
C571 H566 0.950 . S
C571 C572 1.478 . S
C572 C571 1.478 . S
C572 C573 1.397 1_545 S
C572 C589 1.394 . S
C573 C572 1.397 1_565 S
C573 C574 1.438 . S
C573 C578 1.429 . S
C574 C573 1.438 . S
C574 C575 1.428 . S
C574 C587 1.394 1_565 S
C575 H567 0.949 . S
C575 C574 1.428 . S
C575 C576 1.345 . S
C576 H568 0.950 . S
C576 C575 1.345 . S
C576 C577 1.424 . S
C577 H569 0.951 . S
C577 C576 1.424 . S
C577 C578 1.347 . S
C578 H570 0.951 . S
C578 C573 1.429 . S
C578 C577 1.347 . S
H579 C580 0.951 . S
C580 H579 0.951 . S
C580 C586 1.265 . S
H581 C586 0.950 . S
H582 C590 0.949 . S
H583 C591 0.950 . S
H584 C592 0.951 . S
H585 C593 0.951 . S
C586 C580 1.265 . S
C586 H581 0.950 . S
C586 C587 1.478 . S
C587 C574 1.394 1_545 S
C587 C586 1.478 . S
C587 C588 1.397 . S
C588 C587 1.397 . S
C588 C589 1.438 . S
C588 C593 1.429 . S
C589 C572 1.394 . S
C589 C588 1.438 . S
C589 C590 1.428 . S
C590 H582 0.949 . S
C590 C589 1.428 . S
C590 C591 1.345 . S
C591 H583 0.950 . S
C591 C590 1.345 . S
C591 C592 1.424 . S
C592 H584 0.951 . S
C592 C591 1.424 . S
C592 C593 1.347 . S
C593 H585 0.951 . S
C593 C588 1.429 . S
C593 C592 1.347 . S
H594 C595 0.951 . S
C595 H594 0.951 . S
C595 C601 1.265 . S
H596 C601 0.950 . S
H597 C605 0.964 . S
H598 C606 0.950 . S
H599 C607 0.951 . S
H600 C608 0.951 . S
C601 C595 1.265 . S
C601 H596 0.950 . S
C601 C602 1.478 . S
C602 C601 1.478 . S
C602 C603 1.397 . S
C602 C619 1.394 . S
C603 C602 1.397 . S
C603 C604 1.438 . S
C603 C608 1.429 . S
C604 C603 1.438 . S
C604 C605 1.420 1_556 S
C604 C617 1.394 1_556 S
C605 H597 0.964 . S
C605 C604 1.420 1_554 S
C605 C606 1.338 1_554 S
C606 H598 0.950 . S
C606 C605 1.338 1_556 S
C606 C607 1.424 . S
C607 H599 0.951 . S
C607 C606 1.424 . S
C607 C608 1.347 . S
C608 H600 0.951 . S
C608 C603 1.429 . S
C608 C607 1.347 . S
H609 C610 0.951 . S
C610 H609 0.951 . S
C610 C616 1.265 . S
H611 C616 0.950 . S
H612 C620 0.949 . S
H613 C621 0.950 . S
H614 C622 0.951 . S
H615 C623 0.951 . S
C616 C610 1.265 . S
C616 H611 0.950 . S
C616 C617 1.478 . S
C617 C604 1.394 1_554 S
C617 C616 1.478 . S
C617 C618 1.397 1_554 S
C618 C617 1.397 1_556 S
C618 C619 1.438 . S
C618 C623 1.429 1_556 S
C619 C602 1.394 . S
C619 C618 1.438 . S
C619 C620 1.428 . S
C620 H612 0.949 . S
C620 C619 1.428 . S
C620 C621 1.345 . S
C621 H613 0.950 . S
C621 C620 1.345 . S
C621 C622 1.424 . S
C622 H614 0.951 . S
C622 C621 1.424 . S
C622 C623 1.347 1_556 S
C623 H615 0.951 . S
C623 C618 1.429 1_554 S
C623 C622 1.347 1_554 S
H624 C625 0.951 . S
C625 H624 0.951 . S
C625 C631 1.265 1_655 S
H626 C631 0.950 . S
H627 C635 0.949 . S
H628 C636 0.950 . S
H629 C637 0.951 . S
H630 C638 0.951 . S
C631 C625 1.265 1_455 S
C631 H626 0.950 . S
C631 C632 1.478 . S
C632 C631 1.478 . S
C632 C633 1.397 . S
C632 C649 1.394 1_455 S
C633 C632 1.397 . S
C633 C634 1.438 . S
C633 C638 1.429 . S
C634 C633 1.438 . S
C634 C635 1.428 . S
C634 C647 1.394 1_455 S
C635 H627 0.949 . S
C635 C634 1.428 . S
C635 C636 1.345 . S
C636 H628 0.950 . S
C636 C635 1.345 . S
C636 C637 1.424 . S
C637 H629 0.951 . S
C637 C636 1.424 . S
C637 C638 1.347 . S
C638 H630 0.951 . S
C638 C633 1.429 . S
C638 C637 1.347 . S
H639 C640 0.951 . S
C640 H639 0.951 . S
C640 C646 1.265 1_455 S
H641 C646 0.950 . S
H642 C650 0.949 . S
H643 C651 0.950 . S
H644 C652 0.951 . S
H645 C653 0.951 . S
C646 C640 1.265 1_655 S
C646 H641 0.950 . S
C646 C647 1.478 . S
C647 C634 1.394 1_655 S
C647 C646 1.478 . S
C647 C648 1.397 . S
C648 C647 1.397 . S
C648 C649 1.438 . S
C648 C653 1.429 . S
C649 C632 1.394 1_655 S
C649 C648 1.438 . S
C649 C650 1.428 . S
C650 H642 0.949 . S
C650 C649 1.428 . S
C650 C651 1.345 . S
C651 H643 0.950 . S
C651 C650 1.345 . S
C651 C652 1.424 . S
C652 H644 0.951 . S
C652 C651 1.424 . S
C652 C653 1.347 . S
C653 H645 0.951 . S
C653 C648 1.429 . S
C653 C652 1.347 . S
C115 C2 1.341 . S
C130 C109 1.389 . S
C145 C22 1.391 . S
C160 C91 1.422 . S
C175 C44 1.264 . S
C190 C103 1.408 . S
C205 C4 1.450 . S
C220 C112 1.488 . S
C250 C94 1.520 . S
C235 C24 1.376 . S
C280 C100 1.498 . S
C265 C42 1.358 . S
C295 C32 1.185 . S
C310 C73 1.272 . S
C325 C49 1.251 . S
C340 C82 1.225 . S
C355 C9 1.260 . S
C370 C64 1.244 . S
C400 C76 1.237 . S
C385 C29 1.250 . S
C430 C85 1.218 . S
C415 C52 1.244 . S
C445 C12 1.246 . S
C460 C67 1.228 . S
C490 C83 1.432 . S
C475 C18 1.391 1_455 S
C505 C38 1.382 . S
C520 C65 1.431 . S
C535 C58 1.426 . S
C550 C74 1.430 . S
C580 C101 1.500 . S
C565 C39 1.479 . S
C610 C110 1.493 . S
C595 C59 1.446 . S
C625 C19 1.497 1_655 S
C640 C92 1.485 . S
