# Generated by pormake.
# Topology pyr, (3,6)-cn, num edge types: 1
# Building blocks:
#     Node 0, Type 0, BuildingBlock: KAKCAD_clean_linker_0, # of connection points: 3
#     Node 1, Type 0, BuildingBlock: KAKCAD_clean_linker_0, # of connection points: 3
#     Node 2, Type 0, BuildingBlock: KAKCAD_clean_linker_0, # of connection points: 3
#     Node 3, Type 0, BuildingBlock: KAKCAD_clean_linker_0, # of connection points: 3
#     Node 4, Type 0, BuildingBlock: KAKCAD_clean_linker_0, # of connection points: 3
#     Node 5, Type 0, BuildingBlock: KAKCAD_clean_linker_0, # of connection points: 3
#     Node 6, Type 0, BuildingBlock: KAKCAD_clean_linker_0, # of connection points: 3
#     Node 7, Type 0, BuildingBlock: KAKCAD_clean_linker_0, # of connection points: 3
#     Node 8, Type 1, BuildingBlock: BETFAJ_clean_sbu_0, # of connection points: 6
#     Node 9, Type 1, BuildingBlock: BETFAJ_clean_sbu_0, # of connection points: 6
#     Node 10, Type 1, BuildingBlock: BETFAJ_clean_sbu_0, # of connection points: 6
#     Node 11, Type 1, BuildingBlock: BETFAJ_clean_sbu_0, # of connection points: 6
#     Edge 12, Type (0, 1), BuildingBlock: OJICUG_clean_linker_0, # of connection points: 2
#     Edge 13, Type (0, 1), BuildingBlock: OJICUG_clean_linker_0, # of connection points: 2
#     Edge 14, Type (0, 1), BuildingBlock: OJICUG_clean_linker_0, # of connection points: 2
#     Edge 15, Type (0, 1), BuildingBlock: OJICUG_clean_linker_0, # of connection points: 2
#     Edge 16, Type (0, 1), BuildingBlock: OJICUG_clean_linker_0, # of connection points: 2
#     Edge 17, Type (0, 1), BuildingBlock: OJICUG_clean_linker_0, # of connection points: 2
#     Edge 18, Type (0, 1), BuildingBlock: OJICUG_clean_linker_0, # of connection points: 2
#     Edge 19, Type (0, 1), BuildingBlock: OJICUG_clean_linker_0, # of connection points: 2
#     Edge 20, Type (0, 1), BuildingBlock: OJICUG_clean_linker_0, # of connection points: 2
#     Edge 21, Type (0, 1), BuildingBlock: OJICUG_clean_linker_0, # of connection points: 2
#     Edge 22, Type (0, 1), BuildingBlock: OJICUG_clean_linker_0, # of connection points: 2
#     Edge 23, Type (0, 1), BuildingBlock: OJICUG_clean_linker_0, # of connection points: 2
#     Edge 24, Type (0, 1), BuildingBlock: OJICUG_clean_linker_0, # of connection points: 2
#     Edge 25, Type (0, 1), BuildingBlock: OJICUG_clean_linker_0, # of connection points: 2
#     Edge 26, Type (0, 1), BuildingBlock: OJICUG_clean_linker_0, # of connection points: 2
#     Edge 27, Type (0, 1), BuildingBlock: OJICUG_clean_linker_0, # of connection points: 2
#     Edge 28, Type (0, 1), BuildingBlock: OJICUG_clean_linker_0, # of connection points: 2
#     Edge 29, Type (0, 1), BuildingBlock: OJICUG_clean_linker_0, # of connection points: 2
#     Edge 30, Type (0, 1), BuildingBlock: OJICUG_clean_linker_0, # of connection points: 2
#     Edge 31, Type (0, 1), BuildingBlock: OJICUG_clean_linker_0, # of connection points: 2
#     Edge 32, Type (0, 1), BuildingBlock: OJICUG_clean_linker_0, # of connection points: 2
#     Edge 33, Type (0, 1), BuildingBlock: OJICUG_clean_linker_0, # of connection points: 2
#     Edge 34, Type (0, 1), BuildingBlock: OJICUG_clean_linker_0, # of connection points: 2
#     Edge 35, Type (0, 1), BuildingBlock: OJICUG_clean_linker_0, # of connection points: 2
# Relax obj value: 0.132
# Max RMSD: 0.128
# Mean RMSD: 0.063
data_MOF--net-pyr--node1-BETFAJ_clean_sbu_0--node2-KAKCAD_clean_linker_0--edge1-OJICUG_clean_linker_0
_symmetry_space_group_name_H-M    P1
_symmetry_Int_Tables_number       1
_symmetry_cell_setting            triclinic
loop_
_symmetry_equiv_pos_as_xyz
'x, y, z'
_cell_length_a     37.402917
_cell_length_b     38.313908
_cell_length_c     34.244794
_cell_angle_alpha  90.495358
_cell_angle_beta   88.184211
_cell_angle_gamma 101.89231
loop_
_atom_site_label
_atom_site_type_symbol
_atom_site_fract_x
_atom_site_fract_y
_atom_site_fract_z
_atom_type_partial_charge
C0 C 0.27905 0.28479 0.38566 0.0
C1 C 0.29067 0.25714 0.40465 0.0
C2 C 0.30119 0.30449 0.35689 0.0
C3 C 0.33606 0.29764 0.34698 0.0
C4 C 0.34944 0.27315 0.37011 0.0
C5 C 0.32663 0.25253 0.39816 0.0
C6 C 0.3544 0.31079 0.3088 0.0
C7 C 0.34558 0.34043 0.2908 0.0
C8 C 0.34768 0.34393 0.25004 0.0
C9 C 0.36814 0.32301 0.22803 0.0
C10 C 0.38287 0.29633 0.24662 0.0
C11 C 0.37389 0.2895 0.28655 0.0
C12 C 0.40379 0.27223 0.22482 0.0
C13 C 0.39665 0.26203 0.1857 0.0
C14 C 0.42929 0.25665 0.24448 0.0
C15 C 0.44469 0.22987 0.2269 0.0
C16 C 0.43612 0.21874 0.18868 0.0
C17 C 0.322 0.3639 0.23189 0.0
C18 C 0.28603 0.3594 0.24771 0.0
C19 C 0.33191 0.38685 0.19974 0.0
C20 C 0.30641 0.4051 0.1843 0.0
C21 C 0.27086 0.40085 0.20105 0.0
C22 C 0.26108 0.37788 0.23285 0.0
C23 C 0.41283 0.23571 0.16781 0.0
H24 H 0.25125 0.28859 0.38983 0.0
H25 H 0.28896 0.32249 0.34017 0.0
H26 H 0.37654 0.26796 0.36476 0.0
H27 H 0.33616 0.23135 0.4128 0.0
H28 H 0.33239 0.35841 0.30782 0.0
H29 H 0.37971 0.26571 0.29944 0.0
H30 H 0.37108 0.32653 0.1967 0.0
H31 H 0.37731 0.27302 0.16935 0.0
H32 H 0.43672 0.26441 0.27408 0.0
H33 H 0.46284 0.21736 0.24344 0.0
H34 H 0.27679 0.34106 0.27157 0.0
H35 H 0.35925 0.39086 0.18682 0.0
H36 H 0.40598 0.22755 0.13814 0.0
H37 H 0.23365 0.37349 0.24566 0.0
H38 H 0.31438 0.42252 0.15941 0.0
C39 C 0.28517 0.94343 0.76402 0.0
C40 C 0.32332 0.95276 0.7627 0.0
C41 C 0.26675 0.93289 0.72988 0.0
C42 C 0.28663 0.93176 0.69448 0.0
C43 C 0.3246 0.94469 0.69303 0.0
C44 C 0.34293 0.9548 0.72718 0.0
C45 C 0.26909 0.91108 0.66146 0.0
C46 C 0.23342 0.91258 0.65164 0.0
C47 C 0.21481 0.88806 0.6248 0.0
C48 C 0.23245 0.86359 0.60658 0.0
C49 C 0.26788 0.8621 0.61591 0.0
C50 C 0.28632 0.88574 0.64331 0.0
C51 C 0.28366 0.83319 0.5997 0.0
C52 C 0.26213 0.79855 0.59866 0.0
C53 C 0.31999 0.83971 0.58582 0.0
C54 C 0.33519 0.81144 0.57274 0.0
C55 C 0.31405 0.77661 0.57353 0.0
C56 C 0.17663 0.88692 0.61619 0.0
C57 C 0.15223 0.89323 0.64593 0.0
C58 C 0.16454 0.88071 0.5778 0.0
C59 C 0.13033 0.88598 0.56847 0.0
C60 C 0.10988 0.90065 0.59673 0.0
C61 C 0.11859 0.8997 0.63627 0.0
C62 C 0.2771 0.77051 0.58508 0.0
H63 H 0.26996 0.9422 0.79163 0.0
H64 H 0.23747 0.92293 0.73183 0.0
H65 H 0.34034 0.94464 0.66594 0.0
H66 H 0.37251 0.96248 0.72619 0.0
H67 H 0.22003 0.93223 0.66544 0.0
H68 H 0.31307 0.88275 0.65231 0.0
H69 H 0.21805 0.84447 0.58605 0.0
H70 H 0.23413 0.79283 0.6099 0.0
H71 H 0.33681 0.86637 0.58619 0.0
H72 H 0.36404 0.81647 0.5647 0.0
H73 H 0.16024 0.89608 0.67611 0.0
H74 H 0.18254 0.87514 0.55422 0.0
H75 H 0.26062 0.74371 0.58628 0.0
H76 H 0.10264 0.9097 0.65909 0.0
H77 H 0.12323 0.88525 0.53798 0.0
C78 C 0.77426 0.46099 0.93948 0.0
C79 C 0.79935 0.44019 0.95089 0.0
C80 C 0.7423 0.44581 0.91954 0.0
C81 C 0.7339 0.40915 0.91055 0.0
C82 C 0.75913 0.38845 0.92147 0.0
C83 C 0.79116 0.40362 0.94115 0.0
C84 C 0.6982 0.39192 0.89214 0.0
C85 C 0.68281 0.40839 0.86165 0.0
C86 C 0.64899 0.392 0.84486 0.0
C87 C 0.631 0.35813 0.85997 0.0
C88 C 0.64605 0.3408 0.88998 0.0
C89 C 0.67927 0.35841 0.90581 0.0
C90 C 0.62749 0.30437 0.9055 0.0
C91 C 0.58923 0.29452 0.91063 0.0
C92 C 0.6482 0.27933 0.91669 0.0
C93 C 0.6314 0.24601 0.93271 0.0
C94 C 0.59311 0.2362 0.93822 0.0
C95 C 0.63266 0.40989 0.81165 0.0
C96 C 0.64089 0.4473 0.80615 0.0
C97 C 0.60849 0.38987 0.78478 0.0
C98 C 0.59315 0.40632 0.75446 0.0
C99 C 0.60152 0.44367 0.74888 0.0
C100 C 0.62594 0.4637 0.77546 0.0
C101 C 0.57241 0.26121 0.92678 0.0
H102 H 0.77873 0.48907 0.94671 0.0
H103 H 0.72357 0.46269 0.91223 0.0
H104 H 0.75423 0.36025 0.91466 0.0
H105 H 0.8097 0.38652 0.94829 0.0
H106 H 0.69794 0.43361 0.85042 0.0
H107 H 0.69012 0.34624 0.92997 0.0
H108 H 0.60513 0.34492 0.84844 0.0
H109 H 0.57216 0.31294 0.90312 0.0
H110 H 0.67766 0.2853 0.91274 0.0
H111 H 0.64864 0.22775 0.94025 0.0
H112 H 0.65869 0.46444 0.82582 0.0
H113 H 0.60143 0.36111 0.78657 0.0
H114 H 0.543 0.25552 0.93105 0.0
H115 H 0.63405 0.49235 0.77258 0.0
H116 H 0.57426 0.38939 0.73559 0.0
C117 C 0.87471 0.62858 0.26217 0.0
C118 C 0.91265 0.63347 0.2544 0.0
C119 C 0.86055 0.64573 0.29382 0.0
C120 C 0.88366 0.66826 0.31956 0.0
C121 C 0.9217 0.67356 0.3115 0.0
C122 C 0.93589 0.65661 0.27945 0.0
C123 C 0.86788 0.68551 0.35451 0.0
C124 C 0.83484 0.66783 0.37341 0.0
C125 C 0.81874 0.68346 0.40508 0.0
C126 C 0.83621 0.71758 0.41798 0.0
C127 C 0.86924 0.73605 0.40049 0.0
C128 C 0.88505 0.7196 0.36897 0.0
C129 C 0.88613 0.77285 0.41522 0.0
C130 C 0.86432 0.79837 0.42216 0.0
C131 C 0.92332 0.78231 0.42459 0.0
C132 C 0.93792 0.81592 0.44121 0.0
C133 C 0.91598 0.84135 0.44796 0.0
C134 C 0.78356 0.66457 0.42494 0.0
C135 C 0.75406 0.64563 0.40353 0.0
C136 C 0.7787 0.66653 0.46578 0.0
C137 C 0.74523 0.65144 0.48441 0.0
C138 C 0.71516 0.63386 0.46298 0.0
C139 C 0.72035 0.63051 0.42228 0.0
C140 C 0.87906 0.83212 0.43787 0.0
H141 H 0.85566 0.61171 0.24336 0.0
H142 H 0.83114 0.64144 0.29771 0.0
H143 H 0.94075 0.69024 0.33044 0.0
H144 H 0.96526 0.661 0.27491 0.0
H145 H 0.82189 0.64128 0.36414 0.0
H146 H 0.90998 0.73404 0.35488 0.0
H147 H 0.82389 0.73008 0.44192 0.0
H148 H 0.83561 0.79221 0.41538 0.0
H149 H 0.94091 0.76335 0.42006 0.0
H150 H 0.96649 0.82213 0.44859 0.0
H151 H 0.75656 0.64359 0.37205 0.0
H152 H 0.80085 0.67999 0.48355 0.0
H153 H 0.8613 0.85085 0.44291 0.0
H154 H 0.69794 0.61738 0.40466 0.0
H155 H 0.74287 0.65389 0.51587 0.0
C156 C 0.70914 0.80005 0.71518 0.0
C157 C 0.71964 0.83729 0.71574 0.0
C158 C 0.68198 0.78278 0.74148 0.0
C159 C 0.66582 0.80269 0.76914 0.0
C160 C 0.67315 0.84014 0.76558 0.0
C161 C 0.69981 0.85724 0.73904 0.0
C162 C 0.64917 0.7862 0.80644 0.0
C163 C 0.66589 0.76176 0.82553 0.0
C164 C 0.6595 0.75449 0.86566 0.0
C165 C 0.63599 0.77295 0.88698 0.0
C166 C 0.61859 0.79721 0.8679 0.0
C167 C 0.62347 0.80146 0.82731 0.0
C168 C 0.60192 0.82402 0.88978 0.0
C169 C 0.57311 0.81454 0.91759 0.0
C170 C 0.61493 0.86038 0.8813 0.0
C171 C 0.5998 0.88661 0.89993 0.0
C172 C 0.57113 0.87746 0.9277 0.0
C173 C 0.68227 0.73194 0.88496 0.0
C174 C 0.69096 0.70204 0.86544 0.0
C175 C 0.69939 0.74255 0.92034 0.0
C176 C 0.72585 0.72508 0.93459 0.0
C177 C 0.73603 0.69641 0.91396 0.0
C178 C 0.71744 0.68465 0.87961 0.0
C179 C 0.55757 0.84112 0.93621 0.0
H180 H 0.72434 0.78433 0.69729 0.0
H181 H 0.67628 0.75392 0.74272 0.0
H182 H 0.66166 0.85669 0.78622 0.0
H183 H 0.70784 0.88608 0.73993 0.0
H184 H 0.687 0.7511 0.81009 0.0
H185 H 0.61022 0.82015 0.81269 0.0
H186 H 0.6328 0.76999 0.9184 0.0
H187 H 0.56247 0.78675 0.92457 0.0
H188 H 0.63727 0.86868 0.86026 0.0
H189 H 0.61077 0.91433 0.89276 0.0
H190 H 0.67799 0.69266 0.83839 0.0
H191 H 0.69394 0.76565 0.93601 0.0
H192 H 0.53563 0.83341 0.95781 0.0
H193 H 0.72367 0.66223 0.86323 0.0
H194 H 0.7396 0.73533 0.96092 0.0
C195 C 0.70267 0.12724 0.37316 0.0
C196 C 0.70094 0.15096 0.34267 0.0
C197 C 0.7209 0.13976 0.40669 0.0
C198 C 0.73712 0.17596 0.40971 0.0
C199 C 0.73961 0.19846 0.37731 0.0
C200 C 0.72173 0.18585 0.3436 0.0
C201 C 0.74663 0.19104 0.44798 0.0
C202 C 0.7702 0.17693 0.47078 0.0
C203 C 0.77985 0.19221 0.50709 0.0
C204 C 0.76409 0.21939 0.52196 0.0
C205 C 0.74116 0.23382 0.49889 0.0
C206 C 0.73217 0.21982 0.46185 0.0
C207 C 0.73027 0.26608 0.51205 0.0
C208 C 0.71032 0.26621 0.54727 0.0
C209 C 0.74032 0.29699 0.48955 0.0
C210 C 0.72718 0.32701 0.50021 0.0
C211 C 0.70289 0.32556 0.53253 0.0
C212 C 0.81277 0.18635 0.52397 0.0
C213 C 0.81684 0.15152 0.52968 0.0
C214 C 0.84262 0.21535 0.52654 0.0
C215 C 0.87725 0.20918 0.53232 0.0
C216 C 0.8814 0.17416 0.53566 0.0
C217 C 0.85118 0.14541 0.53547 0.0
C218 C 0.69649 0.29603 0.55753 0.0
H219 H 0.68708 0.10008 0.3728 0.0
H220 H 0.71931 0.12204 0.43147 0.0
H221 H 0.75311 0.22628 0.37911 0.0
H222 H 0.72169 0.20409 0.3196 0.0
H223 H 0.78321 0.15613 0.4589 0.0
H224 H 0.71418 0.23136 0.44396 0.0
H225 H 0.77259 0.23163 0.5498 0.0
H226 H 0.70338 0.2425 0.56527 0.0
H227 H 0.75689 0.29731 0.46295 0.0
H228 H 0.73257 0.34986 0.48087 0.0
H229 H 0.79398 0.12912 0.52714 0.0
H230 H 0.83955 0.24241 0.52124 0.0
H231 H 0.67771 0.29446 0.5825 0.0
H232 H 0.85454 0.11808 0.53802 0.0
H233 H 0.90063 0.23121 0.53251 0.0
C234 C 0.21294 0.64825 0.20616 0.0
C235 C 0.20891 0.6534 0.16582 0.0
C236 C 0.24597 0.66257 0.22473 0.0
C237 C 0.27623 0.68251 0.20364 0.0
C238 C 0.27231 0.68697 0.16316 0.0
C239 C 0.23931 0.67291 0.14471 0.0
C240 C 0.31099 0.70043 0.22355 0.0
C241 C 0.32627 0.68406 0.25422 0.0
C242 C 0.35886 0.70148 0.27284 0.0
C243 C 0.37583 0.73615 0.25899 0.0
C244 C 0.36164 0.75277 0.22783 0.0
C245 C 0.32896 0.73473 0.21129 0.0
C246 C 0.3805 0.78896 0.21192 0.0
C247 C 0.39854 0.81638 0.2364 0.0
C248 C 0.3799 0.79669 0.17168 0.0
C249 C 0.39603 0.83054 0.15666 0.0
C250 C 0.41393 0.85792 0.18114 0.0
C251 C 0.37528 0.68373 0.30623 0.0
C252 C 0.3543 0.65524 0.32852 0.0
C253 C 0.41232 0.69505 0.31668 0.0
C254 C 0.42716 0.67945 0.34797 0.0
C255 C 0.40615 0.65098 0.36964 0.0
C256 C 0.36954 0.63896 0.35906 0.0
C257 C 0.41508 0.85018 0.22124 0.0
H258 H 0.19022 0.63366 0.22369 0.0
H259 H 0.24743 0.65877 0.25589 0.0
H260 H 0.29495 0.70139 0.14541 0.0
H261 H 0.23785 0.67692 0.11359 0.0
H262 H 0.31302 0.65729 0.26265 0.0
H263 H 0.3168 0.74802 0.18903 0.0
H264 H 0.40033 0.75059 0.27221 0.0
H265 H 0.39936 0.81203 0.26752 0.0
H266 H 0.36723 0.77638 0.1514 0.0
H267 H 0.39511 0.83502 0.12556 0.0
H268 H 0.32568 0.64547 0.32306 0.0
H269 H 0.43063 0.71578 0.3005 0.0
H270 H 0.42833 0.87054 0.24116 0.0
H271 H 0.35228 0.61725 0.37506 0.0
H272 H 0.45558 0.68924 0.35467 0.0
C273 C 0.13074 0.26471 0.67478 0.0
C274 C 0.09316 0.25371 0.66799 0.0
C275 C 0.14493 0.29801 0.69169 0.0
C276 C 0.12225 0.32198 0.70238 0.0
C277 C 0.08445 0.31079 0.6965 0.0
C278 C 0.07013 0.27717 0.6796 0.0
C279 C 0.13891 0.35885 0.71751 0.0
C280 C 0.17217 0.37727 0.70045 0.0
C281 C 0.1906 0.41057 0.71456 0.0
C282 C 0.17418 0.42643 0.74585 0.0
C283 C 0.14054 0.40919 0.764 0.0
C284 C 0.1231 0.37529 0.7491 0.0
C285 C 0.12467 0.42643 0.79899 0.0
C286 C 0.14769 0.44858 0.82516 0.0
C287 C 0.08659 0.42152 0.80666 0.0
C288 C 0.0723 0.43847 0.83867 0.0
C289 C 0.09547 0.46127 0.86411 0.0
C290 C 0.22755 0.42775 0.69697 0.0
C291 C 0.25244 0.40647 0.6848 0.0
C292 C 0.2383 0.46497 0.69143 0.0
C293 C 0.27227 0.48011 0.67314 0.0
C294 C 0.29633 0.45845 0.65969 0.0
C295 C 0.28603 0.42149 0.66644 0.0
C296 C 0.13343 0.46576 0.85675 0.0
H297 H 0.1494 0.24736 0.66726 0.0
H298 H 0.17403 0.305 0.69641 0.0
H299 H 0.06604 0.32841 0.70394 0.0
H300 H 0.04107 0.26994 0.67473 0.0
H301 H 0.18378 0.36557 0.67544 0.0
H302 H 0.09798 0.36101 0.76295 0.0
H303 H 0.18802 0.45225 0.7563 0.0
H304 H 0.1771 0.45253 0.82171 0.0
H305 H 0.06758 0.40515 0.78743 0.0
H306 H 0.04292 0.43437 0.84288 0.0
H307 H 0.24603 0.37791 0.68945 0.0
H308 H 0.22005 0.48238 0.70015 0.0
H309 H 0.15243 0.48233 0.87585 0.0
H310 H 0.30403 0.40391 0.65737 0.0
H311 H 0.27913 0.50865 0.66835 0.0
Sm312 Sm 0.02681 0.06056 0.51827 0.0
Sm313 Sm 0.9824 1.03435 0.59551 0.0
C314 C 0.05572 0.08537 0.451 0.0
C315 C 0.09166 0.10922 0.444 0.0
C316 C 0.09456 0.1463 0.44174 0.0
C317 C 0.12884 0.16919 0.44093 0.0
C318 C 0.16083 0.15541 0.44221 0.0
C319 C 0.1579 0.11836 0.444 0.0
C320 C 0.12375 0.09551 0.44465 0.0
C321 C 0.06142 1.02714 0.5704 0.0
C322 C 0.0391 0.11405 0.59477 0.0
C323 C 0.95121 1.00988 0.66227 0.0
C324 C 0.91887 0.98106 0.66925 0.0
C325 C 0.92292 0.94603 0.67651 0.0
C326 C 0.89224 0.91824 0.67932 0.0
C327 C 0.85726 0.92509 0.67442 0.0
C328 C 0.85311 0.95992 0.66729 0.0
C329 C 0.88357 0.98772 0.66505 0.0
C330 C 0.9489 0.06814 0.54218 0.0
C331 C 0.97059 0.98081 0.52031 0.0
O332 O 0.03101 0.09945 0.46982 0.0
O333 O 0.05655 0.05319 0.46307 0.0
O334 O 0.0285 1.0194 0.56232 0.0
O335 O 0.07871 0.05314 0.54847 0.0
O336 O 0.04367 0.1113 0.55635 0.0
O337 O 0.02078 0.08697 0.61618 0.0
O338 O 0.9806 1.00023 0.64796 0.0
O339 O 0.945 1.03864 0.64574 0.0
O340 O 0.98143 0.07543 0.55131 0.0
O341 O 0.93156 1.04111 0.56266 0.0
O342 O 0.96991 0.98256 0.55898 0.0
O343 O 0.98495 1.00928 0.49862 0.0
H344 H 0.07033 0.15765 0.44141 0.0
H345 H 0.13028 0.19764 0.43879 0.0
H346 H 0.18205 0.10699 0.44528 0.0
H347 H 0.12262 0.06711 0.44673 0.0
H348 H 0.94976 0.94007 0.67969 0.0
H349 H 0.89574 0.89148 0.68548 0.0
H350 H 0.82616 0.96576 0.66451 0.0
H351 H 0.87938 1.01437 0.65959 0.0
Sm352 Sm 0.53649 0.05068 0.0744 0.0
Sm353 Sm 0.47087 1.04382 1.04768 0.0
C354 C 0.59817 0.07361 0.10786 0.0
C355 C 0.59968 0.0881 0.14711 0.0
C356 C 0.61864 0.12301 0.15325 0.0
C357 C 0.61918 0.13756 0.19045 0.0
C358 C 0.60163 0.11673 0.22168 0.0
C359 C 0.57867 0.08374 0.21467 0.0
C360 C 0.57769 0.06938 0.17738 0.0
C361 C 0.49078 0.99153 0.10896 0.0
C362 C 0.48238 0.09772 0.11622 0.0
C363 C 0.40819 1.01984 1.01606 0.0
C364 C 0.40474 1.00341 0.97782 0.0
C365 C 0.37991 0.97121 0.97264 0.0
C366 C 0.37676 0.95549 0.93588 0.0
C367 C 0.39816 0.9724 0.90444 0.0
C368 C 0.42623 1.002 0.91078 0.0
C369 C 0.42957 1.01751 0.94748 0.0
C370 C 0.51666 0.10308 1.01328 0.0
C371 C 0.52599 0.99714 1.00583 0.0
O372 O 0.58552 0.09301 0.08279 0.0
O373 O 0.5843 1.03958 0.10487 0.0
O374 O 0.48278 1.02194 0.10554 0.0
O375 O 0.52304 0.99185 0.09421 0.0
O376 O 0.51638 0.09785 0.10531 0.0
O377 O 0.45654 0.07272 0.10267 0.0
O378 O 0.42156 1.0014 1.04147 0.0
O379 O 0.42293 0.05384 1.01663 0.0
O380 O 0.5246 0.0726 1.01657 0.0
O381 O 0.48427 0.10267 1.02786 0.0
O382 O 0.49164 0.99748 1.01509 0.0
O383 O 0.55146 1.02198 1.02023 0.0
H384 H 0.63392 0.1385 0.12959 0.0
H385 H 0.63691 0.16327 0.1955 0.0
H386 H 0.56486 0.06757 0.23866 0.0
H387 H 0.56086 1.04316 0.17271 0.0
H388 H 0.36215 0.95906 0.99656 0.0
H389 H 0.35512 0.9324 0.93121 0.0
H390 H 0.44303 1.01507 0.88661 0.0
H391 H 0.45055 1.04127 0.95164 0.0
Sm392 Sm 0.50138 0.51646 0.53334 0.0
Sm393 Sm 0.50681 0.58084 0.58531 0.0
C394 C 0.51925 0.46724 0.48838 0.0
C395 C 0.54465 0.4453 0.49898 0.0
C396 C 0.57542 0.46037 0.52056 0.0
C397 C 0.59736 0.43878 0.53517 0.0
C398 C 0.58858 0.40204 0.52837 0.0
C399 C 0.55641 0.3867 0.50934 0.0
C400 C 0.53459 0.40833 0.4945 0.0
C401 C 0.43446 0.50685 0.57242 0.0
C402 C 0.53639 0.5135 0.6221 0.0
C403 C 0.48821 0.62945 0.63082 0.0
C404 C 0.45856 0.64739 0.62316 0.0
C405 C 0.42653 0.62788 0.6067 0.0
C406 C 0.40141 0.64551 0.59122 0.0
C407 C 0.40854 0.68269 0.59128 0.0
C408 C 0.44052 0.70237 0.60726 0.0
C409 C 0.4655 0.68471 0.62328 0.0
C410 C 0.57365 0.59047 0.546 0.0
C411 C 0.47127 0.58313 0.49661 0.0
O412 O 0.53314 0.50115 0.48253 0.0
O413 O 0.48966 0.46146 0.51052 0.0
O414 O 0.46059 0.53353 0.57703 0.0
O415 O 0.44321 0.48593 0.54571 0.0
O416 O 0.52991 0.49792 0.5875 0.0
O417 O 0.52844 0.54505 0.62917 0.0
O418 O 0.47884 0.59541 0.63932 0.0
O419 O 0.51482 0.63683 0.60473 0.0
O420 O 0.54748 0.56384 0.54158 0.0
O421 O 0.56512 0.61129 0.57295 0.0
O422 O 0.4774 0.59865 0.53131 0.0
O423 O 0.47982 0.55191 0.48931 0.0
H424 H 0.58262 0.48882 0.52605 0.0
H425 H 0.62227 0.45095 0.54958 0.0
H426 H 0.54936 0.35819 0.50413 0.0
H427 H 0.5099 0.39629 0.47965 0.0
H428 H 0.4214 0.59908 0.60462 0.0
H429 H 0.37641 0.63027 0.57937 0.0
H430 H 0.44573 0.73127 0.60796 0.0
H431 H 0.49072 0.70007 0.63451 0.0
Sm432 Sm 0.00817 0.51518 0.07913 0.0
Sm433 Sm 0.99919 0.58018 1.03859 0.0
C434 C 0.03986 0.46435 0.10586 0.0
C435 C 0.07675 0.46178 0.11979 0.0
C436 C 0.10593 0.46088 0.09302 0.0
C437 C 0.1396 0.45544 0.10573 0.0
C438 C 0.14523 0.45069 0.14559 0.0
C439 C 0.11662 0.45308 0.1726 0.0
C440 C 0.08276 0.45838 0.15984 0.0
C441 C 0.96946 0.5559 0.12479 0.0
C442 C 0.07335 0.58914 0.08653 0.0
C443 C 0.96736 0.63088 1.0115 0.0
C444 C 0.9315 0.63354 0.99486 0.0
C445 C 0.89822 0.62188 1.01585 0.0
C446 C 0.86517 0.62776 1.00151 0.0
C447 C 0.8643 0.64553 0.96575 0.0
C448 C 0.89747 0.65571 0.94403 0.0
C449 C 0.93052 0.64982 0.95841 0.0
C450 C 0.03793 0.53928 0.99312 0.0
C451 C 0.93387 0.50608 1.03165 0.0
O452 O 0.03734 0.47086 0.06874 0.0
O453 O 0.0196 0.481 0.12801 0.0
O454 O 0.99766 0.56796 0.10348 0.0
O455 O 0.96101 0.52123 0.12232 0.0
O456 O 0.06395 0.55397 0.08793 0.0
O457 O 0.05161 0.60781 0.07036 0.0
O458 O 0.96734 0.62258 1.04846 0.0
O459 O 0.98963 0.61588 0.99015 0.0
O460 O 0.0096 0.52734 1.01427 0.0
O461 O 0.04643 0.57395 0.99552 0.0
O462 O 0.94359 0.54119 1.02952 0.0
O463 O 0.95541 0.48746 1.04821 0.0
H464 H 0.10262 0.46362 0.06197 0.0
H465 H 0.16115 0.45443 0.08414 0.0
H466 H 0.11983 0.44938 0.20352 0.0
H467 H 0.06098 0.45893 0.1813 0.0
H468 H 0.89771 0.60881 1.04384 0.0
H469 H 0.8403 0.61865 1.01879 0.0
H470 H 0.89831 0.66963 0.91654 0.0
H471 H 0.95558 0.65899 0.94144 0.0
C472 C 0.25666 0.19471 0.40582 0.0
C473 C 0.26258 0.2288 0.42273 0.0
H474 H 0.21934 0.14521 0.3979 0.0
C475 C 0.23674 0.2372 0.44993 0.0
H476 H 0.27572 0.18797 0.38395 0.0
C477 C 0.20432 0.21256 0.45813 0.0
C478 C 0.1972 0.1794 0.43885 0.0
H479 H 0.24073 0.2635 0.46303 0.0
H480 H 0.18421 0.21998 0.47825 0.0
C481 C 0.22421 0.1703 0.41365 0.0
C482 C 0.34908 0.99068 0.81703 0.0
C483 C 0.34317 0.95759 0.79851 0.0
H484 H 0.37266 1.02122 0.86543 0.0
C485 C 0.35727 0.92936 0.81337 0.0
H486 H 0.33807 1.01245 0.80564 0.0
C487 C 0.37699 0.93421 0.84745 0.0
C488 C 0.38301 0.96749 0.86592 0.0
H489 H 0.3526 0.90364 0.79887 0.0
H490 H 0.38693 0.91214 0.85968 0.0
C491 C 0.36915 0.9957 0.85057 0.0
C492 C 0.57966 0.49696 0.71939 0.0
C493 C 0.58489 0.46151 0.71597 0.0
H494 H 0.56092 0.54065 0.69363 0.0
C495 C 0.57387 0.44349 0.68064 0.0
H496 H 0.58689 0.51214 0.74577 0.0
C497 C 0.55843 0.46007 0.65041 0.0
C498 C 0.55321 0.49541 0.65412 0.0
H499 H 0.57758 0.41651 0.6758 0.0
H500 H 0.5505 0.44502 0.62405 0.0
C501 C 0.56423 0.51346 0.68923 0.0
C502 C 0.95793 0.6305 0.1973 0.0
C503 C 0.92749 0.61401 0.22078 0.0
H504 H 0.99461 0.62575 0.14854 0.0
C505 C 0.91102 0.57845 0.21165 0.0
H506 H 0.97132 0.65785 0.20292 0.0
C507 C 0.92444 0.56007 0.1805 0.0
C508 C 0.95472 0.57653 0.15701 0.0
H509 H 0.88794 0.56442 0.22908 0.0
H510 H 0.91107 0.53269 0.17495 0.0
C511 C 0.97119 0.61213 0.1658 0.0
C512 C 0.47933 0.19292 0.14497 0.0
C513 C 0.44949 0.18787 0.17169 0.0
H514 H 0.51374 0.16804 0.1072 0.0
C515 C 0.43197 0.15297 0.18197 0.0
H516 H 0.49324 0.21961 0.13667 0.0
C517 C 0.44318 0.12353 0.16468 0.0
C518 C 0.47279 0.12848 0.13762 0.0
H519 H 0.40905 0.14852 0.20275 0.0
H520 H 0.42856 0.09689 0.17224 0.0
C521 C 0.49116 0.16346 0.12842 0.0
C522 C 0.06451 0.93835 0.60815 0.0
C523 C 0.09313 0.92998 0.58513 0.0
H524 H 0.03502 0.97822 0.62442 0.0
C525 C 0.11271 0.95533 0.55851 0.0
H526 H 0.04911 0.91931 0.6288 0.0
C527 C 0.1049 0.98897 0.55643 0.0
C528 C 0.07737 0.9976 0.58073 0.0
H529 H 0.13544 0.95005 0.54067 0.0
H530 H 0.11944 1.00765 0.53488 0.0
C531 C 0.05727 0.97223 0.60654 0.0
C532 C 0.85138 0.49239 0.96579 0.0
C533 C 0.83384 0.45658 0.97226 0.0
H534 H 0.89548 0.53554 0.97907 0.0
C535 C 0.84989 0.43691 0.99913 0.0
H536 H 0.84104 0.50855 0.94487 0.0
C537 C 0.88218 0.45248 1.01852 0.0
C538 C 0.89921 0.4884 1.01213 0.0
H539 H 0.83734 0.40946 1.00568 0.0
H540 H 0.89357 0.43647 1.03878 0.0
C541 C 0.88313 0.50797 0.98546 0.0
C542 C 0.65428 0.58916 0.47348 0.0
C543 C 0.67836 0.62144 0.48318 0.0
H544 H 0.60236 0.55338 0.48571 0.0
C545 C 0.667 0.64258 0.51293 0.0
H546 H 0.662 0.5721 0.45075 0.0
C547 C 0.63338 0.63184 0.53277 0.0
C548 C 0.60942 0.59957 0.5237 0.0
H549 H 0.68396 0.66797 0.52074 0.0
H550 H 0.62611 0.64933 0.55535 0.0
C551 C 0.62017 0.57828 0.49362 0.0
C552 C 0.22606 0.4044 0.14951 0.0
C553 C 0.24245 0.41772 0.18431 0.0
H554 H 0.1823 0.4037 0.11057 0.0
C555 C 0.22781 0.44325 0.20574 0.0
H556 H 0.2362 0.38395 0.13313 0.0
C557 C 0.19692 0.45482 0.1928 0.0
C558 C 0.1798 0.44079 0.15836 0.0
H559 H 0.23977 0.45358 0.23298 0.0
H560 H 0.18616 0.47438 0.21003 0.0
C561 C 0.19511 0.41572 0.13672 0.0
C562 C 0.59216 0.18302 0.98371 0.0
C563 C 0.57484 0.20039 0.95576 0.0
H564 H 0.58801 0.13859 1.02304 0.0
C565 C 0.53929 0.18332 0.94524 0.0
H566 H 0.61916 0.19512 0.99341 0.0
C567 C 0.52124 0.15127 0.96302 0.0
C568 C 0.53833 0.13437 0.99113 0.0
H569 H 0.52503 0.19476 0.92327 0.0
H570 H 0.49355 0.13972 0.9549 0.0
C571 C 0.57428 0.15039 1.00087 0.0
C572 C 0.94795 0.87997 0.5022 0.0
C573 C 0.93105 0.8772 0.46584 0.0
H574 H 0.97276 0.91445 0.54807 0.0
C575 C 0.92754 0.909 0.44731 0.0
H576 H 0.95097 0.85612 0.51741 0.0
C577 C 0.94083 0.94259 0.46445 0.0
C578 C 0.95691 0.94532 0.50125 0.0
H579 H 0.9147 0.90786 0.4193 0.0
H580 H 0.93784 0.96644 0.44923 0.0
C581 C 0.96021 0.91347 0.51988 0.0
C582 C 0.35927 0.74488 0.54276 0.0
C583 C 0.33248 0.74669 0.57184 0.0
H584 H 0.40535 0.72208 0.52625 0.0
C585 C 0.32796 0.72368 0.60407 0.0
H586 H 0.36299 0.76266 0.51785 0.0
C587 C 0.35161 0.70082 0.60861 0.0
C588 C 0.37996 0.7009 0.58112 0.0
H589 H 0.30813 0.72539 0.62741 0.0
H590 H 0.34945 0.68496 0.63498 0.0
C591 C 0.38326 0.722 0.54752 0.0
C592 C 0.76391 0.86644 0.66348 0.0
C593 C 0.75645 0.8547 0.70206 0.0
H594 H 0.803 0.89838 0.62405 0.0
C595 C 0.78366 0.86283 0.7299 0.0
H596 H 0.74304 0.86042 0.64181 0.0
C597 C 0.81755 0.8838 0.71985 0.0
C598 C 0.82454 0.89725 0.68192 0.0
H599 H 0.77804 0.8542 0.75994 0.0
H600 H 0.83751 0.89132 0.74229 0.0
C601 C 0.79792 0.88793 0.65345 0.0
C602 C 0.66698 0.10717 0.29672 0.0
C603 C 0.67303 0.14114 0.31358 0.0
H604 H 0.6373 0.07225 0.25511 0.0
C605 C 0.65059 0.16508 0.30458 0.0
H606 H 0.68398 0.08838 0.30331 0.0
C607 C 0.62383 0.15588 0.27705 0.0
C608 C 0.61908 0.12251 0.25897 0.0
H609 H 0.65414 0.19109 0.31833 0.0
H610 H 0.60836 0.17535 0.26827 0.0
C611 C 0.63987 0.09777 0.26983 0.0
C612 C 0.4192 0.59645 0.40432 0.0
C613 C 0.42245 0.63373 0.40266 0.0
H614 H 0.43226 0.55165 0.43407 0.0
C615 C 0.44168 0.65427 0.43273 0.0
H616 H 0.40485 0.57965 0.38179 0.0
C617 C 0.45673 0.63806 0.46352 0.0
C618 C 0.45406 0.60079 0.46473 0.0
H619 H 0.44473 0.68299 0.43272 0.0
H620 H 0.47108 0.65485 0.48605 0.0
C621 C 0.43512 0.58036 0.43441 0.0
C622 C 0.04965 0.46455 0.92071 0.0
C623 C 0.08053 0.48079 0.89768 0.0
H624 H 0.01245 0.46956 0.96892 0.0
C625 C 0.0973 0.51618 0.9072 0.0
H626 H 0.03602 0.43733 0.91483 0.0
C627 C 0.08369 0.53466 0.93818 0.0
C628 C 0.05292 0.51848 0.96115 0.0
H629 H 0.12075 0.53004 0.89018 0.0
H630 H 0.0973 0.56192 0.944 0.0
C631 C 0.03622 0.483 0.95206 0.0
C632 C 0.58356 0.93297 0.96766 0.0
C633 C 0.558 0.90659 0.94911 0.0
H634 H 0.59367 0.98189 0.99949 0.0
C635 C 0.52128 0.91008 0.94891 0.0
H636 H 0.61197 0.93084 0.96849 0.0
C637 C 0.5106 0.93982 0.96662 0.0
C638 C 0.53652 0.96646 0.98475 0.0
H639 H 0.5011 0.89029 0.93437 0.0
H640 H 0.48221 0.94201 0.966 0.0
C641 C 0.57303 0.96242 0.98517 0.0
C642 C 0.92852 0.15098 0.50292 0.0
C643 C 0.91676 0.1654 0.53765 0.0
H644 H 0.94417 0.10503 0.47682 0.0
C645 C 0.92236 0.15097 0.57362 0.0
H646 H 0.92544 0.16284 0.47492 0.0
C647 C 0.92886 0.11683 0.5744 0.0
C648 C 0.93389 0.09918 0.53923 0.0
H649 H 0.91448 0.16269 0.60066 0.0
H650 H 0.93022 0.10423 0.60241 0.0
C651 C 0.93671 0.11727 0.50369 0.0
C652 C 0.1597 0.65659 0.11631 0.0
C653 C 0.17367 0.63779 0.14567 0.0
H654 H 0.1172 0.65671 0.07504 0.0
C655 C 0.15391 0.60338 0.15516 0.0
H656 H 0.17382 0.68325 0.10824 0.0
C657 C 0.12187 0.58809 0.13575 0.0
C658 C 0.10783 0.60673 0.10645 0.0
H659 H 0.16362 0.58777 0.17717 0.0
H660 H 0.10787 0.56143 0.14408 0.0
C661 C 0.12705 0.64144 0.09729 0.0
C662 C 0.35555 0.50495 0.6479 0.0
C663 C 0.33113 0.47335 0.6369 0.0
H664 H 0.40781 0.54045 0.63688 0.0
C665 C 0.34056 0.45492 0.60378 0.0
H666 H 0.34925 0.51985 0.6733 0.0
C667 C 0.37349 0.46682 0.583 0.0
C668 C 0.39856 0.49762 0.59443 0.0
H669 H 0.32237 0.43098 0.59377 0.0
H670 H 0.37949 0.45126 0.55798 0.0
C671 C 0.38909 0.51684 0.62703 0.0
C672 C 0.79148 0.669 0.89998 0.0
C673 C 0.76704 0.68023 0.92719 0.0
H674 H 0.84033 0.64865 0.89038 0.0
C675 C 0.77368 0.67746 0.96718 0.0
H676 H 0.78769 0.67078 0.86891 0.0
C677 C 0.80443 0.66537 0.97953 0.0
C678 C 0.82963 0.65536 0.95236 0.0
H679 H 0.75529 0.68508 0.98918 0.0
H680 H 0.80901 0.66507 1.01056 0.0
C681 C 0.82218 0.65671 0.91235 0.0
C682 C 0.41551 0.91087 0.13596 0.0
C683 C 0.43216 0.89388 0.16467 0.0
H684 H 0.4202 0.95543 0.09689 0.0
C685 C 0.46712 0.91107 0.1766 0.0
H686 H 0.3886 0.89866 0.126 0.0
C687 C 0.48538 0.94334 0.15939 0.0
C688 C 0.46889 0.96011 0.13061 0.0
H689 H 0.48108 0.89888 0.19826 0.0
H690 H 0.51283 0.955 0.16825 0.0
C691 C 0.43346 0.94372 0.11949 0.0
C692 C 0.09846 0.20539 0.6179 0.0
C693 C 0.07865 0.21804 0.64883 0.0
H694 H 0.10163 0.16335 0.57665 0.0
C695 C 0.04549 0.19585 0.66163 0.0
H696 H 0.12382 0.22165 0.60669 0.0
C697 C 0.03313 0.16193 0.64476 0.0
C698 C 0.0531 0.14941 0.61399 0.0
H699 H 0.02934 0.2044 0.68525 0.0
H700 H 0.00751 0.1457 0.65539 0.0
C701 C 0.08569 0.17188 0.6005 0.0
C702 C 0.6652 0.36368 0.5669 0.0
C703 C 0.67602 0.34807 0.5325 0.0
H704 H 0.62776 0.39351 0.59277 0.0
C705 C 0.65714 0.34927 0.49801 0.0
H706 H 0.67919 0.36223 0.59387 0.0
C707 C 0.62793 0.36591 0.49765 0.0
C708 C 0.617 0.38165 0.53172 0.0
H709 H 0.66422 0.33635 0.47142 0.0
H710 H 0.6142 0.36699 0.47041 0.0
C711 C 0.63584 0.38094 0.5664 0.0
loop_
_geom_bond_atom_site_label_1
_geom_bond_atom_site_label_2
_geom_bond_distance
_geom_bond_site_symmetry_2
_ccdc_geom_bond_type
C0 C1 1.386 . S
C0 C2 1.397 . S
C0 H24 0.931 . S
C1 C0 1.386 . S
C1 C5 1.397 . S
C2 C0 1.397 . S
C2 C3 1.384 . S
C2 H25 0.930 . S
C3 C2 1.384 . S
C3 C4 1.377 . S
C3 C6 1.481 . S
C4 C3 1.377 . S
C4 C5 1.389 . S
C4 H26 0.929 . S
C5 C1 1.397 . S
C5 C4 1.389 . S
C5 H27 0.931 . S
C6 C3 1.481 . S
C6 C7 1.387 . S
C6 C11 1.390 . S
C7 C6 1.387 . S
C7 C8 1.401 . S
C7 H28 0.930 . S
C8 C7 1.401 . S
C8 C9 1.376 . S
C8 C17 1.511 . S
C9 C8 1.376 . S
C9 C10 1.392 . S
C9 H30 0.931 . S
C10 C9 1.392 . S
C10 C11 1.361 . S
C10 C12 1.500 . S
C11 C6 1.390 . S
C11 C10 1.361 . S
C11 H29 0.931 . S
C12 C10 1.500 . S
C12 C13 1.371 . S
C12 C14 1.365 . S
C13 C12 1.371 . S
C13 C23 1.386 . S
C13 H31 0.931 . S
C14 C12 1.365 . S
C14 C15 1.409 . S
C14 H32 0.929 . S
C15 C14 1.409 . S
C15 C16 1.380 . S
C15 H33 0.930 . S
C16 C15 1.380 . S
C16 C23 1.357 . S
C17 C8 1.511 . S
C17 C18 1.341 . S
C17 C19 1.371 . S
C18 C17 1.341 . S
C18 C22 1.394 . S
C18 H34 0.930 . S
C19 C17 1.371 . S
C19 C20 1.392 . S
C19 H35 0.931 . S
C20 C19 1.392 . S
C20 C21 1.331 . S
C20 H38 0.932 . S
C21 C20 1.331 . S
C21 C22 1.336 . S
C22 C18 1.394 . S
C22 C21 1.336 . S
C22 H37 0.929 . S
C23 C13 1.386 . S
C23 C16 1.357 . S
C23 H36 0.928 . S
H24 C0 0.931 . S
H25 C2 0.930 . S
H26 C4 0.929 . S
H27 C5 0.931 . S
H28 C7 0.930 . S
H29 C11 0.931 . S
H30 C9 0.931 . S
H31 C13 0.931 . S
H32 C14 0.929 . S
H33 C15 0.930 . S
H34 C18 0.930 . S
H35 C19 0.931 . S
H36 C23 0.928 . S
H37 C22 0.929 . S
H38 C20 0.932 . S
C39 C40 1.386 . S
C39 C41 1.397 . S
C39 H63 0.931 . S
C40 C39 1.386 . S
C40 C44 1.397 . S
C41 C39 1.397 . S
C41 C42 1.384 . S
C41 H64 0.930 . S
C42 C41 1.384 . S
C42 C43 1.377 . S
C42 C45 1.481 . S
C43 C42 1.377 . S
C43 C44 1.389 . S
C43 H65 0.929 . S
C44 C40 1.397 . S
C44 C43 1.389 . S
C44 H66 0.931 . S
C45 C42 1.481 . S
C45 C46 1.387 . S
C45 C50 1.390 . S
C46 C45 1.387 . S
C46 C47 1.401 . S
C46 H67 0.930 . S
C47 C46 1.401 . S
C47 C48 1.376 . S
C47 C56 1.511 . S
C48 C47 1.376 . S
C48 C49 1.392 . S
C48 H69 0.931 . S
C49 C48 1.392 . S
C49 C50 1.361 . S
C49 C51 1.500 . S
C50 C45 1.390 . S
C50 C49 1.361 . S
C50 H68 0.931 . S
C51 C49 1.500 . S
C51 C52 1.371 . S
C51 C53 1.365 . S
C52 C51 1.371 . S
C52 C62 1.386 . S
C52 H70 0.931 . S
C53 C51 1.365 . S
C53 C54 1.409 . S
C53 H71 0.929 . S
C54 C53 1.409 . S
C54 C55 1.380 . S
C54 H72 0.930 . S
C55 C54 1.380 . S
C55 C62 1.357 . S
C56 C47 1.511 . S
C56 C57 1.341 . S
C56 C58 1.371 . S
C57 C56 1.341 . S
C57 C61 1.394 . S
C57 H73 0.930 . S
C58 C56 1.371 . S
C58 C59 1.392 . S
C58 H74 0.931 . S
C59 C58 1.392 . S
C59 C60 1.331 . S
C59 H77 0.932 . S
C60 C59 1.331 . S
C60 C61 1.336 . S
C61 C57 1.394 . S
C61 C60 1.336 . S
C61 H76 0.929 . S
C62 C52 1.386 . S
C62 C55 1.357 . S
C62 H75 0.928 . S
H63 C39 0.931 . S
H64 C41 0.930 . S
H65 C43 0.929 . S
H66 C44 0.931 . S
H67 C46 0.930 . S
H68 C50 0.931 . S
H69 C48 0.931 . S
H70 C52 0.931 . S
H71 C53 0.929 . S
H72 C54 0.930 . S
H73 C57 0.930 . S
H74 C58 0.931 . S
H75 C62 0.928 . S
H76 C61 0.929 . S
H77 C59 0.932 . S
C78 C79 1.386 . S
C78 C80 1.397 . S
C78 H102 0.931 . S
C79 C78 1.386 . S
C79 C83 1.397 . S
C80 C78 1.397 . S
C80 C81 1.384 . S
C80 H103 0.930 . S
C81 C80 1.384 . S
C81 C82 1.377 . S
C81 C84 1.481 . S
C82 C81 1.377 . S
C82 C83 1.389 . S
C82 H104 0.929 . S
C83 C79 1.397 . S
C83 C82 1.389 . S
C83 H105 0.931 . S
C84 C81 1.481 . S
C84 C85 1.387 . S
C84 C89 1.390 . S
C85 C84 1.387 . S
C85 C86 1.401 . S
C85 H106 0.930 . S
C86 C85 1.401 . S
C86 C87 1.376 . S
C86 C95 1.511 . S
C87 C86 1.376 . S
C87 C88 1.392 . S
C87 H108 0.931 . S
C88 C87 1.392 . S
C88 C89 1.361 . S
C88 C90 1.500 . S
C89 C84 1.390 . S
C89 C88 1.361 . S
C89 H107 0.931 . S
C90 C88 1.500 . S
C90 C91 1.371 . S
C90 C92 1.365 . S
C91 C90 1.371 . S
C91 C101 1.386 . S
C91 H109 0.931 . S
C92 C90 1.365 . S
C92 C93 1.409 . S
C92 H110 0.929 . S
C93 C92 1.409 . S
C93 C94 1.380 . S
C93 H111 0.930 . S
C94 C93 1.380 . S
C94 C101 1.357 . S
C95 C86 1.511 . S
C95 C96 1.341 . S
C95 C97 1.371 . S
C96 C95 1.341 . S
C96 C100 1.394 . S
C96 H112 0.930 . S
C97 C95 1.371 . S
C97 C98 1.392 . S
C97 H113 0.931 . S
C98 C97 1.392 . S
C98 C99 1.331 . S
C98 H116 0.932 . S
C99 C98 1.331 . S
C99 C100 1.336 . S
C100 C96 1.394 . S
C100 C99 1.336 . S
C100 H115 0.929 . S
C101 C91 1.386 . S
C101 C94 1.357 . S
C101 H114 0.928 . S
H102 C78 0.931 . S
H103 C80 0.930 . S
H104 C82 0.929 . S
H105 C83 0.931 . S
H106 C85 0.930 . S
H107 C89 0.931 . S
H108 C87 0.931 . S
H109 C91 0.931 . S
H110 C92 0.929 . S
H111 C93 0.930 . S
H112 C96 0.930 . S
H113 C97 0.931 . S
H114 C101 0.928 . S
H115 C100 0.929 . S
H116 C98 0.932 . S
C117 C118 1.386 . S
C117 C119 1.397 . S
C117 H141 0.931 . S
C118 C117 1.386 . S
C118 C122 1.397 . S
C119 C117 1.397 . S
C119 C120 1.384 . S
C119 H142 0.930 . S
C120 C119 1.384 . S
C120 C121 1.377 . S
C120 C123 1.481 . S
C121 C120 1.377 . S
C121 C122 1.389 . S
C121 H143 0.929 . S
C122 C118 1.397 . S
C122 C121 1.389 . S
C122 H144 0.931 . S
C123 C120 1.481 . S
C123 C124 1.387 . S
C123 C128 1.390 . S
C124 C123 1.387 . S
C124 C125 1.401 . S
C124 H145 0.930 . S
C125 C124 1.401 . S
C125 C126 1.376 . S
C125 C134 1.511 . S
C126 C125 1.376 . S
C126 C127 1.392 . S
C126 H147 0.931 . S
C127 C126 1.392 . S
C127 C128 1.361 . S
C127 C129 1.500 . S
C128 C123 1.390 . S
C128 C127 1.361 . S
C128 H146 0.931 . S
C129 C127 1.500 . S
C129 C130 1.371 . S
C129 C131 1.365 . S
C130 C129 1.371 . S
C130 C140 1.386 . S
C130 H148 0.931 . S
C131 C129 1.365 . S
C131 C132 1.409 . S
C131 H149 0.929 . S
C132 C131 1.409 . S
C132 C133 1.380 . S
C132 H150 0.930 . S
C133 C132 1.380 . S
C133 C140 1.357 . S
C134 C125 1.511 . S
C134 C135 1.341 . S
C134 C136 1.371 . S
C135 C134 1.341 . S
C135 C139 1.394 . S
C135 H151 0.930 . S
C136 C134 1.371 . S
C136 C137 1.392 . S
C136 H152 0.931 . S
C137 C136 1.392 . S
C137 C138 1.331 . S
C137 H155 0.932 . S
C138 C137 1.331 . S
C138 C139 1.336 . S
C139 C135 1.394 . S
C139 C138 1.336 . S
C139 H154 0.929 . S
C140 C130 1.386 . S
C140 C133 1.357 . S
C140 H153 0.928 . S
H141 C117 0.931 . S
H142 C119 0.930 . S
H143 C121 0.929 . S
H144 C122 0.931 . S
H145 C124 0.930 . S
H146 C128 0.931 . S
H147 C126 0.931 . S
H148 C130 0.931 . S
H149 C131 0.929 . S
H150 C132 0.930 . S
H151 C135 0.930 . S
H152 C136 0.931 . S
H153 C140 0.928 . S
H154 C139 0.929 . S
H155 C137 0.932 . S
C156 C157 1.386 . S
C156 C158 1.397 . S
C156 H180 0.931 . S
C157 C156 1.386 . S
C157 C161 1.397 . S
C158 C156 1.397 . S
C158 C159 1.384 . S
C158 H181 0.930 . S
C159 C158 1.384 . S
C159 C160 1.377 . S
C159 C162 1.481 . S
C160 C159 1.377 . S
C160 C161 1.389 . S
C160 H182 0.929 . S
C161 C157 1.397 . S
C161 C160 1.389 . S
C161 H183 0.931 . S
C162 C159 1.481 . S
C162 C163 1.387 . S
C162 C167 1.390 . S
C163 C162 1.387 . S
C163 C164 1.401 . S
C163 H184 0.930 . S
C164 C163 1.401 . S
C164 C165 1.376 . S
C164 C173 1.511 . S
C165 C164 1.376 . S
C165 C166 1.392 . S
C165 H186 0.931 . S
C166 C165 1.392 . S
C166 C167 1.361 . S
C166 C168 1.500 . S
C167 C162 1.390 . S
C167 C166 1.361 . S
C167 H185 0.931 . S
C168 C166 1.500 . S
C168 C169 1.371 . S
C168 C170 1.365 . S
C169 C168 1.371 . S
C169 C179 1.386 . S
C169 H187 0.931 . S
C170 C168 1.365 . S
C170 C171 1.409 . S
C170 H188 0.929 . S
C171 C170 1.409 . S
C171 C172 1.380 . S
C171 H189 0.930 . S
C172 C171 1.380 . S
C172 C179 1.357 . S
C173 C164 1.511 . S
C173 C174 1.341 . S
C173 C175 1.371 . S
C174 C173 1.341 . S
C174 C178 1.394 . S
C174 H190 0.930 . S
C175 C173 1.371 . S
C175 C176 1.392 . S
C175 H191 0.931 . S
C176 C175 1.392 . S
C176 C177 1.331 . S
C176 H194 0.932 . S
C177 C176 1.331 . S
C177 C178 1.336 . S
C178 C174 1.394 . S
C178 C177 1.336 . S
C178 H193 0.929 . S
C179 C169 1.386 . S
C179 C172 1.357 . S
C179 H192 0.928 . S
H180 C156 0.931 . S
H181 C158 0.930 . S
H182 C160 0.929 . S
H183 C161 0.931 . S
H184 C163 0.930 . S
H185 C167 0.931 . S
H186 C165 0.931 . S
H187 C169 0.931 . S
H188 C170 0.929 . S
H189 C171 0.930 . S
H190 C174 0.930 . S
H191 C175 0.931 . S
H192 C179 0.928 . S
H193 C178 0.929 . S
H194 C176 0.932 . S
C195 C196 1.386 . S
C195 C197 1.397 . S
C195 H219 0.931 . S
C196 C195 1.386 . S
C196 C200 1.397 . S
C197 C195 1.397 . S
C197 C198 1.384 . S
C197 H220 0.930 . S
C198 C197 1.384 . S
C198 C199 1.377 . S
C198 C201 1.481 . S
C199 C198 1.377 . S
C199 C200 1.389 . S
C199 H221 0.929 . S
C200 C196 1.397 . S
C200 C199 1.389 . S
C200 H222 0.931 . S
C201 C198 1.481 . S
C201 C202 1.387 . S
C201 C206 1.390 . S
C202 C201 1.387 . S
C202 C203 1.401 . S
C202 H223 0.930 . S
C203 C202 1.401 . S
C203 C204 1.376 . S
C203 C212 1.511 . S
C204 C203 1.376 . S
C204 C205 1.392 . S
C204 H225 0.931 . S
C205 C204 1.392 . S
C205 C206 1.361 . S
C205 C207 1.500 . S
C206 C201 1.390 . S
C206 C205 1.361 . S
C206 H224 0.931 . S
C207 C205 1.500 . S
C207 C208 1.371 . S
C207 C209 1.365 . S
C208 C207 1.371 . S
C208 C218 1.386 . S
C208 H226 0.931 . S
C209 C207 1.365 . S
C209 C210 1.409 . S
C209 H227 0.929 . S
C210 C209 1.409 . S
C210 C211 1.380 . S
C210 H228 0.930 . S
C211 C210 1.380 . S
C211 C218 1.357 . S
C212 C203 1.511 . S
C212 C213 1.341 . S
C212 C214 1.371 . S
C213 C212 1.341 . S
C213 C217 1.394 . S
C213 H229 0.930 . S
C214 C212 1.371 . S
C214 C215 1.392 . S
C214 H230 0.931 . S
C215 C214 1.392 . S
C215 C216 1.331 . S
C215 H233 0.932 . S
C216 C215 1.331 . S
C216 C217 1.336 . S
C217 C213 1.394 . S
C217 C216 1.336 . S
C217 H232 0.929 . S
C218 C208 1.386 . S
C218 C211 1.357 . S
C218 H231 0.928 . S
H219 C195 0.931 . S
H220 C197 0.930 . S
H221 C199 0.929 . S
H222 C200 0.931 . S
H223 C202 0.930 . S
H224 C206 0.931 . S
H225 C204 0.931 . S
H226 C208 0.931 . S
H227 C209 0.929 . S
H228 C210 0.930 . S
H229 C213 0.930 . S
H230 C214 0.931 . S
H231 C218 0.928 . S
H232 C217 0.929 . S
H233 C215 0.932 . S
C234 C235 1.386 . S
C234 C236 1.397 . S
C234 H258 0.931 . S
C235 C234 1.386 . S
C235 C239 1.397 . S
C236 C234 1.397 . S
C236 C237 1.384 . S
C236 H259 0.930 . S
C237 C236 1.384 . S
C237 C238 1.377 . S
C237 C240 1.481 . S
C238 C237 1.377 . S
C238 C239 1.389 . S
C238 H260 0.929 . S
C239 C235 1.397 . S
C239 C238 1.389 . S
C239 H261 0.931 . S
C240 C237 1.481 . S
C240 C241 1.387 . S
C240 C245 1.390 . S
C241 C240 1.387 . S
C241 C242 1.401 . S
C241 H262 0.930 . S
C242 C241 1.401 . S
C242 C243 1.376 . S
C242 C251 1.511 . S
C243 C242 1.376 . S
C243 C244 1.392 . S
C243 H264 0.931 . S
C244 C243 1.392 . S
C244 C245 1.361 . S
C244 C246 1.500 . S
C245 C240 1.390 . S
C245 C244 1.361 . S
C245 H263 0.931 . S
C246 C244 1.500 . S
C246 C247 1.371 . S
C246 C248 1.365 . S
C247 C246 1.371 . S
C247 C257 1.386 . S
C247 H265 0.931 . S
C248 C246 1.365 . S
C248 C249 1.409 . S
C248 H266 0.929 . S
C249 C248 1.409 . S
C249 C250 1.380 . S
C249 H267 0.930 . S
C250 C249 1.380 . S
C250 C257 1.357 . S
C251 C242 1.511 . S
C251 C252 1.341 . S
C251 C253 1.371 . S
C252 C251 1.341 . S
C252 C256 1.394 . S
C252 H268 0.930 . S
C253 C251 1.371 . S
C253 C254 1.392 . S
C253 H269 0.931 . S
C254 C253 1.392 . S
C254 C255 1.331 . S
C254 H272 0.932 . S
C255 C254 1.331 . S
C255 C256 1.336 . S
C256 C252 1.394 . S
C256 C255 1.336 . S
C256 H271 0.929 . S
C257 C247 1.386 . S
C257 C250 1.357 . S
C257 H270 0.928 . S
H258 C234 0.931 . S
H259 C236 0.930 . S
H260 C238 0.929 . S
H261 C239 0.931 . S
H262 C241 0.930 . S
H263 C245 0.931 . S
H264 C243 0.931 . S
H265 C247 0.931 . S
H266 C248 0.929 . S
H267 C249 0.930 . S
H268 C252 0.930 . S
H269 C253 0.931 . S
H270 C257 0.928 . S
H271 C256 0.929 . S
H272 C254 0.932 . S
C273 C274 1.386 . S
C273 C275 1.397 . S
C273 H297 0.931 . S
C274 C273 1.386 . S
C274 C278 1.397 . S
C275 C273 1.397 . S
C275 C276 1.384 . S
C275 H298 0.930 . S
C276 C275 1.384 . S
C276 C277 1.377 . S
C276 C279 1.481 . S
C277 C276 1.377 . S
C277 C278 1.389 . S
C277 H299 0.929 . S
C278 C274 1.397 . S
C278 C277 1.389 . S
C278 H300 0.931 . S
C279 C276 1.481 . S
C279 C280 1.387 . S
C279 C284 1.390 . S
C280 C279 1.387 . S
C280 C281 1.401 . S
C280 H301 0.930 . S
C281 C280 1.401 . S
C281 C282 1.376 . S
C281 C290 1.511 . S
C282 C281 1.376 . S
C282 C283 1.392 . S
C282 H303 0.931 . S
C283 C282 1.392 . S
C283 C284 1.361 . S
C283 C285 1.500 . S
C284 C279 1.390 . S
C284 C283 1.361 . S
C284 H302 0.931 . S
C285 C283 1.500 . S
C285 C286 1.371 . S
C285 C287 1.365 . S
C286 C285 1.371 . S
C286 C296 1.386 . S
C286 H304 0.931 . S
C287 C285 1.365 . S
C287 C288 1.409 . S
C287 H305 0.929 . S
C288 C287 1.409 . S
C288 C289 1.380 . S
C288 H306 0.930 . S
C289 C288 1.380 . S
C289 C296 1.357 . S
C290 C281 1.511 . S
C290 C291 1.341 . S
C290 C292 1.371 . S
C291 C290 1.341 . S
C291 C295 1.394 . S
C291 H307 0.930 . S
C292 C290 1.371 . S
C292 C293 1.392 . S
C292 H308 0.931 . S
C293 C292 1.392 . S
C293 C294 1.331 . S
C293 H311 0.932 . S
C294 C293 1.331 . S
C294 C295 1.336 . S
C295 C291 1.394 . S
C295 C294 1.336 . S
C295 H310 0.929 . S
C296 C286 1.386 . S
C296 C289 1.357 . S
C296 H309 0.928 . S
H297 C273 0.931 . S
H298 C275 0.930 . S
H299 C277 0.929 . S
H300 C278 0.931 . S
H301 C280 0.930 . S
H302 C284 0.931 . S
H303 C282 0.931 . S
H304 C286 0.931 . S
H305 C287 0.929 . S
H306 C288 0.930 . S
H307 C291 0.930 . S
H308 C292 0.931 . S
H309 C296 0.928 . S
H310 C295 0.929 . S
H311 C293 0.932 . S
Sm312 C314 2.846 . S
Sm312 O332 2.543 . S
Sm312 O333 2.450 . S
Sm312 O334 2.681 1_545 S
Sm312 O335 2.464 1_545 S
Sm312 O336 2.396 . S
Sm312 O340 2.386 1_455 S
Sm312 O343 2.408 1_445 S
Sm313 C323 2.846 . S
Sm313 O334 2.386 1_655 S
Sm313 O337 2.408 1_665 S
Sm313 O338 2.543 . S
Sm313 O339 2.450 . S
Sm313 O340 2.681 1_565 S
Sm313 O341 2.464 1_565 S
Sm313 O342 2.396 . S
C314 Sm312 2.846 . S
C314 C315 1.506 . S
C314 O332 1.261 . S
C314 O333 1.242 . S
C315 C314 1.506 . S
C315 C316 1.358 . S
C315 C320 1.382 . S
C316 C315 1.358 . S
C316 C317 1.385 . S
C316 H344 0.930 . S
C317 C316 1.385 . S
C317 C318 1.395 . S
C317 H345 0.929 . S
C318 C317 1.395 . S
C318 C319 1.335 . S
C319 C318 1.335 . S
C319 C320 1.398 . S
C319 H346 0.930 . S
C320 C315 1.382 . S
C320 C319 1.398 . S
C320 H347 0.929 . S
C321 O334 1.271 . S
C321 O335 1.251 . S
C322 O336 1.252 . S
C322 O337 1.272 . S
C323 Sm313 2.846 . S
C323 C324 1.506 . S
C323 O338 1.261 . S
C323 O339 1.242 . S
C324 C323 1.506 . S
C324 C325 1.358 . S
C324 C329 1.382 . S
C325 C324 1.358 . S
C325 C326 1.385 . S
C325 H348 0.930 . S
C326 C325 1.385 . S
C326 C327 1.395 . S
C326 H349 0.929 . S
C327 C326 1.395 . S
C327 C328 1.335 . S
C328 C327 1.335 . S
C328 C329 1.398 . S
C328 H350 0.930 . S
C329 C324 1.382 . S
C329 C328 1.398 . S
C329 H351 0.929 . S
C330 O340 1.271 . S
C330 O341 1.251 . S
C331 O342 1.252 . S
C331 O343 1.272 . S
O332 Sm312 2.543 . S
O332 C314 1.261 . S
O333 Sm312 2.450 . S
O333 C314 1.242 . S
O334 Sm312 2.681 1_565 S
O334 Sm313 2.386 1_455 S
O334 C321 1.271 . S
O335 Sm312 2.464 1_565 S
O335 C321 1.251 . S
O336 Sm312 2.396 . S
O336 C322 1.252 . S
O337 Sm313 2.408 1_445 S
O337 C322 1.272 . S
O338 Sm313 2.543 . S
O338 C323 1.261 . S
O339 Sm313 2.450 . S
O339 C323 1.242 . S
O340 Sm312 2.386 1_655 S
O340 Sm313 2.681 1_545 S
O340 C330 1.271 . S
O341 Sm313 2.464 1_545 S
O341 C330 1.251 . S
O342 Sm313 2.396 . S
O342 C331 1.252 . S
O343 Sm312 2.408 1_665 S
O343 C331 1.272 . S
H344 C316 0.930 . S
H345 C317 0.929 . S
H346 C319 0.930 . S
H347 C320 0.929 . S
H348 C325 0.930 . S
H349 C326 0.929 . S
H350 C328 0.930 . S
H351 C329 0.929 . S
Sm352 C354 2.846 1_565 S
Sm352 O372 2.543 1_565 S
Sm352 O373 2.450 1_565 S
Sm352 O374 2.681 . S
Sm352 O375 2.464 . S
Sm352 O376 2.396 1_565 S
Sm352 O380 2.386 1_564 S
Sm352 O383 2.408 1_554 S
Sm353 C363 2.846 1_545 S
Sm353 O374 2.386 1_546 S
Sm353 O377 2.408 1_556 S
Sm353 O378 2.543 1_545 S
Sm353 O379 2.450 1_545 S
Sm353 O380 2.681 . S
Sm353 O381 2.464 . S
Sm353 O382 2.396 1_545 S
C354 Sm352 2.846 1_545 S
C354 C355 1.506 . S
C354 O372 1.261 . S
C354 O373 1.242 . S
C355 C354 1.506 . S
C355 C356 1.358 . S
C355 C360 1.382 . S
C356 C355 1.358 . S
C356 C357 1.385 . S
C356 H384 0.930 . S
C357 C356 1.385 . S
C357 C358 1.395 . S
C357 H385 0.929 . S
C358 C357 1.395 . S
C358 C359 1.335 . S
C359 C358 1.335 . S
C359 C360 1.398 . S
C359 H386 0.930 . S
C360 C355 1.382 . S
C360 C359 1.398 . S
C360 H387 0.929 . S
C361 O374 1.271 . S
C361 O375 1.251 . S
C362 O376 1.252 . S
C362 O377 1.272 . S
C363 Sm353 2.846 1_565 S
C363 C364 1.506 . S
C363 O378 1.261 . S
C363 O379 1.242 . S
C364 C363 1.506 . S
C364 C365 1.358 . S
C364 C369 1.382 . S
C365 C364 1.358 . S
C365 C366 1.385 . S
C365 H388 0.930 . S
C366 C365 1.385 . S
C366 C367 1.395 . S
C366 H389 0.929 . S
C367 C366 1.395 . S
C367 C368 1.335 . S
C368 C367 1.335 . S
C368 C369 1.398 . S
C368 H390 0.930 . S
C369 C364 1.382 . S
C369 C368 1.398 . S
C369 H391 0.929 . S
C370 O380 1.271 . S
C370 O381 1.251 . S
C371 O382 1.252 . S
C371 O383 1.272 . S
O372 Sm352 2.543 1_545 S
O372 C354 1.261 . S
O373 Sm352 2.450 1_545 S
O373 C354 1.242 . S
O374 Sm352 2.681 . S
O374 Sm353 2.386 1_564 S
O374 C361 1.271 . S
O375 Sm352 2.464 . S
O375 C361 1.251 . S
O376 Sm352 2.396 1_545 S
O376 C362 1.252 . S
O377 Sm353 2.408 1_554 S
O377 C362 1.272 . S
O378 Sm353 2.543 1_565 S
O378 C363 1.261 . S
O379 Sm353 2.450 1_565 S
O379 C363 1.242 . S
O380 Sm352 2.386 1_546 S
O380 Sm353 2.681 . S
O380 C370 1.271 . S
O381 Sm353 2.464 . S
O381 C370 1.251 . S
O382 Sm353 2.396 1_565 S
O382 C371 1.252 . S
O383 Sm352 2.408 1_556 S
O383 C371 1.272 . S
H384 C356 0.930 . S
H385 C357 0.929 . S
H386 C359 0.930 . S
H387 C360 0.929 . S
H388 C365 0.930 . S
H389 C366 0.929 . S
H390 C368 0.930 . S
H391 C369 0.929 . S
Sm392 C394 2.846 . S
Sm392 O412 2.543 . S
Sm392 O413 2.450 . S
Sm392 O414 2.681 . S
Sm392 O415 2.464 . S
Sm392 O416 2.396 . S
Sm392 O420 2.386 . S
Sm392 O423 2.408 . S
Sm393 C403 2.846 . S
Sm393 O414 2.386 . S
Sm393 O417 2.408 . S
Sm393 O418 2.543 . S
Sm393 O419 2.450 . S
Sm393 O420 2.681 . S
Sm393 O421 2.464 . S
Sm393 O422 2.396 . S
C394 Sm392 2.846 . S
C394 C395 1.506 . S
C394 O412 1.261 . S
C394 O413 1.242 . S
C395 C394 1.506 . S
C395 C396 1.358 . S
C395 C400 1.382 . S
C396 C395 1.358 . S
C396 C397 1.385 . S
C396 H424 0.930 . S
C397 C396 1.385 . S
C397 C398 1.395 . S
C397 H425 0.929 . S
C398 C397 1.395 . S
C398 C399 1.335 . S
C399 C398 1.335 . S
C399 C400 1.398 . S
C399 H426 0.930 . S
C400 C395 1.382 . S
C400 C399 1.398 . S
C400 H427 0.929 . S
C401 O414 1.271 . S
C401 O415 1.251 . S
C402 O416 1.252 . S
C402 O417 1.272 . S
C403 Sm393 2.846 . S
C403 C404 1.506 . S
C403 O418 1.261 . S
C403 O419 1.242 . S
C404 C403 1.506 . S
C404 C405 1.358 . S
C404 C409 1.382 . S
C405 C404 1.358 . S
C405 C406 1.385 . S
C405 H428 0.930 . S
C406 C405 1.385 . S
C406 C407 1.395 . S
C406 H429 0.929 . S
C407 C406 1.395 . S
C407 C408 1.335 . S
C408 C407 1.335 . S
C408 C409 1.398 . S
C408 H430 0.930 . S
C409 C404 1.382 . S
C409 C408 1.398 . S
C409 H431 0.929 . S
C410 O420 1.271 . S
C410 O421 1.251 . S
C411 O422 1.252 . S
C411 O423 1.272 . S
O412 Sm392 2.543 . S
O412 C394 1.261 . S
O413 Sm392 2.450 . S
O413 C394 1.242 . S
O414 Sm392 2.681 . S
O414 Sm393 2.386 . S
O414 C401 1.271 . S
O415 Sm392 2.464 . S
O415 C401 1.251 . S
O416 Sm392 2.396 . S
O416 C402 1.252 . S
O417 Sm393 2.408 . S
O417 C402 1.272 . S
O418 Sm393 2.543 . S
O418 C403 1.261 . S
O419 Sm393 2.450 . S
O419 C403 1.242 . S
O420 Sm392 2.386 . S
O420 Sm393 2.681 . S
O420 C410 1.271 . S
O421 Sm393 2.464 . S
O421 C410 1.251 . S
O422 Sm393 2.396 . S
O422 C411 1.252 . S
O423 Sm392 2.408 . S
O423 C411 1.272 . S
H424 C396 0.930 . S
H425 C397 0.929 . S
H426 C399 0.930 . S
H427 C400 0.929 . S
H428 C405 0.930 . S
H429 C406 0.929 . S
H430 C408 0.930 . S
H431 C409 0.929 . S
Sm432 C434 2.846 . S
Sm432 O452 2.543 . S
Sm432 O453 2.450 . S
Sm432 O454 2.681 1_455 S
Sm432 O455 2.464 1_455 S
Sm432 O456 2.396 . S
Sm432 O460 2.386 1_554 S
Sm432 O463 2.408 1_454 S
Sm433 C443 2.846 . S
Sm433 O454 2.386 1_556 S
Sm433 O457 2.408 1_656 S
Sm433 O458 2.543 . S
Sm433 O459 2.450 . S
Sm433 O460 2.681 1_655 S
Sm433 O461 2.464 1_655 S
Sm433 O462 2.396 . S
C434 Sm432 2.846 . S
C434 C435 1.506 . S
C434 O452 1.261 . S
C434 O453 1.242 . S
C435 C434 1.506 . S
C435 C436 1.358 . S
C435 C440 1.382 . S
C436 C435 1.358 . S
C436 C437 1.385 . S
C436 H464 0.930 . S
C437 C436 1.385 . S
C437 C438 1.395 . S
C437 H465 0.929 . S
C438 C437 1.395 . S
C438 C439 1.335 . S
C439 C438 1.335 . S
C439 C440 1.398 . S
C439 H466 0.930 . S
C440 C435 1.382 . S
C440 C439 1.398 . S
C440 H467 0.929 . S
C441 O454 1.271 . S
C441 O455 1.251 . S
C442 O456 1.252 . S
C442 O457 1.272 . S
C443 Sm433 2.846 . S
C443 C444 1.506 . S
C443 O458 1.261 . S
C443 O459 1.242 . S
C444 C443 1.506 . S
C444 C445 1.358 . S
C444 C449 1.382 . S
C445 C444 1.358 . S
C445 C446 1.385 . S
C445 H468 0.930 . S
C446 C445 1.385 . S
C446 C447 1.395 . S
C446 H469 0.929 . S
C447 C446 1.395 . S
C447 C448 1.335 . S
C448 C447 1.335 . S
C448 C449 1.398 . S
C448 H470 0.930 . S
C449 C444 1.382 . S
C449 C448 1.398 . S
C449 H471 0.929 . S
C450 O460 1.271 . S
C450 O461 1.251 . S
C451 O462 1.252 . S
C451 O463 1.272 . S
O452 Sm432 2.543 . S
O452 C434 1.261 . S
O453 Sm432 2.450 . S
O453 C434 1.242 . S
O454 Sm432 2.681 1_655 S
O454 Sm433 2.386 1_554 S
O454 C441 1.271 . S
O455 Sm432 2.464 1_655 S
O455 C441 1.251 . S
O456 Sm432 2.396 . S
O456 C442 1.252 . S
O457 Sm433 2.408 1_454 S
O457 C442 1.272 . S
O458 Sm433 2.543 . S
O458 C443 1.261 . S
O459 Sm433 2.450 . S
O459 C443 1.242 . S
O460 Sm432 2.386 1_556 S
O460 Sm433 2.681 1_455 S
O460 C450 1.271 . S
O461 Sm433 2.464 1_455 S
O461 C450 1.251 . S
O462 Sm433 2.396 . S
O462 C451 1.252 . S
O463 Sm432 2.408 1_656 S
O463 C451 1.272 . S
H464 C436 0.930 . S
H465 C437 0.929 . S
H466 C439 0.930 . S
H467 C440 0.929 . S
H468 C445 0.930 . S
H469 C446 0.929 . S
H470 C448 0.930 . S
H471 C449 0.929 . S
C472 C473 1.387 . S
C472 H476 0.950 . S
C472 C481 1.390 . S
C473 C472 1.387 . S
C473 C475 1.387 . S
H474 C481 0.950 . S
C475 C473 1.387 . S
C475 C477 1.390 . S
C475 H479 0.950 . S
H476 C472 0.950 . S
C477 C475 1.390 . S
C477 C478 1.387 . S
C477 H480 0.950 . S
C478 C477 1.387 . S
C478 C481 1.387 . S
H479 C475 0.950 . S
H480 C477 0.950 . S
C481 C472 1.390 . S
C481 H474 0.950 . S
C481 C478 1.387 . S
C482 C483 1.387 . S
C482 H486 0.950 . S
C482 C491 1.390 . S
C483 C482 1.387 . S
C483 C485 1.387 . S
H484 C491 0.950 . S
C485 C483 1.387 . S
C485 C487 1.390 . S
C485 H489 0.950 . S
H486 C482 0.950 . S
C487 C485 1.390 . S
C487 C488 1.387 . S
C487 H490 0.950 . S
C488 C487 1.387 . S
C488 C491 1.387 . S
H489 C485 0.950 . S
H490 C487 0.950 . S
C491 C482 1.390 . S
C491 H484 0.950 . S
C491 C488 1.387 . S
C492 C493 1.387 . S
C492 H496 0.950 . S
C492 C501 1.390 . S
C493 C492 1.387 . S
C493 C495 1.387 . S
H494 C501 0.950 . S
C495 C493 1.387 . S
C495 C497 1.390 . S
C495 H499 0.950 . S
H496 C492 0.950 . S
C497 C495 1.390 . S
C497 C498 1.387 . S
C497 H500 0.950 . S
C498 C497 1.387 . S
C498 C501 1.387 . S
H499 C495 0.950 . S
H500 C497 0.950 . S
C501 C492 1.390 . S
C501 H494 0.950 . S
C501 C498 1.387 . S
C502 C503 1.387 . S
C502 H506 0.950 . S
C502 C511 1.390 . S
C503 C502 1.387 . S
C503 C505 1.387 . S
H504 C511 0.950 . S
C505 C503 1.387 . S
C505 C507 1.390 . S
C505 H509 0.950 . S
H506 C502 0.950 . S
C507 C505 1.390 . S
C507 C508 1.387 . S
C507 H510 0.950 . S
C508 C507 1.387 . S
C508 C511 1.387 . S
H509 C505 0.950 . S
H510 C507 0.950 . S
C511 C502 1.390 . S
C511 H504 0.950 . S
C511 C508 1.387 . S
C512 C513 1.387 . S
C512 H516 0.950 . S
C512 C521 1.390 . S
C513 C512 1.387 . S
C513 C515 1.387 . S
H514 C521 0.950 . S
C515 C513 1.387 . S
C515 C517 1.390 . S
C515 H519 0.950 . S
H516 C512 0.950 . S
C517 C515 1.390 . S
C517 C518 1.387 . S
C517 H520 0.950 . S
C518 C517 1.387 . S
C518 C521 1.387 . S
H519 C515 0.950 . S
H520 C517 0.950 . S
C521 C512 1.390 . S
C521 H514 0.950 . S
C521 C518 1.387 . S
C522 C523 1.387 . S
C522 H526 0.950 . S
C522 C531 1.390 . S
C523 C522 1.387 . S
C523 C525 1.387 . S
H524 C531 0.950 . S
C525 C523 1.387 . S
C525 C527 1.390 . S
C525 H529 0.950 . S
H526 C522 0.950 . S
C527 C525 1.390 . S
C527 C528 1.387 . S
C527 H530 0.950 . S
C528 C527 1.387 . S
C528 C531 1.387 . S
H529 C525 0.950 . S
H530 C527 0.950 . S
C531 C522 1.390 . S
C531 H524 0.950 . S
C531 C528 1.387 . S
C532 C533 1.387 . S
C532 H536 0.950 . S
C532 C541 1.390 . S
C533 C532 1.387 . S
C533 C535 1.387 . S
H534 C541 0.950 . S
C535 C533 1.387 . S
C535 C537 1.390 . S
C535 H539 0.950 . S
H536 C532 0.950 . S
C537 C535 1.390 . S
C537 C538 1.387 . S
C537 H540 0.950 . S
C538 C537 1.387 . S
C538 C541 1.387 . S
H539 C535 0.950 . S
H540 C537 0.950 . S
C541 C532 1.390 . S
C541 H534 0.950 . S
C541 C538 1.387 . S
C542 C543 1.387 . S
C542 H546 0.950 . S
C542 C551 1.390 . S
C543 C542 1.387 . S
C543 C545 1.387 . S
H544 C551 0.950 . S
C545 C543 1.387 . S
C545 C547 1.390 . S
C545 H549 0.950 . S
H546 C542 0.950 . S
C547 C545 1.390 . S
C547 C548 1.387 . S
C547 H550 0.950 . S
C548 C547 1.387 . S
C548 C551 1.387 . S
H549 C545 0.950 . S
H550 C547 0.950 . S
C551 C542 1.390 . S
C551 H544 0.950 . S
C551 C548 1.387 . S
C552 C553 1.387 . S
C552 H556 0.950 . S
C552 C561 1.390 . S
C553 C552 1.387 . S
C553 C555 1.387 . S
H554 C561 0.950 . S
C555 C553 1.387 . S
C555 C557 1.390 . S
C555 H559 0.950 . S
H556 C552 0.950 . S
C557 C555 1.390 . S
C557 C558 1.387 . S
C557 H560 0.950 . S
C558 C557 1.387 . S
C558 C561 1.387 . S
H559 C555 0.950 . S
H560 C557 0.950 . S
C561 C552 1.390 . S
C561 H554 0.950 . S
C561 C558 1.387 . S
C562 C563 1.387 . S
C562 H566 0.950 . S
C562 C571 1.390 . S
C563 C562 1.387 . S
C563 C565 1.387 . S
H564 C571 0.950 . S
C565 C563 1.387 . S
C565 C567 1.390 . S
C565 H569 0.950 . S
H566 C562 0.950 . S
C567 C565 1.390 . S
C567 C568 1.387 . S
C567 H570 0.950 . S
C568 C567 1.387 . S
C568 C571 1.387 . S
H569 C565 0.950 . S
H570 C567 0.950 . S
C571 C562 1.390 . S
C571 H564 0.950 . S
C571 C568 1.387 . S
C572 C573 1.387 . S
C572 H576 0.950 . S
C572 C581 1.390 . S
C573 C572 1.387 . S
C573 C575 1.387 . S
H574 C581 0.950 . S
C575 C573 1.387 . S
C575 C577 1.390 . S
C575 H579 0.950 . S
H576 C572 0.950 . S
C577 C575 1.390 . S
C577 C578 1.387 . S
C577 H580 0.950 . S
C578 C577 1.387 . S
C578 C581 1.387 . S
H579 C575 0.950 . S
H580 C577 0.950 . S
C581 C572 1.390 . S
C581 H574 0.950 . S
C581 C578 1.387 . S
C582 C583 1.387 . S
C582 H586 0.950 . S
C582 C591 1.390 . S
C583 C582 1.387 . S
C583 C585 1.387 . S
H584 C591 0.950 . S
C585 C583 1.387 . S
C585 C587 1.390 . S
C585 H589 0.950 . S
H586 C582 0.950 . S
C587 C585 1.390 . S
C587 C588 1.387 . S
C587 H590 0.950 . S
C588 C587 1.387 . S
C588 C591 1.387 . S
H589 C585 0.950 . S
H590 C587 0.950 . S
C591 C582 1.390 . S
C591 H584 0.950 . S
C591 C588 1.387 . S
C592 C593 1.387 . S
C592 H596 0.950 . S
C592 C601 1.390 . S
C593 C592 1.387 . S
C593 C595 1.387 . S
H594 C601 0.950 . S
C595 C593 1.387 . S
C595 C597 1.390 . S
C595 H599 0.950 . S
H596 C592 0.950 . S
C597 C595 1.390 . S
C597 C598 1.387 . S
C597 H600 0.950 . S
C598 C597 1.387 . S
C598 C601 1.387 . S
H599 C595 0.950 . S
H600 C597 0.950 . S
C601 C592 1.390 . S
C601 H594 0.950 . S
C601 C598 1.387 . S
C602 C603 1.387 . S
C602 H606 0.950 . S
C602 C611 1.390 . S
C603 C602 1.387 . S
C603 C605 1.387 . S
H604 C611 0.950 . S
C605 C603 1.387 . S
C605 C607 1.390 . S
C605 H609 0.950 . S
H606 C602 0.950 . S
C607 C605 1.390 . S
C607 C608 1.387 . S
C607 H610 0.950 . S
C608 C607 1.387 . S
C608 C611 1.387 . S
H609 C605 0.950 . S
H610 C607 0.950 . S
C611 C602 1.390 . S
C611 H604 0.950 . S
C611 C608 1.387 . S
C612 C613 1.387 . S
C612 H616 0.950 . S
C612 C621 1.390 . S
C613 C612 1.387 . S
C613 C615 1.387 . S
H614 C621 0.950 . S
C615 C613 1.387 . S
C615 C617 1.390 . S
C615 H619 0.950 . S
H616 C612 0.950 . S
C617 C615 1.390 . S
C617 C618 1.387 . S
C617 H620 0.950 . S
C618 C617 1.387 . S
C618 C621 1.387 . S
H619 C615 0.950 . S
H620 C617 0.950 . S
C621 C612 1.390 . S
C621 H614 0.950 . S
C621 C618 1.387 . S
C622 C623 1.387 . S
C622 H626 0.950 . S
C622 C631 1.390 . S
C623 C622 1.387 . S
C623 C625 1.387 . S
H624 C631 0.950 . S
C625 C623 1.387 . S
C625 C627 1.390 . S
C625 H629 0.950 . S
H626 C622 0.950 . S
C627 C625 1.390 . S
C627 C628 1.387 . S
C627 H630 0.950 . S
C628 C627 1.387 . S
C628 C631 1.387 . S
H629 C625 0.950 . S
H630 C627 0.950 . S
C631 C622 1.390 . S
C631 H624 0.950 . S
C631 C628 1.387 . S
C632 C633 1.387 . S
C632 H636 0.950 . S
C632 C641 1.390 . S
C633 C632 1.387 . S
C633 C635 1.387 . S
H634 C641 0.950 . S
C635 C633 1.387 . S
C635 C637 1.390 . S
C635 H639 0.950 . S
H636 C632 0.950 . S
C637 C635 1.390 . S
C637 C638 1.387 . S
C637 H640 0.950 . S
C638 C637 1.387 . S
C638 C641 1.387 . S
H639 C635 0.950 . S
H640 C637 0.950 . S
C641 C632 1.390 . S
C641 H634 0.950 . S
C641 C638 1.387 . S
C642 C643 1.387 . S
C642 H646 0.950 . S
C642 C651 1.390 . S
C643 C642 1.387 . S
C643 C645 1.387 . S
H644 C651 0.950 . S
C645 C643 1.387 . S
C645 C647 1.390 . S
C645 H649 0.950 . S
H646 C642 0.950 . S
C647 C645 1.390 . S
C647 C648 1.387 . S
C647 H650 0.950 . S
C648 C647 1.387 . S
C648 C651 1.387 . S
H649 C645 0.950 . S
H650 C647 0.950 . S
C651 C642 1.390 . S
C651 H644 0.950 . S
C651 C648 1.387 . S
C652 C653 1.387 . S
C652 H656 0.950 . S
C652 C661 1.390 . S
C653 C652 1.387 . S
C653 C655 1.387 . S
H654 C661 0.950 . S
C655 C653 1.387 . S
C655 C657 1.390 . S
C655 H659 0.950 . S
H656 C652 0.950 . S
C657 C655 1.390 . S
C657 C658 1.387 . S
C657 H660 0.950 . S
C658 C657 1.387 . S
C658 C661 1.387 . S
H659 C655 0.950 . S
H660 C657 0.950 . S
C661 C652 1.390 . S
C661 H654 0.950 . S
C661 C658 1.387 . S
C662 C663 1.387 . S
C662 H666 0.950 . S
C662 C671 1.390 . S
C663 C662 1.387 . S
C663 C665 1.387 . S
H664 C671 0.950 . S
C665 C663 1.387 . S
C665 C667 1.390 . S
C665 H669 0.950 . S
H666 C662 0.950 . S
C667 C665 1.390 . S
C667 C668 1.387 . S
C667 H670 0.950 . S
C668 C667 1.387 . S
C668 C671 1.387 . S
H669 C665 0.950 . S
H670 C667 0.950 . S
C671 C662 1.390 . S
C671 H664 0.950 . S
C671 C668 1.387 . S
C672 C673 1.387 . S
C672 H676 0.950 . S
C672 C681 1.390 . S
C673 C672 1.387 . S
C673 C675 1.387 . S
H674 C681 0.950 . S
C675 C673 1.387 . S
C675 C677 1.390 . S
C675 H679 0.950 . S
H676 C672 0.950 . S
C677 C675 1.390 . S
C677 C678 1.387 . S
C677 H680 0.950 . S
C678 C677 1.387 . S
C678 C681 1.387 . S
H679 C675 0.950 . S
H680 C677 0.950 . S
C681 C672 1.390 . S
C681 H674 0.950 . S
C681 C678 1.387 . S
C682 C683 1.387 . S
C682 H686 0.950 . S
C682 C691 1.390 . S
C683 C682 1.387 . S
C683 C685 1.387 . S
H684 C691 0.950 . S
C685 C683 1.387 . S
C685 C687 1.390 . S
C685 H689 0.950 . S
H686 C682 0.950 . S
C687 C685 1.390 . S
C687 C688 1.387 . S
C687 H690 0.950 . S
C688 C687 1.387 . S
C688 C691 1.387 . S
H689 C685 0.950 . S
H690 C687 0.950 . S
C691 C682 1.390 . S
C691 H684 0.950 . S
C691 C688 1.387 . S
C692 C693 1.387 . S
C692 H696 0.950 . S
C692 C701 1.390 . S
C693 C692 1.387 . S
C693 C695 1.387 . S
H694 C701 0.950 . S
C695 C693 1.387 . S
C695 C697 1.390 . S
C695 H699 0.950 . S
H696 C692 0.950 . S
C697 C695 1.390 . S
C697 C698 1.387 . S
C697 H700 0.950 . S
C698 C697 1.387 . S
C698 C701 1.387 . S
H699 C695 0.950 . S
H700 C697 0.950 . S
C701 C692 1.390 . S
C701 H694 0.950 . S
C701 C698 1.387 . S
C702 C703 1.387 . S
C702 H706 0.950 . S
C702 C711 1.390 . S
C703 C702 1.387 . S
C703 C705 1.387 . S
H704 C711 0.950 . S
C705 C703 1.387 . S
C705 C707 1.390 . S
C705 H709 0.950 . S
H706 C702 0.950 . S
C707 C705 1.390 . S
C707 C708 1.387 . S
C707 H710 0.950 . S
C708 C707 1.387 . S
C708 C711 1.387 . S
H709 C705 0.950 . S
H710 C707 0.950 . S
C711 C702 1.390 . S
C711 H704 0.950 . S
C711 C708 1.387 . S
C473 C1 1.318 . S
C478 C318 1.422 . S
C483 C40 1.100 . S
C488 C367 1.092 . S
C498 C402 2.498 . S
C493 C99 2.554 . S
C503 C118 2.455 . S
C508 C441 2.398 . S
C518 C362 2.633 . S
C513 C16 2.412 . S
C528 C321 0.854 . S
C523 C60 0.880 . S
C538 C451 1.938 . S
C533 C79 1.995 . S
C548 C410 1.690 . S
C543 C138 1.703 . S
C553 C21 1.703 . S
C558 C438 1.838 . S
C568 C370 2.345 . S
C563 C94 2.446 . S
C573 C133 2.346 . S
C578 C331 2.338 . S
C583 C55 1.082 . S
C588 C407 1.123 . S
C598 C327 1.425 . S
C593 C157 1.333 . S
C603 C196 1.104 . S
C608 C358 1.095 . S
C613 C255 2.552 . S
C618 C411 2.495 . S
C623 C289 2.452 . S
C628 C450 2.394 . S
C633 C172 2.400 . S
C638 C371 2.632 . S
C648 C330 0.854 . S
C643 C216 0.877 . S
C658 C442 1.938 . S
C653 C235 1.998 . S
C668 C401 1.688 . S
C663 C294 1.705 . S
C673 C177 1.726 . S
C678 C447 1.835 . S
C688 C361 2.347 . S
C683 C250 2.447 . S
C698 C322 2.342 . S
C693 C274 2.348 . S
C703 C211 1.079 . S
C708 C398 1.119 . S
