# Generated by pormake.
# Topology zzz, (3,6)-cn, num edge types: 1
# Building blocks:
#     Node 0, Type 0, BuildingBlock: BETDAH_clean_linker_0, # of connection points: 3
#     Node 1, Type 0, BuildingBlock: BETDAH_clean_linker_0, # of connection points: 3
#     Node 2, Type 0, BuildingBlock: BETDAH_clean_linker_0, # of connection points: 3
#     Node 3, Type 0, BuildingBlock: BETDAH_clean_linker_0, # of connection points: 3
#     Node 4, Type 0, BuildingBlock: BETDAH_clean_linker_0, # of connection points: 3
#     Node 5, Type 0, BuildingBlock: BETDAH_clean_linker_0, # of connection points: 3
#     Node 6, Type 0, BuildingBlock: BETDAH_clean_linker_0, # of connection points: 3
#     Node 7, Type 0, BuildingBlock: BETDAH_clean_linker_0, # of connection points: 3
#     Node 8, Type 1, BuildingBlock: BETFAJ_clean_sbu_0, # of connection points: 6
#     Node 9, Type 1, BuildingBlock: BETFAJ_clean_sbu_0, # of connection points: 6
#     Node 10, Type 1, BuildingBlock: BETFAJ_clean_sbu_0, # of connection points: 6
#     Node 11, Type 1, BuildingBlock: BETFAJ_clean_sbu_0, # of connection points: 6
#     Edge 12, Type (0, 1), BuildingBlock: EZIPEK_clean_linker_0, # of connection points: 2
#     Edge 13, Type (0, 1), BuildingBlock: EZIPEK_clean_linker_0, # of connection points: 2
#     Edge 14, Type (0, 1), BuildingBlock: EZIPEK_clean_linker_0, # of connection points: 2
#     Edge 15, Type (0, 1), BuildingBlock: EZIPEK_clean_linker_0, # of connection points: 2
#     Edge 16, Type (0, 1), BuildingBlock: EZIPEK_clean_linker_0, # of connection points: 2
#     Edge 17, Type (0, 1), BuildingBlock: EZIPEK_clean_linker_0, # of connection points: 2
#     Edge 18, Type (0, 1), BuildingBlock: EZIPEK_clean_linker_0, # of connection points: 2
#     Edge 19, Type (0, 1), BuildingBlock: EZIPEK_clean_linker_0, # of connection points: 2
#     Edge 20, Type (0, 1), BuildingBlock: EZIPEK_clean_linker_0, # of connection points: 2
#     Edge 21, Type (0, 1), BuildingBlock: EZIPEK_clean_linker_0, # of connection points: 2
#     Edge 22, Type (0, 1), BuildingBlock: EZIPEK_clean_linker_0, # of connection points: 2
#     Edge 23, Type (0, 1), BuildingBlock: EZIPEK_clean_linker_0, # of connection points: 2
#     Edge 24, Type (0, 1), BuildingBlock: EZIPEK_clean_linker_0, # of connection points: 2
#     Edge 25, Type (0, 1), BuildingBlock: EZIPEK_clean_linker_0, # of connection points: 2
#     Edge 26, Type (0, 1), BuildingBlock: EZIPEK_clean_linker_0, # of connection points: 2
#     Edge 27, Type (0, 1), BuildingBlock: EZIPEK_clean_linker_0, # of connection points: 2
#     Edge 28, Type (0, 1), BuildingBlock: EZIPEK_clean_linker_0, # of connection points: 2
#     Edge 29, Type (0, 1), BuildingBlock: EZIPEK_clean_linker_0, # of connection points: 2
#     Edge 30, Type (0, 1), BuildingBlock: EZIPEK_clean_linker_0, # of connection points: 2
#     Edge 31, Type (0, 1), BuildingBlock: EZIPEK_clean_linker_0, # of connection points: 2
#     Edge 32, Type (0, 1), BuildingBlock: EZIPEK_clean_linker_0, # of connection points: 2
#     Edge 33, Type (0, 1), BuildingBlock: EZIPEK_clean_linker_0, # of connection points: 2
#     Edge 34, Type (0, 1), BuildingBlock: EZIPEK_clean_linker_0, # of connection points: 2
#     Edge 35, Type (0, 1), BuildingBlock: EZIPEK_clean_linker_0, # of connection points: 2
# Relax obj value: 0.371
# Max RMSD: 0.213
# Mean RMSD: 0.162
data_MOF--net-zzz--node1-BETFAJ_clean_sbu_0--node2-BETDAH_clean_linker_0--edge1-EZIPEK_clean_linker_0
_symmetry_space_group_name_H-M    P1
_symmetry_Int_Tables_number       1
_symmetry_cell_setting            triclinic
loop_
_symmetry_equiv_pos_as_xyz
'x, y, z'
_cell_length_a     38.63054
_cell_length_b     38.746186
_cell_length_c     10.164609
_cell_angle_alpha  89.852733
_cell_angle_beta   90.373458
_cell_angle_gamma 90.137179
loop_
_atom_site_label
_atom_site_type_symbol
_atom_site_fract_x
_atom_site_fract_y
_atom_site_fract_z
_atom_type_partial_charge
H0 H 0.83483 0.56509 0.4034 0.0
H1 H 0.72944 0.55158 0.275 0.0
H2 H 0.77043 0.49209 0.60082 0.0
C3 C 0.80958 0.55345 0.41436 0.0
C4 C 0.80625 0.52843 0.51197 0.0
C5 C 0.78248 0.56142 0.32592 0.0
C6 C 0.75033 0.5453 0.34213 0.0
C7 C 0.74539 0.52027 0.44077 0.0
C8 C 0.77361 0.51186 0.52638 0.0
N9 N 0.71289 0.5025 0.4511 0.0
C10 C 0.68537 0.50566 0.36012 0.0
H11 H 0.07684 0.82774 0.45016 0.0
H12 H 0.06264 0.72774 0.27484 0.0
H13 H 0.97932 0.77606 0.48514 0.0
C14 C 0.0607 0.80561 0.42815 0.0
C15 C 0.02713 0.80523 0.47841 0.0
C16 C 0.07343 0.77891 0.34798 0.0
C17 C 0.05242 0.74978 0.32618 0.0
C18 C 0.01807 0.74885 0.37186 0.0
C19 C 1.00564 0.77663 0.4491 0.0
N20 N 0.99537 0.72084 0.33927 0.0
C21 C 1.00277 0.69427 0.24996 0.0
H22 H 0.69311 0.05846 0.38641 0.0
H23 H 0.79889 0.0489 0.26768 0.0
H24 H 0.7545 0.97485 0.53712 0.0
C25 C 0.71743 0.04452 0.38978 0.0
C26 C 0.72003 1.01549 0.47096 0.0
C27 C 0.74578 0.05692 0.31786 0.0
C28 C 0.7772 0.03902 0.32251 0.0
C29 C 0.78052 1.00873 0.39829 0.0
C30 C 0.75191 0.99743 0.47486 0.0
N31 N 0.81228 0.9897 0.40128 0.0
C32 C 0.84073 0.99515 0.3179 0.0
H33 H 0.46989 0.68708 0.41463 0.0
H34 H 0.47292 0.79172 0.27795 0.0
H35 H 0.54928 0.75491 0.55773 0.0
C36 C 0.48231 0.71212 0.41392 0.0
C37 C 0.51108 0.71726 0.49497 0.0
C38 C 0.46813 0.73872 0.33741 0.0
C39 C 0.484 0.77134 0.33716 0.0
C40 C 0.51396 0.77738 0.41375 0.0
C41 C 0.527 0.75027 0.49497 0.0
N42 N 0.53096 0.81032 0.41373 0.0
C43 C 0.52463 0.83794 0.32655 0.0
H44 H 0.20849 0.56317 0.21718 0.0
H45 H 0.31296 0.54669 0.3409 0.0
H46 H 0.26823 0.48338 0.03344 0.0
C47 C 0.2326 0.54935 0.20564 0.0
C48 C 0.23419 0.52255 0.11386 0.0
C49 C 0.26112 0.55851 0.28442 0.0
C50 C 0.29184 0.53998 0.27582 0.0
C51 C 0.29494 0.5126 0.1866 0.0
C52 C 0.26605 0.50422 0.10363 0.0
N53 N 0.32653 0.49324 0.18048 0.0
C54 C 0.35494 0.49711 0.2674 0.0
H55 H 0.9645 0.19717 0.22898 0.0
H56 H 0.98484 0.29892 0.37249 0.0
H57 H 0.04992 0.25497 0.07161 0.0
C58 C 0.97961 0.22075 0.22397 0.0
C59 C 1.0078 0.22225 0.13861 0.0
C60 C 0.97107 0.24845 0.30622 0.0
C61 C 0.99121 0.27836 0.30539 0.0
C62 C 0.01991 0.28119 0.22181 0.0
C63 C 0.02794 0.25306 0.13682 0.0
N64 N 0.04114 0.31161 0.22384 0.0
C65 C 0.03756 0.33916 0.31302 0.0
H66 H 0.32907 0.95098 0.22302 0.0
H67 H 0.22493 0.96425 0.35592 0.0
H68 H 0.27155 0.04032 0.10072 0.0
C69 C 0.30519 0.96561 0.22166 0.0
C70 C 0.30377 0.99625 0.1484 0.0
C71 C 0.27748 0.95464 0.30011 0.0
C72 C 0.24653 0.97341 0.29856 0.0
C73 C 0.244 1.00448 0.22711 0.0
C74 C 0.27292 1.01594 0.15284 0.0
N75 N 0.21329 0.02505 0.23096 0.0
C76 C 0.18544 0.02041 0.31772 0.0
H77 H 0.57275 0.32421 0.21125 0.0
H78 H 0.55892 0.2199 0.34315 0.0
H79 H 0.4898 0.26333 0.04987 0.0
C80 C 0.55883 0.2999 0.20479 0.0
C81 C 0.53074 0.29738 0.11819 0.0
C82 C 0.56925 0.27216 0.28446 0.0
C83 C 0.55066 0.24109 0.28107 0.0
C84 C 0.52125 0.23778 0.19926 0.0
C85 C 0.51189 0.26586 0.11531 0.0
N86 N 0.50055 0.207 0.20064 0.0
C87 C 0.50376 0.17948 0.29075 0.0
Sm88 Sm 0.03435 1.00428 0.91794 0.0
Sm89 Sm 0.99009 0.0189 0.71373 0.0
C90 C 0.07 0.97742 0.11684 0.0
C91 C 0.08942 0.94517 0.13981 0.0
C92 C 0.07499 0.92005 0.22215 0.0
C93 C 0.09098 0.88823 0.23752 0.0
C94 C 0.12223 0.88087 0.17384 0.0
C95 C 0.13762 0.90631 0.09498 0.0
C96 C 0.12119 0.93828 0.07735 0.0
C97 C 0.07186 0.02021 0.69317 0.0
C98 C 1.01054 0.94005 0.72543 0.0
C99 C 0.95359 0.04176 0.51024 0.0
C100 C 0.93286 0.07269 0.48615 0.0
C101 C 0.93883 0.09146 0.37073 0.0
C102 C 0.92888 0.12587 0.36288 0.0
C103 C 0.91326 0.14179 0.47103 0.0
C104 C 0.90304 0.12187 0.57936 0.0
C105 C 0.91306 0.08732 0.58734 0.0
C106 C 0.95343 1.00115 0.93944 0.0
C107 C 1.01486 0.08441 0.90132 0.0
O108 O 0.03647 0.97418 0.1037 0.0
O109 O 0.08306 0.99967 0.0344 0.0
O110 O 0.04567 1.00059 0.69689 0.0
O111 O 0.07755 0.03353 0.80782 0.0
O112 O 1.01692 0.94876 0.84898 0.0
O113 O 1.005 0.965 0.64052 0.0
O114 O 0.98668 0.04767 0.52565 0.0
O115 O 0.94155 0.01953 0.59515 0.0
O116 O 0.97866 0.02204 0.93505 0.0
O117 O 0.94813 0.98778 0.82456 0.0
O118 O 1.00515 0.0752 0.78108 0.0
O119 O 0.02369 0.06009 0.98574 0.0
H120 H 0.05071 0.92463 0.27197 0.0
H121 H 0.07824 0.86893 0.29656 0.0
H122 H 0.16177 0.90122 0.04528 0.0
H123 H 0.13308 0.95728 0.01364 0.0
H124 H 0.95389 0.08048 0.2916 0.0
H125 H 0.93676 0.14094 0.27823 0.0
H126 H 0.89112 0.13396 0.66363 0.0
H127 H 0.90826 0.07322 0.67757 0.0
Sm128 Sm 0.52081 0.03267 0.89902 0.0
Sm129 Sm 0.50407 0.98315 0.71571 0.0
C130 C 0.54988 0.07238 0.08113 0.0
C131 C 0.58476 0.08737 0.09856 0.0
C132 C 0.61279 0.06601 0.13105 0.0
C133 C 0.64597 0.07959 0.14013 0.0
C134 C 0.65214 0.11485 0.11729 0.0
C135 C 0.62429 0.13655 0.08598 0.0
C136 C 0.59069 0.12287 0.07709 0.0
C137 C 0.50182 0.06454 0.66327 0.0
C138 C 0.58382 1.00397 0.71499 0.0
C139 C 0.478 0.94249 0.53017 0.0
C140 C 0.44686 0.92102 0.51422 0.0
C141 C 0.42702 0.92541 0.40019 0.0
C142 C 0.39318 0.91322 0.39476 0.0
C143 C 0.37882 0.89546 0.50223 0.0
C144 C 0.40047 0.88653 0.60861 0.0
C145 C 0.43411 0.9001 0.61644 0.0
C146 C 0.52336 0.95184 0.95058 0.0
C147 C 0.44055 1.01219 0.90723 0.0
O148 O 0.54701 0.03889 0.09248 0.0
O149 O 0.53162 0.08452 0.98351 0.0
O150 O 0.5216 0.03853 0.67364 0.0
O151 O 0.48988 0.07243 0.77799 0.0
O152 O 0.57576 1.01392 0.83498 0.0
O153 O 0.55852 0.99499 0.63496 0.0
O154 O 0.47222 0.97566 0.53602 0.0
O155 O 0.50138 0.93227 0.61482 0.0
O156 O 0.50317 0.9775 0.94005 0.0
O157 O 0.53572 0.94385 0.83662 0.0
O158 O 0.4485 0.99501 0.79888 0.0
O159 O 0.46518 0.02844 0.97184 0.0
H160 H 0.60931 0.03862 0.14821 0.0
H161 H 0.66704 0.06232 0.16484 0.0
H162 H 0.62851 0.16381 0.06842 0.0
H163 H 0.56942 0.13989 0.05211 0.0
H164 H 0.43707 0.94 0.31804 0.0
H165 H 0.37756 0.91966 0.30943 0.0
H166 H 0.3907 0.87119 0.68949 0.0
H167 H 0.44931 0.89574 0.7048 0.0
Sm168 Sm 0.49744 0.51446 0.90249 0.0
Sm169 Sm 0.54651 0.50253 0.7114 0.0
C170 C 0.45697 0.53889 0.09018 0.0
C171 C 0.43877 0.57179 0.11309 0.0
C172 C 0.45056 0.59323 0.2145 0.0
C173 C 0.43642 0.62587 0.23106 0.0
C174 C 0.40993 0.63798 0.14751 0.0
C175 C 0.39673 0.61593 0.04989 0.0
C176 C 0.41116 0.58305 0.03236 0.0
C177 C 0.46535 0.49938 0.66351 0.0
C178 C 0.52535 0.58138 0.73276 0.0
C179 C 0.58575 0.48149 0.51368 0.0
C180 C 0.6056 0.45025 0.48314 0.0
C181 C 0.59832 0.43295 0.36524 0.0
C182 C 0.60793 0.39856 0.35052 0.0
C183 C 0.62488 0.38124 0.45367 0.0
C184 C 0.63647 0.39982 0.56368 0.0
C185 C 0.62672 0.43429 0.57858 0.0
C186 C 0.5781 0.51715 0.95386 0.0
C187 C 0.51928 0.43517 0.88468 0.0
O188 O 0.49073 0.54029 0.09524 0.0
O189 O 0.44563 0.51935 0.9949 0.0
O190 O 0.49076 0.51985 0.67854 0.0
O191 O 0.45787 0.48478 0.77437 0.0
O192 O 0.51568 0.57077 0.85062 0.0
O193 O 0.53433 0.55805 0.64619 0.0
O194 O 0.55225 0.47704 0.51787 0.0
O195 O 0.59723 0.50108 0.60876 0.0
O196 O 0.55285 0.49676 0.93554 0.0
O197 O 0.58648 0.53125 0.84277 0.0
O198 O 0.53127 0.44554 0.76914 0.0
O199 O 0.50793 0.45846 0.96789 0.0
H200 H 0.47139 0.58508 0.27933 0.0
H201 H 0.44695 0.64206 0.30771 0.0
H202 H 0.37584 0.62422 0.98591 0.0
H203 H 0.40127 0.5669 0.9538 0.0
H204 H 0.5825 0.44501 0.28968 0.0
H205 H 0.59903 0.38458 0.26446 0.0
H206 H 0.64963 0.38675 0.64389 0.0
H207 H 0.63325 0.44735 0.6692 0.0
Sm208 Sm 1.01282 0.49595 0.89675 0.0
Sm209 Sm 0.02982 0.534 0.67814 0.0
C210 C 0.97637 0.47927 0.10467 0.0
C211 C 0.94801 0.50258 0.14116 0.0
C212 C 0.94869 0.53604 0.08792 0.0
C213 C 0.91949 0.55671 0.08581 0.0
C214 C 0.88893 0.54487 0.14209 0.0
C215 C 0.8884 0.51207 0.20295 0.0
C216 C 0.9177 0.49076 0.20088 0.0
C217 C 0.03099 0.45144 0.69518 0.0
C218 C 0.94986 0.51894 0.69424 0.0
C219 C 0.05761 0.56459 0.47218 0.0
C220 C 0.0879 0.58686 0.45918 0.0
C221 C 0.10748 0.58516 0.34438 0.0
C222 C 0.14137 0.59741 0.34517 0.0
C223 C 0.15577 0.61128 0.4609 0.0
C224 C 0.13444 0.61794 0.56864 0.0
C225 C 0.10077 0.60489 0.56903 0.0
C226 C 1.01498 0.57834 0.88591 0.0
C227 C 0.09442 0.51001 0.88123 0.0
O228 O 1.00733 0.49253 0.11502 0.0
O229 O 0.97169 0.46409 0.99156 0.0
O230 O 1.01212 0.47799 0.68187 0.0
O231 O 0.04006 0.44732 0.81743 0.0
O232 O 0.95934 0.51671 0.81855 0.0
O233 O 0.97441 0.52087 0.60577 0.0
O234 O 0.06434 0.53261 0.50457 0.0
O235 O 0.03164 0.57747 0.53677 0.0
O236 O 0.03335 0.55138 0.892 0.0
O237 O 1.00114 0.58054 0.76993 0.0
O238 O 0.08552 0.52216 0.76357 0.0
O239 O 0.07014 0.49872 0.96115 0.0
H240 H 0.97104 0.54506 0.03607 0.0
H241 H 0.92042 0.58132 0.03523 0.0
H242 H 0.86462 0.50225 0.24459 0.0
H243 H 0.91608 0.46467 0.23873 0.0
H244 H 0.09777 0.57157 0.25857 0.0
H245 H 0.15727 0.59292 0.25967 0.0
H246 H 0.14517 0.62887 0.65808 0.0
H247 H 0.08616 0.60597 0.65921 0.0
C248 C 0.14243 0.05154 0.45727 0.0
C249 C 0.15548 0.01998 0.40703 0.0
C250 C 0.11418 0.98795 0.54564 0.0
C251 C 0.09931 0.0196 0.58873 0.0
N252 N 0.09549 0.08141 0.5666 0.0
N253 N 0.14911 0.95854 0.38267 0.0
C254 C 0.11243 0.05136 0.53906 0.0
C255 C 0.13982 0.98831 0.4446 0.0
N256 N 0.15918 0.08178 0.42921 0.0
N257 N 0.10551 0.95765 0.60638 0.0
H258 H 0.16697 0.95808 0.30627 0.0
H259 H 0.13675 0.93499 0.39779 0.0
H260 H 0.08831 0.95619 0.68455 0.0
H261 H 0.118 0.93434 0.58878 0.0
H262 H 0.15358 0.10511 0.47498 0.0
H263 H 0.18049 0.08316 0.3669 0.0
H264 H 0.10135 0.10495 0.52233 0.0
H265 H 0.07337 0.08235 0.62486 0.0
C266 C 0.49203 0.11671 0.34008 0.0
C267 C 0.50439 0.1496 0.3816 0.0
C268 C 0.52205 0.12386 0.59282 0.0
C269 C 0.50572 0.09214 0.55919 0.0
N270 N 0.4717 0.05958 0.40398 0.0
N271 N 0.52269 0.18577 0.56118 0.0
C272 C 0.48994 0.0888 0.43304 0.0
C273 C 0.51705 0.15353 0.51183 0.0
N274 N 0.48215 0.11214 0.21198 0.0
N275 N 0.54342 0.12544 0.70013 0.0
H276 H 0.5167 0.20798 0.50777 0.0
H277 H 0.52914 0.19033 0.65936 0.0
H278 H 0.5497 0.10362 0.75542 0.0
H279 H 0.55815 0.14717 0.72353 0.0
H280 H 0.47583 0.0882 0.17207 0.0
H281 H 0.48263 0.13207 0.14276 0.0
H282 H 0.45622 0.05698 0.32045 0.0
H283 H 0.47006 0.03884 0.46901 0.0
C284 C 0.39633 0.53043 0.41226 0.0
C285 C 0.38505 0.49847 0.35853 0.0
C286 C 0.43112 0.4688 0.48521 0.0
C287 C 0.43968 0.50012 0.55073 0.0
N288 N 0.42652 0.56012 0.58968 0.0
N289 N 0.38994 0.43656 0.35104 0.0
C290 C 0.42135 0.53087 0.51721 0.0
C291 C 0.40208 0.46749 0.39676 0.0
N292 N 0.38351 0.5605 0.36138 0.0
N293 N 0.45143 0.44038 0.50502 0.0
H294 H 0.36968 0.43462 0.28305 0.0
H295 H 0.39831 0.41276 0.3866 0.0
H296 H 0.4728 0.4404 0.56838 0.0
H297 H 0.44911 0.41777 0.45058 0.0
H298 H 0.39145 0.5849 0.39162 0.0
H299 H 0.36735 0.56106 0.27884 0.0
H300 H 0.41149 0.58225 0.58016 0.0
H301 H 0.44393 0.56145 0.66807 0.0
C302 C 1.00359 0.38114 0.44903 0.0
C303 C 0.03601 0.36828 0.40664 0.0
C304 C 0.06528 0.41218 0.54465 0.0
C305 C 0.03282 0.42261 0.59634 0.0
N306 N 0.97232 0.40939 0.62393 0.0
N307 N 0.09821 0.3689 0.42577 0.0
C308 C 1.00228 0.40501 0.55563 0.0
C309 C 0.06703 0.38306 0.45801 0.0
N310 N 0.97394 0.37144 0.38516 0.0
N311 N 0.09438 0.43065 0.57574 0.0
H312 H 0.10052 0.34839 0.36011 0.0
H313 H 0.1215 0.37583 0.47065 0.0
H314 H 0.09414 0.45161 0.63999 0.0
H315 H 0.11821 0.42691 0.53077 0.0
H316 H 0.94993 0.38249 0.40435 0.0
H317 H 0.97404 0.35522 0.30343 0.0
H318 H 0.9502 0.39453 0.60717 0.0
H319 H 0.97058 0.42556 0.70552 0.0
C320 C 0.88864 0.96646 0.19328 0.0
C321 C 0.87128 0.99713 0.23158 0.0
C322 C 0.90723 0.03046 0.07758 0.0
C323 C 0.92629 1.00027 0.04523 0.0
N324 N 0.93878 0.94048 0.08922 0.0
N325 N 0.87025 0.05918 0.23555 0.0
C326 C 0.918 0.96852 0.10817 0.0
C327 C 0.88258 0.02942 0.18173 0.0
N328 N 0.87663 0.93519 0.23606 0.0
N329 N 0.91114 0.05964 1.00374 0.0
H330 H 0.8547 0.05916 0.31899 0.0
H331 H 0.87849 0.08369 0.20751 0.0
H332 H 0.92713 0.06047 0.92195 0.0
H333 H 0.89579 0.08151 0.01403 0.0
H334 H 0.88545 0.91167 0.20027 0.0
H335 H 0.85615 0.93274 0.30186 0.0
H336 H 0.93655 0.91761 0.1425 0.0
H337 H 0.96028 0.94105 0.02766 0.0
C338 C 0.55428 0.88709 0.21132 0.0
C339 C 0.52328 0.86875 0.24032 0.0
C340 C 0.49135 0.90618 0.0847 0.0
C341 C 0.52212 0.92545 0.05952 0.0
N342 N 0.58123 0.9383 0.1173 0.0
N343 N 0.46117 0.86586 0.22816 0.0
C344 C 0.55309 0.91704 0.12856 0.0
C345 C 0.49144 0.87991 0.18428 0.0
N346 N 0.58515 0.87535 0.26035 0.0
N347 N 0.46242 0.91179 0.00956 0.0
H348 H 0.46034 0.8484 0.3063 0.0
H349 H 0.43677 0.874 0.19735 0.0
H350 H 0.46113 0.93044 0.93573 0.0
H351 H 0.4405 0.89614 0.01255 0.0
H352 H 0.60911 0.88491 0.23123 0.0
H353 H 0.58701 0.85437 0.3245 0.0
H354 H 0.60346 0.936 0.17507 0.0
H355 H 0.58121 0.96031 0.05786 0.0
C356 C 0.65381 0.48201 0.16373 0.0
C357 C 0.65685 0.50767 0.26258 0.0
C358 C 0.60495 0.53666 0.17087 0.0
C359 C 0.60423 0.51304 0.06392 0.0
N360 N 0.63114 0.46596 0.94931 0.0
N361 N 0.63663 0.56064 0.35792 0.0
C362 C 0.62946 0.48636 0.05838 0.0
C363 C 0.63266 0.53528 0.26575 0.0
N364 N 0.6737 0.45294 0.17203 0.0
N365 N 0.57881 0.56013 0.18259 0.0
H366 H 0.65581 0.55983 0.43064 0.0
H367 H 0.6224 0.58341 0.35824 0.0
H368 H 0.55891 0.56236 0.11326 0.0
H369 H 0.57541 0.57574 0.26465 0.0
H370 H 0.66994 0.4314 0.11251 0.0
H371 H 0.69203 0.44905 0.24643 0.0
H372 H 0.6511 0.44859 0.93183 0.0
H373 H 0.61395 0.46846 0.87058 0.0
C374 C 1.01534 0.67171 0.02368 0.0
C375 C 1.00816 0.66534 0.15845 0.0
C376 C 1.01322 0.60287 0.11971 0.0
C377 C 1.01683 0.60848 0.98195 0.0
N378 N 0.03022 0.64891 0.80831 0.0
N379 N 0.99344 0.62497 0.32938 0.0
C380 C 0.02007 0.64322 0.93516 0.0
C381 C 1.00509 0.63095 0.20466 0.0
N382 N 1.01659 0.70514 0.97998 0.0
N383 N 0.01949 0.57102 0.17152 0.0
H384 H 0.98862 0.64469 0.39648 0.0
H385 H 0.98526 0.6008 0.36185 0.0
H386 H 0.03125 0.55151 0.11853 0.0
H387 H 1.01613 0.56466 0.26974 0.0
H388 H 0.01837 0.71246 0.88184 0.0
H389 H 1.01423 0.72626 0.04277 0.0
H390 H 0.03521 0.67304 0.76775 0.0
H391 H 0.03685 0.62911 0.74461 0.0
C392 C 0.91104 0.2328 0.35654 0.0
C393 C 0.94386 0.24269 0.40552 0.0
C394 C 0.94671 0.19311 0.54729 0.0
C395 C 0.91692 0.17953 0.48231 0.0
N396 N 0.86469 0.19 0.35895 0.0
N397 N 0.98014 0.24448 0.59689 0.0
C398 C 0.89647 0.20108 0.40035 0.0
C399 C 0.9562 0.22759 0.52201 0.0
N400 N 0.89661 0.25175 0.2574 0.0
N401 N 0.96851 0.17225 0.61745 0.0
H402 H 0.9878 0.26965 0.57455 0.0
H403 H 0.98922 0.23484 0.68653 0.0
H404 H 0.96432 0.14593 0.62984 0.0
H405 H 0.99242 0.18061 0.65344 0.0
H406 H 0.87427 0.24464 0.20643 0.0
H407 H 0.90815 0.27474 0.22596 0.0
H408 H 0.84789 0.20492 0.30225 0.0
H409 H 0.85439 0.16645 0.39028 0.0
C410 C 0.29252 0.93293 0.52408 0.0
C411 C 0.28384 0.92524 0.39174 0.0
C412 C 0.32422 0.87705 0.39494 0.0
C413 C 0.34041 0.89199 0.506 0.0
N414 N 0.33354 0.92504 0.7044 0.0
N415 N 0.28231 0.88204 0.22152 0.0
C416 C 0.32174 0.91626 0.58212 0.0
C417 C 0.29571 0.894 0.33663 0.0
N418 N 0.27365 0.95679 0.59099 0.0
N419 N 0.33853 0.84887 0.33712 0.0
H420 H 0.26154 0.89396 0.1734 0.0
H421 H 0.26154 0.89396 0.1734 0.0
H422 H 0.36007 0.83655 0.37836 0.0
H423 H 0.32825 0.83787 0.25166 0.0
H424 H 0.27737 0.96285 0.68951 0.0
H425 H 0.25191 0.96863 0.5505 0.0
H426 H 0.3234 0.94471 0.76132 0.0
H427 H 0.35316 0.91154 0.75218 0.0
C428 C 0.58565 0.29319 0.49938 0.0
C429 C 0.59731 0.27897 0.38108 0.0
C430 C 0.64241 0.32314 0.37093 0.0
C431 C 0.62225 0.34321 0.458 0.0
N432 N 0.57303 0.34712 0.60453 0.0
N433 N 0.64324 0.27264 0.22766 0.0
C434 C 0.59413 0.32786 0.52654 0.0
C435 C 0.62898 0.29072 0.32845 0.0
N436 N 0.56383 0.27472 0.57701 0.0
N437 N 0.67287 0.33607 0.32455 0.0
H438 H 0.63256 0.24911 0.19758 0.0
H439 H 0.66466 0.28082 0.17438 0.0
H440 H 0.68242 0.36 0.35511 0.0
H441 H 0.68948 0.3224 0.26375 0.0
H442 H 0.55542 0.28338 0.66841 0.0
H443 H 0.55773 0.24921 0.55451 0.0
H444 H 0.54991 0.33765 0.64285 0.0
H445 H 0.57703 0.37324 0.62266 0.0
C446 C 0.24352 0.57283 0.50537 0.0
C447 C 0.2562 0.58536 0.38557 0.0
C448 C 0.2137 0.63157 0.38998 0.0
C449 C 0.19382 0.61061 0.47544 0.0
N450 N 0.19095 0.56082 0.62151 0.0
N451 N 0.26237 0.63292 0.23825 0.0
C452 C 0.20952 0.58195 0.54053 0.0
C453 C 0.24505 0.6179 0.33982 0.0
N454 N 0.26245 0.54965 0.57626 0.0
N455 N 0.2011 0.66282 0.35084 0.0
H456 H 0.28515 0.622 0.20237 0.0
H457 H 0.25427 0.65524 0.1901 0.0
H458 H 0.17777 0.67233 0.38723 0.0
H459 H 0.21458 0.67993 0.29084 0.0
H460 H 0.25505 0.54088 0.66903 0.0
H461 H 0.28723 0.54239 0.54707 0.0
H462 H 0.20034 0.53727 0.65616 0.0
H463 H 0.16553 0.56554 0.64861 0.0
C464 C 0.10713 0.79065 0.1421 0.0
C465 C 0.10737 0.78472 0.28015 0.0
C466 C 0.14606 0.83368 0.31168 0.0
C467 C 0.13598 0.84528 0.18541 0.0
N468 N 0.1263 0.828 0.96292 0.0
N469 N 0.14188 0.78783 0.47586 0.0
C470 C 0.12337 0.82108 0.09379 0.0
C471 C 0.13339 0.80121 0.35597 0.0
N472 N 0.08999 0.76867 0.05989 0.0
N473 N 0.1643 0.85536 0.39163 0.0
H474 H 0.13072 0.76477 0.50843 0.0
H475 H 0.16103 0.79811 0.53684 0.0
H476 H 0.17342 0.87908 0.35681 0.0
H477 H 0.16995 0.85009 0.4899 0.0
H478 H 0.08556 0.77363 0.96061 0.0
H479 H 0.08147 0.74453 0.0904 0.0
H480 H 0.12003 0.81045 0.88916 0.0
H481 H 0.13832 0.85053 0.9298 0.0
C482 C 0.72742 0.11785 0.31537 0.0
C483 C 0.74117 0.08976 0.24367 0.0
C484 C 0.71208 0.11168 0.04801 0.0
C485 C 0.68814 0.12756 0.13175 0.0
N486 N 0.67916 0.15797 0.33275 0.0
N487 N 0.75318 0.06493 0.03064 0.0
C488 C 0.69883 0.13598 0.26051 0.0
C489 C 0.73687 0.08912 0.10491 0.0
N490 N 0.7396 0.12425 0.4391 0.0
N491 N 0.70835 0.11565 0.91578 0.0
H492 H 0.77169 0.04823 0.06937 0.0
H493 H 0.74766 0.06107 0.93131 0.0
H494 H 0.68846 0.13089 0.87681 0.0
H495 H 0.72668 0.10697 0.84894 0.0
H496 H 0.73131 0.14471 0.49699 0.0
H497 H 0.76002 0.10988 0.47891 0.0
H498 H 0.68332 0.16299 0.43213 0.0
H499 H 0.65827 0.17106 0.29031 0.0
C500 C 0.43783 0.72401 0.12558 0.0
C501 C 0.43596 0.73056 0.26236 0.0
C502 C 0.39077 0.68684 0.2848 0.0
C503 C 0.39975 0.67489 0.15852 0.0
N504 N 0.41122 0.69469 0.93997 0.0
N505 N 0.40066 0.72987 0.45566 0.0
C506 C 0.41611 0.69804 0.07183 0.0
C507 C 0.40798 0.71656 0.33502 0.0
N508 N 0.46212 0.73999 0.0501 0.0
N509 N 0.36905 0.66731 0.35961 0.0
H510 H 0.41419 0.7512 0.49233 0.0
H511 H 0.38016 0.72152 0.5137 0.0
H512 H 0.35688 0.64546 0.32052 0.0
H513 H 0.36358 0.67234 0.45781 0.0
H514 H 0.46697 0.73293 0.95319 0.0
H515 H 0.47803 0.75959 0.08589 0.0
H516 H 0.41944 0.71338 0.87325 0.0
H517 H 0.39505 0.67565 0.90103 0.0
C518 C 0.81611 0.60632 0.21614 0.0
C519 C 0.79056 0.58068 0.20248 0.0
C520 C 0.8279 0.54792 0.06115 0.0
C521 C 0.85632 0.5645 0.12467 0.0
N522 N 0.87797 0.6153 0.23948 0.0
N523 N 0.76529 0.5476 0.02864 0.0
C524 C 0.85091 0.59677 0.18903 0.0
C525 C 0.79407 0.55883 0.09353 0.0
N526 N 0.80743 0.6367 0.27365 0.0
N527 N 0.83338 0.52092 0.97801 0.0
H528 H 0.74076 0.55639 0.05488 0.0
H529 H 0.76611 0.53247 0.94418 0.0
H530 H 0.85823 0.51365 0.9495 0.0
H531 H 0.81351 0.50585 0.93876 0.0
H532 H 0.82454 0.65734 0.28425 0.0
H533 H 0.78187 0.64137 0.30153 0.0
H534 H 0.87479 0.63706 0.29792 0.0
H535 H 0.90371 0.60818 0.22813 0.0
C536 C 0.9873 0.17901 0.96895 0.0
C537 C 1.01424 0.19056 0.05426 0.0
C538 C 0.04499 0.13572 0.01154 0.0
C539 C 1.01551 0.12207 0.94403 0.0
N540 N 0.95603 0.13054 0.87679 0.0
N541 N 0.06721 0.17723 0.17002 0.0
C542 C 0.98609 0.14381 0.92662 0.0
C543 C 0.04287 0.1683 0.07819 0.0
N544 N 0.96264 0.20195 0.92803 0.0
N545 N 0.07551 0.11802 0.00919 0.0
H546 H 0.06684 0.20067 0.22006 0.0
H547 H 0.08624 0.1603 0.20368 0.0
H548 H 0.07846 0.09491 0.95817 0.0
H549 H 0.0987 0.12804 0.04563 0.0
H550 H 0.9437 0.19611 0.85816 0.0
H551 H 0.96331 0.22797 0.95432 0.0
H552 H 0.93247 0.14354 0.87991 0.0
H553 H 0.95408 0.10584 0.8382 0.0
C554 C 0.34055 1.00906 0.94311 0.0
C555 C 0.33686 1.00796 0.08231 0.0
C556 C 0.40039 1.00892 0.1049 0.0
C557 C 0.40444 1.01104 0.96545 0.0
N558 N 0.37646 0.01829 0.75293 0.0
N559 N 0.36336 0.0193 0.2926 0.0
C560 C 0.37399 1.01283 0.88531 0.0
C561 C 0.36691 1.01223 0.16171 0.0
N562 N 0.31258 1.00677 0.86169 0.0
N563 N 0.42797 1.00075 0.1838 0.0
H564 H 0.3392 0.02231 0.33648 0.0
H565 H 0.38407 0.02607 0.35351 0.0
H566 H 0.4517 0.99246 0.14767 0.0
H567 H 0.42611 0.99781 0.2853 0.0
H568 H 0.28719 1.00373 0.89408 0.0
H569 H 0.28719 1.00373 0.89408 0.0
H570 H 0.35476 0.01902 0.69119 0.0
H571 H 0.3997 0.02396 0.70616 0.0
C572 C 0.55037 0.34183 0.9526 0.0
C573 C 0.52327 0.32875 0.03284 0.0
C574 C 0.49037 0.3821 0.9857 0.0
C575 C 0.5199 0.39744 0.92531 0.0
N576 N 0.58073 0.39244 0.87428 0.0
N577 N 0.46872 0.33923 0.13948 0.0
C578 C 0.55055 0.37731 0.91363 0.0
C579 C 0.49341 0.34951 0.05209 0.0
N580 N 0.57637 0.32021 0.91494 0.0
N581 N 0.45905 0.39828 0.97725 0.0
H582 H 0.46981 0.31578 0.18968 0.0
H583 H 0.44861 0.35517 0.16964 0.0
H584 H 0.45551 0.42136 0.92594 0.0
H585 H 0.43603 0.38699 0.00872 0.0
H586 H 0.59581 0.32736 0.84977 0.0
H587 H 0.57644 0.29399 0.9388 0.0
H588 H 0.60465 0.38015 0.87953 0.0
H589 H 0.58252 0.4182 0.84659 0.0
C590 C 0.18672 0.54374 0.95988 0.0
C591 C 0.20158 0.51578 0.03189 0.0
C592 C 0.14858 0.48177 0.98184 0.0
C593 C 0.13194 0.51146 0.92777 0.0
N594 N 0.1341 0.57308 0.8927 0.0
N595 N 0.19345 0.45928 0.12713 0.0
C596 C 0.15083 0.54305 0.92334 0.0
C597 C 0.18173 0.48494 0.04617 0.0
N598 N 0.20708 0.57125 0.92651 0.0
N599 N 0.13312 0.45021 0.96921 0.0
H600 H 0.2172 0.46047 0.17604 0.0
H601 H 0.17838 0.4381 0.15396 0.0
H602 H 0.10946 0.44677 0.92099 0.0
H603 H 0.14533 0.42718 0.99475 0.0
H604 H 0.19863 0.59145 0.86671 0.0
H605 H 0.23356 0.57203 0.94751 0.0
H606 H 0.1456 0.59731 0.90163 0.0
H607 H 0.10771 0.57428 0.87146 0.0
C608 C 0.03372 0.84361 0.6775 0.0
C609 C 1.01596 0.83613 0.55824 0.0
C610 C 0.98713 0.8926 0.57596 0.0
C611 C 1.01041 0.90289 0.6785 0.0
N612 N 0.06052 0.88768 0.81158 0.0
N613 N 0.97813 0.85624 0.38482 0.0
C614 C 0.03466 0.87813 0.72677 0.0
C615 C 0.9931 0.8613 0.50529 0.0
N616 N 0.04996 0.81761 0.744 0.0
N617 N 0.95849 0.91202 0.54871 0.0
H618 H 0.98152 0.83374 0.33044 0.0
H619 H 0.96455 0.87551 0.3349 0.0
H620 H 0.95164 0.93348 0.60439 0.0
H621 H 0.93936 0.90434 0.48209 0.0
H622 H 0.05961 0.82078 0.83911 0.0
H623 H 0.04992 0.79216 0.71038 0.0
H624 H 0.08071 0.87126 0.83778 0.0
H625 H 0.0644 0.91278 0.84448 0.0
C626 C 0.6661 0.9797 0.52214 0.0
C627 C 0.68909 1.00702 0.55579 0.0
C628 C 0.64387 0.0318 0.69824 0.0
C629 C 0.62097 1.00399 0.66769 0.0
N630 N 0.61515 0.94632 0.58023 0.0
N631 N 0.7007 0.05618 0.69612 0.0
C632 C 0.63354 0.97641 0.58822 0.0
C633 C 0.67848 0.03148 0.65147 0.0
N634 N 0.67452 0.95775 0.42248 0.0
N635 N 0.6327 0.05978 0.7676 0.0
H636 H 0.72675 0.05768 0.66979 0.0
H637 H 0.72675 0.05768 0.66979 0.0
H638 H 0.60698 0.06398 0.79245 0.0
H639 H 0.64905 0.08027 0.79248 0.0
H640 H 0.65707 0.9402 0.38161 0.0
H641 H 0.69829 0.95874 0.37454 0.0
H642 H 0.62436 0.92429 0.53367 0.0
H643 H 0.59246 0.94199 0.63284 0.0
C644 C 0.54943 0.66575 0.55307 0.0
C645 C 0.52108 0.68749 0.58397 0.0
C646 C 0.49708 0.64121 0.72499 0.0
C647 C 0.52537 0.6192 0.69407 0.0
N648 N 0.58366 0.61537 0.61116 0.0
N649 N 0.4708 0.69692 0.71962 0.0
C650 C 0.55312 0.63299 0.6178 0.0
C651 C 0.49654 0.67579 0.67788 0.0
N652 N 0.57189 0.67549 0.45659 0.0
N653 N 0.46943 0.62921 0.7949 0.0
H654 H 0.46856 0.72285 0.69266 0.0
H655 H 0.46856 0.72285 0.69266 0.0
H656 H 0.46643 0.60375 0.8251 0.0
H657 H 0.44823 0.64468 0.81716 0.0
H658 H 0.59032 0.65898 0.41701 0.0
H659 H 0.57063 0.69951 0.41035 0.0
H660 H 0.60583 0.62537 0.56737 0.0
H661 H 0.58805 0.59243 0.66241 0.0
C662 C 0.85308 0.54538 0.67468 0.0
C663 C 0.83916 0.52004 0.58799 0.0
C664 C 0.89707 0.49289 0.57763 0.0
C665 C 0.9117 0.51958 0.65663 0.0
N666 N 0.90392 0.57356 0.7692 0.0
N667 N 0.84874 0.4673 0.46629 0.0
C668 C 0.88959 0.54619 0.70387 0.0
C669 C 0.86115 0.4931 0.54414 0.0
N670 N 0.83094 0.56872 0.72921 0.0
N671 N 0.91756 0.4671 0.531 0.0
H672 H 0.82291 0.46509 0.43678 0.0
H673 H 0.82291 0.46509 0.43678 0.0
H674 H 0.9442 0.46651 0.54622 0.0
H675 H 0.90785 0.44663 0.47516 0.0
H676 H 0.83803 0.58651 0.80099 0.0
H677 H 0.80433 0.56807 0.71081 0.0
H678 H 0.89034 0.5955 0.79658 0.0
H679 H 0.93039 0.5756 0.78824 0.0
loop_
_geom_bond_atom_site_label_1
_geom_bond_atom_site_label_2
_geom_bond_distance
_geom_bond_site_symmetry_2
_ccdc_geom_bond_type
H0 C3 0.929 . S
H1 C6 0.929 . S
H2 C8 0.930 . S
C3 H0 0.929 . S
C3 C4 1.398 . S
C3 C5 1.396 . S
C4 C3 1.398 . S
C4 C8 1.407 . S
C5 C3 1.396 . S
C5 C6 1.394 . S
C6 H1 0.929 . S
C6 C5 1.394 . S
C6 C7 1.382 . S
C7 C6 1.382 . S
C7 C8 1.392 . S
C7 N9 1.420 . S
C8 H2 0.930 . S
C8 C4 1.407 . S
C8 C7 1.392 . S
N9 C7 1.420 . S
N9 C10 1.244 . S
C10 N9 1.244 . S
H11 C14 0.929 . S
H12 C17 0.929 . S
H13 C19 0.930 . S
C14 H11 0.929 . S
C14 C15 1.395 1_655 S
C14 C16 1.394 1_655 S
C15 C14 1.395 1_455 S
C15 C19 1.414 . S
C16 C14 1.394 1_455 S
C16 C17 1.397 . S
C17 H12 0.929 . S
C17 C16 1.397 . S
C17 C18 1.382 . S
C18 C17 1.382 . S
C18 C19 1.392 . S
C18 N20 1.420 . S
C19 H13 0.930 . S
C19 C15 1.414 . S
C19 C18 1.392 . S
N20 C18 1.420 . S
N20 C21 1.232 1_455 S
C21 N20 1.232 1_655 S
H22 C25 0.929 . S
H23 C28 0.929 . S
H24 C30 0.930 . S
C25 H22 0.929 . S
C25 C26 1.395 1_565 S
C25 C27 1.395 1_565 S
C26 C25 1.395 1_545 S
C26 C30 1.414 . S
C27 C25 1.395 1_545 S
C27 C28 1.397 . S
C28 H23 0.929 . S
C28 C27 1.397 . S
C28 C29 1.382 . S
C29 C28 1.382 . S
C29 C30 1.392 . S
C29 N31 1.420 . S
C30 H24 0.930 . S
C30 C26 1.414 . S
C30 C29 1.392 . S
N31 C29 1.420 . S
N31 C32 1.231 1_545 S
C32 N31 1.231 1_565 S
H33 C36 0.929 . S
H34 C39 0.929 . S
H35 C41 0.930 . S
C36 H33 0.929 . S
C36 C37 1.398 . S
C36 C38 1.396 . S
C37 C36 1.398 . S
C37 C41 1.407 . S
C38 C36 1.396 . S
C38 C39 1.394 . S
C39 H34 0.929 . S
C39 C38 1.394 . S
C39 C40 1.382 . S
C40 C39 1.382 . S
C40 C41 1.392 . S
C40 N42 1.420 . S
C41 H35 0.930 . S
C41 C37 1.407 . S
C41 C40 1.392 . S
N42 C40 1.420 . S
N42 C43 1.244 . S
C43 N42 1.244 . S
H44 C47 0.929 1_556 S
H45 C50 0.929 . S
H46 C52 0.930 . S
C47 H44 0.929 1_554 S
C47 C48 1.398 1_554 S
C47 C49 1.396 . S
C48 C47 1.398 1_556 S
C48 C52 1.407 . S
C49 C47 1.396 . S
C49 C50 1.394 . S
C50 H45 0.929 . S
C50 C49 1.394 . S
C50 C51 1.382 . S
C51 C50 1.382 . S
C51 C52 1.392 1_554 S
C51 N53 1.420 . S
C52 H46 0.930 . S
C52 C48 1.407 . S
C52 C51 1.392 1_556 S
N53 C51 1.420 . S
N53 C54 1.244 . S
C54 N53 1.244 . S
H55 C58 0.929 . S
H56 C61 0.929 . S
H57 C63 0.930 . S
C58 H55 0.929 . S
C58 C59 1.398 1_654 S
C58 C60 1.394 1_655 S
C59 C58 1.398 1_456 S
C59 C63 1.407 . S
C60 C58 1.394 1_455 S
C60 C61 1.398 . S
C61 H56 0.929 . S
C61 C60 1.398 . S
C61 C62 1.382 . S
C62 C61 1.382 . S
C62 C63 1.392 1_554 S
C62 N64 1.420 . S
C63 H57 0.930 . S
C63 C59 1.407 . S
C63 C62 1.392 1_556 S
N64 C62 1.420 . S
N64 C65 1.235 1_455 S
C65 N64 1.235 1_655 S
H66 C69 0.929 1_556 S
H67 C72 0.929 . S
H68 C74 0.930 . S
C69 H66 0.929 1_554 S
C69 C70 1.398 1_564 S
C69 C71 1.393 1_565 S
C70 C69 1.398 1_546 S
C70 C74 1.407 . S
C71 C69 1.393 1_545 S
C71 C72 1.398 . S
C72 H67 0.929 . S
C72 C71 1.398 . S
C72 C73 1.382 . S
C73 C72 1.382 . S
C73 C74 1.392 1_554 S
C73 N75 1.420 . S
C74 H68 0.930 . S
C74 C70 1.407 . S
C74 C73 1.392 1_556 S
N75 C73 1.420 . S
N75 C76 1.235 1_545 S
C76 N75 1.235 1_565 S
H77 C80 0.930 . S
H78 C83 0.929 . S
H79 C85 0.930 . S
C80 H77 0.930 . S
C80 C81 1.402 . S
C80 C82 1.392 1_556 S
C81 C80 1.402 . S
C81 C85 1.407 . S
C82 C80 1.392 1_554 S
C82 C83 1.394 . S
C83 H78 0.929 . S
C83 C82 1.394 . S
C83 C84 1.382 . S
C84 C83 1.382 . S
C84 C85 1.392 1_554 S
C84 N86 1.420 . S
C85 H79 0.930 . S
C85 C81 1.407 . S
C85 C84 1.392 1_556 S
N86 C84 1.420 . S
N86 C87 1.244 . S
C87 N86 1.244 . S
Sm88 C90 2.846 1_556 S
Sm88 O108 2.543 1_556 S
Sm88 O109 2.450 1_556 S
Sm88 O110 2.681 1_565 S
Sm88 O111 2.464 . S
Sm88 O112 2.396 . S
Sm88 O116 2.386 1_455 S
Sm88 O119 2.408 1_565 S
Sm89 C99 2.846 . S
Sm89 O110 2.386 1_655 S
Sm89 O113 2.408 1_545 S
Sm89 O114 2.543 . S
Sm89 O115 2.450 . S
Sm89 O116 2.681 1_545 S
Sm89 O117 2.464 . S
Sm89 O118 2.396 . S
C90 Sm88 2.846 1_554 S
C90 C91 1.506 . S
C90 O108 1.261 . S
C90 O109 1.242 . S
C91 C90 1.506 . S
C91 C92 1.358 . S
C91 C96 1.382 . S
C92 C91 1.358 . S
C92 C93 1.385 . S
C92 H120 0.930 1_455 S
C93 C92 1.385 . S
C93 C94 1.395 . S
C93 H121 0.929 . S
C94 C93 1.395 . S
C94 C95 1.335 . S
C95 C94 1.335 . S
C95 C96 1.398 . S
C95 H122 0.930 . S
C96 C91 1.382 . S
C96 C95 1.398 . S
C96 H123 0.929 . S
C97 O110 1.271 1_565 S
C97 O111 1.251 . S
C98 O112 1.252 1_655 S
C98 O113 1.272 . S
C99 Sm89 2.846 . S
C99 C100 1.506 . S
C99 O114 1.261 . S
C99 O115 1.242 . S
C100 C99 1.506 . S
C100 C101 1.358 . S
C100 C105 1.382 . S
C101 C100 1.358 . S
C101 C102 1.385 . S
C101 H124 0.930 1_655 S
C102 C101 1.385 . S
C102 C103 1.395 . S
C102 H125 0.956 . S
C103 C102 1.395 . S
C103 C104 1.335 . S
C104 C103 1.335 . S
C104 C105 1.398 . S
C104 H126 0.930 . S
C105 C100 1.382 . S
C105 C104 1.398 . S
C105 H127 0.929 . S
C106 O116 1.271 1_545 S
C106 O117 1.251 . S
C107 O118 1.252 1_455 S
C107 O119 1.272 . S
O108 Sm88 2.543 1_554 S
O108 C90 1.261 . S
O109 Sm88 2.450 1_554 S
O109 C90 1.242 . S
O110 Sm88 2.681 1_545 S
O110 Sm89 2.386 1_455 S
O110 C97 1.271 1_545 S
O111 Sm88 2.464 . S
O111 C97 1.251 . S
O112 Sm88 2.396 . S
O112 C98 1.252 1_455 S
O113 Sm89 2.408 1_565 S
O113 C98 1.272 . S
O114 Sm89 2.543 . S
O114 C99 1.261 . S
O115 Sm89 2.450 . S
O115 C99 1.242 . S
O116 Sm88 2.386 1_655 S
O116 Sm89 2.681 1_565 S
O116 C106 1.271 1_565 S
O117 Sm89 2.464 . S
O117 C106 1.251 . S
O118 Sm89 2.396 . S
O118 C107 1.252 1_655 S
O119 Sm88 2.408 1_545 S
O119 C107 1.272 . S
H120 C92 0.930 1_655 S
H121 C93 0.929 . S
H122 C95 0.930 . S
H123 C96 0.929 . S
H124 C101 0.930 1_455 S
H125 C102 0.956 . S
H126 C104 0.930 . S
H127 C105 0.929 . S
Sm128 C130 2.846 1_556 S
Sm128 O148 2.543 1_556 S
Sm128 O149 2.450 1_556 S
Sm128 O150 2.681 . S
Sm128 O151 2.464 . S
Sm128 O152 2.396 . S
Sm128 O156 2.386 1_545 S
Sm128 O159 2.408 . S
Sm129 C139 2.846 . S
Sm129 O150 2.386 1_565 S
Sm129 O153 2.408 . S
Sm129 O154 2.543 . S
Sm129 O155 2.450 . S
Sm129 O156 2.681 . S
Sm129 O157 2.464 . S
Sm129 O158 2.396 . S
C130 Sm128 2.846 1_554 S
C130 C131 1.506 . S
C130 O148 1.261 . S
C130 O149 1.242 . S
C131 C130 1.506 . S
C131 C132 1.358 . S
C131 C136 1.382 . S
C132 C131 1.358 . S
C132 C133 1.385 . S
C132 H160 0.930 1_545 S
C133 C132 1.385 . S
C133 C134 1.395 . S
C133 H161 0.908 1_545 S
C134 C133 1.395 . S
C134 C135 1.335 . S
C135 C134 1.335 . S
C135 C136 1.398 . S
C135 H162 0.930 . S
C136 C131 1.382 . S
C136 C135 1.398 . S
C136 H163 0.929 . S
C137 O150 1.271 . S
C137 O151 1.251 . S
C138 O152 1.252 1_565 S
C138 O153 1.272 . S
C139 Sm129 2.846 . S
C139 C140 1.506 . S
C139 O154 1.261 . S
C139 O155 1.242 . S
C140 C139 1.506 . S
C140 C141 1.358 . S
C140 C145 1.382 . S
C141 C140 1.358 . S
C141 C142 1.385 . S
C141 H164 0.930 1_565 S
C142 C141 1.385 . S
C142 C143 1.395 . S
C142 H165 0.901 1_565 S
C143 C142 1.395 . S
C143 C144 1.335 . S
C144 C143 1.335 . S
C144 C145 1.398 . S
C144 H166 0.930 . S
C145 C140 1.382 . S
C145 C144 1.398 . S
C145 H167 0.929 . S
C146 O156 1.271 . S
C146 O157 1.251 . S
C147 O158 1.252 1_545 S
C147 O159 1.272 . S
O148 Sm128 2.543 1_554 S
O148 C130 1.261 . S
O149 Sm128 2.450 1_554 S
O149 C130 1.242 . S
O150 Sm128 2.681 . S
O150 Sm129 2.386 1_545 S
O150 C137 1.271 . S
O151 Sm128 2.464 . S
O151 C137 1.251 . S
O152 Sm128 2.396 . S
O152 C138 1.252 1_545 S
O153 Sm129 2.408 . S
O153 C138 1.272 . S
O154 Sm129 2.543 . S
O154 C139 1.261 . S
O155 Sm129 2.450 . S
O155 C139 1.242 . S
O156 Sm128 2.386 1_565 S
O156 Sm129 2.681 . S
O156 C146 1.271 . S
O157 Sm129 2.464 . S
O157 C146 1.251 . S
O158 Sm129 2.396 . S
O158 C147 1.252 1_565 S
O159 Sm128 2.408 . S
O159 C147 1.272 . S
H160 C132 0.930 1_565 S
H161 C133 0.908 1_565 S
H162 C135 0.930 . S
H163 C136 0.929 . S
H164 C141 0.930 1_545 S
H165 C142 0.901 1_545 S
H166 C144 0.930 . S
H167 C145 0.929 . S
Sm168 C170 2.846 1_556 S
Sm168 O188 2.543 1_556 S
Sm168 O189 2.450 1_556 S
Sm168 O190 2.681 . S
Sm168 O191 2.464 . S
Sm168 O192 2.396 . S
Sm168 O196 2.386 . S
Sm168 O199 2.408 . S
Sm169 C179 2.846 . S
Sm169 O190 2.386 . S
Sm169 O193 2.408 . S
Sm169 O194 2.543 . S
Sm169 O195 2.450 . S
Sm169 O196 2.681 . S
Sm169 O197 2.464 . S
Sm169 O198 2.396 . S
C170 Sm168 2.846 1_554 S
C170 C171 1.506 . S
C170 O188 1.261 . S
C170 O189 1.242 . S
C171 C170 1.506 . S
C171 C172 1.358 . S
C171 C176 1.382 . S
C172 C171 1.358 . S
C172 C173 1.385 . S
C172 H200 0.930 . S
C173 C172 1.385 . S
C173 C174 1.395 . S
C173 H201 0.929 . S
C174 C173 1.395 . S
C174 C175 1.335 . S
C175 C174 1.335 . S
C175 C176 1.398 . S
C175 H202 0.930 . S
C176 C171 1.382 . S
C176 C175 1.398 . S
C176 H203 0.929 . S
C177 O190 1.271 . S
C177 O191 1.251 . S
C178 O192 1.252 . S
C178 O193 1.272 . S
C179 Sm169 2.846 . S
C179 C180 1.506 . S
C179 O194 1.261 . S
C179 O195 1.242 . S
C180 C179 1.506 . S
C180 C181 1.358 . S
C180 C185 1.382 . S
C181 C180 1.358 . S
C181 C182 1.385 . S
C181 H204 0.930 . S
C182 C181 1.385 . S
C182 C183 1.395 . S
C182 H205 0.929 . S
C183 C182 1.395 . S
C183 C184 1.335 . S
C184 C183 1.335 . S
C184 C185 1.398 . S
C184 H206 0.930 . S
C185 C180 1.382 . S
C185 C184 1.398 . S
C185 H207 0.929 . S
C186 O196 1.271 . S
C186 O197 1.251 . S
C187 O198 1.252 . S
C187 O199 1.272 . S
O188 Sm168 2.543 1_554 S
O188 C170 1.261 . S
O189 Sm168 2.450 1_554 S
O189 C170 1.242 . S
O190 Sm168 2.681 . S
O190 Sm169 2.386 . S
O190 C177 1.271 . S
O191 Sm168 2.464 . S
O191 C177 1.251 . S
O192 Sm168 2.396 . S
O192 C178 1.252 . S
O193 Sm169 2.408 . S
O193 C178 1.272 . S
O194 Sm169 2.543 . S
O194 C179 1.261 . S
O195 Sm169 2.450 . S
O195 C179 1.242 . S
O196 Sm168 2.386 . S
O196 Sm169 2.681 . S
O196 C186 1.271 . S
O197 Sm169 2.464 . S
O197 C186 1.251 . S
O198 Sm169 2.396 . S
O198 C187 1.252 . S
O199 Sm168 2.408 . S
O199 C187 1.272 . S
H200 C172 0.930 . S
H201 C173 0.929 . S
H202 C175 0.930 . S
H203 C176 0.929 . S
H204 C181 0.930 . S
H205 C182 0.929 . S
H206 C184 0.930 . S
H207 C185 0.929 . S
Sm208 C210 2.846 1_556 S
Sm208 O228 2.543 1_556 S
Sm208 O229 2.450 1_556 S
Sm208 O230 2.681 1_655 S
Sm208 O231 2.464 . S
Sm208 O232 2.396 . S
Sm208 O236 2.386 . S
Sm208 O239 2.408 1_655 S
Sm209 C219 2.846 . S
Sm209 O230 2.386 . S
Sm209 O233 2.408 1_455 S
Sm209 O234 2.543 . S
Sm209 O235 2.450 . S
Sm209 O236 2.681 1_455 S
Sm209 O237 2.464 . S
Sm209 O238 2.396 . S
C210 Sm208 2.846 1_554 S
C210 C211 1.506 . S
C210 O228 1.261 . S
C210 O229 1.242 . S
C211 C210 1.506 . S
C211 C212 1.358 . S
C211 C216 1.382 . S
C212 C211 1.358 . S
C212 C213 1.385 . S
C212 H240 0.930 . S
C213 C212 1.385 . S
C213 C214 1.395 . S
C213 H241 0.929 . S
C214 C213 1.395 . S
C214 C215 1.335 . S
C215 C214 1.335 . S
C215 C216 1.398 . S
C215 H242 0.930 . S
C216 C211 1.382 . S
C216 C215 1.398 . S
C216 H243 0.929 . S
C217 O230 1.266 1_655 S
C217 O231 1.261 . S
C218 O232 1.252 . S
C218 O233 1.272 . S
C219 Sm209 2.846 . S
C219 C220 1.506 . S
C219 O234 1.261 . S
C219 O235 1.242 . S
C220 C219 1.506 . S
C220 C221 1.358 . S
C220 C225 1.382 . S
C221 C220 1.358 . S
C221 C222 1.385 . S
C221 H244 0.930 . S
C222 C221 1.385 . S
C222 C223 1.395 . S
C222 H245 0.929 . S
C223 C222 1.395 . S
C223 C224 1.335 . S
C224 C223 1.335 . S
C224 C225 1.398 . S
C224 H246 0.930 . S
C225 C220 1.382 . S
C225 C224 1.398 . S
C225 H247 0.929 . S
C226 O236 1.263 1_455 S
C226 O237 1.264 . S
C227 O238 1.252 . S
C227 O239 1.272 . S
O228 Sm208 2.543 1_554 S
O228 C210 1.261 . S
O229 Sm208 2.450 1_554 S
O229 C210 1.242 . S
O230 Sm208 2.681 1_455 S
O230 Sm209 2.386 . S
O230 C217 1.266 1_455 S
O231 Sm208 2.464 . S
O231 C217 1.261 . S
O232 Sm208 2.396 . S
O232 C218 1.252 . S
O233 Sm209 2.408 1_655 S
O233 C218 1.272 . S
O234 Sm209 2.543 . S
O234 C219 1.261 . S
O235 Sm209 2.450 . S
O235 C219 1.242 . S
O236 Sm208 2.386 . S
O236 Sm209 2.681 1_655 S
O236 C226 1.263 1_655 S
O237 Sm209 2.464 . S
O237 C226 1.264 . S
O238 Sm209 2.396 . S
O238 C227 1.252 . S
O239 Sm208 2.408 1_455 S
O239 C227 1.272 . S
H240 C212 0.930 . S
H241 C213 0.929 . S
H242 C215 0.930 . S
H243 C216 0.929 . S
H244 C221 0.930 . S
H245 C222 0.929 . S
H246 C224 0.930 . S
H247 C225 0.929 . S
C248 C249 1.368 . S
C248 C254 1.379 . S
C248 N256 1.356 . S
C249 C248 1.368 . S
C249 C255 1.358 1_545 S
C250 C251 1.349 1_565 S
C250 C255 1.379 . S
C250 N257 1.356 . S
C251 C250 1.349 1_545 S
C251 C254 1.377 . S
N252 C254 1.356 . S
N252 H264 0.984 . S
N252 H265 0.985 . S
N253 C255 1.356 . S
N253 H258 0.984 . S
N253 H259 0.985 . S
C254 C248 1.379 . S
C254 C251 1.377 . S
C254 N252 1.356 . S
C255 C249 1.358 1_565 S
C255 C250 1.379 . S
C255 N253 1.356 . S
N256 C248 1.356 . S
N256 H262 0.984 . S
N256 H263 0.984 . S
N257 C250 1.356 . S
N257 H260 0.984 . S
N257 H261 0.985 . S
H258 N253 0.984 . S
H259 N253 0.985 . S
H260 N257 0.984 . S
H261 N257 0.985 . S
H262 N256 0.984 . S
H263 N256 0.984 . S
H264 N252 0.984 . S
H265 N252 0.985 . S
C266 C267 1.363 . S
C266 C272 1.379 . S
C266 N274 1.356 . S
C267 C266 1.363 . S
C267 C273 1.363 . S
C268 C269 1.363 . S
C268 C273 1.379 . S
C268 N275 1.356 . S
C269 C268 1.363 . S
C269 C272 1.363 . S
N270 C272 1.356 . S
N270 H282 0.984 . S
N270 H283 0.985 . S
N271 C273 1.356 . S
N271 H276 0.984 . S
N271 H277 0.985 . S
C272 C266 1.379 . S
C272 C269 1.363 . S
C272 N270 1.356 . S
C273 C267 1.363 . S
C273 C268 1.379 . S
C273 N271 1.356 . S
N274 C266 1.356 . S
N274 H280 0.984 . S
N274 H281 0.984 . S
N275 C268 1.356 . S
N275 H278 0.984 . S
N275 H279 0.985 . S
H276 N271 0.984 . S
H277 N271 0.985 . S
H278 N275 0.984 . S
H279 N275 0.985 . S
H280 N274 0.984 . S
H281 N274 0.984 . S
H282 N270 0.984 . S
H283 N270 0.985 . S
C284 C285 1.363 . S
C284 C290 1.379 . S
C284 N292 1.356 . S
C285 C284 1.363 . S
C285 C291 1.363 . S
C286 C287 1.363 . S
C286 C291 1.379 . S
C286 N293 1.356 . S
C287 C286 1.363 . S
C287 C290 1.363 . S
N288 C290 1.356 . S
N288 H300 0.984 . S
N288 H301 0.985 . S
N289 C291 1.356 . S
N289 H294 0.984 . S
N289 H295 0.985 . S
C290 C284 1.379 . S
C290 C287 1.363 . S
C290 N288 1.356 . S
C291 C285 1.363 . S
C291 C286 1.379 . S
C291 N289 1.356 . S
N292 C284 1.356 . S
N292 H298 0.984 . S
N292 H299 0.984 . S
N293 C286 1.356 . S
N293 H296 0.984 . S
N293 H297 0.985 . S
H294 N289 0.984 . S
H295 N289 0.985 . S
H296 N293 0.984 . S
H297 N293 0.985 . S
H298 N292 0.984 . S
H299 N292 0.984 . S
H300 N288 0.984 . S
H301 N288 0.985 . S
C302 C303 1.348 1_655 S
C302 C308 1.379 . S
C302 N310 1.356 . S
C303 C302 1.348 1_455 S
C303 C309 1.379 . S
C304 C305 1.363 . S
C304 C309 1.379 . S
C304 N311 1.356 . S
C305 C304 1.363 . S
C305 C308 1.363 1_455 S
N306 C308 1.356 . S
N306 H318 0.984 . S
N306 H319 0.985 . S
N307 C309 1.356 . S
N307 H312 0.984 . S
N307 H313 0.985 . S
C308 C302 1.379 . S
C308 C305 1.363 1_655 S
C308 N306 1.356 . S
C309 C303 1.379 . S
C309 C304 1.379 . S
C309 N307 1.356 . S
N310 C302 1.356 . S
N310 H316 0.984 . S
N310 H317 0.984 . S
N311 C304 1.356 . S
N311 H314 0.984 . S
N311 H315 0.985 . S
H312 N307 0.984 . S
H313 N307 0.985 . S
H314 N311 0.984 . S
H315 N311 0.985 . S
H316 N310 0.984 . S
H317 N310 0.984 . S
H318 N306 0.984 . S
H319 N306 0.985 . S
C320 C321 1.362 . S
C320 C326 1.379 . S
C320 N328 1.356 . S
C321 C320 1.362 . S
C321 C327 1.364 1_565 S
C322 C323 1.354 1_545 S
C322 C327 1.379 . S
C322 N329 1.356 . S
C323 C322 1.354 1_565 S
C323 C326 1.372 . S
N324 C326 1.356 . S
N324 H336 0.984 . S
N324 H337 0.985 . S
N325 C327 1.356 . S
N325 H330 0.984 . S
N325 H331 0.985 . S
C326 C320 1.379 . S
C326 C323 1.372 . S
C326 N324 1.356 . S
C327 C321 1.364 1_545 S
C327 C322 1.379 . S
C327 N325 1.356 . S
N328 C320 1.356 . S
N328 H334 0.984 . S
N328 H335 0.984 . S
N329 C322 1.356 . S
N329 H332 0.984 1_554 S
N329 H333 0.985 . S
H330 N325 0.984 . S
H331 N325 0.985 . S
H332 N329 0.984 1_556 S
H333 N329 0.985 . S
H334 N328 0.984 . S
H335 N328 0.984 . S
H336 N324 0.984 . S
H337 N324 0.985 . S
C338 C339 1.363 . S
C338 C344 1.379 . S
C338 N346 1.356 . S
C339 C338 1.363 . S
C339 C345 1.363 . S
C340 C341 1.363 . S
C340 C345 1.379 . S
C340 N347 1.356 . S
C341 C340 1.363 . S
C341 C344 1.363 . S
N342 C344 1.356 . S
N342 H354 0.984 . S
N342 H355 0.985 1_554 S
N343 C345 1.356 . S
N343 H348 0.984 . S
N343 H349 0.985 . S
C344 C338 1.379 . S
C344 C341 1.363 . S
C344 N342 1.356 . S
C345 C339 1.363 . S
C345 C340 1.379 . S
C345 N343 1.356 . S
N346 C338 1.356 . S
N346 H352 0.984 . S
N346 H353 0.984 . S
N347 C340 1.356 . S
N347 H350 0.984 . S
N347 H351 0.985 . S
H348 N343 0.984 . S
H349 N343 0.985 . S
H350 N347 0.984 . S
H351 N347 0.985 . S
H352 N346 0.984 . S
H353 N346 0.984 . S
H354 N342 0.984 . S
H355 N342 0.985 1_556 S
C356 C357 1.363 . S
C356 C362 1.379 . S
C356 N364 1.356 . S
C357 C356 1.363 . S
C357 C363 1.363 . S
C358 C359 1.363 . S
C358 C363 1.379 . S
C358 N365 1.356 . S
C359 C358 1.363 . S
C359 C362 1.363 . S
N360 C362 1.356 1_556 S
N360 H372 0.984 . S
N360 H373 0.985 . S
N361 C363 1.356 . S
N361 H366 0.984 . S
N361 H367 0.985 . S
C362 C356 1.379 . S
C362 C359 1.363 . S
C362 N360 1.356 1_554 S
C363 C357 1.363 . S
C363 C358 1.379 . S
C363 N361 1.356 . S
N364 C356 1.356 . S
N364 H370 0.984 . S
N364 H371 0.984 . S
N365 C358 1.356 . S
N365 H368 0.984 . S
N365 H369 0.985 . S
H366 N361 0.984 . S
H367 N361 0.985 . S
H368 N365 0.984 . S
H369 N365 0.985 . S
H370 N364 0.984 . S
H371 N364 0.984 . S
H372 N360 0.984 . S
H373 N360 0.985 . S
C374 C375 1.373 . S
C374 C380 1.379 . S
C374 N382 1.356 . S
C375 C374 1.373 . S
C375 C381 1.353 1_655 S
C376 C377 1.363 1_455 S
C376 C381 1.379 . S
C376 N383 1.356 . S
C377 C376 1.363 1_655 S
C377 C380 1.363 . S
N378 C380 1.356 1_556 S
N378 H390 0.984 . S
N378 H391 0.985 . S
N379 C381 1.356 . S
N379 H384 0.984 . S
N379 H385 0.985 . S
C380 C374 1.379 . S
C380 C377 1.363 . S
C380 N378 1.356 1_554 S
C381 C375 1.353 1_455 S
C381 C376 1.379 . S
C381 N379 1.356 . S
N382 C374 1.356 . S
N382 H388 0.984 . S
N382 H389 0.984 . S
N383 C376 1.356 . S
N383 H386 0.984 . S
N383 H387 0.985 . S
H384 N379 0.984 . S
H385 N379 0.985 . S
H386 N383 0.984 . S
H387 N383 0.985 . S
H388 N382 0.984 . S
H389 N382 0.984 . S
H390 N378 0.984 . S
H391 N378 0.985 . S
C392 C393 1.363 . S
C392 C398 1.379 . S
C392 N400 1.356 1_554 S
C393 C392 1.363 . S
C393 C399 1.363 . S
C394 C395 1.363 . S
C394 C399 1.379 . S
C394 N401 1.356 . S
C395 C394 1.363 . S
C395 C398 1.363 . S
N396 C398 1.356 . S
N396 H408 0.984 . S
N396 H409 0.985 . S
N397 C399 1.356 1_455 S
N397 H402 0.984 . S
N397 H403 0.985 . S
C398 C392 1.379 . S
C398 C395 1.363 . S
C398 N396 1.356 . S
C399 C393 1.363 . S
C399 C394 1.379 . S
C399 N397 1.356 1_655 S
N400 C392 1.356 1_556 S
N400 H406 0.984 . S
N400 H407 0.984 1_655 S
N401 C394 1.356 . S
N401 H404 0.984 . S
N401 H405 0.985 . S
H402 N397 0.984 . S
H403 N397 0.985 . S
H404 N401 0.984 . S
H405 N401 0.985 . S
H406 N400 0.984 . S
H407 N400 0.984 1_455 S
H408 N396 0.984 . S
H409 N396 0.985 . S
C410 C411 1.363 1_545 S
C410 C416 1.379 1_545 S
C410 N418 1.356 . S
C411 C410 1.363 1_565 S
C411 C417 1.363 . S
C412 C413 1.363 . S
C412 C417 1.379 . S
C412 N419 1.356 . S
C413 C412 1.363 . S
C413 C416 1.363 . S
N414 C416 1.356 . S
N414 H426 0.984 1_565 S
N414 H427 0.985 . S
N415 C417 1.356 . S
N415 H420 0.984 . S
N415 H421 0.985 . S
C416 C410 1.379 1_565 S
C416 C413 1.363 . S
C416 N414 1.356 . S
C417 C411 1.363 . S
C417 C412 1.379 . S
C417 N415 1.356 . S
N418 C410 1.356 . S
N418 H424 0.984 . S
N418 H425 0.984 . S
N419 C412 1.356 . S
N419 H422 0.984 . S
N419 H423 0.985 . S
H420 N415 0.984 . S
H421 N415 0.985 . S
H422 N419 0.984 . S
H423 N419 0.985 . S
H424 N418 0.984 . S
H425 N418 0.984 . S
H426 N414 0.984 1_545 S
H427 N414 0.985 . S
C428 C429 1.363 . S
C428 C434 1.379 . S
C428 N436 1.356 . S
C429 C428 1.363 . S
C429 C435 1.363 . S
C430 C431 1.363 . S
C430 C435 1.379 . S
C430 N437 1.356 . S
C431 C430 1.363 . S
C431 C434 1.363 . S
N432 C434 1.356 . S
N432 H444 0.984 . S
N432 H445 0.985 . S
N433 C435 1.351 1_556 S
N433 H438 0.985 . S
N433 H439 0.990 . S
C434 C428 1.379 . S
C434 C431 1.363 . S
C434 N432 1.356 . S
C435 C429 1.363 . S
C435 C430 1.379 . S
C435 N433 1.351 1_554 S
N436 C428 1.356 . S
N436 H442 0.984 . S
N436 H443 0.984 . S
N437 C430 1.356 . S
N437 H440 0.984 . S
N437 H441 0.985 . S
H438 N433 0.985 . S
H439 N433 0.990 . S
H440 N437 0.984 . S
H441 N437 0.985 . S
H442 N436 0.984 . S
H443 N436 0.984 . S
H444 N432 0.984 . S
H445 N432 0.985 . S
C446 C447 1.363 . S
C446 C452 1.379 . S
C446 N454 1.356 . S
C447 C446 1.363 . S
C447 C453 1.363 . S
C448 C449 1.363 . S
C448 C453 1.379 . S
C448 N455 1.356 . S
C449 C448 1.363 . S
C449 C452 1.363 . S
N450 C452 1.356 . S
N450 H462 0.984 . S
N450 H463 0.985 . S
N451 C453 1.356 . S
N451 H456 0.984 . S
N451 H457 0.985 1_554 S
C452 C446 1.379 . S
C452 C449 1.363 . S
C452 N450 1.356 . S
C453 C447 1.363 . S
C453 C448 1.379 . S
C453 N451 1.356 . S
N454 C446 1.356 . S
N454 H460 0.984 . S
N454 H461 0.984 . S
N455 C448 1.356 . S
N455 H458 0.984 . S
N455 H459 0.985 . S
H456 N451 0.984 . S
H457 N451 0.985 1_556 S
H458 N455 0.984 . S
H459 N455 0.985 . S
H460 N454 0.984 . S
H461 N454 0.984 . S
H462 N450 0.984 . S
H463 N450 0.985 . S
C464 C465 1.363 . S
C464 C470 1.379 . S
C464 N472 1.356 . S
C465 C464 1.363 . S
C465 C471 1.363 . S
C466 C467 1.363 . S
C466 C471 1.379 . S
C466 N473 1.356 . S
C467 C466 1.363 . S
C467 C470 1.363 . S
N468 C470 1.356 . S
N468 H480 0.984 . S
N468 H481 0.985 . S
N469 C471 1.356 1_655 S
N469 H474 0.984 . S
N469 H475 0.985 . S
C470 C464 1.379 . S
C470 C467 1.363 . S
C470 N468 1.356 . S
C471 C465 1.363 . S
C471 C466 1.379 . S
C471 N469 1.356 1_455 S
N472 C464 1.356 . S
N472 H478 0.984 . S
N472 H479 0.984 1_455 S
N473 C466 1.356 . S
N473 H476 0.984 . S
N473 H477 0.985 . S
H474 N469 0.984 . S
H475 N469 0.985 . S
H476 N473 0.984 . S
H477 N473 0.985 . S
H478 N472 0.984 . S
H479 N472 0.984 1_655 S
H480 N468 0.984 . S
H481 N468 0.985 . S
C482 C483 1.363 . S
C482 C488 1.379 . S
C482 N490 1.356 . S
C483 C482 1.363 . S
C483 C489 1.363 . S
C484 C485 1.363 . S
C484 C489 1.379 . S
C484 N491 1.356 . S
C485 C484 1.363 . S
C485 C488 1.363 . S
N486 C488 1.356 . S
N486 H498 0.984 . S
N486 H499 0.985 . S
N487 C489 1.356 1_565 S
N487 H492 0.984 . S
N487 H493 0.985 . S
C488 C482 1.379 . S
C488 C485 1.363 . S
C488 N486 1.356 . S
C489 C483 1.363 . S
C489 C484 1.379 . S
C489 N487 1.356 1_545 S
N490 C482 1.356 . S
N490 H496 0.984 . S
N490 H497 0.984 1_545 S
N491 C484 1.356 . S
N491 H494 0.984 . S
N491 H495 0.985 . S
H492 N487 0.984 . S
H493 N487 0.985 . S
H494 N491 0.984 . S
H495 N491 0.985 . S
H496 N490 0.984 . S
H497 N490 0.984 1_565 S
H498 N486 0.984 . S
H499 N486 0.985 . S
C500 C501 1.363 . S
C500 C506 1.379 . S
C500 N508 1.356 . S
C501 C500 1.363 . S
C501 C507 1.363 . S
C502 C503 1.363 . S
C502 C507 1.379 . S
C502 N509 1.356 . S
C503 C502 1.363 . S
C503 C506 1.363 . S
N504 C506 1.356 . S
N504 H516 0.984 . S
N504 H517 0.985 . S
N505 C507 1.356 . S
N505 H510 0.984 . S
N505 H511 0.985 . S
C506 C500 1.379 . S
C506 C503 1.363 . S
C506 N504 1.356 . S
C507 C501 1.363 . S
C507 C502 1.379 . S
C507 N505 1.356 . S
N508 C500 1.356 . S
N508 H514 0.984 . S
N508 H515 0.984 . S
N509 C502 1.356 . S
N509 H512 0.984 . S
N509 H513 0.985 . S
H510 N505 0.984 . S
H511 N505 0.985 . S
H512 N509 0.984 . S
H513 N509 0.985 . S
H514 N508 0.984 . S
H515 N508 0.984 . S
H516 N504 0.984 . S
H517 N504 0.985 . S
C518 C519 1.363 . S
C518 C524 1.379 . S
C518 N526 1.356 . S
C519 C518 1.363 . S
C519 C525 1.363 . S
C520 C521 1.363 . S
C520 C525 1.379 . S
C520 N527 1.356 . S
C521 C520 1.363 . S
C521 C524 1.363 . S
N522 C524 1.356 . S
N522 H534 0.984 . S
N522 H535 0.985 . S
N523 C525 1.356 . S
N523 H528 0.984 . S
N523 H529 0.985 . S
C524 C518 1.379 . S
C524 C521 1.363 . S
C524 N522 1.356 . S
C525 C519 1.363 . S
C525 C520 1.379 . S
C525 N523 1.356 . S
N526 C518 1.356 . S
N526 H532 0.984 . S
N526 H533 0.984 . S
N527 C520 1.356 . S
N527 H530 0.984 . S
N527 H531 0.985 . S
H528 N523 0.984 . S
H529 N523 0.985 . S
H530 N527 0.984 . S
H531 N527 0.985 . S
H532 N526 0.984 . S
H533 N526 0.984 . S
H534 N522 0.984 . S
H535 N522 0.985 . S
C536 C537 1.363 1_655 S
C536 C542 1.379 . S
C536 N544 1.356 . S
C537 C536 1.363 1_455 S
C537 C543 1.363 . S
C538 C539 1.363 . S
C538 C543 1.379 . S
C538 N545 1.356 . S
C539 C538 1.363 . S
C539 C542 1.363 1_455 S
N540 C542 1.356 . S
N540 H552 0.984 . S
N540 H553 0.985 . S
N541 C543 1.356 . S
N541 H546 0.984 . S
N541 H547 0.985 1_556 S
C542 C536 1.379 . S
C542 C539 1.363 1_655 S
C542 N540 1.356 . S
C543 C537 1.363 . S
C543 C538 1.379 . S
C543 N541 1.356 . S
N544 C536 1.356 . S
N544 H550 0.984 . S
N544 H551 0.984 . S
N545 C538 1.356 . S
N545 H548 0.984 . S
N545 H549 0.985 1_556 S
H546 N541 0.984 . S
H547 N541 0.985 1_554 S
H548 N545 0.984 . S
H549 N545 0.985 1_554 S
H550 N544 0.984 . S
H551 N544 0.984 . S
H552 N540 0.984 . S
H553 N540 0.985 . S
C554 C555 1.363 . S
C554 C560 1.379 . S
C554 N562 1.356 1_545 S
C555 C554 1.363 . S
C555 C561 1.363 . S
C556 C557 1.363 . S
C556 C561 1.379 . S
C556 N563 1.356 1_556 S
C557 C556 1.363 . S
C557 C560 1.363 . S
N558 C560 1.356 . S
N558 H570 0.984 . S
N558 H571 0.985 . S
N559 C561 1.356 1_554 S
N559 H564 0.984 . S
N559 H565 0.985 . S
C560 C554 1.379 . S
C560 C557 1.363 . S
C560 N558 1.356 . S
C561 C555 1.363 . S
C561 C556 1.379 . S
C561 N559 1.356 1_556 S
N562 C554 1.356 1_565 S
N562 H568 0.984 . S
N562 H569 0.984 . S
N563 C556 1.356 1_554 S
N563 H566 0.984 . S
N563 H567 0.985 . S
H564 N559 0.984 . S
H565 N559 0.985 . S
H566 N563 0.984 . S
H567 N563 0.985 . S
H568 N562 0.984 . S
H569 N562 0.984 . S
H570 N558 0.984 . S
H571 N558 0.985 . S
C572 C573 1.363 . S
C572 C578 1.379 . S
C572 N580 1.356 . S
C573 C572 1.363 . S
C573 C579 1.363 . S
C574 C575 1.363 . S
C574 C579 1.379 . S
C574 N581 1.356 . S
C575 C574 1.363 . S
C575 C578 1.363 . S
N576 C578 1.356 . S
N576 H588 0.984 . S
N576 H589 0.985 . S
N577 C579 1.356 . S
N577 H582 0.984 . S
N577 H583 0.985 . S
C578 C572 1.379 . S
C578 C575 1.363 . S
C578 N576 1.356 . S
C579 C573 1.363 . S
C579 C574 1.379 . S
C579 N577 1.356 . S
N580 C572 1.356 . S
N580 H586 0.984 . S
N580 H587 0.984 . S
N581 C574 1.356 . S
N581 H584 0.984 . S
N581 H585 0.985 . S
H582 N577 0.984 . S
H583 N577 0.985 . S
H584 N581 0.984 . S
H585 N581 0.985 . S
H586 N580 0.984 . S
H587 N580 0.984 . S
H588 N576 0.984 . S
H589 N576 0.985 . S
C590 C591 1.363 . S
C590 C596 1.379 . S
C590 N598 1.356 . S
C591 C590 1.363 . S
C591 C597 1.363 . S
C592 C593 1.363 . S
C592 C597 1.379 . S
C592 N599 1.356 1_556 S
C593 C592 1.363 . S
C593 C596 1.363 . S
N594 C596 1.356 . S
N594 H606 0.984 . S
N594 H607 0.985 . S
N595 C597 1.356 1_554 S
N595 H600 0.984 1_554 S
N595 H601 0.985 . S
C596 C590 1.379 . S
C596 C593 1.363 . S
C596 N594 1.356 . S
C597 C591 1.363 . S
C597 C592 1.379 . S
C597 N595 1.356 1_556 S
N598 C590 1.356 . S
N598 H604 0.984 . S
N598 H605 0.984 . S
N599 C592 1.356 1_554 S
N599 H602 0.984 . S
N599 H603 0.985 . S
H600 N595 0.984 1_556 S
H601 N595 0.985 . S
H602 N599 0.984 . S
H603 N599 0.985 . S
H604 N598 0.984 . S
H605 N598 0.984 . S
H606 N594 0.984 . S
H607 N594 0.985 . S
C608 C609 1.363 1_455 S
C608 C614 1.379 . S
C608 N616 1.356 . S
C609 C608 1.363 1_655 S
C609 C615 1.363 . S
C610 C611 1.363 . S
C610 C615 1.379 . S
C610 N617 1.356 . S
C611 C610 1.363 . S
C611 C614 1.363 1_655 S
N612 C614 1.356 . S
N612 H624 0.984 . S
N612 H625 0.985 . S
N613 C615 1.356 . S
N613 H618 0.984 . S
N613 H619 0.985 . S
C614 C608 1.379 . S
C614 C611 1.363 1_455 S
C614 N612 1.356 . S
C615 C609 1.363 . S
C615 C610 1.379 . S
C615 N613 1.356 . S
N616 C608 1.356 . S
N616 H622 0.984 . S
N616 H623 0.984 . S
N617 C610 1.356 . S
N617 H620 0.984 . S
N617 H621 0.985 . S
H618 N613 0.984 . S
H619 N613 0.985 . S
H620 N617 0.984 . S
H621 N617 0.985 . S
H622 N616 0.984 . S
H623 N616 0.984 . S
H624 N612 0.984 . S
H625 N612 0.985 . S
C626 C627 1.363 . S
C626 C632 1.379 . S
C626 N634 1.356 . S
C627 C626 1.363 . S
C627 C633 1.363 1_565 S
C628 C629 1.363 1_545 S
C628 C633 1.379 . S
C628 N635 1.356 . S
C629 C628 1.363 1_565 S
C629 C632 1.363 . S
N630 C632 1.356 . S
N630 H642 0.984 . S
N630 H643 0.985 . S
N631 C633 1.356 . S
N631 H636 0.984 . S
N631 H637 0.985 . S
C632 C626 1.379 . S
C632 C629 1.363 . S
C632 N630 1.356 . S
C633 C627 1.363 1_545 S
C633 C628 1.379 . S
C633 N631 1.356 . S
N634 C626 1.356 . S
N634 H640 0.984 . S
N634 H641 0.984 . S
N635 C628 1.356 . S
N635 H638 0.984 . S
N635 H639 0.985 . S
H636 N631 0.984 . S
H637 N631 0.985 . S
H638 N635 0.984 . S
H639 N635 0.985 . S
H640 N634 0.984 . S
H641 N634 0.984 . S
H642 N630 0.984 . S
H643 N630 0.985 . S
C644 C645 1.363 . S
C644 C650 1.379 . S
C644 N652 1.356 . S
C645 C644 1.363 . S
C645 C651 1.363 . S
C646 C647 1.363 . S
C646 C651 1.379 . S
C646 N653 1.356 . S
C647 C646 1.363 . S
C647 C650 1.363 . S
N648 C650 1.356 . S
N648 H660 0.984 . S
N648 H661 0.985 . S
N649 C651 1.356 . S
N649 H654 0.984 . S
N649 H655 0.985 . S
C650 C644 1.379 . S
C650 C647 1.363 . S
C650 N648 1.356 . S
C651 C645 1.363 . S
C651 C646 1.379 . S
C651 N649 1.356 . S
N652 C644 1.356 . S
N652 H658 0.984 1_556 S
N652 H659 0.984 . S
N653 C646 1.356 . S
N653 H656 0.984 . S
N653 H657 0.985 . S
H654 N649 0.984 . S
H655 N649 0.985 . S
H656 N653 0.984 . S
H657 N653 0.985 . S
H658 N652 0.984 1_554 S
H659 N652 0.984 . S
H660 N648 0.984 . S
H661 N648 0.985 . S
C662 C663 1.363 . S
C662 C668 1.379 . S
C662 N670 1.356 . S
C663 C662 1.363 . S
C663 C669 1.363 . S
C664 C665 1.363 . S
C664 C669 1.379 . S
C664 N671 1.356 . S
C665 C664 1.363 . S
C665 C668 1.363 . S
N666 C668 1.356 . S
N666 H678 0.984 1_556 S
N666 H679 0.985 . S
N667 C669 1.356 . S
N667 H672 0.984 . S
N667 H673 0.985 . S
C668 C662 1.379 . S
C668 C665 1.363 . S
C668 N666 1.356 . S
C669 C663 1.363 . S
C669 C664 1.379 . S
C669 N667 1.356 . S
N670 C662 1.356 . S
N670 H676 0.984 1_556 S
N670 H677 0.984 . S
N671 C664 1.356 . S
N671 H674 0.984 . S
N671 H675 0.985 . S
H672 N667 0.984 . S
H673 N667 0.985 . S
H674 N671 0.984 . S
H675 N671 0.985 . S
H676 N670 0.984 1_554 S
H677 N670 0.984 . S
H678 N666 0.984 1_554 S
H679 N666 0.985 . S
C249 C76 1.939 1_545 S
C251 C97 2.192 1_545 S
C269 C137 2.211 . S
C267 C87 1.958 . S
C287 C177 2.222 . S
C285 C54 1.974 . S
C305 C217 2.204 1_455 S
C303 C65 1.953 1_455 S
C323 C106 2.194 1_564 S
C321 C32 1.942 . S
C339 C43 1.957 . S
C341 C146 2.213 1_554 S
C357 C10 1.970 . S
C359 C186 2.221 1_554 S
C375 C21 1.953 . S
C377 C226 2.204 1_654 S
C395 C103 0.833 . S
C393 C60 0.838 1_655 S
C413 C143 0.831 . S
C411 C71 0.837 1_565 S
C431 C183 0.822 . S
C429 C82 0.829 . S
C447 C49 0.831 . S
C449 C223 0.818 . S
C465 C16 0.840 . S
C467 C94 0.836 . S
C485 C134 0.831 . S
C483 C27 0.836 . S
C503 C174 0.822 . S
C501 C38 0.825 . S
C519 C5 0.827 . S
C521 C214 0.825 . S
C537 C59 2.244 . S
C539 C107 2.572 . S
C555 C70 2.204 . S
C557 C147 2.536 . S
C575 C187 2.523 . S
C573 C81 2.191 . S
C593 C227 2.563 . S
C591 C48 2.226 . S
C609 C15 2.248 1_655 S
C611 C98 2.581 . S
C629 C138 2.536 . S
C627 C26 2.208 1_565 S
C647 C178 2.523 . S
C645 C37 2.203 . S
C663 C4 2.242 . S
C665 C218 2.567 . S
