# Generated by pormake.
# Topology pyr, (3,6)-cn, num edge types: 1
# Building blocks:
#     Node 0, Type 0, BuildingBlock: CUQRIR_clean_linker_1, # of connection points: 3
#     Node 1, Type 0, BuildingBlock: CUQRIR_clean_linker_1, # of connection points: 3
#     Node 2, Type 0, BuildingBlock: CUQRIR_clean_linker_1, # of connection points: 3
#     Node 3, Type 0, BuildingBlock: CUQRIR_clean_linker_1, # of connection points: 3
#     Node 4, Type 0, BuildingBlock: CUQRIR_clean_linker_1, # of connection points: 3
#     Node 5, Type 0, BuildingBlock: CUQRIR_clean_linker_1, # of connection points: 3
#     Node 6, Type 0, BuildingBlock: CUQRIR_clean_linker_1, # of connection points: 3
#     Node 7, Type 0, BuildingBlock: CUQRIR_clean_linker_1, # of connection points: 3
#     Node 8, Type 1, BuildingBlock: INOVEN_clean_sbu_0, # of connection points: 6
#     Node 9, Type 1, BuildingBlock: INOVEN_clean_sbu_0, # of connection points: 6
#     Node 10, Type 1, BuildingBlock: INOVEN_clean_sbu_0, # of connection points: 6
#     Node 11, Type 1, BuildingBlock: INOVEN_clean_sbu_0, # of connection points: 6
#     Edge 12, Type (0, 1), BuildingBlock: CIFDUS_clean_linker_0, # of connection points: 2
#     Edge 13, Type (0, 1), BuildingBlock: CIFDUS_clean_linker_0, # of connection points: 2
#     Edge 14, Type (0, 1), BuildingBlock: CIFDUS_clean_linker_0, # of connection points: 2
#     Edge 15, Type (0, 1), BuildingBlock: CIFDUS_clean_linker_0, # of connection points: 2
#     Edge 16, Type (0, 1), BuildingBlock: CIFDUS_clean_linker_0, # of connection points: 2
#     Edge 17, Type (0, 1), BuildingBlock: CIFDUS_clean_linker_0, # of connection points: 2
#     Edge 18, Type (0, 1), BuildingBlock: CIFDUS_clean_linker_0, # of connection points: 2
#     Edge 19, Type (0, 1), BuildingBlock: CIFDUS_clean_linker_0, # of connection points: 2
#     Edge 20, Type (0, 1), BuildingBlock: CIFDUS_clean_linker_0, # of connection points: 2
#     Edge 21, Type (0, 1), BuildingBlock: CIFDUS_clean_linker_0, # of connection points: 2
#     Edge 22, Type (0, 1), BuildingBlock: CIFDUS_clean_linker_0, # of connection points: 2
#     Edge 23, Type (0, 1), BuildingBlock: CIFDUS_clean_linker_0, # of connection points: 2
#     Edge 24, Type (0, 1), BuildingBlock: CIFDUS_clean_linker_0, # of connection points: 2
#     Edge 25, Type (0, 1), BuildingBlock: CIFDUS_clean_linker_0, # of connection points: 2
#     Edge 26, Type (0, 1), BuildingBlock: CIFDUS_clean_linker_0, # of connection points: 2
#     Edge 27, Type (0, 1), BuildingBlock: CIFDUS_clean_linker_0, # of connection points: 2
#     Edge 28, Type (0, 1), BuildingBlock: CIFDUS_clean_linker_0, # of connection points: 2
#     Edge 29, Type (0, 1), BuildingBlock: CIFDUS_clean_linker_0, # of connection points: 2
#     Edge 30, Type (0, 1), BuildingBlock: CIFDUS_clean_linker_0, # of connection points: 2
#     Edge 31, Type (0, 1), BuildingBlock: CIFDUS_clean_linker_0, # of connection points: 2
#     Edge 32, Type (0, 1), BuildingBlock: CIFDUS_clean_linker_0, # of connection points: 2
#     Edge 33, Type (0, 1), BuildingBlock: CIFDUS_clean_linker_0, # of connection points: 2
#     Edge 34, Type (0, 1), BuildingBlock: CIFDUS_clean_linker_0, # of connection points: 2
#     Edge 35, Type (0, 1), BuildingBlock: CIFDUS_clean_linker_0, # of connection points: 2
# Relax obj value: 0.232
# Max RMSD: 0.263
# Mean RMSD: 0.172
data_MOF--net-pyr--node1-INOVEN_clean_sbu_0--node2-CUQRIR_clean_linker_1--edge1-CIFDUS_clean_linker_0
_symmetry_space_group_name_H-M    P1
_symmetry_Int_Tables_number       1
_symmetry_cell_setting            triclinic
loop_
_symmetry_equiv_pos_as_xyz
'x, y, z'
_cell_length_a     30.947518
_cell_length_b     31.447465
_cell_length_c     28.286546
_cell_angle_alpha  89.782253
_cell_angle_beta   89.198888
_cell_angle_gamma 106.49285
loop_
_atom_site_label
_atom_site_type_symbol
_atom_site_fract_x
_atom_site_fract_y
_atom_site_fract_z
_atom_type_partial_charge
C0 C 0.39906 0.44536 0.24086 0.0
N1 N 0.41305 0.40859 0.24597 0.0
N2 N 0.41122 0.46485 0.19803 0.0
C3 C 0.36489 0.45657 0.27342 0.0
C4 C 0.43616 0.44009 0.17843 0.0
N5 N 0.43762 0.4063 0.20764 0.0
C6 C 0.45239 0.44429 0.12789 0.0
H7 H 0.3306 0.44236 0.25915 0.0
H8 H 0.37137 0.49304 0.27567 0.0
H9 H 0.36601 0.44282 0.30943 0.0
H10 H 0.4478 0.47455 0.1109 0.0
H11 H 0.4334 0.41458 0.10814 0.0
H12 H 0.48855 0.44557 0.12618 0.0
C13 C 0.13753 0.85272 0.69001 0.0
N14 N 0.14832 0.8908 0.71508 0.0
N15 N 0.15906 0.82381 0.70645 0.0
C16 C 0.10597 0.84349 0.64885 0.0
C17 C 0.18137 0.84497 0.7446 0.0
N18 N 0.17462 0.88536 0.74991 0.0
C19 C 0.2172 0.83008 0.77024 0.0
H20 H 0.08948 0.80732 0.64618 0.0
H21 H 0.12469 0.85472 0.61531 0.0
H22 H 0.08002 0.86142 0.65309 0.0
H23 H 0.24383 0.82731 0.74474 0.0
H24 H 0.20194 0.79688 0.7863 0.0
H25 H 0.23358 0.85293 0.79854 0.0
C26 C 0.64663 0.44406 0.88211 0.0
N27 N 0.67136 0.44202 0.92119 0.0
N28 N 0.66177 0.48404 0.85964 0.0
C29 C 0.60548 0.40808 0.86785 0.0
C30 C 0.6968 0.50624 0.88672 0.0
N31 N 0.7024 0.48128 0.92439 0.0
C32 C 0.72738 0.55161 0.87474 0.0
H33 H 0.58126 0.42219 0.84936 0.0
H34 H 0.58833 0.38856 0.89895 0.0
H35 H 0.61598 0.3852 0.84343 0.0
H36 H 0.71472 0.57699 0.89295 0.0
H37 H 0.72819 0.55806 0.8361 0.0
H38 H 0.76219 0.55503 0.88673 0.0
C39 C 0.8603 0.75772 0.39605 0.0
N40 N 0.9011 0.7858 0.382 0.0
N41 N 0.84003 0.7761 0.4301 0.0
C42 C 0.8404 0.71172 0.37701 0.0
C43 C 0.86948 0.81668 0.43602 0.0
N44 N 0.90659 0.82312 0.40739 0.0
C45 C 0.86154 0.85072 0.46992 0.0
H46 H 0.84712 0.71098 0.33843 0.0
H47 H 0.80361 0.69955 0.38355 0.0
H48 H 0.85612 0.68851 0.39487 0.0
H49 H 0.87869 0.84841 0.50362 0.0
H50 H 0.82505 0.84499 0.4775 0.0
H51 H 0.87556 0.88477 0.45547 0.0
C52 C 0.62133 0.83343 0.92573 0.0
N53 N 0.65706 0.8317 0.89859 0.0
N54 N 0.6 0.86157 0.90691 0.0
C55 C 0.61264 0.8147 0.97501 0.0
C56 C 0.62342 0.87509 0.86613 0.0
N57 N 0.65981 0.85942 0.86246 0.0
C58 C 0.61515 0.91034 0.8342 0.0
H59 H 0.61859 0.78154 0.97656 0.0
H60 H 0.57761 0.8122 0.98669 0.0
H61 H 0.63635 0.8369 0.99947 0.0
H62 H 0.62666 0.94317 0.85147 0.0
H63 H 0.57845 0.90339 0.82814 0.0
H64 H 0.63323 0.91166 0.79982 0.0
C65 C 0.82618 0.31668 0.59404 0.0
N66 N 0.83855 0.29331 0.55889 0.0
N67 N 0.79787 0.33881 0.57735 0.0
C68 C 0.84228 0.31832 0.64392 0.0
C69 C 0.79375 0.32831 0.53101 0.0
N70 N 0.81888 0.30102 0.51973 0.0
C71 C 0.76416 0.34378 0.497 0.0
H72 H 0.83097 0.28452 0.65966 0.0
H73 H 0.82929 0.34139 0.66574 0.0
H74 H 0.87968 0.32886 0.64386 0.0
H75 H 0.73761 0.35499 0.5155 0.0
H76 H 0.74796 0.31685 0.47226 0.0
H77 H 0.78534 0.37205 0.4759 0.0
C78 C 0.35218 0.78091 0.28412 0.0
N79 N 0.39353 0.80781 0.29608 0.0
N80 N 0.33225 0.8005 0.25149 0.0
C81 C 0.32931 0.73684 0.30714 0.0
C82 C 0.36247 0.84052 0.24408 0.0
N83 N 0.39942 0.84571 0.2714 0.0
C84 C 0.35707 0.8737 0.20754 0.0
H85 H 0.34095 0.7106 0.28937 0.0
H86 H 0.29215 0.72849 0.30403 0.0
H87 H 0.33783 0.73705 0.34513 0.0
H88 H 0.34463 0.89943 0.22535 0.0
H89 H 0.33273 0.85772 0.18005 0.0
H90 H 0.38972 0.89041 0.18987 0.0
C91 C 0.13935 0.46245 0.78506 0.0
N92 N 0.16733 0.45552 0.74988 0.0
N93 N 0.15409 0.5042 0.80308 0.0
C94 C 0.0959 0.42911 0.79956 0.0
C95 C 0.19227 0.52255 0.77693 0.0
N96 N 0.20075 0.49334 0.74488 0.0
C97 C 0.22104 0.5698 0.78182 0.0
H98 H 0.07638 0.41546 0.76771 0.0
H99 H 0.07511 0.44376 0.82314 0.0
H100 H 0.10361 0.40113 0.81828 0.0
H101 H 0.25175 0.57009 0.80167 0.0
H102 H 0.20355 0.59065 0.80138 0.0
H103 H 0.23175 0.58478 0.74643 0.0
Gd104 Gd 0.08368 0.15109 0.54001 0.0
Gd105 Gd 0.05011 0.10337 0.63132 0.0
C106 C 0.09885 0.20943 0.63687 0.0
C107 C 0.10632 0.20253 0.46733 0.0
C108 C 0.13513 0.20685 0.42512 0.0
C109 C 0.17234 0.18964 0.42466 0.0
C110 C 0.12989 0.23476 0.38841 0.0
C111 C 0.20252 0.23412 0.35506 0.0
C112 C 0.16328 0.24822 0.35349 0.0
C113 C 0.20598 0.20337 0.3899 0.0
C114 C 0.13881 0.10629 0.57725 0.0
C115 C 0.03649 1.04584 0.53507 0.0
C116 C 0.02903 1.0627 0.71117 0.0
C117 C 0.98617 1.03226 0.72809 0.0
C118 C 0.94544 1.04209 0.71958 0.0
C119 C 0.98526 0.99174 0.74972 0.0
C120 C 0.90355 0.97231 0.75588 0.0
C121 C 0.94409 0.96178 0.76343 0.0
C122 C 0.90462 1.01252 0.73354 0.0
C123 C 0.98574 0.12693 0.58106 0.0
O124 O 0.09433 0.20985 0.59034 0.0
O125 O 0.0888 0.17108 0.66035 0.0
O126 O 0.06904 0.16969 0.46908 0.0
O127 O 0.12805 0.20893 0.5072 0.0
O128 O 0.13378 0.11091 0.53239 0.0
O129 O 0.11706 0.12815 0.59929 0.0
O130 O 0.04634 1.0465 0.58061 0.0
O131 O 0.04055 0.08391 0.51228 0.0
O132 O 0.02923 0.104 0.70445 0.0
O133 O 0.04905 1.04745 0.67688 0.0
O134 O 0.97867 0.09058 0.60516 0.0
O135 O 1.02586 0.14907 0.5864 0.0
H136 H 0.17683 0.16795 0.45286 0.0
H137 H 0.1015 0.24851 0.38849 0.0
H138 H 0.15985 0.27228 0.32735 0.0
H139 H 0.23566 0.19169 0.39159 0.0
H140 H 0.94497 1.07259 0.70193 0.0
H141 H 1.01632 0.98327 0.75581 0.0
H142 H 0.94395 0.93097 0.78076 0.0
H143 H 0.87371 1.0211 0.72687 0.0
Gd144 Gd 0.59013 0.14611 0.12279 0.0
Gd145 Gd 0.50646 0.12932 0.07557 0.0
C146 C 0.51835 0.19195 0.16169 0.0
C147 C 0.67383 0.16915 0.14722 0.0
C148 C 0.70248 0.1899 0.1866 0.0
C149 C 0.73297 0.16895 0.20528 0.0
C150 C 0.7006 0.2307 0.20513 0.0
C151 C 0.75863 0.22875 0.26135 0.0
C152 C 0.72859 0.25003 0.24207 0.0
C153 C 0.76068 0.18809 0.24259 0.0
C154 C 0.5246 0.08325 0.17061 0.0
C155 C 0.57056 1.07168 1.04203 0.0
C156 C 0.43066 0.11061 1.03189 0.0
C157 C 0.39605 0.07993 1.00386 0.0
C158 C 0.37515 0.09816 0.96869 0.0
C159 C 0.38301 1.03389 1.0114 0.0
C160 C 0.32854 1.02482 0.948 0.0
C161 C 0.34929 1.00647 0.98365 0.0
C162 C 0.34177 1.07096 0.94103 0.0
C163 C 0.56707 0.209 1.05069 0.0
O164 O 0.56192 0.19964 0.15288 0.0
O165 O 0.48995 0.15662 0.14383 0.0
O166 O 0.64666 0.12951 0.15486 0.0
O167 O 0.65539 0.19456 0.12275 0.0
O168 O 0.55396 0.11608 0.19024 0.0
O169 O 0.53015 0.08574 0.126 0.0
O170 O 0.52937 1.0755 1.04021 0.0
O171 O 0.60112 0.09819 0.06863 0.0
O172 O 0.46962 0.12835 1.01109 0.0
O173 O 0.43363 0.1023 0.07697 0.0
O174 O 0.52554 0.20395 0.06239 0.0
O175 O 0.57512 0.1719 1.05409 0.0
H176 H 0.73511 0.1376 0.19118 0.0
H177 H 0.67729 0.24753 0.19143 0.0
H178 H 0.72574 0.28099 0.25654 0.0
H179 H 0.78355 0.17107 0.25694 0.0
H180 H 0.38465 0.1337 0.96265 0.0
H181 H 0.39888 1.01926 1.03842 0.0
H182 H 0.33998 0.97094 0.98949 0.0
H183 H 0.32601 0.08613 0.91437 0.0
Gd184 Gd 0.51315 0.59823 0.55195 0.0
Gd185 Gd 0.51935 0.67764 0.60564 0.0
C186 C 0.55972 0.60832 0.65765 0.0
C187 C 0.5336 0.5317 0.51459 0.0
C188 C 0.56249 0.50601 0.53377 0.0
C189 C 0.5511 0.45997 0.52813 0.0
C190 C 0.60013 0.52716 0.56085 0.0
C191 C 0.61485 0.45656 0.57646 0.0
C192 C 0.62561 0.5027 0.58243 0.0
C193 C 0.57724 0.43547 0.54895 0.0
C194 C 0.43473 0.59358 0.60028 0.0
C195 C 0.48078 0.67253 0.49729 0.0
C196 C 0.4925 0.73639 0.65109 0.0
C197 C 0.44653 0.74105 0.65307 0.0
C198 C 0.42131 0.7382 0.61166 0.0
C199 C 0.42489 0.73993 0.69711 0.0
C200 C 0.35314 0.73099 0.65841 0.0
C201 C 0.37865 0.73505 0.6998 0.0
C202 C 0.37509 0.73304 0.61431 0.0
C203 C 0.59813 0.68228 0.55878 0.0
O204 O 0.55213 0.58667 0.61715 0.0
O205 O 0.54829 0.64527 0.66299 0.0
O206 O 0.49576 0.52755 0.53767 0.0
O207 O 0.55416 0.57287 0.50321 0.0
O208 O 0.43655 0.57995 0.55712 0.0
O209 O 0.47459 0.60925 0.61496 0.0
O210 O 0.48144 0.68998 0.53996 0.0
O211 O 0.49413 0.63643 0.49159 0.0
O212 O 0.51447 0.74512 0.6107 0.0
O213 O 0.49587 0.69991 0.67069 0.0
O214 O 0.59577 0.69946 0.60015 0.0
O215 O 0.55866 0.66633 0.54342 0.0
H216 H 0.52209 0.44302 0.50757 0.0
H217 H 0.6098 0.56271 0.56579 0.0
H218 H 0.65373 0.52011 0.60389 0.0
H219 H 0.56845 0.40015 0.54259 0.0
H220 H 0.43688 0.73863 0.57716 0.0
H221 H 0.44353 0.7414 0.72951 0.0
H222 H 0.36297 0.73478 0.73431 0.0
H223 H 0.35644 0.73008 0.58179 0.0
Gd224 Gd 1.0192 0.59001 0.12701 0.0
Gd225 Gd 1.01117 0.6714 0.07293 0.0
C226 C 0.10594 0.67565 0.11853 0.0
C227 C 0.05044 0.52891 0.16169 0.0
C228 C 0.09483 0.51988 0.15593 0.0
C229 C 0.12819 0.53436 0.19019 0.0
C230 C 0.10502 0.49828 0.11559 0.0
C231 C 0.18098 0.50612 0.14385 0.0
C232 C 0.1476 0.49165 0.10955 0.0
C233 C 0.17072 0.52764 0.1842 0.0
C234 C 0.98063 0.64469 0.1791 0.0
C235 C 0.93037 0.57778 0.06595 0.0
C236 C 0.98549 0.74099 1.05503 0.0
C237 C 0.95106 0.75346 1.02718 0.0
C238 C 0.95798 0.79786 1.01391 0.0
C239 C 0.9091 0.72268 1.01896 0.0
C240 C 0.87979 0.78171 0.98932 0.0
C241 C 0.87377 0.73668 1.00034 0.0
C242 C 0.92277 0.81186 0.99494 0.0
C243 C 0.04374 0.61927 1.01086 0.0
O244 O 0.09115 0.63197 0.1188 0.0
O245 O 0.07923 0.70008 0.10661 0.0
O246 O 0.05044 0.56488 0.18477 0.0
O247 O 1.02444 0.52271 0.1247 0.0
O248 O 0.96803 0.60153 0.18003 0.0
O249 O 1.01366 0.65661 0.15004 0.0
O250 O 0.94183 0.62174 0.06311 0.0
O251 O 0.95709 0.55692 0.08583 0.0
O252 O 1.01915 0.73227 1.03223 0.0
O253 O 0.96973 0.71365 0.09032 0.0
O254 O 0.0366 0.65677 0.99949 0.0
O255 O 0.03309 0.61259 1.05419 0.0
H256 H 0.12144 0.55091 0.22179 0.0
H257 H 0.0802 0.48655 0.08847 0.0
H258 H 0.15437 0.47521 0.07789 0.0
H259 H 0.19521 0.53842 0.21183 0.0
H260 H 0.99011 0.82209 1.01997 0.0
H261 H 0.90296 0.68818 1.02903 0.0
H262 H 0.84116 0.71255 0.99689 0.0
H263 H 0.92892 0.84658 0.98585 0.0
H264 H 0.33656 0.35872 0.21287 0.0
H265 H 0.4245 0.3749 0.33175 0.0
H266 H 0.36772 0.31627 0.37531 0.0
H267 H 0.28962 0.26731 0.38146 0.0
H268 H 0.20276 0.25208 0.26079 0.0
H269 H 0.26317 0.30298 0.21493 0.0
C270 C 0.34338 0.34837 0.24795 0.0
C271 C 0.38428 0.3701 0.26928 0.0
C272 C 0.31097 0.31516 0.27204 0.0
C273 C 0.39329 0.35774 0.31483 0.0
C274 C 0.36085 0.32455 0.33951 0.0
C275 C 0.28441 0.27405 0.34468 0.0
C276 C 0.24168 0.2564 0.32457 0.0
C277 C 0.31913 0.30381 0.31876 0.0
C278 C 0.23518 0.26579 0.27709 0.0
C279 C 0.2696 0.29489 0.25096 0.0
H280 H 0.17028 0.88649 0.84392 0.0
H281 H 0.23907 0.9588 0.72248 0.0
H282 H 0.29185 1.01054 0.77386 0.0
H283 H 0.32226 1.0306 0.85287 0.0
H284 H 0.25675 0.95515 0.97462 0.0
H285 H 0.19946 0.9082 0.92377 0.0
C286 C 0.19634 0.91429 0.82919 0.0
C287 C 0.20064 0.91966 0.77993 0.0
C288 C 0.22768 0.94236 0.85887 0.0
C289 C 0.23481 0.95493 0.76045 0.0
C290 C 0.26523 0.98399 0.78977 0.0
C291 C 0.29511 1.00422 0.86834 0.0
C292 C 0.29371 0.99631 0.91741 0.0
C293 C 0.26259 0.97736 0.83894 0.0
C294 C 0.25882 0.96153 0.93688 0.0
C295 C 0.22591 0.93494 0.9079 0.0
H296 H 0.63955 0.56108 0.85136 0.0
H297 H 0.64241 0.44417 0.77433 0.0
H298 H 0.6115 0.4716 0.70477 0.0
H299 H 0.58269 0.52925 0.66573 0.0
H300 H 0.58286 0.64715 0.74344 0.0
H301 H 0.61355 0.61933 0.81186 0.0
C302 C 0.63381 0.54179 0.81921 0.0
C303 C 0.64336 0.50046 0.81834 0.0
C304 C 0.61642 0.5581 0.77912 0.0
C305 C 0.63497 0.47574 0.77637 0.0
C306 C 0.61746 0.4916 0.73643 0.0
C307 C 0.58985 0.54912 0.69739 0.0
C308 C 0.58036 0.59063 0.69867 0.0
C309 C 0.60791 0.53282 0.73729 0.0
C310 C 0.58957 0.61527 0.74073 0.0
C311 C 0.60722 0.5993 0.78023 0.0
H312 H 0.93628 0.71626 0.38018 0.0
H313 H 0.92738 0.82813 0.29735 0.0
H314 H 0.95462 0.79688 0.22697 0.0
H315 H 0.97274 0.73211 0.1862 0.0
H316 H 0.97133 0.61706 0.27044 0.0
H317 H 0.95573 0.65407 0.34136 0.0
C318 C 0.94121 0.73439 0.34695 0.0
C319 C 0.93004 0.77511 0.34486 0.0
C320 C 0.95401 0.71459 0.30589 0.0
C321 C 0.93654 0.79754 0.30095 0.0
C322 C 0.95134 0.779 0.26025 0.0
C323 C 0.96941 0.71526 0.22008 0.0
C324 C 0.97333 0.67118 0.22209 0.0
C325 C 0.95888 0.73669 0.26173 0.0
C326 C 0.96838 0.65043 0.2669 0.0
C327 C 0.95953 0.6718 0.30793 0.0
H328 H 0.39864 0.318 0.19939 0.0
H329 H 0.52654 0.418 0.19404 0.0
H330 H 0.56507 0.36022 0.18248 0.0
H331 H 0.56114 0.28055 0.17339 0.0
H332 H 0.43208 0.18209 0.18981 0.0
H333 H 0.39539 0.24007 0.20169 0.0
C334 C 0.43493 0.32737 0.19787 0.0
C335 C 0.4597 0.37225 0.19874 0.0
C336 C 0.45669 0.29407 0.19413 0.0
C337 C 0.50679 0.38355 0.19323 0.0
C338 C 0.52876 0.35054 0.18721 0.0
C339 C 0.52521 0.27178 0.18086 0.0
C340 C 0.49942 0.22694 0.18032 0.0
C341 C 0.504 0.30552 0.18786 0.0
C342 C 0.45279 0.21625 0.18971 0.0
C343 C 0.43161 0.24941 0.19614 0.0
H344 H 0.17342 0.92495 0.62899 0.0
H345 H 0.12166 0.95302 0.76369 0.0
H346 H 0.12189 1.02695 0.7348 0.0
H347 H 0.13366 0.08162 0.66942 0.0
H348 H 0.17308 1.04695 0.53134 0.0
H349 H 0.18202 0.97764 0.56325 0.0
C350 C 0.16076 0.94668 0.65147 0.0
C351 C 0.146 0.93323 0.69779 0.0
C352 C 0.15964 0.98802 0.6341 0.0
C353 C 0.13236 0.96267 0.72765 0.0
C354 C 0.13273 1.00479 0.71118 0.0
C355 C 0.14381 1.05861 0.64635 0.0
C356 C 0.15162 1.06867 0.59798 0.0
C357 C 0.14583 1.01757 0.66425 0.0
C358 C 0.1665 1.03964 0.56865 0.0
C359 C 0.17122 0.99991 0.58677 0.0
H360 H 0.7715 0.44872 0.94941 0.0
H361 H 0.70809 0.55072 0.98114 0.0
H362 H 0.77273 0.59008 1.02826 0.0
H363 H 0.85089 0.59941 1.05443 0.0
H364 H 0.91312 0.49535 1.02704 0.0
H365 H 0.84621 0.45328 0.98484 0.0
C366 C 0.77135 0.47878 0.96796 0.0
C367 C 0.7349 0.49677 0.96169 0.0
C368 C 0.80909 0.50149 0.99514 0.0
C369 C 0.73559 0.53616 0.98549 0.0
C370 C 0.77281 0.55891 1.0121 0.0
C371 C 0.84968 0.56735 1.03961 0.0
C372 C 0.88748 0.55096 1.04374 0.0
C373 C 0.81042 0.54264 1.01611 0.0
C374 C 0.88477 0.50898 1.02462 0.0
C375 C 0.84638 0.48481 1.00029 0.0
H376 H 0.75324 0.7431 0.4012 0.0
H377 H 0.83633 0.76494 0.52453 0.0
H378 H 0.7694 0.73798 0.57553 0.0
H379 H 0.68643 0.71017 0.58558 0.0
H380 H 0.6034 0.68308 0.46204 0.0
H381 H 0.67041 0.70893 0.41098 0.0
C382 C 0.75668 0.74099 0.43914 0.0
C383 C 0.79998 0.75591 0.45896 0.0
C384 C 0.71778 0.72454 0.46837 0.0
C385 C 0.80356 0.75381 0.50839 0.0
C386 C 0.76521 0.73835 0.53757 0.0
C387 C 0.68303 0.70967 0.54746 0.0
C388 C 0.63966 0.69496 0.52787 0.0
C389 C 0.72202 0.72399 0.51809 0.0
C390 C 0.63614 0.6942 0.47829 0.0
C391 C 0.67459 0.70915 0.44896 0.0
H392 H 0.34399 0.42388 0.1426 0.0
H393 H 0.41071 0.55027 0.20278 0.0
H394 H 0.34534 0.57714 0.18571 0.0
H395 H 0.26475 0.55965 0.16576 0.0
H396 H 0.19672 0.42991 0.11201 0.0
H397 H 0.26688 0.40946 0.11367 0.0
C398 C 0.3448 0.45795 0.14981 0.0
C399 C 0.38203 0.4854 0.17326 0.0
C400 C 0.3063 0.47203 0.14218 0.0
C401 C 0.38259 0.52906 0.18393 0.0
C402 C 0.34493 0.544 0.17493 0.0
C403 C 0.26537 0.52702 0.15407 0.0
C404 C 0.22522 0.49624 0.13928 0.0
C405 C 0.30579 0.51499 0.15614 0.0
C406 C 0.22695 0.45443 0.12331 0.0
C407 C 0.26709 0.44255 0.12448 0.0
H408 H 0.6865 0.36157 0.91605 0.0
H409 H 0.62631 0.44167 1.00314 0.0
H410 H 0.58931 0.37668 1.05244 0.0
H411 H 0.56813 0.29512 0.06594 0.0
H412 H 0.6321 0.2155 0.98197 0.0
H413 H 0.67359 0.28155 0.93669 0.0
C414 C 0.66648 0.36491 0.94682 0.0
C415 C 0.65975 0.40666 0.95644 0.0
C416 C 0.64529 0.3271 0.97504 0.0
C417 C 0.63281 0.41027 0.99572 0.0
C418 C 0.6112 0.3729 1.02349 0.0
C419 C 0.5916 0.29233 1.03809 0.0
C420 C 0.59651 0.25009 1.02709 0.0
C421 C 0.61621 0.33085 1.0128 0.0
C422 C 0.62752 0.24734 0.99124 0.0
C423 C 0.6512 0.28522 0.96519 0.0
H424 H 0.9667 0.84179 0.47722 0.0
H425 H 0.92729 0.89639 0.35122 0.0
H426 H 0.96596 0.97171 0.37788 0.0
H427 H 1.00195 1.02317 0.44361 0.0
H428 H 0.03691 0.96552 0.57119 0.0
H429 H 1.00919 0.89187 0.53808 0.0
C430 C 0.96872 0.87006 0.45435 0.0
C431 C 0.94508 0.86263 0.4112 0.0
C432 C 0.98885 0.91356 0.4715 0.0
C433 C 0.94643 0.90034 0.38345 0.0
C434 C 0.96764 0.94375 0.39953 0.0
C435 C 1.00396 0.99461 0.46405 0.0
C436 C 1.02133 1.00095 0.51067 0.0
C437 C 0.98747 0.95105 0.44454 0.0
C438 C 1.02344 0.96273 0.53583 0.0
C439 C 1.00766 0.92007 0.5167 0.0
H440 H 0.16556 0.74265 0.72896 0.0
H441 H 0.1951 0.84225 0.61894 0.0
H442 H 0.25263 0.81228 0.586 0.0
H443 H 0.30902 0.77473 0.60338 0.0
H444 H 0.28851 0.68236 0.72036 0.0
H445 H 0.21462 0.69335 0.7368 0.0
C446 C 0.18359 0.75648 0.69676 0.0
C447 C 0.17657 0.79502 0.67707 0.0
C448 C 0.22007 0.74187 0.68077 0.0
C449 C 0.19932 0.81236 0.63474 0.0
C450 C 0.23325 0.79589 0.61648 0.0
C451 C 0.28778 0.75568 0.63139 0.0
C452 C 0.30469 0.72876 0.6614 0.0
C453 C 0.24623 0.76321 0.64149 0.0
C454 C 0.27672 0.70442 0.69766 0.0
C455 C 0.23439 0.71051 0.70691 0.0
H456 H 0.71732 0.83139 0.80614 0.0
H457 H 0.69999 0.94468 0.88085 0.0
H458 H 0.77401 0.98931 0.85433 0.0
H459 H 0.8439 0.9963 0.81106 0.0
H460 H 0.86623 0.8834 0.73988 0.0
H461 H 0.79079 0.83779 0.76494 0.0
C462 C 0.72985 0.86598 0.81584 0.0
C463 C 0.70255 0.88547 0.84332 0.0
C464 C 0.77352 0.89112 0.80193 0.0
C465 C 0.71949 0.92981 0.85748 0.0
C466 C 0.76209 0.9551 0.84308 0.0
C467 C 0.83213 0.9617 0.80095 0.0
C468 C 0.85998 0.9432 0.77336 0.0
C469 C 0.78929 0.93614 0.81532 0.0
C470 C 0.84506 0.89817 0.76123 0.0
C471 C 0.80196 0.87229 0.77526 0.0
H472 H 0.84386 0.34104 0.4364 0.0
H473 H 0.79314 0.21345 0.50385 0.0
H474 H 0.77735 0.17776 0.4268 0.0
H475 H 0.76533 0.18521 0.34208 0.0
H476 H 0.80903 0.3141 0.27519 0.0
H477 H 0.83991 0.34738 0.34994 0.0
C478 C 0.83028 0.30535 0.43374 0.0
C479 C 0.81946 0.27968 0.47512 0.0
C480 C 0.81918 0.28565 0.38958 0.0
C481 C 0.80216 0.2335 0.47211 0.0
C482 C 0.79259 0.2133 0.42818 0.0
C483 C 0.78277 0.22035 0.34363 0.0
C484 C 0.78462 0.24733 0.30356 0.0
C485 C 0.79914 0.23932 0.38688 0.0
C486 C 0.80679 0.29291 0.30594 0.0
C487 C 0.82442 0.31188 0.34856 0.0
H488 H 0.42598 0.73686 0.2979 0.0
H489 H 0.42064 0.85085 0.37847 0.0
H490 H 0.44714 0.81958 0.44868 0.0
H491 H 0.46536 0.75573 0.48938 0.0
H492 H 0.46689 0.64072 0.40725 0.0
H493 H 0.44757 0.67561 0.33668 0.0
C494 C 0.43183 0.75545 0.33053 0.0
C495 C 0.4218 0.79666 0.33239 0.0
C496 C 0.44512 0.73616 0.37127 0.0
C497 C 0.42899 0.81978 0.37537 0.0
C498 C 0.44334 0.80132 0.41588 0.0
C499 C 0.46133 0.73814 0.45613 0.0
C500 C 0.4673 0.69492 0.45453 0.0
C501 C 0.45028 0.75882 0.41474 0.0
C502 C 0.46239 0.67351 0.41043 0.0
C503 C 0.45147 0.69367 0.36964 0.0
H504 H 0.13643 0.48931 0.89826 0.0
H505 H 0.11828 0.5704 0.78154 0.0
H506 H 0.08294 0.6126 0.83463 0.0
H507 H 0.05849 0.62838 0.91483 0.0
H508 H 0.07422 0.54702 1.03237 0.0
H509 H 0.10867 0.50356 0.97938 0.0
C510 C 0.12447 0.51606 0.88452 0.0
C511 C 0.13064 0.52686 0.83559 0.0
C512 C 0.10371 0.54043 0.91576 0.0
C513 C 0.11451 0.56156 0.81872 0.0
C514 C 0.09424 0.58577 0.84925 0.0
C515 C 0.06928 0.60104 0.92899 0.0
C516 C 0.06356 0.59131 0.97807 0.0
C517 C 0.08892 0.57588 0.89794 0.0
C518 C 0.07786 0.55546 0.99512 0.0
C519 C 0.09774 0.53054 0.96458 0.0
H520 H 0.64996 0.92236 0.96262 0.0
H521 H 0.51589 0.87167 0.9095 0.0
H522 H 0.4939 0.93337 0.94683 0.0
H523 H 0.51503 1.00378 0.99183 0.0
H524 H 0.65197 1.05497 1.03983 0.0
H525 H 0.67096 0.99137 1.00671 0.0
C526 C 0.61564 0.92445 0.96041 0.0
C527 C 0.58409 0.89235 0.93474 0.0
C528 C 0.60422 0.96054 0.98011 0.0
C529 C 0.54015 0.8957 0.93022 0.0
C530 C 0.52794 0.93114 0.95102 0.0
C531 C 0.54907 1.00113 0.99478 0.0
C532 C 0.582 1.03432 1.01827 0.0
C533 C 0.56001 0.96421 0.97546 0.0
C534 C 0.6259 1.03017 1.02191 0.0
C535 C 0.63685 0.99364 1.00319 0.0
H536 H 0.82382 0.21076 0.592 0.0
H537 H 0.92352 0.32006 0.52728 0.0
H538 H 0.9777 0.27619 0.52426 0.0
H539 H 0.99652 0.20728 0.54176 0.0
H540 H 0.89618 0.09656 0.60486 0.0
H541 H 0.84152 0.13961 0.60549 0.0
C542 C 0.85764 0.22466 0.57779 0.0
C543 C 0.87064 0.2684 0.56078 0.0
C544 C 0.8878 0.19878 0.57506 0.0
C545 C 0.91378 0.2865 0.54122 0.0
C546 C 0.94432 0.26138 0.53916 0.0
C547 C 0.96246 0.1924 0.55502 0.0
C548 C 0.95035 0.14901 0.57341 0.0
C549 C 0.93166 0.2175 0.55599 0.0
C550 C 0.90616 0.12991 0.59034 0.0
C551 C 0.87509 0.15464 0.59117 0.0
H552 H 0.30246 0.72427 0.20322 0.0
H553 H 0.2647 0.83889 0.25002 0.0
H554 H 0.19254 0.8128 0.20941 0.0
H555 H 0.1392 0.75616 0.16161 0.0
H556 H 0.17632 0.63989 0.1177 0.0
H557 H 0.24924 0.66765 0.15546 0.0
C558 C 0.27816 0.74319 0.2047 0.0
C559 C 0.28877 0.78341 0.22953 0.0
C560 C 0.23668 0.72783 0.18129 0.0
C561 C 0.25723 0.80793 0.23094 0.0
C562 C 0.21605 0.79303 0.20766 0.0
C563 C 0.16358 0.73734 0.15958 0.0
C564 C 0.15229 0.69619 0.13629 0.0
C565 C 0.20535 0.75303 0.18256 0.0
C566 C 0.18406 0.67179 0.13504 0.0
C567 C 0.22581 0.68753 0.15689 0.0
H568 H 0.28945 0.52129 0.76586 0.0
H569 H 0.19945 0.49312 0.64828 0.0
H570 H 0.26302 0.51919 0.59321 0.0
H571 H 0.34514 0.55483 0.57792 0.0
H572 H 0.43323 0.59209 0.69685 0.0
H573 H 0.37024 0.55989 0.75115 0.0
C574 C 0.28374 0.5205 0.72813 0.0
C575 C 0.23919 0.50324 0.71165 0.0
C576 C 0.32055 0.53859 0.69657 0.0
C577 C 0.2329 0.50336 0.66246 0.0
C578 C 0.26952 0.51954 0.63076 0.0
C579 C 0.35056 0.55602 0.61573 0.0
C580 C 0.39445 0.57597 0.63289 0.0
C581 C 0.31358 0.53783 0.64731 0.0
C582 C 0.40026 0.57721 0.68222 0.0
C583 C 0.36409 0.5585 0.71349 0.0
H584 H 0.72375 0.87195 0.95588 0.0
H585 H 0.67218 0.75553 0.87191 0.0
H586 H 0.73764 0.72948 0.89142 0.0
H587 H 0.81017 0.74114 0.93148 0.0
H588 H 0.86098 0.85792 1.01662 0.0
H589 H 0.79598 0.88322 0.99679 0.0
C590 C 0.72695 0.84066 0.9426 0.0
C591 C 0.69349 0.81506 0.91331 0.0
C592 C 0.76478 0.8265 0.95352 0.0
C593 C 0.69765 0.77505 0.89512 0.0
C594 C 0.73506 0.76049 0.90603 0.0
C595 C 0.80692 0.77196 0.94599 0.0
C596 C 0.84074 0.7976 0.97533 0.0
C597 C 0.76896 0.78606 0.93509 0.0
C598 C 0.8361 0.83784 0.9932 0.0
C599 C 0.79863 0.85218 0.9823 0.0
H600 H 0.40701 0.92788 0.3028 0.0
H601 H 0.476 0.85095 0.22238 0.0
H602 H 0.52118 0.91837 0.18168 0.0
H603 H 0.53349 0.99856 0.16103 0.0
H604 H 0.46513 1.07531 0.24354 0.0
H605 H 0.4268 1.00926 0.29031 0.0
C606 C 0.43373 0.92629 0.27827 0.0
C607 C 0.43863 0.88415 0.26661 0.0
C608 C 0.45819 0.96521 0.25355 0.0
C609 C 0.47238 0.88274 0.2333 0.0
C610 C 0.49734 0.92133 0.20899 0.0
C611 C 0.51011 1.00072 0.18922 0.0
C612 C 0.50126 1.04182 0.19786 0.0
C613 C 0.48914 0.96254 0.21728 0.0
C614 C 0.47193 1.04414 0.23548 0.0
C615 C 0.45023 1.00634 0.26254 0.0
H616 H 0.17543 0.37462 0.77532 0.0
H617 H 0.13237 0.44374 0.66221 0.0
H618 H 0.11074 0.37558 0.61584 0.0
H619 H 0.10036 0.29444 0.60839 0.0
H620 H 0.1351 0.22321 0.72566 0.0
H621 H 0.16262 0.29264 0.76902 0.0
C622 C 0.16235 0.37486 0.74001 0.0
C623 C 0.15883 0.41549 0.72095 0.0
C624 C 0.14744 0.33442 0.71444 0.0
C625 C 0.13909 0.41428 0.67629 0.0
C626 C 0.12558 0.37477 0.65017 0.0
C627 C 0.11416 0.29398 0.64334 0.0
C628 C 0.11562 0.2529 0.66323 0.0
C629 C 0.12934 0.33442 0.66884 0.0
C630 C 0.13322 0.25371 0.70904 0.0
C631 C 0.1492 0.29371 0.734 0.0
H632 H 0.71626 0.31473 0.61704 0.0
H633 H 0.82998 0.42659 0.58526 0.0
H634 H 0.78216 0.47654 0.59036 0.0
H635 H 0.70628 0.48416 0.58379 0.0
H636 H 0.59091 0.37156 0.61246 0.0
H637 H 0.64088 0.32563 0.62806 0.0
C638 C 0.73061 0.35036 0.61395 0.0
C639 C 0.77617 0.36742 0.60097 0.0
C640 C 0.70232 0.37819 0.61425 0.0
C641 C 0.79494 0.4133 0.59585 0.0
C642 C 0.76743 0.44154 0.59784 0.0
C643 C 0.6918 0.45005 0.59512 0.0
C644 C 0.64472 0.43113 0.59556 0.0
C645 C 0.72067 0.42384 0.60392 0.0
C646 C 0.62697 0.38665 0.6101 0.0
C647 C 0.65553 0.36042 0.61946 0.0
loop_
_geom_bond_atom_site_label_1
_geom_bond_atom_site_label_2
_geom_bond_distance
_geom_bond_site_symmetry_2
_ccdc_geom_bond_type
C0 N1 1.317 . S
C0 N2 1.348 . S
C0 C3 1.485 . S
N1 C0 1.317 . S
N1 N5 1.370 . S
N2 C0 1.348 . S
N2 C4 1.346 . S
C3 C0 1.485 . S
C3 H7 0.960 . S
C3 H8 0.961 . S
C3 H9 0.960 . S
C4 N2 1.346 . S
C4 N5 1.307 . S
C4 C6 1.486 . S
N5 N1 1.370 . S
N5 C4 1.307 . S
C6 C4 1.486 . S
C6 H10 0.960 . S
C6 H11 0.960 . S
C6 H12 0.959 . S
H7 C3 0.960 . S
H8 C3 0.961 . S
H9 C3 0.960 . S
H10 C6 0.960 . S
H11 C6 0.960 . S
H12 C6 0.959 . S
C13 N14 1.317 . S
C13 N15 1.348 . S
C13 C16 1.485 . S
N14 C13 1.317 . S
N14 N18 1.370 . S
N15 C13 1.348 . S
N15 C17 1.346 . S
C16 C13 1.485 . S
C16 H20 0.960 . S
C16 H21 0.961 . S
C16 H22 0.960 . S
C17 N15 1.346 . S
C17 N18 1.307 . S
C17 C19 1.486 . S
N18 N14 1.370 . S
N18 C17 1.307 . S
C19 C17 1.486 . S
C19 H23 0.960 . S
C19 H24 0.960 . S
C19 H25 0.959 . S
H20 C16 0.960 . S
H21 C16 0.961 . S
H22 C16 0.960 . S
H23 C19 0.960 . S
H24 C19 0.960 . S
H25 C19 0.959 . S
C26 N27 1.317 . S
C26 N28 1.348 . S
C26 C29 1.485 . S
N27 C26 1.317 . S
N27 N31 1.370 . S
N28 C26 1.348 . S
N28 C30 1.346 . S
C29 C26 1.485 . S
C29 H33 0.960 . S
C29 H34 0.961 . S
C29 H35 0.960 . S
C30 N28 1.346 . S
C30 N31 1.307 . S
C30 C32 1.486 . S
N31 N27 1.370 . S
N31 C30 1.307 . S
C32 C30 1.486 . S
C32 H36 0.960 . S
C32 H37 0.960 . S
C32 H38 0.959 . S
H33 C29 0.960 . S
H34 C29 0.961 . S
H35 C29 0.960 . S
H36 C32 0.960 . S
H37 C32 0.960 . S
H38 C32 0.959 . S
C39 N40 1.317 . S
C39 N41 1.348 . S
C39 C42 1.485 . S
N40 C39 1.317 . S
N40 N44 1.370 . S
N41 C39 1.348 . S
N41 C43 1.346 . S
C42 C39 1.485 . S
C42 H46 0.960 . S
C42 H47 0.961 . S
C42 H48 0.960 . S
C43 N41 1.346 . S
C43 N44 1.307 . S
C43 C45 1.486 . S
N44 N40 1.370 . S
N44 C43 1.307 . S
C45 C43 1.486 . S
C45 H49 0.960 . S
C45 H50 0.960 . S
C45 H51 0.959 . S
H46 C42 0.960 . S
H47 C42 0.961 . S
H48 C42 0.960 . S
H49 C45 0.960 . S
H50 C45 0.960 . S
H51 C45 0.959 . S
C52 N53 1.317 . S
C52 N54 1.348 . S
C52 C55 1.485 . S
N53 C52 1.317 . S
N53 N57 1.370 . S
N54 C52 1.348 . S
N54 C56 1.346 . S
C55 C52 1.485 . S
C55 H59 0.960 . S
C55 H60 0.961 . S
C55 H61 0.960 . S
C56 N54 1.346 . S
C56 N57 1.307 . S
C56 C58 1.486 . S
N57 N53 1.370 . S
N57 C56 1.307 . S
C58 C56 1.486 . S
C58 H62 0.960 . S
C58 H63 0.960 . S
C58 H64 0.959 . S
H59 C55 0.960 . S
H60 C55 0.961 . S
H61 C55 0.960 . S
H62 C58 0.960 . S
H63 C58 0.960 . S
H64 C58 0.959 . S
C65 N66 1.317 . S
C65 N67 1.348 . S
C65 C68 1.485 . S
N66 C65 1.317 . S
N66 N70 1.370 . S
N67 C65 1.348 . S
N67 C69 1.346 . S
C68 C65 1.485 . S
C68 H72 0.960 . S
C68 H73 0.961 . S
C68 H74 0.960 . S
C69 N67 1.346 . S
C69 N70 1.307 . S
C69 C71 1.486 . S
N70 N66 1.370 . S
N70 C69 1.307 . S
C71 C69 1.486 . S
C71 H75 0.960 . S
C71 H76 0.960 . S
C71 H77 0.959 . S
H72 C68 0.960 . S
H73 C68 0.961 . S
H74 C68 0.960 . S
H75 C71 0.960 . S
H76 C71 0.960 . S
H77 C71 0.959 . S
C78 N79 1.317 . S
C78 N80 1.348 . S
C78 C81 1.485 . S
N79 C78 1.317 . S
N79 N83 1.370 . S
N80 C78 1.348 . S
N80 C82 1.346 . S
C81 C78 1.485 . S
C81 H85 0.960 . S
C81 H86 0.961 . S
C81 H87 0.960 . S
C82 N80 1.346 . S
C82 N83 1.307 . S
C82 C84 1.486 . S
N83 N79 1.370 . S
N83 C82 1.307 . S
C84 C82 1.486 . S
C84 H88 0.960 . S
C84 H89 0.960 . S
C84 H90 0.959 . S
H85 C81 0.960 . S
H86 C81 0.961 . S
H87 C81 0.960 . S
H88 C84 0.960 . S
H89 C84 0.960 . S
H90 C84 0.959 . S
C91 N92 1.317 . S
C91 N93 1.348 . S
C91 C94 1.485 . S
N92 C91 1.317 . S
N92 N96 1.370 . S
N93 C91 1.348 . S
N93 C95 1.346 . S
C94 C91 1.485 . S
C94 H98 0.960 . S
C94 H99 0.961 . S
C94 H100 0.960 . S
C95 N93 1.346 . S
C95 N96 1.307 . S
C95 C97 1.486 . S
N96 N92 1.370 . S
N96 C95 1.307 . S
C97 C95 1.486 . S
C97 H101 0.960 . S
C97 H102 0.960 . S
C97 H103 0.959 . S
H98 C94 0.960 . S
H99 C94 0.961 . S
H100 C94 0.960 . S
H101 C97 0.960 . S
H102 C97 0.960 . S
H103 C97 0.959 . S
Gd104 C107 2.818 . S
Gd104 O124 2.377 . S
Gd104 O126 2.448 . S
Gd104 O127 2.506 . S
Gd104 O128 2.435 . S
Gd104 O129 2.717 . S
Gd104 O131 2.395 1_545 S
Gd104 O135 2.327 . S
Gd105 C116 2.818 1_545 S
Gd105 O125 2.395 1_655 S
Gd105 O129 2.327 1_655 S
Gd105 O130 2.377 1_545 S
Gd105 O132 2.448 1_545 S
Gd105 O133 2.506 1_545 S
Gd105 O134 2.435 . S
Gd105 O135 2.717 1_655 S
C106 O124 1.240 . S
C106 O125 1.240 . S
C107 Gd104 2.818 . S
C107 C108 1.510 . S
C107 O126 1.249 . S
C107 O127 1.252 . S
C108 C107 1.510 . S
C108 C109 1.404 . S
C108 C110 1.352 . S
C109 C108 1.404 . S
C109 C113 1.389 . S
C109 H136 0.930 . S
C110 C108 1.352 . S
C110 C112 1.374 . S
C110 H137 0.931 . S
C111 C112 1.359 . S
C111 C113 1.364 . S
C112 C110 1.374 . S
C112 C111 1.359 . S
C112 H138 0.931 . S
C113 C109 1.389 . S
C113 C111 1.364 . S
C113 H139 0.931 . S
C114 O128 1.256 1_565 S
C114 O129 1.257 1_565 S
C115 O130 1.240 . S
C115 O131 1.240 1_655 S
C116 Gd105 2.818 1_565 S
C116 C117 1.510 . S
C116 O132 1.249 . S
C116 O133 1.252 . S
C117 C116 1.510 . S
C117 C118 1.404 . S
C117 C119 1.352 . S
C118 C117 1.404 . S
C118 C122 1.389 . S
C118 H140 0.930 . S
C119 C117 1.352 . S
C119 C121 1.374 . S
C119 H141 0.931 . S
C120 C121 1.359 . S
C120 C122 1.364 . S
C121 C119 1.374 . S
C121 C120 1.359 . S
C121 H142 0.931 . S
C122 C118 1.389 . S
C122 C120 1.364 . S
C122 H143 0.931 . S
C123 O134 1.256 . S
C123 O135 1.257 1_655 S
O124 Gd104 2.377 . S
O124 C106 1.240 . S
O125 Gd105 2.395 1_455 S
O125 C106 1.240 . S
O126 Gd104 2.448 . S
O126 C107 1.249 . S
O127 Gd104 2.506 . S
O127 C107 1.252 . S
O128 Gd104 2.435 . S
O128 C114 1.256 1_545 S
O129 Gd104 2.717 . S
O129 Gd105 2.327 1_455 S
O129 C114 1.257 1_545 S
O130 Gd105 2.377 1_565 S
O130 C115 1.240 . S
O131 Gd104 2.395 1_565 S
O131 C115 1.240 1_455 S
O132 Gd105 2.448 1_565 S
O132 C116 1.249 . S
O133 Gd105 2.506 1_565 S
O133 C116 1.252 . S
O134 Gd105 2.435 . S
O134 C123 1.256 . S
O135 Gd104 2.327 . S
O135 Gd105 2.717 1_455 S
O135 C123 1.257 1_455 S
H136 C109 0.930 . S
H137 C110 0.931 . S
H138 C112 0.931 . S
H139 C113 0.931 . S
H140 C118 0.930 . S
H141 C119 0.931 . S
H142 C121 0.931 . S
H143 C122 0.931 . S
Gd144 C147 2.818 . S
Gd144 O164 2.377 . S
Gd144 O166 2.448 . S
Gd144 O167 2.506 . S
Gd144 O168 2.435 1_545 S
Gd144 O169 2.717 . S
Gd144 O171 2.395 . S
Gd144 O175 2.327 . S
Gd145 C156 2.818 1_554 S
Gd145 O165 2.395 . S
Gd145 O169 2.327 . S
Gd145 O170 2.377 1_554 S
Gd145 O172 2.448 1_554 S
Gd145 O173 2.506 1_544 S
Gd145 O174 2.435 1_554 S
Gd145 O175 2.717 . S
C146 O164 1.240 . S
C146 O165 1.240 . S
C147 Gd144 2.818 . S
C147 C148 1.510 . S
C147 O166 1.249 . S
C147 O167 1.252 . S
C148 C147 1.510 . S
C148 C149 1.404 . S
C148 C150 1.352 . S
C149 C148 1.404 . S
C149 C153 1.389 . S
C149 H176 0.930 . S
C150 C148 1.352 . S
C150 C152 1.374 . S
C150 H177 0.931 . S
C151 C152 1.359 . S
C151 C153 1.364 . S
C152 C150 1.374 . S
C152 C151 1.359 . S
C152 H178 0.931 . S
C153 C149 1.389 . S
C153 C151 1.364 . S
C153 H179 0.931 . S
C154 O168 1.256 . S
C154 O169 1.257 1_565 S
C155 O170 1.252 1_554 S
C155 O171 1.249 . S
C156 Gd145 2.818 1_556 S
C156 C157 1.510 1_545 S
C156 O172 1.249 . S
C156 O173 1.252 1_545 S
C157 C156 1.510 1_565 S
C157 C158 1.404 . S
C157 C159 1.352 . S
C158 C157 1.404 . S
C158 C162 1.389 . S
C158 H180 0.930 1_565 S
C159 C157 1.352 . S
C159 C161 1.374 . S
C159 H181 0.931 . S
C160 C161 1.359 . S
C160 C162 1.364 . S
C161 C159 1.374 . S
C161 C160 1.359 . S
C161 H182 0.931 . S
C162 C158 1.389 . S
C162 C160 1.364 . S
C162 H183 0.931 . S
C163 O174 1.256 1_554 S
C163 O175 1.257 . S
O164 Gd144 2.377 . S
O164 C146 1.240 . S
O165 Gd145 2.395 . S
O165 C146 1.240 . S
O166 Gd144 2.448 . S
O166 C147 1.249 . S
O167 Gd144 2.506 . S
O167 C147 1.252 . S
O168 Gd144 2.435 1_565 S
O168 C154 1.256 . S
O169 Gd144 2.717 . S
O169 Gd145 2.327 . S
O169 C154 1.257 1_545 S
O170 Gd145 2.377 1_556 S
O170 C155 1.252 1_556 S
O171 Gd144 2.395 . S
O171 C155 1.249 . S
O172 Gd145 2.448 1_556 S
O172 C156 1.249 . S
O173 Gd145 2.506 1_566 S
O173 C156 1.252 1_565 S
O174 Gd145 2.435 1_556 S
O174 C163 1.256 1_556 S
O175 Gd144 2.327 . S
O175 Gd145 2.717 . S
O175 C163 1.257 . S
H176 C149 0.930 . S
H177 C150 0.931 . S
H178 C152 0.931 . S
H179 C153 0.931 . S
H180 C158 0.930 1_545 S
H181 C159 0.931 . S
H182 C161 0.931 . S
H183 C162 0.931 . S
Gd184 C187 2.818 . S
Gd184 O204 2.377 . S
Gd184 O206 2.448 . S
Gd184 O207 2.506 . S
Gd184 O208 2.435 . S
Gd184 O209 2.717 . S
Gd184 O211 2.395 . S
Gd184 O215 2.327 . S
Gd185 C196 2.818 . S
Gd185 O205 2.395 . S
Gd185 O209 2.327 . S
Gd185 O210 2.377 . S
Gd185 O212 2.448 . S
Gd185 O213 2.506 . S
Gd185 O214 2.435 . S
Gd185 O215 2.717 . S
C186 O204 1.240 . S
C186 O205 1.240 . S
C187 Gd184 2.818 . S
C187 C188 1.510 . S
C187 O206 1.249 . S
C187 O207 1.252 . S
C188 C187 1.510 . S
C188 C189 1.404 . S
C188 C190 1.352 . S
C189 C188 1.404 . S
C189 C193 1.389 . S
C189 H216 0.930 . S
C190 C188 1.352 . S
C190 C192 1.374 . S
C190 H217 0.931 . S
C191 C192 1.359 . S
C191 C193 1.364 . S
C192 C190 1.374 . S
C192 C191 1.359 . S
C192 H218 0.931 . S
C193 C189 1.389 . S
C193 C191 1.364 . S
C193 H219 0.931 . S
C194 O208 1.256 . S
C194 O209 1.257 . S
C195 O210 1.240 . S
C195 O211 1.240 . S
C196 Gd185 2.818 . S
C196 C197 1.510 . S
C196 O212 1.249 . S
C196 O213 1.252 . S
C197 C196 1.510 . S
C197 C198 1.404 . S
C197 C199 1.352 . S
C198 C197 1.404 . S
C198 C202 1.389 . S
C198 H220 0.930 . S
C199 C197 1.352 . S
C199 C201 1.374 . S
C199 H221 0.931 . S
C200 C201 1.359 . S
C200 C202 1.364 . S
C201 C199 1.374 . S
C201 C200 1.359 . S
C201 H222 0.931 . S
C202 C198 1.389 . S
C202 C200 1.364 . S
C202 H223 0.931 . S
C203 O214 1.256 . S
C203 O215 1.257 . S
O204 Gd184 2.377 . S
O204 C186 1.240 . S
O205 Gd185 2.395 . S
O205 C186 1.240 . S
O206 Gd184 2.448 . S
O206 C187 1.249 . S
O207 Gd184 2.506 . S
O207 C187 1.252 . S
O208 Gd184 2.435 . S
O208 C194 1.256 . S
O209 Gd184 2.717 . S
O209 Gd185 2.327 . S
O209 C194 1.257 . S
O210 Gd185 2.377 . S
O210 C195 1.240 . S
O211 Gd184 2.395 . S
O211 C195 1.240 . S
O212 Gd185 2.448 . S
O212 C196 1.249 . S
O213 Gd185 2.506 . S
O213 C196 1.252 . S
O214 Gd185 2.435 . S
O214 C203 1.256 . S
O215 Gd184 2.327 . S
O215 Gd185 2.717 . S
O215 C203 1.257 . S
H216 C189 0.930 . S
H217 C190 0.931 . S
H218 C192 0.931 . S
H219 C193 0.931 . S
H220 C198 0.930 . S
H221 C199 0.931 . S
H222 C201 0.931 . S
H223 C202 0.931 . S
Gd224 C227 2.818 . S
Gd224 O244 2.377 . S
Gd224 O246 2.448 . S
Gd224 O247 2.506 . S
Gd224 O248 2.435 1_455 S
Gd224 O249 2.717 1_455 S
Gd224 O251 2.395 1_455 S
Gd224 O255 2.327 1_554 S
Gd225 C236 2.818 . S
Gd225 O245 2.395 1_656 S
Gd225 O249 2.327 1_556 S
Gd225 O250 2.377 . S
Gd225 O252 2.448 . S
Gd225 O253 2.506 . S
Gd225 O254 2.435 1_655 S
Gd225 O255 2.717 1_655 S
C226 O244 1.240 . S
C226 O245 1.240 . S
C227 Gd224 2.818 . S
C227 C228 1.510 . S
C227 O246 1.249 . S
C227 O247 1.252 . S
C228 C227 1.510 . S
C228 C229 1.404 . S
C228 C230 1.352 . S
C229 C228 1.404 . S
C229 C233 1.389 . S
C229 H256 0.930 . S
C230 C228 1.352 . S
C230 C232 1.374 . S
C230 H257 0.931 . S
C231 C232 1.359 . S
C231 C233 1.364 . S
C232 C230 1.374 . S
C232 C231 1.359 . S
C232 H258 0.931 . S
C233 C229 1.389 . S
C233 C231 1.364 . S
C233 H259 0.931 . S
C234 O248 1.256 . S
C234 O249 1.257 . S
C235 O250 1.240 . S
C235 O251 1.240 1_556 S
C236 Gd225 2.818 . S
C236 C237 1.510 . S
C236 O252 1.249 . S
C236 O253 1.252 . S
C237 C236 1.510 . S
C237 C238 1.404 . S
C237 C239 1.352 . S
C238 C237 1.404 . S
C238 C242 1.389 . S
C238 H260 0.930 . S
C239 C237 1.352 . S
C239 C241 1.374 . S
C239 H261 0.931 . S
C240 C241 1.359 . S
C240 C242 1.364 . S
C241 C239 1.374 . S
C241 C240 1.359 . S
C241 H262 0.931 . S
C242 C238 1.389 . S
C242 C240 1.364 . S
C242 H263 0.931 . S
C243 O254 1.256 . S
C243 O255 1.257 . S
O244 Gd224 2.377 . S
O244 C226 1.240 . S
O245 Gd225 2.395 1_454 S
O245 C226 1.240 . S
O246 Gd224 2.448 . S
O246 C227 1.249 . S
O247 Gd224 2.506 . S
O247 C227 1.252 . S
O248 Gd224 2.435 1_655 S
O248 C234 1.256 . S
O249 Gd224 2.717 1_655 S
O249 Gd225 2.327 1_554 S
O249 C234 1.257 . S
O250 Gd225 2.377 . S
O250 C235 1.240 . S
O251 Gd224 2.395 1_655 S
O251 C235 1.240 1_554 S
O252 Gd225 2.448 . S
O252 C236 1.249 . S
O253 Gd225 2.506 . S
O253 C236 1.252 . S
O254 Gd225 2.435 1_455 S
O254 C243 1.256 . S
O255 Gd224 2.327 1_556 S
O255 Gd225 2.717 1_455 S
O255 C243 1.257 . S
H256 C229 0.930 . S
H257 C230 0.931 . S
H258 C232 0.931 . S
H259 C233 0.931 . S
H260 C238 0.930 . S
H261 C239 0.931 . S
H262 C241 0.931 . S
H263 C242 0.931 . S
H264 C270 0.930 . S
H265 C273 0.930 . S
H266 C274 0.930 . S
H267 C275 0.930 . S
H268 C278 0.930 . S
H269 C279 0.930 . S
C270 H264 0.930 . S
C270 C271 1.355 . S
C270 C272 1.415 . S
C271 C270 1.355 . S
C271 C273 1.419 . S
C272 C270 1.415 . S
C272 C277 1.425 . S
C272 C279 1.409 . S
C273 H265 0.930 . S
C273 C271 1.419 . S
C273 C274 1.362 . S
C274 H266 0.930 . S
C274 C273 1.362 . S
C274 C277 1.409 . S
C275 H267 0.930 . S
C275 C276 1.355 . S
C275 C277 1.415 . S
C276 C275 1.355 . S
C276 C278 1.419 . S
C277 C272 1.425 . S
C277 C274 1.409 . S
C277 C275 1.415 . S
C278 H268 0.930 . S
C278 C276 1.419 . S
C278 C279 1.362 . S
C279 H269 0.930 . S
C279 C272 1.409 . S
C279 C278 1.362 . S
H280 C286 0.930 . S
H281 C289 0.930 . S
H282 C290 0.930 . S
H283 C291 0.930 . S
H284 C294 0.930 . S
H285 C295 0.930 . S
C286 H280 0.930 . S
C286 C287 1.355 . S
C286 C288 1.415 . S
C287 C286 1.355 . S
C287 C289 1.419 . S
C288 C286 1.415 . S
C288 C293 1.425 . S
C288 C295 1.409 . S
C289 H281 0.930 . S
C289 C287 1.419 . S
C289 C290 1.362 . S
C290 H282 0.930 . S
C290 C289 1.362 . S
C290 C293 1.409 . S
C291 H283 0.930 . S
C291 C292 1.355 . S
C291 C293 1.415 . S
C292 C291 1.355 . S
C292 C294 1.419 . S
C293 C288 1.425 . S
C293 C290 1.409 . S
C293 C291 1.415 . S
C294 H284 0.930 . S
C294 C292 1.419 . S
C294 C295 1.362 . S
C295 H285 0.930 . S
C295 C288 1.409 . S
C295 C294 1.362 . S
H296 C302 0.930 . S
H297 C305 0.930 . S
H298 C306 0.930 . S
H299 C307 0.930 . S
H300 C310 0.930 . S
H301 C311 0.930 . S
C302 H296 0.930 . S
C302 C303 1.355 . S
C302 C304 1.415 . S
C303 C302 1.355 . S
C303 C305 1.419 . S
C304 C302 1.415 . S
C304 C309 1.425 . S
C304 C311 1.409 . S
C305 H297 0.930 . S
C305 C303 1.419 . S
C305 C306 1.362 . S
C306 H298 0.930 . S
C306 C305 1.362 . S
C306 C309 1.409 . S
C307 H299 0.930 . S
C307 C308 1.355 . S
C307 C309 1.415 . S
C308 C307 1.355 . S
C308 C310 1.419 . S
C309 C304 1.425 . S
C309 C306 1.409 . S
C309 C307 1.415 . S
C310 H300 0.930 . S
C310 C308 1.419 . S
C310 C311 1.362 . S
C311 H301 0.930 . S
C311 C304 1.409 . S
C311 C310 1.362 . S
H312 C318 0.930 . S
H313 C321 0.930 . S
H314 C322 0.930 . S
H315 C323 0.930 . S
H316 C326 0.930 . S
H317 C327 0.930 . S
C318 H312 0.930 . S
C318 C319 1.355 . S
C318 C320 1.415 . S
C319 C318 1.355 . S
C319 C321 1.419 . S
C320 C318 1.415 . S
C320 C325 1.425 . S
C320 C327 1.409 . S
C321 H313 0.930 . S
C321 C319 1.419 . S
C321 C322 1.362 . S
C322 H314 0.930 . S
C322 C321 1.362 . S
C322 C325 1.409 . S
C323 H315 0.930 . S
C323 C324 1.355 . S
C323 C325 1.415 . S
C324 C323 1.355 . S
C324 C326 1.419 . S
C325 C320 1.425 . S
C325 C322 1.409 . S
C325 C323 1.415 . S
C326 H316 0.930 . S
C326 C324 1.419 . S
C326 C327 1.362 . S
C327 H317 0.930 . S
C327 C320 1.409 . S
C327 C326 1.362 . S
H328 C334 0.930 . S
H329 C337 0.930 . S
H330 C338 0.930 . S
H331 C339 0.930 . S
H332 C342 0.930 . S
H333 C343 0.930 . S
C334 H328 0.930 . S
C334 C335 1.355 . S
C334 C336 1.415 . S
C335 C334 1.355 . S
C335 C337 1.419 . S
C336 C334 1.415 . S
C336 C341 1.425 . S
C336 C343 1.409 . S
C337 H329 0.930 . S
C337 C335 1.419 . S
C337 C338 1.362 . S
C338 H330 0.930 . S
C338 C337 1.362 . S
C338 C341 1.409 . S
C339 H331 0.930 . S
C339 C340 1.355 . S
C339 C341 1.415 . S
C340 C339 1.355 . S
C340 C342 1.419 . S
C341 C336 1.425 . S
C341 C338 1.409 . S
C341 C339 1.415 . S
C342 H332 0.930 . S
C342 C340 1.419 . S
C342 C343 1.362 . S
C343 H333 0.930 . S
C343 C336 1.409 . S
C343 C342 1.362 . S
H344 C350 0.930 . S
H345 C353 0.930 . S
H346 C354 0.930 . S
H347 C355 0.930 . S
H348 C358 0.944 . S
H349 C359 0.930 . S
C350 H344 0.930 . S
C350 C351 1.355 . S
C350 C352 1.415 . S
C351 C350 1.355 . S
C351 C353 1.419 . S
C352 C350 1.415 . S
C352 C357 1.425 . S
C352 C359 1.409 . S
C353 H345 0.930 . S
C353 C351 1.419 . S
C353 C354 1.362 . S
C354 H346 0.930 . S
C354 C353 1.362 . S
C354 C357 1.409 . S
C355 H347 0.930 . S
C355 C356 1.355 . S
C355 C357 1.415 . S
C356 C355 1.355 . S
C356 C358 1.416 1_565 S
C357 C352 1.425 . S
C357 C354 1.409 . S
C357 C355 1.415 . S
C358 H348 0.944 . S
C358 C356 1.416 1_545 S
C358 C359 1.351 1_545 S
C359 H349 0.930 . S
C359 C352 1.409 . S
C359 C358 1.351 1_565 S
H360 C366 0.930 . S
H361 C369 0.930 . S
H362 C370 0.930 . S
H363 C371 0.930 . S
H364 C374 0.930 1_554 S
H365 C375 0.930 . S
C366 H360 0.930 . S
C366 C367 1.355 . S
C366 C368 1.415 . S
C367 C366 1.355 . S
C367 C369 1.419 . S
C368 C366 1.415 . S
C368 C373 1.425 . S
C368 C375 1.409 . S
C369 H361 0.930 . S
C369 C367 1.419 . S
C369 C370 1.362 . S
C370 H362 0.930 . S
C370 C369 1.362 . S
C370 C373 1.409 . S
C371 H363 0.930 . S
C371 C372 1.355 . S
C371 C373 1.415 . S
C372 C371 1.355 . S
C372 C374 1.419 . S
C373 C368 1.425 . S
C373 C370 1.409 . S
C373 C371 1.415 . S
C374 H364 0.930 1_556 S
C374 C372 1.419 . S
C374 C375 1.362 . S
C375 H365 0.930 . S
C375 C368 1.409 . S
C375 C374 1.362 . S
H376 C382 0.930 . S
H377 C385 0.930 . S
H378 C386 0.930 . S
H379 C387 0.930 . S
H380 C390 0.930 . S
H381 C391 0.930 . S
C382 H376 0.930 . S
C382 C383 1.355 . S
C382 C384 1.415 . S
C383 C382 1.355 . S
C383 C385 1.419 . S
C384 C382 1.415 . S
C384 C389 1.425 . S
C384 C391 1.409 . S
C385 H377 0.930 . S
C385 C383 1.419 . S
C385 C386 1.362 . S
C386 H378 0.930 . S
C386 C385 1.362 . S
C386 C389 1.409 . S
C387 H379 0.930 . S
C387 C388 1.355 . S
C387 C389 1.415 . S
C388 C387 1.355 . S
C388 C390 1.419 . S
C389 C384 1.425 . S
C389 C386 1.409 . S
C389 C387 1.415 . S
C390 H380 0.930 . S
C390 C388 1.419 . S
C390 C391 1.362 . S
C391 H381 0.930 . S
C391 C384 1.409 . S
C391 C390 1.362 . S
H392 C398 0.930 . S
H393 C401 0.930 . S
H394 C402 0.930 . S
H395 C403 0.930 . S
H396 C406 0.930 . S
H397 C407 0.930 . S
C398 H392 0.930 . S
C398 C399 1.355 . S
C398 C400 1.415 . S
C399 C398 1.355 . S
C399 C401 1.419 . S
C400 C398 1.415 . S
C400 C405 1.425 . S
C400 C407 1.409 . S
C401 H393 0.930 . S
C401 C399 1.419 . S
C401 C402 1.362 . S
C402 H394 0.930 . S
C402 C401 1.362 . S
C402 C405 1.409 . S
C403 H395 0.930 . S
C403 C404 1.355 . S
C403 C405 1.415 . S
C404 C403 1.355 . S
C404 C406 1.419 . S
C405 C400 1.425 . S
C405 C402 1.409 . S
C405 C403 1.415 . S
C406 H396 0.930 . S
C406 C404 1.419 . S
C406 C407 1.362 . S
C407 H397 0.930 . S
C407 C400 1.409 . S
C407 C406 1.362 . S
H408 C414 0.930 . S
H409 C417 0.930 . S
H410 C418 0.930 . S
H411 C419 0.930 . S
H412 C422 0.930 . S
H413 C423 0.930 . S
C414 H408 0.930 . S
C414 C415 1.355 . S
C414 C416 1.415 . S
C415 C414 1.355 . S
C415 C417 1.419 . S
C416 C414 1.415 . S
C416 C421 1.425 . S
C416 C423 1.409 . S
C417 H409 0.930 . S
C417 C415 1.419 . S
C417 C418 1.362 . S
C418 H410 0.930 . S
C418 C417 1.362 . S
C418 C421 1.409 . S
C419 H411 0.930 . S
C419 C420 1.355 . S
C419 C421 1.415 . S
C420 C419 1.355 . S
C420 C422 1.419 . S
C421 C416 1.425 . S
C421 C418 1.409 . S
C421 C419 1.415 . S
C422 H412 0.930 . S
C422 C420 1.419 . S
C422 C423 1.362 . S
C423 H413 0.930 . S
C423 C416 1.409 . S
C423 C422 1.362 . S
H424 C430 0.930 . S
H425 C433 0.930 . S
H426 C434 0.930 . S
H427 C435 0.930 . S
H428 C438 0.930 1_455 S
H429 C439 0.930 . S
C430 H424 0.930 . S
C430 C431 1.355 . S
C430 C432 1.415 . S
C431 C430 1.355 . S
C431 C433 1.419 . S
C432 C430 1.415 . S
C432 C437 1.425 . S
C432 C439 1.409 . S
C433 H425 0.930 . S
C433 C431 1.419 . S
C433 C434 1.362 . S
C434 H426 0.930 . S
C434 C433 1.362 . S
C434 C437 1.409 . S
C435 H427 0.930 . S
C435 C436 1.355 . S
C435 C437 1.415 . S
C436 C435 1.355 . S
C436 C438 1.419 . S
C437 C432 1.425 . S
C437 C434 1.409 . S
C437 C435 1.415 . S
C438 H428 0.930 1_655 S
C438 C436 1.419 . S
C438 C439 1.362 . S
C439 H429 0.930 . S
C439 C432 1.409 . S
C439 C438 1.362 . S
H440 C446 0.930 . S
H441 C449 0.930 . S
H442 C450 0.930 . S
H443 C451 0.930 . S
H444 C454 0.930 . S
H445 C455 0.930 . S
C446 H440 0.930 . S
C446 C447 1.355 . S
C446 C448 1.415 . S
C447 C446 1.355 . S
C447 C449 1.419 . S
C448 C446 1.415 . S
C448 C453 1.425 . S
C448 C455 1.409 . S
C449 H441 0.930 . S
C449 C447 1.419 . S
C449 C450 1.362 . S
C450 H442 0.930 . S
C450 C449 1.362 . S
C450 C453 1.409 . S
C451 H443 0.930 . S
C451 C452 1.355 . S
C451 C453 1.415 . S
C452 C451 1.355 . S
C452 C454 1.419 . S
C453 C448 1.425 . S
C453 C450 1.409 . S
C453 C451 1.415 . S
C454 H444 0.930 . S
C454 C452 1.419 . S
C454 C455 1.362 . S
C455 H445 0.930 . S
C455 C448 1.409 . S
C455 C454 1.362 . S
H456 C462 0.930 . S
H457 C465 0.930 . S
H458 C466 0.930 . S
H459 C467 0.930 . S
H460 C470 0.930 . S
H461 C471 0.930 . S
C462 H456 0.930 . S
C462 C463 1.355 . S
C462 C464 1.415 . S
C463 C462 1.355 . S
C463 C465 1.419 . S
C464 C462 1.415 . S
C464 C469 1.425 . S
C464 C471 1.409 . S
C465 H457 0.930 . S
C465 C463 1.419 . S
C465 C466 1.362 . S
C466 H458 0.930 . S
C466 C465 1.362 . S
C466 C469 1.409 . S
C467 H459 0.930 . S
C467 C468 1.355 . S
C467 C469 1.415 . S
C468 C467 1.355 . S
C468 C470 1.419 . S
C469 C464 1.425 . S
C469 C466 1.409 . S
C469 C467 1.415 . S
C470 H460 0.930 . S
C470 C468 1.419 . S
C470 C471 1.362 . S
C471 H461 0.930 . S
C471 C464 1.409 . S
C471 C470 1.362 . S
H472 C478 0.930 . S
H473 C481 0.930 . S
H474 C482 0.930 . S
H475 C483 0.930 . S
H476 C486 0.930 . S
H477 C487 0.930 . S
C478 H472 0.930 . S
C478 C479 1.355 . S
C478 C480 1.415 . S
C479 C478 1.355 . S
C479 C481 1.419 . S
C480 C478 1.415 . S
C480 C485 1.425 . S
C480 C487 1.409 . S
C481 H473 0.930 . S
C481 C479 1.419 . S
C481 C482 1.362 . S
C482 H474 0.930 . S
C482 C481 1.362 . S
C482 C485 1.409 . S
C483 H475 0.930 . S
C483 C484 1.355 . S
C483 C485 1.415 . S
C484 C483 1.355 . S
C484 C486 1.419 . S
C485 C480 1.425 . S
C485 C482 1.409 . S
C485 C483 1.415 . S
C486 H476 0.930 . S
C486 C484 1.419 . S
C486 C487 1.362 . S
C487 H477 0.930 . S
C487 C480 1.409 . S
C487 C486 1.362 . S
H488 C494 0.930 . S
H489 C497 0.930 . S
H490 C498 0.930 . S
H491 C499 0.930 . S
H492 C502 0.930 . S
H493 C503 0.930 . S
C494 H488 0.930 . S
C494 C495 1.355 . S
C494 C496 1.415 . S
C495 C494 1.355 . S
C495 C497 1.419 . S
C496 C494 1.415 . S
C496 C501 1.425 . S
C496 C503 1.409 . S
C497 H489 0.930 . S
C497 C495 1.419 . S
C497 C498 1.362 . S
C498 H490 0.930 . S
C498 C497 1.362 . S
C498 C501 1.409 . S
C499 H491 0.930 . S
C499 C500 1.355 . S
C499 C501 1.415 . S
C500 C499 1.355 . S
C500 C502 1.419 . S
C501 C496 1.425 . S
C501 C498 1.409 . S
C501 C499 1.415 . S
C502 H492 0.930 . S
C502 C500 1.419 . S
C502 C503 1.362 . S
C503 H493 0.930 . S
C503 C496 1.409 . S
C503 C502 1.362 . S
H504 C510 0.930 . S
H505 C513 0.930 . S
H506 C514 0.930 . S
H507 C515 0.930 . S
H508 C518 0.930 . S
H509 C519 0.930 . S
C510 H504 0.930 . S
C510 C511 1.355 . S
C510 C512 1.415 . S
C511 C510 1.355 . S
C511 C513 1.419 . S
C512 C510 1.415 . S
C512 C517 1.425 . S
C512 C519 1.409 . S
C513 H505 0.930 . S
C513 C511 1.419 . S
C513 C514 1.362 . S
C514 H506 0.930 . S
C514 C513 1.362 . S
C514 C517 1.409 . S
C515 H507 0.930 . S
C515 C516 1.355 . S
C515 C517 1.415 . S
C516 C515 1.355 . S
C516 C518 1.419 . S
C517 C512 1.425 . S
C517 C514 1.409 . S
C517 C515 1.415 . S
C518 H508 0.930 . S
C518 C516 1.419 . S
C518 C519 1.362 . S
C519 H509 0.930 . S
C519 C512 1.409 . S
C519 C518 1.362 . S
H520 C526 0.930 . S
H521 C529 0.930 . S
H522 C530 0.930 . S
H523 C531 0.930 . S
H524 C534 0.930 . S
H525 C535 0.930 . S
C526 H520 0.930 . S
C526 C527 1.355 . S
C526 C528 1.415 . S
C527 C526 1.355 . S
C527 C529 1.419 . S
C528 C526 1.415 . S
C528 C533 1.425 . S
C528 C535 1.409 . S
C529 H521 0.930 . S
C529 C527 1.419 . S
C529 C530 1.362 . S
C530 H522 0.930 . S
C530 C529 1.362 . S
C530 C533 1.409 . S
C531 H523 0.930 . S
C531 C532 1.355 . S
C531 C533 1.415 . S
C532 C531 1.355 . S
C532 C534 1.419 . S
C533 C528 1.425 . S
C533 C530 1.409 . S
C533 C531 1.415 . S
C534 H524 0.930 . S
C534 C532 1.419 . S
C534 C535 1.362 . S
C535 H525 0.930 . S
C535 C528 1.409 . S
C535 C534 1.362 . S
H536 C542 0.930 . S
H537 C545 0.930 . S
H538 C546 0.930 . S
H539 C547 0.930 . S
H540 C550 0.930 . S
H541 C551 0.930 . S
C542 H536 0.930 . S
C542 C543 1.355 . S
C542 C544 1.415 . S
C543 C542 1.355 . S
C543 C545 1.419 . S
C544 C542 1.415 . S
C544 C549 1.425 . S
C544 C551 1.409 . S
C545 H537 0.930 . S
C545 C543 1.419 . S
C545 C546 1.362 . S
C546 H538 0.930 . S
C546 C545 1.362 . S
C546 C549 1.409 . S
C547 H539 0.930 . S
C547 C548 1.355 . S
C547 C549 1.415 . S
C548 C547 1.355 . S
C548 C550 1.419 . S
C549 C544 1.425 . S
C549 C546 1.409 . S
C549 C547 1.415 . S
C550 H540 0.930 . S
C550 C548 1.419 . S
C550 C551 1.362 . S
C551 H541 0.930 . S
C551 C544 1.409 . S
C551 C550 1.362 . S
H552 C558 0.930 . S
H553 C561 0.930 . S
H554 C562 0.930 . S
H555 C563 0.930 . S
H556 C566 0.930 . S
H557 C567 0.930 . S
C558 H552 0.930 . S
C558 C559 1.355 . S
C558 C560 1.415 . S
C559 C558 1.355 . S
C559 C561 1.419 . S
C560 C558 1.415 . S
C560 C565 1.425 . S
C560 C567 1.409 . S
C561 H553 0.930 . S
C561 C559 1.419 . S
C561 C562 1.362 . S
C562 H554 0.930 . S
C562 C561 1.362 . S
C562 C565 1.409 . S
C563 H555 0.930 . S
C563 C564 1.355 . S
C563 C565 1.415 . S
C564 C563 1.355 . S
C564 C566 1.419 . S
C565 C560 1.425 . S
C565 C562 1.409 . S
C565 C563 1.415 . S
C566 H556 0.930 . S
C566 C564 1.419 . S
C566 C567 1.362 . S
C567 H557 0.930 . S
C567 C560 1.409 . S
C567 C566 1.362 . S
H568 C574 0.930 . S
H569 C577 0.930 . S
H570 C578 0.930 . S
H571 C579 0.930 . S
H572 C582 0.930 . S
H573 C583 0.930 . S
C574 H568 0.930 . S
C574 C575 1.355 . S
C574 C576 1.415 . S
C575 C574 1.355 . S
C575 C577 1.419 . S
C576 C574 1.415 . S
C576 C581 1.425 . S
C576 C583 1.409 . S
C577 H569 0.930 . S
C577 C575 1.419 . S
C577 C578 1.362 . S
C578 H570 0.930 . S
C578 C577 1.362 . S
C578 C581 1.409 . S
C579 H571 0.930 . S
C579 C580 1.355 . S
C579 C581 1.415 . S
C580 C579 1.355 . S
C580 C582 1.419 . S
C581 C576 1.425 . S
C581 C578 1.409 . S
C581 C579 1.415 . S
C582 H572 0.930 . S
C582 C580 1.419 . S
C582 C583 1.362 . S
C583 H573 0.930 . S
C583 C576 1.409 . S
C583 C582 1.362 . S
H584 C590 0.930 . S
H585 C593 0.930 . S
H586 C594 0.930 . S
H587 C595 0.930 . S
H588 C598 0.930 . S
H589 C599 0.930 . S
C590 H584 0.930 . S
C590 C591 1.355 . S
C590 C592 1.415 . S
C591 C590 1.355 . S
C591 C593 1.419 . S
C592 C590 1.415 . S
C592 C597 1.425 . S
C592 C599 1.409 . S
C593 H585 0.930 . S
C593 C591 1.419 . S
C593 C594 1.362 . S
C594 H586 0.930 . S
C594 C593 1.362 . S
C594 C597 1.409 . S
C595 H587 0.930 . S
C595 C596 1.355 . S
C595 C597 1.415 . S
C596 C595 1.355 . S
C596 C598 1.419 . S
C597 C592 1.425 . S
C597 C594 1.409 . S
C597 C595 1.415 . S
C598 H588 0.930 . S
C598 C596 1.419 . S
C598 C599 1.362 . S
C599 H589 0.930 . S
C599 C592 1.409 . S
C599 C598 1.362 . S
H600 C606 0.930 . S
H601 C609 0.930 . S
H602 C610 0.930 . S
H603 C611 0.930 . S
H604 C614 0.930 . S
H605 C615 0.930 . S
C606 H600 0.930 . S
C606 C607 1.355 . S
C606 C608 1.415 . S
C607 C606 1.355 . S
C607 C609 1.419 . S
C608 C606 1.415 . S
C608 C613 1.425 . S
C608 C615 1.409 . S
C609 H601 0.930 . S
C609 C607 1.419 . S
C609 C610 1.362 . S
C610 H602 0.930 . S
C610 C609 1.362 . S
C610 C613 1.409 . S
C611 H603 0.930 . S
C611 C612 1.355 . S
C611 C613 1.415 . S
C612 C611 1.355 . S
C612 C614 1.419 . S
C613 C608 1.425 . S
C613 C610 1.409 . S
C613 C611 1.415 . S
C614 H604 0.930 . S
C614 C612 1.419 . S
C614 C615 1.362 . S
C615 H605 0.930 . S
C615 C608 1.409 . S
C615 C614 1.362 . S
H616 C622 0.930 . S
H617 C625 0.930 . S
H618 C626 0.930 . S
H619 C627 0.930 . S
H620 C630 0.930 . S
H621 C631 0.930 . S
C622 H616 0.930 . S
C622 C623 1.355 . S
C622 C624 1.415 . S
C623 C622 1.355 . S
C623 C625 1.419 . S
C624 C622 1.415 . S
C624 C629 1.425 . S
C624 C631 1.409 . S
C625 H617 0.930 . S
C625 C623 1.419 . S
C625 C626 1.362 . S
C626 H618 0.930 . S
C626 C625 1.362 . S
C626 C629 1.409 . S
C627 H619 0.930 . S
C627 C628 1.355 . S
C627 C629 1.415 . S
C628 C627 1.355 . S
C628 C630 1.419 . S
C629 C624 1.425 . S
C629 C626 1.409 . S
C629 C627 1.415 . S
C630 H620 0.930 . S
C630 C628 1.419 . S
C630 C631 1.362 . S
C631 H621 0.930 . S
C631 C624 1.409 . S
C631 C630 1.362 . S
H632 C638 0.930 . S
H633 C641 0.930 . S
H634 C642 0.930 . S
H635 C643 0.930 . S
H636 C646 0.930 . S
H637 C647 0.930 . S
C638 H632 0.930 . S
C638 C639 1.355 . S
C638 C640 1.415 . S
C639 C638 1.355 . S
C639 C641 1.419 . S
C640 C638 1.415 . S
C640 C645 1.425 . S
C640 C647 1.409 . S
C641 H633 0.930 . S
C641 C639 1.419 . S
C641 C642 1.362 . S
C642 H634 0.930 . S
C642 C641 1.362 . S
C642 C645 1.409 . S
C643 H635 0.930 . S
C643 C644 1.355 . S
C643 C645 1.415 . S
C644 C643 1.355 . S
C644 C646 1.419 . S
C645 C640 1.425 . S
C645 C642 1.409 . S
C645 C643 1.415 . S
C646 H636 0.930 . S
C646 C644 1.419 . S
C646 C647 1.362 . S
C647 H637 0.930 . S
C647 C640 1.409 . S
C647 C646 1.362 . S
C271 N1 1.008 . S
C276 C111 0.984 . S
C287 N18 1.125 . S
C292 C160 1.161 . S
C308 C186 2.106 . S
C303 N28 2.152 . S
C319 N40 2.615 . S
C324 C234 2.602 . S
C340 C146 2.314 . S
C335 N5 2.267 . S
C356 C114 0.619 . S
C351 N14 0.710 . S
C372 C235 2.017 . S
C367 N31 1.997 . S
C388 C203 1.490 . S
C383 N41 1.483 . S
C399 N2 1.344 . S
C404 C231 1.346 . S
C420 C163 2.474 1_556 S
C415 N27 2.502 . S
C431 N44 2.389 . S
C436 C115 2.456 . S
C447 N15 0.788 . S
C452 C200 0.820 . S
C468 C120 1.480 . S
C463 N57 1.465 . S
C479 N70 0.882 . S
C484 C151 0.963 . S
C495 N79 2.317 . S
C500 C195 2.348 . S
C511 N93 2.437 . S
C516 C243 2.412 . S
C527 N54 1.916 . S
C532 C155 1.991 1_566 S
C548 C123 1.398 . S
C543 N66 1.516 . S
C564 C226 1.528 . S
C559 N80 1.548 . S
C580 C194 1.716 . S
C575 N96 1.727 . S
C591 N53 1.514 . S
C596 C240 1.493 . S
C612 C154 2.162 . S
C607 N83 2.147 . S
C628 C106 2.616 . S
C623 N92 2.610 . S
C639 N67 1.065 . S
C644 C191 1.095 . S
