# Generated by pormake.
# Topology wbl, (4,4)-cn, num edge types: 1
# Building blocks:
#     Node 0, Type 0, BuildingBlock: MIFKUJ_clean_linker_1, # of connection points: 4
#     Node 1, Type 0, BuildingBlock: MIFKUJ_clean_linker_1, # of connection points: 4
#     Node 2, Type 0, BuildingBlock: MIFKUJ_clean_linker_1, # of connection points: 4
#     Node 3, Type 0, BuildingBlock: MIFKUJ_clean_linker_1, # of connection points: 4
#     Node 4, Type 0, BuildingBlock: MIFKUJ_clean_linker_1, # of connection points: 4
#     Node 5, Type 0, BuildingBlock: MIFKUJ_clean_linker_1, # of connection points: 4
#     Node 6, Type 0, BuildingBlock: MIFKUJ_clean_linker_1, # of connection points: 4
#     Node 7, Type 0, BuildingBlock: MIFKUJ_clean_linker_1, # of connection points: 4
#     Node 8, Type 1, BuildingBlock: CEKHIL_clean_sbu_0, # of connection points: 4
#     Node 9, Type 1, BuildingBlock: CEKHIL_clean_sbu_0, # of connection points: 4
#     Node 10, Type 1, BuildingBlock: CEKHIL_clean_sbu_0, # of connection points: 4
#     Node 11, Type 1, BuildingBlock: CEKHIL_clean_sbu_0, # of connection points: 4
#     Node 12, Type 1, BuildingBlock: CEKHIL_clean_sbu_0, # of connection points: 4
#     Node 13, Type 1, BuildingBlock: CEKHIL_clean_sbu_0, # of connection points: 4
#     Node 14, Type 1, BuildingBlock: CEKHIL_clean_sbu_0, # of connection points: 4
#     Node 15, Type 1, BuildingBlock: CEKHIL_clean_sbu_0, # of connection points: 4
#     Edge 16, Type (0, 1), BuildingBlock: XUDNAN_clean_linker_2, # of connection points: 2
#     Edge 17, Type (0, 1), BuildingBlock: XUDNAN_clean_linker_2, # of connection points: 2
#     Edge 18, Type (0, 1), BuildingBlock: XUDNAN_clean_linker_2, # of connection points: 2
#     Edge 19, Type (0, 1), BuildingBlock: XUDNAN_clean_linker_2, # of connection points: 2
#     Edge 20, Type (0, 1), BuildingBlock: XUDNAN_clean_linker_2, # of connection points: 2
#     Edge 21, Type (0, 1), BuildingBlock: XUDNAN_clean_linker_2, # of connection points: 2
#     Edge 22, Type (0, 1), BuildingBlock: XUDNAN_clean_linker_2, # of connection points: 2
#     Edge 23, Type (0, 1), BuildingBlock: XUDNAN_clean_linker_2, # of connection points: 2
#     Edge 24, Type (0, 1), BuildingBlock: XUDNAN_clean_linker_2, # of connection points: 2
#     Edge 25, Type (0, 1), BuildingBlock: XUDNAN_clean_linker_2, # of connection points: 2
#     Edge 26, Type (0, 1), BuildingBlock: XUDNAN_clean_linker_2, # of connection points: 2
#     Edge 27, Type (0, 1), BuildingBlock: XUDNAN_clean_linker_2, # of connection points: 2
#     Edge 28, Type (0, 1), BuildingBlock: XUDNAN_clean_linker_2, # of connection points: 2
#     Edge 29, Type (0, 1), BuildingBlock: XUDNAN_clean_linker_2, # of connection points: 2
#     Edge 30, Type (0, 1), BuildingBlock: XUDNAN_clean_linker_2, # of connection points: 2
#     Edge 31, Type (0, 1), BuildingBlock: XUDNAN_clean_linker_2, # of connection points: 2
#     Edge 32, Type (0, 1), BuildingBlock: XUDNAN_clean_linker_2, # of connection points: 2
#     Edge 33, Type (0, 1), BuildingBlock: XUDNAN_clean_linker_2, # of connection points: 2
#     Edge 34, Type (0, 1), BuildingBlock: XUDNAN_clean_linker_2, # of connection points: 2
#     Edge 35, Type (0, 1), BuildingBlock: XUDNAN_clean_linker_2, # of connection points: 2
#     Edge 36, Type (0, 1), BuildingBlock: XUDNAN_clean_linker_2, # of connection points: 2
#     Edge 37, Type (0, 1), BuildingBlock: XUDNAN_clean_linker_2, # of connection points: 2
#     Edge 38, Type (0, 1), BuildingBlock: XUDNAN_clean_linker_2, # of connection points: 2
#     Edge 39, Type (0, 1), BuildingBlock: XUDNAN_clean_linker_2, # of connection points: 2
#     Edge 40, Type (0, 1), BuildingBlock: XUDNAN_clean_linker_2, # of connection points: 2
#     Edge 41, Type (0, 1), BuildingBlock: XUDNAN_clean_linker_2, # of connection points: 2
#     Edge 42, Type (0, 1), BuildingBlock: XUDNAN_clean_linker_2, # of connection points: 2
#     Edge 43, Type (0, 1), BuildingBlock: XUDNAN_clean_linker_2, # of connection points: 2
#     Edge 44, Type (0, 1), BuildingBlock: XUDNAN_clean_linker_2, # of connection points: 2
#     Edge 45, Type (0, 1), BuildingBlock: XUDNAN_clean_linker_2, # of connection points: 2
#     Edge 46, Type (0, 1), BuildingBlock: XUDNAN_clean_linker_2, # of connection points: 2
#     Edge 47, Type (0, 1), BuildingBlock: XUDNAN_clean_linker_2, # of connection points: 2
# Relax obj value: 0.158
# Max RMSD: 0.158
# Mean RMSD: 0.137
data_MOF--net-wbl--node1-CEKHIL_clean_sbu_0--node2-MIFKUJ_clean_linker_1--edge1-XUDNAN_clean_linker_2
_symmetry_space_group_name_H-M    P1
_symmetry_Int_Tables_number       1
_symmetry_cell_setting            triclinic
loop_
_symmetry_equiv_pos_as_xyz
'x, y, z'
_cell_length_a     45.811418
_cell_length_b     46.027496
_cell_length_c     75.072498
_cell_angle_alpha  90.344633
_cell_angle_beta   90.047143
_cell_angle_gamma 90.054988
loop_
_atom_site_label
_atom_site_type_symbol
_atom_site_fract_x
_atom_site_fract_y
_atom_site_fract_z
_atom_type_partial_charge
H0 H 0.00154 0.06237 0.36044 0.0
H1 H 0.96993 0.09213 0.37868 0.0
H2 H 0.89557 0.0641 0.34723 0.0
H3 H 0.92686 0.03084 0.33111 0.0
H4 H 0.0055 0.00805 0.35811 0.0
H5 H 0.98961 0.08072 0.30886 0.0
H6 H 0.9525 0.11086 0.2948 0.0
H7 H 0.90037 0.03372 0.28492 0.0
H8 H 0.93897 0.00405 0.29724 0.0
H9 H 0.01765 0.94068 0.29393 0.0
H10 H 0.05542 0.90916 0.28093 0.0
H11 H 0.1221 0.96279 0.30526 0.0
H12 H 0.0845 0.9942 0.31786 0.0
H13 H 0.00643 0.00253 0.29205 0.0
H14 H 0.03067 0.92937 0.33453 0.0
H15 H 0.06141 0.89919 0.35357 0.0
H16 H 0.09393 0.97632 0.38003 0.0
H17 H 0.06333 0.00644 0.36084 0.0
C18 C 0.96691 0.0447 0.34398 0.0
C19 C 0.97836 0.06246 0.35755 0.0
C20 C 0.96009 0.08007 0.36784 0.0
C21 C 0.9298 0.08123 0.36449 0.0
C22 C 0.91852 0.06379 0.35059 0.0
C23 C 0.93669 0.0452 0.34085 0.0
C24 C 0.98661 0.0247 0.33394 0.0
C25 C 0.00595 0.00729 0.34367 0.0
C26 C 0.98666 0.02264 0.31509 0.0
C27 C 0.96675 0.04031 0.30418 0.0
C28 C 0.97048 0.07044 0.30312 0.0
C29 C 0.94892 0.08765 0.29531 0.0
C30 C 0.92275 0.0751 0.28899 0.0
C31 C 0.9201 0.04455 0.28926 0.0
C32 C 0.94216 0.02734 0.29645 0.0
C33 C 0.04836 0.96965 0.30687 0.0
C34 C 0.04045 0.94582 0.29617 0.0
C35 C 0.06199 0.92772 0.28892 0.0
C36 C 0.09172 0.93348 0.2921 0.0
C37 C 0.09944 0.95795 0.30237 0.0
C38 C 0.07799 0.97586 0.30965 0.0
C39 C 0.02594 0.98698 0.31632 0.0
C40 C 0.00609 0.00362 0.30649 0.0
C41 C 0.02549 0.98845 0.33512 0.0
C42 C 0.04483 0.97016 0.34622 0.0
C43 C 0.04478 0.9398 0.34423 0.0
C44 C 0.06238 0.92259 0.35508 0.0
C45 C 0.08004 0.93543 0.36826 0.0
C46 C 0.08031 0.96584 0.37008 0.0
C47 C 0.06285 0.98304 0.35916 0.0
H48 H 0.00863 0.45113 0.54166 0.0
H49 H 0.97742 0.41523 0.52691 0.0
H50 H 0.90208 0.4521 0.55342 0.0
H51 H 0.93303 0.48913 0.56679 0.0
H52 H 0.01467 0.50938 0.54353 0.0
H53 H 0.99445 0.43376 0.58652 0.0
H54 H 0.96333 0.39999 0.60329 0.0
H55 H 0.91186 0.47213 0.62237 0.0
H56 H 0.94326 0.50596 0.60592 0.0
H57 H 0.00832 0.58152 0.60161 0.0
H58 H 0.03591 0.61332 0.62188 0.0
H59 H 0.11106 0.55736 0.61641 0.0
H60 H 0.08336 0.52579 0.59605 0.0
H61 H 0.00477 0.5134 0.60942 0.0
H62 H 0.0187 0.58516 0.55951 0.0
H63 H 0.05274 0.62096 0.54762 0.0
H64 H 0.1199 0.55519 0.54458 0.0
H65 H 0.08545 0.51939 0.55673 0.0
C66 C 0.97327 0.47239 0.55565 0.0
C67 C 0.98529 0.45183 0.54392 0.0
C68 C 0.9674 0.43105 0.5357 0.0
C69 C 0.93718 0.43025 0.53922 0.0
C70 C 0.92511 0.45197 0.55022 0.0
C71 C 0.9429 0.47301 0.55812 0.0
C72 C 0.99242 0.49171 0.56642 0.0
C73 C 0.01272 0.50988 0.55793 0.0
C74 C 0.99003 0.49266 0.58522 0.0
C75 C 0.97107 0.47228 0.59504 0.0
C76 C 0.97639 0.44225 0.59427 0.0
C77 C 0.95867 0.42305 0.60373 0.0
C78 C 0.93527 0.43369 0.61384 0.0
C79 C 0.92973 0.46363 0.61446 0.0
C80 C 0.94769 0.48286 0.60522 0.0
C81 C 0.04387 0.55138 0.59747 0.0
C82 C 0.03086 0.5764 0.60462 0.0
C83 C 0.04667 0.5946 0.61606 0.0
C84 C 0.07558 0.58774 0.62069 0.0
C85 C 0.08877 0.56304 0.6131 0.0
C86 C 0.07305 0.54506 0.6015 0.0
C87 C 0.0265 0.53102 0.58651 0.0
C88 C 0.00673 0.51261 0.59502 0.0
C89 C 0.0298 0.52945 0.56787 0.0
C90 C 0.04956 0.54971 0.55871 0.0
C91 C 0.04059 0.57838 0.55595 0.0
C92 C 0.06008 0.59875 0.54915 0.0
C93 C 0.08898 0.59082 0.54506 0.0
C94 C 0.09782 0.5619 0.54767 0.0
C95 C 0.07816 0.54143 0.55441 0.0
H96 H 0.47042 0.58089 0.83952 0.0
H97 H 0.43208 0.60461 0.85686 0.0
H98 H 0.39322 0.52093 0.86751 0.0
H99 H 0.43169 0.4973 0.84996 0.0
H100 H 0.4922 0.50041 0.85723 0.0
H101 H 0.48497 0.58467 0.80555 0.0
H102 H 0.44428 0.61299 0.79341 0.0
H103 H 0.39268 0.53448 0.78941 0.0
H104 H 0.43282 0.50685 0.80231 0.0
H105 H 0.52394 0.46572 0.78573 0.0
H106 H 0.5643 0.44213 0.77 0.0
H107 H 0.62438 0.47299 0.81021 0.0
H108 H 0.58413 0.49766 0.8256 0.0
H109 H 0.5107 0.51872 0.79314 0.0
H110 H 0.53863 0.43547 0.82648 0.0
H111 H 0.57014 0.40401 0.84357 0.0
H112 H 0.56998 0.46714 0.88667 0.0
H113 H 0.54253 0.50017 0.86825 0.0
C114 C 0.45377 0.53737 0.84338 0.0
C115 C 0.45323 0.56772 0.84521 0.0
C116 C 0.43123 0.58126 0.85506 0.0
C117 C 0.40956 0.56464 0.86348 0.0
C118 C 0.40971 0.53427 0.86122 0.0
C119 C 0.43167 0.52075 0.85127 0.0
C120 C 0.47815 0.52303 0.83385 0.0
C121 C 0.49669 0.50449 0.84328 0.0
C122 C 0.48315 0.52782 0.81559 0.0
C123 C 0.46161 0.54384 0.8049 0.0
C124 C 0.46503 0.57362 0.80168 0.0
C125 C 0.4418 0.58971 0.79474 0.0
C126 C 0.41505 0.57606 0.79077 0.0
C127 C 0.4127 0.54578 0.79278 0.0
C128 C 0.43569 0.52988 0.79994 0.0
C129 C 0.55094 0.48327 0.80693 0.0
C130 C 0.54583 0.46775 0.79107 0.0
C131 C 0.56882 0.45416 0.78215 0.0
C132 C 0.59727 0.45558 0.78904 0.0
C133 C 0.6025 0.47129 0.80481 0.0
C134 C 0.57958 0.48539 0.81356 0.0
C135 C 0.52608 0.49654 0.81666 0.0
C136 C 0.50707 0.51482 0.8072 0.0
C137 C 0.52059 0.49091 0.83496 0.0
C138 C 0.53878 0.47072 0.84575 0.0
C139 C 0.54625 0.44297 0.83936 0.0
C140 C 0.56385 0.42455 0.84947 0.0
C141 C 0.57305 0.43263 0.86674 0.0
C142 C 0.56451 0.4601 0.87331 0.0
C143 C 0.5481 0.47901 0.86286 0.0
H144 H 0.51943 0.93736 0.0487 0.0
H145 H 0.49648 0.89752 0.03221 0.0
H146 H 0.41134 0.93064 0.0463 0.0
H147 H 0.43443 0.97093 0.06247 0.0
H148 H 0.5159 0.99641 0.04381 0.0
H149 H 0.49183 0.932 0.10014 0.0
H150 H 0.45814 0.91079 0.12197 0.0
H151 H 0.39981 0.98358 0.11491 0.0
H152 H 0.43394 0.00494 0.09374 0.0
H153 H 0.50196 0.07013 0.10593 0.0
H154 H 0.53005 0.10319 0.12514 0.0
H155 H 0.61001 0.06252 0.10763 0.0
H156 H 0.58189 0.02963 0.08839 0.0
H157 H 0.49948 0.01106 0.10857 0.0
H158 H 0.50662 0.07571 0.06139 0.0
H159 H 0.52935 0.1149 0.04456 0.0
H160 H 0.60293 0.05954 0.03272 0.0
H161 H 0.57961 0.01975 0.04951 0.0
C162 C 0.47871 0.95687 0.0571 0.0
C163 C 0.49582 0.93614 0.04819 0.0
C164 C 0.48268 0.91344 0.03873 0.0
C165 C 0.45211 0.91097 0.03798 0.0
C166 C 0.43495 0.93181 0.04684 0.0
C167 C 0.44814 0.95473 0.05617 0.0
C168 C 0.49315 0.98082 0.06708 0.0
C169 C 0.51278 0.99909 0.05805 0.0
C170 C 0.48766 0.98595 0.08535 0.0
C171 C 0.46528 0.96999 0.09546 0.0
C172 C 0.47143 0.94292 0.10304 0.0
C173 C 0.45212 0.93082 0.11543 0.0
C174 C 0.42653 0.94575 0.12034 0.0
C175 C 0.4196 0.97184 0.11166 0.0
C176 C 0.43896 0.98399 0.0995 0.0
C177 C 0.53986 0.04744 0.09578 0.0
C178 C 0.52556 0.06864 0.10605 0.0
C179 C 0.54161 0.08763 0.11689 0.0
C180 C 0.57216 0.08537 0.11783 0.0
C181 C 0.58647 0.06466 0.10715 0.0
C182 C 0.57046 0.04596 0.09614 0.0
C183 C 0.52296 0.02562 0.08548 0.0
C184 C 0.50308 0.00782 0.09441 0.0
C185 C 0.52694 0.02198 0.06699 0.0
C186 C 0.54141 0.04491 0.05656 0.0
C187 C 0.5276 0.07194 0.05513 0.0
C188 C 0.54056 0.09425 0.04554 0.0
C189 C 0.56776 0.09007 0.03735 0.0
C190 C 0.58194 0.06315 0.03899 0.0
C191 C 0.56863 0.0405 0.04842 0.0
H192 H 0.00564 0.58443 0.90611 0.0
H193 H 0.0372 0.61773 0.88939 0.0
H194 H 0.11036 0.56038 0.8976 0.0
H195 H 0.07895 0.52754 0.91489 0.0
H196 H 0.99855 0.52119 0.89699 0.0
H197 H 0.02646 0.58726 0.94287 0.0
H198 H 0.06443 0.61577 0.9573 0.0
H199 H 0.10316 0.53682 0.97752 0.0
H200 H 0.06612 0.50829 0.96174 0.0
H201 H 0.99401 0.44005 0.95405 0.0
H202 H 0.95687 0.40596 0.96513 0.0
H203 H 0.88957 0.46842 0.95274 0.0
H204 H 0.92644 0.50174 0.94146 0.0
H205 H 0.00635 0.50424 0.96212 0.0
H206 H 0.98206 0.43896 0.913 0.0
H207 H 0.95101 0.4117 0.89216 0.0
H208 H 0.90514 0.49067 0.87907 0.0
H209 H 0.9364 0.51788 0.89984 0.0
C210 C 0.04006 0.55366 0.91172 0.0
C211 C 0.02855 0.57923 0.90447 0.0
C212 C 0.04653 0.59824 0.89506 0.0
C213 C 0.07608 0.59153 0.8924 0.0
C214 C 0.08763 0.56596 0.89964 0.0
C215 C 0.06978 0.54727 0.90943 0.0
C216 C 0.02074 0.53321 0.92121 0.0
C217 C 7e-05 0.5177 0.91125 0.0
C218 C 0.02322 0.52837 0.93976 0.0
C219 C 0.04391 0.54559 0.95079 0.0
C220 C 0.04325 0.57606 0.95032 0.0
C221 C 0.06482 0.59241 0.95886 0.0
C222 C 0.0872 0.5787 0.96851 0.0
C223 C 0.08674 0.54816 0.96986 0.0
C224 C 0.06536 0.53178 0.96103 0.0
C225 C 0.96284 0.47324 0.94684 0.0
C226 C 0.97125 0.44643 0.95402 0.0
C227 C 0.95006 0.42701 0.9603 0.0
C228 C 0.92025 0.43428 0.95948 0.0
C229 C 0.91225 0.46183 0.95312 0.0
C230 C 0.9333 0.48103 0.94683 0.0
C231 C 0.98415 0.49228 0.93781 0.0
C232 C 0.00504 0.50762 0.94786 0.0
C233 C 0.9819 0.49719 0.9193 0.0
C234 C 0.96149 0.4804 0.90791 0.0
C235 C 0.96504 0.4503 0.90582 0.0
C236 C 0.9474 0.43479 0.89391 0.0
C237 C 0.92571 0.44911 0.88405 0.0
C238 C 0.9215 0.47908 0.88665 0.0
C239 C 0.93943 0.49464 0.89838 0.0
H240 H 0.5072 0.56778 0.19788 0.0
H241 H 0.48047 0.61011 0.20864 0.0
H242 H 0.39958 0.5618 0.20413 0.0
H243 H 0.42658 0.52049 0.19204 0.0
H244 H 0.50217 0.49884 0.20812 0.0
H245 H 0.49741 0.5729 0.16253 0.0
H246 H 0.47551 0.60935 0.14315 0.0
H247 H 0.41295 0.54571 0.12453 0.0
H248 H 0.43448 0.50954 0.14444 0.0
H249 H 0.49519 0.4294 0.14446 0.0
H250 H 0.52491 0.39863 0.12475 0.0
H251 H 0.60277 0.44234 0.14321 0.0
H252 H 0.57304 0.47263 0.16317 0.0
H253 H 0.49602 0.49293 0.14213 0.0
H254 H 0.5085 0.41667 0.18419 0.0
H255 H 0.53872 0.38019 0.19872 0.0
H256 H 0.59056 0.44837 0.22288 0.0
H257 H 0.56059 0.48487 0.20781 0.0
C258 C 0.46879 0.54119 0.19416 0.0
C259 C 0.48375 0.56629 0.19953 0.0
C260 C 0.46832 0.59047 0.20576 0.0
C261 C 0.43763 0.58972 0.20715 0.0
C262 C 0.42303 0.56365 0.2028 0.0
C263 C 0.43843 0.53978 0.19614 0.0
C264 C 0.4843 0.518 0.18437 0.0
C265 C 0.50095 0.49755 0.19371 0.0
C266 C 0.48231 0.51614 0.16564 0.0
C267 C 0.46731 0.53866 0.15505 0.0
C268 C 0.47848 0.56703 0.15464 0.0
C269 C 0.46613 0.58774 0.14343 0.0
C270 C 0.44256 0.58038 0.13229 0.0
C271 C 0.43084 0.55215 0.13313 0.0
C272 C 0.44323 0.53141 0.14437 0.0
C273 C 0.53198 0.45316 0.15526 0.0
C274 C 0.5187 0.43196 0.14447 0.0
C275 C 0.53566 0.41437 0.13331 0.0
C276 C 0.56607 0.41819 0.13252 0.0
C277 C 0.57936 0.43903 0.14361 0.0
C278 C 0.56245 0.45622 0.15501 0.0
C279 C 0.51397 0.47367 0.16579 0.0
C280 C 0.49683 0.49378 0.15657 0.0
C281 C 0.51575 0.47525 0.18458 0.0
C282 C 0.53253 0.45344 0.19476 0.0
C283 C 0.52633 0.42376 0.19266 0.0
C284 C 0.54346 0.40294 0.20111 0.0
C285 C 0.56709 0.41139 0.21193 0.0
C286 C 0.57271 0.44119 0.21446 0.0
C287 C 0.55549 0.46205 0.20599 0.0
H288 H 0.50103 0.91609 0.40976 0.0
H289 H 0.46604 0.88804 0.3918 0.0
H290 H 0.40415 0.95849 0.39575 0.0
H291 H 0.43913 0.98627 0.41392 0.0
H292 H 0.51732 0.98175 0.39896 0.0
H293 H 0.47691 0.91908 0.44791 0.0
H294 H 0.42843 0.90157 0.45683 0.0
H295 H 0.40057 0.99012 0.46526 0.0
H296 H 0.44885 0.00751 0.45637 0.0
H297 H 0.52894 0.05774 0.45903 0.0
H298 H 0.5684 0.08902 0.47011 0.0
H299 H 0.63136 0.02349 0.45478 0.0
H300 H 0.59206 0.99337 0.44297 0.0
H301 H 0.51082 0.99688 0.46444 0.0
H302 H 0.54086 0.06214 0.4216 0.0
H303 H 0.57171 0.09224 0.40279 0.0
H304 H 0.60559 0.01519 0.37705 0.0
H305 H 0.57504 0.9849 0.39636 0.0
C306 C 0.47261 0.95319 0.41304 0.0
C307 C 0.47978 0.92528 0.40691 0.0
C308 C 0.45973 0.90923 0.39683 0.0
C309 C 0.43241 0.92112 0.39247 0.0
C310 C 0.42508 0.94889 0.39895 0.0
C311 C 0.44499 0.96474 0.40925 0.0
C312 C 0.49435 0.97067 0.42296 0.0
C313 C 0.5165 0.98445 0.41332 0.0
C314 C 0.49185 0.97563 0.44149 0.0
C315 C 0.46629 0.96458 0.45136 0.0
C316 C 0.46065 0.93461 0.4523 0.0
C317 C 0.43306 0.92464 0.45742 0.0
C318 C 0.41088 0.94457 0.46155 0.0
C319 C 0.41739 0.97439 0.46207 0.0
C320 C 0.44496 0.98432 0.45709 0.0
C321 C 0.55772 0.02344 0.45006 0.0
C322 C 0.55126 0.05006 0.45836 0.0
C323 C 0.57385 0.06788 0.46467 0.0
C324 C 0.60317 0.05908 0.46302 0.0
C325 C 0.60918 0.03146 0.45575 0.0
C326 C 0.58673 0.01398 0.4492 0.0
C327 C 0.53491 0.00675 0.44054 0.0
C328 C 0.51238 0.99341 0.45017 0.0
C329 C 0.53625 0.00324 0.42181 0.0
C330 C 0.55608 0.02118 0.4107 0.0
C331 C 0.55551 0.0516 0.41228 0.0
C332 C 0.5731 0.06883 0.40146 0.0
C333 C 0.59124 0.05607 0.38855 0.0
C334 C 0.59177 0.02561 0.38689 0.0
C335 C 0.57436 0.00831 0.3979 0.0
H336 H 0.99437 0.06831 0.70676 0.0
H337 H 0.96631 0.10864 0.71951 0.0
H338 H 0.88608 0.06659 0.70363 0.0
H339 H 0.91431 0.0263 0.69062 0.0
H340 H 0.99514 0.00652 0.71103 0.0
H341 H 0.97561 0.07988 0.66619 0.0
H342 H 0.94965 0.11123 0.64526 0.0
H343 H 0.89973 0.03723 0.62676 0.0
H344 H 0.92619 0.00601 0.64744 0.0
H345 H 0.0201 0.92485 0.67209 0.0
H346 H 0.05284 0.89474 0.6545 0.0
H347 H 0.07112 0.96843 0.62064 0.0
H348 H 0.04166 0.99898 0.63976 0.0
H349 H 0.98748 0.9998 0.64518 0.0
H350 H 0.99901 0.93976 0.70831 0.0
H351 H 0.03312 0.90453 0.7203 0.0
H352 H 0.10533 0.95693 0.70156 0.0
H353 H 0.07059 0.99079 0.68834 0.0
C354 C 0.95638 0.04449 0.69769 0.0
C355 C 0.97074 0.06744 0.70638 0.0
C356 C 0.95475 0.09045 0.71357 0.0
C357 C 0.92414 0.0906 0.71245 0.0
C358 C 0.90966 0.06677 0.70473 0.0
C359 C 0.92572 0.04391 0.69727 0.0
C360 C 0.97362 0.02286 0.68758 0.0
C361 C 0.9934 0.00495 0.69664 0.0
C362 C 0.97154 0.02093 0.66885 0.0
C363 C 0.95282 0.04064 0.65831 0.0
C364 C 0.9586 0.07059 0.6579 0.0
C365 C 0.9437 0.08849 0.64595 0.0
C366 C 0.92288 0.07666 0.63419 0.0
C367 C 0.91605 0.04691 0.6354 0.0
C368 C 0.93102 0.02906 0.64726 0.0
C369 C 0.02889 0.96451 0.65763 0.0
C370 C 0.03207 0.93478 0.66131 0.0
C371 C 0.05041 0.91733 0.65089 0.0
C372 C 0.06505 0.92887 0.63601 0.0
C373 C 0.06124 0.95859 0.63221 0.0
C374 C 0.04379 0.97617 0.64301 0.0
C375 C 0.00942 0.98355 0.66849 0.0
C376 C 0.98912 0.00107 0.65959 0.0
C377 C 0.01144 0.98551 0.68729 0.0
C378 C 0.03236 0.96758 0.69733 0.0
C379 C 0.02222 0.9438 0.70708 0.0
C380 C 0.04192 0.92372 0.71402 0.0
C381 C 0.07226 0.92752 0.71182 0.0
C382 C 0.08224 0.95268 0.7031 0.0
C383 C 0.06245 0.97234 0.69575 0.0
Co384 Co 0.32212 0.6785 0.00579 0.0
O385 O 0.29357 0.64787 0.00635 0.0
O386 O 0.28413 0.69383 -0.00021 0.0
C387 C 0.3445 0.66785 0.03161 0.0
O388 O 0.34583 0.71603 0.00445 0.0
Co389 Co 0.38828 0.66259 0.00336 0.0
O390 O 0.3939 0.70527 0.00365 0.0
C391 C 0.34899 0.65116 0.97329 0.0
C392 C 0.27462 0.66741 0.00181 0.0
C393 C 0.37294 0.72344 0.00385 0.0
O394 O 0.33018 0.66893 0.97992 0.0
O395 O 0.37178 0.64291 0.98171 0.0
O396 O 0.32037 0.68268 0.03182 0.0
O397 O 0.35224 0.65759 0.01634 0.0
Co398 Co 0.32233 0.83174 0.24927 0.0
O399 O 0.29497 0.86222 0.25445 0.0
O400 O 0.28514 0.81517 0.256 0.0
C401 C 0.33904 0.85195 0.22402 0.0
O402 O 0.34383 0.79404 0.24395 0.0
Co403 Co 0.38864 0.84262 0.2476 0.0
O404 O 0.39184 0.80151 0.23987 0.0
C405 C 0.35753 0.84652 0.28168 0.0
C406 C 0.27609 0.84184 0.25757 0.0
C407 C 0.36957 0.78495 0.24001 0.0
O408 O 0.33585 0.83247 0.27492 0.0
O409 O 0.37909 0.85561 0.27245 0.0
O410 O 0.31534 0.83643 0.22375 0.0
O411 O 0.35079 0.85608 0.23944 0.0
Co412 Co 0.17714 0.82048 0.49787 0.0
O413 O 0.15072 0.78907 0.50189 0.0
O414 O 0.19829 0.78727 0.50715 0.0
C415 C 0.16008 0.83172 0.47069 0.0
O416 O 0.21115 0.8487 0.49396 0.0
Co417 Co 0.15264 0.88307 0.49353 0.0
O418 O 0.19095 0.88868 0.48202 0.0
C419 C 0.15654 0.85774 0.52931 0.0
C420 C 0.17308 0.77414 0.5071 0.0
C421 C 0.21305 0.8728 0.48532 0.0
O422 O 0.16968 0.83529 0.5229 0.0
O423 O 0.14691 0.87856 0.51976 0.0
O424 O 0.17864 0.81063 0.47256 0.0
O425 O 0.15046 0.84315 0.48531 0.0
Co426 Co 0.17271 0.70243 0.76265 0.0
O427 O 0.14243 0.73086 0.75921 0.0
O428 O 0.18888 0.73649 0.75161 0.0
C429 C 0.16058 0.69077 0.79078 0.0
O430 O 0.21048 0.6795 0.76478 0.0
Co431 Co 0.15969 0.6374 0.76989 0.0
O432 O 0.2014 0.63589 0.7768 0.0
C433 C 0.15339 0.66038 0.73343 0.0
C434 C 0.16265 0.74714 0.75234 0.0
C435 C 0.2191 0.65551 0.77171 0.0
O436 O 0.16413 0.68495 0.73847 0.0
O437 O 0.14836 0.6394 0.74413 0.0
O438 O 0.17603 0.71392 0.78772 0.0
O439 O 0.1511 0.67707 0.77688 0.0
Co440 Co 0.83777 0.20044 0.49196 0.0
O441 O 0.86798 0.22891 0.4954 0.0
O442 O 0.8218 0.23446 0.50359 0.0
C443 C 0.84872 0.19015 0.4634 0.0
O444 O 0.80037 0.1766 0.49009 0.0
Co445 Co 0.85256 0.13617 0.48288 0.0
O446 O 0.81047 0.1338 0.47688 0.0
C447 C 0.8598 0.158 0.51983 0.0
C448 C 0.84801 0.2452 0.50255 0.0
C449 C 0.79236 0.15257 0.48271 0.0
O450 O 0.84776 0.18232 0.51567 0.0
O451 O 0.86539 0.138 0.5084 0.0
O452 O 0.83255 0.21249 0.46718 0.0
O453 O 0.85941 0.17632 0.47678 0.0
Co454 Co 0.82026 0.34202 0.74211 0.0
O455 O 0.79706 0.37659 0.74219 0.0
O456 O 0.78214 0.33368 0.75203 0.0
C457 C 0.83653 0.34771 0.71408 0.0
O458 O 0.83773 0.30122 0.74285 0.0
Co459 Co 0.8874 0.34568 0.73766 0.0
O460 O 0.88255 0.30436 0.73087 0.0
C461 C 0.86099 0.36039 0.77235 0.0
C462 C 0.77636 0.36082 0.74882 0.0
C463 C 0.86065 0.2895 0.73595 0.0
O464 O 0.83587 0.35204 0.76656 0.0
O465 O 0.88391 0.361 0.76262 0.0
O466 O 0.81113 0.33608 0.71695 0.0
O467 O 0.85006 0.35744 0.728 0.0
Co468 Co 0.6767 0.31511 0.99213 0.0
O469 O 0.64076 0.29407 0.99307 0.0
O470 O 0.6835 0.27631 0.00144 0.0
C471 C 0.66911 0.33154 0.96431 0.0
O472 O 0.71868 0.33044 0.99187 0.0
Co473 Co 0.67615 0.38185 0.9882 0.0
O474 O 0.71645 0.37494 0.97977 0.0
C475 C 0.66203 0.35596 0.02297 0.0
C476 C 0.65566 0.2722 0.99888 0.0
C477 C 0.7308 0.3526 0.9845 0.0
O478 O 0.6694 0.33081 0.01689 0.0
O479 O 0.6617 0.37886 0.01336 0.0
O480 O 0.67997 0.30586 0.96688 0.0
O481 O 0.66139 0.34561 0.9785 0.0
Co482 Co 0.67468 0.18759 0.26089 0.0
O483 O 0.64216 0.21393 0.25852 0.0
O484 O 0.68832 0.22462 0.25261 0.0
C485 C 0.66288 0.16998 0.28789 0.0
O486 O 0.71433 0.16799 0.2625 0.0
Co487 Co 0.66754 0.12076 0.26347 0.0
O488 O 0.71012 0.12019 0.26791 0.0
C489 C 0.65929 0.14964 0.22888 0.0
C490 C 0.66127 0.23299 0.2533 0.0
C491 C 0.72544 0.143 0.26588 0.0
O492 O 0.66847 0.17383 0.23554 0.0
O493 O 0.65555 0.12665 0.23811 0.0
O494 O 0.67623 0.19481 0.28651 0.0
O495 O 0.65489 0.15799 0.27305 0.0
H496 H 0.14369 0.94862 0.27688 0.0
H497 H 0.09225 0.87382 0.29251 0.0
H498 H 0.13305 0.84139 0.28397 0.0
H499 H 0.18094 0.91421 0.23915 0.0
H500 H 0.21467 0.93305 0.24367 0.0
H501 H 0.18035 0.9497 0.24943 0.0
H502 H 0.19798 0.9558 0.28207 0.0
H503 H 0.23222 0.93898 0.27647 0.0
H504 H 0.21022 0.92436 0.29418 0.0
H505 H 0.18135 0.81755 0.27564 0.0
H506 H 0.23216 0.80455 0.26755 0.0
H507 H 0.2513 0.89557 0.25828 0.0
C508 C 0.14089 0.92539 0.27839 0.0
C509 C 0.11482 0.91372 0.28534 0.0
C510 C 0.11192 0.88319 0.28697 0.0
C511 C 0.13502 0.86463 0.28225 0.0
C512 C 0.16073 0.87697 0.27583 0.0
C513 C 0.16363 0.90666 0.27378 0.0
C514 C 0.19378 0.91473 0.26732 0.0
C515 C 0.19234 0.92874 0.24879 0.0
C516 C 0.20947 0.93463 0.28082 0.0
C517 C 0.20771 0.88502 0.26645 0.0
C518 C 0.18832 0.86343 0.27125 0.0
C519 C 0.19664 0.83429 0.27174 0.0
C520 C 0.22552 0.82711 0.26718 0.0
C521 C 0.24566 0.84905 0.26233 0.0
C522 C 0.23646 0.87829 0.26196 0.0
H523 H 0.07866 0.63252 0.52025 0.0
H524 H 0.14569 0.60008 0.55573 0.0
H525 H 0.17767 0.64131 0.54752 0.0
H526 H 0.12782 0.66257 0.48591 0.0
H527 H 0.10426 0.69333 0.48232 0.0
H528 H 0.08897 0.659 0.48902 0.0
H529 H 0.06425 0.68423 0.51606 0.0
H530 H 0.07955 0.71851 0.50953 0.0
H531 H 0.08633 0.70471 0.53157 0.0
H532 H 0.20005 0.68965 0.53756 0.0
H533 H 0.21002 0.73978 0.52703 0.0
H534 H 0.12702 0.7397 0.49922 0.0
C535 C 0.10024 0.63383 0.5261 0.0
C536 C 0.10972 0.61315 0.53861 0.0
C537 C 0.13816 0.61553 0.54593 0.0
C538 C 0.15641 0.63891 0.54138 0.0
C539 C 0.14595 0.65949 0.5294 0.0
C540 C 0.11856 0.65693 0.52178 0.0
C541 C 0.11124 0.68285 0.51042 0.0
C542 C 0.10789 0.6739 0.49075 0.0
C543 C 0.08373 0.69849 0.51732 0.0
C544 C 0.13832 0.70097 0.51329 0.0
C545 C 0.15842 0.6871 0.52401 0.0
C546 C 0.18458 0.70053 0.529 0.0
C547 C 0.19007 0.72895 0.52299 0.0
C548 C 0.16923 0.74357 0.5124 0.0
C549 C 0.14334 0.72911 0.50735 0.0
H550 H 0.35931 0.56793 0.80247 0.0
H551 H 0.41162 0.62353 0.76857 0.0
H552 H 0.3674 0.65189 0.76105 0.0
H553 H 0.29761 0.56395 0.77385 0.0
H554 H 0.27165 0.56379 0.79188 0.0
H555 H 0.30771 0.54931 0.79521 0.0
H556 H 0.31531 0.58428 0.82203 0.0
H557 H 0.27928 0.59897 0.81875 0.0
H558 H 0.31052 0.6228 0.81899 0.0
H559 H 0.31667 0.67326 0.75683 0.0
H560 H 0.264 0.68472 0.75541 0.0
H561 H 0.24585 0.61336 0.79134 0.0
C562 C 0.36155 0.58586 0.79329 0.0
C563 C 0.3889 0.59335 0.78598 0.0
C564 C 0.39089 0.61748 0.77441 0.0
C565 C 0.36591 0.63365 0.77004 0.0
C566 C 0.33923 0.62539 0.77739 0.0
C567 C 0.33698 0.602 0.78874 0.0
C568 C 0.30582 0.59689 0.79452 0.0
C569 C 0.29507 0.5667 0.7885 0.0
C570 C 0.30255 0.60099 0.81477 0.0
C571 C 0.29069 0.62084 0.78444 0.0
C572 C 0.31028 0.63728 0.77478 0.0
C573 C 0.30117 0.66054 0.76436 0.0
C574 C 0.27122 0.6669 0.76366 0.0
C575 C 0.25077 0.64986 0.7732 0.0
C576 C 0.26085 0.62672 0.7838 0.0
H577 H 0.40748 0.87545 0.04896 0.0
H578 H 0.46643 0.89096 0.00482 0.0
H579 H 0.44719 0.8475 0.98939 0.0
H580 H 0.41572 0.80081 0.04986 0.0
H581 H 0.37833 0.79241 0.05526 0.0
H582 H 0.39362 0.82689 0.06173 0.0
H583 H 0.35208 0.85352 0.04505 0.0
H584 H 0.3366 0.81904 0.03851 0.0
H585 H 0.34562 0.84558 0.02183 0.0
H586 H 0.42706 0.79951 0.98076 0.0
H587 H 0.40664 0.74983 0.97929 0.0
H588 H 0.35894 0.76557 0.02819 0.0
C589 C 0.41571 0.87012 0.03582 0.0
C590 C 0.43841 0.88656 0.02805 0.0
C591 C 0.44919 0.87852 0.01105 0.0
C592 C 0.43823 0.85403 0.00213 0.0
C593 C 0.41633 0.8379 0.01031 0.0
C594 C 0.40501 0.84566 0.02672 0.0
C595 C 0.38339 0.82312 0.03325 0.0
C596 C 0.39338 0.81004 0.05108 0.0
C597 C 0.35259 0.83609 0.03474 0.0
C598 C 0.38512 0.80102 0.01823 0.0
C599 C 0.40406 0.81018 0.00506 0.0
C600 C 0.41163 0.79237 0.99073 0.0
C601 C 0.4 0.76425 0.99 0.0
C602 C 0.38081 0.75437 0.0034 0.0
C603 C 0.37279 0.77313 0.01749 0.0
H604 H 0.14519 0.56351 0.97111 0.0
H605 H 0.08493 0.6337 0.98334 0.0
H606 H 0.12622 0.66415 0.99324 0.0
H607 H 0.1925 0.57591 0.0097 0.0
H608 H 0.22503 0.56629 0.99753 0.0
H609 H 0.19055 0.55004 0.9916 0.0
H610 H 0.19706 0.5678 0.95915 0.0
H611 H 0.23139 0.58438 0.965 0.0
H612 H 0.20295 0.60591 0.95504 0.0
H613 H 0.17485 0.68834 -0.0004 0.0
H614 H 0.22645 0.70229 0.00486 0.0
H615 H 0.2537 0.6148 0.9911 0.0
C616 C 0.14041 0.585 0.97625 0.0
C617 C 0.11163 0.59614 0.97625 0.0
C618 C 0.10675 0.62473 0.98279 0.0
C619 C 0.13006 0.6422 0.98858 0.0
C620 C 0.15813 0.63065 0.98805 0.0
C621 C 0.16331 0.60253 0.98235 0.0
C622 C 0.19548 0.59524 0.98312 0.0
C623 C 0.20122 0.5704 0.99627 0.0
C624 C 0.20741 0.58791 0.96447 0.0
C625 C 0.20765 0.62375 0.98998 0.0
C626 C 0.18583 0.64404 0.99258 0.0
C627 C 0.19207 0.67248 0.99789 0.0
C628 C 0.22136 0.68025 0.00077 0.0
C629 C 0.24387 0.6595 0.9986 0.0
C630 C 0.23682 0.63094 0.99317 0.0
H631 H 0.45407 0.63462 0.22975 0.0
H632 H 0.38347 0.60641 0.19494 0.0
H633 H 0.35688 0.65147 0.20164 0.0
H634 H 0.41023 0.67397 0.26233 0.0
H635 H 0.43653 0.7029 0.26466 0.0
H636 H 0.44851 0.66672 0.25901 0.0
H637 H 0.47438 0.6866 0.2309 0.0
H638 H 0.46247 0.72278 0.23645 0.0
H639 H 0.45372 0.70734 0.21497 0.0
H640 H 0.33836 0.70036 0.21132 0.0
H641 H 0.33128 0.75111 0.22143 0.0
H642 H 0.41617 0.74963 0.24704 0.0
C643 C 0.43305 0.63774 0.22348 0.0
C644 C 0.42088 0.61645 0.21198 0.0
C645 C 0.39308 0.6217 0.20425 0.0
C646 C 0.37781 0.64744 0.20785 0.0
C647 C 0.39067 0.668 0.21903 0.0
C648 C 0.41776 0.66357 0.22661 0.0
C649 C 0.42773 0.69005 0.23704 0.0
C650 C 0.43093 0.68298 0.25694 0.0
C651 C 0.45626 0.70242 0.22937 0.0
C652 C 0.40224 0.71027 0.23383 0.0
C653 C 0.3808 0.69689 0.22374 0.0
C654 C 0.355 0.71108 0.21922 0.0
C655 C 0.35114 0.73982 0.22504 0.0
C656 C 0.37325 0.7542 0.23491 0.0
C657 C 0.39905 0.73916 0.23938 0.0
H658 H 0.38573 0.90397 0.48382 0.0
H659 H 0.36714 0.96351 0.44069 0.0
H660 H 0.31551 0.94855 0.44101 0.0
H661 H 0.33463 0.84659 0.46996 0.0
H662 H 0.32351 0.83817 0.49237 0.0
H663 H 0.3597 0.85195 0.48821 0.0
H664 H 0.35079 0.89394 0.51068 0.0
H665 H 0.31465 0.88024 0.51494 0.0
H666 H 0.31955 0.91725 0.50781 0.0
H667 H 0.26672 0.92932 0.44627 0.0
H668 H 0.22106 0.90819 0.45718 0.0
H669 H 0.26903 0.86083 0.49766 0.0
C670 C 0.37068 0.91361 0.47443 0.0
C671 C 0.38016 0.93501 0.4623 0.0
C672 C 0.36006 0.94737 0.45022 0.0
C673 C 0.33082 0.93885 0.4502 0.0
C674 C 0.322 0.91798 0.46239 0.0
C675 C 0.34111 0.90554 0.47437 0.0
C676 C 0.32517 0.8847 0.48663 0.0
C677 C 0.33642 0.8535 0.48414 0.0
C678 C 0.32769 0.89463 0.50617 0.0
C679 C 0.29412 0.88778 0.47977 0.0
C680 C 0.29311 0.90691 0.46566 0.0
C681 C 0.26715 0.91427 0.45728 0.0
C682 C 0.2413 0.90221 0.46367 0.0
C683 C 0.24142 0.88303 0.47838 0.0
C684 C 0.2683 0.87529 0.48634 0.0
H685 H 0.06717 0.88956 0.74008 0.0
H686 H 0.12418 0.91174 0.69589 0.0
H687 H 0.15613 0.87084 0.70352 0.0
H688 H 0.12248 0.861 0.77044 0.0
H689 H 0.09923 0.83179 0.77774 0.0
H690 H 0.08342 0.8657 0.77074 0.0
H691 H 0.05151 0.83812 0.74764 0.0
H692 H 0.06727 0.80419 0.7545 0.0
H693 H 0.06883 0.81477 0.73144 0.0
H694 H 0.18037 0.82542 0.71467 0.0
H695 H 0.19307 0.77757 0.72736 0.0
H696 H 0.1172 0.78226 0.76179 0.0
C697 C 0.08637 0.88605 0.73196 0.0
C698 C 0.09306 0.90436 0.71744 0.0
C699 C 0.11875 0.8988 0.70741 0.0
C700 C 0.13704 0.87537 0.71154 0.0
C701 C 0.12926 0.85742 0.72562 0.0
C702 C 0.10444 0.86238 0.7356 0.0
C703 C 0.09935 0.83828 0.74888 0.0
C704 C 0.10124 0.84989 0.76809 0.0
C705 C 0.07001 0.82294 0.7454 0.0
C706 C 0.12487 0.81867 0.74453 0.0
C707 C 0.14223 0.83038 0.73135 0.0
C708 C 0.16698 0.81607 0.72503 0.0
C709 C 0.17402 0.78896 0.73231 0.0
C710 C 0.156 0.77628 0.74545 0.0
C711 C 0.13124 0.79143 0.75167 0.0
H712 H 0.63738 0.41742 0.80249 0.0
H713 H 0.61163 0.46176 0.75416 0.0
H714 H 0.65307 0.43934 0.73814 0.0
H715 H 0.71369 0.42404 0.79708 0.0
H716 H 0.72231 0.38845 0.80547 0.0
H717 H 0.68985 0.40682 0.81294 0.0
H718 H 0.65847 0.36278 0.80296 0.0
H719 H 0.69087 0.34424 0.79542 0.0
H720 H 0.66086 0.34984 0.78029 0.0
H721 H 0.69936 0.41655 0.72834 0.0
H722 H 0.74677 0.3918 0.72455 0.0
H723 H 0.74118 0.35881 0.7784 0.0
C724 C 0.6405 0.42221 0.78851 0.0
C725 C 0.62152 0.4413 0.77948 0.0
C726 C 0.62594 0.44704 0.7612 0.0
C727 C 0.64936 0.43444 0.75203 0.0
C728 C 0.66779 0.41581 0.7613 0.0
C729 C 0.6635 0.40939 0.77906 0.0
C730 C 0.68684 0.38891 0.78588 0.0
C731 C 0.7042 0.4029 0.80125 0.0
C732 C 0.67345 0.35971 0.79146 0.0
C733 C 0.70541 0.38554 0.7693 0.0
C734 C 0.69396 0.40133 0.75531 0.0
C735 C 0.70826 0.40364 0.73904 0.0
C736 C 0.73513 0.38962 0.73703 0.0
C737 C 0.74711 0.37318 0.75109 0.0
C738 C 0.73194 0.37072 0.76734 0.0
H739 H 0.62077 0.11717 0.04192 0.0
H740 H 0.54222 0.11735 0.00967 0.0
H741 H 0.55894 0.16183 0.99463 0.0
H742 H 0.62312 0.19152 0.04965 0.0
H743 H 0.6622 0.19563 0.04839 0.0
H744 H 0.64666 0.1614 0.05493 0.0
H745 H 0.67464 0.1352 0.02956 0.0
H746 H 0.69059 0.16935 0.02304 0.0
H747 H 0.67077 0.14775 0.00698 0.0
H748 H 0.58001 0.20845 0.98603 0.0
H749 H 0.60607 0.25469 0.98269 0.0
H750 H 0.67242 0.22572 0.0199 0.0
C751 C 0.60768 0.12619 0.03129 0.0
C752 C 0.58036 0.1139 0.02677 0.0
C753 C 0.56326 0.12652 0.01319 0.0
C754 C 0.5726 0.15169 0.00458 0.0
C755 C 0.59915 0.16388 0.00968 0.0
C756 C 0.61669 0.15153 0.02256 0.0
C757 C 0.64315 0.17053 0.02637 0.0
C758 C 0.6438 0.18035 0.046 0.0
C759 C 0.67147 0.15476 0.02117 0.0
C760 C 0.63712 0.19586 0.01405 0.0
C761 C 0.61169 0.19129 0.0045 0.0
C762 C 0.60022 0.21213 0.99317 0.0
C763 C 0.61511 0.23843 0.99148 0.0
C764 C 0.6413 0.24374 0.001 0.0
C765 C 0.65265 0.22204 0.0123 0.0
H766 H 0.87795 0.062 0.26539 0.0
H767 H 0.90866 0.13007 0.3013 0.0
H768 H 0.8642 0.15791 0.29544 0.0
H769 H 0.83488 0.10724 0.23463 0.0
H770 H 0.8059 0.08079 0.23337 0.0
H771 H 0.843 0.06913 0.23693 0.0
H772 H 0.82693 0.04207 0.26548 0.0
H773 H 0.78991 0.05372 0.26208 0.0
H774 H 0.80813 0.06183 0.28281 0.0
H775 H 0.81428 0.17657 0.28811 0.0
H776 H 0.7615 0.18218 0.28198 0.0
H777 H 0.76083 0.09879 0.25481 0.0
C778 C 0.87567 0.0828 0.27202 0.0
C779 C 0.89742 0.09365 0.28372 0.0
C780 C 0.89315 0.12132 0.29181 0.0
C781 C 0.86769 0.13737 0.28868 0.0
C782 C 0.84638 0.12541 0.27765 0.0
C783 C 0.85 0.09863 0.26956 0.0
C784 C 0.82226 0.08873 0.26036 0.0
C785 C 0.82679 0.08634 0.24012 0.0
C786 C 0.81116 0.05989 0.26816 0.0
C787 C 0.80221 0.11371 0.26505 0.0
C788 C 0.81678 0.13508 0.27454 0.0
C789 C 0.80268 0.16007 0.2806 0.0
C790 C 0.77278 0.16308 0.27707 0.0
C791 C 0.75728 0.14084 0.26803 0.0
C792 C 0.77226 0.11602 0.26182 0.0
H793 H 0.9527 0.37299 0.53442 0.0
H794 H 0.87937 0.43206 0.52872 0.0
H795 H 0.8479 0.39081 0.5201 0.0
H796 H 0.93489 0.329 0.49577 0.0
H797 H 0.94731 0.2959 0.506 0.0
H798 H 0.96362 0.33012 0.51219 0.0
H799 H 0.95127 0.32014 0.54529 0.0
H800 H 0.93456 0.28608 0.53919 0.0
H801 H 0.91401 0.31279 0.55154 0.0
H802 H 0.82385 0.34231 0.51331 0.0
H803 H 0.81083 0.29153 0.50546 0.0
H804 H 0.90098 0.26578 0.51315 0.0
C805 C 0.93021 0.37755 0.53104 0.0
C806 C 0.91862 0.40595 0.53243 0.0
C807 C 0.88877 0.41051 0.52817 0.0
C808 C 0.87069 0.38722 0.52316 0.0
C809 C 0.88282 0.35952 0.52222 0.0
C810 C 0.91201 0.35471 0.52575 0.0
C811 C 0.91996 0.32306 0.52327 0.0
C812 C 0.94279 0.31931 0.50842 0.0
C813 C 0.93057 0.30974 0.54087 0.0
C814 C 0.89067 0.31077 0.51779 0.0
C815 C 0.86938 0.33201 0.51751 0.0
C816 C 0.8404 0.32555 0.51333 0.0
C817 C 0.83318 0.29669 0.50899 0.0
C818 C 0.85496 0.27492 0.5086 0.0
C819 C 0.88396 0.2821 0.51319 0.0
H820 H 0.65551 0.06562 0.44589 0.0
H821 H 0.60636 0.09737 0.49144 0.0
H822 H 0.64803 0.12875 0.49992 0.0
H823 H 0.72225 0.05887 0.46844 0.0
H824 H 0.7442 0.0694 0.44963 0.0
H825 H 0.70929 0.05241 0.44608 0.0
H826 H 0.69295 0.09606 0.4268 0.0
H827 H 0.72785 0.11325 0.43034 0.0
H828 H 0.69474 0.1323 0.43598 0.0
H829 H 0.6966 0.15487 0.50416 0.0
H830 H 0.74832 0.17065 0.50489 0.0
H831 H 0.76569 0.11858 0.45773 0.0
C832 C 0.6534 0.07902 0.45772 0.0
C833 C 0.6276 0.07885 0.46804 0.0
C834 C 0.62572 0.09731 0.48318 0.0
C835 C 0.64932 0.11517 0.48813 0.0
C836 C 0.67459 0.11431 0.4778 0.0
C837 C 0.67673 0.09658 0.46294 0.0
C838 C 0.70681 0.09794 0.45473 0.0
C839 C 0.7215 0.06787 0.45473 0.0
C840 C 0.7055 0.11065 0.43585 0.0
C841 C 0.72162 0.11864 0.46756 0.0
C842 C 0.7026 0.12838 0.48057 0.0
C843 C 0.71163 0.14744 0.494 0.0
C844 C 0.74099 0.15633 0.49429 0.0
C845 C 0.76095 0.14566 0.48144 0.0
C846 C 0.75093 0.12691 0.46781 0.0
H847 H 0.93278 0.14465 0.69978 0.0
H848 H 0.87895 0.09578 0.73636 0.0
H849 H 0.85373 0.14136 0.74544 0.0
H850 H 0.94402 0.20598 0.72626 0.0
H851 H 0.94188 0.23148 0.70817 0.0
H852 H 0.95366 0.19484 0.70396 0.0
H853 H 0.91291 0.18864 0.68022 0.0
H854 H 0.90099 0.22536 0.68435 0.0
H855 H 0.8755 0.19569 0.68626 0.0
H856 H 0.83686 0.1938 0.75159 0.0
H857 H 0.83021 0.24719 0.75417 0.0
H858 H 0.89536 0.25973 0.713 0.0
C859 C 0.91559 0.14359 0.70967 0.0
C860 C 0.90787 0.11701 0.71755 0.0
C861 C 0.88506 0.11614 0.73023 0.0
C862 C 0.87068 0.14184 0.73541 0.0
C863 C 0.87913 0.16792 0.7275 0.0
C864 C 0.90091 0.16878 0.71476 0.0
C865 C 0.90657 0.19931 0.70844 0.0
C866 C 0.93841 0.20843 0.71193 0.0
C867 C 0.89851 0.20243 0.68865 0.0
C868 C 0.88555 0.21582 0.72018 0.0
C869 C 0.86949 0.19749 0.73091 0.0
C870 C 0.84919 0.20829 0.74313 0.0
C871 C 0.84553 0.23859 0.74451 0.0
C872 C 0.86242 0.25758 0.73389 0.0
C873 C 0.8823 0.24583 0.72144 0.0
H874 H 0.86962 0.42323 0.94171 0.0
H875 H 0.91844 0.39803 0.98863 0.0
H876 H 0.87701 0.3671 0.99815 0.0
H877 H 0.80428 0.4333 0.96285 0.0
H878 H 0.78194 0.42019 0.94473 0.0
H879 H 0.81721 0.43551 0.94022 0.0
H880 H 0.83229 0.3883 0.92361 0.0
H881 H 0.79695 0.37275 0.92812 0.0
H882 H 0.82958 0.35387 0.93481 0.0
H883 H 0.82718 0.34375 0.00421 0.0
H884 H 0.77419 0.33294 0.0068 0.0
H885 H 0.75893 0.37571 0.95641 0.0
C886 C 0.8718 0.41094 0.9539 0.0
C887 C 0.89717 0.41316 0.96449 0.0
C888 C 0.89927 0.39647 0.98024 0.0
C889 C 0.87584 0.37885 0.98573 0.0
C890 C 0.85069 0.37796 0.97521 0.0
C891 C 0.84872 0.39354 0.95956 0.0
C892 C 0.81859 0.39161 0.95149 0.0
C893 C 0.8047 0.42194 0.94974 0.0
C894 C 0.81942 0.37568 0.93344 0.0
C895 C 0.80337 0.3736 0.96543 0.0
C896 C 0.82225 0.36521 0.97882 0.0
C897 C 0.81234 0.34986 0.99365 0.0
C898 C 0.7823 0.34372 0.99501 0.0
C899 C 0.76267 0.35353 0.98179 0.0
C900 C 0.77356 0.3679 0.96667 0.0
H901 H 0.55119 0.35993 0.22751 0.0
H902 H 0.62681 0.412 0.2137 0.0
H903 H 0.65922 0.37305 0.22448 0.0
H904 H 0.58233 0.32654 0.26748 0.0
H905 H 0.5651 0.292 0.26311 0.0
H906 H 0.54795 0.32507 0.2558 0.0
H907 H 0.54629 0.30496 0.22349 0.0
H908 H 0.56355 0.27193 0.23067 0.0
H909 H 0.57961 0.29297 0.21302 0.0
H910 H 0.68329 0.32696 0.23448 0.0
H911 H 0.69737 0.27762 0.24387 0.0
H912 H 0.60598 0.25545 0.25091 0.0
C913 C 0.57457 0.36323 0.22687 0.0
C914 C 0.58647 0.38906 0.21981 0.0
C915 C 0.61719 0.39261 0.21931 0.0
C916 C 0.63578 0.37054 0.22531 0.0
C917 C 0.6233 0.34515 0.23187 0.0
C918 C 0.59341 0.34147 0.23281 0.0
C919 C 0.58555 0.31165 0.23974 0.0
C920 C 0.56927 0.31396 0.2576 0.0
C921 C 0.5677 0.29436 0.2259 0.0
C922 C 0.61569 0.29886 0.24217 0.0
C923 C 0.63717 0.3186 0.23766 0.0
C924 C 0.66668 0.31142 0.23822 0.0
C925 C 0.67444 0.28331 0.24353 0.0
C926 C 0.65277 0.26273 0.24817 0.0
C927 C 0.62305 0.27076 0.24756 0.0
H928 H 0.08336 0.94153 0.40434 0.0
H929 H 0.11364 0.88762 0.36052 0.0
H930 H 0.13914 0.8557 0.38193 0.0
H931 H 0.14892 0.93577 0.4318 0.0
H932 H 0.12836 0.93481 0.45224 0.0
H933 H 0.11428 0.95417 0.4333 0.0
H934 H 0.06658 0.92386 0.43478 0.0
H935 H 0.08059 0.9043 0.45362 0.0
H936 H 0.06866 0.88475 0.43405 0.0
H937 H 0.16014 0.82905 0.40846 0.0
H938 H 0.17394 0.8093 0.43789 0.0
H939 H 0.12865 0.88065 0.46386 0.0
C940 C 0.09582 0.92334 0.3992 0.0
C941 C 0.09674 0.91711 0.38079 0.0
C942 C 0.11264 0.89267 0.37461 0.0
C943 C 0.12727 0.87454 0.38665 0.0
C944 C 0.12568 0.8812 0.40476 0.0
C945 C 0.11036 0.90503 0.41099 0.0
C946 C 0.11086 0.9068 0.43109 0.0
C947 C 0.12654 0.93453 0.43748 0.0
C948 C 0.07983 0.90479 0.43883 0.0
C949 C 0.1285 0.87999 0.43526 0.0
C950 C 0.13715 0.86563 0.41993 0.0
C951 C 0.15354 0.84016 0.42055 0.0
C952 C 0.16124 0.82911 0.43729 0.0
C953 C 0.15227 0.84343 0.45311 0.0
C954 C 0.13576 0.86918 0.452 0.0
H955 H 0.10343 0.56664 0.64984 0.0
H956 H 0.08096 0.64704 0.6234 0.0
H957 H 0.10292 0.67503 0.64837 0.0
H958 H 0.0846 0.58945 0.69241 0.0
H959 H 0.11345 0.57019 0.70361 0.0
H960 H 0.09966 0.55685 0.68268 0.0
H961 H 0.15186 0.55807 0.66939 0.0
H962 H 0.16588 0.57132 0.69035 0.0
H963 H 0.1726 0.59135 0.67021 0.0
H964 H 0.12477 0.69392 0.67734 0.0
H965 H 0.14171 0.70202 0.70832 0.0
H966 H 0.14768 0.60877 0.71572 0.0
C967 C 0.10387 0.59014 0.64908 0.0
C968 C 0.09093 0.60475 0.63463 0.0
C969 C 0.09096 0.63551 0.63436 0.0
C970 C 0.10347 0.65152 0.64842 0.0
C971 C 0.1157 0.63638 0.66263 0.0
C972 C 0.11591 0.60635 0.66304 0.0
C973 C 0.12792 0.59517 0.68046 0.0
C974 C 0.10503 0.57685 0.69037 0.0
C975 C 0.15625 0.57797 0.67741 0.0
C976 C 0.13383 0.62357 0.69 0.0
C977 C 0.12719 0.64715 0.67943 0.0
C978 C 0.13022 0.6756 0.68568 0.0
C979 C 0.13988 0.68 0.70327 0.0
C980 C 0.14588 0.65603 0.71444 0.0
C981 C 0.14315 0.62755 0.70754 0.0
H982 H 0.39637 0.54603 0.89673 0.0
H983 H 0.37889 0.61572 0.85968 0.0
H984 H 0.35248 0.64257 0.88337 0.0
H985 H 0.32704 0.55325 0.92389 0.0
H986 H 0.34674 0.54535 0.94408 0.0
H987 H 0.35795 0.52906 0.92329 0.0
H988 H 0.41011 0.54976 0.92786 0.0
H989 H 0.39909 0.56621 0.9485 0.0
H990 H 0.41485 0.5883 0.93124 0.0
H991 H 0.33472 0.66484 0.9124 0.0
H992 H 0.33039 0.68115 0.94386 0.0
H993 H 0.36121 0.59711 0.9614 0.0
C994 C 0.38586 0.56633 0.89336 0.0
C995 C 0.38932 0.57862 0.87634 0.0
C996 C 0.37635 0.60587 0.87266 0.0
C997 C 0.36115 0.62115 0.88599 0.0
C998 C 0.35901 0.60881 0.90287 0.0
C999 C 0.37093 0.58187 0.90651 0.0
C1000 C 0.36953 0.57501 0.92614 0.0
C1001 C 0.34909 0.54913 0.92955 0.0
C1002 C 0.4002 0.56953 0.93388 0.0
C1003 C 0.35653 0.60294 0.93318 0.0
C1004 C 0.3497 0.6219 0.91958 0.0
C1005 C 0.33947 0.64995 0.92311 0.0
C1006 C 0.33702 0.65903 0.94098 0.0
C1007 C 0.34548 0.6403 0.95492 0.0
C1008 C 0.35447 0.61174 0.95093 0.0
H1009 H 0.40899 0.89018 0.12952 0.0
H1010 H 0.40577 0.98032 0.14688 0.0
H1011 H 0.37965 0.96585 0.17396 0.0
H1012 H 0.33685 0.86924 0.14747 0.0
H1013 H 0.34916 0.83382 0.15431 0.0
H1014 H 0.36563 0.8512 0.13535 0.0
H1015 H 0.41663 0.84583 0.14987 0.0
H1016 H 0.40033 0.8285 0.16887 0.0
H1017 H 0.42277 0.86034 0.17192 0.0
H1018 H 0.35909 0.94222 0.20027 0.0
H1019 H 0.3422 0.91005 0.22432 0.0
H1020 H 0.35609 0.83479 0.19039 0.0
C1021 C 0.40245 0.90684 0.13894 0.0
C1022 C 0.40907 0.93645 0.13594 0.0
C1023 C 0.40035 0.95761 0.14865 0.0
C1024 C 0.38563 0.94961 0.16414 0.0
C1025 C 0.37961 0.92035 0.16676 0.0
C1026 C 0.38746 0.89923 0.15453 0.0
C1027 C 0.37919 0.86919 0.16113 0.0
C1028 C 0.35634 0.85503 0.14883 0.0
C1029 C 0.40635 0.84983 0.16306 0.0
C1030 C 0.36619 0.87682 0.17915 0.0
C1031 C 0.36673 0.90652 0.18203 0.0
C1032 C 0.35802 0.91898 0.19809 0.0
C1033 C 0.34859 0.9006 0.21166 0.0
C1034 C 0.3476 0.87022 0.20899 0.0
C1035 C 0.35615 0.85809 0.1925 0.0
H1036 H 0.09893 0.5772 0.86028 0.0
H1037 H 0.09196 0.64799 0.89826 0.0
H1038 H 0.11837 0.68039 0.87741 0.0
H1039 H 0.17066 0.59679 0.84095 0.0
H1040 H 0.1593 0.58672 0.81876 0.0
H1041 H 0.14414 0.56827 0.83774 0.0
H1042 H 0.09194 0.58128 0.82708 0.0
H1043 H 0.10691 0.59976 0.80813 0.0
H1044 H 0.08275 0.61877 0.82312 0.0
H1045 H 0.14293 0.70558 0.85143 0.0
H1046 H 0.15934 0.72249 0.82177 0.0
H1047 H 0.14651 0.63566 0.80045 0.0
C1048 C 0.10374 0.59932 0.86433 0.0
C1049 C 0.0941 0.61016 0.88089 0.0
C1050 C 0.09966 0.63941 0.88565 0.0
C1051 C 0.11467 0.65783 0.87394 0.0
C1052 C 0.12359 0.64662 0.85751 0.0
C1053 C 0.11814 0.61805 0.85269 0.0
C1054 C 0.12697 0.61211 0.83361 0.0
C1055 C 0.15174 0.58964 0.83272 0.0
C1056 C 0.10057 0.60242 0.82233 0.0
C1057 C 0.13759 0.64192 0.82829 0.0
C1058 C 0.13616 0.66141 0.84233 0.0
C1059 C 0.14428 0.69045 0.84037 0.0
C1060 C 0.1536 0.69986 0.82353 0.0
C1061 C 0.15405 0.68039 0.80888 0.0
C1062 C 0.14632 0.65104 0.81142 0.0
H1063 H 0.38583 0.59248 0.12264 0.0
H1064 H 0.47589 0.61411 0.11061 0.0
H1065 H 0.45951 0.64459 0.08571 0.0
H1066 H 0.36267 0.58416 0.07912 0.0
H1067 H 0.32702 0.59998 0.08212 0.0
H1068 H 0.34528 0.5833 0.10064 0.0
H1069 H 0.34039 0.63101 0.1189 0.0
H1070 H 0.32202 0.64786 0.1004 0.0
H1071 H 0.35419 0.66449 0.10983 0.0
H1072 H 0.43477 0.66548 0.05952 0.0
H1073 H 0.40241 0.67824 0.03448 0.0
H1074 H 0.32775 0.64605 0.06373 0.0
C1075 C 0.40201 0.6041 0.11495 0.0
C1076 C 0.43212 0.60112 0.11865 0.0
C1077 C 0.4527 0.61651 0.10825 0.0
C1078 C 0.44361 0.63382 0.09403 0.0
C1079 C 0.41386 0.63585 0.09052 0.0
C1080 C 0.39328 0.62175 0.10078 0.0
C1081 C 0.36281 0.62597 0.09333 0.0
C1082 C 0.34863 0.59661 0.08851 0.0
C1083 C 0.34373 0.64338 0.10639 0.0
C1084 C 0.36968 0.64352 0.07683 0.0
C1085 C 0.39928 0.6491 0.07556 0.0
C1086 C 0.41147 0.66202 0.06058 0.0
C1087 C 0.39299 0.66911 0.04641 0.0
C1088 C 0.36269 0.66367 0.04746 0.0
C1089 C 0.35077 0.65126 0.06297 0.0
H1090 H 0.40953 0.94305 0.36211 0.0
H1091 H 0.41353 0.86451 0.39348 0.0
H1092 H 0.38643 0.83794 0.36985 0.0
H1093 H 0.33718 0.92927 0.34014 0.0
H1094 H 0.34999 0.94405 0.31938 0.0
H1095 H 0.36404 0.95792 0.3402 0.0
H1096 H 0.41681 0.94694 0.32968 0.0
H1097 H 0.40298 0.93307 0.30892 0.0
H1098 H 0.42607 0.91061 0.32257 0.0
H1099 H 0.36368 0.81892 0.34118 0.0
H1100 H 0.3521 0.80847 0.30944 0.0
H1101 H 0.36629 0.89901 0.29676 0.0
C1102 C 0.40373 0.92053 0.36427 0.0
C1103 C 0.41305 0.90589 0.37968 0.0
C1104 C 0.40622 0.8761 0.38178 0.0
C1105 C 0.39073 0.86094 0.3685 0.0
C1106 C 0.38238 0.8759 0.3532 0.0
C1107 C 0.38877 0.90507 0.35105 0.0
C1108 C 0.38124 0.91529 0.33251 0.0
C1109 C 0.35665 0.93797 0.3331 0.0
C1110 C 0.40839 0.92715 0.32286 0.0
C1111 C 0.37076 0.88711 0.32429 0.0
C1112 C 0.37067 0.86476 0.33652 0.0
C1113 C 0.36328 0.83636 0.33158 0.0
C1114 C 0.35665 0.8306 0.31359 0.0
C1115 C 0.35822 0.85303 0.30086 0.0
C1116 C 0.3647 0.88162 0.30637 0.0
H1117 H 0.11254 0.94447 0.61543 0.0
H1118 H 0.0578 0.87033 0.6284 0.0
H1119 H 0.08389 0.84099 0.60615 0.0
H1120 H 0.10528 0.93521 0.57047 0.0
H1121 H 0.14148 0.94747 0.56483 0.0
H1122 H 0.12435 0.96032 0.58488 0.0
H1123 H 0.16847 0.94205 0.60334 0.0
H1124 H 0.1857 0.92895 0.58326 0.0
H1125 H 0.17954 0.90457 0.60158 0.0
H1126 H 0.11143 0.82118 0.57978 0.0
H1127 H 0.13287 0.81508 0.5497 0.0
H1128 H 0.164 0.90391 0.55154 0.0
C1129 C 0.10598 0.92203 0.61381 0.0
C1130 C 0.08296 0.90997 0.62395 0.0
C1131 C 0.07575 0.88023 0.62132 0.0
C1132 C 0.09044 0.86326 0.60858 0.0
C1133 C 0.11219 0.87627 0.5984 0.0
C1134 C 0.11972 0.9051 0.60079 0.0
C1135 C 0.1402 0.91537 0.58632 0.0
C1136 C 0.12702 0.94109 0.57602 0.0
C1137 C 0.17026 0.92319 0.59409 0.0
C1138 C 0.14185 0.88824 0.5749 0.0
C1139 C 0.12654 0.86553 0.58245 0.0
C1140 C 0.12377 0.83869 0.57386 0.0
C1141 C 0.13607 0.83536 0.55684 0.0
C1142 C 0.15009 0.85902 0.54848 0.0
C1143 C 0.15361 0.88547 0.55781 0.0
H1144 H 0.61121 0.44616 0.89443 0.0
H1145 H 0.57457 0.37237 0.86547 0.0
H1146 H 0.60208 0.33935 0.88459 0.0
H1147 H 0.68164 0.41485 0.90661 0.0
H1148 H 0.68068 0.43018 0.92875 0.0
H1149 H 0.66294 0.4487 0.91063 0.0
H1150 H 0.61418 0.44869 0.92815 0.0
H1151 H 0.63181 0.43042 0.94632 0.0
H1152 H 0.59969 0.41479 0.9362 0.0
H1153 H 0.63119 0.31376 0.9079 0.0
H1154 H 0.65341 0.29766 0.93616 0.0
H1155 H 0.6644 0.38748 0.9526 0.0
C1156 C 0.60864 0.42315 0.89195 0.0
C1157 C 0.59069 0.41234 0.878 0.0
C1158 C 0.58878 0.38177 0.87546 0.0
C1159 C 0.60426 0.3626 0.8864 0.0
C1160 C 0.62121 0.37412 0.90011 0.0
C1161 C 0.62307 0.40366 0.90313 0.0
C1162 C 0.63952 0.41034 0.92019 0.0
C1163 C 0.66788 0.427 0.9163 0.0
C1164 C 0.62014 0.42703 0.9335 0.0
C1165 C 0.64589 0.37985 0.92654 0.0
C1166 C 0.63603 0.35931 0.91445 0.0
C1167 C 0.63908 0.32963 0.91745 0.0
C1168 C 0.6518 0.3207 0.93349 0.0
C1169 C 0.66049 0.34139 0.94647 0.0
C1170 C 0.65793 0.3713 0.94283 0.0
H1171 H 0.6106 0.0647 0.14217 0.0
H1172 H 0.56962 0.14412 0.12423 0.0
H1173 H 0.59361 0.17127 0.14885 0.0
H1174 H 0.59901 0.07665 0.18674 0.0
H1175 H 0.63274 0.06073 0.19426 0.0
H1176 H 0.61676 0.04896 0.17358 0.0
H1177 H 0.66475 0.06137 0.15698 0.0
H1178 H 0.68096 0.07316 0.17769 0.0
H1179 H 0.67996 0.09739 0.15893 0.0
H1180 H 0.61868 0.18857 0.17716 0.0
H1181 H 0.63888 0.19357 0.20766 0.0
H1182 H 0.66108 0.10199 0.2073 0.0
C1183 C 0.60746 0.08798 0.1431 0.0
C1184 C 0.58871 0.10249 0.1312 0.0
C1185 C 0.58414 0.13274 0.13319 0.0
C1186 C 0.59779 0.1483 0.14704 0.0
C1187 C 0.61579 0.1332 0.15879 0.0
C1188 C 0.62054 0.10366 0.15694 0.0
C1189 C 0.63787 0.09174 0.1724 0.0
C1190 C 0.62055 0.06815 0.18233 0.0
C1191 C 0.66766 0.08025 0.16612 0.0
C1192 C 0.64129 0.11894 0.18359 0.0
C1193 C 0.6291 0.14283 0.17536 0.0
C1194 C 0.62855 0.17007 0.18363 0.0
C1195 C 0.64012 0.17274 0.20092 0.0
C1196 C 0.65144 0.14815 0.20981 0.0
C1197 C 0.65255 0.12116 0.20082 0.0
H1198 H 0.94341 0.13133 0.38358 0.0
H1199 H 0.87128 0.07234 0.37236 0.0
H1200 H 0.84023 0.1004 0.39266 0.0
H1201 H 0.9314 0.13095 0.42925 0.0
H1202 H 0.94265 0.16807 0.43283 0.0
H1203 H 0.95731 0.14767 0.41442 0.0
H1204 H 0.93961 0.18752 0.39266 0.0
H1205 H 0.92464 0.20795 0.41106 0.0
H1206 H 0.90166 0.19787 0.39252 0.0
H1207 H 0.81779 0.13212 0.41634 0.0
H1208 H 0.80846 0.16037 0.44395 0.0
H1209 H 0.89708 0.19302 0.44284 0.0
C1210 C 0.92115 0.12404 0.38522 0.0
C1211 C 0.91012 0.09946 0.37594 0.0
C1212 C 0.88046 0.09147 0.37864 0.0
C1213 C 0.86249 0.10725 0.39031 0.0
C1214 C 0.87443 0.13077 0.3995 0.0
C1215 C 0.90322 0.13885 0.39728 0.0
C1216 C 0.91208 0.16207 0.4106 0.0
C1217 C 0.93734 0.15155 0.42248 0.0
C1218 C 0.91996 0.19054 0.40114 0.0
C1219 C 0.88401 0.16514 0.42104 0.0
C1220 C 0.86222 0.14763 0.41405 0.0
C1221 C 0.83462 0.14606 0.42184 0.0
C1222 C 0.82948 0.16213 0.43747 0.0
C1223 C 0.85207 0.17879 0.44527 0.0
C1224 C 0.87943 0.18071 0.43684 0.0
H1225 H 0.95046 0.41131 0.64567 0.0
H1226 H 0.88042 0.41362 0.607 0.0
H1227 H 0.84911 0.38476 0.62728 0.0
H1228 H 0.93436 0.3378 0.66445 0.0
H1229 H 0.94321 0.34965 0.68674 0.0
H1230 H 0.96156 0.3656 0.66794 0.0
H1231 H 0.9456 0.41687 0.67859 0.0
H1232 H 0.92725 0.40113 0.69735 0.0
H1233 H 0.90739 0.42414 0.68225 0.0
H1234 H 0.82422 0.36015 0.65298 0.0
H1235 H 0.80641 0.34523 0.68265 0.0
H1236 H 0.89234 0.36143 0.7049 0.0
C1237 C 0.92882 0.40488 0.64135 0.0
C1238 C 0.91777 0.41394 0.6248 0.0
C1239 C 0.88914 0.40627 0.61961 0.0
C1240 C 0.87137 0.38987 0.63099 0.0
C1241 C 0.8827 0.38157 0.64745 0.0
C1242 C 0.91078 0.38888 0.65262 0.0
C1243 C 0.9166 0.38049 0.67174 0.0
C1244 C 0.94034 0.35698 0.67277 0.0
C1245 C 0.92467 0.40725 0.68315 0.0
C1246 C 0.88707 0.36842 0.67678 0.0
C1247 C 0.86803 0.36848 0.66248 0.0
C1248 C 0.83904 0.35967 0.66421 0.0
C1249 C 0.82913 0.35123 0.68109 0.0
C1250 C 0.84803 0.35227 0.696 0.0
C1251 C 0.87747 0.36036 0.69369 0.0
H1252 H 0.59558 0.0508 0.35233 0.0
H1253 H 0.62417 0.104 0.39694 0.0
H1254 H 0.6483 0.13776 0.37607 0.0
H1255 H 0.66084 0.06122 0.32438 0.0
H1256 H 0.6397 0.06237 0.30414 0.0
H1257 H 0.62711 0.04116 0.32272 0.0
H1258 H 0.57795 0.069 0.32232 0.0
H1259 H 0.59044 0.0904 0.30385 0.0
H1260 H 0.57808 0.1081 0.32395 0.0
H1261 H 0.66642 0.16742 0.35011 0.0
H1262 H 0.67716 0.19046 0.32114 0.0
H1263 H 0.6364 0.1177 0.29374 0.0
C1264 C 0.60754 0.06915 0.35773 0.0
C1265 C 0.60817 0.07472 0.37624 0.0
C1266 C 0.62337 0.09941 0.38278 0.0
C1267 C 0.63723 0.11862 0.37105 0.0
C1268 C 0.63571 0.11279 0.35283 0.0
C1269 C 0.62135 0.08858 0.34622 0.0
C1270 C 0.62142 0.08812 0.32606 0.0
C1271 C 0.63828 0.06165 0.31891 0.0
C1272 C 0.59012 0.08896 0.31862 0.0
C1273 C 0.63759 0.11611 0.32234 0.0
C1274 C 0.64588 0.12993 0.33793 0.0
C1275 C 0.66026 0.15665 0.33781 0.0
C1276 C 0.66621 0.16959 0.32132 0.0
C1277 C 0.65764 0.15585 0.30521 0.0
C1278 C 0.64334 0.12868 0.30582 0.0
H1279 H 0.9154 0.06014 0.59959 0.0
H1280 H 0.90339 0.13346 0.63542 0.0
H1281 H 0.88528 0.16294 0.61016 0.0
H1282 H 0.94091 0.09985 0.56276 0.0
H1283 H 0.9226 0.07735 0.54649 0.0
H1284 H 0.9335 0.06222 0.56752 0.0
H1285 H 0.88022 0.04586 0.5735 0.0
H1286 H 0.86917 0.06076 0.55242 0.0
H1287 H 0.85121 0.07225 0.57262 0.0
H1288 H 0.86896 0.18434 0.58017 0.0
H1289 H 0.8565 0.19535 0.54878 0.0
H1290 H 0.87973 0.10708 0.53376 0.0
C1291 C 0.90843 0.08221 0.60228 0.0
C1292 C 0.9105 0.09438 0.61953 0.0
C1293 C 0.90201 0.12369 0.62229 0.0
C1294 C 0.89162 0.14054 0.60805 0.0
C1295 C 0.88996 0.12775 0.59117 0.0
C1296 C 0.89813 0.0992 0.58832 0.0
C1297 C 0.89506 0.09049 0.56899 0.0
C1298 C 0.92479 0.08199 0.56098 0.0
C1299 C 0.87257 0.06589 0.56676 0.0
C1300 C 0.88398 0.11862 0.56129 0.0
C1301 C 0.88102 0.13993 0.5742 0.0
C1302 C 0.87117 0.16774 0.56998 0.0
C1303 C 0.86415 0.1738 0.55212 0.0
C1304 C 0.86716 0.15214 0.53873 0.0
C1305 C 0.87722 0.12427 0.54355 0.0
H1306 H 0.94809 0.41503 0.8577 0.0
H1307 H 0.86655 0.44902 0.87829 0.0
H1308 H 0.83996 0.42591 0.85314 0.0
H1309 H 0.93312 0.4287 0.8131 0.0
H1310 H 0.95097 0.39661 0.8046 0.0
H1311 H 0.96276 0.41251 0.82533 0.0
H1312 H 0.95451 0.36337 0.84127 0.0
H1313 H 0.94277 0.34725 0.82053 0.0
H1314 H 0.91937 0.34584 0.83979 0.0
H1315 H 0.82295 0.40128 0.82461 0.0
H1316 H 0.81736 0.38005 0.79444 0.0
H1317 H 0.91071 0.36427 0.79237 0.0
C1318 C 0.92454 0.41695 0.85715 0.0
C1319 C 0.90924 0.43341 0.87001 0.0
C1320 C 0.87857 0.43632 0.86857 0.0
C1321 C 0.86333 0.42318 0.85441 0.0
C1322 C 0.87917 0.4074 0.84178 0.0
C1323 C 0.90912 0.40433 0.84303 0.0
C1324 C 0.92145 0.38853 0.827 0.0
C1325 C 0.94335 0.40774 0.81692 0.0
C1326 C 0.93534 0.35952 0.83248 0.0
C1327 C 0.89386 0.3837 0.81632 0.0
C1328 C 0.8696 0.39423 0.82517 0.0
C1329 C 0.84179 0.3928 0.81763 0.0
C1330 C 0.83882 0.38067 0.8005 0.0
C1331 C 0.86361 0.37059 0.79102 0.0
C1332 C 0.89134 0.37186 0.79923 0.0
H1333 H 0.60208 0.44135 0.10759 0.0
H1334 H 0.56789 0.35943 0.12662 0.0
H1335 H 0.59378 0.33353 0.10226 0.0
H1336 H 0.59172 0.4263 0.06268 0.0
H1337 H 0.62407 0.4448 0.0551 0.0
H1338 H 0.60667 0.4561 0.07545 0.0
H1339 H 0.65521 0.4489 0.09262 0.0
H1340 H 0.67284 0.43762 0.07227 0.0
H1341 H 0.67358 0.41432 0.09148 0.0
H1342 H 0.62067 0.31726 0.07456 0.0
H1343 H 0.643 0.3122 0.04476 0.0
H1344 H 0.65739 0.4054 0.0433 0.0
C1345 C 0.60075 0.41787 0.10688 0.0
C1346 C 0.58346 0.40223 0.11906 0.0
C1347 C 0.58128 0.37166 0.11743 0.0
C1348 C 0.59599 0.35683 0.10372 0.0
C1349 C 0.61255 0.37297 0.09173 0.0
C1350 C 0.61488 0.40286 0.09315 0.0
C1351 C 0.63146 0.4155 0.07758 0.0
C1352 C 0.61233 0.43692 0.06709 0.0
C1353 C 0.65997 0.42993 0.08387 0.0
C1354 C 0.63749 0.38817 0.06692 0.0
C1355 C 0.62697 0.36379 0.07545 0.0
C1356 C 0.62918 0.33618 0.06783 0.0
C1357 C 0.64196 0.33352 0.0509 0.0
C1358 C 0.65191 0.3584 0.04166 0.0
C1359 C 0.65001 0.38595 0.04999 0.0
loop_
_geom_bond_atom_site_label_1
_geom_bond_atom_site_label_2
_geom_bond_distance
_geom_bond_site_symmetry_2
_ccdc_geom_bond_type
H0 C19 0.949 . S
H1 C20 0.950 . S
H2 C22 0.950 . S
H3 C23 0.950 . S
H4 C25 0.950 . S
H5 C28 0.950 . S
H6 C29 0.950 . S
H7 C31 0.951 . S
H8 C32 0.972 . S
H9 C34 0.949 . S
H10 C35 0.950 . S
H11 C37 0.950 . S
H12 C38 0.950 . S
H13 C40 0.950 1_565 S
H14 C43 0.950 . S
H15 C44 0.950 . S
H16 C46 0.951 . S
H17 C47 0.949 1_545 S
C18 C19 1.376 . S
C18 C23 1.386 . S
C18 C24 1.483 . S
C19 H0 0.949 . S
C19 C18 1.376 . S
C19 C20 1.397 . S
C20 H1 0.950 . S
C20 C19 1.397 . S
C20 C21 1.391 . S
C21 C20 1.391 . S
C21 C22 1.405 . S
C22 H2 0.950 . S
C22 C21 1.405 . S
C22 C23 1.367 . S
C23 H3 0.950 . S
C23 C18 1.386 . S
C23 C22 1.367 . S
C24 C18 1.483 . S
C24 C25 1.382 1_655 S
C24 C26 1.403 . S
C25 H4 0.950 . S
C25 C24 1.382 1_455 S
C25 C41 1.411 1_545 S
C26 C24 1.403 . S
C26 C27 1.489 . S
C26 C40 1.411 1_655 S
C27 C26 1.489 . S
C27 C28 1.383 . S
C27 C32 1.382 . S
C28 H5 0.950 . S
C28 C27 1.383 . S
C28 C29 1.395 . S
C29 H6 0.950 . S
C29 C28 1.395 . S
C29 C30 1.288 . S
C30 C29 1.288 . S
C30 C31 1.392 . S
C31 H7 0.951 . S
C31 C30 1.392 . S
C31 C32 1.392 . S
C32 H8 0.972 . S
C32 C27 1.382 . S
C32 C31 1.392 . S
C33 C34 1.376 . S
C33 C38 1.386 . S
C33 C39 1.483 . S
C34 H9 0.949 . S
C34 C33 1.376 . S
C34 C35 1.397 . S
C35 H10 0.950 . S
C35 C34 1.397 . S
C35 C36 1.391 . S
C36 C35 1.391 . S
C36 C37 1.405 . S
C37 H11 0.950 . S
C37 C36 1.405 . S
C37 C38 1.367 . S
C38 H12 0.950 . S
C38 C33 1.386 . S
C38 C37 1.367 . S
C39 C33 1.483 . S
C39 C40 1.382 1_565 S
C39 C41 1.403 . S
C40 H13 0.950 1_545 S
C40 C26 1.411 1_455 S
C40 C39 1.382 1_545 S
C41 C25 1.411 1_565 S
C41 C39 1.403 . S
C41 C42 1.489 . S
C42 C41 1.489 . S
C42 C43 1.383 . S
C42 C47 1.382 . S
C43 H14 0.950 . S
C43 C42 1.383 . S
C43 C44 1.395 . S
C44 H15 0.950 . S
C44 C43 1.395 . S
C44 C45 1.288 . S
C45 C44 1.288 . S
C45 C46 1.392 . S
C46 H16 0.951 . S
C46 C45 1.392 . S
C46 C47 1.392 . S
C47 H17 0.949 1_565 S
C47 C42 1.382 . S
C47 C46 1.392 . S
H48 C67 0.949 1_455 S
H49 C68 0.950 . S
H50 C70 0.950 . S
H51 C71 0.950 . S
H52 C73 0.950 . S
H53 C76 0.950 . S
H54 C77 0.950 . S
H55 C79 0.951 . S
H56 C80 0.949 . S
H57 C82 0.975 . S
H58 C83 0.950 . S
H59 C85 0.950 . S
H60 C86 0.950 . S
H61 C88 0.950 1_655 S
H62 C91 0.950 . S
H63 C92 0.950 . S
H64 C94 0.951 . S
H65 C95 0.949 . S
C66 C67 1.376 . S
C66 C71 1.386 . S
C66 C72 1.483 . S
C67 H48 0.949 1_655 S
C67 C66 1.376 . S
C67 C68 1.397 . S
C68 H49 0.950 . S
C68 C67 1.397 . S
C68 C69 1.391 . S
C69 C68 1.391 . S
C69 C70 1.405 . S
C70 H50 0.950 . S
C70 C69 1.405 . S
C70 C71 1.367 . S
C71 H51 0.950 . S
C71 C66 1.386 . S
C71 C70 1.367 . S
C72 C66 1.483 . S
C72 C73 1.382 1_655 S
C72 C74 1.403 . S
C73 H52 0.950 . S
C73 C72 1.382 1_455 S
C73 C89 1.411 . S
C74 C72 1.403 . S
C74 C75 1.489 . S
C74 C88 1.411 1_655 S
C75 C74 1.489 . S
C75 C76 1.383 . S
C75 C80 1.382 . S
C76 H53 0.950 . S
C76 C75 1.383 . S
C76 C77 1.395 . S
C77 H54 0.950 . S
C77 C76 1.395 . S
C77 C78 1.288 . S
C78 C77 1.288 . S
C78 C79 1.392 . S
C79 H55 0.951 . S
C79 C78 1.392 . S
C79 C80 1.392 . S
C80 H56 0.949 . S
C80 C75 1.382 . S
C80 C79 1.392 . S
C81 C82 1.376 . S
C81 C86 1.386 . S
C81 C87 1.483 . S
C82 H57 0.975 . S
C82 C81 1.376 . S
C82 C83 1.397 . S
C83 H58 0.950 . S
C83 C82 1.397 . S
C83 C84 1.391 . S
C84 C83 1.391 . S
C84 C85 1.405 . S
C85 H59 0.950 . S
C85 C84 1.405 . S
C85 C86 1.367 . S
C86 H60 0.950 . S
C86 C81 1.386 . S
C86 C85 1.367 . S
C87 C81 1.483 . S
C87 C88 1.382 . S
C87 C89 1.403 . S
C88 H61 0.950 1_455 S
C88 C74 1.411 1_455 S
C88 C87 1.382 . S
C89 C73 1.411 . S
C89 C87 1.403 . S
C89 C90 1.489 . S
C90 C89 1.489 . S
C90 C91 1.383 . S
C90 C95 1.382 . S
C91 H62 0.950 . S
C91 C90 1.383 . S
C91 C92 1.395 . S
C92 H63 0.950 . S
C92 C91 1.395 . S
C92 C93 1.288 . S
C93 C92 1.288 . S
C93 C94 1.392 . S
C94 H64 0.951 . S
C94 C93 1.392 . S
C94 C95 1.392 . S
C95 H65 0.949 . S
C95 C90 1.382 . S
C95 C94 1.392 . S
H96 C115 0.949 . S
H97 C116 0.950 . S
H98 C118 0.950 . S
H99 C119 0.950 . S
H100 C121 0.950 . S
H101 C124 0.950 . S
H102 C125 0.950 . S
H103 C127 0.951 . S
H104 C128 0.949 . S
H105 C130 0.949 . S
H106 C131 0.950 . S
H107 C133 0.950 . S
H108 C134 0.950 . S
H109 C136 0.950 . S
H110 C139 0.950 . S
H111 C140 0.950 . S
H112 C142 0.951 . S
H113 C143 0.949 . S
C114 C115 1.376 . S
C114 C119 1.386 . S
C114 C120 1.483 . S
C115 H96 0.949 . S
C115 C114 1.376 . S
C115 C116 1.397 . S
C116 H97 0.950 . S
C116 C115 1.397 . S
C116 C117 1.391 . S
C117 C116 1.391 . S
C117 C118 1.405 . S
C118 H98 0.950 . S
C118 C117 1.405 . S
C118 C119 1.367 . S
C119 H99 0.950 . S
C119 C114 1.386 . S
C119 C118 1.367 . S
C120 C114 1.483 . S
C120 C121 1.382 . S
C120 C122 1.403 . S
C121 H100 0.950 . S
C121 C120 1.382 . S
C121 C137 1.411 . S
C122 C120 1.403 . S
C122 C123 1.489 . S
C122 C136 1.411 . S
C123 C122 1.489 . S
C123 C124 1.383 . S
C123 C128 1.382 . S
C124 H101 0.950 . S
C124 C123 1.383 . S
C124 C125 1.395 . S
C125 H102 0.950 . S
C125 C124 1.395 . S
C125 C126 1.288 . S
C126 C125 1.288 . S
C126 C127 1.392 . S
C127 H103 0.951 . S
C127 C126 1.392 . S
C127 C128 1.392 . S
C128 H104 0.949 . S
C128 C123 1.382 . S
C128 C127 1.392 . S
C129 C130 1.376 . S
C129 C134 1.386 . S
C129 C135 1.483 . S
C130 H105 0.949 . S
C130 C129 1.376 . S
C130 C131 1.397 . S
C131 H106 0.950 . S
C131 C130 1.397 . S
C131 C132 1.391 . S
C132 C131 1.391 . S
C132 C133 1.405 . S
C133 H107 0.950 . S
C133 C132 1.405 . S
C133 C134 1.367 . S
C134 H108 0.950 . S
C134 C129 1.386 . S
C134 C133 1.367 . S
C135 C129 1.483 . S
C135 C136 1.382 . S
C135 C137 1.403 . S
C136 H109 0.950 . S
C136 C122 1.411 . S
C136 C135 1.382 . S
C137 C121 1.411 . S
C137 C135 1.403 . S
C137 C138 1.489 . S
C138 C137 1.489 . S
C138 C139 1.383 . S
C138 C143 1.382 . S
C139 H110 0.950 . S
C139 C138 1.383 . S
C139 C140 1.395 . S
C140 H111 0.950 . S
C140 C139 1.395 . S
C140 C141 1.288 . S
C141 C140 1.288 . S
C141 C142 1.392 . S
C142 H112 0.951 . S
C142 C141 1.392 . S
C142 C143 1.392 . S
C143 H113 0.949 . S
C143 C138 1.382 . S
C143 C142 1.392 . S
H144 C163 0.949 . S
H145 C164 0.950 . S
H146 C166 0.950 . S
H147 C167 0.950 . S
H148 C169 0.950 . S
H149 C172 0.950 . S
H150 C173 0.950 . S
H151 C175 0.951 . S
H152 C176 0.949 . S
H153 C178 0.949 . S
H154 C179 0.950 . S
H155 C181 0.950 . S
H156 C182 0.950 . S
H157 C184 0.950 . S
H158 C187 0.950 . S
H159 C188 0.950 . S
H160 C190 0.951 . S
H161 C191 0.949 . S
C162 C163 1.376 . S
C162 C167 1.386 . S
C162 C168 1.483 . S
C163 H144 0.949 . S
C163 C162 1.376 . S
C163 C164 1.397 . S
C164 H145 0.950 . S
C164 C163 1.397 . S
C164 C165 1.391 . S
C165 C164 1.391 . S
C165 C166 1.405 . S
C166 H146 0.950 . S
C166 C165 1.405 . S
C166 C167 1.367 . S
C167 H147 0.950 . S
C167 C162 1.386 . S
C167 C166 1.367 . S
C168 C162 1.483 . S
C168 C169 1.382 . S
C168 C170 1.403 . S
C169 H148 0.950 . S
C169 C168 1.382 . S
C169 C185 1.411 1_565 S
C170 C168 1.403 . S
C170 C171 1.489 . S
C170 C184 1.411 1_565 S
C171 C170 1.489 . S
C171 C172 1.383 . S
C171 C176 1.382 . S
C172 H149 0.950 . S
C172 C171 1.383 . S
C172 C173 1.395 . S
C173 H150 0.950 . S
C173 C172 1.395 . S
C173 C174 1.288 . S
C174 C173 1.288 . S
C174 C175 1.392 . S
C175 H151 0.951 . S
C175 C174 1.392 . S
C175 C176 1.392 . S
C176 H152 0.949 . S
C176 C171 1.382 . S
C176 C175 1.392 . S
C177 C178 1.376 . S
C177 C182 1.386 . S
C177 C183 1.483 . S
C178 H153 0.949 . S
C178 C177 1.376 . S
C178 C179 1.397 . S
C179 H154 0.950 . S
C179 C178 1.397 . S
C179 C180 1.391 . S
C180 C179 1.391 . S
C180 C181 1.405 . S
C181 H155 0.950 . S
C181 C180 1.405 . S
C181 C182 1.367 . S
C182 H156 0.950 . S
C182 C177 1.386 . S
C182 C181 1.367 . S
C183 C177 1.483 . S
C183 C184 1.382 . S
C183 C185 1.403 . S
C184 H157 0.950 . S
C184 C170 1.411 1_545 S
C184 C183 1.382 . S
C185 C169 1.411 1_545 S
C185 C183 1.403 . S
C185 C186 1.489 . S
C186 C185 1.489 . S
C186 C187 1.383 . S
C186 C191 1.382 . S
C187 H158 0.950 . S
C187 C186 1.383 . S
C187 C188 1.395 . S
C188 H159 0.950 . S
C188 C187 1.395 . S
C188 C189 1.288 . S
C189 C188 1.288 . S
C189 C190 1.392 . S
C190 H160 0.951 . S
C190 C189 1.392 . S
C190 C191 1.392 . S
C191 H161 0.949 . S
C191 C186 1.382 . S
C191 C190 1.392 . S
H192 C211 0.949 . S
H193 C212 0.950 . S
H194 C214 0.950 . S
H195 C215 0.950 . S
H196 C217 0.950 . S
H197 C220 0.950 . S
H198 C221 0.950 . S
H199 C223 0.951 . S
H200 C224 0.949 . S
H201 C226 0.949 . S
H202 C227 0.950 . S
H203 C229 0.950 . S
H204 C230 0.950 . S
H205 C232 0.950 . S
H206 C235 0.950 . S
H207 C236 0.950 . S
H208 C238 0.951 . S
H209 C239 0.949 . S
C210 C211 1.376 . S
C210 C215 1.386 . S
C210 C216 1.483 . S
C211 H192 0.949 . S
C211 C210 1.376 . S
C211 C212 1.397 . S
C212 H193 0.950 . S
C212 C211 1.397 . S
C212 C213 1.391 . S
C213 C212 1.391 . S
C213 C214 1.405 . S
C214 H194 0.950 . S
C214 C213 1.405 . S
C214 C215 1.367 . S
C215 H195 0.950 . S
C215 C210 1.386 . S
C215 C214 1.367 . S
C216 C210 1.483 . S
C216 C217 1.382 1_455 S
C216 C218 1.403 . S
C217 H196 0.950 . S
C217 C216 1.382 1_655 S
C217 C233 1.411 . S
C218 C216 1.403 . S
C218 C219 1.489 . S
C218 C232 1.411 . S
C219 C218 1.489 . S
C219 C220 1.383 . S
C219 C224 1.382 . S
C220 H197 0.950 . S
C220 C219 1.383 . S
C220 C221 1.395 . S
C221 H198 0.950 . S
C221 C220 1.395 . S
C221 C222 1.288 . S
C222 C221 1.288 . S
C222 C223 1.392 . S
C223 H199 0.951 . S
C223 C222 1.392 . S
C223 C224 1.392 . S
C224 H200 0.949 . S
C224 C219 1.382 . S
C224 C223 1.392 . S
C225 C226 1.376 . S
C225 C230 1.386 . S
C225 C231 1.483 . S
C226 H201 0.949 . S
C226 C225 1.376 . S
C226 C227 1.397 . S
C227 H202 0.950 . S
C227 C226 1.397 . S
C227 C228 1.391 . S
C228 C227 1.391 . S
C228 C229 1.405 . S
C229 H203 0.950 . S
C229 C228 1.405 . S
C229 C230 1.367 . S
C230 H204 0.950 . S
C230 C225 1.386 . S
C230 C229 1.367 . S
C231 C225 1.483 . S
C231 C232 1.382 1_655 S
C231 C233 1.403 . S
C232 H205 0.950 . S
C232 C218 1.411 . S
C232 C231 1.382 1_455 S
C233 C217 1.411 . S
C233 C231 1.403 . S
C233 C234 1.489 . S
C234 C233 1.489 . S
C234 C235 1.383 . S
C234 C239 1.382 . S
C235 H206 0.950 . S
C235 C234 1.383 . S
C235 C236 1.395 . S
C236 H207 0.950 . S
C236 C235 1.395 . S
C236 C237 1.288 . S
C237 C236 1.288 . S
C237 C238 1.392 . S
C238 H208 0.951 . S
C238 C237 1.392 . S
C238 C239 1.392 . S
C239 H209 0.949 . S
C239 C234 1.382 . S
C239 C238 1.392 . S
H240 C259 0.949 . S
H241 C260 0.950 . S
H242 C262 0.950 . S
H243 C263 0.950 . S
H244 C265 0.950 . S
H245 C268 0.950 . S
H246 C269 0.950 . S
H247 C271 0.951 . S
H248 C272 0.949 . S
H249 C274 0.949 . S
H250 C275 0.950 . S
H251 C277 0.950 . S
H252 C278 0.950 . S
H253 C280 0.950 . S
H254 C283 0.950 . S
H255 C284 0.950 . S
H256 C286 0.951 . S
H257 C287 0.949 . S
C258 C259 1.376 . S
C258 C263 1.386 . S
C258 C264 1.483 . S
C259 H240 0.949 . S
C259 C258 1.376 . S
C259 C260 1.397 . S
C260 H241 0.950 . S
C260 C259 1.397 . S
C260 C261 1.391 . S
C261 C260 1.391 . S
C261 C262 1.405 . S
C262 H242 0.950 . S
C262 C261 1.405 . S
C262 C263 1.367 . S
C263 H243 0.950 . S
C263 C258 1.386 . S
C263 C262 1.367 . S
C264 C258 1.483 . S
C264 C265 1.382 . S
C264 C266 1.403 . S
C265 H244 0.950 . S
C265 C264 1.382 . S
C265 C281 1.411 . S
C266 C264 1.403 . S
C266 C267 1.489 . S
C266 C280 1.411 . S
C267 C266 1.489 . S
C267 C268 1.383 . S
C267 C272 1.382 . S
C268 H245 0.950 . S
C268 C267 1.383 . S
C268 C269 1.395 . S
C269 H246 0.950 . S
C269 C268 1.395 . S
C269 C270 1.288 . S
C270 C269 1.288 . S
C270 C271 1.392 . S
C271 H247 0.951 . S
C271 C270 1.392 . S
C271 C272 1.392 . S
C272 H248 0.949 . S
C272 C267 1.382 . S
C272 C271 1.392 . S
C273 C274 1.376 . S
C273 C278 1.386 . S
C273 C279 1.483 . S
C274 H249 0.949 . S
C274 C273 1.376 . S
C274 C275 1.397 . S
C275 H250 0.950 . S
C275 C274 1.397 . S
C275 C276 1.391 . S
C276 C275 1.391 . S
C276 C277 1.405 . S
C277 H251 0.950 . S
C277 C276 1.405 . S
C277 C278 1.367 . S
C278 H252 0.950 . S
C278 C273 1.386 . S
C278 C277 1.367 . S
C279 C273 1.483 . S
C279 C280 1.382 . S
C279 C281 1.403 . S
C280 H253 0.950 . S
C280 C266 1.411 . S
C280 C279 1.382 . S
C281 C265 1.411 . S
C281 C279 1.403 . S
C281 C282 1.489 . S
C282 C281 1.489 . S
C282 C283 1.383 . S
C282 C287 1.382 . S
C283 H254 0.950 . S
C283 C282 1.383 . S
C283 C284 1.395 . S
C284 H255 0.950 . S
C284 C283 1.395 . S
C284 C285 1.288 . S
C285 C284 1.288 . S
C285 C286 1.392 . S
C286 H256 0.951 . S
C286 C285 1.392 . S
C286 C287 1.392 . S
C287 H257 0.949 . S
C287 C282 1.382 . S
C287 C286 1.392 . S
H288 C307 0.949 . S
H289 C308 0.950 . S
H290 C310 0.950 . S
H291 C311 0.950 . S
H292 C313 0.952 . S
H293 C316 0.950 . S
H294 C317 0.950 . S
H295 C319 0.951 . S
H296 C320 0.949 1_545 S
H297 C322 0.949 . S
H298 C323 0.950 . S
H299 C325 0.950 . S
H300 C326 0.950 . S
H301 C328 0.950 . S
H302 C331 0.950 . S
H303 C332 0.950 . S
H304 C334 0.951 . S
H305 C335 0.949 1_565 S
C306 C307 1.376 . S
C306 C311 1.386 . S
C306 C312 1.483 . S
C307 H288 0.949 . S
C307 C306 1.376 . S
C307 C308 1.397 . S
C308 H289 0.950 . S
C308 C307 1.397 . S
C308 C309 1.391 . S
C309 C308 1.391 . S
C309 C310 1.405 . S
C310 H290 0.950 . S
C310 C309 1.405 . S
C310 C311 1.367 . S
C311 H291 0.950 . S
C311 C306 1.386 . S
C311 C310 1.367 . S
C312 C306 1.483 . S
C312 C313 1.388 . S
C312 C314 1.403 . S
C313 H292 0.952 . S
C313 C312 1.388 . S
C313 C329 1.403 1_565 S
C314 C312 1.403 . S
C314 C315 1.489 . S
C314 C328 1.411 1_565 S
C315 C314 1.489 . S
C315 C316 1.383 . S
C315 C320 1.382 . S
C316 H293 0.950 . S
C316 C315 1.383 . S
C316 C317 1.395 . S
C317 H294 0.950 . S
C317 C316 1.395 . S
C317 C318 1.288 . S
C318 C317 1.288 . S
C318 C319 1.392 . S
C319 H295 0.951 . S
C319 C318 1.392 . S
C319 C320 1.392 . S
C320 H296 0.949 1_565 S
C320 C315 1.382 . S
C320 C319 1.392 . S
C321 C322 1.376 . S
C321 C326 1.386 . S
C321 C327 1.483 . S
C322 H297 0.949 . S
C322 C321 1.376 . S
C322 C323 1.397 . S
C323 H298 0.950 . S
C323 C322 1.397 . S
C323 C324 1.391 . S
C324 C323 1.391 . S
C324 C325 1.405 . S
C325 H299 0.950 . S
C325 C324 1.405 . S
C325 C326 1.367 . S
C326 H300 0.950 . S
C326 C321 1.386 . S
C326 C325 1.367 . S
C327 C321 1.483 . S
C327 C328 1.382 . S
C327 C329 1.403 . S
C328 H301 0.950 . S
C328 C314 1.411 1_545 S
C328 C327 1.382 . S
C329 C313 1.403 1_545 S
C329 C327 1.403 . S
C329 C330 1.489 . S
C330 C329 1.489 . S
C330 C331 1.383 . S
C330 C335 1.382 . S
C331 H302 0.950 . S
C331 C330 1.383 . S
C331 C332 1.395 . S
C332 H303 0.950 . S
C332 C331 1.395 . S
C332 C333 1.288 . S
C333 C332 1.288 . S
C333 C334 1.392 . S
C334 H304 0.951 . S
C334 C333 1.392 . S
C334 C335 1.392 . S
C335 H305 0.949 1_545 S
C335 C330 1.382 . S
C335 C334 1.392 . S
H336 C355 0.949 1_455 S
H337 C356 0.950 . S
H338 C358 0.950 . S
H339 C359 0.950 . S
H340 C361 0.950 . S
H341 C364 0.950 . S
H342 C365 0.950 . S
H343 C367 0.951 . S
H344 C368 0.949 . S
H345 C370 0.949 . S
H346 C371 0.950 . S
H347 C373 0.950 . S
H348 C374 0.950 . S
H349 C376 0.950 . S
H350 C379 0.950 . S
H351 C380 0.950 . S
H352 C382 0.951 . S
H353 C383 0.949 1_545 S
C354 C355 1.376 . S
C354 C359 1.386 . S
C354 C360 1.483 . S
C355 H336 0.949 1_655 S
C355 C354 1.376 . S
C355 C356 1.397 . S
C356 H337 0.950 . S
C356 C355 1.397 . S
C356 C357 1.391 . S
C357 C356 1.391 . S
C357 C358 1.405 . S
C358 H338 0.950 . S
C358 C357 1.405 . S
C358 C359 1.367 . S
C359 H339 0.950 . S
C359 C354 1.386 . S
C359 C358 1.367 . S
C360 C354 1.483 . S
C360 C361 1.382 1_655 S
C360 C362 1.403 . S
C361 H340 0.950 . S
C361 C360 1.382 1_455 S
C361 C377 1.411 1_545 S
C362 C360 1.403 . S
C362 C363 1.489 . S
C362 C376 1.411 1_655 S
C363 C362 1.489 . S
C363 C364 1.383 . S
C363 C368 1.382 . S
C364 H341 0.950 . S
C364 C363 1.383 . S
C364 C365 1.395 . S
C365 H342 0.950 . S
C365 C364 1.395 . S
C365 C366 1.288 . S
C366 C365 1.288 . S
C366 C367 1.392 . S
C367 H343 0.951 . S
C367 C366 1.392 . S
C367 C368 1.392 . S
C368 H344 0.949 . S
C368 C363 1.382 . S
C368 C367 1.392 . S
C369 C370 1.376 . S
C369 C374 1.386 . S
C369 C375 1.483 . S
C370 H345 0.949 . S
C370 C369 1.376 . S
C370 C371 1.397 . S
C371 H346 0.950 . S
C371 C370 1.397 . S
C371 C372 1.391 . S
C372 C371 1.391 . S
C372 C373 1.405 . S
C373 H347 0.950 . S
C373 C372 1.405 . S
C373 C374 1.367 . S
C374 H348 0.950 . S
C374 C369 1.386 . S
C374 C373 1.367 . S
C375 C369 1.483 . S
C375 C376 1.382 1_565 S
C375 C377 1.403 . S
C376 H349 0.950 . S
C376 C362 1.411 1_455 S
C376 C375 1.382 1_545 S
C377 C361 1.411 1_565 S
C377 C375 1.403 . S
C377 C378 1.489 . S
C378 C377 1.489 . S
C378 C379 1.383 . S
C378 C383 1.382 . S
C379 H350 0.950 . S
C379 C378 1.383 . S
C379 C380 1.395 . S
C380 H351 0.950 . S
C380 C379 1.395 . S
C380 C381 1.288 . S
C381 C380 1.288 . S
C381 C382 1.392 . S
C382 H352 0.951 . S
C382 C381 1.392 . S
C382 C383 1.392 . S
C383 H353 0.949 1_565 S
C383 C378 1.382 . S
C383 C382 1.392 . S
Co384 O385 2.216 1_554 S
Co384 O386 2.091 1_554 S
Co384 O388 2.004 . S
Co384 O394 2.021 1_554 S
Co384 O396 2.137 . S
Co384 O397 2.244 . S
O385 Co384 2.216 1_556 S
O385 C392 1.247 . S
O386 Co384 2.091 1_556 S
O386 C392 1.261 . S
C387 O396 1.247 . S
C387 O397 1.272 . S
O388 Co384 2.004 . S
O388 C393 1.259 . S
Co389 O390 2.061 . S
Co389 O395 2.052 1_554 S
Co389 O397 2.135 . S
O390 Co389 2.061 . S
O390 C393 1.235 . S
C391 O394 1.238 . S
C391 O395 1.241 . S
C392 O385 1.247 . S
C392 O386 1.261 . S
C393 O388 1.259 . S
C393 O390 1.235 . S
O394 Co384 2.021 1_556 S
O394 C391 1.238 . S
O395 Co389 2.052 1_556 S
O395 C391 1.241 . S
O396 Co384 2.137 . S
O396 C387 1.247 . S
O397 Co384 2.244 . S
O397 C387 1.272 . S
O397 Co389 2.135 . S
Co398 O399 2.216 . S
Co398 O400 2.091 . S
Co398 O402 2.004 . S
Co398 O408 2.021 . S
Co398 O410 2.137 . S
Co398 O411 2.244 . S
O399 Co398 2.216 . S
O399 C406 1.247 . S
O400 Co398 2.091 . S
O400 C406 1.261 . S
C401 O410 1.247 . S
C401 O411 1.272 . S
O402 Co398 2.004 . S
O402 C407 1.259 . S
Co403 O404 2.061 . S
Co403 O409 2.052 . S
Co403 O411 2.135 . S
O404 Co403 2.061 . S
O404 C407 1.235 . S
C405 O408 1.238 . S
C405 O409 1.241 . S
C406 O399 1.247 . S
C406 O400 1.261 . S
C407 O402 1.259 . S
C407 O404 1.235 . S
O408 Co398 2.021 . S
O408 C405 1.238 . S
O409 Co403 2.052 . S
O409 C405 1.241 . S
O410 Co398 2.137 . S
O410 C401 1.247 . S
O411 Co398 2.244 . S
O411 C401 1.272 . S
O411 Co403 2.135 . S
Co412 O413 2.216 . S
Co412 O414 2.091 . S
Co412 O416 2.004 . S
Co412 O422 2.021 . S
Co412 O424 2.137 . S
Co412 O425 2.244 . S
O413 Co412 2.216 . S
O413 C420 1.247 . S
O414 Co412 2.091 . S
O414 C420 1.261 . S
C415 O424 1.247 . S
C415 O425 1.272 . S
O416 Co412 2.004 . S
O416 C421 1.259 . S
Co417 O418 2.061 . S
Co417 O423 2.052 . S
Co417 O425 2.135 . S
O418 Co417 2.061 . S
O418 C421 1.235 . S
C419 O422 1.238 . S
C419 O423 1.241 . S
C420 O413 1.247 . S
C420 O414 1.261 . S
C421 O416 1.259 . S
C421 O418 1.235 . S
O422 Co412 2.021 . S
O422 C419 1.238 . S
O423 Co417 2.052 . S
O423 C419 1.241 . S
O424 Co412 2.137 . S
O424 C415 1.247 . S
O425 Co412 2.244 . S
O425 C415 1.272 . S
O425 Co417 2.135 . S
Co426 O427 2.216 . S
Co426 O428 2.091 . S
Co426 O430 2.004 . S
Co426 O436 2.021 . S
Co426 O438 2.137 . S
Co426 O439 2.244 . S
O427 Co426 2.216 . S
O427 C434 1.247 . S
O428 Co426 2.091 . S
O428 C434 1.261 . S
C429 O438 1.247 . S
C429 O439 1.272 . S
O430 Co426 2.004 . S
O430 C435 1.259 . S
Co431 O432 2.061 . S
Co431 O437 2.052 . S
Co431 O439 2.135 . S
O432 Co431 2.061 . S
O432 C435 1.235 . S
C433 O436 1.238 . S
C433 O437 1.241 . S
C434 O427 1.247 . S
C434 O428 1.261 . S
C435 O430 1.259 . S
C435 O432 1.235 . S
O436 Co426 2.021 . S
O436 C433 1.238 . S
O437 Co431 2.052 . S
O437 C433 1.241 . S
O438 Co426 2.137 . S
O438 C429 1.247 . S
O439 Co426 2.244 . S
O439 C429 1.272 . S
O439 Co431 2.135 . S
Co440 O441 2.216 . S
Co440 O442 2.091 . S
Co440 O444 2.004 . S
Co440 O450 2.021 . S
Co440 O452 2.137 . S
Co440 O453 2.244 . S
O441 Co440 2.216 . S
O441 C448 1.247 . S
O442 Co440 2.091 . S
O442 C448 1.261 . S
C443 O452 1.247 . S
C443 O453 1.272 . S
O444 Co440 2.004 . S
O444 C449 1.259 . S
Co445 O446 2.061 . S
Co445 O451 2.052 . S
Co445 O453 2.135 . S
O446 Co445 2.061 . S
O446 C449 1.235 . S
C447 O450 1.238 . S
C447 O451 1.241 . S
C448 O441 1.247 . S
C448 O442 1.261 . S
C449 O444 1.259 . S
C449 O446 1.235 . S
O450 Co440 2.021 . S
O450 C447 1.238 . S
O451 Co445 2.052 . S
O451 C447 1.241 . S
O452 Co440 2.137 . S
O452 C443 1.247 . S
O453 Co440 2.244 . S
O453 C443 1.272 . S
O453 Co445 2.135 . S
Co454 O455 2.216 . S
Co454 O456 2.091 . S
Co454 O458 2.004 . S
Co454 O464 2.021 . S
Co454 O466 2.137 . S
Co454 O467 2.244 . S
O455 Co454 2.216 . S
O455 C462 1.247 . S
O456 Co454 2.091 . S
O456 C462 1.261 . S
C457 O466 1.247 . S
C457 O467 1.272 . S
O458 Co454 2.004 . S
O458 C463 1.259 . S
Co459 O460 2.061 . S
Co459 O465 2.052 . S
Co459 O467 2.135 . S
O460 Co459 2.061 . S
O460 C463 1.235 . S
C461 O464 1.238 . S
C461 O465 1.241 . S
C462 O455 1.247 . S
C462 O456 1.261 . S
C463 O458 1.259 . S
C463 O460 1.235 . S
O464 Co454 2.021 . S
O464 C461 1.238 . S
O465 Co459 2.052 . S
O465 C461 1.241 . S
O466 Co454 2.137 . S
O466 C457 1.247 . S
O467 Co454 2.244 . S
O467 C457 1.272 . S
O467 Co459 2.135 . S
Co468 O469 2.216 1_556 S
Co468 O470 2.091 1_556 S
Co468 O472 2.004 . S
Co468 O478 2.021 1_556 S
Co468 O480 2.137 . S
Co468 O481 2.244 . S
O469 Co468 2.216 1_554 S
O469 C476 1.247 . S
O470 Co468 2.091 1_554 S
O470 C476 1.261 . S
C471 O480 1.247 . S
C471 O481 1.272 . S
O472 Co468 2.004 . S
O472 C477 1.259 . S
Co473 O474 2.061 . S
Co473 O479 2.052 1_556 S
Co473 O481 2.135 . S
O474 Co473 2.061 . S
O474 C477 1.235 . S
C475 O478 1.238 . S
C475 O479 1.241 . S
C476 O469 1.247 . S
C476 O470 1.261 . S
C477 O472 1.259 . S
C477 O474 1.235 . S
O478 Co468 2.021 1_554 S
O478 C475 1.238 . S
O479 Co473 2.052 1_554 S
O479 C475 1.241 . S
O480 Co468 2.137 . S
O480 C471 1.247 . S
O481 Co468 2.244 . S
O481 C471 1.272 . S
O481 Co473 2.135 . S
Co482 O483 2.216 . S
Co482 O484 2.091 . S
Co482 O486 2.004 . S
Co482 O492 2.021 . S
Co482 O494 2.137 . S
Co482 O495 2.244 . S
O483 Co482 2.216 . S
O483 C490 1.247 . S
O484 Co482 2.091 . S
O484 C490 1.261 . S
C485 O494 1.247 . S
C485 O495 1.272 . S
O486 Co482 2.004 . S
O486 C491 1.259 . S
Co487 O488 2.061 . S
Co487 O493 2.052 . S
Co487 O495 2.135 . S
O488 Co487 2.061 . S
O488 C491 1.235 . S
C489 O492 1.238 . S
C489 O493 1.241 . S
C490 O483 1.247 . S
C490 O484 1.261 . S
C491 O486 1.259 . S
C491 O488 1.235 . S
O492 Co482 2.021 . S
O492 C489 1.238 . S
O493 Co487 2.052 . S
O493 C489 1.241 . S
O494 Co482 2.137 . S
O494 C485 1.247 . S
O495 Co482 2.244 . S
O495 C485 1.272 . S
O495 Co487 2.135 . S
H496 C508 0.930 . S
H497 C510 0.930 . S
H498 C511 0.930 . S
H499 C515 0.959 . S
H500 C515 0.959 . S
H501 C515 0.961 . S
H502 C516 0.960 . S
H503 C516 0.961 . S
H504 C516 0.959 . S
H505 C519 0.929 . S
H506 C520 0.931 . S
H507 C522 0.930 . S
C508 H496 0.930 . S
C508 C509 1.399 . S
C508 C513 1.399 . S
C509 C508 1.399 . S
C509 C510 1.376 . S
C510 H497 0.930 . S
C510 C509 1.376 . S
C510 C511 1.388 . S
C511 H498 0.930 . S
C511 C510 1.388 . S
C511 C512 1.390 . S
C512 C511 1.390 . S
C512 C513 1.394 . S
C512 C518 1.465 . S
C513 C508 1.399 . S
C513 C512 1.394 . S
C513 C514 1.516 . S
C514 C513 1.516 . S
C514 C515 1.502 . S
C514 C516 1.561 . S
C514 C517 1.526 . S
C515 H499 0.959 . S
C515 H500 0.959 . S
C515 H501 0.961 . S
C515 C514 1.502 . S
C516 H502 0.960 . S
C516 H503 0.961 . S
C516 H504 0.959 . S
C516 C514 1.561 . S
C517 C514 1.526 . S
C517 C518 1.396 . S
C517 C522 1.390 . S
C518 C512 1.465 . S
C518 C517 1.396 . S
C518 C519 1.399 . S
C519 H505 0.929 . S
C519 C518 1.399 . S
C519 C520 1.385 . S
C520 H506 0.931 . S
C520 C519 1.385 . S
C520 C521 1.389 . S
C521 C520 1.389 . S
C521 C522 1.387 . S
C522 H507 0.930 . S
C522 C517 1.390 . S
C522 C521 1.387 . S
H523 C535 0.930 . S
H524 C537 0.930 . S
H525 C538 0.930 . S
H526 C542 0.959 . S
H527 C542 0.959 . S
H528 C542 0.961 . S
H529 C543 0.960 . S
H530 C543 0.961 . S
H531 C543 0.959 . S
H532 C546 0.929 . S
H533 C547 0.931 . S
H534 C549 0.930 . S
C535 H523 0.930 . S
C535 C536 1.399 . S
C535 C540 1.399 . S
C536 C535 1.399 . S
C536 C537 1.376 . S
C537 H524 0.930 . S
C537 C536 1.376 . S
C537 C538 1.388 . S
C538 H525 0.930 . S
C538 C537 1.388 . S
C538 C539 1.390 . S
C539 C538 1.390 . S
C539 C540 1.394 . S
C539 C545 1.465 . S
C540 C535 1.399 . S
C540 C539 1.394 . S
C540 C541 1.516 . S
C541 C540 1.516 . S
C541 C542 1.502 . S
C541 C543 1.561 . S
C541 C544 1.526 . S
C542 H526 0.959 . S
C542 H527 0.959 . S
C542 H528 0.961 . S
C542 C541 1.502 . S
C543 H529 0.960 . S
C543 H530 0.961 . S
C543 H531 0.959 . S
C543 C541 1.561 . S
C544 C541 1.526 . S
C544 C545 1.396 . S
C544 C549 1.390 . S
C545 C539 1.465 . S
C545 C544 1.396 . S
C545 C546 1.399 . S
C546 H532 0.929 . S
C546 C545 1.399 . S
C546 C547 1.385 . S
C547 H533 0.931 . S
C547 C546 1.385 . S
C547 C548 1.389 . S
C548 C547 1.389 . S
C548 C549 1.387 . S
C549 H534 0.930 . S
C549 C544 1.390 . S
C549 C548 1.387 . S
H550 C562 0.930 . S
H551 C564 0.930 . S
H552 C565 0.930 . S
H553 C569 0.959 . S
H554 C569 0.959 . S
H555 C569 0.961 . S
H556 C570 0.960 . S
H557 C570 0.961 . S
H558 C570 0.959 . S
H559 C573 0.929 . S
H560 C574 0.931 . S
H561 C576 0.930 . S
C562 H550 0.930 . S
C562 C563 1.399 . S
C562 C567 1.399 . S
C563 C562 1.399 . S
C563 C564 1.376 . S
C564 H551 0.930 . S
C564 C563 1.376 . S
C564 C565 1.388 . S
C565 H552 0.930 . S
C565 C564 1.388 . S
C565 C566 1.390 . S
C566 C565 1.390 . S
C566 C567 1.394 . S
C566 C572 1.465 . S
C567 C562 1.399 . S
C567 C566 1.394 . S
C567 C568 1.516 . S
C568 C567 1.516 . S
C568 C569 1.502 . S
C568 C570 1.561 . S
C568 C571 1.526 . S
C569 H553 0.959 . S
C569 H554 0.959 . S
C569 H555 0.961 . S
C569 C568 1.502 . S
C570 H556 0.960 . S
C570 H557 0.961 . S
C570 H558 0.959 . S
C570 C568 1.561 . S
C571 C568 1.526 . S
C571 C572 1.396 . S
C571 C576 1.390 . S
C572 C566 1.465 . S
C572 C571 1.396 . S
C572 C573 1.399 . S
C573 H559 0.929 . S
C573 C572 1.399 . S
C573 C574 1.385 . S
C574 H560 0.931 . S
C574 C573 1.385 . S
C574 C575 1.389 . S
C575 C574 1.389 . S
C575 C576 1.387 . S
C576 H561 0.930 . S
C576 C571 1.390 . S
C576 C575 1.387 . S
H577 C589 0.930 . S
H578 C591 0.890 1_556 S
H579 C592 0.929 . S
H580 C596 0.959 . S
H581 C596 0.959 . S
H582 C596 0.961 . S
H583 C597 0.960 . S
H584 C597 0.961 . S
H585 C597 0.959 . S
H586 C600 0.929 . S
H587 C601 0.931 . S
H588 C603 0.930 . S
C589 H577 0.930 . S
C589 C590 1.399 . S
C589 C594 1.399 . S
C590 C589 1.399 . S
C590 C591 1.376 . S
C591 H578 0.890 1_554 S
C591 C590 1.376 . S
C591 C592 1.389 1_554 S
C592 H579 0.929 . S
C592 C591 1.389 1_556 S
C592 C593 1.390 1_556 S
C593 C592 1.390 1_554 S
C593 C594 1.394 . S
C593 C599 1.465 . S
C594 C589 1.399 . S
C594 C593 1.394 . S
C594 C595 1.516 . S
C595 C594 1.516 . S
C595 C596 1.502 . S
C595 C597 1.561 . S
C595 C598 1.526 . S
C596 H580 0.959 . S
C596 H581 0.959 . S
C596 H582 0.961 . S
C596 C595 1.502 . S
C597 H583 0.960 . S
C597 H584 0.961 . S
C597 H585 0.959 . S
C597 C595 1.561 . S
C598 C595 1.526 . S
C598 C599 1.396 . S
C598 C603 1.390 . S
C599 C593 1.465 . S
C599 C598 1.396 . S
C599 C600 1.399 1_554 S
C600 H586 0.929 . S
C600 C599 1.399 1_556 S
C600 C601 1.385 . S
C601 H587 0.931 . S
C601 C600 1.385 . S
C601 C602 1.389 1_556 S
C602 C601 1.389 1_554 S
C602 C603 1.387 . S
C603 H588 0.930 . S
C603 C598 1.390 . S
C603 C602 1.387 . S
H604 C616 0.930 . S
H605 C618 0.930 . S
H606 C619 0.930 1_554 S
H607 C623 0.959 . S
H608 C623 0.959 . S
H609 C623 0.961 . S
H610 C624 0.960 . S
H611 C624 0.961 . S
H612 C624 0.959 . S
H613 C627 0.929 . S
H614 C628 0.931 . S
H615 C630 0.930 . S
C616 H604 0.930 . S
C616 C617 1.399 . S
C616 C621 1.399 . S
C617 C616 1.399 . S
C617 C618 1.376 . S
C618 H605 0.930 . S
C618 C617 1.376 . S
C618 C619 1.388 . S
C619 H606 0.930 1_556 S
C619 C618 1.388 . S
C619 C620 1.390 . S
C620 C619 1.390 . S
C620 C621 1.394 . S
C620 C626 1.465 . S
C621 C616 1.399 . S
C621 C620 1.394 . S
C621 C622 1.516 . S
C622 C621 1.516 . S
C622 C623 1.502 . S
C622 C624 1.561 . S
C622 C625 1.526 . S
C623 H607 0.959 . S
C623 H608 0.959 . S
C623 H609 0.961 . S
C623 C622 1.502 . S
C624 H610 0.960 . S
C624 H611 0.961 . S
C624 H612 0.959 . S
C624 C622 1.561 . S
C625 C622 1.526 . S
C625 C626 1.396 . S
C625 C630 1.390 . S
C626 C620 1.465 . S
C626 C625 1.396 . S
C626 C627 1.399 1_556 S
C627 H613 0.929 . S
C627 C626 1.399 1_554 S
C627 C628 1.385 . S
C628 H614 0.931 . S
C628 C627 1.385 . S
C628 C629 1.389 1_554 S
C629 C628 1.389 1_556 S
C629 C630 1.387 . S
C630 H615 0.930 . S
C630 C625 1.390 . S
C630 C629 1.387 . S
H631 C643 0.930 . S
H632 C645 0.930 . S
H633 C646 0.930 . S
H634 C650 0.959 . S
H635 C650 0.959 . S
H636 C650 0.961 . S
H637 C651 0.960 . S
H638 C651 0.961 . S
H639 C651 0.959 . S
H640 C654 0.929 . S
H641 C655 0.931 . S
H642 C657 0.930 . S
C643 H631 0.930 . S
C643 C644 1.399 . S
C643 C648 1.399 . S
C644 C643 1.399 . S
C644 C645 1.376 . S
C645 H632 0.930 . S
C645 C644 1.376 . S
C645 C646 1.388 . S
C646 H633 0.930 . S
C646 C645 1.388 . S
C646 C647 1.390 . S
C647 C646 1.390 . S
C647 C648 1.394 . S
C647 C653 1.465 . S
C648 C643 1.399 . S
C648 C647 1.394 . S
C648 C649 1.516 . S
C649 C648 1.516 . S
C649 C650 1.502 . S
C649 C651 1.561 . S
C649 C652 1.526 . S
C650 H634 0.959 . S
C650 H635 0.959 . S
C650 H636 0.961 . S
C650 C649 1.502 . S
C651 H637 0.960 . S
C651 H638 0.961 . S
C651 H639 0.959 . S
C651 C649 1.561 . S
C652 C649 1.526 . S
C652 C653 1.396 . S
C652 C657 1.390 . S
C653 C647 1.465 . S
C653 C652 1.396 . S
C653 C654 1.399 . S
C654 H640 0.929 . S
C654 C653 1.399 . S
C654 C655 1.385 . S
C655 H641 0.931 . S
C655 C654 1.385 . S
C655 C656 1.389 . S
C656 C655 1.389 . S
C656 C657 1.387 . S
C657 H642 0.930 . S
C657 C652 1.390 . S
C657 C656 1.387 . S
H658 C670 0.930 . S
H659 C672 0.930 . S
H660 C673 0.930 . S
H661 C677 0.959 . S
H662 C677 0.959 . S
H663 C677 0.961 . S
H664 C678 0.960 . S
H665 C678 0.961 . S
H666 C678 0.959 . S
H667 C681 0.929 . S
H668 C682 0.931 . S
H669 C684 0.930 . S
C670 H658 0.930 . S
C670 C671 1.399 . S
C670 C675 1.399 . S
C671 C670 1.399 . S
C671 C672 1.376 . S
C672 H659 0.930 . S
C672 C671 1.376 . S
C672 C673 1.388 . S
C673 H660 0.930 . S
C673 C672 1.388 . S
C673 C674 1.390 . S
C674 C673 1.390 . S
C674 C675 1.394 . S
C674 C680 1.465 . S
C675 C670 1.399 . S
C675 C674 1.394 . S
C675 C676 1.516 . S
C676 C675 1.516 . S
C676 C677 1.502 . S
C676 C678 1.561 . S
C676 C679 1.526 . S
C677 H661 0.959 . S
C677 H662 0.959 . S
C677 H663 0.961 . S
C677 C676 1.502 . S
C678 H664 0.960 . S
C678 H665 0.961 . S
C678 H666 0.959 . S
C678 C676 1.561 . S
C679 C676 1.526 . S
C679 C680 1.396 . S
C679 C684 1.390 . S
C680 C674 1.465 . S
C680 C679 1.396 . S
C680 C681 1.399 . S
C681 H667 0.929 . S
C681 C680 1.399 . S
C681 C682 1.385 . S
C682 H668 0.931 . S
C682 C681 1.385 . S
C682 C683 1.389 . S
C683 C682 1.389 . S
C683 C684 1.387 . S
C684 H669 0.930 . S
C684 C679 1.390 . S
C684 C683 1.387 . S
H685 C697 0.930 . S
H686 C699 0.930 . S
H687 C700 0.930 . S
H688 C704 0.959 . S
H689 C704 0.959 . S
H690 C704 0.961 . S
H691 C705 0.960 . S
H692 C705 0.961 . S
H693 C705 0.959 . S
H694 C708 0.929 . S
H695 C709 0.931 . S
H696 C711 0.930 . S
C697 H685 0.930 . S
C697 C698 1.399 . S
C697 C702 1.399 . S
C698 C697 1.399 . S
C698 C699 1.376 . S
C699 H686 0.930 . S
C699 C698 1.376 . S
C699 C700 1.388 . S
C700 H687 0.930 . S
C700 C699 1.388 . S
C700 C701 1.390 . S
C701 C700 1.390 . S
C701 C702 1.394 . S
C701 C707 1.465 . S
C702 C697 1.399 . S
C702 C701 1.394 . S
C702 C703 1.516 . S
C703 C702 1.516 . S
C703 C704 1.502 . S
C703 C705 1.561 . S
C703 C706 1.526 . S
C704 H688 0.959 . S
C704 H689 0.959 . S
C704 H690 0.961 . S
C704 C703 1.502 . S
C705 H691 0.960 . S
C705 H692 0.961 . S
C705 H693 0.959 . S
C705 C703 1.561 . S
C706 C703 1.526 . S
C706 C707 1.396 . S
C706 C711 1.390 . S
C707 C701 1.465 . S
C707 C706 1.396 . S
C707 C708 1.399 . S
C708 H694 0.929 . S
C708 C707 1.399 . S
C708 C709 1.385 . S
C709 H695 0.931 . S
C709 C708 1.385 . S
C709 C710 1.389 . S
C710 C709 1.389 . S
C710 C711 1.387 . S
C711 H696 0.930 . S
C711 C706 1.390 . S
C711 C710 1.387 . S
H712 C724 0.930 . S
H713 C726 0.930 . S
H714 C727 0.930 . S
H715 C731 0.959 . S
H716 C731 0.959 . S
H717 C731 0.961 . S
H718 C732 0.960 . S
H719 C732 0.961 . S
H720 C732 0.959 . S
H721 C735 0.929 . S
H722 C736 0.931 . S
H723 C738 0.930 . S
C724 H712 0.930 . S
C724 C725 1.399 . S
C724 C729 1.399 . S
C725 C724 1.399 . S
C725 C726 1.376 . S
C726 H713 0.930 . S
C726 C725 1.376 . S
C726 C727 1.388 . S
C727 H714 0.930 . S
C727 C726 1.388 . S
C727 C728 1.390 . S
C728 C727 1.390 . S
C728 C729 1.394 . S
C728 C734 1.465 . S
C729 C724 1.399 . S
C729 C728 1.394 . S
C729 C730 1.516 . S
C730 C729 1.516 . S
C730 C731 1.502 . S
C730 C732 1.561 . S
C730 C733 1.526 . S
C731 H715 0.959 . S
C731 H716 0.959 . S
C731 H717 0.961 . S
C731 C730 1.502 . S
C732 H718 0.960 . S
C732 H719 0.961 . S
C732 H720 0.959 . S
C732 C730 1.561 . S
C733 C730 1.526 . S
C733 C734 1.396 . S
C733 C738 1.390 . S
C734 C728 1.465 . S
C734 C733 1.396 . S
C734 C735 1.399 . S
C735 H721 0.929 . S
C735 C734 1.399 . S
C735 C736 1.385 . S
C736 H722 0.931 . S
C736 C735 1.385 . S
C736 C737 1.389 . S
C737 C736 1.389 . S
C737 C738 1.387 . S
C738 H723 0.930 . S
C738 C733 1.390 . S
C738 C737 1.387 . S
H739 C751 0.930 . S
H740 C753 0.930 . S
H741 C754 0.930 . S
H742 C758 0.959 . S
H743 C758 0.959 1_556 S
H744 C758 0.961 . S
H745 C759 0.960 . S
H746 C759 0.961 . S
H747 C759 0.959 . S
H748 C762 0.929 . S
H749 C763 0.931 . S
H750 C765 0.930 1_556 S
C751 H739 0.930 . S
C751 C752 1.399 . S
C751 C756 1.399 . S
C752 C751 1.399 . S
C752 C753 1.376 . S
C753 H740 0.930 . S
C753 C752 1.376 . S
C753 C754 1.388 . S
C754 H741 0.930 . S
C754 C753 1.388 . S
C754 C755 1.390 . S
C755 C754 1.390 . S
C755 C756 1.394 . S
C755 C761 1.465 . S
C756 C751 1.399 . S
C756 C755 1.394 . S
C756 C757 1.516 . S
C757 C756 1.516 . S
C757 C758 1.502 . S
C757 C759 1.561 1_554 S
C757 C760 1.526 . S
C758 H742 0.959 . S
C758 H743 0.959 1_554 S
C758 H744 0.961 . S
C758 C757 1.502 . S
C759 H745 0.960 . S
C759 H746 0.961 . S
C759 H747 0.959 . S
C759 C757 1.561 1_556 S
C760 C757 1.526 . S
C760 C761 1.396 . S
C760 C765 1.390 . S
C761 C755 1.465 . S
C761 C760 1.396 . S
C761 C762 1.399 . S
C762 H748 0.929 . S
C762 C761 1.399 . S
C762 C763 1.385 . S
C763 H749 0.931 . S
C763 C762 1.385 . S
C763 C764 1.389 . S
C764 C763 1.389 . S
C764 C765 1.387 . S
C765 H750 0.930 1_554 S
C765 C760 1.390 . S
C765 C764 1.387 . S
H766 C778 0.930 . S
H767 C780 0.930 . S
H768 C781 0.930 . S
H769 C785 0.959 . S
H770 C785 0.959 . S
H771 C785 0.961 . S
H772 C786 0.960 . S
H773 C786 0.961 . S
H774 C786 0.959 . S
H775 C789 0.929 . S
H776 C790 0.931 . S
H777 C792 0.930 . S
C778 H766 0.930 . S
C778 C779 1.399 . S
C778 C783 1.399 . S
C779 C778 1.399 . S
C779 C780 1.376 . S
C780 H767 0.930 . S
C780 C779 1.376 . S
C780 C781 1.388 . S
C781 H768 0.930 . S
C781 C780 1.388 . S
C781 C782 1.390 . S
C782 C781 1.390 . S
C782 C783 1.394 . S
C782 C788 1.465 . S
C783 C778 1.399 . S
C783 C782 1.394 . S
C783 C784 1.516 . S
C784 C783 1.516 . S
C784 C785 1.502 . S
C784 C786 1.561 . S
C784 C787 1.526 . S
C785 H769 0.959 . S
C785 H770 0.959 . S
C785 H771 0.961 . S
C785 C784 1.502 . S
C786 H772 0.960 . S
C786 H773 0.961 . S
C786 H774 0.959 . S
C786 C784 1.561 . S
C787 C784 1.526 . S
C787 C788 1.396 . S
C787 C792 1.390 . S
C788 C782 1.465 . S
C788 C787 1.396 . S
C788 C789 1.399 . S
C789 H775 0.929 . S
C789 C788 1.399 . S
C789 C790 1.385 . S
C790 H776 0.931 . S
C790 C789 1.385 . S
C790 C791 1.389 . S
C791 C790 1.389 . S
C791 C792 1.387 . S
C792 H777 0.930 . S
C792 C787 1.390 . S
C792 C791 1.387 . S
H793 C805 0.930 . S
H794 C807 0.930 . S
H795 C808 0.930 . S
H796 C812 0.959 . S
H797 C812 0.959 . S
H798 C812 0.961 . S
H799 C813 0.960 . S
H800 C813 0.961 . S
H801 C813 0.959 . S
H802 C816 0.929 . S
H803 C817 0.931 . S
H804 C819 0.930 . S
C805 H793 0.930 . S
C805 C806 1.399 . S
C805 C810 1.399 . S
C806 C805 1.399 . S
C806 C807 1.376 . S
C807 H794 0.930 . S
C807 C806 1.376 . S
C807 C808 1.388 . S
C808 H795 0.930 . S
C808 C807 1.388 . S
C808 C809 1.390 . S
C809 C808 1.390 . S
C809 C810 1.394 . S
C809 C815 1.465 . S
C810 C805 1.399 . S
C810 C809 1.394 . S
C810 C811 1.516 . S
C811 C810 1.516 . S
C811 C812 1.502 . S
C811 C813 1.561 . S
C811 C814 1.526 . S
C812 H796 0.959 . S
C812 H797 0.959 . S
C812 H798 0.961 . S
C812 C811 1.502 . S
C813 H799 0.960 . S
C813 H800 0.961 . S
C813 H801 0.959 . S
C813 C811 1.561 . S
C814 C811 1.526 . S
C814 C815 1.396 . S
C814 C819 1.390 . S
C815 C809 1.465 . S
C815 C814 1.396 . S
C815 C816 1.399 . S
C816 H802 0.929 . S
C816 C815 1.399 . S
C816 C817 1.385 . S
C817 H803 0.931 . S
C817 C816 1.385 . S
C817 C818 1.389 . S
C818 C817 1.389 . S
C818 C819 1.387 . S
C819 H804 0.930 . S
C819 C814 1.390 . S
C819 C818 1.387 . S
H820 C832 0.930 . S
H821 C834 0.930 . S
H822 C835 0.930 . S
H823 C839 0.959 . S
H824 C839 0.959 . S
H825 C839 0.961 . S
H826 C840 0.960 . S
H827 C840 0.961 . S
H828 C840 0.959 . S
H829 C843 0.929 . S
H830 C844 0.931 . S
H831 C846 0.930 . S
C832 H820 0.930 . S
C832 C833 1.399 . S
C832 C837 1.399 . S
C833 C832 1.399 . S
C833 C834 1.376 . S
C834 H821 0.930 . S
C834 C833 1.376 . S
C834 C835 1.388 . S
C835 H822 0.930 . S
C835 C834 1.388 . S
C835 C836 1.390 . S
C836 C835 1.390 . S
C836 C837 1.394 . S
C836 C842 1.465 . S
C837 C832 1.399 . S
C837 C836 1.394 . S
C837 C838 1.516 . S
C838 C837 1.516 . S
C838 C839 1.502 . S
C838 C840 1.561 . S
C838 C841 1.526 . S
C839 H823 0.959 . S
C839 H824 0.959 . S
C839 H825 0.961 . S
C839 C838 1.502 . S
C840 H826 0.960 . S
C840 H827 0.961 . S
C840 H828 0.959 . S
C840 C838 1.561 . S
C841 C838 1.526 . S
C841 C842 1.396 . S
C841 C846 1.390 . S
C842 C836 1.465 . S
C842 C841 1.396 . S
C842 C843 1.399 . S
C843 H829 0.929 . S
C843 C842 1.399 . S
C843 C844 1.385 . S
C844 H830 0.931 . S
C844 C843 1.385 . S
C844 C845 1.389 . S
C845 C844 1.389 . S
C845 C846 1.387 . S
C846 H831 0.930 . S
C846 C841 1.390 . S
C846 C845 1.387 . S
H847 C859 0.930 . S
H848 C861 0.930 . S
H849 C862 0.930 . S
H850 C866 0.959 . S
H851 C866 0.959 . S
H852 C866 0.961 . S
H853 C867 0.960 . S
H854 C867 0.961 . S
H855 C867 0.959 . S
H856 C870 0.929 . S
H857 C871 0.931 . S
H858 C873 0.930 . S
C859 H847 0.930 . S
C859 C860 1.399 . S
C859 C864 1.399 . S
C860 C859 1.399 . S
C860 C861 1.376 . S
C861 H848 0.930 . S
C861 C860 1.376 . S
C861 C862 1.388 . S
C862 H849 0.930 . S
C862 C861 1.388 . S
C862 C863 1.390 . S
C863 C862 1.390 . S
C863 C864 1.394 . S
C863 C869 1.465 . S
C864 C859 1.399 . S
C864 C863 1.394 . S
C864 C865 1.516 . S
C865 C864 1.516 . S
C865 C866 1.502 . S
C865 C867 1.561 . S
C865 C868 1.526 . S
C866 H850 0.959 . S
C866 H851 0.959 . S
C866 H852 0.961 . S
C866 C865 1.502 . S
C867 H853 0.960 . S
C867 H854 0.961 . S
C867 H855 0.959 . S
C867 C865 1.561 . S
C868 C865 1.526 . S
C868 C869 1.396 . S
C868 C873 1.390 . S
C869 C863 1.465 . S
C869 C868 1.396 . S
C869 C870 1.399 . S
C870 H856 0.929 . S
C870 C869 1.399 . S
C870 C871 1.385 . S
C871 H857 0.931 . S
C871 C870 1.385 . S
C871 C872 1.389 . S
C872 C871 1.389 . S
C872 C873 1.387 . S
C873 H858 0.930 . S
C873 C868 1.390 . S
C873 C872 1.387 . S
H874 C886 0.930 . S
H875 C888 0.930 . S
H876 C889 0.930 1_554 S
H877 C893 0.959 . S
H878 C893 0.959 . S
H879 C893 0.961 . S
H880 C894 0.960 . S
H881 C894 0.961 . S
H882 C894 0.959 . S
H883 C897 0.929 . S
H884 C898 0.931 . S
H885 C900 0.930 . S
C886 H874 0.930 . S
C886 C887 1.399 . S
C886 C891 1.399 . S
C887 C886 1.399 . S
C887 C888 1.376 . S
C888 H875 0.930 . S
C888 C887 1.376 . S
C888 C889 1.388 . S
C889 H876 0.930 1_556 S
C889 C888 1.388 . S
C889 C890 1.390 . S
C890 C889 1.390 . S
C890 C891 1.394 . S
C890 C896 1.465 . S
C891 C886 1.399 . S
C891 C890 1.394 . S
C891 C892 1.516 . S
C892 C891 1.516 . S
C892 C893 1.502 . S
C892 C894 1.561 . S
C892 C895 1.526 . S
C893 H877 0.959 . S
C893 H878 0.959 . S
C893 H879 0.961 . S
C893 C892 1.502 . S
C894 H880 0.960 . S
C894 H881 0.961 . S
C894 H882 0.959 . S
C894 C892 1.561 . S
C895 C892 1.526 . S
C895 C896 1.396 . S
C895 C900 1.390 . S
C896 C890 1.465 . S
C896 C895 1.396 . S
C896 C897 1.399 1_556 S
C897 H883 0.929 . S
C897 C896 1.399 1_554 S
C897 C898 1.385 . S
C898 H884 0.931 . S
C898 C897 1.385 . S
C898 C899 1.389 1_554 S
C899 C898 1.389 1_556 S
C899 C900 1.387 . S
C900 H885 0.930 . S
C900 C895 1.390 . S
C900 C899 1.387 . S
H901 C913 0.930 . S
H902 C915 0.930 . S
H903 C916 0.930 . S
H904 C920 0.959 . S
H905 C920 0.959 . S
H906 C920 0.961 . S
H907 C921 0.960 . S
H908 C921 0.961 . S
H909 C921 0.959 . S
H910 C924 0.929 . S
H911 C925 0.931 . S
H912 C927 0.930 . S
C913 H901 0.930 . S
C913 C914 1.399 . S
C913 C918 1.399 . S
C914 C913 1.399 . S
C914 C915 1.376 . S
C915 H902 0.930 . S
C915 C914 1.376 . S
C915 C916 1.388 . S
C916 H903 0.930 . S
C916 C915 1.388 . S
C916 C917 1.390 . S
C917 C916 1.390 . S
C917 C918 1.394 . S
C917 C923 1.465 . S
C918 C913 1.399 . S
C918 C917 1.394 . S
C918 C919 1.516 . S
C919 C918 1.516 . S
C919 C920 1.502 . S
C919 C921 1.561 . S
C919 C922 1.526 . S
C920 H904 0.959 . S
C920 H905 0.959 . S
C920 H906 0.961 . S
C920 C919 1.502 . S
C921 H907 0.960 . S
C921 H908 0.961 . S
C921 H909 0.959 . S
C921 C919 1.561 . S
C922 C919 1.526 . S
C922 C923 1.396 . S
C922 C927 1.390 . S
C923 C917 1.465 . S
C923 C922 1.396 . S
C923 C924 1.399 . S
C924 H910 0.929 . S
C924 C923 1.399 . S
C924 C925 1.385 . S
C925 H911 0.931 . S
C925 C924 1.385 . S
C925 C926 1.389 . S
C926 C925 1.389 . S
C926 C927 1.387 . S
C927 H912 0.930 . S
C927 C922 1.390 . S
C927 C926 1.387 . S
H928 C940 0.930 . S
H929 C942 0.930 . S
H930 C943 0.930 . S
H931 C947 0.959 . S
H932 C947 0.959 . S
H933 C947 0.961 . S
H934 C948 0.960 . S
H935 C948 0.961 . S
H936 C948 0.959 . S
H937 C951 0.929 . S
H938 C952 0.931 . S
H939 C954 0.930 . S
C940 H928 0.930 . S
C940 C941 1.399 . S
C940 C945 1.399 . S
C941 C940 1.399 . S
C941 C942 1.376 . S
C942 H929 0.930 . S
C942 C941 1.376 . S
C942 C943 1.388 . S
C943 H930 0.930 . S
C943 C942 1.388 . S
C943 C944 1.390 . S
C944 C943 1.390 . S
C944 C945 1.394 . S
C944 C950 1.465 . S
C945 C940 1.399 . S
C945 C944 1.394 . S
C945 C946 1.516 . S
C946 C945 1.516 . S
C946 C947 1.502 . S
C946 C948 1.561 . S
C946 C949 1.526 . S
C947 H931 0.959 . S
C947 H932 0.959 . S
C947 H933 0.961 . S
C947 C946 1.502 . S
C948 H934 0.960 . S
C948 H935 0.961 . S
C948 H936 0.959 . S
C948 C946 1.561 . S
C949 C946 1.526 . S
C949 C950 1.396 . S
C949 C954 1.390 . S
C950 C944 1.465 . S
C950 C949 1.396 . S
C950 C951 1.399 . S
C951 H937 0.929 . S
C951 C950 1.399 . S
C951 C952 1.385 . S
C952 H938 0.931 . S
C952 C951 1.385 . S
C952 C953 1.389 . S
C953 C952 1.389 . S
C953 C954 1.387 . S
C954 H939 0.930 . S
C954 C949 1.390 . S
C954 C953 1.387 . S
H955 C967 0.930 . S
H956 C969 0.930 . S
H957 C970 0.930 . S
H958 C974 0.959 . S
H959 C974 0.959 . S
H960 C974 0.961 . S
H961 C975 0.960 . S
H962 C975 0.961 . S
H963 C975 0.959 . S
H964 C978 0.929 . S
H965 C979 0.931 . S
H966 C981 0.930 . S
C967 H955 0.930 . S
C967 C968 1.399 . S
C967 C972 1.399 . S
C968 C967 1.399 . S
C968 C969 1.376 . S
C969 H956 0.930 . S
C969 C968 1.376 . S
C969 C970 1.388 . S
C970 H957 0.930 . S
C970 C969 1.388 . S
C970 C971 1.390 . S
C971 C970 1.390 . S
C971 C972 1.394 . S
C971 C977 1.465 . S
C972 C967 1.399 . S
C972 C971 1.394 . S
C972 C973 1.516 . S
C973 C972 1.516 . S
C973 C974 1.502 . S
C973 C975 1.561 . S
C973 C976 1.526 . S
C974 H958 0.959 . S
C974 H959 0.959 . S
C974 H960 0.961 . S
C974 C973 1.502 . S
C975 H961 0.960 . S
C975 H962 0.961 . S
C975 H963 0.959 . S
C975 C973 1.561 . S
C976 C973 1.526 . S
C976 C977 1.396 . S
C976 C981 1.390 . S
C977 C971 1.465 . S
C977 C976 1.396 . S
C977 C978 1.399 . S
C978 H964 0.929 . S
C978 C977 1.399 . S
C978 C979 1.385 . S
C979 H965 0.931 . S
C979 C978 1.385 . S
C979 C980 1.389 . S
C980 C979 1.389 . S
C980 C981 1.387 . S
C981 H966 0.930 . S
C981 C976 1.390 . S
C981 C980 1.387 . S
H982 C994 0.930 . S
H983 C996 0.930 . S
H984 C997 0.930 . S
H985 C1001 0.959 . S
H986 C1001 0.959 . S
H987 C1001 0.961 . S
H988 C1002 0.960 . S
H989 C1002 0.961 . S
H990 C1002 0.959 . S
H991 C1005 0.929 . S
H992 C1006 0.931 . S
H993 C1008 0.930 . S
C994 H982 0.930 . S
C994 C995 1.399 . S
C994 C999 1.399 . S
C995 C994 1.399 . S
C995 C996 1.376 . S
C996 H983 0.930 . S
C996 C995 1.376 . S
C996 C997 1.388 . S
C997 H984 0.930 . S
C997 C996 1.388 . S
C997 C998 1.390 . S
C998 C997 1.390 . S
C998 C999 1.394 . S
C998 C1004 1.465 . S
C999 C994 1.399 . S
C999 C998 1.394 . S
C999 C1000 1.516 . S
C1000 C999 1.516 . S
C1000 C1001 1.502 . S
C1000 C1002 1.561 . S
C1000 C1003 1.526 . S
C1001 H985 0.959 . S
C1001 H986 0.959 . S
C1001 H987 0.961 . S
C1001 C1000 1.502 . S
C1002 H988 0.960 . S
C1002 H989 0.961 . S
C1002 H990 0.959 . S
C1002 C1000 1.561 . S
C1003 C1000 1.526 . S
C1003 C1004 1.396 . S
C1003 C1008 1.390 . S
C1004 C998 1.465 . S
C1004 C1003 1.396 . S
C1004 C1005 1.399 . S
C1005 H991 0.929 . S
C1005 C1004 1.399 . S
C1005 C1006 1.385 . S
C1006 H992 0.931 . S
C1006 C1005 1.385 . S
C1006 C1007 1.389 . S
C1007 C1006 1.389 . S
C1007 C1008 1.387 . S
C1008 H993 0.930 . S
C1008 C1003 1.390 . S
C1008 C1007 1.387 . S
H1009 C1021 0.930 . S
H1010 C1023 0.930 . S
H1011 C1024 0.930 . S
H1012 C1028 0.959 . S
H1013 C1028 0.959 . S
H1014 C1028 0.961 . S
H1015 C1029 0.960 . S
H1016 C1029 0.961 . S
H1017 C1029 0.959 . S
H1018 C1032 0.929 . S
H1019 C1033 0.931 . S
H1020 C1035 0.930 . S
C1021 H1009 0.930 . S
C1021 C1022 1.399 . S
C1021 C1026 1.399 . S
C1022 C1021 1.399 . S
C1022 C1023 1.376 . S
C1023 H1010 0.930 . S
C1023 C1022 1.376 . S
C1023 C1024 1.388 . S
C1024 H1011 0.930 . S
C1024 C1023 1.388 . S
C1024 C1025 1.390 . S
C1025 C1024 1.390 . S
C1025 C1026 1.394 . S
C1025 C1031 1.465 . S
C1026 C1021 1.399 . S
C1026 C1025 1.394 . S
C1026 C1027 1.516 . S
C1027 C1026 1.516 . S
C1027 C1028 1.502 . S
C1027 C1029 1.561 . S
C1027 C1030 1.526 . S
C1028 H1012 0.959 . S
C1028 H1013 0.959 . S
C1028 H1014 0.961 . S
C1028 C1027 1.502 . S
C1029 H1015 0.960 . S
C1029 H1016 0.961 . S
C1029 H1017 0.959 . S
C1029 C1027 1.561 . S
C1030 C1027 1.526 . S
C1030 C1031 1.396 . S
C1030 C1035 1.390 . S
C1031 C1025 1.465 . S
C1031 C1030 1.396 . S
C1031 C1032 1.399 . S
C1032 H1018 0.929 . S
C1032 C1031 1.399 . S
C1032 C1033 1.385 . S
C1033 H1019 0.931 . S
C1033 C1032 1.385 . S
C1033 C1034 1.389 . S
C1034 C1033 1.389 . S
C1034 C1035 1.387 . S
C1035 H1020 0.930 . S
C1035 C1030 1.390 . S
C1035 C1034 1.387 . S
H1036 C1048 0.930 . S
H1037 C1050 0.930 . S
H1038 C1051 0.930 . S
H1039 C1055 0.959 . S
H1040 C1055 0.959 . S
H1041 C1055 0.961 . S
H1042 C1056 0.960 . S
H1043 C1056 0.961 . S
H1044 C1056 0.959 . S
H1045 C1059 0.929 . S
H1046 C1060 0.931 . S
H1047 C1062 0.930 . S
C1048 H1036 0.930 . S
C1048 C1049 1.399 . S
C1048 C1053 1.399 . S
C1049 C1048 1.399 . S
C1049 C1050 1.376 . S
C1050 H1037 0.930 . S
C1050 C1049 1.376 . S
C1050 C1051 1.388 . S
C1051 H1038 0.930 . S
C1051 C1050 1.388 . S
C1051 C1052 1.390 . S
C1052 C1051 1.390 . S
C1052 C1053 1.394 . S
C1052 C1058 1.465 . S
C1053 C1048 1.399 . S
C1053 C1052 1.394 . S
C1053 C1054 1.516 . S
C1054 C1053 1.516 . S
C1054 C1055 1.502 . S
C1054 C1056 1.561 . S
C1054 C1057 1.526 . S
C1055 H1039 0.959 . S
C1055 H1040 0.959 . S
C1055 H1041 0.961 . S
C1055 C1054 1.502 . S
C1056 H1042 0.960 . S
C1056 H1043 0.961 . S
C1056 H1044 0.959 . S
C1056 C1054 1.561 . S
C1057 C1054 1.526 . S
C1057 C1058 1.396 . S
C1057 C1062 1.390 . S
C1058 C1052 1.465 . S
C1058 C1057 1.396 . S
C1058 C1059 1.399 . S
C1059 H1045 0.929 . S
C1059 C1058 1.399 . S
C1059 C1060 1.385 . S
C1060 H1046 0.931 . S
C1060 C1059 1.385 . S
C1060 C1061 1.389 . S
C1061 C1060 1.389 . S
C1061 C1062 1.387 . S
C1062 H1047 0.930 . S
C1062 C1057 1.390 . S
C1062 C1061 1.387 . S
H1063 C1075 0.930 . S
H1064 C1077 0.930 . S
H1065 C1078 0.930 . S
H1066 C1082 0.959 . S
H1067 C1082 0.959 . S
H1068 C1082 0.961 . S
H1069 C1083 0.960 . S
H1070 C1083 0.961 . S
H1071 C1083 0.959 . S
H1072 C1086 0.929 . S
H1073 C1087 0.931 . S
H1074 C1089 0.930 . S
C1075 H1063 0.930 . S
C1075 C1076 1.399 . S
C1075 C1080 1.399 . S
C1076 C1075 1.399 . S
C1076 C1077 1.376 . S
C1077 H1064 0.930 . S
C1077 C1076 1.376 . S
C1077 C1078 1.388 . S
C1078 H1065 0.930 . S
C1078 C1077 1.388 . S
C1078 C1079 1.390 . S
C1079 C1078 1.390 . S
C1079 C1080 1.394 . S
C1079 C1085 1.465 . S
C1080 C1075 1.399 . S
C1080 C1079 1.394 . S
C1080 C1081 1.516 . S
C1081 C1080 1.516 . S
C1081 C1082 1.502 . S
C1081 C1083 1.561 . S
C1081 C1084 1.526 . S
C1082 H1066 0.959 . S
C1082 H1067 0.959 . S
C1082 H1068 0.961 . S
C1082 C1081 1.502 . S
C1083 H1069 0.960 . S
C1083 H1070 0.961 . S
C1083 H1071 0.959 . S
C1083 C1081 1.561 . S
C1084 C1081 1.526 . S
C1084 C1085 1.396 . S
C1084 C1089 1.390 . S
C1085 C1079 1.465 . S
C1085 C1084 1.396 . S
C1085 C1086 1.399 . S
C1086 H1072 0.929 . S
C1086 C1085 1.399 . S
C1086 C1087 1.385 . S
C1087 H1073 0.931 . S
C1087 C1086 1.385 . S
C1087 C1088 1.389 . S
C1088 C1087 1.389 . S
C1088 C1089 1.387 . S
C1089 H1074 0.930 . S
C1089 C1084 1.390 . S
C1089 C1088 1.387 . S
H1090 C1102 0.930 . S
H1091 C1104 0.930 . S
H1092 C1105 0.930 . S
H1093 C1109 0.959 . S
H1094 C1109 0.959 . S
H1095 C1109 0.961 . S
H1096 C1110 0.960 . S
H1097 C1110 0.961 . S
H1098 C1110 0.959 . S
H1099 C1113 0.929 . S
H1100 C1114 0.931 . S
H1101 C1116 0.930 . S
C1102 H1090 0.930 . S
C1102 C1103 1.399 . S
C1102 C1107 1.399 . S
C1103 C1102 1.399 . S
C1103 C1104 1.376 . S
C1104 H1091 0.930 . S
C1104 C1103 1.376 . S
C1104 C1105 1.388 . S
C1105 H1092 0.930 . S
C1105 C1104 1.388 . S
C1105 C1106 1.390 . S
C1106 C1105 1.390 . S
C1106 C1107 1.394 . S
C1106 C1112 1.465 . S
C1107 C1102 1.399 . S
C1107 C1106 1.394 . S
C1107 C1108 1.516 . S
C1108 C1107 1.516 . S
C1108 C1109 1.502 . S
C1108 C1110 1.561 . S
C1108 C1111 1.526 . S
C1109 H1093 0.959 . S
C1109 H1094 0.959 . S
C1109 H1095 0.961 . S
C1109 C1108 1.502 . S
C1110 H1096 0.960 . S
C1110 H1097 0.961 . S
C1110 H1098 0.959 . S
C1110 C1108 1.561 . S
C1111 C1108 1.526 . S
C1111 C1112 1.396 . S
C1111 C1116 1.390 . S
C1112 C1106 1.465 . S
C1112 C1111 1.396 . S
C1112 C1113 1.399 . S
C1113 H1099 0.929 . S
C1113 C1112 1.399 . S
C1113 C1114 1.385 . S
C1114 H1100 0.931 . S
C1114 C1113 1.385 . S
C1114 C1115 1.389 . S
C1115 C1114 1.389 . S
C1115 C1116 1.387 . S
C1116 H1101 0.930 . S
C1116 C1111 1.390 . S
C1116 C1115 1.387 . S
H1117 C1129 0.930 . S
H1118 C1131 0.930 . S
H1119 C1132 0.930 . S
H1120 C1136 0.959 . S
H1121 C1136 0.959 . S
H1122 C1136 0.961 . S
H1123 C1137 0.960 . S
H1124 C1137 0.961 . S
H1125 C1137 0.959 . S
H1126 C1140 0.929 . S
H1127 C1141 0.931 . S
H1128 C1143 0.930 . S
C1129 H1117 0.930 . S
C1129 C1130 1.399 . S
C1129 C1134 1.399 . S
C1130 C1129 1.399 . S
C1130 C1131 1.376 . S
C1131 H1118 0.930 . S
C1131 C1130 1.376 . S
C1131 C1132 1.388 . S
C1132 H1119 0.930 . S
C1132 C1131 1.388 . S
C1132 C1133 1.390 . S
C1133 C1132 1.390 . S
C1133 C1134 1.394 . S
C1133 C1139 1.465 . S
C1134 C1129 1.399 . S
C1134 C1133 1.394 . S
C1134 C1135 1.516 . S
C1135 C1134 1.516 . S
C1135 C1136 1.502 . S
C1135 C1137 1.561 . S
C1135 C1138 1.526 . S
C1136 H1120 0.959 . S
C1136 H1121 0.959 . S
C1136 H1122 0.961 . S
C1136 C1135 1.502 . S
C1137 H1123 0.960 . S
C1137 H1124 0.961 . S
C1137 H1125 0.959 . S
C1137 C1135 1.561 . S
C1138 C1135 1.526 . S
C1138 C1139 1.396 . S
C1138 C1143 1.390 . S
C1139 C1133 1.465 . S
C1139 C1138 1.396 . S
C1139 C1140 1.399 . S
C1140 H1126 0.929 . S
C1140 C1139 1.399 . S
C1140 C1141 1.385 . S
C1141 H1127 0.931 . S
C1141 C1140 1.385 . S
C1141 C1142 1.389 . S
C1142 C1141 1.389 . S
C1142 C1143 1.387 . S
C1143 H1128 0.930 . S
C1143 C1138 1.390 . S
C1143 C1142 1.387 . S
H1144 C1156 0.930 . S
H1145 C1158 0.930 . S
H1146 C1159 0.930 . S
H1147 C1163 0.959 . S
H1148 C1163 0.959 . S
H1149 C1163 0.961 . S
H1150 C1164 0.960 . S
H1151 C1164 0.961 . S
H1152 C1164 0.959 . S
H1153 C1167 0.929 . S
H1154 C1168 0.931 . S
H1155 C1170 0.930 . S
C1156 H1144 0.930 . S
C1156 C1157 1.399 . S
C1156 C1161 1.399 . S
C1157 C1156 1.399 . S
C1157 C1158 1.376 . S
C1158 H1145 0.930 . S
C1158 C1157 1.376 . S
C1158 C1159 1.388 . S
C1159 H1146 0.930 . S
C1159 C1158 1.388 . S
C1159 C1160 1.390 . S
C1160 C1159 1.390 . S
C1160 C1161 1.394 . S
C1160 C1166 1.465 . S
C1161 C1156 1.399 . S
C1161 C1160 1.394 . S
C1161 C1162 1.516 . S
C1162 C1161 1.516 . S
C1162 C1163 1.502 . S
C1162 C1164 1.561 . S
C1162 C1165 1.526 . S
C1163 H1147 0.959 . S
C1163 H1148 0.959 . S
C1163 H1149 0.961 . S
C1163 C1162 1.502 . S
C1164 H1150 0.960 . S
C1164 H1151 0.961 . S
C1164 H1152 0.959 . S
C1164 C1162 1.561 . S
C1165 C1162 1.526 . S
C1165 C1166 1.396 . S
C1165 C1170 1.390 . S
C1166 C1160 1.465 . S
C1166 C1165 1.396 . S
C1166 C1167 1.399 . S
C1167 H1153 0.929 . S
C1167 C1166 1.399 . S
C1167 C1168 1.385 . S
C1168 H1154 0.931 . S
C1168 C1167 1.385 . S
C1168 C1169 1.389 . S
C1169 C1168 1.389 . S
C1169 C1170 1.387 . S
C1170 H1155 0.930 . S
C1170 C1165 1.390 . S
C1170 C1169 1.387 . S
H1171 C1183 0.930 . S
H1172 C1185 0.930 . S
H1173 C1186 0.930 . S
H1174 C1190 0.959 . S
H1175 C1190 0.959 . S
H1176 C1190 0.961 . S
H1177 C1191 0.960 . S
H1178 C1191 0.961 . S
H1179 C1191 0.959 . S
H1180 C1194 0.929 . S
H1181 C1195 0.931 . S
H1182 C1197 0.930 . S
C1183 H1171 0.930 . S
C1183 C1184 1.399 . S
C1183 C1188 1.399 . S
C1184 C1183 1.399 . S
C1184 C1185 1.376 . S
C1185 H1172 0.930 . S
C1185 C1184 1.376 . S
C1185 C1186 1.388 . S
C1186 H1173 0.930 . S
C1186 C1185 1.388 . S
C1186 C1187 1.390 . S
C1187 C1186 1.390 . S
C1187 C1188 1.394 . S
C1187 C1193 1.465 . S
C1188 C1183 1.399 . S
C1188 C1187 1.394 . S
C1188 C1189 1.516 . S
C1189 C1188 1.516 . S
C1189 C1190 1.502 . S
C1189 C1191 1.561 . S
C1189 C1192 1.526 . S
C1190 H1174 0.959 . S
C1190 H1175 0.959 . S
C1190 H1176 0.961 . S
C1190 C1189 1.502 . S
C1191 H1177 0.960 . S
C1191 H1178 0.961 . S
C1191 H1179 0.959 . S
C1191 C1189 1.561 . S
C1192 C1189 1.526 . S
C1192 C1193 1.396 . S
C1192 C1197 1.390 . S
C1193 C1187 1.465 . S
C1193 C1192 1.396 . S
C1193 C1194 1.399 . S
C1194 H1180 0.929 . S
C1194 C1193 1.399 . S
C1194 C1195 1.385 . S
C1195 H1181 0.931 . S
C1195 C1194 1.385 . S
C1195 C1196 1.389 . S
C1196 C1195 1.389 . S
C1196 C1197 1.387 . S
C1197 H1182 0.930 . S
C1197 C1192 1.390 . S
C1197 C1196 1.387 . S
H1198 C1210 0.930 . S
H1199 C1212 0.930 . S
H1200 C1213 0.930 . S
H1201 C1217 0.959 . S
H1202 C1217 0.959 . S
H1203 C1217 0.961 . S
H1204 C1218 0.960 . S
H1205 C1218 0.961 . S
H1206 C1218 0.959 . S
H1207 C1221 0.929 . S
H1208 C1222 0.931 . S
H1209 C1224 0.930 . S
C1210 H1198 0.930 . S
C1210 C1211 1.399 . S
C1210 C1215 1.399 . S
C1211 C1210 1.399 . S
C1211 C1212 1.376 . S
C1212 H1199 0.930 . S
C1212 C1211 1.376 . S
C1212 C1213 1.388 . S
C1213 H1200 0.930 . S
C1213 C1212 1.388 . S
C1213 C1214 1.390 . S
C1214 C1213 1.390 . S
C1214 C1215 1.394 . S
C1214 C1220 1.465 . S
C1215 C1210 1.399 . S
C1215 C1214 1.394 . S
C1215 C1216 1.516 . S
C1216 C1215 1.516 . S
C1216 C1217 1.502 . S
C1216 C1218 1.561 . S
C1216 C1219 1.526 . S
C1217 H1201 0.959 . S
C1217 H1202 0.959 . S
C1217 H1203 0.961 . S
C1217 C1216 1.502 . S
C1218 H1204 0.960 . S
C1218 H1205 0.961 . S
C1218 H1206 0.959 . S
C1218 C1216 1.561 . S
C1219 C1216 1.526 . S
C1219 C1220 1.396 . S
C1219 C1224 1.390 . S
C1220 C1214 1.465 . S
C1220 C1219 1.396 . S
C1220 C1221 1.399 . S
C1221 H1207 0.929 . S
C1221 C1220 1.399 . S
C1221 C1222 1.385 . S
C1222 H1208 0.931 . S
C1222 C1221 1.385 . S
C1222 C1223 1.389 . S
C1223 C1222 1.389 . S
C1223 C1224 1.387 . S
C1224 H1209 0.930 . S
C1224 C1219 1.390 . S
C1224 C1223 1.387 . S
H1225 C1237 0.930 . S
H1226 C1239 0.930 . S
H1227 C1240 0.930 . S
H1228 C1244 0.959 . S
H1229 C1244 0.959 . S
H1230 C1244 0.961 . S
H1231 C1245 0.960 . S
H1232 C1245 0.961 . S
H1233 C1245 0.959 . S
H1234 C1248 0.929 . S
H1235 C1249 0.931 . S
H1236 C1251 0.930 . S
C1237 H1225 0.930 . S
C1237 C1238 1.399 . S
C1237 C1242 1.399 . S
C1238 C1237 1.399 . S
C1238 C1239 1.376 . S
C1239 H1226 0.930 . S
C1239 C1238 1.376 . S
C1239 C1240 1.388 . S
C1240 H1227 0.930 . S
C1240 C1239 1.388 . S
C1240 C1241 1.390 . S
C1241 C1240 1.390 . S
C1241 C1242 1.394 . S
C1241 C1247 1.465 . S
C1242 C1237 1.399 . S
C1242 C1241 1.394 . S
C1242 C1243 1.516 . S
C1243 C1242 1.516 . S
C1243 C1244 1.502 . S
C1243 C1245 1.561 . S
C1243 C1246 1.526 . S
C1244 H1228 0.959 . S
C1244 H1229 0.959 . S
C1244 H1230 0.961 . S
C1244 C1243 1.502 . S
C1245 H1231 0.960 . S
C1245 H1232 0.961 . S
C1245 H1233 0.959 . S
C1245 C1243 1.561 . S
C1246 C1243 1.526 . S
C1246 C1247 1.396 . S
C1246 C1251 1.390 . S
C1247 C1241 1.465 . S
C1247 C1246 1.396 . S
C1247 C1248 1.399 . S
C1248 H1234 0.929 . S
C1248 C1247 1.399 . S
C1248 C1249 1.385 . S
C1249 H1235 0.931 . S
C1249 C1248 1.385 . S
C1249 C1250 1.389 . S
C1250 C1249 1.389 . S
C1250 C1251 1.387 . S
C1251 H1236 0.930 . S
C1251 C1246 1.390 . S
C1251 C1250 1.387 . S
H1252 C1264 0.930 . S
H1253 C1266 0.930 . S
H1254 C1267 0.930 . S
H1255 C1271 0.959 . S
H1256 C1271 0.959 . S
H1257 C1271 0.961 . S
H1258 C1272 0.960 . S
H1259 C1272 0.961 . S
H1260 C1272 0.959 . S
H1261 C1275 0.929 . S
H1262 C1276 0.931 . S
H1263 C1278 0.930 . S
C1264 H1252 0.930 . S
C1264 C1265 1.399 . S
C1264 C1269 1.399 . S
C1265 C1264 1.399 . S
C1265 C1266 1.376 . S
C1266 H1253 0.930 . S
C1266 C1265 1.376 . S
C1266 C1267 1.388 . S
C1267 H1254 0.930 . S
C1267 C1266 1.388 . S
C1267 C1268 1.390 . S
C1268 C1267 1.390 . S
C1268 C1269 1.394 . S
C1268 C1274 1.465 . S
C1269 C1264 1.399 . S
C1269 C1268 1.394 . S
C1269 C1270 1.516 . S
C1270 C1269 1.516 . S
C1270 C1271 1.502 . S
C1270 C1272 1.561 . S
C1270 C1273 1.526 . S
C1271 H1255 0.959 . S
C1271 H1256 0.959 . S
C1271 H1257 0.961 . S
C1271 C1270 1.502 . S
C1272 H1258 0.960 . S
C1272 H1259 0.961 . S
C1272 H1260 0.959 . S
C1272 C1270 1.561 . S
C1273 C1270 1.526 . S
C1273 C1274 1.396 . S
C1273 C1278 1.390 . S
C1274 C1268 1.465 . S
C1274 C1273 1.396 . S
C1274 C1275 1.399 . S
C1275 H1261 0.929 . S
C1275 C1274 1.399 . S
C1275 C1276 1.385 . S
C1276 H1262 0.931 . S
C1276 C1275 1.385 . S
C1276 C1277 1.389 . S
C1277 C1276 1.389 . S
C1277 C1278 1.387 . S
C1278 H1263 0.930 . S
C1278 C1273 1.390 . S
C1278 C1277 1.387 . S
H1279 C1291 0.930 . S
H1280 C1293 0.930 . S
H1281 C1294 0.930 . S
H1282 C1298 0.959 . S
H1283 C1298 0.959 . S
H1284 C1298 0.961 . S
H1285 C1299 0.960 . S
H1286 C1299 0.961 . S
H1287 C1299 0.959 . S
H1288 C1302 0.929 . S
H1289 C1303 0.931 . S
H1290 C1305 0.930 . S
C1291 H1279 0.930 . S
C1291 C1292 1.399 . S
C1291 C1296 1.399 . S
C1292 C1291 1.399 . S
C1292 C1293 1.376 . S
C1293 H1280 0.930 . S
C1293 C1292 1.376 . S
C1293 C1294 1.388 . S
C1294 H1281 0.930 . S
C1294 C1293 1.388 . S
C1294 C1295 1.390 . S
C1295 C1294 1.390 . S
C1295 C1296 1.394 . S
C1295 C1301 1.465 . S
C1296 C1291 1.399 . S
C1296 C1295 1.394 . S
C1296 C1297 1.516 . S
C1297 C1296 1.516 . S
C1297 C1298 1.502 . S
C1297 C1299 1.561 . S
C1297 C1300 1.526 . S
C1298 H1282 0.959 . S
C1298 H1283 0.959 . S
C1298 H1284 0.961 . S
C1298 C1297 1.502 . S
C1299 H1285 0.960 . S
C1299 H1286 0.961 . S
C1299 H1287 0.959 . S
C1299 C1297 1.561 . S
C1300 C1297 1.526 . S
C1300 C1301 1.396 . S
C1300 C1305 1.390 . S
C1301 C1295 1.465 . S
C1301 C1300 1.396 . S
C1301 C1302 1.399 . S
C1302 H1288 0.929 . S
C1302 C1301 1.399 . S
C1302 C1303 1.385 . S
C1303 H1289 0.931 . S
C1303 C1302 1.385 . S
C1303 C1304 1.389 . S
C1304 C1303 1.389 . S
C1304 C1305 1.387 . S
C1305 H1290 0.930 . S
C1305 C1300 1.390 . S
C1305 C1304 1.387 . S
H1306 C1318 0.930 . S
H1307 C1320 0.930 . S
H1308 C1321 0.930 . S
H1309 C1325 0.959 . S
H1310 C1325 0.959 . S
H1311 C1325 0.961 . S
H1312 C1326 0.960 . S
H1313 C1326 0.961 . S
H1314 C1326 0.959 . S
H1315 C1329 0.929 . S
H1316 C1330 0.931 . S
H1317 C1332 0.930 . S
C1318 H1306 0.930 . S
C1318 C1319 1.399 . S
C1318 C1323 1.399 . S
C1319 C1318 1.399 . S
C1319 C1320 1.376 . S
C1320 H1307 0.930 . S
C1320 C1319 1.376 . S
C1320 C1321 1.388 . S
C1321 H1308 0.930 . S
C1321 C1320 1.388 . S
C1321 C1322 1.390 . S
C1322 C1321 1.390 . S
C1322 C1323 1.394 . S
C1322 C1328 1.465 . S
C1323 C1318 1.399 . S
C1323 C1322 1.394 . S
C1323 C1324 1.516 . S
C1324 C1323 1.516 . S
C1324 C1325 1.502 . S
C1324 C1326 1.561 . S
C1324 C1327 1.526 . S
C1325 H1309 0.959 . S
C1325 H1310 0.959 . S
C1325 H1311 0.961 . S
C1325 C1324 1.502 . S
C1326 H1312 0.960 . S
C1326 H1313 0.961 . S
C1326 H1314 0.959 . S
C1326 C1324 1.561 . S
C1327 C1324 1.526 . S
C1327 C1328 1.396 . S
C1327 C1332 1.390 . S
C1328 C1322 1.465 . S
C1328 C1327 1.396 . S
C1328 C1329 1.399 . S
C1329 H1315 0.929 . S
C1329 C1328 1.399 . S
C1329 C1330 1.385 . S
C1330 H1316 0.931 . S
C1330 C1329 1.385 . S
C1330 C1331 1.389 . S
C1331 C1330 1.389 . S
C1331 C1332 1.387 . S
C1332 H1317 0.930 . S
C1332 C1327 1.390 . S
C1332 C1331 1.387 . S
H1333 C1345 0.930 . S
H1334 C1347 0.930 . S
H1335 C1348 0.930 . S
H1336 C1352 0.959 . S
H1337 C1352 0.959 . S
H1338 C1352 0.961 . S
H1339 C1353 0.960 . S
H1340 C1353 0.961 . S
H1341 C1353 0.959 . S
H1342 C1356 0.929 . S
H1343 C1357 0.931 . S
H1344 C1359 0.930 . S
C1345 H1333 0.930 . S
C1345 C1346 1.399 . S
C1345 C1350 1.399 . S
C1346 C1345 1.399 . S
C1346 C1347 1.376 . S
C1347 H1334 0.930 . S
C1347 C1346 1.376 . S
C1347 C1348 1.388 . S
C1348 H1335 0.930 . S
C1348 C1347 1.388 . S
C1348 C1349 1.390 . S
C1349 C1348 1.390 . S
C1349 C1350 1.394 . S
C1349 C1355 1.465 . S
C1350 C1345 1.399 . S
C1350 C1349 1.394 . S
C1350 C1351 1.516 . S
C1351 C1350 1.516 . S
C1351 C1352 1.502 . S
C1351 C1353 1.561 . S
C1351 C1354 1.526 . S
C1352 H1336 0.959 . S
C1352 H1337 0.959 . S
C1352 H1338 0.961 . S
C1352 C1351 1.502 . S
C1353 H1339 0.960 . S
C1353 H1340 0.961 . S
C1353 H1341 0.959 . S
C1353 C1351 1.561 . S
C1354 C1351 1.526 . S
C1354 C1355 1.396 . S
C1354 C1359 1.390 . S
C1355 C1349 1.465 . S
C1355 C1354 1.396 . S
C1355 C1356 1.399 . S
C1356 H1342 0.929 . S
C1356 C1355 1.399 . S
C1356 C1357 1.385 . S
C1357 H1343 0.931 . S
C1357 C1356 1.385 . S
C1357 C1358 1.389 . S
C1358 C1357 1.389 . S
C1358 C1359 1.387 . S
C1359 H1344 0.930 . S
C1359 C1354 1.390 . S
C1359 C1358 1.387 . S
C521 C406 1.341 . S
C509 C36 1.275 . S
C548 C420 1.341 . S
C536 C93 1.310 . S
C575 C435 1.343 . S
C563 C126 1.360 . S
C590 C165 1.339 . S
C602 C393 1.319 . S
C617 C222 1.327 . S
C629 C392 1.326 . S
C644 C261 1.258 . S
C656 C407 1.272 . S
C683 C421 1.311 . S
C671 C318 1.318 . S
C710 C434 1.359 . S
C698 C381 1.306 . S
C725 C132 1.330 . S
C737 C462 1.319 . S
C764 C476 1.361 . S
C752 C189 1.336 . S
C779 C30 1.271 . S
C791 C491 1.315 . S
C818 C448 1.319 . S
C806 C69 1.286 . S
C833 C324 1.346 . S
C845 C449 1.336 . S
C860 C357 1.352 . S
C872 C463 1.332 . S
C899 C477 1.348 . S
C887 C228 1.347 . S
C914 C285 1.323 . S
C926 C490 1.368 . S
C953 C415 1.747 . S
C941 C45 1.725 . S
C980 C433 1.719 . S
C968 C84 1.746 . S
C995 C117 1.709 . S
C1007 C391 1.715 . S
C1022 C174 1.683 . S
C1034 C401 1.746 . S
C1049 C213 1.703 . S
C1061 C429 1.738 . S
C1088 C387 1.720 . S
C1076 C270 1.693 . S
C1115 C405 1.698 . S
C1103 C309 1.701 . S
C1142 C419 1.661 . S
C1130 C372 1.723 . S
C1169 C471 1.738 . S
C1157 C141 1.716 . S
C1196 C489 1.704 . S
C1184 C180 1.734 . S
C1211 C21 1.737 . S
C1223 C443 1.717 . S
C1250 C457 1.728 . S
C1238 C78 1.659 . S
C1277 C485 1.759 . S
C1265 C333 1.745 . S
C1292 C366 1.732 . S
C1304 C447 1.727 . S
C1331 C461 1.690 . S
C1319 C237 1.736 . S
C1358 C475 1.689 . S
C1346 C276 1.739 . S
