# Generated by pormake.
# Topology zzz, (3,6)-cn, num edge types: 1
# Building blocks:
#     Node 0, Type 0, BuildingBlock: QEWDON_clean_linker_0, # of connection points: 3
#     Node 1, Type 0, BuildingBlock: QEWDON_clean_linker_0, # of connection points: 3
#     Node 2, Type 0, BuildingBlock: QEWDON_clean_linker_0, # of connection points: 3
#     Node 3, Type 0, BuildingBlock: QEWDON_clean_linker_0, # of connection points: 3
#     Node 4, Type 0, BuildingBlock: QEWDON_clean_linker_0, # of connection points: 3
#     Node 5, Type 0, BuildingBlock: QEWDON_clean_linker_0, # of connection points: 3
#     Node 6, Type 0, BuildingBlock: QEWDON_clean_linker_0, # of connection points: 3
#     Node 7, Type 0, BuildingBlock: QEWDON_clean_linker_0, # of connection points: 3
#     Node 8, Type 1, BuildingBlock: GEDQOX_clean_sbu_0, # of connection points: 6
#     Node 9, Type 1, BuildingBlock: GEDQOX_clean_sbu_0, # of connection points: 6
#     Node 10, Type 1, BuildingBlock: GEDQOX_clean_sbu_0, # of connection points: 6
#     Node 11, Type 1, BuildingBlock: GEDQOX_clean_sbu_0, # of connection points: 6
#     Edge 12, Type (0, 1), BuildingBlock: UVAHIK_clean_linker_0, # of connection points: 2
#     Edge 13, Type (0, 1), BuildingBlock: UVAHIK_clean_linker_0, # of connection points: 2
#     Edge 14, Type (0, 1), BuildingBlock: UVAHIK_clean_linker_0, # of connection points: 2
#     Edge 15, Type (0, 1), BuildingBlock: UVAHIK_clean_linker_0, # of connection points: 2
#     Edge 16, Type (0, 1), BuildingBlock: UVAHIK_clean_linker_0, # of connection points: 2
#     Edge 17, Type (0, 1), BuildingBlock: UVAHIK_clean_linker_0, # of connection points: 2
#     Edge 18, Type (0, 1), BuildingBlock: UVAHIK_clean_linker_0, # of connection points: 2
#     Edge 19, Type (0, 1), BuildingBlock: UVAHIK_clean_linker_0, # of connection points: 2
#     Edge 20, Type (0, 1), BuildingBlock: UVAHIK_clean_linker_0, # of connection points: 2
#     Edge 21, Type (0, 1), BuildingBlock: UVAHIK_clean_linker_0, # of connection points: 2
#     Edge 22, Type (0, 1), BuildingBlock: UVAHIK_clean_linker_0, # of connection points: 2
#     Edge 23, Type (0, 1), BuildingBlock: UVAHIK_clean_linker_0, # of connection points: 2
#     Edge 24, Type (0, 1), BuildingBlock: UVAHIK_clean_linker_0, # of connection points: 2
#     Edge 25, Type (0, 1), BuildingBlock: UVAHIK_clean_linker_0, # of connection points: 2
#     Edge 26, Type (0, 1), BuildingBlock: UVAHIK_clean_linker_0, # of connection points: 2
#     Edge 27, Type (0, 1), BuildingBlock: UVAHIK_clean_linker_0, # of connection points: 2
#     Edge 28, Type (0, 1), BuildingBlock: UVAHIK_clean_linker_0, # of connection points: 2
#     Edge 29, Type (0, 1), BuildingBlock: UVAHIK_clean_linker_0, # of connection points: 2
#     Edge 30, Type (0, 1), BuildingBlock: UVAHIK_clean_linker_0, # of connection points: 2
#     Edge 31, Type (0, 1), BuildingBlock: UVAHIK_clean_linker_0, # of connection points: 2
#     Edge 32, Type (0, 1), BuildingBlock: UVAHIK_clean_linker_0, # of connection points: 2
#     Edge 33, Type (0, 1), BuildingBlock: UVAHIK_clean_linker_0, # of connection points: 2
#     Edge 34, Type (0, 1), BuildingBlock: UVAHIK_clean_linker_0, # of connection points: 2
#     Edge 35, Type (0, 1), BuildingBlock: UVAHIK_clean_linker_0, # of connection points: 2
# Relax obj value: 0.061
# Max RMSD: 0.143
# Mean RMSD: 0.048
data_MOF--net-zzz--node1-GEDQOX_clean_sbu_0--node2-QEWDON_clean_linker_0--edge1-UVAHIK_clean_linker_0
_symmetry_space_group_name_H-M    P1
_symmetry_Int_Tables_number       1
_symmetry_cell_setting            triclinic
loop_
_symmetry_equiv_pos_as_xyz
'x, y, z'
_cell_length_a     74.257728
_cell_length_b     73.184808
_cell_length_c     20.590753
_cell_angle_alpha  81.998585
_cell_angle_beta   89.238386
_cell_angle_gamma 97.66223
loop_
_atom_site_label
_atom_site_type_symbol
_atom_site_fract_x
_atom_site_fract_y
_atom_site_fract_z
_atom_type_partial_charge
H0 H 0.78987 0.53252 0.02144 0.0
C1 C 0.79463 0.53367 0.07044 0.0
C2 C 0.80908 0.52425 0.09401 0.0
C3 C 0.78717 0.54559 0.10844 0.0
H4 H 0.82718 0.51979 0.17388 0.0
C5 C 0.81553 0.52637 0.15661 0.0
C6 C 0.80869 0.5386 0.19405 0.0
C7 C 0.79454 0.54826 0.16972 0.0
C8 C 0.77345 0.55719 0.08073 0.0
H9 H 0.78953 0.55814 0.19774 0.0
C10 C 0.75611 0.54918 0.06368 0.0
C11 C 0.74327 0.56064 0.0378 0.0
C12 C 0.77786 0.57664 0.07149 0.0
H13 H 0.79111 0.58307 0.08412 0.0
C14 C 0.76532 0.58798 0.04533 0.0
H15 H 0.75262 0.53416 0.07096 0.0
C16 C 0.74817 0.58009 0.02866 0.0
H17 H 0.73857 0.58929 0.00985 0.0
H18 H 0.76886 0.60298 0.03838 0.0
H19 H 0.01975 0.78041 0.11909 0.0
C20 C 0.01901 0.78463 0.16736 0.0
C21 C 0.0271 0.80253 0.17695 0.0
C22 C 0.00893 0.77271 0.21894 0.0
H23 H 0.03089 0.82246 0.24468 0.0
C24 C 0.02539 0.80832 0.23845 0.0
C25 C 0.01492 0.79719 0.28964 0.0
C26 C 0.00674 0.77932 0.27987 0.0
C27 C 0.99861 0.75453 0.20669 0.0
H28 H 0.99841 0.77076 0.31923 0.0
C29 C 0.00647 0.74167 0.17303 0.0
C30 C 0.99585 0.72503 0.16014 0.0
C31 C 0.9802 0.75034 0.22722 0.0
H32 H 0.97366 0.75995 0.25192 0.0
C33 C 0.96982 0.73398 0.21482 0.0
H34 H 0.02062 0.74462 0.15675 0.0
C35 C 0.97751 0.72147 0.18153 0.0
H36 H 0.96909 0.70881 0.17299 0.0
H37 H 0.95566 0.73101 0.23084 0.0
H38 H 0.75406 1.00144 0.02296 0.0
C39 C 0.74861 1.00153 0.072 0.0
C40 C 0.7335 0.01075 0.08073 0.0
C41 C 0.756 0.99148 0.12623 0.0
H42 H 0.71418 0.01671 0.15108 0.0
C43 C 0.72631 0.01032 0.14431 0.0
C44 C 0.73327 1.00014 0.19867 0.0
C45 C 0.74805 0.99056 0.18937 0.0
C46 C 0.77074 0.98031 0.11605 0.0
H47 H 0.75323 0.98227 0.23094 0.0
C48 C 0.78783 0.98878 0.08863 0.0
C49 C 0.80164 0.97785 0.07862 0.0
C50 C 0.76756 0.9609 0.13334 0.0
H51 H 0.7545 0.95412 0.15435 0.0
C52 C 0.78108 0.95002 0.12274 0.0
H53 H 0.79039 1.00378 0.07556 0.0
C54 C 0.79799 0.95839 0.09552 0.0
H55 H 0.80837 0.94966 0.08908 0.0
H56 H 0.77848 0.93505 0.13602 0.0
H57 H 0.51422 0.77656 0.3037 0.0
C58 C 0.5138 0.76748 0.3501 0.0
C59 C 0.50515 0.74911 0.35369 0.0
C60 C 0.52223 0.77384 0.40539 0.0
H61 H 0.49937 0.72236 0.41353 0.0
C62 C 0.50529 0.7368 0.41204 0.0
C63 C 0.51437 0.74242 0.46644 0.0
C64 C 0.52251 0.76099 0.46347 0.0
C65 C 0.53121 0.79358 0.40179 0.0
H66 H 0.52902 0.76524 0.50672 0.0
C67 C 0.52481 0.80826 0.36012 0.0
C68 C 0.53326 0.82676 0.35749 0.0
C69 C 0.54641 0.79795 0.43989 0.0
H70 H 0.55229 0.7872 0.47059 0.0
C71 C 0.55457 0.81633 0.43814 0.0
H72 H 0.5131 0.8055 0.33046 0.0
C73 C 0.54801 0.83067 0.39751 0.0
H74 H 0.55478 0.84479 0.39607 0.0
H75 H 0.56619 0.81944 0.46786 0.0
H76 H 0.2616 0.53565 0.68039 0.0
C77 C 0.25526 0.52789 0.64363 0.0
C78 C 0.23686 0.52008 0.65202 0.0
C79 C 0.26512 0.52655 0.58582 0.0
H80 H 0.21414 0.50566 0.60779 0.0
C81 C 0.22856 0.51079 0.60283 0.0
C82 C 0.23794 0.50977 0.54439 0.0
C83 C 0.25627 0.51757 0.53628 0.0
C84 C 0.28394 0.53637 0.57284 0.0
H85 H 0.26353 0.51704 0.4907 0.0
C86 C 0.29801 0.53348 0.61711 0.0
C87 C 0.31589 0.54264 0.60195 0.0
C88 C 0.28785 0.54865 0.5141 0.0
H89 H 0.27727 0.55126 0.47964 0.0
C90 C 0.30539 0.55774 0.4991 0.0
H91 H 0.29508 0.52406 0.66257 0.0
C92 C 0.31931 0.55472 0.54226 0.0
H93 H 0.33289 0.56165 0.52815 0.0
H94 H 0.30825 0.56708 0.45347 0.0
H95 H 0.00968 0.27189 0.60715 0.0
C96 C 0.0163 0.26725 0.56637 0.0
C97 C 0.02041 0.2489 0.57254 0.0
C98 C 0.01979 0.2792 0.50618 0.0
H99 H 0.03087 0.2282 0.52409 0.0
C100 C 0.02828 0.24259 0.51935 0.0
C101 C 0.03136 0.25381 0.45863 0.0
C102 C 0.0271 0.27216 0.45199 0.0
C103 C 0.01379 0.29813 0.49746 0.0
H104 H 0.0293 0.28082 0.40468 0.0
C105 C 0.01688 0.31053 0.5448 0.0
C106 C 0.01013 0.32792 0.53579 0.0
C107 C 0.00408 0.30355 0.44145 0.0
H108 H 1.00118 0.29435 0.40488 0.0
C109 C 0.99752 0.32066 0.43251 0.0
H110 H 0.02434 0.30667 0.58831 0.0
C111 C 1.00044 0.3327 0.47921 0.0
H112 H 0.99522 0.34594 0.4708 0.0
H113 H 0.99001 0.32457 0.38922 0.0
H114 H 0.28459 0.02795 0.67637 0.0
C115 C 0.29242 0.03689 0.63653 0.0
C116 C 0.31097 0.04273 0.64399 0.0
C117 C 0.28434 0.04157 0.57597 0.0
H118 H 0.3359 0.05682 0.59668 0.0
C119 C 0.32138 0.05333 0.59132 0.0
C120 C 0.31377 0.05771 0.53021 0.0
C121 C 0.29515 0.05207 0.52323 0.0
C122 C 0.26538 0.03351 0.56445 0.0
H123 H 0.2892 0.05534 0.47595 0.0
C124 C 0.25082 0.03395 0.60893 0.0
C125 C 0.23305 0.02589 0.59657 0.0
C126 C 0.26192 0.02493 0.50801 0.0
H127 H 0.27284 0.02408 0.47362 0.0
C128 C 0.24442 0.01709 0.49559 0.0
H129 H 0.25329 0.04048 0.65268 0.0
C130 C 0.2301 0.01757 0.53928 0.0
H131 H 0.21658 0.01157 0.52778 0.0
H132 H 0.24194 0.01058 0.45185 0.0
H133 H 0.53563 0.27263 0.4242 0.0
C134 C 0.53215 0.28082 0.37927 0.0
C135 C 0.52354 0.29659 0.38306 0.0
C136 C 0.53722 0.27624 0.31797 0.0
H137 H 0.51371 0.32027 0.32767 0.0
C138 C 0.51963 0.3076 0.32505 0.0
C139 C 0.52504 0.30368 0.26377 0.0
C140 C 0.53383 0.28799 0.26019 0.0
C141 C 0.54739 0.26014 0.31518 0.0
H142 H 0.53814 0.2851 0.21263 0.0
C143 C 0.54254 0.24322 0.35754 0.0
C144 C 0.55287 0.22835 0.35782 0.0
C145 C 0.56257 0.2619 0.27217 0.0
H146 H 0.56687 0.27478 0.23987 0.0
C147 C 0.57279 0.24726 0.2719 0.0
H148 H 0.5306 0.24162 0.38966 0.0
C149 C 0.56811 0.23069 0.31453 0.0
H150 H 0.57669 0.21985 0.31425 0.0
H151 H 0.5846 0.24887 0.23917 0.0
Nd152 Nd 0.01124 0.01678 0.80781 0.0
Nd153 Nd 0.03156 0.03371 0.93712 0.0
C154 C 0.98962 0.99765 0.73297 0.0
C155 C 0.99112 0.98077 0.70214 0.0
C156 C 0.00376 0.96881 0.72424 0.0
C157 C 0.00485 0.95254 0.69642 0.0
C158 C 0.99337 0.94786 0.64553 0.0
C159 C 0.98083 0.96003 0.62321 0.0
C160 C 0.97972 0.97629 0.65126 0.0
C161 C 0.04902 0.02155 0.79722 0.0
C162 C 0.02733 0.989 0.92819 0.0
C163 C 0.05352 0.05287 0.01085 0.0
C164 C 0.0524 0.06965 0.04281 0.0
C165 C 0.06834 0.08102 0.05541 0.0
C166 C 0.06745 0.09732 0.08334 0.0
C167 C 0.05057 0.10266 0.09943 0.0
C168 C 0.03461 0.09116 0.0865 0.0
C169 C 0.03551 0.0749 0.05834 0.0
C170 C 0.99374 0.02819 0.94889 0.0
C171 C 0.0159 0.06157 0.81541 0.0
O172 O 0.98821 0.99502 0.79727 0.0
O173 O 1.00066 0.01276 0.70949 0.0
O174 O 0.03856 0.01513 0.75326 0.0
O175 O 0.03906 0.02527 0.84184 0.0
O176 O 0.01522 0.99136 0.88205 0.0
O177 O 0.03694 1.00305 0.95245 0.0
O178 O 0.05462 0.05569 0.94652 0.0
O179 O 0.04259 0.0377 0.03452 0.0
O180 O 0.00417 0.03416 0.99378 0.0
O181 O 0.00378 0.02542 0.90284 0.0
O182 O 0.02749 0.05916 0.86333 0.0
O183 O 0.00635 0.0476 0.79051 0.0
H184 H 0.0127 0.97195 0.76355 0.0
H185 H 0.01449 0.94348 0.7157 0.0
H186 H 0.97196 0.95711 0.58355 0.0
H187 H 0.96991 0.98534 0.6333 0.0
H188 H 0.08151 0.07738 0.04306 0.0
H189 H 0.08005 0.10589 0.09132 0.0
H190 H 0.02136 0.0946 0.09879 0.0
H191 H 0.023 0.06645 0.04851 0.0
Nd192 Nd 0.52119 0.01353 0.81441 0.0
Nd193 Nd 0.52196 0.03766 0.91854 0.0
C194 C 0.52925 0.98987 0.73584 0.0
C195 C 0.5462 0.98947 0.69845 0.0
C196 C 0.5486 0.97436 0.66578 0.0
C197 C 0.56495 0.97418 0.63112 0.0
C198 C 0.57922 0.98907 0.62909 0.0
C199 C 0.57669 1.00405 0.66281 0.0
C200 C 0.56032 1.00432 0.69641 0.0
C201 C 0.52085 0.05056 0.76767 0.0
C202 C 0.56067 0.03107 0.86931 0.0
C203 C 0.51477 0.06245 0.99383 0.0
C204 C 0.49825 0.06518 0.02944 0.0
C205 C 0.49636 0.08267 0.04685 0.0
C206 C 0.48047 0.08539 0.07944 0.0
C207 C 0.46619 0.07063 0.09528 0.0
C208 C 0.46818 0.05312 0.07718 0.0
C209 C 0.48401 0.05046 0.0444 0.0
C210 C 0.52294 1.00084 0.96523 0.0
C211 C 0.48241 0.01962 0.86532 0.0
O212 O 0.53035 0.98669 0.79964 0.0
O213 O 0.52055 1.00396 0.71677 0.0
O214 O 0.51082 0.03707 0.7454 0.0
O215 O 0.53083 0.04438 0.81228 0.0
O216 O 0.55122 0.01724 0.84446 0.0
O217 O 0.55241 0.04348 0.89422 0.0
O218 O 0.51418 0.06532 0.92985 0.0
O219 O 0.52203 0.04753 0.0155 0.0
O220 O 0.53278 0.01451 0.98735 0.0
O221 O 0.51263 1.0067 0.92106 0.0
O222 O 0.49176 0.03339 0.89088 0.0
O223 O 0.49076 1.00742 0.83935 0.0
H224 H 0.53782 0.96278 0.66678 0.0
H225 H 0.56629 0.96253 0.60511 0.0
H226 H 0.58741 0.01558 0.66374 0.0
H227 H 0.55872 0.01617 0.72099 0.0
H228 H 0.50713 0.09425 0.03496 0.0
H229 H 0.47933 0.09912 0.09161 0.0
H230 H 0.45762 0.04136 0.08924 0.0
H231 H 0.48516 0.03686 0.03084 0.0
Nd232 Nd 0.514 0.52771 0.93882 0.0
Nd233 Nd 0.53174 0.52236 0.81445 0.0
C234 C 0.49406 0.53973 0.02682 0.0
C235 C 0.4906 0.55856 0.03767 0.0
C236 C 0.47505 0.56578 0.01274 0.0
C237 C 0.47245 0.58407 0.01864 0.0
C238 C 0.48535 0.59549 0.04961 0.0
C239 C 0.50065 0.58811 0.07592 0.0
C240 C 0.50323 0.56986 0.07021 0.0
C241 C 0.55082 0.52687 0.94669 0.0
C242 C 0.5276 0.56416 0.82682 0.0
C243 C 0.55116 0.51067 0.7244 0.0
C244 C 0.55221 0.49189 0.70748 0.0
C245 C 0.55623 0.47736 0.75498 0.0
C246 C 0.55483 0.45913 0.74061 0.0
C247 C 0.54929 0.45503 0.67862 0.0
C248 C 0.54585 0.46973 0.6306 0.0
C249 C 0.54738 0.48796 0.64484 0.0
C250 C 0.49507 0.52378 0.80652 0.0
C251 C 0.518 0.48563 0.92651 0.0
O252 O 0.48736 0.53377 0.97396 0.0
O253 O 0.51047 0.53565 0.03764 0.0
O254 O 0.53908 0.51883 0.99255 0.0
O255 O 0.54312 0.53543 0.89981 0.0
O256 O 0.51571 0.55654 0.87445 0.0
O257 O 0.53832 0.55403 0.80051 0.0
O258 O 0.55758 0.51418 0.78094 0.0
O259 O 0.53575 0.51707 0.71218 0.0
O260 O 0.50694 0.53208 0.76152 0.0
O261 O 0.50256 0.51477 0.85294 0.0
O262 O 0.52873 0.4929 0.87509 0.0
O263 O 0.50858 0.49604 0.95728 0.0
H264 H 0.46502 0.5574 0.98768 0.0
H265 H 0.46053 0.58938 0.9979 0.0
H266 H 0.51062 0.59644 0.1014 0.0
H267 H 0.51527 0.56472 0.09062 0.0
H268 H 0.55993 0.47992 0.80393 0.0
H269 H 0.55785 0.44823 0.77843 0.0
H270 H 0.54128 0.46709 0.58264 0.0
H271 H 0.5441 0.4989 0.60759 0.0
Nd272 Nd 0.01897 0.53907 0.80428 0.0
Nd273 Nd 0.02458 0.51406 0.93739 0.0
C274 C 0.0078 0.56559 0.72085 0.0
C275 C 0.99211 0.56529 0.67769 0.0
C276 C 0.98328 0.58109 0.66351 0.0
C277 C 0.96717 0.58018 0.62865 0.0
C278 C 0.95958 0.56339 0.60759 0.0
C279 C 0.96877 0.54772 0.62078 0.0
C280 C 0.98478 0.54863 0.65575 0.0
C281 C 0.01823 0.50239 0.78115 0.0
C282 C 0.98384 0.51377 0.88879 0.0
C283 C 0.0368 0.4908 0.03118 0.0
C284 C 0.05412 0.49039 0.06501 0.0
C285 C 0.05937 0.47332 0.09176 0.0
C286 C 0.0759 0.47277 0.12337 0.0
C287 C 0.08748 0.48933 0.12904 0.0
C288 C 0.08217 0.50643 0.10136 0.0
C289 C 0.0657 0.50694 0.06944 0.0
C290 C 0.01812 0.54984 0.94803 0.0
C291 C 0.06055 0.53694 0.84832 0.0
O292 O 0.00357 0.56304 0.78375 0.0
O293 O 0.02079 0.55618 0.70611 0.0
O294 O 0.01674 0.51623 0.73572 0.0
O295 O 0.02021 0.5086 0.83506 0.0
O296 O 0.99018 0.52915 0.84917 0.0
O297 O 0.99476 0.50341 0.92253 0.0
O298 O 0.03732 0.48866 0.96922 0.0
O299 O 0.02722 0.50383 0.04275 0.0
O300 O 0.01166 0.53522 0.98908 0.0
O301 O 0.02815 0.54532 0.90427 0.0
O302 O 0.05392 0.52505 0.90013 0.0
O303 O 0.05006 0.54509 0.80504 0.0
H304 H 0.98858 0.59399 0.6809 0.0
H305 H 0.96039 0.59246 0.62003 0.0
H306 H 0.96354 0.53466 0.60442 0.0
H307 H 0.99122 0.53617 0.6668 0.0
H308 H 0.05071 0.46039 0.08806 0.0
H309 H 0.07965 0.45934 0.14292 0.0
H310 H 0.09057 0.51948 0.10535 0.0
H311 H 0.06197 0.52028 0.04851 0.0
C312 C 0.21333 0.04281 0.66193 0.0
C313 C 0.2172 0.02616 0.64131 0.0
C314 C 0.19641 0.04358 0.69219 0.0
C315 C 0.15053 0.02446 0.67589 0.0
H316 H 0.13685 0.03597 0.8465 0.0
C317 C 0.07653 0.00954 0.76189 0.0
C318 C 0.06898 0.02229 0.79523 0.0
C319 C 0.09526 0.01086 0.752 0.0
C320 C 0.14047 0.033 0.79833 0.0
H321 H 0.20717 0.99692 0.64208 0.0
H322 H 0.17773 0.99838 0.69353 0.0
H323 H 0.16922 0.03729 0.81559 0.0
H324 H 0.07509 0.0461 0.84662 0.0
H325 H 0.10822 0.04894 0.82734 0.0
H326 H 0.12226 0.02053 0.65696 0.0
C327 C 0.18765 0.01083 0.68595 0.0
C328 C 0.15897 0.03371 0.78085 0.0
C329 C 0.20447 0.01002 0.65633 0.0
C330 C 0.08063 0.03606 0.82094 0.0
C331 C 0.09957 0.03765 0.80987 0.0
C332 C 0.13223 0.02401 0.69275 0.0
C333 C 0.1832 0.02772 0.70201 0.0
C334 C 0.16406 0.02898 0.72001 0.0
C335 C 0.10706 0.02532 0.7736 0.0
C336 C 0.12685 0.0277 0.75489 0.0
H337 H 0.22286 0.05547 0.65081 0.0
H338 H 0.19323 0.05679 0.70397 0.0
H339 H 0.15414 0.02108 0.62822 0.0
H340 H 0.06786 0.99858 0.74247 0.0
H341 H 0.10048 1.00068 0.72609 0.0
C342 C 0.55109 0.19345 0.38436 0.0
C343 C 0.54811 0.21055 0.40366 0.0
C344 C 0.54775 0.1769 0.42823 0.0
C345 C 0.5214 0.15381 0.57427 0.0
H346 H 0.55938 0.122 0.59404 0.0
C347 C 0.51015 0.07606 0.69058 0.0
C348 C 0.52308 0.07006 0.73491 0.0
C349 C 0.51274 0.09413 0.65608 0.0
C350 C 0.5487 0.1308 0.58941 0.0
H351 H 0.53884 0.22335 0.48483 0.0
H352 H 0.53237 0.19425 0.56048 0.0
H353 H 0.56463 0.15168 0.52096 0.0
H354 H 0.54867 0.07831 0.77912 0.0
H355 H 0.55342 0.10982 0.71749 0.0
H356 H 0.50529 0.13264 0.64146 0.0
C357 C 0.53747 0.19384 0.51126 0.0
C358 C 0.55165 0.1477 0.54724 0.0
C359 C 0.5411 0.21049 0.46766 0.0
C360 C 0.53849 0.08258 0.74517 0.0
C361 C 0.54124 0.10056 0.70978 0.0
C362 C 0.51832 0.13673 0.61563 0.0
C363 C 0.54103 0.17693 0.49224 0.0
C364 C 0.53801 0.15934 0.53895 0.0
C365 C 0.52846 0.10646 0.66445 0.0
C366 C 0.53193 0.12502 0.62342 0.0
H367 H 0.55601 0.19277 0.33514 0.0
H368 H 0.55032 0.16401 0.41191 0.0
H369 H 0.51063 0.16249 0.5686 0.0
H370 H 0.49812 0.06671 0.68192 0.0
H371 H 0.50274 0.09826 0.62116 0.0
C372 C 0.34483 0.55445 0.65331 0.0
C373 C 0.33136 0.53951 0.64596 0.0
C374 C 0.36081 0.55144 0.6856 0.0
C375 C 0.38957 0.51405 0.73226 0.0
H376 H 0.41796 0.55344 0.8097 0.0
C377 C 0.4625 0.51045 0.8359 0.0
C378 C 0.47531 0.52457 0.80214 0.0
C379 C 0.44381 0.51099 0.8281 0.0
C380 C 0.41012 0.54227 0.78861 0.0
H381 H 0.32374 0.5097 0.67101 0.0
H382 H 0.35136 0.50446 0.73007 0.0
H383 H 0.38665 0.55632 0.78062 0.0
H384 H 0.47872 0.55061 0.73595 0.0
H385 H 0.44616 0.5519 0.72438 0.0
H386 H 0.41325 0.50001 0.7414 0.0
C387 C 0.34981 0.51852 0.7088 0.0
C388 C 0.3922 0.54395 0.77132 0.0
C389 C 0.33381 0.52155 0.67572 0.0
C390 C 0.46914 0.53949 0.76223 0.0
C391 C 0.45053 0.54028 0.75584 0.0
C392 C 0.40742 0.51221 0.75088 0.0
C393 C 0.36377 0.53338 0.71276 0.0
C394 C 0.38182 0.53017 0.74074 0.0
C395 C 0.43768 0.52595 0.78802 0.0
C396 C 0.41802 0.52656 0.77744 0.0
H397 H 0.3433 0.56854 0.63214 0.0
H398 H 0.37117 0.56329 0.68652 0.0
H399 H 0.38223 0.5032 0.70832 0.0
H400 H 0.46694 0.49879 0.86694 0.0
H401 H 0.43415 0.49979 0.85346 0.0
C402 C 0.99781 0.34838 0.6088 0.0
C403 C 0.01291 0.34163 0.58341 0.0
C404 C 1.00004 0.36389 0.64239 0.0
C405 C 0.00836 0.39413 0.73113 0.0
H406 H 0.04196 0.43571 0.64444 0.0
C407 C 0.01878 0.46787 0.81858 0.0
C408 C 0.01907 0.48298 0.76803 0.0
C409 C 0.01933 0.4497 0.80374 0.0
C410 C 0.03252 0.42425 0.66945 0.0
H411 H 0.04227 0.34556 0.57535 0.0
H412 H 0.04628 0.37275 0.63417 0.0
H413 H 0.04062 0.4053 0.6077 0.0
H414 H 0.02021 0.49078 0.66243 0.0
H415 H 0.02133 0.4595 0.63686 0.0
H416 H 0.99995 0.41332 0.79175 0.0
C417 C 0.03264 0.36601 0.62803 0.0
C418 C 0.03189 0.4067 0.64877 0.0
C419 C 0.03039 0.35029 0.59502 0.0
C420 C 0.02002 0.47951 0.70267 0.0
C421 C 0.02079 0.46153 0.68793 0.0
C422 C 0.00912 0.41168 0.75229 0.0
C423 C 0.01746 0.37331 0.65086 0.0
C424 C 0.01955 0.39143 0.67837 0.0
C425 C 0.02045 0.44631 0.73806 0.0
C426 C 0.02094 0.4271 0.72076 0.0
H427 H 0.98416 0.3421 0.60011 0.0
H428 H 0.98801 0.36911 0.65851 0.0
H429 H 0.99879 0.3827 0.75558 0.0
H430 H 0.01798 0.47007 0.86942 0.0
H431 H 0.01908 0.43834 0.84366 0.0
C432 C 0.82954 1.00115 0.08231 0.0
C433 C 0.82015 0.98648 0.05369 0.0
C434 C 0.84783 1.00756 0.06513 0.0
C435 C 0.88437 0.00836 0.94073 0.0
H436 H 0.91611 0.01046 0.08811 0.0
C437 C 0.96313 0.01569 0.90976 0.0
C438 C 0.97363 0.0252 0.95383 0.0
C439 C 0.94414 0.01213 0.91808 0.0
C440 C 0.90751 0.01034 0.04611 0.0
H441 H 0.82223 0.96775 0.98199 0.0
H442 H 0.85412 0.97911 0.95138 0.0
H443 H 0.88346 1.00326 0.1078 0.0
H444 H 0.97249 0.03936 0.03913 0.0
H445 H 0.93958 0.03399 0.05212 0.0
H446 H 0.90839 0.01568 0.87885 0.0
C447 C 0.84738 0.98558 0.98736 0.0
C448 C 0.88873 1.00614 0.05757 0.0
C449 C 0.82917 0.979 0.00516 0.0
C450 C 0.96477 0.03173 0.00486 0.0
C451 C 0.94585 0.02849 0.0126 0.0
C452 C 0.9032 0.01284 0.92912 0.0
C453 C 0.85705 0.99961 0.01832 0.0
C454 C 0.87693 1.00502 0.00512 0.0
C455 C 0.93522 0.01832 0.97018 0.0
C456 C 0.91507 0.01384 0.98172 0.0
H457 H 0.82299 1.00711 0.12011 0.0
H458 H 0.85489 0.01852 0.08939 0.0
H459 H 0.87559 1.00768 0.89928 0.0
H460 H 0.96958 0.01067 0.86975 0.0
H461 H 0.93653 1.00414 0.88459 0.0
C462 C 0.52317 0.85828 0.33426 0.0
C463 C 0.52736 0.84209 0.31134 0.0
C464 C 0.51979 0.87368 0.2901 0.0
C465 C 0.53364 0.89724 0.12818 0.0
H466 H 0.49424 0.92617 0.14765 0.0
C467 C 0.53686 0.97557 0.03162 0.0
C468 C 0.52223 0.9812 0.99513 0.0
C469 C 0.53613 0.95724 0.06268 0.0
C470 C 0.5052 0.91812 0.14126 0.0
H471 H 0.53091 0.82908 0.22469 0.0
H472 H 0.52545 0.85629 0.14706 0.0
H473 H 0.49442 0.89614 0.21751 0.0
H474 H 0.49537 0.97211 0.96197 0.0
H475 H 0.49382 0.94002 0.01858 0.0
H476 H 0.5449 0.91963 0.05433 0.0
C477 C 0.52456 0.85693 0.19924 0.0
C478 C 0.50535 0.90102 0.18135 0.0
C479 C 0.52757 0.84137 0.24352 0.0
C480 C 0.50685 0.9681 0.98975 0.0
C481 C 0.50594 0.94982 0.02221 0.0
C482 C 0.53368 0.91449 0.08911 0.0
C483 C 0.52089 0.87332 0.22211 0.0
C484 C 0.51968 0.89052 0.17563 0.0
C485 C 0.52058 0.94425 0.05903 0.0
C486 C 0.51958 0.92519 0.0958 0.0
H487 H 0.52295 0.85916 0.38635 0.0
H488 H 0.51713 0.88618 0.30904 0.0
H489 H 0.54492 0.88951 0.12314 0.0
H490 H 0.54889 0.98538 0.03636 0.0
H491 H 0.54754 0.95334 0.09112 0.0
C492 C 0.71633 0.56014 0.9652 0.0
C493 C 0.7245 0.55276 0.02248 0.0
C494 C 0.69795 0.5547 0.95461 0.0
C495 C 0.65497 0.53632 0.04662 0.0
H496 H 0.63624 0.53173 0.87393 0.0
C497 C 0.57803 0.51808 0.00769 0.0
C498 C 0.57077 0.52776 0.95262 0.0
C499 C 0.59687 0.51931 0.01472 0.0
C500 C 0.64122 0.53313 0.92238 0.0
H501 H 0.71986 0.53326 0.11228 0.0
H502 H 0.68774 0.52356 0.09352 0.0
H503 H 0.66902 0.53638 0.88832 0.0
H504 H 0.57752 0.54606 0.86106 0.0
H505 H 0.61041 0.54847 0.87365 0.0
H506 H 0.62724 0.53345 0.08057 0.0
C507 C 0.69555 0.53376 0.05711 0.0
C508 C 0.66004 0.53575 0.93072 0.0
C509 C 0.71401 0.53915 0.06754 0.0
C510 C 0.58274 0.53845 0.90411 0.0
C511 C 0.60159 0.53972 0.91117 0.0
C512 C 0.63617 0.53374 0.03826 0.0
C513 C 0.68719 0.54176 0.00112 0.0
C514 C 0.66718 0.53755 0.99284 0.0
C515 C 0.60893 0.53028 0.96688 0.0
C516 C 0.62901 0.53227 0.97596 0.0
H517 H 0.72408 0.57052 0.92917 0.0
H518 H 0.69201 0.56126 0.91119 0.0
H519 H 0.65994 0.53797 0.09491 0.0
H520 H 0.56916 0.5096 0.04565 0.0
H521 H 0.60197 0.51159 0.05769 0.0
C522 C 0.99389 0.70424 0.07248 0.0
C523 C 1.00325 0.71085 0.12537 0.0
C524 C 0.9983 0.6885 0.04727 0.0
C525 C 0.01803 0.64525 0.09935 0.0
H526 H 0.01364 0.63871 0.91625 0.0
C527 C 0.00813 0.57211 0.01877 0.0
C528 C 0.01744 0.56923 0.96192 0.0
C529 C 0.0081 0.59006 0.0352 0.0
C530 C 0.01509 0.6403 0.9675 0.0
H531 H 0.02513 0.70644 0.19156 0.0
H532 H 0.03299 0.67892 0.14739 0.0
H533 H 0.01182 0.66926 0.94927 0.0
H534 H 0.03371 0.58316 0.87684 0.0
H535 H 0.03357 0.61467 0.90523 0.0
H536 H 0.02113 0.6163 0.11778 0.0
C537 C 0.0221 0.68589 0.12558 0.0
C538 C 0.01389 0.65783 0.9866 0.0
C539 C 0.01777 0.70182 0.15043 0.0
C540 C 0.02642 0.58488 0.921 0.0
C541 C 0.02629 0.60295 0.93726 0.0
C542 C 0.01909 0.62772 0.08035 0.0
C543 C 0.01214 0.67874 0.07458 0.0
C544 C 0.01512 0.66053 0.05298 0.0
C545 C 0.0173 0.60577 0.99514 0.0
C546 C 0.01737 0.62488 0.01428 0.0
H547 H 0.98257 0.71084 0.05226 0.0
H548 H 0.99019 0.68344 0.00852 0.0
H549 H 0.01887 0.64664 0.15094 0.0
H550 H 1.00097 0.56042 0.05131 0.0
H551 H 1.00071 0.59161 0.07936 0.0
C552 C 0.02774 0.22696 0.66829 0.0
C553 C 0.01449 0.23474 0.62969 0.0
C554 C 0.02393 0.20894 0.70265 0.0
C555 C 0.9969 0.16548 0.67778 0.0
H556 H 0.01781 0.14611 0.84016 0.0
C557 C 0.99737 0.08591 0.76296 0.0
C558 C 0.01349 0.08116 0.79172 0.0
C559 C 0.99468 0.10468 0.74878 0.0
C560 C 0.01196 0.15128 0.79446 0.0
H561 H 0.98657 0.23051 0.60029 0.0
H562 H 0.97977 0.19904 0.66105 0.0
H563 H 0.01734 0.17956 0.81306 0.0
H564 H 0.03978 0.09244 0.82468 0.0
H565 H 0.0353 0.12475 0.79878 0.0
H566 H 0.99227 0.1373 0.65771 0.0
C567 C 0.9931 0.20682 0.66473 0.0
C568 C 0.0116 0.17045 0.77922 0.0
C569 C 0.99687 0.22493 0.63094 0.0
C570 C 0.02707 0.09554 0.80344 0.0
C571 C 0.02444 0.11414 0.78914 0.0
C572 C 0.99736 0.14629 0.69285 0.0
C573 C 0.00686 0.19829 0.6982 0.0
C574 C 0.00447 0.17783 0.71996 0.0
C575 C 0.00807 0.119 0.763 0.0
C576 C 0.00538 0.13901 0.7505 0.0
H577 H 0.04153 0.23409 0.66666 0.0
H578 H 0.03488 0.20277 0.72759 0.0
H579 H 0.99153 0.17073 0.63126 0.0
H580 H 0.98661 0.07515 0.75369 0.0
H581 H 0.98192 0.10795 0.7285 0.0
C582 C 0.32736 0.01839 0.70235 0.0
C583 C 0.32087 0.03556 0.70155 0.0
C584 C 0.34212 0.01426 0.74053 0.0
C585 C 0.38223 0.0407 0.80366 0.0
H586 H 0.39515 0.99152 0.86089 0.0
C587 C 0.4536 0.03139 0.89376 0.0
C588 C 0.46233 0.01854 0.86438 0.0
C589 C 0.43492 0.03167 0.8883 0.0
C590 C 0.39171 1.00534 0.84509 0.0
H591 H 0.32347 0.06119 0.74363 0.0
H592 H 0.34851 0.05359 0.81369 0.0
H593 H 0.36383 0.99496 0.83167 0.0
H594 H 0.45804 0.99532 0.80887 0.0
H595 H 0.42531 0.99591 0.79899 0.0
H596 H 0.41006 0.05106 0.81611 0.0
C597 C 0.3427 0.04351 0.78332 0.0
C598 C 0.37376 1.00733 0.82831 0.0
C599 C 0.32814 0.04776 0.74424 0.0
C600 C 0.45176 1.00543 0.83187 0.0
C601 C 0.43299 1.00569 0.82654 0.0
C602 C 0.40003 0.03872 0.821 0.0
C603 C 0.35059 0.02721 0.77897 0.0
C604 C 0.36885 0.02503 0.80615 0.0
C605 C 0.42446 0.0191 0.85345 0.0
C606 C 0.40508 0.02102 0.84081 0.0
H607 H 0.32218 0.00898 0.66862 0.0
H608 H 0.34779 1.00165 0.73529 0.0
H609 H 0.37923 0.05453 0.78529 0.0
H610 H 0.46124 0.04158 0.91985 0.0
H611 H 0.4287 0.04199 0.91044 0.0
C612 C 0.53659 0.30728 0.48439 0.0
C613 C 0.52136 0.30379 0.44601 0.0
C614 C 0.53654 0.31961 0.53049 0.0
C615 C 0.51703 0.36181 0.53716 0.0
H616 H 0.54477 0.36509 0.69441 0.0
C617 C 0.55035 0.43135 0.60196 0.0
C618 C 0.54624 0.43547 0.66471 0.0
C619 C 0.5459 0.41336 0.58676 0.0
C620 C 0.53684 0.36425 0.6509 0.0
H621 H 0.49337 0.30829 0.43165 0.0
H622 H 0.49316 0.3296 0.5129 0.0
H623 H 0.5376 0.33488 0.65459 0.0
H624 H 0.53478 0.42359 0.76147 0.0
H625 H 0.52755 0.39193 0.73497 0.0
H626 H 0.5169 0.39118 0.53164 0.0
C627 C 0.50528 0.3232 0.50639 0.0
C628 C 0.53276 0.34704 0.62812 0.0
C629 C 0.50535 0.31095 0.46017 0.0
C630 C 0.53833 0.4209 0.71283 0.0
C631 C 0.53409 0.40279 0.69774 0.0
C632 C 0.52128 0.37894 0.55937 0.0
C633 C 0.52124 0.32856 0.53888 0.0
C634 C 0.52308 0.34574 0.5703 0.0
C635 C 0.53747 0.399 0.63413 0.0
C636 C 0.53156 0.3804 0.61548 0.0
H637 H 0.54914 0.30202 0.47419 0.0
H638 H 0.54906 0.32347 0.55465 0.0
H639 H 0.50983 0.36139 0.49188 0.0
H640 H 0.55683 0.44209 0.5642 0.0
H641 H 0.54892 0.41067 0.53761 0.0
C642 C 0.22184 0.54204 0.71014 0.0
C643 C 0.22488 0.52369 0.70563 0.0
C644 C 0.20587 0.54538 0.74089 0.0
C645 C 0.16987 0.54539 0.82586 0.0
H646 H 0.13107 0.52069 0.73153 0.0
C647 C 0.09201 0.53665 0.89063 0.0
C648 C 0.08056 0.54035 0.8378 0.0
C649 C 0.11075 0.53741 0.87983 0.0
C650 C 0.14176 0.52775 0.75802 0.0
H651 H 0.21485 0.49457 0.73619 0.0
H652 H 0.18704 0.5004 0.78969 0.0
H653 H 0.16242 0.51568 0.7123 0.0
H654 H 0.07992 0.54848 0.73263 0.0
H655 H 0.11266 0.54934 0.71363 0.0
H656 H 0.14892 0.55712 0.87267 0.0
C657 C 0.19686 0.51216 0.76916 0.0
C658 C 0.15965 0.52473 0.74756 0.0
C659 C 0.21282 0.50883 0.73905 0.0
C660 C 0.08837 0.54561 0.77431 0.0
C661 C 0.10707 0.54603 0.7634 0.0
C662 C 0.15181 0.54811 0.83747 0.0
C663 C 0.19278 0.53041 0.76711 0.0
C664 C 0.17388 0.53349 0.78132 0.0
C665 C 0.11837 0.54156 0.81589 0.0
C666 C 0.13762 0.53938 0.80323 0.0
H667 H 0.23081 0.55373 0.68412 0.0
H668 H 0.203 0.55958 0.73866 0.0
H669 H 0.18065 0.55237 0.85214 0.0
H670 H 0.08642 0.53264 0.94021 0.0
H671 H 0.11914 0.53381 0.92106 0.0
C672 C 0.02247 0.82341 0.07432 0.0
C673 C 0.03438 0.81707 0.12207 0.0
C674 C 0.02609 0.84147 0.03989 0.0
C675 C 0.0481 0.88657 0.07464 0.0
H676 H 0.03199 0.90459 0.90224 0.0
C677 C 0.04582 0.96534 0.98562 0.0
C678 C 0.03046 0.9695 0.95027 0.0
C679 C 0.04922 0.94682 0.00072 0.0
C680 C 0.03647 0.89978 0.95072 0.0
H681 H 0.0604 0.82363 0.16556 0.0
H682 H 0.06698 0.85496 0.10429 0.0
H683 H 0.03382 0.87144 0.93225 0.0
H684 H 0.00634 0.95728 0.90497 0.0
H685 H 0.01204 0.9254 0.93227 0.0
H686 H 0.05006 0.91473 0.09419 0.0
C687 C 0.05464 0.84623 0.09451 0.0
C688 C 0.0376 0.88079 0.96772 0.0
C689 C 0.05102 0.8282 0.12885 0.0
C690 C 0.01842 0.95472 0.93178 0.0
C691 C 0.02177 0.93634 0.94688 0.0
C692 C 0.04691 0.90555 0.05775 0.0
C693 C 0.0417 0.85346 0.05264 0.0
C694 C 0.04307 0.87388 0.03039 0.0
C695 C 0.03732 0.93211 0.98077 0.0
C696 C 0.04065 0.91234 0.99615 0.0
H697 H 0.00945 0.81523 0.06881 0.0
H698 H 0.01581 0.84657 0.00802 0.0
H699 H 0.05208 0.88171 0.12378 0.0
H700 H 0.05544 0.97638 0.00022 0.0
H701 H 0.06136 0.94407 0.02679 0.0
C702 C 0.71558 0.03491 0.02662 0.0
C703 C 0.72299 0.01829 0.02469 0.0
C704 C 0.70091 0.03894 0.98797 0.0
C705 C 0.66949 0.04556 0.89871 0.0
H706 H 0.63455 1.00077 0.91059 0.0
C707 C 0.58941 0.01906 0.84154 0.0
C708 C 0.58075 0.03213 0.86992 0.0
C709 C 0.60818 0.01914 0.84516 0.0
C710 C 0.64418 0.01342 0.9056 0.0
H711 H 0.72235 0.99403 0.97489 0.0
H712 H 0.69717 1.00139 0.90548 0.0
H713 H 0.66583 0.99834 0.93811 0.0
H714 H 0.58519 0.05594 0.92252 0.0
H715 H 0.618 0.05586 0.92997 0.0
H716 H 0.6474 0.06063 0.86881 0.0
C717 C 0.70229 0.01103 0.9385 0.0
C718 C 0.66222 0.01202 0.92114 0.0
C719 C 0.71693 1.00694 0.97753 0.0
C720 C 0.59142 0.04566 0.90027 0.0
C721 C 0.61025 0.0457 0.90409 0.0
C722 C 0.65135 0.04696 0.88333 0.0
C723 C 0.69342 0.02648 0.94616 0.0
C724 C 0.67507 0.02808 0.91918 0.0
C725 C 0.6188 0.03222 0.87756 0.0
C726 C 0.63842 0.03091 0.88777 0.0
H727 H 0.72012 0.04401 0.06216 0.0
H728 H 0.69451 0.05099 0.9953 0.0
H729 H 0.67904 0.05821 0.89595 0.0
H730 H 0.58168 0.00848 0.81742 0.0
H731 H 0.61435 0.00875 0.82329 0.0
C732 C 0.50962 0.73956 0.24406 0.0
C733 C 0.49775 0.74164 0.29518 0.0
C734 C 0.5039 0.72778 0.19825 0.0
C735 C 0.4715 0.68542 0.19706 0.0
H736 H 0.49381 0.68635 0.02515 0.0
C737 C 0.46589 0.61922 0.07562 0.0
C738 C 0.48284 0.61495 0.05587 0.0
C739 C 0.4641 0.63715 0.08864 0.0
C740 C 0.48738 0.68595 0.07296 0.0
H741 H 0.47025 0.73475 0.33542 0.0
H742 H 0.45989 0.71487 0.25358 0.0
H743 H 0.49652 0.71484 0.07585 0.0
H744 H 0.51084 0.6264 0.02942 0.0
H745 H 0.50782 0.65755 0.05331 0.0
H746 H 0.46292 0.65648 0.19542 0.0
C747 C 0.47379 0.72175 0.24984 0.0
C748 C 0.48896 0.70224 0.10207 0.0
C749 C 0.47961 0.73327 0.29626 0.0
C750 C 0.49769 0.62921 0.04571 0.0
C751 C 0.49589 0.64713 0.0585 0.0
C752 C 0.46982 0.66923 0.16783 0.0
C753 C 0.48615 0.71801 0.20257 0.0
C754 C 0.48155 0.70202 0.16549 0.0
C755 C 0.4792 0.65116 0.08187 0.0
C756 C 0.47824 0.66915 0.10646 0.0
H757 H 0.52373 0.74575 0.24288 0.0
H758 H 0.51387 0.72518 0.16301 0.0
H759 H 0.46588 0.68451 0.24638 0.0
H760 H 0.45421 0.60852 0.08391 0.0
H761 H 0.45103 0.6399 0.10602 0.0
C762 C 0.82592 0.49795 0.07532 0.0
C763 C 0.82002 0.51498 0.05092 0.0
C764 C 0.84091 0.49223 0.04608 0.0
C765 C 0.87479 0.50345 0.90562 0.0
H766 H 0.90901 0.49271 0.04175 0.0
C767 C 0.95224 0.51988 0.86134 0.0
C768 C 0.96381 0.50881 0.89739 0.0
C769 C 0.93343 0.51638 0.87257 0.0
C770 C 0.8996 0.49526 0.00284 0.0
H771 H 0.82398 0.53841 0.97304 0.0
H772 H 0.85009 0.52845 0.92178 0.0
H773 H 0.87742 0.49332 0.07164 0.0
H774 H 0.9645 0.48477 0.97139 0.0
H775 H 0.93157 0.47849 0.99052 0.0
H776 H 0.89721 0.50596 0.83697 0.0
C777 C 0.84316 0.51944 0.96333 0.0
C778 C 0.8814 0.4956 0.02004 0.0
C779 C 0.82812 0.52514 0.99253 0.0
C780 C 0.95602 0.49366 0.94313 0.0
C781 C 0.93713 0.49012 0.95429 0.0
C782 C 0.89302 0.50303 0.88835 0.0
C783 C 0.85033 0.50345 0.99195 0.0
C784 C 0.86884 0.50015 0.97184 0.0
C785 C 0.92562 0.50166 0.91999 0.0
C786 C 0.90577 0.49943 0.93693 0.0
H787 H 0.81984 0.48981 0.12012 0.0
H788 H 0.84583 0.47961 0.06842 0.0
H789 H 0.86543 0.5068 0.86725 0.0
H790 H 0.9577 0.53163 0.82539 0.0
H791 H 0.9251 0.52573 0.8458 0.0
C792 C 0.02515 0.24134 0.35239 0.0
C793 C 0.0372 0.24489 0.40261 0.0
C794 C 0.02797 0.22801 0.31161 0.0
C795 C 0.04982 0.18521 0.31944 0.0
H796 H 0.03779 0.1867 0.13643 0.0
C797 C 0.06251 0.1255 0.17546 0.0
C798 C 0.04965 0.12003 0.12981 0.0
C799 C 0.06161 0.1416 0.2044 0.0
C800 C 0.04103 0.18595 0.18776 0.0
H801 H 0.06227 0.23831 0.44649 0.0
H802 H 0.06756 0.21564 0.37438 0.0
H803 H 0.03576 0.21397 0.19127 0.0
H804 H 0.02587 0.12774 0.07832 0.0
H805 H 0.024 0.15545 0.13014 0.0
H806 H 0.05474 0.1572 0.31684 0.0
C807 C 0.05569 0.22273 0.36718 0.0
C808 C 0.03991 0.20166 0.21917 0.0
C809 C 0.05283 0.23594 0.40788 0.0
C810 C 0.0359 0.13128 0.11383 0.0
C811 C 0.03497 0.14739 0.14297 0.0
C812 C 0.05086 0.16955 0.28825 0.0
C813 C 0.0429 0.21796 0.32037 0.0
C814 C 0.04438 0.20154 0.28544 0.0
C815 C 0.04777 0.15276 0.18899 0.0
C816 C 0.04655 0.16965 0.22186 0.0
H817 H 0.0128 0.24776 0.34807 0.0
H818 H 0.0178 0.22471 0.27628 0.0
H819 H 0.05291 0.18435 0.37094 0.0
H820 H 0.07319 0.11717 0.18979 0.0
H821 H 0.0719 0.14534 0.2388 0.0
C822 C 0.34068 0.07954 0.47832 0.0
C823 C 0.32607 0.06557 0.47258 0.0
C824 C 0.35464 0.08391 0.43023 0.0
C825 C 0.36894 0.07721 0.26241 0.0
H826 H 0.41632 0.0765 0.33891 0.0
C827 C 0.4323 0.06433 0.11753 0.0
C828 C 0.44946 0.0733 0.13172 0.0
C829 C 0.41677 0.06599 0.15426 0.0
C830 C 0.40328 0.07711 0.31636 0.0
H831 H 0.31404 0.0462 0.40948 0.0
H832 H 0.33831 0.05396 0.32529 0.0
H833 H 0.3897 0.07583 0.40936 0.0
H834 H 0.46355 0.09142 0.19519 0.0
H835 H 0.43646 0.09483 0.25753 0.0
H836 H 0.38257 0.07826 0.16933 0.0
C837 C 0.33897 0.06156 0.36691 0.0
C838 C 0.38797 0.07672 0.35691 0.0
C839 C 0.325 0.05716 0.41512 0.0
C840 C 0.45058 0.08442 0.18238 0.0
C841 C 0.43504 0.08618 0.21881 0.0
C842 C 0.38431 0.07771 0.22166 0.0
C843 C 0.35429 0.07446 0.37522 0.0
C844 C 0.37059 0.07658 0.3306 0.0
C845 C 0.41796 0.07677 0.20594 0.0
C846 C 0.40166 0.07745 0.24824 0.0
H847 H 0.34175 0.08645 0.52161 0.0
H848 H 0.36607 0.0942 0.43738 0.0
H849 H 0.35575 0.07725 0.2406 0.0
H850 H 0.43085 0.05589 0.07818 0.0
H851 H 0.40391 0.0584 0.14322 0.0
C852 C 0.53906 0.32931 0.17842 0.0
C853 C 0.52346 0.31772 0.2058 0.0
C854 C 0.53751 0.34577 0.13642 0.0
C855 C 0.53166 0.37902 0.03695 0.0
H856 H 0.49214 0.40442 0.08669 0.0
C857 C 0.52306 0.45323 0.91106 0.0
C858 C 0.51699 0.46546 0.95087 0.0
C859 C 0.52276 0.43431 0.935 0.0
C860 C 0.50338 0.39766 0.07241 0.0
H861 H 0.49408 0.31343 0.20793 0.0
H862 H 0.49124 0.34148 0.13145 0.0
H863 H 0.49407 0.37301 0.13854 0.0
H864 H 0.50592 0.46739 0.04719 0.0
H865 H 0.50595 0.43471 0.0897 0.0
H866 H 0.5416 0.40422 0.97388 0.0
C867 C 0.50473 0.33838 0.14397 0.0
C868 C 0.5043 0.37938 0.10138 0.0
C869 C 0.5063 0.32212 0.18691 0.0
C870 C 0.51052 0.45832 0.01499 0.0
C871 C 0.51045 0.43948 0.03924 0.0
C872 C 0.53088 0.39744 0.00856 0.0
C873 C 0.52029 0.35087 0.12036 0.0
C874 C 0.51856 0.36981 0.08468 0.0
C875 C 0.51658 0.42717 0.99969 0.0
C876 C 0.51685 0.40713 0.02657 0.0
H877 H 0.55243 0.32637 0.1934 0.0
H878 H 0.54983 0.35501 0.12011 0.0
H879 H 0.54271 0.37211 0.02192 0.0
H880 H 0.52798 0.45824 0.86119 0.0
H881 H 0.5273 0.42529 0.90252 0.0
C882 C 0.21482 0.48655 0.50218 0.0
C883 C 0.22746 0.50281 0.48975 0.0
C884 C 0.20164 0.48243 0.45669 0.0
C885 C 0.18658 0.4949 0.28689 0.0
H886 H 0.13857 0.4841 0.37096 0.0
C887 C 0.12041 0.50144 0.1437 0.0
C888 C 0.10476 0.48883 0.165 0.0
C889 C 0.13633 0.50148 0.17937 0.0
C890 C 0.15184 0.48676 0.34646 0.0
H891 H 0.2371 0.52675 0.41777 0.0
H892 H 0.21411 0.5195 0.33789 0.0
H893 H 0.16522 0.48614 0.43777 0.0
H894 H 0.09384 0.46618 0.24048 0.0
H895 H 0.12167 0.4658 0.30097 0.0
H896 H 0.17309 0.49564 0.19536 0.0
C897 C 0.21441 0.50991 0.3828 0.0
C898 C 0.16717 0.48794 0.38493 0.0
C899 C 0.22763 0.51403 0.42845 0.0
C900 C 0.10562 0.47598 0.22204 0.0
C901 C 0.12156 0.47594 0.25739 0.0
C902 C 0.17119 0.49359 0.24823 0.0
C903 C 0.2008 0.49449 0.39771 0.0
C904 C 0.18473 0.4921 0.35572 0.0
C905 C 0.13706 0.48885 0.23711 0.0
C906 C 0.1536 0.4896 0.27758 0.0
H907 H 0.21449 0.47756 0.54879 0.0
H908 H 0.1916 0.47022 0.46898 0.0
H909 H 0.19993 0.49806 0.26294 0.0
H910 H 0.12038 0.51135 0.09946 0.0
H911 H 0.14792 0.51174 0.16247 0.0
C912 C 0.02537 0.81539 0.37979 0.0
C913 C 0.01099 0.80595 0.34852 0.0
C914 C 0.0221 0.82812 0.42194 0.0
C915 C 0.98855 0.85961 0.4485 0.0
H916 H 0.01852 0.87 0.59523 0.0
C917 C 0.97866 0.9197 0.59747 0.0
C918 C 0.99445 0.93036 0.61619 0.0
C919 C 0.9797 0.9033 0.57029 0.0
C920 C 0.01011 0.86741 0.55402 0.0
H921 H 0.98177 0.80169 0.34006 0.0
H922 H 0.97592 0.82362 0.41503 0.0
H923 H 0.02157 0.8426 0.54289 0.0
H924 H 0.02381 0.93203 0.61952 0.0
H925 H 0.02559 0.90355 0.5725 0.0
H926 H 0.9773 0.88456 0.45897 0.0
C927 C 0.98981 0.82139 0.40616 0.0
C928 C 0.01184 0.85162 0.52403 0.0
C929 C 0.99311 0.80855 0.36408 0.0
C930 C 0.0113 0.92409 0.6069 0.0
C931 C 0.01233 0.90769 0.57986 0.0
C932 C 0.98682 0.87538 0.47855 0.0
C933 C 0.00433 0.83184 0.43387 0.0
C934 C 1.00125 0.8476 0.47025 0.0
C935 C 0.99655 0.89703 0.5611 0.0
C936 C 0.99774 0.87966 0.53122 0.0
H937 H 0.03931 0.8138 0.36823 0.0
H938 H 0.03366 0.83591 0.44175 0.0
H939 H 0.98037 0.85724 0.40656 0.0
H940 H 0.9654 0.92384 0.60477 0.0
H941 H 0.96722 0.89538 0.55734 0.0
C942 C 0.71574 0.98053 0.29442 0.0
C943 C 0.72332 0.99819 0.26272 0.0
C944 C 0.70219 0.97887 0.34383 0.0
C945 C 0.66572 1.00451 0.38249 0.0
H946 H 0.65823 0.97025 0.5449 0.0
C947 C 0.60554 1.00621 0.55756 0.0
C948 C 0.59654 0.98934 0.59108 0.0
C949 C 0.62184 1.00671 0.52244 0.0
C950 C 0.66001 0.97973 0.49927 0.0
H951 H 0.72408 0.0279 0.26191 0.0
H952 H 0.70067 0.02505 0.34837 0.0
H953 H 0.68628 0.97212 0.47868 0.0
H954 H 0.59788 0.9597 0.61383 0.0
H955 H 0.62599 0.96047 0.55002 0.0
H956 H 0.63946 0.01178 0.40096 0.0
C957 C 0.70487 0.01248 0.33439 0.0
C958 C 0.67612 0.98086 0.46163 0.0
C959 C 0.71835 0.01412 0.2853 0.0
C960 C 0.60429 0.97293 0.58807 0.0
C961 C 0.62058 0.97341 0.55222 0.0
C962 C 0.64963 1.00325 0.41947 0.0
C963 C 0.69605 0.99487 0.362 0.0
C964 C 0.67921 0.99344 0.40323 0.0
C965 C 0.62953 0.99032 0.51871 0.0
C966 C 0.6466 0.99102 0.47877 0.0
H967 H 0.71922 0.96803 0.27749 0.0
H968 H 0.69563 0.96513 0.36428 0.0
H969 H 0.66748 0.01398 0.33679 0.0
H970 H 0.59992 0.01911 0.5577 0.0
H971 H 0.62844 0.02007 0.49831 0.0
C972 C 0.53458 0.72435 0.53837 0.0
C973 C 0.51696 0.72807 0.52258 0.0
C974 C 0.53714 0.7083 0.58089 0.0
C975 C 0.51597 0.67136 0.70832 0.0
H976 H 0.54376 0.63898 0.62657 0.0
C977 C 0.51308 0.59336 0.81074 0.0
C978 C 0.52809 0.58415 0.80065 0.0
C979 C 0.51295 0.6119 0.7829 0.0
C980 C 0.5363 0.64791 0.65119 0.0
H981 H 0.48825 0.71861 0.54139 0.0
H982 H 0.49272 0.69087 0.61779 0.0
H983 H 0.5417 0.67019 0.57119 0.0
H984 H 0.55507 0.58739 0.75568 0.0
H985 H 0.55528 0.61995 0.7097 0.0
H986 H 0.5108 0.64936 0.78896 0.0
C987 C 0.50452 0.70026 0.59684 0.0
C988 C 0.53507 0.66581 0.61907 0.0
C989 C 0.50196 0.7161 0.55327 0.0
C990 C 0.54322 0.59405 0.76376 0.0
C991 C 0.54325 0.61273 0.73695 0.0
C992 C 0.5175 0.65357 0.7412 0.0
C993 C 0.52212 0.69589 0.60935 0.0
C994 C 0.52469 0.67762 0.64683 0.0
C995 C 0.52799 0.62188 0.74518 0.0
C996 C 0.52744 0.64142 0.71263 0.0
H997 H 0.54635 0.73322 0.51463 0.0
H998 H 0.55084 0.70526 0.58993 0.0
H999 H 0.50796 0.68024 0.73092 0.0
H1000 H 0.50114 0.58608 0.83857 0.0
H1001 H 0.50078 0.61817 0.78957 0.0
C1002 C 0.82136 0.52833 0.30268 0.0
C1003 C 0.81843 0.54286 0.25357 0.0
C1004 C 0.83419 0.53138 0.35043 0.0
C1005 C 0.86564 0.56805 0.41804 0.0
H1006 H 0.89518 0.52805 0.45078 0.0
C1007 C 0.93773 0.57663 0.52681 0.0
C1008 C 0.94196 0.56198 0.57345 0.0
C1009 C 0.92138 0.57491 0.49356 0.0
C1010 C 0.88696 0.53927 0.44288 0.0
H1011 H 0.82589 0.57214 0.21744 0.0
H1012 H 0.84859 0.57748 0.29991 0.0
H1013 H 0.86838 0.52405 0.38535 0.0
H1014 H 0.93179 0.53437 0.62368 0.0
H1015 H 0.90355 0.53129 0.565 0.0
H1016 H 0.88481 0.58345 0.47416 0.0
C1017 C 0.84077 0.56379 0.30272 0.0
C1018 C 0.87148 0.53696 0.40554 0.0
C1019 C 0.82772 0.56078 0.25545 0.0
C1020 C 0.92924 0.54575 0.58694 0.0
C1021 C 0.91299 0.544 0.5535 0.0
C1022 C 0.88128 0.57042 0.45507 0.0
C1023 C 0.84465 0.54895 0.34936 0.0
C1024 C 0.86058 0.5513 0.39248 0.0
C1025 C 0.90894 0.55847 0.50596 0.0
C1026 C 0.89212 0.55605 0.46781 0.0
H1027 H 0.81435 0.51439 0.30212 0.0
H1028 H 0.83641 0.51973 0.38661 0.0
H1029 H 0.85752 0.57934 0.4096 0.0
H1030 H 0.94725 0.58925 0.51473 0.0
H1031 H 0.91873 0.58623 0.45674 0.0
loop_
_geom_bond_atom_site_label_1
_geom_bond_atom_site_label_2
_geom_bond_distance
_geom_bond_site_symmetry_2
_ccdc_geom_bond_type
H0 C1 0.949 . S
C1 H0 0.949 . S
C1 C2 1.395 . S
C1 C3 1.391 1_556 S
C2 C1 1.395 . S
C2 C5 1.390 1_556 S
C3 C1 1.391 1_554 S
C3 C7 1.387 . S
C3 C8 1.491 . S
H4 C5 0.950 . S
C5 C2 1.390 1_554 S
C5 H4 0.950 . S
C5 C6 1.378 . S
C6 C5 1.378 . S
C6 C7 1.409 . S
C7 C3 1.387 . S
C7 C6 1.409 . S
C7 H9 0.951 . S
C8 C3 1.491 . S
C8 C10 1.382 1_554 S
C8 C12 1.404 . S
H9 C7 0.951 . S
C10 C8 1.382 1_556 S
C10 C11 1.390 . S
C10 H15 0.949 . S
C11 C10 1.390 . S
C11 C16 1.399 1_556 S
C12 C8 1.404 . S
C12 H13 0.950 . S
C12 C14 1.375 . S
H13 C12 0.950 . S
C14 C12 1.375 . S
C14 C16 1.382 . S
C14 H18 0.950 . S
H15 C10 0.949 . S
C16 C11 1.399 1_554 S
C16 C14 1.382 . S
C16 H17 0.952 1_554 S
H17 C16 0.952 1_556 S
H18 C14 0.950 . S
H19 C20 0.949 . S
C20 H19 0.949 . S
C20 C21 1.395 . S
C20 C22 1.391 . S
C21 C20 1.395 . S
C21 C24 1.390 . S
C22 C20 1.391 . S
C22 C26 1.387 . S
C22 C27 1.491 . S
H23 C24 0.950 . S
C24 C21 1.390 . S
C24 H23 0.950 . S
C24 C25 1.378 . S
C25 C24 1.378 . S
C25 C26 1.409 . S
C26 C22 1.387 . S
C26 C25 1.409 . S
C26 H28 0.951 . S
C27 C22 1.491 . S
C27 C29 1.382 . S
C27 C31 1.404 . S
H28 C26 0.951 . S
C29 C27 1.382 . S
C29 C30 1.390 . S
C29 H34 0.949 . S
C30 C29 1.390 . S
C30 C35 1.399 . S
C31 C27 1.404 . S
C31 H32 0.950 . S
C31 C33 1.375 . S
H32 C31 0.950 . S
C33 C31 1.375 . S
C33 C35 1.382 . S
C33 H37 0.950 . S
H34 C29 0.949 . S
C35 C30 1.399 . S
C35 C33 1.382 . S
C35 H36 0.952 . S
H36 C35 0.952 . S
H37 C33 0.950 . S
H38 C39 0.949 1_556 S
C39 H38 0.949 1_554 S
C39 C40 1.395 . S
C39 C41 1.391 . S
C40 C39 1.395 . S
C40 C43 1.390 . S
C41 C39 1.391 . S
C41 C45 1.387 . S
C41 C46 1.491 . S
H42 C43 0.950 . S
C43 C40 1.390 . S
C43 H42 0.950 . S
C43 C44 1.378 . S
C44 C43 1.378 . S
C44 C45 1.409 . S
C45 C41 1.387 . S
C45 C44 1.409 . S
C45 H47 0.951 . S
C46 C41 1.491 . S
C46 C48 1.382 . S
C46 C50 1.404 . S
H47 C45 0.951 . S
C48 C46 1.382 . S
C48 C49 1.390 . S
C48 H53 0.949 1_554 S
C49 C48 1.390 . S
C49 C54 1.399 . S
C50 C46 1.404 . S
C50 H51 0.950 . S
C50 C52 1.375 . S
H51 C50 0.950 . S
C52 C50 1.375 . S
C52 C54 1.382 . S
C52 H56 0.950 . S
H53 C48 0.949 1_556 S
C54 C49 1.399 . S
C54 C52 1.382 . S
C54 H55 0.952 . S
H55 C54 0.952 . S
H56 C52 0.950 . S
H57 C58 0.949 . S
C58 H57 0.949 . S
C58 C59 1.395 . S
C58 C60 1.391 . S
C59 C58 1.395 . S
C59 C62 1.390 . S
C60 C58 1.391 . S
C60 C64 1.387 . S
C60 C65 1.491 . S
H61 C62 0.950 . S
C62 C59 1.390 . S
C62 H61 0.950 . S
C62 C63 1.378 . S
C63 C62 1.378 . S
C63 C64 1.409 . S
C64 C60 1.387 . S
C64 C63 1.409 . S
C64 H66 0.951 . S
C65 C60 1.491 . S
C65 C67 1.382 . S
C65 C69 1.404 . S
H66 C64 0.951 . S
C67 C65 1.382 . S
C67 C68 1.390 . S
C67 H72 0.949 . S
C68 C67 1.390 . S
C68 C73 1.399 . S
C69 C65 1.404 . S
C69 H70 0.950 . S
C69 C71 1.375 . S
H70 C69 0.950 . S
C71 C69 1.375 . S
C71 C73 1.382 . S
C71 H75 0.950 . S
H72 C67 0.949 . S
C73 C68 1.399 . S
C73 C71 1.382 . S
C73 H74 0.952 . S
H74 C73 0.952 . S
H75 C71 0.950 . S
H76 C77 0.949 . S
C77 H76 0.949 . S
C77 C78 1.395 . S
C77 C79 1.391 . S
C78 C77 1.395 . S
C78 C81 1.390 . S
C79 C77 1.391 . S
C79 C83 1.387 . S
C79 C84 1.491 . S
H80 C81 0.950 . S
C81 C78 1.390 . S
C81 H80 0.950 . S
C81 C82 1.378 . S
C82 C81 1.378 . S
C82 C83 1.409 . S
C83 C79 1.387 . S
C83 C82 1.409 . S
C83 H85 0.951 . S
C84 C79 1.491 . S
C84 C86 1.382 . S
C84 C88 1.404 . S
H85 C83 0.951 . S
C86 C84 1.382 . S
C86 C87 1.390 . S
C86 H91 0.949 . S
C87 C86 1.390 . S
C87 C92 1.399 . S
C88 C84 1.404 . S
C88 H89 0.950 . S
C88 C90 1.375 . S
H89 C88 0.950 . S
C90 C88 1.375 . S
C90 C92 1.382 . S
C90 H94 0.950 . S
H91 C86 0.949 . S
C92 C87 1.399 . S
C92 C90 1.382 . S
C92 H93 0.952 . S
H93 C92 0.952 . S
H94 C90 0.950 . S
H95 C96 0.949 . S
C96 H95 0.949 . S
C96 C97 1.395 . S
C96 C98 1.391 . S
C97 C96 1.395 . S
C97 C100 1.390 . S
C98 C96 1.391 . S
C98 C102 1.387 . S
C98 C103 1.491 . S
H99 C100 0.950 . S
C100 C97 1.390 . S
C100 H99 0.950 . S
C100 C101 1.378 . S
C101 C100 1.378 . S
C101 C102 1.409 . S
C102 C98 1.387 . S
C102 C101 1.409 . S
C102 H104 0.951 . S
C103 C98 1.491 . S
C103 C105 1.382 . S
C103 C107 1.404 . S
H104 C102 0.951 . S
C105 C103 1.382 . S
C105 C106 1.390 . S
C105 H110 0.949 . S
C106 C105 1.390 . S
C106 C111 1.399 . S
C107 C103 1.404 . S
C107 H108 0.950 . S
C107 C109 1.375 . S
H108 C107 0.950 . S
C109 C107 1.375 . S
C109 C111 1.382 . S
C109 H113 0.950 . S
H110 C105 0.949 . S
C111 C106 1.399 . S
C111 C109 1.382 . S
C111 H112 0.952 . S
H112 C111 0.952 . S
H113 C109 0.950 . S
H114 C115 0.949 . S
C115 H114 0.949 . S
C115 C116 1.395 . S
C115 C117 1.391 . S
C116 C115 1.395 . S
C116 C119 1.390 . S
C117 C115 1.391 . S
C117 C121 1.387 . S
C117 C122 1.491 . S
H118 C119 0.950 . S
C119 C116 1.390 . S
C119 H118 0.950 . S
C119 C120 1.378 . S
C120 C119 1.378 . S
C120 C121 1.409 . S
C121 C117 1.387 . S
C121 C120 1.409 . S
C121 H123 0.951 . S
C122 C117 1.491 . S
C122 C124 1.382 . S
C122 C126 1.404 . S
H123 C121 0.951 . S
C124 C122 1.382 . S
C124 C125 1.390 . S
C124 H129 0.949 . S
C125 C124 1.390 . S
C125 C130 1.399 . S
C126 C122 1.404 . S
C126 H127 0.950 . S
C126 C128 1.375 . S
H127 C126 0.950 . S
C128 C126 1.375 . S
C128 C130 1.382 . S
C128 H132 0.950 . S
H129 C124 0.949 . S
C130 C125 1.399 . S
C130 C128 1.382 . S
C130 H131 0.952 . S
H131 C130 0.952 . S
H132 C128 0.950 . S
H133 C134 0.949 . S
C134 H133 0.949 . S
C134 C135 1.395 . S
C134 C136 1.391 . S
C135 C134 1.395 . S
C135 C138 1.390 . S
C136 C134 1.391 . S
C136 C140 1.387 . S
C136 C141 1.491 . S
H137 C138 0.950 . S
C138 C135 1.390 . S
C138 H137 0.950 . S
C138 C139 1.378 . S
C139 C138 1.378 . S
C139 C140 1.409 . S
C140 C136 1.387 . S
C140 C139 1.409 . S
C140 H142 0.951 . S
C141 C136 1.491 . S
C141 C143 1.382 . S
C141 C145 1.404 . S
H142 C140 0.951 . S
C143 C141 1.382 . S
C143 C144 1.390 . S
C143 H148 0.949 . S
C144 C143 1.390 . S
C144 C149 1.399 . S
C145 C141 1.404 . S
C145 H146 0.950 . S
C145 C147 1.375 . S
H146 C145 0.950 . S
C147 C145 1.375 . S
C147 C149 1.382 . S
C147 H151 0.950 . S
H148 C143 0.949 . S
C149 C144 1.399 . S
C149 C147 1.382 . S
C149 H150 0.952 . S
H150 C149 0.952 . S
H151 C147 0.950 . S
Nd152 C154 2.836 1_545 S
Nd152 O172 2.500 1_445 S
Nd152 O173 2.492 1_545 S
Nd152 O174 2.487 . S
Nd152 O175 2.682 . S
Nd152 O176 2.410 1_545 S
Nd152 O181 2.414 1_455 S
Nd152 O183 2.424 . S
Nd153 C163 2.836 1_556 S
Nd153 O175 2.414 . S
Nd153 O177 2.424 1_545 S
Nd153 O178 2.500 . S
Nd153 O179 2.492 1_556 S
Nd153 O180 2.487 1_455 S
Nd153 O181 2.682 1_455 S
Nd153 O182 2.410 . S
C154 Nd152 2.836 1_565 S
C154 C155 1.498 . S
C154 O172 1.258 1_455 S
C154 O173 1.239 . S
C155 C154 1.498 . S
C155 C156 1.366 1_455 S
C155 C160 1.407 . S
C156 C155 1.366 1_655 S
C156 C157 1.392 . S
C156 H184 0.930 . S
C157 C156 1.392 . S
C157 C158 1.398 1_655 S
C157 H185 0.929 . S
C158 C157 1.398 1_455 S
C158 C159 1.352 . S
C159 C158 1.352 . S
C159 C160 1.384 . S
C159 H186 0.930 . S
C160 C155 1.407 . S
C160 C159 1.384 . S
C160 H187 0.929 . S
C161 O174 1.241 . S
C161 O175 1.273 . S
C162 O176 1.251 . S
C162 O177 1.268 . S
C163 Nd153 2.836 1_554 S
C163 C164 1.498 . S
C163 O178 1.258 1_554 S
C163 O179 1.239 . S
C164 C163 1.498 . S
C164 C165 1.366 . S
C164 C169 1.407 . S
C165 C164 1.366 . S
C165 C166 1.392 . S
C165 H188 0.930 . S
C166 C165 1.392 . S
C166 C167 1.398 . S
C166 H189 0.929 . S
C167 C166 1.398 . S
C167 C168 1.352 . S
C168 C167 1.352 . S
C168 C169 1.384 . S
C168 H190 0.930 . S
C169 C164 1.407 . S
C169 C168 1.384 . S
C169 H191 0.929 . S
C170 O180 1.241 . S
C170 O181 1.273 . S
C171 O182 1.251 . S
C171 O183 1.268 . S
O172 Nd152 2.500 1_665 S
O172 C154 1.258 1_655 S
O173 Nd152 2.492 1_565 S
O173 C154 1.239 . S
O174 Nd152 2.487 . S
O174 C161 1.241 . S
O175 Nd152 2.682 . S
O175 Nd153 2.414 . S
O175 C161 1.273 . S
O176 Nd152 2.410 1_565 S
O176 C162 1.251 . S
O177 Nd153 2.424 1_565 S
O177 C162 1.268 . S
O178 Nd153 2.500 . S
O178 C163 1.258 1_556 S
O179 Nd153 2.492 1_554 S
O179 C163 1.239 . S
O180 Nd153 2.487 1_655 S
O180 C170 1.241 . S
O181 Nd152 2.414 1_655 S
O181 Nd153 2.682 1_655 S
O181 C170 1.273 . S
O182 Nd153 2.410 . S
O182 C171 1.251 . S
O183 Nd152 2.424 . S
O183 C171 1.268 . S
H184 C156 0.930 . S
H185 C157 0.929 . S
H186 C159 0.930 . S
H187 C160 0.929 . S
H188 C165 0.930 . S
H189 C166 0.929 . S
H190 C168 0.930 . S
H191 C169 0.929 . S
Nd192 C194 2.814 1_545 S
Nd192 O212 2.500 1_545 S
Nd192 O213 2.492 . S
Nd192 O214 2.487 . S
Nd192 O215 2.682 . S
Nd192 O216 2.410 . S
Nd192 O221 2.414 1_545 S
Nd192 O223 2.424 . S
Nd193 C203 2.836 1_556 S
Nd193 O215 2.414 . S
Nd193 O217 2.424 . S
Nd193 O218 2.500 . S
Nd193 O219 2.492 1_556 S
Nd193 O220 2.487 1_545 S
Nd193 O221 2.682 1_545 S
Nd193 O222 2.410 . S
C194 Nd192 2.814 1_565 S
C194 C195 1.520 . S
C194 O212 1.278 . S
C194 O213 1.199 1_565 S
C195 C194 1.520 . S
C195 C196 1.366 . S
C195 C200 1.407 1_565 S
C196 C195 1.366 . S
C196 C197 1.392 . S
C196 H224 0.930 . S
C197 C196 1.392 . S
C197 C198 1.398 . S
C197 H225 0.929 . S
C198 C197 1.398 . S
C198 C199 1.352 . S
C199 C198 1.352 . S
C199 C200 1.384 1_565 S
C199 H226 0.930 1_565 S
C200 C195 1.407 1_545 S
C200 C199 1.384 1_545 S
C200 H227 0.929 . S
C201 O214 1.241 . S
C201 O215 1.273 . S
C202 O216 1.251 . S
C202 O217 1.268 . S
C203 Nd193 2.836 1_554 S
C203 C204 1.498 . S
C203 O218 1.258 1_554 S
C203 O219 1.239 . S
C204 C203 1.498 . S
C204 C205 1.366 . S
C204 C209 1.407 . S
C205 C204 1.366 . S
C205 C206 1.392 . S
C205 H228 0.930 1_554 S
C206 C205 1.392 . S
C206 C207 1.398 . S
C206 H229 0.929 . S
C207 C206 1.398 . S
C207 C208 1.352 . S
C208 C207 1.352 . S
C208 C209 1.384 . S
C208 H230 0.930 . S
C209 C204 1.407 . S
C209 C208 1.384 . S
C209 H231 0.929 . S
C210 O220 1.241 . S
C210 O221 1.273 . S
C211 O222 1.251 . S
C211 O223 1.268 . S
O212 Nd192 2.500 1_565 S
O212 C194 1.278 . S
O213 Nd192 2.492 . S
O213 C194 1.199 1_545 S
O214 Nd192 2.487 . S
O214 C201 1.241 . S
O215 Nd192 2.682 . S
O215 Nd193 2.414 . S
O215 C201 1.273 . S
O216 Nd192 2.410 . S
O216 C202 1.251 . S
O217 Nd193 2.424 . S
O217 C202 1.268 . S
O218 Nd193 2.500 . S
O218 C203 1.258 1_556 S
O219 Nd193 2.492 1_554 S
O219 C203 1.239 . S
O220 Nd193 2.487 1_565 S
O220 C210 1.241 . S
O221 Nd192 2.414 1_565 S
O221 Nd193 2.682 1_565 S
O221 C210 1.273 . S
O222 Nd193 2.410 . S
O222 C211 1.251 . S
O223 Nd192 2.424 . S
O223 C211 1.268 . S
H224 C196 0.930 . S
H225 C197 0.929 . S
H226 C199 0.930 1_545 S
H227 C200 0.929 . S
H228 C205 0.930 1_556 S
H229 C206 0.929 . S
H230 C208 0.930 . S
H231 C209 0.929 . S
Nd232 C234 2.836 . S
Nd232 O252 2.500 . S
Nd232 O253 2.496 . S
Nd232 O254 2.487 . S
Nd232 O255 2.682 . S
Nd232 O256 2.410 . S
Nd232 O261 2.414 . S
Nd232 O263 2.424 . S
Nd233 C243 2.836 . S
Nd233 O255 2.414 . S
Nd233 O257 2.424 . S
Nd233 O258 2.500 . S
Nd233 O259 2.492 . S
Nd233 O260 2.487 . S
Nd233 O261 2.682 . S
Nd233 O262 2.410 . S
C234 Nd232 2.836 . S
C234 C235 1.498 1_556 S
C234 O252 1.258 . S
C234 O253 1.240 . S
C235 C234 1.498 1_554 S
C235 C236 1.366 1_554 S
C235 C240 1.407 . S
C236 C235 1.366 1_556 S
C236 C237 1.392 1_556 S
C236 H264 0.930 . S
C237 C236 1.392 1_554 S
C237 C238 1.398 . S
C237 H265 0.927 1_554 S
C238 C237 1.398 . S
C238 C239 1.352 . S
C239 C238 1.352 . S
C239 C240 1.384 . S
C239 H266 0.930 . S
C240 C235 1.407 . S
C240 C239 1.384 . S
C240 H267 0.929 . S
C241 O254 1.241 . S
C241 O255 1.273 . S
C242 O256 1.251 . S
C242 O257 1.268 . S
C243 Nd233 2.836 . S
C243 C244 1.498 . S
C243 O258 1.258 . S
C243 O259 1.239 . S
C244 C243 1.498 . S
C244 C245 1.366 . S
C244 C249 1.407 . S
C245 C244 1.366 . S
C245 C246 1.392 . S
C245 H268 0.930 . S
C246 C245 1.392 . S
C246 C247 1.398 . S
C246 H269 0.929 . S
C247 C246 1.398 . S
C247 C248 1.352 . S
C248 C247 1.352 . S
C248 C249 1.384 . S
C248 H270 0.930 . S
C249 C244 1.407 . S
C249 C248 1.384 . S
C249 H271 0.929 . S
C250 O260 1.241 . S
C250 O261 1.273 . S
C251 O262 1.251 . S
C251 O263 1.268 . S
O252 Nd232 2.500 . S
O252 C234 1.258 . S
O253 Nd232 2.496 . S
O253 C234 1.240 . S
O254 Nd232 2.487 . S
O254 C241 1.241 . S
O255 Nd232 2.682 . S
O255 Nd233 2.414 . S
O255 C241 1.273 . S
O256 Nd232 2.410 . S
O256 C242 1.251 . S
O257 Nd233 2.424 . S
O257 C242 1.268 . S
O258 Nd233 2.500 . S
O258 C243 1.258 . S
O259 Nd233 2.492 . S
O259 C243 1.239 . S
O260 Nd233 2.487 . S
O260 C250 1.241 . S
O261 Nd232 2.414 . S
O261 Nd233 2.682 . S
O261 C250 1.273 . S
O262 Nd233 2.410 . S
O262 C251 1.251 . S
O263 Nd232 2.424 . S
O263 C251 1.268 . S
H264 C236 0.930 . S
H265 C237 0.927 1_556 S
H266 C239 0.930 . S
H267 C240 0.929 . S
H268 C245 0.930 . S
H269 C246 0.929 . S
H270 C248 0.930 . S
H271 C249 0.929 . S
Nd272 C274 2.836 1_455 S
Nd272 O292 2.500 1_455 S
Nd272 O293 2.492 1_455 S
Nd272 O294 2.487 . S
Nd272 O295 2.682 . S
Nd272 O296 2.410 1_455 S
Nd272 O301 2.414 . S
Nd272 O303 2.424 . S
Nd273 C283 2.836 1_556 S
Nd273 O295 2.414 . S
Nd273 O297 2.424 1_455 S
Nd273 O298 2.500 1_556 S
Nd273 O299 2.492 1_556 S
Nd273 O300 2.487 . S
Nd273 O301 2.682 . S
Nd273 O302 2.410 . S
C274 Nd272 2.836 1_655 S
C274 C275 1.498 . S
C274 O292 1.258 . S
C274 O293 1.239 . S
C275 C274 1.498 . S
C275 C276 1.366 . S
C275 C280 1.407 . S
C276 C275 1.366 . S
C276 C277 1.392 . S
C276 H304 0.930 . S
C277 C276 1.392 . S
C277 C278 1.398 . S
C277 H305 0.929 . S
C278 C277 1.398 . S
C278 C279 1.352 . S
C279 C278 1.352 . S
C279 C280 1.384 . S
C279 H306 0.930 . S
C280 C275 1.407 . S
C280 C279 1.384 . S
C280 H307 0.929 . S
C281 O294 1.241 . S
C281 O295 1.273 . S
C282 O296 1.251 . S
C282 O297 1.268 . S
C283 Nd273 2.836 1_554 S
C283 C284 1.498 . S
C283 O298 1.258 . S
C283 O299 1.239 . S
C284 C283 1.498 . S
C284 C285 1.366 . S
C284 C289 1.407 . S
C285 C284 1.366 . S
C285 C286 1.392 . S
C285 H308 0.930 . S
C286 C285 1.392 . S
C286 C287 1.398 . S
C286 H309 0.929 . S
C287 C286 1.398 . S
C287 C288 1.352 . S
C288 C287 1.352 . S
C288 C289 1.384 . S
C288 H310 0.930 . S
C289 C284 1.407 . S
C289 C288 1.384 . S
C289 H311 0.929 . S
C290 O300 1.241 . S
C290 O301 1.273 . S
C291 O302 1.251 . S
C291 O303 1.268 . S
O292 Nd272 2.500 1_655 S
O292 C274 1.258 . S
O293 Nd272 2.492 1_655 S
O293 C274 1.239 . S
O294 Nd272 2.487 . S
O294 C281 1.241 . S
O295 Nd272 2.682 . S
O295 Nd273 2.414 . S
O295 C281 1.273 . S
O296 Nd272 2.410 1_655 S
O296 C282 1.251 . S
O297 Nd273 2.424 1_655 S
O297 C282 1.268 . S
O298 Nd273 2.500 1_554 S
O298 C283 1.258 . S
O299 Nd273 2.492 1_554 S
O299 C283 1.239 . S
O300 Nd273 2.487 . S
O300 C290 1.241 . S
O301 Nd272 2.414 . S
O301 Nd273 2.682 . S
O301 C290 1.273 . S
O302 Nd273 2.410 . S
O302 C291 1.251 . S
O303 Nd272 2.424 . S
O303 C291 1.268 . S
H304 C276 0.930 . S
H305 C277 0.929 . S
H306 C279 0.930 . S
H307 C280 0.929 . S
H308 C285 0.930 . S
H309 C286 0.929 . S
H310 C288 0.930 . S
H311 C289 0.929 . S
C312 C313 1.349 . S
C312 C314 1.327 . S
C312 H337 0.950 . S
C313 C312 1.349 . S
C313 C329 1.349 . S
C314 C312 1.327 . S
C314 C333 1.429 . S
C314 H338 0.950 . S
C315 C332 1.574 . S
C315 C334 1.368 . S
C315 H339 0.949 . S
H316 C320 0.949 . S
C317 C318 1.349 . S
C317 C319 1.327 . S
C317 H340 0.950 . S
C318 C317 1.349 . S
C318 C330 1.349 . S
C319 C317 1.327 . S
C319 C335 1.429 . S
C319 H341 0.950 . S
C320 H316 0.949 . S
C320 C328 1.574 . S
C320 C336 1.368 . S
H321 C329 0.950 . S
H322 C327 0.950 . S
H323 C328 0.949 . S
H324 C330 0.950 . S
H325 C331 0.950 . S
H326 C332 0.949 . S
C327 H322 0.950 . S
C327 C329 1.327 . S
C327 C333 1.429 . S
C328 C320 1.574 . S
C328 H323 0.949 . S
C328 C334 1.368 . S
C329 C313 1.349 . S
C329 H321 0.950 . S
C329 C327 1.327 . S
C330 C318 1.349 . S
C330 H324 0.950 . S
C330 C331 1.327 . S
C331 H325 0.950 . S
C331 C330 1.327 . S
C331 C335 1.429 . S
C332 C315 1.574 . S
C332 H326 0.949 . S
C332 C336 1.368 . S
C333 C314 1.429 . S
C333 C327 1.429 . S
C333 C334 1.523 . S
C334 C315 1.368 . S
C334 C328 1.368 . S
C334 C333 1.523 . S
C335 C319 1.429 . S
C335 C331 1.429 . S
C335 C336 1.523 . S
C336 C320 1.368 . S
C336 C332 1.368 . S
C336 C335 1.523 . S
H337 C312 0.950 . S
H338 C314 0.950 . S
H339 C315 0.949 . S
H340 C317 0.950 . S
H341 C319 0.950 . S
C342 C343 1.349 . S
C342 C344 1.327 . S
C342 H367 0.950 . S
C343 C342 1.349 . S
C343 C359 1.349 . S
C344 C342 1.327 . S
C344 C363 1.429 . S
C344 H368 0.950 . S
C345 C362 1.574 . S
C345 C364 1.368 . S
C345 H369 0.949 . S
H346 C350 0.949 . S
C347 C348 1.349 . S
C347 C349 1.327 . S
C347 H370 0.950 . S
C348 C347 1.349 . S
C348 C360 1.349 . S
C349 C347 1.327 . S
C349 C365 1.429 . S
C349 H371 0.950 . S
C350 H346 0.949 . S
C350 C358 1.574 . S
C350 C366 1.368 . S
H351 C359 0.950 . S
H352 C357 0.950 . S
H353 C358 0.949 . S
H354 C360 0.950 . S
H355 C361 0.950 . S
H356 C362 0.949 . S
C357 H352 0.950 . S
C357 C359 1.327 . S
C357 C363 1.429 . S
C358 C350 1.574 . S
C358 H353 0.949 . S
C358 C364 1.368 . S
C359 C343 1.349 . S
C359 H351 0.950 . S
C359 C357 1.327 . S
C360 C348 1.349 . S
C360 H354 0.950 . S
C360 C361 1.327 . S
C361 H355 0.950 . S
C361 C360 1.327 . S
C361 C365 1.429 . S
C362 C345 1.574 . S
C362 H356 0.949 . S
C362 C366 1.368 . S
C363 C344 1.429 . S
C363 C357 1.429 . S
C363 C364 1.523 . S
C364 C345 1.368 . S
C364 C358 1.368 . S
C364 C363 1.523 . S
C365 C349 1.429 . S
C365 C361 1.429 . S
C365 C366 1.523 . S
C366 C350 1.368 . S
C366 C362 1.368 . S
C366 C365 1.523 . S
H367 C342 0.950 . S
H368 C344 0.950 . S
H369 C345 0.949 . S
H370 C347 0.950 . S
H371 C349 0.950 . S
C372 C373 1.349 . S
C372 C374 1.327 . S
C372 H397 0.950 . S
C373 C372 1.349 . S
C373 C389 1.349 . S
C374 C372 1.327 . S
C374 C393 1.429 . S
C374 H398 0.950 . S
C375 C392 1.574 . S
C375 C394 1.368 . S
C375 H399 0.949 . S
H376 C380 0.949 . S
C377 C378 1.349 . S
C377 C379 1.327 . S
C377 H400 0.950 . S
C378 C377 1.349 . S
C378 C390 1.349 . S
C379 C377 1.327 . S
C379 C395 1.429 . S
C379 H401 0.950 . S
C380 H376 0.949 . S
C380 C388 1.574 . S
C380 C396 1.368 . S
H381 C389 0.950 . S
H382 C387 0.950 . S
H383 C388 0.949 . S
H384 C390 0.950 . S
H385 C391 0.950 . S
H386 C392 0.949 . S
C387 H382 0.950 . S
C387 C389 1.327 . S
C387 C393 1.429 . S
C388 C380 1.574 . S
C388 H383 0.949 . S
C388 C394 1.368 . S
C389 C373 1.349 . S
C389 H381 0.950 . S
C389 C387 1.327 . S
C390 C378 1.349 . S
C390 H384 0.950 . S
C390 C391 1.327 . S
C391 H385 0.950 . S
C391 C390 1.327 . S
C391 C395 1.429 . S
C392 C375 1.574 . S
C392 H386 0.949 . S
C392 C396 1.368 . S
C393 C374 1.429 . S
C393 C387 1.429 . S
C393 C394 1.523 . S
C394 C375 1.368 . S
C394 C388 1.368 . S
C394 C393 1.523 . S
C395 C379 1.429 . S
C395 C391 1.429 . S
C395 C396 1.523 . S
C396 C380 1.368 . S
C396 C392 1.368 . S
C396 C395 1.523 . S
H397 C372 0.950 . S
H398 C374 0.950 . S
H399 C375 0.949 . S
H400 C377 0.950 . S
H401 C379 0.950 . S
C402 C403 1.349 . S
C402 C404 1.327 . S
C402 H427 0.950 . S
C403 C402 1.349 . S
C403 C419 1.349 . S
C404 C402 1.327 . S
C404 C423 1.429 . S
C404 H428 0.950 . S
C405 C422 1.574 . S
C405 C424 1.368 . S
C405 H429 0.949 . S
H406 C410 0.949 . S
C407 C408 1.349 . S
C407 C409 1.327 . S
C407 H430 0.950 . S
C408 C407 1.349 . S
C408 C420 1.349 . S
C409 C407 1.327 . S
C409 C425 1.429 . S
C409 H431 0.950 . S
C410 H406 0.949 . S
C410 C418 1.574 . S
C410 C426 1.368 . S
H411 C419 0.950 . S
H412 C417 0.950 . S
H413 C418 0.949 . S
H414 C420 0.950 . S
H415 C421 0.950 . S
H416 C422 0.949 . S
C417 H412 0.950 . S
C417 C419 1.327 . S
C417 C423 1.429 . S
C418 C410 1.574 . S
C418 H413 0.949 . S
C418 C424 1.368 . S
C419 C403 1.349 . S
C419 H411 0.950 . S
C419 C417 1.327 . S
C420 C408 1.349 . S
C420 H414 0.950 . S
C420 C421 1.327 . S
C421 H415 0.950 . S
C421 C420 1.327 . S
C421 C425 1.429 . S
C422 C405 1.574 . S
C422 H416 0.949 . S
C422 C426 1.368 . S
C423 C404 1.429 . S
C423 C417 1.429 . S
C423 C424 1.523 . S
C424 C405 1.368 . S
C424 C418 1.368 . S
C424 C423 1.523 . S
C425 C409 1.429 . S
C425 C421 1.429 . S
C425 C426 1.523 . S
C426 C410 1.368 . S
C426 C422 1.368 . S
C426 C425 1.523 . S
H427 C402 0.950 . S
H428 C404 0.950 . S
H429 C405 0.949 . S
H430 C407 0.950 . S
H431 C409 0.950 . S
C432 C433 1.349 1_554 S
C432 C434 1.327 . S
C432 H457 0.950 . S
C433 C432 1.349 1_556 S
C433 C449 1.349 . S
C434 C432 1.327 . S
C434 C453 1.429 1_554 S
C434 H458 0.950 . S
C435 C452 1.574 . S
C435 C454 1.368 . S
C435 H459 0.949 . S
H436 C440 0.949 1_554 S
C437 C438 1.331 1_565 S
C437 C439 1.335 . S
C437 H460 0.963 . S
C438 C437 1.331 1_545 S
C438 C450 1.349 . S
C439 C437 1.335 . S
C439 C455 1.429 . S
C439 H461 0.950 . S
C440 H436 0.949 1_556 S
C440 C448 1.574 1_556 S
C440 C456 1.368 . S
H441 C449 0.950 . S
H442 C447 0.950 . S
H443 C448 0.949 . S
H444 C450 0.950 . S
H445 C451 0.964 1_554 S
H446 C452 0.949 . S
C447 H442 0.950 . S
C447 C449 1.327 . S
C447 C453 1.429 . S
C448 C440 1.574 1_554 S
C448 H443 0.949 . S
C448 C454 1.368 1_554 S
C449 C433 1.349 . S
C449 H441 0.950 . S
C449 C447 1.327 . S
C450 C438 1.349 . S
C450 H444 0.950 . S
C450 C451 1.335 . S
C451 H445 0.964 1_556 S
C451 C450 1.335 . S
C451 C455 1.410 1_545 S
C452 C435 1.574 . S
C452 H446 0.949 . S
C452 C456 1.368 . S
C453 C434 1.429 1_556 S
C453 C447 1.429 . S
C453 C454 1.523 . S
C454 C435 1.368 . S
C454 C448 1.368 1_556 S
C454 C453 1.523 . S
C455 C439 1.429 . S
C455 C451 1.410 1_565 S
C455 C456 1.523 . S
C456 C440 1.368 . S
C456 C452 1.368 . S
C456 C455 1.523 . S
H457 C432 0.950 . S
H458 C434 0.950 . S
H459 C435 0.949 . S
H460 C437 0.963 . S
H461 C439 0.950 . S
C462 C463 1.349 . S
C462 C464 1.327 . S
C462 H487 0.950 . S
C463 C462 1.349 . S
C463 C479 1.349 . S
C464 C462 1.327 . S
C464 C483 1.429 . S
C464 H488 0.950 . S
C465 C482 1.574 . S
C465 C484 1.368 . S
C465 H489 0.949 . S
H466 C470 0.949 . S
C467 C468 1.349 . S
C467 C469 1.327 . S
C467 H490 0.950 . S
C468 C467 1.349 . S
C468 C480 1.349 . S
C469 C467 1.327 . S
C469 C485 1.429 1_556 S
C469 H491 0.950 . S
C470 H466 0.949 . S
C470 C478 1.574 . S
C470 C486 1.368 . S
H471 C479 0.950 . S
H472 C477 0.950 . S
H473 C478 0.949 . S
H474 C480 0.950 . S
H475 C481 0.950 . S
H476 C482 0.949 . S
C477 H472 0.950 . S
C477 C479 1.327 . S
C477 C483 1.429 . S
C478 C470 1.574 . S
C478 H473 0.949 . S
C478 C484 1.368 . S
C479 C463 1.349 . S
C479 H471 0.950 . S
C479 C477 1.327 . S
C480 C468 1.349 . S
C480 H474 0.950 . S
C480 C481 1.327 1_556 S
C481 H475 0.950 . S
C481 C480 1.327 1_554 S
C481 C485 1.429 . S
C482 C465 1.574 . S
C482 H476 0.949 . S
C482 C486 1.368 . S
C483 C464 1.429 . S
C483 C477 1.429 . S
C483 C484 1.523 . S
C484 C465 1.368 . S
C484 C478 1.368 . S
C484 C483 1.523 . S
C485 C469 1.429 1_554 S
C485 C481 1.429 . S
C485 C486 1.523 . S
C486 C470 1.368 . S
C486 C482 1.368 . S
C486 C485 1.523 . S
H487 C462 0.950 . S
H488 C464 0.950 . S
H489 C465 0.949 . S
H490 C467 0.950 . S
H491 C469 0.950 . S
C492 C493 1.349 . S
C492 C494 1.327 . S
C492 H517 0.950 . S
C493 C492 1.349 . S
C493 C509 1.349 . S
C494 C492 1.327 . S
C494 C513 1.429 . S
C494 H518 0.950 . S
C495 C512 1.574 . S
C495 C514 1.368 . S
C495 H519 0.949 1_556 S
H496 C500 0.949 . S
C497 C498 1.349 . S
C497 C499 1.327 . S
C497 H520 0.950 . S
C498 C497 1.349 . S
C498 C510 1.349 . S
C499 C497 1.327 . S
C499 C515 1.429 . S
C499 H521 0.950 . S
C500 H496 0.949 . S
C500 C508 1.574 . S
C500 C516 1.368 . S
H501 C509 0.950 1_554 S
H502 C507 0.950 1_554 S
H503 C508 0.949 . S
H504 C510 0.950 . S
H505 C511 0.950 . S
H506 C512 0.949 . S
C507 H502 0.950 1_556 S
C507 C509 1.327 . S
C507 C513 1.429 . S
C508 C500 1.574 . S
C508 H503 0.949 . S
C508 C514 1.368 . S
C509 C493 1.349 . S
C509 H501 0.950 1_556 S
C509 C507 1.327 . S
C510 C498 1.349 . S
C510 H504 0.950 . S
C510 C511 1.327 . S
C511 H505 0.950 . S
C511 C510 1.327 . S
C511 C515 1.429 . S
C512 C495 1.574 . S
C512 H506 0.949 . S
C512 C516 1.368 . S
C513 C494 1.429 . S
C513 C507 1.429 . S
C513 C514 1.523 . S
C514 C495 1.368 . S
C514 C508 1.368 . S
C514 C513 1.523 . S
C515 C499 1.429 . S
C515 C511 1.429 . S
C515 C516 1.523 . S
C516 C500 1.368 . S
C516 C512 1.368 . S
C516 C515 1.523 . S
H517 C492 0.950 . S
H518 C494 0.950 . S
H519 C495 0.949 1_554 S
H520 C497 0.950 . S
H521 C499 0.950 . S
C522 C523 1.349 1_456 S
C522 C524 1.327 . S
C522 H547 0.950 . S
C523 C522 1.349 1_654 S
C523 C539 1.349 . S
C524 C522 1.327 . S
C524 C543 1.429 1_455 S
C524 H548 0.950 . S
C525 C542 1.574 . S
C525 C544 1.358 1_654 S
C525 H549 0.949 . S
H526 C530 0.949 . S
C527 C528 1.349 . S
C527 C529 1.327 . S
C527 H550 0.940 1_455 S
C528 C527 1.349 . S
C528 C540 1.349 . S
C529 C527 1.327 . S
C529 C545 1.429 . S
C529 H551 0.950 1_456 S
C530 H526 0.949 . S
C530 C538 1.574 . S
C530 C546 1.368 . S
H531 C539 0.950 . S
H532 C537 0.950 . S
H533 C538 0.949 . S
H534 C540 0.950 . S
H535 C541 0.950 . S
H536 C542 0.949 . S
C537 H532 0.950 . S
C537 C539 1.327 . S
C537 C543 1.429 1_554 S
C538 C530 1.574 . S
C538 H533 0.949 . S
C538 C544 1.385 . S
C539 C523 1.349 . S
C539 H531 0.950 . S
C539 C537 1.327 . S
C540 C528 1.349 . S
C540 H534 0.950 . S
C540 C541 1.327 . S
C541 H535 0.950 . S
C541 C540 1.327 . S
C541 C545 1.429 . S
C542 C525 1.574 . S
C542 H536 0.949 . S
C542 C546 1.368 1_654 S
C543 C524 1.429 1_655 S
C543 C537 1.429 1_556 S
C543 C544 1.515 1_655 S
C544 C525 1.358 1_456 S
C544 C538 1.385 . S
C544 C543 1.515 1_455 S
C545 C529 1.429 . S
C545 C541 1.429 . S
C545 C546 1.523 . S
C546 C530 1.368 . S
C546 C542 1.368 1_456 S
C546 C545 1.523 . S
H547 C522 0.950 . S
H548 C524 0.950 . S
H549 C525 0.949 . S
H550 C527 0.940 1_655 S
H551 C529 0.950 1_654 S
C552 C553 1.349 . S
C552 C554 1.327 . S
C552 H577 0.950 . S
C553 C552 1.349 . S
C553 C569 1.349 . S
C554 C552 1.327 . S
C554 C573 1.429 . S
C554 H578 0.950 . S
C555 C572 1.574 . S
C555 C574 1.368 . S
C555 H579 0.949 . S
H556 C560 0.949 . S
C557 C558 1.349 . S
C557 C559 1.327 . S
C557 H580 0.950 1_455 S
C558 C557 1.349 . S
C558 C570 1.349 . S
C559 C557 1.327 . S
C559 C575 1.429 . S
C559 H581 0.937 1_455 S
C560 H556 0.949 . S
C560 C568 1.574 . S
C560 C576 1.368 . S
H561 C569 0.950 . S
H562 C567 0.950 . S
H563 C568 0.949 . S
H564 C570 0.950 . S
H565 C571 0.950 . S
H566 C572 0.949 . S
C567 H562 0.950 . S
C567 C569 1.327 . S
C567 C573 1.429 . S
C568 C560 1.574 . S
C568 H563 0.949 . S
C568 C574 1.368 . S
C569 C553 1.349 . S
C569 H561 0.950 . S
C569 C567 1.327 . S
C570 C558 1.349 . S
C570 H564 0.950 . S
C570 C571 1.327 . S
C571 H565 0.950 . S
C571 C570 1.327 . S
C571 C575 1.429 . S
C572 C555 1.574 . S
C572 H566 0.949 . S
C572 C576 1.368 . S
C573 C554 1.429 . S
C573 C567 1.429 . S
C573 C574 1.523 . S
C574 C555 1.368 . S
C574 C568 1.368 . S
C574 C573 1.523 . S
C575 C559 1.429 . S
C575 C571 1.429 . S
C575 C576 1.523 . S
C576 C560 1.368 . S
C576 C572 1.368 . S
C576 C575 1.523 . S
H577 C552 0.950 . S
H578 C554 0.950 . S
H579 C555 0.949 . S
H580 C557 0.950 1_655 S
H581 C559 0.937 1_655 S
C582 C583 1.349 . S
C582 C584 1.327 . S
C582 H607 0.950 . S
C583 C582 1.349 . S
C583 C599 1.349 . S
C584 C582 1.327 . S
C584 C603 1.429 . S
C584 H608 0.950 . S
C585 C602 1.574 . S
C585 C604 1.368 . S
C585 H609 0.949 . S
H586 C590 0.949 . S
C587 C588 1.349 . S
C587 C589 1.327 . S
C587 H610 0.950 . S
C588 C587 1.349 . S
C588 C600 1.349 . S
C589 C587 1.327 . S
C589 C605 1.429 . S
C589 H611 0.950 . S
C590 H586 0.949 . S
C590 C598 1.574 . S
C590 C606 1.368 . S
H591 C599 0.950 . S
H592 C597 0.950 . S
H593 C598 0.949 . S
H594 C600 0.950 . S
H595 C601 0.950 . S
H596 C602 0.949 . S
C597 H592 0.950 . S
C597 C599 1.327 . S
C597 C603 1.429 . S
C598 C590 1.574 . S
C598 H593 0.949 . S
C598 C604 1.368 . S
C599 C583 1.349 . S
C599 H591 0.950 . S
C599 C597 1.327 . S
C600 C588 1.349 . S
C600 H594 0.950 . S
C600 C601 1.327 . S
C601 H595 0.950 . S
C601 C600 1.327 . S
C601 C605 1.429 . S
C602 C585 1.574 . S
C602 H596 0.949 . S
C602 C606 1.368 . S
C603 C584 1.429 . S
C603 C597 1.429 . S
C603 C604 1.523 . S
C604 C585 1.368 . S
C604 C598 1.368 . S
C604 C603 1.523 . S
C605 C589 1.429 . S
C605 C601 1.429 . S
C605 C606 1.523 . S
C606 C590 1.368 . S
C606 C602 1.368 . S
C606 C605 1.523 . S
H607 C582 0.950 . S
H608 C584 0.950 . S
H609 C585 0.949 . S
H610 C587 0.950 . S
H611 C589 0.950 . S
C612 C613 1.349 . S
C612 C614 1.327 . S
C612 H637 0.950 . S
C613 C612 1.349 . S
C613 C629 1.349 . S
C614 C612 1.327 . S
C614 C633 1.429 . S
C614 H638 0.950 . S
C615 C632 1.574 . S
C615 C634 1.368 . S
C615 H639 0.949 . S
H616 C620 0.949 . S
C617 C618 1.349 . S
C617 C619 1.327 . S
C617 H640 0.950 . S
C618 C617 1.349 . S
C618 C630 1.349 . S
C619 C617 1.327 . S
C619 C635 1.429 . S
C619 H641 0.950 . S
C620 H616 0.949 . S
C620 C628 1.574 . S
C620 C636 1.368 . S
H621 C629 0.950 . S
H622 C627 0.950 . S
H623 C628 0.949 . S
H624 C630 0.950 . S
H625 C631 0.950 . S
H626 C632 0.949 . S
C627 H622 0.950 . S
C627 C629 1.327 . S
C627 C633 1.429 . S
C628 C620 1.574 . S
C628 H623 0.949 . S
C628 C634 1.368 . S
C629 C613 1.349 . S
C629 H621 0.950 . S
C629 C627 1.327 . S
C630 C618 1.349 . S
C630 H624 0.950 . S
C630 C631 1.327 . S
C631 H625 0.950 . S
C631 C630 1.327 . S
C631 C635 1.429 . S
C632 C615 1.574 . S
C632 H626 0.949 . S
C632 C636 1.368 . S
C633 C614 1.429 . S
C633 C627 1.429 . S
C633 C634 1.523 . S
C634 C615 1.368 . S
C634 C628 1.368 . S
C634 C633 1.523 . S
C635 C619 1.429 . S
C635 C631 1.429 . S
C635 C636 1.523 . S
C636 C620 1.368 . S
C636 C632 1.368 . S
C636 C635 1.523 . S
H637 C612 0.950 . S
H638 C614 0.950 . S
H639 C615 0.949 . S
H640 C617 0.950 . S
H641 C619 0.950 . S
C642 C643 1.349 . S
C642 C644 1.327 . S
C642 H667 0.950 . S
C643 C642 1.349 . S
C643 C659 1.349 . S
C644 C642 1.327 . S
C644 C663 1.429 . S
C644 H668 0.950 . S
C645 C662 1.574 . S
C645 C664 1.368 . S
C645 H669 0.949 . S
H646 C650 0.949 . S
C647 C648 1.349 . S
C647 C649 1.327 . S
C647 H670 0.950 . S
C648 C647 1.349 . S
C648 C660 1.349 . S
C649 C647 1.327 . S
C649 C665 1.429 . S
C649 H671 0.950 . S
C650 H646 0.949 . S
C650 C658 1.574 . S
C650 C666 1.368 . S
H651 C659 0.950 . S
H652 C657 0.950 . S
H653 C658 0.949 . S
H654 C660 0.950 . S
H655 C661 0.950 . S
H656 C662 0.949 . S
C657 H652 0.950 . S
C657 C659 1.327 . S
C657 C663 1.429 . S
C658 C650 1.574 . S
C658 H653 0.949 . S
C658 C664 1.368 . S
C659 C643 1.349 . S
C659 H651 0.950 . S
C659 C657 1.327 . S
C660 C648 1.349 . S
C660 H654 0.950 . S
C660 C661 1.327 . S
C661 H655 0.950 . S
C661 C660 1.327 . S
C661 C665 1.429 . S
C662 C645 1.574 . S
C662 H656 0.949 . S
C662 C666 1.368 . S
C663 C644 1.429 . S
C663 C657 1.429 . S
C663 C664 1.523 . S
C664 C645 1.368 . S
C664 C658 1.368 . S
C664 C663 1.523 . S
C665 C649 1.429 . S
C665 C661 1.429 . S
C665 C666 1.523 . S
C666 C650 1.368 . S
C666 C662 1.368 . S
C666 C665 1.523 . S
H667 C642 0.950 . S
H668 C644 0.950 . S
H669 C645 0.949 . S
H670 C647 0.950 . S
H671 C649 0.950 . S
C672 C673 1.349 1_556 S
C672 C674 1.327 . S
C672 H697 0.950 . S
C673 C672 1.349 1_554 S
C673 C689 1.349 1_655 S
C674 C672 1.327 . S
C674 C693 1.429 . S
C674 H698 0.950 . S
C675 C692 1.574 . S
C675 C694 1.352 1_454 S
C675 H699 0.949 . S
H676 C680 0.949 . S
C677 C678 1.349 . S
C677 C679 1.327 . S
C677 H700 0.950 . S
C678 C677 1.349 . S
C678 C690 1.349 . S
C679 C677 1.327 . S
C679 C695 1.429 . S
C679 H701 0.950 1_556 S
C680 H676 0.949 . S
C680 C688 1.574 . S
C680 C696 1.368 1_655 S
H681 C689 0.950 . S
H682 C687 0.950 . S
H683 C688 0.949 . S
H684 C690 0.950 1_655 S
H685 C691 0.974 . S
H686 C692 0.949 . S
C687 H682 0.950 . S
C687 C689 1.327 . S
C687 C693 1.429 1_454 S
C688 C680 1.574 . S
C688 H683 0.949 . S
C688 C694 1.384 . S
C689 C673 1.349 1_455 S
C689 H681 0.950 . S
C689 C687 1.327 . S
C690 C678 1.349 . S
C690 H684 0.950 1_455 S
C690 C691 1.326 1_455 S
C691 H685 0.974 . S
C691 C690 1.326 1_655 S
C691 C695 1.407 1_655 S
C692 C675 1.574 . S
C692 H686 0.949 . S
C692 C696 1.368 1_554 S
C693 C674 1.429 . S
C693 C687 1.429 1_656 S
C693 C694 1.524 . S
C694 C675 1.352 1_656 S
C694 C688 1.384 . S
C694 C693 1.524 . S
C695 C679 1.429 . S
C695 C691 1.407 1_455 S
C695 C696 1.523 . S
C696 C680 1.368 1_455 S
C696 C692 1.368 1_556 S
C696 C695 1.523 . S
H697 C672 0.950 . S
H698 C674 0.950 . S
H699 C675 0.949 . S
H700 C677 0.950 . S
H701 C679 0.950 1_554 S
C702 C703 1.349 1_554 S
C702 C704 1.327 . S
C702 H727 0.950 . S
C703 C702 1.349 1_556 S
C703 C719 1.349 . S
C704 C702 1.327 . S
C704 C723 1.429 1_554 S
C704 H728 0.950 . S
C705 C722 1.574 . S
C705 C724 1.368 . S
C705 H729 0.949 . S
H706 C710 0.949 1_554 S
C707 C708 1.349 . S
C707 C709 1.327 1_545 S
C707 H730 0.950 . S
C708 C707 1.349 . S
C708 C720 1.349 . S
C709 C707 1.327 1_565 S
C709 C725 1.429 . S
C709 H731 0.950 . S
C710 H706 0.949 1_556 S
C710 C718 1.574 1_556 S
C710 C726 1.368 . S
H711 C719 0.950 . S
H712 C717 0.950 . S
H713 C718 0.949 . S
H714 C720 0.950 . S
H715 C721 0.950 1_554 S
H716 C722 0.949 . S
C717 H712 0.950 . S
C717 C719 1.327 . S
C717 C723 1.429 . S
C718 C710 1.574 1_554 S
C718 H713 0.949 . S
C718 C724 1.368 1_554 S
C719 C703 1.349 . S
C719 H711 0.950 . S
C719 C717 1.327 . S
C720 C708 1.349 . S
C720 H714 0.950 . S
C720 C721 1.327 . S
C721 H715 0.950 1_556 S
C721 C720 1.327 . S
C721 C725 1.429 1_545 S
C722 C705 1.574 . S
C722 H716 0.949 . S
C722 C726 1.368 . S
C723 C704 1.429 1_556 S
C723 C717 1.429 . S
C723 C724 1.523 . S
C724 C705 1.368 . S
C724 C718 1.368 1_556 S
C724 C723 1.523 . S
C725 C709 1.429 . S
C725 C721 1.429 1_565 S
C725 C726 1.523 . S
C726 C710 1.368 . S
C726 C722 1.368 . S
C726 C725 1.523 . S
H727 C702 0.950 . S
H728 C704 0.950 . S
H729 C705 0.949 . S
H730 C707 0.950 . S
H731 C709 0.950 . S
C732 C733 1.349 . S
C732 C734 1.327 . S
C732 H757 0.950 . S
C733 C732 1.349 . S
C733 C749 1.349 . S
C734 C732 1.327 . S
C734 C753 1.429 . S
C734 H758 0.950 . S
C735 C752 1.574 . S
C735 C754 1.368 . S
C735 H759 0.949 . S
H736 C740 0.949 . S
C737 C738 1.349 . S
C737 C739 1.327 . S
C737 H760 0.950 . S
C738 C737 1.349 . S
C738 C750 1.349 . S
C739 C737 1.327 . S
C739 C755 1.429 . S
C739 H761 0.950 . S
C740 H736 0.949 . S
C740 C748 1.574 . S
C740 C756 1.368 . S
H741 C749 0.950 . S
H742 C747 0.950 . S
H743 C748 0.949 . S
H744 C750 0.950 1_556 S
H745 C751 0.950 . S
H746 C752 0.949 . S
C747 H742 0.950 . S
C747 C749 1.327 . S
C747 C753 1.429 . S
C748 C740 1.574 . S
C748 H743 0.949 . S
C748 C754 1.368 . S
C749 C733 1.349 . S
C749 H741 0.950 . S
C749 C747 1.327 . S
C750 C738 1.349 . S
C750 H744 0.950 1_554 S
C750 C751 1.327 . S
C751 H745 0.950 . S
C751 C750 1.327 . S
C751 C755 1.429 . S
C752 C735 1.574 . S
C752 H746 0.949 . S
C752 C756 1.368 . S
C753 C734 1.429 . S
C753 C747 1.429 . S
C753 C754 1.523 . S
C754 C735 1.368 . S
C754 C748 1.368 . S
C754 C753 1.523 . S
C755 C739 1.429 . S
C755 C751 1.429 . S
C755 C756 1.523 . S
C756 C740 1.368 . S
C756 C752 1.368 . S
C756 C755 1.523 . S
H757 C732 0.950 . S
H758 C734 0.950 . S
H759 C735 0.949 . S
H760 C737 0.950 . S
H761 C739 0.950 . S
C762 C763 1.349 . S
C762 C764 1.327 . S
C762 H787 0.950 . S
C763 C762 1.349 . S
C763 C779 1.349 . S
C764 C762 1.327 . S
C764 C783 1.429 . S
C764 H788 0.950 . S
C765 C782 1.574 . S
C765 C784 1.368 . S
C765 H789 0.949 . S
H766 C770 0.949 . S
C767 C768 1.349 . S
C767 C769 1.327 . S
C767 H790 0.950 . S
C768 C767 1.349 . S
C768 C780 1.349 . S
C769 C767 1.327 . S
C769 C785 1.429 . S
C769 H791 0.950 . S
C770 H766 0.949 . S
C770 C778 1.574 . S
C770 C786 1.368 . S
H771 C779 0.950 . S
H772 C777 0.950 . S
H773 C778 0.949 . S
H774 C780 0.950 . S
H775 C781 0.950 . S
H776 C782 0.949 . S
C777 H772 0.950 . S
C777 C779 1.327 . S
C777 C783 1.429 . S
C778 C770 1.574 . S
C778 H773 0.949 . S
C778 C784 1.368 . S
C779 C763 1.349 . S
C779 H771 0.950 . S
C779 C777 1.327 . S
C780 C768 1.349 . S
C780 H774 0.950 . S
C780 C781 1.327 . S
C781 H775 0.950 . S
C781 C780 1.327 . S
C781 C785 1.429 . S
C782 C765 1.574 . S
C782 H776 0.949 . S
C782 C786 1.368 . S
C783 C764 1.429 . S
C783 C777 1.429 . S
C783 C784 1.523 . S
C784 C765 1.368 . S
C784 C778 1.368 . S
C784 C783 1.523 . S
C785 C769 1.429 . S
C785 C781 1.429 . S
C785 C786 1.523 . S
C786 C770 1.368 . S
C786 C782 1.368 . S
C786 C785 1.523 . S
H787 C762 0.950 . S
H788 C764 0.950 . S
H789 C765 0.949 . S
H790 C767 0.950 . S
H791 C769 0.950 . S
C792 C793 1.349 . S
C792 C794 1.327 . S
C792 H817 0.950 . S
C793 C792 1.349 . S
C793 C809 1.349 . S
C794 C792 1.327 . S
C794 C813 1.429 . S
C794 H818 0.950 . S
C795 C812 1.574 . S
C795 C814 1.368 . S
C795 H819 0.949 . S
H796 C800 0.949 . S
C797 C798 1.349 . S
C797 C799 1.327 . S
C797 H820 0.950 . S
C798 C797 1.349 . S
C798 C810 1.349 . S
C799 C797 1.327 . S
C799 C815 1.429 . S
C799 H821 0.950 . S
C800 H796 0.949 . S
C800 C808 1.574 . S
C800 C816 1.368 . S
H801 C809 0.950 . S
H802 C807 0.950 . S
H803 C808 0.949 . S
H804 C810 0.950 . S
H805 C811 0.950 . S
H806 C812 0.949 . S
C807 H802 0.950 . S
C807 C809 1.327 . S
C807 C813 1.429 . S
C808 C800 1.574 . S
C808 H803 0.949 . S
C808 C814 1.368 . S
C809 C793 1.349 . S
C809 H801 0.950 . S
C809 C807 1.327 . S
C810 C798 1.349 . S
C810 H804 0.950 . S
C810 C811 1.327 . S
C811 H805 0.950 . S
C811 C810 1.327 . S
C811 C815 1.429 . S
C812 C795 1.574 . S
C812 H806 0.949 . S
C812 C816 1.368 . S
C813 C794 1.429 . S
C813 C807 1.429 . S
C813 C814 1.523 . S
C814 C795 1.368 . S
C814 C808 1.368 . S
C814 C813 1.523 . S
C815 C799 1.429 . S
C815 C811 1.429 . S
C815 C816 1.523 . S
C816 C800 1.368 . S
C816 C812 1.368 . S
C816 C815 1.523 . S
H817 C792 0.950 . S
H818 C794 0.950 . S
H819 C795 0.949 . S
H820 C797 0.950 . S
H821 C799 0.950 . S
C822 C823 1.349 . S
C822 C824 1.327 . S
C822 H847 0.950 . S
C823 C822 1.349 . S
C823 C839 1.349 . S
C824 C822 1.327 . S
C824 C843 1.429 . S
C824 H848 0.950 . S
C825 C842 1.574 . S
C825 C844 1.368 . S
C825 H849 0.949 . S
H826 C830 0.949 . S
C827 C828 1.349 . S
C827 C829 1.327 . S
C827 H850 0.950 . S
C828 C827 1.349 . S
C828 C840 1.349 . S
C829 C827 1.327 . S
C829 C845 1.429 . S
C829 H851 0.950 . S
C830 H826 0.949 . S
C830 C838 1.574 . S
C830 C846 1.368 . S
H831 C839 0.950 . S
H832 C837 0.950 . S
H833 C838 0.949 . S
H834 C840 0.950 . S
H835 C841 0.950 . S
H836 C842 0.949 . S
C837 H832 0.950 . S
C837 C839 1.327 . S
C837 C843 1.429 . S
C838 C830 1.574 . S
C838 H833 0.949 . S
C838 C844 1.368 . S
C839 C823 1.349 . S
C839 H831 0.950 . S
C839 C837 1.327 . S
C840 C828 1.349 . S
C840 H834 0.950 . S
C840 C841 1.327 . S
C841 H835 0.950 . S
C841 C840 1.327 . S
C841 C845 1.429 . S
C842 C825 1.574 . S
C842 H836 0.949 . S
C842 C846 1.368 . S
C843 C824 1.429 . S
C843 C837 1.429 . S
C843 C844 1.523 . S
C844 C825 1.368 . S
C844 C838 1.368 . S
C844 C843 1.523 . S
C845 C829 1.429 . S
C845 C841 1.429 . S
C845 C846 1.523 . S
C846 C830 1.368 . S
C846 C842 1.368 . S
C846 C845 1.523 . S
H847 C822 0.950 . S
H848 C824 0.950 . S
H849 C825 0.949 . S
H850 C827 0.950 . S
H851 C829 0.950 . S
C852 C853 1.349 . S
C852 C854 1.327 . S
C852 H877 0.950 . S
C853 C852 1.349 . S
C853 C869 1.349 . S
C854 C852 1.327 . S
C854 C873 1.429 . S
C854 H878 0.950 . S
C855 C872 1.574 . S
C855 C874 1.368 . S
C855 H879 0.949 . S
H856 C860 0.949 . S
C857 C858 1.349 . S
C857 C859 1.327 . S
C857 H880 0.950 . S
C858 C857 1.349 . S
C858 C870 1.349 1_556 S
C859 C857 1.327 . S
C859 C875 1.429 1_556 S
C859 H881 0.950 . S
C860 H856 0.949 . S
C860 C868 1.574 . S
C860 C876 1.368 . S
H861 C869 0.950 . S
H862 C867 0.950 . S
H863 C868 0.949 . S
H864 C870 0.950 . S
H865 C871 0.950 . S
H866 C872 0.949 1_556 S
C867 H862 0.950 . S
C867 C869 1.327 . S
C867 C873 1.429 . S
C868 C860 1.574 . S
C868 H863 0.949 . S
C868 C874 1.368 . S
C869 C853 1.349 . S
C869 H861 0.950 . S
C869 C867 1.327 . S
C870 C858 1.349 1_554 S
C870 H864 0.950 . S
C870 C871 1.327 . S
C871 H865 0.950 . S
C871 C870 1.327 . S
C871 C875 1.429 . S
C872 C855 1.574 . S
C872 H866 0.949 1_554 S
C872 C876 1.368 . S
C873 C854 1.429 . S
C873 C867 1.429 . S
C873 C874 1.523 . S
C874 C855 1.368 . S
C874 C868 1.368 . S
C874 C873 1.523 . S
C875 C859 1.429 1_554 S
C875 C871 1.429 . S
C875 C876 1.523 . S
C876 C860 1.368 . S
C876 C872 1.368 . S
C876 C875 1.523 . S
H877 C852 0.950 . S
H878 C854 0.950 . S
H879 C855 0.949 . S
H880 C857 0.950 . S
H881 C859 0.950 . S
C882 C883 1.349 . S
C882 C884 1.327 . S
C882 H907 0.950 . S
C883 C882 1.349 . S
C883 C899 1.349 . S
C884 C882 1.327 . S
C884 C903 1.429 . S
C884 H908 0.950 . S
C885 C902 1.574 . S
C885 C904 1.368 . S
C885 H909 0.949 . S
H886 C890 0.949 . S
C887 C888 1.349 . S
C887 C889 1.327 . S
C887 H910 0.950 . S
C888 C887 1.349 . S
C888 C900 1.349 . S
C889 C887 1.327 . S
C889 C905 1.429 . S
C889 H911 0.950 . S
C890 H886 0.949 . S
C890 C898 1.574 . S
C890 C906 1.368 . S
H891 C899 0.950 . S
H892 C897 0.950 . S
H893 C898 0.949 . S
H894 C900 0.950 . S
H895 C901 0.950 . S
H896 C902 0.949 . S
C897 H892 0.950 . S
C897 C899 1.327 . S
C897 C903 1.429 . S
C898 C890 1.574 . S
C898 H893 0.949 . S
C898 C904 1.368 . S
C899 C883 1.349 . S
C899 H891 0.950 . S
C899 C897 1.327 . S
C900 C888 1.349 . S
C900 H894 0.950 . S
C900 C901 1.327 . S
C901 H895 0.950 . S
C901 C900 1.327 . S
C901 C905 1.429 . S
C902 C885 1.574 . S
C902 H896 0.949 . S
C902 C906 1.368 . S
C903 C884 1.429 . S
C903 C897 1.429 . S
C903 C904 1.523 . S
C904 C885 1.368 . S
C904 C898 1.368 . S
C904 C903 1.523 . S
C905 C889 1.429 . S
C905 C901 1.429 . S
C905 C906 1.523 . S
C906 C890 1.368 . S
C906 C902 1.368 . S
C906 C905 1.523 . S
H907 C882 0.950 . S
H908 C884 0.950 . S
H909 C885 0.949 . S
H910 C887 0.950 . S
H911 C889 0.950 . S
C912 C913 1.349 . S
C912 C914 1.327 . S
C912 H937 0.950 . S
C913 C912 1.349 . S
C913 C929 1.349 . S
C914 C912 1.327 . S
C914 C933 1.429 . S
C914 H938 0.950 1_655 S
C915 C932 1.574 . S
C915 C934 1.368 . S
C915 H939 0.949 . S
H916 C920 0.949 . S
C917 C918 1.348 1_655 S
C917 C919 1.327 . S
C917 H940 0.950 . S
C918 C917 1.348 1_455 S
C918 C930 1.350 . S
C919 C917 1.327 . S
C919 C935 1.429 . S
C919 H941 0.950 . S
C920 H916 0.949 . S
C920 C928 1.574 1_455 S
C920 C936 1.368 1_455 S
H921 C929 0.950 . S
H922 C927 0.950 . S
H923 C928 0.949 1_455 S
H924 C930 0.950 . S
H925 C931 0.950 . S
H926 C932 0.949 . S
C927 H922 0.950 . S
C927 C929 1.327 . S
C927 C933 1.429 . S
C928 C920 1.574 1_655 S
C928 H923 0.949 1_655 S
C928 C934 1.369 . S
C929 C913 1.349 . S
C929 H921 0.950 . S
C929 C927 1.327 . S
C930 C918 1.350 . S
C930 H924 0.950 . S
C930 C931 1.327 . S
C931 H925 0.950 . S
C931 C930 1.327 . S
C931 C935 1.429 1_455 S
C932 C915 1.574 . S
C932 H926 0.949 . S
C932 C936 1.368 . S
C933 C914 1.429 . S
C933 C927 1.429 . S
C933 C934 1.523 . S
C934 C915 1.368 . S
C934 C928 1.369 . S
C934 C933 1.523 . S
C935 C919 1.429 . S
C935 C931 1.429 1_655 S
C935 C936 1.523 . S
C936 C920 1.368 1_655 S
C936 C932 1.368 . S
C936 C935 1.523 . S
H937 C912 0.950 . S
H938 C914 0.950 1_455 S
H939 C915 0.949 . S
H940 C917 0.950 . S
H941 C919 0.950 . S
C942 C943 1.349 . S
C942 C944 1.327 . S
C942 H967 0.950 . S
C943 C942 1.349 . S
C943 C959 1.349 . S
C944 C942 1.327 . S
C944 C963 1.429 . S
C944 H968 0.950 . S
C945 C962 1.574 . S
C945 C964 1.368 . S
C945 H969 0.949 . S
H946 C950 0.949 . S
C947 C948 1.349 . S
C947 C949 1.327 . S
C947 H970 0.950 . S
C948 C947 1.349 . S
C948 C960 1.349 . S
C949 C947 1.327 . S
C949 C965 1.429 . S
C949 H971 0.950 . S
C950 H946 0.949 . S
C950 C958 1.574 . S
C950 C966 1.368 . S
H951 C959 0.950 . S
H952 C957 0.950 . S
H953 C958 0.949 . S
H954 C960 0.950 . S
H955 C961 0.950 . S
H956 C962 0.949 . S
C957 H952 0.950 . S
C957 C959 1.327 . S
C957 C963 1.429 . S
C958 C950 1.574 . S
C958 H953 0.949 . S
C958 C964 1.368 . S
C959 C943 1.349 . S
C959 H951 0.950 . S
C959 C957 1.327 . S
C960 C948 1.349 . S
C960 H954 0.950 . S
C960 C961 1.327 . S
C961 H955 0.950 . S
C961 C960 1.327 . S
C961 C965 1.429 . S
C962 C945 1.574 . S
C962 H956 0.949 . S
C962 C966 1.368 . S
C963 C944 1.429 . S
C963 C957 1.429 . S
C963 C964 1.523 . S
C964 C945 1.368 . S
C964 C958 1.368 . S
C964 C963 1.523 . S
C965 C949 1.429 . S
C965 C961 1.429 . S
C965 C966 1.523 . S
C966 C950 1.368 . S
C966 C962 1.368 . S
C966 C965 1.523 . S
H967 C942 0.950 . S
H968 C944 0.950 . S
H969 C945 0.949 . S
H970 C947 0.950 . S
H971 C949 0.950 . S
C972 C973 1.349 . S
C972 C974 1.327 . S
C972 H997 0.950 . S
C973 C972 1.349 . S
C973 C989 1.349 . S
C974 C972 1.327 . S
C974 C993 1.429 . S
C974 H998 0.950 . S
C975 C992 1.574 . S
C975 C994 1.368 . S
C975 H999 0.949 . S
H976 C980 0.949 . S
C977 C978 1.349 . S
C977 C979 1.327 . S
C977 H1000 0.950 . S
C978 C977 1.349 . S
C978 C990 1.349 . S
C979 C977 1.327 . S
C979 C995 1.429 . S
C979 H1001 0.950 . S
C980 H976 0.949 . S
C980 C988 1.574 . S
C980 C996 1.368 . S
H981 C989 0.950 . S
H982 C987 0.950 . S
H983 C988 0.949 . S
H984 C990 0.950 . S
H985 C991 0.950 . S
H986 C992 0.949 . S
C987 H982 0.950 . S
C987 C989 1.327 . S
C987 C993 1.429 . S
C988 C980 1.574 . S
C988 H983 0.949 . S
C988 C994 1.368 . S
C989 C973 1.349 . S
C989 H981 0.950 . S
C989 C987 1.327 . S
C990 C978 1.349 . S
C990 H984 0.950 . S
C990 C991 1.327 . S
C991 H985 0.950 . S
C991 C990 1.327 . S
C991 C995 1.429 . S
C992 C975 1.574 . S
C992 H986 0.949 . S
C992 C996 1.368 . S
C993 C974 1.429 . S
C993 C987 1.429 . S
C993 C994 1.523 . S
C994 C975 1.368 . S
C994 C988 1.368 . S
C994 C993 1.523 . S
C995 C979 1.429 . S
C995 C991 1.429 . S
C995 C996 1.523 . S
C996 C980 1.368 . S
C996 C992 1.368 . S
C996 C995 1.523 . S
H997 C972 0.950 . S
H998 C974 0.950 . S
H999 C975 0.949 . S
H1000 C977 0.950 . S
H1001 C979 0.950 . S
C1002 C1003 1.349 . S
C1002 C1004 1.327 . S
C1002 H1027 0.950 . S
C1003 C1002 1.349 . S
C1003 C1019 1.349 . S
C1004 C1002 1.327 . S
C1004 C1023 1.429 . S
C1004 H1028 0.950 . S
C1005 C1022 1.574 . S
C1005 C1024 1.368 . S
C1005 H1029 0.949 . S
H1006 C1010 0.949 . S
C1007 C1008 1.349 . S
C1007 C1009 1.327 . S
C1007 H1030 0.950 . S
C1008 C1007 1.349 . S
C1008 C1020 1.349 . S
C1009 C1007 1.327 . S
C1009 C1025 1.429 . S
C1009 H1031 0.950 . S
C1010 H1006 0.949 . S
C1010 C1018 1.574 . S
C1010 C1026 1.368 . S
H1011 C1019 0.950 . S
H1012 C1017 0.950 . S
H1013 C1018 0.949 . S
H1014 C1020 0.950 . S
H1015 C1021 0.950 . S
H1016 C1022 0.949 . S
C1017 H1012 0.950 . S
C1017 C1019 1.327 . S
C1017 C1023 1.429 . S
C1018 C1010 1.574 . S
C1018 H1013 0.949 . S
C1018 C1024 1.368 . S
C1019 C1003 1.349 . S
C1019 H1011 0.950 . S
C1019 C1017 1.327 . S
C1020 C1008 1.349 . S
C1020 H1014 0.950 . S
C1020 C1021 1.327 . S
C1021 H1015 0.950 . S
C1021 C1020 1.327 . S
C1021 C1025 1.429 . S
C1022 C1005 1.574 . S
C1022 H1016 0.949 . S
C1022 C1026 1.368 . S
C1023 C1004 1.429 . S
C1023 C1017 1.429 . S
C1023 C1024 1.523 . S
C1024 C1005 1.368 . S
C1024 C1018 1.368 . S
C1024 C1023 1.523 . S
C1025 C1009 1.429 . S
C1025 C1021 1.429 . S
C1025 C1026 1.523 . S
C1026 C1010 1.368 . S
C1026 C1022 1.368 . S
C1026 C1025 1.523 . S
H1027 C1002 0.950 . S
H1028 C1004 0.950 . S
H1029 C1005 0.949 . S
H1030 C1007 0.950 . S
H1031 C1009 0.950 . S
C313 C125 1.462 . S
C318 C161 1.640 . S
C348 C201 1.250 . S
C343 C144 1.303 . S
C378 C250 1.323 . S
C373 C87 1.228 . S
C408 C281 1.712 . S
C403 C106 1.640 . S
C438 C170 1.640 . S
C433 C49 1.588 1_556 S
C463 C68 1.277 . S
C468 C210 1.250 . S
C493 C11 1.256 . S
C498 C241 1.322 . S
C523 C30 1.704 . S
C528 C290 1.712 . S
C558 C171 0.932 . S
C553 C97 0.880 . S
C588 C211 1.378 . S
C583 C116 1.233 . S
C618 C247 0.698 . S
C613 C135 0.702 . S
C643 C78 0.990 . S
C648 C291 1.084 . S
C673 C21 0.881 . S
C678 C162 0.933 . S
C708 C202 1.379 . S
C703 C40 1.235 1_556 S
C738 C238 0.697 . S
C733 C59 0.702 . S
C763 C2 0.991 . S
C768 C282 1.084 . S
C793 C101 1.632 . S
C798 C167 1.666 . S
C823 C120 1.362 . S
C828 C207 1.373 . S
C858 C251 1.881 . S
C853 C139 1.774 . S
C888 C287 1.366 . S
C883 C82 1.361 . S
C913 C25 1.633 . S
C918 C158 1.665 . S
C948 C198 1.373 . S
C943 C44 1.364 . S
C978 C242 1.882 . S
C973 C63 1.772 . S
C1003 C6 1.360 . S
C1008 C278 1.364 . S
