# Generated by pormake.
# Topology pto, (3,4)-cn, num edge types: 1
# Building blocks:
#     Node 0, Type 0, BuildingBlock: INOVEN_clean_linker_0, # of connection points: 3
#     Node 1, Type 0, BuildingBlock: INOVEN_clean_linker_0, # of connection points: 3
#     Node 2, Type 0, BuildingBlock: INOVEN_clean_linker_0, # of connection points: 3
#     Node 3, Type 0, BuildingBlock: INOVEN_clean_linker_0, # of connection points: 3
#     Node 4, Type 0, BuildingBlock: INOVEN_clean_linker_0, # of connection points: 3
#     Node 5, Type 0, BuildingBlock: INOVEN_clean_linker_0, # of connection points: 3
#     Node 6, Type 0, BuildingBlock: INOVEN_clean_linker_0, # of connection points: 3
#     Node 7, Type 0, BuildingBlock: INOVEN_clean_linker_0, # of connection points: 3
#     Node 8, Type 1, BuildingBlock: NAWXER_clean_sbu_0, # of connection points: 4
#     Node 9, Type 1, BuildingBlock: NAWXER_clean_sbu_0, # of connection points: 4
#     Node 10, Type 1, BuildingBlock: NAWXER_clean_sbu_0, # of connection points: 4
#     Node 11, Type 1, BuildingBlock: NAWXER_clean_sbu_0, # of connection points: 4
#     Node 12, Type 1, BuildingBlock: NAWXER_clean_sbu_0, # of connection points: 4
#     Node 13, Type 1, BuildingBlock: NAWXER_clean_sbu_0, # of connection points: 4
#     Edge 14, Type (0, 1), BuildingBlock: OJICUG_clean_linker_0, # of connection points: 2
#     Edge 15, Type (0, 1), BuildingBlock: OJICUG_clean_linker_0, # of connection points: 2
#     Edge 16, Type (0, 1), BuildingBlock: OJICUG_clean_linker_0, # of connection points: 2
#     Edge 17, Type (0, 1), BuildingBlock: OJICUG_clean_linker_0, # of connection points: 2
#     Edge 18, Type (0, 1), BuildingBlock: OJICUG_clean_linker_0, # of connection points: 2
#     Edge 19, Type (0, 1), BuildingBlock: OJICUG_clean_linker_0, # of connection points: 2
#     Edge 20, Type (0, 1), BuildingBlock: OJICUG_clean_linker_0, # of connection points: 2
#     Edge 21, Type (0, 1), BuildingBlock: OJICUG_clean_linker_0, # of connection points: 2
#     Edge 22, Type (0, 1), BuildingBlock: OJICUG_clean_linker_0, # of connection points: 2
#     Edge 23, Type (0, 1), BuildingBlock: OJICUG_clean_linker_0, # of connection points: 2
#     Edge 24, Type (0, 1), BuildingBlock: OJICUG_clean_linker_0, # of connection points: 2
#     Edge 25, Type (0, 1), BuildingBlock: OJICUG_clean_linker_0, # of connection points: 2
#     Edge 26, Type (0, 1), BuildingBlock: OJICUG_clean_linker_0, # of connection points: 2
#     Edge 27, Type (0, 1), BuildingBlock: OJICUG_clean_linker_0, # of connection points: 2
#     Edge 28, Type (0, 1), BuildingBlock: OJICUG_clean_linker_0, # of connection points: 2
#     Edge 29, Type (0, 1), BuildingBlock: OJICUG_clean_linker_0, # of connection points: 2
#     Edge 30, Type (0, 1), BuildingBlock: OJICUG_clean_linker_0, # of connection points: 2
#     Edge 31, Type (0, 1), BuildingBlock: OJICUG_clean_linker_0, # of connection points: 2
#     Edge 32, Type (0, 1), BuildingBlock: OJICUG_clean_linker_0, # of connection points: 2
#     Edge 33, Type (0, 1), BuildingBlock: OJICUG_clean_linker_0, # of connection points: 2
#     Edge 34, Type (0, 1), BuildingBlock: OJICUG_clean_linker_0, # of connection points: 2
#     Edge 35, Type (0, 1), BuildingBlock: OJICUG_clean_linker_0, # of connection points: 2
#     Edge 36, Type (0, 1), BuildingBlock: OJICUG_clean_linker_0, # of connection points: 2
#     Edge 37, Type (0, 1), BuildingBlock: OJICUG_clean_linker_0, # of connection points: 2
# Relax obj value: 0.011
# Max RMSD: 0.130
# Mean RMSD: 0.054
data_MOF--net-pto--node1-NAWXER_clean_sbu_0--node2-INOVEN_clean_linker_0--edge1-OJICUG_clean_linker_0
_symmetry_space_group_name_H-M    P1
_symmetry_Int_Tables_number       1
_symmetry_cell_setting            triclinic
loop_
_symmetry_equiv_pos_as_xyz
'x, y, z'
_cell_length_a     30.309144
_cell_length_b     28.161767
_cell_length_c     27.374909
_cell_angle_alpha  109.3721
_cell_angle_beta   96.18945
_cell_angle_gamma 98.934442
loop_
_atom_site_label
_atom_site_type_symbol
_atom_site_fract_x
_atom_site_fract_y
_atom_site_fract_z
_atom_type_partial_charge
H0 H 0.2253 0.23427 0.46551 0.0
H1 H 0.33837 0.17344 0.40456 0.0
H2 H 0.30656 0.3098 0.3838 0.0
N3 N 0.23704 0.31493 0.43842 0.0
N4 N 0.24806 0.35646 0.43151 0.0
C5 C 0.25382 0.23594 0.44503 0.0
C6 C 0.28051 0.19835 0.4376 0.0
C7 C 0.26387 0.2768 0.42731 0.0
C8 C 0.29972 0.27896 0.399 0.0
C9 C 0.32608 0.24087 0.38931 0.0
C10 C 0.31651 0.20107 0.40932 0.0
H11 H 0.2108 0.72443 0.7888 0.0
H12 H 0.29467 0.66209 0.87856 0.0
H13 H 0.35431 0.78485 0.83033 0.0
N14 N 0.27567 0.79321 0.77997 0.0
N15 N 0.30782 0.82673 0.78008 0.0
C16 C 0.24402 0.72366 0.80738 0.0
C17 C 0.24859 0.68853 0.8328 0.0
C18 C 0.28184 0.75835 0.80627 0.0
C19 C 0.32486 0.75821 0.8314 0.0
C20 C 0.33012 0.72359 0.85759 0.0
C21 C 0.29163 0.68826 0.8575 0.0
H22 H 0.87561 0.67633 0.26018 0.0
H23 H 0.88491 0.73206 0.42913 0.0
H24 H 0.8012 0.78997 0.33628 0.0
N25 N 0.8143 0.73137 0.24285 0.0
N26 N 0.79664 0.76801 0.2405 0.0
C27 C 0.86636 0.70063 0.29578 0.0
C28 C 0.88562 0.70121 0.34554 0.0
C29 C 0.83585 0.73281 0.29227 0.0
C30 C 0.8243 0.76468 0.33841 0.0
C31 C 0.84207 0.76455 0.38739 0.0
C32 C 0.87215 0.73253 0.39079 0.0
H33 H 0.7964 0.35923 0.99382 0.0
H34 H 0.81236 0.26827 0.83766 0.0
H35 H 0.71147 0.20929 0.91157 0.0
N36 N 0.72938 0.28919 0.00251 0.0
N37 N 0.70338 0.25083 0.00411 0.0
C38 C 0.78638 0.32474 0.9591 0.0
C39 C 0.80824 0.31968 0.91496 0.0
C40 C 0.7515 0.2848 0.95833 0.0
C41 C 0.73835 0.24028 0.9131 0.0
C42 C 0.75966 0.23485 0.86958 0.0
C43 C 0.79444 0.27429 0.87071 0.0
H44 H 0.75873 0.73771 0.82104 0.0
H45 H 0.81497 0.66388 0.92109 0.0
H46 H 0.902 0.76616 0.86818 0.0
N47 N 0.8325 0.79375 0.81836 0.0
N48 N 0.86768 0.82415 0.81966 0.0
C49 C 0.78711 0.73112 0.84369 0.0
C50 C 0.78024 0.69914 0.87341 0.0
C51 C 0.83022 0.75703 0.84366 0.0
C52 C 0.86843 0.7471 0.86935 0.0
C53 C 0.8631 0.71168 0.89574 0.0
C54 C 0.81892 0.6893 0.89899 0.0
H55 H 0.74776 0.26113 0.44878 0.0
H56 H 0.80788 0.34288 0.35653 0.0
H57 H 0.88758 0.26593 0.43364 0.0
N58 N 0.819 0.22801 0.47536 0.0
N59 N 0.85457 0.2167 0.49175 0.0
C60 C 0.77659 0.27387 0.43279 0.0
C61 C 0.77232 0.30361 0.40077 0.0
C62 C 0.81774 0.26 0.44464 0.0
C63 C 0.85573 0.27674 0.4248 0.0
C64 C 0.85248 0.307 0.39305 0.0
C65 C 0.81061 0.31993 0.38115 0.0
H66 H 0.28561 0.30435 0.85471 0.0
H67 H 0.40087 0.26852 0.93126 0.0
H68 H 0.33094 0.38046 0.02096 0.0
N69 N 0.26628 0.3697 0.93882 0.0
N70 N 0.25815 0.40117 0.97961 0.0
C71 C 0.30966 0.31051 0.88959 0.0
C72 C 0.34438 0.28214 0.88639 0.0
C73 C 0.30459 0.34601 0.93766 0.0
C74 C 0.33538 0.35435 0.98342 0.0
C75 C 0.37021 0.32643 0.98128 0.0
C76 C 0.37474 0.29097 0.93259 0.0
H77 H 0.3072 0.63796 0.25097 0.0
H78 H 0.27538 0.74559 0.38862 0.0
H79 H 0.40167 0.78038 0.33706 0.0
N80 N 0.38538 0.69184 0.25104 0.0
N81 N 0.42442 0.7164 0.25546 0.0
C82 C 0.31571 0.6747 0.28309 0.0
C83 C 0.2866 0.68745 0.3196 0.0
C84 C 0.35702 0.70782 0.2889 0.0
C85 C 0.36939 0.75503 0.3319 0.0
C86 C 0.34034 0.76879 0.36887 0.0
C87 C 0.29868 0.73502 0.36139 0.0
C88 C 1.00194 0.42373 0.34296 0.0
C89 C 0.12576 0.54767 0.32187 0.0
O90 O 0.01953 0.46309 0.38387 0.0
Zn91 Zn 0.06813 0.53168 0.4086 0.0
O92 O 0.01451 0.42004 0.29908 0.0
Zn93 Zn 0.06075 0.48457 0.32529 0.0
O94 O 0.10822 0.46899 0.37867 0.0
O95 O 0.10995 0.52013 0.46073 0.0
O96 O 0.10291 0.50856 0.28366 0.0
O97 O 0.11442 0.55821 0.36727 0.0
O98 O 0.03308 0.5852 0.42616 0.0
O99 O 0.02011 0.54091 0.34092 0.0
C100 C 0.12409 0.48437 0.42783 0.0
C101 C 0.01252 0.5769 0.38013 0.0
C102 C 0.9684 0.45542 0.9031 0.0
C103 C 0.09436 0.56339 0.8661 0.0
O104 O 0.99219 0.49034 0.94465 0.0
Zn105 Zn 0.04973 0.55187 0.9646 0.0
O106 O 0.97979 0.45095 0.85864 0.0
Zn107 Zn 0.0323 0.50687 0.88146 0.0
O108 O 0.08128 0.48253 0.92323 0.0
O109 O 0.09636 0.53256 0.00664 0.0
O110 O 0.06802 0.52369 0.83217 0.0
O111 O 0.09012 0.5769 0.91462 0.0
O112 O 0.02139 0.61179 0.99253 0.0
O113 O 1.0022 0.57199 0.90658 0.0
C114 C 0.10392 0.49491 0.96938 0.0
C115 C 0.99998 0.60861 0.94844 0.0
C116 C 0.29517 0.96182 0.66552 0.0
C117 C 0.27726 0.05865 0.54919 0.0
O118 O 0.25782 0.96545 0.64225 0.0
Zn119 Zn 0.28387 0.0103 0.60786 0.0
O120 O 0.33269 0.9859 0.65987 0.0
Zn121 Zn 0.35657 0.03562 0.61969 0.0
O122 O 0.38452 0.10003 0.67909 0.0
O123 O 0.31046 0.07989 0.6728 0.0
O124 O 0.31863 0.06226 0.56806 0.0
O125 O 0.24544 0.03273 0.56213 0.0
O126 O 0.31769 0.96009 0.55493 0.0
O127 O 0.39106 0.99329 0.57131 0.0
C128 C 0.34839 0.11036 0.69633 0.0
C129 C 0.35756 0.9573 0.54441 0.0
C130 C 0.64841 0.75033 0.08752 0.0
C131 C 0.50479 0.72992 0.97296 0.0
O132 O 0.62603 0.70412 0.06512 0.0
Zn133 Zn 0.56531 0.66121 0.01228 0.0
O134 O 0.63211 0.78734 0.08093 0.0
Zn135 Zn 0.5771 0.74456 0.03252 0.0
O136 O 0.54264 0.71719 0.08348 0.0
O137 O 0.53157 0.63252 0.05731 0.0
O138 O 0.53191 0.77213 0.00021 0.0
O139 O 0.51432 0.68752 0.97425 0.0
O140 O 0.59377 0.62108 0.95494 0.0
O141 O 0.60672 0.70441 0.96947 0.0
C142 C 0.52719 0.67524 0.08997 0.0
C143 C 0.61252 0.65934 0.94415 0.0
C144 C 0.85484 0.96789 0.71358 0.0
C145 C 0.85078 0.07905 0.60703 0.0
O146 O 0.81618 0.96245 0.68599 0.0
Zn147 Zn 0.78488 0.99154 0.63127 0.0
O148 O 0.88825 1.00079 0.71226 0.0
Zn149 Zn 0.85571 0.02472 0.6618 0.0
O150 O 0.80845 0.06199 0.70474 0.0
O151 O 0.73834 0.02063 0.66549 0.0
O152 O 0.88537 0.07731 0.63676 0.0
O153 O 0.81289 0.0492 0.60247 0.0
O154 O 0.76711 0.93116 0.56933 0.0
O155 O 0.84138 0.95732 0.59366 0.0
C156 C 0.76543 0.05696 0.70225 0.0
C157 C 0.80696 0.92504 0.56259 0.0
C158 C 0.60268 0.3278 0.30531 0.0
C159 C 0.48483 0.32983 0.16679 0.0
O160 O 0.58004 0.28392 0.27427 0.0
Zn161 Zn 0.52717 0.25041 0.20915 0.0
O162 O 0.5926 0.36862 0.30067 0.0
Zn163 Zn 0.54251 0.3344 0.24061 0.0
O164 O 0.49154 0.29915 0.27295 0.0
O165 O 0.48065 0.21475 0.23584 0.0
O166 O 0.50852 0.37011 0.20283 0.0
O167 O 0.48959 0.28563 0.16718 0.0
O168 O 0.56053 0.21509 0.15547 0.0
O169 O 0.5805 0.29969 0.18294 0.0
C170 C 0.47075 0.2542 0.26837 0.0
C171 C 0.58515 0.25538 0.15368 0.0
C172 C 0.17949 0.38654 0.4605 0.0
C173 C 0.22024 0.39363 0.44097 0.0
H174 H 0.11691 0.41179 0.47311 0.0
C175 C 0.23198 0.4365 0.42647 0.0
H176 H 0.16965 0.35381 0.47222 0.0
C177 C 0.202 0.46962 0.42734 0.0
C178 C 0.16016 0.46076 0.44367 0.0
H179 H 0.26318 0.44248 0.41142 0.0
H180 H 0.21018 0.5002 0.41201 0.0
C181 C 0.14959 0.41999 0.46176 0.0
C182 C 0.19874 0.60204 0.81267 0.0
C183 C 0.20763 0.65571 0.83774 0.0
H184 H 0.15431 0.53016 0.80057 0.0
C185 C 0.17725 0.67862 0.86848 0.0
H186 H 0.22183 0.5838 0.78863 0.0
C187 C 0.13946 0.64828 0.87587 0.0
C188 C 0.13071 0.59456 0.85158 0.0
H189 H 0.18353 0.71997 0.88804 0.0
H190 H 0.11736 0.66679 0.90134 0.0
C191 C 0.16009 0.57159 0.81903 0.0
C192 C 0.9163 0.61975 0.31659 0.0
C193 C 0.91981 0.67 0.35192 0.0
H194 H 0.94283 0.55082 0.29806 0.0
C195 C 0.95509 0.68966 0.39583 0.0
H196 H 0.88947 0.60318 0.28269 0.0
C197 C 0.98464 0.6592 0.40553 0.0
C198 C 0.98058 0.60882 0.37074 0.0
H199 H 0.95985 0.72874 0.42314 0.0
H200 H 0.01108 0.67538 0.43987 0.0
C201 C 0.94661 0.58961 0.32572 0.0
C202 C 0.85242 0.36802 0.86736 0.0
C203 C 0.84708 0.35924 0.9144 0.0
H204 H 0.89502 0.4038 0.82655 0.0
C205 C 0.88139 0.38449 0.95856 0.0
H206 H 0.82627 0.35037 0.83283 0.0
C207 C 0.92067 0.41608 0.95506 0.0
C208 C 0.92675 0.4225 0.90718 0.0
H209 H 0.87873 0.37839 0.99525 0.0
H210 H 0.9468 0.43442 0.98954 0.0
C211 C 0.89191 0.39863 0.86361 0.0
C212 C 0.28217 0.10948 0.43914 0.0
C213 C 0.27269 0.15864 0.46247 0.0
H214 H 0.29079 0.0387 0.44885 0.0
C215 C 0.25844 0.17084 0.51178 0.0
H216 H 0.29229 0.09814 0.40086 0.0
C217 C 0.25579 0.13585 0.53797 0.0
C218 C 0.26797 0.08838 0.51586 0.0
H219 H 0.25176 0.20849 0.5318 0.0
H220 H 0.24729 0.14731 0.57711 0.0
C221 C 0.28053 0.075 0.46603 0.0
C222 C 0.40489 0.77279 0.91557 0.0
C223 C 0.37554 0.7254 0.88605 0.0
H224 H 0.46866 0.81158 0.96595 0.0
C225 C 0.38981 0.67983 0.88425 0.0
H226 H 0.39477 0.80871 0.91839 0.0
C227 C 0.43205 0.68152 0.91165 0.0
C228 C 0.4612 0.72886 0.94167 0.0
H229 H 0.36841 0.64271 0.86138 0.0
H230 H 0.44167 0.64551 0.90955 0.0
C231 C 0.44723 0.7745 0.94302 0.0
C232 C 0.86721 0.83226 0.47561 0.0
C233 C 0.83169 0.80114 0.43512 0.0
H234 H 0.88712 0.89596 0.54759 0.0
C235 C 0.78718 0.80869 0.4383 0.0
H236 H 0.90186 0.82749 0.47377 0.0
C237 C 0.77864 0.84832 0.48046 0.0
C238 C 0.81458 0.88093 0.51974 0.0
H239 H 0.75921 0.7847 0.40759 0.0
H240 H 0.74423 0.85421 0.48152 0.0
C241 C 0.85875 0.87182 0.51752 0.0
C242 C 0.64965 0.20654 0.04201 0.0
C243 C 0.6777 0.25225 0.04473 0.0
H244 H 0.59825 0.17109 0.07435 0.0
C245 C 0.67725 0.29826 0.0852 0.0
H246 H 0.64966 0.17077 0.0108 0.0
C247 C 0.64797 0.29858 0.1213 0.0
C248 C 0.61856 0.253 0.11767 0.0
H249 H 0.69854 0.33407 0.08818 0.0
H250 H 0.64782 0.33494 0.15152 0.0
C251 C 0.62033 0.20674 0.0782 0.0
C252 C 0.34092 0.89664 0.75453 0.0
C253 C 0.30261 0.86142 0.75343 0.0
H254 H 0.36868 0.9562 0.72808 0.0
C255 C 0.26066 0.86063 0.72516 0.0
H256 H 0.37336 0.89773 0.77627 0.0
C257 C 0.25768 0.89421 0.69749 0.0
C258 C 0.29656 0.92873 0.69756 0.0
H259 H 0.23044 0.83377 0.72383 0.0
H260 H 0.22527 0.89233 0.67522 0.0
C261 C 0.33807 0.92994 0.72691 0.0
C262 C 0.74828 0.80935 0.19883 0.0
C263 C 0.76749 0.76638 0.19566 0.0
H264 H 0.69522 0.83851 0.1668 0.0
C265 C 0.75131 0.72053 0.15267 0.0
H266 H 0.7603 0.84487 0.23208 0.0
C267 C 0.71412 0.71672 0.1158 0.0
C268 C 0.69243 0.75856 0.12124 0.0
H269 H 0.76542 0.68677 0.14931 0.0
H270 H 0.70104 0.68008 0.08431 0.0
C271 C 0.71105 0.80565 0.16178 0.0
C272 C 0.75009 0.13968 0.8336 0.0
C273 C 0.74903 0.18588 0.82472 0.0
H274 H 0.75548 0.06087 0.79985 0.0
C275 C 0.7438 0.18571 0.77309 0.0
H276 H 0.75452 0.13904 0.87317 0.0
C277 C 0.7437 0.1409 0.73133 0.0
C278 C 0.74884 0.09609 0.74099 0.0
H279 H 0.74266 0.22093 0.76548 0.0
H280 H 0.74349 0.14236 0.69224 0.0
C281 C 0.75039 0.09502 0.79186 0.0
C282 C 0.3923 0.2909 0.36744 0.0
C283 C 0.36417 0.24342 0.35937 0.0
H284 H 0.44773 0.33138 0.34559 0.0
C285 C 0.3724 0.19877 0.3221 0.0
H286 H 0.38762 0.32592 0.3965 0.0
C287 C 0.40739 0.20179 0.29293 0.0
C288 C 0.43486 0.24955 0.30042 0.0
H289 H 0.35116 0.16158 0.31462 0.0
H290 H 0.41241 0.16688 0.264 0.0
C291 C 0.42706 0.29393 0.33836 0.0
C292 C 0.90653 0.68469 0.96323 0.0
C293 C 0.90322 0.69454 0.91579 0.0
H294 H 0.94091 0.65065 0.01193 0.0
C295 C 0.93641 0.68262 0.88419 0.0
H296 H 0.88179 0.69398 0.98879 0.0
C297 C 0.9699 0.65809 0.89747 0.0
C298 C 0.9715 0.64525 0.94295 0.0
H299 H 0.93484 0.68914 0.84727 0.0
H300 H 0.99334 0.64677 0.87059 0.0
C301 C 0.94062 0.66049 0.97687 0.0
C302 C 0.93429 0.34943 0.41075 0.0
C303 C 0.89329 0.32835 0.37529 0.0
H304 H 1.00094 0.39523 0.42744 0.0
C305 C 0.89076 0.33245 0.32508 0.0
H306 H 0.93749 0.34737 0.44975 0.0
C307 C 0.92752 0.36013 0.31214 0.0
C308 C 0.96711 0.38438 0.34943 0.0
H309 H 0.85981 0.31588 0.29652 0.0
H310 H 0.9239 0.36529 0.27453 0.0
C311 C 0.97064 0.37714 0.398 0.0
C312 C 0.21333 0.46369 0.02232 0.0
C313 C 0.21837 0.42234 0.97872 0.0
H314 H 0.17304 0.51949 0.05427 0.0
C315 C 0.1837 0.40263 0.93457 0.0
H316 H 0.23949 0.47915 0.05692 0.0
C317 C 0.14579 0.42491 0.93326 0.0
C318 C 0.14138 0.46781 0.97583 0.0
H319 H 0.18602 0.37028 0.90058 0.0
H320 H 0.12039 0.40908 0.89794 0.0
C321 C 0.17524 0.48646 0.0209 0.0
C322 C 0.21589 0.61959 0.2702 0.0
C323 C 0.24567 0.64959 0.31755 0.0
H324 H 0.15396 0.56319 0.23381 0.0
C325 C 0.23673 0.64297 0.36427 0.0
H326 H 0.22215 0.62367 0.23344 0.0
C327 C 0.19836 0.60905 0.36442 0.0
C328 C 0.16752 0.58026 0.31781 0.0
H329 H 0.25963 0.66401 0.4011 0.0
H330 H 0.1929 0.60557 0.40167 0.0
C331 C 0.17699 0.58502 0.27032 0.0
C332 C 0.90447 0.89326 0.79235 0.0
C333 C 0.86503 0.86105 0.79469 0.0
H334 H 0.93269 0.95293 0.765 0.0
C335 C 0.82279 0.86634 0.77256 0.0
H336 H 0.93731 0.89012 0.80946 0.0
C337 C 0.82008 0.90196 0.74782 0.0
C338 C 0.8594 0.93354 0.74417 0.0
H339 H 0.79152 0.84275 0.77405 0.0
H340 H 0.78679 0.9042 0.73095 0.0
C341 C 0.90175 0.92926 0.76722 0.0
C342 C 0.72363 0.36118 0.37733 0.0
C343 C 0.72736 0.31469 0.38498 0.0
H344 H 0.68076 0.40263 0.34686 0.0
C345 C 0.68784 0.27679 0.37366 0.0
H346 H 0.75315 0.39175 0.38669 0.0
C347 C 0.64654 0.28359 0.35213 0.0
C348 C 0.64345 0.32823 0.3407 0.0
H349 H 0.68908 0.24034 0.37843 0.0
H350 H 0.61739 0.2523 0.34154 0.0
C351 C 0.68202 0.36789 0.35534 0.0
C352 C 0.38796 0.23007 0.82085 0.0
C353 C 0.34635 0.24017 0.83615 0.0
H354 H 0.42162 0.18169 0.76474 0.0
C355 C 0.3061 0.20807 0.8041 0.0
H356 H 0.4197 0.25415 0.84429 0.0
C357 C 0.30724 0.16694 0.75872 0.0
C358 C 0.34868 0.15623 0.74367 0.0
H359 H 0.27342 0.2137 0.81479 0.0
H360 H 0.27528 0.14299 0.73575 0.0
C361 C 0.38911 0.18866 0.77508 0.0
C362 C 0.49329 0.7333 0.22158 0.0
C363 C 0.45198 0.7008 0.21656 0.0
H364 H 0.54985 0.75004 0.18547 0.0
C365 C 0.43798 0.65534 0.17192 0.0
H366 H 0.50468 0.76815 0.25575 0.0
C367 C 0.46413 0.64438 0.13173 0.0
C368 C 0.50412 0.67902 0.13552 0.0
H369 H 0.40625 0.62925 0.16723 0.0
H370 H 0.45177 0.61067 0.09658 0.0
C371 C 0.51899 0.72277 0.18144 0.0
C372 C 0.81236 0.15673 0.52696 0.0
C373 C 0.8536 0.18325 0.52115 0.0
H374 H 0.77943 0.1035 0.55827 0.0
C375 C 0.89435 0.17575 0.54429 0.0
H376 H 0.78027 0.16141 0.50954 0.0
C377 C 0.89397 0.14243 0.57287 0.0
C378 C 0.85266 0.11553 0.57816 0.0
H379 H 0.92647 0.19575 0.5402 0.0
H380 H 0.9259 0.13731 0.59022 0.0
C381 C 0.81195 0.12327 0.55488 0.0
C382 C 0.42098 0.37656 0.06924 0.0
C383 C 0.39855 0.32934 0.03042 0.0
H384 H 0.46645 0.4143 0.14323 0.0
C385 C 0.40281 0.28363 0.03862 0.0
H386 H 0.41799 0.41244 0.06394 0.0
C387 C 0.4297 0.28465 0.08359 0.0
C388 C 0.45358 0.33148 0.12188 0.0
H389 H 0.38515 0.24673 0.0101 0.0
H390 H 0.43218 0.24817 0.08772 0.0
C391 C 0.44858 0.37764 0.11455 0.0
C392 C 0.37279 0.86472 0.41329 0.0
C393 C 0.35277 0.81727 0.41624 0.0
H394 H 0.39084 0.94707 0.4524 0.0
C395 C 0.34116 0.81678 0.46453 0.0
H396 H 0.38211 0.8666 0.37679 0.0
C397 C 0.34565 0.86248 0.50706 0.0
C398 C 0.36303 0.90998 0.5032 0.0
H399 H 0.32693 0.78102 0.46899 0.0
H400 H 0.33388 0.86086 0.5426 0.0
C401 C 0.37794 0.91078 0.45655 0.0
C402 C 0.69908 0.70843 0.87695 0.0
C403 C 0.733 0.68008 0.88061 0.0
H404 H 0.63329 0.72112 0.89015 0.0
C405 C 0.7217 0.63654 0.89514 0.0
H406 H 0.7054 0.74285 0.86737 0.0
C407 C 0.67964 0.6252 0.91051 0.0
C408 C 0.64784 0.65657 0.9106 0.0
H409 H 0.74586 0.61244 0.89701 0.0
H410 H 0.67359 0.59458 0.92615 0.0
C411 C 0.65708 0.69614 0.89053 0.0
loop_
_geom_bond_atom_site_label_1
_geom_bond_atom_site_label_2
_geom_bond_distance
_geom_bond_site_symmetry_2
_ccdc_geom_bond_type
H0 C5 0.929 . S
H1 C10 0.931 . S
H2 C8 0.930 . S
N3 N4 1.234 . S
N3 C7 1.453 . S
N4 N3 1.234 . S
C5 H0 0.929 . S
C5 C6 1.373 . S
C5 C7 1.368 . S
C6 C5 1.373 . S
C6 C10 1.397 . S
C7 N3 1.453 . S
C7 C5 1.368 . S
C7 C8 1.373 . S
C8 H2 0.930 . S
C8 C7 1.373 . S
C8 C9 1.371 . S
C9 C8 1.371 . S
C9 C10 1.383 . S
C10 H1 0.931 . S
C10 C6 1.397 . S
C10 C9 1.383 . S
H11 C16 0.929 . S
H12 C21 0.931 . S
H13 C19 0.930 . S
N14 N15 1.234 . S
N14 C18 1.453 . S
N15 N14 1.234 . S
C16 H11 0.929 . S
C16 C17 1.373 . S
C16 C18 1.368 . S
C17 C16 1.373 . S
C17 C21 1.397 . S
C18 N14 1.453 . S
C18 C16 1.368 . S
C18 C19 1.373 . S
C19 H13 0.930 . S
C19 C18 1.373 . S
C19 C20 1.371 . S
C20 C19 1.371 . S
C20 C21 1.383 . S
C21 H12 0.931 . S
C21 C17 1.397 . S
C21 C20 1.383 . S
H22 C27 0.929 . S
H23 C32 0.931 . S
H24 C30 0.930 . S
N25 N26 1.234 . S
N25 C29 1.453 . S
N26 N25 1.234 . S
C27 H22 0.929 . S
C27 C28 1.373 . S
C27 C29 1.368 . S
C28 C27 1.373 . S
C28 C32 1.397 . S
C29 N25 1.453 . S
C29 C27 1.368 . S
C29 C30 1.373 . S
C30 H24 0.930 . S
C30 C29 1.373 . S
C30 C31 1.371 . S
C31 C30 1.371 . S
C31 C32 1.383 . S
C32 H23 0.931 . S
C32 C28 1.397 . S
C32 C31 1.383 . S
H33 C38 0.935 . S
H34 C43 0.931 . S
H35 C41 0.930 . S
N36 N37 1.234 . S
N36 C40 1.453 1_554 S
N37 N36 1.234 . S
C38 H33 0.935 . S
C38 C39 1.364 1_554 S
C38 C40 1.371 1_554 S
C39 C38 1.364 1_556 S
C39 C43 1.397 . S
C40 N36 1.453 1_556 S
C40 C38 1.371 1_556 S
C40 C41 1.373 . S
C41 H35 0.930 . S
C41 C40 1.373 . S
C41 C42 1.371 . S
C42 C41 1.371 . S
C42 C43 1.383 . S
C43 H34 0.931 . S
C43 C39 1.397 . S
C43 C42 1.383 . S
H44 C49 0.929 . S
H45 C54 0.931 . S
H46 C52 0.930 . S
N47 N48 1.234 . S
N47 C51 1.453 . S
N48 N47 1.234 . S
C49 H44 0.929 . S
C49 C50 1.373 . S
C49 C51 1.368 . S
C50 C49 1.373 . S
C50 C54 1.397 . S
C51 N47 1.453 . S
C51 C49 1.368 . S
C51 C52 1.373 . S
C52 H46 0.930 . S
C52 C51 1.373 . S
C52 C53 1.371 . S
C53 C52 1.371 . S
C53 C54 1.383 . S
C54 H45 0.931 . S
C54 C50 1.397 . S
C54 C53 1.383 . S
H55 C60 0.929 . S
H56 C65 0.931 . S
H57 C63 0.930 . S
N58 N59 1.234 . S
N58 C62 1.453 . S
N59 N58 1.234 . S
C60 H55 0.929 . S
C60 C61 1.373 . S
C60 C62 1.368 . S
C61 C60 1.373 . S
C61 C65 1.397 . S
C62 N58 1.453 . S
C62 C60 1.368 . S
C62 C63 1.373 . S
C63 H57 0.930 . S
C63 C62 1.373 . S
C63 C64 1.371 . S
C64 C63 1.371 . S
C64 C65 1.383 . S
C65 H56 0.931 . S
C65 C61 1.397 . S
C65 C64 1.383 . S
H66 C71 0.929 . S
H67 C76 0.931 . S
H68 C74 0.933 . S
N69 N70 1.234 . S
N69 C73 1.453 . S
N70 N69 1.234 . S
C71 H66 0.929 . S
C71 C72 1.373 . S
C71 C73 1.368 . S
C72 C71 1.373 . S
C72 C76 1.397 . S
C73 N69 1.453 . S
C73 C71 1.368 . S
C73 C74 1.373 . S
C74 H68 0.933 . S
C74 C73 1.373 . S
C74 C75 1.371 . S
C75 C74 1.371 . S
C75 C76 1.383 . S
C76 H67 0.931 . S
C76 C72 1.397 . S
C76 C75 1.383 . S
H77 C82 0.929 . S
H78 C87 0.931 . S
H79 C85 0.930 . S
N80 N81 1.234 . S
N80 C84 1.453 . S
N81 N80 1.234 . S
C82 H77 0.929 . S
C82 C83 1.373 . S
C82 C84 1.368 . S
C83 C82 1.373 . S
C83 C87 1.397 . S
C84 N80 1.453 . S
C84 C82 1.368 . S
C84 C85 1.373 . S
C85 H79 0.930 . S
C85 C84 1.373 . S
C85 C86 1.371 . S
C86 C85 1.371 . S
C86 C87 1.383 . S
C87 H78 0.931 . S
C87 C83 1.397 . S
C87 C86 1.383 . S
C88 O90 1.247 1_655 S
C88 O92 1.258 . S
C89 O96 1.247 . S
C89 O97 1.258 . S
O90 C88 1.247 1_455 S
O90 Zn91 2.028 . S
Zn91 O90 2.028 . S
Zn91 O95 2.035 . S
Zn91 O97 2.035 . S
Zn91 O98 2.028 . S
O92 C88 1.258 . S
O92 Zn93 2.035 1_655 S
Zn93 O92 2.035 1_455 S
Zn93 O94 2.028 . S
Zn93 O96 2.028 . S
Zn93 O99 2.035 1_455 S
O94 Zn93 2.028 . S
O94 C100 1.247 . S
O95 Zn91 2.035 . S
O95 C100 1.258 . S
O96 C89 1.247 . S
O96 Zn93 2.028 . S
O97 C89 1.258 . S
O97 Zn91 2.035 . S
O98 Zn91 2.028 . S
O98 C101 1.247 1_455 S
O99 Zn93 2.035 1_655 S
O99 C101 1.258 . S
C100 O94 1.247 . S
C100 O95 1.258 . S
C101 O98 1.247 1_655 S
C101 O99 1.258 . S
C102 O104 1.247 1_656 S
C102 O106 1.258 . S
C103 O110 1.247 . S
C103 O111 1.258 . S
O104 C102 1.247 1_454 S
O104 Zn105 2.028 . S
Zn105 O104 2.028 . S
Zn105 O109 2.035 . S
Zn105 O111 2.035 1_554 S
Zn105 O112 2.028 1_554 S
O106 C102 1.258 . S
O106 Zn107 2.035 1_655 S
Zn107 O106 2.035 1_455 S
Zn107 O108 2.028 . S
Zn107 O110 2.028 . S
Zn107 O113 2.035 1_455 S
O108 Zn107 2.028 . S
O108 C114 1.247 . S
O109 Zn105 2.035 . S
O109 C114 1.258 1_554 S
O110 C103 1.247 . S
O110 Zn107 2.028 . S
O111 C103 1.258 . S
O111 Zn105 2.035 1_556 S
O112 Zn105 2.028 1_556 S
O112 C115 1.247 1_455 S
O113 Zn107 2.035 1_655 S
O113 C115 1.258 . S
C114 O108 1.247 . S
C114 O109 1.258 1_556 S
C115 O112 1.247 1_655 S
C115 O113 1.258 . S
C116 O118 1.247 . S
C116 O120 1.258 . S
C117 O124 1.247 . S
C117 O125 1.258 . S
O118 C116 1.247 . S
O118 Zn119 2.028 1_565 S
Zn119 O118 2.028 1_545 S
Zn119 O123 2.035 . S
Zn119 O125 2.035 . S
Zn119 O126 2.028 1_545 S
O120 C116 1.258 . S
O120 Zn121 2.035 1_565 S
Zn121 O120 2.035 1_545 S
Zn121 O122 2.028 . S
Zn121 O124 2.028 . S
Zn121 O127 2.035 1_545 S
O122 Zn121 2.028 . S
O122 C128 1.247 . S
O123 Zn119 2.035 . S
O123 C128 1.258 . S
O124 C117 1.247 . S
O124 Zn121 2.028 . S
O125 C117 1.258 . S
O125 Zn119 2.035 . S
O126 Zn119 2.028 1_565 S
O126 C129 1.247 . S
O127 Zn121 2.035 1_565 S
O127 C129 1.258 . S
C128 O122 1.247 . S
C128 O123 1.258 . S
C129 O126 1.247 . S
C129 O127 1.258 . S
C130 O132 1.247 . S
C130 O134 1.258 . S
C131 O138 1.247 . S
C131 O139 1.258 . S
O132 C130 1.247 . S
O132 Zn133 2.028 1_554 S
Zn133 O132 2.028 1_556 S
Zn133 O137 2.035 1_556 S
Zn133 O139 2.035 . S
Zn133 O140 2.028 . S
O134 C130 1.258 . S
O134 Zn135 2.035 . S
Zn135 O134 2.035 . S
Zn135 O136 2.028 . S
Zn135 O138 2.028 1_554 S
Zn135 O141 2.035 1_554 S
O136 Zn135 2.028 . S
O136 C142 1.247 . S
O137 Zn133 2.035 1_554 S
O137 C142 1.258 . S
O138 C131 1.247 . S
O138 Zn135 2.028 1_556 S
O139 C131 1.258 . S
O139 Zn133 2.035 . S
O140 Zn133 2.028 . S
O140 C143 1.247 . S
O141 Zn135 2.035 1_556 S
O141 C143 1.258 . S
C142 O136 1.247 . S
C142 O137 1.258 . S
C143 O140 1.247 . S
C143 O141 1.258 . S
C144 O146 1.247 . S
C144 O148 1.258 . S
C145 O152 1.247 . S
C145 O153 1.258 . S
O146 C144 1.247 . S
O146 Zn147 2.028 1_565 S
Zn147 O146 2.028 1_545 S
Zn147 O151 2.035 . S
Zn147 O153 2.035 . S
Zn147 O154 2.028 1_545 S
O148 C144 1.258 . S
O148 Zn149 2.035 1_565 S
Zn149 O148 2.035 1_545 S
Zn149 O150 2.028 . S
Zn149 O152 2.028 . S
Zn149 O155 2.035 1_545 S
O150 Zn149 2.028 . S
O150 C156 1.247 . S
O151 Zn147 2.035 . S
O151 C156 1.258 . S
O152 C145 1.247 . S
O152 Zn149 2.028 . S
O153 C145 1.258 . S
O153 Zn147 2.035 . S
O154 Zn147 2.028 1_565 S
O154 C157 1.247 . S
O155 Zn149 2.035 1_565 S
O155 C157 1.258 . S
C156 O150 1.247 . S
C156 O151 1.258 . S
C157 O154 1.247 . S
C157 O155 1.258 . S
C158 O160 1.247 . S
C158 O162 1.258 . S
C159 O166 1.247 . S
C159 O167 1.258 . S
O160 C158 1.247 . S
O160 Zn161 2.028 . S
Zn161 O160 2.028 . S
Zn161 O165 2.035 . S
Zn161 O167 2.035 . S
Zn161 O168 2.028 . S
O162 C158 1.258 . S
O162 Zn163 2.035 . S
Zn163 O162 2.035 . S
Zn163 O164 2.028 . S
Zn163 O166 2.028 . S
Zn163 O169 2.035 . S
O164 Zn163 2.028 . S
O164 C170 1.247 . S
O165 Zn161 2.035 . S
O165 C170 1.258 . S
O166 C159 1.247 . S
O166 Zn163 2.028 . S
O167 C159 1.258 . S
O167 Zn161 2.035 . S
O168 Zn161 2.028 . S
O168 C171 1.247 . S
O169 Zn163 2.035 . S
O169 C171 1.258 . S
C170 O164 1.247 . S
C170 O165 1.258 . S
C171 O168 1.247 . S
C171 O169 1.258 . S
C172 C173 1.387 . S
C172 H176 0.950 . S
C172 C181 1.390 . S
C173 C172 1.387 . S
C173 C175 1.387 . S
H174 C181 0.950 . S
C175 C173 1.387 . S
C175 C177 1.390 . S
C175 H179 0.950 . S
H176 C172 0.950 . S
C177 C175 1.390 . S
C177 C178 1.387 . S
C177 H180 0.950 . S
C178 C177 1.387 . S
C178 C181 1.387 . S
H179 C175 0.950 . S
H180 C177 0.950 . S
C181 C172 1.390 . S
C181 H174 0.950 . S
C181 C178 1.387 . S
C182 C183 1.387 . S
C182 H186 0.950 . S
C182 C191 1.390 . S
C183 C182 1.387 . S
C183 C185 1.387 . S
H184 C191 0.950 . S
C185 C183 1.387 . S
C185 C187 1.390 . S
C185 H189 0.950 . S
H186 C182 0.950 . S
C187 C185 1.390 . S
C187 C188 1.387 . S
C187 H190 0.950 . S
C188 C187 1.387 . S
C188 C191 1.387 . S
H189 C185 0.950 . S
H190 C187 0.950 . S
C191 C182 1.390 . S
C191 H184 0.950 . S
C191 C188 1.387 . S
C192 C193 1.387 . S
C192 H196 0.950 . S
C192 C201 1.390 . S
C193 C192 1.387 . S
C193 C195 1.387 . S
H194 C201 0.950 . S
C195 C193 1.387 . S
C195 C197 1.390 . S
C195 H199 0.950 . S
H196 C192 0.950 . S
C197 C195 1.390 . S
C197 C198 1.387 . S
C197 H200 0.950 . S
C198 C197 1.387 . S
C198 C201 1.387 . S
H199 C195 0.950 . S
H200 C197 0.950 . S
C201 C192 1.390 . S
C201 H194 0.950 . S
C201 C198 1.387 . S
C202 C203 1.387 . S
C202 H206 0.950 . S
C202 C211 1.390 . S
C203 C202 1.387 . S
C203 C205 1.387 1_556 S
H204 C211 0.950 . S
C205 C203 1.387 1_554 S
C205 C207 1.390 . S
C205 H209 0.950 . S
H206 C202 0.950 . S
C207 C205 1.390 . S
C207 C208 1.387 1_554 S
C207 H210 0.950 . S
C208 C207 1.387 1_556 S
C208 C211 1.387 . S
H209 C205 0.950 . S
H210 C207 0.950 . S
C211 C202 1.390 . S
C211 H204 0.950 . S
C211 C208 1.387 . S
C212 C213 1.387 . S
C212 H216 0.950 . S
C212 C221 1.390 . S
C213 C212 1.387 . S
C213 C215 1.387 . S
H214 C221 0.950 . S
C215 C213 1.387 . S
C215 C217 1.390 . S
C215 H219 0.950 . S
H216 C212 0.950 . S
C217 C215 1.390 . S
C217 C218 1.387 . S
C217 H220 0.950 . S
C218 C217 1.387 . S
C218 C221 1.387 . S
H219 C215 0.950 . S
H220 C217 0.950 . S
C221 C212 1.390 . S
C221 H214 0.950 . S
C221 C218 1.387 . S
C222 C223 1.387 . S
C222 H226 0.950 . S
C222 C231 1.390 . S
C223 C222 1.387 . S
C223 C225 1.387 . S
H224 C231 0.950 . S
C225 C223 1.387 . S
C225 C227 1.390 . S
C225 H229 0.950 . S
H226 C222 0.950 . S
C227 C225 1.390 . S
C227 C228 1.387 . S
C227 H230 0.950 . S
C228 C227 1.387 . S
C228 C231 1.387 . S
H229 C225 0.950 . S
H230 C227 0.950 . S
C231 C222 1.390 . S
C231 H224 0.950 . S
C231 C228 1.387 . S
C232 C233 1.387 . S
C232 H236 0.950 . S
C232 C241 1.390 . S
C233 C232 1.387 . S
C233 C235 1.387 . S
H234 C241 0.950 . S
C235 C233 1.387 . S
C235 C237 1.390 . S
C235 H239 0.950 . S
H236 C232 0.950 . S
C237 C235 1.390 . S
C237 C238 1.387 . S
C237 H240 0.950 . S
C238 C237 1.387 . S
C238 C241 1.387 . S
H239 C235 0.950 . S
H240 C237 0.950 . S
C241 C232 1.390 . S
C241 H234 0.950 . S
C241 C238 1.387 . S
C242 C243 1.387 . S
C242 H246 0.950 . S
C242 C251 1.390 . S
C243 C242 1.387 . S
C243 C245 1.387 . S
H244 C251 0.950 . S
C245 C243 1.387 . S
C245 C247 1.390 . S
C245 H249 0.950 . S
H246 C242 0.950 . S
C247 C245 1.390 . S
C247 C248 1.387 . S
C247 H250 0.950 . S
C248 C247 1.387 . S
C248 C251 1.387 . S
H249 C245 0.950 . S
H250 C247 0.950 . S
C251 C242 1.390 . S
C251 H244 0.950 . S
C251 C248 1.387 . S
C252 C253 1.387 . S
C252 H256 0.950 . S
C252 C261 1.390 . S
C253 C252 1.387 . S
C253 C255 1.387 . S
H254 C261 0.950 . S
C255 C253 1.387 . S
C255 C257 1.390 . S
C255 H259 0.950 . S
H256 C252 0.950 . S
C257 C255 1.390 . S
C257 C258 1.387 . S
C257 H260 0.950 . S
C258 C257 1.387 . S
C258 C261 1.387 . S
H259 C255 0.950 . S
H260 C257 0.950 . S
C261 C252 1.390 . S
C261 H254 0.950 . S
C261 C258 1.387 . S
C262 C263 1.387 . S
C262 H266 0.950 . S
C262 C271 1.390 . S
C263 C262 1.387 . S
C263 C265 1.387 . S
H264 C271 0.950 . S
C265 C263 1.387 . S
C265 C267 1.390 . S
C265 H269 0.950 . S
H266 C262 0.950 . S
C267 C265 1.390 . S
C267 C268 1.387 . S
C267 H270 0.950 . S
C268 C267 1.387 . S
C268 C271 1.387 . S
H269 C265 0.950 . S
H270 C267 0.950 . S
C271 C262 1.390 . S
C271 H264 0.950 . S
C271 C268 1.387 . S
C272 C273 1.387 . S
C272 H276 0.950 . S
C272 C281 1.390 . S
C273 C272 1.387 . S
C273 C275 1.387 . S
H274 C281 0.950 . S
C275 C273 1.387 . S
C275 C277 1.390 . S
C275 H279 0.950 . S
H276 C272 0.950 . S
C277 C275 1.390 . S
C277 C278 1.387 . S
C277 H280 0.950 . S
C278 C277 1.387 . S
C278 C281 1.387 . S
H279 C275 0.950 . S
H280 C277 0.950 . S
C281 C272 1.390 . S
C281 H274 0.950 . S
C281 C278 1.387 . S
C282 C283 1.387 . S
C282 H286 0.950 . S
C282 C291 1.390 . S
C283 C282 1.387 . S
C283 C285 1.387 . S
H284 C291 0.950 . S
C285 C283 1.387 . S
C285 C287 1.390 . S
C285 H289 0.950 . S
H286 C282 0.950 . S
C287 C285 1.390 . S
C287 C288 1.387 . S
C287 H290 0.950 . S
C288 C287 1.387 . S
C288 C291 1.387 . S
H289 C285 0.950 . S
H290 C287 0.950 . S
C291 C282 1.390 . S
C291 H284 0.950 . S
C291 C288 1.387 . S
C292 C293 1.387 . S
C292 H296 0.950 . S
C292 C301 1.390 . S
C293 C292 1.387 . S
C293 C295 1.387 . S
H294 C301 0.950 . S
C295 C293 1.387 . S
C295 C297 1.390 . S
C295 H299 0.950 . S
H296 C292 0.950 . S
C297 C295 1.390 . S
C297 C298 1.387 . S
C297 H300 0.950 . S
C298 C297 1.387 . S
C298 C301 1.387 . S
H299 C295 0.950 . S
H300 C297 0.950 . S
C301 C292 1.390 . S
C301 H294 0.950 . S
C301 C298 1.387 . S
C302 C303 1.387 . S
C302 H306 0.950 . S
C302 C311 1.390 . S
C303 C302 1.387 . S
C303 C305 1.387 . S
H304 C311 0.950 . S
C305 C303 1.387 . S
C305 C307 1.390 . S
C305 H309 0.950 . S
H306 C302 0.950 . S
C307 C305 1.390 . S
C307 C308 1.387 . S
C307 H310 0.950 . S
C308 C307 1.387 . S
C308 C311 1.387 . S
H309 C305 0.950 . S
H310 C307 0.950 . S
C311 C302 1.390 . S
C311 H304 0.950 . S
C311 C308 1.387 . S
C312 C313 1.387 1_554 S
C312 H316 0.950 . S
C312 C321 1.390 . S
C313 C312 1.387 1_556 S
C313 C315 1.387 . S
H314 C321 0.950 . S
C315 C313 1.387 . S
C315 C317 1.390 . S
C315 H319 0.950 . S
H316 C312 0.950 . S
C317 C315 1.390 . S
C317 C318 1.387 . S
C317 H320 0.950 . S
C318 C317 1.387 . S
C318 C321 1.387 1_556 S
H319 C315 0.950 . S
H320 C317 0.950 . S
C321 C312 1.390 . S
C321 H314 0.950 . S
C321 C318 1.387 1_554 S
C322 C323 1.387 . S
C322 H326 0.950 . S
C322 C331 1.390 . S
C323 C322 1.387 . S
C323 C325 1.387 . S
H324 C331 0.950 . S
C325 C323 1.387 . S
C325 C327 1.390 . S
C325 H329 0.950 . S
H326 C322 0.950 . S
C327 C325 1.390 . S
C327 C328 1.387 . S
C327 H330 0.950 . S
C328 C327 1.387 . S
C328 C331 1.387 . S
H329 C325 0.950 . S
H330 C327 0.950 . S
C331 C322 1.390 . S
C331 H324 0.950 . S
C331 C328 1.387 . S
C332 C333 1.387 . S
C332 H336 0.950 . S
C332 C341 1.390 . S
C333 C332 1.387 . S
C333 C335 1.387 . S
H334 C341 0.950 . S
C335 C333 1.387 . S
C335 C337 1.390 . S
C335 H339 0.950 . S
H336 C332 0.950 . S
C337 C335 1.390 . S
C337 C338 1.387 . S
C337 H340 0.950 . S
C338 C337 1.387 . S
C338 C341 1.387 . S
H339 C335 0.950 . S
H340 C337 0.950 . S
C341 C332 1.390 . S
C341 H334 0.950 . S
C341 C338 1.387 . S
C342 C343 1.387 . S
C342 H346 0.950 . S
C342 C351 1.390 . S
C343 C342 1.387 . S
C343 C345 1.387 . S
H344 C351 0.950 . S
C345 C343 1.387 . S
C345 C347 1.390 . S
C345 H349 0.950 . S
H346 C342 0.950 . S
C347 C345 1.390 . S
C347 C348 1.387 . S
C347 H350 0.950 . S
C348 C347 1.387 . S
C348 C351 1.387 . S
H349 C345 0.950 . S
H350 C347 0.950 . S
C351 C342 1.390 . S
C351 H344 0.950 . S
C351 C348 1.387 . S
C352 C353 1.387 . S
C352 H356 0.950 . S
C352 C361 1.390 . S
C353 C352 1.387 . S
C353 C355 1.387 . S
H354 C361 0.950 . S
C355 C353 1.387 . S
C355 C357 1.390 . S
C355 H359 0.950 . S
H356 C352 0.950 . S
C357 C355 1.390 . S
C357 C358 1.387 . S
C357 H360 0.950 . S
C358 C357 1.387 . S
C358 C361 1.387 . S
H359 C355 0.950 . S
H360 C357 0.950 . S
C361 C352 1.390 . S
C361 H354 0.950 . S
C361 C358 1.387 . S
C362 C363 1.387 . S
C362 H366 0.950 . S
C362 C371 1.390 . S
C363 C362 1.387 . S
C363 C365 1.387 . S
H364 C371 0.950 . S
C365 C363 1.387 . S
C365 C367 1.390 . S
C365 H369 0.950 . S
H366 C362 0.950 . S
C367 C365 1.390 . S
C367 C368 1.387 . S
C367 H370 0.950 . S
C368 C367 1.387 . S
C368 C371 1.387 . S
H369 C365 0.950 . S
H370 C367 0.950 . S
C371 C362 1.390 . S
C371 H364 0.950 . S
C371 C368 1.387 . S
C372 C373 1.387 . S
C372 H376 0.950 . S
C372 C381 1.390 . S
C373 C372 1.387 . S
C373 C375 1.387 . S
H374 C381 0.950 . S
C375 C373 1.387 . S
C375 C377 1.390 . S
C375 H379 0.950 . S
H376 C372 0.950 . S
C377 C375 1.390 . S
C377 C378 1.387 . S
C377 H380 0.950 . S
C378 C377 1.387 . S
C378 C381 1.387 . S
H379 C375 0.950 . S
H380 C377 0.950 . S
C381 C372 1.390 . S
C381 H374 0.950 . S
C381 C378 1.387 . S
C382 C383 1.387 . S
C382 H386 0.950 . S
C382 C391 1.390 . S
C383 C382 1.387 . S
C383 C385 1.387 . S
H384 C391 0.950 . S
C385 C383 1.387 . S
C385 C387 1.390 . S
C385 H389 0.950 1_554 S
H386 C382 0.950 . S
C387 C385 1.390 . S
C387 C388 1.387 . S
C387 H390 0.950 . S
C388 C387 1.387 . S
C388 C391 1.387 . S
H389 C385 0.950 1_556 S
H390 C387 0.950 . S
C391 C382 1.390 . S
C391 H384 0.950 . S
C391 C388 1.387 . S
C392 C393 1.387 . S
C392 H396 0.950 . S
C392 C401 1.390 . S
C393 C392 1.387 . S
C393 C395 1.387 . S
H394 C401 0.950 . S
C395 C393 1.387 . S
C395 C397 1.390 . S
C395 H399 0.950 . S
H396 C392 0.950 . S
C397 C395 1.390 . S
C397 C398 1.387 . S
C397 H400 0.950 . S
C398 C397 1.387 . S
C398 C401 1.387 . S
H399 C395 0.950 . S
H400 C397 0.950 . S
C401 C392 1.390 . S
C401 H394 0.950 . S
C401 C398 1.387 . S
C402 C403 1.387 . S
C402 H406 0.950 . S
C402 C411 1.390 . S
C403 C402 1.387 . S
C403 C405 1.387 . S
H404 C411 0.950 . S
C405 C403 1.387 . S
C405 C407 1.390 . S
C405 H409 0.950 . S
H406 C402 0.950 . S
C407 C405 1.390 . S
C407 C408 1.387 . S
C407 H410 0.950 . S
C408 C407 1.387 . S
C408 C411 1.387 . S
H409 C405 0.950 . S
H410 C407 0.950 . S
C411 C402 1.390 . S
C411 H404 0.950 . S
C411 C408 1.387 . S
C178 C100 1.512 . S
C173 N4 1.506 . S
C188 C103 1.665 . S
C183 C17 1.679 . S
C198 C101 1.436 . S
C193 C28 1.441 . S
C208 C102 1.506 . S
C203 C39 1.535 . S
C218 C117 1.694 . S
C213 C6 1.703 . S
C228 C131 1.650 . S
C223 C20 1.641 . S
C233 C31 1.584 . S
C238 C157 1.588 . S
C248 C171 1.429 . S
C243 N37 1.423 . S
C258 C116 1.633 . S
C253 N15 1.613 . S
C263 N26 1.484 . S
C268 C130 1.455 . S
C278 C156 1.588 . S
C273 C42 1.568 . S
C288 C170 1.572 . S
C283 C9 1.569 . S
C293 C53 1.719 . S
C298 C115 1.711 . S
C308 C88 1.587 . S
C303 C64 1.584 . S
C313 N70 1.552 . S
C318 C114 1.545 . S
C323 C83 1.523 . S
C328 C89 1.542 . S
C338 C144 1.504 . S
C333 N48 1.493 . S
C348 C158 1.581 . S
C343 C61 1.585 . S
C358 C128 1.580 . S
C353 C72 1.591 . S
C363 N81 1.604 . S
C368 C142 1.587 . S
C378 C145 1.552 . S
C373 N59 1.532 . S
C388 C159 1.592 . S
C383 C75 1.568 1_554 S
C398 C129 1.591 . S
C393 C86 1.599 . S
C403 C50 1.678 . S
C408 C143 1.663 . S
