# Generated by pormake.
# Topology pth, (4,4)-cn, num edge types: 1
# Building blocks:
#     Node 0, Type 0, BuildingBlock: AZAVOO_clean_sbu_0, # of connection points: 4
#     Node 1, Type 0, BuildingBlock: AZAVOO_clean_sbu_0, # of connection points: 4
#     Node 2, Type 0, BuildingBlock: AZAVOO_clean_sbu_0, # of connection points: 4
#     Node 3, Type 1, BuildingBlock: NAHDIM_clean_linker_0, # of connection points: 4
#     Node 4, Type 1, BuildingBlock: NAHDIM_clean_linker_0, # of connection points: 4
#     Node 5, Type 1, BuildingBlock: NAHDIM_clean_linker_0, # of connection points: 4
#     Edge 6, Type (0, 1), BuildingBlock: FUNLAD_clean_linker_1, # of connection points: 2
#     Edge 7, Type (0, 1), BuildingBlock: FUNLAD_clean_linker_1, # of connection points: 2
#     Edge 8, Type (0, 1), BuildingBlock: FUNLAD_clean_linker_1, # of connection points: 2
#     Edge 9, Type (0, 1), BuildingBlock: FUNLAD_clean_linker_1, # of connection points: 2
#     Edge 10, Type (0, 1), BuildingBlock: FUNLAD_clean_linker_1, # of connection points: 2
#     Edge 11, Type (0, 1), BuildingBlock: FUNLAD_clean_linker_1, # of connection points: 2
#     Edge 12, Type (0, 1), BuildingBlock: FUNLAD_clean_linker_1, # of connection points: 2
#     Edge 13, Type (0, 1), BuildingBlock: FUNLAD_clean_linker_1, # of connection points: 2
#     Edge 14, Type (0, 1), BuildingBlock: FUNLAD_clean_linker_1, # of connection points: 2
#     Edge 15, Type (0, 1), BuildingBlock: FUNLAD_clean_linker_1, # of connection points: 2
#     Edge 16, Type (0, 1), BuildingBlock: FUNLAD_clean_linker_1, # of connection points: 2
#     Edge 17, Type (0, 1), BuildingBlock: FUNLAD_clean_linker_1, # of connection points: 2
# Relax obj value: 0.086
# Max RMSD: 0.220
# Mean RMSD: 0.131
data_MOF--net-pth--node1-AZAVOO_clean_sbu_0--node2-NAHDIM_clean_linker_0--edge1-FUNLAD_clean_linker_1
_symmetry_space_group_name_H-M    P1
_symmetry_Int_Tables_number       1
_symmetry_cell_setting            triclinic
loop_
_symmetry_equiv_pos_as_xyz
'x, y, z'
_cell_length_a     32.436576
_cell_length_b     33.028359
_cell_length_c     81.727824
_cell_angle_alpha  90.422164
_cell_angle_beta   93.107289
_cell_angle_gamma 121.92919
loop_
_atom_site_label
_atom_site_type_symbol
_atom_site_fract_x
_atom_site_fract_y
_atom_site_fract_z
_atom_type_partial_charge
Mg0 Mg 0.11579 0.08602 0.07294 0.0
O1 O 0.04865 0.03706 0.05562 0.0
O2 O 0.0371 0.08282 0.03829 0.0
Mg3 Mg 0.09757 0.1609 0.04414 0.0
C4 C 0.02499 0.04197 0.04364 0.0
C5 C 0.08011 0.98256 0.08559 0.0
O6 O 0.07754 0.97201 0.06989 0.0
O7 O 0.07355 0.11114 0.08686 0.0
O8 O 0.06857 0.16032 0.06928 0.0
O9 O 0.16415 0.08248 0.05502 0.0
O10 O 0.14358 0.13646 0.05509 0.0
C11 C 0.06134 0.14111 0.08318 0.0
C12 C 0.16537 0.11845 0.04828 0.0
O13 O 0.09449 0.02502 0.09033 0.0
Mg14 Mg 0.01032 0.0892 0.36829 0.0
O15 O 0.07148 0.09954 0.38682 0.0
O16 O 0.08238 0.15424 0.4058 0.0
Mg17 Mg 0.02753 0.17664 0.40008 0.0
C18 C 0.09319 0.12539 0.39989 0.0
C19 C 0.0284 0.01286 0.35268 0.0
O20 O 0.01711 0.99472 0.3672 0.0
O21 O 0.06154 0.16141 0.35758 0.0
O22 O 0.06585 0.2124 0.37679 0.0
O23 O 0.95452 0.03165 0.38332 0.0
O24 O 0.98082 0.10829 0.38646 0.0
C25 C 0.0761 0.2037 0.36282 0.0
C26 C 0.95475 0.06564 0.39141 0.0
O27 O 0.02997 0.05132 0.34973 0.0
Mg28 Mg 0.98869 0.02437 0.69944 0.0
O29 O 0.03699 0.0796 0.71977 0.0
O30 O 0.99128 0.0892 0.73699 0.0
Mg31 Mg 0.91177 0.03884 0.7271 0.0
C32 C 0.03264 0.09911 0.73252 0.0
C33 C 0.06426 0.02438 0.67625 0.0
O34 O 0.03242 0.97819 0.67474 0.0
O35 O 0.97465 0.07791 0.68721 0.0
O36 O 0.92476 0.08257 0.70393 0.0
O37 O 0.98228 0.96647 0.71532 0.0
O38 O 0.93193 0.9926 0.71484 0.0
C39 C 0.94796 0.09385 0.69089 0.0
C40 C 0.94572 0.9659 0.72124 0.0
O41 O 0.05616 0.05059 0.68523 0.0
C42 C 0.94772 0.75442 0.30984 0.0
C43 C 0.98577 0.75336 0.2998 0.0
C44 C 0.99192 0.68677 0.289 0.0
C45 C 0.04055 0.71427 0.28479 0.0
C46 C 0.06206 0.69278 0.27682 0.0
C47 C 0.03465 0.64291 0.27329 0.0
C48 C 0.98643 0.61504 0.27818 0.0
C49 C 0.96567 0.63749 0.28584 0.0
C50 C 0.11358 0.72337 0.27184 0.0
C51 C 0.95641 0.56154 0.27511 0.0
C52 C 0.28613 0.56965 0.32655 0.0
C53 C 0.23277 0.5451 0.32017 0.0
C54 C 0.19702 0.55211 0.29417 0.0
C55 C 0.14866 0.53116 0.29837 0.0
C56 C 0.11529 0.53729 0.28875 0.0
C57 C 0.13117 0.56654 0.27502 0.0
C58 C 0.18013 0.58789 0.27087 0.0
C59 C 0.21194 0.57917 0.28025 0.0
C60 C 0.06317 0.51253 0.29334 0.0
C61 C 0.19944 0.62076 0.25674 0.0
C62 C 0.017 0.37763 0.18149 0.0
C63 C 0.98411 0.37399 0.19278 0.0
C64 C 0.98568 0.41478 0.19873 0.0
C65 C 0.02164 0.46038 0.19363 0.0
C66 C 0.05472 0.46421 0.18224 0.0
C67 C 0.05161 0.42267 0.17621 0.0
C68 C 0.94876 0.40901 0.21051 0.0
C69 C 0.09365 0.51218 0.1766 0.0
C70 C 0.882 0.69086 0.16481 0.0
C71 C 0.92856 0.69254 0.16109 0.0
C72 C 0.93782 0.62558 0.16701 0.0
C73 C 0.90784 0.57889 0.17192 0.0
C74 C 0.92687 0.55694 0.18168 0.0
C75 C 0.97749 0.58191 0.18611 0.0
C76 C 0.00838 0.6283 0.18035 0.0
C77 C 0.98809 0.64986 0.17101 0.0
C78 C 0.89268 0.50756 0.18758 0.0
C79 C 0.06279 0.65537 0.18416 0.0
C80 C 0.05515 0.61938 0.26407 0.0
C81 C 0.0843 0.60619 0.27274 0.0
C82 C 0.09744 0.57653 0.26541 0.0
C83 C 0.07937 0.55801 0.24916 0.0
C84 C 0.0868 0.52373 0.24198 0.0
C85 C 0.06867 0.50574 0.226 0.0
C86 C 0.04338 0.52214 0.21647 0.0
C87 C 0.0242 0.5037 0.20031 0.0
C88 C 0.00332 0.52402 0.19068 0.0
C89 C 0.9981 0.56032 0.19713 0.0
C90 C 0.01238 0.57552 0.21382 0.0
C91 C 0.00278 0.60796 0.22127 0.0
C92 C 0.0165 0.6222 0.23774 0.0
C93 C 0.04162 0.60565 0.24727 0.0
C94 C 0.05275 0.57392 0.23991 0.0
C95 C 0.03641 0.55739 0.22336 0.0
C96 C 0.0157 0.28943 0.19685 0.0
C97 C 0.99138 0.29271 0.18075 0.0
O98 O 0.96819 0.70592 0.2957 0.0
O99 O 0.91734 0.64621 0.15835 0.0
O100 O 0.01681 0.33904 0.17538 0.0
O101 O 0.23014 0.54692 0.30325 0.0
H102 H 0.02007 0.76834 0.30771 0.0
H103 H 0.93369 0.72541 0.31871 0.0
H104 H 0.91644 0.74916 0.30176 0.0
H105 H 0.96381 0.78828 0.31723 0.0
H106 H 0.06157 0.75244 0.28739 0.0
H107 H 0.92836 0.61658 0.28925 0.0
H108 H 0.13673 0.71196 0.27816 0.0
H109 H 0.12945 0.7619 0.27487 0.0
H110 H 0.11448 0.71842 0.25843 0.0
H111 H 0.92208 0.54453 0.2815 0.0
H112 H 0.97766 0.5455 0.27924 0.0
H113 H 0.94699 0.55313 0.26175 0.0
H114 H 0.21779 0.56517 0.32573 0.0
H115 H 0.28904 0.56891 0.34014 0.0
H116 H 0.30619 0.60751 0.32305 0.0
H117 H 0.30358 0.55171 0.32126 0.0
H118 H 0.13671 0.50955 0.30902 0.0
H119 H 0.24932 0.595 0.27711 0.0
H120 H 0.05706 0.53889 0.29943 0.0
H121 H 0.05437 0.48348 0.30191 0.0
H122 H 0.03763 0.49723 0.28224 0.0
H123 H 0.23988 0.64203 0.25735 0.0
H124 H 0.18626 0.64569 0.25655 0.0
H125 H 0.18628 0.59926 0.24501 0.0
H126 H 0.95301 0.28115 0.18252 0.0
H127 H 0.95693 0.33958 0.19702 0.0
H128 H 0.07678 0.42523 0.16747 0.0
H129 H 0.96716 0.42302 0.2229 0.0
H130 H 0.91915 0.37108 0.21142 0.0
H131 H 0.9323 0.42984 0.2066 0.0
H132 H 0.11926 0.50947 0.16885 0.0
H133 H 0.11464 0.53664 0.18737 0.0
H134 H 0.07635 0.52837 0.16941 0.0
H135 H 0.95499 0.71012 0.17195 0.0
H136 H 0.88985 0.72743 0.16743 0.0
H137 H 0.86657 0.6695 0.17577 0.0
H138 H 0.8544 0.67412 0.15427 0.0
H139 H 0.86912 0.56029 0.16854 0.0
H140 H 0.01146 0.68551 0.16673 0.0
H141 H 0.89889 0.50685 0.20104 0.0
H142 H 0.90002 0.48185 0.18166 0.0
H143 H 0.85386 0.49535 0.18466 0.0
H144 H 0.08223 0.68684 0.17645 0.0
H145 H 0.07699 0.6317 0.18226 0.0
H146 H 0.07124 0.66813 0.19722 0.0
H147 H 0.09614 0.61847 0.28545 0.0
H148 H 0.10608 0.50991 0.24873 0.0
H149 H 0.07517 0.47918 0.22112 0.0
H150 H 0.99013 0.51078 0.17811 0.0
H151 H 0.98378 0.62207 0.21452 0.0
H152 H 0.00778 0.64688 0.24288 0.0
H153 H 0.05404 0.30053 0.1952 0.0
H154 H 0.99562 0.25224 0.20106 0.0
H155 H 0.01559 0.31302 0.20657 0.0
C156 C 0.41818 0.18234 0.62871 0.0
C157 C 0.38092 0.14108 0.61696 0.0
C158 C 0.43101 0.11645 0.6035 0.0
C159 C 0.45655 0.15695 0.59407 0.0
C160 C 0.49307 0.16202 0.5842 0.0
C161 C 0.50365 0.12565 0.5836 0.0
C162 C 0.47725 0.08448 0.5928 0.0
C163 C 0.44137 0.08055 0.60264 0.0
C164 C 0.52071 0.20633 0.57454 0.0
C165 C 0.48746 0.04488 0.59242 0.0
C166 C 0.85159 0.32783 0.63026 0.0
C167 C 0.81314 0.27497 0.62673 0.0
C168 C 0.76654 0.23471 0.60119 0.0
C169 C 0.73043 0.1912 0.60715 0.0
C170 C 0.686 0.16184 0.598 0.0
C171 C 0.67674 0.17738 0.58289 0.0
C172 C 0.7136 0.2212 0.5768 0.0
C173 C 0.75858 0.24846 0.58585 0.0
C174 C 0.64877 0.11474 0.60473 0.0
C175 C 0.70525 0.24051 0.56111 0.0
C176 C 0.68668 0.02914 0.49002 0.0
C177 C 0.65128 0.99726 0.50035 0.0
C178 C 0.61886 0.0078 0.50702 0.0
C179 C 0.62211 0.05121 0.50343 0.0
C180 C 0.65758 0.08331 0.49304 0.0
C181 C 0.6893 0.07172 0.48644 0.0
C182 C 0.5812 0.97262 0.51799 0.0
C183 C 0.66222 0.13002 0.48904 0.0
C184 C 0.34691 0.11441 0.48215 0.0
C185 C 0.35348 0.09375 0.4663 0.0
C186 C 0.39733 0.05742 0.47795 0.0
C187 C 0.39143 0.01516 0.48389 0.0
C188 C 0.42902 0.01539 0.49341 0.0
C189 C 0.47375 0.059 0.49689 0.0
C190 C 0.48077 0.10154 0.4903 0.0
C191 C 0.44258 0.10037 0.48096 0.0
C192 C 0.42054 0.96943 0.50017 0.0
C193 C 0.52843 0.14864 0.49343 0.0
C194 C 0.54339 0.13081 0.57389 0.0
C195 C 0.58977 0.15125 0.5818 0.0
C196 C 0.62725 0.15062 0.57432 0.0
C197 C 0.61752 0.12718 0.55874 0.0
C198 C 0.65217 0.12067 0.55158 0.0
C199 C 0.64253 0.09879 0.53601 0.0
C200 C 0.59841 0.08383 0.52686 0.0
C201 C 0.58877 0.06313 0.51081 0.0
C202 C 0.54674 0.05328 0.50148 0.0
C203 C 0.51269 0.06136 0.50809 0.0
C204 C 0.51918 0.07695 0.52471 0.0
C205 C 0.48324 0.08056 0.53227 0.0
C206 C 0.49046 0.09686 0.54855 0.0
C207 C 0.53487 0.11253 0.55757 0.0
C208 C 0.5718 0.10985 0.55009 0.0
C209 C 0.56302 0.08993 0.53391 0.0
C210 C 0.75229 0.98654 0.50144 0.0
C211 C 0.72355 0.98147 0.48524 0.0
O212 O 0.39673 0.11046 0.61375 0.0
O213 O 0.35847 0.05539 0.46974 0.0
O214 O 0.71912 0.02073 0.48334 0.0
O215 O 0.80908 0.26444 0.61006 0.0
H216 H 0.37486 0.1551 0.60533 0.0
H217 H 0.45373 0.20346 0.62319 0.0
H218 H 0.42388 0.16844 0.6404 0.0
H219 H 0.40531 0.20672 0.63142 0.0
H220 H 0.4487 0.18493 0.59445 0.0
H221 H 0.42137 0.04941 0.60989 0.0
H222 H 0.56008 0.22533 0.57848 0.0
H223 H 0.5078 0.23119 0.57614 0.0
H224 H 0.51682 0.19624 0.5613 0.0
H225 H 0.46272 0.01458 0.59993 0.0
H226 H 0.52562 0.05896 0.59712 0.0
H227 H 0.48338 0.03133 0.57959 0.0
H228 H 0.77807 0.26895 0.63073 0.0
H229 H 0.85526 0.33696 0.64359 0.0
H230 H 0.84055 0.35008 0.62353 0.0
H231 H 0.88752 0.33659 0.62626 0.0
H232 H 0.73689 0.18006 0.61894 0.0
H233 H 0.78695 0.28204 0.58135 0.0
H234 H 0.62915 0.08684 0.59473 0.0
H235 H 0.62162 0.11905 0.61092 0.0
H236 H 0.66584 0.10225 0.61386 0.0
H237 H 0.73304 0.27902 0.56007 0.0
H238 H 0.66867 0.23581 0.5603 0.0
H239 H 0.70731 0.2208 0.55046 0.0
H240 H 0.68703 0.94806 0.48496 0.0
H241 H 0.6487 0.96421 0.50336 0.0
H242 H 0.71669 0.09613 0.47848 0.0
H243 H 0.58859 0.98896 0.53056 0.0
H244 H 0.58108 0.93898 0.51869 0.0
H245 H 0.54438 0.96388 0.51345 0.0
H246 H 0.69333 0.15221 0.48143 0.0
H247 H 0.66711 0.15065 0.50054 0.0
H248 H 0.62822 0.12289 0.4823 0.0
H249 H 0.38604 0.12177 0.46035 0.0
H250 H 0.34244 0.14486 0.47947 0.0
H251 H 0.37923 0.12781 0.49092 0.0
H252 H 0.31435 0.08658 0.48814 0.0
H253 H 0.35668 0.98208 0.48142 0.0
H254 H 0.44843 0.13339 0.47627 0.0
H255 H 0.42458 0.97267 0.51378 0.0
H256 H 0.44843 0.9626 0.49601 0.0
H257 H 0.38381 0.93837 0.49628 0.0
H258 H 0.52992 0.17744 0.48605 0.0
H259 H 0.55931 0.14482 0.49056 0.0
H260 H 0.53346 0.15969 0.50661 0.0
H261 H 0.59664 0.16758 0.59401 0.0
H262 H 0.68696 0.1322 0.55801 0.0
H263 H 0.67053 0.09473 0.53109 0.0
H264 H 0.54095 0.04009 0.48885 0.0
H265 H 0.44886 0.0701 0.52575 0.0
H266 H 0.4614 0.09839 0.55384 0.0
H267 H 0.78898 0.01977 0.50193 0.0
H268 H 0.75647 0.95541 0.50278 0.0
H269 H 0.73284 0.98801 0.51197 0.0
C270 C 0.68695 0.70075 0.7921 0.0
C271 C 0.7286 0.73286 0.80492 0.0
C272 C 0.7008 0.67846 0.82776 0.0
C273 C 0.66242 0.68426 0.83164 0.0
C274 C 0.62719 0.65307 0.8421 0.0
C275 C 0.63045 0.61549 0.84885 0.0
C276 C 0.67023 0.61092 0.84557 0.0
C277 C 0.70511 0.64278 0.83516 0.0
C278 C 0.58573 0.65948 0.8456 0.0
C279 C 0.67498 0.57135 0.85262 0.0
C280 C 0.3751 0.35801 0.79093 0.0
C281 C 0.34137 0.33741 0.80508 0.0
C282 C 0.38683 0.40282 0.82604 0.0
C283 C 0.42503 0.39511 0.82964 0.0
C284 C 0.46569 0.42741 0.84003 0.0
C285 C 0.46798 0.46787 0.84705 0.0
C286 C 0.42899 0.47495 0.84382 0.0
C287 C 0.38889 0.44221 0.83339 0.0
C288 C 0.50651 0.41869 0.84338 0.0
C289 C 0.43012 0.5176 0.85117 0.0
C290 C 0.43339 0.36792 0.95001 0.0
C291 C 0.47237 0.37334 0.94145 0.0
C292 C 0.50443 0.41657 0.9343 0.0
C293 C 0.4966 0.45482 0.93526 0.0
C294 C 0.45773 0.4497 0.94398 0.0
C295 C 0.427 0.40645 0.95141 0.0
C296 C 0.54637 0.42102 0.92553 0.0
C297 C 0.44801 0.4895 0.94517 0.0
C298 C 0.7493 0.81868 0.94771 0.0
C299 C 0.73464 0.79522 0.96426 0.0
C300 C 0.69876 0.71074 0.95587 0.0
C301 C 0.70848 0.67441 0.9544 0.0
C302 C 0.67595 0.63153 0.94543 0.0
C303 C 0.63223 0.62465 0.93794 0.0
C304 C 0.62131 0.66056 0.93984 0.0
C305 C 0.65473 0.70326 0.94867 0.0
C306 C 0.68872 0.59402 0.94365 0.0
C307 C 0.57446 0.65405 0.93236 0.0
C308 C 0.59046 0.57875 0.85827 0.0
C309 C 0.54977 0.54137 0.84937 0.0
C310 C 0.51181 0.50393 0.85729 0.0
C311 C 0.51525 0.50248 0.87456 0.0
C312 C 0.47938 0.46373 0.88286 0.0
C313 C 0.48358 0.46238 0.89986 0.0
C314 C 0.52306 0.50038 0.90922 0.0
C315 C 0.528 0.49913 0.92649 0.0
C316 C 0.56472 0.53963 0.93554 0.0
C317 C 0.59822 0.58072 0.92771 0.0
C318 C 0.59694 0.58052 0.91037 0.0
C319 C 0.63289 0.61928 0.90205 0.0
C320 C 0.63127 0.61859 0.88498 0.0
C321 C 0.59281 0.5798 0.8756 0.0
C322 C 0.55555 0.54095 0.88375 0.0
C323 C 0.55855 0.54061 0.90113 0.0
C324 C 0.36854 0.25853 0.93834 0.0
C325 C 0.39569 0.28215 0.95491 0.0
O326 O 0.73354 0.70542 0.81669 0.0
O327 O 0.73285 0.75227 0.96411 0.0
O328 O 0.40114 0.32652 0.95702 0.0
O329 O 0.34779 0.37395 0.81545 0.0
H330 H 0.7215 0.75881 0.81086 0.0
H331 H 0.65158 0.68108 0.7978 0.0
H332 H 0.69357 0.67433 0.7863 0.0
H333 H 0.68377 0.72255 0.7824 0.0
H334 H 0.65916 0.71244 0.82635 0.0
H335 H 0.7351 0.6389 0.83227 0.0
H336 H 0.55129 0.62937 0.83965 0.0
H337 H 0.59126 0.69346 0.84099 0.0
H338 H 0.58146 0.65885 0.85901 0.0
H339 H 0.70783 0.57239 0.84875 0.0
H340 H 0.64227 0.53619 0.84865 0.0
H341 H 0.677 0.57416 0.86622 0.0
H342 H 0.34874 0.31281 0.81203 0.0
H343 H 0.36947 0.3288 0.78244 0.0
H344 H 0.41386 0.37817 0.79561 0.0
H345 H 0.36777 0.38256 0.78395 0.0
H346 H 0.42371 0.36437 0.82431 0.0
H347 H 0.35916 0.44771 0.83066 0.0
H348 H 0.51313 0.41777 0.8568 0.0
H349 H 0.54056 0.44856 0.83877 0.0
H350 H 0.49857 0.38468 0.83746 0.0
H351 H 0.39662 0.51768 0.84761 0.0
H352 H 0.46207 0.55098 0.84713 0.0
H353 H 0.43425 0.51787 0.86476 0.0
H354 H 0.43173 0.28568 0.95561 0.0
H355 H 0.47826 0.34422 0.94022 0.0
H356 H 0.39701 0.40212 0.95807 0.0
H357 H 0.53836 0.41947 0.91208 0.0
H358 H 0.55276 0.39189 0.92845 0.0
H359 H 0.58037 0.45584 0.92885 0.0
H360 H 0.41387 0.47843 0.95118 0.0
H361 H 0.44549 0.50171 0.93274 0.0
H362 H 0.47877 0.52039 0.95236 0.0
H363 H 0.69867 0.78924 0.96697 0.0
H364 H 0.75171 0.85352 0.948 0.0
H365 H 0.72187 0.79566 0.93773 0.0
H366 H 0.78514 0.82467 0.94478 0.0
H367 H 0.7423 0.6802 0.96005 0.0
H368 H 0.64604 0.73051 0.94977 0.0
H369 H 0.6882 0.5854 0.93045 0.0
H370 H 0.66099 0.56073 0.94924 0.0
H371 H 0.72513 0.60565 0.9496 0.0
H372 H 0.56874 0.68271 0.93653 0.0
H373 H 0.54293 0.61901 0.93553 0.0
H374 H 0.57517 0.65429 0.9188 0.0
H375 H 0.54749 0.54153 0.83607 0.0
H376 H 0.44808 0.43367 0.87628 0.0
H377 H 0.45513 0.43143 0.90559 0.0
H378 H 0.56714 0.53925 0.94882 0.0
H379 H 0.66312 0.65023 0.90866 0.0
H380 H 0.66015 0.64911 0.87921 0.0
H381 H 0.36356 0.22271 0.93678 0.0
H382 H 0.38969 0.28058 0.92818 0.0
H383 H 0.33226 0.25457 0.93746 0.0
H384 H 0.03912 0.18864 0.09264 0.0
C385 C 0.04312 0.15887 0.09577 0.0
H386 H 0.04145 0.11477 0.11458 0.0
H387 H 0.09763 0.26931 0.17138 0.0
H388 H 0.16272 0.25382 0.17433 0.0
H389 H 0.16829 0.20099 0.1543 0.0
H390 H 0.10851 0.16283 0.13136 0.0
C391 C 0.03624 0.14356 0.11115 0.0
C392 C 0.02939 0.17083 0.12425 0.0
C393 C 0.06506 0.1932 0.13755 0.0
C394 C 0.06262 0.2247 0.14887 0.0
C395 C 0.09826 0.24591 0.1622 0.0
C396 C 0.13579 0.23721 0.16409 0.0
C397 C 0.13887 0.20741 0.15283 0.0
C398 C 0.10413 0.18564 0.13969 0.0
H399 H 0.95863 0.22162 0.16764 0.0
C400 C 0.98935 0.25833 0.16797 0.0
H401 H 0.05776 0.30615 0.15901 0.0
H402 H 0.94932 0.12546 0.10255 0.0
H403 H 0.88542 0.14274 0.09895 0.0
H404 H 0.88639 0.20438 0.1165 0.0
H405 H 0.95019 0.24796 0.138 0.0
C406 C 0.02543 0.27038 0.158 0.0
C407 C 0.02517 0.23461 0.1467 0.0
C408 C 0.98881 0.21133 0.13361 0.0
C409 C 0.98998 0.17809 0.12278 0.0
C410 C 0.95147 0.15286 0.11055 0.0
C411 C 0.9144 0.16216 0.10844 0.0
C412 C 0.91482 0.19668 0.11837 0.0
C413 C 0.95153 0.22118 0.13079 0.0
H414 H 0.93348 0.08834 0.41304 0.0
C415 C 0.92805 0.05725 0.40625 0.0
H416 H 0.88817 0.98177 0.4042 0.0
H417 H 0.86702 0.03258 0.48131 0.0
H418 H 0.94948 0.05002 0.48601 0.0
H419 H 0.99473 0.04789 0.46304 0.0
H420 H 0.95767 0.0282 0.4352 0.0
C421 C 0.89596 0.01347 0.41118 0.0
C422 C 0.86665 0.00808 0.4253 0.0
C423 C 0.88863 0.01927 0.44148 0.0
C424 C 0.86249 0.02041 0.45471 0.0
C425 C 0.88534 0.03163 0.47077 0.0
C426 C 0.93261 0.04156 0.47366 0.0
C427 C 0.9581 0.04038 0.46072 0.0
C428 C 0.93651 0.02928 0.4448 0.0
H429 H 0.73462 0.94173 0.46538 0.0
C430 C 0.74885 0.97699 0.47102 0.0
H431 H 0.80459 0.04979 0.47162 0.0
H432 H 0.81268 0.9808 0.39595 0.0
H433 H 0.7304 0.96371 0.39104 0.0
H434 H 0.68616 0.96928 0.4137 0.0
H435 H 0.72355 0.99139 0.44136 0.0
C436 C 0.78877 0.01489 0.46548 0.0
C437 C 0.81438 0.01026 0.45171 0.0
C438 C 0.79192 0.99781 0.43554 0.0
C439 C 0.81787 0.99588 0.42237 0.0
C440 C 0.79472 0.98321 0.40635 0.0
C441 C 0.74753 0.97332 0.40336 0.0
C442 C 0.72259 0.97635 0.41613 0.0
C443 C 0.74441 0.98871 0.43201 0.0
H444 H 0.89219 0.94127 0.73985 0.0
C445 C 0.92121 0.93781 0.73537 0.0
H446 H 0.95879 0.90159 0.7378 0.0
H447 H 0.84021 0.8746 0.80587 0.0
H448 H 0.90473 0.95678 0.81275 0.0
H449 H 0.96866 0.00282 0.79367 0.0
H450 H 0.96833 0.9669 0.76755 0.0
C451 C 0.93137 0.90724 0.74243 0.0
C452 C 0.9007 0.8768 0.75551 0.0
C453 C 0.90195 0.89785 0.77084 0.0
C454 C 0.86532 0.8712 0.78186 0.0
C455 C 0.86701 0.89338 0.79699 0.0
C456 C 0.90392 0.94044 0.80111 0.0
C457 C 0.93989 0.96637 0.79037 0.0
C458 C 0.93914 0.94548 0.77539 0.0
H459 H 0.79889 0.7462 0.79593 0.0
C460 C 0.77546 0.76046 0.79646 0.0
H461 H 0.76187 0.81295 0.78838 0.0
H462 H 0.89312 0.82392 0.72835 0.0
H463 H 0.83012 0.74124 0.7216 0.0
H464 H 0.76459 0.69551 0.74015 0.0
H465 H 0.76187 0.73182 0.76553 0.0
C466 C 0.78534 0.79876 0.78788 0.0
C467 C 0.82777 0.8234 0.77759 0.0
C468 C 0.82855 0.80127 0.76273 0.0
C469 C 0.86565 0.82791 0.75181 0.0
C470 C 0.86552 0.80536 0.73699 0.0
C471 C 0.82961 0.75794 0.73297 0.0
C472 C 0.79278 0.73218 0.74343 0.0
C473 C 0.79187 0.75347 0.75807 0.0
H474 H 0.06929 0.95664 0.11072 0.0
C475 C 0.06534 0.94562 0.09787 0.0
H476 H 0.03988 0.88712 0.08096 0.0
H477 H 0.06612 0.8025 0.15203 0.0
H478 H 0.15279 0.85282 0.14865 0.0
H479 H 0.18321 0.9076 0.12583 0.0
H480 H 0.12713 0.91249 0.10625 0.0
C481 C 0.04596 0.89924 0.09376 0.0
C482 C 0.02785 0.86286 0.10654 0.0
C483 C 0.06106 0.8601 0.11777 0.0
C484 C 0.04348 0.82827 0.13087 0.0
C485 C 0.07749 0.8263 0.14193 0.0
C486 C 0.12733 0.85485 0.1401 0.0
C487 C 0.14446 0.88572 0.12725 0.0
C488 C 0.11189 0.88837 0.11616 0.0
H489 H 0.94044 0.70286 0.1342 0.0
C490 C 0.94963 0.72128 0.14616 0.0
H491 H 0.98431 0.78762 0.15923 0.0
H492 H 0.95453 0.85666 0.08632 0.0
H493 H 0.86785 0.80634 0.08957 0.0
H494 H 0.83727 0.7531 0.11278 0.0
H495 H 0.89297 0.7495 0.13276 0.0
C496 C 0.97512 0.76926 0.14727 0.0
C497 C 0.99273 0.799 0.13264 0.0
C498 C 0.95941 0.80083 0.12112 0.0
C499 C 0.97706 0.83232 0.10792 0.0
C500 C 0.94312 0.83355 0.0966 0.0
C501 C 0.89325 0.8049 0.09833 0.0
C502 C 0.87604 0.77488 0.11139 0.0
C503 C 0.90852 0.77292 0.12273 0.0
H504 H 0.15157 0.14695 0.41928 0.0
C505 C 0.13165 0.12182 0.40894 0.0
H506 H 0.1229 0.06314 0.39505 0.0
H507 H 0.3373 0.11542 0.41745 0.0
H508 H 0.34206 0.12514 0.38806 0.0
H509 H 0.27306 0.11725 0.37088 0.0
H510 H 0.19878 0.09937 0.38294 0.0
C511 C 0.14172 0.08822 0.40545 0.0
C512 C 0.18051 0.08625 0.4154 0.0
C513 C 0.22344 0.09629 0.40812 0.0
C514 C 0.26346 0.10143 0.41807 0.0
C515 C 0.30606 0.11177 0.4105 0.0
C516 C 0.30922 0.11729 0.39364 0.0
C517 C 0.27035 0.1128 0.38396 0.0
C518 C 0.22791 0.10253 0.39105 0.0
H519 H 0.27959 0.04053 0.45424 0.0
C520 C 0.30965 0.07755 0.45448 0.0
H521 H 0.33529 0.14648 0.44605 0.0
H522 H 0.09948 0.05547 0.43251 0.0
H523 H 0.09447 0.04614 0.46189 0.0
H524 H 0.16598 0.06182 0.47955 0.0
H525 H 0.24231 0.08574 0.46794 0.0
C526 C 0.30513 0.10951 0.44575 0.0
C527 C 0.26056 0.0967 0.43527 0.0
C528 C 0.21663 0.08423 0.44244 0.0
C529 C 0.17615 0.07768 0.4324 0.0
C530 C 0.13196 0.06299 0.43969 0.0
C531 C 0.12848 0.05715 0.45652 0.0
C532 C 0.16867 0.0658 0.46645 0.0
C533 C 0.21232 0.07928 0.45957 0.0
H534 H 0.11195 0.14085 0.73792 0.0
C535 C 0.07767 0.13338 0.74236 0.0
H536 H 0.04449 0.14621 0.76163 0.0
H537 H 0.22416 0.20094 0.81221 0.0
H538 H 0.15944 0.12848 0.82336 0.0
H539 H 0.07849 0.08131 0.80854 0.0
H540 H 0.06162 0.10649 0.78256 0.0
C541 C 0.07827 0.15444 0.75658 0.0
C542 C 0.1252 0.18587 0.76638 0.0
C543 C 0.13435 0.17073 0.78159 0.0
C544 C 0.18125 0.19756 0.79002 0.0
C545 C 0.18939 0.18162 0.80519 0.0
C546 C 0.15254 0.14014 0.81175 0.0
C547 C 0.10695 0.11361 0.80342 0.0
C548 C 0.09776 0.1285 0.78851 0.0
H549 H 0.26923 0.32774 0.79718 0.0
C550 C 0.28917 0.30967 0.79814 0.0
H551 H 0.28843 0.24694 0.79247 0.0
H552 H 0.11705 0.22947 0.73914 0.0
H553 H 0.18211 0.30068 0.72751 0.0
H554 H 0.26534 0.34338 0.74078 0.0
H555 H 0.28372 0.31586 0.76587 0.0
C556 C 0.26875 0.26524 0.79155 0.0
C557 C 0.21895 0.23933 0.78319 0.0
C558 C 0.20945 0.25505 0.76813 0.0
C559 C 0.16213 0.22901 0.75998 0.0
C560 C 0.15288 0.24677 0.74543 0.0
C561 C 0.1898 0.28777 0.73869 0.0
C562 C 0.23659 0.31191 0.74619 0.0
C563 C 0.24654 0.29587 0.76071 0.0
H564 H 0.96383 0.13561 0.66856 0.0
C565 C 0.94214 0.12458 0.67919 0.0
H566 H 0.8853 0.12404 0.69089 0.0
H567 H 0.94746 0.30743 0.64441 0.0
H568 H 0.02142 0.34924 0.6623 0.0
H569 H 0.0402 0.30629 0.68302 0.0
H570 H 0.98517 0.22128 0.68596 0.0
C571 C 0.90898 0.1367 0.68078 0.0
C572 C 0.8993 0.16259 0.66786 0.0
C573 C 0.93211 0.21221 0.66624 0.0
C574 C 0.92112 0.23703 0.65436 0.0
C575 C 0.95406 0.28676 0.65318 0.0
C576 C 0.99663 0.31123 0.66339 0.0
C577 C 0.00722 0.28704 0.67504 0.0
C578 C 0.9754 0.23817 0.67655 0.0
H579 H 0.8049 0.22682 0.64698 0.0
C580 C 0.82582 0.24402 0.63647 0.0
H581 H 0.88586 0.25806 0.62325 0.0
H582 H 0.82969 0.0671 0.66736 0.0
H583 H 0.7569 0.02492 0.64893 0.0
H584 H 0.73925 0.0676 0.62776 0.0
H585 H 0.79419 0.15273 0.62498 0.0
C586 C 0.86324 0.23926 0.63324 0.0
C587 C 0.8772 0.21221 0.64426 0.0
C588 C 0.84546 0.16221 0.64541 0.0
C589 C 0.85617 0.1375 0.65738 0.0
C590 C 0.82337 0.08769 0.65847 0.0
C591 C 0.78151 0.063 0.64794 0.0
C592 C 0.77153 0.08702 0.63604 0.0
C593 C 0.80312 0.13599 0.63468 0.0
H594 H 0.97725 0.96397 0.03898 0.0
C595 C 0.98416 0.99833 0.03511 0.0
H596 H 0.96504 0.03412 0.01796 0.0
H597 H 0.87898 0.88 0.96052 0.0
H598 H 0.95343 0.9427 0.94976 0.0
H599 H 0.0147 0.01173 0.96744 0.0
H600 H 0.00155 0.01875 0.99594 0.0
C601 C 0.95735 0.99991 0.02228 0.0
C602 C 0.92145 0.9562 0.01218 0.0
C603 C 0.93016 0.95207 0.9956 0.0
C604 C 0.89537 0.91166 0.98552 0.0
C605 C 0.90445 0.90936 0.96887 0.0
C606 C 0.94706 0.9452 0.96249 0.0
C607 C 0.98151 0.9841 0.97243 0.0
C608 C 0.97337 0.98772 0.98878 0.0
H609 H 0.76189 0.8528 0.98379 0.0
C610 C 0.77043 0.82893 0.97774 0.0
H611 H 0.82445 0.81315 0.97428 0.0
H612 H 0.89146 0.95408 0.04309 0.0
H613 H 0.81969 0.88884 0.05439 0.0
H614 H 0.76323 0.81553 0.03761 0.0
H615 H 0.77772 0.80754 0.0093 0.0
C616 C 0.81435 0.83472 0.98104 0.0
C617 C 0.85221 0.87499 0.99208 0.0
C618 C 0.84456 0.87806 0.00887 0.0
C619 C 0.87852 0.91928 0.01881 0.0
C620 C 0.86813 0.92277 0.03519 0.0
C621 C 0.82684 0.88568 0.04181 0.0
C622 C 0.79495 0.8445 0.03234 0.0
C623 C 0.80351 0.84052 0.01607 0.0
H624 H 0.03968 0.00183 0.32709 0.0
C625 C 0.03322 0.98638 0.33909 0.0
H626 H 0.01937 0.92636 0.35251 0.0
H627 H 0.9359 0.8315 0.2774 0.0
H628 H 0.87194 0.84688 0.28169 0.0
H629 H 0.87506 0.89157 0.30652 0.0
H630 H 0.94229 0.92149 0.3271 0.0
C631 C 0.0253 0.94239 0.34063 0.0
C632 C 0.02226 0.91357 0.326 0.0
C633 C 0.98213 0.89569 0.3142 0.0
C634 C 0.97975 0.86901 0.30006 0.0
C635 C 0.9395 0.85187 0.2884 0.0
C636 C 0.90245 0.86034 0.29071 0.0
C637 C 0.90425 0.88556 0.30468 0.0
C638 C 0.94336 0.90291 0.31635 0.0
H639 H 0.99003 0.76258 0.27265 0.0
C640 C 0.9951 0.78137 0.28428 0.0
H641 H 0.01731 0.84389 0.27174 0.0
H642 H 0.10339 0.94181 0.34639 0.0
H643 H 0.16675 0.92522 0.34224 0.0
H644 H 0.16242 0.87879 0.3177 0.0
H645 H 0.09458 0.84847 0.29717 0.0
C646 C 0.01171 0.82829 0.28369 0.0
C647 C 0.01647 0.85874 0.29805 0.0
C648 C 0.05657 0.87661 0.30981 0.0
C649 C 0.05926 0.90376 0.32388 0.0
C650 C 0.09956 0.92099 0.33548 0.0
C651 C 0.13619 0.91178 0.33324 0.0
C652 C 0.13374 0.88562 0.31942 0.0
C653 C 0.09457 0.8683 0.30777 0.0
H654 H 0.13402 0.08537 0.66928 0.0
C655 C 0.10965 0.04685 0.66771 0.0
H656 H 0.0977 0.9837 0.65616 0.0
H657 H 0.23901 0.09364 0.59997 0.0
H658 H 0.16046 0.05028 0.58461 0.0
H659 H 0.08459 0.00534 0.59885 0.0
H660 H 0.08678 0.00316 0.62852 0.0
C661 C 0.12213 0.02201 0.65831 0.0
C662 C 0.16818 0.04698 0.64975 0.0
C663 C 0.16621 0.048 0.6324 0.0
C664 C 0.20992 0.07444 0.6242 0.0
C665 C 0.20692 0.07452 0.60684 0.0
C666 C 0.16207 0.04975 0.59787 0.0
C667 C 0.11935 0.02442 0.60588 0.0
C668 C 0.12115 0.02345 0.62293 0.0
H669 H 0.32658 0.08257 0.63196 0.0
C670 C 0.3333 0.11305 0.6249 0.0
H671 H 0.30722 0.1571 0.61762 0.0
H672 H 0.1856 0.04663 0.68295 0.0
H673 H 0.26376 0.09236 0.6984 0.0
H674 H 0.33881 0.14395 0.68437 0.0
H675 H 0.33622 0.14924 0.65483 0.0
C676 C 0.30109 0.12685 0.62467 0.0
C677 C 0.25549 0.09993 0.63336 0.0
C678 C 0.25747 0.0991 0.65074 0.0
C679 C 0.2139 0.07147 0.6589 0.0
C680 C 0.21725 0.06882 0.67618 0.0
C681 C 0.26196 0.0946 0.68519 0.0
C682 C 0.30422 0.12347 0.6773 0.0
C683 C 0.30223 0.12588 0.66029 0.0
H684 H 0.18548 0.16624 0.0277 0.0
C685 C 0.18966 0.1385 0.03311 0.0
H686 H 0.22607 0.1012 0.03216 0.0
H687 H 0.24772 0.19526 0.95851 0.0
H688 H 0.1627 0.13291 0.95324 0.0
H689 H 0.11614 0.07948 0.97504 0.0
H690 H 0.1545 0.08802 0.00226 0.0
C691 C 0.21923 0.12695 0.0265 0.0
C692 C 0.24852 0.15472 0.01276 0.0
C693 C 0.22575 0.1491 0.9969 0.0
C694 C 0.25265 0.17993 0.98434 0.0
C695 C 0.22898 0.17323 0.96857 0.0
C696 C 0.18019 0.13745 0.96536 0.0
C697 C 0.15397 0.10738 0.97763 0.0
C698 C 0.17634 0.11284 0.99322 0.0
H699 H 0.37985 0.22726 0.97347 0.0
C700 C 0.36841 0.25065 0.96863 0.0
H701 H 0.31635 0.27033 0.96912 0.0
H702 H 0.30377 0.1725 0.0415 0.0
H703 H 0.38815 0.23601 0.04715 0.0
H704 H 0.43366 0.29262 0.02595 0.0
H705 H 0.3954 0.28572 0.99897 0.0
C706 C 0.32974 0.24911 0.97453 0.0
C707 C 0.30231 0.21635 0.98768 0.0
C708 C 0.32516 0.22175 0.00357 0.0
C709 C 0.29847 0.19014 0.01599 0.0
C710 C 0.3222 0.19584 0.03167 0.0
C711 C 0.37062 0.23216 0.03509 0.0
C712 C 0.39627 0.26394 0.02314 0.0
C713 C 0.37393 0.25919 0.0076 0.0
H714 H 0.1148 0.23655 0.34051 0.0
C715 C 0.10406 0.24371 0.35202 0.0
H716 H 0.10195 0.29518 0.36688 0.0
H717 H 0.28363 0.45536 0.32812 0.0
H718 H 0.33114 0.42921 0.34335 0.0
H719 H 0.29096 0.35624 0.35918 0.0
H720 H 0.20298 0.30896 0.35988 0.0
C721 C 0.11421 0.28791 0.35575 0.0
C722 C 0.13817 0.32748 0.34433 0.0
C723 C 0.18951 0.35411 0.34382 0.0
C724 C 0.21266 0.3962 0.33469 0.0
C725 C 0.26412 0.42297 0.33477 0.0
C726 C 0.29184 0.40839 0.34348 0.0
C727 C 0.26922 0.3673 0.35239 0.0
C728 C 0.21868 0.34044 0.35266 0.0
H729 H 0.18165 0.48686 0.33578 0.0
C730 C 0.20438 0.49434 0.32554 0.0
H731 H 0.23334 0.46707 0.30935 0.0
H732 H 0.03882 0.28186 0.34154 0.0
H733 H 0.99103 0.30578 0.32519 0.0
H734 H 0.03113 0.37723 0.30859 0.0
H735 H 0.11924 0.42534 0.30836 0.0
C736 C 0.20882 0.45946 0.31903 0.0
C737 C 0.18433 0.41152 0.32619 0.0
C738 C 0.1328 0.38284 0.32571 0.0
C739 C 0.10972 0.34113 0.33499 0.0
C740 C 0.05822 0.31388 0.33469 0.0
C741 C 0.03036 0.32712 0.32532 0.0
C742 C 0.05293 0.36737 0.31599 0.0
C743 C 0.10352 0.39493 0.31608 0.0
loop_
_geom_bond_atom_site_label_1
_geom_bond_atom_site_label_2
_geom_bond_distance
_geom_bond_site_symmetry_2
_ccdc_geom_bond_type
Mg0 O1 2.028 . S
Mg0 O7 1.986 . S
Mg0 O9 2.114 . S
Mg0 O10 2.251 . S
Mg0 O13 2.010 . S
O1 Mg0 2.028 . S
O1 C4 1.250 . S
O2 Mg3 2.028 . S
O2 C4 1.248 . S
Mg3 O2 2.028 . S
Mg3 O8 2.032 . S
Mg3 O10 2.079 . S
C4 O1 1.250 . S
C4 O2 1.248 . S
C5 O6 1.264 . S
C5 O13 1.249 . S
O6 C5 1.264 . S
O7 Mg0 1.986 . S
O7 C11 1.246 . S
O8 Mg3 2.032 . S
O8 C11 1.259 . S
O9 Mg0 2.114 . S
O9 C12 1.252 . S
O10 Mg0 2.251 . S
O10 Mg3 2.079 . S
O10 C12 1.273 . S
C11 O7 1.246 . S
C11 O8 1.259 . S
C12 O9 1.252 . S
C12 O10 1.273 . S
O13 Mg0 2.010 . S
O13 C5 1.249 . S
Mg14 O15 2.028 1_655 S
Mg14 O21 1.986 1_655 S
Mg14 O23 2.114 . S
Mg14 O24 2.251 . S
Mg14 O27 2.010 1_545 S
O15 Mg14 2.028 1_455 S
O15 C18 1.250 . S
O16 Mg17 2.028 . S
O16 C18 1.248 . S
Mg17 O16 2.028 . S
Mg17 O22 2.032 . S
Mg17 O24 2.079 1_455 S
C18 O15 1.250 . S
C18 O16 1.248 . S
C19 O20 1.264 . S
C19 O27 1.249 . S
O20 C19 1.264 . S
O21 Mg14 1.986 1_455 S
O21 C25 1.246 . S
O22 Mg17 2.032 . S
O22 C25 1.259 . S
O23 Mg14 2.114 . S
O23 C26 1.252 . S
O24 Mg14 2.251 . S
O24 Mg17 2.079 1_655 S
O24 C26 1.273 . S
C25 O21 1.246 . S
C25 O22 1.259 . S
C26 O23 1.252 . S
C26 O24 1.273 . S
O27 Mg14 2.010 1_565 S
O27 C19 1.249 . S
Mg28 O29 2.028 . S
Mg28 O35 1.986 . S
Mg28 O37 2.114 1_545 S
Mg28 O38 2.251 1_455 S
Mg28 O41 2.010 . S
O29 Mg28 2.028 . S
O29 C32 1.250 . S
O30 Mg31 2.028 1_455 S
O30 C32 1.248 . S
Mg31 O30 2.028 1_655 S
Mg31 O36 2.032 . S
Mg31 O38 2.079 . S
C32 O29 1.250 . S
C32 O30 1.248 . S
C33 O34 1.264 1_545 S
C33 O41 1.249 . S
O34 C33 1.264 1_565 S
O35 Mg28 1.986 . S
O35 C39 1.246 1_455 S
O36 Mg31 2.032 . S
O36 C39 1.259 . S
O37 Mg28 2.114 1_565 S
O37 C40 1.252 1_455 S
O38 Mg28 2.251 1_655 S
O38 Mg31 2.079 . S
O38 C40 1.273 1_545 S
C39 O35 1.246 1_655 S
C39 O36 1.259 . S
C40 O37 1.252 1_655 S
C40 O38 1.273 1_565 S
O41 Mg28 2.010 . S
O41 C33 1.249 . S
C42 C43 1.560 1_655 S
C42 H103 0.959 . S
C42 H104 0.959 . S
C42 H105 0.960 . S
C43 C42 1.560 1_455 S
C43 O98 1.426 1_455 S
C43 H102 0.980 . S
C44 C45 1.407 . S
C44 C49 1.418 1_455 S
C44 O98 1.334 1_455 S
C45 C44 1.407 . S
C45 C46 1.360 . S
C45 H106 0.929 . S
C46 C45 1.360 . S
C46 C47 1.401 . S
C46 C50 1.527 . S
C47 C46 1.401 . S
C47 C48 1.405 1_455 S
C47 C80 1.587 . S
C48 C47 1.405 1_655 S
C48 C49 1.332 . S
C48 C51 1.496 . S
C49 C44 1.418 1_655 S
C49 C48 1.332 . S
C49 H107 0.929 . S
C50 C46 1.527 . S
C50 H108 0.959 . S
C50 H109 0.961 . S
C50 H110 0.961 . S
C51 C48 1.496 . S
C51 H111 0.960 . S
C51 H112 0.960 . S
C51 H113 0.961 . S
C52 C53 1.517 . S
C52 H115 0.961 . S
C52 H116 0.960 . S
C52 H117 0.959 . S
C53 C52 1.517 . S
C53 O101 1.468 . S
C53 H114 0.980 . S
C54 C55 1.349 . S
C54 C59 1.367 . S
C54 O101 1.408 . S
C55 C54 1.349 . S
C55 C56 1.407 . S
C55 H118 0.930 . S
C56 C55 1.407 . S
C56 C57 1.449 . S
C56 C60 1.535 1_455 S
C57 C56 1.449 . S
C57 C58 1.384 . S
C57 C82 1.553 . S
C58 C57 1.384 . S
C58 C59 1.364 . S
C58 C61 1.450 . S
C59 C54 1.367 . S
C59 C58 1.364 . S
C59 H119 0.931 . S
C60 C56 1.535 1_655 S
C60 H120 0.959 . S
C60 H121 0.961 . S
C60 H122 0.959 . S
C61 C58 1.450 . S
C61 H123 0.960 . S
C61 H124 0.960 . S
C61 H125 0.960 . S
C62 C63 1.309 . S
C62 C67 1.304 . S
C62 O100 1.435 . S
C63 C62 1.309 . S
C63 C64 1.476 . S
C63 H127 0.930 . S
C64 C63 1.476 . S
C64 C65 1.400 . S
C64 C68 1.567 1_455 S
C65 C64 1.400 . S
C65 C66 1.373 . S
C65 C87 1.432 . S
C66 C65 1.373 . S
C66 C67 1.339 . S
C66 C69 1.530 . S
C67 C62 1.304 . S
C67 C66 1.339 . S
C67 H128 0.930 . S
C68 C64 1.567 1_655 S
C68 H129 0.961 . S
C68 H130 0.960 . S
C68 H131 0.958 . S
C69 C66 1.530 . S
C69 H132 0.961 . S
C69 H133 0.960 . S
C69 H134 0.960 . S
C70 C71 1.530 . S
C70 H136 0.961 . S
C70 H137 0.961 1_455 S
C70 H138 0.959 1_455 S
C71 C70 1.530 . S
C71 O99 1.412 . S
C71 H135 0.980 . S
C72 C73 1.288 1_455 S
C72 C77 1.377 . S
C72 O99 1.393 . S
C73 C72 1.288 1_655 S
C73 C74 1.369 1_655 S
C73 H139 0.932 . S
C74 C73 1.369 1_455 S
C74 C75 1.398 . S
C74 C78 1.527 1_455 S
C75 C74 1.398 . S
C75 C76 1.380 . S
C75 C89 1.497 . S
C76 C75 1.380 . S
C76 C77 1.383 . S
C76 C79 1.603 . S
C77 C72 1.377 . S
C77 C76 1.383 . S
C77 H140 0.929 . S
C78 C74 1.527 1_655 S
C78 H141 0.961 . S
C78 H142 0.959 . S
C78 H143 0.959 . S
C79 C76 1.603 . S
C79 H144 0.960 . S
C79 H145 0.962 . S
C79 H146 0.961 . S
C80 C47 1.587 . S
C80 C81 1.360 . S
C80 C93 1.412 . S
C81 C80 1.360 . S
C81 C82 1.365 . S
C81 H147 0.929 . S
C82 C57 1.553 . S
C82 C81 1.365 . S
C82 C83 1.404 . S
C83 C82 1.404 . S
C83 C84 1.395 . S
C83 C94 1.451 . S
C84 C83 1.395 . S
C84 C85 1.322 . S
C84 H148 0.930 . S
C85 C84 1.322 . S
C85 C86 1.459 . S
C85 H149 0.929 . S
C86 C85 1.459 . S
C86 C87 1.445 . S
C86 C95 1.395 . S
C87 C65 1.432 . S
C87 C86 1.445 . S
C87 C88 1.370 . S
C88 C87 1.370 . S
C88 C89 1.438 . S
C88 H150 0.930 . S
C89 C75 1.497 . S
C89 C88 1.438 . S
C89 C90 1.360 . S
C90 C89 1.360 . S
C90 C91 1.401 . S
C90 C95 1.446 . S
C91 C90 1.401 . S
C91 C92 1.347 . S
C91 H151 0.929 . S
C92 C91 1.347 . S
C92 C93 1.455 . S
C92 H152 0.930 . S
C93 C80 1.412 . S
C93 C92 1.455 . S
C93 C94 1.331 . S
C94 C83 1.451 . S
C94 C93 1.331 . S
C94 C95 1.497 . S
C95 C86 1.395 . S
C95 C90 1.446 . S
C95 C94 1.497 . S
C96 C97 1.582 . S
C96 H153 0.962 . S
C96 H154 0.959 . S
C96 H155 0.958 . S
C97 C96 1.582 . S
C97 O100 1.458 . S
C97 H126 0.980 . S
O98 C43 1.426 1_655 S
O98 C44 1.334 1_655 S
O99 C71 1.412 . S
O99 C72 1.393 . S
O100 C62 1.435 . S
O100 C97 1.458 . S
O101 C53 1.468 . S
O101 C54 1.408 . S
H102 C43 0.980 . S
H103 C42 0.959 . S
H104 C42 0.959 . S
H105 C42 0.960 . S
H106 C45 0.929 . S
H107 C49 0.929 . S
H108 C50 0.959 . S
H109 C50 0.961 . S
H110 C50 0.961 . S
H111 C51 0.960 . S
H112 C51 0.960 . S
H113 C51 0.961 . S
H114 C53 0.980 . S
H115 C52 0.961 . S
H116 C52 0.960 . S
H117 C52 0.959 . S
H118 C55 0.930 . S
H119 C59 0.931 . S
H120 C60 0.959 . S
H121 C60 0.961 . S
H122 C60 0.959 . S
H123 C61 0.960 . S
H124 C61 0.960 . S
H125 C61 0.960 . S
H126 C97 0.980 . S
H127 C63 0.930 . S
H128 C67 0.930 . S
H129 C68 0.961 . S
H130 C68 0.960 . S
H131 C68 0.958 . S
H132 C69 0.961 . S
H133 C69 0.960 . S
H134 C69 0.960 . S
H135 C71 0.980 . S
H136 C70 0.961 . S
H137 C70 0.961 1_655 S
H138 C70 0.959 1_655 S
H139 C73 0.932 . S
H140 C77 0.929 . S
H141 C78 0.961 . S
H142 C78 0.959 . S
H143 C78 0.959 . S
H144 C79 0.960 . S
H145 C79 0.962 . S
H146 C79 0.961 . S
H147 C81 0.929 . S
H148 C84 0.930 . S
H149 C85 0.929 . S
H150 C88 0.930 . S
H151 C91 0.929 . S
H152 C92 0.930 . S
H153 C96 0.962 . S
H154 C96 0.959 . S
H155 C96 0.958 . S
C156 C157 1.560 . S
C156 H217 0.959 . S
C156 H218 0.959 . S
C156 H219 0.960 . S
C157 C156 1.560 . S
C157 O212 1.426 . S
C157 H216 0.980 . S
C158 C159 1.407 . S
C158 C163 1.418 . S
C158 O212 1.334 . S
C159 C158 1.407 . S
C159 C160 1.360 . S
C159 H220 0.929 . S
C160 C159 1.360 . S
C160 C161 1.401 . S
C160 C164 1.527 . S
C161 C160 1.401 . S
C161 C162 1.405 . S
C161 C194 1.587 . S
C162 C161 1.405 . S
C162 C163 1.332 . S
C162 C165 1.496 . S
C163 C158 1.418 . S
C163 C162 1.332 . S
C163 H221 0.929 1_545 S
C164 C160 1.527 . S
C164 H222 0.959 . S
C164 H223 0.961 . S
C164 H224 0.961 . S
C165 C162 1.496 . S
C165 H225 0.960 1_545 S
C165 H226 0.960 . S
C165 H227 0.961 . S
C166 C167 1.517 . S
C166 H229 0.961 . S
C166 H230 0.960 . S
C166 H231 0.959 . S
C167 C166 1.517 . S
C167 O215 1.468 . S
C167 H228 0.980 . S
C168 C169 1.349 . S
C168 C173 1.367 . S
C168 O215 1.408 . S
C169 C168 1.349 . S
C169 C170 1.407 . S
C169 H232 0.930 . S
C170 C169 1.407 . S
C170 C171 1.449 . S
C170 C174 1.535 . S
C171 C170 1.449 . S
C171 C172 1.384 . S
C171 C196 1.553 . S
C172 C171 1.384 . S
C172 C173 1.364 . S
C172 C175 1.450 . S
C173 C168 1.367 . S
C173 C172 1.364 . S
C173 H233 0.931 . S
C174 C170 1.535 . S
C174 H234 0.959 . S
C174 H235 0.961 . S
C174 H236 0.959 . S
C175 C172 1.450 . S
C175 H237 0.960 . S
C175 H238 0.960 . S
C175 H239 0.960 . S
C176 C177 1.309 . S
C176 C181 1.304 . S
C176 O214 1.435 . S
C177 C176 1.309 . S
C177 C178 1.476 . S
C177 H241 0.930 . S
C178 C177 1.476 . S
C178 C179 1.400 . S
C178 C182 1.567 . S
C179 C178 1.400 . S
C179 C180 1.373 . S
C179 C201 1.432 . S
C180 C179 1.373 . S
C180 C181 1.339 . S
C180 C183 1.530 . S
C181 C176 1.304 . S
C181 C180 1.339 . S
C181 H242 0.930 . S
C182 C178 1.567 . S
C182 H243 0.961 . S
C182 H244 0.960 . S
C182 H245 0.958 . S
C183 C180 1.530 . S
C183 H246 0.961 . S
C183 H247 0.960 . S
C183 H248 0.960 . S
C184 C185 1.530 . S
C184 H250 0.961 . S
C184 H251 0.961 . S
C184 H252 0.959 . S
C185 C184 1.530 . S
C185 O213 1.412 . S
C185 H249 0.980 . S
C186 C187 1.288 . S
C186 C191 1.377 . S
C186 O213 1.393 . S
C187 C186 1.288 . S
C187 C188 1.369 . S
C187 H253 0.932 1_545 S
C188 C187 1.369 . S
C188 C189 1.398 . S
C188 C192 1.525 1_545 S
C189 C188 1.398 . S
C189 C190 1.380 . S
C189 C203 1.497 . S
C190 C189 1.380 . S
C190 C191 1.383 . S
C190 C193 1.603 . S
C191 C186 1.377 . S
C191 C190 1.383 . S
C191 H254 0.929 . S
C192 C188 1.525 1_565 S
C192 H255 0.961 1_565 S
C192 H256 0.968 1_565 S
C192 H257 0.960 . S
C193 C190 1.603 . S
C193 H258 0.960 . S
C193 H259 0.962 . S
C193 H260 0.961 . S
C194 C161 1.587 . S
C194 C195 1.360 . S
C194 C207 1.412 . S
C195 C194 1.360 . S
C195 C196 1.365 . S
C195 H261 0.929 . S
C196 C171 1.553 . S
C196 C195 1.365 . S
C196 C197 1.404 . S
C197 C196 1.404 . S
C197 C198 1.395 . S
C197 C208 1.451 . S
C198 C197 1.395 . S
C198 C199 1.322 . S
C198 H262 0.930 . S
C199 C198 1.322 . S
C199 C200 1.459 . S
C199 H263 0.929 . S
C200 C199 1.459 . S
C200 C201 1.445 . S
C200 C209 1.395 . S
C201 C179 1.432 . S
C201 C200 1.445 . S
C201 C202 1.370 . S
C202 C201 1.370 . S
C202 C203 1.438 . S
C202 H264 0.930 . S
C203 C189 1.497 . S
C203 C202 1.438 . S
C203 C204 1.360 . S
C204 C203 1.360 . S
C204 C205 1.401 . S
C204 C209 1.446 . S
C205 C204 1.401 . S
C205 C206 1.347 . S
C205 H265 0.929 . S
C206 C205 1.347 . S
C206 C207 1.455 . S
C206 H266 0.930 . S
C207 C194 1.412 . S
C207 C206 1.455 . S
C207 C208 1.331 . S
C208 C197 1.451 . S
C208 C207 1.331 . S
C208 C209 1.497 . S
C209 C200 1.395 . S
C209 C204 1.446 . S
C209 C208 1.497 . S
C210 C211 1.582 . S
C210 H267 0.962 . S
C210 H268 0.959 . S
C210 H269 0.958 . S
C211 C210 1.582 . S
C211 O214 1.458 . S
C211 H240 0.980 . S
O212 C157 1.426 . S
O212 C158 1.334 . S
O213 C185 1.412 . S
O213 C186 1.393 . S
O214 C176 1.435 . S
O214 C211 1.458 . S
O215 C167 1.468 . S
O215 C168 1.408 . S
H216 C157 0.980 . S
H217 C156 0.959 . S
H218 C156 0.959 . S
H219 C156 0.960 . S
H220 C159 0.929 . S
H221 C163 0.929 1_565 S
H222 C164 0.959 . S
H223 C164 0.961 . S
H224 C164 0.961 . S
H225 C165 0.960 1_565 S
H226 C165 0.960 . S
H227 C165 0.961 . S
H228 C167 0.980 . S
H229 C166 0.961 . S
H230 C166 0.960 . S
H231 C166 0.959 . S
H232 C169 0.930 . S
H233 C173 0.931 . S
H234 C174 0.959 . S
H235 C174 0.961 . S
H236 C174 0.959 . S
H237 C175 0.960 . S
H238 C175 0.960 . S
H239 C175 0.960 . S
H240 C211 0.980 . S
H241 C177 0.930 . S
H242 C181 0.930 . S
H243 C182 0.961 . S
H244 C182 0.960 . S
H245 C182 0.958 . S
H246 C183 0.961 . S
H247 C183 0.960 . S
H248 C183 0.960 . S
H249 C185 0.980 . S
H250 C184 0.961 . S
H251 C184 0.961 . S
H252 C184 0.959 . S
H253 C187 0.932 1_565 S
H254 C191 0.929 . S
H255 C192 0.961 1_545 S
H256 C192 0.968 1_545 S
H257 C192 0.960 . S
H258 C193 0.960 . S
H259 C193 0.962 . S
H260 C193 0.961 . S
H261 C195 0.929 . S
H262 C198 0.930 . S
H263 C199 0.929 . S
H264 C202 0.930 . S
H265 C205 0.929 . S
H266 C206 0.930 . S
H267 C210 0.962 . S
H268 C210 0.959 . S
H269 C210 0.958 . S
C270 C271 1.560 . S
C270 H331 0.959 . S
C270 H332 0.959 . S
C270 H333 0.960 . S
C271 C270 1.560 . S
C271 O326 1.426 . S
C271 H330 0.980 . S
C272 C273 1.407 . S
C272 C277 1.418 . S
C272 O326 1.334 . S
C273 C272 1.407 . S
C273 C274 1.360 . S
C273 H334 0.929 . S
C274 C273 1.360 . S
C274 C275 1.401 . S
C274 C278 1.527 . S
C275 C274 1.401 . S
C275 C276 1.405 . S
C275 C308 1.587 . S
C276 C275 1.405 . S
C276 C277 1.332 . S
C276 C279 1.496 . S
C277 C272 1.418 . S
C277 C276 1.332 . S
C277 H335 0.929 . S
C278 C274 1.527 . S
C278 H336 0.959 . S
C278 H337 0.961 . S
C278 H338 0.961 . S
C279 C276 1.496 . S
C279 H339 0.960 . S
C279 H340 0.960 . S
C279 H341 0.961 . S
C280 C281 1.517 . S
C280 H343 0.961 . S
C280 H344 0.960 . S
C280 H345 0.959 . S
C281 C280 1.517 . S
C281 O329 1.468 . S
C281 H342 0.980 . S
C282 C283 1.349 . S
C282 C287 1.367 . S
C282 O329 1.408 . S
C283 C282 1.349 . S
C283 C284 1.407 . S
C283 H346 0.930 . S
C284 C283 1.407 . S
C284 C285 1.449 . S
C284 C288 1.535 . S
C285 C284 1.449 . S
C285 C286 1.384 . S
C285 C310 1.553 . S
C286 C285 1.384 . S
C286 C287 1.364 . S
C286 C289 1.450 . S
C287 C282 1.367 . S
C287 C286 1.364 . S
C287 H347 0.931 . S
C288 C284 1.535 . S
C288 H348 0.959 . S
C288 H349 0.961 . S
C288 H350 0.959 . S
C289 C286 1.450 . S
C289 H351 0.960 . S
C289 H352 0.960 . S
C289 H353 0.960 . S
C290 C291 1.309 . S
C290 C295 1.304 . S
C290 O328 1.435 . S
C291 C290 1.309 . S
C291 C292 1.476 . S
C291 H355 0.930 . S
C292 C291 1.476 . S
C292 C293 1.400 . S
C292 C296 1.567 . S
C293 C292 1.400 . S
C293 C294 1.373 . S
C293 C315 1.432 . S
C294 C293 1.373 . S
C294 C295 1.339 . S
C294 C297 1.530 . S
C295 C290 1.304 . S
C295 C294 1.339 . S
C295 H356 0.930 . S
C296 C292 1.567 . S
C296 H357 0.961 . S
C296 H358 0.960 . S
C296 H359 0.958 . S
C297 C294 1.530 . S
C297 H360 0.961 . S
C297 H361 0.960 . S
C297 H362 0.960 . S
C298 C299 1.530 . S
C298 H364 0.961 . S
C298 H365 0.961 . S
C298 H366 0.959 . S
C299 C298 1.530 . S
C299 O327 1.412 . S
C299 H363 0.980 . S
C300 C301 1.288 . S
C300 C305 1.377 . S
C300 O327 1.393 . S
C301 C300 1.288 . S
C301 C302 1.369 . S
C301 H367 0.932 . S
C302 C301 1.369 . S
C302 C303 1.398 . S
C302 C306 1.527 . S
C303 C302 1.398 . S
C303 C304 1.380 . S
C303 C317 1.497 . S
C304 C303 1.380 . S
C304 C305 1.383 . S
C304 C307 1.603 . S
C305 C300 1.377 . S
C305 C304 1.383 . S
C305 H368 0.929 . S
C306 C302 1.527 . S
C306 H369 0.961 . S
C306 H370 0.959 . S
C306 H371 0.959 . S
C307 C304 1.603 . S
C307 H372 0.960 . S
C307 H373 0.962 . S
C307 H374 0.961 . S
C308 C275 1.587 . S
C308 C309 1.360 . S
C308 C321 1.412 . S
C309 C308 1.360 . S
C309 C310 1.365 . S
C309 H375 0.929 . S
C310 C285 1.553 . S
C310 C309 1.365 . S
C310 C311 1.404 . S
C311 C310 1.404 . S
C311 C312 1.395 . S
C311 C322 1.451 . S
C312 C311 1.395 . S
C312 C313 1.322 . S
C312 H376 0.930 . S
C313 C312 1.322 . S
C313 C314 1.459 . S
C313 H377 0.929 . S
C314 C313 1.459 . S
C314 C315 1.445 . S
C314 C323 1.395 . S
C315 C293 1.432 . S
C315 C314 1.445 . S
C315 C316 1.370 . S
C316 C315 1.370 . S
C316 C317 1.438 . S
C316 H378 0.930 . S
C317 C303 1.497 . S
C317 C316 1.438 . S
C317 C318 1.360 . S
C318 C317 1.360 . S
C318 C319 1.401 . S
C318 C323 1.446 . S
C319 C318 1.401 . S
C319 C320 1.347 . S
C319 H379 0.929 . S
C320 C319 1.347 . S
C320 C321 1.455 . S
C320 H380 0.930 . S
C321 C308 1.412 . S
C321 C320 1.455 . S
C321 C322 1.331 . S
C322 C311 1.451 . S
C322 C321 1.331 . S
C322 C323 1.497 . S
C323 C314 1.395 . S
C323 C318 1.446 . S
C323 C322 1.497 . S
C324 C325 1.582 . S
C324 H381 0.962 . S
C324 H382 0.959 . S
C324 H383 0.958 . S
C325 C324 1.582 . S
C325 O328 1.458 . S
C325 H354 0.980 . S
O326 C271 1.426 . S
O326 C272 1.334 . S
O327 C299 1.412 . S
O327 C300 1.393 . S
O328 C290 1.435 . S
O328 C325 1.458 . S
O329 C281 1.468 . S
O329 C282 1.408 . S
H330 C271 0.980 . S
H331 C270 0.959 . S
H332 C270 0.959 . S
H333 C270 0.960 . S
H334 C273 0.929 . S
H335 C277 0.929 . S
H336 C278 0.959 . S
H337 C278 0.961 . S
H338 C278 0.961 . S
H339 C279 0.960 . S
H340 C279 0.960 . S
H341 C279 0.961 . S
H342 C281 0.980 . S
H343 C280 0.961 . S
H344 C280 0.960 . S
H345 C280 0.959 . S
H346 C283 0.930 . S
H347 C287 0.931 . S
H348 C288 0.959 . S
H349 C288 0.961 . S
H350 C288 0.959 . S
H351 C289 0.960 . S
H352 C289 0.960 . S
H353 C289 0.960 . S
H354 C325 0.980 . S
H355 C291 0.930 . S
H356 C295 0.930 . S
H357 C296 0.961 . S
H358 C296 0.960 . S
H359 C296 0.958 . S
H360 C297 0.961 . S
H361 C297 0.960 . S
H362 C297 0.960 . S
H363 C299 0.980 . S
H364 C298 0.961 . S
H365 C298 0.961 . S
H366 C298 0.959 . S
H367 C301 0.932 . S
H368 C305 0.929 . S
H369 C306 0.961 . S
H370 C306 0.959 . S
H371 C306 0.959 . S
H372 C307 0.960 . S
H373 C307 0.962 . S
H374 C307 0.961 . S
H375 C309 0.929 . S
H376 C312 0.930 . S
H377 C313 0.929 . S
H378 C316 0.930 . S
H379 C319 0.929 . S
H380 C320 0.930 . S
H381 C324 0.962 . S
H382 C324 0.959 . S
H383 C324 0.958 . S
H384 C385 0.951 . S
C385 H384 0.951 . S
C385 C391 1.265 . S
H386 C391 0.950 . S
H387 C395 0.949 . S
H388 C396 0.950 . S
H389 C397 0.951 . S
H390 C398 0.951 . S
C391 C385 1.265 . S
C391 H386 0.950 . S
C391 C392 1.478 . S
C392 C391 1.478 . S
C392 C393 1.397 . S
C392 C409 1.394 . S
C393 C392 1.397 . S
C393 C394 1.438 . S
C393 C398 1.429 . S
C394 C393 1.438 . S
C394 C395 1.428 . S
C394 C407 1.394 . S
C395 H387 0.949 . S
C395 C394 1.428 . S
C395 C396 1.345 . S
C396 H388 0.950 . S
C396 C395 1.345 . S
C396 C397 1.424 . S
C397 H389 0.951 . S
C397 C396 1.424 . S
C397 C398 1.347 . S
C398 H390 0.951 . S
C398 C393 1.429 . S
C398 C397 1.347 . S
H399 C400 0.951 . S
C400 H399 0.951 . S
C400 C406 1.265 . S
H401 C406 0.950 . S
H402 C410 0.956 1_655 S
H403 C411 0.950 . S
H404 C412 0.951 . S
H405 C413 0.951 . S
C406 C400 1.265 . S
C406 H401 0.950 . S
C406 C407 1.478 . S
C407 C394 1.394 . S
C407 C406 1.478 . S
C407 C408 1.397 . S
C408 C407 1.397 . S
C408 C409 1.438 . S
C408 C413 1.429 . S
C409 C392 1.394 . S
C409 C408 1.438 . S
C409 C410 1.428 . S
C410 H402 0.956 1_455 S
C410 C409 1.428 . S
C410 C411 1.345 1_455 S
C411 H403 0.950 . S
C411 C410 1.345 1_655 S
C411 C412 1.424 . S
C412 H404 0.951 . S
C412 C411 1.424 . S
C412 C413 1.347 1_655 S
C413 H405 0.951 . S
C413 C408 1.429 . S
C413 C412 1.347 1_455 S
H414 C415 0.951 . S
C415 H414 0.951 . S
C415 C421 1.265 . S
H416 C421 0.950 . S
H417 C425 0.949 . S
H418 C426 0.950 . S
H419 C427 0.951 . S
H420 C428 0.951 . S
C421 C415 1.265 . S
C421 H416 0.950 . S
C421 C422 1.478 . S
C422 C421 1.478 . S
C422 C423 1.397 . S
C422 C439 1.394 . S
C423 C422 1.397 . S
C423 C424 1.438 . S
C423 C428 1.429 . S
C424 C423 1.438 . S
C424 C425 1.428 . S
C424 C437 1.394 . S
C425 H417 0.949 . S
C425 C424 1.428 . S
C425 C426 1.345 . S
C426 H418 0.950 . S
C426 C425 1.345 . S
C426 C427 1.424 . S
C427 H419 0.951 . S
C427 C426 1.424 . S
C427 C428 1.347 . S
C428 H420 0.951 . S
C428 C423 1.429 . S
C428 C427 1.347 . S
H429 C430 0.951 . S
C430 H429 0.951 . S
C430 C436 1.265 . S
H431 C436 0.950 . S
H432 C440 0.949 1_565 S
H433 C441 0.950 . S
H434 C442 0.951 1_565 S
H435 C443 0.951 . S
C436 C430 1.265 . S
C436 H431 0.950 . S
C436 C437 1.478 . S
C437 C424 1.394 . S
C437 C436 1.478 . S
C437 C438 1.397 . S
C438 C437 1.397 . S
C438 C439 1.438 . S
C438 C443 1.429 . S
C439 C422 1.394 . S
C439 C438 1.438 . S
C439 C440 1.428 . S
C440 H432 0.949 1_545 S
C440 C439 1.428 . S
C440 C441 1.345 1_545 S
C441 H433 0.950 . S
C441 C440 1.345 1_565 S
C441 C442 1.424 1_565 S
C442 H434 0.951 1_545 S
C442 C441 1.424 1_545 S
C442 C443 1.347 . S
C443 H435 0.951 . S
C443 C438 1.429 . S
C443 C442 1.347 . S
H444 C445 0.951 . S
C445 H444 0.951 . S
C445 C451 1.265 . S
H446 C451 0.950 . S
H447 C455 0.949 . S
H448 C456 0.950 . S
H449 C457 0.951 . S
H450 C458 0.951 . S
C451 C445 1.265 . S
C451 H446 0.950 . S
C451 C452 1.478 . S
C452 C451 1.478 . S
C452 C453 1.397 . S
C452 C469 1.394 . S
C453 C452 1.397 . S
C453 C454 1.438 . S
C453 C458 1.429 . S
C454 C453 1.438 . S
C454 C455 1.428 . S
C454 C467 1.394 . S
C455 H447 0.949 . S
C455 C454 1.428 . S
C455 C456 1.345 . S
C456 H448 0.950 . S
C456 C455 1.345 . S
C456 C457 1.424 . S
C457 H449 0.951 . S
C457 C456 1.424 . S
C457 C458 1.347 . S
C458 H450 0.951 . S
C458 C453 1.429 . S
C458 C457 1.347 . S
H459 C460 0.951 . S
C460 H459 0.951 . S
C460 C466 1.265 . S
H461 C466 0.950 . S
H462 C470 0.949 . S
H463 C471 0.950 . S
H464 C472 0.951 . S
H465 C473 0.951 . S
C466 C460 1.265 . S
C466 H461 0.950 . S
C466 C467 1.478 . S
C467 C454 1.394 . S
C467 C466 1.478 . S
C467 C468 1.397 . S
C468 C467 1.397 . S
C468 C469 1.438 . S
C468 C473 1.429 . S
C469 C452 1.394 . S
C469 C468 1.438 . S
C469 C470 1.428 . S
C470 H462 0.949 . S
C470 C469 1.428 . S
C470 C471 1.345 . S
C471 H463 0.950 . S
C471 C470 1.345 . S
C471 C472 1.424 . S
C472 H464 0.951 . S
C472 C471 1.424 . S
C472 C473 1.347 . S
C473 H465 0.951 . S
C473 C468 1.429 . S
C473 C472 1.347 . S
H474 C475 0.951 . S
C475 H474 0.951 . S
C475 C481 1.265 . S
H476 C481 0.950 . S
H477 C485 0.949 . S
H478 C486 0.950 . S
H479 C487 0.951 . S
H480 C488 0.951 . S
C481 C475 1.265 . S
C481 H476 0.950 . S
C481 C482 1.478 . S
C482 C481 1.478 . S
C482 C483 1.397 . S
C482 C499 1.394 . S
C483 C482 1.397 . S
C483 C484 1.438 . S
C483 C488 1.429 . S
C484 C483 1.438 . S
C484 C485 1.428 . S
C484 C497 1.394 . S
C485 H477 0.949 . S
C485 C484 1.428 . S
C485 C486 1.345 . S
C486 H478 0.950 . S
C486 C485 1.345 . S
C486 C487 1.424 . S
C487 H479 0.951 . S
C487 C486 1.424 . S
C487 C488 1.347 . S
C488 H480 0.951 . S
C488 C483 1.429 . S
C488 C487 1.347 . S
H489 C490 0.951 . S
C490 H489 0.951 . S
C490 C496 1.265 . S
H491 C496 0.950 . S
H492 C500 0.949 . S
H493 C501 0.950 . S
H494 C502 0.951 . S
H495 C503 0.951 . S
C496 C490 1.265 . S
C496 H491 0.950 . S
C496 C497 1.478 . S
C497 C484 1.394 . S
C497 C496 1.478 . S
C497 C498 1.397 . S
C498 C497 1.397 . S
C498 C499 1.438 . S
C498 C503 1.429 1_455 S
C499 C482 1.394 . S
C499 C498 1.438 . S
C499 C500 1.428 . S
C500 H492 0.949 . S
C500 C499 1.428 . S
C500 C501 1.345 1_455 S
C501 H493 0.950 . S
C501 C500 1.345 1_655 S
C501 C502 1.424 . S
C502 H494 0.951 . S
C502 C501 1.424 . S
C502 C503 1.347 . S
C503 H495 0.951 . S
C503 C498 1.429 1_655 S
C503 C502 1.347 . S
H504 C505 0.951 . S
C505 H504 0.951 . S
C505 C511 1.265 . S
H506 C511 0.950 . S
H507 C515 0.949 . S
H508 C516 0.950 . S
H509 C517 0.951 . S
H510 C518 0.951 . S
C511 C505 1.265 . S
C511 H506 0.950 . S
C511 C512 1.478 . S
C512 C511 1.478 . S
C512 C513 1.397 . S
C512 C529 1.394 . S
C513 C512 1.397 . S
C513 C514 1.438 . S
C513 C518 1.429 . S
C514 C513 1.438 . S
C514 C515 1.428 . S
C514 C527 1.394 . S
C515 H507 0.949 . S
C515 C514 1.428 . S
C515 C516 1.345 . S
C516 H508 0.950 . S
C516 C515 1.345 . S
C516 C517 1.424 . S
C517 H509 0.951 . S
C517 C516 1.424 . S
C517 C518 1.347 . S
C518 H510 0.951 . S
C518 C513 1.429 . S
C518 C517 1.347 . S
H519 C520 0.951 . S
C520 H519 0.951 . S
C520 C526 1.265 . S
H521 C526 0.950 . S
H522 C530 0.949 . S
H523 C531 0.950 . S
H524 C532 0.951 . S
H525 C533 0.951 . S
C526 C520 1.265 . S
C526 H521 0.950 . S
C526 C527 1.478 . S
C527 C514 1.394 . S
C527 C526 1.478 . S
C527 C528 1.397 . S
C528 C527 1.397 . S
C528 C529 1.438 . S
C528 C533 1.429 . S
C529 C512 1.394 . S
C529 C528 1.438 . S
C529 C530 1.428 . S
C530 H522 0.949 . S
C530 C529 1.428 . S
C530 C531 1.345 1_545 S
C531 H523 0.950 . S
C531 C530 1.345 1_565 S
C531 C532 1.424 . S
C532 H524 0.951 . S
C532 C531 1.424 . S
C532 C533 1.347 1_565 S
C533 H525 0.951 . S
C533 C528 1.429 . S
C533 C532 1.347 1_545 S
H534 C535 0.951 . S
C535 H534 0.951 . S
C535 C541 1.265 . S
H536 C541 0.950 . S
H537 C545 0.949 . S
H538 C546 0.950 . S
H539 C547 0.951 . S
H540 C548 0.951 . S
C541 C535 1.265 . S
C541 H536 0.950 . S
C541 C542 1.478 . S
C542 C541 1.478 . S
C542 C543 1.397 . S
C542 C559 1.394 . S
C543 C542 1.397 . S
C543 C544 1.438 . S
C543 C548 1.429 . S
C544 C543 1.438 . S
C544 C545 1.428 . S
C544 C557 1.394 . S
C545 H537 0.949 . S
C545 C544 1.428 . S
C545 C546 1.345 . S
C546 H538 0.950 . S
C546 C545 1.345 . S
C546 C547 1.424 . S
C547 H539 0.951 . S
C547 C546 1.424 . S
C547 C548 1.347 . S
C548 H540 0.951 . S
C548 C543 1.429 . S
C548 C547 1.347 . S
H549 C550 0.951 . S
C550 H549 0.951 . S
C550 C556 1.265 . S
H551 C556 0.950 . S
H552 C560 0.949 . S
H553 C561 0.950 . S
H554 C562 0.951 . S
H555 C563 0.951 . S
C556 C550 1.265 . S
C556 H551 0.950 . S
C556 C557 1.478 . S
C557 C544 1.394 . S
C557 C556 1.478 . S
C557 C558 1.397 . S
C558 C557 1.397 . S
C558 C559 1.438 . S
C558 C563 1.429 . S
C559 C542 1.394 . S
C559 C558 1.438 . S
C559 C560 1.428 . S
C560 H552 0.949 . S
C560 C559 1.428 . S
C560 C561 1.345 . S
C561 H553 0.950 . S
C561 C560 1.345 . S
C561 C562 1.424 . S
C562 H554 0.951 . S
C562 C561 1.424 . S
C562 C563 1.347 . S
C563 H555 0.951 . S
C563 C558 1.429 . S
C563 C562 1.347 . S
H564 C565 0.951 . S
C565 H564 0.951 . S
C565 C571 1.265 . S
H566 C571 0.950 . S
H567 C575 0.949 . S
H568 C576 0.950 . S
H569 C577 0.951 . S
H570 C578 0.951 . S
C571 C565 1.265 . S
C571 H566 0.950 . S
C571 C572 1.478 . S
C572 C571 1.478 . S
C572 C573 1.397 . S
C572 C589 1.394 . S
C573 C572 1.397 . S
C573 C574 1.438 . S
C573 C578 1.429 . S
C574 C573 1.438 . S
C574 C575 1.428 . S
C574 C587 1.394 . S
C575 H567 0.949 . S
C575 C574 1.428 . S
C575 C576 1.345 . S
C576 H568 0.950 . S
C576 C575 1.345 . S
C576 C577 1.424 . S
C577 H569 0.951 . S
C577 C576 1.424 . S
C577 C578 1.347 . S
C578 H570 0.951 . S
C578 C573 1.429 . S
C578 C577 1.347 . S
H579 C580 0.951 . S
C580 H579 0.951 . S
C580 C586 1.265 . S
H581 C586 0.950 . S
H582 C590 0.949 . S
H583 C591 0.950 . S
H584 C592 0.951 . S
H585 C593 0.958 1_565 S
C586 C580 1.265 . S
C586 H581 0.950 . S
C586 C587 1.478 . S
C587 C574 1.394 . S
C587 C586 1.478 . S
C587 C588 1.397 . S
C588 C587 1.397 . S
C588 C589 1.438 . S
C588 C593 1.442 . S
C589 C572 1.394 . S
C589 C588 1.438 . S
C589 C590 1.428 . S
C590 H582 0.949 . S
C590 C589 1.428 . S
C590 C591 1.345 1_545 S
C591 H583 0.950 . S
C591 C590 1.345 1_565 S
C591 C592 1.424 . S
C592 H584 0.951 . S
C592 C591 1.424 . S
C592 C593 1.327 1_565 S
C593 H585 0.958 1_545 S
C593 C588 1.442 . S
C593 C592 1.327 1_545 S
H594 C595 0.951 . S
C595 H594 0.951 . S
C595 C601 1.265 . S
H596 C601 0.950 . S
H597 C605 0.949 . S
H598 C606 0.950 . S
H599 C607 0.951 . S
H600 C608 0.951 . S
C601 C595 1.265 . S
C601 H596 0.950 . S
C601 C602 1.478 . S
C602 C601 1.478 . S
C602 C603 1.417 . S
C602 C619 1.394 . S
C603 C602 1.417 . S
C603 C604 1.415 1_554 S
C603 C608 1.434 . S
C604 C603 1.415 1_556 S
C604 C605 1.428 . S
C604 C617 1.394 . S
C605 H597 0.949 . S
C605 C604 1.428 . S
C605 C606 1.345 . S
C606 H598 0.950 . S
C606 C605 1.345 . S
C606 C607 1.424 . S
C607 H599 0.951 . S
C607 C606 1.424 . S
C607 C608 1.347 1_556 S
C608 H600 0.951 . S
C608 C603 1.434 . S
C608 C607 1.347 1_554 S
H609 C610 0.951 . S
C610 H609 0.951 . S
C610 C616 1.265 . S
H611 C616 0.950 . S
H612 C620 0.949 1_545 S
H613 C621 0.950 1_545 S
H614 C622 0.950 . S
H615 C623 0.951 . S
C616 C610 1.265 . S
C616 H611 0.950 . S
C616 C617 1.478 . S
C617 C604 1.394 . S
C617 C616 1.478 . S
C617 C618 1.397 . S
C618 C617 1.397 . S
C618 C619 1.438 1_556 S
C618 C623 1.429 . S
C619 C602 1.394 . S
C619 C618 1.438 1_554 S
C619 C620 1.428 . S
C620 H612 0.949 1_565 S
C620 C619 1.428 . S
C620 C621 1.345 . S
C621 H613 0.950 1_565 S
C621 C620 1.345 . S
C621 C622 1.424 . S
C622 H614 0.950 . S
C622 C621 1.424 . S
C622 C623 1.347 1_554 S
C623 H615 0.951 . S
C623 C618 1.429 . S
C623 C622 1.347 1_556 S
H624 C625 0.951 . S
C625 H624 0.951 . S
C625 C631 1.265 1_455 S
H626 C631 0.950 . S
H627 C635 0.949 . S
H628 C636 0.950 . S
H629 C637 0.951 . S
H630 C638 0.951 . S
C631 C625 1.265 1_655 S
C631 H626 0.950 . S
C631 C632 1.478 . S
C632 C631 1.478 . S
C632 C633 1.397 . S
C632 C649 1.394 1_655 S
C633 C632 1.397 . S
C633 C634 1.438 . S
C633 C638 1.429 . S
C634 C633 1.438 . S
C634 C635 1.428 . S
C634 C647 1.394 1_655 S
C635 H627 0.949 . S
C635 C634 1.428 . S
C635 C636 1.345 . S
C636 H628 0.950 . S
C636 C635 1.345 . S
C636 C637 1.424 . S
C637 H629 0.951 . S
C637 C636 1.424 . S
C637 C638 1.347 . S
C638 H630 0.951 . S
C638 C633 1.429 . S
C638 C637 1.347 . S
H639 C640 0.951 1_655 S
C640 H639 0.951 1_455 S
C640 C646 1.265 . S
H641 C646 0.950 . S
H642 C650 0.949 . S
H643 C651 0.950 . S
H644 C652 0.951 . S
H645 C653 0.951 . S
C646 C640 1.265 . S
C646 H641 0.950 . S
C646 C647 1.478 . S
C647 C634 1.394 1_455 S
C647 C646 1.478 . S
C647 C648 1.397 . S
C648 C647 1.397 . S
C648 C649 1.438 . S
C648 C653 1.429 . S
C649 C632 1.394 1_455 S
C649 C648 1.438 . S
C649 C650 1.428 . S
C650 H642 0.949 . S
C650 C649 1.428 . S
C650 C651 1.345 . S
C651 H643 0.950 . S
C651 C650 1.345 . S
C651 C652 1.424 . S
C652 H644 0.951 . S
C652 C651 1.424 . S
C652 C653 1.347 . S
C653 H645 0.951 . S
C653 C648 1.429 . S
C653 C652 1.347 . S
H654 C655 0.951 . S
C655 H654 0.951 . S
C655 C661 1.265 . S
H656 C661 0.950 1_565 S
H657 C665 0.949 . S
H658 C666 0.950 . S
H659 C667 0.951 . S
H660 C668 0.951 . S
C661 C655 1.265 . S
C661 H656 0.950 1_545 S
C661 C662 1.478 . S
C662 C661 1.478 . S
C662 C663 1.397 . S
C662 C679 1.394 . S
C663 C662 1.397 . S
C663 C664 1.438 . S
C663 C668 1.429 . S
C664 C663 1.438 . S
C664 C665 1.428 . S
C664 C677 1.394 . S
C665 H657 0.949 . S
C665 C664 1.428 . S
C665 C666 1.345 . S
C666 H658 0.950 . S
C666 C665 1.345 . S
C666 C667 1.424 . S
C667 H659 0.951 . S
C667 C666 1.424 . S
C667 C668 1.347 . S
C668 H660 0.951 . S
C668 C663 1.429 . S
C668 C667 1.347 . S
H669 C670 0.951 . S
C670 H669 0.951 . S
C670 C676 1.265 . S
H671 C676 0.950 . S
H672 C680 0.949 . S
H673 C681 0.950 . S
H674 C682 0.951 . S
H675 C683 0.951 . S
C676 C670 1.265 . S
C676 H671 0.950 . S
C676 C677 1.478 . S
C677 C664 1.394 . S
C677 C676 1.478 . S
C677 C678 1.397 . S
C678 C677 1.397 . S
C678 C679 1.438 . S
C678 C683 1.429 . S
C679 C662 1.394 . S
C679 C678 1.438 . S
C679 C680 1.428 . S
C680 H672 0.949 . S
C680 C679 1.428 . S
C680 C681 1.345 . S
C681 H673 0.950 . S
C681 C680 1.345 . S
C681 C682 1.424 . S
C682 H674 0.951 . S
C682 C681 1.424 . S
C682 C683 1.347 . S
C683 H675 0.951 . S
C683 C678 1.429 . S
C683 C682 1.347 . S
H684 C685 0.951 . S
C685 H684 0.951 . S
C685 C691 1.265 . S
H686 C691 0.950 . S
H687 C695 0.949 . S
H688 C696 0.950 . S
H689 C697 0.951 . S
H690 C698 0.951 . S
C691 C685 1.265 . S
C691 H686 0.950 . S
C691 C692 1.478 . S
C692 C691 1.478 . S
C692 C693 1.397 1_554 S
C692 C709 1.394 . S
C693 C692 1.397 1_556 S
C693 C694 1.438 . S
C693 C698 1.429 . S
C694 C693 1.438 . S
C694 C695 1.428 . S
C694 C707 1.394 . S
C695 H687 0.949 . S
C695 C694 1.428 . S
C695 C696 1.345 . S
C696 H688 0.950 . S
C696 C695 1.345 . S
C696 C697 1.424 . S
C697 H689 0.951 . S
C697 C696 1.424 . S
C697 C698 1.347 . S
C698 H690 0.951 . S
C698 C693 1.429 . S
C698 C697 1.347 . S
H699 C700 0.951 . S
C700 H699 0.951 . S
C700 C706 1.265 . S
H701 C706 0.950 . S
H702 C710 0.949 . S
H703 C711 0.950 . S
H704 C712 0.951 . S
H705 C713 0.961 . S
C706 C700 1.265 . S
C706 H701 0.950 . S
C706 C707 1.478 . S
C707 C694 1.394 . S
C707 C706 1.478 . S
C707 C708 1.401 . S
C708 C707 1.401 . S
C708 C709 1.435 1_556 S
C708 C713 1.427 1_556 S
C709 C692 1.394 . S
C709 C708 1.435 1_554 S
C709 C710 1.428 . S
C710 H702 0.949 . S
C710 C709 1.428 . S
C710 C711 1.345 . S
C711 H703 0.950 . S
C711 C710 1.345 . S
C711 C712 1.424 . S
C712 H704 0.951 . S
C712 C711 1.424 . S
C712 C713 1.347 . S
C713 H705 0.961 . S
C713 C708 1.427 1_554 S
C713 C712 1.347 . S
H714 C715 0.951 . S
C715 H714 0.951 . S
C715 C721 1.265 . S
H716 C721 0.950 . S
H717 C725 0.949 . S
H718 C726 0.950 . S
H719 C727 0.951 . S
H720 C728 0.951 . S
C721 C715 1.265 . S
C721 H716 0.950 . S
C721 C722 1.478 . S
C722 C721 1.478 . S
C722 C723 1.397 . S
C722 C739 1.394 . S
C723 C722 1.397 . S
C723 C724 1.438 . S
C723 C728 1.429 . S
C724 C723 1.438 . S
C724 C725 1.428 . S
C724 C737 1.394 . S
C725 H717 0.949 . S
C725 C724 1.428 . S
C725 C726 1.345 . S
C726 H718 0.950 . S
C726 C725 1.345 . S
C726 C727 1.424 . S
C727 H719 0.951 . S
C727 C726 1.424 . S
C727 C728 1.347 . S
C728 H720 0.951 . S
C728 C723 1.429 . S
C728 C727 1.347 . S
H729 C730 0.951 . S
C730 H729 0.951 . S
C730 C736 1.265 . S
H731 C736 0.950 1_655 S
H732 C740 0.949 . S
H733 C741 0.950 . S
H734 C742 0.951 . S
H735 C743 0.951 . S
C736 C730 1.265 . S
C736 H731 0.950 1_455 S
C736 C737 1.478 . S
C737 C724 1.394 . S
C737 C736 1.478 . S
C737 C738 1.397 . S
C738 C737 1.397 . S
C738 C739 1.438 . S
C738 C743 1.429 . S
C739 C722 1.394 . S
C739 C738 1.438 . S
C739 C740 1.428 . S
C740 H732 0.949 . S
C740 C739 1.428 . S
C740 C741 1.345 . S
C741 H733 0.950 . S
C741 C740 1.345 . S
C741 C742 1.424 . S
C742 H734 0.951 . S
C742 C741 1.424 . S
C742 C743 1.347 . S
C743 H735 0.951 . S
C743 C738 1.429 . S
C743 C742 1.347 . S
C400 C97 1.082 . S
C385 C11 1.406 . S
C415 C26 1.553 . S
C430 C211 1.224 . S
C445 C40 1.192 . S
C460 C271 0.949 . S
C475 C5 1.127 1_565 S
C490 C71 1.163 . S
C520 C185 1.209 . S
C505 C18 1.411 . S
C535 C32 1.389 . S
C550 C281 0.944 . S
C580 C167 0.632 . S
C565 C39 1.246 . S
C595 C4 1.328 1_665 S
C610 C299 0.950 . S
C640 C43 0.821 . S
C625 C19 1.083 1_455 S
C670 C157 0.837 . S
C655 C33 1.096 . S
C700 C325 1.208 . S
C685 C12 1.427 . S
C715 C25 1.327 . S
C730 C53 0.810 . S
