# Generated by pormake.
# Topology eea, (3,6)-cn, num edge types: 1
# Building blocks:
#     Node 0, Type 0, BuildingBlock: BELTOD_clean_linker_0, # of connection points: 3
#     Node 1, Type 0, BuildingBlock: BELTOD_clean_linker_0, # of connection points: 3
#     Node 2, Type 0, BuildingBlock: BELTOD_clean_linker_0, # of connection points: 3
#     Node 3, Type 0, BuildingBlock: BELTOD_clean_linker_0, # of connection points: 3
#     Node 4, Type 0, BuildingBlock: BELTOD_clean_linker_0, # of connection points: 3
#     Node 5, Type 0, BuildingBlock: BELTOD_clean_linker_0, # of connection points: 3
#     Node 6, Type 0, BuildingBlock: BELTOD_clean_linker_0, # of connection points: 3
#     Node 7, Type 0, BuildingBlock: BELTOD_clean_linker_0, # of connection points: 3
#     Node 8, Type 0, BuildingBlock: BELTOD_clean_linker_0, # of connection points: 3
#     Node 9, Type 0, BuildingBlock: BELTOD_clean_linker_0, # of connection points: 3
#     Node 10, Type 0, BuildingBlock: BELTOD_clean_linker_0, # of connection points: 3
#     Node 11, Type 0, BuildingBlock: BELTOD_clean_linker_0, # of connection points: 3
#     Node 12, Type 0, BuildingBlock: BELTOD_clean_linker_0, # of connection points: 3
#     Node 13, Type 0, BuildingBlock: BELTOD_clean_linker_0, # of connection points: 3
#     Node 14, Type 0, BuildingBlock: BELTOD_clean_linker_0, # of connection points: 3
#     Node 15, Type 0, BuildingBlock: BELTOD_clean_linker_0, # of connection points: 3
#     Node 16, Type 0, BuildingBlock: BELTOD_clean_linker_0, # of connection points: 3
#     Node 17, Type 0, BuildingBlock: BELTOD_clean_linker_0, # of connection points: 3
#     Node 18, Type 1, BuildingBlock: NUHQIS_clean_sbu_0, # of connection points: 6
#     Node 19, Type 1, BuildingBlock: NUHQIS_clean_sbu_0, # of connection points: 6
#     Node 20, Type 1, BuildingBlock: NUHQIS_clean_sbu_0, # of connection points: 6
#     Node 21, Type 1, BuildingBlock: NUHQIS_clean_sbu_0, # of connection points: 6
#     Node 22, Type 1, BuildingBlock: NUHQIS_clean_sbu_0, # of connection points: 6
#     Node 23, Type 1, BuildingBlock: NUHQIS_clean_sbu_0, # of connection points: 6
#     Node 24, Type 1, BuildingBlock: NUHQIS_clean_sbu_0, # of connection points: 6
#     Node 25, Type 1, BuildingBlock: NUHQIS_clean_sbu_0, # of connection points: 6
#     Node 26, Type 1, BuildingBlock: NUHQIS_clean_sbu_0, # of connection points: 6
#     Edge 27, Type (0, 1), BuildingBlock: CIFDUS_clean_linker_0, # of connection points: 2
#     Edge 28, Type (0, 1), BuildingBlock: CIFDUS_clean_linker_0, # of connection points: 2
#     Edge 29, Type (0, 1), BuildingBlock: CIFDUS_clean_linker_0, # of connection points: 2
#     Edge 30, Type (0, 1), BuildingBlock: CIFDUS_clean_linker_0, # of connection points: 2
#     Edge 31, Type (0, 1), BuildingBlock: CIFDUS_clean_linker_0, # of connection points: 2
#     Edge 32, Type (0, 1), BuildingBlock: CIFDUS_clean_linker_0, # of connection points: 2
#     Edge 33, Type (0, 1), BuildingBlock: CIFDUS_clean_linker_0, # of connection points: 2
#     Edge 34, Type (0, 1), BuildingBlock: CIFDUS_clean_linker_0, # of connection points: 2
#     Edge 35, Type (0, 1), BuildingBlock: CIFDUS_clean_linker_0, # of connection points: 2
#     Edge 36, Type (0, 1), BuildingBlock: CIFDUS_clean_linker_0, # of connection points: 2
#     Edge 37, Type (0, 1), BuildingBlock: CIFDUS_clean_linker_0, # of connection points: 2
#     Edge 38, Type (0, 1), BuildingBlock: CIFDUS_clean_linker_0, # of connection points: 2
#     Edge 39, Type (0, 1), BuildingBlock: CIFDUS_clean_linker_0, # of connection points: 2
#     Edge 40, Type (0, 1), BuildingBlock: CIFDUS_clean_linker_0, # of connection points: 2
#     Edge 41, Type (0, 1), BuildingBlock: CIFDUS_clean_linker_0, # of connection points: 2
#     Edge 42, Type (0, 1), BuildingBlock: CIFDUS_clean_linker_0, # of connection points: 2
#     Edge 43, Type (0, 1), BuildingBlock: CIFDUS_clean_linker_0, # of connection points: 2
#     Edge 44, Type (0, 1), BuildingBlock: CIFDUS_clean_linker_0, # of connection points: 2
#     Edge 45, Type (0, 1), BuildingBlock: CIFDUS_clean_linker_0, # of connection points: 2
#     Edge 46, Type (0, 1), BuildingBlock: CIFDUS_clean_linker_0, # of connection points: 2
#     Edge 47, Type (0, 1), BuildingBlock: CIFDUS_clean_linker_0, # of connection points: 2
#     Edge 48, Type (0, 1), BuildingBlock: CIFDUS_clean_linker_0, # of connection points: 2
#     Edge 49, Type (0, 1), BuildingBlock: CIFDUS_clean_linker_0, # of connection points: 2
#     Edge 50, Type (0, 1), BuildingBlock: CIFDUS_clean_linker_0, # of connection points: 2
#     Edge 51, Type (0, 1), BuildingBlock: CIFDUS_clean_linker_0, # of connection points: 2
#     Edge 52, Type (0, 1), BuildingBlock: CIFDUS_clean_linker_0, # of connection points: 2
#     Edge 53, Type (0, 1), BuildingBlock: CIFDUS_clean_linker_0, # of connection points: 2
#     Edge 54, Type (0, 1), BuildingBlock: CIFDUS_clean_linker_0, # of connection points: 2
#     Edge 55, Type (0, 1), BuildingBlock: CIFDUS_clean_linker_0, # of connection points: 2
#     Edge 56, Type (0, 1), BuildingBlock: CIFDUS_clean_linker_0, # of connection points: 2
#     Edge 57, Type (0, 1), BuildingBlock: CIFDUS_clean_linker_0, # of connection points: 2
#     Edge 58, Type (0, 1), BuildingBlock: CIFDUS_clean_linker_0, # of connection points: 2
#     Edge 59, Type (0, 1), BuildingBlock: CIFDUS_clean_linker_0, # of connection points: 2
#     Edge 60, Type (0, 1), BuildingBlock: CIFDUS_clean_linker_0, # of connection points: 2
#     Edge 61, Type (0, 1), BuildingBlock: CIFDUS_clean_linker_0, # of connection points: 2
#     Edge 62, Type (0, 1), BuildingBlock: CIFDUS_clean_linker_0, # of connection points: 2
#     Edge 63, Type (0, 1), BuildingBlock: CIFDUS_clean_linker_0, # of connection points: 2
#     Edge 64, Type (0, 1), BuildingBlock: CIFDUS_clean_linker_0, # of connection points: 2
#     Edge 65, Type (0, 1), BuildingBlock: CIFDUS_clean_linker_0, # of connection points: 2
#     Edge 66, Type (0, 1), BuildingBlock: CIFDUS_clean_linker_0, # of connection points: 2
#     Edge 67, Type (0, 1), BuildingBlock: CIFDUS_clean_linker_0, # of connection points: 2
#     Edge 68, Type (0, 1), BuildingBlock: CIFDUS_clean_linker_0, # of connection points: 2
#     Edge 69, Type (0, 1), BuildingBlock: CIFDUS_clean_linker_0, # of connection points: 2
#     Edge 70, Type (0, 1), BuildingBlock: CIFDUS_clean_linker_0, # of connection points: 2
#     Edge 71, Type (0, 1), BuildingBlock: CIFDUS_clean_linker_0, # of connection points: 2
#     Edge 72, Type (0, 1), BuildingBlock: CIFDUS_clean_linker_0, # of connection points: 2
#     Edge 73, Type (0, 1), BuildingBlock: CIFDUS_clean_linker_0, # of connection points: 2
#     Edge 74, Type (0, 1), BuildingBlock: CIFDUS_clean_linker_0, # of connection points: 2
#     Edge 75, Type (0, 1), BuildingBlock: CIFDUS_clean_linker_0, # of connection points: 2
#     Edge 76, Type (0, 1), BuildingBlock: CIFDUS_clean_linker_0, # of connection points: 2
#     Edge 77, Type (0, 1), BuildingBlock: CIFDUS_clean_linker_0, # of connection points: 2
#     Edge 78, Type (0, 1), BuildingBlock: CIFDUS_clean_linker_0, # of connection points: 2
#     Edge 79, Type (0, 1), BuildingBlock: CIFDUS_clean_linker_0, # of connection points: 2
#     Edge 80, Type (0, 1), BuildingBlock: CIFDUS_clean_linker_0, # of connection points: 2
# Relax obj value: 0.032
# Max RMSD: 0.128
# Mean RMSD: 0.087
data_MOF--net-eea--node1-NUHQIS_clean_sbu_0--node2-BELTOD_clean_linker_0--edge1-CIFDUS_clean_linker_0
_symmetry_space_group_name_H-M    P1
_symmetry_Int_Tables_number       1
_symmetry_cell_setting            triclinic
loop_
_symmetry_equiv_pos_as_xyz
'x, y, z'
_cell_length_a     51.876691
_cell_length_b     52.00296
_cell_length_c     76.772169
_cell_angle_alpha  93.782931
_cell_angle_beta   93.187727
_cell_angle_gamma 120.04665
loop_
_atom_site_label
_atom_site_type_symbol
_atom_site_fract_x
_atom_site_fract_y
_atom_site_fract_z
_atom_type_partial_charge
P0 P 0.30957 0.15336 0.40851 0.0
H1 H 0.28196 0.1185 0.37459 0.0
H2 H 0.25016 0.06501 0.36566 0.0
H3 H 0.25725 0.04759 0.41955 0.0
H4 H 0.28705 0.10082 0.42842 0.0
H5 H 0.32973 0.21663 0.4106 0.0
H6 H 0.30518 0.24457 0.40238 0.0
H7 H 0.2237 0.16164 0.38484 0.0
H8 H 0.24779 0.13378 0.39363 0.0
H9 H 0.35878 0.15542 0.43003 0.0
H10 H 0.28188 0.16427 0.43817 0.0
O11 O 0.34053 0.16622 0.39825 0.0
H12 H 0.37013 0.15938 0.4618 0.0
H13 H 0.29301 0.16814 0.46993 0.0
C14 C 0.28669 0.11375 0.40215 0.0
C15 C 0.27641 0.10308 0.38446 0.0
C16 C 0.25841 0.07243 0.37938 0.0
C17 C 0.25101 0.05178 0.39187 0.0
C18 C 0.26181 0.0627 0.40958 0.0
C19 C 0.27927 0.09335 0.41468 0.0
C20 C 0.29084 0.17319 0.40243 0.0
C21 C 0.30658 0.20448 0.40499 0.0
C22 C 0.29257 0.22037 0.40035 0.0
C23 C 0.26269 0.20516 0.39285 0.0
C24 C 0.24689 0.17381 0.39037 0.0
C25 C 0.26075 0.15791 0.39535 0.0
C26 C 0.31995 0.16029 0.43181 0.0
C27 C 0.34467 0.15877 0.43868 0.0
C28 C 0.35094 0.16071 0.45681 0.0
C29 C 0.33247 0.1641 0.46835 0.0
C30 C 0.30789 0.16597 0.46138 0.0
C31 C 0.30154 0.16383 0.44324 0.0
P32 P 0.91243 0.12382 0.43878 0.0
H33 H 0.90512 0.06974 0.4198 0.0
H34 H 0.86267 0.02712 0.40233 0.0
H35 H 0.81005 0.06983 0.40857 0.0
H36 H 0.85265 0.11226 0.42639 0.0
H37 H 0.96661 0.18036 0.45016 0.0
H38 H 0.00435 0.21856 0.43426 0.0
H39 H 0.95078 0.17165 0.38522 0.0
H40 H 0.91339 0.13325 0.40124 0.0
H41 H 0.88165 0.09325 0.46769 0.0
H42 H 0.90926 0.17833 0.44837 0.0
O43 O 0.93278 0.1105 0.44775 0.0
H44 H 0.86096 0.10673 0.49202 0.0
H45 H 0.88945 0.19256 0.47315 0.0
C46 C 0.88178 0.09381 0.42466 0.0
C47 C 0.88447 0.06996 0.41738 0.0
C48 C 0.86022 0.0457 0.40727 0.0
C49 C 0.83286 0.04495 0.40413 0.0
C50 C 0.83063 0.06947 0.41099 0.0
C51 C 0.85497 0.09378 0.42111 0.0
C52 C 0.9371 0.15412 0.42694 0.0
C53 C 0.96275 0.17861 0.43601 0.0
C54 C 0.98428 0.20048 0.42688 0.0
C55 C 0.98065 0.19817 0.40843 0.0
C56 C 0.95445 0.17392 0.3994 0.0
C57 C 0.93289 0.15206 0.40858 0.0
C58 C 0.89753 0.13501 0.45647 0.0
C59 C 0.88353 0.11502 0.46882 0.0
C60 C 0.87185 0.12285 0.48279 0.0
C61 C 0.87398 0.15097 0.48475 0.0
C62 C 0.88741 0.17074 0.47204 0.0
C63 C 0.899 0.16275 0.45795 0.0
P64 P 0.85997 0.72881 0.42172 0.0
H65 H 0.81659 0.71118 0.39102 0.0
H66 H 0.78702 0.73193 0.37952 0.0
H67 H 0.82968 0.80501 0.42104 0.0
H68 H 0.85873 0.78344 0.43277 0.0
H69 H 0.89933 0.70509 0.41542 0.0
H70 H 0.94629 0.72425 0.40212 0.0
H71 H 0.94872 0.80782 0.39767 0.0
H72 H 0.90137 0.78825 0.41079 0.0
H73 H 0.81722 0.72645 0.44563 0.0
H74 H 0.90249 0.7306 0.44956 0.0
O75 O 0.8413 0.69267 0.41404 0.0
H76 H 0.81354 0.71995 0.4767 0.0
H77 H 0.89888 0.72397 0.48081 0.0
C78 C 0.83946 0.74548 0.41292 0.0
C79 C 0.81957 0.73163 0.39769 0.0
C80 C 0.80282 0.74371 0.39103 0.0
C81 C 0.80587 0.77016 0.39936 0.0
C82 C 0.8264 0.78437 0.41445 0.0
C83 C 0.84313 0.77217 0.42113 0.0
C84 C 0.89659 0.74504 0.41392 0.0
C85 C 0.91006 0.72763 0.41171 0.0
C86 C 0.93705 0.7387 0.40416 0.0
C87 C 0.95128 0.76756 0.39869 0.0
C88 C 0.93815 0.78534 0.40145 0.0
C89 C 0.91112 0.77422 0.40907 0.0
C90 C 0.86057 0.72994 0.44531 0.0
C91 C 0.83564 0.7269 0.45328 0.0
C92 C 0.83349 0.72306 0.4711 0.0
C93 C 0.85596 0.72153 0.4813 0.0
C94 C 0.88113 0.72494 0.47332 0.0
C95 C 0.88336 0.72903 0.45548 0.0
P96 P 0.12461 0.27415 0.59949 0.0
H97 H 0.08678 0.29683 0.61166 0.0
H98 H 0.03714 0.27285 0.62181 0.0
H99 H 0.02762 0.18625 0.6086 0.0
H100 H 0.07785 0.21067 0.59851 0.0
H101 H 0.17696 0.27217 0.58873 0.0
H102 H 0.20819 0.25467 0.60233 0.0
H103 H 0.14817 0.22119 0.6427 0.0
H104 H 0.11782 0.23982 0.62942 0.0
H105 H 0.13922 0.32447 0.57924 0.0
H106 H 0.11475 0.23218 0.56867 0.0
O107 O 0.14212 0.30844 0.61024 0.0
H108 H 0.14651 0.33154 0.54853 0.0
H109 H 0.12121 0.23881 0.53752 0.0
C110 C 0.08626 0.25557 0.60465 0.0
C111 C 0.07399 0.27267 0.6108 0.0
C112 C 0.04545 0.25888 0.61653 0.0
C113 C 0.02841 0.22759 0.61615 0.0
C114 C 0.04033 0.2104 0.60932 0.0
C115 C 0.06893 0.2243 0.60346 0.0
C116 C 0.1444 0.25638 0.60766 0.0
C117 C 0.17012 0.26043 0.60027 0.0
C118 C 0.18802 0.25041 0.6081 0.0
C119 C 0.18072 0.23638 0.62362 0.0
C120 C 0.15469 0.23211 0.63086 0.0
C121 C 0.13696 0.24232 0.62308 0.0
C122 C 0.12687 0.2779 0.57631 0.0
C123 C 0.13511 0.30557 0.57025 0.0
C124 C 0.13904 0.30953 0.55256 0.0
C125 C 0.13454 0.28579 0.54044 0.0
C126 C 0.12532 0.25773 0.5465 0.0
C127 C 0.12142 0.25381 0.56427 0.0
P128 P 0.81547 0.898 0.57813 0.0
H129 H 0.84714 0.93687 0.61022 0.0
H130 H 0.84006 0.97318 0.62804 0.0
H131 H 0.76191 0.95126 0.59316 0.0
H132 H 0.7691 0.91502 0.5754 0.0
H133 H 0.81699 0.84455 0.56685 0.0
H134 H 0.80835 0.80097 0.58149 0.0
H135 H 0.78153 0.83363 0.62609 0.0
H136 H 0.79035 0.87717 0.61144 0.0
H137 H 0.83431 0.9248 0.54564 0.0
H138 H 0.75443 0.85374 0.56322 0.0
O139 O 0.85217 0.91429 0.57648 0.0
H140 H 0.80847 0.91452 0.51622 0.0
H141 H 0.72835 0.84322 0.53371 0.0
C142 C 0.80902 0.92369 0.59134 0.0
C143 C 0.82846 0.93987 0.60644 0.0
C144 C 0.82423 0.96039 0.61669 0.0
C145 C 0.80048 0.9651 0.61194 0.0
C146 C 0.78059 0.9483 0.597 0.0
C147 C 0.78471 0.92759 0.58684 0.0
C148 C 0.80455 0.86417 0.58809 0.0
C149 C 0.8088 0.84205 0.57967 0.0
C150 C 0.80369 0.8171 0.58801 0.0
C151 C 0.79441 0.81398 0.60499 0.0
C152 C 0.78903 0.83565 0.6131 0.0
C153 C 0.79403 0.86054 0.6047 0.0
C154 C 0.79642 0.88961 0.55645 0.0
C155 C 0.81128 0.90677 0.54311 0.0
C156 C 0.79651 0.90086 0.52631 0.0
C157 C 0.76647 0.87792 0.52265 0.0
C158 C 0.75147 0.86109 0.53618 0.0
C159 C 0.76638 0.8669 0.55297 0.0
P160 P 0.14316 0.83636 0.60809 0.0
H161 H 0.2073 0.87474 0.61868 0.0
H162 H 0.2399 0.92884 0.62418 0.0
H163 H 0.16405 0.93994 0.61123 0.0
H164 H 0.13144 0.88576 0.60677 0.0
H165 H 0.08171 0.78904 0.5957 0.0
H166 H 0.03518 0.76768 0.60966 0.0
H167 H 0.08097 0.83273 0.65499 0.0
H168 H 0.12757 0.85364 0.64102 0.0
H169 H 0.15759 0.79851 0.58557 0.0
H170 H 0.11937 0.85467 0.57894 0.0
O171 O 0.16003 0.81998 0.61763 0.0
H172 H 0.15689 0.7908 0.55377 0.0
H173 H 0.11894 0.84729 0.54707 0.0
C174 C 0.16688 0.87625 0.61264 0.0
C175 C 0.19766 0.88884 0.61723 0.0
C176 C 0.21637 0.91987 0.62013 0.0
C177 C 0.2047 0.93893 0.61819 0.0
C178 C 0.17382 0.92606 0.6132 0.0
C179 C 0.15511 0.89504 0.61053 0.0
C180 C 0.10794 0.82337 0.61715 0.0
C181 C 0.08162 0.79908 0.60849 0.0
C182 C 0.05499 0.78689 0.61651 0.0
C183 C 0.05428 0.79854 0.63345 0.0
C184 C 0.08075 0.82307 0.64201 0.0
C185 C 0.10734 0.83526 0.63395 0.0
C186 C 0.13881 0.82742 0.58464 0.0
C187 C 0.14873 0.80893 0.57729 0.0
C188 C 0.14824 0.80444 0.55909 0.0
C189 C 0.13806 0.81862 0.54795 0.0
C190 C 0.12725 0.83639 0.55535 0.0
C191 C 0.12745 0.84058 0.57355 0.0
P192 P 0.98529 0.4959 0.7324 0.0
H193 H 0.98483 0.45562 0.70379 0.0
H194 H 0.95181 0.40201 0.69492 0.0
H195 H 0.8983 0.39648 0.73713 0.0
H196 H 0.93207 0.44988 0.74647 0.0
H197 H 0.0069 0.54823 0.71289 0.0
H198 H 0.98274 0.57428 0.701 0.0
H199 H 0.90095 0.51318 0.72214 0.0
H200 H 0.9254 0.48777 0.73431 0.0
H201 H 0.01678 0.47665 0.75537 0.0
H202 H 0.97097 0.52627 0.76107 0.0
O203 O 0.01757 0.50735 0.72368 0.0
H204 H 0.02706 0.48163 0.78721 0.0
H205 H 0.98146 0.53163 0.79299 0.0
C206 C 0.96095 0.45664 0.72582 0.0
C207 C 0.96612 0.44289 0.7112 0.0
C208 C 0.94726 0.41237 0.70612 0.0
C209 C 0.9226 0.39539 0.71535 0.0
C210 C 0.91708 0.40929 0.72977 0.0
C211 C 0.93634 0.43969 0.73508 0.0
C212 C 0.96787 0.51586 0.72435 0.0
C213 C 0.98379 0.54046 0.71499 0.0
C214 C 0.96989 0.55522 0.7081 0.0
C215 C 0.93987 0.54567 0.71053 0.0
C216 C 0.92416 0.52123 0.72014 0.0
C217 C 0.93807 0.50651 0.727 0.0
C218 C 0.99332 0.50123 0.75587 0.0
C219 C 0.00915 0.48884 0.7635 0.0
C220 C 0.0151 0.4918 0.78169 0.0
C221 C 0.0052 0.50716 0.79263 0.0
C222 C 0.98917 0.51947 0.78492 0.0
C223 C 0.98329 0.51655 0.76665 0.0
P224 P 0.5829 0.45546 0.77178 0.0
H225 H 0.56354 0.39202 0.76662 0.0
H226 H 0.52246 0.34966 0.74828 0.0
H227 H 0.49226 0.40753 0.72935 0.0
H228 H 0.53385 0.45021 0.74787 0.0
H229 H 0.62778 0.51791 0.78229 0.0
H230 H 0.66386 0.55705 0.76615 0.0
H231 H 0.6222 0.49929 0.71761 0.0
H232 H 0.5874 0.45992 0.73395 0.0
H233 H 0.57625 0.43716 0.80697 0.0
H234 H 0.5579 0.49493 0.7775 0.0
O235 O 0.60641 0.4446 0.77921 0.0
H236 H 0.55707 0.44952 0.83246 0.0
H237 H 0.53777 0.50699 0.803 0.0
C238 C 0.55196 0.42432 0.75843 0.0
C239 C 0.54818 0.39571 0.75854 0.0
C240 C 0.52455 0.37144 0.7481 0.0
C241 C 0.50414 0.37526 0.73735 0.0
C242 C 0.50783 0.40398 0.73736 0.0
C243 C 0.53144 0.42829 0.74797 0.0
C244 C 0.60438 0.48622 0.75933 0.0
C245 C 0.626 0.51397 0.76812 0.0
C246 C 0.64664 0.53638 0.75883 0.0
C247 C 0.64611 0.5314 0.74052 0.0
C248 C 0.62364 0.50384 0.73171 0.0
C249 C 0.60329 0.48137 0.74105 0.0
C250 C 0.56906 0.46561 0.79047 0.0
C251 C 0.56813 0.45263 0.80601 0.0
C252 C 0.55681 0.45948 0.82055 0.0
C253 C 0.54574 0.4792 0.81982 0.0
C254 C 0.54644 0.492 0.8041 0.0
C255 C 0.55786 0.4851 0.78951 0.0
P256 P 0.52692 0.05369 0.75394 0.0
H257 H 0.48634 0.03881 0.7223 0.0
H258 H 0.45523 0.05869 0.7116 0.0
H259 H 0.49068 0.12553 0.75645 0.0
H260 H 0.52251 0.10601 0.76689 0.0
H261 H 0.54194 0.03677 0.72101 0.0
H262 H 0.58751 0.05725 0.70635 0.0
H263 H 0.63416 0.12634 0.74971 0.0
H264 H 0.58799 0.1053 0.7645 0.0
H265 H 0.48828 0.0548 0.77989 0.0
H266 H 0.57039 0.05284 0.77994 0.0
O267 O 0.5072 0.01725 0.74701 0.0
H268 H 0.48786 0.04978 0.81115 0.0
H269 H 0.5698 0.04723 0.81145 0.0
C270 C 0.50601 0.07031 0.74568 0.0
C271 C 0.48754 0.05781 0.72982 0.0
C272 C 0.46985 0.06925 0.72367 0.0
C273 C 0.47023 0.09338 0.73333 0.0
C274 C 0.48959 0.10659 0.74891 0.0
C275 C 0.50774 0.09546 0.75487 0.0
C276 C 0.56172 0.06906 0.74404 0.0
C277 C 0.562 0.05615 0.7275 0.0
C278 C 0.58808 0.0681 0.71902 0.0
C279 C 0.61456 0.09351 0.72682 0.0
C280 C 0.61425 0.10656 0.74344 0.0
C281 C 0.58791 0.09459 0.7519 0.0
C282 C 0.53017 0.05572 0.77764 0.0
C283 C 0.50689 0.05445 0.78673 0.0
C284 C 0.50652 0.05132 0.80466 0.0
C285 C 0.52896 0.04841 0.81386 0.0
C286 C 0.55226 0.04955 0.80475 0.0
C287 C 0.55281 0.0531 0.78678 0.0
P288 P 0.78635 0.60461 0.93047 0.0
H289 H 0.74351 0.62494 0.92897 0.0
H290 H 0.6936 0.60526 0.93863 0.0
H291 H 0.69408 0.52596 0.9518 0.0
H292 H 0.74422 0.54602 0.94224 0.0
H293 H 0.79869 0.59252 0.96535 0.0
H294 H 0.82648 0.56966 0.97677 0.0
H295 H 0.84186 0.55067 0.92396 0.0
H296 H 0.81411 0.57374 0.91263 0.0
H297 H 0.74698 0.57466 0.89741 0.0
H298 H 0.8364 0.64776 0.91344 0.0
O299 O 0.80392 0.6382 0.94207 0.0
H300 H 0.75386 0.585 0.86672 0.0
H301 H 0.84361 0.65797 0.88298 0.0
C302 C 0.74772 0.58714 0.93502 0.0
C303 C 0.7327 0.60314 0.93372 0.0
C304 C 0.70409 0.59178 0.93922 0.0
C305 C 0.68983 0.56407 0.94614 0.0
C306 C 0.70459 0.54758 0.94683 0.0
C307 C 0.73324 0.55898 0.94126 0.0
C308 C 0.8044 0.58492 0.93818 0.0
C309 C 0.80781 0.58317 0.95622 0.0
C310 C 0.8236 0.56998 0.96272 0.0
C311 C 0.83647 0.5584 0.95128 0.0
C312 C 0.83252 0.5597 0.93313 0.0
C313 C 0.81652 0.57277 0.92663 0.0
C314 C 0.79097 0.61087 0.90772 0.0
C315 C 0.76806 0.59292 0.89432 0.0
C316 C 0.77211 0.59875 0.87679 0.0
C317 C 0.79917 0.6226 0.87239 0.0
C318 C 0.82226 0.63991 0.8859 0.0
C319 C 0.81821 0.63402 0.90334 0.0
P320 P 0.47902 0.22867 0.91117 0.0
H321 H 0.5147 0.29288 0.91118 0.0
H322 H 0.51135 0.33416 0.92562 0.0
H323 H 0.43739 0.27174 0.95214 0.0
H324 H 0.44108 0.23034 0.93766 0.0
H325 H 0.44169 0.16389 0.9016 0.0
H326 H 0.43519 0.12158 0.91663 0.0
H327 H 0.49158 0.18215 0.96179 0.0
H328 H 0.49664 0.2243 0.94694 0.0
H329 H 0.48994 0.24215 0.8752 0.0
H330 H 0.41364 0.1972 0.90448 0.0
O331 O 0.51362 0.24052 0.90574 0.0
H332 H 0.45672 0.23313 0.84892 0.0
H333 H 0.38 0.188 0.87803 0.0
C334 C 0.47864 0.25874 0.92372 0.0
C335 C 0.49813 0.28811 0.92035 0.0
C336 C 0.49596 0.31163 0.92845 0.0
C337 C 0.47401 0.30612 0.93994 0.0
C338 C 0.45469 0.27662 0.94348 0.0
C339 C 0.45682 0.25302 0.93526 0.0
C340 C 0.46915 0.19721 0.92331 0.0
C341 C 0.45177 0.16804 0.91496 0.0
C342 C 0.44839 0.14384 0.92351 0.0
C343 C 0.46308 0.14845 0.94037 0.0
C344 C 0.47957 0.17769 0.94893 0.0
C345 C 0.4826 0.20186 0.94043 0.0
C346 C 0.45417 0.21972 0.89164 0.0
C347 C 0.466 0.23003 0.87592 0.0
C348 C 0.44699 0.22513 0.86095 0.0
C349 C 0.4158 0.20994 0.86147 0.0
C350 C 0.40395 0.19954 0.87725 0.0
C351 C 0.42308 0.20472 0.89231 0.0
P352 P 0.79405 0.17527 0.92413 0.0
H353 H 0.80646 0.20858 0.9583 0.0
H354 H 0.83113 0.2618 0.96815 0.0
H355 H 0.84002 0.28139 0.91417 0.0
H356 H 0.81309 0.2282 0.90447 0.0
H357 H 0.77178 0.13807 0.95275 0.0
H358 H 0.72288 0.11201 0.96387 0.0
H359 H 0.68636 0.14183 0.92328 0.0
H360 H 0.73591 0.1688 0.9124 0.0
H361 H 0.84388 0.19884 0.90308 0.0
H362 H 0.74916 0.13524 0.89447 0.0
O363 O 0.81637 0.16564 0.93474 0.0
H364 H 0.84831 0.19167 0.87196 0.0
H365 H 0.7535 0.12732 0.86332 0.0
C366 C 0.80871 0.21439 0.93071 0.0
C367 C 0.81334 0.22438 0.9486 0.0
C368 C 0.82778 0.2549 0.9542 0.0
C369 C 0.83844 0.27615 0.94201 0.0
C370 C 0.83224 0.26587 0.92399 0.0
C371 C 0.81717 0.23526 0.9184 0.0
C372 C 0.75728 0.15465 0.9314 0.0
C373 C 0.7533 0.13891 0.94611 0.0
C374 C 0.7254 0.12421 0.95257 0.0
C375 C 0.70088 0.12485 0.94439 0.0
C376 C 0.70488 0.14077 0.9297 0.0
C377 C 0.73305 0.15601 0.92344 0.0
C378 C 0.79608 0.16834 0.90105 0.0
C379 C 0.82399 0.1833 0.89446 0.0
C380 C 0.82654 0.17895 0.87666 0.0
C381 C 0.80123 0.15899 0.86506 0.0
C382 C 0.77333 0.14333 0.87181 0.0
C383 C 0.77081 0.14788 0.88967 0.0
P384 P 0.65668 0.82934 0.0665 0.0
H385 H 0.64423 0.79552 0.03222 0.0
H386 H 0.61142 0.74249 0.02166 0.0
H387 H 0.58134 0.72526 0.07323 0.0
H388 H 0.61404 0.77804 0.08367 0.0
H389 H 0.68227 0.89156 0.05983 0.0
H390 H 0.65983 0.92151 0.05221 0.0
H391 H 0.57166 0.84436 0.05275 0.0
H392 H 0.59427 0.81452 0.06008 0.0
H393 H 0.69443 0.81607 0.08904 0.0
H394 H 0.63429 0.84984 0.09553 0.0
O395 O 0.68884 0.84151 0.05754 0.0
H396 H 0.70174 0.81704 0.12091 0.0
H397 H 0.64127 0.85061 0.12729 0.0
C398 C 0.63216 0.79052 0.05881 0.0
C399 C 0.6306 0.78026 0.04123 0.0
C400 C 0.61169 0.75006 0.03519 0.0
C401 C 0.59403 0.72973 0.04668 0.0
C402 C 0.59508 0.74033 0.06417 0.0
C403 C 0.61383 0.77052 0.07015 0.0
C404 C 0.63993 0.85073 0.06011 0.0
C405 C 0.65812 0.88106 0.05811 0.0
C406 C 0.64526 0.89819 0.05392 0.0
C407 C 0.61395 0.88525 0.05181 0.0
C408 C 0.59582 0.85483 0.05398 0.0
C409 C 0.60872 0.83775 0.05818 0.0
C410 C 0.66432 0.83341 0.08996 0.0
C411 C 0.68314 0.82408 0.09735 0.0
C412 C 0.68706 0.82437 0.11552 0.0
C413 C 0.67208 0.83392 0.12659 0.0
C414 C 0.65344 0.84355 0.11911 0.0
C415 C 0.64944 0.84311 0.10093 0.0
P416 P 0.24564 0.78276 0.10172 0.0
H417 H 0.24071 0.74101 0.07279 0.0
H418 H 0.19871 0.70119 0.05382 0.0
H419 H 0.13785 0.71706 0.08282 0.0
H420 H 0.18025 0.75884 0.10043 0.0
H421 H 0.28795 0.84552 0.11386 0.0
H422 H 0.32732 0.8855 0.09986 0.0
H423 H 0.29679 0.82833 0.05075 0.0
H424 H 0.25646 0.78961 0.06446 0.0
H425 H 0.2453 0.76791 0.13775 0.0
H426 H 0.21928 0.82063 0.10841 0.0
O427 O 0.26694 0.76869 0.10799 0.0
H428 H 0.22701 0.77987 0.16386 0.0
H429 H 0.20047 0.8325 0.13466 0.0
C430 C 0.21383 0.75338 0.08784 0.0
C431 C 0.21833 0.73634 0.07478 0.0
C432 C 0.19408 0.71309 0.06411 0.0
C433 C 0.1645 0.7054 0.06674 0.0
C434 C 0.16013 0.72248 0.08002 0.0
C435 C 0.18454 0.74641 0.09032 0.0
C436 C 0.26898 0.81443 0.09029 0.0
C437 C 0.28904 0.84197 0.09993 0.0
C438 C 0.31193 0.86471 0.09192 0.0
C439 C 0.31578 0.86007 0.07419 0.0
C440 C 0.29457 0.83299 0.06436 0.0
C441 C 0.27141 0.8105 0.07232 0.0
C442 C 0.23396 0.79367 0.12119 0.0
C443 C 0.23599 0.78239 0.13697 0.0
C444 C 0.22557 0.7893 0.15193 0.0
C445 C 0.21246 0.80726 0.15133 0.0
C446 C 0.21043 0.81857 0.13548 0.0
C447 C 0.22127 0.81195 0.12054 0.0
P448 P 0.1919 0.391 0.08619 0.0
H449 H 0.14802 0.3731 0.05574 0.0
H450 H 0.11705 0.39275 0.0449 0.0
H451 H 0.15629 0.46316 0.08802 0.0
H452 H 0.1867 0.44257 0.0991 0.0
H453 H 0.24162 0.37981 0.0889 0.0
H454 H 0.28859 0.4002 0.07534 0.0
H455 H 0.26895 0.46218 0.05147 0.0
H456 H 0.22219 0.44195 0.06518 0.0
H457 H 0.14371 0.36699 0.10854 0.0
H458 H 0.24012 0.41253 0.11561 0.0
O459 O 0.17529 0.35538 0.07762 0.0
H460 H 0.14185 0.35848 0.13946 0.0
H461 H 0.23846 0.40407 0.1466 0.0
C462 C 0.16927 0.40607 0.07839 0.0
C463 C 0.14985 0.39264 0.06295 0.0
C464 C 0.13232 0.40413 0.05666 0.0
C465 C 0.13413 0.42963 0.06555 0.0
C466 C 0.15397 0.44326 0.08097 0.0
C467 C 0.17146 0.43161 0.08729 0.0
C468 C 0.22851 0.40957 0.07832 0.0
C469 C 0.24773 0.39825 0.08107 0.0
C470 C 0.27456 0.40989 0.07327 0.0
C471 C 0.28248 0.43278 0.06229 0.0
C472 C 0.26337 0.44439 0.05974 0.0
C473 C 0.23668 0.43295 0.06772 0.0
C474 C 0.192 0.39025 0.10969 0.0
C475 C 0.16453 0.37567 0.11684 0.0
C476 C 0.1635 0.37088 0.13456 0.0
C477 C 0.19 0.3804 0.14553 0.0
C478 C 0.21761 0.39606 0.13846 0.0
C479 C 0.2186 0.40099 0.12071 0.0
P480 P 0.44997 0.934 0.26142 0.0
H481 H 0.42453 0.8995 0.29067 0.0
H482 H 0.37462 0.87589 0.30049 0.0
H483 H 0.34214 0.89958 0.25475 0.0
H484 H 0.39213 0.92228 0.24469 0.0
H485 H 0.51276 0.96147 0.27476 0.0
H486 H 0.5435 0.94124 0.28534 0.0
H487 H 0.46831 0.85162 0.27244 0.0
H488 H 0.43755 0.87218 0.26191 0.0
H489 H 0.46925 0.98733 0.24317 0.0
H490 H 0.43746 0.89384 0.2293 0.0
O491 O 0.464 0.96715 0.27322 0.0
H492 H 0.47733 0.99673 0.2128 0.0
H493 H 0.44481 0.90293 0.19849 0.0
C494 C 0.41193 0.91191 0.26668 0.0
C495 C 0.4065 0.89883 0.28246 0.0
C496 C 0.37797 0.88572 0.28822 0.0
C497 C 0.35429 0.88598 0.2785 0.0
C498 C 0.35968 0.89859 0.26246 0.0
C499 C 0.3883 0.91158 0.25667 0.0
C500 C 0.47268 0.91835 0.26799 0.0
C501 C 0.50287 0.93746 0.27418 0.0
C502 C 0.52051 0.92584 0.28011 0.0
C503 C 0.5083 0.8948 0.27987 0.0
C504 C 0.47823 0.87564 0.27307 0.0
C505 C 0.46065 0.88734 0.26702 0.0
C506 C 0.45287 0.93988 0.23853 0.0
C507 C 0.46362 0.96868 0.23353 0.0
C508 C 0.46806 0.97401 0.21605 0.0
C509 C 0.46171 0.95061 0.2031 0.0
C510 C 0.45028 0.92156 0.20813 0.0
C511 C 0.44588 0.91627 0.2257 0.0
P512 P 0.13878 0.55834 0.24739 0.0
H513 H 0.14809 0.5737 0.28531 0.0
H514 H 0.13938 0.60745 0.30438 0.0
H515 H 0.10064 0.62662 0.25931 0.0
H516 H 0.10832 0.59207 0.24051 0.0
H517 H 0.17965 0.53559 0.25263 0.0
H518 H 0.17701 0.49535 0.26865 0.0
H519 H 0.08866 0.47247 0.28167 0.0
H520 H 0.09171 0.51348 0.26603 0.0
H521 H 0.14384 0.58768 0.21583 0.0
H522 H 0.08411 0.50194 0.23303 0.0
O523 O 0.17444 0.58066 0.24395 0.0
H524 H 0.1134 0.57224 0.18753 0.0
H525 H 0.05372 0.48643 0.20477 0.0
C526 C 0.12844 0.57995 0.26151 0.0
C527 C 0.13705 0.58461 0.2796 0.0
C528 C 0.13231 0.60414 0.29047 0.0
C529 C 0.11937 0.61981 0.28338 0.0
C530 C 0.11018 0.61454 0.26527 0.0
C531 C 0.11475 0.59485 0.25444 0.0
C532 C 0.1359 0.52752 0.25821 0.0
C533 C 0.1597 0.52198 0.25892 0.0
C534 C 0.15822 0.49905 0.26807 0.0
C535 C 0.13268 0.48102 0.27638 0.0
C536 C 0.10851 0.48607 0.27529 0.0
C537 C 0.11025 0.5094 0.26639 0.0
C538 C 0.11651 0.54588 0.22648 0.0
C539 C 0.1243 0.56548 0.21349 0.0
C540 C 0.10678 0.55674 0.19739 0.0
C541 C 0.08122 0.52814 0.19399 0.0
C542 C 0.07347 0.5085 0.20702 0.0
C543 C 0.09086 0.51741 0.22321 0.0
P544 P 0.47817 0.50778 0.27448 0.0
H545 H 0.50959 0.54207 0.30801 0.0
H546 H 0.53274 0.59494 0.31861 0.0
H547 H 0.50106 0.6111 0.26959 0.0
H548 H 0.47826 0.55805 0.25897 0.0
H549 H 0.4482 0.44912 0.28733 0.0
H550 H 0.40101 0.42138 0.30015 0.0
H551 H 0.37936 0.48923 0.28924 0.0
H552 H 0.42668 0.51682 0.27626 0.0
H553 H 0.52857 0.53829 0.25463 0.0
H554 H 0.43524 0.47115 0.24341 0.0
O555 O 0.50029 0.49681 0.28393 0.0
H556 H 0.53582 0.534 0.22373 0.0
H557 H 0.44244 0.46634 0.2122 0.0
C558 C 0.49284 0.54633 0.28259 0.0
C559 C 0.50756 0.55697 0.29956 0.0
C560 C 0.5206 0.58719 0.30565 0.0
C561 C 0.51892 0.60731 0.29489 0.0
C562 C 0.50318 0.59629 0.27807 0.0
C563 C 0.49008 0.56598 0.27201 0.0
C564 C 0.44115 0.48525 0.28108 0.0
C565 C 0.4332 0.45792 0.28753 0.0
C566 C 0.40629 0.44217 0.29499 0.0
C567 C 0.38665 0.45334 0.29601 0.0
C568 C 0.39399 0.48001 0.28867 0.0
C569 C 0.42105 0.49584 0.28126 0.0
C570 C 0.4814 0.50512 0.25128 0.0
C571 C 0.50956 0.52269 0.24544 0.0
C572 C 0.51372 0.52006 0.22778 0.0
C573 C 0.48978 0.4996 0.21552 0.0
C574 C 0.46128 0.48241 0.22132 0.0
C575 C 0.45715 0.48505 0.23914 0.0
Tb576 Tb 0.49268 0.97982 0.98833 0.0
Eu577 Eu 0.51571 0.01911 0.02771 0.0
C578 C 0.52506 0.96377 0.01741 0.0
C579 C 0.45216 0.96041 0.01947 0.0
C580 C 0.48569 0.96377 0.94027 0.0
C581 C 0.48525 0.95285 0.90896 0.0
C582 C 0.47686 0.94308 0.92537 0.0
C583 C 0.50312 0.99443 0.93857 0.0
C584 C 0.51146 0.00425 0.92215 0.0
C585 C 0.50264 0.98356 0.90712 0.0
C586 C 0.47709 0.9533 0.95754 0.0
O587 O 0.49614 0.02225 0.98498 0.0
O588 O 0.48813 0.03432 0.01254 0.0
O589 O 0.55045 0.04816 0.01065 0.0
O590 O 0.54031 0.01171 0.98802 0.0
C591 C 0.48789 0.03686 0.99565 0.0
O592 O 0.50632 0.04167 0.04925 0.0
O593 O 0.54604 0.03802 0.05194 0.0
O594 O 0.53734 0.99105 0.0253 0.0
O595 O 0.50226 0.95312 0.00527 0.0
O596 O 0.45296 0.9641 1.00267 0.0
O597 O 0.47648 0.97433 0.03042 0.0
C598 C 0.55746 0.03871 0.99635 0.0
O599 O 0.49823 0.95431 0.96809 0.0
O600 O 0.4621 0.96352 0.96567 0.0
C601 C 0.52074 0.03456 0.07719 0.0
C602 C 0.50174 0.01437 0.10996 0.0
C603 C 0.51674 0.04508 0.1079 0.0
C604 C 0.52611 0.05505 0.09167 0.0
C605 C 0.5062 0.00391 0.07918 0.0
C606 C 0.49687 0.9939 0.09544 0.0
C607 C 0.52858 0.0452 0.05988 0.0
H608 H 0.47774 0.93634 0.89764 0.0
H609 H 0.46343 0.91935 0.92643 0.0
H610 H 0.51035 0.01077 0.94997 0.0
H611 H 0.52513 0.028 0.92126 0.0
H612 H 0.5212 0.06147 0.11885 0.0
H613 H 0.53718 0.07876 0.09037 0.0
H614 H 0.5016 0.98771 0.06808 0.0
H615 H 0.48514 0.97011 0.09653 0.0
Tb616 Tb 0.01029 0.50158 0.98037 0.0
Eu617 Eu 0.9793 0.4951 0.01723 0.0
C618 C 0.04056 0.55226 0.01143 0.0
C619 C 0.0318 0.4804 0.01325 0.0
C620 C 0.02583 0.50863 0.93321 0.0
C621 C 0.0408 0.53045 0.90593 0.0
C622 C 0.04727 0.53009 0.92377 0.0
C623 C 0.99749 0.48777 0.92464 0.0
C624 C 0.99104 0.48799 0.90672 0.0
C625 C 0.01275 0.50917 0.89712 0.0
C626 C 0.03386 0.50846 0.95187 0.0
O627 O 0.96614 0.46151 0.97531 0.0
O628 O 0.96174 0.44919 0.00346 0.0
O629 O 0.94829 0.49745 0.99663 0.0
O630 O 0.98394 0.52356 0.97844 0.0
C631 C 0.95463 0.44164 0.98653 0.0
O632 O 0.95481 0.46828 0.03762 0.0
O633 O 0.96671 0.51465 0.03886 0.0
O634 O 0.01406 0.5435 0.01663 0.0
O635 O 0.0447 0.53539 0.99983 0.0
O636 O 0.02587 0.47752 0.99607 0.0
O637 O 0.02037 0.49189 0.02397 0.0
C638 C 0.95731 0.51433 0.98375 0.0
O639 O 0.03643 0.53039 0.9625 0.0
O640 O 0.02008 0.48296 0.95844 0.0
C641 C 0.96882 0.49573 0.06551 0.0
C642 C 0.99407 0.50747 0.10056 0.0
C643 C 0.97 0.51186 0.09608 0.0
C644 C 0.95742 0.50594 0.07866 0.0
C645 C 0.99286 0.49134 0.06993 0.0
C646 C 0.00527 0.49701 0.08732 0.0
C647 C 0.95647 0.49087 0.04713 0.0
H648 H 0.05783 0.54744 0.89904 0.0
H649 H 0.06918 0.54653 0.93019 0.0
H650 H 0.98049 0.4711 0.93171 0.0
H651 H 0.9693 0.47114 0.90033 0.0
H652 H 0.96088 0.51978 0.10605 0.0
H653 H 0.93898 0.50959 0.07544 0.0
H654 H 1.00226 0.48383 0.05992 0.0
H655 H 0.0241 0.49388 0.09035 0.0
Tb656 Tb 0.50426 0.48829 0.02973 0.0
Eu657 Eu 0.47941 0.50294 0.9929 0.0
C658 C 0.47641 0.44108 0.99659 0.0
C659 C 0.54502 0.5096 0.99867 0.0
C660 C 0.51442 0.48059 0.07701 0.0
C661 C 0.51384 0.46771 0.10687 0.0
C662 C 0.51999 0.46512 0.08954 0.0
C663 C 0.50276 0.49887 0.08199 0.0
C664 C 0.49664 0.50152 0.09934 0.0
C665 C 0.50198 0.48586 0.112 0.0
C666 C 0.51884 0.47575 0.05859 0.0
O667 O 0.5244 0.53665 0.03161 0.0
O668 O 0.49212 0.54232 0.01249 0.0
O669 O 0.43998 0.4806 0.00895 0.0
O670 O 0.46688 0.49366 0.03596 0.0
C671 C 0.51377 0.55286 0.02535 0.0
O672 O 0.48481 0.53231 0.97257 0.0
O673 O 0.44623 0.48764 0.97013 0.0
O674 O 0.48293 0.46241 0.98654 0.0
O675 O 0.47653 0.44575 0.01359 0.0
O676 O 0.53688 0.49263 0.01164 0.0
O677 O 0.52867 0.5201 0.99203 0.0
C678 C 0.44148 0.48359 0.02619 0.0
O679 O 0.49445 0.45786 0.04842 0.0
O680 O 0.53649 0.49938 0.05115 0.0
C681 C 0.46969 0.50502 0.94461 0.0
C682 C 0.48403 0.49264 0.9113 0.0
C683 C 0.47129 0.51088 0.91343 0.0
C684 C 0.46406 0.51692 0.92998 0.0
C685 C 0.48299 0.48737 0.94256 0.0
C686 C 0.48993 0.48112 0.92609 0.0
C687 C 0.46241 0.51116 0.96213 0.0
H688 H 0.51778 0.45493 0.11615 0.0
H689 H 0.52861 0.4506 0.08586 0.0
H690 H 0.4981 0.5108 0.07243 0.0
H691 H 0.48785 0.51594 0.10286 0.0
H692 H 0.46644 0.52002 0.90227 0.0
H693 H 0.45403 0.53079 0.93134 0.0
H694 H 0.48801 0.47837 0.95372 0.0
H695 H 0.5002 0.46744 0.92496 0.0
Tb696 Tb 0.15836 0.31256 0.32223 0.0
Eu697 Eu 0.18412 0.34774 0.36253 0.0
C698 C 0.18495 0.28866 0.35077 0.0
C699 C 0.11712 0.29278 0.35267 0.0
C700 C 0.14432 0.30257 0.27372 0.0
C701 C 0.15176 0.3 0.24279 0.0
C702 C 0.14727 0.28763 0.25877 0.0
C703 C 0.14587 0.33015 0.27246 0.0
C704 C 0.1501 0.34243 0.25642 0.0
C705 C 0.15327 0.32757 0.24141 0.0
C706 C 0.14129 0.28989 0.29065 0.0
O707 O 0.1442 0.3455 0.32561 0.0
O708 O 0.18165 0.38037 0.34589 0.0
O709 O 0.2244 0.36241 0.34709 0.0
O710 O 0.19956 0.35369 0.3197 0.0
C711 C 0.16063 0.37312 0.33307 0.0
O712 O 0.1813 0.37419 0.38488 0.0
O713 O 0.21377 0.35962 0.38667 0.0
O714 O 0.17859 0.30242 0.36321 0.0
O715 O 0.18319 0.29341 0.33424 0.0
O716 O 0.12575 0.28353 0.33902 0.0
O717 O 0.13384 0.31982 0.36084 0.0
C718 C 0.22445 0.36612 0.33028 0.0
O719 O 0.16618 0.29495 0.29902 0.0
O720 O 0.12432 0.2937 0.30121 0.0
C721 C 0.19124 0.36154 0.41242 0.0
C722 C 0.17146 0.34267 0.44534 0.0
C723 C 0.18485 0.37301 0.44252 0.0
C724 C 0.19464 0.38231 0.42624 0.0
C725 C 0.178 0.33121 0.41513 0.0
C726 C 0.16835 0.32189 0.43147 0.0
C727 C 0.20067 0.37172 0.39515 0.0
H728 H 0.15377 0.28783 0.23145 0.0
H729 H 0.14635 0.26645 0.25949 0.0
H730 H 0.14411 0.34234 0.28389 0.0
H731 H 0.15146 0.36382 0.25585 0.0
H732 H 0.18794 0.38966 0.45297 0.0
H733 H 0.20472 0.40578 0.42442 0.0
H734 H 0.17488 0.31471 0.40457 0.0
H735 H 0.15789 0.29834 0.43314 0.0
Tb736 Tb 0.68461 0.844 0.31418 0.0
Eu737 Eu 0.65062 0.83421 0.3502 0.0
C738 C 0.71197 0.89356 0.34616 0.0
C739 C 0.70399 0.82087 0.34662 0.0
C740 C 0.70374 0.85337 0.26767 0.0
C741 C 0.71684 0.87952 0.24161 0.0
C742 C 0.72213 0.87888 0.25956 0.0
C743 C 0.6797 0.82847 0.25757 0.0
C744 C 0.67455 0.82902 0.23956 0.0
C745 C 0.69317 0.8545 0.2314 0.0
C746 C 0.7107 0.85313 0.28652 0.0
O747 O 0.64093 0.80408 0.30709 0.0
O748 O 0.63081 0.78929 0.3346 0.0
O749 O 0.62088 0.83806 0.32935 0.0
O750 O 0.65761 0.86523 0.31194 0.0
C751 C 0.62632 0.7834 0.31746 0.0
O752 O 0.63035 0.80718 0.37143 0.0
O753 O 0.63135 0.84916 0.37025 0.0
O754 O 0.68532 0.88302 0.35156 0.0
O755 O 0.7173 0.87801 0.33425 0.0
O756 O 0.69843 0.81832 0.32947 0.0
O757 O 0.69223 0.8321 0.35722 0.0
C758 C 0.63063 0.85558 0.31681 0.0
O759 O 0.71132 0.87419 0.29704 0.0
O760 O 0.69767 0.82742 0.29287 0.0
C761 C 0.63897 0.83605 0.39806 0.0
C762 C 0.66534 0.84827 0.4329 0.0
C763 C 0.63485 0.82681 0.42863 0.0
C764 C 0.62179 0.82072 0.41131 0.0
C765 C 0.66917 0.85799 0.40231 0.0
C766 C 0.6822 0.86415 0.41959 0.0
C767 C 0.62621 0.82736 0.37965 0.0
H768 H 0.73173 0.89933 0.23563 0.0
H769 H 0.74086 0.89827 0.26709 0.0
H770 H 0.66503 0.80853 0.26351 0.0
H771 H 0.65597 0.80953 0.23202 0.0
H772 H 0.62134 0.814 0.43854 0.0
H773 H 0.59852 0.80349 0.40819 0.0
H774 H 0.68285 0.86989 0.39219 0.0
H775 H 0.7056 0.88113 0.42248 0.0
Tb776 Tb 0.17406 0.82524 0.36468 0.0
Eu777 Eu 0.14188 0.82217 0.32576 0.0
C778 C 0.14784 0.76841 0.33804 0.0
C779 C 0.21107 0.84028 0.33158 0.0
C780 C 0.18768 0.82966 0.41331 0.0
C781 C 0.15224 0.81236 0.4353 0.0
C782 C 0.15892 0.8102 0.41806 0.0
C783 C 0.20938 0.85161 0.42603 0.0
C784 C 0.20262 0.85395 0.44323 0.0
C785 C 0.17406 0.83419 0.44808 0.0
C786 C 0.19565 0.82713 0.39536 0.0
O787 O 0.16755 0.86344 0.36487 0.0
O788 O 0.17321 0.87013 0.33607 0.0
O789 O 0.10964 0.82036 0.34499 0.0
O790 O 0.12604 0.80177 0.36654 0.0
C791 C 0.1754 0.88097 0.35229 0.0
O792 O 0.13512 0.8445 0.30425 0.0
O793 O 0.11323 0.79635 0.30183 0.0
O794 O 0.12872 0.77559 0.3315 0.0
O795 O 0.17139 0.78782 0.34864 0.0
O796 O 0.21112 0.8463 0.34854 0.0
O797 O 0.1861 0.82596 0.32101 0.0
C798 C 0.10593 0.80748 0.35958 0.0
O799 O 0.17764 0.80245 0.38534 0.0
O800 O 0.20437 0.85055 0.38685 0.0
C801 C 0.13397 0.8203 0.27699 0.0
C802 C 0.16166 0.82352 0.24587 0.0
C803 C 0.14145 0.83402 0.24723 0.0
C804 C 0.12775 0.83245 0.26268 0.0
C805 C 0.15405 0.80978 0.27566 0.0
C806 C 0.16761 0.81123 0.26028 0.0
C807 C 0.12091 0.81991 0.2936 0.0
H808 H 0.12996 0.79705 0.43863 0.0
H809 H 0.14162 0.79319 0.4085 0.0
H810 H 0.23169 0.86681 0.42269 0.0
H811 H 0.21996 0.87082 0.45284 0.0
H812 H 0.1366 0.84393 0.23648 0.0
H813 H 0.11258 0.841 0.26352 0.0
H814 H 0.15936 0.80046 0.28657 0.0
H815 H 0.1826 0.80244 0.25966 0.0
Tb816 Tb 0.82627 0.65135 0.65649 0.0
Eu817 Eu 0.84823 0.68908 0.69612 0.0
C818 C 0.85412 0.63249 0.68699 0.0
C819 C 0.78332 0.63084 0.68627 0.0
C820 C 0.81702 0.6359 0.608 0.0
C821 C 0.81661 0.62536 0.57666 0.0
C822 C 0.81019 0.61546 0.59324 0.0
C823 C 0.82992 0.66643 0.60597 0.0
C824 C 0.83634 0.67639 0.58937 0.0
C825 C 0.83009 0.65599 0.57453 0.0
C826 C 0.81236 0.62537 0.62553 0.0
O827 O 0.80848 0.68149 0.65734 0.0
O828 O 0.84182 0.71853 0.6785 0.0
O829 O 0.88935 0.70549 0.68126 0.0
O830 O 0.86521 0.694 0.6535 0.0
C831 C 0.82156 0.70909 0.66495 0.0
O832 O 0.84262 0.71442 0.71787 0.0
O833 O 0.87885 0.70498 0.7202 0.0
O834 O 0.84468 0.64483 0.69842 0.0
O835 O 0.85461 0.63778 0.67048 0.0
O836 O 0.79359 0.62215 0.67322 0.0
O837 O 0.79829 0.65823 0.69417 0.0
C838 C 0.88977 0.70828 0.66433 0.0
O839 O 0.83663 0.63184 0.63525 0.0
O840 O 0.79431 0.63029 0.63446 0.0
C841 C 0.85628 0.70591 0.74594 0.0
C842 C 0.84259 0.68908 0.78004 0.0
C843 C 0.82205 0.67234 0.76527 0.0
C844 C 0.82886 0.68064 0.74837 0.0
C845 C 0.87694 0.72238 0.76055 0.0
C846 C 0.87022 0.71406 0.7774 0.0
C847 C 0.86384 0.71522 0.7283 0.0
H848 H 0.81104 0.60899 0.5655 0.0
H849 H 0.80029 0.59183 0.59456 0.0
H850 H 0.83554 0.68259 0.61727 0.0
H851 H 0.84694 0.70012 0.58825 0.0
H852 H 0.80049 0.65314 0.76678 0.0
H853 H 0.81265 0.66746 0.73723 0.0
H854 H 0.89833 0.74174 0.75892 0.0
H855 H 0.88685 0.72714 0.78838 0.0
Tb856 Tb 0.35008 0.17595 0.65517 0.0
Eu857 Eu 0.31051 0.15627 0.68907 0.0
C858 C 0.37194 0.21733 0.69138 0.0
C859 C 0.36776 0.14749 0.68512 0.0
C860 C 0.37182 0.1906 0.60955 0.0
C861 C 0.37889 0.21554 0.58308 0.0
C862 C 0.3852 0.21671 0.60112 0.0
C863 C 0.35205 0.16313 0.59962 0.0
C864 C 0.34595 0.16191 0.58151 0.0
C865 C 0.35923 0.18815 0.57309 0.0
C866 C 0.37866 0.19291 0.62866 0.0
O867 O 0.3195 0.12745 0.65008 0.0
O868 O 0.28202 0.12288 0.66643 0.0
O869 O 0.29798 0.18527 0.67426 0.0
O870 O 0.30823 0.17383 0.64727 0.0
C871 C 0.29181 0.11214 0.65424 0.0
O872 O 0.28411 0.12312 0.70644 0.0
O873 O 0.29017 0.16757 0.71005 0.0
O874 O 0.3553 0.1943 0.69962 0.0
O875 O 0.36836 0.21602 0.67417 0.0
O876 O 0.37704 0.16673 0.67342 0.0
O877 O 0.3414 0.13731 0.69108 0.0
C878 C 0.29454 0.1838 0.65707 0.0
O879 O 0.37058 0.20888 0.63812 0.0
O880 O 0.37304 0.16857 0.63554 0.0
C881 C 0.29195 0.1455 0.73524 0.0
C882 C 0.31367 0.15458 0.77079 0.0
C883 C 0.28268 0.13829 0.76569 0.0
C884 C 0.27186 0.13391 0.74797 0.0
C885 C 0.32284 0.16095 0.74028 0.0
C886 C 0.3336 0.16555 0.75788 0.0
C887 C 0.28124 0.14236 0.71673 0.0
H888 H 0.38969 0.23605 0.57691 0.0
H889 H 0.40053 0.23811 0.60854 0.0
H890 H 0.34123 0.14267 0.60584 0.0
H891 H 0.33051 0.14054 0.57412 0.0
H892 H 0.26692 0.12959 0.77542 0.0
H893 H 0.24793 0.12183 0.74423 0.0
H894 H 0.33866 0.16977 0.73059 0.0
H895 H 0.35759 0.17769 0.76142 0.0
Tb896 Tb 0.83475 0.15512 0.68609 0.0
Eu897 Eu 0.80628 0.17451 0.6534 0.0
C898 C 0.80336 0.11182 0.65156 0.0
C899 C 0.87187 0.18125 0.65435 0.0
C900 C 0.85147 0.14365 0.73139 0.0
C901 C 0.8561 0.13011 0.76056 0.0
C902 C 0.85951 0.12817 0.74267 0.0
C903 C 0.84018 0.16131 0.73818 0.0
C904 C 0.83677 0.16329 0.75607 0.0
C905 C 0.84453 0.14756 0.76746 0.0
C906 C 0.85319 0.13986 0.71245 0.0
O907 O 0.85665 0.20362 0.68934 0.0
O908 O 0.82106 0.21123 0.67539 0.0
O909 O 0.76901 0.14965 0.67029 0.0
O910 O 0.79841 0.15948 0.69602 0.0
C911 C 0.8454 0.22076 0.68615 0.0
O912 O 0.81071 0.20649 0.63496 0.0
O913 O 0.77019 0.16324 0.63297 0.0
O914 O 0.80823 0.1344 0.6429 0.0
O915 O 0.80573 0.1144 0.66876 0.0
O916 O 0.86459 0.16133 0.66568 0.0
O917 O 0.85522 0.19303 0.65067 0.0
C918 C 0.77225 0.15088 0.68748 0.0
O919 O 0.82758 0.12279 0.70316 0.0
O920 O 0.86972 0.16411 0.70521 0.0
C921 C 0.79184 0.18056 0.60669 0.0
C922 C 0.81271 0.17153 0.57495 0.0
C923 C 0.81616 0.19953 0.58039 0.0
C924 C 0.80591 0.20404 0.5962 0.0
C925 C 0.78679 0.15213 0.60062 0.0
C926 C 0.79709 0.1477 0.58496 0.0
C927 C 0.78681 0.1866 0.62493 0.0
H928 H 0.86193 0.11742 0.76892 0.0
H929 H 0.86797 0.11419 0.73758 0.0
H930 H 0.83373 0.17332 0.72961 0.0
H931 H 0.82818 0.17723 0.76097 0.0
H932 H 0.82819 0.21831 0.57294 0.0
H933 H 0.8103 0.2262 0.60065 0.0
H934 H 0.7761 0.13352 0.60836 0.0
H935 H 0.79368 0.12575 0.58096 0.0
H936 H 0.32167 0.87517 0.04032 0.0
H937 H 0.37254 0.89352 0.09072 0.0
H938 H 0.41835 0.9264 0.07827 0.0
H939 H 0.4445 0.94819 0.05314 0.0
H940 H 0.39529 0.92877 1.00215 0.0
H941 H 0.34842 0.89734 0.01475 0.0
C942 C 0.34276 0.88622 0.04859 0.0
C943 C 0.34333 0.88184 0.06654 0.0
C944 C 0.36943 0.90459 0.04121 0.0
C945 C 0.371 0.89683 0.07701 0.0
C946 C 0.39741 0.91542 0.06985 0.0
C947 C 0.4236 0.93713 0.04468 0.0
C948 C 0.42351 0.9408 0.02667 0.0
C949 C 0.39691 0.91919 0.05196 0.0
C950 C 0.39608 0.92625 0.01603 0.0
C951 C 0.36926 0.90834 0.02324 0.0
H952 H 0.12075 0.4341 0.03146 0.0
H953 H 0.10499 0.45236 0.08424 0.0
H954 H 0.07267 0.47041 0.07285 0.0
H955 H 0.04757 0.47955 0.04778 0.0
H956 H 0.06245 0.45945 0.99506 0.0
H957 H 0.09591 0.44313 0.0066 0.0
C958 C 0.11005 0.44175 0.04051 0.0
C959 C 0.11526 0.44168 0.0587 0.0
C960 C 0.09113 0.45164 0.03387 0.0
C961 C 0.1017 0.4524 0.07019 0.0
C962 C 0.083 0.46254 0.06368 0.0
C963 C 0.05813 0.47162 0.0388 0.0
C964 C 0.0523 0.47068 0.02054 0.0
C965 C 0.07738 0.46207 0.04552 0.0
C966 C 0.0663 0.46036 0.00915 0.0
C967 C 0.08554 0.45102 0.01574 0.0
H968 H 0.58982 0.68378 0.06342 0.0
H969 H 0.55679 0.70333 0.0163 0.0
H970 H 0.52753 0.64998 0.00594 0.0
H971 H 0.51282 0.598 0.00989 0.0
H972 H 0.54732 0.57898 0.05673 0.0
H973 H 0.57417 0.63191 0.06772 0.0
C974 C 0.5759 0.67631 0.05099 0.0
C975 C 0.5754 0.6974 0.04065 0.0
C976 C 0.55942 0.64574 0.04508 0.0
C977 C 0.55771 0.68749 0.02442 0.0
C978 C 0.5409 0.65702 0.01853 0.0
C979 C 0.52594 0.6054 0.02259 0.0
C980 C 0.52808 0.58459 0.03247 0.0
C981 C 0.54178 0.63596 0.0287 0.0
C982 C 0.54543 0.59457 0.04882 0.0
C983 C 0.56079 0.62483 0.05513 0.0
H984 H 0.87933 0.30189 0.97073 0.0
H985 H 0.84106 0.32401 0.92687 0.0
H986 H 0.87465 0.37717 0.93617 0.0
H987 H 0.91498 0.41762 0.95702 0.0
H988 H 0.94933 0.39434 1.00206 0.0
H989 H 0.91667 0.34139 0.9922 0.0
C990 C 0.8777 0.31816 0.96335 0.0
C991 C 0.85751 0.30868 0.9481 0.0
C992 C 0.89647 0.34862 0.96899 0.0
C993 C 0.85661 0.33046 0.93851 0.0
C994 C 0.87572 0.36094 0.94388 0.0
C995 C 0.91525 0.40087 0.96461 0.0
C996 C 0.93453 0.4098 0.9802 0.0
C997 C 0.89584 0.3703 0.95908 0.0
C998 C 0.93454 0.38798 0.99005 0.0
C999 C 0.91593 0.3577 0.98442 0.0
H1000 H 0.67119 0.53703 0.97603 0.0
H1001 H 0.64174 0.56665 0.93193 0.0
H1002 H 0.59463 0.55236 0.94426 0.0
H1003 H 0.56233 0.5328 0.96784 0.0
H1004 H 0.5909 0.50216 0.01178 0.0
H1005 H 0.6376 0.51514 0.99909 0.0
C1006 C 0.6543 0.53996 0.96897 0.0
C1007 C 0.6602 0.55313 0.9531 0.0
C1008 C 0.62713 0.53164 0.97615 0.0
C1009 C 0.6381 0.55705 0.94429 0.0
C1010 C 0.61107 0.54878 0.9513 0.0
C1011 C 0.57876 0.52899 0.97471 0.0
C1012 C 0.57315 0.51676 0.99086 0.0
C1013 C 0.60549 0.53639 0.96731 0.0
C1014 C 0.59459 0.5116 0.99938 0.0
C1015 C 0.62134 0.51905 0.99212 0.0
H1016 H 0.4608 0.13713 0.97478 0.0
H1017 H 0.46835 0.10392 0.92336 0.0
H1018 H 0.47449 0.06544 0.93592 0.0
H1019 H 0.48119 0.04338 0.96139 0.0
H1020 H 0.47621 0.07712 0.01326 0.0
H1021 H 0.46586 0.11343 1.0006 0.0
C1022 C 0.46376 0.12145 0.96634 0.0
C1023 C 0.464 0.12346 0.94813 0.0
C1024 C 0.46802 0.09966 0.97371 0.0
C1025 C 0.46747 0.10266 0.93735 0.0
C1026 C 0.47132 0.08078 0.94454 0.0
C1027 C 0.47778 0.05858 0.97001 0.0
C1028 C 0.47978 0.05772 0.98828 0.0
C1029 C 0.47213 0.07941 0.9627 0.0
C1030 C 0.47492 0.07739 0.99915 0.0
C1031 C 0.46904 0.09817 0.99192 0.0
H1032 H 0.68785 0.12847 0.97788 0.0
H1033 H 0.64761 0.08448 0.92593 0.0
H1034 H 0.59936 0.0542 0.93741 0.0
H1035 H 0.56941 0.03868 0.96244 0.0
H1036 H 0.60901 0.08413 0.01425 0.0
H1037 H 0.6568 0.11549 1.00262 0.0
C1038 C 0.66843 0.11231 0.9691 0.0
C1039 C 0.67121 0.10847 0.95113 0.0
C1040 C 0.6408 0.09521 0.97578 0.0
C1041 C 0.64589 0.08783 0.9398 0.0
C1042 C 0.61841 0.07044 0.94637 0.0
C1043 C 0.58851 0.05548 0.97118 0.0
C1044 C 0.58583 0.05887 0.98922 0.0
C1045 C 0.61572 0.07367 0.96437 0.0
C1046 C 0.61056 0.08109 1.00033 0.0
C1047 C 0.63788 0.09895 0.9937 0.0
H1048 H 0.89002 0.56777 0.94162 0.0
H1049 H 0.82405 0.5213 0.97713 0.0
H1050 H 0.85531 0.5033 0.99014 0.0
H1051 H 0.90192 0.50174 0.99194 0.0
H1052 H 0.96797 0.54833 0.9564 0.0
H1053 H 0.93601 0.56497 0.94283 0.0
C1054 C 0.88229 0.55336 0.95204 0.0
C1055 C 0.85473 0.54596 0.9584 0.0
C1056 C 0.90046 0.54318 0.95952 0.0
C1057 C 0.8453 0.52763 0.97211 0.0
C1058 C 0.86313 0.51724 0.97953 0.0
C1059 C 0.90935 0.51547 0.9812 0.0
C1060 C 0.93744 0.52384 0.9753 0.0
C1061 C 0.89088 0.5251 0.97345 0.0
C1062 C 0.94656 0.54161 0.96131 0.0
C1063 C 0.92827 0.55115 0.9535 0.0
H1064 H 0.46736 0.3177 0.97401 0.0
H1065 H 0.47402 0.35067 0.92334 0.0
H1066 H 0.4732 0.3943 0.93632 0.0
H1067 H 0.47357 0.42433 0.96209 0.0
H1068 H 0.46796 0.39259 0.01312 0.0
H1069 H 0.46475 0.34686 0.99987 0.0
C1070 C 0.46822 0.33427 0.96581 0.0
C1071 C 0.4711 0.3312 0.9478 0.0
C1072 C 0.46794 0.35945 0.97339 0.0
C1073 C 0.47235 0.35286 0.9373 0.0
C1074 C 0.47174 0.37772 0.94469 0.0
C1075 C 0.47142 0.40737 0.97037 0.0
C1076 C 0.47125 0.41202 0.9886 0.0
C1077 C 0.47006 0.38147 0.96274 0.0
C1078 C 0.46822 0.38963 0.99904 0.0
C1079 C 0.46648 0.36351 0.99149 0.0
H1080 H 0.16079 0.65372 0.05267 0.0
H1081 H 0.10903 0.69776 0.05647 0.0
H1082 H 0.06604 0.65414 0.04021 0.0
H1083 H 0.04287 0.60315 0.02487 0.0
H1084 H 0.09674 0.56209 0.01842 0.0
H1085 H 0.13952 0.60546 0.03521 0.0
C1086 C 0.14048 0.65435 0.04966 0.0
C1087 C 0.13847 0.67928 0.05603 0.0
C1088 C 0.11614 0.62969 0.03968 0.0
C1089 C 0.11133 0.67881 0.05222 0.0
C1090 C 0.08669 0.65392 0.04273 0.0
C1091 C 0.06407 0.60388 0.02709 0.0
C1092 C 0.0667 0.57953 0.02048 0.0
C1093 C 0.0888 0.62918 0.03645 0.0
C1094 C 0.09428 0.58071 0.02327 0.0
C1095 C 0.11869 0.60541 0.03295 0.0
H1096 H 0.33813 0.44706 0.07595 0.0
H1097 H 0.28859 0.44278 0.02779 0.0
H1098 H 0.33318 0.45831 0.01225 0.0
H1099 H 0.38623 0.47186 0.01219 0.0
H1100 H 0.43536 0.47676 0.06081 0.0
H1101 H 0.39112 0.46215 0.07615 0.0
C1102 C 0.33708 0.44947 0.06204 0.0
C1103 C 0.31003 0.44366 0.05305 0.0
C1104 C 0.3628 0.45846 0.0532 0.0
C1105 C 0.30919 0.44734 0.03508 0.0
C1106 C 0.33465 0.45606 0.02615 0.0
C1107 C 0.38724 0.46976 0.02613 0.0
C1108 C 0.41419 0.47538 0.03524 0.0
C1109 C 0.36158 0.4615 0.03504 0.0
C1110 C 0.41506 0.47272 0.05338 0.0
C1111 C 0.38969 0.46427 0.06223 0.0
H1112 H 0.56584 0.8696 0.02835 0.0
H1113 H 0.63139 0.94193 0.06573 0.0
H1114 H 0.60947 0.97238 0.05849 0.0
H1115 H 0.57202 0.97856 0.0415 0.0
H1116 H 0.50611 0.90621 0.00419 0.0
H1117 H 0.52762 0.8755 0.01168 0.0
C1118 C 0.57514 0.89192 0.03503 0.0
C1119 C 0.60027 0.9035 0.04752 0.0
C1120 C 0.56235 0.90927 0.03086 0.0
C1121 C 0.61232 0.93263 0.05588 0.0
C1122 C 0.59969 0.94999 0.05183 0.0
C1123 C 0.56224 0.95605 0.03501 0.0
C1124 C 0.53748 0.94477 0.02228 0.0
C1125 C 0.57478 0.93857 0.03931 0.0
C1126 C 0.52517 0.91551 0.01404 0.0
C1127 C 0.53748 0.89792 0.0183 0.0
H1128 H 1.00149 0.18711 0.37865 0.0
H1129 H 0.01452 0.25881 0.41651 0.0
H1130 H 0.05708 0.29443 0.4022 0.0
H1131 H 0.09189 0.30488 0.37982 0.0
H1132 H 0.0789 0.23338 0.34177 0.0
H1133 H 0.03465 0.19818 0.3551 0.0
C1134 C 0.01328 0.21061 0.3836 0.0
C1135 C 0.00485 0.22018 0.39873 0.0
C1136 C 0.03778 0.23102 0.37529 0.0
C1137 C 0.02075 0.2507 0.40507 0.0
C1138 C 0.04504 0.27113 0.39685 0.0
C1139 C 0.07932 0.28164 0.37432 0.0
C1140 C 0.0889 0.27183 0.35984 0.0
C1141 C 0.054 0.26147 0.3821 0.0
C1142 C 0.07214 0.24162 0.3529 0.0
C1143 C 0.04684 0.22142 0.36055 0.0
H1144 H 0.79146 0.77298 0.36515 0.0
H1145 H 0.77848 0.79503 0.41788 0.0
H1146 H 0.74645 0.81329 0.40635 0.0
H1147 H 0.72078 0.82153 0.38119 0.0
H1148 H 0.73307 0.79793 0.32853 0.0
H1149 H 0.76619 0.7813 0.34018 0.0
C1150 C 0.78145 0.78154 0.37415 0.0
C1151 C 0.78735 0.78246 0.39237 0.0
C1152 C 0.76272 0.79159 0.36744 0.0
C1153 C 0.77466 0.7943 0.4038 0.0
C1154 C 0.75612 0.80456 0.39721 0.0
C1155 C 0.73069 0.81277 0.37225 0.0
C1156 C 0.72425 0.81095 0.35398 0.0
C1157 C 0.74981 0.80311 0.37904 0.0
C1158 C 0.73744 0.79957 0.34264 0.0
C1159 C 0.75648 0.79004 0.34928 0.0
H1160 H 0.25158 0.02127 0.36172 0.0
H1161 H 0.20926 0.00822 0.40985 0.0
H1162 H 0.18217 0.95432 0.4019 0.0
H1163 H 0.17136 0.91067 0.38158 0.0
H1164 H 0.21108 0.92437 0.33261 0.0
H1165 H 0.23757 0.97831 0.34041 0.0
C1166 C 0.23599 0.00682 0.37036 0.0
C1167 C 0.23283 0.01901 0.38647 0.0
C1168 C 0.21988 0.97587 0.36554 0.0
C1169 C 0.21282 0.99959 0.39756 0.0
C1170 C 0.19707 0.9687 0.39297 0.0
C1171 C 0.18568 0.92551 0.37259 0.0
C1172 C 0.18937 0.91356 0.3566 0.0
C1173 C 0.20066 0.95658 0.37707 0.0
C1174 C 0.20777 0.93301 0.34499 0.0
C1175 C 0.22305 0.96387 0.34946 0.0
H1176 H 0.55185 0.65421 0.27636 0.0
H1177 H 0.5211 0.63331 0.32746 0.0
H1178 H 0.55053 0.6861 0.33863 0.0
H1179 H 0.58698 0.73761 0.33439 0.0
H1180 H 0.61786 0.7591 0.28336 0.0
H1181 H 0.58586 0.70668 0.27158 0.0
C1182 C 0.55117 0.66126 0.28986 0.0
C1183 C 0.5345 0.63975 0.3011 0.0
C1184 C 0.56821 0.69172 0.29622 0.0
C1185 C 0.53414 0.64929 0.3186 0.0
C1186 C 0.55087 0.6795 0.32499 0.0
C1187 C 0.58664 0.73094 0.32065 0.0
C1188 C 0.60503 0.75227 0.30983 0.0
C1189 C 0.56838 0.70081 0.314 0.0
C1190 C 0.60399 0.74318 0.29201 0.0
C1191 C 0.58576 0.71317 0.28527 0.0
H1192 H 0.34388 0.89313 0.31235 0.0
H1193 H 0.298 0.85376 0.26061 0.0
H1194 H 0.24975 0.83625 0.27237 0.0
H1195 H 0.2206 0.83209 0.29743 0.0
H1196 H 0.26715 0.87103 0.34914 0.0
H1197 H 0.31501 0.88822 0.33729 0.0
C1198 C 0.32336 0.88033 0.30364 0.0
C1199 C 0.32471 0.87467 0.28561 0.0
C1200 C 0.29573 0.87019 0.31049 0.0
C1201 C 0.29776 0.85869 0.27451 0.0
C1202 C 0.27012 0.84853 0.28124 0.0
C1203 C 0.24118 0.84427 0.30614 0.0
C1204 C 0.24011 0.85019 0.3242 0.0
C1205 C 0.26883 0.85418 0.29923 0.0
C1206 C 0.26713 0.86607 0.33522 0.0
C1207 C 0.2946 0.87596 0.32845 0.0
H1208 H 0.17266 0.48782 0.30283 0.0
H1209 H 0.09052 0.42177 0.27249 0.0
H1210 H 0.09096 0.38228 0.28807 0.0
H1211 H 0.11631 0.36658 0.30924 0.0
H1212 H 0.19799 0.43332 0.34003 0.0
H1213 H 0.19596 0.47259 0.32547 0.0
C1214 C 0.15485 0.46475 0.29972 0.0
C1215 C 0.13177 0.45748 0.28649 0.0
C1216 C 0.15516 0.4424 0.3088 0.0
C1217 C 0.1085 0.42771 0.28266 0.0
C1218 C 0.10881 0.40521 0.29152 0.0
C1219 C 0.13351 0.38974 0.3129 0.0
C1220 C 0.15735 0.39695 0.32564 0.0
C1221 C 0.13223 0.41228 0.30447 0.0
C1222 C 0.17935 0.42709 0.33029 0.0
C1223 C 0.17832 0.4496 0.32192 0.0
H1224 H 0.33055 0.44198 0.28544 0.0
H1225 H 0.38096 0.42937 0.32718 0.0
H1226 H 0.33577 0.40265 0.34203 0.0
H1227 H 0.28135 0.38155 0.34279 0.0
H1228 H 0.23115 0.39342 0.30052 0.0
H1229 H 0.2767 0.422 0.28649 0.0
C1230 C 0.3317 0.43363 0.29787 0.0
C1231 C 0.35909 0.43758 0.30512 0.0
C1232 C 0.30558 0.41814 0.30631 0.0
C1233 C 0.36008 0.42628 0.32115 0.0
C1234 C 0.33426 0.41113 0.32972 0.0
C1235 C 0.28048 0.39068 0.33061 0.0
C1236 C 0.25285 0.38529 0.32274 0.0
C1237 C 0.30681 0.40675 0.32238 0.0
C1238 C 0.25207 0.39704 0.30684 0.0
C1239 C 0.27814 0.41342 0.29878 0.0
H1240 H 0.5663 0.91237 0.27522 0.0
H1241 H 0.49169 0.85013 0.30122 0.0
H1242 H 0.52265 0.83217 0.31474 0.0
H1243 H 0.57146 0.83532 0.31997 0.0
H1244 H 0.64597 0.89769 0.29384 0.0
H1245 H 0.6146 0.91454 0.27977 0.0
C1246 C 0.55684 0.89493 0.28388 0.0
C1247 C 0.52673 0.88271 0.28723 0.0
C1248 C 0.57481 0.88483 0.2917 0.0
C1249 C 0.5147 0.85975 0.29827 0.0
C1250 C 0.53246 0.84961 0.30611 0.0
C1251 C 0.58087 0.85262 0.31121 0.0
C1252 C 0.61115 0.86531 0.3081 0.0
C1253 C 0.56263 0.86216 0.30305 0.0
C1254 C 0.6228 0.88751 0.29655 0.0
C1255 C 0.60487 0.89721 0.28848 0.0
H1256 H 0.16118 0.6604 0.30885 0.0
H1257 H 0.07403 0.6325 0.28259 0.0
H1258 H 0.07429 0.67512 0.29819 0.0
H1259 H 0.10092 0.72217 0.31757 0.0
H1260 H 0.18792 0.74969 0.34395 0.0
H1261 H 0.18561 0.70475 0.33035 0.0
C1262 C 0.14189 0.66317 0.30683 0.0
C1263 C 0.11773 0.64338 0.29444 0.0
C1264 C 0.14218 0.68769 0.31582 0.0
C1265 C 0.09316 0.64768 0.29181 0.0
C1266 C 0.09323 0.67197 0.30078 0.0
C1267 C 0.11925 0.71822 0.3205 0.0
C1268 C 0.14469 0.73945 0.33161 0.0
C1269 C 0.11792 0.69247 0.31252 0.0
C1270 C 0.16811 0.73379 0.3354 0.0
C1271 C 0.16687 0.70814 0.32757 0.0
H1272 H 0.83199 0.0122 0.37467 0.0
H1273 H 0.77458 0.01741 0.4116 0.0
H1274 H 0.73186 0.97182 0.3965 0.0
H1275 H 0.71129 0.9292 0.37365 0.0
H1276 H 0.76923 0.92348 0.33724 0.0
H1277 H 0.81124 0.97029 0.35146 0.0
C1278 C 0.81016 0.00331 0.37947 0.0
C1279 C 0.80657 0.01821 0.39428 0.0
C1280 C 0.78577 0.97687 0.37088 0.0
C1281 C 0.77796 0.00664 0.40011 0.0
C1282 C 0.75354 0.98042 0.39156 0.0
C1283 C 0.73304 0.93825 0.36874 0.0
C1284 C 0.73703 0.92271 0.35441 0.0
C1285 C 0.75724 0.96519 0.37704 0.0
C1286 C 0.76546 0.93483 0.34828 0.0
C1287 C 0.78955 0.96165 0.3564 0.0
H1288 H 0.99887 0.76044 0.40707 0.0
H1289 H 0.96658 0.79946 0.37013 0.0
H1290 H 0.01138 0.81551 0.35476 0.0
H1291 H 0.05947 0.81735 0.35136 0.0
H1292 H 0.09059 0.77739 0.38848 0.0
H1293 H 0.0465 0.76258 0.40392 0.0
C1294 C 1.00149 0.77228 0.39559 0.0
C1295 C 0.97924 0.77859 0.38978 0.0
C1296 C 0.02714 0.78118 0.38671 0.0
C1297 C 0.98343 0.79453 0.37506 0.0
C1298 C 0.00898 0.80354 0.36616 0.0
C1299 C 0.05656 0.80534 0.36279 0.0
C1300 C 0.07844 0.79846 0.36861 0.0
C1301 C 0.03094 0.79682 0.37179 0.0
C1302 C 0.07427 0.78303 0.38357 0.0
C1303 C 0.04897 0.7745 0.39249 0.0
H1304 H 0.23415 0.20078 0.36114 0.0
H1305 H 0.2587 0.24736 0.41329 0.0
H1306 H 0.23525 0.27614 0.40503 0.0
H1307 H 0.20915 0.2889 0.38289 0.0
H1308 H 0.18707 0.24489 0.33007 0.0
H1309 H 0.2081 0.21407 0.33867 0.0
C1310 C 0.23413 0.21713 0.37066 0.0
C1311 C 0.248 0.22202 0.38778 0.0
C1312 C 0.22113 0.23398 0.36571 0.0
C1313 C 0.24825 0.24343 0.40002 0.0
C1314 C 0.23481 0.25978 0.39532 0.0
C1315 C 0.20866 0.27238 0.37326 0.0
C1316 C 0.1964 0.26903 0.35589 0.0
C1317 C 0.22136 0.25535 0.37818 0.0
C1318 C 0.19639 0.24787 0.34353 0.0
C1319 C 0.2084 0.23026 0.34844 0.0
H1320 H 0.67315 0.52134 0.7135 0.0
H1321 H 0.67334 0.59259 0.74588 0.0
H1322 H 0.71519 0.6295 0.73167 0.0
H1323 H 0.75285 0.64153 0.7108 0.0
H1324 H 0.75147 0.57023 0.67778 0.0
H1325 H 0.70837 0.53343 0.69121 0.0
C1326 C 0.68183 0.54492 0.71724 0.0
C1327 C 0.67003 0.55402 0.73086 0.0
C1328 C 0.70571 0.56608 0.70888 0.0
C1329 C 0.6822 0.5848 0.73569 0.0
C1330 C 0.70606 0.60597 0.72748 0.0
C1331 C 0.74302 0.61796 0.70642 0.0
C1332 C 0.75556 0.60872 0.69333 0.0
C1333 C 0.71821 0.59686 0.71421 0.0
C1334 C 0.74234 0.57806 0.6878 0.0
C1335 C 0.71772 0.55695 0.69552 0.0
H1336 H 0.46281 0.10786 0.70086 0.0
H1337 H 0.43216 0.10289 0.75223 0.0
H1338 H 0.3968 0.11814 0.74184 0.0
H1339 H 0.37417 0.13247 0.71787 0.0
H1340 H 0.40736 0.14008 0.66706 0.0
H1341 H 0.44186 0.12403 0.6774 0.0
C1342 C 0.44835 0.11012 0.70975 0.0
C1343 C 0.44997 0.10417 0.72724 0.0
C1344 C 0.4284 0.11923 0.70374 0.0
C1345 C 0.43143 0.10755 0.73872 0.0
C1346 C 0.4111 0.1161 0.73276 0.0
C1347 C 0.38887 0.13042 0.70908 0.0
C1348 C 0.38808 0.13724 0.69169 0.0
C1349 C 0.40927 0.12187 0.71526 0.0
C1350 C 0.40759 0.13501 0.68051 0.0
C1351 C 0.42731 0.12581 0.6864 0.0
H1352 H 0.93972 0.35442 0.7141 0.0
H1353 H 0.86253 0.36426 0.70548 0.0
H1354 H 0.83113 0.31058 0.69589 0.0
H1355 H 0.82636 0.26114 0.68912 0.0
H1356 H 0.90387 0.25184 0.69934 0.0
H1357 H 0.93434 0.30488 0.70927 0.0
C1358 C 0.916 0.34468 0.71012 0.0
C1359 C 0.90335 0.36299 0.71026 0.0
C1360 C 0.89819 0.31395 0.70496 0.0
C1361 C 0.87258 0.35035 0.70539 0.0
C1362 C 0.85473 0.31977 0.6999 0.0
C1363 C 0.84987 0.27073 0.69361 0.0
C1364 C 0.8628 0.25255 0.69339 0.0
C1365 C 0.86736 0.30137 0.69951 0.0
C1366 C 0.89325 0.26524 0.69941 0.0
C1367 C 0.9108 0.29565 0.70503 0.0
H1368 H 0.19096 0.97832 0.63393 0.0
H1369 H 0.26307 0.97412 0.61103 0.0
H1370 H 0.29614 0.02773 0.61919 0.0
H1371 H 0.30523 0.07554 0.63423 0.0
H1372 H 0.2319 0.07878 0.65622 0.0
H1373 H 0.1986 0.02611 0.64647 0.0
C1374 C 0.21369 0.9891 0.63035 0.0
C1375 C 0.22442 0.97198 0.62196 0.0
C1376 C 0.23248 0.01993 0.63489 0.0
C1377 C 0.25425 0.98652 0.61779 0.0
C1378 C 0.27318 0.01728 0.62234 0.0
C1379 C 0.28188 0.06481 0.63666 0.0
C1380 C 0.27127 0.08113 0.64613 0.0
C1381 C 0.26265 0.03418 0.63112 0.0
C1382 C 0.24088 0.0668 0.64915 0.0
C1383 C 0.22172 0.03658 0.64359 0.0
H1384 H 0.98456 0.24138 0.61162 0.0
H1385 H 0.00579 0.18189 0.63713 0.0
H1386 H 0.959 0.16152 0.65092 0.0
H1387 H 0.91291 0.16241 0.65686 0.0
H1388 H 0.89308 0.22294 0.63122 0.0
H1389 H 0.93843 0.24116 0.61666 0.0
C1390 C 0.97903 0.224 0.62023 0.0
C1391 C 0.99882 0.21338 0.6234 0.0
C1392 C 0.95232 0.21267 0.62826 0.0
C1393 C 0.9909 0.19037 0.63433 0.0
C1394 C 0.96422 0.17886 0.64234 0.0
C1395 C 0.91849 0.17954 0.64808 0.0
C1396 C 0.89952 0.19133 0.64533 0.0
C1397 C 0.94488 0.19011 0.63959 0.0
C1398 C 0.90714 0.21343 0.63375 0.0
C1399 C 0.93316 0.22394 0.62534 0.0
H1400 H 0.81602 0.81848 0.63868 0.0
H1401 H 0.76994 0.75493 0.59289 0.0
H1402 H 0.77241 0.71611 0.60797 0.0
H1403 H 0.79071 0.70136 0.63337 0.0
H1404 H 0.83799 0.76551 0.67886 0.0
H1405 H 0.8315 0.80286 0.66475 0.0
C1406 C 0.80595 0.79597 0.63213 0.0
C1407 C 0.79285 0.78959 0.61469 0.0
C1408 C 0.80778 0.77393 0.64078 0.0
C1409 C 0.7804 0.76045 0.60626 0.0
C1410 C 0.78176 0.73826 0.61488 0.0
C1411 C 0.79925 0.72337 0.64032 0.0
C1412 C 0.81492 0.73064 0.65714 0.0
C1413 C 0.79588 0.74491 0.63203 0.0
C1414 C 0.82597 0.75935 0.66588 0.0
C1415 C 0.8223 0.78075 0.65782 0.0
H1416 H 0.99729 0.7783 0.61924 0.0
H1417 H 0.04842 0.78687 0.66776 0.0
H1418 H 1.00237 0.7615 0.68202 0.0
H1419 H 0.94712 0.73437 0.68028 0.0
H1420 H 0.89654 0.72503 0.63127 0.0
H1421 H 0.94265 0.75289 0.61774 0.0
C1422 C 0.99838 0.77453 0.63292 0.0
C1423 C 0.02631 0.78441 0.64236 0.0
C1424 C 0.97181 0.75963 0.64099 0.0
C1425 C 0.02728 0.7798 0.66019 0.0
C1426 C 1.00091 0.76509 0.66835 0.0
C1427 C 0.94621 0.73868 0.6667 0.0
C1428 C 0.91829 0.72742 0.65685 0.0
C1429 C 0.97298 0.75461 0.65883 0.0
C1430 C 0.91761 0.7332 0.63921 0.0
C1431 C 0.94402 0.74917 0.6314 0.0
H1432 H 0.2111 0.21183 0.60862 0.0
H1433 H 0.19581 0.24099 0.65896 0.0
H1434 H 0.22899 0.22688 0.67374 0.0
H1435 H 0.26317 0.20701 0.67244 0.0
H1436 H 0.27962 0.17956 0.62194 0.0
H1437 H 0.24571 0.19277 0.60728 0.0
C1438 C 0.2152 0.21537 0.62282 0.0
C1439 C 0.20077 0.22738 0.6326 0.0
C1440 C 0.23471 0.20764 0.63127 0.0
C1441 C 0.2061 0.23132 0.65104 0.0
C1442 C 0.22531 0.22348 0.65954 0.0
C1443 C 0.25936 0.20392 0.65824 0.0
C1444 C 0.27401 0.19228 0.64837 0.0
C1445 C 0.23981 0.21168 0.64979 0.0
C1446 C 0.26875 0.18849 0.62994 0.0
C1447 C 0.24929 0.19602 0.62149 0.0
H1448 H 0.79071 0.00703 0.599 0.0
H1449 H 0.80417 0.97608 0.64755 0.0
H1450 H 0.80385 0.01764 0.66421 0.0
H1451 H 0.80306 0.06447 0.66486 0.0
H1452 H 0.79142 0.09626 0.61614 0.0
H1453 H 0.78719 0.05237 0.59968 0.0
C1454 C 0.79304 0.0091 0.61323 0.0
C1455 C 0.79753 0.9886 0.62205 0.0
C1456 C 0.79324 0.03323 0.62268 0.0
C1457 C 0.80099 0.99179 0.64049 0.0
C1458 C 0.80073 0.01548 0.65 0.0
C1459 C 0.79921 0.06163 0.65065 0.0
C1460 C 0.79764 0.0837 0.64177 0.0
C1461 C 0.79739 0.03662 0.64123 0.0
C1462 C 0.79279 0.07969 0.62333 0.0
C1463 C 0.79043 0.05461 0.61389 0.0
H1464 H 0.46739 0.32063 0.74727 0.0
H1465 H 0.48462 0.37133 0.70279 0.0
H1466 H 0.44504 0.3271 0.68445 0.0
H1467 H 0.40644 0.27325 0.68094 0.0
H1468 H 0.39004 0.22365 0.72606 0.0
H1469 H 0.4285 0.26803 0.74409 0.0
C1470 C 0.46257 0.32197 0.73353 0.0
C1471 C 0.47906 0.34912 0.72637 0.0
C1472 C 0.43997 0.29656 0.72312 0.0
C1473 C 0.47213 0.3507 0.70864 0.0
C1474 C 0.44963 0.32537 0.69813 0.0
C1475 C 0.4113 0.2722 0.69471 0.0
C1476 C 0.39532 0.24503 0.70204 0.0
C1477 C 0.43354 0.29805 0.7052 0.0
C1478 C 0.40183 0.24416 0.71998 0.0
C1479 C 0.4239 0.26957 0.73037 0.0
H1480 H 0.67242 0.11377 0.74013 0.0
H1481 H 0.61844 0.10167 0.69209 0.0
H1482 H 0.66219 0.11864 0.67582 0.0
H1483 H 0.71545 0.13535 0.67491 0.0
H1484 H 0.76982 0.14777 0.72288 0.0
H1485 H 0.72648 0.13259 0.73939 0.0
C1486 C 0.67032 0.11521 0.72614 0.0
C1487 C 0.64203 0.10615 0.71736 0.0
C1488 C 0.69568 0.12497 0.71678 0.0
C1489 C 0.63976 0.10798 0.69918 0.0
C1490 C 0.66483 0.1178 0.68984 0.0
C1491 C 0.71791 0.13485 0.68898 0.0
C1492 C 0.74596 0.14263 0.69756 0.0
C1493 C 0.69283 0.12601 0.69845 0.0
C1494 C 0.74858 0.14191 0.71585 0.0
C1495 C 0.72375 0.13319 0.72535 0.0
H1496 H 0.90333 0.56097 0.72649 0.0
H1497 H 0.94314 0.56536 0.67809 0.0
H1498 H 0.91917 0.59158 0.6662 0.0
H1499 H 0.88759 0.61407 0.66981 0.0
H1500 H 0.84818 0.60969 0.71842 0.0
H1501 H 0.87081 0.58211 0.7298 0.0
C1502 C 0.90648 0.56734 0.71326 0.0
C1503 C 0.92501 0.56124 0.70321 0.0
C1504 C 0.89261 0.58232 0.70651 0.0
C1505 C 0.92928 0.57012 0.68619 0.0
C1506 C 0.91543 0.58494 0.67934 0.0
C1507 C 0.88373 0.60684 0.68283 0.0
C1508 C 0.86625 0.61399 0.69324 0.0
C1509 C 0.89714 0.59128 0.68942 0.0
C1510 C 0.86164 0.60462 0.71013 0.0
C1511 C 0.8746 0.58885 0.71668 0.0
H1512 H 0.4527 0.98863 0.18422 0.0
H1513 H 0.48553 0.92706 0.18041 0.0
H1514 H 0.4994 0.94013 0.15101 0.0
H1515 H 0.505 0.97132 0.127 0.0
H1516 H 0.4734 0.03382 0.13142 0.0
H1517 H 0.45697 0.01861 0.16007 0.0
C1518 C 0.46303 0.97813 0.17703 0.0
C1519 C 0.46816 0.95697 0.18465 0.0
C1520 C 0.47151 0.98618 0.16026 0.0
C1521 C 0.48097 0.94317 0.17488 0.0
C1522 C 0.48917 0.95083 0.15808 0.0
C1523 C 0.49425 0.98139 0.13416 0.0
C1524 C 0.49072 0.00391 0.1271 0.0
C1525 C 0.48489 0.97258 0.15072 0.0
C1526 C 0.47692 0.01685 0.13665 0.0
C1527 C 0.46734 0.00804 0.153 0.0
H1528 H 0.06111 0.55949 0.17666 0.0
H1529 H 0.06027 0.47595 0.17294 0.0
H1530 H 0.0321 0.46159 0.14392 0.0
H1531 H 0.00947 0.47373 0.11916 0.0
H1532 H 0.01041 0.55733 0.12289 0.0
H1533 H 0.03662 0.57069 0.15243 0.0
C1534 C 0.05478 0.53817 0.16945 0.0
C1535 C 0.0629 0.51888 0.17682 0.0
C1536 C 0.03862 0.5301 0.15282 0.0
C1537 C 0.05412 0.49109 0.16754 0.0
C1538 C 0.03816 0.48295 0.15093 0.0
C1539 C 0.01545 0.49487 0.12647 0.0
C1540 C 0.00819 0.51459 0.11886 0.0
C1541 C 0.03056 0.50241 0.14338 0.0
C1542 C 0.01559 0.54169 0.12854 0.0
C1543 C 0.03072 0.54942 0.14536 0.0
H1544 H 0.45558 0.49488 0.18565 0.0
H1545 H 0.53634 0.49576 0.20366 0.0
H1546 H 0.54734 0.49206 0.17346 0.0
H1547 H 0.53479 0.48957 0.142 0.0
H1548 H 0.45353 0.48734 0.12352 0.0
H1549 H 0.4422 0.49091 0.15376 0.0
C1550 C 0.47541 0.49397 0.18293 0.0
C1551 C 0.4952 0.49583 0.19693 0.0
C1552 C 0.48169 0.49186 0.16544 0.0
C1553 C 0.52096 0.49486 0.19317 0.0
C1554 C 0.52724 0.49263 0.17589 0.0
C1555 C 0.51441 0.48952 0.14453 0.0
C1556 C 0.49509 0.48819 0.13044 0.0
C1557 C 0.50788 0.49129 0.16193 0.0
C1558 C 0.46906 0.48875 0.13408 0.0
C1559 C 0.46243 0.49057 0.15139 0.0
H1560 H 0.96728 0.50022 0.81748 0.0
H1561 H 0.05753 0.52055 0.81121 0.0
H1562 H 0.06765 0.52289 0.84286 0.0
H1563 H 0.05062 0.51788 0.87215 0.0
H1564 H 0.96094 0.49902 0.87883 0.0
H1565 H 0.9508 0.49718 0.84716 0.0
C1566 C 0.98927 0.50553 0.82307 0.0
C1567 C 0.01156 0.51005 0.81198 0.0
C1568 C 0.99498 0.50688 0.84132 0.0
C1569 C 0.03983 0.51653 0.81942 0.0
C1570 C 0.04569 0.518 0.83753 0.0
C1571 C 0.02897 0.51381 0.86674 0.0
C1572 C 0.00661 0.50864 0.8779 0.0
C1573 C 0.02338 0.51302 0.84858 0.0
C1574 C 0.97847 0.50272 0.87055 0.0
C1575 C 0.97271 0.50185 0.85245 0.0
H1576 H 0.51098 0.441 0.8424 0.0
H1577 H 0.55361 0.53353 0.8326 0.0
H1578 H 0.53667 0.54562 0.8594 0.0
H1579 H 0.51231 0.53037 0.88668 0.0
H1580 H 0.47142 0.43801 0.89663 0.0
H1581 H 0.48555 0.42555 0.86891 0.0
C1582 C 0.51675 0.46388 0.84615 0.0
C1583 C 0.53379 0.48633 0.83552 0.0
C1584 C 0.50741 0.47076 0.86171 0.0
C1585 C 0.54035 0.51571 0.84042 0.0
C1586 C 0.53084 0.5227 0.85583 0.0
C1587 C 0.50621 0.50748 0.88266 0.0
C1588 C 0.49102 0.48519 0.89378 0.0
C1589 C 0.51467 0.50047 0.86671 0.0
C1590 C 0.48347 0.45566 0.88844 0.0
C1591 C 0.49145 0.44848 0.87256 0.0
H1592 H 0.53618 0.00642 0.82932 0.0
H1593 H 0.51589 0.07641 0.84034 0.0
H1594 H 0.50713 0.06337 0.87032 0.0
H1595 H 0.50244 0.03025 0.8929 0.0
H1596 H 0.52223 0.95989 0.88178 0.0
H1597 H 0.5339 0.97486 0.85242 0.0
C1598 C 0.53035 0.01914 0.83838 0.0
C1599 C 0.52667 0.04235 0.83258 0.0
C1600 C 0.52492 0.01124 0.85555 0.0
C1601 C 0.51863 0.0583 0.84442 0.0
C1602 C 0.51363 0.05086 0.86158 0.0
C1603 C 0.5097 0.01844 0.88415 0.0
C1604 C 0.51126 0.99384 0.88956 0.0
C1605 C 0.51627 0.02709 0.86721 0.0
C1606 C 0.52036 0.97859 0.8779 0.0
C1607 C 0.5272 0.98724 0.86112 0.0
H1608 H 0.12208 0.31978 0.5197 0.0
H1609 H 0.16112 0.26343 0.5191 0.0
H1610 H 0.17448 0.27463 0.48941 0.0
H1611 H 0.17792 0.30296 0.46419 0.0
H1612 H 0.14018 0.36044 0.46539 0.0
H1613 H 0.12416 0.34679 0.49433 0.0
C1614 C 0.13364 0.31002 0.51314 0.0
C1615 C 0.14066 0.29087 0.52178 0.0
C1616 C 0.14183 0.31703 0.49618 0.0
C1617 C 0.15507 0.27796 0.51281 0.0
C1618 C 0.16298 0.28457 0.49583 0.0
C1619 C 0.1659 0.31225 0.47071 0.0
C1620 C 0.16053 0.33293 0.46264 0.0
C1621 C 0.15682 0.30439 0.48746 0.0
C1622 C 0.14511 0.3449 0.47138 0.0
C1623 C 0.13578 0.33697 0.48792 0.0
H1624 H 0.71079 0.86872 0.51355 0.0
H1625 H 0.78761 0.8733 0.49164 0.0
H1626 H 0.76304 0.86447 0.46201 0.0
H1627 H 0.7199 0.85547 0.44239 0.0
H1628 H 0.64327 0.85183 0.46404 0.0
H1629 H 0.66735 0.85965 0.49375 0.0
C1630 C 0.722 0.86752 0.50227 0.0
C1631 C 0.75098 0.87171 0.50476 0.0
C1632 C 0.70778 0.86256 0.48527 0.0
C1633 C 0.76543 0.87047 0.49004 0.0
C1634 C 0.75136 0.86532 0.47312 0.0
C1635 C 0.70859 0.85675 0.4536 0.0
C1636 C 0.6799 0.85325 0.45098 0.0
C1637 C 0.72263 0.8615 0.47058 0.0
C1638 C 0.66527 0.85424 0.46567 0.0
C1639 C 0.67908 0.85884 0.48266 0.0
H1640 H 0.1603 0.86349 0.52703 0.0
H1641 H 0.12125 0.76807 0.526 0.0
H1642 H 0.12781 0.7643 0.4948 0.0
H1643 H 0.14654 0.78847 0.46812 0.0
H1644 H 0.18683 0.88407 0.46942 0.0
H1645 H 0.17783 0.88747 0.50019 0.0
C1646 C 0.15284 0.84183 0.5199 0.0
C1647 C 0.14024 0.81608 0.52878 0.0
C1648 C 0.15708 0.83991 0.50205 0.0
C1649 C 0.13117 0.78822 0.51946 0.0
C1650 C 0.13487 0.78606 0.50163 0.0
C1651 C 0.15301 0.80998 0.4751 0.0
C1652 C 0.16734 0.83598 0.46652 0.0
C1653 C 0.14807 0.8118 0.49284 0.0
C1654 C 0.17602 0.86378 0.47579 0.0
C1655 C 0.17079 0.86572 0.49336 0.0
H1656 H 0.68031 0.87662 0.15232 0.0
H1657 H 0.67092 0.78933 0.144 0.0
H1658 H 0.67596 0.78774 0.17568 0.0
H1659 H 0.68346 0.81132 0.20573 0.0
H1660 H 0.69296 0.89861 0.21411 0.0
H1661 H 0.68724 0.89997 0.18241 0.0
C1662 C 0.67914 0.85716 0.15746 0.0
C1663 C 0.6753 0.83317 0.14584 0.0
C1664 C 0.68204 0.85639 0.17568 0.0
C1665 C 0.67425 0.80827 0.15268 0.0
C1666 C 0.67694 0.80725 0.17078 0.0
C1667 C 0.68394 0.83048 0.2006 0.0
C1668 C 0.68854 0.85479 0.21221 0.0
C1669 C 0.68087 0.83119 0.18239 0.0
C1670 C 0.68964 0.87972 0.2054 0.0
C1671 C 0.68631 0.88047 0.1873 0.0
H1672 H 0.23901 0.8247 0.18481 0.0
H1673 H 0.15777 0.80236 0.1532 0.0
H1674 H 0.13527 0.80691 0.17956 0.0
H1675 H 0.13747 0.81356 0.21178 0.0
H1676 H 0.21945 0.83719 0.2432 0.0
H1677 H 0.24263 0.83534 0.21677 0.0
C1678 C 0.21641 0.82095 0.18371 0.0
C1679 C 0.19999 0.81299 0.16711 0.0
C1680 C 0.20361 0.82348 0.1989 0.0
C1681 C 0.17092 0.80867 0.16583 0.0
C1682 C 0.15798 0.81107 0.18091 0.0
C1683 C 0.16056 0.81882 0.21286 0.0
C1684 C 0.17645 0.82503 0.22955 0.0
C1685 C 0.17396 0.818 0.19755 0.0
C1686 C 0.20635 0.83157 0.23061 0.0
C1687 C 0.21975 0.83072 0.21547 0.0
H1688 H 0.15396 0.38191 0.16982 0.0
H1689 H 0.22263 0.35968 0.16234 0.0
H1690 H 0.21803 0.34234 0.19139 0.0
H1691 H 0.19303 0.3314 0.21849 0.0
H1692 H 0.12408 0.35315 0.22601 0.0
H1693 H 0.13026 0.37271 0.19747 0.0
C1694 C 0.16793 0.37328 0.17456 0.0
C1695 C 0.18859 0.3721 0.16384 0.0
C1696 C 0.16502 0.36312 0.19129 0.0
C1697 C 0.2068 0.36123 0.17033 0.0
C1698 C 0.20402 0.35106 0.18692 0.0
C1699 C 0.17928 0.34033 0.21385 0.0
C1700 C 0.15797 0.34059 0.22434 0.0
C1701 C 0.18296 0.35156 0.19742 0.0
C1702 C 0.14076 0.3528 0.21827 0.0
C1703 C 0.14418 0.36387 0.2019 0.0
H1704 H 0.82507 0.6775 0.86066 0.0
H1705 H 0.78289 0.58369 0.84248 0.0
H1706 H 0.79177 0.59574 0.81231 0.0
H1707 H 0.8134 0.6332 0.79122 0.0
H1708 H 0.85504 0.72692 0.80976 0.0
H1709 H 0.84511 0.7146 0.83964 0.0
C1710 C 0.81798 0.65966 0.85012 0.0
C1711 C 0.80351 0.62973 0.8539 0.0
C1712 C 0.8233 0.66675 0.83285 0.0
C1713 C 0.79389 0.60691 0.83998 0.0
C1714 C 0.79913 0.6138 0.82272 0.0
C1715 C 0.82002 0.65093 0.80175 0.0
C1716 C 0.83527 0.68101 0.79816 0.0
C1717 C 0.81401 0.64368 0.819 0.0
C1718 C 0.84387 0.70363 0.8121 0.0
C1719 C 0.83801 0.6966 0.82921 0.0
H1720 H 0.3655 0.15845 0.8477 0.0
H1721 H 0.42194 0.25092 0.83938 0.0
H1722 H 0.39331 0.24232 0.81116 0.0
H1723 H 0.35521 0.20778 0.78785 0.0
H1724 H 0.29913 0.11501 0.7954 0.0
H1725 H 0.32412 0.12452 0.82513 0.0
C1726 C 0.37114 0.17677 0.83982 0.0
C1727 C 0.39602 0.20517 0.84545 0.0
C1728 C 0.35475 0.17158 0.82349 0.0
C1729 C 0.40321 0.22874 0.83513 0.0
C1730 C 0.38683 0.22387 0.81903 0.0
C1731 C 0.34838 0.1897 0.79607 0.0
C1732 C 0.32574 0.1607 0.78945 0.0
C1733 C 0.36308 0.19525 0.81291 0.0
C1734 C 0.31656 0.13753 0.80028 0.0
C1735 C 0.33096 0.14293 0.8172 0.0
H1736 H 0.84626 0.15612 0.85006 0.0
H1737 H 0.76254 0.15288 0.83716 0.0
H1738 H 0.76817 0.14829 0.80594 0.0
H1739 H 0.79746 0.14646 0.78229 0.0
H1740 H 0.88233 0.15219 0.79535 0.0
H1741 H 0.87569 0.15474 0.82651 0.0
C1742 C 0.82934 0.15468 0.84044 0.0
C1743 C 0.80406 0.15496 0.84602 0.0
C1744 C 0.83294 0.15256 0.82252 0.0
C1745 C 0.78206 0.15237 0.8333 0.0
C1746 C 0.78537 0.14999 0.81542 0.0
C1747 C 0.81465 0.14856 0.79195 0.0
C1748 C 0.84038 0.14918 0.78645 0.0
C1749 C 0.81083 0.1503 0.80988 0.0
C1750 C 0.86214 0.15132 0.79917 0.0
C1751 C 0.85844 0.15294 0.81701 0.0
H1752 H 0.33167 0.20194 0.4942 0.0
H1753 H 0.34618 0.12754 0.48553 0.0
H1754 H 0.35526 0.12807 0.51716 0.0
H1755 H 0.3592 0.14978 0.54731 0.0
H1756 H 0.34506 0.22439 0.55596 0.0
H1757 H 0.33554 0.2236 0.52433 0.0
C1758 C 0.33664 0.18574 0.49926 0.0
C1759 C 0.33828 0.16477 0.48756 0.0
C1760 C 0.34187 0.1862 0.51745 0.0
C1761 C 0.34514 0.14415 0.49428 0.0
C1762 C 0.35016 0.14432 0.51235 0.0
C1763 C 0.35377 0.16567 0.54225 0.0
C1764 C 0.35278 0.18707 0.55392 0.0
C1765 C 0.34857 0.16523 0.52406 0.0
C1766 C 0.34618 0.20785 0.5472 0.0
C1767 C 0.34065 0.20735 0.52914 0.0
H1768 H 0.8789 0.13982 0.51844 0.0
H1769 H 0.84311 0.18125 0.48568 0.0
H1770 H 0.8222 0.19273 0.51083 0.0
H1771 H 0.81194 0.18868 0.54201 0.0
H1772 H 0.84664 0.14541 0.57399 0.0
H1773 H 0.86956 0.13649 0.54921 0.0
C1774 C 0.8663 0.15113 0.51672 0.0
C1775 C 0.86238 0.15938 0.50012 0.0
C1776 C 0.8539 0.15714 0.53111 0.0
C1777 C 0.84667 0.17478 0.49831 0.0
C1778 C 0.83452 0.18118 0.51267 0.0
C1779 C 0.82469 0.17748 0.54352 0.0
C1780 C 0.82727 0.1674 0.55975 0.0
C1781 C 0.83772 0.17218 0.52912 0.0
C1782 C 0.84383 0.15288 0.56155 0.0
C1783 C 0.85709 0.1479 0.54741 0.0
H1784 H 0.86674 0.68237 0.49758 0.0
H1785 H 0.83582 0.74473 0.50661 0.0
H1786 H 0.82566 0.73054 0.53628 0.0
H1787 H 0.82369 0.6989 0.55931 0.0
H1788 H 0.85492 0.63677 0.55016 0.0
H1789 H 0.86675 0.65236 0.52098 0.0
C1790 C 0.85824 0.69322 0.50613 0.0
C1791 C 0.85206 0.7146 0.49984 0.0
C1792 C 0.85221 0.68477 0.52314 0.0
C1793 C 0.84052 0.72802 0.51104 0.0
C1794 C 0.83476 0.71995 0.52803 0.0
C1795 C 0.83339 0.689 0.55101 0.0
C1796 C 0.83814 0.66649 0.55694 0.0
C1797 C 0.8402 0.6981 0.53417 0.0
C1798 C 0.85046 0.65373 0.54587 0.0
C1799 C 0.85745 0.66277 0.52919 0.0
loop_
_geom_bond_atom_site_label_1
_geom_bond_atom_site_label_2
_geom_bond_distance
_geom_bond_site_symmetry_2
_ccdc_geom_bond_type
P0 O11 1.490 . S
P0 C14 1.812 . S
P0 C20 1.803 . S
P0 C26 1.819 . S
H1 C15 0.941 . S
H2 C16 0.939 . S
H3 C18 0.940 . S
H4 C19 0.940 . S
H5 C21 0.939 . S
H6 C22 0.942 . S
H7 C24 0.940 . S
H8 C25 0.939 . S
H9 C27 0.941 . S
H10 C31 0.939 . S
O11 P0 1.490 . S
H12 C28 0.939 . S
H13 C30 0.940 . S
C14 P0 1.812 . S
C14 C15 1.389 . S
C14 C19 1.391 . S
C15 H1 0.941 . S
C15 C14 1.389 . S
C15 C16 1.397 . S
C16 H2 0.939 . S
C16 C15 1.397 . S
C16 C17 1.378 . S
C17 C16 1.378 . S
C17 C18 1.378 . S
C18 H3 0.940 . S
C18 C17 1.378 . S
C18 C19 1.396 . S
C19 H4 0.940 . S
C19 C14 1.391 . S
C19 C18 1.396 . S
C20 P0 1.803 . S
C20 C21 1.378 . S
C20 C25 1.400 . S
C21 H5 0.939 . S
C21 C20 1.378 . S
C21 C22 1.361 . S
C22 H6 0.942 . S
C22 C21 1.361 . S
C22 C23 1.369 . S
C23 C22 1.369 . S
C23 C24 1.404 . S
C24 H7 0.940 . S
C24 C23 1.404 . S
C24 C25 1.389 . S
C25 H8 0.939 . S
C25 C20 1.400 . S
C25 C24 1.389 . S
C26 P0 1.819 . S
C26 C27 1.391 . S
C26 C31 1.391 . S
C27 H9 0.941 . S
C27 C26 1.391 . S
C27 C28 1.396 . S
C28 H12 0.939 . S
C28 C27 1.396 . S
C28 C29 1.397 . S
C29 C28 1.397 . S
C29 C30 1.385 . S
C30 H13 0.940 . S
C30 C29 1.385 . S
C30 C31 1.388 . S
C31 H10 0.939 . S
C31 C26 1.391 . S
C31 C30 1.388 . S
P32 O43 1.490 . S
P32 C46 1.812 . S
P32 C52 1.803 . S
P32 C58 1.819 . S
H33 C47 0.941 . S
H34 C48 0.939 . S
H35 C50 0.940 . S
H36 C51 0.940 . S
H37 C53 0.939 . S
H38 C54 0.942 . S
H39 C56 0.940 . S
H40 C57 0.939 . S
H41 C59 0.941 . S
H42 C63 0.939 . S
O43 P32 1.490 . S
H44 C60 0.939 . S
H45 C62 0.940 . S
C46 P32 1.812 . S
C46 C47 1.389 . S
C46 C51 1.391 . S
C47 H33 0.941 . S
C47 C46 1.389 . S
C47 C48 1.397 . S
C48 H34 0.939 . S
C48 C47 1.397 . S
C48 C49 1.378 . S
C49 C48 1.378 . S
C49 C50 1.378 . S
C50 H35 0.940 . S
C50 C49 1.378 . S
C50 C51 1.396 . S
C51 H36 0.940 . S
C51 C46 1.391 . S
C51 C50 1.396 . S
C52 P32 1.803 . S
C52 C53 1.378 . S
C52 C57 1.400 . S
C53 H37 0.939 . S
C53 C52 1.378 . S
C53 C54 1.361 . S
C54 H38 0.942 . S
C54 C53 1.361 . S
C54 C55 1.369 . S
C55 C54 1.369 . S
C55 C56 1.404 . S
C56 H39 0.940 . S
C56 C55 1.404 . S
C56 C57 1.389 . S
C57 H40 0.939 . S
C57 C52 1.400 . S
C57 C56 1.389 . S
C58 P32 1.819 . S
C58 C59 1.391 . S
C58 C63 1.391 . S
C59 H41 0.941 . S
C59 C58 1.391 . S
C59 C60 1.396 . S
C60 H44 0.939 . S
C60 C59 1.396 . S
C60 C61 1.397 . S
C61 C60 1.397 . S
C61 C62 1.385 . S
C62 H45 0.940 . S
C62 C61 1.385 . S
C62 C63 1.388 . S
C63 H42 0.939 . S
C63 C58 1.391 . S
C63 C62 1.388 . S
P64 O75 1.490 . S
P64 C78 1.812 . S
P64 C84 1.803 . S
P64 C90 1.819 . S
H65 C79 0.941 . S
H66 C80 0.939 . S
H67 C82 0.940 . S
H68 C83 0.940 . S
H69 C85 0.939 . S
H70 C86 0.942 . S
H71 C88 0.940 . S
H72 C89 0.939 . S
H73 C91 0.941 . S
H74 C95 0.939 . S
O75 P64 1.490 . S
H76 C92 0.939 . S
H77 C94 0.940 . S
C78 P64 1.812 . S
C78 C79 1.389 . S
C78 C83 1.391 . S
C79 H65 0.941 . S
C79 C78 1.389 . S
C79 C80 1.397 . S
C80 H66 0.939 . S
C80 C79 1.397 . S
C80 C81 1.378 . S
C81 C80 1.378 . S
C81 C82 1.378 . S
C82 H67 0.940 . S
C82 C81 1.378 . S
C82 C83 1.396 . S
C83 H68 0.940 . S
C83 C78 1.391 . S
C83 C82 1.396 . S
C84 P64 1.803 . S
C84 C85 1.378 . S
C84 C89 1.400 . S
C85 H69 0.939 . S
C85 C84 1.378 . S
C85 C86 1.361 . S
C86 H70 0.942 . S
C86 C85 1.361 . S
C86 C87 1.369 . S
C87 C86 1.369 . S
C87 C88 1.404 . S
C88 H71 0.940 . S
C88 C87 1.404 . S
C88 C89 1.389 . S
C89 H72 0.939 . S
C89 C84 1.400 . S
C89 C88 1.389 . S
C90 P64 1.819 . S
C90 C91 1.391 . S
C90 C95 1.391 . S
C91 H73 0.941 . S
C91 C90 1.391 . S
C91 C92 1.396 . S
C92 H76 0.939 . S
C92 C91 1.396 . S
C92 C93 1.397 . S
C93 C92 1.397 . S
C93 C94 1.385 . S
C94 H77 0.940 . S
C94 C93 1.385 . S
C94 C95 1.388 . S
C95 H74 0.939 . S
C95 C90 1.391 . S
C95 C94 1.388 . S
P96 O107 1.490 . S
P96 C110 1.812 . S
P96 C116 1.803 . S
P96 C122 1.819 . S
H97 C111 0.941 . S
H98 C112 0.939 . S
H99 C114 0.940 . S
H100 C115 0.940 . S
H101 C117 0.939 . S
H102 C118 0.942 . S
H103 C120 0.940 . S
H104 C121 0.939 . S
H105 C123 0.941 . S
H106 C127 0.939 . S
O107 P96 1.490 . S
H108 C124 0.939 . S
H109 C126 0.940 . S
C110 P96 1.812 . S
C110 C111 1.389 . S
C110 C115 1.391 . S
C111 H97 0.941 . S
C111 C110 1.389 . S
C111 C112 1.397 . S
C112 H98 0.939 . S
C112 C111 1.397 . S
C112 C113 1.378 . S
C113 C112 1.378 . S
C113 C114 1.378 . S
C114 H99 0.940 . S
C114 C113 1.378 . S
C114 C115 1.396 . S
C115 H100 0.940 . S
C115 C110 1.391 . S
C115 C114 1.396 . S
C116 P96 1.803 . S
C116 C117 1.378 . S
C116 C121 1.400 . S
C117 H101 0.939 . S
C117 C116 1.378 . S
C117 C118 1.361 . S
C118 H102 0.942 . S
C118 C117 1.361 . S
C118 C119 1.369 . S
C119 C118 1.369 . S
C119 C120 1.404 . S
C120 H103 0.940 . S
C120 C119 1.404 . S
C120 C121 1.389 . S
C121 H104 0.939 . S
C121 C116 1.400 . S
C121 C120 1.389 . S
C122 P96 1.819 . S
C122 C123 1.391 . S
C122 C127 1.391 . S
C123 H105 0.941 . S
C123 C122 1.391 . S
C123 C124 1.396 . S
C124 H108 0.939 . S
C124 C123 1.396 . S
C124 C125 1.397 . S
C125 C124 1.397 . S
C125 C126 1.385 . S
C126 H109 0.940 . S
C126 C125 1.385 . S
C126 C127 1.388 . S
C127 H106 0.939 . S
C127 C122 1.391 . S
C127 C126 1.388 . S
P128 O139 1.490 . S
P128 C142 1.812 . S
P128 C148 1.803 . S
P128 C154 1.819 . S
H129 C143 0.941 . S
H130 C144 0.939 . S
H131 C146 0.940 . S
H132 C147 0.940 . S
H133 C149 0.939 . S
H134 C150 0.942 . S
H135 C152 0.940 . S
H136 C153 0.939 . S
H137 C155 0.941 . S
H138 C159 0.939 . S
O139 P128 1.490 . S
H140 C156 0.939 . S
H141 C158 0.940 . S
C142 P128 1.812 . S
C142 C143 1.389 . S
C142 C147 1.391 . S
C143 H129 0.941 . S
C143 C142 1.389 . S
C143 C144 1.397 . S
C144 H130 0.939 . S
C144 C143 1.397 . S
C144 C145 1.378 . S
C145 C144 1.378 . S
C145 C146 1.378 . S
C146 H131 0.940 . S
C146 C145 1.378 . S
C146 C147 1.396 . S
C147 H132 0.940 . S
C147 C142 1.391 . S
C147 C146 1.396 . S
C148 P128 1.803 . S
C148 C149 1.378 . S
C148 C153 1.400 . S
C149 H133 0.939 . S
C149 C148 1.378 . S
C149 C150 1.361 . S
C150 H134 0.942 . S
C150 C149 1.361 . S
C150 C151 1.369 . S
C151 C150 1.369 . S
C151 C152 1.404 . S
C152 H135 0.940 . S
C152 C151 1.404 . S
C152 C153 1.389 . S
C153 H136 0.939 . S
C153 C148 1.400 . S
C153 C152 1.389 . S
C154 P128 1.819 . S
C154 C155 1.391 . S
C154 C159 1.391 . S
C155 H137 0.941 . S
C155 C154 1.391 . S
C155 C156 1.396 . S
C156 H140 0.939 . S
C156 C155 1.396 . S
C156 C157 1.397 . S
C157 C156 1.397 . S
C157 C158 1.385 . S
C158 H141 0.940 . S
C158 C157 1.385 . S
C158 C159 1.388 . S
C159 H138 0.939 . S
C159 C154 1.391 . S
C159 C158 1.388 . S
P160 O171 1.490 . S
P160 C174 1.812 . S
P160 C180 1.803 . S
P160 C186 1.819 . S
H161 C175 0.941 . S
H162 C176 0.939 . S
H163 C178 0.940 . S
H164 C179 0.940 . S
H165 C181 0.939 . S
H166 C182 0.942 . S
H167 C184 0.940 . S
H168 C185 0.939 . S
H169 C187 0.941 . S
H170 C191 0.939 . S
O171 P160 1.490 . S
H172 C188 0.939 . S
H173 C190 0.940 . S
C174 P160 1.812 . S
C174 C175 1.389 . S
C174 C179 1.391 . S
C175 H161 0.941 . S
C175 C174 1.389 . S
C175 C176 1.397 . S
C176 H162 0.939 . S
C176 C175 1.397 . S
C176 C177 1.378 . S
C177 C176 1.378 . S
C177 C178 1.378 . S
C178 H163 0.940 . S
C178 C177 1.378 . S
C178 C179 1.396 . S
C179 H164 0.940 . S
C179 C174 1.391 . S
C179 C178 1.396 . S
C180 P160 1.803 . S
C180 C181 1.378 . S
C180 C185 1.400 . S
C181 H165 0.939 . S
C181 C180 1.378 . S
C181 C182 1.361 . S
C182 H166 0.942 . S
C182 C181 1.361 . S
C182 C183 1.369 . S
C183 C182 1.369 . S
C183 C184 1.404 . S
C184 H167 0.940 . S
C184 C183 1.404 . S
C184 C185 1.389 . S
C185 H168 0.939 . S
C185 C180 1.400 . S
C185 C184 1.389 . S
C186 P160 1.819 . S
C186 C187 1.391 . S
C186 C191 1.391 . S
C187 H169 0.941 . S
C187 C186 1.391 . S
C187 C188 1.396 . S
C188 H172 0.939 . S
C188 C187 1.396 . S
C188 C189 1.397 . S
C189 C188 1.397 . S
C189 C190 1.385 . S
C190 H173 0.940 . S
C190 C189 1.385 . S
C190 C191 1.388 . S
C191 H170 0.939 . S
C191 C186 1.391 . S
C191 C190 1.388 . S
P192 O203 1.490 1_655 S
P192 C206 1.812 . S
P192 C212 1.803 . S
P192 C218 1.819 . S
H193 C207 0.941 1_455 S
H194 C208 0.939 . S
H195 C210 0.940 . S
H196 C211 0.940 . S
H197 C213 0.939 1_455 S
H198 C214 0.942 . S
H199 C216 0.940 . S
H200 C217 0.939 . S
H201 C219 0.941 . S
H202 C223 0.939 . S
O203 P192 1.490 1_455 S
H204 C220 0.939 . S
H205 C222 0.940 . S
C206 P192 1.812 . S
C206 C207 1.389 . S
C206 C211 1.391 . S
C207 H193 0.941 1_655 S
C207 C206 1.389 . S
C207 C208 1.397 . S
C208 H194 0.939 . S
C208 C207 1.397 . S
C208 C209 1.378 . S
C209 C208 1.378 . S
C209 C210 1.378 . S
C210 H195 0.940 . S
C210 C209 1.378 . S
C210 C211 1.396 . S
C211 H196 0.940 . S
C211 C206 1.391 . S
C211 C210 1.396 . S
C212 P192 1.803 . S
C212 C213 1.378 . S
C212 C217 1.400 . S
C213 H197 0.939 1_655 S
C213 C212 1.378 . S
C213 C214 1.361 . S
C214 H198 0.942 . S
C214 C213 1.361 . S
C214 C215 1.369 . S
C215 C214 1.369 . S
C215 C216 1.404 . S
C216 H199 0.940 . S
C216 C215 1.404 . S
C216 C217 1.389 . S
C217 H200 0.939 . S
C217 C212 1.400 . S
C217 C216 1.389 . S
C218 P192 1.819 . S
C218 C219 1.391 1_655 S
C218 C223 1.391 . S
C219 H201 0.941 . S
C219 C218 1.391 1_455 S
C219 C220 1.396 . S
C220 H204 0.939 . S
C220 C219 1.396 . S
C220 C221 1.397 1_455 S
C221 C220 1.397 1_655 S
C221 C222 1.385 . S
C222 H205 0.940 . S
C222 C221 1.385 . S
C222 C223 1.388 . S
C223 H202 0.939 . S
C223 C218 1.391 . S
C223 C222 1.388 . S
P224 O235 1.490 . S
P224 C238 1.812 . S
P224 C244 1.803 . S
P224 C250 1.819 . S
H225 C239 0.941 . S
H226 C240 0.939 . S
H227 C242 0.940 . S
H228 C243 0.940 . S
H229 C245 0.939 . S
H230 C246 0.942 . S
H231 C248 0.940 . S
H232 C249 0.939 . S
H233 C251 0.941 . S
H234 C255 0.939 . S
O235 P224 1.490 . S
H236 C252 0.939 . S
H237 C254 0.940 . S
C238 P224 1.812 . S
C238 C239 1.389 . S
C238 C243 1.391 . S
C239 H225 0.941 . S
C239 C238 1.389 . S
C239 C240 1.397 . S
C240 H226 0.939 . S
C240 C239 1.397 . S
C240 C241 1.378 . S
C241 C240 1.378 . S
C241 C242 1.378 . S
C242 H227 0.940 . S
C242 C241 1.378 . S
C242 C243 1.396 . S
C243 H228 0.940 . S
C243 C238 1.391 . S
C243 C242 1.396 . S
C244 P224 1.803 . S
C244 C245 1.378 . S
C244 C249 1.400 . S
C245 H229 0.939 . S
C245 C244 1.378 . S
C245 C246 1.361 . S
C246 H230 0.942 . S
C246 C245 1.361 . S
C246 C247 1.369 . S
C247 C246 1.369 . S
C247 C248 1.404 . S
C248 H231 0.940 . S
C248 C247 1.404 . S
C248 C249 1.389 . S
C249 H232 0.939 . S
C249 C244 1.400 . S
C249 C248 1.389 . S
C250 P224 1.819 . S
C250 C251 1.391 . S
C250 C255 1.391 . S
C251 H233 0.941 . S
C251 C250 1.391 . S
C251 C252 1.396 . S
C252 H236 0.939 . S
C252 C251 1.396 . S
C252 C253 1.397 . S
C253 C252 1.397 . S
C253 C254 1.385 . S
C254 H237 0.940 . S
C254 C253 1.385 . S
C254 C255 1.388 . S
C255 H234 0.939 . S
C255 C250 1.391 . S
C255 C254 1.388 . S
P256 O267 1.490 . S
P256 C270 1.812 . S
P256 C276 1.803 . S
P256 C282 1.819 . S
H257 C271 0.941 . S
H258 C272 0.939 . S
H259 C274 0.940 . S
H260 C275 0.940 . S
H261 C277 0.939 . S
H262 C278 0.942 . S
H263 C280 0.940 . S
H264 C281 0.939 . S
H265 C283 0.941 . S
H266 C287 0.939 . S
O267 P256 1.490 . S
H268 C284 0.939 . S
H269 C286 0.940 . S
C270 P256 1.812 . S
C270 C271 1.389 . S
C270 C275 1.391 . S
C271 H257 0.941 . S
C271 C270 1.389 . S
C271 C272 1.397 . S
C272 H258 0.939 . S
C272 C271 1.397 . S
C272 C273 1.378 . S
C273 C272 1.378 . S
C273 C274 1.378 . S
C274 H259 0.940 . S
C274 C273 1.378 . S
C274 C275 1.396 . S
C275 H260 0.940 . S
C275 C270 1.391 . S
C275 C274 1.396 . S
C276 P256 1.803 . S
C276 C277 1.378 . S
C276 C281 1.400 . S
C277 H261 0.939 . S
C277 C276 1.378 . S
C277 C278 1.361 . S
C278 H262 0.942 . S
C278 C277 1.361 . S
C278 C279 1.369 . S
C279 C278 1.369 . S
C279 C280 1.404 . S
C280 H263 0.940 . S
C280 C279 1.404 . S
C280 C281 1.389 . S
C281 H264 0.939 . S
C281 C276 1.400 . S
C281 C280 1.389 . S
C282 P256 1.819 . S
C282 C283 1.391 . S
C282 C287 1.391 . S
C283 H265 0.941 . S
C283 C282 1.391 . S
C283 C284 1.396 . S
C284 H268 0.939 . S
C284 C283 1.396 . S
C284 C285 1.397 . S
C285 C284 1.397 . S
C285 C286 1.385 . S
C286 H269 0.940 . S
C286 C285 1.385 . S
C286 C287 1.388 . S
C287 H266 0.939 . S
C287 C282 1.391 . S
C287 C286 1.388 . S
P288 O299 1.490 . S
P288 C302 1.812 . S
P288 C308 1.803 . S
P288 C314 1.819 . S
H289 C303 0.941 . S
H290 C304 0.939 . S
H291 C306 0.940 . S
H292 C307 0.940 . S
H293 C309 0.939 . S
H294 C310 0.942 . S
H295 C312 0.940 . S
H296 C313 0.939 . S
H297 C315 0.941 . S
H298 C319 0.939 . S
O299 P288 1.490 . S
H300 C316 0.939 . S
H301 C318 0.940 . S
C302 P288 1.812 . S
C302 C303 1.389 . S
C302 C307 1.391 . S
C303 H289 0.941 . S
C303 C302 1.389 . S
C303 C304 1.397 . S
C304 H290 0.939 . S
C304 C303 1.397 . S
C304 C305 1.378 . S
C305 C304 1.378 . S
C305 C306 1.378 . S
C306 H291 0.940 . S
C306 C305 1.378 . S
C306 C307 1.396 . S
C307 H292 0.940 . S
C307 C302 1.391 . S
C307 C306 1.396 . S
C308 P288 1.803 . S
C308 C309 1.378 . S
C308 C313 1.400 . S
C309 H293 0.939 . S
C309 C308 1.378 . S
C309 C310 1.361 . S
C310 H294 0.942 . S
C310 C309 1.361 . S
C310 C311 1.369 . S
C311 C310 1.369 . S
C311 C312 1.404 . S
C312 H295 0.940 . S
C312 C311 1.404 . S
C312 C313 1.389 . S
C313 H296 0.939 . S
C313 C308 1.400 . S
C313 C312 1.389 . S
C314 P288 1.819 . S
C314 C315 1.391 . S
C314 C319 1.391 . S
C315 H297 0.941 . S
C315 C314 1.391 . S
C315 C316 1.396 . S
C316 H300 0.939 . S
C316 C315 1.396 . S
C316 C317 1.397 . S
C317 C316 1.397 . S
C317 C318 1.385 . S
C318 H301 0.940 . S
C318 C317 1.385 . S
C318 C319 1.388 . S
C319 H298 0.939 . S
C319 C314 1.391 . S
C319 C318 1.388 . S
P320 O331 1.490 . S
P320 C334 1.812 . S
P320 C340 1.803 . S
P320 C346 1.819 . S
H321 C335 0.941 . S
H322 C336 0.939 . S
H323 C338 0.940 . S
H324 C339 0.940 . S
H325 C341 0.939 . S
H326 C342 0.942 . S
H327 C344 0.940 . S
H328 C345 0.939 . S
H329 C347 0.941 . S
H330 C351 0.939 . S
O331 P320 1.490 . S
H332 C348 0.939 . S
H333 C350 0.940 . S
C334 P320 1.812 . S
C334 C335 1.389 . S
C334 C339 1.391 . S
C335 H321 0.941 . S
C335 C334 1.389 . S
C335 C336 1.397 . S
C336 H322 0.939 . S
C336 C335 1.397 . S
C336 C337 1.378 . S
C337 C336 1.378 . S
C337 C338 1.378 . S
C338 H323 0.940 . S
C338 C337 1.378 . S
C338 C339 1.396 . S
C339 H324 0.940 . S
C339 C334 1.391 . S
C339 C338 1.396 . S
C340 P320 1.803 . S
C340 C341 1.378 . S
C340 C345 1.400 . S
C341 H325 0.939 . S
C341 C340 1.378 . S
C341 C342 1.361 . S
C342 H326 0.942 . S
C342 C341 1.361 . S
C342 C343 1.369 . S
C343 C342 1.369 . S
C343 C344 1.404 . S
C344 H327 0.940 . S
C344 C343 1.404 . S
C344 C345 1.389 . S
C345 H328 0.939 . S
C345 C340 1.400 . S
C345 C344 1.389 . S
C346 P320 1.819 . S
C346 C347 1.391 . S
C346 C351 1.391 . S
C347 H329 0.941 . S
C347 C346 1.391 . S
C347 C348 1.396 . S
C348 H332 0.939 . S
C348 C347 1.396 . S
C348 C349 1.397 . S
C349 C348 1.397 . S
C349 C350 1.385 . S
C350 H333 0.940 . S
C350 C349 1.385 . S
C350 C351 1.388 . S
C351 H330 0.939 . S
C351 C346 1.391 . S
C351 C350 1.388 . S
P352 O363 1.490 . S
P352 C366 1.812 . S
P352 C372 1.803 . S
P352 C378 1.819 . S
H353 C367 0.941 . S
H354 C368 0.939 . S
H355 C370 0.940 . S
H356 C371 0.940 . S
H357 C373 0.939 . S
H358 C374 0.942 . S
H359 C376 0.940 . S
H360 C377 0.939 . S
H361 C379 0.941 . S
H362 C383 0.939 . S
O363 P352 1.490 . S
H364 C380 0.939 . S
H365 C382 0.940 . S
C366 P352 1.812 . S
C366 C367 1.389 . S
C366 C371 1.391 . S
C367 H353 0.941 . S
C367 C366 1.389 . S
C367 C368 1.397 . S
C368 H354 0.939 . S
C368 C367 1.397 . S
C368 C369 1.378 . S
C369 C368 1.378 . S
C369 C370 1.378 . S
C370 H355 0.940 . S
C370 C369 1.378 . S
C370 C371 1.396 . S
C371 H356 0.940 . S
C371 C366 1.391 . S
C371 C370 1.396 . S
C372 P352 1.803 . S
C372 C373 1.378 . S
C372 C377 1.400 . S
C373 H357 0.939 . S
C373 C372 1.378 . S
C373 C374 1.361 . S
C374 H358 0.942 . S
C374 C373 1.361 . S
C374 C375 1.369 . S
C375 C374 1.369 . S
C375 C376 1.404 . S
C376 H359 0.940 . S
C376 C375 1.404 . S
C376 C377 1.389 . S
C377 H360 0.939 . S
C377 C372 1.400 . S
C377 C376 1.389 . S
C378 P352 1.819 . S
C378 C379 1.391 . S
C378 C383 1.391 . S
C379 H361 0.941 . S
C379 C378 1.391 . S
C379 C380 1.396 . S
C380 H364 0.939 . S
C380 C379 1.396 . S
C380 C381 1.397 . S
C381 C380 1.397 . S
C381 C382 1.385 . S
C382 H365 0.940 . S
C382 C381 1.385 . S
C382 C383 1.388 . S
C383 H362 0.939 . S
C383 C378 1.391 . S
C383 C382 1.388 . S
P384 O395 1.490 . S
P384 C398 1.812 . S
P384 C404 1.803 . S
P384 C410 1.819 . S
H385 C399 0.941 . S
H386 C400 0.939 . S
H387 C402 0.940 . S
H388 C403 0.940 . S
H389 C405 0.939 . S
H390 C406 0.942 . S
H391 C408 0.940 . S
H392 C409 0.939 . S
H393 C411 0.941 . S
H394 C415 0.939 . S
O395 P384 1.490 . S
H396 C412 0.939 . S
H397 C414 0.940 . S
C398 P384 1.812 . S
C398 C399 1.389 . S
C398 C403 1.391 . S
C399 H385 0.941 . S
C399 C398 1.389 . S
C399 C400 1.397 . S
C400 H386 0.939 . S
C400 C399 1.397 . S
C400 C401 1.378 . S
C401 C400 1.378 . S
C401 C402 1.378 . S
C402 H387 0.940 . S
C402 C401 1.378 . S
C402 C403 1.396 . S
C403 H388 0.940 . S
C403 C398 1.391 . S
C403 C402 1.396 . S
C404 P384 1.803 . S
C404 C405 1.378 . S
C404 C409 1.400 . S
C405 H389 0.939 . S
C405 C404 1.378 . S
C405 C406 1.361 . S
C406 H390 0.942 . S
C406 C405 1.361 . S
C406 C407 1.369 . S
C407 C406 1.369 . S
C407 C408 1.404 . S
C408 H391 0.940 . S
C408 C407 1.404 . S
C408 C409 1.389 . S
C409 H392 0.939 . S
C409 C404 1.400 . S
C409 C408 1.389 . S
C410 P384 1.819 . S
C410 C411 1.391 . S
C410 C415 1.391 . S
C411 H393 0.941 . S
C411 C410 1.391 . S
C411 C412 1.396 . S
C412 H396 0.939 . S
C412 C411 1.396 . S
C412 C413 1.397 . S
C413 C412 1.397 . S
C413 C414 1.385 . S
C414 H397 0.940 . S
C414 C413 1.385 . S
C414 C415 1.388 . S
C415 H394 0.939 . S
C415 C410 1.391 . S
C415 C414 1.388 . S
P416 O427 1.490 . S
P416 C430 1.812 . S
P416 C436 1.803 . S
P416 C442 1.819 . S
H417 C431 0.941 . S
H418 C432 0.939 . S
H419 C434 0.940 . S
H420 C435 0.940 . S
H421 C437 0.939 . S
H422 C438 0.942 . S
H423 C440 0.940 . S
H424 C441 0.939 . S
H425 C443 0.941 . S
H426 C447 0.939 . S
O427 P416 1.490 . S
H428 C444 0.939 . S
H429 C446 0.940 . S
C430 P416 1.812 . S
C430 C431 1.389 . S
C430 C435 1.391 . S
C431 H417 0.941 . S
C431 C430 1.389 . S
C431 C432 1.397 . S
C432 H418 0.939 . S
C432 C431 1.397 . S
C432 C433 1.378 . S
C433 C432 1.378 . S
C433 C434 1.378 . S
C434 H419 0.940 . S
C434 C433 1.378 . S
C434 C435 1.396 . S
C435 H420 0.940 . S
C435 C430 1.391 . S
C435 C434 1.396 . S
C436 P416 1.803 . S
C436 C437 1.378 . S
C436 C441 1.400 . S
C437 H421 0.939 . S
C437 C436 1.378 . S
C437 C438 1.361 . S
C438 H422 0.942 . S
C438 C437 1.361 . S
C438 C439 1.369 . S
C439 C438 1.369 . S
C439 C440 1.404 . S
C440 H423 0.940 . S
C440 C439 1.404 . S
C440 C441 1.389 . S
C441 H424 0.939 . S
C441 C436 1.400 . S
C441 C440 1.389 . S
C442 P416 1.819 . S
C442 C443 1.391 . S
C442 C447 1.391 . S
C443 H425 0.941 . S
C443 C442 1.391 . S
C443 C444 1.396 . S
C444 H428 0.939 . S
C444 C443 1.396 . S
C444 C445 1.397 . S
C445 C444 1.397 . S
C445 C446 1.385 . S
C446 H429 0.940 . S
C446 C445 1.385 . S
C446 C447 1.388 . S
C447 H426 0.939 . S
C447 C442 1.391 . S
C447 C446 1.388 . S
P448 O459 1.490 . S
P448 C462 1.812 . S
P448 C468 1.803 . S
P448 C474 1.819 . S
H449 C463 0.941 . S
H450 C464 0.939 . S
H451 C466 0.940 . S
H452 C467 0.940 . S
H453 C469 0.939 . S
H454 C470 0.942 . S
H455 C472 0.940 . S
H456 C473 0.939 . S
H457 C475 0.941 . S
H458 C479 0.939 . S
O459 P448 1.490 . S
H460 C476 0.939 . S
H461 C478 0.940 . S
C462 P448 1.812 . S
C462 C463 1.389 . S
C462 C467 1.391 . S
C463 H449 0.941 . S
C463 C462 1.389 . S
C463 C464 1.397 . S
C464 H450 0.939 . S
C464 C463 1.397 . S
C464 C465 1.378 . S
C465 C464 1.378 . S
C465 C466 1.378 . S
C466 H451 0.940 . S
C466 C465 1.378 . S
C466 C467 1.396 . S
C467 H452 0.940 . S
C467 C462 1.391 . S
C467 C466 1.396 . S
C468 P448 1.803 . S
C468 C469 1.378 . S
C468 C473 1.400 . S
C469 H453 0.939 . S
C469 C468 1.378 . S
C469 C470 1.361 . S
C470 H454 0.942 . S
C470 C469 1.361 . S
C470 C471 1.369 . S
C471 C470 1.369 . S
C471 C472 1.404 . S
C472 H455 0.940 . S
C472 C471 1.404 . S
C472 C473 1.389 . S
C473 H456 0.939 . S
C473 C468 1.400 . S
C473 C472 1.389 . S
C474 P448 1.819 . S
C474 C475 1.391 . S
C474 C479 1.391 . S
C475 H457 0.941 . S
C475 C474 1.391 . S
C475 C476 1.396 . S
C476 H460 0.939 . S
C476 C475 1.396 . S
C476 C477 1.397 . S
C477 C476 1.397 . S
C477 C478 1.385 . S
C478 H461 0.940 . S
C478 C477 1.385 . S
C478 C479 1.388 . S
C479 H458 0.939 . S
C479 C474 1.391 . S
C479 C478 1.388 . S
P480 O491 1.521 . S
P480 C494 1.812 . S
P480 C500 1.803 . S
P480 C506 1.819 . S
H481 C495 0.941 . S
H482 C496 0.939 . S
H483 C498 0.940 . S
H484 C499 0.940 . S
H485 C501 0.939 . S
H486 C502 0.942 . S
H487 C504 0.940 . S
H488 C505 0.939 . S
H489 C507 0.941 . S
H490 C511 0.939 . S
O491 P480 1.521 . S
H492 C508 0.939 . S
H493 C510 0.940 . S
C494 P480 1.812 . S
C494 C495 1.389 . S
C494 C499 1.391 . S
C495 H481 0.941 . S
C495 C494 1.389 . S
C495 C496 1.397 . S
C496 H482 0.939 . S
C496 C495 1.397 . S
C496 C497 1.378 . S
C497 C496 1.378 . S
C497 C498 1.378 . S
C498 H483 0.940 . S
C498 C497 1.378 . S
C498 C499 1.396 . S
C499 H484 0.940 . S
C499 C494 1.391 . S
C499 C498 1.396 . S
C500 P480 1.803 . S
C500 C501 1.378 . S
C500 C505 1.400 . S
C501 H485 0.939 . S
C501 C500 1.378 . S
C501 C502 1.361 . S
C502 H486 0.942 . S
C502 C501 1.361 . S
C502 C503 1.369 . S
C503 C502 1.369 . S
C503 C504 1.404 . S
C504 H487 0.940 . S
C504 C503 1.404 . S
C504 C505 1.389 . S
C505 H488 0.939 . S
C505 C500 1.400 . S
C505 C504 1.389 . S
C506 P480 1.819 . S
C506 C507 1.391 . S
C506 C511 1.391 . S
C507 H489 0.941 . S
C507 C506 1.391 . S
C507 C508 1.396 . S
C508 H492 0.939 . S
C508 C507 1.396 . S
C508 C509 1.397 . S
C509 C508 1.397 . S
C509 C510 1.385 . S
C510 H493 0.940 . S
C510 C509 1.385 . S
C510 C511 1.388 . S
C511 H490 0.939 . S
C511 C506 1.391 . S
C511 C510 1.388 . S
P512 O523 1.490 . S
P512 C526 1.812 . S
P512 C532 1.803 . S
P512 C538 1.819 . S
H513 C527 0.941 . S
H514 C528 0.939 . S
H515 C530 0.940 . S
H516 C531 0.940 . S
H517 C533 0.939 . S
H518 C534 0.942 . S
H519 C536 0.940 . S
H520 C537 0.939 . S
H521 C539 0.941 . S
H522 C543 0.939 . S
O523 P512 1.490 . S
H524 C540 0.939 . S
H525 C542 0.940 . S
C526 P512 1.812 . S
C526 C527 1.389 . S
C526 C531 1.391 . S
C527 H513 0.941 . S
C527 C526 1.389 . S
C527 C528 1.397 . S
C528 H514 0.939 . S
C528 C527 1.397 . S
C528 C529 1.378 . S
C529 C528 1.378 . S
C529 C530 1.378 . S
C530 H515 0.940 . S
C530 C529 1.378 . S
C530 C531 1.396 . S
C531 H516 0.940 . S
C531 C526 1.391 . S
C531 C530 1.396 . S
C532 P512 1.803 . S
C532 C533 1.378 . S
C532 C537 1.400 . S
C533 H517 0.939 . S
C533 C532 1.378 . S
C533 C534 1.361 . S
C534 H518 0.942 . S
C534 C533 1.361 . S
C534 C535 1.369 . S
C535 C534 1.369 . S
C535 C536 1.404 . S
C536 H519 0.940 . S
C536 C535 1.404 . S
C536 C537 1.389 . S
C537 H520 0.939 . S
C537 C532 1.400 . S
C537 C536 1.389 . S
C538 P512 1.819 . S
C538 C539 1.391 . S
C538 C543 1.391 . S
C539 H521 0.941 . S
C539 C538 1.391 . S
C539 C540 1.396 . S
C540 H524 0.939 . S
C540 C539 1.396 . S
C540 C541 1.397 . S
C541 C540 1.397 . S
C541 C542 1.385 . S
C542 H525 0.940 . S
C542 C541 1.385 . S
C542 C543 1.388 . S
C543 H522 0.939 . S
C543 C538 1.391 . S
C543 C542 1.388 . S
P544 O555 1.490 . S
P544 C558 1.812 . S
P544 C564 1.803 . S
P544 C570 1.819 . S
H545 C559 0.941 . S
H546 C560 0.939 . S
H547 C562 0.940 . S
H548 C563 0.940 . S
H549 C565 0.939 . S
H550 C566 0.942 . S
H551 C568 0.940 . S
H552 C569 0.939 . S
H553 C571 0.941 . S
H554 C575 0.939 . S
O555 P544 1.490 . S
H556 C572 0.939 . S
H557 C574 0.940 . S
C558 P544 1.812 . S
C558 C559 1.389 . S
C558 C563 1.391 . S
C559 H545 0.941 . S
C559 C558 1.389 . S
C559 C560 1.397 . S
C560 H546 0.939 . S
C560 C559 1.397 . S
C560 C561 1.378 . S
C561 C560 1.378 . S
C561 C562 1.378 . S
C562 H547 0.940 . S
C562 C561 1.378 . S
C562 C563 1.396 . S
C563 H548 0.940 . S
C563 C558 1.391 . S
C563 C562 1.396 . S
C564 P544 1.803 . S
C564 C565 1.378 . S
C564 C569 1.400 . S
C565 H549 0.939 . S
C565 C564 1.378 . S
C565 C566 1.361 . S
C566 H550 0.942 . S
C566 C565 1.361 . S
C566 C567 1.369 . S
C567 C566 1.369 . S
C567 C568 1.404 . S
C568 H551 0.940 . S
C568 C567 1.404 . S
C568 C569 1.389 . S
C569 H552 0.939 . S
C569 C564 1.400 . S
C569 C568 1.389 . S
C570 P544 1.819 . S
C570 C571 1.391 . S
C570 C575 1.391 . S
C571 H553 0.941 . S
C571 C570 1.391 . S
C571 C572 1.396 . S
C572 H556 0.939 . S
C572 C571 1.396 . S
C572 C573 1.397 . S
C573 C572 1.397 . S
C573 C574 1.385 . S
C574 H557 0.940 . S
C574 C573 1.385 . S
C574 C575 1.388 . S
C575 H554 0.939 . S
C575 C570 1.391 . S
C575 C574 1.388 . S
Tb576 C586 2.825 . S
Tb576 O587 2.347 1_565 S
Tb576 O590 2.366 1_565 S
Tb576 O595 2.418 . S
Tb576 O596 2.392 . S
Tb576 O599 2.479 . S
Tb576 O600 2.471 1_565 S
Eu577 O588 2.418 . S
Eu577 O589 2.384 . S
Eu577 O592 2.479 . S
Eu577 O593 2.454 1_545 S
Eu577 O594 2.347 1_545 S
Eu577 O597 2.366 1_545 S
Eu577 C607 2.825 . S
C578 O594 1.259 . S
C578 O595 1.265 1_554 S
C579 O596 1.246 1_554 S
C579 O597 1.265 . S
C580 C582 1.380 . S
C580 C583 1.374 1_565 S
C580 C586 1.507 . S
C581 C582 1.384 . S
C581 C585 1.387 1_565 S
C581 H608 0.930 . S
C582 C580 1.380 . S
C582 C581 1.384 . S
C582 H609 0.931 . S
C583 C580 1.374 1_545 S
C583 C584 1.390 . S
C583 H610 0.930 . S
C584 C583 1.390 . S
C584 C585 1.391 . S
C584 H611 0.930 . S
C585 C581 1.387 1_545 S
C585 C584 1.391 . S
C586 Tb576 2.825 . S
C586 C580 1.507 . S
C586 O599 1.238 . S
C586 O600 1.247 1_565 S
O587 Tb576 2.347 1_545 S
O587 C591 1.262 . S
O588 Eu577 2.418 . S
O588 C591 1.255 1_554 S
O589 Eu577 2.384 . S
O589 C598 1.255 1_554 S
O590 Tb576 2.366 1_545 S
O590 C598 1.265 . S
C591 O587 1.262 . S
C591 O588 1.255 1_556 S
O592 Eu577 2.479 . S
O592 C607 1.238 . S
O593 Eu577 2.454 1_565 S
O593 C607 1.222 1_565 S
O594 Eu577 2.347 1_565 S
O594 C578 1.259 . S
O595 Tb576 2.418 . S
O595 C578 1.265 1_556 S
O596 Tb576 2.392 . S
O596 C579 1.246 1_556 S
O597 Eu577 2.366 1_565 S
O597 C579 1.265 . S
C598 O589 1.255 1_556 S
C598 O590 1.265 . S
O599 Tb576 2.479 . S
O599 C586 1.238 . S
O600 Tb576 2.471 1_545 S
O600 C586 1.247 1_545 S
C601 C604 1.380 . S
C601 C605 1.374 1_545 S
C601 C607 1.507 . S
C602 C603 1.387 1_565 S
C602 C606 1.391 . S
C603 C602 1.387 1_545 S
C603 C604 1.384 . S
C603 H612 0.930 . S
C604 C601 1.380 . S
C604 C603 1.384 . S
C604 H613 0.931 . S
C605 C601 1.374 1_565 S
C605 C606 1.390 . S
C605 H614 0.930 . S
C606 C602 1.391 . S
C606 C605 1.390 . S
C606 H615 0.930 . S
C607 Eu577 2.825 . S
C607 O592 1.238 . S
C607 O593 1.222 1_545 S
C607 C601 1.507 . S
H608 C581 0.930 . S
H609 C582 0.931 . S
H610 C583 0.930 . S
H611 C584 0.930 . S
H612 C603 0.930 . S
H613 C604 0.931 . S
H614 C605 0.930 . S
H615 C606 0.930 . S
Tb616 C626 2.825 . S
Tb616 O627 2.347 1_455 S
Tb616 O630 2.366 1_455 S
Tb616 O635 2.418 . S
Tb616 O636 2.384 1_556 S
Tb616 O639 2.479 . S
Tb616 O640 2.471 1_455 S
Eu617 O628 2.418 . S
Eu617 O629 2.384 . S
Eu617 O632 2.479 . S
Eu617 O633 2.471 1_655 S
Eu617 O634 2.347 1_655 S
Eu617 O637 2.366 1_655 S
Eu617 C647 2.825 . S
C618 O634 1.259 . S
C618 O635 1.265 1_554 S
C619 O636 1.255 . S
C619 O637 1.265 . S
C620 C622 1.392 . S
C620 C623 1.352 1_455 S
C620 C626 1.517 . S
C621 C622 1.384 . S
C621 C625 1.387 1_455 S
C621 H648 0.930 . S
C622 C620 1.392 . S
C622 C621 1.384 . S
C622 H649 0.931 . S
C623 C620 1.352 1_655 S
C623 C624 1.390 . S
C623 H650 0.930 . S
C624 C623 1.390 . S
C624 C625 1.391 . S
C624 H651 0.930 . S
C625 C621 1.387 1_655 S
C625 C624 1.391 . S
C626 Tb616 2.825 . S
C626 C620 1.517 . S
C626 O639 1.238 . S
C626 O640 1.247 1_455 S
O627 Tb616 2.347 1_655 S
O627 C631 1.259 . S
O628 Eu617 2.418 . S
O628 C631 1.265 1_554 S
O629 Eu617 2.384 . S
O629 C638 1.255 1_554 S
O630 Tb616 2.366 1_655 S
O630 C638 1.265 . S
C631 O627 1.259 . S
C631 O628 1.265 1_556 S
O632 Eu617 2.479 . S
O632 C647 1.238 . S
O633 Eu617 2.471 1_455 S
O633 C647 1.247 1_455 S
O634 Eu617 2.347 1_455 S
O634 C618 1.259 . S
O635 Tb616 2.418 . S
O635 C618 1.265 1_556 S
O636 Tb616 2.384 1_554 S
O636 C619 1.255 . S
O637 Eu617 2.366 1_455 S
O637 C619 1.265 . S
C638 O629 1.255 1_556 S
C638 O630 1.265 . S
O639 Tb616 2.479 . S
O639 C626 1.238 . S
O640 Tb616 2.471 1_655 S
O640 C626 1.247 1_655 S
C641 C644 1.367 1_455 S
C641 C645 1.398 . S
C641 C647 1.497 1_455 S
C642 C643 1.387 1_455 S
C642 C646 1.391 . S
C643 C642 1.387 1_655 S
C643 C644 1.384 . S
C643 H652 0.930 . S
C644 C641 1.367 1_655 S
C644 C643 1.384 . S
C644 H653 0.931 . S
C645 C641 1.398 . S
C645 C646 1.390 . S
C645 H654 0.930 . S
C646 C642 1.391 . S
C646 C645 1.390 . S
C646 H655 0.930 . S
C647 Eu617 2.825 . S
C647 O632 1.238 . S
C647 O633 1.247 1_655 S
C647 C641 1.497 1_655 S
H648 C621 0.930 . S
H649 C622 0.931 . S
H650 C623 0.930 . S
H651 C624 0.930 . S
H652 C643 0.930 . S
H653 C644 0.931 . S
H654 C645 0.930 . S
H655 C646 0.930 . S
Tb656 C666 2.825 . S
Tb656 O667 2.347 . S
Tb656 O670 2.366 . S
Tb656 O675 2.418 . S
Tb656 O676 2.384 . S
Tb656 O679 2.479 . S
Tb656 O680 2.471 . S
Eu657 O668 2.418 . S
Eu657 O669 2.384 1_556 S
Eu657 O672 2.479 . S
Eu657 O673 2.471 . S
Eu657 O674 2.347 . S
Eu657 O677 2.366 . S
Eu657 C687 2.825 . S
C658 O674 1.259 . S
C658 O675 1.265 1_556 S
C659 O676 1.255 1_556 S
C659 O677 1.265 . S
C660 C662 1.380 . S
C660 C663 1.374 . S
C660 C666 1.507 . S
C661 C662 1.384 . S
C661 C665 1.387 . S
C661 H688 0.930 . S
C662 C660 1.380 . S
C662 C661 1.384 . S
C662 H689 0.931 . S
C663 C660 1.374 . S
C663 C664 1.390 . S
C663 H690 0.930 . S
C664 C663 1.390 . S
C664 C665 1.391 . S
C664 H691 0.930 . S
C665 C661 1.387 . S
C665 C664 1.391 . S
C666 Tb656 2.825 . S
C666 C660 1.507 . S
C666 O679 1.238 . S
C666 O680 1.247 . S
O667 Tb656 2.347 . S
O667 C671 1.259 . S
O668 Eu657 2.418 . S
O668 C671 1.265 1_556 S
O669 Eu657 2.384 1_554 S
O669 C678 1.255 . S
O670 Tb656 2.366 . S
O670 C678 1.265 . S
C671 O667 1.259 . S
C671 O668 1.265 1_554 S
O672 Eu657 2.479 . S
O672 C687 1.238 . S
O673 Eu657 2.471 . S
O673 C687 1.247 . S
O674 Eu657 2.347 . S
O674 C658 1.259 . S
O675 Tb656 2.418 . S
O675 C658 1.265 1_554 S
O676 Tb656 2.384 . S
O676 C659 1.255 1_554 S
O677 Eu657 2.366 . S
O677 C659 1.265 . S
C678 O669 1.255 . S
C678 O670 1.265 . S
O679 Tb656 2.479 . S
O679 C666 1.238 . S
O680 Tb656 2.471 . S
O680 C666 1.247 . S
C681 C684 1.380 . S
C681 C685 1.374 . S
C681 C687 1.507 . S
C682 C683 1.387 . S
C682 C686 1.391 . S
C683 C682 1.387 . S
C683 C684 1.384 . S
C683 H692 0.930 . S
C684 C681 1.380 . S
C684 C683 1.384 . S
C684 H693 0.931 . S
C685 C681 1.374 . S
C685 C686 1.390 . S
C685 H694 0.930 . S
C686 C682 1.391 . S
C686 C685 1.390 . S
C686 H695 0.930 . S
C687 Eu657 2.825 . S
C687 O672 1.238 . S
C687 O673 1.247 . S
C687 C681 1.507 . S
H688 C661 0.930 . S
H689 C662 0.931 . S
H690 C663 0.930 . S
H691 C664 0.930 . S
H692 C683 0.930 . S
H693 C684 0.931 . S
H694 C685 0.930 . S
H695 C686 0.930 . S
Tb696 C706 2.825 . S
Tb696 O707 2.347 . S
Tb696 O710 2.366 . S
Tb696 O715 2.418 . S
Tb696 O716 2.384 . S
Tb696 O719 2.479 . S
Tb696 O720 2.471 . S
Eu697 O708 2.418 . S
Eu697 O709 2.384 . S
Eu697 O712 2.479 . S
Eu697 O713 2.471 . S
Eu697 O714 2.347 . S
Eu697 O717 2.366 . S
Eu697 C727 2.825 . S
C698 O714 1.259 . S
C698 O715 1.265 . S
C699 O716 1.255 . S
C699 O717 1.265 . S
C700 C702 1.380 . S
C700 C703 1.374 . S
C700 C706 1.507 . S
C701 C702 1.384 . S
C701 C705 1.387 . S
C701 H728 0.930 . S
C702 C700 1.380 . S
C702 C701 1.384 . S
C702 H729 0.931 . S
C703 C700 1.374 . S
C703 C704 1.390 . S
C703 H730 0.930 . S
C704 C703 1.390 . S
C704 C705 1.391 . S
C704 H731 0.930 . S
C705 C701 1.387 . S
C705 C704 1.391 . S
C706 Tb696 2.825 . S
C706 C700 1.507 . S
C706 O719 1.238 . S
C706 O720 1.247 . S
O707 Tb696 2.347 . S
O707 C711 1.259 . S
O708 Eu697 2.418 . S
O708 C711 1.265 . S
O709 Eu697 2.384 . S
O709 C718 1.255 . S
O710 Tb696 2.366 . S
O710 C718 1.265 . S
C711 O707 1.259 . S
C711 O708 1.265 . S
O712 Eu697 2.479 . S
O712 C727 1.238 . S
O713 Eu697 2.471 . S
O713 C727 1.247 . S
O714 Eu697 2.347 . S
O714 C698 1.259 . S
O715 Tb696 2.418 . S
O715 C698 1.265 . S
O716 Tb696 2.384 . S
O716 C699 1.255 . S
O717 Eu697 2.366 . S
O717 C699 1.265 . S
C718 O709 1.255 . S
C718 O710 1.265 . S
O719 Tb696 2.479 . S
O719 C706 1.238 . S
O720 Tb696 2.471 . S
O720 C706 1.247 . S
C721 C724 1.380 . S
C721 C725 1.374 . S
C721 C727 1.507 . S
C722 C723 1.387 . S
C722 C726 1.391 . S
C723 C722 1.387 . S
C723 C724 1.384 . S
C723 H732 0.930 . S
C724 C721 1.380 . S
C724 C723 1.384 . S
C724 H733 0.931 . S
C725 C721 1.374 . S
C725 C726 1.390 . S
C725 H734 0.930 . S
C726 C722 1.391 . S
C726 C725 1.390 . S
C726 H735 0.930 . S
C727 Eu697 2.825 . S
C727 O712 1.238 . S
C727 O713 1.247 . S
C727 C721 1.507 . S
H728 C701 0.930 . S
H729 C702 0.931 . S
H730 C703 0.930 . S
H731 C704 0.930 . S
H732 C723 0.930 . S
H733 C724 0.931 . S
H734 C725 0.930 . S
H735 C726 0.930 . S
Tb736 C746 2.825 . S
Tb736 O747 2.347 . S
Tb736 O750 2.366 . S
Tb736 O755 2.418 . S
Tb736 O756 2.384 . S
Tb736 O759 2.479 . S
Tb736 O760 2.471 . S
Eu737 O748 2.418 . S
Eu737 O749 2.384 . S
Eu737 O752 2.479 . S
Eu737 O753 2.471 . S
Eu737 O754 2.347 . S
Eu737 O757 2.366 . S
Eu737 C767 2.825 . S
C738 O754 1.259 . S
C738 O755 1.265 . S
C739 O756 1.255 . S
C739 O757 1.265 . S
C740 C742 1.380 . S
C740 C743 1.374 . S
C740 C746 1.507 . S
C741 C742 1.384 . S
C741 C745 1.387 . S
C741 H768 0.930 . S
C742 C740 1.380 . S
C742 C741 1.384 . S
C742 H769 0.931 . S
C743 C740 1.374 . S
C743 C744 1.390 . S
C743 H770 0.930 . S
C744 C743 1.390 . S
C744 C745 1.391 . S
C744 H771 0.930 . S
C745 C741 1.387 . S
C745 C744 1.391 . S
C746 Tb736 2.825 . S
C746 C740 1.507 . S
C746 O759 1.238 . S
C746 O760 1.247 . S
O747 Tb736 2.347 . S
O747 C751 1.259 . S
O748 Eu737 2.418 . S
O748 C751 1.265 . S
O749 Eu737 2.384 . S
O749 C758 1.255 . S
O750 Tb736 2.366 . S
O750 C758 1.265 . S
C751 O747 1.259 . S
C751 O748 1.265 . S
O752 Eu737 2.479 . S
O752 C767 1.238 . S
O753 Eu737 2.471 . S
O753 C767 1.247 . S
O754 Eu737 2.347 . S
O754 C738 1.259 . S
O755 Tb736 2.418 . S
O755 C738 1.265 . S
O756 Tb736 2.384 . S
O756 C739 1.255 . S
O757 Eu737 2.366 . S
O757 C739 1.265 . S
C758 O749 1.255 . S
C758 O750 1.265 . S
O759 Tb736 2.479 . S
O759 C746 1.238 . S
O760 Tb736 2.471 . S
O760 C746 1.247 . S
C761 C764 1.380 . S
C761 C765 1.374 . S
C761 C767 1.507 . S
C762 C763 1.387 . S
C762 C766 1.391 . S
C763 C762 1.387 . S
C763 C764 1.384 . S
C763 H772 0.930 . S
C764 C761 1.380 . S
C764 C763 1.384 . S
C764 H773 0.931 . S
C765 C761 1.374 . S
C765 C766 1.390 . S
C765 H774 0.930 . S
C766 C762 1.391 . S
C766 C765 1.390 . S
C766 H775 0.930 . S
C767 Eu737 2.825 . S
C767 O752 1.238 . S
C767 O753 1.247 . S
C767 C761 1.507 . S
H768 C741 0.930 . S
H769 C742 0.931 . S
H770 C743 0.930 . S
H771 C744 0.930 . S
H772 C763 0.930 . S
H773 C764 0.931 . S
H774 C765 0.930 . S
H775 C766 0.930 . S
Tb776 C786 2.825 . S
Tb776 O787 2.347 . S
Tb776 O790 2.366 . S
Tb776 O795 2.418 . S
Tb776 O796 2.384 . S
Tb776 O799 2.479 . S
Tb776 O800 2.471 . S
Eu777 O788 2.418 . S
Eu777 O789 2.384 . S
Eu777 O792 2.479 . S
Eu777 O793 2.471 . S
Eu777 O794 2.347 . S
Eu777 O797 2.366 . S
Eu777 C807 2.825 . S
C778 O794 1.259 . S
C778 O795 1.265 . S
C779 O796 1.255 . S
C779 O797 1.265 . S
C780 C782 1.380 . S
C780 C783 1.374 . S
C780 C786 1.507 . S
C781 C782 1.384 . S
C781 C785 1.387 . S
C781 H808 0.930 . S
C782 C780 1.380 . S
C782 C781 1.384 . S
C782 H809 0.931 . S
C783 C780 1.374 . S
C783 C784 1.390 . S
C783 H810 0.930 . S
C784 C783 1.390 . S
C784 C785 1.391 . S
C784 H811 0.930 . S
C785 C781 1.387 . S
C785 C784 1.391 . S
C786 Tb776 2.825 . S
C786 C780 1.507 . S
C786 O799 1.238 . S
C786 O800 1.247 . S
O787 Tb776 2.347 . S
O787 C791 1.259 . S
O788 Eu777 2.418 . S
O788 C791 1.265 . S
O789 Eu777 2.384 . S
O789 C798 1.255 . S
O790 Tb776 2.366 . S
O790 C798 1.265 . S
C791 O787 1.259 . S
C791 O788 1.265 . S
O792 Eu777 2.479 . S
O792 C807 1.238 . S
O793 Eu777 2.471 . S
O793 C807 1.247 . S
O794 Eu777 2.347 . S
O794 C778 1.259 . S
O795 Tb776 2.418 . S
O795 C778 1.265 . S
O796 Tb776 2.384 . S
O796 C779 1.255 . S
O797 Eu777 2.366 . S
O797 C779 1.265 . S
C798 O789 1.255 . S
C798 O790 1.265 . S
O799 Tb776 2.479 . S
O799 C786 1.238 . S
O800 Tb776 2.471 . S
O800 C786 1.247 . S
C801 C804 1.380 . S
C801 C805 1.374 . S
C801 C807 1.507 . S
C802 C803 1.387 . S
C802 C806 1.391 . S
C803 C802 1.387 . S
C803 C804 1.384 . S
C803 H812 0.930 . S
C804 C801 1.380 . S
C804 C803 1.384 . S
C804 H813 0.931 . S
C805 C801 1.374 . S
C805 C806 1.390 . S
C805 H814 0.930 . S
C806 C802 1.391 . S
C806 C805 1.390 . S
C806 H815 0.930 . S
C807 Eu777 2.825 . S
C807 O792 1.238 . S
C807 O793 1.247 . S
C807 C801 1.507 . S
H808 C781 0.930 . S
H809 C782 0.931 . S
H810 C783 0.930 . S
H811 C784 0.930 . S
H812 C803 0.930 . S
H813 C804 0.931 . S
H814 C805 0.930 . S
H815 C806 0.930 . S
Tb816 C826 2.825 . S
Tb816 O827 2.347 . S
Tb816 O830 2.366 . S
Tb816 O835 2.418 . S
Tb816 O836 2.384 . S
Tb816 O839 2.479 . S
Tb816 O840 2.471 . S
Eu817 O828 2.418 . S
Eu817 O829 2.384 . S
Eu817 O832 2.479 . S
Eu817 O833 2.471 . S
Eu817 O834 2.347 . S
Eu817 O837 2.366 . S
Eu817 C847 2.825 . S
C818 O834 1.259 . S
C818 O835 1.265 . S
C819 O836 1.255 . S
C819 O837 1.265 . S
C820 C822 1.380 . S
C820 C823 1.374 . S
C820 C826 1.507 . S
C821 C822 1.384 . S
C821 C825 1.387 . S
C821 H848 0.930 . S
C822 C820 1.380 . S
C822 C821 1.384 . S
C822 H849 0.931 . S
C823 C820 1.374 . S
C823 C824 1.390 . S
C823 H850 0.930 . S
C824 C823 1.390 . S
C824 C825 1.391 . S
C824 H851 0.930 . S
C825 C821 1.387 . S
C825 C824 1.391 . S
C826 Tb816 2.825 . S
C826 C820 1.507 . S
C826 O839 1.238 . S
C826 O840 1.247 . S
O827 Tb816 2.347 . S
O827 C831 1.259 . S
O828 Eu817 2.418 . S
O828 C831 1.265 . S
O829 Eu817 2.384 . S
O829 C838 1.255 . S
O830 Tb816 2.366 . S
O830 C838 1.265 . S
C831 O827 1.259 . S
C831 O828 1.265 . S
O832 Eu817 2.479 . S
O832 C847 1.238 . S
O833 Eu817 2.471 . S
O833 C847 1.247 . S
O834 Eu817 2.347 . S
O834 C818 1.259 . S
O835 Tb816 2.418 . S
O835 C818 1.265 . S
O836 Tb816 2.384 . S
O836 C819 1.255 . S
O837 Eu817 2.366 . S
O837 C819 1.265 . S
C838 O829 1.255 . S
C838 O830 1.265 . S
O839 Tb816 2.479 . S
O839 C826 1.238 . S
O840 Tb816 2.471 . S
O840 C826 1.247 . S
C841 C844 1.380 . S
C841 C845 1.374 . S
C841 C847 1.507 . S
C842 C843 1.387 . S
C842 C846 1.391 . S
C843 C842 1.387 . S
C843 C844 1.384 . S
C843 H852 0.930 . S
C844 C841 1.380 . S
C844 C843 1.384 . S
C844 H853 0.931 . S
C845 C841 1.374 . S
C845 C846 1.390 . S
C845 H854 0.930 . S
C846 C842 1.391 . S
C846 C845 1.390 . S
C846 H855 0.930 . S
C847 Eu817 2.825 . S
C847 O832 1.238 . S
C847 O833 1.247 . S
C847 C841 1.507 . S
H848 C821 0.930 . S
H849 C822 0.931 . S
H850 C823 0.930 . S
H851 C824 0.930 . S
H852 C843 0.930 . S
H853 C844 0.931 . S
H854 C845 0.930 . S
H855 C846 0.930 . S
Tb856 C866 2.825 . S
Tb856 O867 2.347 . S
Tb856 O870 2.366 . S
Tb856 O875 2.418 . S
Tb856 O876 2.384 . S
Tb856 O879 2.479 . S
Tb856 O880 2.471 . S
Eu857 O868 2.418 . S
Eu857 O869 2.384 . S
Eu857 O872 2.479 . S
Eu857 O873 2.471 . S
Eu857 O874 2.347 . S
Eu857 O877 2.366 . S
Eu857 C887 2.825 . S
C858 O874 1.259 . S
C858 O875 1.265 . S
C859 O876 1.255 . S
C859 O877 1.265 . S
C860 C862 1.380 . S
C860 C863 1.374 . S
C860 C866 1.507 . S
C861 C862 1.384 . S
C861 C865 1.387 . S
C861 H888 0.930 . S
C862 C860 1.380 . S
C862 C861 1.384 . S
C862 H889 0.931 . S
C863 C860 1.374 . S
C863 C864 1.390 . S
C863 H890 0.930 . S
C864 C863 1.390 . S
C864 C865 1.391 . S
C864 H891 0.930 . S
C865 C861 1.387 . S
C865 C864 1.391 . S
C866 Tb856 2.825 . S
C866 C860 1.507 . S
C866 O879 1.238 . S
C866 O880 1.247 . S
O867 Tb856 2.347 . S
O867 C871 1.259 . S
O868 Eu857 2.418 . S
O868 C871 1.265 . S
O869 Eu857 2.384 . S
O869 C878 1.255 . S
O870 Tb856 2.366 . S
O870 C878 1.265 . S
C871 O867 1.259 . S
C871 O868 1.265 . S
O872 Eu857 2.479 . S
O872 C887 1.238 . S
O873 Eu857 2.471 . S
O873 C887 1.247 . S
O874 Eu857 2.347 . S
O874 C858 1.259 . S
O875 Tb856 2.418 . S
O875 C858 1.265 . S
O876 Tb856 2.384 . S
O876 C859 1.255 . S
O877 Eu857 2.366 . S
O877 C859 1.265 . S
C878 O869 1.255 . S
C878 O870 1.265 . S
O879 Tb856 2.479 . S
O879 C866 1.238 . S
O880 Tb856 2.471 . S
O880 C866 1.247 . S
C881 C884 1.380 . S
C881 C885 1.374 . S
C881 C887 1.507 . S
C882 C883 1.387 . S
C882 C886 1.391 . S
C883 C882 1.387 . S
C883 C884 1.384 . S
C883 H892 0.930 . S
C884 C881 1.380 . S
C884 C883 1.384 . S
C884 H893 0.931 . S
C885 C881 1.374 . S
C885 C886 1.390 . S
C885 H894 0.930 . S
C886 C882 1.391 . S
C886 C885 1.390 . S
C886 H895 0.930 . S
C887 Eu857 2.825 . S
C887 O872 1.238 . S
C887 O873 1.247 . S
C887 C881 1.507 . S
H888 C861 0.930 . S
H889 C862 0.931 . S
H890 C863 0.930 . S
H891 C864 0.930 . S
H892 C883 0.930 . S
H893 C884 0.931 . S
H894 C885 0.930 . S
H895 C886 0.930 . S
Tb896 C906 2.825 . S
Tb896 O907 2.347 . S
Tb896 O910 2.366 . S
Tb896 O915 2.418 . S
Tb896 O916 2.384 . S
Tb896 O919 2.479 . S
Tb896 O920 2.471 . S
Eu897 O908 2.418 . S
Eu897 O909 2.384 . S
Eu897 O912 2.479 . S
Eu897 O913 2.471 . S
Eu897 O914 2.347 . S
Eu897 O917 2.366 . S
Eu897 C927 2.825 . S
C898 O914 1.259 . S
C898 O915 1.265 . S
C899 O916 1.255 . S
C899 O917 1.265 . S
C900 C902 1.380 . S
C900 C903 1.374 . S
C900 C906 1.507 . S
C901 C902 1.384 . S
C901 C905 1.387 . S
C901 H928 0.930 . S
C902 C900 1.380 . S
C902 C901 1.384 . S
C902 H929 0.931 . S
C903 C900 1.374 . S
C903 C904 1.390 . S
C903 H930 0.930 . S
C904 C903 1.390 . S
C904 C905 1.391 . S
C904 H931 0.930 . S
C905 C901 1.387 . S
C905 C904 1.391 . S
C906 Tb896 2.825 . S
C906 C900 1.507 . S
C906 O919 1.238 . S
C906 O920 1.247 . S
O907 Tb896 2.347 . S
O907 C911 1.259 . S
O908 Eu897 2.418 . S
O908 C911 1.265 . S
O909 Eu897 2.384 . S
O909 C918 1.255 . S
O910 Tb896 2.366 . S
O910 C918 1.265 . S
C911 O907 1.259 . S
C911 O908 1.265 . S
O912 Eu897 2.479 . S
O912 C927 1.238 . S
O913 Eu897 2.471 . S
O913 C927 1.247 . S
O914 Eu897 2.347 . S
O914 C898 1.259 . S
O915 Tb896 2.418 . S
O915 C898 1.265 . S
O916 Tb896 2.384 . S
O916 C899 1.255 . S
O917 Eu897 2.366 . S
O917 C899 1.265 . S
C918 O909 1.255 . S
C918 O910 1.265 . S
O919 Tb896 2.479 . S
O919 C906 1.238 . S
O920 Tb896 2.471 . S
O920 C906 1.247 . S
C921 C924 1.380 . S
C921 C925 1.374 . S
C921 C927 1.507 . S
C922 C923 1.387 . S
C922 C926 1.391 . S
C923 C922 1.387 . S
C923 C924 1.384 . S
C923 H932 0.930 . S
C924 C921 1.380 . S
C924 C923 1.384 . S
C924 H933 0.931 . S
C925 C921 1.374 . S
C925 C926 1.390 . S
C925 H934 0.930 . S
C926 C922 1.391 . S
C926 C925 1.390 . S
C926 H935 0.930 . S
C927 Eu897 2.825 . S
C927 O912 1.238 . S
C927 O913 1.247 . S
C927 C921 1.507 . S
H928 C901 0.930 . S
H929 C902 0.931 . S
H930 C903 0.930 . S
H931 C904 0.930 . S
H932 C923 0.930 . S
H933 C924 0.931 . S
H934 C925 0.930 . S
H935 C926 0.930 . S
H936 C942 0.930 . S
H937 C945 0.930 . S
H938 C946 0.930 . S
H939 C947 0.930 . S
H940 C950 0.930 . S
H941 C951 0.930 . S
C942 H936 0.930 . S
C942 C943 1.355 . S
C942 C944 1.415 . S
C943 C942 1.355 . S
C943 C945 1.419 . S
C944 C942 1.415 . S
C944 C949 1.425 . S
C944 C951 1.409 . S
C945 H937 0.930 . S
C945 C943 1.419 . S
C945 C946 1.362 . S
C946 H938 0.930 . S
C946 C945 1.362 . S
C946 C949 1.409 . S
C947 H939 0.930 . S
C947 C948 1.355 . S
C947 C949 1.415 . S
C948 C947 1.355 . S
C948 C950 1.419 . S
C949 C944 1.425 . S
C949 C946 1.409 . S
C949 C947 1.415 . S
C950 H940 0.930 . S
C950 C948 1.419 . S
C950 C951 1.362 . S
C951 H941 0.930 . S
C951 C944 1.409 . S
C951 C950 1.362 . S
H952 C958 0.930 . S
H953 C961 0.930 . S
H954 C962 0.930 . S
H955 C963 0.930 . S
H956 C966 0.930 . S
H957 C967 0.930 . S
C958 H952 0.930 . S
C958 C959 1.355 . S
C958 C960 1.415 . S
C959 C958 1.355 . S
C959 C961 1.419 . S
C960 C958 1.415 . S
C960 C965 1.425 . S
C960 C967 1.409 . S
C961 H953 0.930 . S
C961 C959 1.419 . S
C961 C962 1.362 . S
C962 H954 0.930 . S
C962 C961 1.362 . S
C962 C965 1.409 . S
C963 H955 0.930 . S
C963 C964 1.355 . S
C963 C965 1.415 . S
C964 C963 1.355 . S
C964 C966 1.419 . S
C965 C960 1.425 . S
C965 C962 1.409 . S
C965 C963 1.415 . S
C966 H956 0.930 . S
C966 C964 1.419 . S
C966 C967 1.362 . S
C967 H957 0.930 . S
C967 C960 1.409 . S
C967 C966 1.362 . S
H968 C974 0.930 . S
H969 C977 0.930 . S
H970 C978 0.930 1_556 S
H971 C979 0.930 . S
H972 C982 0.930 . S
H973 C983 0.930 . S
C974 H968 0.930 . S
C974 C975 1.355 . S
C974 C976 1.415 . S
C975 C974 1.355 . S
C975 C977 1.419 . S
C976 C974 1.415 . S
C976 C981 1.425 . S
C976 C983 1.409 . S
C977 H969 0.930 . S
C977 C975 1.419 . S
C977 C978 1.362 . S
C978 H970 0.930 1_554 S
C978 C977 1.362 . S
C978 C981 1.409 . S
C979 H971 0.930 . S
C979 C980 1.355 . S
C979 C981 1.415 . S
C980 C979 1.355 . S
C980 C982 1.419 . S
C981 C976 1.425 . S
C981 C978 1.409 . S
C981 C979 1.415 . S
C982 H972 0.930 . S
C982 C980 1.419 . S
C982 C983 1.362 . S
C983 H973 0.930 . S
C983 C976 1.409 . S
C983 C982 1.362 . S
H984 C990 0.930 . S
H985 C993 0.930 . S
H986 C994 0.930 . S
H987 C995 0.930 . S
H988 C998 0.930 . S
H989 C999 0.930 . S
C990 H984 0.930 . S
C990 C991 1.355 . S
C990 C992 1.415 . S
C991 C990 1.355 . S
C991 C993 1.419 . S
C992 C990 1.415 . S
C992 C997 1.425 . S
C992 C999 1.409 . S
C993 H985 0.930 . S
C993 C991 1.419 . S
C993 C994 1.362 . S
C994 H986 0.930 . S
C994 C993 1.362 . S
C994 C997 1.409 . S
C995 H987 0.930 . S
C995 C996 1.355 . S
C995 C997 1.415 . S
C996 C995 1.355 . S
C996 C998 1.419 . S
C997 C992 1.425 . S
C997 C994 1.409 . S
C997 C995 1.415 . S
C998 H988 0.930 . S
C998 C996 1.419 . S
C998 C999 1.362 . S
C999 H989 0.930 . S
C999 C992 1.409 . S
C999 C998 1.362 . S
H1000 C1006 0.930 . S
H1001 C1009 0.930 . S
H1002 C1010 0.930 . S
H1003 C1011 0.930 . S
H1004 C1014 0.930 . S
H1005 C1015 0.930 . S
C1006 H1000 0.930 . S
C1006 C1007 1.355 . S
C1006 C1008 1.415 . S
C1007 C1006 1.355 . S
C1007 C1009 1.419 . S
C1008 C1006 1.415 . S
C1008 C1013 1.425 . S
C1008 C1015 1.409 . S
C1009 H1001 0.930 . S
C1009 C1007 1.419 . S
C1009 C1010 1.362 . S
C1010 H1002 0.930 . S
C1010 C1009 1.362 . S
C1010 C1013 1.409 . S
C1011 H1003 0.930 . S
C1011 C1012 1.355 . S
C1011 C1013 1.415 . S
C1012 C1011 1.355 . S
C1012 C1014 1.419 . S
C1013 C1008 1.425 . S
C1013 C1010 1.409 . S
C1013 C1011 1.415 . S
C1014 H1004 0.930 . S
C1014 C1012 1.419 . S
C1014 C1015 1.362 . S
C1015 H1005 0.930 . S
C1015 C1008 1.409 . S
C1015 C1014 1.362 . S
H1016 C1022 0.930 . S
H1017 C1025 0.930 . S
H1018 C1026 0.930 . S
H1019 C1027 0.930 . S
H1020 C1030 0.933 1_554 S
H1021 C1031 0.930 . S
C1022 H1016 0.930 . S
C1022 C1023 1.355 . S
C1022 C1024 1.415 . S
C1023 C1022 1.355 . S
C1023 C1025 1.419 . S
C1024 C1022 1.415 . S
C1024 C1029 1.425 . S
C1024 C1031 1.409 . S
C1025 H1017 0.930 . S
C1025 C1023 1.419 . S
C1025 C1026 1.362 . S
C1026 H1018 0.930 . S
C1026 C1025 1.362 . S
C1026 C1029 1.409 . S
C1027 H1019 0.930 . S
C1027 C1028 1.355 . S
C1027 C1029 1.415 . S
C1028 C1027 1.355 . S
C1028 C1030 1.419 . S
C1029 C1024 1.425 . S
C1029 C1026 1.409 . S
C1029 C1027 1.415 . S
C1030 H1020 0.933 1_556 S
C1030 C1028 1.419 . S
C1030 C1031 1.362 . S
C1031 H1021 0.930 . S
C1031 C1024 1.409 . S
C1031 C1030 1.362 . S
H1032 C1038 0.930 . S
H1033 C1041 0.930 . S
H1034 C1042 0.930 . S
H1035 C1043 0.930 . S
H1036 C1046 0.927 . S
H1037 C1047 0.930 . S
C1038 H1032 0.930 . S
C1038 C1039 1.355 . S
C1038 C1040 1.415 . S
C1039 C1038 1.355 . S
C1039 C1041 1.419 . S
C1040 C1038 1.415 . S
C1040 C1045 1.425 . S
C1040 C1047 1.409 . S
C1041 H1033 0.930 . S
C1041 C1039 1.419 . S
C1041 C1042 1.362 . S
C1042 H1034 0.930 . S
C1042 C1041 1.362 . S
C1042 C1045 1.409 . S
C1043 H1035 0.930 . S
C1043 C1044 1.355 . S
C1043 C1045 1.415 . S
C1044 C1043 1.355 . S
C1044 C1046 1.419 . S
C1045 C1040 1.425 . S
C1045 C1042 1.409 . S
C1045 C1043 1.415 . S
C1046 H1036 0.927 . S
C1046 C1044 1.419 . S
C1046 C1047 1.362 . S
C1047 H1037 0.930 . S
C1047 C1040 1.409 . S
C1047 C1046 1.362 . S
H1048 C1054 0.930 . S
H1049 C1057 0.930 . S
H1050 C1058 0.930 . S
H1051 C1059 0.930 . S
H1052 C1062 0.930 . S
H1053 C1063 0.930 . S
C1054 H1048 0.930 . S
C1054 C1055 1.355 . S
C1054 C1056 1.415 . S
C1055 C1054 1.355 . S
C1055 C1057 1.419 . S
C1056 C1054 1.415 . S
C1056 C1061 1.425 . S
C1056 C1063 1.409 . S
C1057 H1049 0.930 . S
C1057 C1055 1.419 . S
C1057 C1058 1.362 . S
C1058 H1050 0.930 . S
C1058 C1057 1.362 . S
C1058 C1061 1.409 . S
C1059 H1051 0.930 . S
C1059 C1060 1.355 . S
C1059 C1061 1.415 . S
C1060 C1059 1.355 . S
C1060 C1062 1.419 . S
C1061 C1056 1.425 . S
C1061 C1058 1.409 . S
C1061 C1059 1.415 . S
C1062 H1052 0.930 . S
C1062 C1060 1.419 . S
C1062 C1063 1.362 . S
C1063 H1053 0.930 . S
C1063 C1056 1.409 . S
C1063 C1062 1.362 . S
H1064 C1070 0.930 . S
H1065 C1073 0.930 . S
H1066 C1074 0.930 . S
H1067 C1075 0.930 . S
H1068 C1078 0.930 . S
H1069 C1079 0.930 . S
C1070 H1064 0.930 . S
C1070 C1071 1.355 . S
C1070 C1072 1.415 . S
C1071 C1070 1.355 . S
C1071 C1073 1.419 . S
C1072 C1070 1.415 . S
C1072 C1077 1.425 . S
C1072 C1079 1.409 . S
C1073 H1065 0.930 . S
C1073 C1071 1.419 . S
C1073 C1074 1.362 . S
C1074 H1066 0.930 . S
C1074 C1073 1.362 . S
C1074 C1077 1.409 . S
C1075 H1067 0.930 . S
C1075 C1076 1.355 . S
C1075 C1077 1.415 . S
C1076 C1075 1.355 . S
C1076 C1078 1.419 . S
C1077 C1072 1.425 . S
C1077 C1074 1.409 . S
C1077 C1075 1.415 . S
C1078 H1068 0.930 . S
C1078 C1076 1.419 . S
C1078 C1079 1.362 . S
C1079 H1069 0.930 . S
C1079 C1072 1.409 . S
C1079 C1078 1.362 . S
H1080 C1086 0.930 . S
H1081 C1089 0.930 . S
H1082 C1090 0.930 . S
H1083 C1091 0.930 . S
H1084 C1094 0.930 . S
H1085 C1095 0.930 . S
C1086 H1080 0.930 . S
C1086 C1087 1.355 . S
C1086 C1088 1.415 . S
C1087 C1086 1.355 . S
C1087 C1089 1.419 . S
C1088 C1086 1.415 . S
C1088 C1093 1.425 . S
C1088 C1095 1.409 . S
C1089 H1081 0.930 . S
C1089 C1087 1.419 . S
C1089 C1090 1.362 . S
C1090 H1082 0.930 . S
C1090 C1089 1.362 . S
C1090 C1093 1.409 . S
C1091 H1083 0.930 . S
C1091 C1092 1.355 . S
C1091 C1093 1.415 . S
C1092 C1091 1.355 . S
C1092 C1094 1.419 . S
C1093 C1088 1.425 . S
C1093 C1090 1.409 . S
C1093 C1091 1.415 . S
C1094 H1084 0.930 . S
C1094 C1092 1.419 . S
C1094 C1095 1.362 . S
C1095 H1085 0.930 . S
C1095 C1088 1.409 . S
C1095 C1094 1.362 . S
H1096 C1102 0.930 . S
H1097 C1105 0.930 . S
H1098 C1106 0.930 . S
H1099 C1107 0.930 . S
H1100 C1110 0.930 . S
H1101 C1111 0.930 . S
C1102 H1096 0.930 . S
C1102 C1103 1.355 . S
C1102 C1104 1.415 . S
C1103 C1102 1.355 . S
C1103 C1105 1.419 . S
C1104 C1102 1.415 . S
C1104 C1109 1.425 . S
C1104 C1111 1.409 . S
C1105 H1097 0.930 . S
C1105 C1103 1.419 . S
C1105 C1106 1.362 . S
C1106 H1098 0.930 . S
C1106 C1105 1.362 . S
C1106 C1109 1.409 . S
C1107 H1099 0.930 . S
C1107 C1108 1.355 . S
C1107 C1109 1.415 . S
C1108 C1107 1.355 . S
C1108 C1110 1.419 . S
C1109 C1104 1.425 . S
C1109 C1106 1.409 . S
C1109 C1107 1.415 . S
C1110 H1100 0.930 . S
C1110 C1108 1.419 . S
C1110 C1111 1.362 . S
C1111 H1101 0.930 . S
C1111 C1104 1.409 . S
C1111 C1110 1.362 . S
H1112 C1118 0.930 . S
H1113 C1121 0.930 . S
H1114 C1122 0.930 . S
H1115 C1123 0.930 . S
H1116 C1126 0.936 . S
H1117 C1127 0.930 1_556 S
C1118 H1112 0.930 . S
C1118 C1119 1.355 . S
C1118 C1120 1.415 . S
C1119 C1118 1.355 . S
C1119 C1121 1.419 . S
C1120 C1118 1.415 . S
C1120 C1125 1.425 . S
C1120 C1127 1.409 . S
C1121 H1113 0.930 . S
C1121 C1119 1.419 . S
C1121 C1122 1.362 . S
C1122 H1114 0.930 . S
C1122 C1121 1.362 . S
C1122 C1125 1.409 . S
C1123 H1115 0.930 . S
C1123 C1124 1.355 . S
C1123 C1125 1.415 . S
C1124 C1123 1.355 . S
C1124 C1126 1.414 1_554 S
C1125 C1120 1.425 . S
C1125 C1122 1.409 . S
C1125 C1123 1.415 . S
C1126 H1116 0.936 . S
C1126 C1124 1.414 1_556 S
C1126 C1127 1.361 1_556 S
C1127 H1117 0.930 1_554 S
C1127 C1120 1.409 . S
C1127 C1126 1.361 1_554 S
H1128 C1134 0.930 . S
H1129 C1137 0.933 . S
H1130 C1138 0.930 . S
H1131 C1139 0.930 . S
H1132 C1142 0.930 . S
H1133 C1143 0.930 . S
C1134 H1128 0.930 . S
C1134 C1135 1.355 . S
C1134 C1136 1.415 1_655 S
C1135 C1134 1.355 . S
C1135 C1137 1.424 . S
C1136 C1134 1.415 1_455 S
C1136 C1141 1.425 . S
C1136 C1143 1.409 . S
C1137 H1129 0.933 . S
C1137 C1135 1.424 . S
C1137 C1138 1.354 1_655 S
C1138 H1130 0.930 . S
C1138 C1137 1.354 1_455 S
C1138 C1141 1.409 . S
C1139 H1131 0.930 . S
C1139 C1140 1.355 . S
C1139 C1141 1.415 . S
C1140 C1139 1.355 . S
C1140 C1142 1.419 . S
C1141 C1136 1.425 . S
C1141 C1138 1.409 . S
C1141 C1139 1.415 . S
C1142 H1132 0.930 . S
C1142 C1140 1.419 . S
C1142 C1143 1.362 . S
C1143 H1133 0.930 . S
C1143 C1136 1.409 . S
C1143 C1142 1.362 . S
H1144 C1150 0.930 . S
H1145 C1153 0.930 . S
H1146 C1154 0.930 . S
H1147 C1155 0.930 . S
H1148 C1158 0.930 . S
H1149 C1159 0.930 . S
C1150 H1144 0.930 . S
C1150 C1151 1.355 . S
C1150 C1152 1.415 . S
C1151 C1150 1.355 . S
C1151 C1153 1.419 . S
C1152 C1150 1.415 . S
C1152 C1157 1.425 . S
C1152 C1159 1.409 . S
C1153 H1145 0.930 . S
C1153 C1151 1.419 . S
C1153 C1154 1.362 . S
C1154 H1146 0.930 . S
C1154 C1153 1.362 . S
C1154 C1157 1.409 . S
C1155 H1147 0.930 . S
C1155 C1156 1.355 . S
C1155 C1157 1.415 . S
C1156 C1155 1.355 . S
C1156 C1158 1.419 . S
C1157 C1152 1.425 . S
C1157 C1154 1.409 . S
C1157 C1155 1.415 . S
C1158 H1148 0.930 . S
C1158 C1156 1.419 . S
C1158 C1159 1.362 . S
C1159 H1149 0.930 . S
C1159 C1152 1.409 . S
C1159 C1158 1.362 . S
H1160 C1166 0.930 . S
H1161 C1169 0.930 . S
H1162 C1170 0.931 1_565 S
H1163 C1171 0.930 . S
H1164 C1174 0.930 . S
H1165 C1175 0.930 . S
C1166 H1160 0.930 . S
C1166 C1167 1.355 . S
C1166 C1168 1.415 1_545 S
C1167 C1166 1.355 . S
C1167 C1169 1.419 . S
C1168 C1166 1.415 1_565 S
C1168 C1173 1.425 . S
C1168 C1175 1.409 . S
C1169 H1161 0.930 . S
C1169 C1167 1.419 . S
C1169 C1170 1.366 . S
C1170 H1162 0.931 1_545 S
C1170 C1169 1.366 . S
C1170 C1173 1.405 1_545 S
C1171 H1163 0.930 . S
C1171 C1172 1.355 . S
C1171 C1173 1.415 . S
C1172 C1171 1.355 . S
C1172 C1174 1.419 . S
C1173 C1168 1.425 . S
C1173 C1170 1.405 1_565 S
C1173 C1171 1.415 . S
C1174 H1164 0.930 . S
C1174 C1172 1.419 . S
C1174 C1175 1.362 . S
C1175 H1165 0.930 . S
C1175 C1168 1.409 . S
C1175 C1174 1.362 . S
H1176 C1182 0.930 . S
H1177 C1185 0.930 . S
H1178 C1186 0.930 . S
H1179 C1187 0.930 . S
H1180 C1190 0.930 . S
H1181 C1191 0.930 . S
C1182 H1176 0.930 . S
C1182 C1183 1.355 . S
C1182 C1184 1.415 . S
C1183 C1182 1.355 . S
C1183 C1185 1.419 . S
C1184 C1182 1.415 . S
C1184 C1189 1.425 . S
C1184 C1191 1.409 . S
C1185 H1177 0.930 . S
C1185 C1183 1.419 . S
C1185 C1186 1.362 . S
C1186 H1178 0.930 . S
C1186 C1185 1.362 . S
C1186 C1189 1.409 . S
C1187 H1179 0.930 . S
C1187 C1188 1.355 . S
C1187 C1189 1.415 . S
C1188 C1187 1.355 . S
C1188 C1190 1.419 . S
C1189 C1184 1.425 . S
C1189 C1186 1.409 . S
C1189 C1187 1.415 . S
C1190 H1180 0.930 . S
C1190 C1188 1.419 . S
C1190 C1191 1.362 . S
C1191 H1181 0.930 . S
C1191 C1184 1.409 . S
C1191 C1190 1.362 . S
H1192 C1198 0.930 . S
H1193 C1201 0.930 . S
H1194 C1202 0.930 . S
H1195 C1203 0.930 . S
H1196 C1206 0.930 . S
H1197 C1207 0.930 . S
C1198 H1192 0.930 . S
C1198 C1199 1.355 . S
C1198 C1200 1.415 . S
C1199 C1198 1.355 . S
C1199 C1201 1.419 . S
C1200 C1198 1.415 . S
C1200 C1205 1.425 . S
C1200 C1207 1.409 . S
C1201 H1193 0.930 . S
C1201 C1199 1.419 . S
C1201 C1202 1.362 . S
C1202 H1194 0.930 . S
C1202 C1201 1.362 . S
C1202 C1205 1.409 . S
C1203 H1195 0.930 . S
C1203 C1204 1.355 . S
C1203 C1205 1.415 . S
C1204 C1203 1.355 . S
C1204 C1206 1.419 . S
C1205 C1200 1.425 . S
C1205 C1202 1.409 . S
C1205 C1203 1.415 . S
C1206 H1196 0.930 . S
C1206 C1204 1.419 . S
C1206 C1207 1.362 . S
C1207 H1197 0.930 . S
C1207 C1200 1.409 . S
C1207 C1206 1.362 . S
H1208 C1214 0.930 . S
H1209 C1217 0.930 . S
H1210 C1218 0.930 . S
H1211 C1219 0.930 . S
H1212 C1222 0.930 . S
H1213 C1223 0.930 . S
C1214 H1208 0.930 . S
C1214 C1215 1.355 . S
C1214 C1216 1.415 . S
C1215 C1214 1.355 . S
C1215 C1217 1.419 . S
C1216 C1214 1.415 . S
C1216 C1221 1.425 . S
C1216 C1223 1.409 . S
C1217 H1209 0.930 . S
C1217 C1215 1.419 . S
C1217 C1218 1.362 . S
C1218 H1210 0.930 . S
C1218 C1217 1.362 . S
C1218 C1221 1.409 . S
C1219 H1211 0.930 . S
C1219 C1220 1.355 . S
C1219 C1221 1.415 . S
C1220 C1219 1.355 . S
C1220 C1222 1.419 . S
C1221 C1216 1.425 . S
C1221 C1218 1.409 . S
C1221 C1219 1.415 . S
C1222 H1212 0.930 . S
C1222 C1220 1.419 . S
C1222 C1223 1.362 . S
C1223 H1213 0.930 . S
C1223 C1216 1.409 . S
C1223 C1222 1.362 . S
H1224 C1230 0.930 . S
H1225 C1233 0.930 . S
H1226 C1234 0.930 . S
H1227 C1235 0.930 . S
H1228 C1238 0.930 . S
H1229 C1239 0.930 . S
C1230 H1224 0.930 . S
C1230 C1231 1.355 . S
C1230 C1232 1.415 . S
C1231 C1230 1.355 . S
C1231 C1233 1.419 . S
C1232 C1230 1.415 . S
C1232 C1237 1.425 . S
C1232 C1239 1.409 . S
C1233 H1225 0.930 . S
C1233 C1231 1.419 . S
C1233 C1234 1.362 . S
C1234 H1226 0.930 . S
C1234 C1233 1.362 . S
C1234 C1237 1.409 . S
C1235 H1227 0.930 . S
C1235 C1236 1.355 . S
C1235 C1237 1.415 . S
C1236 C1235 1.355 . S
C1236 C1238 1.419 . S
C1237 C1232 1.425 . S
C1237 C1234 1.409 . S
C1237 C1235 1.415 . S
C1238 H1228 0.930 . S
C1238 C1236 1.419 . S
C1238 C1239 1.362 . S
C1239 H1229 0.930 . S
C1239 C1232 1.409 . S
C1239 C1238 1.362 . S
H1240 C1246 0.930 . S
H1241 C1249 0.930 . S
H1242 C1250 0.930 . S
H1243 C1251 0.930 . S
H1244 C1254 0.930 . S
H1245 C1255 0.930 . S
C1246 H1240 0.930 . S
C1246 C1247 1.355 . S
C1246 C1248 1.415 . S
C1247 C1246 1.355 . S
C1247 C1249 1.419 . S
C1248 C1246 1.415 . S
C1248 C1253 1.425 . S
C1248 C1255 1.409 . S
C1249 H1241 0.930 . S
C1249 C1247 1.419 . S
C1249 C1250 1.362 . S
C1250 H1242 0.930 . S
C1250 C1249 1.362 . S
C1250 C1253 1.409 . S
C1251 H1243 0.930 . S
C1251 C1252 1.355 . S
C1251 C1253 1.415 . S
C1252 C1251 1.355 . S
C1252 C1254 1.419 . S
C1253 C1248 1.425 . S
C1253 C1250 1.409 . S
C1253 C1251 1.415 . S
C1254 H1244 0.930 . S
C1254 C1252 1.419 . S
C1254 C1255 1.362 . S
C1255 H1245 0.930 . S
C1255 C1248 1.409 . S
C1255 C1254 1.362 . S
H1256 C1262 0.930 . S
H1257 C1265 0.930 . S
H1258 C1266 0.930 . S
H1259 C1267 0.930 . S
H1260 C1270 0.930 . S
H1261 C1271 0.930 . S
C1262 H1256 0.930 . S
C1262 C1263 1.355 . S
C1262 C1264 1.415 . S
C1263 C1262 1.355 . S
C1263 C1265 1.419 . S
C1264 C1262 1.415 . S
C1264 C1269 1.425 . S
C1264 C1271 1.409 . S
C1265 H1257 0.930 . S
C1265 C1263 1.419 . S
C1265 C1266 1.362 . S
C1266 H1258 0.930 . S
C1266 C1265 1.362 . S
C1266 C1269 1.409 . S
C1267 H1259 0.930 . S
C1267 C1268 1.355 . S
C1267 C1269 1.415 . S
C1268 C1267 1.355 . S
C1268 C1270 1.419 . S
C1269 C1264 1.425 . S
C1269 C1266 1.409 . S
C1269 C1267 1.415 . S
C1270 H1260 0.930 . S
C1270 C1268 1.419 . S
C1270 C1271 1.362 . S
C1271 H1261 0.930 . S
C1271 C1264 1.409 . S
C1271 C1270 1.362 . S
H1272 C1278 0.930 . S
H1273 C1281 0.930 . S
H1274 C1282 0.930 . S
H1275 C1283 0.930 . S
H1276 C1286 0.930 . S
H1277 C1287 0.930 . S
C1278 H1272 0.930 . S
C1278 C1279 1.355 . S
C1278 C1280 1.415 1_545 S
C1279 C1278 1.355 . S
C1279 C1281 1.419 . S
C1280 C1278 1.415 1_565 S
C1280 C1285 1.425 . S
C1280 C1287 1.409 . S
C1281 H1273 0.930 . S
C1281 C1279 1.419 . S
C1281 C1282 1.362 1_545 S
C1282 H1274 0.930 . S
C1282 C1281 1.362 1_565 S
C1282 C1285 1.409 . S
C1283 H1275 0.930 . S
C1283 C1284 1.355 . S
C1283 C1285 1.415 . S
C1284 C1283 1.355 . S
C1284 C1286 1.419 . S
C1285 C1280 1.425 . S
C1285 C1282 1.409 . S
C1285 C1283 1.415 . S
C1286 H1276 0.930 . S
C1286 C1284 1.419 . S
C1286 C1287 1.362 . S
C1287 H1277 0.930 . S
C1287 C1280 1.409 . S
C1287 C1286 1.362 . S
H1288 C1294 0.930 . S
H1289 C1297 0.962 . S
H1290 C1298 0.930 . S
H1291 C1299 0.930 . S
H1292 C1302 0.930 . S
H1293 C1303 0.930 . S
C1294 H1288 0.930 . S
C1294 C1295 1.355 1_455 S
C1294 C1296 1.415 . S
C1295 C1294 1.355 1_655 S
C1295 C1297 1.411 . S
C1296 C1294 1.415 . S
C1296 C1301 1.425 . S
C1296 C1303 1.409 . S
C1297 H1289 0.962 . S
C1297 C1295 1.411 . S
C1297 C1298 1.339 1_655 S
C1298 H1290 0.930 . S
C1298 C1297 1.339 1_455 S
C1298 C1301 1.409 . S
C1299 H1291 0.930 . S
C1299 C1300 1.355 . S
C1299 C1301 1.415 . S
C1300 C1299 1.355 . S
C1300 C1302 1.419 . S
C1301 C1296 1.425 . S
C1301 C1298 1.409 . S
C1301 C1299 1.415 . S
C1302 H1292 0.930 . S
C1302 C1300 1.419 . S
C1302 C1303 1.362 . S
C1303 H1293 0.930 . S
C1303 C1296 1.409 . S
C1303 C1302 1.362 . S
H1304 C1310 0.930 . S
H1305 C1313 0.930 . S
H1306 C1314 0.930 . S
H1307 C1315 0.930 . S
H1308 C1318 0.930 . S
H1309 C1319 0.930 . S
C1310 H1304 0.930 . S
C1310 C1311 1.355 . S
C1310 C1312 1.415 . S
C1311 C1310 1.355 . S
C1311 C1313 1.419 . S
C1312 C1310 1.415 . S
C1312 C1317 1.425 . S
C1312 C1319 1.409 . S
C1313 H1305 0.930 . S
C1313 C1311 1.419 . S
C1313 C1314 1.362 . S
C1314 H1306 0.930 . S
C1314 C1313 1.362 . S
C1314 C1317 1.409 . S
C1315 H1307 0.930 . S
C1315 C1316 1.355 . S
C1315 C1317 1.415 . S
C1316 C1315 1.355 . S
C1316 C1318 1.419 . S
C1317 C1312 1.425 . S
C1317 C1314 1.409 . S
C1317 C1315 1.415 . S
C1318 H1308 0.930 . S
C1318 C1316 1.419 . S
C1318 C1319 1.362 . S
C1319 H1309 0.930 . S
C1319 C1312 1.409 . S
C1319 C1318 1.362 . S
H1320 C1326 0.930 . S
H1321 C1329 0.930 . S
H1322 C1330 0.930 . S
H1323 C1331 0.930 . S
H1324 C1334 0.930 . S
H1325 C1335 0.930 . S
C1326 H1320 0.930 . S
C1326 C1327 1.355 . S
C1326 C1328 1.415 . S
C1327 C1326 1.355 . S
C1327 C1329 1.419 . S
C1328 C1326 1.415 . S
C1328 C1333 1.425 . S
C1328 C1335 1.409 . S
C1329 H1321 0.930 . S
C1329 C1327 1.419 . S
C1329 C1330 1.362 . S
C1330 H1322 0.930 . S
C1330 C1329 1.362 . S
C1330 C1333 1.409 . S
C1331 H1323 0.930 . S
C1331 C1332 1.355 . S
C1331 C1333 1.415 . S
C1332 C1331 1.355 . S
C1332 C1334 1.419 . S
C1333 C1328 1.425 . S
C1333 C1330 1.409 . S
C1333 C1331 1.415 . S
C1334 H1324 0.930 . S
C1334 C1332 1.419 . S
C1334 C1335 1.362 . S
C1335 H1325 0.930 . S
C1335 C1328 1.409 . S
C1335 C1334 1.362 . S
H1336 C1342 0.930 . S
H1337 C1345 0.930 . S
H1338 C1346 0.930 . S
H1339 C1347 0.930 . S
H1340 C1350 0.930 . S
H1341 C1351 0.930 . S
C1342 H1336 0.930 . S
C1342 C1343 1.355 . S
C1342 C1344 1.415 . S
C1343 C1342 1.355 . S
C1343 C1345 1.419 . S
C1344 C1342 1.415 . S
C1344 C1349 1.425 . S
C1344 C1351 1.409 . S
C1345 H1337 0.930 . S
C1345 C1343 1.419 . S
C1345 C1346 1.362 . S
C1346 H1338 0.930 . S
C1346 C1345 1.362 . S
C1346 C1349 1.409 . S
C1347 H1339 0.930 . S
C1347 C1348 1.355 . S
C1347 C1349 1.415 . S
C1348 C1347 1.355 . S
C1348 C1350 1.419 . S
C1349 C1344 1.425 . S
C1349 C1346 1.409 . S
C1349 C1347 1.415 . S
C1350 H1340 0.930 . S
C1350 C1348 1.419 . S
C1350 C1351 1.362 . S
C1351 H1341 0.930 . S
C1351 C1344 1.409 . S
C1351 C1350 1.362 . S
H1352 C1358 0.930 . S
H1353 C1361 0.930 . S
H1354 C1362 0.930 . S
H1355 C1363 0.930 . S
H1356 C1366 0.930 . S
H1357 C1367 0.930 . S
C1358 H1352 0.930 . S
C1358 C1359 1.355 . S
C1358 C1360 1.415 . S
C1359 C1358 1.355 . S
C1359 C1361 1.419 . S
C1360 C1358 1.415 . S
C1360 C1365 1.425 . S
C1360 C1367 1.409 . S
C1361 H1353 0.930 . S
C1361 C1359 1.419 . S
C1361 C1362 1.362 . S
C1362 H1354 0.930 . S
C1362 C1361 1.362 . S
C1362 C1365 1.409 . S
C1363 H1355 0.930 . S
C1363 C1364 1.355 . S
C1363 C1365 1.415 . S
C1364 C1363 1.355 . S
C1364 C1366 1.419 . S
C1365 C1360 1.425 . S
C1365 C1362 1.409 . S
C1365 C1363 1.415 . S
C1366 H1356 0.930 . S
C1366 C1364 1.419 . S
C1366 C1367 1.362 . S
C1367 H1357 0.930 . S
C1367 C1360 1.409 . S
C1367 C1366 1.362 . S
H1368 C1374 0.930 . S
H1369 C1377 0.930 . S
H1370 C1378 0.930 . S
H1371 C1379 0.930 . S
H1372 C1382 0.930 . S
H1373 C1383 0.930 . S
C1374 H1368 0.930 . S
C1374 C1375 1.355 . S
C1374 C1376 1.415 1_565 S
C1375 C1374 1.355 . S
C1375 C1377 1.419 . S
C1376 C1374 1.415 1_545 S
C1376 C1381 1.425 . S
C1376 C1383 1.409 . S
C1377 H1369 0.930 . S
C1377 C1375 1.419 . S
C1377 C1378 1.362 1_565 S
C1378 H1370 0.930 . S
C1378 C1377 1.362 1_545 S
C1378 C1381 1.409 . S
C1379 H1371 0.930 . S
C1379 C1380 1.355 . S
C1379 C1381 1.415 . S
C1380 C1379 1.355 . S
C1380 C1382 1.419 . S
C1381 C1376 1.425 . S
C1381 C1378 1.409 . S
C1381 C1379 1.415 . S
C1382 H1372 0.930 . S
C1382 C1380 1.419 . S
C1382 C1383 1.362 . S
C1383 H1373 0.930 . S
C1383 C1376 1.409 . S
C1383 C1382 1.362 . S
H1384 C1390 0.930 . S
H1385 C1393 0.930 . S
H1386 C1394 0.930 . S
H1387 C1395 0.930 . S
H1388 C1398 0.930 . S
H1389 C1399 0.930 . S
C1390 H1384 0.930 . S
C1390 C1391 1.355 1_655 S
C1390 C1392 1.415 . S
C1391 C1390 1.355 1_455 S
C1391 C1393 1.419 . S
C1392 C1390 1.415 . S
C1392 C1397 1.425 . S
C1392 C1399 1.409 . S
C1393 H1385 0.930 . S
C1393 C1391 1.419 . S
C1393 C1394 1.362 1_455 S
C1394 H1386 0.930 . S
C1394 C1393 1.362 1_655 S
C1394 C1397 1.409 . S
C1395 H1387 0.930 . S
C1395 C1396 1.355 . S
C1395 C1397 1.415 . S
C1396 C1395 1.355 . S
C1396 C1398 1.419 . S
C1397 C1392 1.425 . S
C1397 C1394 1.409 . S
C1397 C1395 1.415 . S
C1398 H1388 0.930 . S
C1398 C1396 1.419 . S
C1398 C1399 1.362 . S
C1399 H1389 0.930 . S
C1399 C1392 1.409 . S
C1399 C1398 1.362 . S
H1400 C1406 0.930 . S
H1401 C1409 0.930 . S
H1402 C1410 0.930 . S
H1403 C1411 0.930 . S
H1404 C1414 0.930 . S
H1405 C1415 0.930 . S
C1406 H1400 0.930 . S
C1406 C1407 1.355 . S
C1406 C1408 1.415 . S
C1407 C1406 1.355 . S
C1407 C1409 1.419 . S
C1408 C1406 1.415 . S
C1408 C1413 1.425 . S
C1408 C1415 1.409 . S
C1409 H1401 0.930 . S
C1409 C1407 1.419 . S
C1409 C1410 1.362 . S
C1410 H1402 0.930 . S
C1410 C1409 1.362 . S
C1410 C1413 1.409 . S
C1411 H1403 0.930 . S
C1411 C1412 1.355 . S
C1411 C1413 1.415 . S
C1412 C1411 1.355 . S
C1412 C1414 1.419 . S
C1413 C1408 1.425 . S
C1413 C1410 1.409 . S
C1413 C1411 1.415 . S
C1414 H1404 0.930 . S
C1414 C1412 1.419 . S
C1414 C1415 1.362 . S
C1415 H1405 0.930 . S
C1415 C1408 1.409 . S
C1415 C1414 1.362 . S
H1416 C1422 0.930 . S
H1417 C1425 0.930 . S
H1418 C1426 0.930 . S
H1419 C1427 0.930 . S
H1420 C1430 0.930 . S
H1421 C1431 0.930 . S
C1422 H1416 0.930 . S
C1422 C1423 1.355 1_655 S
C1422 C1424 1.415 . S
C1423 C1422 1.355 1_455 S
C1423 C1425 1.419 . S
C1424 C1422 1.415 . S
C1424 C1429 1.425 . S
C1424 C1431 1.409 . S
C1425 H1417 0.930 . S
C1425 C1423 1.419 . S
C1425 C1426 1.362 1_455 S
C1426 H1418 0.930 . S
C1426 C1425 1.362 1_655 S
C1426 C1429 1.409 . S
C1427 H1419 0.930 . S
C1427 C1428 1.355 . S
C1427 C1429 1.415 . S
C1428 C1427 1.355 . S
C1428 C1430 1.419 . S
C1429 C1424 1.425 . S
C1429 C1426 1.409 . S
C1429 C1427 1.415 . S
C1430 H1420 0.930 . S
C1430 C1428 1.419 . S
C1430 C1431 1.362 . S
C1431 H1421 0.930 . S
C1431 C1424 1.409 . S
C1431 C1430 1.362 . S
H1432 C1438 0.930 . S
H1433 C1441 0.930 . S
H1434 C1442 0.930 . S
H1435 C1443 0.930 . S
H1436 C1446 0.930 . S
H1437 C1447 0.930 . S
C1438 H1432 0.930 . S
C1438 C1439 1.355 . S
C1438 C1440 1.415 . S
C1439 C1438 1.355 . S
C1439 C1441 1.419 . S
C1440 C1438 1.415 . S
C1440 C1445 1.425 . S
C1440 C1447 1.409 . S
C1441 H1433 0.930 . S
C1441 C1439 1.419 . S
C1441 C1442 1.362 . S
C1442 H1434 0.930 . S
C1442 C1441 1.362 . S
C1442 C1445 1.409 . S
C1443 H1435 0.930 . S
C1443 C1444 1.355 . S
C1443 C1445 1.415 . S
C1444 C1443 1.355 . S
C1444 C1446 1.419 . S
C1445 C1440 1.425 . S
C1445 C1442 1.409 . S
C1445 C1443 1.415 . S
C1446 H1436 0.930 . S
C1446 C1444 1.419 . S
C1446 C1447 1.362 . S
C1447 H1437 0.930 . S
C1447 C1440 1.409 . S
C1447 C1446 1.362 . S
H1448 C1454 0.930 . S
H1449 C1457 0.930 . S
H1450 C1458 0.926 . S
H1451 C1459 0.930 . S
H1452 C1462 0.930 . S
H1453 C1463 0.930 . S
C1454 H1448 0.930 . S
C1454 C1455 1.355 . S
C1454 C1456 1.415 1_565 S
C1455 C1454 1.355 . S
C1455 C1457 1.419 . S
C1456 C1454 1.415 1_545 S
C1456 C1461 1.425 . S
C1456 C1463 1.409 . S
C1457 H1449 0.930 . S
C1457 C1455 1.419 . S
C1457 C1458 1.349 1_565 S
C1458 H1450 0.926 . S
C1458 C1457 1.349 1_545 S
C1458 C1461 1.427 . S
C1459 H1451 0.930 . S
C1459 C1460 1.355 . S
C1459 C1461 1.415 . S
C1460 C1459 1.355 . S
C1460 C1462 1.419 . S
C1461 C1456 1.425 . S
C1461 C1458 1.427 . S
C1461 C1459 1.415 . S
C1462 H1452 0.930 . S
C1462 C1460 1.419 . S
C1462 C1463 1.362 . S
C1463 H1453 0.930 . S
C1463 C1456 1.409 . S
C1463 C1462 1.362 . S
H1464 C1470 0.930 . S
H1465 C1473 0.930 . S
H1466 C1474 0.930 . S
H1467 C1475 0.930 . S
H1468 C1478 0.930 . S
H1469 C1479 0.930 . S
C1470 H1464 0.930 . S
C1470 C1471 1.355 . S
C1470 C1472 1.415 . S
C1471 C1470 1.355 . S
C1471 C1473 1.419 . S
C1472 C1470 1.415 . S
C1472 C1477 1.425 . S
C1472 C1479 1.409 . S
C1473 H1465 0.930 . S
C1473 C1471 1.419 . S
C1473 C1474 1.362 . S
C1474 H1466 0.930 . S
C1474 C1473 1.362 . S
C1474 C1477 1.409 . S
C1475 H1467 0.930 . S
C1475 C1476 1.355 . S
C1475 C1477 1.415 . S
C1476 C1475 1.355 . S
C1476 C1478 1.419 . S
C1477 C1472 1.425 . S
C1477 C1474 1.409 . S
C1477 C1475 1.415 . S
C1478 H1468 0.930 . S
C1478 C1476 1.419 . S
C1478 C1479 1.362 . S
C1479 H1469 0.930 . S
C1479 C1472 1.409 . S
C1479 C1478 1.362 . S
H1480 C1486 0.930 . S
H1481 C1489 0.930 . S
H1482 C1490 0.930 . S
H1483 C1491 0.930 . S
H1484 C1494 0.930 . S
H1485 C1495 0.930 . S
C1486 H1480 0.930 . S
C1486 C1487 1.355 . S
C1486 C1488 1.415 . S
C1487 C1486 1.355 . S
C1487 C1489 1.419 . S
C1488 C1486 1.415 . S
C1488 C1493 1.425 . S
C1488 C1495 1.409 . S
C1489 H1481 0.930 . S
C1489 C1487 1.419 . S
C1489 C1490 1.362 . S
C1490 H1482 0.930 . S
C1490 C1489 1.362 . S
C1490 C1493 1.409 . S
C1491 H1483 0.930 . S
C1491 C1492 1.355 . S
C1491 C1493 1.415 . S
C1492 C1491 1.355 . S
C1492 C1494 1.419 . S
C1493 C1488 1.425 . S
C1493 C1490 1.409 . S
C1493 C1491 1.415 . S
C1494 H1484 0.930 . S
C1494 C1492 1.419 . S
C1494 C1495 1.362 . S
C1495 H1485 0.930 . S
C1495 C1488 1.409 . S
C1495 C1494 1.362 . S
H1496 C1502 0.930 . S
H1497 C1505 0.930 . S
H1498 C1506 0.930 . S
H1499 C1507 0.930 . S
H1500 C1510 0.930 . S
H1501 C1511 0.930 . S
C1502 H1496 0.930 . S
C1502 C1503 1.355 . S
C1502 C1504 1.415 . S
C1503 C1502 1.355 . S
C1503 C1505 1.419 . S
C1504 C1502 1.415 . S
C1504 C1509 1.425 . S
C1504 C1511 1.409 . S
C1505 H1497 0.930 . S
C1505 C1503 1.419 . S
C1505 C1506 1.362 . S
C1506 H1498 0.930 . S
C1506 C1505 1.362 . S
C1506 C1509 1.409 . S
C1507 H1499 0.930 . S
C1507 C1508 1.355 . S
C1507 C1509 1.415 . S
C1508 C1507 1.355 . S
C1508 C1510 1.419 . S
C1509 C1504 1.425 . S
C1509 C1506 1.409 . S
C1509 C1507 1.415 . S
C1510 H1500 0.930 . S
C1510 C1508 1.419 . S
C1510 C1511 1.362 . S
C1511 H1501 0.930 . S
C1511 C1504 1.409 . S
C1511 C1510 1.362 . S
H1512 C1518 0.930 . S
H1513 C1521 0.930 . S
H1514 C1522 0.930 . S
H1515 C1523 0.930 . S
H1516 C1526 0.930 1_545 S
H1517 C1527 0.930 . S
C1518 H1512 0.930 . S
C1518 C1519 1.355 . S
C1518 C1520 1.415 . S
C1519 C1518 1.355 . S
C1519 C1521 1.419 . S
C1520 C1518 1.415 . S
C1520 C1525 1.425 . S
C1520 C1527 1.409 . S
C1521 H1513 0.930 . S
C1521 C1519 1.419 . S
C1521 C1522 1.362 . S
C1522 H1514 0.930 . S
C1522 C1521 1.362 . S
C1522 C1525 1.409 . S
C1523 H1515 0.930 . S
C1523 C1524 1.355 . S
C1523 C1525 1.415 . S
C1524 C1523 1.355 . S
C1524 C1526 1.419 . S
C1525 C1520 1.425 . S
C1525 C1522 1.409 . S
C1525 C1523 1.415 . S
C1526 H1516 0.930 1_565 S
C1526 C1524 1.419 . S
C1526 C1527 1.362 . S
C1527 H1517 0.930 . S
C1527 C1520 1.409 . S
C1527 C1526 1.362 . S
H1528 C1534 0.930 1_655 S
H1529 C1537 0.930 . S
H1530 C1538 0.930 . S
H1531 C1539 0.930 . S
H1532 C1542 0.914 1_655 S
H1533 C1543 0.930 . S
C1534 H1528 0.930 1_455 S
C1534 C1535 1.355 . S
C1534 C1536 1.415 . S
C1535 C1534 1.355 . S
C1535 C1537 1.419 . S
C1536 C1534 1.415 . S
C1536 C1541 1.425 . S
C1536 C1543 1.409 1_455 S
C1537 H1529 0.930 . S
C1537 C1535 1.419 . S
C1537 C1538 1.362 . S
C1538 H1530 0.930 . S
C1538 C1537 1.362 . S
C1538 C1541 1.409 . S
C1539 H1531 0.930 . S
C1539 C1540 1.355 . S
C1539 C1541 1.415 . S
C1540 C1539 1.355 . S
C1540 C1542 1.444 . S
C1541 C1536 1.425 . S
C1541 C1538 1.409 . S
C1541 C1539 1.415 . S
C1542 H1532 0.914 1_455 S
C1542 C1540 1.444 . S
C1542 C1543 1.354 1_455 S
C1543 H1533 0.930 . S
C1543 C1536 1.409 1_655 S
C1543 C1542 1.354 1_655 S
H1544 C1550 0.930 . S
H1545 C1553 0.930 . S
H1546 C1554 0.930 . S
H1547 C1555 0.930 . S
H1548 C1558 0.930 . S
H1549 C1559 0.930 . S
C1550 H1544 0.930 . S
C1550 C1551 1.355 . S
C1550 C1552 1.415 . S
C1551 C1550 1.355 . S
C1551 C1553 1.419 . S
C1552 C1550 1.415 . S
C1552 C1557 1.425 . S
C1552 C1559 1.409 . S
C1553 H1545 0.930 . S
C1553 C1551 1.419 . S
C1553 C1554 1.362 . S
C1554 H1546 0.930 . S
C1554 C1553 1.362 . S
C1554 C1557 1.409 . S
C1555 H1547 0.930 . S
C1555 C1556 1.355 . S
C1555 C1557 1.415 . S
C1556 C1555 1.355 . S
C1556 C1558 1.419 . S
C1557 C1552 1.425 . S
C1557 C1554 1.409 . S
C1557 C1555 1.415 . S
C1558 H1548 0.930 . S
C1558 C1556 1.419 . S
C1558 C1559 1.362 . S
C1559 H1549 0.930 . S
C1559 C1552 1.409 . S
C1559 C1558 1.362 . S
H1560 C1566 0.930 . S
H1561 C1569 0.930 . S
H1562 C1570 0.930 . S
H1563 C1571 0.898 1_455 S
H1564 C1574 0.930 . S
H1565 C1575 0.930 . S
C1566 H1560 0.930 . S
C1566 C1567 1.355 . S
C1566 C1568 1.415 . S
C1567 C1566 1.355 . S
C1567 C1569 1.419 1_655 S
C1568 C1566 1.415 . S
C1568 C1573 1.425 . S
C1568 C1575 1.409 . S
C1569 H1561 0.930 . S
C1569 C1567 1.419 1_455 S
C1569 C1570 1.362 . S
C1570 H1562 0.930 . S
C1570 C1569 1.362 . S
C1570 C1573 1.409 1_455 S
C1571 H1563 0.898 1_655 S
C1571 C1572 1.385 . S
C1571 C1573 1.416 . S
C1572 C1571 1.385 . S
C1572 C1574 1.419 . S
C1573 C1568 1.425 . S
C1573 C1570 1.409 1_655 S
C1573 C1571 1.416 . S
C1574 H1564 0.930 . S
C1574 C1572 1.419 . S
C1574 C1575 1.362 . S
C1575 H1565 0.930 . S
C1575 C1568 1.409 . S
C1575 C1574 1.362 . S
H1576 C1582 0.930 . S
H1577 C1585 0.930 . S
H1578 C1586 0.930 . S
H1579 C1587 0.930 . S
H1580 C1590 0.930 . S
H1581 C1591 0.930 . S
C1582 H1576 0.930 . S
C1582 C1583 1.355 . S
C1582 C1584 1.415 . S
C1583 C1582 1.355 . S
C1583 C1585 1.419 . S
C1584 C1582 1.415 . S
C1584 C1589 1.425 . S
C1584 C1591 1.409 . S
C1585 H1577 0.930 . S
C1585 C1583 1.419 . S
C1585 C1586 1.362 . S
C1586 H1578 0.930 . S
C1586 C1585 1.362 . S
C1586 C1589 1.409 . S
C1587 H1579 0.930 . S
C1587 C1588 1.355 . S
C1587 C1589 1.415 . S
C1588 C1587 1.355 . S
C1588 C1590 1.419 . S
C1589 C1584 1.425 . S
C1589 C1586 1.409 . S
C1589 C1587 1.415 . S
C1590 H1580 0.930 . S
C1590 C1588 1.419 . S
C1590 C1591 1.362 . S
C1591 H1581 0.930 . S
C1591 C1584 1.409 . S
C1591 C1590 1.362 . S
H1592 C1598 0.930 . S
H1593 C1601 0.930 . S
H1594 C1602 0.930 . S
H1595 C1603 0.930 . S
H1596 C1606 0.930 1_565 S
H1597 C1607 0.930 . S
C1598 H1592 0.930 . S
C1598 C1599 1.355 . S
C1598 C1600 1.415 . S
C1599 C1598 1.355 . S
C1599 C1601 1.419 . S
C1600 C1598 1.415 . S
C1600 C1605 1.425 . S
C1600 C1607 1.409 . S
C1601 H1593 0.930 . S
C1601 C1599 1.419 . S
C1601 C1602 1.362 . S
C1602 H1594 0.930 . S
C1602 C1601 1.362 . S
C1602 C1605 1.409 . S
C1603 H1595 0.930 . S
C1603 C1604 1.355 . S
C1603 C1605 1.415 . S
C1604 C1603 1.355 . S
C1604 C1606 1.419 . S
C1605 C1600 1.425 . S
C1605 C1602 1.409 . S
C1605 C1603 1.415 . S
C1606 H1596 0.930 1_545 S
C1606 C1604 1.419 . S
C1606 C1607 1.362 . S
C1607 H1597 0.930 . S
C1607 C1600 1.409 . S
C1607 C1606 1.362 . S
H1608 C1614 0.930 . S
H1609 C1617 0.930 . S
H1610 C1618 0.930 . S
H1611 C1619 0.930 . S
H1612 C1622 0.930 . S
H1613 C1623 0.930 . S
C1614 H1608 0.930 . S
C1614 C1615 1.355 . S
C1614 C1616 1.415 . S
C1615 C1614 1.355 . S
C1615 C1617 1.419 . S
C1616 C1614 1.415 . S
C1616 C1621 1.425 . S
C1616 C1623 1.409 . S
C1617 H1609 0.930 . S
C1617 C1615 1.419 . S
C1617 C1618 1.362 . S
C1618 H1610 0.930 . S
C1618 C1617 1.362 . S
C1618 C1621 1.409 . S
C1619 H1611 0.930 . S
C1619 C1620 1.355 . S
C1619 C1621 1.415 . S
C1620 C1619 1.355 . S
C1620 C1622 1.419 . S
C1621 C1616 1.425 . S
C1621 C1618 1.409 . S
C1621 C1619 1.415 . S
C1622 H1612 0.930 . S
C1622 C1620 1.419 . S
C1622 C1623 1.362 . S
C1623 H1613 0.930 . S
C1623 C1616 1.409 . S
C1623 C1622 1.362 . S
H1624 C1630 0.930 . S
H1625 C1633 0.930 . S
H1626 C1634 0.930 . S
H1627 C1635 0.930 . S
H1628 C1638 0.930 . S
H1629 C1639 0.930 . S
C1630 H1624 0.930 . S
C1630 C1631 1.355 . S
C1630 C1632 1.415 . S
C1631 C1630 1.355 . S
C1631 C1633 1.419 . S
C1632 C1630 1.415 . S
C1632 C1637 1.425 . S
C1632 C1639 1.409 . S
C1633 H1625 0.930 . S
C1633 C1631 1.419 . S
C1633 C1634 1.362 . S
C1634 H1626 0.930 . S
C1634 C1633 1.362 . S
C1634 C1637 1.409 . S
C1635 H1627 0.930 . S
C1635 C1636 1.355 . S
C1635 C1637 1.415 . S
C1636 C1635 1.355 . S
C1636 C1638 1.419 . S
C1637 C1632 1.425 . S
C1637 C1634 1.409 . S
C1637 C1635 1.415 . S
C1638 H1628 0.930 . S
C1638 C1636 1.419 . S
C1638 C1639 1.362 . S
C1639 H1629 0.930 . S
C1639 C1632 1.409 . S
C1639 C1638 1.362 . S
H1640 C1646 0.930 . S
H1641 C1649 0.930 . S
H1642 C1650 0.930 . S
H1643 C1651 0.930 . S
H1644 C1654 0.930 . S
H1645 C1655 0.930 . S
C1646 H1640 0.930 . S
C1646 C1647 1.355 . S
C1646 C1648 1.415 . S
C1647 C1646 1.355 . S
C1647 C1649 1.419 . S
C1648 C1646 1.415 . S
C1648 C1653 1.425 . S
C1648 C1655 1.409 . S
C1649 H1641 0.930 . S
C1649 C1647 1.419 . S
C1649 C1650 1.362 . S
C1650 H1642 0.930 . S
C1650 C1649 1.362 . S
C1650 C1653 1.409 . S
C1651 H1643 0.930 . S
C1651 C1652 1.355 . S
C1651 C1653 1.415 . S
C1652 C1651 1.355 . S
C1652 C1654 1.419 . S
C1653 C1648 1.425 . S
C1653 C1650 1.409 . S
C1653 C1651 1.415 . S
C1654 H1644 0.930 . S
C1654 C1652 1.419 . S
C1654 C1655 1.362 . S
C1655 H1645 0.930 . S
C1655 C1648 1.409 . S
C1655 C1654 1.362 . S
H1656 C1662 0.930 . S
H1657 C1665 0.930 . S
H1658 C1666 0.930 . S
H1659 C1667 0.930 . S
H1660 C1670 0.930 . S
H1661 C1671 0.930 . S
C1662 H1656 0.930 . S
C1662 C1663 1.355 . S
C1662 C1664 1.415 . S
C1663 C1662 1.355 . S
C1663 C1665 1.419 . S
C1664 C1662 1.415 . S
C1664 C1669 1.425 . S
C1664 C1671 1.409 . S
C1665 H1657 0.930 . S
C1665 C1663 1.419 . S
C1665 C1666 1.362 . S
C1666 H1658 0.930 . S
C1666 C1665 1.362 . S
C1666 C1669 1.409 . S
C1667 H1659 0.930 . S
C1667 C1668 1.355 . S
C1667 C1669 1.415 . S
C1668 C1667 1.355 . S
C1668 C1670 1.419 . S
C1669 C1664 1.425 . S
C1669 C1666 1.409 . S
C1669 C1667 1.415 . S
C1670 H1660 0.930 . S
C1670 C1668 1.419 . S
C1670 C1671 1.362 . S
C1671 H1661 0.930 . S
C1671 C1664 1.409 . S
C1671 C1670 1.362 . S
H1672 C1678 0.930 . S
H1673 C1681 0.930 . S
H1674 C1682 0.930 . S
H1675 C1683 0.930 . S
H1676 C1686 0.930 . S
H1677 C1687 0.930 . S
C1678 H1672 0.930 . S
C1678 C1679 1.355 . S
C1678 C1680 1.415 . S
C1679 C1678 1.355 . S
C1679 C1681 1.419 . S
C1680 C1678 1.415 . S
C1680 C1685 1.425 . S
C1680 C1687 1.409 . S
C1681 H1673 0.930 . S
C1681 C1679 1.419 . S
C1681 C1682 1.362 . S
C1682 H1674 0.930 . S
C1682 C1681 1.362 . S
C1682 C1685 1.409 . S
C1683 H1675 0.930 . S
C1683 C1684 1.355 . S
C1683 C1685 1.415 . S
C1684 C1683 1.355 . S
C1684 C1686 1.419 . S
C1685 C1680 1.425 . S
C1685 C1682 1.409 . S
C1685 C1683 1.415 . S
C1686 H1676 0.930 . S
C1686 C1684 1.419 . S
C1686 C1687 1.362 . S
C1687 H1677 0.930 . S
C1687 C1680 1.409 . S
C1687 C1686 1.362 . S
H1688 C1694 0.930 . S
H1689 C1697 0.930 . S
H1690 C1698 0.930 . S
H1691 C1699 0.930 . S
H1692 C1702 0.930 . S
H1693 C1703 0.930 . S
C1694 H1688 0.930 . S
C1694 C1695 1.355 . S
C1694 C1696 1.415 . S
C1695 C1694 1.355 . S
C1695 C1697 1.419 . S
C1696 C1694 1.415 . S
C1696 C1701 1.425 . S
C1696 C1703 1.409 . S
C1697 H1689 0.930 . S
C1697 C1695 1.419 . S
C1697 C1698 1.362 . S
C1698 H1690 0.930 . S
C1698 C1697 1.362 . S
C1698 C1701 1.409 . S
C1699 H1691 0.930 . S
C1699 C1700 1.355 . S
C1699 C1701 1.415 . S
C1700 C1699 1.355 . S
C1700 C1702 1.419 . S
C1701 C1696 1.425 . S
C1701 C1698 1.409 . S
C1701 C1699 1.415 . S
C1702 H1692 0.930 . S
C1702 C1700 1.419 . S
C1702 C1703 1.362 . S
C1703 H1693 0.930 . S
C1703 C1696 1.409 . S
C1703 C1702 1.362 . S
H1704 C1710 0.930 . S
H1705 C1713 0.930 . S
H1706 C1714 0.930 . S
H1707 C1715 0.930 . S
H1708 C1718 0.930 . S
H1709 C1719 0.930 . S
C1710 H1704 0.930 . S
C1710 C1711 1.355 . S
C1710 C1712 1.415 . S
C1711 C1710 1.355 . S
C1711 C1713 1.419 . S
C1712 C1710 1.415 . S
C1712 C1717 1.425 . S
C1712 C1719 1.409 . S
C1713 H1705 0.930 . S
C1713 C1711 1.419 . S
C1713 C1714 1.362 . S
C1714 H1706 0.930 . S
C1714 C1713 1.362 . S
C1714 C1717 1.409 . S
C1715 H1707 0.930 . S
C1715 C1716 1.355 . S
C1715 C1717 1.415 . S
C1716 C1715 1.355 . S
C1716 C1718 1.419 . S
C1717 C1712 1.425 . S
C1717 C1714 1.409 . S
C1717 C1715 1.415 . S
C1718 H1708 0.930 . S
C1718 C1716 1.419 . S
C1718 C1719 1.362 . S
C1719 H1709 0.930 . S
C1719 C1712 1.409 . S
C1719 C1718 1.362 . S
H1720 C1726 0.930 . S
H1721 C1729 0.930 . S
H1722 C1730 0.930 . S
H1723 C1731 0.930 . S
H1724 C1734 0.930 . S
H1725 C1735 0.930 . S
C1726 H1720 0.930 . S
C1726 C1727 1.355 . S
C1726 C1728 1.415 . S
C1727 C1726 1.355 . S
C1727 C1729 1.419 . S
C1728 C1726 1.415 . S
C1728 C1733 1.425 . S
C1728 C1735 1.409 . S
C1729 H1721 0.930 . S
C1729 C1727 1.419 . S
C1729 C1730 1.362 . S
C1730 H1722 0.930 . S
C1730 C1729 1.362 . S
C1730 C1733 1.409 . S
C1731 H1723 0.930 . S
C1731 C1732 1.355 . S
C1731 C1733 1.415 . S
C1732 C1731 1.355 . S
C1732 C1734 1.419 . S
C1733 C1728 1.425 . S
C1733 C1730 1.409 . S
C1733 C1731 1.415 . S
C1734 H1724 0.930 . S
C1734 C1732 1.419 . S
C1734 C1735 1.362 . S
C1735 H1725 0.930 . S
C1735 C1728 1.409 . S
C1735 C1734 1.362 . S
H1736 C1742 0.930 . S
H1737 C1745 0.930 . S
H1738 C1746 0.930 . S
H1739 C1747 0.930 . S
H1740 C1750 0.930 . S
H1741 C1751 0.930 . S
C1742 H1736 0.930 . S
C1742 C1743 1.355 . S
C1742 C1744 1.415 . S
C1743 C1742 1.355 . S
C1743 C1745 1.419 . S
C1744 C1742 1.415 . S
C1744 C1749 1.425 . S
C1744 C1751 1.409 . S
C1745 H1737 0.930 . S
C1745 C1743 1.419 . S
C1745 C1746 1.362 . S
C1746 H1738 0.930 . S
C1746 C1745 1.362 . S
C1746 C1749 1.409 . S
C1747 H1739 0.930 . S
C1747 C1748 1.355 . S
C1747 C1749 1.415 . S
C1748 C1747 1.355 . S
C1748 C1750 1.419 . S
C1749 C1744 1.425 . S
C1749 C1746 1.409 . S
C1749 C1747 1.415 . S
C1750 H1740 0.930 . S
C1750 C1748 1.419 . S
C1750 C1751 1.362 . S
C1751 H1741 0.930 . S
C1751 C1744 1.409 . S
C1751 C1750 1.362 . S
H1752 C1758 0.930 . S
H1753 C1761 0.930 . S
H1754 C1762 0.930 . S
H1755 C1763 0.930 . S
H1756 C1766 0.930 . S
H1757 C1767 0.930 . S
C1758 H1752 0.930 . S
C1758 C1759 1.355 . S
C1758 C1760 1.415 . S
C1759 C1758 1.355 . S
C1759 C1761 1.419 . S
C1760 C1758 1.415 . S
C1760 C1765 1.425 . S
C1760 C1767 1.409 . S
C1761 H1753 0.930 . S
C1761 C1759 1.419 . S
C1761 C1762 1.362 . S
C1762 H1754 0.930 . S
C1762 C1761 1.362 . S
C1762 C1765 1.409 . S
C1763 H1755 0.930 . S
C1763 C1764 1.355 . S
C1763 C1765 1.415 . S
C1764 C1763 1.355 . S
C1764 C1766 1.419 . S
C1765 C1760 1.425 . S
C1765 C1762 1.409 . S
C1765 C1763 1.415 . S
C1766 H1756 0.930 . S
C1766 C1764 1.419 . S
C1766 C1767 1.362 . S
C1767 H1757 0.930 . S
C1767 C1760 1.409 . S
C1767 C1766 1.362 . S
H1768 C1774 0.930 . S
H1769 C1777 0.930 . S
H1770 C1778 0.930 . S
H1771 C1779 0.930 . S
H1772 C1782 0.930 . S
H1773 C1783 0.930 . S
C1774 H1768 0.930 . S
C1774 C1775 1.355 . S
C1774 C1776 1.415 . S
C1775 C1774 1.355 . S
C1775 C1777 1.419 . S
C1776 C1774 1.415 . S
C1776 C1781 1.425 . S
C1776 C1783 1.409 . S
C1777 H1769 0.930 . S
C1777 C1775 1.419 . S
C1777 C1778 1.362 . S
C1778 H1770 0.930 . S
C1778 C1777 1.362 . S
C1778 C1781 1.409 . S
C1779 H1771 0.930 . S
C1779 C1780 1.355 . S
C1779 C1781 1.415 . S
C1780 C1779 1.355 . S
C1780 C1782 1.419 . S
C1781 C1776 1.425 . S
C1781 C1778 1.409 . S
C1781 C1779 1.415 . S
C1782 H1772 0.930 . S
C1782 C1780 1.419 . S
C1782 C1783 1.362 . S
C1783 H1773 0.930 . S
C1783 C1776 1.409 . S
C1783 C1782 1.362 . S
H1784 C1790 0.930 . S
H1785 C1793 0.930 . S
H1786 C1794 0.930 . S
H1787 C1795 0.930 . S
H1788 C1798 0.930 . S
H1789 C1799 0.930 . S
C1790 H1784 0.930 . S
C1790 C1791 1.355 . S
C1790 C1792 1.415 . S
C1791 C1790 1.355 . S
C1791 C1793 1.419 . S
C1792 C1790 1.415 . S
C1792 C1797 1.425 . S
C1792 C1799 1.409 . S
C1793 H1785 0.930 . S
C1793 C1791 1.419 . S
C1793 C1794 1.362 . S
C1794 H1786 0.930 . S
C1794 C1793 1.362 . S
C1794 C1797 1.409 . S
C1795 H1787 0.930 . S
C1795 C1796 1.355 . S
C1795 C1797 1.415 . S
C1796 C1795 1.355 . S
C1796 C1798 1.419 . S
C1797 C1792 1.425 . S
C1797 C1794 1.409 . S
C1797 C1795 1.415 . S
C1798 H1788 0.930 . S
C1798 C1796 1.419 . S
C1798 C1799 1.362 . S
C1799 H1789 0.930 . S
C1799 C1792 1.409 . S
C1799 C1798 1.362 . S
C943 C439 1.470 . S
C948 C579 1.616 . S
C959 C465 1.796 . S
C964 C619 1.779 . S
C975 C401 1.738 . S
C980 C671 1.718 . S
C991 C369 1.572 . S
C996 C631 1.551 . S
C1012 C659 1.532 . S
C1007 C305 1.516 . S
C1023 C343 1.235 . S
C1028 C591 1.408 . S
C1044 C598 1.652 . S
C1039 C375 1.684 . S
C1060 C638 1.765 . S
C1055 C311 1.758 . S
C1071 C337 1.543 . S
C1076 C658 1.683 . S
C1087 C433 1.510 . S
C1092 C618 1.547 . S
C1103 C471 1.487 . S
C1108 C678 1.471 . S
C1124 C578 1.440 . S
C1119 C407 1.473 . S
C1140 C699 1.621 . S
C1135 C55 1.484 . S
C1151 C81 1.799 . S
C1156 C739 1.775 . S
C1167 C17 1.725 . S
C1172 C791 1.691 . S
C1183 C561 1.577 . S
C1188 C751 1.565 . S
C1199 C497 1.501 . S
C1204 C779 1.514 . S
C1215 C535 1.259 . S
C1220 C711 1.386 . S
C1231 C567 1.679 . S
C1236 C718 1.667 . S
C1247 C503 1.767 . S
C1252 C758 1.745 . S
C1268 C778 1.710 . S
C1263 C529 1.640 . S
C1279 C49 1.507 . S
C1284 C738 1.540 . S
C1300 C798 1.470 . S
C1295 C87 1.484 . S
C1311 C23 1.468 . S
C1316 C698 1.430 . S
C1332 C819 1.617 . S
C1327 C247 1.471 . S
C1343 C273 1.796 . S
C1348 C859 1.780 . S
C1364 C911 1.702 . S
C1359 C209 1.730 . S
C1380 C871 1.526 . S
C1375 C177 1.572 . S
C1396 C899 1.514 . S
C1391 C113 1.501 . S
C1407 C151 1.345 . S
C1412 C831 1.417 . S
C1423 C183 1.678 . S
C1428 C838 1.655 . S
C1439 C119 1.765 . S
C1444 C878 1.754 . S
C1460 C898 1.697 . S
C1455 C145 1.550 . S
C1471 C241 1.510 . S
C1476 C858 1.552 . S
C1487 C279 1.469 . S
C1492 C918 1.485 . S
C1503 C215 1.477 . S
C1508 C818 1.469 . S
C1519 C509 1.383 . S
C1524 C602 1.395 . S
C1540 C642 1.749 . S
C1535 C541 1.661 . S
C1551 C573 1.541 . S
C1556 C665 1.562 . S
C1567 C221 1.821 . S
C1572 C625 1.810 . S
C1583 C253 1.484 . S
C1588 C682 1.527 . S
C1604 C585 1.395 . S
C1599 C285 1.372 . S
C1615 C125 1.360 . S
C1620 C722 1.399 . S
C1631 C157 1.639 . S
C1636 C762 1.748 . S
C1647 C189 1.542 . S
C1652 C785 1.564 . S
C1663 C413 1.829 . S
C1668 C745 1.807 . S
C1684 C802 1.541 . S
C1679 C445 1.492 . S
C1695 C477 1.369 . S
C1700 C705 1.358 . S
C1711 C317 1.355 . S
C1716 C842 1.361 . S
C1727 C349 1.692 . S
C1732 C882 1.786 . S
C1748 C905 1.538 . S
C1743 C381 1.564 . S
C1759 C29 1.826 . S
C1764 C865 1.812 . S
C1775 C61 1.501 . S
C1780 C922 1.540 . S
C1791 C93 1.369 . S
C1796 C825 1.395 . S
