# Generated by pormake.
# Topology eea, (3,6)-cn, num edge types: 1
# Building blocks:
#     Node 0, Type 0, BuildingBlock: MIDCAF_clean_linker_0, # of connection points: 3
#     Node 1, Type 0, BuildingBlock: MIDCAF_clean_linker_0, # of connection points: 3
#     Node 2, Type 0, BuildingBlock: MIDCAF_clean_linker_0, # of connection points: 3
#     Node 3, Type 0, BuildingBlock: MIDCAF_clean_linker_0, # of connection points: 3
#     Node 4, Type 0, BuildingBlock: MIDCAF_clean_linker_0, # of connection points: 3
#     Node 5, Type 0, BuildingBlock: MIDCAF_clean_linker_0, # of connection points: 3
#     Node 6, Type 0, BuildingBlock: MIDCAF_clean_linker_0, # of connection points: 3
#     Node 7, Type 0, BuildingBlock: MIDCAF_clean_linker_0, # of connection points: 3
#     Node 8, Type 0, BuildingBlock: MIDCAF_clean_linker_0, # of connection points: 3
#     Node 9, Type 0, BuildingBlock: MIDCAF_clean_linker_0, # of connection points: 3
#     Node 10, Type 0, BuildingBlock: MIDCAF_clean_linker_0, # of connection points: 3
#     Node 11, Type 0, BuildingBlock: MIDCAF_clean_linker_0, # of connection points: 3
#     Node 12, Type 0, BuildingBlock: MIDCAF_clean_linker_0, # of connection points: 3
#     Node 13, Type 0, BuildingBlock: MIDCAF_clean_linker_0, # of connection points: 3
#     Node 14, Type 0, BuildingBlock: MIDCAF_clean_linker_0, # of connection points: 3
#     Node 15, Type 0, BuildingBlock: MIDCAF_clean_linker_0, # of connection points: 3
#     Node 16, Type 0, BuildingBlock: MIDCAF_clean_linker_0, # of connection points: 3
#     Node 17, Type 0, BuildingBlock: MIDCAF_clean_linker_0, # of connection points: 3
#     Node 18, Type 1, BuildingBlock: KUMBUR_clean_sbu_0, # of connection points: 6
#     Node 19, Type 1, BuildingBlock: KUMBUR_clean_sbu_0, # of connection points: 6
#     Node 20, Type 1, BuildingBlock: KUMBUR_clean_sbu_0, # of connection points: 6
#     Node 21, Type 1, BuildingBlock: KUMBUR_clean_sbu_0, # of connection points: 6
#     Node 22, Type 1, BuildingBlock: KUMBUR_clean_sbu_0, # of connection points: 6
#     Node 23, Type 1, BuildingBlock: KUMBUR_clean_sbu_0, # of connection points: 6
#     Node 24, Type 1, BuildingBlock: KUMBUR_clean_sbu_0, # of connection points: 6
#     Node 25, Type 1, BuildingBlock: KUMBUR_clean_sbu_0, # of connection points: 6
#     Node 26, Type 1, BuildingBlock: KUMBUR_clean_sbu_0, # of connection points: 6
#     Edge 27, Type (0, 1), BuildingBlock: TEMPAE_clean_linker_10, # of connection points: 2
#     Edge 28, Type (0, 1), BuildingBlock: TEMPAE_clean_linker_10, # of connection points: 2
#     Edge 29, Type (0, 1), BuildingBlock: TEMPAE_clean_linker_10, # of connection points: 2
#     Edge 30, Type (0, 1), BuildingBlock: TEMPAE_clean_linker_10, # of connection points: 2
#     Edge 31, Type (0, 1), BuildingBlock: TEMPAE_clean_linker_10, # of connection points: 2
#     Edge 32, Type (0, 1), BuildingBlock: TEMPAE_clean_linker_10, # of connection points: 2
#     Edge 33, Type (0, 1), BuildingBlock: TEMPAE_clean_linker_10, # of connection points: 2
#     Edge 34, Type (0, 1), BuildingBlock: TEMPAE_clean_linker_10, # of connection points: 2
#     Edge 35, Type (0, 1), BuildingBlock: TEMPAE_clean_linker_10, # of connection points: 2
#     Edge 36, Type (0, 1), BuildingBlock: TEMPAE_clean_linker_10, # of connection points: 2
#     Edge 37, Type (0, 1), BuildingBlock: TEMPAE_clean_linker_10, # of connection points: 2
#     Edge 38, Type (0, 1), BuildingBlock: TEMPAE_clean_linker_10, # of connection points: 2
#     Edge 39, Type (0, 1), BuildingBlock: TEMPAE_clean_linker_10, # of connection points: 2
#     Edge 40, Type (0, 1), BuildingBlock: TEMPAE_clean_linker_10, # of connection points: 2
#     Edge 41, Type (0, 1), BuildingBlock: TEMPAE_clean_linker_10, # of connection points: 2
#     Edge 42, Type (0, 1), BuildingBlock: TEMPAE_clean_linker_10, # of connection points: 2
#     Edge 43, Type (0, 1), BuildingBlock: TEMPAE_clean_linker_10, # of connection points: 2
#     Edge 44, Type (0, 1), BuildingBlock: TEMPAE_clean_linker_10, # of connection points: 2
#     Edge 45, Type (0, 1), BuildingBlock: TEMPAE_clean_linker_10, # of connection points: 2
#     Edge 46, Type (0, 1), BuildingBlock: TEMPAE_clean_linker_10, # of connection points: 2
#     Edge 47, Type (0, 1), BuildingBlock: TEMPAE_clean_linker_10, # of connection points: 2
#     Edge 48, Type (0, 1), BuildingBlock: TEMPAE_clean_linker_10, # of connection points: 2
#     Edge 49, Type (0, 1), BuildingBlock: TEMPAE_clean_linker_10, # of connection points: 2
#     Edge 50, Type (0, 1), BuildingBlock: TEMPAE_clean_linker_10, # of connection points: 2
#     Edge 51, Type (0, 1), BuildingBlock: TEMPAE_clean_linker_10, # of connection points: 2
#     Edge 52, Type (0, 1), BuildingBlock: TEMPAE_clean_linker_10, # of connection points: 2
#     Edge 53, Type (0, 1), BuildingBlock: TEMPAE_clean_linker_10, # of connection points: 2
#     Edge 54, Type (0, 1), BuildingBlock: TEMPAE_clean_linker_10, # of connection points: 2
#     Edge 55, Type (0, 1), BuildingBlock: TEMPAE_clean_linker_10, # of connection points: 2
#     Edge 56, Type (0, 1), BuildingBlock: TEMPAE_clean_linker_10, # of connection points: 2
#     Edge 57, Type (0, 1), BuildingBlock: TEMPAE_clean_linker_10, # of connection points: 2
#     Edge 58, Type (0, 1), BuildingBlock: TEMPAE_clean_linker_10, # of connection points: 2
#     Edge 59, Type (0, 1), BuildingBlock: TEMPAE_clean_linker_10, # of connection points: 2
#     Edge 60, Type (0, 1), BuildingBlock: TEMPAE_clean_linker_10, # of connection points: 2
#     Edge 61, Type (0, 1), BuildingBlock: TEMPAE_clean_linker_10, # of connection points: 2
#     Edge 62, Type (0, 1), BuildingBlock: TEMPAE_clean_linker_10, # of connection points: 2
#     Edge 63, Type (0, 1), BuildingBlock: TEMPAE_clean_linker_10, # of connection points: 2
#     Edge 64, Type (0, 1), BuildingBlock: TEMPAE_clean_linker_10, # of connection points: 2
#     Edge 65, Type (0, 1), BuildingBlock: TEMPAE_clean_linker_10, # of connection points: 2
#     Edge 66, Type (0, 1), BuildingBlock: TEMPAE_clean_linker_10, # of connection points: 2
#     Edge 67, Type (0, 1), BuildingBlock: TEMPAE_clean_linker_10, # of connection points: 2
#     Edge 68, Type (0, 1), BuildingBlock: TEMPAE_clean_linker_10, # of connection points: 2
#     Edge 69, Type (0, 1), BuildingBlock: TEMPAE_clean_linker_10, # of connection points: 2
#     Edge 70, Type (0, 1), BuildingBlock: TEMPAE_clean_linker_10, # of connection points: 2
#     Edge 71, Type (0, 1), BuildingBlock: TEMPAE_clean_linker_10, # of connection points: 2
#     Edge 72, Type (0, 1), BuildingBlock: TEMPAE_clean_linker_10, # of connection points: 2
#     Edge 73, Type (0, 1), BuildingBlock: TEMPAE_clean_linker_10, # of connection points: 2
#     Edge 74, Type (0, 1), BuildingBlock: TEMPAE_clean_linker_10, # of connection points: 2
#     Edge 75, Type (0, 1), BuildingBlock: TEMPAE_clean_linker_10, # of connection points: 2
#     Edge 76, Type (0, 1), BuildingBlock: TEMPAE_clean_linker_10, # of connection points: 2
#     Edge 77, Type (0, 1), BuildingBlock: TEMPAE_clean_linker_10, # of connection points: 2
#     Edge 78, Type (0, 1), BuildingBlock: TEMPAE_clean_linker_10, # of connection points: 2
#     Edge 79, Type (0, 1), BuildingBlock: TEMPAE_clean_linker_10, # of connection points: 2
#     Edge 80, Type (0, 1), BuildingBlock: TEMPAE_clean_linker_10, # of connection points: 2
# Relax obj value: 0.009
# Max RMSD: 0.095
# Mean RMSD: 0.062
data_MOF--net-eea--node1-KUMBUR_clean_sbu_0--node2-MIDCAF_clean_linker_0--edge1-TEMPAE_clean_linker_10
_symmetry_space_group_name_H-M    P1
_symmetry_Int_Tables_number       1
_symmetry_cell_setting            triclinic
loop_
_symmetry_equiv_pos_as_xyz
'x, y, z'
_cell_length_a     62.743084
_cell_length_b     64.063333
_cell_length_c     89.325478
_cell_angle_alpha  90.201966
_cell_angle_beta   90.120101
_cell_angle_gamma 119.99885
loop_
_atom_site_label
_atom_site_type_symbol
_atom_site_fract_x
_atom_site_fract_y
_atom_site_fract_z
_atom_type_partial_charge
C0 C 0.23589 0.03944 0.41442 0.0
C1 C 0.22121 0.03126 0.40146 0.0
C2 C 0.21198 0.04533 0.39533 0.0
C3 C 0.21751 0.06728 0.40195 0.0
H4 H 0.20608 0.12496 0.39775 0.0
H5 H 0.19504 0.15188 0.38506 0.0
H6 H 0.2432 0.20997 0.41469 0.0
H7 H 0.25439 0.18317 0.42743 0.0
H8 H 0.2744 0.17002 0.45684 0.0
H9 H 0.29578 0.18099 0.48089 0.0
H10 H 0.29013 0.11106 0.48331 0.0
H11 H 0.26933 0.10023 0.4592 0.0
H12 H 0.25274 0.06705 0.43105 0.0
H13 H 0.24305 0.02883 0.41947 0.0
H14 H 0.2008 0.03956 0.38526 0.0
H15 H 0.21021 0.07774 0.39686 0.0
N16 N 0.23208 0.11396 0.41502 0.0
N17 N 0.25053 0.14218 0.43447 0.0
N18 N 0.25085 0.10577 0.43506 0.0
C19 C 0.23807 0.13561 0.42124 0.0
C20 C 0.25691 0.12729 0.44148 0.0
C21 C 0.23848 0.09896 0.42184 0.0
C22 C 0.23116 0.15189 0.41362 0.0
C23 C 0.21435 0.14346 0.40159 0.0
C24 C 0.2079 0.15882 0.39436 0.0
C25 C 0.21828 0.18298 0.39889 0.0
C26 C 0.23509 0.19146 0.41089 0.0
C27 C 0.24137 0.17605 0.41823 0.0
C28 C 0.27012 0.13423 0.45603 0.0
C29 C 0.27776 0.15699 0.46246 0.0
C30 C 0.28992 0.16326 0.47629 0.0
C31 C 0.29468 0.14691 0.484 0.0
C32 C 0.28709 0.12421 0.47755 0.0
C33 C 0.27501 0.11796 0.46374 0.0
C34 C 0.23229 0.07555 0.4149 0.0
C35 C 0.24132 0.0613 0.42109 0.0
C36 C 0.97101 0.19387 0.40767 0.0
C37 C 0.97722 0.1865 0.39432 0.0
C38 C 0.96146 0.163 0.38897 0.0
C39 C 0.94002 0.14731 0.39675 0.0
H40 H 0.87446 0.08303 0.39195 0.0
H41 H 0.84503 0.04384 0.38135 0.0
H42 H 0.80357 0.02499 0.42246 0.0
H43 H 0.83299 0.06399 0.43317 0.0
H44 H 0.84466 0.10347 0.45706 0.0
H45 H 0.83505 0.11512 0.4809 0.0
H46 H 0.9023 0.18381 0.47872 0.0
H47 H 0.91227 0.17206 0.45488 0.0
H48 H 0.94546 0.1846 0.42567 0.0
H49 H 0.98248 0.21196 0.41201 0.0
H50 H 0.9658 0.15661 0.37882 0.0
H51 H 0.92839 0.12934 0.39227 0.0
N52 N 0.89481 0.11605 0.41249 0.0
N53 N 0.86914 0.10764 0.4333 0.0
N54 N 0.90586 0.14468 0.43177 0.0
C55 C 0.87386 0.10072 0.41991 0.0
C56 C 0.88497 0.12956 0.43933 0.0
C57 C 0.91095 0.13806 0.41834 0.0
C58 C 0.85616 0.07677 0.41343 0.0
C59 C 0.85912 0.07055 0.39877 0.0
C60 C 0.84218 0.04813 0.39265 0.0
C61 C 0.82197 0.03133 0.40106 0.0
C62 C 0.81908 0.03745 0.41574 0.0
C63 C 0.83592 0.0599 0.42184 0.0
C64 C 0.87927 0.13681 0.45395 0.0
C65 C 0.85748 0.12109 0.4616 0.0
C66 C 0.85185 0.12782 0.47527 0.0
C67 C 0.86782 0.15045 0.4817 0.0
C68 C 0.88969 0.16616 0.47414 0.0
C69 C 0.89534 0.15944 0.46042 0.0
C70 C 0.9338 0.15469 0.41011 0.0
C71 C 0.94963 0.17818 0.41548 0.0
C72 C 0.81587 0.7779 0.41038 0.0
C73 C 0.82109 0.79044 0.39675 0.0
C74 C 0.84469 0.79939 0.39055 0.0
C75 C 0.86249 0.79587 0.39776 0.0
H76 H 0.92102 0.77594 0.38986 0.0
H77 H 0.95834 0.78346 0.37709 0.0
H78 H 0.9993 0.8108 0.41846 0.0
H79 H 0.96136 0.80125 0.43136 0.0
H80 H 0.91799 0.75586 0.45806 0.0
H81 H 0.90916 0.73838 0.48308 0.0
H82 H 0.84167 0.74085 0.48382 0.0
H83 H 0.85052 0.75856 0.45896 0.0
H84 H 0.82891 0.76475 0.42811 0.0
H85 H 0.79783 0.77034 0.4154 0.0
H86 H 0.84957 0.80945 0.3802 0.0
H87 H 0.88045 0.80315 0.39266 0.0
N88 N 0.89761 0.78518 0.41225 0.0
N89 N 0.91117 0.77414 0.43377 0.0
N90 N 0.87254 0.77158 0.43352 0.0
C91 C 0.91516 0.78238 0.41944 0.0
C92 C 0.8898 0.76855 0.44089 0.0
C93 C 0.87628 0.77997 0.41925 0.0
C94 C 0.93823 0.7879 0.41162 0.0
C95 C 0.93805 0.78353 0.3962 0.0
C96 C 0.95964 0.78811 0.38884 0.0
C97 C 0.98227 0.79791 0.3966 0.0
C98 C 0.98238 0.80273 0.41204 0.0
C99 C 0.9606 0.79744 0.41948 0.0
C100 C 0.88498 0.75864 0.45638 0.0
C101 C 0.90132 0.75282 0.46356 0.0
C102 C 0.8962 0.74265 0.4779 0.0
C103 C 0.87468 0.73816 0.48548 0.0
C104 C 0.85855 0.74431 0.4784 0.0
C105 C 0.86359 0.75435 0.46406 0.0
C106 C 0.85728 0.78345 0.41144 0.0
C107 C 0.83372 0.77454 0.41765 0.0
C108 C 0.03296 0.21484 0.59894 0.0
C109 C 0.02671 0.2024 0.61264 0.0
C110 C 0.04257 0.19487 0.61853 0.0
C111 C 0.06406 0.19964 0.61094 0.0
H112 H 0.12521 0.19164 0.61445 0.0
H113 H 0.15523 0.18389 0.62671 0.0
H114 H 0.2078 0.22308 0.5919 0.0
H115 H 0.17756 0.23019 0.57938 0.0
H116 H 0.15764 0.24124 0.54949 0.0
H117 H 0.16648 0.2593 0.52473 0.0
H118 H 0.10081 0.26498 0.52667 0.0
H119 H 0.09203 0.24717 0.55159 0.0
H120 H 0.05854 0.22922 0.58084 0.0
H121 H 0.02144 0.22128 0.59416 0.0
H122 H 0.03824 0.18495 0.62892 0.0
H123 H 0.07571 0.19345 0.61584 0.0
N124 N 0.10964 0.21201 0.59569 0.0
N125 N 0.13517 0.22673 0.57466 0.0
N126 N 0.09797 0.22708 0.57526 0.0
C127 C 0.13072 0.21679 0.58854 0.0
C128 C 0.11891 0.23189 0.5679 0.0
C129 C 0.09316 0.21712 0.58917 0.0
C130 C 0.14889 0.21162 0.59591 0.0
C131 C 0.14314 0.19856 0.60936 0.0
C132 C 0.16045 0.19421 0.61645 0.0
C133 C 0.18407 0.20292 0.61037 0.0
C134 C 0.18972 0.21577 0.59684 0.0
C135 C 0.17236 0.21999 0.58968 0.0
C136 C 0.1241 0.24271 0.55265 0.0
C137 C 0.14501 0.24629 0.54469 0.0
C138 C 0.15003 0.25653 0.53041 0.0
C139 C 0.13434 0.26356 0.52366 0.0
C140 C 0.11342 0.25999 0.53158 0.0
C141 C 0.10833 0.24965 0.54587 0.0
C142 C 0.07026 0.21201 0.59722 0.0
C143 C 0.05438 0.21953 0.59132 0.0
C144 C 0.76359 0.80298 0.5988 0.0
C145 C 0.77952 0.81064 0.61123 0.0
C146 C 0.78856 0.83407 0.61684 0.0
C147 C 0.78182 0.84959 0.61017 0.0
H148 H 0.77407 0.90848 0.6198 0.0
H149 H 0.785 0.9465 0.63222 0.0
H150 H 0.77041 0.973 0.59134 0.0
H151 H 0.7595 0.93503 0.57881 0.0
H152 H 0.73153 0.89769 0.55269 0.0
H153 H 0.71195 0.88839 0.52816 0.0
H154 H 0.70476 0.81776 0.52961 0.0
H155 H 0.72483 0.82714 0.55402 0.0
H156 H 0.74478 0.81218 0.58242 0.0
H157 H 0.75649 0.78503 0.5942 0.0
H158 H 0.80067 0.84033 0.62651 0.0
H159 H 0.78918 0.86755 0.61481 0.0
N160 N 0.76506 0.87994 0.59727 0.0
N161 N 0.74811 0.89016 0.57716 0.0
N162 N 0.74781 0.8534 0.57694 0.0
C163 C 0.75949 0.89569 0.59072 0.0
C164 C 0.74214 0.86902 0.5702 0.0
C165 C 0.75934 0.85879 0.59046 0.0
C166 C 0.76592 0.9187 0.59829 0.0
C167 C 0.7732 0.92239 0.61342 0.0
C168 C 0.77934 0.94409 0.62058 0.0
C169 C 0.77857 0.96263 0.61273 0.0
C170 C 0.77137 0.95903 0.59761 0.0
C171 C 0.76499 0.93724 0.59047 0.0
C172 C 0.72983 0.86319 0.55537 0.0
C173 C 0.72577 0.88014 0.54783 0.0
C174 C 0.71441 0.87478 0.53378 0.0
C175 C 0.70678 0.85233 0.52694 0.0
C176 C 0.71072 0.83533 0.53449 0.0
C177 C 0.72213 0.8407 0.54853 0.0
C178 C 0.76605 0.84207 0.59765 0.0
C179 C 0.757 0.81858 0.59203 0.0
C180 C 0.18605 0.96181 0.59431 0.0
C181 C 0.18065 0.97004 0.60757 0.0
C182 C 0.15738 0.95602 0.61412 0.0
C183 C 0.13998 0.9341 0.60762 0.0
H184 H 0.07237 0.87315 0.615 0.0
H185 H 0.03556 0.84501 0.62864 0.0
H186 H 0.01951 0.79049 0.59496 0.0
H187 H 0.05586 0.81873 0.58109 0.0
H188 H 0.08818 0.83268 0.55133 0.0
H189 H 0.09704 0.82274 0.52654 0.0
H190 H 0.16253 0.89281 0.5242 0.0
H191 H 0.15365 0.90294 0.54874 0.0
H192 H 0.17351 0.93429 0.57754 0.0
H193 H 0.20374 0.97233 0.58892 0.0
H194 H 0.15278 0.96182 0.62442 0.0
H195 H 0.12229 0.92369 0.61302 0.0
N196 N 0.10624 0.88693 0.59483 0.0
N197 N 0.09434 0.85948 0.57478 0.0
N198 N 0.13134 0.8963 0.57367 0.0
C199 C 0.08975 0.86536 0.5886 0.0
C200 C 0.11509 0.87492 0.56722 0.0
C201 C 0.12713 0.90249 0.58744 0.0
C202 C 0.06717 0.84828 0.5969 0.0
C203 C 0.06098 0.85518 0.61045 0.0
C204 C 0.0399 0.83899 0.61834 0.0
C205 C 0.02449 0.81545 0.61292 0.0
C206 C 0.03068 0.80859 0.59936 0.0
C207 C 0.05167 0.82479 0.59143 0.0
C208 C 0.12017 0.86864 0.5521 0.0
C209 C 0.10444 0.84601 0.54553 0.0
C210 C 0.10956 0.84024 0.53134 0.0
C211 C 0.13045 0.857 0.52337 0.0
C212 C 0.14609 0.87961 0.52993 0.0
C213 C 0.14104 0.88535 0.54409 0.0
C214 C 0.14539 0.92582 0.59435 0.0
C215 C 0.16862 0.94003 0.58775 0.0
C216 C 0.91646 0.37819 0.73638 0.0
C217 C 0.90954 0.37586 0.72121 0.0
C218 C 0.90754 0.39453 0.7144 0.0
C219 C 0.91164 0.41474 0.72266 0.0
H220 H 0.901 0.47127 0.71997 0.0
H221 H 0.88771 0.49739 0.70876 0.0
H222 H 0.90089 0.53591 0.75064 0.0
H223 H 0.91394 0.50954 0.76205 0.0
H224 H 0.94361 0.49901 0.78759 0.0
H225 H 0.95961 0.50565 0.81304 0.0
H226 H 0.95505 0.43609 0.81234 0.0
H227 H 0.9397 0.42968 0.78672 0.0
H228 H 0.92545 0.39944 0.75639 0.0
H229 H 0.91789 0.36398 0.742 0.0
H230 H 0.90262 0.39344 0.70267 0.0
H231 H 0.90962 0.42862 0.71705 0.0
N232 N 0.91437 0.4531 0.74076 0.0
N233 N 0.92464 0.47532 0.76311 0.0
N234 N 0.92907 0.44112 0.7612 0.0
C235 C 0.91619 0.47194 0.74878 0.0
C236 C 0.93116 0.46 0.7694 0.0
C237 C 0.92075 0.43762 0.74684 0.0
C238 C 0.90857 0.48826 0.74195 0.0
C239 C 0.90111 0.48528 0.72685 0.0
C240 C 0.89359 0.50033 0.72037 0.0
C241 C 0.89328 0.51869 0.72882 0.0
C242 C 0.9007 0.52173 0.7439 0.0
C243 C 0.90833 0.5067 0.7504 0.0
C244 C 0.94042 0.46383 0.78504 0.0
C245 C 0.94596 0.48508 0.79284 0.0
C246 C 0.95502 0.48884 0.8075 0.0
C247 C 0.95862 0.4714 0.81476 0.0
C248 C 0.95286 0.45006 0.80701 0.0
C249 C 0.94393 0.44634 0.79232 0.0
C250 C 0.91792 0.41681 0.73794 0.0
C251 C 0.92066 0.39847 0.74465 0.0
C252 C 0.64692 0.51546 0.7437 0.0
C253 C 0.64583 0.52018 0.72838 0.0
C254 C 0.62271 0.50822 0.72115 0.0
C255 C 0.60153 0.49196 0.72892 0.0
H256 H 0.54189 0.41899 0.72415 0.0
H257 H 0.5117 0.381 0.71255 0.0
H258 H 0.46989 0.36007 0.75355 0.0
H259 H 0.5001 0.39776 0.76525 0.0
H260 H 0.51837 0.43037 0.79295 0.0
H261 H 0.50933 0.43951 0.81773 0.0
H262 H 0.5737 0.51045 0.81572 0.0
H263 H 0.58316 0.50117 0.79092 0.0
H264 H 0.62707 0.49661 0.76333 0.0
H265 H 0.66427 0.52365 0.74968 0.0
H266 H 0.62074 0.51164 0.70952 0.0
H267 H 0.58407 0.48306 0.72302 0.0
N268 N 0.56288 0.45024 0.74555 0.0
N269 N 0.53901 0.43923 0.76732 0.0
N270 N 0.57682 0.47536 0.76683 0.0
C271 C 0.54224 0.43428 0.75299 0.0
C272 C 0.55607 0.45972 0.77433 0.0
C273 C 0.58027 0.47072 0.75242 0.0
C274 C 0.52355 0.4115 0.74568 0.0
C275 C 0.52626 0.40634 0.73071 0.0
C276 C 0.50888 0.3846 0.72402 0.0
C277 C 0.48843 0.36749 0.73214 0.0
C278 C 0.48561 0.37273 0.74705 0.0
C279 C 0.50291 0.39446 0.75373 0.0
C280 C 0.55146 0.46507 0.78982 0.0
C281 C 0.53073 0.44792 0.79775 0.0
C282 C 0.52543 0.4532 0.81197 0.0
C283 C 0.54063 0.4758 0.81867 0.0
C284 C 0.56169 0.4928 0.81093 0.0
C285 C 0.56705 0.48749 0.79667 0.0
C286 C 0.60274 0.48777 0.74423 0.0
C287 C 0.62559 0.49977 0.75156 0.0
C288 C 0.48157 0.11778 0.74499 0.0
C289 C 0.48721 0.13042 0.73138 0.0
C290 C 0.5109 0.13919 0.72538 0.0
C291 C 0.52825 0.13501 0.73261 0.0
H292 H 0.59677 0.14096 0.72692 0.0
H293 H 0.634 0.14864 0.71385 0.0
H294 H 0.64579 0.10554 0.74631 0.0
H295 H 0.60903 0.09851 0.75966 0.0
H296 H 0.5592 0.0649 0.78415 0.0
H297 H 0.5494 0.04613 0.80869 0.0
H298 H 0.5248 0.09533 0.82282 0.0
H299 H 0.53264 0.1124 0.7978 0.0
H300 H 0.49374 0.10364 0.76261 0.0
H301 H 0.46346 0.11041 0.74988 0.0
H302 H 0.51613 0.14938 0.71507 0.0
H303 H 0.54619 0.14189 0.72755 0.0
N304 N 0.56117 0.12061 0.74615 0.0
N305 N 0.57213 0.10448 0.76634 0.0
N306 N 0.53605 0.10694 0.76743 0.0
C307 C 0.57713 0.11462 0.75249 0.0
C308 C 0.55175 0.1008 0.77391 0.0
C309 C 0.54049 0.11668 0.75348 0.0
C310 C 0.59978 0.11909 0.74439 0.0
C311 C 0.60727 0.1331 0.7313 0.0
C312 C 0.62864 0.13743 0.72374 0.0
C313 C 0.64304 0.12773 0.72897 0.0
C314 C 0.63549 0.11368 0.74205 0.0
C315 C 0.61423 0.1095 0.74968 0.0
C316 C 0.54659 0.09003 0.78906 0.0
C317 C 0.55163 0.07158 0.79254 0.0
C318 C 0.54618 0.06098 0.80674 0.0
C319 C 0.53629 0.06909 0.81804 0.0
C320 C 0.53176 0.08798 0.8145 0.0
C321 C 0.53647 0.09801 0.80014 0.0
C322 C 0.52248 0.12211 0.74612 0.0
C323 C 0.49898 0.11377 0.75228 0.0
C324 C 0.69111 0.53 0.93161 0.0
C325 C 0.69203 0.53504 0.94707 0.0
C326 C 0.71482 0.54403 0.95453 0.0
C327 C 0.73583 0.54768 0.94684 0.0
H328 H 0.79161 0.52593 0.94953 0.0
H329 H 0.82229 0.51905 0.9617 0.0
H330 H 0.87289 0.5556 0.92552 0.0
H331 H 0.84196 0.56178 0.9131 0.0
H332 H 0.81993 0.56862 0.88276 0.0
H333 H 0.82845 0.58609 0.85784 0.0
H334 H 0.76243 0.59117 0.85955 0.0
H335 H 0.75394 0.57394 0.88463 0.0
H336 H 0.71094 0.53039 0.91196 0.0
H337 H 0.67398 0.52248 0.92542 0.0
H338 H 0.7167 0.54875 0.96629 0.0
H339 H 0.75302 0.55468 0.95293 0.0
N340 N 0.77465 0.54423 0.93013 0.0
N341 N 0.79883 0.55661 0.90845 0.0
N342 N 0.76093 0.55559 0.90882 0.0
C343 C 0.79542 0.54851 0.92278 0.0
C344 C 0.78175 0.56025 0.90137 0.0
C345 C 0.7573 0.54764 0.92321 0.0
C346 C 0.81423 0.54445 0.93031 0.0
C347 C 0.80926 0.53251 0.94414 0.0
C348 C 0.82695 0.52865 0.95118 0.0
C349 C 0.85017 0.53678 0.94464 0.0
C350 C 0.85511 0.54871 0.9308 0.0
C351 C 0.83736 0.55241 0.92371 0.0
C352 C 0.78625 0.56989 0.88582 0.0
C353 C 0.80711 0.57334 0.87786 0.0
C354 C 0.81195 0.58324 0.86348 0.0
C355 C 0.79615 0.59006 0.85667 0.0
C356 C 0.77513 0.58636 0.86453 0.0
C357 C 0.7702 0.57634 0.8789 0.0
C358 C 0.73486 0.54312 0.93139 0.0
C359 C 0.71231 0.53434 0.92385 0.0
C360 C 0.43121 0.1385 0.933 0.0
C361 C 0.44689 0.14593 0.94554 0.0
C362 C 0.45678 0.16966 0.95084 0.0
C363 C 0.45141 0.18578 0.94361 0.0
H364 H 0.45318 0.25037 0.94936 0.0
H365 H 0.46352 0.28883 0.96085 0.0
H366 H 0.4461 0.31177 0.91947 0.0
H367 H 0.43598 0.27344 0.90784 0.0
H368 H 0.4332 0.23436 0.87616 0.0
H369 H 0.41451 0.22431 0.85137 0.0
H370 H 0.35607 0.15651 0.86843 0.0
H371 H 0.37633 0.16592 0.89279 0.0
H372 H 0.4141 0.14844 0.91592 0.0
H373 H 0.42346 0.12033 0.92862 0.0
H374 H 0.4687 0.17576 0.9606 0.0
H375 H 0.45958 0.20402 0.94792 0.0
N376 N 0.43931 0.21831 0.92855 0.0
N377 N 0.42567 0.22915 0.90708 0.0
N378 N 0.42065 0.19041 0.90899 0.0
C379 C 0.43624 0.2349 0.92088 0.0
C380 C 0.41775 0.20693 0.90115 0.0
C381 C 0.43168 0.19608 0.92267 0.0
C382 C 0.44365 0.25872 0.92767 0.0
C383 C 0.45167 0.26361 0.94265 0.0
C384 C 0.45746 0.2856 0.94928 0.0
C385 C 0.45549 0.30322 0.94108 0.0
C386 C 0.44796 0.29857 0.92603 0.0
C387 C 0.44205 0.27654 0.9194 0.0
C388 C 0.40616 0.20086 0.88627 0.0
C389 C 0.41643 0.21727 0.87448 0.0
C390 C 0.4055 0.21154 0.86031 0.0
C391 C 0.38353 0.18959 0.85775 0.0
C392 C 0.37322 0.17332 0.86974 0.0
C393 C 0.38466 0.17874 0.88377 0.0
C394 C 0.43617 0.17856 0.93084 0.0
C395 C 0.42597 0.15466 0.92569 0.0
C396 C 0.85205 0.29281 0.92788 0.0
C397 C 0.84667 0.30113 0.94112 0.0
C398 C 0.82339 0.28728 0.94766 0.0
C399 C 0.80582 0.26556 0.9411 0.0
H400 H 0.75113 0.1865 0.95075 0.0
H401 H 0.71495 0.15795 0.96462 0.0
H402 H 0.67011 0.14553 0.92502 0.0
H403 H 0.70687 0.17259 0.91097 0.0
H404 H 0.75 0.16718 0.8832 0.0
H405 H 0.75808 0.15754 0.85812 0.0
H406 H 0.82343 0.22768 0.85554 0.0
H407 H 0.81534 0.2375 0.8804 0.0
H408 H 0.83912 0.26543 0.91096 0.0
H409 H 0.86981 0.30321 0.92255 0.0
H410 H 0.81885 0.29317 0.95794 0.0
H411 H 0.78805 0.25537 0.94642 0.0
N412 N 0.77156 0.219 0.92808 0.0
N413 N 0.75717 0.19348 0.90702 0.0
N414 N 0.79524 0.22934 0.90625 0.0
C415 C 0.75398 0.19847 0.92138 0.0
C416 C 0.7779 0.20883 0.89939 0.0
C417 C 0.79219 0.23463 0.92054 0.0
C418 C 0.73177 0.1816 0.92979 0.0
C419 C 0.73348 0.17755 0.94506 0.0
C420 C 0.7126 0.16131 0.95304 0.0
C421 C 0.68928 0.14925 0.94607 0.0
C422 C 0.68766 0.15385 0.93079 0.0
C423 C 0.70871 0.16953 0.92271 0.0
C424 C 0.78203 0.20311 0.8839 0.0
C425 C 0.76601 0.18062 0.87726 0.0
C426 C 0.77069 0.17503 0.86292 0.0
C427 C 0.79139 0.19184 0.85484 0.0
C428 C 0.80716 0.21443 0.86138 0.0
C429 C 0.80257 0.21999 0.87571 0.0
C430 C 0.81106 0.25733 0.92774 0.0
C431 C 0.8344 0.27122 0.92122 0.0
C432 C 0.56785 0.70472 0.0817 0.0
C433 C 0.56088 0.70032 0.06655 0.0
C434 C 0.55964 0.71827 0.05825 0.0
C435 C 0.56483 0.73999 0.06503 0.0
H436 H 0.56086 0.80097 0.0573 0.0
H437 H 0.54978 0.82778 0.04445 0.0
H438 H 0.56519 0.87046 0.08476 0.0
H439 H 0.57602 0.84371 0.09769 0.0
H440 H 0.59554 0.83143 0.12562 0.0
H441 H 0.6066 0.83918 0.15191 0.0
H442 H 0.60506 0.77119 0.15522 0.0
H443 H 0.5943 0.76344 0.1287 0.0
H444 H 0.57824 0.72917 0.10021 0.0
H445 H 0.56925 0.69131 0.08833 0.0
H446 H 0.5541 0.7153 0.04659 0.0
H447 H 0.56337 0.75327 0.05832 0.0
N448 N 0.57166 0.78284 0.07996 0.0
N449 N 0.58221 0.80756 0.10121 0.0
N450 N 0.58321 0.77153 0.10214 0.0
C451 C 0.57481 0.80322 0.0867 0.0
C452 C 0.58651 0.79189 0.10902 0.0
C453 C 0.57584 0.76691 0.08759 0.0
C454 C 0.56922 0.82006 0.07857 0.0
C455 C 0.56197 0.8161 0.06343 0.0
C456 C 0.55571 0.8315 0.05604 0.0
C457 C 0.55645 0.85108 0.06365 0.0
C458 C 0.56408 0.85527 0.07868 0.0
C459 C 0.57043 0.83999 0.08605 0.0
C460 C 0.5939 0.79673 0.12499 0.0
C461 C 0.59754 0.81806 0.13188 0.0
C462 C 0.60374 0.82247 0.14701 0.0
C463 C 0.60645 0.80568 0.15567 0.0
C464 C 0.60319 0.78451 0.1488 0.0
C465 C 0.59695 0.78006 0.13361 0.0
C466 C 0.57145 0.74429 0.08026 0.0
C467 C 0.57313 0.72648 0.08848 0.0
C468 C 0.3144 0.84678 0.07611 0.0
C469 C 0.31269 0.85126 0.06083 0.0
C470 C 0.28947 0.83859 0.05379 0.0
C471 C 0.26874 0.8219 0.06173 0.0
H472 H 0.21148 0.74809 0.05789 0.0
H473 H 0.18145 0.7103 0.04615 0.0
H474 H 0.14102 0.68755 0.0876 0.0
H475 H 0.17123 0.72516 0.09949 0.0
H476 H 0.20971 0.75927 0.13186 0.0
H477 H 0.20193 0.76847 0.15705 0.0
H478 H 0.2218 0.84046 0.14269 0.0
H479 H 0.23165 0.83164 0.11802 0.0
H480 H 0.29546 0.82771 0.09588 0.0
H481 H 0.33191 0.85549 0.08193 0.0
H482 H 0.28708 0.84178 0.04218 0.0
H483 H 0.25115 0.81242 0.056 0.0
N484 N 0.23191 0.77942 0.07899 0.0
N485 N 0.20916 0.76779 0.10124 0.0
N486 N 0.24539 0.8054 0.09983 0.0
C487 C 0.21213 0.76286 0.08683 0.0
C488 C 0.2256 0.78907 0.10774 0.0
C489 C 0.24869 0.80058 0.08546 0.0
C490 C 0.19385 0.73977 0.07967 0.0
C491 C 0.19625 0.73507 0.06455 0.0
C492 C 0.17893 0.71344 0.05777 0.0
C493 C 0.15883 0.69595 0.06593 0.0
C494 C 0.15646 0.70056 0.08105 0.0
C495 C 0.17374 0.72221 0.08784 0.0
C496 C 0.22137 0.79479 0.12308 0.0
C497 C 0.21263 0.77712 0.13424 0.0
C498 C 0.20793 0.7824 0.14865 0.0
C499 C 0.21101 0.80526 0.15211 0.0
C500 C 0.21972 0.82285 0.14077 0.0
C501 C 0.22522 0.81779 0.12652 0.0
C502 C 0.27055 0.81802 0.07701 0.0
C503 C 0.29352 0.83068 0.08415 0.0
C504 C 0.14629 0.44555 0.07496 0.0
C505 C 0.15159 0.45775 0.0612 0.0
C506 C 0.17509 0.46626 0.05497 0.0
C507 C 0.19273 0.4626 0.06228 0.0
H508 H 0.25005 0.44133 0.05458 0.0
H509 H 0.28698 0.44785 0.04173 0.0
H510 H 0.3284 0.47481 0.08299 0.0
H511 H 0.29085 0.46632 0.09595 0.0
H512 H 0.24693 0.42188 0.12292 0.0
H513 H 0.2377 0.40448 0.14792 0.0
H514 H 0.1725 0.41109 0.14913 0.0
H515 H 0.18131 0.42786 0.12405 0.0
H516 H 0.15912 0.43254 0.09287 0.0
H517 H 0.12829 0.43834 0.08 0.0
H518 H 0.18004 0.47605 0.04452 0.0
H519 H 0.21063 0.46952 0.05715 0.0
N520 N 0.22734 0.45139 0.07691 0.0
N521 N 0.24078 0.44057 0.09858 0.0
N522 N 0.20255 0.43889 0.09833 0.0
C523 C 0.24471 0.44838 0.08415 0.0
C524 C 0.21964 0.43565 0.10574 0.0
C525 C 0.20625 0.44684 0.08395 0.0
C526 C 0.26752 0.4532 0.07629 0.0
C527 C 0.26709 0.44861 0.06088 0.0
C528 C 0.28846 0.4526 0.05347 0.0
C529 C 0.31108 0.46199 0.06119 0.0
C530 C 0.31144 0.46702 0.07661 0.0
C531 C 0.28989 0.46234 0.08409 0.0
C532 C 0.21483 0.4262 0.12134 0.0
C533 C 0.23067 0.41973 0.12851 0.0
C534 C 0.22543 0.40984 0.14293 0.0
C535 C 0.20426 0.40622 0.15058 0.0
C536 C 0.18872 0.41316 0.14351 0.0
C537 C 0.19389 0.42295 0.1291 0.0
C538 C 0.18744 0.45051 0.07607 0.0
C539 C 0.16398 0.44207 0.08232 0.0
C540 C 0.37044 0.88368 0.26827 0.0
C541 C 0.36362 0.87073 0.28178 0.0
C542 C 0.37901 0.86251 0.28756 0.0
C543 C 0.40057 0.86715 0.28006 0.0
H544 H 0.46399 0.86115 0.28398 0.0
H545 H 0.49496 0.85454 0.29605 0.0
H546 H 0.54648 0.89448 0.26093 0.0
H547 H 0.51532 0.90038 0.24861 0.0
H548 H 0.49418 0.90898 0.21848 0.0
H549 H 0.50232 0.92633 0.19352 0.0
H550 H 0.4361 0.93102 0.19556 0.0
H551 H 0.42801 0.91392 0.22067 0.0
H552 H 0.39641 0.89831 0.25041 0.0
H553 H 0.35942 0.89076 0.26358 0.0
H554 H 0.37428 0.85221 0.29781 0.0
H555 H 0.41187 0.86048 0.28486 0.0
N556 N 0.44712 0.88066 0.26513 0.0
N557 N 0.47232 0.89516 0.24392 0.0
N558 N 0.43473 0.8947 0.24449 0.0
C559 C 0.46827 0.88569 0.25792 0.0
C560 C 0.45567 0.89967 0.23707 0.0
C561 C 0.43025 0.88516 0.25851 0.0
C562 C 0.48705 0.88134 0.26529 0.0
C563 C 0.48189 0.86848 0.27879 0.0
C564 C 0.49976 0.8648 0.28578 0.0
C565 C 0.52338 0.87403 0.27954 0.0
C566 C 0.52845 0.88675 0.26599 0.0
C567 C 0.51054 0.89028 0.25895 0.0
C568 C 0.46043 0.91002 0.2217 0.0
C569 C 0.48128 0.91366 0.21366 0.0
C570 C 0.4859 0.92348 0.19926 0.0
C571 C 0.46985 0.93005 0.19249 0.0
C572 C 0.44898 0.92639 0.20049 0.0
C573 C 0.44428 0.91646 0.21489 0.0
C574 C 0.40729 0.88004 0.26652 0.0
C575 C 0.39185 0.88817 0.26073 0.0
C576 C 0.11531 0.48044 0.26106 0.0
C577 C 0.12399 0.48503 0.2759 0.0
C578 C 0.12617 0.50534 0.28336 0.0
C579 C 0.11984 0.52077 0.27614 0.0
H580 H 0.11675 0.5823 0.28267 0.0
H581 H 0.12622 0.62015 0.29477 0.0
H582 H 0.11263 0.64568 0.25316 0.0
H583 H 0.1032 0.60787 0.24094 0.0
H584 H 0.07718 0.57036 0.2148 0.0
H585 H 0.05668 0.55996 0.19058 0.0
H586 H 0.04837 0.48896 0.19339 0.0
H587 H 0.06947 0.49949 0.21752 0.0
H588 H 0.10214 0.49169 0.24242 0.0
H589 H 0.1132 0.46476 0.25509 0.0
H590 H 0.13302 0.50943 0.29476 0.0
H591 H 0.12181 0.53627 0.28225 0.0
N592 N 0.10935 0.55369 0.26034 0.0
N593 N 0.09266 0.56322 0.23977 0.0
N594 N 0.09332 0.52694 0.24001 0.0
C595 C 0.10361 0.5691 0.25346 0.0
C596 C 0.08737 0.54214 0.23298 0.0
C597 C 0.10437 0.53263 0.25369 0.0
C598 C 0.10922 0.59203 0.26082 0.0
C599 C 0.11579 0.59596 0.27606 0.0
C600 C 0.12108 0.61757 0.28303 0.0
C601 C 0.12014 0.63579 0.27489 0.0
C602 C 0.11367 0.63197 0.25966 0.0
C603 C 0.10814 0.61025 0.2527 0.0
C604 C 0.075 0.53577 0.21816 0.0
C605 C 0.07102 0.55251 0.2103 0.0
C606 C 0.05911 0.54651 0.19642 0.0
C607 C 0.05077 0.52359 0.19009 0.0
C608 C 0.05481 0.50686 0.1979 0.0
C609 C 0.06682 0.51289 0.21177 0.0
C610 C 0.11103 0.51617 0.2613 0.0
C611 C 0.10882 0.4958 0.25385 0.0
C612 C 0.52036 0.62641 0.26271 0.0
C613 C 0.51655 0.6326 0.27717 0.0
C614 C 0.49489 0.61657 0.28479 0.0
C615 C 0.47743 0.59486 0.27809 0.0
H616 H 0.421 0.51677 0.28622 0.0
H617 H 0.38458 0.4873 0.29955 0.0
H618 H 0.34102 0.47492 0.25937 0.0
H619 H 0.37802 0.50287 0.24587 0.0
H620 H 0.42173 0.49906 0.2183 0.0
H621 H 0.43125 0.48968 0.19355 0.0
H622 H 0.4963 0.56016 0.19181 0.0
H623 H 0.48719 0.56942 0.21654 0.0
H624 H 0.5065 0.60076 0.24481 0.0
H625 H 0.5367 0.63849 0.25647 0.0
H626 H 0.49154 0.6207 0.29601 0.0
H627 H 0.46098 0.58297 0.2843 0.0
N628 N 0.44194 0.54985 0.2637 0.0
N629 N 0.42829 0.52463 0.24246 0.0
N630 N 0.46594 0.56091 0.24198 0.0
C631 C 0.4247 0.52926 0.25684 0.0
C632 C 0.44902 0.54035 0.23498 0.0
C633 C 0.46256 0.5659 0.25628 0.0
C634 C 0.40233 0.51196 0.26501 0.0
C635 C 0.40359 0.50762 0.28028 0.0
C636 C 0.38255 0.49083 0.28796 0.0
C637 C 0.3595 0.47847 0.28066 0.0
C638 C 0.35834 0.48339 0.26539 0.0
C639 C 0.37955 0.49962 0.25762 0.0
C640 C 0.45375 0.53495 0.21953 0.0
C641 C 0.43801 0.51262 0.21262 0.0
C642 C 0.4434 0.50726 0.19839 0.0
C643 C 0.46466 0.52409 0.19074 0.0
C644 C 0.48004 0.5466 0.1975 0.0
C645 C 0.47469 0.55194 0.21169 0.0
C646 C 0.48119 0.58871 0.26359 0.0
C647 C 0.50291 0.60478 0.256 0.0
Tb648 Tb 0.49369 0.9823 0.98788 0.0
C649 C 0.54277 0.07335 0.02714 0.0
C650 C 0.58588 0.0859 0.0252 0.0
C651 C 0.57342 0.11587 0.02894 0.0
C652 C 0.56091 0.0677 0.02493 0.0
C653 C 0.54872 0.09738 0.02971 0.0
C654 C 0.59201 0.11013 0.02668 0.0
C655 C 0.50601 0.08254 0.03566 0.0
N656 N 0.51934 0.05488 0.02811 0.0
C657 C 0.50114 0.05899 0.03307 0.0
C658 C 0.52983 0.10189 0.03367 0.0
Tb659 Tb 0.51246 0.01698 0.02275 0.0
N660 N 0.55407 0.04407 0.02387 0.0
C661 C 0.5716 0.03732 0.02444 0.0
C662 C 0.60384 0.0791 0.02474 0.0
C663 C 0.59666 0.05468 0.02465 0.0
H664 H 0.48262 0.04416 0.03449 0.0
H665 H 0.6104 0.04918 0.02467 0.0
H666 H 0.61108 0.12442 0.02669 0.0
H667 H 0.49137 0.08575 0.03913 0.0
H668 H 0.56656 0.0186 0.02424 0.0
H669 H 0.39604 0.94974 0.98311 0.0
H670 H 0.62323 0.09249 0.02505 0.0
H671 H 0.52557 0.95472 0.981 0.0
H672 H 0.4398 0.98058 0.98493 0.0
H673 H 0.51722 0.91299 0.97792 0.0
H674 H 0.5784 0.13452 0.03067 0.0
H675 H 0.38356 0.90652 0.98254 0.0
H676 H 0.39604 0.87479 0.98214 0.0
H677 H 0.53359 0.1201 0.03576 0.0
H678 H 0.4291 0.86473 0.98071 0.0
N679 N 0.45238 0.95521 0.98577 0.0
C680 C 0.43482 0.96185 0.98466 0.0
C681 C 0.40288 0.91999 0.98342 0.0
C682 C 0.42097 0.91334 0.98379 0.0
C683 C 0.40987 0.94437 0.98364 0.0
C684 C 0.44585 0.93163 0.98477 0.0
H685 H 0.47442 0.87891 0.97889 0.0
N686 N 0.4879 0.94437 0.9841 0.0
C687 C 0.50216 0.91639 0.97965 0.0
C688 C 0.46428 0.92598 0.98389 0.0
C689 C 0.50681 0.94003 0.98136 0.0
C690 C 0.47798 0.89719 0.98024 0.0
C691 C 0.45862 0.90188 0.98212 0.0
O692 O 0.51431 0.9894 0.96814 0.0
O693 O 0.52117 0.01344 0.99989 0.0
O694 O 0.50553 0.03878 0.00682 0.0
O695 O 0.48275 0.01008 0.98816 0.0
O696 O 0.53338 0.99607 0.98634 0.0
O697 O 0.47984 0.98903 0.96803 0.0
O698 O 0.49319 0.00977 0.04313 0.0
O699 O 0.48467 0.98678 0.01038 0.0
O700 O 0.4966 0.9598 0.00501 0.0
O701 O 0.52394 0.98953 0.02147 0.0
O702 O 0.47272 0.00306 0.02491 0.0
O703 O 0.52598 0.00732 0.0415 0.0
C704 C 0.54046 0.01453 0.99493 0.0
C705 C 0.49236 0.97903 0.94536 0.0
C706 C 0.4938 0.98156 0.91792 0.0
C707 C 0.49692 0.99252 0.93215 0.0
C708 C 0.48575 0.95668 0.91736 0.0
C709 C 0.48381 0.95427 0.9444 0.0
C710 C 0.48053 0.9432 0.93047 0.0
C711 C 0.49134 0.03151 0.99467 0.0
C712 C 0.49821 0.99139 0.95999 0.0
C713 C 0.43387 0.88341 0.9819 0.0
C714 C 0.41506 0.88914 0.98272 0.0
C715 C 0.46542 0.98554 0.01552 0.0
C716 C 0.51721 0.01804 0.06504 0.0
C717 C 0.50962 0.00431 0.07824 0.0
C718 C 0.51744 0.01552 0.0924 0.0
C719 C 0.53278 0.04074 0.09303 0.0
C720 C 0.53267 0.04308 0.06599 0.0
C721 C 0.54033 0.05433 0.07992 0.0
C722 C 0.51267 0.96714 0.01616 0.0
C723 C 0.50894 0.00601 0.05037 0.0
H724 H 0.50301 0.01156 0.93306 0.0
H725 H 0.48388 0.94753 0.90682 0.0
H726 H 0.48011 0.94356 0.95438 0.0
H727 H 0.47432 0.92412 0.92982 0.0
H728 H 0.49796 0.98491 0.07746 0.0
H729 H 0.53878 0.05005 0.10368 0.0
H730 H 0.53884 0.05391 0.05598 0.0
H731 H 0.55215 0.0737 0.08057 0.0
Tb732 Tb 0.0218 0.50704 0.98704 0.0
C733 C 0.92436 0.4671 0.02121 0.0
C734 C 0.91421 0.49876 0.01993 0.0
C735 C 0.88156 0.45707 0.02211 0.0
C736 C 0.93171 0.49109 0.01964 0.0
C737 C 0.89927 0.44981 0.02291 0.0
C738 C 0.88904 0.48157 0.0207 0.0
C739 C 0.91146 0.42043 0.02854 0.0
N740 N 0.94212 0.4611 0.02258 0.0
C741 C 0.93612 0.43841 0.02707 0.0
C742 C 0.8929 0.42605 0.02618 0.0
Tb743 Tb 0.98208 0.4913 0.01955 0.0
N744 N 0.9562 0.50706 0.01914 0.0
C745 C 0.96441 0.53129 0.0197 0.0
C746 C 0.92259 0.52348 0.02016 0.0
C747 C 0.9478 0.53981 0.02004 0.0
H748 H 0.95038 0.43395 0.02899 0.0
H749 H 0.95448 0.55899 0.02036 0.0
H750 H 0.87529 0.48709 0.02072 0.0
H751 H 0.90681 0.40229 0.03156 0.0
H752 H 0.98377 0.54435 0.01971 0.0
H753 H 0.05032 0.44017 0.98463 0.0
H754 H 0.90982 0.53014 0.02092 0.0
H755 H 0.05341 0.56605 0.98138 0.0
H756 H 0.02056 0.45435 0.98571 0.0
H757 H 0.09699 0.59812 0.98001 0.0
H758 H 0.86215 0.44404 0.02322 0.0
H759 H 0.09492 0.46946 0.98452 0.0
H760 H 0.12907 0.51267 0.98554 0.0
H761 H 0.87383 0.41219 0.02754 0.0
H762 H 0.14186 0.5558 0.98469 0.0
N763 N 0.04788 0.49164 0.9868 0.0
C764 C 0.03991 0.46751 0.98584 0.0
C765 C 0.08194 0.47587 0.98534 0.0
C766 C 0.09004 0.50053 0.98603 0.0
C767 C 0.05677 0.4593 0.98525 0.0
C768 C 0.07232 0.5079 0.98653 0.0
H769 H 0.12999 0.58787 0.98245 0.0
N770 N 0.06165 0.53803 0.98518 0.0
C771 C 0.09233 0.5796 0.98171 0.0
C772 C 0.07949 0.53201 0.98587 0.0
C773 C 0.06765 0.56137 0.98245 0.0
C774 C 0.1109 0.57375 0.98315 0.0
C775 C 0.10459 0.54964 0.98493 0.0
O776 O 0.02103 0.52234 0.96639 0.0
O777 O 0.98889 0.50386 0.99677 0.0
O778 O 0.9611 0.4637 1.00271 0.0
O779 O 0.9923 0.46894 0.98605 0.0
O780 O 0.00915 0.53305 0.98368 0.0
O781 O 0.01454 0.48599 0.96757 0.0
O782 O 0.98468 0.47759 0.04044 0.0
O783 O 0.01439 0.49366 0.00954 0.0
O784 O 0.04311 0.53168 0.00507 0.0
O785 O 0.01147 0.5296 0.01971 0.0
O786 O 0.9948 0.46534 0.0233 0.0
O787 O 0.98978 0.51328 0.03863 0.0
C788 C 0.98913 0.52201 0.99122 0.0
C789 C 0.03211 0.50755 0.94538 0.0
C790 C 0.03466 0.50648 0.91816 0.0
C791 C 0.0207 0.50226 0.93126 0.0
C792 C 0.06023 0.51599 0.9194 0.0
C793 C 0.0576 0.51692 0.94639 0.0
C794 C 0.07156 0.52111 0.93345 0.0
C795 C 0.96956 0.45658 0.99137 0.0
C796 C 0.01707 0.50331 0.95882 0.0
C797 C 0.12244 0.54253 0.98526 0.0
C798 C 0.11517 0.51798 0.98573 0.0
C799 C 0.01426 0.47562 0.01521 0.0
C800 C 0.97304 0.49239 0.06112 0.0
C801 C 0.98394 0.49536 0.07525 0.0
C802 C 0.96997 0.49118 0.08834 0.0
C803 C 0.94484 0.48383 0.08708 0.0
C804 C 0.94802 0.48533 0.06007 0.0
C805 C 0.93399 0.48098 0.073 0.0
C806 C 0.03491 0.54033 0.01563 0.0
C807 C 0.98809 0.49666 0.04769 0.0
H808 H 1.00101 0.49519 0.93049 0.0
H809 H 0.0714 0.51921 0.90951 0.0
H810 H 0.06672 0.52104 0.9571 0.0
H811 H 0.09123 0.52834 0.93432 0.0
H812 H 0.00327 0.50073 0.07605 0.0
H813 H 0.9337 0.4807 0.09697 0.0
H814 H 0.93935 0.48323 0.04933 0.0
H815 H 0.91469 0.47552 0.0721 0.0
Tb816 Tb 0.51185 0.4898 0.02142 0.0
C817 C 0.46441 0.53764 0.98602 0.0
C818 C 0.42095 0.50843 0.98575 0.0
C819 C 0.43455 0.55123 0.98519 0.0
C820 C 0.44571 0.51405 0.98648 0.0
C821 C 0.45916 0.55657 0.98509 0.0
C822 C 0.41545 0.52717 0.98548 0.0
C823 C 0.50279 0.58426 0.98265 0.0
N824 N 0.48784 0.54192 0.98573 0.0
C825 C 0.507 0.5648 0.98346 0.0
C826 C 0.47878 0.58017 0.98365 0.0
Tb827 Tb 0.4931 0.50914 0.98818 0.0
N828 N 0.45188 0.49658 0.98666 0.0
C829 C 0.434 0.47293 0.98506 0.0
C830 C 0.40258 0.48421 0.98477 0.0
C831 C 0.40916 0.4664 0.98427 0.0
H832 H 0.52564 0.56819 0.98281 0.0
H833 H 0.3951 0.44761 0.9833 0.0
H834 H 0.39653 0.52323 0.98511 0.0
H835 H 0.51807 0.6024 0.98128 0.0
H836 H 0.43862 0.45884 0.98472 0.0
H837 H 0.61006 0.5506 0.02602 0.0
H838 H 0.38336 0.47913 0.98396 0.0
H839 H 0.47882 0.43066 0.0266 0.0
H840 H 0.56664 0.53978 0.02481 0.0
H841 H 0.486 0.39621 0.02792 0.0
H842 H 0.43009 0.56552 0.98463 0.0
H843 H 0.62138 0.51877 0.02519 0.0
H844 H 0.60775 0.47457 0.02407 0.0
H845 H 0.47556 0.59525 0.98297 0.0
H846 H 0.5739 0.43241 0.02456 0.0
N847 N 0.553 0.50197 0.02292 0.0
C848 C 0.57106 0.52556 0.02445 0.0
C849 C 0.60219 0.51387 0.02453 0.0
C850 C 0.58363 0.48972 0.02364 0.0
C851 C 0.59585 0.53185 0.02511 0.0
C852 C 0.55894 0.48433 0.02305 0.0
H853 H 0.52836 0.40298 0.02621 0.0
N854 N 0.51672 0.45676 0.02381 0.0
C855 C 0.50139 0.4143 0.02664 0.0
C856 C 0.54008 0.46082 0.02351 0.0
C857 C 0.49741 0.43391 0.02595 0.0
C858 C 0.52532 0.41819 0.02564 0.0
C859 C 0.54509 0.44172 0.02431 0.0
O860 O 0.49281 0.47535 0.04153 0.0
O861 O 0.48412 0.49469 0.0104 0.0
O862 O 0.49736 0.53375 0.00633 0.0
O863 O 0.5243 0.52873 0.02196 0.0
O864 O 0.47193 0.46511 0.02338 0.0
O865 O 0.52552 0.51038 0.04114 0.0
O866 O 0.51206 0.52382 0.96808 0.0
O867 O 0.52082 0.50441 0.99926 0.0
O868 O 0.50817 0.46561 0.00322 0.0
O869 O 0.48105 0.47024 0.98754 0.0
O870 O 0.53304 0.53376 0.9861 0.0
O871 O 0.4797 0.48853 0.96846 0.0
C872 C 0.46475 0.47683 0.01515 0.0
C873 C 0.51661 0.48835 0.0636 0.0
C874 C 0.51531 0.48739 0.09095 0.0
C875 C 0.50811 0.49261 0.07716 0.0
C876 C 0.53118 0.4778 0.0909 0.0
C877 C 0.53244 0.47883 0.06379 0.0
C878 C 0.53966 0.47358 0.0774 0.0
C879 C 0.51362 0.54102 0.01739 0.0
C880 C 0.5085 0.49379 0.04946 0.0
C881 C 0.56963 0.44683 0.02411 0.0
C882 C 0.58889 0.47082 0.02381 0.0
C883 C 0.54022 0.52213 0.99442 0.0
C884 C 0.48828 0.51052 0.94599 0.0
C885 C 0.49695 0.50647 0.93244 0.0
C886 C 0.48955 0.51147 0.91865 0.0
C887 C 0.47331 0.52063 0.9187 0.0
C888 C 0.47209 0.51961 0.94581 0.0
C889 C 0.46467 0.52464 0.9322 0.0
C890 C 0.49215 0.4583 0.99204 0.0
C891 C 0.49657 0.50528 0.96014 0.0
H892 H 0.49564 0.49971 0.07694 0.0
H893 H 0.53732 0.47387 0.1013 0.0
H894 H 0.53919 0.47548 0.05346 0.0
H895 H 0.55193 0.46629 0.07749 0.0
H896 H 0.50969 0.49969 0.93265 0.0
H897 H 0.46699 0.52438 0.9083 0.0
H898 H 0.4652 0.52278 0.95614 0.0
H899 H 0.4521 0.5316 0.93211 0.0
Tb900 Tb 0.1577 0.3146 0.31941 0.0
C901 C 0.21078 0.40539 0.35794 0.0
C902 C 0.25342 0.41559 0.35763 0.0
C903 C 0.24306 0.44733 0.35971 0.0
C904 C 0.22815 0.39835 0.35683 0.0
C905 C 0.21792 0.42989 0.3597 0.0
C906 C 0.2608 0.44019 0.35871 0.0
C907 C 0.175 0.41776 0.36269 0.0
N908 N 0.18677 0.38794 0.35805 0.0
C909 C 0.16888 0.39366 0.36104 0.0
C910 C 0.19961 0.43599 0.36182 0.0
Tb911 Tb 0.17843 0.34916 0.35417 0.0
N912 N 0.2202 0.37444 0.35587 0.0
C913 C 0.23671 0.36644 0.35679 0.0
C914 C 0.27042 0.40753 0.35783 0.0
C915 C 0.262 0.38284 0.35762 0.0
H916 H 0.1498 0.3797 0.36159 0.0
H917 H 0.27498 0.37639 0.35802 0.0
H918 H 0.28014 0.45374 0.35917 0.0
H919 H 0.16073 0.42225 0.36461 0.0
H920 H 0.23063 0.34745 0.35653 0.0
H921 H 0.06049 0.28583 0.31819 0.0
H922 H 0.28999 0.42017 0.35859 0.0
H923 H 0.18608 0.28601 0.30757 0.0
H924 H 0.10463 0.31519 0.31902 0.0
H925 H 0.17575 0.24421 0.30204 0.0
H926 H 0.24896 0.4663 0.3609 0.0
H927 H 0.04611 0.24227 0.31623 0.0
H928 H 0.05663 0.20933 0.31354 0.0
H929 H 0.20431 0.45463 0.36316 0.0
H930 H 0.08821 0.19785 0.30918 0.0
N931 N 0.11583 0.28873 0.31819 0.0
C932 C 0.09895 0.29634 0.31821 0.0
C933 C 0.06565 0.2551 0.31679 0.0
C934 C 0.08294 0.24747 0.31587 0.0
C935 C 0.0737 0.27968 0.31777 0.0
C936 C 0.10815 0.26499 0.31644 0.0
H937 H 0.13277 0.21086 0.30448 0.0
N938 N 0.14948 0.27642 0.31353 0.0
C939 C 0.16148 0.24796 0.3055 0.0
C940 C 0.1257 0.25857 0.31404 0.0
C941 C 0.16725 0.27166 0.30862 0.0
C942 C 0.13723 0.22917 0.30696 0.0
C943 C 0.11886 0.23442 0.31095 0.0
O944 O 0.17692 0.32185 0.29901 0.0
O945 O 0.18657 0.3444 0.33155 0.0
O946 O 0.17612 0.37221 0.33714 0.0
O947 O 0.14749 0.34287 0.32105 0.0
O948 O 0.19714 0.32693 0.31709 0.0
O949 O 0.14457 0.32505 0.30084 0.0
O950 O 0.15976 0.34506 0.37448 0.0
O951 O 0.14967 0.31861 0.34239 0.0
O952 O 0.16295 0.29153 0.33522 0.0
O953 O 0.18725 0.31987 0.35366 0.0
O954 O 0.13916 0.33701 0.3563 0.0
O955 O 0.19095 0.33967 0.37343 0.0
C956 C 0.20533 0.34476 0.32631 0.0
C957 C 0.15326 0.31487 0.27709 0.0
C958 C 0.15509 0.31829 0.24977 0.0
C959 C 0.16248 0.32891 0.26409 0.0
C960 C 0.13824 0.29339 0.24874 0.0
C961 C 0.13643 0.29015 0.27577 0.0
C962 C 0.129 0.2795 0.26165 0.0
C963 C 0.15981 0.36534 0.32615 0.0
C964 C 0.16151 0.32627 0.29192 0.0
C965 C 0.09387 0.21658 0.31132 0.0
C966 C 0.0759 0.22311 0.31378 0.0
C967 C 0.131 0.31843 0.3477 0.0
C968 C 0.1832 0.35244 0.39659 0.0
C969 C 0.17569 0.33885 0.40985 0.0
C970 C 0.1837 0.35015 0.42396 0.0
C971 C 0.1993 0.37534 0.42449 0.0
C972 C 0.19884 0.37745 0.39743 0.0
C973 C 0.2068 0.38881 0.41132 0.0
C974 C 0.17726 0.29817 0.34731 0.0
C975 C 0.17449 0.34018 0.38204 0.0
H976 H 0.17562 0.34801 0.26514 0.0
H977 H 0.13189 0.2847 0.23794 0.0
H978 H 0.12902 0.2791 0.28561 0.0
H979 H 0.11595 0.2604 0.2607 0.0
H980 H 0.16387 0.31946 0.40913 0.0
H981 H 0.20548 0.38473 0.4351 0.0
H982 H 0.20485 0.38818 0.38738 0.0
H983 H 0.21877 0.40815 0.41189 0.0
Tb984 Tb 0.69009 0.84011 0.32412 0.0
C985 C 0.591 0.79495 0.35474 0.0
C986 C 0.57951 0.82571 0.35431 0.0
C987 C 0.54778 0.78344 0.35367 0.0
C988 C 0.59767 0.81889 0.35438 0.0
C989 C 0.566 0.77687 0.35479 0.0
C990 C 0.55454 0.80787 0.35351 0.0
C991 C 0.57888 0.74767 0.35933 0.0
N992 N 0.60914 0.78951 0.35639 0.0
C993 C 0.60339 0.76637 0.35955 0.0
C994 C 0.56009 0.75289 0.35669 0.0
Tb995 Tb 0.64892 0.82102 0.35569 0.0
N996 N 0.62196 0.83548 0.35529 0.0
C997 C 0.62922 0.85937 0.35705 0.0
C998 C 0.58695 0.85015 0.3557 0.0
C999 C 0.61191 0.86705 0.35709 0.0
H1000 H 0.61782 0.76225 0.36173 0.0
H1001 H 0.61785 0.886 0.35833 0.0
H1002 H 0.54032 0.81276 0.35322 0.0
H1003 H 0.57451 0.72929 0.36128 0.0
H1004 H 0.64837 0.87279 0.35821 0.0
H1005 H 0.71568 0.7705 0.31883 0.0
H1006 H 0.57357 0.8561 0.35618 0.0
H1007 H 0.72429 0.89983 0.32071 0.0
H1008 H 0.68688 0.78505 0.32008 0.0
H1009 H 0.76839 0.93042 0.32078 0.0
H1010 H 0.52845 0.76983 0.35353 0.0
H1011 H 0.76033 0.79877 0.32016 0.0
H1012 H 0.79506 0.8411 0.32264 0.0
H1013 H 0.5411 0.73843 0.35672 0.0
H1014 H 0.80943 0.88445 0.32365 0.0
N1015 N 0.71438 0.82245 0.32286 0.0
C1016 C 0.70606 0.79829 0.32091 0.0
C1017 C 0.74769 0.80561 0.32102 0.0
C1018 C 0.75632 0.83025 0.32254 0.0
C1019 C 0.72251 0.78962 0.32016 0.0
C1020 C 0.73909 0.83831 0.32321 0.0
H1021 H 0.79968 0.91787 0.32284 0.0
N1022 N 0.73043 0.87014 0.32332 0.0
C1023 C 0.76273 0.9115 0.32165 0.0
C1024 C 0.74733 0.86284 0.32363 0.0
C1025 C 0.73776 0.89409 0.32157 0.0
C1026 C 0.78032 0.90434 0.32286 0.0
C1027 C 0.77276 0.87978 0.32353 0.0
O1028 O 0.66722 0.82781 0.30496 0.0
O1029 O 0.65726 0.83709 0.33374 0.0
O1030 O 0.62992 0.79589 0.33732 0.0
O1031 O 0.66279 0.80155 0.32212 0.0
O1032 O 0.68015 0.86843 0.3233 0.0
O1033 O 0.70564 0.85302 0.30292 0.0
O1034 O 0.64846 0.80451 0.37611 0.0
O1035 O 0.68256 0.82535 0.34625 0.0
O1036 O 0.70937 0.86469 0.34269 0.0
O1037 O 0.6775 0.85926 0.35845 0.0
O1038 O 0.66263 0.79566 0.35886 0.0
O1039 O 0.65433 0.84062 0.37562 0.0
C1040 C 0.65898 0.85661 0.32955 0.0
C1041 C 0.67902 0.85637 0.28564 0.0
C1042 C 0.66291 0.85993 0.2615 0.0
C1043 C 0.66804 0.84641 0.27178 0.0
C1044 C 0.66804 0.88323 0.26552 0.0
C1045 C 0.68485 0.88004 0.28921 0.0
C1046 C 0.67894 0.89317 0.2793 0.0
C1047 C 0.63954 0.78904 0.32653 0.0
C1048 C 0.68468 0.84192 0.29598 0.0
C1049 C 0.78983 0.87172 0.32359 0.0
C1050 C 0.78164 0.84702 0.32302 0.0
C1051 C 0.68262 0.80712 0.35134 0.0
C1052 C 0.63483 0.81735 0.3969 0.0
C1053 C 0.6449 0.82206 0.41136 0.0
C1054 C 0.62974 0.81715 0.42396 0.0
C1055 C 0.60427 0.80734 0.42187 0.0
C1056 C 0.60943 0.80772 0.39501 0.0
C1057 C 0.59423 0.8027 0.40745 0.0
C1058 C 0.70072 0.87149 0.35402 0.0
C1059 C 0.65128 0.82281 0.38404 0.0
H1060 H 0.66426 0.82844 0.26882 0.0
H1061 H 0.66385 0.89386 0.25794 0.0
H1062 H 0.69426 0.88861 0.29948 0.0
H1063 H 0.68319 0.91127 0.28222 0.0
H1064 H 0.66454 0.82933 0.41278 0.0
H1065 H 0.59219 0.80357 0.43136 0.0
H1066 H 0.60132 0.8041 0.384 0.0
H1067 H 0.57463 0.79528 0.40592 0.0
Tb1068 Tb 0.18168 0.82485 0.3548 0.0
C1069 C 0.1335 0.87104 0.31835 0.0
C1070 C 0.09012 0.84199 0.31987 0.0
C1071 C 0.10359 0.88456 0.31721 0.0
C1072 C 0.11491 0.84764 0.3201 0.0
C1073 C 0.12812 0.88975 0.31639 0.0
C1074 C 0.08458 0.86067 0.31894 0.0
C1075 C 0.17104 0.91635 0.31076 0.0
N1076 N 0.15679 0.8751 0.31726 0.0
C1077 C 0.17534 0.89709 0.31269 0.0
C1078 C 0.14741 0.91279 0.31292 0.0
Tb1079 Tb 0.16249 0.84289 0.32121 0.0
N1080 N 0.12111 0.83021 0.32068 0.0
C1081 C 0.10313 0.80647 0.31983 0.0
C1082 C 0.0717 0.81775 0.31983 0.0
C1083 C 0.07825 0.79991 0.31961 0.0
H1084 H 0.19367 0.90003 0.31101 0.0
H1085 H 0.06415 0.78108 0.31926 0.0
H1086 H 0.06565 0.85673 0.31897 0.0
H1087 H 0.18596 0.93392 0.30762 0.0
H1088 H 0.10771 0.79235 0.31968 0.0
H1089 H 0.27942 0.88824 0.35853 0.0
H1090 H 0.05244 0.81262 0.31939 0.0
H1091 H 0.15021 0.76601 0.36095 0.0
H1092 H 0.23565 0.87609 0.35713 0.0
H1093 H 0.15878 0.73251 0.36338 0.0
H1094 H 0.09907 0.89871 0.31593 0.0
H1095 H 0.29204 0.85736 0.35897 0.0
H1096 H 0.27978 0.81347 0.35892 0.0
H1097 H 0.14408 0.92768 0.31132 0.0
H1098 H 0.24688 0.77096 0.36011 0.0
N1099 N 0.22311 0.83839 0.35627 0.0
C1100 C 0.24065 0.86226 0.35726 0.0
C1101 C 0.2727 0.85184 0.35817 0.0
C1102 C 0.25469 0.82745 0.35776 0.0
C1103 C 0.26563 0.86932 0.35804 0.0
C1104 C 0.22976 0.82128 0.35699 0.0
H1105 H 0.20163 0.74057 0.362 0.0
N1106 N 0.18779 0.7927 0.35781 0.0
C1107 C 0.17377 0.75072 0.36174 0.0
C1108 C 0.21142 0.79753 0.35772 0.0
C1109 C 0.16899 0.76976 0.36041 0.0
C1110 C 0.19797 0.75533 0.36091 0.0
C1111 C 0.21722 0.77903 0.35915 0.0
O1112 O 0.16269 0.81019 0.37491 0.0
O1113 O 0.15393 0.82982 0.34384 0.0
O1114 O 0.16962 0.87063 0.33786 0.0
O1115 O 0.19285 0.86342 0.35562 0.0
O1116 O 0.14192 0.80006 0.35678 0.0
O1117 O 0.19523 0.84538 0.37454 0.0
O1118 O 0.18218 0.85428 0.30104 0.0
O1119 O 0.1904 0.83836 0.33235 0.0
O1120 O 0.17744 0.79964 0.33709 0.0
O1121 O 0.15028 0.80401 0.32136 0.0
O1122 O 0.20225 0.86759 0.31896 0.0
O1123 O 0.14654 0.8224 0.30162 0.0
C1124 C 0.13467 0.81199 0.3488 0.0
C1125 C 0.18641 0.8234 0.39703 0.0
C1126 C 0.18507 0.82257 0.42438 0.0
C1127 C 0.17769 0.82748 0.41055 0.0
C1128 C 0.20133 0.81342 0.42439 0.0
C1129 C 0.20266 0.81438 0.39729 0.0
C1130 C 0.21003 0.80939 0.41092 0.0
C1131 C 0.18416 0.87675 0.34979 0.0
C1132 C 0.17825 0.8287 0.38285 0.0
C1133 C 0.242 0.78491 0.35918 0.0
C1134 C 0.26073 0.80911 0.35852 0.0
C1135 C 0.20966 0.85615 0.32732 0.0
C1136 C 0.15876 0.84414 0.27892 0.0
C1137 C 0.16497 0.83711 0.26548 0.0
C1138 C 0.1617 0.84556 0.25156 0.0
C1139 C 0.15173 0.86101 0.25151 0.0
C1140 C 0.14824 0.85894 0.27851 0.0
C1141 C 0.14478 0.86733 0.26486 0.0
C1142 C 0.16125 0.79205 0.326 0.0
C1143 C 0.16482 0.837 0.29321 0.0
H1144 H 0.16541 0.83481 0.41029 0.0
H1145 H 0.20712 0.80914 0.4348 0.0
H1146 H 0.20964 0.81122 0.38701 0.0
H1147 H 0.22252 0.80234 0.41106 0.0
H1148 H 0.1724 0.82508 0.26598 0.0
H1149 H 0.14957 0.8686 0.24121 0.0
H1150 H 0.14301 0.86427 0.28869 0.0
H1151 H 0.13703 0.87909 0.26463 0.0
Tb1152 Tb 0.82703 0.64848 0.65415 0.0
C1153 C 0.8781 0.7396 0.69384 0.0
C1154 C 0.92108 0.7516 0.69193 0.0
C1155 C 0.90924 0.78189 0.69623 0.0
C1156 C 0.89601 0.73366 0.69151 0.0
C1157 C 0.88441 0.76366 0.69672 0.0
C1158 C 0.92759 0.77586 0.69383 0.0
C1159 C 0.84164 0.74933 0.7022 0.0
N1160 N 0.85449 0.72139 0.69446 0.0
C1161 C 0.83641 0.72574 0.69932 0.0
C1162 C 0.86569 0.76846 0.70062 0.0
Tb1163 Tb 0.84711 0.6834 0.68881 0.0
N1164 N 0.88884 0.71001 0.6899 0.0
C1165 C 0.90615 0.70294 0.68988 0.0
C1166 C 0.93879 0.7445 0.69102 0.0
C1167 C 0.93127 0.72003 0.69019 0.0
H1168 H 0.81773 0.71111 0.70048 0.0
H1169 H 0.94482 0.71429 0.68978 0.0
H1170 H 0.94674 0.78995 0.69396 0.0
H1171 H 0.8271 0.75274 0.7056 0.0
H1172 H 0.90089 0.68419 0.68917 0.0
H1173 H 0.72978 0.61844 0.65042 0.0
H1174 H 0.95824 0.75766 0.69147 0.0
H1175 H 0.85717 0.61948 0.64655 0.0
H1176 H 0.77385 0.64837 0.65175 0.0
H1177 H 0.84755 0.57733 0.64342 0.0
H1178 H 0.91449 0.80056 0.69821 0.0
H1179 H 0.71606 0.57492 0.64996 0.0
H1180 H 0.72727 0.54229 0.64933 0.0
H1181 H 0.86972 0.78669 0.70293 0.0
H1182 H 0.75941 0.53103 0.6474 0.0
N1183 N 0.78543 0.62223 0.65243 0.0
C1184 C 0.76835 0.62952 0.65152 0.0
C1185 C 0.73552 0.588 0.65063 0.0
C1186 C 0.75309 0.58067 0.65077 0.0
C1187 C 0.74321 0.61255 0.65079 0.0
C1188 C 0.77818 0.59848 0.65148 0.0
H1189 H 0.8044 0.54403 0.64493 0.0
N1190 N 0.81988 0.61012 0.65016 0.0
C1191 C 0.83289 0.58125 0.6454 0.0
C1192 C 0.79609 0.59216 0.65029 0.0
C1193 C 0.83826 0.60512 0.64712 0.0
C1194 C 0.80852 0.56249 0.6463 0.0
C1195 C 0.78969 0.56786 0.64851 0.0
O1196 O 0.84603 0.65337 0.63388 0.0
O1197 O 0.85527 0.67955 0.66585 0.0
O1198 O 0.84073 0.70566 0.67297 0.0
O1199 O 0.81691 0.67682 0.65464 0.0
O1200 O 0.86651 0.66162 0.65205 0.0
O1201 O 0.81405 0.6575 0.63489 0.0
O1202 O 0.8278 0.67589 0.70918 0.0
O1203 O 0.81871 0.65308 0.67677 0.0
O1204 O 0.83025 0.62593 0.67119 0.0
O1205 O 0.85824 0.65581 0.6873 0.0
O1206 O 0.80753 0.67024 0.69113 0.0
O1207 O 0.8608 0.6738 0.70749 0.0
C1208 C 0.87421 0.68026 0.66055 0.0
C1209 C 0.82287 0.64586 0.61164 0.0
C1210 C 0.82323 0.64887 0.58429 0.0
C1211 C 0.83053 0.65983 0.59853 0.0
C1212 C 0.80816 0.62362 0.58347 0.0
C1213 C 0.80776 0.62081 0.61053 0.0
C1214 C 0.80049 0.60978 0.5965 0.0
C1215 C 0.82625 0.69847 0.66096 0.0
C1216 C 0.83097 0.65779 0.62632 0.0
C1217 C 0.76475 0.54986 0.64859 0.0
C1218 C 0.74645 0.55627 0.6497 0.0
C1219 C 0.79973 0.65234 0.68199 0.0
C1220 C 0.85152 0.68373 0.73114 0.0
C1221 C 0.84298 0.66962 0.74415 0.0
C1222 C 0.85024 0.68032 0.75846 0.0
C1223 C 0.86606 0.70543 0.75945 0.0
C1224 C 0.8674 0.70865 0.73243 0.0
C1225 C 0.87457 0.71942 0.74653 0.0
C1226 C 0.84659 0.63332 0.6822 0.0
C1227 C 0.84359 0.67213 0.71636 0.0
H1228 H 0.84193 0.67925 0.59948 0.0
H1229 H 0.80254 0.61448 0.57275 0.0
H1230 H 0.80166 0.60979 0.62047 0.0
H1231 H 0.78893 0.5904 0.5957 0.0
H1232 H 0.83098 0.6503 0.74308 0.0
H1233 H 0.87168 0.71436 0.77024 0.0
H1234 H 0.87426 0.71976 0.72257 0.0
H1235 H 0.88673 0.7387 0.74745 0.0
Tb1236 Tb 0.35629 0.17583 0.65509 0.0
C1237 C 0.25752 0.13234 0.6878 0.0
C1238 C 0.24585 0.16294 0.68647 0.0
C1239 C 0.21424 0.12075 0.68809 0.0
C1240 C 0.26405 0.15617 0.68644 0.0
C1241 C 0.23259 0.11436 0.68912 0.0
C1242 C 0.22088 0.14506 0.68683 0.0
C1243 C 0.24606 0.08598 0.69494 0.0
N1244 N 0.27583 0.12713 0.68937 0.0
C1245 C 0.27051 0.10461 0.69383 0.0
C1246 C 0.22698 0.09078 0.69229 0.0
Tb1247 Tb 0.31539 0.15848 0.68703 0.0
N1248 N 0.28836 0.17285 0.68627 0.0
C1249 C 0.29567 0.19688 0.68692 0.0
C1250 C 0.25331 0.18747 0.68682 0.0
C1251 C 0.27833 0.2045 0.68704 0.0
H1252 H 0.28516 0.1008 0.69602 0.0
H1253 H 0.28429 0.22354 0.68743 0.0
H1254 H 0.20661 0.14989 0.68664 0.0
H1255 H 0.24197 0.068 0.69793 0.0
H1256 H 0.31487 0.21043 0.68718 0.0
H1257 H 0.38607 0.10988 0.65326 0.0
H1258 H 0.23995 0.19342 0.68739 0.0
H1259 H 0.38747 0.23492 0.64975 0.0
H1260 H 0.35585 0.12352 0.65378 0.0
H1261 H 0.43096 0.26741 0.64907 0.0
H1262 H 0.19496 0.10718 0.6889 0.0
H1263 H 0.43055 0.13958 0.65392 0.0
H1264 H 0.46426 0.18294 0.65544 0.0
H1265 H 0.20807 0.07641 0.69336 0.0
H1266 H 0.47654 0.22595 0.65473 0.0
N1267 N 0.38276 0.16089 0.6553 0.0
C1268 C 0.37513 0.13684 0.65423 0.0
C1269 C 0.41735 0.14574 0.65449 0.0
C1270 C 0.42511 0.17032 0.65527 0.0
C1271 C 0.39225 0.12894 0.65396 0.0
C1272 C 0.40715 0.17739 0.65546 0.0
H1273 H 0.46423 0.25766 0.65218 0.0
N1274 N 0.39603 0.20718 0.65383 0.0
C1275 C 0.42646 0.24893 0.65075 0.0
C1276 C 0.41405 0.20144 0.65487 0.0
C1277 C 0.40185 0.23047 0.6511 0.0
C1278 C 0.44518 0.24337 0.65257 0.0
C1279 C 0.4391 0.21931 0.65433 0.0
O1280 O 0.35605 0.19169 0.63456 0.0
O1281 O 0.32271 0.17163 0.66439 0.0
O1282 O 0.29534 0.13112 0.66993 0.0
O1283 O 0.32712 0.13758 0.65339 0.0
O1284 O 0.34295 0.20129 0.65165 0.0
O1285 O 0.35066 0.15569 0.63537 0.0
O1286 O 0.3196 0.14542 0.70773 0.0
O1287 O 0.34861 0.16219 0.67752 0.0
O1288 O 0.37646 0.20049 0.67334 0.0
O1289 O 0.34398 0.19715 0.6877 0.0
O1290 O 0.32887 0.13312 0.69071 0.0
O1291 O 0.31928 0.17877 0.70651 0.0
C1292 C 0.32268 0.18969 0.65889 0.0
C1293 C 0.36901 0.17846 0.61366 0.0
C1294 C 0.37318 0.17998 0.5865 0.0
C1295 C 0.35852 0.17486 0.59935 0.0
C1296 C 0.39858 0.18885 0.58818 0.0
C1297 C 0.39432 0.18713 0.61513 0.0
C1298 C 0.40902 0.19234 0.60244 0.0
C1299 C 0.30432 0.12463 0.65855 0.0
C1300 C 0.35314 0.17319 0.6268 0.0
C1301 C 0.45716 0.21249 0.65499 0.0
C1302 C 0.45017 0.18801 0.65539 0.0
C1303 C 0.34876 0.14419 0.68303 0.0
C1304 C 0.3043 0.1559 0.72864 0.0
C1305 C 0.31544 0.16102 0.74281 0.0
C1306 C 0.30113 0.15251 0.7559 0.0
C1307 C 0.27531 0.13904 0.75442 0.0
C1308 C 0.27859 0.14305 0.7275 0.0
C1309 C 0.26419 0.13465 0.74033 0.0
C1310 C 0.36753 0.20861 0.68379 0.0
C1311 C 0.31996 0.16296 0.71529 0.0
H1312 H 0.33896 0.16833 0.59825 0.0
H1313 H 0.41027 0.19273 0.57847 0.0
H1314 H 0.40273 0.18988 0.62601 0.0
H1315 H 0.42856 0.19902 0.60365 0.0
H1316 H 0.33532 0.17164 0.74352 0.0
H1317 H 0.26359 0.13156 0.7641 0.0
H1318 H 0.26961 0.13927 0.71676 0.0
H1319 H 0.24434 0.12441 0.73934 0.0
Tb1320 Tb 0.84264 0.15966 0.68653 0.0
C1321 C 0.79242 0.19826 0.65318 0.0
C1322 C 0.74969 0.16678 0.65365 0.0
C1323 C 0.7601 0.20863 0.65537 0.0
C1324 C 0.775 0.17411 0.65313 0.0
C1325 C 0.78507 0.21582 0.65375 0.0
C1326 C 0.74241 0.18414 0.65519 0.0
C1327 C 0.82659 0.24591 0.64771 0.0
N1328 N 0.81622 0.20448 0.65091 0.0
C1329 C 0.83273 0.22778 0.64679 0.0
C1330 C 0.80277 0.24 0.65161 0.0
Tb1331 Tb 0.82479 0.17314 0.6513 0.0
N1332 N 0.78271 0.15785 0.65147 0.0
C1333 C 0.76568 0.13406 0.64901 0.0
C1334 C 0.73242 0.14234 0.65204 0.0
C1335 C 0.74047 0.12596 0.64951 0.0
H1336 H 0.85111 0.23275 0.64322 0.0
H1337 H 0.72724 0.10706 0.64781 0.0
H1338 H 0.72312 0.17887 0.65565 0.0
H1339 H 0.84017 0.26438 0.64518 0.0
H1340 H 0.77101 0.12093 0.64661 0.0
H1341 H 0.93793 0.22998 0.68494 0.0
H1342 H 0.71287 0.13603 0.65217 0.0
H1343 H 0.81729 0.10287 0.69758 0.0
H1344 H 0.89306 0.21339 0.68471 0.0
H1345 H 0.83051 0.07292 0.70207 0.0
H1346 H 0.75418 0.22186 0.65598 0.0
H1347 H 0.95494 0.20265 0.68715 0.0
H1348 H 0.94727 0.16033 0.69008 0.0
H1349 H 0.79789 0.254 0.65203 0.0
H1350 H 0.91788 0.1173 0.69418 0.0
N1351 N 0.88453 0.17689 0.68628 0.0
C1352 C 0.90014 0.20122 0.68552 0.0
C1353 C 0.9352 0.19522 0.68687 0.0
C1354 C 0.91913 0.1704 0.68813 0.0
C1355 C 0.92565 0.21072 0.68571 0.0
C1356 C 0.89359 0.16174 0.68794 0.0
H1357 H 0.87423 0.08451 0.69886 0.0
N1358 N 0.85292 0.1306 0.69107 0.0
C1359 C 0.8438 0.09102 0.69863 0.0
C1360 C 0.87716 0.13765 0.69023 0.0
C1361 C 0.83639 0.108 0.6961 0.0
C1362 C 0.86848 0.09761 0.69675 0.0
C1363 C 0.88563 0.12135 0.69289 0.0
O1364 O 0.82439 0.14687 0.70711 0.0
O1365 O 0.81466 0.16362 0.67461 0.0
O1366 O 0.85099 0.2068 0.66274 0.0
O1367 O 0.84509 0.19486 0.68747 0.0
O1368 O 0.80351 0.13361 0.68775 0.0
O1369 O 0.8582 0.18066 0.70592 0.0
O1370 O 0.84354 0.1935 0.63238 0.0
O1371 O 0.85514 0.17562 0.66467 0.0
O1372 O 0.83461 0.12964 0.6715 0.0
O1373 O 0.8113 0.13413 0.65263 0.0
O1374 O 0.85201 0.16448 0.64282 0.0
O1375 O 0.8114 0.15813 0.63004 0.0
C1376 C 0.79582 0.14511 0.67964 0.0
C1377 C 0.84918 0.15969 0.72883 0.0
C1378 C 0.84725 0.15819 0.75616 0.0
C1379 C 0.83976 0.16294 0.74233 0.0
C1380 C 0.86418 0.14985 0.75622 0.0
C1381 C 0.86625 0.15165 0.72916 0.0
C1382 C 0.87359 0.14664 0.74279 0.0
C1383 C 0.85165 0.21162 0.67718 0.0
C1384 C 0.84111 0.16513 0.71465 0.0
C1385 C 0.91099 0.12957 0.69232 0.0
C1386 C 0.92772 0.15409 0.68999 0.0
C1387 C 0.8649 0.16893 0.65474 0.0
C1388 C 0.82077 0.18491 0.60978 0.0
C1389 C 0.82826 0.18127 0.59569 0.0
C1390 C 0.82104 0.18808 0.5825 0.0
C1391 C 0.8064 0.19896 0.58371 0.0
C1392 C 0.80596 0.1955 0.61076 0.0
C1393 C 0.79894 0.2026 0.59776 0.0
C1394 C 0.81974 0.12154 0.65975 0.0
C1395 C 0.82843 0.17695 0.62309 0.0
H1396 H 0.82696 0.16966 0.74203 0.0
H1397 H 0.87006 0.14568 0.76664 0.0
H1398 H 0.874 0.14937 0.71894 0.0
H1399 H 0.88668 0.14032 0.74297 0.0
H1400 H 0.83982 0.17317 0.59502 0.0
H1401 H 0.80032 0.2042 0.57379 0.0
H1402 H 0.79973 0.19815 0.62149 0.0
H1403 H 0.78748 0.21077 0.59855 0.0
C1404 C 0.3537 0.88963 0.05982 0.0
C1405 C 0.33492 0.86932 0.05243 0.0
C1406 C 0.3747 0.90673 0.05219 0.0
C1407 C 0.37668 0.90415 0.03659 0.0
C1408 C 0.35783 0.88391 0.02897 0.0
C1409 C 0.3374 0.86657 0.037 0.0
C1410 C 0.39468 0.92777 0.06084 0.0
C1411 C 0.35895 0.88089 0.01227 0.0
C1412 C 0.42029 0.9644 0.01914 0.0
C1413 C 0.44189 0.96322 0.018 0.0
C1414 C 0.39827 0.94443 0.02392 0.0
C1415 C 0.39822 0.92321 0.02838 0.0
C1416 C 0.41984 0.92166 0.02671 0.0
C1417 C 0.44143 0.9417 0.02149 0.0
C1418 C 0.37541 0.94653 0.02496 0.0
C1419 C 0.42081 0.8996 0.03155 0.0
H1420 H 0.35196 0.89251 0.07159 0.0
H1421 H 0.3234 0.85084 0.03112 0.0
H1422 H 0.4128 0.92925 0.05869 0.0
H1423 H 0.39588 0.9448 0.05706 0.0
H1424 H 0.39131 0.92609 0.0731 0.0
H1425 H 0.34363 0.86341 0.00814 0.0
H1426 H 0.35802 0.89569 0.00645 0.0
H1427 H 0.37665 0.88215 0.00915 0.0
H1428 H 0.42077 0.98116 0.01654 0.0
H1429 H 0.45825 0.94096 0.02107 0.0
H1430 H 0.37145 0.94812 0.03687 0.0
H1431 H 0.35929 0.93014 0.0203 0.0
H1432 H 0.37747 0.96253 0.01888 0.0
H1433 H 0.42055 0.89875 0.04397 0.0
H1434 H 0.43771 0.89988 0.02753 0.0
H1435 H 0.40452 0.88292 0.02738 0.0
C1436 C 0.11661 0.4665 0.06149 0.0
C1437 C 0.13261 0.46139 0.05334 0.0
C1438 C 0.09826 0.46932 0.05429 0.0
C1439 C 0.09588 0.46722 0.0385 0.0
C1440 C 0.11216 0.46241 0.03019 0.0
C1441 C 0.13025 0.45952 0.03769 0.0
C1442 C 0.08123 0.47429 0.06362 0.0
C1443 C 0.11069 0.46052 0.01336 0.0
C1444 C 0.03282 0.45093 0.02297 0.0
C1445 C 0.0361 0.47356 0.01921 0.0
C1446 C 0.05234 0.44853 0.02875 0.0
C1447 C 0.07578 0.46929 0.03084 0.0
C1448 C 0.07939 0.49212 0.02659 0.0
C1449 C 0.05939 0.49402 0.02113 0.0
C1450 C 0.04763 0.42384 0.03311 0.0
C1451 C 0.10415 0.51468 0.02827 0.0
H1452 H 0.1185 0.46844 0.07355 0.0
H1453 H 0.14229 0.45537 0.03125 0.0
H1454 H 0.08252 0.49147 0.06008 0.0
H1455 H 0.0619 0.45979 0.06182 0.0
H1456 H 0.08552 0.47547 0.07577 0.0
H1457 H 0.12248 0.45371 0.00869 0.0
H1458 H 0.09145 0.44842 0.00963 0.0
H1459 H 0.11687 0.47865 0.00866 0.0
H1460 H 0.01474 0.43511 0.02171 0.0
H1461 H 0.06198 0.51164 0.01875 0.0
H1462 H 0.05028 0.42332 0.04536 0.0
H1463 H 0.06102 0.41993 0.02749 0.0
H1464 H 0.02871 0.40939 0.03014 0.0
H1465 H 0.10872 0.51869 0.04032 0.0
H1466 H 0.10454 0.53055 0.02297 0.0
H1467 H 0.11871 0.51202 0.02314 0.0
C1468 C 0.56295 0.67606 0.04515 0.0
C1469 C 0.55435 0.67688 0.05949 0.0
C1470 C 0.55647 0.65397 0.03823 0.0
C1471 C 0.54097 0.63222 0.04584 0.0
C1472 C 0.53227 0.63292 0.06033 0.0
C1473 C 0.5391 0.65526 0.067 0.0
C1474 C 0.56621 0.65389 0.0228 0.0
C1475 C 0.51558 0.61007 0.06874 0.0
C1476 C 0.506 0.57499 0.0228 0.0
C1477 C 0.52047 0.56417 0.02483 0.0
C1478 C 0.51246 0.59715 0.02956 0.0
C1479 C 0.53384 0.60871 0.03863 0.0
C1480 C 0.54841 0.59779 0.04084 0.0
C1481 C 0.54151 0.57561 0.03394 0.0
C1482 C 0.49639 0.60818 0.02698 0.0
C1483 C 0.57137 0.60962 0.05043 0.0
H1484 H 0.57496 0.69274 0.03939 0.0
H1485 H 0.53214 0.65581 0.078 0.0
H1486 H 0.57703 0.6445 0.02306 0.0
H1487 H 0.55067 0.64381 0.01488 0.0
H1488 H 0.57808 0.67238 0.01841 0.0
H1489 H 0.5105 0.61375 0.07995 0.0
H1490 H 0.49847 0.59893 0.0622 0.0
H1491 H 0.52473 0.59921 0.0702 0.0
H1492 H 0.48947 0.56606 0.01599 0.0
H1493 H 0.55278 0.56737 0.03558 0.0
H1494 H 0.50731 0.62615 0.02173 0.0
H1495 H 0.48957 0.61092 0.03784 0.0
H1496 H 0.48033 0.59679 0.01966 0.0
H1497 H 0.58452 0.62765 0.04589 0.0
H1498 H 0.58067 0.59876 0.05101 0.0
H1499 H 0.5667 0.61238 0.06197 0.0
C1500 C 0.88957 0.32936 0.95009 0.0
C1501 C 0.86525 0.32424 0.94806 0.0
C1502 C 0.90722 0.35098 0.95688 0.0
C1503 C 0.90042 0.36798 0.96158 0.0
C1504 C 0.87598 0.36304 0.95937 0.0
C1505 C 0.85864 0.34115 0.95271 0.0
C1506 C 0.93302 0.35548 0.95923 0.0
C1507 C 0.86812 0.38084 0.96409 0.0
C1508 C 0.9377 0.41307 0.99207 0.0
C1509 C 0.95246 0.43382 0.98377 0.0
C1510 C 0.92081 0.39145 0.98499 0.0
C1511 C 0.91869 0.39065 0.96918 0.0
C1512 C 0.93387 0.41155 0.96071 0.0
C1513 C 0.95074 0.43289 0.96813 0.0
C1514 C 0.90525 0.36949 0.99442 0.0
C1515 C 0.93201 0.41148 0.94385 0.0
H1516 H 0.89466 0.31621 0.94662 0.0
H1517 H 0.83992 0.33735 0.95098 0.0
H1518 H 0.94648 0.3725 0.95371 0.0
H1519 H 0.93752 0.35762 0.97136 0.0
H1520 H 0.93542 0.34059 0.95475 0.0
H1521 H 0.84862 0.37459 0.96116 0.0
H1522 H 0.87047 0.38385 0.97637 0.0
H1523 H 0.87996 0.39849 0.95866 0.0
H1524 H 0.93974 0.41356 0.00409 0.0
H1525 H 0.96222 0.44902 0.96171 0.0
H1526 H 0.90838 0.35456 0.99103 0.0
H1527 H 0.88546 0.36322 0.99258 0.0
H1528 H 0.90936 0.3731 0.00657 0.0
H1529 H 0.93535 0.3974 0.93901 0.0
H1530 H 0.94537 0.42915 0.93892 0.0
H1531 H 0.91315 0.40699 0.9405 0.0
C1532 C 0.65133 0.53424 0.94791 0.0
C1533 C 0.66953 0.53137 0.95528 0.0
C1534 C 0.63031 0.53113 0.95545 0.0
C1535 C 0.62761 0.52585 0.97095 0.0
C1536 C 0.6458 0.52295 0.97851 0.0
C1537 C 0.66626 0.52536 0.97058 0.0
C1538 C 0.61107 0.5338 0.94683 0.0
C1539 C 0.64399 0.51795 0.99509 0.0
C1540 C 0.5853 0.54431 0.98987 0.0
C1541 C 0.56331 0.52228 0.99088 0.0
C1542 C 0.60686 0.54548 0.98441 0.0
C1543 C 0.60611 0.5242 0.97918 0.0
C1544 C 0.58404 0.50177 0.98057 0.0
C1545 C 0.56294 0.50109 0.98645 0.0
C1546 C 0.63017 0.56964 0.98368 0.0
C1547 C 0.58217 0.47867 0.97494 0.0
H1548 H 0.6536 0.53938 0.93624 0.0
H1549 H 0.6797 0.52252 0.97645 0.0
H1550 H 0.59262 0.51777 0.94858 0.0
H1551 H 0.61033 0.54975 0.951 0.0
H1552 H 0.61488 0.53598 0.93462 0.0
H1553 H 0.65877 0.51463 0.99917 0.0
H1554 H 0.64535 0.53363 1.00127 0.0
H1555 H 0.62591 0.50209 0.99782 0.0
H1556 H 0.58553 0.56072 0.99319 0.0
H1557 H 0.54585 0.48411 0.98676 0.0
H1558 H 0.63447 0.57535 0.97184 0.0
H1559 H 0.6459 0.56835 0.9883 0.0
H1560 H 0.62857 0.5838 0.98995 0.0
H1561 H 0.58315 0.47907 0.96253 0.0
H1562 H 0.56469 0.46252 0.97835 0.0
H1563 H 0.59778 0.47682 0.97915 0.0
C1564 C 0.43503 0.1055 0.95618 0.0
C1565 C 0.45335 0.12913 0.95288 0.0
C1566 C 0.44098 0.08941 0.96305 0.0
C1567 C 0.46585 0.09712 0.96657 0.0
C1568 C 0.48444 0.12093 0.96321 0.0
C1569 C 0.47794 0.13669 0.95645 0.0
C1570 C 0.42066 0.0642 0.96661 0.0
C1571 C 0.51118 0.1297 0.96668 0.0
C1572 C 0.47961 0.06335 0.99629 0.0
C1573 C 0.4849 0.04834 0.98758 0.0
C1574 C 0.47337 0.07933 0.9896 0.0
C1575 C 0.47245 0.08029 0.9738 0.0
C1576 C 0.47778 0.06513 0.96493 0.0
C1577 C 0.48381 0.04921 0.97194 0.0
C1578 C 0.46753 0.09502 0.99945 0.0
C1579 C 0.47725 0.06582 0.94804 0.0
H1580 H 0.41599 0.0997 0.95355 0.0
H1581 H 0.49216 0.15487 0.95373 0.0
H1582 H 0.42401 0.0508 0.96079 0.0
H1583 H 0.42048 0.06085 0.97881 0.0
H1584 H 0.40224 0.0611 0.96324 0.0
H1585 H 0.52339 0.1487 0.96325 0.0
H1586 H 0.51363 0.12823 0.97886 0.0
H1587 H 0.51716 0.11819 0.96084 0.0
H1588 H 0.47968 0.06215 0.00832 0.0
H1589 H 0.48802 0.03765 0.96518 0.0
H1590 H 0.44847 0.0911 0.99722 0.0
H1591 H 0.48005 0.1143 0.99682 0.0
H1592 H 0.46932 0.09222 0.01156 0.0
H1593 H 0.45865 0.06136 0.94411 0.0
H1594 H 0.48209 0.053 0.94278 0.0
H1595 H 0.49035 0.08427 0.94407 0.0
C1596 C 0.665 0.13438 0.97006 0.0
C1597 C 0.66698 0.13157 0.95458 0.0
C1598 C 0.64488 0.11705 0.9783 0.0
C1599 C 0.62581 0.09676 0.97085 0.0
C1600 C 0.62709 0.09429 0.95518 0.0
C1601 C 0.64779 0.1114 0.94731 0.0
C1602 C 0.64454 0.12001 0.99505 0.0
C1603 C 0.6068 0.07321 0.94672 0.0
C1604 C 0.585 0.03643 0.98916 0.0
C1605 C 0.56323 0.03702 0.9913 0.0
C1606 C 0.60615 0.05654 0.9836 0.0
C1607 C 0.60508 0.0773 0.9794 0.0
C1608 C 0.58329 0.07823 0.98197 0.0
C1609 C 0.56264 0.05808 0.98801 0.0
C1610 C 0.62928 0.05515 0.9816 0.0
C1611 C 0.58119 0.0998 0.97743 0.0
H1612 H 0.67925 0.15005 0.97585 0.0
H1613 H 0.64907 0.10854 0.93547 0.0
H1614 H 0.62654 0.11753 0.99871 0.0
H1615 H 0.64705 0.10593 1.00063 0.0
H1616 H 0.65934 0.13795 0.99896 0.0
H1617 H 0.60939 0.07517 0.9344 0.0
H1618 H 0.60621 0.05629 0.95011 0.0
H1619 H 0.58868 0.07132 0.94948 0.0
H1620 H 0.58534 0.02005 0.99167 0.0
H1621 H 0.54565 0.05839 0.98938 0.0
H1622 H 0.64545 0.07166 0.98609 0.0
H1623 H 0.63253 0.05397 0.9695 0.0
H1624 H 0.62812 0.03921 0.98729 0.0
H1625 H 0.59721 0.11671 0.98159 0.0
H1626 H 0.56407 0.09878 0.98169 0.0
H1627 H 0.58116 0.10084 0.96503 0.0
C1628 C 0.88494 0.52772 0.94412 0.0
C1629 C 0.86932 0.53325 0.95234 0.0
C1630 C 0.90352 0.52513 0.95121 0.0
C1631 C 0.90654 0.52795 0.96695 0.0
C1632 C 0.89061 0.53317 0.97531 0.0
C1633 C 0.87228 0.53578 0.96794 0.0
C1634 C 0.92018 0.51973 0.94181 0.0
C1635 C 0.89278 0.53589 0.99209 0.0
C1636 C 0.94406 0.5027 0.98497 0.0
C1637 C 0.96721 0.52346 0.98656 0.0
C1638 C 0.92383 0.50399 0.97926 0.0
C1639 C 0.92706 0.52646 0.97448 0.0
C1640 C 0.95042 0.5475 0.97616 0.0
C1641 C 0.97016 0.54572 0.98218 0.0
C1642 C 0.89917 0.4812 0.97804 0.0
C1643 C 0.95474 0.57182 0.97121 0.0
H1644 H 0.8826 0.52531 0.9321 0.0
H1645 H 0.86055 0.5403 0.97442 0.0
H1646 H 0.93955 0.53443 0.94315 0.0
H1647 H 0.91923 0.50285 0.94568 0.0
H1648 H 0.91527 0.51779 0.92973 0.0
H1649 H 0.88092 0.5426 0.99679 0.0
H1650 H 0.88715 0.51807 0.99709 0.0
H1651 H 0.91212 0.54845 0.99545 0.0
H1652 H 0.9418 0.48535 0.98795 0.0
H1653 H 0.98812 0.56176 0.98324 0.0
H1654 H 0.89422 0.47663 0.96607 0.0
H1655 H 0.88467 0.48391 0.98321 0.0
H1656 H 0.89916 0.46569 0.98357 0.0
H1657 H 0.95139 0.57148 0.95898 0.0
H1658 H 0.97377 0.58652 0.97367 0.0
H1659 H 0.94161 0.57603 0.97688 0.0
C1660 C 0.45149 0.32614 0.96255 0.0
C1661 C 0.46082 0.32621 0.94829 0.0
C1662 C 0.45628 0.3477 0.96953 0.0
C1663 C 0.47082 0.36984 0.96208 0.0
C1664 C 0.48027 0.37004 0.94767 0.0
C1665 C 0.47509 0.34819 0.94092 0.0
C1666 C 0.44578 0.34679 0.98487 0.0
C1667 C 0.49604 0.39336 0.93946 0.0
C1668 C 0.46612 0.424 0.97474 0.0
C1669 C 0.4867 0.43585 0.98417 0.0
C1670 C 0.46077 0.40251 0.9674 0.0
C1671 C 0.47647 0.39281 0.9695 0.0
C1672 C 0.49744 0.40487 0.97886 0.0
C1673 C 0.5023 0.42625 0.98607 0.0
C1674 C 0.43819 0.39006 0.95753 0.0
C1675 C 0.5147 0.39516 0.98132 0.0
H1676 H 0.44016 0.30915 0.96819 0.0
H1677 H 0.48252 0.34831 0.92996 0.0
H1678 H 0.4609 0.35728 0.99297 0.0
H1679 H 0.43405 0.35522 0.98456 0.0
H1680 H 0.4346 0.32807 0.98907 0.0
H1681 H 0.50175 0.39038 0.92826 0.0
H1682 H 0.48585 0.40324 0.93802 0.0
H1683 H 0.5128 0.40512 0.94614 0.0
H1684 H 0.45402 0.43135 0.97321 0.0
H1685 H 0.51849 0.43551 0.99313 0.0
H1686 H 0.4256 0.37169 0.96182 0.0
H1687 H 0.44351 0.38801 0.94602 0.0
H1688 H 0.42802 0.4001 0.95696 0.0
H1689 H 0.50458 0.377 0.98643 0.0
H1690 H 0.53045 0.40702 0.98874 0.0
H1691 H 0.52202 0.39319 0.97044 0.0
C1692 C 0.13162 0.67303 0.04422 0.0
C1693 C 0.14038 0.67299 0.05868 0.0
C1694 C 0.11429 0.65149 0.03721 0.0
C1695 C 0.10551 0.62936 0.04483 0.0
C1696 C 0.11422 0.62918 0.05943 0.0
C1697 C 0.13154 0.651 0.06619 0.0
C1698 C 0.10535 0.6524 0.02164 0.0
C1699 C 0.10538 0.60591 0.06788 0.0
C1700 C 0.04483 0.57579 0.03214 0.0
C1701 C 0.05285 0.563 0.02323 0.0
C1702 C 0.06177 0.5974 0.03926 0.0
C1703 C 0.08732 0.60638 0.03747 0.0
C1704 C 0.09551 0.59344 0.02859 0.0
C1705 C 0.07819 0.57188 0.02163 0.0
C1706 C 0.05234 0.6107 0.04864 0.0
C1707 C 0.12258 0.60235 0.02642 0.0
H1708 H 0.13813 0.68999 0.03844 0.0
H1709 H 0.13846 0.65081 0.07729 0.0
H1710 H 0.10945 0.64135 0.01386 0.0
H1711 H 0.08509 0.64461 0.02168 0.0
H1712 H 0.11399 0.67108 0.01725 0.0
H1713 H 0.11381 0.60888 0.0792 0.0
H1714 H 0.08508 0.59653 0.06909 0.0
H1715 H 0.10985 0.59371 0.06149 0.0
H1716 H 0.0253 0.56903 0.03347 0.0
H1717 H 0.08458 0.56191 0.01502 0.0
H1718 H 0.05923 0.62908 0.04412 0.0
H1719 H 0.05938 0.61279 0.06027 0.0
H1720 H 0.03191 0.60127 0.04895 0.0
H1721 H 0.13159 0.62045 0.0212 0.0
H1722 H 0.12588 0.59005 0.01924 0.0
H1723 H 0.13162 0.60422 0.03743 0.0
C1724 C 0.33752 0.472 0.03795 0.0
C1725 C 0.33398 0.4661 0.05326 0.0
C1726 C 0.35831 0.47473 0.03026 0.0
C1727 C 0.37658 0.4723 0.03809 0.0
C1728 C 0.37363 0.46718 0.0536 0.0
C1729 C 0.35228 0.46373 0.0609 0.0
C1730 C 0.36036 0.47953 0.01366 0.0
C1731 C 0.39292 0.465 0.0625 0.0
C1732 C 0.41967 0.45427 0.01973 0.0
C1733 C 0.44151 0.47643 0.01864 0.0
C1734 C 0.39796 0.4529 0.02507 0.0
C1735 C 0.39836 0.47411 0.03008 0.0
C1736 C 0.42028 0.49666 0.02863 0.0
C1737 C 0.44156 0.49755 0.02286 0.0
C1738 C 0.37482 0.42859 0.02587 0.0
C1739 C 0.42177 0.51971 0.03402 0.0
H1740 H 0.32401 0.47449 0.03187 0.0
H1741 H 0.34984 0.45871 0.0726 0.0
H1742 H 0.37837 0.49552 0.01099 0.0
H1743 H 0.35936 0.46389 0.00764 0.0
H1744 H 0.34549 0.48253 0.00936 0.0
H1745 H 0.38892 0.46301 0.07469 0.0
H1746 H 0.39399 0.44911 0.05856 0.0
H1747 H 0.41129 0.48115 0.06076 0.0
H1748 H 0.41969 0.43792 0.01656 0.0
H1749 H 0.45853 0.51465 0.02243 0.0
H1750 H 0.35903 0.42956 0.02103 0.0
H1751 H 0.3704 0.42311 0.03774 0.0
H1752 H 0.37672 0.41443 0.01982 0.0
H1753 H 0.40613 0.5213 0.02958 0.0
H1754 H 0.43923 0.53592 0.03064 0.0
H1755 H 0.42054 0.51945 0.04641 0.0
C1756 C 0.53369 0.87381 0.06339 0.0
C1757 C 0.54903 0.867 0.05606 0.0
C1758 C 0.52707 0.88945 0.05661 0.0
C1759 C 0.53608 0.89855 0.04217 0.0
C1760 C 0.55125 0.89145 0.0346 0.0
C1761 C 0.55751 0.87568 0.04163 0.0
C1762 C 0.51068 0.89647 0.06498 0.0
C1763 C 0.56126 0.9009 0.01921 0.0
C1764 C 0.50349 0.92487 0.02005 0.0
C1765 C 0.51873 0.94963 0.02275 0.0
C1766 C 0.50904 0.90802 0.02615 0.0
C1767 C 0.53027 0.91614 0.03524 0.0
C1768 C 0.5457 0.9411 0.03802 0.0
C1769 C 0.5397 0.95755 0.03177 0.0
C1770 C 0.49208 0.88154 0.02299 0.0
C1771 C 0.56852 0.95043 0.04765 0.0
H1772 H 0.52678 0.86681 0.07445 0.0
H1773 H 0.56952 0.87059 0.03598 0.0
H1774 H 0.52064 0.91622 0.06702 0.0
H1775 H 0.49417 0.89212 0.05814 0.0
H1776 H 0.50457 0.88716 0.07591 0.0
H1777 H 0.57203 0.8929 0.0146 0.0
H1778 H 0.54597 0.897 0.01136 0.0
H1779 H 0.57331 0.92077 0.01969 0.0
H1780 H 0.48702 0.91858 0.01329 0.0
H1781 H 0.55157 0.97664 0.03391 0.0
H1782 H 0.48438 0.87181 0.03363 0.0
H1783 H 0.50252 0.87367 0.01776 0.0
H1784 H 0.4766 0.87828 0.01544 0.0
H1785 H 0.5634 0.94296 0.05911 0.0
H1786 H 0.57884 0.97042 0.04845 0.0
H1787 H 0.58092 0.94436 0.04301 0.0
C1788 C 0.02175 0.21884 0.39371 0.0
C1789 C 0.99991 0.20343 0.38596 0.0
C1790 C 0.04288 0.23584 0.3861 0.0
C1791 C 0.04229 0.23748 0.37031 0.0
C1792 C 0.02059 0.22149 0.36236 0.0
C1793 C 0.99967 0.20468 0.37027 0.0
C1794 C 0.06567 0.25251 0.39503 0.0
C1795 C 0.01936 0.22241 0.34553 0.0
C1796 C 0.08731 0.29948 0.35532 0.0
C1797 C 0.10727 0.29671 0.35118 0.0
C1798 C 0.06559 0.28 0.36086 0.0
C1799 C 0.06382 0.25719 0.36239 0.0
C1800 C 0.08354 0.25404 0.35757 0.0
C1801 C 0.1052 0.27395 0.35222 0.0
C1802 C 0.04498 0.28416 0.36577 0.0
C1803 C 0.08231 0.22997 0.35873 0.0
H1804 H 0.02231 0.21768 0.4058 0.0
H1805 H 0.98288 0.19296 0.36417 0.0
H1806 H 0.08169 0.25139 0.39082 0.0
H1807 H 0.06995 0.27142 0.39362 0.0
H1808 H 0.0635 0.24822 0.40716 0.0
H1809 H 1.00089 0.20925 0.34103 0.0
H1810 H 0.02402 0.24075 0.3419 0.0
H1811 H 0.03312 0.21846 0.34051 0.0
H1812 H 0.089 0.31714 0.35461 0.0
H1813 H 0.12075 0.27183 0.34933 0.0
H1814 H 0.04265 0.28192 0.37807 0.0
H1815 H 0.02737 0.27064 0.3605 0.0
H1816 H 0.04854 0.30247 0.36284 0.0
H1817 H 0.09726 0.22957 0.35231 0.0
H1818 H 0.06434 0.21529 0.35456 0.0
H1819 H 0.08403 0.22619 0.37065 0.0
C1820 C 0.7997 0.79258 0.37334 0.0
C1821 C 0.80196 0.79401 0.38902 0.0
C1822 C 0.78148 0.79541 0.36596 0.0
C1823 C 0.76493 0.79968 0.3744 0.0
C1824 C 0.76721 0.80131 0.3902 0.0
C1825 C 0.7857 0.79859 0.39729 0.0
C1826 C 0.78002 0.7939 0.34912 0.0
C1827 C 0.74986 0.80565 0.39967 0.0
C1828 C 0.72767 0.82602 0.35747 0.0
C1829 C 0.70462 0.80535 0.35531 0.0
C1830 C 0.74785 0.82438 0.3629 0.0
C1831 C 0.74465 0.80158 0.36685 0.0
C1832 C 0.72144 0.78062 0.36451 0.0
C1833 C 0.70175 0.78278 0.35876 0.0
C1834 C 0.77234 0.84716 0.36486 0.0
C1835 C 0.7171 0.75596 0.36862 0.0
H1836 H 0.81191 0.7888 0.3668 0.0
H1837 H 0.78749 0.80019 0.40937 0.0
H1838 H 0.76109 0.78056 0.34544 0.0
H1839 H 0.78437 0.81168 0.3446 0.0
H1840 H 0.79306 0.78882 0.34423 0.0
H1841 H 0.75409 0.80651 0.41182 0.0
H1842 H 0.75087 0.8228 0.39638 0.0
H1843 H 0.73064 0.79099 0.39775 0.0
H1844 H 0.72987 0.84357 0.35526 0.0
H1845 H 0.68384 0.76679 0.35731 0.0
H1846 H 0.78718 0.84503 0.35964 0.0
H1847 H 0.77674 0.85078 0.37695 0.0
H1848 H 0.77244 0.86305 0.35982 0.0
H1849 H 0.7308 0.7525 0.36301 0.0
H1850 H 0.69835 0.74138 0.36547 0.0
H1851 H 0.71955 0.75516 0.38087 0.0
C1852 C 0.23468 0.00286 0.39208 0.0
C1853 C 0.21581 0.00823 0.39426 0.0
C1854 C 0.22995 0.98133 0.38508 0.0
C1855 C 0.20575 0.96474 0.38024 0.0
C1856 C 0.18657 0.96995 0.38254 0.0
C1857 C 0.19185 0.9917 0.38948 0.0
C1858 C 0.2509 0.97646 0.3827 0.0
C1859 C 0.1605 0.95259 0.37759 0.0
C1860 C 0.19713 0.92035 0.34942 0.0
C1861 C 0.19037 0.89937 0.35755 0.0
C1862 C 0.20225 0.9418 0.35666 0.0
C1863 C 0.2006 0.94218 0.37245 0.0
C1864 C 0.19405 0.92104 0.38076 0.0
C1865 C 0.18913 0.89986 0.37319 0.0
C1866 C 0.20947 0.96404 0.34742 0.0
C1867 C 0.19195 0.92072 0.3976 0.0
H1868 H 0.25327 0.01574 0.39561 0.0
H1869 H 0.17718 0.99569 0.39131 0.0
H1870 H 0.24665 0.95921 0.38805 0.0
H1871 H 0.25328 0.97459 0.37055 0.0
H1872 H 0.26858 0.99105 0.38734 0.0
H1873 H 0.1476 0.95909 0.38052 0.0
H1874 H 0.15989 0.94985 0.36529 0.0
H1875 H 0.15395 0.93476 0.38286 0.0
H1876 H 0.19895 0.92016 0.33742 0.0
H1877 H 0.18379 0.88353 0.37947 0.0
H1878 H 0.22793 0.97871 0.35092 0.0
H1879 H 0.1963 0.97055 0.34934 0.0
H1880 H 0.20987 0.96066 0.33524 0.0
H1881 H 0.20969 0.93443 0.40264 0.0
H1882 H 0.1868 0.90283 0.40239 0.0
H1883 H 0.17788 0.9255 0.40092 0.0
C1884 C 0.56033 0.66357 0.28309 0.0
C1885 C 0.53513 0.65574 0.28422 0.0
C1886 C 0.5781 0.68542 0.28961 0.0
C1887 C 0.5705 0.69982 0.29743 0.0
C1888 C 0.54511 0.69207 0.29858 0.0
C1889 C 0.52773 0.67011 0.29199 0.0
C1890 C 0.60499 0.69297 0.28825 0.0
C1891 C 0.5363 0.70699 0.30679 0.0
C1892 C 0.61325 0.74453 0.3266 0.0
C1893 C 0.62317 0.76626 0.3188 0.0
C1894 C 0.59622 0.72273 0.31974 0.0
C1895 C 0.58908 0.72277 0.30469 0.0
C1896 C 0.59952 0.74475 0.29667 0.0
C1897 C 0.61656 0.76629 0.30385 0.0
C1898 C 0.58569 0.69972 0.32865 0.0
C1899 C 0.59232 0.74556 0.28064 0.0
H1900 H 0.56617 0.65242 0.27727 0.0
H1901 H 0.50831 0.66432 0.29274 0.0
H1902 H 0.61518 0.71089 0.28285 0.0
H1903 H 0.61312 0.69474 0.29955 0.0
H1904 H 0.60788 0.6799 0.28161 0.0
H1905 H 0.51594 0.69855 0.30655 0.0
H1906 H 0.54249 0.70951 0.31864 0.0
H1907 H 0.54448 0.72517 0.30173 0.0
H1908 H 0.61893 0.74458 0.33806 0.0
H1909 H 0.62428 0.78324 0.29789 0.0
H1910 H 0.5894 0.68652 0.32287 0.0
H1911 H 0.56542 0.69148 0.32947 0.0
H1912 H 0.59348 0.70277 0.34016 0.0
H1913 H 0.59585 0.73332 0.27359 0.0
H1914 H 0.60254 0.76402 0.2759 0.0
H1915 H 0.57232 0.73912 0.27996 0.0
C1916 C 0.31947 0.86133 0.28177 0.0
C1917 C 0.34074 0.86617 0.28983 0.0
C1918 C 0.2983 0.85836 0.28907 0.0
C1919 C 0.2981 0.86001 0.30489 0.0
C1920 C 0.31918 0.86412 0.31314 0.0
C1921 C 0.3402 0.8672 0.30554 0.0
C1922 C 0.27628 0.85403 0.27979 0.0
C1923 C 0.31959 0.86547 0.33001 0.0
C1924 C 0.2538 0.87907 0.32022 0.0
C1925 C 0.23315 0.8569 0.32379 0.0
C1926 C 0.27537 0.88038 0.31466 0.0
C1927 C 0.2764 0.85896 0.31258 0.0
C1928 C 0.25591 0.83657 0.31675 0.0
C1929 C 0.2344 0.83577 0.32204 0.0
C1930 C 0.2967 0.90465 0.31038 0.0
C1931 C 0.25628 0.81331 0.31507 0.0
H1932 H 0.31935 0.8599 0.26968 0.0
H1933 H 0.35647 0.87106 0.31193 0.0
H1934 H 0.25969 0.83724 0.28344 0.0
H1935 H 0.27254 0.86906 0.28151 0.0
H1936 H 0.27906 0.85251 0.26764 0.0
H1937 H 0.33783 0.87016 0.33477 0.0
H1938 H 0.31473 0.87905 0.33385 0.0
H1939 H 0.3056 0.84778 0.33456 0.0
H1940 H 0.2528 0.89541 0.32139 0.0
H1941 H 0.21838 0.81851 0.32435 0.0
H1942 H 0.29971 0.90516 0.29812 0.0
H1943 H 0.31382 0.90762 0.31595 0.0
H1944 H 0.29353 0.9197 0.31347 0.0
H1945 H 0.25577 0.80886 0.30302 0.0
H1946 H 0.24035 0.79802 0.32068 0.0
H1947 H 0.27351 0.81522 0.31985 0.0
C1948 C 0.12226 0.46089 0.29827 0.0
C1949 C 0.13046 0.46853 0.28364 0.0
C1950 C 0.12768 0.44478 0.30561 0.0
C1951 C 0.14174 0.43624 0.29817 0.0
C1952 C 0.15045 0.44421 0.2835 0.0
C1953 C 0.14462 0.46021 0.27639 0.0
C1954 C 0.11791 0.43649 0.32121 0.0
C1955 C 0.16567 0.43562 0.27527 0.0
C1956 C 0.17154 0.40817 0.3214 0.0
C1957 C 0.15506 0.38351 0.31921 0.0
C1958 C 0.16748 0.42559 0.31462 0.0
C1959 C 0.14641 0.41813 0.30548 0.0
C1960 C 0.12968 0.39326 0.30327 0.0
C1961 C 0.13426 0.37625 0.31012 0.0
C1962 C 0.18582 0.45195 0.31714 0.0
C1963 C 0.10691 0.38462 0.29367 0.0
H1964 H 0.1111 0.4671 0.30385 0.0
H1965 H 0.15124 0.46634 0.26515 0.0
H1966 H 0.10507 0.41674 0.32115 0.0
H1967 H 0.13322 0.44011 0.32897 0.0
H1968 H 0.10804 0.44554 0.32564 0.0
H1969 H 0.17192 0.44436 0.26419 0.0
H1970 H 0.18206 0.43938 0.28205 0.0
H1971 H 0.15473 0.41582 0.27356 0.0
H1972 H 0.18785 0.41392 0.32823 0.0
H1973 H 0.12143 0.35723 0.30838 0.0
H1974 H 0.1765 0.46117 0.32208 0.0
H1975 H 0.19369 0.46075 0.30628 0.0
H1976 H 0.20113 0.45471 0.32469 0.0
H1977 H 0.0954 0.3919 0.29807 0.0
H1978 H 0.0956 0.36464 0.29326 0.0
H1979 H 0.11221 0.39139 0.28208 0.0
C1980 C 0.31811 0.44029 0.28122 0.0
C1981 C 0.33696 0.46029 0.28883 0.0
C1982 C 0.29692 0.42307 0.28868 0.0
C1983 C 0.29475 0.42519 0.3043 0.0
C1984 C 0.31363 0.44513 0.31213 0.0
C1985 C 0.33426 0.46259 0.30429 0.0
C1986 C 0.27691 0.40241 0.2798 0.0
C1987 C 0.31238 0.44769 0.32886 0.0
C1988 C 0.22995 0.3884 0.31972 0.0
C1989 C 0.22907 0.3667 0.32329 0.0
C1990 C 0.25158 0.4081 0.31421 0.0
C1991 C 0.27291 0.40608 0.31235 0.0
C1992 C 0.27244 0.38463 0.31676 0.0
C1993 C 0.25034 0.36499 0.32182 0.0
C1994 C 0.25104 0.43041 0.30944 0.0
C1995 C 0.29499 0.38203 0.31553 0.0
H1996 H 0.31996 0.43775 0.26941 0.0
H1997 H 0.34825 0.47807 0.31036 0.0
H1998 H 0.27537 0.38517 0.28342 0.0
H1999 H 0.25888 0.40116 0.28192 0.0
H2000 H 0.28048 0.40438 0.26757 0.0
H2001 H 0.32745 0.46522 0.33313 0.0
H2002 H 0.2945 0.44594 0.33206 0.0
H2003 H 0.31373 0.43298 0.33448 0.0
H2004 H 0.21338 0.38957 0.32036 0.0
H2005 H 0.24957 0.34811 0.32446 0.0
H2006 H 0.25208 0.43175 0.29705 0.0
H2007 H 0.26715 0.44685 0.31401 0.0
H2008 H 0.23399 0.43014 0.31312 0.0
H2009 H 0.29894 0.38077 0.30357 0.0
H2010 H 0.29257 0.3657 0.32136 0.0
H2011 H 0.31126 0.39809 0.32035 0.0
C2012 C 0.55951 0.86683 0.27909 0.0
C2013 C 0.5428 0.87089 0.28728 0.0
C2014 C 0.5781 0.86435 0.28629 0.0
C2015 C 0.58003 0.86577 0.30212 0.0
C2016 C 0.56321 0.86981 0.31044 0.0
C2017 C 0.54489 0.8723 0.30295 0.0
C2018 C 0.59577 0.86028 0.27696 0.0
C2019 C 0.5641 0.87097 0.32729 0.0
C2020 C 0.61519 0.83842 0.32069 0.0
C2021 C 0.63808 0.85888 0.32369 0.0
C2022 C 0.5959 0.84042 0.31414 0.0
C2023 C 0.59986 0.86339 0.30991 0.0
C2024 C 0.62305 0.88411 0.31281 0.0
C2025 C 0.64183 0.8816 0.31968 0.0
C2026 C 0.57138 0.81791 0.31157 0.0
C2027 C 0.62811 0.90892 0.30849 0.0
H2028 H 0.55794 0.86535 0.267 0.0
H2029 H 0.53238 0.87574 0.30944 0.0
H2030 H 0.61495 0.87483 0.27916 0.0
H2031 H 0.59462 0.84301 0.28013 0.0
H2032 H 0.59198 0.8598 0.26477 0.0
H2033 H 0.55333 0.87897 0.33189 0.0
H2034 H 0.55609 0.85238 0.33165 0.0
H2035 H 0.58331 0.88161 0.33145 0.0
H2036 H 0.61239 0.82074 0.32331 0.0
H2037 H 0.65964 0.89742 0.32175 0.0
H2038 H 0.56733 0.81515 0.2994 0.0
H2039 H 0.55652 0.81989 0.31688 0.0
H2040 H 0.57092 0.8016 0.31619 0.0
H2041 H 0.62575 0.90965 0.29622 0.0
H2042 H 0.647 0.92322 0.31163 0.0
H2043 H 0.61467 0.91285 0.31402 0.0
C2044 C 0.11558 0.65866 0.29617 0.0
C2045 C 0.12598 0.65878 0.28228 0.0
C2046 C 0.12106 0.68029 0.30335 0.0
C2047 C 0.13748 0.7025 0.29651 0.0
C2048 C 0.14808 0.70273 0.28249 0.0
C2049 C 0.1421 0.68082 0.2755 0.0
C2050 C 0.10925 0.67938 0.31823 0.0
C2051 C 0.16585 0.7261 0.27494 0.0
C2052 C 0.13524 0.75825 0.30841 0.0
C2053 C 0.1551 0.76914 0.31846 0.0
C2054 C 0.12932 0.73656 0.30116 0.0
C2055 C 0.14361 0.72552 0.30404 0.0
C2056 C 0.16373 0.73647 0.31412 0.0
C2057 C 0.16931 0.75821 0.32115 0.0
C2058 C 0.10775 0.72541 0.29044 0.0
C2059 C 0.17942 0.72525 0.31747 0.0
H2060 H 0.10291 0.64161 0.30134 0.0
H2061 H 0.15036 0.68092 0.26484 0.0
H2062 H 0.12366 0.68889 0.3269 0.0
H2063 H 0.09852 0.68882 0.31742 0.0
H2064 H 0.09678 0.66061 0.32201 0.0
H2065 H 0.17247 0.72314 0.26405 0.0
H2066 H 0.1569 0.73704 0.27299 0.0
H2067 H 0.18199 0.73683 0.28232 0.0
H2068 H 0.12421 0.76661 0.30623 0.0
H2069 H 0.18499 0.76673 0.32866 0.0
H2070 H 0.09404 0.70707 0.29426 0.0
H2071 H 0.11401 0.7235 0.27918 0.0
H2072 H 0.09853 0.73631 0.28943 0.0
H2073 H 0.16782 0.7069 0.32209 0.0
H2074 H 0.19439 0.73609 0.32561 0.0
H2075 H 0.18776 0.72335 0.30699 0.0
C2076 C 0.79492 0.00595 0.37993 0.0
C2077 C 0.80386 0.00754 0.39454 0.0
C2078 C 0.77773 0.98363 0.37366 0.0
C2079 C 0.76938 0.96235 0.38216 0.0
C2080 C 0.77833 0.96382 0.39692 0.0
C2081 C 0.79541 0.9864 0.40295 0.0
C2082 C 0.7685 0.98281 0.35792 0.0
C2083 C 0.77007 0.94151 0.40628 0.0
C2084 C 0.70943 0.90686 0.37033 0.0
C2085 C 0.71804 0.89413 0.36188 0.0
C2086 C 0.72593 0.92901 0.37711 0.0
C2087 C 0.75161 0.93851 0.3755 0.0
C2088 C 0.76037 0.92542 0.36727 0.0
C2089 C 0.74349 0.9034 0.3606 0.0
C2090 C 0.7159 0.94248 0.38577 0.0
C2091 C 0.78758 0.93478 0.36535 0.0
H2092 H 0.80115 0.02225 0.37346 0.0
H2093 H 0.80246 0.98749 0.41418 0.0
H2094 H 0.77306 0.97146 0.3507 0.0
H2095 H 0.74817 0.97443 0.35792 0.0
H2096 H 0.77657 0.00101 0.35286 0.0
H2097 H 0.77856 0.94575 0.41762 0.0
H2098 H 0.74976 0.9318 0.4075 0.0
H2099 H 0.77495 0.92904 0.40059 0.0
H2100 H 0.6898 0.89979 0.37138 0.0
H2101 H 0.75031 0.89342 0.35435 0.0
H2102 H 0.722 0.96023 0.3805 0.0
H2103 H 0.72325 0.94599 0.39737 0.0
H2104 H 0.69547 0.93241 0.38624 0.0
H2105 H 0.79609 0.95215 0.35926 0.0
H2106 H 0.79132 0.92198 0.35905 0.0
H2107 H 0.79672 0.93829 0.37646 0.0
C2108 C 0.00879 0.8084 0.37337 0.0
C2109 C 0.00541 0.80262 0.38869 0.0
C2110 C 0.02963 0.81133 0.36563 0.0
C2111 C 0.04814 0.80926 0.37343 0.0
C2112 C 0.04547 0.8045 0.38899 0.0
C2113 C 0.02406 0.80082 0.39634 0.0
C2114 C 0.03131 0.81569 0.34899 0.0
C2115 C 0.06505 0.80278 0.39787 0.0
C2116 C 0.09005 0.78998 0.35477 0.0
C2117 C 0.11185 0.812 0.35298 0.0
C2118 C 0.06876 0.78904 0.36051 0.0
C2119 C 0.0696 0.81056 0.36528 0.0
C2120 C 0.09154 0.83295 0.36325 0.0
C2121 C 0.11235 0.83341 0.35699 0.0
C2122 C 0.04556 0.76488 0.36188 0.0
C2123 C 0.09349 0.85629 0.36842 0.0
H2124 H 0.99506 0.81051 0.36727 0.0
H2125 H 0.02181 0.79597 0.40806 0.0
H2126 H 0.04957 0.83105 0.34599 0.0
H2127 H 0.02921 0.79948 0.34311 0.0
H2128 H 0.01684 0.8194 0.34482 0.0
H2129 H 0.06148 0.80153 0.41011 0.0
H2130 H 0.06588 0.78662 0.39428 0.0
H2131 H 0.08339 0.81876 0.39574 0.0
H2132 H 0.08973 0.77342 0.35173 0.0
H2133 H 0.12933 0.85043 0.35591 0.0
H2134 H 0.02968 0.76571 0.35709 0.0
H2135 H 0.04155 0.76007 0.37386 0.0
H2136 H 0.04711 0.75031 0.3561 0.0
H2137 H 0.07815 0.85818 0.36376 0.0
H2138 H 0.11119 0.87226 0.3651 0.0
H2139 H 0.09199 0.85621 0.3808 0.0
C2140 C 0.23016 0.22228 0.3866 0.0
C2141 C 0.2117 0.19935 0.39108 0.0
C2142 C 0.22424 0.23798 0.37918 0.0
C2143 C 0.19925 0.23065 0.37635 0.0
C2144 C 0.18052 0.20752 0.38086 0.0
C2145 C 0.187 0.19208 0.38811 0.0
C2146 C 0.24472 0.26242 0.37438 0.0
C2147 C 0.15367 0.19922 0.37818 0.0
C2148 C 0.18432 0.28051 0.37024 0.0
C2149 C 0.18217 0.28038 0.35461 0.0
C2150 C 0.18939 0.2641 0.37748 0.0
C2151 C 0.19273 0.24738 0.36886 0.0
C2152 C 0.19044 0.24708 0.35308 0.0
C2153 C 0.18506 0.26355 0.34616 0.0
C2154 C 0.19131 0.26474 0.39436 0.0
C2155 C 0.19418 0.22974 0.34348 0.0
H2156 H 0.24928 0.22781 0.38873 0.0
H2157 H 0.1727 0.17443 0.3917 0.0
H2158 H 0.24362 0.26458 0.36213 0.0
H2159 H 0.24269 0.27682 0.37996 0.0
H2160 H 0.26322 0.26513 0.37711 0.0
H2161 H 0.14137 0.18064 0.38231 0.0
H2162 H 0.14872 0.21162 0.38389 0.0
H2163 H 0.15018 0.19973 0.36605 0.0
H2164 H 0.18179 0.29332 0.37684 0.0
H2165 H 0.1839 0.2637 0.33413 0.0
H2166 H 0.21011 0.26912 0.39779 0.0
H2167 H 0.17829 0.24675 0.399 0.0
H2168 H 0.18731 0.27827 0.39943 0.0
H2169 H 0.21324 0.23319 0.34494 0.0
H2170 H 0.19098 0.23133 0.3314 0.0
H2171 H 0.18154 0.21093 0.34704 0.0
C2172 C 0.67097 0.53497 0.70463 0.0
C2173 C 0.66853 0.53774 0.72007 0.0
C2174 C 0.69165 0.552 0.69663 0.0
C2175 C 0.71084 0.57194 0.70429 0.0
C2176 C 0.70899 0.57443 0.71991 0.0
C2177 C 0.68775 0.55765 0.72752 0.0
C2178 C 0.6926 0.54904 0.67992 0.0
C2179 C 0.72933 0.59511 0.7286 0.0
C2180 C 0.77536 0.60863 0.68843 0.0
C2181 C 0.7761 0.63027 0.68492 0.0
C2182 C 0.75381 0.5889 0.69402 0.0
C2183 C 0.73248 0.59089 0.69602 0.0
C2184 C 0.7328 0.61225 0.69159 0.0
C2185 C 0.75479 0.63189 0.68644 0.0
C2186 C 0.7545 0.56668 0.69881 0.0
C2187 C 0.71025 0.61482 0.69297 0.0
H2188 H 0.65669 0.51951 0.6987 0.0
H2189 H 0.68614 0.56053 0.73931 0.0
H2190 H 0.69154 0.56383 0.67419 0.0
H2191 H 0.71028 0.55035 0.67668 0.0
H2192 H 0.67725 0.53156 0.6758 0.0
H2193 H 0.72608 0.59329 0.74086 0.0
H2194 H 0.74725 0.59622 0.72629 0.0
H2195 H 0.73088 0.61236 0.72498 0.0
H2196 H 0.79197 0.60752 0.68768 0.0
H2197 H 0.75547 0.64873 0.68382 0.0
H2198 H 0.73806 0.55013 0.69463 0.0
H2199 H 0.75425 0.56577 0.71122 0.0
H2200 H 0.77126 0.56674 0.69473 0.0
H2201 H 0.69388 0.59866 0.68831 0.0
H2202 H 0.71249 0.63104 0.68707 0.0
H2203 H 0.70656 0.61628 0.70495 0.0
C2204 C 0.4516 0.1383 0.73128 0.0
C2205 C 0.46825 0.13388 0.72333 0.0
C2206 C 0.43309 0.14063 0.72386 0.0
C2207 C 0.4312 0.13871 0.70804 0.0
C2208 C 0.44818 0.13465 0.69993 0.0
C2209 C 0.4664 0.13225 0.70764 0.0
C2210 C 0.41532 0.14481 0.73298 0.0
C2211 C 0.44723 0.13295 0.68309 0.0
C2212 C 0.36823 0.12061 0.69149 0.0
C2213 C 0.37086 0.14295 0.68761 0.0
C2214 C 0.38791 0.11891 0.69771 0.0
C2215 C 0.4109 0.14011 0.70013 0.0
C2216 C 0.41388 0.16268 0.6958 0.0
C2217 C 0.3937 0.16385 0.6899 0.0
C2218 C 0.38385 0.09448 0.70216 0.0
C2219 C 0.43814 0.1857 0.69782 0.0
H2220 H 0.45304 0.14003 0.74336 0.0
H2221 H 0.47891 0.12858 0.70134 0.0
H2222 H 0.41606 0.16173 0.7294 0.0
H2223 H 0.39624 0.12988 0.73102 0.0
H2224 H 0.41933 0.14603 0.74517 0.0
H2225 H 0.46006 0.12734 0.67853 0.0
H2226 H 0.42831 0.11995 0.67922 0.0
H2227 H 0.45229 0.15085 0.67842 0.0
H2228 H 0.35049 0.10443 0.68996 0.0
H2229 H 0.39578 0.18125 0.68743 0.0
H2230 H 0.38618 0.09401 0.71445 0.0
H2231 H 0.39778 0.09112 0.69677 0.0
H2232 H 0.36522 0.07966 0.699 0.0
H2233 H 0.43815 0.20134 0.69246 0.0
H2234 H 0.45329 0.18371 0.69296 0.0
H2235 H 0.44212 0.18964 0.70993 0.0
C2236 C 0.88232 0.34279 0.70346 0.0
C2237 C 0.90322 0.3535 0.71274 0.0
C2238 C 0.87494 0.32069 0.6963 0.0
C2239 C 0.8887 0.30896 0.69855 0.0
C2240 C 0.91032 0.32007 0.70745 0.0
C2241 C 0.91733 0.34224 0.71444 0.0
C2242 C 0.85176 0.30936 0.6869 0.0
C2243 C 0.9255 0.3081 0.71007 0.0
C2244 C 0.85426 0.24084 0.69645 0.0
C2245 C 0.86102 0.23663 0.6823 0.0
C2246 C 0.86314 0.2643 0.70181 0.0
C2247 C 0.8792 0.28408 0.69281 0.0
C2248 C 0.88607 0.27999 0.67848 0.0
C2249 C 0.87694 0.25624 0.67341 0.0
C2250 C 0.85532 0.26791 0.71715 0.0
C2251 C 0.90313 0.30068 0.66858 0.0
H2252 H 0.87117 0.35125 0.70222 0.0
H2253 H 0.93371 0.35062 0.72141 0.0
H2254 H 0.85519 0.30359 0.67587 0.0
H2255 H 0.83732 0.293 0.69256 0.0
H2256 H 0.84457 0.32186 0.68502 0.0
H2257 H 0.94286 0.32 0.71623 0.0
H2258 H 0.91466 0.29139 0.71665 0.0
H2259 H 0.9301 0.30279 0.69925 0.0
H2260 H 0.84185 0.22572 0.70334 0.0
H2261 H 0.88258 0.25304 0.66259 0.0
H2262 H 0.84592 0.27863 0.71624 0.0
H2263 H 0.87174 0.2782 0.7244 0.0
H2264 H 0.84269 0.25057 0.72271 0.0
H2265 H 0.89539 0.31264 0.66652 0.0
H2266 H 0.90629 0.29443 0.65763 0.0
H2267 H 0.92114 0.31167 0.67428 0.0
C2268 C 0.22381 0.99829 0.61617 0.0
C2269 C 0.19937 0.99307 0.61461 0.0
C2270 C 0.24167 0.01983 0.62295 0.0
C2271 C 0.23497 0.03664 0.62819 0.0
C2272 C 0.21039 0.03159 0.62649 0.0
C2273 C 0.19286 0.00981 0.61978 0.0
C2274 C 0.26761 0.02443 0.62472 0.0
C2275 C 0.2026 0.04916 0.63183 0.0
C2276 C 0.27333 0.08085 0.65884 0.0
C2277 C 0.28759 0.10195 0.65072 0.0
C2278 C 0.25625 0.05943 0.65163 0.0
C2279 C 0.25348 0.05915 0.63589 0.0
C2280 C 0.26828 0.08037 0.62758 0.0
C2281 C 0.28531 0.10154 0.63511 0.0
C2282 C 0.24111 0.03714 0.6609 0.0
C2283 C 0.26579 0.08083 0.61079 0.0
H2284 H 0.22887 0.98529 0.61234 0.0
H2285 H 0.17406 0.00597 0.61843 0.0
H2286 H 0.28079 0.04167 0.61931 0.0
H2287 H 0.27256 0.02616 0.63678 0.0
H2288 H 0.26995 0.00976 0.61978 0.0
H2289 H 0.18297 0.04288 0.62926 0.0
H2290 H 0.20543 0.05185 0.6441 0.0
H2291 H 0.21416 0.06697 0.62651 0.0
H2292 H 0.27582 0.08095 0.6708 0.0
H2293 H 0.2964 0.11794 0.62885 0.0
H2294 H 0.24406 0.02233 0.65699 0.0
H2295 H 0.22125 0.03095 0.65948 0.0
H2296 H 0.24576 0.04034 0.67301 0.0
H2297 H 0.26888 0.06688 0.6055 0.0
H2298 H 0.279 0.09865 0.60596 0.0
H2299 H 0.24683 0.0765 0.60782 0.0
C2300 C 0.0034 0.19893 0.63638 0.0
C2301 C 0.0037 0.19723 0.6207 0.0
C2302 C 0.98188 0.19425 0.64404 0.0
C2303 C 0.9601 0.18794 0.63586 0.0
C2304 C 0.96025 0.18609 0.62005 0.0
C2305 C 0.98193 0.19065 0.61269 0.0
C2306 C 0.98258 0.19643 0.66087 0.0
C2307 C 0.93747 0.1794 0.61085 0.0
C2308 C 0.89559 0.15555 0.65221 0.0
C2309 C 0.89058 0.17443 0.65368 0.0
C2310 C 0.91886 0.15994 0.64755 0.0
C2311 C 0.93717 0.18366 0.64363 0.0
C2312 C 0.93235 0.20289 0.64559 0.0
C2313 C 0.90903 0.19799 0.65049 0.0
C2314 C 0.92331 0.13898 0.64601 0.0
C2315 C 0.95122 0.22842 0.64155 0.0
H2316 H 0.02014 0.20432 0.6427 0.0
H2317 H 0.98176 0.18884 0.60062 0.0
H2318 H 0.98087 0.21225 0.66413 0.0
H2319 H 0.96684 0.18024 0.66584 0.0
H2320 H 0.99993 0.19868 0.66571 0.0
H2321 H 0.94061 0.1788 0.59866 0.0
H2322 H 0.92228 0.16149 0.61432 0.0
H2323 H 0.93128 0.19265 0.61285 0.0
H2324 H 0.88101 0.13723 0.65426 0.0
H2325 H 0.90479 0.21244 0.65112 0.0
H2326 H 0.94126 0.14347 0.65109 0.0
H2327 H 0.92404 0.13507 0.63397 0.0
H2328 H 0.90858 0.12243 0.6514 0.0
H2329 H 0.9693 0.23346 0.64666 0.0
H2330 H 0.94567 0.24158 0.64526 0.0
H2331 H 0.95372 0.22981 0.62923 0.0
C2332 C 0.76889 0.77057 0.62184 0.0
C2333 C 0.78675 0.79428 0.61835 0.0
C2334 C 0.77545 0.75504 0.62887 0.0
C2335 C 0.80049 0.76342 0.63232 0.0
C2336 C 0.81862 0.78728 0.62869 0.0
C2337 C 0.81151 0.80248 0.6218 0.0
C2338 C 0.75559 0.72976 0.63271 0.0
C2339 C 0.84553 0.7967 0.63206 0.0
C2340 C 0.81516 0.73078 0.66237 0.0
C2341 C 0.82028 0.71555 0.65377 0.0
C2342 C 0.80879 0.74658 0.65553 0.0
C2343 C 0.80769 0.74717 0.63972 0.0
C2344 C 0.81313 0.73197 0.63097 0.0
C2345 C 0.81921 0.71621 0.63813 0.0
C2346 C 0.80282 0.76232 0.66524 0.0
C2347 C 0.81247 0.73232 0.61408 0.0
H2348 H 0.74972 0.76431 0.61931 0.0
H2349 H 0.82536 0.82074 0.61895 0.0
H2350 H 0.75927 0.71645 0.62705 0.0
H2351 H 0.75567 0.72683 0.64494 0.0
H2352 H 0.73698 0.72613 0.62936 0.0
H2353 H 0.85734 0.81564 0.62838 0.0
H2354 H 0.84824 0.79574 0.64426 0.0
H2355 H 0.85178 0.78528 0.62639 0.0
H2356 H 0.81533 0.72982 0.67441 0.0
H2357 H 0.82338 0.70454 0.63146 0.0
H2358 H 0.78355 0.75787 0.66318 0.0
H2359 H 0.81488 0.78155 0.6623 0.0
H2360 H 0.80511 0.76007 0.67736 0.0
H2361 H 0.79369 0.72723 0.61016 0.0
H2362 H 0.8178 0.71977 0.60894 0.0
H2363 H 0.82512 0.7508 0.60997 0.0
C2364 C 0.98045 0.78201 0.61383 0.0
C2365 C 0.00226 0.79795 0.62143 0.0
C2366 C 0.95981 0.76447 0.62156 0.0
C2367 C 0.96086 0.76284 0.63733 0.0
C2368 C 0.9825 0.77936 0.64514 0.0
C2369 C 0.00294 0.79667 0.63711 0.0
C2370 C 0.93708 0.74722 0.61279 0.0
C2371 C 0.98417 0.77849 0.66196 0.0
C2372 C 0.89861 0.72478 0.65585 0.0
C2373 C 0.89745 0.70241 0.65688 0.0
C2374 C 0.91977 0.74509 0.65038 0.0
C2375 C 0.93989 0.74273 0.64538 0.0
C2376 C 0.93902 0.72031 0.64685 0.0
C2377 C 0.9178 0.70044 0.65256 0.0
C2378 C 0.92006 0.76873 0.64931 0.0
C2379 C 0.96006 0.71699 0.64171 0.0
H2380 H 0.97952 0.78316 0.60177 0.0
H2381 H 0.01971 0.80878 0.6431 0.0
H2382 H 0.93348 0.72853 0.61419 0.0
H2383 H 0.9208 0.74774 0.61714 0.0
H2384 H 0.93887 0.75144 0.60065 0.0
H2385 H 0.00254 0.79213 0.66634 0.0
H2386 H 0.97005 0.78175 0.66715 0.0
H2387 H 0.9803 0.76035 0.66551 0.0
H2388 H 0.88274 0.72628 0.65888 0.0
H2389 H 0.91681 0.68307 0.65325 0.0
H2390 H 0.91798 0.77238 0.63742 0.0
H2391 H 0.93785 0.78379 0.65341 0.0
H2392 H 0.90491 0.76856 0.65584 0.0
H2393 H 0.96209 0.71928 0.62939 0.0
H2394 H 0.95721 0.69891 0.64457 0.0
H2395 H 0.97758 0.73091 0.64687 0.0
C2396 C 0.20501 0.20096 0.63395 0.0
C2397 C 0.20294 0.19921 0.61829 0.0
C2398 C 0.2232 0.19841 0.64156 0.0
C2399 C 0.23989 0.19403 0.63337 0.0
C2400 C 0.23772 0.19192 0.61757 0.0
C2401 C 0.21928 0.19446 0.61024 0.0
C2402 C 0.22445 0.20035 0.65838 0.0
C2403 C 0.25518 0.18739 0.60837 0.0
C2404 C 0.30314 0.21279 0.64967 0.0
C2405 C 0.30062 0.19064 0.6539 0.0
C2406 C 0.28337 0.21418 0.64334 0.0
C2407 C 0.2604 0.19285 0.64117 0.0
C2408 C 0.25757 0.17046 0.64579 0.0
C2409 C 0.27784 0.16957 0.65184 0.0
C2410 C 0.28724 0.23844 0.63863 0.0
C2411 C 0.23333 0.14734 0.64403 0.0
H2412 H 0.19272 0.20487 0.64031 0.0
H2413 H 0.21764 0.19267 0.59816 0.0
H2414 H 0.21897 0.18239 0.66311 0.0
H2415 H 0.24353 0.21308 0.66214 0.0
H2416 H 0.21204 0.20646 0.66297 0.0
H2417 H 0.25076 0.18572 0.59622 0.0
H2418 H 0.27431 0.20239 0.61003 0.0
H2419 H 0.25458 0.17062 0.61212 0.0
H2420 H 0.32083 0.22907 0.65108 0.0
H2421 H 0.27592 0.15233 0.65472 0.0
H2422 H 0.27354 0.24199 0.64414 0.0
H2423 H 0.28442 0.23847 0.62636 0.0
H2424 H 0.30598 0.25338 0.64146 0.0
H2425 H 0.21829 0.14934 0.64905 0.0
H2426 H 0.23356 0.13183 0.64939 0.0
H2427 H 0.22899 0.14323 0.63196 0.0
C2428 C 0.77533 0.98577 0.63432 0.0
C2429 C 0.78523 0.98569 0.62029 0.0
C2430 C 0.78099 0.00751 0.64143 0.0
C2431 C 0.79711 0.02961 0.63436 0.0
C2432 C 0.80753 0.02962 0.62032 0.0
C2433 C 0.80135 0.00763 0.61341 0.0
C2434 C 0.76936 0.00683 0.65634 0.0
C2435 C 0.82502 0.05287 0.61254 0.0
C2436 C 0.79338 0.08535 0.64387 0.0
C2437 C 0.81332 0.09757 0.65372 0.0
C2438 C 0.78762 0.06297 0.63773 0.0
C2439 C 0.80239 0.05274 0.64137 0.0
C2440 C 0.82251 0.06491 0.65134 0.0
C2441 C 0.82771 0.08718 0.65741 0.0
C2442 C 0.76587 0.0504 0.62722 0.0
C2443 C 0.83886 0.05469 0.65535 0.0
H2444 H 0.7627 0.96879 0.63959 0.0
H2445 H 0.80925 0.00756 0.60264 0.0
H2446 H 0.78382 0.0174 0.66479 0.0
H2447 H 0.75773 0.0153 0.65529 0.0
H2448 H 0.75779 0.98816 0.66053 0.0
H2449 H 0.83231 0.04975 0.60196 0.0
H2450 H 0.81549 0.06307 0.60993 0.0
H2451 H 0.84075 0.06439 0.62003 0.0
H2452 H 0.78223 0.09321 0.64088 0.0
H2453 H 0.84348 0.09671 0.66476 0.0
H2454 H 0.753 0.03197 0.63132 0.0
H2455 H 0.77223 0.04849 0.61598 0.0
H2456 H 0.75566 0.06032 0.62603 0.0
H2457 H 0.82767 0.03627 0.65994 0.0
H2458 H 0.85322 0.06602 0.6637 0.0
H2459 H 0.84806 0.05321 0.64513 0.0
C2460 C 0.4618 0.34325 0.71052 0.0
C2461 C 0.47024 0.34411 0.72519 0.0
C2462 C 0.4447 0.32126 0.70383 0.0
C2463 C 0.43589 0.29959 0.71199 0.0
C2464 C 0.4443 0.30033 0.7268 0.0
C2465 C 0.46135 0.32257 0.73322 0.0
C2466 C 0.43609 0.32119 0.68802 0.0
C2467 C 0.4355 0.27759 0.73582 0.0
C2468 C 0.3761 0.2445 0.69953 0.0
C2469 C 0.38481 0.23163 0.6913 0.0
C2470 C 0.39252 0.26667 0.70633 0.0
C2471 C 0.41821 0.27608 0.70493 0.0
C2472 C 0.42707 0.263 0.69679 0.0
C2473 C 0.41028 0.24094 0.69013 0.0
C2474 C 0.38238 0.28009 0.71493 0.0
C2475 C 0.45431 0.27232 0.69506 0.0
H2476 H 0.46837 0.35985 0.70431 0.0
H2477 H 0.46805 0.32305 0.74449 0.0
H2478 H 0.44072 0.30999 0.68071 0.0
H2479 H 0.41578 0.31302 0.68778 0.0
H2480 H 0.44453 0.33961 0.68325 0.0
H2481 H 0.44352 0.28129 0.74728 0.0
H2482 H 0.41515 0.26797 0.73673 0.0
H2483 H 0.44048 0.26528 0.73004 0.0
H2484 H 0.35646 0.23743 0.70052 0.0
H2485 H 0.4172 0.23091 0.68405 0.0
H2486 H 0.38905 0.29813 0.70993 0.0
H2487 H 0.38911 0.28299 0.72667 0.0
H2488 H 0.36194 0.2703 0.71501 0.0
H2489 H 0.46311 0.29004 0.68936 0.0
H2490 H 0.45814 0.2598 0.68849 0.0
H2491 H 0.4631 0.27513 0.70624 0.0
C2492 C 0.66617 0.13221 0.70503 0.0
C2493 C 0.66564 0.13198 0.72075 0.0
C2494 C 0.68706 0.13562 0.69715 0.0
C2495 C 0.70798 0.13868 0.70511 0.0
C2496 C 0.70768 0.13868 0.72097 0.0
C2497 C 0.68664 0.13548 0.72858 0.0
C2498 C 0.6866 0.13565 0.68029 0.0
C2499 C 0.72945 0.14162 0.72995 0.0
C2500 C 0.75187 0.12142 0.68692 0.0
C2501 C 0.77247 0.14395 0.68399 0.0
C2502 C 0.73054 0.11947 0.69336 0.0
C2503 C 0.72971 0.14061 0.69694 0.0
C2504 C 0.75025 0.16346 0.69356 0.0
C2505 C 0.77159 0.16487 0.68741 0.0
C2506 C 0.70932 0.09475 0.69694 0.0
C2507 C 0.74998 0.18645 0.69681 0.0
H2508 H 0.65002 0.12921 0.69881 0.0
H2509 H 0.68669 0.13577 0.74071 0.0
H2510 H 0.70257 0.15244 0.67613 0.0
H2511 H 0.68823 0.12031 0.67589 0.0
H2512 H 0.66948 0.13434 0.67573 0.0
H2513 H 0.72645 0.14147 0.74221 0.0
H2514 H 0.73315 0.12683 0.72716 0.0
H2515 H 0.74617 0.15882 0.72701 0.0
H2516 H 0.75274 0.10524 0.68455 0.0
H2517 H 0.78776 0.18234 0.68558 0.0
H2518 H 0.69206 0.09231 0.69188 0.0
H2519 H 0.70658 0.09291 0.70924 0.0
H2520 H 0.71241 0.0801 0.69283 0.0
H2521 H 0.73306 0.18537 0.69213 0.0
H2522 H 0.76625 0.20249 0.69206 0.0
H2523 H 0.7498 0.18898 0.70909 0.0
C2524 C 0.89379 0.54422 0.70754 0.0
C2525 C 0.88537 0.53469 0.72183 0.0
C2526 C 0.88668 0.55954 0.70082 0.0
C2527 C 0.87074 0.56544 0.70858 0.0
C2528 C 0.86192 0.55566 0.72293 0.0
C2529 C 0.8694 0.54042 0.72941 0.0
C2530 C 0.89658 0.56977 0.68554 0.0
C2531 C 0.8448 0.56148 0.73149 0.0
C2532 C 0.87317 0.62393 0.69838 0.0
C2533 C 0.85257 0.61585 0.68898 0.0
C2534 C 0.87919 0.60767 0.70487 0.0
C2535 C 0.8642 0.58271 0.70194 0.0
C2536 C 0.84325 0.57439 0.69257 0.0
C2537 C 0.83764 0.59108 0.68623 0.0
C2538 C 0.90172 0.61723 0.71479 0.0
C2539 C 0.82679 0.54789 0.68923 0.0
H2540 H 0.90636 0.54004 0.70172 0.0
H2541 H 0.86259 0.53282 0.74036 0.0
H2542 H 0.88118 0.56549 0.67769 0.0
H2543 H 0.90791 0.5897 0.68628 0.0
H2544 H 0.90804 0.56266 0.68076 0.0
H2545 H 0.83891 0.55171 0.74229 0.0
H2546 H 0.85405 0.58113 0.73381 0.0
H2547 H 0.82818 0.55676 0.72466 0.0
H2548 H 0.88478 0.64303 0.70061 0.0
H2549 H 0.82144 0.58465 0.6792 0.0
H2550 H 0.91482 0.61211 0.71008 0.0
H2551 H 0.89644 0.60908 0.72608 0.0
H2552 H 0.91133 0.63716 0.71602 0.0
H2553 H 0.83758 0.54058 0.68379 0.0
H2554 H 0.81113 0.5444 0.68178 0.0
H2555 H 0.81937 0.53784 0.69981 0.0
C2556 C 0.47221 0.96091 0.17418 0.0
C2557 C 0.47517 0.94102 0.17725 0.0
C2558 C 0.47813 0.97206 0.16008 0.0
C2559 C 0.48717 0.96312 0.14869 0.0
C2560 C 0.48972 0.94275 0.15161 0.0
C2561 C 0.48375 0.93201 0.16584 0.0
C2562 C 0.47526 0.99381 0.15748 0.0
C2563 C 0.49911 0.93253 0.13977 0.0
C2564 C 0.48558 0.98217 0.10843 0.0
C2565 C 0.50979 0.0012 0.10653 0.0
C2566 C 0.47802 0.96939 0.12199 0.0
C2567 C 0.49502 0.97577 0.13398 0.0
C2568 C 0.51957 0.99467 0.13204 0.0
C2569 C 0.52664 0.00705 0.11837 0.0
C2570 C 0.45171 0.94931 0.12357 0.0
C2571 C 0.53834 0.00203 0.14449 0.0
H2572 H 0.46586 0.96818 0.18296 0.0
H2573 H 0.48576 0.91644 0.16802 0.0
H2574 H 0.49351 0.00979 0.15518 0.0
H2575 H 0.46349 0.99085 0.14751 0.0
H2576 H 0.46702 0.99792 0.16725 0.0
H2577 H 0.49903 0.916 0.14358 0.0
H2578 H 0.48767 0.92815 0.12949 0.0
H2579 H 0.5182 0.94616 0.13667 0.0
H2580 H 0.47234 0.97763 0.09943 0.0
H2581 H 0.5455 0.02139 0.11695 0.0
H2582 H 0.44249 0.95393 0.1325 0.0
H2583 H 0.45122 0.93244 0.12698 0.0
H2584 H 0.44103 0.94586 0.11302 0.0
H2585 H 0.53212 0.00799 0.15441 0.0
H2586 H 0.55675 0.01689 0.14114 0.0
H2587 H 0.54015 0.98639 0.14798 0.0
C2588 C 0.02079 0.52446 0.17189 0.0
C2589 C 0.03801 0.5173 0.17534 0.0
C2590 C 0.00927 0.5195 0.15783 0.0
C2591 C 0.01498 0.50692 0.14698 0.0
C2592 C 0.03196 0.4992 0.15047 0.0
C2593 C 0.04333 0.50454 0.1646 0.0
C2594 C 0.99123 0.528 0.15451 0.0
C2595 C 0.03843 0.48566 0.13918 0.0
C2596 C 0.97014 0.47785 0.11464 0.0
C2597 C 0.9817 0.49488 0.10328 0.0
C2598 C 0.98092 0.48136 0.12888 0.0
C2599 C 0.0037 0.50248 0.13182 0.0
C2600 C 0.0155 0.51966 0.12037 0.0
C2601 C 0.00438 0.51562 0.10621 0.0
C2602 C 0.9679 0.46255 0.1408 0.0
C2603 C 0.03971 0.54249 0.12312 0.0
H2604 H 0.01625 0.53394 0.18023 0.0
H2605 H 0.05681 0.49918 0.16713 0.0
H2606 H 0.99791 0.54068 0.14495 0.0
H2607 H 0.97316 0.51249 0.1512 0.0
H2608 H 0.98849 0.5372 0.16427 0.0
H2609 H 0.05113 0.47997 0.14388 0.0
H2610 H 0.02149 0.46943 0.13516 0.0
H2611 H 0.04729 0.49721 0.1293 0.0
H2612 H 0.95273 0.46167 0.11234 0.0
H2613 H 0.01322 0.52895 0.0975 0.0
H2614 H 0.96346 0.47062 0.15045 0.0
H2615 H 0.98015 0.456 0.14501 0.0
H2616 H 0.95059 0.44688 0.1366 0.0
H2617 H 0.03753 0.55326 0.13211 0.0
H2618 H 0.0467 0.55381 0.11293 0.0
H2619 H 0.05376 0.53802 0.12699 0.0
C2620 C 0.45309 0.5059 0.1649 0.0
C2621 C 0.47118 0.51814 0.17591 0.0
C2622 C 0.45921 0.5004 0.15086 0.0
C2623 C 0.484 0.50728 0.14776 0.0
C2624 C 0.5023 0.51955 0.15884 0.0
C2625 C 0.49567 0.52478 0.17276 0.0
C2626 C 0.43918 0.48733 0.13932 0.0
C2627 C 0.52892 0.52713 0.15601 0.0
C2628 C 0.49896 0.47539 0.11704 0.0
C2629 C 0.50646 0.49212 0.10533 0.0
C2630 C 0.49118 0.47989 0.1308 0.0
C2631 C 0.49091 0.50167 0.13294 0.0
C2632 C 0.49812 0.51848 0.1211 0.0
C2633 C 0.5058 0.5135 0.10745 0.0
C2634 C 0.48352 0.46146 0.14312 0.0
C2635 C 0.49819 0.54195 0.12295 0.0
H2636 H 0.43418 0.50092 0.16717 0.0
H2637 H 0.5097 0.53386 0.18128 0.0
H2638 H 0.44332 0.49852 0.12912 0.0
H2639 H 0.43844 0.47029 0.13595 0.0
H2640 H 0.42078 0.48302 0.14352 0.0
H2641 H 0.54094 0.53669 0.16576 0.0
H2642 H 0.53062 0.51108 0.1534 0.0
H2643 H 0.53577 0.53919 0.14615 0.0
H2644 H 0.49906 0.45867 0.11542 0.0
H2645 H 0.51182 0.52665 0.09853 0.0
H2646 H 0.46459 0.45597 0.14687 0.0
H2647 H 0.49589 0.46949 0.15294 0.0
H2648 H 0.48405 0.44511 0.13952 0.0
H2649 H 0.47973 0.53842 0.12647 0.0
H2650 H 0.50334 0.55265 0.11247 0.0
H2651 H 0.5114 0.55296 0.13189 0.0
C2652 C 0.98622 0.4691 0.83426 0.0
C2653 C 0.96871 0.47565 0.83027 0.0
C2654 C 0.99631 0.47347 0.84874 0.0
C2655 C 0.9889 0.48486 0.85946 0.0
C2656 C 0.9711 0.49135 0.85557 0.0
C2657 C 0.96116 0.48659 0.84104 0.0
C2658 C 0.0152 0.46623 0.85248 0.0
C2659 C 0.96277 0.50355 0.86671 0.0
C2660 C 1.00081 0.47925 0.90058 0.0
C2661 C 0.02263 0.50107 0.90321 0.0
C2662 C 0.98953 0.47375 0.88641 0.0
C2663 C 1.00028 0.49056 0.87464 0.0
C2664 C 0.02215 0.51274 0.87728 0.0
C2665 C 0.0331 0.51769 0.89153 0.0
C2666 C 0.96633 0.44984 0.88398 0.0
C2667 C 0.03402 0.53122 0.86505 0.0
H2668 H 0.99242 0.46096 0.82596 0.0
H2669 H 0.94737 0.49136 0.83813 0.0
H2670 H 0.033 0.48247 0.85537 0.0
H2671 H 0.00926 0.45432 0.86242 0.0
H2672 H 0.01825 0.45667 0.84306 0.0
H2673 H 0.94854 0.50715 0.86198 0.0
H2674 H 0.95516 0.49216 0.8768 0.0
H2675 H 0.97872 0.52091 0.87042 0.0
H2676 H 0.99279 0.46626 0.90955 0.0
H2677 H 0.04979 0.53472 0.89358 0.0
H2678 H 0.96949 0.4393 0.87527 0.0
H2679 H 0.95134 0.45277 0.87986 0.0
H2680 H 0.96006 0.43895 0.89438 0.0
H2681 H 0.03918 0.5234 0.85559 0.0
H2682 H 0.05076 0.54776 0.86902 0.0
H2683 H 0.02075 0.53637 0.86065 0.0
C2684 C 0.55223 0.49419 0.84447 0.0
C2685 C 0.5341 0.48167 0.83353 0.0
C2686 C 0.54609 0.49957 0.85854 0.0
C2687 C 0.52123 0.49227 0.86175 0.0
C2688 C 0.50288 0.47973 0.85073 0.0
C2689 C 0.50953 0.47464 0.83678 0.0
C2690 C 0.56617 0.51296 0.87 0.0
C2691 C 0.47618 0.4717 0.85368 0.0
C2692 C 0.4997 0.48582 0.90213 0.0
C2693 C 0.49856 0.50696 0.90425 0.0
C2694 C 0.50747 0.48102 0.88846 0.0
C2695 C 0.51429 0.49775 0.8766 0.0
C2696 C 0.51356 0.5193 0.87874 0.0
C2697 C 0.5057 0.52363 0.89253 0.0
C2698 C 0.50789 0.45779 0.88661 0.0
C2699 C 0.52079 0.53764 0.8664 0.0
H2700 H 0.5712 0.49948 0.84212 0.0
H2701 H 0.49546 0.46533 0.82831 0.0
H2702 H 0.56659 0.52984 0.87338 0.0
H2703 H 0.56234 0.50185 0.88021 0.0
H2704 H 0.58462 0.51759 0.86572 0.0
H2705 H 0.46413 0.46196 0.84397 0.0
H2706 H 0.46963 0.45967 0.86356 0.0
H2707 H 0.47415 0.48756 0.8563 0.0
H2708 H 0.49395 0.47272 0.91107 0.0
H2709 H 0.50523 0.54017 0.89415 0.0
H2710 H 0.52642 0.46166 0.883 0.0
H2711 H 0.49466 0.44658 0.87773 0.0
H2712 H 0.50306 0.44717 0.89711 0.0
H2713 H 0.53974 0.54343 0.86258 0.0
H2714 H 0.51996 0.55384 0.87001 0.0
H2715 H 0.50835 0.52942 0.85663 0.0
C2716 C 0.51132 0.05675 0.84196 0.0
C2717 C 0.53056 0.05776 0.83331 0.0
C2718 C 0.50566 0.04602 0.8562 0.0
C2719 C 0.5188 0.03506 0.8618 0.0
C2720 C 0.53814 0.03589 0.85321 0.0
C2721 C 0.54409 0.0476 0.83928 0.0
C2722 C 0.48539 0.04621 0.86518 0.0
C2723 C 0.55226 0.02392 0.85858 0.0
C2724 C 0.51799 0.02026 0.90323 0.0
C2725 C 0.49945 0.99585 0.9037 0.0
C2726 C 0.52391 0.03345 0.88982 0.0
C2727 C 0.5117 0.02185 0.87635 0.0
C2728 C 0.49297 0.99734 0.87671 0.0
C2729 C 0.48673 0.98487 0.89036 0.0
C2730 C 0.54343 0.05978 0.89004 0.0
C2731 C 0.47981 0.98407 0.86258 0.0
H2732 H 0.50026 0.06398 0.83756 0.0
H2733 H 0.55943 0.0487 0.8331 0.0
H2734 H 0.46967 0.02759 0.86623 0.0
H2735 H 0.49201 0.05305 0.87668 0.0
H2736 H 0.47864 0.05755 0.85996 0.0
H2737 H 0.56644 0.02572 0.85044 0.0
H2738 H 0.56144 0.03191 0.8694 0.0
H2739 H 0.53936 0.00446 0.86051 0.0
H2740 H 0.52834 0.02908 0.91327 0.0
H2741 H 0.47185 0.96636 0.89048 0.0
H2742 H 0.53635 0.0707 0.88464 0.0
H2743 H 0.55965 0.06249 0.88353 0.0
H2744 H 0.54959 0.0667 0.90159 0.0
H2745 H 0.47006 0.99272 0.85748 0.0
H2746 H 0.46622 0.96481 0.86466 0.0
H2747 H 0.49339 0.98502 0.85427 0.0
C2748 C 0.14866 0.26597 0.49708 0.0
C2749 C 0.14006 0.27491 0.50854 0.0
C2750 C 0.15496 0.27702 0.48295 0.0
C2751 C 0.15273 0.29759 0.48016 0.0
C2752 C 0.1437 0.30648 0.49159 0.0
C2753 C 0.13746 0.29504 0.5056 0.0
C2754 C 0.16433 0.26684 0.47106 0.0
C2755 C 0.14115 0.32844 0.48913 0.0
C2756 C 0.19262 0.34161 0.44999 0.0
C2757 C 0.17586 0.33593 0.43812 0.0
C2758 C 0.18537 0.32917 0.46364 0.0
C2759 C 0.16074 0.31042 0.46552 0.0
C2760 C 0.14381 0.30425 0.45351 0.0
C2761 C 0.15155 0.31708 0.43998 0.0
C2762 C 0.20406 0.33628 0.47611 0.0
C2763 C 0.11741 0.28434 0.45503 0.0
H2764 H 0.15039 0.25022 0.49915 0.0
H2765 H 0.13111 0.30225 0.51441 0.0
H2766 H 0.15293 0.26263 0.46077 0.0
H2767 H 0.18345 0.28045 0.468 0.0
H2768 H 0.16412 0.25022 0.47479 0.0
H2769 H 0.13298 0.33255 0.49894 0.0
H2770 H 0.1595 0.34433 0.4869 0.0
H2771 H 0.12945 0.32574 0.47917 0.0
H2772 H 0.21154 0.35582 0.4486 0.0
H2773 H 0.13837 0.31269 0.43096 0.0
H2774 H 0.20573 0.32053 0.47952 0.0
H2775 H 0.19786 0.34219 0.48606 0.0
H2776 H 0.22254 0.3511 0.47282 0.0
H2777 H 0.11672 0.26733 0.45834 0.0
H2778 H 0.10678 0.28111 0.44448 0.0
H2779 H 0.10828 0.28898 0.46401 0.0
C2780 C 0.70137 0.83501 0.5011 0.0
C2781 C 0.69494 0.84677 0.51193 0.0
C2782 C 0.69055 0.8299 0.48682 0.0
C2783 C 0.67295 0.8368 0.48328 0.0
C2784 C 0.6663 0.8486 0.49416 0.0
C2785 C 0.67735 0.8534 0.50837 0.0
C2786 C 0.69811 0.81731 0.47548 0.0
C2787 C 0.64758 0.85621 0.49078 0.0
C2788 C 0.66228 0.84403 0.44228 0.0
C2789 C 0.64057 0.8223 0.43923 0.0
C2790 C 0.67295 0.84903 0.45659 0.0
C2791 C 0.66165 0.83186 0.46812 0.0
C2792 C 0.63967 0.80995 0.46514 0.0
C2793 C 0.62936 0.80544 0.45072 0.0
C2794 C 0.69633 0.87266 0.45938 0.0
C2795 C 0.62718 0.79118 0.47714 0.0
H2796 H 0.7152 0.83014 0.50371 0.0
H2797 H 0.67205 0.8622 0.51676 0.0
H2798 H 0.68172 0.80047 0.47154 0.0
H2799 H 0.70628 0.82898 0.46555 0.0
H2800 H 0.7117 0.81272 0.4801 0.0
H2801 H 0.64445 0.86521 0.50049 0.0
H2802 H 0.65381 0.86877 0.48116 0.0
H2803 H 0.62978 0.84026 0.48753 0.0
H2804 H 0.67081 0.85725 0.43347 0.0
H2805 H 0.61274 0.78851 0.44835 0.0
H2806 H 0.71116 0.86925 0.46318 0.0
H2807 H 0.69338 0.88283 0.46844 0.0
H2808 H 0.70272 0.88412 0.44922 0.0
H2809 H 0.63987 0.78511 0.48129 0.0
H2810 H 0.61003 0.77519 0.47304 0.0
H2811 H 0.62257 0.79907 0.48682 0.0
C2812 C 0.13423 0.82842 0.50571 0.0
C2813 C 0.13627 0.85095 0.50838 0.0
C2814 C 0.14105 0.82305 0.49188 0.0
C2815 C 0.15009 0.8406 0.48042 0.0
C2816 C 0.15162 0.86315 0.48292 0.0
C2817 C 0.14471 0.86804 0.49685 0.0
C2818 C 0.13918 0.79881 0.48966 0.0
C2819 C 0.161 0.88228 0.47096 0.0
C2820 C 0.19207 0.83755 0.45093 0.0
C2821 C 0.17599 0.8271 0.43873 0.0
C2822 C 0.18384 0.84193 0.46455 0.0
C2823 C 0.1589 0.83578 0.46604 0.0
C2824 C 0.14256 0.82525 0.45378 0.0
C2825 C 0.15129 0.82103 0.44028 0.0
C2826 C 0.20189 0.85329 0.47734 0.0
C2827 C 0.11584 0.81842 0.45492 0.0
H2828 H 0.12797 0.81521 0.5146 0.0
H2829 H 0.14597 0.88535 0.49875 0.0
H2830 H 0.12812 0.78982 0.4795 0.0
H2831 H 0.15781 0.80129 0.48789 0.0
H2832 H 0.13067 0.78673 0.4994 0.0
H2833 H 0.16015 0.89851 0.47446 0.0
H2834 H 0.18037 0.88785 0.46825 0.0
H2835 H 0.15006 0.87495 0.46053 0.0
H2836 H 0.21126 0.84264 0.44977 0.0
H2837 H 0.13866 0.81267 0.43098 0.0
H2838 H 0.19531 0.84138 0.48727 0.0
H2839 H 0.20322 0.87063 0.4806 0.0
H2840 H 0.22058 0.85674 0.47444 0.0
H2841 H 0.10685 0.80514 0.46404 0.0
H2842 H 0.10555 0.81054 0.44434 0.0
H2843 H 0.1144 0.83452 0.45783 0.0
C2844 C 0.63086 0.80651 0.17815 0.0
C2845 C 0.61276 0.81051 0.1718 0.0
C2846 C 0.63818 0.8127 0.19314 0.0
C2847 C 0.62712 0.82311 0.20193 0.0
C2848 C 0.60826 0.82642 0.19572 0.0
C2849 C 0.60129 0.82005 0.18074 0.0
C2850 C 0.65837 0.80892 0.19939 0.0
C2851 C 0.59599 0.83742 0.20475 0.0
C2852 C 0.63456 0.82639 0.24425 0.0
C2853 C 0.65348 0.85029 0.24631 0.0
C2854 C 0.62589 0.81715 0.22985 0.0
C2855 C 0.63644 0.83219 0.21726 0.0
C2856 C 0.65565 0.85627 0.21928 0.0
C2857 C 0.66392 0.86501 0.23377 0.0
C2858 C 0.60534 0.79139 0.2281 0.0
C2859 C 0.66744 0.87284 0.20612 0.0
H2860 H 0.6399 0.79931 0.17127 0.0
H2861 H 0.58697 0.82277 0.17596 0.0
H2862 H 0.67487 0.82664 0.20186 0.0
H2863 H 0.65245 0.79887 0.21008 0.0
H2864 H 0.66369 0.79888 0.1915 0.0
H2865 H 0.58059 0.83737 0.19857 0.0
H2866 H 0.5888 0.82748 0.21539 0.0
H2867 H 0.6097 0.85633 0.20772 0.0
H2868 H 0.62634 0.815 0.25393 0.0
H2869 H 0.67887 0.88336 0.23529 0.0
H2870 H 0.61121 0.78136 0.22061 0.0
H2871 H 0.58914 0.79099 0.22279 0.0
H2872 H 0.5996 0.78187 0.239 0.0
H2873 H 0.67518 0.86488 0.1983 0.0
H2874 H 0.68241 0.89098 0.20961 0.0
H2875 H 0.65338 0.87498 0.19984 0.0
C2876 C 0.18582 0.79227 0.17583 0.0
C2877 C 0.20468 0.81059 0.16729 0.0
C2878 C 0.17938 0.79713 0.18994 0.0
C2879 C 0.19131 0.82107 0.19546 0.0
C2880 C 0.21026 0.83968 0.18698 0.0
C2881 C 0.21706 0.83414 0.1732 0.0
C2882 C 0.15961 0.77664 0.19887 0.0
C2883 C 0.22302 0.86556 0.19229 0.0
C2884 C 0.15639 0.83683 0.2238 0.0
C2885 C 0.16903 0.83871 0.23721 0.0
C2886 C 0.16368 0.83147 0.21015 0.0
C2887 C 0.18346 0.8268 0.2099 0.0
C2888 C 0.19585 0.82788 0.22338 0.0
C2889 C 0.18886 0.8343 0.23678 0.0
C2890 C 0.15038 0.83112 0.19595 0.0
C2891 C 0.21654 0.82227 0.22366 0.0
H2892 H 0.17564 0.77408 0.17143 0.0
H2893 H 0.2321 0.84844 0.16706 0.0
H2894 H 0.16629 0.77676 0.2104 0.0
H2895 H 0.14326 0.7789 0.19981 0.0
H2896 H 0.15378 0.75879 0.19367 0.0
H2897 H 0.23696 0.87803 0.18419 0.0
H2898 H 0.20924 0.87137 0.19408 0.0
H2899 H 0.23226 0.86729 0.20319 0.0
H2900 H 0.14067 0.83951 0.22389 0.0
H2901 H 0.19925 0.83614 0.24688 0.0
H2902 H 0.14137 0.81286 0.19085 0.0
H2903 H 0.16374 0.84373 0.18767 0.0
H2904 H 0.13614 0.83627 0.19795 0.0
H2905 H 0.2104 0.8044 0.21844 0.0
H2906 H 0.22309 0.82218 0.23522 0.0
H2907 H 0.23229 0.83581 0.21703 0.0
C2908 C 0.21648 0.40019 0.17646 0.0
C2909 C 0.19804 0.39473 0.16569 0.0
C2910 C 0.21081 0.38902 0.19057 0.0
C2911 C 0.18608 0.37199 0.19408 0.0
C2912 C 0.16736 0.36661 0.18334 0.0
C2913 C 0.17356 0.37794 0.16931 0.0
C2914 C 0.23131 0.39528 0.20169 0.0
C2915 C 0.14077 0.34855 0.18658 0.0
C2916 C 0.17158 0.32401 0.22359 0.0
C2917 C 0.16462 0.33293 0.23588 0.0
C2918 C 0.17916 0.33681 0.21008 0.0
C2919 C 0.17977 0.35913 0.20874 0.0
C2920 C 0.17333 0.36854 0.22122 0.0
C2921 C 0.16591 0.35537 0.23464 0.0
C2922 C 0.18608 0.32621 0.19713 0.0
C2923 C 0.17363 0.3922 0.22026 0.0
H2924 H 0.2354 0.41335 0.17389 0.0
H2925 H 0.15919 0.37325 0.16103 0.0
H2926 H 0.22753 0.40191 0.21228 0.0
H2927 H 0.23231 0.3789 0.20443 0.0
H2928 H 0.2495 0.40925 0.19739 0.0
H2929 H 0.12829 0.34705 0.17728 0.0
H2930 H 0.13869 0.33053 0.18852 0.0
H2931 H 0.13481 0.35375 0.19694 0.0
H2932 H 0.17102 0.30688 0.22452 0.0
H2933 H 0.16037 0.36231 0.24403 0.0
H2934 H 0.2048 0.33932 0.19311 0.0
H2935 H 0.17316 0.32241 0.18765 0.0
H2936 H 0.18569 0.30922 0.20017 0.0
H2937 H 0.19189 0.40664 0.21642 0.0
H2938 H 0.16944 0.39769 0.23118 0.0
H2939 H 0.15983 0.3907 0.21189 0.0
C2940 C 0.79955 0.62185 0.83882 0.0
C2941 C 0.80203 0.60162 0.84162 0.0
C2942 C 0.80633 0.63376 0.82498 0.0
C2943 C 0.81577 0.62523 0.81358 0.0
C2944 C 0.81776 0.60448 0.8162 0.0
C2945 C 0.81093 0.59297 0.83017 0.0
C2946 C 0.80402 0.65589 0.82269 0.0
C2947 C 0.82754 0.59467 0.80432 0.0
C2948 C 0.81698 0.64674 0.77364 0.0
C2949 C 0.84146 0.66551 0.77236 0.0
C2950 C 0.80841 0.63327 0.7869 0.0
C2951 C 0.82465 0.63872 0.79921 0.0
C2952 C 0.84944 0.65741 0.79792 0.0
C2953 C 0.85753 0.67048 0.78453 0.0
C2954 C 0.78187 0.61345 0.7878 0.0
C2955 C 0.86741 0.66378 0.81074 0.0
H2956 H 0.79297 0.62884 0.84764 0.0
H2957 H 0.81259 0.57716 0.83215 0.0
H2958 H 0.82252 0.67183 0.82095 0.0
H2959 H 0.79295 0.65374 0.8125 0.0
H2960 H 0.79528 0.65955 0.83238 0.0
H2961 H 0.82683 0.57772 0.80784 0.0
H2962 H 0.81677 0.59115 0.79382 0.0
H2963 H 0.8469 0.60822 0.80174 0.0
H2964 H 0.80434 0.64289 0.76438 0.0
H2965 H 0.87658 0.68462 0.78358 0.0
H2966 H 0.77233 0.61775 0.7967 0.0
H2967 H 0.78084 0.59621 0.79089 0.0
H2968 H 0.77184 0.61083 0.77707 0.0
H2969 H 0.86072 0.66925 0.82066 0.0
H2970 H 0.8861 0.67867 0.80791 0.0
H2971 H 0.86876 0.64778 0.81399 0.0
C2972 C 0.37312 0.20228 0.83343 0.0
C2973 C 0.37139 0.18382 0.84271 0.0
C2974 C 0.36219 0.1972 0.81918 0.0
C2975 C 0.34824 0.17298 0.81431 0.0
C2976 C 0.34592 0.15419 0.82366 0.0
C2977 C 0.35793 0.15986 0.83759 0.0
C2978 C 0.36566 0.21778 0.80933 0.0
C2979 C 0.33058 0.12807 0.819 0.0
C2980 C 0.30151 0.16047 0.78355 0.0
C2981 C 0.3131 0.15745 0.77096 0.0
C2982 C 0.31243 0.16487 0.79779 0.0
C2983 C 0.33601 0.16732 0.79941 0.0
C2984 C 0.34803 0.16467 0.78679 0.0
C2985 C 0.33623 0.15925 0.77281 0.0
C2986 C 0.29873 0.1669 0.81109 0.0
C2987 C 0.3735 0.16783 0.78802 0.0
H2988 H 0.38287 0.22081 0.83728 0.0
H2989 H 0.35681 0.1454 0.8444 0.0
H2990 H 0.37317 0.21662 0.79832 0.0
H2991 H 0.34767 0.2166 0.80721 0.0
H2992 H 0.37831 0.23566 0.81442 0.0
H2993 H 0.32959 0.11556 0.8279 0.0
H2994 H 0.3116 0.12387 0.81618 0.0
H2995 H 0.33842 0.12463 0.8088 0.0
H2996 H 0.28392 0.15964 0.78234 0.0
H2997 H 0.3452 0.15635 0.76334 0.0
H2998 H 0.30893 0.18536 0.81586 0.0
H2999 H 0.29742 0.15428 0.82 0.0
H3000 H 0.27985 0.16287 0.8081 0.0
H3001 H 0.3864 0.18579 0.79289 0.0
H3002 H 0.38075 0.16622 0.777 0.0
H3003 H 0.37327 0.15411 0.79565 0.0
C3004 C 0.80523 0.2027 0.82825 0.0
C3005 C 0.79707 0.18573 0.83984 0.0
C3006 C 0.81221 0.1978 0.81434 0.0
C3007 C 0.81106 0.1754 0.81196 0.0
C3008 C 0.80227 0.15796 0.82348 0.0
C3009 C 0.79535 0.16332 0.83727 0.0
C3010 C 0.82131 0.2168 0.80231 0.0
C3011 C 0.80086 0.1339 0.82138 0.0
C3012 C 0.81293 0.15573 0.77195 0.0
C3013 C 0.83779 0.16232 0.77049 0.0
C3014 C 0.80393 0.15981 0.78538 0.0
C3015 C 0.82015 0.17068 0.79766 0.0
C3016 C 0.84522 0.17729 0.79627 0.0
C3017 C 0.85374 0.17308 0.78272 0.0
C3018 C 0.77707 0.15249 0.78643 0.0
C3019 C 0.86313 0.189 0.80909 0.0
H3020 H 0.80627 0.21992 0.8301 0.0
H3021 H 0.78932 0.15023 0.84622 0.0
H3022 H 0.8408 0.22275 0.79969 0.0
H3023 H 0.81052 0.2092 0.79186 0.0
H3024 H 0.82001 0.23283 0.80569 0.0
H3025 H 0.79239 0.12183 0.83113 0.0
H3026 H 0.78998 0.12473 0.8112 0.0
H3027 H 0.81962 0.13668 0.81973 0.0
H3028 H 0.80042 0.14714 0.76263 0.0
H3029 H 0.87304 0.17858 0.78162 0.0
H3030 H 0.77525 0.16842 0.78922 0.0
H3031 H 0.76822 0.13928 0.79559 0.0
H3032 H 0.7669 0.14437 0.77585 0.0
H3033 H 0.86414 0.20624 0.81223 0.0
H3034 H 0.88195 0.19271 0.80628 0.0
H3035 H 0.85664 0.17718 0.81907 0.0
C3036 C 0.30092 0.16516 0.50965 0.0
C3037 C 0.3072 0.15327 0.49882 0.0
C3038 C 0.31192 0.17039 0.5239 0.0
C3039 C 0.32954 0.16348 0.52739 0.0
C3040 C 0.3362 0.15179 0.51644 0.0
C3041 C 0.32501 0.14689 0.50228 0.0
C3042 C 0.30439 0.18294 0.53529 0.0
C3043 C 0.35494 0.14416 0.51976 0.0
C3044 C 0.3732 0.19327 0.56016 0.0
C3045 C 0.36193 0.17591 0.57138 0.0
C3046 C 0.36274 0.18957 0.54581 0.0
C3047 C 0.34058 0.16795 0.54261 0.0
C3048 C 0.32911 0.15037 0.55391 0.0
C3049 C 0.33991 0.15459 0.56817 0.0
C3050 C 0.37539 0.20879 0.53407 0.0
C3051 C 0.30555 0.12701 0.55089 0.0
H3052 H 0.28696 0.16989 0.50712 0.0
H3053 H 0.33023 0.13805 0.49388 0.0
H3054 H 0.29575 0.17099 0.54504 0.0
H3055 H 0.32083 0.19948 0.53949 0.0
H3056 H 0.29117 0.18798 0.53061 0.0
H3057 H 0.35836 0.13557 0.50994 0.0
H3058 H 0.37263 0.16001 0.52327 0.0
H3059 H 0.34849 0.13121 0.52918 0.0
H3060 H 0.39008 0.20989 0.56266 0.0
H3061 H 0.3313 0.14101 0.57677 0.0
H3062 H 0.36269 0.21484 0.52992 0.0
H3063 H 0.38035 0.20129 0.52434 0.0
H3064 H 0.39236 0.22471 0.53841 0.0
H3065 H 0.29099 0.13077 0.54702 0.0
H3066 H 0.2988 0.11536 0.56095 0.0
H3067 H 0.30849 0.11688 0.5418 0.0
C3068 C 0.83742 0.15213 0.49917 0.0
C3069 C 0.86161 0.15748 0.49626 0.0
C3070 C 0.83101 0.15781 0.51303 0.0
C3071 C 0.84921 0.16916 0.52429 0.0
C3072 C 0.87375 0.17497 0.52135 0.0
C3073 C 0.87965 0.16907 0.50738 0.0
C3074 C 0.80466 0.15139 0.51568 0.0
C3075 C 0.89367 0.18701 0.53308 0.0
C3076 C 0.83632 0.20077 0.55623 0.0
C3077 C 0.82844 0.18341 0.56758 0.0
C3078 C 0.84331 0.19648 0.54213 0.0
C3079 C 0.84237 0.17427 0.53928 0.0
C3080 C 0.83449 0.1567 0.55069 0.0
C3081 C 0.82761 0.16146 0.56467 0.0
C3082 C 0.85168 0.21569 0.53026 0.0
C3083 C 0.83312 0.13274 0.5481 0.0
H3084 H 0.82345 0.14353 0.49056 0.0
H3085 H 0.89832 0.17304 0.50529 0.0
H3086 H 0.7969 0.13854 0.52512 0.0
H3087 H 0.80388 0.16775 0.51887 0.0
H3088 H 0.79283 0.14312 0.50566 0.0
H3089 H 0.91202 0.19117 0.52886 0.0
H3090 H 0.8948 0.20402 0.53694 0.0
H3091 H 0.88912 0.17513 0.54298 0.0
H3092 H 0.8373 0.21788 0.55844 0.0
H3093 H 0.82119 0.14779 0.57329 0.0
H3094 H 0.83954 0.20851 0.52028 0.0
H3095 H 0.8706 0.22096 0.52661 0.0
H3096 H 0.85154 0.23205 0.53428 0.0
H3097 H 0.82008 0.12291 0.53882 0.0
H3098 H 0.82705 0.1212 0.55822 0.0
H3099 H 0.8514 0.13565 0.54469 0.0
C3100 C 0.87209 0.70691 0.50355 0.0
C3101 C 0.86872 0.72657 0.50054 0.0
C3102 C 0.86551 0.69511 0.51744 0.0
C3103 C 0.85537 0.70317 0.52869 0.0
C3104 C 0.85237 0.7233 0.52585 0.0
C3105 C 0.85902 0.7347 0.51182 0.0
C3106 C 0.86887 0.67364 0.51995 0.0
C3107 C 0.84184 0.7326 0.53756 0.0
C3108 C 0.81504 0.65767 0.55812 0.0
C3109 C 0.83132 0.66352 0.57028 0.0
C3110 C 0.82257 0.67053 0.54462 0.0
C3111 C 0.847 0.68991 0.54319 0.0
C3112 C 0.86342 0.69625 0.55549 0.0
C3113 C 0.85543 0.68297 0.56885 0.0
C3114 C 0.80442 0.66318 0.53182 0.0
C3115 C 0.88958 0.71684 0.55446 0.0
H3116 H 0.87929 0.70031 0.49486 0.0
H3117 H 0.85666 0.75007 0.5097 0.0
H3118 H 0.8802 0.67649 0.53013 0.0
H3119 H 0.85072 0.65731 0.52185 0.0
H3120 H 0.87785 0.67018 0.51031 0.0
H3121 H 0.8416 0.74901 0.53383 0.0
H3122 H 0.82273 0.71848 0.54024 0.0
H3123 H 0.85274 0.73687 0.54806 0.0
H3124 H 0.79625 0.643 0.55916 0.0
H3125 H 0.86827 0.68752 0.57808 0.0
H3126 H 0.81146 0.65791 0.52198 0.0
H3127 H 0.80224 0.67864 0.5284 0.0
H3128 H 0.78603 0.64786 0.53477 0.0
H3129 H 0.89955 0.71287 0.54567 0.0
H3130 H 0.89975 0.72017 0.56521 0.0
H3131 H 0.88975 0.73359 0.55114 0.0
loop_
_geom_bond_atom_site_label_1
_geom_bond_atom_site_label_2
_geom_bond_distance
_geom_bond_site_symmetry_2
_ccdc_geom_bond_type
C0 C1 1.384 . S
C0 H13 0.947 . S
C0 C35 1.382 . S
C1 C0 1.384 . S
C1 C2 1.378 . S
C2 C1 1.378 . S
C2 C3 1.378 . S
C2 H14 0.952 . S
C3 C2 1.378 . S
C3 H15 0.950 . S
C3 C34 1.383 . S
H4 C23 0.947 . S
H5 C24 0.946 . S
H6 C26 0.953 . S
H7 C27 0.945 . S
H8 C29 0.952 . S
H9 C30 0.949 . S
H10 C32 0.950 . S
H11 C33 0.948 . S
H12 C35 0.951 . S
H13 C0 0.947 . S
H14 C2 0.952 . S
H15 C3 0.950 . S
N16 C19 1.382 . S
N16 C21 1.363 . S
N17 C19 1.371 . S
N17 C20 1.372 . S
N18 C20 1.361 . S
N18 C21 1.377 . S
C19 N16 1.382 . S
C19 N17 1.371 . S
C19 C22 1.480 . S
C20 N17 1.372 . S
C20 N18 1.361 . S
C20 C28 1.457 . S
C21 N16 1.363 . S
C21 N18 1.377 . S
C21 C34 1.479 . S
C22 C19 1.480 . S
C22 C23 1.383 . S
C22 C27 1.385 . S
C23 H4 0.947 . S
C23 C22 1.383 . S
C23 C24 1.388 . S
C24 H5 0.946 . S
C24 C23 1.388 . S
C24 C25 1.384 . S
C25 C24 1.384 . S
C25 C26 1.377 . S
C26 H6 0.953 . S
C26 C25 1.377 . S
C26 C27 1.369 . S
C27 H7 0.945 . S
C27 C22 1.385 . S
C27 C26 1.369 . S
C28 C20 1.457 . S
C28 C29 1.372 . S
C28 C33 1.364 . S
C29 H8 0.952 . S
C29 C28 1.372 . S
C29 C30 1.389 . S
C30 H9 0.949 . S
C30 C29 1.389 . S
C30 C31 1.387 . S
C31 C30 1.387 . S
C31 C32 1.372 . S
C32 H10 0.950 . S
C32 C31 1.372 . S
C32 C33 1.379 . S
C33 H11 0.948 . S
C33 C28 1.364 . S
C33 C32 1.379 . S
C34 C3 1.383 . S
C34 C21 1.479 . S
C34 C35 1.398 . S
C35 C0 1.382 . S
C35 H12 0.951 . S
C35 C34 1.398 . S
C36 C37 1.384 . S
C36 H49 0.947 . S
C36 C71 1.382 . S
C37 C36 1.384 . S
C37 C38 1.378 . S
C38 C37 1.378 . S
C38 C39 1.378 . S
C38 H50 0.952 . S
C39 C38 1.378 . S
C39 H51 0.950 . S
C39 C70 1.383 . S
H40 C59 0.947 . S
H41 C60 0.946 . S
H42 C62 0.953 . S
H43 C63 0.945 . S
H44 C65 0.952 . S
H45 C66 0.949 . S
H46 C68 0.950 . S
H47 C69 0.948 . S
H48 C71 0.951 . S
H49 C36 0.947 . S
H50 C38 0.952 . S
H51 C39 0.950 . S
N52 C55 1.382 . S
N52 C57 1.363 . S
N53 C55 1.371 . S
N53 C56 1.372 . S
N54 C56 1.361 . S
N54 C57 1.377 . S
C55 N52 1.382 . S
C55 N53 1.371 . S
C55 C58 1.480 . S
C56 N53 1.372 . S
C56 N54 1.361 . S
C56 C64 1.457 . S
C57 N52 1.363 . S
C57 N54 1.377 . S
C57 C70 1.479 . S
C58 C55 1.480 . S
C58 C59 1.383 . S
C58 C63 1.385 . S
C59 H40 0.947 . S
C59 C58 1.383 . S
C59 C60 1.388 . S
C60 H41 0.946 . S
C60 C59 1.388 . S
C60 C61 1.384 . S
C61 C60 1.384 . S
C61 C62 1.377 . S
C62 H42 0.953 . S
C62 C61 1.377 . S
C62 C63 1.369 . S
C63 H43 0.945 . S
C63 C58 1.385 . S
C63 C62 1.369 . S
C64 C56 1.457 . S
C64 C65 1.372 . S
C64 C69 1.364 . S
C65 H44 0.952 . S
C65 C64 1.372 . S
C65 C66 1.389 . S
C66 H45 0.949 . S
C66 C65 1.389 . S
C66 C67 1.387 . S
C67 C66 1.387 . S
C67 C68 1.372 . S
C68 H46 0.950 . S
C68 C67 1.372 . S
C68 C69 1.379 . S
C69 H47 0.948 . S
C69 C64 1.364 . S
C69 C68 1.379 . S
C70 C39 1.383 . S
C70 C57 1.479 . S
C70 C71 1.398 . S
C71 C36 1.382 . S
C71 H48 0.951 . S
C71 C70 1.398 . S
C72 C73 1.384 . S
C72 H85 0.947 . S
C72 C107 1.382 . S
C73 C72 1.384 . S
C73 C74 1.378 . S
C74 C73 1.378 . S
C74 C75 1.378 . S
C74 H86 0.952 . S
C75 C74 1.378 . S
C75 H87 0.950 . S
C75 C106 1.383 . S
H76 C95 0.947 . S
H77 C96 0.946 . S
H78 C98 0.953 . S
H79 C99 0.945 . S
H80 C101 0.952 . S
H81 C102 0.949 . S
H82 C104 0.950 . S
H83 C105 0.948 . S
H84 C107 0.951 . S
H85 C72 0.947 . S
H86 C74 0.952 . S
H87 C75 0.950 . S
N88 C91 1.382 . S
N88 C93 1.363 . S
N89 C91 1.371 . S
N89 C92 1.372 . S
N90 C92 1.361 . S
N90 C93 1.377 . S
C91 N88 1.382 . S
C91 N89 1.371 . S
C91 C94 1.480 . S
C92 N89 1.372 . S
C92 N90 1.361 . S
C92 C100 1.457 . S
C93 N88 1.363 . S
C93 N90 1.377 . S
C93 C106 1.479 . S
C94 C91 1.480 . S
C94 C95 1.383 . S
C94 C99 1.385 . S
C95 H76 0.947 . S
C95 C94 1.383 . S
C95 C96 1.388 . S
C96 H77 0.946 . S
C96 C95 1.388 . S
C96 C97 1.384 . S
C97 C96 1.384 . S
C97 C98 1.377 . S
C98 H78 0.953 . S
C98 C97 1.377 . S
C98 C99 1.369 . S
C99 H79 0.945 . S
C99 C94 1.385 . S
C99 C98 1.369 . S
C100 C92 1.457 . S
C100 C101 1.372 . S
C100 C105 1.364 . S
C101 H80 0.952 . S
C101 C100 1.372 . S
C101 C102 1.389 . S
C102 H81 0.949 . S
C102 C101 1.389 . S
C102 C103 1.387 . S
C103 C102 1.387 . S
C103 C104 1.372 . S
C104 H82 0.950 . S
C104 C103 1.372 . S
C104 C105 1.379 . S
C105 H83 0.948 . S
C105 C100 1.364 . S
C105 C104 1.379 . S
C106 C75 1.383 . S
C106 C93 1.479 . S
C106 C107 1.398 . S
C107 C72 1.382 . S
C107 H84 0.951 . S
C107 C106 1.398 . S
C108 C109 1.384 . S
C108 H121 0.947 . S
C108 C143 1.382 . S
C109 C108 1.384 . S
C109 C110 1.378 . S
C110 C109 1.378 . S
C110 C111 1.378 . S
C110 H122 0.952 . S
C111 C110 1.378 . S
C111 H123 0.950 . S
C111 C142 1.383 . S
H112 C131 0.947 . S
H113 C132 0.946 . S
H114 C134 0.953 . S
H115 C135 0.945 . S
H116 C137 0.952 . S
H117 C138 0.949 . S
H118 C140 0.950 . S
H119 C141 0.948 . S
H120 C143 0.951 . S
H121 C108 0.947 . S
H122 C110 0.952 . S
H123 C111 0.950 . S
N124 C127 1.382 . S
N124 C129 1.363 . S
N125 C127 1.371 . S
N125 C128 1.372 . S
N126 C128 1.361 . S
N126 C129 1.377 . S
C127 N124 1.382 . S
C127 N125 1.371 . S
C127 C130 1.480 . S
C128 N125 1.372 . S
C128 N126 1.361 . S
C128 C136 1.457 . S
C129 N124 1.363 . S
C129 N126 1.377 . S
C129 C142 1.479 . S
C130 C127 1.480 . S
C130 C131 1.383 . S
C130 C135 1.385 . S
C131 H112 0.947 . S
C131 C130 1.383 . S
C131 C132 1.388 . S
C132 H113 0.946 . S
C132 C131 1.388 . S
C132 C133 1.384 . S
C133 C132 1.384 . S
C133 C134 1.377 . S
C134 H114 0.953 . S
C134 C133 1.377 . S
C134 C135 1.369 . S
C135 H115 0.945 . S
C135 C130 1.385 . S
C135 C134 1.369 . S
C136 C128 1.457 . S
C136 C137 1.372 . S
C136 C141 1.364 . S
C137 H116 0.952 . S
C137 C136 1.372 . S
C137 C138 1.389 . S
C138 H117 0.949 . S
C138 C137 1.389 . S
C138 C139 1.387 . S
C139 C138 1.387 . S
C139 C140 1.372 . S
C140 H118 0.950 . S
C140 C139 1.372 . S
C140 C141 1.379 . S
C141 H119 0.948 . S
C141 C136 1.364 . S
C141 C140 1.379 . S
C142 C111 1.383 . S
C142 C129 1.479 . S
C142 C143 1.398 . S
C143 C108 1.382 . S
C143 H120 0.951 . S
C143 C142 1.398 . S
C144 C145 1.384 . S
C144 H157 0.947 . S
C144 C179 1.382 . S
C145 C144 1.384 . S
C145 C146 1.378 . S
C146 C145 1.378 . S
C146 C147 1.378 . S
C146 H158 0.952 . S
C147 C146 1.378 . S
C147 H159 0.950 . S
C147 C178 1.383 . S
H148 C167 0.947 . S
H149 C168 0.946 . S
H150 C170 0.953 . S
H151 C171 0.945 . S
H152 C173 0.952 . S
H153 C174 0.949 . S
H154 C176 0.950 . S
H155 C177 0.948 . S
H156 C179 0.951 . S
H157 C144 0.947 . S
H158 C146 0.952 . S
H159 C147 0.950 . S
N160 C163 1.382 . S
N160 C165 1.363 . S
N161 C163 1.371 . S
N161 C164 1.372 . S
N162 C164 1.361 . S
N162 C165 1.377 . S
C163 N160 1.382 . S
C163 N161 1.371 . S
C163 C166 1.480 . S
C164 N161 1.372 . S
C164 N162 1.361 . S
C164 C172 1.457 . S
C165 N160 1.363 . S
C165 N162 1.377 . S
C165 C178 1.479 . S
C166 C163 1.480 . S
C166 C167 1.383 . S
C166 C171 1.385 . S
C167 H148 0.947 . S
C167 C166 1.383 . S
C167 C168 1.388 . S
C168 H149 0.946 . S
C168 C167 1.388 . S
C168 C169 1.384 . S
C169 C168 1.384 . S
C169 C170 1.377 . S
C170 H150 0.953 . S
C170 C169 1.377 . S
C170 C171 1.369 . S
C171 H151 0.945 . S
C171 C166 1.385 . S
C171 C170 1.369 . S
C172 C164 1.457 . S
C172 C173 1.372 . S
C172 C177 1.364 . S
C173 H152 0.952 . S
C173 C172 1.372 . S
C173 C174 1.389 . S
C174 H153 0.949 . S
C174 C173 1.389 . S
C174 C175 1.387 . S
C175 C174 1.387 . S
C175 C176 1.372 . S
C176 H154 0.950 . S
C176 C175 1.372 . S
C176 C177 1.379 . S
C177 H155 0.948 . S
C177 C172 1.364 . S
C177 C176 1.379 . S
C178 C147 1.383 . S
C178 C165 1.479 . S
C178 C179 1.398 . S
C179 C144 1.382 . S
C179 H156 0.951 . S
C179 C178 1.398 . S
C180 C181 1.384 . S
C180 H193 0.947 . S
C180 C215 1.382 . S
C181 C180 1.384 . S
C181 C182 1.378 . S
C182 C181 1.378 . S
C182 C183 1.378 . S
C182 H194 0.952 . S
C183 C182 1.378 . S
C183 H195 0.950 . S
C183 C214 1.383 . S
H184 C203 0.947 . S
H185 C204 0.946 . S
H186 C206 0.953 . S
H187 C207 0.945 . S
H188 C209 0.952 . S
H189 C210 0.949 . S
H190 C212 0.950 . S
H191 C213 0.948 . S
H192 C215 0.951 . S
H193 C180 0.947 . S
H194 C182 0.952 . S
H195 C183 0.950 . S
N196 C199 1.382 . S
N196 C201 1.363 . S
N197 C199 1.371 . S
N197 C200 1.372 . S
N198 C200 1.361 . S
N198 C201 1.377 . S
C199 N196 1.382 . S
C199 N197 1.371 . S
C199 C202 1.480 . S
C200 N197 1.372 . S
C200 N198 1.361 . S
C200 C208 1.457 . S
C201 N196 1.363 . S
C201 N198 1.377 . S
C201 C214 1.479 . S
C202 C199 1.480 . S
C202 C203 1.383 . S
C202 C207 1.385 . S
C203 H184 0.947 . S
C203 C202 1.383 . S
C203 C204 1.388 . S
C204 H185 0.946 . S
C204 C203 1.388 . S
C204 C205 1.384 . S
C205 C204 1.384 . S
C205 C206 1.377 . S
C206 H186 0.953 . S
C206 C205 1.377 . S
C206 C207 1.369 . S
C207 H187 0.945 . S
C207 C202 1.385 . S
C207 C206 1.369 . S
C208 C200 1.457 . S
C208 C209 1.372 . S
C208 C213 1.364 . S
C209 H188 0.952 . S
C209 C208 1.372 . S
C209 C210 1.389 . S
C210 H189 0.949 . S
C210 C209 1.389 . S
C210 C211 1.387 . S
C211 C210 1.387 . S
C211 C212 1.372 . S
C212 H190 0.950 . S
C212 C211 1.372 . S
C212 C213 1.379 . S
C213 H191 0.948 . S
C213 C208 1.364 . S
C213 C212 1.379 . S
C214 C183 1.383 . S
C214 C201 1.479 . S
C214 C215 1.398 . S
C215 C180 1.382 . S
C215 H192 0.951 . S
C215 C214 1.398 . S
C216 C217 1.384 . S
C216 H229 0.947 . S
C216 C251 1.382 . S
C217 C216 1.384 . S
C217 C218 1.378 . S
C218 C217 1.378 . S
C218 C219 1.378 . S
C218 H230 0.952 . S
C219 C218 1.378 . S
C219 H231 0.950 . S
C219 C250 1.383 . S
H220 C239 0.947 . S
H221 C240 0.946 . S
H222 C242 0.953 . S
H223 C243 0.945 . S
H224 C245 0.952 . S
H225 C246 0.949 . S
H226 C248 0.950 . S
H227 C249 0.948 . S
H228 C251 0.951 . S
H229 C216 0.947 . S
H230 C218 0.952 . S
H231 C219 0.950 . S
N232 C235 1.382 . S
N232 C237 1.363 . S
N233 C235 1.371 . S
N233 C236 1.372 . S
N234 C236 1.361 . S
N234 C237 1.377 . S
C235 N232 1.382 . S
C235 N233 1.371 . S
C235 C238 1.480 . S
C236 N233 1.372 . S
C236 N234 1.361 . S
C236 C244 1.457 . S
C237 N232 1.363 . S
C237 N234 1.377 . S
C237 C250 1.479 . S
C238 C235 1.480 . S
C238 C239 1.383 . S
C238 C243 1.385 . S
C239 H220 0.947 . S
C239 C238 1.383 . S
C239 C240 1.388 . S
C240 H221 0.946 . S
C240 C239 1.388 . S
C240 C241 1.384 . S
C241 C240 1.384 . S
C241 C242 1.377 . S
C242 H222 0.953 . S
C242 C241 1.377 . S
C242 C243 1.369 . S
C243 H223 0.945 . S
C243 C238 1.385 . S
C243 C242 1.369 . S
C244 C236 1.457 . S
C244 C245 1.372 . S
C244 C249 1.364 . S
C245 H224 0.952 . S
C245 C244 1.372 . S
C245 C246 1.389 . S
C246 H225 0.949 . S
C246 C245 1.389 . S
C246 C247 1.387 . S
C247 C246 1.387 . S
C247 C248 1.372 . S
C248 H226 0.950 . S
C248 C247 1.372 . S
C248 C249 1.379 . S
C249 H227 0.948 . S
C249 C244 1.364 . S
C249 C248 1.379 . S
C250 C219 1.383 . S
C250 C237 1.479 . S
C250 C251 1.398 . S
C251 C216 1.382 . S
C251 H228 0.951 . S
C251 C250 1.398 . S
C252 C253 1.384 . S
C252 H265 0.947 . S
C252 C287 1.382 . S
C253 C252 1.384 . S
C253 C254 1.378 . S
C254 C253 1.378 . S
C254 C255 1.378 . S
C254 H266 0.952 . S
C255 C254 1.378 . S
C255 H267 0.950 . S
C255 C286 1.383 . S
H256 C275 0.947 . S
H257 C276 0.946 . S
H258 C278 0.953 . S
H259 C279 0.945 . S
H260 C281 0.952 . S
H261 C282 0.949 . S
H262 C284 0.950 . S
H263 C285 0.948 . S
H264 C287 0.951 . S
H265 C252 0.947 . S
H266 C254 0.952 . S
H267 C255 0.950 . S
N268 C271 1.382 . S
N268 C273 1.363 . S
N269 C271 1.371 . S
N269 C272 1.372 . S
N270 C272 1.361 . S
N270 C273 1.377 . S
C271 N268 1.382 . S
C271 N269 1.371 . S
C271 C274 1.480 . S
C272 N269 1.372 . S
C272 N270 1.361 . S
C272 C280 1.457 . S
C273 N268 1.363 . S
C273 N270 1.377 . S
C273 C286 1.479 . S
C274 C271 1.480 . S
C274 C275 1.383 . S
C274 C279 1.385 . S
C275 H256 0.947 . S
C275 C274 1.383 . S
C275 C276 1.388 . S
C276 H257 0.946 . S
C276 C275 1.388 . S
C276 C277 1.384 . S
C277 C276 1.384 . S
C277 C278 1.377 . S
C278 H258 0.953 . S
C278 C277 1.377 . S
C278 C279 1.369 . S
C279 H259 0.945 . S
C279 C274 1.385 . S
C279 C278 1.369 . S
C280 C272 1.457 . S
C280 C281 1.372 . S
C280 C285 1.364 . S
C281 H260 0.952 . S
C281 C280 1.372 . S
C281 C282 1.389 . S
C282 H261 0.949 . S
C282 C281 1.389 . S
C282 C283 1.387 . S
C283 C282 1.387 . S
C283 C284 1.372 . S
C284 H262 0.950 . S
C284 C283 1.372 . S
C284 C285 1.379 . S
C285 H263 0.948 . S
C285 C280 1.364 . S
C285 C284 1.379 . S
C286 C255 1.383 . S
C286 C273 1.479 . S
C286 C287 1.398 . S
C287 C252 1.382 . S
C287 H264 0.951 . S
C287 C286 1.398 . S
C288 C289 1.384 . S
C288 H301 0.947 . S
C288 C323 1.382 . S
C289 C288 1.384 . S
C289 C290 1.378 . S
C290 C289 1.378 . S
C290 C291 1.378 . S
C290 H302 0.952 . S
C291 C290 1.378 . S
C291 H303 0.950 . S
C291 C322 1.383 . S
H292 C311 0.947 . S
H293 C312 0.946 . S
H294 C314 0.953 . S
H295 C315 0.945 . S
H296 C317 0.952 . S
H297 C318 0.949 . S
H298 C320 0.950 . S
H299 C321 0.948 . S
H300 C323 0.951 . S
H301 C288 0.947 . S
H302 C290 0.952 . S
H303 C291 0.950 . S
N304 C307 1.382 . S
N304 C309 1.363 . S
N305 C307 1.371 . S
N305 C308 1.372 . S
N306 C308 1.361 . S
N306 C309 1.377 . S
C307 N304 1.382 . S
C307 N305 1.371 . S
C307 C310 1.480 . S
C308 N305 1.372 . S
C308 N306 1.361 . S
C308 C316 1.457 . S
C309 N304 1.363 . S
C309 N306 1.377 . S
C309 C322 1.479 . S
C310 C307 1.480 . S
C310 C311 1.383 . S
C310 C315 1.385 . S
C311 H292 0.947 . S
C311 C310 1.383 . S
C311 C312 1.388 . S
C312 H293 0.946 . S
C312 C311 1.388 . S
C312 C313 1.384 . S
C313 C312 1.384 . S
C313 C314 1.377 . S
C314 H294 0.953 . S
C314 C313 1.377 . S
C314 C315 1.369 . S
C315 H295 0.945 . S
C315 C310 1.385 . S
C315 C314 1.369 . S
C316 C308 1.457 . S
C316 C317 1.372 . S
C316 C321 1.364 . S
C317 H296 0.952 . S
C317 C316 1.372 . S
C317 C318 1.389 . S
C318 H297 0.949 . S
C318 C317 1.389 . S
C318 C319 1.387 . S
C319 C318 1.387 . S
C319 C320 1.372 . S
C320 H298 0.950 . S
C320 C319 1.372 . S
C320 C321 1.379 . S
C321 H299 0.948 . S
C321 C316 1.364 . S
C321 C320 1.379 . S
C322 C291 1.383 . S
C322 C309 1.479 . S
C322 C323 1.398 . S
C323 C288 1.382 . S
C323 H300 0.951 . S
C323 C322 1.398 . S
C324 C325 1.384 . S
C324 H337 0.947 . S
C324 C359 1.382 . S
C325 C324 1.384 . S
C325 C326 1.378 . S
C326 C325 1.378 . S
C326 C327 1.378 . S
C326 H338 0.952 . S
C327 C326 1.378 . S
C327 H339 0.950 . S
C327 C358 1.383 . S
H328 C347 0.947 . S
H329 C348 0.946 . S
H330 C350 0.953 . S
H331 C351 0.945 . S
H332 C353 0.952 . S
H333 C354 0.949 . S
H334 C356 0.950 . S
H335 C357 0.948 . S
H336 C359 0.951 . S
H337 C324 0.947 . S
H338 C326 0.952 . S
H339 C327 0.950 . S
N340 C343 1.382 . S
N340 C345 1.363 . S
N341 C343 1.371 . S
N341 C344 1.372 . S
N342 C344 1.361 . S
N342 C345 1.377 . S
C343 N340 1.382 . S
C343 N341 1.371 . S
C343 C346 1.480 . S
C344 N341 1.372 . S
C344 N342 1.361 . S
C344 C352 1.457 . S
C345 N340 1.363 . S
C345 N342 1.377 . S
C345 C358 1.479 . S
C346 C343 1.480 . S
C346 C347 1.383 . S
C346 C351 1.385 . S
C347 H328 0.947 . S
C347 C346 1.383 . S
C347 C348 1.388 . S
C348 H329 0.946 . S
C348 C347 1.388 . S
C348 C349 1.384 . S
C349 C348 1.384 . S
C349 C350 1.377 . S
C350 H330 0.953 . S
C350 C349 1.377 . S
C350 C351 1.369 . S
C351 H331 0.945 . S
C351 C346 1.385 . S
C351 C350 1.369 . S
C352 C344 1.457 . S
C352 C353 1.372 . S
C352 C357 1.364 . S
C353 H332 0.952 . S
C353 C352 1.372 . S
C353 C354 1.389 . S
C354 H333 0.949 . S
C354 C353 1.389 . S
C354 C355 1.387 . S
C355 C354 1.387 . S
C355 C356 1.372 . S
C356 H334 0.950 . S
C356 C355 1.372 . S
C356 C357 1.379 . S
C357 H335 0.948 . S
C357 C352 1.364 . S
C357 C356 1.379 . S
C358 C327 1.383 . S
C358 C345 1.479 . S
C358 C359 1.398 . S
C359 C324 1.382 . S
C359 H336 0.951 . S
C359 C358 1.398 . S
C360 C361 1.384 . S
C360 H373 0.947 . S
C360 C395 1.382 . S
C361 C360 1.384 . S
C361 C362 1.378 . S
C362 C361 1.378 . S
C362 C363 1.378 . S
C362 H374 0.952 . S
C363 C362 1.378 . S
C363 H375 0.950 . S
C363 C394 1.383 . S
H364 C383 0.947 . S
H365 C384 0.946 . S
H366 C386 0.953 . S
H367 C387 0.945 . S
H368 C389 0.952 . S
H369 C390 0.949 . S
H370 C392 0.950 . S
H371 C393 0.948 . S
H372 C395 0.951 . S
H373 C360 0.947 . S
H374 C362 0.952 . S
H375 C363 0.950 . S
N376 C379 1.382 . S
N376 C381 1.363 . S
N377 C379 1.371 . S
N377 C380 1.372 . S
N378 C380 1.361 . S
N378 C381 1.377 . S
C379 N376 1.382 . S
C379 N377 1.371 . S
C379 C382 1.480 . S
C380 N377 1.372 . S
C380 N378 1.361 . S
C380 C388 1.457 . S
C381 N376 1.363 . S
C381 N378 1.377 . S
C381 C394 1.479 . S
C382 C379 1.480 . S
C382 C383 1.383 . S
C382 C387 1.385 . S
C383 H364 0.947 . S
C383 C382 1.383 . S
C383 C384 1.388 . S
C384 H365 0.946 . S
C384 C383 1.388 . S
C384 C385 1.384 . S
C385 C384 1.384 . S
C385 C386 1.377 . S
C386 H366 0.953 . S
C386 C385 1.377 . S
C386 C387 1.369 . S
C387 H367 0.945 . S
C387 C382 1.385 . S
C387 C386 1.369 . S
C388 C380 1.457 . S
C388 C389 1.372 . S
C388 C393 1.364 . S
C389 H368 0.952 . S
C389 C388 1.372 . S
C389 C390 1.389 . S
C390 H369 0.949 . S
C390 C389 1.389 . S
C390 C391 1.387 . S
C391 C390 1.387 . S
C391 C392 1.372 . S
C392 H370 0.950 . S
C392 C391 1.372 . S
C392 C393 1.379 . S
C393 H371 0.948 . S
C393 C388 1.364 . S
C393 C392 1.379 . S
C394 C363 1.383 . S
C394 C381 1.479 . S
C394 C395 1.398 . S
C395 C360 1.382 . S
C395 H372 0.951 . S
C395 C394 1.398 . S
C396 C397 1.384 . S
C396 H409 0.947 . S
C396 C431 1.382 . S
C397 C396 1.384 . S
C397 C398 1.378 . S
C398 C397 1.378 . S
C398 C399 1.378 . S
C398 H410 0.952 . S
C399 C398 1.378 . S
C399 H411 0.950 . S
C399 C430 1.383 . S
H400 C419 0.947 . S
H401 C420 0.946 . S
H402 C422 0.953 . S
H403 C423 0.945 . S
H404 C425 0.952 . S
H405 C426 0.949 . S
H406 C428 0.950 . S
H407 C429 0.948 . S
H408 C431 0.951 . S
H409 C396 0.947 . S
H410 C398 0.952 . S
H411 C399 0.950 . S
N412 C415 1.382 . S
N412 C417 1.363 . S
N413 C415 1.371 . S
N413 C416 1.372 . S
N414 C416 1.361 . S
N414 C417 1.377 . S
C415 N412 1.382 . S
C415 N413 1.371 . S
C415 C418 1.480 . S
C416 N413 1.372 . S
C416 N414 1.361 . S
C416 C424 1.457 . S
C417 N412 1.363 . S
C417 N414 1.377 . S
C417 C430 1.479 . S
C418 C415 1.480 . S
C418 C419 1.383 . S
C418 C423 1.385 . S
C419 H400 0.947 . S
C419 C418 1.383 . S
C419 C420 1.388 . S
C420 H401 0.946 . S
C420 C419 1.388 . S
C420 C421 1.384 . S
C421 C420 1.384 . S
C421 C422 1.377 . S
C422 H402 0.953 . S
C422 C421 1.377 . S
C422 C423 1.369 . S
C423 H403 0.945 . S
C423 C418 1.385 . S
C423 C422 1.369 . S
C424 C416 1.457 . S
C424 C425 1.372 . S
C424 C429 1.364 . S
C425 H404 0.952 . S
C425 C424 1.372 . S
C425 C426 1.389 . S
C426 H405 0.949 . S
C426 C425 1.389 . S
C426 C427 1.387 . S
C427 C426 1.387 . S
C427 C428 1.372 . S
C428 H406 0.950 . S
C428 C427 1.372 . S
C428 C429 1.379 . S
C429 H407 0.948 . S
C429 C424 1.364 . S
C429 C428 1.379 . S
C430 C399 1.383 . S
C430 C417 1.479 . S
C430 C431 1.398 . S
C431 C396 1.382 . S
C431 H408 0.951 . S
C431 C430 1.398 . S
C432 C433 1.384 . S
C432 H445 0.947 . S
C432 C467 1.382 . S
C433 C432 1.384 . S
C433 C434 1.378 . S
C434 C433 1.378 . S
C434 C435 1.378 . S
C434 H446 0.952 . S
C435 C434 1.378 . S
C435 H447 0.950 . S
C435 C466 1.383 . S
H436 C455 0.947 . S
H437 C456 0.946 . S
H438 C458 0.953 . S
H439 C459 0.945 . S
H440 C461 0.952 . S
H441 C462 0.949 . S
H442 C464 0.950 . S
H443 C465 0.948 . S
H444 C467 0.951 . S
H445 C432 0.947 . S
H446 C434 0.952 . S
H447 C435 0.950 . S
N448 C451 1.382 . S
N448 C453 1.363 . S
N449 C451 1.371 . S
N449 C452 1.372 . S
N450 C452 1.361 . S
N450 C453 1.377 . S
C451 N448 1.382 . S
C451 N449 1.371 . S
C451 C454 1.480 . S
C452 N449 1.372 . S
C452 N450 1.361 . S
C452 C460 1.457 . S
C453 N448 1.363 . S
C453 N450 1.377 . S
C453 C466 1.479 . S
C454 C451 1.480 . S
C454 C455 1.383 . S
C454 C459 1.385 . S
C455 H436 0.947 . S
C455 C454 1.383 . S
C455 C456 1.388 . S
C456 H437 0.946 . S
C456 C455 1.388 . S
C456 C457 1.384 . S
C457 C456 1.384 . S
C457 C458 1.377 . S
C458 H438 0.953 . S
C458 C457 1.377 . S
C458 C459 1.369 . S
C459 H439 0.945 . S
C459 C454 1.385 . S
C459 C458 1.369 . S
C460 C452 1.457 . S
C460 C461 1.372 . S
C460 C465 1.364 . S
C461 H440 0.952 . S
C461 C460 1.372 . S
C461 C462 1.389 . S
C462 H441 0.949 . S
C462 C461 1.389 . S
C462 C463 1.387 . S
C463 C462 1.387 . S
C463 C464 1.372 . S
C464 H442 0.950 . S
C464 C463 1.372 . S
C464 C465 1.379 . S
C465 H443 0.948 . S
C465 C460 1.364 . S
C465 C464 1.379 . S
C466 C435 1.383 . S
C466 C453 1.479 . S
C466 C467 1.398 . S
C467 C432 1.382 . S
C467 H444 0.951 . S
C467 C466 1.398 . S
C468 C469 1.384 . S
C468 H481 0.947 . S
C468 C503 1.382 . S
C469 C468 1.384 . S
C469 C470 1.378 . S
C470 C469 1.378 . S
C470 C471 1.378 . S
C470 H482 0.952 . S
C471 C470 1.378 . S
C471 H483 0.950 . S
C471 C502 1.383 . S
H472 C491 0.947 . S
H473 C492 0.946 . S
H474 C494 0.953 . S
H475 C495 0.945 . S
H476 C497 0.952 . S
H477 C498 0.949 . S
H478 C500 0.950 . S
H479 C501 0.948 . S
H480 C503 0.951 . S
H481 C468 0.947 . S
H482 C470 0.952 . S
H483 C471 0.950 . S
N484 C487 1.382 . S
N484 C489 1.363 . S
N485 C487 1.371 . S
N485 C488 1.372 . S
N486 C488 1.361 . S
N486 C489 1.377 . S
C487 N484 1.382 . S
C487 N485 1.371 . S
C487 C490 1.480 . S
C488 N485 1.372 . S
C488 N486 1.361 . S
C488 C496 1.457 . S
C489 N484 1.363 . S
C489 N486 1.377 . S
C489 C502 1.479 . S
C490 C487 1.480 . S
C490 C491 1.383 . S
C490 C495 1.385 . S
C491 H472 0.947 . S
C491 C490 1.383 . S
C491 C492 1.388 . S
C492 H473 0.946 . S
C492 C491 1.388 . S
C492 C493 1.384 . S
C493 C492 1.384 . S
C493 C494 1.377 . S
C494 H474 0.953 . S
C494 C493 1.377 . S
C494 C495 1.369 . S
C495 H475 0.945 . S
C495 C490 1.385 . S
C495 C494 1.369 . S
C496 C488 1.457 . S
C496 C497 1.372 . S
C496 C501 1.364 . S
C497 H476 0.952 . S
C497 C496 1.372 . S
C497 C498 1.389 . S
C498 H477 0.949 . S
C498 C497 1.389 . S
C498 C499 1.387 . S
C499 C498 1.387 . S
C499 C500 1.372 . S
C500 H478 0.950 . S
C500 C499 1.372 . S
C500 C501 1.379 . S
C501 H479 0.948 . S
C501 C496 1.364 . S
C501 C500 1.379 . S
C502 C471 1.383 . S
C502 C489 1.479 . S
C502 C503 1.398 . S
C503 C468 1.382 . S
C503 H480 0.951 . S
C503 C502 1.398 . S
C504 C505 1.384 . S
C504 H517 0.947 . S
C504 C539 1.382 . S
C505 C504 1.384 . S
C505 C506 1.378 . S
C506 C505 1.378 . S
C506 C507 1.378 . S
C506 H518 0.952 . S
C507 C506 1.378 . S
C507 H519 0.950 . S
C507 C538 1.383 . S
H508 C527 0.947 . S
H509 C528 0.946 . S
H510 C530 0.953 . S
H511 C531 0.945 . S
H512 C533 0.952 . S
H513 C534 0.949 . S
H514 C536 0.950 . S
H515 C537 0.948 . S
H516 C539 0.951 . S
H517 C504 0.947 . S
H518 C506 0.952 . S
H519 C507 0.950 . S
N520 C523 1.382 . S
N520 C525 1.363 . S
N521 C523 1.371 . S
N521 C524 1.372 . S
N522 C524 1.361 . S
N522 C525 1.377 . S
C523 N520 1.382 . S
C523 N521 1.371 . S
C523 C526 1.480 . S
C524 N521 1.372 . S
C524 N522 1.361 . S
C524 C532 1.457 . S
C525 N520 1.363 . S
C525 N522 1.377 . S
C525 C538 1.479 . S
C526 C523 1.480 . S
C526 C527 1.383 . S
C526 C531 1.385 . S
C527 H508 0.947 . S
C527 C526 1.383 . S
C527 C528 1.388 . S
C528 H509 0.946 . S
C528 C527 1.388 . S
C528 C529 1.384 . S
C529 C528 1.384 . S
C529 C530 1.377 . S
C530 H510 0.953 . S
C530 C529 1.377 . S
C530 C531 1.369 . S
C531 H511 0.945 . S
C531 C526 1.385 . S
C531 C530 1.369 . S
C532 C524 1.457 . S
C532 C533 1.372 . S
C532 C537 1.364 . S
C533 H512 0.952 . S
C533 C532 1.372 . S
C533 C534 1.389 . S
C534 H513 0.949 . S
C534 C533 1.389 . S
C534 C535 1.387 . S
C535 C534 1.387 . S
C535 C536 1.372 . S
C536 H514 0.950 . S
C536 C535 1.372 . S
C536 C537 1.379 . S
C537 H515 0.948 . S
C537 C532 1.364 . S
C537 C536 1.379 . S
C538 C507 1.383 . S
C538 C525 1.479 . S
C538 C539 1.398 . S
C539 C504 1.382 . S
C539 H516 0.951 . S
C539 C538 1.398 . S
C540 C541 1.384 . S
C540 H553 0.947 . S
C540 C575 1.382 . S
C541 C540 1.384 . S
C541 C542 1.378 . S
C542 C541 1.378 . S
C542 C543 1.378 . S
C542 H554 0.952 . S
C543 C542 1.378 . S
C543 H555 0.950 . S
C543 C574 1.383 . S
H544 C563 0.947 . S
H545 C564 0.946 . S
H546 C566 0.953 . S
H547 C567 0.945 . S
H548 C569 0.952 . S
H549 C570 0.949 . S
H550 C572 0.950 . S
H551 C573 0.948 . S
H552 C575 0.951 . S
H553 C540 0.947 . S
H554 C542 0.952 . S
H555 C543 0.950 . S
N556 C559 1.382 . S
N556 C561 1.363 . S
N557 C559 1.371 . S
N557 C560 1.372 . S
N558 C560 1.361 . S
N558 C561 1.377 . S
C559 N556 1.382 . S
C559 N557 1.371 . S
C559 C562 1.480 . S
C560 N557 1.372 . S
C560 N558 1.361 . S
C560 C568 1.457 . S
C561 N556 1.363 . S
C561 N558 1.377 . S
C561 C574 1.479 . S
C562 C559 1.480 . S
C562 C563 1.383 . S
C562 C567 1.385 . S
C563 H544 0.947 . S
C563 C562 1.383 . S
C563 C564 1.388 . S
C564 H545 0.946 . S
C564 C563 1.388 . S
C564 C565 1.384 . S
C565 C564 1.384 . S
C565 C566 1.377 . S
C566 H546 0.953 . S
C566 C565 1.377 . S
C566 C567 1.369 . S
C567 H547 0.945 . S
C567 C562 1.385 . S
C567 C566 1.369 . S
C568 C560 1.457 . S
C568 C569 1.372 . S
C568 C573 1.364 . S
C569 H548 0.952 . S
C569 C568 1.372 . S
C569 C570 1.389 . S
C570 H549 0.949 . S
C570 C569 1.389 . S
C570 C571 1.387 . S
C571 C570 1.387 . S
C571 C572 1.372 . S
C572 H550 0.950 . S
C572 C571 1.372 . S
C572 C573 1.379 . S
C573 H551 0.948 . S
C573 C568 1.364 . S
C573 C572 1.379 . S
C574 C543 1.383 . S
C574 C561 1.479 . S
C574 C575 1.398 . S
C575 C540 1.382 . S
C575 H552 0.951 . S
C575 C574 1.398 . S
C576 C577 1.384 . S
C576 H589 0.947 . S
C576 C611 1.382 . S
C577 C576 1.384 . S
C577 C578 1.378 . S
C578 C577 1.378 . S
C578 C579 1.378 . S
C578 H590 0.952 . S
C579 C578 1.378 . S
C579 H591 0.950 . S
C579 C610 1.383 . S
H580 C599 0.947 . S
H581 C600 0.946 . S
H582 C602 0.953 . S
H583 C603 0.945 . S
H584 C605 0.952 . S
H585 C606 0.949 . S
H586 C608 0.950 . S
H587 C609 0.948 . S
H588 C611 0.951 . S
H589 C576 0.947 . S
H590 C578 0.952 . S
H591 C579 0.950 . S
N592 C595 1.382 . S
N592 C597 1.363 . S
N593 C595 1.371 . S
N593 C596 1.372 . S
N594 C596 1.361 . S
N594 C597 1.377 . S
C595 N592 1.382 . S
C595 N593 1.371 . S
C595 C598 1.480 . S
C596 N593 1.372 . S
C596 N594 1.361 . S
C596 C604 1.457 . S
C597 N592 1.363 . S
C597 N594 1.377 . S
C597 C610 1.479 . S
C598 C595 1.480 . S
C598 C599 1.383 . S
C598 C603 1.385 . S
C599 H580 0.947 . S
C599 C598 1.383 . S
C599 C600 1.388 . S
C600 H581 0.946 . S
C600 C599 1.388 . S
C600 C601 1.384 . S
C601 C600 1.384 . S
C601 C602 1.377 . S
C602 H582 0.953 . S
C602 C601 1.377 . S
C602 C603 1.369 . S
C603 H583 0.945 . S
C603 C598 1.385 . S
C603 C602 1.369 . S
C604 C596 1.457 . S
C604 C605 1.372 . S
C604 C609 1.364 . S
C605 H584 0.952 . S
C605 C604 1.372 . S
C605 C606 1.389 . S
C606 H585 0.949 . S
C606 C605 1.389 . S
C606 C607 1.387 . S
C607 C606 1.387 . S
C607 C608 1.372 . S
C608 H586 0.950 . S
C608 C607 1.372 . S
C608 C609 1.379 . S
C609 H587 0.948 . S
C609 C604 1.364 . S
C609 C608 1.379 . S
C610 C579 1.383 . S
C610 C597 1.479 . S
C610 C611 1.398 . S
C611 C576 1.382 . S
C611 H588 0.951 . S
C611 C610 1.398 . S
C612 C613 1.384 . S
C612 H625 0.947 . S
C612 C647 1.382 . S
C613 C612 1.384 . S
C613 C614 1.378 . S
C614 C613 1.378 . S
C614 C615 1.378 . S
C614 H626 0.952 . S
C615 C614 1.378 . S
C615 H627 0.950 . S
C615 C646 1.383 . S
H616 C635 0.947 . S
H617 C636 0.946 . S
H618 C638 0.953 . S
H619 C639 0.945 . S
H620 C641 0.952 . S
H621 C642 0.949 . S
H622 C644 0.950 . S
H623 C645 0.948 . S
H624 C647 0.951 . S
H625 C612 0.947 . S
H626 C614 0.952 . S
H627 C615 0.950 . S
N628 C631 1.382 . S
N628 C633 1.363 . S
N629 C631 1.371 . S
N629 C632 1.372 . S
N630 C632 1.361 . S
N630 C633 1.377 . S
C631 N628 1.382 . S
C631 N629 1.371 . S
C631 C634 1.480 . S
C632 N629 1.372 . S
C632 N630 1.361 . S
C632 C640 1.457 . S
C633 N628 1.363 . S
C633 N630 1.377 . S
C633 C646 1.479 . S
C634 C631 1.480 . S
C634 C635 1.383 . S
C634 C639 1.385 . S
C635 H616 0.947 . S
C635 C634 1.383 . S
C635 C636 1.388 . S
C636 H617 0.946 . S
C636 C635 1.388 . S
C636 C637 1.384 . S
C637 C636 1.384 . S
C637 C638 1.377 . S
C638 H618 0.953 . S
C638 C637 1.377 . S
C638 C639 1.369 . S
C639 H619 0.945 . S
C639 C634 1.385 . S
C639 C638 1.369 . S
C640 C632 1.457 . S
C640 C641 1.372 . S
C640 C645 1.364 . S
C641 H620 0.952 . S
C641 C640 1.372 . S
C641 C642 1.389 . S
C642 H621 0.949 . S
C642 C641 1.389 . S
C642 C643 1.387 . S
C643 C642 1.387 . S
C643 C644 1.372 . S
C644 H622 0.950 . S
C644 C643 1.372 . S
C644 C645 1.379 . S
C645 H623 0.948 . S
C645 C640 1.364 . S
C645 C644 1.379 . S
C646 C615 1.383 . S
C646 C633 1.479 . S
C646 C647 1.398 . S
C647 C612 1.382 . S
C647 H624 0.951 . S
C647 C646 1.398 . S
Tb648 N679 2.660 . S
Tb648 N686 2.600 . S
Tb648 O692 2.546 . S
Tb648 O693 2.610 1_565 S
Tb648 O695 2.320 1_565 S
Tb648 O696 2.552 1_565 S
Tb648 O697 2.413 . S
Tb648 O699 2.362 1_556 S
Tb648 O700 2.421 . S
Tb648 C712 2.833 . S
C649 C652 1.432 . S
C649 C653 1.414 . S
C649 N656 1.359 . S
C650 C652 1.417 . S
C650 C654 1.432 . S
C650 C662 1.410 . S
C651 C653 1.444 . S
C651 C654 1.317 . S
C651 H674 0.929 . S
C652 C649 1.432 . S
C652 C650 1.417 . S
C652 N660 1.360 . S
C653 C649 1.414 . S
C653 C651 1.444 . S
C653 C658 1.385 . S
C654 C650 1.432 . S
C654 C651 1.317 . S
C654 H666 0.930 . S
C655 C657 1.392 . S
C655 C658 1.370 . S
C655 H667 0.931 . S
N656 C649 1.359 . S
N656 C657 1.327 . S
N656 Tb659 2.600 . S
C657 C655 1.392 . S
C657 N656 1.327 . S
C657 H664 0.930 . S
C658 C653 1.385 . S
C658 C655 1.370 . S
C658 H677 0.930 . S
Tb659 N656 2.600 . S
Tb659 N660 2.660 . S
Tb659 O693 2.362 1_554 S
Tb659 O694 2.421 . S
Tb659 O698 2.546 . S
Tb659 O699 2.610 1_545 S
Tb659 O701 2.320 1_545 S
Tb659 O702 2.552 1_545 S
Tb659 O703 2.413 . S
Tb659 C723 2.833 . S
N660 C652 1.360 . S
N660 Tb659 2.660 . S
N660 C661 1.305 . S
C661 N660 1.305 . S
C661 C663 1.407 . S
C661 H668 0.930 . S
C662 C650 1.410 . S
C662 C663 1.345 . S
C662 H670 0.930 . S
C663 C661 1.407 . S
C663 C662 1.345 . S
C663 H665 0.930 . S
H664 C657 0.930 . S
H665 C663 0.930 . S
H666 C654 0.930 . S
H667 C655 0.931 . S
H668 C661 0.930 . S
H669 C683 0.930 . S
H670 C662 0.930 . S
H671 C689 0.930 . S
H672 C680 0.930 . S
H673 C687 0.931 . S
H674 C651 0.929 . S
H675 C681 0.930 . S
H676 C714 0.930 . S
H677 C658 0.930 . S
H678 C713 0.929 . S
N679 Tb648 2.660 . S
N679 C680 1.305 . S
N679 C684 1.360 . S
C680 H672 0.930 . S
C680 N679 1.305 . S
C680 C683 1.407 . S
C681 H675 0.930 . S
C681 C682 1.410 . S
C681 C683 1.345 . S
C682 C681 1.410 . S
C682 C684 1.417 . S
C682 C714 1.432 . S
C683 H669 0.930 . S
C683 C680 1.407 . S
C683 C681 1.345 . S
C684 N679 1.360 . S
C684 C682 1.417 . S
C684 C688 1.432 . S
H685 C690 0.930 . S
N686 Tb648 2.600 . S
N686 C688 1.359 . S
N686 C689 1.327 . S
C687 H673 0.931 . S
C687 C689 1.392 . S
C687 C690 1.370 . S
C688 C684 1.432 . S
C688 N686 1.359 . S
C688 C691 1.414 . S
C689 H671 0.930 . S
C689 N686 1.327 . S
C689 C687 1.392 . S
C690 H685 0.930 . S
C690 C687 1.370 . S
C690 C691 1.385 . S
C691 C688 1.414 . S
C691 C690 1.385 . S
C691 C713 1.444 . S
O692 Tb648 2.546 . S
O692 C712 1.251 . S
O693 Tb648 2.610 1_545 S
O693 Tb659 2.362 1_556 S
O693 C704 1.283 . S
O694 Tb659 2.421 . S
O694 C711 1.262 1_554 S
O695 Tb648 2.320 1_545 S
O695 C711 1.260 . S
O696 Tb648 2.552 1_545 S
O696 C704 1.243 . S
O697 Tb648 2.413 . S
O697 C712 1.256 . S
O698 Tb659 2.546 . S
O698 C723 1.251 . S
O699 Tb648 2.362 1_554 S
O699 Tb659 2.610 1_565 S
O699 C715 1.283 . S
O700 Tb648 2.421 . S
O700 C722 1.262 1_556 S
O701 Tb659 2.320 1_565 S
O701 C722 1.260 . S
O702 Tb659 2.552 1_565 S
O702 C715 1.243 . S
O703 Tb659 2.413 . S
O703 C723 1.256 . S
C704 O693 1.283 . S
C704 O696 1.243 . S
C705 C707 1.382 1_565 S
C705 C709 1.393 . S
C705 C712 1.500 . S
C706 C707 1.400 . S
C706 C708 1.384 1_545 S
C707 C705 1.382 1_545 S
C707 C706 1.400 . S
C707 H724 0.930 . S
C708 C706 1.384 1_565 S
C708 C710 1.392 . S
C708 H725 0.931 . S
C709 C705 1.393 . S
C709 C710 1.401 . S
C709 H726 0.930 . S
C710 C708 1.392 . S
C710 C709 1.401 . S
C710 H727 0.930 . S
C711 O694 1.262 1_556 S
C711 O695 1.260 . S
C712 Tb648 2.833 . S
C712 O692 1.251 . S
C712 O697 1.256 . S
C712 C705 1.500 . S
C713 H678 0.929 . S
C713 C691 1.444 . S
C713 C714 1.317 . S
C714 H676 0.930 . S
C714 C682 1.432 . S
C714 C713 1.317 . S
C715 O699 1.283 . S
C715 O702 1.243 . S
C716 C717 1.382 1_545 S
C716 C720 1.393 . S
C716 C723 1.500 . S
C717 C716 1.382 1_565 S
C717 C718 1.400 . S
C717 H728 0.930 . S
C718 C717 1.400 . S
C718 C719 1.384 1_565 S
C719 C718 1.384 1_545 S
C719 C721 1.392 . S
C719 H729 0.931 . S
C720 C716 1.393 . S
C720 C721 1.401 . S
C720 H730 0.930 . S
C721 C719 1.392 . S
C721 C720 1.401 . S
C721 H731 0.930 . S
C722 O700 1.262 1_554 S
C722 O701 1.260 . S
C723 Tb659 2.833 . S
C723 O698 1.251 . S
C723 O703 1.256 . S
C723 C716 1.500 . S
H724 C707 0.930 . S
H725 C708 0.931 . S
H726 C709 0.930 . S
H727 C710 0.930 . S
H728 C717 0.930 . S
H729 C719 0.931 . S
H730 C720 0.930 . S
H731 C721 0.930 . S
Tb732 N763 2.660 . S
Tb732 N770 2.600 . S
Tb732 O776 2.546 . S
Tb732 O777 2.610 1_455 S
Tb732 O779 2.320 1_455 S
Tb732 O780 2.552 1_455 S
Tb732 O781 2.413 . S
Tb732 O783 2.362 1_556 S
Tb732 O784 2.421 . S
Tb732 C796 2.833 . S
C733 C736 1.432 . S
C733 C737 1.414 . S
C733 N740 1.359 . S
C734 C736 1.417 . S
C734 C738 1.432 . S
C734 C746 1.410 . S
C735 C737 1.444 . S
C735 C738 1.317 . S
C735 H758 0.929 . S
C736 C733 1.432 . S
C736 C734 1.417 . S
C736 N744 1.360 . S
C737 C733 1.414 . S
C737 C735 1.444 . S
C737 C742 1.385 . S
C738 C734 1.432 . S
C738 C735 1.317 . S
C738 H750 0.930 . S
C739 C741 1.392 . S
C739 C742 1.370 . S
C739 H751 0.931 . S
N740 C733 1.359 . S
N740 C741 1.327 . S
N740 Tb743 2.600 . S
C741 C739 1.392 . S
C741 N740 1.327 . S
C741 H748 0.930 . S
C742 C737 1.385 . S
C742 C739 1.370 . S
C742 H761 0.930 . S
Tb743 N740 2.600 . S
Tb743 N744 2.660 . S
Tb743 O777 2.362 1_554 S
Tb743 O778 2.421 . S
Tb743 O782 2.546 . S
Tb743 O783 2.610 1_655 S
Tb743 O785 2.320 1_655 S
Tb743 O786 2.552 1_655 S
Tb743 O787 2.413 . S
Tb743 C807 2.833 . S
N744 C736 1.360 . S
N744 Tb743 2.660 . S
N744 C745 1.305 . S
C745 N744 1.305 . S
C745 C747 1.407 . S
C745 H752 0.930 . S
C746 C734 1.410 . S
C746 C747 1.345 . S
C746 H754 0.930 . S
C747 C745 1.407 . S
C747 C746 1.345 . S
C747 H749 0.930 . S
H748 C741 0.930 . S
H749 C747 0.930 . S
H750 C738 0.930 . S
H751 C739 0.931 . S
H752 C745 0.930 . S
H753 C767 0.930 . S
H754 C746 0.930 . S
H755 C773 0.930 . S
H756 C764 0.930 . S
H757 C771 0.931 . S
H758 C735 0.929 . S
H759 C765 0.930 . S
H760 C798 0.930 . S
H761 C742 0.930 . S
H762 C797 0.929 . S
N763 Tb732 2.660 . S
N763 C764 1.305 . S
N763 C768 1.360 . S
C764 H756 0.930 . S
C764 N763 1.305 . S
C764 C767 1.407 . S
C765 H759 0.930 . S
C765 C766 1.410 . S
C765 C767 1.345 . S
C766 C765 1.410 . S
C766 C768 1.417 . S
C766 C798 1.432 . S
C767 H753 0.930 . S
C767 C764 1.407 . S
C767 C765 1.345 . S
C768 N763 1.360 . S
C768 C766 1.417 . S
C768 C772 1.432 . S
H769 C774 0.930 . S
N770 Tb732 2.600 . S
N770 C772 1.359 . S
N770 C773 1.327 . S
C771 H757 0.931 . S
C771 C773 1.392 . S
C771 C774 1.370 . S
C772 C768 1.432 . S
C772 N770 1.359 . S
C772 C775 1.414 . S
C773 H755 0.930 . S
C773 N770 1.327 . S
C773 C771 1.392 . S
C774 H769 0.930 . S
C774 C771 1.370 . S
C774 C775 1.385 . S
C775 C772 1.414 . S
C775 C774 1.385 . S
C775 C797 1.444 . S
O776 Tb732 2.546 . S
O776 C796 1.251 . S
O777 Tb732 2.610 1_655 S
O777 Tb743 2.362 1_556 S
O777 C788 1.283 . S
O778 Tb743 2.421 . S
O778 C795 1.262 1_554 S
O779 Tb732 2.320 1_655 S
O779 C795 1.260 . S
O780 Tb732 2.552 1_655 S
O780 C788 1.243 . S
O781 Tb732 2.413 . S
O781 C796 1.256 . S
O782 Tb743 2.546 . S
O782 C807 1.251 . S
O783 Tb732 2.362 1_554 S
O783 Tb743 2.610 1_455 S
O783 C799 1.283 . S
O784 Tb732 2.421 . S
O784 C806 1.262 1_556 S
O785 Tb743 2.320 1_455 S
O785 C806 1.260 . S
O786 Tb743 2.552 1_455 S
O786 C799 1.243 . S
O787 Tb743 2.413 . S
O787 C807 1.256 . S
C788 O777 1.283 . S
C788 O780 1.243 . S
C789 C791 1.382 1_455 S
C789 C793 1.393 . S
C789 C796 1.500 . S
C790 C791 1.400 . S
C790 C792 1.384 1_655 S
C791 C789 1.382 1_655 S
C791 C790 1.400 . S
C791 H808 0.930 . S
C792 C790 1.384 1_455 S
C792 C794 1.392 . S
C792 H809 0.931 . S
C793 C789 1.393 . S
C793 C794 1.401 . S
C793 H810 0.930 . S
C794 C792 1.392 . S
C794 C793 1.401 . S
C794 H811 0.930 . S
C795 O778 1.262 1_556 S
C795 O779 1.260 . S
C796 Tb732 2.833 . S
C796 O776 1.251 . S
C796 O781 1.256 . S
C796 C789 1.500 . S
C797 H762 0.929 . S
C797 C775 1.444 . S
C797 C798 1.317 . S
C798 H760 0.930 . S
C798 C766 1.432 . S
C798 C797 1.317 . S
C799 O783 1.283 . S
C799 O786 1.243 . S
C800 C801 1.382 1_655 S
C800 C804 1.393 . S
C800 C807 1.500 . S
C801 C800 1.382 1_455 S
C801 C802 1.400 . S
C801 H812 0.930 . S
C802 C801 1.400 . S
C802 C803 1.384 1_455 S
C803 C802 1.384 1_655 S
C803 C805 1.392 . S
C803 H813 0.931 . S
C804 C800 1.393 . S
C804 C805 1.401 . S
C804 H814 0.930 . S
C805 C803 1.392 . S
C805 C804 1.401 . S
C805 H815 0.930 . S
C806 O784 1.262 1_554 S
C806 O785 1.260 . S
C807 Tb743 2.833 . S
C807 O782 1.251 . S
C807 O787 1.256 . S
C807 C800 1.500 . S
H808 C791 0.930 . S
H809 C792 0.931 . S
H810 C793 0.930 . S
H811 C794 0.930 . S
H812 C801 0.930 . S
H813 C803 0.931 . S
H814 C804 0.930 . S
H815 C805 0.930 . S
Tb816 N847 2.660 . S
Tb816 N854 2.600 . S
Tb816 O860 2.546 . S
Tb816 O861 2.610 . S
Tb816 O863 2.320 . S
Tb816 O864 2.552 . S
Tb816 O865 2.413 . S
Tb816 O867 2.362 1_554 S
Tb816 O868 2.421 . S
Tb816 C880 2.833 . S
C817 C820 1.432 . S
C817 C821 1.414 . S
C817 N824 1.359 . S
C818 C820 1.417 . S
C818 C822 1.432 . S
C818 C830 1.410 . S
C819 C821 1.444 . S
C819 C822 1.317 . S
C819 H842 0.929 . S
C820 C817 1.432 . S
C820 C818 1.417 . S
C820 N828 1.360 . S
C821 C817 1.414 . S
C821 C819 1.444 . S
C821 C826 1.385 . S
C822 C818 1.432 . S
C822 C819 1.317 . S
C822 H834 0.930 . S
C823 C825 1.392 . S
C823 C826 1.370 . S
C823 H835 0.931 . S
N824 C817 1.359 . S
N824 C825 1.327 . S
N824 Tb827 2.600 . S
C825 C823 1.392 . S
C825 N824 1.327 . S
C825 H832 0.930 . S
C826 C821 1.385 . S
C826 C823 1.370 . S
C826 H845 0.930 . S
Tb827 N824 2.600 . S
Tb827 N828 2.660 . S
Tb827 O861 2.362 1_556 S
Tb827 O862 2.421 . S
Tb827 O866 2.546 . S
Tb827 O867 2.610 . S
Tb827 O869 2.320 . S
Tb827 O870 2.552 . S
Tb827 O871 2.413 . S
Tb827 C891 2.833 . S
N828 C820 1.360 . S
N828 Tb827 2.660 . S
N828 C829 1.305 . S
C829 N828 1.305 . S
C829 C831 1.407 . S
C829 H836 0.930 . S
C830 C818 1.410 . S
C830 C831 1.345 . S
C830 H838 0.930 . S
C831 C829 1.407 . S
C831 C830 1.345 . S
C831 H833 0.930 . S
H832 C825 0.930 . S
H833 C831 0.930 . S
H834 C822 0.930 . S
H835 C823 0.931 . S
H836 C829 0.930 . S
H837 C851 0.930 . S
H838 C830 0.930 . S
H839 C857 0.930 . S
H840 C848 0.930 . S
H841 C855 0.931 . S
H842 C819 0.929 . S
H843 C849 0.930 . S
H844 C882 0.930 . S
H845 C826 0.930 . S
H846 C881 0.929 . S
N847 Tb816 2.660 . S
N847 C848 1.305 . S
N847 C852 1.360 . S
C848 H840 0.930 . S
C848 N847 1.305 . S
C848 C851 1.407 . S
C849 H843 0.930 . S
C849 C850 1.410 . S
C849 C851 1.345 . S
C850 C849 1.410 . S
C850 C852 1.417 . S
C850 C882 1.432 . S
C851 H837 0.930 . S
C851 C848 1.407 . S
C851 C849 1.345 . S
C852 N847 1.360 . S
C852 C850 1.417 . S
C852 C856 1.432 . S
H853 C858 0.930 . S
N854 Tb816 2.600 . S
N854 C856 1.359 . S
N854 C857 1.327 . S
C855 H841 0.931 . S
C855 C857 1.392 . S
C855 C858 1.370 . S
C856 C852 1.432 . S
C856 N854 1.359 . S
C856 C859 1.414 . S
C857 H839 0.930 . S
C857 N854 1.327 . S
C857 C855 1.392 . S
C858 H853 0.930 . S
C858 C855 1.370 . S
C858 C859 1.385 . S
C859 C856 1.414 . S
C859 C858 1.385 . S
C859 C881 1.444 . S
O860 Tb816 2.546 . S
O860 C880 1.251 . S
O861 Tb816 2.610 . S
O861 Tb827 2.362 1_554 S
O861 C872 1.283 . S
O862 Tb827 2.421 . S
O862 C879 1.262 1_556 S
O863 Tb816 2.320 . S
O863 C879 1.260 . S
O864 Tb816 2.552 . S
O864 C872 1.243 . S
O865 Tb816 2.413 . S
O865 C880 1.256 . S
O866 Tb827 2.546 . S
O866 C891 1.251 . S
O867 Tb816 2.362 1_556 S
O867 Tb827 2.610 . S
O867 C883 1.283 . S
O868 Tb816 2.421 . S
O868 C890 1.262 1_554 S
O869 Tb827 2.320 . S
O869 C890 1.260 . S
O870 Tb827 2.552 . S
O870 C883 1.243 . S
O871 Tb827 2.413 . S
O871 C891 1.256 . S
C872 O861 1.283 . S
C872 O864 1.243 . S
C873 C875 1.382 . S
C873 C877 1.393 . S
C873 C880 1.500 . S
C874 C875 1.400 . S
C874 C876 1.384 . S
C875 C873 1.382 . S
C875 C874 1.400 . S
C875 H892 0.930 . S
C876 C874 1.384 . S
C876 C878 1.392 . S
C876 H893 0.931 . S
C877 C873 1.393 . S
C877 C878 1.401 . S
C877 H894 0.930 . S
C878 C876 1.392 . S
C878 C877 1.401 . S
C878 H895 0.930 . S
C879 O862 1.262 1_554 S
C879 O863 1.260 . S
C880 Tb816 2.833 . S
C880 O860 1.251 . S
C880 O865 1.256 . S
C880 C873 1.500 . S
C881 H846 0.929 . S
C881 C859 1.444 . S
C881 C882 1.317 . S
C882 H844 0.930 . S
C882 C850 1.432 . S
C882 C881 1.317 . S
C883 O867 1.283 . S
C883 O870 1.243 . S
C884 C885 1.382 . S
C884 C888 1.393 . S
C884 C891 1.500 . S
C885 C884 1.382 . S
C885 C886 1.400 . S
C885 H896 0.930 . S
C886 C885 1.400 . S
C886 C887 1.384 . S
C887 C886 1.384 . S
C887 C889 1.392 . S
C887 H897 0.931 . S
C888 C884 1.393 . S
C888 C889 1.401 . S
C888 H898 0.930 . S
C889 C887 1.392 . S
C889 C888 1.401 . S
C889 H899 0.930 . S
C890 O868 1.262 1_556 S
C890 O869 1.260 . S
C891 Tb827 2.833 . S
C891 O866 1.251 . S
C891 O871 1.256 . S
C891 C884 1.500 . S
H892 C875 0.930 . S
H893 C876 0.931 . S
H894 C877 0.930 . S
H895 C878 0.930 . S
H896 C885 0.930 . S
H897 C887 0.931 . S
H898 C888 0.930 . S
H899 C889 0.930 . S
Tb900 N931 2.660 . S
Tb900 N938 2.600 . S
Tb900 O944 2.546 . S
Tb900 O945 2.610 . S
Tb900 O947 2.320 . S
Tb900 O948 2.552 . S
Tb900 O949 2.413 . S
Tb900 O951 2.362 . S
Tb900 O952 2.421 . S
Tb900 C964 2.833 . S
C901 C904 1.432 . S
C901 C905 1.414 . S
C901 N908 1.359 . S
C902 C904 1.417 . S
C902 C906 1.432 . S
C902 C914 1.410 . S
C903 C905 1.444 . S
C903 C906 1.317 . S
C903 H926 0.929 . S
C904 C901 1.432 . S
C904 C902 1.417 . S
C904 N912 1.360 . S
C905 C901 1.414 . S
C905 C903 1.444 . S
C905 C910 1.385 . S
C906 C902 1.432 . S
C906 C903 1.317 . S
C906 H918 0.930 . S
C907 C909 1.392 . S
C907 C910 1.370 . S
C907 H919 0.931 . S
N908 C901 1.359 . S
N908 C909 1.327 . S
N908 Tb911 2.600 . S
C909 C907 1.392 . S
C909 N908 1.327 . S
C909 H916 0.930 . S
C910 C905 1.385 . S
C910 C907 1.370 . S
C910 H929 0.930 . S
Tb911 N908 2.600 . S
Tb911 N912 2.660 . S
Tb911 O945 2.362 . S
Tb911 O946 2.421 . S
Tb911 O950 2.546 . S
Tb911 O951 2.610 . S
Tb911 O953 2.320 . S
Tb911 O954 2.552 . S
Tb911 O955 2.413 . S
Tb911 C975 2.833 . S
N912 C904 1.360 . S
N912 Tb911 2.660 . S
N912 C913 1.305 . S
C913 N912 1.305 . S
C913 C915 1.407 . S
C913 H920 0.930 . S
C914 C902 1.410 . S
C914 C915 1.345 . S
C914 H922 0.930 . S
C915 C913 1.407 . S
C915 C914 1.345 . S
C915 H917 0.930 . S
H916 C909 0.930 . S
H917 C915 0.930 . S
H918 C906 0.930 . S
H919 C907 0.931 . S
H920 C913 0.930 . S
H921 C935 0.930 . S
H922 C914 0.930 . S
H923 C941 0.930 . S
H924 C932 0.930 . S
H925 C939 0.931 . S
H926 C903 0.929 . S
H927 C933 0.930 . S
H928 C966 0.930 . S
H929 C910 0.930 . S
H930 C965 0.929 . S
N931 Tb900 2.660 . S
N931 C932 1.305 . S
N931 C936 1.360 . S
C932 H924 0.930 . S
C932 N931 1.305 . S
C932 C935 1.407 . S
C933 H927 0.930 . S
C933 C934 1.410 . S
C933 C935 1.345 . S
C934 C933 1.410 . S
C934 C936 1.417 . S
C934 C966 1.432 . S
C935 H921 0.930 . S
C935 C932 1.407 . S
C935 C933 1.345 . S
C936 N931 1.360 . S
C936 C934 1.417 . S
C936 C940 1.432 . S
H937 C942 0.930 . S
N938 Tb900 2.600 . S
N938 C940 1.359 . S
N938 C941 1.327 . S
C939 H925 0.931 . S
C939 C941 1.392 . S
C939 C942 1.370 . S
C940 C936 1.432 . S
C940 N938 1.359 . S
C940 C943 1.414 . S
C941 H923 0.930 . S
C941 N938 1.327 . S
C941 C939 1.392 . S
C942 H937 0.930 . S
C942 C939 1.370 . S
C942 C943 1.385 . S
C943 C940 1.414 . S
C943 C942 1.385 . S
C943 C965 1.444 . S
O944 Tb900 2.546 . S
O944 C964 1.251 . S
O945 Tb900 2.610 . S
O945 Tb911 2.362 . S
O945 C956 1.283 . S
O946 Tb911 2.421 . S
O946 C963 1.262 . S
O947 Tb900 2.320 . S
O947 C963 1.260 . S
O948 Tb900 2.552 . S
O948 C956 1.243 . S
O949 Tb900 2.413 . S
O949 C964 1.256 . S
O950 Tb911 2.546 . S
O950 C975 1.251 . S
O951 Tb900 2.362 . S
O951 Tb911 2.610 . S
O951 C967 1.283 . S
O952 Tb900 2.421 . S
O952 C974 1.262 . S
O953 Tb911 2.320 . S
O953 C974 1.260 . S
O954 Tb911 2.552 . S
O954 C967 1.243 . S
O955 Tb911 2.413 . S
O955 C975 1.256 . S
C956 O945 1.283 . S
C956 O948 1.243 . S
C957 C959 1.382 . S
C957 C961 1.393 . S
C957 C964 1.500 . S
C958 C959 1.400 . S
C958 C960 1.384 . S
C959 C957 1.382 . S
C959 C958 1.400 . S
C959 H976 0.930 . S
C960 C958 1.384 . S
C960 C962 1.392 . S
C960 H977 0.931 . S
C961 C957 1.393 . S
C961 C962 1.401 . S
C961 H978 0.930 . S
C962 C960 1.392 . S
C962 C961 1.401 . S
C962 H979 0.930 . S
C963 O946 1.262 . S
C963 O947 1.260 . S
C964 Tb900 2.833 . S
C964 O944 1.251 . S
C964 O949 1.256 . S
C964 C957 1.500 . S
C965 H930 0.929 . S
C965 C943 1.444 . S
C965 C966 1.317 . S
C966 H928 0.930 . S
C966 C934 1.432 . S
C966 C965 1.317 . S
C967 O951 1.283 . S
C967 O954 1.243 . S
C968 C969 1.382 . S
C968 C972 1.393 . S
C968 C975 1.500 . S
C969 C968 1.382 . S
C969 C970 1.400 . S
C969 H980 0.930 . S
C970 C969 1.400 . S
C970 C971 1.384 . S
C971 C970 1.384 . S
C971 C973 1.392 . S
C971 H981 0.931 . S
C972 C968 1.393 . S
C972 C973 1.401 . S
C972 H982 0.930 . S
C973 C971 1.392 . S
C973 C972 1.401 . S
C973 H983 0.930 . S
C974 O952 1.262 . S
C974 O953 1.260 . S
C975 Tb911 2.833 . S
C975 O950 1.251 . S
C975 O955 1.256 . S
C975 C968 1.500 . S
H976 C959 0.930 . S
H977 C960 0.931 . S
H978 C961 0.930 . S
H979 C962 0.930 . S
H980 C969 0.930 . S
H981 C971 0.931 . S
H982 C972 0.930 . S
H983 C973 0.930 . S
Tb984 N1015 2.660 . S
Tb984 N1022 2.600 . S
Tb984 O1028 2.546 . S
Tb984 O1029 2.610 . S
Tb984 O1031 2.320 . S
Tb984 O1032 2.552 . S
Tb984 O1033 2.413 . S
Tb984 O1035 2.362 . S
Tb984 O1036 2.421 . S
Tb984 C1048 2.833 . S
C985 C988 1.432 . S
C985 C989 1.414 . S
C985 N992 1.359 . S
C986 C988 1.417 . S
C986 C990 1.432 . S
C986 C998 1.410 . S
C987 C989 1.444 . S
C987 C990 1.317 . S
C987 H1010 0.929 . S
C988 C985 1.432 . S
C988 C986 1.417 . S
C988 N996 1.360 . S
C989 C985 1.414 . S
C989 C987 1.444 . S
C989 C994 1.385 . S
C990 C986 1.432 . S
C990 C987 1.317 . S
C990 H1002 0.930 . S
C991 C993 1.392 . S
C991 C994 1.370 . S
C991 H1003 0.931 . S
N992 C985 1.359 . S
N992 C993 1.327 . S
N992 Tb995 2.600 . S
C993 C991 1.392 . S
C993 N992 1.327 . S
C993 H1000 0.930 . S
C994 C989 1.385 . S
C994 C991 1.370 . S
C994 H1013 0.930 . S
Tb995 N992 2.600 . S
Tb995 N996 2.660 . S
Tb995 O1029 2.362 . S
Tb995 O1030 2.421 . S
Tb995 O1034 2.546 . S
Tb995 O1035 2.610 . S
Tb995 O1037 2.320 . S
Tb995 O1038 2.552 . S
Tb995 O1039 2.413 . S
Tb995 C1059 2.833 . S
N996 C988 1.360 . S
N996 Tb995 2.660 . S
N996 C997 1.305 . S
C997 N996 1.305 . S
C997 C999 1.407 . S
C997 H1004 0.930 . S
C998 C986 1.410 . S
C998 C999 1.345 . S
C998 H1006 0.930 . S
C999 C997 1.407 . S
C999 C998 1.345 . S
C999 H1001 0.930 . S
H1000 C993 0.930 . S
H1001 C999 0.930 . S
H1002 C990 0.930 . S
H1003 C991 0.931 . S
H1004 C997 0.930 . S
H1005 C1019 0.930 . S
H1006 C998 0.930 . S
H1007 C1025 0.930 . S
H1008 C1016 0.930 . S
H1009 C1023 0.931 . S
H1010 C987 0.929 . S
H1011 C1017 0.930 . S
H1012 C1050 0.930 . S
H1013 C994 0.930 . S
H1014 C1049 0.929 . S
N1015 Tb984 2.660 . S
N1015 C1016 1.305 . S
N1015 C1020 1.360 . S
C1016 H1008 0.930 . S
C1016 N1015 1.305 . S
C1016 C1019 1.407 . S
C1017 H1011 0.930 . S
C1017 C1018 1.410 . S
C1017 C1019 1.345 . S
C1018 C1017 1.410 . S
C1018 C1020 1.417 . S
C1018 C1050 1.432 . S
C1019 H1005 0.930 . S
C1019 C1016 1.407 . S
C1019 C1017 1.345 . S
C1020 N1015 1.360 . S
C1020 C1018 1.417 . S
C1020 C1024 1.432 . S
H1021 C1026 0.930 . S
N1022 Tb984 2.600 . S
N1022 C1024 1.359 . S
N1022 C1025 1.327 . S
C1023 H1009 0.931 . S
C1023 C1025 1.392 . S
C1023 C1026 1.370 . S
C1024 C1020 1.432 . S
C1024 N1022 1.359 . S
C1024 C1027 1.414 . S
C1025 H1007 0.930 . S
C1025 N1022 1.327 . S
C1025 C1023 1.392 . S
C1026 H1021 0.930 . S
C1026 C1023 1.370 . S
C1026 C1027 1.385 . S
C1027 C1024 1.414 . S
C1027 C1026 1.385 . S
C1027 C1049 1.444 . S
O1028 Tb984 2.546 . S
O1028 C1048 1.251 . S
O1029 Tb984 2.610 . S
O1029 Tb995 2.362 . S
O1029 C1040 1.283 . S
O1030 Tb995 2.421 . S
O1030 C1047 1.262 . S
O1031 Tb984 2.320 . S
O1031 C1047 1.260 . S
O1032 Tb984 2.552 . S
O1032 C1040 1.243 . S
O1033 Tb984 2.413 . S
O1033 C1048 1.256 . S
O1034 Tb995 2.546 . S
O1034 C1059 1.251 . S
O1035 Tb984 2.362 . S
O1035 Tb995 2.610 . S
O1035 C1051 1.283 . S
O1036 Tb984 2.421 . S
O1036 C1058 1.262 . S
O1037 Tb995 2.320 . S
O1037 C1058 1.260 . S
O1038 Tb995 2.552 . S
O1038 C1051 1.243 . S
O1039 Tb995 2.413 . S
O1039 C1059 1.256 . S
C1040 O1029 1.283 . S
C1040 O1032 1.243 . S
C1041 C1043 1.382 . S
C1041 C1045 1.393 . S
C1041 C1048 1.500 . S
C1042 C1043 1.400 . S
C1042 C1044 1.384 . S
C1043 C1041 1.382 . S
C1043 C1042 1.400 . S
C1043 H1060 0.930 . S
C1044 C1042 1.384 . S
C1044 C1046 1.392 . S
C1044 H1061 0.931 . S
C1045 C1041 1.393 . S
C1045 C1046 1.401 . S
C1045 H1062 0.930 . S
C1046 C1044 1.392 . S
C1046 C1045 1.401 . S
C1046 H1063 0.930 . S
C1047 O1030 1.262 . S
C1047 O1031 1.260 . S
C1048 Tb984 2.833 . S
C1048 O1028 1.251 . S
C1048 O1033 1.256 . S
C1048 C1041 1.500 . S
C1049 H1014 0.929 . S
C1049 C1027 1.444 . S
C1049 C1050 1.317 . S
C1050 H1012 0.930 . S
C1050 C1018 1.432 . S
C1050 C1049 1.317 . S
C1051 O1035 1.283 . S
C1051 O1038 1.243 . S
C1052 C1053 1.382 . S
C1052 C1056 1.393 . S
C1052 C1059 1.500 . S
C1053 C1052 1.382 . S
C1053 C1054 1.400 . S
C1053 H1064 0.930 . S
C1054 C1053 1.400 . S
C1054 C1055 1.384 . S
C1055 C1054 1.384 . S
C1055 C1057 1.392 . S
C1055 H1065 0.931 . S
C1056 C1052 1.393 . S
C1056 C1057 1.401 . S
C1056 H1066 0.930 . S
C1057 C1055 1.392 . S
C1057 C1056 1.401 . S
C1057 H1067 0.930 . S
C1058 O1036 1.262 . S
C1058 O1037 1.260 . S
C1059 Tb995 2.833 . S
C1059 O1034 1.251 . S
C1059 O1039 1.256 . S
C1059 C1052 1.500 . S
H1060 C1043 0.930 . S
H1061 C1044 0.931 . S
H1062 C1045 0.930 . S
H1063 C1046 0.930 . S
H1064 C1053 0.930 . S
H1065 C1055 0.931 . S
H1066 C1056 0.930 . S
H1067 C1057 0.930 . S
Tb1068 N1099 2.660 . S
Tb1068 N1106 2.600 . S
Tb1068 O1112 2.546 . S
Tb1068 O1113 2.610 . S
Tb1068 O1115 2.320 . S
Tb1068 O1116 2.552 . S
Tb1068 O1117 2.413 . S
Tb1068 O1119 2.362 . S
Tb1068 O1120 2.421 . S
Tb1068 C1132 2.833 . S
C1069 C1072 1.432 . S
C1069 C1073 1.414 . S
C1069 N1076 1.359 . S
C1070 C1072 1.417 . S
C1070 C1074 1.432 . S
C1070 C1082 1.410 . S
C1071 C1073 1.444 . S
C1071 C1074 1.317 . S
C1071 H1094 0.929 . S
C1072 C1069 1.432 . S
C1072 C1070 1.417 . S
C1072 N1080 1.360 . S
C1073 C1069 1.414 . S
C1073 C1071 1.444 . S
C1073 C1078 1.385 . S
C1074 C1070 1.432 . S
C1074 C1071 1.317 . S
C1074 H1086 0.930 . S
C1075 C1077 1.392 . S
C1075 C1078 1.370 . S
C1075 H1087 0.931 . S
N1076 C1069 1.359 . S
N1076 C1077 1.327 . S
N1076 Tb1079 2.600 . S
C1077 C1075 1.392 . S
C1077 N1076 1.327 . S
C1077 H1084 0.930 . S
C1078 C1073 1.385 . S
C1078 C1075 1.370 . S
C1078 H1097 0.930 . S
Tb1079 N1076 2.600 . S
Tb1079 N1080 2.660 . S
Tb1079 O1113 2.362 . S
Tb1079 O1114 2.421 . S
Tb1079 O1118 2.546 . S
Tb1079 O1119 2.610 . S
Tb1079 O1121 2.320 . S
Tb1079 O1122 2.552 . S
Tb1079 O1123 2.413 . S
Tb1079 C1143 2.833 . S
N1080 C1072 1.360 . S
N1080 Tb1079 2.660 . S
N1080 C1081 1.305 . S
C1081 N1080 1.305 . S
C1081 C1083 1.407 . S
C1081 H1088 0.930 . S
C1082 C1070 1.410 . S
C1082 C1083 1.345 . S
C1082 H1090 0.930 . S
C1083 C1081 1.407 . S
C1083 C1082 1.345 . S
C1083 H1085 0.930 . S
H1084 C1077 0.930 . S
H1085 C1083 0.930 . S
H1086 C1074 0.930 . S
H1087 C1075 0.931 . S
H1088 C1081 0.930 . S
H1089 C1103 0.930 . S
H1090 C1082 0.930 . S
H1091 C1109 0.930 . S
H1092 C1100 0.930 . S
H1093 C1107 0.931 . S
H1094 C1071 0.929 . S
H1095 C1101 0.930 . S
H1096 C1134 0.930 . S
H1097 C1078 0.930 . S
H1098 C1133 0.929 . S
N1099 Tb1068 2.660 . S
N1099 C1100 1.305 . S
N1099 C1104 1.360 . S
C1100 H1092 0.930 . S
C1100 N1099 1.305 . S
C1100 C1103 1.407 . S
C1101 H1095 0.930 . S
C1101 C1102 1.410 . S
C1101 C1103 1.345 . S
C1102 C1101 1.410 . S
C1102 C1104 1.417 . S
C1102 C1134 1.432 . S
C1103 H1089 0.930 . S
C1103 C1100 1.407 . S
C1103 C1101 1.345 . S
C1104 N1099 1.360 . S
C1104 C1102 1.417 . S
C1104 C1108 1.432 . S
H1105 C1110 0.930 . S
N1106 Tb1068 2.600 . S
N1106 C1108 1.359 . S
N1106 C1109 1.327 . S
C1107 H1093 0.931 . S
C1107 C1109 1.392 . S
C1107 C1110 1.370 . S
C1108 C1104 1.432 . S
C1108 N1106 1.359 . S
C1108 C1111 1.414 . S
C1109 H1091 0.930 . S
C1109 N1106 1.327 . S
C1109 C1107 1.392 . S
C1110 H1105 0.930 . S
C1110 C1107 1.370 . S
C1110 C1111 1.385 . S
C1111 C1108 1.414 . S
C1111 C1110 1.385 . S
C1111 C1133 1.444 . S
O1112 Tb1068 2.546 . S
O1112 C1132 1.251 . S
O1113 Tb1068 2.610 . S
O1113 Tb1079 2.362 . S
O1113 C1124 1.283 . S
O1114 Tb1079 2.421 . S
O1114 C1131 1.262 . S
O1115 Tb1068 2.320 . S
O1115 C1131 1.260 . S
O1116 Tb1068 2.552 . S
O1116 C1124 1.243 . S
O1117 Tb1068 2.413 . S
O1117 C1132 1.256 . S
O1118 Tb1079 2.546 . S
O1118 C1143 1.251 . S
O1119 Tb1068 2.362 . S
O1119 Tb1079 2.610 . S
O1119 C1135 1.283 . S
O1120 Tb1068 2.421 . S
O1120 C1142 1.262 . S
O1121 Tb1079 2.320 . S
O1121 C1142 1.260 . S
O1122 Tb1079 2.552 . S
O1122 C1135 1.243 . S
O1123 Tb1079 2.413 . S
O1123 C1143 1.256 . S
C1124 O1113 1.283 . S
C1124 O1116 1.243 . S
C1125 C1127 1.382 . S
C1125 C1129 1.393 . S
C1125 C1132 1.500 . S
C1126 C1127 1.400 . S
C1126 C1128 1.384 . S
C1127 C1125 1.382 . S
C1127 C1126 1.400 . S
C1127 H1144 0.930 . S
C1128 C1126 1.384 . S
C1128 C1130 1.392 . S
C1128 H1145 0.931 . S
C1129 C1125 1.393 . S
C1129 C1130 1.401 . S
C1129 H1146 0.930 . S
C1130 C1128 1.392 . S
C1130 C1129 1.401 . S
C1130 H1147 0.930 . S
C1131 O1114 1.262 . S
C1131 O1115 1.260 . S
C1132 Tb1068 2.833 . S
C1132 O1112 1.251 . S
C1132 O1117 1.256 . S
C1132 C1125 1.500 . S
C1133 H1098 0.929 . S
C1133 C1111 1.444 . S
C1133 C1134 1.317 . S
C1134 H1096 0.930 . S
C1134 C1102 1.432 . S
C1134 C1133 1.317 . S
C1135 O1119 1.283 . S
C1135 O1122 1.243 . S
C1136 C1137 1.382 . S
C1136 C1140 1.393 . S
C1136 C1143 1.500 . S
C1137 C1136 1.382 . S
C1137 C1138 1.400 . S
C1137 H1148 0.930 . S
C1138 C1137 1.400 . S
C1138 C1139 1.384 . S
C1139 C1138 1.384 . S
C1139 C1141 1.392 . S
C1139 H1149 0.931 . S
C1140 C1136 1.393 . S
C1140 C1141 1.401 . S
C1140 H1150 0.930 . S
C1141 C1139 1.392 . S
C1141 C1140 1.401 . S
C1141 H1151 0.930 . S
C1142 O1120 1.262 . S
C1142 O1121 1.260 . S
C1143 Tb1079 2.833 . S
C1143 O1118 1.251 . S
C1143 O1123 1.256 . S
C1143 C1136 1.500 . S
H1144 C1127 0.930 . S
H1145 C1128 0.931 . S
H1146 C1129 0.930 . S
H1147 C1130 0.930 . S
H1148 C1137 0.930 . S
H1149 C1139 0.931 . S
H1150 C1140 0.930 . S
H1151 C1141 0.930 . S
Tb1152 N1183 2.660 . S
Tb1152 N1190 2.600 . S
Tb1152 O1196 2.546 . S
Tb1152 O1197 2.610 . S
Tb1152 O1199 2.320 . S
Tb1152 O1200 2.552 . S
Tb1152 O1201 2.413 . S
Tb1152 O1203 2.362 . S
Tb1152 O1204 2.421 . S
Tb1152 C1216 2.833 . S
C1153 C1156 1.432 . S
C1153 C1157 1.414 . S
C1153 N1160 1.359 . S
C1154 C1156 1.417 . S
C1154 C1158 1.432 . S
C1154 C1166 1.410 . S
C1155 C1157 1.444 . S
C1155 C1158 1.317 . S
C1155 H1178 0.929 . S
C1156 C1153 1.432 . S
C1156 C1154 1.417 . S
C1156 N1164 1.360 . S
C1157 C1153 1.414 . S
C1157 C1155 1.444 . S
C1157 C1162 1.385 . S
C1158 C1154 1.432 . S
C1158 C1155 1.317 . S
C1158 H1170 0.930 . S
C1159 C1161 1.392 . S
C1159 C1162 1.370 . S
C1159 H1171 0.931 . S
N1160 C1153 1.359 . S
N1160 C1161 1.327 . S
N1160 Tb1163 2.600 . S
C1161 C1159 1.392 . S
C1161 N1160 1.327 . S
C1161 H1168 0.930 . S
C1162 C1157 1.385 . S
C1162 C1159 1.370 . S
C1162 H1181 0.930 . S
Tb1163 N1160 2.600 . S
Tb1163 N1164 2.660 . S
Tb1163 O1197 2.362 . S
Tb1163 O1198 2.421 . S
Tb1163 O1202 2.546 . S
Tb1163 O1203 2.610 . S
Tb1163 O1205 2.320 . S
Tb1163 O1206 2.552 . S
Tb1163 O1207 2.413 . S
Tb1163 C1227 2.833 . S
N1164 C1156 1.360 . S
N1164 Tb1163 2.660 . S
N1164 C1165 1.305 . S
C1165 N1164 1.305 . S
C1165 C1167 1.407 . S
C1165 H1172 0.930 . S
C1166 C1154 1.410 . S
C1166 C1167 1.345 . S
C1166 H1174 0.930 . S
C1167 C1165 1.407 . S
C1167 C1166 1.345 . S
C1167 H1169 0.930 . S
H1168 C1161 0.930 . S
H1169 C1167 0.930 . S
H1170 C1158 0.930 . S
H1171 C1159 0.931 . S
H1172 C1165 0.930 . S
H1173 C1187 0.930 . S
H1174 C1166 0.930 . S
H1175 C1193 0.930 . S
H1176 C1184 0.930 . S
H1177 C1191 0.931 . S
H1178 C1155 0.929 . S
H1179 C1185 0.930 . S
H1180 C1218 0.930 . S
H1181 C1162 0.930 . S
H1182 C1217 0.929 . S
N1183 Tb1152 2.660 . S
N1183 C1184 1.305 . S
N1183 C1188 1.360 . S
C1184 H1176 0.930 . S
C1184 N1183 1.305 . S
C1184 C1187 1.407 . S
C1185 H1179 0.930 . S
C1185 C1186 1.410 . S
C1185 C1187 1.345 . S
C1186 C1185 1.410 . S
C1186 C1188 1.417 . S
C1186 C1218 1.432 . S
C1187 H1173 0.930 . S
C1187 C1184 1.407 . S
C1187 C1185 1.345 . S
C1188 N1183 1.360 . S
C1188 C1186 1.417 . S
C1188 C1192 1.432 . S
H1189 C1194 0.930 . S
N1190 Tb1152 2.600 . S
N1190 C1192 1.359 . S
N1190 C1193 1.327 . S
C1191 H1177 0.931 . S
C1191 C1193 1.392 . S
C1191 C1194 1.370 . S
C1192 C1188 1.432 . S
C1192 N1190 1.359 . S
C1192 C1195 1.414 . S
C1193 H1175 0.930 . S
C1193 N1190 1.327 . S
C1193 C1191 1.392 . S
C1194 H1189 0.930 . S
C1194 C1191 1.370 . S
C1194 C1195 1.385 . S
C1195 C1192 1.414 . S
C1195 C1194 1.385 . S
C1195 C1217 1.444 . S
O1196 Tb1152 2.546 . S
O1196 C1216 1.251 . S
O1197 Tb1152 2.610 . S
O1197 Tb1163 2.362 . S
O1197 C1208 1.283 . S
O1198 Tb1163 2.421 . S
O1198 C1215 1.262 . S
O1199 Tb1152 2.320 . S
O1199 C1215 1.260 . S
O1200 Tb1152 2.552 . S
O1200 C1208 1.243 . S
O1201 Tb1152 2.413 . S
O1201 C1216 1.256 . S
O1202 Tb1163 2.546 . S
O1202 C1227 1.251 . S
O1203 Tb1152 2.362 . S
O1203 Tb1163 2.610 . S
O1203 C1219 1.283 . S
O1204 Tb1152 2.421 . S
O1204 C1226 1.262 . S
O1205 Tb1163 2.320 . S
O1205 C1226 1.260 . S
O1206 Tb1163 2.552 . S
O1206 C1219 1.243 . S
O1207 Tb1163 2.413 . S
O1207 C1227 1.256 . S
C1208 O1197 1.283 . S
C1208 O1200 1.243 . S
C1209 C1211 1.382 . S
C1209 C1213 1.393 . S
C1209 C1216 1.500 . S
C1210 C1211 1.400 . S
C1210 C1212 1.384 . S
C1211 C1209 1.382 . S
C1211 C1210 1.400 . S
C1211 H1228 0.930 . S
C1212 C1210 1.384 . S
C1212 C1214 1.392 . S
C1212 H1229 0.931 . S
C1213 C1209 1.393 . S
C1213 C1214 1.401 . S
C1213 H1230 0.930 . S
C1214 C1212 1.392 . S
C1214 C1213 1.401 . S
C1214 H1231 0.930 . S
C1215 O1198 1.262 . S
C1215 O1199 1.260 . S
C1216 Tb1152 2.833 . S
C1216 O1196 1.251 . S
C1216 O1201 1.256 . S
C1216 C1209 1.500 . S
C1217 H1182 0.929 . S
C1217 C1195 1.444 . S
C1217 C1218 1.317 . S
C1218 H1180 0.930 . S
C1218 C1186 1.432 . S
C1218 C1217 1.317 . S
C1219 O1203 1.283 . S
C1219 O1206 1.243 . S
C1220 C1221 1.382 . S
C1220 C1224 1.393 . S
C1220 C1227 1.500 . S
C1221 C1220 1.382 . S
C1221 C1222 1.400 . S
C1221 H1232 0.930 . S
C1222 C1221 1.400 . S
C1222 C1223 1.384 . S
C1223 C1222 1.384 . S
C1223 C1225 1.392 . S
C1223 H1233 0.931 . S
C1224 C1220 1.393 . S
C1224 C1225 1.401 . S
C1224 H1234 0.930 . S
C1225 C1223 1.392 . S
C1225 C1224 1.401 . S
C1225 H1235 0.930 . S
C1226 O1204 1.262 . S
C1226 O1205 1.260 . S
C1227 Tb1163 2.833 . S
C1227 O1202 1.251 . S
C1227 O1207 1.256 . S
C1227 C1220 1.500 . S
H1228 C1211 0.930 . S
H1229 C1212 0.931 . S
H1230 C1213 0.930 . S
H1231 C1214 0.930 . S
H1232 C1221 0.930 . S
H1233 C1223 0.931 . S
H1234 C1224 0.930 . S
H1235 C1225 0.930 . S
Tb1236 N1267 2.660 . S
Tb1236 N1274 2.600 . S
Tb1236 O1280 2.546 . S
Tb1236 O1281 2.610 . S
Tb1236 O1283 2.320 . S
Tb1236 O1284 2.552 . S
Tb1236 O1285 2.413 . S
Tb1236 O1287 2.362 . S
Tb1236 O1288 2.421 . S
Tb1236 C1300 2.833 . S
C1237 C1240 1.432 . S
C1237 C1241 1.414 . S
C1237 N1244 1.359 . S
C1238 C1240 1.417 . S
C1238 C1242 1.432 . S
C1238 C1250 1.410 . S
C1239 C1241 1.444 . S
C1239 C1242 1.317 . S
C1239 H1262 0.929 . S
C1240 C1237 1.432 . S
C1240 C1238 1.417 . S
C1240 N1248 1.360 . S
C1241 C1237 1.414 . S
C1241 C1239 1.444 . S
C1241 C1246 1.385 . S
C1242 C1238 1.432 . S
C1242 C1239 1.317 . S
C1242 H1254 0.930 . S
C1243 C1245 1.392 . S
C1243 C1246 1.370 . S
C1243 H1255 0.931 . S
N1244 C1237 1.359 . S
N1244 C1245 1.327 . S
N1244 Tb1247 2.600 . S
C1245 C1243 1.392 . S
C1245 N1244 1.327 . S
C1245 H1252 0.930 . S
C1246 C1241 1.385 . S
C1246 C1243 1.370 . S
C1246 H1265 0.930 . S
Tb1247 N1244 2.600 . S
Tb1247 N1248 2.660 . S
Tb1247 O1281 2.362 . S
Tb1247 O1282 2.421 . S
Tb1247 O1286 2.546 . S
Tb1247 O1287 2.610 . S
Tb1247 O1289 2.320 . S
Tb1247 O1290 2.552 . S
Tb1247 O1291 2.413 . S
Tb1247 C1311 2.833 . S
N1248 C1240 1.360 . S
N1248 Tb1247 2.660 . S
N1248 C1249 1.305 . S
C1249 N1248 1.305 . S
C1249 C1251 1.407 . S
C1249 H1256 0.930 . S
C1250 C1238 1.410 . S
C1250 C1251 1.345 . S
C1250 H1258 0.930 . S
C1251 C1249 1.407 . S
C1251 C1250 1.345 . S
C1251 H1253 0.930 . S
H1252 C1245 0.930 . S
H1253 C1251 0.930 . S
H1254 C1242 0.930 . S
H1255 C1243 0.931 . S
H1256 C1249 0.930 . S
H1257 C1271 0.930 . S
H1258 C1250 0.930 . S
H1259 C1277 0.930 . S
H1260 C1268 0.930 . S
H1261 C1275 0.931 . S
H1262 C1239 0.929 . S
H1263 C1269 0.930 . S
H1264 C1302 0.930 . S
H1265 C1246 0.930 . S
H1266 C1301 0.929 . S
N1267 Tb1236 2.660 . S
N1267 C1268 1.305 . S
N1267 C1272 1.360 . S
C1268 H1260 0.930 . S
C1268 N1267 1.305 . S
C1268 C1271 1.407 . S
C1269 H1263 0.930 . S
C1269 C1270 1.410 . S
C1269 C1271 1.345 . S
C1270 C1269 1.410 . S
C1270 C1272 1.417 . S
C1270 C1302 1.432 . S
C1271 H1257 0.930 . S
C1271 C1268 1.407 . S
C1271 C1269 1.345 . S
C1272 N1267 1.360 . S
C1272 C1270 1.417 . S
C1272 C1276 1.432 . S
H1273 C1278 0.930 . S
N1274 Tb1236 2.600 . S
N1274 C1276 1.359 . S
N1274 C1277 1.327 . S
C1275 H1261 0.931 . S
C1275 C1277 1.392 . S
C1275 C1278 1.370 . S
C1276 C1272 1.432 . S
C1276 N1274 1.359 . S
C1276 C1279 1.414 . S
C1277 H1259 0.930 . S
C1277 N1274 1.327 . S
C1277 C1275 1.392 . S
C1278 H1273 0.930 . S
C1278 C1275 1.370 . S
C1278 C1279 1.385 . S
C1279 C1276 1.414 . S
C1279 C1278 1.385 . S
C1279 C1301 1.444 . S
O1280 Tb1236 2.546 . S
O1280 C1300 1.251 . S
O1281 Tb1236 2.610 . S
O1281 Tb1247 2.362 . S
O1281 C1292 1.283 . S
O1282 Tb1247 2.421 . S
O1282 C1299 1.262 . S
O1283 Tb1236 2.320 . S
O1283 C1299 1.260 . S
O1284 Tb1236 2.552 . S
O1284 C1292 1.243 . S
O1285 Tb1236 2.413 . S
O1285 C1300 1.256 . S
O1286 Tb1247 2.546 . S
O1286 C1311 1.251 . S
O1287 Tb1236 2.362 . S
O1287 Tb1247 2.610 . S
O1287 C1303 1.283 . S
O1288 Tb1236 2.421 . S
O1288 C1310 1.262 . S
O1289 Tb1247 2.320 . S
O1289 C1310 1.260 . S
O1290 Tb1247 2.552 . S
O1290 C1303 1.243 . S
O1291 Tb1247 2.413 . S
O1291 C1311 1.256 . S
C1292 O1281 1.283 . S
C1292 O1284 1.243 . S
C1293 C1295 1.382 . S
C1293 C1297 1.393 . S
C1293 C1300 1.500 . S
C1294 C1295 1.400 . S
C1294 C1296 1.384 . S
C1295 C1293 1.382 . S
C1295 C1294 1.400 . S
C1295 H1312 0.930 . S
C1296 C1294 1.384 . S
C1296 C1298 1.392 . S
C1296 H1313 0.931 . S
C1297 C1293 1.393 . S
C1297 C1298 1.401 . S
C1297 H1314 0.930 . S
C1298 C1296 1.392 . S
C1298 C1297 1.401 . S
C1298 H1315 0.930 . S
C1299 O1282 1.262 . S
C1299 O1283 1.260 . S
C1300 Tb1236 2.833 . S
C1300 O1280 1.251 . S
C1300 O1285 1.256 . S
C1300 C1293 1.500 . S
C1301 H1266 0.929 . S
C1301 C1279 1.444 . S
C1301 C1302 1.317 . S
C1302 H1264 0.930 . S
C1302 C1270 1.432 . S
C1302 C1301 1.317 . S
C1303 O1287 1.283 . S
C1303 O1290 1.243 . S
C1304 C1305 1.382 . S
C1304 C1308 1.393 . S
C1304 C1311 1.500 . S
C1305 C1304 1.382 . S
C1305 C1306 1.400 . S
C1305 H1316 0.930 . S
C1306 C1305 1.400 . S
C1306 C1307 1.384 . S
C1307 C1306 1.384 . S
C1307 C1309 1.392 . S
C1307 H1317 0.931 . S
C1308 C1304 1.393 . S
C1308 C1309 1.401 . S
C1308 H1318 0.930 . S
C1309 C1307 1.392 . S
C1309 C1308 1.401 . S
C1309 H1319 0.930 . S
C1310 O1288 1.262 . S
C1310 O1289 1.260 . S
C1311 Tb1247 2.833 . S
C1311 O1286 1.251 . S
C1311 O1291 1.256 . S
C1311 C1304 1.500 . S
H1312 C1295 0.930 . S
H1313 C1296 0.931 . S
H1314 C1297 0.930 . S
H1315 C1298 0.930 . S
H1316 C1305 0.930 . S
H1317 C1307 0.931 . S
H1318 C1308 0.930 . S
H1319 C1309 0.930 . S
Tb1320 N1351 2.660 . S
Tb1320 N1358 2.600 . S
Tb1320 O1364 2.546 . S
Tb1320 O1365 2.610 . S
Tb1320 O1367 2.320 . S
Tb1320 O1368 2.552 . S
Tb1320 O1369 2.413 . S
Tb1320 O1371 2.362 . S
Tb1320 O1372 2.421 . S
Tb1320 C1384 2.833 . S
C1321 C1324 1.432 . S
C1321 C1325 1.414 . S
C1321 N1328 1.359 . S
C1322 C1324 1.417 . S
C1322 C1326 1.432 . S
C1322 C1334 1.410 . S
C1323 C1325 1.444 . S
C1323 C1326 1.317 . S
C1323 H1346 0.929 . S
C1324 C1321 1.432 . S
C1324 C1322 1.417 . S
C1324 N1332 1.360 . S
C1325 C1321 1.414 . S
C1325 C1323 1.444 . S
C1325 C1330 1.385 . S
C1326 C1322 1.432 . S
C1326 C1323 1.317 . S
C1326 H1338 0.930 . S
C1327 C1329 1.392 . S
C1327 C1330 1.370 . S
C1327 H1339 0.931 . S
N1328 C1321 1.359 . S
N1328 C1329 1.327 . S
N1328 Tb1331 2.600 . S
C1329 C1327 1.392 . S
C1329 N1328 1.327 . S
C1329 H1336 0.930 . S
C1330 C1325 1.385 . S
C1330 C1327 1.370 . S
C1330 H1349 0.930 . S
Tb1331 N1328 2.600 . S
Tb1331 N1332 2.660 . S
Tb1331 O1365 2.362 . S
Tb1331 O1366 2.421 . S
Tb1331 O1370 2.546 . S
Tb1331 O1371 2.610 . S
Tb1331 O1373 2.320 . S
Tb1331 O1374 2.552 . S
Tb1331 O1375 2.413 . S
Tb1331 C1395 2.833 . S
N1332 C1324 1.360 . S
N1332 Tb1331 2.660 . S
N1332 C1333 1.305 . S
C1333 N1332 1.305 . S
C1333 C1335 1.407 . S
C1333 H1340 0.930 . S
C1334 C1322 1.410 . S
C1334 C1335 1.345 . S
C1334 H1342 0.930 . S
C1335 C1333 1.407 . S
C1335 C1334 1.345 . S
C1335 H1337 0.930 . S
H1336 C1329 0.930 . S
H1337 C1335 0.930 . S
H1338 C1326 0.930 . S
H1339 C1327 0.931 . S
H1340 C1333 0.930 . S
H1341 C1355 0.930 . S
H1342 C1334 0.930 . S
H1343 C1361 0.930 . S
H1344 C1352 0.930 . S
H1345 C1359 0.931 . S
H1346 C1323 0.929 . S
H1347 C1353 0.930 . S
H1348 C1386 0.930 . S
H1349 C1330 0.930 . S
H1350 C1385 0.929 . S
N1351 Tb1320 2.660 . S
N1351 C1352 1.305 . S
N1351 C1356 1.360 . S
C1352 H1344 0.930 . S
C1352 N1351 1.305 . S
C1352 C1355 1.407 . S
C1353 H1347 0.930 . S
C1353 C1354 1.410 . S
C1353 C1355 1.345 . S
C1354 C1353 1.410 . S
C1354 C1356 1.417 . S
C1354 C1386 1.432 . S
C1355 H1341 0.930 . S
C1355 C1352 1.407 . S
C1355 C1353 1.345 . S
C1356 N1351 1.360 . S
C1356 C1354 1.417 . S
C1356 C1360 1.432 . S
H1357 C1362 0.930 . S
N1358 Tb1320 2.600 . S
N1358 C1360 1.359 . S
N1358 C1361 1.327 . S
C1359 H1345 0.931 . S
C1359 C1361 1.392 . S
C1359 C1362 1.370 . S
C1360 C1356 1.432 . S
C1360 N1358 1.359 . S
C1360 C1363 1.414 . S
C1361 H1343 0.930 . S
C1361 N1358 1.327 . S
C1361 C1359 1.392 . S
C1362 H1357 0.930 . S
C1362 C1359 1.370 . S
C1362 C1363 1.385 . S
C1363 C1360 1.414 . S
C1363 C1362 1.385 . S
C1363 C1385 1.444 . S
O1364 Tb1320 2.546 . S
O1364 C1384 1.251 . S
O1365 Tb1320 2.610 . S
O1365 Tb1331 2.362 . S
O1365 C1376 1.283 . S
O1366 Tb1331 2.421 . S
O1366 C1383 1.262 . S
O1367 Tb1320 2.320 . S
O1367 C1383 1.260 . S
O1368 Tb1320 2.552 . S
O1368 C1376 1.243 . S
O1369 Tb1320 2.413 . S
O1369 C1384 1.256 . S
O1370 Tb1331 2.546 . S
O1370 C1395 1.251 . S
O1371 Tb1320 2.362 . S
O1371 Tb1331 2.610 . S
O1371 C1387 1.283 . S
O1372 Tb1320 2.421 . S
O1372 C1394 1.262 . S
O1373 Tb1331 2.320 . S
O1373 C1394 1.260 . S
O1374 Tb1331 2.552 . S
O1374 C1387 1.243 . S
O1375 Tb1331 2.413 . S
O1375 C1395 1.256 . S
C1376 O1365 1.283 . S
C1376 O1368 1.243 . S
C1377 C1379 1.382 . S
C1377 C1381 1.393 . S
C1377 C1384 1.500 . S
C1378 C1379 1.400 . S
C1378 C1380 1.384 . S
C1379 C1377 1.382 . S
C1379 C1378 1.400 . S
C1379 H1396 0.930 . S
C1380 C1378 1.384 . S
C1380 C1382 1.392 . S
C1380 H1397 0.931 . S
C1381 C1377 1.393 . S
C1381 C1382 1.401 . S
C1381 H1398 0.930 . S
C1382 C1380 1.392 . S
C1382 C1381 1.401 . S
C1382 H1399 0.930 . S
C1383 O1366 1.262 . S
C1383 O1367 1.260 . S
C1384 Tb1320 2.833 . S
C1384 O1364 1.251 . S
C1384 O1369 1.256 . S
C1384 C1377 1.500 . S
C1385 H1350 0.929 . S
C1385 C1363 1.444 . S
C1385 C1386 1.317 . S
C1386 H1348 0.930 . S
C1386 C1354 1.432 . S
C1386 C1385 1.317 . S
C1387 O1371 1.283 . S
C1387 O1374 1.243 . S
C1388 C1389 1.382 . S
C1388 C1392 1.393 . S
C1388 C1395 1.500 . S
C1389 C1388 1.382 . S
C1389 C1390 1.400 . S
C1389 H1400 0.930 . S
C1390 C1389 1.400 . S
C1390 C1391 1.384 . S
C1391 C1390 1.384 . S
C1391 C1393 1.392 . S
C1391 H1401 0.931 . S
C1392 C1388 1.393 . S
C1392 C1393 1.401 . S
C1392 H1402 0.930 . S
C1393 C1391 1.392 . S
C1393 C1392 1.401 . S
C1393 H1403 0.930 . S
C1394 O1372 1.262 . S
C1394 O1373 1.260 . S
C1395 Tb1331 2.833 . S
C1395 O1370 1.251 . S
C1395 O1375 1.256 . S
C1395 C1388 1.500 . S
H1396 C1379 0.930 . S
H1397 C1380 0.931 . S
H1398 C1381 0.930 . S
H1399 C1382 0.930 . S
H1400 C1389 0.930 . S
H1401 C1391 0.931 . S
H1402 C1392 0.930 . S
H1403 C1393 0.930 . S
C1404 C1405 1.391 . S
C1404 C1406 1.394 . S
C1404 H1420 0.931 . S
C1405 C1404 1.391 . S
C1405 C1409 1.376 . S
C1406 C1404 1.394 . S
C1406 C1407 1.369 . S
C1406 C1410 1.531 . S
C1407 C1406 1.369 . S
C1407 C1408 1.410 . S
C1407 C1415 1.503 . S
C1408 C1407 1.410 . S
C1408 C1409 1.392 . S
C1408 C1411 1.511 . S
C1409 C1405 1.376 . S
C1409 C1408 1.392 . S
C1409 H1421 0.929 . S
C1410 C1406 1.531 . S
C1410 H1422 0.960 . S
C1410 H1423 0.962 . S
C1410 H1424 0.960 . S
C1411 C1408 1.511 . S
C1411 H1425 0.961 . S
C1411 H1426 0.961 . S
C1411 H1427 0.961 . S
C1412 C1413 1.370 . S
C1412 C1414 1.363 . S
C1412 H1428 0.931 . S
C1413 C1412 1.370 . S
C1413 C1417 1.408 . S
C1414 C1412 1.363 . S
C1414 C1415 1.370 . S
C1414 C1418 1.524 . S
C1415 C1407 1.503 . S
C1415 C1414 1.370 . S
C1415 C1416 1.403 . S
C1416 C1415 1.403 . S
C1416 C1417 1.404 . S
C1416 C1419 1.539 . S
C1417 C1413 1.408 . S
C1417 C1416 1.404 . S
C1417 H1429 0.930 . S
C1418 C1414 1.524 . S
C1418 H1430 0.956 . S
C1418 H1431 0.961 . S
C1418 H1432 0.961 . S
C1419 C1416 1.539 . S
C1419 H1433 0.958 . S
C1419 H1434 0.961 . S
C1419 H1435 0.960 . S
H1420 C1404 0.931 . S
H1421 C1409 0.929 . S
H1422 C1410 0.960 . S
H1423 C1410 0.962 . S
H1424 C1410 0.960 . S
H1425 C1411 0.961 . S
H1426 C1411 0.961 . S
H1427 C1411 0.961 . S
H1428 C1412 0.931 . S
H1429 C1417 0.930 . S
H1430 C1418 0.956 . S
H1431 C1418 0.961 . S
H1432 C1418 0.961 . S
H1433 C1419 0.958 . S
H1434 C1419 0.961 . S
H1435 C1419 0.960 . S
C1436 C1437 1.391 . S
C1436 C1438 1.394 . S
C1436 H1452 0.931 . S
C1437 C1436 1.391 . S
C1437 C1441 1.376 . S
C1438 C1436 1.394 . S
C1438 C1439 1.369 . S
C1438 C1442 1.531 . S
C1439 C1438 1.369 . S
C1439 C1440 1.410 . S
C1439 C1447 1.503 . S
C1440 C1439 1.410 . S
C1440 C1441 1.392 . S
C1440 C1443 1.511 . S
C1441 C1437 1.376 . S
C1441 C1440 1.392 . S
C1441 H1453 0.929 . S
C1442 C1438 1.531 . S
C1442 H1454 0.960 . S
C1442 H1455 0.962 . S
C1442 H1456 0.960 . S
C1443 C1440 1.511 . S
C1443 H1457 0.961 . S
C1443 H1458 0.961 . S
C1443 H1459 0.961 . S
C1444 C1445 1.370 . S
C1444 C1446 1.363 . S
C1444 H1460 0.931 . S
C1445 C1444 1.370 . S
C1445 C1449 1.408 . S
C1446 C1444 1.363 . S
C1446 C1447 1.370 . S
C1446 C1450 1.524 . S
C1447 C1439 1.503 . S
C1447 C1446 1.370 . S
C1447 C1448 1.403 . S
C1448 C1447 1.403 . S
C1448 C1449 1.404 . S
C1448 C1451 1.539 . S
C1449 C1445 1.408 . S
C1449 C1448 1.404 . S
C1449 H1461 0.930 . S
C1450 C1446 1.524 . S
C1450 H1462 0.956 . S
C1450 H1463 0.961 . S
C1450 H1464 0.961 . S
C1451 C1448 1.539 . S
C1451 H1465 0.958 . S
C1451 H1466 0.961 . S
C1451 H1467 0.960 . S
H1452 C1436 0.931 . S
H1453 C1441 0.929 . S
H1454 C1442 0.960 . S
H1455 C1442 0.962 . S
H1456 C1442 0.960 . S
H1457 C1443 0.961 . S
H1458 C1443 0.961 . S
H1459 C1443 0.961 . S
H1460 C1444 0.931 . S
H1461 C1449 0.930 . S
H1462 C1450 0.956 . S
H1463 C1450 0.961 . S
H1464 C1450 0.961 . S
H1465 C1451 0.958 . S
H1466 C1451 0.961 . S
H1467 C1451 0.960 . S
C1468 C1469 1.391 . S
C1468 C1470 1.394 . S
C1468 H1484 0.931 . S
C1469 C1468 1.391 . S
C1469 C1473 1.376 . S
C1470 C1468 1.394 . S
C1470 C1471 1.369 . S
C1470 C1474 1.531 . S
C1471 C1470 1.369 . S
C1471 C1472 1.410 . S
C1471 C1479 1.503 . S
C1472 C1471 1.410 . S
C1472 C1473 1.392 . S
C1472 C1475 1.511 . S
C1473 C1469 1.376 . S
C1473 C1472 1.392 . S
C1473 H1485 0.929 . S
C1474 C1470 1.531 . S
C1474 H1486 0.960 . S
C1474 H1487 0.962 . S
C1474 H1488 0.960 . S
C1475 C1472 1.511 . S
C1475 H1489 0.961 . S
C1475 H1490 0.961 . S
C1475 H1491 0.961 . S
C1476 C1477 1.370 . S
C1476 C1478 1.363 . S
C1476 H1492 0.931 . S
C1477 C1476 1.370 . S
C1477 C1481 1.408 . S
C1478 C1476 1.363 . S
C1478 C1479 1.370 . S
C1478 C1482 1.524 . S
C1479 C1471 1.503 . S
C1479 C1478 1.370 . S
C1479 C1480 1.403 . S
C1480 C1479 1.403 . S
C1480 C1481 1.404 . S
C1480 C1483 1.539 . S
C1481 C1477 1.408 . S
C1481 C1480 1.404 . S
C1481 H1493 0.930 . S
C1482 C1478 1.524 . S
C1482 H1494 0.956 . S
C1482 H1495 0.961 . S
C1482 H1496 0.961 . S
C1483 C1480 1.539 . S
C1483 H1497 0.958 . S
C1483 H1498 0.961 . S
C1483 H1499 0.960 . S
H1484 C1468 0.931 . S
H1485 C1473 0.929 . S
H1486 C1474 0.960 . S
H1487 C1474 0.962 . S
H1488 C1474 0.960 . S
H1489 C1475 0.961 . S
H1490 C1475 0.961 . S
H1491 C1475 0.961 . S
H1492 C1476 0.931 . S
H1493 C1481 0.930 . S
H1494 C1482 0.956 . S
H1495 C1482 0.961 . S
H1496 C1482 0.961 . S
H1497 C1483 0.958 . S
H1498 C1483 0.961 . S
H1499 C1483 0.960 . S
C1500 C1501 1.391 . S
C1500 C1502 1.394 . S
C1500 H1516 0.931 . S
C1501 C1500 1.391 . S
C1501 C1505 1.376 . S
C1502 C1500 1.394 . S
C1502 C1503 1.369 . S
C1502 C1506 1.531 . S
C1503 C1502 1.369 . S
C1503 C1504 1.410 . S
C1503 C1511 1.503 . S
C1504 C1503 1.410 . S
C1504 C1505 1.392 . S
C1504 C1507 1.511 . S
C1505 C1501 1.376 . S
C1505 C1504 1.392 . S
C1505 H1517 0.929 . S
C1506 C1502 1.531 . S
C1506 H1518 0.960 . S
C1506 H1519 0.962 . S
C1506 H1520 0.960 . S
C1507 C1504 1.511 . S
C1507 H1521 0.961 . S
C1507 H1522 0.961 . S
C1507 H1523 0.961 . S
C1508 C1509 1.370 . S
C1508 C1510 1.363 . S
C1508 H1524 0.865 1_556 S
C1509 C1508 1.370 . S
C1509 C1513 1.408 . S
C1510 C1508 1.363 . S
C1510 C1511 1.370 . S
C1510 C1514 1.524 . S
C1511 C1503 1.503 . S
C1511 C1510 1.370 . S
C1511 C1512 1.403 . S
C1512 C1511 1.403 . S
C1512 C1513 1.404 . S
C1512 C1515 1.539 . S
C1513 C1509 1.408 . S
C1513 C1512 1.404 . S
C1513 H1525 0.930 . S
C1514 C1510 1.524 . S
C1514 H1526 0.956 . S
C1514 H1527 0.961 . S
C1514 H1528 0.961 1_556 S
C1515 C1512 1.539 . S
C1515 H1529 0.958 . S
C1515 H1530 0.961 . S
C1515 H1531 0.960 . S
H1516 C1500 0.931 . S
H1517 C1505 0.929 . S
H1518 C1506 0.960 . S
H1519 C1506 0.962 . S
H1520 C1506 0.960 . S
H1521 C1507 0.961 . S
H1522 C1507 0.961 . S
H1523 C1507 0.961 . S
H1524 C1508 0.865 1_554 S
H1525 C1513 0.930 . S
H1526 C1514 0.956 . S
H1527 C1514 0.961 . S
H1528 C1514 0.961 1_554 S
H1529 C1515 0.958 . S
H1530 C1515 0.961 . S
H1531 C1515 0.960 . S
C1532 C1533 1.391 . S
C1532 C1534 1.394 . S
C1532 H1548 0.931 . S
C1533 C1532 1.391 . S
C1533 C1537 1.376 . S
C1534 C1532 1.394 . S
C1534 C1535 1.369 . S
C1534 C1538 1.531 . S
C1535 C1534 1.369 . S
C1535 C1536 1.410 . S
C1535 C1543 1.503 . S
C1536 C1535 1.410 . S
C1536 C1537 1.392 . S
C1536 C1539 1.511 . S
C1537 C1533 1.376 . S
C1537 C1536 1.392 . S
C1537 H1549 0.929 . S
C1538 C1534 1.531 . S
C1538 H1550 0.960 . S
C1538 H1551 0.962 . S
C1538 H1552 0.960 . S
C1539 C1536 1.511 . S
C1539 H1553 0.961 . S
C1539 H1554 0.961 . S
C1539 H1555 0.961 . S
C1540 C1541 1.370 . S
C1540 C1542 1.363 . S
C1540 H1556 0.931 . S
C1541 C1540 1.370 . S
C1541 C1545 1.408 . S
C1542 C1540 1.363 . S
C1542 C1543 1.370 . S
C1542 C1546 1.524 . S
C1543 C1535 1.503 . S
C1543 C1542 1.370 . S
C1543 C1544 1.403 . S
C1544 C1543 1.403 . S
C1544 C1545 1.404 . S
C1544 C1547 1.539 . S
C1545 C1541 1.408 . S
C1545 C1544 1.404 . S
C1545 H1557 0.930 . S
C1546 C1542 1.524 . S
C1546 H1558 0.956 . S
C1546 H1559 0.961 . S
C1546 H1560 0.973 . S
C1547 C1544 1.539 . S
C1547 H1561 0.958 . S
C1547 H1562 0.961 . S
C1547 H1563 0.960 . S
H1548 C1532 0.931 . S
H1549 C1537 0.929 . S
H1550 C1538 0.960 . S
H1551 C1538 0.962 . S
H1552 C1538 0.960 . S
H1553 C1539 0.961 . S
H1554 C1539 0.961 . S
H1555 C1539 0.961 . S
H1556 C1540 0.931 . S
H1557 C1545 0.930 . S
H1558 C1546 0.956 . S
H1559 C1546 0.961 . S
H1560 C1546 0.973 . S
H1561 C1547 0.958 . S
H1562 C1547 0.961 . S
H1563 C1547 0.960 . S
C1564 C1565 1.391 . S
C1564 C1566 1.394 . S
C1564 H1580 0.931 . S
C1565 C1564 1.391 . S
C1565 C1569 1.376 . S
C1566 C1564 1.394 . S
C1566 C1567 1.369 . S
C1566 C1570 1.531 . S
C1567 C1566 1.369 . S
C1567 C1568 1.410 . S
C1567 C1575 1.503 . S
C1568 C1567 1.410 . S
C1568 C1569 1.392 . S
C1568 C1571 1.511 . S
C1569 C1565 1.376 . S
C1569 C1568 1.392 . S
C1569 H1581 0.929 . S
C1570 C1566 1.531 . S
C1570 H1582 0.960 . S
C1570 H1583 0.962 . S
C1570 H1584 0.960 . S
C1571 C1568 1.511 . S
C1571 H1585 0.961 . S
C1571 H1586 0.961 . S
C1571 H1587 0.961 . S
C1572 C1573 1.370 . S
C1572 C1574 1.363 . S
C1572 H1588 0.931 1_556 S
C1573 C1572 1.370 . S
C1573 C1577 1.408 . S
C1574 C1572 1.363 . S
C1574 C1575 1.370 . S
C1574 C1578 1.524 . S
C1575 C1567 1.503 . S
C1575 C1574 1.370 . S
C1575 C1576 1.403 . S
C1576 C1575 1.403 . S
C1576 C1577 1.404 . S
C1576 C1579 1.539 . S
C1577 C1573 1.408 . S
C1577 C1576 1.404 . S
C1577 H1589 0.930 . S
C1578 C1574 1.524 . S
C1578 H1590 0.956 . S
C1578 H1591 0.961 . S
C1578 H1592 0.961 1_556 S
C1579 C1576 1.539 . S
C1579 H1593 0.958 . S
C1579 H1594 0.961 . S
C1579 H1595 0.960 . S
H1580 C1564 0.931 . S
H1581 C1569 0.929 . S
H1582 C1570 0.960 . S
H1583 C1570 0.962 . S
H1584 C1570 0.960 . S
H1585 C1571 0.961 . S
H1586 C1571 0.961 . S
H1587 C1571 0.961 . S
H1588 C1572 0.931 1_554 S
H1589 C1577 0.930 . S
H1590 C1578 0.956 . S
H1591 C1578 0.961 . S
H1592 C1578 0.961 1_554 S
H1593 C1579 0.958 . S
H1594 C1579 0.961 . S
H1595 C1579 0.960 . S
C1596 C1597 1.391 . S
C1596 C1598 1.394 . S
C1596 H1612 0.931 . S
C1597 C1596 1.391 . S
C1597 C1601 1.376 . S
C1598 C1596 1.394 . S
C1598 C1599 1.369 . S
C1598 C1602 1.531 . S
C1599 C1598 1.369 . S
C1599 C1600 1.410 . S
C1599 C1607 1.503 . S
C1600 C1599 1.410 . S
C1600 C1601 1.392 . S
C1600 C1603 1.511 . S
C1601 C1597 1.376 . S
C1601 C1600 1.392 . S
C1601 H1613 0.929 . S
C1602 C1598 1.531 . S
C1602 H1614 0.960 . S
C1602 H1615 0.962 . S
C1602 H1616 0.960 . S
C1603 C1600 1.511 . S
C1603 H1617 0.961 . S
C1603 H1618 0.961 . S
C1603 H1619 0.961 . S
C1604 C1605 1.370 . S
C1604 C1606 1.363 . S
C1604 H1620 0.931 . S
C1605 C1604 1.370 . S
C1605 C1609 1.408 . S
C1606 C1604 1.363 . S
C1606 C1607 1.370 . S
C1606 C1610 1.524 . S
C1607 C1599 1.503 . S
C1607 C1606 1.370 . S
C1607 C1608 1.403 . S
C1608 C1607 1.403 . S
C1608 C1609 1.404 . S
C1608 C1611 1.539 . S
C1609 C1605 1.408 . S
C1609 C1608 1.404 . S
C1609 H1621 0.930 . S
C1610 C1606 1.524 . S
C1610 H1622 0.956 . S
C1610 H1623 0.961 . S
C1610 H1624 0.961 . S
C1611 C1608 1.539 . S
C1611 H1625 0.958 . S
C1611 H1626 0.961 . S
C1611 H1627 0.960 . S
H1612 C1596 0.931 . S
H1613 C1601 0.929 . S
H1614 C1602 0.960 . S
H1615 C1602 0.962 . S
H1616 C1602 0.960 . S
H1617 C1603 0.961 . S
H1618 C1603 0.961 . S
H1619 C1603 0.961 . S
H1620 C1604 0.931 . S
H1621 C1609 0.930 . S
H1622 C1610 0.956 . S
H1623 C1610 0.961 . S
H1624 C1610 0.961 . S
H1625 C1611 0.958 . S
H1626 C1611 0.961 . S
H1627 C1611 0.960 . S
C1628 C1629 1.391 . S
C1628 C1630 1.394 . S
C1628 H1644 0.931 . S
C1629 C1628 1.391 . S
C1629 C1633 1.376 . S
C1630 C1628 1.394 . S
C1630 C1631 1.369 . S
C1630 C1634 1.531 . S
C1631 C1630 1.369 . S
C1631 C1632 1.410 . S
C1631 C1639 1.503 . S
C1632 C1631 1.410 . S
C1632 C1633 1.392 . S
C1632 C1635 1.511 . S
C1633 C1629 1.376 . S
C1633 C1632 1.392 . S
C1633 H1645 0.929 . S
C1634 C1630 1.531 . S
C1634 H1646 0.960 . S
C1634 H1647 0.962 . S
C1634 H1648 0.960 . S
C1635 C1632 1.511 . S
C1635 H1649 0.961 . S
C1635 H1650 0.961 . S
C1635 H1651 0.961 . S
C1636 C1637 1.370 . S
C1636 C1638 1.363 . S
C1636 H1652 0.931 . S
C1637 C1636 1.370 . S
C1637 C1641 1.408 . S
C1638 C1636 1.363 . S
C1638 C1639 1.370 . S
C1638 C1642 1.524 . S
C1639 C1631 1.503 . S
C1639 C1638 1.370 . S
C1639 C1640 1.403 . S
C1640 C1639 1.403 . S
C1640 C1641 1.404 . S
C1640 C1643 1.539 . S
C1641 C1637 1.408 . S
C1641 C1640 1.404 . S
C1641 H1653 0.930 . S
C1642 C1638 1.524 . S
C1642 H1654 0.956 . S
C1642 H1655 0.961 . S
C1642 H1656 0.961 . S
C1643 C1640 1.539 . S
C1643 H1657 0.958 . S
C1643 H1658 0.961 . S
C1643 H1659 0.960 . S
H1644 C1628 0.931 . S
H1645 C1633 0.929 . S
H1646 C1634 0.960 . S
H1647 C1634 0.962 . S
H1648 C1634 0.960 . S
H1649 C1635 0.961 . S
H1650 C1635 0.961 . S
H1651 C1635 0.961 . S
H1652 C1636 0.931 . S
H1653 C1641 0.930 . S
H1654 C1642 0.956 . S
H1655 C1642 0.961 . S
H1656 C1642 0.961 . S
H1657 C1643 0.958 . S
H1658 C1643 0.961 . S
H1659 C1643 0.960 . S
C1660 C1661 1.391 . S
C1660 C1662 1.394 . S
C1660 H1676 0.931 . S
C1661 C1660 1.391 . S
C1661 C1665 1.376 . S
C1662 C1660 1.394 . S
C1662 C1663 1.369 . S
C1662 C1666 1.531 . S
C1663 C1662 1.369 . S
C1663 C1664 1.410 . S
C1663 C1671 1.503 . S
C1664 C1663 1.410 . S
C1664 C1665 1.392 . S
C1664 C1667 1.511 . S
C1665 C1661 1.376 . S
C1665 C1664 1.392 . S
C1665 H1677 0.929 . S
C1666 C1662 1.531 . S
C1666 H1678 0.960 . S
C1666 H1679 0.962 . S
C1666 H1680 0.960 . S
C1667 C1664 1.511 . S
C1667 H1681 0.961 . S
C1667 H1682 0.961 . S
C1667 H1683 0.961 . S
C1668 C1669 1.370 . S
C1668 C1670 1.363 . S
C1668 H1684 0.931 . S
C1669 C1668 1.370 . S
C1669 C1673 1.408 . S
C1670 C1668 1.363 . S
C1670 C1671 1.370 . S
C1670 C1674 1.524 . S
C1671 C1663 1.503 . S
C1671 C1670 1.370 . S
C1671 C1672 1.403 . S
C1672 C1671 1.403 . S
C1672 C1673 1.404 . S
C1672 C1675 1.539 . S
C1673 C1669 1.408 . S
C1673 C1672 1.404 . S
C1673 H1685 0.930 1_556 S
C1674 C1670 1.524 . S
C1674 H1686 0.956 . S
C1674 H1687 0.961 . S
C1674 H1688 0.961 . S
C1675 C1672 1.539 . S
C1675 H1689 0.958 1_556 S
C1675 H1690 0.955 1_556 S
C1675 H1691 0.960 . S
H1676 C1660 0.931 . S
H1677 C1665 0.929 . S
H1678 C1666 0.960 . S
H1679 C1666 0.962 . S
H1680 C1666 0.960 . S
H1681 C1667 0.961 . S
H1682 C1667 0.961 . S
H1683 C1667 0.961 . S
H1684 C1668 0.931 . S
H1685 C1673 0.930 1_554 S
H1686 C1674 0.956 . S
H1687 C1674 0.961 . S
H1688 C1674 0.961 . S
H1689 C1675 0.958 1_554 S
H1690 C1675 0.955 1_554 S
H1691 C1675 0.960 . S
C1692 C1693 1.391 . S
C1692 C1694 1.394 . S
C1692 H1708 0.931 . S
C1693 C1692 1.391 . S
C1693 C1697 1.376 . S
C1694 C1692 1.394 . S
C1694 C1695 1.369 . S
C1694 C1698 1.531 . S
C1695 C1694 1.369 . S
C1695 C1696 1.410 . S
C1695 C1703 1.503 . S
C1696 C1695 1.410 . S
C1696 C1697 1.392 . S
C1696 C1699 1.511 . S
C1697 C1693 1.376 . S
C1697 C1696 1.392 . S
C1697 H1709 0.929 . S
C1698 C1694 1.531 . S
C1698 H1710 0.960 . S
C1698 H1711 0.962 . S
C1698 H1712 0.960 . S
C1699 C1696 1.511 . S
C1699 H1713 0.961 . S
C1699 H1714 0.961 . S
C1699 H1715 0.961 . S
C1700 C1701 1.370 . S
C1700 C1702 1.363 . S
C1700 H1716 0.931 . S
C1701 C1700 1.370 . S
C1701 C1705 1.408 . S
C1702 C1700 1.363 . S
C1702 C1703 1.370 . S
C1702 C1706 1.524 . S
C1703 C1695 1.503 . S
C1703 C1702 1.370 . S
C1703 C1704 1.403 . S
C1704 C1703 1.403 . S
C1704 C1705 1.404 . S
C1704 C1707 1.539 . S
C1705 C1701 1.408 . S
C1705 C1704 1.404 . S
C1705 H1717 0.930 . S
C1706 C1702 1.524 . S
C1706 H1718 0.956 . S
C1706 H1719 0.961 . S
C1706 H1720 0.961 . S
C1707 C1704 1.539 . S
C1707 H1721 0.958 . S
C1707 H1722 0.961 . S
C1707 H1723 0.960 . S
H1708 C1692 0.931 . S
H1709 C1697 0.929 . S
H1710 C1698 0.960 . S
H1711 C1698 0.962 . S
H1712 C1698 0.960 . S
H1713 C1699 0.961 . S
H1714 C1699 0.961 . S
H1715 C1699 0.961 . S
H1716 C1700 0.931 . S
H1717 C1705 0.930 . S
H1718 C1706 0.956 . S
H1719 C1706 0.961 . S
H1720 C1706 0.961 . S
H1721 C1707 0.958 . S
H1722 C1707 0.961 . S
H1723 C1707 0.960 . S
C1724 C1725 1.391 . S
C1724 C1726 1.394 . S
C1724 H1740 0.931 . S
C1725 C1724 1.391 . S
C1725 C1729 1.376 . S
C1726 C1724 1.394 . S
C1726 C1727 1.369 . S
C1726 C1730 1.531 . S
C1727 C1726 1.369 . S
C1727 C1728 1.410 . S
C1727 C1735 1.503 . S
C1728 C1727 1.410 . S
C1728 C1729 1.392 . S
C1728 C1731 1.511 . S
C1729 C1725 1.376 . S
C1729 C1728 1.392 . S
C1729 H1741 0.929 . S
C1730 C1726 1.531 . S
C1730 H1742 0.960 . S
C1730 H1743 0.962 . S
C1730 H1744 0.960 . S
C1731 C1728 1.511 . S
C1731 H1745 0.961 . S
C1731 H1746 0.961 . S
C1731 H1747 0.961 . S
C1732 C1733 1.370 . S
C1732 C1734 1.363 . S
C1732 H1748 0.931 . S
C1733 C1732 1.370 . S
C1733 C1737 1.408 . S
C1734 C1732 1.363 . S
C1734 C1735 1.370 . S
C1734 C1738 1.524 . S
C1735 C1727 1.503 . S
C1735 C1734 1.370 . S
C1735 C1736 1.403 . S
C1736 C1735 1.403 . S
C1736 C1737 1.404 . S
C1736 C1739 1.539 . S
C1737 C1733 1.408 . S
C1737 C1736 1.404 . S
C1737 H1749 0.930 . S
C1738 C1734 1.524 . S
C1738 H1750 0.956 . S
C1738 H1751 0.961 . S
C1738 H1752 0.961 . S
C1739 C1736 1.539 . S
C1739 H1753 0.958 . S
C1739 H1754 0.961 . S
C1739 H1755 0.960 . S
H1740 C1724 0.931 . S
H1741 C1729 0.929 . S
H1742 C1730 0.960 . S
H1743 C1730 0.962 . S
H1744 C1730 0.960 . S
H1745 C1731 0.961 . S
H1746 C1731 0.961 . S
H1747 C1731 0.961 . S
H1748 C1732 0.931 . S
H1749 C1737 0.930 . S
H1750 C1738 0.956 . S
H1751 C1738 0.961 . S
H1752 C1738 0.961 . S
H1753 C1739 0.958 . S
H1754 C1739 0.961 . S
H1755 C1739 0.960 . S
C1756 C1757 1.391 . S
C1756 C1758 1.394 . S
C1756 H1772 0.931 . S
C1757 C1756 1.391 . S
C1757 C1761 1.376 . S
C1758 C1756 1.394 . S
C1758 C1759 1.369 . S
C1758 C1762 1.531 . S
C1759 C1758 1.369 . S
C1759 C1760 1.410 . S
C1759 C1767 1.503 . S
C1760 C1759 1.410 . S
C1760 C1761 1.392 . S
C1760 C1763 1.511 . S
C1761 C1757 1.376 . S
C1761 C1760 1.392 . S
C1761 H1773 0.929 . S
C1762 C1758 1.531 . S
C1762 H1774 0.960 . S
C1762 H1775 0.962 . S
C1762 H1776 0.960 . S
C1763 C1760 1.511 . S
C1763 H1777 0.961 . S
C1763 H1778 0.961 . S
C1763 H1779 0.961 . S
C1764 C1765 1.370 . S
C1764 C1766 1.363 . S
C1764 H1780 0.931 . S
C1765 C1764 1.370 . S
C1765 C1769 1.408 . S
C1766 C1764 1.363 . S
C1766 C1767 1.370 . S
C1766 C1770 1.524 . S
C1767 C1759 1.503 . S
C1767 C1766 1.370 . S
C1767 C1768 1.403 . S
C1768 C1767 1.403 . S
C1768 C1769 1.404 . S
C1768 C1771 1.539 . S
C1769 C1765 1.408 . S
C1769 C1768 1.404 . S
C1769 H1781 0.930 . S
C1770 C1766 1.524 . S
C1770 H1782 0.956 . S
C1770 H1783 0.961 . S
C1770 H1784 0.961 . S
C1771 C1768 1.539 . S
C1771 H1785 0.958 . S
C1771 H1786 0.961 . S
C1771 H1787 0.960 . S
H1772 C1756 0.931 . S
H1773 C1761 0.929 . S
H1774 C1762 0.960 . S
H1775 C1762 0.962 . S
H1776 C1762 0.960 . S
H1777 C1763 0.961 . S
H1778 C1763 0.961 . S
H1779 C1763 0.961 . S
H1780 C1764 0.931 . S
H1781 C1769 0.930 . S
H1782 C1770 0.956 . S
H1783 C1770 0.961 . S
H1784 C1770 0.961 . S
H1785 C1771 0.958 . S
H1786 C1771 0.961 . S
H1787 C1771 0.960 . S
C1788 C1789 1.391 1_455 S
C1788 C1790 1.394 . S
C1788 H1804 0.931 . S
C1789 C1788 1.391 1_655 S
C1789 C1793 1.376 . S
C1790 C1788 1.394 . S
C1790 C1791 1.369 . S
C1790 C1794 1.531 . S
C1791 C1790 1.369 . S
C1791 C1792 1.410 . S
C1791 C1799 1.503 . S
C1792 C1791 1.410 . S
C1792 C1793 1.392 1_455 S
C1792 C1795 1.511 . S
C1793 C1789 1.376 . S
C1793 C1792 1.392 1_655 S
C1793 H1805 0.929 . S
C1794 C1790 1.531 . S
C1794 H1806 0.960 . S
C1794 H1807 0.962 . S
C1794 H1808 0.960 . S
C1795 C1792 1.511 . S
C1795 H1809 0.961 . S
C1795 H1810 0.961 . S
C1795 H1811 0.961 . S
C1796 C1797 1.370 . S
C1796 C1798 1.363 . S
C1796 H1812 0.931 . S
C1797 C1796 1.370 . S
C1797 C1801 1.408 . S
C1798 C1796 1.363 . S
C1798 C1799 1.370 . S
C1798 C1802 1.524 . S
C1799 C1791 1.503 . S
C1799 C1798 1.370 . S
C1799 C1800 1.403 . S
C1800 C1799 1.403 . S
C1800 C1801 1.404 . S
C1800 C1803 1.539 . S
C1801 C1797 1.408 . S
C1801 C1800 1.404 . S
C1801 H1813 0.930 . S
C1802 C1798 1.524 . S
C1802 H1814 0.956 . S
C1802 H1815 0.961 . S
C1802 H1816 0.961 . S
C1803 C1800 1.539 . S
C1803 H1817 0.958 . S
C1803 H1818 0.961 . S
C1803 H1819 0.960 . S
H1804 C1788 0.931 . S
H1805 C1793 0.929 . S
H1806 C1794 0.960 . S
H1807 C1794 0.962 . S
H1808 C1794 0.960 . S
H1809 C1795 0.961 . S
H1810 C1795 0.961 . S
H1811 C1795 0.961 . S
H1812 C1796 0.931 . S
H1813 C1801 0.930 . S
H1814 C1802 0.956 . S
H1815 C1802 0.961 . S
H1816 C1802 0.961 . S
H1817 C1803 0.958 . S
H1818 C1803 0.961 . S
H1819 C1803 0.960 . S
C1820 C1821 1.391 . S
C1820 C1822 1.394 . S
C1820 H1836 0.931 . S
C1821 C1820 1.391 . S
C1821 C1825 1.376 . S
C1822 C1820 1.394 . S
C1822 C1823 1.369 . S
C1822 C1826 1.531 . S
C1823 C1822 1.369 . S
C1823 C1824 1.410 . S
C1823 C1831 1.503 . S
C1824 C1823 1.410 . S
C1824 C1825 1.392 . S
C1824 C1827 1.511 . S
C1825 C1821 1.376 . S
C1825 C1824 1.392 . S
C1825 H1837 0.929 . S
C1826 C1822 1.531 . S
C1826 H1838 0.960 . S
C1826 H1839 0.962 . S
C1826 H1840 0.960 . S
C1827 C1824 1.511 . S
C1827 H1841 0.961 . S
C1827 H1842 0.961 . S
C1827 H1843 0.961 . S
C1828 C1829 1.370 . S
C1828 C1830 1.363 . S
C1828 H1844 0.931 . S
C1829 C1828 1.370 . S
C1829 C1833 1.408 . S
C1830 C1828 1.363 . S
C1830 C1831 1.370 . S
C1830 C1834 1.524 . S
C1831 C1823 1.503 . S
C1831 C1830 1.370 . S
C1831 C1832 1.403 . S
C1832 C1831 1.403 . S
C1832 C1833 1.404 . S
C1832 C1835 1.539 . S
C1833 C1829 1.408 . S
C1833 C1832 1.404 . S
C1833 H1845 0.930 . S
C1834 C1830 1.524 . S
C1834 H1846 0.956 . S
C1834 H1847 0.961 . S
C1834 H1848 0.961 . S
C1835 C1832 1.539 . S
C1835 H1849 0.958 . S
C1835 H1850 0.961 . S
C1835 H1851 0.960 . S
H1836 C1820 0.931 . S
H1837 C1825 0.929 . S
H1838 C1826 0.960 . S
H1839 C1826 0.962 . S
H1840 C1826 0.960 . S
H1841 C1827 0.961 . S
H1842 C1827 0.961 . S
H1843 C1827 0.961 . S
H1844 C1828 0.931 . S
H1845 C1833 0.930 . S
H1846 C1834 0.956 . S
H1847 C1834 0.961 . S
H1848 C1834 0.961 . S
H1849 C1835 0.958 . S
H1850 C1835 0.961 . S
H1851 C1835 0.960 . S
C1852 C1853 1.391 . S
C1852 C1854 1.394 1_545 S
C1852 H1868 0.931 . S
C1853 C1852 1.391 . S
C1853 C1857 1.376 . S
C1854 C1852 1.394 1_565 S
C1854 C1855 1.369 . S
C1854 C1858 1.531 . S
C1855 C1854 1.369 . S
C1855 C1856 1.410 . S
C1855 C1863 1.503 . S
C1856 C1855 1.410 . S
C1856 C1857 1.392 1_565 S
C1856 C1859 1.511 . S
C1857 C1853 1.376 . S
C1857 C1856 1.392 1_545 S
C1857 H1869 0.929 . S
C1858 C1854 1.531 . S
C1858 H1870 0.960 . S
C1858 H1871 0.962 . S
C1858 H1872 0.960 . S
C1859 C1856 1.511 . S
C1859 H1873 0.961 . S
C1859 H1874 0.961 . S
C1859 H1875 0.961 . S
C1860 C1861 1.370 . S
C1860 C1862 1.363 . S
C1860 H1876 0.931 . S
C1861 C1860 1.370 . S
C1861 C1865 1.408 . S
C1862 C1860 1.363 . S
C1862 C1863 1.370 . S
C1862 C1866 1.524 . S
C1863 C1855 1.503 . S
C1863 C1862 1.370 . S
C1863 C1864 1.403 . S
C1864 C1863 1.403 . S
C1864 C1865 1.404 . S
C1864 C1867 1.539 . S
C1865 C1861 1.408 . S
C1865 C1864 1.404 . S
C1865 H1877 0.930 . S
C1866 C1862 1.524 . S
C1866 H1878 0.956 . S
C1866 H1879 0.961 . S
C1866 H1880 0.961 . S
C1867 C1864 1.539 . S
C1867 H1881 0.958 . S
C1867 H1882 0.961 . S
C1867 H1883 0.960 . S
H1868 C1852 0.931 . S
H1869 C1857 0.929 . S
H1870 C1858 0.960 . S
H1871 C1858 0.962 . S
H1872 C1858 0.960 . S
H1873 C1859 0.961 . S
H1874 C1859 0.961 . S
H1875 C1859 0.961 . S
H1876 C1860 0.931 . S
H1877 C1865 0.930 . S
H1878 C1866 0.956 . S
H1879 C1866 0.961 . S
H1880 C1866 0.961 . S
H1881 C1867 0.958 . S
H1882 C1867 0.961 . S
H1883 C1867 0.960 . S
C1884 C1885 1.391 . S
C1884 C1886 1.394 . S
C1884 H1900 0.931 . S
C1885 C1884 1.391 . S
C1885 C1889 1.376 . S
C1886 C1884 1.394 . S
C1886 C1887 1.369 . S
C1886 C1890 1.531 . S
C1887 C1886 1.369 . S
C1887 C1888 1.410 . S
C1887 C1895 1.503 . S
C1888 C1887 1.410 . S
C1888 C1889 1.392 . S
C1888 C1891 1.511 . S
C1889 C1885 1.376 . S
C1889 C1888 1.392 . S
C1889 H1901 0.929 . S
C1890 C1886 1.531 . S
C1890 H1902 0.960 . S
C1890 H1903 0.962 . S
C1890 H1904 0.960 . S
C1891 C1888 1.511 . S
C1891 H1905 0.961 . S
C1891 H1906 0.961 . S
C1891 H1907 0.961 . S
C1892 C1893 1.370 . S
C1892 C1894 1.363 . S
C1892 H1908 0.931 . S
C1893 C1892 1.370 . S
C1893 C1897 1.408 . S
C1894 C1892 1.363 . S
C1894 C1895 1.370 . S
C1894 C1898 1.524 . S
C1895 C1887 1.503 . S
C1895 C1894 1.370 . S
C1895 C1896 1.403 . S
C1896 C1895 1.403 . S
C1896 C1897 1.404 . S
C1896 C1899 1.539 . S
C1897 C1893 1.408 . S
C1897 C1896 1.404 . S
C1897 H1909 0.930 . S
C1898 C1894 1.524 . S
C1898 H1910 0.956 . S
C1898 H1911 0.961 . S
C1898 H1912 0.961 . S
C1899 C1896 1.539 . S
C1899 H1913 0.958 . S
C1899 H1914 0.961 . S
C1899 H1915 0.960 . S
H1900 C1884 0.931 . S
H1901 C1889 0.929 . S
H1902 C1890 0.960 . S
H1903 C1890 0.962 . S
H1904 C1890 0.960 . S
H1905 C1891 0.961 . S
H1906 C1891 0.961 . S
H1907 C1891 0.961 . S
H1908 C1892 0.931 . S
H1909 C1897 0.930 . S
H1910 C1898 0.956 . S
H1911 C1898 0.961 . S
H1912 C1898 0.961 . S
H1913 C1899 0.958 . S
H1914 C1899 0.961 . S
H1915 C1899 0.960 . S
C1916 C1917 1.391 . S
C1916 C1918 1.394 . S
C1916 H1932 0.931 . S
C1917 C1916 1.391 . S
C1917 C1921 1.376 . S
C1918 C1916 1.394 . S
C1918 C1919 1.369 . S
C1918 C1922 1.531 . S
C1919 C1918 1.369 . S
C1919 C1920 1.410 . S
C1919 C1927 1.503 . S
C1920 C1919 1.410 . S
C1920 C1921 1.392 . S
C1920 C1923 1.511 . S
C1921 C1917 1.376 . S
C1921 C1920 1.392 . S
C1921 H1933 0.929 . S
C1922 C1918 1.531 . S
C1922 H1934 0.960 . S
C1922 H1935 0.962 . S
C1922 H1936 0.960 . S
C1923 C1920 1.511 . S
C1923 H1937 0.961 . S
C1923 H1938 0.961 . S
C1923 H1939 0.961 . S
C1924 C1925 1.370 . S
C1924 C1926 1.363 . S
C1924 H1940 0.931 . S
C1925 C1924 1.370 . S
C1925 C1929 1.408 . S
C1926 C1924 1.363 . S
C1926 C1927 1.370 . S
C1926 C1930 1.524 . S
C1927 C1919 1.503 . S
C1927 C1926 1.370 . S
C1927 C1928 1.403 . S
C1928 C1927 1.403 . S
C1928 C1929 1.404 . S
C1928 C1931 1.539 . S
C1929 C1925 1.408 . S
C1929 C1928 1.404 . S
C1929 H1941 0.930 . S
C1930 C1926 1.524 . S
C1930 H1942 0.956 . S
C1930 H1943 0.961 . S
C1930 H1944 0.961 . S
C1931 C1928 1.539 . S
C1931 H1945 0.958 . S
C1931 H1946 0.961 . S
C1931 H1947 0.960 . S
H1932 C1916 0.931 . S
H1933 C1921 0.929 . S
H1934 C1922 0.960 . S
H1935 C1922 0.962 . S
H1936 C1922 0.960 . S
H1937 C1923 0.961 . S
H1938 C1923 0.961 . S
H1939 C1923 0.961 . S
H1940 C1924 0.931 . S
H1941 C1929 0.930 . S
H1942 C1930 0.956 . S
H1943 C1930 0.961 . S
H1944 C1930 0.961 . S
H1945 C1931 0.958 . S
H1946 C1931 0.961 . S
H1947 C1931 0.960 . S
C1948 C1949 1.391 . S
C1948 C1950 1.394 . S
C1948 H1964 0.931 . S
C1949 C1948 1.391 . S
C1949 C1953 1.376 . S
C1950 C1948 1.394 . S
C1950 C1951 1.369 . S
C1950 C1954 1.531 . S
C1951 C1950 1.369 . S
C1951 C1952 1.410 . S
C1951 C1959 1.503 . S
C1952 C1951 1.410 . S
C1952 C1953 1.392 . S
C1952 C1955 1.511 . S
C1953 C1949 1.376 . S
C1953 C1952 1.392 . S
C1953 H1965 0.929 . S
C1954 C1950 1.531 . S
C1954 H1966 0.960 . S
C1954 H1967 0.962 . S
C1954 H1968 0.960 . S
C1955 C1952 1.511 . S
C1955 H1969 0.961 . S
C1955 H1970 0.961 . S
C1955 H1971 0.961 . S
C1956 C1957 1.370 . S
C1956 C1958 1.363 . S
C1956 H1972 0.931 . S
C1957 C1956 1.370 . S
C1957 C1961 1.408 . S
C1958 C1956 1.363 . S
C1958 C1959 1.370 . S
C1958 C1962 1.524 . S
C1959 C1951 1.503 . S
C1959 C1958 1.370 . S
C1959 C1960 1.403 . S
C1960 C1959 1.403 . S
C1960 C1961 1.404 . S
C1960 C1963 1.539 . S
C1961 C1957 1.408 . S
C1961 C1960 1.404 . S
C1961 H1973 0.930 . S
C1962 C1958 1.524 . S
C1962 H1974 0.956 . S
C1962 H1975 0.961 . S
C1962 H1976 0.961 . S
C1963 C1960 1.539 . S
C1963 H1977 0.958 . S
C1963 H1978 0.961 . S
C1963 H1979 0.960 . S
H1964 C1948 0.931 . S
H1965 C1953 0.929 . S
H1966 C1954 0.960 . S
H1967 C1954 0.962 . S
H1968 C1954 0.960 . S
H1969 C1955 0.961 . S
H1970 C1955 0.961 . S
H1971 C1955 0.961 . S
H1972 C1956 0.931 . S
H1973 C1961 0.930 . S
H1974 C1962 0.956 . S
H1975 C1962 0.961 . S
H1976 C1962 0.961 . S
H1977 C1963 0.958 . S
H1978 C1963 0.961 . S
H1979 C1963 0.960 . S
C1980 C1981 1.391 . S
C1980 C1982 1.394 . S
C1980 H1996 0.931 . S
C1981 C1980 1.391 . S
C1981 C1985 1.376 . S
C1982 C1980 1.394 . S
C1982 C1983 1.369 . S
C1982 C1986 1.531 . S
C1983 C1982 1.369 . S
C1983 C1984 1.410 . S
C1983 C1991 1.503 . S
C1984 C1983 1.410 . S
C1984 C1985 1.392 . S
C1984 C1987 1.511 . S
C1985 C1981 1.376 . S
C1985 C1984 1.392 . S
C1985 H1997 0.929 . S
C1986 C1982 1.531 . S
C1986 H1998 0.960 . S
C1986 H1999 0.962 . S
C1986 H2000 0.960 . S
C1987 C1984 1.511 . S
C1987 H2001 0.961 . S
C1987 H2002 0.961 . S
C1987 H2003 0.961 . S
C1988 C1989 1.370 . S
C1988 C1990 1.363 . S
C1988 H2004 0.931 . S
C1989 C1988 1.370 . S
C1989 C1993 1.408 . S
C1990 C1988 1.363 . S
C1990 C1991 1.370 . S
C1990 C1994 1.524 . S
C1991 C1983 1.503 . S
C1991 C1990 1.370 . S
C1991 C1992 1.403 . S
C1992 C1991 1.403 . S
C1992 C1993 1.404 . S
C1992 C1995 1.539 . S
C1993 C1989 1.408 . S
C1993 C1992 1.404 . S
C1993 H2005 0.930 . S
C1994 C1990 1.524 . S
C1994 H2006 0.956 . S
C1994 H2007 0.961 . S
C1994 H2008 0.961 . S
C1995 C1992 1.539 . S
C1995 H2009 0.958 . S
C1995 H2010 0.961 . S
C1995 H2011 0.960 . S
H1996 C1980 0.931 . S
H1997 C1985 0.929 . S
H1998 C1986 0.960 . S
H1999 C1986 0.962 . S
H2000 C1986 0.960 . S
H2001 C1987 0.961 . S
H2002 C1987 0.961 . S
H2003 C1987 0.961 . S
H2004 C1988 0.931 . S
H2005 C1993 0.930 . S
H2006 C1994 0.956 . S
H2007 C1994 0.961 . S
H2008 C1994 0.961 . S
H2009 C1995 0.958 . S
H2010 C1995 0.961 . S
H2011 C1995 0.960 . S
C2012 C2013 1.391 . S
C2012 C2014 1.394 . S
C2012 H2028 0.931 . S
C2013 C2012 1.391 . S
C2013 C2017 1.376 . S
C2014 C2012 1.394 . S
C2014 C2015 1.369 . S
C2014 C2018 1.531 . S
C2015 C2014 1.369 . S
C2015 C2016 1.410 . S
C2015 C2023 1.503 . S
C2016 C2015 1.410 . S
C2016 C2017 1.392 . S
C2016 C2019 1.511 . S
C2017 C2013 1.376 . S
C2017 C2016 1.392 . S
C2017 H2029 0.929 . S
C2018 C2014 1.531 . S
C2018 H2030 0.960 . S
C2018 H2031 0.962 . S
C2018 H2032 0.960 . S
C2019 C2016 1.511 . S
C2019 H2033 0.961 . S
C2019 H2034 0.961 . S
C2019 H2035 0.961 . S
C2020 C2021 1.370 . S
C2020 C2022 1.363 . S
C2020 H2036 0.931 . S
C2021 C2020 1.370 . S
C2021 C2025 1.408 . S
C2022 C2020 1.363 . S
C2022 C2023 1.370 . S
C2022 C2026 1.524 . S
C2023 C2015 1.503 . S
C2023 C2022 1.370 . S
C2023 C2024 1.403 . S
C2024 C2023 1.403 . S
C2024 C2025 1.404 . S
C2024 C2027 1.539 . S
C2025 C2021 1.408 . S
C2025 C2024 1.404 . S
C2025 H2037 0.930 . S
C2026 C2022 1.524 . S
C2026 H2038 0.956 . S
C2026 H2039 0.961 . S
C2026 H2040 0.961 . S
C2027 C2024 1.539 . S
C2027 H2041 0.958 . S
C2027 H2042 0.961 . S
C2027 H2043 0.960 . S
H2028 C2012 0.931 . S
H2029 C2017 0.929 . S
H2030 C2018 0.960 . S
H2031 C2018 0.962 . S
H2032 C2018 0.960 . S
H2033 C2019 0.961 . S
H2034 C2019 0.961 . S
H2035 C2019 0.961 . S
H2036 C2020 0.931 . S
H2037 C2025 0.930 . S
H2038 C2026 0.956 . S
H2039 C2026 0.961 . S
H2040 C2026 0.961 . S
H2041 C2027 0.958 . S
H2042 C2027 0.961 . S
H2043 C2027 0.960 . S
C2044 C2045 1.391 . S
C2044 C2046 1.394 . S
C2044 H2060 0.931 . S
C2045 C2044 1.391 . S
C2045 C2049 1.376 . S
C2046 C2044 1.394 . S
C2046 C2047 1.369 . S
C2046 C2050 1.531 . S
C2047 C2046 1.369 . S
C2047 C2048 1.410 . S
C2047 C2055 1.503 . S
C2048 C2047 1.410 . S
C2048 C2049 1.392 . S
C2048 C2051 1.511 . S
C2049 C2045 1.376 . S
C2049 C2048 1.392 . S
C2049 H2061 0.929 . S
C2050 C2046 1.531 . S
C2050 H2062 0.960 . S
C2050 H2063 0.962 . S
C2050 H2064 0.960 . S
C2051 C2048 1.511 . S
C2051 H2065 0.961 . S
C2051 H2066 0.961 . S
C2051 H2067 0.961 . S
C2052 C2053 1.370 . S
C2052 C2054 1.363 . S
C2052 H2068 0.931 . S
C2053 C2052 1.370 . S
C2053 C2057 1.408 . S
C2054 C2052 1.363 . S
C2054 C2055 1.370 . S
C2054 C2058 1.524 . S
C2055 C2047 1.503 . S
C2055 C2054 1.370 . S
C2055 C2056 1.403 . S
C2056 C2055 1.403 . S
C2056 C2057 1.404 . S
C2056 C2059 1.539 . S
C2057 C2053 1.408 . S
C2057 C2056 1.404 . S
C2057 H2069 0.930 . S
C2058 C2054 1.524 . S
C2058 H2070 0.956 . S
C2058 H2071 0.961 . S
C2058 H2072 0.961 . S
C2059 C2056 1.539 . S
C2059 H2073 0.958 . S
C2059 H2074 0.961 . S
C2059 H2075 0.960 . S
H2060 C2044 0.931 . S
H2061 C2049 0.929 . S
H2062 C2050 0.960 . S
H2063 C2050 0.962 . S
H2064 C2050 0.960 . S
H2065 C2051 0.961 . S
H2066 C2051 0.961 . S
H2067 C2051 0.961 . S
H2068 C2052 0.931 . S
H2069 C2057 0.930 . S
H2070 C2058 0.956 . S
H2071 C2058 0.961 . S
H2072 C2058 0.961 . S
H2073 C2059 0.958 . S
H2074 C2059 0.961 . S
H2075 C2059 0.960 . S
C2076 C2077 1.391 . S
C2076 C2078 1.394 1_545 S
C2076 H2092 0.931 . S
C2077 C2076 1.391 . S
C2077 C2081 1.376 1_545 S
C2078 C2076 1.394 1_565 S
C2078 C2079 1.369 . S
C2078 C2082 1.531 . S
C2079 C2078 1.369 . S
C2079 C2080 1.410 . S
C2079 C2087 1.503 . S
C2080 C2079 1.410 . S
C2080 C2081 1.392 . S
C2080 C2083 1.511 . S
C2081 C2077 1.376 1_565 S
C2081 C2080 1.392 . S
C2081 H2093 0.930 1_565 S
C2082 C2078 1.531 . S
C2082 H2094 0.960 . S
C2082 H2095 0.962 . S
C2082 H2096 0.957 . S
C2083 C2080 1.511 . S
C2083 H2097 0.961 . S
C2083 H2098 0.961 . S
C2083 H2099 0.961 . S
C2084 C2085 1.370 . S
C2084 C2086 1.363 . S
C2084 H2100 0.931 . S
C2085 C2084 1.370 . S
C2085 C2089 1.408 . S
C2086 C2084 1.363 . S
C2086 C2087 1.370 . S
C2086 C2090 1.524 . S
C2087 C2079 1.503 . S
C2087 C2086 1.370 . S
C2087 C2088 1.403 . S
C2088 C2087 1.403 . S
C2088 C2089 1.404 . S
C2088 C2091 1.539 . S
C2089 C2085 1.408 . S
C2089 C2088 1.404 . S
C2089 H2101 0.930 . S
C2090 C2086 1.524 . S
C2090 H2102 0.956 . S
C2090 H2103 0.961 . S
C2090 H2104 0.961 . S
C2091 C2088 1.539 . S
C2091 H2105 0.958 . S
C2091 H2106 0.961 . S
C2091 H2107 0.960 . S
H2092 C2076 0.931 . S
H2093 C2081 0.930 1_545 S
H2094 C2082 0.960 . S
H2095 C2082 0.962 . S
H2096 C2082 0.957 . S
H2097 C2083 0.961 . S
H2098 C2083 0.961 . S
H2099 C2083 0.961 . S
H2100 C2084 0.931 . S
H2101 C2089 0.930 . S
H2102 C2090 0.956 . S
H2103 C2090 0.961 . S
H2104 C2090 0.961 . S
H2105 C2091 0.958 . S
H2106 C2091 0.961 . S
H2107 C2091 0.960 . S
C2108 C2109 1.392 1_455 S
C2108 C2110 1.437 . S
C2108 H2124 0.889 1_455 S
C2109 C2108 1.392 1_655 S
C2109 C2113 1.376 1_655 S
C2110 C2108 1.437 . S
C2110 C2111 1.369 . S
C2110 C2114 1.531 . S
C2111 C2110 1.369 . S
C2111 C2112 1.410 . S
C2111 C2119 1.503 . S
C2112 C2111 1.410 . S
C2112 C2113 1.392 . S
C2112 C2115 1.511 . S
C2113 C2109 1.376 1_455 S
C2113 C2112 1.392 . S
C2113 H2125 0.929 . S
C2114 C2110 1.531 . S
C2114 H2126 0.960 . S
C2114 H2127 0.962 . S
C2114 H2128 0.960 . S
C2115 C2112 1.511 . S
C2115 H2129 0.961 . S
C2115 H2130 0.961 . S
C2115 H2131 0.961 . S
C2116 C2117 1.370 . S
C2116 C2118 1.363 . S
C2116 H2132 0.931 . S
C2117 C2116 1.370 . S
C2117 C2121 1.408 . S
C2118 C2116 1.363 . S
C2118 C2119 1.370 . S
C2118 C2122 1.524 . S
C2119 C2111 1.503 . S
C2119 C2118 1.370 . S
C2119 C2120 1.403 . S
C2120 C2119 1.403 . S
C2120 C2121 1.404 . S
C2120 C2123 1.539 . S
C2121 C2117 1.408 . S
C2121 C2120 1.404 . S
C2121 H2133 0.930 . S
C2122 C2118 1.524 . S
C2122 H2134 0.956 . S
C2122 H2135 0.961 . S
C2122 H2136 0.961 . S
C2123 C2120 1.539 . S
C2123 H2137 0.958 . S
C2123 H2138 0.961 . S
C2123 H2139 0.960 . S
H2124 C2108 0.889 1_655 S
H2125 C2113 0.929 . S
H2126 C2114 0.960 . S
H2127 C2114 0.962 . S
H2128 C2114 0.960 . S
H2129 C2115 0.961 . S
H2130 C2115 0.961 . S
H2131 C2115 0.961 . S
H2132 C2116 0.931 . S
H2133 C2121 0.930 . S
H2134 C2122 0.956 . S
H2135 C2122 0.961 . S
H2136 C2122 0.961 . S
H2137 C2123 0.958 . S
H2138 C2123 0.961 . S
H2139 C2123 0.960 . S
C2140 C2141 1.391 . S
C2140 C2142 1.394 . S
C2140 H2156 0.931 . S
C2141 C2140 1.391 . S
C2141 C2145 1.376 . S
C2142 C2140 1.394 . S
C2142 C2143 1.369 . S
C2142 C2146 1.531 . S
C2143 C2142 1.369 . S
C2143 C2144 1.410 . S
C2143 C2151 1.503 . S
C2144 C2143 1.410 . S
C2144 C2145 1.392 . S
C2144 C2147 1.511 . S
C2145 C2141 1.376 . S
C2145 C2144 1.392 . S
C2145 H2157 0.929 . S
C2146 C2142 1.531 . S
C2146 H2158 0.960 . S
C2146 H2159 0.962 . S
C2146 H2160 0.960 . S
C2147 C2144 1.511 . S
C2147 H2161 0.961 . S
C2147 H2162 0.961 . S
C2147 H2163 0.961 . S
C2148 C2149 1.370 . S
C2148 C2150 1.363 . S
C2148 H2164 0.931 . S
C2149 C2148 1.370 . S
C2149 C2153 1.408 . S
C2150 C2148 1.363 . S
C2150 C2151 1.370 . S
C2150 C2154 1.524 . S
C2151 C2143 1.503 . S
C2151 C2150 1.370 . S
C2151 C2152 1.403 . S
C2152 C2151 1.403 . S
C2152 C2153 1.404 . S
C2152 C2155 1.539 . S
C2153 C2149 1.408 . S
C2153 C2152 1.404 . S
C2153 H2165 0.930 . S
C2154 C2150 1.524 . S
C2154 H2166 0.956 . S
C2154 H2167 0.961 . S
C2154 H2168 0.961 . S
C2155 C2152 1.539 . S
C2155 H2169 0.958 . S
C2155 H2170 0.961 . S
C2155 H2171 0.960 . S
H2156 C2140 0.931 . S
H2157 C2145 0.929 . S
H2158 C2146 0.960 . S
H2159 C2146 0.962 . S
H2160 C2146 0.960 . S
H2161 C2147 0.961 . S
H2162 C2147 0.961 . S
H2163 C2147 0.961 . S
H2164 C2148 0.931 . S
H2165 C2153 0.930 . S
H2166 C2154 0.956 . S
H2167 C2154 0.961 . S
H2168 C2154 0.961 . S
H2169 C2155 0.958 . S
H2170 C2155 0.961 . S
H2171 C2155 0.960 . S
C2172 C2173 1.391 . S
C2172 C2174 1.394 . S
C2172 H2188 0.931 . S
C2173 C2172 1.391 . S
C2173 C2177 1.376 . S
C2174 C2172 1.394 . S
C2174 C2175 1.369 . S
C2174 C2178 1.531 . S
C2175 C2174 1.369 . S
C2175 C2176 1.410 . S
C2175 C2183 1.503 . S
C2176 C2175 1.410 . S
C2176 C2177 1.392 . S
C2176 C2179 1.511 . S
C2177 C2173 1.376 . S
C2177 C2176 1.392 . S
C2177 H2189 0.929 . S
C2178 C2174 1.531 . S
C2178 H2190 0.960 . S
C2178 H2191 0.962 . S
C2178 H2192 0.960 . S
C2179 C2176 1.511 . S
C2179 H2193 0.961 . S
C2179 H2194 0.961 . S
C2179 H2195 0.961 . S
C2180 C2181 1.370 . S
C2180 C2182 1.363 . S
C2180 H2196 0.931 . S
C2181 C2180 1.370 . S
C2181 C2185 1.408 . S
C2182 C2180 1.363 . S
C2182 C2183 1.370 . S
C2182 C2186 1.524 . S
C2183 C2175 1.503 . S
C2183 C2182 1.370 . S
C2183 C2184 1.403 . S
C2184 C2183 1.403 . S
C2184 C2185 1.404 . S
C2184 C2187 1.539 . S
C2185 C2181 1.408 . S
C2185 C2184 1.404 . S
C2185 H2197 0.930 . S
C2186 C2182 1.524 . S
C2186 H2198 0.956 . S
C2186 H2199 0.961 . S
C2186 H2200 0.961 . S
C2187 C2184 1.539 . S
C2187 H2201 0.958 . S
C2187 H2202 0.961 . S
C2187 H2203 0.960 . S
H2188 C2172 0.931 . S
H2189 C2177 0.929 . S
H2190 C2178 0.960 . S
H2191 C2178 0.962 . S
H2192 C2178 0.960 . S
H2193 C2179 0.961 . S
H2194 C2179 0.961 . S
H2195 C2179 0.961 . S
H2196 C2180 0.931 . S
H2197 C2185 0.930 . S
H2198 C2186 0.956 . S
H2199 C2186 0.961 . S
H2200 C2186 0.961 . S
H2201 C2187 0.958 . S
H2202 C2187 0.961 . S
H2203 C2187 0.960 . S
C2204 C2205 1.391 . S
C2204 C2206 1.394 . S
C2204 H2220 0.931 . S
C2205 C2204 1.391 . S
C2205 C2209 1.376 . S
C2206 C2204 1.394 . S
C2206 C2207 1.369 . S
C2206 C2210 1.531 . S
C2207 C2206 1.369 . S
C2207 C2208 1.410 . S
C2207 C2215 1.503 . S
C2208 C2207 1.410 . S
C2208 C2209 1.392 . S
C2208 C2211 1.511 . S
C2209 C2205 1.376 . S
C2209 C2208 1.392 . S
C2209 H2221 0.929 . S
C2210 C2206 1.531 . S
C2210 H2222 0.960 . S
C2210 H2223 0.962 . S
C2210 H2224 0.960 . S
C2211 C2208 1.511 . S
C2211 H2225 0.961 . S
C2211 H2226 0.961 . S
C2211 H2227 0.961 . S
C2212 C2213 1.370 . S
C2212 C2214 1.363 . S
C2212 H2228 0.931 . S
C2213 C2212 1.370 . S
C2213 C2217 1.408 . S
C2214 C2212 1.363 . S
C2214 C2215 1.370 . S
C2214 C2218 1.524 . S
C2215 C2207 1.503 . S
C2215 C2214 1.370 . S
C2215 C2216 1.403 . S
C2216 C2215 1.403 . S
C2216 C2217 1.404 . S
C2216 C2219 1.539 . S
C2217 C2213 1.408 . S
C2217 C2216 1.404 . S
C2217 H2229 0.930 . S
C2218 C2214 1.524 . S
C2218 H2230 0.956 . S
C2218 H2231 0.961 . S
C2218 H2232 0.961 . S
C2219 C2216 1.539 . S
C2219 H2233 0.958 . S
C2219 H2234 0.961 . S
C2219 H2235 0.960 . S
H2220 C2204 0.931 . S
H2221 C2209 0.929 . S
H2222 C2210 0.960 . S
H2223 C2210 0.962 . S
H2224 C2210 0.960 . S
H2225 C2211 0.961 . S
H2226 C2211 0.961 . S
H2227 C2211 0.961 . S
H2228 C2212 0.931 . S
H2229 C2217 0.930 . S
H2230 C2218 0.956 . S
H2231 C2218 0.961 . S
H2232 C2218 0.961 . S
H2233 C2219 0.958 . S
H2234 C2219 0.961 . S
H2235 C2219 0.960 . S
C2236 C2237 1.391 . S
C2236 C2238 1.394 . S
C2236 H2252 0.931 . S
C2237 C2236 1.391 . S
C2237 C2241 1.376 . S
C2238 C2236 1.394 . S
C2238 C2239 1.369 . S
C2238 C2242 1.531 . S
C2239 C2238 1.369 . S
C2239 C2240 1.410 . S
C2239 C2247 1.503 . S
C2240 C2239 1.410 . S
C2240 C2241 1.392 . S
C2240 C2243 1.511 . S
C2241 C2237 1.376 . S
C2241 C2240 1.392 . S
C2241 H2253 0.929 . S
C2242 C2238 1.531 . S
C2242 H2254 0.960 . S
C2242 H2255 0.962 . S
C2242 H2256 0.960 . S
C2243 C2240 1.511 . S
C2243 H2257 0.961 . S
C2243 H2258 0.961 . S
C2243 H2259 0.961 . S
C2244 C2245 1.370 . S
C2244 C2246 1.363 . S
C2244 H2260 0.931 . S
C2245 C2244 1.370 . S
C2245 C2249 1.408 . S
C2246 C2244 1.363 . S
C2246 C2247 1.370 . S
C2246 C2250 1.524 . S
C2247 C2239 1.503 . S
C2247 C2246 1.370 . S
C2247 C2248 1.403 . S
C2248 C2247 1.403 . S
C2248 C2249 1.404 . S
C2248 C2251 1.539 . S
C2249 C2245 1.408 . S
C2249 C2248 1.404 . S
C2249 H2261 0.930 . S
C2250 C2246 1.524 . S
C2250 H2262 0.956 . S
C2250 H2263 0.961 . S
C2250 H2264 0.961 . S
C2251 C2248 1.539 . S
C2251 H2265 0.958 . S
C2251 H2266 0.961 . S
C2251 H2267 0.960 . S
H2252 C2236 0.931 . S
H2253 C2241 0.929 . S
H2254 C2242 0.960 . S
H2255 C2242 0.962 . S
H2256 C2242 0.960 . S
H2257 C2243 0.961 . S
H2258 C2243 0.961 . S
H2259 C2243 0.961 . S
H2260 C2244 0.931 . S
H2261 C2249 0.930 . S
H2262 C2250 0.956 . S
H2263 C2250 0.961 . S
H2264 C2250 0.961 . S
H2265 C2251 0.958 . S
H2266 C2251 0.961 . S
H2267 C2251 0.960 . S
C2268 C2269 1.391 . S
C2268 C2270 1.394 1_565 S
C2268 H2284 0.931 . S
C2269 C2268 1.391 . S
C2269 C2273 1.376 1_565 S
C2270 C2268 1.394 1_545 S
C2270 C2271 1.369 . S
C2270 C2274 1.531 . S
C2271 C2270 1.369 . S
C2271 C2272 1.410 . S
C2271 C2279 1.503 . S
C2272 C2271 1.410 . S
C2272 C2273 1.392 . S
C2272 C2275 1.511 . S
C2273 C2269 1.376 1_545 S
C2273 C2272 1.392 . S
C2273 H2285 0.929 1_545 S
C2274 C2270 1.531 . S
C2274 H2286 0.960 . S
C2274 H2287 0.962 . S
C2274 H2288 0.960 . S
C2275 C2272 1.511 . S
C2275 H2289 0.961 . S
C2275 H2290 0.961 . S
C2275 H2291 0.961 . S
C2276 C2277 1.370 . S
C2276 C2278 1.363 . S
C2276 H2292 0.931 . S
C2277 C2276 1.370 . S
C2277 C2281 1.408 . S
C2278 C2276 1.363 . S
C2278 C2279 1.370 . S
C2278 C2282 1.524 . S
C2279 C2271 1.503 . S
C2279 C2278 1.370 . S
C2279 C2280 1.403 . S
C2280 C2279 1.403 . S
C2280 C2281 1.404 . S
C2280 C2283 1.539 . S
C2281 C2277 1.408 . S
C2281 C2280 1.404 . S
C2281 H2293 0.930 . S
C2282 C2278 1.524 . S
C2282 H2294 0.956 . S
C2282 H2295 0.961 . S
C2282 H2296 0.961 . S
C2283 C2280 1.539 . S
C2283 H2297 0.958 . S
C2283 H2298 0.961 . S
C2283 H2299 0.960 . S
H2284 C2268 0.931 . S
H2285 C2273 0.929 1_565 S
H2286 C2274 0.960 . S
H2287 C2274 0.962 . S
H2288 C2274 0.960 . S
H2289 C2275 0.961 . S
H2290 C2275 0.961 . S
H2291 C2275 0.961 . S
H2292 C2276 0.931 . S
H2293 C2281 0.930 . S
H2294 C2282 0.956 . S
H2295 C2282 0.961 . S
H2296 C2282 0.961 . S
H2297 C2283 0.958 . S
H2298 C2283 0.961 . S
H2299 C2283 0.960 . S
C2300 C2301 1.391 . S
C2300 C2302 1.394 1_455 S
C2300 H2316 0.931 . S
C2301 C2300 1.391 . S
C2301 C2305 1.376 1_455 S
C2302 C2300 1.394 1_655 S
C2302 C2303 1.369 . S
C2302 C2306 1.531 . S
C2303 C2302 1.369 . S
C2303 C2304 1.410 . S
C2303 C2311 1.503 . S
C2304 C2303 1.410 . S
C2304 C2305 1.392 . S
C2304 C2307 1.511 . S
C2305 C2301 1.376 1_655 S
C2305 C2304 1.392 . S
C2305 H2317 0.929 . S
C2306 C2302 1.531 . S
C2306 H2318 0.960 . S
C2306 H2319 0.962 . S
C2306 H2320 0.960 . S
C2307 C2304 1.511 . S
C2307 H2321 0.961 . S
C2307 H2322 0.961 . S
C2307 H2323 0.961 . S
C2308 C2309 1.370 . S
C2308 C2310 1.363 . S
C2308 H2324 0.931 . S
C2309 C2308 1.370 . S
C2309 C2313 1.408 . S
C2310 C2308 1.363 . S
C2310 C2311 1.370 . S
C2310 C2314 1.524 . S
C2311 C2303 1.503 . S
C2311 C2310 1.370 . S
C2311 C2312 1.403 . S
C2312 C2311 1.403 . S
C2312 C2313 1.404 . S
C2312 C2315 1.539 . S
C2313 C2309 1.408 . S
C2313 C2312 1.404 . S
C2313 H2325 0.930 . S
C2314 C2310 1.524 . S
C2314 H2326 0.956 . S
C2314 H2327 0.961 . S
C2314 H2328 0.961 . S
C2315 C2312 1.539 . S
C2315 H2329 0.958 . S
C2315 H2330 0.961 . S
C2315 H2331 0.960 . S
H2316 C2300 0.931 . S
H2317 C2305 0.929 . S
H2318 C2306 0.960 . S
H2319 C2306 0.962 . S
H2320 C2306 0.960 . S
H2321 C2307 0.961 . S
H2322 C2307 0.961 . S
H2323 C2307 0.961 . S
H2324 C2308 0.931 . S
H2325 C2313 0.930 . S
H2326 C2314 0.956 . S
H2327 C2314 0.961 . S
H2328 C2314 0.961 . S
H2329 C2315 0.958 . S
H2330 C2315 0.961 . S
H2331 C2315 0.960 . S
C2332 C2333 1.391 . S
C2332 C2334 1.394 . S
C2332 H2348 0.931 . S
C2333 C2332 1.391 . S
C2333 C2337 1.376 . S
C2334 C2332 1.394 . S
C2334 C2335 1.369 . S
C2334 C2338 1.531 . S
C2335 C2334 1.369 . S
C2335 C2336 1.410 . S
C2335 C2343 1.503 . S
C2336 C2335 1.410 . S
C2336 C2337 1.392 . S
C2336 C2339 1.511 . S
C2337 C2333 1.376 . S
C2337 C2336 1.392 . S
C2337 H2349 0.929 . S
C2338 C2334 1.531 . S
C2338 H2350 0.960 . S
C2338 H2351 0.962 . S
C2338 H2352 0.960 . S
C2339 C2336 1.511 . S
C2339 H2353 0.961 . S
C2339 H2354 0.961 . S
C2339 H2355 0.961 . S
C2340 C2341 1.370 . S
C2340 C2342 1.363 . S
C2340 H2356 0.931 . S
C2341 C2340 1.370 . S
C2341 C2345 1.408 . S
C2342 C2340 1.363 . S
C2342 C2343 1.370 . S
C2342 C2346 1.524 . S
C2343 C2335 1.503 . S
C2343 C2342 1.370 . S
C2343 C2344 1.403 . S
C2344 C2343 1.403 . S
C2344 C2345 1.404 . S
C2344 C2347 1.539 . S
C2345 C2341 1.408 . S
C2345 C2344 1.404 . S
C2345 H2357 0.930 . S
C2346 C2342 1.524 . S
C2346 H2358 0.956 . S
C2346 H2359 0.961 . S
C2346 H2360 0.961 . S
C2347 C2344 1.539 . S
C2347 H2361 0.958 . S
C2347 H2362 0.961 . S
C2347 H2363 0.960 . S
H2348 C2332 0.931 . S
H2349 C2337 0.929 . S
H2350 C2338 0.960 . S
H2351 C2338 0.962 . S
H2352 C2338 0.960 . S
H2353 C2339 0.961 . S
H2354 C2339 0.961 . S
H2355 C2339 0.961 . S
H2356 C2340 0.931 . S
H2357 C2345 0.930 . S
H2358 C2346 0.956 . S
H2359 C2346 0.961 . S
H2360 C2346 0.961 . S
H2361 C2347 0.958 . S
H2362 C2347 0.961 . S
H2363 C2347 0.960 . S
C2364 C2365 1.391 1_655 S
C2364 C2366 1.394 . S
C2364 H2380 0.931 . S
C2365 C2364 1.391 1_455 S
C2365 C2369 1.376 . S
C2366 C2364 1.394 . S
C2366 C2367 1.369 . S
C2366 C2370 1.531 . S
C2367 C2366 1.369 . S
C2367 C2368 1.410 . S
C2367 C2375 1.503 . S
C2368 C2367 1.410 . S
C2368 C2369 1.392 1_655 S
C2368 C2371 1.511 . S
C2369 C2365 1.376 . S
C2369 C2368 1.392 1_455 S
C2369 H2381 0.929 . S
C2370 C2366 1.531 . S
C2370 H2382 0.960 . S
C2370 H2383 0.962 . S
C2370 H2384 0.960 . S
C2371 C2368 1.511 . S
C2371 H2385 0.961 . S
C2371 H2386 0.961 . S
C2371 H2387 0.961 . S
C2372 C2373 1.370 . S
C2372 C2374 1.363 . S
C2372 H2388 0.931 . S
C2373 C2372 1.370 . S
C2373 C2377 1.408 . S
C2374 C2372 1.363 . S
C2374 C2375 1.370 . S
C2374 C2378 1.524 . S
C2375 C2367 1.503 . S
C2375 C2374 1.370 . S
C2375 C2376 1.403 . S
C2376 C2375 1.403 . S
C2376 C2377 1.404 . S
C2376 C2379 1.539 . S
C2377 C2373 1.408 . S
C2377 C2376 1.404 . S
C2377 H2389 0.930 . S
C2378 C2374 1.524 . S
C2378 H2390 0.956 . S
C2378 H2391 0.961 . S
C2378 H2392 0.961 . S
C2379 C2376 1.539 . S
C2379 H2393 0.958 . S
C2379 H2394 0.961 . S
C2379 H2395 0.960 . S
H2380 C2364 0.931 . S
H2381 C2369 0.929 . S
H2382 C2370 0.960 . S
H2383 C2370 0.962 . S
H2384 C2370 0.960 . S
H2385 C2371 0.961 . S
H2386 C2371 0.961 . S
H2387 C2371 0.961 . S
H2388 C2372 0.931 . S
H2389 C2377 0.930 . S
H2390 C2378 0.956 . S
H2391 C2378 0.961 . S
H2392 C2378 0.961 . S
H2393 C2379 0.958 . S
H2394 C2379 0.961 . S
H2395 C2379 0.960 . S
C2396 C2397 1.391 . S
C2396 C2398 1.394 . S
C2396 H2412 0.931 . S
C2397 C2396 1.391 . S
C2397 C2401 1.376 . S
C2398 C2396 1.394 . S
C2398 C2399 1.369 . S
C2398 C2402 1.531 . S
C2399 C2398 1.369 . S
C2399 C2400 1.410 . S
C2399 C2407 1.503 . S
C2400 C2399 1.410 . S
C2400 C2401 1.392 . S
C2400 C2403 1.511 . S
C2401 C2397 1.376 . S
C2401 C2400 1.392 . S
C2401 H2413 0.929 . S
C2402 C2398 1.531 . S
C2402 H2414 0.960 . S
C2402 H2415 0.962 . S
C2402 H2416 0.960 . S
C2403 C2400 1.511 . S
C2403 H2417 0.961 . S
C2403 H2418 0.961 . S
C2403 H2419 0.961 . S
C2404 C2405 1.370 . S
C2404 C2406 1.363 . S
C2404 H2420 0.931 . S
C2405 C2404 1.370 . S
C2405 C2409 1.408 . S
C2406 C2404 1.363 . S
C2406 C2407 1.370 . S
C2406 C2410 1.524 . S
C2407 C2399 1.503 . S
C2407 C2406 1.370 . S
C2407 C2408 1.403 . S
C2408 C2407 1.403 . S
C2408 C2409 1.404 . S
C2408 C2411 1.539 . S
C2409 C2405 1.408 . S
C2409 C2408 1.404 . S
C2409 H2421 0.930 . S
C2410 C2406 1.524 . S
C2410 H2422 0.956 . S
C2410 H2423 0.961 . S
C2410 H2424 0.961 . S
C2411 C2408 1.539 . S
C2411 H2425 0.958 . S
C2411 H2426 0.961 . S
C2411 H2427 0.960 . S
H2412 C2396 0.931 . S
H2413 C2401 0.929 . S
H2414 C2402 0.960 . S
H2415 C2402 0.962 . S
H2416 C2402 0.960 . S
H2417 C2403 0.961 . S
H2418 C2403 0.961 . S
H2419 C2403 0.961 . S
H2420 C2404 0.931 . S
H2421 C2409 0.930 . S
H2422 C2410 0.956 . S
H2423 C2410 0.961 . S
H2424 C2410 0.961 . S
H2425 C2411 0.958 . S
H2426 C2411 0.961 . S
H2427 C2411 0.960 . S
C2428 C2429 1.391 . S
C2428 C2430 1.394 1_565 S
C2428 H2444 0.931 . S
C2429 C2428 1.391 . S
C2429 C2433 1.376 1_565 S
C2430 C2428 1.394 1_545 S
C2430 C2431 1.369 . S
C2430 C2434 1.531 . S
C2431 C2430 1.369 . S
C2431 C2432 1.410 . S
C2431 C2439 1.503 . S
C2432 C2431 1.410 . S
C2432 C2433 1.392 . S
C2432 C2435 1.511 . S
C2433 C2429 1.376 1_545 S
C2433 C2432 1.392 . S
C2433 H2445 0.929 1_545 S
C2434 C2430 1.531 . S
C2434 H2446 0.960 . S
C2434 H2447 0.962 . S
C2434 H2448 0.931 1_545 S
C2435 C2432 1.511 . S
C2435 H2449 0.961 . S
C2435 H2450 0.961 . S
C2435 H2451 0.961 . S
C2436 C2437 1.370 . S
C2436 C2438 1.363 . S
C2436 H2452 0.931 . S
C2437 C2436 1.370 . S
C2437 C2441 1.408 . S
C2438 C2436 1.363 . S
C2438 C2439 1.370 . S
C2438 C2442 1.524 . S
C2439 C2431 1.503 . S
C2439 C2438 1.370 . S
C2439 C2440 1.403 . S
C2440 C2439 1.403 . S
C2440 C2441 1.404 . S
C2440 C2443 1.539 . S
C2441 C2437 1.408 . S
C2441 C2440 1.404 . S
C2441 H2453 0.930 . S
C2442 C2438 1.524 . S
C2442 H2454 0.956 . S
C2442 H2455 0.961 . S
C2442 H2456 0.961 . S
C2443 C2440 1.539 . S
C2443 H2457 0.958 . S
C2443 H2458 0.961 . S
C2443 H2459 0.960 . S
H2444 C2428 0.931 . S
H2445 C2433 0.929 1_565 S
H2446 C2434 0.960 . S
H2447 C2434 0.962 . S
H2448 C2434 0.931 1_565 S
H2449 C2435 0.961 . S
H2450 C2435 0.961 . S
H2451 C2435 0.961 . S
H2452 C2436 0.931 . S
H2453 C2441 0.930 . S
H2454 C2442 0.956 . S
H2455 C2442 0.961 . S
H2456 C2442 0.961 . S
H2457 C2443 0.958 . S
H2458 C2443 0.961 . S
H2459 C2443 0.960 . S
C2460 C2461 1.391 . S
C2460 C2462 1.394 . S
C2460 H2476 0.931 . S
C2461 C2460 1.391 . S
C2461 C2465 1.376 . S
C2462 C2460 1.394 . S
C2462 C2463 1.369 . S
C2462 C2466 1.531 . S
C2463 C2462 1.369 . S
C2463 C2464 1.410 . S
C2463 C2471 1.503 . S
C2464 C2463 1.410 . S
C2464 C2465 1.392 . S
C2464 C2467 1.511 . S
C2465 C2461 1.376 . S
C2465 C2464 1.392 . S
C2465 H2477 0.929 . S
C2466 C2462 1.531 . S
C2466 H2478 0.960 . S
C2466 H2479 0.962 . S
C2466 H2480 0.960 . S
C2467 C2464 1.511 . S
C2467 H2481 0.961 . S
C2467 H2482 0.961 . S
C2467 H2483 0.961 . S
C2468 C2469 1.370 . S
C2468 C2470 1.363 . S
C2468 H2484 0.931 . S
C2469 C2468 1.370 . S
C2469 C2473 1.408 . S
C2470 C2468 1.363 . S
C2470 C2471 1.370 . S
C2470 C2474 1.524 . S
C2471 C2463 1.503 . S
C2471 C2470 1.370 . S
C2471 C2472 1.403 . S
C2472 C2471 1.403 . S
C2472 C2473 1.404 . S
C2472 C2475 1.539 . S
C2473 C2469 1.408 . S
C2473 C2472 1.404 . S
C2473 H2485 0.930 . S
C2474 C2470 1.524 . S
C2474 H2486 0.956 . S
C2474 H2487 0.961 . S
C2474 H2488 0.961 . S
C2475 C2472 1.539 . S
C2475 H2489 0.958 . S
C2475 H2490 0.961 . S
C2475 H2491 0.960 . S
H2476 C2460 0.931 . S
H2477 C2465 0.929 . S
H2478 C2466 0.960 . S
H2479 C2466 0.962 . S
H2480 C2466 0.960 . S
H2481 C2467 0.961 . S
H2482 C2467 0.961 . S
H2483 C2467 0.961 . S
H2484 C2468 0.931 . S
H2485 C2473 0.930 . S
H2486 C2474 0.956 . S
H2487 C2474 0.961 . S
H2488 C2474 0.961 . S
H2489 C2475 0.958 . S
H2490 C2475 0.961 . S
H2491 C2475 0.960 . S
C2492 C2493 1.391 . S
C2492 C2494 1.394 . S
C2492 H2508 0.931 . S
C2493 C2492 1.391 . S
C2493 C2497 1.376 . S
C2494 C2492 1.394 . S
C2494 C2495 1.369 . S
C2494 C2498 1.531 . S
C2495 C2494 1.369 . S
C2495 C2496 1.410 . S
C2495 C2503 1.503 . S
C2496 C2495 1.410 . S
C2496 C2497 1.392 . S
C2496 C2499 1.511 . S
C2497 C2493 1.376 . S
C2497 C2496 1.392 . S
C2497 H2509 0.929 . S
C2498 C2494 1.531 . S
C2498 H2510 0.960 . S
C2498 H2511 0.962 . S
C2498 H2512 0.960 . S
C2499 C2496 1.511 . S
C2499 H2513 0.961 . S
C2499 H2514 0.961 . S
C2499 H2515 0.961 . S
C2500 C2501 1.370 . S
C2500 C2502 1.363 . S
C2500 H2516 0.931 . S
C2501 C2500 1.370 . S
C2501 C2505 1.408 . S
C2502 C2500 1.363 . S
C2502 C2503 1.370 . S
C2502 C2506 1.524 . S
C2503 C2495 1.503 . S
C2503 C2502 1.370 . S
C2503 C2504 1.403 . S
C2504 C2503 1.403 . S
C2504 C2505 1.404 . S
C2504 C2507 1.539 . S
C2505 C2501 1.408 . S
C2505 C2504 1.404 . S
C2505 H2517 0.930 . S
C2506 C2502 1.524 . S
C2506 H2518 0.956 . S
C2506 H2519 0.961 . S
C2506 H2520 0.961 . S
C2507 C2504 1.539 . S
C2507 H2521 0.958 . S
C2507 H2522 0.961 . S
C2507 H2523 0.960 . S
H2508 C2492 0.931 . S
H2509 C2497 0.929 . S
H2510 C2498 0.960 . S
H2511 C2498 0.962 . S
H2512 C2498 0.960 . S
H2513 C2499 0.961 . S
H2514 C2499 0.961 . S
H2515 C2499 0.961 . S
H2516 C2500 0.931 . S
H2517 C2505 0.930 . S
H2518 C2506 0.956 . S
H2519 C2506 0.961 . S
H2520 C2506 0.961 . S
H2521 C2507 0.958 . S
H2522 C2507 0.961 . S
H2523 C2507 0.960 . S
C2524 C2525 1.391 . S
C2524 C2526 1.394 . S
C2524 H2540 0.931 . S
C2525 C2524 1.391 . S
C2525 C2529 1.376 . S
C2526 C2524 1.394 . S
C2526 C2527 1.369 . S
C2526 C2530 1.531 . S
C2527 C2526 1.369 . S
C2527 C2528 1.410 . S
C2527 C2535 1.503 . S
C2528 C2527 1.410 . S
C2528 C2529 1.392 . S
C2528 C2531 1.511 . S
C2529 C2525 1.376 . S
C2529 C2528 1.392 . S
C2529 H2541 0.929 . S
C2530 C2526 1.531 . S
C2530 H2542 0.960 . S
C2530 H2543 0.962 . S
C2530 H2544 0.960 . S
C2531 C2528 1.511 . S
C2531 H2545 0.961 . S
C2531 H2546 0.961 . S
C2531 H2547 0.961 . S
C2532 C2533 1.370 . S
C2532 C2534 1.363 . S
C2532 H2548 0.931 . S
C2533 C2532 1.370 . S
C2533 C2537 1.408 . S
C2534 C2532 1.363 . S
C2534 C2535 1.370 . S
C2534 C2538 1.524 . S
C2535 C2527 1.503 . S
C2535 C2534 1.370 . S
C2535 C2536 1.403 . S
C2536 C2535 1.403 . S
C2536 C2537 1.404 . S
C2536 C2539 1.539 . S
C2537 C2533 1.408 . S
C2537 C2536 1.404 . S
C2537 H2549 0.930 . S
C2538 C2534 1.524 . S
C2538 H2550 0.956 . S
C2538 H2551 0.961 . S
C2538 H2552 0.961 . S
C2539 C2536 1.539 . S
C2539 H2553 0.958 . S
C2539 H2554 0.961 . S
C2539 H2555 0.960 . S
H2540 C2524 0.931 . S
H2541 C2529 0.929 . S
H2542 C2530 0.960 . S
H2543 C2530 0.962 . S
H2544 C2530 0.960 . S
H2545 C2531 0.961 . S
H2546 C2531 0.961 . S
H2547 C2531 0.961 . S
H2548 C2532 0.931 . S
H2549 C2537 0.930 . S
H2550 C2538 0.956 . S
H2551 C2538 0.961 . S
H2552 C2538 0.961 . S
H2553 C2539 0.958 . S
H2554 C2539 0.961 . S
H2555 C2539 0.960 . S
C2556 C2557 1.391 . S
C2556 C2558 1.394 . S
C2556 H2572 0.931 . S
C2557 C2556 1.391 . S
C2557 C2561 1.376 . S
C2558 C2556 1.394 . S
C2558 C2559 1.369 . S
C2558 C2562 1.531 . S
C2559 C2558 1.369 . S
C2559 C2560 1.410 . S
C2559 C2567 1.503 . S
C2560 C2559 1.410 . S
C2560 C2561 1.392 . S
C2560 C2563 1.511 . S
C2561 C2557 1.376 . S
C2561 C2560 1.392 . S
C2561 H2573 0.929 . S
C2562 C2558 1.531 . S
C2562 H2574 0.960 . S
C2562 H2575 0.962 . S
C2562 H2576 0.960 1_565 S
C2563 C2560 1.511 . S
C2563 H2577 0.961 . S
C2563 H2578 0.961 . S
C2563 H2579 0.961 . S
C2564 C2565 1.370 . S
C2564 C2566 1.363 . S
C2564 H2580 0.931 . S
C2565 C2564 1.370 . S
C2565 C2569 1.408 . S
C2566 C2564 1.363 . S
C2566 C2567 1.370 . S
C2566 C2570 1.524 . S
C2567 C2559 1.503 . S
C2567 C2566 1.370 . S
C2567 C2568 1.403 . S
C2568 C2567 1.403 . S
C2568 C2569 1.404 . S
C2568 C2571 1.539 . S
C2569 C2565 1.408 . S
C2569 C2568 1.404 . S
C2569 H2581 0.930 . S
C2570 C2566 1.524 . S
C2570 H2582 0.956 . S
C2570 H2583 0.961 . S
C2570 H2584 0.961 . S
C2571 C2568 1.539 . S
C2571 H2585 0.958 . S
C2571 H2586 0.961 . S
C2571 H2587 0.960 . S
H2572 C2556 0.931 . S
H2573 C2561 0.929 . S
H2574 C2562 0.960 . S
H2575 C2562 0.962 . S
H2576 C2562 0.960 1_545 S
H2577 C2563 0.961 . S
H2578 C2563 0.961 . S
H2579 C2563 0.961 . S
H2580 C2564 0.931 . S
H2581 C2569 0.930 . S
H2582 C2570 0.956 . S
H2583 C2570 0.961 . S
H2584 C2570 0.961 . S
H2585 C2571 0.958 . S
H2586 C2571 0.961 . S
H2587 C2571 0.960 . S
C2588 C2589 1.391 . S
C2588 C2590 1.394 . S
C2588 H2604 0.931 . S
C2589 C2588 1.391 . S
C2589 C2593 1.376 . S
C2590 C2588 1.394 . S
C2590 C2591 1.369 . S
C2590 C2594 1.531 . S
C2591 C2590 1.369 . S
C2591 C2592 1.410 . S
C2591 C2599 1.503 . S
C2592 C2591 1.410 . S
C2592 C2593 1.392 . S
C2592 C2595 1.511 . S
C2593 C2589 1.376 . S
C2593 C2592 1.392 . S
C2593 H2605 0.929 . S
C2594 C2590 1.531 . S
C2594 H2606 0.960 . S
C2594 H2607 0.962 1_455 S
C2594 H2608 0.960 . S
C2595 C2592 1.511 . S
C2595 H2609 0.961 . S
C2595 H2610 0.961 . S
C2595 H2611 0.961 . S
C2596 C2597 1.370 . S
C2596 C2598 1.363 . S
C2596 H2612 0.931 . S
C2597 C2596 1.370 . S
C2597 C2601 1.408 . S
C2598 C2596 1.363 . S
C2598 C2599 1.370 . S
C2598 C2602 1.524 . S
C2599 C2591 1.503 . S
C2599 C2598 1.370 . S
C2599 C2600 1.403 . S
C2600 C2599 1.403 . S
C2600 C2601 1.404 . S
C2600 C2603 1.539 . S
C2601 C2597 1.408 . S
C2601 C2600 1.404 . S
C2601 H2613 0.930 . S
C2602 C2598 1.524 . S
C2602 H2614 0.956 1_455 S
C2602 H2615 0.961 . S
C2602 H2616 0.961 1_455 S
C2603 C2600 1.539 . S
C2603 H2617 0.958 . S
C2603 H2618 0.961 . S
C2603 H2619 0.960 . S
H2604 C2588 0.931 . S
H2605 C2593 0.929 . S
H2606 C2594 0.960 . S
H2607 C2594 0.962 1_655 S
H2608 C2594 0.960 . S
H2609 C2595 0.961 . S
H2610 C2595 0.961 . S
H2611 C2595 0.961 . S
H2612 C2596 0.931 . S
H2613 C2601 0.930 . S
H2614 C2602 0.956 1_655 S
H2615 C2602 0.961 . S
H2616 C2602 0.961 1_655 S
H2617 C2603 0.958 . S
H2618 C2603 0.961 . S
H2619 C2603 0.960 . S
C2620 C2621 1.391 . S
C2620 C2622 1.394 . S
C2620 H2636 0.931 . S
C2621 C2620 1.391 . S
C2621 C2625 1.376 . S
C2622 C2620 1.394 . S
C2622 C2623 1.369 . S
C2622 C2626 1.531 . S
C2623 C2622 1.369 . S
C2623 C2624 1.410 . S
C2623 C2631 1.503 . S
C2624 C2623 1.410 . S
C2624 C2625 1.392 . S
C2624 C2627 1.511 . S
C2625 C2621 1.376 . S
C2625 C2624 1.392 . S
C2625 H2637 0.929 . S
C2626 C2622 1.531 . S
C2626 H2638 0.960 . S
C2626 H2639 0.962 . S
C2626 H2640 0.960 . S
C2627 C2624 1.511 . S
C2627 H2641 0.961 . S
C2627 H2642 0.961 . S
C2627 H2643 0.961 . S
C2628 C2629 1.370 . S
C2628 C2630 1.363 . S
C2628 H2644 0.931 . S
C2629 C2628 1.370 . S
C2629 C2633 1.408 . S
C2630 C2628 1.363 . S
C2630 C2631 1.370 . S
C2630 C2634 1.524 . S
C2631 C2623 1.503 . S
C2631 C2630 1.370 . S
C2631 C2632 1.403 . S
C2632 C2631 1.403 . S
C2632 C2633 1.404 . S
C2632 C2635 1.539 . S
C2633 C2629 1.408 . S
C2633 C2632 1.404 . S
C2633 H2645 0.930 . S
C2634 C2630 1.524 . S
C2634 H2646 0.956 . S
C2634 H2647 0.961 . S
C2634 H2648 0.961 . S
C2635 C2632 1.539 . S
C2635 H2649 0.958 . S
C2635 H2650 0.961 . S
C2635 H2651 0.960 . S
H2636 C2620 0.931 . S
H2637 C2625 0.929 . S
H2638 C2626 0.960 . S
H2639 C2626 0.962 . S
H2640 C2626 0.960 . S
H2641 C2627 0.961 . S
H2642 C2627 0.961 . S
H2643 C2627 0.961 . S
H2644 C2628 0.931 . S
H2645 C2633 0.930 . S
H2646 C2634 0.956 . S
H2647 C2634 0.961 . S
H2648 C2634 0.961 . S
H2649 C2635 0.958 . S
H2650 C2635 0.961 . S
H2651 C2635 0.960 . S
C2652 C2653 1.391 . S
C2652 C2654 1.394 . S
C2652 H2668 0.931 . S
C2653 C2652 1.391 . S
C2653 C2657 1.376 . S
C2654 C2652 1.394 . S
C2654 C2655 1.369 . S
C2654 C2658 1.531 1_655 S
C2655 C2654 1.369 . S
C2655 C2656 1.410 . S
C2655 C2663 1.503 . S
C2656 C2655 1.410 . S
C2656 C2657 1.392 . S
C2656 C2659 1.511 . S
C2657 C2653 1.376 . S
C2657 C2656 1.392 . S
C2657 H2669 0.929 . S
C2658 C2654 1.531 1_455 S
C2658 H2670 0.960 . S
C2658 H2671 0.962 . S
C2658 H2672 0.960 . S
C2659 C2656 1.511 . S
C2659 H2673 0.961 . S
C2659 H2674 0.961 . S
C2659 H2675 0.961 . S
C2660 C2661 1.370 . S
C2660 C2662 1.363 . S
C2660 H2676 0.931 . S
C2661 C2660 1.370 . S
C2661 C2665 1.408 . S
C2662 C2660 1.363 . S
C2662 C2663 1.370 . S
C2662 C2666 1.524 . S
C2663 C2655 1.503 . S
C2663 C2662 1.370 . S
C2663 C2664 1.403 . S
C2664 C2663 1.403 . S
C2664 C2665 1.404 . S
C2664 C2667 1.539 . S
C2665 C2661 1.408 . S
C2665 C2664 1.404 . S
C2665 H2677 0.930 . S
C2666 C2662 1.524 . S
C2666 H2678 0.956 . S
C2666 H2679 0.961 . S
C2666 H2680 0.961 . S
C2667 C2664 1.539 . S
C2667 H2681 0.958 1_655 S
C2667 H2682 0.961 . S
C2667 H2683 0.960 . S
H2668 C2652 0.931 . S
H2669 C2657 0.929 . S
H2670 C2658 0.960 . S
H2671 C2658 0.962 . S
H2672 C2658 0.960 . S
H2673 C2659 0.961 . S
H2674 C2659 0.961 . S
H2675 C2659 0.961 . S
H2676 C2660 0.931 . S
H2677 C2665 0.930 . S
H2678 C2666 0.956 . S
H2679 C2666 0.961 . S
H2680 C2666 0.961 . S
H2681 C2667 0.958 1_455 S
H2682 C2667 0.961 . S
H2683 C2667 0.960 . S
C2684 C2685 1.391 . S
C2684 C2686 1.394 . S
C2684 H2700 0.931 . S
C2685 C2684 1.391 . S
C2685 C2689 1.376 . S
C2686 C2684 1.394 . S
C2686 C2687 1.369 . S
C2686 C2690 1.531 . S
C2687 C2686 1.369 . S
C2687 C2688 1.410 . S
C2687 C2695 1.503 . S
C2688 C2687 1.410 . S
C2688 C2689 1.392 . S
C2688 C2691 1.511 . S
C2689 C2685 1.376 . S
C2689 C2688 1.392 . S
C2689 H2701 0.929 . S
C2690 C2686 1.531 . S
C2690 H2702 0.960 . S
C2690 H2703 0.962 . S
C2690 H2704 0.960 . S
C2691 C2688 1.511 . S
C2691 H2705 0.961 . S
C2691 H2706 0.961 . S
C2691 H2707 0.961 . S
C2692 C2693 1.370 . S
C2692 C2694 1.363 . S
C2692 H2708 0.931 . S
C2693 C2692 1.370 . S
C2693 C2697 1.408 . S
C2694 C2692 1.363 . S
C2694 C2695 1.370 . S
C2694 C2698 1.524 . S
C2695 C2687 1.503 . S
C2695 C2694 1.370 . S
C2695 C2696 1.403 . S
C2696 C2695 1.403 . S
C2696 C2697 1.404 . S
C2696 C2699 1.539 . S
C2697 C2693 1.408 . S
C2697 C2696 1.404 . S
C2697 H2709 0.930 . S
C2698 C2694 1.524 . S
C2698 H2710 0.956 . S
C2698 H2711 0.961 . S
C2698 H2712 0.961 . S
C2699 C2696 1.539 . S
C2699 H2713 0.958 . S
C2699 H2714 0.961 . S
C2699 H2715 0.960 . S
H2700 C2684 0.931 . S
H2701 C2689 0.929 . S
H2702 C2690 0.960 . S
H2703 C2690 0.962 . S
H2704 C2690 0.960 . S
H2705 C2691 0.961 . S
H2706 C2691 0.961 . S
H2707 C2691 0.961 . S
H2708 C2692 0.931 . S
H2709 C2697 0.930 . S
H2710 C2698 0.956 . S
H2711 C2698 0.961 . S
H2712 C2698 0.961 . S
H2713 C2699 0.958 . S
H2714 C2699 0.961 . S
H2715 C2699 0.960 . S
C2716 C2717 1.391 . S
C2716 C2718 1.394 . S
C2716 H2732 0.931 . S
C2717 C2716 1.391 . S
C2717 C2721 1.376 . S
C2718 C2716 1.394 . S
C2718 C2719 1.369 . S
C2718 C2722 1.531 . S
C2719 C2718 1.369 . S
C2719 C2720 1.410 . S
C2719 C2727 1.503 . S
C2720 C2719 1.410 . S
C2720 C2721 1.392 . S
C2720 C2723 1.511 . S
C2721 C2717 1.376 . S
C2721 C2720 1.392 . S
C2721 H2733 0.929 . S
C2722 C2718 1.531 . S
C2722 H2734 0.960 . S
C2722 H2735 0.962 . S
C2722 H2736 0.960 . S
C2723 C2720 1.511 . S
C2723 H2737 0.961 . S
C2723 H2738 0.961 . S
C2723 H2739 0.961 . S
C2724 C2725 1.370 . S
C2724 C2726 1.363 . S
C2724 H2740 0.931 . S
C2725 C2724 1.370 . S
C2725 C2729 1.408 . S
C2726 C2724 1.363 . S
C2726 C2727 1.370 . S
C2726 C2730 1.524 . S
C2727 C2719 1.503 . S
C2727 C2726 1.370 . S
C2727 C2728 1.403 . S
C2728 C2727 1.403 . S
C2728 C2729 1.404 . S
C2728 C2731 1.539 1_545 S
C2729 C2725 1.408 . S
C2729 C2728 1.404 . S
C2729 H2741 0.930 1_545 S
C2730 C2726 1.524 . S
C2730 H2742 0.956 . S
C2730 H2743 0.961 . S
C2730 H2744 0.961 . S
C2731 C2728 1.539 1_565 S
C2731 H2745 0.958 . S
C2731 H2746 0.961 . S
C2731 H2747 0.960 1_565 S
H2732 C2716 0.931 . S
H2733 C2721 0.929 . S
H2734 C2722 0.960 . S
H2735 C2722 0.962 . S
H2736 C2722 0.960 . S
H2737 C2723 0.961 . S
H2738 C2723 0.961 . S
H2739 C2723 0.961 . S
H2740 C2724 0.931 . S
H2741 C2729 0.930 1_565 S
H2742 C2730 0.956 . S
H2743 C2730 0.961 . S
H2744 C2730 0.961 . S
H2745 C2731 0.958 . S
H2746 C2731 0.961 . S
H2747 C2731 0.960 1_545 S
C2748 C2749 1.391 . S
C2748 C2750 1.394 . S
C2748 H2764 0.931 . S
C2749 C2748 1.391 . S
C2749 C2753 1.376 . S
C2750 C2748 1.394 . S
C2750 C2751 1.369 . S
C2750 C2754 1.531 . S
C2751 C2750 1.369 . S
C2751 C2752 1.410 . S
C2751 C2759 1.503 . S
C2752 C2751 1.410 . S
C2752 C2753 1.392 . S
C2752 C2755 1.511 . S
C2753 C2749 1.376 . S
C2753 C2752 1.392 . S
C2753 H2765 0.929 . S
C2754 C2750 1.531 . S
C2754 H2766 0.960 . S
C2754 H2767 0.962 . S
C2754 H2768 0.960 . S
C2755 C2752 1.511 . S
C2755 H2769 0.961 . S
C2755 H2770 0.961 . S
C2755 H2771 0.961 . S
C2756 C2757 1.370 . S
C2756 C2758 1.363 . S
C2756 H2772 0.931 . S
C2757 C2756 1.370 . S
C2757 C2761 1.408 . S
C2758 C2756 1.363 . S
C2758 C2759 1.370 . S
C2758 C2762 1.524 . S
C2759 C2751 1.503 . S
C2759 C2758 1.370 . S
C2759 C2760 1.403 . S
C2760 C2759 1.403 . S
C2760 C2761 1.404 . S
C2760 C2763 1.539 . S
C2761 C2757 1.408 . S
C2761 C2760 1.404 . S
C2761 H2773 0.930 . S
C2762 C2758 1.524 . S
C2762 H2774 0.956 . S
C2762 H2775 0.961 . S
C2762 H2776 0.961 . S
C2763 C2760 1.539 . S
C2763 H2777 0.958 . S
C2763 H2778 0.961 . S
C2763 H2779 0.960 . S
H2764 C2748 0.931 . S
H2765 C2753 0.929 . S
H2766 C2754 0.960 . S
H2767 C2754 0.962 . S
H2768 C2754 0.960 . S
H2769 C2755 0.961 . S
H2770 C2755 0.961 . S
H2771 C2755 0.961 . S
H2772 C2756 0.931 . S
H2773 C2761 0.930 . S
H2774 C2762 0.956 . S
H2775 C2762 0.961 . S
H2776 C2762 0.961 . S
H2777 C2763 0.958 . S
H2778 C2763 0.961 . S
H2779 C2763 0.960 . S
C2780 C2781 1.391 . S
C2780 C2782 1.394 . S
C2780 H2796 0.931 . S
C2781 C2780 1.391 . S
C2781 C2785 1.376 . S
C2782 C2780 1.394 . S
C2782 C2783 1.369 . S
C2782 C2786 1.531 . S
C2783 C2782 1.369 . S
C2783 C2784 1.410 . S
C2783 C2791 1.503 . S
C2784 C2783 1.410 . S
C2784 C2785 1.392 . S
C2784 C2787 1.511 . S
C2785 C2781 1.376 . S
C2785 C2784 1.392 . S
C2785 H2797 0.929 . S
C2786 C2782 1.531 . S
C2786 H2798 0.960 . S
C2786 H2799 0.962 . S
C2786 H2800 0.960 . S
C2787 C2784 1.511 . S
C2787 H2801 0.961 . S
C2787 H2802 0.961 . S
C2787 H2803 0.961 . S
C2788 C2789 1.370 . S
C2788 C2790 1.363 . S
C2788 H2804 0.931 . S
C2789 C2788 1.370 . S
C2789 C2793 1.408 . S
C2790 C2788 1.363 . S
C2790 C2791 1.370 . S
C2790 C2794 1.524 . S
C2791 C2783 1.503 . S
C2791 C2790 1.370 . S
C2791 C2792 1.403 . S
C2792 C2791 1.403 . S
C2792 C2793 1.404 . S
C2792 C2795 1.539 . S
C2793 C2789 1.408 . S
C2793 C2792 1.404 . S
C2793 H2805 0.930 . S
C2794 C2790 1.524 . S
C2794 H2806 0.956 . S
C2794 H2807 0.961 . S
C2794 H2808 0.961 . S
C2795 C2792 1.539 . S
C2795 H2809 0.958 . S
C2795 H2810 0.961 . S
C2795 H2811 0.960 . S
H2796 C2780 0.931 . S
H2797 C2785 0.929 . S
H2798 C2786 0.960 . S
H2799 C2786 0.962 . S
H2800 C2786 0.960 . S
H2801 C2787 0.961 . S
H2802 C2787 0.961 . S
H2803 C2787 0.961 . S
H2804 C2788 0.931 . S
H2805 C2793 0.930 . S
H2806 C2794 0.956 . S
H2807 C2794 0.961 . S
H2808 C2794 0.961 . S
H2809 C2795 0.958 . S
H2810 C2795 0.961 . S
H2811 C2795 0.960 . S
C2812 C2813 1.391 . S
C2812 C2814 1.394 . S
C2812 H2828 0.931 . S
C2813 C2812 1.391 . S
C2813 C2817 1.376 . S
C2814 C2812 1.394 . S
C2814 C2815 1.369 . S
C2814 C2818 1.531 . S
C2815 C2814 1.369 . S
C2815 C2816 1.410 . S
C2815 C2823 1.503 . S
C2816 C2815 1.410 . S
C2816 C2817 1.392 . S
C2816 C2819 1.511 . S
C2817 C2813 1.376 . S
C2817 C2816 1.392 . S
C2817 H2829 0.929 . S
C2818 C2814 1.531 . S
C2818 H2830 0.960 . S
C2818 H2831 0.962 . S
C2818 H2832 0.960 . S
C2819 C2816 1.511 . S
C2819 H2833 0.961 . S
C2819 H2834 0.961 . S
C2819 H2835 0.961 . S
C2820 C2821 1.370 . S
C2820 C2822 1.363 . S
C2820 H2836 0.931 . S
C2821 C2820 1.370 . S
C2821 C2825 1.408 . S
C2822 C2820 1.363 . S
C2822 C2823 1.370 . S
C2822 C2826 1.524 . S
C2823 C2815 1.503 . S
C2823 C2822 1.370 . S
C2823 C2824 1.403 . S
C2824 C2823 1.403 . S
C2824 C2825 1.404 . S
C2824 C2827 1.539 . S
C2825 C2821 1.408 . S
C2825 C2824 1.404 . S
C2825 H2837 0.930 . S
C2826 C2822 1.524 . S
C2826 H2838 0.956 . S
C2826 H2839 0.961 . S
C2826 H2840 0.961 . S
C2827 C2824 1.539 . S
C2827 H2841 0.958 . S
C2827 H2842 0.961 . S
C2827 H2843 0.960 . S
H2828 C2812 0.931 . S
H2829 C2817 0.929 . S
H2830 C2818 0.960 . S
H2831 C2818 0.962 . S
H2832 C2818 0.960 . S
H2833 C2819 0.961 . S
H2834 C2819 0.961 . S
H2835 C2819 0.961 . S
H2836 C2820 0.931 . S
H2837 C2825 0.930 . S
H2838 C2826 0.956 . S
H2839 C2826 0.961 . S
H2840 C2826 0.961 . S
H2841 C2827 0.958 . S
H2842 C2827 0.961 . S
H2843 C2827 0.960 . S
C2844 C2845 1.391 . S
C2844 C2846 1.394 . S
C2844 H2860 0.931 . S
C2845 C2844 1.391 . S
C2845 C2849 1.376 . S
C2846 C2844 1.394 . S
C2846 C2847 1.369 . S
C2846 C2850 1.531 . S
C2847 C2846 1.369 . S
C2847 C2848 1.410 . S
C2847 C2855 1.503 . S
C2848 C2847 1.410 . S
C2848 C2849 1.392 . S
C2848 C2851 1.511 . S
C2849 C2845 1.376 . S
C2849 C2848 1.392 . S
C2849 H2861 0.929 . S
C2850 C2846 1.531 . S
C2850 H2862 0.960 . S
C2850 H2863 0.962 . S
C2850 H2864 0.960 . S
C2851 C2848 1.511 . S
C2851 H2865 0.961 . S
C2851 H2866 0.961 . S
C2851 H2867 0.961 . S
C2852 C2853 1.370 . S
C2852 C2854 1.363 . S
C2852 H2868 0.931 . S
C2853 C2852 1.370 . S
C2853 C2857 1.408 . S
C2854 C2852 1.363 . S
C2854 C2855 1.370 . S
C2854 C2858 1.524 . S
C2855 C2847 1.503 . S
C2855 C2854 1.370 . S
C2855 C2856 1.403 . S
C2856 C2855 1.403 . S
C2856 C2857 1.404 . S
C2856 C2859 1.539 . S
C2857 C2853 1.408 . S
C2857 C2856 1.404 . S
C2857 H2869 0.930 . S
C2858 C2854 1.524 . S
C2858 H2870 0.956 . S
C2858 H2871 0.961 . S
C2858 H2872 0.961 . S
C2859 C2856 1.539 . S
C2859 H2873 0.958 . S
C2859 H2874 0.961 . S
C2859 H2875 0.960 . S
H2860 C2844 0.931 . S
H2861 C2849 0.929 . S
H2862 C2850 0.960 . S
H2863 C2850 0.962 . S
H2864 C2850 0.960 . S
H2865 C2851 0.961 . S
H2866 C2851 0.961 . S
H2867 C2851 0.961 . S
H2868 C2852 0.931 . S
H2869 C2857 0.930 . S
H2870 C2858 0.956 . S
H2871 C2858 0.961 . S
H2872 C2858 0.961 . S
H2873 C2859 0.958 . S
H2874 C2859 0.961 . S
H2875 C2859 0.960 . S
C2876 C2877 1.391 . S
C2876 C2878 1.394 . S
C2876 H2892 0.931 . S
C2877 C2876 1.391 . S
C2877 C2881 1.376 . S
C2878 C2876 1.394 . S
C2878 C2879 1.369 . S
C2878 C2882 1.531 . S
C2879 C2878 1.369 . S
C2879 C2880 1.410 . S
C2879 C2887 1.503 . S
C2880 C2879 1.410 . S
C2880 C2881 1.392 . S
C2880 C2883 1.511 . S
C2881 C2877 1.376 . S
C2881 C2880 1.392 . S
C2881 H2893 0.929 . S
C2882 C2878 1.531 . S
C2882 H2894 0.960 . S
C2882 H2895 0.962 . S
C2882 H2896 0.960 . S
C2883 C2880 1.511 . S
C2883 H2897 0.961 . S
C2883 H2898 0.961 . S
C2883 H2899 0.961 . S
C2884 C2885 1.370 . S
C2884 C2886 1.363 . S
C2884 H2900 0.931 . S
C2885 C2884 1.370 . S
C2885 C2889 1.408 . S
C2886 C2884 1.363 . S
C2886 C2887 1.370 . S
C2886 C2890 1.524 . S
C2887 C2879 1.503 . S
C2887 C2886 1.370 . S
C2887 C2888 1.403 . S
C2888 C2887 1.403 . S
C2888 C2889 1.404 . S
C2888 C2891 1.539 . S
C2889 C2885 1.408 . S
C2889 C2888 1.404 . S
C2889 H2901 0.930 . S
C2890 C2886 1.524 . S
C2890 H2902 0.956 . S
C2890 H2903 0.961 . S
C2890 H2904 0.961 . S
C2891 C2888 1.539 . S
C2891 H2905 0.958 . S
C2891 H2906 0.961 . S
C2891 H2907 0.960 . S
H2892 C2876 0.931 . S
H2893 C2881 0.929 . S
H2894 C2882 0.960 . S
H2895 C2882 0.962 . S
H2896 C2882 0.960 . S
H2897 C2883 0.961 . S
H2898 C2883 0.961 . S
H2899 C2883 0.961 . S
H2900 C2884 0.931 . S
H2901 C2889 0.930 . S
H2902 C2890 0.956 . S
H2903 C2890 0.961 . S
H2904 C2890 0.961 . S
H2905 C2891 0.958 . S
H2906 C2891 0.961 . S
H2907 C2891 0.960 . S
C2908 C2909 1.391 . S
C2908 C2910 1.394 . S
C2908 H2924 0.931 . S
C2909 C2908 1.391 . S
C2909 C2913 1.376 . S
C2910 C2908 1.394 . S
C2910 C2911 1.369 . S
C2910 C2914 1.531 . S
C2911 C2910 1.369 . S
C2911 C2912 1.410 . S
C2911 C2919 1.503 . S
C2912 C2911 1.410 . S
C2912 C2913 1.392 . S
C2912 C2915 1.511 . S
C2913 C2909 1.376 . S
C2913 C2912 1.392 . S
C2913 H2925 0.929 . S
C2914 C2910 1.531 . S
C2914 H2926 0.960 . S
C2914 H2927 0.962 . S
C2914 H2928 0.960 . S
C2915 C2912 1.511 . S
C2915 H2929 0.961 . S
C2915 H2930 0.961 . S
C2915 H2931 0.961 . S
C2916 C2917 1.370 . S
C2916 C2918 1.363 . S
C2916 H2932 0.931 . S
C2917 C2916 1.370 . S
C2917 C2921 1.408 . S
C2918 C2916 1.363 . S
C2918 C2919 1.370 . S
C2918 C2922 1.524 . S
C2919 C2911 1.503 . S
C2919 C2918 1.370 . S
C2919 C2920 1.403 . S
C2920 C2919 1.403 . S
C2920 C2921 1.404 . S
C2920 C2923 1.539 . S
C2921 C2917 1.408 . S
C2921 C2920 1.404 . S
C2921 H2933 0.930 . S
C2922 C2918 1.524 . S
C2922 H2934 0.956 . S
C2922 H2935 0.961 . S
C2922 H2936 0.961 . S
C2923 C2920 1.539 . S
C2923 H2937 0.958 . S
C2923 H2938 0.961 . S
C2923 H2939 0.960 . S
H2924 C2908 0.931 . S
H2925 C2913 0.929 . S
H2926 C2914 0.960 . S
H2927 C2914 0.962 . S
H2928 C2914 0.960 . S
H2929 C2915 0.961 . S
H2930 C2915 0.961 . S
H2931 C2915 0.961 . S
H2932 C2916 0.931 . S
H2933 C2921 0.930 . S
H2934 C2922 0.956 . S
H2935 C2922 0.961 . S
H2936 C2922 0.961 . S
H2937 C2923 0.958 . S
H2938 C2923 0.961 . S
H2939 C2923 0.960 . S
C2940 C2941 1.391 . S
C2940 C2942 1.394 . S
C2940 H2956 0.931 . S
C2941 C2940 1.391 . S
C2941 C2945 1.376 . S
C2942 C2940 1.394 . S
C2942 C2943 1.369 . S
C2942 C2946 1.531 . S
C2943 C2942 1.369 . S
C2943 C2944 1.410 . S
C2943 C2951 1.503 . S
C2944 C2943 1.410 . S
C2944 C2945 1.392 . S
C2944 C2947 1.511 . S
C2945 C2941 1.376 . S
C2945 C2944 1.392 . S
C2945 H2957 0.929 . S
C2946 C2942 1.531 . S
C2946 H2958 0.960 . S
C2946 H2959 0.962 . S
C2946 H2960 0.960 . S
C2947 C2944 1.511 . S
C2947 H2961 0.961 . S
C2947 H2962 0.961 . S
C2947 H2963 0.961 . S
C2948 C2949 1.370 . S
C2948 C2950 1.363 . S
C2948 H2964 0.931 . S
C2949 C2948 1.370 . S
C2949 C2953 1.408 . S
C2950 C2948 1.363 . S
C2950 C2951 1.370 . S
C2950 C2954 1.524 . S
C2951 C2943 1.503 . S
C2951 C2950 1.370 . S
C2951 C2952 1.403 . S
C2952 C2951 1.403 . S
C2952 C2953 1.404 . S
C2952 C2955 1.539 . S
C2953 C2949 1.408 . S
C2953 C2952 1.404 . S
C2953 H2965 0.930 . S
C2954 C2950 1.524 . S
C2954 H2966 0.956 . S
C2954 H2967 0.961 . S
C2954 H2968 0.961 . S
C2955 C2952 1.539 . S
C2955 H2969 0.958 . S
C2955 H2970 0.961 . S
C2955 H2971 0.960 . S
H2956 C2940 0.931 . S
H2957 C2945 0.929 . S
H2958 C2946 0.960 . S
H2959 C2946 0.962 . S
H2960 C2946 0.960 . S
H2961 C2947 0.961 . S
H2962 C2947 0.961 . S
H2963 C2947 0.961 . S
H2964 C2948 0.931 . S
H2965 C2953 0.930 . S
H2966 C2954 0.956 . S
H2967 C2954 0.961 . S
H2968 C2954 0.961 . S
H2969 C2955 0.958 . S
H2970 C2955 0.961 . S
H2971 C2955 0.960 . S
C2972 C2973 1.391 . S
C2972 C2974 1.394 . S
C2972 H2988 0.931 . S
C2973 C2972 1.391 . S
C2973 C2977 1.376 . S
C2974 C2972 1.394 . S
C2974 C2975 1.369 . S
C2974 C2978 1.531 . S
C2975 C2974 1.369 . S
C2975 C2976 1.410 . S
C2975 C2983 1.503 . S
C2976 C2975 1.410 . S
C2976 C2977 1.392 . S
C2976 C2979 1.511 . S
C2977 C2973 1.376 . S
C2977 C2976 1.392 . S
C2977 H2989 0.929 . S
C2978 C2974 1.531 . S
C2978 H2990 0.960 . S
C2978 H2991 0.962 . S
C2978 H2992 0.960 . S
C2979 C2976 1.511 . S
C2979 H2993 0.961 . S
C2979 H2994 0.961 . S
C2979 H2995 0.961 . S
C2980 C2981 1.370 . S
C2980 C2982 1.363 . S
C2980 H2996 0.931 . S
C2981 C2980 1.370 . S
C2981 C2985 1.408 . S
C2982 C2980 1.363 . S
C2982 C2983 1.370 . S
C2982 C2986 1.524 . S
C2983 C2975 1.503 . S
C2983 C2982 1.370 . S
C2983 C2984 1.403 . S
C2984 C2983 1.403 . S
C2984 C2985 1.404 . S
C2984 C2987 1.539 . S
C2985 C2981 1.408 . S
C2985 C2984 1.404 . S
C2985 H2997 0.930 . S
C2986 C2982 1.524 . S
C2986 H2998 0.956 . S
C2986 H2999 0.961 . S
C2986 H3000 0.961 . S
C2987 C2984 1.539 . S
C2987 H3001 0.958 . S
C2987 H3002 0.961 . S
C2987 H3003 0.960 . S
H2988 C2972 0.931 . S
H2989 C2977 0.929 . S
H2990 C2978 0.960 . S
H2991 C2978 0.962 . S
H2992 C2978 0.960 . S
H2993 C2979 0.961 . S
H2994 C2979 0.961 . S
H2995 C2979 0.961 . S
H2996 C2980 0.931 . S
H2997 C2985 0.930 . S
H2998 C2986 0.956 . S
H2999 C2986 0.961 . S
H3000 C2986 0.961 . S
H3001 C2987 0.958 . S
H3002 C2987 0.961 . S
H3003 C2987 0.960 . S
C3004 C3005 1.391 . S
C3004 C3006 1.394 . S
C3004 H3020 0.931 . S
C3005 C3004 1.391 . S
C3005 C3009 1.376 . S
C3006 C3004 1.394 . S
C3006 C3007 1.369 . S
C3006 C3010 1.531 . S
C3007 C3006 1.369 . S
C3007 C3008 1.410 . S
C3007 C3015 1.503 . S
C3008 C3007 1.410 . S
C3008 C3009 1.392 . S
C3008 C3011 1.511 . S
C3009 C3005 1.376 . S
C3009 C3008 1.392 . S
C3009 H3021 0.929 . S
C3010 C3006 1.531 . S
C3010 H3022 0.960 . S
C3010 H3023 0.962 . S
C3010 H3024 0.960 . S
C3011 C3008 1.511 . S
C3011 H3025 0.961 . S
C3011 H3026 0.961 . S
C3011 H3027 0.961 . S
C3012 C3013 1.370 . S
C3012 C3014 1.363 . S
C3012 H3028 0.931 . S
C3013 C3012 1.370 . S
C3013 C3017 1.408 . S
C3014 C3012 1.363 . S
C3014 C3015 1.370 . S
C3014 C3018 1.524 . S
C3015 C3007 1.503 . S
C3015 C3014 1.370 . S
C3015 C3016 1.403 . S
C3016 C3015 1.403 . S
C3016 C3017 1.404 . S
C3016 C3019 1.539 . S
C3017 C3013 1.408 . S
C3017 C3016 1.404 . S
C3017 H3029 0.930 . S
C3018 C3014 1.524 . S
C3018 H3030 0.956 . S
C3018 H3031 0.961 . S
C3018 H3032 0.961 . S
C3019 C3016 1.539 . S
C3019 H3033 0.958 . S
C3019 H3034 0.961 . S
C3019 H3035 0.960 . S
H3020 C3004 0.931 . S
H3021 C3009 0.929 . S
H3022 C3010 0.960 . S
H3023 C3010 0.962 . S
H3024 C3010 0.960 . S
H3025 C3011 0.961 . S
H3026 C3011 0.961 . S
H3027 C3011 0.961 . S
H3028 C3012 0.931 . S
H3029 C3017 0.930 . S
H3030 C3018 0.956 . S
H3031 C3018 0.961 . S
H3032 C3018 0.961 . S
H3033 C3019 0.958 . S
H3034 C3019 0.961 . S
H3035 C3019 0.960 . S
C3036 C3037 1.391 . S
C3036 C3038 1.394 . S
C3036 H3052 0.931 . S
C3037 C3036 1.391 . S
C3037 C3041 1.376 . S
C3038 C3036 1.394 . S
C3038 C3039 1.369 . S
C3038 C3042 1.531 . S
C3039 C3038 1.369 . S
C3039 C3040 1.410 . S
C3039 C3047 1.503 . S
C3040 C3039 1.410 . S
C3040 C3041 1.392 . S
C3040 C3043 1.511 . S
C3041 C3037 1.376 . S
C3041 C3040 1.392 . S
C3041 H3053 0.929 . S
C3042 C3038 1.531 . S
C3042 H3054 0.960 . S
C3042 H3055 0.962 . S
C3042 H3056 0.960 . S
C3043 C3040 1.511 . S
C3043 H3057 0.961 . S
C3043 H3058 0.961 . S
C3043 H3059 0.961 . S
C3044 C3045 1.370 . S
C3044 C3046 1.363 . S
C3044 H3060 0.931 . S
C3045 C3044 1.370 . S
C3045 C3049 1.408 . S
C3046 C3044 1.363 . S
C3046 C3047 1.370 . S
C3046 C3050 1.524 . S
C3047 C3039 1.503 . S
C3047 C3046 1.370 . S
C3047 C3048 1.403 . S
C3048 C3047 1.403 . S
C3048 C3049 1.404 . S
C3048 C3051 1.539 . S
C3049 C3045 1.408 . S
C3049 C3048 1.404 . S
C3049 H3061 0.930 . S
C3050 C3046 1.524 . S
C3050 H3062 0.956 . S
C3050 H3063 0.961 . S
C3050 H3064 0.961 . S
C3051 C3048 1.539 . S
C3051 H3065 0.958 . S
C3051 H3066 0.961 . S
C3051 H3067 0.960 . S
H3052 C3036 0.931 . S
H3053 C3041 0.929 . S
H3054 C3042 0.960 . S
H3055 C3042 0.962 . S
H3056 C3042 0.960 . S
H3057 C3043 0.961 . S
H3058 C3043 0.961 . S
H3059 C3043 0.961 . S
H3060 C3044 0.931 . S
H3061 C3049 0.930 . S
H3062 C3050 0.956 . S
H3063 C3050 0.961 . S
H3064 C3050 0.961 . S
H3065 C3051 0.958 . S
H3066 C3051 0.961 . S
H3067 C3051 0.960 . S
C3068 C3069 1.391 . S
C3068 C3070 1.394 . S
C3068 H3084 0.931 . S
C3069 C3068 1.391 . S
C3069 C3073 1.376 . S
C3070 C3068 1.394 . S
C3070 C3071 1.369 . S
C3070 C3074 1.531 . S
C3071 C3070 1.369 . S
C3071 C3072 1.410 . S
C3071 C3079 1.503 . S
C3072 C3071 1.410 . S
C3072 C3073 1.392 . S
C3072 C3075 1.511 . S
C3073 C3069 1.376 . S
C3073 C3072 1.392 . S
C3073 H3085 0.929 . S
C3074 C3070 1.531 . S
C3074 H3086 0.960 . S
C3074 H3087 0.962 . S
C3074 H3088 0.960 . S
C3075 C3072 1.511 . S
C3075 H3089 0.961 . S
C3075 H3090 0.961 . S
C3075 H3091 0.961 . S
C3076 C3077 1.370 . S
C3076 C3078 1.363 . S
C3076 H3092 0.931 . S
C3077 C3076 1.370 . S
C3077 C3081 1.408 . S
C3078 C3076 1.363 . S
C3078 C3079 1.370 . S
C3078 C3082 1.524 . S
C3079 C3071 1.503 . S
C3079 C3078 1.370 . S
C3079 C3080 1.403 . S
C3080 C3079 1.403 . S
C3080 C3081 1.404 . S
C3080 C3083 1.539 . S
C3081 C3077 1.408 . S
C3081 C3080 1.404 . S
C3081 H3093 0.930 . S
C3082 C3078 1.524 . S
C3082 H3094 0.956 . S
C3082 H3095 0.961 . S
C3082 H3096 0.961 . S
C3083 C3080 1.539 . S
C3083 H3097 0.958 . S
C3083 H3098 0.961 . S
C3083 H3099 0.960 . S
H3084 C3068 0.931 . S
H3085 C3073 0.929 . S
H3086 C3074 0.960 . S
H3087 C3074 0.962 . S
H3088 C3074 0.960 . S
H3089 C3075 0.961 . S
H3090 C3075 0.961 . S
H3091 C3075 0.961 . S
H3092 C3076 0.931 . S
H3093 C3081 0.930 . S
H3094 C3082 0.956 . S
H3095 C3082 0.961 . S
H3096 C3082 0.961 . S
H3097 C3083 0.958 . S
H3098 C3083 0.961 . S
H3099 C3083 0.960 . S
C3100 C3101 1.391 . S
C3100 C3102 1.394 . S
C3100 H3116 0.931 . S
C3101 C3100 1.391 . S
C3101 C3105 1.376 . S
C3102 C3100 1.394 . S
C3102 C3103 1.369 . S
C3102 C3106 1.531 . S
C3103 C3102 1.369 . S
C3103 C3104 1.410 . S
C3103 C3111 1.503 . S
C3104 C3103 1.410 . S
C3104 C3105 1.392 . S
C3104 C3107 1.511 . S
C3105 C3101 1.376 . S
C3105 C3104 1.392 . S
C3105 H3117 0.929 . S
C3106 C3102 1.531 . S
C3106 H3118 0.960 . S
C3106 H3119 0.962 . S
C3106 H3120 0.960 . S
C3107 C3104 1.511 . S
C3107 H3121 0.961 . S
C3107 H3122 0.961 . S
C3107 H3123 0.961 . S
C3108 C3109 1.370 . S
C3108 C3110 1.363 . S
C3108 H3124 0.931 . S
C3109 C3108 1.370 . S
C3109 C3113 1.408 . S
C3110 C3108 1.363 . S
C3110 C3111 1.370 . S
C3110 C3114 1.524 . S
C3111 C3103 1.503 . S
C3111 C3110 1.370 . S
C3111 C3112 1.403 . S
C3112 C3111 1.403 . S
C3112 C3113 1.404 . S
C3112 C3115 1.539 . S
C3113 C3109 1.408 . S
C3113 C3112 1.404 . S
C3113 H3125 0.930 . S
C3114 C3110 1.524 . S
C3114 H3126 0.956 . S
C3114 H3127 0.961 . S
C3114 H3128 0.961 . S
C3115 C3112 1.539 . S
C3115 H3129 0.958 . S
C3115 H3130 0.961 . S
C3115 H3131 0.960 . S
H3116 C3100 0.931 . S
H3117 C3105 0.929 . S
H3118 C3106 0.960 . S
H3119 C3106 0.962 . S
H3120 C3106 0.960 . S
H3121 C3107 0.961 . S
H3122 C3107 0.961 . S
H3123 C3107 0.961 . S
H3124 C3108 0.931 . S
H3125 C3113 0.930 . S
H3126 C3114 0.956 . S
H3127 C3114 0.961 . S
H3128 C3114 0.961 . S
H3129 C3115 0.958 . S
H3130 C3115 0.961 . S
H3131 C3115 0.960 . S
C1405 C469 1.437 . S
C1413 C715 1.370 . S
C1437 C505 1.462 . S
C1445 C799 1.405 . S
C1469 C433 1.480 . S
C1477 C879 1.431 . S
C1501 C397 1.428 . S
C1509 C795 1.402 . S
C1541 C883 1.325 . S
C1533 C325 1.400 . S
C1565 C361 1.415 . S
C1573 C711 1.377 . S
C1605 C704 1.362 . S
C1597 C421 1.436 . S
C1637 C788 1.378 . S
C1629 C349 1.455 . S
C1661 C385 1.484 . S
C1669 C890 1.439 . S
C1693 C493 1.432 . S
C1701 C806 1.403 . S
C1725 C529 1.397 . S
C1733 C872 1.319 . S
C1765 C722 1.362 . S
C1757 C457 1.413 . S
C1797 C967 1.379 . S
C1789 C37 1.440 . S
C1821 C73 1.467 . S
C1829 C1051 1.380 . S
C1853 C1 1.472 . S
C1861 C1131 1.445 . S
C1885 C613 1.427 . S
C1893 C1047 1.403 . S
C1917 C541 1.397 . S
C1925 C1135 1.340 . S
C1949 C577 1.417 . S
C1957 C963 1.374 . S
C1981 C637 1.448 . S
C1989 C956 1.380 . S
C2013 C565 1.455 . S
C2021 C1040 1.378 . S
C2053 C1142 1.434 . S
C2045 C601 1.486 . S
C2077 C61 1.437 . S
C2085 C1058 1.395 . S
C2117 C1124 1.325 . S
C2109 C97 1.399 . S
C2141 C25 1.426 . S
C2149 C974 1.368 . S
C2181 C1219 1.360 . S
C2173 C253 1.446 . S
C2205 C289 1.463 . S
C2213 C1303 1.405 . S
C2245 C1383 1.422 . S
C2237 C217 1.484 . S
C2277 C1299 1.397 . S
C2269 C181 1.430 . S
C2309 C1387 1.309 . S
C2301 C109 1.403 . S
C2333 C145 1.412 . S
C2341 C1215 1.381 . S
C2365 C205 1.436 . S
C2373 C1208 1.349 . S
C2397 C133 1.463 . S
C2405 C1292 1.397 . S
C2437 C1394 1.442 . S
C2429 C169 1.481 . S
C2461 C277 1.435 . S
C2469 C1310 1.400 . S
C2493 C313 1.402 . S
C2501 C1376 1.332 . S
C2525 C241 1.422 . S
C2533 C1226 1.380 . S
C2557 C571 1.441 . S
C2565 C718 1.335 . S
C2597 C802 1.381 . S
C2589 C607 1.510 . S
C2621 C643 1.467 . S
C2629 C874 1.349 . S
C2653 C247 1.506 . S
C2661 C790 1.349 . S
C2685 C283 1.463 . S
C2693 C886 1.319 . S
C2725 C706 1.313 . S
C2717 C319 1.433 . S
C2749 C139 1.448 . S
C2757 C970 1.341 . S
C2781 C175 1.502 . S
C2789 C1054 1.340 . S
C2813 C211 1.475 . S
C2821 C1126 1.342 . S
C2845 C463 1.503 . S
C2853 C1042 1.339 . S
C2885 C1138 1.361 . S
C2877 C499 1.476 . S
C2909 C535 1.448 . S
C2917 C958 1.351 . S
C2941 C355 1.436 . S
C2949 C1222 1.325 . S
C2973 C391 1.509 . S
C2981 C1306 1.379 . S
C3013 C1378 1.338 . S
C3005 C427 1.464 . S
C3037 C31 1.503 . S
C3045 C1294 1.364 . S
C3069 C67 1.473 . S
C3077 C1390 1.356 . S
C3101 C103 1.451 . S
C3109 C1210 1.352 . S
