# Generated by pormake.
# Topology pto, (3,4)-cn, num edge types: 1
# Building blocks:
#     Node 0, Type 0, BuildingBlock: QEWDON_clean_linker_0, # of connection points: 3
#     Node 1, Type 0, BuildingBlock: QEWDON_clean_linker_0, # of connection points: 3
#     Node 2, Type 0, BuildingBlock: QEWDON_clean_linker_0, # of connection points: 3
#     Node 3, Type 0, BuildingBlock: QEWDON_clean_linker_0, # of connection points: 3
#     Node 4, Type 0, BuildingBlock: QEWDON_clean_linker_0, # of connection points: 3
#     Node 5, Type 0, BuildingBlock: QEWDON_clean_linker_0, # of connection points: 3
#     Node 6, Type 0, BuildingBlock: QEWDON_clean_linker_0, # of connection points: 3
#     Node 7, Type 0, BuildingBlock: QEWDON_clean_linker_0, # of connection points: 3
#     Node 8, Type 1, BuildingBlock: KOZSID_clean_sbu_0, # of connection points: 4
#     Node 9, Type 1, BuildingBlock: KOZSID_clean_sbu_0, # of connection points: 4
#     Node 10, Type 1, BuildingBlock: KOZSID_clean_sbu_0, # of connection points: 4
#     Node 11, Type 1, BuildingBlock: KOZSID_clean_sbu_0, # of connection points: 4
#     Node 12, Type 1, BuildingBlock: KOZSID_clean_sbu_0, # of connection points: 4
#     Node 13, Type 1, BuildingBlock: KOZSID_clean_sbu_0, # of connection points: 4
#     Edge 14, Type (0, 1), BuildingBlock: AJUNOK_clean_linker_0, # of connection points: 2
#     Edge 15, Type (0, 1), BuildingBlock: AJUNOK_clean_linker_0, # of connection points: 2
#     Edge 16, Type (0, 1), BuildingBlock: AJUNOK_clean_linker_0, # of connection points: 2
#     Edge 17, Type (0, 1), BuildingBlock: AJUNOK_clean_linker_0, # of connection points: 2
#     Edge 18, Type (0, 1), BuildingBlock: AJUNOK_clean_linker_0, # of connection points: 2
#     Edge 19, Type (0, 1), BuildingBlock: AJUNOK_clean_linker_0, # of connection points: 2
#     Edge 20, Type (0, 1), BuildingBlock: AJUNOK_clean_linker_0, # of connection points: 2
#     Edge 21, Type (0, 1), BuildingBlock: AJUNOK_clean_linker_0, # of connection points: 2
#     Edge 22, Type (0, 1), BuildingBlock: AJUNOK_clean_linker_0, # of connection points: 2
#     Edge 23, Type (0, 1), BuildingBlock: AJUNOK_clean_linker_0, # of connection points: 2
#     Edge 24, Type (0, 1), BuildingBlock: AJUNOK_clean_linker_0, # of connection points: 2
#     Edge 25, Type (0, 1), BuildingBlock: AJUNOK_clean_linker_0, # of connection points: 2
#     Edge 26, Type (0, 1), BuildingBlock: AJUNOK_clean_linker_0, # of connection points: 2
#     Edge 27, Type (0, 1), BuildingBlock: AJUNOK_clean_linker_0, # of connection points: 2
#     Edge 28, Type (0, 1), BuildingBlock: AJUNOK_clean_linker_0, # of connection points: 2
#     Edge 29, Type (0, 1), BuildingBlock: AJUNOK_clean_linker_0, # of connection points: 2
#     Edge 30, Type (0, 1), BuildingBlock: AJUNOK_clean_linker_0, # of connection points: 2
#     Edge 31, Type (0, 1), BuildingBlock: AJUNOK_clean_linker_0, # of connection points: 2
#     Edge 32, Type (0, 1), BuildingBlock: AJUNOK_clean_linker_0, # of connection points: 2
#     Edge 33, Type (0, 1), BuildingBlock: AJUNOK_clean_linker_0, # of connection points: 2
#     Edge 34, Type (0, 1), BuildingBlock: AJUNOK_clean_linker_0, # of connection points: 2
#     Edge 35, Type (0, 1), BuildingBlock: AJUNOK_clean_linker_0, # of connection points: 2
#     Edge 36, Type (0, 1), BuildingBlock: AJUNOK_clean_linker_0, # of connection points: 2
#     Edge 37, Type (0, 1), BuildingBlock: AJUNOK_clean_linker_0, # of connection points: 2
# Relax obj value: 0.017
# Max RMSD: 0.202
# Mean RMSD: 0.076
data_MOF--net-pto--node1-KOZSID_clean_sbu_0--node2-QEWDON_clean_linker_0--edge1-AJUNOK_clean_linker_0
_symmetry_space_group_name_H-M    P1
_symmetry_Int_Tables_number       1
_symmetry_cell_setting            triclinic
loop_
_symmetry_equiv_pos_as_xyz
'x, y, z'
_cell_length_a     25.503885
_cell_length_b     39.814893
_cell_length_c     36.033395
_cell_angle_alpha  91.375443
_cell_angle_beta   109.71151
_cell_angle_gamma 105.11724
loop_
_atom_site_label
_atom_site_type_symbol
_atom_site_fract_x
_atom_site_fract_y
_atom_site_fract_z
_atom_type_partial_charge
H0 H 0.24097 0.28395 0.23558 0.0
C1 C 0.24468 0.26344 0.25473 0.0
C2 C 0.2734 0.2389 0.24971 0.0
C3 C 0.21874 0.26081 0.28346 0.0
H4 H 0.29206 0.1908 0.26642 0.0
C5 C 0.27447 0.21105 0.27327 0.0
C6 C 0.25041 0.20876 0.30359 0.0
C7 C 0.22527 0.23522 0.30918 0.0
C8 C 0.17672 0.28044 0.28305 0.0
H9 H 0.20805 0.23559 0.33278 0.0
C10 C 0.19334 0.31723 0.29104 0.0
C11 C 0.15237 0.33432 0.29324 0.0
C12 C 0.11878 0.26127 0.27589 0.0
H13 H 0.10511 0.23295 0.26947 0.0
C14 C 0.07803 0.27831 0.27703 0.0
H15 H 0.238 0.33223 0.29695 0.0
C16 C 0.0947 0.31461 0.28585 0.0
H17 H 0.06252 0.3274 0.28702 0.0
H18 H 0.03353 0.26331 0.27144 0.0
H19 H 0.26873 0.84973 0.74687 0.0
C20 C 0.24611 0.82208 0.74351 0.0
C21 C 0.27114 0.80031 0.76999 0.0
C22 C 0.19026 0.8085 0.71432 0.0
H23 H 0.25824 0.74863 0.78831 0.0
C24 C 0.24046 0.76489 0.76656 0.0
C25 C 0.18477 0.75111 0.73799 0.0
C26 C 0.16029 0.77289 0.71168 0.0
C27 C 0.15958 0.8318 0.68967 0.0
H28 H 0.1168 0.7623 0.68994 0.0
C29 C 0.18571 0.85578 0.66835 0.0
C30 C 0.15435 0.87674 0.6446 0.0
C31 C 0.10248 0.82959 0.68724 0.0
H32 H 0.08162 0.81185 0.70375 0.0
C33 C 0.07169 0.85035 0.66376 0.0
H34 H 0.22964 0.85789 0.66987 0.0
C35 C 0.09734 0.87369 0.64247 0.0
H36 H 0.07253 0.88937 0.62415 0.0
H37 H 0.02775 0.84831 0.66204 0.0
H38 H 0.9698 0.80067 0.43719 0.0
C39 C 0.94781 0.80983 0.40974 0.0
C40 C 0.94168 0.79254 0.37369 0.0
C41 C 0.92272 0.83727 0.41059 0.0
H42 H 0.90371 0.78803 0.31056 0.0
C43 C 0.91159 0.80335 0.33813 0.0
C44 C 0.89114 0.83301 0.33787 0.0
C45 C 0.89652 0.84974 0.37462 0.0
C46 C 0.91898 0.84966 0.44873 0.0
H47 H 0.87852 0.87146 0.37524 0.0
C48 C 0.92906 0.88548 0.46099 0.0
C49 C 0.92712 0.89576 0.49814 0.0
C50 C 0.90482 0.82463 0.47344 0.0
H51 H 0.89505 0.79687 0.46446 0.0
C52 C 0.90248 0.83487 0.50988 0.0
H53 H 0.93978 0.90519 0.44244 0.0
C54 C 0.91383 0.87018 0.52229 0.0
H55 H 0.91165 0.87759 0.55076 0.0
H56 H 0.8917 0.81534 0.52856 0.0
H57 H 0.85682 0.35405 0.94027 0.0
C58 C 0.86135 0.33411 0.92148 0.0
C59 C 0.87034 0.3423 0.88608 0.0
C60 C 0.86314 0.30132 0.93446 0.0
H61 H 0.88383 0.32282 0.83479 0.0
C62 C 0.87816 0.31675 0.86262 0.0
C63 C 0.88046 0.28389 0.87522 0.0
C64 C 0.87281 0.27625 0.9113 0.0
C65 C 0.86278 0.29568 0.97474 0.0
H66 H 0.87595 0.25133 0.92187 0.0
C67 C 0.81241 0.29309 0.98372 0.0
C68 C 0.81426 0.29285 0.02339 0.0
C69 C 0.915 0.29702 0.00533 0.0
H70 H 0.95433 0.29936 0.99897 0.0
C71 C 0.91759 0.29727 0.0446 0.0
H72 H 0.77212 0.29146 0.95967 0.0
C73 C 0.8681 0.29593 0.05372 0.0
H74 H 0.8727 0.29811 0.0847 0.0
H75 H 0.95852 0.29943 0.06822 0.0
H76 H 0.92567 0.81063 0.84402 0.0
C77 C 0.89403 0.81401 0.85661 0.0
C78 C 0.85749 0.78454 0.86518 0.0
C79 C 0.89138 0.84797 0.86536 0.0
H80 H 0.78955 0.76718 0.88959 0.0
C81 C 0.81764 0.78953 0.88244 0.0
C82 C 0.81561 0.82348 0.89208 0.0
C83 C 0.85202 0.85246 0.883 0.0
C84 C 0.93301 0.87911 0.85938 0.0
H85 H 0.85126 0.87869 0.89113 0.0
C86 C 0.91339 0.90565 0.83872 0.0
C87 C 0.95347 0.936 0.83513 0.0
C88 C 0.99299 0.88315 0.87603 0.0
H89 H 0.00907 0.86319 0.89232 0.0
C90 C 0.03279 0.91345 0.87274 0.0
H91 H 0.86718 0.90264 0.82536 0.0
C92 C 0.01322 0.93984 0.85255 0.0
H93 H 0.04468 0.963 0.84985 0.0
H94 H 0.07894 0.91648 0.8859 0.0
H95 H 0.97187 0.3614 0.42545 0.0
C96 C 0.92837 0.34896 0.40449 0.0
C97 C 0.8989 0.36893 0.37817 0.0
C98 C 0.90277 0.31297 0.40366 0.0
H99 H 0.82085 0.3676 0.32936 0.0
C100 C 0.84298 0.35261 0.35083 0.0
C101 C 0.81673 0.31662 0.34914 0.0
C102 C 0.84673 0.29677 0.37576 0.0
C103 C 0.93778 0.29247 0.42984 0.0
H104 H 0.82735 0.26883 0.37401 0.0
C105 C 0.91939 0.27372 0.45812 0.0
C106 C 0.95619 0.257 0.48467 0.0
C107 C 0.9925 0.29368 0.42809 0.0
H108 H 0.00759 0.30797 0.40668 0.0
C109 C 0.0284 0.27671 0.45402 0.0
H110 H 0.87759 0.27285 0.46009 0.0
C111 C 0.0105 0.25856 0.48225 0.0
H112 H 0.03913 0.24574 0.50234 0.0
H113 H 0.07045 0.27785 0.45242 0.0
H114 H 0.21409 0.27538 0.75492 0.0
C115 C 0.1901 0.29329 0.75842 0.0
C116 C 0.19481 0.30514 0.7969 0.0
C117 C 0.1572 0.3062 0.72492 0.0
H118 H 0.17348 0.34083 0.83163 0.0
C119 C 0.16761 0.33042 0.80194 0.0
C120 C 0.13413 0.34301 0.76898 0.0
C121 C 0.12745 0.32998 0.73075 0.0
C122 C 0.15782 0.29807 0.68432 0.0
H123 H 0.10117 0.33992 0.70557 0.0
C124 C 0.15851 0.26472 0.67045 0.0
C125 C 0.15812 0.25797 0.63164 0.0
C126 C 0.15827 0.32452 0.65898 0.0
H127 H 0.16008 0.35084 0.66882 0.0
C128 C 0.15722 0.31774 0.62063 0.0
H129 H 0.15803 0.24397 0.6893 0.0
C130 C 0.15686 0.28473 0.60695 0.0
H131 H 0.15676 0.28028 0.57713 0.0
H132 H 0.15718 0.33831 0.60153 0.0
H133 H 0.28284 0.89208 0.26121 0.0
C134 C 0.28092 0.86573 0.26882 0.0
C135 C 0.28034 0.85779 0.30651 0.0
C136 C 0.27645 0.83955 0.24009 0.0
H137 H 0.27249 0.81631 0.34351 0.0
C138 C 0.27427 0.82303 0.31489 0.0
C139 C 0.26779 0.7964 0.28607 0.0
C140 C 0.27069 0.80493 0.24909 0.0
C141 C 0.27244 0.84798 0.19957 0.0
H142 H 0.26449 0.78433 0.22647 0.0
C143 C 0.31023 0.84025 0.18204 0.0
C144 C 0.30765 0.84977 0.14414 0.0
C145 C 0.23108 0.8646 0.17856 0.0
H146 H 0.20125 0.87058 0.19136 0.0
C147 C 0.22775 0.87359 0.14084 0.0
H148 H 0.3424 0.82758 0.19824 0.0
C149 C 0.266 0.86653 0.12382 0.0
H150 H 0.26399 0.87509 0.0952 0.0
H151 H 0.19599 0.8866 0.12499 0.0
C152 C 0.2176 0.64012 0.35217 0.0
C153 C 0.26886 0.65861 0.38207 0.0
C154 C 0.26945 0.6434 0.41572 0.0
C155 C 0.21862 0.61668 0.40445 0.0
N156 N 0.18627 0.61335 0.36539 0.0
Co157 Co 0.10674 0.58049 0.33697 0.0
N158 N 0.10355 0.56132 0.38741 0.0
C159 C 0.14494 0.57095 0.42409 0.0
C160 C 0.13169 0.55164 0.4524 0.0
C161 C 0.07929 0.52774 0.43246 0.0
C162 C 0.06369 0.5339 0.39302 0.0
N163 N 0.02684 0.54805 0.30853 0.0
C164 C 0.99392 0.52232 0.32195 0.0
C165 C 0.9419 0.50474 0.29201 0.0
C166 C 0.94235 0.51955 0.25833 0.0
C167 C 0.9944 0.54516 0.26951 0.0
N168 N 0.11027 0.59927 0.28645 0.0
C169 C 0.06998 0.58882 0.24949 0.0
C170 C 0.08378 0.60778 0.22111 0.0
C171 C 0.13535 0.63232 0.24129 0.0
C172 C 0.14987 0.62683 0.2809 0.0
N173 N 0.14087 0.54318 0.32703 0.0
C174 C 0.17096 0.48113 0.31831 0.0
C175 C 0.1318 0.49131 0.28636 0.0
C176 C 0.1177 0.52232 0.29127 0.0
C177 C 0.19912 0.50415 0.35345 0.0
C178 C 0.18392 0.53503 0.357 0.0
N179 N 0.0723 0.61754 0.34711 0.0
C180 C 0.00857 0.65398 0.3228 0.0
C181 C 0.02843 0.67301 0.36039 0.0
C182 C 0.06918 0.66296 0.39151 0.0
C183 C 0.09056 0.63553 0.38424 0.0
C184 C 0.03071 0.62655 0.3169 0.0
H185 H 0.12225 0.6296 0.40909 0.0
H186 H 0.01429 0.61345 0.28747 0.0
H187 H 0.08597 0.52796 0.26625 0.0
H188 H 0.20586 0.55109 0.38483 0.0
C189 C 0.19746 0.59658 0.43039 0.0
C190 C 0.19812 0.65072 0.3126 0.0
C191 C 0.01235 0.51171 0.36167 0.0
C192 C 0.01663 0.56416 0.24333 0.0
H193 H 0.30128 0.68149 0.37999 0.0
H194 H 0.30172 0.65188 0.44527 0.0
H195 H 0.15793 0.55387 0.48352 0.0
H196 H 0.0559 0.5074 0.44518 0.0
H197 H 0.90809 0.48262 0.29388 0.0
H198 H 0.90984 0.51149 0.22881 0.0
H199 H 0.05791 0.60531 0.18987 0.0
H200 H 0.1584 0.65298 0.22874 0.0
H201 H 0.10942 0.47441 0.25838 0.0
H202 H 0.23109 0.49771 0.37861 0.0
H203 H 0.97714 0.66081 0.29764 0.0
H204 H 0.08465 0.67616 0.42144 0.0
C205 C 0.08349 0.6148 0.81419 0.0
C206 C 0.13758 0.63504 0.83987 0.0
C207 C 0.1443 0.62438 0.87644 0.0
C208 C 0.09415 0.59847 0.8712 0.0
N209 N 0.05587 0.5917 0.83332 0.0
Co210 Co 0.97675 0.55693 0.81288 0.0
N211 N 0.9867 0.54148 0.86676 0.0
C212 C 0.03182 0.55489 0.90112 0.0
C213 C 0.02756 0.53718 0.93266 0.0
C214 C 0.97757 0.51024 0.91725 0.0
C215 C 0.95439 0.51315 0.87712 0.0
N216 N 0.89789 0.52177 0.79266 0.0
C217 C 0.87505 0.49487 0.8102 0.0
C218 C 0.82116 0.4743 0.78491 0.0
C219 C 0.81004 0.48829 0.74981 0.0
C220 C 0.8577 0.51638 0.7556 0.0
N221 N 0.96662 0.57214 0.75887 0.0
C222 C 0.91943 0.56006 0.7253 0.0
C223 C 0.92492 0.57582 0.69287 0.0
C224 C 0.97859 0.59966 0.70661 0.0
C225 C 0.00268 0.59712 0.74682 0.0
N226 N 0.01077 0.52045 0.80077 0.0
C227 C 0.0525 0.46404 0.78719 0.0
C228 C 0.00491 0.47065 0.75821 0.0
C229 C 0.98478 0.49867 0.76562 0.0
C230 C 0.08105 0.48769 0.82197 0.0
C231 C 0.05967 0.51543 0.82809 0.0
N232 N 0.94275 0.59388 0.82503 0.0
C233 C 0.87448 0.62831 0.80388 0.0
C234 C 0.90313 0.65139 0.839 0.0
C235 C 0.95077 0.64456 0.86746 0.0
C236 C 0.9693 0.61586 0.86009 0.0
C237 C 0.89455 0.59984 0.79769 0.0
H238 H 0.00612 0.61266 0.88298 0.0
H239 H 0.87085 0.58347 0.77024 0.0
H240 H 0.94754 0.50189 0.74277 0.0
H241 H 0.08231 0.53183 0.85572 0.0
C242 C 0.08094 0.58092 0.90151 0.0
C243 C 0.05909 0.6198 0.77247 0.0
C244 C 0.90564 0.48622 0.84918 0.0
C245 C 0.87008 0.5345 0.72541 0.0
H246 H 0.16862 0.65588 0.83316 0.0
H247 H 0.18089 0.63479 0.90378 0.0
H248 H 0.05888 0.54195 0.96266 0.0
H249 H 0.96151 0.48964 0.9331 0.0
H250 H 0.79389 0.45073 0.79053 0.0
H251 H 0.77341 0.4778 0.72251 0.0
H252 H 0.89337 0.57089 0.66293 0.0
H253 H 0.9976 0.6173 0.68917 0.0
H254 H 0.98289 0.45424 0.72993 0.0
H255 H 0.11825 0.48396 0.84536 0.0
H256 H 0.83697 0.63235 0.78105 0.0
H257 H 0.97513 0.66196 0.89493 0.0
C258 C 0.26449 0.00985 0.55471 0.0
C259 C 0.31335 0.01364 0.58852 0.0
C260 C 0.35094 0.04574 0.59007 0.0
C261 C 0.32331 0.05957 0.55708 0.0
N262 N 0.27093 0.03814 0.53468 0.0
Co263 Co 0.21758 0.04776 0.48411 0.0
N264 N 0.28092 0.08555 0.47717 0.0
C265 C 0.33125 0.1025 0.50645 0.0
C266 C 0.36443 0.13014 0.49492 0.0
C267 C 0.33294 0.13097 0.45601 0.0
C268 C 0.28222 0.10326 0.44558 0.0
N269 N 0.16425 0.05702 0.43331 0.0
C270 C 0.17662 0.07347 0.40345 0.0
C271 C 0.12603 0.06955 0.37082 0.0
C272 C 0.08064 0.05216 0.38167 0.0
C273 C 0.10574 0.04548 0.41976 0.0
N274 N 0.15433 0.01042 0.49151 0.0
C275 C 0.09691 0.00549 0.47297 0.0
C276 C 0.06348 0.97701 0.48328 0.0
C277 C 0.10225 0.96331 0.51017 0.0
C278 C 0.15744 0.98437 0.51495 0.0
N279 N 0.19966 0.0826 0.51357 0.0
C280 C 0.17811 0.13393 0.55627 0.0
C281 C 0.18435 0.1393 0.51959 0.0
C282 C 0.19527 0.11351 0.49887 0.0
C283 C 0.18187 0.10206 0.57096 0.0
C284 C 0.19222 0.07662 0.54899 0.0
N285 N 0.23508 0.01302 0.45457 0.0
C286 C 0.20117 0.9641 0.40376 0.0
C287 C 0.25819 0.96324 0.41082 0.0
C288 C 0.30361 0.98779 0.4406 0.0
C289 C 0.29112 0.01256 0.46201 0.0
C290 C 0.1906 0.98893 0.42595 0.0
H291 H 0.3267 0.03128 0.48464 0.0
H292 H 0.14616 0.98862 0.41966 0.0
H293 H 0.2007 0.11887 0.47106 0.0
H294 H 0.19455 0.0522 0.56081 0.0
C295 C 0.34823 0.08976 0.54312 0.0
C296 C 0.21121 0.98052 0.54427 0.0
C297 C 0.23393 0.09706 0.40699 0.0
C298 C 0.0768 0.023 0.44036 0.0
H299 H 0.32092 0.99529 0.61002 0.0
H300 H 0.39404 0.05705 0.6119 0.0
H301 H 0.40658 0.14759 0.51262 0.0
H302 H 0.34557 0.15063 0.43808 0.0
H303 H 0.12206 0.07898 0.34237 0.0
H304 H 0.03499 0.04405 0.36331 0.0
H305 H 0.0167 0.96632 0.47105 0.0
H306 H 0.09119 0.94023 0.52429 0.0
H307 H 0.18197 0.16366 0.50729 0.0
H308 H 0.17655 0.09678 0.59903 0.0
H309 H 0.16472 0.94586 0.38087 0.0
H310 H 0.3483 0.98765 0.44764 0.0
C311 C 0.52505 0.87709 0.07793 0.0
C312 C 0.5212 0.90944 0.09018 0.0
C313 C 0.56993 0.93407 0.09 0.0
C314 C 0.60056 0.91556 0.07741 0.0
N315 N 0.57373 0.88086 0.0692 0.0
Co316 Co 0.60328 0.84493 0.0505 0.0
N317 N 0.65911 0.88084 0.03439 0.0
C318 C 0.67652 0.91558 0.04591 0.0
C319 C 0.71315 0.93387 0.02813 0.0
C320 C 0.71933 0.90904 0.00412 0.0
C321 C 0.68643 0.8768 0.00892 0.0
N322 N 0.63391 0.80916 0.03284 0.0
C323 C 0.66526 0.81128 0.0089 0.0
C324 C 0.67978 0.78037 0.0053 0.0
C325 C 0.65621 0.75817 0.02771 0.0
C326 C 0.62898 0.77673 0.04381 0.0
N327 N 0.54668 0.80865 0.06563 0.0
C328 C 0.54927 0.7758 0.07184 0.0
C329 C 0.5049 0.75681 0.08288 0.0
C330 C 0.47279 0.77925 0.0842 0.0
C331 C 0.49953 0.81082 0.07386 0.0
N332 N 0.54538 0.83997 0.99718 0.0
C333 C 0.46339 0.83307 0.92044 0.0
C334 C 0.47379 0.80344 0.93845 0.0
C335 C 0.51482 0.80744 0.97675 0.0
C336 C 0.49543 0.86622 0.94158 0.0
C337 C 0.53593 0.86909 0.97986 0.0
N338 N 0.66155 0.85008 0.10406 0.0
C339 C 0.68481 0.84664 0.17418 0.0
C340 C 0.74445 0.85413 0.18061 0.0
C341 C 0.76125 0.86136 0.14755 0.0
C342 C 0.71932 0.8576 0.10962 0.0
C343 C 0.64478 0.84605 0.13633 0.0
H344 H 0.73404 0.86083 0.08486 0.0
H345 H 0.6 0.84161 0.13331 0.0
H346 H 0.52175 0.78419 0.98989 0.0
H347 H 0.55977 0.89496 0.99536 0.0
C348 C 0.64909 0.93022 0.06699 0.0
C349 C 0.48398 0.84337 0.07772 0.0
C350 C 0.6846 0.84269 0.9911 0.0
C351 C 0.5899 0.76269 0.06272 0.0
H352 H 0.48697 0.91474 0.09862 0.0
H353 H 0.58065 0.96219 0.09688 0.0
H354 H 0.73091 0.96202 0.0307 0.0
H355 H 0.7449 0.91422 0.9852 0.0
H356 H 0.70476 0.77444 0.9883 0.0
H357 H 0.65675 0.73125 0.03048 0.0
H358 H 0.49643 0.72976 0.08877 0.0
H359 H 0.43509 0.77337 0.09299 0.0
H360 H 0.44971 0.77728 0.92328 0.0
H361 H 0.48961 0.88984 0.92858 0.0
H362 H 0.66824 0.84063 0.19793 0.0
H363 H 0.80629 0.86993 0.15025 0.0
C364 C 0.96912 0.06896 0.73993 0.0
C365 C 0.0221 0.06435 0.76328 0.0
C366 C 0.06299 0.08308 0.74934 0.0
C367 C 0.03301 0.09797 0.71837 0.0
N368 N 0.97578 0.09031 0.71206 0.0
Co369 Co 0.91713 0.10558 0.66874 0.0
N370 N 0.97869 0.14183 0.65777 0.0
C371 C 0.03569 0.14399 0.67083 0.0
C372 C 0.06819 0.17115 0.65837 0.0
C373 C 0.02934 0.18697 0.63532 0.0
C374 C 0.97487 0.16844 0.63506 0.0
N375 N 0.85862 0.12059 0.6251 0.0
C376 C 0.86489 0.14898 0.60514 0.0
C377 C 0.81201 0.14941 0.5772 0.0
C378 C 0.77162 0.11978 0.57888 0.0
C379 C 0.80177 0.10313 0.60787 0.0
N380 N 0.85549 0.06935 0.67992 0.0
C381 C 0.7989 0.05796 0.6567 0.0
C382 C 0.76629 0.03329 0.67218 0.0
C383 C 0.80476 0.0284 0.7072 0.0
C384 C 0.85897 0.05025 0.71093 0.0
N385 N 0.91437 0.13989 0.70747 0.0
C386 C 0.90975 0.18643 0.76542 0.0
C387 C 0.85908 0.16715 0.73459 0.0
C388 C 0.86226 0.14395 0.70627 0.0
C389 C 0.9629 0.18185 0.76641 0.0
C390 C 0.96432 0.15899 0.7369 0.0
N391 N 0.92019 0.07112 0.63026 0.0
C392 C 0.92629 0.01354 0.61486 0.0
C393 C 0.93174 0.02215 0.5787 0.0
C394 C 0.92918 0.05538 0.56798 0.0
C395 C 0.92367 0.0796 0.59434 0.0
C396 C 0.92055 0.03822 0.64001 0.0
H397 H 0.92301 0.10525 0.58579 0.0
H398 H 0.91726 0.03064 0.66766 0.0
H399 H 0.82229 0.12914 0.68359 0.0
H400 H 0.00594 0.15646 0.73837 0.0
C401 C 0.05806 0.12237 0.6978 0.0
C402 C 0.91312 0.04886 0.74181 0.0
C403 C 0.92048 0.1741 0.60879 0.0
C404 C 0.77688 0.0739 0.62317 0.0
H405 H 0.03043 0.0483 0.78719 0.0
H406 H 0.10917 0.08586 0.76075 0.0
H407 H 0.1147 0.17867 0.66577 0.0
H408 H 0.03987 0.20905 0.61967 0.0
H409 H 0.80369 0.16882 0.5572 0.0
H410 H 0.7255 0.11182 0.56172 0.0
H411 H 0.7199 0.02084 0.65988 0.0
H412 H 0.79443 0.01017 0.72725 0.0
H413 H 0.817 0.16997 0.73221 0.0
H414 H 0.0032 0.19529 0.79011 0.0
H415 H 0.92676 0.98779 0.62381 0.0
H416 H 0.9327 0.06279 0.54 0.0
C417 C 0.40562 0.29243 0.12097 0.0
C418 C 0.3889 0.32122 0.12979 0.0
C419 C 0.41096 0.3476 0.11056 0.0
C420 C 0.43991 0.33353 0.09121 0.0
N421 N 0.4374 0.30004 0.09725 0.0
Co422 Co 0.47403 0.26997 0.07595 0.0
N423 N 0.52879 0.31108 0.0661 0.0
C424 C 0.52295 0.34372 0.06421 0.0
C425 C 0.56945 0.36717 0.05925 0.0
C426 C 0.60631 0.34798 0.0575 0.0
C427 C 0.57977 0.31354 0.06084 0.0
N428 N 0.50986 0.23961 0.05443 0.0
C429 C 0.56093 0.24787 0.04828 0.0
C430 C 0.56731 0.2189 0.02981 0.0
C431 C 0.51859 0.19172 0.02459 0.0
C432 C 0.48501 0.20553 0.03978 0.0
N433 N 0.41924 0.22897 0.08567 0.0
C434 C 0.40384 0.19588 0.06825 0.0
C435 C 0.36487 0.17311 0.08118 0.0
C436 C 0.35524 0.19328 0.10831 0.0
C437 C 0.38906 0.22729 0.11037 0.0
N438 N 0.41818 0.26822 0.0222 0.0
C439 C 0.34187 0.27254 0.94624 0.0
C440 C 0.32215 0.26692 0.97819 0.0
C441 C 0.36084 0.26461 0.01579 0.0
C442 C 0.40015 0.27476 0.95304 0.0
C443 C 0.43736 0.2726 0.99097 0.0
N444 N 0.53027 0.27232 0.12948 0.0
C445 C 0.58606 0.24525 0.18178 0.0
C446 C 0.61347 0.27772 0.20566 0.0
C447 C 0.59843 0.30728 0.19035 0.0
C448 C 0.55689 0.30402 0.15254 0.0
C449 C 0.54431 0.24307 0.14384 0.0
H450 H 0.54689 0.32743 0.1418 0.0
H451 H 0.52366 0.21784 0.12599 0.0
H452 H 0.34475 0.26093 0.03997 0.0
H453 H 0.4822 0.27541 0.99512 0.0
C454 C 0.47947 0.35245 0.07473 0.0
C455 C 0.3888 0.25778 0.13381 0.0
C456 C 0.60147 0.28335 0.05629 0.0
C457 C 0.43464 0.18651 0.04598 0.0
H458 H 0.36382 0.32305 0.14833 0.0
H459 H 0.40876 0.37435 0.11231 0.0
H460 H 0.57714 0.3952 0.05897 0.0
H461 H 0.64797 0.35842 0.05434 0.0
H462 H 0.60294 0.21761 0.02048 0.0
H463 H 0.5095 0.16494 0.0121 0.0
H464 H 0.34745 0.14501 0.07319 0.0
H465 H 0.32658 0.1841 0.12458 0.0
H466 H 0.27777 0.26562 0.97464 0.0
H467 H 0.41731 0.27878 0.92927 0.0
H468 H 0.59669 0.22176 0.19235 0.0
H469 H 0.61963 0.33309 0.20712 0.0
C470 C 0.18313 0.39564 0.27771 0.0
C471 C 0.16848 0.37264 0.30395 0.0
C472 C 0.18684 0.43133 0.28353 0.0
C473 C 0.17686 0.44512 0.31607 0.0
H474 H 0.18848 0.38562 0.25141 0.0
H475 H 0.19555 0.448 0.26172 0.0
S476 S 0.1408 0.39573 0.39447 0.0
N477 N 0.14696 0.36616 0.36451 0.0
N478 N 0.15433 0.43309 0.37571 0.0
C479 C 0.16524 0.42259 0.34358 0.0
C480 C 0.16092 0.38635 0.33743 0.0
C481 C 0.09543 0.71189 0.74477 0.0
C482 C 0.14924 0.71572 0.74011 0.0
C483 C 0.06532 0.68022 0.75366 0.0
C484 C 0.08788 0.65135 0.75792 0.0
H485 H 0.07794 0.73406 0.74361 0.0
H486 H 0.0253 0.67867 0.75878 0.0
S487 S 0.2233 0.64643 0.74431 0.0
N488 N 0.22132 0.68702 0.73729 0.0
N489 N 0.1641 0.62729 0.75368 0.0
C490 C 0.13979 0.65411 0.75119 0.0
C491 C 0.1707 0.6864 0.74241 0.0
C492 C 0.92674 0.72968 0.3517 0.0
C493 C 0.96441 0.762 0.37283 0.0
C494 C 0.94763 0.70088 0.34871 0.0
C495 C 0.0071 0.70337 0.36652 0.0
H496 H 0.88073 0.72669 0.33724 0.0
H497 H 0.91692 0.67648 0.33214 0.0
S498 S 0.12381 0.78301 0.42399 0.0
N499 N 0.06369 0.79526 0.41146 0.0
N500 N 0.10352 0.74137 0.4055 0.0
C501 C 0.04516 0.73561 0.3881 0.0
C502 C 0.02368 0.76487 0.39129 0.0
C503 C 0.83664 0.39645 0.87357 0.0
C504 C 0.87847 0.37868 0.87585 0.0
C505 C 0.84509 0.43118 0.86452 0.0
C506 C 0.89563 0.44913 0.85761 0.0
H507 H 0.79721 0.38338 0.8787 0.0
H508 H 0.81227 0.4442 0.86327 0.0
S509 S 0.02029 0.41535 0.86385 0.0
N510 N 0.97362 0.38241 0.87306 0.0
N511 N 0.98907 0.4473 0.85585 0.0
C512 C 0.93802 0.43183 0.86062 0.0
C513 C 0.92949 0.39667 0.8697 0.0
C514 C 0.20142 0.16919 0.34332 0.0
C515 C 0.2468 0.17833 0.32791 0.0
C516 C 0.19866 0.14375 0.36909 0.0
C517 C 0.23739 0.12322 0.3779 0.0
H518 H 0.16713 0.18183 0.33596 0.0
H519 H 0.16546 0.1402 0.38225 0.0
S520 S 0.36196 0.13295 0.34402 0.0
N521 N 0.33314 0.16414 0.3251 0.0
N522 N 0.32074 0.11181 0.36776 0.0
C523 C 0.28089 0.13005 0.36105 0.0
C524 C 0.28689 0.15821 0.33719 0.0
C525 C 0.36998 0.79796 0.81273 0.0
C526 C 0.32545 0.81442 0.80493 0.0
C527 C 0.41569 0.80522 0.84958 0.0
C528 C 0.41845 0.82905 0.88015 0.0
H529 H 0.36808 0.77822 0.79071 0.0
H530 H 0.44828 0.7913 0.85456 0.0
S531 S 0.3127 0.87931 0.87447 0.0
N532 N 0.28752 0.85614 0.8303 0.0
N533 N 0.37303 0.86961 0.89973 0.0
C534 C 0.37536 0.84671 0.87215 0.0
C535 C 0.32897 0.83943 0.83451 0.0
C536 C 0.89714 0.95097 0.4953 0.0
C537 C 0.93803 0.93284 0.51288 0.0
C538 C 0.89797 0.98206 0.51524 0.0
C539 C 0.93993 0.99579 0.55311 0.0
H540 H 0.86175 0.93965 0.46758 0.0
H541 H 0.86319 0.99387 0.50237 0.0
S542 S 0.06214 0.9615 0.60827 0.0
N543 N 0.02509 0.93296 0.56798 0.0
N544 N 0.02805 0.99195 0.60447 0.0
C545 C 0.98414 0.97969 0.56897 0.0
C546 C 0.9828 0.948 0.54912 0.0
C547 C 0.71964 0.3073 0.01112 0.0
C548 C 0.76085 0.29076 0.03313 0.0
C549 C 0.66871 0.30521 0.01895 0.0
C550 C 0.65797 0.28795 0.05035 0.0
H551 H 0.72642 0.32199 0.98742 0.0
H552 H 0.63709 0.31681 0.99983 0.0
S553 S 0.7488 0.23857 0.11579 0.0
N554 N 0.78391 0.25381 0.08593 0.0
N555 N 0.69106 0.25321 0.1029 0.0
C556 C 0.69858 0.27158 0.07285 0.0
C557 C 0.74935 0.27234 0.0639 0.0
C558 C 0.19482 0.93837 0.63465 0.0
C559 C 0.17975 0.90239 0.62187 0.0
C560 C 0.20771 0.96356 0.61007 0.0
C561 C 0.20624 0.95361 0.57192 0.0
H562 H 0.19384 0.947 0.6631 0.0
H563 H 0.21636 0.99096 0.62024 0.0
S564 S 0.16939 0.86279 0.52465 0.0
N565 N 0.16434 0.858 0.56888 0.0
N566 N 0.18928 0.90549 0.52272 0.0
C567 C 0.19288 0.91777 0.55926 0.0
C568 C 0.17956 0.8921 0.58427 0.0
C569 C 0.81024 0.8551 0.2934 0.0
C570 C 0.86012 0.84403 0.29889 0.0
C571 C 0.77557 0.86031 0.25568 0.0
C572 C 0.78739 0.85321 0.22114 0.0
H573 H 0.79623 0.85854 0.31808 0.0
H574 H 0.73827 0.86922 0.25381 0.0
S575 S 0.91834 0.82843 0.22039 0.0
N576 N 0.92575 0.83254 0.26764 0.0
N577 N 0.85617 0.8364 0.19629 0.0
C578 C 0.83891 0.84361 0.22662 0.0
C579 C 0.87606 0.84041 0.26544 0.0
C580 C 0.85418 0.22425 0.83811 0.0
C581 C 0.89232 0.25827 0.85071 0.0
C582 C 0.86103 0.20104 0.81133 0.0
C583 C 0.90636 0.21088 0.79611 0.0
H584 H 0.81768 0.2159 0.84804 0.0
H585 H 0.83011 0.17522 0.80219 0.0
S586 S 0.02158 0.29616 0.82348 0.0
N587 N 0.98001 0.29975 0.84903 0.0
N588 N 0.99196 0.25681 0.79775 0.0
C589 C 0.94618 0.2445 0.80983 0.0
C590 C 0.93931 0.268 0.83726 0.0
C591 C 0.35969 0.24227 0.22966 0.0
C592 C 0.30112 0.24203 0.21912 0.0
C593 C 0.38788 0.24748 0.20191 0.0
C594 C 0.35839 0.25253 0.16278 0.0
H595 H 0.38421 0.23915 0.25978 0.0
H596 H 0.43312 0.24783 0.21116 0.0
S597 S 0.20378 0.25088 0.11901 0.0
N598 N 0.21382 0.24501 0.16587 0.0
N599 N 0.26704 0.25476 0.11399 0.0
C600 C 0.29961 0.25135 0.15151 0.0
C601 C 0.27093 0.24616 0.17964 0.0
C602 C 0.86701 0.73796 0.82161 0.0
C603 C 0.86381 0.749 0.85801 0.0
C604 C 0.87761 0.70582 0.81522 0.0
C605 C 0.88586 0.68351 0.84509 0.0
H606 H 0.86205 0.75455 0.798 0.0
H607 H 0.88133 0.69896 0.78713 0.0
S608 S 0.8792 0.69934 0.9451 0.0
N609 N 0.86849 0.73454 0.92403 0.0
N610 N 0.88696 0.67386 0.91167 0.0
C611 C 0.8811 0.69374 0.8812 0.0
C612 C 0.87033 0.72647 0.88772 0.0
C613 C 0.98376 0.41499 0.37349 0.0
C614 C 0.92847 0.40609 0.37682 0.0
C615 C 0.01097 0.4494 0.36932 0.0
C616 C 0.98396 0.47604 0.36853 0.0
H617 H 0.00538 0.395 0.37294 0.0
H618 H 0.05288 0.45514 0.36586 0.0
S619 S 0.84174 0.46728 0.37907 0.0
N620 N 0.84919 0.42729 0.38106 0.0
N621 N 0.90088 0.49207 0.37343 0.0
C622 C 0.92969 0.46787 0.37299 0.0
C623 C 0.90174 0.43282 0.37699 0.0
C624 C 0.15119 0.40583 0.79149 0.0
C625 C 0.11182 0.37284 0.77433 0.0
C626 C 0.13165 0.43515 0.79494 0.0
C627 C 0.07186 0.4325 0.78194 0.0
H628 H 0.19756 0.40913 0.80158 0.0
H629 H 0.16381 0.46018 0.80754 0.0
S630 S 0.95129 0.3507 0.73751 0.0
N631 N 0.01085 0.33863 0.74467 0.0
N632 N 0.97346 0.39302 0.75353 0.0
C633 C 0.03203 0.39922 0.76542 0.0
C634 C 0.05216 0.36958 0.76106 0.0
C635 C 0.28399 0.73672 0.29095 0.0
C636 C 0.25061 0.75931 0.29311 0.0
C637 C 0.26754 0.70157 0.29792 0.0
C638 C 0.21706 0.68811 0.30686 0.0
H639 H 0.32312 0.74636 0.28414 0.0
H640 H 0.29403 0.68476 0.29605 0.0
S641 S 0.11291 0.73568 0.31302 0.0
N642 N 0.16356 0.76517 0.30296 0.0
N643 N 0.13295 0.69931 0.31596 0.0
C644 C 0.1831 0.71025 0.30851 0.0
C645 C 0.19982 0.74585 0.30165 0.0
C646 C 0.94471 0.99698 0.82977 0.0
C647 C 0.93371 0.96304 0.81136 0.0
C648 C 0.93392 0.02428 0.80706 0.0
C649 C 0.91287 0.01855 0.76533 0.0
H650 H 0.96354 0.00265 0.86184 0.0
H651 H 0.94497 0.05042 0.82213 0.0
S652 S 0.87686 0.93427 0.70323 0.0
N653 N 0.89903 0.92489 0.74937 0.0
N654 N 0.8806 0.97632 0.70665 0.0
C655 C 0.90013 0.98445 0.74672 0.0
C656 C 0.91019 0.95664 0.76979 0.0
C657 C 0.75664 0.27745 0.28524 0.0
C658 C 0.76 0.30026 0.31693 0.0
C659 C 0.70737 0.26834 0.25006 0.0
C660 C 0.65988 0.28177 0.24546 0.0
H661 H 0.79377 0.26844 0.28664 0.0
H662 H 0.70805 0.25249 0.22546 0.0
S663 S 0.64408 0.33792 0.32244 0.0
N664 N 0.70961 0.33295 0.34324 0.0
N665 N 0.61664 0.31529 0.27783 0.0
C666 C 0.6612 0.30242 0.27823 0.0
C667 C 0.71135 0.31182 0.31376 0.0
C668 C 0.11973 0.20744 0.57799 0.0
C669 C 0.15928 0.2234 0.61591 0.0
C670 C 0.12447 0.17749 0.55975 0.0
C671 C 0.16875 0.16215 0.57878 0.0
H672 H 0.08557 0.21873 0.56189 0.0
H673 H 0.09416 0.16677 0.53003 0.0
S674 S 0.28148 0.19254 0.67902 0.0
N675 N 0.24284 0.22081 0.67251 0.0
N676 N 0.25132 0.16409 0.63833 0.0
C677 C 0.20691 0.17677 0.61744 0.0
C678 C 0.20234 0.20752 0.63596 0.0
C679 C 0.41064 0.85549 0.15082 0.0
C680 C 0.3512 0.84494 0.12709 0.0
C681 C 0.45316 0.85439 0.13472 0.0
C682 C 0.43782 0.84304 0.09425 0.0
H683 H 0.4246 0.86567 0.18182 0.0
H684 H 0.49851 0.86309 0.15384 0.0
S685 S 0.28886 0.80919 0.02028 0.0
N686 N 0.27931 0.81987 0.06165 0.0
N687 N 0.35988 0.81872 0.03142 0.0
C688 C 0.37885 0.83123 0.07049 0.0
C689 C 0.33537 0.83208 0.08686 0.0
C690 C 0.91477 0.20096 0.50722 0.0
C691 C 0.93913 0.23747 0.51512 0.0
C692 C 0.90703 0.18087 0.53742 0.0
C693 C 0.92298 0.19667 0.57652 0.0
H694 H 0.90378 0.18771 0.47783 0.0
H695 H 0.89023 0.15262 0.53047 0.0
S696 S 0.98984 0.29133 0.61259 0.0
N697 N 0.98028 0.28864 0.56477 0.0
N698 N 0.96414 0.25095 0.62142 0.0
C699 C 0.94625 0.23327 0.58457 0.0
C700 C 0.95477 0.25367 0.55389 0.0
C701 C 0.29024 0.3145 0.85166 0.0
C702 C 0.2325 0.29405 0.83263 0.0
C703 C 0.32523 0.30693 0.88795 0.0
C704 C 0.30373 0.2787 0.90678 0.0
H705 H 0.30804 0.33703 0.83882 0.0
H706 H 0.36909 0.324 0.90191 0.0
S707 S 0.15524 0.21651 0.86771 0.0
N708 N 0.15518 0.24418 0.83426 0.0
N709 N 0.22091 0.2294 0.90226 0.0
C710 C 0.24601 0.25771 0.88751 0.0
C711 C 0.21045 0.2655 0.85047 0.0
C712 C 0.23844 0.87636 0.35445 0.0
C713 C 0.27948 0.88476 0.33552 0.0
C714 C 0.23343 0.90162 0.37971 0.0
C715 C 0.26892 0.93647 0.38698 0.0
H716 H 0.20861 0.85026 0.34882 0.0
H717 H 0.20073 0.89385 0.3932 0.0
S718 S 0.38535 0.97173 0.34643 0.0
N719 N 0.35871 0.92999 0.32769 0.0
N720 N 0.34765 0.97791 0.37399 0.0
C721 C 0.31119 0.94511 0.36911 0.0
C722 C 0.31666 0.91922 0.34355 0.0
C723 C 0.80845 0.8492 0.95326 0.0
C724 C 0.78041 0.82926 0.91563 0.0
C725 C 0.77705 0.85425 0.97711 0.0
C726 C 0.71631 0.84035 0.96371 0.0
H727 H 0.85528 0.86017 0.96479 0.0
H728 H 0.80057 0.86846 0.00661 0.0
S729 S 0.62228 0.78666 0.8674 0.0
N730 N 0.68862 0.79551 0.86607 0.0
N731 N 0.62923 0.80586 0.91066 0.0
C732 C 0.68767 0.8207 0.92602 0.0
C733 C 0.71979 0.815 0.90198 0.0
loop_
_geom_bond_atom_site_label_1
_geom_bond_atom_site_label_2
_geom_bond_distance
_geom_bond_site_symmetry_2
_ccdc_geom_bond_type
H0 C1 0.949 . S
C1 H0 0.949 . S
C1 C2 1.395 . S
C1 C3 1.391 . S
C2 C1 1.395 . S
C2 C5 1.390 . S
C3 C1 1.391 . S
C3 C7 1.387 . S
C3 C8 1.491 . S
H4 C5 0.950 . S
C5 C2 1.390 . S
C5 H4 0.950 . S
C5 C6 1.378 . S
C6 C5 1.378 . S
C6 C7 1.409 . S
C7 C3 1.387 . S
C7 C6 1.409 . S
C7 H9 0.951 . S
C8 C3 1.491 . S
C8 C10 1.382 . S
C8 C12 1.404 . S
H9 C7 0.951 . S
C10 C8 1.382 . S
C10 C11 1.390 . S
C10 H15 0.949 . S
C11 C10 1.390 . S
C11 C16 1.399 . S
C12 C8 1.404 . S
C12 H13 0.950 . S
C12 C14 1.375 . S
H13 C12 0.950 . S
C14 C12 1.375 . S
C14 C16 1.382 . S
C14 H18 0.950 . S
H15 C10 0.949 . S
C16 C11 1.399 . S
C16 C14 1.382 . S
C16 H17 0.952 . S
H17 C16 0.952 . S
H18 C14 0.950 . S
H19 C20 0.949 . S
C20 H19 0.949 . S
C20 C21 1.395 . S
C20 C22 1.391 . S
C21 C20 1.395 . S
C21 C24 1.390 . S
C22 C20 1.391 . S
C22 C26 1.387 . S
C22 C27 1.491 . S
H23 C24 0.950 . S
C24 C21 1.390 . S
C24 H23 0.950 . S
C24 C25 1.378 . S
C25 C24 1.378 . S
C25 C26 1.409 . S
C26 C22 1.387 . S
C26 C25 1.409 . S
C26 H28 0.951 . S
C27 C22 1.491 . S
C27 C29 1.382 . S
C27 C31 1.404 . S
H28 C26 0.951 . S
C29 C27 1.382 . S
C29 C30 1.390 . S
C29 H34 0.949 . S
C30 C29 1.390 . S
C30 C35 1.399 . S
C31 C27 1.404 . S
C31 H32 0.950 . S
C31 C33 1.375 . S
H32 C31 0.950 . S
C33 C31 1.375 . S
C33 C35 1.382 . S
C33 H37 0.950 . S
H34 C29 0.949 . S
C35 C30 1.399 . S
C35 C33 1.382 . S
C35 H36 0.952 . S
H36 C35 0.952 . S
H37 C33 0.950 . S
H38 C39 0.949 . S
C39 H38 0.949 . S
C39 C40 1.395 . S
C39 C41 1.391 . S
C40 C39 1.395 . S
C40 C43 1.390 . S
C41 C39 1.391 . S
C41 C45 1.387 . S
C41 C46 1.491 . S
H42 C43 0.950 . S
C43 C40 1.390 . S
C43 H42 0.950 . S
C43 C44 1.378 . S
C44 C43 1.378 . S
C44 C45 1.409 . S
C45 C41 1.387 . S
C45 C44 1.409 . S
C45 H47 0.951 . S
C46 C41 1.491 . S
C46 C48 1.382 . S
C46 C50 1.404 . S
H47 C45 0.951 . S
C48 C46 1.382 . S
C48 C49 1.390 . S
C48 H53 0.949 . S
C49 C48 1.390 . S
C49 C54 1.399 . S
C50 C46 1.404 . S
C50 H51 0.950 . S
C50 C52 1.375 . S
H51 C50 0.950 . S
C52 C50 1.375 . S
C52 C54 1.382 . S
C52 H56 0.950 . S
H53 C48 0.949 . S
C54 C49 1.399 . S
C54 C52 1.382 . S
C54 H55 0.952 . S
H55 C54 0.952 . S
H56 C52 0.950 . S
H57 C58 0.949 . S
C58 H57 0.949 . S
C58 C59 1.395 . S
C58 C60 1.391 . S
C59 C58 1.395 . S
C59 C62 1.390 . S
C60 C58 1.391 . S
C60 C64 1.387 . S
C60 C65 1.491 . S
H61 C62 0.950 . S
C62 C59 1.390 . S
C62 H61 0.950 . S
C62 C63 1.378 . S
C63 C62 1.378 . S
C63 C64 1.409 . S
C64 C60 1.387 . S
C64 C63 1.409 . S
C64 H66 0.951 . S
C65 C60 1.491 . S
C65 C67 1.382 . S
C65 C69 1.392 1_556 S
H66 C64 0.951 . S
C67 C65 1.382 . S
C67 C68 1.390 1_556 S
C67 H72 0.949 . S
C68 C67 1.390 1_554 S
C68 C73 1.399 . S
C69 C65 1.392 1_554 S
C69 H70 0.935 1_554 S
C69 C71 1.394 . S
H70 C69 0.935 1_556 S
C71 C69 1.394 . S
C71 C73 1.382 . S
C71 H75 0.950 . S
H72 C67 0.949 . S
C73 C68 1.399 . S
C73 C71 1.382 . S
C73 H74 0.952 . S
H74 C73 0.952 . S
H75 C71 0.950 . S
H76 C77 0.949 1_455 S
C77 H76 0.949 1_655 S
C77 C78 1.395 . S
C77 C79 1.391 . S
C78 C77 1.395 . S
C78 C81 1.390 . S
C79 C77 1.391 . S
C79 C83 1.387 . S
C79 C84 1.491 . S
H80 C81 0.950 . S
C81 C78 1.390 . S
C81 H80 0.950 . S
C81 C82 1.378 . S
C82 C81 1.378 . S
C82 C83 1.409 . S
C83 C79 1.387 . S
C83 C82 1.409 . S
C83 H85 0.951 . S
C84 C79 1.491 . S
C84 C86 1.382 . S
C84 C88 1.404 . S
H85 C83 0.951 . S
C86 C84 1.382 . S
C86 C87 1.390 1_655 S
C86 H91 0.949 . S
C87 C86 1.390 1_455 S
C87 C92 1.399 . S
C88 C84 1.404 . S
C88 H89 0.950 . S
C88 C90 1.375 1_655 S
H89 C88 0.950 . S
C90 C88 1.375 1_455 S
C90 C92 1.382 . S
C90 H94 0.950 . S
H91 C86 0.949 . S
C92 C87 1.399 . S
C92 C90 1.382 . S
C92 H93 0.952 1_565 S
H93 C92 0.952 1_545 S
H94 C90 0.950 . S
H95 C96 0.949 . S
C96 H95 0.949 . S
C96 C97 1.395 . S
C96 C98 1.391 . S
C97 C96 1.395 . S
C97 C100 1.390 . S
C98 C96 1.391 . S
C98 C102 1.387 . S
C98 C103 1.491 . S
H99 C100 0.950 . S
C100 C97 1.390 . S
C100 H99 0.950 . S
C100 C101 1.378 . S
C101 C100 1.378 . S
C101 C102 1.409 . S
C102 C98 1.387 . S
C102 C101 1.409 . S
C102 H104 0.951 . S
C103 C98 1.491 . S
C103 C105 1.382 . S
C103 C107 1.404 . S
H104 C102 0.951 . S
C105 C103 1.382 . S
C105 C106 1.390 . S
C105 H110 0.949 . S
C106 C105 1.390 . S
C106 C111 1.399 . S
C107 C103 1.404 . S
C107 H108 0.950 . S
C107 C109 1.375 . S
H108 C107 0.950 . S
C109 C107 1.375 . S
C109 C111 1.382 . S
C109 H113 0.950 . S
H110 C105 0.949 . S
C111 C106 1.399 . S
C111 C109 1.382 . S
C111 H112 0.952 . S
H112 C111 0.952 . S
H113 C109 0.950 . S
H114 C115 0.949 . S
C115 H114 0.949 . S
C115 C116 1.395 . S
C115 C117 1.391 . S
C116 C115 1.395 . S
C116 C119 1.390 . S
C117 C115 1.391 . S
C117 C121 1.387 . S
C117 C122 1.491 . S
H118 C119 0.950 . S
C119 C116 1.390 . S
C119 H118 0.950 . S
C119 C120 1.378 . S
C120 C119 1.378 . S
C120 C121 1.409 . S
C121 C117 1.387 . S
C121 C120 1.409 . S
C121 H123 0.951 . S
C122 C117 1.491 . S
C122 C124 1.382 . S
C122 C126 1.404 . S
H123 C121 0.951 . S
C124 C122 1.382 . S
C124 C125 1.390 . S
C124 H129 0.949 . S
C125 C124 1.390 . S
C125 C130 1.399 . S
C126 C122 1.404 . S
C126 H127 0.950 . S
C126 C128 1.375 . S
H127 C126 0.950 . S
C128 C126 1.375 . S
C128 C130 1.382 . S
C128 H132 0.950 . S
H129 C124 0.949 . S
C130 C125 1.399 . S
C130 C128 1.382 . S
C130 H131 0.952 . S
H131 C130 0.952 . S
H132 C128 0.950 . S
H133 C134 0.949 . S
C134 H133 0.949 . S
C134 C135 1.395 . S
C134 C136 1.391 . S
C135 C134 1.395 . S
C135 C138 1.390 . S
C136 C134 1.391 . S
C136 C140 1.387 . S
C136 C141 1.491 . S
H137 C138 0.950 . S
C138 C135 1.390 . S
C138 H137 0.950 . S
C138 C139 1.378 . S
C139 C138 1.378 . S
C139 C140 1.409 . S
C140 C136 1.387 . S
C140 C139 1.409 . S
C140 H142 0.951 . S
C141 C136 1.491 . S
C141 C143 1.382 . S
C141 C145 1.404 . S
H142 C140 0.951 . S
C143 C141 1.382 . S
C143 C144 1.390 . S
C143 H148 0.949 . S
C144 C143 1.390 . S
C144 C149 1.399 . S
C145 C141 1.404 . S
C145 H146 0.950 . S
C145 C147 1.375 . S
H146 C145 0.950 . S
C147 C145 1.375 . S
C147 C149 1.382 . S
C147 H151 0.950 . S
H148 C143 0.949 . S
C149 C144 1.399 . S
C149 C147 1.382 . S
C149 H150 0.952 . S
H150 C149 0.952 . S
H151 C147 0.950 . S
C152 C153 1.443 . S
C152 N156 1.376 . S
C152 C190 1.389 . S
C153 C152 1.443 . S
C153 C154 1.340 . S
C153 H193 0.951 . S
C154 C153 1.340 . S
C154 C155 1.439 . S
C154 H194 0.950 . S
C155 C154 1.439 . S
C155 N156 1.374 . S
C155 C189 1.395 . S
N156 C152 1.376 . S
N156 C155 1.374 . S
N156 Co157 2.008 . S
Co157 N156 2.008 . S
Co157 N158 1.995 . S
Co157 N163 2.008 1_455 S
Co157 N168 1.995 1_455 S
Co157 N173 2.282 . S
Co157 N179 2.282 1_455 S
N158 Co157 1.995 . S
N158 C159 1.376 . S
N158 C162 1.383 1_455 S
C159 N158 1.376 . S
C159 C160 1.446 . S
C159 C189 1.391 . S
C160 C159 1.446 . S
C160 C161 1.339 . S
C160 H195 0.949 . S
C161 C160 1.339 . S
C161 C162 1.439 1_455 S
C161 H196 0.950 1_455 S
C162 N158 1.383 1_655 S
C162 C161 1.439 1_655 S
C162 C191 1.392 . S
N163 Co157 2.008 1_655 S
N163 C164 1.376 . S
N163 C167 1.374 . S
C164 N163 1.376 . S
C164 C165 1.443 . S
C164 C191 1.389 . S
C165 C164 1.443 . S
C165 C166 1.340 . S
C165 H197 0.951 . S
C166 C165 1.340 . S
C166 C167 1.439 . S
C166 H198 0.950 . S
C167 N163 1.374 . S
C167 C166 1.439 . S
C167 C192 1.395 . S
N168 Co157 1.995 1_655 S
N168 C169 1.376 . S
N168 C172 1.383 1_655 S
C169 N168 1.376 . S
C169 C170 1.446 . S
C169 C192 1.391 . S
C170 C169 1.446 . S
C170 C171 1.339 . S
C170 H199 0.949 . S
C171 C170 1.339 . S
C171 C172 1.439 1_655 S
C171 H200 0.950 1_655 S
C172 N168 1.383 1_455 S
C172 C171 1.439 1_455 S
C172 C190 1.392 . S
N173 Co157 2.282 . S
N173 C176 1.332 . S
N173 C178 1.332 . S
C174 C175 1.386 . S
C174 C177 1.388 . S
C175 C174 1.386 . S
C175 C176 1.382 . S
C175 H201 0.950 1_455 S
C176 N173 1.332 . S
C176 C175 1.382 . S
C176 H187 0.952 1_455 S
C177 C174 1.388 . S
C177 C178 1.382 . S
C177 H202 0.950 . S
C178 N173 1.332 . S
C178 C177 1.382 . S
C178 H188 0.948 . S
N179 Co157 2.282 1_655 S
N179 C183 1.332 1_655 S
N179 C184 1.332 . S
C180 C181 1.388 . S
C180 C184 1.382 . S
C180 H203 0.950 . S
C181 C180 1.388 . S
C181 C182 1.386 . S
C182 C181 1.386 . S
C182 C183 1.381 1_655 S
C182 H204 0.950 1_655 S
C183 N179 1.332 1_455 S
C183 C182 1.381 1_455 S
C183 H185 0.952 . S
C184 N179 1.332 . S
C184 C180 1.382 . S
C184 H186 0.948 . S
H185 C183 0.952 . S
H186 C184 0.948 . S
H187 C176 0.952 1_655 S
H188 C178 0.948 . S
C189 C155 1.395 . S
C189 C159 1.391 . S
C190 C152 1.389 . S
C190 C172 1.392 . S
C191 C162 1.392 . S
C191 C164 1.389 . S
C192 C167 1.395 . S
C192 C169 1.391 . S
H193 C153 0.951 . S
H194 C154 0.950 . S
H195 C160 0.949 . S
H196 C161 0.950 1_655 S
H197 C165 0.951 . S
H198 C166 0.950 . S
H199 C170 0.949 . S
H200 C171 0.950 1_455 S
H201 C175 0.950 1_655 S
H202 C177 0.950 . S
H203 C180 0.950 . S
H204 C182 0.950 1_455 S
C205 C206 1.443 . S
C205 N209 1.376 . S
C205 C243 1.389 . S
C206 C205 1.443 . S
C206 C207 1.340 . S
C206 H246 0.951 . S
C207 C206 1.340 . S
C207 C208 1.439 . S
C207 H247 0.950 . S
C208 C207 1.439 . S
C208 N209 1.374 . S
C208 C242 1.395 . S
N209 C205 1.376 . S
N209 C208 1.374 . S
N209 Co210 2.008 . S
Co210 N209 2.008 . S
Co210 N211 1.995 . S
Co210 N216 2.008 1_455 S
Co210 N221 1.995 . S
Co210 N226 2.282 . S
Co210 N232 2.282 1_455 S
N211 Co210 1.995 . S
N211 C212 1.376 . S
N211 C215 1.383 . S
C212 N211 1.376 . S
C212 C213 1.446 . S
C212 C242 1.391 . S
C213 C212 1.446 . S
C213 C214 1.339 . S
C213 H248 0.949 . S
C214 C213 1.339 . S
C214 C215 1.439 . S
C214 H249 0.950 . S
C215 N211 1.383 . S
C215 C214 1.439 . S
C215 C244 1.392 1_455 S
N216 Co210 2.008 1_655 S
N216 C217 1.376 . S
N216 C220 1.374 . S
C217 N216 1.376 . S
C217 C218 1.443 . S
C217 C244 1.389 . S
C218 C217 1.443 . S
C218 C219 1.340 . S
C218 H250 0.951 . S
C219 C218 1.340 . S
C219 C220 1.439 . S
C219 H251 0.950 . S
C220 N216 1.374 . S
C220 C219 1.439 . S
C220 C245 1.395 . S
N221 Co210 1.995 . S
N221 C222 1.376 1_455 S
N221 C225 1.383 . S
C222 N221 1.376 1_655 S
C222 C223 1.446 . S
C222 C245 1.391 . S
C223 C222 1.446 . S
C223 C224 1.339 1_655 S
C223 H252 0.949 . S
C224 C223 1.339 1_455 S
C224 C225 1.439 . S
C224 H253 0.950 . S
C225 N221 1.383 . S
C225 C224 1.439 . S
C225 C243 1.392 . S
N226 Co210 2.282 . S
N226 C229 1.332 . S
N226 C231 1.332 . S
C227 C228 1.386 . S
C227 C230 1.388 . S
C228 C227 1.386 . S
C228 C229 1.382 . S
C228 H254 0.950 . S
C229 N226 1.332 . S
C229 C228 1.382 . S
C229 H240 0.947 1_455 S
C230 C227 1.388 . S
C230 C231 1.382 . S
C230 H255 0.950 . S
C231 N226 1.332 . S
C231 C230 1.382 . S
C231 H241 0.948 . S
N232 Co210 2.282 1_655 S
N232 C236 1.332 1_655 S
N232 C237 1.332 . S
C233 C234 1.388 . S
C233 C237 1.382 . S
C233 H256 0.950 . S
C234 C233 1.388 . S
C234 C235 1.386 1_655 S
C235 C234 1.386 1_455 S
C235 C236 1.382 . S
C235 H257 0.950 . S
C236 N232 1.332 1_455 S
C236 C235 1.382 . S
C236 H238 0.952 . S
C237 N232 1.332 . S
C237 C233 1.382 . S
C237 H239 0.948 . S
H238 C236 0.952 . S
H239 C237 0.948 . S
H240 C229 0.947 1_655 S
H241 C231 0.948 . S
C242 C208 1.395 . S
C242 C212 1.391 . S
C243 C205 1.389 . S
C243 C225 1.392 . S
C244 C215 1.392 1_655 S
C244 C217 1.389 . S
C245 C220 1.395 . S
C245 C222 1.391 . S
H246 C206 0.951 . S
H247 C207 0.950 . S
H248 C213 0.949 . S
H249 C214 0.950 . S
H250 C218 0.951 . S
H251 C219 0.950 . S
H252 C223 0.949 . S
H253 C224 0.950 . S
H254 C228 0.950 . S
H255 C230 0.950 . S
H256 C233 0.950 . S
H257 C235 0.950 . S
C258 C259 1.443 . S
C258 N262 1.376 1_565 S
C258 C296 1.389 . S
C259 C258 1.443 . S
C259 C260 1.340 1_565 S
C259 H299 0.951 . S
C260 C259 1.340 1_545 S
C260 C261 1.439 . S
C260 H300 0.950 . S
C261 C260 1.439 . S
C261 N262 1.374 . S
C261 C295 1.395 . S
N262 C258 1.376 1_545 S
N262 C261 1.374 . S
N262 Co263 2.008 . S
Co263 N262 2.008 . S
Co263 N264 1.995 . S
Co263 N269 2.008 . S
Co263 N274 1.995 1_545 S
Co263 N279 2.282 . S
Co263 N285 2.282 1_545 S
N264 Co263 1.995 . S
N264 C265 1.376 . S
N264 C268 1.383 . S
C265 N264 1.376 . S
C265 C266 1.446 . S
C265 C295 1.391 . S
C266 C265 1.446 . S
C266 C267 1.339 . S
C266 H301 0.949 . S
C267 C266 1.339 . S
C267 C268 1.439 . S
C267 H302 0.950 . S
C268 N264 1.383 . S
C268 C267 1.439 . S
C268 C297 1.392 . S
N269 Co263 2.008 . S
N269 C270 1.376 . S
N269 C273 1.374 . S
C270 N269 1.376 . S
C270 C271 1.443 . S
C270 C297 1.389 . S
C271 C270 1.443 . S
C271 C272 1.340 . S
C271 H303 0.951 . S
C272 C271 1.340 . S
C272 C273 1.439 . S
C272 H304 0.950 . S
C273 N269 1.374 . S
C273 C272 1.439 . S
C273 C298 1.395 1_545 S
N274 Co263 1.995 1_565 S
N274 C275 1.376 . S
N274 C278 1.383 . S
C275 N274 1.376 . S
C275 C276 1.446 . S
C275 C298 1.391 . S
C276 C275 1.446 . S
C276 C277 1.339 . S
C276 H305 0.949 . S
C277 C276 1.339 . S
C277 C278 1.439 . S
C277 H306 0.950 . S
C278 N274 1.383 . S
C278 C277 1.439 . S
C278 C296 1.392 . S
N279 Co263 2.282 . S
N279 C282 1.332 . S
N279 C284 1.332 . S
C280 C281 1.386 . S
C280 C283 1.388 . S
C281 C280 1.386 . S
C281 C282 1.382 . S
C281 H307 0.950 . S
C282 N279 1.332 . S
C282 C281 1.382 . S
C282 H293 0.952 . S
C283 C280 1.388 . S
C283 C284 1.382 . S
C283 H308 0.950 . S
C284 N279 1.332 . S
C284 C283 1.382 . S
C284 H294 0.948 . S
N285 Co263 2.282 1_565 S
N285 C289 1.332 . S
N285 C290 1.332 . S
C286 C287 1.388 . S
C286 C290 1.382 . S
C286 H309 0.950 . S
C287 C286 1.388 . S
C287 C288 1.386 . S
C288 C287 1.386 . S
C288 C289 1.382 . S
C288 H310 0.950 . S
C289 N285 1.332 . S
C289 C288 1.382 . S
C289 H291 0.952 1_565 S
C290 N285 1.332 . S
C290 C286 1.382 . S
C290 H292 0.948 . S
H291 C289 0.952 1_545 S
H292 C290 0.948 . S
H293 C282 0.952 . S
H294 C284 0.948 . S
C295 C261 1.395 . S
C295 C265 1.391 . S
C296 C258 1.389 . S
C296 C278 1.392 . S
C297 C268 1.392 . S
C297 C270 1.389 . S
C298 C273 1.395 1_565 S
C298 C275 1.391 . S
H299 C259 0.951 . S
H300 C260 0.950 . S
H301 C266 0.949 . S
H302 C267 0.950 . S
H303 C271 0.951 . S
H304 C272 0.950 . S
H305 C276 0.949 . S
H306 C277 0.950 . S
H307 C281 0.950 . S
H308 C283 0.950 . S
H309 C286 0.950 . S
H310 C288 0.950 . S
C311 C312 1.443 . S
C311 N315 1.376 . S
C311 C349 1.389 . S
C312 C311 1.443 . S
C312 C313 1.340 . S
C312 H352 0.951 . S
C313 C312 1.340 . S
C313 C314 1.439 . S
C313 H353 0.950 . S
C314 C313 1.439 . S
C314 N315 1.374 . S
C314 C348 1.395 . S
N315 C311 1.376 . S
N315 C314 1.374 . S
N315 Co316 2.008 . S
Co316 N315 2.008 . S
Co316 N317 1.995 . S
Co316 N322 2.000 1_554 S
Co316 N327 1.995 . S
Co316 N332 2.282 1_554 S
Co316 N338 2.282 . S
N317 Co316 1.995 . S
N317 C318 1.376 . S
N317 C321 1.383 1_554 S
C318 N317 1.376 . S
C318 C319 1.446 1_554 S
C318 C348 1.391 . S
C319 C318 1.446 1_556 S
C319 C320 1.339 . S
C319 H354 0.949 . S
C320 C319 1.339 . S
C320 C321 1.439 . S
C320 H355 0.950 . S
C321 N317 1.383 1_556 S
C321 C320 1.439 . S
C321 C350 1.392 . S
N322 Co316 2.000 1_556 S
N322 C323 1.390 . S
N322 C326 1.373 . S
C323 N322 1.390 . S
C323 C324 1.443 . S
C323 C350 1.389 . S
C324 C323 1.443 . S
C324 C325 1.340 . S
C324 H356 0.951 . S
C325 C324 1.340 . S
C325 C326 1.439 . S
C325 H357 0.950 . S
C326 N322 1.373 . S
C326 C325 1.439 . S
C326 C351 1.395 1_556 S
N327 Co316 1.995 . S
N327 C328 1.376 . S
N327 C331 1.383 . S
C328 N327 1.376 . S
C328 C329 1.446 . S
C328 C351 1.391 . S
C329 C328 1.446 . S
C329 C330 1.339 . S
C329 H358 0.949 . S
C330 C329 1.339 . S
C330 C331 1.439 . S
C330 H359 0.950 . S
C331 N327 1.383 . S
C331 C330 1.439 . S
C331 C349 1.392 . S
N332 Co316 2.282 1_556 S
N332 C335 1.332 . S
N332 C337 1.332 . S
C333 C334 1.386 . S
C333 C336 1.388 . S
C334 C333 1.386 . S
C334 C335 1.382 . S
C334 H360 0.950 . S
C335 N332 1.332 . S
C335 C334 1.382 . S
C335 H346 0.952 . S
C336 C333 1.388 . S
C336 C337 1.382 . S
C336 H361 0.950 . S
C337 N332 1.332 . S
C337 C336 1.382 . S
C337 H347 0.948 . S
N338 Co316 2.282 . S
N338 C342 1.332 . S
N338 C343 1.332 . S
C339 C340 1.388 . S
C339 C343 1.382 . S
C339 H362 0.950 . S
C340 C339 1.388 . S
C340 C341 1.386 . S
C341 C340 1.386 . S
C341 C342 1.382 . S
C341 H363 0.950 . S
C342 N338 1.332 . S
C342 C341 1.382 . S
C342 H344 0.952 . S
C343 N338 1.332 . S
C343 C339 1.382 . S
C343 H345 0.948 . S
H344 C342 0.952 . S
H345 C343 0.948 . S
H346 C335 0.952 . S
H347 C337 0.948 . S
C348 C314 1.395 . S
C348 C318 1.391 . S
C349 C311 1.389 . S
C349 C331 1.392 . S
C350 C321 1.392 . S
C350 C323 1.389 . S
C351 C326 1.395 1_554 S
C351 C328 1.391 . S
H352 C312 0.951 . S
H353 C313 0.950 . S
H354 C319 0.949 . S
H355 C320 0.950 . S
H356 C324 0.951 . S
H357 C325 0.950 . S
H358 C329 0.949 . S
H359 C330 0.950 . S
H360 C334 0.950 . S
H361 C336 0.950 . S
H362 C339 0.950 . S
H363 C341 0.950 . S
C364 C365 1.443 . S
C364 N368 1.376 . S
C364 C402 1.389 . S
C365 C364 1.443 . S
C365 C366 1.340 . S
C365 H405 0.951 . S
C366 C365 1.340 . S
C366 C367 1.439 . S
C366 H406 0.950 . S
C367 C366 1.439 . S
C367 N368 1.374 . S
C367 C401 1.395 . S
N368 C364 1.376 . S
N368 C367 1.374 . S
N368 Co369 2.008 1_455 S
Co369 N368 2.008 1_655 S
Co369 N370 1.995 1_655 S
Co369 N375 2.008 . S
Co369 N380 1.995 . S
Co369 N385 2.282 . S
Co369 N391 2.282 1_655 S
N370 Co369 1.995 1_455 S
N370 C371 1.376 . S
N370 C374 1.383 . S
C371 N370 1.376 . S
C371 C372 1.446 . S
C371 C401 1.391 . S
C372 C371 1.446 . S
C372 C373 1.339 . S
C372 H407 0.949 . S
C373 C372 1.339 . S
C373 C374 1.439 . S
C373 H408 0.950 . S
C374 N370 1.383 . S
C374 C373 1.439 . S
C374 C403 1.392 1_455 S
N375 Co369 2.008 . S
N375 C376 1.376 . S
N375 C379 1.374 . S
C376 N375 1.376 . S
C376 C377 1.443 . S
C376 C403 1.389 . S
C377 C376 1.443 . S
C377 C378 1.340 . S
C377 H409 0.951 . S
C378 C377 1.340 . S
C378 C379 1.439 . S
C378 H410 0.950 . S
C379 N375 1.374 . S
C379 C378 1.439 . S
C379 C404 1.395 . S
N380 Co369 1.995 . S
N380 C381 1.376 . S
N380 C384 1.383 . S
C381 N380 1.376 . S
C381 C382 1.446 . S
C381 C404 1.391 . S
C382 C381 1.446 . S
C382 C383 1.339 . S
C382 H411 0.949 . S
C383 C382 1.339 . S
C383 C384 1.439 . S
C383 H412 0.950 . S
C384 N380 1.383 . S
C384 C383 1.439 . S
C384 C402 1.392 1_655 S
N385 Co369 2.282 . S
N385 C388 1.332 . S
N385 C390 1.332 1_655 S
C386 C387 1.386 . S
C386 C389 1.388 1_655 S
C387 C386 1.386 . S
C387 C388 1.382 . S
C387 H413 0.950 . S
C388 N385 1.332 . S
C388 C387 1.382 . S
C388 H399 0.952 . S
C389 C386 1.388 1_455 S
C389 C390 1.382 . S
C389 H414 0.950 . S
C390 N385 1.332 1_455 S
C390 C389 1.382 . S
C390 H400 0.948 . S
N391 Co369 2.282 1_455 S
N391 C395 1.332 . S
N391 C396 1.332 1_455 S
C392 C393 1.388 1_655 S
C392 C396 1.382 . S
C392 H415 0.950 . S
C393 C392 1.388 1_455 S
C393 C394 1.386 . S
C394 C393 1.386 . S
C394 C395 1.382 . S
C394 H416 0.950 . S
C395 N391 1.332 . S
C395 C394 1.382 . S
C395 H397 0.952 . S
C396 N391 1.332 1_655 S
C396 C392 1.382 . S
C396 H398 0.948 . S
H397 C395 0.952 . S
H398 C396 0.948 . S
H399 C388 0.952 . S
H400 C390 0.948 . S
C401 C367 1.395 . S
C401 C371 1.391 . S
C402 C364 1.389 . S
C402 C384 1.392 1_455 S
C403 C374 1.392 1_655 S
C403 C376 1.389 . S
C404 C379 1.395 . S
C404 C381 1.391 . S
H405 C365 0.951 . S
H406 C366 0.950 . S
H407 C372 0.949 . S
H408 C373 0.950 . S
H409 C377 0.951 . S
H410 C378 0.950 . S
H411 C382 0.949 . S
H412 C383 0.950 . S
H413 C387 0.950 . S
H414 C389 0.950 . S
H415 C392 0.950 . S
H416 C394 0.950 . S
C417 C418 1.443 . S
C417 N421 1.376 . S
C417 C455 1.389 . S
C418 C417 1.443 . S
C418 C419 1.340 . S
C418 H458 0.951 . S
C419 C418 1.340 . S
C419 C420 1.439 . S
C419 H459 0.950 . S
C420 C419 1.439 . S
C420 N421 1.374 . S
C420 C454 1.395 . S
N421 C417 1.376 . S
N421 C420 1.374 . S
N421 Co422 2.008 . S
Co422 N421 2.008 . S
Co422 N423 1.995 . S
Co422 N428 2.008 . S
Co422 N433 1.995 . S
Co422 N438 2.282 . S
Co422 N444 2.282 . S
N423 Co422 1.995 . S
N423 C424 1.376 . S
N423 C427 1.383 . S
C424 N423 1.376 . S
C424 C425 1.446 . S
C424 C454 1.391 . S
C425 C424 1.446 . S
C425 C426 1.339 . S
C425 H460 0.949 . S
C426 C425 1.339 . S
C426 C427 1.439 . S
C426 H461 0.950 . S
C427 N423 1.383 . S
C427 C426 1.439 . S
C427 C456 1.392 . S
N428 Co422 2.008 . S
N428 C429 1.376 . S
N428 C432 1.374 . S
C429 N428 1.376 . S
C429 C430 1.443 . S
C429 C456 1.389 . S
C430 C429 1.443 . S
C430 C431 1.340 . S
C430 H462 0.951 . S
C431 C430 1.340 . S
C431 C432 1.439 . S
C431 H463 0.950 . S
C432 N428 1.374 . S
C432 C431 1.439 . S
C432 C457 1.395 . S
N433 Co422 1.995 . S
N433 C434 1.376 . S
N433 C437 1.383 . S
C434 N433 1.376 . S
C434 C435 1.446 . S
C434 C457 1.391 . S
C435 C434 1.446 . S
C435 C436 1.339 . S
C435 H464 0.949 . S
C436 C435 1.339 . S
C436 C437 1.439 . S
C436 H465 0.950 . S
C437 N433 1.383 . S
C437 C436 1.439 . S
C437 C455 1.392 . S
N438 Co422 2.282 . S
N438 C441 1.332 . S
N438 C443 1.332 . S
C439 C440 1.386 . S
C439 C442 1.388 . S
C440 C439 1.386 . S
C440 C441 1.382 1_556 S
C440 H466 0.950 . S
C441 N438 1.332 . S
C441 C440 1.382 1_554 S
C441 H452 0.952 . S
C442 C439 1.388 . S
C442 C443 1.382 1_556 S
C442 H467 0.950 . S
C443 N438 1.332 . S
C443 C442 1.382 1_554 S
C443 H453 0.948 . S
N444 Co422 2.282 . S
N444 C448 1.332 . S
N444 C449 1.332 . S
C445 C446 1.388 . S
C445 C449 1.382 . S
C445 H468 0.950 . S
C446 C445 1.388 . S
C446 C447 1.386 . S
C447 C446 1.386 . S
C447 C448 1.382 . S
C447 H469 0.950 . S
C448 N444 1.332 . S
C448 C447 1.382 . S
C448 H450 0.952 . S
C449 N444 1.332 . S
C449 C445 1.382 . S
C449 H451 0.948 . S
H450 C448 0.952 . S
H451 C449 0.948 . S
H452 C441 0.952 . S
H453 C443 0.948 . S
C454 C420 1.395 . S
C454 C424 1.391 . S
C455 C417 1.389 . S
C455 C437 1.392 . S
C456 C427 1.392 . S
C456 C429 1.389 . S
C457 C432 1.395 . S
C457 C434 1.391 . S
H458 C418 0.951 . S
H459 C419 0.950 . S
H460 C425 0.949 . S
H461 C426 0.950 . S
H462 C430 0.951 . S
H463 C431 0.950 . S
H464 C435 0.949 . S
H465 C436 0.950 . S
H466 C440 0.950 . S
H467 C442 0.950 . S
H468 C445 0.950 . S
H469 C447 0.950 . S
C470 C471 1.369 . S
C470 C472 1.419 . S
C470 H474 0.930 . S
C471 C470 1.369 . S
C471 C480 1.429 . S
C472 C470 1.419 . S
C472 C473 1.363 . S
C472 H475 0.929 . S
C473 C472 1.363 . S
C473 C479 1.428 . S
H474 C470 0.930 . S
H475 C472 0.929 . S
S476 N477 1.613 . S
S476 N478 1.610 . S
N477 S476 1.613 . S
N477 C480 1.350 . S
N478 S476 1.610 . S
N478 C479 1.351 . S
C479 C473 1.428 . S
C479 N478 1.351 . S
C479 C480 1.434 . S
C480 C471 1.429 . S
C480 N477 1.350 . S
C480 C479 1.434 . S
C481 C482 1.369 . S
C481 C483 1.419 . S
C481 H485 0.930 . S
C482 C481 1.369 . S
C482 C491 1.429 . S
C483 C481 1.419 . S
C483 C484 1.363 . S
C483 H486 0.929 . S
C484 C483 1.363 . S
C484 C490 1.428 . S
H485 C481 0.930 . S
H486 C483 0.929 . S
S487 N488 1.613 . S
S487 N489 1.610 . S
N488 S487 1.613 . S
N488 C491 1.350 . S
N489 S487 1.610 . S
N489 C490 1.351 . S
C490 C484 1.428 . S
C490 N489 1.351 . S
C490 C491 1.434 . S
C491 C482 1.429 . S
C491 N488 1.350 . S
C491 C490 1.434 . S
C492 C493 1.369 . S
C492 C494 1.419 . S
C492 H496 0.930 . S
C493 C492 1.369 . S
C493 C502 1.429 . S
C494 C492 1.419 . S
C494 C495 1.363 . S
C494 H497 0.929 . S
C495 C494 1.363 . S
C495 C501 1.428 . S
H496 C492 0.930 . S
H497 C494 0.929 . S
S498 N499 1.613 . S
S498 N500 1.610 . S
N499 S498 1.613 . S
N499 C502 1.350 1_455 S
N500 S498 1.610 . S
N500 C501 1.351 1_455 S
C501 C495 1.428 . S
C501 N500 1.351 1_655 S
C501 C502 1.434 . S
C502 C493 1.429 . S
C502 N499 1.350 1_655 S
C502 C501 1.434 . S
C503 C504 1.369 . S
C503 C505 1.419 . S
C503 H507 0.930 . S
C504 C503 1.369 . S
C504 C513 1.429 . S
C505 C503 1.419 . S
C505 C506 1.363 . S
C505 H508 0.929 . S
C506 C505 1.363 . S
C506 C512 1.428 . S
H507 C503 0.930 . S
H508 C505 0.929 . S
S509 N510 1.613 1_455 S
S509 N511 1.610 . S
N510 S509 1.613 1_655 S
N510 C513 1.350 . S
N511 S509 1.610 . S
N511 C512 1.351 1_455 S
C512 C506 1.428 . S
C512 N511 1.351 1_655 S
C512 C513 1.434 . S
C513 C504 1.429 . S
C513 N510 1.350 . S
C513 C512 1.434 . S
C514 C515 1.369 . S
C514 C516 1.419 . S
C514 H518 0.930 . S
C515 C514 1.369 . S
C515 C524 1.429 . S
C516 C514 1.419 . S
C516 C517 1.363 . S
C516 H519 0.929 . S
C517 C516 1.363 . S
C517 C523 1.428 . S
H518 C514 0.930 . S
H519 C516 0.929 . S
S520 N521 1.613 . S
S520 N522 1.610 . S
N521 S520 1.613 . S
N521 C524 1.350 . S
N522 S520 1.610 . S
N522 C523 1.351 . S
C523 C517 1.428 . S
C523 N522 1.351 . S
C523 C524 1.434 . S
C524 C515 1.429 . S
C524 N521 1.350 . S
C524 C523 1.434 . S
C525 C526 1.369 . S
C525 C527 1.419 . S
C525 H529 0.930 . S
C526 C525 1.369 . S
C526 C535 1.429 . S
C527 C525 1.419 . S
C527 C528 1.363 . S
C527 H530 0.929 . S
C528 C527 1.363 . S
C528 C534 1.428 . S
H529 C525 0.930 . S
H530 C527 0.929 . S
S531 N532 1.613 . S
S531 N533 1.610 . S
N532 S531 1.613 . S
N532 C535 1.350 . S
N533 S531 1.610 . S
N533 C534 1.351 . S
C534 C528 1.428 . S
C534 N533 1.351 . S
C534 C535 1.434 . S
C535 C526 1.429 . S
C535 N532 1.350 . S
C535 C534 1.434 . S
C536 C537 1.369 1_545 S
C536 C538 1.419 . S
C536 H540 0.930 . S
C537 C536 1.369 1_565 S
C537 C546 1.429 . S
C538 C536 1.419 . S
C538 C539 1.363 1_655 S
C538 H541 0.929 . S
C539 C538 1.363 1_455 S
C539 C545 1.428 . S
H540 C536 0.930 . S
H541 C538 0.929 . S
S542 N543 1.613 1_455 S
S542 N544 1.610 . S
N543 S542 1.613 1_655 S
N543 C546 1.350 . S
N544 S542 1.610 . S
N544 C545 1.351 1_565 S
C545 C539 1.428 . S
C545 N544 1.351 1_545 S
C545 C546 1.434 1_445 S
C546 C537 1.429 . S
C546 N543 1.350 . S
C546 C545 1.434 1_665 S
C547 C548 1.369 . S
C547 C549 1.419 . S
C547 H551 0.930 . S
C548 C547 1.369 . S
C548 C557 1.429 . S
C549 C547 1.419 . S
C549 C550 1.363 . S
C549 H552 0.929 . S
C550 C549 1.363 . S
C550 C556 1.428 . S
H551 C547 0.930 . S
H552 C549 0.929 . S
S553 N554 1.613 . S
S553 N555 1.610 . S
N554 S553 1.613 . S
N554 C557 1.350 . S
N555 S553 1.610 . S
N555 C556 1.351 . S
C556 C550 1.428 . S
C556 N555 1.351 . S
C556 C557 1.434 . S
C557 C548 1.429 . S
C557 N554 1.350 . S
C557 C556 1.434 . S
C558 C559 1.369 . S
C558 C560 1.419 . S
C558 H562 0.930 . S
C559 C558 1.369 . S
C559 C568 1.429 . S
C560 C558 1.419 . S
C560 C561 1.363 . S
C560 H563 0.929 . S
C561 C560 1.363 . S
C561 C567 1.428 . S
H562 C558 0.930 . S
H563 C560 0.929 . S
S564 N565 1.613 . S
S564 N566 1.610 . S
N565 S564 1.613 . S
N565 C568 1.350 . S
N566 S564 1.610 . S
N566 C567 1.351 . S
C567 C561 1.428 . S
C567 N566 1.351 . S
C567 C568 1.434 . S
C568 C559 1.429 . S
C568 N565 1.350 . S
C568 C567 1.434 . S
C569 C570 1.369 . S
C569 C571 1.419 . S
C569 H573 0.930 . S
C570 C569 1.369 . S
C570 C579 1.429 . S
C571 C569 1.419 . S
C571 C572 1.363 . S
C571 H574 0.929 . S
C572 C571 1.363 . S
C572 C578 1.428 . S
H573 C569 0.930 . S
H574 C571 0.929 . S
S575 N576 1.613 . S
S575 N577 1.610 . S
N576 S575 1.613 . S
N576 C579 1.350 . S
N577 S575 1.610 . S
N577 C578 1.351 . S
C578 C572 1.428 . S
C578 N577 1.351 . S
C578 C579 1.434 . S
C579 C570 1.429 . S
C579 N576 1.350 . S
C579 C578 1.434 . S
C580 C581 1.369 . S
C580 C582 1.419 . S
C580 H584 0.930 . S
C581 C580 1.369 . S
C581 C590 1.429 . S
C582 C580 1.419 . S
C582 C583 1.363 . S
C582 H585 0.929 . S
C583 C582 1.363 . S
C583 C589 1.428 . S
H584 C580 0.930 . S
H585 C582 0.929 . S
S586 N587 1.613 1_455 S
S586 N588 1.610 . S
N587 S586 1.613 1_655 S
N587 C590 1.350 . S
N588 S586 1.610 . S
N588 C589 1.351 1_455 S
C589 C583 1.428 . S
C589 N588 1.351 1_655 S
C589 C590 1.434 . S
C590 C581 1.429 . S
C590 N587 1.350 . S
C590 C589 1.434 . S
C591 C592 1.369 . S
C591 C593 1.419 . S
C591 H595 0.930 . S
C592 C591 1.369 . S
C592 C601 1.429 . S
C593 C591 1.419 . S
C593 C594 1.363 . S
C593 H596 0.929 . S
C594 C593 1.363 . S
C594 C600 1.428 . S
H595 C591 0.930 . S
H596 C593 0.929 . S
S597 N598 1.613 . S
S597 N599 1.610 . S
N598 S597 1.613 . S
N598 C601 1.350 . S
N599 S597 1.610 . S
N599 C600 1.351 . S
C600 C594 1.428 . S
C600 N599 1.351 . S
C600 C601 1.434 . S
C601 C592 1.429 . S
C601 N598 1.350 . S
C601 C600 1.434 . S
C602 C603 1.377 . S
C602 C604 1.419 . S
C602 H606 0.926 1_655 S
C603 C602 1.377 . S
C603 C612 1.429 . S
C604 C602 1.419 . S
C604 C605 1.367 . S
C604 H607 0.920 1_655 S
C605 C604 1.367 . S
C605 C611 1.428 . S
H606 C602 0.926 1_455 S
H607 C604 0.920 1_455 S
S608 N609 1.613 . S
S608 N610 1.610 . S
N609 S608 1.613 . S
N609 C612 1.350 . S
N610 S608 1.610 . S
N610 C611 1.351 . S
C611 C605 1.428 . S
C611 N610 1.351 . S
C611 C612 1.434 . S
C612 C603 1.429 . S
C612 N609 1.350 . S
C612 C611 1.434 . S
C613 C614 1.369 . S
C613 C615 1.419 . S
C613 H617 0.930 . S
C614 C613 1.369 . S
C614 C623 1.429 . S
C615 C613 1.419 . S
C615 C616 1.363 . S
C615 H618 0.929 . S
C616 C615 1.363 . S
C616 C622 1.428 . S
H617 C613 0.930 . S
H618 C615 0.929 . S
S619 N620 1.613 . S
S619 N621 1.610 . S
N620 S619 1.613 . S
N620 C623 1.350 . S
N621 S619 1.610 . S
N621 C622 1.351 . S
C622 C616 1.428 . S
C622 N621 1.351 . S
C622 C623 1.434 . S
C623 C614 1.429 . S
C623 N620 1.350 . S
C623 C622 1.434 . S
C624 C625 1.369 . S
C624 C626 1.419 . S
C624 H628 0.930 . S
C625 C624 1.369 . S
C625 C634 1.429 . S
C626 C624 1.419 . S
C626 C627 1.363 . S
C626 H629 0.929 . S
C627 C626 1.363 . S
C627 C633 1.428 . S
H628 C624 0.930 . S
H629 C626 0.929 . S
S630 N631 1.613 1_655 S
S630 N632 1.610 . S
N631 S630 1.613 1_455 S
N631 C634 1.350 . S
N632 S630 1.610 . S
N632 C633 1.351 1_655 S
C633 C627 1.428 . S
C633 N632 1.351 1_455 S
C633 C634 1.434 . S
C634 C625 1.429 . S
C634 N631 1.350 . S
C634 C633 1.434 . S
C635 C636 1.369 . S
C635 C637 1.419 . S
C635 H639 0.930 . S
C636 C635 1.369 . S
C636 C645 1.429 . S
C637 C635 1.419 . S
C637 C638 1.363 . S
C637 H640 0.929 . S
C638 C637 1.363 . S
C638 C644 1.428 . S
H639 C635 0.930 . S
H640 C637 0.929 . S
S641 N642 1.613 . S
S641 N643 1.610 . S
N642 S641 1.613 . S
N642 C645 1.350 . S
N643 S641 1.610 . S
N643 C644 1.351 . S
C644 C638 1.428 . S
C644 N643 1.351 . S
C644 C645 1.434 . S
C645 C636 1.429 . S
C645 N642 1.350 . S
C645 C644 1.434 . S
C646 C647 1.369 1_545 S
C646 C648 1.419 . S
C646 H650 0.930 . S
C647 C646 1.369 1_565 S
C647 C656 1.429 1_455 S
C648 C646 1.419 . S
C648 C649 1.363 . S
C648 H651 0.929 . S
C649 C648 1.363 . S
C649 C655 1.428 1_455 S
H650 C646 0.930 . S
H651 C648 0.929 . S
S652 N653 1.613 . S
S652 N654 1.610 1_565 S
N653 S652 1.613 . S
N653 C656 1.350 . S
N654 S652 1.610 1_545 S
N654 C655 1.351 . S
C655 C649 1.428 1_655 S
C655 N654 1.351 . S
C655 C656 1.434 1_545 S
C656 C647 1.429 1_655 S
C656 N653 1.350 . S
C656 C655 1.434 1_565 S
C657 C658 1.369 . S
C657 C659 1.419 . S
C657 H661 0.930 . S
C658 C657 1.369 . S
C658 C667 1.429 . S
C659 C657 1.419 . S
C659 C660 1.363 . S
C659 H662 0.929 . S
C660 C659 1.363 . S
C660 C666 1.428 . S
H661 C657 0.930 . S
H662 C659 0.929 . S
S663 N664 1.613 . S
S663 N665 1.610 . S
N664 S663 1.613 . S
N664 C667 1.350 . S
N665 S663 1.610 . S
N665 C666 1.351 . S
C666 C660 1.428 . S
C666 N665 1.351 . S
C666 C667 1.434 . S
C667 C658 1.429 . S
C667 N664 1.350 . S
C667 C666 1.434 . S
C668 C669 1.369 . S
C668 C670 1.419 . S
C668 H672 0.930 . S
C669 C668 1.369 . S
C669 C678 1.429 . S
C670 C668 1.419 . S
C670 C671 1.363 . S
C670 H673 0.929 . S
C671 C670 1.363 . S
C671 C677 1.428 . S
H672 C668 0.930 . S
H673 C670 0.929 . S
S674 N675 1.613 . S
S674 N676 1.610 . S
N675 S674 1.613 . S
N675 C678 1.350 . S
N676 S674 1.610 . S
N676 C677 1.351 . S
C677 C671 1.428 . S
C677 N676 1.351 . S
C677 C678 1.434 . S
C678 C669 1.429 . S
C678 N675 1.350 . S
C678 C677 1.434 . S
C679 C680 1.369 . S
C679 C681 1.419 . S
C679 H683 0.930 . S
C680 C679 1.369 . S
C680 C689 1.429 . S
C681 C679 1.419 . S
C681 C682 1.363 . S
C681 H684 0.929 . S
C682 C681 1.363 . S
C682 C688 1.428 . S
H683 C679 0.930 . S
H684 C681 0.929 . S
S685 N686 1.613 . S
S685 N687 1.610 . S
N686 S685 1.613 . S
N686 C689 1.350 . S
N687 S685 1.610 . S
N687 C688 1.351 . S
C688 C682 1.428 . S
C688 N687 1.351 . S
C688 C689 1.434 . S
C689 C680 1.429 . S
C689 N686 1.350 . S
C689 C688 1.434 . S
C690 C691 1.369 . S
C690 C692 1.419 . S
C690 H694 0.930 . S
C691 C690 1.369 . S
C691 C700 1.429 . S
C692 C690 1.419 . S
C692 C693 1.363 . S
C692 H695 0.929 . S
C693 C692 1.363 . S
C693 C699 1.428 . S
H694 C690 0.930 . S
H695 C692 0.929 . S
S696 N697 1.613 1_455 S
S696 N698 1.610 . S
N697 S696 1.613 1_655 S
N697 C700 1.350 . S
N698 S696 1.610 . S
N698 C699 1.351 1_455 S
C699 C693 1.428 . S
C699 N698 1.351 1_655 S
C699 C700 1.434 . S
C700 C691 1.429 . S
C700 N697 1.350 . S
C700 C699 1.434 . S
C701 C702 1.369 . S
C701 C703 1.419 . S
C701 H705 0.930 . S
C702 C701 1.369 . S
C702 C711 1.429 . S
C703 C701 1.419 . S
C703 C704 1.363 . S
C703 H706 0.929 . S
C704 C703 1.363 . S
C704 C710 1.428 . S
H705 C701 0.930 . S
H706 C703 0.929 . S
S707 N708 1.613 . S
S707 N709 1.610 . S
N708 S707 1.613 . S
N708 C711 1.350 . S
N709 S707 1.610 . S
N709 C710 1.351 . S
C710 C704 1.428 . S
C710 N709 1.351 . S
C710 C711 1.434 . S
C711 C702 1.429 . S
C711 N708 1.350 . S
C711 C710 1.434 . S
C712 C713 1.369 . S
C712 C714 1.419 . S
C712 H716 0.930 . S
C713 C712 1.369 . S
C713 C722 1.429 . S
C714 C712 1.419 . S
C714 C715 1.363 . S
C714 H717 0.929 . S
C715 C714 1.363 . S
C715 C721 1.428 . S
H716 C712 0.930 . S
H717 C714 0.929 . S
S718 N719 1.613 . S
S718 N720 1.610 . S
N719 S718 1.613 . S
N719 C722 1.350 . S
N720 S718 1.610 . S
N720 C721 1.351 . S
C721 C715 1.428 . S
C721 N720 1.351 . S
C721 C722 1.434 . S
C722 C713 1.429 . S
C722 N719 1.350 . S
C722 C721 1.434 . S
C723 C724 1.369 . S
C723 C725 1.419 . S
C723 H727 0.930 . S
C724 C723 1.369 . S
C724 C733 1.429 . S
C725 C723 1.419 . S
C725 C726 1.363 . S
C725 H728 0.929 . S
C726 C725 1.363 . S
C726 C732 1.428 . S
H727 C723 0.930 . S
H728 C725 0.929 . S
S729 N730 1.613 . S
S729 N731 1.610 . S
N730 S729 1.613 . S
N730 C733 1.350 . S
N731 S729 1.610 . S
N731 C732 1.351 . S
C732 C726 1.428 . S
C732 N731 1.351 . S
C732 C733 1.434 . S
C733 C724 1.429 . S
C733 N730 1.350 . S
C733 C732 1.434 . S
C473 C174 1.541 . S
C471 C11 1.351 . S
C484 C243 1.671 . S
C482 C25 1.633 . S
C495 C181 1.303 . S
C493 C40 1.268 . S
C506 C244 1.475 . S
C504 C59 1.427 . S
C517 C297 1.815 . S
C515 C6 1.790 . S
C528 C333 1.745 . S
C526 C21 1.679 . S
C537 C49 1.597 . S
C539 C393 1.619 . S
C550 C456 1.521 . S
C548 C68 1.429 . S
C561 C296 1.761 . S
C559 C30 1.532 . S
C570 C44 1.646 . S
C572 C340 1.658 . S
C583 C386 1.726 . S
C581 C63 1.738 . S
C594 C455 1.690 . S
C592 C2 1.671 . S
C603 C78 1.671 . S
C605 C234 1.716 . S
C616 C191 1.582 . S
C614 C97 1.493 . S
C625 C120 1.621 . S
C627 C227 1.625 . S
C636 C139 1.653 . S
C638 C190 1.671 . S
C649 C402 1.600 . S
C647 C87 1.469 . S
C660 C446 1.640 . S
C658 C101 1.606 . S
C671 C280 1.627 . S
C669 C125 1.454 . S
C680 C144 1.666 . S
C682 C349 1.771 . S
C693 C403 1.806 . S
C691 C106 1.546 . S
C704 C439 1.617 . S
C702 C116 1.595 . S
C715 C287 1.644 . S
C713 C135 1.627 . S
C724 C82 1.747 . S
C726 C350 1.735 . S
