# Generated by pormake.
# Topology sqc, (4,8)-cn, num edge types: 1
# Building blocks:
#     Node 0, Type 0, BuildingBlock: GIZVER_clean_linker_0, # of connection points: 4
#     Node 1, Type 0, BuildingBlock: GIZVER_clean_linker_0, # of connection points: 4
#     Node 2, Type 0, BuildingBlock: GIZVER_clean_linker_0, # of connection points: 4
#     Node 3, Type 0, BuildingBlock: GIZVER_clean_linker_0, # of connection points: 4
#     Node 4, Type 0, BuildingBlock: GIZVER_clean_linker_0, # of connection points: 4
#     Node 5, Type 0, BuildingBlock: GIZVER_clean_linker_0, # of connection points: 4
#     Node 6, Type 0, BuildingBlock: GIZVER_clean_linker_0, # of connection points: 4
#     Node 7, Type 0, BuildingBlock: GIZVER_clean_linker_0, # of connection points: 4
#     Node 8, Type 1, BuildingBlock: TAGTUT_clean_sbu_3, # of connection points: 8
#     Node 9, Type 1, BuildingBlock: TAGTUT_clean_sbu_3, # of connection points: 8
#     Node 10, Type 1, BuildingBlock: TAGTUT_clean_sbu_3, # of connection points: 8
#     Node 11, Type 1, BuildingBlock: TAGTUT_clean_sbu_3, # of connection points: 8
#     Edge 12, Type (0, 1), BuildingBlock: XUDNAN_clean_linker_2, # of connection points: 2
#     Edge 13, Type (0, 1), BuildingBlock: XUDNAN_clean_linker_2, # of connection points: 2
#     Edge 14, Type (0, 1), BuildingBlock: XUDNAN_clean_linker_2, # of connection points: 2
#     Edge 15, Type (0, 1), BuildingBlock: XUDNAN_clean_linker_2, # of connection points: 2
#     Edge 16, Type (0, 1), BuildingBlock: XUDNAN_clean_linker_2, # of connection points: 2
#     Edge 17, Type (0, 1), BuildingBlock: XUDNAN_clean_linker_2, # of connection points: 2
#     Edge 18, Type (0, 1), BuildingBlock: XUDNAN_clean_linker_2, # of connection points: 2
#     Edge 19, Type (0, 1), BuildingBlock: XUDNAN_clean_linker_2, # of connection points: 2
#     Edge 20, Type (0, 1), BuildingBlock: XUDNAN_clean_linker_2, # of connection points: 2
#     Edge 21, Type (0, 1), BuildingBlock: XUDNAN_clean_linker_2, # of connection points: 2
#     Edge 22, Type (0, 1), BuildingBlock: XUDNAN_clean_linker_2, # of connection points: 2
#     Edge 23, Type (0, 1), BuildingBlock: XUDNAN_clean_linker_2, # of connection points: 2
#     Edge 24, Type (0, 1), BuildingBlock: XUDNAN_clean_linker_2, # of connection points: 2
#     Edge 25, Type (0, 1), BuildingBlock: XUDNAN_clean_linker_2, # of connection points: 2
#     Edge 26, Type (0, 1), BuildingBlock: XUDNAN_clean_linker_2, # of connection points: 2
#     Edge 27, Type (0, 1), BuildingBlock: XUDNAN_clean_linker_2, # of connection points: 2
#     Edge 28, Type (0, 1), BuildingBlock: XUDNAN_clean_linker_2, # of connection points: 2
#     Edge 29, Type (0, 1), BuildingBlock: XUDNAN_clean_linker_2, # of connection points: 2
#     Edge 30, Type (0, 1), BuildingBlock: XUDNAN_clean_linker_2, # of connection points: 2
#     Edge 31, Type (0, 1), BuildingBlock: XUDNAN_clean_linker_2, # of connection points: 2
#     Edge 32, Type (0, 1), BuildingBlock: XUDNAN_clean_linker_2, # of connection points: 2
#     Edge 33, Type (0, 1), BuildingBlock: XUDNAN_clean_linker_2, # of connection points: 2
#     Edge 34, Type (0, 1), BuildingBlock: XUDNAN_clean_linker_2, # of connection points: 2
#     Edge 35, Type (0, 1), BuildingBlock: XUDNAN_clean_linker_2, # of connection points: 2
#     Edge 36, Type (0, 1), BuildingBlock: XUDNAN_clean_linker_2, # of connection points: 2
#     Edge 37, Type (0, 1), BuildingBlock: XUDNAN_clean_linker_2, # of connection points: 2
#     Edge 38, Type (0, 1), BuildingBlock: XUDNAN_clean_linker_2, # of connection points: 2
#     Edge 39, Type (0, 1), BuildingBlock: XUDNAN_clean_linker_2, # of connection points: 2
#     Edge 40, Type (0, 1), BuildingBlock: XUDNAN_clean_linker_2, # of connection points: 2
#     Edge 41, Type (0, 1), BuildingBlock: XUDNAN_clean_linker_2, # of connection points: 2
#     Edge 42, Type (0, 1), BuildingBlock: XUDNAN_clean_linker_2, # of connection points: 2
#     Edge 43, Type (0, 1), BuildingBlock: XUDNAN_clean_linker_2, # of connection points: 2
# Relax obj value: 0.180
# Max RMSD: 0.272
# Mean RMSD: 0.223
data_MOF--net-sqc--node1-TAGTUT_clean_sbu_3--node2-GIZVER_clean_linker_0--edge1-XUDNAN_clean_linker_2
_symmetry_space_group_name_H-M    P1
_symmetry_Int_Tables_number       1
_symmetry_cell_setting            triclinic
loop_
_symmetry_equiv_pos_as_xyz
'x, y, z'
_cell_length_a     24.844603
_cell_length_b     24.782022
_cell_length_c     70.586269
_cell_angle_alpha  90.442994
_cell_angle_beta   90.019414
_cell_angle_gamma 89.452293
loop_
_atom_site_label
_atom_site_type_symbol
_atom_site_fract_x
_atom_site_fract_y
_atom_site_fract_z
_atom_type_partial_charge
H0 H 0.02576 0.99534 0.44649 0.0
H1 H 0.01046 0.09545 0.49652 0.0
H2 H 0.89688 0.9698 0.48583 0.0
H3 H 0.06833 0.08429 0.44816 0.0
H4 H 0.0645 0.12473 0.46913 0.0
H5 H 0.14761 0.03045 0.44252 0.0
H6 H 0.27114 0.02665 0.48478 0.0
H7 H 0.11662 0.09573 0.49838 0.0
C8 C 0.00586 0.00491 0.45978 0.0
C9 C 0.96006 0.97607 0.46516 0.0
C10 C 0.02463 0.04784 0.47108 0.0
C11 C 0.99726 0.06146 0.48802 0.0
C12 C 0.95192 0.03207 0.49366 0.0
C13 C 0.93405 0.98976 0.48215 0.0
C14 C 0.06982 0.08254 0.4639 0.0
C15 C 0.12437 0.06189 0.47017 0.0
C16 C 0.15994 0.03684 0.45708 0.0
C17 C 0.21294 0.02421 0.46252 0.0
C18 C 0.22936 0.03438 0.48108 0.0
C19 C 0.19548 0.06074 0.49405 0.0
C20 C 0.14258 0.07374 0.48863 0.0
H21 H 0.40982 0.73266 0.7186 0.0
H22 H 0.33378 0.79454 0.76908 0.0
H23 H 0.3225 0.88257 0.71723 0.0
H24 H 0.43982 0.71461 0.75572 0.0
H25 H 0.38451 0.71524 0.77163 0.0
H26 H 0.44257 0.65173 0.72803 0.0
H27 H 0.35306 0.50663 0.73445 0.0
H28 H 0.31852 0.6431 0.77062 0.0
C29 C 0.38424 0.7622 0.72551 0.0
C30 C 0.36765 0.80819 0.7154 0.0
C31 C 0.37053 0.75592 0.74477 0.0
C32 C 0.34086 0.79715 0.75398 0.0
C33 C 0.32426 0.84353 0.74413 0.0
C34 C 0.33554 0.84694 0.72473 0.0
C35 C 0.39529 0.71078 0.7564 0.0
C36 C 0.38041 0.6549 0.7495 0.0
C37 C 0.40989 0.63039 0.73469 0.0
C38 C 0.39837 0.57775 0.72878 0.0
C39 C 0.35883 0.54865 0.73825 0.0
C40 C 0.32997 0.57125 0.75344 0.0
C41 C 0.34029 0.62505 0.75884 0.0
H42 H 0.69603 0.03502 0.03372 0.0
H43 H 0.71488 0.12778 0.9828 0.0
H44 H 0.80357 0.98028 0.98961 0.0
H45 H 0.6679 0.13335 0.03184 0.0
H46 H 0.6679 0.16698 0.00946 0.0
H47 H 0.59598 0.07384 0.04037 0.0
H48 H 0.4611 0.05515 0.00292 0.0
H49 H 0.60106 0.14114 0.98443 0.0
C50 C 0.71318 0.03957 0.01971 0.0
C51 C 0.75014 1.00087 0.01276 0.0
C52 C 0.69961 0.08511 0.00882 0.0
C53 C 0.72348 0.09188 -0.009 0.0
C54 C 0.76019 0.05351 0.98408 0.0
C55 C 0.77268 0.00795 -0.00524 0.0
C56 C 0.66122 0.12739 0.01637 0.0
C57 C 0.60437 0.10967 0.01282 0.0
C58 C 0.57688 0.08099 0.0268 0.0
C59 C 0.52477 0.06216 0.02343 0.0
C60 C 0.50059 0.07157 0.00578 0.0
C61 C 0.52733 0.10038 -0.0084 0.0
C62 C 0.57963 0.11904 -0.0048 0.0
H63 H 0.15737 0.24259 0.24412 0.0
H64 H 0.28718 0.26173 0.28355 0.0
H65 H 0.26817 0.11164 0.25404 0.0
H66 H 0.1629 0.32447 0.2603 0.0
H67 H 0.18978 0.31679 0.28346 0.0
H68 H 0.20853 0.38122 0.23717 0.0
H69 H 0.33745 0.48049 0.25771 0.0
H70 H 0.28005 0.35028 0.29157 0.0
C71 C 0.19322 0.22642 0.25078 0.0
C72 C 0.20972 0.17282 0.24708 0.0
C73 C 0.22167 0.25929 0.26354 0.0
C74 C 0.26614 0.23738 0.27327 0.0
C75 C 0.28285 0.18369 0.27013 0.0
C76 C 0.25498 0.15253 0.25671 0.0
C77 C 0.2007 0.31548 0.26818 0.0
C78 C 0.24145 0.35912 0.2644 0.0
C79 C 0.23884 0.39012 0.24776 0.0
C80 C 0.27364 0.43408 0.24519 0.0
C81 C 0.3123 0.44524 0.25914 0.0
C82 C 0.31522 0.41489 0.2758 0.0
C83 C 0.2795 0.37218 0.27835 0.0
H84 H 0.65315 0.25073 0.23587 0.0
H85 H 0.73352 0.25253 0.18183 0.0
H86 H 0.74936 0.38663 0.21986 0.0
H87 H 0.634 0.18179 0.21164 0.0
H88 H 0.66622 0.18327 0.18896 0.0
H89 H 0.66006 0.10734 0.23024 0.0
H90 H 0.81614 0.03358 0.2247 0.0
H91 H 0.77508 0.16964 0.19031 0.0
C92 C 0.67891 0.27096 0.22585 0.0
C93 C 0.69758 0.32344 0.2298 0.0
C94 C 0.69283 0.24458 0.20872 0.0
C95 C 0.72431 0.2716 0.19532 0.0
C96 C 0.74363 0.32332 0.19923 0.0
C97 C 0.73136 0.34803 0.21658 0.0
C98 C 0.67321 0.18827 0.20443 0.0
C99 C 0.714 0.14609 0.21053 0.0
C100 C 0.69998 0.10707 0.22405 0.0
C101 C 0.73705 0.06671 0.22921 0.0
C102 C 0.78839 0.06611 0.2212 0.0
C103 C 0.80232 0.10295 0.20717 0.0
C104 C 0.76493 0.14264 0.20171 0.0
H105 H 0.72482 0.71833 0.72938 0.0
H106 H 0.79693 0.75747 0.78332 0.0
H107 H 0.80767 0.59688 0.76166 0.0
H108 H 0.71405 0.80724 0.74155 0.0
H109 H 0.72076 0.81474 0.76648 0.0
H110 H 0.75786 0.87281 0.7237 0.0
H111 H 0.88255 0.97024 0.74794 0.0
H112 H 0.81754 0.83991 0.77959 0.0
C113 C 0.74913 0.70692 0.74147 0.0
C114 C 0.7623 0.65203 0.74431 0.0
C115 C 0.7642 0.74662 0.75502 0.0
C116 C 0.79067 0.72982 0.77168 0.0
C117 C 0.80582 0.67586 0.77409 0.0
C118 C 0.79401 0.63826 0.75994 0.0
C119 C 0.74355 0.80438 0.75336 0.0
C120 C 0.7871 0.84682 0.75101 0.0
C121 C 0.787 0.88002 0.73483 0.0
C122 C 0.82031 0.92569 0.73392 0.0
C123 C 0.85678 0.93533 0.74869 0.0
C124 C 0.85541 0.9053 0.76538 0.0
C125 C 0.82074 0.86087 0.76634 0.0
H126 H 0.50021 0.49491 0.03382 0.0
H127 H 0.49666 0.36109 -0.00586 0.0
H128 H 0.35536 0.45802 0.00318 0.0
H129 H 0.56383 0.41261 0.03615 0.0
H130 H 0.56849 0.36624 0.01684 0.0
H131 H 0.6172 0.49224 0.03674 0.0
H132 H 0.73219 0.5149 -0.00754 0.0
H133 H 0.60818 0.39667 0.98533 0.0
C134 C 0.4791 0.47103 0.02332 0.0
C135 C 0.42499 0.48319 0.019 0.0
C136 C 0.50562 0.42709 0.01425 0.0
C137 C 0.47727 0.39549 0.00094 0.0
C138 C 0.42294 0.40656 -0.00277 0.0
C139 C 0.39763 0.45032 0.0061 0.0
C140 C 0.56132 0.40952 0.02044 0.0
C141 C 0.60559 0.44254 0.01166 0.0
C142 C 0.63104 0.48301 0.0225 0.0
C143 C 0.67703 0.5084 0.01554 0.0
C144 C 0.69579 0.49573 -0.00254 0.0
C145 C 0.67123 0.4561 0.98634 0.0
C146 C 0.62611 0.42904 -0.0065 0.0
H147 H 0.21796 0.56798 0.53416 0.0
H148 H 0.22498 0.66874 0.4849 0.0
H149 H 0.34592 0.54686 0.49355 0.0
H150 H 0.16896 0.65714 0.53224 0.0
H151 H 0.16781 0.69406 0.51065 0.0
H152 H 0.10849 0.58464 0.53724 0.0
H153 H 0.97324 0.57177 0.49958 0.0
H154 H 0.1153 0.65698 0.48251 0.0
C155 C 0.23669 0.57799 0.52079 0.0
C156 C 0.28445 0.55146 0.51512 0.0
C157 C 0.2149 0.62006 0.50977 0.0
C158 C 0.2408 0.63526 0.49307 0.0
C159 C 0.28839 0.60945 0.48734 0.0
C160 C 0.30882 0.56649 0.49801 0.0
C161 C 0.16721 0.65255 0.51656 0.0
C162 C 0.11549 0.62588 0.51084 0.0
C163 C 0.08906 0.59325 0.52385 0.0
C164 C 0.03781 0.57293 0.51988 0.0
C165 C 0.01419 0.58418 0.50222 0.0
C166 C 0.04203 0.6129 0.4882 0.0
C167 C 0.09296 0.63402 0.49279 0.0
C168 C 0.15017 0.68023 0.14762 0.0
C169 C 0.96065 0.59824 0.13873 0.0
C170 C 0.958 0.68472 0.08748 0.0
Mg171 Mg 0.20114 0.79077 0.1305 0.0
Mg172 Mg 0.13227 0.88262 0.10618 0.0
O173 O 0.14536 0.81037 0.11117 0.0
Mg174 Mg 0.08871 0.76137 0.11999 0.0
O175 O 0.03688 0.70718 0.12903 0.0
Mg176 Mg 0.06642 0.64504 0.11386 0.0
Mg177 Mg 0.96288 0.71956 0.12904 0.0
C178 C 0.02732 0.83806 0.08753 0.0
O179 O 0.04675 0.82424 0.13928 0.0
O180 O 0.25871 0.84774 0.11396 0.0
O181 O 0.9599 0.79955 0.14184 0.0
O182 O 0.17557 0.86473 0.15074 0.0
O183 O 0.20968 0.90371 0.09572 0.0
O184 O 0.12345 0.91782 0.13279 0.0
O185 O 0.13036 0.7005 0.10044 0.0
O186 O 0.21499 0.72067 0.10969 0.0
C187 C 0.18177 0.69187 0.10003 0.0
C188 C 0.25506 0.88539 0.10158 0.0
O189 O 0.03355 0.79275 0.09596 0.0
O190 O 0.00459 0.59279 0.12935 0.0
O191 O 0.05894 0.87802 0.08997 0.0
O192 O 1.00095 0.65589 0.08963 0.0
O193 O 0.93776 0.64433 0.14139 0.0
O194 O 0.94041 0.71616 0.10044 0.0
O195 O 0.14202 0.73077 0.14416 0.0
O196 O 0.12562 0.64274 0.13848 0.0
C197 C 0.14557 0.90697 0.14854 0.0
C198 C 0.99831 0.83277 0.14488 0.0
C199 C 0.71938 0.81586 0.3729 0.0
C200 C 0.79422 0.63649 0.38105 0.0
C201 C 0.68368 0.5834 0.33521 0.0
Mg202 Mg 0.60789 0.8658 0.35872 0.0
Mg203 Mg 0.49495 0.79942 0.35188 0.0
O204 O 0.56908 0.80091 0.34877 0.0
Mg205 Mg 0.62064 0.74452 0.35779 0.0
O206 O 0.67785 0.69425 0.36627 0.0
Mg207 Mg 0.73271 0.70827 0.34627 0.0
Mg208 Mg 0.67104 0.62537 0.37634 0.0
C209 C 0.51627 0.67552 0.34223 0.0
O210 O 0.57417 0.72508 0.38474 0.0
O211 O 0.54634 0.91811 0.34246 0.0
O212 O 0.59969 0.64114 0.39357 0.0
O213 O 0.5503 0.87631 0.38484 0.0
O214 O 0.47368 0.86882 0.33477 0.0
O215 O 0.47931 0.82306 0.38023 0.0
O216 O 0.66863 0.76036 0.33056 0.0
O217 O 0.65961 0.8507 0.33274 0.0
C218 C 0.67823 0.80815 0.32449 0.0
C219 C 0.50042 0.91284 0.3344 0.0
O220 O 0.56767 0.67947 0.34366 0.0
O221 O 0.79448 0.66384 0.36565 0.0
O222 O 0.48339 0.7148 0.34548 0.0
O223 O 0.70852 0.62685 0.33068 0.0
O224 O 0.75072 0.61854 0.38832 0.0
O225 O 0.66503 0.57597 0.35181 0.0
O226 O 0.66831 0.80896 0.37341 0.0
O227 O 0.75028 0.78493 0.36308 0.0
C228 C 0.50463 0.85772 0.39011 0.0
C229 C 0.56972 0.68345 0.39529 0.0
C230 C 0.68614 0.15272 0.63242 0.0
C231 C 0.50202 0.06521 0.62796 0.0
C232 C 0.47701 0.17003 0.58008 0.0
Mg233 Mg 0.73151 0.26813 0.61965 0.0
Mg234 Mg 0.66082 0.37284 0.60495 0.0
O235 O 0.66874 0.2985 0.60544 0.0
Mg236 Mg 0.61364 0.24391 0.61201 0.0
O237 O 0.56512 0.18358 0.61878 0.0
Mg238 Mg 0.59381 0.12759 0.6006 0.0
Mg239 Mg 0.49103 0.18966 0.62274 0.0
C240 C 0.54715 0.34081 0.588 0.0
O241 O 0.57649 0.29248 0.6363 0.0
O242 O 0.78543 0.33099 0.60504 0.0
O243 O 0.49154 0.26297 0.64037 0.0
O244 O 0.71932 0.32996 0.64497 0.0
O245 O 0.73332 0.39293 0.59053 0.0
O246 O 0.67044 0.39878 0.63336 0.0
O247 O 0.64895 0.19283 0.58763 0.0
O248 O 0.73573 0.21211 0.59405 0.0
C249 C 0.6998 0.1876 0.58425 0.0
C250 C 0.77926 0.37192 0.59425 0.0
O251 O 0.5517 0.29085 0.59285 0.0
O252 O 0.54208 0.0659 0.61652 0.0
O253 O 0.58278 0.37636 0.59188 0.0
O254 O 0.5214 0.14293 0.57975 0.0
O255 O 0.47644 0.10828 0.63297 0.0
O256 O 0.46028 0.19505 0.59481 0.0
O257 O 0.67477 0.20345 0.63168 0.0
O258 O 0.66085 0.11817 0.62224 0.0
C259 C 0.69658 0.37658 0.64678 0.0
C260 C 0.53006 0.29567 0.64419 0.0
C261 C 0.1872 0.30611 0.89425 0.0
C262 C 0.27328 0.13186 0.88615 0.0
C263 C 0.1844 0.11425 0.83265 0.0
Mg264 Mg 0.07774 0.36295 0.88061 0.0
Mg265 Mg 0.96928 0.29714 0.86706 0.0
O266 O 0.04357 0.30383 0.86519 0.0
Mg267 Mg 0.09687 0.24438 0.86956 0.0
O268 O 0.15635 0.19181 0.87381 0.0
Mg269 Mg 0.21483 0.22567 0.85851 0.0
Mg270 Mg 0.15397 0.11696 0.87503 0.0
C271 C 0.99829 0.18568 0.84598 0.0
O272 O 0.04671 0.19834 0.89163 0.0
O273 O 0.01932 0.42179 0.8661 0.0
O274 O 0.07668 0.11175 0.88913 0.0
O275 O 0.01274 0.35786 0.90455 0.0
O276 O 0.94813 0.37535 0.85527 0.0
O277 O 0.94816 0.30028 0.89632 0.0
O278 O 0.14979 0.28378 0.84663 0.0
O279 O 0.13668 0.36924 0.85618 0.0
C280 C 0.15867 0.33451 0.84508 0.0
C281 C 0.97415 0.41959 0.85735 0.0
O282 O 0.04956 0.19081 0.84809 0.0
O283 O 0.2761 0.16991 0.87397 0.0
O284 O 0.9637 0.21954 0.85278 0.0
O285 O 0.20424 0.16159 0.83461 0.0
O286 O 0.2293 0.10756 0.88991 0.0
O287 O 0.16172 0.08997 0.84633 0.0
O288 O 0.13648 0.29785 0.89248 0.0
O289 O 0.22146 0.28471 0.88288 0.0
C290 C 0.9683 0.33385 0.908 0.0
C291 C 0.04323 0.14765 0.89524 0.0
H292 H 0.2311 0.92714 0.44412 0.0
H293 H 0.29319 0.08875 0.45154 0.0
H294 H 0.37874 0.06081 0.43648 0.0
H295 H 0.35052 0.85446 0.45319 0.0
H296 H 0.34084 0.80455 0.43478 0.0
H297 H 0.28349 0.83769 0.44544 0.0
H298 H 0.25138 0.868 0.4121 0.0
H299 H 0.30865 0.83389 0.40172 0.0
H300 H 0.29689 0.90445 0.3971 0.0
H301 H 0.46028 0.01367 0.42362 0.0
H302 H 0.52582 0.95576 0.40661 0.0
H303 H 0.41056 0.82502 0.40655 0.0
C304 C 0.2621 0.95687 0.44192 0.0
C305 C 0.25571 0.01014 0.44878 0.0
C306 C 0.29741 0.04791 0.4461 0.0
C307 C 0.3463 0.03227 0.43781 0.0
C308 C 0.3526 0.97881 0.43206 0.0
C309 C 0.31118 0.94206 0.43339 0.0
C310 C 0.32839 0.88753 0.42551 0.0
C311 C 0.32563 0.8435 0.44067 0.0
C312 C 0.29433 0.87261 0.40807 0.0
C313 C 0.38618 0.89917 0.42007 0.0
C314 C 0.39946 0.95191 0.42415 0.0
C315 C 0.45032 0.97231 0.42021 0.0
C316 C 0.48762 0.93883 0.41077 0.0
C317 C 0.47354 0.88578 0.4052 0.0
C318 C 0.42285 0.86525 0.41068 0.0
H319 H 0.32029 0.86567 0.68632 0.0
H320 H 0.46979 0.78545 0.70209 0.0
H321 H 0.51612 0.83149 0.67624 0.0
H322 H 0.34887 0.88875 0.63427 0.0
H323 H 0.31999 0.95565 0.6357 0.0
H324 H 0.29409 0.90262 0.65038 0.0
H325 H 0.31035 0.96212 0.68012 0.0
H326 H 0.33722 0.01478 0.66569 0.0
H327 H 0.37695 0.9873 0.68476 0.0
H328 H 0.55068 0.89903 0.65344 0.0
H329 H 0.57082 0.98292 0.63639 0.0
H330 H 0.40256 0.03048 0.63951 0.0
C331 C 0.36253 0.85662 0.68414 0.0
C332 C 0.39112 0.82196 0.69654 0.0
C333 C 0.44621 0.8108 0.69276 0.0
C334 C 0.47321 0.83728 0.67811 0.0
C335 C 0.44484 0.87516 0.66743 0.0
C336 C 0.39055 0.88472 0.67023 0.0
C337 C 0.37162 0.93456 0.6597 0.0
C338 C 0.33126 0.91948 0.64408 0.0
C339 C 0.34767 0.97718 0.67339 0.0
C340 C 0.42429 0.95313 0.65133 0.0
C341 C 0.4656 0.91718 0.65535 0.0
C342 C 0.51849 0.92694 0.64994 0.0
C343 C 0.52953 0.9748 0.64031 0.0
C344 C 0.48818 0.0131 0.63666 0.0
C345 C 0.43484 1.0018 0.6421 0.0
H346 H 0.42154 0.12683 0.98551 0.0
H347 H 0.57145 0.09415 0.95583 0.0
H348 H 0.52356 0.10134 0.92519 0.0
H349 H 0.34009 0.04686 0.9568 0.0
H350 H 0.28248 0.0916 0.95759 0.0
H351 H 0.32958 0.09085 0.97696 0.0
H352 H 0.34397 0.19374 0.97338 0.0
H353 H 0.29675 0.1952 0.95401 0.0
H354 H 0.36391 0.22024 0.95078 0.0
H355 H 0.45739 0.10915 0.89765 0.0
H356 H 0.37871 0.11536 0.87599 0.0
H357 H 0.2727 0.13367 0.92437 0.0
C358 C 0.44449 0.12134 0.97259 0.0
C359 C 0.50027 0.10972 0.97309 0.0
C360 C 0.52883 0.10371 0.95581 0.0
C361 C 0.50191 0.10744 0.93834 0.0
C362 C 0.44653 0.11726 0.93842 0.0
C363 C 0.41827 0.12439 0.95514 0.0
C364 C 0.35866 0.13183 0.95156 0.0
C365 C 0.3258 0.08764 0.9613 0.0
C366 C 0.33972 0.1886 0.95779 0.0
C367 C 0.35737 0.12571 0.93025 0.0
C368 C 0.40848 0.11865 0.92283 0.0
C369 C 0.41719 0.11416 0.90334 0.0
C370 C 0.37247 0.11737 0.89116 0.0
C371 C 0.31991 0.12329 0.89863 0.0
C372 C 0.31244 0.12731 0.91838 0.0
H373 H 0.20232 0.06047 0.24582 0.0
H374 H 0.15264 0.20511 0.21546 0.0
H375 H 0.11478 0.14843 0.19046 0.0
H376 H 0.25797 1.0012 0.20647 0.0
H377 H 0.24143 0.93264 0.21231 0.0
H378 H 0.2499 0.98191 0.23087 0.0
H379 H 0.15439 0.96149 0.24358 0.0
H380 H 0.14578 0.91172 0.22507 0.0
H381 H 0.09742 0.96588 0.22781 0.0
H382 H 0.09351 0.07978 0.16694 0.0
H383 H 0.09853 0.00542 0.14435 0.0
H384 H 0.17662 0.90434 0.18659 0.0
C385 C 0.18369 0.0809 0.23401 0.0
C386 C 0.18094 0.13814 0.23294 0.0
C387 C 0.15438 0.16184 0.21723 0.0
C388 C 0.13278 0.12979 0.20277 0.0
C389 C 0.13886 0.07402 0.20392 0.0
C390 C 0.16419 0.04964 0.219 0.0
C391 C 0.17405 0.98992 0.21515 0.0
C392 C 0.23441 0.97562 0.21626 0.0
C393 C 0.14093 0.9552 0.22871 0.0
C394 C 0.153 0.98537 0.19506 0.0
C395 C 0.13084 0.03402 0.18933 0.0
C396 C 0.11047 0.04142 0.17127 0.0
C397 C 0.11393 0.99854 0.15849 0.0
C398 C 0.13861 0.94863 0.16357 0.0
C399 C 0.15761 0.94176 0.18227 0.0
H400 H 0.2636 0.01049 0.51882 0.0
H401 H 0.18822 0.1649 0.50658 0.0
H402 H 0.25419 0.21035 0.52721 0.0
H403 H 0.30805 0.04237 0.56849 0.0
H404 H 0.37007 0.00521 0.56511 0.0
H405 H 0.3101 0.98474 0.55274 0.0
H406 H 0.36224 0.99076 0.52106 0.0
H407 H 0.42165 0.01363 0.53317 0.0
H408 H 0.39261 0.05369 0.5145 0.0
H409 H 0.33588 0.24009 0.54503 0.0
H410 H 0.41893 0.25041 0.56382 0.0
H411 H 0.44445 0.07751 0.56276 0.0
C412 C 0.25967 0.05361 0.52114 0.0
C413 C 0.22071 0.08418 0.51119 0.0
C414 C 0.21708 0.14059 0.51433 0.0
C415 C 0.25493 0.16684 0.52579 0.0
C416 C 0.29575 0.13595 0.534 0.0
C417 C 0.2976 0.08042 0.53223 0.0
C418 C 0.34784 0.05701 0.54128 0.0
C419 C 0.33313 0.02017 0.5579 0.0
C420 C 0.38314 0.02701 0.52662 0.0
C421 C 0.37455 0.10816 0.54811 0.0
C422 C 0.34378 0.15321 0.54377 0.0
C423 C 0.36 0.20506 0.54865 0.0
C424 C 0.40743 0.2107 0.55914 0.0
C425 C 0.43817 0.16502 0.5645 0.0
C426 C 0.4224 0.11324 0.55839 0.0
H427 H 0.25567 0.84645 0.77521 0.0
H428 H 0.34273 0.9505 0.73673 0.0
H429 H 0.30313 0.02997 0.75215 0.0
H430 H 0.13635 0.92868 0.78155 0.0
H431 H 0.13163 0.91762 0.80676 0.0
H432 H 0.16122 0.86671 0.79157 0.0
H433 H 0.24889 0.86675 0.81111 0.0
H434 H 0.21952 0.91613 0.82691 0.0
H435 H 0.28289 0.92954 0.81554 0.0
H436 H 0.25981 0.09887 0.77251 0.0
H437 H 0.2249 0.15276 0.79937 0.0
H438 H 0.17053 0.00588 0.82627 0.0
C439 C 0.26622 0.88584 0.76992 0.0
C440 C 0.30069 0.89149 0.75414 0.0
C441 C 0.31417 0.94426 0.74806 0.0
C442 C 0.29221 0.99007 0.75685 0.0
C443 C 0.25774 0.98299 0.77207 0.0
C444 C 0.24571 0.93236 0.77887 0.0
C445 C 0.21261 0.9365 0.79683 0.0
C446 C 0.1571 0.91091 0.79401 0.0
C447 C 0.24279 0.91073 0.81358 0.0
C448 C 0.20842 0.99736 0.79907 0.0
C449 C 0.23412 0.02329 0.78445 0.0
C450 C 0.23911 0.07921 0.784 0.0
C451 C 0.21914 0.10949 0.79932 0.0
C452 C 0.19495 0.08369 0.81494 0.0
C453 C 0.18812 0.027 0.81445 0.0
H454 H 0.4194 0.07543 0.03327 0.0
H455 H 0.56292 0.98236 0.04686 0.0
H456 H 0.51096 0.93044 0.07032 0.0
H457 H 0.36206 0.07964 0.08078 0.0
H458 H 0.29417 0.07291 0.07212 0.0
H459 H 0.34409 0.10554 0.05781 0.0
H460 H 0.32467 0.03875 0.03022 0.0
H461 H 0.2748 0.00594 0.04444 0.0
H462 H 0.32961 0.96717 0.03435 0.0
H463 H 0.441 0.88481 0.09074 0.0
H464 H 0.3594 0.84929 0.10615 0.0
H465 H 0.26287 0.97217 0.07819 0.0
C466 C 0.44001 0.04423 0.04121 0.0
C467 C 0.49508 0.0328 0.03825 0.0
C468 C 0.52079 0.99211 0.04908 0.0
C469 C 0.49161 0.96236 0.06237 0.0
C470 C 0.43701 0.97412 0.06468 0.0
C471 C 0.41161 0.01425 0.05442 0.0
C472 C 0.35218 0.01749 0.05877 0.0
C473 C 0.33727 0.07214 0.06792 0.0
C474 C 0.31835 0.00667 0.04088 0.0
C475 C 0.34771 0.97208 0.07279 0.0
C476 C 0.39702 0.9478 0.07621 0.0
C477 C 0.40224 0.90379 0.08828 0.0
C478 C 0.35569 0.88391 0.09696 0.0
C479 C 0.30469 0.90786 0.09337 0.0
C480 C 0.30113 0.95283 0.08126 0.0
H481 H 0.3552 0.10301 0.25963 0.0
H482 H 0.30747 0.20376 0.30762 0.0
H483 H 0.36768 0.15122 0.32816 0.0
H484 H 0.34247 0.98391 0.28429 0.0
H485 H 0.39714 0.9488 0.27261 0.0
H486 H 0.36133 1.00171 0.2605 0.0
H487 H 0.45072 0.05222 0.25491 0.0
H488 H 0.48702 0.99913 0.26686 0.0
H489 H 0.49347 0.06807 0.27479 0.0
H490 H 0.42509 0.08244 0.34431 0.0
H491 H 0.47207 0.99981 0.35513 0.0
H492 H 0.47042 0.93572 0.29785 0.0
C493 C 0.3573 0.11457 0.27442 0.0
C494 C 0.32602 0.15796 0.28185 0.0
C495 C 0.33158 0.17182 0.30129 0.0
C496 C 0.36548 0.14181 0.31319 0.0
C497 C 0.39313 0.09759 0.30555 0.0
C498 C 0.38924 0.08384 0.28662 0.0
C499 C 0.41705 0.03034 0.28244 0.0
C500 C 0.37711 0.98875 0.2745 0.0
C501 C 0.46491 0.03791 0.26895 0.0
C502 C 0.4359 0.01537 0.30211 0.0
C503 C 0.42297 0.05552 0.31512 0.0
C504 C 0.43565 0.05091 0.33425 0.0
C505 C 0.46211 0.00396 0.34026 0.0
C506 C 0.47427 0.96188 0.32727 0.0
C507 C 0.46114 0.96752 0.30798 0.0
H508 H 0.91242 0.13266 0.50328 0.0
H509 H 0.91314 0.96533 0.52084 0.0
H510 H 0.84019 0.98534 0.54365 0.0
H511 H 0.88651 0.18981 0.55079 0.0
H512 H 0.8449 0.2435 0.54157 0.0
H513 H 0.89856 0.21547 0.52736 0.0
H514 H 0.82964 0.19594 0.50064 0.0
H515 H 0.7755 0.22207 0.5151 0.0
H516 H 0.77211 0.15452 0.50555 0.0
H517 H 0.76331 0.0222 0.5632 0.0
H518 H 0.70073 0.07786 0.58276 0.0
H519 H 0.75137 0.2208 0.55303 0.0
C520 C 0.89832 0.10067 0.51233 0.0
C521 C 0.91831 0.04742 0.51028 0.0
C522 C 0.89818 0.00639 0.52218 0.0
C523 C 0.85647 0.01724 0.53504 0.0
C524 C 0.8356 0.06948 0.53601 0.0
C525 C 0.8568 0.11088 0.52537 0.0
C526 C 0.82778 0.16371 0.52946 0.0
C527 C 0.86674 0.20557 0.5378 0.0
C528 C 0.79959 0.1853 0.51162 0.0
C529 C 0.78714 0.14546 0.54402 0.0
C530 C 0.79165 0.09078 0.54739 0.0
C531 C 0.75918 0.06504 0.56064 0.0
C532 C 0.72314 0.09662 0.57146 0.0
C533 C 0.72037 0.15303 0.56892 0.0
C534 C 0.75165 0.17737 0.55472 0.0
H535 H 0.78596 0.03398 0.26167 0.0
H536 H 0.65595 0.99523 0.22315 0.0
H537 H 0.64075 0.90971 0.24029 0.0
H538 H 0.83722 0.8973 0.26838 0.0
H539 H 0.85083 0.90772 0.29322 0.0
H540 H 0.85424 0.96358 0.27706 0.0
H541 H 0.78462 0.01796 0.29718 0.0
H542 H 0.78316 0.96325 0.3137 0.0
H543 H 0.72142 0.9872 0.30313 0.0
H544 H 0.63843 0.83016 0.26227 0.0
H545 H 0.6337 0.77583 0.29141 0.0
H546 H 0.76439 0.86747 0.31562 0.0
C547 C 0.7541 0.0075 0.25697 0.0
C548 C 0.72186 0.02089 0.24123 0.0
C549 C 0.68047 0.9857 0.23539 0.0
C550 C 0.67231 0.93673 0.2448 0.0
C551 C 0.706 0.92382 0.25996 0.0
C552 C 0.7452 0.95889 0.26627 0.0
C553 C 0.77233 0.9385 0.28402 0.0
C554 C 0.83221 0.92604 0.28044 0.0
C555 C 0.76488 0.9791 0.30047 0.0
C556 C 0.74106 0.88725 0.28715 0.0
C557 C 0.70421 0.87844 0.27277 0.0
C558 C 0.66762 0.83614 0.27345 0.0
C559 C 0.66581 0.80478 0.28991 0.0
C560 C 0.6995 0.81699 0.30547 0.0
C561 C 0.73966 0.85633 0.30359 0.0
H562 H 0.78464 0.01146 0.04921 0.0
H563 H 0.77049 0.8952 0.00334 0.0
H564 H 0.83326 0.8338 0.01989 0.0
H565 H 0.91531 0.00319 0.0557 0.0
H566 H 0.91714 0.00699 0.08122 0.0
H567 H 0.8612 0.03569 0.0686 0.0
H568 H 0.79554 0.97798 0.08791 0.0
H569 H 0.85064 0.94736 0.10069 0.0
H570 H 0.80343 0.9056 0.0882 0.0
H571 H 0.91204 0.79539 0.03757 0.0
H572 H 0.99227 0.77717 0.05761 0.0
H573 H 0.95454 0.91866 0.09165 0.0
C574 C 0.79244 0.97188 0.04315 0.0
C575 C 0.77281 0.95802 0.02502 0.0
C576 C 0.78527 0.90653 0.01723 0.0
C577 C 0.82083 0.8714 0.02653 0.0
C578 C 0.84264 0.88796 0.04377 0.0
C579 C 0.8277 0.93632 0.05231 0.0
C580 C 0.86086 0.94716 0.0699 0.0
C581 C 0.89037 1.00144 0.06876 0.0
C582 C 0.82551 0.94439 0.08773 0.0
C583 C 0.89971 0.89993 0.06896 0.0
C584 C 0.88787 0.86548 0.05407 0.0
C585 C 0.92087 0.8213 0.04956 0.0
C586 C 0.96634 0.81137 0.06089 0.0
C587 C 0.97895 0.84659 0.07603 0.0
C588 C 0.94526 0.89116 0.08012 0.0
H589 H 0.95436 0.95476 0.76867 0.0
H590 H 0.81243 0.91205 0.801 0.0
H591 H 0.84203 0.97072 0.82699 0.0
H592 H 0.0486 0.97795 0.81045 0.0
H593 H 0.07826 0.03489 0.79877 0.0
H594 H 0.05313 0.9791 0.78494 0.0
H595 H 0.99406 0.04613 0.76601 0.0
H596 H 0.01743 0.10154 0.7803 0.0
H597 H 0.94633 0.08857 0.77849 0.0
H598 H 0.87284 0.04832 0.84556 0.0
H599 H 0.91127 0.13215 0.85822 0.0
H600 H 0.03584 0.12649 0.81516 0.0
C601 C 0.93046 0.95632 0.78149 0.0
C602 C 0.88111 0.92824 0.78272 0.0
C603 C 0.85093 0.93177 0.79973 0.0
C604 C 0.86718 0.96559 0.81458 0.0
C605 C 0.91391 0.99543 0.81233 0.0
C606 C 0.94587 0.99045 0.79641 0.0
C607 C 0.99056 0.03192 0.79664 0.0
C608 C 0.04597 0.00428 0.79779 0.0
C609 C 0.98683 0.06923 0.77934 0.0
C610 C 0.9774 0.06222 0.81482 0.0
C611 C 0.93295 0.04029 0.82358 0.0
C612 C 0.90867 0.06483 0.8392 0.0
C613 C 0.93052 0.11274 0.84616 0.0
C614 C 0.97691 0.13528 0.83781 0.0
C615 C 0.00109 0.10934 0.82205 0.0
H616 H 0.9442 0.98422 0.4267 0.0
H617 H 0.91436 0.88021 0.47472 0.0
H618 H 0.84589 0.83163 0.45624 0.0
H619 H 0.81634 0.99898 0.41061 0.0
H620 H 0.82974 0.99316 0.38558 0.0
H621 H 0.88139 0.01687 0.40138 0.0
H622 H 0.94687 0.94134 0.39002 0.0
H623 H 0.89628 0.91879 0.37354 0.0
H624 H 0.92521 0.87212 0.39024 0.0
H625 H 0.76932 0.80772 0.43541 0.0
H626 H 0.70719 0.78718 0.4091 0.0
H627 H 0.79356 0.89711 0.37285 0.0
C628 C 0.92503 0.94975 0.43306 0.0
C629 C 0.93362 0.93683 0.45231 0.0
C630 C 0.90739 0.89159 0.46013 0.0
C631 C 0.86835 0.86386 0.44979 0.0
C632 C 0.8576 0.88054 0.43141 0.0
C633 C 0.8869 0.92048 0.42272 0.0
C634 C 0.86736 0.92974 0.40264 0.0
C635 C 0.84754 0.98816 0.39991 0.0
C636 C 0.91155 0.91457 0.38826 0.0
C637 C 0.82105 0.89047 0.40179 0.0
C638 C 0.81566 0.86335 0.4187 0.0
C639 C 0.77375 0.82773 0.42193 0.0
C640 C 0.7381 0.81717 0.40707 0.0
C641 C 0.7454 0.84131 0.38918 0.0
C642 C 0.78687 0.87895 0.38654 0.0
H643 H 0.80854 0.07606 0.17018 0.0
H644 H 0.90499 0.09758 0.22062 0.0
H645 H 0.97728 0.04142 0.2065 0.0
H646 H 0.82421 0.94949 0.1653 0.0
H647 H 0.83042 0.94288 0.13993 0.0
H648 H 0.79599 1.00022 0.14991 0.0
H649 H 0.85912 0.06468 0.13234 0.0
H650 H 0.89499 0.00816 0.12196 0.0
H651 H 0.931 0.05844 0.13524 0.0
H652 H 0.02388 0.96271 0.19194 0.0
H653 H 0.0478 0.87685 0.17565 0.0
H654 H 0.92001 0.9039 0.13503 0.0
C655 C 0.84653 0.07202 0.17759 0.0
C656 C 0.85187 0.09158 0.19628 0.0
C657 C 0.9009 0.08365 0.2061 0.0
C658 C 0.94197 0.05154 0.19822 0.0
C659 C 0.93345 0.02833 0.18043 0.0
C660 C 0.88759 0.03956 0.16992 0.0
C661 C 0.88407 0.00301 0.15266 0.0
C662 C 0.83053 0.97209 0.15195 0.0
C663 C 0.89279 0.0355 0.13447 0.0
C664 C 0.93131 0.96564 0.15632 0.0
C665 C 0.9605 0.982 0.172 0.0
C666 C 0.00252 0.9506 0.17926 0.0
C667 C 0.01558 0.90183 0.17007 0.0
C668 C 0.98573 0.88449 0.15417 0.0
C669 C 0.94344 0.91684 0.14716 0.0
H670 H 0.84875 0.11469 0.98355 0.0
H671 H 0.74718 0.0153 0.94801 0.0
H672 H 0.80967 0.02838 0.92096 0.0
H673 H 0.88496 0.20943 0.95005 0.0
H674 H 0.9546 0.21639 0.95686 0.0
H675 H 0.90505 0.19767 0.97419 0.0
H676 H 0.95508 0.11044 0.98259 0.0
H677 H 0.00786 0.12841 0.96638 0.0
H678 H 0.97514 0.06409 0.96404 0.0
H679 H 0.88667 0.0478 0.89882 0.0
H680 H 0.96807 0.07922 0.88209 0.0
H681 H 0.01506 0.17131 0.93166 0.0
C682 C 0.83952 0.09647 0.96994 0.0
C683 C 0.79319 0.06504 0.96747 0.0
C684 C 0.78236 0.04031 0.94981 0.0
C685 C 0.8177 0.04719 0.93454 0.0
C686 C 0.8636 0.0782 0.93746 0.0
C687 C 0.87457 0.10233 0.95473 0.0
C688 C 0.92676 0.13307 0.95429 0.0
C689 C 0.91739 0.19279 0.95914 0.0
C690 C 0.96868 0.10745 0.96761 0.0
C691 C 0.94228 0.12486 0.9338 0.0
C692 C 0.90627 0.09161 0.92448 0.0
C693 C 0.91446 0.07473 0.90584 0.0
C694 C 0.96041 0.09285 0.89645 0.0
C695 C 0.99615 0.12877 0.90552 0.0
C696 C 0.98717 0.14496 0.92438 0.0
H697 H 0.79544 0.91402 0.69577 0.0
H698 H 0.82159 0.03515 0.73958 0.0
H699 H 0.80519 0.10681 0.71659 0.0
H700 H 0.84967 0.99124 0.65543 0.0
H701 H 0.79762 0.96864 0.63953 0.0
H702 H 0.81981 0.9259 0.65861 0.0
H703 H 0.72167 0.91963 0.67088 0.0
H704 H 0.69928 0.96178 0.65176 0.0
H705 H 0.68436 0.98084 0.6759 0.0
H706 H 0.7772 0.16615 0.69004 0.0
H707 H 0.73192 0.20721 0.66241 0.0
H708 H 0.72146 0.04874 0.636 0.0
C709 C 0.7985 0.95556 0.70046 0.0
C710 C 0.8117 0.96845 0.71942 0.0
C711 C 0.81404 0.02366 0.725 0.0
C712 C 0.80443 0.06501 0.71205 0.0
C713 C 0.79184 0.05098 0.69351 0.0
C714 C 0.78838 0.99763 0.68771 0.0
C715 C 0.76834 0.99369 0.66751 0.0
C716 C 0.81145 0.96837 0.6545 0.0
C717 C 0.71527 0.96215 0.66646 0.0
C718 C 0.75969 0.05294 0.66315 0.0
C719 C 0.77435 0.08543 0.6782 0.0
C720 C 0.76622 0.14126 0.67801 0.0
C721 C 0.74063 0.1643 0.66224 0.0
C722 C 0.7231 0.13133 0.64704 0.0
C723 C 0.73462 0.07525 0.64732 0.0
H724 H 0.71316 0.35687 0.97681 0.0
H725 H 0.6973 0.52157 0.95726 0.0
H726 H 0.77466 0.50751 0.93588 0.0
H727 H 0.84662 0.35223 0.97911 0.0
H728 H 0.85996 0.28557 0.9701 0.0
H729 H 0.79647 0.30049 0.98125 0.0
H730 H 0.74152 0.27202 0.95212 0.0
H731 H 0.80297 0.25122 0.94056 0.0
H732 H 0.7582 0.29831 0.92914 0.0
H733 H 0.86477 0.48309 0.92303 0.0
H734 H 0.94633 0.44008 0.90977 0.0
H735 H 0.89966 0.28718 0.93373 0.0
C736 C 0.72393 0.38879 0.96717 0.0
C737 C 0.69934 0.4403 0.96863 0.0
C738 C 0.71553 0.48175 0.95621 0.0
C739 C 0.75984 0.47435 0.94422 0.0
C740 C 0.78633 0.42464 0.94435 0.0
C741 C 0.76749 0.38162 0.95469 0.0
C742 C 0.80472 0.33301 0.95257 0.0
C743 C 0.82826 0.31684 0.9719 0.0
C744 C 0.77514 0.28584 0.94304 0.0
C745 C 0.84788 0.35588 0.93976 0.0
C746 C 0.83703 0.40933 0.93571 0.0
C747 C 0.87303 0.44085 0.92565 0.0
C748 C 0.91985 0.41629 0.91851 0.0
C749 C 0.92963 0.36039 0.921 0.0
C750 C 0.89346 0.33001 0.93198 0.0
H751 H 0.7322 0.42776 0.18849 0.0
H752 H 0.83225 0.28528 0.18 0.0
H753 H 0.8971 0.33967 0.16174 0.0
H754 H 0.76014 0.49285 0.14252 0.0
H755 H 0.76031 0.55915 0.1532 0.0
H756 H 0.71869 0.50709 0.16295 0.0
H757 H 0.76364 0.52157 0.19573 0.0
H758 H 0.80605 0.57291 0.18605 0.0
H759 H 0.83578 0.51559 0.1978 0.0
H760 H 0.95539 0.41188 0.14787 0.0
H761 H 1.00023 0.49467 0.13736 0.0
H762 H 0.86208 0.58998 0.15597 0.0
C763 C 0.76725 0.4078 0.18244 0.0
C764 C 0.77749 0.3525 0.18559 0.0
C765 C 0.82358 0.32755 0.17751 0.0
C766 C 0.86065 0.35817 0.16725 0.0
C767 C 0.85048 0.41328 0.16516 0.0
C768 C 0.80451 0.43767 0.17232 0.0
C769 C 0.80455 0.49801 0.16934 0.0
C770 C 0.75817 0.51527 0.15622 0.0
C771 C 0.8024 0.5288 0.18836 0.0
C772 C 0.85848 0.50414 0.15979 0.0
C773 C 0.88418 0.45483 0.15737 0.0
C774 C 0.93535 0.45062 0.14947 0.0
C775 C 0.96055 0.49799 0.14363 0.0
C776 C 0.93464 0.54895 0.14581 0.0
C777 C 0.88301 0.55178 0.15408 0.0
H778 H 0.97165 0.5462 0.46898 0.0
H779 H 0.05338 0.69991 0.46408 0.0
H780 H 0.008 0.71525 0.43359 0.0
H781 H 0.96339 0.5109 0.41888 0.0
H782 H 0.89608 0.48511 0.421 0.0
H783 H 0.9416 0.48159 0.44085 0.0
H784 H 0.87233 0.5331 0.46186 0.0
H785 H 0.82652 0.53634 0.44215 0.0
H786 H 0.84643 0.59748 0.45413 0.0
H787 H 0.94944 0.71666 0.40445 0.0
H788 H 0.87537 0.70962 0.38135 0.0
H789 H 0.82406 0.56069 0.40741 0.0
C790 C 0.98026 0.58333 0.46166 0.0
C791 C 0.0168 0.62158 0.46917 0.0
C792 C 0.02692 0.66903 0.45865 0.0
C793 C 1.00101 0.67834 0.44127 0.0
C794 C 0.96458 0.6402 0.4346 0.0
C795 C 0.95371 0.59398 0.44462 0.0
C796 C 0.90849 0.5623 0.43555 0.0
C797 C 0.92862 0.50668 0.42866 0.0
C798 C 0.86062 0.55703 0.44923 0.0
C799 C 0.89476 0.59853 0.41903 0.0
C800 C 0.92857 0.6425 0.41844 0.0
C801 C 0.92302 0.6822 0.4047 0.0
C802 C 0.88097 0.67762 0.39155 0.0
C803 C 0.84416 0.63433 0.39248 0.0
C804 C 0.85185 0.5939 0.40624 0.0
H805 H 0.74854 0.64772 0.70517 0.0
H806 H 0.72612 0.5543 0.75635 0.0
H807 H 0.70752 0.47365 0.73719 0.0
H808 H 0.63685 0.5777 0.67917 0.0
H809 H 0.67154 0.58208 0.65682 0.0
H810 H 0.68097 0.63352 0.67468 0.0
H811 H 0.78411 0.61673 0.67315 0.0
H812 H 0.77487 0.56459 0.65559 0.0
H813 H 0.81045 0.54976 0.67722 0.0
H814 H 0.70571 0.3996 0.71262 0.0
H815 H 0.69981 0.34185 0.68378 0.0
H816 H 0.71046 0.48464 0.64888 0.0
C817 C 0.73854 0.61068 0.71234 0.0
C818 C 0.74107 0.60715 0.73229 0.0
C819 C 0.72694 0.55775 0.74106 0.0
C820 C 0.71586 0.51157 0.73033 0.0
C821 C 0.71678 0.51555 0.71074 0.0
C822 C 0.72569 0.56419 0.7018 0.0
C823 C 0.72288 0.55727 0.68049 0.0
C824 C 0.67522 0.58956 0.67231 0.0
C825 C 0.77626 0.57302 0.67107 0.0
C826 C 0.71338 0.49703 0.67899 0.0
C827 C 0.71054 0.47351 0.69659 0.0
C828 C 0.7064 0.41765 0.69872 0.0
C829 C 0.70356 0.38514 0.68234 0.0
C830 C 0.70355 0.40896 0.66422 0.0
C831 C 0.70897 0.46551 0.66262 0.0
H832 H 0.77725 0.48549 0.02806 0.0
H833 H 0.65402 0.61035 0.02853 0.0
H834 H 0.71872 0.67396 0.0433 0.0
H835 H 0.83711 0.51984 0.073 0.0
H836 H 0.90441 0.50357 0.06515 0.0
H837 H 0.84783 0.46958 0.05475 0.0
H838 H 0.87991 0.4995 0.02151 0.0
H839 H 0.93566 0.53506 0.03192 0.0
H840 H 0.88876 0.57026 0.01682 0.0
H841 H 0.79641 0.72266 0.05777 0.0
H842 H 0.8757 0.74973 0.07602 0.0
H843 H 0.95028 0.59338 0.06529 0.0
C844 C 0.76383 0.52607 0.0316 0.0
C845 C 0.71086 0.54337 0.02744 0.0
C846 C 0.69433 0.59656 0.03196 0.0
C847 C 0.73098 0.63291 0.04004 0.0
C848 C 0.78364 0.61507 0.04337 0.0
C849 C 0.79974 0.56262 0.03962 0.0
C850 C 0.85786 0.55287 0.04521 0.0
C851 C 0.86203 0.50889 0.06044 0.0
C852 C 0.89258 0.53858 0.02783 0.0
C853 C 0.87193 0.6079 0.0531 0.0
C854 C 0.82877 0.64336 0.05155 0.0
C855 C 0.83059 0.69546 0.05887 0.0
C856 C 0.87634 0.71069 0.06903 0.0
C857 C 0.92003 0.67416 0.07175 0.0
C858 C 0.91851 0.62282 0.06298 0.0
H859 H 0.68349 0.43318 0.23475 0.0
H860 H 0.68161 0.28197 0.26559 0.0
H861 H 0.67004 0.33302 0.29547 0.0
H862 H 0.76854 0.49856 0.26718 0.0
H863 H 0.73773 0.56419 0.26442 0.0
H864 H 0.73623 0.51615 0.24517 0.0
H865 H 0.63304 0.52508 0.24382 0.0
H866 H 0.63268 0.5721 0.26342 0.0
H867 H 0.59341 0.51146 0.26453 0.0
H868 H 0.66464 0.40018 0.32201 0.0
H869 H 0.66978 0.47779 0.34376 0.0
H870 H 0.68709 0.5856 0.29596 0.0
C871 C 0.68078 0.41037 0.24772 0.0
C872 C 0.6839 0.35314 0.24767 0.0
C873 C 0.67858 0.32553 0.26506 0.0
C874 C 0.67239 0.35426 0.28216 0.0
C875 C 0.67215 0.41053 0.28166 0.0
C876 C 0.67639 0.4383 0.26489 0.0
C877 C 0.68028 0.49867 0.26831 0.0
C878 C 0.73388 0.52066 0.26083 0.0
C879 C 0.63198 0.52859 0.25952 0.0
C880 C 0.67828 0.50057 0.28974 0.0
C881 C 0.6726 0.44929 0.29708 0.0
C882 C 0.66921 0.44043 0.31644 0.0
C883 C 0.67205 0.48498 0.32866 0.0
C884 C 0.6791 0.53791 0.32157 0.0
C885 C 0.68216 0.54568 0.3018 0.0
H886 H 0.96537 0.49066 0.51411 0.0
H887 H 0.04141 0.58517 0.55873 0.0
H888 H 0.99162 0.53444 0.58259 0.0
H889 H 0.837 0.49843 0.5347 0.0
H890 H 0.81681 0.43203 0.5271 0.0
H891 H 0.86545 0.46865 0.51353 0.0
H892 H 0.93287 0.38863 0.51647 0.0
H893 H 0.88444 0.35181 0.53016 0.0
H894 H 0.95067 0.36388 0.53961 0.0
H895 H 0.93081 0.47725 0.60169 0.0
H896 H 0.85457 0.42495 0.61441 0.0
H897 H 0.80977 0.37736 0.55741 0.0
C898 C 0.9718 0.50095 0.52886 0.0
C899 C 0.00834 0.54156 0.53439 0.0
C900 C 0.0153 0.55311 0.55397 0.0
C901 C 0.9869 0.52468 0.56771 0.0
C902 C 0.95095 0.48547 0.5617 0.0
C903 C 0.94266 0.47413 0.54274 0.0
C904 C 0.89709 0.43478 0.53996 0.0
C905 C 0.85139 0.46 0.52813 0.0
C906 C 0.91751 0.38163 0.53102 0.0
C907 C 0.88028 0.42688 0.56031 0.0
C908 C 0.91291 0.45526 0.57266 0.0
C909 C 0.90503 0.45473 0.5922 0.0
C910 C 0.86194 0.42507 0.59928 0.0
C911 C 0.82703 0.39777 0.58677 0.0
C912 C 0.83637 0.39817 0.56712 0.0
H913 H 0.77308 0.59124 0.79496 0.0
H914 H 0.8954 0.71438 0.79234 0.0
H915 H 0.94675 0.66751 0.81758 0.0
H916 H 0.78647 0.55836 0.84692 0.0
H917 H 0.77648 0.48766 0.84204 0.0
H918 H 0.74384 0.53783 0.82755 0.0
H919 H 0.78642 0.49372 0.79763 0.0
H920 H 0.81992 0.44414 0.81196 0.0
H921 H 0.85854 0.4858 0.79628 0.0
H922 H 0.99139 0.59895 0.83861 0.0
H923 H 0.02508 0.51672 0.85421 0.0
H924 H 0.87454 0.43641 0.84155 0.0
C925 C 0.80986 0.60923 0.80017 0.0
C926 C 0.83058 0.65621 0.79181 0.0
C927 C 0.87881 0.67867 0.79878 0.0
C928 C 0.90814 0.65223 0.81304 0.0
C929 C 0.8881 0.60398 0.8202 0.0
C930 C 0.83961 0.58313 0.81413 0.0
C931 C 0.83002 0.52746 0.82201 0.0
C932 C 0.78132 0.52788 0.83543 0.0
C933 C 0.82337 0.48534 0.80602 0.0
C934 C 0.88191 0.51889 0.83274 0.0
C935 C 0.91439 0.56386 0.83189 0.0
C936 C 0.96587 0.56395 0.83966 0.0
C937 C 0.98471 0.51686 0.84842 0.0
C938 C 0.95242 0.46998 0.8491 0.0
C939 C 0.90012 0.47153 0.84134 0.0
H940 H 0.41568 0.50561 0.05724 0.0
H941 H 0.3611 0.55788 0.00189 0.0
H942 H 0.28837 0.61138 0.01683 0.0
H943 H 0.29085 0.4916 0.07856 0.0
H944 H 0.30851 0.51963 0.10134 0.0
H945 H 0.35951 0.48809 0.08678 0.0
H946 H 0.41662 0.57501 0.08771 0.0
H947 H 0.36675 0.60612 0.10287 0.0
H948 H 0.38609 0.63847 0.08116 0.0
H949 H 0.21397 0.64793 0.0372 0.0
H950 H 0.15697 0.68763 0.06257 0.0
H951 H 0.26375 0.61957 0.10489 0.0
C952 C 0.38968 0.52995 0.04835 0.0
C953 C 0.39356 0.52707 0.0284 0.0
C954 C 0.35839 0.55911 0.01721 0.0
C955 C 0.31671 0.58927 0.02554 0.0
C956 C 0.31156 0.58829 0.04514 0.0
C957 C 0.34828 0.5614 0.05649 0.0
C958 C 0.33392 0.56833 0.07725 0.0
C959 C 0.32253 0.51364 0.08652 0.0
C960 C 0.37848 0.59881 0.08788 0.0
C961 C 0.28295 0.60221 0.07568 0.0
C962 C 0.27018 0.61228 0.057 0.0
C963 C 0.22389 0.64104 0.05191 0.0
C964 C 0.19128 0.66266 0.06637 0.0
C965 C 0.20587 0.65614 0.08557 0.0
C966 C 0.25157 0.62456 0.09026 0.0
H967 H 0.31935 0.56442 0.79224 0.0
H968 H 0.25987 0.49587 0.73954 0.0
H969 H 0.21702 0.42259 0.75727 0.0
H970 H 0.34792 0.4434 0.81586 0.0
H971 H 0.32377 0.46551 0.83874 0.0
H972 H 0.3491 0.51401 0.82218 0.0
H973 H 0.25946 0.56827 0.82385 0.0
H974 H 0.23459 0.52091 0.8409 0.0
H975 H 0.19683 0.53409 0.81959 0.0
H976 H 0.18783 0.3518 0.78046 0.0
H977 H 0.15552 0.30065 0.8082 0.0
H978 H 0.22753 0.41898 0.84572 0.0
C979 C 0.29608 0.53493 0.78445 0.0
C980 C 0.2939 0.53547 0.76444 0.0
C981 C 0.26317 0.49571 0.75484 0.0
C982 C 0.23878 0.45377 0.76477 0.0
C983 C 0.24432 0.45271 0.78436 0.0
C984 C 0.27059 0.49318 0.79417 0.0
C985 C 0.26883 0.4835 0.81532 0.0
C986 C 0.3258 0.47617 0.8235 0.0
C987 C 0.23808 0.5294 0.82551 0.0
C988 C 0.23791 0.43113 0.8158 0.0
C989 C 0.22505 0.41342 0.79778 0.0
C990 C 0.19721 0.36548 0.79466 0.0
C991 C 0.17966 0.3363 0.81045 0.0
C992 C 0.1893 0.35587 0.82899 0.0
C993 C 0.21996 0.40307 0.83164 0.0
H994 H 0.39228 0.54541 0.52197 0.0
H995 H 0.2414 0.47045 0.53722 0.0
H996 H 0.29158 0.40547 0.55743 0.0
H997 H 0.4691 0.42289 0.51775 0.0
H998 H 0.52948 0.45325 0.52692 0.0
H999 H 0.4809 0.49384 0.51439 0.0
H1000 H 0.47411 0.55934 0.54316 0.0
H1001 H 0.52275 0.51907 0.55576 0.0
H1002 H 0.45783 0.53306 0.56618 0.0
H1003 H 0.36133 0.34924 0.57658 0.0
H1004 H 0.44187 0.30903 0.5922 0.0
H1005 H 0.54398 0.41895 0.56155 0.0
C1006 C 0.36947 0.51486 0.52924 0.0
C1007 C 0.31286 0.51256 0.52773 0.0
C1008 C 0.2848 0.47305 0.53816 0.0
C1009 C 0.313 0.43583 0.54957 0.0
C1010 C 0.36911 0.43873 0.55033 0.0
C1011 C 0.39676 0.4774 0.54036 0.0
C1012 C 0.45677 0.47272 0.54325 0.0
C1013 C 0.48574 0.4599 0.52446 0.0
C1014 C 0.47915 0.52408 0.55265 0.0
C1015 C 0.45904 0.42538 0.55651 0.0
C1016 C 0.40832 0.40615 0.5606 0.0
C1017 C 0.40116 0.36369 0.57324 0.0
C1018 C 0.44702 0.34076 0.58191 0.0
C1019 C 0.49904 0.36006 0.57771 0.0
C1020 C 0.50473 0.40277 0.56482 0.0
H1021 H 0.41975 0.44828 0.27353 0.0
H1022 H 0.28852 0.42593 0.31312 0.0
H1023 H 0.33886 0.4752 0.33758 0.0
H1024 H 0.53281 0.44996 0.31152 0.0
H1025 H 0.56784 0.50199 0.29905 0.0
H1026 H 0.53138 0.45124 0.28597 0.0
H1027 H 0.4769 0.52529 0.26878 0.0
H1028 H 0.51372 0.57628 0.28126 0.0
H1029 H 0.44122 0.57583 0.28251 0.0
H1030 H 0.38879 0.54546 0.35415 0.0
H1031 H 0.43849 0.62792 0.36248 0.0
H1032 H 0.54005 0.60592 0.31309 0.0
C1033 C 0.40271 0.45205 0.2876 0.0
C1034 C 0.35046 0.43307 0.29147 0.0
C1035 C 0.32892 0.43914 0.30993 0.0
C1036 C 0.35725 0.46719 0.32394 0.0
C1037 C 0.40735 0.48818 0.31936 0.0
C1038 C 0.43057 0.48001 0.30175 0.0
C1039 C 0.48098 0.51333 0.29956 0.0
C1040 C 0.5312 0.47682 0.29898 0.0
C1041 C 0.47793 0.54985 0.282 0.0
C1042 C 0.47915 0.54576 0.3178 0.0
C1043 C 0.43731 0.52926 0.32928 0.0
C1044 C 0.42272 0.5576 0.34563 0.0
C1045 C 0.45074 0.60458 0.35014 0.0
C1046 C 0.49288 0.62256 0.33839 0.0
C1047 C 0.50858 0.59196 0.32241 0.0
H1048 H 0.43013 0.39921 0.95885 0.0
H1049 H 0.33857 0.34464 0.00711 0.0
H1050 H 0.26524 0.31543 0.98581 0.0
H1051 H 0.32619 0.45581 0.93462 0.0
H1052 H 0.3464 0.43532 0.9111 0.0
H1053 H 0.39626 0.44332 0.92937 0.0
H1054 H 0.43006 0.34473 0.9245 0.0
H1055 H 0.38218 0.33752 0.9055 0.0
H1056 H 0.38227 0.29046 0.92483 0.0
H1057 H 0.19661 0.30559 0.95983 0.0
H1058 H 0.14532 0.29644 0.92991 0.0
H1059 H 0.28185 0.35813 0.89882 0.0
C1060 C 0.3958 0.3786 0.96475 0.0
C1061 C 0.38998 0.37323 0.98447 0.0
C1062 C 0.34378 0.348 -0.00807 0.0
C1063 C 0.30179 0.33194 0.97998 0.0
C1064 C 0.30702 0.34113 0.96065 0.0
C1065 C 0.35353 0.36222 0.95299 0.0
C1066 C 0.34794 0.37008 0.93186 0.0
C1067 C 0.35459 0.42968 0.92644 0.0
C1068 C 0.38797 0.33351 0.92104 0.0
C1069 C 0.29055 0.3519 0.92898 0.0
C1070 C 0.2675 0.33549 0.94574 0.0
C1071 C 0.21441 0.31775 0.94656 0.0
C1072 C 0.18522 0.31366 0.92958 0.0
C1073 C 0.20956 0.32695 0.91213 0.0
C1074 C 0.26214 0.34811 0.91201 0.0
H1075 H 0.3594 0.51986 0.69908 0.0
H1076 H 0.50806 0.57069 0.72566 0.0
H1077 H 0.55921 0.50726 0.70506 0.0
H1078 H 0.38816 0.38553 0.69821 0.0
H1079 H 0.35762 0.37045 0.67563 0.0
H1080 H 0.33359 0.4269 0.68949 0.0
H1081 H 0.35066 0.4917 0.66153 0.0
H1082 H 0.37347 0.43519 0.64734 0.0
H1083 H 0.41617 0.49293 0.65057 0.0
H1084 H 0.59118 0.42841 0.68572 0.0
H1085 H 0.60409 0.34624 0.66605 0.0
H1086 H 0.43428 0.34695 0.65218 0.0
C1087 C 0.4029 0.51875 0.70012 0.0
C1088 C 0.42999 0.55007 0.71383 0.0
C1089 C 0.4868 0.54749 0.71501 0.0
C1090 C 0.51602 0.51135 0.70348 0.0
C1091 C 0.48763 0.47875 0.69084 0.0
C1092 C 0.43243 0.48289 0.68882 0.0
C1093 C 0.41093 0.44041 0.67537 0.0
C1094 C 0.37019 0.40367 0.68528 0.0
C1095 C 0.38637 0.46663 0.65764 0.0
C1096 C 0.46238 0.41026 0.67068 0.0
C1097 C 0.50619 0.4333 0.67961 0.0
C1098 C 0.55754 0.41082 0.67826 0.0
C1099 C 0.5645 0.3644 0.66708 0.0
C1100 C 0.52052 0.34113 0.65736 0.0
C1101 C 0.46868 0.36399 0.65942 0.0
H1102 H 0.34108 0.55487 0.45885 0.0
H1103 H 0.31307 0.71507 0.48231 0.0
H1104 H 0.38018 0.75199 0.46041 0.0
H1105 H 0.47973 0.56632 0.45518 0.0
H1106 H 0.48652 0.52886 0.4333 0.0
H1107 H 0.4313 0.51539 0.44901 0.0
H1108 H 0.36314 0.53375 0.42192 0.0
H1109 H 0.41822 0.54648 0.40601 0.0
H1110 H 0.36591 0.59657 0.40926 0.0
H1111 H 0.45317 0.77102 0.43732 0.0
H1112 H 0.52946 0.76998 0.41483 0.0
H1113 H 0.51192 0.59719 0.4072 0.0
C1114 C 0.34802 0.59795 0.45896 0.0
C1115 C 0.32136 0.63228 0.47202 0.0
C1116 C 0.33198 0.68833 0.47203 0.0
C1117 C 0.37006 0.7097 0.45967 0.0
C1118 C 0.3964 0.67464 0.44721 0.0
C1119 C 0.3857 0.62001 0.44666 0.0
C1120 C 0.42268 0.59048 0.43299 0.0
C1121 C 0.45709 0.54776 0.44324 0.0
C1122 C 0.39057 0.56535 0.41657 0.0
C1123 C 0.45658 0.63689 0.42628 0.0
C1124 C 0.44033 0.68518 0.43448 0.0
C1125 C 0.46598 0.73359 0.43065 0.0
C1126 C 0.50909 0.73264 0.41789 0.0
C1127 C 0.52623 0.68357 0.40935 0.0
C1128 C 0.49984 0.63514 0.4137 0.0
H1129 H 0.179 0.47651 0.23165 0.0
H1130 H 0.3519 0.48047 0.22334 0.0
H1131 H 0.34032 0.55341 0.19992 0.0
H1132 H 0.1429 0.49819 0.18285 0.0
H1133 H 0.08468 0.53878 0.18885 0.0
H1134 H 0.10799 0.48754 0.20488 0.0
H1135 H 0.11409 0.55985 0.23155 0.0
H1136 H 0.0923 0.61157 0.21539 0.0
H1137 H 0.1549 0.6187 0.22804 0.0
H1138 H 0.3089 0.62553 0.17666 0.0
H1139 H 0.25923 0.68234 0.15347 0.0
H1140 H 0.10835 0.63154 0.17784 0.0
C1141 C 0.21439 0.49201 0.22467 0.0
C1142 C 0.26635 0.47266 0.22931 0.0
C1143 C 0.31168 0.49486 0.22008 0.0
C1144 C 0.30554 0.53646 0.20682 0.0
C1145 C 0.2538 0.55565 0.20297 0.0
C1146 C 0.20902 0.53362 0.21149 0.0
C1147 C 0.1577 0.56018 0.20457 0.0
C1148 C 0.12119 0.51872 0.1947 0.0
C1149 C 0.12802 0.5893 0.22086 0.0
C1150 C 0.18046 0.60008 0.19064 0.0
C1151 C 0.23601 0.59746 0.19 0.0
C1152 C 0.26545 0.62849 0.17725 0.0
C1153 C 0.23715 0.66119 0.16432 0.0
C1154 C 0.1803 0.66234 0.16436 0.0
C1155 C 0.15195 0.63261 0.17802 0.0
loop_
_geom_bond_atom_site_label_1
_geom_bond_atom_site_label_2
_geom_bond_distance
_geom_bond_site_symmetry_2
_ccdc_geom_bond_type
H0 C8 0.930 . S
H1 C11 0.930 . S
H2 C13 0.930 1_565 S
H3 C14 0.970 . S
H4 C14 0.970 . S
H5 C16 0.930 1_565 S
H6 C18 0.930 . S
H7 C20 0.930 . S
C8 H0 0.930 . S
C8 C9 1.382 1_545 S
C8 C10 1.426 . S
C9 C8 1.382 1_565 S
C9 C13 1.389 1_565 S
C10 C8 1.426 . S
C10 C11 1.375 . S
C10 C14 1.532 1_655 S
C11 H1 0.930 . S
C11 C10 1.375 . S
C11 C12 1.416 . S
C12 C11 1.416 . S
C12 C13 1.371 . S
C13 H2 0.930 1_545 S
C13 C9 1.389 1_545 S
C13 C12 1.371 . S
C14 H3 0.970 . S
C14 H4 0.970 . S
C14 C10 1.532 1_455 S
C14 C15 1.499 . S
C15 C14 1.499 . S
C15 C16 1.370 . S
C15 C20 1.415 . S
C16 H5 0.930 1_545 S
C16 C15 1.370 . S
C16 C17 1.407 1_545 S
C17 C16 1.407 1_565 S
C17 C18 1.364 . S
C18 H6 0.930 . S
C18 C17 1.364 . S
C18 C19 1.394 1_565 S
C19 C18 1.394 1_545 S
C19 C20 1.387 . S
C20 H7 0.930 . S
C20 C15 1.415 . S
C20 C19 1.387 . S
H21 C29 0.930 . S
H22 C32 0.930 . S
H23 C34 0.930 . S
H24 C35 0.970 . S
H25 C35 0.970 . S
H26 C37 0.930 . S
H27 C39 0.930 . S
H28 C41 0.930 . S
C29 H21 0.930 . S
C29 C30 1.382 . S
C29 C31 1.426 . S
C30 C29 1.382 . S
C30 C34 1.389 . S
C31 C29 1.426 . S
C31 C32 1.375 . S
C31 C35 1.532 . S
C32 H22 0.930 . S
C32 C31 1.375 . S
C32 C33 1.416 . S
C33 C32 1.416 . S
C33 C34 1.371 . S
C34 H23 0.930 . S
C34 C30 1.389 . S
C34 C33 1.371 . S
C35 H24 0.970 . S
C35 H25 0.970 . S
C35 C31 1.532 . S
C35 C36 1.499 . S
C36 C35 1.499 . S
C36 C37 1.370 . S
C36 C41 1.415 . S
C37 H26 0.930 . S
C37 C36 1.370 . S
C37 C38 1.407 . S
C38 C37 1.407 . S
C38 C39 1.365 . S
C39 H27 0.930 . S
C39 C38 1.365 . S
C39 C40 1.393 . S
C40 C39 1.393 . S
C40 C41 1.387 . S
C41 H28 0.930 . S
C41 C36 1.415 . S
C41 C40 1.387 . S
H42 C50 0.930 1_565 S
H43 C53 0.930 . S
H44 C55 0.913 1_556 S
H45 C56 0.970 . S
H46 C56 0.970 . S
H47 C58 0.930 1_565 S
H48 C60 0.931 . S
H49 C62 0.930 . S
C50 H42 0.930 1_545 S
C50 C51 1.382 1_545 S
C50 C52 1.426 . S
C51 C50 1.382 1_565 S
C51 C55 1.443 . S
C52 C50 1.426 . S
C52 C53 1.375 1_554 S
C52 C56 1.532 . S
C53 H43 0.930 . S
C53 C52 1.375 1_556 S
C53 C54 1.416 . S
C54 C53 1.416 . S
C54 C55 1.337 1_546 S
C55 H44 0.913 1_554 S
C55 C51 1.443 . S
C55 C54 1.337 1_564 S
C56 H45 0.970 . S
C56 H46 0.970 . S
C56 C52 1.532 . S
C56 C57 1.499 . S
C57 C56 1.499 . S
C57 C58 1.370 . S
C57 C62 1.415 1_554 S
C58 H47 0.930 1_545 S
C58 C57 1.370 . S
C58 C59 1.407 1_545 S
C59 C58 1.407 1_565 S
C59 C60 1.361 1_554 S
C60 H48 0.931 . S
C60 C59 1.361 1_556 S
C60 C61 1.395 1_565 S
C61 C60 1.395 1_545 S
C61 C62 1.387 . S
C62 H49 0.930 . S
C62 C57 1.415 1_556 S
C62 C61 1.387 . S
H63 C71 0.930 . S
H64 C74 0.930 . S
H65 C76 0.930 . S
H66 C77 0.970 . S
H67 C77 0.970 . S
H68 C79 0.930 . S
H69 C81 0.930 . S
H70 C83 0.930 . S
C71 H63 0.930 . S
C71 C72 1.382 . S
C71 C73 1.426 . S
C72 C71 1.382 . S
C72 C76 1.389 . S
C73 C71 1.426 . S
C73 C74 1.375 . S
C73 C77 1.532 . S
C74 H64 0.930 . S
C74 C73 1.375 . S
C74 C75 1.416 . S
C75 C74 1.416 . S
C75 C76 1.371 . S
C76 H65 0.930 . S
C76 C72 1.389 . S
C76 C75 1.371 . S
C77 H66 0.970 . S
C77 H67 0.970 . S
C77 C73 1.532 . S
C77 C78 1.499 . S
C78 C77 1.499 . S
C78 C79 1.370 . S
C78 C83 1.415 . S
C79 H68 0.930 . S
C79 C78 1.370 . S
C79 C80 1.407 . S
C80 C79 1.407 . S
C80 C81 1.365 . S
C81 H69 0.930 . S
C81 C80 1.365 . S
C81 C82 1.393 . S
C82 C81 1.393 . S
C82 C83 1.387 . S
C83 H70 0.930 . S
C83 C78 1.415 . S
C83 C82 1.387 . S
H84 C92 0.930 . S
H85 C95 0.930 . S
H86 C97 0.930 . S
H87 C98 0.970 . S
H88 C98 0.970 . S
H89 C100 0.930 . S
H90 C102 0.930 . S
H91 C104 0.930 . S
C92 H84 0.930 . S
C92 C93 1.382 . S
C92 C94 1.426 . S
C93 C92 1.382 . S
C93 C97 1.389 . S
C94 C92 1.426 . S
C94 C95 1.375 . S
C94 C98 1.532 . S
C95 H85 0.930 . S
C95 C94 1.375 . S
C95 C96 1.416 . S
C96 C95 1.416 . S
C96 C97 1.371 . S
C97 H86 0.930 . S
C97 C93 1.389 . S
C97 C96 1.371 . S
C98 H87 0.970 . S
C98 H88 0.970 . S
C98 C94 1.532 . S
C98 C99 1.499 . S
C99 C98 1.499 . S
C99 C100 1.370 . S
C99 C104 1.415 . S
C100 H89 0.930 . S
C100 C99 1.370 . S
C100 C101 1.407 . S
C101 C100 1.407 . S
C101 C102 1.365 . S
C102 H90 0.930 . S
C102 C101 1.365 . S
C102 C103 1.393 . S
C103 C102 1.393 . S
C103 C104 1.387 . S
C104 H91 0.930 . S
C104 C99 1.415 . S
C104 C103 1.387 . S
H105 C113 0.930 . S
H106 C116 0.930 . S
H107 C118 0.930 . S
H108 C119 0.970 . S
H109 C119 0.970 . S
H110 C121 0.930 . S
H111 C123 0.930 . S
H112 C125 0.930 . S
C113 H105 0.930 . S
C113 C114 1.382 . S
C113 C115 1.426 . S
C114 C113 1.382 . S
C114 C118 1.389 . S
C115 C113 1.426 . S
C115 C116 1.375 . S
C115 C119 1.532 . S
C116 H106 0.930 . S
C116 C115 1.375 . S
C116 C117 1.416 . S
C117 C116 1.416 . S
C117 C118 1.371 . S
C118 H107 0.930 . S
C118 C114 1.389 . S
C118 C117 1.371 . S
C119 H108 0.970 . S
C119 H109 0.970 . S
C119 C115 1.532 . S
C119 C120 1.499 . S
C120 C119 1.499 . S
C120 C121 1.370 . S
C120 C125 1.415 . S
C121 H110 0.930 . S
C121 C120 1.370 . S
C121 C122 1.407 . S
C122 C121 1.407 . S
C122 C123 1.365 . S
C123 H111 0.930 . S
C123 C122 1.365 . S
C123 C124 1.393 . S
C124 C123 1.393 . S
C124 C125 1.387 . S
C125 H112 0.930 . S
C125 C120 1.415 . S
C125 C124 1.387 . S
H126 C134 0.930 . S
H127 C137 0.930 . S
H128 C139 0.930 1_556 S
H129 C140 0.970 . S
H130 C140 0.970 . S
H131 C142 0.930 . S
H132 C144 0.924 1_556 S
H133 C146 0.930 . S
C134 H126 0.930 . S
C134 C135 1.382 . S
C134 C136 1.426 . S
C135 C134 1.382 . S
C135 C139 1.389 . S
C136 C134 1.426 . S
C136 C137 1.375 1_554 S
C136 C140 1.532 . S
C137 H127 0.930 . S
C137 C136 1.375 1_556 S
C137 C138 1.416 . S
C138 C137 1.416 . S
C138 C139 1.371 1_556 S
C139 H128 0.930 1_554 S
C139 C135 1.389 . S
C139 C138 1.371 1_554 S
C140 H129 0.970 . S
C140 H130 0.970 . S
C140 C136 1.532 . S
C140 C141 1.499 . S
C141 C140 1.499 . S
C141 C142 1.370 . S
C141 C146 1.415 1_554 S
C142 H131 0.930 . S
C142 C141 1.370 . S
C142 C143 1.407 . S
C143 C142 1.407 . S
C143 C144 1.379 . S
C144 H132 0.924 1_554 S
C144 C143 1.379 . S
C144 C145 1.385 1_554 S
C145 C144 1.385 1_556 S
C145 C146 1.387 . S
C146 H133 0.930 . S
C146 C141 1.415 1_556 S
C146 C145 1.387 . S
H147 C155 0.930 . S
H148 C158 0.930 . S
H149 C160 0.930 . S
H150 C161 0.970 . S
H151 C161 0.970 . S
H152 C163 0.930 . S
H153 C165 0.930 1_655 S
H154 C167 0.930 . S
C155 H147 0.930 . S
C155 C156 1.382 . S
C155 C157 1.426 . S
C156 C155 1.382 . S
C156 C160 1.389 . S
C157 C155 1.426 . S
C157 C158 1.375 . S
C157 C161 1.532 . S
C158 H148 0.930 . S
C158 C157 1.375 . S
C158 C159 1.416 . S
C159 C158 1.416 . S
C159 C160 1.371 . S
C160 H149 0.930 . S
C160 C156 1.389 . S
C160 C159 1.371 . S
C161 H150 0.970 . S
C161 H151 0.970 . S
C161 C157 1.532 . S
C161 C162 1.499 . S
C162 C161 1.499 . S
C162 C163 1.370 . S
C162 C167 1.415 . S
C163 H152 0.930 . S
C163 C162 1.370 . S
C163 C164 1.407 . S
C164 C163 1.407 . S
C164 C165 1.365 . S
C165 H153 0.930 1_455 S
C165 C164 1.365 . S
C165 C166 1.393 . S
C166 C165 1.393 . S
C166 C167 1.387 . S
C167 H154 0.930 . S
C167 C162 1.415 . S
C167 C166 1.387 . S
C168 O195 1.312 . S
C168 O196 1.208 . S
C169 O190 1.331 1_655 S
C169 O193 1.244 . S
C170 O192 1.264 1_655 S
C170 O194 1.273 . S
Mg171 O173 1.936 . S
Mg171 O180 2.081 . S
Mg171 O182 2.023 . S
Mg171 O186 2.031 . S
Mg171 O195 2.291 . S
Mg172 O173 1.963 . S
Mg172 O183 1.942 . S
Mg172 O184 1.955 . S
Mg172 O191 1.986 . S
O173 Mg171 1.936 . S
O173 Mg172 1.963 . S
O173 Mg174 1.915 . S
Mg174 O173 1.915 . S
Mg174 O175 1.915 . S
Mg174 O179 2.013 . S
Mg174 O185 2.114 . S
Mg174 O189 2.013 . S
Mg174 O195 2.114 . S
O175 Mg174 1.915 . S
O175 Mg176 1.936 . S
O175 Mg177 1.963 1_455 S
Mg176 O175 1.936 . S
Mg176 O185 2.291 . S
Mg176 O190 2.081 . S
Mg176 O192 2.023 . S
Mg176 O196 2.031 . S
Mg177 O175 1.963 1_655 S
Mg177 O181 1.986 . S
Mg177 O193 1.942 . S
Mg177 O194 1.955 . S
C178 O189 1.191 . S
C178 O191 1.307 . S
O179 Mg174 2.013 . S
O179 C198 1.191 . S
O180 Mg171 2.081 . S
O180 C188 1.331 . S
O181 Mg177 1.986 . S
O181 C198 1.307 1_655 S
O182 Mg171 2.023 . S
O182 C197 1.264 . S
O183 Mg172 1.942 . S
O183 C188 1.244 . S
O184 Mg172 1.955 . S
O184 C197 1.273 . S
O185 Mg174 2.114 . S
O185 Mg176 2.291 . S
O185 C187 1.312 . S
O186 Mg171 2.031 . S
O186 C187 1.208 . S
C187 O185 1.312 . S
C187 O186 1.208 . S
C188 O180 1.331 . S
C188 O183 1.244 . S
O189 Mg174 2.013 . S
O189 C178 1.191 . S
O190 C169 1.331 1_455 S
O190 Mg176 2.081 . S
O191 Mg172 1.986 . S
O191 C178 1.307 . S
O192 C170 1.264 1_455 S
O192 Mg176 2.023 . S
O193 C169 1.244 . S
O193 Mg177 1.942 . S
O194 C170 1.273 . S
O194 Mg177 1.955 . S
O195 C168 1.312 . S
O195 Mg171 2.291 . S
O195 Mg174 2.114 . S
O196 C168 1.208 . S
O196 Mg176 2.031 . S
C197 O182 1.264 . S
C197 O184 1.273 . S
C198 O179 1.191 . S
C198 O181 1.307 1_455 S
C199 O226 1.312 . S
C199 O227 1.208 . S
C200 O221 1.331 . S
C200 O224 1.244 . S
C201 O223 1.264 . S
C201 O225 1.273 . S
Mg202 O204 1.936 . S
Mg202 O211 2.081 . S
Mg202 O213 2.023 . S
Mg202 O217 2.031 . S
Mg202 O226 2.291 . S
Mg203 O204 1.963 . S
Mg203 O214 1.942 . S
Mg203 O215 1.955 . S
Mg203 O222 1.986 . S
O204 Mg202 1.936 . S
O204 Mg203 1.963 . S
O204 Mg205 1.915 . S
Mg205 O204 1.915 . S
Mg205 O206 1.915 . S
Mg205 O210 2.013 . S
Mg205 O216 2.114 . S
Mg205 O220 2.013 . S
Mg205 O226 2.114 . S
O206 Mg205 1.915 . S
O206 Mg207 1.936 . S
O206 Mg208 1.963 . S
Mg207 O206 1.936 . S
Mg207 O216 2.291 . S
Mg207 O221 2.081 . S
Mg207 O223 2.023 . S
Mg207 O227 2.031 . S
Mg208 O206 1.963 . S
Mg208 O212 1.986 . S
Mg208 O224 1.942 . S
Mg208 O225 1.955 . S
C209 O220 1.191 . S
C209 O222 1.307 . S
O210 Mg205 2.013 . S
O210 C229 1.191 . S
O211 Mg202 2.081 . S
O211 C219 1.331 . S
O212 Mg208 1.986 . S
O212 C229 1.307 . S
O213 Mg202 2.023 . S
O213 C228 1.264 . S
O214 Mg203 1.942 . S
O214 C219 1.244 . S
O215 Mg203 1.955 . S
O215 C228 1.273 . S
O216 Mg205 2.114 . S
O216 Mg207 2.291 . S
O216 C218 1.312 . S
O217 Mg202 2.031 . S
O217 C218 1.208 . S
C218 O216 1.312 . S
C218 O217 1.208 . S
C219 O211 1.331 . S
C219 O214 1.244 . S
O220 Mg205 2.013 . S
O220 C209 1.191 . S
O221 C200 1.331 . S
O221 Mg207 2.081 . S
O222 Mg203 1.986 . S
O222 C209 1.307 . S
O223 C201 1.264 . S
O223 Mg207 2.023 . S
O224 C200 1.244 . S
O224 Mg208 1.942 . S
O225 C201 1.273 . S
O225 Mg208 1.955 . S
O226 C199 1.312 . S
O226 Mg202 2.291 . S
O226 Mg205 2.114 . S
O227 C199 1.208 . S
O227 Mg207 2.031 . S
C228 O213 1.264 . S
C228 O215 1.273 . S
C229 O210 1.191 . S
C229 O212 1.307 . S
C230 O257 1.312 . S
C230 O258 1.208 . S
C231 O252 1.331 . S
C231 O255 1.244 . S
C232 O254 1.264 . S
C232 O256 1.273 . S
Mg233 O235 1.936 . S
Mg233 O242 2.081 . S
Mg233 O244 2.023 . S
Mg233 O248 2.031 . S
Mg233 O257 2.291 . S
Mg234 O235 1.963 . S
Mg234 O245 1.942 . S
Mg234 O246 1.955 . S
Mg234 O253 1.986 . S
O235 Mg233 1.936 . S
O235 Mg234 1.963 . S
O235 Mg236 1.915 . S
Mg236 O235 1.915 . S
Mg236 O237 1.915 . S
Mg236 O241 2.013 . S
Mg236 O247 2.114 . S
Mg236 O251 2.013 . S
Mg236 O257 2.114 . S
O237 Mg236 1.915 . S
O237 Mg238 1.936 . S
O237 Mg239 1.963 . S
Mg238 O237 1.936 . S
Mg238 O247 2.291 . S
Mg238 O252 2.081 . S
Mg238 O254 2.023 . S
Mg238 O258 2.031 . S
Mg239 O237 1.963 . S
Mg239 O243 1.986 . S
Mg239 O255 1.942 . S
Mg239 O256 1.955 . S
C240 O251 1.191 . S
C240 O253 1.307 . S
O241 Mg236 2.013 . S
O241 C260 1.191 . S
O242 Mg233 2.081 . S
O242 C250 1.331 . S
O243 Mg239 1.986 . S
O243 C260 1.307 . S
O244 Mg233 2.023 . S
O244 C259 1.264 . S
O245 Mg234 1.942 . S
O245 C250 1.244 . S
O246 Mg234 1.955 . S
O246 C259 1.273 . S
O247 Mg236 2.114 . S
O247 Mg238 2.291 . S
O247 C249 1.312 . S
O248 Mg233 2.031 . S
O248 C249 1.208 . S
C249 O247 1.312 . S
C249 O248 1.208 . S
C250 O242 1.331 . S
C250 O245 1.244 . S
O251 Mg236 2.013 . S
O251 C240 1.191 . S
O252 C231 1.331 . S
O252 Mg238 2.081 . S
O253 Mg234 1.986 . S
O253 C240 1.307 . S
O254 C232 1.264 . S
O254 Mg238 2.023 . S
O255 C231 1.244 . S
O255 Mg239 1.942 . S
O256 C232 1.273 . S
O256 Mg239 1.955 . S
O257 C230 1.312 . S
O257 Mg233 2.291 . S
O257 Mg236 2.114 . S
O258 C230 1.208 . S
O258 Mg238 2.031 . S
C259 O244 1.264 . S
C259 O246 1.273 . S
C260 O241 1.191 . S
C260 O243 1.307 . S
C261 O288 1.312 . S
C261 O289 1.208 . S
C262 O283 1.331 . S
C262 O286 1.244 . S
C263 O285 1.264 . S
C263 O287 1.273 . S
Mg264 O266 1.936 . S
Mg264 O273 2.081 . S
Mg264 O275 2.023 . S
Mg264 O279 2.031 . S
Mg264 O288 2.291 . S
Mg265 O266 1.963 1_655 S
Mg265 O276 1.942 . S
Mg265 O277 1.955 . S
Mg265 O284 1.986 . S
O266 Mg264 1.936 . S
O266 Mg265 1.963 1_455 S
O266 Mg267 1.915 . S
Mg267 O266 1.915 . S
Mg267 O268 1.915 . S
Mg267 O272 2.013 . S
Mg267 O278 2.114 . S
Mg267 O282 2.013 . S
Mg267 O288 2.114 . S
O268 Mg267 1.915 . S
O268 Mg269 1.936 . S
O268 Mg270 1.963 . S
Mg269 O268 1.936 . S
Mg269 O278 2.291 . S
Mg269 O283 2.081 . S
Mg269 O285 2.023 . S
Mg269 O289 2.031 . S
Mg270 O268 1.963 . S
Mg270 O274 1.986 . S
Mg270 O286 1.942 . S
Mg270 O287 1.955 . S
C271 O282 1.191 . S
C271 O284 1.307 1_455 S
O272 Mg267 2.013 . S
O272 C291 1.191 . S
O273 Mg264 2.081 . S
O273 C281 1.331 1_455 S
O274 Mg270 1.986 . S
O274 C291 1.307 . S
O275 Mg264 2.023 . S
O275 C290 1.264 1_455 S
O276 Mg265 1.942 . S
O276 C281 1.244 . S
O277 Mg265 1.955 . S
O277 C290 1.273 . S
O278 Mg267 2.114 . S
O278 Mg269 2.291 . S
O278 C280 1.312 . S
O279 Mg264 2.031 . S
O279 C280 1.208 . S
C280 O278 1.312 . S
C280 O279 1.208 . S
C281 O273 1.331 1_655 S
C281 O276 1.244 . S
O282 Mg267 2.013 . S
O282 C271 1.191 . S
O283 C262 1.331 . S
O283 Mg269 2.081 . S
O284 Mg265 1.986 . S
O284 C271 1.307 1_655 S
O285 C263 1.264 . S
O285 Mg269 2.023 . S
O286 C262 1.244 . S
O286 Mg270 1.942 . S
O287 C263 1.273 . S
O287 Mg270 1.955 . S
O288 C261 1.312 . S
O288 Mg264 2.291 . S
O288 Mg267 2.114 . S
O289 C261 1.208 . S
O289 Mg269 2.031 . S
C290 O275 1.264 1_655 S
C290 O277 1.273 . S
C291 O272 1.191 . S
C291 O274 1.307 . S
H292 C304 0.930 . S
H293 C306 0.930 1_545 S
H294 C307 0.930 1_545 S
H295 C311 0.959 . S
H296 C311 0.959 . S
H297 C311 0.961 . S
H298 C312 0.960 . S
H299 C312 0.961 . S
H300 C312 0.959 . S
H301 C315 0.929 . S
H302 C316 0.931 . S
H303 C318 0.930 . S
C304 H292 0.930 . S
C304 C305 1.399 . S
C304 C309 1.399 . S
C305 C304 1.399 . S
C305 C306 1.376 . S
C306 H293 0.930 1_565 S
C306 C305 1.376 . S
C306 C307 1.388 . S
C307 H294 0.930 1_565 S
C307 C306 1.388 . S
C307 C308 1.390 . S
C308 C307 1.390 . S
C308 C309 1.394 . S
C308 C314 1.465 . S
C309 C304 1.399 . S
C309 C308 1.394 . S
C309 C310 1.516 . S
C310 C309 1.516 . S
C310 C311 1.502 . S
C310 C312 1.561 . S
C310 C313 1.526 . S
C311 H295 0.959 . S
C311 H296 0.959 . S
C311 H297 0.961 . S
C311 C310 1.502 . S
C312 H298 0.960 . S
C312 H299 0.961 . S
C312 H300 0.959 . S
C312 C310 1.561 . S
C313 C310 1.526 . S
C313 C314 1.396 . S
C313 C318 1.390 . S
C314 C308 1.465 . S
C314 C313 1.396 . S
C314 C315 1.399 . S
C315 H301 0.929 . S
C315 C314 1.399 . S
C315 C316 1.385 . S
C316 H302 0.931 . S
C316 C315 1.385 . S
C316 C317 1.389 . S
C317 C316 1.389 . S
C317 C318 1.387 . S
C318 H303 0.930 . S
C318 C313 1.390 . S
C318 C317 1.387 . S
H319 C331 0.930 . S
H320 C333 0.930 . S
H321 C334 0.930 . S
H322 C338 0.959 . S
H323 C338 0.959 . S
H324 C338 0.961 . S
H325 C339 0.960 . S
H326 C339 0.961 . S
H327 C339 0.959 . S
H328 C342 0.929 . S
H329 C343 0.931 . S
H330 C345 0.930 . S
C331 H319 0.930 . S
C331 C332 1.399 . S
C331 C336 1.399 . S
C332 C331 1.399 . S
C332 C333 1.376 . S
C333 H320 0.930 . S
C333 C332 1.376 . S
C333 C334 1.388 . S
C334 H321 0.930 . S
C334 C333 1.388 . S
C334 C335 1.390 . S
C335 C334 1.390 . S
C335 C336 1.394 . S
C335 C341 1.465 1_565 S
C336 C331 1.399 . S
C336 C335 1.394 . S
C336 C337 1.516 . S
C337 C336 1.516 . S
C337 C338 1.502 . S
C337 C339 1.561 . S
C337 C340 1.526 . S
C338 H322 0.959 . S
C338 H323 0.959 . S
C338 H324 0.961 . S
C338 C337 1.502 . S
C339 H325 0.960 . S
C339 H326 0.961 . S
C339 H327 0.959 . S
C339 C337 1.561 . S
C340 C337 1.526 . S
C340 C341 1.396 1_565 S
C340 C345 1.390 1_565 S
C341 C335 1.465 1_545 S
C341 C340 1.396 1_545 S
C341 C342 1.399 . S
C342 H328 0.929 . S
C342 C341 1.399 . S
C342 C343 1.385 . S
C343 H329 0.931 . S
C343 C342 1.385 . S
C343 C344 1.389 . S
C344 C343 1.389 . S
C344 C345 1.387 . S
C345 H330 0.930 . S
C345 C340 1.390 1_545 S
C345 C344 1.387 . S
H346 C358 0.930 . S
H347 C360 0.930 . S
H348 C361 0.930 . S
H349 C365 0.959 . S
H350 C365 0.959 . S
H351 C365 0.961 . S
H352 C366 0.960 . S
H353 C366 0.961 . S
H354 C366 0.959 . S
H355 C369 0.929 . S
H356 C370 0.931 . S
H357 C372 0.930 . S
C358 H346 0.930 . S
C358 C359 1.399 . S
C358 C363 1.399 . S
C359 C358 1.399 . S
C359 C360 1.376 . S
C360 H347 0.930 . S
C360 C359 1.376 . S
C360 C361 1.388 . S
C361 H348 0.930 . S
C361 C360 1.388 . S
C361 C362 1.390 . S
C362 C361 1.390 . S
C362 C363 1.394 . S
C362 C368 1.465 . S
C363 C358 1.399 . S
C363 C362 1.394 . S
C363 C364 1.516 . S
C364 C363 1.516 . S
C364 C365 1.502 . S
C364 C366 1.561 . S
C364 C367 1.526 . S
C365 H349 0.959 . S
C365 H350 0.959 . S
C365 H351 0.961 . S
C365 C364 1.502 . S
C366 H352 0.960 . S
C366 H353 0.961 . S
C366 H354 0.959 . S
C366 C364 1.561 . S
C367 C364 1.526 . S
C367 C368 1.396 . S
C367 C372 1.390 . S
C368 C362 1.465 . S
C368 C367 1.396 . S
C368 C369 1.399 . S
C369 H355 0.929 . S
C369 C368 1.399 . S
C369 C370 1.385 . S
C370 H356 0.931 . S
C370 C369 1.385 . S
C370 C371 1.389 . S
C371 C370 1.389 . S
C371 C372 1.387 . S
C372 H357 0.930 . S
C372 C367 1.390 . S
C372 C371 1.387 . S
H373 C385 0.930 . S
H374 C387 0.930 . S
H375 C388 0.930 . S
H376 C392 0.959 1_545 S
H377 C392 0.959 . S
H378 C392 0.961 1_545 S
H379 C393 0.960 . S
H380 C393 0.961 . S
H381 C393 0.959 . S
H382 C396 0.929 . S
H383 C397 0.931 . S
H384 C399 0.930 . S
C385 H373 0.930 . S
C385 C386 1.399 . S
C385 C390 1.399 . S
C386 C385 1.399 . S
C386 C387 1.376 . S
C387 H374 0.930 . S
C387 C386 1.376 . S
C387 C388 1.388 . S
C388 H375 0.930 . S
C388 C387 1.388 . S
C388 C389 1.390 . S
C389 C388 1.390 . S
C389 C390 1.394 . S
C389 C395 1.465 . S
C390 C385 1.399 . S
C390 C389 1.394 . S
C390 C391 1.516 . S
C391 C390 1.516 . S
C391 C392 1.502 1_545 S
C391 C393 1.561 1_545 S
C391 C394 1.526 1_545 S
C392 H376 0.959 1_565 S
C392 H377 0.959 . S
C392 H378 0.961 1_565 S
C392 C391 1.502 1_565 S
C393 H379 0.960 . S
C393 H380 0.961 . S
C393 H381 0.959 . S
C393 C391 1.561 1_565 S
C394 C391 1.526 1_565 S
C394 C395 1.396 1_565 S
C394 C399 1.390 . S
C395 C389 1.465 . S
C395 C394 1.396 1_545 S
C395 C396 1.399 . S
C396 H382 0.929 . S
C396 C395 1.399 . S
C396 C397 1.385 1_545 S
C397 H383 0.931 . S
C397 C396 1.385 1_565 S
C397 C398 1.389 . S
C398 C397 1.389 . S
C398 C399 1.387 . S
C399 H384 0.930 . S
C399 C394 1.390 . S
C399 C398 1.387 . S
H400 C412 0.930 . S
H401 C414 0.930 . S
H402 C415 0.930 . S
H403 C419 0.959 . S
H404 C419 0.959 . S
H405 C419 0.961 . S
H406 C420 0.960 . S
H407 C420 0.961 . S
H408 C420 0.959 . S
H409 C423 0.929 . S
H410 C424 0.931 . S
H411 C426 0.930 . S
C412 H400 0.930 . S
C412 C413 1.399 . S
C412 C417 1.399 . S
C413 C412 1.399 . S
C413 C414 1.376 . S
C414 H401 0.930 . S
C414 C413 1.376 . S
C414 C415 1.388 . S
C415 H402 0.930 . S
C415 C414 1.388 . S
C415 C416 1.390 . S
C416 C415 1.390 . S
C416 C417 1.394 . S
C416 C422 1.465 . S
C417 C412 1.399 . S
C417 C416 1.394 . S
C417 C418 1.516 . S
C418 C417 1.516 . S
C418 C419 1.502 . S
C418 C420 1.561 1_545 S
C418 C421 1.526 . S
C419 H403 0.959 . S
C419 H404 0.959 . S
C419 H405 0.961 . S
C419 C418 1.502 . S
C420 H406 0.960 . S
C420 H407 0.961 . S
C420 H408 0.959 . S
C420 C418 1.561 1_565 S
C421 C418 1.526 . S
C421 C422 1.396 . S
C421 C426 1.390 . S
C422 C416 1.465 . S
C422 C421 1.396 . S
C422 C423 1.399 . S
C423 H409 0.929 . S
C423 C422 1.399 . S
C423 C424 1.385 . S
C424 H410 0.931 . S
C424 C423 1.385 . S
C424 C425 1.389 . S
C425 C424 1.389 . S
C425 C426 1.387 . S
C426 H411 0.930 . S
C426 C421 1.390 . S
C426 C425 1.387 . S
H427 C439 0.930 . S
H428 C441 0.930 . S
H429 C442 0.930 . S
H430 C446 0.959 1_545 S
H431 C446 0.959 . S
H432 C446 0.961 . S
H433 C447 0.960 . S
H434 C447 0.961 . S
H435 C447 0.959 . S
H436 C450 0.929 . S
H437 C451 0.931 . S
H438 C453 0.930 . S
C439 H427 0.930 . S
C439 C440 1.399 . S
C439 C444 1.399 . S
C440 C439 1.399 . S
C440 C441 1.376 . S
C441 H428 0.930 . S
C441 C440 1.376 . S
C441 C442 1.388 . S
C442 H429 0.930 . S
C442 C441 1.388 . S
C442 C443 1.390 . S
C443 C442 1.390 . S
C443 C444 1.394 . S
C443 C449 1.465 . S
C444 C439 1.399 . S
C444 C443 1.394 . S
C444 C445 1.516 . S
C445 C444 1.516 . S
C445 C446 1.502 . S
C445 C447 1.561 . S
C445 C448 1.526 1_565 S
C446 H430 0.959 1_565 S
C446 H431 0.959 . S
C446 H432 0.961 . S
C446 C445 1.502 . S
C447 H433 0.960 . S
C447 H434 0.961 . S
C447 H435 0.959 . S
C447 C445 1.561 . S
C448 C445 1.526 1_545 S
C448 C449 1.396 1_545 S
C448 C453 1.390 . S
C449 C443 1.465 . S
C449 C448 1.396 1_565 S
C449 C450 1.399 1_565 S
C450 H436 0.929 . S
C450 C449 1.399 1_545 S
C450 C451 1.385 . S
C451 H437 0.931 . S
C451 C450 1.385 . S
C451 C452 1.389 . S
C452 C451 1.389 . S
C452 C453 1.387 . S
C453 H438 0.930 . S
C453 C448 1.390 . S
C453 C452 1.387 . S
H454 C466 0.930 1_545 S
H455 C468 0.930 . S
H456 C469 0.930 . S
H457 C473 0.959 . S
H458 C473 0.959 1_545 S
H459 C473 0.961 1_545 S
H460 C474 0.960 . S
H461 C474 0.961 . S
H462 C474 0.959 . S
H463 C477 0.929 . S
H464 C478 0.931 . S
H465 C480 0.930 . S
C466 H454 0.930 1_565 S
C466 C467 1.399 . S
C466 C471 1.399 . S
C467 C466 1.399 . S
C467 C468 1.376 . S
C468 H455 0.930 . S
C468 C467 1.376 . S
C468 C469 1.388 . S
C469 H456 0.930 . S
C469 C468 1.388 . S
C469 C470 1.390 . S
C470 C469 1.390 . S
C470 C471 1.394 . S
C470 C476 1.465 . S
C471 C466 1.399 . S
C471 C470 1.394 . S
C471 C472 1.516 . S
C472 C471 1.516 . S
C472 C473 1.502 . S
C472 C474 1.561 1_565 S
C472 C475 1.526 . S
C473 H457 0.959 . S
C473 H458 0.959 1_565 S
C473 H459 0.961 1_565 S
C473 C472 1.502 . S
C474 H460 0.960 . S
C474 H461 0.961 . S
C474 H462 0.959 . S
C474 C472 1.561 1_545 S
C475 C472 1.526 . S
C475 C476 1.396 . S
C475 C480 1.390 . S
C476 C470 1.465 . S
C476 C475 1.396 . S
C476 C477 1.399 . S
C477 H463 0.929 . S
C477 C476 1.399 . S
C477 C478 1.385 . S
C478 H464 0.931 . S
C478 C477 1.385 . S
C478 C479 1.389 . S
C479 C478 1.389 . S
C479 C480 1.387 . S
C480 H465 0.930 . S
C480 C475 1.390 . S
C480 C479 1.387 . S
H481 C493 0.930 . S
H482 C495 0.930 . S
H483 C496 0.930 . S
H484 C500 0.959 . S
H485 C500 0.959 . S
H486 C500 0.961 . S
H487 C501 0.960 . S
H488 C501 0.961 1_565 S
H489 C501 0.959 . S
H490 C504 0.929 . S
H491 C505 0.931 . S
H492 C507 0.930 . S
C493 H481 0.930 . S
C493 C494 1.399 . S
C493 C498 1.399 . S
C494 C493 1.399 . S
C494 C495 1.376 . S
C495 H482 0.930 . S
C495 C494 1.376 . S
C495 C496 1.388 . S
C496 H483 0.930 . S
C496 C495 1.388 . S
C496 C497 1.390 . S
C497 C496 1.390 . S
C497 C498 1.394 . S
C497 C503 1.465 . S
C498 C493 1.399 . S
C498 C497 1.394 . S
C498 C499 1.516 . S
C499 C498 1.516 . S
C499 C500 1.502 1_545 S
C499 C501 1.561 . S
C499 C502 1.526 1_545 S
C500 H484 0.959 . S
C500 H485 0.959 . S
C500 H486 0.961 . S
C500 C499 1.502 1_565 S
C501 H487 0.960 . S
C501 H488 0.961 1_545 S
C501 H489 0.959 . S
C501 C499 1.561 . S
C502 C499 1.526 1_565 S
C502 C503 1.396 1_565 S
C502 C507 1.390 . S
C503 C497 1.465 . S
C503 C502 1.396 1_545 S
C503 C504 1.399 . S
C504 H490 0.929 . S
C504 C503 1.399 . S
C504 C505 1.385 1_545 S
C505 H491 0.931 . S
C505 C504 1.385 1_565 S
C505 C506 1.389 . S
C506 C505 1.389 . S
C506 C507 1.387 . S
C507 H492 0.930 . S
C507 C502 1.390 . S
C507 C506 1.387 . S
H508 C520 0.930 . S
H509 C522 0.930 1_565 S
H510 C523 0.930 1_565 S
H511 C527 0.959 . S
H512 C527 0.959 . S
H513 C527 0.961 . S
H514 C528 0.960 . S
H515 C528 0.961 . S
H516 C528 0.959 . S
H517 C531 0.929 . S
H518 C532 0.931 . S
H519 C534 0.930 . S
C520 H508 0.930 . S
C520 C521 1.399 . S
C520 C525 1.399 . S
C521 C520 1.399 . S
C521 C522 1.376 . S
C522 H509 0.930 1_545 S
C522 C521 1.376 . S
C522 C523 1.388 . S
C523 H510 0.930 1_545 S
C523 C522 1.388 . S
C523 C524 1.390 . S
C524 C523 1.390 . S
C524 C525 1.394 . S
C524 C530 1.465 . S
C525 C520 1.399 . S
C525 C524 1.394 . S
C525 C526 1.516 . S
C526 C525 1.516 . S
C526 C527 1.502 . S
C526 C528 1.561 . S
C526 C529 1.526 . S
C527 H511 0.959 . S
C527 H512 0.959 . S
C527 H513 0.961 . S
C527 C526 1.502 . S
C528 H514 0.960 . S
C528 H515 0.961 . S
C528 H516 0.959 . S
C528 C526 1.561 . S
C529 C526 1.526 . S
C529 C530 1.396 . S
C529 C534 1.390 . S
C530 C524 1.465 . S
C530 C529 1.396 . S
C530 C531 1.399 . S
C531 H517 0.929 . S
C531 C530 1.399 . S
C531 C532 1.385 . S
C532 H518 0.931 . S
C532 C531 1.385 . S
C532 C533 1.389 . S
C533 C532 1.389 . S
C533 C534 1.387 . S
C534 H519 0.930 . S
C534 C529 1.390 . S
C534 C533 1.387 . S
H535 C547 0.930 . S
H536 C549 0.930 . S
H537 C550 0.930 . S
H538 C554 0.959 . S
H539 C554 0.959 . S
H540 C554 0.961 . S
H541 C555 0.960 . S
H542 C555 0.961 1_565 S
H543 C555 0.959 . S
H544 C558 0.929 . S
H545 C559 0.931 . S
H546 C561 0.930 . S
C547 H535 0.930 . S
C547 C548 1.399 . S
C547 C552 1.399 1_545 S
C548 C547 1.399 . S
C548 C549 1.376 . S
C549 H536 0.930 . S
C549 C548 1.376 . S
C549 C550 1.388 1_545 S
C550 H537 0.930 . S
C550 C549 1.388 1_565 S
C550 C551 1.390 . S
C551 C550 1.390 . S
C551 C552 1.394 . S
C551 C557 1.465 . S
C552 C547 1.399 1_565 S
C552 C551 1.394 . S
C552 C553 1.516 . S
C553 C552 1.516 . S
C553 C554 1.502 . S
C553 C555 1.561 1_565 S
C553 C556 1.526 . S
C554 H538 0.959 . S
C554 H539 0.959 . S
C554 H540 0.961 . S
C554 C553 1.502 . S
C555 H541 0.960 . S
C555 H542 0.961 1_545 S
C555 H543 0.959 . S
C555 C553 1.561 1_545 S
C556 C553 1.526 . S
C556 C557 1.396 . S
C556 C561 1.390 . S
C557 C551 1.465 . S
C557 C556 1.396 . S
C557 C558 1.399 . S
C558 H544 0.929 . S
C558 C557 1.399 . S
C558 C559 1.385 . S
C559 H545 0.931 . S
C559 C558 1.385 . S
C559 C560 1.389 . S
C560 C559 1.389 . S
C560 C561 1.387 . S
C561 H546 0.930 . S
C561 C556 1.390 . S
C561 C560 1.387 . S
H562 C574 0.930 1_545 S
H563 C576 0.930 . S
H564 C577 0.930 . S
H565 C581 0.959 . S
H566 C581 0.959 . S
H567 C581 0.961 1_545 S
H568 C582 0.960 1_545 S
H569 C582 0.961 . S
H570 C582 0.959 . S
H571 C585 0.929 . S
H572 C586 0.931 . S
H573 C588 0.930 1_455 S
C574 H562 0.930 1_565 S
C574 C575 1.399 . S
C574 C579 1.399 . S
C575 C574 1.399 . S
C575 C576 1.376 . S
C576 H563 0.930 . S
C576 C575 1.376 . S
C576 C577 1.388 . S
C577 H564 0.930 . S
C577 C576 1.388 . S
C577 C578 1.390 . S
C578 C577 1.390 . S
C578 C579 1.394 . S
C578 C584 1.465 . S
C579 C574 1.399 . S
C579 C578 1.394 . S
C579 C580 1.516 . S
C580 C579 1.516 . S
C580 C581 1.502 . S
C580 C582 1.561 . S
C580 C583 1.526 . S
C581 H565 0.959 . S
C581 H566 0.959 . S
C581 H567 0.961 1_565 S
C581 C580 1.502 . S
C582 H568 0.960 1_565 S
C582 H569 0.961 . S
C582 H570 0.959 . S
C582 C580 1.561 . S
C583 C580 1.526 . S
C583 C584 1.396 . S
C583 C588 1.390 . S
C584 C578 1.465 . S
C584 C583 1.396 . S
C584 C585 1.399 . S
C585 H571 0.929 . S
C585 C584 1.399 . S
C585 C586 1.385 . S
C586 H572 0.931 . S
C586 C585 1.385 . S
C586 C587 1.383 1_655 S
C587 C586 1.383 1_455 S
C587 C588 1.384 1_455 S
C588 H573 0.930 1_655 S
C588 C583 1.390 . S
C588 C587 1.384 1_655 S
H589 C601 0.930 . S
H590 C603 0.930 . S
H591 C604 0.930 1_565 S
H592 C608 0.959 . S
H593 C608 0.959 . S
H594 C608 0.961 . S
H595 C609 0.960 . S
H596 C609 0.961 . S
H597 C609 0.959 . S
H598 C612 0.929 . S
H599 C613 0.931 . S
H600 C615 0.930 . S
C601 H589 0.930 . S
C601 C602 1.399 1_545 S
C601 C606 1.399 . S
C602 C601 1.399 1_565 S
C602 C603 1.376 . S
C603 H590 0.930 . S
C603 C602 1.376 . S
C603 C604 1.388 1_565 S
C604 H591 0.930 1_545 S
C604 C603 1.388 1_545 S
C604 C605 1.390 . S
C605 C604 1.390 . S
C605 C606 1.394 . S
C605 C611 1.465 . S
C606 C601 1.399 . S
C606 C605 1.394 . S
C606 C607 1.516 . S
C607 C606 1.516 . S
C607 C608 1.502 1_655 S
C607 C609 1.561 . S
C607 C610 1.526 . S
C608 H592 0.959 . S
C608 H593 0.959 . S
C608 H594 0.961 . S
C608 C607 1.502 1_455 S
C609 H595 0.960 . S
C609 H596 0.961 . S
C609 H597 0.959 . S
C609 C607 1.561 . S
C610 C607 1.526 . S
C610 C611 1.396 . S
C610 C615 1.390 1_655 S
C611 C605 1.465 . S
C611 C610 1.396 . S
C611 C612 1.399 . S
C612 H598 0.929 . S
C612 C611 1.399 . S
C612 C613 1.385 . S
C613 H599 0.931 . S
C613 C612 1.385 . S
C613 C614 1.389 1_655 S
C614 C613 1.389 1_455 S
C614 C615 1.387 . S
C615 H600 0.930 . S
C615 C610 1.390 1_455 S
C615 C614 1.387 . S
H616 C628 0.930 1_545 S
H617 C630 0.930 . S
H618 C631 0.930 . S
H619 C635 0.963 . S
H620 C635 0.956 1_545 S
H621 C635 0.946 1_545 S
H622 C636 0.960 . S
H623 C636 0.961 . S
H624 C636 0.959 . S
H625 C639 0.929 . S
H626 C640 0.931 . S
H627 C642 0.930 . S
C628 H616 0.930 1_565 S
C628 C629 1.399 . S
C628 C633 1.399 . S
C629 C628 1.399 . S
C629 C630 1.376 . S
C630 H617 0.930 . S
C630 C629 1.376 . S
C630 C631 1.388 . S
C631 H618 0.930 . S
C631 C630 1.388 . S
C631 C632 1.390 . S
C632 C631 1.390 . S
C632 C633 1.394 . S
C632 C638 1.465 . S
C633 C628 1.399 . S
C633 C632 1.394 . S
C633 C634 1.516 . S
C634 C633 1.516 . S
C634 C635 1.516 . S
C634 C636 1.561 . S
C634 C637 1.526 . S
C635 H619 0.963 . S
C635 H620 0.956 1_565 S
C635 H621 0.946 1_565 S
C635 C634 1.516 . S
C636 H622 0.960 . S
C636 H623 0.961 . S
C636 H624 0.959 . S
C636 C634 1.561 . S
C637 C634 1.526 . S
C637 C638 1.396 . S
C637 C642 1.390 . S
C638 C632 1.465 . S
C638 C637 1.396 . S
C638 C639 1.399 . S
C639 H625 0.929 . S
C639 C638 1.399 . S
C639 C640 1.385 . S
C640 H626 0.931 . S
C640 C639 1.385 . S
C640 C641 1.389 . S
C641 C640 1.389 . S
C641 C642 1.387 . S
C642 H627 0.930 . S
C642 C637 1.390 . S
C642 C641 1.387 . S
H643 C655 0.930 . S
H644 C657 0.930 . S
H645 C658 0.930 . S
H646 C662 0.959 . S
H647 C662 0.959 . S
H648 C662 0.961 1_545 S
H649 C663 0.960 . S
H650 C663 0.961 . S
H651 C663 0.959 1_455 S
H652 C666 0.929 . S
H653 C667 0.931 . S
H654 C669 0.930 . S
C655 H643 0.930 . S
C655 C656 1.399 . S
C655 C660 1.399 1_545 S
C656 C655 1.399 . S
C656 C657 1.376 1_545 S
C657 H644 0.930 . S
C657 C656 1.376 1_565 S
C657 C658 1.388 . S
C658 H645 0.930 . S
C658 C657 1.388 . S
C658 C659 1.390 . S
C659 C658 1.390 . S
C659 C660 1.394 . S
C659 C665 1.465 . S
C660 C655 1.399 1_565 S
C660 C659 1.394 . S
C660 C661 1.516 . S
C661 C660 1.516 . S
C661 C662 1.502 . S
C661 C663 1.561 1_565 S
C661 C664 1.526 . S
C662 H646 0.959 . S
C662 H647 0.959 . S
C662 H648 0.961 1_565 S
C662 C661 1.502 . S
C663 H649 0.960 . S
C663 H650 0.961 . S
C663 H651 0.959 1_655 S
C663 C661 1.561 1_545 S
C664 C661 1.526 . S
C664 C665 1.396 . S
C664 C669 1.390 . S
C665 C659 1.465 . S
C665 C664 1.396 . S
C665 C666 1.399 . S
C666 H652 0.929 . S
C666 C665 1.399 . S
C666 C667 1.385 1_655 S
C667 H653 0.931 . S
C667 C666 1.385 1_455 S
C667 C668 1.389 . S
C668 C667 1.389 . S
C668 C669 1.387 1_455 S
C669 H654 0.930 . S
C669 C664 1.390 . S
C669 C668 1.387 1_655 S
H670 C682 0.930 . S
H671 C684 0.930 1_565 S
H672 C685 0.930 1_565 S
H673 C689 0.959 . S
H674 C689 0.959 . S
H675 C689 0.961 . S
H676 C690 0.960 . S
H677 C690 0.961 . S
H678 C690 0.959 . S
H679 C693 0.929 . S
H680 C694 0.928 1_455 S
H681 C696 0.930 . S
C682 H670 0.930 . S
C682 C683 1.399 . S
C682 C687 1.399 . S
C683 C682 1.399 . S
C683 C684 1.376 . S
C684 H671 0.930 1_545 S
C684 C683 1.376 . S
C684 C685 1.388 . S
C685 H672 0.930 1_545 S
C685 C684 1.388 . S
C685 C686 1.390 . S
C686 C685 1.390 . S
C686 C687 1.394 . S
C686 C692 1.465 . S
C687 C682 1.399 . S
C687 C686 1.394 . S
C687 C688 1.516 . S
C688 C687 1.516 . S
C688 C689 1.502 . S
C688 C690 1.561 . S
C688 C691 1.526 . S
C689 H673 0.959 . S
C689 H674 0.959 . S
C689 H675 0.961 . S
C689 C688 1.502 . S
C690 H676 0.960 . S
C690 H677 0.961 . S
C690 H678 0.959 . S
C690 C688 1.561 . S
C691 C688 1.526 . S
C691 C692 1.396 . S
C691 C696 1.390 . S
C692 C686 1.465 . S
C692 C691 1.396 . S
C692 C693 1.399 . S
C693 H679 0.929 . S
C693 C692 1.399 . S
C693 C694 1.388 . S
C694 H680 0.928 1_655 S
C694 C693 1.388 . S
C694 C695 1.389 1_655 S
C695 C694 1.389 1_455 S
C695 C696 1.387 1_455 S
C696 H681 0.930 . S
C696 C691 1.390 . S
C696 C695 1.387 1_655 S
H697 C709 0.930 . S
H698 C711 0.930 . S
H699 C712 0.930 . S
H700 C716 0.959 . S
H701 C716 0.959 . S
H702 C716 0.961 1_565 S
H703 C717 0.960 . S
H704 C717 0.961 . S
H705 C717 0.959 . S
H706 C720 0.929 . S
H707 C721 0.931 . S
H708 C723 0.930 . S
C709 H697 0.930 . S
C709 C710 1.399 . S
C709 C714 1.399 1_565 S
C710 C709 1.399 . S
C710 C711 1.376 1_565 S
C711 H698 0.930 . S
C711 C710 1.376 1_545 S
C711 C712 1.388 . S
C712 H699 0.930 . S
C712 C711 1.388 . S
C712 C713 1.390 . S
C713 C712 1.390 . S
C713 C714 1.394 . S
C713 C719 1.465 . S
C714 C709 1.399 1_545 S
C714 C713 1.394 . S
C714 C715 1.516 . S
C715 C714 1.516 . S
C715 C716 1.502 . S
C715 C717 1.561 1_545 S
C715 C718 1.526 . S
C716 H700 0.959 . S
C716 H701 0.959 . S
C716 H702 0.961 1_545 S
C716 C715 1.502 . S
C717 H703 0.960 . S
C717 H704 0.961 . S
C717 H705 0.959 . S
C717 C715 1.561 1_565 S
C718 C715 1.526 . S
C718 C719 1.396 . S
C718 C723 1.390 . S
C719 C713 1.465 . S
C719 C718 1.396 . S
C719 C720 1.399 . S
C720 H706 0.929 . S
C720 C719 1.399 . S
C720 C721 1.385 . S
C721 H707 0.931 . S
C721 C720 1.385 . S
C721 C722 1.389 . S
C722 C721 1.389 . S
C722 C723 1.387 . S
C723 H708 0.930 . S
C723 C718 1.390 . S
C723 C722 1.387 . S
H724 C736 0.930 . S
H725 C738 0.930 . S
H726 C739 0.930 . S
H727 C743 0.959 . S
H728 C743 0.959 . S
H729 C743 0.961 . S
H730 C744 0.960 . S
H731 C744 0.961 . S
H732 C744 0.959 . S
H733 C747 0.929 . S
H734 C748 0.931 . S
H735 C750 0.930 . S
C736 H724 0.930 . S
C736 C737 1.399 . S
C736 C741 1.399 . S
C737 C736 1.399 . S
C737 C738 1.376 . S
C738 H725 0.930 . S
C738 C737 1.376 . S
C738 C739 1.388 . S
C739 H726 0.930 . S
C739 C738 1.388 . S
C739 C740 1.390 . S
C740 C739 1.390 . S
C740 C741 1.394 . S
C740 C746 1.465 . S
C741 C736 1.399 . S
C741 C740 1.394 . S
C741 C742 1.516 . S
C742 C741 1.516 . S
C742 C743 1.502 . S
C742 C744 1.561 . S
C742 C745 1.526 . S
C743 H727 0.959 . S
C743 H728 0.959 . S
C743 H729 0.961 . S
C743 C742 1.502 . S
C744 H730 0.960 . S
C744 H731 0.961 . S
C744 H732 0.959 . S
C744 C742 1.561 . S
C745 C742 1.526 . S
C745 C746 1.396 . S
C745 C750 1.390 . S
C746 C740 1.465 . S
C746 C745 1.396 . S
C746 C747 1.399 . S
C747 H733 0.929 . S
C747 C746 1.399 . S
C747 C748 1.385 . S
C748 H734 0.931 . S
C748 C747 1.385 . S
C748 C749 1.389 . S
C749 C748 1.389 . S
C749 C750 1.387 . S
C750 H735 0.930 . S
C750 C745 1.390 . S
C750 C749 1.387 . S
H751 C763 0.930 . S
H752 C765 0.930 . S
H753 C766 0.930 . S
H754 C770 0.959 . S
H755 C770 0.959 . S
H756 C770 0.961 . S
H757 C771 0.960 . S
H758 C771 0.961 . S
H759 C771 0.959 1_455 S
H760 C774 0.929 . S
H761 C775 0.931 . S
H762 C777 0.930 . S
C763 H751 0.930 . S
C763 C764 1.399 . S
C763 C768 1.399 . S
C764 C763 1.399 . S
C764 C765 1.376 . S
C765 H752 0.930 . S
C765 C764 1.376 . S
C765 C766 1.388 . S
C766 H753 0.930 . S
C766 C765 1.388 . S
C766 C767 1.390 . S
C767 C766 1.390 . S
C767 C768 1.394 . S
C767 C773 1.465 . S
C768 C763 1.399 . S
C768 C767 1.394 . S
C768 C769 1.516 . S
C769 C768 1.516 . S
C769 C770 1.502 . S
C769 C771 1.561 . S
C769 C772 1.526 . S
C770 H754 0.959 . S
C770 H755 0.959 . S
C770 H756 0.961 . S
C770 C769 1.502 . S
C771 H757 0.960 . S
C771 H758 0.961 . S
C771 H759 0.959 1_655 S
C771 C769 1.561 . S
C772 C769 1.526 . S
C772 C773 1.396 . S
C772 C777 1.390 . S
C773 C767 1.465 . S
C773 C772 1.396 . S
C773 C774 1.399 . S
C774 H760 0.929 . S
C774 C773 1.399 . S
C774 C775 1.385 . S
C775 H761 0.931 . S
C775 C774 1.385 . S
C775 C776 1.389 . S
C776 C775 1.389 . S
C776 C777 1.387 . S
C777 H762 0.930 . S
C777 C772 1.390 . S
C777 C776 1.387 . S
H778 C790 0.930 . S
H779 C792 0.930 . S
H780 C793 0.930 . S
H781 C797 0.959 . S
H782 C797 0.959 . S
H783 C797 0.961 . S
H784 C798 0.960 . S
H785 C798 0.961 . S
H786 C798 0.959 . S
H787 C801 0.929 . S
H788 C802 0.931 . S
H789 C804 0.930 . S
C790 H778 0.930 . S
C790 C791 1.399 . S
C790 C795 1.399 . S
C791 C790 1.399 . S
C791 C792 1.376 . S
C792 H779 0.930 . S
C792 C791 1.376 . S
C792 C793 1.388 . S
C793 H780 0.930 . S
C793 C792 1.388 . S
C793 C794 1.390 . S
C794 C793 1.390 . S
C794 C795 1.394 . S
C794 C800 1.465 . S
C795 C790 1.399 . S
C795 C794 1.394 . S
C795 C796 1.516 . S
C796 C795 1.516 . S
C796 C797 1.502 . S
C796 C798 1.561 . S
C796 C799 1.526 . S
C797 H781 0.959 . S
C797 H782 0.959 . S
C797 H783 0.961 . S
C797 C796 1.502 . S
C798 H784 0.960 . S
C798 H785 0.961 . S
C798 H786 0.959 . S
C798 C796 1.561 . S
C799 C796 1.526 . S
C799 C800 1.396 . S
C799 C804 1.390 . S
C800 C794 1.465 . S
C800 C799 1.396 . S
C800 C801 1.399 . S
C801 H787 0.929 . S
C801 C800 1.399 . S
C801 C802 1.385 . S
C802 H788 0.931 . S
C802 C801 1.385 . S
C802 C803 1.389 . S
C803 C802 1.389 . S
C803 C804 1.387 . S
C804 H789 0.930 . S
C804 C799 1.390 . S
C804 C803 1.387 . S
H805 C817 0.930 . S
H806 C819 0.930 . S
H807 C820 0.930 . S
H808 C824 0.959 . S
H809 C824 0.959 . S
H810 C824 0.961 . S
H811 C825 0.960 . S
H812 C825 0.961 . S
H813 C825 0.959 . S
H814 C828 0.929 . S
H815 C829 0.931 . S
H816 C831 0.930 . S
C817 H805 0.930 . S
C817 C818 1.399 . S
C817 C822 1.399 . S
C818 C817 1.399 . S
C818 C819 1.376 . S
C819 H806 0.930 . S
C819 C818 1.376 . S
C819 C820 1.388 . S
C820 H807 0.930 . S
C820 C819 1.388 . S
C820 C821 1.390 . S
C821 C820 1.390 . S
C821 C822 1.394 . S
C821 C827 1.465 . S
C822 C817 1.399 . S
C822 C821 1.394 . S
C822 C823 1.516 . S
C823 C822 1.516 . S
C823 C824 1.502 . S
C823 C825 1.561 . S
C823 C826 1.526 . S
C824 H808 0.959 . S
C824 H809 0.959 . S
C824 H810 0.961 . S
C824 C823 1.502 . S
C825 H811 0.960 . S
C825 H812 0.961 . S
C825 H813 0.959 . S
C825 C823 1.561 . S
C826 C823 1.526 . S
C826 C827 1.396 . S
C826 C831 1.390 . S
C827 C821 1.465 . S
C827 C826 1.396 . S
C827 C828 1.399 . S
C828 H814 0.929 . S
C828 C827 1.399 . S
C828 C829 1.385 . S
C829 H815 0.931 . S
C829 C828 1.385 . S
C829 C830 1.389 . S
C830 C829 1.389 . S
C830 C831 1.387 . S
C831 H816 0.930 . S
C831 C826 1.390 . S
C831 C830 1.387 . S
H832 C844 0.930 . S
H833 C846 0.930 . S
H834 C847 0.930 . S
H835 C851 0.959 . S
H836 C851 0.959 . S
H837 C851 0.961 . S
H838 C852 0.960 . S
H839 C852 0.961 . S
H840 C852 0.959 . S
H841 C855 0.929 . S
H842 C856 0.931 . S
H843 C858 0.930 . S
C844 H832 0.930 . S
C844 C845 1.399 . S
C844 C849 1.399 . S
C845 C844 1.399 . S
C845 C846 1.376 . S
C846 H833 0.930 . S
C846 C845 1.376 . S
C846 C847 1.388 . S
C847 H834 0.930 . S
C847 C846 1.388 . S
C847 C848 1.390 . S
C848 C847 1.390 . S
C848 C849 1.394 . S
C848 C854 1.465 . S
C849 C844 1.399 . S
C849 C848 1.394 . S
C849 C850 1.516 . S
C850 C849 1.516 . S
C850 C851 1.502 . S
C850 C852 1.561 . S
C850 C853 1.526 . S
C851 H835 0.959 . S
C851 H836 0.959 . S
C851 H837 0.961 . S
C851 C850 1.502 . S
C852 H838 0.960 . S
C852 H839 0.961 . S
C852 H840 0.959 . S
C852 C850 1.561 . S
C853 C850 1.526 . S
C853 C854 1.396 . S
C853 C858 1.390 . S
C854 C848 1.465 . S
C854 C853 1.396 . S
C854 C855 1.399 . S
C855 H841 0.929 . S
C855 C854 1.399 . S
C855 C856 1.385 . S
C856 H842 0.931 . S
C856 C855 1.385 . S
C856 C857 1.389 . S
C857 C856 1.389 . S
C857 C858 1.387 . S
C858 H843 0.930 . S
C858 C853 1.390 . S
C858 C857 1.387 . S
H859 C871 0.930 . S
H860 C873 0.930 . S
H861 C874 0.930 . S
H862 C878 0.959 . S
H863 C878 0.959 . S
H864 C878 0.961 . S
H865 C879 0.960 . S
H866 C879 0.961 . S
H867 C879 0.959 . S
H868 C882 0.929 . S
H869 C883 0.931 . S
H870 C885 0.930 . S
C871 H859 0.930 . S
C871 C872 1.399 . S
C871 C876 1.399 . S
C872 C871 1.399 . S
C872 C873 1.376 . S
C873 H860 0.930 . S
C873 C872 1.376 . S
C873 C874 1.388 . S
C874 H861 0.930 . S
C874 C873 1.388 . S
C874 C875 1.390 . S
C875 C874 1.390 . S
C875 C876 1.394 . S
C875 C881 1.465 . S
C876 C871 1.399 . S
C876 C875 1.394 . S
C876 C877 1.516 . S
C877 C876 1.516 . S
C877 C878 1.502 . S
C877 C879 1.561 . S
C877 C880 1.526 . S
C878 H862 0.959 . S
C878 H863 0.959 . S
C878 H864 0.961 . S
C878 C877 1.502 . S
C879 H865 0.960 . S
C879 H866 0.961 . S
C879 H867 0.959 . S
C879 C877 1.561 . S
C880 C877 1.526 . S
C880 C881 1.396 . S
C880 C885 1.390 . S
C881 C875 1.465 . S
C881 C880 1.396 . S
C881 C882 1.399 . S
C882 H868 0.929 . S
C882 C881 1.399 . S
C882 C883 1.385 . S
C883 H869 0.931 . S
C883 C882 1.385 . S
C883 C884 1.389 . S
C884 C883 1.389 . S
C884 C885 1.387 . S
C885 H870 0.930 . S
C885 C880 1.390 . S
C885 C884 1.387 . S
H886 C898 0.930 . S
H887 C900 0.930 1_455 S
H888 C901 0.930 . S
H889 C905 0.959 . S
H890 C905 0.959 . S
H891 C905 0.961 . S
H892 C906 0.960 . S
H893 C906 0.961 . S
H894 C906 0.959 . S
H895 C909 0.929 . S
H896 C910 0.931 . S
H897 C912 0.930 . S
C898 H886 0.930 . S
C898 C899 1.399 1_655 S
C898 C903 1.399 . S
C899 C898 1.399 1_455 S
C899 C900 1.376 1_455 S
C900 H887 0.930 1_655 S
C900 C899 1.376 1_655 S
C900 C901 1.388 . S
C901 H888 0.930 . S
C901 C900 1.388 . S
C901 C902 1.390 . S
C902 C901 1.390 . S
C902 C903 1.394 . S
C902 C908 1.465 . S
C903 C898 1.399 . S
C903 C902 1.394 . S
C903 C904 1.516 . S
C904 C903 1.516 . S
C904 C905 1.502 . S
C904 C906 1.561 . S
C904 C907 1.526 . S
C905 H889 0.959 . S
C905 H890 0.959 . S
C905 H891 0.961 . S
C905 C904 1.502 . S
C906 H892 0.960 . S
C906 H893 0.961 . S
C906 H894 0.959 . S
C906 C904 1.561 . S
C907 C904 1.526 . S
C907 C908 1.396 . S
C907 C912 1.390 . S
C908 C902 1.465 . S
C908 C907 1.396 . S
C908 C909 1.399 . S
C909 H895 0.929 . S
C909 C908 1.399 . S
C909 C910 1.385 . S
C910 H896 0.931 . S
C910 C909 1.385 . S
C910 C911 1.389 . S
C911 C910 1.389 . S
C911 C912 1.387 . S
C912 H897 0.930 . S
C912 C907 1.390 . S
C912 C911 1.387 . S
H913 C925 0.930 . S
H914 C927 0.930 . S
H915 C928 0.930 . S
H916 C932 0.959 . S
H917 C932 0.959 . S
H918 C932 0.961 . S
H919 C933 0.960 . S
H920 C933 0.961 . S
H921 C933 0.959 . S
H922 C936 0.929 . S
H923 C937 0.931 . S
H924 C939 0.930 . S
C925 H913 0.930 . S
C925 C926 1.399 . S
C925 C930 1.399 . S
C926 C925 1.399 . S
C926 C927 1.376 . S
C927 H914 0.930 . S
C927 C926 1.376 . S
C927 C928 1.388 . S
C928 H915 0.930 . S
C928 C927 1.388 . S
C928 C929 1.390 . S
C929 C928 1.390 . S
C929 C930 1.394 . S
C929 C935 1.465 . S
C930 C925 1.399 . S
C930 C929 1.394 . S
C930 C931 1.516 . S
C931 C930 1.516 . S
C931 C932 1.502 . S
C931 C933 1.561 . S
C931 C934 1.526 . S
C932 H916 0.959 . S
C932 H917 0.959 . S
C932 H918 0.961 . S
C932 C931 1.502 . S
C933 H919 0.960 . S
C933 H920 0.961 . S
C933 H921 0.959 . S
C933 C931 1.561 . S
C934 C931 1.526 . S
C934 C935 1.396 . S
C934 C939 1.390 . S
C935 C929 1.465 . S
C935 C934 1.396 . S
C935 C936 1.399 . S
C936 H922 0.929 . S
C936 C935 1.399 . S
C936 C937 1.385 . S
C937 H923 0.931 . S
C937 C936 1.385 . S
C937 C938 1.389 . S
C938 C937 1.389 . S
C938 C939 1.387 . S
C939 H924 0.930 . S
C939 C934 1.390 . S
C939 C938 1.387 . S
H940 C952 0.930 . S
H941 C954 0.930 . S
H942 C955 0.930 . S
H943 C959 0.959 . S
H944 C959 0.959 . S
H945 C959 0.961 . S
H946 C960 0.960 . S
H947 C960 0.961 . S
H948 C960 0.959 . S
H949 C963 0.929 . S
H950 C964 0.931 . S
H951 C966 0.930 . S
C952 H940 0.930 . S
C952 C953 1.399 . S
C952 C957 1.399 . S
C953 C952 1.399 . S
C953 C954 1.376 . S
C954 H941 0.930 . S
C954 C953 1.376 . S
C954 C955 1.388 . S
C955 H942 0.930 . S
C955 C954 1.388 . S
C955 C956 1.390 . S
C956 C955 1.390 . S
C956 C957 1.394 . S
C956 C962 1.465 . S
C957 C952 1.399 . S
C957 C956 1.394 . S
C957 C958 1.516 . S
C958 C957 1.516 . S
C958 C959 1.502 . S
C958 C960 1.561 . S
C958 C961 1.526 . S
C959 H943 0.959 . S
C959 H944 0.959 . S
C959 H945 0.961 . S
C959 C958 1.502 . S
C960 H946 0.960 . S
C960 H947 0.961 . S
C960 H948 0.959 . S
C960 C958 1.561 . S
C961 C958 1.526 . S
C961 C962 1.396 . S
C961 C966 1.390 . S
C962 C956 1.465 . S
C962 C961 1.396 . S
C962 C963 1.399 . S
C963 H949 0.929 . S
C963 C962 1.399 . S
C963 C964 1.385 . S
C964 H950 0.931 . S
C964 C963 1.385 . S
C964 C965 1.389 . S
C965 C964 1.389 . S
C965 C966 1.387 . S
C966 H951 0.930 . S
C966 C961 1.390 . S
C966 C965 1.387 . S
H967 C979 0.930 . S
H968 C981 0.930 . S
H969 C982 0.930 . S
H970 C986 0.959 . S
H971 C986 0.959 . S
H972 C986 0.961 . S
H973 C987 0.960 . S
H974 C987 0.961 . S
H975 C987 0.959 . S
H976 C990 0.929 . S
H977 C991 0.931 . S
H978 C993 0.930 . S
C979 H967 0.930 . S
C979 C980 1.399 . S
C979 C984 1.399 . S
C980 C979 1.399 . S
C980 C981 1.376 . S
C981 H968 0.930 . S
C981 C980 1.376 . S
C981 C982 1.388 . S
C982 H969 0.930 . S
C982 C981 1.388 . S
C982 C983 1.390 . S
C983 C982 1.390 . S
C983 C984 1.394 . S
C983 C989 1.465 . S
C984 C979 1.399 . S
C984 C983 1.394 . S
C984 C985 1.516 . S
C985 C984 1.516 . S
C985 C986 1.502 . S
C985 C987 1.561 . S
C985 C988 1.526 . S
C986 H970 0.959 . S
C986 H971 0.959 . S
C986 H972 0.961 . S
C986 C985 1.502 . S
C987 H973 0.960 . S
C987 H974 0.961 . S
C987 H975 0.959 . S
C987 C985 1.561 . S
C988 C985 1.526 . S
C988 C989 1.396 . S
C988 C993 1.390 . S
C989 C983 1.465 . S
C989 C988 1.396 . S
C989 C990 1.399 . S
C990 H976 0.929 . S
C990 C989 1.399 . S
C990 C991 1.385 . S
C991 H977 0.931 . S
C991 C990 1.385 . S
C991 C992 1.389 . S
C992 C991 1.389 . S
C992 C993 1.387 . S
C993 H978 0.930 . S
C993 C988 1.390 . S
C993 C992 1.387 . S
H994 C1006 0.930 . S
H995 C1008 0.930 . S
H996 C1009 0.930 . S
H997 C1013 0.959 . S
H998 C1013 0.959 . S
H999 C1013 0.961 . S
H1000 C1014 0.960 . S
H1001 C1014 0.961 . S
H1002 C1014 0.959 . S
H1003 C1017 0.929 . S
H1004 C1018 0.931 . S
H1005 C1020 0.930 . S
C1006 H994 0.930 . S
C1006 C1007 1.399 . S
C1006 C1011 1.399 . S
C1007 C1006 1.399 . S
C1007 C1008 1.376 . S
C1008 H995 0.930 . S
C1008 C1007 1.376 . S
C1008 C1009 1.388 . S
C1009 H996 0.930 . S
C1009 C1008 1.388 . S
C1009 C1010 1.390 . S
C1010 C1009 1.390 . S
C1010 C1011 1.394 . S
C1010 C1016 1.465 . S
C1011 C1006 1.399 . S
C1011 C1010 1.394 . S
C1011 C1012 1.516 . S
C1012 C1011 1.516 . S
C1012 C1013 1.502 . S
C1012 C1014 1.561 . S
C1012 C1015 1.526 . S
C1013 H997 0.959 . S
C1013 H998 0.959 . S
C1013 H999 0.961 . S
C1013 C1012 1.502 . S
C1014 H1000 0.960 . S
C1014 H1001 0.961 . S
C1014 H1002 0.959 . S
C1014 C1012 1.561 . S
C1015 C1012 1.526 . S
C1015 C1016 1.396 . S
C1015 C1020 1.390 . S
C1016 C1010 1.465 . S
C1016 C1015 1.396 . S
C1016 C1017 1.399 . S
C1017 H1003 0.929 . S
C1017 C1016 1.399 . S
C1017 C1018 1.385 . S
C1018 H1004 0.931 . S
C1018 C1017 1.385 . S
C1018 C1019 1.389 . S
C1019 C1018 1.389 . S
C1019 C1020 1.387 . S
C1020 H1005 0.930 . S
C1020 C1015 1.390 . S
C1020 C1019 1.387 . S
H1021 C1033 0.930 . S
H1022 C1035 0.930 . S
H1023 C1036 0.930 . S
H1024 C1040 0.959 . S
H1025 C1040 0.959 . S
H1026 C1040 0.961 . S
H1027 C1041 0.960 . S
H1028 C1041 0.961 . S
H1029 C1041 0.959 . S
H1030 C1044 0.929 . S
H1031 C1045 0.931 . S
H1032 C1047 0.930 . S
C1033 H1021 0.930 . S
C1033 C1034 1.399 . S
C1033 C1038 1.399 . S
C1034 C1033 1.399 . S
C1034 C1035 1.376 . S
C1035 H1022 0.930 . S
C1035 C1034 1.376 . S
C1035 C1036 1.388 . S
C1036 H1023 0.930 . S
C1036 C1035 1.388 . S
C1036 C1037 1.390 . S
C1037 C1036 1.390 . S
C1037 C1038 1.394 . S
C1037 C1043 1.465 . S
C1038 C1033 1.399 . S
C1038 C1037 1.394 . S
C1038 C1039 1.516 . S
C1039 C1038 1.516 . S
C1039 C1040 1.502 . S
C1039 C1041 1.561 . S
C1039 C1042 1.526 . S
C1040 H1024 0.959 . S
C1040 H1025 0.959 . S
C1040 H1026 0.961 . S
C1040 C1039 1.502 . S
C1041 H1027 0.960 . S
C1041 H1028 0.961 . S
C1041 H1029 0.959 . S
C1041 C1039 1.561 . S
C1042 C1039 1.526 . S
C1042 C1043 1.396 . S
C1042 C1047 1.390 . S
C1043 C1037 1.465 . S
C1043 C1042 1.396 . S
C1043 C1044 1.399 . S
C1044 H1030 0.929 . S
C1044 C1043 1.399 . S
C1044 C1045 1.385 . S
C1045 H1031 0.931 . S
C1045 C1044 1.385 . S
C1045 C1046 1.389 . S
C1046 C1045 1.389 . S
C1046 C1047 1.387 . S
C1047 H1032 0.930 . S
C1047 C1042 1.390 . S
C1047 C1046 1.387 . S
H1048 C1060 0.930 . S
H1049 C1062 0.930 . S
H1050 C1063 0.930 . S
H1051 C1067 0.959 . S
H1052 C1067 0.959 . S
H1053 C1067 0.961 . S
H1054 C1068 0.960 . S
H1055 C1068 0.961 . S
H1056 C1068 0.959 . S
H1057 C1071 0.929 . S
H1058 C1072 0.931 . S
H1059 C1074 0.930 . S
C1060 H1048 0.930 . S
C1060 C1061 1.399 . S
C1060 C1065 1.399 . S
C1061 C1060 1.399 . S
C1061 C1062 1.376 . S
C1062 H1049 0.930 . S
C1062 C1061 1.376 . S
C1062 C1063 1.388 . S
C1063 H1050 0.930 . S
C1063 C1062 1.388 . S
C1063 C1064 1.390 . S
C1064 C1063 1.390 . S
C1064 C1065 1.394 . S
C1064 C1070 1.465 . S
C1065 C1060 1.399 . S
C1065 C1064 1.394 . S
C1065 C1066 1.516 . S
C1066 C1065 1.516 . S
C1066 C1067 1.502 . S
C1066 C1068 1.561 . S
C1066 C1069 1.526 . S
C1067 H1051 0.959 . S
C1067 H1052 0.959 . S
C1067 H1053 0.961 . S
C1067 C1066 1.502 . S
C1068 H1054 0.960 . S
C1068 H1055 0.961 . S
C1068 H1056 0.959 . S
C1068 C1066 1.561 . S
C1069 C1066 1.526 . S
C1069 C1070 1.396 . S
C1069 C1074 1.390 . S
C1070 C1064 1.465 . S
C1070 C1069 1.396 . S
C1070 C1071 1.399 . S
C1071 H1057 0.929 . S
C1071 C1070 1.399 . S
C1071 C1072 1.385 . S
C1072 H1058 0.931 . S
C1072 C1071 1.385 . S
C1072 C1073 1.389 . S
C1073 C1072 1.389 . S
C1073 C1074 1.387 . S
C1074 H1059 0.930 . S
C1074 C1069 1.390 . S
C1074 C1073 1.387 . S
H1075 C1087 0.930 . S
H1076 C1089 0.930 . S
H1077 C1090 0.930 . S
H1078 C1094 0.959 . S
H1079 C1094 0.959 . S
H1080 C1094 0.961 . S
H1081 C1095 0.960 . S
H1082 C1095 0.961 . S
H1083 C1095 0.959 . S
H1084 C1098 0.929 . S
H1085 C1099 0.931 . S
H1086 C1101 0.930 . S
C1087 H1075 0.930 . S
C1087 C1088 1.399 . S
C1087 C1092 1.399 . S
C1088 C1087 1.399 . S
C1088 C1089 1.376 . S
C1089 H1076 0.930 . S
C1089 C1088 1.376 . S
C1089 C1090 1.388 . S
C1090 H1077 0.930 . S
C1090 C1089 1.388 . S
C1090 C1091 1.390 . S
C1091 C1090 1.390 . S
C1091 C1092 1.394 . S
C1091 C1097 1.465 . S
C1092 C1087 1.399 . S
C1092 C1091 1.394 . S
C1092 C1093 1.516 . S
C1093 C1092 1.516 . S
C1093 C1094 1.502 . S
C1093 C1095 1.561 . S
C1093 C1096 1.526 . S
C1094 H1078 0.959 . S
C1094 H1079 0.959 . S
C1094 H1080 0.961 . S
C1094 C1093 1.502 . S
C1095 H1081 0.960 . S
C1095 H1082 0.961 . S
C1095 H1083 0.959 . S
C1095 C1093 1.561 . S
C1096 C1093 1.526 . S
C1096 C1097 1.396 . S
C1096 C1101 1.390 . S
C1097 C1091 1.465 . S
C1097 C1096 1.396 . S
C1097 C1098 1.399 . S
C1098 H1084 0.929 . S
C1098 C1097 1.399 . S
C1098 C1099 1.385 . S
C1099 H1085 0.931 . S
C1099 C1098 1.385 . S
C1099 C1100 1.389 . S
C1100 C1099 1.389 . S
C1100 C1101 1.387 . S
C1101 H1086 0.930 . S
C1101 C1096 1.390 . S
C1101 C1100 1.387 . S
H1102 C1114 0.930 . S
H1103 C1116 0.930 . S
H1104 C1117 0.930 . S
H1105 C1121 0.959 . S
H1106 C1121 0.959 . S
H1107 C1121 0.961 . S
H1108 C1122 0.960 . S
H1109 C1122 0.961 . S
H1110 C1122 0.959 . S
H1111 C1125 0.929 . S
H1112 C1126 0.931 . S
H1113 C1128 0.930 . S
C1114 H1102 0.930 . S
C1114 C1115 1.399 . S
C1114 C1119 1.399 . S
C1115 C1114 1.399 . S
C1115 C1116 1.376 . S
C1116 H1103 0.930 . S
C1116 C1115 1.376 . S
C1116 C1117 1.388 . S
C1117 H1104 0.930 . S
C1117 C1116 1.388 . S
C1117 C1118 1.390 . S
C1118 C1117 1.390 . S
C1118 C1119 1.394 . S
C1118 C1124 1.465 . S
C1119 C1114 1.399 . S
C1119 C1118 1.394 . S
C1119 C1120 1.516 . S
C1120 C1119 1.516 . S
C1120 C1121 1.502 . S
C1120 C1122 1.561 . S
C1120 C1123 1.526 . S
C1121 H1105 0.959 . S
C1121 H1106 0.959 . S
C1121 H1107 0.961 . S
C1121 C1120 1.502 . S
C1122 H1108 0.960 . S
C1122 H1109 0.961 . S
C1122 H1110 0.959 . S
C1122 C1120 1.561 . S
C1123 C1120 1.526 . S
C1123 C1124 1.396 . S
C1123 C1128 1.390 . S
C1124 C1118 1.465 . S
C1124 C1123 1.396 . S
C1124 C1125 1.399 . S
C1125 H1111 0.929 . S
C1125 C1124 1.399 . S
C1125 C1126 1.385 . S
C1126 H1112 0.931 . S
C1126 C1125 1.385 . S
C1126 C1127 1.389 . S
C1127 C1126 1.389 . S
C1127 C1128 1.387 . S
C1128 H1113 0.930 . S
C1128 C1123 1.390 . S
C1128 C1127 1.387 . S
H1129 C1141 0.930 . S
H1130 C1143 0.930 . S
H1131 C1144 0.930 . S
H1132 C1148 0.959 . S
H1133 C1148 0.959 . S
H1134 C1148 0.961 . S
H1135 C1149 0.960 . S
H1136 C1149 0.961 . S
H1137 C1149 0.959 . S
H1138 C1152 0.929 . S
H1139 C1153 0.931 . S
H1140 C1155 0.930 . S
C1141 H1129 0.930 . S
C1141 C1142 1.399 . S
C1141 C1146 1.399 . S
C1142 C1141 1.399 . S
C1142 C1143 1.376 . S
C1143 H1130 0.930 . S
C1143 C1142 1.376 . S
C1143 C1144 1.388 . S
C1144 H1131 0.930 . S
C1144 C1143 1.388 . S
C1144 C1145 1.390 . S
C1145 C1144 1.390 . S
C1145 C1146 1.394 . S
C1145 C1151 1.465 . S
C1146 C1141 1.399 . S
C1146 C1145 1.394 . S
C1146 C1147 1.516 . S
C1147 C1146 1.516 . S
C1147 C1148 1.502 . S
C1147 C1149 1.561 . S
C1147 C1150 1.526 . S
C1148 H1132 0.959 . S
C1148 H1133 0.959 . S
C1148 H1134 0.961 . S
C1148 C1147 1.502 . S
C1149 H1135 0.960 . S
C1149 H1136 0.961 . S
C1149 H1137 0.959 . S
C1149 C1147 1.561 . S
C1150 C1147 1.526 . S
C1150 C1151 1.396 . S
C1150 C1155 1.390 . S
C1151 C1145 1.465 . S
C1151 C1150 1.396 . S
C1151 C1152 1.399 . S
C1152 H1138 0.929 . S
C1152 C1151 1.399 . S
C1152 C1153 1.385 . S
C1153 H1139 0.931 . S
C1153 C1152 1.385 . S
C1153 C1154 1.389 . S
C1154 C1153 1.389 . S
C1154 C1155 1.387 . S
C1155 H1140 0.930 . S
C1155 C1150 1.390 . S
C1155 C1154 1.387 . S
C317 C228 1.785 . S
C305 C17 1.685 . S
C332 C30 1.623 . S
C344 C231 1.701 . S
C359 C61 1.666 . S
C371 C262 1.609 . S
C398 C197 1.719 . S
C386 C72 1.752 . S
C425 C232 1.774 . S
C413 C19 1.738 . S
C452 C263 1.767 . S
C440 C33 1.684 . S
C479 C188 1.729 . S
C467 C59 1.662 . S
C506 C219 1.675 . S
C494 C75 1.652 . S
C521 C12 1.355 . S
C533 C249 1.304 . S
C548 C101 1.312 . S
C560 C218 1.298 . S
C575 C51 1.276 . S
C587 C178 1.273 . S
C614 C271 1.225 . S
C602 C124 1.243 . S
C641 C199 1.294 . S
C629 C9 1.401 . S
C656 C103 1.298 . S
C668 C198 1.317 . S
C683 C54 1.292 . S
C695 C291 1.276 . S
C722 C230 1.359 . S
C710 C122 1.329 . S
C737 C145 1.746 . S
C749 C290 1.725 . S
C764 C96 1.654 . S
C776 C169 1.669 . S
C791 C166 1.635 1_655 S
C803 C200 1.696 . S
C818 C114 1.681 . S
C830 C259 1.748 . S
C857 C170 1.794 . S
C845 C143 1.776 . S
C872 C93 1.770 . S
C884 C201 1.705 . S
C899 C164 1.605 . S
C911 C250 1.677 . S
C938 C281 1.708 . S
C926 C117 1.701 . S
C953 C135 1.356 . S
C965 C187 1.309 . S
C980 C40 1.337 . S
C992 C280 1.261 . S
C1007 C156 1.306 . S
C1019 C240 1.295 . S
C1046 C209 1.261 . S
C1034 C82 1.270 . S
C1073 C261 1.292 . S
C1061 C138 1.390 . S
C1100 C260 1.355 . S
C1088 C38 1.281 . S
C1127 C229 1.299 . S
C1115 C159 1.232 . S
C1154 C168 1.234 . S
C1142 C80 1.374 . S
