# Generated by pormake.
# Topology pth, (4,4)-cn, num edge types: 1
# Building blocks:
#     Node 0, Type 0, BuildingBlock: TATPOV_clean_sbu_0, # of connection points: 4
#     Node 1, Type 0, BuildingBlock: TATPOV_clean_sbu_0, # of connection points: 4
#     Node 2, Type 0, BuildingBlock: TATPOV_clean_sbu_0, # of connection points: 4
#     Node 3, Type 1, BuildingBlock: NAHDIM_clean_linker_0, # of connection points: 4
#     Node 4, Type 1, BuildingBlock: NAHDIM_clean_linker_0, # of connection points: 4
#     Node 5, Type 1, BuildingBlock: NAHDIM_clean_linker_0, # of connection points: 4
#     Edge 6, Type (0, 1), BuildingBlock: AJUNOK_clean_linker_0, # of connection points: 2
#     Edge 7, Type (0, 1), BuildingBlock: AJUNOK_clean_linker_0, # of connection points: 2
#     Edge 8, Type (0, 1), BuildingBlock: AJUNOK_clean_linker_0, # of connection points: 2
#     Edge 9, Type (0, 1), BuildingBlock: AJUNOK_clean_linker_0, # of connection points: 2
#     Edge 10, Type (0, 1), BuildingBlock: AJUNOK_clean_linker_0, # of connection points: 2
#     Edge 11, Type (0, 1), BuildingBlock: AJUNOK_clean_linker_0, # of connection points: 2
#     Edge 12, Type (0, 1), BuildingBlock: AJUNOK_clean_linker_0, # of connection points: 2
#     Edge 13, Type (0, 1), BuildingBlock: AJUNOK_clean_linker_0, # of connection points: 2
#     Edge 14, Type (0, 1), BuildingBlock: AJUNOK_clean_linker_0, # of connection points: 2
#     Edge 15, Type (0, 1), BuildingBlock: AJUNOK_clean_linker_0, # of connection points: 2
#     Edge 16, Type (0, 1), BuildingBlock: AJUNOK_clean_linker_0, # of connection points: 2
#     Edge 17, Type (0, 1), BuildingBlock: AJUNOK_clean_linker_0, # of connection points: 2
# Relax obj value: 0.054
# Max RMSD: 0.174
# Mean RMSD: 0.111
data_MOF--net-pth--node1-TATPOV_clean_sbu_0--node2-NAHDIM_clean_linker_0--edge1-AJUNOK_clean_linker_0
_symmetry_space_group_name_H-M    P1
_symmetry_Int_Tables_number       1
_symmetry_cell_setting            triclinic
loop_
_symmetry_equiv_pos_as_xyz
'x, y, z'
_cell_length_a     25.997344
_cell_length_b     25.616239
_cell_length_c     64.073826
_cell_angle_alpha  92.206938
_cell_angle_beta   92.677583
_cell_angle_gamma 121.17998
loop_
_atom_site_label
_atom_site_type_symbol
_atom_site_fract_x
_atom_site_fract_y
_atom_site_fract_z
_atom_type_partial_charge
Zn0 Zn 0.1721 0.03353 0.05094 0.0
Zn1 Zn 0.11075 0.08126 0.06821 0.0
O2 O 0.13107 0.04196 0.09158 0.0
O3 O 0.17989 0.00073 0.07861 0.0
O4 O 0.08636 0.1338 0.08386 0.0
O5 O 0.23417 0.11375 0.03976 0.0
O6 O 0.17509 0.14454 0.05105 0.0
C7 C 0.15599 0.01076 0.09382 0.0
C8 C 0.04384 0.97977 0.03529 0.0
O9 O 0.04018 0.01471 0.04908 0.0
O10 O 0.09306 0.98174 0.03314 0.0
C11 C 0.06187 0.12109 0.10112 0.0
O12 O 0.04301 0.06684 0.10798 0.0
C13 C 0.22001 0.15413 0.0411 0.0
Zn14 Zn 0.13272 0.10824 0.37237 0.0
Zn15 Zn 0.04424 0.09493 0.39724 0.0
O16 O 0.10837 0.10112 0.41818 0.0
O17 O 0.17782 0.10465 0.39885 0.0
O18 O 0.98209 0.09155 0.41576 0.0
O19 O 0.14417 0.18944 0.36394 0.0
O20 O 0.06903 0.17293 0.38259 0.0
C21 C 0.15781 0.1029 0.41665 0.0
C22 C 0.0186 0.99396 0.36369 0.0
O23 O 0.0031 0.0136 0.37931 0.0
O24 O 0.06989 0.02709 0.35676 0.0
C25 C 0.96908 0.06213 0.43215 0.0
O26 O 0.99351 0.02941 0.43618 0.0
C27 C 0.10924 0.20605 0.37051 0.0
Zn28 Zn 0.08349 0.98306 0.77243 0.0
Zn29 Zn 0.01465 0.99977 0.74309 0.0
O30 O 0.0794 0.00103 0.72606 0.0
O31 O 0.13782 0.99037 0.74924 0.0
O32 O 0.95892 0.00365 0.72123 0.0
O33 O 0.01213 0.89959 0.77731 0.0
O34 O 0.95777 0.91698 0.75459 0.0
C35 C 0.12535 0.99692 0.73051 0.0
C36 C 0.07443 0.0903 0.78125 0.0
O37 O 0.04475 0.07509 0.76346 0.0
O38 O 0.09381 0.05811 0.78876 0.0
C39 C 0.97 0.04942 0.71105 0.0
O40 O 0.02162 0.10127 0.71478 0.0
C41 C 0.96186 0.88251 0.76751 0.0
C42 C 0.81481 0.70462 0.33921 0.0
C43 C 0.8817 0.73353 0.33553 0.0
C44 C 0.91783 0.69552 0.30797 0.0
C45 C 0.97946 0.72294 0.31392 0.0
C46 C 0.01317 0.69963 0.30545 0.0
C47 C 0.9839 0.64664 0.29133 0.0
C48 C 0.92099 0.61776 0.28603 0.0
C49 C 0.88929 0.64381 0.29394 0.0
C50 C 0.08013 0.73239 0.31127 0.0
C51 C 0.88684 0.55949 0.27192 0.0
C52 C 0.19314 0.48882 0.38026 0.0
C53 C 0.14861 0.4501 0.36163 0.0
C54 C 0.14511 0.49408 0.32883 0.0
C55 C 0.08255 0.46023 0.32374 0.0
C56 C 0.05573 0.48043 0.30918 0.0
C57 C 0.09228 0.53568 0.29969 0.0
C58 C 0.15557 0.56889 0.30443 0.0
C59 C 0.18117 0.54694 0.3187 0.0
C60 C 0.98844 0.4429 0.30397 0.0
C61 C 0.19615 0.62825 0.29478 0.0
C62 C 0.09261 0.40681 0.16514 0.0
C63 C 0.03755 0.39236 0.17288 0.0
C64 C 0.03094 0.43766 0.18317 0.0
C65 C 0.08078 0.49857 0.186 0.0
C66 C 0.13602 0.51346 0.1778 0.0
C67 C 0.14092 0.46736 0.16719 0.0
C68 C 0.97045 0.42043 0.19085 0.0
C69 C 0.18991 0.57784 0.1804 0.0
C70 C 0.9722 0.8553 0.15611 0.0
C71 C 0.02677 0.84739 0.15668 0.0
C72 C 0.01914 0.74874 0.16017 0.0
C73 C 0.97559 0.68637 0.15881 0.0
C74 C 0.98526 0.64515 0.16954 0.0
C75 C 0.04072 0.66701 0.18142 0.0
C76 C 0.0865 0.72961 0.18176 0.0
C77 C 0.07506 0.77001 0.17122 0.0
C78 C 0.93556 0.57873 0.16874 0.0
C79 C 0.147 0.75408 0.19364 0.0
C80 C 0.01849 0.62163 0.28167 0.0
C81 C 0.03845 0.59086 0.2941 0.0
C82 C 0.06476 0.5602 0.28531 0.0
C83 C 0.06766 0.55652 0.26336 0.0
C84 C 0.08715 0.52019 0.25369 0.0
C85 C 0.08899 0.51641 0.23201 0.0
C86 C 0.07333 0.55039 0.21929 0.0
C87 C 0.07419 0.5464 0.19723 0.0
C88 C 0.06387 0.58516 0.1853 0.0
C89 C 0.04939 0.62559 0.19471 0.0
C90 C 0.04257 0.62582 0.21648 0.0
C91 C 0.02255 0.66169 0.22615 0.0
C92 C 0.01486 0.66063 0.2475 0.0
C93 C 0.02793 0.62455 0.26007 0.0
C94 C 0.05056 0.59011 0.25078 0.0
C95 C 0.05577 0.58899 0.22885 0.0
C96 C 0.1348 0.31672 0.17874 0.0
C97 C 0.08464 0.30777 0.16279 0.0
O98 O 0.88542 0.71968 0.31477 0.0
O99 O 0.00568 0.78674 0.15045 0.0
O100 O 0.09984 0.36358 0.15517 0.0
O101 O 0.17227 0.47709 0.34334 0.0
H102 H 0.90017 0.71225 0.34597 0.0
H103 H 0.79024 0.6549 0.33438 0.0
H104 H 0.7946 0.72615 0.32986 0.0
H105 H 0.80856 0.70973 0.35603 0.0
H106 H 0.00143 0.76361 0.32462 0.0
H107 H 0.84159 0.62318 0.28949 0.0
H108 H 0.08997 0.70417 0.32152 0.0
H109 H 0.09739 0.77772 0.31975 0.0
H110 H 0.10499 0.73896 0.29702 0.0
H111 H 0.83757 0.53528 0.27368 0.0
H112 H 0.90299 0.52792 0.27529 0.0
H113 H 0.89405 0.57065 0.25535 0.0
H114 H 0.10633 0.44983 0.36412 0.0
H115 H 0.17493 0.46831 0.39516 0.0
H116 H 0.20055 0.53566 0.38088 0.0
H117 H 0.23729 0.49244 0.37884 0.0
H118 H 0.05475 0.41791 0.33101 0.0
H119 H 0.22949 0.57215 0.32255 0.0
H120 H 0.97815 0.43574 0.28672 0.0
H121 H 0.9676 0.46806 0.31025 0.0
H122 H 0.9674 0.39763 0.31071 0.0
H123 H 0.24335 0.6517 0.30183 0.0
H124 H 0.17894 0.65966 0.29672 0.0
H125 H 0.19637 0.61903 0.27773 0.0
H126 H 0.04233 0.28902 0.1709 0.0
H127 H 0.9993 0.34599 0.17051 0.0
H128 H 0.18298 0.47813 0.16085 0.0
H129 H 0.97383 0.42368 0.20823 0.0
H130 H 0.93457 0.37312 0.18518 0.0
H131 H 0.95682 0.45267 0.1856 0.0
H132 H 0.23113 0.58079 0.17485 0.0
H133 H 0.19889 0.59515 0.19714 0.0
H134 H 0.18016 0.6083 0.17139 0.0
H135 H 0.04701 0.85869 0.17314 0.0
H136 H 0.98507 0.90199 0.16218 0.0
H137 H 0.93794 0.8222 0.1661 0.0
H138 H 0.9513 0.84665 0.13984 0.0
H139 H 0.93299 0.67042 0.14988 0.0
H140 H 0.10978 0.81799 0.1716 0.0
H141 H 0.92444 0.56449 0.18488 0.0
H142 H 0.95112 0.54987 0.1614 0.0
H143 H 0.89394 0.56973 0.15967 0.0
H144 H 0.18054 0.80125 0.18976 0.0
H145 H 0.16483 0.72382 0.19016 0.0
H146 H 0.1417 0.75479 0.21072 0.0
H147 H 0.0334 0.59068 0.31081 0.0
H148 H 0.10001 0.49336 0.26276 0.0
H149 H 0.10354 0.48712 0.22535 0.0
H150 H 0.06606 0.58306 0.16844 0.0
H151 H 0.01159 0.69025 0.21728 0.0
H152 H 0.99891 0.6888 0.25407 0.0
H153 H 0.12333 0.27238 0.185 0.0
H154 H 0.14031 0.34867 0.19208 0.0
H155 H 0.17836 0.33608 0.1714 0.0
C156 C 0.2083 0.946 0.64068 0.0
C157 C 0.25235 0.97655 0.6603 0.0
C158 C 0.35072 0.04497 0.64659 0.0
C159 C 0.39486 0.10609 0.6446 0.0
C160 C 0.44755 0.12182 0.63469 0.0
C161 C 0.45609 0.07502 0.62652 0.0
C162 C 0.41196 0.01303 0.62861 0.0
C163 C 0.35975 0.99859 0.63859 0.0
C164 C 0.49376 0.18833 0.63268 0.0
C165 C 0.41975 0.96195 0.62011 0.0
C166 C 0.83568 0.04601 0.68564 0.0
C167 C 0.78467 0.03697 0.6712 0.0
C168 C 0.74371 0.09345 0.65475 0.0
C169 C 0.69937 0.04287 0.64177 0.0
C170 C 0.65669 0.04717 0.62897 0.0
C171 C 0.65865 0.10341 0.6289 0.0
C172 C 0.70402 0.15484 0.64152 0.0
C173 C 0.74604 0.14915 0.6543 0.0
C174 C 0.60889 0.99116 0.61574 0.0
C175 C 0.70765 0.21554 0.64161 0.0
C176 C 0.75529 0.12481 0.4959 0.0
C177 C 0.71254 0.06908 0.50342 0.0
C178 C 0.6634 0.06365 0.5135 0.0
C179 C 0.65733 0.11528 0.51625 0.0
C180 C 0.69923 0.17093 0.50799 0.0
C181 C 0.74742 0.17472 0.49767 0.0
C182 C 0.61828 0.00285 0.52135 0.0
C183 C 0.69367 0.22657 0.5104 0.0
C184 C 0.18032 0.9802 0.49751 0.0
C185 C 0.23951 0.03291 0.49063 0.0
C186 C 0.33339 0.03228 0.49447 0.0
C187 C 0.3521 0.9907 0.4972 0.0
C188 C 0.40889 0.00947 0.50704 0.0
C189 C 0.4484 0.07188 0.51379 0.0
C190 C 0.43129 0.11499 0.50975 0.0
C191 C 0.37367 0.09467 0.50018 0.0
C192 C 0.42582 0.96226 0.51082 0.0
C193 C 0.47318 0.1821 0.51614 0.0
C194 C 0.51008 0.0905 0.61512 0.0
C195 C 0.56068 0.09726 0.62643 0.0
C196 C 0.61116 0.10689 0.61636 0.0
C197 C 0.61224 0.11201 0.59446 0.0
C198 C 0.66287 0.12333 0.58391 0.0
C199 C 0.66208 0.12461 0.5622 0.0
C200 C 0.61034 0.11387 0.55019 0.0
C201 C 0.60757 0.11107 0.52802 0.0
C202 C 0.55523 0.09985 0.51659 0.0
C203 C 0.50496 0.0906 0.5267 0.0
C204 C 0.50693 0.09339 0.54884 0.0
C205 C 0.4569 0.08369 0.55948 0.0
C206 C 0.45833 0.08416 0.5812 0.0
C207 C 0.5095 0.09338 0.59313 0.0
C208 C 0.56077 0.10414 0.58277 0.0
C209 C 0.55963 0.10457 0.56059 0.0
C210 C 0.89379 0.16987 0.50906 0.0
C211 C 0.84347 0.11532 0.49534 0.0
O212 O 0.30037 0.03316 0.65611 0.0
O213 O 0.27638 0.01036 0.48615 0.0
O214 O 0.80404 0.13135 0.48669 0.0
O215 O 0.78428 0.08999 0.66795 0.0
H216 H 0.26856 0.9456 0.66458 0.0
H217 H 0.22885 0.93178 0.62865 0.0
H218 H 0.19691 0.97798 0.63359 0.0
H219 H 0.16625 0.90445 0.64466 0.0
H220 H 0.38769 0.14162 0.65078 0.0
H221 H 0.32634 0.95095 0.63982 0.0
H222 H 0.53826 0.19928 0.63987 0.0
H223 H 0.48115 0.2194 0.64029 0.0
H224 H 0.49894 0.19718 0.61585 0.0
H225 H 0.38122 0.916 0.62294 0.0
H226 H 0.46169 0.96712 0.62757 0.0
H227 H 0.42443 0.96459 0.60299 0.0
H228 H 0.73957 0.99816 0.67466 0.0
H229 H 0.81403 0.02013 0.69964 0.0
H230 H 0.85559 0.09257 0.69412 0.0
H231 H 0.88466 0.02291 0.6663 0.0
H232 H 0.69733 0.9996 0.64163 0.0
H233 H 0.78057 0.18808 0.66421 0.0
H234 H 0.61451 0.99953 0.5989 0.0
H235 H 0.56338 0.98171 0.61898 0.0
H236 H 0.61108 0.94985 0.61865 0.0
H237 H 0.74837 0.25239 0.65098 0.0
H238 H 0.66701 0.21115 0.64826 0.0
H239 H 0.7082 0.22902 0.62532 0.0
H240 H 0.81957 0.07682 0.5055 0.0
H241 H 0.71724 0.02966 0.50123 0.0
H242 H 0.78022 0.21723 0.49146 0.0
H243 H 0.62239 0.00642 0.53874 0.0
H244 H 0.62526 0.96554 0.51575 0.0
H245 H 0.57166 0.99029 0.51619 0.0
H246 H 0.73159 0.26725 0.50398 0.0
H247 H 0.6923 0.23759 0.52723 0.0
H248 H 0.65071 0.21672 0.50216 0.0
H249 H 0.26016 0.0685 0.50396 0.0
H250 H 0.14984 0.99637 0.50199 0.0
H251 H 0.18976 0.96074 0.51134 0.0
H252 H 0.15694 0.94336 0.48467 0.0
H253 H 0.32097 0.94286 0.4923 0.0
H254 H 0.36024 0.12745 0.49721 0.0
H255 H 0.43696 0.96297 0.52781 0.0
H256 H 0.46661 0.97352 0.50261 0.0
H257 H 0.38909 0.91527 0.50522 0.0
H258 H 0.45645 0.21061 0.50958 0.0
H259 H 0.51877 0.19794 0.51086 0.0
H260 H 0.47776 0.18926 0.53348 0.0
H261 H 0.55973 0.09238 0.64318 0.0
H262 H 0.70351 0.13087 0.59235 0.0
H263 H 0.70222 0.13314 0.55491 0.0
H264 H 0.55285 0.09627 0.4996 0.0
H265 H 0.41577 0.07519 0.55117 0.0
H266 H 0.41836 0.07617 0.58848 0.0
H267 H 0.91887 0.20998 0.49965 0.0
H268 H 0.92579 0.15794 0.51623 0.0
H269 H 0.8742 0.18272 0.52188 0.0
C270 C 0.77122 0.59357 0.75823 0.0
C271 C 0.76096 0.63251 0.77421 0.0
C272 C 0.71987 0.6024 0.80817 0.0
C273 C 0.69319 0.63792 0.80969 0.0
C274 C 0.64871 0.62461 0.8237 0.0
C275 C 0.63029 0.57448 0.83626 0.0
C276 C 0.65888 0.54014 0.83528 0.0
C277 C 0.70416 0.55541 0.82148 0.0
C278 C 0.62043 0.66322 0.82475 0.0
C279 C 0.64017 0.48591 0.84822 0.0
C280 C 0.16539 0.2394 0.81212 0.0
C281 C 0.18825 0.29545 0.82637 0.0
C282 C 0.28685 0.38348 0.82239 0.0
C283 C 0.3198 0.35634 0.82845 0.0
C284 C 0.38059 0.39242 0.83595 0.0
C285 C 0.40869 0.45687 0.83762 0.0
C286 C 0.37688 0.48435 0.83011 0.0
C287 C 0.31629 0.44709 0.82236 0.0
C288 C 0.41391 0.36168 0.84309 0.0
C289 C 0.40592 0.55296 0.83138 0.0
C290 C 0.33538 0.41255 0.97144 0.0
C291 C 0.37122 0.3896 0.96492 0.0
C292 C 0.42297 0.42583 0.95444 0.0
C293 C 0.43947 0.4864 0.95059 0.0
C294 C 0.40527 0.51069 0.9581 0.0
C295 C 0.35367 0.47337 0.96857 0.0
C296 C 0.45932 0.39897 0.94708 0.0
C297 C 0.42228 0.57535 0.95447 0.0
C298 C 0.90882 0.74064 0.97777 0.0
C299 C 0.87224 0.77143 0.98064 0.0
C300 C 0.76591 0.69728 0.9757 0.0
C301 C 0.73789 0.63376 0.9736 0.0
C302 C 0.68477 0.59833 0.96058 0.0
C303 C 0.65837 0.62745 0.95006 0.0
C304 C 0.68612 0.69188 0.9526 0.0
C305 C 0.74022 0.72623 0.96525 0.0
C306 C 0.65663 0.52981 0.9583 0.0
C307 C 0.65812 0.72428 0.94229 0.0
C308 C 0.5777 0.55447 0.84896 0.0
C309 C 0.5202 0.51999 0.83848 0.0
C310 C 0.46842 0.49482 0.84946 0.0
C311 C 0.47369 0.5035 0.87155 0.0
C312 C 0.42244 0.47687 0.88313 0.0
C313 C 0.42807 0.48331 0.90488 0.0
C314 C 0.48506 0.5178 0.9159 0.0
C315 C 0.49126 0.52311 0.93802 0.0
C316 C 0.54807 0.55999 0.94855 0.0
C317 C 0.59976 0.59015 0.93757 0.0
C318 C 0.59496 0.58293 0.91542 0.0
C319 C 0.64623 0.60988 0.90387 0.0
C320 C 0.64077 0.6013 0.88207 0.0
C321 C 0.58385 0.5654 0.87103 0.0
C322 C 0.53158 0.539 0.88235 0.0
C323 C 0.53719 0.54701 0.90456 0.0
C324 C 0.1801 0.29715 0.97315 0.0
C325 C 0.2458 0.3142 0.97664 0.0
O326 O 0.76017 0.6115 0.79388 0.0
O327 O 0.81759 0.73017 0.9881 0.0
O328 O 0.28258 0.37712 0.98017 0.0
O329 O 0.22636 0.34971 0.81752 0.0
H330 H 0.7161 0.62591 0.76944 0.0
H331 H 0.7343 0.54493 0.75814 0.0
H332 H 0.81481 0.5966 0.7622 0.0
H333 H 0.77143 0.60908 0.74225 0.0
H334 H 0.70679 0.67579 0.79988 0.0
H335 H 0.72572 0.5289 0.82036 0.0
H336 H 0.57356 0.63636 0.81743 0.0
H337 H 0.64575 0.70569 0.81646 0.0
H338 H 0.61823 0.67582 0.84133 0.0
H339 H 0.66304 0.46074 0.84419 0.0
H340 H 0.59063 0.45374 0.84589 0.0
H341 H 0.65139 0.5017 0.86508 0.0
H342 H 0.20456 0.29416 0.84268 0.0
H343 H 0.18523 0.21375 0.81939 0.0
H344 H 0.19463 0.25324 0.79852 0.0
H345 H 0.07247 0.20428 0.80857 0.0
H346 H 0.29768 0.30696 0.82782 0.0
H347 H 0.29072 0.46756 0.81733 0.0
H348 H 0.42164 0.3677 0.86043 0.0
H349 H 0.45872 0.38326 0.83657 0.0
H350 H 0.38846 0.31192 0.8383 0.0
H351 H 0.37631 0.56732 0.82383 0.0
H352 H 0.44902 0.57405 0.82372 0.0
H353 H 0.41668 0.57087 0.84806 0.0
H354 H 0.2558 0.2983 0.96178 0.0
H355 H 0.35871 0.34329 0.96786 0.0
H356 H 0.32619 0.49091 0.97396 0.0
H357 H 0.45766 0.3965 0.9297 0.0
H358 H 0.44238 0.35232 0.95232 0.0
H359 H 0.50727 0.42897 0.95305 0.0
H360 H 0.39153 0.58776 0.96159 0.0
H361 H 0.42115 0.58085 0.93738 0.0
H362 H 0.46909 0.6078 0.96118 0.0
H363 H 0.86483 0.78534 0.96503 0.0
H364 H 0.95268 0.77268 0.97149 0.0
H365 H 0.88354 0.69985 0.96647 0.0
H366 H 0.91738 0.72572 0.99292 0.0
H367 H 0.75835 0.61216 0.98193 0.0
H368 H 0.76212 0.77558 0.96733 0.0
H369 H 0.64197 0.51233 0.94164 0.0
H370 H 0.61613 0.50792 0.96736 0.0
H371 H 0.68818 0.51574 0.96423 0.0
H372 H 0.68241 0.77378 0.94743 0.0
H373 H 0.61028 0.70299 0.94595 0.0
H374 H 0.6587 0.71952 0.92504 0.0
H375 H 0.51572 0.51146 0.82158 0.0
H376 H 0.37731 0.44994 0.87554 0.0
H377 H 0.38709 0.46104 0.91294 0.0
H378 H 0.55227 0.56416 0.96555 0.0
H379 H 0.69117 0.63743 0.91157 0.0
H380 H 0.68171 0.6229 0.87397 0.0
H381 H 0.16602 0.31348 0.98679 0.0
H382 H 0.14985 0.24671 0.97047 0.0
H383 H 0.17465 0.31844 0.9591 0.0
C384 C 0.02756 0.15421 0.13206 0.0
C385 C 0.06358 0.16991 0.11496 0.0
C386 C 0.03318 0.19915 0.14678 0.0
C387 C 0.07515 0.26169 0.14509 0.0
H388 H 0.9956 0.10666 0.13437 0.0
H389 H 0.00552 0.18467 0.15997 0.0
S390 S 0.18141 0.32718 0.10347 0.0
N391 N 0.14283 0.25282 0.09714 0.0
N392 N 0.1543 0.33688 0.12509 0.0
C393 C 0.11122 0.27814 0.12797 0.0
C394 C 0.10499 0.23243 0.11281 0.0
C395 C 0.91392 0.11265 0.44431 0.0
C396 C 0.93237 0.07045 0.44756 0.0
C397 C 0.88405 0.12575 0.45941 0.0
C398 C 0.87038 0.09641 0.47824 0.0
H399 H 0.92405 0.13723 0.43024 0.0
H400 H 0.87267 0.16008 0.45646 0.0
S401 S 0.90788 0.98172 0.49446 0.0
N402 N 0.93393 0.99882 0.47112 0.0
N403 N 0.87761 0.02339 0.49936 0.0
C404 C 0.88772 0.05351 0.48158 0.0
C405 C 0.91844 0.04034 0.46626 0.0
C406 C 0.9157 0.78012 0.78246 0.0
C407 C 0.90872 0.82109 0.77032 0.0
C408 C 0.86766 0.72034 0.78417 0.0
C409 C 0.81041 0.69919 0.77402 0.0
H410 H 0.95906 0.79366 0.79032 0.0
H411 H 0.87576 0.68994 0.79313 0.0
S412 S 0.7671 0.78827 0.741 0.0
N413 N 0.83896 0.83635 0.74848 0.0
N414 N 0.74893 0.72393 0.75174 0.0
C415 C 0.80231 0.73985 0.7622 0.0
C416 C 0.85126 0.80078 0.7604 0.0
C417 C 0.11491 0.90941 0.1081 0.0
C418 C 0.14094 0.97289 0.11189 0.0
C419 C 0.08088 0.86898 0.12292 0.0
C420 C 0.07304 0.89071 0.14236 0.0
H421 H 0.11603 0.89039 0.09284 0.0
H422 H 0.05816 0.82043 0.11855 0.0
S423 S 0.14173 0.05375 0.16118 0.0
N424 N 0.16241 0.05614 0.13708 0.0
N425 N 0.10195 0.98052 0.16561 0.0
C426 C 0.10427 0.95448 0.14708 0.0
C427 C 0.13732 0.99548 0.1317 0.0
C428 C 0.21537 0.0605 0.4335 0.0
C429 C 0.18728 0.09464 0.43543 0.0
C430 C 0.23409 0.04242 0.45122 0.0
C431 C 0.227 0.05936 0.4716 0.0
H432 H 0.21981 0.04454 0.41817 0.0
H433 H 0.25244 0.01336 0.4488 0.0
S434 S 0.16136 0.15381 0.48508 0.0
N435 N 0.1563 0.14773 0.45921 0.0
N436 N 0.19367 0.11583 0.49257 0.0
C437 C 0.20195 0.09638 0.47369 0.0
C438 C 0.18166 0.11359 0.45563 0.0
C439 C 0.0991 0.21184 0.78043 0.0
C440 C 0.0851 0.14462 0.79356 0.0
C441 C 0.1151 0.28077 0.79549 0.0
C442 C 0.12784 0.2797 0.82446 0.0
H443 H 0.09844 0.21105 0.76353 0.0
H444 H 0.1281 0.32264 0.78807 0.0
S445 S 0.08416 0.12686 0.8576 0.0
N446 N 0.07341 0.0956 0.83293 0.0
N447 N 0.10143 0.20013 0.85829 0.0
C448 C 0.09722 0.20725 0.83775 0.0
C449 C 0.0823 0.14227 0.82161 0.0
C450 C 0.85953 0.96643 0.68831 0.0
C451 C 0.92617 0.04202 0.69419 0.0
C452 C 0.80401 0.95317 0.66737 0.0
C453 C 0.8148 0.02404 0.65609 0.0
H454 H 0.85277 0.92888 0.69736 0.0
H455 H 0.76183 0.9098 0.66489 0.0
S456 S 0.97071 0.19782 0.66327 0.0
N457 N 0.98869 0.1628 0.6815 0.0
N458 N 0.90417 0.1498 0.64957 0.0
C459 C 0.88946 0.0968 0.65777 0.0
C460 C 0.94136 0.10519 0.67864 0.0
C461 C 0.98957 0.93509 0.00055 0.0
C462 C 0.99053 0.93277 0.02238 0.0
C463 C 0.94836 0.88386 0.98737 0.0
C464 C 0.90733 0.82817 0.99556 0.0
H465 H 0.02302 0.9758 0.99361 0.0
H466 H 0.95083 0.88682 0.97059 0.0
S467 S 0.89262 0.79953 0.05201 0.0
N468 N 0.94687 0.87201 0.05185 0.0
N469 N 0.87026 0.77456 0.02718 0.0
C470 C 0.90688 0.82605 0.01752 0.0
C471 C 0.94823 0.87875 0.03091 0.0
C472 C 0.95129 0.88395 0.36952 0.0
C473 C 0.98039 0.92939 0.35547 0.0
C474 C 0.92064 0.82182 0.36273 0.0
C475 C 0.91601 0.80226 0.3415 0.0
H476 H 0.95421 0.89639 0.38608 0.0
H477 H 0.90068 0.78858 0.37433 0.0
S478 S 0.98226 0.90461 0.29822 0.0
N479 N 0.00257 0.95172 0.31941 0.0
N480 N 0.94205 0.83502 0.30623 0.0
C481 C 0.94368 0.8477 0.32712 0.0
C482 C 0.9765 0.91116 0.33422 0.0
C483 C 0.15196 0.01083 0.69325 0.0
C484 C 0.16191 0.99637 0.71345 0.0
C485 C 0.18206 0.00604 0.67639 0.0
C486 C 0.22214 0.98478 0.67886 0.0
H487 H 0.12019 0.02557 0.69032 0.0
H488 H 0.17286 0.01817 0.66129 0.0
S489 S 0.27029 0.94878 0.729 0.0
N490 N 0.21973 0.96599 0.73534 0.0
N491 N 0.27547 0.95608 0.70358 0.0
C492 C 0.235 0.9734 0.69918 0.0
C493 C 0.2049 0.97903 0.71644 0.0
C494 C 0.25745 0.1946 0.00679 0.0
C495 C 0.24462 0.20484 0.0271 0.0
C496 C 0.26135 0.23232 0.9909 0.0
C497 C 0.25369 0.28222 0.99485 0.0
H498 H 0.25926 0.15422 0.00264 0.0
H499 H 0.26709 0.22029 0.97515 0.0
S500 S 0.23114 0.33528 0.04639 0.0
N501 N 0.23232 0.27291 0.05101 0.0
N502 N 0.24153 0.34494 0.02127 0.0
C503 C 0.2469 0.29642 0.01558 0.0
C504 C 0.24202 0.25751 0.03168 0.0
C505 C 0.07509 0.28115 0.37177 0.0
C506 C 0.11741 0.26605 0.36561 0.0
C507 C 0.08448 0.33958 0.3696 0.0
C508 C 0.13638 0.38538 0.36107 0.0
H509 H 0.03492 0.2481 0.37888 0.0
H510 H 0.05155 0.34951 0.37521 0.0
S511 S 0.26019 0.36936 0.34167 0.0
N512 N 0.21248 0.30159 0.34983 0.0
N513 N 0.23009 0.41152 0.3459 0.0
C514 C 0.17831 0.3706 0.35425 0.0
C515 C 0.16873 0.31093 0.35641 0.0
loop_
_geom_bond_atom_site_label_1
_geom_bond_atom_site_label_2
_geom_bond_distance
_geom_bond_site_symmetry_2
_ccdc_geom_bond_type
Zn0 O3 2.032 . S
Zn0 O5 2.047 1_565 S
Zn0 O10 2.066 . S
Zn1 O2 1.962 . S
Zn1 O4 1.986 . S
Zn1 O6 1.996 . S
Zn1 O9 1.947 . S
O2 Zn1 1.962 . S
O2 C7 1.254 1_545 S
O3 Zn0 2.032 . S
O3 C7 1.269 . S
O4 Zn1 1.986 . S
O4 C11 1.262 . S
O5 Zn0 2.047 1_545 S
O5 C13 1.260 . S
O6 Zn1 1.996 . S
O6 C13 1.257 . S
C7 O2 1.254 1_565 S
C7 O3 1.269 . S
C8 O9 1.250 1_665 S
C8 O10 1.270 1_655 S
O9 Zn1 1.947 . S
O9 C8 1.250 1_445 S
O10 Zn0 2.066 . S
O10 C8 1.270 1_455 S
C11 O4 1.262 . S
C11 O12 1.232 . S
O12 C11 1.232 . S
C13 O5 1.260 . S
C13 O6 1.257 . S
Zn14 O17 2.031 . S
Zn14 O19 2.049 . S
Zn14 O24 2.067 . S
Zn15 O16 1.962 . S
Zn15 O18 1.986 1_455 S
Zn15 O20 1.996 . S
Zn15 O23 1.943 1_455 S
O16 Zn15 1.962 . S
O16 C21 1.254 . S
O17 Zn14 2.031 . S
O17 C21 1.269 . S
O18 Zn15 1.986 1_655 S
O18 C25 1.262 . S
O19 Zn14 2.049 . S
O19 C27 1.260 . S
O20 Zn15 1.996 . S
O20 C27 1.257 . S
C21 O16 1.254 . S
C21 O17 1.269 . S
C22 O23 1.249 1_455 S
C22 O24 1.270 . S
O23 Zn15 1.943 1_655 S
O23 C22 1.249 1_655 S
O24 Zn14 2.067 . S
O24 C22 1.270 . S
C25 O18 1.262 . S
C25 O26 1.232 . S
O26 C25 1.232 . S
C27 O19 1.260 . S
C27 O20 1.257 . S
Zn28 O31 2.031 1_565 S
Zn28 O33 2.049 . S
Zn28 O38 2.067 1_565 S
Zn29 O30 1.962 1_545 S
Zn29 O32 1.986 1_455 S
Zn29 O34 1.996 1_445 S
Zn29 O37 1.943 . S
O30 Zn29 1.962 1_565 S
O30 C35 1.254 1_565 S
O31 Zn28 2.031 1_545 S
O31 C35 1.269 . S
O32 Zn29 1.986 1_655 S
O32 C39 1.262 . S
O33 Zn28 2.049 . S
O33 C41 1.260 1_455 S
O34 Zn29 1.996 1_665 S
O34 C41 1.257 . S
C35 O30 1.254 1_545 S
C35 O31 1.269 . S
C36 O37 1.249 . S
C36 O38 1.270 . S
O37 Zn29 1.943 . S
O37 C36 1.249 . S
O38 Zn28 2.067 1_545 S
O38 C36 1.270 . S
C39 O32 1.262 . S
C39 O40 1.232 . S
O40 C39 1.232 . S
C41 O33 1.260 1_655 S
C41 O34 1.257 . S
C42 C43 1.560 . S
C42 H103 0.959 . S
C42 H104 0.959 . S
C42 H105 0.960 . S
C43 C42 1.560 . S
C43 O98 1.426 . S
C43 H102 0.980 1_655 S
C44 C45 1.407 1_655 S
C44 C49 1.418 . S
C44 O98 1.334 . S
C45 C44 1.407 1_455 S
C45 C46 1.360 . S
C45 H106 0.929 . S
C46 C45 1.360 . S
C46 C47 1.401 . S
C46 C50 1.527 . S
C47 C46 1.401 . S
C47 C48 1.405 1_455 S
C47 C80 1.587 . S
C48 C47 1.405 1_655 S
C48 C49 1.332 . S
C48 C51 1.496 . S
C49 C44 1.418 . S
C49 C48 1.332 . S
C49 H107 0.929 . S
C50 C46 1.527 . S
C50 H108 0.959 . S
C50 H109 0.961 . S
C50 H110 0.961 . S
C51 C48 1.496 . S
C51 H111 0.960 . S
C51 H112 0.960 . S
C51 H113 0.961 . S
C52 C53 1.517 . S
C52 H115 0.961 . S
C52 H116 0.960 . S
C52 H117 0.959 . S
C53 C52 1.517 . S
C53 O101 1.468 . S
C53 H114 0.980 . S
C54 C55 1.349 . S
C54 C59 1.367 . S
C54 O101 1.408 . S
C55 C54 1.349 . S
C55 C56 1.407 . S
C55 H118 0.930 . S
C56 C55 1.407 . S
C56 C57 1.449 . S
C56 C60 1.535 1_455 S
C57 C56 1.449 . S
C57 C58 1.384 . S
C57 C82 1.553 . S
C58 C57 1.384 . S
C58 C59 1.364 . S
C58 C61 1.450 . S
C59 C54 1.367 . S
C59 C58 1.364 . S
C59 H119 0.931 . S
C60 C56 1.535 1_655 S
C60 H120 0.959 . S
C60 H121 0.961 . S
C60 H122 0.959 . S
C61 C58 1.450 . S
C61 H123 0.960 . S
C61 H124 0.960 . S
C61 H125 0.960 . S
C62 C63 1.309 . S
C62 C67 1.304 . S
C62 O100 1.435 . S
C63 C62 1.309 . S
C63 C64 1.476 . S
C63 H127 0.930 . S
C64 C63 1.476 . S
C64 C65 1.400 . S
C64 C68 1.567 1_455 S
C65 C64 1.400 . S
C65 C66 1.373 . S
C65 C87 1.432 . S
C66 C65 1.373 . S
C66 C67 1.339 . S
C66 C69 1.530 . S
C67 C62 1.304 . S
C67 C66 1.339 . S
C67 H128 0.930 . S
C68 C64 1.567 1_655 S
C68 H129 0.961 . S
C68 H130 0.960 . S
C68 H131 0.958 . S
C69 C66 1.530 . S
C69 H132 0.961 . S
C69 H133 0.960 . S
C69 H134 0.960 . S
C70 C71 1.530 1_655 S
C70 H136 0.961 1_655 S
C70 H137 0.961 . S
C70 H138 0.959 . S
C71 C70 1.530 1_455 S
C71 O99 1.412 1_455 S
C71 H135 0.980 . S
C72 C73 1.288 1_455 S
C72 C77 1.377 . S
C72 O99 1.393 1_455 S
C73 C72 1.288 1_655 S
C73 C74 1.369 . S
C73 H139 0.932 . S
C74 C73 1.369 . S
C74 C75 1.398 1_655 S
C74 C78 1.527 . S
C75 C74 1.398 1_455 S
C75 C76 1.380 . S
C75 C89 1.497 . S
C76 C75 1.380 . S
C76 C77 1.383 . S
C76 C79 1.603 . S
C77 C72 1.377 . S
C77 C76 1.383 . S
C77 H140 0.929 . S
C78 C74 1.527 . S
C78 H141 0.961 . S
C78 H142 0.959 . S
C78 H143 0.959 . S
C79 C76 1.603 . S
C79 H144 0.960 . S
C79 H145 0.962 . S
C79 H146 0.961 . S
C80 C47 1.587 . S
C80 C81 1.360 . S
C80 C93 1.412 . S
C81 C80 1.360 . S
C81 C82 1.365 . S
C81 H147 0.929 . S
C82 C57 1.553 . S
C82 C81 1.365 . S
C82 C83 1.404 . S
C83 C82 1.404 . S
C83 C84 1.395 . S
C83 C94 1.451 . S
C84 C83 1.395 . S
C84 C85 1.322 . S
C84 H148 0.930 . S
C85 C84 1.322 . S
C85 C86 1.459 . S
C85 H149 0.929 . S
C86 C85 1.459 . S
C86 C87 1.445 . S
C86 C95 1.395 . S
C87 C65 1.432 . S
C87 C86 1.445 . S
C87 C88 1.370 . S
C88 C87 1.370 . S
C88 C89 1.438 . S
C88 H150 0.930 . S
C89 C75 1.497 . S
C89 C88 1.438 . S
C89 C90 1.360 . S
C90 C89 1.360 . S
C90 C91 1.401 . S
C90 C95 1.446 . S
C91 C90 1.401 . S
C91 C92 1.347 . S
C91 H151 0.929 . S
C92 C91 1.347 . S
C92 C93 1.455 . S
C92 H152 0.930 . S
C93 C80 1.412 . S
C93 C92 1.455 . S
C93 C94 1.331 . S
C94 C83 1.451 . S
C94 C93 1.331 . S
C94 C95 1.497 . S
C95 C86 1.395 . S
C95 C90 1.446 . S
C95 C94 1.497 . S
C96 C97 1.582 . S
C96 H153 0.962 . S
C96 H154 0.959 . S
C96 H155 0.958 . S
C97 C96 1.582 . S
C97 O100 1.458 . S
C97 H126 0.980 . S
O98 C43 1.426 . S
O98 C44 1.334 . S
O99 C71 1.412 1_655 S
O99 C72 1.393 1_655 S
O100 C62 1.435 . S
O100 C97 1.458 . S
O101 C53 1.468 . S
O101 C54 1.408 . S
H102 C43 0.980 1_455 S
H103 C42 0.959 . S
H104 C42 0.959 . S
H105 C42 0.960 . S
H106 C45 0.929 . S
H107 C49 0.929 . S
H108 C50 0.959 . S
H109 C50 0.961 . S
H110 C50 0.961 . S
H111 C51 0.960 . S
H112 C51 0.960 . S
H113 C51 0.961 . S
H114 C53 0.980 . S
H115 C52 0.961 . S
H116 C52 0.960 . S
H117 C52 0.959 . S
H118 C55 0.930 . S
H119 C59 0.931 . S
H120 C60 0.959 . S
H121 C60 0.961 . S
H122 C60 0.959 . S
H123 C61 0.960 . S
H124 C61 0.960 . S
H125 C61 0.960 . S
H126 C97 0.980 . S
H127 C63 0.930 . S
H128 C67 0.930 . S
H129 C68 0.961 . S
H130 C68 0.960 . S
H131 C68 0.958 . S
H132 C69 0.961 . S
H133 C69 0.960 . S
H134 C69 0.960 . S
H135 C71 0.980 . S
H136 C70 0.961 1_455 S
H137 C70 0.961 . S
H138 C70 0.959 . S
H139 C73 0.932 . S
H140 C77 0.929 . S
H141 C78 0.961 . S
H142 C78 0.959 . S
H143 C78 0.959 . S
H144 C79 0.960 . S
H145 C79 0.962 . S
H146 C79 0.961 . S
H147 C81 0.929 . S
H148 C84 0.930 . S
H149 C85 0.929 . S
H150 C88 0.930 . S
H151 C91 0.929 . S
H152 C92 0.930 . S
H153 C96 0.962 . S
H154 C96 0.959 . S
H155 C96 0.958 . S
C156 C157 1.560 1_565 S
C156 H217 0.959 . S
C156 H218 0.959 . S
C156 H219 0.960 . S
C157 C156 1.560 1_545 S
C157 O212 1.426 1_545 S
C157 H216 0.980 . S
C158 C159 1.407 . S
C158 C163 1.418 1_545 S
C158 O212 1.334 1_545 S
C159 C158 1.407 . S
C159 C160 1.360 . S
C159 H220 0.929 . S
C160 C159 1.360 . S
C160 C161 1.401 . S
C160 C164 1.527 . S
C161 C160 1.401 . S
C161 C162 1.405 1_545 S
C161 C194 1.587 . S
C162 C161 1.405 1_565 S
C162 C163 1.332 . S
C162 C165 1.496 . S
C163 C158 1.418 1_565 S
C163 C162 1.332 . S
C163 H221 0.929 . S
C164 C160 1.527 . S
C164 H222 0.959 . S
C164 H223 0.961 . S
C164 H224 0.961 . S
C165 C162 1.496 . S
C165 H225 0.960 . S
C165 H226 0.960 . S
C165 H227 0.961 . S
C166 C167 1.517 . S
C166 H229 0.961 . S
C166 H230 0.960 . S
C166 H231 0.959 . S
C167 C166 1.517 . S
C167 O215 1.468 . S
C167 H228 0.980 . S
C168 C169 1.349 . S
C168 C173 1.367 . S
C168 O215 1.408 . S
C169 C168 1.349 . S
C169 C170 1.407 . S
C169 H232 0.930 . S
C170 C169 1.407 . S
C170 C171 1.449 . S
C170 C174 1.535 1_545 S
C171 C170 1.449 . S
C171 C172 1.384 . S
C171 C196 1.553 . S
C172 C171 1.384 . S
C172 C173 1.364 . S
C172 C175 1.450 . S
C173 C168 1.367 . S
C173 C172 1.364 . S
C173 H233 0.931 . S
C174 C170 1.535 1_565 S
C174 H234 0.959 . S
C174 H235 0.961 . S
C174 H236 0.959 . S
C175 C172 1.450 . S
C175 H237 0.960 . S
C175 H238 0.960 . S
C175 H239 0.960 . S
C176 C177 1.309 . S
C176 C181 1.304 . S
C176 O214 1.435 . S
C177 C176 1.309 . S
C177 C178 1.476 . S
C177 H241 0.930 . S
C178 C177 1.476 . S
C178 C179 1.400 . S
C178 C182 1.567 1_545 S
C179 C178 1.400 . S
C179 C180 1.373 . S
C179 C201 1.432 . S
C180 C179 1.373 . S
C180 C181 1.339 . S
C180 C183 1.530 . S
C181 C176 1.304 . S
C181 C180 1.339 . S
C181 H242 0.930 . S
C182 C178 1.567 1_565 S
C182 H243 0.961 . S
C182 H244 0.960 . S
C182 H245 0.958 . S
C183 C180 1.530 . S
C183 H246 0.961 . S
C183 H247 0.960 . S
C183 H248 0.960 . S
C184 C185 1.530 . S
C184 H250 0.961 . S
C184 H251 0.961 1_545 S
C184 H252 0.947 1_545 S
C185 C184 1.530 . S
C185 O213 1.412 . S
C185 H249 0.980 . S
C186 C187 1.288 1_545 S
C186 C191 1.377 . S
C186 O213 1.393 . S
C187 C186 1.288 1_565 S
C187 C188 1.369 1_565 S
C187 H253 0.932 . S
C188 C187 1.369 1_545 S
C188 C189 1.398 . S
C188 C192 1.527 1_545 S
C189 C188 1.398 . S
C189 C190 1.380 . S
C189 C203 1.497 . S
C190 C189 1.380 . S
C190 C191 1.383 . S
C190 C193 1.603 . S
C191 C186 1.377 . S
C191 C190 1.383 . S
C191 H254 0.929 . S
C192 C188 1.527 1_565 S
C192 H255 0.961 . S
C192 H256 0.959 . S
C192 H257 0.959 . S
C193 C190 1.603 . S
C193 H258 0.960 . S
C193 H259 0.962 . S
C193 H260 0.961 . S
C194 C161 1.587 . S
C194 C195 1.360 . S
C194 C207 1.412 . S
C195 C194 1.360 . S
C195 C196 1.365 . S
C195 H261 0.929 . S
C196 C171 1.553 . S
C196 C195 1.365 . S
C196 C197 1.404 . S
C197 C196 1.404 . S
C197 C198 1.395 . S
C197 C208 1.451 . S
C198 C197 1.395 . S
C198 C199 1.322 . S
C198 H262 0.930 . S
C199 C198 1.322 . S
C199 C200 1.459 . S
C199 H263 0.929 . S
C200 C199 1.459 . S
C200 C201 1.445 . S
C200 C209 1.395 . S
C201 C179 1.432 . S
C201 C200 1.445 . S
C201 C202 1.370 . S
C202 C201 1.370 . S
C202 C203 1.438 . S
C202 H264 0.930 . S
C203 C189 1.497 . S
C203 C202 1.438 . S
C203 C204 1.360 . S
C204 C203 1.360 . S
C204 C205 1.401 . S
C204 C209 1.446 . S
C205 C204 1.401 . S
C205 C206 1.347 . S
C205 H265 0.929 . S
C206 C205 1.347 . S
C206 C207 1.455 . S
C206 H266 0.930 . S
C207 C194 1.412 . S
C207 C206 1.455 . S
C207 C208 1.331 . S
C208 C197 1.451 . S
C208 C207 1.331 . S
C208 C209 1.497 . S
C209 C200 1.395 . S
C209 C204 1.446 . S
C209 C208 1.497 . S
C210 C211 1.582 . S
C210 H267 0.962 . S
C210 H268 0.959 . S
C210 H269 0.958 . S
C211 C210 1.582 . S
C211 O214 1.458 . S
C211 H240 0.980 . S
O212 C157 1.426 1_565 S
O212 C158 1.334 1_565 S
O213 C185 1.412 . S
O213 C186 1.393 . S
O214 C176 1.435 . S
O214 C211 1.458 . S
O215 C167 1.468 . S
O215 C168 1.408 . S
H216 C157 0.980 . S
H217 C156 0.959 . S
H218 C156 0.959 . S
H219 C156 0.960 . S
H220 C159 0.929 . S
H221 C163 0.929 . S
H222 C164 0.959 . S
H223 C164 0.961 . S
H224 C164 0.961 . S
H225 C165 0.960 . S
H226 C165 0.960 . S
H227 C165 0.961 . S
H228 C167 0.980 . S
H229 C166 0.961 . S
H230 C166 0.960 . S
H231 C166 0.959 . S
H232 C169 0.930 . S
H233 C173 0.931 . S
H234 C174 0.959 . S
H235 C174 0.961 . S
H236 C174 0.959 . S
H237 C175 0.960 . S
H238 C175 0.960 . S
H239 C175 0.960 . S
H240 C211 0.980 . S
H241 C177 0.930 . S
H242 C181 0.930 . S
H243 C182 0.961 . S
H244 C182 0.960 . S
H245 C182 0.958 . S
H246 C183 0.961 . S
H247 C183 0.960 . S
H248 C183 0.960 . S
H249 C185 0.980 . S
H250 C184 0.961 . S
H251 C184 0.961 1_565 S
H252 C184 0.947 1_565 S
H253 C187 0.932 . S
H254 C191 0.929 . S
H255 C192 0.961 . S
H256 C192 0.959 . S
H257 C192 0.959 . S
H258 C193 0.960 . S
H259 C193 0.962 . S
H260 C193 0.961 . S
H261 C195 0.929 . S
H262 C198 0.930 . S
H263 C199 0.929 . S
H264 C202 0.930 . S
H265 C205 0.929 . S
H266 C206 0.930 . S
H267 C210 0.962 . S
H268 C210 0.959 . S
H269 C210 0.958 . S
C270 C271 1.560 . S
C270 H331 0.959 . S
C270 H332 0.959 . S
C270 H333 0.960 . S
C271 C270 1.560 . S
C271 O326 1.426 . S
C271 H330 0.980 . S
C272 C273 1.407 . S
C272 C277 1.418 . S
C272 O326 1.334 . S
C273 C272 1.407 . S
C273 C274 1.360 . S
C273 H334 0.929 . S
C274 C273 1.360 . S
C274 C275 1.401 . S
C274 C278 1.527 . S
C275 C274 1.401 . S
C275 C276 1.405 . S
C275 C308 1.587 . S
C276 C275 1.405 . S
C276 C277 1.332 . S
C276 C279 1.496 . S
C277 C272 1.418 . S
C277 C276 1.332 . S
C277 H335 0.929 . S
C278 C274 1.527 . S
C278 H336 0.959 . S
C278 H337 0.961 . S
C278 H338 0.961 . S
C279 C276 1.496 . S
C279 H339 0.960 . S
C279 H340 0.960 . S
C279 H341 0.961 . S
C280 C281 1.517 . S
C280 H343 0.961 . S
C280 H344 0.960 . S
C280 H345 0.959 . S
C281 C280 1.517 . S
C281 O329 1.468 . S
C281 H342 0.980 . S
C282 C283 1.349 . S
C282 C287 1.367 . S
C282 O329 1.408 . S
C283 C282 1.349 . S
C283 C284 1.407 . S
C283 H346 0.930 . S
C284 C283 1.407 . S
C284 C285 1.449 . S
C284 C288 1.535 . S
C285 C284 1.449 . S
C285 C286 1.384 . S
C285 C310 1.553 . S
C286 C285 1.384 . S
C286 C287 1.364 . S
C286 C289 1.450 . S
C287 C282 1.367 . S
C287 C286 1.364 . S
C287 H347 0.931 . S
C288 C284 1.535 . S
C288 H348 0.959 . S
C288 H349 0.961 . S
C288 H350 0.959 . S
C289 C286 1.450 . S
C289 H351 0.960 . S
C289 H352 0.960 . S
C289 H353 0.960 . S
C290 C291 1.309 . S
C290 C295 1.304 . S
C290 O328 1.435 . S
C291 C290 1.309 . S
C291 C292 1.476 . S
C291 H355 0.930 . S
C292 C291 1.476 . S
C292 C293 1.400 . S
C292 C296 1.567 . S
C293 C292 1.400 . S
C293 C294 1.373 . S
C293 C315 1.432 . S
C294 C293 1.373 . S
C294 C295 1.339 . S
C294 C297 1.530 . S
C295 C290 1.304 . S
C295 C294 1.339 . S
C295 H356 0.930 . S
C296 C292 1.567 . S
C296 H357 0.961 . S
C296 H358 0.960 . S
C296 H359 0.958 . S
C297 C294 1.530 . S
C297 H360 0.961 . S
C297 H361 0.960 . S
C297 H362 0.960 . S
C298 C299 1.530 1_554 S
C298 H364 0.961 . S
C298 H365 0.961 1_554 S
C298 H366 0.959 . S
C299 C298 1.530 1_556 S
C299 O327 1.412 . S
C299 H363 0.980 . S
C300 C301 1.288 . S
C300 C305 1.377 . S
C300 O327 1.393 . S
C301 C300 1.288 . S
C301 C302 1.369 . S
C301 H367 0.932 . S
C302 C301 1.369 . S
C302 C303 1.398 . S
C302 C306 1.527 . S
C303 C302 1.398 . S
C303 C304 1.380 . S
C303 C317 1.497 . S
C304 C303 1.380 . S
C304 C305 1.383 . S
C304 C307 1.603 . S
C305 C300 1.377 . S
C305 C304 1.383 . S
C305 H368 0.929 . S
C306 C302 1.527 . S
C306 H369 0.961 . S
C306 H370 0.959 . S
C306 H371 0.959 . S
C307 C304 1.603 . S
C307 H372 0.960 . S
C307 H373 0.962 . S
C307 H374 0.961 . S
C308 C275 1.587 . S
C308 C309 1.360 . S
C308 C321 1.412 . S
C309 C308 1.360 . S
C309 C310 1.365 . S
C309 H375 0.929 . S
C310 C285 1.553 . S
C310 C309 1.365 . S
C310 C311 1.404 . S
C311 C310 1.404 . S
C311 C312 1.395 . S
C311 C322 1.451 . S
C312 C311 1.395 . S
C312 C313 1.322 . S
C312 H376 0.930 . S
C313 C312 1.322 . S
C313 C314 1.459 . S
C313 H377 0.929 . S
C314 C313 1.459 . S
C314 C315 1.445 . S
C314 C323 1.395 . S
C315 C293 1.432 . S
C315 C314 1.445 . S
C315 C316 1.370 . S
C316 C315 1.370 . S
C316 C317 1.438 . S
C316 H378 0.930 . S
C317 C303 1.497 . S
C317 C316 1.438 . S
C317 C318 1.360 . S
C318 C317 1.360 . S
C318 C319 1.401 . S
C318 C323 1.446 . S
C319 C318 1.401 . S
C319 C320 1.347 . S
C319 H379 0.929 . S
C320 C319 1.347 . S
C320 C321 1.455 . S
C320 H380 0.930 . S
C321 C308 1.412 . S
C321 C320 1.455 . S
C321 C322 1.331 . S
C322 C311 1.451 . S
C322 C321 1.331 . S
C322 C323 1.497 . S
C323 C314 1.395 . S
C323 C318 1.446 . S
C323 C322 1.497 . S
C324 C325 1.599 . S
C324 H381 0.940 1_556 S
C324 H382 0.976 . S
C324 H383 0.947 1_556 S
C325 C324 1.599 . S
C325 O328 1.458 . S
C325 H354 0.980 . S
O326 C271 1.426 . S
O326 C272 1.334 . S
O327 C299 1.412 . S
O327 C300 1.393 . S
O328 C290 1.435 . S
O328 C325 1.458 . S
O329 C281 1.468 . S
O329 C282 1.408 . S
H330 C271 0.980 . S
H331 C270 0.959 . S
H332 C270 0.959 . S
H333 C270 0.960 . S
H334 C273 0.929 . S
H335 C277 0.929 . S
H336 C278 0.959 . S
H337 C278 0.961 . S
H338 C278 0.961 . S
H339 C279 0.960 . S
H340 C279 0.960 . S
H341 C279 0.961 . S
H342 C281 0.980 . S
H343 C280 0.961 . S
H344 C280 0.960 . S
H345 C280 0.959 . S
H346 C283 0.930 . S
H347 C287 0.931 . S
H348 C288 0.959 . S
H349 C288 0.961 . S
H350 C288 0.959 . S
H351 C289 0.960 . S
H352 C289 0.960 . S
H353 C289 0.960 . S
H354 C325 0.980 . S
H355 C291 0.930 . S
H356 C295 0.930 . S
H357 C296 0.961 . S
H358 C296 0.960 . S
H359 C296 0.958 . S
H360 C297 0.961 . S
H361 C297 0.960 . S
H362 C297 0.960 . S
H363 C299 0.980 . S
H364 C298 0.961 . S
H365 C298 0.961 1_556 S
H366 C298 0.959 . S
H367 C301 0.932 . S
H368 C305 0.929 . S
H369 C306 0.961 . S
H370 C306 0.959 . S
H371 C306 0.959 . S
H372 C307 0.960 . S
H373 C307 0.962 . S
H374 C307 0.961 . S
H375 C309 0.929 . S
H376 C312 0.930 . S
H377 C313 0.929 . S
H378 C316 0.930 . S
H379 C319 0.929 . S
H380 C320 0.930 . S
H381 C324 0.940 1_554 S
H382 C324 0.976 . S
H383 C324 0.947 1_554 S
C384 C385 1.369 . S
C384 C386 1.419 . S
C384 H388 0.930 1_455 S
C385 C384 1.369 . S
C385 C394 1.429 . S
C386 C384 1.419 . S
C386 C387 1.363 . S
C386 H389 0.929 . S
C387 C386 1.363 . S
C387 C393 1.428 . S
H388 C384 0.930 1_655 S
H389 C386 0.929 . S
S390 N391 1.613 . S
S390 N392 1.610 . S
N391 S390 1.613 . S
N391 C394 1.350 . S
N392 S390 1.610 . S
N392 C393 1.351 . S
C393 C387 1.428 . S
C393 N392 1.351 . S
C393 C394 1.434 . S
C394 C385 1.429 . S
C394 N391 1.350 . S
C394 C393 1.434 . S
C395 C396 1.369 . S
C395 C397 1.419 . S
C395 H399 0.930 . S
C396 C395 1.369 . S
C396 C405 1.429 . S
C397 C395 1.419 . S
C397 C398 1.363 . S
C397 H400 0.929 . S
C398 C397 1.363 . S
C398 C404 1.428 . S
H399 C395 0.930 . S
H400 C397 0.929 . S
S401 N402 1.613 . S
S401 N403 1.610 . S
N402 S401 1.613 . S
N402 C405 1.350 . S
N403 S401 1.610 . S
N403 C404 1.351 . S
C404 C398 1.428 . S
C404 N403 1.351 . S
C404 C405 1.434 . S
C405 C396 1.429 . S
C405 N402 1.350 . S
C405 C404 1.434 . S
C406 C407 1.369 . S
C406 C408 1.419 . S
C406 H410 0.930 . S
C407 C406 1.369 . S
C407 C416 1.429 . S
C408 C406 1.419 . S
C408 C409 1.363 . S
C408 H411 0.929 . S
C409 C408 1.363 . S
C409 C415 1.428 . S
H410 C406 0.930 . S
H411 C408 0.929 . S
S412 N413 1.613 . S
S412 N414 1.610 . S
N413 S412 1.613 . S
N413 C416 1.350 . S
N414 S412 1.610 . S
N414 C415 1.351 . S
C415 C409 1.428 . S
C415 N414 1.351 . S
C415 C416 1.434 . S
C416 C407 1.429 . S
C416 N413 1.350 . S
C416 C415 1.434 . S
C417 C418 1.369 . S
C417 C419 1.419 . S
C417 H421 0.930 . S
C418 C417 1.369 . S
C418 C427 1.429 . S
C419 C417 1.419 . S
C419 C420 1.363 . S
C419 H422 0.929 . S
C420 C419 1.363 . S
C420 C426 1.428 . S
H421 C417 0.930 . S
H422 C419 0.929 . S
S423 N424 1.613 . S
S423 N425 1.610 . S
N424 S423 1.613 . S
N424 C427 1.350 . S
N425 S423 1.610 . S
N425 C426 1.351 . S
C426 C420 1.428 . S
C426 N425 1.351 . S
C426 C427 1.434 . S
C427 C418 1.429 . S
C427 N424 1.350 . S
C427 C426 1.434 . S
C428 C429 1.369 . S
C428 C430 1.419 . S
C428 H432 0.930 . S
C429 C428 1.369 . S
C429 C438 1.429 . S
C430 C428 1.419 . S
C430 C431 1.363 . S
C430 H433 0.929 . S
C431 C430 1.363 . S
C431 C437 1.428 . S
H432 C428 0.930 . S
H433 C430 0.929 . S
S434 N435 1.613 . S
S434 N436 1.610 . S
N435 S434 1.613 . S
N435 C438 1.350 . S
N436 S434 1.610 . S
N436 C437 1.351 . S
C437 C431 1.428 . S
C437 N436 1.351 . S
C437 C438 1.434 . S
C438 C429 1.429 . S
C438 N435 1.350 . S
C438 C437 1.434 . S
C439 C440 1.369 . S
C439 C441 1.419 . S
C439 H443 0.930 . S
C440 C439 1.369 . S
C440 C449 1.429 . S
C441 C439 1.419 . S
C441 C442 1.363 . S
C441 H444 0.929 . S
C442 C441 1.363 . S
C442 C448 1.428 . S
H443 C439 0.930 . S
H444 C441 0.929 . S
S445 N446 1.613 . S
S445 N447 1.610 . S
N446 S445 1.613 . S
N446 C449 1.350 . S
N447 S445 1.610 . S
N447 C448 1.351 . S
C448 C442 1.428 . S
C448 N447 1.351 . S
C448 C449 1.434 . S
C449 C440 1.429 . S
C449 N446 1.350 . S
C449 C448 1.434 . S
C450 C451 1.369 . S
C450 C452 1.419 . S
C450 H454 0.930 1_545 S
C451 C450 1.369 . S
C451 C460 1.429 . S
C452 C450 1.419 . S
C452 C453 1.363 . S
C452 H455 0.929 1_545 S
C453 C452 1.363 . S
C453 C459 1.428 . S
H454 C450 0.930 1_565 S
H455 C452 0.929 1_565 S
S456 N457 1.613 . S
S456 N458 1.610 . S
N457 S456 1.613 . S
N457 C460 1.350 . S
N458 S456 1.610 . S
N458 C459 1.351 . S
C459 C453 1.428 . S
C459 N458 1.351 . S
C459 C460 1.434 . S
C460 C451 1.429 . S
C460 N457 1.350 . S
C460 C459 1.434 . S
C461 C462 1.369 . S
C461 C463 1.419 . S
C461 H465 0.930 . S
C462 C461 1.369 . S
C462 C471 1.429 . S
C463 C461 1.419 . S
C463 C464 1.363 . S
C463 H466 0.929 1_554 S
C464 C463 1.363 . S
C464 C470 1.428 . S
H465 C461 0.930 . S
H466 C463 0.929 1_556 S
S467 N468 1.613 . S
S467 N469 1.610 . S
N468 S467 1.613 . S
N468 C471 1.350 . S
N469 S467 1.610 . S
N469 C470 1.351 . S
C470 C464 1.428 . S
C470 N469 1.351 . S
C470 C471 1.434 . S
C471 C462 1.429 . S
C471 N468 1.350 . S
C471 C470 1.434 . S
C472 C473 1.369 1_655 S
C472 C474 1.419 . S
C472 H476 0.930 . S
C473 C472 1.369 1_455 S
C473 C482 1.429 . S
C474 C472 1.419 . S
C474 C475 1.363 1_655 S
C474 H477 0.929 . S
C475 C474 1.363 1_455 S
C475 C481 1.428 . S
H476 C472 0.930 . S
H477 C474 0.929 . S
S478 N479 1.613 . S
S478 N480 1.610 1_545 S
N479 S478 1.613 . S
N479 C482 1.350 1_545 S
N480 S478 1.610 1_565 S
N480 C481 1.351 . S
C481 C475 1.428 . S
C481 N480 1.351 . S
C481 C482 1.434 . S
C482 C473 1.429 . S
C482 N479 1.350 1_565 S
C482 C481 1.434 . S
C483 C484 1.369 . S
C483 C485 1.419 . S
C483 H487 0.930 . S
C484 C483 1.369 . S
C484 C493 1.429 1_545 S
C485 C483 1.419 . S
C485 C486 1.363 . S
C485 H488 0.929 . S
C486 C485 1.363 . S
C486 C492 1.422 1_545 S
H487 C483 0.930 . S
H488 C485 0.929 . S
S489 N490 1.613 . S
S489 N491 1.610 . S
N490 S489 1.613 . S
N490 C493 1.350 . S
N491 S489 1.610 . S
N491 C492 1.362 . S
C492 C486 1.422 1_565 S
C492 N491 1.362 . S
C492 C493 1.430 . S
C493 C484 1.429 1_565 S
C493 N490 1.350 . S
C493 C492 1.430 . S
C494 C495 1.369 . S
C494 C496 1.419 1_554 S
C494 H498 0.930 . S
C495 C494 1.369 . S
C495 C504 1.429 . S
C496 C494 1.419 1_556 S
C496 C497 1.363 1_556 S
C496 H499 0.929 . S
C497 C496 1.363 1_554 S
C497 C503 1.428 . S
H498 C494 0.930 . S
H499 C496 0.929 . S
S500 N501 1.613 . S
S500 N502 1.610 . S
N501 S500 1.613 . S
N501 C504 1.350 . S
N502 S500 1.610 . S
N502 C503 1.351 . S
C503 C497 1.428 . S
C503 N502 1.351 . S
C503 C504 1.434 . S
C504 C495 1.429 . S
C504 N501 1.350 . S
C504 C503 1.434 . S
C505 C506 1.369 . S
C505 C507 1.419 . S
C505 H509 0.930 1_455 S
C506 C505 1.369 . S
C506 C515 1.429 . S
C507 C505 1.419 . S
C507 C508 1.363 . S
C507 H510 0.929 1_455 S
C508 C507 1.363 . S
C508 C514 1.428 . S
H509 C505 0.930 1_655 S
H510 C507 0.929 1_655 S
S511 N512 1.613 . S
S511 N513 1.610 . S
N512 S511 1.613 . S
N512 C515 1.350 . S
N513 S511 1.610 . S
N513 C514 1.351 . S
C514 C508 1.428 . S
C514 N513 1.351 . S
C514 C515 1.434 . S
C515 C506 1.429 . S
C515 N512 1.350 . S
C515 C514 1.434 . S
C387 C97 1.060 . S
C385 C11 1.396 . S
C396 C25 1.460 . S
C398 C211 1.112 . S
C407 C41 1.264 . S
C409 C271 1.092 . S
C418 C7 1.333 . S
C420 C71 1.078 . S
C431 C185 1.126 . S
C429 C21 1.396 . S
C440 C36 1.379 . S
C442 C281 0.804 . S
C453 C167 0.820 . S
C451 C39 1.373 . S
C462 C8 1.381 . S
C464 C299 1.202 1_554 S
C475 C43 1.116 1_455 S
C473 C22 1.334 1_565 S
C486 C157 1.028 . S
C484 C35 1.307 . S
C497 C325 1.070 1_554 S
C495 C13 1.436 . S
C506 C27 1.403 . S
C508 C53 0.859 . S
