# Generated by pormake.
# Topology ssb, (4,4)-cn, num edge types: 1
# Building blocks:
#     Node 0, Type 0, BuildingBlock: NAWXER_clean_linker_0, # of connection points: 4
#     Node 1, Type 0, BuildingBlock: NAWXER_clean_linker_0, # of connection points: 4
#     Node 2, Type 0, BuildingBlock: NAWXER_clean_linker_0, # of connection points: 4
#     Node 3, Type 0, BuildingBlock: NAWXER_clean_linker_0, # of connection points: 4
#     Node 4, Type 0, BuildingBlock: NAWXER_clean_linker_0, # of connection points: 4
#     Node 5, Type 0, BuildingBlock: NAWXER_clean_linker_0, # of connection points: 4
#     Node 6, Type 0, BuildingBlock: NAWXER_clean_linker_0, # of connection points: 4
#     Node 7, Type 0, BuildingBlock: NAWXER_clean_linker_0, # of connection points: 4
#     Node 8, Type 1, BuildingBlock: NAWXER_clean_sbu_0, # of connection points: 4
#     Node 9, Type 1, BuildingBlock: NAWXER_clean_sbu_0, # of connection points: 4
#     Node 10, Type 1, BuildingBlock: NAWXER_clean_sbu_0, # of connection points: 4
#     Node 11, Type 1, BuildingBlock: NAWXER_clean_sbu_0, # of connection points: 4
#     Node 12, Type 1, BuildingBlock: NAWXER_clean_sbu_0, # of connection points: 4
#     Node 13, Type 1, BuildingBlock: NAWXER_clean_sbu_0, # of connection points: 4
#     Node 14, Type 1, BuildingBlock: NAWXER_clean_sbu_0, # of connection points: 4
#     Node 15, Type 1, BuildingBlock: NAWXER_clean_sbu_0, # of connection points: 4
#     Edge 16, Type (0, 1), BuildingBlock: MIFKUJ_clean_linker_0, # of connection points: 2
#     Edge 17, Type (0, 1), BuildingBlock: MIFKUJ_clean_linker_0, # of connection points: 2
#     Edge 18, Type (0, 1), BuildingBlock: MIFKUJ_clean_linker_0, # of connection points: 2
#     Edge 19, Type (0, 1), BuildingBlock: MIFKUJ_clean_linker_0, # of connection points: 2
#     Edge 20, Type (0, 1), BuildingBlock: MIFKUJ_clean_linker_0, # of connection points: 2
#     Edge 21, Type (0, 1), BuildingBlock: MIFKUJ_clean_linker_0, # of connection points: 2
#     Edge 22, Type (0, 1), BuildingBlock: MIFKUJ_clean_linker_0, # of connection points: 2
#     Edge 23, Type (0, 1), BuildingBlock: MIFKUJ_clean_linker_0, # of connection points: 2
#     Edge 24, Type (0, 1), BuildingBlock: MIFKUJ_clean_linker_0, # of connection points: 2
#     Edge 25, Type (0, 1), BuildingBlock: MIFKUJ_clean_linker_0, # of connection points: 2
#     Edge 26, Type (0, 1), BuildingBlock: MIFKUJ_clean_linker_0, # of connection points: 2
#     Edge 27, Type (0, 1), BuildingBlock: MIFKUJ_clean_linker_0, # of connection points: 2
#     Edge 28, Type (0, 1), BuildingBlock: MIFKUJ_clean_linker_0, # of connection points: 2
#     Edge 29, Type (0, 1), BuildingBlock: MIFKUJ_clean_linker_0, # of connection points: 2
#     Edge 30, Type (0, 1), BuildingBlock: MIFKUJ_clean_linker_0, # of connection points: 2
#     Edge 31, Type (0, 1), BuildingBlock: MIFKUJ_clean_linker_0, # of connection points: 2
#     Edge 32, Type (0, 1), BuildingBlock: MIFKUJ_clean_linker_0, # of connection points: 2
#     Edge 33, Type (0, 1), BuildingBlock: MIFKUJ_clean_linker_0, # of connection points: 2
#     Edge 34, Type (0, 1), BuildingBlock: MIFKUJ_clean_linker_0, # of connection points: 2
#     Edge 35, Type (0, 1), BuildingBlock: MIFKUJ_clean_linker_0, # of connection points: 2
#     Edge 36, Type (0, 1), BuildingBlock: MIFKUJ_clean_linker_0, # of connection points: 2
#     Edge 37, Type (0, 1), BuildingBlock: MIFKUJ_clean_linker_0, # of connection points: 2
#     Edge 38, Type (0, 1), BuildingBlock: MIFKUJ_clean_linker_0, # of connection points: 2
#     Edge 39, Type (0, 1), BuildingBlock: MIFKUJ_clean_linker_0, # of connection points: 2
#     Edge 40, Type (0, 1), BuildingBlock: MIFKUJ_clean_linker_0, # of connection points: 2
#     Edge 41, Type (0, 1), BuildingBlock: MIFKUJ_clean_linker_0, # of connection points: 2
#     Edge 42, Type (0, 1), BuildingBlock: MIFKUJ_clean_linker_0, # of connection points: 2
#     Edge 43, Type (0, 1), BuildingBlock: MIFKUJ_clean_linker_0, # of connection points: 2
#     Edge 44, Type (0, 1), BuildingBlock: MIFKUJ_clean_linker_0, # of connection points: 2
#     Edge 45, Type (0, 1), BuildingBlock: MIFKUJ_clean_linker_0, # of connection points: 2
#     Edge 46, Type (0, 1), BuildingBlock: MIFKUJ_clean_linker_0, # of connection points: 2
#     Edge 47, Type (0, 1), BuildingBlock: MIFKUJ_clean_linker_0, # of connection points: 2
# Relax obj value: 0.000
# Max RMSD: 0.001
# Mean RMSD: 0.001
data_MOF--net-ssb--node1-NAWXER_clean_sbu_0--node2-NAWXER_clean_linker_0--edge1-MIFKUJ_clean_linker_0
_symmetry_space_group_name_H-M    P1
_symmetry_Int_Tables_number       1
_symmetry_cell_setting            triclinic
loop_
_symmetry_equiv_pos_as_xyz
'x, y, z'
_cell_length_a     67.639565
_cell_length_b     67.639337
_cell_length_c     59.012533
_cell_angle_alpha  89.999972
_cell_angle_beta   89.954589
_cell_angle_gamma 90.010657
loop_
_atom_site_label
_atom_site_type_symbol
_atom_site_fract_x
_atom_site_fract_y
_atom_site_fract_z
_atom_type_partial_charge
C0 C 0.30122 0.23767 0.1788 0.0
C1 C 0.32123 0.23717 0.18514 0.0
C2 C 0.28645 0.23987 0.19521 0.0
C3 C 0.29147 0.24143 0.21823 0.0
C4 C 0.32621 0.23876 0.20818 0.0
C5 C 0.31143 0.24062 0.22461 0.0
C6 C 0.27592 0.24292 0.23578 0.0
C7 C 0.27764 0.3011 0.20013 0.0
C8 C 0.25982 0.30774 0.19046 0.0
C9 C 0.27791 0.28484 0.2147 0.0
C10 C 0.26049 0.27423 0.21935 0.0
C11 C 0.2423 0.29741 0.19564 0.0
C12 C 0.24265 0.28085 0.20986 0.0
C13 C 0.26057 0.25711 0.23519 0.0
C14 C 0.21469 0.23989 0.32109 0.0
C15 C 0.19534 0.23929 0.31237 0.0
C16 C 0.231 0.24085 0.3065 0.0
C17 C 0.22828 0.24106 0.28289 0.0
C18 C 0.1927 0.24005 0.28874 0.0
C19 C 0.20899 0.24103 0.27419 0.0
C20 C 0.24531 0.24143 0.26707 0.0
C21 C 0.24921 0.18352 0.3052 0.0
C22 C 0.26704 0.18109 0.31717 0.0
C23 C 0.24715 0.19874 0.28933 0.0
C24 C 0.26276 0.21202 0.28544 0.0
C25 C 0.2827 0.19424 0.31297 0.0
C26 C 0.28059 0.20949 0.29721 0.0
C27 C 0.26123 0.22791 0.26828 0.0
H28 H 0.29702 0.23652 0.16114 0.0
H29 H 0.27111 0.24012 0.18996 0.0
H30 H 0.34153 0.23825 0.2135 0.0
H31 H 0.31558 0.2416 0.24231 0.0
H32 H 0.29151 0.30843 0.19649 0.0
H33 H 0.29178 0.28079 0.22254 0.0
H34 H 0.22819 0.30227 0.18902 0.0
H35 H 0.22892 0.27323 0.2135 0.0
H36 H 0.21726 0.2393 0.33919 0.0
H37 H 0.24572 0.24133 0.31367 0.0
H38 H 0.17801 0.24004 0.28146 0.0
H39 H 0.20651 0.24143 0.25605 0.0
H40 H 0.237 0.17341 0.30778 0.0
H41 H 0.23347 0.19996 0.27992 0.0
H42 H 0.29654 0.19288 0.32205 0.0
H43 H 0.2929 0.21945 0.29433 0.0
N44 N 0.27582 0.22915 0.25251 0.0
N45 N 0.24567 0.25556 0.25063 0.0
C46 C 0.68232 0.27764 0.20079 0.0
C47 C 0.67954 0.26158 0.18601 0.0
C48 C 0.69723 0.27716 0.21712 0.0
C49 C 0.70983 0.26072 0.21884 0.0
C50 C 0.69175 0.24484 0.18831 0.0
C51 C 0.70669 0.24439 0.20467 0.0
C52 C 0.72636 0.26067 0.23525 0.0
C53 C 0.73971 0.30447 0.18132 0.0
C54 C 0.74 0.32419 0.18876 0.0
C55 C 0.74028 0.28897 0.19691 0.0
C56 C 0.74066 0.29285 0.22031 0.0
C57 C 0.7413 0.32808 0.21212 0.0
C58 C 0.74166 0.31253 0.22776 0.0
C59 C 0.73999 0.27643 0.23693 0.0
C60 C 0.79964 0.24775 0.30457 0.0
C61 C 0.80222 0.26511 0.3174 0.0
C62 C 0.78404 0.24613 0.28915 0.0
C63 C 0.77063 0.26178 0.28632 0.0
C64 C 0.78867 0.2807 0.31458 0.0
C65 C 0.77314 0.27908 0.29909 0.0
C66 C 0.75487 0.26089 0.26896 0.0
C67 C 0.73722 0.21386 0.31999 0.0
C68 C 0.73839 0.19459 0.31114 0.0
C69 C 0.73888 0.23027 0.30567 0.0
C70 C 0.74153 0.22765 0.28226 0.0
C71 C 0.74133 0.19204 0.28776 0.0
C72 C 0.74265 0.20843 0.27342 0.0
C73 C 0.74172 0.24476 0.26668 0.0
H74 H 0.67291 0.29055 0.19983 0.0
H75 H 0.69904 0.28973 0.22831 0.0
H76 H 0.69008 0.23227 0.1771 0.0
H77 H 0.71616 0.23151 0.20583 0.0
H78 H 0.73917 0.30102 0.1634 0.0
H79 H 0.74024 0.27391 0.19066 0.0
H80 H 0.74154 0.34315 0.21833 0.0
H81 H 0.74219 0.31588 0.2457 0.0
H82 H 0.80999 0.23561 0.30597 0.0
H83 H 0.7828 0.23285 0.27899 0.0
H84 H 0.79003 0.29416 0.32438 0.0
H85 H 0.76305 0.2914 0.29709 0.0
H86 H 0.73501 0.21621 0.33797 0.0
H87 H 0.73763 0.24497 0.3128 0.0
H88 H 0.74209 0.17735 0.28049 0.0
H89 H 0.74451 0.20611 0.25537 0.0
N90 N 0.72793 0.2453 0.24995 0.0
N91 N 0.75353 0.27609 0.25393 0.0
C92 C 0.71709 0.74244 0.17919 0.0
C93 C 0.6977 0.74358 0.1877 0.0
C94 C 0.73329 0.74264 0.19395 0.0
C95 C 0.73037 0.74345 0.21753 0.0
C96 C 0.69487 0.74511 0.21123 0.0
C97 C 0.71103 0.74507 0.22596 0.0
C98 C 0.74717 0.74294 0.23367 0.0
C99 C 0.75012 0.68602 0.19343 0.0
C100 C 0.76838 0.68283 0.18253 0.0
C101 C 0.7481 0.70083 0.20983 0.0
C102 C 0.76415 0.71314 0.21523 0.0
C103 C 0.78453 0.69486 0.18849 0.0
C104 C 0.78242 0.70982 0.20461 0.0
C105 C 0.76262 0.72883 0.23269 0.0
C106 C 0.80277 0.74014 0.32305 0.0
C107 C 0.82225 0.73551 0.31667 0.0
C108 C 0.78809 0.74262 0.30663 0.0
C109 C 0.79271 0.74105 0.28345 0.0
C110 C 0.82676 0.73346 0.29355 0.0
C111 C 0.81214 0.7362 0.27712 0.0
C112 C 0.77722 0.74308 0.26578 0.0
C113 C 0.77954 0.80171 0.30111 0.0
C114 C 0.76189 0.80761 0.31172 0.0
C115 C 0.77974 0.78561 0.28625 0.0
C116 C 0.76238 0.77476 0.28208 0.0
C117 C 0.74443 0.79704 0.30713 0.0
C118 C 0.74468 0.78081 0.29244 0.0
C119 C 0.76234 0.75779 0.26612 0.0
H120 H 0.71974 0.7416 0.16111 0.0
H121 H 0.74808 0.74207 0.18693 0.0
H122 H 0.68011 0.74592 0.2183 0.0
H123 H 0.70838 0.74591 0.24405 0.0
H124 H 0.7373 0.67717 0.18924 0.0
H125 H 0.734 0.7026 0.2183 0.0
H126 H 0.79895 0.69258 0.18096 0.0
H127 H 0.79513 0.71886 0.20879 0.0
H128 H 0.79881 0.74147 0.34077 0.0
H129 H 0.77308 0.74551 0.3121 0.0
H130 H 0.84167 0.72999 0.28816 0.0
H131 H 0.81605 0.73464 0.25941 0.0
H132 H 0.79313 0.80981 0.30393 0.0
H133 H 0.79345 0.78179 0.27785 0.0
H134 H 0.73062 0.80119 0.31511 0.0
H135 H 0.73105 0.77286 0.2893 0.0
N136 N 0.74773 0.75687 0.2503 0.0
N137 N 0.77691 0.72947 0.24885 0.0
C138 C 0.29531 0.7497 0.19326 0.0
C139 C 0.30118 0.76807 0.18425 0.0
C140 C 0.2789 0.74829 0.20762 0.0
C141 C 0.26758 0.76513 0.2128 0.0
C142 C 0.28996 0.78493 0.18974 0.0
C143 C 0.27339 0.78345 0.20379 0.0
C144 C 0.25074 0.76433 0.22898 0.0
C145 C 0.23313 0.72101 0.1736 0.0
C146 C 0.23328 0.70135 0.18136 0.0
C147 C 0.23442 0.73671 0.18899 0.0
C148 C 0.23565 0.73297 0.21236 0.0
C149 C 0.23456 0.69769 0.20474 0.0
C150 C 0.2355 0.71337 0.22011 0.0
C151 C 0.23618 0.74929 0.22899 0.0
C152 C 0.1771 0.78195 0.29652 0.0
C153 C 0.1719 0.76458 0.30823 0.0
C154 C 0.19233 0.78182 0.28052 0.0
C155 C 0.20316 0.76446 0.27635 0.0
C156 C 0.18207 0.74697 0.30303 0.0
C157 C 0.19753 0.74693 0.28729 0.0
C158 C 0.22035 0.76448 0.26071 0.0
C159 C 0.23402 0.80463 0.31846 0.0
C160 C 0.23635 0.82455 0.31227 0.0
C161 C 0.23429 0.7898 0.302 0.0
C162 C 0.23631 0.79464 0.27895 0.0
C163 C 0.23937 0.8293 0.28934 0.0
C164 C 0.23935 0.81447 0.27282 0.0
C165 C 0.23526 0.77915 0.2612 0.0
H166 H 0.30343 0.73634 0.18934 0.0
H167 H 0.27539 0.73408 0.21501 0.0
H168 H 0.29419 0.79941 0.18363 0.0
H169 H 0.26517 0.79675 0.20781 0.0
H170 H 0.23217 0.72419 0.15565 0.0
H171 H 0.23422 0.75176 0.1827 0.0
H172 H 0.23449 0.68269 0.21117 0.0
H173 H 0.23625 0.71019 0.23808 0.0
H174 H 0.16975 0.79583 0.30004 0.0
H175 H 0.1959 0.79541 0.27173 0.0
H176 H 0.17816 0.73317 0.31118 0.0
H177 H 0.20539 0.73327 0.28403 0.0
H178 H 0.23211 0.80052 0.33607 0.0
H179 H 0.23266 0.77455 0.30728 0.0
H180 H 0.24124 0.84454 0.28412 0.0
H181 H 0.2412 0.81853 0.25519 0.0
N182 N 0.24966 0.77865 0.24514 0.0
N183 N 0.22159 0.74997 0.24484 0.0
C184 C 0.20622 0.75215 0.69243 0.0
C185 C 0.20115 0.73409 0.68209 0.0
C186 C 0.22245 0.75343 0.70702 0.0
C187 C 0.23443 0.73683 0.71112 0.0
C188 C 0.21308 0.71746 0.68638 0.0
C189 C 0.2295 0.71883 0.70069 0.0
C190 C 0.25094 0.73748 0.72774 0.0
C191 C 0.26791 0.7837 0.67555 0.0
C192 C 0.26773 0.80308 0.68419 0.0
C193 C 0.26647 0.76747 0.69018 0.0
C194 C 0.26493 0.77037 0.71369 0.0
C195 C 0.26616 0.8059 0.70771 0.0
C196 C 0.26498 0.78969 0.72232 0.0
C197 C 0.26444 0.75344 0.72955 0.0
C198 C 0.32449 0.72288 0.7955 0.0
C199 C 0.32542 0.73808 0.81167 0.0
C200 C 0.30966 0.72287 0.77903 0.0
C201 C 0.29567 0.73819 0.77831 0.0
C202 C 0.31149 0.75349 0.81081 0.0
C203 C 0.29686 0.75366 0.79407 0.0
C204 C 0.27962 0.73787 0.76133 0.0
C205 C 0.26424 0.69479 0.81555 0.0
C206 C 0.26648 0.67502 0.80869 0.0
C207 C 0.26388 0.70998 0.79956 0.0
C208 C 0.26581 0.70574 0.77638 0.0
C209 C 0.26807 0.67076 0.78542 0.0
C210 C 0.26755 0.686 0.76937 0.0
C211 C 0.26622 0.72199 0.75961 0.0
H212 H 0.19756 0.76536 0.68944 0.0
H213 H 0.22527 0.76734 0.71549 0.0
H214 H 0.20949 0.70318 0.67919 0.0
H215 H 0.23824 0.70569 0.70384 0.0
H216 H 0.26904 0.78111 0.65748 0.0
H217 H 0.26683 0.75267 0.68318 0.0
H218 H 0.26622 0.82065 0.71485 0.0
H219 H 0.26402 0.79225 0.74041 0.0
H220 H 0.33502 0.71082 0.79585 0.0
H221 H 0.30907 0.71089 0.76687 0.0
H222 H 0.31204 0.76547 0.82298 0.0
H223 H 0.28622 0.76562 0.79372 0.0
H224 H 0.26312 0.69857 0.83334 0.0
H225 H 0.26219 0.72509 0.80532 0.0
H226 H 0.26959 0.65563 0.77964 0.0
H227 H 0.26893 0.68243 0.75155 0.0
N228 N 0.25246 0.72231 0.74284 0.0
N229 N 0.27818 0.75304 0.74637 0.0
C230 C 0.29983 0.28053 0.79966 0.0
C231 C 0.30679 0.26324 0.81025 0.0
C232 C 0.28338 0.27993 0.78539 0.0
C233 C 0.27307 0.26215 0.78188 0.0
C234 C 0.29683 0.24532 0.80606 0.0
C235 C 0.28017 0.2448 0.79205 0.0
C236 C 0.25551 0.2614 0.7668 0.0
C237 C 0.23858 0.3021 0.82368 0.0
C238 C 0.23339 0.32142 0.81728 0.0
C239 C 0.24097 0.28735 0.80732 0.0
C240 C 0.23877 0.29177 0.78417 0.0
C241 C 0.23073 0.32573 0.7942 0.0
C242 C 0.23341 0.31106 0.77782 0.0
C243 C 0.24069 0.27618 0.7666 0.0
C244 C 0.18273 0.2488 0.69566 0.0
C245 C 0.18064 0.2666 0.68355 0.0
C246 C 0.19744 0.24682 0.71217 0.0
C247 C 0.21049 0.2625 0.71658 0.0
C248 C 0.19356 0.28233 0.68828 0.0
C249 C 0.20827 0.28031 0.70468 0.0
C250 C 0.22601 0.26105 0.73416 0.0
C251 C 0.23933 0.2145 0.68172 0.0
C252 C 0.23861 0.19522 0.69066 0.0
C253 C 0.24001 0.23091 0.69614 0.0
C254 C 0.23981 0.22836 0.71976 0.0
C255 C 0.23892 0.19274 0.71432 0.0
C256 C 0.23964 0.20914 0.7287 0.0
C257 C 0.23992 0.2455 0.73537 0.0
H258 H 0.30694 0.29465 0.80253 0.0
H259 H 0.27876 0.29343 0.77709 0.0
H260 H 0.30199 0.2316 0.81343 0.0
H261 H 0.27274 0.23081 0.78926 0.0
H262 H 0.24038 0.2983 0.84139 0.0
H263 H 0.24429 0.27245 0.81283 0.0
H264 H 0.2268 0.34053 0.78881 0.0
H265 H 0.23136 0.31481 0.76012 0.0
H266 H 0.17279 0.23653 0.69265 0.0
H267 H 0.19846 0.23313 0.72161 0.0
H268 H 0.19248 0.29615 0.6791 0.0
H269 H 0.21808 0.29266 0.70793 0.0
H270 H 0.23906 0.21693 0.66359 0.0
H271 H 0.24057 0.24559 0.68884 0.0
H272 H 0.23876 0.17809 0.72173 0.0
H273 H 0.23972 0.20682 0.74686 0.0
N274 N 0.25423 0.24638 0.75152 0.0
N275 N 0.22685 0.27562 0.74995 0.0
C276 C 0.82784 0.21581 0.71258 0.0
C277 C 0.8312 0.23221 0.69843 0.0
C278 C 0.81267 0.21617 0.72867 0.0
C279 C 0.80043 0.23285 0.7308 0.0
C280 C 0.81939 0.24916 0.70121 0.0
C281 C 0.80423 0.24951 0.71734 0.0
C282 C 0.78342 0.23289 0.74663 0.0
C283 C 0.77116 0.18948 0.69149 0.0
C284 C 0.76923 0.16984 0.69894 0.0
C285 C 0.77061 0.20508 0.70696 0.0
C286 C 0.76866 0.20136 0.73028 0.0
C287 C 0.76638 0.16616 0.72216 0.0
C288 C 0.7661 0.1818 0.73769 0.0
C289 C 0.76901 0.21778 0.74694 0.0
C290 C 0.70644 0.24936 0.81014 0.0
C291 C 0.70076 0.23143 0.82044 0.0
C292 C 0.72328 0.25033 0.79639 0.0
C293 C 0.7352 0.23354 0.79314 0.0
C294 C 0.71256 0.21459 0.81677 0.0
C295 C 0.72955 0.21566 0.80334 0.0
C296 C 0.75261 0.23384 0.77779 0.0
C297 C 0.76519 0.28022 0.83118 0.0
C298 C 0.76985 0.29906 0.82266 0.0
C299 C 0.76428 0.26387 0.81665 0.0
C300 C 0.76735 0.26619 0.79321 0.0
C301 C 0.77337 0.30128 0.79935 0.0
C302 C 0.77209 0.28505 0.7848 0.0
C303 C 0.76701 0.24911 0.77736 0.0
H304 H 0.83663 0.20251 0.71085 0.0
H305 H 0.81026 0.20327 0.7392 0.0
H306 H 0.82184 0.26217 0.69088 0.0
H307 H 0.79512 0.26262 0.71887 0.0
H308 H 0.77291 0.19278 0.67363 0.0
H309 H 0.7718 0.22007 0.70066 0.0
H310 H 0.76481 0.15117 0.72835 0.0
H311 H 0.7643 0.17858 0.75556 0.0
H312 H 0.69788 0.2627 0.81265 0.0
H313 H 0.72682 0.26416 0.78809 0.0
H314 H 0.7085 0.2004 0.82388 0.0
H315 H 0.73823 0.20239 0.80078 0.0
H316 H 0.76268 0.27808 0.84914 0.0
H317 H 0.7614 0.24941 0.82381 0.0
H318 H 0.7769 0.31566 0.79234 0.0
H319 H 0.77476 0.28726 0.76688 0.0
N320 N 0.78175 0.24799 0.76168 0.0
N321 N 0.75432 0.21878 0.76261 0.0
C322 C 0.78664 0.76322 0.68275 0.0
C323 C 0.80578 0.7621 0.69191 0.0
C324 C 0.77005 0.76275 0.6969 0.0
C325 C 0.77229 0.76169 0.72056 0.0
C326 C 0.80797 0.76038 0.71551 0.0
C327 C 0.7914 0.76017 0.72968 0.0
C328 C 0.75495 0.76166 0.73599 0.0
C329 C 0.75164 0.82011 0.69845 0.0
C330 C 0.73547 0.8207 0.68349 0.0
C331 C 0.75301 0.80522 0.71483 0.0
C332 C 0.73817 0.79079 0.71658 0.0
C333 C 0.72064 0.80625 0.68535 0.0
C334 C 0.72188 0.79155 0.70192 0.0
C335 C 0.73909 0.77519 0.73407 0.0
C336 C 0.69775 0.76601 0.82301 0.0
C337 C 0.67789 0.76781 0.81637 0.0
C338 C 0.71259 0.76336 0.80682 0.0
C339 C 0.70786 0.76247 0.78366 0.0
C340 C 0.67317 0.76688 0.79319 0.0
C341 C 0.68806 0.76444 0.77697 0.0
C342 C 0.72364 0.76074 0.76639 0.0
C343 C 0.72083 0.70206 0.80083 0.0
C344 C 0.73764 0.69698 0.81357 0.0
C345 C 0.72123 0.71817 0.78603 0.0
C346 C 0.7384 0.7297 0.78375 0.0
C347 C 0.75491 0.70841 0.81104 0.0
C348 C 0.75531 0.72453 0.79617 0.0
C349 C 0.73894 0.74657 0.76769 0.0
H350 H 0.78449 0.76414 0.66459 0.0
H351 H 0.7555 0.7631 0.6893 0.0
H352 H 0.82254 0.75956 0.72306 0.0
H353 H 0.79353 0.75913 0.74783 0.0
H354 H 0.76328 0.83107 0.69733 0.0
H355 H 0.76557 0.80503 0.72621 0.0
H356 H 0.70792 0.8065 0.67422 0.0
H357 H 0.7102 0.78064 0.70316 0.0
H358 H 0.7018 0.76658 0.84076 0.0
H359 H 0.72782 0.76234 0.81237 0.0
H360 H 0.65801 0.76844 0.78758 0.0
H361 H 0.68411 0.76403 0.75919 0.0
H362 H 0.70744 0.69333 0.80191 0.0
H363 H 0.70818 0.72141 0.77609 0.0
H364 H 0.76808 0.70501 0.82071 0.0
H365 H 0.76877 0.7331 0.79455 0.0
N366 N 0.75418 0.74778 0.7527 0.0
N367 N 0.72413 0.77427 0.7494 0.0
C368 C 0.97819 0.23928 0.52199 0.0
C369 C 0.02509 0.23986 0.45874 0.0
O370 O 0.98242 0.25673 0.51498 0.0
Zn371 Zn 1.00034 0.27048 0.48945 0.0
O372 O 0.98599 0.2244 0.51231 0.0
Zn373 Zn 0.0013 0.23895 0.49001 0.0
O374 O 0.02301 0.25353 0.51045 0.0
O375 O 0.0187 0.28579 0.50761 0.0
O376 O 0.01791 0.22481 0.46869 0.0
O377 O 0.01959 0.25721 0.46483 0.0
O378 O 0.98092 0.28394 0.47091 0.0
O379 O 0.97863 0.25144 0.46909 0.0
C380 C 0.02817 0.27118 0.51573 0.0
C381 C 0.97234 0.26859 0.46329 0.0
C382 C 0.75818 0.02435 0.52233 0.0
C383 C 0.75654 0.97522 0.46165 0.0
O384 O 0.77278 0.01652 0.51217 0.0
Zn385 Zn 0.75777 1.00036 0.49125 0.0
O386 O 0.74054 0.02015 0.51598 0.0
Zn387 Zn 0.72643 0.00208 0.49075 0.0
O388 O 0.71044 0.98466 0.50927 0.0
O389 O 0.74265 0.98013 0.51341 0.0
O390 O 0.73926 0.98153 0.467 0.0
O391 O 0.77165 0.98218 0.47165 0.0
O392 O 0.74592 0.02167 0.46797 0.0
O393 O 0.71346 0.02126 0.47144 0.0
C394 C 0.7248 0.97563 0.51852 0.0
C395 C 0.72889 0.02827 0.46214 0.0
C396 C 0.97495 0.75889 0.54438 0.0
C397 C 0.02537 0.75976 0.48512 0.0
O398 O 0.98258 0.77392 0.53484 0.0
Zn399 Zn 1.00005 0.75978 0.51475 0.0
O400 O 0.98051 0.74147 0.53852 0.0
Zn401 Zn 1.00068 0.72829 0.51452 0.0
O402 O 0.01895 0.71401 0.53362 0.0
O403 O 0.021 0.74643 0.53757 0.0
O404 O 0.02069 0.74225 0.49143 0.0
O405 O 0.01669 0.77455 0.49392 0.0
O406 O 0.97931 0.74611 0.49247 0.0
O407 O 0.98313 0.71377 0.49428 0.0
C408 C 0.02683 0.729 0.54296 0.0
C409 C 0.97425 0.72872 0.48612 0.0
C410 C 0.2422 0.02735 0.5414 0.0
C411 C 0.24112 0.97614 0.48299 0.0
O412 O 0.25958 0.02223 0.53491 0.0
Zn413 Zn 0.27267 0.00097 0.51215 0.0
O414 O 0.22715 0.01841 0.53355 0.0
Zn415 Zn 0.24118 0.00101 0.51313 0.0
O416 O 0.2548 0.98061 0.53581 0.0
O417 O 0.28711 0.98282 0.53163 0.0
O418 O 0.22634 0.98364 0.49316 0.0
O419 O 0.25863 0.98145 0.4886 0.0
O420 O 0.28709 0.01803 0.49171 0.0
O421 O 0.25464 0.02159 0.48982 0.0
C422 C 0.27224 0.97493 0.5412 0.0
C423 C 0.27205 0.02658 0.48326 0.0
C424 C 0.47465 0.77514 0.04347 0.0
C425 C 0.52593 0.77647 0.98512 0.0
O426 O 0.48251 0.79024 0.03436 0.0
Zn427 Zn 0.50074 0.77632 0.01473 0.0
O428 O 0.48036 0.7578 0.03758 0.0
Zn429 Zn 0.50082 0.74485 0.01406 0.0
O430 O 0.51903 0.73033 0.03314 0.0
O431 O 0.52111 0.76264 0.03775 0.0
O432 O 0.5205 0.75893 0.99053 0.0
O433 O 0.51846 0.79125 0.99533 0.0
O434 O 0.48106 0.76298 0.99057 0.0
O435 O 0.48329 0.73054 0.9939 0.0
C436 C 0.52685 0.74514 0.04291 0.0
C437 C 0.47573 0.74561 0.98435 0.0
C438 C 0.22763 0.5295 0.03914 0.0
C439 C 0.22824 0.47757 0.98155 0.0
O440 O 0.24508 0.52331 0.0344 0.0
Zn441 Zn 0.25881 0.50219 0.01237 0.0
O442 O 0.2128 0.52197 0.02911 0.0
Zn443 Zn 0.2274 0.50364 0.01018 0.0
O444 O 0.23886 0.48224 0.03384 0.0
O445 O 0.27144 0.48443 0.0335 0.0
O446 O 0.21326 0.48694 0.98893 0.0
O447 O 0.24551 0.48196 0.98894 0.0
O448 O 0.27502 0.51855 0.99271 0.0
O449 O 0.24301 0.52343 0.98817 0.0
C450 C 0.25578 0.47638 0.04105 0.0
C451 C 0.26093 0.52768 0.98305 0.0
C452 C 0.52563 0.22612 0.95846 0.0
C453 C 0.47599 0.22817 0.01875 0.0
O454 O 0.52057 0.24373 0.96396 0.0
Zn455 Zn 0.50133 0.25804 0.98745 0.0
O456 O 0.51771 0.21147 0.96844 0.0
Zn457 Zn 0.50049 0.2265 0.98849 0.0
O458 O 0.47926 0.24005 0.96639 0.0
O459 O 0.48352 0.2724 0.96779 0.0
O460 O 0.48319 0.21279 0.00945 0.0
O461 O 0.4816 0.24535 0.0121 0.0
O462 O 0.51977 0.27248 0.00634 0.0
O463 O 0.52129 0.24014 0.01096 0.0
C464 C 0.47424 0.2575 0.96011 0.0
C465 C 0.5273 0.25754 0.01616 0.0
C466 C 0.77298 0.52696 0.01813 0.0
C467 C 0.76922 0.47375 0.96214 0.0
O468 O 0.78741 0.51902 0.00772 0.0
Zn469 Zn 0.77171 0.50127 0.98919 0.0
O470 O 0.75522 0.52184 0.0133 0.0
Zn471 Zn 0.74024 0.50202 0.99065 0.0
O472 O 0.72572 0.48567 0.01169 0.0
O473 O 0.75819 0.48261 0.0145 0.0
O474 O 0.75221 0.47996 0.96859 0.0
O475 O 0.78471 0.48221 0.96953 0.0
O476 O 0.75824 0.52153 0.96611 0.0
O477 O 0.72596 0.51988 0.97081 0.0
C478 C 0.74073 0.47799 0.02122 0.0
C479 C 0.74082 0.52742 0.96086 0.0
H480 H 0.16215 0.21658 0.30707 0.0
H481 H 0.13298 0.21527 0.33148 0.0
H482 H 0.15987 0.25731 0.37695 0.0
H483 H 0.18913 0.25875 0.35256 0.0
H484 H 0.14166 0.22861 0.40042 0.0
H485 H 0.12513 0.27209 0.33929 0.0
H486 H 0.12133 0.28215 0.29936 0.0
H487 H 0.07985 0.23502 0.2886 0.0
H488 H 0.08362 0.2245 0.32841 0.0
H489 H 0.03831 0.26817 0.42962 0.0
H490 H 0.06652 0.26635 0.40394 0.0
H491 H 0.07581 0.20543 0.4227 0.0
H492 H 0.04747 0.20714 0.44861 0.0
H493 H 0.07596 0.24391 0.36737 0.0
H494 H 0.12795 0.1997 0.42698 0.0
H495 H 0.1315 0.19294 0.46786 0.0
H496 H 0.10199 0.24746 0.48348 0.0
H497 H 0.09905 0.25496 0.44279 0.0
C498 C 0.16184 0.22564 0.32221 0.0
C499 C 0.17792 0.23791 0.32774 0.0
C500 C 0.14517 0.22482 0.33619 0.0
C501 C 0.14412 0.23636 0.35592 0.0
C502 C 0.16035 0.24824 0.36183 0.0
C503 C 0.17708 0.24903 0.34788 0.0
C504 C 0.12589 0.23648 0.37002 0.0
C505 C 0.12729 0.23186 0.39317 0.0
C506 C 0.10716 0.24107 0.36068 0.0
C507 C 0.10482 0.24739 0.33676 0.0
C508 C 0.11532 0.26377 0.32836 0.0
C509 C 0.11315 0.26957 0.30576 0.0
C510 C 0.1004 0.2592 0.29144 0.0
C511 C 0.08975 0.24302 0.2997 0.0
C512 C 0.09188 0.23714 0.32229 0.0
C513 C 0.04619 0.25429 0.42813 0.0
C514 C 0.04072 0.23782 0.44129 0.0
C515 C 0.06228 0.25327 0.41335 0.0
C516 C 0.07339 0.23584 0.41157 0.0
C517 C 0.06753 0.21909 0.42399 0.0
C518 C 0.05129 0.22006 0.4387 0.0
C519 C 0.09168 0.23567 0.39764 0.0
C520 C 0.0903 0.24039 0.37455 0.0
C521 C 0.11046 0.23163 0.40718 0.0
C522 C 0.113 0.22772 0.43177 0.0
C523 C 0.12239 0.21033 0.43914 0.0
C524 C 0.12436 0.20641 0.4623 0.0
C525 C 0.11697 0.21976 0.47827 0.0
C526 C 0.10776 0.23715 0.47111 0.0
C527 C 0.10598 0.24127 0.448 0.0
H528 H 0.11839 0.21664 0.49618 0.0
H529 H 0.09873 0.26371 0.27395 0.0
H530 H 0.76216 0.1621 0.3138 0.0
H531 H 0.75803 0.13314 0.33817 0.0
H532 H 0.70465 0.15847 0.36591 0.0
H533 H 0.70925 0.1878 0.34216 0.0
H534 H 0.72433 0.14342 0.39835 0.0
H535 H 0.70482 0.11891 0.32607 0.0
H536 H 0.70765 0.11217 0.28514 0.0
H537 H 0.75941 0.07693 0.29701 0.0
H538 H 0.75706 0.08369 0.338 0.0
H539 H 0.69748 0.05272 0.45311 0.0
H540 H 0.69638 0.08016 0.42591 0.0
H541 H 0.75599 0.06689 0.40493 0.0
H542 H 0.75731 0.03969 0.43212 0.0
H543 H 0.72985 0.07511 0.36839 0.0
H544 H 0.74947 0.10215 0.44078 0.0
H545 H 0.74539 0.10852 0.48149 0.0
H546 H 0.69089 0.1391 0.46856 0.0
H547 H 0.69444 0.13241 0.42764 0.0
C548 C 0.74954 0.16142 0.32508 0.0
C549 C 0.73601 0.17715 0.3261 0.0
C550 C 0.7471 0.14482 0.3389 0.0
C551 C 0.73078 0.14336 0.3536 0.0
C552 C 0.71733 0.15917 0.35471 0.0
C553 C 0.71997 0.17594 0.34117 0.0
C554 C 0.72811 0.12566 0.36831 0.0
C555 C 0.72515 0.12851 0.39164 0.0
C556 C 0.72942 0.10611 0.35975 0.0
C557 C 0.73085 0.10194 0.3351 0.0
C558 C 0.71689 0.10983 0.31994 0.0
C559 C 0.7184 0.10599 0.29673 0.0
C560 C 0.73372 0.09416 0.28848 0.0
C561 C 0.74756 0.08611 0.30343 0.0
C562 C 0.74613 0.08992 0.32666 0.0
C563 C 0.71028 0.05556 0.44257 0.0
C564 C 0.72753 0.04412 0.44487 0.0
C565 C 0.70964 0.07124 0.42708 0.0
C566 C 0.72614 0.07558 0.41348 0.0
C567 C 0.7431 0.06376 0.41523 0.0
C568 C 0.74385 0.04829 0.43088 0.0
C569 C 0.72624 0.09301 0.39822 0.0
C570 C 0.72876 0.09007 0.37488 0.0
C571 C 0.72424 0.11247 0.40667 0.0
C572 C 0.7221 0.11656 0.43121 0.0
C573 C 0.73651 0.11005 0.44663 0.0
C574 C 0.73431 0.11377 0.46977 0.0
C575 C 0.71788 0.12423 0.47768 0.0
C576 C 0.7036 0.13098 0.46243 0.0
C577 C 0.70569 0.1272 0.43925 0.0
H578 H 0.7162 0.12716 0.4956 0.0
H579 H 0.73486 0.09121 0.2705 0.0
H580 H 0.84949 0.70575 0.31991 0.0
H581 H 0.87563 0.70197 0.34839 0.0
H582 H 0.85639 0.75569 0.381 0.0
H583 H 0.83024 0.75953 0.35264 0.0
H584 H 0.89755 0.75371 0.37283 0.0
H585 H 0.84524 0.71348 0.40464 0.0
H586 H 0.82069 0.68654 0.40398 0.0
H587 H 0.86694 0.64416 0.39283 0.0
H588 H 0.89176 0.67091 0.39311 0.0
H589 H 0.94582 0.75562 0.47635 0.0
H590 H 0.92049 0.75383 0.4472 0.0
H591 H 0.94083 0.69567 0.42824 0.0
H592 H 0.9661 0.69715 0.45816 0.0
H593 H 0.90123 0.69747 0.42668 0.0
H594 H 0.95382 0.7361 0.39678 0.0
H595 H 0.97918 0.76228 0.39636 0.0
H596 H 0.93396 0.8066 0.40158 0.0
H597 H 0.90833 0.78066 0.40237 0.0
C598 C 0.85087 0.71674 0.33316 0.0
C599 C 0.83784 0.73293 0.33409 0.0
C600 C 0.86571 0.7145 0.34946 0.0
C601 C 0.86787 0.72851 0.36683 0.0
C602 C 0.85493 0.74471 0.36774 0.0
C603 C 0.83995 0.74682 0.35163 0.0
C604 C 0.88389 0.72663 0.3838 0.0
C605 C 0.89827 0.74153 0.38476 0.0
C606 C 0.88522 0.7103 0.39872 0.0
C607 C 0.87032 0.69422 0.39863 0.0
C608 C 0.85016 0.69844 0.40184 0.0
C609 C 0.8362 0.6832 0.40158 0.0
C610 C 0.84224 0.66365 0.3983 0.0
C611 C 0.86228 0.65931 0.39533 0.0
C612 C 0.87629 0.6745 0.39555 0.0
C613 C 0.94491 0.74239 0.46606 0.0
C614 C 0.95814 0.72662 0.46934 0.0
C615 C 0.93043 0.74141 0.44933 0.0
C616 C 0.92907 0.72484 0.43512 0.0
C617 C 0.94173 0.70868 0.43889 0.0
C618 C 0.95615 0.70954 0.45595 0.0
C619 C 0.91466 0.72485 0.41611 0.0
C620 C 0.90065 0.70958 0.41466 0.0
C621 C 0.91379 0.74072 0.40046 0.0
C622 C 0.92915 0.75641 0.3998 0.0
C623 C 0.94928 0.75142 0.39798 0.0
C624 C 0.96371 0.76622 0.39766 0.0
C625 C 0.95819 0.78609 0.39898 0.0
C626 C 0.93822 0.7912 0.40057 0.0
C627 C 0.92373 0.77646 0.40093 0.0
H628 H 0.96938 0.79753 0.39874 0.0
H629 H 0.83141 0.65187 0.3981 0.0
H630 H 0.26196 0.85534 0.31818 0.0
H631 H 0.26083 0.88097 0.34753 0.0
H632 H 0.20771 0.855 0.37492 0.0
H633 H 0.20879 0.82927 0.34564 0.0
H634 H 0.20655 0.89736 0.37029 0.0
H635 H 0.24764 0.84619 0.40176 0.0
H636 H 0.27534 0.8225 0.40165 0.0
H637 H 0.31664 0.87029 0.39429 0.0
H638 H 0.28914 0.89426 0.39401 0.0
H639 H 0.20866 0.953 0.47383 0.0
H640 H 0.20596 0.92702 0.445 0.0
H641 H 0.26508 0.94032 0.42199 0.0
H642 H 0.26808 0.96562 0.4511 0.0
H643 H 0.26158 0.90274 0.42547 0.0
H644 H 0.22186 0.95392 0.39203 0.0
H645 H 0.19489 0.97841 0.39035 0.0
H646 H 0.15206 0.93222 0.39943 0.0
H647 H 0.1788 0.90747 0.40146 0.0
C648 C 0.24998 0.85518 0.33038 0.0
C649 C 0.23551 0.84029 0.32973 0.0
C650 C 0.24939 0.86976 0.34716 0.0
C651 C 0.23423 0.86979 0.36342 0.0
C652 C 0.21952 0.8552 0.36252 0.0
C653 C 0.22024 0.84046 0.34592 0.0
C654 C 0.23405 0.88483 0.38167 0.0
C655 C 0.21842 0.89843 0.38259 0.0
C656 C 0.24975 0.88638 0.39734 0.0
C657 C 0.26631 0.872 0.39765 0.0
C658 C 0.26261 0.85164 0.39993 0.0
C659 C 0.27828 0.83816 0.39997 0.0
C660 C 0.29773 0.84488 0.39791 0.0
C661 C 0.30156 0.86511 0.39586 0.0
C662 C 0.28594 0.87864 0.39578 0.0
C663 C 0.221 0.95044 0.4625 0.0
C664 C 0.2386 0.9613 0.4648 0.0
C665 C 0.21943 0.93564 0.44597 0.0
C666 C 0.23529 0.93175 0.43118 0.0
C667 C 0.25268 0.9429 0.43325 0.0
C668 C 0.25436 0.95742 0.4499 0.0
C669 C 0.23423 0.9157 0.41397 0.0
C670 C 0.24963 0.90176 0.41327 0.0
C671 C 0.21843 0.91403 0.39833 0.0
C672 C 0.20234 0.92888 0.39715 0.0
C673 C 0.2067 0.94901 0.39386 0.0
C674 C 0.19145 0.96293 0.39281 0.0
C675 C 0.17178 0.95688 0.39485 0.0
C676 C 0.1673 0.93689 0.39789 0.0
C677 C 0.1825 0.9229 0.39898 0.0
H678 H 0.15999 0.96768 0.39403 0.0
H679 H 0.30984 0.83443 0.39795 0.0
H680 H 0.16552 0.75317 0.68716 0.0
H681 H 0.13612 0.75029 0.6637 0.0
H682 H 0.16562 0.70728 0.6216 0.0
H683 H 0.1957 0.7112 0.64398 0.0
H684 H 0.14547 0.73014 0.59582 0.0
H685 H 0.12989 0.69432 0.66293 0.0
H686 H 0.1264 0.68829 0.70394 0.0
H687 H 0.08424 0.73556 0.70879 0.0
H688 H 0.08768 0.74206 0.66785 0.0
H689 H 0.0536 0.69875 0.54567 0.0
H690 H 0.08305 0.69716 0.56996 0.0
H691 H 0.06665 0.7525 0.60098 0.0
H692 H 0.03755 0.75444 0.57645 0.0
H693 H 0.07992 0.72021 0.63193 0.0
H694 H 0.09827 0.75634 0.56379 0.0
H695 H 0.10127 0.76 0.52235 0.0
H696 H 0.13812 0.70837 0.51948 0.0
H697 H 0.13506 0.70422 0.5609 0.0
C698 C 0.16598 0.74334 0.67269 0.0
C699 C 0.18312 0.7324 0.66759 0.0
C700 C 0.14895 0.74145 0.65947 0.0
C701 C 0.14842 0.72821 0.64114 0.0
C702 C 0.16556 0.71748 0.63576 0.0
C703 C 0.18272 0.71959 0.64877 0.0
C704 C 0.13006 0.72581 0.62747 0.0
C705 C 0.13123 0.72763 0.60377 0.0
C706 C 0.11134 0.72266 0.6377 0.0
C707 C 0.10918 0.71878 0.66234 0.0
C708 C 0.11998 0.70352 0.67277 0.0
C709 C 0.118 0.70001 0.696 0.0
C710 C 0.10514 0.71156 0.70898 0.0
C711 C 0.09421 0.72663 0.69873 0.0
C712 C 0.09616 0.73022 0.6755 0.0
C713 C 0.05616 0.71042 0.55789 0.0
C714 C 0.04334 0.72675 0.55915 0.0
C715 C 0.07298 0.70953 0.57166 0.0
C716 C 0.07699 0.72475 0.58717 0.0
C717 C 0.06377 0.74061 0.58913 0.0
C718 C 0.04721 0.74172 0.57506 0.0
C719 C 0.09548 0.72477 0.60059 0.0
C720 C 0.09428 0.72252 0.62414 0.0
C721 C 0.11417 0.72718 0.59023 0.0
C722 C 0.11624 0.72983 0.56539 0.0
C723 C 0.10686 0.74566 0.5543 0.0
C724 C 0.1086 0.74785 0.53082 0.0
C725 C 0.11983 0.73439 0.51828 0.0
C726 C 0.1294 0.71876 0.52921 0.0
C727 C 0.12767 0.71649 0.55268 0.0
H728 H 0.12115 0.7361 0.5001 0.0
H729 H 0.10362 0.70881 0.72696 0.0
H730 H 0.2156 0.16217 0.69545 0.0
H731 H 0.21408 0.1333 0.67057 0.0
H732 H 0.25756 0.15982 0.62651 0.0
H733 H 0.25912 0.18875 0.6513 0.0
H734 H 0.22834 0.14416 0.60239 0.0
H735 H 0.26965 0.12255 0.66376 0.0
H736 H 0.27832 0.11618 0.70367 0.0
H737 H 0.229 0.07657 0.70987 0.0
H738 H 0.21987 0.08292 0.67005 0.0
H739 H 0.2669 0.05871 0.54625 0.0
H740 H 0.26316 0.08711 0.57159 0.0
H741 H 0.20898 0.06244 0.59775 0.0
H742 H 0.21228 0.03418 0.57177 0.0
H743 H 0.24053 0.07635 0.63124 0.0
H744 H 0.20186 0.09593 0.56747 0.0
H745 H 0.19424 0.10276 0.52743 0.0
H746 H 0.23946 0.14726 0.52568 0.0
H747 H 0.24808 0.14001 0.56535 0.0
C748 C 0.22496 0.16178 0.68055 0.0
C749 C 0.23755 0.17773 0.67541 0.0
C750 C 0.22406 0.14527 0.66633 0.0
C751 C 0.23586 0.14427 0.64678 0.0
C752 C 0.24828 0.16027 0.64147 0.0
C753 C 0.24913 0.17682 0.65563 0.0
C754 C 0.23527 0.12663 0.63177 0.0
C755 C 0.23122 0.12936 0.60866 0.0
C756 C 0.23849 0.10724 0.64007 0.0
C757 C 0.24395 0.10339 0.66401 0.0
C758 C 0.26055 0.11262 0.67369 0.0
C759 C 0.26557 0.10898 0.69628 0.0
C760 C 0.25418 0.09602 0.70932 0.0
C761 C 0.23778 0.08663 0.69977 0.0
C762 C 0.23269 0.09023 0.67718 0.0
C763 C 0.25419 0.05932 0.5574 0.0
C764 C 0.23989 0.04423 0.55709 0.0
C765 C 0.25204 0.07557 0.57178 0.0
C766 C 0.23578 0.07685 0.58644 0.0
C767 C 0.22161 0.06169 0.58649 0.0
C768 C 0.22348 0.04562 0.57165 0.0
C769 C 0.2339 0.094 0.60188 0.0
C770 C 0.23752 0.09115 0.62504 0.0
C771 C 0.23048 0.11331 0.59358 0.0
C772 C 0.22585 0.11716 0.56936 0.0
C773 C 0.21052 0.10683 0.55842 0.0
C774 C 0.20601 0.1108 0.53576 0.0
C775 C 0.21649 0.1253 0.52393 0.0
C776 C 0.23151 0.13586 0.53475 0.0
C777 C 0.23627 0.13177 0.55731 0.0
H778 H 0.21287 0.12845 0.50644 0.0
H779 H 0.25809 0.09322 0.72681 0.0
H780 H 0.86876 0.21718 0.7016 0.0
H781 H 0.89419 0.21619 0.67208 0.0
H782 H 0.85432 0.24493 0.62555 0.0
H783 H 0.82868 0.24551 0.65477 0.0
H784 H 0.87389 0.21522 0.60495 0.0
H785 H 0.88999 0.27106 0.65174 0.0
H786 H 0.8975 0.28828 0.68756 0.0
H787 H 0.94837 0.25127 0.6973 0.0
H788 H 0.94099 0.23365 0.66167 0.0
H789 H 0.96168 0.2684 0.54764 0.0
H790 H 0.93752 0.26511 0.57798 0.0
H791 H 0.93839 0.2017 0.57023 0.0
H792 H 0.96262 0.20488 0.53946 0.0
H793 H 0.93869 0.24754 0.61838 0.0
H794 H 0.89081 0.18483 0.58118 0.0
H795 H 0.88185 0.17086 0.54394 0.0
H796 H 0.89229 0.22715 0.51248 0.0
H797 H 0.90104 0.24151 0.54956 0.0
C798 C 0.86535 0.22312 0.68502 0.0
C799 C 0.84673 0.23154 0.68058 0.0
C800 C 0.87993 0.22265 0.66821 0.0
C801 C 0.8762 0.23062 0.64665 0.0
C802 C 0.85753 0.23871 0.64206 0.0
C803 C 0.84296 0.23922 0.65886 0.0
C804 C 0.89188 0.231 0.62902 0.0
C805 C 0.88811 0.22217 0.60793 0.0
C806 C 0.91033 0.24031 0.63279 0.0
C807 C 0.91482 0.2509 0.65418 0.0
C808 C 0.90269 0.26649 0.66162 0.0
C809 C 0.90693 0.27634 0.68187 0.0
C810 C 0.92337 0.27083 0.69473 0.0
C811 C 0.93562 0.25549 0.68734 0.0
C812 C 0.93142 0.24558 0.66712 0.0
C813 C 0.95682 0.25371 0.55234 0.0
C814 C 0.96405 0.23689 0.54101 0.0
C815 C 0.94303 0.25186 0.56981 0.0
C816 C 0.93605 0.23319 0.57631 0.0
C817 C 0.94344 0.21629 0.56533 0.0
C818 C 0.95733 0.21812 0.54781 0.0
C819 C 0.92076 0.23168 0.59431 0.0
C820 C 0.92459 0.24032 0.6155 0.0
C821 C 0.90222 0.22257 0.59045 0.0
C822 C 0.89682 0.21415 0.5681 0.0
C823 C 0.89115 0.19422 0.56631 0.0
C824 C 0.8861 0.18624 0.54524 0.0
C825 C 0.88658 0.19809 0.52584 0.0
C826 C 0.89202 0.21797 0.5275 0.0
C827 C 0.89704 0.22602 0.54853 0.0
H828 H 0.88268 0.19188 0.50954 0.0
H829 H 0.92664 0.27848 0.7104 0.0
H830 H 0.73964 0.8605 0.68948 0.0
H831 H 0.73588 0.8866 0.66092 0.0
H832 H 0.72402 0.84251 0.60992 0.0
H833 H 0.7276 0.81637 0.63844 0.0
H834 H 0.7521 0.87239 0.59701 0.0
H835 H 0.68679 0.86633 0.62894 0.0
H836 H 0.66251 0.86535 0.6601 0.0
H837 H 0.67869 0.92433 0.67959 0.0
H838 H 0.70329 0.92555 0.64873 0.0
H839 H 0.72003 0.93661 0.50998 0.0
H840 H 0.7199 0.90965 0.53788 0.0
H841 H 0.72336 0.95242 0.59204 0.0
H842 H 0.72331 0.97932 0.56409 0.0
H843 H 0.69896 0.92267 0.6033 0.0
H844 H 0.76351 0.92986 0.57225 0.0
H845 H 0.78936 0.93152 0.54289 0.0
H846 H 0.77753 0.87135 0.52417 0.0
H847 H 0.75099 0.86957 0.55277 0.0
C848 C 0.73635 0.8564 0.67214 0.0
C849 C 0.73387 0.83645 0.66614 0.0
C850 C 0.7341 0.87129 0.65591 0.0
C851 C 0.72955 0.86645 0.63338 0.0
C852 C 0.72748 0.84652 0.62724 0.0
C853 C 0.72944 0.83165 0.64353 0.0
C854 C 0.72692 0.8822 0.61621 0.0
C855 C 0.74031 0.88321 0.5981 0.0
C856 C 0.71188 0.89661 0.61817 0.0
C857 C 0.69703 0.89595 0.63666 0.0
C858 C 0.6853 0.87902 0.63999 0.0
C859 C 0.67145 0.87844 0.65758 0.0
C860 C 0.66909 0.89475 0.67186 0.0
C861 C 0.68055 0.9117 0.66854 0.0
C862 C 0.69444 0.91235 0.65099 0.0
C863 C 0.72026 0.94016 0.52789 0.0
C864 C 0.72139 0.95987 0.53509 0.0
C865 C 0.72037 0.92482 0.54377 0.0
C866 C 0.72185 0.92903 0.56704 0.0
C867 C 0.72217 0.94884 0.5742 0.0
C868 C 0.72209 0.96416 0.55831 0.0
C869 C 0.72408 0.91285 0.58386 0.0
C870 C 0.71068 0.91179 0.602 0.0
C871 C 0.73931 0.89852 0.58207 0.0
C872 C 0.75499 0.89969 0.56445 0.0
C873 C 0.76615 0.91708 0.56161 0.0
C874 C 0.78094 0.91805 0.54509 0.0
C875 C 0.78498 0.9016 0.53155 0.0
C876 C 0.77427 0.88413 0.53455 0.0
C877 C 0.75928 0.88317 0.55085 0.0
H878 H 0.79648 0.90234 0.51881 0.0
H879 H 0.65836 0.89427 0.68546 0.0
H880 H 0.83814 0.73798 0.69305 0.0
H881 H 0.86732 0.73916 0.66863 0.0
H882 H 0.84263 0.78901 0.63284 0.0
H883 H 0.81315 0.78753 0.65691 0.0
H884 H 0.85832 0.76498 0.60372 0.0
H885 H 0.88072 0.79405 0.6727 0.0
H886 H 0.88643 0.79656 0.71386 0.0
H887 H 0.92257 0.74441 0.71182 0.0
H888 H 0.91685 0.74142 0.67068 0.0
H889 H 0.95013 0.79042 0.55029 0.0
H890 H 0.92181 0.79264 0.57619 0.0
H891 H 0.93553 0.73483 0.60264 0.0
H892 H 0.96357 0.73232 0.57655 0.0
H893 H 0.92591 0.76507 0.63639 0.0
H894 H 0.90156 0.73614 0.56675 0.0
H895 H 0.89636 0.73533 0.52541 0.0
H896 H 0.86421 0.78998 0.52897 0.0
H897 H 0.86952 0.79128 0.57032 0.0
C898 C 0.83899 0.74924 0.68004 0.0
C899 C 0.82342 0.76272 0.67694 0.0
C900 C 0.85571 0.74996 0.66612 0.0
C901 C 0.85739 0.76442 0.64912 0.0
C902 C 0.84172 0.77775 0.64584 0.0
C903 C 0.82488 0.77688 0.65958 0.0
C904 C 0.87536 0.76543 0.63459 0.0
C905 C 0.87306 0.76533 0.61093 0.0
C906 C 0.89468 0.76565 0.64389 0.0
C907 C 0.8982 0.76741 0.66863 0.0
C908 C 0.88976 0.78303 0.68105 0.0
C909 C 0.89302 0.78456 0.70438 0.0
C910 C 0.90482 0.77063 0.71545 0.0
C911 C 0.91342 0.75517 0.70322 0.0
C912 C 0.91019 0.75357 0.67989 0.0
C913 C 0.94723 0.77829 0.56181 0.0
C914 C 0.95901 0.76117 0.56135 0.0
C915 C 0.93104 0.77955 0.57651 0.0
C916 C 0.92658 0.76386 0.59121 0.0
C917 C 0.93876 0.74709 0.59141 0.0
C918 C 0.95472 0.74566 0.57645 0.0
C919 C 0.90874 0.76449 0.60575 0.0
C920 C 0.9111 0.76488 0.62933 0.0
C921 C 0.8895 0.76479 0.5964 0.0
C922 C 0.88615 0.76393 0.57158 0.0
C923 C 0.89355 0.74808 0.55869 0.0
C924 C 0.89055 0.74751 0.53526 0.0
C925 C 0.88002 0.76262 0.52456 0.0
C926 C 0.87241 0.7783 0.53728 0.0
C927 C 0.8754 0.77896 0.56071 0.0
H928 H 0.87771 0.76215 0.50642 0.0
H929 H 0.90732 0.77184 0.73351 0.0
H930 H 0.24508 0.83642 0.6843 0.0
H931 H 0.24799 0.86527 0.65946 0.0
H932 H 0.29694 0.83782 0.62475 0.0
H933 H 0.29407 0.80882 0.64959 0.0
H934 H 0.30318 0.8786 0.63675 0.0
H935 H 0.25544 0.83773 0.59883 0.0
H936 H 0.22525 0.81743 0.59614 0.0
H937 H 0.18991 0.86749 0.61515 0.0
H938 H 0.21993 0.88802 0.61829 0.0
H939 H 0.30314 0.94889 0.54532 0.0
H940 H 0.30447 0.9194 0.56943 0.0
H941 H 0.24791 0.93486 0.59837 0.0
H942 H 0.24619 0.96373 0.57375 0.0
H943 H 0.24715 0.89833 0.58753 0.0
H944 H 0.29379 0.93901 0.62765 0.0
H945 H 0.32349 0.9598 0.63214 0.0
H946 H 0.36022 0.91139 0.61107 0.0
H947 H 0.3307 0.89037 0.60619 0.0
C948 C 0.25649 0.83656 0.67141 0.0
C949 C 0.26932 0.82038 0.66882 0.0
C950 C 0.2581 0.853 0.6572 0.0
C951 C 0.27264 0.85363 0.64024 0.0
C952 C 0.28563 0.8376 0.63775 0.0
C953 C 0.28387 0.82102 0.6518 0.0
C954 C 0.27404 0.871 0.62501 0.0
C955 C 0.29108 0.88282 0.62571 0.0
C956 C 0.25806 0.87665 0.61102 0.0
C957 C 0.23996 0.86437 0.60899 0.0
C958 C 0.24125 0.84437 0.60262 0.0
C959 C 0.22416 0.83283 0.60098 0.0
C960 C 0.20568 0.84116 0.60552 0.0
C961 C 0.20424 0.86106 0.61166 0.0
C962 C 0.22129 0.87266 0.61335 0.0
C963 C 0.29115 0.94611 0.55708 0.0
C964 C 0.27453 0.95857 0.55761 0.0
C965 C 0.29193 0.92927 0.57089 0.0
C966 C 0.27631 0.92487 0.58583 0.0
C967 C 0.26008 0.93778 0.58689 0.0
C968 C 0.25914 0.95435 0.57286 0.0
C969 C 0.27617 0.90638 0.59954 0.0
C970 C 0.25934 0.89422 0.59849 0.0
C971 C 0.29227 0.90058 0.61339 0.0
C972 C 0.31002 0.91319 0.61631 0.0
C973 C 0.30819 0.93285 0.6238 0.0
C974 C 0.32499 0.94466 0.62645 0.0
C975 C 0.34372 0.93694 0.62183 0.0
C976 C 0.34569 0.91736 0.61461 0.0
C977 C 0.32894 0.90549 0.61191 0.0
H978 H 0.35671 0.94611 0.62389 0.0
H979 H 0.19246 0.8322 0.60424 0.0
H980 H 0.15651 0.29845 0.67628 0.0
H981 H 0.13153 0.3025 0.64671 0.0
H982 H 0.14428 0.24388 0.6219 0.0
H983 H 0.16966 0.23991 0.65108 0.0
H984 H 0.14163 0.27061 0.58761 0.0
H985 H 0.10348 0.25264 0.65351 0.0
H986 H 0.09199 0.25591 0.69299 0.0
H987 H 0.07016 0.3142 0.67871 0.0
H988 H 0.08178 0.31137 0.63919 0.0
H989 H 0.05683 0.24451 0.52574 0.0
H990 H 0.08388 0.24793 0.55265 0.0
H991 H 0.0652 0.30745 0.56781 0.0
H992 H 0.03788 0.30415 0.5406 0.0
H993 H 0.0715 0.28473 0.60625 0.0
H994 H 0.10664 0.3013 0.5392 0.0
H995 H 0.11862 0.29826 0.49989 0.0
H996 H 0.14619 0.24288 0.51609 0.0
H997 H 0.13412 0.2454 0.55543 0.0
C998 C 0.15408 0.28647 0.66444 0.0
C999 C 0.16506 0.26885 0.66602 0.0
C1000 C 0.1397 0.28875 0.64766 0.0
C1001 C 0.13596 0.27344 0.63221 0.0
C1002 C 0.14693 0.25587 0.63368 0.0
C1003 C 0.16129 0.25356 0.65048 0.0
C1004 C 0.12065 0.2757 0.61443 0.0
C1005 C 0.12626 0.27351 0.59167 0.0
C1006 C 0.10073 0.28018 0.61973 0.0
C1007 C 0.09371 0.28188 0.64347 0.0
C1008 C 0.09639 0.26622 0.65884 0.0
C1009 C 0.08982 0.26798 0.68122 0.0
C1010 C 0.08041 0.28527 0.68838 0.0
C1011 C 0.07749 0.30083 0.67315 0.0
C1012 C 0.08405 0.29915 0.65076 0.0
C1013 C 0.0585 0.2584 0.53467 0.0
C1014 C 0.04516 0.27405 0.53113 0.0
C1015 C 0.07407 0.26037 0.54994 0.0
C1016 C 0.07663 0.27799 0.5621 0.0
C1017 C 0.06349 0.29376 0.5585 0.0
C1018 C 0.04796 0.29188 0.54295 0.0
C1019 C 0.09241 0.27924 0.57944 0.0
C1020 C 0.08691 0.28208 0.60214 0.0
C1021 C 0.11243 0.27533 0.57408 0.0
C1022 C 0.11936 0.2735 0.55027 0.0
C1023 C 0.11509 0.28837 0.53434 0.0
C1024 C 0.12196 0.28677 0.51207 0.0
C1025 C 0.13322 0.27043 0.50553 0.0
C1026 C 0.13753 0.25558 0.52121 0.0
C1027 C 0.13068 0.25708 0.54351 0.0
H1028 H 0.13855 0.26924 0.48828 0.0
H1029 H 0.07533 0.28661 0.70571 0.0
H1030 H 0.74418 0.13828 0.69518 0.0
H1031 H 0.7449 0.11204 0.66665 0.0
H1032 H 0.7974 0.13775 0.63723 0.0
H1033 H 0.79637 0.16429 0.66536 0.0
H1034 H 0.77299 0.12923 0.60533 0.0
H1035 H 0.79792 0.09341 0.66888 0.0
H1036 H 0.79845 0.08082 0.70808 0.0
H1037 H 0.74376 0.05019 0.69659 0.0
H1038 H 0.74275 0.06283 0.6574 0.0
H1039 H 0.79119 0.04617 0.53245 0.0
H1040 H 0.79535 0.06971 0.56378 0.0
H1041 H 0.73639 0.05659 0.5872 0.0
H1042 H 0.73197 0.03343 0.55577 0.0
H1043 H 0.76651 0.05769 0.62236 0.0
H1044 H 0.7403 0.09655 0.56083 0.0
H1045 H 0.73906 0.10994 0.52215 0.0
H1046 H 0.79705 0.1348 0.53047 0.0
H1047 H 0.79865 0.12136 0.56934 0.0
C1048 C 0.75598 0.13818 0.68276 0.0
C1049 C 0.77019 0.15333 0.68243 0.0
C1050 C 0.75645 0.12313 0.66651 0.0
C1051 C 0.77136 0.12272 0.64991 0.0
C1052 C 0.78573 0.13772 0.64982 0.0
C1053 C 0.78512 0.1529 0.66587 0.0
C1054 C 0.77135 0.10736 0.63186 0.0
C1055 C 0.77202 0.11357 0.60916 0.0
C1056 C 0.7696 0.0869 0.6367 0.0
C1057 C 0.77019 0.07921 0.66025 0.0
C1058 C 0.78593 0.08411 0.67476 0.0
C1059 C 0.78633 0.07694 0.69697 0.0
C1060 C 0.77112 0.06475 0.70484 0.0
C1061 C 0.75551 0.05965 0.69048 0.0
C1062 C 0.75504 0.06679 0.66825 0.0
C1063 C 0.77916 0.04826 0.54434 0.0
C1064 C 0.76122 0.03805 0.54158 0.0
C1065 C 0.78155 0.06169 0.56219 0.0
C1066 C 0.76616 0.06486 0.57777 0.0
C1067 C 0.74845 0.0543 0.57538 0.0
C1068 C 0.74592 0.04118 0.55734 0.0
C1069 C 0.76819 0.07969 0.5961 0.0
C1070 C 0.76783 0.07336 0.61873 0.0
C1071 C 0.77035 0.10003 0.59129 0.0
C1072 C 0.7697 0.10773 0.56782 0.0
C1073 C 0.75288 0.10466 0.55431 0.0
C1074 C 0.75209 0.11234 0.53237 0.0
C1075 C 0.76801 0.12318 0.52376 0.0
C1076 C 0.78475 0.12637 0.53713 0.0
C1077 C 0.7856 0.11874 0.55913 0.0
H1078 H 0.76735 0.12919 0.50678 0.0
H1079 H 0.77145 0.05921 0.72204 0.0
H1080 H 0.81788 0.23692 0.34556 0.0
H1081 H 0.8463 0.24005 0.37076 0.0
H1082 H 0.85308 0.30111 0.35111 0.0
H1083 H 0.82524 0.29783 0.32503 0.0
H1084 H 0.88786 0.28382 0.35212 0.0
H1085 H 0.83332 0.2881 0.40302 0.0
H1086 H 0.80185 0.27819 0.42082 0.0
H1087 H 0.82813 0.22377 0.44303 0.0
H1088 H 0.8597 0.23321 0.42507 0.0
H1089 H 0.95714 0.30175 0.44268 0.0
H1090 H 0.92771 0.30372 0.41844 0.0
H1091 H 0.91848 0.24101 0.42634 0.0
H1092 H 0.94767 0.23888 0.45037 0.0
H1093 H 0.88426 0.26268 0.43252 0.0
H1094 H 0.93816 0.25819 0.37873 0.0
H1095 H 0.96953 0.26889 0.36128 0.0
H1096 H 0.94392 0.32528 0.34534 0.0
H1097 H 0.91247 0.315 0.363 0.0
C1098 C 0.8255 0.25098 0.34644 0.0
C1099 C 0.8192 0.26713 0.33328 0.0
C1100 C 0.84162 0.25282 0.36108 0.0
C1101 C 0.85167 0.27092 0.36311 0.0
C1102 C 0.8455 0.28704 0.34993 0.0
C1103 C 0.82944 0.28518 0.33519 0.0
C1104 C 0.86886 0.27283 0.37863 0.0
C1105 C 0.88696 0.27953 0.3698 0.0
C1106 C 0.8678 0.26704 0.40167 0.0
C1107 C 0.84884 0.2613 0.41252 0.0
C1108 C 0.83235 0.27395 0.41155 0.0
C1109 C 0.8145 0.26842 0.42169 0.0
C1110 C 0.81298 0.25034 0.433 0.0
C1111 C 0.82933 0.23776 0.43424 0.0
C1112 C 0.84721 0.2432 0.4241 0.0
C1113 C 0.94884 0.2884 0.43921 0.0
C1114 C 0.9548 0.27015 0.44839 0.0
C1115 C 0.93207 0.28954 0.42534 0.0
C1116 C 0.92097 0.27249 0.42056 0.0
C1117 C 0.92681 0.25435 0.42986 0.0
C1118 C 0.94359 0.25316 0.4435 0.0
C1119 C 0.90322 0.27332 0.40586 0.0
C1120 C 0.88504 0.26716 0.41488 0.0
C1121 C 0.90417 0.27975 0.38309 0.0
C1122 C 0.92305 0.28591 0.37242 0.0
C1123 C 0.93928 0.27293 0.37169 0.0
C1124 C 0.95706 0.27891 0.36172 0.0
C1125 C 0.95874 0.29777 0.35227 0.0
C1126 C 0.94261 0.31068 0.35271 0.0
C1127 C 0.9248 0.30479 0.36268 0.0
H1128 H 0.97251 0.30237 0.34456 0.0
H1129 H 0.79915 0.2461 0.44085 0.0
H1130 H 0.73498 0.83777 0.31319 0.0
H1131 H 0.73496 0.86658 0.33832 0.0
H1132 H 0.78827 0.84552 0.37028 0.0
H1133 H 0.78827 0.81655 0.34532 0.0
H1134 H 0.75989 0.85869 0.4013 0.0
H1135 H 0.79146 0.88189 0.3331 0.0
H1136 H 0.79417 0.88769 0.29197 0.0
H1137 H 0.74153 0.92314 0.29364 0.0
H1138 H 0.73835 0.91732 0.33476 0.0
H1139 H 0.78651 0.94834 0.45734 0.0
H1140 H 0.78797 0.92008 0.43131 0.0
H1141 H 0.73251 0.93785 0.40167 0.0
H1142 H 0.73071 0.96583 0.42793 0.0
H1143 H 0.76253 0.92657 0.36944 0.0
H1144 H 0.72924 0.90314 0.43523 0.0
H1145 H 0.72391 0.89712 0.47596 0.0
H1146 H 0.77682 0.86214 0.47859 0.0
H1147 H 0.78266 0.86825 0.43787 0.0
C1148 C 0.74661 0.8392 0.32569 0.0
C1149 C 0.76166 0.82492 0.32724 0.0
C1150 C 0.74666 0.85572 0.33992 0.0
C1151 C 0.76172 0.85827 0.35603 0.0
C1152 C 0.77655 0.84387 0.35792 0.0
C1153 C 0.77661 0.82741 0.34356 0.0
C1154 C 0.76203 0.87604 0.37078 0.0
C1155 C 0.76081 0.87351 0.39436 0.0
C1156 C 0.76262 0.8954 0.36167 0.0
C1157 C 0.76457 0.89901 0.33697 0.0
C1158 C 0.78038 0.8908 0.32467 0.0
C1159 C 0.78201 0.89411 0.30136 0.0
C1160 C 0.768 0.90574 0.29019 0.0
C1161 C 0.75236 0.91412 0.30232 0.0
C1162 C 0.75064 0.91083 0.32563 0.0
C1163 C 0.77475 0.94633 0.4451 0.0
C1164 C 0.75848 0.95925 0.44468 0.0
C1165 C 0.77556 0.93017 0.43033 0.0
C1166 C 0.7603 0.92688 0.41466 0.0
C1167 C 0.74442 0.94017 0.41364 0.0
C1168 C 0.7434 0.95609 0.42869 0.0
C1169 C 0.76053 0.90917 0.39989 0.0
C1170 C 0.76179 0.91172 0.37636 0.0
C1171 C 0.75972 0.88985 0.409 0.0
C1172 C 0.75652 0.88635 0.43356 0.0
C1173 C 0.73989 0.89437 0.44454 0.0
C1174 C 0.73674 0.89091 0.4676 0.0
C1175 C 0.75002 0.87927 0.47984 0.0
C1176 C 0.76655 0.87116 0.46907 0.0
C1177 C 0.76979 0.87462 0.44599 0.0
H1178 H 0.74739 0.87644 0.49763 0.0
H1179 H 0.7693 0.90829 0.27214 0.0
H1180 H 0.17082 0.74367 0.34809 0.0
H1181 H 0.14522 0.74415 0.37725 0.0
H1182 H 0.1125 0.78743 0.33902 0.0
H1183 H 0.13752 0.78641 0.30912 0.0
H1184 H 0.11787 0.79587 0.38767 0.0
H1185 H 0.09552 0.74441 0.33698 0.0
H1186 H 0.0995 0.71386 0.31464 0.0
H1187 H 0.11273 0.68143 0.37532 0.0
H1188 H 0.10913 0.71187 0.39798 0.0
H1189 H 0.0298 0.79006 0.45464 0.0
H1190 H 0.05429 0.79238 0.42409 0.0
H1191 H 0.08081 0.73776 0.44668 0.0
H1192 H 0.05588 0.73496 0.47634 0.0
H1193 H 0.0778 0.73612 0.40406 0.0
H1194 H 0.10219 0.7855 0.4551 0.0
H1195 H 0.10073 0.81532 0.47909 0.0
H1196 H 0.08674 0.85071 0.42086 0.0
H1197 H 0.08787 0.82104 0.39655 0.0
C1198 C 0.15805 0.75306 0.34559 0.0
C1199 C 0.15627 0.76491 0.32607 0.0
C1200 C 0.14353 0.75344 0.36242 0.0
C1201 C 0.12701 0.76582 0.36024 0.0
C1202 C 0.12523 0.77787 0.34103 0.0
C1203 C 0.13962 0.7773 0.32401 0.0
C1204 C 0.11149 0.76589 0.37794 0.0
C1205 C 0.10885 0.78294 0.39112 0.0
C1206 C 0.10022 0.74881 0.38274 0.0
C1207 C 0.10223 0.73046 0.36914 0.0
C1208 C 0.09944 0.7308 0.34554 0.0
C1209 C 0.1016 0.71349 0.33282 0.0
C1210 C 0.10641 0.69572 0.34355 0.0
C1211 C 0.10902 0.69521 0.36702 0.0
C1212 C 0.10691 0.71248 0.37982 0.0
C1213 C 0.04097 0.77867 0.45312 0.0
C1214 C 0.04091 0.7623 0.46776 0.0
C1215 C 0.05502 0.78002 0.43572 0.0
C1216 C 0.06956 0.7653 0.4331 0.0
C1217 C 0.06971 0.74923 0.44816 0.0
C1218 C 0.05547 0.74767 0.46517 0.0
C1219 C 0.0842 0.76608 0.41426 0.0
C1220 C 0.08669 0.74915 0.40073 0.0
C1221 C 0.09561 0.78317 0.40948 0.0
C1222 C 0.0949 0.80102 0.42405 0.0
C1223 C 0.09865 0.79962 0.44744 0.0
C1224 C 0.09791 0.81649 0.46109 0.0
C1225 C 0.09358 0.83488 0.45151 0.0
C1226 C 0.09005 0.83645 0.42826 0.0
C1227 C 0.09075 0.81961 0.41453 0.0
H1228 H 0.09302 0.84793 0.46211 0.0
H1229 H 0.10808 0.68234 0.33367 0.0
H1230 H 0.29887 0.15664 0.32311 0.0
H1231 H 0.30287 0.13044 0.35134 0.0
H1232 H 0.24441 0.14254 0.37712 0.0
H1233 H 0.24048 0.16904 0.34926 0.0
H1234 H 0.2716 0.13867 0.41104 0.0
H1235 H 0.25276 0.10304 0.34342 0.0
H1236 H 0.25598 0.09296 0.30343 0.0
H1237 H 0.31394 0.06986 0.31677 0.0
H1238 H 0.31116 0.08005 0.35681 0.0
H1239 H 0.24421 0.05323 0.47033 0.0
H1240 H 0.24726 0.07948 0.44226 0.0
H1241 H 0.30758 0.06227 0.42917 0.0
H1242 H 0.30472 0.03586 0.45762 0.0
H1243 H 0.28416 0.06891 0.38927 0.0
H1244 H 0.302 0.10146 0.45741 0.0
H1245 H 0.29915 0.11134 0.49746 0.0
H1246 H 0.24419 0.14057 0.48326 0.0
H1247 H 0.24644 0.13043 0.44325 0.0
C1248 C 0.28691 0.15379 0.33488 0.0
C1249 C 0.26934 0.1649 0.33396 0.0
C1250 C 0.28917 0.13872 0.35088 0.0
C1251 C 0.27389 0.13446 0.36622 0.0
C1252 C 0.25638 0.14558 0.36541 0.0
C1253 C 0.25408 0.1606 0.34937 0.0
C1254 C 0.27611 0.11851 0.38328 0.0
C1255 C 0.27417 0.1234 0.40627 0.0
C1256 C 0.2802 0.09871 0.37707 0.0
C1257 C 0.28184 0.09251 0.35304 0.0
C1258 C 0.26626 0.09596 0.33778 0.0
C1259 C 0.26799 0.0902 0.31512 0.0
C1260 C 0.28518 0.08083 0.30755 0.0
C1261 C 0.30065 0.07715 0.32265 0.0
C1262 C 0.299 0.0829 0.34533 0.0
C1263 C 0.25816 0.05497 0.46151 0.0
C1264 C 0.27425 0.04247 0.46621 0.0
C1265 C 0.25988 0.07003 0.44552 0.0
C1266 C 0.27767 0.07286 0.43377 0.0
C1267 C 0.29374 0.0603 0.43813 0.0
C1268 C 0.29211 0.04531 0.45442 0.0
C1269 C 0.27917 0.08904 0.41695 0.0
C1270 C 0.28182 0.08423 0.39404 0.0
C1271 C 0.27582 0.10895 0.42321 0.0
C1272 C 0.27431 0.11502 0.44733 0.0
C1273 C 0.28918 0.1098 0.46287 0.0
C1274 C 0.28768 0.11545 0.48558 0.0
C1275 C 0.27147 0.1265 0.49295 0.0
C1276 C 0.25671 0.13193 0.47759 0.0
C1277 C 0.25809 0.12623 0.45488 0.0
H1278 H 0.27042 0.13092 0.51052 0.0
H1279 H 0.28649 0.07638 0.28999 0.0
H1280 H 0.67795 0.79369 0.85191 0.0
H1281 H 0.65204 0.79864 0.8803 0.0
H1282 H 0.61664 0.75352 0.84822 0.0
H1283 H 0.64234 0.74888 0.81951 0.0
H1284 H 0.59403 0.78296 0.85922 0.0
H1285 H 0.6435 0.74523 0.89802 0.0
H1286 H 0.67679 0.73738 0.91243 0.0
H1287 H 0.67683 0.79086 0.95163 0.0
H1288 H 0.64361 0.79917 0.93721 0.0
H1289 H 0.53366 0.75122 0.95057 0.0
H1290 H 0.5592 0.75408 0.9215 0.0
H1291 H 0.5778 0.80983 0.94977 0.0
H1292 H 0.55181 0.80728 0.97886 0.0
H1293 H 0.60894 0.77909 0.94142 0.0
H1294 H 0.55643 0.81396 0.90388 0.0
H1295 H 0.52228 0.81852 0.89029 0.0
H1296 H 0.52736 0.76628 0.84935 0.0
H1297 H 0.56147 0.76124 0.86296 0.0
C1298 C 0.66466 0.78478 0.85101 0.0
C1299 C 0.66217 0.77084 0.83357 0.0
C1300 C 0.64987 0.7876 0.86725 0.0
C1301 C 0.63247 0.77628 0.86661 0.0
C1302 C 0.62991 0.76248 0.84906 0.0
C1303 C 0.64459 0.75982 0.83266 0.0
C1304 C 0.6169 0.77874 0.88419 0.0
C1305 C 0.59732 0.78197 0.87717 0.0
C1306 C 0.62117 0.77785 0.90769 0.0
C1307 C 0.64117 0.77294 0.91631 0.0
C1308 C 0.65068 0.75541 0.90955 0.0
C1309 C 0.66952 0.75086 0.91776 0.0
C1310 C 0.67895 0.76365 0.93288 0.0
C1311 C 0.66953 0.78099 0.93988 0.0
C1312 C 0.65069 0.78562 0.9317 0.0
C1313 C 0.54309 0.76417 0.95055 0.0
C1314 C 0.54078 0.77904 0.96699 0.0
C1315 C 0.55762 0.76579 0.93389 0.0
C1316 C 0.57031 0.78216 0.93351 0.0
C1317 C 0.56808 0.79711 0.94983 0.0
C1318 C 0.55322 0.79568 0.96632 0.0
C1319 C 0.58623 0.78309 0.91634 0.0
C1320 C 0.60581 0.7804 0.92345 0.0
C1321 C 0.58193 0.78407 0.89294 0.0
C1322 C 0.56147 0.78714 0.88458 0.0
C1323 C 0.55022 0.80335 0.89212 0.0
C1324 C 0.53088 0.80604 0.88438 0.0
C1325 C 0.52264 0.79267 0.869 0.0
C1326 C 0.53376 0.77662 0.86128 0.0
C1327 C 0.55311 0.77385 0.86897 0.0
H1328 H 0.50766 0.79478 0.86303 0.0
H1329 H 0.69353 0.76009 0.93922 0.0
H1330 H 0.29232 0.64391 0.81078 0.0
H1331 H 0.29456 0.61854 0.84029 0.0
H1332 H 0.24475 0.64467 0.87484 0.0
H1333 H 0.24263 0.67014 0.8456 0.0
H1334 H 0.27274 0.63665 0.90412 0.0
H1335 H 0.241 0.60121 0.8436 0.0
H1336 H 0.23738 0.5882 0.80479 0.0
H1337 H 0.29146 0.55558 0.81208 0.0
H1338 H 0.29553 0.56862 0.85086 0.0
H1339 H 0.23678 0.55814 0.97178 0.0
H1340 H 0.2419 0.58319 0.94258 0.0
H1341 H 0.29844 0.55747 0.92615 0.0
H1342 H 0.29358 0.53239 0.95587 0.0
H1343 H 0.27157 0.56468 0.88791 0.0
H1344 H 0.30108 0.59858 0.95047 0.0
H1345 H 0.3036 0.61191 0.98923 0.0
H1346 H 0.25172 0.64718 0.9782 0.0
H1347 H 0.24878 0.63391 0.9394 0.0
C1348 C 0.28172 0.64409 0.82456 0.0
C1349 C 0.2673 0.65901 0.82589 0.0
C1350 C 0.28303 0.62959 0.84141 0.0
C1351 C 0.26975 0.6296 0.85975 0.0
C1352 C 0.25523 0.6444 0.86095 0.0
C1353 C 0.25403 0.65896 0.84423 0.0
C1354 C 0.27109 0.61447 0.87796 0.0
C1355 C 0.27231 0.62092 0.90054 0.0
C1356 C 0.27111 0.59392 0.87332 0.0
C1357 C 0.26869 0.58607 0.85002 0.0
C1358 C 0.25221 0.5914 0.83685 0.0
C1359 C 0.25005 0.58399 0.81488 0.0
C1360 C 0.26421 0.57112 0.80594 0.0
C1361 C 0.28052 0.56558 0.819 0.0
C1362 C 0.28276 0.57296 0.84098 0.0
C1363 C 0.25038 0.55785 0.96206 0.0
C1364 C 0.26478 0.54327 0.96605 0.0
C1365 C 0.2533 0.57222 0.94546 0.0
C1366 C 0.27055 0.57219 0.93229 0.0
C1367 C 0.28504 0.55772 0.93621 0.0
C1368 C 0.28229 0.54349 0.9532 0.0
C1369 C 0.27285 0.58694 0.91393 0.0
C1370 C 0.27226 0.58042 0.89138 0.0
C1371 C 0.27318 0.60743 0.91857 0.0
C1372 C 0.27464 0.61514 0.94207 0.0
C1373 C 0.29009 0.60902 0.95637 0.0
C1374 C 0.29163 0.61662 0.97833 0.0
C1375 C 0.27784 0.6304 0.98617 0.0
C1376 C 0.26242 0.63654 0.97209 0.0
C1377 C 0.26083 0.62901 0.9501 0.0
H1378 H 0.27909 0.63631 0.00315 0.0
H1379 H 0.26252 0.5654 0.78893 0.0
H1380 H 0.31331 0.24177 0.84906 0.0
H1381 H 0.34198 0.24281 0.87393 0.0
H1382 H 0.36813 0.28824 0.83224 0.0
H1383 H 0.34019 0.28622 0.80627 0.0
H1384 H 0.39539 0.26415 0.84371 0.0
H1385 H 0.34554 0.29813 0.88515 0.0
H1386 H 0.31287 0.30361 0.90262 0.0
H1387 H 0.32162 0.25333 0.94587 0.0
H1388 H 0.35424 0.24736 0.92844 0.0
H1389 H 0.466 0.28868 0.9319 0.0
H1390 H 0.43764 0.29196 0.9061 0.0
H1391 H 0.41551 0.23546 0.92849 0.0
H1392 H 0.44388 0.23185 0.95377 0.0
H1393 H 0.38678 0.26861 0.92707 0.0
H1394 H 0.43653 0.23453 0.88201 0.0
H1395 H 0.46961 0.23129 0.86479 0.0
H1396 H 0.46103 0.28576 0.82873 0.0
H1397 H 0.428 0.28946 0.84602 0.0
C1398 C 0.32525 0.25179 0.84491 0.0
C1399 C 0.32429 0.26395 0.8256 0.0
C1400 C 0.34155 0.2526 0.85942 0.0
C1401 C 0.35708 0.26593 0.85529 0.0
C1402 C 0.35629 0.27794 0.83592 0.0
C1403 C 0.34014 0.27692 0.8212 0.0
C1404 C 0.37428 0.26703 0.87095 0.0
C1405 C 0.39345 0.26548 0.8619 0.0
C1406 C 0.37188 0.26865 0.89476 0.0
C1407 C 0.35228 0.2722 0.90534 0.0
C1408 C 0.34044 0.28815 0.89828 0.0
C1409 C 0.32194 0.29136 0.90819 0.0
C1410 C 0.31515 0.2788 0.92531 0.0
C1411 C 0.32688 0.26303 0.93259 0.0
C1412 C 0.34539 0.25974 0.92272 0.0
C1413 C 0.45507 0.277 0.93129 0.0
C1414 C 0.4572 0.25996 0.94472 0.0
C1415 C 0.43893 0.27888 0.91658 0.0
C1416 C 0.42455 0.26393 0.91546 0.0
C1417 C 0.42646 0.24714 0.92917 0.0
C1418 C 0.44273 0.24507 0.94348 0.0
C1419 C 0.4076 0.26548 0.89974 0.0
C1420 C 0.38857 0.26752 0.90883 0.0
C1421 C 0.41012 0.26469 0.876 0.0
C1422 C 0.42992 0.2624 0.86552 0.0
C1423 C 0.44178 0.24592 0.87059 0.0
C1424 C 0.4605 0.24397 0.86078 0.0
C1425 C 0.46745 0.25834 0.84573 0.0
C1426 C 0.45565 0.27466 0.84042 0.0
C1427 C 0.43693 0.27668 0.85021 0.0
H1428 H 0.48194 0.25681 0.83815 0.0
H1429 H 0.30083 0.28131 0.93296 0.0
H1430 H 0.74256 0.31146 0.85365 0.0
H1431 H 0.74386 0.34131 0.8773 0.0
H1432 H 0.80123 0.35549 0.84986 0.0
H1433 H 0.79987 0.32585 0.82591 0.0
H1434 H 0.79678 0.35915 0.89973 0.0
H1435 H 0.76666 0.37962 0.82918 0.0
H1436 H 0.74225 0.37725 0.79829 0.0
H1437 H 0.69499 0.38508 0.84608 0.0
H1438 H 0.71913 0.38719 0.87732 0.0
H1439 H 0.80194 0.45824 0.94081 0.0
H1440 H 0.8034 0.42864 0.91691 0.0
H1441 H 0.74079 0.41962 0.92654 0.0
H1442 H 0.73912 0.44933 0.9497 0.0
H1443 H 0.74908 0.4133 0.88465 0.0
H1444 H 0.77671 0.39174 0.95514 0.0
H1445 H 0.79942 0.39245 0.9878 0.0
H1446 H 0.84902 0.3849 0.94319 0.0
H1447 H 0.82662 0.38437 0.9102 0.0
C1448 C 0.7555 0.32087 0.85284 0.0
C1449 C 0.77108 0.31643 0.83793 0.0
C1450 C 0.75621 0.3379 0.86627 0.0
C1451 C 0.77262 0.35059 0.86524 0.0
C1452 C 0.78846 0.34586 0.85088 0.0
C1453 C 0.78761 0.32903 0.83716 0.0
C1454 C 0.77291 0.36916 0.87856 0.0
C1455 C 0.78656 0.37114 0.8963 0.0
C1456 C 0.75921 0.38451 0.87439 0.0
C1457 C 0.7447 0.38335 0.85561 0.0
C1458 C 0.75106 0.38065 0.83313 0.0
C1459 C 0.73727 0.37939 0.81555 0.0
C1460 C 0.71708 0.38096 0.82023 0.0
C1461 C 0.71063 0.38384 0.84249 0.0
C1462 C 0.72436 0.38508 0.86013 0.0
C1463 C 0.78849 0.44998 0.93774 0.0
C1464 C 0.77042 0.45619 0.94715 0.0
C1465 C 0.78936 0.43298 0.92419 0.0
C1466 C 0.77224 0.42171 0.92011 0.0
C1467 C 0.7542 0.42804 0.92935 0.0
C1468 C 0.75329 0.44507 0.94265 0.0
C1469 C 0.7729 0.40339 0.90612 0.0
C1470 C 0.75941 0.40141 0.88816 0.0
C1471 C 0.7865 0.3879 0.9104 0.0
C1472 C 0.80001 0.38824 0.93018 0.0
C1473 C 0.79247 0.39039 0.95227 0.0
C1474 C 0.80528 0.39073 0.97085 0.0
C1475 C 0.82565 0.38879 0.96756 0.0
C1476 C 0.83324 0.38644 0.9457 0.0
C1477 C 0.8205 0.3861 0.92706 0.0
H1478 H 0.83554 0.38905 0.98196 0.0
H1479 H 0.70643 0.37998 0.8066 0.0
H1480 H 0.65436 0.2321 0.17265 0.0
H1481 H 0.62936 0.23341 0.14281 0.0
H1482 H 0.64458 0.2942 0.12925 0.0
H1483 H 0.66979 0.29296 0.15892 0.0
H1484 H 0.60456 0.28863 0.13068 0.0
H1485 H 0.66025 0.25867 0.09401 0.0
H1486 H 0.68739 0.23464 0.08962 0.0
H1487 H 0.64548 0.18696 0.08852 0.0
H1488 H 0.61809 0.21069 0.09323 0.0
H1489 H 0.54826 0.29097 0.02751 0.0
H1490 H 0.57489 0.29371 0.05554 0.0
H1491 H 0.56798 0.23194 0.07207 0.0
H1492 H 0.54187 0.229 0.04396 0.0
H1493 H 0.60558 0.24038 0.06738 0.0
H1494 H 0.55023 0.26955 0.1067 0.0
H1495 H 0.52279 0.29312 0.11199 0.0
H1496 H 0.56359 0.34168 0.10873 0.0
H1497 H 0.59126 0.31839 0.10314 0.0
C1498 C 0.65252 0.2457 0.16319 0.0
C1499 C 0.66412 0.2624 0.16812 0.0
C1500 C 0.63819 0.24644 0.14618 0.0
C1501 C 0.63526 0.26385 0.13366 0.0
C1502 C 0.64659 0.28063 0.13873 0.0
C1503 C 0.66094 0.27991 0.15574 0.0
C1504 C 0.62035 0.26445 0.11527 0.0
C1505 C 0.60493 0.27829 0.11662 0.0
C1506 C 0.62069 0.25076 0.09716 0.0
C1507 C 0.63713 0.23646 0.09415 0.0
C1508 C 0.65683 0.24305 0.09299 0.0
C1509 C 0.67226 0.22949 0.09042 0.0
C1510 C 0.66817 0.20928 0.08884 0.0
C1511 C 0.64863 0.20261 0.08977 0.0
C1512 C 0.63315 0.21612 0.09236 0.0
C1513 C 0.55239 0.27802 0.0372 0.0
C1514 C 0.54296 0.25978 0.03348 0.0
C1515 C 0.56757 0.27961 0.05324 0.0
C1516 C 0.57336 0.26304 0.06601 0.0
C1517 C 0.56385 0.2449 0.06237 0.0
C1518 C 0.54886 0.24327 0.04629 0.0
C1519 C 0.58951 0.26428 0.08299 0.0
C1520 C 0.60524 0.25082 0.08133 0.0
C1521 C 0.58938 0.27824 0.10086 0.0
C1522 C 0.57277 0.29225 0.10424 0.0
C1523 C 0.55332 0.28526 0.10693 0.0
C1524 C 0.53774 0.29857 0.11001 0.0
C1525 C 0.54144 0.31888 0.11062 0.0
C1526 C 0.56074 0.32594 0.10821 0.0
C1527 C 0.57638 0.3127 0.1051 0.0
H1528 H 0.52935 0.32916 0.11302 0.0
H1529 H 0.68013 0.1988 0.08686 0.0
H1530 H 0.75114 0.64602 0.1821 0.0
H1531 H 0.7552 0.61993 0.15406 0.0
H1532 H 0.79604 0.65652 0.11667 0.0
H1533 H 0.79097 0.68328 0.14377 0.0
H1534 H 0.77354 0.63883 0.08823 0.0
H1535 H 0.81162 0.61676 0.15092 0.0
H1536 H 0.81893 0.60854 0.19074 0.0
H1537 H 0.77377 0.56391 0.18997 0.0
H1538 H 0.766 0.57205 0.15022 0.0
H1539 H 0.80328 0.55378 0.02176 0.0
H1540 H 0.80633 0.58047 0.04994 0.0
H1541 H 0.75305 0.56026 0.08274 0.0
H1542 H 0.74964 0.53407 0.0545 0.0
H1543 H 0.78667 0.56989 0.11274 0.0
H1544 H 0.7474 0.59576 0.05006 0.0
H1545 H 0.74204 0.60399 0.00982 0.0
H1546 H 0.79314 0.64166 0.01057 0.0
H1547 H 0.79898 0.63339 0.05076 0.0
C1548 C 0.76076 0.64871 0.16776 0.0
C1549 C 0.77077 0.66683 0.16534 0.0
C1550 C 0.76333 0.63359 0.15188 0.0
C1551 C 0.77629 0.63604 0.13347 0.0
C1552 C 0.78609 0.65418 0.13081 0.0
C1553 C 0.78332 0.66942 0.14651 0.0
C1554 C 0.77928 0.61978 0.11681 0.0
C1555 C 0.7768 0.62385 0.09363 0.0
C1556 C 0.78347 0.60015 0.12372 0.0
C1557 C 0.78813 0.59513 0.14762 0.0
C1558 C 0.80316 0.60529 0.15928 0.0
C1559 C 0.80739 0.60063 0.18184 0.0
C1560 C 0.79679 0.58574 0.19289 0.0
C1561 C 0.78196 0.57545 0.18139 0.0
C1562 C 0.77765 0.58006 0.15883 0.0
C1563 C 0.79237 0.55496 0.03514 0.0
C1564 C 0.77617 0.54197 0.03591 0.0
C1565 C 0.7941 0.57018 0.05114 0.0
C1566 C 0.77988 0.57229 0.06833 0.0
C1567 C 0.76417 0.55883 0.06961 0.0
C1568 C 0.7622 0.54396 0.05341 0.0
C1569 C 0.7806 0.58901 0.08447 0.0
C1570 C 0.78375 0.58498 0.10748 0.0
C1571 C 0.77737 0.6087 0.07739 0.0
C1572 C 0.77378 0.61375 0.05331 0.0
C1573 C 0.75761 0.60564 0.04158 0.0
C1574 C 0.75446 0.61034 0.01879 0.0
C1575 C 0.76728 0.62329 0.00762 0.0
C1576 C 0.78325 0.6316 0.01923 0.0
C1577 C 0.78648 0.62691 0.04201 0.0
H1578 H 0.76481 0.62692 0.98998 0.0
H1579 H 0.8001 0.58215 0.21036 0.0
H1580 H 0.30739 0.79283 0.14791 0.0
H1581 H 0.33728 0.79655 0.12529 0.0
H1582 H 0.36537 0.75018 0.16379 0.0
H1583 H 0.33609 0.74742 0.18764 0.0
H1584 H 0.39074 0.77768 0.15741 0.0
H1585 H 0.34601 0.74343 0.10835 0.0
H1586 H 0.31498 0.73755 0.08751 0.0
H1587 H 0.32316 0.79171 0.05072 0.0
H1588 H 0.35413 0.79805 0.07157 0.0
H1589 H 0.46337 0.74864 0.07566 0.0
H1590 H 0.43454 0.75039 0.10064 0.0
H1591 H 0.41948 0.80737 0.07284 0.0
H1592 H 0.44865 0.80593 0.04805 0.0
H1593 H 0.38792 0.77689 0.07341 0.0
H1594 H 0.43503 0.80873 0.12236 0.0
H1595 H 0.46679 0.8117 0.14254 0.0
H1596 H 0.4546 0.75805 0.17885 0.0
H1597 H 0.42287 0.7546 0.15862 0.0
C1598 C 0.31998 0.78357 0.15183 0.0
C1599 C 0.31918 0.76978 0.16969 0.0
C1600 C 0.33703 0.78553 0.1386 0.0
C1601 C 0.35355 0.77343 0.14253 0.0
C1602 C 0.35283 0.75967 0.16033 0.0
C1603 C 0.3359 0.75791 0.1738 0.0
C1604 C 0.37166 0.77521 0.12828 0.0
C1605 C 0.39007 0.77729 0.13905 0.0
C1606 C 0.3709 0.77508 0.10426 0.0
C1607 C 0.35228 0.77132 0.0917 0.0
C1608 C 0.34111 0.75417 0.09595 0.0
C1609 C 0.32355 0.75074 0.08411 0.0
C1610 C 0.31707 0.76428 0.06785 0.0
C1611 C 0.32818 0.78125 0.06335 0.0
C1612 C 0.34575 0.78477 0.07516 0.0
C1613 C 0.45406 0.76166 0.07505 0.0
C1614 C 0.45826 0.77716 0.05992 0.0
C1615 C 0.43763 0.76264 0.08934 0.0
C1616 C 0.42493 0.779 0.08855 0.0
C1617 C 0.42916 0.79464 0.07368 0.0
C1618 C 0.44586 0.79384 0.05965 0.0
C1619 C 0.40678 0.77922 0.10262 0.0
C1620 C 0.38843 0.77744 0.09178 0.0
C1621 C 0.40763 0.77922 0.12654 0.0
C1622 C 0.42665 0.78132 0.13882 0.0
C1623 C 0.43919 0.79747 0.1345 0.0
C1624 C 0.45718 0.79926 0.14598 0.0
C1625 C 0.46273 0.78505 0.16193 0.0
C1626 C 0.45028 0.76904 0.16648 0.0
C1627 C 0.43229 0.76717 0.15503 0.0
H1628 H 0.47666 0.78646 0.1708 0.0
H1629 H 0.30348 0.76159 0.0587 0.0
H1630 H 0.28305 0.34112 0.19292 0.0
H1631 H 0.28336 0.3694 0.16755 0.0
H1632 H 0.23528 0.34401 0.12933 0.0
H1633 H 0.23606 0.31477 0.15342 0.0
H1634 H 0.2592 0.35908 0.10127 0.0
H1635 H 0.22963 0.38374 0.16904 0.0
H1636 H 0.22655 0.39069 0.20991 0.0
H1637 H 0.27943 0.42578 0.20766 0.0
H1638 H 0.28297 0.41883 0.16681 0.0
H1639 H 0.22721 0.44908 0.0498 0.0
H1640 H 0.22903 0.42069 0.07534 0.0
H1641 H 0.28817 0.43743 0.09459 0.0
H1642 H 0.28667 0.46578 0.06861 0.0
H1643 H 0.25934 0.42741 0.13187 0.0
H1644 H 0.28658 0.40224 0.06165 0.0
H1645 H 0.28603 0.39617 0.02046 0.0
H1646 H 0.23245 0.36266 0.02756 0.0
H1647 H 0.23252 0.36881 0.06878 0.0
C1648 C 0.27273 0.34128 0.17891 0.0
C1649 C 0.25954 0.32547 0.17533 0.0
C1650 C 0.2727 0.35773 0.16459 0.0
C1651 C 0.25908 0.35913 0.14672 0.0
C1652 C 0.2459 0.34339 0.14305 0.0
C1653 C 0.24619 0.32673 0.15709 0.0
C1654 C 0.25877 0.37682 0.13166 0.0
C1655 C 0.25899 0.37398 0.10806 0.0
C1656 C 0.25875 0.39638 0.14035 0.0
C1657 C 0.25668 0.40059 0.16491 0.0
C1658 C 0.24069 0.39281 0.17729 0.0
C1659 C 0.23884 0.39678 0.20045 0.0
C1660 C 0.25281 0.40862 0.21139 0.0
C1661 C 0.26863 0.41658 0.19917 0.0
C1662 C 0.27056 0.41265 0.17601 0.0
C1663 C 0.2406 0.44681 0.05952 0.0
C1664 C 0.25682 0.45968 0.0572 0.0
C1665 C 0.24161 0.43054 0.07404 0.0
C1666 C 0.25874 0.42698 0.08673 0.0
C1667 C 0.27483 0.43998 0.08487 0.0
C1668 C 0.27397 0.4561 0.07001 0.0
C1669 C 0.25978 0.4095 0.10178 0.0
C1670 C 0.25964 0.41244 0.12528 0.0
C1671 C 0.25939 0.39006 0.09303 0.0
C1672 C 0.25946 0.38616 0.06828 0.0
C1673 C 0.27459 0.39373 0.05441 0.0
C1674 C 0.27438 0.39024 0.03106 0.0
C1675 C 0.25919 0.37908 0.02139 0.0
C1676 C 0.2442 0.37133 0.03507 0.0
C1677 C 0.24433 0.37479 0.05843 0.0
H1678 H 0.25904 0.37641 0.0033 0.0
H1679 H 0.25136 0.41168 0.22931 0.0
H1680 H 0.32371 0.20939 0.15171 0.0
H1681 H 0.3499 0.20573 0.12314 0.0
H1682 H 0.37996 0.25653 0.15074 0.0
H1683 H 0.35401 0.26005 0.17954 0.0
H1684 H 0.37422 0.25606 0.10144 0.0
H1685 H 0.39828 0.21522 0.16312 0.0
H1686 H 0.39553 0.1882 0.19099 0.0
H1687 H 0.38752 0.14628 0.13712 0.0
H1688 H 0.38993 0.17313 0.10893 0.0
H1689 H 0.46664 0.25609 0.04998 0.0
H1690 H 0.44013 0.25529 0.0779 0.0
H1691 H 0.42401 0.19662 0.05593 0.0
H1692 H 0.45118 0.19708 0.02829 0.0
H1693 H 0.4205 0.19912 0.10034 0.0
H1694 H 0.39771 0.23766 0.03843 0.0
H1695 H 0.39887 0.26357 0.00908 0.0
H1696 H 0.40172 0.30832 0.06058 0.0
H1697 H 0.40089 0.28265 0.09026 0.0
C1698 C 0.33591 0.21976 0.15161 0.0
C1699 C 0.3369 0.23499 0.16779 0.0
C1700 C 0.35086 0.21761 0.1354 0.0
C1701 C 0.36684 0.23083 0.13493 0.0
C1702 C 0.36773 0.24618 0.15089 0.0
C1703 C 0.35299 0.24812 0.16734 0.0
C1704 C 0.38259 0.22885 0.11765 0.0
C1705 C 0.38449 0.24374 0.10129 0.0
C1706 C 0.39541 0.21235 0.11701 0.0
C1707 C 0.39405 0.19621 0.13394 0.0
C1708 C 0.39574 0.20027 0.15723 0.0
C1709 C 0.39428 0.18498 0.17308 0.0
C1710 C 0.39129 0.16554 0.16584 0.0
C1711 C 0.3898 0.16135 0.14271 0.0
C1712 C 0.39123 0.17659 0.12679 0.0
C1713 C 0.45754 0.24295 0.05114 0.0
C1714 C 0.46085 0.22672 0.03676 0.0
C1715 C 0.44231 0.24255 0.06706 0.0
C1716 C 0.42971 0.22611 0.06862 0.0
C1717 C 0.43344 0.20953 0.05491 0.0
C1718 C 0.44895 0.2098 0.03913 0.0
C1719 C 0.41249 0.22661 0.0843 0.0
C1720 C 0.41021 0.21142 0.10032 0.0
C1721 C 0.39903 0.24267 0.08437 0.0
C1722 C 0.3994 0.2582 0.06658 0.0
C1723 C 0.39872 0.25302 0.0435 0.0
C1724 C 0.3993 0.26766 0.0268 0.0
C1725 C 0.40041 0.28758 0.03296 0.0
C1726 C 0.40088 0.29289 0.05584 0.0
C1727 C 0.40034 0.27829 0.07261 0.0
H1728 H 0.40086 0.29889 0.02 0.0
H1729 H 0.39017 0.15372 0.17814 0.0
H1730 H 0.76239 0.35782 0.18704 0.0
H1731 H 0.76051 0.38457 0.15924 0.0
H1732 H 0.71268 0.35444 0.12533 0.0
H1733 H 0.71479 0.32748 0.15287 0.0
H1734 H 0.73756 0.36793 0.09519 0.0
H1735 H 0.70481 0.39564 0.15957 0.0
H1736 H 0.70074 0.40526 0.1996 0.0
H1737 H 0.75121 0.44354 0.19462 0.0
H1738 H 0.75576 0.43393 0.15463 0.0
H1739 H 0.70972 0.4529 0.02918 0.0
H1740 H 0.70764 0.42721 0.05856 0.0
H1741 H 0.76438 0.44523 0.08463 0.0
H1742 H 0.7668 0.4705 0.05509 0.0
H1743 H 0.73277 0.43827 0.11849 0.0
H1744 H 0.7661 0.40855 0.05445 0.0
H1745 H 0.76925 0.39935 0.01419 0.0
H1746 H 0.71599 0.36502 0.01869 0.0
H1747 H 0.71231 0.37435 0.05892 0.0
C1748 C 0.75139 0.35699 0.17375 0.0
C1749 C 0.73872 0.34059 0.17213 0.0
C1750 C 0.75029 0.3723 0.15788 0.0
C1751 C 0.73625 0.37167 0.14034 0.0
C1752 C 0.72363 0.35526 0.13869 0.0
C1753 C 0.72486 0.33986 0.15441 0.0
C1754 C 0.73498 0.38796 0.12349 0.0
C1755 C 0.73617 0.38327 0.10033 0.0
C1756 C 0.73346 0.40804 0.13012 0.0
C1757 C 0.73072 0.41393 0.15415 0.0
C1758 C 0.71513 0.406 0.16705 0.0
C1759 C 0.71272 0.41147 0.18974 0.0
C1760 C 0.72574 0.42497 0.19967 0.0
C1761 C 0.74116 0.43307 0.18691 0.0
C1762 C 0.74364 0.42763 0.16423 0.0
C1763 C 0.72164 0.45147 0.04133 0.0
C1764 C 0.73846 0.46359 0.03983 0.0
C1765 C 0.72045 0.43681 0.05802 0.0
C1766 C 0.73589 0.43437 0.07366 0.0
C1767 C 0.75233 0.44694 0.07271 0.0
C1768 C 0.75371 0.46128 0.05578 0.0
C1769 C 0.73541 0.41814 0.09044 0.0
C1770 C 0.73395 0.42288 0.11349 0.0
C1771 C 0.73653 0.39812 0.08374 0.0
C1772 C 0.73879 0.39236 0.05961 0.0
C1773 C 0.75494 0.39921 0.0468 0.0
C1774 C 0.75686 0.39394 0.024 0.0
C1775 C 0.74281 0.38165 0.01387 0.0
C1776 C 0.72684 0.37457 0.02655 0.0
C1777 C 0.72483 0.37985 0.04935 0.0
H1778 H 0.74432 0.37758 0.99621 0.0
H1779 H 0.72385 0.42918 0.21723 0.0
H1780 H 0.66514 0.76746 0.18828 0.0
H1781 H 0.63605 0.7657 0.16383 0.0
H1782 H 0.66184 0.71644 0.12796 0.0
H1783 H 0.69121 0.71844 0.15213 0.0
H1784 H 0.64493 0.74022 0.0989 0.0
H1785 H 0.62457 0.71009 0.16814 0.0
H1786 H 0.61964 0.70723 0.20942 0.0
H1787 H 0.58185 0.75822 0.20856 0.0
H1788 H 0.58678 0.76157 0.16732 0.0
H1789 H 0.55248 0.71395 0.0468 0.0
H1790 H 0.58149 0.71167 0.07169 0.0
H1791 H 0.56699 0.76829 0.10085 0.0
H1792 H 0.5383 0.77087 0.07582 0.0
H1793 H 0.57791 0.73792 0.13309 0.0
H1794 H 0.60038 0.76836 0.06346 0.0
H1795 H 0.60511 0.77004 0.02207 0.0
H1796 H 0.63871 0.71621 0.02384 0.0
H1797 H 0.63391 0.71404 0.06524 0.0
C1798 C 0.66458 0.75623 0.17521 0.0
C1799 C 0.6804 0.743 0.17221 0.0
C1800 C 0.64792 0.75519 0.16127 0.0
C1801 C 0.64653 0.74067 0.14432 0.0
C1802 C 0.66251 0.72773 0.14096 0.0
C1803 C 0.6793 0.7289 0.15475 0.0
C1804 C 0.62841 0.73907 0.13013 0.0
C1805 C 0.63032 0.73938 0.10642 0.0
C1806 C 0.60925 0.73817 0.13985 0.0
C1807 C 0.60618 0.73618 0.16466 0.0
C1808 C 0.61532 0.72078 0.17678 0.0
C1809 C 0.61251 0.71906 0.20017 0.0
C1810 C 0.60048 0.73256 0.21161 0.0
C1811 C 0.59119 0.74779 0.19968 0.0
C1812 C 0.59397 0.74959 0.17629 0.0
C1813 C 0.55537 0.72579 0.05871 0.0
C1814 C 0.54317 0.74261 0.05933 0.0
C1815 C 0.57196 0.72451 0.07282 0.0
C1816 C 0.5764 0.73987 0.08799 0.0
C1817 C 0.56381 0.7563 0.08925 0.0
C1818 C 0.54746 0.75775 0.0749 0.0
C1819 C 0.59454 0.73928 0.10205 0.0
C1820 C 0.59258 0.73857 0.12568 0.0
C1821 C 0.61363 0.73959 0.09227 0.0
C1822 C 0.61657 0.7409 0.0674 0.0
C1823 C 0.60861 0.75677 0.055 0.0
C1824 C 0.61133 0.75783 0.03154 0.0
C1825 C 0.62215 0.7432 0.02032 0.0
C1826 C 0.6303 0.72751 0.03255 0.0
C1827 C 0.62759 0.72636 0.05601 0.0
H1828 H 0.62426 0.74406 0.00216 0.0
H1829 H 0.59832 0.7312 0.22972 0.0
H1830 H 0.20618 0.69582 0.14762 0.0
H1831 H 0.20306 0.66711 0.12234 0.0
H1832 H 0.25423 0.6406 0.15353 0.0
H1833 H 0.25724 0.66908 0.179 0.0
H1834 H 0.25372 0.6399 0.10437 0.0
H1835 H 0.21223 0.62435 0.16919 0.0
H1836 H 0.18506 0.63083 0.19606 0.0
H1837 H 0.14358 0.63232 0.14104 0.0
H1838 H 0.17059 0.62613 0.11379 0.0
H1839 H 0.25394 0.54162 0.071 0.0
H1840 H 0.25232 0.57119 0.09449 0.0
H1841 H 0.19499 0.58511 0.06677 0.0
H1842 H 0.19627 0.55502 0.04353 0.0
H1843 H 0.19644 0.59435 0.11104 0.0
H1844 H 0.23604 0.60692 0.04636 0.0
H1845 H 0.26231 0.60011 0.01851 0.0
H1846 H 0.30629 0.60614 0.07048 0.0
H1847 H 0.28022 0.61232 0.09885 0.0
C1848 C 0.21682 0.68391 0.14892 0.0
C1849 C 0.23192 0.6846 0.16526 0.0
C1850 C 0.21498 0.66753 0.13458 0.0
C1851 C 0.22837 0.65174 0.13617 0.0
C1852 C 0.24375 0.65265 0.15207 0.0
C1853 C 0.2454 0.66884 0.16664 0.0
C1854 C 0.22627 0.63406 0.12156 0.0
C1855 C 0.24129 0.62984 0.10592 0.0
C1856 C 0.20968 0.62137 0.12306 0.0
C1857 C 0.19346 0.62502 0.13944 0.0
C1858 C 0.19735 0.62625 0.1628 0.0
C1859 C 0.18197 0.62983 0.1781 0.0
C1860 C 0.16262 0.63205 0.17025 0.0
C1861 C 0.15859 0.63063 0.14709 0.0
C1862 C 0.17392 0.62709 0.13171 0.0
C1863 C 0.24086 0.55083 0.07006 0.0
C1864 C 0.22532 0.54611 0.05522 0.0
C1865 C 0.23999 0.56779 0.08345 0.0
C1866 C 0.22376 0.58065 0.08196 0.0
C1867 C 0.20772 0.57547 0.06806 0.0
C1868 C 0.20847 0.55829 0.0548 0.0
C1869 C 0.22416 0.59986 0.09418 0.0
C1870 C 0.2088 0.60445 0.10929 0.0
C1871 C 0.24031 0.61309 0.09192 0.0
C1872 C 0.25613 0.60993 0.0748 0.0
C1873 C 0.2513 0.60667 0.0519 0.0
C1874 C 0.26616 0.6029 0.03602 0.0
C1875 C 0.28597 0.60271 0.04272 0.0
C1876 C 0.29094 0.60629 0.06532 0.0
C1877 C 0.27612 0.60989 0.08133 0.0
H1878 H 0.29746 0.59979 0.0304 0.0
H1879 H 0.15073 0.63481 0.18213 0.0
H1880 H 0.32044 0.74181 0.8573 0.0
H1881 H 0.346 0.74145 0.88664 0.0
H1882 H 0.39083 0.73407 0.8352 0.0
H1883 H 0.36516 0.73358 0.80596 0.0
H1884 H 0.40015 0.71231 0.86893 0.0
H1885 H 0.38058 0.77996 0.86155 0.0
H1886 H 0.35743 0.80811 0.86048 0.0
H1887 H 0.34004 0.79626 0.92915 0.0
H1888 H 0.36291 0.76786 0.93053 0.0
H1889 H 0.4644 0.77366 0.95406 0.0
H1890 H 0.43957 0.77101 0.92437 0.0
H1891 H 0.42799 0.71062 0.94394 0.0
H1892 H 0.45349 0.71299 0.97332 0.0
H1893 H 0.40232 0.76624 0.92582 0.0
H1894 H 0.41137 0.68433 0.89859 0.0
H1895 H 0.43755 0.65902 0.89598 0.0
H1896 H 0.48155 0.70452 0.89021 0.0
H1897 H 0.45562 0.73007 0.89249 0.0
C1898 C 0.33577 0.74013 0.85233 0.0
C1899 C 0.34089 0.73786 0.82941 0.0
C1900 C 0.35038 0.73997 0.86907 0.0
C1901 C 0.37043 0.73807 0.86316 0.0
C1902 C 0.37549 0.73553 0.84024 0.0
C1903 C 0.36085 0.73532 0.82354 0.0
C1904 C 0.38615 0.73902 0.88077 0.0
C1905 C 0.4006 0.7241 0.88139 0.0
C1906 C 0.38704 0.75458 0.8968 0.0
C1907 C 0.37331 0.77167 0.89606 0.0
C1908 C 0.37172 0.78328 0.87637 0.0
C1909 C 0.35866 0.79929 0.87572 0.0
C1910 C 0.34723 0.80394 0.89472 0.0
C1911 C 0.34888 0.79262 0.91443 0.0
C1912 C 0.3619 0.77658 0.91517 0.0
C1913 C 0.45665 0.75975 0.95201 0.0
C1914 C 0.46091 0.74352 0.96606 0.0
C1915 C 0.44239 0.75828 0.93504 0.0
C1916 C 0.43191 0.74061 0.93179 0.0
C1917 C 0.4361 0.72433 0.94583 0.0
C1918 C 0.45062 0.72571 0.96267 0.0
C1919 C 0.41635 0.73955 0.914 0.0
C1920 C 0.40186 0.75441 0.91342 0.0
C1921 C 0.41587 0.72435 0.89751 0.0
C1922 C 0.43156 0.70909 0.89599 0.0
C1923 C 0.42662 0.68892 0.89671 0.0
C1924 C 0.44142 0.67453 0.89529 0.0
C1925 C 0.4612 0.68016 0.89302 0.0
C1926 C 0.46623 0.70018 0.89207 0.0
C1927 C 0.45149 0.71462 0.89346 0.0
H1928 H 0.47263 0.669 0.89193 0.0
H1929 H 0.33714 0.81634 0.89418 0.0
H1930 H 0.25803 0.33063 0.85225 0.0
H1931 H 0.25383 0.35661 0.88063 0.0
H1932 H 0.19819 0.37306 0.85021 0.0
H1933 H 0.2027 0.34743 0.82133 0.0
H1934 H 0.21761 0.40478 0.85995 0.0
H1935 H 0.2013 0.3466 0.90152 0.0
H1936 H 0.2057 0.31278 0.91628 0.0
H1937 H 0.25831 0.33091 0.95126 0.0
H1938 H 0.25439 0.36478 0.93645 0.0
H1939 H 0.1959 0.46792 0.9555 0.0
H1940 H 0.19328 0.44079 0.92795 0.0
H1941 H 0.25312 0.42323 0.94312 0.0
H1942 H 0.25589 0.45012 0.97037 0.0
H1943 H 0.22695 0.39158 0.94194 0.0
H1944 H 0.24422 0.44899 0.89672 0.0
H1945 H 0.23917 0.48275 0.88205 0.0
H1946 H 0.18298 0.46556 0.85453 0.0
H1947 H 0.1876 0.43174 0.86932 0.0
C1948 C 0.24485 0.33972 0.85174 0.0
C1949 C 0.23066 0.337 0.83466 0.0
C1950 C 0.24241 0.35451 0.86801 0.0
C1951 C 0.22549 0.36659 0.86786 0.0
C1952 C 0.21133 0.36392 0.85073 0.0
C1953 C 0.21392 0.3493 0.83424 0.0
C1954 C 0.22292 0.38234 0.8852 0.0
C1955 C 0.21927 0.40178 0.87791 0.0
C1956 C 0.22526 0.37856 0.90866 0.0
C1957 C 0.22762 0.35821 0.91771 0.0
C1958 C 0.21388 0.34335 0.91223 0.0
C1959 C 0.21628 0.32417 0.92063 0.0
C1960 C 0.2323 0.31969 0.93466 0.0
C1961 C 0.24592 0.3344 0.94038 0.0
C1962 C 0.2436 0.35359 0.93201 0.0
C1963 C 0.20846 0.45825 0.95296 0.0
C1964 C 0.22613 0.46124 0.96502 0.0
C1965 C 0.20696 0.4428 0.93721 0.0
C1966 C 0.22305 0.43007 0.93348 0.0
C1967 C 0.24053 0.43287 0.94578 0.0
C1968 C 0.24211 0.44834 0.96126 0.0
C1969 C 0.22203 0.4139 0.91658 0.0
C1970 C 0.225 0.39442 0.92398 0.0
C1971 C 0.21889 0.41762 0.89328 0.0
C1972 C 0.21614 0.43792 0.88437 0.0
C1973 C 0.23071 0.45246 0.88772 0.0
C1974 C 0.22794 0.4716 0.87935 0.0
C1975 C 0.21074 0.47632 0.86743 0.0
C1976 C 0.19629 0.46189 0.86381 0.0
C1977 C 0.19897 0.44274 0.87217 0.0
H1978 H 0.20862 0.49114 0.86096 0.0
H1979 H 0.23413 0.30484 0.94114 0.0
H1980 H 0.69428 0.20884 0.85856 0.0
H1981 H 0.66387 0.20588 0.88066 0.0
H1982 H 0.63552 0.24858 0.83734 0.0
H1983 H 0.66547 0.25098 0.81437 0.0
H1984 H 0.63145 0.25539 0.8857 0.0
H1985 H 0.62352 0.20347 0.82993 0.0
H1986 H 0.63396 0.17352 0.80933 0.0
H1987 H 0.63618 0.14116 0.87187 0.0
H1988 H 0.62602 0.17102 0.8929 0.0
H1989 H 0.53408 0.24987 0.92274 0.0
H1990 H 0.56304 0.24859 0.89813 0.0
H1991 H 0.58301 0.19591 0.93247 0.0
H1992 H 0.55337 0.19664 0.9565 0.0
H1993 H 0.59245 0.19332 0.88973 0.0
H1994 H 0.60106 0.24284 0.94616 0.0
H1995 H 0.59235 0.27202 0.96913 0.0
H1996 H 0.59158 0.30807 0.90925 0.0
H1997 H 0.6 0.27903 0.88585 0.0
C1998 C 0.68153 0.21741 0.85343 0.0
C1999 C 0.68244 0.23012 0.83452 0.0
C2000 C 0.66419 0.21577 0.86622 0.0
C2001 C 0.64746 0.22694 0.86055 0.0
C2002 C 0.64832 0.23987 0.842 0.0
C2003 C 0.66555 0.24132 0.82899 0.0
C2004 C 0.62908 0.22534 0.87413 0.0
C2005 C 0.62276 0.24192 0.88637 0.0
C2006 C 0.61823 0.20751 0.87566 0.0
C2007 C 0.62422 0.18953 0.86301 0.0
C2008 C 0.62641 0.19002 0.83931 0.0
C2009 C 0.63224 0.17305 0.82755 0.0
C2010 C 0.63579 0.15546 0.83929 0.0
C2011 C 0.63345 0.1548 0.86281 0.0
C2012 C 0.62765 0.17174 0.87465 0.0
C2013 C 0.54448 0.23782 0.92479 0.0
C2014 C 0.54159 0.22344 0.94163 0.0
C2015 C 0.56112 0.23718 0.91083 0.0
C2016 C 0.57557 0.22251 0.91389 0.0
C2017 C 0.57217 0.20747 0.92989 0.0
C2018 C 0.55523 0.20787 0.94359 0.0
C2019 C 0.59454 0.22352 0.90112 0.0
C2020 C 0.60108 0.20683 0.88911 0.0
C2021 C 0.60589 0.24116 0.9002 0.0
C2022 C 0.601 0.25872 0.91423 0.0
C2023 C 0.59892 0.25696 0.93787 0.0
C2024 C 0.59404 0.27348 0.95097 0.0
C2025 C 0.59137 0.29188 0.94065 0.0
C2026 C 0.59363 0.29381 0.91721 0.0
C2027 C 0.59847 0.27733 0.90402 0.0
H2028 H 0.5876 0.30465 0.95082 0.0
H2029 H 0.6403 0.14234 0.83016 0.0
H2030 H 0.70747 0.68507 0.84152 0.0
H2031 H 0.70628 0.65583 0.86577 0.0
H2032 H 0.7657 0.64063 0.84567 0.0
H2033 H 0.7667 0.66939 0.82063 0.0
H2034 H 0.7429 0.60885 0.84501 0.0
H2035 H 0.7553 0.66126 0.89798 0.0
H2036 H 0.7492 0.6932 0.91688 0.0
H2037 H 0.69232 0.67271 0.93912 0.0
H2038 H 0.69798 0.64071 0.92009 0.0
H2039 H 0.76888 0.54226 0.93241 0.0
H2040 H 0.76606 0.57039 0.90679 0.0
H2041 H 0.70496 0.57779 0.92592 0.0
H2042 H 0.70766 0.5495 0.95179 0.0
H2043 H 0.72627 0.613 0.92678 0.0
H2044 H 0.71528 0.55955 0.87515 0.0
H2045 H 0.72239 0.52761 0.85676 0.0
H2046 H 0.77784 0.55018 0.8325 0.0
H2047 H 0.77119 0.58219 0.85103 0.0
C2048 C 0.72025 0.67544 0.84211 0.0
C2049 C 0.73719 0.67961 0.82909 0.0
C2050 C 0.71962 0.65882 0.85619 0.0
C2051 C 0.73598 0.64612 0.85775 0.0
C2052 C 0.75291 0.65024 0.84479 0.0
C2053 C 0.75353 0.66681 0.83065 0.0
C2054 C 0.73536 0.62834 0.87257 0.0
C2055 C 0.73948 0.60981 0.86294 0.0
C2056 C 0.73039 0.62948 0.89586 0.0
C2057 C 0.72698 0.64867 0.90739 0.0
C2058 C 0.74143 0.66362 0.90675 0.0
C2059 C 0.73806 0.68172 0.91751 0.0
C2060 C 0.72035 0.685 0.92913 0.0
C2061 C 0.70601 0.67016 0.93008 0.0
C2062 C 0.7093 0.65203 0.91932 0.0
C2063 C 0.75477 0.54973 0.93108 0.0
C2064 C 0.73847 0.5436 0.94414 0.0
C2065 C 0.75318 0.56579 0.91635 0.0
C2066 C 0.73528 0.5761 0.91433 0.0
C2067 C 0.71891 0.56999 0.92721 0.0
C2068 C 0.72044 0.55377 0.94188 0.0
C2069 C 0.734 0.59361 0.89923 0.0
C2070 C 0.72954 0.61207 0.90881 0.0
C2071 C 0.73879 0.59243 0.87592 0.0
C2072 C 0.7428 0.57323 0.86464 0.0
C2073 C 0.72906 0.55766 0.86604 0.0
C2074 C 0.73299 0.53955 0.85556 0.0
C2075 C 0.75057 0.53685 0.84351 0.0
C2076 C 0.76423 0.55228 0.84186 0.0
C2077 C 0.76038 0.57043 0.85232 0.0
H2078 H 0.75359 0.52281 0.83541 0.0
H2079 H 0.71777 0.69903 0.93745 0.0
loop_
_geom_bond_atom_site_label_1
_geom_bond_atom_site_label_2
_geom_bond_distance
_geom_bond_site_symmetry_2
_ccdc_geom_bond_type
C0 C1 1.384 . S
C0 C2 1.384 . S
C0 H28 0.931 . S
C1 C0 1.384 . S
C1 C4 1.382 . S
C2 C0 1.384 . S
C2 C3 1.381 . S
C2 H29 0.930 . S
C3 C2 1.381 . S
C3 C5 1.381 . S
C3 C6 1.487 . S
C4 C1 1.382 . S
C4 C5 1.387 . S
C4 H30 0.930 . S
C5 C3 1.381 . S
C5 C4 1.387 . S
C5 H31 0.931 . S
C6 C3 1.487 . S
C6 C13 1.399 . S
C6 N44 1.343 . S
C7 C8 1.384 . S
C7 C9 1.384 . S
C7 H32 0.931 . S
C8 C7 1.384 . S
C8 C11 1.382 . S
C9 C7 1.384 . S
C9 C10 1.381 . S
C9 H33 0.930 . S
C10 C9 1.381 . S
C10 C12 1.381 . S
C10 C13 1.487 . S
C11 C8 1.382 . S
C11 C12 1.387 . S
C11 H34 0.930 . S
C12 C10 1.381 . S
C12 C11 1.387 . S
C12 H35 0.931 . S
C13 C6 1.399 . S
C13 C10 1.487 . S
C13 N45 1.343 . S
C14 C15 1.384 . S
C14 C16 1.384 . S
C14 H36 0.931 . S
C15 C14 1.384 . S
C15 C18 1.382 . S
C16 C14 1.384 . S
C16 C17 1.381 . S
C16 H37 0.930 . S
C17 C16 1.381 . S
C17 C19 1.381 . S
C17 C20 1.487 . S
C18 C15 1.382 . S
C18 C19 1.387 . S
C18 H38 0.930 . S
C19 C17 1.381 . S
C19 C18 1.387 . S
C19 H39 0.931 . S
C20 C17 1.487 . S
C20 C27 1.399 . S
C20 N45 1.343 . S
C21 C22 1.384 . S
C21 C23 1.384 . S
C21 H40 0.931 . S
C22 C21 1.384 . S
C22 C25 1.382 . S
C23 C21 1.384 . S
C23 C24 1.381 . S
C23 H41 0.930 . S
C24 C23 1.381 . S
C24 C26 1.381 . S
C24 C27 1.487 . S
C25 C22 1.382 . S
C25 C26 1.387 . S
C25 H42 0.930 . S
C26 C24 1.381 . S
C26 C25 1.387 . S
C26 H43 0.931 . S
C27 C20 1.399 . S
C27 C24 1.487 . S
C27 N44 1.343 . S
H28 C0 0.931 . S
H29 C2 0.930 . S
H30 C4 0.930 . S
H31 C5 0.931 . S
H32 C7 0.931 . S
H33 C9 0.930 . S
H34 C11 0.930 . S
H35 C12 0.931 . S
H36 C14 0.931 . S
H37 C16 0.930 . S
H38 C18 0.930 . S
H39 C19 0.931 . S
H40 C21 0.931 . S
H41 C23 0.930 . S
H42 C25 0.930 . S
H43 C26 0.931 . S
N44 C6 1.343 . S
N44 C27 1.343 . S
N45 C13 1.343 . S
N45 C20 1.343 . S
C46 C47 1.384 . S
C46 C48 1.384 . S
C46 H74 0.931 . S
C47 C46 1.384 . S
C47 C50 1.382 . S
C48 C46 1.384 . S
C48 C49 1.381 . S
C48 H75 0.930 . S
C49 C48 1.381 . S
C49 C51 1.381 . S
C49 C52 1.487 . S
C50 C47 1.382 . S
C50 C51 1.387 . S
C50 H76 0.930 . S
C51 C49 1.381 . S
C51 C50 1.387 . S
C51 H77 0.931 . S
C52 C49 1.487 . S
C52 C59 1.399 . S
C52 N90 1.343 . S
C53 C54 1.384 . S
C53 C55 1.384 . S
C53 H78 0.931 . S
C54 C53 1.384 . S
C54 C57 1.382 . S
C55 C53 1.384 . S
C55 C56 1.381 . S
C55 H79 0.930 . S
C56 C55 1.381 . S
C56 C58 1.381 . S
C56 C59 1.487 . S
C57 C54 1.382 . S
C57 C58 1.387 . S
C57 H80 0.930 . S
C58 C56 1.381 . S
C58 C57 1.387 . S
C58 H81 0.931 . S
C59 C52 1.399 . S
C59 C56 1.487 . S
C59 N91 1.343 . S
C60 C61 1.384 . S
C60 C62 1.384 . S
C60 H82 0.931 . S
C61 C60 1.384 . S
C61 C64 1.382 . S
C62 C60 1.384 . S
C62 C63 1.381 . S
C62 H83 0.930 . S
C63 C62 1.381 . S
C63 C65 1.381 . S
C63 C66 1.487 . S
C64 C61 1.382 . S
C64 C65 1.387 . S
C64 H84 0.930 . S
C65 C63 1.381 . S
C65 C64 1.387 . S
C65 H85 0.931 . S
C66 C63 1.487 . S
C66 C73 1.399 . S
C66 N91 1.343 . S
C67 C68 1.384 . S
C67 C69 1.384 . S
C67 H86 0.931 . S
C68 C67 1.384 . S
C68 C71 1.382 . S
C69 C67 1.384 . S
C69 C70 1.381 . S
C69 H87 0.930 . S
C70 C69 1.381 . S
C70 C72 1.381 . S
C70 C73 1.487 . S
C71 C68 1.382 . S
C71 C72 1.387 . S
C71 H88 0.930 . S
C72 C70 1.381 . S
C72 C71 1.387 . S
C72 H89 0.931 . S
C73 C66 1.399 . S
C73 C70 1.487 . S
C73 N90 1.343 . S
H74 C46 0.931 . S
H75 C48 0.930 . S
H76 C50 0.930 . S
H77 C51 0.931 . S
H78 C53 0.931 . S
H79 C55 0.930 . S
H80 C57 0.930 . S
H81 C58 0.931 . S
H82 C60 0.931 . S
H83 C62 0.930 . S
H84 C64 0.930 . S
H85 C65 0.931 . S
H86 C67 0.931 . S
H87 C69 0.930 . S
H88 C71 0.930 . S
H89 C72 0.931 . S
N90 C52 1.343 . S
N90 C73 1.343 . S
N91 C59 1.343 . S
N91 C66 1.343 . S
C92 C93 1.384 . S
C92 C94 1.384 . S
C92 H120 0.931 . S
C93 C92 1.384 . S
C93 C96 1.382 . S
C94 C92 1.384 . S
C94 C95 1.381 . S
C94 H121 0.930 . S
C95 C94 1.381 . S
C95 C97 1.381 . S
C95 C98 1.487 . S
C96 C93 1.382 . S
C96 C97 1.387 . S
C96 H122 0.930 . S
C97 C95 1.381 . S
C97 C96 1.387 . S
C97 H123 0.931 . S
C98 C95 1.487 . S
C98 C105 1.399 . S
C98 N136 1.343 . S
C99 C100 1.384 . S
C99 C101 1.384 . S
C99 H124 0.931 . S
C100 C99 1.384 . S
C100 C103 1.382 . S
C101 C99 1.384 . S
C101 C102 1.381 . S
C101 H125 0.930 . S
C102 C101 1.381 . S
C102 C104 1.381 . S
C102 C105 1.487 . S
C103 C100 1.382 . S
C103 C104 1.387 . S
C103 H126 0.930 . S
C104 C102 1.381 . S
C104 C103 1.387 . S
C104 H127 0.931 . S
C105 C98 1.399 . S
C105 C102 1.487 . S
C105 N137 1.343 . S
C106 C107 1.384 . S
C106 C108 1.384 . S
C106 H128 0.931 . S
C107 C106 1.384 . S
C107 C110 1.382 . S
C108 C106 1.384 . S
C108 C109 1.381 . S
C108 H129 0.930 . S
C109 C108 1.381 . S
C109 C111 1.381 . S
C109 C112 1.487 . S
C110 C107 1.382 . S
C110 C111 1.387 . S
C110 H130 0.930 . S
C111 C109 1.381 . S
C111 C110 1.387 . S
C111 H131 0.931 . S
C112 C109 1.487 . S
C112 C119 1.399 . S
C112 N137 1.343 . S
C113 C114 1.384 . S
C113 C115 1.384 . S
C113 H132 0.931 . S
C114 C113 1.384 . S
C114 C117 1.382 . S
C115 C113 1.384 . S
C115 C116 1.381 . S
C115 H133 0.930 . S
C116 C115 1.381 . S
C116 C118 1.381 . S
C116 C119 1.487 . S
C117 C114 1.382 . S
C117 C118 1.387 . S
C117 H134 0.930 . S
C118 C116 1.381 . S
C118 C117 1.387 . S
C118 H135 0.931 . S
C119 C112 1.399 . S
C119 C116 1.487 . S
C119 N136 1.343 . S
H120 C92 0.931 . S
H121 C94 0.930 . S
H122 C96 0.930 . S
H123 C97 0.931 . S
H124 C99 0.931 . S
H125 C101 0.930 . S
H126 C103 0.930 . S
H127 C104 0.931 . S
H128 C106 0.931 . S
H129 C108 0.930 . S
H130 C110 0.930 . S
H131 C111 0.931 . S
H132 C113 0.931 . S
H133 C115 0.930 . S
H134 C117 0.930 . S
H135 C118 0.931 . S
N136 C98 1.343 . S
N136 C119 1.343 . S
N137 C105 1.343 . S
N137 C112 1.343 . S
C138 C139 1.384 . S
C138 C140 1.384 . S
C138 H166 0.931 . S
C139 C138 1.384 . S
C139 C142 1.382 . S
C140 C138 1.384 . S
C140 C141 1.381 . S
C140 H167 0.930 . S
C141 C140 1.381 . S
C141 C143 1.381 . S
C141 C144 1.487 . S
C142 C139 1.382 . S
C142 C143 1.387 . S
C142 H168 0.930 . S
C143 C141 1.381 . S
C143 C142 1.387 . S
C143 H169 0.931 . S
C144 C141 1.487 . S
C144 C151 1.399 . S
C144 N182 1.343 . S
C145 C146 1.384 . S
C145 C147 1.384 . S
C145 H170 0.931 . S
C146 C145 1.384 . S
C146 C149 1.382 . S
C147 C145 1.384 . S
C147 C148 1.381 . S
C147 H171 0.930 . S
C148 C147 1.381 . S
C148 C150 1.381 . S
C148 C151 1.487 . S
C149 C146 1.382 . S
C149 C150 1.387 . S
C149 H172 0.930 . S
C150 C148 1.381 . S
C150 C149 1.387 . S
C150 H173 0.931 . S
C151 C144 1.399 . S
C151 C148 1.487 . S
C151 N183 1.343 . S
C152 C153 1.384 . S
C152 C154 1.384 . S
C152 H174 0.931 . S
C153 C152 1.384 . S
C153 C156 1.382 . S
C154 C152 1.384 . S
C154 C155 1.381 . S
C154 H175 0.930 . S
C155 C154 1.381 . S
C155 C157 1.381 . S
C155 C158 1.487 . S
C156 C153 1.382 . S
C156 C157 1.387 . S
C156 H176 0.930 . S
C157 C155 1.381 . S
C157 C156 1.387 . S
C157 H177 0.931 . S
C158 C155 1.487 . S
C158 C165 1.399 . S
C158 N183 1.343 . S
C159 C160 1.384 . S
C159 C161 1.384 . S
C159 H178 0.931 . S
C160 C159 1.384 . S
C160 C163 1.382 . S
C161 C159 1.384 . S
C161 C162 1.381 . S
C161 H179 0.930 . S
C162 C161 1.381 . S
C162 C164 1.381 . S
C162 C165 1.487 . S
C163 C160 1.382 . S
C163 C164 1.387 . S
C163 H180 0.930 . S
C164 C162 1.381 . S
C164 C163 1.387 . S
C164 H181 0.931 . S
C165 C158 1.399 . S
C165 C162 1.487 . S
C165 N182 1.343 . S
H166 C138 0.931 . S
H167 C140 0.930 . S
H168 C142 0.930 . S
H169 C143 0.931 . S
H170 C145 0.931 . S
H171 C147 0.930 . S
H172 C149 0.930 . S
H173 C150 0.931 . S
H174 C152 0.931 . S
H175 C154 0.930 . S
H176 C156 0.930 . S
H177 C157 0.931 . S
H178 C159 0.931 . S
H179 C161 0.930 . S
H180 C163 0.930 . S
H181 C164 0.931 . S
N182 C144 1.343 . S
N182 C165 1.343 . S
N183 C151 1.343 . S
N183 C158 1.343 . S
C184 C185 1.384 . S
C184 C186 1.384 . S
C184 H212 0.931 . S
C185 C184 1.384 . S
C185 C188 1.382 . S
C186 C184 1.384 . S
C186 C187 1.381 . S
C186 H213 0.930 . S
C187 C186 1.381 . S
C187 C189 1.381 . S
C187 C190 1.487 . S
C188 C185 1.382 . S
C188 C189 1.387 . S
C188 H214 0.930 . S
C189 C187 1.381 . S
C189 C188 1.387 . S
C189 H215 0.931 . S
C190 C187 1.487 . S
C190 C197 1.399 . S
C190 N228 1.343 . S
C191 C192 1.384 . S
C191 C193 1.384 . S
C191 H216 0.931 . S
C192 C191 1.384 . S
C192 C195 1.382 . S
C193 C191 1.384 . S
C193 C194 1.381 . S
C193 H217 0.930 . S
C194 C193 1.381 . S
C194 C196 1.381 . S
C194 C197 1.487 . S
C195 C192 1.382 . S
C195 C196 1.387 . S
C195 H218 0.930 . S
C196 C194 1.381 . S
C196 C195 1.387 . S
C196 H219 0.931 . S
C197 C190 1.399 . S
C197 C194 1.487 . S
C197 N229 1.343 . S
C198 C199 1.384 . S
C198 C200 1.384 . S
C198 H220 0.931 . S
C199 C198 1.384 . S
C199 C202 1.382 . S
C200 C198 1.384 . S
C200 C201 1.381 . S
C200 H221 0.930 . S
C201 C200 1.381 . S
C201 C203 1.381 . S
C201 C204 1.487 . S
C202 C199 1.382 . S
C202 C203 1.387 . S
C202 H222 0.930 . S
C203 C201 1.381 . S
C203 C202 1.387 . S
C203 H223 0.931 . S
C204 C201 1.487 . S
C204 C211 1.399 . S
C204 N229 1.343 . S
C205 C206 1.384 . S
C205 C207 1.384 . S
C205 H224 0.931 . S
C206 C205 1.384 . S
C206 C209 1.382 . S
C207 C205 1.384 . S
C207 C208 1.381 . S
C207 H225 0.930 . S
C208 C207 1.381 . S
C208 C210 1.381 . S
C208 C211 1.487 . S
C209 C206 1.382 . S
C209 C210 1.387 . S
C209 H226 0.930 . S
C210 C208 1.381 . S
C210 C209 1.387 . S
C210 H227 0.931 . S
C211 C204 1.399 . S
C211 C208 1.487 . S
C211 N228 1.343 . S
H212 C184 0.931 . S
H213 C186 0.930 . S
H214 C188 0.930 . S
H215 C189 0.931 . S
H216 C191 0.931 . S
H217 C193 0.930 . S
H218 C195 0.930 . S
H219 C196 0.931 . S
H220 C198 0.931 . S
H221 C200 0.930 . S
H222 C202 0.930 . S
H223 C203 0.931 . S
H224 C205 0.931 . S
H225 C207 0.930 . S
H226 C209 0.930 . S
H227 C210 0.931 . S
N228 C190 1.343 . S
N228 C211 1.343 . S
N229 C197 1.343 . S
N229 C204 1.343 . S
C230 C231 1.384 . S
C230 C232 1.384 . S
C230 H258 0.931 . S
C231 C230 1.384 . S
C231 C234 1.382 . S
C232 C230 1.384 . S
C232 C233 1.381 . S
C232 H259 0.930 . S
C233 C232 1.381 . S
C233 C235 1.381 . S
C233 C236 1.487 . S
C234 C231 1.382 . S
C234 C235 1.387 . S
C234 H260 0.930 . S
C235 C233 1.381 . S
C235 C234 1.387 . S
C235 H261 0.931 . S
C236 C233 1.487 . S
C236 C243 1.399 . S
C236 N274 1.343 . S
C237 C238 1.384 . S
C237 C239 1.384 . S
C237 H262 0.931 . S
C238 C237 1.384 . S
C238 C241 1.382 . S
C239 C237 1.384 . S
C239 C240 1.381 . S
C239 H263 0.930 . S
C240 C239 1.381 . S
C240 C242 1.381 . S
C240 C243 1.487 . S
C241 C238 1.382 . S
C241 C242 1.387 . S
C241 H264 0.930 . S
C242 C240 1.381 . S
C242 C241 1.387 . S
C242 H265 0.931 . S
C243 C236 1.399 . S
C243 C240 1.487 . S
C243 N275 1.343 . S
C244 C245 1.384 . S
C244 C246 1.384 . S
C244 H266 0.931 . S
C245 C244 1.384 . S
C245 C248 1.382 . S
C246 C244 1.384 . S
C246 C247 1.381 . S
C246 H267 0.930 . S
C247 C246 1.381 . S
C247 C249 1.381 . S
C247 C250 1.487 . S
C248 C245 1.382 . S
C248 C249 1.387 . S
C248 H268 0.930 . S
C249 C247 1.381 . S
C249 C248 1.387 . S
C249 H269 0.931 . S
C250 C247 1.487 . S
C250 C257 1.399 . S
C250 N275 1.343 . S
C251 C252 1.384 . S
C251 C253 1.384 . S
C251 H270 0.931 . S
C252 C251 1.384 . S
C252 C255 1.382 . S
C253 C251 1.384 . S
C253 C254 1.381 . S
C253 H271 0.930 . S
C254 C253 1.381 . S
C254 C256 1.381 . S
C254 C257 1.487 . S
C255 C252 1.382 . S
C255 C256 1.387 . S
C255 H272 0.930 . S
C256 C254 1.381 . S
C256 C255 1.387 . S
C256 H273 0.931 . S
C257 C250 1.399 . S
C257 C254 1.487 . S
C257 N274 1.343 . S
H258 C230 0.931 . S
H259 C232 0.930 . S
H260 C234 0.930 . S
H261 C235 0.931 . S
H262 C237 0.931 . S
H263 C239 0.930 . S
H264 C241 0.930 . S
H265 C242 0.931 . S
H266 C244 0.931 . S
H267 C246 0.930 . S
H268 C248 0.930 . S
H269 C249 0.931 . S
H270 C251 0.931 . S
H271 C253 0.930 . S
H272 C255 0.930 . S
H273 C256 0.931 . S
N274 C236 1.343 . S
N274 C257 1.343 . S
N275 C243 1.343 . S
N275 C250 1.343 . S
C276 C277 1.384 . S
C276 C278 1.384 . S
C276 H304 0.931 . S
C277 C276 1.384 . S
C277 C280 1.382 . S
C278 C276 1.384 . S
C278 C279 1.381 . S
C278 H305 0.930 . S
C279 C278 1.381 . S
C279 C281 1.381 . S
C279 C282 1.487 . S
C280 C277 1.382 . S
C280 C281 1.387 . S
C280 H306 0.930 . S
C281 C279 1.381 . S
C281 C280 1.387 . S
C281 H307 0.931 . S
C282 C279 1.487 . S
C282 C289 1.399 . S
C282 N320 1.343 . S
C283 C284 1.384 . S
C283 C285 1.384 . S
C283 H308 0.931 . S
C284 C283 1.384 . S
C284 C287 1.382 . S
C285 C283 1.384 . S
C285 C286 1.381 . S
C285 H309 0.930 . S
C286 C285 1.381 . S
C286 C288 1.381 . S
C286 C289 1.487 . S
C287 C284 1.382 . S
C287 C288 1.387 . S
C287 H310 0.930 . S
C288 C286 1.381 . S
C288 C287 1.387 . S
C288 H311 0.931 . S
C289 C282 1.399 . S
C289 C286 1.487 . S
C289 N321 1.343 . S
C290 C291 1.384 . S
C290 C292 1.384 . S
C290 H312 0.931 . S
C291 C290 1.384 . S
C291 C294 1.382 . S
C292 C290 1.384 . S
C292 C293 1.381 . S
C292 H313 0.930 . S
C293 C292 1.381 . S
C293 C295 1.381 . S
C293 C296 1.487 . S
C294 C291 1.382 . S
C294 C295 1.387 . S
C294 H314 0.930 . S
C295 C293 1.381 . S
C295 C294 1.387 . S
C295 H315 0.931 . S
C296 C293 1.487 . S
C296 C303 1.399 . S
C296 N321 1.343 . S
C297 C298 1.384 . S
C297 C299 1.384 . S
C297 H316 0.931 . S
C298 C297 1.384 . S
C298 C301 1.382 . S
C299 C297 1.384 . S
C299 C300 1.381 . S
C299 H317 0.930 . S
C300 C299 1.381 . S
C300 C302 1.381 . S
C300 C303 1.487 . S
C301 C298 1.382 . S
C301 C302 1.387 . S
C301 H318 0.930 . S
C302 C300 1.381 . S
C302 C301 1.387 . S
C302 H319 0.931 . S
C303 C296 1.399 . S
C303 C300 1.487 . S
C303 N320 1.343 . S
H304 C276 0.931 . S
H305 C278 0.930 . S
H306 C280 0.930 . S
H307 C281 0.931 . S
H308 C283 0.931 . S
H309 C285 0.930 . S
H310 C287 0.930 . S
H311 C288 0.931 . S
H312 C290 0.931 . S
H313 C292 0.930 . S
H314 C294 0.930 . S
H315 C295 0.931 . S
H316 C297 0.931 . S
H317 C299 0.930 . S
H318 C301 0.930 . S
H319 C302 0.931 . S
N320 C282 1.343 . S
N320 C303 1.343 . S
N321 C289 1.343 . S
N321 C296 1.343 . S
C322 C323 1.384 . S
C322 C324 1.384 . S
C322 H350 0.931 . S
C323 C322 1.384 . S
C323 C326 1.382 . S
C324 C322 1.384 . S
C324 C325 1.381 . S
C324 H351 0.930 . S
C325 C324 1.381 . S
C325 C327 1.381 . S
C325 C328 1.487 . S
C326 C323 1.382 . S
C326 C327 1.387 . S
C326 H352 0.930 . S
C327 C325 1.381 . S
C327 C326 1.387 . S
C327 H353 0.931 . S
C328 C325 1.487 . S
C328 C335 1.399 . S
C328 N366 1.343 . S
C329 C330 1.384 . S
C329 C331 1.384 . S
C329 H354 0.931 . S
C330 C329 1.384 . S
C330 C333 1.382 . S
C331 C329 1.384 . S
C331 C332 1.381 . S
C331 H355 0.930 . S
C332 C331 1.381 . S
C332 C334 1.381 . S
C332 C335 1.487 . S
C333 C330 1.382 . S
C333 C334 1.387 . S
C333 H356 0.930 . S
C334 C332 1.381 . S
C334 C333 1.387 . S
C334 H357 0.931 . S
C335 C328 1.399 . S
C335 C332 1.487 . S
C335 N367 1.343 . S
C336 C337 1.384 . S
C336 C338 1.384 . S
C336 H358 0.931 . S
C337 C336 1.384 . S
C337 C340 1.382 . S
C338 C336 1.384 . S
C338 C339 1.381 . S
C338 H359 0.930 . S
C339 C338 1.381 . S
C339 C341 1.381 . S
C339 C342 1.487 . S
C340 C337 1.382 . S
C340 C341 1.387 . S
C340 H360 0.930 . S
C341 C339 1.381 . S
C341 C340 1.387 . S
C341 H361 0.931 . S
C342 C339 1.487 . S
C342 C349 1.399 . S
C342 N367 1.343 . S
C343 C344 1.384 . S
C343 C345 1.384 . S
C343 H362 0.931 . S
C344 C343 1.384 . S
C344 C347 1.382 . S
C345 C343 1.384 . S
C345 C346 1.381 . S
C345 H363 0.930 . S
C346 C345 1.381 . S
C346 C348 1.381 . S
C346 C349 1.487 . S
C347 C344 1.382 . S
C347 C348 1.387 . S
C347 H364 0.930 . S
C348 C346 1.381 . S
C348 C347 1.387 . S
C348 H365 0.931 . S
C349 C342 1.399 . S
C349 C346 1.487 . S
C349 N366 1.343 . S
H350 C322 0.931 . S
H351 C324 0.930 . S
H352 C326 0.930 . S
H353 C327 0.931 . S
H354 C329 0.931 . S
H355 C331 0.930 . S
H356 C333 0.930 . S
H357 C334 0.931 . S
H358 C336 0.931 . S
H359 C338 0.930 . S
H360 C340 0.930 . S
H361 C341 0.931 . S
H362 C343 0.931 . S
H363 C345 0.930 . S
H364 C347 0.930 . S
H365 C348 0.931 . S
N366 C328 1.343 . S
N366 C349 1.343 . S
N367 C335 1.343 . S
N367 C342 1.343 . S
C368 O370 1.247 . S
C368 O372 1.258 . S
C369 O376 1.247 . S
C369 O377 1.258 . S
O370 C368 1.247 . S
O370 Zn371 2.026 . S
Zn371 O370 2.026 . S
Zn371 O375 2.037 1_655 S
Zn371 O377 2.037 1_655 S
Zn371 O378 2.026 . S
O372 C368 1.258 . S
O372 Zn373 2.028 1_655 S
Zn373 O372 2.028 1_455 S
Zn373 O374 2.035 . S
Zn373 O376 2.035 . S
Zn373 O379 2.028 1_455 S
O374 Zn373 2.035 . S
O374 C380 1.247 . S
O375 Zn371 2.037 1_455 S
O375 C380 1.258 . S
O376 C369 1.247 . S
O376 Zn373 2.035 . S
O377 C369 1.258 . S
O377 Zn371 2.037 1_455 S
O378 Zn371 2.026 . S
O378 C381 1.247 . S
O379 Zn373 2.028 1_655 S
O379 C381 1.258 . S
C380 O374 1.247 . S
C380 O375 1.258 . S
C381 O378 1.247 . S
C381 O379 1.258 . S
C382 O384 1.247 . S
C382 O386 1.258 . S
C383 O390 1.247 . S
C383 O391 1.258 . S
O384 C382 1.247 . S
O384 Zn385 2.035 . S
Zn385 O384 2.035 . S
Zn385 O389 2.028 1_545 S
Zn385 O391 2.028 1_545 S
Zn385 O392 2.035 . S
O386 C382 1.258 . S
O386 Zn387 2.037 1_545 S
Zn387 O386 2.037 1_565 S
Zn387 O388 2.026 . S
Zn387 O390 2.026 . S
Zn387 O393 2.037 1_565 S
O388 Zn387 2.026 . S
O388 C394 1.247 . S
O389 Zn385 2.028 1_565 S
O389 C394 1.258 . S
O390 C383 1.247 . S
O390 Zn387 2.026 . S
O391 C383 1.258 . S
O391 Zn385 2.028 1_565 S
O392 Zn385 2.035 . S
O392 C395 1.247 . S
O393 Zn387 2.037 1_545 S
O393 C395 1.258 . S
C394 O388 1.247 . S
C394 O389 1.258 . S
C395 O392 1.247 . S
C395 O393 1.258 . S
C396 O398 1.247 . S
C396 O400 1.258 . S
C397 O404 1.247 . S
C397 O405 1.258 . S
O398 C396 1.247 . S
O398 Zn399 2.026 . S
Zn399 O398 2.026 . S
Zn399 O403 2.037 1_655 S
Zn399 O405 2.037 1_655 S
Zn399 O406 2.026 . S
O400 C396 1.258 . S
O400 Zn401 2.028 1_655 S
Zn401 O400 2.028 1_455 S
Zn401 O402 2.035 . S
Zn401 O404 2.035 . S
Zn401 O407 2.028 1_455 S
O402 Zn401 2.035 . S
O402 C408 1.247 . S
O403 Zn399 2.037 1_455 S
O403 C408 1.258 . S
O404 C397 1.247 . S
O404 Zn401 2.035 . S
O405 C397 1.258 . S
O405 Zn399 2.037 1_455 S
O406 Zn399 2.026 . S
O406 C409 1.247 . S
O407 Zn401 2.028 1_655 S
O407 C409 1.258 . S
C408 O402 1.247 . S
C408 O403 1.258 . S
C409 O406 1.247 . S
C409 O407 1.258 . S
C410 O412 1.247 . S
C410 O414 1.258 . S
C411 O418 1.247 . S
C411 O419 1.258 . S
O412 C410 1.247 . S
O412 Zn413 2.035 . S
Zn413 O412 2.035 . S
Zn413 O417 2.028 1_545 S
Zn413 O419 2.028 1_545 S
Zn413 O420 2.035 . S
O414 C410 1.258 . S
O414 Zn415 2.037 1_545 S
Zn415 O414 2.037 1_565 S
Zn415 O416 2.026 . S
Zn415 O418 2.026 . S
Zn415 O421 2.037 1_565 S
O416 Zn415 2.026 . S
O416 C422 1.247 . S
O417 Zn413 2.028 1_565 S
O417 C422 1.258 . S
O418 C411 1.247 . S
O418 Zn415 2.026 . S
O419 C411 1.258 . S
O419 Zn413 2.028 1_565 S
O420 Zn413 2.035 . S
O420 C423 1.247 . S
O421 Zn415 2.037 1_545 S
O421 C423 1.258 . S
C422 O416 1.247 . S
C422 O417 1.258 . S
C423 O420 1.247 . S
C423 O421 1.258 . S
C424 O426 1.247 . S
C424 O428 1.258 . S
C425 O432 1.247 . S
C425 O433 1.258 . S
O426 C424 1.247 . S
O426 Zn427 2.028 . S
Zn427 O426 2.028 . S
Zn427 O431 2.035 . S
Zn427 O433 2.035 1_554 S
Zn427 O434 2.028 1_554 S
O428 C424 1.258 . S
O428 Zn429 2.035 . S
Zn429 O428 2.035 . S
Zn429 O430 2.028 . S
Zn429 O432 2.028 1_554 S
Zn429 O435 2.035 1_554 S
O430 Zn429 2.028 . S
O430 C436 1.247 . S
O431 Zn427 2.035 . S
O431 C436 1.258 . S
O432 C425 1.247 . S
O432 Zn429 2.028 1_556 S
O433 C425 1.258 . S
O433 Zn427 2.035 1_556 S
O434 Zn427 2.028 1_556 S
O434 C437 1.247 . S
O435 Zn429 2.035 1_556 S
O435 C437 1.258 . S
C436 O430 1.247 . S
C436 O431 1.258 . S
C437 O434 1.247 . S
C437 O435 1.258 . S
C438 O440 1.247 . S
C438 O442 1.258 . S
C439 O446 1.247 . S
C439 O447 1.258 . S
O440 C438 1.247 . S
O440 Zn441 2.028 . S
Zn441 O440 2.028 . S
Zn441 O445 2.035 . S
Zn441 O447 2.035 1_554 S
Zn441 O448 2.028 1_554 S
O442 C438 1.258 . S
O442 Zn443 2.035 . S
Zn443 O442 2.035 . S
Zn443 O444 2.028 . S
Zn443 O446 2.028 1_554 S
Zn443 O449 2.035 1_554 S
O444 Zn443 2.028 . S
O444 C450 1.247 . S
O445 Zn441 2.035 . S
O445 C450 1.258 . S
O446 C439 1.247 . S
O446 Zn443 2.028 1_556 S
O447 C439 1.258 . S
O447 Zn441 2.035 1_556 S
O448 Zn441 2.028 1_556 S
O448 C451 1.247 . S
O449 Zn443 2.035 1_556 S
O449 C451 1.258 . S
C450 O444 1.247 . S
C450 O445 1.258 . S
C451 O448 1.247 . S
C451 O449 1.258 . S
C452 O454 1.247 . S
C452 O456 1.258 . S
C453 O460 1.247 . S
C453 O461 1.258 . S
O454 C452 1.247 . S
O454 Zn455 2.028 1_556 S
Zn455 O454 2.028 1_554 S
Zn455 O459 2.035 1_554 S
Zn455 O461 2.035 . S
Zn455 O462 2.028 . S
O456 C452 1.258 . S
O456 Zn457 2.035 1_556 S
Zn457 O456 2.035 1_554 S
Zn457 O458 2.028 1_554 S
Zn457 O460 2.028 . S
Zn457 O463 2.035 . S
O458 Zn457 2.028 1_556 S
O458 C464 1.247 . S
O459 Zn455 2.035 1_556 S
O459 C464 1.258 . S
O460 C453 1.247 . S
O460 Zn457 2.028 . S
O461 C453 1.258 . S
O461 Zn455 2.035 . S
O462 Zn455 2.028 . S
O462 C465 1.247 . S
O463 Zn457 2.035 . S
O463 C465 1.258 . S
C464 O458 1.247 . S
C464 O459 1.258 . S
C465 O462 1.247 . S
C465 O463 1.258 . S
C466 O468 1.247 . S
C466 O470 1.258 . S
C467 O474 1.247 . S
C467 O475 1.258 . S
O468 C466 1.247 . S
O468 Zn469 2.028 . S
Zn469 O468 2.028 . S
Zn469 O473 2.035 . S
Zn469 O475 2.035 1_554 S
Zn469 O476 2.028 1_554 S
O470 C466 1.258 . S
O470 Zn471 2.035 . S
Zn471 O470 2.035 . S
Zn471 O472 2.028 . S
Zn471 O474 2.028 1_554 S
Zn471 O477 2.035 1_554 S
O472 Zn471 2.028 . S
O472 C478 1.247 . S
O473 Zn469 2.035 . S
O473 C478 1.258 . S
O474 C467 1.247 . S
O474 Zn471 2.028 1_556 S
O475 C467 1.258 . S
O475 Zn469 2.035 1_556 S
O476 Zn469 2.028 1_556 S
O476 C479 1.247 . S
O477 Zn471 2.035 1_556 S
O477 C479 1.258 . S
C478 O472 1.247 . S
C478 O473 1.258 . S
C479 O476 1.247 . S
C479 O477 1.258 . S
H480 C498 0.951 . S
H481 C500 0.951 . S
H482 C502 0.950 . S
H483 C503 0.950 . S
H484 C505 0.950 . S
H485 C508 0.950 . S
H486 C509 0.950 . S
H487 C511 0.950 . S
H488 C512 0.950 . S
H489 C513 0.951 . S
H490 C515 0.951 . S
H491 C517 0.950 . S
H492 C518 0.950 . S
H493 C520 0.950 . S
H494 C523 0.950 . S
H495 C524 0.950 . S
H496 C526 0.950 . S
H497 C527 0.950 . S
C498 H480 0.951 . S
C498 C499 1.366 . S
C498 C500 1.388 . S
C499 C498 1.366 . S
C499 C503 1.385 . S
C500 H481 0.951 . S
C500 C498 1.388 . S
C500 C501 1.366 . S
C501 C500 1.366 . S
C501 C502 1.414 . S
C501 C504 1.499 . S
C502 H482 0.950 . S
C502 C501 1.414 . S
C502 C503 1.374 . S
C503 H483 0.950 . S
C503 C499 1.385 . S
C503 C502 1.374 . S
C504 C501 1.499 . S
C504 C505 1.373 . S
C504 C506 1.389 . S
C505 H484 0.950 . S
C505 C504 1.373 . S
C505 C521 1.377 . S
C506 C504 1.389 . S
C506 C507 1.524 . S
C506 C520 1.377 . S
C507 C506 1.524 . S
C507 C508 1.397 . S
C507 C512 1.363 . S
C508 H485 0.950 . S
C508 C507 1.397 . S
C508 C509 1.334 . S
C509 H486 0.950 . S
C509 C508 1.334 . S
C509 C510 1.287 . S
C510 C509 1.287 . S
C510 C511 1.524 . S
C510 H529 0.913 . S
C511 H487 0.950 . S
C511 C510 1.524 . S
C511 C512 1.415 . S
C512 H488 0.950 . S
C512 C507 1.363 . S
C512 C511 1.415 . S
C513 H489 0.951 . S
C513 C514 1.366 . S
C513 C515 1.388 . S
C514 C513 1.366 . S
C514 C518 1.385 . S
C515 H490 0.951 . S
C515 C513 1.388 . S
C515 C516 1.366 . S
C516 C515 1.366 . S
C516 C517 1.414 . S
C516 C519 1.499 . S
C517 H491 0.950 . S
C517 C516 1.414 . S
C517 C518 1.374 . S
C518 H492 0.950 . S
C518 C514 1.385 . S
C518 C517 1.374 . S
C519 C516 1.499 . S
C519 C520 1.373 . S
C519 C521 1.389 . S
C520 H493 0.950 . S
C520 C506 1.377 . S
C520 C519 1.373 . S
C521 C505 1.377 . S
C521 C519 1.389 . S
C521 C522 1.524 . S
C522 C521 1.524 . S
C522 C523 1.397 . S
C522 C527 1.363 . S
C523 H494 0.950 . S
C523 C522 1.397 . S
C523 C524 1.334 . S
C524 H495 0.950 . S
C524 C523 1.334 . S
C524 C525 1.287 . S
C525 C524 1.287 . S
C525 C526 1.524 . S
C525 H528 0.999 . S
C526 H496 0.950 . S
C526 C525 1.524 . S
C526 C527 1.415 . S
C527 H497 0.950 . S
C527 C522 1.363 . S
C527 C526 1.415 . S
H528 C525 0.999 . S
H529 C510 0.913 . S
H530 C548 0.951 . S
H531 C550 0.951 . S
H532 C552 0.950 . S
H533 C553 0.950 . S
H534 C555 0.950 . S
H535 C558 0.950 . S
H536 C559 0.950 . S
H537 C561 0.950 . S
H538 C562 0.950 . S
H539 C563 0.951 . S
H540 C565 0.951 . S
H541 C567 0.950 . S
H542 C568 0.950 . S
H543 C570 0.950 . S
H544 C573 0.950 . S
H545 C574 0.950 . S
H546 C576 0.950 . S
H547 C577 0.950 . S
C548 H530 0.951 . S
C548 C549 1.366 . S
C548 C550 1.388 . S
C549 C548 1.366 . S
C549 C553 1.385 . S
C550 H531 0.951 . S
C550 C548 1.388 . S
C550 C551 1.366 . S
C551 C550 1.366 . S
C551 C552 1.414 . S
C551 C554 1.499 . S
C552 H532 0.950 . S
C552 C551 1.414 . S
C552 C553 1.374 . S
C553 H533 0.950 . S
C553 C549 1.385 . S
C553 C552 1.374 . S
C554 C551 1.499 . S
C554 C555 1.373 . S
C554 C556 1.389 . S
C555 H534 0.950 . S
C555 C554 1.373 . S
C555 C571 1.377 . S
C556 C554 1.389 . S
C556 C557 1.524 . S
C556 C570 1.377 . S
C557 C556 1.524 . S
C557 C558 1.397 . S
C557 C562 1.363 . S
C558 H535 0.950 . S
C558 C557 1.397 . S
C558 C559 1.334 . S
C559 H536 0.950 . S
C559 C558 1.334 . S
C559 C560 1.287 . S
C560 C559 1.287 . S
C560 C561 1.524 . S
C560 H579 0.913 . S
C561 H537 0.950 . S
C561 C560 1.524 . S
C561 C562 1.415 . S
C562 H538 0.950 . S
C562 C557 1.363 . S
C562 C561 1.415 . S
C563 H539 0.951 . S
C563 C564 1.366 . S
C563 C565 1.388 . S
C564 C563 1.366 . S
C564 C568 1.385 . S
C565 H540 0.951 . S
C565 C563 1.388 . S
C565 C566 1.366 . S
C566 C565 1.366 . S
C566 C567 1.414 . S
C566 C569 1.499 . S
C567 H541 0.950 . S
C567 C566 1.414 . S
C567 C568 1.374 . S
C568 H542 0.950 . S
C568 C564 1.385 . S
C568 C567 1.374 . S
C569 C566 1.499 . S
C569 C570 1.373 . S
C569 C571 1.389 . S
C570 H543 0.950 . S
C570 C556 1.377 . S
C570 C569 1.373 . S
C571 C555 1.377 . S
C571 C569 1.389 . S
C571 C572 1.524 . S
C572 C571 1.524 . S
C572 C573 1.397 . S
C572 C577 1.363 . S
C573 H544 0.950 . S
C573 C572 1.397 . S
C573 C574 1.334 . S
C574 H545 0.950 . S
C574 C573 1.334 . S
C574 C575 1.287 . S
C575 C574 1.287 . S
C575 C576 1.524 . S
C575 H578 0.999 . S
C576 H546 0.950 . S
C576 C575 1.524 . S
C576 C577 1.415 . S
C577 H547 0.950 . S
C577 C572 1.363 . S
C577 C576 1.415 . S
H578 C575 0.999 . S
H579 C560 0.913 . S
H580 C598 0.951 . S
H581 C600 0.951 . S
H582 C602 0.950 . S
H583 C603 0.950 . S
H584 C605 0.950 . S
H585 C608 0.950 . S
H586 C609 0.950 . S
H587 C611 0.950 . S
H588 C612 0.950 . S
H589 C613 0.951 . S
H590 C615 0.951 . S
H591 C617 0.950 . S
H592 C618 0.950 . S
H593 C620 0.950 . S
H594 C623 0.950 . S
H595 C624 0.950 . S
H596 C626 0.950 . S
H597 C627 0.950 . S
C598 H580 0.951 . S
C598 C599 1.366 . S
C598 C600 1.388 . S
C599 C598 1.366 . S
C599 C603 1.385 . S
C600 H581 0.951 . S
C600 C598 1.388 . S
C600 C601 1.366 . S
C601 C600 1.366 . S
C601 C602 1.414 . S
C601 C604 1.499 . S
C602 H582 0.950 . S
C602 C601 1.414 . S
C602 C603 1.374 . S
C603 H583 0.950 . S
C603 C599 1.385 . S
C603 C602 1.374 . S
C604 C601 1.499 . S
C604 C605 1.373 . S
C604 C606 1.389 . S
C605 H584 0.950 . S
C605 C604 1.373 . S
C605 C621 1.377 . S
C606 C604 1.389 . S
C606 C607 1.524 . S
C606 C620 1.377 . S
C607 C606 1.524 . S
C607 C608 1.397 . S
C607 C612 1.363 . S
C608 H585 0.950 . S
C608 C607 1.397 . S
C608 C609 1.334 . S
C609 H586 0.950 . S
C609 C608 1.334 . S
C609 C610 1.287 . S
C610 C609 1.287 . S
C610 C611 1.524 . S
C610 H629 0.913 . S
C611 H587 0.950 . S
C611 C610 1.524 . S
C611 C612 1.415 . S
C612 H588 0.950 . S
C612 C607 1.363 . S
C612 C611 1.415 . S
C613 H589 0.951 . S
C613 C614 1.366 . S
C613 C615 1.388 . S
C614 C613 1.366 . S
C614 C618 1.385 . S
C615 H590 0.951 . S
C615 C613 1.388 . S
C615 C616 1.366 . S
C616 C615 1.366 . S
C616 C617 1.414 . S
C616 C619 1.499 . S
C617 H591 0.950 . S
C617 C616 1.414 . S
C617 C618 1.374 . S
C618 H592 0.950 . S
C618 C614 1.385 . S
C618 C617 1.374 . S
C619 C616 1.499 . S
C619 C620 1.373 . S
C619 C621 1.389 . S
C620 H593 0.950 . S
C620 C606 1.377 . S
C620 C619 1.373 . S
C621 C605 1.377 . S
C621 C619 1.389 . S
C621 C622 1.524 . S
C622 C621 1.524 . S
C622 C623 1.397 . S
C622 C627 1.363 . S
C623 H594 0.950 . S
C623 C622 1.397 . S
C623 C624 1.334 . S
C624 H595 0.950 . S
C624 C623 1.334 . S
C624 C625 1.287 . S
C625 C624 1.287 . S
C625 C626 1.524 . S
C625 H628 0.999 . S
C626 H596 0.950 . S
C626 C625 1.524 . S
C626 C627 1.415 . S
C627 H597 0.950 . S
C627 C622 1.363 . S
C627 C626 1.415 . S
H628 C625 0.999 . S
H629 C610 0.913 . S
H630 C648 0.951 . S
H631 C650 0.951 . S
H632 C652 0.950 . S
H633 C653 0.950 . S
H634 C655 0.950 . S
H635 C658 0.950 . S
H636 C659 0.950 . S
H637 C661 0.950 . S
H638 C662 0.950 . S
H639 C663 0.951 . S
H640 C665 0.951 . S
H641 C667 0.950 . S
H642 C668 0.950 . S
H643 C670 0.950 . S
H644 C673 0.950 . S
H645 C674 0.950 . S
H646 C676 0.950 . S
H647 C677 0.950 . S
C648 H630 0.951 . S
C648 C649 1.366 . S
C648 C650 1.388 . S
C649 C648 1.366 . S
C649 C653 1.385 . S
C650 H631 0.951 . S
C650 C648 1.388 . S
C650 C651 1.366 . S
C651 C650 1.366 . S
C651 C652 1.414 . S
C651 C654 1.499 . S
C652 H632 0.950 . S
C652 C651 1.414 . S
C652 C653 1.374 . S
C653 H633 0.950 . S
C653 C649 1.385 . S
C653 C652 1.374 . S
C654 C651 1.499 . S
C654 C655 1.373 . S
C654 C656 1.389 . S
C655 H634 0.950 . S
C655 C654 1.373 . S
C655 C671 1.377 . S
C656 C654 1.389 . S
C656 C657 1.524 . S
C656 C670 1.377 . S
C657 C656 1.524 . S
C657 C658 1.397 . S
C657 C662 1.363 . S
C658 H635 0.950 . S
C658 C657 1.397 . S
C658 C659 1.334 . S
C659 H636 0.950 . S
C659 C658 1.334 . S
C659 C660 1.287 . S
C660 C659 1.287 . S
C660 C661 1.524 . S
C660 H679 0.913 . S
C661 H637 0.950 . S
C661 C660 1.524 . S
C661 C662 1.415 . S
C662 H638 0.950 . S
C662 C657 1.363 . S
C662 C661 1.415 . S
C663 H639 0.951 . S
C663 C664 1.366 . S
C663 C665 1.388 . S
C664 C663 1.366 . S
C664 C668 1.385 . S
C665 H640 0.951 . S
C665 C663 1.388 . S
C665 C666 1.366 . S
C666 C665 1.366 . S
C666 C667 1.414 . S
C666 C669 1.499 . S
C667 H641 0.950 . S
C667 C666 1.414 . S
C667 C668 1.374 . S
C668 H642 0.950 . S
C668 C664 1.385 . S
C668 C667 1.374 . S
C669 C666 1.499 . S
C669 C670 1.373 . S
C669 C671 1.389 . S
C670 H643 0.950 . S
C670 C656 1.377 . S
C670 C669 1.373 . S
C671 C655 1.377 . S
C671 C669 1.389 . S
C671 C672 1.524 . S
C672 C671 1.524 . S
C672 C673 1.397 . S
C672 C677 1.363 . S
C673 H644 0.950 . S
C673 C672 1.397 . S
C673 C674 1.334 . S
C674 H645 0.950 . S
C674 C673 1.334 . S
C674 C675 1.287 . S
C675 C674 1.287 . S
C675 C676 1.524 . S
C675 H678 0.999 . S
C676 H646 0.950 . S
C676 C675 1.524 . S
C676 C677 1.415 . S
C677 H647 0.950 . S
C677 C672 1.363 . S
C677 C676 1.415 . S
H678 C675 0.999 . S
H679 C660 0.913 . S
H680 C698 0.951 . S
H681 C700 0.951 . S
H682 C702 0.950 . S
H683 C703 0.950 . S
H684 C705 0.950 . S
H685 C708 0.950 . S
H686 C709 0.950 . S
H687 C711 0.950 . S
H688 C712 0.950 . S
H689 C713 0.951 . S
H690 C715 0.951 . S
H691 C717 0.950 . S
H692 C718 0.950 . S
H693 C720 0.950 . S
H694 C723 0.950 . S
H695 C724 0.950 . S
H696 C726 0.950 . S
H697 C727 0.950 . S
C698 H680 0.951 . S
C698 C699 1.366 . S
C698 C700 1.388 . S
C699 C698 1.366 . S
C699 C703 1.385 . S
C700 H681 0.951 . S
C700 C698 1.388 . S
C700 C701 1.366 . S
C701 C700 1.366 . S
C701 C702 1.414 . S
C701 C704 1.499 . S
C702 H682 0.950 . S
C702 C701 1.414 . S
C702 C703 1.374 . S
C703 H683 0.950 . S
C703 C699 1.385 . S
C703 C702 1.374 . S
C704 C701 1.499 . S
C704 C705 1.373 . S
C704 C706 1.389 . S
C705 H684 0.950 . S
C705 C704 1.373 . S
C705 C721 1.377 . S
C706 C704 1.389 . S
C706 C707 1.524 . S
C706 C720 1.377 . S
C707 C706 1.524 . S
C707 C708 1.397 . S
C707 C712 1.363 . S
C708 H685 0.950 . S
C708 C707 1.397 . S
C708 C709 1.334 . S
C709 H686 0.950 . S
C709 C708 1.334 . S
C709 C710 1.287 . S
C710 C709 1.287 . S
C710 C711 1.524 . S
C710 H729 0.913 . S
C711 H687 0.950 . S
C711 C710 1.524 . S
C711 C712 1.415 . S
C712 H688 0.950 . S
C712 C707 1.363 . S
C712 C711 1.415 . S
C713 H689 0.951 . S
C713 C714 1.366 . S
C713 C715 1.388 . S
C714 C713 1.366 . S
C714 C718 1.385 . S
C715 H690 0.951 . S
C715 C713 1.388 . S
C715 C716 1.366 . S
C716 C715 1.366 . S
C716 C717 1.414 . S
C716 C719 1.499 . S
C717 H691 0.950 . S
C717 C716 1.414 . S
C717 C718 1.374 . S
C718 H692 0.950 . S
C718 C714 1.385 . S
C718 C717 1.374 . S
C719 C716 1.499 . S
C719 C720 1.373 . S
C719 C721 1.389 . S
C720 H693 0.950 . S
C720 C706 1.377 . S
C720 C719 1.373 . S
C721 C705 1.377 . S
C721 C719 1.389 . S
C721 C722 1.524 . S
C722 C721 1.524 . S
C722 C723 1.397 . S
C722 C727 1.363 . S
C723 H694 0.950 . S
C723 C722 1.397 . S
C723 C724 1.334 . S
C724 H695 0.950 . S
C724 C723 1.334 . S
C724 C725 1.287 . S
C725 C724 1.287 . S
C725 C726 1.524 . S
C725 H728 0.999 . S
C726 H696 0.950 . S
C726 C725 1.524 . S
C726 C727 1.415 . S
C727 H697 0.950 . S
C727 C722 1.363 . S
C727 C726 1.415 . S
H728 C725 0.999 . S
H729 C710 0.913 . S
H730 C748 0.951 . S
H731 C750 0.951 . S
H732 C752 0.950 . S
H733 C753 0.950 . S
H734 C755 0.950 . S
H735 C758 0.950 . S
H736 C759 0.950 . S
H737 C761 0.950 . S
H738 C762 0.950 . S
H739 C763 0.951 . S
H740 C765 0.951 . S
H741 C767 0.950 . S
H742 C768 0.950 . S
H743 C770 0.950 . S
H744 C773 0.950 . S
H745 C774 0.950 . S
H746 C776 0.950 . S
H747 C777 0.950 . S
C748 H730 0.951 . S
C748 C749 1.366 . S
C748 C750 1.388 . S
C749 C748 1.366 . S
C749 C753 1.385 . S
C750 H731 0.951 . S
C750 C748 1.388 . S
C750 C751 1.366 . S
C751 C750 1.366 . S
C751 C752 1.414 . S
C751 C754 1.499 . S
C752 H732 0.950 . S
C752 C751 1.414 . S
C752 C753 1.374 . S
C753 H733 0.950 . S
C753 C749 1.385 . S
C753 C752 1.374 . S
C754 C751 1.499 . S
C754 C755 1.373 . S
C754 C756 1.389 . S
C755 H734 0.950 . S
C755 C754 1.373 . S
C755 C771 1.377 . S
C756 C754 1.389 . S
C756 C757 1.524 . S
C756 C770 1.377 . S
C757 C756 1.524 . S
C757 C758 1.397 . S
C757 C762 1.363 . S
C758 H735 0.950 . S
C758 C757 1.397 . S
C758 C759 1.334 . S
C759 H736 0.950 . S
C759 C758 1.334 . S
C759 C760 1.287 . S
C760 C759 1.287 . S
C760 C761 1.524 . S
C760 H779 0.913 . S
C761 H737 0.950 . S
C761 C760 1.524 . S
C761 C762 1.415 . S
C762 H738 0.950 . S
C762 C757 1.363 . S
C762 C761 1.415 . S
C763 H739 0.951 . S
C763 C764 1.366 . S
C763 C765 1.388 . S
C764 C763 1.366 . S
C764 C768 1.385 . S
C765 H740 0.951 . S
C765 C763 1.388 . S
C765 C766 1.366 . S
C766 C765 1.366 . S
C766 C767 1.414 . S
C766 C769 1.499 . S
C767 H741 0.950 . S
C767 C766 1.414 . S
C767 C768 1.374 . S
C768 H742 0.950 . S
C768 C764 1.385 . S
C768 C767 1.374 . S
C769 C766 1.499 . S
C769 C770 1.373 . S
C769 C771 1.389 . S
C770 H743 0.950 . S
C770 C756 1.377 . S
C770 C769 1.373 . S
C771 C755 1.377 . S
C771 C769 1.389 . S
C771 C772 1.524 . S
C772 C771 1.524 . S
C772 C773 1.397 . S
C772 C777 1.363 . S
C773 H744 0.950 . S
C773 C772 1.397 . S
C773 C774 1.334 . S
C774 H745 0.950 . S
C774 C773 1.334 . S
C774 C775 1.287 . S
C775 C774 1.287 . S
C775 C776 1.524 . S
C775 H778 0.999 . S
C776 H746 0.950 . S
C776 C775 1.524 . S
C776 C777 1.415 . S
C777 H747 0.950 . S
C777 C772 1.363 . S
C777 C776 1.415 . S
H778 C775 0.999 . S
H779 C760 0.913 . S
H780 C798 0.951 . S
H781 C800 0.951 . S
H782 C802 0.950 . S
H783 C803 0.950 . S
H784 C805 0.950 . S
H785 C808 0.950 . S
H786 C809 0.950 . S
H787 C811 0.950 . S
H788 C812 0.950 . S
H789 C813 0.951 . S
H790 C815 0.951 . S
H791 C817 0.950 . S
H792 C818 0.950 . S
H793 C820 0.950 . S
H794 C823 0.950 . S
H795 C824 0.950 . S
H796 C826 0.950 . S
H797 C827 0.950 . S
C798 H780 0.951 . S
C798 C799 1.366 . S
C798 C800 1.388 . S
C799 C798 1.366 . S
C799 C803 1.385 . S
C800 H781 0.951 . S
C800 C798 1.388 . S
C800 C801 1.366 . S
C801 C800 1.366 . S
C801 C802 1.414 . S
C801 C804 1.499 . S
C802 H782 0.950 . S
C802 C801 1.414 . S
C802 C803 1.374 . S
C803 H783 0.950 . S
C803 C799 1.385 . S
C803 C802 1.374 . S
C804 C801 1.499 . S
C804 C805 1.373 . S
C804 C806 1.389 . S
C805 H784 0.950 . S
C805 C804 1.373 . S
C805 C821 1.377 . S
C806 C804 1.389 . S
C806 C807 1.524 . S
C806 C820 1.377 . S
C807 C806 1.524 . S
C807 C808 1.397 . S
C807 C812 1.363 . S
C808 H785 0.950 . S
C808 C807 1.397 . S
C808 C809 1.334 . S
C809 H786 0.950 . S
C809 C808 1.334 . S
C809 C810 1.287 . S
C810 C809 1.287 . S
C810 C811 1.524 . S
C810 H829 0.913 . S
C811 H787 0.950 . S
C811 C810 1.524 . S
C811 C812 1.415 . S
C812 H788 0.950 . S
C812 C807 1.363 . S
C812 C811 1.415 . S
C813 H789 0.951 . S
C813 C814 1.366 . S
C813 C815 1.388 . S
C814 C813 1.366 . S
C814 C818 1.385 . S
C815 H790 0.951 . S
C815 C813 1.388 . S
C815 C816 1.366 . S
C816 C815 1.366 . S
C816 C817 1.414 . S
C816 C819 1.499 . S
C817 H791 0.950 . S
C817 C816 1.414 . S
C817 C818 1.374 . S
C818 H792 0.950 . S
C818 C814 1.385 . S
C818 C817 1.374 . S
C819 C816 1.499 . S
C819 C820 1.373 . S
C819 C821 1.389 . S
C820 H793 0.950 . S
C820 C806 1.377 . S
C820 C819 1.373 . S
C821 C805 1.377 . S
C821 C819 1.389 . S
C821 C822 1.524 . S
C822 C821 1.524 . S
C822 C823 1.397 . S
C822 C827 1.363 . S
C823 H794 0.950 . S
C823 C822 1.397 . S
C823 C824 1.334 . S
C824 H795 0.950 . S
C824 C823 1.334 . S
C824 C825 1.287 . S
C825 C824 1.287 . S
C825 C826 1.524 . S
C825 H828 0.999 . S
C826 H796 0.950 . S
C826 C825 1.524 . S
C826 C827 1.415 . S
C827 H797 0.950 . S
C827 C822 1.363 . S
C827 C826 1.415 . S
H828 C825 0.999 . S
H829 C810 0.913 . S
H830 C848 0.951 . S
H831 C850 0.951 . S
H832 C852 0.950 . S
H833 C853 0.950 . S
H834 C855 0.950 . S
H835 C858 0.950 . S
H836 C859 0.950 . S
H837 C861 0.950 . S
H838 C862 0.950 . S
H839 C863 0.951 . S
H840 C865 0.951 . S
H841 C867 0.950 . S
H842 C868 0.950 . S
H843 C870 0.950 . S
H844 C873 0.950 . S
H845 C874 0.950 . S
H846 C876 0.950 . S
H847 C877 0.950 . S
C848 H830 0.951 . S
C848 C849 1.366 . S
C848 C850 1.388 . S
C849 C848 1.366 . S
C849 C853 1.385 . S
C850 H831 0.951 . S
C850 C848 1.388 . S
C850 C851 1.366 . S
C851 C850 1.366 . S
C851 C852 1.414 . S
C851 C854 1.499 . S
C852 H832 0.950 . S
C852 C851 1.414 . S
C852 C853 1.374 . S
C853 H833 0.950 . S
C853 C849 1.385 . S
C853 C852 1.374 . S
C854 C851 1.499 . S
C854 C855 1.373 . S
C854 C856 1.389 . S
C855 H834 0.950 . S
C855 C854 1.373 . S
C855 C871 1.377 . S
C856 C854 1.389 . S
C856 C857 1.524 . S
C856 C870 1.377 . S
C857 C856 1.524 . S
C857 C858 1.397 . S
C857 C862 1.363 . S
C858 H835 0.950 . S
C858 C857 1.397 . S
C858 C859 1.334 . S
C859 H836 0.950 . S
C859 C858 1.334 . S
C859 C860 1.287 . S
C860 C859 1.287 . S
C860 C861 1.524 . S
C860 H879 0.913 . S
C861 H837 0.950 . S
C861 C860 1.524 . S
C861 C862 1.415 . S
C862 H838 0.950 . S
C862 C857 1.363 . S
C862 C861 1.415 . S
C863 H839 0.951 . S
C863 C864 1.366 . S
C863 C865 1.388 . S
C864 C863 1.366 . S
C864 C868 1.385 . S
C865 H840 0.951 . S
C865 C863 1.388 . S
C865 C866 1.366 . S
C866 C865 1.366 . S
C866 C867 1.414 . S
C866 C869 1.499 . S
C867 H841 0.950 . S
C867 C866 1.414 . S
C867 C868 1.374 . S
C868 H842 0.950 . S
C868 C864 1.385 . S
C868 C867 1.374 . S
C869 C866 1.499 . S
C869 C870 1.373 . S
C869 C871 1.389 . S
C870 H843 0.950 . S
C870 C856 1.377 . S
C870 C869 1.373 . S
C871 C855 1.377 . S
C871 C869 1.389 . S
C871 C872 1.524 . S
C872 C871 1.524 . S
C872 C873 1.397 . S
C872 C877 1.363 . S
C873 H844 0.950 . S
C873 C872 1.397 . S
C873 C874 1.334 . S
C874 H845 0.950 . S
C874 C873 1.334 . S
C874 C875 1.287 . S
C875 C874 1.287 . S
C875 C876 1.524 . S
C875 H878 0.999 . S
C876 H846 0.950 . S
C876 C875 1.524 . S
C876 C877 1.415 . S
C877 H847 0.950 . S
C877 C872 1.363 . S
C877 C876 1.415 . S
H878 C875 0.999 . S
H879 C860 0.913 . S
H880 C898 0.951 . S
H881 C900 0.951 . S
H882 C902 0.950 . S
H883 C903 0.950 . S
H884 C905 0.950 . S
H885 C908 0.950 . S
H886 C909 0.950 . S
H887 C911 0.950 . S
H888 C912 0.950 . S
H889 C913 0.951 . S
H890 C915 0.951 . S
H891 C917 0.950 . S
H892 C918 0.950 . S
H893 C920 0.950 . S
H894 C923 0.950 . S
H895 C924 0.950 . S
H896 C926 0.950 . S
H897 C927 0.950 . S
C898 H880 0.951 . S
C898 C899 1.366 . S
C898 C900 1.388 . S
C899 C898 1.366 . S
C899 C903 1.385 . S
C900 H881 0.951 . S
C900 C898 1.388 . S
C900 C901 1.366 . S
C901 C900 1.366 . S
C901 C902 1.414 . S
C901 C904 1.499 . S
C902 H882 0.950 . S
C902 C901 1.414 . S
C902 C903 1.374 . S
C903 H883 0.950 . S
C903 C899 1.385 . S
C903 C902 1.374 . S
C904 C901 1.499 . S
C904 C905 1.373 . S
C904 C906 1.389 . S
C905 H884 0.950 . S
C905 C904 1.373 . S
C905 C921 1.377 . S
C906 C904 1.389 . S
C906 C907 1.524 . S
C906 C920 1.377 . S
C907 C906 1.524 . S
C907 C908 1.397 . S
C907 C912 1.363 . S
C908 H885 0.950 . S
C908 C907 1.397 . S
C908 C909 1.334 . S
C909 H886 0.950 . S
C909 C908 1.334 . S
C909 C910 1.287 . S
C910 C909 1.287 . S
C910 C911 1.524 . S
C910 H929 0.913 . S
C911 H887 0.950 . S
C911 C910 1.524 . S
C911 C912 1.415 . S
C912 H888 0.950 . S
C912 C907 1.363 . S
C912 C911 1.415 . S
C913 H889 0.951 . S
C913 C914 1.366 . S
C913 C915 1.388 . S
C914 C913 1.366 . S
C914 C918 1.385 . S
C915 H890 0.951 . S
C915 C913 1.388 . S
C915 C916 1.366 . S
C916 C915 1.366 . S
C916 C917 1.414 . S
C916 C919 1.499 . S
C917 H891 0.950 . S
C917 C916 1.414 . S
C917 C918 1.374 . S
C918 H892 0.950 . S
C918 C914 1.385 . S
C918 C917 1.374 . S
C919 C916 1.499 . S
C919 C920 1.373 . S
C919 C921 1.389 . S
C920 H893 0.950 . S
C920 C906 1.377 . S
C920 C919 1.373 . S
C921 C905 1.377 . S
C921 C919 1.389 . S
C921 C922 1.524 . S
C922 C921 1.524 . S
C922 C923 1.397 . S
C922 C927 1.363 . S
C923 H894 0.950 . S
C923 C922 1.397 . S
C923 C924 1.334 . S
C924 H895 0.950 . S
C924 C923 1.334 . S
C924 C925 1.287 . S
C925 C924 1.287 . S
C925 C926 1.524 . S
C925 H928 0.999 . S
C926 H896 0.950 . S
C926 C925 1.524 . S
C926 C927 1.415 . S
C927 H897 0.950 . S
C927 C922 1.363 . S
C927 C926 1.415 . S
H928 C925 0.999 . S
H929 C910 0.913 . S
H930 C948 0.951 . S
H931 C950 0.951 . S
H932 C952 0.950 . S
H933 C953 0.950 . S
H934 C955 0.950 . S
H935 C958 0.950 . S
H936 C959 0.950 . S
H937 C961 0.950 . S
H938 C962 0.950 . S
H939 C963 0.951 . S
H940 C965 0.951 . S
H941 C967 0.950 . S
H942 C968 0.950 . S
H943 C970 0.950 . S
H944 C973 0.950 . S
H945 C974 0.950 . S
H946 C976 0.950 . S
H947 C977 0.950 . S
C948 H930 0.951 . S
C948 C949 1.366 . S
C948 C950 1.388 . S
C949 C948 1.366 . S
C949 C953 1.385 . S
C950 H931 0.951 . S
C950 C948 1.388 . S
C950 C951 1.366 . S
C951 C950 1.366 . S
C951 C952 1.414 . S
C951 C954 1.499 . S
C952 H932 0.950 . S
C952 C951 1.414 . S
C952 C953 1.374 . S
C953 H933 0.950 . S
C953 C949 1.385 . S
C953 C952 1.374 . S
C954 C951 1.499 . S
C954 C955 1.373 . S
C954 C956 1.389 . S
C955 H934 0.950 . S
C955 C954 1.373 . S
C955 C971 1.377 . S
C956 C954 1.389 . S
C956 C957 1.524 . S
C956 C970 1.377 . S
C957 C956 1.524 . S
C957 C958 1.397 . S
C957 C962 1.363 . S
C958 H935 0.950 . S
C958 C957 1.397 . S
C958 C959 1.334 . S
C959 H936 0.950 . S
C959 C958 1.334 . S
C959 C960 1.287 . S
C960 C959 1.287 . S
C960 C961 1.524 . S
C960 H979 0.913 . S
C961 H937 0.950 . S
C961 C960 1.524 . S
C961 C962 1.415 . S
C962 H938 0.950 . S
C962 C957 1.363 . S
C962 C961 1.415 . S
C963 H939 0.951 . S
C963 C964 1.366 . S
C963 C965 1.388 . S
C964 C963 1.366 . S
C964 C968 1.385 . S
C965 H940 0.951 . S
C965 C963 1.388 . S
C965 C966 1.366 . S
C966 C965 1.366 . S
C966 C967 1.414 . S
C966 C969 1.499 . S
C967 H941 0.950 . S
C967 C966 1.414 . S
C967 C968 1.374 . S
C968 H942 0.950 . S
C968 C964 1.385 . S
C968 C967 1.374 . S
C969 C966 1.499 . S
C969 C970 1.373 . S
C969 C971 1.389 . S
C970 H943 0.950 . S
C970 C956 1.377 . S
C970 C969 1.373 . S
C971 C955 1.377 . S
C971 C969 1.389 . S
C971 C972 1.524 . S
C972 C971 1.524 . S
C972 C973 1.397 . S
C972 C977 1.363 . S
C973 H944 0.950 . S
C973 C972 1.397 . S
C973 C974 1.334 . S
C974 H945 0.950 . S
C974 C973 1.334 . S
C974 C975 1.287 . S
C975 C974 1.287 . S
C975 C976 1.524 . S
C975 H978 0.999 . S
C976 H946 0.950 . S
C976 C975 1.524 . S
C976 C977 1.415 . S
C977 H947 0.950 . S
C977 C972 1.363 . S
C977 C976 1.415 . S
H978 C975 0.999 . S
H979 C960 0.913 . S
H980 C998 0.951 . S
H981 C1000 0.951 . S
H982 C1002 0.950 . S
H983 C1003 0.950 . S
H984 C1005 0.950 . S
H985 C1008 0.950 . S
H986 C1009 0.950 . S
H987 C1011 0.950 . S
H988 C1012 0.950 . S
H989 C1013 0.951 . S
H990 C1015 0.951 . S
H991 C1017 0.950 . S
H992 C1018 0.950 . S
H993 C1020 0.950 . S
H994 C1023 0.950 . S
H995 C1024 0.950 . S
H996 C1026 0.950 . S
H997 C1027 0.950 . S
C998 H980 0.951 . S
C998 C999 1.366 . S
C998 C1000 1.388 . S
C999 C998 1.366 . S
C999 C1003 1.385 . S
C1000 H981 0.951 . S
C1000 C998 1.388 . S
C1000 C1001 1.366 . S
C1001 C1000 1.366 . S
C1001 C1002 1.414 . S
C1001 C1004 1.499 . S
C1002 H982 0.950 . S
C1002 C1001 1.414 . S
C1002 C1003 1.374 . S
C1003 H983 0.950 . S
C1003 C999 1.385 . S
C1003 C1002 1.374 . S
C1004 C1001 1.499 . S
C1004 C1005 1.373 . S
C1004 C1006 1.389 . S
C1005 H984 0.950 . S
C1005 C1004 1.373 . S
C1005 C1021 1.377 . S
C1006 C1004 1.389 . S
C1006 C1007 1.524 . S
C1006 C1020 1.377 . S
C1007 C1006 1.524 . S
C1007 C1008 1.397 . S
C1007 C1012 1.363 . S
C1008 H985 0.950 . S
C1008 C1007 1.397 . S
C1008 C1009 1.334 . S
C1009 H986 0.950 . S
C1009 C1008 1.334 . S
C1009 C1010 1.287 . S
C1010 C1009 1.287 . S
C1010 C1011 1.524 . S
C1010 H1029 0.913 . S
C1011 H987 0.950 . S
C1011 C1010 1.524 . S
C1011 C1012 1.415 . S
C1012 H988 0.950 . S
C1012 C1007 1.363 . S
C1012 C1011 1.415 . S
C1013 H989 0.951 . S
C1013 C1014 1.366 . S
C1013 C1015 1.388 . S
C1014 C1013 1.366 . S
C1014 C1018 1.385 . S
C1015 H990 0.951 . S
C1015 C1013 1.388 . S
C1015 C1016 1.366 . S
C1016 C1015 1.366 . S
C1016 C1017 1.414 . S
C1016 C1019 1.499 . S
C1017 H991 0.950 . S
C1017 C1016 1.414 . S
C1017 C1018 1.374 . S
C1018 H992 0.950 . S
C1018 C1014 1.385 . S
C1018 C1017 1.374 . S
C1019 C1016 1.499 . S
C1019 C1020 1.373 . S
C1019 C1021 1.389 . S
C1020 H993 0.950 . S
C1020 C1006 1.377 . S
C1020 C1019 1.373 . S
C1021 C1005 1.377 . S
C1021 C1019 1.389 . S
C1021 C1022 1.524 . S
C1022 C1021 1.524 . S
C1022 C1023 1.397 . S
C1022 C1027 1.363 . S
C1023 H994 0.950 . S
C1023 C1022 1.397 . S
C1023 C1024 1.334 . S
C1024 H995 0.950 . S
C1024 C1023 1.334 . S
C1024 C1025 1.287 . S
C1025 C1024 1.287 . S
C1025 C1026 1.524 . S
C1025 H1028 0.999 . S
C1026 H996 0.950 . S
C1026 C1025 1.524 . S
C1026 C1027 1.415 . S
C1027 H997 0.950 . S
C1027 C1022 1.363 . S
C1027 C1026 1.415 . S
H1028 C1025 0.999 . S
H1029 C1010 0.913 . S
H1030 C1048 0.951 . S
H1031 C1050 0.951 . S
H1032 C1052 0.950 . S
H1033 C1053 0.950 . S
H1034 C1055 0.950 . S
H1035 C1058 0.950 . S
H1036 C1059 0.950 . S
H1037 C1061 0.950 . S
H1038 C1062 0.950 . S
H1039 C1063 0.951 . S
H1040 C1065 0.951 . S
H1041 C1067 0.950 . S
H1042 C1068 0.950 . S
H1043 C1070 0.950 . S
H1044 C1073 0.950 . S
H1045 C1074 0.950 . S
H1046 C1076 0.950 . S
H1047 C1077 0.950 . S
C1048 H1030 0.951 . S
C1048 C1049 1.366 . S
C1048 C1050 1.388 . S
C1049 C1048 1.366 . S
C1049 C1053 1.385 . S
C1050 H1031 0.951 . S
C1050 C1048 1.388 . S
C1050 C1051 1.366 . S
C1051 C1050 1.366 . S
C1051 C1052 1.414 . S
C1051 C1054 1.499 . S
C1052 H1032 0.950 . S
C1052 C1051 1.414 . S
C1052 C1053 1.374 . S
C1053 H1033 0.950 . S
C1053 C1049 1.385 . S
C1053 C1052 1.374 . S
C1054 C1051 1.499 . S
C1054 C1055 1.373 . S
C1054 C1056 1.389 . S
C1055 H1034 0.950 . S
C1055 C1054 1.373 . S
C1055 C1071 1.377 . S
C1056 C1054 1.389 . S
C1056 C1057 1.524 . S
C1056 C1070 1.377 . S
C1057 C1056 1.524 . S
C1057 C1058 1.397 . S
C1057 C1062 1.363 . S
C1058 H1035 0.950 . S
C1058 C1057 1.397 . S
C1058 C1059 1.334 . S
C1059 H1036 0.950 . S
C1059 C1058 1.334 . S
C1059 C1060 1.287 . S
C1060 C1059 1.287 . S
C1060 C1061 1.524 . S
C1060 H1079 0.913 . S
C1061 H1037 0.950 . S
C1061 C1060 1.524 . S
C1061 C1062 1.415 . S
C1062 H1038 0.950 . S
C1062 C1057 1.363 . S
C1062 C1061 1.415 . S
C1063 H1039 0.951 . S
C1063 C1064 1.366 . S
C1063 C1065 1.388 . S
C1064 C1063 1.366 . S
C1064 C1068 1.385 . S
C1065 H1040 0.951 . S
C1065 C1063 1.388 . S
C1065 C1066 1.366 . S
C1066 C1065 1.366 . S
C1066 C1067 1.414 . S
C1066 C1069 1.499 . S
C1067 H1041 0.950 . S
C1067 C1066 1.414 . S
C1067 C1068 1.374 . S
C1068 H1042 0.950 . S
C1068 C1064 1.385 . S
C1068 C1067 1.374 . S
C1069 C1066 1.499 . S
C1069 C1070 1.373 . S
C1069 C1071 1.389 . S
C1070 H1043 0.950 . S
C1070 C1056 1.377 . S
C1070 C1069 1.373 . S
C1071 C1055 1.377 . S
C1071 C1069 1.389 . S
C1071 C1072 1.524 . S
C1072 C1071 1.524 . S
C1072 C1073 1.397 . S
C1072 C1077 1.363 . S
C1073 H1044 0.950 . S
C1073 C1072 1.397 . S
C1073 C1074 1.334 . S
C1074 H1045 0.950 . S
C1074 C1073 1.334 . S
C1074 C1075 1.287 . S
C1075 C1074 1.287 . S
C1075 C1076 1.524 . S
C1075 H1078 0.999 . S
C1076 H1046 0.950 . S
C1076 C1075 1.524 . S
C1076 C1077 1.415 . S
C1077 H1047 0.950 . S
C1077 C1072 1.363 . S
C1077 C1076 1.415 . S
H1078 C1075 0.999 . S
H1079 C1060 0.913 . S
H1080 C1098 0.951 . S
H1081 C1100 0.951 . S
H1082 C1102 0.950 . S
H1083 C1103 0.950 . S
H1084 C1105 0.950 . S
H1085 C1108 0.950 . S
H1086 C1109 0.950 . S
H1087 C1111 0.950 . S
H1088 C1112 0.950 . S
H1089 C1113 0.951 . S
H1090 C1115 0.951 . S
H1091 C1117 0.950 . S
H1092 C1118 0.950 . S
H1093 C1120 0.950 . S
H1094 C1123 0.950 . S
H1095 C1124 0.950 . S
H1096 C1126 0.950 . S
H1097 C1127 0.950 . S
C1098 H1080 0.951 . S
C1098 C1099 1.366 . S
C1098 C1100 1.388 . S
C1099 C1098 1.366 . S
C1099 C1103 1.385 . S
C1100 H1081 0.951 . S
C1100 C1098 1.388 . S
C1100 C1101 1.366 . S
C1101 C1100 1.366 . S
C1101 C1102 1.414 . S
C1101 C1104 1.499 . S
C1102 H1082 0.950 . S
C1102 C1101 1.414 . S
C1102 C1103 1.374 . S
C1103 H1083 0.950 . S
C1103 C1099 1.385 . S
C1103 C1102 1.374 . S
C1104 C1101 1.499 . S
C1104 C1105 1.373 . S
C1104 C1106 1.389 . S
C1105 H1084 0.950 . S
C1105 C1104 1.373 . S
C1105 C1121 1.377 . S
C1106 C1104 1.389 . S
C1106 C1107 1.524 . S
C1106 C1120 1.377 . S
C1107 C1106 1.524 . S
C1107 C1108 1.397 . S
C1107 C1112 1.363 . S
C1108 H1085 0.950 . S
C1108 C1107 1.397 . S
C1108 C1109 1.334 . S
C1109 H1086 0.950 . S
C1109 C1108 1.334 . S
C1109 C1110 1.287 . S
C1110 C1109 1.287 . S
C1110 C1111 1.524 . S
C1110 H1129 0.913 . S
C1111 H1087 0.950 . S
C1111 C1110 1.524 . S
C1111 C1112 1.415 . S
C1112 H1088 0.950 . S
C1112 C1107 1.363 . S
C1112 C1111 1.415 . S
C1113 H1089 0.951 . S
C1113 C1114 1.366 . S
C1113 C1115 1.388 . S
C1114 C1113 1.366 . S
C1114 C1118 1.385 . S
C1115 H1090 0.951 . S
C1115 C1113 1.388 . S
C1115 C1116 1.366 . S
C1116 C1115 1.366 . S
C1116 C1117 1.414 . S
C1116 C1119 1.499 . S
C1117 H1091 0.950 . S
C1117 C1116 1.414 . S
C1117 C1118 1.374 . S
C1118 H1092 0.950 . S
C1118 C1114 1.385 . S
C1118 C1117 1.374 . S
C1119 C1116 1.499 . S
C1119 C1120 1.373 . S
C1119 C1121 1.389 . S
C1120 H1093 0.950 . S
C1120 C1106 1.377 . S
C1120 C1119 1.373 . S
C1121 C1105 1.377 . S
C1121 C1119 1.389 . S
C1121 C1122 1.524 . S
C1122 C1121 1.524 . S
C1122 C1123 1.397 . S
C1122 C1127 1.363 . S
C1123 H1094 0.950 . S
C1123 C1122 1.397 . S
C1123 C1124 1.334 . S
C1124 H1095 0.950 . S
C1124 C1123 1.334 . S
C1124 C1125 1.287 . S
C1125 C1124 1.287 . S
C1125 C1126 1.524 . S
C1125 H1128 0.999 . S
C1126 H1096 0.950 . S
C1126 C1125 1.524 . S
C1126 C1127 1.415 . S
C1127 H1097 0.950 . S
C1127 C1122 1.363 . S
C1127 C1126 1.415 . S
H1128 C1125 0.999 . S
H1129 C1110 0.913 . S
H1130 C1148 0.951 . S
H1131 C1150 0.951 . S
H1132 C1152 0.950 . S
H1133 C1153 0.950 . S
H1134 C1155 0.950 . S
H1135 C1158 0.950 . S
H1136 C1159 0.950 . S
H1137 C1161 0.950 . S
H1138 C1162 0.950 . S
H1139 C1163 0.951 . S
H1140 C1165 0.951 . S
H1141 C1167 0.950 . S
H1142 C1168 0.950 . S
H1143 C1170 0.950 . S
H1144 C1173 0.950 . S
H1145 C1174 0.950 . S
H1146 C1176 0.950 . S
H1147 C1177 0.950 . S
C1148 H1130 0.951 . S
C1148 C1149 1.366 . S
C1148 C1150 1.388 . S
C1149 C1148 1.366 . S
C1149 C1153 1.385 . S
C1150 H1131 0.951 . S
C1150 C1148 1.388 . S
C1150 C1151 1.366 . S
C1151 C1150 1.366 . S
C1151 C1152 1.414 . S
C1151 C1154 1.499 . S
C1152 H1132 0.950 . S
C1152 C1151 1.414 . S
C1152 C1153 1.374 . S
C1153 H1133 0.950 . S
C1153 C1149 1.385 . S
C1153 C1152 1.374 . S
C1154 C1151 1.499 . S
C1154 C1155 1.373 . S
C1154 C1156 1.389 . S
C1155 H1134 0.950 . S
C1155 C1154 1.373 . S
C1155 C1171 1.377 . S
C1156 C1154 1.389 . S
C1156 C1157 1.524 . S
C1156 C1170 1.377 . S
C1157 C1156 1.524 . S
C1157 C1158 1.397 . S
C1157 C1162 1.363 . S
C1158 H1135 0.950 . S
C1158 C1157 1.397 . S
C1158 C1159 1.334 . S
C1159 H1136 0.950 . S
C1159 C1158 1.334 . S
C1159 C1160 1.287 . S
C1160 C1159 1.287 . S
C1160 C1161 1.524 . S
C1160 H1179 0.913 . S
C1161 H1137 0.950 . S
C1161 C1160 1.524 . S
C1161 C1162 1.415 . S
C1162 H1138 0.950 . S
C1162 C1157 1.363 . S
C1162 C1161 1.415 . S
C1163 H1139 0.951 . S
C1163 C1164 1.366 . S
C1163 C1165 1.388 . S
C1164 C1163 1.366 . S
C1164 C1168 1.385 . S
C1165 H1140 0.951 . S
C1165 C1163 1.388 . S
C1165 C1166 1.366 . S
C1166 C1165 1.366 . S
C1166 C1167 1.414 . S
C1166 C1169 1.499 . S
C1167 H1141 0.950 . S
C1167 C1166 1.414 . S
C1167 C1168 1.374 . S
C1168 H1142 0.950 . S
C1168 C1164 1.385 . S
C1168 C1167 1.374 . S
C1169 C1166 1.499 . S
C1169 C1170 1.373 . S
C1169 C1171 1.389 . S
C1170 H1143 0.950 . S
C1170 C1156 1.377 . S
C1170 C1169 1.373 . S
C1171 C1155 1.377 . S
C1171 C1169 1.389 . S
C1171 C1172 1.524 . S
C1172 C1171 1.524 . S
C1172 C1173 1.397 . S
C1172 C1177 1.363 . S
C1173 H1144 0.950 . S
C1173 C1172 1.397 . S
C1173 C1174 1.334 . S
C1174 H1145 0.950 . S
C1174 C1173 1.334 . S
C1174 C1175 1.287 . S
C1175 C1174 1.287 . S
C1175 C1176 1.524 . S
C1175 H1178 0.999 . S
C1176 H1146 0.950 . S
C1176 C1175 1.524 . S
C1176 C1177 1.415 . S
C1177 H1147 0.950 . S
C1177 C1172 1.363 . S
C1177 C1176 1.415 . S
H1178 C1175 0.999 . S
H1179 C1160 0.913 . S
H1180 C1198 0.951 . S
H1181 C1200 0.951 . S
H1182 C1202 0.950 . S
H1183 C1203 0.950 . S
H1184 C1205 0.950 . S
H1185 C1208 0.950 . S
H1186 C1209 0.950 . S
H1187 C1211 0.950 . S
H1188 C1212 0.950 . S
H1189 C1213 0.951 . S
H1190 C1215 0.951 . S
H1191 C1217 0.950 . S
H1192 C1218 0.950 . S
H1193 C1220 0.950 . S
H1194 C1223 0.950 . S
H1195 C1224 0.950 . S
H1196 C1226 0.950 . S
H1197 C1227 0.950 . S
C1198 H1180 0.951 . S
C1198 C1199 1.366 . S
C1198 C1200 1.388 . S
C1199 C1198 1.366 . S
C1199 C1203 1.385 . S
C1200 H1181 0.951 . S
C1200 C1198 1.388 . S
C1200 C1201 1.366 . S
C1201 C1200 1.366 . S
C1201 C1202 1.414 . S
C1201 C1204 1.499 . S
C1202 H1182 0.950 . S
C1202 C1201 1.414 . S
C1202 C1203 1.374 . S
C1203 H1183 0.950 . S
C1203 C1199 1.385 . S
C1203 C1202 1.374 . S
C1204 C1201 1.499 . S
C1204 C1205 1.373 . S
C1204 C1206 1.389 . S
C1205 H1184 0.950 . S
C1205 C1204 1.373 . S
C1205 C1221 1.377 . S
C1206 C1204 1.389 . S
C1206 C1207 1.524 . S
C1206 C1220 1.377 . S
C1207 C1206 1.524 . S
C1207 C1208 1.397 . S
C1207 C1212 1.363 . S
C1208 H1185 0.950 . S
C1208 C1207 1.397 . S
C1208 C1209 1.334 . S
C1209 H1186 0.950 . S
C1209 C1208 1.334 . S
C1209 C1210 1.287 . S
C1210 C1209 1.287 . S
C1210 C1211 1.524 . S
C1210 H1229 0.913 . S
C1211 H1187 0.950 . S
C1211 C1210 1.524 . S
C1211 C1212 1.415 . S
C1212 H1188 0.950 . S
C1212 C1207 1.363 . S
C1212 C1211 1.415 . S
C1213 H1189 0.951 . S
C1213 C1214 1.366 . S
C1213 C1215 1.388 . S
C1214 C1213 1.366 . S
C1214 C1218 1.385 . S
C1215 H1190 0.951 . S
C1215 C1213 1.388 . S
C1215 C1216 1.366 . S
C1216 C1215 1.366 . S
C1216 C1217 1.414 . S
C1216 C1219 1.499 . S
C1217 H1191 0.950 . S
C1217 C1216 1.414 . S
C1217 C1218 1.374 . S
C1218 H1192 0.950 . S
C1218 C1214 1.385 . S
C1218 C1217 1.374 . S
C1219 C1216 1.499 . S
C1219 C1220 1.373 . S
C1219 C1221 1.389 . S
C1220 H1193 0.950 . S
C1220 C1206 1.377 . S
C1220 C1219 1.373 . S
C1221 C1205 1.377 . S
C1221 C1219 1.389 . S
C1221 C1222 1.524 . S
C1222 C1221 1.524 . S
C1222 C1223 1.397 . S
C1222 C1227 1.363 . S
C1223 H1194 0.950 . S
C1223 C1222 1.397 . S
C1223 C1224 1.334 . S
C1224 H1195 0.950 . S
C1224 C1223 1.334 . S
C1224 C1225 1.287 . S
C1225 C1224 1.287 . S
C1225 C1226 1.524 . S
C1225 H1228 0.999 . S
C1226 H1196 0.950 . S
C1226 C1225 1.524 . S
C1226 C1227 1.415 . S
C1227 H1197 0.950 . S
C1227 C1222 1.363 . S
C1227 C1226 1.415 . S
H1228 C1225 0.999 . S
H1229 C1210 0.913 . S
H1230 C1248 0.951 . S
H1231 C1250 0.951 . S
H1232 C1252 0.950 . S
H1233 C1253 0.950 . S
H1234 C1255 0.950 . S
H1235 C1258 0.950 . S
H1236 C1259 0.950 . S
H1237 C1261 0.950 . S
H1238 C1262 0.950 . S
H1239 C1263 0.951 . S
H1240 C1265 0.951 . S
H1241 C1267 0.950 . S
H1242 C1268 0.950 . S
H1243 C1270 0.950 . S
H1244 C1273 0.950 . S
H1245 C1274 0.950 . S
H1246 C1276 0.950 . S
H1247 C1277 0.950 . S
C1248 H1230 0.951 . S
C1248 C1249 1.366 . S
C1248 C1250 1.388 . S
C1249 C1248 1.366 . S
C1249 C1253 1.385 . S
C1250 H1231 0.951 . S
C1250 C1248 1.388 . S
C1250 C1251 1.366 . S
C1251 C1250 1.366 . S
C1251 C1252 1.414 . S
C1251 C1254 1.499 . S
C1252 H1232 0.950 . S
C1252 C1251 1.414 . S
C1252 C1253 1.374 . S
C1253 H1233 0.950 . S
C1253 C1249 1.385 . S
C1253 C1252 1.374 . S
C1254 C1251 1.499 . S
C1254 C1255 1.373 . S
C1254 C1256 1.389 . S
C1255 H1234 0.950 . S
C1255 C1254 1.373 . S
C1255 C1271 1.377 . S
C1256 C1254 1.389 . S
C1256 C1257 1.524 . S
C1256 C1270 1.377 . S
C1257 C1256 1.524 . S
C1257 C1258 1.397 . S
C1257 C1262 1.363 . S
C1258 H1235 0.950 . S
C1258 C1257 1.397 . S
C1258 C1259 1.334 . S
C1259 H1236 0.950 . S
C1259 C1258 1.334 . S
C1259 C1260 1.287 . S
C1260 C1259 1.287 . S
C1260 C1261 1.524 . S
C1260 H1279 0.913 . S
C1261 H1237 0.950 . S
C1261 C1260 1.524 . S
C1261 C1262 1.415 . S
C1262 H1238 0.950 . S
C1262 C1257 1.363 . S
C1262 C1261 1.415 . S
C1263 H1239 0.951 . S
C1263 C1264 1.366 . S
C1263 C1265 1.388 . S
C1264 C1263 1.366 . S
C1264 C1268 1.385 . S
C1265 H1240 0.951 . S
C1265 C1263 1.388 . S
C1265 C1266 1.366 . S
C1266 C1265 1.366 . S
C1266 C1267 1.414 . S
C1266 C1269 1.499 . S
C1267 H1241 0.950 . S
C1267 C1266 1.414 . S
C1267 C1268 1.374 . S
C1268 H1242 0.950 . S
C1268 C1264 1.385 . S
C1268 C1267 1.374 . S
C1269 C1266 1.499 . S
C1269 C1270 1.373 . S
C1269 C1271 1.389 . S
C1270 H1243 0.950 . S
C1270 C1256 1.377 . S
C1270 C1269 1.373 . S
C1271 C1255 1.377 . S
C1271 C1269 1.389 . S
C1271 C1272 1.524 . S
C1272 C1271 1.524 . S
C1272 C1273 1.397 . S
C1272 C1277 1.363 . S
C1273 H1244 0.950 . S
C1273 C1272 1.397 . S
C1273 C1274 1.334 . S
C1274 H1245 0.950 . S
C1274 C1273 1.334 . S
C1274 C1275 1.287 . S
C1275 C1274 1.287 . S
C1275 C1276 1.524 . S
C1275 H1278 0.999 . S
C1276 H1246 0.950 . S
C1276 C1275 1.524 . S
C1276 C1277 1.415 . S
C1277 H1247 0.950 . S
C1277 C1272 1.363 . S
C1277 C1276 1.415 . S
H1278 C1275 0.999 . S
H1279 C1260 0.913 . S
H1280 C1298 0.951 . S
H1281 C1300 0.951 . S
H1282 C1302 0.950 . S
H1283 C1303 0.950 . S
H1284 C1305 0.950 . S
H1285 C1308 0.950 . S
H1286 C1309 0.950 . S
H1287 C1311 0.950 . S
H1288 C1312 0.950 . S
H1289 C1313 0.951 . S
H1290 C1315 0.951 . S
H1291 C1317 0.950 . S
H1292 C1318 0.950 . S
H1293 C1320 0.950 . S
H1294 C1323 0.950 . S
H1295 C1324 0.950 . S
H1296 C1326 0.950 . S
H1297 C1327 0.950 . S
C1298 H1280 0.951 . S
C1298 C1299 1.366 . S
C1298 C1300 1.388 . S
C1299 C1298 1.366 . S
C1299 C1303 1.385 . S
C1300 H1281 0.951 . S
C1300 C1298 1.388 . S
C1300 C1301 1.366 . S
C1301 C1300 1.366 . S
C1301 C1302 1.414 . S
C1301 C1304 1.499 . S
C1302 H1282 0.950 . S
C1302 C1301 1.414 . S
C1302 C1303 1.374 . S
C1303 H1283 0.950 . S
C1303 C1299 1.385 . S
C1303 C1302 1.374 . S
C1304 C1301 1.499 . S
C1304 C1305 1.373 . S
C1304 C1306 1.389 . S
C1305 H1284 0.950 . S
C1305 C1304 1.373 . S
C1305 C1321 1.377 . S
C1306 C1304 1.389 . S
C1306 C1307 1.524 . S
C1306 C1320 1.377 . S
C1307 C1306 1.524 . S
C1307 C1308 1.397 . S
C1307 C1312 1.363 . S
C1308 H1285 0.950 . S
C1308 C1307 1.397 . S
C1308 C1309 1.334 . S
C1309 H1286 0.950 . S
C1309 C1308 1.334 . S
C1309 C1310 1.287 . S
C1310 C1309 1.287 . S
C1310 C1311 1.524 . S
C1310 H1329 0.913 . S
C1311 H1287 0.950 . S
C1311 C1310 1.524 . S
C1311 C1312 1.415 . S
C1312 H1288 0.950 . S
C1312 C1307 1.363 . S
C1312 C1311 1.415 . S
C1313 H1289 0.951 . S
C1313 C1314 1.366 . S
C1313 C1315 1.388 . S
C1314 C1313 1.366 . S
C1314 C1318 1.385 . S
C1315 H1290 0.951 . S
C1315 C1313 1.388 . S
C1315 C1316 1.366 . S
C1316 C1315 1.366 . S
C1316 C1317 1.414 . S
C1316 C1319 1.499 . S
C1317 H1291 0.950 . S
C1317 C1316 1.414 . S
C1317 C1318 1.374 . S
C1318 H1292 0.950 . S
C1318 C1314 1.385 . S
C1318 C1317 1.374 . S
C1319 C1316 1.499 . S
C1319 C1320 1.373 . S
C1319 C1321 1.389 . S
C1320 H1293 0.950 . S
C1320 C1306 1.377 . S
C1320 C1319 1.373 . S
C1321 C1305 1.377 . S
C1321 C1319 1.389 . S
C1321 C1322 1.524 . S
C1322 C1321 1.524 . S
C1322 C1323 1.397 . S
C1322 C1327 1.363 . S
C1323 H1294 0.950 . S
C1323 C1322 1.397 . S
C1323 C1324 1.334 . S
C1324 H1295 0.950 . S
C1324 C1323 1.334 . S
C1324 C1325 1.287 . S
C1325 C1324 1.287 . S
C1325 C1326 1.524 . S
C1325 H1328 0.999 . S
C1326 H1296 0.950 . S
C1326 C1325 1.524 . S
C1326 C1327 1.415 . S
C1327 H1297 0.950 . S
C1327 C1322 1.363 . S
C1327 C1326 1.415 . S
H1328 C1325 0.999 . S
H1329 C1310 0.913 . S
H1330 C1348 0.951 . S
H1331 C1350 0.951 . S
H1332 C1352 0.950 . S
H1333 C1353 0.950 . S
H1334 C1355 0.950 . S
H1335 C1358 0.950 . S
H1336 C1359 0.950 . S
H1337 C1361 0.950 . S
H1338 C1362 0.950 . S
H1339 C1363 0.951 . S
H1340 C1365 0.951 . S
H1341 C1367 0.950 . S
H1342 C1368 0.950 . S
H1343 C1370 0.950 . S
H1344 C1373 0.950 . S
H1345 C1374 0.950 . S
H1346 C1376 0.950 . S
H1347 C1377 0.950 . S
C1348 H1330 0.951 . S
C1348 C1349 1.366 . S
C1348 C1350 1.388 . S
C1349 C1348 1.366 . S
C1349 C1353 1.385 . S
C1350 H1331 0.951 . S
C1350 C1348 1.388 . S
C1350 C1351 1.366 . S
C1351 C1350 1.366 . S
C1351 C1352 1.414 . S
C1351 C1354 1.499 . S
C1352 H1332 0.950 . S
C1352 C1351 1.414 . S
C1352 C1353 1.374 . S
C1353 H1333 0.950 . S
C1353 C1349 1.385 . S
C1353 C1352 1.374 . S
C1354 C1351 1.499 . S
C1354 C1355 1.373 . S
C1354 C1356 1.389 . S
C1355 H1334 0.950 . S
C1355 C1354 1.373 . S
C1355 C1371 1.377 . S
C1356 C1354 1.389 . S
C1356 C1357 1.524 . S
C1356 C1370 1.377 . S
C1357 C1356 1.524 . S
C1357 C1358 1.397 . S
C1357 C1362 1.363 . S
C1358 H1335 0.950 . S
C1358 C1357 1.397 . S
C1358 C1359 1.334 . S
C1359 H1336 0.950 . S
C1359 C1358 1.334 . S
C1359 C1360 1.287 . S
C1360 C1359 1.287 . S
C1360 C1361 1.524 . S
C1360 H1379 0.913 . S
C1361 H1337 0.950 . S
C1361 C1360 1.524 . S
C1361 C1362 1.415 . S
C1362 H1338 0.950 . S
C1362 C1357 1.363 . S
C1362 C1361 1.415 . S
C1363 H1339 0.951 . S
C1363 C1364 1.366 . S
C1363 C1365 1.388 . S
C1364 C1363 1.366 . S
C1364 C1368 1.385 . S
C1365 H1340 0.951 . S
C1365 C1363 1.388 . S
C1365 C1366 1.366 . S
C1366 C1365 1.366 . S
C1366 C1367 1.414 . S
C1366 C1369 1.499 . S
C1367 H1341 0.950 . S
C1367 C1366 1.414 . S
C1367 C1368 1.374 . S
C1368 H1342 0.950 . S
C1368 C1364 1.385 . S
C1368 C1367 1.374 . S
C1369 C1366 1.499 . S
C1369 C1370 1.373 . S
C1369 C1371 1.389 . S
C1370 H1343 0.950 . S
C1370 C1356 1.377 . S
C1370 C1369 1.373 . S
C1371 C1355 1.377 . S
C1371 C1369 1.389 . S
C1371 C1372 1.524 . S
C1372 C1371 1.524 . S
C1372 C1373 1.397 . S
C1372 C1377 1.363 . S
C1373 H1344 0.950 . S
C1373 C1372 1.397 . S
C1373 C1374 1.334 . S
C1374 H1345 0.950 . S
C1374 C1373 1.334 . S
C1374 C1375 1.287 . S
C1375 C1374 1.287 . S
C1375 C1376 1.524 . S
C1375 H1378 0.999 . S
C1376 H1346 0.950 . S
C1376 C1375 1.524 . S
C1376 C1377 1.415 . S
C1377 H1347 0.950 . S
C1377 C1372 1.363 . S
C1377 C1376 1.415 . S
H1378 C1375 0.999 . S
H1379 C1360 0.913 . S
H1380 C1398 0.951 . S
H1381 C1400 0.951 . S
H1382 C1402 0.950 . S
H1383 C1403 0.950 . S
H1384 C1405 0.950 . S
H1385 C1408 0.950 . S
H1386 C1409 0.950 . S
H1387 C1411 0.950 . S
H1388 C1412 0.950 . S
H1389 C1413 0.951 . S
H1390 C1415 0.951 . S
H1391 C1417 0.950 . S
H1392 C1418 0.950 . S
H1393 C1420 0.950 . S
H1394 C1423 0.950 . S
H1395 C1424 0.950 . S
H1396 C1426 0.950 . S
H1397 C1427 0.950 . S
C1398 H1380 0.951 . S
C1398 C1399 1.366 . S
C1398 C1400 1.388 . S
C1399 C1398 1.366 . S
C1399 C1403 1.385 . S
C1400 H1381 0.951 . S
C1400 C1398 1.388 . S
C1400 C1401 1.366 . S
C1401 C1400 1.366 . S
C1401 C1402 1.414 . S
C1401 C1404 1.499 . S
C1402 H1382 0.950 . S
C1402 C1401 1.414 . S
C1402 C1403 1.374 . S
C1403 H1383 0.950 . S
C1403 C1399 1.385 . S
C1403 C1402 1.374 . S
C1404 C1401 1.499 . S
C1404 C1405 1.373 . S
C1404 C1406 1.389 . S
C1405 H1384 0.950 . S
C1405 C1404 1.373 . S
C1405 C1421 1.377 . S
C1406 C1404 1.389 . S
C1406 C1407 1.524 . S
C1406 C1420 1.377 . S
C1407 C1406 1.524 . S
C1407 C1408 1.397 . S
C1407 C1412 1.363 . S
C1408 H1385 0.950 . S
C1408 C1407 1.397 . S
C1408 C1409 1.334 . S
C1409 H1386 0.950 . S
C1409 C1408 1.334 . S
C1409 C1410 1.287 . S
C1410 C1409 1.287 . S
C1410 C1411 1.524 . S
C1410 H1429 0.913 . S
C1411 H1387 0.950 . S
C1411 C1410 1.524 . S
C1411 C1412 1.415 . S
C1412 H1388 0.950 . S
C1412 C1407 1.363 . S
C1412 C1411 1.415 . S
C1413 H1389 0.951 . S
C1413 C1414 1.366 . S
C1413 C1415 1.388 . S
C1414 C1413 1.366 . S
C1414 C1418 1.385 . S
C1415 H1390 0.951 . S
C1415 C1413 1.388 . S
C1415 C1416 1.366 . S
C1416 C1415 1.366 . S
C1416 C1417 1.414 . S
C1416 C1419 1.499 . S
C1417 H1391 0.950 . S
C1417 C1416 1.414 . S
C1417 C1418 1.374 . S
C1418 H1392 0.950 . S
C1418 C1414 1.385 . S
C1418 C1417 1.374 . S
C1419 C1416 1.499 . S
C1419 C1420 1.373 . S
C1419 C1421 1.389 . S
C1420 H1393 0.950 . S
C1420 C1406 1.377 . S
C1420 C1419 1.373 . S
C1421 C1405 1.377 . S
C1421 C1419 1.389 . S
C1421 C1422 1.524 . S
C1422 C1421 1.524 . S
C1422 C1423 1.397 . S
C1422 C1427 1.363 . S
C1423 H1394 0.950 . S
C1423 C1422 1.397 . S
C1423 C1424 1.334 . S
C1424 H1395 0.950 . S
C1424 C1423 1.334 . S
C1424 C1425 1.287 . S
C1425 C1424 1.287 . S
C1425 C1426 1.524 . S
C1425 H1428 0.999 . S
C1426 H1396 0.950 . S
C1426 C1425 1.524 . S
C1426 C1427 1.415 . S
C1427 H1397 0.950 . S
C1427 C1422 1.363 . S
C1427 C1426 1.415 . S
H1428 C1425 0.999 . S
H1429 C1410 0.913 . S
H1430 C1448 0.951 . S
H1431 C1450 0.951 . S
H1432 C1452 0.950 . S
H1433 C1453 0.950 . S
H1434 C1455 0.950 . S
H1435 C1458 0.950 . S
H1436 C1459 0.950 . S
H1437 C1461 0.950 . S
H1438 C1462 0.950 . S
H1439 C1463 0.951 . S
H1440 C1465 0.951 . S
H1441 C1467 0.950 . S
H1442 C1468 0.950 . S
H1443 C1470 0.950 . S
H1444 C1473 0.950 . S
H1445 C1474 0.950 . S
H1446 C1476 0.950 . S
H1447 C1477 0.950 . S
C1448 H1430 0.951 . S
C1448 C1449 1.366 . S
C1448 C1450 1.388 . S
C1449 C1448 1.366 . S
C1449 C1453 1.385 . S
C1450 H1431 0.951 . S
C1450 C1448 1.388 . S
C1450 C1451 1.366 . S
C1451 C1450 1.366 . S
C1451 C1452 1.414 . S
C1451 C1454 1.499 . S
C1452 H1432 0.950 . S
C1452 C1451 1.414 . S
C1452 C1453 1.374 . S
C1453 H1433 0.950 . S
C1453 C1449 1.385 . S
C1453 C1452 1.374 . S
C1454 C1451 1.499 . S
C1454 C1455 1.373 . S
C1454 C1456 1.389 . S
C1455 H1434 0.950 . S
C1455 C1454 1.373 . S
C1455 C1471 1.377 . S
C1456 C1454 1.389 . S
C1456 C1457 1.524 . S
C1456 C1470 1.377 . S
C1457 C1456 1.524 . S
C1457 C1458 1.397 . S
C1457 C1462 1.363 . S
C1458 H1435 0.950 . S
C1458 C1457 1.397 . S
C1458 C1459 1.334 . S
C1459 H1436 0.950 . S
C1459 C1458 1.334 . S
C1459 C1460 1.287 . S
C1460 C1459 1.287 . S
C1460 C1461 1.524 . S
C1460 H1479 0.913 . S
C1461 H1437 0.950 . S
C1461 C1460 1.524 . S
C1461 C1462 1.415 . S
C1462 H1438 0.950 . S
C1462 C1457 1.363 . S
C1462 C1461 1.415 . S
C1463 H1439 0.951 . S
C1463 C1464 1.366 . S
C1463 C1465 1.388 . S
C1464 C1463 1.366 . S
C1464 C1468 1.385 . S
C1465 H1440 0.951 . S
C1465 C1463 1.388 . S
C1465 C1466 1.366 . S
C1466 C1465 1.366 . S
C1466 C1467 1.414 . S
C1466 C1469 1.499 . S
C1467 H1441 0.950 . S
C1467 C1466 1.414 . S
C1467 C1468 1.374 . S
C1468 H1442 0.950 . S
C1468 C1464 1.385 . S
C1468 C1467 1.374 . S
C1469 C1466 1.499 . S
C1469 C1470 1.373 . S
C1469 C1471 1.389 . S
C1470 H1443 0.950 . S
C1470 C1456 1.377 . S
C1470 C1469 1.373 . S
C1471 C1455 1.377 . S
C1471 C1469 1.389 . S
C1471 C1472 1.524 . S
C1472 C1471 1.524 . S
C1472 C1473 1.397 . S
C1472 C1477 1.363 . S
C1473 H1444 0.950 . S
C1473 C1472 1.397 . S
C1473 C1474 1.334 . S
C1474 H1445 0.950 . S
C1474 C1473 1.334 . S
C1474 C1475 1.287 . S
C1475 C1474 1.287 . S
C1475 C1476 1.524 . S
C1475 H1478 0.999 . S
C1476 H1446 0.950 . S
C1476 C1475 1.524 . S
C1476 C1477 1.415 . S
C1477 H1447 0.950 . S
C1477 C1472 1.363 . S
C1477 C1476 1.415 . S
H1478 C1475 0.999 . S
H1479 C1460 0.913 . S
H1480 C1498 0.951 . S
H1481 C1500 0.951 . S
H1482 C1502 0.950 . S
H1483 C1503 0.950 . S
H1484 C1505 0.950 . S
H1485 C1508 0.950 . S
H1486 C1509 0.950 . S
H1487 C1511 0.950 . S
H1488 C1512 0.950 . S
H1489 C1513 0.951 . S
H1490 C1515 0.951 . S
H1491 C1517 0.950 . S
H1492 C1518 0.950 . S
H1493 C1520 0.950 . S
H1494 C1523 0.950 . S
H1495 C1524 0.950 . S
H1496 C1526 0.950 . S
H1497 C1527 0.950 . S
C1498 H1480 0.951 . S
C1498 C1499 1.366 . S
C1498 C1500 1.388 . S
C1499 C1498 1.366 . S
C1499 C1503 1.385 . S
C1500 H1481 0.951 . S
C1500 C1498 1.388 . S
C1500 C1501 1.366 . S
C1501 C1500 1.366 . S
C1501 C1502 1.414 . S
C1501 C1504 1.499 . S
C1502 H1482 0.950 . S
C1502 C1501 1.414 . S
C1502 C1503 1.374 . S
C1503 H1483 0.950 . S
C1503 C1499 1.385 . S
C1503 C1502 1.374 . S
C1504 C1501 1.499 . S
C1504 C1505 1.373 . S
C1504 C1506 1.389 . S
C1505 H1484 0.950 . S
C1505 C1504 1.373 . S
C1505 C1521 1.377 . S
C1506 C1504 1.389 . S
C1506 C1507 1.524 . S
C1506 C1520 1.377 . S
C1507 C1506 1.524 . S
C1507 C1508 1.397 . S
C1507 C1512 1.363 . S
C1508 H1485 0.950 . S
C1508 C1507 1.397 . S
C1508 C1509 1.334 . S
C1509 H1486 0.950 . S
C1509 C1508 1.334 . S
C1509 C1510 1.287 . S
C1510 C1509 1.287 . S
C1510 C1511 1.524 . S
C1510 H1529 0.913 . S
C1511 H1487 0.950 . S
C1511 C1510 1.524 . S
C1511 C1512 1.415 . S
C1512 H1488 0.950 . S
C1512 C1507 1.363 . S
C1512 C1511 1.415 . S
C1513 H1489 0.951 . S
C1513 C1514 1.366 . S
C1513 C1515 1.388 . S
C1514 C1513 1.366 . S
C1514 C1518 1.385 . S
C1515 H1490 0.951 . S
C1515 C1513 1.388 . S
C1515 C1516 1.366 . S
C1516 C1515 1.366 . S
C1516 C1517 1.414 . S
C1516 C1519 1.499 . S
C1517 H1491 0.950 . S
C1517 C1516 1.414 . S
C1517 C1518 1.374 . S
C1518 H1492 0.950 . S
C1518 C1514 1.385 . S
C1518 C1517 1.374 . S
C1519 C1516 1.499 . S
C1519 C1520 1.373 . S
C1519 C1521 1.389 . S
C1520 H1493 0.950 . S
C1520 C1506 1.377 . S
C1520 C1519 1.373 . S
C1521 C1505 1.377 . S
C1521 C1519 1.389 . S
C1521 C1522 1.524 . S
C1522 C1521 1.524 . S
C1522 C1523 1.397 . S
C1522 C1527 1.363 . S
C1523 H1494 0.950 . S
C1523 C1522 1.397 . S
C1523 C1524 1.334 . S
C1524 H1495 0.950 . S
C1524 C1523 1.334 . S
C1524 C1525 1.287 . S
C1525 C1524 1.287 . S
C1525 C1526 1.524 . S
C1525 H1528 0.999 . S
C1526 H1496 0.950 . S
C1526 C1525 1.524 . S
C1526 C1527 1.415 . S
C1527 H1497 0.950 . S
C1527 C1522 1.363 . S
C1527 C1526 1.415 . S
H1528 C1525 0.999 . S
H1529 C1510 0.913 . S
H1530 C1548 0.951 . S
H1531 C1550 0.951 . S
H1532 C1552 0.950 . S
H1533 C1553 0.950 . S
H1534 C1555 0.950 . S
H1535 C1558 0.950 . S
H1536 C1559 0.950 . S
H1537 C1561 0.950 . S
H1538 C1562 0.950 . S
H1539 C1563 0.951 . S
H1540 C1565 0.951 . S
H1541 C1567 0.950 . S
H1542 C1568 0.950 . S
H1543 C1570 0.950 . S
H1544 C1573 0.950 . S
H1545 C1574 0.950 . S
H1546 C1576 0.950 . S
H1547 C1577 0.950 . S
C1548 H1530 0.951 . S
C1548 C1549 1.366 . S
C1548 C1550 1.388 . S
C1549 C1548 1.366 . S
C1549 C1553 1.385 . S
C1550 H1531 0.951 . S
C1550 C1548 1.388 . S
C1550 C1551 1.366 . S
C1551 C1550 1.366 . S
C1551 C1552 1.414 . S
C1551 C1554 1.499 . S
C1552 H1532 0.950 . S
C1552 C1551 1.414 . S
C1552 C1553 1.374 . S
C1553 H1533 0.950 . S
C1553 C1549 1.385 . S
C1553 C1552 1.374 . S
C1554 C1551 1.499 . S
C1554 C1555 1.373 . S
C1554 C1556 1.389 . S
C1555 H1534 0.950 . S
C1555 C1554 1.373 . S
C1555 C1571 1.377 . S
C1556 C1554 1.389 . S
C1556 C1557 1.524 . S
C1556 C1570 1.377 . S
C1557 C1556 1.524 . S
C1557 C1558 1.397 . S
C1557 C1562 1.363 . S
C1558 H1535 0.950 . S
C1558 C1557 1.397 . S
C1558 C1559 1.334 . S
C1559 H1536 0.950 . S
C1559 C1558 1.334 . S
C1559 C1560 1.287 . S
C1560 C1559 1.287 . S
C1560 C1561 1.524 . S
C1560 H1579 0.913 . S
C1561 H1537 0.950 . S
C1561 C1560 1.524 . S
C1561 C1562 1.415 . S
C1562 H1538 0.950 . S
C1562 C1557 1.363 . S
C1562 C1561 1.415 . S
C1563 H1539 0.951 . S
C1563 C1564 1.366 . S
C1563 C1565 1.388 . S
C1564 C1563 1.366 . S
C1564 C1568 1.385 . S
C1565 H1540 0.951 . S
C1565 C1563 1.388 . S
C1565 C1566 1.366 . S
C1566 C1565 1.366 . S
C1566 C1567 1.414 . S
C1566 C1569 1.499 . S
C1567 H1541 0.950 . S
C1567 C1566 1.414 . S
C1567 C1568 1.374 . S
C1568 H1542 0.950 . S
C1568 C1564 1.385 . S
C1568 C1567 1.374 . S
C1569 C1566 1.499 . S
C1569 C1570 1.373 . S
C1569 C1571 1.389 . S
C1570 H1543 0.950 . S
C1570 C1556 1.377 . S
C1570 C1569 1.373 . S
C1571 C1555 1.377 . S
C1571 C1569 1.389 . S
C1571 C1572 1.524 . S
C1572 C1571 1.524 . S
C1572 C1573 1.397 . S
C1572 C1577 1.363 . S
C1573 H1544 0.950 . S
C1573 C1572 1.397 . S
C1573 C1574 1.334 . S
C1574 H1545 0.950 . S
C1574 C1573 1.334 . S
C1574 C1575 1.287 . S
C1575 C1574 1.287 . S
C1575 C1576 1.524 . S
C1575 H1578 0.999 . S
C1576 H1546 0.950 . S
C1576 C1575 1.524 . S
C1576 C1577 1.415 . S
C1577 H1547 0.950 . S
C1577 C1572 1.363 . S
C1577 C1576 1.415 . S
H1578 C1575 0.999 . S
H1579 C1560 0.913 . S
H1580 C1598 0.951 . S
H1581 C1600 0.951 . S
H1582 C1602 0.950 . S
H1583 C1603 0.950 . S
H1584 C1605 0.950 . S
H1585 C1608 0.950 . S
H1586 C1609 0.950 . S
H1587 C1611 0.950 . S
H1588 C1612 0.950 . S
H1589 C1613 0.951 . S
H1590 C1615 0.951 . S
H1591 C1617 0.950 . S
H1592 C1618 0.950 . S
H1593 C1620 0.950 . S
H1594 C1623 0.950 . S
H1595 C1624 0.950 . S
H1596 C1626 0.950 . S
H1597 C1627 0.950 . S
C1598 H1580 0.951 . S
C1598 C1599 1.366 . S
C1598 C1600 1.388 . S
C1599 C1598 1.366 . S
C1599 C1603 1.385 . S
C1600 H1581 0.951 . S
C1600 C1598 1.388 . S
C1600 C1601 1.366 . S
C1601 C1600 1.366 . S
C1601 C1602 1.414 . S
C1601 C1604 1.499 . S
C1602 H1582 0.950 . S
C1602 C1601 1.414 . S
C1602 C1603 1.374 . S
C1603 H1583 0.950 . S
C1603 C1599 1.385 . S
C1603 C1602 1.374 . S
C1604 C1601 1.499 . S
C1604 C1605 1.373 . S
C1604 C1606 1.389 . S
C1605 H1584 0.950 . S
C1605 C1604 1.373 . S
C1605 C1621 1.377 . S
C1606 C1604 1.389 . S
C1606 C1607 1.524 . S
C1606 C1620 1.377 . S
C1607 C1606 1.524 . S
C1607 C1608 1.397 . S
C1607 C1612 1.363 . S
C1608 H1585 0.950 . S
C1608 C1607 1.397 . S
C1608 C1609 1.334 . S
C1609 H1586 0.950 . S
C1609 C1608 1.334 . S
C1609 C1610 1.287 . S
C1610 C1609 1.287 . S
C1610 C1611 1.524 . S
C1610 H1629 0.913 . S
C1611 H1587 0.950 . S
C1611 C1610 1.524 . S
C1611 C1612 1.415 . S
C1612 H1588 0.950 . S
C1612 C1607 1.363 . S
C1612 C1611 1.415 . S
C1613 H1589 0.951 . S
C1613 C1614 1.366 . S
C1613 C1615 1.388 . S
C1614 C1613 1.366 . S
C1614 C1618 1.385 . S
C1615 H1590 0.951 . S
C1615 C1613 1.388 . S
C1615 C1616 1.366 . S
C1616 C1615 1.366 . S
C1616 C1617 1.414 . S
C1616 C1619 1.499 . S
C1617 H1591 0.950 . S
C1617 C1616 1.414 . S
C1617 C1618 1.374 . S
C1618 H1592 0.950 . S
C1618 C1614 1.385 . S
C1618 C1617 1.374 . S
C1619 C1616 1.499 . S
C1619 C1620 1.373 . S
C1619 C1621 1.389 . S
C1620 H1593 0.950 . S
C1620 C1606 1.377 . S
C1620 C1619 1.373 . S
C1621 C1605 1.377 . S
C1621 C1619 1.389 . S
C1621 C1622 1.524 . S
C1622 C1621 1.524 . S
C1622 C1623 1.397 . S
C1622 C1627 1.363 . S
C1623 H1594 0.950 . S
C1623 C1622 1.397 . S
C1623 C1624 1.334 . S
C1624 H1595 0.950 . S
C1624 C1623 1.334 . S
C1624 C1625 1.287 . S
C1625 C1624 1.287 . S
C1625 C1626 1.524 . S
C1625 H1628 0.999 . S
C1626 H1596 0.950 . S
C1626 C1625 1.524 . S
C1626 C1627 1.415 . S
C1627 H1597 0.950 . S
C1627 C1622 1.363 . S
C1627 C1626 1.415 . S
H1628 C1625 0.999 . S
H1629 C1610 0.913 . S
H1630 C1648 0.951 . S
H1631 C1650 0.951 . S
H1632 C1652 0.950 . S
H1633 C1653 0.950 . S
H1634 C1655 0.950 . S
H1635 C1658 0.950 . S
H1636 C1659 0.950 . S
H1637 C1661 0.950 . S
H1638 C1662 0.950 . S
H1639 C1663 0.951 . S
H1640 C1665 0.951 . S
H1641 C1667 0.950 . S
H1642 C1668 0.950 . S
H1643 C1670 0.950 . S
H1644 C1673 0.950 . S
H1645 C1674 0.950 . S
H1646 C1676 0.950 . S
H1647 C1677 0.950 . S
C1648 H1630 0.951 . S
C1648 C1649 1.366 . S
C1648 C1650 1.388 . S
C1649 C1648 1.366 . S
C1649 C1653 1.385 . S
C1650 H1631 0.951 . S
C1650 C1648 1.388 . S
C1650 C1651 1.366 . S
C1651 C1650 1.366 . S
C1651 C1652 1.414 . S
C1651 C1654 1.499 . S
C1652 H1632 0.950 . S
C1652 C1651 1.414 . S
C1652 C1653 1.374 . S
C1653 H1633 0.950 . S
C1653 C1649 1.385 . S
C1653 C1652 1.374 . S
C1654 C1651 1.499 . S
C1654 C1655 1.373 . S
C1654 C1656 1.389 . S
C1655 H1634 0.950 . S
C1655 C1654 1.373 . S
C1655 C1671 1.377 . S
C1656 C1654 1.389 . S
C1656 C1657 1.524 . S
C1656 C1670 1.377 . S
C1657 C1656 1.524 . S
C1657 C1658 1.397 . S
C1657 C1662 1.363 . S
C1658 H1635 0.950 . S
C1658 C1657 1.397 . S
C1658 C1659 1.334 . S
C1659 H1636 0.950 . S
C1659 C1658 1.334 . S
C1659 C1660 1.287 . S
C1660 C1659 1.287 . S
C1660 C1661 1.524 . S
C1660 H1679 0.913 . S
C1661 H1637 0.950 . S
C1661 C1660 1.524 . S
C1661 C1662 1.415 . S
C1662 H1638 0.950 . S
C1662 C1657 1.363 . S
C1662 C1661 1.415 . S
C1663 H1639 0.951 . S
C1663 C1664 1.366 . S
C1663 C1665 1.388 . S
C1664 C1663 1.366 . S
C1664 C1668 1.385 . S
C1665 H1640 0.951 . S
C1665 C1663 1.388 . S
C1665 C1666 1.366 . S
C1666 C1665 1.366 . S
C1666 C1667 1.414 . S
C1666 C1669 1.499 . S
C1667 H1641 0.950 . S
C1667 C1666 1.414 . S
C1667 C1668 1.374 . S
C1668 H1642 0.950 . S
C1668 C1664 1.385 . S
C1668 C1667 1.374 . S
C1669 C1666 1.499 . S
C1669 C1670 1.373 . S
C1669 C1671 1.389 . S
C1670 H1643 0.950 . S
C1670 C1656 1.377 . S
C1670 C1669 1.373 . S
C1671 C1655 1.377 . S
C1671 C1669 1.389 . S
C1671 C1672 1.524 . S
C1672 C1671 1.524 . S
C1672 C1673 1.397 . S
C1672 C1677 1.363 . S
C1673 H1644 0.950 . S
C1673 C1672 1.397 . S
C1673 C1674 1.334 . S
C1674 H1645 0.950 . S
C1674 C1673 1.334 . S
C1674 C1675 1.287 . S
C1675 C1674 1.287 . S
C1675 C1676 1.524 . S
C1675 H1678 0.999 . S
C1676 H1646 0.950 . S
C1676 C1675 1.524 . S
C1676 C1677 1.415 . S
C1677 H1647 0.950 . S
C1677 C1672 1.363 . S
C1677 C1676 1.415 . S
H1678 C1675 0.999 . S
H1679 C1660 0.913 . S
H1680 C1698 0.951 . S
H1681 C1700 0.951 . S
H1682 C1702 0.950 . S
H1683 C1703 0.950 . S
H1684 C1705 0.950 . S
H1685 C1708 0.950 . S
H1686 C1709 0.950 . S
H1687 C1711 0.950 . S
H1688 C1712 0.950 . S
H1689 C1713 0.951 . S
H1690 C1715 0.951 . S
H1691 C1717 0.950 . S
H1692 C1718 0.950 . S
H1693 C1720 0.950 . S
H1694 C1723 0.950 . S
H1695 C1724 0.950 . S
H1696 C1726 0.950 . S
H1697 C1727 0.950 . S
C1698 H1680 0.951 . S
C1698 C1699 1.366 . S
C1698 C1700 1.388 . S
C1699 C1698 1.366 . S
C1699 C1703 1.385 . S
C1700 H1681 0.951 . S
C1700 C1698 1.388 . S
C1700 C1701 1.366 . S
C1701 C1700 1.366 . S
C1701 C1702 1.414 . S
C1701 C1704 1.499 . S
C1702 H1682 0.950 . S
C1702 C1701 1.414 . S
C1702 C1703 1.374 . S
C1703 H1683 0.950 . S
C1703 C1699 1.385 . S
C1703 C1702 1.374 . S
C1704 C1701 1.499 . S
C1704 C1705 1.373 . S
C1704 C1706 1.389 . S
C1705 H1684 0.950 . S
C1705 C1704 1.373 . S
C1705 C1721 1.377 . S
C1706 C1704 1.389 . S
C1706 C1707 1.524 . S
C1706 C1720 1.377 . S
C1707 C1706 1.524 . S
C1707 C1708 1.397 . S
C1707 C1712 1.363 . S
C1708 H1685 0.950 . S
C1708 C1707 1.397 . S
C1708 C1709 1.334 . S
C1709 H1686 0.950 . S
C1709 C1708 1.334 . S
C1709 C1710 1.287 . S
C1710 C1709 1.287 . S
C1710 C1711 1.524 . S
C1710 H1729 0.913 . S
C1711 H1687 0.950 . S
C1711 C1710 1.524 . S
C1711 C1712 1.415 . S
C1712 H1688 0.950 . S
C1712 C1707 1.363 . S
C1712 C1711 1.415 . S
C1713 H1689 0.951 . S
C1713 C1714 1.366 . S
C1713 C1715 1.388 . S
C1714 C1713 1.366 . S
C1714 C1718 1.385 . S
C1715 H1690 0.951 . S
C1715 C1713 1.388 . S
C1715 C1716 1.366 . S
C1716 C1715 1.366 . S
C1716 C1717 1.414 . S
C1716 C1719 1.499 . S
C1717 H1691 0.950 . S
C1717 C1716 1.414 . S
C1717 C1718 1.374 . S
C1718 H1692 0.950 . S
C1718 C1714 1.385 . S
C1718 C1717 1.374 . S
C1719 C1716 1.499 . S
C1719 C1720 1.373 . S
C1719 C1721 1.389 . S
C1720 H1693 0.950 . S
C1720 C1706 1.377 . S
C1720 C1719 1.373 . S
C1721 C1705 1.377 . S
C1721 C1719 1.389 . S
C1721 C1722 1.524 . S
C1722 C1721 1.524 . S
C1722 C1723 1.397 . S
C1722 C1727 1.363 . S
C1723 H1694 0.950 . S
C1723 C1722 1.397 . S
C1723 C1724 1.334 . S
C1724 H1695 0.950 . S
C1724 C1723 1.334 . S
C1724 C1725 1.287 . S
C1725 C1724 1.287 . S
C1725 C1726 1.524 . S
C1725 H1728 0.999 . S
C1726 H1696 0.950 . S
C1726 C1725 1.524 . S
C1726 C1727 1.415 . S
C1727 H1697 0.950 . S
C1727 C1722 1.363 . S
C1727 C1726 1.415 . S
H1728 C1725 0.999 . S
H1729 C1710 0.913 . S
H1730 C1748 0.951 . S
H1731 C1750 0.951 . S
H1732 C1752 0.950 . S
H1733 C1753 0.950 . S
H1734 C1755 0.950 . S
H1735 C1758 0.950 . S
H1736 C1759 0.950 . S
H1737 C1761 0.950 . S
H1738 C1762 0.950 . S
H1739 C1763 0.951 . S
H1740 C1765 0.951 . S
H1741 C1767 0.950 . S
H1742 C1768 0.950 . S
H1743 C1770 0.950 . S
H1744 C1773 0.950 . S
H1745 C1774 0.950 . S
H1746 C1776 0.950 . S
H1747 C1777 0.950 . S
C1748 H1730 0.951 . S
C1748 C1749 1.366 . S
C1748 C1750 1.388 . S
C1749 C1748 1.366 . S
C1749 C1753 1.385 . S
C1750 H1731 0.951 . S
C1750 C1748 1.388 . S
C1750 C1751 1.366 . S
C1751 C1750 1.366 . S
C1751 C1752 1.414 . S
C1751 C1754 1.499 . S
C1752 H1732 0.950 . S
C1752 C1751 1.414 . S
C1752 C1753 1.374 . S
C1753 H1733 0.950 . S
C1753 C1749 1.385 . S
C1753 C1752 1.374 . S
C1754 C1751 1.499 . S
C1754 C1755 1.373 . S
C1754 C1756 1.389 . S
C1755 H1734 0.950 . S
C1755 C1754 1.373 . S
C1755 C1771 1.377 . S
C1756 C1754 1.389 . S
C1756 C1757 1.524 . S
C1756 C1770 1.377 . S
C1757 C1756 1.524 . S
C1757 C1758 1.397 . S
C1757 C1762 1.363 . S
C1758 H1735 0.950 . S
C1758 C1757 1.397 . S
C1758 C1759 1.334 . S
C1759 H1736 0.950 . S
C1759 C1758 1.334 . S
C1759 C1760 1.287 . S
C1760 C1759 1.287 . S
C1760 C1761 1.524 . S
C1760 H1779 0.913 . S
C1761 H1737 0.950 . S
C1761 C1760 1.524 . S
C1761 C1762 1.415 . S
C1762 H1738 0.950 . S
C1762 C1757 1.363 . S
C1762 C1761 1.415 . S
C1763 H1739 0.951 . S
C1763 C1764 1.366 . S
C1763 C1765 1.388 . S
C1764 C1763 1.366 . S
C1764 C1768 1.385 . S
C1765 H1740 0.951 . S
C1765 C1763 1.388 . S
C1765 C1766 1.366 . S
C1766 C1765 1.366 . S
C1766 C1767 1.414 . S
C1766 C1769 1.499 . S
C1767 H1741 0.950 . S
C1767 C1766 1.414 . S
C1767 C1768 1.374 . S
C1768 H1742 0.950 . S
C1768 C1764 1.385 . S
C1768 C1767 1.374 . S
C1769 C1766 1.499 . S
C1769 C1770 1.373 . S
C1769 C1771 1.389 . S
C1770 H1743 0.950 . S
C1770 C1756 1.377 . S
C1770 C1769 1.373 . S
C1771 C1755 1.377 . S
C1771 C1769 1.389 . S
C1771 C1772 1.524 . S
C1772 C1771 1.524 . S
C1772 C1773 1.397 . S
C1772 C1777 1.363 . S
C1773 H1744 0.950 . S
C1773 C1772 1.397 . S
C1773 C1774 1.334 . S
C1774 H1745 0.950 . S
C1774 C1773 1.334 . S
C1774 C1775 1.287 . S
C1775 C1774 1.287 . S
C1775 C1776 1.524 . S
C1775 H1778 0.999 . S
C1776 H1746 0.950 . S
C1776 C1775 1.524 . S
C1776 C1777 1.415 . S
C1777 H1747 0.950 . S
C1777 C1772 1.363 . S
C1777 C1776 1.415 . S
H1778 C1775 0.999 . S
H1779 C1760 0.913 . S
H1780 C1798 0.951 . S
H1781 C1800 0.951 . S
H1782 C1802 0.950 . S
H1783 C1803 0.950 . S
H1784 C1805 0.950 . S
H1785 C1808 0.950 . S
H1786 C1809 0.950 . S
H1787 C1811 0.950 . S
H1788 C1812 0.950 . S
H1789 C1813 0.951 . S
H1790 C1815 0.951 . S
H1791 C1817 0.950 . S
H1792 C1818 0.950 . S
H1793 C1820 0.950 . S
H1794 C1823 0.950 . S
H1795 C1824 0.950 . S
H1796 C1826 0.950 . S
H1797 C1827 0.950 . S
C1798 H1780 0.951 . S
C1798 C1799 1.366 . S
C1798 C1800 1.388 . S
C1799 C1798 1.366 . S
C1799 C1803 1.385 . S
C1800 H1781 0.951 . S
C1800 C1798 1.388 . S
C1800 C1801 1.366 . S
C1801 C1800 1.366 . S
C1801 C1802 1.414 . S
C1801 C1804 1.499 . S
C1802 H1782 0.950 . S
C1802 C1801 1.414 . S
C1802 C1803 1.374 . S
C1803 H1783 0.950 . S
C1803 C1799 1.385 . S
C1803 C1802 1.374 . S
C1804 C1801 1.499 . S
C1804 C1805 1.373 . S
C1804 C1806 1.389 . S
C1805 H1784 0.950 . S
C1805 C1804 1.373 . S
C1805 C1821 1.377 . S
C1806 C1804 1.389 . S
C1806 C1807 1.524 . S
C1806 C1820 1.377 . S
C1807 C1806 1.524 . S
C1807 C1808 1.397 . S
C1807 C1812 1.363 . S
C1808 H1785 0.950 . S
C1808 C1807 1.397 . S
C1808 C1809 1.334 . S
C1809 H1786 0.950 . S
C1809 C1808 1.334 . S
C1809 C1810 1.287 . S
C1810 C1809 1.287 . S
C1810 C1811 1.524 . S
C1810 H1829 0.913 . S
C1811 H1787 0.950 . S
C1811 C1810 1.524 . S
C1811 C1812 1.415 . S
C1812 H1788 0.950 . S
C1812 C1807 1.363 . S
C1812 C1811 1.415 . S
C1813 H1789 0.951 . S
C1813 C1814 1.366 . S
C1813 C1815 1.388 . S
C1814 C1813 1.366 . S
C1814 C1818 1.385 . S
C1815 H1790 0.951 . S
C1815 C1813 1.388 . S
C1815 C1816 1.366 . S
C1816 C1815 1.366 . S
C1816 C1817 1.414 . S
C1816 C1819 1.499 . S
C1817 H1791 0.950 . S
C1817 C1816 1.414 . S
C1817 C1818 1.374 . S
C1818 H1792 0.950 . S
C1818 C1814 1.385 . S
C1818 C1817 1.374 . S
C1819 C1816 1.499 . S
C1819 C1820 1.373 . S
C1819 C1821 1.389 . S
C1820 H1793 0.950 . S
C1820 C1806 1.377 . S
C1820 C1819 1.373 . S
C1821 C1805 1.377 . S
C1821 C1819 1.389 . S
C1821 C1822 1.524 . S
C1822 C1821 1.524 . S
C1822 C1823 1.397 . S
C1822 C1827 1.363 . S
C1823 H1794 0.950 . S
C1823 C1822 1.397 . S
C1823 C1824 1.334 . S
C1824 H1795 0.950 . S
C1824 C1823 1.334 . S
C1824 C1825 1.287 . S
C1825 C1824 1.287 . S
C1825 C1826 1.524 . S
C1825 H1828 0.999 . S
C1826 H1796 0.950 . S
C1826 C1825 1.524 . S
C1826 C1827 1.415 . S
C1827 H1797 0.950 . S
C1827 C1822 1.363 . S
C1827 C1826 1.415 . S
H1828 C1825 0.999 . S
H1829 C1810 0.913 . S
H1830 C1848 0.951 . S
H1831 C1850 0.951 . S
H1832 C1852 0.950 . S
H1833 C1853 0.950 . S
H1834 C1855 0.950 . S
H1835 C1858 0.950 . S
H1836 C1859 0.950 . S
H1837 C1861 0.950 . S
H1838 C1862 0.950 . S
H1839 C1863 0.951 . S
H1840 C1865 0.951 . S
H1841 C1867 0.950 . S
H1842 C1868 0.950 . S
H1843 C1870 0.950 . S
H1844 C1873 0.950 . S
H1845 C1874 0.950 . S
H1846 C1876 0.950 . S
H1847 C1877 0.950 . S
C1848 H1830 0.951 . S
C1848 C1849 1.366 . S
C1848 C1850 1.388 . S
C1849 C1848 1.366 . S
C1849 C1853 1.385 . S
C1850 H1831 0.951 . S
C1850 C1848 1.388 . S
C1850 C1851 1.366 . S
C1851 C1850 1.366 . S
C1851 C1852 1.414 . S
C1851 C1854 1.499 . S
C1852 H1832 0.950 . S
C1852 C1851 1.414 . S
C1852 C1853 1.374 . S
C1853 H1833 0.950 . S
C1853 C1849 1.385 . S
C1853 C1852 1.374 . S
C1854 C1851 1.499 . S
C1854 C1855 1.373 . S
C1854 C1856 1.389 . S
C1855 H1834 0.950 . S
C1855 C1854 1.373 . S
C1855 C1871 1.377 . S
C1856 C1854 1.389 . S
C1856 C1857 1.524 . S
C1856 C1870 1.377 . S
C1857 C1856 1.524 . S
C1857 C1858 1.397 . S
C1857 C1862 1.363 . S
C1858 H1835 0.950 . S
C1858 C1857 1.397 . S
C1858 C1859 1.334 . S
C1859 H1836 0.950 . S
C1859 C1858 1.334 . S
C1859 C1860 1.287 . S
C1860 C1859 1.287 . S
C1860 C1861 1.524 . S
C1860 H1879 0.913 . S
C1861 H1837 0.950 . S
C1861 C1860 1.524 . S
C1861 C1862 1.415 . S
C1862 H1838 0.950 . S
C1862 C1857 1.363 . S
C1862 C1861 1.415 . S
C1863 H1839 0.951 . S
C1863 C1864 1.366 . S
C1863 C1865 1.388 . S
C1864 C1863 1.366 . S
C1864 C1868 1.385 . S
C1865 H1840 0.951 . S
C1865 C1863 1.388 . S
C1865 C1866 1.366 . S
C1866 C1865 1.366 . S
C1866 C1867 1.414 . S
C1866 C1869 1.499 . S
C1867 H1841 0.950 . S
C1867 C1866 1.414 . S
C1867 C1868 1.374 . S
C1868 H1842 0.950 . S
C1868 C1864 1.385 . S
C1868 C1867 1.374 . S
C1869 C1866 1.499 . S
C1869 C1870 1.373 . S
C1869 C1871 1.389 . S
C1870 H1843 0.950 . S
C1870 C1856 1.377 . S
C1870 C1869 1.373 . S
C1871 C1855 1.377 . S
C1871 C1869 1.389 . S
C1871 C1872 1.524 . S
C1872 C1871 1.524 . S
C1872 C1873 1.397 . S
C1872 C1877 1.363 . S
C1873 H1844 0.950 . S
C1873 C1872 1.397 . S
C1873 C1874 1.334 . S
C1874 H1845 0.950 . S
C1874 C1873 1.334 . S
C1874 C1875 1.287 . S
C1875 C1874 1.287 . S
C1875 C1876 1.524 . S
C1875 H1878 0.999 . S
C1876 H1846 0.950 . S
C1876 C1875 1.524 . S
C1876 C1877 1.415 . S
C1877 H1847 0.950 . S
C1877 C1872 1.363 . S
C1877 C1876 1.415 . S
H1878 C1875 0.999 . S
H1879 C1860 0.913 . S
H1880 C1898 0.951 . S
H1881 C1900 0.951 . S
H1882 C1902 0.950 . S
H1883 C1903 0.950 . S
H1884 C1905 0.950 . S
H1885 C1908 0.950 . S
H1886 C1909 0.950 . S
H1887 C1911 0.950 . S
H1888 C1912 0.950 . S
H1889 C1913 0.951 . S
H1890 C1915 0.951 . S
H1891 C1917 0.950 . S
H1892 C1918 0.950 . S
H1893 C1920 0.950 . S
H1894 C1923 0.950 . S
H1895 C1924 0.950 . S
H1896 C1926 0.950 . S
H1897 C1927 0.950 . S
C1898 H1880 0.951 . S
C1898 C1899 1.366 . S
C1898 C1900 1.388 . S
C1899 C1898 1.366 . S
C1899 C1903 1.385 . S
C1900 H1881 0.951 . S
C1900 C1898 1.388 . S
C1900 C1901 1.366 . S
C1901 C1900 1.366 . S
C1901 C1902 1.414 . S
C1901 C1904 1.499 . S
C1902 H1882 0.950 . S
C1902 C1901 1.414 . S
C1902 C1903 1.374 . S
C1903 H1883 0.950 . S
C1903 C1899 1.385 . S
C1903 C1902 1.374 . S
C1904 C1901 1.499 . S
C1904 C1905 1.373 . S
C1904 C1906 1.389 . S
C1905 H1884 0.950 . S
C1905 C1904 1.373 . S
C1905 C1921 1.377 . S
C1906 C1904 1.389 . S
C1906 C1907 1.524 . S
C1906 C1920 1.377 . S
C1907 C1906 1.524 . S
C1907 C1908 1.397 . S
C1907 C1912 1.363 . S
C1908 H1885 0.950 . S
C1908 C1907 1.397 . S
C1908 C1909 1.334 . S
C1909 H1886 0.950 . S
C1909 C1908 1.334 . S
C1909 C1910 1.287 . S
C1910 C1909 1.287 . S
C1910 C1911 1.524 . S
C1910 H1929 0.913 . S
C1911 H1887 0.950 . S
C1911 C1910 1.524 . S
C1911 C1912 1.415 . S
C1912 H1888 0.950 . S
C1912 C1907 1.363 . S
C1912 C1911 1.415 . S
C1913 H1889 0.951 . S
C1913 C1914 1.366 . S
C1913 C1915 1.388 . S
C1914 C1913 1.366 . S
C1914 C1918 1.385 . S
C1915 H1890 0.951 . S
C1915 C1913 1.388 . S
C1915 C1916 1.366 . S
C1916 C1915 1.366 . S
C1916 C1917 1.414 . S
C1916 C1919 1.499 . S
C1917 H1891 0.950 . S
C1917 C1916 1.414 . S
C1917 C1918 1.374 . S
C1918 H1892 0.950 . S
C1918 C1914 1.385 . S
C1918 C1917 1.374 . S
C1919 C1916 1.499 . S
C1919 C1920 1.373 . S
C1919 C1921 1.389 . S
C1920 H1893 0.950 . S
C1920 C1906 1.377 . S
C1920 C1919 1.373 . S
C1921 C1905 1.377 . S
C1921 C1919 1.389 . S
C1921 C1922 1.524 . S
C1922 C1921 1.524 . S
C1922 C1923 1.397 . S
C1922 C1927 1.363 . S
C1923 H1894 0.950 . S
C1923 C1922 1.397 . S
C1923 C1924 1.334 . S
C1924 H1895 0.950 . S
C1924 C1923 1.334 . S
C1924 C1925 1.287 . S
C1925 C1924 1.287 . S
C1925 C1926 1.524 . S
C1925 H1928 0.999 . S
C1926 H1896 0.950 . S
C1926 C1925 1.524 . S
C1926 C1927 1.415 . S
C1927 H1897 0.950 . S
C1927 C1922 1.363 . S
C1927 C1926 1.415 . S
H1928 C1925 0.999 . S
H1929 C1910 0.913 . S
H1930 C1948 0.951 . S
H1931 C1950 0.951 . S
H1932 C1952 0.950 . S
H1933 C1953 0.950 . S
H1934 C1955 0.950 . S
H1935 C1958 0.950 . S
H1936 C1959 0.950 . S
H1937 C1961 0.950 . S
H1938 C1962 0.950 . S
H1939 C1963 0.951 . S
H1940 C1965 0.951 . S
H1941 C1967 0.950 . S
H1942 C1968 0.950 . S
H1943 C1970 0.950 . S
H1944 C1973 0.950 . S
H1945 C1974 0.950 . S
H1946 C1976 0.950 . S
H1947 C1977 0.950 . S
C1948 H1930 0.951 . S
C1948 C1949 1.366 . S
C1948 C1950 1.388 . S
C1949 C1948 1.366 . S
C1949 C1953 1.385 . S
C1950 H1931 0.951 . S
C1950 C1948 1.388 . S
C1950 C1951 1.366 . S
C1951 C1950 1.366 . S
C1951 C1952 1.414 . S
C1951 C1954 1.499 . S
C1952 H1932 0.950 . S
C1952 C1951 1.414 . S
C1952 C1953 1.374 . S
C1953 H1933 0.950 . S
C1953 C1949 1.385 . S
C1953 C1952 1.374 . S
C1954 C1951 1.499 . S
C1954 C1955 1.373 . S
C1954 C1956 1.389 . S
C1955 H1934 0.950 . S
C1955 C1954 1.373 . S
C1955 C1971 1.377 . S
C1956 C1954 1.389 . S
C1956 C1957 1.524 . S
C1956 C1970 1.377 . S
C1957 C1956 1.524 . S
C1957 C1958 1.397 . S
C1957 C1962 1.363 . S
C1958 H1935 0.950 . S
C1958 C1957 1.397 . S
C1958 C1959 1.334 . S
C1959 H1936 0.950 . S
C1959 C1958 1.334 . S
C1959 C1960 1.287 . S
C1960 C1959 1.287 . S
C1960 C1961 1.524 . S
C1960 H1979 0.913 . S
C1961 H1937 0.950 . S
C1961 C1960 1.524 . S
C1961 C1962 1.415 . S
C1962 H1938 0.950 . S
C1962 C1957 1.363 . S
C1962 C1961 1.415 . S
C1963 H1939 0.951 . S
C1963 C1964 1.366 . S
C1963 C1965 1.388 . S
C1964 C1963 1.366 . S
C1964 C1968 1.385 . S
C1965 H1940 0.951 . S
C1965 C1963 1.388 . S
C1965 C1966 1.366 . S
C1966 C1965 1.366 . S
C1966 C1967 1.414 . S
C1966 C1969 1.499 . S
C1967 H1941 0.950 . S
C1967 C1966 1.414 . S
C1967 C1968 1.374 . S
C1968 H1942 0.950 . S
C1968 C1964 1.385 . S
C1968 C1967 1.374 . S
C1969 C1966 1.499 . S
C1969 C1970 1.373 . S
C1969 C1971 1.389 . S
C1970 H1943 0.950 . S
C1970 C1956 1.377 . S
C1970 C1969 1.373 . S
C1971 C1955 1.377 . S
C1971 C1969 1.389 . S
C1971 C1972 1.524 . S
C1972 C1971 1.524 . S
C1972 C1973 1.397 . S
C1972 C1977 1.363 . S
C1973 H1944 0.950 . S
C1973 C1972 1.397 . S
C1973 C1974 1.334 . S
C1974 H1945 0.950 . S
C1974 C1973 1.334 . S
C1974 C1975 1.287 . S
C1975 C1974 1.287 . S
C1975 C1976 1.524 . S
C1975 H1978 0.999 . S
C1976 H1946 0.950 . S
C1976 C1975 1.524 . S
C1976 C1977 1.415 . S
C1977 H1947 0.950 . S
C1977 C1972 1.363 . S
C1977 C1976 1.415 . S
H1978 C1975 0.999 . S
H1979 C1960 0.913 . S
H1980 C1998 0.951 . S
H1981 C2000 0.951 . S
H1982 C2002 0.950 . S
H1983 C2003 0.950 . S
H1984 C2005 0.950 . S
H1985 C2008 0.950 . S
H1986 C2009 0.950 . S
H1987 C2011 0.950 . S
H1988 C2012 0.950 . S
H1989 C2013 0.951 . S
H1990 C2015 0.951 . S
H1991 C2017 0.950 . S
H1992 C2018 0.950 . S
H1993 C2020 0.950 . S
H1994 C2023 0.950 . S
H1995 C2024 0.950 . S
H1996 C2026 0.950 . S
H1997 C2027 0.950 . S
C1998 H1980 0.951 . S
C1998 C1999 1.366 . S
C1998 C2000 1.388 . S
C1999 C1998 1.366 . S
C1999 C2003 1.385 . S
C2000 H1981 0.951 . S
C2000 C1998 1.388 . S
C2000 C2001 1.366 . S
C2001 C2000 1.366 . S
C2001 C2002 1.414 . S
C2001 C2004 1.499 . S
C2002 H1982 0.950 . S
C2002 C2001 1.414 . S
C2002 C2003 1.374 . S
C2003 H1983 0.950 . S
C2003 C1999 1.385 . S
C2003 C2002 1.374 . S
C2004 C2001 1.499 . S
C2004 C2005 1.373 . S
C2004 C2006 1.389 . S
C2005 H1984 0.950 . S
C2005 C2004 1.373 . S
C2005 C2021 1.377 . S
C2006 C2004 1.389 . S
C2006 C2007 1.524 . S
C2006 C2020 1.377 . S
C2007 C2006 1.524 . S
C2007 C2008 1.397 . S
C2007 C2012 1.363 . S
C2008 H1985 0.950 . S
C2008 C2007 1.397 . S
C2008 C2009 1.334 . S
C2009 H1986 0.950 . S
C2009 C2008 1.334 . S
C2009 C2010 1.287 . S
C2010 C2009 1.287 . S
C2010 C2011 1.524 . S
C2010 H2029 0.913 . S
C2011 H1987 0.950 . S
C2011 C2010 1.524 . S
C2011 C2012 1.415 . S
C2012 H1988 0.950 . S
C2012 C2007 1.363 . S
C2012 C2011 1.415 . S
C2013 H1989 0.951 . S
C2013 C2014 1.366 . S
C2013 C2015 1.388 . S
C2014 C2013 1.366 . S
C2014 C2018 1.385 . S
C2015 H1990 0.951 . S
C2015 C2013 1.388 . S
C2015 C2016 1.366 . S
C2016 C2015 1.366 . S
C2016 C2017 1.414 . S
C2016 C2019 1.499 . S
C2017 H1991 0.950 . S
C2017 C2016 1.414 . S
C2017 C2018 1.374 . S
C2018 H1992 0.950 . S
C2018 C2014 1.385 . S
C2018 C2017 1.374 . S
C2019 C2016 1.499 . S
C2019 C2020 1.373 . S
C2019 C2021 1.389 . S
C2020 H1993 0.950 . S
C2020 C2006 1.377 . S
C2020 C2019 1.373 . S
C2021 C2005 1.377 . S
C2021 C2019 1.389 . S
C2021 C2022 1.524 . S
C2022 C2021 1.524 . S
C2022 C2023 1.397 . S
C2022 C2027 1.363 . S
C2023 H1994 0.950 . S
C2023 C2022 1.397 . S
C2023 C2024 1.334 . S
C2024 H1995 0.950 . S
C2024 C2023 1.334 . S
C2024 C2025 1.287 . S
C2025 C2024 1.287 . S
C2025 C2026 1.524 . S
C2025 H2028 0.999 . S
C2026 H1996 0.950 . S
C2026 C2025 1.524 . S
C2026 C2027 1.415 . S
C2027 H1997 0.950 . S
C2027 C2022 1.363 . S
C2027 C2026 1.415 . S
H2028 C2025 0.999 . S
H2029 C2010 0.913 . S
H2030 C2048 0.951 . S
H2031 C2050 0.951 . S
H2032 C2052 0.950 . S
H2033 C2053 0.950 . S
H2034 C2055 0.950 . S
H2035 C2058 0.950 . S
H2036 C2059 0.950 . S
H2037 C2061 0.950 . S
H2038 C2062 0.950 . S
H2039 C2063 0.951 . S
H2040 C2065 0.951 . S
H2041 C2067 0.950 . S
H2042 C2068 0.950 . S
H2043 C2070 0.950 . S
H2044 C2073 0.950 . S
H2045 C2074 0.950 . S
H2046 C2076 0.950 . S
H2047 C2077 0.950 . S
C2048 H2030 0.951 . S
C2048 C2049 1.366 . S
C2048 C2050 1.388 . S
C2049 C2048 1.366 . S
C2049 C2053 1.385 . S
C2050 H2031 0.951 . S
C2050 C2048 1.388 . S
C2050 C2051 1.366 . S
C2051 C2050 1.366 . S
C2051 C2052 1.414 . S
C2051 C2054 1.499 . S
C2052 H2032 0.950 . S
C2052 C2051 1.414 . S
C2052 C2053 1.374 . S
C2053 H2033 0.950 . S
C2053 C2049 1.385 . S
C2053 C2052 1.374 . S
C2054 C2051 1.499 . S
C2054 C2055 1.373 . S
C2054 C2056 1.389 . S
C2055 H2034 0.950 . S
C2055 C2054 1.373 . S
C2055 C2071 1.377 . S
C2056 C2054 1.389 . S
C2056 C2057 1.524 . S
C2056 C2070 1.377 . S
C2057 C2056 1.524 . S
C2057 C2058 1.397 . S
C2057 C2062 1.363 . S
C2058 H2035 0.950 . S
C2058 C2057 1.397 . S
C2058 C2059 1.334 . S
C2059 H2036 0.950 . S
C2059 C2058 1.334 . S
C2059 C2060 1.287 . S
C2060 C2059 1.287 . S
C2060 C2061 1.524 . S
C2060 H2079 0.913 . S
C2061 H2037 0.950 . S
C2061 C2060 1.524 . S
C2061 C2062 1.415 . S
C2062 H2038 0.950 . S
C2062 C2057 1.363 . S
C2062 C2061 1.415 . S
C2063 H2039 0.951 . S
C2063 C2064 1.366 . S
C2063 C2065 1.388 . S
C2064 C2063 1.366 . S
C2064 C2068 1.385 . S
C2065 H2040 0.951 . S
C2065 C2063 1.388 . S
C2065 C2066 1.366 . S
C2066 C2065 1.366 . S
C2066 C2067 1.414 . S
C2066 C2069 1.499 . S
C2067 H2041 0.950 . S
C2067 C2066 1.414 . S
C2067 C2068 1.374 . S
C2068 H2042 0.950 . S
C2068 C2064 1.385 . S
C2068 C2067 1.374 . S
C2069 C2066 1.499 . S
C2069 C2070 1.373 . S
C2069 C2071 1.389 . S
C2070 H2043 0.950 . S
C2070 C2056 1.377 . S
C2070 C2069 1.373 . S
C2071 C2055 1.377 . S
C2071 C2069 1.389 . S
C2071 C2072 1.524 . S
C2072 C2071 1.524 . S
C2072 C2073 1.397 . S
C2072 C2077 1.363 . S
C2073 H2044 0.950 . S
C2073 C2072 1.397 . S
C2073 C2074 1.334 . S
C2074 H2045 0.950 . S
C2074 C2073 1.334 . S
C2074 C2075 1.287 . S
C2075 C2074 1.287 . S
C2075 C2076 1.524 . S
C2075 H2078 0.999 . S
C2076 H2046 0.950 . S
C2076 C2075 1.524 . S
C2076 C2077 1.415 . S
C2077 H2047 0.950 . S
C2077 C2072 1.363 . S
C2077 C2076 1.415 . S
H2078 C2075 0.999 . S
H2079 C2060 0.913 . S
C514 C369 1.515 . S
C499 C15 1.518 . S
C564 C395 1.515 . S
C549 C68 1.516 . S
C614 C409 1.515 . S
C599 C107 1.520 . S
C664 C411 1.515 . S
C649 C160 1.518 . S
C699 C185 1.518 . S
C714 C408 1.514 . S
C764 C410 1.515 . S
C749 C252 1.518 . S
C814 C368 1.515 . S
C799 C277 1.518 . S
C864 C394 1.515 . S
C849 C330 1.519 . S
C914 C396 1.515 . S
C899 C323 1.520 . S
C964 C422 1.515 . S
C949 C192 1.518 . S
C1014 C380 1.515 . S
C999 C245 1.517 . S
C1064 C382 1.515 . S
C1049 C284 1.516 . S
C1114 C381 1.515 . S
C1099 C61 1.518 . S
C1164 C383 1.515 . S
C1149 C114 1.519 . S
C1214 C397 1.515 . S
C1199 C153 1.516 . S
C1264 C423 1.515 . S
C1249 C22 1.517 . S
C1314 C425 1.515 . S
C1299 C337 1.522 . S
C1349 C206 1.518 . S
C1364 C451 1.518 . S
C1399 C231 1.518 . S
C1414 C464 1.519 . S
C1449 C298 1.518 . S
C1464 C467 1.518 . S
C1499 C47 1.517 . S
C1514 C465 1.511 . S
C1549 C100 1.517 . S
C1564 C466 1.512 . S
C1599 C139 1.518 . S
C1614 C424 1.512 . S
C1664 C450 1.515 . S
C1649 C8 1.514 . S
C1714 C453 1.515 . S
C1699 C1 1.514 . S
C1749 C54 1.518 . S
C1764 C478 1.511 . S
C1799 C93 1.518 . S
C1814 C436 1.511 . S
C1849 C146 1.518 . S
C1864 C438 1.511 . S
C1914 C437 1.515 . S
C1899 C199 1.521 . S
C1964 C439 1.515 . S
C1949 C238 1.522 . S
C1999 C291 1.517 . S
C2014 C452 1.518 . S
C2064 C479 1.515 . S
C2049 C344 1.521 . S
