# Generated by pormake.
# Topology ssa, (4,4)-cn, num edge types: 1
# Building blocks:
#     Node 0, Type 0, BuildingBlock: GIZVER_clean_linker_0, # of connection points: 4
#     Node 1, Type 0, BuildingBlock: GIZVER_clean_linker_0, # of connection points: 4
#     Node 2, Type 0, BuildingBlock: GIZVER_clean_linker_0, # of connection points: 4
#     Node 3, Type 0, BuildingBlock: GIZVER_clean_linker_0, # of connection points: 4
#     Node 4, Type 0, BuildingBlock: GIZVER_clean_linker_0, # of connection points: 4
#     Node 5, Type 0, BuildingBlock: GIZVER_clean_linker_0, # of connection points: 4
#     Node 6, Type 1, BuildingBlock: MUDLON_clean_sbu_0, # of connection points: 4
#     Node 7, Type 1, BuildingBlock: MUDLON_clean_sbu_0, # of connection points: 4
#     Node 8, Type 1, BuildingBlock: MUDLON_clean_sbu_0, # of connection points: 4
#     Node 9, Type 1, BuildingBlock: MUDLON_clean_sbu_0, # of connection points: 4
#     Node 10, Type 1, BuildingBlock: MUDLON_clean_sbu_0, # of connection points: 4
#     Node 11, Type 1, BuildingBlock: MUDLON_clean_sbu_0, # of connection points: 4
#     Edge 12, Type (0, 1), BuildingBlock: OJICUG_clean_linker_0, # of connection points: 2
#     Edge 13, Type (0, 1), BuildingBlock: OJICUG_clean_linker_0, # of connection points: 2
#     Edge 14, Type (0, 1), BuildingBlock: OJICUG_clean_linker_0, # of connection points: 2
#     Edge 15, Type (0, 1), BuildingBlock: OJICUG_clean_linker_0, # of connection points: 2
#     Edge 16, Type (0, 1), BuildingBlock: OJICUG_clean_linker_0, # of connection points: 2
#     Edge 17, Type (0, 1), BuildingBlock: OJICUG_clean_linker_0, # of connection points: 2
#     Edge 18, Type (0, 1), BuildingBlock: OJICUG_clean_linker_0, # of connection points: 2
#     Edge 19, Type (0, 1), BuildingBlock: OJICUG_clean_linker_0, # of connection points: 2
#     Edge 20, Type (0, 1), BuildingBlock: OJICUG_clean_linker_0, # of connection points: 2
#     Edge 21, Type (0, 1), BuildingBlock: OJICUG_clean_linker_0, # of connection points: 2
#     Edge 22, Type (0, 1), BuildingBlock: OJICUG_clean_linker_0, # of connection points: 2
#     Edge 23, Type (0, 1), BuildingBlock: OJICUG_clean_linker_0, # of connection points: 2
#     Edge 24, Type (0, 1), BuildingBlock: OJICUG_clean_linker_0, # of connection points: 2
#     Edge 25, Type (0, 1), BuildingBlock: OJICUG_clean_linker_0, # of connection points: 2
#     Edge 26, Type (0, 1), BuildingBlock: OJICUG_clean_linker_0, # of connection points: 2
#     Edge 27, Type (0, 1), BuildingBlock: OJICUG_clean_linker_0, # of connection points: 2
#     Edge 28, Type (0, 1), BuildingBlock: OJICUG_clean_linker_0, # of connection points: 2
#     Edge 29, Type (0, 1), BuildingBlock: OJICUG_clean_linker_0, # of connection points: 2
#     Edge 30, Type (0, 1), BuildingBlock: OJICUG_clean_linker_0, # of connection points: 2
#     Edge 31, Type (0, 1), BuildingBlock: OJICUG_clean_linker_0, # of connection points: 2
#     Edge 32, Type (0, 1), BuildingBlock: OJICUG_clean_linker_0, # of connection points: 2
#     Edge 33, Type (0, 1), BuildingBlock: OJICUG_clean_linker_0, # of connection points: 2
#     Edge 34, Type (0, 1), BuildingBlock: OJICUG_clean_linker_0, # of connection points: 2
#     Edge 35, Type (0, 1), BuildingBlock: OJICUG_clean_linker_0, # of connection points: 2
# Relax obj value: 0.001
# Max RMSD: 0.030
# Mean RMSD: 0.018
data_MOF--net-ssa--node1-MUDLON_clean_sbu_0--node2-GIZVER_clean_linker_0--edge1-OJICUG_clean_linker_0
_symmetry_space_group_name_H-M    P1
_symmetry_Int_Tables_number       1
_symmetry_cell_setting            triclinic
loop_
_symmetry_equiv_pos_as_xyz
'x, y, z'
_cell_length_a     33.194086
_cell_length_b     33.817295
_cell_length_c     29.172606
_cell_angle_alpha  90.247772
_cell_angle_beta   90.609453
_cell_angle_gamma 119.82713
loop_
_atom_site_label
_atom_site_type_symbol
_atom_site_fract_x
_atom_site_fract_y
_atom_site_fract_z
_atom_type_partial_charge
H0 H 0.03805 0.57596 0.09446 0.0
H1 H 0.05722 0.45974 0.10821 0.0
H2 H 0.07925 0.54663 0.22454 0.0
H3 H 0.05902 0.54408 1.02846 0.0
H4 H 0.0647 0.49489 1.03432 0.0
H5 H 0.98556 0.53776 1.00873 0.0
H6 H 0.88101 0.40819 0.95354 0.0
H7 H 0.99462 0.41693 1.03318 0.0
C8 C 0.04448 0.5536 0.11603 0.0
C9 C 0.0564 0.56496 0.16268 0.0
C10 C 0.04432 0.51541 0.0962 0.0
C11 C 0.05495 0.48773 0.12378 0.0
C12 C 0.06785 0.49904 0.17001 0.0
C13 C 0.06751 0.53701 0.18933 0.0
C14 C 0.0429 0.50989 1.04459 0.0
C15 C 0.99448 0.48046 1.02492 0.0
C16 C 0.97068 0.50116 1.00545 0.0
C17 C 0.92984 0.47555 0.97905 0.0
C18 C 0.91145 0.42828 0.97505 0.0
C19 C 0.93425 0.40696 0.99493 0.0
C20 C 0.97582 0.43306 1.01977 0.0
H21 H 0.57086 -0.00532 0.62627 0.0
H22 H 0.45446 0.01596 0.64482 0.0
H23 H 0.59252 0.12146 0.6824 0.0
H24 H 0.48804 0.92948 0.63009 0.0
H25 H 0.4409 0.94054 0.63032 0.0
H26 H 0.53106 0.93694 0.55938 0.0
H27 H 0.4545 0.91888 0.43397 0.0
H28 H 0.41071 0.95375 0.55857 0.0
C29 C 0.55713 0.01663 0.63586 0.0
C30 C 0.58713 0.06028 0.65393 0.0
C31 C 0.50916 0.00089 0.6314 0.0
C32 C 0.4916 0.02896 0.64624 0.0
C33 C 0.52125 0.07232 0.66555 0.0
C34 C 0.56909 0.08797 0.66802 0.0
C35 C 0.47601 0.95245 0.61604 0.0
C36 C 0.47226 0.94739 0.56439 0.0
C37 C 0.50331 0.93809 0.54063 0.0
C38 C 0.4973 0.92789 0.49347 0.0
C39 C 0.46067 0.92887 0.46986 0.0
C40 C 0.42918 0.93821 0.49283 0.0
C41 C 0.43538 0.94767 0.54023 0.0
H42 H 0.63196 0.5904 0.15244 0.0
H43 H 0.50176 0.46609 0.16784 0.0
H44 H 0.52661 0.5896 0.23652 0.0
H45 H 0.62565 0.51257 0.14768 0.0
H46 H 0.57016 0.46263 0.14624 0.0
H47 H 0.65176 0.5668 0.0801 0.0
H48 H 0.60687 0.49403 0.95203 0.0
H49 H 0.53136 0.43259 0.07473 0.0
C50 C 0.59712 0.57222 0.1659 0.0
C51 C 0.58158 0.59525 0.1943 0.0
C52 C 0.56882 0.52525 0.15713 0.0
C53 C 0.52365 0.50209 0.17533 0.0
C54 C 0.50738 0.52491 0.20387 0.0
C55 C 0.53736 0.57141 0.21358 0.0
C56 C 0.58932 0.49874 0.13497 0.0
C57 C 0.59006 0.50037 0.08302 0.0
C58 C 0.62638 0.53757 0.0604 0.0
C59 C 0.63176 0.53588 1.0128 0.0
C60 C 0.60054 0.49653 0.98801 0.0
C61 C 0.56444 0.45873 1.00976 0.0
C62 C 0.55875 0.46154 0.05725 0.0
H63 H 0.03744 0.59622 0.64187 0.0
H64 H 0.0222 0.46301 0.6573 0.0
H65 H 0.90813 0.48532 0.68713 0.0
H66 H 0.10571 0.58631 0.65388 0.0
H67 H 0.09884 0.53121 0.66169 0.0
H68 H 0.09826 0.61159 0.5744 0.0
H69 H 0.15681 0.56362 0.47223 0.0
H70 H 0.10689 0.49005 0.59731 0.0
C71 C 0.01589 0.56021 0.64884 0.0
C72 C 0.96963 0.54319 0.66205 0.0
C73 C 0.03495 0.53117 0.64675 0.0
C74 C 0.00711 0.48498 0.65813 0.0
C75 C 0.96128 0.46787 0.6734 0.0
C76 C 0.94269 0.49721 0.67406 0.0
C77 C 0.08663 0.55063 0.64054 0.0
C78 C 0.10023 0.5505 0.59119 0.0
C79 C 0.10715 0.58659 0.56232 0.0
C80 C 0.12719 0.59143 0.51895 0.0
C81 C 0.13974 0.55949 0.50478 0.0
C82 C 0.13218 0.52282 0.53235 0.0
C83 C 0.11167 0.51779 0.57538 0.0
H84 H 0.50042 0.90918 1.0292 0.0
H85 H 0.38042 0.92575 1.04521 0.0
H86 H 0.42991 0.87861 0.15739 0.0
H87 H 0.46061 0.91555 0.96207 0.0
H88 H 0.40422 0.90874 0.96787 0.0
H89 H 0.53006 -0.00787 0.96581 0.0
H90 H 0.50638 0.10042 0.92192 0.0
H91 H 0.39261 0.97468 0.96882 0.0
C92 C 0.47354 0.90855 1.05045 0.0
C93 C 0.46909 0.89344 0.09587 0.0
C94 C 0.44134 0.92017 1.0318 0.0
C95 C 0.40575 0.91778 0.0596 0.0
C96 C 0.40185 0.90352 0.1053 0.0
C97 C 0.43364 0.89144 0.12275 0.0
C98 C 0.44061 0.92861 0.98103 0.0
C99 C 0.45963 0.97842 0.96996 0.0
C100 C 0.50717 0.00606 0.96097 0.0
C101 C 0.52459 0.05014 0.94301 0.0
C102 C 0.49411 0.06734 0.93737 0.0
C103 C 0.44671 0.04069 0.9472 0.0
C104 C 0.42952 -0.00391 0.96322 0.0
H105 H 0.59058 0.50094 0.55007 0.0
H106 H 0.44699 0.39494 0.54672 0.0
H107 H 0.52415 0.43301 0.67381 0.0
H108 H 0.55389 0.47404 0.47833 0.0
H109 H 0.50679 0.41728 0.47799 0.0
H110 H 0.53969 0.53892 0.46936 0.0
H111 H 0.41218 0.50536 0.39733 0.0
H112 H 0.42716 0.4005 0.46376 0.0
C113 C 0.55931 0.47736 0.56787 0.0
C114 C 0.56177 0.47116 0.61523 0.0
C115 C 0.5175 0.45113 0.5429 0.0
C116 C 0.47813 0.41788 0.56603 0.0
C117 C 0.4801 0.41179 0.61355 0.0
C118 C 0.52161 0.43959 0.63783 0.0
C119 C 0.51795 0.45228 0.49094 0.0
C120 C 0.48664 0.46823 0.46976 0.0
C121 C 0.50454 0.51445 0.45865 0.0
C122 C 0.4782 0.52864 0.43213 0.0
C123 C 0.43265 0.49586 0.41898 0.0
C124 C 0.41393 0.44992 0.43085 0.0
C125 C 0.44109 0.43624 0.45596 0.0
Mg126 Mg 0.23559 0.4188 0.33065 0.0
C127 C 0.15438 0.41278 0.27073 0.0
O128 O 0.12942 0.37173 0.28757 0.0
C129 C 0.23209 0.32803 0.35467 0.0
O130 O 0.21507 0.28374 0.35201 0.0
C131 C 0.1861 0.42302 0.41526 0.0
O132 O 0.15511 0.38294 0.39867 0.0
O133 O 0.22439 0.44581 0.39445 0.0
O134 O 0.19736 0.43618 0.28115 0.0
O135 O 0.30809 0.45345 0.30813 0.0
C136 C 0.32365 0.43216 0.28467 0.0
O137 O 0.29614 0.38878 0.27496 0.0
O138 O 0.20965 0.34548 0.33608 0.0
Mg139 Mg 0.79116 0.21364 0.81459 0.0
C140 C 0.76933 0.16355 0.72477 0.0
O141 O 0.79083 0.20553 0.70963 0.0
C142 C 0.83366 0.23428 0.90967 0.0
O143 O 0.78965 0.21106 0.92062 0.0
C144 C 0.70577 0.14799 0.85923 0.0
O145 O 0.72753 0.12553 0.84963 0.0
O146 O 0.72481 0.18995 0.84859 0.0
O147 O 0.7738 0.15718 0.76705 0.0
O148 O 0.81697 0.276 0.77471 0.0
C149 C 0.86027 0.29472 0.7667 0.0
O150 O 0.88331 0.27518 0.78227 0.0
O151 O 0.84453 0.23335 0.8681 0.0
Mg152 Mg 0.5772 0.79127 0.30126 0.0
C153 C 0.56653 0.84035 0.2208 0.0
O154 O 0.60658 0.87159 0.23828 0.0
C155 C 0.55906 0.71095 0.35651 0.0
O156 O 0.60394 0.73856 0.36174 0.0
C157 C 0.57479 0.8355 0.39176 0.0
O158 O 0.56612 0.79577 0.40755 0.0
O159 O 0.58494 0.84428 0.34969 0.0
O160 O 0.54521 0.80157 0.24 0.0
O161 O 0.63795 0.78715 0.28049 0.0
C162 C 0.64142 0.77937 0.23839 0.0
O163 O 0.62638 0.79724 0.20747 0.0
O164 O 0.53551 0.72435 0.33306 0.0
Mg165 Mg 0.79873 0.58765 0.80428 0.0
C166 C 0.72951 0.52993 0.72393 0.0
O167 O 0.76015 0.51812 0.71195 0.0
C168 C 0.85652 0.56137 0.85834 0.0
O169 O 0.88488 0.60348 0.84586 0.0
C170 C 0.78761 0.62246 0.8973 0.0
O171 O 0.8218 0.61554 0.90936 0.0
O172 O 0.77815 0.62196 0.85479 0.0
O173 O 0.73713 0.55489 0.75936 0.0
O174 O 0.86193 0.6247 0.76393 0.0
C175 C 0.86129 0.62138 0.72044 0.0
O176 O 0.82268 0.61094 0.69807 0.0
O177 O 0.81421 0.54237 0.84494 0.0
Mg178 Mg 0.2034 0.80111 0.31816 0.0
C179 C 0.14478 0.73433 0.25322 0.0
O180 O 0.1862 0.73836 0.25284 0.0
C181 C 0.27574 0.86597 0.3742 0.0
O182 O 0.2893 0.84088 0.35199 0.0
C183 C 0.18421 0.74688 0.40154 0.0
O184 O 0.17696 0.78001 0.41457 0.0
O185 O 0.19897 0.74729 0.36132 0.0
O186 O 0.13781 0.76028 0.28001 0.0
O187 O 0.25587 0.82671 0.26549 0.0
C188 C 0.24923 0.84118 0.22757 0.0
O189 O 0.20862 0.83725 0.21811 0.0
O190 O 0.2344 0.85847 0.36736 0.0
Mg191 Mg 0.42426 0.22923 0.81923 0.0
C192 C 0.44271 0.17393 0.74988 0.0
O193 O 0.4021 0.16694 0.7352 0.0
C194 C 0.46985 0.29007 0.90364 0.0
O195 O 0.44805 0.25077 0.9246 0.0
C196 C 0.36649 0.13428 0.85831 0.0
O197 O 0.35656 0.12177 0.81512 0.0
O198 O 0.38348 0.17626 0.86862 0.0
O199 O 0.46209 0.20042 0.78425 0.0
O200 O 0.39349 0.25306 0.76685 0.0
C201 C 0.41845 0.26765 0.73126 0.0
O202 O 0.4565 0.26498 0.72928 0.0
O203 O 0.46817 0.29078 0.86001 0.0
C204 C 0.06646 0.42837 0.19961 0.0
C205 C 0.08903 0.47607 0.19593 0.0
H206 H 0.06918 0.37074 0.2267 0.0
C207 C 0.13341 0.50235 0.21584 0.0
H208 H 0.03234 0.40736 0.18429 0.0
C209 C 0.15477 0.48158 0.23913 0.0
C210 C 0.13205 0.43395 0.24371 0.0
H211 H 0.15195 0.53914 0.21287 0.0
H212 H 0.18893 0.50305 0.25418 0.0
C213 C 0.08756 0.40751 0.22378 0.0
C214 C 0.65042 0.06208 0.70199 0.0
C215 C 0.6369 0.07681 0.66285 0.0
H216 H 0.70391 0.07772 0.75225 0.0
C217 C 0.67035 0.11476 0.63915 0.0
H218 H 0.62492 0.03316 0.72107 0.0
C219 C 0.71564 0.14017 0.65666 0.0
C220 C 0.72795 0.12865 0.69882 0.0
H221 H 0.66047 0.12685 0.60908 0.0
H222 H 0.73964 0.17114 0.63924 0.0
C223 C 0.69565 0.08777 0.71987 0.0
C224 C 0.62146 0.66017 0.24966 0.0
C225 C 0.61048 0.64459 0.20411 0.0
H226 H 0.64284 0.71616 0.29621 0.0
C227 C 0.61985 0.67615 0.16909 0.0
H228 H 0.61476 0.63634 0.27718 0.0
C229 C 0.635 0.72183 0.17998 0.0
C230 C 0.64118 0.73657 0.22606 0.0
H231 H 0.61163 0.66478 0.13371 0.0
H232 H 0.6382 0.74463 0.15252 0.0
C233 C 0.63739 0.70592 0.26049 0.0
C234 C 0.91114 0.56684 0.64358 0.0
C235 C 0.94999 0.57356 0.66936 0.0
H236 H 0.85348 0.57833 0.63851 0.0
C237 C 0.96408 0.60286 0.70771 0.0
H238 H 0.89945 0.54401 0.61413 0.0
C239 C 0.93735 0.62199 0.72234 0.0
C240 C 0.89628 0.61244 0.69856 0.0
H241 H 0.99365 0.60804 0.72841 0.0
H242 H 0.94715 0.64172 0.75394 0.0
C243 C 0.88487 0.58657 0.65767 0.0
C244 C 0.3702 0.9062 0.18173 0.0
C245 C 0.3625 0.89624 0.13452 0.0
H246 H 0.34019 0.89538 0.24821 0.0
C247 C 0.31659 0.87278 0.11742 0.0
H248 H 0.40516 0.92516 0.19581 0.0
C249 C 0.27924 0.85661 0.14754 0.0
C250 C 0.28748 0.86299 0.19503 0.0
H251 H 0.30953 0.86438 0.08129 0.0
H252 H 0.24415 0.83683 0.13398 0.0
C253 C 0.33311 0.88908 0.21175 0.0
C254 C 0.43591 0.3276 0.62074 0.0
C255 C 0.44439 0.3703 0.6368 0.0
H256 H 0.41995 0.26019 0.63923 0.0
C257 C 0.43014 0.37364 0.68126 0.0
H258 H 0.44687 0.32406 0.58685 0.0
C259 C 0.41398 0.33666 0.71116 0.0
C260 C 0.4125 0.29626 0.69699 0.0
H261 H 0.43646 0.40626 0.69448 0.0
H262 H 0.40852 0.34174 0.74676 0.0
C263 C 0.42056 0.29099 0.6508 0.0
C264 C 0.53259 0.87723 0.4909 0.0
C265 C 0.52501 0.91036 0.46985 0.0
H266 H 0.55472 0.82803 0.48295 0.0
C267 C 0.53968 0.92273 0.42448 0.0
H268 H 0.52137 0.86653 0.52562 0.0
C269 C 0.55887 0.90055 0.39989 0.0
C270 C 0.56346 0.86523 0.42003 0.0
H271 H 0.53482 0.94849 0.40746 0.0
H272 H 0.56783 0.9095 0.36437 0.0
C273 C 0.55151 0.85491 0.46628 0.0
C274 C 0.71817 0.58308 1.00576 0.0
C275 C 0.67365 0.57113 0.98905 0.0
H276 H 0.78984 0.60982 0.98985 0.0
C277 C 0.66931 0.58589 0.94523 0.0
H278 H 0.72262 0.57212 1.03934 0.0
C279 C 0.70781 0.60747 0.91674 0.0
C280 C 0.75139 0.61439 0.9314 0.0
H281 H 0.63544 0.57758 0.93171 0.0
H282 H 0.70244 0.6151 0.88194 0.0
C283 C 0.7567 0.60454 0.97719 0.0
C284 C 0.13595 0.62589 0.44102 0.0
C285 C 0.13863 0.63115 0.48912 0.0
H286 H 0.14975 0.65852 0.37577 0.0
C287 C 0.15601 0.67509 0.50798 0.0
H288 H 0.12163 0.59249 0.42516 0.0
C289 C 0.17108 0.71281 0.47942 0.0
C290 C 0.16998 0.70743 0.43158 0.0
H291 H 0.15924 0.6806 0.54474 0.0
H292 H 0.1844 0.74633 0.49479 0.0
C293 C 0.15214 0.66367 0.41261 0.0
C294 C 0.38223 0.03682 0.89882 0.0
C295 C 0.41534 0.05833 0.93411 0.0
H296 H 0.33993 0.04396 0.84724 0.0
C297 C 0.42455 0.10124 0.95024 0.0
H298 H 0.37477 0.00383 0.88561 0.0
C299 C 0.40427 0.12406 0.92872 0.0
C300 C 0.37519 0.10484 0.8899 0.0
H301 H 0.44995 0.11845 0.97747 0.0
H302 H 0.41464 0.15836 0.94014 0.0
C303 C 0.36244 0.05994 0.87677 0.0
C304 C 0.32919 0.42305 0.42362 0.0
C305 C 0.36668 0.41619 0.41445 0.0
H306 H 0.2565 0.39805 0.41432 0.0
C307 C 0.35907 0.37836 0.38771 0.0
H308 H 0.334 0.45146 0.44491 0.0
C309 C 0.31495 0.34894 0.36895 0.0
C310 C 0.27795 0.35704 0.37666 0.0
H311 H 0.38754 0.37247 0.38008 0.0
H312 H 0.31011 0.32078 0.34726 0.0
C313 C 0.28515 0.39328 0.40541 0.0
C314 C 0.87446 0.32518 1.00148 0.0
C315 C 0.91672 0.35851 0.98347 0.0
H316 H 0.81565 0.25848 0.99325 0.0
C317 C 0.93593 0.34712 0.94656 0.0
H318 H 0.85889 0.33351 1.02966 0.0
C319 C 0.9109 0.30439 0.92499 0.0
C320 C 0.86627 0.27246 0.94011 0.0
H321 H 0.96827 0.37265 0.93181 0.0
H322 H 0.92485 0.29793 0.89425 0.0
C323 C 0.8497 0.28229 0.98036 0.0
C324 C 0.93984 0.53901 0.92778 0.0
C325 C 0.91001 0.49843 0.95051 0.0
H326 H 0.94643 0.59002 0.88089 0.0
C327 C 0.86175 0.47832 0.94253 0.0
H328 H 0.97717 0.55492 0.93193 0.0
C329 C 0.84397 0.49819 0.91224 0.0
C330 C 0.87409 0.53869 0.88955 0.0
H331 H 0.83771 0.44715 0.95961 0.0
H332 H 0.80676 0.48204 0.90685 0.0
C333 C 0.92214 0.5589 0.89791 0.0
C334 C 0.34232 0.90229 0.48429 0.0
C335 C 0.38703 0.93191 0.46757 0.0
H336 H 0.27013 0.85862 0.46708 0.0
C337 C 0.39106 0.94856 0.42279 0.0
H338 H 0.33807 0.88855 0.5185 0.0
C339 C 0.35216 0.93171 0.39366 0.0
C340 C 0.30836 0.8982 0.40874 0.0
H341 H 0.42493 0.97168 0.40905 0.0
H342 H 0.3572 0.94137 0.3579 0.0
C343 C 0.30325 0.88543 0.45499 0.0
C344 C 0.52522 0.37297 1.00356 0.0
C345 C 0.53684 0.41504 0.98346 0.0
H346 H 0.49536 0.30085 0.99421 0.0
C347 C 0.52539 0.41527 0.93683 0.0
H348 H 0.5342 0.3713 1.039 0.0
C349 C 0.50428 0.37491 0.91079 0.0
C350 C 0.4933 0.33309 0.93084 0.0
H351 H 0.53304 0.44678 0.92023 0.0
H352 H 0.49621 0.37646 0.87499 0.0
C353 C 0.50345 0.33252 0.97766 0.0
C354 C 0.11515 0.44754 0.49988 0.0
C355 C 0.1478 0.49167 0.51472 0.0
H356 H 0.10177 0.39082 0.45662 0.0
C357 C 0.19449 0.50991 0.50234 0.0
H358 H 0.07888 0.4331 0.50849 0.0
C359 C 0.20758 0.48624 0.47222 0.0
C360 C 0.1742 0.4438 0.45391 0.0
H361 H 0.22021 0.54407 0.51322 0.0
H362 H 0.24333 0.50244 0.46125 0.0
C363 C 0.12828 0.42367 0.46978 0.0
C364 C 0.59187 0.05238 0.90203 0.0
C365 C 0.57267 0.07585 0.92461 0.0
H366 H 0.64838 0.05667 0.86386 0.0
C367 C 0.59829 0.12392 0.92597 0.0
H368 H 0.57294 0.01557 0.89897 0.0
C369 C 0.64143 0.14773 0.90452 0.0
C370 C 0.66016 0.12394 0.88188 0.0
H371 H 0.58494 0.14324 0.94342 0.0
H372 H 0.66021 0.18463 0.90592 0.0
C373 C 0.63509 0.07606 0.8813 0.0
C374 C 0.54626 0.601 0.40308 0.0
C375 C 0.49906 0.57644 0.41479 0.0
H376 H 0.60178 0.66226 0.37573 0.0
C377 C 0.47159 0.59705 0.40715 0.0
H378 H 0.56847 0.58624 0.40705 0.0
C379 C 0.4906 0.64044 0.38765 0.0
C380 C 0.53775 0.6647 0.37632 0.0
H381 H 0.43531 0.57978 0.4163 0.0
H382 H 0.46859 0.65525 0.38207 0.0
C383 C 0.56537 0.64462 0.38456 0.0
C384 C 0.46482 0.10169 0.66523 0.0
C385 C 0.50224 0.09996 0.68611 0.0
H386 H 0.41696 0.12659 0.6688 0.0
C387 C 0.52076 0.12397 0.72768 0.0
H388 H 0.45006 0.08411 0.633 0.0
C389 C 0.5022 0.14885 0.74791 0.0
C390 C 0.46436 0.14994 0.72734 0.0
H391 H 0.54896 0.12271 0.74531 0.0
H392 H 0.51683 0.16634 0.78022 0.0
C393 C 0.44603 0.12628 0.68567 0.0
C394 C 0.43563 0.5242 0.23372 0.0
C395 C 0.45999 0.50071 0.2247 0.0
H396 H 0.37446 0.52149 0.2607 0.0
C397 C 0.43895 0.45442 0.23683 0.0
H398 H 0.44962 0.55943 0.22401 0.0
C399 C 0.3949 0.43234 0.25667 0.0
C400 C 0.37117 0.45616 0.26587 0.0
H401 H 0.45659 0.43517 0.23157 0.0
H402 H 0.37956 0.39663 0.26524 0.0
C403 C 0.39221 0.50242 0.25464 0.0
C404 C 0.8861 0.3956 0.69078 0.0
C405 C 0.93496 0.42159 0.69413 0.0
H406 H 0.82397 0.33541 0.7114 0.0
C407 C 0.95846 0.4046 0.72076 0.0
H408 H 0.86673 0.40719 0.67019 0.0
C409 C 0.93401 0.36327 0.74361 0.0
C410 C 0.88527 0.33796 0.74117 0.0
H411 H 0.9958 0.42387 0.72538 0.0
H412 H 0.95344 0.35173 0.76421 0.0
C413 C 0.8615 0.35441 0.71433 0.0
C414 C 0.47842 0.8321 0.13217 0.0
C415 C 0.49902 0.87724 0.11668 0.0
H416 H 0.48354 0.7849 0.17716 0.0
C417 C 0.54436 0.90863 0.13114 0.0
H418 H 0.44317 0.80747 0.12185 0.0
C419 C 0.5674 0.8959 0.16327 0.0
C420 C 0.54533 0.85161 0.18157 0.0
H421 H 0.56056 0.94378 0.12028 0.0
H422 H 0.60148 0.92151 0.17557 0.0
C423 C 0.50135 0.81936 0.16422 0.0
C424 C 0.61164 0.51074 0.68438 0.0
C425 C 0.607 0.49155 0.64048 0.0
H426 H 0.6537 0.53781 0.74504 0.0
C427 C 0.64361 0.48631 0.62359 0.0
H428 H 0.58387 0.51493 0.69837 0.0
C429 C 0.68336 0.49865 0.65063 0.0
C430 C 0.68756 0.51693 0.69497 0.0
H431 H 0.64068 0.47086 0.59021 0.0
H432 H 0.71062 0.49349 0.6369 0.0
C433 C 0.65155 0.52356 0.71118 0.0
C434 C 0.05508 0.61393 0.22765 0.0
C435 C 0.06612 0.60994 0.18194 0.0
H436 H 0.07045 0.65812 0.28628 0.0
C437 C 0.09418 0.65006 0.15761 0.0
H438 H 0.03335 0.5837 0.24726 0.0
C439 C 0.11509 0.6925 0.17994 0.0
C440 C 0.10784 0.6959 0.2268 0.0
H441 H 0.10387 0.6484 0.12262 0.0
H442 H 0.14057 0.72217 0.1617 0.0
C443 C 0.07571 0.65661 0.24987 0.0
loop_
_geom_bond_atom_site_label_1
_geom_bond_atom_site_label_2
_geom_bond_distance
_geom_bond_site_symmetry_2
_ccdc_geom_bond_type
H0 C8 0.930 . S
H1 C11 0.930 . S
H2 C13 0.930 . S
H3 C14 0.970 . S
H4 C14 0.970 . S
H5 C16 0.930 . S
H6 C18 0.930 . S
H7 C20 0.930 . S
C8 H0 0.930 . S
C8 C9 1.382 . S
C8 C10 1.426 . S
C9 C8 1.382 . S
C9 C13 1.389 . S
C10 C8 1.426 . S
C10 C11 1.375 . S
C10 C14 1.532 1_554 S
C11 H1 0.930 . S
C11 C10 1.375 . S
C11 C12 1.416 . S
C12 C11 1.416 . S
C12 C13 1.371 . S
C13 H2 0.930 . S
C13 C9 1.389 . S
C13 C12 1.371 . S
C14 H3 0.970 . S
C14 H4 0.970 . S
C14 C10 1.532 1_556 S
C14 C15 1.499 . S
C15 C14 1.499 . S
C15 C16 1.370 . S
C15 C20 1.415 . S
C16 H5 0.930 . S
C16 C15 1.370 . S
C16 C17 1.407 1_455 S
C17 C16 1.407 1_655 S
C17 C18 1.365 . S
C18 H6 0.930 . S
C18 C17 1.365 . S
C18 C19 1.393 . S
C19 C18 1.393 . S
C19 C20 1.387 1_655 S
C20 H7 0.930 . S
C20 C15 1.415 . S
C20 C19 1.387 1_455 S
H21 C29 0.930 . S
H22 C32 0.930 . S
H23 C34 0.930 . S
H24 C35 0.970 . S
H25 C35 0.970 . S
H26 C37 0.930 . S
H27 C39 0.930 . S
H28 C41 0.930 . S
C29 H21 0.930 . S
C29 C30 1.382 . S
C29 C31 1.426 . S
C30 C29 1.382 . S
C30 C34 1.389 . S
C31 C29 1.426 . S
C31 C32 1.375 . S
C31 C35 1.532 1_545 S
C32 H22 0.930 . S
C32 C31 1.375 . S
C32 C33 1.416 . S
C33 C32 1.416 . S
C33 C34 1.371 . S
C34 H23 0.930 . S
C34 C30 1.389 . S
C34 C33 1.371 . S
C35 H24 0.970 . S
C35 H25 0.970 . S
C35 C31 1.532 1_565 S
C35 C36 1.499 . S
C36 C35 1.499 . S
C36 C37 1.370 . S
C36 C41 1.415 . S
C37 H26 0.930 . S
C37 C36 1.370 . S
C37 C38 1.407 . S
C38 C37 1.407 . S
C38 C39 1.365 . S
C39 H27 0.930 . S
C39 C38 1.365 . S
C39 C40 1.393 . S
C40 C39 1.393 . S
C40 C41 1.387 . S
C41 H28 0.930 . S
C41 C36 1.415 . S
C41 C40 1.387 . S
H42 C50 0.930 . S
H43 C53 0.930 . S
H44 C55 0.930 . S
H45 C56 0.970 . S
H46 C56 0.970 . S
H47 C58 0.930 . S
H48 C60 0.930 . S
H49 C62 0.930 . S
C50 H42 0.930 . S
C50 C51 1.382 . S
C50 C52 1.426 . S
C51 C50 1.382 . S
C51 C55 1.389 . S
C52 C50 1.426 . S
C52 C53 1.375 . S
C52 C56 1.532 . S
C53 H43 0.930 . S
C53 C52 1.375 . S
C53 C54 1.416 . S
C54 C53 1.416 . S
C54 C55 1.371 . S
C55 H44 0.930 . S
C55 C51 1.389 . S
C55 C54 1.371 . S
C56 H45 0.970 . S
C56 H46 0.970 . S
C56 C52 1.532 . S
C56 C57 1.499 . S
C57 C56 1.499 . S
C57 C58 1.370 1_554 S
C57 C62 1.415 1_554 S
C58 H47 0.930 . S
C58 C57 1.370 1_556 S
C58 C59 1.407 . S
C59 C58 1.407 . S
C59 C60 1.365 . S
C60 H48 0.930 . S
C60 C59 1.365 . S
C60 C61 1.393 . S
C61 C60 1.393 . S
C61 C62 1.387 . S
C62 H49 0.930 . S
C62 C57 1.415 1_556 S
C62 C61 1.387 . S
H63 C71 0.930 1_455 S
H64 C74 0.930 1_455 S
H65 C76 0.930 . S
H66 C77 0.970 . S
H67 C77 0.970 . S
H68 C79 0.930 . S
H69 C81 0.930 . S
H70 C83 0.930 . S
C71 H63 0.930 1_655 S
C71 C72 1.382 . S
C71 C73 1.426 1_655 S
C72 C71 1.382 . S
C72 C76 1.389 . S
C73 C71 1.426 1_455 S
C73 C74 1.375 1_455 S
C73 C77 1.532 . S
C74 H64 0.930 1_655 S
C74 C73 1.375 1_655 S
C74 C75 1.416 . S
C75 C74 1.416 . S
C75 C76 1.371 . S
C76 H65 0.930 . S
C76 C72 1.389 . S
C76 C75 1.371 . S
C77 H66 0.970 . S
C77 H67 0.970 . S
C77 C73 1.532 . S
C77 C78 1.499 . S
C78 C77 1.499 . S
C78 C79 1.370 . S
C78 C83 1.415 . S
C79 H68 0.930 . S
C79 C78 1.370 . S
C79 C80 1.407 . S
C80 C79 1.407 . S
C80 C81 1.365 . S
C81 H69 0.930 . S
C81 C80 1.365 . S
C81 C82 1.393 . S
C82 C81 1.393 . S
C82 C83 1.387 . S
C83 H70 0.930 . S
C83 C78 1.415 . S
C83 C82 1.387 . S
H84 C92 0.930 . S
H85 C95 0.930 . S
H86 C97 0.930 . S
H87 C98 0.970 . S
H88 C98 0.970 . S
H89 C100 0.938 . S
H90 C102 0.930 . S
H91 C104 0.930 1_565 S
C92 H84 0.930 . S
C92 C93 1.382 . S
C92 C94 1.426 . S
C93 C92 1.382 . S
C93 C97 1.389 . S
C94 C92 1.426 . S
C94 C95 1.375 . S
C94 C98 1.532 1_554 S
C95 H85 0.930 . S
C95 C94 1.375 . S
C95 C96 1.416 . S
C96 C95 1.416 . S
C96 C97 1.371 . S
C97 H86 0.930 . S
C97 C93 1.389 . S
C97 C96 1.371 . S
C98 H87 0.970 . S
C98 H88 0.970 . S
C98 C94 1.532 1_556 S
C98 C99 1.499 . S
C99 C98 1.499 . S
C99 C100 1.370 1_565 S
C99 C104 1.415 1_565 S
C100 H89 0.938 . S
C100 C99 1.370 1_545 S
C100 C101 1.407 . S
C101 C100 1.407 . S
C101 C102 1.365 . S
C102 H90 0.930 . S
C102 C101 1.365 . S
C102 C103 1.393 . S
C103 C102 1.393 . S
C103 C104 1.387 . S
C104 H91 0.930 1_545 S
C104 C99 1.415 1_545 S
C104 C103 1.387 . S
H105 C113 0.930 . S
H106 C116 0.930 . S
H107 C118 0.930 . S
H108 C119 0.970 . S
H109 C119 0.970 . S
H110 C121 0.930 . S
H111 C123 0.930 . S
H112 C125 0.930 . S
C113 H105 0.930 . S
C113 C114 1.382 . S
C113 C115 1.426 . S
C114 C113 1.382 . S
C114 C118 1.389 . S
C115 C113 1.426 . S
C115 C116 1.375 . S
C115 C119 1.532 . S
C116 H106 0.930 . S
C116 C115 1.375 . S
C116 C117 1.416 . S
C117 C116 1.416 . S
C117 C118 1.371 . S
C118 H107 0.930 . S
C118 C114 1.389 . S
C118 C117 1.371 . S
C119 H108 0.970 . S
C119 H109 0.970 . S
C119 C115 1.532 . S
C119 C120 1.499 . S
C120 C119 1.499 . S
C120 C121 1.370 . S
C120 C125 1.415 . S
C121 H110 0.930 . S
C121 C120 1.370 . S
C121 C122 1.407 . S
C122 C121 1.407 . S
C122 C123 1.365 . S
C123 H111 0.930 . S
C123 C122 1.365 . S
C123 C124 1.393 . S
C124 C123 1.393 . S
C124 C125 1.387 . S
C125 H112 0.930 . S
C125 C120 1.415 . S
C125 C124 1.387 . S
Mg126 O133 2.141 . S
Mg126 O134 2.048 . S
Mg126 O135 2.048 . S
Mg126 O138 2.141 . S
C127 O128 1.313 . S
C127 O134 1.195 . S
O128 C127 1.313 . S
C129 O130 1.245 . S
C129 O138 1.289 . S
O130 C129 1.245 . S
C131 O132 1.245 . S
C131 O133 1.289 . S
O132 C131 1.245 . S
O133 Mg126 2.141 . S
O133 C131 1.289 . S
O134 Mg126 2.048 . S
O134 C127 1.195 . S
O135 Mg126 2.048 . S
O135 C136 1.195 . S
C136 O135 1.195 . S
C136 O137 1.313 . S
O137 C136 1.313 . S
O138 Mg126 2.141 . S
O138 C129 1.289 . S
Mg139 O146 2.141 . S
Mg139 O147 2.048 . S
Mg139 O148 2.048 . S
Mg139 O151 2.141 . S
C140 O141 1.313 . S
C140 O147 1.195 . S
O141 C140 1.313 . S
C142 O143 1.245 . S
C142 O151 1.289 . S
O143 C142 1.245 . S
C144 O145 1.245 . S
C144 O146 1.289 . S
O145 C144 1.245 . S
O146 Mg139 2.141 . S
O146 C144 1.289 . S
O147 Mg139 2.048 . S
O147 C140 1.195 . S
O148 Mg139 2.048 . S
O148 C149 1.195 . S
C149 O148 1.195 . S
C149 O150 1.313 . S
O150 C149 1.313 . S
O151 Mg139 2.141 . S
O151 C142 1.289 . S
Mg152 O159 2.141 . S
Mg152 O160 2.048 . S
Mg152 O161 2.048 . S
Mg152 O164 2.141 . S
C153 O154 1.313 . S
C153 O160 1.195 . S
O154 C153 1.313 . S
C155 O156 1.245 . S
C155 O164 1.289 . S
O156 C155 1.245 . S
C157 O158 1.245 . S
C157 O159 1.289 . S
O158 C157 1.245 . S
O159 Mg152 2.141 . S
O159 C157 1.289 . S
O160 Mg152 2.048 . S
O160 C153 1.195 . S
O161 Mg152 2.048 . S
O161 C162 1.195 . S
C162 O161 1.195 . S
C162 O163 1.313 . S
O163 C162 1.313 . S
O164 Mg152 2.141 . S
O164 C155 1.289 . S
Mg165 O172 2.141 . S
Mg165 O173 2.048 . S
Mg165 O174 2.048 . S
Mg165 O177 2.141 . S
C166 O167 1.313 . S
C166 O173 1.195 . S
O167 C166 1.313 . S
C168 O169 1.245 . S
C168 O177 1.289 . S
O169 C168 1.245 . S
C170 O171 1.245 . S
C170 O172 1.289 . S
O171 C170 1.245 . S
O172 Mg165 2.141 . S
O172 C170 1.289 . S
O173 Mg165 2.048 . S
O173 C166 1.195 . S
O174 Mg165 2.048 . S
O174 C175 1.195 . S
C175 O174 1.195 . S
C175 O176 1.313 . S
O176 C175 1.313 . S
O177 Mg165 2.141 . S
O177 C168 1.289 . S
Mg178 O185 2.141 . S
Mg178 O186 2.048 . S
Mg178 O187 2.048 . S
Mg178 O190 2.141 . S
C179 O180 1.313 . S
C179 O186 1.195 . S
O180 C179 1.313 . S
C181 O182 1.245 . S
C181 O190 1.289 . S
O182 C181 1.245 . S
C183 O184 1.245 . S
C183 O185 1.289 . S
O184 C183 1.245 . S
O185 Mg178 2.141 . S
O185 C183 1.289 . S
O186 Mg178 2.048 . S
O186 C179 1.195 . S
O187 Mg178 2.048 . S
O187 C188 1.195 . S
C188 O187 1.195 . S
C188 O189 1.313 . S
O189 C188 1.313 . S
O190 Mg178 2.141 . S
O190 C181 1.289 . S
Mg191 O198 2.141 . S
Mg191 O199 2.048 . S
Mg191 O200 2.048 . S
Mg191 O203 2.141 . S
C192 O193 1.313 . S
C192 O199 1.195 . S
O193 C192 1.313 . S
C194 O195 1.245 . S
C194 O203 1.289 . S
O195 C194 1.245 . S
C196 O197 1.245 . S
C196 O198 1.289 . S
O197 C196 1.245 . S
O198 Mg191 2.141 . S
O198 C196 1.289 . S
O199 Mg191 2.048 . S
O199 C192 1.195 . S
O200 Mg191 2.048 . S
O200 C201 1.195 . S
C201 O200 1.195 . S
C201 O202 1.313 . S
O202 C201 1.313 . S
O203 Mg191 2.141 . S
O203 C194 1.289 . S
C204 C205 1.387 . S
C204 H208 0.950 . S
C204 C213 1.390 . S
C205 C204 1.387 . S
C205 C207 1.387 . S
H206 C213 0.950 . S
C207 C205 1.387 . S
C207 C209 1.390 . S
C207 H211 0.950 . S
H208 C204 0.950 . S
C209 C207 1.390 . S
C209 C210 1.387 . S
C209 H212 0.950 . S
C210 C209 1.387 . S
C210 C213 1.387 . S
H211 C207 0.950 . S
H212 C209 0.950 . S
C213 C204 1.390 . S
C213 H206 0.950 . S
C213 C210 1.387 . S
C214 C215 1.387 . S
C214 H218 0.950 . S
C214 C223 1.390 . S
C215 C214 1.387 . S
C215 C217 1.387 . S
H216 C223 0.950 . S
C217 C215 1.387 . S
C217 C219 1.390 . S
C217 H221 0.950 . S
H218 C214 0.950 . S
C219 C217 1.390 . S
C219 C220 1.387 . S
C219 H222 0.950 . S
C220 C219 1.387 . S
C220 C223 1.387 . S
H221 C217 0.950 . S
H222 C219 0.950 . S
C223 C214 1.390 . S
C223 H216 0.950 . S
C223 C220 1.387 . S
C224 C225 1.387 . S
C224 H228 0.950 . S
C224 C233 1.390 . S
C225 C224 1.387 . S
C225 C227 1.387 . S
H226 C233 0.950 . S
C227 C225 1.387 . S
C227 C229 1.390 . S
C227 H231 0.950 . S
H228 C224 0.950 . S
C229 C227 1.390 . S
C229 C230 1.387 . S
C229 H232 0.950 . S
C230 C229 1.387 . S
C230 C233 1.387 . S
H231 C227 0.950 . S
H232 C229 0.950 . S
C233 C224 1.390 . S
C233 H226 0.950 . S
C233 C230 1.387 . S
C234 C235 1.387 . S
C234 H238 0.950 . S
C234 C243 1.390 . S
C235 C234 1.387 . S
C235 C237 1.387 . S
H236 C243 0.950 . S
C237 C235 1.387 . S
C237 C239 1.390 . S
C237 H241 0.950 . S
H238 C234 0.950 . S
C239 C237 1.390 . S
C239 C240 1.387 . S
C239 H242 0.950 . S
C240 C239 1.387 . S
C240 C243 1.387 . S
H241 C237 0.950 . S
H242 C239 0.950 . S
C243 C234 1.390 . S
C243 H236 0.950 . S
C243 C240 1.387 . S
C244 C245 1.387 . S
C244 H248 0.950 . S
C244 C253 1.390 . S
C245 C244 1.387 . S
C245 C247 1.387 . S
H246 C253 0.950 . S
C247 C245 1.387 . S
C247 C249 1.390 . S
C247 H251 0.950 . S
H248 C244 0.950 . S
C249 C247 1.390 . S
C249 C250 1.387 . S
C249 H252 0.950 . S
C250 C249 1.387 . S
C250 C253 1.387 . S
H251 C247 0.950 . S
H252 C249 0.950 . S
C253 C244 1.390 . S
C253 H246 0.950 . S
C253 C250 1.387 . S
C254 C255 1.387 . S
C254 H258 0.950 . S
C254 C263 1.390 . S
C255 C254 1.387 . S
C255 C257 1.387 . S
H256 C263 0.950 . S
C257 C255 1.387 . S
C257 C259 1.390 . S
C257 H261 0.950 . S
H258 C254 0.950 . S
C259 C257 1.390 . S
C259 C260 1.387 . S
C259 H262 0.950 . S
C260 C259 1.387 . S
C260 C263 1.387 . S
H261 C257 0.950 . S
H262 C259 0.950 . S
C263 C254 1.390 . S
C263 H256 0.950 . S
C263 C260 1.387 . S
C264 C265 1.387 . S
C264 H268 0.950 . S
C264 C273 1.390 . S
C265 C264 1.387 . S
C265 C267 1.387 . S
H266 C273 0.950 . S
C267 C265 1.387 . S
C267 C269 1.390 . S
C267 H271 0.950 . S
H268 C264 0.950 . S
C269 C267 1.390 . S
C269 C270 1.387 . S
C269 H272 0.950 . S
C270 C269 1.387 . S
C270 C273 1.387 . S
H271 C267 0.950 . S
H272 C269 0.950 . S
C273 C264 1.390 . S
C273 H266 0.950 . S
C273 C270 1.387 . S
C274 C275 1.387 . S
C274 H278 0.950 . S
C274 C283 1.390 . S
C275 C274 1.387 . S
C275 C277 1.387 . S
H276 C283 0.950 . S
C277 C275 1.387 . S
C277 C279 1.390 . S
C277 H281 0.950 . S
H278 C274 0.950 . S
C279 C277 1.390 . S
C279 C280 1.387 . S
C279 H282 0.950 . S
C280 C279 1.387 . S
C280 C283 1.387 . S
H281 C277 0.950 . S
H282 C279 0.950 . S
C283 C274 1.390 . S
C283 H276 0.950 . S
C283 C280 1.387 . S
C284 C285 1.387 . S
C284 H288 0.950 . S
C284 C293 1.390 . S
C285 C284 1.387 . S
C285 C287 1.387 . S
H286 C293 0.950 . S
C287 C285 1.387 . S
C287 C289 1.390 . S
C287 H291 0.950 . S
H288 C284 0.950 . S
C289 C287 1.390 . S
C289 C290 1.387 . S
C289 H292 0.950 . S
C290 C289 1.387 . S
C290 C293 1.387 . S
H291 C287 0.950 . S
H292 C289 0.950 . S
C293 C284 1.390 . S
C293 H286 0.950 . S
C293 C290 1.387 . S
C294 C295 1.387 . S
C294 H298 0.950 . S
C294 C303 1.390 . S
C295 C294 1.387 . S
C295 C297 1.387 . S
H296 C303 0.950 . S
C297 C295 1.387 . S
C297 C299 1.390 . S
C297 H301 0.950 . S
H298 C294 0.950 . S
C299 C297 1.390 . S
C299 C300 1.387 . S
C299 H302 0.950 . S
C300 C299 1.387 . S
C300 C303 1.387 . S
H301 C297 0.950 . S
H302 C299 0.950 . S
C303 C294 1.390 . S
C303 H296 0.950 . S
C303 C300 1.387 . S
C304 C305 1.387 . S
C304 H308 0.950 . S
C304 C313 1.390 . S
C305 C304 1.387 . S
C305 C307 1.387 . S
H306 C313 0.950 . S
C307 C305 1.387 . S
C307 C309 1.390 . S
C307 H311 0.950 . S
H308 C304 0.950 . S
C309 C307 1.390 . S
C309 C310 1.387 . S
C309 H312 0.950 . S
C310 C309 1.387 . S
C310 C313 1.387 . S
H311 C307 0.950 . S
H312 C309 0.950 . S
C313 C304 1.390 . S
C313 H306 0.950 . S
C313 C310 1.387 . S
C314 C315 1.387 . S
C314 H318 0.950 . S
C314 C323 1.390 . S
C315 C314 1.387 . S
C315 C317 1.387 . S
H316 C323 0.950 . S
C317 C315 1.387 . S
C317 C319 1.390 . S
C317 H321 0.950 . S
H318 C314 0.950 . S
C319 C317 1.390 . S
C319 C320 1.387 . S
C319 H322 0.950 . S
C320 C319 1.387 . S
C320 C323 1.387 . S
H321 C317 0.950 . S
H322 C319 0.950 . S
C323 C314 1.390 . S
C323 H316 0.950 . S
C323 C320 1.387 . S
C324 C325 1.387 . S
C324 H328 0.950 . S
C324 C333 1.390 . S
C325 C324 1.387 . S
C325 C327 1.387 . S
H326 C333 0.950 . S
C327 C325 1.387 . S
C327 C329 1.390 . S
C327 H331 0.950 . S
H328 C324 0.950 . S
C329 C327 1.390 . S
C329 C330 1.387 . S
C329 H332 0.950 . S
C330 C329 1.387 . S
C330 C333 1.387 . S
H331 C327 0.950 . S
H332 C329 0.950 . S
C333 C324 1.390 . S
C333 H326 0.950 . S
C333 C330 1.387 . S
C334 C335 1.387 . S
C334 H338 0.950 . S
C334 C343 1.390 . S
C335 C334 1.387 . S
C335 C337 1.387 . S
H336 C343 0.950 . S
C337 C335 1.387 . S
C337 C339 1.390 . S
C337 H341 0.950 . S
H338 C334 0.950 . S
C339 C337 1.390 . S
C339 C340 1.387 . S
C339 H342 0.950 . S
C340 C339 1.387 . S
C340 C343 1.387 . S
H341 C337 0.950 . S
H342 C339 0.950 . S
C343 C334 1.390 . S
C343 H336 0.950 . S
C343 C340 1.387 . S
C344 C345 1.387 . S
C344 H348 0.950 . S
C344 C353 1.390 . S
C345 C344 1.387 . S
C345 C347 1.387 . S
H346 C353 0.950 . S
C347 C345 1.387 . S
C347 C349 1.390 . S
C347 H351 0.950 . S
H348 C344 0.950 . S
C349 C347 1.390 . S
C349 C350 1.387 . S
C349 H352 0.950 . S
C350 C349 1.387 . S
C350 C353 1.387 . S
H351 C347 0.950 . S
H352 C349 0.950 . S
C353 C344 1.390 . S
C353 H346 0.950 . S
C353 C350 1.387 . S
C354 C355 1.387 . S
C354 H358 0.950 . S
C354 C363 1.390 . S
C355 C354 1.387 . S
C355 C357 1.387 . S
H356 C363 0.950 . S
C357 C355 1.387 . S
C357 C359 1.390 . S
C357 H361 0.950 . S
H358 C354 0.950 . S
C359 C357 1.390 . S
C359 C360 1.387 . S
C359 H362 0.950 . S
C360 C359 1.387 . S
C360 C363 1.387 . S
H361 C357 0.950 . S
H362 C359 0.950 . S
C363 C354 1.390 . S
C363 H356 0.950 . S
C363 C360 1.387 . S
C364 C365 1.387 . S
C364 H368 0.950 . S
C364 C373 1.390 . S
C365 C364 1.387 . S
C365 C367 1.387 . S
H366 C373 0.950 . S
C367 C365 1.387 . S
C367 C369 1.390 . S
C367 H371 0.950 . S
H368 C364 0.950 . S
C369 C367 1.390 . S
C369 C370 1.387 . S
C369 H372 0.950 . S
C370 C369 1.387 . S
C370 C373 1.387 . S
H371 C367 0.950 . S
H372 C369 0.950 . S
C373 C364 1.390 . S
C373 H366 0.950 . S
C373 C370 1.387 . S
C374 C375 1.387 . S
C374 H378 0.950 . S
C374 C383 1.390 . S
C375 C374 1.387 . S
C375 C377 1.387 . S
H376 C383 0.950 . S
C377 C375 1.387 . S
C377 C379 1.390 . S
C377 H381 0.950 . S
H378 C374 0.950 . S
C379 C377 1.390 . S
C379 C380 1.387 . S
C379 H382 0.950 . S
C380 C379 1.387 . S
C380 C383 1.387 . S
H381 C377 0.950 . S
H382 C379 0.950 . S
C383 C374 1.390 . S
C383 H376 0.950 . S
C383 C380 1.387 . S
C384 C385 1.387 . S
C384 H388 0.950 . S
C384 C393 1.390 . S
C385 C384 1.387 . S
C385 C387 1.387 . S
H386 C393 0.950 . S
C387 C385 1.387 . S
C387 C389 1.390 . S
C387 H391 0.950 . S
H388 C384 0.950 . S
C389 C387 1.390 . S
C389 C390 1.387 . S
C389 H392 0.950 . S
C390 C389 1.387 . S
C390 C393 1.387 . S
H391 C387 0.950 . S
H392 C389 0.950 . S
C393 C384 1.390 . S
C393 H386 0.950 . S
C393 C390 1.387 . S
C394 C395 1.387 . S
C394 H398 0.950 . S
C394 C403 1.390 . S
C395 C394 1.387 . S
C395 C397 1.387 . S
H396 C403 0.950 . S
C397 C395 1.387 . S
C397 C399 1.390 . S
C397 H401 0.950 . S
H398 C394 0.950 . S
C399 C397 1.390 . S
C399 C400 1.387 . S
C399 H402 0.950 . S
C400 C399 1.387 . S
C400 C403 1.387 . S
H401 C397 0.950 . S
H402 C399 0.950 . S
C403 C394 1.390 . S
C403 H396 0.950 . S
C403 C400 1.387 . S
C404 C405 1.387 . S
C404 H408 0.950 . S
C404 C413 1.390 . S
C405 C404 1.387 . S
C405 C407 1.387 . S
H406 C413 0.950 . S
C407 C405 1.387 . S
C407 C409 1.390 . S
C407 H411 0.950 . S
H408 C404 0.950 . S
C409 C407 1.390 . S
C409 C410 1.387 . S
C409 H412 0.950 . S
C410 C409 1.387 . S
C410 C413 1.387 . S
H411 C407 0.950 . S
H412 C409 0.950 . S
C413 C404 1.390 . S
C413 H406 0.950 . S
C413 C410 1.387 . S
C414 C415 1.387 . S
C414 H418 0.950 . S
C414 C423 1.390 . S
C415 C414 1.387 . S
C415 C417 1.387 . S
H416 C423 0.950 . S
C417 C415 1.387 . S
C417 C419 1.390 . S
C417 H421 0.950 . S
H418 C414 0.950 . S
C419 C417 1.390 . S
C419 C420 1.387 . S
C419 H422 0.950 . S
C420 C419 1.387 . S
C420 C423 1.387 . S
H421 C417 0.950 . S
H422 C419 0.950 . S
C423 C414 1.390 . S
C423 H416 0.950 . S
C423 C420 1.387 . S
C424 C425 1.387 . S
C424 H428 0.950 . S
C424 C433 1.390 . S
C425 C424 1.387 . S
C425 C427 1.387 . S
H426 C433 0.950 . S
C427 C425 1.387 . S
C427 C429 1.390 . S
C427 H431 0.950 . S
H428 C424 0.950 . S
C429 C427 1.390 . S
C429 C430 1.387 . S
C429 H432 0.950 . S
C430 C429 1.387 . S
C430 C433 1.387 . S
H431 C427 0.950 . S
H432 C429 0.950 . S
C433 C424 1.390 . S
C433 H426 0.950 . S
C433 C430 1.387 . S
C434 C435 1.387 . S
C434 H438 0.950 . S
C434 C443 1.390 . S
C435 C434 1.387 . S
C435 C437 1.387 . S
H436 C443 0.950 . S
C437 C435 1.387 . S
C437 C439 1.390 . S
C437 H441 0.950 . S
H438 C434 0.950 . S
C439 C437 1.390 . S
C439 C440 1.387 . S
C439 H442 0.950 . S
C440 C439 1.387 . S
C440 C443 1.387 . S
H441 C437 0.950 . S
H442 C439 0.950 . S
C443 C434 1.390 . S
C443 H436 0.950 . S
C443 C440 1.387 . S
C205 C12 1.487 . S
C210 C127 1.564 . S
C215 C30 1.468 . S
C220 C140 1.540 . S
C230 C162 1.522 . S
C225 C51 1.485 . S
C240 C175 1.501 . S
C235 C72 1.470 . S
C250 C188 1.527 . S
C245 C96 1.487 . S
C260 C201 1.506 . S
C255 C117 1.468 . S
C265 C38 1.488 . S
C270 C157 1.519 . S
C275 C59 1.467 . S
C280 C170 1.498 . S
C290 C183 1.514 . S
C285 C80 1.476 . S
C300 C196 1.481 . S
C295 C103 1.469 . S
C305 C124 1.489 . S
C310 C129 1.547 . S
C320 C142 1.534 . S
C315 C19 1.479 . S
C330 C168 1.517 . S
C325 C17 1.484 . S
C335 C40 1.482 . S
C340 C181 1.487 . S
C350 C194 1.498 . S
C345 C61 1.495 . S
C355 C82 1.473 . S
C360 C131 1.526 . S
C365 C101 1.476 . S
C370 C144 1.560 . S
C375 C122 1.462 . S
C380 C155 1.496 . S
C385 C33 1.468 . S
C390 C192 1.531 . S
C400 C136 1.550 . S
C395 C54 1.449 . S
C405 C75 1.468 . S
C410 C149 1.570 . S
C415 C93 1.496 . S
C420 C153 1.507 . S
C425 C114 1.514 . S
C430 C166 1.527 . S
C435 C9 1.495 . S
C440 C179 1.507 . S
