# Generated by pormake.
# Topology pyr, (3,6)-cn, num edge types: 1
# Building blocks:
#     Node 0, Type 0, BuildingBlock: CUQRIR_clean_linker_1, # of connection points: 3
#     Node 1, Type 0, BuildingBlock: CUQRIR_clean_linker_1, # of connection points: 3
#     Node 2, Type 0, BuildingBlock: CUQRIR_clean_linker_1, # of connection points: 3
#     Node 3, Type 0, BuildingBlock: CUQRIR_clean_linker_1, # of connection points: 3
#     Node 4, Type 0, BuildingBlock: CUQRIR_clean_linker_1, # of connection points: 3
#     Node 5, Type 0, BuildingBlock: CUQRIR_clean_linker_1, # of connection points: 3
#     Node 6, Type 0, BuildingBlock: CUQRIR_clean_linker_1, # of connection points: 3
#     Node 7, Type 0, BuildingBlock: CUQRIR_clean_linker_1, # of connection points: 3
#     Node 8, Type 1, BuildingBlock: MIFKUJ_clean_sbu_0, # of connection points: 6
#     Node 9, Type 1, BuildingBlock: MIFKUJ_clean_sbu_0, # of connection points: 6
#     Node 10, Type 1, BuildingBlock: MIFKUJ_clean_sbu_0, # of connection points: 6
#     Node 11, Type 1, BuildingBlock: MIFKUJ_clean_sbu_0, # of connection points: 6
#     Edge 12, Type (0, 1), BuildingBlock: KIFKEQ_clean_linker_1, # of connection points: 2
#     Edge 13, Type (0, 1), BuildingBlock: KIFKEQ_clean_linker_1, # of connection points: 2
#     Edge 14, Type (0, 1), BuildingBlock: KIFKEQ_clean_linker_1, # of connection points: 2
#     Edge 15, Type (0, 1), BuildingBlock: KIFKEQ_clean_linker_1, # of connection points: 2
#     Edge 16, Type (0, 1), BuildingBlock: KIFKEQ_clean_linker_1, # of connection points: 2
#     Edge 17, Type (0, 1), BuildingBlock: KIFKEQ_clean_linker_1, # of connection points: 2
#     Edge 18, Type (0, 1), BuildingBlock: KIFKEQ_clean_linker_1, # of connection points: 2
#     Edge 19, Type (0, 1), BuildingBlock: KIFKEQ_clean_linker_1, # of connection points: 2
#     Edge 20, Type (0, 1), BuildingBlock: KIFKEQ_clean_linker_1, # of connection points: 2
#     Edge 21, Type (0, 1), BuildingBlock: KIFKEQ_clean_linker_1, # of connection points: 2
#     Edge 22, Type (0, 1), BuildingBlock: KIFKEQ_clean_linker_1, # of connection points: 2
#     Edge 23, Type (0, 1), BuildingBlock: KIFKEQ_clean_linker_1, # of connection points: 2
#     Edge 24, Type (0, 1), BuildingBlock: KIFKEQ_clean_linker_1, # of connection points: 2
#     Edge 25, Type (0, 1), BuildingBlock: KIFKEQ_clean_linker_1, # of connection points: 2
#     Edge 26, Type (0, 1), BuildingBlock: KIFKEQ_clean_linker_1, # of connection points: 2
#     Edge 27, Type (0, 1), BuildingBlock: KIFKEQ_clean_linker_1, # of connection points: 2
#     Edge 28, Type (0, 1), BuildingBlock: KIFKEQ_clean_linker_1, # of connection points: 2
#     Edge 29, Type (0, 1), BuildingBlock: KIFKEQ_clean_linker_1, # of connection points: 2
#     Edge 30, Type (0, 1), BuildingBlock: KIFKEQ_clean_linker_1, # of connection points: 2
#     Edge 31, Type (0, 1), BuildingBlock: KIFKEQ_clean_linker_1, # of connection points: 2
#     Edge 32, Type (0, 1), BuildingBlock: KIFKEQ_clean_linker_1, # of connection points: 2
#     Edge 33, Type (0, 1), BuildingBlock: KIFKEQ_clean_linker_1, # of connection points: 2
#     Edge 34, Type (0, 1), BuildingBlock: KIFKEQ_clean_linker_1, # of connection points: 2
#     Edge 35, Type (0, 1), BuildingBlock: KIFKEQ_clean_linker_1, # of connection points: 2
# Relax obj value: 0.096
# Max RMSD: 0.224
# Mean RMSD: 0.152
data_MOF--net-pyr--node1-MIFKUJ_clean_sbu_0--node2-CUQRIR_clean_linker_1--edge1-KIFKEQ_clean_linker_1
_symmetry_space_group_name_H-M    P1
_symmetry_Int_Tables_number       1
_symmetry_cell_setting            triclinic
loop_
_symmetry_equiv_pos_as_xyz
'x, y, z'
_cell_length_a     37.148546
_cell_length_b     33.687299
_cell_length_c     34.857651
_cell_angle_alpha  83.355662
_cell_angle_beta   90.006013
_cell_angle_gamma 100.40526
loop_
_atom_site_label
_atom_site_type_symbol
_atom_site_fract_x
_atom_site_fract_y
_atom_site_fract_z
_atom_type_partial_charge
C0 C 0.18608 0.20533 0.20928 0.0
N1 N 0.20891 0.1786 0.21746 0.0
N2 N 0.19356 0.22574 0.17363 0.0
C3 C 0.15448 0.20907 0.23493 0.0
C4 C 0.22153 0.20995 0.16013 0.0
N5 N 0.23069 0.18087 0.18673 0.0
C6 C 0.2416 0.22523 0.12234 0.0
H7 H 0.13205 0.21938 0.21773 0.0
H8 H 0.16425 0.23164 0.25515 0.0
H9 H 0.14344 0.17965 0.25227 0.0
H10 H 0.23925 0.25727 0.11303 0.0
H11 H 0.22942 0.20636 0.09991 0.0
H12 H 0.27097 0.22298 0.12466 0.0
C13 C 0.35343 0.85134 0.66144 0.0
N14 N 0.34652 0.87564 0.68787 0.0
N15 N 0.37882 0.82912 0.6745 0.0
C16 C 0.33291 0.84648 0.6245 0.0
C17 C 0.38678 0.8404 0.71002 0.0
N18 N 0.36688 0.86836 0.71827 0.0
C19 C 0.41496 0.82535 0.73608 0.0
H20 H 0.30442 0.85154 0.62774 0.0
H21 H 0.33212 0.81574 0.6157 0.0
H22 H 0.34691 0.86931 0.60124 0.0
H23 H 0.42807 0.84925 0.7536 0.0
H24 H 0.43635 0.8155 0.71915 0.0
H25 H 0.40123 0.799 0.75618 0.0
C26 C 0.63475 0.34419 0.8269 0.0
N27 N 0.65717 0.33882 0.857 0.0
N28 N 0.64477 0.38161 0.80722 0.0
C29 C 0.6014 0.31415 0.81826 0.0
C30 C 0.67384 0.3991 0.82661 0.0
N31 N 0.68118 0.37324 0.85718 0.0
C32 C 0.69688 0.44003 0.81379 0.0
H33 H 0.58069 0.32982 0.80311 0.0
H34 H 0.58884 0.29626 0.84522 0.0
H35 H 0.60956 0.29288 0.7993 0.0
H36 H 0.68775 0.46302 0.83001 0.0
H37 H 0.69407 0.44905 0.78246 0.0
H38 H 0.72617 0.43991 0.81997 0.0
C39 C 0.83552 0.63382 0.29358 0.0
N40 N 0.86991 0.65539 0.28745 0.0
N41 N 0.82092 0.64179 0.32675 0.0
C42 C 0.81667 0.60384 0.26793 0.0
C43 C 0.84759 0.66886 0.34072 0.0
N44 N 0.87773 0.67674 0.31715 0.0
C45 C 0.84265 0.69083 0.3751 0.0
H46 H 0.80369 0.62046 0.244 0.0
H47 H 0.79512 0.58097 0.28416 0.0
H48 H 0.83667 0.58806 0.25513 0.0
H49 H 0.85568 0.67662 0.40046 0.0
H50 H 0.81329 0.68923 0.38224 0.0
H51 H 0.85593 0.72327 0.36957 0.0
C52 C 0.79969 0.84431 0.83085 0.0
N53 N 0.82992 0.84087 0.81073 0.0
N54 N 0.79052 0.88113 0.82107 0.0
C55 C 0.78068 0.81293 0.86211 0.0
C56 C 0.81636 0.90022 0.79454 0.0
N57 N 0.84062 0.87582 0.78843 0.0
C58 C 0.81632 0.9415 0.7729 0.0
H59 H 0.76131 0.78979 0.84857 0.0
H60 H 0.76507 0.82678 0.88244 0.0
H61 H 0.80075 0.79735 0.87854 0.0
H62 H 0.83512 0.96456 0.78713 0.0
H63 H 0.78855 0.9493 0.773 0.0
H64 H 0.82602 0.94276 0.7426 0.0
C65 C 0.73141 0.19948 0.41433 0.0
N66 N 0.73713 0.16968 0.39311 0.0
N67 N 0.69741 0.20798 0.40852 0.0
C68 C 0.75878 0.22037 0.4406 0.0
C69 C 0.68247 0.18211 0.3836 0.0
N70 N 0.70633 0.15853 0.37457 0.0
C71 C 0.64516 0.18122 0.36632 0.0
H72 H 0.7757 0.19897 0.45444 0.0
H73 H 0.74499 0.23312 0.46327 0.0
H74 H 0.77712 0.2458 0.42332 0.0
H75 H 0.64817 0.18871 0.33449 0.0
H76 H 0.62992 0.20264 0.37815 0.0
H77 H 0.62871 0.15017 0.37224 0.0
C78 C 0.33239 0.62668 0.19984 0.0
N79 N 0.36525 0.64905 0.20708 0.0
N80 N 0.316 0.64582 0.17024 0.0
C81 C 0.3165 0.58607 0.22158 0.0
C82 C 0.3401 0.68067 0.15988 0.0
N83 N 0.37005 0.6826 0.18216 0.0
C84 C 0.33318 0.71436 0.13002 0.0
H85 H 0.33841 0.56913 0.2315 0.0
H86 H 0.29739 0.56747 0.20337 0.0
H87 H 0.30127 0.59101 0.24747 0.0
H88 H 0.30348 0.71487 0.12773 0.0
H89 H 0.34374 0.70936 0.10153 0.0
H90 H 0.34752 0.74437 0.13717 0.0
C91 C 0.13135 0.37016 0.71802 0.0
N92 N 0.15772 0.36395 0.69365 0.0
N93 N 0.14433 0.40104 0.73877 0.0
C94 C 0.094 0.34395 0.72409 0.0
C95 C 0.17952 0.41331 0.72643 0.0
N96 N 0.18787 0.39056 0.69917 0.0
C97 C 0.20477 0.44927 0.73933 0.0
H98 H 0.07515 0.35551 0.70267 0.0
H99 H 0.08285 0.34477 0.75346 0.0
H100 H 0.09496 0.312 0.71991 0.0
H101 H 0.22089 0.43864 0.76396 0.0
H102 H 0.18898 0.47138 0.74912 0.0
H103 H 0.22399 0.46477 0.71562 0.0
Zn104 Zn 0.08717 0.03388 0.54449 0.0
Zn105 Zn 1.00421 0.98478 0.47021 0.0
C106 C 0.11959 0.11381 0.55711 0.0
O107 O 0.14733 0.1014 0.54187 0.0
C108 C 0.98377 0.93327 0.40961 0.0
O109 O 0.97689 0.96732 0.39131 0.0
O110 O 0.13003 0.0143 0.57178 0.0
O111 O 0.04106 0.99648 0.56548 0.0
O112 O 0.99757 0.9685 0.52794 0.0
C113 C 0.12749 0.98256 0.59596 0.0
O114 O 0.0954 0.95907 0.60324 0.0
O115 O 0.08867 0.09002 0.56043 0.0
C116 C 0.96373 0.04531 0.4281 0.0
O117 O 0.99367 0.05864 0.40692 0.0
O118 O 0.96328 0.01614 0.45491 0.0
O119 O 0.05359 0.01498 0.44921 0.0
O120 O 0.09811 0.03967 0.48734 0.0
O121 O 0.99525 0.93299 0.44404 0.0
C122 C 0.01057 0.97344 0.56121 0.0
C123 C 0.08607 0.03335 0.45401 0.0
Zn124 Zn 0.53429 0.99126 1.00158 0.0
Zn125 Zn 0.51605 0.04493 0.10096 0.0
C126 C 0.47757 0.94897 0.95903 0.0
O127 O 0.48828 0.91844 0.98006 0.0
C128 C 0.57173 0.08737 0.14758 0.0
O129 O 0.57106 0.11783 0.12056 0.0
O130 O 0.5759 0.97068 0.9777 0.0
O131 O 0.55345 0.05025 1.00447 0.0
O132 O 0.54316 0.08097 0.0554 0.0
C133 C 0.58045 0.97528 0.94118 0.0
O134 O 0.55758 0.99291 0.91947 0.0
O135 O 0.49257 0.985 0.96399 0.0
C136 C 0.45289 0.05762 0.14444 0.0
O137 O 0.46761 0.03706 0.17268 0.0
O138 O 0.46861 0.06446 0.11126 0.0
O139 O 0.50605 0.98364 0.10199 0.0
O140 O 0.51841 0.95453 0.05056 0.0
O141 O 0.54968 0.05406 0.14594 0.0
C142 C 0.55685 0.08179 0.02182 0.0
C143 C 0.50763 0.95221 0.08549 0.0
Zn144 Zn 0.5169 0.47623 0.48579 0.0
Zn145 Zn 0.48868 0.54277 0.52766 0.0
C146 C 0.57042 0.52144 0.43603 0.0
O147 O 0.54785 0.50059 0.4135 0.0
C148 C 0.43509 0.48698 0.57693 0.0
O149 O 0.45986 0.49576 0.60302 0.0
O150 O 0.5316 0.42588 0.46828 0.0
O151 O 0.51067 0.46264 0.54386 0.0
O152 O 0.53202 0.52509 0.55462 0.0
C153 C 0.55933 0.41672 0.48644 0.0
O154 O 0.57304 0.43879 0.51348 0.0
O155 O 0.56246 0.51808 0.4719 0.0
C156 C 0.45845 0.61368 0.53639 0.0
O157 O 0.44105 0.60353 0.50515 0.0
O158 O 0.48125 0.59254 0.55085 0.0
O159 O 0.49225 0.55775 0.47011 0.0
O160 O 0.47664 0.49599 0.45304 0.0
O161 O 0.44167 0.50233 0.54198 0.0
C162 C 0.52934 0.48725 0.5644 0.0
C163 C 0.47843 0.53431 0.44573 0.0
Zn164 Zn 0.97496 0.55604 0.97719 0.0
Zn165 Zn 0.01324 0.49525 0.03638 0.0
C166 C 0.92335 0.49558 0.94497 0.0
O167 O 0.94505 0.50921 0.91472 0.0
C168 C 0.06631 0.54844 0.07171 0.0
O169 O 0.0424 0.53525 0.10015 0.0
O170 O 0.96165 0.60299 0.94206 0.0
O171 O 0.98024 0.57468 0.0302 0.0
O172 O 0.97305 0.51465 0.06508 0.0
C173 C 0.92902 0.60936 0.94374 0.0
O174 O 0.90571 0.58585 0.96868 0.0
O175 O 0.93119 0.51 0.97674 0.0
C176 C 0.05609 0.43647 0.05085 0.0
O177 O 0.07019 0.4582 0.01887 0.0
O178 O 0.02827 0.44593 0.06645 0.0
O179 O 0.00607 0.47931 0.9822 0.0
O180 O 0.01865 0.54116 0.95199 0.0
O181 O 0.05923 0.5372 0.0385 0.0
C182 C 0.97142 0.55237 0.06199 0.0
C183 C 0.0201 0.50369 0.95334 0.0
H184 H 0.22443 0.19647 0.28894 0.0
H185 H 0.18516 0.09793 0.22279 0.0
H186 H 0.20044 0.15434 0.34824 0.0
H187 H 0.16144 0.05468 0.28221 0.0
H188 H 0.0695 0.03013 0.37773 0.0
H189 H 0.10854 0.05811 0.32153 0.0
H190 H 0.19785 0.09643 0.39616 0.0
H191 H 0.1585 0.0693 0.45256 0.0
C192 C 0.21215 0.16496 0.28761 0.0
C193 C 0.20658 0.15015 0.25174 0.0
C194 C 0.19826 0.14078 0.32145 0.0
C195 C 0.1784 0.10128 0.31994 0.0
C196 C 0.17601 0.08523 0.28426 0.0
C197 C 0.19003 0.10957 0.25038 0.0
C198 C 0.09754 0.0442 0.38224 0.0
C199 C 0.11064 0.0479 0.41974 0.0
C200 C 0.12012 0.05987 0.34993 0.0
C201 C 0.15642 0.07953 0.35427 0.0
C202 C 0.16994 0.08187 0.39177 0.0
C203 C 0.14732 0.06629 0.42412 0.0
H204 H 0.33533 0.83833 0.78706 0.0
H205 H 0.40689 0.94116 0.72683 0.0
H206 H 0.35335 0.86266 0.84902 0.0
H207 H 0.42659 0.96518 0.78843 0.0
H208 H 0.44353 0.87551 0.93998 0.0
H209 H 0.40818 0.86147 0.88316 0.0
H210 H 0.41724 0.99038 0.8485 0.0
H211 H 0.45391 0.00447 0.90526 0.0
C212 C 0.35405 0.86694 0.78733 0.0
C213 C 0.36957 0.88826 0.75265 0.0
C214 C 0.36485 0.88063 0.82264 0.0
C215 C 0.39203 0.9155 0.82388 0.0
C216 C 0.40541 0.93844 0.78875 0.0
C217 C 0.39418 0.92489 0.75344 0.0
C218 C 0.43764 0.90096 0.92059 0.0
C219 C 0.4519 0.94111 0.92703 0.0
C220 C 0.41696 0.89289 0.88802 0.0
C221 C 0.40975 0.92478 0.86103 0.0
C222 C 0.42262 0.96506 0.86839 0.0
C223 C 0.44348 0.97315 0.90104 0.0
H224 H 0.61751 0.45076 0.79541 0.0
H225 H 0.63761 0.34855 0.74051 0.0
H226 H 0.58923 0.47687 0.73649 0.0
H227 H 0.61024 0.37459 0.68119 0.0
H228 H 0.52391 0.40852 0.59707 0.0
H229 H 0.55197 0.38362 0.65603 0.0
H230 H 0.60281 0.50662 0.67097 0.0
H231 H 0.57385 0.53162 0.61262 0.0
C232 C 0.61608 0.43423 0.77043 0.0
C233 C 0.62942 0.39774 0.77221 0.0
C234 C 0.60007 0.44909 0.7367 0.0
C235 C 0.5973 0.42775 0.70406 0.0
C236 C 0.61124 0.39142 0.70593 0.0
C237 C 0.62705 0.37656 0.7397 0.0
C238 C 0.54102 0.43027 0.61297 0.0
C239 C 0.54657 0.47207 0.60015 0.0
C240 C 0.55733 0.41596 0.64667 0.0
C241 C 0.57976 0.44308 0.66829 0.0
C242 C 0.58531 0.48491 0.6554 0.0
C243 C 0.56886 0.49923 0.62178 0.0
H244 H 0.92962 0.62055 0.29128 0.0
H245 H 0.86186 0.68072 0.21282 0.0
H246 H 0.95944 0.59854 0.23653 0.0
H247 H 0.89092 0.65883 0.15799 0.0
H248 H 0.9562 0.51676 0.13666 0.0
H249 H 0.93829 0.54822 0.19167 0.0
H250 H 0.94604 0.6626 0.11927 0.0
H251 H 0.96331 0.63116 0.06427 0.0
C252 C 0.92219 0.63025 0.26211 0.0
C253 C 0.89394 0.65263 0.25592 0.0
C254 C 0.93869 0.61716 0.23085 0.0
C255 C 0.92728 0.62647 0.19283 0.0
C256 C 0.90067 0.65133 0.18673 0.0
C257 C 0.88411 0.66409 0.21798 0.0
C258 C 0.95411 0.54862 0.13247 0.0
C259 C 0.9609 0.57125 0.09587 0.0
C260 C 0.94422 0.5668 0.16413 0.0
C261 C 0.94077 0.60802 0.15996 0.0
C262 C 0.94809 0.63073 0.12348 0.0
C263 C 0.95806 0.61263 0.09191 0.0
H264 H 0.28559 0.17414 0.23635 0.0
H265 H 0.24135 0.13681 0.12933 0.0
H266 H 0.33851 0.14182 0.22715 0.0
H267 H 0.29403 0.1044 0.11974 0.0
H268 H 0.4142 0.09967 0.0923 0.0
H269 H 0.35896 0.12635 0.10419 0.0
H270 H 0.35861 0.07706 0.22425 0.0
H271 H 0.4142 0.05086 0.21251 0.0
C272 C 0.28699 0.15832 0.21122 0.0
C273 C 0.2597 0.15812 0.18339 0.0
C274 C 0.31725 0.13987 0.20584 0.0
C275 C 0.32078 0.12085 0.17245 0.0
C276 C 0.29262 0.11947 0.14536 0.0
C277 C 0.26241 0.13783 0.15084 0.0
C278 C 0.40233 0.09441 0.12123 0.0
C279 C 0.41875 0.07314 0.15143 0.0
C280 C 0.37047 0.1095 0.12801 0.0
C281 C 0.35422 0.1038 0.1652 0.0
C282 C 0.37057 0.08239 0.19537 0.0
C283 C 0.40238 0.06718 0.18855 0.0
H284 H 0.34499 0.93782 0.63304 0.0
H285 H 0.28717 0.87036 0.73381 0.0
H286 H 0.29204 0.96909 0.61596 0.0
H287 H 0.23412 0.90275 0.71805 0.0
H288 H 0.13398 0.91193 0.64032 0.0
H289 H 0.1889 0.89337 0.6697 0.0
H290 H 0.25026 0.01198 0.6273 0.0
H291 H 0.19549 0.02996 0.59668 0.0
C292 C 0.32122 0.93102 0.65227 0.0
C293 C 0.31982 0.90176 0.68452 0.0
C294 C 0.29086 0.94891 0.64264 0.0
C295 C 0.25846 0.93802 0.6653 0.0
C296 C 0.25833 0.91121 0.69951 0.0
C297 C 0.28879 0.89316 0.70898 0.0
C298 C 0.15914 0.93414 0.63744 0.0
C299 C 0.16046 0.9722 0.61571 0.0
C300 C 0.19063 0.92367 0.65469 0.0
C301 C 0.22417 0.95115 0.65092 0.0
C302 C 0.2251 0.98981 0.63032 0.0
C303 C 0.19367 1.00014 0.61278 0.0
H304 H 0.69666 0.43151 0.90415 0.0
H305 H 0.73656 0.33143 0.86328 0.0
H306 H 0.75576 0.45339 0.93332 0.0
H307 H 0.79596 0.35274 0.8927 0.0
H308 H 0.86308 0.47779 0.9937 0.0
H309 H 0.80267 0.43925 0.98109 0.0
H310 H 0.84396 0.41267 0.87292 0.0
H311 H 0.90405 0.45079 0.88553 0.0
C312 C 0.71792 0.41355 0.9026 0.0
C313 C 0.71241 0.37998 0.88159 0.0
C314 C 0.75169 0.4259 0.91932 0.0
C315 C 0.78074 0.40502 0.91503 0.0
C316 C 0.77427 0.36971 0.89615 0.0
C317 C 0.7403 0.35723 0.87968 0.0
C318 C 0.8594 0.46303 0.9676 0.0
C319 C 0.88828 0.46766 0.94044 0.0
C320 C 0.82476 0.44112 0.96031 0.0
C321 C 0.81843 0.423 0.92594 0.0
C322 C 0.84792 0.42582 0.89987 0.0
C323 C 0.88235 0.44799 0.90697 0.0
H324 H 0.75761 0.64961 0.29205 0.0
H325 H 0.80315 0.60136 0.3971 0.0
H326 H 0.69571 0.62536 0.31921 0.0
H327 H 0.74142 0.5759 0.42441 0.0
H328 H 0.62673 0.5634 0.47452 0.0
H329 H 0.68722 0.59612 0.44817 0.0
H330 H 0.65498 0.56235 0.33554 0.0
H331 H 0.59466 0.53104 0.3614 0.0
C332 C 0.75409 0.63341 0.32089 0.0
C333 C 0.78468 0.6269 0.34255 0.0
C334 C 0.71883 0.61952 0.33649 0.0
C335 C 0.71356 0.59859 0.37401 0.0
C336 C 0.74445 0.59244 0.39571 0.0
C337 C 0.77969 0.60659 0.3801 0.0
C338 C 0.63249 0.5635 0.44405 0.0
C339 C 0.60595 0.54451 0.4201 0.0
C340 C 0.66722 0.58193 0.429 0.0
C341 C 0.67605 0.58167 0.38976 0.0
C342 C 0.64906 0.56363 0.36574 0.0
C343 C 0.61445 0.54541 0.38069 0.0
H344 H 0.18163 0.29349 0.20167 0.0
H345 H 0.16332 0.2265 0.10327 0.0
H346 H 0.14592 0.34292 0.17205 0.0
H347 H 0.12798 0.27616 0.07305 0.0
H348 H 0.10553 0.40067 0.01674 0.0
H349 H 0.13867 0.34924 0.04602 0.0
H350 H 0.08058 0.34515 0.15411 0.0
H351 H 0.04726 0.39708 0.12473 0.0
C352 C 0.16994 0.28955 0.17361 0.0
C353 C 0.17507 0.25638 0.15465 0.0
C354 C 0.14939 0.31759 0.15677 0.0
C355 C 0.13389 0.31322 0.12038 0.0
C356 C 0.13975 0.28043 0.10104 0.0
C357 C 0.16006 0.25218 0.11811 0.0
C358 C 0.09961 0.38869 0.04672 0.0
C359 C 0.07385 0.40305 0.06849 0.0
C360 C 0.1185 0.35904 0.0634 0.0
C361 C 0.11234 0.34326 0.10237 0.0
C362 C 0.08615 0.3571 0.12408 0.0
C363 C 0.0669 0.38657 0.10723 0.0
H364 H 0.65593 0.26261 0.84109 0.0
H365 H 0.65082 0.33443 0.93463 0.0
H366 H 0.63623 0.20072 0.88448 0.0
H367 H 0.63338 0.27224 0.97958 0.0
H368 H 0.54964 0.15965 0.03112 0.0
H369 H 0.58128 0.22246 0.99475 0.0
H370 H 0.64573 0.15343 0.93433 0.0
H371 H 0.61235 0.09084 0.96886 0.0
C372 C 0.65151 0.26484 0.87141 0.0
C373 C 0.65423 0.30301 0.88454 0.0
C374 C 0.6405 0.22936 0.89654 0.0
C375 C 0.63263 0.23113 0.93578 0.0
C376 C 0.63826 0.26955 0.94946 0.0
C377 C 0.64883 0.30518 0.92398 0.0
C378 C 0.57068 0.15807 0.01012 0.0
C379 C 0.57803 0.12032 1.00232 0.0
C380 C 0.58916 0.19415 0.98946 0.0
C381 C 0.61599 0.19332 0.96108 0.0
C382 C 0.62459 0.15547 0.95499 0.0
C383 C 0.60554 0.11946 0.97495 0.0
H384 H 0.90071 0.74315 0.26637 0.0
H385 H 0.92305 0.68251 0.37685 0.0
H386 H 0.93715 0.80663 0.28289 0.0
H387 H 0.95694 0.74582 0.39516 0.0
H388 H 0.01387 0.86491 0.42621 0.0
H389 H 1.0012 0.80233 0.39579 0.0
H390 H 0.92423 0.85376 0.32087 0.0
H391 H 0.93891 0.91672 0.34957 0.0
C392 C 0.91464 0.74321 0.29366 0.0
C393 C 0.90889 0.70832 0.32058 0.0
C394 C 0.93479 0.77976 0.30366 0.0
C395 C 0.94896 0.78215 0.34109 0.0
C396 C 0.94664 0.74578 0.36614 0.0
C397 C 0.92718 0.70924 0.35574 0.0
C398 C 0.99453 0.8628 0.40295 0.0
C399 C 0.97714 0.89559 0.39053 0.0
C400 C 0.98712 0.82683 0.38549 0.0
C401 C 0.96142 0.82239 0.35578 0.0
C402 C 0.94477 0.85583 0.34292 0.0
C403 C 0.95283 0.89201 0.35977 0.0
H404 H 0.38113 0.75173 0.70278 0.0
H405 H 0.40843 0.84016 0.60276 0.0
H406 H 0.40332 0.70068 0.66901 0.0
H407 H 0.43004 0.7891 0.56844 0.0
H408 H 0.41775 0.6704 0.5092 0.0
H409 H 0.40068 0.72402 0.54302 0.0
H410 H 0.46225 0.68703 0.64168 0.0
H411 H 0.47935 0.63336 0.60799 0.0
C412 C 0.39232 0.76021 0.6737 0.0
C413 C 0.3932 0.79965 0.65523 0.0
C414 C 0.40495 0.73114 0.65437 0.0
C415 C 0.41833 0.74096 0.61608 0.0
C416 C 0.4195 0.7806 0.59778 0.0
C417 C 0.40721 0.80973 0.61729 0.0
C418 C 0.42783 0.67386 0.53801 0.0
C419 C 0.44983 0.6476 0.55594 0.0
C420 C 0.4182 0.70467 0.55728 0.0
C421 C 0.43009 0.70958 0.59499 0.0
C422 C 0.45244 0.68366 0.61275 0.0
C423 C 0.46238 0.65311 0.59335 0.0
H424 H 0.85107 0.83019 0.73236 0.0
H425 H 0.89565 0.94046 0.78019 0.0
H426 H 0.89589 0.84868 0.67875 0.0
H427 H 0.9396 0.96011 0.72619 0.0
H428 H 0.02972 0.97511 0.63704 0.0
H429 H 0.99249 0.94614 0.69439 0.0
H430 H 0.90436 0.89844 0.62221 0.0
H431 H 0.94191 0.92642 0.56482 0.0
C432 C 0.87093 0.8581 0.73156 0.0
C433 C 0.86993 0.88414 0.75998 0.0
C434 C 0.89627 0.86897 0.70074 0.0
C435 C 0.92113 0.90613 0.69786 0.0
C436 C 0.92112 0.93115 0.72753 0.0
C437 C 0.89582 0.92019 0.75828 0.0
C438 C 1.00256 0.95806 0.63332 0.0
C439 C 0.9888 0.95334 0.59617 0.0
C440 C 0.98112 0.94162 0.66628 0.0
C441 C 0.94532 0.92014 0.663 0.0
C442 C 0.93197 0.91435 0.6259 0.0
C443 C 0.95345 0.93068 0.59291 0.0
H444 H 0.65986 0.08805 0.37287 0.0
H445 H 0.74016 0.17629 0.30518 0.0
H446 H 0.63292 0.06401 0.31418 0.0
H447 H 0.7146 0.15144 0.24584 0.0
H448 H 0.6173 0.15621 0.16362 0.0
H449 H 0.65931 0.16411 0.21666 0.0
H450 H 0.63029 0.03548 0.25493 0.0
H451 H 0.58712 0.02789 0.20234 0.0
C452 C 0.6729 0.10065 0.34525 0.0
C453 C 0.70163 0.13412 0.34318 0.0
C454 C 0.65747 0.08709 0.31152 0.0
C455 C 0.67089 0.10663 0.2751 0.0
C456 C 0.70289 0.13653 0.27338 0.0
C457 C 0.71806 0.15027 0.30724 0.0
C458 C 0.62 0.12954 0.18318 0.0
C459 C 0.59849 0.09155 0.17902 0.0
C460 C 0.64453 0.13393 0.21341 0.0
C461 C 0.64846 0.10037 0.24012 0.0
C462 C 0.62775 0.06206 0.23518 0.0
C463 C 0.60296 0.05772 0.20505 0.0
H464 H 0.41481 0.60001 0.20726 0.0
H465 H 0.36588 0.6739 0.27719 0.0
H466 H 0.44583 0.5729 0.2641 0.0
H467 H 0.39632 0.64715 0.3342 0.0
H468 H 0.47745 0.61443 0.42354 0.0
H469 H 0.45529 0.64531 0.36387 0.0
H470 H 0.42686 0.52714 0.32402 0.0
H471 H 0.44974 0.49599 0.38388 0.0
C472 C 0.41167 0.61116 0.23476 0.0
C473 C 0.38883 0.63952 0.2381 0.0
C474 C 0.42886 0.59534 0.26732 0.0
C475 C 0.42345 0.60771 0.30378 0.0
C476 C 0.40154 0.63734 0.30655 0.0
C477 C 0.38427 0.65288 0.27403 0.0
C478 C 0.46661 0.59486 0.4021 0.0
C479 C 0.4652 0.55257 0.40872 0.0
C480 C 0.45376 0.61267 0.36786 0.0
C481 C 0.43917 0.58876 0.33917 0.0
C482 C 0.43831 0.54652 0.34537 0.0
C483 C 0.45113 0.5286 0.37981 0.0
H484 H 0.16332 0.39941 0.81316 0.0
H485 H 0.08406 0.43504 0.73238 0.0
H486 H 0.13217 0.42405 0.8653 0.0
H487 H 0.05281 0.46026 0.78428 0.0
H488 H 0.0393 0.42917 0.95252 0.0
H489 H 0.06912 0.40426 0.90011 0.0
H490 H 0.06891 0.51763 0.82847 0.0
H491 H 0.03957 0.54302 0.8811 0.0
C492 C 0.13922 0.41267 0.80678 0.0
C493 C 0.12591 0.41553 0.76911 0.0
C494 C 0.12132 0.42653 0.83645 0.0
C495 C 0.09008 0.44404 0.82879 0.0
C496 C 0.07695 0.44712 0.79091 0.0
C497 C 0.09459 0.43264 0.76136 0.0
C498 C 0.04564 0.44887 0.92565 0.0
C499 C 0.03728 0.48822 0.9211 0.0
C500 C 0.0628 0.43461 0.8957 0.0
C501 C 0.07137 0.45906 0.8603 0.0
C502 C 0.06241 0.49808 0.85541 0.0
C503 C 0.0458 0.51265 0.88561 0.0
H504 H 0.71906 0.85152 0.81444 0.0
H505 H 0.79491 0.94441 0.86225 0.0
H506 H 0.66754 0.87513 0.84323 0.0
H507 H 0.74361 0.96801 0.89169 0.0
H508 H 0.64268 0.95729 0.9755 0.0
H509 H 0.69421 0.93587 0.945 0.0
H510 H 0.63941 0.94068 0.83582 0.0
H511 H 0.58811 0.96255 0.86603 0.0
C512 C 0.72443 0.87717 0.83099 0.0
C513 C 0.76051 0.89643 0.83623 0.0
C514 C 0.69519 0.8907 0.84735 0.0
C515 C 0.7017 0.9233 0.86973 0.0
C516 C 0.73793 0.94264 0.87478 0.0
C517 C 0.76712 0.92947 0.85786 0.0
C518 C 0.64163 0.95373 0.94501 0.0
C519 C 0.61136 0.96158 0.92315 0.0
C520 C 0.67119 0.94175 0.92755 0.0
C521 C 0.67073 0.93672 0.88809 0.0
C522 C 0.64033 0.94416 0.86634 0.0
C523 C 0.61108 0.9568 0.88362 0.0
H524 H 0.80723 0.20804 0.37939 0.0
H525 H 0.73952 0.08987 0.40512 0.0
H526 H 0.86218 0.17751 0.38599 0.0
H527 H 0.79423 0.05865 0.41026 0.0
H528 H 0.89782 0.02527 0.4671 0.0
H529 H 0.84313 0.0547 0.455 0.0
H530 H 0.89859 0.13486 0.35886 0.0
H531 H 0.95373 0.10594 0.37154 0.0
C532 C 0.80424 0.17543 0.38618 0.0
C533 C 0.7693 0.1513 0.3924 0.0
C534 C 0.83564 0.15782 0.38957 0.0
C535 C 0.83277 0.11557 0.3991 0.0
C536 C 0.79758 0.09133 0.40365 0.0
C537 C 0.76622 0.10904 0.40027 0.0
C538 C 0.89843 0.04916 0.44334 0.0
C539 C 0.93031 0.06327 0.42037 0.0
C540 C 0.86687 0.06585 0.43618 0.0
C541 C 0.86625 0.09711 0.40582 0.0
C542 C 0.89813 0.11115 0.38275 0.0
C543 C 0.92975 0.09444 0.38993 0.0
H544 H 0.25183 0.62181 0.20955 0.0
H545 H 0.30031 0.64224 0.0951 0.0
H546 H 0.19166 0.60115 0.18283 0.0
H547 H 0.23986 0.62485 0.06755 0.0
H548 H 0.13144 0.54594 0.03676 0.0
H549 H 0.19246 0.57091 0.05947 0.0
H550 H 0.14466 0.6253 0.1489 0.0
H551 H 0.08379 0.59818 0.12737 0.0
C552 C 0.24944 0.62183 0.1786 0.0
C553 C 0.28055 0.63329 0.15436 0.0
C554 C 0.21491 0.61077 0.1631 0.0
C555 C 0.21062 0.61167 0.12285 0.0
C556 C 0.24198 0.62331 0.09864 0.0
C557 C 0.27657 0.63369 0.11429 0.0
C558 C 0.13413 0.56387 0.06082 0.0
C559 C 0.10299 0.56999 0.08048 0.0
C560 C 0.16914 0.57826 0.07391 0.0
C561 C 0.17367 0.59966 0.10651 0.0
C562 C 0.14234 0.60788 0.1245 0.0
C563 C 0.10742 0.5928 0.11191 0.0
H564 H 0.20027 0.39773 0.62197 0.0
H565 H 0.25389 0.39327 0.73146 0.0
H566 H 0.25983 0.41198 0.5883 0.0
H567 H 0.31325 0.41084 0.69872 0.0
H568 H 0.41889 0.42689 0.63668 0.0
H569 H 0.35859 0.39443 0.66275 0.0
H570 H 0.3086 0.46493 0.57308 0.0
H571 H 0.36902 0.49496 0.5457 0.0
C572 C 0.22492 0.39957 0.63873 0.0
C573 C 0.22267 0.395 0.67922 0.0
C574 C 0.25911 0.40831 0.61956 0.0
C575 C 0.29178 0.41319 0.64056 0.0
C576 C 0.2891 0.40689 0.68122 0.0
C577 C 0.25502 0.39745 0.7002 0.0
C578 C 0.39489 0.43475 0.6222 0.0
C579 C 0.39858 0.46359 0.58936 0.0
C580 C 0.36022 0.41648 0.63734 0.0
C581 C 0.32834 0.42753 0.6207 0.0
C582 C 0.3322 0.45511 0.58666 0.0
C583 C 0.36693 0.47259 0.57095 0.0
H584 H 0.80498 0.76292 0.80102 0.0
H585 H 0.89862 0.84473 0.83619 0.0
H586 H 0.83222 0.70466 0.82685 0.0
H587 H 0.9261 0.7867 0.86268 0.0
H588 H 0.97115 0.66905 0.89403 0.0
H589 H 0.95078 0.72446 0.85292 0.0
H590 H 0.83972 0.67971 0.89467 0.0
H591 H 0.8598 0.62457 0.93518 0.0
C592 C 0.8319 0.76818 0.81346 0.0
C593 C 0.84975 0.80789 0.81704 0.0
C594 C 0.84737 0.73505 0.8285 0.0
C595 C 0.88097 0.74109 0.84751 0.0
C596 C 0.90024 0.78102 0.84813 0.0
C597 C 0.88467 0.8142 0.83296 0.0
C598 C 0.94236 0.67097 0.89419 0.0
C599 C 0.91711 0.64248 0.91798 0.0
C600 C 0.93075 0.70272 0.87071 0.0
C601 C 0.89361 0.70629 0.8703 0.0
C602 C 0.86841 0.67742 0.89372 0.0
C603 C 0.88001 0.64598 0.91728 0.0
H604 H 0.41563 0.70076 0.12116 0.0
H605 H 0.39331 0.73765 0.23142 0.0
H606 H 0.45589 0.76544 0.10304 0.0
H607 H 0.43556 0.80221 0.21483 0.0
H608 H 0.45769 0.93046 0.14523 0.0
H609 H 0.43272 0.86215 0.17525 0.0
H610 H 0.50761 0.81378 0.10626 0.0
H611 H 0.53067 0.88188 0.07461 0.0
C612 C 0.42094 0.72228 0.1422 0.0
C613 C 0.40173 0.71442 0.17762 0.0
C614 C 0.44406 0.7595 0.13196 0.0
C615 C 0.44885 0.78972 0.15721 0.0
C616 C 0.43198 0.78019 0.19422 0.0
C617 C 0.40837 0.74293 0.20419 0.0
C618 C 0.469 0.90519 0.1368 0.0
C619 C 0.49567 0.91143 0.10711 0.0
C620 C 0.45493 0.8659 0.15429 0.0
C621 C 0.46775 0.83197 0.14304 0.0
C622 C 0.49621 0.83879 0.11503 0.0
C623 C 0.50962 0.87792 0.09694 0.0
H624 H 0.20103 0.30777 0.69391 0.0
H625 H 0.10738 0.34714 0.63946 0.0
H626 H 0.19249 0.24906 0.65727 0.0
H627 H 0.09826 0.28826 0.60296 0.0
H628 H 0.06842 0.15036 0.58903 0.0
H629 H 0.07913 0.2135 0.61885 0.0
H630 H 0.1945 0.23002 0.5908 0.0
H631 H 0.18395 0.16692 0.56124 0.0
C632 C 0.17902 0.30409 0.67353 0.0
C633 C 0.15479 0.33168 0.66942 0.0
C634 C 0.17402 0.27055 0.65262 0.0
C635 C 0.14452 0.26387 0.62739 0.0
C636 C 0.12089 0.29222 0.62259 0.0
C637 C 0.12611 0.32588 0.64329 0.0
C638 C 0.09602 0.16761 0.58896 0.0
C639 C 0.12532 0.15347 0.57287 0.0
C640 C 0.10213 0.2039 0.60588 0.0
C641 C 0.13771 0.22668 0.6073 0.0
C642 C 0.16686 0.21292 0.59057 0.0
C643 C 0.16073 0.17684 0.57343 0.0
H644 H 0.68544 0.27539 0.36561 0.0
H645 H 0.67237 0.21109 0.48023 0.0
H646 H 0.65063 0.32537 0.38507 0.0
H647 H 0.6374 0.26082 0.50023 0.0
H648 H 0.61034 0.38315 0.52817 0.0
H649 H 0.64527 0.33341 0.51013 0.0
H650 H 0.586 0.32623 0.40382 0.0
H651 H 0.55101 0.3766 0.42178 0.0
C652 C 0.67549 0.27259 0.39518 0.0
C653 C 0.68165 0.24002 0.42168 0.0
C654 C 0.65525 0.3007 0.40621 0.0
C655 C 0.64095 0.2968 0.44408 0.0
C656 C 0.64822 0.26477 0.47092 0.0
C657 C 0.66829 0.23649 0.4597 0.0
C658 C 0.60453 0.37084 0.50101 0.0
C659 C 0.57795 0.38391 0.47632 0.0
C660 C 0.62449 0.34217 0.49079 0.0
C661 C 0.61856 0.32605 0.45549 0.0
C662 C 0.5915 0.33853 0.43102 0.0
C663 C 0.57124 0.36707 0.44143 0.0
loop_
_geom_bond_atom_site_label_1
_geom_bond_atom_site_label_2
_geom_bond_distance
_geom_bond_site_symmetry_2
_ccdc_geom_bond_type
C0 N1 1.317 . S
C0 N2 1.348 . S
C0 C3 1.485 . S
N1 C0 1.317 . S
N1 N5 1.370 . S
N2 C0 1.348 . S
N2 C4 1.346 . S
C3 C0 1.485 . S
C3 H7 0.960 . S
C3 H8 0.961 . S
C3 H9 0.960 . S
C4 N2 1.346 . S
C4 N5 1.307 . S
C4 C6 1.486 . S
N5 N1 1.370 . S
N5 C4 1.307 . S
C6 C4 1.486 . S
C6 H10 0.960 . S
C6 H11 0.960 . S
C6 H12 0.959 . S
H7 C3 0.960 . S
H8 C3 0.961 . S
H9 C3 0.960 . S
H10 C6 0.960 . S
H11 C6 0.960 . S
H12 C6 0.959 . S
C13 N14 1.317 . S
C13 N15 1.348 . S
C13 C16 1.485 . S
N14 C13 1.317 . S
N14 N18 1.370 . S
N15 C13 1.348 . S
N15 C17 1.346 . S
C16 C13 1.485 . S
C16 H20 0.960 . S
C16 H21 0.961 . S
C16 H22 0.960 . S
C17 N15 1.346 . S
C17 N18 1.307 . S
C17 C19 1.486 . S
N18 N14 1.370 . S
N18 C17 1.307 . S
C19 C17 1.486 . S
C19 H23 0.960 . S
C19 H24 0.960 . S
C19 H25 0.959 . S
H20 C16 0.960 . S
H21 C16 0.961 . S
H22 C16 0.960 . S
H23 C19 0.960 . S
H24 C19 0.960 . S
H25 C19 0.959 . S
C26 N27 1.317 . S
C26 N28 1.348 . S
C26 C29 1.485 . S
N27 C26 1.317 . S
N27 N31 1.370 . S
N28 C26 1.348 . S
N28 C30 1.346 . S
C29 C26 1.485 . S
C29 H33 0.960 . S
C29 H34 0.961 . S
C29 H35 0.960 . S
C30 N28 1.346 . S
C30 N31 1.307 . S
C30 C32 1.486 . S
N31 N27 1.370 . S
N31 C30 1.307 . S
C32 C30 1.486 . S
C32 H36 0.960 . S
C32 H37 0.960 . S
C32 H38 0.959 . S
H33 C29 0.960 . S
H34 C29 0.961 . S
H35 C29 0.960 . S
H36 C32 0.960 . S
H37 C32 0.960 . S
H38 C32 0.959 . S
C39 N40 1.317 . S
C39 N41 1.348 . S
C39 C42 1.485 . S
N40 C39 1.317 . S
N40 N44 1.370 . S
N41 C39 1.348 . S
N41 C43 1.346 . S
C42 C39 1.485 . S
C42 H46 0.960 . S
C42 H47 0.961 . S
C42 H48 0.960 . S
C43 N41 1.346 . S
C43 N44 1.307 . S
C43 C45 1.486 . S
N44 N40 1.370 . S
N44 C43 1.307 . S
C45 C43 1.486 . S
C45 H49 0.960 . S
C45 H50 0.960 . S
C45 H51 0.959 . S
H46 C42 0.960 . S
H47 C42 0.961 . S
H48 C42 0.960 . S
H49 C45 0.960 . S
H50 C45 0.960 . S
H51 C45 0.959 . S
C52 N53 1.317 . S
C52 N54 1.348 . S
C52 C55 1.485 . S
N53 C52 1.317 . S
N53 N57 1.370 . S
N54 C52 1.348 . S
N54 C56 1.346 . S
C55 C52 1.485 . S
C55 H59 0.960 . S
C55 H60 0.961 . S
C55 H61 0.960 . S
C56 N54 1.346 . S
C56 N57 1.307 . S
C56 C58 1.486 . S
N57 N53 1.370 . S
N57 C56 1.307 . S
C58 C56 1.486 . S
C58 H62 0.960 . S
C58 H63 0.960 . S
C58 H64 0.959 . S
H59 C55 0.960 . S
H60 C55 0.961 . S
H61 C55 0.960 . S
H62 C58 0.960 . S
H63 C58 0.960 . S
H64 C58 0.959 . S
C65 N66 1.317 . S
C65 N67 1.348 . S
C65 C68 1.485 . S
N66 C65 1.317 . S
N66 N70 1.370 . S
N67 C65 1.348 . S
N67 C69 1.346 . S
C68 C65 1.485 . S
C68 H72 0.960 . S
C68 H73 0.961 . S
C68 H74 0.960 . S
C69 N67 1.346 . S
C69 N70 1.307 . S
C69 C71 1.486 . S
N70 N66 1.370 . S
N70 C69 1.307 . S
C71 C69 1.486 . S
C71 H75 0.960 . S
C71 H76 0.960 . S
C71 H77 0.959 . S
H72 C68 0.960 . S
H73 C68 0.961 . S
H74 C68 0.960 . S
H75 C71 0.960 . S
H76 C71 0.960 . S
H77 C71 0.959 . S
C78 N79 1.317 . S
C78 N80 1.348 . S
C78 C81 1.485 . S
N79 C78 1.317 . S
N79 N83 1.370 . S
N80 C78 1.348 . S
N80 C82 1.346 . S
C81 C78 1.485 . S
C81 H85 0.960 . S
C81 H86 0.961 . S
C81 H87 0.960 . S
C82 N80 1.346 . S
C82 N83 1.307 . S
C82 C84 1.486 . S
N83 N79 1.370 . S
N83 C82 1.307 . S
C84 C82 1.486 . S
C84 H88 0.960 . S
C84 H89 0.960 . S
C84 H90 0.959 . S
H85 C81 0.960 . S
H86 C81 0.961 . S
H87 C81 0.960 . S
H88 C84 0.960 . S
H89 C84 0.960 . S
H90 C84 0.959 . S
C91 N92 1.317 . S
C91 N93 1.348 . S
C91 C94 1.485 . S
N92 C91 1.317 . S
N92 N96 1.370 . S
N93 C91 1.348 . S
N93 C95 1.346 . S
C94 C91 1.485 . S
C94 H98 0.960 . S
C94 H99 0.961 . S
C94 H100 0.960 . S
C95 N93 1.346 . S
C95 N96 1.307 . S
C95 C97 1.486 . S
N96 N92 1.370 . S
N96 C95 1.307 . S
C97 C95 1.486 . S
C97 H101 0.960 . S
C97 H102 0.960 . S
C97 H103 0.959 . S
H98 C94 0.960 . S
H99 C94 0.961 . S
H100 C94 0.960 . S
H101 C97 0.960 . S
H102 C97 0.960 . S
H103 C97 0.959 . S
Zn104 O110 1.969 1_545 S
Zn104 O111 1.965 1_545 S
Zn104 O115 2.024 . S
Zn104 O120 1.969 . S
Zn105 O112 1.978 . S
Zn105 O118 1.949 1_565 S
Zn105 O119 1.949 1_665 S
Zn105 O121 2.048 1_655 S
C106 O107 1.229 . S
C106 O115 1.058 . S
O107 C106 1.229 . S
C108 O109 1.229 . S
C108 O121 1.058 1_655 S
O109 C108 1.229 . S
O110 Zn104 1.969 1_565 S
O110 C113 1.267 . S
O111 Zn104 1.965 1_565 S
O111 C122 1.260 . S
O112 Zn105 1.978 . S
O112 C122 1.258 1_655 S
C113 O110 1.267 . S
C113 O114 1.228 . S
O114 C113 1.228 . S
O115 Zn104 2.024 . S
O115 C106 1.058 . S
C116 O117 1.228 . S
C116 O118 1.267 . S
O117 C116 1.228 . S
O118 Zn105 1.949 1_545 S
O118 C116 1.267 . S
O119 Zn105 1.949 1_445 S
O119 C123 1.260 . S
O120 Zn104 1.969 . S
O120 C123 1.258 . S
O121 Zn105 2.048 1_455 S
O121 C108 1.058 1_455 S
C122 O111 1.260 . S
C122 O112 1.258 1_455 S
C123 O119 1.260 . S
C123 O120 1.258 . S
Zn124 O130 1.969 . S
Zn124 O131 1.965 1_566 S
Zn124 O135 2.024 . S
Zn124 O140 1.969 1_556 S
Zn125 O132 1.969 . S
Zn125 O138 1.969 . S
Zn125 O139 1.965 1_545 S
Zn125 O141 2.024 . S
C126 O127 1.229 . S
C126 O135 1.058 . S
O127 C126 1.229 . S
C128 O129 1.229 . S
C128 O141 1.058 . S
O129 C128 1.229 . S
O130 Zn124 1.969 . S
O130 C133 1.267 . S
O131 Zn124 1.965 1_544 S
O131 C142 1.260 . S
O132 Zn125 1.969 . S
O132 C142 1.258 . S
C133 O130 1.267 . S
C133 O134 1.228 . S
O134 C133 1.228 . S
O135 Zn124 2.024 . S
O135 C126 1.058 . S
C136 O137 1.228 . S
C136 O138 1.267 . S
O137 C136 1.228 . S
O138 Zn125 1.969 . S
O138 C136 1.267 . S
O139 Zn125 1.965 1_565 S
O139 C143 1.260 . S
O140 Zn124 1.969 1_554 S
O140 C143 1.258 . S
O141 Zn125 2.024 . S
O141 C128 1.058 . S
C142 O131 1.260 . S
C142 O132 1.258 . S
C143 O139 1.260 . S
C143 O140 1.258 . S
Zn144 O150 1.969 . S
Zn144 O151 1.965 . S
Zn144 O155 2.024 . S
Zn144 O160 1.969 . S
Zn145 O152 1.969 . S
Zn145 O158 1.969 . S
Zn145 O159 1.965 . S
Zn145 O161 2.024 . S
C146 O147 1.229 . S
C146 O155 1.058 . S
O147 C146 1.229 . S
C148 O149 1.229 . S
C148 O161 1.058 . S
O149 C148 1.229 . S
O150 Zn144 1.969 . S
O150 C153 1.267 . S
O151 Zn144 1.965 . S
O151 C162 1.260 . S
O152 Zn145 1.969 . S
O152 C162 1.258 . S
C153 O150 1.267 . S
C153 O154 1.228 . S
O154 C153 1.228 . S
O155 Zn144 2.024 . S
O155 C146 1.058 . S
C156 O157 1.228 . S
C156 O158 1.267 . S
O157 C156 1.228 . S
O158 Zn145 1.969 . S
O158 C156 1.267 . S
O159 Zn145 1.965 . S
O159 C163 1.260 . S
O160 Zn144 1.969 . S
O160 C163 1.258 . S
O161 Zn145 2.024 . S
O161 C148 1.058 . S
C162 O151 1.260 . S
C162 O152 1.258 . S
C163 O159 1.260 . S
C163 O160 1.258 . S
Zn164 O170 1.969 . S
Zn164 O171 1.965 1_556 S
Zn164 O175 2.024 . S
Zn164 O180 1.969 1_655 S
Zn165 O172 1.969 . S
Zn165 O178 1.969 . S
Zn165 O179 1.965 1_554 S
Zn165 O181 2.024 . S
C166 O167 1.229 . S
C166 O175 1.058 . S
O167 C166 1.229 . S
C168 O169 1.229 . S
C168 O181 1.058 . S
O169 C168 1.229 . S
O170 Zn164 1.969 . S
O170 C173 1.267 . S
O171 Zn164 1.965 1_554 S
O171 C182 1.260 . S
O172 Zn165 1.969 . S
O172 C182 1.258 1_455 S
C173 O170 1.267 . S
C173 O174 1.228 . S
O174 C173 1.228 . S
O175 Zn164 2.024 . S
O175 C166 1.058 . S
C176 O177 1.228 . S
C176 O178 1.267 . S
O177 C176 1.228 . S
O178 Zn165 1.969 . S
O178 C176 1.267 . S
O179 Zn165 1.965 1_556 S
O179 C183 1.260 . S
O180 Zn164 1.969 1_455 S
O180 C183 1.258 . S
O181 Zn165 2.024 . S
O181 C168 1.058 . S
C182 O171 1.260 . S
C182 O172 1.258 1_655 S
C183 O179 1.260 . S
C183 O180 1.258 . S
H184 C192 0.950 . S
H185 C197 0.950 . S
H186 C194 0.950 . S
H187 C196 0.950 . S
H188 C198 0.950 . S
H189 C200 0.950 . S
H190 C202 0.950 . S
H191 C203 0.950 . S
C192 H184 0.950 . S
C192 C193 1.386 . S
C192 C194 1.391 . S
C193 C192 1.386 . S
C193 C197 1.393 . S
C194 H186 0.950 . S
C194 C192 1.391 . S
C194 C195 1.400 . S
C195 C194 1.400 . S
C195 C196 1.398 . S
C195 C201 1.491 . S
C196 H187 0.950 . S
C196 C195 1.398 . S
C196 C197 1.391 . S
C197 H185 0.950 . S
C197 C193 1.393 . S
C197 C196 1.391 . S
C198 H188 0.950 . S
C198 C199 1.386 . S
C198 C200 1.391 . S
C199 C198 1.386 . S
C199 C203 1.393 . S
C200 H189 0.950 . S
C200 C198 1.391 . S
C200 C201 1.400 . S
C201 C195 1.491 . S
C201 C200 1.400 . S
C201 C202 1.398 . S
C202 H190 0.950 . S
C202 C201 1.398 . S
C202 C203 1.391 . S
C203 H191 0.950 . S
C203 C199 1.393 . S
C203 C202 1.391 . S
H204 C212 0.950 . S
H205 C217 0.950 . S
H206 C214 0.950 . S
H207 C216 0.950 . S
H208 C218 0.950 . S
H209 C220 0.950 . S
H210 C222 0.950 . S
H211 C223 0.950 . S
C212 H204 0.950 . S
C212 C213 1.386 . S
C212 C214 1.391 . S
C213 C212 1.386 . S
C213 C217 1.393 . S
C214 H206 0.950 . S
C214 C212 1.391 . S
C214 C215 1.400 . S
C215 C214 1.400 . S
C215 C216 1.398 . S
C215 C221 1.491 . S
C216 H207 0.950 . S
C216 C215 1.398 . S
C216 C217 1.391 . S
C217 H205 0.950 . S
C217 C213 1.393 . S
C217 C216 1.391 . S
C218 H208 0.950 . S
C218 C219 1.386 . S
C218 C220 1.391 . S
C219 C218 1.386 . S
C219 C223 1.393 . S
C220 H209 0.950 . S
C220 C218 1.391 . S
C220 C221 1.400 . S
C221 C215 1.491 . S
C221 C220 1.400 . S
C221 C222 1.398 . S
C222 H210 0.950 . S
C222 C221 1.398 . S
C222 C223 1.391 . S
C223 H211 0.950 . S
C223 C219 1.393 . S
C223 C222 1.391 . S
H224 C232 0.950 . S
H225 C237 0.950 . S
H226 C234 0.950 . S
H227 C236 0.950 . S
H228 C238 0.950 . S
H229 C240 0.950 . S
H230 C242 0.950 . S
H231 C243 0.950 . S
C232 H224 0.950 . S
C232 C233 1.386 . S
C232 C234 1.391 . S
C233 C232 1.386 . S
C233 C237 1.393 . S
C234 H226 0.950 . S
C234 C232 1.391 . S
C234 C235 1.400 . S
C235 C234 1.400 . S
C235 C236 1.398 . S
C235 C241 1.491 . S
C236 H227 0.950 . S
C236 C235 1.398 . S
C236 C237 1.391 . S
C237 H225 0.950 . S
C237 C233 1.393 . S
C237 C236 1.391 . S
C238 H228 0.950 . S
C238 C239 1.386 . S
C238 C240 1.391 . S
C239 C238 1.386 . S
C239 C243 1.393 . S
C240 H229 0.950 . S
C240 C238 1.391 . S
C240 C241 1.400 . S
C241 C235 1.491 . S
C241 C240 1.400 . S
C241 C242 1.398 . S
C242 H230 0.950 . S
C242 C241 1.398 . S
C242 C243 1.391 . S
C243 H231 0.950 . S
C243 C239 1.393 . S
C243 C242 1.391 . S
H244 C252 0.950 . S
H245 C257 0.950 . S
H246 C254 0.950 . S
H247 C256 0.950 . S
H248 C258 0.950 . S
H249 C260 0.950 . S
H250 C262 0.950 . S
H251 C263 0.950 . S
C252 H244 0.950 . S
C252 C253 1.386 . S
C252 C254 1.391 . S
C253 C252 1.386 . S
C253 C257 1.393 . S
C254 H246 0.950 . S
C254 C252 1.391 . S
C254 C255 1.400 . S
C255 C254 1.400 . S
C255 C256 1.398 . S
C255 C261 1.491 . S
C256 H247 0.950 . S
C256 C255 1.398 . S
C256 C257 1.391 . S
C257 H245 0.950 . S
C257 C253 1.393 . S
C257 C256 1.391 . S
C258 H248 0.950 . S
C258 C259 1.386 . S
C258 C260 1.391 . S
C259 C258 1.386 . S
C259 C263 1.393 . S
C260 H249 0.950 . S
C260 C258 1.391 . S
C260 C261 1.400 . S
C261 C255 1.491 . S
C261 C260 1.400 . S
C261 C262 1.398 . S
C262 H250 0.950 . S
C262 C261 1.398 . S
C262 C263 1.391 . S
C263 H251 0.950 . S
C263 C259 1.393 . S
C263 C262 1.391 . S
H264 C272 0.950 . S
H265 C277 0.950 . S
H266 C274 0.950 . S
H267 C276 0.950 . S
H268 C278 0.950 . S
H269 C280 0.950 . S
H270 C282 0.950 . S
H271 C283 0.950 . S
C272 H264 0.950 . S
C272 C273 1.386 . S
C272 C274 1.391 . S
C273 C272 1.386 . S
C273 C277 1.393 . S
C274 H266 0.950 . S
C274 C272 1.391 . S
C274 C275 1.400 . S
C275 C274 1.400 . S
C275 C276 1.398 . S
C275 C281 1.491 . S
C276 H267 0.950 . S
C276 C275 1.398 . S
C276 C277 1.391 . S
C277 H265 0.950 . S
C277 C273 1.393 . S
C277 C276 1.391 . S
C278 H268 0.950 . S
C278 C279 1.386 . S
C278 C280 1.391 . S
C279 C278 1.386 . S
C279 C283 1.393 . S
C280 H269 0.950 . S
C280 C278 1.391 . S
C280 C281 1.400 . S
C281 C275 1.491 . S
C281 C280 1.400 . S
C281 C282 1.398 . S
C282 H270 0.950 . S
C282 C281 1.398 . S
C282 C283 1.391 . S
C283 H271 0.950 . S
C283 C279 1.393 . S
C283 C282 1.391 . S
H284 C292 0.950 . S
H285 C297 0.950 . S
H286 C294 0.950 . S
H287 C296 0.950 . S
H288 C298 0.950 . S
H289 C300 0.950 . S
H290 C302 0.950 . S
H291 C303 0.976 . S
C292 H284 0.950 . S
C292 C293 1.386 . S
C292 C294 1.391 . S
C293 C292 1.386 . S
C293 C297 1.393 . S
C294 H286 0.950 . S
C294 C292 1.391 . S
C294 C295 1.400 . S
C295 C294 1.400 . S
C295 C296 1.398 . S
C295 C301 1.491 . S
C296 H287 0.950 . S
C296 C295 1.398 . S
C296 C297 1.391 . S
C297 H285 0.950 . S
C297 C293 1.393 . S
C297 C296 1.391 . S
C298 H288 0.950 . S
C298 C299 1.386 . S
C298 C300 1.391 . S
C299 C298 1.386 . S
C299 C303 1.393 . S
C300 H289 0.950 . S
C300 C298 1.391 . S
C300 C301 1.400 . S
C301 C295 1.491 . S
C301 C300 1.400 . S
C301 C302 1.398 . S
C302 H290 0.950 . S
C302 C301 1.398 . S
C302 C303 1.391 . S
C303 H291 0.976 . S
C303 C299 1.393 . S
C303 C302 1.391 . S
H304 C312 0.950 . S
H305 C317 0.950 . S
H306 C314 0.950 . S
H307 C316 0.950 . S
H308 C318 0.950 . S
H309 C320 0.950 . S
H310 C322 0.950 . S
H311 C323 0.950 . S
C312 H304 0.950 . S
C312 C313 1.386 . S
C312 C314 1.391 . S
C313 C312 1.386 . S
C313 C317 1.393 . S
C314 H306 0.950 . S
C314 C312 1.391 . S
C314 C315 1.400 . S
C315 C314 1.400 . S
C315 C316 1.398 . S
C315 C321 1.491 . S
C316 H307 0.950 . S
C316 C315 1.398 . S
C316 C317 1.391 . S
C317 H305 0.950 . S
C317 C313 1.393 . S
C317 C316 1.391 . S
C318 H308 0.950 . S
C318 C319 1.386 . S
C318 C320 1.391 . S
C319 C318 1.386 . S
C319 C323 1.393 . S
C320 H309 0.950 . S
C320 C318 1.391 . S
C320 C321 1.400 . S
C321 C315 1.491 . S
C321 C320 1.400 . S
C321 C322 1.398 . S
C322 H310 0.950 . S
C322 C321 1.398 . S
C322 C323 1.391 . S
C323 H311 0.950 . S
C323 C319 1.393 . S
C323 C322 1.391 . S
H324 C332 0.950 . S
H325 C337 0.950 . S
H326 C334 0.950 . S
H327 C336 0.950 . S
H328 C338 0.950 . S
H329 C340 0.950 . S
H330 C342 0.950 . S
H331 C343 0.950 . S
C332 H324 0.950 . S
C332 C333 1.386 . S
C332 C334 1.391 . S
C333 C332 1.386 . S
C333 C337 1.393 . S
C334 H326 0.950 . S
C334 C332 1.391 . S
C334 C335 1.400 . S
C335 C334 1.400 . S
C335 C336 1.398 . S
C335 C341 1.491 . S
C336 H327 0.950 . S
C336 C335 1.398 . S
C336 C337 1.391 . S
C337 H325 0.950 . S
C337 C333 1.393 . S
C337 C336 1.391 . S
C338 H328 0.950 . S
C338 C339 1.386 . S
C338 C340 1.391 . S
C339 C338 1.386 . S
C339 C343 1.393 . S
C340 H329 0.950 . S
C340 C338 1.391 . S
C340 C341 1.400 . S
C341 C335 1.491 . S
C341 C340 1.400 . S
C341 C342 1.398 . S
C342 H330 0.950 . S
C342 C341 1.398 . S
C342 C343 1.391 . S
C343 H331 0.950 . S
C343 C339 1.393 . S
C343 C342 1.391 . S
H344 C352 0.950 . S
H345 C357 0.950 . S
H346 C354 0.950 . S
H347 C356 0.950 . S
H348 C358 0.950 . S
H349 C360 0.950 . S
H350 C362 0.950 . S
H351 C363 0.950 . S
C352 H344 0.950 . S
C352 C353 1.386 . S
C352 C354 1.391 . S
C353 C352 1.386 . S
C353 C357 1.393 . S
C354 H346 0.950 . S
C354 C352 1.391 . S
C354 C355 1.400 . S
C355 C354 1.400 . S
C355 C356 1.398 . S
C355 C361 1.491 . S
C356 H347 0.950 . S
C356 C355 1.398 . S
C356 C357 1.391 . S
C357 H345 0.950 . S
C357 C353 1.393 . S
C357 C356 1.391 . S
C358 H348 0.950 . S
C358 C359 1.386 . S
C358 C360 1.391 . S
C359 C358 1.386 . S
C359 C363 1.393 . S
C360 H349 0.950 . S
C360 C358 1.391 . S
C360 C361 1.400 . S
C361 C355 1.491 . S
C361 C360 1.400 . S
C361 C362 1.398 . S
C362 H350 0.950 . S
C362 C361 1.398 . S
C362 C363 1.391 . S
C363 H351 0.950 . S
C363 C359 1.393 . S
C363 C362 1.391 . S
H364 C372 0.950 . S
H365 C377 0.950 . S
H366 C374 0.950 . S
H367 C376 0.950 . S
H368 C378 0.950 . S
H369 C380 0.950 . S
H370 C382 0.950 . S
H371 C383 0.950 . S
C372 H364 0.950 . S
C372 C373 1.386 . S
C372 C374 1.391 . S
C373 C372 1.386 . S
C373 C377 1.393 . S
C374 H366 0.950 . S
C374 C372 1.391 . S
C374 C375 1.400 . S
C375 C374 1.400 . S
C375 C376 1.398 . S
C375 C381 1.491 . S
C376 H367 0.950 . S
C376 C375 1.398 . S
C376 C377 1.391 . S
C377 H365 0.950 . S
C377 C373 1.393 . S
C377 C376 1.391 . S
C378 H368 0.950 . S
C378 C379 1.386 . S
C378 C380 1.391 . S
C379 C378 1.386 . S
C379 C383 1.393 . S
C380 H369 0.950 . S
C380 C378 1.391 . S
C380 C381 1.400 . S
C381 C375 1.491 . S
C381 C380 1.400 . S
C381 C382 1.398 . S
C382 H370 0.950 . S
C382 C381 1.398 . S
C382 C383 1.391 . S
C383 H371 0.950 . S
C383 C379 1.393 . S
C383 C382 1.391 . S
H384 C392 0.950 . S
H385 C397 0.950 . S
H386 C394 0.950 . S
H387 C396 0.950 . S
H388 C398 0.950 1_455 S
H389 C400 0.950 . S
H390 C402 0.950 . S
H391 C403 0.950 . S
C392 H384 0.950 . S
C392 C393 1.386 . S
C392 C394 1.391 . S
C393 C392 1.386 . S
C393 C397 1.393 . S
C394 H386 0.950 . S
C394 C392 1.391 . S
C394 C395 1.400 . S
C395 C394 1.400 . S
C395 C396 1.398 . S
C395 C401 1.491 . S
C396 H387 0.950 . S
C396 C395 1.398 . S
C396 C397 1.391 . S
C397 H385 0.950 . S
C397 C393 1.393 . S
C397 C396 1.391 . S
C398 H388 0.950 1_655 S
C398 C399 1.386 . S
C398 C400 1.391 . S
C399 C398 1.386 . S
C399 C403 1.393 . S
C400 H389 0.950 . S
C400 C398 1.391 . S
C400 C401 1.400 . S
C401 C395 1.491 . S
C401 C400 1.400 . S
C401 C402 1.398 . S
C402 H390 0.950 . S
C402 C401 1.398 . S
C402 C403 1.391 . S
C403 H391 0.950 . S
C403 C399 1.393 . S
C403 C402 1.391 . S
H404 C412 0.950 . S
H405 C417 0.950 . S
H406 C414 0.950 . S
H407 C416 0.950 . S
H408 C418 0.950 . S
H409 C420 0.950 . S
H410 C422 0.950 . S
H411 C423 0.950 . S
C412 H404 0.950 . S
C412 C413 1.386 . S
C412 C414 1.391 . S
C413 C412 1.386 . S
C413 C417 1.393 . S
C414 H406 0.950 . S
C414 C412 1.391 . S
C414 C415 1.400 . S
C415 C414 1.400 . S
C415 C416 1.398 . S
C415 C421 1.491 . S
C416 H407 0.950 . S
C416 C415 1.398 . S
C416 C417 1.391 . S
C417 H405 0.950 . S
C417 C413 1.393 . S
C417 C416 1.391 . S
C418 H408 0.950 . S
C418 C419 1.386 . S
C418 C420 1.391 . S
C419 C418 1.386 . S
C419 C423 1.393 . S
C420 H409 0.950 . S
C420 C418 1.391 . S
C420 C421 1.400 . S
C421 C415 1.491 . S
C421 C420 1.400 . S
C421 C422 1.398 . S
C422 H410 0.950 . S
C422 C421 1.398 . S
C422 C423 1.391 . S
C423 H411 0.950 . S
C423 C419 1.393 . S
C423 C422 1.391 . S
H424 C432 0.950 . S
H425 C437 0.950 . S
H426 C434 0.950 . S
H427 C436 0.950 . S
H428 C438 0.950 1_455 S
H429 C440 0.950 . S
H430 C442 0.950 . S
H431 C443 0.950 . S
C432 H424 0.950 . S
C432 C433 1.386 . S
C432 C434 1.391 . S
C433 C432 1.386 . S
C433 C437 1.393 . S
C434 H426 0.950 . S
C434 C432 1.391 . S
C434 C435 1.400 . S
C435 C434 1.400 . S
C435 C436 1.398 . S
C435 C441 1.491 . S
C436 H427 0.950 . S
C436 C435 1.398 . S
C436 C437 1.391 . S
C437 H425 0.950 . S
C437 C433 1.393 . S
C437 C436 1.391 . S
C438 H428 0.950 1_655 S
C438 C439 1.386 . S
C438 C440 1.391 . S
C439 C438 1.386 . S
C439 C443 1.393 . S
C440 H429 0.950 . S
C440 C438 1.391 . S
C440 C441 1.400 . S
C441 C435 1.491 . S
C441 C440 1.400 . S
C441 C442 1.398 . S
C442 H430 0.950 . S
C442 C441 1.398 . S
C442 C443 1.391 . S
C443 H431 0.950 . S
C443 C439 1.393 . S
C443 C442 1.391 . S
H444 C452 0.950 . S
H445 C457 0.950 . S
H446 C454 0.950 . S
H447 C456 0.950 . S
H448 C458 0.950 . S
H449 C460 0.950 . S
H450 C462 0.950 . S
H451 C463 0.950 . S
C452 H444 0.950 . S
C452 C453 1.386 . S
C452 C454 1.391 . S
C453 C452 1.386 . S
C453 C457 1.393 . S
C454 H446 0.950 . S
C454 C452 1.391 . S
C454 C455 1.400 . S
C455 C454 1.400 . S
C455 C456 1.398 . S
C455 C461 1.491 . S
C456 H447 0.950 . S
C456 C455 1.398 . S
C456 C457 1.391 . S
C457 H445 0.950 . S
C457 C453 1.393 . S
C457 C456 1.391 . S
C458 H448 0.950 . S
C458 C459 1.386 . S
C458 C460 1.391 . S
C459 C458 1.386 . S
C459 C463 1.393 . S
C460 H449 0.950 . S
C460 C458 1.391 . S
C460 C461 1.400 . S
C461 C455 1.491 . S
C461 C460 1.400 . S
C461 C462 1.398 . S
C462 H450 0.950 . S
C462 C461 1.398 . S
C462 C463 1.391 . S
C463 H451 0.950 . S
C463 C459 1.393 . S
C463 C462 1.391 . S
H464 C472 0.950 . S
H465 C477 0.950 . S
H466 C474 0.950 . S
H467 C476 0.950 . S
H468 C478 0.950 . S
H469 C480 0.950 . S
H470 C482 0.950 . S
H471 C483 0.950 . S
C472 H464 0.950 . S
C472 C473 1.386 . S
C472 C474 1.391 . S
C473 C472 1.386 . S
C473 C477 1.393 . S
C474 H466 0.950 . S
C474 C472 1.391 . S
C474 C475 1.400 . S
C475 C474 1.400 . S
C475 C476 1.398 . S
C475 C481 1.491 . S
C476 H467 0.950 . S
C476 C475 1.398 . S
C476 C477 1.391 . S
C477 H465 0.950 . S
C477 C473 1.393 . S
C477 C476 1.391 . S
C478 H468 0.950 . S
C478 C479 1.386 . S
C478 C480 1.391 . S
C479 C478 1.386 . S
C479 C483 1.393 . S
C480 H469 0.950 . S
C480 C478 1.391 . S
C480 C481 1.400 . S
C481 C475 1.491 . S
C481 C480 1.400 . S
C481 C482 1.398 . S
C482 H470 0.950 . S
C482 C481 1.398 . S
C482 C483 1.391 . S
C483 H471 0.950 . S
C483 C479 1.393 . S
C483 C482 1.391 . S
H484 C492 0.950 . S
H485 C497 0.950 . S
H486 C494 0.950 . S
H487 C496 0.950 . S
H488 C498 0.950 . S
H489 C500 0.950 . S
H490 C502 0.950 . S
H491 C503 0.950 . S
C492 H484 0.950 . S
C492 C493 1.386 . S
C492 C494 1.391 . S
C493 C492 1.386 . S
C493 C497 1.393 . S
C494 H486 0.950 . S
C494 C492 1.391 . S
C494 C495 1.400 . S
C495 C494 1.400 . S
C495 C496 1.398 . S
C495 C501 1.491 . S
C496 H487 0.950 . S
C496 C495 1.398 . S
C496 C497 1.391 . S
C497 H485 0.950 . S
C497 C493 1.393 . S
C497 C496 1.391 . S
C498 H488 0.950 . S
C498 C499 1.386 . S
C498 C500 1.391 . S
C499 C498 1.386 . S
C499 C503 1.393 . S
C500 H489 0.950 . S
C500 C498 1.391 . S
C500 C501 1.400 . S
C501 C495 1.491 . S
C501 C500 1.400 . S
C501 C502 1.398 . S
C502 H490 0.950 . S
C502 C501 1.398 . S
C502 C503 1.391 . S
C503 H491 0.950 . S
C503 C499 1.393 . S
C503 C502 1.391 . S
H504 C512 0.950 . S
H505 C517 0.950 . S
H506 C514 0.950 . S
H507 C516 0.950 . S
H508 C518 0.950 . S
H509 C520 0.950 . S
H510 C522 0.950 . S
H511 C523 0.950 . S
C512 H504 0.950 . S
C512 C513 1.386 . S
C512 C514 1.391 . S
C513 C512 1.386 . S
C513 C517 1.393 . S
C514 H506 0.950 . S
C514 C512 1.391 . S
C514 C515 1.400 . S
C515 C514 1.400 . S
C515 C516 1.398 . S
C515 C521 1.491 . S
C516 H507 0.950 . S
C516 C515 1.398 . S
C516 C517 1.391 . S
C517 H505 0.950 . S
C517 C513 1.393 . S
C517 C516 1.391 . S
C518 H508 0.950 . S
C518 C519 1.386 . S
C518 C520 1.391 . S
C519 C518 1.386 . S
C519 C523 1.393 . S
C520 H509 0.950 . S
C520 C518 1.391 . S
C520 C521 1.400 . S
C521 C515 1.491 . S
C521 C520 1.400 . S
C521 C522 1.398 . S
C522 H510 0.950 . S
C522 C521 1.398 . S
C522 C523 1.391 . S
C523 H511 0.950 . S
C523 C519 1.393 . S
C523 C522 1.391 . S
H524 C532 0.950 . S
H525 C537 0.950 . S
H526 C534 0.950 . S
H527 C536 0.950 . S
H528 C538 0.950 . S
H529 C540 0.950 . S
H530 C542 0.950 . S
H531 C543 0.950 . S
C532 H524 0.950 . S
C532 C533 1.386 . S
C532 C534 1.391 . S
C533 C532 1.386 . S
C533 C537 1.393 . S
C534 H526 0.950 . S
C534 C532 1.391 . S
C534 C535 1.400 . S
C535 C534 1.400 . S
C535 C536 1.398 . S
C535 C541 1.491 . S
C536 H527 0.950 . S
C536 C535 1.398 . S
C536 C537 1.391 . S
C537 H525 0.950 . S
C537 C533 1.393 . S
C537 C536 1.391 . S
C538 H528 0.950 . S
C538 C539 1.386 . S
C538 C540 1.391 . S
C539 C538 1.386 . S
C539 C543 1.393 . S
C540 H529 0.950 . S
C540 C538 1.391 . S
C540 C541 1.400 . S
C541 C535 1.491 . S
C541 C540 1.400 . S
C541 C542 1.398 . S
C542 H530 0.950 . S
C542 C541 1.398 . S
C542 C543 1.391 . S
C543 H531 0.950 . S
C543 C539 1.393 . S
C543 C542 1.391 . S
H544 C552 0.950 . S
H545 C557 0.950 . S
H546 C554 0.950 . S
H547 C556 0.950 . S
H548 C558 0.950 . S
H549 C560 0.950 . S
H550 C562 0.950 . S
H551 C563 0.950 . S
C552 H544 0.950 . S
C552 C553 1.386 . S
C552 C554 1.391 . S
C553 C552 1.386 . S
C553 C557 1.393 . S
C554 H546 0.950 . S
C554 C552 1.391 . S
C554 C555 1.400 . S
C555 C554 1.400 . S
C555 C556 1.398 . S
C555 C561 1.491 . S
C556 H547 0.950 . S
C556 C555 1.398 . S
C556 C557 1.391 . S
C557 H545 0.950 . S
C557 C553 1.393 . S
C557 C556 1.391 . S
C558 H548 0.950 . S
C558 C559 1.386 . S
C558 C560 1.391 . S
C559 C558 1.386 . S
C559 C563 1.393 . S
C560 H549 0.950 . S
C560 C558 1.391 . S
C560 C561 1.400 . S
C561 C555 1.491 . S
C561 C560 1.400 . S
C561 C562 1.398 . S
C562 H550 0.950 . S
C562 C561 1.398 . S
C562 C563 1.391 . S
C563 H551 0.950 . S
C563 C559 1.393 . S
C563 C562 1.391 . S
H564 C572 0.950 . S
H565 C577 0.950 . S
H566 C574 0.950 . S
H567 C576 0.950 . S
H568 C578 0.950 . S
H569 C580 0.950 . S
H570 C582 0.950 . S
H571 C583 0.950 . S
C572 H564 0.950 . S
C572 C573 1.386 . S
C572 C574 1.391 . S
C573 C572 1.386 . S
C573 C577 1.393 . S
C574 H566 0.950 . S
C574 C572 1.391 . S
C574 C575 1.400 . S
C575 C574 1.400 . S
C575 C576 1.398 . S
C575 C581 1.491 . S
C576 H567 0.950 . S
C576 C575 1.398 . S
C576 C577 1.391 . S
C577 H565 0.950 . S
C577 C573 1.393 . S
C577 C576 1.391 . S
C578 H568 0.950 . S
C578 C579 1.386 . S
C578 C580 1.391 . S
C579 C578 1.386 . S
C579 C583 1.393 . S
C580 H569 0.950 . S
C580 C578 1.391 . S
C580 C581 1.400 . S
C581 C575 1.491 . S
C581 C580 1.400 . S
C581 C582 1.398 . S
C582 H570 0.950 . S
C582 C581 1.398 . S
C582 C583 1.391 . S
C583 H571 0.950 . S
C583 C579 1.393 . S
C583 C582 1.391 . S
H584 C592 0.950 . S
H585 C597 0.950 . S
H586 C594 0.950 . S
H587 C596 0.950 . S
H588 C598 0.950 . S
H589 C600 0.950 . S
H590 C602 0.950 . S
H591 C603 0.950 . S
C592 H584 0.950 . S
C592 C593 1.386 . S
C592 C594 1.391 . S
C593 C592 1.386 . S
C593 C597 1.393 . S
C594 H586 0.950 . S
C594 C592 1.391 . S
C594 C595 1.400 . S
C595 C594 1.400 . S
C595 C596 1.398 . S
C595 C601 1.491 . S
C596 H587 0.950 . S
C596 C595 1.398 . S
C596 C597 1.391 . S
C597 H585 0.950 . S
C597 C593 1.393 . S
C597 C596 1.391 . S
C598 H588 0.950 . S
C598 C599 1.386 . S
C598 C600 1.391 . S
C599 C598 1.386 . S
C599 C603 1.393 . S
C600 H589 0.950 . S
C600 C598 1.391 . S
C600 C601 1.400 . S
C601 C595 1.491 . S
C601 C600 1.400 . S
C601 C602 1.398 . S
C602 H590 0.950 . S
C602 C601 1.398 . S
C602 C603 1.391 . S
C603 H591 0.950 . S
C603 C599 1.393 . S
C603 C602 1.391 . S
H604 C612 0.950 . S
H605 C617 0.950 . S
H606 C614 0.950 . S
H607 C616 0.950 . S
H608 C618 0.950 . S
H609 C620 0.950 . S
H610 C622 0.950 . S
H611 C623 0.950 . S
C612 H604 0.950 . S
C612 C613 1.386 . S
C612 C614 1.391 . S
C613 C612 1.386 . S
C613 C617 1.393 . S
C614 H606 0.950 . S
C614 C612 1.391 . S
C614 C615 1.400 . S
C615 C614 1.400 . S
C615 C616 1.398 . S
C615 C621 1.491 . S
C616 H607 0.950 . S
C616 C615 1.398 . S
C616 C617 1.391 . S
C617 H605 0.950 . S
C617 C613 1.393 . S
C617 C616 1.391 . S
C618 H608 0.950 . S
C618 C619 1.386 . S
C618 C620 1.391 . S
C619 C618 1.386 . S
C619 C623 1.393 . S
C620 H609 0.950 . S
C620 C618 1.391 . S
C620 C621 1.400 . S
C621 C615 1.491 . S
C621 C620 1.400 . S
C621 C622 1.398 . S
C622 H610 0.950 . S
C622 C621 1.398 . S
C622 C623 1.391 . S
C623 H611 0.950 . S
C623 C619 1.393 . S
C623 C622 1.391 . S
H624 C632 0.950 . S
H625 C637 0.950 . S
H626 C634 0.950 . S
H627 C636 0.950 . S
H628 C638 0.950 . S
H629 C640 0.950 . S
H630 C642 0.950 . S
H631 C643 0.950 . S
C632 H624 0.950 . S
C632 C633 1.386 . S
C632 C634 1.391 . S
C633 C632 1.386 . S
C633 C637 1.393 . S
C634 H626 0.950 . S
C634 C632 1.391 . S
C634 C635 1.400 . S
C635 C634 1.400 . S
C635 C636 1.398 . S
C635 C641 1.491 . S
C636 H627 0.950 . S
C636 C635 1.398 . S
C636 C637 1.391 . S
C637 H625 0.950 . S
C637 C633 1.393 . S
C637 C636 1.391 . S
C638 H628 0.950 . S
C638 C639 1.386 . S
C638 C640 1.391 . S
C639 C638 1.386 . S
C639 C643 1.393 . S
C640 H629 0.950 . S
C640 C638 1.391 . S
C640 C641 1.400 . S
C641 C635 1.491 . S
C641 C640 1.400 . S
C641 C642 1.398 . S
C642 H630 0.950 . S
C642 C641 1.398 . S
C642 C643 1.391 . S
C643 H631 0.950 . S
C643 C639 1.393 . S
C643 C642 1.391 . S
H644 C652 0.950 . S
H645 C657 0.950 . S
H646 C654 0.950 . S
H647 C656 0.950 . S
H648 C658 0.950 . S
H649 C660 0.950 . S
H650 C662 0.950 . S
H651 C663 0.950 . S
C652 H644 0.950 . S
C652 C653 1.386 . S
C652 C654 1.391 . S
C653 C652 1.386 . S
C653 C657 1.393 . S
C654 H646 0.950 . S
C654 C652 1.391 . S
C654 C655 1.400 . S
C655 C654 1.400 . S
C655 C656 1.398 . S
C655 C661 1.491 . S
C656 H647 0.950 . S
C656 C655 1.398 . S
C656 C657 1.391 . S
C657 H645 0.950 . S
C657 C653 1.393 . S
C657 C656 1.391 . S
C658 H648 0.950 . S
C658 C659 1.386 . S
C658 C660 1.391 . S
C659 C658 1.386 . S
C659 C663 1.393 . S
C660 H649 0.950 . S
C660 C658 1.391 . S
C660 C661 1.400 . S
C661 C655 1.491 . S
C661 C660 1.400 . S
C661 C662 1.398 . S
C662 H650 0.950 . S
C662 C661 1.398 . S
C662 C663 1.391 . S
C663 H651 0.950 . S
C663 C659 1.393 . S
C663 C662 1.391 . S
C193 N1 1.402 . S
C199 C123 1.420 . S
C213 N18 1.534 . S
C219 C126 1.521 . S
C239 C162 1.341 . S
C233 N28 1.371 . S
C253 N40 1.803 . S
C259 C182 1.819 . S
C279 C136 1.991 . S
C273 N5 1.993 . S
C299 C113 1.575 . S
C293 N14 1.563 . S
C319 C166 1.568 . S
C313 N31 1.659 . S
C339 C146 1.093 . S
C333 N41 1.134 . S
C353 N2 1.277 . S
C359 C176 1.228 . S
C379 C142 1.746 1_556 S
C373 N27 1.734 . S
C393 N44 1.711 . S
C399 C108 1.705 . S
C413 N15 1.181 . S
C419 C156 1.174 . S
C439 C122 1.784 1_655 S
C433 N57 1.796 . S
C453 N70 1.130 . S
C459 C128 1.153 . S
C473 N79 1.623 . S
C479 C163 1.615 . S
C493 N93 1.616 . S
C499 C183 1.591 . S
C513 N54 1.576 . S
C519 C133 1.528 . S
C539 C116 1.977 . S
C533 N66 1.974 . S
C559 C168 1.092 . S
C553 N80 1.204 . S
C579 C148 1.358 . S
C573 N96 1.428 . S
C593 N53 1.312 . S
C599 C173 1.290 . S
C619 C143 1.558 . S
C613 N83 1.537 . S
C639 C106 1.790 . S
C633 N92 1.828 . S
C653 N67 1.238 . S
C659 C153 1.163 . S
