# Generated by pormake.
# Topology zzz, (3,6)-cn, num edge types: 1
# Building blocks:
#     Node 0, Type 0, BuildingBlock: PAMTOO_clean_linker_0, # of connection points: 3
#     Node 1, Type 0, BuildingBlock: PAMTOO_clean_linker_0, # of connection points: 3
#     Node 2, Type 0, BuildingBlock: PAMTOO_clean_linker_0, # of connection points: 3
#     Node 3, Type 0, BuildingBlock: PAMTOO_clean_linker_0, # of connection points: 3
#     Node 4, Type 0, BuildingBlock: PAMTOO_clean_linker_0, # of connection points: 3
#     Node 5, Type 0, BuildingBlock: PAMTOO_clean_linker_0, # of connection points: 3
#     Node 6, Type 0, BuildingBlock: PAMTOO_clean_linker_0, # of connection points: 3
#     Node 7, Type 0, BuildingBlock: PAMTOO_clean_linker_0, # of connection points: 3
#     Node 8, Type 1, BuildingBlock: BETDEL_clean_sbu_0, # of connection points: 6
#     Node 9, Type 1, BuildingBlock: BETDEL_clean_sbu_0, # of connection points: 6
#     Node 10, Type 1, BuildingBlock: BETDEL_clean_sbu_0, # of connection points: 6
#     Node 11, Type 1, BuildingBlock: BETDEL_clean_sbu_0, # of connection points: 6
#     Edge 12, Type (0, 1), BuildingBlock: KIFKEQ_clean_linker_1, # of connection points: 2
#     Edge 13, Type (0, 1), BuildingBlock: KIFKEQ_clean_linker_1, # of connection points: 2
#     Edge 14, Type (0, 1), BuildingBlock: KIFKEQ_clean_linker_1, # of connection points: 2
#     Edge 15, Type (0, 1), BuildingBlock: KIFKEQ_clean_linker_1, # of connection points: 2
#     Edge 16, Type (0, 1), BuildingBlock: KIFKEQ_clean_linker_1, # of connection points: 2
#     Edge 17, Type (0, 1), BuildingBlock: KIFKEQ_clean_linker_1, # of connection points: 2
#     Edge 18, Type (0, 1), BuildingBlock: KIFKEQ_clean_linker_1, # of connection points: 2
#     Edge 19, Type (0, 1), BuildingBlock: KIFKEQ_clean_linker_1, # of connection points: 2
#     Edge 20, Type (0, 1), BuildingBlock: KIFKEQ_clean_linker_1, # of connection points: 2
#     Edge 21, Type (0, 1), BuildingBlock: KIFKEQ_clean_linker_1, # of connection points: 2
#     Edge 22, Type (0, 1), BuildingBlock: KIFKEQ_clean_linker_1, # of connection points: 2
#     Edge 23, Type (0, 1), BuildingBlock: KIFKEQ_clean_linker_1, # of connection points: 2
#     Edge 24, Type (0, 1), BuildingBlock: KIFKEQ_clean_linker_1, # of connection points: 2
#     Edge 25, Type (0, 1), BuildingBlock: KIFKEQ_clean_linker_1, # of connection points: 2
#     Edge 26, Type (0, 1), BuildingBlock: KIFKEQ_clean_linker_1, # of connection points: 2
#     Edge 27, Type (0, 1), BuildingBlock: KIFKEQ_clean_linker_1, # of connection points: 2
#     Edge 28, Type (0, 1), BuildingBlock: KIFKEQ_clean_linker_1, # of connection points: 2
#     Edge 29, Type (0, 1), BuildingBlock: KIFKEQ_clean_linker_1, # of connection points: 2
#     Edge 30, Type (0, 1), BuildingBlock: KIFKEQ_clean_linker_1, # of connection points: 2
#     Edge 31, Type (0, 1), BuildingBlock: KIFKEQ_clean_linker_1, # of connection points: 2
#     Edge 32, Type (0, 1), BuildingBlock: KIFKEQ_clean_linker_1, # of connection points: 2
#     Edge 33, Type (0, 1), BuildingBlock: KIFKEQ_clean_linker_1, # of connection points: 2
#     Edge 34, Type (0, 1), BuildingBlock: KIFKEQ_clean_linker_1, # of connection points: 2
#     Edge 35, Type (0, 1), BuildingBlock: KIFKEQ_clean_linker_1, # of connection points: 2
# Relax obj value: 0.155
# Max RMSD: 0.175
# Mean RMSD: 0.114
data_MOF--net-zzz--node1-BETDEL_clean_sbu_0--node2-PAMTOO_clean_linker_0--edge1-KIFKEQ_clean_linker_1
_symmetry_space_group_name_H-M    P1
_symmetry_Int_Tables_number       1
_symmetry_cell_setting            triclinic
loop_
_symmetry_equiv_pos_as_xyz
'x, y, z'
_cell_length_a     49.680742
_cell_length_b     50.882076
_cell_length_c     15.167922
_cell_angle_alpha  91.363869
_cell_angle_beta   88.218948
_cell_angle_gamma 94.852247
loop_
_atom_site_label
_atom_site_type_symbol
_atom_site_fract_x
_atom_site_fract_y
_atom_site_fract_z
_atom_type_partial_charge
H0 H 0.8229 0.48696 0.12823 0.0
H1 H 0.75526 0.49544 0.96422 0.0
H2 H 0.76306 0.5393 0.20986 0.0
H3 H 0.69991 0.52927 0.15605 0.0
C4 C 0.70677 0.51799 0.09715 0.0
O5 O 0.73231 0.52854 0.07075 0.0
H6 H 0.70744 0.49709 0.11691 0.0
C7 C 0.80346 0.49457 0.11844 0.0
C8 C 0.7944 0.51311 0.17923 0.0
C9 C 0.78989 0.48833 0.04019 0.0
C10 C 0.76561 0.49955 0.0255 0.0
C11 C 0.75532 0.51722 0.08793 0.0
C12 C 0.77011 0.52453 0.16416 0.0
H13 H 1.0132 0.82474 0.08914 0.0
H14 H 1.00444 0.74958 0.95425 0.0
H15 H 1.008 0.75365 0.23863 0.0
H16 H 0.03113 0.69985 0.15374 0.0
C17 C 0.0261 0.70663 0.08757 0.0
O18 O 1.00411 0.72159 0.09746 0.0
H19 H 0.04415 0.71864 0.0606 0.0
C20 C 1.01158 0.80333 0.09156 0.0
C21 C 1.01119 0.79119 0.17303 0.0
C22 C 1.009 0.78864 0.01313 0.0
C23 C 1.0065 0.76107 0.01506 0.0
C24 C 1.00653 0.74832 0.09636 0.0
C25 C 1.0085 0.76342 0.17588 0.0
H26 H 0.70562 0.04652 0.08611 0.0
H27 H 0.77799 0.02881 0.94494 0.0
H28 H 0.76063 0.99749 0.2038 0.0
H29 H 0.82816 1.00452 0.14945 0.0
C30 C 0.82109 0.01334 0.08889 0.0
O31 O 0.79615 1.0008 0.06846 0.0
H32 H 0.81959 0.0347 0.10447 0.0
C33 C 0.72485 0.03786 0.08525 0.0
C34 C 0.73103 0.02224 0.15556 0.0
C35 C 0.74167 0.04056 0.00988 0.0
C36 C 0.76545 0.02768 0.00455 0.0
C37 C 0.77283 1.01287 0.07533 0.0
C38 C 0.75539 1.00974 0.15057 0.0
H39 H 0.50002 0.6972 0.1422 0.0
H40 H 0.49953 0.76282 0.96874 0.0
H41 H 0.55348 0.76663 0.18681 0.0
H42 H 0.53788 0.82315 0.14107 0.0
C43 C 0.5261 0.81546 0.08348 0.0
O44 O 0.5366 0.79261 0.05166 0.0
H45 H 0.50477 0.81128 0.1076 0.0
C46 C 0.50676 0.71736 0.12537 0.0
C47 C 0.52719 0.73064 0.17433 0.0
C48 C 0.49669 0.7285 0.05096 0.0
C49 C 0.50673 0.75406 0.02704 0.0
C50 C 0.52673 0.76817 0.07707 0.0
C51 C 0.53735 0.75622 0.15018 0.0
H52 H 0.21091 0.53353 0.01889 0.0
H53 H 0.28476 0.5344 0.15959 0.0
H54 H 0.27802 0.49552 0.90419 0.0
H55 H 0.32482 0.47311 0.011 0.0
C56 C 0.31834 0.48549 0.06778 0.0
O57 O 0.31094 0.50909 0.03605 0.0
H58 H 0.3007 0.47444 0.10119 0.0
C59 C 0.23182 0.52889 0.02137 0.0
C60 C 0.24252 0.51386 0.9529 0.0
C61 C 0.24673 0.53636 0.09584 0.0
C62 C 0.27325 0.52918 0.1013 0.0
C63 C 0.28487 0.51497 0.03139 0.0
C64 C 0.26937 0.50708 0.95706 0.0
H65 H 0.02816 0.20466 0.05337 0.0
H66 H 1.01411 0.27933 0.17645 0.0
H67 H 0.02992 0.27377 0.89517 0.0
H68 H 0.04381 0.33494 0.96949 0.0
C69 C 0.04162 0.32477 0.03362 0.0
O70 O 0.01974 0.30606 0.02999 0.0
H71 H 0.06079 0.31532 0.04217 0.0
C72 C 0.02669 0.22576 0.04808 0.0
C73 C 0.03023 0.23731 0.96573 0.0
C74 C 0.02086 0.24056 0.12375 0.0
C75 C 0.01855 0.26769 0.11787 0.0
C76 C 0.02205 0.2798 0.03541 0.0
C77 C 0.02751 0.2645 0.95879 0.0
H78 H 0.32854 0.98856 0.02536 0.0
H79 H 0.25668 0.99978 0.18262 0.0
H80 H 0.27346 0.04346 0.94493 0.0
H81 H 0.21439 1.00523 0.01843 0.0
C82 C 0.21354 0.02489 0.05203 0.0
O83 O 0.23888 0.0344 0.07994 0.0
H84 H 0.20684 0.03856 0.00275 0.0
C85 C 0.30929 0.99705 0.03427 0.0
C86 C 0.30263 0.01589 0.97482 0.0
C87 C 0.29316 0.9913 0.10998 0.0
C88 C 0.26909 1.0036 0.12355 0.0
C89 C 0.26154 0.02183 0.06303 0.0
C90 C 0.27859 0.02838 0.98922 0.0
H91 H 0.53954 0.33233 0.01604 0.0
H92 H 0.53968 0.26167 0.16587 0.0
H93 H 0.49184 0.26224 0.93353 0.0
H94 H 0.46773 0.2198 0.07005 0.0
C95 C 0.48528 0.22418 0.11327 0.0
O96 O 0.50765 0.23266 0.06157 0.0
H97 H 0.47978 0.23998 0.16103 0.0
C98 C 0.53353 0.31147 0.02394 0.0
C99 C 0.51512 0.29894 0.96579 0.0
C100 C 0.54239 0.29841 0.09638 0.0
C101 C 0.53341 0.27184 0.109 0.0
C102 C 0.51563 0.25853 0.0494 0.0
C103 C 0.50616 0.27222 0.97804 0.0
Dy104 Dy 0.02464 1.00169 0.64611 0.0
C105 C 1.00871 0.06544 0.36034 0.0
C106 C 0.02047 0.96386 0.77074 0.0
Dy107 Dy 1.00572 0.02701 0.48293 0.0
O108 O 0.04321 0.97545 0.74096 0.0
O109 O 1.00049 0.9748 0.738 0.0
O110 O 0.06803 0.01463 0.61136 0.0
O111 O 0.0403 1.00549 0.51101 0.0
C112 C 0.06415 0.0146 0.52678 0.0
C113 C 0.9664 0.01431 0.60354 0.0
O114 O 1.00554 0.98614 0.42421 0.0
O115 O 1.00784 0.96737 0.56121 0.0
O116 O 0.98641 0.05222 0.3865 0.0
O117 O 0.02909 0.05566 0.39503 0.0
O118 O 0.96234 0.01409 0.51905 0.0
O119 O 0.9903 0.0234 0.61816 0.0
O120 O 0.02688 0.04283 0.70382 0.0
O121 O 0.02227 0.0613 0.56745 0.0
C122 C 1.00418 0.96514 0.47504 0.0
C123 C 0.02725 0.06373 0.65272 0.0
Dy124 Dy 0.49594 0.99854 0.51179 0.0
C125 C 0.58578 0.05036 0.68687 0.0
C126 C 0.44823 0.97763 0.44615 0.0
Dy127 Dy 0.53672 0.03205 0.62634 0.0
O128 O 0.47137 0.97838 0.40322 0.0
O129 O 0.45126 0.98852 0.52364 0.0
O130 O 0.53034 0.97866 0.44419 0.0
O131 O 0.53614 0.01782 0.49082 0.0
C132 C 0.54788 0.99882 0.45715 0.0
C133 C 0.48496 0.0332 0.67883 0.0
O134 O 0.53024 0.06158 0.52356 0.0
O135 O 0.49155 0.03998 0.46443 0.0
O136 O 0.56303 0.05902 0.71489 0.0
O137 O 0.58143 0.03135 0.62961 0.0
O138 O 0.50304 0.05286 0.69269 0.0
O139 O 0.49619 0.01357 0.64709 0.0
O140 O 0.50426 0.9675 0.607 0.0
O141 O 0.5385 0.99141 0.68358 0.0
C142 C 0.50901 0.06123 0.47232 0.0
C143 C 0.52317 0.96916 0.66729 0.0
Dy144 Dy 0.50091 0.52759 0.63657 0.0
C145 C 0.55004 0.46835 0.37655 0.0
C146 C 0.47716 0.56274 0.74678 0.0
Dy147 Dy 0.53312 0.50372 0.50039 0.0
O148 O 0.4701 0.55634 0.6674 0.0
O149 O 0.49698 0.5492 0.76806 0.0
O150 O 0.46411 0.50438 0.58825 0.0
O151 O 0.49347 0.51935 0.49548 0.0
C152 C 0.47081 0.50609 0.50514 0.0
C153 C 0.56345 0.52348 0.6342 0.0
O154 O 0.53454 0.54329 0.43916 0.0
O155 O 0.52435 0.56255 0.57326 0.0
O156 O 0.5654 0.48107 0.43353 0.0
O157 O 0.52589 0.47614 0.38437 0.0
O158 O 0.57102 0.52463 0.55152 0.0
O159 O 0.54021 0.51124 0.64187 0.0
O160 O 0.49882 0.48816 0.70061 0.0
O161 O 0.51442 0.46826 0.57313 0.0
C162 C 0.53251 0.56463 0.48959 0.0
C163 C 0.50391 0.46664 0.65428 0.0
Dy164 Dy 1.00391 0.4977 0.6412 0.0
C165 C 0.07105 0.54143 0.37147 0.0
C166 C 0.96549 0.48266 0.7668 0.0
Dy167 Dy 0.0322 0.52673 0.49608 0.0
O168 O 0.97596 0.46695 0.70928 0.0
O169 O 0.97729 0.50626 0.75883 0.0
O170 O 0.02054 0.46035 0.59416 0.0
O171 O 1.01042 0.48769 0.50091 0.0
C172 C 0.02053 0.46595 0.51105 0.0
C173 C 1.01584 0.55836 0.62761 0.0
O174 O 0.99146 0.52543 0.43637 0.0
O175 O 0.9699 0.51344 0.56817 0.0
O176 O 0.06085 0.55719 0.42942 0.0
O177 O 0.05865 0.51804 0.37816 0.0
O178 O 1.01569 0.56411 0.54461 0.0
O179 O 0.02594 0.53658 0.63652 0.0
O180 O 0.04478 0.49938 0.70071 0.0
O181 O 0.06617 0.5108 0.56823 0.0
C182 C 0.96908 0.52135 0.48572 0.0
C183 C 0.06712 0.50322 0.65094 0.0
H184 H 0.17256 0.98639 0.08126 0.0
H185 H 0.20708 0.06016 0.1911 0.0
H186 H 0.13695 0.98473 0.19612 0.0
H187 H 0.17131 0.05864 0.30637 0.0
H188 H 0.11742 0.03098 0.54973 0.0
H189 H 0.15413 0.0337 0.43792 0.0
H190 H 0.0972 1.00807 0.23765 0.0
H191 H 0.06067 1.0052 0.34936 0.0
C192 C 0.1727 1.00211 0.13071 0.0
C193 C 0.19298 0.0231 0.1282 0.0
C194 C 0.15213 1.00131 0.19609 0.0
C195 C 0.15117 0.02158 0.2606 0.0
C196 C 0.17159 0.04254 0.25847 0.0
C197 C 0.19211 0.04341 0.19253 0.0
C198 C 0.11277 0.02605 0.48171 0.0
C199 C 0.08618 0.01775 0.45846 0.0
C200 C 0.13379 0.02771 0.41755 0.0
C201 C 0.12871 0.02091 0.32873 0.0
C202 C 0.10196 1.01304 0.30554 0.0
C203 C 0.08096 1.01156 0.3695 0.0
H204 H 0.47567 0.17206 0.06251 0.0
H205 H 0.50702 0.22153 0.27658 0.0
H206 H 0.48181 0.13272 0.1471 0.0
H207 H 0.5126 0.18241 0.36259 0.0
H208 H 0.54255 0.10673 0.46263 0.0
H209 H 0.5381 0.14519 0.37394 0.0
H210 H 0.46335 0.10865 0.27272 0.0
H211 H 0.46816 0.06972 0.36019 0.0
C212 C 0.48388 0.17445 0.12782 0.0
C213 C 0.49055 0.19982 0.16349 0.0
C214 C 0.4872 0.15194 0.17672 0.0
C215 C 0.49746 0.15423 0.2624 0.0
C216 C 0.50484 0.17972 0.29679 0.0
C217 C 0.50154 0.2022 0.24778 0.0
C218 C 0.5251 0.10681 0.42164 0.0
C219 C 0.5057 0.08498 0.41897 0.0
C220 C 0.52248 0.12904 0.37087 0.0
C221 C 0.50033 0.13024 0.31587 0.0
C222 C 0.48089 0.1084 0.31319 0.0
C223 C 0.48354 0.08608 0.36398 0.0
H224 H 0.35925 0.52655 0.08002 0.0
H225 H 0.33077 0.45223 0.19488 0.0
H226 H 0.39691 0.53079 0.1813 0.0
H227 H 0.36868 0.45582 0.29355 0.0
H228 H 0.41968 0.48355 0.52572 0.0
H229 H 0.38392 0.47942 0.41987 0.0
H230 H 0.43901 0.5142 0.22065 0.0
H231 H 0.47492 0.51913 0.32904 0.0
C232 C 0.3609 0.51121 0.12736 0.0
C233 C 0.34144 0.48946 0.13151 0.0
C234 C 0.38273 0.51345 0.18475 0.0
C235 C 0.38586 0.4938 0.24679 0.0
C236 C 0.36672 0.47174 0.24867 0.0
C237 C 0.34493 0.46961 0.19191 0.0
C238 C 0.4243 0.4902 0.45922 0.0
C239 C 0.4502 0.50169 0.43599 0.0
C240 C 0.40373 0.48769 0.39801 0.0
C241 C 0.40838 0.49639 0.31103 0.0
C242 C 0.4345 0.50756 0.28717 0.0
C243 C 0.45519 0.51016 0.34897 0.0
H244 H 1.004 0.36129 0.04601 0.0
H245 H 0.0704 0.33397 0.18455 0.0
H246 H 0.99894 0.39564 0.15993 0.0
H247 H 0.06613 0.3686 0.29678 0.0
H248 H 0.03429 0.41589 0.52945 0.0
H249 H 0.03831 0.38176 0.41611 0.0
H250 H 0.02007 0.43656 0.21734 0.0
H251 H 1.0152 0.47064 0.33229 0.0
C252 C 0.01745 0.36266 0.10109 0.0
C253 C 0.03754 0.34497 0.1066 0.0
C254 C 1.01478 0.38249 0.16589 0.0
C255 C 0.03219 0.38509 0.23777 0.0
C256 C 0.05209 0.36709 0.24333 0.0
C257 C 0.05466 0.34726 0.17879 0.0
C258 C 0.03119 0.42072 0.46153 0.0
C259 C 0.02437 0.44597 0.43989 0.0
C260 C 0.03366 0.40113 0.39622 0.0
C261 C 0.02956 0.40626 0.30709 0.0
C262 C 0.023 0.4317 0.2853 0.0
C263 C 0.02042 0.45134 0.351 0.0
H264 H 0.86382 0.98215 0.07618 0.0
H265 H 0.82454 0.03927 0.93164 0.0
H266 H 0.8984 0.98042 0.95771 0.0
H267 H 0.85852 0.03695 0.812 0.0
H268 H 0.91182 1.00614 0.58143 0.0
H269 H 0.87586 1.00399 0.69608 0.0
H270 H 0.93583 0.01378 0.89669 0.0
H271 H 0.97168 0.01659 0.78232 0.0
C272 C 0.86239 0.99407 0.01856 0.0
C273 C 0.84136 1.01075 0.01297 0.0
C274 C 0.88221 0.99315 0.95092 0.0
C275 C 0.88119 1.00853 0.87541 0.0
C276 C 0.85971 0.02463 0.86879 0.0
C277 C 0.84017 0.0259 0.93712 0.0
C278 C 0.91731 1.00769 0.65002 0.0
C279 C 0.94461 1.01142 0.67279 0.0
C280 C 0.89672 1.00655 0.71562 0.0
C281 C 0.90299 1.00865 0.80548 0.0
C282 C 0.93033 1.0118 0.82815 0.0
C283 C 0.95087 0.01342 0.76259 0.0
H284 H 0.4857 0.82832 0.97684 0.0
H285 H 0.56945 0.84933 0.0316 0.0
H286 H 0.48639 0.86449 0.87376 0.0
H287 H 0.57064 0.8852 0.92623 0.0
H288 H 0.55299 0.96571 0.81602 0.0
H289 H 0.55488 0.92778 0.91034 0.0
H290 H 0.50214 0.88087 0.73556 0.0
H291 H 0.49961 0.91892 0.64304 0.0
C292 C 0.50438 0.84054 0.96582 0.0
C293 C 0.52742 0.83624 0.01309 0.0
C294 C 0.50488 0.86124 0.90625 0.0
C295 C 0.52855 0.87809 0.89157 0.0
C296 C 0.55189 0.87308 0.9368 0.0
C297 C 0.55133 0.85239 -0.00336 0.0
C298 C 0.54191 0.94728 0.79737 0.0
C299 C 0.526 0.94556 0.72196 0.0
C300 C 0.54311 0.92538 0.85138 0.0
C301 C 0.52854 0.90109 0.83132 0.0
C302 C 0.51321 0.89927 0.75453 0.0
C303 C 0.5119 0.92116 0.70091 0.0
H304 H 0.7 0.55935 0.98705 0.0
H305 H 0.6665 0.48077 0.04883 0.0
H306 H 0.66485 0.56265 0.87889 0.0
H307 H 0.63156 0.48386 0.94077 0.0
H308 H 0.55674 0.50668 0.80476 0.0
H309 H 0.59123 0.50648 0.91643 0.0
H310 H 0.65011 0.5447 0.73564 0.0
H311 H 0.61557 0.54513 0.62472 0.0
C312 C 0.68537 0.54264 0.97648 0.0
C313 C 0.68644 0.51956 0.02502 0.0
C314 C 0.66518 0.54452 0.91464 0.0
C315 C 0.64525 0.52353 0.90088 0.0
C316 C 0.6463 0.50055 0.95009 0.0
C317 C 0.66654 0.49864 0.01139 0.0
C318 C 0.57697 0.51532 0.78932 0.0
C319 C 0.58342 0.52583 0.70569 0.0
C320 C 0.59684 0.515 0.85306 0.0
C321 C 0.62363 0.52535 0.83502 0.0
C322 C 0.62974 0.53671 0.75232 0.0
C323 C 0.60993 0.53688 0.6885 0.0
H324 H 0.05187 0.66156 0.07913 0.0
H325 H 0.98897 0.69906 0.95331 0.0
H326 H 0.04712 0.62494 0.97255 0.0
H327 H 0.9833 0.66201 0.84876 0.0
H328 H 1.00504 0.60953 0.61135 0.0
H329 H 1.00523 0.64399 0.7251 0.0
H330 H 0.0206 0.58718 0.92102 0.0
H331 H 0.02142 0.55282 0.80555 0.0
C332 C 0.03658 0.66164 0.02978 0.0
C333 C 0.02049 0.68298 0.02597 0.0
C334 C 0.03373 0.64057 0.96875 0.0
C335 C 1.01472 0.64027 0.90169 0.0
C336 C 0.99838 0.66157 0.89858 0.0
C337 C 1.00141 0.68276 0.9593 0.0
C338 C 1.00829 0.60434 0.67882 0.0
C339 C 1.01342 0.57848 0.6993 0.0
C340 C 1.0082 0.62413 0.74448 0.0
C341 C 1.01301 0.61859 0.83285 0.0
C342 C 1.01729 0.59241 0.85367 0.0
C343 C 0.01756 0.57261 0.78764 0.0
H344 H 0.97367 0.2215 0.20223 0.0
H345 H 0.06014 0.22433 0.22129 0.0
H346 H 0.96897 0.17974 0.2794 0.0
H347 H 0.05612 0.18216 0.29192 0.0
H348 H 0.04565 0.10396 0.41186 0.0
H349 H 0.04543 0.15088 0.39222 0.0
H350 H 0.97487 0.13713 0.23144 0.0
H351 H 0.97375 0.08992 0.25953 0.0
C352 C 0.99156 0.21382 0.22729 0.0
C353 C 1.01726 0.22599 0.20625 0.0
C354 C 0.989 0.18947 0.26901 0.0
C355 C 1.01217 0.17681 0.2888 0.0
C356 C 0.03766 0.19095 0.27815 0.0
C357 C 0.0401 0.21546 0.23831 0.0
C358 C 0.03021 0.11094 0.37153 0.0
C359 C 1.01004 0.09328 0.33531 0.0
C360 C 0.03003 0.138 0.36039 0.0
C361 C 1.01029 0.14816 0.30959 0.0
C362 C 0.99014 0.13031 0.27263 0.0
C363 C 0.98976 0.10316 0.28677 0.0
H364 H 0.29829 1.00676 0.28135 0.0
H365 H 0.3157 0.94409 0.09709 0.0
H366 H 0.33231 0.99349 0.37828 0.0
H367 H 0.34967 0.93028 0.19526 0.0
H368 H 0.43748 0.96149 0.27762 0.0
H369 H 0.3932 0.95419 0.2129 0.0
H370 H 0.35511 0.9653 0.46984 0.0
H371 H 0.39961 0.97339 0.53383 0.0
C372 C 0.30839 0.98924 0.2638 0.0
C373 C 0.30482 0.9768 0.18096 0.0
C374 C 0.32804 0.98159 0.31942 0.0
C375 C 0.34431 0.96128 0.2932 0.0
C376 C 0.33798 0.94648 0.21607 0.0
C377 C 0.3184 0.95422 0.16024 0.0
C378 C 0.41963 0.96179 0.32038 0.0
C379 C 0.42186 0.96848 0.4101 0.0
C380 C 0.39419 0.95734 0.28362 0.0
C381 C 0.37052 0.95937 0.33614 0.0
C382 C 0.37291 0.96397 0.42741 0.0
C383 C 0.39836 0.96859 0.464 0.0
H384 H 0.52517 0.30596 0.26493 0.0
H385 H 0.58959 0.32959 0.0788 0.0
H386 H 0.53358 0.34776 0.34553 0.0
H387 H 0.59803 0.37148 0.15974 0.0
H388 H 0.59794 0.44516 0.37095 0.0
H389 H 0.60453 0.39946 0.32345 0.0
H390 H 0.52168 0.38917 0.24307 0.0
H391 H 0.51524 0.43448 0.288 0.0
C392 C 0.54226 0.31933 0.2446 0.0
C393 C 0.55644 0.31486 0.16503 0.0
C394 C 0.54687 0.34336 0.2901 0.0
C395 C 0.56595 0.36292 0.25708 0.0
C396 C 0.58315 0.35669 0.18604 0.0
C397 C 0.57842 0.33268 0.14015 0.0
C398 C 0.58138 0.43322 0.34134 0.0
C399 C 0.55607 0.44327 0.33307 0.0
C400 C 0.58509 0.40712 0.31525 0.0
C401 C 0.56335 0.39076 0.28245 0.0
C402 C 0.53852 0.40127 0.27054 0.0
C403 C 0.53496 0.42729 0.29505 0.0
H404 H 0.23379 0.51362 0.25205 0.0
H405 H 0.22402 0.58314 0.10313 0.0
H406 H 0.19142 0.51959 0.33295 0.0
H407 H 0.18156 0.58913 0.18375 0.0
H408 H 0.10373 0.58749 0.3725 0.0
H409 H 0.15204 0.59267 0.33077 0.0
H410 H 0.14786 0.51123 0.24178 0.0
H411 H 0.09993 0.50615 0.28205 0.0
C412 C 0.22347 0.53111 0.24064 0.0
C413 C 0.23186 0.54776 0.17095 0.0
C414 C 0.19901 0.53429 0.28579 0.0
C415 C 0.18292 0.55431 0.2622 0.0
C416 C 0.19351 0.57344 0.2026 0.0
C417 C 0.21793 0.57017 0.15712 0.0
C418 C 0.1131 0.57091 0.34231 0.0
C419 C 0.09815 0.54642 0.33028 0.0
C420 C 0.14072 0.5738 0.31953 0.0
C421 C 0.15374 0.55212 0.28588 0.0
C422 C 0.13845 0.52804 0.27027 0.0
C423 C 0.11092 0.52526 0.29183 0.0
H424 H 0.96537 0.809 0.95211 0.0
H425 H 0.05069 0.80465 0.90226 0.0
H426 H 0.96771 0.85145 0.88273 0.0
H427 H 0.05315 0.84664 0.82658 0.0
H428 H 0.0577 0.9367 0.85167 0.0
H429 H 0.05391 0.88964 0.88296 0.0
H430 H 0.97388 0.88193 0.77513 0.0
H431 H 0.97699 0.92893 0.75139 0.0
C432 C 0.98428 0.81638 0.9204 0.0
C433 C 1.00783 0.80372 0.93233 0.0
C434 C 0.9858 0.84098 0.88129 0.0
C435 C 1.01089 0.85309 0.8516 0.0
C436 C 0.0337 0.83843 0.85186 0.0
C437 C 0.03221 0.81398 0.89272 0.0
C438 C 0.03914 0.9249 0.83686 0.0
C439 C 0.01747 0.93651 0.80115 0.0
C440 C 0.03711 0.89781 0.85272 0.0
C441 C 1.01363 0.88169 0.83073 0.0
C442 C 0.99208 0.89356 0.79452 0.0
C443 C 0.99382 0.92064 0.78121 0.0
H444 H 0.72444 0.08989 0.00216 0.0
H445 H 0.73396 0.01896 0.84713 0.0
H446 H 0.69096 0.10264 0.90034 0.0
H447 H 0.7002 0.03096 0.74725 0.0
H448 H 0.60005 0.07568 0.84128 0.0
H449 H 0.64568 0.08325 0.89658 0.0
H450 H 0.67822 0.05553 0.64662 0.0
H451 H 0.6325 0.04661 0.59413 0.0
C452 C 0.72018 0.07764 0.94402 0.0
C453 C 0.73128 0.05324 0.93296 0.0
C454 C 0.70081 0.08475 0.88635 0.0
C455 C 0.69217 0.06742 0.81742 0.0
C456 C 0.70622 0.04486 0.79957 0.0
C457 C 0.72573 0.0379 0.85681 0.0
C458 C 0.61706 0.07176 0.79794 0.0
C459 C 0.61293 0.05998 0.71465 0.0
C460 C 0.64328 0.07634 0.829 0.0
C461 C 0.66571 0.06959 0.7764 0.0
C462 C 0.66144 0.06034 0.68958 0.0
C463 C 0.63527 0.05525 0.65949 0.0
H464 H 0.4522 0.6962 0.09862 0.0
H465 H 0.50319 0.71994 0.87378 0.0
H466 H 0.43807 0.65474 0.0221 0.0
H467 H 0.488 0.67903 0.79603 0.0
H468 H 0.44914 0.6009 0.68104 0.0
H469 H 0.44319 0.64443 0.74703 0.0
H470 H 0.48015 0.62171 0.98416 0.0
H471 H 0.48706 0.5784 0.91709 0.0
C472 C 0.45929 0.69315 0.03117 0.0
C473 C 0.47933 0.71094 0.99291 0.0
C474 C 0.45126 0.66943 0.98776 0.0
C475 C 0.4624 0.66368 0.90428 0.0
C476 C 0.4792 0.68314 0.86064 0.0
C477 C 0.48772 0.70666 0.90486 0.0
C478 C 0.4554 0.60496 0.74811 0.0
C479 C 0.46871 0.58639 0.79409 0.0
C480 C 0.45198 0.62984 0.78552 0.0
C481 C 0.46109 0.63621 0.8704 0.0
C482 C 0.47266 0.61702 0.91882 0.0
C483 C 0.47669 0.59234 0.88058 0.0
H484 H 0.81349 0.44173 0.04412 0.0
H485 H 0.80275 0.50757 0.87827 0.0
H486 H 0.85611 0.43479 0.96558 0.0
H487 H 0.8451 0.50049 0.7996 0.0
H488 H 0.93606 0.51741 0.85637 0.0
H489 H 0.88829 0.51134 0.89816 0.0
H490 H 0.88587 0.42964 0.8131 0.0
H491 H 0.93405 0.43581 0.76944 0.0
C492 C 0.81942 0.45366 0.98739 0.0
C493 C 0.80524 0.47557 0.96848 0.0
C494 C 0.84388 0.44979 0.94293 0.0
C495 C 0.85414 0.46771 0.87894 0.0
C496 C 0.83772 0.48678 0.85018 0.0
C497 C 0.81327 0.49058 0.89438 0.0
C498 C 0.92552 0.49803 0.84783 0.0
C499 C 0.9387 0.4771 0.80958 0.0
C500 C 0.8981 0.49467 0.8704 0.0
C501 C 0.88334 0.47024 0.85608 0.0
C502 C 0.89681 0.44875 0.82322 0.0
C503 C 0.92433 0.45223 0.79931 0.0
H504 H 0.99704 0.22136 0.83146 0.0
H505 H 0.07471 0.21077 0.938 0.0
H506 H 0.99881 0.17985 0.74692 0.0
H507 H 0.07649 0.16923 0.85456 0.0
H508 H 0.04397 0.08035 0.81846 0.0
H509 H 0.04844 0.12573 0.87769 0.0
H510 H 0.02342 0.15423 0.62989 0.0
H511 H 0.01896 0.10936 0.57087 0.0
C512 C 1.01507 0.21082 0.83325 0.0
C513 C 0.03587 0.2194 0.89028 0.0
C514 C 1.01596 0.18686 0.78592 0.0
C515 C 0.03755 0.17099 0.7957 0.0
C516 C 0.05938 0.18076 0.84696 0.0
C517 C 0.05861 0.20477 0.89332 0.0
C518 C 0.03961 0.09631 0.77655 0.0
C519 C 0.03116 0.09107 0.68993 0.0
C520 C 0.04232 0.12232 0.81017 0.0
C521 C 0.03633 0.14359 0.75823 0.0
C522 C 0.02806 0.13833 0.67165 0.0
C523 C 0.02566 0.11249 0.63784 0.0
H524 H 0.33821 0.0592 0.97927 0.0
H525 H 0.3155 0.98953 0.82317 0.0
H526 H 0.38119 0.06502 0.89722 0.0
H527 H 0.35787 0.99583 0.73712 0.0
H528 H 0.44941 0.99007 0.70596 0.0
H529 H 0.40282 0.98894 0.7611 0.0
H530 H 0.40857 0.07425 0.77191 0.0
H531 H 0.45565 0.07509 0.71952 0.0
C532 C 0.34192 0.0459 0.9242 0.0
C533 C 0.32339 0.02419 0.9065 0.0
C534 C 0.36669 0.04909 0.87718 0.0
C535 C 0.37346 0.03066 0.81094 0.0
C536 C 0.35383 1.01008 0.78895 0.0
C537 C 0.32925 1.00672 0.8369 0.0
C538 C 0.4406 1.00857 0.7193 0.0
C539 C 0.45618 0.03266 0.70843 0.0
C540 C 0.41372 1.00799 0.75046 0.0
C541 C 0.40156 0.03153 0.77104 0.0
C542 C 0.41715 0.05567 0.75822 0.0
C543 C 0.44416 0.05621 0.72783 0.0
H544 H 0.53833 0.31212 0.80711 0.0
H545 H 0.47059 0.32623 0.98061 0.0
H546 H 0.53128 0.35165 0.72578 0.0
H547 H 0.46311 0.36583 0.89903 0.0
H548 H 0.49038 0.45339 0.82648 0.0
H549 H 0.4875 0.40944 0.88997 0.0
H550 H 0.50385 0.37537 0.63237 0.0
H551 H 0.50716 0.41902 0.56952 0.0
C552 C 0.52104 0.32297 0.8248 0.0
C553 C 0.50457 0.31574 0.89858 0.0
C554 C 0.5171 0.34585 0.77886 0.0
C555 C 0.49677 0.36223 0.80634 0.0
C556 C 0.47917 0.35394 0.87669 0.0
C557 C 0.48305 0.33095 0.9223 0.0
C558 C 0.49303 0.43649 0.78329 0.0
C559 C 0.49926 0.43991 0.69303 0.0
C560 C 0.49123 0.41121 0.81956 0.0
C561 C 0.4956 0.38874 0.76643 0.0
C562 C 0.50079 0.39216 0.67565 0.0
C563 C 0.5026 0.41732 0.63956 0.0
H564 H 0.20792 0.46985 0.95343 0.0
H565 H 0.23219 0.53909 0.80343 0.0
H566 H 0.16575 0.46362 0.87336 0.0
H567 H 0.1901 0.53318 0.72337 0.0
H568 H 0.07986 0.48984 0.81915 0.0
H569 H 0.1249 0.48767 0.87804 0.0
H570 H 0.16091 0.50716 0.62264 0.0
H571 H 0.11623 0.50964 0.56423 0.0
C572 C 0.20477 0.48297 0.90017 0.0
C573 C 0.22365 0.50453 0.88286 0.0
C574 C 0.18036 0.47978 0.85563 0.0
C575 C 0.17425 0.49809 0.79268 0.0
C576 C 0.19412 0.51853 0.77079 0.0
C577 C 0.21845 0.5218 0.81582 0.0
C578 C 0.09736 0.49345 0.77542 0.0
C579 C 0.09425 0.50008 0.68707 0.0
C580 C 0.12324 0.49203 0.80898 0.0
C581 C 0.14666 0.49728 0.75512 0.0
C582 C 0.14344 0.50329 0.66636 0.0
C583 C 0.11767 0.50463 0.63283 0.0
H584 H 0.05391 0.82372 0.22386 0.0
H585 H 0.97024 0.80128 0.28945 0.0
H586 H 0.05075 0.86575 0.3032 0.0
H587 H 0.96712 0.84328 0.37083 0.0
H588 H 0.98518 0.91966 0.55582 0.0
H589 H 0.98759 0.87431 0.50051 0.0
H590 H 0.02205 0.90369 0.2537 0.0
H591 H 0.01928 0.94912 0.30831 0.0
C592 C 0.03525 0.82721 0.25943 0.0
C593 C 1.01241 0.80911 0.25145 0.0
C594 C 0.03327 0.85148 0.30324 0.0
C595 C 1.00852 0.85801 0.34126 0.0
C596 C 0.98642 0.83878 0.3417 0.0
C597 C 0.98831 0.81456 0.29649 0.0
C598 C 0.99287 0.91646 0.48914 0.0
C599 C 1.00196 0.93802 0.4362 0.0
C600 C 0.99429 0.89048 0.45774 0.0
C601 C 1.00537 0.88548 0.37343 0.0
C602 C 1.01377 0.907 0.31955 0.0
C603 C 1.01187 0.933 0.35031 0.0
H604 H 0.70372 0.05954 0.24174 0.0
H605 H 0.71008 0.97559 0.23003 0.0
H606 H 0.66093 0.05315 0.31863 0.0
H607 H 0.66802 0.96881 0.31733 0.0
H608 H 0.57625 0.96124 0.37101 0.0
H609 H 0.62278 0.96603 0.31411 0.0
H610 H 0.63127 0.0456 0.42405 0.0
H611 H 0.58422 0.04173 0.46792 0.0
C612 C 0.69632 0.03961 0.25888 0.0
C613 C 0.71013 0.01808 0.22798 0.0
C614 C 0.67152 0.03579 0.3044 0.0
C615 C 0.65998 1.01025 0.32429 0.0
C616 C 0.67533 0.98878 0.30112 0.0
C617 C 0.69996 0.99264 0.25277 0.0
C618 C 0.58819 0.97977 0.38211 0.0
C619 C 0.57659 1.00096 0.42534 0.0
C620 C 0.6152 0.9825 0.35055 0.0
C621 C 0.6316 1.00631 0.36347 0.0
C622 C 0.6198 0.02711 0.40939 0.0
C623 C 0.59264 0.02472 0.43715 0.0
H624 H 0.50537 0.72072 0.33715 0.0
H625 H 0.57179 0.70331 0.16239 0.0
H626 H 0.51166 0.68176 0.42208 0.0
H627 H 0.57858 0.66431 0.24784 0.0
H628 H 0.53142 0.6123 0.57673 0.0
H629 H 0.53733 0.65625 0.51524 0.0
H630 H 0.55226 0.62201 0.25689 0.0
H631 H 0.54686 0.57798 0.31878 0.0
C632 C 0.52234 0.70934 0.32009 0.0
C633 C 0.53844 0.71535 0.24435 0.0
C634 C 0.52582 0.68677 0.36816 0.0
C635 C 0.54537 0.66951 0.3411 0.0
C636 C 0.56303 0.67686 0.26976 0.0
C637 C 0.55957 0.69954 0.22189 0.0
C638 C 0.53629 0.61408 0.50691 0.0
C639 C 0.53849 0.59146 0.45267 0.0
C640 C 0.5396 0.63938 0.47158 0.0
C641 C 0.54521 0.64284 0.38094 0.0
C642 C 0.54835 0.62024 0.32722 0.0
C643 C 0.54504 0.5949 0.36261 0.0
H644 H 0.82911 0.55723 0.18202 0.0
H645 H 0.80467 0.487 0.3268 0.0
H646 H 0.8711 0.56299 0.26348 0.0
H647 H 0.84647 0.49247 0.40812 0.0
H648 H 0.91969 0.51451 0.5707 0.0
H649 H 0.87522 0.51776 0.51143 0.0
H650 H 0.91207 0.53894 0.25865 0.0
H651 H 0.95688 0.53602 0.31843 0.0
C652 C 0.83215 0.54377 0.2344 0.0
C653 C 0.81332 0.52205 0.24975 0.0
C654 C 0.85647 0.54671 0.27975 0.0
C655 C 0.86244 0.52801 0.34168 0.0
C656 C 0.84257 0.50741 0.36161 0.0
C657 C 0.81841 0.50439 0.31576 0.0
C658 C 0.91847 0.52006 0.50252 0.0
C659 C 0.94206 0.52484 0.44926 0.0
C660 C 0.89283 0.52184 0.46847 0.0
C661 C 0.8899 0.52855 0.38013 0.0
C662 C 0.9135 0.53405 0.32735 0.0
C663 C 0.93924 0.53219 0.36143 0.0
loop_
_geom_bond_atom_site_label_1
_geom_bond_atom_site_label_2
_geom_bond_distance
_geom_bond_site_symmetry_2
_ccdc_geom_bond_type
H0 C7 0.929 . S
H1 C10 0.930 1_556 S
H2 C12 0.929 . S
H3 C4 0.969 . S
C4 H3 0.969 . S
C4 O5 1.551 1_556 S
C4 H6 0.973 . S
O5 C4 1.551 1_554 S
O5 C11 1.412 . S
H6 C4 0.973 . S
C7 H0 0.929 . S
C7 C8 1.400 . S
C7 C9 1.364 . S
C8 C7 1.400 . S
C8 C12 1.377 . S
C9 C7 1.364 . S
C9 C10 1.374 . S
C10 H1 0.930 1_554 S
C10 C9 1.374 . S
C10 C11 1.383 . S
C11 O5 1.412 . S
C11 C10 1.383 . S
C11 C12 1.394 . S
C12 H2 0.929 . S
C12 C8 1.377 . S
C12 C11 1.394 . S
H13 C20 0.928 1_655 S
H14 C23 0.931 . S
H15 C25 0.930 1_655 S
H16 C17 0.969 . S
C17 H16 0.969 . S
C17 O18 1.550 1_456 S
C17 H19 0.973 1_455 S
O18 C17 1.550 1_654 S
O18 C24 1.407 1_655 S
H19 C17 0.973 1_655 S
C20 H13 0.928 1_455 S
C20 C21 1.398 . S
C20 C22 1.364 1_554 S
C21 C20 1.398 . S
C21 C25 1.378 . S
C22 C20 1.364 1_556 S
C22 C23 1.375 1_455 S
C23 H14 0.931 . S
C23 C22 1.375 1_655 S
C23 C24 1.379 1_656 S
C24 O18 1.407 1_455 S
C24 C23 1.379 1_454 S
C24 C25 1.394 . S
C25 H15 0.930 1_455 S
C25 C21 1.378 . S
C25 C24 1.394 . S
H26 C33 0.929 . S
H27 C36 0.930 . S
H28 C38 0.929 . S
H29 C30 0.969 . S
C30 H29 0.969 . S
C30 O31 1.550 1_556 S
C30 H32 0.973 . S
O31 C30 1.550 1_554 S
O31 C37 1.412 . S
H32 C30 0.973 . S
C33 H26 0.929 . S
C33 C34 1.400 . S
C33 C35 1.364 1_554 S
C34 C33 1.400 . S
C34 C38 1.377 . S
C35 C33 1.364 1_556 S
C35 C36 1.374 . S
C36 H27 0.930 . S
C36 C35 1.374 . S
C36 C37 1.383 1_556 S
C37 O31 1.412 . S
C37 C36 1.383 1_554 S
C37 C38 1.394 . S
C38 H28 0.929 . S
C38 C34 1.377 . S
C38 C37 1.394 . S
H39 C46 0.929 . S
H40 C49 0.930 1_556 S
H41 C51 0.929 . S
H42 C43 0.969 . S
C43 H42 0.969 . S
C43 O44 1.550 . S
C43 H45 0.973 1_554 S
O44 C43 1.550 . S
O44 C50 1.412 . S
H45 C43 0.973 1_556 S
C46 H39 0.929 . S
C46 C47 1.400 . S
C46 C48 1.364 . S
C47 C46 1.400 . S
C47 C51 1.377 . S
C48 C46 1.364 . S
C48 C49 1.374 . S
C49 H40 0.930 1_554 S
C49 C48 1.374 . S
C49 C50 1.383 . S
C50 O44 1.412 . S
C50 C49 1.383 . S
C50 C51 1.394 . S
C51 H41 0.929 . S
C51 C47 1.377 . S
C51 C50 1.394 . S
H52 C59 0.929 . S
H53 C62 0.930 . S
H54 C64 0.929 . S
H55 C56 0.969 . S
C56 H55 0.969 . S
C56 O57 1.550 . S
C56 H58 0.973 . S
O57 C56 1.550 . S
O57 C63 1.412 . S
H58 C56 0.973 . S
C59 H52 0.929 . S
C59 C60 1.400 1_554 S
C59 C61 1.364 . S
C60 C59 1.400 1_556 S
C60 C64 1.377 . S
C61 C59 1.364 . S
C61 C62 1.374 . S
C62 H53 0.930 . S
C62 C61 1.374 . S
C62 C63 1.383 . S
C63 O57 1.412 . S
C63 C62 1.383 . S
C63 C64 1.394 1_554 S
C64 H54 0.929 . S
C64 C60 1.377 . S
C64 C63 1.394 1_556 S
H65 C72 0.929 1_655 S
H66 C75 0.929 . S
H67 C77 0.927 1_656 S
H68 C69 0.969 . S
C69 H68 0.969 . S
C69 O70 1.550 1_455 S
C69 H71 0.973 1_455 S
O70 C69 1.550 1_655 S
O70 C76 1.399 1_655 S
H71 C69 0.973 1_655 S
C72 H65 0.929 1_455 S
C72 C73 1.401 1_554 S
C72 C74 1.364 . S
C73 C72 1.401 1_556 S
C73 C77 1.376 1_556 S
C74 C72 1.364 . S
C74 C75 1.374 1_455 S
C75 H66 0.929 . S
C75 C74 1.374 1_655 S
C75 C76 1.385 1_655 S
C76 O70 1.399 1_455 S
C76 C75 1.385 1_455 S
C76 C77 1.394 . S
C77 H67 0.927 1_454 S
C77 C73 1.376 1_554 S
C77 C76 1.394 . S
H78 C85 0.929 . S
H79 C88 0.930 . S
H80 C90 0.929 1_556 S
H81 C82 0.969 . S
C82 H81 0.969 . S
C82 O83 1.550 . S
C82 H84 0.973 . S
O83 C82 1.550 . S
O83 C89 1.412 . S
H84 C82 0.973 . S
C85 H78 0.929 . S
C85 C86 1.400 . S
C85 C87 1.364 . S
C86 C85 1.400 . S
C86 C90 1.377 . S
C87 C85 1.364 . S
C87 C88 1.374 . S
C88 H79 0.930 . S
C88 C87 1.374 . S
C88 C89 1.383 . S
C89 O83 1.412 . S
C89 C88 1.383 . S
C89 C90 1.394 . S
C90 H80 0.929 1_554 S
C90 C86 1.377 . S
C90 C89 1.394 . S
H91 C98 0.929 . S
H92 C101 0.930 . S
H93 C103 0.929 . S
H94 C95 0.969 . S
C95 H94 0.969 . S
C95 O96 1.550 . S
C95 H97 0.973 . S
O96 C95 1.550 . S
O96 C102 1.412 . S
H97 C95 0.973 . S
C98 H91 0.929 . S
C98 C99 1.400 1_554 S
C98 C100 1.364 . S
C99 C98 1.400 1_556 S
C99 C103 1.377 . S
C100 C98 1.364 . S
C100 C101 1.374 . S
C101 H92 0.930 . S
C101 C100 1.374 . S
C101 C102 1.383 . S
C102 O96 1.412 . S
C102 C101 1.383 . S
C102 C103 1.394 1_554 S
C103 H93 0.929 . S
C103 C99 1.377 . S
C103 C102 1.394 1_556 S
Dy104 O108 2.398 . S
Dy104 O109 2.491 1_455 S
Dy104 O110 2.403 . S
Dy104 O111 2.664 1_565 S
Dy104 O115 2.326 . S
Dy104 O119 2.310 1_455 S
Dy104 O120 2.351 1_565 S
C105 O116 1.185 . S
C105 O117 1.355 1_655 S
C106 O108 1.185 . S
C106 O109 1.355 1_455 S
Dy107 O111 2.310 1_655 S
Dy107 O114 2.351 1_545 S
Dy107 O116 2.398 . S
Dy107 O117 2.491 1_655 S
Dy107 O118 2.403 . S
Dy107 O119 2.664 1_545 S
Dy107 O121 2.326 . S
O108 Dy104 2.398 . S
O108 C106 1.185 . S
O109 Dy104 2.491 1_655 S
O109 C106 1.355 1_655 S
O110 Dy104 2.403 . S
O110 C112 1.254 1_565 S
O111 Dy104 2.664 1_545 S
O111 Dy107 2.310 1_455 S
O111 C112 1.268 . S
C112 O110 1.254 1_545 S
C112 O111 1.268 . S
C113 O118 1.254 1_565 S
C113 O119 1.268 . S
O114 Dy107 2.351 1_565 S
O114 C122 1.249 . S
O115 Dy104 2.326 . S
O115 C122 1.267 1_455 S
O116 C105 1.185 . S
O116 Dy107 2.398 . S
O117 C105 1.355 1_455 S
O117 Dy107 2.491 1_455 S
O118 Dy107 2.403 . S
O118 C113 1.254 1_545 S
O119 Dy104 2.310 1_655 S
O119 Dy107 2.664 1_565 S
O119 C113 1.268 . S
O120 Dy104 2.351 1_545 S
O120 C123 1.249 . S
O121 Dy107 2.326 . S
O121 C123 1.267 1_655 S
C122 O114 1.249 . S
C122 O115 1.267 1_655 S
C123 O120 1.249 . S
C123 O121 1.267 1_455 S
Dy124 O128 2.398 . S
Dy124 O129 2.491 1_565 S
Dy124 O130 2.403 . S
Dy124 O131 2.664 . S
Dy124 O135 2.326 1_565 S
Dy124 O139 2.310 1_565 S
Dy124 O140 2.351 . S
C125 O136 1.205 . S
C125 O137 1.349 1_545 S
C126 O128 1.185 1_545 S
C126 O129 1.355 . S
Dy127 O131 2.310 1_545 S
Dy127 O134 2.351 . S
Dy127 O136 2.398 . S
Dy127 O137 2.491 1_545 S
Dy127 O138 2.403 . S
Dy127 O139 2.664 . S
Dy127 O141 2.326 1_545 S
O128 Dy124 2.398 . S
O128 C126 1.185 1_565 S
O129 Dy124 2.491 1_545 S
O129 C126 1.355 . S
O130 Dy124 2.403 . S
O130 C132 1.254 . S
O131 Dy124 2.664 . S
O131 Dy127 2.310 1_565 S
O131 C132 1.268 . S
C132 O130 1.254 . S
C132 O131 1.268 . S
C133 O138 1.254 . S
C133 O139 1.268 . S
O134 Dy127 2.351 . S
O134 C142 1.249 . S
O135 Dy124 2.326 1_545 S
O135 C142 1.267 . S
O136 C125 1.205 . S
O136 Dy127 2.398 . S
O137 C125 1.349 1_565 S
O137 Dy127 2.491 1_565 S
O138 Dy127 2.403 . S
O138 C133 1.254 . S
O139 Dy124 2.310 1_545 S
O139 Dy127 2.664 . S
O139 C133 1.268 . S
O140 Dy124 2.351 . S
O140 C143 1.249 . S
O141 Dy127 2.326 1_565 S
O141 C143 1.267 . S
C142 O134 1.249 . S
C142 O135 1.267 . S
C143 O140 1.249 . S
C143 O141 1.267 . S
Dy144 O148 2.398 . S
Dy144 O149 2.491 . S
Dy144 O150 2.403 . S
Dy144 O151 2.664 . S
Dy144 O155 2.326 . S
Dy144 O159 2.310 . S
Dy144 O160 2.351 . S
C145 O156 1.185 . S
C145 O157 1.355 . S
C146 O148 1.185 . S
C146 O149 1.355 . S
Dy147 O151 2.310 . S
Dy147 O154 2.351 . S
Dy147 O156 2.398 . S
Dy147 O157 2.491 . S
Dy147 O158 2.403 . S
Dy147 O159 2.664 . S
Dy147 O161 2.326 . S
O148 Dy144 2.398 . S
O148 C146 1.185 . S
O149 Dy144 2.491 . S
O149 C146 1.355 . S
O150 Dy144 2.403 . S
O150 C152 1.254 . S
O151 Dy144 2.664 . S
O151 Dy147 2.310 . S
O151 C152 1.268 . S
C152 O150 1.254 . S
C152 O151 1.268 . S
C153 O158 1.254 . S
C153 O159 1.268 . S
O154 Dy147 2.351 . S
O154 C162 1.249 . S
O155 Dy144 2.326 . S
O155 C162 1.267 . S
O156 C145 1.185 . S
O156 Dy147 2.398 . S
O157 C145 1.355 . S
O157 Dy147 2.491 . S
O158 Dy147 2.403 . S
O158 C153 1.254 . S
O159 Dy144 2.310 . S
O159 Dy147 2.664 . S
O159 C153 1.268 . S
O160 Dy144 2.351 . S
O160 C163 1.249 . S
O161 Dy147 2.326 . S
O161 C163 1.267 . S
C162 O154 1.249 . S
C162 O155 1.267 . S
C163 O160 1.249 . S
C163 O161 1.267 . S
Dy164 O168 2.398 . S
Dy164 O169 2.491 . S
Dy164 O170 2.403 . S
Dy164 O171 2.664 1_655 S
Dy164 O175 2.326 . S
Dy164 O179 2.310 . S
Dy164 O180 2.351 1_655 S
C165 O176 1.185 . S
C165 O177 1.355 . S
C166 O168 1.185 . S
C166 O169 1.355 . S
Dy167 O171 2.310 . S
Dy167 O174 2.351 1_455 S
Dy167 O176 2.398 . S
Dy167 O177 2.491 . S
Dy167 O178 2.403 . S
Dy167 O179 2.664 1_455 S
Dy167 O181 2.326 . S
O168 Dy164 2.398 . S
O168 C166 1.185 . S
O169 Dy164 2.491 . S
O169 C166 1.355 . S
O170 Dy164 2.403 . S
O170 C172 1.254 . S
O171 Dy164 2.664 1_455 S
O171 Dy167 2.310 . S
O171 C172 1.268 1_455 S
C172 O170 1.254 . S
C172 O171 1.268 1_655 S
C173 O178 1.254 . S
C173 O179 1.268 1_455 S
O174 Dy167 2.351 1_655 S
O174 C182 1.249 . S
O175 Dy164 2.326 . S
O175 C182 1.267 . S
O176 C165 1.185 . S
O176 Dy167 2.398 . S
O177 C165 1.355 . S
O177 Dy167 2.491 . S
O178 Dy167 2.403 . S
O178 C173 1.254 . S
O179 Dy164 2.310 . S
O179 Dy167 2.664 1_655 S
O179 C173 1.268 1_655 S
O180 Dy164 2.351 1_455 S
O180 C183 1.249 . S
O181 Dy167 2.326 . S
O181 C183 1.267 . S
C182 O174 1.249 . S
C182 O175 1.267 . S
C183 O180 1.249 . S
C183 O181 1.267 . S
H184 C192 0.950 . S
H185 C197 0.950 . S
H186 C194 0.950 . S
H187 C196 0.950 . S
H188 C198 0.950 . S
H189 C200 0.950 . S
H190 C202 0.950 . S
H191 C203 0.950 . S
C192 H184 0.950 . S
C192 C193 1.386 . S
C192 C194 1.391 . S
C193 C192 1.386 . S
C193 C197 1.393 . S
C194 H186 0.950 . S
C194 C192 1.391 . S
C194 C195 1.400 . S
C195 C194 1.400 . S
C195 C196 1.398 . S
C195 C201 1.491 . S
C196 H187 0.950 . S
C196 C195 1.398 . S
C196 C197 1.391 . S
C197 H185 0.950 . S
C197 C193 1.393 . S
C197 C196 1.391 . S
C198 H188 0.950 . S
C198 C199 1.386 . S
C198 C200 1.391 . S
C199 C198 1.386 . S
C199 C203 1.393 . S
C200 H189 0.950 . S
C200 C198 1.391 . S
C200 C201 1.400 . S
C201 C195 1.491 . S
C201 C200 1.400 . S
C201 C202 1.398 . S
C202 H190 0.950 . S
C202 C201 1.398 . S
C202 C203 1.391 . S
C203 H191 0.950 . S
C203 C199 1.393 . S
C203 C202 1.391 . S
H204 C212 0.950 . S
H205 C217 0.950 . S
H206 C214 0.950 . S
H207 C216 0.950 . S
H208 C218 0.950 . S
H209 C220 0.950 . S
H210 C222 0.950 . S
H211 C223 0.950 . S
C212 H204 0.950 . S
C212 C213 1.386 . S
C212 C214 1.391 . S
C213 C212 1.386 . S
C213 C217 1.393 . S
C214 H206 0.950 . S
C214 C212 1.391 . S
C214 C215 1.400 . S
C215 C214 1.400 . S
C215 C216 1.398 . S
C215 C221 1.491 . S
C216 H207 0.950 . S
C216 C215 1.398 . S
C216 C217 1.391 . S
C217 H205 0.950 . S
C217 C213 1.393 . S
C217 C216 1.391 . S
C218 H208 0.950 . S
C218 C219 1.386 . S
C218 C220 1.391 . S
C219 C218 1.386 . S
C219 C223 1.393 . S
C220 H209 0.950 . S
C220 C218 1.391 . S
C220 C221 1.400 . S
C221 C215 1.491 . S
C221 C220 1.400 . S
C221 C222 1.398 . S
C222 H210 0.950 . S
C222 C221 1.398 . S
C222 C223 1.391 . S
C223 H211 0.950 . S
C223 C219 1.393 . S
C223 C222 1.391 . S
H224 C232 0.950 . S
H225 C237 0.950 . S
H226 C234 0.950 . S
H227 C236 0.950 . S
H228 C238 0.950 . S
H229 C240 0.950 . S
H230 C242 0.950 . S
H231 C243 0.950 . S
C232 H224 0.950 . S
C232 C233 1.386 . S
C232 C234 1.391 . S
C233 C232 1.386 . S
C233 C237 1.393 . S
C234 H226 0.950 . S
C234 C232 1.391 . S
C234 C235 1.400 . S
C235 C234 1.400 . S
C235 C236 1.398 . S
C235 C241 1.491 . S
C236 H227 0.950 . S
C236 C235 1.398 . S
C236 C237 1.391 . S
C237 H225 0.950 . S
C237 C233 1.393 . S
C237 C236 1.391 . S
C238 H228 0.950 . S
C238 C239 1.386 . S
C238 C240 1.391 . S
C239 C238 1.386 . S
C239 C243 1.393 . S
C240 H229 0.950 . S
C240 C238 1.391 . S
C240 C241 1.400 . S
C241 C235 1.491 . S
C241 C240 1.400 . S
C241 C242 1.398 . S
C242 H230 0.950 . S
C242 C241 1.398 . S
C242 C243 1.391 . S
C243 H231 0.950 . S
C243 C239 1.393 . S
C243 C242 1.391 . S
H244 C252 0.950 . S
H245 C257 0.950 . S
H246 C254 0.950 . S
H247 C256 0.950 . S
H248 C258 0.950 . S
H249 C260 0.950 . S
H250 C262 0.950 . S
H251 C263 0.950 . S
C252 H244 0.950 . S
C252 C253 1.401 . S
C252 C254 1.391 . S
C253 C252 1.401 . S
C253 C257 1.381 1_655 S
C254 H246 0.950 . S
C254 C252 1.391 . S
C254 C255 1.414 . S
C255 C254 1.414 . S
C255 C256 1.385 1_655 S
C255 C261 1.492 . S
C256 H247 0.950 . S
C256 C255 1.385 1_455 S
C256 C257 1.391 . S
C257 H245 0.950 . S
C257 C253 1.381 1_455 S
C257 C256 1.391 . S
C258 H248 0.950 . S
C258 C259 1.383 1_455 S
C258 C260 1.391 . S
C259 C258 1.383 1_655 S
C259 C263 1.395 . S
C260 H249 0.950 . S
C260 C258 1.391 . S
C260 C261 1.398 1_455 S
C261 C255 1.492 . S
C261 C260 1.398 1_655 S
C261 C262 1.400 . S
C262 H250 0.950 . S
C262 C261 1.400 . S
C262 C263 1.391 . S
C263 H251 0.950 . S
C263 C259 1.395 . S
C263 C262 1.391 . S
H264 C272 0.950 . S
H265 C277 0.950 . S
H266 C274 0.950 . S
H267 C276 0.950 . S
H268 C278 0.950 1_545 S
H269 C280 0.936 1_545 S
H270 C282 0.950 . S
H271 C283 0.950 . S
C272 H264 0.950 . S
C272 C273 1.386 . S
C272 C274 1.391 . S
C273 C272 1.386 . S
C273 C277 1.393 . S
C274 H266 0.950 . S
C274 C272 1.391 . S
C274 C275 1.400 . S
C275 C274 1.400 . S
C275 C276 1.398 . S
C275 C281 1.491 . S
C276 H267 0.950 . S
C276 C275 1.398 . S
C276 C277 1.391 . S
C277 H265 0.950 . S
C277 C273 1.393 . S
C277 C276 1.391 . S
C278 H268 0.950 1_565 S
C278 C279 1.386 . S
C278 C280 1.391 . S
C279 C278 1.386 . S
C279 C283 1.393 . S
C280 H269 0.936 1_565 S
C280 C278 1.391 . S
C280 C281 1.400 . S
C281 C275 1.491 . S
C281 C280 1.400 . S
C281 C282 1.398 . S
C282 H270 0.950 . S
C282 C281 1.398 . S
C282 C283 1.391 . S
C283 H271 0.950 . S
C283 C279 1.393 . S
C283 C282 1.391 . S
H284 C292 0.950 . S
H285 C297 0.950 . S
H286 C294 0.950 . S
H287 C296 0.950 . S
H288 C298 0.950 . S
H289 C300 0.950 . S
H290 C302 0.950 . S
H291 C303 0.950 . S
C292 H284 0.950 . S
C292 C293 1.386 1_556 S
C292 C294 1.391 . S
C293 C292 1.386 1_554 S
C293 C297 1.393 . S
C294 H286 0.950 . S
C294 C292 1.391 . S
C294 C295 1.400 . S
C295 C294 1.400 . S
C295 C296 1.398 . S
C295 C301 1.491 . S
C296 H287 0.950 . S
C296 C295 1.398 . S
C296 C297 1.391 1_556 S
C297 H285 0.950 . S
C297 C293 1.393 . S
C297 C296 1.391 1_554 S
C298 H288 0.950 . S
C298 C299 1.386 . S
C298 C300 1.391 . S
C299 C298 1.386 . S
C299 C303 1.393 . S
C300 H289 0.950 . S
C300 C298 1.391 . S
C300 C301 1.400 . S
C301 C295 1.491 . S
C301 C300 1.400 . S
C301 C302 1.398 . S
C302 H290 0.950 . S
C302 C301 1.398 . S
C302 C303 1.391 . S
C303 H291 0.950 . S
C303 C299 1.393 . S
C303 C302 1.391 . S
H304 C312 0.950 . S
H305 C317 0.950 1_554 S
H306 C314 0.950 . S
H307 C316 0.950 . S
H308 C318 0.950 . S
H309 C320 0.950 . S
H310 C322 0.950 . S
H311 C323 0.950 . S
C312 H304 0.950 . S
C312 C313 1.386 . S
C312 C314 1.391 . S
C313 C312 1.386 . S
C313 C317 1.393 . S
C314 H306 0.950 . S
C314 C312 1.391 . S
C314 C315 1.400 . S
C315 C314 1.400 . S
C315 C316 1.398 . S
C315 C321 1.491 . S
C316 H307 0.950 . S
C316 C315 1.398 . S
C316 C317 1.391 . S
C317 H305 0.950 1_556 S
C317 C313 1.393 . S
C317 C316 1.391 . S
C318 H308 0.950 . S
C318 C319 1.386 . S
C318 C320 1.391 . S
C319 C318 1.386 . S
C319 C323 1.393 . S
C320 H309 0.950 . S
C320 C318 1.391 . S
C320 C321 1.400 . S
C321 C315 1.491 . S
C321 C320 1.400 . S
C321 C322 1.398 . S
C322 H310 0.950 . S
C322 C321 1.398 . S
C322 C323 1.391 . S
C323 H311 0.950 . S
C323 C319 1.393 . S
C323 C322 1.391 . S
H324 C332 0.950 1_554 S
H325 C337 0.950 . S
H326 C334 0.950 . S
H327 C336 0.950 . S
H328 C338 0.951 . S
H329 C340 0.959 . S
H330 C342 0.950 . S
H331 C343 0.950 . S
C332 H324 0.950 1_556 S
C332 C333 1.378 1_455 S
C332 C334 1.391 . S
C333 C332 1.378 1_655 S
C333 C337 1.399 . S
C334 H326 0.950 . S
C334 C332 1.391 . S
C334 C335 1.400 1_455 S
C335 C334 1.400 1_655 S
C335 C336 1.398 . S
C335 C341 1.491 1_655 S
C336 H327 0.950 . S
C336 C335 1.398 . S
C336 C337 1.391 . S
C337 H325 0.950 . S
C337 C333 1.399 . S
C337 C336 1.391 . S
C338 H328 0.951 . S
C338 C339 1.383 1_655 S
C338 C340 1.389 . S
C339 C338 1.383 1_455 S
C339 C343 1.393 . S
C340 H329 0.959 . S
C340 C338 1.389 . S
C340 C341 1.396 1_655 S
C341 C335 1.491 1_455 S
C341 C340 1.396 1_455 S
C341 C342 1.398 . S
C342 H330 0.950 . S
C342 C341 1.398 . S
C342 C343 1.391 . S
C343 H331 0.950 . S
C343 C339 1.393 . S
C343 C342 1.391 . S
H344 C352 0.950 . S
H345 C357 0.950 . S
H346 C354 0.950 . S
H347 C356 0.950 . S
H348 C358 0.950 . S
H349 C360 0.950 . S
H350 C362 0.950 . S
H351 C363 0.950 . S
C352 H344 0.950 . S
C352 C353 1.378 1_655 S
C352 C354 1.391 . S
C353 C352 1.378 1_455 S
C353 C357 1.401 . S
C354 H346 0.950 . S
C354 C352 1.391 . S
C354 C355 1.400 . S
C355 C354 1.400 . S
C355 C356 1.398 1_655 S
C355 C361 1.491 . S
C356 H347 0.950 . S
C356 C355 1.398 1_455 S
C356 C357 1.391 . S
C357 H345 0.950 . S
C357 C353 1.401 . S
C357 C356 1.391 . S
C358 H348 0.950 . S
C358 C359 1.386 1_455 S
C358 C360 1.391 . S
C359 C358 1.386 1_655 S
C359 C363 1.393 . S
C360 H349 0.950 . S
C360 C358 1.391 . S
C360 C361 1.400 1_455 S
C361 C355 1.491 . S
C361 C360 1.400 1_655 S
C361 C362 1.398 . S
C362 H350 0.950 . S
C362 C361 1.398 . S
C362 C363 1.391 . S
C363 H351 0.950 . S
C363 C359 1.393 . S
C363 C362 1.391 . S
H364 C372 0.950 . S
H365 C377 0.950 . S
H366 C374 0.950 . S
H367 C376 0.950 1_565 S
H368 C378 0.950 . S
H369 C380 0.950 . S
H370 C382 0.950 . S
H371 C383 0.950 . S
C372 H364 0.950 . S
C372 C373 1.386 . S
C372 C374 1.391 . S
C373 C372 1.386 . S
C373 C377 1.393 . S
C374 H366 0.950 . S
C374 C372 1.391 . S
C374 C375 1.400 . S
C375 C374 1.400 . S
C375 C376 1.398 . S
C375 C381 1.491 . S
C376 H367 0.950 1_545 S
C376 C375 1.398 . S
C376 C377 1.391 . S
C377 H365 0.950 . S
C377 C373 1.393 . S
C377 C376 1.391 . S
C378 H368 0.950 . S
C378 C379 1.386 1_565 S
C378 C380 1.391 . S
C379 C378 1.386 1_545 S
C379 C383 1.393 . S
C380 H369 0.950 . S
C380 C378 1.391 . S
C380 C381 1.400 1_565 S
C381 C375 1.491 . S
C381 C380 1.400 1_545 S
C381 C382 1.398 . S
C382 H370 0.950 . S
C382 C381 1.398 . S
C382 C383 1.391 . S
C383 H371 0.950 . S
C383 C379 1.393 . S
C383 C382 1.391 . S
H384 C392 0.950 . S
H385 C397 0.950 . S
H386 C394 0.950 . S
H387 C396 0.950 . S
H388 C398 0.950 . S
H389 C400 0.950 . S
H390 C402 0.950 . S
H391 C403 0.950 . S
C392 H384 0.950 . S
C392 C393 1.386 . S
C392 C394 1.391 . S
C393 C392 1.386 . S
C393 C397 1.393 . S
C394 H386 0.950 . S
C394 C392 1.391 . S
C394 C395 1.400 . S
C395 C394 1.400 . S
C395 C396 1.398 . S
C395 C401 1.491 . S
C396 H387 0.950 . S
C396 C395 1.398 . S
C396 C397 1.391 . S
C397 H385 0.950 . S
C397 C393 1.393 . S
C397 C396 1.391 . S
C398 H388 0.950 . S
C398 C399 1.386 . S
C398 C400 1.391 . S
C399 C398 1.386 . S
C399 C403 1.393 . S
C400 H389 0.950 . S
C400 C398 1.391 . S
C400 C401 1.400 . S
C401 C395 1.491 . S
C401 C400 1.400 . S
C401 C402 1.398 . S
C402 H390 0.950 . S
C402 C401 1.398 . S
C402 C403 1.391 . S
C403 H391 0.950 . S
C403 C399 1.393 . S
C403 C402 1.391 . S
H404 C412 0.950 . S
H405 C417 0.950 . S
H406 C414 0.950 . S
H407 C416 0.950 . S
H408 C418 0.950 . S
H409 C420 0.950 . S
H410 C422 0.950 . S
H411 C423 0.950 . S
C412 H404 0.950 . S
C412 C413 1.386 . S
C412 C414 1.391 . S
C413 C412 1.386 . S
C413 C417 1.393 . S
C414 H406 0.950 . S
C414 C412 1.391 . S
C414 C415 1.400 . S
C415 C414 1.400 . S
C415 C416 1.398 . S
C415 C421 1.491 . S
C416 H407 0.950 . S
C416 C415 1.398 . S
C416 C417 1.391 . S
C417 H405 0.950 . S
C417 C413 1.393 . S
C417 C416 1.391 . S
C418 H408 0.950 . S
C418 C419 1.386 . S
C418 C420 1.391 . S
C419 C418 1.386 . S
C419 C423 1.393 . S
C420 H409 0.950 . S
C420 C418 1.391 . S
C420 C421 1.400 . S
C421 C415 1.491 . S
C421 C420 1.400 . S
C421 C422 1.398 . S
C422 H410 0.950 . S
C422 C421 1.398 . S
C422 C423 1.391 . S
C423 H411 0.950 . S
C423 C419 1.393 . S
C423 C422 1.391 . S
H424 C432 0.950 . S
H425 C437 0.950 1_554 S
H426 C434 0.950 . S
H427 C436 0.950 . S
H428 C438 0.950 . S
H429 C440 0.950 . S
H430 C442 0.962 . S
H431 C443 0.950 1_655 S
C432 H424 0.950 . S
C432 C433 1.398 . S
C432 C434 1.391 . S
C433 C432 1.398 . S
C433 C437 1.381 1_655 S
C434 H426 0.950 . S
C434 C432 1.391 . S
C434 C435 1.400 1_655 S
C435 C434 1.400 1_455 S
C435 C436 1.398 . S
C435 C441 1.491 . S
C436 H427 0.950 . S
C436 C435 1.398 . S
C436 C437 1.391 . S
C437 H425 0.950 1_556 S
C437 C433 1.381 1_455 S
C437 C436 1.391 . S
C438 H428 0.950 . S
C438 C439 1.386 . S
C438 C440 1.391 . S
C439 C438 1.386 . S
C439 C443 1.393 . S
C440 H429 0.950 . S
C440 C438 1.391 . S
C440 C441 1.400 . S
C441 C435 1.491 . S
C441 C440 1.400 . S
C441 C442 1.387 1_455 S
C442 H430 0.962 . S
C442 C441 1.387 1_655 S
C442 C443 1.391 1_655 S
C443 H431 0.950 1_455 S
C443 C439 1.393 . S
C443 C442 1.391 1_455 S
H444 C452 0.950 . S
H445 C457 0.950 . S
H446 C454 0.950 1_545 S
H447 C456 0.950 . S
H448 C458 0.950 . S
H449 C460 0.950 . S
H450 C462 0.950 . S
H451 C463 0.950 . S
C452 H444 0.950 . S
C452 C453 1.386 . S
C452 C454 1.391 . S
C453 C452 1.386 . S
C453 C457 1.393 . S
C454 H446 0.950 1_565 S
C454 C452 1.391 . S
C454 C455 1.400 . S
C455 C454 1.400 . S
C455 C456 1.398 . S
C455 C461 1.491 . S
C456 H447 0.950 . S
C456 C455 1.398 . S
C456 C457 1.391 . S
C457 H445 0.950 . S
C457 C453 1.393 . S
C457 C456 1.391 . S
C458 H448 0.950 . S
C458 C459 1.386 . S
C458 C460 1.391 . S
C459 C458 1.386 . S
C459 C463 1.393 1_565 S
C460 H449 0.950 . S
C460 C458 1.391 . S
C460 C461 1.400 . S
C461 C455 1.491 . S
C461 C460 1.400 . S
C461 C462 1.398 1_565 S
C462 H450 0.950 . S
C462 C461 1.398 1_545 S
C462 C463 1.391 . S
C463 H451 0.950 . S
C463 C459 1.393 1_545 S
C463 C462 1.391 . S
H464 C472 0.950 1_554 S
H465 C477 0.950 . S
H466 C474 0.950 . S
H467 C476 0.950 . S
H468 C478 0.950 . S
H469 C480 0.950 . S
H470 C482 0.950 . S
H471 C483 0.950 . S
C472 H464 0.950 1_556 S
C472 C473 1.386 1_556 S
C472 C474 1.391 . S
C473 C472 1.386 1_554 S
C473 C477 1.393 1_554 S
C474 H466 0.950 . S
C474 C472 1.391 . S
C474 C475 1.400 . S
C475 C474 1.400 . S
C475 C476 1.398 . S
C475 C481 1.491 . S
C476 H467 0.950 . S
C476 C475 1.398 . S
C476 C477 1.391 . S
C477 H465 0.950 . S
C477 C473 1.393 1_556 S
C477 C476 1.391 . S
C478 H468 0.950 . S
C478 C479 1.386 . S
C478 C480 1.391 . S
C479 C478 1.386 . S
C479 C483 1.393 . S
C480 H469 0.950 . S
C480 C478 1.391 . S
C480 C481 1.400 . S
C481 C475 1.491 . S
C481 C480 1.400 . S
C481 C482 1.398 . S
C482 H470 0.950 . S
C482 C481 1.398 . S
C482 C483 1.391 . S
C483 H471 0.950 . S
C483 C479 1.393 . S
C483 C482 1.391 . S
H484 C492 0.950 . S
H485 C497 0.950 . S
H486 C494 0.950 . S
H487 C496 0.950 1_554 S
H488 C498 0.950 . S
H489 C500 0.950 . S
H490 C502 0.950 . S
H491 C503 0.950 . S
C492 H484 0.950 . S
C492 C493 1.386 . S
C492 C494 1.391 . S
C493 C492 1.386 . S
C493 C497 1.393 1_556 S
C494 H486 0.950 . S
C494 C492 1.391 . S
C494 C495 1.400 . S
C495 C494 1.400 . S
C495 C496 1.398 . S
C495 C501 1.491 . S
C496 H487 0.950 1_556 S
C496 C495 1.398 . S
C496 C497 1.391 1_556 S
C497 H485 0.950 . S
C497 C493 1.393 1_554 S
C497 C496 1.391 1_554 S
C498 H488 0.950 . S
C498 C499 1.386 . S
C498 C500 1.391 . S
C499 C498 1.386 . S
C499 C503 1.393 . S
C500 H489 0.950 . S
C500 C498 1.391 . S
C500 C501 1.400 . S
C501 C495 1.491 . S
C501 C500 1.400 . S
C501 C502 1.398 . S
C502 H490 0.950 . S
C502 C501 1.398 . S
C502 C503 1.391 . S
C503 H491 0.950 . S
C503 C499 1.393 . S
C503 C502 1.391 . S
H504 C512 0.950 . S
H505 C517 0.950 . S
H506 C514 0.950 . S
H507 C516 0.950 . S
H508 C518 0.950 . S
H509 C520 0.950 . S
H510 C522 0.950 . S
H511 C523 0.950 . S
C512 H504 0.950 . S
C512 C513 1.386 1_655 S
C512 C514 1.391 . S
C513 C512 1.386 1_455 S
C513 C517 1.393 . S
C514 H506 0.950 . S
C514 C512 1.391 . S
C514 C515 1.400 1_655 S
C515 C514 1.400 1_455 S
C515 C516 1.398 . S
C515 C521 1.491 . S
C516 H507 0.950 . S
C516 C515 1.398 . S
C516 C517 1.391 . S
C517 H505 0.950 . S
C517 C513 1.393 . S
C517 C516 1.391 . S
C518 H508 0.950 . S
C518 C519 1.386 . S
C518 C520 1.391 . S
C519 C518 1.386 . S
C519 C523 1.393 1_455 S
C520 H509 0.950 . S
C520 C518 1.391 . S
C520 C521 1.400 . S
C521 C515 1.491 . S
C521 C520 1.400 . S
C521 C522 1.398 1_455 S
C522 H510 0.950 . S
C522 C521 1.398 1_655 S
C522 C523 1.391 . S
C523 H511 0.950 . S
C523 C519 1.393 1_655 S
C523 C522 1.391 . S
H524 C532 0.950 . S
H525 C537 0.950 1_554 S
H526 C534 0.950 . S
H527 C536 0.950 . S
H528 C538 0.972 . S
H529 C540 0.950 . S
H530 C542 0.950 . S
H531 C543 0.950 . S
C532 H524 0.950 . S
C532 C533 1.386 . S
C532 C534 1.391 . S
C533 C532 1.386 . S
C533 C537 1.393 . S
C534 H526 0.950 . S
C534 C532 1.391 . S
C534 C535 1.400 . S
C535 C534 1.400 . S
C535 C536 1.398 . S
C535 C541 1.491 . S
C536 H527 0.950 . S
C536 C535 1.398 . S
C536 C537 1.391 . S
C537 H525 0.950 1_556 S
C537 C533 1.393 . S
C537 C536 1.391 . S
C538 H528 0.972 . S
C538 C539 1.386 . S
C538 C540 1.391 . S
C539 C538 1.386 . S
C539 C543 1.393 . S
C540 H529 0.950 . S
C540 C538 1.391 . S
C540 C541 1.400 . S
C541 C535 1.491 . S
C541 C540 1.400 . S
C541 C542 1.398 . S
C542 H530 0.950 . S
C542 C541 1.398 . S
C542 C543 1.391 . S
C543 H531 0.950 . S
C543 C539 1.393 . S
C543 C542 1.391 . S
H544 C552 0.950 . S
H545 C557 0.950 . S
H546 C554 0.950 . S
H547 C556 0.950 . S
H548 C558 0.950 . S
H549 C560 0.950 . S
H550 C562 0.950 . S
H551 C563 0.950 . S
C552 H544 0.950 . S
C552 C553 1.386 . S
C552 C554 1.391 . S
C553 C552 1.386 . S
C553 C557 1.393 . S
C554 H546 0.950 . S
C554 C552 1.391 . S
C554 C555 1.400 . S
C555 C554 1.400 . S
C555 C556 1.398 . S
C555 C561 1.491 . S
C556 H547 0.950 . S
C556 C555 1.398 . S
C556 C557 1.391 . S
C557 H545 0.950 . S
C557 C553 1.393 . S
C557 C556 1.391 . S
C558 H548 0.950 . S
C558 C559 1.386 . S
C558 C560 1.391 . S
C559 C558 1.386 . S
C559 C563 1.393 . S
C560 H549 0.950 . S
C560 C558 1.391 . S
C560 C561 1.400 . S
C561 C555 1.491 . S
C561 C560 1.400 . S
C561 C562 1.398 . S
C562 H550 0.950 . S
C562 C561 1.398 . S
C562 C563 1.391 . S
C563 H551 0.950 . S
C563 C559 1.393 . S
C563 C562 1.391 . S
H564 C572 0.950 . S
H565 C577 0.950 . S
H566 C574 0.950 . S
H567 C576 0.950 . S
H568 C578 0.950 . S
H569 C580 0.950 . S
H570 C582 0.950 . S
H571 C583 0.950 . S
C572 H564 0.950 . S
C572 C573 1.386 . S
C572 C574 1.391 . S
C573 C572 1.386 . S
C573 C577 1.393 . S
C574 H566 0.950 . S
C574 C572 1.391 . S
C574 C575 1.400 . S
C575 C574 1.400 . S
C575 C576 1.398 . S
C575 C581 1.491 . S
C576 H567 0.950 . S
C576 C575 1.398 . S
C576 C577 1.391 . S
C577 H565 0.950 . S
C577 C573 1.393 . S
C577 C576 1.391 . S
C578 H568 0.950 . S
C578 C579 1.386 . S
C578 C580 1.391 . S
C579 C578 1.386 . S
C579 C583 1.393 . S
C580 H569 0.950 . S
C580 C578 1.391 . S
C580 C581 1.400 . S
C581 C575 1.491 . S
C581 C580 1.400 . S
C581 C582 1.398 . S
C582 H570 0.950 . S
C582 C581 1.398 . S
C582 C583 1.391 . S
C583 H571 0.950 . S
C583 C579 1.393 . S
C583 C582 1.391 . S
H584 C592 0.949 . S
H585 C597 0.950 . S
H586 C594 0.953 1_455 S
H587 C596 0.950 . S
H588 C598 0.950 . S
H589 C600 0.950 . S
H590 C602 0.950 1_455 S
H591 C603 0.950 . S
C592 H584 0.949 . S
C592 C593 1.386 1_455 S
C592 C594 1.387 1_455 S
C593 C592 1.386 1_655 S
C593 C597 1.393 . S
C594 H586 0.953 1_655 S
C594 C592 1.387 1_655 S
C594 C595 1.405 . S
C595 C594 1.405 . S
C595 C596 1.398 . S
C595 C601 1.491 . S
C596 H587 0.950 . S
C596 C595 1.398 . S
C596 C597 1.391 . S
C597 H585 0.950 . S
C597 C593 1.393 . S
C597 C596 1.391 . S
C598 H588 0.950 . S
C598 C599 1.386 . S
C598 C600 1.391 . S
C599 C598 1.386 . S
C599 C603 1.393 . S
C600 H589 0.950 . S
C600 C598 1.391 . S
C600 C601 1.400 . S
C601 C595 1.491 . S
C601 C600 1.400 . S
C601 C602 1.398 . S
C602 H590 0.950 1_655 S
C602 C601 1.398 . S
C602 C603 1.391 . S
C603 H591 0.950 . S
C603 C599 1.393 . S
C603 C602 1.391 . S
H604 C612 0.950 . S
H605 C617 0.950 . S
H606 C614 0.950 1_545 S
H607 C616 0.950 . S
H608 C618 0.950 . S
H609 C620 0.950 . S
H610 C622 0.950 1_545 S
H611 C623 0.950 . S
C612 H604 0.950 . S
C612 C613 1.386 . S
C612 C614 1.391 . S
C613 C612 1.386 . S
C613 C617 1.393 . S
C614 H606 0.950 1_565 S
C614 C612 1.391 . S
C614 C615 1.400 . S
C615 C614 1.400 . S
C615 C616 1.398 . S
C615 C621 1.491 . S
C616 H607 0.950 . S
C616 C615 1.398 . S
C616 C617 1.391 . S
C617 H605 0.950 . S
C617 C613 1.393 . S
C617 C616 1.391 . S
C618 H608 0.950 . S
C618 C619 1.386 . S
C618 C620 1.391 . S
C619 C618 1.386 . S
C619 C623 1.393 1_565 S
C620 H609 0.950 . S
C620 C618 1.391 . S
C620 C621 1.400 . S
C621 C615 1.491 . S
C621 C620 1.400 . S
C621 C622 1.398 . S
C622 H610 0.950 1_565 S
C622 C621 1.398 . S
C622 C623 1.391 1_565 S
C623 H611 0.950 . S
C623 C619 1.393 1_545 S
C623 C622 1.391 1_545 S
H624 C632 0.950 . S
H625 C637 0.950 . S
H626 C634 0.950 . S
H627 C636 0.950 . S
H628 C638 0.950 . S
H629 C640 0.950 . S
H630 C642 0.950 . S
H631 C643 0.950 . S
C632 H624 0.950 . S
C632 C633 1.386 . S
C632 C634 1.391 . S
C633 C632 1.386 . S
C633 C637 1.393 . S
C634 H626 0.950 . S
C634 C632 1.391 . S
C634 C635 1.400 . S
C635 C634 1.400 . S
C635 C636 1.398 . S
C635 C641 1.491 . S
C636 H627 0.950 . S
C636 C635 1.398 . S
C636 C637 1.391 . S
C637 H625 0.950 . S
C637 C633 1.393 . S
C637 C636 1.391 . S
C638 H628 0.950 . S
C638 C639 1.386 . S
C638 C640 1.391 . S
C639 C638 1.386 . S
C639 C643 1.393 . S
C640 H629 0.950 . S
C640 C638 1.391 . S
C640 C641 1.400 . S
C641 C635 1.491 . S
C641 C640 1.400 . S
C641 C642 1.398 . S
C642 H630 0.950 . S
C642 C641 1.398 . S
C642 C643 1.391 . S
C643 H631 0.950 . S
C643 C639 1.393 . S
C643 C642 1.391 . S
H644 C652 0.950 . S
H645 C657 0.950 . S
H646 C654 0.950 . S
H647 C656 0.950 . S
H648 C658 0.950 . S
H649 C660 0.950 . S
H650 C662 0.950 . S
H651 C663 0.950 . S
C652 H644 0.950 . S
C652 C653 1.386 . S
C652 C654 1.391 . S
C653 C652 1.386 . S
C653 C657 1.393 . S
C654 H646 0.950 . S
C654 C652 1.391 . S
C654 C655 1.400 . S
C655 C654 1.400 . S
C655 C656 1.398 . S
C655 C661 1.491 . S
C656 H647 0.950 . S
C656 C655 1.398 . S
C656 C657 1.391 . S
C657 H645 0.950 . S
C657 C653 1.393 . S
C657 C656 1.391 . S
C658 H648 0.950 . S
C658 C659 1.386 . S
C658 C660 1.391 . S
C659 C658 1.386 . S
C659 C663 1.393 . S
C660 H649 0.950 . S
C660 C658 1.391 . S
C660 C661 1.400 . S
C661 C655 1.491 . S
C661 C660 1.400 . S
C661 C662 1.398 . S
C662 H650 0.950 . S
C662 C661 1.398 . S
C662 C663 1.391 . S
C663 H651 0.950 . S
C663 C659 1.393 . S
C663 C662 1.391 . S
C193 C82 1.585 . S
C199 C112 1.703 . S
C219 C142 1.803 . S
C213 C95 1.668 . S
C239 C152 1.521 . S
C233 C56 1.342 . S
C259 C172 1.392 . S
C253 C69 1.247 1_655 S
C279 C113 1.703 . S
C273 C30 1.535 . S
C293 C43 1.615 . S
C299 C143 1.804 . S
C313 C4 1.336 . S
C319 C153 1.523 . S
C333 C17 1.261 1_655 S
C339 C173 1.379 . S
C359 C105 0.863 . S
C353 C74 0.830 . S
C379 C126 0.578 . S
C373 C87 0.618 . S
C399 C145 1.003 . S
C393 C100 1.015 . S
C413 C61 0.760 . S
C419 C165 0.737 . S
C433 C22 0.834 1_655 S
C439 C106 0.859 . S
C459 C125 0.565 1_565 S
C453 C35 0.636 . S
C479 C146 1.001 . S
C473 C48 1.013 . S
C493 C9 0.755 1_556 S
C499 C166 0.753 . S
C513 C73 1.522 . S
C519 C123 1.581 . S
C533 C86 1.381 1_556 S
C539 C133 1.484 . S
C559 C163 1.783 . S
C553 C99 1.696 . S
C579 C183 1.784 . S
C573 C60 1.678 . S
C593 C21 1.512 1_655 S
C599 C122 1.580 . S
C619 C132 1.482 . S
C613 C34 1.368 . S
C639 C162 1.788 . S
C633 C47 1.671 . S
C653 C8 1.696 . S
C659 C182 1.783 . S
