# Generated by pormake.
# Topology anh, (6,3)-cn, num edge types: 1
# Building blocks:
#     Node 0, Type 0, BuildingBlock: BETDEL_clean_sbu_0, # of connection points: 6
#     Node 1, Type 0, BuildingBlock: BETDEL_clean_sbu_0, # of connection points: 6
#     Node 2, Type 0, BuildingBlock: BETDEL_clean_sbu_0, # of connection points: 6
#     Node 3, Type 1, BuildingBlock: BELTOD_clean_linker_0, # of connection points: 3
#     Node 4, Type 1, BuildingBlock: BELTOD_clean_linker_0, # of connection points: 3
#     Node 5, Type 1, BuildingBlock: BELTOD_clean_linker_0, # of connection points: 3
#     Node 6, Type 1, BuildingBlock: BELTOD_clean_linker_0, # of connection points: 3
#     Node 7, Type 1, BuildingBlock: BELTOD_clean_linker_0, # of connection points: 3
#     Node 8, Type 1, BuildingBlock: BELTOD_clean_linker_0, # of connection points: 3
#     Edge 9, Type (0, 1), BuildingBlock: OJICUG_clean_linker_0, # of connection points: 2
#     Edge 10, Type (0, 1), BuildingBlock: OJICUG_clean_linker_0, # of connection points: 2
#     Edge 11, Type (0, 1), BuildingBlock: OJICUG_clean_linker_0, # of connection points: 2
#     Edge 12, Type (0, 1), BuildingBlock: OJICUG_clean_linker_0, # of connection points: 2
#     Edge 13, Type (0, 1), BuildingBlock: OJICUG_clean_linker_0, # of connection points: 2
#     Edge 14, Type (0, 1), BuildingBlock: OJICUG_clean_linker_0, # of connection points: 2
#     Edge 15, Type (0, 1), BuildingBlock: OJICUG_clean_linker_0, # of connection points: 2
#     Edge 16, Type (0, 1), BuildingBlock: OJICUG_clean_linker_0, # of connection points: 2
#     Edge 17, Type (0, 1), BuildingBlock: OJICUG_clean_linker_0, # of connection points: 2
#     Edge 18, Type (0, 1), BuildingBlock: OJICUG_clean_linker_0, # of connection points: 2
#     Edge 19, Type (0, 1), BuildingBlock: OJICUG_clean_linker_0, # of connection points: 2
#     Edge 20, Type (0, 1), BuildingBlock: OJICUG_clean_linker_0, # of connection points: 2
#     Edge 21, Type (0, 1), BuildingBlock: OJICUG_clean_linker_0, # of connection points: 2
#     Edge 22, Type (0, 1), BuildingBlock: OJICUG_clean_linker_0, # of connection points: 2
#     Edge 23, Type (0, 1), BuildingBlock: OJICUG_clean_linker_0, # of connection points: 2
#     Edge 24, Type (0, 1), BuildingBlock: OJICUG_clean_linker_0, # of connection points: 2
#     Edge 25, Type (0, 1), BuildingBlock: OJICUG_clean_linker_0, # of connection points: 2
#     Edge 26, Type (0, 1), BuildingBlock: OJICUG_clean_linker_0, # of connection points: 2
# Relax obj value: 0.141
# Max RMSD: 0.161
# Mean RMSD: 0.129
data_MOF--net-anh--node1-BETDEL_clean_sbu_0--node2-BELTOD_clean_linker_0--edge1-OJICUG_clean_linker_0
_symmetry_space_group_name_H-M    P1
_symmetry_Int_Tables_number       1
_symmetry_cell_setting            triclinic
loop_
_symmetry_equiv_pos_as_xyz
'x, y, z'
_cell_length_a     25.972843
_cell_length_b     26.002589
_cell_length_c     44.480656
_cell_angle_alpha  90.306478
_cell_angle_beta   89.983144
_cell_angle_gamma 119.82504
loop_
_atom_site_label
_atom_site_type_symbol
_atom_site_fract_x
_atom_site_fract_y
_atom_site_fract_z
_atom_type_partial_charge
Dy0 Dy 0.07387 0.48648 0.1658 0.0
C1 C 0.91269 0.5614 0.18625 0.0
C2 C 0.16939 0.47226 0.16301 0.0
Dy3 Dy 1.00161 0.54493 0.16621 0.0
O4 O 0.13519 0.45963 0.18615 0.0
O5 O 0.14776 0.48641 0.14029 0.0
O6 O 0.03391 0.44646 0.20981 0.0
O7 O 0.05408 0.53383 0.2005 0.0
C8 C 0.03229 0.49267 0.21955 0.0
C9 C 0.01502 0.527 0.10791 0.0
O10 O 0.08967 0.6286 0.17439 0.0
O11 O 0.1453 0.58332 0.16456 0.0
O12 O 0.95264 0.59571 0.16691 0.0
O13 O 0.92505 0.52195 0.19605 0.0
O14 O 0.98621 0.55258 0.11749 0.0
O15 O 0.03595 0.51265 0.12988 0.0
O16 O 0.98779 0.40399 0.15384 0.0
O17 O 0.934 0.44678 0.17116 0.0
C18 C 0.14177 0.63156 0.17012 0.0
C19 C 0.93653 0.39934 0.1622 0.0
Dy20 Dy 0.43971 1.00051 0.50066 0.0
C21 C 0.68887 0.16672 0.51361 0.0
C22 C 0.32677 0.91593 0.4914 0.0
Dy23 Dy 0.58082 0.07745 0.49884 0.0
O24 O 0.34696 0.94489 0.51633 0.0
O25 O 0.36728 0.93708 0.47063 0.0
O26 O 0.42957 0.99339 0.55123 0.0
O27 O 0.51216 0.03847 0.53168 0.0
C28 C 0.48598 0.02341 0.55656 0.0
C29 C 0.53745 0.05222 0.44233 0.0
O30 O 0.57132 0.98809 0.50856 0.0
O31 O 0.46971 0.93184 0.49746 0.0
O32 O 0.67796 0.13114 0.49085 0.0
O33 O 0.64163 0.1497 0.52948 0.0
O34 O 0.59345 0.08282 0.44879 0.0
O35 O 0.50843 0.03743 0.46664 0.0
O36 O 0.44865 0.09122 0.49561 0.0
O37 O 0.55194 0.14645 0.501 0.0
C38 C 0.52204 0.9363 0.50372 0.0
C39 C 0.49919 0.1427 0.49845 0.0
Dy40 Dy 0.58784 0.61698 0.83367 0.0
C41 C 0.50624 0.37948 0.85003 0.0
C42 C 0.60292 0.7266 0.83129 0.0
Dy43 Dy 0.52989 0.48847 0.83253 0.0
O44 O 0.59822 0.6983 0.85581 0.0
O45 O 0.60516 0.69741 0.80802 0.0
O46 O 0.62914 0.61565 0.87754 0.0
O47 O 0.54082 0.55046 0.86778 0.0
C48 C 0.58197 0.56881 0.88694 0.0
C49 C 0.54292 0.51865 0.77432 0.0
O50 O 0.44652 0.49264 0.84107 0.0
O51 O 0.49131 0.5925 0.83046 0.0
O52 O 0.47371 0.39018 0.83167 0.0
O53 O 0.54882 0.429 0.86061 0.0
O54 O 0.51805 0.46473 0.78398 0.0
O55 O 0.55945 0.55483 0.7962 0.0
O56 O 0.67121 0.61464 0.8231 0.0
O57 O 0.62767 0.5159 0.83561 0.0
C58 C 0.44329 0.54123 0.83629 0.0
C59 C 0.6756 0.567 0.82896 0.0
P60 P 0.56605 0.98478 0.21519 0.0
H61 H 0.52169 0.88863 0.16967 0.0
H62 H 0.42136 0.80855 0.1576 0.0
H63 H 0.34792 0.89496 0.21133 0.0
H64 H 0.44815 0.97511 0.22306 0.0
H65 H 0.69473 0.04067 0.21736 0.0
H66 H 0.77704 0.13659 0.20266 0.0
H67 H 0.65396 0.1847 0.16536 0.0
H68 H 0.56995 0.08714 0.18059 0.0
H69 H 0.5321 0.90779 0.26786 0.0
H70 H 0.56396 0.08284 0.24768 0.0
O71 O 0.59593 0.94089 0.21651 0.0
H72 H 0.51255 0.91999 0.31999 0.0
H73 H 0.53969 0.0944 0.29896 0.0
C74 C 0.49338 0.93874 0.19732 0.0
C75 C 0.48414 0.89167 0.17806 0.0
C76 C 0.42635 0.84531 0.17132 0.0
C77 C 0.37595 0.84431 0.18388 0.0
C78 C 0.38535 0.89333 0.20166 0.0
C79 C 0.44305 0.93994 0.20808 0.0
C80 C 0.62532 0.05518 0.19967 0.0
C81 C 0.68469 0.07091 0.20554 0.0
C82 C 0.73224 0.12629 0.19721 0.0
C83 C 0.72258 0.16848 0.18261 0.0
C84 C 0.66319 0.15297 0.17622 0.0
C85 C 0.61501 0.09708 0.1849 0.0
C86 C 0.55169 0.99524 0.25404 0.0
C87 C 0.53498 0.94915 0.27476 0.0
C88 C 0.52258 0.95598 0.30475 0.0
C89 C 0.52495 0.00877 0.31481 0.0
C90 C 0.53924 0.05377 0.29322 0.0
C91 C 0.5529 0.04725 0.26342 0.0
P92 P 0.58257 0.57335 0.542 0.0
H93 H 0.61752 0.52114 0.49252 0.0
H94 H 0.59375 0.41957 0.48121 0.0
H95 H 0.45601 0.35481 0.5484 0.0
H96 H 0.48084 0.4569 0.55995 0.0
H97 H 0.65449 0.70078 0.53628 0.0
H98 H 0.63386 0.78023 0.52515 0.0
H99 H 0.4511 0.65183 0.50687 0.0
H100 H 0.47192 0.57063 0.51844 0.0
H101 H 0.63454 0.53552 0.58826 0.0
H102 H 0.51334 0.60356 0.58518 0.0
O103 O 0.6554 0.60283 0.53628 0.0
H104 H 0.62655 0.52977 0.64292 0.0
H105 H 0.50512 0.59771 0.64036 0.0
C106 C 0.55083 0.49755 0.52702 0.0
C107 C 0.58092 0.48516 0.50427 0.0
C108 C 0.56737 0.42654 0.49786 0.0
C109 C 0.52315 0.3781 0.51401 0.0
C110 C 0.49101 0.39052 0.53573 0.0
C111 C 0.50458 0.44922 0.54209 0.0
C112 C 0.56525 0.62897 0.52755 0.0
C113 C 0.61007 0.68887 0.52914 0.0
C114 C 0.59827 0.73475 0.52294 0.0
C115 C 0.54109 0.72259 0.51499 0.0
C116 C 0.49589 0.66263 0.51265 0.0
C117 C 0.50777 0.61615 0.51913 0.0
C118 C 0.57475 0.57001 0.58252 0.0
C119 C 0.60634 0.54946 0.59935 0.0
C120 C 0.60179 0.54628 0.63063 0.0
C121 C 0.56529 0.56338 0.64595 0.0
C122 C 0.53411 0.58488 0.62918 0.0
C123 C 0.53849 0.58779 0.59762 0.0
P124 P 0.09186 0.61115 0.88168 0.0
H125 H 0.18604 0.66214 0.83581 0.0
H126 H 0.26593 0.6412 0.82317 0.0
H127 H 0.1813 0.48286 0.87672 0.0
H128 H 0.10064 0.50269 0.88864 0.0
H129 H 0.03745 0.68517 0.88433 0.0
H130 H 0.94256 0.67339 0.8694 0.0
H131 H 0.89271 0.50184 0.83113 0.0
H132 H 0.9894 0.51405 0.84686 0.0
H133 H 0.16934 0.64573 0.93445 0.0
H134 H 0.98912 0.51463 0.91261 0.0
O135 O 0.1366 0.68441 0.88439 0.0
H136 H 0.15263 0.61371 0.98694 0.0
H137 H 0.97239 0.48132 0.96473 0.0
C138 C 0.13669 0.58403 0.8632 0.0
C139 C 0.18315 0.62157 0.84389 0.0
C140 C 0.22927 0.60989 0.83685 0.0
C141 C 0.23028 0.56071 0.84925 0.0
C142 C 0.182 0.52132 0.86704 0.0
C143 C 0.13545 0.53246 0.87363 0.0
C144 C 0.02214 0.60144 0.866 0.0
C145 C 0.00702 0.64538 0.8721 0.0
C146 C 0.95207 0.63857 0.86342 0.0
C147 C 0.90929 0.58705 0.84846 0.0
C148 C 0.92411 0.54235 0.84252 0.0
C149 C 0.97983 0.54944 0.85123 0.0
C150 C 0.07975 0.58418 0.91988 0.0
C151 C 0.12616 0.6099 0.94096 0.0
C152 C 0.1168 0.59093 0.97091 0.0
C153 C 0.06082 0.54548 0.98028 0.0
C154 C 0.01564 0.51739 0.95852 0.0
C155 C 0.02504 0.53651 0.92864 0.0
P156 P 0.05479 0.48746 0.44497 0.0
H157 H 0.1457 0.53621 0.49231 0.0
H158 H 0.2046 0.6383 0.51199 0.0
H159 H 0.0995 0.69045 0.45854 0.0
H160 H 0.04521 0.59185 0.43735 0.0
H161 H 0.98871 0.3655 0.46394 0.0
H162 H 0.8935 0.30908 0.4892 0.0
H163 H 0.8741 0.46443 0.49326 0.0
H164 H 0.96949 0.52135 0.46825 0.0
H165 H 0.13699 0.54276 0.39599 0.0
H166 H 0.94796 0.46154 0.40988 0.0
O167 O 0.09424 0.45285 0.44684 0.0
H168 H 0.12327 0.55819 0.34291 0.0
H169 H 0.93441 0.47653 0.35688 0.0
C170 C 0.09332 0.55789 0.46254 0.0
C171 C 0.13567 0.56995 0.48502 0.0
C172 C 0.16807 0.62736 0.4967 0.0
C173 C 0.15636 0.67133 0.48625 0.0
C174 C 0.10914 0.65681 0.46654 0.0
C175 C 0.07883 0.60083 0.45417 0.0
C176 C 0.9868 0.44769 0.46481 0.0
C177 C 0.96492 0.3879 0.47088 0.0
C178 C 0.91111 0.35607 0.48547 0.0
C179 C 0.87855 0.3837 0.49376 0.0
C180 C 0.89997 0.44342 0.48771 0.0
C181 C 0.95432 0.47553 0.47333 0.0
C182 C 0.04341 0.49932 0.4065 0.0
C183 C 0.09272 0.52872 0.38766 0.0
C184 C 0.08506 0.5386 0.35765 0.0
C185 C 0.0279 0.51899 0.34625 0.0
C186 C 0.97886 0.49244 0.3655 0.0
C187 C 0.9866 0.48302 0.39559 0.0
P188 P 0.65568 0.10832 0.77419 0.0
H189 H 0.70438 0.20055 0.82075 0.0
H190 H 0.66409 0.25871 0.84454 0.0
H191 H 0.50059 0.15648 0.79487 0.0
H192 H 0.54182 0.10181 0.77018 0.0
H193 H 0.71625 0.04557 0.79208 0.0
H194 H 0.68047 0.94836 0.81438 0.0
H195 H 0.50499 0.92594 0.82289 0.0
H196 H 0.54088 0.02414 0.80115 0.0
H197 H 0.6665 0.18494 0.72482 0.0
H198 H 0.58063 0.99674 0.7408 0.0
O199 O 0.72962 0.14772 0.77332 0.0
H200 H 0.62516 0.16602 0.6741 0.0
H201 H 0.54096 0.97725 0.68994 0.0
C202 C 0.62681 0.14906 0.79288 0.0
C203 C 0.66006 0.1913 0.81496 0.0
C204 C 0.63676 0.22353 0.82888 0.0
C205 C 0.57977 0.21247 0.821 0.0
C206 C 0.54517 0.1666 0.80074 0.0
C207 C 0.56882 0.13569 0.78649 0.0
C208 C 0.63151 0.0422 0.79521 0.0
C209 C 0.67069 0.02092 0.79966 0.0
C210 C 0.65041 0.96583 0.81253 0.0
C211 C 0.59056 0.93121 0.82049 0.0
C212 C 0.55153 0.95304 0.81727 0.0
C213 C 0.57216 0.00886 0.80474 0.0
C214 C 0.62725 0.09245 0.73643 0.0
C215 C 0.63933 0.13953 0.71722 0.0
C216 C 0.6158 0.12854 0.68818 0.0
C217 C 0.58005 0.07004 0.6777 0.0
C218 C 0.56775 0.02288 0.69725 0.0
C219 C 0.591 0.034 0.72638 0.0
P220 P 0.49736 0.42282 0.10617 0.0
H221 H 0.5328 0.38367 0.15895 0.0
H222 H 0.62721 0.42307 0.18544 0.0
H223 H 0.70837 0.56435 0.12016 0.0
H224 H 0.61323 0.52677 0.09528 0.0
H225 H 0.37247 0.36577 0.11918 0.0
H226 H 0.31199 0.39954 0.14488 0.0
H227 H 0.46767 0.5687 0.16331 0.0
H228 H 0.52923 0.53409 0.13794 0.0
H229 H 0.5358 0.38741 0.05316 0.0
H230 H 0.48653 0.5184 0.07661 0.0
O231 O 0.46283 0.34889 0.1058 0.0
H232 H 0.55896 0.42648 0.00217 0.0
H233 H 0.51046 0.5583 0.02572 0.0
C234 C 0.56704 0.45103 0.1246 0.0
C235 C 0.57117 0.42309 0.15046 0.0
C236 C 0.62512 0.44575 0.16553 0.0
C237 C 0.67576 0.49648 0.1547 0.0
C238 C 0.67041 0.52558 0.12936 0.0
C239 C 0.61621 0.50335 0.11464 0.0
C240 C 0.45505 0.44697 0.12724 0.0
C241 C 0.39398 0.4094 0.12946 0.0
C242 C 0.35972 0.42851 0.14431 0.0
C243 C 0.38606 0.48578 0.15668 0.0
C244 C 0.4473 0.52383 0.15456 0.0
C245 C 0.48198 0.50415 0.14 0.0
C246 C 0.50834 0.44913 0.06834 0.0
C247 C 0.52947 0.42423 0.0472 0.0
C248 C 0.54341 0.44709 0.01825 0.0
C249 C 0.53672 0.49554 0.01007 0.0
C250 C 0.51548 0.52055 0.03138 0.0
C251 C 0.50166 0.49765 0.06044 0.0
C252 C 0.27238 0.52469 0.14419 0.0
C253 C 0.23099 0.48682 0.16532 0.0
H254 H 0.35989 0.55892 0.1267 0.0
C255 C 0.24972 0.4661 0.18962 0.0
H256 H 0.25934 0.54371 0.12615 0.0
C257 C 0.30743 0.47592 0.19028 0.0
C258 C 0.34614 0.5064 0.16661 0.0
H259 H 0.21882 0.43897 0.20689 0.0
H260 H 0.31934 0.45344 0.20699 0.0
C261 C 0.33027 0.53517 0.14509 0.0
C262 C 0.76619 0.26068 0.53604 0.0
C263 C 0.7311 0.22916 0.51143 0.0
H264 H 0.84314 0.34114 0.54985 0.0
C265 C 0.73313 0.25852 0.48474 0.0
H266 H 0.76245 0.23881 0.55725 0.0
C267 C 0.7762 0.31735 0.48119 0.0
C268 C 0.81842 0.34566 0.50391 0.0
H269 H 0.7035 0.23516 0.46613 0.0
H270 H 0.78184 0.33755 0.45927 0.0
C271 C 0.81058 0.31927 0.53218 0.0
C272 C 0.58971 0.80456 0.85606 0.0
C273 C 0.58911 0.7741 0.82981 0.0
H274 H 0.58751 0.88017 0.8738 0.0
C275 C 0.57115 0.78652 0.80245 0.0
H276 H 0.60103 0.79364 0.87764 0.0
C277 C 0.56033 0.8335 0.80069 0.0
C278 C 0.5692 0.86908 0.82607 0.0
H279 H 0.56786 0.76164 0.78223 0.0
H280 H 0.55216 0.84635 0.77884 0.0
C281 C 0.58029 0.85259 0.85414 0.0
C282 C 0.83766 0.59212 0.17602 0.0
C283 C 0.85131 0.54875 0.18491 0.0
H284 H 0.77003 0.61008 0.16104 0.0
C285 C 0.806 0.48936 0.18681 0.0
H286 H 0.87225 0.63802 0.17407 0.0
C287 C 0.74863 0.47289 0.178 0.0
C288 C 0.73482 0.51571 0.16798 0.0
H289 H 0.81559 0.45463 0.19281 0.0
H290 H 0.71616 0.42606 0.1774 0.0
C291 C 0.77946 0.57584 0.16812 0.0
C292 C 0.26328 0.82524 0.4631 0.0
C293 C 0.27808 0.85526 0.4906 0.0
H294 H 0.21438 0.74222 0.44074 0.0
C295 C 0.25433 0.82402 0.51754 0.0
H296 H 0.28253 0.84817 0.44226 0.0
C297 C 0.21551 0.76298 0.51671 0.0
C298 C 0.20045 0.73368 0.48897 0.0
H299 H 0.26711 0.84631 0.53916 0.0
H300 H 0.19698 0.73901 0.5374 0.0
C301 C 0.22506 0.76483 0.46231 0.0
C302 C 0.54083 0.31077 0.86728 0.0
C303 C 0.51642 0.32999 0.84483 0.0
H304 H 0.57964 0.25657 0.87742 0.0
C305 C 0.51408 0.31125 0.81505 0.0
H306 H 0.54502 0.32685 0.89017 0.0
C307 C 0.53572 0.2739 0.80768 0.0
C308 C 0.55869 0.2531 0.83002 0.0
H309 H 0.49867 0.32817 0.79703 0.0
H310 H 0.53552 0.26213 0.78424 0.0
C311 C 0.56142 0.27176 0.85995 0.0
C312 C 0.52303 0.84756 0.48054 0.0
C313 C 0.52451 0.88022 0.50624 0.0
H314 H 0.52689 0.7719 0.46303 0.0
C315 C 0.52709 0.85809 0.53461 0.0
H316 H 0.52088 0.86342 0.45836 0.0
C317 C 0.52962 0.80548 0.53727 0.0
C318 C 0.52957 0.77341 0.51165 0.0
H319 H 0.52743 0.88174 0.5548 0.0
H320 H 0.53283 0.79033 0.55946 0.0
C321 C 0.5259 0.79491 0.4832 0.0
C322 C 0.74065 0.52092 0.83804 0.0
C323 C 0.73556 0.57111 0.8309 0.0
H324 H 0.7979 0.48605 0.84911 0.0
C325 C 0.78847 0.6255 0.82746 0.0
H326 H 0.70123 0.47804 0.84086 0.0
C327 C 0.84426 0.62999 0.83205 0.0
C328 C 0.84945 0.58034 0.84038 0.0
H329 H 0.78689 0.66515 0.82182 0.0
H330 H 0.88356 0.67296 0.82934 0.0
C331 C 0.79651 0.52541 0.84264 0.0
C332 C 0.21792 0.71806 0.2009 0.0
C333 C 0.19885 0.68911 0.17295 0.0
H334 H 0.2884 0.7883 0.22638 0.0
C335 C 0.23822 0.71177 0.14849 0.0
H336 H 0.18959 0.70058 0.22043 0.0
C337 C 0.29494 0.7623 0.15179 0.0
C338 C 0.31439 0.7914 0.1798 0.0
H339 H 0.22521 0.69 0.12675 0.0
H340 H 0.32367 0.77855 0.13236 0.0
C341 C 0.27479 0.76835 0.20428 0.0
C342 C 0.50927 0.23716 0.47675 0.0
C343 C 0.49808 0.19952 0.50147 0.0
H344 H 0.52492 0.32185 0.46099 0.0
C345 C 0.49432 0.22055 0.53011 0.0
H346 H 0.51377 0.22284 0.45448 0.0
C347 C 0.50125 0.2775 0.534 0.0
C348 C 0.51275 0.31574 0.50937 0.0
H349 H 0.48767 0.19345 0.54973 0.0
H350 H 0.49953 0.29228 0.55659 0.0
C351 C 0.51634 0.29432 0.48061 0.0
C352 C 0.35219 0.53772 0.81428 0.0
C353 C 0.386 0.54072 0.83962 0.0
H354 H 0.27641 0.54164 0.79738 0.0
C355 C 0.36813 0.55006 0.86799 0.0
H356 H 0.36553 0.53153 0.7921 0.0
C357 C 0.31724 0.55568 0.87102 0.0
C358 C 0.2834 0.55293 0.84571 0.0
H359 H 0.39428 0.55423 0.88778 0.0
H360 H 0.30502 0.56358 0.89314 0.0
C361 C 0.30149 0.54389 0.81727 0.0
C362 C 0.859 0.32151 0.1956 0.0
C363 C 0.882 0.33968 0.16648 0.0
H364 H 0.79173 0.25389 0.22334 0.0
C365 C 0.85008 0.30222 0.14219 0.0
H366 H 0.88193 0.34943 0.2148 0.0
C367 C 0.79692 0.24786 0.14707 0.0
C368 C 0.77491 0.22916 0.17638 0.0
H369 H 0.86584 0.31525 0.11943 0.0
H370 H 0.77375 0.21982 0.12797 0.0
C371 C 0.80695 0.26689 0.2005 0.0
C372 C 0.98241 0.51918 0.05511 0.0
C373 C 0.0246 0.52149 0.07554 0.0
H374 H 0.96068 0.52499 0.00957 0.0
C375 C 0.07737 0.52604 0.06442 0.0
H376 H 0.94135 0.51568 0.06307 0.0
C377 C 0.08891 0.53183 0.0333 0.0
C378 C 0.04735 0.53211 0.01292 0.0
H379 H 0.11085 0.52831 0.07976 0.0
H380 H 0.13076 0.53743 0.02528 0.0
C381 C 0.99343 0.52417 0.02431 0.0
C382 C 0.54152 0.08617 0.39052 0.0
C383 C 0.51647 0.03895 0.4108 0.0
H384 H 0.56595 0.11491 0.34574 0.0
C385 C 0.48738 0.98086 0.39931 0.0
H386 H 0.56522 0.13144 0.39882 0.0
C387 C 0.48677 0.97065 0.36808 0.0
C388 C 0.51633 0.01834 0.34769 0.0
H389 H 0.4689 0.94347 0.41449 0.0
H390 H 0.46489 0.92517 0.36029 0.0
C391 C 0.54179 0.07627 0.35966 0.0
C392 C 0.53886 0.48779 0.7212 0.0
C393 C 0.54852 0.53288 0.74179 0.0
H394 H 0.53602 0.46215 0.67529 0.0
C395 C 0.56135 0.58861 0.73065 0.0
H396 H 0.52847 0.44424 0.72894 0.0
C397 C 0.56499 0.59872 0.69937 0.0
C398 C 0.55692 0.55355 0.67899 0.0
H399 H 0.56827 0.62399 0.74599 0.0
H400 H 0.57552 0.64201 0.69117 0.0
C401 C 0.54322 0.49801 0.69037 0.0
C402 C 0.47777 0.99881 0.61072 0.0
C403 C 0.51179 0.03538 0.58703 0.0
H404 H 0.47175 0.98139 0.65783 0.0
C405 C 0.56786 0.08376 0.5933 0.0
H406 H 0.43393 0.96135 0.60657 0.0
C407 C 0.59011 0.09506 0.62265 0.0
C408 C 0.5563 0.05829 0.64646 0.0
H409 H 0.59395 0.1137 0.57584 0.0
H410 H 0.63405 0.13242 0.62656 0.0
C411 C 0.49968 0.01007 0.64009 0.0
C412 C 0.61271 0.54306 0.93465 0.0
C413 C 0.57181 0.55242 0.91861 0.0
H414 H 0.63346 0.51741 0.97655 0.0
C415 C 0.5212 0.54659 0.93304 0.0
H416 H 0.65214 0.54774 0.92376 0.0
C417 C 0.51096 0.5304 0.96321 0.0
C418 C 0.55058 0.51854 0.9791 0.0
H419 H 0.48969 0.5547 0.92098 0.0
H420 H 0.4711 0.52524 0.97379 0.0
C421 C 0.6019 0.52565 0.96467 0.0
C422 C 0.99775 0.45029 0.26995 0.0
C423 C 0.02183 0.50012 0.25127 0.0
H424 H 0.98035 0.41808 0.31499 0.0
C425 C 0.04087 0.55652 0.26382 0.0
H426 H 0.98261 0.40635 0.26079 0.0
C427 C 0.04007 0.56322 0.29505 0.0
C428 C 0.01885 0.51335 0.31364 0.0
H429 H 0.05934 0.59553 0.24974 0.0
H430 H 0.058 0.60717 0.30473 0.0
C431 C 0.99609 0.45686 0.30086 0.0
loop_
_geom_bond_atom_site_label_1
_geom_bond_atom_site_label_2
_geom_bond_distance
_geom_bond_site_symmetry_2
_ccdc_geom_bond_type
Dy0 O4 2.398 . S
Dy0 O5 2.491 . S
Dy0 O6 2.403 . S
Dy0 O7 2.664 . S
Dy0 O11 2.326 . S
Dy0 O15 2.310 . S
Dy0 O16 2.351 1_455 S
C1 O12 1.185 . S
C1 O13 1.355 . S
C2 O4 1.185 . S
C2 O5 1.355 . S
Dy3 O7 2.310 1_655 S
Dy3 O10 2.351 1_655 S
Dy3 O12 2.398 . S
Dy3 O13 2.491 . S
Dy3 O14 2.403 . S
Dy3 O15 2.664 1_655 S
Dy3 O17 2.326 . S
O4 Dy0 2.398 . S
O4 C2 1.185 . S
O5 Dy0 2.491 . S
O5 C2 1.355 . S
O6 Dy0 2.403 . S
O6 C8 1.254 . S
O7 Dy0 2.664 . S
O7 Dy3 2.310 1_455 S
O7 C8 1.268 . S
C8 O6 1.254 . S
C8 O7 1.268 . S
C9 O14 1.254 1_455 S
C9 O15 1.268 . S
O10 Dy3 2.351 1_455 S
O10 C18 1.249 . S
O11 Dy0 2.326 . S
O11 C18 1.267 . S
O12 C1 1.185 . S
O12 Dy3 2.398 . S
O13 C1 1.355 . S
O13 Dy3 2.491 . S
O14 Dy3 2.403 . S
O14 C9 1.254 1_655 S
O15 Dy0 2.310 . S
O15 Dy3 2.664 1_455 S
O15 C9 1.268 . S
O16 Dy0 2.351 1_655 S
O16 C19 1.249 . S
O17 Dy3 2.326 . S
O17 C19 1.267 . S
C18 O10 1.249 . S
C18 O11 1.267 . S
C19 O16 1.249 . S
C19 O17 1.267 . S
Dy20 O24 2.398 . S
Dy20 O25 2.491 . S
Dy20 O26 2.403 . S
Dy20 O27 2.664 1_565 S
Dy20 O31 2.326 . S
Dy20 O35 2.310 1_565 S
Dy20 O36 2.351 1_565 S
C21 O32 1.185 . S
C21 O33 1.355 . S
C22 O24 1.185 . S
C22 O25 1.355 . S
Dy23 O27 2.310 . S
Dy23 O30 2.351 1_545 S
Dy23 O32 2.398 . S
Dy23 O33 2.491 . S
Dy23 O34 2.403 . S
Dy23 O35 2.664 . S
Dy23 O37 2.326 . S
O24 Dy20 2.398 . S
O24 C22 1.185 . S
O25 Dy20 2.491 . S
O25 C22 1.355 . S
O26 Dy20 2.403 . S
O26 C28 1.254 1_565 S
O27 Dy20 2.664 1_545 S
O27 Dy23 2.310 . S
O27 C28 1.268 . S
C28 O26 1.254 1_545 S
C28 O27 1.268 . S
C29 O34 1.254 . S
C29 O35 1.268 . S
O30 Dy23 2.351 1_565 S
O30 C38 1.249 . S
O31 Dy20 2.326 . S
O31 C38 1.267 . S
O32 C21 1.185 . S
O32 Dy23 2.398 . S
O33 C21 1.355 . S
O33 Dy23 2.491 . S
O34 Dy23 2.403 . S
O34 C29 1.254 . S
O35 Dy20 2.310 1_545 S
O35 Dy23 2.664 . S
O35 C29 1.268 . S
O36 Dy20 2.351 1_545 S
O36 C39 1.249 . S
O37 Dy23 2.326 . S
O37 C39 1.267 . S
C38 O30 1.249 . S
C38 O31 1.267 . S
C39 O36 1.249 . S
C39 O37 1.267 . S
Dy40 O44 2.398 . S
Dy40 O45 2.491 . S
Dy40 O46 2.403 . S
Dy40 O47 2.664 . S
Dy40 O51 2.326 . S
Dy40 O55 2.310 . S
Dy40 O56 2.351 . S
C41 O52 1.185 . S
C41 O53 1.355 . S
C42 O44 1.185 . S
C42 O45 1.355 . S
Dy43 O47 2.310 . S
Dy43 O50 2.351 . S
Dy43 O52 2.398 . S
Dy43 O53 2.491 . S
Dy43 O54 2.403 . S
Dy43 O55 2.664 . S
Dy43 O57 2.326 . S
O44 Dy40 2.398 . S
O44 C42 1.185 . S
O45 Dy40 2.491 . S
O45 C42 1.355 . S
O46 Dy40 2.403 . S
O46 C48 1.254 . S
O47 Dy40 2.664 . S
O47 Dy43 2.310 . S
O47 C48 1.268 . S
C48 O46 1.254 . S
C48 O47 1.268 . S
C49 O54 1.254 . S
C49 O55 1.268 . S
O50 Dy43 2.351 . S
O50 C58 1.249 . S
O51 Dy40 2.326 . S
O51 C58 1.267 . S
O52 C41 1.185 . S
O52 Dy43 2.398 . S
O53 C41 1.355 . S
O53 Dy43 2.491 . S
O54 Dy43 2.403 . S
O54 C49 1.254 . S
O55 Dy40 2.310 . S
O55 Dy43 2.664 . S
O55 C49 1.268 . S
O56 Dy40 2.351 . S
O56 C59 1.249 . S
O57 Dy43 2.326 . S
O57 C59 1.267 . S
C58 O50 1.249 . S
C58 O51 1.267 . S
C59 O56 1.249 . S
C59 O57 1.267 . S
P60 O71 1.490 . S
P60 C74 1.812 . S
P60 C80 1.803 1_565 S
P60 C86 1.819 . S
H61 C75 0.941 . S
H62 C76 0.939 . S
H63 C78 0.940 . S
H64 C79 0.940 . S
H65 C81 0.939 . S
H66 C82 0.942 . S
H67 C84 0.940 . S
H68 C85 0.939 . S
H69 C87 0.941 . S
H70 C91 0.939 . S
O71 P60 1.490 . S
H72 C88 0.939 . S
H73 C90 0.940 . S
C74 P60 1.812 . S
C74 C75 1.389 . S
C74 C79 1.391 . S
C75 H61 0.941 . S
C75 C74 1.389 . S
C75 C76 1.397 . S
C76 H62 0.939 . S
C76 C75 1.397 . S
C76 C77 1.378 . S
C77 C76 1.378 . S
C77 C78 1.378 . S
C78 H63 0.940 . S
C78 C77 1.378 . S
C78 C79 1.396 . S
C79 H64 0.940 . S
C79 C74 1.391 . S
C79 C78 1.396 . S
C80 P60 1.803 1_545 S
C80 C81 1.378 . S
C80 C85 1.400 . S
C81 H65 0.939 . S
C81 C80 1.378 . S
C81 C82 1.361 . S
C82 H66 0.942 . S
C82 C81 1.361 . S
C82 C83 1.369 . S
C83 C82 1.369 . S
C83 C84 1.404 . S
C84 H67 0.940 . S
C84 C83 1.404 . S
C84 C85 1.389 . S
C85 H68 0.939 . S
C85 C80 1.400 . S
C85 C84 1.389 . S
C86 P60 1.819 . S
C86 C87 1.391 . S
C86 C91 1.391 1_565 S
C87 H69 0.941 . S
C87 C86 1.391 . S
C87 C88 1.396 . S
C88 H72 0.939 . S
C88 C87 1.396 . S
C88 C89 1.397 1_565 S
C89 C88 1.397 1_545 S
C89 C90 1.385 . S
C90 H73 0.940 . S
C90 C89 1.385 . S
C90 C91 1.388 . S
C91 H70 0.939 . S
C91 C86 1.391 1_545 S
C91 C90 1.388 . S
P92 O103 1.490 . S
P92 C106 1.812 . S
P92 C112 1.803 . S
P92 C118 1.819 . S
H93 C107 0.941 . S
H94 C108 0.939 . S
H95 C110 0.940 . S
H96 C111 0.940 . S
H97 C113 0.939 . S
H98 C114 0.942 . S
H99 C116 0.940 . S
H100 C117 0.939 . S
H101 C119 0.941 . S
H102 C123 0.939 . S
O103 P92 1.490 . S
H104 C120 0.939 . S
H105 C122 0.940 . S
C106 P92 1.812 . S
C106 C107 1.389 . S
C106 C111 1.391 . S
C107 H93 0.941 . S
C107 C106 1.389 . S
C107 C108 1.397 . S
C108 H94 0.939 . S
C108 C107 1.397 . S
C108 C109 1.378 . S
C109 C108 1.378 . S
C109 C110 1.378 . S
C110 H95 0.940 . S
C110 C109 1.378 . S
C110 C111 1.396 . S
C111 H96 0.940 . S
C111 C106 1.391 . S
C111 C110 1.396 . S
C112 P92 1.803 . S
C112 C113 1.378 . S
C112 C117 1.400 . S
C113 H97 0.939 . S
C113 C112 1.378 . S
C113 C114 1.361 . S
C114 H98 0.942 . S
C114 C113 1.361 . S
C114 C115 1.369 . S
C115 C114 1.369 . S
C115 C116 1.404 . S
C116 H99 0.940 . S
C116 C115 1.404 . S
C116 C117 1.389 . S
C117 H100 0.939 . S
C117 C112 1.400 . S
C117 C116 1.389 . S
C118 P92 1.819 . S
C118 C119 1.391 . S
C118 C123 1.391 . S
C119 H101 0.941 . S
C119 C118 1.391 . S
C119 C120 1.396 . S
C120 H104 0.939 . S
C120 C119 1.396 . S
C120 C121 1.397 . S
C121 C120 1.397 . S
C121 C122 1.385 . S
C122 H105 0.940 . S
C122 C121 1.385 . S
C122 C123 1.388 . S
C123 H102 0.939 . S
C123 C118 1.391 . S
C123 C122 1.388 . S
P124 O135 1.490 . S
P124 C138 1.812 . S
P124 C144 1.803 . S
P124 C150 1.819 . S
H125 C139 0.941 . S
H126 C140 0.939 . S
H127 C142 0.940 . S
H128 C143 0.940 . S
H129 C145 0.939 1_455 S
H130 C146 0.942 . S
H131 C148 0.940 . S
H132 C149 0.939 1_455 S
H133 C151 0.941 . S
H134 C155 0.939 1_655 S
O135 P124 1.490 . S
H136 C152 0.939 . S
H137 C154 0.940 1_655 S
C138 P124 1.812 . S
C138 C139 1.389 . S
C138 C143 1.391 . S
C139 H125 0.941 . S
C139 C138 1.389 . S
C139 C140 1.397 . S
C140 H126 0.939 . S
C140 C139 1.397 . S
C140 C141 1.378 . S
C141 C140 1.378 . S
C141 C142 1.378 . S
C142 H127 0.940 . S
C142 C141 1.378 . S
C142 C143 1.396 . S
C143 H128 0.940 . S
C143 C138 1.391 . S
C143 C142 1.396 . S
C144 P124 1.803 . S
C144 C145 1.378 1_455 S
C144 C149 1.400 1_455 S
C145 H129 0.939 1_655 S
C145 C144 1.378 1_655 S
C145 C146 1.361 . S
C146 H130 0.942 . S
C146 C145 1.361 . S
C146 C147 1.369 . S
C147 C146 1.369 . S
C147 C148 1.404 . S
C148 H131 0.940 . S
C148 C147 1.404 . S
C148 C149 1.389 . S
C149 H132 0.939 1_655 S
C149 C144 1.400 1_655 S
C149 C148 1.389 . S
C150 P124 1.819 . S
C150 C151 1.391 . S
C150 C155 1.391 . S
C151 H133 0.941 . S
C151 C150 1.391 . S
C151 C152 1.396 . S
C152 H136 0.939 . S
C152 C151 1.396 . S
C152 C153 1.397 . S
C153 C152 1.397 . S
C153 C154 1.385 . S
C154 H137 0.940 1_455 S
C154 C153 1.385 . S
C154 C155 1.388 . S
C155 H134 0.939 1_455 S
C155 C150 1.391 . S
C155 C154 1.388 . S
P156 O167 1.490 . S
P156 C170 1.812 . S
P156 C176 1.803 1_455 S
P156 C182 1.819 . S
H157 C171 0.941 . S
H158 C172 0.939 . S
H159 C174 0.940 . S
H160 C175 0.940 . S
H161 C177 0.939 . S
H162 C178 0.942 . S
H163 C180 0.940 . S
H164 C181 0.939 . S
H165 C183 0.941 . S
H166 C187 0.939 . S
O167 P156 1.490 . S
H168 C184 0.939 . S
H169 C186 0.940 . S
C170 P156 1.812 . S
C170 C171 1.389 . S
C170 C175 1.391 . S
C171 H157 0.941 . S
C171 C170 1.389 . S
C171 C172 1.397 . S
C172 H158 0.939 . S
C172 C171 1.397 . S
C172 C173 1.378 . S
C173 C172 1.378 . S
C173 C174 1.378 . S
C174 H159 0.940 . S
C174 C173 1.378 . S
C174 C175 1.396 . S
C175 H160 0.940 . S
C175 C170 1.391 . S
C175 C174 1.396 . S
C176 P156 1.803 1_655 S
C176 C177 1.378 . S
C176 C181 1.400 . S
C177 H161 0.939 . S
C177 C176 1.378 . S
C177 C178 1.361 . S
C178 H162 0.942 . S
C178 C177 1.361 . S
C178 C179 1.369 . S
C179 C178 1.369 . S
C179 C180 1.404 . S
C180 H163 0.940 . S
C180 C179 1.404 . S
C180 C181 1.389 . S
C181 H164 0.939 . S
C181 C176 1.400 . S
C181 C180 1.389 . S
C182 P156 1.819 . S
C182 C183 1.391 . S
C182 C187 1.391 1_455 S
C183 H165 0.941 . S
C183 C182 1.391 . S
C183 C184 1.396 . S
C184 H168 0.939 . S
C184 C183 1.396 . S
C184 C185 1.397 . S
C185 C184 1.397 . S
C185 C186 1.385 1_455 S
C186 H169 0.940 . S
C186 C185 1.385 1_655 S
C186 C187 1.388 . S
C187 H166 0.939 . S
C187 C182 1.391 1_655 S
C187 C186 1.388 . S
P188 O199 1.490 . S
P188 C202 1.812 . S
P188 C208 1.803 . S
P188 C214 1.819 . S
H189 C203 0.941 . S
H190 C204 0.939 . S
H191 C206 0.940 . S
H192 C207 0.940 . S
H193 C209 0.939 1_545 S
H194 C210 0.942 . S
H195 C212 0.940 . S
H196 C213 0.939 1_545 S
H197 C215 0.941 . S
H198 C219 0.939 1_565 S
O199 P188 1.490 . S
H200 C216 0.939 . S
H201 C218 0.940 1_565 S
C202 P188 1.812 . S
C202 C203 1.389 . S
C202 C207 1.391 . S
C203 H189 0.941 . S
C203 C202 1.389 . S
C203 C204 1.397 . S
C204 H190 0.939 . S
C204 C203 1.397 . S
C204 C205 1.378 . S
C205 C204 1.378 . S
C205 C206 1.378 . S
C206 H191 0.940 . S
C206 C205 1.378 . S
C206 C207 1.396 . S
C207 H192 0.940 . S
C207 C202 1.391 . S
C207 C206 1.396 . S
C208 P188 1.803 . S
C208 C209 1.378 1_545 S
C208 C213 1.400 1_545 S
C209 H193 0.939 1_565 S
C209 C208 1.378 1_565 S
C209 C210 1.361 . S
C210 H194 0.942 . S
C210 C209 1.361 . S
C210 C211 1.369 . S
C211 C210 1.369 . S
C211 C212 1.404 . S
C212 H195 0.940 . S
C212 C211 1.404 . S
C212 C213 1.389 . S
C213 H196 0.939 1_565 S
C213 C208 1.400 1_565 S
C213 C212 1.389 . S
C214 P188 1.819 . S
C214 C215 1.391 . S
C214 C219 1.391 . S
C215 H197 0.941 . S
C215 C214 1.391 . S
C215 C216 1.396 . S
C216 H200 0.939 . S
C216 C215 1.396 . S
C216 C217 1.397 . S
C217 C216 1.397 . S
C217 C218 1.385 . S
C218 H201 0.940 1_545 S
C218 C217 1.385 . S
C218 C219 1.388 . S
C219 H198 0.939 1_545 S
C219 C214 1.391 . S
C219 C218 1.388 . S
P220 O231 1.490 . S
P220 C234 1.812 . S
P220 C240 1.803 . S
P220 C246 1.819 . S
H221 C235 0.941 . S
H222 C236 0.939 . S
H223 C238 0.940 . S
H224 C239 0.940 . S
H225 C241 0.939 . S
H226 C242 0.942 . S
H227 C244 0.940 . S
H228 C245 0.939 . S
H229 C247 0.941 . S
H230 C251 0.939 . S
O231 P220 1.490 . S
H232 C248 0.939 . S
H233 C250 0.940 . S
C234 P220 1.812 . S
C234 C235 1.389 . S
C234 C239 1.391 . S
C235 H221 0.941 . S
C235 C234 1.389 . S
C235 C236 1.397 . S
C236 H222 0.939 . S
C236 C235 1.397 . S
C236 C237 1.378 . S
C237 C236 1.378 . S
C237 C238 1.378 . S
C238 H223 0.940 . S
C238 C237 1.378 . S
C238 C239 1.396 . S
C239 H224 0.940 . S
C239 C234 1.391 . S
C239 C238 1.396 . S
C240 P220 1.803 . S
C240 C241 1.378 . S
C240 C245 1.400 . S
C241 H225 0.939 . S
C241 C240 1.378 . S
C241 C242 1.361 . S
C242 H226 0.942 . S
C242 C241 1.361 . S
C242 C243 1.369 . S
C243 C242 1.369 . S
C243 C244 1.404 . S
C244 H227 0.940 . S
C244 C243 1.404 . S
C244 C245 1.389 . S
C245 H228 0.939 . S
C245 C240 1.400 . S
C245 C244 1.389 . S
C246 P220 1.819 . S
C246 C247 1.391 . S
C246 C251 1.391 . S
C247 H229 0.941 . S
C247 C246 1.391 . S
C247 C248 1.396 . S
C248 H232 0.939 . S
C248 C247 1.396 . S
C248 C249 1.397 . S
C249 C248 1.397 . S
C249 C250 1.385 . S
C250 H233 0.940 . S
C250 C249 1.385 . S
C250 C251 1.388 . S
C251 H230 0.939 . S
C251 C246 1.391 . S
C251 C250 1.388 . S
C252 C253 1.387 . S
C252 H256 0.950 . S
C252 C261 1.390 . S
C253 C252 1.387 . S
C253 C255 1.387 . S
H254 C261 0.950 . S
C255 C253 1.387 . S
C255 C257 1.390 . S
C255 H259 0.950 . S
H256 C252 0.950 . S
C257 C255 1.390 . S
C257 C258 1.387 . S
C257 H260 0.950 . S
C258 C257 1.387 . S
C258 C261 1.387 . S
H259 C255 0.950 . S
H260 C257 0.950 . S
C261 C252 1.390 . S
C261 H254 0.950 . S
C261 C258 1.387 . S
C262 C263 1.387 . S
C262 H266 0.950 . S
C262 C271 1.390 . S
C263 C262 1.387 . S
C263 C265 1.387 . S
H264 C271 0.950 . S
C265 C263 1.387 . S
C265 C267 1.390 . S
C265 H269 0.950 . S
H266 C262 0.950 . S
C267 C265 1.390 . S
C267 C268 1.387 . S
C267 H270 0.950 . S
C268 C267 1.387 . S
C268 C271 1.387 . S
H269 C265 0.950 . S
H270 C267 0.950 . S
C271 C262 1.390 . S
C271 H264 0.950 . S
C271 C268 1.387 . S
C272 C273 1.387 . S
C272 H276 0.950 . S
C272 C281 1.390 . S
C273 C272 1.387 . S
C273 C275 1.387 . S
H274 C281 0.950 . S
C275 C273 1.387 . S
C275 C277 1.390 . S
C275 H279 0.950 . S
H276 C272 0.950 . S
C277 C275 1.390 . S
C277 C278 1.387 . S
C277 H280 0.950 . S
C278 C277 1.387 . S
C278 C281 1.387 . S
H279 C275 0.950 . S
H280 C277 0.950 . S
C281 C272 1.390 . S
C281 H274 0.950 . S
C281 C278 1.387 . S
C282 C283 1.387 . S
C282 H286 0.950 . S
C282 C291 1.390 . S
C283 C282 1.387 . S
C283 C285 1.387 . S
H284 C291 0.950 . S
C285 C283 1.387 . S
C285 C287 1.390 . S
C285 H289 0.950 . S
H286 C282 0.950 . S
C287 C285 1.390 . S
C287 C288 1.387 . S
C287 H290 0.950 . S
C288 C287 1.387 . S
C288 C291 1.387 . S
H289 C285 0.950 . S
H290 C287 0.950 . S
C291 C282 1.390 . S
C291 H284 0.950 . S
C291 C288 1.387 . S
C292 C293 1.387 . S
C292 H296 0.950 . S
C292 C301 1.390 . S
C293 C292 1.387 . S
C293 C295 1.387 . S
H294 C301 0.950 . S
C295 C293 1.387 . S
C295 C297 1.390 . S
C295 H299 0.950 . S
H296 C292 0.950 . S
C297 C295 1.390 . S
C297 C298 1.387 . S
C297 H300 0.950 . S
C298 C297 1.387 . S
C298 C301 1.387 . S
H299 C295 0.950 . S
H300 C297 0.950 . S
C301 C292 1.390 . S
C301 H294 0.950 . S
C301 C298 1.387 . S
C302 C303 1.387 . S
C302 H306 0.950 . S
C302 C311 1.390 . S
C303 C302 1.387 . S
C303 C305 1.387 . S
H304 C311 0.950 . S
C305 C303 1.387 . S
C305 C307 1.390 . S
C305 H309 0.950 . S
H306 C302 0.950 . S
C307 C305 1.390 . S
C307 C308 1.387 . S
C307 H310 0.950 . S
C308 C307 1.387 . S
C308 C311 1.387 . S
H309 C305 0.950 . S
H310 C307 0.950 . S
C311 C302 1.390 . S
C311 H304 0.950 . S
C311 C308 1.387 . S
C312 C313 1.387 . S
C312 H316 0.950 . S
C312 C321 1.390 . S
C313 C312 1.387 . S
C313 C315 1.387 . S
H314 C321 0.950 . S
C315 C313 1.387 . S
C315 C317 1.390 . S
C315 H319 0.950 . S
H316 C312 0.950 . S
C317 C315 1.390 . S
C317 C318 1.387 . S
C317 H320 0.950 . S
C318 C317 1.387 . S
C318 C321 1.387 . S
H319 C315 0.950 . S
H320 C317 0.950 . S
C321 C312 1.390 . S
C321 H314 0.950 . S
C321 C318 1.387 . S
C322 C323 1.387 . S
C322 H326 0.950 . S
C322 C331 1.390 . S
C323 C322 1.387 . S
C323 C325 1.387 . S
H324 C331 0.950 . S
C325 C323 1.387 . S
C325 C327 1.390 . S
C325 H329 0.950 . S
H326 C322 0.950 . S
C327 C325 1.390 . S
C327 C328 1.387 . S
C327 H330 0.950 . S
C328 C327 1.387 . S
C328 C331 1.387 . S
H329 C325 0.950 . S
H330 C327 0.950 . S
C331 C322 1.390 . S
C331 H324 0.950 . S
C331 C328 1.387 . S
C332 C333 1.387 . S
C332 H336 0.950 . S
C332 C341 1.390 . S
C333 C332 1.387 . S
C333 C335 1.387 . S
H334 C341 0.950 . S
C335 C333 1.387 . S
C335 C337 1.390 . S
C335 H339 0.950 . S
H336 C332 0.950 . S
C337 C335 1.390 . S
C337 C338 1.387 . S
C337 H340 0.950 . S
C338 C337 1.387 . S
C338 C341 1.387 . S
H339 C335 0.950 . S
H340 C337 0.950 . S
C341 C332 1.390 . S
C341 H334 0.950 . S
C341 C338 1.387 . S
C342 C343 1.387 . S
C342 H346 0.950 . S
C342 C351 1.390 . S
C343 C342 1.387 . S
C343 C345 1.387 . S
H344 C351 0.950 . S
C345 C343 1.387 . S
C345 C347 1.390 . S
C345 H349 0.950 . S
H346 C342 0.950 . S
C347 C345 1.390 . S
C347 C348 1.387 . S
C347 H350 0.950 . S
C348 C347 1.387 . S
C348 C351 1.387 . S
H349 C345 0.950 . S
H350 C347 0.950 . S
C351 C342 1.390 . S
C351 H344 0.950 . S
C351 C348 1.387 . S
C352 C353 1.387 . S
C352 H356 0.950 . S
C352 C361 1.390 . S
C353 C352 1.387 . S
C353 C355 1.387 . S
H354 C361 0.950 . S
C355 C353 1.387 . S
C355 C357 1.390 . S
C355 H359 0.950 . S
H356 C352 0.950 . S
C357 C355 1.390 . S
C357 C358 1.387 . S
C357 H360 0.950 . S
C358 C357 1.387 . S
C358 C361 1.387 . S
H359 C355 0.950 . S
H360 C357 0.950 . S
C361 C352 1.390 . S
C361 H354 0.950 . S
C361 C358 1.387 . S
C362 C363 1.387 . S
C362 H366 0.950 . S
C362 C371 1.390 . S
C363 C362 1.387 . S
C363 C365 1.387 . S
H364 C371 0.950 . S
C365 C363 1.387 . S
C365 C367 1.390 . S
C365 H369 0.950 . S
H366 C362 0.950 . S
C367 C365 1.390 . S
C367 C368 1.387 . S
C367 H370 0.950 . S
C368 C367 1.387 . S
C368 C371 1.387 . S
H369 C365 0.950 . S
H370 C367 0.950 . S
C371 C362 1.390 . S
C371 H364 0.950 . S
C371 C368 1.387 . S
C372 C373 1.385 1_655 S
C372 H376 0.952 . S
C372 C381 1.390 1_655 S
C373 C372 1.385 1_455 S
C373 C375 1.387 . S
H374 C381 0.950 1_655 S
C375 C373 1.387 . S
C375 C377 1.390 . S
C375 H379 0.950 . S
H376 C372 0.952 . S
C377 C375 1.390 . S
C377 C378 1.387 . S
C377 H380 0.950 . S
C378 C377 1.387 . S
C378 C381 1.387 . S
H379 C375 0.950 . S
H380 C377 0.950 . S
C381 C372 1.390 1_455 S
C381 H374 0.950 1_455 S
C381 C378 1.387 . S
C382 C383 1.387 . S
C382 H386 0.950 . S
C382 C391 1.390 . S
C383 C382 1.387 . S
C383 C385 1.387 1_545 S
H384 C391 0.950 . S
C385 C383 1.387 1_565 S
C385 C387 1.390 . S
C385 H389 0.950 . S
H386 C382 0.950 . S
C387 C385 1.390 . S
C387 C388 1.387 1_565 S
C387 H390 0.950 . S
C388 C387 1.387 1_545 S
C388 C391 1.387 . S
H389 C385 0.950 . S
H390 C387 0.950 . S
C391 C382 1.390 . S
C391 H384 0.950 . S
C391 C388 1.387 . S
C392 C393 1.387 . S
C392 H396 0.950 . S
C392 C401 1.390 . S
C393 C392 1.387 . S
C393 C395 1.387 . S
H394 C401 0.950 . S
C395 C393 1.387 . S
C395 C397 1.390 . S
C395 H399 0.950 . S
H396 C392 0.950 . S
C397 C395 1.390 . S
C397 C398 1.387 . S
C397 H400 0.950 . S
C398 C397 1.387 . S
C398 C401 1.387 . S
H399 C395 0.950 . S
H400 C397 0.950 . S
C401 C392 1.390 . S
C401 H394 0.950 . S
C401 C398 1.387 . S
C402 C403 1.387 1_565 S
C402 H406 0.950 . S
C402 C411 1.390 . S
C403 C402 1.387 1_545 S
C403 C405 1.387 . S
H404 C411 0.950 . S
C405 C403 1.387 . S
C405 C407 1.390 . S
C405 H409 0.950 . S
H406 C402 0.950 . S
C407 C405 1.390 . S
C407 C408 1.387 . S
C407 H410 0.950 . S
C408 C407 1.387 . S
C408 C411 1.387 1_545 S
H409 C405 0.950 . S
H410 C407 0.950 . S
C411 C402 1.390 . S
C411 H404 0.950 . S
C411 C408 1.387 1_565 S
C412 C413 1.387 . S
C412 H416 0.950 . S
C412 C421 1.390 . S
C413 C412 1.387 . S
C413 C415 1.387 . S
H414 C421 0.950 . S
C415 C413 1.387 . S
C415 C417 1.390 . S
C415 H419 0.950 . S
H416 C412 0.950 . S
C417 C415 1.390 . S
C417 C418 1.387 . S
C417 H420 0.950 . S
C418 C417 1.387 . S
C418 C421 1.387 . S
H419 C415 0.950 . S
H420 C417 0.950 . S
C421 C412 1.390 . S
C421 H414 0.950 . S
C421 C418 1.387 . S
C422 C423 1.387 . S
C422 H426 0.950 . S
C422 C431 1.390 . S
C423 C422 1.387 . S
C423 C425 1.387 . S
H424 C431 0.950 . S
C425 C423 1.387 . S
C425 C427 1.390 . S
C425 H429 0.950 . S
H426 C422 0.950 . S
C427 C425 1.390 . S
C427 C428 1.387 . S
C427 H430 0.950 . S
C428 C427 1.387 . S
C428 C431 1.387 . S
H429 C425 0.950 . S
H430 C427 0.950 . S
C431 C422 1.390 . S
C431 H424 0.950 . S
C431 C428 1.387 . S
C253 C2 1.102 . S
C258 C243 1.088 . S
C263 C21 1.079 . S
C268 C179 1.059 . S
C273 C42 1.123 . S
C278 C211 1.107 . S
C283 C1 1.073 . S
C288 C237 1.066 . S
C298 C173 1.078 . S
C293 C22 1.095 . S
C308 C205 1.050 . S
C303 C41 1.056 . S
C313 C38 1.961 . S
C318 C115 1.897 . S
C323 C59 1.985 . S
C328 C147 1.918 . S
C333 C18 1.940 . S
C338 C77 1.887 . S
C348 C109 1.931 . S
C343 C39 1.983 . S
C358 C141 1.908 . S
C353 C58 1.958 . S
C363 C19 2.004 . S
C368 C83 1.939 . S
C378 C153 1.547 1_554 S
C373 C9 1.514 . S
C383 C29 1.512 . S
C388 C89 1.554 . S
C393 C49 1.511 . S
C398 C121 1.539 . S
C408 C217 1.377 . S
C403 C28 1.373 . S
C418 C249 1.371 1_556 S
C413 C48 1.366 . S
C423 C8 1.366 . S
C428 C185 1.353 . S
