# Generated by pormake.
# Topology anh, (6,3)-cn, num edge types: 1
# Building blocks:
#     Node 0, Type 0, BuildingBlock: BETFEN_clean_sbu_0, # of connection points: 6
#     Node 1, Type 0, BuildingBlock: BETFEN_clean_sbu_0, # of connection points: 6
#     Node 2, Type 0, BuildingBlock: BETFEN_clean_sbu_0, # of connection points: 6
#     Node 3, Type 1, BuildingBlock: CUQRIR_clean_linker_1, # of connection points: 3
#     Node 4, Type 1, BuildingBlock: CUQRIR_clean_linker_1, # of connection points: 3
#     Node 5, Type 1, BuildingBlock: CUQRIR_clean_linker_1, # of connection points: 3
#     Node 6, Type 1, BuildingBlock: CUQRIR_clean_linker_1, # of connection points: 3
#     Node 7, Type 1, BuildingBlock: CUQRIR_clean_linker_1, # of connection points: 3
#     Node 8, Type 1, BuildingBlock: CUQRIR_clean_linker_1, # of connection points: 3
#     Edge 9, Type (0, 1), BuildingBlock: ZUJKAS_clean_linker_0, # of connection points: 2
#     Edge 10, Type (0, 1), BuildingBlock: ZUJKAS_clean_linker_0, # of connection points: 2
#     Edge 11, Type (0, 1), BuildingBlock: ZUJKAS_clean_linker_0, # of connection points: 2
#     Edge 12, Type (0, 1), BuildingBlock: ZUJKAS_clean_linker_0, # of connection points: 2
#     Edge 13, Type (0, 1), BuildingBlock: ZUJKAS_clean_linker_0, # of connection points: 2
#     Edge 14, Type (0, 1), BuildingBlock: ZUJKAS_clean_linker_0, # of connection points: 2
#     Edge 15, Type (0, 1), BuildingBlock: ZUJKAS_clean_linker_0, # of connection points: 2
#     Edge 16, Type (0, 1), BuildingBlock: ZUJKAS_clean_linker_0, # of connection points: 2
#     Edge 17, Type (0, 1), BuildingBlock: ZUJKAS_clean_linker_0, # of connection points: 2
#     Edge 18, Type (0, 1), BuildingBlock: ZUJKAS_clean_linker_0, # of connection points: 2
#     Edge 19, Type (0, 1), BuildingBlock: ZUJKAS_clean_linker_0, # of connection points: 2
#     Edge 20, Type (0, 1), BuildingBlock: ZUJKAS_clean_linker_0, # of connection points: 2
#     Edge 21, Type (0, 1), BuildingBlock: ZUJKAS_clean_linker_0, # of connection points: 2
#     Edge 22, Type (0, 1), BuildingBlock: ZUJKAS_clean_linker_0, # of connection points: 2
#     Edge 23, Type (0, 1), BuildingBlock: ZUJKAS_clean_linker_0, # of connection points: 2
#     Edge 24, Type (0, 1), BuildingBlock: ZUJKAS_clean_linker_0, # of connection points: 2
#     Edge 25, Type (0, 1), BuildingBlock: ZUJKAS_clean_linker_0, # of connection points: 2
#     Edge 26, Type (0, 1), BuildingBlock: ZUJKAS_clean_linker_0, # of connection points: 2
# Relax obj value: 0.161
# Max RMSD: 0.210
# Mean RMSD: 0.156
data_MOF--net-anh--node1-BETFEN_clean_sbu_0--node2-CUQRIR_clean_linker_1--edge1-ZUJKAS_clean_linker_0
_symmetry_space_group_name_H-M    P1
_symmetry_Int_Tables_number       1
_symmetry_cell_setting            triclinic
loop_
_symmetry_equiv_pos_as_xyz
'x, y, z'
_cell_length_a     36.154595
_cell_length_b     37.262448
_cell_length_c     61.532108
_cell_angle_alpha  86.533455
_cell_angle_beta   90.82965
_cell_angle_gamma 104.37613
loop_
_atom_site_label
_atom_site_type_symbol
_atom_site_fract_x
_atom_site_fract_y
_atom_site_fract_z
_atom_type_partial_charge
Pr0 Pr 1.01985 0.51401 0.16263 0.0
Pr1 Pr 0.04746 0.602 0.1529 0.0
C2 C 0.9838 0.445 0.1771 0.0
C3 C 0.94448 0.42137 0.17621 0.0
C4 C 0.92822 0.40765 0.15651 0.0
C5 C 0.89131 0.38458 0.15616 0.0
C6 C 0.86991 0.37495 0.17545 0.0
C7 C 0.88587 0.38939 0.19501 0.0
C8 C 0.92282 0.41224 0.19539 0.0
C9 C 0.03737 0.53805 0.11956 0.0
C10 C 0.95456 0.56494 0.15427 0.0
C11 C 0.08137 0.66783 0.1335 0.0
C12 C 0.11815 0.69407 0.13754 0.0
C13 C 0.13164 0.69998 0.15888 0.0
C14 C 0.16775 0.72298 0.16254 0.0
C15 C 0.19119 0.74021 0.14493 0.0
C16 C 0.17783 0.73365 0.12359 0.0
C17 C 0.14161 0.71077 0.11995 0.0
C18 C 0.05017 0.58503 0.19801 0.0
C19 C 0.11105 0.55123 0.1613 0.0
O20 O 0.98917 0.47353 0.18926 0.0
O21 O 1.00314 0.45222 0.15885 0.0
O22 O 1.01947 0.55319 0.13229 0.0
O23 O 0.04503 0.50833 0.12869 0.0
O24 O 0.98176 0.5956 0.15017 0.0
O25 O 0.96198 0.53238 0.15949 0.0
O26 O 0.08406 0.63637 0.12606 0.0
O27 O 0.05476 0.66399 0.14838 0.0
O28 O 0.03998 0.56281 0.1833 0.0
O29 O 0.06017 0.61867 0.18942 0.0
O30 O 0.08489 0.52407 0.17114 0.0
O31 O 0.10205 0.57963 0.15056 0.0
H32 H 0.94405 0.4144 0.14138 0.0
H33 H 0.87959 0.37404 0.14083 0.0
H34 H 0.8703 0.38202 0.2102 0.0
H35 H 0.93466 0.42242 0.21077 0.0
H36 H 0.11438 0.68671 0.17275 0.0
H37 H 0.17699 0.72776 0.17917 0.0
H38 H 0.19547 0.74604 0.10969 0.0
H39 H 0.13206 0.70576 0.10338 0.0
Pr40 Pr 0.65852 0.07638 0.50566 0.0
Pr41 Pr 0.56782 0.05238 0.51159 0.0
C42 C 0.73067 0.10941 0.49378 0.0
C43 C 0.75387 0.14798 0.49154 0.0
C44 C 0.78985 0.15726 0.5015 0.0
C45 C 0.81194 0.19384 0.50006 0.0
C46 C 0.79848 0.22176 0.48853 0.0
C47 C 0.76219 0.2125 0.47881 0.0
C48 C 0.73998 0.17596 0.48039 0.0
C49 C 0.63127 0.06204 0.54783 0.0
C50 C 0.6094 0.14347 0.50977 0.0
C51 C 0.49829 1.02204 0.52816 0.0
C52 C 0.46907 0.9874 0.52403 0.0
C53 C 0.44025 0.98746 0.50845 0.0
C54 C 0.4141 0.9544 0.50368 0.0
C55 C 0.41605 0.92051 0.51443 0.0
C56 C 0.44465 0.92051 0.53015 0.0
C57 C 0.47075 0.95354 0.53494 0.0
C58 C 0.58499 0.05245 0.46733 0.0
C59 C 0.61805 0.9861 0.5106 0.0
O60 O 0.70305 0.09937 0.47967 0.0
O61 O 0.72119 0.09648 0.51369 0.0
O62 O 0.61774 0.0793 0.53279 0.0
O63 O 0.66159 0.05252 0.54167 0.0
O64 O 0.57735 0.11742 0.51378 0.0
O65 O 0.64211 0.13497 0.50543 0.0
O66 O 0.52974 1.01792 0.53777 0.0
O67 O 0.50438 1.04848 0.51254 0.0
O68 O 0.60865 0.0603 0.48256 0.0
O69 O 0.55048 1.04379 0.47492 0.0
O70 O 0.64837 1.01142 0.50281 0.0
O71 O 0.58705 0.99579 0.51685 0.0
H72 H 0.80088 0.13615 0.51038 0.0
H73 H 0.83992 0.2001 0.50757 0.0
H74 H 0.75089 0.23356 0.47007 0.0
H75 H 0.71197 0.16969 0.47292 0.0
H76 H 0.43804 1.01303 0.4998 0.0
H77 H 0.39207 0.95549 0.49173 0.0
H78 H 0.44726 0.89486 0.53855 0.0
H79 H 0.49258 0.95237 0.54701 0.0
Pr80 Pr 0.53905 0.56428 0.82759 0.0
Pr81 Pr 0.56998 0.6458 0.83045 0.0
C82 C 0.5257 0.49634 0.81396 0.0
C83 C 0.55111 0.47231 0.82042 0.0
C84 C 0.53802 0.4423 0.83548 0.0
C85 C 0.56387 0.42544 0.84632 0.0
C86 C 0.60335 0.43818 0.84227 0.0
C87 C 0.61637 0.46726 0.8266 0.0
C88 C 0.59051 0.48421 0.81577 0.0
C89 C 0.54186 0.57577 0.87229 0.0
C90 C 0.63224 0.59458 0.83156 0.0
C91 C 0.60412 0.71307 0.84338 0.0
C92 C 0.58914 0.73496 0.8581 0.0
C93 C 0.60282 0.77344 0.85686 0.0
C94 C 0.58029 0.79527 0.86452 0.0
C95 C 0.54364 0.77858 0.87301 0.0
C96 C 0.5324 0.73996 0.87682 0.0
C97 C 0.55521 0.71817 0.86942 0.0
C98 C 0.55555 0.62536 0.78781 0.0
C99 C 0.47784 0.61319 0.8323 0.0
O100 O 0.54071 0.52535 0.80107 0.0
O101 O 0.50604 0.50408 0.82995 0.0
O102 O 0.55195 0.60089 0.85734 0.0
O103 O 0.52882 0.54371 0.86432 0.0
O104 O 0.6268 0.62794 0.82769 0.0
O105 O 0.60335 0.56517 0.8342 0.0
O106 O 0.61134 0.68283 0.85228 0.0
O107 O 0.58522 0.70801 0.82505 0.0
O108 O 0.5713 0.60861 0.80226 0.0
O109 O 0.54633 0.65381 0.79538 0.0
O110 O 0.48443 0.5863 0.82119 0.0
O111 O 0.50619 0.63704 0.84135 0.0
H112 H 0.50797 0.43293 0.83956 0.0
H113 H 0.55279 0.40201 0.8577 0.0
H114 H 0.64653 0.47701 0.82285 0.0
H115 H 0.60172 0.50768 0.80444 0.0
H116 H 0.62881 0.78658 0.84799 0.0
H117 H 0.58943 0.82501 0.86109 0.0
H118 H 0.50422 0.72658 0.88316 0.0
H119 H 0.54435 0.68826 0.8704 0.0
C120 C 0.52482 0.05431 0.20676 0.0
N121 N 0.54725 0.07444 0.22174 0.0
N122 N 0.49961 1.02499 0.21662 0.0
C123 C 0.52831 0.06251 0.18251 0.0
C124 C 0.50771 1.02803 0.2381 0.0
N125 N 0.53681 0.05799 0.24119 0.0
C126 C 0.48605 1.00288 0.25618 0.0
H127 H 0.5074 0.07856 0.17718 0.0
H128 H 0.52181 1.03637 0.17389 0.0
H129 H 0.55717 0.07927 0.17775 0.0
H130 H 0.50014 0.98002 0.26011 0.0
H131 H 0.45613 0.9907 0.25127 0.0
H132 H 0.48611 1.01826 0.27108 0.0
C133 C 0.61212 0.5638 0.52849 0.0
N134 N 0.60745 0.58968 0.54249 0.0
N135 N 0.60772 0.52952 0.53899 0.0
C136 C 0.61855 0.5713 0.50445 0.0
C137 C 0.60073 0.53567 0.55979 0.0
N138 N 0.60001 0.5715 0.5619 0.0
C139 C 0.59711 0.50692 0.57849 0.0
H140 H 0.60882 0.54541 0.49573 0.0
H141 H 0.64955 0.58257 0.50139 0.0
H142 H 0.6034 0.59218 0.498 0.0
H143 H 0.61279 0.48577 0.57509 0.0
H144 H 0.56651 0.49271 0.58096 0.0
H145 H 0.60836 0.51993 0.59378 0.0
C146 C 0.05595 0.59601 0.85803 0.0
N147 N 0.08361 0.59899 0.87344 0.0
N148 N 1.02115 0.591 0.86741 0.0
C149 C 0.0627 0.5963 0.83399 0.0
C150 C 1.02875 0.59161 0.889 0.0
N151 N 0.06654 0.59628 0.89265 0.0
C152 C 0.99904 0.58761 0.90656 0.0
H153 H 0.07053 0.62549 0.82726 0.0
H154 H 0.03662 0.58123 0.82557 0.0
H155 H 0.08666 0.58363 0.83077 0.0
H156 H 0.98699 0.55768 0.91086 0.0
H157 H 0.97546 0.59995 0.90076 0.0
H158 H 1.01116 0.60086 0.92157 0.0
C159 C 0.09014 0.58974 0.46094 0.0
N160 N 0.06846 0.56946 0.44568 0.0
N161 N 0.11729 0.61762 0.45132 0.0
C162 C 0.0857 0.58173 0.48515 0.0
C163 C 0.11176 0.61346 0.42977 0.0
N164 N 0.08232 0.58395 0.42631 0.0
C165 C 0.13573 0.63808 0.41228 0.0
H166 H 0.06309 0.59417 0.49102 0.0
H167 H 0.11247 0.59384 0.49391 0.0
H168 H 0.07701 0.55136 0.48914 0.0
H169 H 0.16534 0.6347 0.41347 0.0
H170 H 0.13697 0.66754 0.4149 0.0
H171 H 0.12446 0.63172 0.39573 0.0
C172 C 0.47895 0.10574 0.78772 0.0
N173 N 0.48097 0.08375 0.7714 0.0
N174 N 0.48559 0.14163 0.78016 0.0
C175 C 0.47602 0.09287 0.81153 0.0
C176 C 0.49021 0.14013 0.7584 0.0
N177 N 0.48769 0.10497 0.75314 0.0
C178 C 0.50204 0.17346 0.7427 0.0
H179 H 0.45444 0.10393 0.81968 0.0
H180 H 0.50397 0.10346 0.81956 0.0
H181 H 0.46738 0.06219 0.81393 0.0
H182 H 0.5322 0.1769 0.7378 0.0
H183 H 0.49889 0.19904 0.75001 0.0
H184 H 0.48433 0.16904 0.72777 0.0
C185 C 0.53843 0.5797 0.13643 0.0
N186 N 0.56393 0.57853 0.12069 0.0
N187 N 0.50361 0.57869 0.12762 0.0
C188 C 0.54715 0.58083 0.16038 0.0
C189 C 0.50881 0.57648 0.10603 0.0
N190 N 0.54536 0.57618 0.10184 0.0
C191 C 0.47808 0.57526 0.08905 0.0
H192 H 0.54432 0.55206 0.16726 0.0
H193 H 0.52694 0.59312 0.16899 0.0
H194 H 0.57677 0.59694 0.16331 0.0
H195 H 0.47674 0.60407 0.0842 0.0
H196 H 0.44982 0.55994 0.09569 0.0
H197 H 0.48369 0.56211 0.07422 0.0
H198 H 0.14747 0.50838 0.18792 0.0
H199 H 0.21636 0.51166 0.18898 0.0
H200 H 0.23508 0.59573 0.13624 0.0
H201 H 0.16731 0.59305 0.13518 0.0
H202 H 0.265 0.50102 0.15511 0.0
H203 H 0.31016 0.6443 0.18246 0.0
H204 H 0.26128 0.61714 0.18435 0.0
H205 H 0.28 0.64037 0.15888 0.0
C206 C 0.16634 0.52747 0.17656 0.0
C207 C 0.15192 0.55074 0.16166 0.0
C208 C 0.20562 0.52941 0.17722 0.0
C209 C 0.23091 0.55465 0.16306 0.0
C210 C 0.21629 0.57688 0.14775 0.0
H211 H 0.4594 0.62607 0.11896 0.0
H212 H 0.39368 0.61838 0.13107 0.0
C213 C 0.17737 0.57511 0.14713 0.0
C214 C 0.27256 0.5575 0.16357 0.0
H215 H 0.35879 0.62018 0.16712 0.0
C216 C 0.28566 0.52682 0.1581 0.0
C217 C 0.29932 0.59131 0.16736 0.0
C218 C 0.28701 0.62506 0.17378 0.0
C219 C 0.32475 0.52962 0.15497 0.0
C220 C 0.35159 0.56383 0.15817 0.0
C221 C 0.3384 0.59398 0.16466 0.0
C222 C 0.39284 0.57016 0.15279 0.0
C223 C 0.33645 0.49656 0.14694 0.0
C224 C 0.41503 0.54668 0.16157 0.0
C225 C 0.45236 0.55055 0.15414 0.0
C226 C 0.46832 0.57853 0.13824 0.0
C227 C 0.44732 0.60388 0.13091 0.0
C228 C 0.40987 0.59956 0.13793 0.0
H229 H 0.31191 0.47624 0.14005 0.0
H230 H 0.35893 0.50524 0.13425 0.0
H231 H 0.34792 0.48212 0.16077 0.0
H232 H 0.40313 0.52465 0.17365 0.0
H233 H 0.46814 0.53077 0.16005 0.0
H234 H 0.811 0.26688 0.45146 0.0
H235 H 0.85442 0.32846 0.44638 0.0
H236 H 0.88444 0.32503 0.51445 0.0
H237 H 0.84121 0.26308 0.51962 0.0
H238 H 0.85721 0.39408 0.46493 0.0
H239 H 0.98781 0.34536 0.48468 0.0
H240 H 0.94209 0.31375 0.48025 0.0
H241 H 0.95233 0.33521 0.50579 0.0
C242 C 0.82653 0.2794 0.4654 0.0
C243 C 0.82293 0.26008 0.4859 0.0
C244 C 0.85139 0.31452 0.46247 0.0
C245 C 0.87309 0.33101 0.47996 0.0
C246 C 0.86861 0.3124 0.50063 0.0
H247 H 1.00605 0.56274 0.47054 0.0
H248 H 0.95725 0.5055 0.48005 0.0
C249 C 0.8439 0.27709 0.50356 0.0
C250 C 0.90088 0.36735 0.47623 0.0
H251 H 0.99601 0.40971 0.47734 0.0
C252 C 0.88757 0.39761 0.46768 0.0
C253 C 0.94047 0.37165 0.47968 0.0
C254 C 0.95668 0.33974 0.48792 0.0
C255 C 0.91286 0.432 0.46215 0.0
C256 C 0.95244 0.43637 0.46572 0.0
C257 C 0.96564 0.40626 0.47462 0.0
C258 C 0.98097 0.47141 0.45963 0.0
C259 C 0.89701 0.46286 0.45189 0.0
C260 C 1.01088 0.47112 0.44538 0.0
C261 C 0.03917 0.50352 0.44043 0.0
C262 C 0.03786 0.53676 0.44953 0.0
C263 C 1.0076 0.53726 0.46345 0.0
C264 C 0.97956 0.50475 0.46866 0.0
H265 H 0.86819 0.45206 0.44485 0.0
H266 H 0.89437 0.48209 0.46452 0.0
H267 H 0.91614 0.47889 0.43884 0.0
H268 H 1.01262 0.44565 0.43831 0.0
H269 H 0.06266 0.50239 0.43002 0.0
H270 H 0.47775 0.75999 0.85043 0.0
H271 H 0.45151 0.80581 0.82997 0.0
H272 H 0.51934 0.89203 0.86778 0.0
H273 H 0.54601 0.84623 0.88839 0.0
H274 H 0.42765 0.88512 0.84019 0.0
H275 H 0.56577 0.88517 0.8009 0.0
H276 H 0.53797 0.84491 0.81627 0.0
H277 H 0.56404 0.8843 0.83015 0.0
C278 C 0.48512 0.78825 0.85549 0.0
C279 C 0.51458 0.79995 0.87063 0.0
C280 C 0.47024 0.8144 0.84362 0.0
C281 C 0.48434 0.852 0.84718 0.0
C282 C 0.50848 0.86289 0.86489 0.0
H283 H 0.53725 0.06268 0.79318 0.0
H284 H 0.53738 0.99905 0.8052 0.0
C285 C 0.52351 0.83678 0.87671 0.0
C286 C 0.48216 0.8796 0.82962 0.0
H287 H 0.53568 0.93194 0.78858 0.0
C288 C 0.45075 0.89508 0.82858 0.0
C289 C 0.51259 0.89189 0.81463 0.0
C290 C 0.54701 0.8757 0.81534 0.0
C291 C 0.4501 0.9248 0.81368 0.0
C292 C 0.48128 0.93821 0.7992 0.0
C293 C 0.51165 0.92107 0.79947 0.0
C294 C 0.48643 0.97427 0.78713 0.0
C295 C 0.41755 0.94339 0.81473 0.0
C296 C 0.45928 0.98095 0.77191 0.0
C297 C 0.45884 1.01739 0.76546 0.0
C298 C 0.48573 1.04681 0.77409 0.0
C299 C 0.5157 1.03991 0.78701 0.0
C300 C 0.51593 1.00376 0.79363 0.0
H301 H 0.39851 0.9325 0.82889 0.0
H302 H 0.42868 0.97381 0.81583 0.0
H303 H 0.40015 0.93856 0.7997 0.0
H304 H 0.43697 0.95826 0.76631 0.0
H305 H 0.43622 1.02271 0.755 0.0
H306 H 0.8911 0.507 0.15209 0.0
H307 H 0.82482 0.51005 0.14672 0.0
H308 H 0.85957 0.62942 0.14715 0.0
H309 H 0.92609 0.62672 0.15174 0.0
H310 H 0.77642 0.53536 0.17028 0.0
H311 H 0.8007 0.61772 0.09142 0.0
H312 H 0.83659 0.59738 0.10406 0.0
H313 H 0.82958 0.64041 0.11293 0.0
C314 C 0.88471 0.53396 0.151 0.0
C315 C 0.91406 0.56667 0.15208 0.0
C316 C 0.84673 0.53564 0.14795 0.0
C317 C 0.83719 0.57001 0.14601 0.0
C318 C 0.86626 0.60262 0.14789 0.0
H319 H 0.62203 0.63461 0.13214 0.0
H320 H 0.68873 0.63216 0.13891 0.0
C321 C 0.90432 0.60101 0.15066 0.0
C322 C 0.79686 0.57162 0.14206 0.0
H323 H 0.73965 0.60937 0.10764 0.0
C324 C 0.7684 0.5514 0.15651 0.0
C325 C 0.78624 0.59243 0.12404 0.0
C326 C 0.81481 0.6129 0.10711 0.0
C327 C 0.72987 0.55189 0.1536 0.0
C328 C 0.71949 0.57306 0.13577 0.0
C329 C 0.7478 0.59331 0.12136 0.0
C330 C 0.6793 0.57445 0.13169 0.0
C331 C 0.70054 0.53025 0.16979 0.0
C332 C 0.65218 0.54305 0.12505 0.0
C333 C 0.61438 0.54465 0.12101 0.0
C334 C 0.60319 0.57752 0.12371 0.0
C335 C 0.63033 0.60903 0.13007 0.0
C336 C 0.66818 0.60757 0.13394 0.0
H337 H 0.71395 0.52075 0.18469 0.0
H338 H 0.68116 0.54736 0.17455 0.0
H339 H 0.68291 0.50546 0.16216 0.0
H340 H 0.66031 0.51739 0.12294 0.0
H341 H 0.59367 0.52015 0.11609 0.0
H342 H 0.38073 0.86366 0.54311 0.0
H343 H 0.33324 0.80682 0.53509 0.0
H344 H 0.33893 0.84186 0.46686 0.0
H345 H 0.38764 0.89796 0.47459 0.0
H346 H 0.26334 0.8011 0.51802 0.0
H347 H 0.34676 0.73588 0.46481 0.0
H348 H 0.36889 0.77412 0.4811 0.0
H349 H 0.3476 0.78251 0.45526 0.0
C350 C 0.37248 0.85894 0.52633 0.0
C351 C 0.38803 0.88539 0.50949 0.0
C352 C 0.34515 0.82653 0.5218 0.0
C353 C 0.33292 0.81985 0.50035 0.0
C354 C 0.34852 0.84605 0.48348 0.0
H355 H 0.12118 0.69014 0.45252 0.0
H356 H 0.17412 0.73777 0.46678 0.0
C357 C 0.37597 0.87839 0.48798 0.0
C358 C 0.3021 0.78669 0.49577 0.0
H359 H 0.27857 0.71297 0.46354 0.0
C360 C 0.26681 0.78158 0.5063 0.0
C361 C 0.30682 0.76087 0.48075 0.0
C362 C 0.3447 0.76336 0.47001 0.0
C363 C 0.23566 0.75224 0.50154 0.0
C364 C 0.23973 0.72787 0.48551 0.0
C365 C 0.27541 0.732 0.47564 0.0
C366 C 0.20693 0.6989 0.47805 0.0
C367 C 0.19868 0.74765 0.5137 0.0
C368 C 0.20813 0.66145 0.47937 0.0
C369 C 0.17807 0.63448 0.4711 0.0
C370 C 0.14662 0.64471 0.46137 0.0
C371 C 0.14521 0.68198 0.4602 0.0
C372 C 0.17522 0.70895 0.46842 0.0
H373 H 0.20346 0.76089 0.52954 0.0
H374 H 0.17946 0.76118 0.50382 0.0
H375 H 0.18401 0.71787 0.51675 0.0
H376 H 0.23249 0.65319 0.48658 0.0
H377 H 0.17957 0.60577 0.47184 0.0
H378 H 0.6086 0.41417 0.8849 0.0
H379 H 0.61531 0.35158 0.89355 0.0
H380 H 0.66317 0.35046 0.82999 0.0
H381 H 0.65596 0.41234 0.82113 0.0
H382 H 0.56314 0.33338 0.85637 0.0
H383 H 0.66971 0.24867 0.86018 0.0
H384 H 0.6761 0.29125 0.87413 0.0
H385 H 0.68436 0.29296 0.84533 0.0
C386 C 0.6231 0.40153 0.87336 0.0
C387 C 0.62927 0.41663 0.85185 0.0
C388 C 0.62751 0.36585 0.87847 0.0
C389 C 0.63723 0.34569 0.86185 0.0
C390 C 0.65438 0.36518 0.84285 0.0
H391 H 0.55735 0.18358 0.77603 0.0
H392 H 0.59083 0.22927 0.80076 0.0
C393 C 0.64981 0.40073 0.83764 0.0
C394 C 0.61149 0.3091 0.8584 0.0
H395 H 0.61168 0.2247 0.84039 0.0
C396 C 0.57332 0.30899 0.85359 0.0
C397 C 0.6252 0.27804 0.85424 0.0
C398 C 0.66606 0.27746 0.85886 0.0
C399 C 0.54969 0.28044 0.84251 0.0
C400 C 0.56385 0.24979 0.8375 0.0
C401 C 0.60088 0.24825 0.84423 0.0
C402 C 0.54289 0.22189 0.82277 0.0
C403 C 0.51157 0.28565 0.83434 0.0
C404 C 0.5045 0.20329 0.82654 0.0
C405 C 0.48448 0.17943 0.8114 0.0
C406 C 0.50324 0.17199 0.79306 0.0
C407 C 0.54183 0.18997 0.78959 0.0
C408 C 0.56127 0.21519 0.80408 0.0
H409 H 0.50981 0.31497 0.83469 0.0
H410 H 0.50616 0.27715 0.81737 0.0
H411 H 0.48843 0.26855 0.84491 0.0
H412 H 0.48999 0.20718 0.84114 0.0
H413 H 0.45477 0.1657 0.81438 0.0
H414 H 0.56111 0.92673 0.52635 0.0
H415 H 0.5613 0.86131 0.53122 0.0
H416 H 0.67495 0.88614 0.50444 0.0
H417 H 0.67547 0.9521 0.50037 0.0
H418 H 0.56233 0.80977 0.50667 0.0
H419 H 0.69503 0.82413 0.55458 0.0
H420 H 0.67451 0.86291 0.54829 0.0
H421 H 0.70389 0.84898 0.52859 0.0
C422 C 0.58644 0.91854 0.52162 0.0
C423 C 0.61841 0.94541 0.51305 0.0
C424 C 0.58646 0.88067 0.5244 0.0
C425 C 0.61843 0.86787 0.51874 0.0
C426 C 0.65019 0.89462 0.50975 0.0
H427 H 0.66231 0.64315 0.52079 0.0
H428 H 0.66444 0.70948 0.51424 0.0
C429 C 0.65031 0.93267 0.50714 0.0
C430 C 0.61764 0.82668 0.52165 0.0
H431 H 0.66792 0.7645 0.54156 0.0
C432 C 0.58549 0.80014 0.51445 0.0
C433 C 0.64755 0.81305 0.53177 0.0
C434 C 0.68198 0.83873 0.54145 0.0
C435 C 0.5826 0.76141 0.51673 0.0
C436 C 0.61257 0.74785 0.52672 0.0
C437 C 0.64486 0.77429 0.53378 0.0
C438 C 0.61079 0.70664 0.53027 0.0
C439 C 0.5475 0.73544 0.50791 0.0
C440 C 0.58018 0.68206 0.54159 0.0
C441 C 0.57878 0.64395 0.54512 0.0
C442 C 0.60816 0.62891 0.53771 0.0
C443 C 0.63888 0.65341 0.52645 0.0
C444 C 0.64024 0.69161 0.52287 0.0
H445 H 0.53335 0.74969 0.49513 0.0
H446 H 0.55456 0.71116 0.50094 0.0
H447 H 0.52667 0.72522 0.52133 0.0
H448 H 0.55739 0.69241 0.54806 0.0
H449 H 0.55455 0.62614 0.55372 0.0
H450 H 0.69475 0.64155 0.81288 0.0
H451 H 0.76096 0.63762 0.81547 0.0
H452 H 0.72646 0.53677 0.85636 0.0
H453 H 0.65957 0.53974 0.85299 0.0
H454 H 0.80569 0.64045 0.84974 0.0
H455 H 0.79219 0.50503 0.81361 0.0
H456 H 0.75419 0.52862 0.81231 0.0
H457 H 0.76178 0.50226 0.83673 0.0
C458 C 0.70117 0.61828 0.82225 0.0
C459 C 0.67196 0.59079 0.83262 0.0
C460 C 0.73909 0.61611 0.82374 0.0
C461 C 0.74876 0.5866 0.8358 0.0
C462 C 0.71964 0.55921 0.84639 0.0
H463 H 0.95927 0.53481 0.87571 0.0
H464 H 0.89337 0.53409 0.86574 0.0
C465 C 0.68145 0.56101 0.84457 0.0
C466 C 0.78953 0.58559 0.83779 0.0
H467 H 0.85176 0.53192 0.83009 0.0
C468 C 0.81582 0.61681 0.84529 0.0
C469 C 0.80274 0.55475 0.83199 0.0
C470 C 0.77632 0.52091 0.82302 0.0
C471 C 0.85472 0.61775 0.84769 0.0
C472 C 0.86796 0.58683 0.84198 0.0
C473 C 0.8417 0.5557 0.83432 0.0
C474 C 0.90831 0.58512 0.84544 0.0
C475 C 0.88084 0.65138 0.8571 0.0
C476 C 0.93889 0.61298 0.8365 0.0
C477 C 0.97655 0.61381 0.84265 0.0
C478 C 0.98412 0.58634 0.85742 0.0
C479 C 0.95389 0.55665 0.86464 0.0
C480 C 0.91632 0.55618 0.85887 0.0
H481 H 0.86464 0.66793 0.86575 0.0
H482 H 0.9016 0.64324 0.86867 0.0
H483 H 0.89701 0.6696 0.84371 0.0
H484 H 0.93355 0.6349 0.82547 0.0
H485 H 0.9995 0.63685 0.83682 0.0
H486 H 0.22151 0.80684 0.12322 0.0
H487 H 0.27969 0.85308 0.132 0.0
H488 H 0.30298 0.78018 0.18465 0.0
H489 H 0.24507 0.7332 0.17575 0.0
H490 H 0.28779 0.87889 0.17821 0.0
H491 H 0.40798 0.82519 0.14924 0.0
H492 H 0.36102 0.81314 0.13707 0.0
H493 H 0.36897 0.79314 0.16341 0.0
C494 C 0.23946 0.80016 0.13631 0.0
C495 C 0.22856 0.76642 0.14886 0.0
C496 C 0.27259 0.82667 0.14133 0.0
C497 C 0.29554 0.8198 0.15884 0.0
C498 C 0.2857 0.78568 0.17092 0.0
H499 H 0.49152 0.95147 0.22363 0.0
H500 H 0.44192 0.90177 0.20867 0.0
C501 C 0.25246 0.75912 0.16595 0.0
C502 C 0.32707 0.85001 0.16602 0.0
H503 H 0.42402 0.87974 0.16863 0.0
C504 C 0.31763 0.87929 0.17606 0.0
C505 C 0.36571 0.8499 0.16335 0.0
C506 C 0.37684 0.81881 0.1526 0.0
C507 C 0.34597 0.90846 0.18389 0.0
C508 C 0.38484 0.90891 0.18087 0.0
C509 C 0.39423 0.8795 0.17076 0.0
C510 C 0.41603 0.93896 0.18885 0.0
C511 C 0.33382 0.93773 0.19598 0.0
C512 C 0.41842 0.97625 0.18233 0.0
C513 C 0.44598 1.00457 0.19137 0.0
C514 C 0.47217 0.99596 0.20661 0.0
C515 C 0.47099 0.95865 0.21228 0.0
C516 C 0.44301 0.93036 0.20356 0.0
H517 H 0.30426 0.92753 0.2024 0.0
H518 H 0.35326 0.94681 0.20982 0.0
H519 H 0.33442 0.96221 0.18467 0.0
H520 H 0.39855 0.98349 0.17054 0.0
H521 H 0.44639 1.03317 0.18682 0.0
H522 H 0.62098 0.18417 0.54605 0.0
H523 H 0.62049 0.24955 0.54913 0.0
H524 H 0.59904 0.25953 0.48018 0.0
H525 H 0.59835 0.19388 0.47738 0.0
H526 H 0.66108 0.31305 0.53511 0.0
H527 H 0.5187 0.30479 0.49928 0.0
H528 H 0.53594 0.26399 0.5056 0.0
H529 H 0.54939 0.29136 0.48045 0.0
C530 C 0.61581 0.20029 0.53159 0.0
C531 C 0.60932 0.18357 0.5115 0.0
C532 C 0.61566 0.23792 0.53332 0.0
C533 C 0.60885 0.26016 0.51501 0.0
C534 C 0.60313 0.24339 0.49482 0.0
H535 H 0.66535 0.50769 0.51946 0.0
H536 H 0.66693 0.44364 0.51236 0.0
C537 C 0.60311 0.20571 0.49314 0.0
C538 C 0.60846 0.30067 0.51703 0.0
H539 H 0.55771 0.36558 0.5035 0.0
C540 C 0.63831 0.32432 0.52819 0.0
C541 C 0.57863 0.31615 0.50851 0.0
C542 C 0.54367 0.29266 0.49802 0.0
C543 C 0.6394 0.36219 0.53081 0.0
C544 C 0.61048 0.37805 0.5214 0.0
C545 C 0.58045 0.3543 0.51046 0.0
C546 C 0.60937 0.41824 0.5238 0.0
C547 C 0.67098 0.38435 0.54444 0.0
C548 C 0.57598 0.42659 0.5313 0.0
C549 C 0.57487 0.46333 0.53477 0.0
C550 C 0.60703 0.49328 0.53088 0.0
C551 C 0.63996 0.48544 0.52242 0.0
C552 C 0.64104 0.44851 0.5188 0.0
H553 H 0.6835 0.36605 0.55567 0.0
H554 H 0.69413 0.40063 0.53358 0.0
H555 H 0.66052 0.40386 0.55426 0.0
H556 H 0.55089 0.40444 0.53523 0.0
H557 H 0.54914 0.4683 0.5414 0.0
H558 H 0.42121 0.61091 0.80231 0.0
H559 H 0.35475 0.61197 0.80895 0.0
H560 H 0.37746 0.61418 0.87802 0.0
H561 H 0.44451 0.6165 0.87108 0.0
H562 H 0.299 0.56815 0.8276 0.0
H563 H 0.32573 0.69431 0.87415 0.0
H564 H 0.36371 0.68093 0.86069 0.0
H565 H 0.34742 0.66058 0.88731 0.0
C566 C 0.41199 0.61238 0.81884 0.0
C567 C 0.438 0.61452 0.83614 0.0
C568 C 0.37397 0.61277 0.82268 0.0
C569 C 0.36092 0.61425 0.84399 0.0
C570 C 0.38684 0.61487 0.86135 0.0
H571 H 0.12191 0.54668 0.88262 0.0
H572 H 0.18956 0.55115 0.87529 0.0
C573 C 0.42516 0.61588 0.85741 0.0
C574 C 0.32007 0.61389 0.84804 0.0
H575 H 0.26223 0.65527 0.87597 0.0
C576 C 0.29117 0.58749 0.83805 0.0
C577 C 0.30931 0.6394 0.8614 0.0
C578 C 0.33823 0.67062 0.87128 0.0
C579 C 0.25226 0.58544 0.84135 0.0
C580 C 0.2417 0.60952 0.85565 0.0
C581 C 0.27036 0.6364 0.86529 0.0
C582 C 0.20103 0.60722 0.86077 0.0
C583 C 0.22273 0.55797 0.82915 0.0
C584 C 0.18519 0.63753 0.85561 0.0
C585 C 0.14668 0.635 0.86002 0.0
C586 C 0.12363 0.60238 0.86996 0.0
C587 C 0.1395 0.57231 0.87538 0.0
C588 C 0.17791 0.57472 0.87091 0.0
H589 H 0.23523 0.54878 0.81472 0.0
H590 H 0.21084 0.53311 0.84009 0.0
H591 H 0.19885 0.57013 0.82363 0.0
H592 H 0.20248 0.66289 0.84783 0.0
H593 H 0.1347 0.65833 0.8556 0.0
H594 H 0.80482 0.37835 0.19649 0.0
H595 H 0.74628 0.32861 0.20153 0.0
H596 H 0.79159 0.2605 0.16014 0.0
H597 H 0.85035 0.30976 0.15521 0.0
H598 H 0.6934 0.27982 0.16645 0.0
H599 H 0.77397 0.20976 0.2261 0.0
H600 H 0.78846 0.25907 0.21922 0.0
H601 H 0.79598 0.22697 0.2002 0.0
C602 C 0.80207 0.35295 0.18825 0.0
C603 C 0.83228 0.34774 0.17566 0.0
C604 C 0.7686 0.32477 0.19101 0.0
C605 C 0.76499 0.29104 0.1813 0.0
C606 C 0.79407 0.28649 0.16772 0.0
H607 H 0.61589 0.07271 0.20691 0.0
H608 H 0.66838 0.12647 0.19616 0.0
C609 C 0.82748 0.31468 0.16488 0.0
C610 C 0.7328 0.25925 0.18724 0.0
H611 H 0.71011 0.17929 0.2195 0.0
C612 C 0.69684 0.25775 0.17802 0.0
C613 C 0.73778 0.2307 0.20229 0.0
C614 C 0.77602 0.23151 0.21269 0.0
C615 C 0.66553 0.2278 0.18329 0.0
C616 C 0.67036 0.1994 0.19863 0.0
C617 C 0.70646 0.20112 0.20781 0.0
C618 C 0.63865 0.1672 0.2052 0.0
C619 C 0.62796 0.22644 0.17194 0.0
C620 C 0.60496 0.17228 0.2142 0.0
C621 C 0.57504 0.14165 0.22001 0.0
C622 C 0.5789 0.1057 0.21742 0.0
C623 C 0.61287 0.10046 0.2091 0.0
C624 C 0.64256 0.13102 0.20295 0.0
H625 H 0.63193 0.24384 0.15643 0.0
H626 H 0.61304 0.19758 0.16837 0.0
H627 H 0.60933 0.23733 0.18262 0.0
H628 H 0.60172 0.19988 0.21663 0.0
H629 H 0.54866 0.14591 0.22616 0.0
H630 H 0.07819 0.50926 0.09178 0.0
H631 H 0.09168 0.52736 0.05333 0.0
H632 H 1.03238 0.6139 0.05695 0.0
H633 H 1.01858 0.59583 0.09574 0.0
H634 H 1.02362 0.53252 0.02166 0.0
H635 H 0.14404 0.65879 0.02511 0.0
H636 H 0.13596 0.62299 0.04694 0.0
H637 H 0.1035 0.65212 0.04302 0.0
C638 C 0.06821 0.53233 0.08448 0.0
C639 C 0.0471 0.55098 0.0967 0.0
C640 C 0.07607 0.54269 0.06254 0.0
C641 C 0.06322 0.57203 0.05242 0.0
C642 C 0.04284 0.59138 0.06462 0.0
H643 H 0.08207 0.65515 0.91714 0.0
H644 H 0.0859 0.65133 0.95699 0.0
C645 C 0.03488 0.58097 0.08668 0.0
C646 C 0.06874 0.57999 0.02869 0.0
H647 H 0.12607 0.6366 0.99045 0.0
C648 C 0.0459 0.55532 0.01476 0.0
C649 C 0.09741 0.61009 0.01988 0.0
C650 C 0.12184 0.63768 0.03439 0.0
C651 C 0.05108 0.55973 0.99213 0.0
C652 C 0.08132 0.58865 0.98324 0.0
C653 C 0.10356 0.61395 0.99724 0.0
C654 C 0.08873 0.59383 0.95939 0.0
C655 C 1.02323 0.53388 0.97808 0.0
C656 C 0.09227 0.5639 0.94739 0.0
C657 C 0.08912 0.56592 0.92472 0.0
C658 C 0.08427 0.59843 0.91371 0.0
C659 C 0.08631 0.63001 0.92543 0.0
C660 C 0.08814 0.62766 0.94818 0.0
H661 H 0.99576 0.5217 0.98668 0.0
H662 H 1.01709 0.54844 0.96268 0.0
H663 H 0.03549 0.51059 0.97405 0.0
H664 H 0.0943 0.53796 0.95564 0.0
H665 H 0.08696 0.54111 0.916 0.0
H666 H 0.54609 1.00809 0.43763 0.0
H667 H 0.55128 1.01669 0.39814 0.0
H668 H 0.64557 0.1127 0.40438 0.0
H669 H 0.64155 0.10274 0.4443 0.0
H670 H 0.53763 0.07432 0.3763 0.0
H671 H 0.68374 0.0647 0.3554 0.0
H672 H 0.66295 0.05008 0.38196 0.0
H673 H 0.68185 0.09856 0.37465 0.0
C674 C 0.56863 1.03041 0.43056 0.0
C675 C 0.59348 0.05468 0.44389 0.0
C676 C 0.57149 1.03544 0.40799 0.0
C677 C 0.59874 0.0654 0.39817 0.0
C678 C 0.62475 0.08899 0.41149 0.0
H679 H 0.53925 0.11907 0.26312 0.0
H680 H 0.56196 0.12942 0.30059 0.0
C681 C 0.62243 0.08336 0.43428 0.0
C682 C 0.59675 0.0732 0.37423 0.0
H683 H 0.6455 0.07958 0.32639 0.0
C684 C 0.56135 0.07567 0.36541 0.0
C685 C 0.62769 0.07509 0.36002 0.0
C686 C 0.66614 0.07168 0.36841 0.0
C687 C 0.55537 0.07808 0.34288 0.0
C688 C 0.58618 0.07972 0.32862 0.0
C689 C 0.62206 0.07871 0.33737 0.0
C690 C 0.58026 0.07831 0.30474 0.0
C691 C 0.51547 0.07661 0.33464 0.0
C692 C 0.58526 1.04746 0.29421 0.0
C693 C 0.57311 1.0421 0.27275 0.0
C694 C 0.55585 0.06747 0.26148 0.0
C695 C 0.55308 0.09955 0.27144 0.0
C696 C 0.56558 0.10515 0.29289 0.0
H697 H 0.49367 0.06693 0.34765 0.0
H698 H 0.51383 0.10479 0.32851 0.0
H699 H 0.50805 0.05778 0.32106 0.0
H700 H 0.59651 1.0264 0.303 0.0
H701 H 0.57534 1.01718 0.26523 0.0
H702 H 0.54256 0.67158 0.75412 0.0
H703 H 0.55061 0.66616 0.71525 0.0
H704 H 0.58184 0.56261 0.72883 0.0
H705 H 0.57594 0.56907 0.76795 0.0
H706 H 0.62713 0.60258 0.69866 0.0
H707 H 0.47917 0.60294 0.67532 0.0
H708 H 0.50144 0.64364 0.6892 0.0
H709 H 0.49352 0.59855 0.70332 0.0
C710 C 0.55085 0.64748 0.74885 0.0
C711 C 0.55808 0.62049 0.76415 0.0
C712 C 0.55522 0.64428 0.72655 0.0
C713 C 0.56592 0.61351 0.71893 0.0
C714 C 0.57328 0.5865 0.73421 0.0
H715 H 0.537 0.54823 0.58629 0.0
H716 H 0.53018 0.56069 0.62431 0.0
C717 C 0.56958 0.59004 0.75659 0.0
C718 C 0.57014 0.61007 0.69509 0.0
H719 H 0.5243 0.61329 0.64635 0.0
C720 C 0.60455 0.60469 0.68722 0.0
C721 C 0.54051 0.61212 0.68011 0.0
C722 C 0.50147 0.6142 0.68744 0.0
C723 C 0.61025 0.60165 0.66488 0.0
C724 C 0.58131 0.60571 0.64977 0.0
C725 C 0.54687 0.6109 0.65773 0.0
C726 C 0.58453 0.60136 0.62593 0.0
C727 C 0.64669 0.59274 0.65792 0.0
C728 C 0.61646 0.62122 0.61361 0.0
C729 C 0.62061 0.61341 0.59186 0.0
C730 C 0.59246 0.58631 0.58202 0.0
C731 C 0.55912 0.56904 0.59369 0.0
C732 C 0.55532 0.57617 0.61543 0.0
H733 H 0.66022 0.57998 0.67166 0.0
H734 H 0.6414 0.57343 0.64452 0.0
H735 H 0.66735 0.61875 0.65213 0.0
H736 H 0.63874 0.64188 0.62098 0.0
H737 H 0.64652 0.62704 0.5831 0.0
H738 H 0.56942 0.08223 0.56215 0.0
H739 H 0.54672 0.07836 0.59956 0.0
H740 H 0.63612 1.02655 0.6212 0.0
H741 H 0.65926 1.03041 0.58355 0.0
H742 H 0.52472 1.01339 0.63084 0.0
H743 H 0.65078 0.12343 0.6554 0.0
H744 H 0.63822 0.11654 0.62718 0.0
H745 H 0.65926 0.08416 0.64247 0.0
C746 C 0.58405 0.06968 0.57483 0.0
C747 C 0.61624 0.05684 0.5701 0.0
C748 C 0.57099 0.06741 0.59613 0.0
C749 C 0.59001 0.05245 0.61299 0.0
C750 C 0.6214 1.03845 0.60829 0.0
H751 H 0.55299 0.08405 0.74942 0.0
H752 H 0.57778 0.06415 0.71658 0.0
C753 C 0.63449 1.04062 0.58688 0.0
C754 C 0.57784 0.05372 0.63554 0.0
H755 H 0.60098 0.10337 0.68057 0.0
C756 C 0.54152 1.0326 0.64192 0.0
C757 C 0.6001 0.07872 0.64981 0.0
C758 C 0.63921 0.10224 0.64347 0.0
C759 C 0.52625 1.03662 0.66214 0.0
C760 C 0.54754 0.0633 0.6759 0.0
C761 C 0.58464 0.08314 0.6699 0.0
C762 C 0.53125 0.07273 0.69599 0.0
C763 C 0.48742 1.01246 0.66844 0.0
C764 C 0.49718 0.0845 0.69522 0.0
C765 C 0.48266 0.09493 0.71406 0.0
C766 C 0.50245 0.09442 0.73371 0.0
C767 C 0.53697 0.08365 0.7344 0.0
C768 C 0.55115 0.07256 0.71571 0.0
H769 H 0.48141 0.98579 0.66031 0.0
H770 H 0.48496 1.00635 0.68632 0.0
H771 H 0.46522 1.02698 0.66312 0.0
H772 H 0.48211 0.08613 0.68 0.0
H773 H 0.45617 0.10356 0.71337 0.0
H774 H 0.51013 0.5268 0.90536 0.0
H775 H 0.52052 0.53253 0.94444 0.0
H776 H 0.59534 0.64145 0.93207 0.0
H777 H 0.58405 0.63623 0.89276 0.0
H778 H 0.58898 0.5406 0.96579 0.0
H779 H 0.52786 0.66022 0.98012 0.0
H780 H 0.51915 0.63589 0.95533 0.0
H781 H 0.56421 0.66826 0.95956 0.0
C782 C 0.52844 0.55219 0.91095 0.0
C783 C 0.54625 0.58108 0.89598 0.0
C784 C 0.53444 0.5554 0.93332 0.0
C785 C 0.55856 0.58748 0.94131 0.0
C786 C 0.57604 0.6167 0.9264 0.0
H787 H 0.59305 0.63316 0.07971 0.0
H788 H 0.60579 0.63735 0.04031 0.0
C789 C 0.5697 0.61364 0.90392 0.0
C790 C 0.56646 0.58901 0.96514 0.0
H791 H 0.55404 0.63369 0.01034 0.0
C792 C 0.58154 0.56113 0.97551 0.0
C793 C 0.55745 0.61613 0.97784 0.0
C794 C 0.54101 0.64671 0.96775 0.0
C795 C 0.58691 0.55897 0.99817 0.0
C796 C 0.57595 0.58485 0.01105 0.0
C797 C 0.5624 0.61373 0.00058 0.0
C798 C 0.57493 0.58067 0.03534 0.0
C799 C 0.60436 0.52888 0.00797 0.0
C800 C 0.55479 0.54712 0.04591 0.0
C801 C 0.54868 0.54458 0.06838 0.0
C802 C 0.56136 0.5758 0.08062 0.0
C803 C 0.58338 0.60872 0.07048 0.0
C804 C 0.59018 0.61116 0.04799 0.0
H805 H 0.62433 0.52181 0.99635 0.0
H806 H 0.62007 0.53716 0.02323 0.0
H807 H 0.58138 0.50336 0.01161 0.0
H808 H 0.54166 0.52348 0.03666 0.0
H809 H 0.5312 0.51915 0.07597 0.0
H810 H 0.99899 0.5312 0.22203 0.0
H811 H 0.99611 0.52226 0.26201 0.0
H812 H 0.10158 0.6066 0.26657 0.0
H813 H 0.10301 0.61717 0.22696 0.0
H814 H 0.03888 0.50329 0.29428 0.0
H815 H 0.03475 0.64913 0.30266 0.0
H816 H 1.03036 0.62881 0.2766 0.0
H817 H 0.07677 0.64659 0.28842 0.0
C818 C 1.02159 0.54757 0.23167 0.0
C819 C 0.05088 0.5753 0.22158 0.0
C820 C 1.01994 0.5425 0.25447 0.0
C821 C 0.04793 0.56469 0.26739 0.0
C822 C 0.07877 0.59026 0.25707 0.0
H823 H 0.1179 0.54982 0.39933 0.0
H824 H 0.1018 0.53844 0.36106 0.0
C825 C 0.07978 0.59607 0.23443 0.0
C826 C 0.04454 0.56236 0.29158 0.0
H827 H 0.04928 0.61627 0.33502 0.0
C828 C 0.04071 0.52793 0.30316 0.0
C829 C 0.04588 0.59429 0.3033 0.0
C830 C 0.04673 0.63166 0.29207 0.0
C831 C 0.04031 0.52503 0.32609 0.0
C832 C 0.04449 0.55745 0.33768 0.0
C833 C 0.04641 0.59145 0.32612 0.0
C834 C 0.04999 0.55761 0.36164 0.0
C835 C 0.03554 0.4874 0.33776 0.0
C836 C 1.026 0.57169 0.37479 0.0
C837 C 0.03523 0.578 0.39664 0.0
C838 C 0.06874 0.57076 0.40548 0.0
C839 C 0.09174 0.55513 0.3927 0.0
C840 C 0.08243 0.54854 0.37094 0.0
H841 H 1.02147 0.46477 0.32721 0.0
H842 H 0.06406 0.48332 0.34237 0.0
H843 H 1.01842 0.48509 0.35286 0.0
H844 H 1.00104 0.57922 0.36788 0.0
H845 H 1.0175 0.59045 0.40632 0.0
loop_
_geom_bond_atom_site_label_1
_geom_bond_atom_site_label_2
_geom_bond_distance
_geom_bond_site_symmetry_2
_ccdc_geom_bond_type
Pr0 C2 2.880 . S
Pr0 O20 2.562 . S
Pr0 O21 2.490 . S
Pr0 O22 2.695 1_655 S
Pr0 O23 2.512 . S
Pr0 O25 2.437 . S
Pr0 O28 2.436 . S
Pr0 O30 2.438 1_655 S
Pr1 C11 2.880 . S
Pr1 O22 2.436 . S
Pr1 O24 2.438 1_455 S
Pr1 O26 2.562 . S
Pr1 O27 2.490 . S
Pr1 O28 2.695 1_455 S
Pr1 O29 2.512 . S
Pr1 O31 2.437 . S
C2 Pr0 2.880 . S
C2 C3 1.491 . S
C2 O20 1.254 . S
C2 O21 1.225 . S
C3 C2 1.491 . S
C3 C4 1.392 . S
C3 C8 1.356 . S
C4 C3 1.392 . S
C4 C5 1.368 . S
C4 H32 0.929 . S
C5 C4 1.368 . S
C5 C6 1.386 . S
C5 H33 0.929 . S
C6 C5 1.386 . S
C6 C7 1.373 . S
C7 C6 1.373 . S
C7 C8 1.409 . S
C7 H34 0.931 . S
C8 C3 1.356 . S
C8 C7 1.409 . S
C8 H35 0.930 . S
C9 O22 1.270 . S
C9 O23 1.248 1_455 S
C10 O24 1.267 . S
C10 O25 1.278 . S
C11 Pr1 2.880 . S
C11 C12 1.491 . S
C11 O26 1.254 . S
C11 O27 1.225 . S
C12 C11 1.491 . S
C12 C13 1.392 . S
C12 C17 1.356 . S
C13 C12 1.392 . S
C13 C14 1.368 . S
C13 H36 0.929 . S
C14 C13 1.368 . S
C14 C15 1.386 . S
C14 H37 0.929 . S
C15 C14 1.386 . S
C15 C16 1.373 . S
C16 C15 1.373 . S
C16 C17 1.409 . S
C16 H38 0.931 . S
C17 C12 1.356 . S
C17 C16 1.409 . S
C17 H39 0.930 . S
C18 O28 1.270 1_455 S
C18 O29 1.248 . S
C19 O30 1.267 . S
C19 O31 1.278 . S
O20 Pr0 2.562 . S
O20 C2 1.254 . S
O21 Pr0 2.490 . S
O21 C2 1.225 . S
O22 Pr0 2.695 1_455 S
O22 Pr1 2.436 . S
O22 C9 1.270 . S
O23 Pr0 2.512 . S
O23 C9 1.248 1_655 S
O24 Pr1 2.438 1_655 S
O24 C10 1.267 . S
O25 Pr0 2.437 . S
O25 C10 1.278 . S
O26 Pr1 2.562 . S
O26 C11 1.254 . S
O27 Pr1 2.490 . S
O27 C11 1.225 . S
O28 Pr0 2.436 . S
O28 Pr1 2.695 1_655 S
O28 C18 1.270 1_655 S
O29 Pr1 2.512 . S
O29 C18 1.248 . S
O30 Pr0 2.438 1_455 S
O30 C19 1.267 . S
O31 Pr1 2.437 . S
O31 C19 1.278 . S
H32 C4 0.929 . S
H33 C5 0.929 . S
H34 C7 0.931 . S
H35 C8 0.930 . S
H36 C13 0.929 . S
H37 C14 0.929 . S
H38 C16 0.931 . S
H39 C17 0.930 . S
Pr40 C42 2.880 . S
Pr40 O60 2.562 . S
Pr40 O61 2.490 . S
Pr40 O62 2.695 . S
Pr40 O63 2.512 . S
Pr40 O65 2.437 . S
Pr40 O68 2.436 . S
Pr40 O70 2.438 1_545 S
Pr41 C51 2.880 1_545 S
Pr41 O62 2.436 . S
Pr41 O64 2.438 . S
Pr41 O66 2.563 1_545 S
Pr41 O67 2.490 1_545 S
Pr41 O68 2.695 . S
Pr41 O69 2.512 . S
Pr41 O71 2.437 1_545 S
C42 Pr40 2.880 . S
C42 C43 1.491 . S
C42 O60 1.254 . S
C42 O61 1.225 . S
C43 C42 1.491 . S
C43 C44 1.392 . S
C43 C48 1.356 . S
C44 C43 1.392 . S
C44 C45 1.368 . S
C44 H72 0.929 . S
C45 C44 1.368 . S
C45 C46 1.386 . S
C45 H73 0.929 . S
C46 C45 1.386 . S
C46 C47 1.373 . S
C47 C46 1.373 . S
C47 C48 1.409 . S
C47 H74 0.931 . S
C48 C43 1.356 . S
C48 C47 1.409 . S
C48 H75 0.930 . S
C49 O62 1.270 . S
C49 O63 1.248 . S
C50 O64 1.267 . S
C50 O65 1.278 . S
C51 Pr41 2.880 1_565 S
C51 C52 1.491 . S
C51 O66 1.254 . S
C51 O67 1.225 . S
C52 C51 1.491 . S
C52 C53 1.392 . S
C52 C57 1.356 . S
C53 C52 1.392 . S
C53 C54 1.368 . S
C53 H76 0.929 . S
C54 C53 1.368 . S
C54 C55 1.386 . S
C54 H77 0.929 . S
C55 C54 1.386 . S
C55 C56 1.373 . S
C56 C55 1.373 . S
C56 C57 1.409 . S
C56 H78 0.931 . S
C57 C52 1.356 . S
C57 C56 1.409 . S
C57 H79 0.930 . S
C58 O68 1.270 . S
C58 O69 1.248 . S
C59 O70 1.267 . S
C59 O71 1.278 . S
O60 Pr40 2.562 . S
O60 C42 1.254 . S
O61 Pr40 2.490 . S
O61 C42 1.225 . S
O62 Pr40 2.695 . S
O62 Pr41 2.436 . S
O62 C49 1.270 . S
O63 Pr40 2.512 . S
O63 C49 1.248 . S
O64 Pr41 2.438 . S
O64 C50 1.267 . S
O65 Pr40 2.437 . S
O65 C50 1.278 . S
O66 Pr41 2.563 1_565 S
O66 C51 1.254 . S
O67 Pr41 2.490 1_565 S
O67 C51 1.225 . S
O68 Pr40 2.436 . S
O68 Pr41 2.695 . S
O68 C58 1.270 . S
O69 Pr41 2.512 . S
O69 C58 1.248 . S
O70 Pr40 2.438 1_565 S
O70 C59 1.267 . S
O71 Pr41 2.437 1_565 S
O71 C59 1.278 . S
H72 C44 0.929 . S
H73 C45 0.929 . S
H74 C47 0.931 . S
H75 C48 0.930 . S
H76 C53 0.929 . S
H77 C54 0.929 . S
H78 C56 0.931 . S
H79 C57 0.930 . S
Pr80 C82 2.880 . S
Pr80 O100 2.562 . S
Pr80 O101 2.490 . S
Pr80 O102 2.695 . S
Pr80 O103 2.512 . S
Pr80 O105 2.437 . S
Pr80 O108 2.436 . S
Pr80 O110 2.438 . S
Pr81 C91 2.880 . S
Pr81 O102 2.436 . S
Pr81 O104 2.438 . S
Pr81 O106 2.562 . S
Pr81 O107 2.490 . S
Pr81 O108 2.695 . S
Pr81 O109 2.512 . S
Pr81 O111 2.437 . S
C82 Pr80 2.880 . S
C82 C83 1.491 . S
C82 O100 1.254 . S
C82 O101 1.225 . S
C83 C82 1.491 . S
C83 C84 1.392 . S
C83 C88 1.356 . S
C84 C83 1.392 . S
C84 C85 1.368 . S
C84 H112 0.929 . S
C85 C84 1.368 . S
C85 C86 1.386 . S
C85 H113 0.929 . S
C86 C85 1.386 . S
C86 C87 1.373 . S
C87 C86 1.373 . S
C87 C88 1.409 . S
C87 H114 0.931 . S
C88 C83 1.356 . S
C88 C87 1.409 . S
C88 H115 0.930 . S
C89 O102 1.270 . S
C89 O103 1.248 . S
C90 O104 1.267 . S
C90 O105 1.278 . S
C91 Pr81 2.880 . S
C91 C92 1.491 . S
C91 O106 1.254 . S
C91 O107 1.225 . S
C92 C91 1.491 . S
C92 C93 1.392 . S
C92 C97 1.356 . S
C93 C92 1.392 . S
C93 C94 1.368 . S
C93 H116 0.929 . S
C94 C93 1.368 . S
C94 C95 1.386 . S
C94 H117 0.929 . S
C95 C94 1.386 . S
C95 C96 1.373 . S
C96 C95 1.373 . S
C96 C97 1.409 . S
C96 H118 0.931 . S
C97 C92 1.356 . S
C97 C96 1.409 . S
C97 H119 0.930 . S
C98 O108 1.270 . S
C98 O109 1.248 . S
C99 O110 1.267 . S
C99 O111 1.278 . S
O100 Pr80 2.562 . S
O100 C82 1.254 . S
O101 Pr80 2.490 . S
O101 C82 1.225 . S
O102 Pr80 2.695 . S
O102 Pr81 2.436 . S
O102 C89 1.270 . S
O103 Pr80 2.512 . S
O103 C89 1.248 . S
O104 Pr81 2.438 . S
O104 C90 1.267 . S
O105 Pr80 2.437 . S
O105 C90 1.278 . S
O106 Pr81 2.562 . S
O106 C91 1.254 . S
O107 Pr81 2.490 . S
O107 C91 1.225 . S
O108 Pr80 2.436 . S
O108 Pr81 2.695 . S
O108 C98 1.270 . S
O109 Pr81 2.512 . S
O109 C98 1.248 . S
O110 Pr80 2.438 . S
O110 C99 1.267 . S
O111 Pr81 2.437 . S
O111 C99 1.278 . S
H112 C84 0.929 . S
H113 C85 0.929 . S
H114 C87 0.931 . S
H115 C88 0.930 . S
H116 C93 0.929 . S
H117 C94 0.929 . S
H118 C96 0.931 . S
H119 C97 0.930 . S
C120 N121 1.317 . S
C120 N122 1.348 1_545 S
C120 C123 1.485 . S
N121 C120 1.317 . S
N121 N125 1.370 . S
N122 C120 1.348 1_565 S
N122 C124 1.346 . S
C123 C120 1.485 . S
C123 H127 0.960 . S
C123 H128 0.976 . S
C123 H129 0.960 . S
C124 N122 1.346 . S
C124 N125 1.307 1_565 S
C124 C126 1.486 . S
N125 N121 1.370 . S
N125 C124 1.307 1_545 S
C126 C124 1.486 . S
C126 H130 0.960 . S
C126 H131 0.960 . S
C126 H132 0.959 . S
H127 C123 0.960 . S
H128 C123 0.976 . S
H129 C123 0.960 . S
H130 C126 0.960 . S
H131 C126 0.960 . S
H132 C126 0.959 . S
C133 N134 1.317 . S
C133 N135 1.348 . S
C133 C136 1.485 . S
N134 C133 1.317 . S
N134 N138 1.370 . S
N135 C133 1.348 . S
N135 C137 1.346 . S
C136 C133 1.485 . S
C136 H140 0.960 . S
C136 H141 0.961 . S
C136 H142 0.960 . S
C137 N135 1.346 . S
C137 N138 1.307 . S
C137 C139 1.486 . S
N138 N134 1.370 . S
N138 C137 1.307 . S
C139 C137 1.486 . S
C139 H143 0.960 . S
C139 H144 0.960 . S
C139 H145 0.959 . S
H140 C136 0.960 . S
H141 C136 0.961 . S
H142 C136 0.960 . S
H143 C139 0.960 . S
H144 C139 0.960 . S
H145 C139 0.959 . S
C146 N147 1.317 . S
C146 N148 1.348 1_455 S
C146 C149 1.485 . S
N147 C146 1.317 . S
N147 N151 1.370 . S
N148 C146 1.348 1_655 S
N148 C150 1.346 . S
C149 C146 1.485 . S
C149 H153 0.960 . S
C149 H154 0.961 . S
C149 H155 0.960 . S
C150 N148 1.346 . S
C150 N151 1.307 1_655 S
C150 C152 1.486 . S
N151 N147 1.370 . S
N151 C150 1.307 1_455 S
C152 C150 1.486 . S
C152 H156 0.960 . S
C152 H157 0.960 . S
C152 H158 0.959 . S
H153 C149 0.960 . S
H154 C149 0.961 . S
H155 C149 0.960 . S
H156 C152 0.960 . S
H157 C152 0.960 . S
H158 C152 0.959 . S
C159 N160 1.317 . S
C159 N161 1.348 . S
C159 C162 1.485 . S
N160 C159 1.317 . S
N160 N164 1.370 . S
N161 C159 1.348 . S
N161 C163 1.346 . S
C162 C159 1.485 . S
C162 H166 0.960 . S
C162 H167 0.961 . S
C162 H168 0.960 . S
C163 N161 1.346 . S
C163 N164 1.307 . S
C163 C165 1.486 . S
N164 N160 1.370 . S
N164 C163 1.307 . S
C165 C163 1.486 . S
C165 H169 0.960 . S
C165 H170 0.960 . S
C165 H171 0.959 . S
H166 C162 0.960 . S
H167 C162 0.961 . S
H168 C162 0.960 . S
H169 C165 0.960 . S
H170 C165 0.960 . S
H171 C165 0.959 . S
C172 N173 1.317 . S
C172 N174 1.348 . S
C172 C175 1.485 . S
N173 C172 1.317 . S
N173 N177 1.370 . S
N174 C172 1.348 . S
N174 C176 1.346 . S
C175 C172 1.485 . S
C175 H179 0.960 . S
C175 H180 0.961 . S
C175 H181 0.960 . S
C176 N174 1.346 . S
C176 N177 1.307 . S
C176 C178 1.486 . S
N177 N173 1.370 . S
N177 C176 1.307 . S
C178 C176 1.486 . S
C178 H182 0.960 . S
C178 H183 0.960 . S
C178 H184 0.959 . S
H179 C175 0.960 . S
H180 C175 0.961 . S
H181 C175 0.960 . S
H182 C178 0.960 . S
H183 C178 0.960 . S
H184 C178 0.959 . S
C185 N186 1.317 . S
C185 N187 1.348 . S
C185 C188 1.485 . S
N186 C185 1.317 . S
N186 N190 1.370 . S
N187 C185 1.348 . S
N187 C189 1.346 . S
C188 C185 1.485 . S
C188 H192 0.960 . S
C188 H193 0.961 . S
C188 H194 0.960 . S
C189 N187 1.346 . S
C189 N190 1.307 . S
C189 C191 1.486 . S
N190 N186 1.370 . S
N190 C189 1.307 . S
C191 C189 1.486 . S
C191 H195 0.960 . S
C191 H196 0.960 . S
C191 H197 0.959 . S
H192 C188 0.960 . S
H193 C188 0.961 . S
H194 C188 0.960 . S
H195 C191 0.960 . S
H196 C191 0.960 . S
H197 C191 0.959 . S
H198 C206 0.929 . S
H199 C208 0.930 . S
H200 C210 0.930 . S
H201 C213 0.929 . S
H202 C216 0.930 . S
H203 C218 0.960 . S
H204 C218 0.960 . S
H205 C218 0.960 . S
C206 H198 0.929 . S
C206 C207 1.377 . S
C206 C208 1.384 . S
C207 C206 1.377 . S
C207 C213 1.390 . S
C208 H199 0.930 . S
C208 C206 1.384 . S
C208 C209 1.372 . S
C209 C208 1.372 . S
C209 C210 1.400 . S
C209 C214 1.490 . S
C210 H200 0.930 . S
C210 C209 1.400 . S
C210 C213 1.386 . S
H211 C227 0.930 . S
H212 C228 0.931 . S
C213 H201 0.929 . S
C213 C207 1.390 . S
C213 C210 1.386 . S
C214 C209 1.490 . S
C214 C216 1.395 . S
C214 C217 1.403 . S
H215 C221 0.930 . S
C216 H202 0.930 . S
C216 C214 1.395 . S
C216 C219 1.403 . S
C217 C214 1.403 . S
C217 C218 1.524 . S
C217 C221 1.400 . S
C218 H203 0.960 . S
C218 H204 0.960 . S
C218 H205 0.960 . S
C218 C217 1.524 . S
C219 C216 1.403 . S
C219 C220 1.392 . S
C219 C223 1.495 . S
C220 C219 1.392 . S
C220 C221 1.385 . S
C220 C222 1.478 . S
C221 H215 0.930 . S
C221 C217 1.400 . S
C221 C220 1.385 . S
C222 C220 1.478 . S
C222 C224 1.381 . S
C222 C228 1.383 . S
C223 C219 1.495 . S
C223 H229 0.959 . S
C223 H230 0.961 . S
C223 H231 0.960 . S
C224 C222 1.381 . S
C224 C225 1.394 . S
C224 H232 0.930 . S
C225 C224 1.394 . S
C225 C226 1.383 . S
C225 H233 0.929 . S
C226 C225 1.383 . S
C226 C227 1.377 . S
C227 H211 0.930 . S
C227 C226 1.377 . S
C227 C228 1.379 . S
C228 H212 0.931 . S
C228 C222 1.383 . S
C228 C227 1.379 . S
H229 C223 0.959 . S
H230 C223 0.961 . S
H231 C223 0.960 . S
H232 C224 0.930 . S
H233 C225 0.929 . S
H234 C242 0.929 . S
H235 C244 0.930 . S
H236 C246 0.930 . S
H237 C249 0.929 . S
H238 C252 0.930 . S
H239 C254 0.960 . S
H240 C254 0.960 . S
H241 C254 0.960 . S
C242 H234 0.929 . S
C242 C243 1.377 . S
C242 C244 1.384 . S
C243 C242 1.377 . S
C243 C249 1.390 . S
C244 H235 0.930 . S
C244 C242 1.384 . S
C244 C245 1.372 . S
C245 C244 1.372 . S
C245 C246 1.400 . S
C245 C250 1.490 . S
C246 H236 0.930 . S
C246 C245 1.400 . S
C246 C249 1.386 . S
H247 C263 0.944 . S
H248 C264 0.931 . S
C249 H237 0.929 . S
C249 C243 1.390 . S
C249 C246 1.386 . S
C250 C245 1.490 . S
C250 C252 1.395 . S
C250 C253 1.403 . S
H251 C257 0.930 . S
C252 H238 0.930 . S
C252 C250 1.395 . S
C252 C255 1.403 . S
C253 C250 1.403 . S
C253 C254 1.524 . S
C253 C257 1.400 . S
C254 H239 0.960 . S
C254 H240 0.960 . S
C254 H241 0.960 . S
C254 C253 1.524 . S
C255 C252 1.403 . S
C255 C256 1.392 . S
C255 C259 1.495 . S
C256 C255 1.392 . S
C256 C257 1.385 . S
C256 C258 1.478 . S
C257 H251 0.930 . S
C257 C253 1.400 . S
C257 C256 1.385 . S
C258 C256 1.478 . S
C258 C260 1.381 . S
C258 C264 1.383 . S
C259 C255 1.495 . S
C259 H265 0.959 . S
C259 H266 0.961 . S
C259 H267 0.960 . S
C260 C258 1.381 . S
C260 C261 1.394 . S
C260 H268 0.930 . S
C261 C260 1.394 . S
C261 C262 1.383 1_655 S
C261 H269 0.929 . S
C262 C261 1.383 1_455 S
C262 C263 1.375 . S
C263 H247 0.944 . S
C263 C262 1.375 . S
C263 C264 1.367 1_455 S
C264 H248 0.931 . S
C264 C258 1.383 . S
C264 C263 1.367 1_655 S
H265 C259 0.959 . S
H266 C259 0.961 . S
H267 C259 0.960 . S
H268 C260 0.930 . S
H269 C261 0.929 . S
H270 C278 0.929 . S
H271 C280 0.930 . S
H272 C282 0.930 . S
H273 C285 0.929 . S
H274 C288 0.930 . S
H275 C290 0.960 . S
H276 C290 0.960 . S
H277 C290 0.960 . S
C278 H270 0.929 . S
C278 C279 1.377 . S
C278 C280 1.384 . S
C279 C278 1.377 . S
C279 C285 1.390 . S
C280 H271 0.930 . S
C280 C278 1.384 . S
C280 C281 1.372 . S
C281 C280 1.372 . S
C281 C282 1.400 . S
C281 C286 1.490 . S
C282 H272 0.930 . S
C282 C281 1.400 . S
C282 C285 1.386 . S
H283 C299 0.930 . S
H284 C300 0.931 . S
C285 H273 0.929 . S
C285 C279 1.390 . S
C285 C282 1.386 . S
C286 C281 1.490 . S
C286 C288 1.395 . S
C286 C289 1.403 . S
H287 C293 0.930 . S
C288 H274 0.930 . S
C288 C286 1.395 . S
C288 C291 1.403 . S
C289 C286 1.403 . S
C289 C290 1.524 . S
C289 C293 1.400 . S
C290 H275 0.960 . S
C290 H276 0.960 . S
C290 H277 0.960 . S
C290 C289 1.524 . S
C291 C288 1.403 . S
C291 C292 1.392 . S
C291 C295 1.495 . S
C292 C291 1.392 . S
C292 C293 1.385 . S
C292 C294 1.478 . S
C293 H287 0.930 . S
C293 C289 1.400 . S
C293 C292 1.385 . S
C294 C292 1.478 . S
C294 C296 1.381 . S
C294 C300 1.383 . S
C295 C291 1.495 . S
C295 H301 0.959 . S
C295 H302 0.961 . S
C295 H303 0.960 . S
C296 C294 1.381 . S
C296 C297 1.394 . S
C296 H304 0.930 . S
C297 C296 1.394 . S
C297 C298 1.383 1_565 S
C297 H305 0.929 . S
C298 C297 1.383 1_545 S
C298 C299 1.377 . S
C299 H283 0.930 . S
C299 C298 1.377 . S
C299 C300 1.379 1_545 S
C300 H284 0.931 . S
C300 C294 1.383 . S
C300 C299 1.379 1_565 S
H301 C295 0.959 . S
H302 C295 0.961 . S
H303 C295 0.960 . S
H304 C296 0.930 . S
H305 C297 0.929 . S
H306 C314 0.929 . S
H307 C316 0.930 . S
H308 C318 0.930 . S
H309 C321 0.929 . S
H310 C324 0.930 . S
H311 C326 0.960 . S
H312 C326 0.960 . S
H313 C326 0.960 . S
C314 H306 0.929 . S
C314 C315 1.377 . S
C314 C316 1.384 . S
C315 C314 1.377 . S
C315 C321 1.390 . S
C316 H307 0.930 . S
C316 C314 1.384 . S
C316 C317 1.372 . S
C317 C316 1.372 . S
C317 C318 1.400 . S
C317 C322 1.490 . S
C318 H308 0.930 . S
C318 C317 1.400 . S
C318 C321 1.386 . S
H319 C335 0.930 . S
H320 C336 0.931 . S
C321 H309 0.929 . S
C321 C315 1.390 . S
C321 C318 1.386 . S
C322 C317 1.490 . S
C322 C324 1.395 . S
C322 C325 1.403 . S
H323 C329 0.930 . S
C324 H310 0.930 . S
C324 C322 1.395 . S
C324 C327 1.403 . S
C325 C322 1.403 . S
C325 C326 1.524 . S
C325 C329 1.400 . S
C326 H311 0.960 . S
C326 H312 0.960 . S
C326 H313 0.960 . S
C326 C325 1.524 . S
C327 C324 1.403 . S
C327 C328 1.392 . S
C327 C331 1.495 . S
C328 C327 1.392 . S
C328 C329 1.385 . S
C328 C330 1.478 . S
C329 H323 0.930 . S
C329 C325 1.400 . S
C329 C328 1.385 . S
C330 C328 1.478 . S
C330 C332 1.381 . S
C330 C336 1.383 . S
C331 C327 1.495 . S
C331 H337 0.959 . S
C331 H338 0.961 . S
C331 H339 0.960 . S
C332 C330 1.381 . S
C332 C333 1.394 . S
C332 H340 0.930 . S
C333 C332 1.394 . S
C333 C334 1.383 . S
C333 H341 0.929 . S
C334 C333 1.383 . S
C334 C335 1.377 . S
C335 H319 0.930 . S
C335 C334 1.377 . S
C335 C336 1.379 . S
C336 H320 0.931 . S
C336 C330 1.383 . S
C336 C335 1.379 . S
H337 C331 0.959 . S
H338 C331 0.961 . S
H339 C331 0.960 . S
H340 C332 0.930 . S
H341 C333 0.929 . S
H342 C350 0.929 . S
H343 C352 0.930 . S
H344 C354 0.930 . S
H345 C357 0.929 . S
H346 C360 0.930 . S
H347 C362 0.960 . S
H348 C362 0.960 . S
H349 C362 0.960 . S
C350 H342 0.929 . S
C350 C351 1.377 . S
C350 C352 1.384 . S
C351 C350 1.377 . S
C351 C357 1.390 . S
C352 H343 0.930 . S
C352 C350 1.384 . S
C352 C353 1.372 . S
C353 C352 1.372 . S
C353 C354 1.400 . S
C353 C358 1.490 . S
C354 H344 0.930 . S
C354 C353 1.400 . S
C354 C357 1.386 . S
H355 C371 0.930 . S
H356 C372 0.931 . S
C357 H345 0.929 . S
C357 C351 1.390 . S
C357 C354 1.386 . S
C358 C353 1.490 . S
C358 C360 1.395 . S
C358 C361 1.403 . S
H359 C365 0.930 . S
C360 H346 0.930 . S
C360 C358 1.395 . S
C360 C363 1.403 . S
C361 C358 1.403 . S
C361 C362 1.524 . S
C361 C365 1.400 . S
C362 H347 0.960 . S
C362 H348 0.960 . S
C362 H349 0.960 . S
C362 C361 1.524 . S
C363 C360 1.403 . S
C363 C364 1.392 . S
C363 C367 1.495 . S
C364 C363 1.392 . S
C364 C365 1.385 . S
C364 C366 1.478 . S
C365 H359 0.930 . S
C365 C361 1.400 . S
C365 C364 1.385 . S
C366 C364 1.478 . S
C366 C368 1.381 . S
C366 C372 1.383 . S
C367 C363 1.495 . S
C367 H373 0.959 . S
C367 H374 0.961 . S
C367 H375 0.960 . S
C368 C366 1.381 . S
C368 C369 1.394 . S
C368 H376 0.930 . S
C369 C368 1.394 . S
C369 C370 1.383 . S
C369 H377 0.929 . S
C370 C369 1.383 . S
C370 C371 1.377 . S
C371 H355 0.930 . S
C371 C370 1.377 . S
C371 C372 1.379 . S
C372 H356 0.931 . S
C372 C366 1.383 . S
C372 C371 1.379 . S
H373 C367 0.959 . S
H374 C367 0.961 . S
H375 C367 0.960 . S
H376 C368 0.930 . S
H377 C369 0.929 . S
H378 C386 0.929 . S
H379 C388 0.930 . S
H380 C390 0.930 . S
H381 C393 0.929 . S
H382 C396 0.930 . S
H383 C398 0.960 . S
H384 C398 0.960 . S
H385 C398 0.960 . S
C386 H378 0.929 . S
C386 C387 1.377 . S
C386 C388 1.384 . S
C387 C386 1.377 . S
C387 C393 1.390 . S
C388 H379 0.930 . S
C388 C386 1.384 . S
C388 C389 1.372 . S
C389 C388 1.372 . S
C389 C390 1.400 . S
C389 C394 1.490 . S
C390 H380 0.930 . S
C390 C389 1.400 . S
C390 C393 1.386 . S
H391 C407 0.930 . S
H392 C408 0.931 . S
C393 H381 0.929 . S
C393 C387 1.390 . S
C393 C390 1.386 . S
C394 C389 1.490 . S
C394 C396 1.395 . S
C394 C397 1.403 . S
H395 C401 0.930 . S
C396 H382 0.930 . S
C396 C394 1.395 . S
C396 C399 1.403 . S
C397 C394 1.403 . S
C397 C398 1.524 . S
C397 C401 1.400 . S
C398 H383 0.960 . S
C398 H384 0.960 . S
C398 H385 0.960 . S
C398 C397 1.524 . S
C399 C396 1.403 . S
C399 C400 1.392 . S
C399 C403 1.495 . S
C400 C399 1.392 . S
C400 C401 1.385 . S
C400 C402 1.478 . S
C401 H395 0.930 . S
C401 C397 1.400 . S
C401 C400 1.385 . S
C402 C400 1.478 . S
C402 C404 1.381 . S
C402 C408 1.383 . S
C403 C399 1.495 . S
C403 H409 0.959 . S
C403 H410 0.961 . S
C403 H411 0.960 . S
C404 C402 1.381 . S
C404 C405 1.394 . S
C404 H412 0.930 . S
C405 C404 1.394 . S
C405 C406 1.383 . S
C405 H413 0.929 . S
C406 C405 1.383 . S
C406 C407 1.377 . S
C407 H391 0.930 . S
C407 C406 1.377 . S
C407 C408 1.379 . S
C408 H392 0.931 . S
C408 C402 1.383 . S
C408 C407 1.379 . S
H409 C403 0.959 . S
H410 C403 0.961 . S
H411 C403 0.960 . S
H412 C404 0.930 . S
H413 C405 0.929 . S
H414 C422 0.929 . S
H415 C424 0.930 . S
H416 C426 0.930 . S
H417 C429 0.929 . S
H418 C432 0.930 . S
H419 C434 0.960 . S
H420 C434 0.960 . S
H421 C434 0.960 . S
C422 H414 0.929 . S
C422 C423 1.377 . S
C422 C424 1.384 . S
C423 C422 1.377 . S
C423 C429 1.390 . S
C424 H415 0.930 . S
C424 C422 1.384 . S
C424 C425 1.372 . S
C425 C424 1.372 . S
C425 C426 1.400 . S
C425 C430 1.490 . S
C426 H416 0.930 . S
C426 C425 1.400 . S
C426 C429 1.386 . S
H427 C443 0.930 . S
H428 C444 0.931 . S
C429 H417 0.929 . S
C429 C423 1.390 . S
C429 C426 1.386 . S
C430 C425 1.490 . S
C430 C432 1.395 . S
C430 C433 1.403 . S
H431 C437 0.930 . S
C432 H418 0.930 . S
C432 C430 1.395 . S
C432 C435 1.403 . S
C433 C430 1.403 . S
C433 C434 1.524 . S
C433 C437 1.400 . S
C434 H419 0.960 . S
C434 H420 0.960 . S
C434 H421 0.960 . S
C434 C433 1.524 . S
C435 C432 1.403 . S
C435 C436 1.392 . S
C435 C439 1.495 . S
C436 C435 1.392 . S
C436 C437 1.385 . S
C436 C438 1.478 . S
C437 H431 0.930 . S
C437 C433 1.400 . S
C437 C436 1.385 . S
C438 C436 1.478 . S
C438 C440 1.381 . S
C438 C444 1.383 . S
C439 C435 1.495 . S
C439 H445 0.959 . S
C439 H446 0.961 . S
C439 H447 0.960 . S
C440 C438 1.381 . S
C440 C441 1.394 . S
C440 H448 0.930 . S
C441 C440 1.394 . S
C441 C442 1.383 . S
C441 H449 0.929 . S
C442 C441 1.383 . S
C442 C443 1.377 . S
C443 H427 0.930 . S
C443 C442 1.377 . S
C443 C444 1.379 . S
C444 H428 0.931 . S
C444 C438 1.383 . S
C444 C443 1.379 . S
H445 C439 0.959 . S
H446 C439 0.961 . S
H447 C439 0.960 . S
H448 C440 0.930 . S
H449 C441 0.929 . S
H450 C458 0.929 . S
H451 C460 0.930 . S
H452 C462 0.930 . S
H453 C465 0.929 . S
H454 C468 0.930 . S
H455 C470 0.960 . S
H456 C470 0.960 . S
H457 C470 0.960 . S
C458 H450 0.929 . S
C458 C459 1.377 . S
C458 C460 1.384 . S
C459 C458 1.377 . S
C459 C465 1.390 . S
C460 H451 0.930 . S
C460 C458 1.384 . S
C460 C461 1.372 . S
C461 C460 1.372 . S
C461 C462 1.400 . S
C461 C466 1.490 . S
C462 H452 0.930 . S
C462 C461 1.400 . S
C462 C465 1.386 . S
H463 C479 0.930 . S
H464 C480 0.931 . S
C465 H453 0.929 . S
C465 C459 1.390 . S
C465 C462 1.386 . S
C466 C461 1.490 . S
C466 C468 1.395 . S
C466 C469 1.403 . S
H467 C473 0.930 . S
C468 H454 0.930 . S
C468 C466 1.395 . S
C468 C471 1.403 . S
C469 C466 1.403 . S
C469 C470 1.524 . S
C469 C473 1.400 . S
C470 H455 0.960 . S
C470 H456 0.960 . S
C470 H457 0.960 . S
C470 C469 1.524 . S
C471 C468 1.403 . S
C471 C472 1.392 . S
C471 C475 1.495 . S
C472 C471 1.392 . S
C472 C473 1.385 . S
C472 C474 1.478 . S
C473 H467 0.930 . S
C473 C469 1.400 . S
C473 C472 1.385 . S
C474 C472 1.478 . S
C474 C476 1.381 . S
C474 C480 1.383 . S
C475 C471 1.495 . S
C475 H481 0.959 . S
C475 H482 0.961 . S
C475 H483 0.960 . S
C476 C474 1.381 . S
C476 C477 1.394 . S
C476 H484 0.930 . S
C477 C476 1.394 . S
C477 C478 1.383 . S
C477 H485 0.929 . S
C478 C477 1.383 . S
C478 C479 1.377 . S
C479 H463 0.930 . S
C479 C478 1.377 . S
C479 C480 1.379 . S
C480 H464 0.931 . S
C480 C474 1.383 . S
C480 C479 1.379 . S
H481 C475 0.959 . S
H482 C475 0.961 . S
H483 C475 0.960 . S
H484 C476 0.930 . S
H485 C477 0.929 . S
H486 C494 0.929 . S
H487 C496 0.930 . S
H488 C498 0.930 . S
H489 C501 0.929 . S
H490 C504 0.930 . S
H491 C506 0.960 . S
H492 C506 0.960 . S
H493 C506 0.960 . S
C494 H486 0.929 . S
C494 C495 1.377 . S
C494 C496 1.384 . S
C495 C494 1.377 . S
C495 C501 1.390 . S
C496 H487 0.930 . S
C496 C494 1.384 . S
C496 C497 1.372 . S
C497 C496 1.372 . S
C497 C498 1.400 . S
C497 C502 1.490 . S
C498 H488 0.930 . S
C498 C497 1.400 . S
C498 C501 1.386 . S
H499 C515 0.930 . S
H500 C516 0.931 . S
C501 H489 0.929 . S
C501 C495 1.390 . S
C501 C498 1.386 . S
C502 C497 1.490 . S
C502 C504 1.395 . S
C502 C505 1.403 . S
H503 C509 0.930 . S
C504 H490 0.930 . S
C504 C502 1.395 . S
C504 C507 1.403 . S
C505 C502 1.403 . S
C505 C506 1.524 . S
C505 C509 1.400 . S
C506 H491 0.960 . S
C506 H492 0.960 . S
C506 H493 0.960 . S
C506 C505 1.524 . S
C507 C504 1.403 . S
C507 C508 1.392 . S
C507 C511 1.495 . S
C508 C507 1.392 . S
C508 C509 1.385 . S
C508 C510 1.478 . S
C509 H503 0.930 . S
C509 C505 1.400 . S
C509 C508 1.385 . S
C510 C508 1.478 . S
C510 C512 1.381 . S
C510 C516 1.383 . S
C511 C507 1.495 . S
C511 H517 0.959 . S
C511 H518 0.961 . S
C511 H519 0.960 . S
C512 C510 1.381 . S
C512 C513 1.394 . S
C512 H520 0.930 . S
C513 C512 1.394 . S
C513 C514 1.383 . S
C513 H521 0.929 . S
C514 C513 1.383 . S
C514 C515 1.377 . S
C515 H499 0.930 . S
C515 C514 1.377 . S
C515 C516 1.379 . S
C516 H500 0.931 . S
C516 C510 1.383 . S
C516 C515 1.379 . S
H517 C511 0.959 . S
H518 C511 0.961 . S
H519 C511 0.960 . S
H520 C512 0.930 . S
H521 C513 0.929 . S
H522 C530 0.929 . S
H523 C532 0.930 . S
H524 C534 0.930 . S
H525 C537 0.929 . S
H526 C540 0.930 . S
H527 C542 0.960 . S
H528 C542 0.960 . S
H529 C542 0.960 . S
C530 H522 0.929 . S
C530 C531 1.377 . S
C530 C532 1.384 . S
C531 C530 1.377 . S
C531 C537 1.390 . S
C532 H523 0.930 . S
C532 C530 1.384 . S
C532 C533 1.372 . S
C533 C532 1.372 . S
C533 C534 1.400 . S
C533 C538 1.490 . S
C534 H524 0.930 . S
C534 C533 1.400 . S
C534 C537 1.386 . S
H535 C551 0.930 . S
H536 C552 0.931 . S
C537 H525 0.929 . S
C537 C531 1.390 . S
C537 C534 1.386 . S
C538 C533 1.490 . S
C538 C540 1.395 . S
C538 C541 1.403 . S
H539 C545 0.930 . S
C540 H526 0.930 . S
C540 C538 1.395 . S
C540 C543 1.403 . S
C541 C538 1.403 . S
C541 C542 1.524 . S
C541 C545 1.400 . S
C542 H527 0.960 . S
C542 H528 0.960 . S
C542 H529 0.960 . S
C542 C541 1.524 . S
C543 C540 1.403 . S
C543 C544 1.392 . S
C543 C547 1.495 . S
C544 C543 1.392 . S
C544 C545 1.385 . S
C544 C546 1.478 . S
C545 H539 0.930 . S
C545 C541 1.400 . S
C545 C544 1.385 . S
C546 C544 1.478 . S
C546 C548 1.381 . S
C546 C552 1.383 . S
C547 C543 1.495 . S
C547 H553 0.959 . S
C547 H554 0.961 . S
C547 H555 0.960 . S
C548 C546 1.381 . S
C548 C549 1.394 . S
C548 H556 0.930 . S
C549 C548 1.394 . S
C549 C550 1.383 . S
C549 H557 0.929 . S
C550 C549 1.383 . S
C550 C551 1.377 . S
C551 H535 0.930 . S
C551 C550 1.377 . S
C551 C552 1.379 . S
C552 H536 0.931 . S
C552 C546 1.383 . S
C552 C551 1.379 . S
H553 C547 0.959 . S
H554 C547 0.961 . S
H555 C547 0.960 . S
H556 C548 0.930 . S
H557 C549 0.929 . S
H558 C566 0.929 . S
H559 C568 0.930 . S
H560 C570 0.930 . S
H561 C573 0.929 . S
H562 C576 0.930 . S
H563 C578 0.960 . S
H564 C578 0.960 . S
H565 C578 0.960 . S
C566 H558 0.929 . S
C566 C567 1.377 . S
C566 C568 1.384 . S
C567 C566 1.377 . S
C567 C573 1.390 . S
C568 H559 0.930 . S
C568 C566 1.384 . S
C568 C569 1.372 . S
C569 C568 1.372 . S
C569 C570 1.400 . S
C569 C574 1.490 . S
C570 H560 0.930 . S
C570 C569 1.400 . S
C570 C573 1.386 . S
H571 C587 0.930 . S
H572 C588 0.931 . S
C573 H561 0.929 . S
C573 C567 1.390 . S
C573 C570 1.386 . S
C574 C569 1.490 . S
C574 C576 1.395 . S
C574 C577 1.403 . S
H575 C581 0.930 . S
C576 H562 0.930 . S
C576 C574 1.395 . S
C576 C579 1.403 . S
C577 C574 1.403 . S
C577 C578 1.524 . S
C577 C581 1.400 . S
C578 H563 0.960 . S
C578 H564 0.960 . S
C578 H565 0.960 . S
C578 C577 1.524 . S
C579 C576 1.403 . S
C579 C580 1.392 . S
C579 C583 1.495 . S
C580 C579 1.392 . S
C580 C581 1.385 . S
C580 C582 1.478 . S
C581 H575 0.930 . S
C581 C577 1.400 . S
C581 C580 1.385 . S
C582 C580 1.478 . S
C582 C584 1.381 . S
C582 C588 1.383 . S
C583 C579 1.495 . S
C583 H589 0.959 . S
C583 H590 0.961 . S
C583 H591 0.960 . S
C584 C582 1.381 . S
C584 C585 1.394 . S
C584 H592 0.930 . S
C585 C584 1.394 . S
C585 C586 1.383 . S
C585 H593 0.929 . S
C586 C585 1.383 . S
C586 C587 1.377 . S
C587 H571 0.930 . S
C587 C586 1.377 . S
C587 C588 1.379 . S
C588 H572 0.931 . S
C588 C582 1.383 . S
C588 C587 1.379 . S
H589 C583 0.959 . S
H590 C583 0.961 . S
H591 C583 0.960 . S
H592 C584 0.930 . S
H593 C585 0.929 . S
H594 C602 0.929 . S
H595 C604 0.930 . S
H596 C606 0.930 . S
H597 C609 0.929 . S
H598 C612 0.930 . S
H599 C614 0.960 . S
H600 C614 0.960 . S
H601 C614 0.960 . S
C602 H594 0.929 . S
C602 C603 1.377 . S
C602 C604 1.384 . S
C603 C602 1.377 . S
C603 C609 1.390 . S
C604 H595 0.930 . S
C604 C602 1.384 . S
C604 C605 1.372 . S
C605 C604 1.372 . S
C605 C606 1.400 . S
C605 C610 1.490 . S
C606 H596 0.930 . S
C606 C605 1.400 . S
C606 C609 1.386 . S
H607 C623 0.930 . S
H608 C624 0.931 . S
C609 H597 0.929 . S
C609 C603 1.390 . S
C609 C606 1.386 . S
C610 C605 1.490 . S
C610 C612 1.395 . S
C610 C613 1.403 . S
H611 C617 0.930 . S
C612 H598 0.930 . S
C612 C610 1.395 . S
C612 C615 1.403 . S
C613 C610 1.403 . S
C613 C614 1.524 . S
C613 C617 1.400 . S
C614 H599 0.960 . S
C614 H600 0.960 . S
C614 H601 0.960 . S
C614 C613 1.524 . S
C615 C612 1.403 . S
C615 C616 1.392 . S
C615 C619 1.495 . S
C616 C615 1.392 . S
C616 C617 1.385 . S
C616 C618 1.478 . S
C617 H611 0.930 . S
C617 C613 1.400 . S
C617 C616 1.385 . S
C618 C616 1.478 . S
C618 C620 1.381 . S
C618 C624 1.383 . S
C619 C615 1.495 . S
C619 H625 0.959 . S
C619 H626 0.961 . S
C619 H627 0.960 . S
C620 C618 1.381 . S
C620 C621 1.394 . S
C620 H628 0.930 . S
C621 C620 1.394 . S
C621 C622 1.383 . S
C621 H629 0.929 . S
C622 C621 1.383 . S
C622 C623 1.377 . S
C623 H607 0.930 . S
C623 C622 1.377 . S
C623 C624 1.379 . S
C624 H608 0.931 . S
C624 C618 1.383 . S
C624 C623 1.379 . S
H625 C619 0.959 . S
H626 C619 0.961 . S
H627 C619 0.960 . S
H628 C620 0.930 . S
H629 C621 0.929 . S
H630 C638 0.929 . S
H631 C640 0.930 . S
H632 C642 0.930 . S
H633 C645 0.929 . S
H634 C648 0.930 . S
H635 C650 0.960 . S
H636 C650 0.960 . S
H637 C650 0.960 . S
C638 H630 0.929 . S
C638 C639 1.377 . S
C638 C640 1.384 . S
C639 C638 1.377 . S
C639 C645 1.390 1_455 S
C640 H631 0.930 . S
C640 C638 1.384 . S
C640 C641 1.372 . S
C641 C640 1.372 . S
C641 C642 1.400 1_455 S
C641 C646 1.490 . S
C642 H632 0.930 . S
C642 C641 1.400 1_655 S
C642 C645 1.386 . S
H643 C659 0.930 . S
H644 C660 0.931 . S
C645 H633 0.929 . S
C645 C639 1.390 1_655 S
C645 C642 1.386 . S
C646 C641 1.490 . S
C646 C648 1.395 . S
C646 C649 1.403 . S
H647 C653 0.930 . S
C648 H634 0.930 . S
C648 C646 1.395 . S
C648 C651 1.403 1_554 S
C649 C646 1.403 . S
C649 C650 1.524 . S
C649 C653 1.400 1_554 S
C650 H635 0.960 . S
C650 H636 0.960 . S
C650 H637 0.960 . S
C650 C649 1.524 . S
C651 C648 1.403 1_556 S
C651 C652 1.392 . S
C651 C655 1.495 . S
C652 C651 1.392 . S
C652 C653 1.385 . S
C652 C654 1.478 . S
C653 H647 0.930 . S
C653 C649 1.400 1_556 S
C653 C652 1.385 . S
C654 C652 1.478 . S
C654 C656 1.381 . S
C654 C660 1.383 1_455 S
C655 C651 1.495 . S
C655 H661 0.959 . S
C655 H662 0.961 1_455 S
C655 H663 0.960 . S
C656 C654 1.381 . S
C656 C657 1.394 . S
C656 H664 0.930 . S
C657 C656 1.394 . S
C657 C658 1.383 . S
C657 H665 0.929 . S
C658 C657 1.383 . S
C658 C659 1.377 1_455 S
C659 H643 0.930 . S
C659 C658 1.377 1_655 S
C659 C660 1.379 . S
C660 H644 0.931 . S
C660 C654 1.383 1_655 S
C660 C659 1.379 . S
H661 C655 0.959 . S
H662 C655 0.961 1_655 S
H663 C655 0.960 . S
H664 C656 0.930 . S
H665 C657 0.929 . S
H666 C674 0.929 . S
H667 C676 0.930 . S
H668 C678 0.930 . S
H669 C681 0.929 . S
H670 C684 0.930 . S
H671 C686 0.960 . S
H672 C686 0.960 . S
H673 C686 0.960 . S
C674 H666 0.929 . S
C674 C675 1.377 1_565 S
C674 C676 1.384 . S
C675 C674 1.377 1_545 S
C675 C681 1.390 . S
C676 H667 0.930 . S
C676 C674 1.384 . S
C676 C677 1.372 1_565 S
C677 C676 1.372 1_545 S
C677 C678 1.400 . S
C677 C682 1.490 . S
C678 H668 0.930 . S
C678 C677 1.400 . S
C678 C681 1.386 . S
H679 C695 0.930 . S
H680 C696 0.931 . S
C681 H669 0.929 . S
C681 C675 1.390 . S
C681 C678 1.386 . S
C682 C677 1.490 . S
C682 C684 1.395 . S
C682 C685 1.403 . S
H683 C689 0.930 . S
C684 H670 0.930 . S
C684 C682 1.395 . S
C684 C687 1.403 . S
C685 C682 1.403 . S
C685 C686 1.524 . S
C685 C689 1.400 . S
C686 H671 0.960 . S
C686 H672 0.960 . S
C686 H673 0.960 . S
C686 C685 1.524 . S
C687 C684 1.403 . S
C687 C688 1.392 . S
C687 C691 1.495 . S
C688 C687 1.392 . S
C688 C689 1.385 . S
C688 C690 1.478 . S
C689 H683 0.930 . S
C689 C685 1.400 . S
C689 C688 1.385 . S
C690 C688 1.478 . S
C690 C692 1.381 1_545 S
C690 C696 1.383 . S
C691 C687 1.495 . S
C691 H697 0.959 . S
C691 H698 0.961 . S
C691 H699 0.960 1_545 S
C692 C690 1.381 1_565 S
C692 C693 1.394 . S
C692 H700 0.930 . S
C693 C692 1.394 . S
C693 C694 1.383 1_565 S
C693 H701 0.929 . S
C694 C693 1.383 1_545 S
C694 C695 1.377 . S
C695 H679 0.930 . S
C695 C694 1.377 . S
C695 C696 1.379 . S
C696 H680 0.931 . S
C696 C690 1.383 . S
C696 C695 1.379 . S
H697 C691 0.959 . S
H698 C691 0.961 . S
H699 C691 0.960 1_565 S
H700 C692 0.930 . S
H701 C693 0.929 . S
H702 C710 0.929 . S
H703 C712 0.930 . S
H704 C714 0.930 . S
H705 C717 0.929 . S
H706 C720 0.930 . S
H707 C722 0.960 . S
H708 C722 0.960 . S
H709 C722 0.960 . S
C710 H702 0.929 . S
C710 C711 1.377 . S
C710 C712 1.384 . S
C711 C710 1.377 . S
C711 C717 1.390 . S
C712 H703 0.930 . S
C712 C710 1.384 . S
C712 C713 1.372 . S
C713 C712 1.372 . S
C713 C714 1.400 . S
C713 C718 1.490 . S
C714 H704 0.930 . S
C714 C713 1.400 . S
C714 C717 1.386 . S
H715 C731 0.930 . S
H716 C732 0.931 . S
C717 H705 0.929 . S
C717 C711 1.390 . S
C717 C714 1.386 . S
C718 C713 1.490 . S
C718 C720 1.395 . S
C718 C721 1.403 . S
H719 C725 0.930 . S
C720 H706 0.930 . S
C720 C718 1.395 . S
C720 C723 1.403 . S
C721 C718 1.403 . S
C721 C722 1.524 . S
C721 C725 1.400 . S
C722 H707 0.960 . S
C722 H708 0.960 . S
C722 H709 0.960 . S
C722 C721 1.524 . S
C723 C720 1.403 . S
C723 C724 1.392 . S
C723 C727 1.495 . S
C724 C723 1.392 . S
C724 C725 1.385 . S
C724 C726 1.478 . S
C725 H719 0.930 . S
C725 C721 1.400 . S
C725 C724 1.385 . S
C726 C724 1.478 . S
C726 C728 1.381 . S
C726 C732 1.383 . S
C727 C723 1.495 . S
C727 H733 0.959 . S
C727 H734 0.961 . S
C727 H735 0.960 . S
C728 C726 1.381 . S
C728 C729 1.394 . S
C728 H736 0.930 . S
C729 C728 1.394 . S
C729 C730 1.383 . S
C729 H737 0.929 . S
C730 C729 1.383 . S
C730 C731 1.377 . S
C731 H715 0.930 . S
C731 C730 1.377 . S
C731 C732 1.379 . S
C732 H716 0.931 . S
C732 C726 1.383 . S
C732 C731 1.379 . S
H733 C727 0.959 . S
H734 C727 0.961 . S
H735 C727 0.960 . S
H736 C728 0.930 . S
H737 C729 0.929 . S
H738 C746 0.929 . S
H739 C748 0.930 . S
H740 C750 0.930 . S
H741 C753 0.929 . S
H742 C756 0.930 . S
H743 C758 0.960 . S
H744 C758 0.960 . S
H745 C758 0.960 . S
C746 H738 0.929 . S
C746 C747 1.377 . S
C746 C748 1.384 . S
C747 C746 1.377 . S
C747 C753 1.390 1_545 S
C748 H739 0.930 . S
C748 C746 1.384 . S
C748 C749 1.372 . S
C749 C748 1.372 . S
C749 C750 1.400 1_545 S
C749 C754 1.490 . S
C750 H740 0.930 . S
C750 C749 1.400 1_565 S
C750 C753 1.386 . S
H751 C767 0.930 1_565 S
H752 C768 0.930 1_565 S
C753 H741 0.929 . S
C753 C747 1.390 1_565 S
C753 C750 1.386 . S
C754 C749 1.490 . S
C754 C756 1.395 . S
C754 C757 1.403 . S
H755 C761 0.930 . S
C756 H742 0.930 . S
C756 C754 1.395 . S
C756 C759 1.403 . S
C757 C754 1.403 . S
C757 C758 1.524 . S
C757 C761 1.400 . S
C758 H743 0.960 . S
C758 H744 0.960 . S
C758 H745 0.960 . S
C758 C757 1.524 . S
C759 C756 1.403 . S
C759 C760 1.392 . S
C759 C763 1.495 . S
C760 C759 1.392 . S
C760 C761 1.385 . S
C760 C762 1.478 . S
C761 H755 0.930 . S
C761 C757 1.400 . S
C761 C760 1.385 . S
C762 C760 1.478 . S
C762 C764 1.381 . S
C762 C768 1.383 . S
C763 C759 1.495 . S
C763 H769 0.959 . S
C763 H770 0.961 1_545 S
C763 H771 0.960 . S
C764 C762 1.381 . S
C764 C765 1.394 . S
C764 H772 0.930 . S
C765 C764 1.394 . S
C765 C766 1.383 . S
C765 H773 0.929 . S
C766 C765 1.383 . S
C766 C767 1.377 . S
C767 H751 0.930 1_545 S
C767 C766 1.377 . S
C767 C768 1.380 . S
C768 H752 0.930 1_545 S
C768 C762 1.383 . S
C768 C767 1.380 . S
H769 C763 0.959 . S
H770 C763 0.961 1_565 S
H771 C763 0.960 . S
H772 C764 0.930 . S
H773 C765 0.929 . S
H774 C782 0.929 . S
H775 C784 0.930 . S
H776 C786 0.930 . S
H777 C789 0.929 . S
H778 C792 0.930 . S
H779 C794 0.960 . S
H780 C794 0.960 . S
H781 C794 0.960 . S
C782 H774 0.929 . S
C782 C783 1.377 . S
C782 C784 1.384 . S
C783 C782 1.377 . S
C783 C789 1.390 . S
C784 H775 0.930 . S
C784 C782 1.384 . S
C784 C785 1.372 . S
C785 C784 1.372 . S
C785 C786 1.400 . S
C785 C790 1.490 . S
C786 H776 0.930 . S
C786 C785 1.400 . S
C786 C789 1.386 . S
H787 C803 0.930 . S
H788 C804 0.931 . S
C789 H777 0.929 . S
C789 C783 1.390 . S
C789 C786 1.386 . S
C790 C785 1.490 . S
C790 C792 1.395 . S
C790 C793 1.403 . S
H791 C797 0.930 . S
C792 H778 0.930 . S
C792 C790 1.395 . S
C792 C795 1.403 1_556 S
C793 C790 1.403 . S
C793 C794 1.524 . S
C793 C797 1.400 1_556 S
C794 H779 0.960 . S
C794 H780 0.960 . S
C794 H781 0.960 . S
C794 C793 1.524 . S
C795 C792 1.403 1_554 S
C795 C796 1.392 . S
C795 C799 1.495 . S
C796 C795 1.392 . S
C796 C797 1.385 . S
C796 C798 1.478 . S
C797 H791 0.930 . S
C797 C793 1.400 1_554 S
C797 C796 1.385 . S
C798 C796 1.478 . S
C798 C800 1.381 . S
C798 C804 1.383 . S
C799 C795 1.495 . S
C799 H805 0.959 . S
C799 H806 0.961 . S
C799 H807 0.960 . S
C800 C798 1.381 . S
C800 C801 1.394 . S
C800 H808 0.930 . S
C801 C800 1.394 . S
C801 C802 1.383 . S
C801 H809 0.929 . S
C802 C801 1.383 . S
C802 C803 1.377 . S
C803 H787 0.930 . S
C803 C802 1.377 . S
C803 C804 1.379 . S
C804 H788 0.931 . S
C804 C798 1.383 . S
C804 C803 1.379 . S
H805 C799 0.959 . S
H806 C799 0.961 . S
H807 C799 0.960 . S
H808 C800 0.930 . S
H809 C801 0.929 . S
H810 C818 0.929 . S
H811 C820 0.930 . S
H812 C822 0.930 . S
H813 C825 0.929 . S
H814 C828 0.931 . S
H815 C830 0.960 . S
H816 C830 0.960 . S
H817 C830 0.960 . S
C818 H810 0.929 . S
C818 C819 1.377 1_655 S
C818 C820 1.384 . S
C819 C818 1.377 1_455 S
C819 C825 1.390 . S
C820 H811 0.930 . S
C820 C818 1.384 . S
C820 C821 1.372 1_655 S
C821 C820 1.372 1_455 S
C821 C822 1.400 . S
C821 C826 1.490 . S
C822 H812 0.930 . S
C822 C821 1.400 . S
C822 C825 1.386 . S
H823 C839 0.930 . S
H824 C840 0.931 . S
C825 H813 0.929 . S
C825 C819 1.390 . S
C825 C822 1.386 . S
C826 C821 1.490 . S
C826 C828 1.394 1_455 S
C826 C829 1.403 . S
H827 C833 0.930 . S
C828 H814 0.931 . S
C828 C826 1.394 1_655 S
C828 C831 1.403 1_655 S
C829 C826 1.403 . S
C829 C830 1.524 . S
C829 C833 1.400 . S
C830 H815 0.960 . S
C830 H816 0.960 . S
C830 H817 0.960 . S
C830 C829 1.524 . S
C831 C828 1.403 1_455 S
C831 C832 1.392 . S
C831 C835 1.495 1_455 S
C832 C831 1.392 . S
C832 C833 1.385 . S
C832 C834 1.478 . S
C833 H827 0.930 . S
C833 C829 1.400 . S
C833 C832 1.385 . S
C834 C832 1.478 . S
C834 C836 1.381 1_455 S
C834 C840 1.383 . S
C835 C831 1.495 1_655 S
C835 H841 0.959 . S
C835 H842 0.961 1_655 S
C835 H843 0.960 . S
C836 C834 1.381 1_655 S
C836 C837 1.394 . S
C836 H844 0.930 . S
C837 C836 1.394 . S
C837 C838 1.383 1_655 S
C837 H845 0.929 . S
C838 C837 1.383 1_455 S
C838 C839 1.377 . S
C839 H823 0.930 . S
C839 C838 1.377 . S
C839 C840 1.379 . S
C840 H824 0.931 . S
C840 C834 1.383 . S
C840 C839 1.379 . S
H841 C835 0.959 . S
H842 C835 0.961 1_455 S
H843 C835 0.960 . S
H844 C836 0.930 . S
H845 C837 0.929 . S
C207 C19 1.535 . S
C226 N187 1.513 . S
C243 C46 1.099 . S
C262 N160 1.112 . S
C279 C95 0.257 . S
C298 N173 0.213 . S
C315 C10 2.206 . S
C334 N186 2.245 . S
C370 N161 1.342 . S
C351 C55 1.324 . S
C406 N174 0.569 . S
C387 C86 0.551 . S
C423 C59 2.941 . S
C442 N134 2.940 . S
C459 C90 1.595 . S
C478 N148 1.583 . S
C495 C15 1.311 . S
C514 N122 1.323 . S
C550 N135 3.012 . S
C531 C50 3.006 . S
C586 N147 2.172 . S
C567 C99 2.160 . S
C603 C6 1.022 . S
C622 N121 1.029 . S
C658 N151 1.458 . S
C639 C9 1.461 . S
C675 C58 1.519 . S
C694 N125 1.602 . S
C711 C98 1.688 . S
C730 N138 1.707 . S
C766 N177 1.355 . S
C747 C49 1.337 . S
C802 N190 1.441 . S
C783 C89 1.406 . S
C819 C18 1.461 . S
C838 N164 1.536 . S
