# Generated by pormake.
# Topology zzz, (3,6)-cn, num edge types: 1
# Building blocks:
#     Node 0, Type 0, BuildingBlock: PAMTOO_clean_linker_0, # of connection points: 3
#     Node 1, Type 0, BuildingBlock: PAMTOO_clean_linker_0, # of connection points: 3
#     Node 2, Type 0, BuildingBlock: PAMTOO_clean_linker_0, # of connection points: 3
#     Node 3, Type 0, BuildingBlock: PAMTOO_clean_linker_0, # of connection points: 3
#     Node 4, Type 0, BuildingBlock: PAMTOO_clean_linker_0, # of connection points: 3
#     Node 5, Type 0, BuildingBlock: PAMTOO_clean_linker_0, # of connection points: 3
#     Node 6, Type 0, BuildingBlock: PAMTOO_clean_linker_0, # of connection points: 3
#     Node 7, Type 0, BuildingBlock: PAMTOO_clean_linker_0, # of connection points: 3
#     Node 8, Type 1, BuildingBlock: BETGAK_clean_sbu_0, # of connection points: 6
#     Node 9, Type 1, BuildingBlock: BETGAK_clean_sbu_0, # of connection points: 6
#     Node 10, Type 1, BuildingBlock: BETGAK_clean_sbu_0, # of connection points: 6
#     Node 11, Type 1, BuildingBlock: BETGAK_clean_sbu_0, # of connection points: 6
#     Edge 12, Type (0, 1), BuildingBlock: TEMPAE_clean_linker_10, # of connection points: 2
#     Edge 13, Type (0, 1), BuildingBlock: TEMPAE_clean_linker_10, # of connection points: 2
#     Edge 14, Type (0, 1), BuildingBlock: TEMPAE_clean_linker_10, # of connection points: 2
#     Edge 15, Type (0, 1), BuildingBlock: TEMPAE_clean_linker_10, # of connection points: 2
#     Edge 16, Type (0, 1), BuildingBlock: TEMPAE_clean_linker_10, # of connection points: 2
#     Edge 17, Type (0, 1), BuildingBlock: TEMPAE_clean_linker_10, # of connection points: 2
#     Edge 18, Type (0, 1), BuildingBlock: TEMPAE_clean_linker_10, # of connection points: 2
#     Edge 19, Type (0, 1), BuildingBlock: TEMPAE_clean_linker_10, # of connection points: 2
#     Edge 20, Type (0, 1), BuildingBlock: TEMPAE_clean_linker_10, # of connection points: 2
#     Edge 21, Type (0, 1), BuildingBlock: TEMPAE_clean_linker_10, # of connection points: 2
#     Edge 22, Type (0, 1), BuildingBlock: TEMPAE_clean_linker_10, # of connection points: 2
#     Edge 23, Type (0, 1), BuildingBlock: TEMPAE_clean_linker_10, # of connection points: 2
#     Edge 24, Type (0, 1), BuildingBlock: TEMPAE_clean_linker_10, # of connection points: 2
#     Edge 25, Type (0, 1), BuildingBlock: TEMPAE_clean_linker_10, # of connection points: 2
#     Edge 26, Type (0, 1), BuildingBlock: TEMPAE_clean_linker_10, # of connection points: 2
#     Edge 27, Type (0, 1), BuildingBlock: TEMPAE_clean_linker_10, # of connection points: 2
#     Edge 28, Type (0, 1), BuildingBlock: TEMPAE_clean_linker_10, # of connection points: 2
#     Edge 29, Type (0, 1), BuildingBlock: TEMPAE_clean_linker_10, # of connection points: 2
#     Edge 30, Type (0, 1), BuildingBlock: TEMPAE_clean_linker_10, # of connection points: 2
#     Edge 31, Type (0, 1), BuildingBlock: TEMPAE_clean_linker_10, # of connection points: 2
#     Edge 32, Type (0, 1), BuildingBlock: TEMPAE_clean_linker_10, # of connection points: 2
#     Edge 33, Type (0, 1), BuildingBlock: TEMPAE_clean_linker_10, # of connection points: 2
#     Edge 34, Type (0, 1), BuildingBlock: TEMPAE_clean_linker_10, # of connection points: 2
#     Edge 35, Type (0, 1), BuildingBlock: TEMPAE_clean_linker_10, # of connection points: 2
# Relax obj value: 0.277
# Max RMSD: 0.193
# Mean RMSD: 0.161
data_MOF--net-zzz--node1-BETGAK_clean_sbu_0--node2-PAMTOO_clean_linker_0--edge1-TEMPAE_clean_linker_10
_symmetry_space_group_name_H-M    P1
_symmetry_Int_Tables_number       1
_symmetry_cell_setting            triclinic
loop_
_symmetry_equiv_pos_as_xyz
'x, y, z'
_cell_length_a     52.485708
_cell_length_b     52.503163
_cell_length_c     13.56254
_cell_angle_alpha  89.595664
_cell_angle_beta   89.974711
_cell_angle_gamma 90.159541
loop_
_atom_site_label
_atom_site_type_symbol
_atom_site_fract_x
_atom_site_fract_y
_atom_site_fract_z
_atom_type_partial_charge
H0 H 0.81944 0.49079 0.31784 0.0
H1 H 0.74491 0.4931 0.1892 0.0
H2 H 0.7583 0.52759 0.47297 0.0
H3 H 0.72683 0.54679 0.23058 0.0
C4 C 0.71299 0.53873 0.28482 0.0
O5 O 0.72319 0.51756 0.33264 0.0
H6 H 0.70971 0.55377 0.34064 0.0
C7 C 0.79964 0.49666 0.32214 0.0
C8 C 0.79122 0.5095 0.40593 0.0
C9 C 0.7833 0.49113 0.24358 0.0
C10 C 0.75763 0.49787 0.24908 0.0
C11 C 0.74844 0.51143 0.33037 0.0
C12 C 0.76536 0.51749 0.40927 0.0
H13 H 0.0503 0.82334 0.30937 0.0
H14 H 0.03659 0.75148 0.17042 0.0
H15 H 1.00518 0.7663 0.45875 0.0
H16 H 1.01538 0.70271 0.40883 0.0
C17 C 1.02209 0.70962 0.33563 0.0
O18 O 1.00934 0.73205 0.31272 0.0
H19 H 0.04295 0.71311 0.34333 0.0
C20 C 0.04211 0.80433 0.31268 0.0
C21 C 0.02783 0.79705 0.39531 0.0
C22 C 0.04511 0.78826 0.23165 0.0
C23 C 0.03451 0.76384 0.23356 0.0
C24 C 1.0204 0.75556 0.31565 0.0
C25 C 1.01667 0.77236 0.3965 0.0
H26 H 0.72582 0.07052 0.36794 0.0
H27 H 0.79953 0.05922 0.24214 0.0
H28 H 0.77554 1.01364 0.49217 0.0
H29 H 0.80601 1.00194 0.24502 0.0
C30 C 0.82113 1.00511 0.30129 0.0
O31 O 0.81411 0.02424 0.36626 0.0
H32 H 0.82275 0.98697 0.34343 0.0
C33 C 0.74398 0.06088 0.37054 0.0
C34 C 0.74801 0.04177 0.44145 0.0
C35 C 0.76215 0.06704 0.29882 0.0
C36 C 0.78548 0.05445 0.29784 0.0
C37 C 0.79061 0.03527 0.36738 0.0
C38 C 0.77165 0.02852 0.43867 0.0
H39 H 0.56713 0.72865 0.37372 0.0
H40 H 0.55725 0.80337 0.2484 0.0
H41 H 0.51571 0.78124 0.50981 0.0
H42 H 0.49081 0.83404 0.37934 0.0
C43 C 0.50613 0.82799 0.32822 0.0
O44 O 0.52678 0.81977 0.38414 0.0
H45 H 0.49827 0.81192 0.28423 0.0
C46 C 0.55904 0.74757 0.37744 0.0
C47 C 0.54124 0.75247 0.45162 0.0
C48 C 0.56421 0.76524 0.3017 0.0
C49 C 0.55338 0.78952 0.3062 0.0
C50 C 0.53632 0.79567 0.38171 0.0
C51 C 0.52957 0.77684 0.45333 0.0
H52 H 0.22729 0.46707 0.14696 0.0
H53 H 0.30197 0.47855 0.26873 0.0
H54 H 0.27786 0.52187 0.01451 0.0
H55 H 0.30825 0.53835 0.23887 0.0
C56 C 0.32467 0.53122 0.19489 0.0
O57 O 0.31704 0.51094 0.13628 0.0
H58 H 0.33073 0.54712 0.14576 0.0
C59 C 0.24593 0.4759 0.14305 0.0
C60 C 0.25005 0.49465 0.07087 0.0
C61 C 0.26387 0.47082 0.21755 0.0
C62 C 0.28787 0.48241 0.21225 0.0
C63 C 0.29329 0.50042 0.13862 0.0
C64 C 0.27405 0.50723 0.06924 0.0
H65 H 0.96474 0.23059 0.16522 0.0
H66 H 0.97797 0.30332 0.29588 0.0
H67 H 0.02659 0.27756 0.06008 0.0
H68 H 0.05317 0.32235 0.21514 0.0
C69 C 0.03429 0.32207 0.25222 0.0
O70 O 1.0158 0.3164 0.18227 0.0
H71 H 0.03531 0.30684 0.30971 0.0
C72 C 0.97528 0.24833 0.16567 0.0
C73 C 0.99601 0.2515 0.10145 0.0
C74 C 0.96896 0.26658 0.23621 0.0
C75 C 0.98281 0.28925 0.24104 0.0
C76 C 1.00343 0.29356 0.17738 0.0
C77 C 1.01045 0.27441 0.10844 0.0
H78 H 0.30609 0.07386 0.15305 0.0
H79 H 0.23466 0.05545 0.29138 0.0
H80 H 0.25902 1.01449 0.03452 0.0
H81 H 0.19073 1.01434 0.08189 0.0
C82 C 0.19765 0.02806 0.13783 0.0
O83 O 0.22173 1.02039 0.16887 0.0
H84 H 0.1988 0.047 0.10045 0.0
C85 C 0.28819 0.06358 0.15271 0.0
C86 C 0.28489 0.04435 0.08269 0.0
C87 C 0.27089 0.06709 0.23069 0.0
C88 C 0.24807 0.05321 0.23127 0.0
C89 C 0.2432 0.03487 0.15937 0.0
C90 C 0.26198 0.02984 0.0862 0.0
H91 H 0.571 0.31072 0.1446 0.0
H92 H 0.55793 0.23892 0.2866 0.0
H93 H 0.50862 0.26341 0.04974 0.0
H94 H 0.48244 0.21964 0.21257 0.0
C95 C 0.50144 0.22019 0.24861 0.0
O96 O 0.5197 0.22532 0.17685 0.0
H97 H 0.50058 0.23586 0.30352 0.0
C98 C 0.56042 0.29303 0.148 0.0
C99 C 0.53942 0.28961 0.08549 0.0
C100 C 0.56694 0.27522 0.22087 0.0
C101 C 0.553 0.25266 0.22984 0.0
C102 C 0.53216 0.24805 0.16789 0.0
C103 C 0.52495 0.2668 0.09661 0.0
La104 La 0.03373 1.01795 0.83609 0.0
La105 La 1.0005 0.02745 0.68344 0.0
C106 C 0.05913 1.00011 0.97808 0.0
C107 C 0.0768 0.97856 0.98351 0.0
C108 C 0.09007 0.97046 0.89936 0.0
C109 C 0.10362 0.94757 0.901 0.0
C110 C 0.10373 0.93217 0.9863 0.0
C111 C 0.09144 0.94124 0.07182 0.0
C112 C 0.07824 0.96424 0.07039 0.0
C113 C 0.05868 0.03098 0.67076 0.0
C114 C 1.01726 0.97159 0.69842 0.0
C115 C 0.97475 0.04404 0.53972 0.0
C116 C 0.95801 0.066 0.52664 0.0
C117 C 0.94587 0.07001 0.43618 0.0
C118 C 0.93273 0.09267 0.4187 0.0
C119 C 0.93195 0.11172 0.49125 0.0
C120 C 0.94238 0.10663 0.58471 0.0
C121 C 0.95527 0.08385 0.60235 0.0
C122 C 0.97594 1.01375 0.8486 0.0
C123 C 1.01676 0.07383 0.82071 0.0
O124 O 0.06654 1.01943 0.92428 0.0
O125 O 0.03542 0.99401 0.96073 0.0
O126 O 0.06374 0.03902 0.75815 0.0
O127 O 0.03975 1.01615 0.67725 0.0
O128 O 0.02419 0.97847 0.7883 0.0
O129 O 1.01099 0.98946 0.6344 0.0
O130 O 0.96662 0.02673 0.6014 0.0
O131 O 0.9988 0.04938 0.55363 0.0
O132 O 0.97134 1.00528 0.76147 0.0
O133 O 0.99442 0.02915 0.84215 0.0
O134 O 1.01026 0.0669 0.73045 0.0
O135 O 0.02291 0.05597 0.88513 0.0
H136 H 0.08906 0.98128 0.83112 0.0
H137 H 0.11304 0.94146 0.83423 0.0
H138 H 0.0904 0.92985 0.13853 0.0
H139 H 0.06796 0.97012 0.13569 0.0
H140 H 0.94755 0.05616 0.37772 0.0
H141 H 0.92459 0.09598 0.34636 0.0
H142 H 0.9423 0.12097 0.64173 0.0
H143 H 0.96418 0.08076 0.67339 0.0
La144 La 0.5235 0.03863 0.86955 0.0
La145 La 0.51311 1.00874 0.70346 0.0
C146 C 0.5403 0.06006 0.0219 0.0
C147 C 0.56173 0.07752 0.03593 0.0
C148 C 0.56563 0.08906 0.12722 0.0
C149 C 0.58764 0.10343 0.14352 0.0
C150 C 0.6063 0.10586 0.06917 0.0
C151 C 0.60114 0.09598 0.97519 0.0
C152 C 0.57892 0.0821 0.95858 0.0
C153 C 0.5109 0.06691 0.71248 0.0
C154 C 0.57033 1.02149 0.7299 0.0
C155 C 0.49204 0.99426 0.54847 0.0
C156 C 0.46934 1.00674 0.50768 0.0
C157 C 0.44759 0.99235 0.48576 0.0
C158 C 0.42422 1.0045 0.47127 0.0
C159 C 0.42236 0.03113 0.47968 0.0
C160 C 0.44431 0.04555 0.4974 0.0
C161 C 0.4676 0.03349 0.51083 0.0
C162 C 0.52582 0.98017 0.8587 0.0
C163 C 0.46727 0.02608 0.83996 0.0
O164 O 0.52177 0.06911 0.96844 0.0
O165 O 0.54638 0.03688 0.99631 0.0
O166 O 0.50364 0.07102 0.80168 0.0
O167 O 0.52519 0.04764 0.71374 0.0
O168 O 0.56292 0.0307 0.81621 0.0
O169 O 0.55328 1.01277 0.66726 0.0
O170 O 0.48835 0.98298 0.63345 0.0
O171 O 0.51273 1.00814 0.54865 0.0
O172 O 0.53262 0.97594 0.76846 0.0
O173 O 0.51162 0.99962 0.85952 0.0
O174 O 0.47506 0.02346 0.74776 0.0
O175 O 0.48466 0.02778 0.90962 0.0
H176 H 0.55219 0.08611 0.18681 0.0
H177 H 0.59079 0.11129 0.21615 0.0
H178 H 0.61505 0.09728 0.91635 0.0
H179 H 0.57578 0.07394 0.88658 0.0
H180 H 0.4484 0.97174 0.48503 0.0
H181 H 0.40741 0.99304 0.45764 0.0
H182 H 0.44338 0.06611 0.50264 0.0
H183 H 0.48397 0.04511 0.52897 0.0
La184 La 0.50295 0.52389 0.82534 0.0
La185 La 0.5336 0.51446 0.66036 0.0
C186 C 0.48731 0.54417 0.98008 0.0
C187 C 0.4992 0.56698 0.02222 0.0
C188 C 0.48438 0.58848 0.04238 0.0
C189 C 0.49614 0.61206 0.05714 0.0
C190 C 0.5228 0.61437 0.05077 0.0
C191 C 0.53761 0.59265 0.03538 0.0
C192 C 0.52595 0.56915 0.02167 0.0
C193 C 0.47507 0.51131 0.66876 0.0
C194 C 0.52054 0.57039 0.69103 0.0
C195 C 0.55547 0.49845 0.50751 0.0
C196 C 0.57244 0.47686 0.4911 0.0
C197 C 0.5826 0.47263 0.39742 0.0
C198 C 0.59632 0.45042 0.37901 0.0
C199 C 0.59957 0.43195 0.45385 0.0
C200 C 0.59101 0.43732 0.54964 0.0
C201 C 0.57766 0.45971 0.56819 0.0
C202 C 0.56108 0.52711 0.81872 0.0
C203 C 0.51647 0.46706 0.79867 0.0
O204 O 0.47649 0.54794 0.89455 0.0
O205 O 0.5015 0.52377 0.98012 0.0
O206 O 0.47059 0.50407 0.75863 0.0
O207 O 0.49443 0.52574 0.66907 0.0
O208 O 0.51754 0.56226 0.78289 0.0
O209 O 0.52275 0.55329 0.621 0.0
O210 O 0.56472 0.51629 0.56346 0.0
O211 O 0.53205 0.49253 0.53169 0.0
O212 O 0.56543 0.53479 0.7298 0.0
O213 O 0.54205 0.5124 0.81633 0.0
O214 O 0.52589 0.47479 0.7126 0.0
O215 O 0.5074 0.48379 0.86138 0.0
H216 H 0.46377 0.58731 0.0412 0.0
H217 H 0.48438 0.62868 0.06906 0.0
H218 H 0.55821 0.59394 0.03184 0.0
H219 H 0.53792 0.55299 1.00503 0.0
H220 H 0.57903 0.48596 0.33777 0.0
H221 H 0.6031 0.447 0.30482 0.0
H222 H 0.59298 0.42348 0.60873 0.0
H223 H 0.57041 0.46303 0.64168 0.0
La224 La 1.0118 0.50475 0.85606 0.0
La225 La 0.02298 0.53483 0.69003 0.0
C226 C 0.9933 0.48305 1.00567 0.0
C227 C 0.97235 0.46461 0.01206 0.0
C228 C 0.96565 0.44997 0.92958 0.0
C229 C 0.94338 0.43533 0.93033 0.0
C230 C 0.92724 0.43542 0.01304 0.0
C231 C 0.93492 0.44913 0.09733 0.0
C232 C 0.95729 0.4635 0.09679 0.0
C233 C 0.02496 0.47654 0.70095 0.0
C234 C 0.96566 0.52226 0.71316 0.0
C235 C 0.04477 0.54978 0.53634 0.0
C236 C 0.06774 0.53753 0.49752 0.0
C237 C 0.08954 0.55208 0.47715 0.0
C238 C 0.11305 0.54008 0.46486 0.0
C239 C 0.11497 0.51345 0.47399 0.0
C240 C 0.093 0.49888 0.49019 0.0
C241 C 0.06958 0.51078 0.50143 0.0
C242 C 1.00949 0.56329 0.84296 0.0
C243 C 0.06813 0.51723 0.82996 0.0
O244 O 1.01365 0.47511 0.96016 0.0
O245 O 0.98673 0.50594 0.97688 0.0
O246 O 0.03161 0.47222 0.7909 0.0
O247 O 1.0108 0.49591 0.7004 0.0
O248 O 0.97265 0.51257 0.79969 0.0
O249 O 0.98299 0.53114 0.65153 0.0
O250 O 0.04799 0.56085 0.62138 0.0
O251 O 0.02416 0.53578 0.53526 0.0
O252 O 1.00316 0.56755 0.75207 0.0
O253 O 0.02367 0.54381 0.84588 0.0
O254 O 0.06072 0.51991 0.73723 0.0
O255 O 0.05044 0.51553 0.89873 0.0
H256 H 0.97706 0.45071 0.863 0.0
H257 H 0.93826 0.4249 0.86463 0.0
H258 H 0.92283 0.45029 0.16182 0.0
H259 H 0.96211 0.47482 0.1607 0.0
H260 H 0.08862 0.57269 0.47593 0.0
H261 H 0.12988 0.55165 0.45222 0.0
H262 H 0.094 0.47831 0.49581 0.0
H263 H 0.05317 0.49902 0.51852 0.0
C264 C 0.15881 0.04741 0.22016 0.0
C265 C 0.17815 0.02893 0.22193 0.0
C266 C 0.13902 0.04752 0.29075 0.0
C267 C 0.13817 0.02855 0.3657 0.0
C268 C 0.15754 1.00969 0.36757 0.0
C269 C 0.17709 1.00996 0.29546 0.0
C270 C 0.11887 0.06793 0.28459 0.0
C271 C 0.15757 0.9891 0.4457 0.0
C272 C 0.10142 0.04395 0.6026 0.0
C273 C 0.07831 0.03075 0.59021 0.0
C274 C 0.12093 0.04318 0.53102 0.0
C275 C 0.11746 0.029 0.44341 0.0
C276 C 0.09404 1.01579 0.42985 0.0
C277 C 0.07483 1.01676 0.50326 0.0
C278 C 0.1454 0.05756 0.54955 0.0
C279 C 0.08926 1.00056 0.33767 0.0
H280 H 0.159 0.06175 0.1623 0.0
H281 H 0.19146 0.99519 0.29615 0.0
H282 H 0.09978 0.05905 0.27693 0.0
H283 H 0.1187 0.07914 0.35361 0.0
H284 H 0.12199 0.08116 0.22144 0.0
H285 H 0.17389 0.97585 0.43764 0.0
H286 H 0.15843 0.9978 0.51995 0.0
H287 H 0.13961 0.97796 0.44192 0.0
H288 H 0.10443 0.0548 0.66931 0.0
H289 H 0.05713 1.00644 0.49282 0.0
H290 H 0.14848 0.07196 0.49046 0.0
H291 H 0.16179 0.04426 0.54758 0.0
H292 H 0.14537 0.06739 0.6218 0.0
H293 H 0.09063 1.01316 0.27182 0.0
H294 H 0.07023 0.99125 0.33808 0.0
H295 H 0.10406 0.98567 0.32983 0.0
C296 C 0.49269 0.17294 0.27961 0.0
C297 C 0.50645 0.19508 0.3031 0.0
C298 C 0.49444 0.15063 0.33822 0.0
C299 C 0.51048 0.1502 0.42247 0.0
C300 C 0.52545 0.17209 0.44321 0.0
C301 C 0.52322 0.19418 0.38366 0.0
C302 C 0.47829 0.12781 0.31221 0.0
C303 C 0.54309 0.17257 0.53098 0.0
C304 C 0.49297 0.10739 0.64248 0.0
C305 C 0.51003 0.08698 0.63361 0.0
C306 C 0.49267 0.12763 0.57361 0.0
C307 C 0.51 0.12783 0.49328 0.0
C308 C 0.52695 0.10695 0.48265 0.0
C309 C 0.52671 0.08678 0.55258 0.0
C310 C 0.47397 0.14909 0.58791 0.0
C311 C 0.54592 0.10626 0.39919 0.0
H312 H 0.47977 0.17338 0.21732 0.0
H313 H 0.5339 0.21115 0.40249 0.0
H314 H 0.49032 0.11051 0.30756 0.0
H315 H 0.46399 0.12435 0.37111 0.0
H316 H 0.46813 0.13043 0.24105 0.0
H317 H 0.55498 0.1901 0.53267 0.0
H318 H 0.53174 0.17153 0.59997 0.0
H319 H 0.55582 0.15575 0.53012 0.0
H320 H 0.4799 0.10766 0.70437 0.0
H321 H 0.54002 0.07116 0.54509 0.0
H322 H 0.46207 0.15147 0.52088 0.0
H323 H 0.48443 0.16723 0.59917 0.0
H324 H 0.4612 0.14577 0.65213 0.0
H325 H 0.53679 0.11184 0.32857 0.0
H326 H 0.55459 0.08712 0.39085 0.0
H327 H 0.56139 0.1202 0.41361 0.0
C328 C 0.36623 0.50761 0.23766 0.0
C329 C 0.34687 0.52474 0.26393 0.0
C330 C 0.38783 0.50378 0.29869 0.0
C331 C 0.39058 0.51779 0.38738 0.0
C332 C 0.37116 0.53523 0.41349 0.0
C333 C 0.34976 0.53848 0.35179 0.0
C334 C 0.40784 0.48489 0.26774 0.0
C335 C 0.37313 0.55082 0.50628 0.0
C336 C 0.43327 0.4956 0.60094 0.0
C337 C 0.45482 0.51135 0.59078 0.0
C338 C 0.41281 0.49679 0.53341 0.0
C339 C 0.41356 0.51437 0.4535 0.0
C340 C 0.43563 0.52983 0.44127 0.0
C341 C 0.45597 0.52804 0.50947 0.0
C342 C 0.39002 0.47966 0.54937 0.0
C343 C 0.43739 0.54896 0.35802 0.0
H344 H 0.36463 0.49735 0.16889 0.0
H345 H 0.33529 0.55222 0.37166 0.0
H346 H 0.42628 0.49483 0.25589 0.0
H347 H 0.41083 0.47056 0.32713 0.0
H348 H 0.40259 0.47482 0.19888 0.0
H349 H 0.35653 0.56363 0.51626 0.0
H350 H 0.37451 0.53805 0.57157 0.0
H351 H 0.39073 0.56258 0.5042 0.0
H352 H 0.43218 0.48254 0.66307 0.0
H353 H 0.47247 0.54032 0.50076 0.0
H354 H 0.38553 0.46917 0.48075 0.0
H355 H 0.37311 0.49134 0.56774 0.0
H356 H 0.39313 0.46564 0.60989 0.0
H357 H 0.43378 0.53954 0.28643 0.0
H358 H 0.45631 0.55849 0.35483 0.0
H359 H 0.42253 0.56374 0.36737 0.0
C360 C 1.01209 0.34921 0.38148 0.0
C361 C 0.02941 0.34756 0.30291 0.0
C362 C 1.00992 0.37161 0.43805 0.0
C363 C 0.02558 0.39305 0.41649 0.0
C364 C 0.04228 0.39186 0.33429 0.0
C365 C 0.04391 0.36926 0.27851 0.0
C366 C 0.99166 0.37189 0.52398 0.0
C367 C 0.05939 0.41404 0.30806 0.0
C368 C 1.01008 0.45709 0.53993 0.0
C369 C 0.02602 0.45649 0.62311 0.0
C370 C 1.0099 0.43688 0.47124 0.0
C371 C 0.0262 0.41557 0.48532 0.0
C372 C 0.04286 0.4154 0.56768 0.0
C373 C 0.04248 0.43568 0.63523 0.0
C374 C 0.99183 0.43804 0.38486 0.0
C375 C 0.06087 0.39347 0.58568 0.0
H376 H 1.00092 0.33257 0.40135 0.0
H377 H 0.05734 0.36823 0.21797 0.0
H378 H 1.00254 0.37252 0.59403 0.0
H379 H 0.97959 0.38919 0.52087 0.0
H380 H 0.97909 0.35482 0.52549 0.0
H381 H 0.06951 0.41114 0.23708 0.0
H382 H 0.0482 0.43189 0.30303 0.0
H383 H 0.07379 0.41668 0.36704 0.0
H384 H 0.9973 0.47308 0.52977 0.0
H385 H 0.05501 0.43509 0.69875 0.0
H386 H 0.9779 0.42215 0.3902 0.0
H387 H 1.00244 0.43564 0.31479 0.0
H388 H 0.98122 0.4563 0.3815 0.0
H389 H 0.04983 0.37566 0.59772 0.0
H390 H 0.07331 0.39661 0.65074 0.0
H391 H 0.07311 0.39056 0.52003 0.0
C392 C 0.86924 1.0 0.28068 0.0
C393 C 0.84629 1.01098 0.24838 0.0
C394 C 0.89184 1.00202 0.22429 0.0
C395 C 0.89175 1.0155 0.13313 0.0
C396 C 0.86898 0.02791 0.10334 0.0
C397 C 0.84662 0.02546 0.16093 0.0
C398 C 0.9156 0.9888 0.2603 0.0
C399 C 0.86791 0.04292 0.0082 0.0
C400 C 0.95476 0.03234 1.00057 0.0
C401 C 0.95599 1.01346 0.92778 0.0
C402 C 0.93429 0.03316 0.06874 0.0
C403 C 0.91454 1.01458 0.06479 0.0
C404 C 0.91624 0.9951 0.99309 0.0
C405 C 0.93671 0.99487 0.92571 0.0
C406 C 0.93336 0.05455 0.14231 0.0
C407 C 0.89608 0.97461 0.98623 0.0
H408 H 0.86926 0.98891 0.34838 0.0
H409 H 0.82905 0.03405 0.13536 0.0
H410 H 0.92063 0.97322 0.209 0.0
H411 H 0.93185 1.00236 0.26115 0.0
H412 H 0.91318 0.98059 0.33545 0.0
H413 H 0.84964 0.05333 0.99954 0.0
H414 H 0.88384 0.05684 1.00495 0.0
H415 H 0.87017 0.02984 0.94489 0.0
H416 H 0.96938 0.04696 1.00243 0.0
H417 H 0.93746 0.98018 0.87003 0.0
H418 H 0.92677 0.0476 0.21542 0.0
H419 H 0.91955 0.06909 0.11646 0.0
H420 H 0.95223 0.0639 0.15106 0.0
H421 H 0.894 0.96472 0.05837 0.0
H422 H 0.90059 0.96024 0.92913 0.0
H423 H 0.87741 0.98333 0.96822 0.0
C424 C 0.53006 0.86952 0.28558 0.0
C425 C 0.5125 0.85044 0.25961 0.0
C426 C 0.53386 0.89134 0.22516 0.0
C427 C 0.51939 0.8946 0.13742 0.0
C428 C 0.50152 0.87546 0.11164 0.0
C429 C 0.4983 0.85383 0.17273 0.0
C430 C 0.55321 0.91104 0.25573 0.0
C431 C 0.48544 0.87798 0.01982 0.0
C432 C 0.50954 0.96058 0.0181 0.0
C433 C 0.52583 0.95961 0.93601 0.0
C434 C 0.50777 0.93996 0.08565 0.0
C435 C 0.52282 0.9178 0.0719 0.0
C436 C 0.54001 0.91723 0.99115 0.0
C437 C 0.54119 0.93796 0.92434 0.0
C438 C 0.48907 0.94156 0.1699 0.0
C439 C 0.55668 0.89433 0.97352 0.0
H440 H 0.54068 0.86751 0.35366 0.0
H441 H 0.48423 0.83958 0.15314 0.0
H442 H 0.5673 0.91411 0.19574 0.0
H443 H 0.54362 0.92953 0.26853 0.0
H444 H 0.56354 0.90543 0.32395 0.0
H445 H 0.47232 0.86155 0.01002 0.0
H446 H 0.47396 0.89567 0.02318 0.0
H447 H 0.49787 0.87952 0.95388 0.0
H448 H 0.49756 0.97715 0.02796 0.0
H449 H 0.55395 0.93701 0.86159 0.0
H450 H 0.4988 0.93754 0.24088 0.0
H451 H 0.47401 0.92689 0.16076 0.0
H452 H 0.47986 0.96055 0.17423 0.0
H453 H 0.56747 0.88946 0.04138 0.0
H454 H 0.57042 0.89754 0.91231 0.0
H455 H 0.54462 0.87762 0.9553 0.0
C456 C 0.68847 0.51745 0.14502 0.0
C457 C 0.68824 0.53266 0.22978 0.0
C458 C 0.66662 0.51483 0.08491 0.0
C459 C 0.64385 0.52797 0.10886 0.0
C460 C 0.64322 0.54252 0.1966 0.0
C461 C 0.6653 0.54466 0.25571 0.0
C462 C 0.66824 0.49877 0.99333 0.0
C463 C 0.61946 0.55671 0.22606 0.0
C464 C 0.60041 0.54632 0.89262 0.0
C465 C 0.5809 0.52802 0.89801 0.0
C466 C 0.62051 0.54676 0.9616 0.0
C467 C 0.62155 0.52823 0.03817 0.0
C468 C 0.60157 0.50997 0.04528 0.0
C469 C 0.58146 0.51015 0.97558 0.0
C470 C 0.6409 0.56694 0.95146 0.0
C471 C 0.60183 0.48961 0.12429 0.0
H472 H 0.70607 0.50834 0.12351 0.0
H473 H 0.66485 0.55657 0.32064 0.0
H474 H 0.65216 0.48502 0.9913 0.0
H475 H 0.66664 0.51115 0.92699 0.0
H476 H 0.68643 0.48806 0.9891 0.0
H477 H 0.62145 0.56597 0.29906 0.0
H478 H 0.61513 0.57158 0.17003 0.0
H479 H 0.60294 0.5435 0.2287 0.0
H480 H 0.60007 0.56031 0.83345 0.0
H481 H 0.56657 0.49584 0.98026 0.0
H482 H 0.65961 0.55783 0.93772 0.0
H483 H 0.64257 0.5778 0.02107 0.0
H484 H 0.63692 0.58054 0.89028 0.0
H485 H 0.61602 0.47488 0.10458 0.0
H486 H 0.58294 0.48022 0.13256 0.0
H487 H 0.60758 0.49763 0.19639 0.0
C488 C 0.03405 0.6871 0.17638 0.0
C489 C 1.01776 0.68906 0.25809 0.0
C490 C 0.03202 0.66663 0.10968 0.0
C491 C 1.0131 0.64757 0.12407 0.0
C492 C 0.99606 0.64996 0.20482 0.0
C493 C 0.99856 0.67062 0.27044 0.0
C494 C 0.05053 0.66513 0.02476 0.0
C495 C 0.97546 0.63039 0.22309 0.0
C496 C 0.99513 0.60624 0.90221 0.0
C497 C 1.00916 0.58386 0.919 0.0
C498 C 0.99591 0.6268 0.96869 0.0
C499 C 1.01118 0.62522 0.05475 0.0
C500 C 0.02501 0.60244 0.07317 0.0
C501 C 0.02379 0.58208 1.00546 0.0
C502 C 0.98066 0.65044 0.94579 0.0
C503 C 0.04153 0.59974 0.16364 0.0
H504 H 0.04888 0.70128 0.16618 0.0
H505 H 0.98585 0.67202 0.33315 0.0
H506 H 0.06186 0.64738 0.03088 0.0
H507 H 0.04 0.66435 0.95393 0.0
H508 H 0.06381 0.68164 0.02239 0.0
H509 H 0.96323 0.63531 0.28705 0.0
H510 H 0.96324 0.62855 0.15679 0.0
H511 H 0.98419 0.61149 0.23708 0.0
H512 H 0.9837 0.60785 0.83591 0.0
H513 H 0.03473 0.56495 0.01927 0.0
H514 H 0.99368 0.66695 0.9359 0.0
H515 H 0.96783 0.6549 0.00835 0.0
H516 H 0.96898 0.6484 0.878 0.0
H517 H 0.05674 0.61446 0.16223 0.0
H518 H 0.05057 0.58067 0.169 0.0
H519 H 0.03001 0.60291 0.23103 0.0
C520 C 0.92622 0.25163 0.28858 0.0
C521 C 0.95103 0.25885 0.31445 0.0
C522 C 0.9138 0.232 0.34045 0.0
C523 C 0.92718 0.21895 0.41572 0.0
C524 C 0.94984 0.22972 0.45411 0.0
C525 C 0.96149 0.2499 0.40295 0.0
C526 C 0.88843 0.22247 0.3039 0.0
C527 C 0.96414 0.21715 0.53769 0.0
C528 C 0.912 0.15417 0.52836 0.0
C529 C 0.92536 0.13822 0.46384 0.0
C530 C 0.91047 0.18053 0.51024 0.0
C531 C 0.92325 0.19106 0.42744 0.0
C532 C 0.93539 0.17467 0.35922 0.0
C533 C 0.93605 0.14855 0.37796 0.0
C534 C 0.8963 0.19688 0.58281 0.0
C535 C 0.94955 0.18473 0.26986 0.0
H536 H 0.91794 0.25894 0.22085 0.0
H537 H 0.98057 0.25582 0.42352 0.0
H538 H 0.89153 0.20736 0.2484 0.0
H539 H 0.87704 0.2142 0.36534 0.0
H540 H 0.87743 0.23806 0.26821 0.0
H541 H 0.97921 0.22978 0.56788 0.0
H542 H 0.95091 0.21177 0.5981 0.0
H543 H 0.97329 0.19946 0.51076 0.0
H544 H 0.90349 0.14619 0.59459 0.0
H545 H 0.94672 0.13641 0.3286 0.0
H546 H 0.89103 0.2157 0.55129 0.0
H547 H 0.9084 0.19994 0.64875 0.0
H548 H 0.8787 0.18702 0.60818 0.0
H549 H 0.95793 0.1693 0.22473 0.0
H550 H 0.96522 0.1975 0.29366 0.0
H551 H 0.93648 0.19582 0.22202 0.0
C552 C 0.29826 0.0991 0.31433 0.0
C553 C 0.28064 0.07903 0.32231 0.0
C554 C 0.32047 0.0987 0.3717 0.0
C555 C 0.32395 0.07852 0.43992 0.0
C556 C 0.30277 0.06339 0.46767 0.0
C557 C 0.28098 0.06388 0.40804 0.0
C558 C 0.34198 0.11655 0.34512 0.0
C559 C 0.30505 0.0429 0.54561 0.0
C560 C 0.3821 0.0384 0.38944 0.0
C561 C 0.39754 0.04387 0.47012 0.0
C562 C 0.35835 0.04993 0.37858 0.0
C563 C 0.34975 0.06743 0.45087 0.0
C564 C 0.36553 0.07338 0.53209 0.0
C565 C 0.38935 0.06146 0.54078 0.0
C566 C 0.34286 0.04357 0.28806 0.0
C567 C 0.35722 0.09174 0.61084 0.0
H568 H 0.29721 0.11196 0.25155 0.0
H569 H 0.26672 0.04914 0.41857 0.0
H570 H 0.3542 0.12054 0.40997 0.0
H571 H 0.354 0.10759 0.28769 0.0
H572 H 0.33459 0.13481 0.31487 0.0
H573 H 0.28604 0.03722 0.57454 0.0
H574 H 0.31412 0.02585 0.51288 0.0
H575 H 0.31712 0.04934 0.60773 0.0
H576 H 0.38879 0.0252 0.33401 0.0
H577 H 0.40137 0.06551 0.60381 0.0
H578 H 0.34222 0.06055 0.23913 0.0
H579 H 0.32309 0.03824 0.30824 0.0
H580 H 0.35114 0.02762 0.24542 0.0
H581 H 0.34593 0.10769 0.57951 0.0
H582 H 0.37381 0.0997 0.65123 0.0
H583 H 0.345 0.08155 0.66497 0.0
C584 C 0.60957 0.29131 0.26846 0.0
C585 C 0.5851 0.28346 0.29713 0.0
C586 C 0.62158 0.31163 0.31662 0.0
C587 C 0.60817 0.3246 0.39135 0.0
C588 C 0.58615 0.31321 0.43325 0.0
C589 C 0.57489 0.29242 0.3856 0.0
C590 C 0.64635 0.32187 0.27635 0.0
C591 C 0.57193 0.32566 0.51665 0.0
C592 C 0.62171 0.39054 0.49308 0.0
C593 C 0.60705 0.40558 0.42867 0.0
C594 C 0.62412 0.36416 0.47839 0.0
C595 C 0.61108 0.35268 0.39883 0.0
C596 C 0.59775 0.36819 0.33008 0.0
C597 C 0.59606 0.39435 0.3457 0.0
C598 C 0.6395 0.34877 0.55126 0.0
C599 C 0.58353 0.35712 0.24342 0.0
H600 H 0.61772 0.28397 0.20091 0.0
H601 H 0.55612 0.28601 0.40856 0.0
H602 H 0.65778 0.33093 0.33547 0.0
H603 H 0.65772 0.3065 0.2418 0.0
H604 H 0.64235 0.33652 0.21908 0.0
H605 H 0.55771 0.31255 0.55054 0.0
H606 H 0.58534 0.33207 0.57455 0.0
H607 H 0.56172 0.34269 0.48817 0.0
H608 H 0.63056 0.3992 0.55685 0.0
H609 H 0.58441 0.4057 0.2963 0.0
H610 H 0.64547 0.33012 0.52116 0.0
H611 H 0.62793 0.34535 0.61859 0.0
H612 H 0.65675 0.35954 0.57397 0.0
H613 H 0.57421 0.37195 0.19727 0.0
H614 H 0.56858 0.3438 0.27022 0.0
H615 H 0.59683 0.34644 0.1957 0.0
C616 C 0.25563 0.47497 0.39532 0.0
C617 C 0.25437 0.45956 0.31129 0.0
C618 C 0.23428 0.47718 0.45675 0.0
C619 C 0.21195 0.46349 0.43243 0.0
C620 C 0.21356 0.44295 0.36586 0.0
C621 C 0.23538 0.44074 0.30701 0.0
C622 C 0.23391 0.49794 0.53297 0.0
C623 C 0.19066 0.42669 0.34252 0.0
C624 C 0.14772 0.48292 0.53691 0.0
C625 C 0.13983 0.50077 0.46583 0.0
C626 C 0.17125 0.4705 0.52805 0.0
C627 C 0.18697 0.47611 0.44599 0.0
C628 C 0.1788 0.49413 0.3739 0.0
C629 C 0.15537 0.50623 0.38514 0.0
C630 C 0.17926 0.45184 0.60722 0.0
C631 C 0.19413 0.5001 0.28224 0.0
H632 H 0.27095 0.48872 0.40274 0.0
H633 H 0.23515 0.42771 0.24532 0.0
H634 H 0.22609 0.51559 0.49921 0.0
H635 H 0.22161 0.49258 0.59632 0.0
H636 H 0.25342 0.50216 0.56026 0.0
H637 H 0.19646 0.40805 0.3115 0.0
H638 H 0.1788 0.42333 0.4091 0.0
H639 H 0.17875 0.43666 0.28678 0.0
H640 H 0.13563 0.47894 0.60006 0.0
H641 H 0.14889 0.51965 0.32941 0.0
H642 H 0.19197 0.46168 0.66012 0.0
H643 H 0.18998 0.43558 0.57616 0.0
H644 H 0.16258 0.44434 0.64881 0.0
H645 H 0.21437 0.50381 0.30029 0.0
H646 H 0.1867 0.51693 0.24143 0.0
H647 H 0.19312 0.48351 0.23233 0.0
C648 C 0.04765 0.82121 0.10319 0.0
C649 C 0.05774 0.79889 0.14355 0.0
C650 C 0.06297 0.83795 0.04913 0.0
C651 C 0.08882 0.83148 0.03106 0.0
C652 C 0.09777 0.80695 0.05796 0.0
C653 C 0.08217 0.79098 0.11613 0.0
C654 C 0.05221 0.86389 0.0237 0.0
C655 C 0.12428 0.79813 0.03302 0.0
C656 C 0.10758 0.89002 0.9003 0.0
C657 C 0.11252 0.9052 0.98337 0.0
C658 C 0.10555 0.86344 0.9101 0.0
C659 C 0.1067 0.85249 1.0053 0.0
C660 C 0.11707 0.86689 0.08358 0.0
C661 C 0.1205 0.89316 0.07065 0.0
C662 C 0.09822 0.84773 0.82202 0.0
C663 C 0.12057 0.85556 0.18526 0.0
H664 H 0.02854 0.82694 0.1239 0.0
H665 H 0.08981 0.77342 0.14637 0.0
H666 H 0.06229 0.87878 0.0665 0.0
H667 H 0.05497 0.86821 0.94449 0.0
H668 H 0.03153 0.8653 0.04013 0.0
H669 H 0.12348 0.77846 1.00355 0.0
H670 H 0.13384 0.81065 0.97798 0.0
H671 H 0.13597 0.79736 0.10112 0.0
H672 H 0.1025 0.89872 0.83043 0.0
H673 H 0.12635 0.90459 0.13296 0.0
H674 H 0.07722 0.84782 0.81317 0.0
H675 H 0.10448 0.82767 0.83122 0.0
H676 H 0.10679 0.8558 0.7537 0.0
H677 H 0.10169 0.85082 0.21763 0.0
H678 H 0.13056 0.86882 0.23581 0.0
H679 H 0.13171 0.83772 0.18084 0.0
C680 C 0.74905 0.10977 0.24115 0.0
C681 C 0.75413 0.08427 0.2188 0.0
C682 C 0.72905 0.12264 0.19385 0.0
C683 C 0.71356 0.10915 0.12671 0.0
C684 C 0.72194 0.08534 0.0905 0.0
C685 C 0.74245 0.07318 0.13696 0.0
C686 C 0.72194 0.14894 0.22785 0.0
C687 C 0.70664 0.07074 0.01537 0.0
C688 C 0.64352 0.10392 0.18103 0.0
C689 C 0.63273 0.11352 0.09416 0.0
C690 C 0.6698 0.10435 0.19574 0.0
C691 C 0.6859 0.11491 0.12183 0.0
C692 C 0.67499 0.12718 0.03883 0.0
C693 C 0.64844 0.12617 0.02551 0.0
C694 C 0.68023 0.09092 0.28592 0.0
C695 C 0.69113 0.13979 0.96039 0.0
H696 H 0.75838 0.11844 0.30391 0.0
H697 H 0.74664 0.0535 0.11934 0.0
H698 H 0.71306 0.16007 0.1671 0.0
H699 H 0.70793 0.14739 0.28893 0.0
H700 H 0.73889 0.15939 0.25558 0.0
H701 H 0.71755 0.05451 0.9847 0.0
H702 H 0.68909 0.06309 0.05067 0.0
H703 H 0.70076 0.08341 0.95383 0.0
H704 H 0.6317 0.09386 0.23409 0.0
H705 H 0.64017 0.13415 0.95892 0.0
H706 H 0.69417 0.1032 0.3245 0.0
H707 H 0.69004 0.07325 0.26278 0.0
H708 H 0.66508 0.08556 0.3395 0.0
H709 H 0.69356 0.12651 0.89783 0.0
H710 H 0.71025 0.14524 0.98816 0.0
H711 H 0.68148 0.15707 0.93119 0.0
C712 C 0.59402 0.73656 0.21487 0.0
C713 C 0.57511 0.75534 0.20875 0.0
C714 C 0.59181 0.71446 0.15823 0.0
C715 C 0.57124 0.71239 0.0914 0.0
C716 C 0.5573 0.73444 0.06534 0.0
C717 C 0.55944 0.75603 0.12504 0.0
C718 C 0.60813 0.69181 0.1844 0.0
C719 C 0.53644 0.73353 0.98909 0.0
C720 C 0.55317 0.64761 0.98918 0.0
C721 C 0.53521 0.63943 0.05934 0.0
C722 C 0.56516 0.67142 0.99763 0.0
C723 C 0.55902 0.68715 0.07835 0.0
C724 C 0.54091 0.67872 0.14959 0.0
C725 C 0.52923 0.65499 0.13881 0.0
C726 C 0.58394 0.67976 0.91947 0.0
C727 C 0.53438 0.69414 0.23979 0.0
H728 H 0.60714 0.73674 0.27662 0.0
H729 H 0.54554 0.77114 0.11661 0.0
H730 H 0.59817 0.68013 0.24117 0.0
H731 H 0.61152 0.67961 0.1193 0.0
H732 H 0.62676 0.69791 0.21526 0.0
H733 H 0.53207 0.75287 0.96007 0.0
H734 H 0.54176 0.72103 0.92685 0.0
H735 H 0.51887 0.72567 0.02348 0.0
H736 H 0.55752 0.63553 0.92689 0.0
H737 H 0.51571 0.64833 0.19381 0.0
H738 H 0.60041 0.68996 0.95199 0.0
H739 H 0.57438 0.69312 0.86782 0.0
H740 H 0.59111 0.66335 0.8764 0.0
H741 H 0.51741 0.68655 0.27929 0.0
H742 H 0.53058 0.71429 0.22032 0.0
H743 H 0.55074 0.6935 0.29137 0.0
C744 C 0.8164 0.4887 0.1159 0.0
C745 C 0.79421 0.4784 0.15678 0.0
C746 C 0.83316 0.4735 0.0627 0.0
C747 C 0.82677 0.44756 0.04576 0.0
C748 C 0.80223 0.43847 0.07223 0.0
C749 C 0.78627 0.45395 0.12959 0.0
C750 C 0.85906 0.48449 0.03739 0.0
C751 C 0.79345 0.4119 0.04786 0.0
C752 C 0.88598 0.4295 0.92218 0.0
C753 C 0.90074 0.42535 1.0074 0.0
C754 C 0.85932 0.43088 0.92891 0.0
C755 C 0.84789 0.42977 0.02305 0.0
C756 C 0.86203 0.41988 0.10354 0.0
C757 C 0.88844 0.41724 0.09387 0.0
C758 C 0.84398 0.43772 0.83873 0.0
C759 C 0.8502 0.41632 0.20418 0.0
H760 H 0.82204 0.50792 0.13542 0.0
H761 H 0.76872 0.44618 0.15954 0.0
H762 H 0.87399 0.47469 0.08126 0.0
H763 H 0.86343 0.48166 0.95846 0.0
H764 H 0.86035 0.50522 0.05269 0.0
H765 H 0.80612 0.40233 0.99419 0.0
H766 H 0.79241 0.40028 0.11642 0.0
H767 H 0.77388 0.41262 0.01687 0.0
H768 H 0.895 0.43465 0.853 0.0
H769 H 0.89968 0.4121 0.15799 0.0
H770 H 0.84337 0.45872 0.82968 0.0
H771 H 0.82409 0.43066 0.84563 0.0
H772 H 0.85277 0.42962 0.77142 0.0
H773 H 0.84507 0.43515 0.23514 0.0
H774 H 0.86332 0.40664 0.25657 0.0
H775 H 0.83253 0.40484 0.19848 0.0
C776 C 0.02661 0.21897 0.02846 0.0
C777 C 1.00208 0.22954 0.03384 0.0
C778 C 0.03078 0.19489 0.98432 0.0
C779 C 1.00992 0.18066 0.94607 0.0
C780 C 0.98545 0.19198 0.9463 0.0
C781 C 0.98198 0.21623 0.98818 0.0
C782 C 0.05738 0.18413 0.98289 0.0
C783 C 0.96243 0.17776 0.90848 0.0
C784 C 1.01733 0.12127 0.78274 0.0
C785 C 1.01562 0.10124 0.85181 0.0
C786 C 1.0165 0.1471 0.81231 0.0
C787 C 1.01305 0.15329 0.91329 0.0
C788 C 1.01105 0.13307 0.983 0.0
C789 C 1.01274 0.1075 0.9518 0.0
C790 C 1.01924 0.16778 0.73519 0.0
C791 C 1.00642 0.13839 0.09077 0.0
H792 H 0.04232 0.22883 0.06347 0.0
H793 H 0.96297 0.22423 0.99024 0.0
H794 H 0.05876 0.16824 0.03695 0.0
H795 H 0.06181 0.17629 0.90908 0.0
H796 H 0.07194 0.1987 1.0018 0.0
H797 H 0.94497 0.18967 0.90855 0.0
H798 H 0.9658 0.17096 0.83241 0.0
H799 H 0.95894 0.16072 0.95553 0.0
H800 H 1.01965 0.11677 0.70539 0.0
H801 H 1.01116 0.09229 1.00595 0.0
H802 H 0.03394 0.18178 0.75816 0.0
H803 H 1.00102 0.17824 0.72735 0.0
H804 H 0.02456 0.16005 0.662 0.0
H805 H 1.02198 0.15043 0.12049 0.0
H806 H 1.00515 0.12068 0.13579 0.0
H807 H 0.98839 0.14915 0.09934 0.0
C808 C 0.32076 0.05856 0.97089 0.0
C809 C 0.30754 0.03848 0.01786 0.0
C810 C 0.34569 0.0555 0.93361 0.0
C811 C 0.35813 0.03163 0.94204 0.0
C812 C 0.34424 1.01079 0.98312 0.0
C813 C 0.31928 1.01446 0.02079 0.0
C814 C 0.3594 0.07853 0.89231 0.0
C815 C 0.35628 0.98484 0.99237 0.0
C816 C 0.42033 0.0228 0.79382 0.0
C817 C 0.43928 0.02713 0.86531 0.0
C818 C 0.39404 0.02359 0.81781 0.0
C819 C 0.38614 0.02922 0.91555 0.0
C820 C 0.40522 0.03368 0.98774 0.0
C821 C 0.43131 0.0324 0.96211 0.0
C822 C 0.37464 1.01852 0.73821 0.0
C823 C 0.39808 0.03996 0.09265 0.0
H824 H 0.31209 0.07728 0.96868 0.0
H825 H 0.30964 0.99888 0.05823 0.0
H826 H 0.373 0.08572 0.94829 0.0
H827 H 0.37056 0.07358 0.82575 0.0
H828 H 0.346 0.09413 0.87309 0.0
H829 H 0.34208 0.9699 0.01186 0.0
H830 H 0.36579 0.97955 0.92238 0.0
H831 H 0.37108 0.98525 0.05069 0.0
H832 H 0.42603 1.01867 0.71879 0.0
H833 H 0.44556 0.03579 0.01836 0.0
H834 H 0.36313 0.03589 0.72474 0.0
H835 H 0.36131 1.00327 0.76241 0.0
H836 H 0.38365 1.01276 0.6677 0.0
H837 H 0.38489 0.05644 0.09401 0.0
H838 H 0.41496 0.04449 0.13876 0.0
H839 H 0.38796 0.02354 0.12655 0.0
C840 C 0.55295 0.32506 0.96981 0.0
C841 C 0.53303 0.31131 0.01566 0.0
C842 C 0.54905 0.34922 0.92644 0.0
C843 C 0.52429 0.35986 0.92368 0.0
C844 C 0.50363 0.34504 0.9611 0.0
C845 C 0.50824 0.32117 1.00763 0.0
C846 C 0.57191 0.36413 0.89029 0.0
C847 C 0.47673 0.35495 0.95622 0.0
C848 C 0.51945 0.43282 0.9292 0.0
C849 C 0.51757 0.43948 0.82891 0.0
C850 C 0.52145 0.40719 0.96046 0.0
C851 C 0.52065 0.38724 0.89039 0.0
C852 C 0.51806 0.3938 0.78896 0.0
C853 C 0.51707 0.41975 0.7594 0.0
C854 C 0.52526 0.40155 0.06875 0.0
C855 C 0.51644 0.37341 0.71135 0.0
H856 H 0.57214 0.31754 0.97309 0.0
H857 H 0.49262 0.31096 0.04228 0.0
H858 H 0.56892 0.3708 0.81347 0.0
H859 H 0.57451 0.38128 0.93665 0.0
H860 H 0.58973 0.35277 0.89306 0.0
H861 H 0.4625 0.33981 0.97281 0.0
H862 H 0.47431 0.37047 0.01047 0.0
H863 H 0.47271 0.36304 0.88202 0.0
H864 H 0.52016 0.44782 0.9837 0.0
H865 H 0.51554 0.42457 0.68179 0.0
H866 H 0.54338 0.39106 0.07946 0.0
H867 H 0.50967 0.38915 0.09662 0.0
H868 H 0.52586 0.41911 0.11391 0.0
H869 H 0.53527 0.36416 0.70268 0.0
H870 H 0.51058 0.38125 0.63855 0.0
H871 H 0.50264 0.35841 0.73403 0.0
C872 C 0.21379 0.48203 0.95985 0.0
C873 C 0.22755 0.50153 1.00689 0.0
C874 C 0.18886 0.48587 0.92369 0.0
C875 C 0.17697 0.50995 0.93372 0.0
C876 C 0.19137 0.53021 0.97533 0.0
C877 C 0.21634 0.52576 0.01169 0.0
C878 C 0.17458 0.46344 0.88169 0.0
C879 C 0.17988 0.55631 0.98666 0.0
C880 C 0.11512 0.52074 0.7856 0.0
C881 C 0.09602 0.51599 0.85642 0.0
C882 C 0.14135 0.51961 0.81005 0.0
C883 C 0.14904 0.51316 0.90752 0.0
C884 C 0.12983 0.5084 0.97923 0.0
C885 C 0.10377 0.51005 0.95317 0.0
C886 C 0.16092 0.52513 0.73118 0.0
C887 C 0.13681 0.50123 0.0838 0.0
H888 H 0.22202 0.46313 0.95681 0.0
H889 H 0.22641 0.54084 0.04961 0.0
H890 H 0.16097 0.4561 0.93781 0.0
H891 H 0.16337 0.46912 0.8159 0.0
H892 H 0.18761 0.44771 0.86105 0.0
H893 H 0.19442 0.57082 1.00645 0.0
H894 H 0.1703 0.56234 0.91744 0.0
H895 H 0.16522 0.55574 0.04558 0.0
H896 H 0.10958 0.52545 0.71068 0.0
H897 H 0.0894 0.50632 0.00886 0.0
H898 H 0.17242 0.50781 0.71735 0.0
H899 H 0.17424 0.54018 0.75637 0.0
H900 H 0.15207 0.53139 0.66071 0.0
H901 H 0.1487 0.48378 0.08414 0.0
H902 H 0.11979 0.49776 0.13077 0.0
H903 H 0.14831 0.51665 0.11737 0.0
C904 C 0.04593 0.8298 0.50956 0.0
C905 C 0.02435 0.8169 0.47358 0.0
C906 C 0.044 0.85357 0.55665 0.0
C907 C 1.01979 0.86492 0.57019 0.0
C908 C 0.99774 0.85101 0.54153 0.0
C909 C 1.00027 0.8273 0.49311 0.0
C910 C 0.06816 0.8675 0.58399 0.0
C911 C 0.97148 0.86196 0.55585 0.0
C912 C 1.01735 0.92413 0.73637 0.0
C913 C 1.01763 0.9442 0.66715 0.0
C914 C 1.01718 0.89834 0.70627 0.0
C915 C 1.01796 0.89224 0.60443 0.0
C916 C 1.0184 0.91248 0.5345 0.0
C917 C 1.01796 0.938 0.56648 0.0
C918 C 1.01614 0.87757 0.78347 0.0
C919 C 1.01978 0.90719 0.42532 0.0
H920 H 0.06466 0.8221 0.49412 0.0
H921 H 0.98349 0.81782 0.4644 0.0
H922 H 0.07136 0.8834 0.53102 0.0
H923 H 0.06656 0.87592 0.65849 0.0
H924 H 0.08506 0.85483 0.58222 0.0
H925 H 0.95633 0.84746 0.54463 0.0
H926 H 0.96952 0.86999 0.63093 0.0
H927 H 0.96846 0.87774 0.50231 0.0
H928 H 1.01692 0.92858 0.81428 0.0
H929 H 1.01831 0.95322 0.51205 0.0
H930 H 0.03333 0.86543 0.77805 0.0
H931 H 0.99939 0.86511 0.77033 0.0
H932 H 1.01488 0.8853 0.85933 0.0
H933 H 0.03735 0.89633 0.40857 0.0
H934 H 1.01982 0.92494 0.3802 0.0
H935 H 1.00334 0.89528 0.40266 0.0
C936 C 0.71691 1.01162 0.52937 0.0
C937 C 0.72631 0.03636 0.51241 0.0
C938 C 0.69299 1.00749 0.57619 0.0
C939 C 0.67766 0.02853 0.6048 0.0
C940 C 0.68781 0.05339 0.5929 0.0
C941 C 0.712 0.05689 0.54953 0.0
C942 C 0.68359 0.98057 0.59075 0.0
C943 C 0.67234 0.0766 0.61913 0.0
C944 C 0.60467 1.02206 0.59933 0.0
C945 C 0.59797 0.02226 0.69976 0.0
C946 C 0.63032 0.0238 0.56809 0.0
C947 C 0.65028 0.02499 0.63857 0.0
C948 C 0.6437 0.02457 0.74034 0.0
C949 C 0.61774 0.02364 0.76953 0.0
C950 C 0.63597 0.0252 0.45898 0.0
C951 C 0.6641 0.02528 0.81864 0.0
H952 H 0.72754 0.99555 0.50144 0.0
H953 H 0.71911 0.07612 0.53906 0.0
H954 H 0.66814 0.97654 0.53726 0.0
H955 H 0.69901 0.96641 0.57989 0.0
H956 H 0.67553 0.97807 0.66589 0.0
H957 H 0.68338 0.09456 0.61036 0.0
H958 H 0.65531 0.07766 0.57078 0.0
H959 H 0.66546 0.07526 0.69625 0.0
H960 H 0.58971 1.02129 0.54437 0.0
H961 H 0.61295 0.02376 0.84727 0.0
H962 H 0.64877 1.0094 0.43765 0.0
H963 H 0.64603 0.0433 0.44142 0.0
H964 H 0.61843 0.02416 0.41337 0.0
H965 H 0.65624 1.02186 0.89366 0.0
H966 H 0.67368 0.04413 0.81785 0.0
H967 H 0.67886 1.01074 0.80333 0.0
C968 C 0.55407 0.71701 0.56641 0.0
C969 C 0.53444 0.73039 0.5182 0.0
C970 C 0.55048 0.69204 0.60322 0.0
C971 C 0.52655 0.67975 0.5926 0.0
C972 C 0.50612 0.69381 0.55013 0.0
C973 C 0.51033 0.71881 0.51309 0.0
C974 C 0.57311 0.67811 0.64573 0.0
C975 C 0.48016 0.68187 0.53806 0.0
C976 C 0.52752 0.60676 0.57034 0.0
C977 C 0.52154 0.59843 0.66645 0.0
C978 C 0.52886 0.63293 0.54549 0.0
C979 C 0.52375 0.65168 0.61779 0.0
C980 C 0.51731 0.64342 0.7147 0.0
C981 C 0.51648 0.61706 0.73798 0.0
C982 C 0.53597 0.6405 0.44142 0.0
C983 C 0.5115 0.66251 0.79415 0.0
H984 H 0.57291 0.7255 0.5692 0.0
H985 H 0.49518 0.72859 0.47404 0.0
H986 H 0.56751 0.66606 0.70962 0.0
H987 H 0.58112 0.66537 0.58866 0.0
H988 H 0.58835 0.69148 0.6693 0.0
H989 H 0.46545 0.69622 0.51862 0.0
H990 H 0.48089 0.6675 0.47855 0.0
H991 H 0.47432 0.67186 0.60681 0.0
H992 H 0.53146 0.59274 0.51411 0.0
H993 H 0.51176 0.61106 0.81244 0.0
H994 H 0.55285 0.65329 0.44203 0.0
H995 H 0.52008 0.65122 0.40709 0.0
H996 H 0.54032 0.6238 0.39456 0.0
H997 H 0.52868 0.6742 0.80919 0.0
H998 H 0.50524 0.65323 0.86396 0.0
H999 H 0.49633 0.67571 0.76887 0.0
C1000 C 0.82393 0.49205 0.52237 0.0
C1001 C 0.81071 0.51341 0.48582 0.0
C1002 C 0.84767 0.49438 0.57027 0.0
C1003 C 0.85867 0.51879 0.58413 0.0
C1004 C 0.8444 0.54059 0.55499 0.0
C1005 C 0.82076 0.53766 0.50545 0.0
C1006 C 0.86195 0.47046 0.59787 0.0
C1007 C 0.85486 0.56704 0.57023 0.0
C1008 C 0.91816 0.52145 0.75099 0.0
C1009 C 0.93815 0.52208 0.68191 0.0
C1010 C 0.8923 0.52139 0.72072 0.0
C1011 C 0.88604 0.52111 0.61879 0.0
C1012 C 0.90621 0.52156 0.54902 0.0
C1013 C 0.93179 0.5224 0.58121 0.0
C1014 C 0.87162 0.52162 0.79789 0.0
C1015 C 0.90082 0.52057 0.43976 0.0
H1016 H 0.81656 0.47321 0.5064 0.0
H1017 H 0.81107 0.55427 0.47617 0.0
H1018 H 0.87789 0.46769 0.54523 0.0
H1019 H 0.87035 0.47203 0.67257 0.0
H1020 H 0.84952 0.4533 0.59582 0.0
H1021 H 0.84001 0.58185 0.55958 0.0
H1022 H 0.86298 0.56889 0.64538 0.0
H1023 H 0.87046 0.57071 0.51675 0.0
H1024 H 0.92272 0.52135 0.82893 0.0
H1025 H 0.94694 0.52267 0.52687 0.0
H1026 H 0.85868 0.53797 0.78466 0.0
H1027 H 0.87944 0.523 0.87375 0.0
H1028 H 0.85994 0.50405 0.79256 0.0
H1029 H 0.89015 0.50288 0.42229 0.0
H1030 H 0.91852 0.52105 0.39479 0.0
H1031 H 0.88867 0.53688 0.41757 0.0
loop_
_geom_bond_atom_site_label_1
_geom_bond_atom_site_label_2
_geom_bond_distance
_geom_bond_site_symmetry_2
_ccdc_geom_bond_type
H0 C7 0.929 . S
H1 C10 0.930 . S
H2 C12 0.929 . S
H3 C4 0.969 . S
C4 H3 0.969 . S
C4 O5 1.550 . S
C4 H6 0.973 . S
O5 C4 1.550 . S
O5 C11 1.412 . S
H6 C4 0.973 . S
C7 H0 0.929 . S
C7 C8 1.400 . S
C7 C9 1.364 . S
C8 C7 1.400 . S
C8 C12 1.377 . S
C9 C7 1.364 . S
C9 C10 1.374 . S
C10 H1 0.930 . S
C10 C9 1.374 . S
C10 C11 1.383 . S
C11 O5 1.412 . S
C11 C10 1.383 . S
C11 C12 1.394 . S
C12 H2 0.929 . S
C12 C8 1.377 . S
C12 C11 1.394 . S
H13 C20 0.928 1_655 S
H14 C23 0.930 . S
H15 C25 0.928 1_655 S
H16 C17 0.969 . S
C17 H16 0.969 . S
C17 O18 1.550 1_455 S
C17 H19 0.973 1_455 S
O18 C17 1.550 1_655 S
O18 C24 1.405 1_655 S
H19 C17 0.973 1_655 S
C20 H13 0.928 1_455 S
C20 C21 1.400 . S
C20 C22 1.364 . S
C21 C20 1.400 . S
C21 C25 1.377 . S
C22 C20 1.364 . S
C22 C23 1.374 1_455 S
C23 H14 0.930 . S
C23 C22 1.374 1_655 S
C23 C24 1.382 1_655 S
C24 O18 1.405 1_455 S
C24 C23 1.382 1_455 S
C24 C25 1.394 . S
C25 H15 0.928 1_455 S
C25 C21 1.377 . S
C25 C24 1.394 . S
H26 C33 0.928 1_565 S
H27 C36 0.930 . S
H28 C38 0.928 1_565 S
H29 C30 0.969 . S
C30 H29 0.969 . S
C30 O31 1.550 1_545 S
C30 H32 0.973 1_545 S
O31 C30 1.550 1_565 S
O31 C37 1.405 1_565 S
H32 C30 0.973 1_565 S
C33 H26 0.928 1_545 S
C33 C34 1.399 . S
C33 C35 1.364 . S
C34 C33 1.399 . S
C34 C38 1.377 . S
C35 C33 1.364 . S
C35 C36 1.374 1_545 S
C36 H27 0.930 . S
C36 C35 1.374 1_565 S
C36 C37 1.382 1_565 S
C37 O31 1.405 1_545 S
C37 C36 1.382 1_545 S
C37 C38 1.394 . S
C38 H28 0.928 1_545 S
C38 C34 1.377 . S
C38 C37 1.394 . S
H39 C46 0.929 . S
H40 C49 0.930 . S
H41 C51 0.929 . S
H42 C43 0.969 . S
C43 H42 0.969 . S
C43 O44 1.550 . S
C43 H45 0.973 . S
O44 C43 1.550 . S
O44 C50 1.412 . S
H45 C43 0.973 . S
C46 H39 0.929 . S
C46 C47 1.400 . S
C46 C48 1.364 . S
C47 C46 1.400 . S
C47 C51 1.377 . S
C48 C46 1.364 . S
C48 C49 1.374 . S
C49 H40 0.930 . S
C49 C48 1.374 . S
C49 C50 1.383 . S
C50 O44 1.412 . S
C50 C49 1.383 . S
C50 C51 1.394 . S
C51 H41 0.929 . S
C51 C47 1.377 . S
C51 C50 1.394 . S
H52 C59 0.929 . S
H53 C62 0.930 . S
H54 C64 0.929 . S
H55 C56 0.969 . S
C56 H55 0.969 . S
C56 O57 1.550 . S
C56 H58 0.973 . S
O57 C56 1.550 . S
O57 C63 1.412 . S
H58 C56 0.973 . S
C59 H52 0.929 . S
C59 C60 1.400 1_554 S
C59 C61 1.364 . S
C60 C59 1.400 1_556 S
C60 C64 1.377 . S
C61 C59 1.364 . S
C61 C62 1.374 . S
C62 H53 0.930 . S
C62 C61 1.374 . S
C62 C63 1.383 . S
C63 O57 1.412 . S
C63 C62 1.383 . S
C63 C64 1.394 1_554 S
C64 H54 0.929 . S
C64 C60 1.377 . S
C64 C63 1.394 1_556 S
H65 C72 0.928 1_655 S
H66 C75 0.930 . S
H67 C77 0.928 1_655 S
H68 C69 0.969 . S
C69 H68 0.969 . S
C69 O70 1.550 1_455 S
C69 H71 0.973 1_455 S
O70 C69 1.550 1_655 S
O70 C76 1.402 1_655 S
H71 C69 0.973 1_655 S
C72 H65 0.928 1_455 S
C72 C73 1.400 1_554 S
C72 C74 1.364 . S
C73 C72 1.400 1_556 S
C73 C77 1.377 . S
C74 C72 1.364 . S
C74 C75 1.374 1_455 S
C75 H66 0.930 . S
C75 C74 1.374 1_655 S
C75 C76 1.382 1_655 S
C76 O70 1.402 1_455 S
C76 C75 1.382 1_455 S
C76 C77 1.394 1_554 S
C77 H67 0.928 1_455 S
C77 C73 1.377 . S
C77 C76 1.394 1_556 S
H78 C85 0.928 1_565 S
H79 C88 0.930 . S
H80 C90 0.928 1_565 S
H81 C82 0.969 . S
C82 H81 0.969 . S
C82 O83 1.550 1_545 S
C82 H84 0.973 1_545 S
O83 C82 1.550 1_565 S
O83 C89 1.402 1_565 S
H84 C82 0.973 1_565 S
C85 H78 0.928 1_545 S
C85 C86 1.400 1_554 S
C85 C87 1.364 . S
C86 C85 1.400 1_556 S
C86 C90 1.377 . S
C87 C85 1.364 . S
C87 C88 1.374 1_545 S
C88 H79 0.930 . S
C88 C87 1.374 1_565 S
C88 C89 1.382 1_565 S
C89 O83 1.402 1_545 S
C89 C88 1.382 1_545 S
C89 C90 1.394 1_554 S
C90 H80 0.928 1_545 S
C90 C86 1.377 . S
C90 C89 1.394 1_556 S
H91 C98 0.929 . S
H92 C101 0.930 . S
H93 C103 0.929 . S
H94 C95 0.969 . S
C95 H94 0.969 . S
C95 O96 1.550 . S
C95 H97 0.973 . S
O96 C95 1.550 . S
O96 C102 1.412 . S
H97 C95 0.973 . S
C98 H91 0.929 . S
C98 C99 1.400 1_554 S
C98 C100 1.364 . S
C99 C98 1.400 1_556 S
C99 C103 1.377 . S
C100 C98 1.364 . S
C100 C101 1.374 . S
C101 H92 0.930 . S
C101 C100 1.374 . S
C101 C102 1.383 . S
C102 O96 1.412 . S
C102 C101 1.383 . S
C102 C103 1.394 1_554 S
C103 H93 0.929 . S
C103 C99 1.377 . S
C103 C102 1.394 1_556 S
La104 C106 2.928 . S
La104 O124 2.521 . S
La104 O125 2.628 . S
La104 O126 2.554 . S
La104 O127 2.757 1_565 S
La104 O128 2.470 . S
La104 O133 2.482 1_455 S
La104 O135 2.503 1_565 S
La105 C115 2.928 . S
La105 O127 2.482 1_655 S
La105 O129 2.503 1_545 S
La105 O130 2.521 . S
La105 O131 2.628 . S
La105 O132 2.554 . S
La105 O133 2.757 1_545 S
La105 O134 2.470 . S
C106 La104 2.928 . S
C106 C107 1.503 1_556 S
C106 O124 1.261 . S
C106 O125 1.243 . S
C107 C106 1.503 1_554 S
C107 C108 1.394 . S
C107 C112 1.373 . S
C108 C107 1.394 . S
C108 C109 1.380 . S
C108 H136 0.930 . S
C109 C108 1.380 . S
C109 C110 1.376 . S
C109 H137 0.930 . S
C110 C109 1.376 . S
C110 C111 1.370 . S
C111 C110 1.370 . S
C111 C112 1.396 . S
C111 H138 0.929 1_455 S
C112 C107 1.373 . S
C112 C111 1.396 . S
C112 H139 0.929 1_455 S
C113 O126 1.240 . S
C113 O127 1.289 1_565 S
C114 O128 1.258 1_655 S
C114 O129 1.256 . S
C115 La105 2.928 . S
C115 C116 1.503 . S
C115 O130 1.261 . S
C115 O131 1.243 . S
C116 C115 1.503 . S
C116 C117 1.394 . S
C116 C121 1.373 . S
C117 C116 1.394 . S
C117 C118 1.380 . S
C117 H140 0.930 . S
C118 C117 1.380 . S
C118 C119 1.376 . S
C118 H141 0.930 . S
C119 C118 1.376 . S
C119 C120 1.370 . S
C120 C119 1.370 . S
C120 C121 1.396 . S
C120 H142 0.929 1_655 S
C121 C116 1.373 . S
C121 C120 1.396 . S
C121 H143 0.929 1_655 S
C122 O132 1.240 . S
C122 O133 1.289 1_545 S
C123 O134 1.258 1_455 S
C123 O135 1.256 . S
O124 La104 2.521 . S
O124 C106 1.261 . S
O125 La104 2.628 . S
O125 C106 1.243 . S
O126 La104 2.554 . S
O126 C113 1.240 . S
O127 La104 2.757 1_545 S
O127 La105 2.482 1_455 S
O127 C113 1.289 1_545 S
O128 La104 2.470 . S
O128 C114 1.258 1_455 S
O129 La105 2.503 1_565 S
O129 C114 1.256 . S
O130 La105 2.521 . S
O130 C115 1.261 . S
O131 La105 2.628 . S
O131 C115 1.243 . S
O132 La105 2.554 . S
O132 C122 1.240 . S
O133 La104 2.482 1_655 S
O133 La105 2.757 1_565 S
O133 C122 1.289 1_565 S
O134 La105 2.470 . S
O134 C123 1.258 1_655 S
O135 La104 2.503 1_545 S
O135 C123 1.256 . S
H136 C108 0.930 . S
H137 C109 0.930 . S
H138 C111 0.929 1_655 S
H139 C112 0.929 1_655 S
H140 C117 0.930 . S
H141 C118 0.930 . S
H142 C120 0.929 1_455 S
H143 C121 0.929 1_455 S
La144 C146 2.928 . S
La144 O164 2.521 . S
La144 O165 2.628 . S
La144 O166 2.554 . S
La144 O167 2.757 . S
La144 O168 2.470 . S
La144 O173 2.482 1_545 S
La144 O175 2.503 . S
La145 C155 2.928 . S
La145 O167 2.482 1_565 S
La145 O169 2.503 . S
La145 O170 2.521 . S
La145 O171 2.628 . S
La145 O172 2.554 . S
La145 O173 2.757 . S
La145 O174 2.470 . S
C146 La144 2.928 . S
C146 C147 1.503 1_556 S
C146 O164 1.261 . S
C146 O165 1.243 . S
C147 C146 1.503 1_554 S
C147 C148 1.394 . S
C147 C152 1.373 . S
C148 C147 1.394 . S
C148 C149 1.380 . S
C148 H176 0.930 . S
C149 C148 1.380 . S
C149 C150 1.376 . S
C149 H177 0.930 . S
C150 C149 1.376 . S
C150 C151 1.370 . S
C151 C150 1.370 . S
C151 C152 1.396 . S
C151 H178 0.929 1_545 S
C152 C147 1.373 . S
C152 C151 1.396 . S
C152 H179 0.929 1_545 S
C153 O166 1.240 . S
C153 O167 1.289 . S
C154 O168 1.258 1_565 S
C154 O169 1.256 . S
C155 La145 2.928 . S
C155 C156 1.503 . S
C155 O170 1.261 . S
C155 O171 1.243 . S
C156 C155 1.503 . S
C156 C157 1.394 . S
C156 C161 1.373 . S
C157 C156 1.394 . S
C157 C158 1.380 . S
C157 H180 0.930 . S
C158 C157 1.380 . S
C158 C159 1.376 . S
C158 H181 0.930 . S
C159 C158 1.376 . S
C159 C160 1.370 . S
C160 C159 1.370 . S
C160 C161 1.396 . S
C160 H182 0.929 1_565 S
C161 C156 1.373 . S
C161 C160 1.396 . S
C161 H183 0.929 1_565 S
C162 O172 1.240 . S
C162 O173 1.289 . S
C163 O174 1.258 1_545 S
C163 O175 1.256 . S
O164 La144 2.521 . S
O164 C146 1.261 . S
O165 La144 2.628 . S
O165 C146 1.243 . S
O166 La144 2.554 . S
O166 C153 1.240 . S
O167 La144 2.757 . S
O167 La145 2.482 1_545 S
O167 C153 1.289 . S
O168 La144 2.470 . S
O168 C154 1.258 1_545 S
O169 La145 2.503 . S
O169 C154 1.256 . S
O170 La145 2.521 . S
O170 C155 1.261 . S
O171 La145 2.628 . S
O171 C155 1.243 . S
O172 La145 2.554 . S
O172 C162 1.240 . S
O173 La144 2.482 1_565 S
O173 La145 2.757 . S
O173 C162 1.289 . S
O174 La145 2.470 . S
O174 C163 1.258 1_565 S
O175 La144 2.503 . S
O175 C163 1.256 . S
H176 C148 0.930 . S
H177 C149 0.930 . S
H178 C151 0.929 1_565 S
H179 C152 0.929 1_565 S
H180 C157 0.930 . S
H181 C158 0.930 . S
H182 C160 0.929 1_545 S
H183 C161 0.929 1_545 S
La184 C186 2.928 . S
La184 O204 2.521 . S
La184 O205 2.628 . S
La184 O206 2.554 . S
La184 O207 2.757 . S
La184 O208 2.470 . S
La184 O213 2.482 . S
La184 O215 2.503 . S
La185 C195 2.928 . S
La185 O207 2.482 . S
La185 O209 2.503 . S
La185 O210 2.521 . S
La185 O211 2.628 . S
La185 O212 2.554 . S
La185 O213 2.757 . S
La185 O214 2.470 . S
C186 La184 2.928 . S
C186 C187 1.503 1_556 S
C186 O204 1.261 . S
C186 O205 1.243 . S
C187 C186 1.503 1_554 S
C187 C188 1.394 . S
C187 C192 1.373 . S
C188 C187 1.394 . S
C188 C189 1.380 . S
C188 H216 0.930 . S
C189 C188 1.380 . S
C189 C190 1.376 . S
C189 H217 0.930 . S
C190 C189 1.376 . S
C190 C191 1.370 . S
C191 C190 1.370 . S
C191 C192 1.396 . S
C191 H218 0.929 . S
C192 C187 1.373 . S
C192 C191 1.396 . S
C192 H219 0.929 . S
C193 O206 1.240 . S
C193 O207 1.289 . S
C194 O208 1.258 . S
C194 O209 1.256 . S
C195 La185 2.928 . S
C195 C196 1.503 . S
C195 O210 1.261 . S
C195 O211 1.243 . S
C196 C195 1.503 . S
C196 C197 1.394 . S
C196 C201 1.373 . S
C197 C196 1.394 . S
C197 C198 1.380 . S
C197 H220 0.930 . S
C198 C197 1.380 . S
C198 C199 1.376 . S
C198 H221 0.930 . S
C199 C198 1.376 . S
C199 C200 1.370 . S
C200 C199 1.370 . S
C200 C201 1.396 . S
C200 H222 0.929 . S
C201 C196 1.373 . S
C201 C200 1.396 . S
C201 H223 0.929 . S
C202 O212 1.240 . S
C202 O213 1.289 . S
C203 O214 1.258 . S
C203 O215 1.256 . S
O204 La184 2.521 . S
O204 C186 1.261 . S
O205 La184 2.628 . S
O205 C186 1.243 . S
O206 La184 2.554 . S
O206 C193 1.240 . S
O207 La184 2.757 . S
O207 La185 2.482 . S
O207 C193 1.289 . S
O208 La184 2.470 . S
O208 C194 1.258 . S
O209 La185 2.503 . S
O209 C194 1.256 . S
O210 La185 2.521 . S
O210 C195 1.261 . S
O211 La185 2.628 . S
O211 C195 1.243 . S
O212 La185 2.554 . S
O212 C202 1.240 . S
O213 La184 2.482 . S
O213 La185 2.757 . S
O213 C202 1.289 . S
O214 La185 2.470 . S
O214 C203 1.258 . S
O215 La184 2.503 . S
O215 C203 1.256 . S
H216 C188 0.930 . S
H217 C189 0.930 . S
H218 C191 0.929 . S
H219 C192 0.929 . S
H220 C197 0.930 . S
H221 C198 0.930 . S
H222 C200 0.929 . S
H223 C201 0.929 . S
La224 C226 2.928 . S
La224 O244 2.521 . S
La224 O245 2.628 . S
La224 O246 2.554 . S
La224 O247 2.757 1_655 S
La224 O248 2.470 . S
La224 O253 2.482 . S
La224 O255 2.503 1_655 S
La225 C235 2.928 . S
La225 O247 2.482 . S
La225 O249 2.503 1_455 S
La225 O250 2.521 . S
La225 O251 2.628 . S
La225 O252 2.554 . S
La225 O253 2.757 1_455 S
La225 O254 2.470 . S
C226 La224 2.928 . S
C226 C227 1.503 1_556 S
C226 O244 1.261 . S
C226 O245 1.243 . S
C227 C226 1.503 1_554 S
C227 C228 1.394 . S
C227 C232 1.373 . S
C228 C227 1.394 . S
C228 C229 1.380 . S
C228 H256 0.930 . S
C229 C228 1.380 . S
C229 C230 1.376 . S
C229 H257 0.930 . S
C230 C229 1.376 . S
C230 C231 1.370 . S
C231 C230 1.370 . S
C231 C232 1.396 . S
C231 H258 0.929 . S
C232 C227 1.373 . S
C232 C231 1.396 . S
C232 H259 0.929 . S
C233 O246 1.257 . S
C233 O247 1.279 1_655 S
C234 O248 1.258 . S
C234 O249 1.256 . S
C235 La225 2.928 . S
C235 C236 1.503 . S
C235 O250 1.261 . S
C235 O251 1.243 . S
C236 C235 1.503 . S
C236 C237 1.394 . S
C236 C241 1.373 . S
C237 C236 1.394 . S
C237 C238 1.380 . S
C237 H260 0.930 . S
C238 C237 1.380 . S
C238 C239 1.376 . S
C238 H261 0.930 . S
C239 C238 1.376 . S
C239 C240 1.370 . S
C240 C239 1.370 . S
C240 C241 1.396 . S
C240 H262 0.929 . S
C241 C236 1.373 . S
C241 C240 1.396 . S
C241 H263 0.929 . S
C242 O252 1.263 . S
C242 O253 1.276 1_455 S
C243 O254 1.258 . S
C243 O255 1.256 . S
O244 La224 2.521 . S
O244 C226 1.261 . S
O245 La224 2.628 . S
O245 C226 1.243 . S
O246 La224 2.554 . S
O246 C233 1.257 . S
O247 La224 2.757 1_455 S
O247 La225 2.482 . S
O247 C233 1.279 1_455 S
O248 La224 2.470 . S
O248 C234 1.258 . S
O249 La225 2.503 1_655 S
O249 C234 1.256 . S
O250 La225 2.521 . S
O250 C235 1.261 . S
O251 La225 2.628 . S
O251 C235 1.243 . S
O252 La225 2.554 . S
O252 C242 1.263 . S
O253 La224 2.482 . S
O253 La225 2.757 1_655 S
O253 C242 1.276 1_655 S
O254 La225 2.470 . S
O254 C243 1.258 . S
O255 La224 2.503 1_455 S
O255 C243 1.256 . S
H256 C228 0.930 . S
H257 C229 0.930 . S
H258 C231 0.929 . S
H259 C232 0.929 . S
H260 C237 0.930 . S
H261 C238 0.930 . S
H262 C240 0.929 . S
H263 C241 0.929 . S
C264 C265 1.391 1_545 S
C264 C266 1.394 . S
C264 H280 0.931 . S
C265 C264 1.391 1_565 S
C265 C269 1.376 . S
C266 C264 1.394 . S
C266 C267 1.369 1_545 S
C266 C270 1.531 . S
C267 C266 1.369 1_565 S
C267 C268 1.410 . S
C267 C275 1.503 . S
C268 C267 1.410 . S
C268 C269 1.392 . S
C268 C271 1.511 . S
C269 C265 1.376 . S
C269 C268 1.392 . S
C269 H281 0.929 . S
C270 C266 1.531 . S
C270 H282 0.960 . S
C270 H283 0.962 . S
C270 H284 0.960 . S
C271 C268 1.511 . S
C271 H285 0.961 . S
C271 H286 0.961 . S
C271 H287 0.961 . S
C272 C273 1.380 . S
C272 C274 1.363 . S
C272 H288 0.931 . S
C273 C272 1.380 . S
C273 C277 1.398 1_545 S
C274 C272 1.363 . S
C274 C275 1.370 1_545 S
C274 C278 1.524 . S
C275 C267 1.503 . S
C275 C274 1.370 1_565 S
C275 C276 1.403 . S
C276 C275 1.403 . S
C276 C277 1.404 . S
C276 C279 1.539 . S
C277 C273 1.398 1_565 S
C277 C276 1.404 . S
C277 H289 0.930 . S
C278 C274 1.524 . S
C278 H290 0.956 . S
C278 H291 0.961 . S
C278 H292 0.961 . S
C279 C276 1.539 . S
C279 H293 0.958 . S
C279 H294 0.961 . S
C279 H295 0.960 . S
H280 C264 0.931 . S
H281 C269 0.929 . S
H282 C270 0.960 . S
H283 C270 0.962 . S
H284 C270 0.960 . S
H285 C271 0.961 . S
H286 C271 0.961 . S
H287 C271 0.961 . S
H288 C272 0.931 . S
H289 C277 0.930 . S
H290 C278 0.956 . S
H291 C278 0.961 . S
H292 C278 0.961 . S
H293 C279 0.958 . S
H294 C279 0.961 . S
H295 C279 0.960 . S
C296 C297 1.391 . S
C296 C298 1.394 . S
C296 H312 0.931 . S
C297 C296 1.391 . S
C297 C301 1.376 . S
C298 C296 1.394 . S
C298 C299 1.369 . S
C298 C302 1.531 . S
C299 C298 1.369 . S
C299 C300 1.410 . S
C299 C307 1.503 . S
C300 C299 1.410 . S
C300 C301 1.392 . S
C300 C303 1.511 . S
C301 C297 1.376 . S
C301 C300 1.392 . S
C301 H313 0.929 . S
C302 C298 1.531 . S
C302 H314 0.960 . S
C302 H315 0.962 . S
C302 H316 0.960 . S
C303 C300 1.511 . S
C303 H317 0.961 . S
C303 H318 0.961 . S
C303 H319 0.961 . S
C304 C305 1.370 . S
C304 C306 1.363 . S
C304 H320 0.931 . S
C305 C304 1.370 . S
C305 C309 1.408 . S
C306 C304 1.363 . S
C306 C307 1.370 . S
C306 C310 1.524 . S
C307 C299 1.503 . S
C307 C306 1.370 . S
C307 C308 1.403 . S
C308 C307 1.403 . S
C308 C309 1.404 . S
C308 C311 1.539 . S
C309 C305 1.408 . S
C309 C308 1.404 . S
C309 H321 0.930 . S
C310 C306 1.524 . S
C310 H322 0.956 . S
C310 H323 0.961 . S
C310 H324 0.961 . S
C311 C308 1.539 . S
C311 H325 0.958 . S
C311 H326 0.961 . S
C311 H327 0.960 . S
H312 C296 0.931 . S
H313 C301 0.929 . S
H314 C302 0.960 . S
H315 C302 0.962 . S
H316 C302 0.960 . S
H317 C303 0.961 . S
H318 C303 0.961 . S
H319 C303 0.961 . S
H320 C304 0.931 . S
H321 C309 0.930 . S
H322 C310 0.956 . S
H323 C310 0.961 . S
H324 C310 0.961 . S
H325 C311 0.958 . S
H326 C311 0.961 . S
H327 C311 0.960 . S
C328 C329 1.391 . S
C328 C330 1.394 . S
C328 H344 0.931 . S
C329 C328 1.391 . S
C329 C333 1.376 . S
C330 C328 1.394 . S
C330 C331 1.369 . S
C330 C334 1.531 . S
C331 C330 1.369 . S
C331 C332 1.410 . S
C331 C339 1.503 . S
C332 C331 1.410 . S
C332 C333 1.392 . S
C332 C335 1.511 . S
C333 C329 1.376 . S
C333 C332 1.392 . S
C333 H345 0.929 . S
C334 C330 1.531 . S
C334 H346 0.960 . S
C334 H347 0.962 . S
C334 H348 0.960 . S
C335 C332 1.511 . S
C335 H349 0.961 . S
C335 H350 0.961 . S
C335 H351 0.961 . S
C336 C337 1.370 . S
C336 C338 1.363 . S
C336 H352 0.931 . S
C337 C336 1.370 . S
C337 C341 1.408 . S
C338 C336 1.363 . S
C338 C339 1.370 . S
C338 C342 1.524 . S
C339 C331 1.503 . S
C339 C338 1.370 . S
C339 C340 1.403 . S
C340 C339 1.403 . S
C340 C341 1.404 . S
C340 C343 1.539 . S
C341 C337 1.408 . S
C341 C340 1.404 . S
C341 H353 0.930 . S
C342 C338 1.524 . S
C342 H354 0.956 . S
C342 H355 0.961 . S
C342 H356 0.961 . S
C343 C340 1.539 . S
C343 H357 0.958 . S
C343 H358 0.961 . S
C343 H359 0.960 . S
H344 C328 0.931 . S
H345 C333 0.929 . S
H346 C334 0.960 . S
H347 C334 0.962 . S
H348 C334 0.960 . S
H349 C335 0.961 . S
H350 C335 0.961 . S
H351 C335 0.961 . S
H352 C336 0.931 . S
H353 C341 0.930 . S
H354 C342 0.956 . S
H355 C342 0.961 . S
H356 C342 0.961 . S
H357 C343 0.958 . S
H358 C343 0.961 . S
H359 C343 0.960 . S
C360 C361 1.391 1_655 S
C360 C362 1.394 . S
C360 H376 0.931 . S
C361 C360 1.391 1_455 S
C361 C365 1.376 . S
C362 C360 1.394 . S
C362 C363 1.369 1_655 S
C362 C366 1.531 . S
C363 C362 1.369 1_455 S
C363 C364 1.410 . S
C363 C371 1.503 . S
C364 C363 1.410 . S
C364 C365 1.392 . S
C364 C367 1.511 . S
C365 C361 1.376 . S
C365 C364 1.392 . S
C365 H377 0.929 . S
C366 C362 1.531 . S
C366 H378 0.960 . S
C366 H379 0.962 . S
C366 H380 0.960 . S
C367 C364 1.511 . S
C367 H381 0.961 . S
C367 H382 0.961 . S
C367 H383 0.961 . S
C368 C369 1.370 1_655 S
C368 C370 1.363 . S
C368 H384 0.931 . S
C369 C368 1.370 1_455 S
C369 C373 1.408 . S
C370 C368 1.363 . S
C370 C371 1.370 1_655 S
C370 C374 1.524 . S
C371 C363 1.503 . S
C371 C370 1.370 1_455 S
C371 C372 1.403 . S
C372 C371 1.403 . S
C372 C373 1.404 . S
C372 C375 1.539 . S
C373 C369 1.408 . S
C373 C372 1.404 . S
C373 H385 0.930 . S
C374 C370 1.524 . S
C374 H386 0.956 . S
C374 H387 0.961 . S
C374 H388 0.961 . S
C375 C372 1.539 . S
C375 H389 0.958 . S
C375 H390 0.961 . S
C375 H391 0.960 . S
H376 C360 0.931 . S
H377 C365 0.929 . S
H378 C366 0.960 . S
H379 C366 0.962 . S
H380 C366 0.960 . S
H381 C367 0.961 . S
H382 C367 0.961 . S
H383 C367 0.961 . S
H384 C368 0.931 . S
H385 C373 0.930 . S
H386 C374 0.956 . S
H387 C374 0.961 . S
H388 C374 0.961 . S
H389 C375 0.958 . S
H390 C375 0.961 . S
H391 C375 0.960 . S
C392 C393 1.391 . S
C392 C394 1.394 . S
C392 H408 0.931 . S
C393 C392 1.391 . S
C393 C397 1.372 1_565 S
C394 C392 1.394 . S
C394 C395 1.369 . S
C394 C398 1.531 . S
C395 C394 1.369 . S
C395 C396 1.410 . S
C395 C403 1.503 . S
C396 C395 1.410 . S
C396 C397 1.390 1_565 S
C396 C399 1.511 1_565 S
C397 C393 1.372 1_545 S
C397 C396 1.390 1_545 S
C397 H409 0.938 . S
C398 C394 1.531 . S
C398 H410 0.960 . S
C398 H411 0.962 . S
C398 H412 0.960 . S
C399 C396 1.511 1_545 S
C399 H413 0.961 . S
C399 H414 0.961 . S
C399 H415 0.961 1_545 S
C400 C401 1.370 1_545 S
C400 C402 1.363 1_556 S
C400 H416 0.931 . S
C401 C400 1.370 1_565 S
C401 C405 1.408 . S
C402 C400 1.363 1_554 S
C402 C403 1.370 1_545 S
C402 C406 1.524 . S
C403 C395 1.503 . S
C403 C402 1.370 1_565 S
C403 C404 1.403 . S
C404 C403 1.403 . S
C404 C405 1.404 1_554 S
C404 C407 1.539 . S
C405 C401 1.408 . S
C405 C404 1.404 1_556 S
C405 H417 0.930 . S
C406 C402 1.524 . S
C406 H418 0.956 . S
C406 H419 0.961 . S
C406 H420 0.961 . S
C407 C404 1.539 . S
C407 H421 0.958 . S
C407 H422 0.961 1_554 S
C407 H423 0.960 . S
H408 C392 0.931 . S
H409 C397 0.938 . S
H410 C398 0.960 . S
H411 C398 0.962 . S
H412 C398 0.960 . S
H413 C399 0.961 . S
H414 C399 0.961 . S
H415 C399 0.961 1_565 S
H416 C400 0.931 . S
H417 C405 0.930 . S
H418 C406 0.956 . S
H419 C406 0.961 . S
H420 C406 0.961 . S
H421 C407 0.958 . S
H422 C407 0.961 1_556 S
H423 C407 0.960 . S
C424 C425 1.391 . S
C424 C426 1.394 . S
C424 H440 0.931 . S
C425 C424 1.391 . S
C425 C429 1.376 . S
C426 C424 1.394 . S
C426 C427 1.369 . S
C426 C430 1.531 . S
C427 C426 1.369 . S
C427 C428 1.410 . S
C427 C435 1.503 . S
C428 C427 1.410 . S
C428 C429 1.392 . S
C428 C431 1.511 . S
C429 C425 1.376 . S
C429 C428 1.392 . S
C429 H441 0.929 . S
C430 C426 1.531 . S
C430 H442 0.960 . S
C430 H443 0.962 . S
C430 H444 0.960 . S
C431 C428 1.511 . S
C431 H445 0.961 . S
C431 H446 0.961 . S
C431 H447 0.961 . S
C432 C433 1.370 1_554 S
C432 C434 1.363 . S
C432 H448 0.931 . S
C433 C432 1.370 1_556 S
C433 C437 1.408 . S
C434 C432 1.363 . S
C434 C435 1.370 . S
C434 C438 1.524 . S
C435 C427 1.503 . S
C435 C434 1.370 . S
C435 C436 1.403 1_554 S
C436 C435 1.403 1_556 S
C436 C437 1.404 . S
C436 C439 1.539 . S
C437 C433 1.408 . S
C437 C436 1.404 . S
C437 H449 0.930 . S
C438 C434 1.524 . S
C438 H450 0.956 . S
C438 H451 0.961 . S
C438 H452 0.961 . S
C439 C436 1.539 . S
C439 H453 0.958 . S
C439 H454 0.961 . S
C439 H455 0.961 . S
H440 C424 0.931 . S
H441 C429 0.929 . S
H442 C430 0.960 . S
H443 C430 0.962 . S
H444 C430 0.960 . S
H445 C431 0.961 . S
H446 C431 0.961 . S
H447 C431 0.961 . S
H448 C432 0.931 . S
H449 C437 0.930 . S
H450 C438 0.956 . S
H451 C438 0.961 . S
H452 C438 0.961 . S
H453 C439 0.958 . S
H454 C439 0.961 . S
H455 C439 0.961 . S
C456 C457 1.391 . S
C456 C458 1.394 . S
C456 H472 0.931 . S
C457 C456 1.391 . S
C457 C461 1.376 . S
C458 C456 1.394 . S
C458 C459 1.369 . S
C458 C462 1.531 . S
C459 C458 1.369 . S
C459 C460 1.410 . S
C459 C467 1.503 . S
C460 C459 1.410 . S
C460 C461 1.392 . S
C460 C463 1.511 . S
C461 C457 1.376 . S
C461 C460 1.392 . S
C461 H473 0.929 . S
C462 C458 1.531 . S
C462 H474 0.960 . S
C462 H475 0.962 . S
C462 H476 0.960 . S
C463 C460 1.511 . S
C463 H477 0.961 . S
C463 H478 0.961 . S
C463 H479 0.961 . S
C464 C465 1.370 . S
C464 C466 1.363 1_556 S
C464 H480 0.931 . S
C465 C464 1.370 . S
C465 C469 1.408 . S
C466 C464 1.363 1_554 S
C466 C467 1.370 . S
C466 C470 1.524 . S
C467 C459 1.503 . S
C467 C466 1.370 . S
C467 C468 1.403 . S
C468 C467 1.403 . S
C468 C469 1.404 1_554 S
C468 C471 1.539 . S
C469 C465 1.408 . S
C469 C468 1.404 1_556 S
C469 H481 0.930 . S
C470 C466 1.524 . S
C470 H482 0.956 . S
C470 H483 0.961 . S
C470 H484 0.961 . S
C471 C468 1.539 . S
C471 H485 0.958 . S
C471 H486 0.961 . S
C471 H487 0.960 . S
H472 C456 0.931 . S
H473 C461 0.929 . S
H474 C462 0.960 . S
H475 C462 0.962 . S
H476 C462 0.960 . S
H477 C463 0.961 . S
H478 C463 0.961 . S
H479 C463 0.961 . S
H480 C464 0.931 . S
H481 C469 0.930 . S
H482 C470 0.956 . S
H483 C470 0.961 . S
H484 C470 0.961 . S
H485 C471 0.958 . S
H486 C471 0.961 . S
H487 C471 0.960 . S
C488 C489 1.415 . S
C488 C490 1.394 . S
C488 H504 0.931 . S
C489 C488 1.415 . S
C489 C493 1.354 1_455 S
C490 C488 1.394 . S
C490 C491 1.369 . S
C490 C494 1.531 . S
C491 C490 1.369 . S
C491 C492 1.410 1_455 S
C491 C499 1.506 . S
C492 C491 1.410 1_655 S
C492 C493 1.392 . S
C492 C495 1.511 . S
C493 C489 1.354 1_655 S
C493 C492 1.392 . S
C493 H505 0.929 . S
C494 C490 1.531 . S
C494 H506 0.960 . S
C494 H507 0.962 . S
C494 H508 0.960 . S
C495 C492 1.511 . S
C495 H509 0.961 . S
C495 H510 0.961 . S
C495 H511 0.961 . S
C496 C497 1.370 . S
C496 C498 1.363 1_556 S
C496 H512 0.931 . S
C497 C496 1.370 . S
C497 C501 1.408 1_656 S
C498 C496 1.363 1_554 S
C498 C499 1.352 1_655 S
C498 C502 1.524 . S
C499 C491 1.506 . S
C499 C498 1.352 1_455 S
C499 C500 1.421 . S
C500 C499 1.421 . S
C500 C501 1.404 . S
C500 C503 1.539 . S
C501 C497 1.408 1_454 S
C501 C500 1.404 . S
C501 H513 0.930 . S
C502 C498 1.524 . S
C502 H514 0.956 . S
C502 H515 0.961 . S
C502 H516 0.961 1_554 S
C503 C500 1.539 . S
C503 H517 0.958 . S
C503 H518 0.961 . S
C503 H519 0.960 . S
H504 C488 0.931 . S
H505 C493 0.929 . S
H506 C494 0.960 . S
H507 C494 0.962 . S
H508 C494 0.960 . S
H509 C495 0.961 . S
H510 C495 0.961 . S
H511 C495 0.961 . S
H512 C496 0.931 . S
H513 C501 0.930 . S
H514 C502 0.956 . S
H515 C502 0.961 . S
H516 C502 0.961 1_556 S
H517 C503 0.958 . S
H518 C503 0.961 . S
H519 C503 0.960 . S
C520 C521 1.391 1_655 S
C520 C522 1.394 . S
C520 H536 0.931 . S
C521 C520 1.391 1_455 S
C521 C525 1.376 . S
C522 C520 1.394 . S
C522 C523 1.369 . S
C522 C526 1.531 . S
C523 C522 1.369 . S
C523 C524 1.410 1_655 S
C523 C531 1.503 . S
C524 C523 1.410 1_455 S
C524 C525 1.392 . S
C524 C527 1.511 . S
C525 C521 1.376 . S
C525 C524 1.392 . S
C525 H537 0.929 . S
C526 C522 1.531 . S
C526 H538 0.960 . S
C526 H539 0.962 . S
C526 H540 0.960 . S
C527 C524 1.511 . S
C527 H541 0.961 . S
C527 H542 0.961 . S
C527 H543 0.961 . S
C528 C529 1.370 . S
C528 C530 1.363 . S
C528 H544 0.931 . S
C529 C528 1.370 . S
C529 C533 1.408 . S
C530 C528 1.363 . S
C530 C531 1.370 . S
C530 C534 1.524 . S
C531 C523 1.503 . S
C531 C530 1.370 . S
C531 C532 1.403 . S
C532 C531 1.403 . S
C532 C533 1.404 . S
C532 C535 1.539 1_655 S
C533 C529 1.408 . S
C533 C532 1.404 . S
C533 H545 0.930 . S
C534 C530 1.524 . S
C534 H546 0.956 . S
C534 H547 0.961 . S
C534 H548 0.961 . S
C535 C532 1.539 1_455 S
C535 H549 0.958 . S
C535 H550 0.961 . S
C535 H551 0.960 . S
H536 C520 0.931 . S
H537 C525 0.929 . S
H538 C526 0.960 . S
H539 C526 0.962 . S
H540 C526 0.960 . S
H541 C527 0.961 . S
H542 C527 0.961 . S
H543 C527 0.961 . S
H544 C528 0.931 . S
H545 C533 0.930 . S
H546 C534 0.956 . S
H547 C534 0.961 . S
H548 C534 0.961 . S
H549 C535 0.958 . S
H550 C535 0.961 . S
H551 C535 0.960 . S
C552 C553 1.391 . S
C552 C554 1.394 . S
C552 H568 0.931 . S
C553 C552 1.391 . S
C553 C557 1.376 1_545 S
C554 C552 1.394 . S
C554 C555 1.369 1_545 S
C554 C558 1.531 . S
C555 C554 1.369 1_565 S
C555 C556 1.410 . S
C555 C563 1.503 . S
C556 C555 1.410 . S
C556 C557 1.392 . S
C556 C559 1.511 . S
C557 C553 1.376 1_565 S
C557 C556 1.392 . S
C557 H569 0.929 . S
C558 C554 1.531 . S
C558 H570 0.960 . S
C558 H571 0.962 . S
C558 H572 0.960 . S
C559 C556 1.511 . S
C559 H573 0.961 . S
C559 H574 0.961 . S
C559 H575 0.961 . S
C560 C561 1.370 . S
C560 C562 1.363 . S
C560 H576 0.931 . S
C561 C560 1.370 . S
C561 C565 1.408 . S
C562 C560 1.363 . S
C562 C563 1.370 . S
C562 C566 1.524 . S
C563 C555 1.503 . S
C563 C562 1.370 . S
C563 C564 1.403 . S
C564 C563 1.403 . S
C564 C565 1.404 . S
C564 C567 1.539 1_565 S
C565 C561 1.408 . S
C565 C564 1.404 . S
C565 H577 0.930 . S
C566 C562 1.524 . S
C566 H578 0.956 . S
C566 H579 0.961 . S
C566 H580 0.961 . S
C567 C564 1.539 1_545 S
C567 H581 0.958 . S
C567 H582 0.961 . S
C567 H583 0.960 . S
H568 C552 0.931 . S
H569 C557 0.929 . S
H570 C558 0.960 . S
H571 C558 0.962 . S
H572 C558 0.960 . S
H573 C559 0.961 . S
H574 C559 0.961 . S
H575 C559 0.961 . S
H576 C560 0.931 . S
H577 C565 0.930 . S
H578 C566 0.956 . S
H579 C566 0.961 . S
H580 C566 0.961 . S
H581 C567 0.958 . S
H582 C567 0.961 . S
H583 C567 0.960 . S
C584 C585 1.391 . S
C584 C586 1.394 . S
C584 H600 0.931 . S
C585 C584 1.391 . S
C585 C589 1.376 . S
C586 C584 1.394 . S
C586 C587 1.369 . S
C586 C590 1.531 . S
C587 C586 1.369 . S
C587 C588 1.410 . S
C587 C595 1.503 . S
C588 C587 1.410 . S
C588 C589 1.392 . S
C588 C591 1.511 . S
C589 C585 1.376 . S
C589 C588 1.392 . S
C589 H601 0.929 . S
C590 C586 1.531 . S
C590 H602 0.960 . S
C590 H603 0.962 . S
C590 H604 0.960 . S
C591 C588 1.511 . S
C591 H605 0.961 . S
C591 H606 0.961 . S
C591 H607 0.961 . S
C592 C593 1.370 . S
C592 C594 1.363 . S
C592 H608 0.931 . S
C593 C592 1.370 . S
C593 C597 1.408 . S
C594 C592 1.363 . S
C594 C595 1.370 . S
C594 C598 1.524 . S
C595 C587 1.503 . S
C595 C594 1.370 . S
C595 C596 1.403 . S
C596 C595 1.403 . S
C596 C597 1.404 . S
C596 C599 1.539 . S
C597 C593 1.408 . S
C597 C596 1.404 . S
C597 H609 0.930 . S
C598 C594 1.524 . S
C598 H610 0.956 . S
C598 H611 0.961 . S
C598 H612 0.961 . S
C599 C596 1.539 . S
C599 H613 0.958 . S
C599 H614 0.961 . S
C599 H615 0.960 . S
H600 C584 0.931 . S
H601 C589 0.929 . S
H602 C590 0.960 . S
H603 C590 0.962 . S
H604 C590 0.960 . S
H605 C591 0.961 . S
H606 C591 0.961 . S
H607 C591 0.961 . S
H608 C592 0.931 . S
H609 C597 0.930 . S
H610 C598 0.956 . S
H611 C598 0.961 . S
H612 C598 0.961 . S
H613 C599 0.958 . S
H614 C599 0.961 . S
H615 C599 0.960 . S
C616 C617 1.391 . S
C616 C618 1.394 . S
C616 H632 0.931 . S
C617 C616 1.391 . S
C617 C621 1.376 . S
C618 C616 1.394 . S
C618 C619 1.369 . S
C618 C622 1.531 . S
C619 C618 1.369 . S
C619 C620 1.410 . S
C619 C627 1.503 . S
C620 C619 1.410 . S
C620 C621 1.392 . S
C620 C623 1.511 . S
C621 C617 1.376 . S
C621 C620 1.392 . S
C621 H633 0.929 . S
C622 C618 1.531 . S
C622 H634 0.960 . S
C622 H635 0.962 . S
C622 H636 0.960 . S
C623 C620 1.511 . S
C623 H637 0.961 . S
C623 H638 0.961 . S
C623 H639 0.961 . S
C624 C625 1.370 . S
C624 C626 1.363 . S
C624 H640 0.931 . S
C625 C624 1.370 . S
C625 C629 1.408 . S
C626 C624 1.363 . S
C626 C627 1.370 . S
C626 C630 1.524 . S
C627 C619 1.503 . S
C627 C626 1.370 . S
C627 C628 1.403 . S
C628 C627 1.403 . S
C628 C629 1.404 . S
C628 C631 1.539 . S
C629 C625 1.408 . S
C629 C628 1.404 . S
C629 H641 0.930 . S
C630 C626 1.524 . S
C630 H642 0.956 . S
C630 H643 0.961 . S
C630 H644 0.961 . S
C631 C628 1.539 . S
C631 H645 0.958 . S
C631 H646 0.961 . S
C631 H647 0.960 . S
H632 C616 0.931 . S
H633 C621 0.929 . S
H634 C622 0.960 . S
H635 C622 0.962 . S
H636 C622 0.960 . S
H637 C623 0.961 . S
H638 C623 0.961 . S
H639 C623 0.961 . S
H640 C624 0.931 . S
H641 C629 0.930 . S
H642 C630 0.956 . S
H643 C630 0.961 . S
H644 C630 0.961 . S
H645 C631 0.958 . S
H646 C631 0.961 . S
H647 C631 0.960 . S
C648 C649 1.391 . S
C648 C650 1.394 . S
C648 H664 0.931 1_455 S
C649 C648 1.391 . S
C649 C653 1.378 . S
C650 C648 1.394 . S
C650 C651 1.369 . S
C650 C654 1.531 . S
C651 C650 1.369 . S
C651 C652 1.410 . S
C651 C659 1.503 . S
C652 C651 1.410 . S
C652 C653 1.392 . S
C652 C655 1.511 . S
C653 C649 1.378 . S
C653 C652 1.392 . S
C653 H665 0.929 . S
C654 C650 1.531 . S
C654 H666 0.960 . S
C654 H667 0.962 1_455 S
C654 H668 0.960 . S
C655 C652 1.511 . S
C655 H669 0.961 . S
C655 H670 0.961 . S
C655 H671 0.961 . S
C656 C657 1.370 . S
C656 C658 1.363 . S
C656 H672 0.931 . S
C657 C656 1.370 . S
C657 C661 1.408 . S
C658 C656 1.363 . S
C658 C659 1.370 . S
C658 C662 1.524 1_455 S
C659 C651 1.503 . S
C659 C658 1.370 . S
C659 C660 1.403 . S
C660 C659 1.403 . S
C660 C661 1.404 . S
C660 C663 1.539 . S
C661 C657 1.408 . S
C661 C660 1.404 . S
C661 H673 0.930 . S
C662 C658 1.524 1_655 S
C662 H674 0.956 . S
C662 H675 0.961 . S
C662 H676 0.961 . S
C663 C660 1.539 . S
C663 H677 0.958 . S
C663 H678 0.961 . S
C663 H679 0.960 . S
H664 C648 0.931 1_655 S
H665 C653 0.929 . S
H666 C654 0.960 . S
H667 C654 0.962 1_655 S
H668 C654 0.960 . S
H669 C655 0.961 . S
H670 C655 0.961 . S
H671 C655 0.961 . S
H672 C656 0.931 . S
H673 C661 0.930 . S
H674 C662 0.956 . S
H675 C662 0.961 . S
H676 C662 0.961 . S
H677 C663 0.958 . S
H678 C663 0.961 . S
H679 C663 0.960 . S
C680 C681 1.391 1_545 S
C680 C682 1.394 . S
C680 H696 0.931 . S
C681 C680 1.391 1_565 S
C681 C685 1.376 . S
C682 C680 1.394 . S
C682 C683 1.369 . S
C682 C686 1.531 . S
C683 C682 1.369 . S
C683 C684 1.410 1_545 S
C683 C691 1.503 . S
C684 C683 1.410 1_565 S
C684 C685 1.392 . S
C684 C687 1.511 . S
C685 C681 1.376 . S
C685 C684 1.392 . S
C685 H697 0.929 . S
C686 C682 1.531 . S
C686 H698 0.960 . S
C686 H699 0.962 . S
C686 H700 0.960 . S
C687 C684 1.511 . S
C687 H701 0.961 . S
C687 H702 0.961 . S
C687 H703 0.961 . S
C688 C689 1.370 . S
C688 C690 1.363 . S
C688 H704 0.931 . S
C689 C688 1.370 . S
C689 C693 1.408 . S
C690 C688 1.363 . S
C690 C691 1.370 . S
C690 C694 1.524 . S
C691 C683 1.503 . S
C691 C690 1.370 . S
C691 C692 1.403 . S
C692 C691 1.403 . S
C692 C693 1.404 . S
C692 C695 1.539 . S
C693 C689 1.408 . S
C693 C692 1.404 . S
C693 H705 0.930 1_554 S
C694 C690 1.524 . S
C694 H706 0.956 . S
C694 H707 0.961 . S
C694 H708 0.961 . S
C695 C692 1.539 . S
C695 H709 0.958 . S
C695 H710 0.961 1_554 S
C695 H711 0.982 . S
H696 C680 0.931 . S
H697 C685 0.929 . S
H698 C686 0.960 . S
H699 C686 0.962 . S
H700 C686 0.960 . S
H701 C687 0.961 . S
H702 C687 0.961 . S
H703 C687 0.961 . S
H704 C688 0.931 . S
H705 C693 0.930 1_556 S
H706 C694 0.956 . S
H707 C694 0.961 . S
H708 C694 0.961 . S
H709 C695 0.958 . S
H710 C695 0.961 1_556 S
H711 C695 0.982 . S
C712 C713 1.391 . S
C712 C714 1.394 . S
C712 H728 0.931 . S
C713 C712 1.391 . S
C713 C717 1.376 . S
C714 C712 1.394 . S
C714 C715 1.369 . S
C714 C718 1.531 . S
C715 C714 1.369 . S
C715 C716 1.410 . S
C715 C723 1.503 . S
C716 C715 1.410 . S
C716 C717 1.392 . S
C716 C719 1.511 . S
C717 C713 1.376 . S
C717 C716 1.392 . S
C717 H729 0.929 . S
C718 C714 1.531 . S
C718 H730 0.960 . S
C718 H731 0.962 . S
C718 H732 0.960 . S
C719 C716 1.511 . S
C719 H733 0.961 . S
C719 H734 0.961 . S
C719 H735 0.961 . S
C720 C721 1.370 . S
C720 C722 1.363 . S
C720 H736 0.931 . S
C721 C720 1.370 . S
C721 C725 1.408 . S
C722 C720 1.363 . S
C722 C723 1.370 . S
C722 C726 1.524 . S
C723 C715 1.503 . S
C723 C722 1.370 . S
C723 C724 1.403 . S
C724 C723 1.403 . S
C724 C725 1.404 . S
C724 C727 1.539 . S
C725 C721 1.408 . S
C725 C724 1.404 . S
C725 H737 0.930 . S
C726 C722 1.524 . S
C726 H738 0.956 . S
C726 H739 0.961 . S
C726 H740 0.961 . S
C727 C724 1.539 . S
C727 H741 0.958 . S
C727 H742 0.961 . S
C727 H743 0.960 . S
H728 C712 0.931 . S
H729 C717 0.929 . S
H730 C718 0.960 . S
H731 C718 0.962 . S
H732 C718 0.960 . S
H733 C719 0.961 . S
H734 C719 0.961 . S
H735 C719 0.961 . S
H736 C720 0.931 . S
H737 C725 0.930 . S
H738 C726 0.956 . S
H739 C726 0.961 . S
H740 C726 0.961 . S
H741 C727 0.958 . S
H742 C727 0.961 . S
H743 C727 0.960 . S
C744 C745 1.391 . S
C744 C746 1.394 . S
C744 H760 0.931 . S
C745 C744 1.391 . S
C745 C749 1.376 . S
C746 C744 1.394 . S
C746 C747 1.369 . S
C746 C750 1.531 . S
C747 C746 1.369 . S
C747 C748 1.410 . S
C747 C755 1.503 . S
C748 C747 1.410 . S
C748 C749 1.392 . S
C748 C751 1.511 . S
C749 C745 1.376 . S
C749 C748 1.392 . S
C749 H761 0.929 . S
C750 C746 1.531 . S
C750 H762 0.960 . S
C750 H763 0.962 . S
C750 H764 0.960 . S
C751 C748 1.511 . S
C751 H765 0.961 . S
C751 H766 0.961 . S
C751 H767 0.961 . S
C752 C753 1.370 . S
C752 C754 1.363 . S
C752 H768 0.931 . S
C753 C752 1.370 . S
C753 C757 1.408 . S
C754 C752 1.363 . S
C754 C755 1.370 . S
C754 C758 1.524 . S
C755 C747 1.503 . S
C755 C754 1.370 . S
C755 C756 1.403 . S
C756 C755 1.403 . S
C756 C757 1.404 . S
C756 C759 1.539 . S
C757 C753 1.408 . S
C757 C756 1.404 . S
C757 H769 0.930 . S
C758 C754 1.524 . S
C758 H770 0.956 . S
C758 H771 0.961 . S
C758 H772 0.961 . S
C759 C756 1.539 . S
C759 H773 0.958 . S
C759 H774 0.961 . S
C759 H775 0.960 . S
H760 C744 0.931 . S
H761 C749 0.929 . S
H762 C750 0.960 . S
H763 C750 0.962 . S
H764 C750 0.960 . S
H765 C751 0.961 . S
H766 C751 0.961 . S
H767 C751 0.961 . S
H768 C752 0.931 . S
H769 C757 0.930 . S
H770 C758 0.956 . S
H771 C758 0.961 . S
H772 C758 0.961 . S
H773 C759 0.958 . S
H774 C759 0.961 . S
H775 C759 0.960 . S
C776 C777 1.390 . S
C776 C778 1.394 . S
C776 H792 0.931 1_556 S
C777 C776 1.390 . S
C777 C781 1.377 1_455 S
C778 C776 1.394 . S
C778 C779 1.371 . S
C778 C782 1.531 1_556 S
C779 C778 1.371 . S
C779 C780 1.407 1_455 S
C779 C787 1.504 . S
C780 C779 1.407 1_655 S
C780 C781 1.392 . S
C780 C783 1.511 . S
C781 C777 1.377 1_655 S
C781 C780 1.392 . S
C781 H793 0.929 . S
C782 C778 1.531 1_554 S
C782 H794 0.960 . S
C782 H795 0.962 . S
C782 H796 0.960 . S
C783 C780 1.511 . S
C783 H797 0.961 . S
C783 H798 0.961 . S
C783 H799 0.961 . S
C784 C785 1.370 . S
C784 C786 1.363 . S
C784 H800 0.931 . S
C785 C784 1.370 . S
C785 C789 1.408 1_455 S
C786 C784 1.363 . S
C786 C787 1.370 . S
C786 C790 1.524 . S
C787 C779 1.504 . S
C787 C786 1.370 . S
C787 C788 1.403 1_455 S
C788 C787 1.403 1_655 S
C788 C789 1.404 . S
C788 C791 1.539 . S
C789 C785 1.408 1_655 S
C789 C788 1.404 . S
C789 H801 0.930 . S
C790 C786 1.524 . S
C790 H802 0.956 . S
C790 H803 0.961 . S
C790 H804 0.961 . S
C791 C788 1.539 . S
C791 H805 0.958 . S
C791 H806 0.961 . S
C791 H807 0.960 . S
H792 C776 0.931 1_554 S
H793 C781 0.929 . S
H794 C782 0.960 . S
H795 C782 0.962 . S
H796 C782 0.960 . S
H797 C783 0.961 . S
H798 C783 0.961 . S
H799 C783 0.961 . S
H800 C784 0.931 . S
H801 C789 0.930 . S
H802 C790 0.956 . S
H803 C790 0.961 . S
H804 C790 0.961 . S
H805 C791 0.958 . S
H806 C791 0.961 . S
H807 C791 0.960 . S
C808 C809 1.391 . S
C808 C810 1.394 . S
C808 H824 0.931 . S
C809 C808 1.391 . S
C809 C813 1.376 1_545 S
C810 C808 1.394 . S
C810 C811 1.369 . S
C810 C814 1.531 . S
C811 C810 1.369 . S
C811 C812 1.410 1_545 S
C811 C819 1.503 . S
C812 C811 1.410 1_565 S
C812 C813 1.392 . S
C812 C815 1.511 1_556 S
C813 C809 1.376 1_565 S
C813 C812 1.392 . S
C813 H825 0.929 . S
C814 C810 1.531 . S
C814 H826 0.960 . S
C814 H827 0.962 . S
C814 H828 0.960 . S
C815 C812 1.511 1_554 S
C815 H829 0.961 . S
C815 H830 0.961 1_554 S
C815 H831 0.961 . S
C816 C817 1.370 1_565 S
C816 C818 1.363 . S
C816 H832 0.931 . S
C817 C816 1.370 1_545 S
C817 C821 1.408 . S
C818 C816 1.363 . S
C818 C819 1.370 1_565 S
C818 C822 1.524 . S
C819 C811 1.503 . S
C819 C818 1.370 1_545 S
C819 C820 1.403 . S
C820 C819 1.403 . S
C820 C821 1.404 . S
C820 C823 1.539 . S
C821 C817 1.408 . S
C821 C820 1.404 . S
C821 H833 0.930 . S
C822 C818 1.524 . S
C822 H834 0.956 . S
C822 H835 0.961 . S
C822 H836 0.961 . S
C823 C820 1.539 . S
C823 H837 0.958 . S
C823 H838 0.961 1_556 S
C823 H839 0.960 1_556 S
H824 C808 0.931 . S
H825 C813 0.929 . S
H826 C814 0.960 . S
H827 C814 0.962 . S
H828 C814 0.960 . S
H829 C815 0.961 . S
H830 C815 0.961 1_556 S
H831 C815 0.961 . S
H832 C816 0.931 . S
H833 C821 0.930 . S
H834 C822 0.956 . S
H835 C822 0.961 . S
H836 C822 0.961 . S
H837 C823 0.958 . S
H838 C823 0.961 1_554 S
H839 C823 0.960 1_554 S
C840 C841 1.391 . S
C840 C842 1.394 . S
C840 H856 0.931 . S
C841 C840 1.391 . S
C841 C845 1.376 . S
C842 C840 1.394 . S
C842 C843 1.369 . S
C842 C846 1.531 . S
C843 C842 1.369 . S
C843 C844 1.410 . S
C843 C851 1.503 . S
C844 C843 1.410 . S
C844 C845 1.392 . S
C844 C847 1.511 . S
C845 C841 1.376 . S
C845 C844 1.392 . S
C845 H857 0.929 . S
C846 C842 1.531 . S
C846 H858 0.960 . S
C846 H859 0.962 . S
C846 H860 0.960 . S
C847 C844 1.511 . S
C847 H861 0.961 . S
C847 H862 0.961 . S
C847 H863 0.961 . S
C848 C849 1.370 . S
C848 C850 1.363 . S
C848 H864 0.931 . S
C849 C848 1.370 . S
C849 C853 1.408 . S
C850 C848 1.363 . S
C850 C851 1.370 . S
C850 C854 1.524 . S
C851 C843 1.503 . S
C851 C850 1.370 . S
C851 C852 1.403 . S
C852 C851 1.403 . S
C852 C853 1.404 . S
C852 C855 1.539 . S
C853 C849 1.408 . S
C853 C852 1.404 . S
C853 H865 0.930 . S
C854 C850 1.524 . S
C854 H866 0.956 . S
C854 H867 0.961 1_556 S
C854 H868 0.961 1_556 S
C855 C852 1.539 . S
C855 H869 0.958 . S
C855 H870 0.961 . S
C855 H871 0.960 . S
H856 C840 0.931 . S
H857 C845 0.929 . S
H858 C846 0.960 . S
H859 C846 0.962 . S
H860 C846 0.960 . S
H861 C847 0.961 . S
H862 C847 0.961 . S
H863 C847 0.961 . S
H864 C848 0.931 . S
H865 C853 0.930 . S
H866 C854 0.956 . S
H867 C854 0.961 1_554 S
H868 C854 0.961 1_554 S
H869 C855 0.958 . S
H870 C855 0.961 . S
H871 C855 0.960 . S
C872 C873 1.391 . S
C872 C874 1.394 . S
C872 H888 0.931 . S
C873 C872 1.391 . S
C873 C877 1.376 . S
C874 C872 1.394 . S
C874 C875 1.369 . S
C874 C878 1.531 . S
C875 C874 1.369 . S
C875 C876 1.410 . S
C875 C883 1.503 . S
C876 C875 1.410 . S
C876 C877 1.392 . S
C876 C879 1.511 1_556 S
C877 C873 1.376 . S
C877 C876 1.392 . S
C877 H889 0.929 . S
C878 C874 1.531 . S
C878 H890 0.960 . S
C878 H891 0.962 . S
C878 H892 0.960 . S
C879 C876 1.511 1_554 S
C879 H893 0.961 . S
C879 H894 0.961 1_554 S
C879 H895 0.961 . S
C880 C881 1.370 . S
C880 C882 1.363 . S
C880 H896 0.931 . S
C881 C880 1.370 . S
C881 C885 1.408 . S
C882 C880 1.363 . S
C882 C883 1.370 . S
C882 C886 1.524 . S
C883 C875 1.503 . S
C883 C882 1.370 . S
C883 C884 1.403 . S
C884 C883 1.403 . S
C884 C885 1.404 . S
C884 C887 1.539 . S
C885 C881 1.408 . S
C885 C884 1.404 . S
C885 H897 0.930 . S
C886 C882 1.524 . S
C886 H898 0.956 . S
C886 H899 0.961 . S
C886 H900 0.961 . S
C887 C884 1.539 . S
C887 H901 0.958 . S
C887 H902 0.961 1_556 S
C887 H903 0.960 1_556 S
H888 C872 0.931 . S
H889 C877 0.929 . S
H890 C878 0.960 . S
H891 C878 0.962 . S
H892 C878 0.960 . S
H893 C879 0.961 . S
H894 C879 0.961 1_556 S
H895 C879 0.961 . S
H896 C880 0.931 . S
H897 C885 0.930 . S
H898 C886 0.956 . S
H899 C886 0.961 . S
H900 C886 0.961 . S
H901 C887 0.958 . S
H902 C887 0.961 1_554 S
H903 C887 0.960 1_554 S
C904 C905 1.391 . S
C904 C906 1.394 . S
C904 H920 0.931 . S
C905 C904 1.391 . S
C905 C909 1.376 1_455 S
C906 C904 1.394 . S
C906 C907 1.370 . S
C906 C910 1.531 . S
C907 C906 1.370 . S
C907 C908 1.409 1_455 S
C907 C915 1.502 1_455 S
C908 C907 1.409 1_655 S
C908 C909 1.392 . S
C908 C911 1.511 . S
C909 C905 1.376 1_655 S
C909 C908 1.392 . S
C909 H921 0.929 . S
C910 C906 1.531 . S
C910 H922 0.960 . S
C910 H923 0.962 1_455 S
C910 H924 0.960 . S
C911 C908 1.511 . S
C911 H925 0.961 . S
C911 H926 0.961 . S
C911 H927 0.961 1_655 S
C912 C913 1.370 . S
C912 C914 1.363 . S
C912 H928 0.931 . S
C913 C912 1.370 . S
C913 C917 1.408 1_655 S
C914 C912 1.363 . S
C914 C915 1.370 . S
C914 C918 1.524 . S
C915 C907 1.502 1_655 S
C915 C914 1.370 . S
C915 C916 1.403 1_655 S
C916 C915 1.403 1_455 S
C916 C917 1.404 . S
C916 C919 1.539 . S
C917 C913 1.408 1_455 S
C917 C916 1.404 . S
C917 H929 0.930 . S
C918 C914 1.524 . S
C918 H930 0.956 . S
C918 H931 0.961 . S
C918 H932 0.961 . S
C919 C916 1.539 . S
C919 H933 0.958 . S
C919 H934 0.961 . S
C919 H935 0.960 . S
H920 C904 0.931 . S
H921 C909 0.929 . S
H922 C910 0.960 . S
H923 C910 0.962 1_655 S
H924 C910 0.960 . S
H925 C911 0.961 . S
H926 C911 0.961 . S
H927 C911 0.961 1_455 S
H928 C912 0.931 . S
H929 C917 0.930 . S
H930 C918 0.956 . S
H931 C918 0.961 . S
H932 C918 0.961 . S
H933 C919 0.958 . S
H934 C919 0.961 . S
H935 C919 0.960 . S
C936 C937 1.390 1_565 S
C936 C938 1.394 . S
C936 H952 0.931 . S
C937 C936 1.390 1_545 S
C937 C941 1.377 . S
C938 C936 1.394 . S
C938 C939 1.368 1_565 S
C938 C942 1.531 . S
C939 C938 1.368 1_545 S
C939 C940 1.410 . S
C939 C947 1.502 1_545 S
C940 C939 1.410 . S
C940 C941 1.392 . S
C940 C943 1.511 . S
C941 C937 1.377 . S
C941 C940 1.392 . S
C941 H953 0.929 . S
C942 C938 1.531 . S
C942 H954 0.960 1_565 S
C942 H955 0.962 . S
C942 H956 0.960 1_565 S
C943 C940 1.511 . S
C943 H957 0.961 . S
C943 H958 0.961 1_545 S
C943 H959 0.961 . S
C944 C945 1.370 . S
C944 C946 1.363 . S
C944 H960 0.931 . S
C945 C944 1.370 . S
C945 C949 1.408 1_565 S
C946 C944 1.363 . S
C946 C947 1.370 . S
C946 C950 1.524 . S
C947 C939 1.502 1_565 S
C947 C946 1.370 . S
C947 C948 1.403 1_565 S
C948 C947 1.403 1_545 S
C948 C949 1.404 . S
C948 C951 1.539 . S
C949 C945 1.408 1_545 S
C949 C948 1.404 . S
C949 H961 0.930 . S
C950 C946 1.524 . S
C950 H962 0.956 . S
C950 H963 0.961 . S
C950 H964 0.961 . S
C951 C948 1.539 . S
C951 H965 0.958 . S
C951 H966 0.961 . S
C951 H967 0.960 . S
H952 C936 0.931 . S
H953 C941 0.929 . S
H954 C942 0.960 1_545 S
H955 C942 0.962 . S
H956 C942 0.960 1_545 S
H957 C943 0.961 . S
H958 C943 0.961 1_565 S
H959 C943 0.961 . S
H960 C944 0.931 . S
H961 C949 0.930 . S
H962 C950 0.956 . S
H963 C950 0.961 . S
H964 C950 0.961 . S
H965 C951 0.958 . S
H966 C951 0.961 . S
H967 C951 0.960 . S
C968 C969 1.391 . S
C968 C970 1.394 . S
C968 H984 0.931 . S
C969 C968 1.391 . S
C969 C973 1.376 . S
C970 C968 1.394 . S
C970 C971 1.369 . S
C970 C974 1.531 . S
C971 C970 1.369 . S
C971 C972 1.410 . S
C971 C979 1.503 . S
C972 C971 1.410 . S
C972 C973 1.392 . S
C972 C975 1.511 . S
C973 C969 1.376 . S
C973 C972 1.392 . S
C973 H985 0.929 . S
C974 C970 1.531 . S
C974 H986 0.960 . S
C974 H987 0.962 . S
C974 H988 0.960 . S
C975 C972 1.511 . S
C975 H989 0.961 . S
C975 H990 0.961 . S
C975 H991 0.961 . S
C976 C977 1.370 . S
C976 C978 1.363 . S
C976 H992 0.931 . S
C977 C976 1.370 . S
C977 C981 1.408 . S
C978 C976 1.363 . S
C978 C979 1.370 . S
C978 C982 1.524 . S
C979 C971 1.503 . S
C979 C978 1.370 . S
C979 C980 1.403 . S
C980 C979 1.403 . S
C980 C981 1.404 . S
C980 C983 1.539 . S
C981 C977 1.408 . S
C981 C980 1.404 . S
C981 H993 0.930 . S
C982 C978 1.524 . S
C982 H994 0.956 . S
C982 H995 0.961 . S
C982 H996 0.961 . S
C983 C980 1.539 . S
C983 H997 0.958 . S
C983 H998 0.961 . S
C983 H999 0.960 . S
H984 C968 0.931 . S
H985 C973 0.929 . S
H986 C974 0.960 . S
H987 C974 0.962 . S
H988 C974 0.960 . S
H989 C975 0.961 . S
H990 C975 0.961 . S
H991 C975 0.961 . S
H992 C976 0.931 . S
H993 C981 0.930 . S
H994 C982 0.956 . S
H995 C982 0.961 . S
H996 C982 0.961 . S
H997 C983 0.958 . S
H998 C983 0.961 . S
H999 C983 0.960 . S
C1000 C1001 1.391 . S
C1000 C1002 1.394 . S
C1000 H1016 0.931 . S
C1001 C1000 1.391 . S
C1001 C1005 1.376 . S
C1002 C1000 1.394 . S
C1002 C1003 1.369 . S
C1002 C1006 1.531 . S
C1003 C1002 1.369 . S
C1003 C1004 1.410 . S
C1003 C1011 1.503 . S
C1004 C1003 1.410 . S
C1004 C1005 1.392 . S
C1004 C1007 1.511 . S
C1005 C1001 1.376 . S
C1005 C1004 1.392 . S
C1005 H1017 0.929 . S
C1006 C1002 1.531 . S
C1006 H1018 0.960 . S
C1006 H1019 0.962 . S
C1006 H1020 0.960 . S
C1007 C1004 1.511 . S
C1007 H1021 0.961 . S
C1007 H1022 0.961 . S
C1007 H1023 0.961 . S
C1008 C1009 1.370 . S
C1008 C1010 1.363 . S
C1008 H1024 0.931 . S
C1009 C1008 1.370 . S
C1009 C1013 1.408 . S
C1010 C1008 1.363 . S
C1010 C1011 1.370 . S
C1010 C1014 1.524 . S
C1011 C1003 1.503 . S
C1011 C1010 1.370 . S
C1011 C1012 1.403 . S
C1012 C1011 1.403 . S
C1012 C1013 1.404 . S
C1012 C1015 1.539 . S
C1013 C1009 1.408 . S
C1013 C1012 1.404 . S
C1013 H1025 0.930 . S
C1014 C1010 1.524 . S
C1014 H1026 0.956 . S
C1014 H1027 0.961 . S
C1014 H1028 0.961 . S
C1015 C1012 1.539 . S
C1015 H1029 0.958 . S
C1015 H1030 0.961 . S
C1015 H1031 0.960 . S
H1016 C1000 0.931 . S
H1017 C1005 0.929 . S
H1018 C1006 0.960 . S
H1019 C1006 0.962 . S
H1020 C1006 0.960 . S
H1021 C1007 0.961 . S
H1022 C1007 0.961 . S
H1023 C1007 0.961 . S
H1024 C1008 0.931 . S
H1025 C1013 0.930 . S
H1026 C1014 0.956 . S
H1027 C1014 0.961 . S
H1028 C1014 0.961 . S
H1029 C1015 0.958 . S
H1030 C1015 0.961 . S
H1031 C1015 0.960 . S
C265 C82 1.712 1_565 S
C273 C113 1.949 1_545 S
C305 C153 1.961 . S
C297 C95 1.719 . S
C337 C193 1.970 . S
C329 C56 1.726 . S
C369 C233 1.957 1_455 S
C361 C69 1.630 . S
C401 C122 1.958 1_565 S
C393 C30 1.683 1_565 S
C425 C43 1.640 . S
C433 C162 1.961 . S
C457 C4 1.698 . S
C465 C202 1.964 . S
C489 C17 1.720 . S
C497 C242 1.960 1_655 S
C529 C119 0.477 . S
C521 C74 0.520 . S
C561 C159 0.487 . S
C553 C87 0.603 . S
C593 C199 0.488 . S
C585 C100 0.514 . S
C617 C61 0.458 . S
C625 C239 0.536 . S
C649 C22 0.459 . S
C657 C110 0.539 . S
C689 C150 0.498 . S
C681 C35 0.603 1_565 S
C721 C190 0.547 . S
C713 C48 0.460 . S
C745 C9 0.562 . S
C753 C230 0.482 . S
C777 C73 2.033 . S
C785 C123 2.259 . S
C809 C86 1.998 . S
C817 C163 2.254 . S
C849 C203 2.247 . S
C841 C99 2.045 . S
C881 C243 2.265 . S
C873 C60 2.001 . S
C905 C21 2.041 . S
C913 C114 2.270 . S
C945 C154 2.244 . S
C937 C34 2.032 . S
C977 C194 2.239 . S
C969 C47 2.055 . S
C1001 C8 2.030 . S
C1009 C234 2.274 . S
