# Generated by pormake.
# Topology apo, (3,6)-cn, num edge types: 1
# Building blocks:
#     Node 0, Type 0, BuildingBlock: QEWDON_clean_linker_0, # of connection points: 3
#     Node 1, Type 0, BuildingBlock: QEWDON_clean_linker_0, # of connection points: 3
#     Node 2, Type 0, BuildingBlock: QEWDON_clean_linker_0, # of connection points: 3
#     Node 3, Type 0, BuildingBlock: QEWDON_clean_linker_0, # of connection points: 3
#     Node 4, Type 0, BuildingBlock: QEWDON_clean_linker_0, # of connection points: 3
#     Node 5, Type 0, BuildingBlock: QEWDON_clean_linker_0, # of connection points: 3
#     Node 6, Type 0, BuildingBlock: QEWDON_clean_linker_0, # of connection points: 3
#     Node 7, Type 0, BuildingBlock: QEWDON_clean_linker_0, # of connection points: 3
#     Node 8, Type 1, BuildingBlock: KUMJIN_clean_sbu_1, # of connection points: 6
#     Node 9, Type 1, BuildingBlock: KUMJIN_clean_sbu_1, # of connection points: 6
#     Node 10, Type 1, BuildingBlock: KUMJIN_clean_sbu_1, # of connection points: 6
#     Node 11, Type 1, BuildingBlock: KUMJIN_clean_sbu_1, # of connection points: 6
#     Edge 12, Type (0, 1), BuildingBlock: XIVTED_clean_linker_0, # of connection points: 2
#     Edge 13, Type (0, 1), BuildingBlock: XIVTED_clean_linker_0, # of connection points: 2
#     Edge 14, Type (0, 1), BuildingBlock: XIVTED_clean_linker_0, # of connection points: 2
#     Edge 15, Type (0, 1), BuildingBlock: XIVTED_clean_linker_0, # of connection points: 2
#     Edge 16, Type (0, 1), BuildingBlock: XIVTED_clean_linker_0, # of connection points: 2
#     Edge 17, Type (0, 1), BuildingBlock: XIVTED_clean_linker_0, # of connection points: 2
#     Edge 18, Type (0, 1), BuildingBlock: XIVTED_clean_linker_0, # of connection points: 2
#     Edge 19, Type (0, 1), BuildingBlock: XIVTED_clean_linker_0, # of connection points: 2
#     Edge 20, Type (0, 1), BuildingBlock: XIVTED_clean_linker_0, # of connection points: 2
#     Edge 21, Type (0, 1), BuildingBlock: XIVTED_clean_linker_0, # of connection points: 2
#     Edge 22, Type (0, 1), BuildingBlock: XIVTED_clean_linker_0, # of connection points: 2
#     Edge 23, Type (0, 1), BuildingBlock: XIVTED_clean_linker_0, # of connection points: 2
#     Edge 24, Type (0, 1), BuildingBlock: XIVTED_clean_linker_0, # of connection points: 2
#     Edge 25, Type (0, 1), BuildingBlock: XIVTED_clean_linker_0, # of connection points: 2
#     Edge 26, Type (0, 1), BuildingBlock: XIVTED_clean_linker_0, # of connection points: 2
#     Edge 27, Type (0, 1), BuildingBlock: XIVTED_clean_linker_0, # of connection points: 2
#     Edge 28, Type (0, 1), BuildingBlock: XIVTED_clean_linker_0, # of connection points: 2
#     Edge 29, Type (0, 1), BuildingBlock: XIVTED_clean_linker_0, # of connection points: 2
#     Edge 30, Type (0, 1), BuildingBlock: XIVTED_clean_linker_0, # of connection points: 2
#     Edge 31, Type (0, 1), BuildingBlock: XIVTED_clean_linker_0, # of connection points: 2
#     Edge 32, Type (0, 1), BuildingBlock: XIVTED_clean_linker_0, # of connection points: 2
#     Edge 33, Type (0, 1), BuildingBlock: XIVTED_clean_linker_0, # of connection points: 2
#     Edge 34, Type (0, 1), BuildingBlock: XIVTED_clean_linker_0, # of connection points: 2
#     Edge 35, Type (0, 1), BuildingBlock: XIVTED_clean_linker_0, # of connection points: 2
# Relax obj value: 0.074
# Max RMSD: 0.259
# Mean RMSD: 0.207
data_MOF--net-apo--node1-KUMJIN_clean_sbu_1--node2-QEWDON_clean_linker_0--edge1-XIVTED_clean_linker_0
_symmetry_space_group_name_H-M    P1
_symmetry_Int_Tables_number       1
_symmetry_cell_setting            triclinic
loop_
_symmetry_equiv_pos_as_xyz
'x, y, z'
_cell_length_a     29.987301
_cell_length_b     43.424934
_cell_length_c     52.455075
_cell_angle_alpha  89.958104
_cell_angle_beta   89.983232
_cell_angle_gamma 90.437773
loop_
_atom_site_label
_atom_site_type_symbol
_atom_site_fract_x
_atom_site_fract_y
_atom_site_fract_z
_atom_type_partial_charge
H0 H 0.2799 0.38032 0.3729 0.0
C1 C 0.29188 0.38145 0.39234 0.0
C2 C 0.3283 0.40079 0.39876 0.0
C3 C 0.26895 0.3648 0.41134 0.0
H4 H 0.36683 0.41908 0.4302 0.0
C5 C 0.34147 0.40261 0.42454 0.0
C6 C 0.32028 0.38501 0.44354 0.0
C7 C 0.28452 0.3658 0.43658 0.0
C8 C 0.22459 0.35068 0.4062 0.0
H9 H 0.26734 0.35237 0.45102 0.0
C10 C 0.21718 0.3294 0.38625 0.0
C11 C 0.17398 0.31718 0.38212 0.0
C12 C 0.18856 0.35943 0.42171 0.0
H13 H 0.19317 0.37602 0.43693 0.0
C14 C 0.14612 0.34729 0.41768 0.0
H15 H 0.24459 0.32248 0.37412 0.0
C16 C 0.13881 0.32634 0.39808 0.0
H17 H 0.10551 0.31698 0.39553 0.0
H18 H 0.11874 0.35418 0.42981 0.0
H19 H 0.22625 0.13144 0.87179 0.0
C20 C 0.21323 0.13053 0.89106 0.0
C21 C 0.17479 0.11288 0.89638 0.0
C22 C 0.23673 0.14522 0.91082 0.0
H23 H 0.13016 0.09695 0.92578 0.0
C24 C 0.15942 0.11087 0.92166 0.0
C25 C 0.18312 0.12473 0.94184 0.0
C26 C 0.22149 0.14225 0.9361 0.0
C27 C 0.28191 0.15794 0.906 0.0
H28 H 0.24134 0.15198 0.95141 0.0
C29 C 0.2893 0.18494 0.89148 0.0
C30 C 0.33321 0.19633 0.88786 0.0
C31 C 0.31843 0.14218 0.91625 0.0
H32 H 0.31341 0.12133 0.92729 0.0
C33 C 0.36168 0.15277 0.91209 0.0
H34 H 0.26113 0.19735 0.88377 0.0
C35 C 0.36909 0.1795 0.89801 0.0
H36 H 0.40325 0.18691 0.89496 0.0
H37 H 0.38963 0.14022 0.91983 0.0
H38 H 0.77241 0.13115 0.64613 0.0
C39 C 0.78686 0.13151 0.62722 0.0
C40 C 0.82357 0.11265 0.62123 0.0
C41 C 0.76698 0.14996 0.60847 0.0
H42 H 0.86784 0.09875 0.59054 0.0
C43 C 0.84068 0.11358 0.59613 0.0
C44 C 0.82257 0.13335 0.57775 0.0
C45 C 0.78564 0.15134 0.58401 0.0
C46 C 0.72289 0.16388 0.61304 0.0
H47 H 0.77024 0.16555 0.5695 0.0
C48 C 0.71647 0.18691 0.63155 0.0
C49 C 0.67349 0.19877 0.63578 0.0
C50 C 0.68632 0.15313 0.59878 0.0
H51 H 0.69062 0.13537 0.58451 0.0
C52 C 0.64382 0.16473 0.60309 0.0
H53 H 0.74456 0.19551 0.64251 0.0
C54 C 0.63733 0.18732 0.62153 0.0
H55 H 0.60408 0.19629 0.6244 0.0
H56 H 0.61581 0.1562 0.59209 0.0
H57 H 0.73311 0.38051 0.1486 0.0
C58 C 0.71732 0.3792 0.13004 0.0
C59 C 0.68014 0.39766 0.12462 0.0
C60 C 0.73685 0.36144 0.11064 0.0
H61 H 0.63219 0.41047 0.09603 0.0
C62 C 0.66132 0.39668 0.10012 0.0
C63 C 0.68118 0.3799 0.0804 0.0
C64 C 0.71853 0.36186 0.08595 0.0
C65 C 0.78065 0.34674 0.11457 0.0
H66 H 0.7352 0.3496 0.07073 0.0
C67 C 0.78634 0.32225 0.13188 0.0
C68 C 0.82778 0.30727 0.13338 0.0
C69 C 0.81696 0.35673 0.09968 0.0
H70 H 0.81329 0.37565 0.08638 0.0
C71 C 0.85817 0.34237 0.10166 0.0
H72 H 0.75843 0.31414 0.14324 0.0
C73 C 0.86351 0.31762 0.11824 0.0
H74 H 0.89563 0.30642 0.11923 0.0
H75 H 0.8859 0.35019 0.09008 0.0
H76 H 0.69337 0.64774 0.64886 0.0
C77 C 0.69028 0.64151 0.62894 0.0
C78 C 0.67785 0.61126 0.62205 0.0
C79 C 0.6962 0.66428 0.61015 0.0
H80 H 0.66229 0.58108 0.59057 0.0
C81 C 0.67263 0.60409 0.59605 0.0
C82 C 0.67842 0.62657 0.57703 0.0
C83 C 0.69069 0.65654 0.5843 0.0
C84 C 0.7004 0.69717 0.6173 0.0
H85 H 0.69361 0.67443 0.56996 0.0
C86 C 0.73777 0.70895 0.63059 0.0
C87 C 0.74141 0.7409 0.63532 0.0
C88 C 0.66635 0.71726 0.60979 0.0
H89 H 0.63726 0.70862 0.59975 0.0
C90 C 0.66936 0.74858 0.61511 0.0
H91 H 0.76443 0.69367 0.63622 0.0
C92 C 0.70663 0.76038 0.62764 0.0
H93 H 0.70831 0.7849 0.63136 0.0
H94 H 0.64286 0.76384 0.60927 0.0
H95 H 0.80655 0.86391 0.14902 0.0
C96 C 0.81038 0.87126 0.12939 0.0
C97 C 0.82481 0.90156 0.12398 0.0
C98 C 0.80305 0.85002 0.10949 0.0
H99 H 0.8444 0.93314 0.09417 0.0
C100 C 0.83183 0.91025 0.09846 0.0
C101 C 0.82503 0.8894 0.07842 0.0
C102 C 0.80936 0.85969 0.08407 0.0
C103 C 0.79478 0.81675 0.11487 0.0
H104 H 0.80449 0.84339 0.06867 0.0
C105 C 0.76405 0.80655 0.1336 0.0
C106 C 0.75826 0.77472 0.13824 0.0
C107 C 0.8192 0.79472 0.1011 0.0
H108 H 0.84384 0.80169 0.08709 0.0
C109 C 0.81288 0.76341 0.10541 0.0
H110 H 0.74517 0.8231 0.14455 0.0
C111 C 0.78268 0.75344 0.12379 0.0
H112 H 0.7784 0.7289 0.12679 0.0
H113 H 0.83175 0.74677 0.09458 0.0
H114 H 0.19463 0.86075 0.37012 0.0
C115 C 0.19101 0.86622 0.39016 0.0
C116 C 0.17841 0.89604 0.39783 0.0
C117 C 0.19698 0.84285 0.40826 0.0
H118 H 0.16253 0.92468 0.43039 0.0
C119 C 0.17367 0.90226 0.42411 0.0
C120 C 0.18049 0.87911 0.44239 0.0
C121 C 0.1922 0.84954 0.43422 0.0
C122 C 0.20284 0.8105 0.40036 0.0
H123 H 0.19715 0.83137 0.44811 0.0
C124 C 0.24084 0.80087 0.38683 0.0
C125 C 0.24701 0.76934 0.38177 0.0
C126 C 0.17055 0.78867 0.40779 0.0
H127 H 0.14104 0.79571 0.41814 0.0
C128 C 0.1761 0.75763 0.40214 0.0
H129 H 0.26623 0.8175 0.38137 0.0
C130 C 0.21421 0.74794 0.38939 0.0
H131 H 0.21824 0.72361 0.38552 0.0
H132 H 0.15107 0.74096 0.40797 0.0
H133 H 0.33049 0.65834 0.86819 0.0
C134 C 0.32866 0.65226 0.8882 0.0
C135 C 0.34139 0.62261 0.89632 0.0
C136 C 0.31734 0.67493 0.90621 0.0
H137 H 0.35111 0.59319 0.92904 0.0
C138 C 0.34107 0.6158 0.92259 0.0
C139 C 0.33027 0.63822 0.94074 0.0
C140 C 0.31751 0.66746 0.9323 0.0
C141 C 0.31209 0.7077 0.8988 0.0
H142 H 0.30897 0.68498 0.94615 0.0
C143 C 0.28036 0.7174 0.88064 0.0
C144 C 0.27487 0.74917 0.87549 0.0
C145 C 0.3388 0.72982 0.91117 0.0
H146 H 0.36375 0.72294 0.92495 0.0
C147 C 0.33346 0.76099 0.90623 0.0
H148 H 0.25988 0.70042 0.87095 0.0
C149 C 0.30157 0.77065 0.88881 0.0
H150 H 0.2974 0.79518 0.88616 0.0
H151 H 0.35378 0.77781 0.9162 0.0
Eu152 Eu 0.05647 0.10204 0.23164 0.0
C153 C 0.8695 0.06942 0.26824 0.0
N154 N 0.89016 0.09733 0.27016 0.0
C155 C 0.8253 0.12203 0.25321 0.0
C156 C 0.82655 0.06666 0.25748 0.0
C157 C 0.86762 0.12361 0.26433 0.0
C158 C 0.80501 0.09338 0.2493 0.0
C159 C 0.86877 0.01472 0.27806 0.0
C160 C 0.89021 0.0437 0.27843 0.0
C161 C 0.82688 0.01168 0.26634 0.0
C162 C 0.80587 0.03757 0.25602 0.0
Eu163 Eu 0.96319 0.09681 0.28747 0.0
N164 N 0.93126 0.04712 0.28904 0.0
C165 C 0.88991 0.98975 0.28976 0.0
C166 C 0.95107 0.02336 0.30164 0.0
C167 C 0.93096 0.99419 0.3019 0.0
H168 H 0.88173 0.14591 0.26863 0.0
H169 H 0.94714 0.97518 0.3114 0.0
H170 H 0.14499 0.07109 0.25991 0.0
H171 H 0.03646 0.21739 0.19073 0.0
H172 H 0.98276 0.0269 0.31104 0.0
H173 H 0.87449 0.9671 0.28989 0.0
H174 H 0.01828 0.1626 0.19687 0.0
H175 H 0.80807 0.14294 0.24806 0.0
H176 H 0.8101 0.98951 0.26556 0.0
H177 H 0.77309 0.03499 0.24757 0.0
H178 H 0.21874 0.08759 0.27627 0.0
H179 H 0.77201 0.09225 0.24093 0.0
H180 H 0.10493 0.23946 0.2099 0.0
N181 N 0.12727 0.11589 0.24741 0.0
C182 C 0.14051 0.14555 0.24379 0.0
C183 C 0.19693 0.10416 0.26736 0.0
C184 C 0.1822 0.15601 0.25285 0.0
C185 C 0.15512 0.09492 0.25824 0.0
C186 C 0.21037 0.13491 0.26488 0.0
N187 N 0.07261 0.15432 0.22197 0.0
C188 C 0.04675 0.1722 0.2066 0.0
C189 C 0.1247 0.19646 0.2273 0.0
C190 C 0.11198 0.16547 0.23119 0.0
C191 C 0.0964 0.21552 0.21328 0.0
C192 C 0.05763 0.20318 0.20252 0.0
H193 H 0.24269 0.14204 0.27208 0.0
H194 H 0.22605 0.19561 0.25671 0.0
H195 H 0.17574 0.23104 0.23435 0.0
O196 O 0.08238 0.1066 0.19244 0.0
O197 O 0.06989 0.12136 0.27128 0.0
O198 O 1.00277 0.14124 0.2833 0.0
O199 O 0.08693 0.06269 0.21274 0.0
O200 O 0.98783 0.12196 0.22294 0.0
O201 O 0.96034 0.13905 0.2617 0.0
O202 O 0.98021 0.0961 0.32804 0.0
O203 O 0.97433 0.05761 0.25937 0.0
O204 O 0.98834 0.08262 0.22207 0.0
O205 O 0.91409 0.10896 0.31639 0.0
O206 O 0.03126 0.07754 0.29652 0.0
O207 O 0.06084 0.06023 0.25813 0.0
C208 C 0.04647 0.14297 0.2823 0.0
C209 C 0.11768 0.06387 0.16975 0.0
C210 C 0.1374 0.06298 0.12442 0.0
C211 C 0.15911 0.03478 0.12837 0.0
C212 C 0.13946 0.03562 0.173 0.0
C213 C 0.1602 0.02133 0.15247 0.0
C214 C 0.11718 0.07778 0.14536 0.0
C215 C 0.96222 0.14028 0.2366 0.0
C216 C 0.0953 0.07808 0.19191 0.0
C217 C 0.19435 0.18705 0.24965 0.0
C218 C 0.16562 0.20724 0.23698 0.0
C219 C 0.96909 0.06017 0.23469 0.0
C220 C 0.94211 0.13188 0.35362 0.0
C221 C 0.92912 0.15097 0.39685 0.0
C222 C 0.93855 0.18102 0.38803 0.0
C223 C 0.95199 0.16187 0.34543 0.0
C224 C 0.93122 0.12642 0.37928 0.0
C225 C 0.95025 0.18629 0.36261 0.0
C226 C 0.0571 0.05909 0.28325 0.0
C227 C 0.9416 0.10629 0.33538 0.0
H228 H 0.17549 0.02312 0.11275 0.0
H229 H 0.14061 0.02453 0.19149 0.0
H230 H 0.17704 0.99962 0.15521 0.0
H231 H 0.10015 0.09943 0.14254 0.0
H232 H 0.93616 0.20069 0.40059 0.0
H233 H 0.96044 0.16642 0.32569 0.0
H234 H 0.92451 0.10301 0.38543 0.0
H235 H 0.95743 0.20949 0.35615 0.0
Eu236 Eu 0.45127 0.412 0.73141 0.0
C237 C 0.6397 0.43805 0.76569 0.0
N238 N 0.61741 0.41071 0.76743 0.0
C239 C 0.67952 0.38481 0.74842 0.0
C240 C 0.6821 0.43996 0.75412 0.0
C241 C 0.6379 0.38404 0.76044 0.0
C242 C 0.70137 0.41297 0.7448 0.0
C243 C 0.64466 0.4922 0.77701 0.0
C244 C 0.62135 0.46391 0.77695 0.0
C245 C 0.68595 0.4945 0.76452 0.0
C246 C 0.70458 0.46845 0.75304 0.0
Eu247 Eu 0.54579 0.4123 0.78677 0.0
N248 N 0.58096 0.46111 0.78853 0.0
C249 C 0.62608 0.51717 0.79004 0.0
C250 C 0.56377 0.48481 0.8024 0.0
C251 C 0.58575 0.51332 0.80309 0.0
H252 H 0.62279 0.36198 0.76453 0.0
H253 H 0.57163 0.53227 0.81368 0.0
H254 H 0.36924 0.45529 0.75488 0.0
H255 H 0.44733 0.29263 0.69717 0.0
H256 H 0.53286 0.48167 0.81264 0.0
H257 H 0.64301 0.53929 0.79058 0.0
H258 H 0.48011 0.34391 0.70349 0.0
H259 H 0.69506 0.36362 0.74238 0.0
H260 H 0.70417 0.51613 0.76408 0.0
H261 H 0.73698 0.47039 0.74401 0.0
H262 H 0.29007 0.44959 0.76681 0.0
H263 H 0.73387 0.41346 0.73578 0.0
H264 H 0.36961 0.2821 0.71044 0.0
N265 N 0.37619 0.40852 0.7438 0.0
C266 C 0.35546 0.38112 0.73948 0.0
C267 C 0.30816 0.43007 0.75939 0.0
C268 C 0.31011 0.37688 0.74584 0.0
C269 C 0.35318 0.43313 0.75292 0.0
C270 C 0.28658 0.40176 0.75602 0.0
N271 N 0.42347 0.3619 0.72275 0.0
C272 C 0.44711 0.33949 0.71066 0.0
C273 C 0.35925 0.32816 0.72493 0.0
C274 C 0.37989 0.35704 0.72907 0.0
C275 C 0.38424 0.30461 0.71388 0.0
C276 C 0.42819 0.31041 0.70648 0.0
H277 H 0.25169 0.39943 0.7611 0.0
H278 H 0.25502 0.34434 0.74685 0.0
H279 H 0.298 0.30169 0.72863 0.0
O280 O 0.42904 0.40839 0.6917 0.0
O281 O 0.43289 0.38935 0.76944 0.0
O282 O 0.50066 0.3706 0.78205 0.0
O283 O 0.43004 0.45326 0.71091 0.0
O284 O 0.51662 0.38768 0.72222 0.0
O285 O 0.54352 0.3701 0.76098 0.0
O286 O 0.53588 0.41584 0.8281 0.0
O287 O 0.53762 0.45271 0.75953 0.0
O288 O 0.52185 0.42735 0.72291 0.0
O289 O 0.59167 0.39057 0.8134 0.0
O290 O 0.47819 0.43201 0.79657 0.0
O291 O 0.4511 0.45276 0.75899 0.0
C292 C 0.45691 0.37024 0.78313 0.0
C293 C 0.40519 0.45266 0.66657 0.0
C294 C 0.38638 0.45043 0.62133 0.0
C295 C 0.37903 0.48228 0.62145 0.0
C296 C 0.39728 0.48452 0.66631 0.0
C297 C 0.38418 0.49916 0.64387 0.0
C298 C 0.39917 0.43556 0.64396 0.0
C299 C 0.54139 0.36887 0.73591 0.0
C300 C 0.42189 0.43788 0.69003 0.0
C301 C 0.28976 0.34806 0.74196 0.0
C302 C 0.31428 0.32376 0.73162 0.0
C303 C 0.54052 0.4505 0.73473 0.0
C304 C 0.60241 0.41655 0.85218 0.0
C305 C 0.62854 0.4232 0.89585 0.0
C306 C 0.65937 0.44547 0.88727 0.0
C307 C 0.63416 0.43831 0.844 0.0
C308 C 0.59996 0.40878 0.87814 0.0
C309 C 0.66218 0.45286 0.86147 0.0
C310 C 0.45538 0.453 0.78408 0.0
C311 C 0.57257 0.4015 0.83366 0.0
H312 H 0.36914 0.49406 0.60415 0.0
H313 H 0.40169 0.49823 0.68338 0.0
H314 H 0.37835 0.52372 0.64382 0.0
H315 H 0.40532 0.411 0.64375 0.0
H316 H 0.68203 0.45668 0.90047 0.0
H317 H 0.63782 0.44379 0.82409 0.0
H318 H 0.57584 0.39173 0.88455 0.0
H319 H 0.68648 0.46968 0.85496 0.0
Eu320 Eu 0.04786 0.91237 0.73165 0.0
C321 C 0.85605 0.88181 0.76799 0.0
N322 N 0.87833 0.90911 0.76991 0.0
C323 C 0.81376 0.93586 0.75478 0.0
C324 C 0.81223 0.88043 0.75823 0.0
C325 C 0.8568 0.93608 0.76501 0.0
C326 C 0.79167 0.90786 0.7509 0.0
C327 C 0.85252 0.82712 0.77761 0.0
C328 C 0.87587 0.85541 0.77748 0.0
C329 C 0.80973 0.8254 0.76682 0.0
C330 C 0.7897 0.85198 0.75707 0.0
Eu331 Eu 0.95212 0.90644 0.78611 0.0
N332 N 0.91769 0.85756 0.78726 0.0
C333 C 0.87265 0.80153 0.78896 0.0
C334 C 0.93665 0.8332 0.79952 0.0
C335 C 0.91466 0.8047 0.80027 0.0
H336 H 0.87215 0.95791 0.76953 0.0
H337 H 0.9301 0.78522 0.80952 0.0
H338 H 0.13092 0.8705 0.75596 0.0
H339 H 0.04468 0.03468 0.70588 0.0
H340 H 0.96906 0.8358 0.80832 0.0
H341 H 0.85575 0.7794 0.78949 0.0
H342 H 0.01707 0.9813 0.7069 0.0
H343 H 0.79731 0.95733 0.7504 0.0
H344 H 0.79148 0.80378 0.76641 0.0
H345 H 0.75621 0.85045 0.7494 0.0
H346 H 0.20669 0.87856 0.7731 0.0
H347 H 0.75806 0.90778 0.74332 0.0
H348 H 0.11845 0.04746 0.72427 0.0
N349 N 0.12039 0.91791 0.74828 0.0
C350 C 0.13877 0.94659 0.74708 0.0
C351 C 0.18777 0.89795 0.76613 0.0
C352 C 0.18225 0.9522 0.7563 0.0
C353 C 0.1445 0.89352 0.75687 0.0
C354 C 0.20663 0.92746 0.76604 0.0
N355 N 0.07189 0.9643 0.72806 0.0
C356 C 0.04797 0.9867 0.7162 0.0
C357 C 0.13156 1.00061 0.7361 0.0
C358 C 0.11363 0.97049 0.73703 0.0
C359 C 0.1059 0.02402 0.72532 0.0
C360 C 0.06415 0.01694 0.71505 0.0
H361 H 0.24016 0.93082 0.77326 0.0
H362 H 0.23313 0.98701 0.76278 0.0
H363 H 0.18875 0.02939 0.74516 0.0
O364 O 0.06396 0.92165 0.69191 0.0
O365 O 0.05912 0.93279 0.77133 0.0
O366 O 0.99079 0.95125 0.78298 0.0
O367 O 0.08299 0.87814 0.70858 0.0
O368 O 0.98101 0.93357 0.72217 0.0
O369 O 0.94876 0.949 0.76022 0.0
O370 O 0.96991 0.90265 0.82638 0.0
O371 O 0.96055 0.86746 0.75757 0.0
O372 O 0.97998 0.8928 0.72111 0.0
O373 O 0.90477 0.919 0.81595 0.0
O374 O 0.02058 0.88623 0.79415 0.0
O375 O 0.04694 0.8685 0.75533 0.0
C376 C 0.03447 0.95342 0.7829 0.0
C377 C 0.12631 0.89774 0.67393 0.0
C378 C 0.16343 0.90052 0.6325 0.0
C379 C 0.20434 0.90535 0.64505 0.0
C380 C 0.16739 0.90258 0.68607 0.0
C381 C 0.2062 0.9063 0.67165 0.0
C382 C 0.1245 0.89668 0.64719 0.0
C383 C 0.95354 0.95108 0.73522 0.0
C384 C 0.0844 0.89572 0.68839 0.0
C385 C 0.19989 0.98222 0.75564 0.0
C386 C 0.17458 1.00637 0.74564 0.0
C387 C 0.95878 0.87038 0.73276 0.0
C388 C 0.93358 0.93519 0.85555 0.0
C389 C 0.92089 0.94665 0.90052 0.0
C390 C 0.93687 0.9768 0.89626 0.0
C391 C 0.94928 0.96527 0.85165 0.0
C392 C 0.91935 0.92596 0.8799 0.0
C393 C 0.95094 0.98598 0.87198 0.0
C394 C 0.0449 0.86721 0.78043 0.0
C395 C 0.93191 0.91296 0.83456 0.0
H396 H 0.23499 0.908 0.63433 0.0
H397 H 0.16956 0.90372 0.70657 0.0
H398 H 0.23784 0.91002 0.68113 0.0
H399 H 0.09254 0.89355 0.63784 0.0
H400 H 0.93802 0.99343 0.91163 0.0
H401 H 0.96009 0.97264 0.83293 0.0
H402 H 0.90776 0.90251 0.88281 0.0
H403 H 0.96307 0.00923 0.86891 0.0
Eu404 Eu 0.45901 0.6039 0.23487 0.0
C405 C 0.64871 0.63269 0.27916 0.0
N406 N 0.62865 0.60493 0.27541 0.0
C407 C 0.69544 0.58499 0.25687 0.0
C408 C 0.69291 0.63798 0.271 0.0
C409 C 0.65144 0.58091 0.26511 0.0
C410 C 0.71618 0.61373 0.25964 0.0
C411 C 0.64463 0.68504 0.29493 0.0
C412 C 0.62472 0.65589 0.29099 0.0
C413 C 0.68824 0.69069 0.28619 0.0
C414 C 0.71236 0.6672 0.27434 0.0
Eu415 Eu 0.55502 0.59959 0.29012 0.0
N416 N 0.5826 0.6497 0.29938 0.0
C417 C 0.62052 0.70746 0.30806 0.0
C418 C 0.56042 0.67076 0.31382 0.0
C419 C 0.57852 0.70012 0.31788 0.0
H420 H 0.63572 0.55857 0.26332 0.0
H421 H 0.56037 0.71688 0.32897 0.0
H422 H 0.38578 0.65536 0.2587 0.0
H423 H 0.42463 0.48727 0.20202 0.0
H424 H 0.52934 0.66495 0.32293 0.0
H425 H 0.63461 0.73014 0.31144 0.0
H426 H 0.46827 0.53558 0.20686 0.0
H427 H 0.71334 0.56599 0.24846 0.0
H428 H 0.7039 0.71302 0.28891 0.0
H429 H 0.74614 0.67181 0.26798 0.0
H430 H 0.31264 0.65543 0.27995 0.0
H431 H 0.75021 0.61686 0.25315 0.0
H432 H 0.35074 0.4821 0.22272 0.0
N433 N 0.38745 0.60683 0.25409 0.0
C434 C 0.36265 0.58044 0.25405 0.0
C435 C 0.32668 0.63401 0.27326 0.0
C436 C 0.31939 0.57962 0.26463 0.0
C437 C 0.3689 0.63379 0.26195 0.0
C438 C 0.30212 0.60667 0.27505 0.0
N439 N 0.42027 0.55666 0.2308 0.0
C440 C 0.43631 0.53321 0.2162 0.0
C441 C 0.35291 0.52784 0.23916 0.0
C442 C 0.37908 0.55479 0.24153 0.0
C443 C 0.36985 0.50319 0.22501 0.0
C444 C 0.41159 0.506 0.21332 0.0
H445 H 0.26905 0.60701 0.28338 0.0
H446 H 0.26087 0.55123 0.27164 0.0
H447 H 0.29024 0.5059 0.2493 0.0
O448 O 0.46637 0.60018 0.19327 0.0
O449 O 0.46175 0.56252 0.26183 0.0
O450 O 0.48353 0.58678 0.29796 0.0
O451 O 0.41579 0.62932 0.20909 0.0
O452 O 0.52354 0.57974 0.22499 0.0
O453 O 0.55075 0.55877 0.26274 0.0
O454 O 0.5797 0.60128 0.32952 0.0
O455 O 0.57227 0.61828 0.25089 0.0
O456 O 0.509 0.64344 0.23835 0.0
O457 O 0.57574 0.55726 0.30924 0.0
O458 O 0.49118 0.62531 0.29938 0.0
O459 O 0.46486 0.64547 0.26138 0.0
C460 C 0.46484 0.56321 0.28675 0.0
C461 C 0.39803 0.60391 0.1708 0.0
C462 C 0.36914 0.59632 0.12765 0.0
C463 C 0.33284 0.57974 0.13791 0.0
C464 C 0.36082 0.58794 0.18046 0.0
C465 C 0.32882 0.57561 0.16412 0.0
C466 C 0.40199 0.60825 0.1443 0.0
C467 C 0.54576 0.55849 0.23768 0.0
C468 C 0.43155 0.61694 0.18845 0.0
C469 C 0.29401 0.55232 0.26344 0.0
C470 C 0.31066 0.52653 0.25064 0.0
C471 C 0.55266 0.64113 0.23907 0.0
C472 C 0.60365 0.55563 0.35293 0.0
C473 C 0.62229 0.55465 0.39832 0.0
C474 C 0.63277 0.52329 0.39611 0.0
C475 C 0.61455 0.52429 0.35125 0.0
C476 C 0.60822 0.57091 0.37655 0.0
C477 C 0.62921 0.50833 0.3727 0.0
C478 C 0.46881 0.64619 0.28641 0.0
C479 C 0.58602 0.57167 0.33026 0.0
H480 H 0.30668 0.57073 0.12572 0.0
H481 H 0.35585 0.58556 0.20066 0.0
H482 H 0.30031 0.56334 0.17186 0.0
H483 H 0.43029 0.62096 0.13673 0.0
H484 H 0.64386 0.51036 0.41258 0.0
H485 H 0.61149 0.51201 0.33336 0.0
H486 H 0.59956 0.59502 0.37822 0.0
H487 H 0.63745 0.48417 0.37122 0.0
H488 H 0.13714 0.88825 0.35128 0.0
H489 H 0.0909 0.06564 0.33085 0.0
H490 H 0.19253 0.95875 0.40028 0.0
H491 H 0.08024 1.00042 0.26915 0.0
H492 H 0.12579 0.02623 0.35714 0.0
H493 H 0.11422 0.92813 0.32135 0.0
C494 C 0.14522 0.912 0.35564 0.0
C495 C 0.16691 0.91998 0.37852 0.0
C496 C 0.11633 0.02056 0.33778 0.0
C497 C 0.13944 0.96587 0.34445 0.0
C498 C 0.0963 0.04301 0.32278 0.0
C499 C 0.08263 0.03618 0.29784 0.0
C500 C 0.12203 0.9908 0.32797 0.0
C501 C 0.09059 1.00659 0.28826 0.0
C502 C 0.1318 0.93478 0.33854 0.0
C503 C 0.17524 0.95136 0.38321 0.0
N504 N 0.10926 0.98478 0.30349 0.0
N505 N 0.16114 0.97311 0.36648 0.0
H506 H 0.41205 0.58403 0.90309 0.0
H507 H 0.40934 0.50404 0.76698 0.0
H508 H 0.31202 0.60843 0.84756 0.0
H509 H 0.45664 0.46025 0.83573 0.0
H510 H 0.3805 0.54656 0.79306 0.0
H511 H 0.43744 0.54332 0.87512 0.0
C512 C 0.39502 0.5807 0.88509 0.0
C513 C 0.35888 0.59928 0.87806 0.0
C514 C 0.39702 0.52747 0.80229 0.0
C515 C 0.38908 0.55287 0.84539 0.0
C516 C 0.41342 0.50318 0.78748 0.0
C517 C 0.43552 0.47841 0.79912 0.0
C518 C 0.40357 0.52719 0.82879 0.0
C519 C 0.44005 0.47875 0.82577 0.0
C520 C 0.40982 0.55747 0.86904 0.0
C521 C 0.33978 0.59457 0.85386 0.0
N522 N 0.42462 0.50279 0.83959 0.0
N523 N 0.35505 0.57172 0.83836 0.0
H524 H 0.69474 0.54911 0.62151 0.0
H525 H 0.55397 0.51096 0.7474 0.0
H526 H 0.63223 0.61938 0.66713 0.0
H527 H 0.58109 0.44448 0.68848 0.0
H528 H 0.59335 0.55035 0.72232 0.0
H529 H 0.66439 0.50994 0.65018 0.0
C530 C 0.6749 0.55639 0.63764 0.0
C531 C 0.66565 0.5877 0.64164 0.0
C532 C 0.59076 0.52712 0.71493 0.0
C533 C 0.63122 0.54278 0.67482 0.0
C534 C 0.56852 0.50463 0.72927 0.0
C535 C 0.56438 0.47446 0.71998 0.0
C536 C 0.60918 0.5193 0.6912 0.0
C537 C 0.5833 0.46754 0.69625 0.0
C538 C 0.65764 0.53396 0.65402 0.0
C539 C 0.64059 0.59563 0.6633 0.0
N540 N 0.60494 0.48977 0.68269 0.0
N541 N 0.62403 0.57331 0.67898 0.0
H542 H 0.87106 0.89051 0.16839 0.0
H543 H 0.9199 0.06884 0.19182 0.0
H544 H 0.80769 0.96337 0.1261 0.0
H545 H 0.9589 0.9988 0.24546 0.0
H546 H 0.87817 0.03003 0.16774 0.0
H547 H 0.90149 0.92904 0.19788 0.0
C548 C 0.86275 0.9145 0.16559 0.0
C549 C 0.83711 0.9237 0.14454 0.0
C550 C 0.89551 0.0231 0.18489 0.0
C551 C 0.87275 0.96796 0.17784 0.0
C552 C 0.91955 0.04523 0.19852 0.0
C553 C 0.94279 0.03693 0.2206 0.0
C554 C 0.89525 0.9923 0.19316 0.0
C555 C 0.94105 1.00611 0.22861 0.0
C556 C 0.88046 0.93652 0.18232 0.0
C557 C 0.82797 0.95522 0.14175 0.0
N558 N 0.91797 0.9848 0.21478 0.0
N559 N 0.84619 0.97617 0.15796 0.0
H560 H 0.91011 0.09157 0.62524 0.0
H561 H 0.90854 1.00237 0.75301 0.0
H562 H 0.78117 0.08359 0.6619 0.0
H563 H 0.94434 0.95489 0.68367 0.0
H564 H 0.87429 0.04312 0.72693 0.0
H565 H 0.93838 0.05226 0.65409 0.0
C566 C 0.88752 0.08176 0.63918 0.0
C567 C 0.84262 0.0909 0.64053 0.0
C568 C 0.88949 0.02353 0.71768 0.0
C569 C 0.87615 0.04703 0.6746 0.0
C570 C 0.90866 1.00018 0.73246 0.0
C571 C 0.92922 0.97498 0.72058 0.0
C572 C 0.89236 0.022 0.69103 0.0
C573 C 0.92921 0.97387 0.69377 0.0
C574 C 0.90404 0.05956 0.65582 0.0
C575 C 0.81603 0.07788 0.66004 0.0
N576 N 0.91183 0.99727 0.67993 0.0
N577 N 0.83323 0.05665 0.67635 0.0
H578 H 0.66242 0.45755 0.11431 0.0
H579 H 0.58324 0.50426 0.25455 0.0
H580 H 0.66293 0.39225 0.17636 0.0
H581 H 0.55904 0.55732 0.18634 0.0
H582 H 0.619 0.46456 0.22828 0.0
H583 H 0.63199 0.49613 0.14262 0.0
C584 C 0.6558 0.45124 0.13395 0.0
C585 C 0.66424 0.42136 0.14283 0.0
C586 C 0.60582 0.48494 0.21919 0.0
C587 C 0.62974 0.46594 0.17571 0.0
C588 C 0.58552 0.50763 0.23413 0.0
C589 C 0.56802 0.53419 0.22264 0.0
C590 C 0.60892 0.48909 0.19268 0.0
C591 C 0.5718 0.53727 0.19611 0.0
C592 C 0.63854 0.4734 0.15018 0.0
C593 C 0.65652 0.41495 0.16872 0.0
N594 N 0.59183 0.51509 0.18213 0.0
N595 N 0.63936 0.43706 0.1843 0.0
H596 H 0.29228 0.42739 0.35526 0.0
H597 H 0.47064 0.5559 0.33851 0.0
H598 H 0.41567 0.42139 0.39769 0.0
H599 H 0.42236 0.51029 0.27083 0.0
H600 H 0.43969 0.51372 0.36422 0.0
H601 H 0.32825 0.46436 0.32654 0.0
C602 C 0.32691 0.43333 0.35852 0.0
C603 C 0.35052 0.42119 0.37941 0.0
C604 C 0.43566 0.51323 0.3437 0.0
C605 C 0.39087 0.46468 0.34709 0.0
C606 C 0.45313 0.53727 0.329 0.0
C607 C 0.44775 0.53722 0.3024 0.0
C608 C 0.41175 0.4894 0.3318 0.0
C609 C 0.42548 0.51207 0.29122 0.0
C610 C 0.34719 0.45469 0.34216 0.0
C611 C 0.39527 0.43067 0.38256 0.0
N612 N 0.40753 0.48939 0.30598 0.0
N613 N 0.41366 0.45224 0.36692 0.0
H614 H 0.08574 0.10524 0.88582 0.0
H615 H 0.1213 0.95719 0.79917 0.0
H616 H 0.21595 0.07463 0.86241 0.0
H617 H 0.99705 1.00656 0.8009 0.0
H618 H 0.15625 0.99857 0.82377 0.0
H619 H 0.05181 0.06778 0.8566 0.0
C620 C 0.10717 0.09089 0.87429 0.0
C621 C 0.15374 0.09319 0.87646 0.0
C622 C 0.1214 1.00045 0.81864 0.0
C623 C 0.11519 0.04998 0.84325 0.0
C624 C 0.10148 0.97691 0.8044 0.0
C625 C 0.05624 0.97847 0.79769 0.0
C626 C 0.09568 0.02548 0.82679 0.0
C627 C 0.03193 1.00421 0.80579 0.0
C628 C 0.08781 0.06955 0.85761 0.0
C629 C 0.17993 0.07395 0.8611 0.0
N630 N 0.05183 0.02655 0.82008 0.0
N631 N 0.16031 0.05296 0.84536 0.0
H632 H 0.15303 0.06999 0.96164 0.0
H633 H 0.15788 0.12191 0.10797 0.0
H634 H 0.18668 0.16293 0.98416 0.0
H635 H 0.11355 0.03307 0.08097 0.0
H636 H 0.16482 0.13932 0.06338 0.0
H637 H 0.13543 0.05777 1.00557 0.0
C638 C 0.15602 0.0881 0.97572 0.0
C639 C 0.17085 0.11774 0.96889 0.0
C640 C 0.15317 0.11612 0.06728 0.0
C641 C 0.15176 0.10342 0.02003 0.0
C642 C 0.14895 0.10627 0.09269 0.0
C643 C 0.13571 0.07586 0.09814 0.0
C644 C 0.1439 0.0954 0.04732 0.0
C645 C 0.12466 0.05652 0.07765 0.0
C646 C 0.14627 0.08097 1.00101 0.0
C647 C 0.17553 0.13973 0.98845 0.0
N648 N 0.12932 0.06651 0.05327 0.0
N649 N 0.16617 0.13212 0.01314 0.0
H650 H 0.40409 0.39406 0.46382 0.0
H651 H 0.31767 0.41261 0.6075 0.0
H652 H 0.26572 0.38521 0.48583 0.0
H653 H 0.44193 0.45077 0.58044 0.0
H654 H 0.30345 0.39149 0.56475 0.0
H655 H 0.42325 0.40491 0.50822 0.0
C656 C 0.37771 0.39425 0.47792 0.0
C657 C 0.33311 0.38886 0.47086 0.0
C658 C 0.33412 0.40411 0.56826 0.0
C659 C 0.35513 0.40063 0.5219 0.0
C660 C 0.3423 0.41592 0.59262 0.0
C661 C 0.38095 0.43332 0.59725 0.0
C662 C 0.36502 0.40966 0.54859 0.0
C663 C 0.41177 0.43738 0.57744 0.0
C664 C 0.38878 0.40028 0.5033 0.0
C665 C 0.30063 0.38877 0.49023 0.0
N666 N 0.4031 0.42573 0.5539 0.0
N667 N 0.31227 0.39467 0.51479 0.0
H668 H 0.65776 0.43417 0.05807 0.0
H669 H 0.6294 0.36562 0.91747 0.0
H670 H 0.67317 0.33748 0.04135 0.0
H671 H 0.62573 0.4622 0.93636 0.0
H672 H 0.63677 0.35341 0.96304 0.0
H673 H 0.63758 0.44331 0.01399 0.0
C674 C 0.65617 0.41468 0.04522 0.0
C675 C 0.66672 0.38489 0.0536 0.0
C676 C 0.63396 0.37723 0.95719 0.0
C677 C 0.64464 0.39548 1.0025 0.0
C678 C 0.62945 0.38418 0.93126 0.0
C679 C 0.62739 0.41497 0.92322 0.0
C680 C 0.63608 0.40129 0.97506 0.0
C681 C 0.62789 0.43819 0.94176 0.0
C682 C 0.64499 0.42001 0.01989 0.0
C683 C 0.66542 0.36082 0.03571 0.0
N684 N 0.63239 0.43087 0.96675 0.0
N685 N 0.65468 0.36664 0.01095 0.0
H686 H 0.85526 0.18364 0.55297 0.0
H687 H 0.87092 0.10732 0.41678 0.0
H688 H 0.83149 0.08634 0.54338 0.0
H689 H 0.95802 0.18218 0.43955 0.0
H690 H 0.84824 0.10102 0.46128 0.0
H691 H 0.88406 0.18624 0.50924 0.0
C692 C 0.85626 0.16285 0.54159 0.0
C693 C 0.84126 0.13474 0.55166 0.0
C694 C 0.87246 0.1187 0.4564 0.0
C695 C 0.87334 0.13757 0.50171 0.0
C696 C 0.88572 0.12227 0.431 0.0
C697 C 0.9163 0.14559 0.42407 0.0
C698 C 0.88912 0.13895 0.47498 0.0
C699 C 0.93346 0.16448 0.44359 0.0
C700 C 0.87279 0.16429 0.51676 0.0
C701 C 0.84312 0.10838 0.53624 0.0
N702 N 0.91925 0.16098 0.46801 0.0
N703 N 0.85846 0.11047 0.51186 0.0
H704 H 0.89975 0.92099 0.06339 0.0
H705 H 0.84832 0.91083 0.9138 0.0
H706 H 0.78231 0.87608 0.03308 0.0
H707 H 0.96036 0.95985 0.94633 0.0
H708 H 0.8247 0.89586 0.95681 0.0
H709 H 0.92283 0.93407 0.02026 0.0
C710 C 0.87845 0.91417 0.04767 0.0
C711 C 0.83863 0.89776 0.05198 0.0
C712 C 0.85442 0.9099 0.95451 0.0
C713 C 0.86558 0.91216 1.00218 0.0
C714 C 0.86809 0.91832 0.92995 0.0
C715 C 0.90628 0.93683 0.92642 0.0
C716 C 0.87919 0.91997 0.97569 0.0
C717 C 0.9303 0.94606 0.9481 0.0
C718 C 0.89191 0.92144 0.02296 0.0
C719 C 0.81328 0.88872 0.03068 0.0
N720 N 0.91636 0.93756 0.97173 0.0
N721 N 0.82713 0.8961 1.0067 0.0
H722 H 0.72284 0.64564 0.53362 0.0
H723 H 0.58028 0.53669 0.44169 0.0
H724 H 0.60981 0.59116 0.55834 0.0
H725 H 0.67091 0.60573 0.41262 0.0
H726 H 0.59118 0.55692 0.48466 0.0
H727 H 0.70543 0.63198 0.48932 0.0
C728 C 0.69429 0.63095 0.52978 0.0
C729 C 0.6682 0.61917 0.54987 0.0
C730 C 0.60847 0.56792 0.46894 0.0
C731 C 0.64829 0.60334 0.49924 0.0
C732 C 0.60222 0.55635 0.44442 0.0
C733 C 0.62491 0.56949 0.4237 0.0
C734 C 0.63823 0.59259 0.47293 0.0
C735 C 0.65278 0.59504 0.42818 0.0
C736 C 0.68442 0.62314 0.50448 0.0
C737 C 0.6317 0.60014 0.54366 0.0
N738 N 0.65914 0.60556 0.4524 0.0
N739 N 0.62307 0.59271 0.51901 0.0
H740 H 0.30991 0.58526 0.96722 0.0
H741 H 0.39018 0.65013 0.10259 0.0
H742 H 0.3654 0.67647 0.97742 0.0
H743 H 0.35099 0.55572 0.08912 0.0
H744 H 0.38276 0.66044 0.05685 0.0
H745 H 0.32442 0.57443 0.01209 0.0
C746 C 0.32515 0.60303 0.97886 0.0
C747 C 0.33629 0.63186 0.96844 0.0
C748 C 0.3761 0.63742 0.0639 0.0
C749 C 0.35281 0.61965 0.02005 0.0
C750 C 0.38071 0.63146 0.08998 0.0
C751 C 0.37078 0.60208 0.09973 0.0
C752 C 0.36136 0.61383 0.04751 0.0
C753 C 0.35818 0.57885 0.08251 0.0
C754 C 0.3334 0.59684 1.00453 0.0
C755 C 0.35547 0.6541 0.98465 0.0
N756 N 0.35352 0.58528 0.05733 0.0
N757 N 0.36309 0.64754 1.00962 0.0
H758 H 0.20939 0.92864 0.47061 0.0
H759 H 0.11577 0.86046 0.60245 0.0
H760 H 0.13571 0.84325 0.47697 0.0
H761 H 0.20656 0.93787 0.59802 0.0
H762 H 0.11549 0.85752 0.55593 0.0
H763 H 0.20143 0.93608 0.51673 0.0
C764 C 0.19124 0.91161 0.48168 0.0
C765 C 0.17364 0.88512 0.46999 0.0
C766 C 0.1354 0.87521 0.56512 0.0
C767 C 0.16455 0.89338 0.52268 0.0
C768 C 0.13536 0.87701 0.59169 0.0
C769 C 0.16151 0.8993 0.60419 0.0
C770 C 0.16161 0.89592 0.55086 0.0
C771 C 0.18653 0.91997 0.58921 0.0
C772 C 0.18692 0.91577 0.50799 0.0
C773 C 0.15055 0.86372 0.48526 0.0
N774 N 0.18605 0.91774 0.56336 0.0
N775 N 0.1468 0.86827 0.51078 0.0
H776 H 0.10919 0.32057 0.34614 0.0
H777 H 0.13094 0.14481 0.30221 0.0
H778 H 0.21487 0.26185 0.37247 0.0
H779 H 0.01448 0.20069 0.29049 0.0
H780 H 0.16856 0.18896 0.32223 0.0
H781 H 0.08176 0.27895 0.31901 0.0
C782 C 0.12708 0.29898 0.34582 0.0
C783 C 0.16405 0.29449 0.36173 0.0
C784 C 0.13487 0.19157 0.31518 0.0
C785 C 0.1324 0.24644 0.331 0.0
C786 C 0.11346 0.16646 0.30366 0.0
C787 C 0.06964 0.1692 0.29456 0.0
C788 C 0.11221 0.2196 0.31759 0.0
C789 C 0.0482 0.19755 0.29733 0.0
C790 C 0.11126 0.27516 0.33046 0.0
C791 C 0.18626 0.2662 0.36045 0.0
N792 N 0.06969 0.22161 0.30857 0.0
N793 N 0.16974 0.24302 0.34559 0.0
H794 H 0.29542 0.21888 0.84335 0.0
H795 H 0.49537 0.33492 0.81987 0.0
H796 H 0.39367 0.24092 0.90075 0.0
H797 H 0.36819 0.35177 0.78432 0.0
H798 H 0.46047 0.29527 0.84615 0.0
H799 H 0.32162 0.26362 0.81831 0.0
C800 C 0.32197 0.23326 0.85086 0.0
C801 C 0.34307 0.22562 0.87394 0.0
C802 C 0.44014 0.30765 0.83256 0.0
C803 C 0.37357 0.27615 0.84526 0.0
C804 C 0.4601 0.33025 0.81742 0.0
C805 C 0.43487 0.3466 0.79947 0.0
C806 C 0.39462 0.30078 0.8296 0.0
C807 C 0.38913 0.33954 0.7975 0.0
C808 C 0.337 0.25866 0.83652 0.0
C809 C 0.37732 0.2452 0.88271 0.0
N810 N 0.37048 0.31689 0.81216 0.0
N811 N 0.39189 0.26913 0.86823 0.0
H812 H 0.7089 0.2569 0.63576 0.0
H813 H 0.57883 0.37269 0.68863 0.0
H814 H 0.61825 0.19757 0.6769 0.0
H815 H 0.56271 0.31122 0.75264 0.0
H816 H 0.62003 0.33255 0.66609 0.0
H817 H 0.68353 0.30068 0.66157 0.0
C818 C 0.68432 0.25307 0.65059 0.0
C819 C 0.66535 0.2238 0.65422 0.0
C820 C 0.60826 0.32804 0.68525 0.0
C821 C 0.63557 0.27346 0.68322 0.0
C822 C 0.58424 0.35076 0.69796 0.0
C823 C 0.56739 0.34515 0.72247 0.0
C824 C 0.61481 0.29935 0.69701 0.0
C825 C 0.57538 0.31644 0.73378 0.0
C826 C 0.66941 0.27803 0.66501 0.0
C827 C 0.63341 0.21991 0.67351 0.0
N828 N 0.59797 0.2944 0.7208 0.0
N829 N 0.61942 0.24449 0.68729 0.0
H830 H 0.84516 0.24923 0.11786 0.0
H831 H 0.92871 0.19458 0.25496 0.0
H832 H 0.82819 0.30395 0.18556 0.0
H833 H 0.93337 0.13826 0.18731 0.0
H834 H 0.88655 0.23329 0.23117 0.0
H835 H 0.87093 0.20644 0.14411 0.0
C836 C 0.84609 0.2519 0.13839 0.0
C837 C 0.8346 0.27996 0.14966 0.0
C838 C 0.89648 0.21234 0.2216 0.0
C839 C 0.86521 0.23149 0.17987 0.0
C840 C 0.92051 0.19024 0.23517 0.0
C841 C 0.93482 0.16326 0.22302 0.0
C842 C 0.88687 0.20745 0.19569 0.0
C843 C 0.92345 0.15888 0.19735 0.0
C844 C 0.861 0.22757 0.15339 0.0
C845 C 0.83657 0.2825 0.17627 0.0
N846 N 0.90045 0.1808 0.18453 0.0
N847 N 0.85224 0.25867 0.19051 0.0
H848 H 0.79115 0.78867 0.61744 0.0
H849 H 0.93383 0.81132 0.74518 0.0
H850 H 0.7817 0.72588 0.68091 0.0
H851 H 0.92318 0.87904 0.68542 0.0
H852 H 0.88505 0.77667 0.72075 0.0
H853 H 0.84817 0.81799 0.64018 0.0
C854 C 0.80155 0.78088 0.63613 0.0
C855 C 0.78135 0.75504 0.64745 0.0
C856 C 0.89351 0.79907 0.71296 0.0
C857 C 0.84648 0.78879 0.67386 0.0
C858 C 0.92096 0.81897 0.72701 0.0
C859 C 0.93173 0.84837 0.7176 0.0
C860 C 0.87737 0.80847 0.68909 0.0
C861 C 0.91561 0.85665 0.69349 0.0
C862 C 0.83401 0.7977 0.64917 0.0
C863 C 0.79647 0.7457 0.67155 0.0
N864 N 0.88916 0.83687 0.68015 0.0
N865 N 0.82785 0.7628 0.68413 0.0
H866 H 0.77939 0.73635 0.17695 0.0
H867 H 0.52963 0.69865 0.22114 0.0
H868 H 0.66794 0.78428 0.14411 0.0
H869 H 0.63947 0.63524 0.22479 0.0
H870 H 0.5789 0.73615 0.19954 0.0
H871 H 0.72799 0.70669 0.20354 0.0
C872 C 0.744 0.74099 0.17573 0.0
C873 C 0.72779 0.76251 0.15816 0.0
C874 C 0.5921 0.7141 0.20537 0.0
C875 C 0.66854 0.72822 0.18823 0.0
C876 C 0.56407 0.69267 0.21758 0.0
C877 C 0.58076 0.66399 0.22536 0.0
C878 C 0.63708 0.70681 0.20124 0.0
C879 C 0.6255 0.65739 0.22005 0.0
C880 C 0.71465 0.72391 0.19075 0.0
C881 C 0.68166 0.76785 0.15745 0.0
N882 N 0.65205 0.67864 0.20855 0.0
N883 N 0.65341 0.75048 0.17208 0.0
H884 H 0.30464 0.728 0.40133 0.0
H885 H 0.43467 0.70158 0.27 0.0
H886 H 0.28174 0.78377 0.33471 0.0
H887 H 0.44425 0.64311 0.33632 0.0
H888 H 0.38648 0.73645 0.29428 0.0
H889 H 0.36503 0.70203 0.37912 0.0
C890 C 0.31289 0.73499 0.38205 0.0
C891 C 0.28812 0.75776 0.36969 0.0
C892 C 0.39953 0.71612 0.30352 0.0
C893 C 0.35666 0.72776 0.34384 0.0
C894 C 0.4269 0.69619 0.28968 0.0
C895 C 0.44297 0.66915 0.30103 0.0
C896 C 0.3887 0.70907 0.32894 0.0
C897 C 0.4325 0.66355 0.32669 0.0
C898 C 0.34724 0.72012 0.36931 0.0
C899 C 0.3002 0.76624 0.34481 0.0
N900 N 0.40589 0.68319 0.33966 0.0
N901 N 0.33334 0.75091 0.3325 0.0
H902 H 0.1892 0.72723 0.86634 0.0
H903 H 0.09464 0.88094 0.82208 0.0
H904 H 0.28227 0.7982 0.84283 0.0
H905 H 0.06645 0.80748 0.76907 0.0
H906 H 0.15044 0.84829 0.84281 0.0
H907 H 0.13076 0.75298 0.84125 0.0
C908 C 0.19767 0.7478 0.85566 0.0
C909 C 0.24068 0.76089 0.85725 0.0
C910 C 0.13153 0.8393 0.82683 0.0
C911 C 0.17394 0.79053 0.82937 0.0
C912 C 0.09968 0.85774 0.81512 0.0
C913 C 0.07601 0.84674 0.79394 0.0
C914 C 0.13875 0.8094 0.81777 0.0
C915 C 0.08425 0.81667 0.78536 0.0
C916 C 0.16426 0.76248 0.84151 0.0
C917 C 0.24939 0.78776 0.84301 0.0
N918 N 0.11488 0.7988 0.79746 0.0
N919 N 0.21614 0.80205 0.83019 0.0
loop_
_geom_bond_atom_site_label_1
_geom_bond_atom_site_label_2
_geom_bond_distance
_geom_bond_site_symmetry_2
_ccdc_geom_bond_type
H0 C1 0.949 . S
C1 H0 0.949 . S
C1 C2 1.395 . S
C1 C3 1.391 . S
C2 C1 1.395 . S
C2 C5 1.390 . S
C3 C1 1.391 . S
C3 C7 1.387 . S
C3 C8 1.491 . S
H4 C5 0.950 . S
C5 C2 1.390 . S
C5 H4 0.950 . S
C5 C6 1.378 . S
C6 C5 1.378 . S
C6 C7 1.409 . S
C7 C3 1.387 . S
C7 C6 1.409 . S
C7 H9 0.951 . S
C8 C3 1.491 . S
C8 C10 1.382 . S
C8 C12 1.404 . S
H9 C7 0.951 . S
C10 C8 1.382 . S
C10 C11 1.390 . S
C10 H15 0.949 . S
C11 C10 1.390 . S
C11 C16 1.399 . S
C12 C8 1.404 . S
C12 H13 0.950 . S
C12 C14 1.375 . S
H13 C12 0.950 . S
C14 C12 1.375 . S
C14 C16 1.382 . S
C14 H18 0.950 . S
H15 C10 0.949 . S
C16 C11 1.399 . S
C16 C14 1.382 . S
C16 H17 0.952 . S
H17 C16 0.952 . S
H18 C14 0.950 . S
H19 C20 0.949 . S
C20 H19 0.949 . S
C20 C21 1.395 . S
C20 C22 1.391 . S
C21 C20 1.395 . S
C21 C24 1.390 . S
C22 C20 1.391 . S
C22 C26 1.387 . S
C22 C27 1.491 . S
H23 C24 0.950 . S
C24 C21 1.390 . S
C24 H23 0.950 . S
C24 C25 1.378 . S
C25 C24 1.378 . S
C25 C26 1.409 . S
C26 C22 1.387 . S
C26 C25 1.409 . S
C26 H28 0.951 . S
C27 C22 1.491 . S
C27 C29 1.382 . S
C27 C31 1.404 . S
H28 C26 0.951 . S
C29 C27 1.382 . S
C29 C30 1.390 . S
C29 H34 0.949 . S
C30 C29 1.390 . S
C30 C35 1.399 . S
C31 C27 1.404 . S
C31 H32 0.950 . S
C31 C33 1.375 . S
H32 C31 0.950 . S
C33 C31 1.375 . S
C33 C35 1.382 . S
C33 H37 0.950 . S
H34 C29 0.949 . S
C35 C30 1.399 . S
C35 C33 1.382 . S
C35 H36 0.952 . S
H36 C35 0.952 . S
H37 C33 0.950 . S
H38 C39 0.949 . S
C39 H38 0.949 . S
C39 C40 1.395 . S
C39 C41 1.391 . S
C40 C39 1.395 . S
C40 C43 1.390 . S
C41 C39 1.391 . S
C41 C45 1.387 . S
C41 C46 1.491 . S
H42 C43 0.950 . S
C43 C40 1.390 . S
C43 H42 0.950 . S
C43 C44 1.378 . S
C44 C43 1.378 . S
C44 C45 1.409 . S
C45 C41 1.387 . S
C45 C44 1.409 . S
C45 H47 0.951 . S
C46 C41 1.491 . S
C46 C48 1.382 . S
C46 C50 1.404 . S
H47 C45 0.951 . S
C48 C46 1.382 . S
C48 C49 1.390 . S
C48 H53 0.949 . S
C49 C48 1.390 . S
C49 C54 1.399 . S
C50 C46 1.404 . S
C50 H51 0.950 . S
C50 C52 1.375 . S
H51 C50 0.950 . S
C52 C50 1.375 . S
C52 C54 1.382 . S
C52 H56 0.950 . S
H53 C48 0.949 . S
C54 C49 1.399 . S
C54 C52 1.382 . S
C54 H55 0.952 . S
H55 C54 0.952 . S
H56 C52 0.950 . S
H57 C58 0.949 . S
C58 H57 0.949 . S
C58 C59 1.395 . S
C58 C60 1.391 . S
C59 C58 1.395 . S
C59 C62 1.390 . S
C60 C58 1.391 . S
C60 C64 1.387 . S
C60 C65 1.491 . S
H61 C62 0.950 . S
C62 C59 1.390 . S
C62 H61 0.950 . S
C62 C63 1.378 . S
C63 C62 1.378 . S
C63 C64 1.409 . S
C64 C60 1.387 . S
C64 C63 1.409 . S
C64 H66 0.951 . S
C65 C60 1.491 . S
C65 C67 1.382 . S
C65 C69 1.404 . S
H66 C64 0.951 . S
C67 C65 1.382 . S
C67 C68 1.390 . S
C67 H72 0.949 . S
C68 C67 1.390 . S
C68 C73 1.399 . S
C69 C65 1.404 . S
C69 H70 0.950 . S
C69 C71 1.375 . S
H70 C69 0.950 . S
C71 C69 1.375 . S
C71 C73 1.382 . S
C71 H75 0.950 . S
H72 C67 0.949 . S
C73 C68 1.399 . S
C73 C71 1.382 . S
C73 H74 0.952 . S
H74 C73 0.952 . S
H75 C71 0.950 . S
H76 C77 0.949 . S
C77 H76 0.949 . S
C77 C78 1.395 . S
C77 C79 1.391 . S
C78 C77 1.395 . S
C78 C81 1.390 . S
C79 C77 1.391 . S
C79 C83 1.387 . S
C79 C84 1.491 . S
H80 C81 0.950 . S
C81 C78 1.390 . S
C81 H80 0.950 . S
C81 C82 1.378 . S
C82 C81 1.378 . S
C82 C83 1.409 . S
C83 C79 1.387 . S
C83 C82 1.409 . S
C83 H85 0.951 . S
C84 C79 1.491 . S
C84 C86 1.382 . S
C84 C88 1.404 . S
H85 C83 0.951 . S
C86 C84 1.382 . S
C86 C87 1.390 . S
C86 H91 0.949 . S
C87 C86 1.390 . S
C87 C92 1.399 . S
C88 C84 1.404 . S
C88 H89 0.950 . S
C88 C90 1.375 . S
H89 C88 0.950 . S
C90 C88 1.375 . S
C90 C92 1.382 . S
C90 H94 0.950 . S
H91 C86 0.949 . S
C92 C87 1.399 . S
C92 C90 1.382 . S
C92 H93 0.952 . S
H93 C92 0.952 . S
H94 C90 0.950 . S
H95 C96 0.949 . S
C96 H95 0.949 . S
C96 C97 1.395 . S
C96 C98 1.391 . S
C97 C96 1.395 . S
C97 C100 1.390 . S
C98 C96 1.391 . S
C98 C102 1.387 . S
C98 C103 1.491 . S
H99 C100 0.950 . S
C100 C97 1.390 . S
C100 H99 0.950 . S
C100 C101 1.378 . S
C101 C100 1.378 . S
C101 C102 1.409 . S
C102 C98 1.387 . S
C102 C101 1.409 . S
C102 H104 0.951 . S
C103 C98 1.491 . S
C103 C105 1.382 . S
C103 C107 1.404 . S
H104 C102 0.951 . S
C105 C103 1.382 . S
C105 C106 1.390 . S
C105 H110 0.949 . S
C106 C105 1.390 . S
C106 C111 1.399 . S
C107 C103 1.404 . S
C107 H108 0.950 . S
C107 C109 1.375 . S
H108 C107 0.950 . S
C109 C107 1.375 . S
C109 C111 1.382 . S
C109 H113 0.950 . S
H110 C105 0.949 . S
C111 C106 1.399 . S
C111 C109 1.382 . S
C111 H112 0.952 . S
H112 C111 0.952 . S
H113 C109 0.950 . S
H114 C115 0.949 . S
C115 H114 0.949 . S
C115 C116 1.395 . S
C115 C117 1.391 . S
C116 C115 1.395 . S
C116 C119 1.390 . S
C117 C115 1.391 . S
C117 C121 1.387 . S
C117 C122 1.491 . S
H118 C119 0.950 . S
C119 C116 1.390 . S
C119 H118 0.950 . S
C119 C120 1.378 . S
C120 C119 1.378 . S
C120 C121 1.409 . S
C121 C117 1.387 . S
C121 C120 1.409 . S
C121 H123 0.951 . S
C122 C117 1.491 . S
C122 C124 1.382 . S
C122 C126 1.404 . S
H123 C121 0.951 . S
C124 C122 1.382 . S
C124 C125 1.390 . S
C124 H129 0.949 . S
C125 C124 1.390 . S
C125 C130 1.399 . S
C126 C122 1.404 . S
C126 H127 0.950 . S
C126 C128 1.375 . S
H127 C126 0.950 . S
C128 C126 1.375 . S
C128 C130 1.382 . S
C128 H132 0.950 . S
H129 C124 0.949 . S
C130 C125 1.399 . S
C130 C128 1.382 . S
C130 H131 0.952 . S
H131 C130 0.952 . S
H132 C128 0.950 . S
H133 C134 0.949 . S
C134 H133 0.949 . S
C134 C135 1.395 . S
C134 C136 1.391 . S
C135 C134 1.395 . S
C135 C138 1.390 . S
C136 C134 1.391 . S
C136 C140 1.387 . S
C136 C141 1.491 . S
H137 C138 0.950 . S
C138 C135 1.390 . S
C138 H137 0.950 . S
C138 C139 1.378 . S
C139 C138 1.378 . S
C139 C140 1.409 . S
C140 C136 1.387 . S
C140 C139 1.409 . S
C140 H142 0.951 . S
C141 C136 1.491 . S
C141 C143 1.382 . S
C141 C145 1.404 . S
H142 C140 0.951 . S
C143 C141 1.382 . S
C143 C144 1.390 . S
C143 H148 0.949 . S
C144 C143 1.390 . S
C144 C149 1.399 . S
C145 C141 1.404 . S
C145 H146 0.950 . S
C145 C147 1.375 . S
H146 C145 0.950 . S
C147 C145 1.375 . S
C147 C149 1.382 . S
C147 H151 0.950 . S
H148 C143 0.949 . S
C149 C144 1.399 . S
C149 C147 1.382 . S
C149 H150 0.952 . S
H150 C149 0.952 . S
H151 C147 0.950 . S
Eu152 N181 2.600 . S
Eu152 N187 2.562 . S
Eu152 O196 2.462 . S
Eu152 O197 2.373 . S
Eu152 O199 2.432 . S
Eu152 O200 2.273 1_455 S
Eu152 O204 2.328 1_455 S
Eu152 O207 2.372 . S
Eu152 C216 2.787 . S
C153 N154 1.365 . S
C153 C156 1.405 . S
C153 C160 1.448 . S
N154 C153 1.365 . S
N154 C157 1.319 . S
N154 Eu163 2.600 . S
C155 C157 1.397 . S
C155 C158 1.367 . S
C155 H175 0.931 . S
C156 C153 1.405 . S
C156 C158 1.403 . S
C156 C162 1.439 . S
C157 N154 1.319 . S
C157 C155 1.397 . S
C157 H168 0.930 . S
C158 C155 1.367 . S
C158 C156 1.403 . S
C158 H179 0.929 . S
C159 C160 1.430 . S
C159 C161 1.387 . S
C159 C165 1.404 1_545 S
C160 C153 1.448 . S
C160 C159 1.430 . S
C160 N164 1.351 . S
C161 C159 1.387 . S
C161 C162 1.374 . S
C161 H176 0.931 1_545 S
C162 C156 1.439 . S
C162 C161 1.374 . S
C162 H177 0.931 . S
Eu163 N154 2.600 . S
Eu163 N164 2.562 . S
Eu163 O198 2.335 1_655 S
Eu163 O201 2.372 . S
Eu163 O202 2.462 . S
Eu163 O203 2.373 . S
Eu163 O205 2.432 . S
Eu163 O206 2.291 1_655 S
Eu163 C227 2.787 . S
N164 C160 1.351 . S
N164 Eu163 2.562 . S
N164 C166 1.325 . S
C165 C159 1.404 1_565 S
C165 C167 1.366 . S
C165 H173 0.930 . S
C166 N164 1.325 . S
C166 C167 1.416 1_545 S
C166 H172 0.929 . S
C167 C165 1.366 . S
C167 C166 1.416 1_565 S
C167 H169 0.930 . S
H168 C157 0.930 . S
H169 C167 0.930 . S
H170 C185 0.930 . S
H171 C192 0.930 . S
H172 C166 0.929 . S
H173 C165 0.930 . S
H174 C188 0.929 . S
H175 C155 0.931 . S
H176 C161 0.931 1_565 S
H177 C162 0.931 . S
H178 C183 0.931 . S
H179 C158 0.929 . S
H180 C191 0.930 . S
N181 Eu152 2.600 . S
N181 C182 1.365 . S
N181 C185 1.319 . S
C182 N181 1.365 . S
C182 C184 1.405 . S
C182 C190 1.448 . S
C183 H178 0.931 . S
C183 C185 1.397 . S
C183 C186 1.367 . S
C184 C182 1.405 . S
C184 C186 1.403 . S
C184 C217 1.439 . S
C185 H170 0.930 . S
C185 N181 1.319 . S
C185 C183 1.397 . S
C186 C183 1.367 . S
C186 C184 1.403 . S
C186 H193 0.929 . S
N187 Eu152 2.562 . S
N187 C188 1.325 . S
N187 C190 1.351 . S
C188 H174 0.929 . S
C188 N187 1.325 . S
C188 C192 1.416 . S
C189 C190 1.430 . S
C189 C191 1.404 . S
C189 C218 1.387 . S
C190 C182 1.448 . S
C190 N187 1.351 . S
C190 C189 1.430 . S
C191 H180 0.930 . S
C191 C189 1.404 . S
C191 C192 1.366 . S
C192 H171 0.930 . S
C192 C188 1.416 . S
C192 C191 1.366 . S
H193 C186 0.929 . S
H194 C217 0.931 . S
H195 C218 0.931 . S
O196 Eu152 2.462 . S
O196 C216 1.252 . S
O197 Eu152 2.373 . S
O197 C208 1.249 . S
O198 Eu163 2.335 1_455 S
O198 C208 1.264 . S
O199 Eu152 2.432 . S
O199 C216 1.268 . S
O200 Eu152 2.273 1_655 S
O200 C215 1.277 . S
O201 Eu163 2.372 . S
O201 C215 1.257 . S
O202 Eu163 2.462 . S
O202 C227 1.252 . S
O203 Eu163 2.373 . S
O203 C219 1.249 . S
O204 Eu152 2.328 1_655 S
O204 C219 1.272 . S
O205 Eu163 2.432 . S
O205 C227 1.268 . S
O206 Eu163 2.291 1_455 S
O206 C226 1.255 . S
O207 Eu152 2.372 . S
O207 C226 1.257 . S
C208 O197 1.249 . S
C208 O198 1.264 . S
C209 C212 1.382 . S
C209 C214 1.390 . S
C209 C216 1.506 . S
C210 C211 1.398 . S
C210 C214 1.392 . S
C211 C210 1.398 . S
C211 C213 1.372 . S
C211 H228 0.931 . S
C212 C209 1.382 . S
C212 C213 1.390 . S
C212 H229 0.931 . S
C213 C211 1.372 . S
C213 C212 1.390 . S
C213 H230 0.929 . S
C214 C209 1.390 . S
C214 C210 1.392 . S
C214 H231 0.930 . S
C215 O200 1.277 . S
C215 O201 1.257 . S
C216 Eu152 2.787 . S
C216 O196 1.252 . S
C216 O199 1.268 . S
C216 C209 1.506 . S
C217 C184 1.439 . S
C217 H194 0.931 . S
C217 C218 1.374 . S
C218 C189 1.387 . S
C218 H195 0.931 . S
C218 C217 1.374 . S
C219 O203 1.249 . S
C219 O204 1.272 . S
C220 C223 1.382 . S
C220 C224 1.390 . S
C220 C227 1.506 . S
C221 C222 1.398 . S
C221 C224 1.392 . S
C222 C221 1.398 . S
C222 C225 1.372 . S
C222 H232 0.931 . S
C223 C220 1.382 . S
C223 C225 1.390 . S
C223 H233 0.931 . S
C224 C220 1.390 . S
C224 C221 1.392 . S
C224 H234 0.930 . S
C225 C222 1.372 . S
C225 C223 1.390 . S
C225 H235 0.929 . S
C226 O206 1.255 . S
C226 O207 1.257 . S
C227 Eu163 2.787 . S
C227 O202 1.252 . S
C227 O205 1.268 . S
C227 C220 1.506 . S
H228 C211 0.931 . S
H229 C212 0.931 . S
H230 C213 0.929 . S
H231 C214 0.930 . S
H232 C222 0.931 . S
H233 C223 0.931 . S
H234 C224 0.930 . S
H235 C225 0.929 . S
Eu236 N265 2.600 . S
Eu236 N271 2.562 . S
Eu236 O280 2.462 . S
Eu236 O281 2.373 . S
Eu236 O283 2.432 . S
Eu236 O284 2.291 . S
Eu236 O288 2.335 . S
Eu236 O291 2.372 . S
Eu236 C300 2.787 . S
C237 N238 1.365 . S
C237 C240 1.405 . S
C237 C244 1.448 . S
N238 C237 1.365 . S
N238 C241 1.319 . S
N238 Eu247 2.600 . S
C239 C241 1.397 . S
C239 C242 1.367 . S
C239 H259 0.931 . S
C240 C237 1.405 . S
C240 C242 1.403 . S
C240 C246 1.439 . S
C241 N238 1.319 . S
C241 C239 1.397 . S
C241 H252 0.930 . S
C242 C239 1.367 . S
C242 C240 1.403 . S
C242 H263 0.929 . S
C243 C244 1.430 . S
C243 C245 1.387 . S
C243 C249 1.404 . S
C244 C237 1.448 . S
C244 C243 1.430 . S
C244 N248 1.351 . S
C245 C243 1.387 . S
C245 C246 1.374 . S
C245 H260 0.931 . S
C246 C240 1.439 . S
C246 C245 1.374 . S
C246 H261 0.931 . S
Eu247 N238 2.600 . S
Eu247 N248 2.562 . S
Eu247 O282 2.335 . S
Eu247 O285 2.372 . S
Eu247 O286 2.462 . S
Eu247 O287 2.373 . S
Eu247 O289 2.432 . S
Eu247 O290 2.291 . S
Eu247 C311 2.787 . S
N248 C244 1.351 . S
N248 Eu247 2.562 . S
N248 C250 1.325 . S
C249 C243 1.404 . S
C249 C251 1.366 . S
C249 H257 0.930 . S
C250 N248 1.325 . S
C250 C251 1.416 . S
C250 H256 0.929 . S
C251 C249 1.366 . S
C251 C250 1.416 . S
C251 H253 0.930 . S
H252 C241 0.930 . S
H253 C251 0.930 . S
H254 C269 0.930 . S
H255 C276 0.930 . S
H256 C250 0.929 . S
H257 C249 0.930 . S
H258 C272 0.929 . S
H259 C239 0.931 . S
H260 C245 0.931 . S
H261 C246 0.931 . S
H262 C267 0.931 . S
H263 C242 0.929 . S
H264 C275 0.930 . S
N265 Eu236 2.600 . S
N265 C266 1.365 . S
N265 C269 1.319 . S
C266 N265 1.365 . S
C266 C268 1.405 . S
C266 C274 1.448 . S
C267 H262 0.931 . S
C267 C269 1.397 . S
C267 C270 1.367 . S
C268 C266 1.405 . S
C268 C270 1.403 . S
C268 C301 1.439 . S
C269 H254 0.930 . S
C269 N265 1.319 . S
C269 C267 1.397 . S
C270 C267 1.367 . S
C270 C268 1.403 . S
C270 H277 0.929 . S
N271 Eu236 2.562 . S
N271 C272 1.325 . S
N271 C274 1.351 . S
C272 H258 0.929 . S
C272 N271 1.325 . S
C272 C276 1.416 . S
C273 C274 1.430 . S
C273 C275 1.404 . S
C273 C302 1.387 . S
C274 C266 1.448 . S
C274 N271 1.351 . S
C274 C273 1.430 . S
C275 H264 0.930 . S
C275 C273 1.404 . S
C275 C276 1.366 . S
C276 H255 0.930 . S
C276 C272 1.416 . S
C276 C275 1.366 . S
H277 C270 0.929 . S
H278 C301 0.931 . S
H279 C302 0.931 . S
O280 Eu236 2.462 . S
O280 C300 1.252 . S
O281 Eu236 2.373 . S
O281 C292 1.249 . S
O282 Eu247 2.335 . S
O282 C292 1.264 . S
O283 Eu236 2.432 . S
O283 C300 1.268 . S
O284 Eu236 2.291 . S
O284 C299 1.255 . S
O285 Eu247 2.372 . S
O285 C299 1.257 . S
O286 Eu247 2.462 . S
O286 C311 1.252 . S
O287 Eu247 2.373 . S
O287 C303 1.249 . S
O288 Eu236 2.335 . S
O288 C303 1.264 . S
O289 Eu247 2.432 . S
O289 C311 1.268 . S
O290 Eu247 2.291 . S
O290 C310 1.255 . S
O291 Eu236 2.372 . S
O291 C310 1.257 . S
C292 O281 1.249 . S
C292 O282 1.264 . S
C293 C296 1.382 . S
C293 C298 1.390 . S
C293 C300 1.506 . S
C294 C295 1.398 . S
C294 C298 1.392 . S
C295 C294 1.398 . S
C295 C297 1.372 . S
C295 H312 0.931 . S
C296 C293 1.382 . S
C296 C297 1.390 . S
C296 H313 0.931 . S
C297 C295 1.372 . S
C297 C296 1.390 . S
C297 H314 0.929 . S
C298 C293 1.390 . S
C298 C294 1.392 . S
C298 H315 0.930 . S
C299 O284 1.255 . S
C299 O285 1.257 . S
C300 Eu236 2.787 . S
C300 O280 1.252 . S
C300 O283 1.268 . S
C300 C293 1.506 . S
C301 C268 1.439 . S
C301 H278 0.931 . S
C301 C302 1.374 . S
C302 C273 1.387 . S
C302 H279 0.931 . S
C302 C301 1.374 . S
C303 O287 1.249 . S
C303 O288 1.264 . S
C304 C307 1.382 . S
C304 C308 1.390 . S
C304 C311 1.506 . S
C305 C306 1.398 . S
C305 C308 1.392 . S
C306 C305 1.398 . S
C306 C309 1.372 . S
C306 H316 0.931 . S
C307 C304 1.382 . S
C307 C309 1.390 . S
C307 H317 0.931 . S
C308 C304 1.390 . S
C308 C305 1.392 . S
C308 H318 0.930 . S
C309 C306 1.372 . S
C309 C307 1.390 . S
C309 H319 0.929 . S
C310 O290 1.255 . S
C310 O291 1.257 . S
C311 Eu247 2.787 . S
C311 O286 1.252 . S
C311 O289 1.268 . S
C311 C304 1.506 . S
H312 C295 0.931 . S
H313 C296 0.931 . S
H314 C297 0.929 . S
H315 C298 0.930 . S
H316 C306 0.931 . S
H317 C307 0.931 . S
H318 C308 0.930 . S
H319 C309 0.929 . S
Eu320 N349 2.600 . S
Eu320 N355 2.562 . S
Eu320 O364 2.462 . S
Eu320 O365 2.373 . S
Eu320 O367 2.432 . S
Eu320 O368 2.310 . S
Eu320 O372 2.335 . S
Eu320 O375 2.372 . S
Eu320 C384 2.787 . S
C321 N322 1.365 . S
C321 C324 1.405 . S
C321 C328 1.448 . S
N322 C321 1.365 . S
N322 C325 1.319 . S
N322 Eu331 2.600 . S
C323 C325 1.397 . S
C323 C326 1.367 . S
C323 H343 0.931 . S
C324 C321 1.405 . S
C324 C326 1.403 . S
C324 C330 1.439 . S
C325 N322 1.319 . S
C325 C323 1.397 . S
C325 H336 0.930 . S
C326 C323 1.367 . S
C326 C324 1.403 . S
C326 H347 0.929 . S
C327 C328 1.430 . S
C327 C329 1.387 . S
C327 C333 1.404 . S
C328 C321 1.448 . S
C328 C327 1.430 . S
C328 N332 1.351 . S
C329 C327 1.387 . S
C329 C330 1.374 . S
C329 H344 0.931 . S
C330 C324 1.439 . S
C330 C329 1.374 . S
C330 H345 0.931 . S
Eu331 N322 2.600 . S
Eu331 N332 2.562 . S
Eu331 O366 2.335 1_655 S
Eu331 O369 2.372 . S
Eu331 O370 2.462 . S
Eu331 O371 2.373 . S
Eu331 O373 2.432 . S
Eu331 O374 2.291 1_655 S
Eu331 C395 2.787 . S
N332 C328 1.351 . S
N332 Eu331 2.562 . S
N332 C334 1.325 . S
C333 C327 1.404 . S
C333 C335 1.366 . S
C333 H341 0.930 . S
C334 N332 1.325 . S
C334 C335 1.416 . S
C334 H340 0.929 . S
C335 C333 1.366 . S
C335 C334 1.416 . S
C335 H337 0.930 . S
H336 C325 0.930 . S
H337 C335 0.930 . S
H338 C353 0.930 . S
H339 C360 0.930 . S
H340 C334 0.929 . S
H341 C333 0.930 . S
H342 C356 0.929 . S
H343 C323 0.931 . S
H344 C329 0.931 . S
H345 C330 0.931 . S
H346 C351 0.931 . S
H347 C326 0.929 . S
H348 C359 0.930 . S
N349 Eu320 2.600 . S
N349 C350 1.365 . S
N349 C353 1.319 . S
C350 N349 1.365 . S
C350 C352 1.405 . S
C350 C358 1.448 . S
C351 H346 0.931 . S
C351 C353 1.397 . S
C351 C354 1.367 . S
C352 C350 1.405 . S
C352 C354 1.403 . S
C352 C385 1.439 . S
C353 H338 0.930 . S
C353 N349 1.319 . S
C353 C351 1.397 . S
C354 C351 1.367 . S
C354 C352 1.403 . S
C354 H361 0.929 . S
N355 Eu320 2.562 . S
N355 C356 1.325 . S
N355 C358 1.351 . S
C356 H342 0.929 . S
C356 N355 1.325 . S
C356 C360 1.416 1_565 S
C357 C358 1.430 . S
C357 C359 1.404 1_565 S
C357 C386 1.387 . S
C358 C350 1.448 . S
C358 N355 1.351 . S
C358 C357 1.430 . S
C359 H348 0.930 . S
C359 C357 1.404 1_545 S
C359 C360 1.366 . S
C360 H339 0.930 . S
C360 C356 1.416 1_545 S
C360 C359 1.366 . S
H361 C354 0.929 . S
H362 C385 0.931 . S
H363 C386 0.931 1_545 S
O364 Eu320 2.462 . S
O364 C384 1.252 . S
O365 Eu320 2.373 . S
O365 C376 1.249 . S
O366 Eu331 2.335 1_455 S
O366 C376 1.264 . S
O367 Eu320 2.432 . S
O367 C384 1.268 . S
O368 Eu320 2.310 . S
O368 C383 1.233 1_455 S
O369 Eu331 2.372 . S
O369 C383 1.257 . S
O370 Eu331 2.462 . S
O370 C395 1.252 . S
O371 Eu331 2.373 . S
O371 C387 1.249 . S
O372 Eu320 2.335 . S
O372 C387 1.264 1_455 S
O373 Eu331 2.432 . S
O373 C395 1.268 . S
O374 Eu331 2.291 1_455 S
O374 C394 1.255 . S
O375 Eu320 2.372 . S
O375 C394 1.257 . S
C376 O365 1.249 . S
C376 O366 1.264 . S
C377 C380 1.382 . S
C377 C382 1.390 . S
C377 C384 1.506 . S
C378 C379 1.398 . S
C378 C382 1.392 . S
C379 C378 1.398 . S
C379 C381 1.372 . S
C379 H396 0.931 . S
C380 C377 1.382 . S
C380 C381 1.390 . S
C380 H397 0.931 . S
C381 C379 1.372 . S
C381 C380 1.390 . S
C381 H398 0.929 . S
C382 C377 1.390 . S
C382 C378 1.392 . S
C382 H399 0.930 . S
C383 O368 1.233 1_655 S
C383 O369 1.257 . S
C384 Eu320 2.787 . S
C384 O364 1.252 . S
C384 O367 1.268 . S
C384 C377 1.506 . S
C385 C352 1.439 . S
C385 H362 0.931 . S
C385 C386 1.374 . S
C386 C357 1.387 . S
C386 H363 0.931 1_565 S
C386 C385 1.374 . S
C387 O371 1.249 . S
C387 O372 1.264 1_655 S
C388 C391 1.382 . S
C388 C392 1.390 . S
C388 C395 1.506 . S
C389 C390 1.398 . S
C389 C392 1.392 . S
C390 C389 1.398 . S
C390 C393 1.372 . S
C390 H400 0.931 . S
C391 C388 1.382 . S
C391 C393 1.390 . S
C391 H401 0.931 . S
C392 C388 1.390 . S
C392 C389 1.392 . S
C392 H402 0.930 . S
C393 C390 1.372 . S
C393 C391 1.390 . S
C393 H403 0.929 . S
C394 O374 1.255 . S
C394 O375 1.257 . S
C395 Eu331 2.787 . S
C395 O370 1.252 . S
C395 O373 1.268 . S
C395 C388 1.506 . S
H396 C379 0.931 . S
H397 C380 0.931 . S
H398 C381 0.929 . S
H399 C382 0.930 . S
H400 C390 0.931 . S
H401 C391 0.931 . S
H402 C392 0.930 . S
H403 C393 0.929 . S
Eu404 N433 2.600 . S
Eu404 N439 2.562 . S
Eu404 O448 2.462 . S
Eu404 O449 2.373 . S
Eu404 O451 2.432 . S
Eu404 O452 2.291 . S
Eu404 O456 2.335 . S
Eu404 O459 2.372 . S
Eu404 C468 2.787 . S
C405 N406 1.365 . S
C405 C408 1.405 . S
C405 C412 1.448 . S
N406 C405 1.365 . S
N406 C409 1.319 . S
N406 Eu415 2.600 . S
C407 C409 1.397 . S
C407 C410 1.367 . S
C407 H427 0.931 . S
C408 C405 1.405 . S
C408 C410 1.403 . S
C408 C414 1.439 . S
C409 N406 1.319 . S
C409 C407 1.397 . S
C409 H420 0.930 . S
C410 C407 1.367 . S
C410 C408 1.403 . S
C410 H431 0.929 . S
C411 C412 1.430 . S
C411 C413 1.387 . S
C411 C417 1.404 . S
C412 C405 1.448 . S
C412 C411 1.430 . S
C412 N416 1.351 . S
C413 C411 1.387 . S
C413 C414 1.374 . S
C413 H428 0.931 . S
C414 C408 1.439 . S
C414 C413 1.374 . S
C414 H429 0.931 . S
Eu415 N406 2.600 . S
Eu415 N416 2.562 . S
Eu415 O450 2.335 . S
Eu415 O453 2.372 . S
Eu415 O454 2.462 . S
Eu415 O455 2.373 . S
Eu415 O457 2.432 . S
Eu415 O458 2.291 . S
Eu415 C479 2.787 . S
N416 C412 1.351 . S
N416 Eu415 2.562 . S
N416 C418 1.325 . S
C417 C411 1.404 . S
C417 C419 1.366 . S
C417 H425 0.930 . S
C418 N416 1.325 . S
C418 C419 1.416 . S
C418 H424 0.929 . S
C419 C417 1.366 . S
C419 C418 1.416 . S
C419 H421 0.930 . S
H420 C409 0.930 . S
H421 C419 0.930 . S
H422 C437 0.930 . S
H423 C444 0.930 . S
H424 C418 0.929 . S
H425 C417 0.930 . S
H426 C440 0.929 . S
H427 C407 0.931 . S
H428 C413 0.931 . S
H429 C414 0.931 . S
H430 C435 0.931 . S
H431 C410 0.929 . S
H432 C443 0.930 . S
N433 Eu404 2.600 . S
N433 C434 1.365 . S
N433 C437 1.319 . S
C434 N433 1.365 . S
C434 C436 1.405 . S
C434 C442 1.448 . S
C435 H430 0.931 . S
C435 C437 1.397 . S
C435 C438 1.367 . S
C436 C434 1.405 . S
C436 C438 1.403 . S
C436 C469 1.439 . S
C437 H422 0.930 . S
C437 N433 1.319 . S
C437 C435 1.397 . S
C438 C435 1.367 . S
C438 C436 1.403 . S
C438 H445 0.929 . S
N439 Eu404 2.562 . S
N439 C440 1.325 . S
N439 C442 1.351 . S
C440 H426 0.929 . S
C440 N439 1.325 . S
C440 C444 1.416 . S
C441 C442 1.430 . S
C441 C443 1.404 . S
C441 C470 1.387 . S
C442 C434 1.448 . S
C442 N439 1.351 . S
C442 C441 1.430 . S
C443 H432 0.930 . S
C443 C441 1.404 . S
C443 C444 1.366 . S
C444 H423 0.930 . S
C444 C440 1.416 . S
C444 C443 1.366 . S
H445 C438 0.929 . S
H446 C469 0.931 . S
H447 C470 0.931 . S
O448 Eu404 2.462 . S
O448 C468 1.252 . S
O449 Eu404 2.373 . S
O449 C460 1.249 . S
O450 Eu415 2.335 . S
O450 C460 1.264 . S
O451 Eu404 2.432 . S
O451 C468 1.268 . S
O452 Eu404 2.291 . S
O452 C467 1.255 . S
O453 Eu415 2.372 . S
O453 C467 1.257 . S
O454 Eu415 2.462 . S
O454 C479 1.252 . S
O455 Eu415 2.373 . S
O455 C471 1.249 . S
O456 Eu404 2.335 . S
O456 C471 1.264 . S
O457 Eu415 2.432 . S
O457 C479 1.268 . S
O458 Eu415 2.291 . S
O458 C478 1.255 . S
O459 Eu404 2.372 . S
O459 C478 1.257 . S
C460 O449 1.249 . S
C460 O450 1.264 . S
C461 C464 1.382 . S
C461 C466 1.390 . S
C461 C468 1.506 . S
C462 C463 1.398 . S
C462 C466 1.392 . S
C463 C462 1.398 . S
C463 C465 1.372 . S
C463 H480 0.931 . S
C464 C461 1.382 . S
C464 C465 1.390 . S
C464 H481 0.931 . S
C465 C463 1.372 . S
C465 C464 1.390 . S
C465 H482 0.929 . S
C466 C461 1.390 . S
C466 C462 1.392 . S
C466 H483 0.930 . S
C467 O452 1.255 . S
C467 O453 1.257 . S
C468 Eu404 2.787 . S
C468 O448 1.252 . S
C468 O451 1.268 . S
C468 C461 1.506 . S
C469 C436 1.439 . S
C469 H446 0.931 . S
C469 C470 1.374 . S
C470 C441 1.387 . S
C470 H447 0.931 . S
C470 C469 1.374 . S
C471 O455 1.249 . S
C471 O456 1.264 . S
C472 C475 1.382 . S
C472 C476 1.390 . S
C472 C479 1.506 . S
C473 C474 1.398 . S
C473 C476 1.392 . S
C474 C473 1.398 . S
C474 C477 1.372 . S
C474 H484 0.931 . S
C475 C472 1.382 . S
C475 C477 1.390 . S
C475 H485 0.931 . S
C476 C472 1.390 . S
C476 C473 1.392 . S
C476 H486 0.930 . S
C477 C474 1.372 . S
C477 C475 1.390 . S
C477 H487 0.929 . S
C478 O458 1.255 . S
C478 O459 1.257 . S
C479 Eu415 2.787 . S
C479 O454 1.252 . S
C479 O457 1.268 . S
C479 C472 1.506 . S
H480 C463 0.931 . S
H481 C464 0.931 . S
H482 C465 0.929 . S
H483 C466 0.930 . S
H484 C474 0.931 . S
H485 C475 0.931 . S
H486 C476 0.930 . S
H487 C477 0.929 . S
H488 C494 0.930 . S
H489 C498 0.930 . S
H490 C503 0.929 . S
H491 C501 0.929 . S
H492 C496 0.929 . S
H493 C502 0.929 . S
C494 H488 0.930 . S
C494 C495 1.367 . S
C494 C502 1.378 . S
C495 C494 1.367 . S
C495 C503 1.433 . S
C496 H492 0.929 . S
C496 C498 1.378 . S
C496 C500 1.350 1_545 S
C497 C500 1.463 . S
C497 C502 1.350 . S
C497 N505 1.427 . S
C498 H489 0.930 . S
C498 C496 1.378 . S
C498 C499 1.367 . S
C499 C498 1.367 . S
C499 C501 1.433 1_545 S
C500 C496 1.350 1_565 S
C500 C497 1.463 . S
C500 N504 1.427 . S
C501 H491 0.929 . S
C501 C499 1.433 1_565 S
C501 N504 1.384 . S
C502 H493 0.929 . S
C502 C494 1.378 . S
C502 C497 1.350 . S
C503 H490 0.929 . S
C503 C495 1.433 . S
C503 N505 1.384 . S
N504 C500 1.427 . S
N504 C501 1.384 . S
N505 C497 1.427 . S
N505 C503 1.384 . S
H506 C512 0.930 . S
H507 C516 0.930 . S
H508 C521 0.929 . S
H509 C519 0.929 . S
H510 C514 0.929 . S
H511 C520 0.929 . S
C512 H506 0.930 . S
C512 C513 1.367 . S
C512 C520 1.378 . S
C513 C512 1.367 . S
C513 C521 1.433 . S
C514 H510 0.929 . S
C514 C516 1.378 . S
C514 C518 1.350 . S
C515 C518 1.463 . S
C515 C520 1.350 . S
C515 N523 1.427 . S
C516 H507 0.930 . S
C516 C514 1.378 . S
C516 C517 1.367 . S
C517 C516 1.367 . S
C517 C519 1.433 . S
C518 C514 1.350 . S
C518 C515 1.463 . S
C518 N522 1.427 . S
C519 H509 0.929 . S
C519 C517 1.433 . S
C519 N522 1.384 . S
C520 H511 0.929 . S
C520 C512 1.378 . S
C520 C515 1.350 . S
C521 H508 0.929 . S
C521 C513 1.433 . S
C521 N523 1.384 . S
N522 C518 1.427 . S
N522 C519 1.384 . S
N523 C515 1.427 . S
N523 C521 1.384 . S
H524 C530 0.930 . S
H525 C534 0.930 . S
H526 C539 0.929 . S
H527 C537 0.929 . S
H528 C532 0.929 . S
H529 C538 0.929 . S
C530 H524 0.930 . S
C530 C531 1.367 . S
C530 C538 1.378 . S
C531 C530 1.367 . S
C531 C539 1.433 . S
C532 H528 0.929 . S
C532 C534 1.378 . S
C532 C536 1.350 . S
C533 C536 1.463 . S
C533 C538 1.350 . S
C533 N541 1.427 . S
C534 H525 0.930 . S
C534 C532 1.378 . S
C534 C535 1.367 . S
C535 C534 1.367 . S
C535 C537 1.433 . S
C536 C532 1.350 . S
C536 C533 1.463 . S
C536 N540 1.427 . S
C537 H527 0.929 . S
C537 C535 1.433 . S
C537 N540 1.384 . S
C538 H529 0.929 . S
C538 C530 1.378 . S
C538 C533 1.350 . S
C539 H526 0.929 . S
C539 C531 1.433 . S
C539 N541 1.384 . S
N540 C536 1.427 . S
N540 C537 1.384 . S
N541 C533 1.427 . S
N541 C539 1.384 . S
H542 C548 0.930 . S
H543 C552 0.930 . S
H544 C557 0.929 . S
H545 C555 0.929 . S
H546 C550 0.923 1_545 S
H547 C556 0.929 . S
C548 H542 0.930 . S
C548 C549 1.367 . S
C548 C556 1.378 . S
C549 C548 1.367 . S
C549 C557 1.433 . S
C550 H546 0.923 1_565 S
C550 C552 1.355 1_565 S
C550 C554 1.380 . S
C551 C554 1.463 . S
C551 C556 1.350 . S
C551 N559 1.427 . S
C552 H543 0.930 . S
C552 C550 1.355 1_545 S
C552 C553 1.367 . S
C553 C552 1.367 . S
C553 C555 1.433 1_545 S
C554 C550 1.380 . S
C554 C551 1.463 . S
C554 N558 1.427 . S
C555 H545 0.929 . S
C555 C553 1.433 1_565 S
C555 N558 1.384 . S
C556 H547 0.929 . S
C556 C548 1.378 . S
C556 C551 1.350 . S
C557 H544 0.929 . S
C557 C549 1.433 . S
C557 N559 1.384 . S
N558 C554 1.427 . S
N558 C555 1.384 . S
N559 C551 1.427 . S
N559 C557 1.384 . S
H560 C566 0.930 . S
H561 C570 0.930 . S
H562 C575 0.929 . S
H563 C573 0.926 1_565 S
H564 C568 0.929 . S
H565 C574 0.929 . S
C566 H560 0.930 . S
C566 C567 1.367 . S
C566 C574 1.378 . S
C567 C566 1.367 . S
C567 C575 1.433 . S
C568 H564 0.929 . S
C568 C570 1.378 1_545 S
C568 C572 1.350 . S
C569 C572 1.463 . S
C569 C574 1.350 . S
C569 N577 1.427 . S
C570 H561 0.930 . S
C570 C568 1.378 1_565 S
C570 C571 1.367 . S
C571 C570 1.367 . S
C571 C573 1.425 1_565 S
C572 C568 1.350 . S
C572 C569 1.463 . S
C572 N576 1.427 . S
C573 H563 0.926 1_545 S
C573 C571 1.425 1_545 S
C573 N576 1.396 . S
C574 H565 0.929 . S
C574 C566 1.378 . S
C574 C569 1.350 . S
C575 H562 0.929 . S
C575 C567 1.433 . S
C575 N577 1.384 . S
N576 C572 1.427 . S
N576 C573 1.396 . S
N577 C569 1.427 . S
N577 C575 1.384 . S
H578 C584 0.930 . S
H579 C588 0.930 . S
H580 C593 0.929 . S
H581 C591 0.929 . S
H582 C586 0.929 . S
H583 C592 0.929 . S
C584 H578 0.930 . S
C584 C585 1.367 . S
C584 C592 1.378 . S
C585 C584 1.367 . S
C585 C593 1.433 . S
C586 H582 0.929 . S
C586 C588 1.378 . S
C586 C590 1.350 . S
C587 C590 1.463 . S
C587 C592 1.350 . S
C587 N595 1.427 . S
C588 H579 0.930 . S
C588 C586 1.378 . S
C588 C589 1.367 . S
C589 C588 1.367 . S
C589 C591 1.433 . S
C590 C586 1.350 . S
C590 C587 1.463 . S
C590 N594 1.427 . S
C591 H581 0.929 . S
C591 C589 1.433 . S
C591 N594 1.384 . S
C592 H583 0.929 . S
C592 C584 1.378 . S
C592 C587 1.350 . S
C593 H580 0.929 . S
C593 C585 1.433 . S
C593 N595 1.384 . S
N594 C590 1.427 . S
N594 C591 1.384 . S
N595 C587 1.427 . S
N595 C593 1.384 . S
H596 C602 0.930 . S
H597 C606 0.930 . S
H598 C611 0.929 . S
H599 C609 0.929 . S
H600 C604 0.929 . S
H601 C610 0.929 . S
C602 H596 0.930 . S
C602 C603 1.367 . S
C602 C610 1.378 . S
C603 C602 1.367 . S
C603 C611 1.433 . S
C604 H600 0.929 . S
C604 C606 1.378 . S
C604 C608 1.350 . S
C605 C608 1.463 . S
C605 C610 1.350 . S
C605 N613 1.427 . S
C606 H597 0.930 . S
C606 C604 1.378 . S
C606 C607 1.367 . S
C607 C606 1.367 . S
C607 C609 1.433 . S
C608 C604 1.350 . S
C608 C605 1.463 . S
C608 N612 1.427 . S
C609 H599 0.929 . S
C609 C607 1.433 . S
C609 N612 1.384 . S
C610 H601 0.929 . S
C610 C602 1.378 . S
C610 C605 1.350 . S
C611 H598 0.929 . S
C611 C603 1.433 . S
C611 N613 1.384 . S
N612 C608 1.427 . S
N612 C609 1.384 . S
N613 C605 1.427 . S
N613 C611 1.384 . S
H614 C620 0.930 . S
H615 C624 0.930 . S
H616 C629 0.929 . S
H617 C627 0.929 . S
H618 C622 0.929 . S
H619 C628 0.929 . S
C620 H614 0.930 . S
C620 C621 1.367 . S
C620 C628 1.378 . S
C621 C620 1.367 . S
C621 C629 1.433 . S
C622 H618 0.929 . S
C622 C624 1.378 . S
C622 C626 1.350 1_565 S
C623 C626 1.463 . S
C623 C628 1.350 . S
C623 N631 1.427 . S
C624 H615 0.930 . S
C624 C622 1.378 . S
C624 C625 1.367 . S
C625 C624 1.367 . S
C625 C627 1.433 1_565 S
C626 C622 1.350 1_545 S
C626 C623 1.463 . S
C626 N630 1.427 . S
C627 H617 0.929 . S
C627 C625 1.433 1_545 S
C627 N630 1.384 . S
C628 H619 0.929 . S
C628 C620 1.378 . S
C628 C623 1.350 . S
C629 H616 0.929 . S
C629 C621 1.433 . S
C629 N631 1.384 . S
N630 C626 1.427 . S
N630 C627 1.384 . S
N631 C623 1.427 . S
N631 C629 1.384 . S
H632 C638 0.930 . S
H633 C642 0.930 . S
H634 C647 0.929 . S
H635 C645 0.929 . S
H636 C640 0.929 . S
H637 C646 0.929 . S
C638 H632 0.930 . S
C638 C639 1.367 . S
C638 C646 1.378 . S
C639 C638 1.367 . S
C639 C647 1.433 . S
C640 H636 0.929 . S
C640 C642 1.378 . S
C640 C644 1.350 . S
C641 C644 1.463 . S
C641 C646 1.350 1_554 S
C641 N649 1.427 . S
C642 H633 0.930 . S
C642 C640 1.378 . S
C642 C643 1.367 . S
C643 C642 1.367 . S
C643 C645 1.433 . S
C644 C640 1.350 . S
C644 C641 1.463 . S
C644 N648 1.427 . S
C645 H635 0.929 . S
C645 C643 1.433 . S
C645 N648 1.384 . S
C646 H637 0.929 . S
C646 C638 1.378 . S
C646 C641 1.350 1_556 S
C647 H634 0.929 . S
C647 C639 1.433 . S
C647 N649 1.384 1_556 S
N648 C644 1.427 . S
N648 C645 1.384 . S
N649 C641 1.427 . S
N649 C647 1.384 1_554 S
H650 C656 0.930 . S
H651 C660 0.930 . S
H652 C665 0.929 . S
H653 C663 0.929 . S
H654 C658 0.929 . S
H655 C664 0.929 . S
C656 H650 0.930 . S
C656 C657 1.367 . S
C656 C664 1.378 . S
C657 C656 1.367 . S
C657 C665 1.433 . S
C658 H654 0.929 . S
C658 C660 1.378 . S
C658 C662 1.350 . S
C659 C662 1.463 . S
C659 C664 1.350 . S
C659 N667 1.427 . S
C660 H651 0.930 . S
C660 C658 1.378 . S
C660 C661 1.367 . S
C661 C660 1.367 . S
C661 C663 1.433 . S
C662 C658 1.350 . S
C662 C659 1.463 . S
C662 N666 1.427 . S
C663 H653 0.929 . S
C663 C661 1.433 . S
C663 N666 1.384 . S
C664 H655 0.929 . S
C664 C656 1.378 . S
C664 C659 1.350 . S
C665 H652 0.929 . S
C665 C657 1.433 . S
C665 N667 1.384 . S
N666 C662 1.427 . S
N666 C663 1.384 . S
N667 C659 1.427 . S
N667 C665 1.384 . S
H668 C674 0.930 . S
H669 C678 0.930 . S
H670 C683 0.929 . S
H671 C681 0.929 . S
H672 C676 0.929 . S
H673 C682 0.935 . S
C674 H668 0.930 . S
C674 C675 1.367 . S
C674 C682 1.378 . S
C675 C674 1.367 . S
C675 C683 1.433 . S
C676 H672 0.929 . S
C676 C678 1.378 . S
C676 C680 1.350 . S
C677 C680 1.463 . S
C677 C682 1.350 1_556 S
C677 N685 1.427 . S
C678 H669 0.930 . S
C678 C676 1.378 . S
C678 C679 1.367 . S
C679 C678 1.367 . S
C679 C681 1.433 . S
C680 C676 1.350 . S
C680 C677 1.463 . S
C680 N684 1.427 . S
C681 H671 0.929 . S
C681 C679 1.433 . S
C681 N684 1.384 . S
C682 H673 0.935 . S
C682 C674 1.378 . S
C682 C677 1.350 1_554 S
C683 H670 0.929 . S
C683 C675 1.433 . S
C683 N685 1.384 1_554 S
N684 C680 1.427 . S
N684 C681 1.384 . S
N685 C677 1.427 . S
N685 C683 1.384 1_556 S
H686 C692 0.930 . S
H687 C696 0.930 . S
H688 C701 0.929 . S
H689 C699 0.929 . S
H690 C694 0.929 . S
H691 C700 0.929 . S
C692 H686 0.930 . S
C692 C693 1.367 . S
C692 C700 1.378 . S
C693 C692 1.367 . S
C693 C701 1.433 . S
C694 H690 0.929 . S
C694 C696 1.378 . S
C694 C698 1.350 . S
C695 C698 1.463 . S
C695 C700 1.350 . S
C695 N703 1.427 . S
C696 H687 0.930 . S
C696 C694 1.378 . S
C696 C697 1.367 . S
C697 C696 1.367 . S
C697 C699 1.433 . S
C698 C694 1.350 . S
C698 C695 1.463 . S
C698 N702 1.427 . S
C699 H689 0.929 . S
C699 C697 1.433 . S
C699 N702 1.384 . S
C700 H691 0.929 . S
C700 C692 1.378 . S
C700 C695 1.350 . S
C701 H688 0.929 . S
C701 C693 1.433 . S
C701 N703 1.384 . S
N702 C698 1.427 . S
N702 C699 1.384 . S
N703 C695 1.427 . S
N703 C701 1.384 . S
H704 C710 0.930 . S
H705 C714 0.930 . S
H706 C719 0.929 . S
H707 C717 0.929 . S
H708 C712 0.929 . S
H709 C718 0.929 . S
C710 H704 0.930 . S
C710 C711 1.367 . S
C710 C718 1.378 . S
C711 C710 1.367 . S
C711 C719 1.433 . S
C712 H708 0.929 . S
C712 C714 1.378 . S
C712 C716 1.350 . S
C713 C716 1.463 . S
C713 C718 1.350 1_556 S
C713 N721 1.427 . S
C714 H705 0.930 . S
C714 C712 1.378 . S
C714 C715 1.367 . S
C715 C714 1.367 . S
C715 C717 1.433 . S
C716 C712 1.350 . S
C716 C713 1.463 . S
C716 N720 1.427 . S
C717 H707 0.929 . S
C717 C715 1.433 . S
C717 N720 1.384 . S
C718 H709 0.929 . S
C718 C710 1.378 . S
C718 C713 1.350 1_554 S
C719 H706 0.929 . S
C719 C711 1.433 . S
C719 N721 1.384 1_554 S
N720 C716 1.427 . S
N720 C717 1.384 . S
N721 C713 1.427 . S
N721 C719 1.384 1_556 S
H722 C728 0.930 . S
H723 C732 0.930 . S
H724 C737 0.929 . S
H725 C735 0.929 . S
H726 C730 0.929 . S
H727 C736 0.929 . S
C728 H722 0.930 . S
C728 C729 1.367 . S
C728 C736 1.378 . S
C729 C728 1.367 . S
C729 C737 1.433 . S
C730 H726 0.929 . S
C730 C732 1.378 . S
C730 C734 1.350 . S
C731 C734 1.463 . S
C731 C736 1.350 . S
C731 N739 1.427 . S
C732 H723 0.930 . S
C732 C730 1.378 . S
C732 C733 1.367 . S
C733 C732 1.367 . S
C733 C735 1.433 . S
C734 C730 1.350 . S
C734 C731 1.463 . S
C734 N738 1.427 . S
C735 H725 0.929 . S
C735 C733 1.433 . S
C735 N738 1.384 . S
C736 H727 0.929 . S
C736 C728 1.378 . S
C736 C731 1.350 . S
C737 H724 0.929 . S
C737 C729 1.433 . S
C737 N739 1.384 . S
N738 C734 1.427 . S
N738 C735 1.384 . S
N739 C731 1.427 . S
N739 C737 1.384 . S
H740 C746 0.930 . S
H741 C750 0.930 . S
H742 C755 0.929 . S
H743 C753 0.929 . S
H744 C748 0.929 . S
H745 C754 0.929 . S
C746 H740 0.930 . S
C746 C747 1.367 . S
C746 C754 1.378 . S
C747 C746 1.367 . S
C747 C755 1.433 . S
C748 H744 0.929 . S
C748 C750 1.378 . S
C748 C752 1.350 . S
C749 C752 1.463 . S
C749 C754 1.350 1_554 S
C749 N757 1.427 . S
C750 H741 0.930 . S
C750 C748 1.378 . S
C750 C751 1.367 . S
C751 C750 1.367 . S
C751 C753 1.433 . S
C752 C748 1.350 . S
C752 C749 1.463 . S
C752 N756 1.427 . S
C753 H743 0.929 . S
C753 C751 1.433 . S
C753 N756 1.384 . S
C754 H745 0.929 . S
C754 C746 1.378 . S
C754 C749 1.350 1_556 S
C755 H742 0.929 . S
C755 C747 1.433 . S
C755 N757 1.384 1_556 S
N756 C752 1.427 . S
N756 C753 1.384 . S
N757 C749 1.427 . S
N757 C755 1.384 1_554 S
H758 C764 0.930 . S
H759 C768 0.930 . S
H760 C773 0.929 . S
H761 C771 0.929 . S
H762 C766 0.929 . S
H763 C772 0.929 . S
C764 H758 0.930 . S
C764 C765 1.367 . S
C764 C772 1.378 . S
C765 C764 1.367 . S
C765 C773 1.433 . S
C766 H762 0.929 . S
C766 C768 1.378 . S
C766 C770 1.350 . S
C767 C770 1.463 . S
C767 C772 1.350 . S
C767 N775 1.427 . S
C768 H759 0.930 . S
C768 C766 1.378 . S
C768 C769 1.367 . S
C769 C768 1.367 . S
C769 C771 1.433 . S
C770 C766 1.350 . S
C770 C767 1.463 . S
C770 N774 1.427 . S
C771 H761 0.929 . S
C771 C769 1.433 . S
C771 N774 1.384 . S
C772 H763 0.929 . S
C772 C764 1.378 . S
C772 C767 1.350 . S
C773 H760 0.929 . S
C773 C765 1.433 . S
C773 N775 1.384 . S
N774 C770 1.427 . S
N774 C771 1.384 . S
N775 C767 1.427 . S
N775 C773 1.384 . S
H776 C782 0.930 . S
H777 C786 0.930 . S
H778 C791 0.929 . S
H779 C789 0.929 . S
H780 C784 0.929 . S
H781 C790 0.929 . S
C782 H776 0.930 . S
C782 C783 1.367 . S
C782 C790 1.378 . S
C783 C782 1.367 . S
C783 C791 1.433 . S
C784 H780 0.929 . S
C784 C786 1.378 . S
C784 C788 1.350 . S
C785 C788 1.463 . S
C785 C790 1.350 . S
C785 N793 1.427 . S
C786 H777 0.930 . S
C786 C784 1.378 . S
C786 C787 1.367 . S
C787 C786 1.367 . S
C787 C789 1.433 . S
C788 C784 1.350 . S
C788 C785 1.463 . S
C788 N792 1.427 . S
C789 H779 0.929 . S
C789 C787 1.433 . S
C789 N792 1.384 . S
C790 H781 0.929 . S
C790 C782 1.378 . S
C790 C785 1.350 . S
C791 H778 0.929 . S
C791 C783 1.433 . S
C791 N793 1.384 . S
N792 C788 1.427 . S
N792 C789 1.384 . S
N793 C785 1.427 . S
N793 C791 1.384 . S
H794 C800 0.930 . S
H795 C804 0.930 . S
H796 C809 0.929 . S
H797 C807 0.929 . S
H798 C802 0.929 . S
H799 C808 0.929 . S
C800 H794 0.930 . S
C800 C801 1.367 . S
C800 C808 1.378 . S
C801 C800 1.367 . S
C801 C809 1.433 . S
C802 H798 0.929 . S
C802 C804 1.378 . S
C802 C806 1.350 . S
C803 C806 1.463 . S
C803 C808 1.350 . S
C803 N811 1.427 . S
C804 H795 0.930 . S
C804 C802 1.378 . S
C804 C805 1.367 . S
C805 C804 1.367 . S
C805 C807 1.433 . S
C806 C802 1.350 . S
C806 C803 1.463 . S
C806 N810 1.427 . S
C807 H797 0.929 . S
C807 C805 1.433 . S
C807 N810 1.384 . S
C808 H799 0.929 . S
C808 C800 1.378 . S
C808 C803 1.350 . S
C809 H796 0.929 . S
C809 C801 1.433 . S
C809 N811 1.384 . S
N810 C806 1.427 . S
N810 C807 1.384 . S
N811 C803 1.427 . S
N811 C809 1.384 . S
H812 C818 0.930 . S
H813 C822 0.930 . S
H814 C827 0.929 . S
H815 C825 0.929 . S
H816 C820 0.929 . S
H817 C826 0.929 . S
C818 H812 0.930 . S
C818 C819 1.367 . S
C818 C826 1.378 . S
C819 C818 1.367 . S
C819 C827 1.433 . S
C820 H816 0.929 . S
C820 C822 1.378 . S
C820 C824 1.350 . S
C821 C824 1.463 . S
C821 C826 1.350 . S
C821 N829 1.427 . S
C822 H813 0.930 . S
C822 C820 1.378 . S
C822 C823 1.367 . S
C823 C822 1.367 . S
C823 C825 1.433 . S
C824 C820 1.350 . S
C824 C821 1.463 . S
C824 N828 1.427 . S
C825 H815 0.929 . S
C825 C823 1.433 . S
C825 N828 1.384 . S
C826 H817 0.929 . S
C826 C818 1.378 . S
C826 C821 1.350 . S
C827 H814 0.929 . S
C827 C819 1.433 . S
C827 N829 1.384 . S
N828 C824 1.427 . S
N828 C825 1.384 . S
N829 C821 1.427 . S
N829 C827 1.384 . S
H830 C836 0.930 . S
H831 C840 0.930 . S
H832 C845 0.929 . S
H833 C843 0.929 . S
H834 C838 0.929 . S
H835 C844 0.929 . S
C836 H830 0.930 . S
C836 C837 1.367 . S
C836 C844 1.378 . S
C837 C836 1.367 . S
C837 C845 1.433 . S
C838 H834 0.929 . S
C838 C840 1.378 . S
C838 C842 1.350 . S
C839 C842 1.463 . S
C839 C844 1.350 . S
C839 N847 1.427 . S
C840 H831 0.930 . S
C840 C838 1.378 . S
C840 C841 1.367 . S
C841 C840 1.367 . S
C841 C843 1.433 . S
C842 C838 1.350 . S
C842 C839 1.463 . S
C842 N846 1.427 . S
C843 H833 0.929 . S
C843 C841 1.433 . S
C843 N846 1.384 . S
C844 H835 0.929 . S
C844 C836 1.378 . S
C844 C839 1.350 . S
C845 H832 0.929 . S
C845 C837 1.433 . S
C845 N847 1.384 . S
N846 C842 1.427 . S
N846 C843 1.384 . S
N847 C839 1.427 . S
N847 C845 1.384 . S
H848 C854 0.930 . S
H849 C858 0.930 . S
H850 C863 0.929 . S
H851 C861 0.929 . S
H852 C856 0.929 . S
H853 C862 0.929 . S
C854 H848 0.930 . S
C854 C855 1.367 . S
C854 C862 1.378 . S
C855 C854 1.367 . S
C855 C863 1.433 . S
C856 H852 0.929 . S
C856 C858 1.378 . S
C856 C860 1.350 . S
C857 C860 1.463 . S
C857 C862 1.350 . S
C857 N865 1.427 . S
C858 H849 0.930 . S
C858 C856 1.378 . S
C858 C859 1.367 . S
C859 C858 1.367 . S
C859 C861 1.433 . S
C860 C856 1.350 . S
C860 C857 1.463 . S
C860 N864 1.427 . S
C861 H851 0.929 . S
C861 C859 1.433 . S
C861 N864 1.384 . S
C862 H853 0.929 . S
C862 C854 1.378 . S
C862 C857 1.350 . S
C863 H850 0.929 . S
C863 C855 1.433 . S
C863 N865 1.384 . S
N864 C860 1.427 . S
N864 C861 1.384 . S
N865 C857 1.427 . S
N865 C863 1.384 . S
H866 C872 0.930 . S
H867 C876 0.930 . S
H868 C881 0.929 . S
H869 C879 0.929 . S
H870 C874 0.929 . S
H871 C880 0.929 . S
C872 H866 0.930 . S
C872 C873 1.367 . S
C872 C880 1.378 . S
C873 C872 1.367 . S
C873 C881 1.433 . S
C874 H870 0.929 . S
C874 C876 1.378 . S
C874 C878 1.350 . S
C875 C878 1.463 . S
C875 C880 1.350 . S
C875 N883 1.427 . S
C876 H867 0.930 . S
C876 C874 1.378 . S
C876 C877 1.367 . S
C877 C876 1.367 . S
C877 C879 1.433 . S
C878 C874 1.350 . S
C878 C875 1.463 . S
C878 N882 1.427 . S
C879 H869 0.929 . S
C879 C877 1.433 . S
C879 N882 1.384 . S
C880 H871 0.929 . S
C880 C872 1.378 . S
C880 C875 1.350 . S
C881 H868 0.929 . S
C881 C873 1.433 . S
C881 N883 1.384 . S
N882 C878 1.427 . S
N882 C879 1.384 . S
N883 C875 1.427 . S
N883 C881 1.384 . S
H884 C890 0.930 . S
H885 C894 0.930 . S
H886 C899 0.929 . S
H887 C897 0.929 . S
H888 C892 0.929 . S
H889 C898 0.929 . S
C890 H884 0.930 . S
C890 C891 1.367 . S
C890 C898 1.378 . S
C891 C890 1.367 . S
C891 C899 1.433 . S
C892 H888 0.929 . S
C892 C894 1.378 . S
C892 C896 1.350 . S
C893 C896 1.463 . S
C893 C898 1.350 . S
C893 N901 1.427 . S
C894 H885 0.930 . S
C894 C892 1.378 . S
C894 C895 1.367 . S
C895 C894 1.367 . S
C895 C897 1.433 . S
C896 C892 1.350 . S
C896 C893 1.463 . S
C896 N900 1.427 . S
C897 H887 0.929 . S
C897 C895 1.433 . S
C897 N900 1.384 . S
C898 H889 0.929 . S
C898 C890 1.378 . S
C898 C893 1.350 . S
C899 H886 0.929 . S
C899 C891 1.433 . S
C899 N901 1.384 . S
N900 C896 1.427 . S
N900 C897 1.384 . S
N901 C893 1.427 . S
N901 C899 1.384 . S
H902 C908 0.930 . S
H903 C912 0.930 . S
H904 C917 0.929 . S
H905 C915 0.929 . S
H906 C910 0.929 . S
H907 C916 0.929 . S
C908 H902 0.930 . S
C908 C909 1.367 . S
C908 C916 1.378 . S
C909 C908 1.367 . S
C909 C917 1.433 . S
C910 H906 0.929 . S
C910 C912 1.378 . S
C910 C914 1.350 . S
C911 C914 1.463 . S
C911 C916 1.350 . S
C911 N919 1.427 . S
C912 H903 0.930 . S
C912 C910 1.378 . S
C912 C913 1.367 . S
C913 C912 1.367 . S
C913 C915 1.433 . S
C914 C910 1.350 . S
C914 C911 1.463 . S
C914 N918 1.427 . S
C915 H905 0.929 . S
C915 C913 1.433 . S
C915 N918 1.384 . S
C916 H907 0.929 . S
C916 C908 1.378 . S
C916 C911 1.350 . S
C917 H904 0.929 . S
C917 C909 1.433 . S
C917 N919 1.384 . S
N918 C914 1.427 . S
N918 C915 1.384 . S
N919 C911 1.427 . S
N919 C917 1.384 . S
C495 C116 1.816 . S
C499 C226 1.812 . S
C517 C310 1.807 . S
C513 C135 1.813 . S
C535 C303 1.816 . S
C531 C78 1.811 . S
C549 C97 1.814 . S
C553 C219 1.812 . S
C571 C383 1.808 . S
C567 C40 1.814 . S
C589 C467 1.807 . S
C585 C59 1.815 . S
C603 C2 1.816 . S
C607 C460 1.813 . S
C621 C21 1.814 . S
C625 C376 1.811 . S
C643 C210 1.574 . S
C639 C25 1.739 . S
C661 C294 1.562 . S
C657 C6 1.738 . S
C679 C305 1.466 . S
C675 C63 1.741 . S
C697 C221 1.478 . S
C693 C44 1.742 . S
C715 C389 1.568 . S
C711 C101 1.736 . S
C729 C82 1.740 . S
C733 C473 1.577 . S
C751 C462 1.464 . S
C747 C139 1.739 . S
C765 C120 1.741 . S
C769 C378 1.473 . S
C787 C208 1.520 . S
C783 C11 1.451 . S
C805 C292 1.522 . S
C801 C30 1.457 . S
C819 C49 1.450 . S
C823 C299 1.491 . S
C841 C215 1.484 . S
C837 C68 1.439 . S
C859 C387 1.522 . S
C855 C87 1.392 . S
C873 C106 1.389 . S
C877 C471 1.523 . S
C891 C125 1.396 . S
C895 C478 1.484 . S
C909 C144 1.410 . S
C913 C394 1.492 . S
