# Generated by pormake.
# Topology pth, (4,4)-cn, num edge types: 1
# Building blocks:
#     Node 0, Type 0, BuildingBlock: NAHDIM_clean_sbu_0, # of connection points: 4
#     Node 1, Type 0, BuildingBlock: NAHDIM_clean_sbu_0, # of connection points: 4
#     Node 2, Type 0, BuildingBlock: NAHDIM_clean_sbu_0, # of connection points: 4
#     Node 3, Type 1, BuildingBlock: MIFKUJ_clean_linker_1, # of connection points: 4
#     Node 4, Type 1, BuildingBlock: MIFKUJ_clean_linker_1, # of connection points: 4
#     Node 5, Type 1, BuildingBlock: MIFKUJ_clean_linker_1, # of connection points: 4
#     Edge 6, Type (0, 1), BuildingBlock: AJUNOK_clean_linker_0, # of connection points: 2
#     Edge 7, Type (0, 1), BuildingBlock: AJUNOK_clean_linker_0, # of connection points: 2
#     Edge 8, Type (0, 1), BuildingBlock: AJUNOK_clean_linker_0, # of connection points: 2
#     Edge 9, Type (0, 1), BuildingBlock: AJUNOK_clean_linker_0, # of connection points: 2
#     Edge 10, Type (0, 1), BuildingBlock: AJUNOK_clean_linker_0, # of connection points: 2
#     Edge 11, Type (0, 1), BuildingBlock: AJUNOK_clean_linker_0, # of connection points: 2
#     Edge 12, Type (0, 1), BuildingBlock: AJUNOK_clean_linker_0, # of connection points: 2
#     Edge 13, Type (0, 1), BuildingBlock: AJUNOK_clean_linker_0, # of connection points: 2
#     Edge 14, Type (0, 1), BuildingBlock: AJUNOK_clean_linker_0, # of connection points: 2
#     Edge 15, Type (0, 1), BuildingBlock: AJUNOK_clean_linker_0, # of connection points: 2
#     Edge 16, Type (0, 1), BuildingBlock: AJUNOK_clean_linker_0, # of connection points: 2
#     Edge 17, Type (0, 1), BuildingBlock: AJUNOK_clean_linker_0, # of connection points: 2
# Relax obj value: 0.043
# Max RMSD: 0.165
# Mean RMSD: 0.093
data_MOF--net-pth--node1-NAHDIM_clean_sbu_0--node2-MIFKUJ_clean_linker_1--edge1-AJUNOK_clean_linker_0
_symmetry_space_group_name_H-M    P1
_symmetry_Int_Tables_number       1
_symmetry_cell_setting            triclinic
loop_
_symmetry_equiv_pos_as_xyz
'x, y, z'
_cell_length_a     23.167056
_cell_length_b     23.35357
_cell_length_c     48.908335
_cell_angle_alpha  92.006046
_cell_angle_beta   89.962145
_cell_angle_gamma 120.62885
loop_
_atom_site_label
_atom_site_type_symbol
_atom_site_fract_x
_atom_site_fract_y
_atom_site_fract_z
_atom_type_partial_charge
C0 C 0.01148 0.95307 0.07766 0.0
O1 O 0.97192 0.97565 0.08497 0.0
O2 O 0.00889 0.09021 0.05588 0.0
Zn3 Zn 0.0208 0.02649 0.03114 0.0
O4 O 0.9367 0.96646 0.00894 0.0
C5 C 0.14917 0.13214 0.01308 0.0
O6 O 0.15751 0.15095 0.03912 0.0
O7 O 0.04002 0.96865 0.05465 0.0
C8 C 0.93117 0.97638 0.98393 0.0
O9 O 0.97973 0.02954 0.97285 0.0
C10 C 0.01161 0.14266 0.04791 0.0
O11 O 0.02014 0.15574 0.02181 0.0
O12 O 0.09604 0.07888 0.0054 0.0
C13 C 0.00619 0.12256 0.31943 0.0
O14 O 0.95073 0.06403 0.31884 0.0
O15 O 0.00486 0.97622 0.33512 0.0
Zn16 Zn 0.02967 0.05608 0.36004 0.0
O17 O 0.95061 0.04129 0.38243 0.0
C18 C 0.14709 0.05352 0.37663 0.0
O19 O 0.1414 0.02998 0.35137 0.0
O20 O 0.05261 0.13325 0.33635 0.0
C21 C 0.94535 0.03112 0.40791 0.0
O22 O 0.99275 0.02699 0.4208 0.0
C23 C 0.99113 0.9205 0.34427 0.0
O24 O 0.98933 0.9139 0.37087 0.0
O25 O 0.10695 0.07228 0.38474 0.0
C26 C 0.08064 0.01358 0.64725 0.0
O27 O 0.0587 0.05215 0.63897 0.0
O28 O 0.94716 0.02958 0.6692 0.0
Zn29 Zn 0.00375 0.009 0.69376 0.0
O30 O 0.06621 0.08789 0.71838 0.0
C31 C 0.92069 0.93999 0.73951 0.0
O32 O 0.94507 0.00102 0.74962 0.0
O33 O 0.06196 0.98678 0.67025 0.0
C34 C 0.09438 0.07803 0.73851 0.0
O35 O 0.08145 0.01737 0.74267 0.0
C36 C 0.89927 0.03596 0.67829 0.0
O37 O 0.88909 0.03344 0.70473 0.0
O38 O 0.9401 0.93097 0.71625 0.0
H39 H 0.11229 0.50481 0.14246 0.0
H40 H 0.10907 0.41927 0.11093 0.0
H41 H 0.92094 0.27249 0.14473 0.0
H42 H 0.92421 0.35792 0.17616 0.0
H43 H 0.03014 0.55136 0.1466 0.0
H44 H 0.10656 0.44691 0.20714 0.0
H45 H 0.10844 0.35871 0.23218 0.0
H46 H 0.91883 0.30824 0.26819 0.0
H47 H 0.91628 0.39521 0.24268 0.0
H48 H 0.90584 0.55997 0.24735 0.0
H49 H 0.89639 0.63843 0.27892 0.0
H50 H 0.08513 0.79819 0.25094 0.0
H51 H 0.0948 0.7196 0.21953 0.0
H52 H -0.00153 0.52484 0.24661 0.0
H53 H 0.92125 0.62701 0.18277 0.0
H54 H 0.9234 0.71761 0.15826 0.0
H55 H 0.12221 0.7773 0.12993 0.0
H56 H 0.11929 0.68576 0.15412 0.0
C57 C 0.01904 0.43759 0.16196 0.0
C58 C 0.07052 0.45415 0.14316 0.0
C59 C 0.06858 0.40539 0.12515 0.0
C60 C 0.01512 0.33924 0.12563 0.0
C61 C 0.96346 0.3228 0.14435 0.0
C62 C 0.96534 0.37156 0.16231 0.0
C63 C 0.01956 0.48983 0.18028 0.0
C64 C 0.02434 0.54606 0.16855 0.0
C65 C 0.01102 0.48257 0.20883 0.0
C66 C 0.01109 0.42742 0.22295 0.0
C67 C 0.06503 0.41633 0.22018 0.0
C68 C 0.06646 0.36652 0.2347 0.0
C69 C 0.0141 0.32723 0.25229 0.0
C70 C 0.95975 0.33778 0.2547 0.0
C71 C 0.9584 0.38757 0.24026 0.0
C72 C 0.00082 0.63396 0.23096 0.0
C73 C 0.9452 0.61191 0.248 0.0
C74 C 0.93991 0.6566 0.26606 0.0
C75 C 0.99031 0.72412 0.26747 0.0
C76 C 0.04544 0.74639 0.25011 0.0
C77 C 0.05089 0.70162 0.23214 0.0
C78 C 0.00749 0.58543 0.21286 0.0
C79 C 0.00446 0.53012 0.22467 0.0
C80 C 0.01829 0.59387 0.18444 0.0
C81 C 0.0204 0.65015 0.17048 0.0
C82 C 0.9656 0.66012 0.17156 0.0
C83 C 0.96704 0.71206 0.15766 0.0
C84 C 0.02342 0.7551 0.14251 0.0
C85 C 0.07815 0.74488 0.14143 0.0
C86 C 0.07656 0.69276 0.15525 0.0
H87 H 0.66196 0.12902 0.48097 0.0
H88 H 0.75165 0.12695 0.4553 0.0
H89 H 0.70205 0.94122 0.49101 0.0
H90 H 0.61201 0.94308 0.51658 0.0
H91 H 0.53316 0.0486 0.47738 0.0
H92 H 0.69626 0.1203 0.54811 0.0
H93 H 0.77923 0.12515 0.58061 0.0
H94 H 0.62784 0.93984 0.61347 0.0
H95 H 0.54517 0.93431 0.58071 0.0
H96 H 0.36149 0.91569 0.56588 0.0
H97 H 0.26562 0.90655 0.59083 0.0
H98 H 0.32188 0.10551 0.56847 0.0
H99 H 0.41658 0.11364 0.543 0.0
H100 H 0.49621 0.01055 0.57658 0.0
H101 H 0.33868 0.93798 0.49857 0.0
H102 H 0.2603 0.94332 0.46644 0.0
H103 H 0.40891 0.14676 0.4505 0.0
H104 H 0.48747 0.14117 0.48247 0.0
C105 C 0.63034 0.03636 0.50079 0.0
C106 C 0.67038 0.08787 0.48332 0.0
C107 C 0.72139 0.08654 0.4686 0.0
C108 C 0.73307 0.03347 0.47095 0.0
C109 C 0.69409 0.98273 0.4889 0.0
C110 C 0.64286 0.98392 0.50356 0.0
C111 C 0.5732 0.03556 0.51493 0.0
C112 C 0.52583 0.04129 0.49918 0.0
C113 C 0.56305 0.02553 0.54332 0.0
C114 C 0.61446 0.02668 0.56183 0.0
C115 C 0.6811 0.08009 0.56198 0.0
C116 C 0.72838 0.08308 0.58061 0.0
C117 C 0.70953 0.03332 0.59969 0.0
C118 C 0.64323 0.97943 0.59926 0.0
C119 C 0.59612 0.97617 0.58052 0.0
C120 C 0.39592 0.01523 0.55254 0.0
C121 C 0.35282 0.95713 0.56625 0.0
C122 C 0.29843 0.95217 0.58064 0.0
C123 C 0.28684 0.00571 0.58194 0.0
C124 C 0.32936 0.06333 0.56772 0.0
C125 C 0.38345 0.06806 0.55317 0.0
C126 C 0.45601 0.02188 0.5389 0.0
C127 C 0.50399 0.01774 0.5548 0.0
C128 C 0.4676 0.03488 0.51084 0.0
C129 C 0.41872 0.03923 0.49287 0.0
C130 C 0.35412 0.98388 0.48834 0.0
C131 C 0.30965 0.98684 0.46995 0.0
C132 C 0.32903 0.04534 0.456 0.0
C133 C 0.393 0.10123 0.46109 0.0
C134 C 0.43777 0.09799 0.47921 0.0
H135 H 0.46609 0.39 0.81066 0.0
H136 H 0.37576 0.29642 0.78401 0.0
H137 H 0.2287 0.31301 0.83222 0.0
H138 H 0.3188 0.40894 0.85807 0.0
H139 H 0.50265 0.51115 0.81402 0.0
H140 H 0.42874 0.34484 0.88075 0.0
H141 H 0.35514 0.25854 0.91194 0.0
H142 H 0.30825 0.39704 0.95214 0.0
H143 H 0.3814 0.48303 0.92088 0.0
H144 H 0.54273 0.66709 0.91365 0.0
H145 H 0.63129 0.76658 0.93837 0.0
H146 H 0.78132 0.73611 0.89944 0.0
H147 H 0.69296 0.63609 0.87523 0.0
H148 H 0.51058 0.53937 0.91515 0.0
H149 H 0.58637 0.70403 0.84438 0.0
H150 H 0.6748 0.79009 0.81712 0.0
H151 H 0.73014 0.64838 0.78761 0.0
H152 H 0.64084 0.56229 0.81446 0.0
C153 C 0.3995 0.40633 0.83663 0.0
C154 C 0.41449 0.37383 0.81551 0.0
C155 C 0.36308 0.3204 0.80034 0.0
C156 C 0.29583 0.29792 0.80628 0.0
C157 C 0.28045 0.32948 0.82755 0.0
C158 C 0.3319 0.38383 0.8424 0.0
C159 C 0.45458 0.46574 0.85153 0.0
C160 C 0.50455 0.51661 0.83617 0.0
C161 C 0.4572 0.47381 0.88044 0.0
C162 C 0.41008 0.42025 0.8983 0.0
C163 C 0.40179 0.35632 0.89599 0.0
C164 C 0.35984 0.3071 0.9138 0.0
C165 C 0.32591 0.3212 0.93433 0.0
C166 C 0.33417 0.38508 0.93657 0.0
C167 C 0.3758 0.43411 0.91872 0.0
C168 C 0.61125 0.64473 0.89227 0.0
C169 C 0.5947 0.68188 0.91043 0.0
C170 C 0.64513 0.73863 0.92446 0.0
C171 C 0.7129 0.75934 0.92041 0.0
C172 C 0.72943 0.72195 0.90239 0.0
C173 C 0.67902 0.66487 0.88859 0.0
C174 C 0.55747 0.58423 0.87761 0.0
C175 C 0.50802 0.5334 0.89301 0.0
C176 C 0.55599 0.57544 0.84882 0.0
C177 C 0.60724 0.62691 0.83145 0.0
C178 C 0.61735 0.69151 0.83191 0.0
C179 C 0.66793 0.74057 0.81642 0.0
C180 C 0.70905 0.72579 0.80011 0.0
C181 C 0.69836 0.66087 0.79952 0.0
C182 C 0.64758 0.61175 0.81491 0.0
C183 C 0.0199 0.25199 0.05942 0.0
C184 C 0.00984 0.19074 0.0681 0.0
C185 C 0.02156 0.29966 0.07815 0.0
C186 C 0.01278 0.2878 0.10625 0.0
H187 H 0.02723 0.26372 0.03801 0.0
H188 H 0.02938 0.34606 0.07053 0.0
S189 S 0.98569 0.13636 0.13987 0.0
N190 N 0.99113 0.12123 0.10704 0.0
N191 N 0.99472 0.2112 0.14206 0.0
C192 C 0.00234 0.22685 0.11527 0.0
C193 C 0.00079 0.17828 0.09626 0.0
C194 C 0.88506 0.02051 0.45175 0.0
C195 C 0.88871 0.02854 0.42326 0.0
C196 C 0.83414 0.02129 0.46699 0.0
C197 C 0.78519 0.03058 0.45437 0.0
H198 H 0.92226 0.01435 0.46252 0.0
H199 H 0.83385 0.01592 0.48892 0.0
S200 S 0.76859 0.04897 0.38025 0.0
N201 N 0.83619 0.04274 0.38291 0.0
N202 N 0.74078 0.04401 0.41167 0.0
C203 C 0.78716 0.03715 0.42589 0.0
C204 C 0.83875 0.0361 0.41031 0.0
C205 C 0.8587 0.89251 0.78243 0.0
C206 C 0.86854 0.88322 0.75459 0.0
C207 C 0.80749 0.8412 0.79699 0.0
C208 C 0.76385 0.7786 0.78427 0.0
H209 H 0.89072 0.93992 0.79314 0.0
H210 H 0.80212 0.85062 0.81842 0.0
S211 S 0.76647 0.72895 0.71159 0.0
N212 N 0.82966 0.8065 0.71478 0.0
N213 N 0.73267 0.71044 0.7421 0.0
C214 C 0.77317 0.76838 0.7565 0.0
C215 C 0.82564 0.82056 0.74167 0.0
C216 C 0.04024 0.86443 0.08373 0.0
C217 C 0.01861 0.90634 0.09512 0.0
C218 C 0.04273 0.81648 0.09933 0.0
C219 C 0.02404 0.80885 0.12694 0.0
H220 H 0.05361 0.86733 0.06239 0.0
H221 H 0.05773 0.78396 0.08947 0.0
S222 S 0.97162 0.91141 0.16741 0.0
N223 N 0.98304 0.94039 0.13634 0.0
N224 N 0.98884 0.85094 0.16568 0.0
C225 C 0.00477 0.85205 0.13887 0.0
C226 C 0.00185 0.90064 0.12297 0.0
C227 C 0.21927 0.09665 0.41913 0.0
C228 C 0.19522 0.05225 0.39613 0.0
C229 C 0.26327 0.09475 0.4383 0.0
C230 C 0.28341 0.04739 0.43542 0.0
H231 H 0.20424 0.13334 0.42229 0.0
H232 H 0.28086 0.12985 0.45571 0.0
S233 S 0.23443 0.91961 0.37921 0.0
N234 N 0.19509 0.95954 0.37168 0.0
N235 N 0.27685 0.95557 0.40796 0.0
C236 C 0.25972 0.0027 0.41263 0.0
C237 C 0.2159 0.00526 0.3929 0.0
C238 C 0.18491 0.19687 0.74558 0.0
C239 C 0.14277 0.13424 0.75653 0.0
C240 C 0.23428 0.24981 0.76189 0.0
C241 C 0.24192 0.24223 0.78979 0.0
H242 H 0.18099 0.20449 0.72409 0.0
H243 H 0.26685 0.29696 0.75265 0.0
S244 S 0.14182 0.09004 0.82874 0.0
N245 N 0.11062 0.0684 0.79721 0.0
N246 N 0.20239 0.16883 0.82798 0.0
C247 C 0.199 0.18068 0.80119 0.0
C248 C 0.14966 0.12636 0.7845 0.0
C249 C 0.86583 0.04598 0.63078 0.0
C250 C 0.85218 0.04004 0.65897 0.0
C251 C 0.8201 0.04517 0.61178 0.0
C252 C 0.75876 0.03774 0.62021 0.0
H253 H 0.91181 0.05038 0.6232 0.0
H254 H 0.83209 0.04871 0.59026 0.0
S255 S 0.7003 0.02509 0.69151 0.0
N256 N 0.77371 0.02999 0.69434 0.0
N257 N 0.68808 0.02832 0.65849 0.0
C258 C 0.74507 0.03351 0.64828 0.0
C259 C 0.79173 0.03481 0.66769 0.0
C260 C 0.8175 0.87375 0.97991 0.0
C261 C 0.87353 0.92513 0.96706 0.0
C262 C 0.76475 0.82143 0.96461 0.0
C263 C 0.76637 0.81811 0.93591 0.0
H264 H 0.81473 0.87324 0.00202 0.0
H265 H 0.72339 0.78214 0.97537 0.0
S266 S 0.89863 0.94165 0.89203 0.0
N267 N 0.9253 0.97078 0.9236 0.0
N268 N 0.82603 0.87196 0.89502 0.0
C269 C 0.82084 0.86987 0.9227 0.0
C270 C 0.87438 0.92357 0.93822 0.0
C271 C 0.99366 0.87825 0.29681 0.0
C272 C 0.98552 0.86711 0.32507 0.0
C273 C 0.9943 0.83143 0.27832 0.0
C274 C 0.98624 0.77135 0.28728 0.0
H275 H 0.00089 0.92411 0.28885 0.0
H276 H 0.00144 0.84246 0.25682 0.0
S277 S 0.96253 0.71695 0.35881 0.0
N278 N 0.96828 0.7904 0.36094 0.0
N279 N 0.96966 0.70265 0.32605 0.0
C280 C 0.97675 0.75873 0.3153 0.0
C281 C 0.97635 0.80652 0.33422 0.0
C282 C 0.13975 0.02495 0.60325 0.0
C283 C 0.12996 0.00576 0.63062 0.0
C284 C 0.18945 0.02328 0.58751 0.0
C285 C 0.23158 0.00255 0.59852 0.0
H286 H 0.10923 0.04215 0.59389 0.0
H287 H 0.19526 0.03885 0.56659 0.0
S288 S 0.22761 0.94808 0.66924 0.0
N289 N 0.16656 0.96489 0.66802 0.0
N290 N 0.2608 0.96299 0.63857 0.0
C291 C 0.2218 0.98225 0.62573 0.0
C292 C 0.17084 0.98356 0.64174 0.0
C293 C 0.25007 0.24004 0.00113 0.0
C294 C 0.19682 0.1767 0.99258 0.0
C295 C 0.2921 0.28591 0.98216 0.0
C296 C 0.28293 0.27017 0.95391 0.0
H297 H 0.25866 0.25517 0.02263 0.0
H298 H 0.33187 0.33438 0.98968 0.0
S299 S 0.15255 0.11096 0.92058 0.0
N300 N 0.13864 0.10018 0.95364 0.0
N301 N 0.21773 0.1869 0.91813 0.0
C302 C 0.23119 0.20663 0.945 0.0
C303 C 0.18811 0.15981 0.96429 0.0
C304 C 0.95753 0.16166 0.28419 0.0
C305 C 0.012 0.17521 0.30151 0.0
C306 C 0.95925 0.21076 0.26803 0.0
C307 C 0.01563 0.27534 0.26836 0.0
H308 H 0.9125 0.1129 0.28331 0.0
H309 H 0.91586 0.19813 0.25524 0.0
S310 S 0.17195 0.33703 0.30963 0.0
N311 N 0.12471 0.25831 0.31756 0.0
N312 N 0.12751 0.35064 0.28717 0.0
C313 C 0.07102 0.28953 0.2851 0.0
C314 C 0.06928 0.23951 0.30169 0.0
loop_
_geom_bond_atom_site_label_1
_geom_bond_atom_site_label_2
_geom_bond_distance
_geom_bond_site_symmetry_2
_ccdc_geom_bond_type
C0 O1 1.160 . S
C0 O7 1.185 . S
O1 C0 1.160 . S
O2 Zn3 1.899 . S
O2 C10 1.284 1_455 S
Zn3 O2 1.899 . S
Zn3 O4 2.032 1_445 S
Zn3 O7 2.086 1_545 S
Zn3 O12 1.977 . S
O4 Zn3 2.032 1_665 S
O4 C8 1.278 1_554 S
C5 O6 1.199 1_556 S
C5 O12 1.267 1_556 S
O6 C5 1.199 1_554 S
O7 C0 1.185 . S
O7 Zn3 2.086 1_565 S
C8 O4 1.278 1_556 S
C8 O9 1.211 1_565 S
O9 C8 1.211 1_545 S
C10 O2 1.284 1_655 S
C10 O11 1.273 . S
O11 C10 1.273 . S
O12 Zn3 1.977 . S
O12 C5 1.267 1_554 S
C13 O14 1.160 . S
C13 O20 1.185 . S
O14 C13 1.160 . S
O15 Zn16 1.889 1_565 S
O15 C23 1.294 . S
Zn16 O15 1.889 1_545 S
Zn16 O17 2.032 1_455 S
Zn16 O20 2.086 . S
Zn16 O25 1.977 . S
O17 Zn16 2.032 1_655 S
O17 C21 1.278 . S
C18 O19 1.203 1_545 S
C18 O25 1.267 . S
O19 C18 1.203 1_565 S
O20 C13 1.185 . S
O20 Zn16 2.086 . S
C21 O17 1.278 . S
C21 O22 1.211 1_545 S
O22 C21 1.211 1_565 S
C23 O15 1.294 . S
C23 O24 1.273 1_455 S
O24 C23 1.273 1_655 S
O25 Zn16 1.977 . S
O25 C18 1.267 . S
C26 O27 1.160 1_565 S
C26 O33 1.185 . S
O27 C26 1.160 1_545 S
O28 Zn29 1.899 1_655 S
O28 C36 1.284 . S
Zn29 O28 1.899 1_455 S
Zn29 O30 2.032 . S
Zn29 O33 2.086 1_545 S
Zn29 O38 1.977 1_445 S
O30 Zn29 2.032 . S
O30 C34 1.278 . S
C31 O32 1.203 . S
C31 O38 1.267 . S
O32 C31 1.203 . S
O33 C26 1.185 . S
O33 Zn29 2.086 1_565 S
C34 O30 1.278 . S
C34 O35 1.211 . S
O35 C34 1.211 . S
C36 O28 1.284 . S
C36 O37 1.273 . S
O37 C36 1.273 . S
O38 Zn29 1.977 1_665 S
O38 C31 1.267 . S
H39 C58 0.949 . S
H40 C59 0.950 . S
H41 C61 0.950 . S
H42 C62 0.950 . S
H43 C64 0.950 . S
H44 C67 0.950 . S
H45 C68 0.950 . S
H46 C70 0.951 . S
H47 C71 0.949 . S
H48 C73 0.949 . S
H49 C74 0.950 . S
H50 C76 0.950 . S
H51 C77 0.950 . S
H52 C79 0.950 . S
H53 C82 0.950 . S
H54 C83 0.950 . S
H55 C85 0.951 . S
H56 C86 0.949 . S
C57 C58 1.376 . S
C57 C62 1.386 1_455 S
C57 C63 1.483 . S
C58 H39 0.949 . S
C58 C57 1.376 . S
C58 C59 1.397 . S
C59 H40 0.950 . S
C59 C58 1.397 . S
C59 C60 1.391 . S
C60 C59 1.391 . S
C60 C61 1.405 1_455 S
C61 H41 0.950 . S
C61 C60 1.405 1_655 S
C61 C62 1.367 . S
C62 H42 0.950 . S
C62 C57 1.386 1_655 S
C62 C61 1.367 . S
C63 C57 1.483 . S
C63 C64 1.382 . S
C63 C65 1.403 . S
C64 H43 0.950 . S
C64 C63 1.382 . S
C64 C80 1.411 . S
C65 C63 1.403 . S
C65 C66 1.489 . S
C65 C79 1.411 1_455 S
C66 C65 1.489 . S
C66 C67 1.383 . S
C66 C71 1.382 1_455 S
C67 H44 0.950 . S
C67 C66 1.383 . S
C67 C68 1.395 . S
C68 H45 0.950 . S
C68 C67 1.395 . S
C68 C69 1.288 . S
C69 C68 1.288 . S
C69 C70 1.392 1_455 S
C70 H46 0.951 . S
C70 C69 1.392 1_655 S
C70 C71 1.392 . S
C71 H47 0.949 . S
C71 C66 1.382 1_655 S
C71 C70 1.392 . S
C72 C73 1.376 1_455 S
C72 C77 1.386 . S
C72 C78 1.483 . S
C73 H48 0.949 . S
C73 C72 1.376 1_655 S
C73 C74 1.397 . S
C74 H49 0.950 . S
C74 C73 1.397 . S
C74 C75 1.391 1_655 S
C75 C74 1.391 1_455 S
C75 C76 1.405 . S
C76 H50 0.950 . S
C76 C75 1.405 . S
C76 C77 1.367 . S
C77 H51 0.950 . S
C77 C72 1.386 . S
C77 C76 1.367 . S
C78 C72 1.483 . S
C78 C79 1.382 1_455 S
C78 C80 1.403 . S
C79 H52 0.950 . S
C79 C65 1.411 1_655 S
C79 C78 1.382 1_655 S
C80 C64 1.411 . S
C80 C78 1.403 . S
C80 C81 1.489 . S
C81 C80 1.489 . S
C81 C82 1.383 1_455 S
C81 C86 1.382 . S
C82 H53 0.950 . S
C82 C81 1.383 1_655 S
C82 C83 1.395 . S
C83 H54 0.950 . S
C83 C82 1.395 . S
C83 C84 1.288 1_655 S
C84 C83 1.288 1_455 S
C84 C85 1.392 . S
C85 H55 0.951 . S
C85 C84 1.392 . S
C85 C86 1.392 . S
C86 H56 0.949 . S
C86 C81 1.382 . S
C86 C85 1.392 . S
H87 C106 0.949 . S
H88 C107 0.950 . S
H89 C109 0.950 . S
H90 C110 0.950 . S
H91 C112 0.950 . S
H92 C115 0.950 . S
H93 C116 0.950 . S
H94 C118 0.951 . S
H95 C119 0.949 . S
H96 C121 0.949 . S
H97 C122 0.950 . S
H98 C124 0.950 . S
H99 C125 0.950 . S
H100 C127 0.950 . S
H101 C130 0.950 . S
H102 C131 0.950 . S
H103 C133 0.951 . S
H104 C134 0.949 . S
C105 C106 1.376 . S
C105 C110 1.386 1_545 S
C105 C111 1.483 . S
C106 H87 0.949 . S
C106 C105 1.376 . S
C106 C107 1.397 . S
C107 H88 0.950 . S
C107 C106 1.397 . S
C107 C108 1.391 . S
C108 C107 1.391 . S
C108 C109 1.405 1_545 S
C109 H89 0.950 . S
C109 C108 1.405 1_565 S
C109 C110 1.367 . S
C110 H90 0.950 . S
C110 C105 1.386 1_565 S
C110 C109 1.367 . S
C111 C105 1.483 . S
C111 C112 1.382 . S
C111 C113 1.403 . S
C112 H91 0.950 . S
C112 C111 1.382 . S
C112 C128 1.411 . S
C113 C111 1.403 . S
C113 C114 1.489 . S
C113 C127 1.411 . S
C114 C113 1.489 . S
C114 C115 1.383 . S
C114 C119 1.382 1_545 S
C115 H92 0.950 . S
C115 C114 1.383 . S
C115 C116 1.395 . S
C116 H93 0.950 . S
C116 C115 1.395 . S
C116 C117 1.288 . S
C117 C116 1.288 . S
C117 C118 1.392 1_545 S
C118 H94 0.951 . S
C118 C117 1.392 1_565 S
C118 C119 1.392 . S
C119 H95 0.949 . S
C119 C114 1.382 1_565 S
C119 C118 1.392 . S
C120 C121 1.376 1_545 S
C120 C125 1.386 . S
C120 C126 1.483 . S
C121 H96 0.949 . S
C121 C120 1.376 1_565 S
C121 C122 1.397 . S
C122 H97 0.950 . S
C122 C121 1.397 . S
C122 C123 1.391 1_565 S
C123 C122 1.391 1_545 S
C123 C124 1.405 . S
C124 H98 0.950 . S
C124 C123 1.405 . S
C124 C125 1.367 . S
C125 H99 0.950 . S
C125 C120 1.386 . S
C125 C124 1.367 . S
C126 C120 1.483 . S
C126 C127 1.382 . S
C126 C128 1.403 . S
C127 H100 0.950 . S
C127 C113 1.411 . S
C127 C126 1.382 . S
C128 C112 1.411 . S
C128 C126 1.403 . S
C128 C129 1.489 . S
C129 C128 1.489 . S
C129 C130 1.383 1_545 S
C129 C134 1.382 . S
C130 H101 0.950 . S
C130 C129 1.383 1_565 S
C130 C131 1.395 . S
C131 H102 0.950 . S
C131 C130 1.395 . S
C131 C132 1.288 1_565 S
C132 C131 1.288 1_545 S
C132 C133 1.392 . S
C133 H103 0.951 . S
C133 C132 1.392 . S
C133 C134 1.392 . S
C134 H104 0.949 . S
C134 C129 1.382 . S
C134 C133 1.392 . S
H135 C154 0.949 . S
H136 C155 0.950 . S
H137 C157 0.950 . S
H138 C158 0.950 . S
H139 C160 0.950 . S
H140 C163 0.950 . S
H141 C164 0.950 . S
H142 C166 0.951 . S
H143 C167 0.949 . S
H144 C169 0.949 . S
H145 C170 0.950 . S
H146 C172 0.950 . S
H147 C173 0.950 . S
H148 C175 0.950 . S
H149 C178 0.950 . S
H150 C179 0.950 . S
H151 C181 0.951 . S
H152 C182 0.949 . S
C153 C154 1.376 . S
C153 C158 1.386 . S
C153 C159 1.483 . S
C154 H135 0.949 . S
C154 C153 1.376 . S
C154 C155 1.397 . S
C155 H136 0.950 . S
C155 C154 1.397 . S
C155 C156 1.391 . S
C156 C155 1.391 . S
C156 C157 1.405 . S
C157 H137 0.950 . S
C157 C156 1.405 . S
C157 C158 1.367 . S
C158 H138 0.950 . S
C158 C153 1.386 . S
C158 C157 1.367 . S
C159 C153 1.483 . S
C159 C160 1.382 . S
C159 C161 1.403 . S
C160 H139 0.950 . S
C160 C159 1.382 . S
C160 C176 1.411 . S
C161 C159 1.403 . S
C161 C162 1.489 . S
C161 C175 1.411 . S
C162 C161 1.489 . S
C162 C163 1.383 . S
C162 C167 1.382 . S
C163 H140 0.950 . S
C163 C162 1.383 . S
C163 C164 1.395 . S
C164 H141 0.950 . S
C164 C163 1.395 . S
C164 C165 1.288 . S
C165 C164 1.288 . S
C165 C166 1.392 . S
C166 H142 0.951 . S
C166 C165 1.392 . S
C166 C167 1.392 . S
C167 H143 0.949 . S
C167 C162 1.382 . S
C167 C166 1.392 . S
C168 C169 1.376 . S
C168 C173 1.386 . S
C168 C174 1.483 . S
C169 H144 0.949 . S
C169 C168 1.376 . S
C169 C170 1.397 . S
C170 H145 0.950 . S
C170 C169 1.397 . S
C170 C171 1.391 . S
C171 C170 1.391 . S
C171 C172 1.405 . S
C172 H146 0.950 . S
C172 C171 1.405 . S
C172 C173 1.367 . S
C173 H147 0.950 . S
C173 C168 1.386 . S
C173 C172 1.367 . S
C174 C168 1.483 . S
C174 C175 1.382 . S
C174 C176 1.403 . S
C175 H148 0.950 . S
C175 C161 1.411 . S
C175 C174 1.382 . S
C176 C160 1.411 . S
C176 C174 1.403 . S
C176 C177 1.489 . S
C177 C176 1.489 . S
C177 C178 1.383 . S
C177 C182 1.382 . S
C178 H149 0.950 . S
C178 C177 1.383 . S
C178 C179 1.395 . S
C179 H150 0.950 . S
C179 C178 1.395 . S
C179 C180 1.288 . S
C180 C179 1.288 . S
C180 C181 1.392 . S
C181 H151 0.951 . S
C181 C180 1.392 . S
C181 C182 1.392 . S
C182 H152 0.949 . S
C182 C177 1.382 . S
C182 C181 1.392 . S
C183 C184 1.369 . S
C183 C185 1.419 . S
C183 H187 0.930 . S
C184 C183 1.369 . S
C184 C193 1.429 1_655 S
C185 C183 1.419 . S
C185 C186 1.363 1_655 S
C185 H188 0.929 . S
C186 C185 1.363 1_455 S
C186 C192 1.428 . S
H187 C183 0.930 . S
H188 C185 0.929 . S
S189 N190 1.613 . S
S189 N191 1.610 . S
N190 S189 1.613 . S
N190 C193 1.350 . S
N191 S189 1.610 . S
N191 C192 1.351 . S
C192 C186 1.428 . S
C192 N191 1.351 . S
C192 C193 1.434 . S
C193 C184 1.429 1_455 S
C193 N190 1.350 . S
C193 C192 1.434 . S
C194 C195 1.369 . S
C194 C196 1.419 . S
C194 H198 0.930 . S
C195 C194 1.369 . S
C195 C204 1.429 . S
C196 C194 1.419 . S
C196 C197 1.363 . S
C196 H199 0.929 . S
C197 C196 1.363 . S
C197 C203 1.428 . S
H198 C194 0.930 . S
H199 C196 0.929 . S
S200 N201 1.613 . S
S200 N202 1.610 1_565 S
N201 S200 1.613 . S
N201 C204 1.350 1_565 S
N202 S200 1.610 1_545 S
N202 C203 1.351 . S
C203 C197 1.428 . S
C203 N202 1.351 . S
C203 C204 1.434 . S
C204 C195 1.429 . S
C204 N201 1.350 1_545 S
C204 C203 1.434 . S
C205 C206 1.369 . S
C205 C207 1.419 . S
C205 H209 0.930 . S
C206 C205 1.369 . S
C206 C215 1.429 . S
C207 C205 1.419 . S
C207 C208 1.363 . S
C207 H210 0.929 . S
C208 C207 1.363 . S
C208 C214 1.428 . S
H209 C205 0.930 . S
H210 C207 0.929 . S
S211 N212 1.613 . S
S211 N213 1.610 . S
N212 S211 1.613 . S
N212 C215 1.350 . S
N213 S211 1.610 . S
N213 C214 1.351 . S
C214 C208 1.428 . S
C214 N213 1.351 . S
C214 C215 1.434 . S
C215 C206 1.429 . S
C215 N212 1.350 . S
C215 C214 1.434 . S
C216 C217 1.369 . S
C216 C218 1.419 . S
C216 H220 0.930 . S
C217 C216 1.369 . S
C217 C226 1.429 1_455 S
C218 C216 1.419 . S
C218 C219 1.363 . S
C218 H221 0.929 . S
C219 C218 1.363 . S
C219 C225 1.428 1_455 S
H220 C216 0.930 . S
H221 C218 0.929 . S
S222 N223 1.613 . S
S222 N224 1.610 . S
N223 S222 1.613 . S
N223 C226 1.350 . S
N224 S222 1.610 . S
N224 C225 1.351 . S
C225 C219 1.428 1_655 S
C225 N224 1.351 . S
C225 C226 1.434 . S
C226 C217 1.429 1_655 S
C226 N223 1.350 . S
C226 C225 1.434 . S
C227 C228 1.369 . S
C227 C229 1.419 . S
C227 H231 0.930 . S
C228 C227 1.369 . S
C228 C237 1.429 . S
C229 C227 1.419 . S
C229 C230 1.363 . S
C229 H232 0.929 . S
C230 C229 1.363 . S
C230 C236 1.428 . S
H231 C227 0.930 . S
H232 C229 0.929 . S
S233 N234 1.613 1_565 S
S233 N235 1.610 . S
N234 S233 1.613 1_545 S
N234 C237 1.350 . S
N235 S233 1.610 . S
N235 C236 1.351 1_565 S
C236 C230 1.428 . S
C236 N235 1.351 1_545 S
C236 C237 1.434 . S
C237 C228 1.429 . S
C237 N234 1.350 . S
C237 C236 1.434 . S
C238 C239 1.369 . S
C238 C240 1.419 . S
C238 H242 0.930 . S
C239 C238 1.369 . S
C239 C248 1.429 . S
C240 C238 1.419 . S
C240 C241 1.363 . S
C240 H243 0.929 . S
C241 C240 1.363 . S
C241 C247 1.428 . S
H242 C238 0.930 . S
H243 C240 0.929 . S
S244 N245 1.613 . S
S244 N246 1.610 . S
N245 S244 1.613 . S
N245 C248 1.350 . S
N246 S244 1.610 . S
N246 C247 1.351 . S
C247 C241 1.428 . S
C247 N246 1.351 . S
C247 C248 1.434 . S
C248 C239 1.429 . S
C248 N245 1.350 . S
C248 C247 1.434 . S
C249 C250 1.369 . S
C249 C251 1.419 . S
C249 H253 0.930 . S
C250 C249 1.369 . S
C250 C259 1.429 . S
C251 C249 1.419 . S
C251 C252 1.363 . S
C251 H254 0.929 . S
C252 C251 1.363 . S
C252 C258 1.428 . S
H253 C249 0.930 . S
H254 C251 0.929 . S
S255 N256 1.613 1_565 S
S255 N257 1.610 . S
N256 S255 1.613 1_545 S
N256 C259 1.350 . S
N257 S255 1.610 . S
N257 C258 1.351 1_565 S
C258 C252 1.428 . S
C258 N257 1.351 1_545 S
C258 C259 1.434 . S
C259 C250 1.429 . S
C259 N256 1.350 . S
C259 C258 1.434 . S
C260 C261 1.369 . S
C260 C262 1.419 . S
C260 H264 0.930 1_556 S
C261 C260 1.369 . S
C261 C270 1.429 . S
C262 C260 1.419 . S
C262 C263 1.363 . S
C262 H265 0.929 . S
C263 C262 1.363 . S
C263 C269 1.428 . S
H264 C260 0.930 1_554 S
H265 C262 0.929 . S
S266 N267 1.613 . S
S266 N268 1.610 . S
N267 S266 1.613 . S
N267 C270 1.350 . S
N268 S266 1.610 . S
N268 C269 1.351 . S
C269 C263 1.428 . S
C269 N268 1.351 . S
C269 C270 1.434 . S
C270 C261 1.429 . S
C270 N267 1.350 . S
C270 C269 1.434 . S
C271 C272 1.369 . S
C271 C273 1.419 . S
C271 H275 0.930 . S
C272 C271 1.369 . S
C272 C281 1.429 1_455 S
C273 C271 1.419 . S
C273 C274 1.363 . S
C273 H276 0.929 . S
C274 C273 1.363 . S
C274 C280 1.428 1_455 S
H275 C271 0.930 . S
H276 C273 0.929 . S
S277 N278 1.613 . S
S277 N279 1.610 . S
N278 S277 1.613 . S
N278 C281 1.350 . S
N279 S277 1.610 . S
N279 C280 1.351 . S
C280 C274 1.428 1_655 S
C280 N279 1.351 . S
C280 C281 1.434 . S
C281 C272 1.429 1_655 S
C281 N278 1.350 . S
C281 C280 1.434 . S
C282 C283 1.369 . S
C282 C284 1.419 . S
C282 H286 0.930 . S
C283 C282 1.369 . S
C283 C292 1.429 1_565 S
C284 C282 1.419 . S
C284 C285 1.363 1_565 S
C284 H287 0.929 . S
C285 C284 1.363 1_545 S
C285 C291 1.428 . S
H286 C282 0.930 . S
H287 C284 0.929 . S
S288 N289 1.613 . S
S288 N290 1.610 . S
N289 S288 1.613 . S
N289 C292 1.350 . S
N290 S288 1.610 . S
N290 C291 1.351 . S
C291 C285 1.428 . S
C291 N290 1.351 . S
C291 C292 1.434 . S
C292 C283 1.429 1_545 S
C292 N289 1.350 . S
C292 C291 1.434 . S
C293 C294 1.369 . S
C293 C295 1.419 . S
C293 H297 0.961 . S
C294 C293 1.369 . S
C294 C303 1.429 . S
C295 C293 1.419 . S
C295 C296 1.363 . S
C295 H298 0.929 . S
C296 C295 1.363 . S
C296 C302 1.428 . S
H297 C293 0.961 . S
H298 C295 0.929 . S
S299 N300 1.613 . S
S299 N301 1.610 . S
N300 S299 1.613 . S
N300 C303 1.350 . S
N301 S299 1.610 . S
N301 C302 1.351 . S
C302 C296 1.428 . S
C302 N301 1.351 . S
C302 C303 1.434 . S
C303 C294 1.429 . S
C303 N300 1.350 . S
C303 C302 1.434 . S
C304 C305 1.369 1_655 S
C304 C306 1.419 . S
C304 H308 0.930 . S
C305 C304 1.369 1_455 S
C305 C314 1.429 . S
C306 C304 1.419 . S
C306 C307 1.363 1_655 S
C306 H309 0.929 . S
C307 C306 1.363 1_455 S
C307 C313 1.428 . S
H308 C304 0.930 . S
H309 C306 0.929 . S
S310 N311 1.613 . S
S310 N312 1.610 . S
N311 S310 1.613 . S
N311 C314 1.350 . S
N312 S310 1.610 . S
N312 C313 1.351 . S
C313 C307 1.428 . S
C313 N312 1.351 . S
C313 C314 1.434 . S
C314 C305 1.429 . S
C314 N311 1.350 . S
C314 C313 1.434 . S
C186 C60 1.442 . S
C184 C10 1.442 . S
C195 C21 1.462 . S
C197 C108 1.495 . S
C206 C31 1.409 . S
C208 C180 1.474 . S
C217 C0 1.414 . S
C219 C84 1.454 . S
C230 C132 1.476 . S
C228 C18 1.401 . S
C239 C34 1.423 . S
C241 C156 1.456 . S
C252 C117 1.438 . S
C250 C36 1.439 . S
C261 C8 1.424 . S
C263 C171 1.459 . S
C274 C75 1.443 . S
C272 C23 1.444 . S
C285 C123 1.417 . S
C283 C26 1.371 . S
C296 C165 1.512 . S
C294 C5 1.416 . S
C305 C13 1.427 . S
C307 C69 1.482 . S
