# Generated by pormake.
# Topology ssc, (4,4)-cn, num edge types: 1
# Building blocks:
#     Node 0, Type 0, BuildingBlock: ESEHIV_clean_sbu_0, # of connection points: 4
#     Node 1, Type 0, BuildingBlock: ESEHIV_clean_sbu_0, # of connection points: 4
#     Node 2, Type 0, BuildingBlock: ESEHIV_clean_sbu_0, # of connection points: 4
#     Node 3, Type 0, BuildingBlock: ESEHIV_clean_sbu_0, # of connection points: 4
#     Node 4, Type 0, BuildingBlock: ESEHIV_clean_sbu_0, # of connection points: 4
#     Node 5, Type 0, BuildingBlock: ESEHIV_clean_sbu_0, # of connection points: 4
#     Node 6, Type 0, BuildingBlock: ESEHIV_clean_sbu_0, # of connection points: 4
#     Node 7, Type 0, BuildingBlock: ESEHIV_clean_sbu_0, # of connection points: 4
#     Node 8, Type 0, BuildingBlock: ESEHIV_clean_sbu_0, # of connection points: 4
#     Node 9, Type 0, BuildingBlock: ESEHIV_clean_sbu_0, # of connection points: 4
#     Node 10, Type 0, BuildingBlock: ESEHIV_clean_sbu_0, # of connection points: 4
#     Node 11, Type 0, BuildingBlock: ESEHIV_clean_sbu_0, # of connection points: 4
#     Node 12, Type 1, BuildingBlock: KUFVIS_clean_linker_0, # of connection points: 4
#     Node 13, Type 1, BuildingBlock: KUFVIS_clean_linker_0, # of connection points: 4
#     Node 14, Type 1, BuildingBlock: KUFVIS_clean_linker_0, # of connection points: 4
#     Node 15, Type 1, BuildingBlock: KUFVIS_clean_linker_0, # of connection points: 4
#     Node 16, Type 1, BuildingBlock: KUFVIS_clean_linker_0, # of connection points: 4
#     Node 17, Type 1, BuildingBlock: KUFVIS_clean_linker_0, # of connection points: 4
#     Node 18, Type 1, BuildingBlock: KUFVIS_clean_linker_0, # of connection points: 4
#     Node 19, Type 1, BuildingBlock: KUFVIS_clean_linker_0, # of connection points: 4
#     Node 20, Type 1, BuildingBlock: KUFVIS_clean_linker_0, # of connection points: 4
#     Node 21, Type 1, BuildingBlock: KUFVIS_clean_linker_0, # of connection points: 4
#     Node 22, Type 1, BuildingBlock: KUFVIS_clean_linker_0, # of connection points: 4
#     Node 23, Type 1, BuildingBlock: KUFVIS_clean_linker_0, # of connection points: 4
#     Edge 24, Type (0, 1), BuildingBlock: CIFDUS_clean_linker_0, # of connection points: 2
#     Edge 25, Type (0, 1), BuildingBlock: CIFDUS_clean_linker_0, # of connection points: 2
#     Edge 26, Type (0, 1), BuildingBlock: CIFDUS_clean_linker_0, # of connection points: 2
#     Edge 27, Type (0, 1), BuildingBlock: CIFDUS_clean_linker_0, # of connection points: 2
#     Edge 28, Type (0, 1), BuildingBlock: CIFDUS_clean_linker_0, # of connection points: 2
#     Edge 29, Type (0, 1), BuildingBlock: CIFDUS_clean_linker_0, # of connection points: 2
#     Edge 30, Type (0, 1), BuildingBlock: CIFDUS_clean_linker_0, # of connection points: 2
#     Edge 31, Type (0, 1), BuildingBlock: CIFDUS_clean_linker_0, # of connection points: 2
#     Edge 32, Type (0, 1), BuildingBlock: CIFDUS_clean_linker_0, # of connection points: 2
#     Edge 33, Type (0, 1), BuildingBlock: CIFDUS_clean_linker_0, # of connection points: 2
#     Edge 34, Type (0, 1), BuildingBlock: CIFDUS_clean_linker_0, # of connection points: 2
#     Edge 35, Type (0, 1), BuildingBlock: CIFDUS_clean_linker_0, # of connection points: 2
#     Edge 36, Type (0, 1), BuildingBlock: CIFDUS_clean_linker_0, # of connection points: 2
#     Edge 37, Type (0, 1), BuildingBlock: CIFDUS_clean_linker_0, # of connection points: 2
#     Edge 38, Type (0, 1), BuildingBlock: CIFDUS_clean_linker_0, # of connection points: 2
#     Edge 39, Type (0, 1), BuildingBlock: CIFDUS_clean_linker_0, # of connection points: 2
#     Edge 40, Type (0, 1), BuildingBlock: CIFDUS_clean_linker_0, # of connection points: 2
#     Edge 41, Type (0, 1), BuildingBlock: CIFDUS_clean_linker_0, # of connection points: 2
#     Edge 42, Type (0, 1), BuildingBlock: CIFDUS_clean_linker_0, # of connection points: 2
#     Edge 43, Type (0, 1), BuildingBlock: CIFDUS_clean_linker_0, # of connection points: 2
#     Edge 44, Type (0, 1), BuildingBlock: CIFDUS_clean_linker_0, # of connection points: 2
#     Edge 45, Type (0, 1), BuildingBlock: CIFDUS_clean_linker_0, # of connection points: 2
#     Edge 46, Type (0, 1), BuildingBlock: CIFDUS_clean_linker_0, # of connection points: 2
#     Edge 47, Type (0, 1), BuildingBlock: CIFDUS_clean_linker_0, # of connection points: 2
#     Edge 48, Type (0, 1), BuildingBlock: CIFDUS_clean_linker_0, # of connection points: 2
#     Edge 49, Type (0, 1), BuildingBlock: CIFDUS_clean_linker_0, # of connection points: 2
#     Edge 50, Type (0, 1), BuildingBlock: CIFDUS_clean_linker_0, # of connection points: 2
#     Edge 51, Type (0, 1), BuildingBlock: CIFDUS_clean_linker_0, # of connection points: 2
#     Edge 52, Type (0, 1), BuildingBlock: CIFDUS_clean_linker_0, # of connection points: 2
#     Edge 53, Type (0, 1), BuildingBlock: CIFDUS_clean_linker_0, # of connection points: 2
#     Edge 54, Type (0, 1), BuildingBlock: CIFDUS_clean_linker_0, # of connection points: 2
#     Edge 55, Type (0, 1), BuildingBlock: CIFDUS_clean_linker_0, # of connection points: 2
#     Edge 56, Type (0, 1), BuildingBlock: CIFDUS_clean_linker_0, # of connection points: 2
#     Edge 57, Type (0, 1), BuildingBlock: CIFDUS_clean_linker_0, # of connection points: 2
#     Edge 58, Type (0, 1), BuildingBlock: CIFDUS_clean_linker_0, # of connection points: 2
#     Edge 59, Type (0, 1), BuildingBlock: CIFDUS_clean_linker_0, # of connection points: 2
#     Edge 60, Type (0, 1), BuildingBlock: CIFDUS_clean_linker_0, # of connection points: 2
#     Edge 61, Type (0, 1), BuildingBlock: CIFDUS_clean_linker_0, # of connection points: 2
#     Edge 62, Type (0, 1), BuildingBlock: CIFDUS_clean_linker_0, # of connection points: 2
#     Edge 63, Type (0, 1), BuildingBlock: CIFDUS_clean_linker_0, # of connection points: 2
#     Edge 64, Type (0, 1), BuildingBlock: CIFDUS_clean_linker_0, # of connection points: 2
#     Edge 65, Type (0, 1), BuildingBlock: CIFDUS_clean_linker_0, # of connection points: 2
#     Edge 66, Type (0, 1), BuildingBlock: CIFDUS_clean_linker_0, # of connection points: 2
#     Edge 67, Type (0, 1), BuildingBlock: CIFDUS_clean_linker_0, # of connection points: 2
#     Edge 68, Type (0, 1), BuildingBlock: CIFDUS_clean_linker_0, # of connection points: 2
#     Edge 69, Type (0, 1), BuildingBlock: CIFDUS_clean_linker_0, # of connection points: 2
#     Edge 70, Type (0, 1), BuildingBlock: CIFDUS_clean_linker_0, # of connection points: 2
#     Edge 71, Type (0, 1), BuildingBlock: CIFDUS_clean_linker_0, # of connection points: 2
# Relax obj value: 0.051
# Max RMSD: 0.296
# Mean RMSD: 0.193
data_MOF--net-ssc--node1-ESEHIV_clean_sbu_0--node2-KUFVIS_clean_linker_0--edge1-CIFDUS_clean_linker_0
_symmetry_space_group_name_H-M    P1
_symmetry_Int_Tables_number       1
_symmetry_cell_setting            triclinic
loop_
_symmetry_equiv_pos_as_xyz
'x, y, z'
_cell_length_a     29.262107
_cell_length_b     29.348009
_cell_length_c     29.231522
_cell_angle_alpha  89.918328
_cell_angle_beta   93.666645
_cell_angle_gamma 97.029292
loop_
_atom_site_label
_atom_site_type_symbol
_atom_site_fract_x
_atom_site_fract_y
_atom_site_fract_z
_atom_type_partial_charge
Cu0 Cu 0.01857 0.28136 0.14713 0.0
N1 N 0.96007 0.25426 0.16144 0.0
N2 N 0.8967 0.22797 0.197 0.0
C3 C 0.93857 0.25356 0.20102 0.0
C4 C 0.89203 0.21228 0.15337 0.0
C5 C 0.93072 0.22891 0.13153 0.0
O6 O 0.06207 0.28901 0.20058 0.0
C7 C 0.03847 0.19979 0.10157 0.0
O8 O 0.02246 0.17718 0.13717 0.0
H9 H 0.95402 0.26976 0.23249 0.0
H10 H 0.93768 0.22194 0.09649 0.0
N11 N 0.01193 0.33719 0.11811 0.0
N12 N 1.00602 0.38637 0.06006 0.0
C13 C 0.01332 0.34343 0.07262 0.0
C14 C 1.00328 0.3776 0.13525 0.0
C15 C 0.99983 0.40816 0.0994 0.0
C16 C 0.10298 0.30805 0.19592 0.0
O17 O 0.11438 0.32265 0.15518 0.0
H18 H 0.02035 0.31698 0.04922 0.0
H19 H 0.9995 0.38427 0.17111 0.0
O20 O 0.04135 0.24341 0.10134 0.0
H21 H 0.86339 0.18915 0.13856 0.0
H22 H 0.99276 0.44335 0.10195 0.0
Cu23 Cu 0.02659 0.78778 0.39456 0.0
N24 N 0.0289 0.84357 0.42647 0.0
N25 N 0.02166 0.89805 0.47808 0.0
C26 C 0.01803 0.85242 0.46954 0.0
C27 C 0.03593 0.9185 0.43933 0.0
C28 C 0.04044 0.88494 0.4077 0.0
O29 O 0.02554 0.73525 0.43558 0.0
C30 C 0.93936 0.8016 0.35097 0.0
O31 O 0.93297 0.82084 0.39024 0.0
H32 H 1.00623 0.82629 0.49362 0.0
H33 H 0.0506 0.89024 0.37297 0.0
N34 N 0.08149 0.78963 0.36515 0.0
N35 N 0.13198 0.77914 0.31326 0.0
C36 C 0.08702 0.77519 0.32238 0.0
C37 C 0.12431 0.8035 0.38348 0.0
C38 C 0.15556 0.79703 0.35147 0.0
C39 C 0.99765 0.72401 0.46649 0.0
O40 O 0.963 0.74765 0.47167 0.0
H41 H 0.0588 0.76093 0.29889 0.0
H42 H 0.13219 0.81697 0.41789 0.0
O43 O 0.97598 0.78288 0.34704 0.0
H44 H 0.0423 0.9551 0.43423 0.0
H45 H 0.19257 0.80531 0.35551 0.0
Cu46 Cu 0.51191 0.77206 0.65134 0.0
N47 N 0.52278 0.82644 0.61834 0.0
N48 N 0.52732 0.87525 0.55932 0.0
C49 C 0.52206 0.83072 0.57244 0.0
C50 C 0.53152 0.89956 0.59887 0.0
C51 C 0.52888 0.8695 0.63508 0.0
O52 O 0.50879 0.72147 0.60775 0.0
C53 C 0.60193 0.78498 0.6949 0.0
O54 O 0.6134 0.79949 0.65415 0.0
H55 H 0.51785 0.80153 0.54937 0.0
H56 H 0.53007 0.8783 0.67109 0.0
N57 N 0.45523 0.77289 0.67755 0.0
N58 N 0.39435 0.75348 0.71895 0.0
C59 C 0.4318 0.73939 0.70131 0.0
C60 C 0.43154 0.80931 0.6803 0.0
C61 C 0.39423 0.79757 0.70621 0.0
C62 C 0.49985 0.67903 0.61682 0.0
O63 O 0.49414 0.66605 0.65927 0.0
H64 H 0.44311 0.70615 0.70772 0.0
H65 H 0.44134 0.84262 0.66567 0.0
O66 O 0.56003 0.7698 0.70046 0.0
H67 H 0.53533 0.9364 0.60156 0.0
H68 H 0.36946 0.81985 0.71563 0.0
Cu69 Cu 0.52681 0.28908 0.9028 0.0
N70 N 0.53373 0.34426 0.93557 0.0
N71 N 0.5318 0.39344 0.99346 0.0
C72 C 0.52337 0.34929 0.97936 0.0
C73 C 0.54834 0.41708 0.95728 0.0
C74 C 0.54965 0.38662 0.92155 0.0
O75 O 0.50858 0.24235 0.94765 0.0
C76 C 0.47049 0.26483 0.81957 0.0
O77 O 0.49285 0.22881 0.81728 0.0
H78 H 0.50897 0.32125 1.00017 0.0
H79 H 0.56129 0.39473 0.88776 0.0
N80 N 0.58464 0.28077 0.88231 0.0
N81 N 0.64309 0.26695 0.84059 0.0
C82 C 0.59814 0.27388 0.83977 0.0
C83 C 0.62244 0.27897 0.91059 0.0
C84 C 0.65834 0.27028 0.88512 0.0
C85 C 0.51963 0.20173 0.94923 0.0
O86 O 0.5405 0.1863 0.915 0.0
H87 H 0.5753 0.27241 0.80909 0.0
H88 H 0.62342 0.28275 0.94746 0.0
O89 O 0.47977 0.29285 0.85304 0.0
H90 H 0.55906 0.45356 0.95705 0.0
H91 H 0.69276 0.26596 0.89848 0.0
Cu92 Cu 0.14244 0.0248 0.27512 0.0
N93 N 0.11407 0.03126 0.32991 0.0
N94 N 0.06006 0.03574 0.38013 0.0
C95 C 0.06858 0.02974 0.33569 0.0
C96 C 0.10195 0.04117 0.40302 0.0
C97 C 0.1351 0.03825 0.37201 0.0
O98 O 0.09794 0.02576 0.22318 0.0
C99 C 0.19287 0.11535 0.27768 0.0
O100 O 0.15506 0.13014 0.29058 0.0
H101 H 0.04241 0.02512 0.30766 0.0
H102 H 0.17202 0.04106 0.37956 0.0
N103 N 0.16741 0.9691 0.27546 0.0
N104 N 0.21909 0.91897 0.27257 0.0
C105 C 0.21249 0.96368 0.27545 0.0
C106 C 0.1446 0.92646 0.27267 0.0
C107 C 0.17637 0.89555 0.27073 0.0
C108 C 0.10871 0.01639 0.18308 0.0
O109 O 0.15086 0.00746 0.17711 0.0
H110 H 0.23978 0.99216 0.2759 0.0
H111 H 0.10744 0.91852 0.27121 0.0
O112 O 0.19309 0.07285 0.26943 0.0
H113 H 0.10825 0.04642 0.43959 0.0
H114 H 0.16863 0.85885 0.26783 0.0
Cu115 Cu 0.26988 0.92375 0.53918 0.0
N116 N 0.26892 0.89794 0.48065 0.0
N117 N 0.27052 0.84392 0.427 0.0
C118 C 0.26902 0.85287 0.47214 0.0
C119 C 0.27117 0.88506 0.40624 0.0
C120 C 0.27009 0.91839 0.43944 0.0
O121 O 0.29137 0.87823 0.58064 0.0
C122 C 0.35224 0.98718 0.53694 0.0
O123 O 0.37217 0.95163 0.525 0.0
H124 H 0.26946 0.82728 0.49882 0.0
H125 H 0.27074 0.95492 0.43401 0.0
N126 N 0.20996 0.93314 0.55232 0.0
N127 N 0.14861 0.96724 0.56895 0.0
C128 C 0.19098 0.97284 0.5522 0.0
C129 C 0.17846 0.90144 0.56924 0.0
C130 C 0.14087 0.92238 0.5799 0.0
C131 C 0.28569 0.87537 0.62336 0.0
O132 O 0.26797 0.90828 0.6439 0.0
H133 H 0.20893 0.00557 0.5426 0.0
H134 H 0.18349 0.86598 0.5754 0.0
O135 O 0.30954 0.98173 0.54437 0.0
H136 H 0.2722 0.89054 0.36982 0.0
H137 H 0.11105 0.90619 0.59625 0.0
Cu138 Cu 0.40054 0.03732 0.75303 0.0
N139 N 0.43286 0.0412 0.81063 0.0
N140 N 0.49066 0.04067 0.86469 0.0
C141 C 0.47852 0.0403 0.81926 0.0
C142 C 0.45099 0.04265 0.8854 0.0
C143 C 0.41548 0.04315 0.85199 0.0
O144 O 0.44116 0.02175 0.70663 0.0
C145 C 0.34169 0.95593 0.77384 0.0
O146 O 0.37911 0.94286 0.7944 0.0
H147 H 0.5021 0.03748 0.79269 0.0
H148 H 0.37934 0.04368 0.85744 0.0
N149 N 0.3857 0.09544 0.73663 0.0
N150 N 0.34867 0.15617 0.71866 0.0
C151 C 0.34724 0.11579 0.7415 0.0
C152 C 0.41214 0.12374 0.71029 0.0
C153 C 0.38941 0.16064 0.69885 0.0
C154 C 0.46818 0.99089 0.70949 0.0
O155 O 0.46629 0.96239 0.7442 0.0
H156 H 0.31791 0.10012 0.75908 0.0
H157 H 0.44481 0.11675 0.69829 0.0
O158 O 0.34423 0.99454 0.75362 0.0
H159 H 0.44763 0.04283 0.92202 0.0
H160 H 0.40135 0.18743 0.67582 0.0
Cu161 Cu 0.29086 0.17462 0.0276 0.0
N162 N 0.28036 0.20326 0.9713 0.0
N163 N 0.27449 0.25872 0.9192 0.0
C164 C 0.27948 0.2485 0.96432 0.0
C165 C 0.27202 0.21796 0.89714 0.0
C166 C 0.27566 0.18393 0.92931 0.0
O167 O 0.28978 0.21958 0.07649 0.0
C168 C 0.20244 0.11864 0.02082 0.0
O169 O 0.18613 0.15369 1.00035 0.0
H170 H 0.28214 0.27322 0.99205 0.0
H171 H 0.2758 0.14771 0.92259 0.0
N172 N 0.34795 0.15156 0.0272 0.0
N173 N 0.40259 0.10559 0.04265 0.0
C174 C 0.36597 0.12346 0.05816 0.0
C175 C 0.37431 0.15147 0.99106 0.0
C176 C 0.4077 0.12285 1.0003 0.0
C177 C 0.29423 0.2107 0.11907 0.0
O178 O 0.30056 0.16898 0.13213 0.0
H179 H 0.35061 0.11363 0.08996 0.0
H180 H 0.36812 0.16891 0.95908 0.0
O181 O 0.24475 0.12214 0.03512 0.0
H182 H 0.26853 0.21291 0.86038 0.0
H183 H 0.43273 0.11418 0.97711 0.0
Cu184 Cu 0.77984 0.41257 0.03218 0.0
N185 N 0.77423 0.38422 0.97433 0.0
N186 N 0.78096 0.33488 0.91754 0.0
C187 C 0.78625 0.34286 0.96323 0.0
C188 C 0.7648 0.37246 0.89928 0.0
C189 C 0.76049 0.40273 0.93437 0.0
O190 O 0.78838 0.36523 0.07778 0.0
C191 C 0.84067 0.49232 0.06338 0.0
O192 O 0.81503 0.49127 0.09873 0.0
H193 H 0.80049 0.31998 0.98788 0.0
H194 H 0.74927 0.43642 0.93095 0.0
N195 N 0.72488 0.43723 0.0416 0.0
N196 N 0.67267 0.48582 0.05131 0.0
C197 C 0.71653 0.4815 0.04124 0.0
C198 C 0.68494 0.41276 0.05169 0.0
C199 C 0.65287 0.44248 0.05781 0.0
C200 C 0.77982 0.3685 0.11976 0.0
O201 O 0.76796 0.40722 0.13491 0.0
H202 H 0.74244 0.50994 0.03478 0.0
H203 H 0.67975 0.3758 0.05492 0.0
O204 O 0.83192 0.46109 0.03275 0.0
H205 H 0.75726 0.37784 0.86311 0.0
H206 H 0.61774 0.43277 0.06645 0.0
Cu207 Cu 0.90321 0.53458 0.28832 0.0
N208 N 0.93592 0.54287 0.34523 0.0
N209 N 0.9949 0.54648 0.39812 0.0
C210 C 0.98164 0.54234 0.35306 0.0
C211 C 0.95595 0.54984 0.41954 0.0
C212 C 0.91957 0.54788 0.38672 0.0
O213 O 0.94674 0.51926 0.24488 0.0
C214 C 0.81979 0.47515 0.26412 0.0
O215 O 0.81559 0.50118 0.22787 0.0
H216 H 1.0044 0.53682 0.32637 0.0
H217 H 0.88361 0.54885 0.39273 0.0
N218 N 0.88019 0.58956 0.27287 0.0
N219 N 0.83485 0.64572 0.26594 0.0
C220 C 0.83845 0.60225 0.28007 0.0
C221 C 0.90394 0.62616 0.25406 0.0
C222 C 0.87608 0.6606 0.24947 0.0
C223 C 0.94441 0.52658 0.20191 0.0
O224 O 0.90905 0.54483 0.18298 0.0
H225 H 0.81121 0.57975 0.29479 0.0
H226 H 0.9392 0.62767 0.24451 0.0
O227 O 0.85421 0.48422 0.29292 0.0
H228 H 0.95385 0.55263 0.45623 0.0
H229 H 0.8857 0.69399 0.2352 0.0
Cu230 Cu 0.79073 0.675 0.53322 0.0
N231 N 0.80041 0.70302 0.47648 0.0
N232 N 0.80177 0.75761 0.42282 0.0
C233 C 0.79664 0.74745 0.46742 0.0
C234 C 0.80921 0.71791 0.40295 0.0
C235 C 0.80849 0.68427 0.43622 0.0
O236 O 0.77111 0.72134 0.57227 0.0
C237 C 0.70191 0.63088 0.51371 0.0
O238 O 0.69377 0.67311 0.50459 0.0
H239 H 0.78813 0.7714 0.49274 0.0
H240 H 0.81235 0.64847 0.43118 0.0
N241 N 0.84567 0.65707 0.55946 0.0
N242 N 0.9023 0.61644 0.58466 0.0
C243 C 0.86431 0.61739 0.55566 0.0
C244 C 0.87276 0.68199 0.59137 0.0
C245 C 0.90702 0.65704 0.60731 0.0
C246 C 0.76671 0.71818 0.61524 0.0
O247 O 0.77395 0.67996 0.63643 0.0
H248 H 0.84905 0.58912 0.53379 0.0
H249 H 0.8668 0.71538 0.60362 0.0
O250 O 0.74263 0.62358 0.52687 0.0
H251 H 0.81423 0.71344 0.36695 0.0
H252 H 0.93228 0.66772 0.63484 0.0
Cu253 Cu 0.65039 0.52963 0.78971 0.0
N254 N 0.62657 0.52768 0.84747 0.0
N255 N 0.57889 0.53289 0.90328 0.0
C256 C 0.58342 0.5338 0.85766 0.0
C257 C 0.62046 0.52576 0.92246 0.0
C258 C 0.64982 0.52231 0.88794 0.0
O259 O 0.59971 0.53594 0.74536 0.0
C260 C 0.68975 0.62124 0.80101 0.0
O261 O 0.6486 0.62632 0.8143 0.0
H262 H 0.55644 0.54049 0.83235 0.0
H263 H 0.68579 0.51702 0.89198 0.0
N264 N 0.67574 0.47503 0.78083 0.0
N265 N 0.72701 0.4251 0.77392 0.0
C266 C 0.72044 0.46986 0.7767 0.0
C267 C 0.65331 0.4322 0.78101 0.0
C268 C 0.6848 0.40138 0.77662 0.0
C269 C 0.6019 0.54085 0.70229 0.0
O270 O 0.64174 0.54119 0.68387 0.0
H271 H 0.74754 0.4984 0.77577 0.0
H272 H 0.61675 0.42399 0.78508 0.0
O273 O 0.6976 0.58192 0.78749 0.0
H274 H 0.62871 0.52295 0.95874 0.0
H275 H 0.67745 0.36445 0.77678 0.0
H276 H 0.92081 0.39504 0.65151 0.0
H277 H 0.96367 0.26699 0.69755 0.0
H278 H 0.04503 0.35258 0.60415 0.0
H279 H 1.00034 0.22412 0.60216 0.0
H280 H 0.12844 0.18082 0.65451 0.0
H281 H 0.09145 0.31023 0.69824 0.0
C282 C 0.94513 0.36988 0.65109 0.0
C283 C 0.98328 0.37836 0.62474 0.0
C284 C 0.93808 0.33066 0.67794 0.0
C285 C 0.96899 0.2976 0.67683 0.0
C286 C 0.00779 0.30512 0.64998 0.0
C287 C 0.01499 0.34597 0.62411 0.0
C288 C 0.04155 0.27108 0.65051 0.0
C289 C 0.03192 0.23031 0.62388 0.0
C290 C 0.06353 0.19774 0.62555 0.0
C291 C 0.10397 0.20592 0.65361 0.0
C292 C 0.11456 0.24603 0.67953 0.0
C293 C 0.08337 0.27896 0.67813 0.0
H294 H 0.90667 0.67035 0.90751 0.0
H295 H 0.03875 0.73216 0.96449 0.0
H296 H 0.96843 0.79707 0.8521 0.0
H297 H 0.08517 0.77376 0.86056 0.0
H298 H 0.14343 0.90944 0.90396 0.0
H299 H 0.01555 0.8499 0.95566 0.0
C300 C 0.935 0.69801 0.90789 0.0
C301 C 0.93316 0.73372 0.87649 0.0
C302 C 0.97267 0.69692 0.9395 0.0
C303 C 0.00941 0.73268 0.94 0.0
C304 C 0.00796 0.76914 0.90844 0.0
C305 C 0.96973 0.76935 0.87653 0.0
C306 C 0.04612 0.80721 0.90844 0.0
C307 C 0.08355 0.80437 0.88079 0.0
C308 C 0.1184 0.84163 0.87891 0.0
C309 C 0.11615 0.88088 0.90514 0.0
C310 C 0.07973 0.88406 0.9331 0.0
C311 C 0.04424 0.84735 0.9345 0.0
H312 H 0.4203 0.89394 0.16146 0.0
H313 H 0.4609 0.76385 0.20376 0.0
H314 H 0.54406 0.85122 0.11333 0.0
H315 H 0.50055 0.72073 0.11223 0.0
H316 H 0.63203 0.6841 0.16317 0.0
H317 H 0.59013 0.81179 0.20525 0.0
C318 C 0.44473 0.86891 0.16101 0.0
C319 C 0.48314 0.8777 0.135 0.0
C320 C 0.43646 0.82858 0.18605 0.0
C321 C 0.46694 0.79515 0.18419 0.0
C322 C 0.50628 0.80325 0.15815 0.0
C323 C 0.51403 0.84464 0.13331 0.0
C324 C 0.54078 0.76996 0.15916 0.0
C325 C 0.53235 0.72855 0.13332 0.0
C326 C 0.56602 0.69801 0.1343 0.0
C327 C 0.60637 0.70802 0.16211 0.0
C328 C 0.61533 0.74838 0.1877 0.0
C329 C 0.58289 0.77997 0.18589 0.0
H330 H 0.39123 0.19236 0.41612 0.0
H331 H 0.5282 0.2525 0.46037 0.0
H332 H 0.45192 0.3132 0.3494 0.0
H333 H 0.55314 0.30046 0.33634 0.0
H334 H 0.63199 0.42373 0.39088 0.0
H335 H 0.52099 0.35726 0.46529 0.0
C336 C 0.41981 0.2194 0.41362 0.0
C337 C 0.41687 0.25293 0.37998 0.0
C338 C 0.45967 0.21869 0.4425 0.0
C339 C 0.49706 0.25294 0.43829 0.0
C340 C 0.49414 0.2876 0.40507 0.0
C341 C 0.45405 0.28721 0.37558 0.0
C342 C 0.53275 0.32449 0.40134 0.0
C343 C 0.55985 0.32656 0.36293 0.0
C344 C 0.5961 0.36218 0.3596 0.0
C345 C 0.60418 0.39594 0.39375 0.0
C346 C 0.57732 0.39456 0.43161 0.0
C347 C 0.54191 0.35842 0.43591 0.0
H348 H 0.65558 0.92801 0.36471 0.0
H349 H 0.71239 0.99155 0.245 0.0
H350 H 0.59325 0.0392 0.30117 0.0
H351 H 0.58519 0.02589 0.20026 0.0
H352 H 0.64777 0.14987 0.14008 0.0
H353 H 0.71787 0.0915 0.25515 0.0
C354 C 0.65463 0.95342 0.33771 0.0
C355 C 0.62046 0.98276 0.33643 0.0
C356 C 0.68791 0.95633 0.30535 0.0
C357 C 0.6868 0.98926 0.2704 0.0
C358 C 0.6524 0.01928 0.26851 0.0
C359 C 0.61934 0.01593 0.30188 0.0
C360 C 0.65136 0.05488 0.23247 0.0
C361 C 0.61324 0.05367 0.19997 0.0
C362 C 0.61192 0.08826 0.16677 0.0
C363 C 0.64842 0.12361 0.16628 0.0
C364 C 0.68673 0.12487 0.19738 0.0
C365 C 0.68832 0.09054 0.23074 0.0
H366 H 0.16124 0.39759 0.42625 0.0
H367 H 0.25013 0.4502 0.54165 0.0
H368 H 0.28576 0.33789 0.46073 0.0
H369 H 0.29664 0.32676 0.56471 0.0
H370 H 0.42998 0.39514 0.61005 0.0
H371 H 0.34432 0.46128 0.51269 0.0
C372 C 0.19206 0.396 0.44869 0.0
C373 C 0.22192 0.364 0.43954 0.0
C374 C 0.20186 0.42703 0.4852 0.0
C375 C 0.24211 0.42574 0.51366 0.0
C376 C 0.27238 0.39314 0.50539 0.0
C377 C 0.26208 0.36216 0.46816 0.0
C378 C 0.31595 0.39329 0.53411 0.0
C379 C 0.32317 0.3558 0.56301 0.0
C380 C 0.36448 0.35675 0.59049 0.0
C381 C 0.39833 0.3943 0.58831 0.0
C382 C 0.39134 0.43197 0.56077 0.0
C383 C 0.35003 0.43176 0.53367 0.0
H384 H 0.91729 0.14159 0.90122 0.0
H385 H 0.84356 0.07319 0.78398 0.0
H386 H 0.96732 0.02401 0.84384 0.0
H387 H 0.96564 0.03169 0.7428 0.0
H388 H 0.89229 0.90628 0.68744 0.0
H389 H 0.83735 0.974 0.79798 0.0
C390 C 0.91469 0.11531 0.87471 0.0
C391 C 0.94687 0.08384 0.87582 0.0
C392 C 0.87733 0.11167 0.84224 0.0
C393 C 0.87281 0.07655 0.80894 0.0
C394 C 0.90614 0.04545 0.80846 0.0
C395 C 0.94284 0.04896 0.84253 0.0
C396 C 0.90164 0.00778 0.77405 0.0
C397 C 0.93623 0.00536 0.74269 0.0
C398 C 0.93254 0.96862 0.71132 0.0
C399 C 0.89483 0.93478 0.71154 0.0
C400 C 0.86051 0.93642 0.74228 0.0
C401 C 0.86368 0.97298 0.77368 0.0
H402 H 0.35197 0.60781 0.90733 0.0
H403 H 0.3159 0.56326 0.0415 0.0
H404 H 0.23833 0.65957 0.96776 0.0
H405 H 0.2854 0.66867 0.08228 0.0
H406 H 0.16126 0.61799 0.14616 0.0
H407 H 0.18997 0.5596 0.01814 0.0
C408 C 0.32905 0.60797 0.93511 0.0
C409 C 0.29357 0.63591 0.93225 0.0
C410 C 0.33753 0.58206 0.97401 0.0
C411 C 0.30938 0.58322 0.01107 0.0
C412 C 0.27288 0.61069 0.00861 0.0
C413 C 0.26553 0.63753 0.96934 0.0
C414 C 0.24266 0.61199 0.04717 0.0
C415 C 0.25435 0.64448 0.08294 0.0
C416 C 0.22458 0.64664 0.11849 0.0
C417 C 0.18448 0.61567 0.1189 0.0
C418 C 0.17144 0.5847 0.08298 0.0
C419 C 0.20042 0.58286 0.04671 0.0
H420 H 0.65911 0.88858 0.91176 0.0
H421 H 0.73647 0.94834 0.03111 0.0
H422 H 0.77547 0.82636 0.96853 0.0
H423 H 0.77481 0.82851 0.07611 0.0
H424 H 0.90548 0.89844 0.12765 0.0
H425 H 0.83512 0.95158 0.0098 0.0
C426 C 0.68735 0.88805 0.9377 0.0
C427 C 0.716 0.8535 0.93631 0.0
C428 C 0.6944 0.92215 0.97142 0.0
C429 C 0.73079 0.92168 1.00501 0.0
C430 C 0.76026 0.887 1.00444 0.0
C431 C 0.75256 0.8526 0.96993 0.0
C432 C 0.8007 0.88899 0.03809 0.0
C433 C 0.8028 0.856 0.07337 0.0
C434 C 0.84074 0.85987 0.10592 0.0
C435 C 0.87637 0.89549 0.10234 0.0
C436 C 0.87475 0.92839 0.06806 0.0
C437 C 0.83669 0.92562 0.03608 0.0
H438 H 0.39002 0.6471 0.39803 0.0
H439 H 0.33446 0.59565 0.26582 0.0
H440 H 0.43616 0.52627 0.34325 0.0
H441 H 0.44416 0.55385 0.23347 0.0
H442 H 0.38214 0.42739 0.1703 0.0
H443 H 0.32127 0.48 0.28593 0.0
C444 C 0.38805 0.62148 0.37095 0.0
C445 C 0.41593 0.58621 0.37533 0.0
C446 C 0.35893 0.62544 0.33182 0.0
C447 C 0.35691 0.59273 0.29637 0.0
C448 C 0.3843 0.55626 0.30063 0.0
C449 C 0.41433 0.55355 0.34006 0.0
C450 C 0.38256 0.52142 0.26369 0.0
C451 C 0.41716 0.52501 0.23184 0.0
C452 C 0.41705 0.49067 0.1984 0.0
C453 C 0.38233 0.45366 0.19652 0.0
C454 C 0.34785 0.44943 0.22752 0.0
C455 C 0.34769 0.48338 0.26138 0.0
H456 H 0.85868 0.13896 0.40938 0.0
H457 H 0.81445 0.09485 0.54118 0.0
H458 H 0.73942 0.18864 0.46045 0.0
H459 H 0.77266 0.20435 0.57421 0.0
H460 H 0.65467 0.13761 0.63854 0.0
H461 H 0.6981 0.07882 0.51657 0.0
C462 C 0.83435 0.13931 0.43591 0.0
C463 C 0.7983 0.16622 0.42991 0.0
C464 C 0.84044 0.11344 0.47536 0.0
C465 C 0.80985 0.11478 0.51035 0.0
C466 C 0.77297 0.14172 0.5051 0.0
C467 C 0.76757 0.16791 0.46482 0.0
C468 C 0.73963 0.14141 0.54133 0.0
C469 C 0.74488 0.17638 0.57517 0.0
C470 C 0.71425 0.17461 0.61048 0.0
C471 C 0.67866 0.13846 0.61157 0.0
C472 C 0.67235 0.10415 0.57804 0.0
C473 C 0.70287 0.10544 0.5427 0.0
H474 H 0.13536 0.43571 0.86539 0.0
H475 H 0.20193 0.5073 0.75491 0.0
H476 H 0.08367 0.55682 0.81075 0.0
H477 H 0.0787 0.5547 0.71129 0.0
H478 H 0.15388 0.67777 0.66189 0.0
H479 H 0.21239 0.60632 0.77525 0.0
C480 C 0.13703 0.46356 0.84081 0.0
C481 C 0.10502 0.4952 0.84129 0.0
C482 C 0.17201 0.4677 0.8102 0.0
C483 C 0.17488 0.50399 0.7788 0.0
C484 C 0.14269 0.53615 0.77851 0.0
C485 C 0.10792 0.53175 0.81012 0.0
C486 C 0.14598 0.5749 0.74589 0.0
C487 C 0.10944 0.57945 0.71282 0.0
C488 C 0.11274 0.6164 0.68214 0.0
C489 C 0.1521 0.64849 0.68479 0.0
C490 C 0.18777 0.64545 0.71831 0.0
C491 C 0.185 0.60844 0.74883 0.0
H492 H 0.03369 0.47417 0.03595 0.0
H493 H 0.9822 0.34015 0.98071 0.0
H494 H 0.99952 0.3662 0.90386 0.0
H495 H 0.04195 0.42247 0.85523 0.0
H496 H 0.09639 0.55559 0.90999 0.0
H497 H 0.06331 0.53542 0.98313 0.0
C498 C 0.02516 0.45108 0.00696 0.0
C499 C 0.00795 0.40484 0.01432 0.0
C500 C 0.03584 0.46618 0.96266 0.0
C501 C 0.99686 0.37543 0.97623 0.0
C502 C 1.00651 0.39037 0.93218 0.0
C503 C 0.04507 0.44758 0.88283 0.0
C504 C 0.07174 0.49023 0.87755 0.0
C505 C 0.02788 0.435 0.92536 0.0
C506 C 0.07579 0.52261 0.91328 0.0
C507 C 0.05765 0.51073 0.95545 0.0
H508 H 0.93764 0.76216 0.26587 0.0
H509 H 0.87206 0.85808 0.34324 0.0
H510 H 0.82843 0.87841 0.27407 0.0
H511 H 0.81498 0.87535 0.19043 0.0
H512 H 0.88211 0.78217 0.112 0.0
H513 H 0.91765 0.75321 0.18252 0.0
C514 C 0.91285 0.78658 0.26782 0.0
C515 C 0.90814 0.80834 0.30993 0.0
C516 C 0.88744 0.79807 0.2277 0.0
C517 C 0.8762 0.84033 0.3116 0.0
C518 C 0.85104 0.85199 0.27198 0.0
C519 C 0.83549 0.84703 0.18913 0.0
C520 C 0.84492 0.82994 0.14627 0.0
C521 C 0.85686 0.83165 0.22976 0.0
C522 C 0.87311 0.79463 0.14471 0.0
C523 C 0.89411 0.77873 0.18504 0.0
H524 H 0.54103 0.67483 0.53653 0.0
H525 H 0.42804 0.61125 0.61114 0.0
H526 H 0.3964 0.5675 0.54284 0.0
H527 H 0.39463 0.5568 0.45942 0.0
H528 H 0.50536 0.62301 0.3839 0.0
H529 H 0.54523 0.65476 0.45509 0.0
C530 C 0.51022 0.65036 0.53802 0.0
C531 C 0.48679 0.64622 0.57862 0.0
C532 C 0.49221 0.6253 0.49856 0.0
C533 C 0.44683 0.61468 0.58031 0.0
C534 C 0.42865 0.58976 0.54123 0.0
C535 C 0.42864 0.5762 0.45903 0.0
C536 C 0.4475 0.5871 0.41681 0.0
C537 C 0.45034 0.59574 0.49988 0.0
C538 C 0.49084 0.61341 0.41623 0.0
C539 C 0.51321 0.63218 0.45685 0.0
H540 H 0.6347 0.29329 0.75213 0.0
H541 H 0.70717 0.2082 0.84442 0.0
H542 H 0.74551 0.17931 0.78076 0.0
H543 H 0.74941 0.16991 0.69749 0.0
H544 H 0.67735 0.25475 0.60486 0.0
H545 H 0.64949 0.29364 0.66977 0.0
C546 C 0.65955 0.26912 0.75831 0.0
C547 C 0.66817 0.2531 0.80305 0.0
C548 C 0.68185 0.25292 0.7214 0.0
C549 C 0.70043 0.22164 0.81052 0.0
C550 C 0.72223 0.20491 0.77404 0.0
C551 C 0.72948 0.19847 0.69175 0.0
C552 C 0.7159 0.20998 0.64664 0.0
C553 C 0.71234 0.21944 0.7292 0.0
C554 C 0.68904 0.24613 0.63935 0.0
C555 C 0.67231 0.26763 0.67646 0.0
H556 H 0.98682 0.72701 0.55764 0.0
H557 H 0.03808 0.64645 0.45352 0.0
H558 H 0.07122 0.59874 0.51264 0.0
H559 H 0.09519 0.58734 0.59401 0.0
H560 H 0.04989 0.67296 0.69721 0.0
H561 H 1.00639 0.71228 0.63868 0.0
C562 C 1.00417 0.69822 0.54789 0.0
C563 C 0.00991 0.69017 0.50136 0.0
C564 C 0.02472 0.67213 0.58206 0.0
C565 C 0.03321 0.65327 0.48919 0.0
C566 C 0.05214 0.62597 0.52295 0.0
C567 C 0.07369 0.61289 0.60366 0.0
C568 C 0.07449 0.62644 0.64984 0.0
C569 C 0.04926 0.63589 0.56955 0.0
C570 C 0.0484 0.66107 0.66199 0.0
C571 C 0.02397 0.68387 0.62845 0.0
H572 H 0.59929 0.74466 0.77963 0.0
H573 H 0.67933 0.84616 0.70096 0.0
H574 H 0.72896 0.86951 0.76896 0.0
H575 H 0.74475 0.86747 0.8518 0.0
H576 H 0.6613 0.77159 0.93258 0.0
H577 H 0.61993 0.7378 0.86273 0.0
C578 C 0.62837 0.77106 0.77717 0.0
C579 C 0.63561 0.7935 0.73509 0.0
C580 C 0.65712 0.78451 0.81666 0.0
C581 C 0.67331 0.82779 0.73258 0.0
C582 C 0.70189 0.84118 0.77148 0.0
C583 C 0.71909 0.83764 0.85381 0.0
C584 C 0.70676 0.82128 0.89705 0.0
C585 C 0.6938 0.82032 0.81377 0.0
C586 C 0.6722 0.78384 0.89954 0.0
C587 C 0.64788 0.76526 0.85963 0.0
H588 H 0.4988 0.47319 0.00937 0.0
H589 H 0.54355 0.3538 0.07579 0.0
H590 H 0.52154 0.38056 0.14953 0.0
H591 H 0.47999 0.43225 0.19253 0.0
H592 H 0.4263 0.54642 0.12448 0.0
H593 H 0.46167 0.52799 0.05426 0.0
C594 C 0.50425 0.45351 0.04013 0.0
C595 C 0.52241 0.41146 0.0372 0.0
C596 C 0.48976 0.46823 0.08201 0.0
C597 C 0.52897 0.38591 0.07722 0.0
C598 C 0.51664 0.40133 0.11933 0.0
C599 C 0.47789 0.45422 0.16276 0.0
C600 C 0.45161 0.4912 0.16376 0.0
C601 C 0.49591 0.4418 0.12188 0.0
C602 C 0.4474 0.51854 0.12472 0.0
C603 C 0.46673 0.50736 0.08427 0.0
H604 H 0.87901 0.27894 0.26968 0.0
H605 H 0.84573 0.14592 0.20514 0.0
H606 H 0.79968 0.11914 0.26826 0.0
H607 H 0.77825 0.12939 0.34638 0.0
H608 H 0.8179 0.25852 0.41606 0.0
H609 H 0.84889 0.29205 0.34576 0.0
C610 C 0.86114 0.24433 0.26936 0.0
C611 C 0.86618 0.21439 0.23284 0.0
C612 C 0.83474 0.22882 0.30636 0.0
C613 C 0.84237 0.16978 0.23256 0.0
C614 C 0.81589 0.15437 0.26873 0.0
C615 C 0.7918 0.16549 0.34543 0.0
C616 C 0.79567 0.19153 0.38612 0.0
C617 C 0.81273 0.18316 0.30624 0.0
C618 C 0.81393 0.23803 0.38494 0.0
C619 C 0.83265 0.25681 0.34502 0.0
H620 H 0.04246 0.07944 0.45745 0.0
H621 H 0.97718 0.99448 0.34565 0.0
H622 H 0.90148 1.0026 0.37277 0.0
H623 H 0.85389 0.04263 0.42168 0.0
H624 H 0.91848 0.12986 0.53168 0.0
H625 H 0.99424 0.11018 0.51353 0.0
C626 C 0.01181 0.06207 0.43946 0.0
C627 C 0.01567 0.03731 0.39883 0.0
C628 C 0.96821 0.067 0.45526 0.0
C629 C 0.97532 0.01495 0.37608 0.0
C630 C 0.93197 0.01919 0.39186 0.0
C631 C 0.8845 0.0557 0.44286 0.0
C632 C 0.88076 0.08743 0.47806 0.0
C633 C 0.92798 0.04621 0.43059 0.0
C634 C 0.92051 0.10485 0.50489 0.0
C635 C 0.96393 0.09441 0.49379 0.0
H636 H 0.25922 0.84891 0.70855 0.0
H637 H 0.3182 0.80016 0.58887 0.0
H638 H 0.30292 0.72144 0.61523 0.0
H639 H 0.25648 0.66649 0.66222 0.0
H640 H 0.19623 0.71423 0.7809 0.0
H641 H 0.2289 0.79297 0.76553 0.0
C642 C 0.26991 0.82125 0.68886 0.0
C643 C 0.28838 0.83042 0.64601 0.0
C644 C 0.26035 0.7757 0.70385 0.0
C645 C 0.30282 0.79411 0.62141 0.0
C646 C 0.29402 0.74893 0.63639 0.0
C647 C 0.25269 0.69395 0.68599 0.0
C648 C 0.22414 0.68489 0.72252 0.0
C649 C 0.27044 0.73922 0.67612 0.0
C650 C 0.21868 0.72052 0.7529 0.0
C651 C 0.23679 0.76567 0.74369 0.0
H652 H 0.50847 1.00185 0.94697 0.0
H653 H 0.57401 0.06319 0.8299 0.0
H654 H 0.64741 0.03912 0.85843 0.0
H655 H 0.68961 0.99027 0.91025 0.0
H656 H 0.62393 0.92734 0.02612 0.0
H657 H 0.55448 0.96318 1.00523 0.0
C658 C 0.53891 0.01082 0.92814 0.0
C659 C 0.53526 0.03338 0.8857 0.0
C660 C 0.58105 0.99638 0.94454 0.0
C661 C 0.5754 0.04483 0.86199 0.0
C662 C 0.61752 0.03126 0.87841 0.0
C663 C 0.66068 0.98623 0.93198 0.0
C664 C 0.66181 0.95677 0.9699 0.0
C665 C 0.62035 0.00568 0.91881 0.0
C666 C 0.62399 0.95061 0.99731 0.0
C667 C 0.58395 0.97036 0.98478 0.0
H668 H 0.25173 0.28828 0.11371 0.0
H669 H 0.34442 0.21783 0.20071 0.0
H670 H 0.35929 0.28453 0.25185 0.0
H671 H 0.35643 0.36666 0.26397 0.0
H672 H 0.26826 0.43888 0.17412 0.0
H673 H 0.23904 0.36731 0.1336 0.0
C674 C 0.27437 0.28723 0.14446 0.0
C675 C 0.29725 0.24833 0.15328 0.0
C676 C 0.2829 0.32582 0.17372 0.0
C677 C 0.32616 0.2472 0.19339 0.0
C678 C 0.3347 0.28534 0.22266 0.0
C679 C 0.32884 0.36609 0.23724 0.0
C680 C 0.31413 0.40777 0.22228 0.0
C681 C 0.3144 0.32531 0.21242 0.0
C682 C 0.2794 0.40703 0.18674 0.0
C683 C 0.26358 0.36627 0.16285 0.0
H684 H 0.02705 0.05219 0.17307 0.0
H685 H 0.10842 0.95998 0.10949 0.0
H686 H 0.04295 0.93291 0.05658 0.0
H687 H 0.9594 0.92446 0.03939 0.0
H688 H 0.87664 0.01285 0.10572 0.0
H689 H 0.94597 0.0541 0.14477 0.0
C690 C 0.03069 0.02697 0.14688 0.0
C691 C 0.07227 0.00761 0.14561 0.0
C692 C 0.99268 0.01112 0.11679 0.0
C693 C 0.07683 0.97548 0.11114 0.0
C694 C 0.03936 0.95984 0.08091 0.0
C695 C 0.95699 0.9544 0.06044 0.0
C696 C 0.91327 0.96583 0.06969 0.0
C697 C 0.99667 0.97602 0.08471 0.0
C698 C 0.91012 1.00403 0.09764 0.0
C699 C 0.94966 0.02683 0.12083 0.0
H700 H 0.31686 0.82677 0.35287 0.0
H701 H 0.2309 0.76164 0.45459 0.0
H702 H 0.24301 0.68609 0.42635 0.0
H703 H 0.28706 0.63906 0.3806 0.0
H704 H 0.37761 0.70346 0.28266 0.0
H705 H 0.35464 0.7785 0.30109 0.0
C706 C 0.3002 0.79601 0.36826 0.0
C707 C 0.27377 0.79981 0.40644 0.0
C708 C 0.30818 0.75251 0.3524 0.0
C709 C 0.25236 0.75961 0.42601 0.0
C710 C 0.25902 0.7164 0.40967 0.0
C711 C 0.30004 0.66936 0.36184 0.0
C712 C 0.33317 0.66578 0.32971 0.0
C713 C 0.28803 0.71245 0.37391 0.0
C714 C 0.35114 0.70532 0.30664 0.0
C715 C 0.33841 0.7483 0.31761 0.0
H716 H 0.47521 0.03209 0.62625 0.0
H717 H 0.55151 0.95975 0.72797 0.0
H718 H 0.62222 0.9805 0.68876 0.0
H719 H 0.6643 0.03063 0.63358 0.0
H720 H 0.58851 0.10481 0.53368 0.0
H721 H 0.51575 0.07108 0.56336 0.0
C722 C 0.50714 0.02005 0.63928 0.0
C723 C 0.50814 0.99489 0.68033 0.0
C724 C 0.54787 0.03249 0.61677 0.0
C725 C 0.5497 0.9792 0.69653 0.0
C726 C 0.59029 0.99129 0.67424 0.0
C727 C 0.63165 0.03741 0.61686 0.0
C728 C 0.63158 0.06952 0.5811 0.0
C729 C 0.59007 0.01928 0.63528 0.0
C730 C 0.58927 0.07934 0.56051 0.0
C731 C 0.54771 0.06068 0.57797 0.0
H732 H 0.23918 0.27723 0.83384 0.0
H733 H 0.30118 0.34225 0.95908 0.0
H734 H 0.28293 0.41632 0.93105 0.0
H735 H 0.23824 0.46019 0.87671 0.0
H736 H 0.17467 0.39556 0.75254 0.0
H737 H 0.20663 0.32436 0.77326 0.0
C738 C 0.24965 0.30753 0.85474 0.0
C739 C 0.27015 0.3034 0.89937 0.0
C740 C 0.23901 0.35036 0.83836 0.0
C741 C 0.28376 0.34365 0.92545 0.0
C742 C 0.27371 0.38632 0.90925 0.0
C743 C 0.23309 0.43099 0.8534 0.0
C744 C 0.20454 0.43294 0.81311 0.0
C745 C 0.24975 0.38975 0.86659 0.0
C746 C 0.1972 0.3949 0.78337 0.0
C747 C 0.21476 0.35398 0.79567 0.0
H748 H 0.43177 0.03246 1.0028 0.0
H749 H 0.42864 0.10145 0.13228 0.0
H750 H 0.46535 0.04038 0.17155 0.0
H751 H 0.48857 0.96304 0.17016 0.0
H752 H 0.48276 0.88926 0.04232 0.0
H753 H 0.46043 0.95664 1.00091 0.0
C754 C 0.43991 0.03439 0.03946 0.0
C755 C 0.42736 0.07123 0.06475 0.0
C756 C 0.45961 0.99832 0.06191 0.0
C757 C 0.43739 0.07305 0.11235 0.0
C758 C 0.45857 0.03831 0.13468 0.0
C759 C 0.48417 0.96247 0.13301 0.0
C760 C 0.48757 0.92144 0.10921 0.0
C761 C 0.46874 1.00026 0.10996 0.0
C762 C 0.4811 0.92067 0.06124 0.0
C763 C 0.46755 0.95897 0.03771 0.0
H764 H 0.90993 0.50054 1.00449 0.0
H765 H 0.84612 0.57686 0.10357 0.0
H766 H 0.89063 0.64791 0.08029 0.0
H767 H 0.93708 0.68975 0.02246 0.0
H768 H 0.99946 0.61392 0.9225 0.0
H769 H 0.9667 0.54147 0.95557 0.0
C770 C 0.9063 0.53263 0.02147 0.0
C771 C 0.87397 0.53344 0.05505 0.0
C772 C 0.93175 0.57358 0.00759 0.0
C773 C 0.87038 0.57519 0.07733 0.0
C774 C 0.89576 0.61597 0.06392 0.0
C775 C 0.94541 0.65731 0.00957 0.0
C776 C 0.97111 0.65704 0.97059 0.0
C777 C 0.92526 0.61582 0.02796 0.0
C778 C 0.9806 0.61487 0.95313 0.0
C779 C 0.96123 0.57346 0.97157 0.0
H780 H 0.816 0.71628 0.21123 0.0
H781 H 0.76271 0.63063 0.32052 0.0
H782 H 0.69129 0.66597 0.31419 0.0
H783 H 0.63976 0.71184 0.26878 0.0
H784 H 0.69276 0.79489 0.15805 0.0
H785 H 0.76879 0.77055 0.1743 0.0
C786 C 0.78953 0.70616 0.23468 0.0
C787 C 0.7948 0.67021 0.26585 0.0
C788 C 0.74848 0.72656 0.23076 0.0
C789 C 0.75933 0.65723 0.29531 0.0
C790 C 0.71856 0.67779 0.29203 0.0
C791 C 0.66885 0.72696 0.25034 0.0
C792 C 0.66095 0.75571 0.21278 0.0
C793 C 0.71219 0.71145 0.25887 0.0
C794 C 0.69836 0.77385 0.1879 0.0
C795 C 0.74174 0.75927 0.19672 0.0
H796 H 0.69635 0.5445 0.54892 0.0
H797 H 0.62613 0.63017 0.45492 0.0
H798 H 0.57324 0.56363 0.42767 0.0
H799 H 0.5553 0.48006 0.4219 0.0
H800 H 0.62665 0.3936 0.51339 0.0
H801 H 0.66927 0.4615 0.55194 0.0
C802 C 0.66889 0.54865 0.52309 0.0
C803 C 0.66567 0.59197 0.5033 0.0
C804 C 0.63848 0.51019 0.50756 0.0
C805 C 0.62948 0.59714 0.4705 0.0
C806 C 0.5992 0.55913 0.45487 0.0
C807 C 0.57878 0.47634 0.45157 0.0
C808 C 0.58783 0.4323 0.46519 0.0
C809 C 0.60441 0.51535 0.47201 0.0
C810 C 0.61877 0.42738 0.50303 0.0
C811 C 0.64366 0.46616 0.52444 0.0
H812 H 0.23387 0.84054 0.22965 0.0
H813 H 0.30258 0.95612 0.30853 0.0
H814 H 0.37708 0.92989 0.29814 0.0
H815 H 0.42321 0.88104 0.25763 0.0
H816 H 0.35629 0.77066 0.17145 0.0
H817 H 0.28081 0.78705 0.19434 0.0
C818 C 0.26504 0.85954 0.24523 0.0
C819 C 0.26252 0.9007 0.26943 0.0
C820 C 0.30816 0.84487 0.238 0.0
C821 C 0.30348 0.92504 0.28891 0.0
C822 C 0.34612 0.9098 0.28334 0.0
C823 C 0.39211 0.85922 0.24565 0.0
C824 C 0.39523 0.82438 0.21339 0.0
C825 C 0.34897 0.87061 0.25686 0.0
C826 C 0.35479 0.79697 0.19709 0.0
C827 C 0.31157 0.80687 0.20966 0.0
H828 H 0.13667 0.04359 0.52009 0.0
H829 H 0.09889 0.97117 0.64295 0.0
H830 H 0.05627 0.03306 0.66511 0.0
H831 H 0.03931 0.11222 0.6553 0.0
H832 H 0.08336 0.18858 0.53694 0.0
H833 H 0.11209 0.12065 0.50617 0.0
C834 C 0.1184 0.04121 0.55125 0.0
C835 C 0.12069 1.00264 0.57965 0.0
C836 C 0.09436 0.0775 0.56417 0.0
C837 C 0.0971 1.00004 0.62013 0.0
C838 C 0.07281 0.03556 0.63292 0.0
C839 C 0.05288 0.1131 0.62157 0.0
C840 C 0.05836 0.15499 0.59795 0.0
C841 C 0.07192 0.07482 0.6057 0.0
C842 C 0.07764 0.15638 0.5551 0.0
C843 C 0.09506 0.1178 0.53808 0.0
H844 H 0.72961 0.46594 0.23141 0.0
H845 H 0.82617 0.40228 0.32075 0.0
H846 H 0.76305 0.35053 0.34973 0.0
H847 H 0.68033 0.33522 0.36132 0.0
H848 H 0.58345 0.40268 0.27694 0.0
H849 H 0.64625 0.43982 0.23322 0.0
C850 C 0.73687 0.4401 0.2565 0.0
C851 C 0.78239 0.43871 0.27474 0.0
C852 C 0.70016 0.41111 0.27394 0.0
C853 C 0.79132 0.40473 0.30691 0.0
C854 C 0.75524 0.37503 0.32345 0.0
C855 C 0.67292 0.35624 0.33182 0.0
C856 C 0.62758 0.36606 0.32197 0.0
C857 C 0.70944 0.37943 0.30883 0.0
C858 C 0.61812 0.39413 0.28449 0.0
C859 C 0.65416 0.41604 0.26015 0.0
H860 H 0.77025 0.63556 0.75815 0.0
H861 H 0.69663 0.68836 0.86549 0.0
H862 H 0.7654 0.73941 0.89155 0.0
H863 H 0.84977 0.75628 0.89373 0.0
H864 H 0.92475 0.70068 0.78946 0.0
H865 H 0.85236 0.66469 0.7513 0.0
C866 C 0.76912 0.659 0.7866 0.0
C867 C 0.72858 0.65795 0.81017 0.0
C868 C 0.80922 0.68762 0.80203 0.0
C869 C 0.72728 0.68885 0.84657 0.0
C870 C 0.76675 0.71776 0.86177 0.0
C871 C 0.84987 0.73813 0.86142 0.0
C872 C 0.89216 0.73114 0.84415 0.0
C873 C 0.80838 0.71586 0.84109 0.0
C874 C 0.89237 0.70694 0.80282 0.0
C875 C 0.85107 0.68565 0.78158 0.0
H876 H 0.55909 0.96209 0.53381 0.0
H877 H 0.5009 0.82916 0.47934 0.0
H878 H 0.51609 0.85516 0.40227 0.0
H879 H 0.55699 0.91118 0.35208 0.0
H880 H 0.61655 0.04305 0.40612 0.0
H881 H 0.58774 0.02267 0.48121 0.0
C882 C 0.54869 0.93887 0.50529 0.0
C883 C 0.53014 0.89298 0.51316 0.0
C884 C 0.55743 0.95409 0.46068 0.0
C885 C 0.51677 0.864 0.47505 0.0
C886 C 0.52504 0.879 0.43066 0.0
C887 C 0.56183 0.93608 0.37992 0.0
C888 C 0.58859 0.97852 0.37382 0.0
C889 C 0.54689 0.92334 0.4233 0.0
C890 C 0.59542 0.01046 0.41001 0.0
C891 C 0.57962 0.99845 0.45312 0.0
H892 H 0.47476 0.24537 0.72934 0.0
H893 H 0.39486 0.31016 0.82351 0.0
H894 H 0.3472 0.33653 0.75928 0.0
H895 H 0.33568 0.35029 0.6762 0.0
H896 H 0.41888 0.28967 0.58248 0.0
H897 H 0.45836 0.25321 0.64627 0.0
C898 C 0.44647 0.26467 0.73577 0.0
C899 C 0.43843 0.27597 0.78104 0.0
C900 C 0.42023 0.28101 0.69862 0.0
C901 C 0.40189 0.30131 0.78889 0.0
C902 C 0.37465 0.31639 0.75219 0.0
C903 C 0.36085 0.32719 0.66978 0.0
C904 C 0.37359 0.32151 0.62477 0.0
C905 C 0.38428 0.30747 0.70687 0.0
C906 C 0.40763 0.29323 0.61677 0.0
C907 C 0.4308 0.27321 0.65333 0.0
H908 H 0.00725 0.11065 0.07916 0.0
H909 H 0.07855 0.23462 0.02521 0.0
H910 H 0.06655 0.20265 0.94786 0.0
H911 H 0.01982 0.14782 0.89499 0.0
H912 H 0.9437 0.02674 0.94841 0.0
H913 H 0.97372 0.04887 0.02603 0.0
C914 C 0.0214 0.13011 0.05069 0.0
C915 C 0.04265 0.17545 0.05786 0.0
C916 C 0.013 0.11211 0.00594 0.0
C917 C 0.06119 0.2 0.02057 0.0
C918 C 0.05426 0.18178 0.97622 0.0
C919 C 0.01195 0.12515 0.92353 0.0
C920 C 0.97993 0.0857 0.91623 0.0
C921 C 0.02792 0.13902 0.96829 0.0
C922 C 0.9689 0.0569 0.95329 0.0
C923 C 0.98565 0.06985 0.99781 0.0
H924 H 0.20749 0.73632 0.30666 0.0
H925 H 0.09871 0.79213 0.22706 0.0
H926 H 0.12793 0.76624 0.15622 0.0
H927 H 0.17728 0.71848 0.1184 0.0
H928 H 0.27838 0.65229 0.19847 0.0
H929 H 0.25987 0.69164 0.26757 0.0
C930 C 0.19072 0.7432 0.27368 0.0
C931 C 0.15087 0.76571 0.27183 0.0
C932 C 0.20668 0.72658 0.23329 0.0
C933 C 0.12897 0.77417 0.22909 0.0
C934 C 0.14589 0.75973 0.18871 0.0
C935 C 0.19694 0.71471 0.15067 0.0
C936 C 0.22979 0.68349 0.15337 0.0
C937 C 0.18398 0.73491 0.1905 0.0
C938 C 0.25398 0.67725 0.19544 0.0
C939 C 0.24286 0.69916 0.23506 0.0
H940 H 0.5433 0.11584 0.96775 0.0
H941 H 0.49209 0.23098 0.03065 0.0
H942 H 0.5058 0.19848 0.10623 0.0
H943 H 0.5475 0.14621 0.15448 0.0
H944 H 0.60036 0.03231 0.09224 0.0
H945 H 0.57024 0.05527 0.01687 0.0
C946 C 0.5343 0.13342 0.9979 0.0
C947 C 0.51805 0.17656 0.99341 0.0
C948 C 0.54278 0.11482 0.04163 0.0
C949 C 0.50557 0.19823 0.03291 0.0
C950 C 0.51344 0.17969 0.07633 0.0
C951 C 0.55018 0.12503 0.12461 0.0
C952 C 0.57599 0.08766 0.12879 0.0
C953 C 0.53413 0.1392 0.08117 0.0
C954 C 0.58001 0.06079 0.08993 0.0
C955 C 0.56343 0.07429 0.04669 0.0
H956 H 0.10417 0.26295 0.2779 0.0
H957 H 0.17674 0.37378 0.20422 0.0
H958 H 0.22787 0.39461 0.2721 0.0
H959 H 0.24484 0.38826 0.35487 0.0
H960 H 0.17008 0.28075 0.43027 0.0
H961 H 0.12834 0.25038 0.35919 0.0
C962 C 0.13159 0.29126 0.27661 0.0
C963 C 0.13638 0.31705 0.23615 0.0
C964 C 0.16094 0.30322 0.31598 0.0
C965 C 0.17242 0.35326 0.2348 0.0
C966 C 0.20171 0.36525 0.27363 0.0
C967 C 0.22081 0.35702 0.35525 0.0
C968 C 0.21092 0.33622 0.39734 0.0
C969 C 0.19554 0.34126 0.31468 0.0
C970 C 0.17883 0.29659 0.39797 0.0
C971 C 0.15444 0.27979 0.35746 0.0
H972 H 0.0349 0.87315 0.56616 0.0
H973 H 0.97745 0.97298 0.47939 0.0
H974 H 0.95139 0.01019 0.54621 0.0
H975 H 0.93858 0.00953 0.62875 0.0
H976 H 0.99763 0.91076 0.71592 0.0
H977 H 0.031 0.87889 0.65017 0.0
C978 C 0.01724 0.90342 0.56216 0.0
C979 C 0.0084 0.92063 0.51805 0.0
C980 C 1.00311 0.92504 0.60089 0.0
C981 C 0.98539 0.95982 0.51312 0.0
C982 C 0.97038 0.98095 0.55127 0.0
C983 C 0.96049 0.98241 0.6335 0.0
C984 C 0.96648 0.96304 0.6771 0.0
C985 C 0.97857 0.96357 0.59531 0.0
C986 C 0.99367 0.9269 0.68277 0.0
C987 C 0.01187 0.90806 0.64505 0.0
H988 H 0.35943 0.78529 0.79378 0.0
H989 H 0.36152 0.66404 0.71146 0.0
H990 H 0.31669 0.61788 0.76665 0.0
H991 H 0.28827 0.6103 0.84343 0.0
H992 H 0.29738 0.72918 0.93129 0.0
H993 H 0.32573 0.77821 0.86878 0.0
C994 C 0.34929 0.74892 0.7877 0.0
C995 C 0.36395 0.72783 0.74899 0.0
C996 C 0.32526 0.72237 0.82055 0.0
C997 C 0.35114 0.68064 0.74151 0.0
C998 C 0.32538 0.65441 0.77287 0.0
C999 C 0.29463 0.64726 0.84817 0.0
C1000 C 0.29106 0.66616 0.89181 0.0
C1001 C 0.31359 0.67466 0.81319 0.0
C1002 C 0.29934 0.71396 0.89784 0.0
C1003 C 0.31602 0.74193 0.86225 0.0
H1004 H 0.49341 0.48768 0.89423 0.0
H1005 H 0.57684 0.59974 0.9651 0.0
H1006 H 0.50911 0.62067 1.00171 0.0
H1007 H 0.42439 0.6122 1.00561 0.0
H1008 H 0.34124 0.49834 0.9369 0.0
H1009 H 0.41038 0.4717 0.90849 0.0
C1010 C 0.49644 0.51642 0.91795 0.0
C1011 C 0.53954 0.54264 0.9268 0.0
C1012 C 0.45749 0.52751 0.93939 0.0
C1013 C 0.54379 0.57928 0.95813 0.0
C1014 C 0.50512 0.59124 0.9788 0.0
C1015 C 0.42181 0.58045 0.98612 0.0
C1016 C 0.37807 0.55666 0.97405 0.0
C1017 C 0.4616 0.5662 0.96888 0.0
C1018 C 0.37477 0.51634 0.94763 0.0
C1019 C 0.41418 0.50172 0.9306 0.0
H1020 H 0.79722 0.28231 0.09782 0.0
H1021 H 0.75079 0.36035 0.20686 0.0
H1022 H 0.72714 0.28968 0.24772 0.0
H1023 H 0.70534 0.20545 0.2442 0.0
H1024 H 0.74868 0.12829 0.13313 0.0
H1025 H 0.78711 0.19847 0.101 0.0
C1026 C 0.78275 0.284 0.13093 0.0
C1027 C 0.77483 0.32667 0.14869 0.0
C1028 C 0.76809 0.24307 0.15366 0.0
C1029 C 0.75674 0.32806 0.19205 0.0
C1030 C 0.74302 0.28753 0.21542 0.0
C1031 C 0.72537 0.20392 0.21439 0.0
C1032 C 0.72473 0.16189 0.19124 0.0
C1033 C 0.74662 0.24474 0.19554 0.0
C1034 C 0.74957 0.16025 0.15188 0.0
C1035 C 0.77099 0.20047 0.13318 0.0
H1036 H 0.01528 0.50466 0.4778 0.0
H1037 H 0.07631 0.57645 0.36379 0.0
H1038 H 0.15159 0.55409 0.38879 0.0
H1039 H 0.19562 0.50179 0.43381 0.0
H1040 H 0.13383 0.42557 0.54467 0.0
H1041 H 0.06385 0.4633 0.53176 0.0
C1042 C 0.04531 0.5164 0.45927 0.0
C1043 C 0.04012 0.54128 0.41843 0.0
C1044 C 0.08834 0.50253 0.4734 0.0
C1045 C 0.07936 0.55639 0.3947 0.0
C1046 C 0.12239 0.54373 0.40906 0.0
C1047 C 0.16752 0.49512 0.45635 0.0
C1048 C 0.16967 0.46139 0.49025 0.0
C1049 C 0.12677 0.51505 0.44707 0.0
C1050 C 0.13297 0.45202 0.51883 0.0
C1051 C 0.09273 0.47299 0.51088 0.0
H1052 H 0.79033 0.73566 0.70603 0.0
H1053 H 0.7352 0.79621 0.58301 0.0
H1054 H 0.74779 0.87178 0.61926 0.0
H1055 H 0.79063 0.92172 0.67838 0.0
H1056 H 0.85212 0.86258 0.79844 0.0
H1057 H 0.81968 0.7857 0.77189 0.0
C1058 C 0.77982 0.76518 0.68767 0.0
C1059 C 0.76296 0.76053 0.64149 0.0
C1060 C 0.78864 0.80897 0.70824 0.0
C1061 C 0.74916 0.79905 0.61827 0.0
C1062 C 0.75644 0.84234 0.63893 0.0
C1063 C 0.79465 0.89207 0.69983 0.0
C1064 C 0.82343 0.89757 0.74025 0.0
C1065 C 0.77842 0.84797 0.6829 0.0
C1066 C 0.82942 0.85908 0.76755 0.0
C1067 C 0.81167 0.81503 0.75185 0.0
H1068 H 0.58698 0.52125 0.61057 0.0
H1069 H 0.51876 0.55853 0.72925 0.0
H1070 H 0.44386 0.5396 0.68816 0.0
H1071 H 0.39859 0.49607 0.62603 0.0
H1072 H 0.46579 0.45252 0.50992 0.0
H1073 H 0.5398 0.49158 0.54151 0.0
C1074 C 0.55577 0.52635 0.62699 0.0
C1075 C 0.55836 0.53986 0.67338 0.0
C1076 C 0.51248 0.5141 0.60353 0.0
C1077 C 0.51765 0.54695 0.69397 0.0
C1078 C 0.47474 0.53615 0.67052 0.0
C1079 C 0.42912 0.49731 0.6066 0.0
C1080 C 0.42698 0.47192 0.56575 0.0
C1081 C 0.47176 0.5173 0.62631 0.0
C1082 C 0.46666 0.47268 0.54106 0.0
C1083 C 0.50911 0.49428 0.55956 0.0
H1084 H 0.76644 0.24554 0.93975 0.0
H1085 H 0.8265 0.33884 0.84035 0.0
H1086 H 0.85577 0.27539 0.80152 0.0
H1087 H 0.87187 0.19445 0.80199 0.0
H1088 H 0.80834 0.10077 0.89943 0.0
H1089 H 0.7713 0.16254 0.93195 0.0
C1090 C 0.78551 0.2517 0.90928 0.0
C1091 C 0.79469 0.29674 0.89298 0.0
C1092 C 0.80112 0.21483 0.8866 0.0
C1093 C 0.81886 0.30437 0.85315 0.0
C1094 C 0.83562 0.26813 0.83108 0.0
C1095 C 0.84825 0.1873 0.82896 0.0
C1096 C 0.84228 0.14312 0.84799 0.0
C1097 C 0.82773 0.22329 0.84803 0.0
C1098 C 0.81257 0.13436 0.88372 0.0
C1099 C 0.79213 0.16986 0.90286 0.0
H1100 H 0.96578 0.56436 0.1195 0.0
H1101 H 0.01417 0.47555 0.22492 0.0
H1102 H 0.087 0.47598 0.1886 0.0
H1103 H 0.14166 0.513 0.13546 0.0
H1104 H 0.09603 0.60788 0.03528 0.0
H1105 H 0.01764 0.59338 0.06026 0.0
C1106 C 0.99177 0.54419 0.13388 0.0
C1107 C 0.9847 0.52047 0.17521 0.0
C1108 C 0.03424 0.54572 0.11356 0.0
C1109 C 0.01895 0.49469 0.19351 0.0
C1110 C 0.06065 0.49487 0.17274 0.0
C1111 C 0.11382 0.52835 0.11748 0.0
C1112 C 0.12418 0.5605 0.08283 0.0
C1113 C 0.06934 0.52165 0.13377 0.0
C1114 C 0.08846 0.58189 0.06102 0.0
C1115 C 0.04371 0.57411 0.07581 0.0
H1116 H 0.76418 0.77011 0.33744 0.0
H1117 H 0.82426 0.84231 0.4593 0.0
H1118 H 0.8024 0.91441 0.42814 0.0
H1119 H 0.75566 0.95416 0.37174 0.0
H1120 H 0.69242 0.88175 0.25147 0.0
H1121 H 0.72703 0.81307 0.27591 0.0
C1122 C 0.77325 0.80176 0.35673 0.0
C1123 C 0.79508 0.80069 0.40103 0.0
C1124 C 0.75979 0.84308 0.33889 0.0
C1125 C 0.80664 0.84209 0.42558 0.0
C1126 C 0.79429 0.88335 0.4077 0.0
C1127 C 0.75118 0.92383 0.34994 0.0
C1128 C 0.72202 0.92303 0.30969 0.0
C1129 C 0.7695 0.88396 0.36509 0.0
C1130 C 0.71546 0.8834 0.28211 0.0
C1131 C 0.73446 0.84384 0.29651 0.0
H1132 H 0.91121 0.54461 0.5283 0.0
H1133 H 0.95492 0.60244 0.66209 0.0
H1134 H 0.99706 0.53821 0.67997 0.0
H1135 H 0.01155 0.46014 0.66345 0.0
H1136 H 0.95978 0.39606 0.53519 0.0
H1137 H 0.93271 0.46808 0.50864 0.0
C1138 C 0.93026 0.54336 0.56118 0.0
C1139 C 0.92953 0.57888 0.59358 0.0
C1140 C 0.95377 0.50508 0.5721 0.0
C1141 C 0.95492 0.57647 0.63594 0.0
C1142 C 0.97918 0.5394 0.64644 0.0
C1143 C 0.99645 0.46276 0.62878 0.0
C1144 C 0.9883 0.42316 0.60104 0.0
C1145 C 0.97791 0.50301 0.61536 0.0
C1146 C 0.96736 0.42638 0.55674 0.0
C1147 C 0.95088 0.46729 0.54207 0.0
H1148 H 0.43453 0.01551 0.50012 0.0
H1149 H 0.32614 0.06493 0.57261 0.0
H1150 H 0.35837 0.14399 0.5592 0.0
H1151 H 0.40745 0.19796 0.51384 0.0
H1152 H 0.51266 0.14927 0.43709 0.0
H1153 H 0.49258 0.0714 0.46594 0.0
C1154 C 0.41847 0.04357 0.51371 0.0
C1155 C 0.37723 0.03428 0.53624 0.0
C1156 C 0.43651 0.08918 0.50477 0.0
C1157 C 0.35729 0.07107 0.55424 0.0
C1158 C 0.37572 0.11637 0.54664 0.0
C1159 C 0.42721 0.17057 0.50515 0.0
C1160 C 0.46135 0.17902 0.47349 0.0
C1161 C 0.41398 0.12575 0.52014 0.0
C1162 C 0.48656 0.14347 0.46183 0.0
C1163 C 0.47444 0.09883 0.47764 0.0
H1164 H 0.27991 0.16742 0.77439 0.0
H1165 H 0.3354 0.21157 0.64601 0.0
H1166 H 0.27294 0.25745 0.63043 0.0
H1167 H 0.19585 0.27423 0.64595 0.0
H1168 H 0.13391 0.22248 0.7681 0.0
H1169 H 0.20539 0.19207 0.79419 0.0
C1170 C 0.27843 0.18729 0.74318 0.0
C1171 C 0.31261 0.18562 0.71149 0.0
C1172 C 0.24117 0.2129 0.7335 0.0
C1173 C 0.31027 0.21222 0.67145 0.0
C1174 C 0.27423 0.23854 0.66228 0.0
C1175 C 0.19903 0.25855 0.67948 0.0
C1176 C 0.16001 0.25116 0.70536 0.0
C1177 C 0.23885 0.23813 0.69234 0.0
C1178 C 0.16386 0.22947 0.74809 0.0
C1179 C 0.20441 0.21106 0.76239 0.0
H1180 H 0.11887 0.09171 0.97515 0.0
H1181 H 0.22322 0.0424 0.067 0.0
H1182 H 0.18664 0.96385 0.05544 0.0
H1183 H 0.13403 0.90855 0.00851 0.0
H1184 H 0.03261 0.95657 0.91322 0.0
H1185 H 0.05893 0.03599 0.93675 0.0
C1186 C 0.133 0.06391 0.99346 0.0
C1187 C 0.17441 0.07293 0.02104 0.0
C1188 C 0.11228 0.01843 0.98591 0.0
C1189 C 0.19194 0.03645 0.04484 0.0
C1190 C 0.17106 0.99142 0.03824 0.0
C1191 C 0.11618 0.93636 0.99473 0.0
C1192 C 0.0811 0.92693 0.95976 0.0
C1193 C 0.13241 0.98186 0.00742 0.0
C1194 C 0.05889 0.96308 0.94105 0.0
C1195 C 0.07427 0.00851 0.95418 0.0
H1196 H 0.73908 0.34603 0.73127 0.0
H1197 H 0.81204 0.46233 0.80582 0.0
H1198 H 0.88561 0.43572 0.79137 0.0
H1199 H 0.92905 0.38558 0.74892 0.0
H1200 H 0.85718 0.27303 0.66874 0.0
H1201 H 0.78347 0.29055 0.69552 0.0
C1202 C 0.77103 0.36503 0.74505 0.0
C1203 C 0.77002 0.40666 0.76888 0.0
C1204 C 0.81341 0.3498 0.73597 0.0
C1205 C 0.81184 0.43096 0.78635 0.0
C1206 C 0.85392 0.41554 0.77841 0.0
C1207 C 0.89734 0.36369 0.73899 0.0
C1208 C 0.89845 0.32782 0.70735 0.0
C1209 C 0.85514 0.37576 0.75221 0.0
C1210 C 0.85723 0.3002 0.69381 0.0
C1211 C 0.81502 0.31079 0.70848 0.0
H1212 H 0.59989 0.49846 0.10081 0.0
H1213 H 0.69802 0.56836 0.01235 0.0
H1214 H 0.66363 0.63924 0.02081 0.0
H1215 H 0.61131 0.68334 0.05986 0.0
H1216 H 0.51988 0.61578 0.15523 0.0
H1217 H 0.54646 0.54231 0.13802 0.0
C1218 C 0.61339 0.52888 0.08269 0.0
C1219 C 0.6516 0.52766 0.05577 0.0
C1220 C 0.59404 0.56996 0.08849 0.0
C1221 C 0.66917 0.56814 0.03374 0.0
C1222 C 0.64915 0.60868 0.03817 0.0
C1223 C 0.59497 0.65193 0.07445 0.0
C1224 C 0.56256 0.65476 0.10768 0.0
C1225 C 0.6119 0.61013 0.06586 0.0
C1226 C 0.54333 0.61424 0.1282 0.0
C1227 C 0.55907 0.57228 0.11881 0.0
H1228 H 0.32141 0.88186 0.82878 0.0
H1229 H 0.25884 0.96946 0.73069 0.0
H1230 H 0.18231 0.93315 0.74764 0.0
H1231 H 0.13332 0.88589 0.79953 0.0
H1232 H 0.19554 0.80202 0.90073 0.0
H1233 H 0.27178 0.828 0.87413 0.0
C1234 C 0.2911 0.89258 0.81058 0.0
C1235 C 0.29596 0.92898 0.7791 0.0
C1236 C 0.24701 0.87235 0.82136 0.0
C1237 C 0.2562 0.94204 0.75558 0.0
C1238 C 0.21233 0.92125 0.76523 0.0
C1239 C 0.16346 0.87149 0.81395 0.0
C1240 C 0.15897 0.84152 0.8514 0.0
C1241 C 0.2073 0.8875 0.79917 0.0
C1242 C 0.19819 0.82412 0.87104 0.0
C1243 C 0.24187 0.83939 0.85612 0.0
H1244 H 0.21233 0.20189 0.31461 0.0
H1245 H 0.27341 0.09715 0.24456 0.0
H1246 H 0.34992 0.13798 0.262 0.0
H1247 H 0.39974 0.19476 0.30934 0.0
H1248 H 0.34035 0.29697 0.38363 0.0
H1249 H 0.26314 0.26699 0.35114 0.0
C1250 C 0.24229 0.1886 0.30224 0.0
C1251 C 0.23721 0.14582 0.27947 0.0
C1252 C 0.28661 0.21187 0.31322 0.0
C1253 C 0.27636 0.12941 0.26312 0.0
C1254 C 0.32023 0.1527 0.27311 0.0
C1255 C 0.36997 0.21156 0.31676 0.0
C1256 C 0.37536 0.24805 0.3483 0.0
C1257 C 0.32584 0.19273 0.29988 0.0
C1258 C 0.33681 0.26928 0.35869 0.0
C1259 C 0.29268 0.25168 0.34069 0.0
loop_
_geom_bond_atom_site_label_1
_geom_bond_atom_site_label_2
_geom_bond_distance
_geom_bond_site_symmetry_2
_ccdc_geom_bond_type
Cu0 N1 1.999 1_455 S
Cu0 O6 1.974 . S
Cu0 N11 1.985 . S
Cu0 O20 1.959 1_455 S
N1 Cu0 1.999 1_655 S
N1 C3 1.263 . S
N1 C5 1.389 . S
N2 C3 1.358 . S
N2 C4 1.400 . S
C3 N1 1.263 . S
C3 N2 1.358 . S
C3 H9 0.930 1_655 S
C4 N2 1.400 . S
C4 C5 1.351 . S
C4 H21 0.930 . S
C5 N1 1.389 . S
C5 C4 1.351 . S
C5 H10 0.930 . S
O6 Cu0 1.974 . S
O6 C16 1.282 . S
C7 O8 1.261 1_655 S
C7 O20 1.251 . S
O8 C7 1.261 1_455 S
H9 C3 0.930 1_455 S
H10 C5 0.930 . S
N11 Cu0 1.985 . S
N11 C13 1.335 . S
N11 C14 1.390 . S
N12 C13 1.345 . S
N12 C15 1.336 . S
C13 N11 1.335 . S
C13 N12 1.345 . S
C13 H18 0.930 . S
C14 N11 1.390 . S
C14 C15 1.346 . S
C14 H19 0.930 . S
C15 N12 1.336 . S
C15 C14 1.346 . S
C15 H22 0.929 . S
C16 O6 1.282 . S
C16 O17 1.216 . S
O17 C16 1.216 . S
H18 C13 0.930 . S
H19 C14 0.930 . S
O20 Cu0 1.959 1_655 S
O20 C7 1.251 . S
H21 C4 0.930 . S
H22 C15 0.929 . S
Cu23 N24 1.999 . S
Cu23 O29 1.974 . S
Cu23 N34 1.985 . S
Cu23 O43 1.959 . S
N24 Cu23 1.999 . S
N24 C26 1.263 1_455 S
N24 C28 1.389 1_455 S
N25 C26 1.358 . S
N25 C27 1.400 . S
C26 N24 1.263 1_655 S
C26 N25 1.358 . S
C26 H32 0.930 . S
C27 N25 1.400 . S
C27 C28 1.351 . S
C27 H44 0.930 . S
C28 N24 1.389 1_655 S
C28 C27 1.351 . S
C28 H33 0.930 . S
O29 Cu23 1.974 . S
O29 C39 1.282 . S
C30 O31 1.261 . S
C30 O43 1.251 1_655 S
O31 C30 1.261 . S
H32 C26 0.930 . S
H33 C28 0.930 . S
N34 Cu23 1.985 . S
N34 C36 1.335 . S
N34 C37 1.390 . S
N35 C36 1.345 . S
N35 C38 1.336 . S
C36 N34 1.335 . S
C36 N35 1.345 . S
C36 H41 0.930 . S
C37 N34 1.390 . S
C37 C38 1.346 . S
C37 H42 0.930 . S
C38 N35 1.336 . S
C38 C37 1.346 . S
C38 H45 0.929 . S
C39 O29 1.282 . S
C39 O40 1.216 . S
O40 C39 1.216 . S
H41 C36 0.930 . S
H42 C37 0.930 . S
O43 Cu23 1.959 . S
O43 C30 1.251 1_455 S
H44 C27 0.930 . S
H45 C38 0.929 . S
Cu46 N47 1.999 . S
Cu46 O52 1.974 . S
Cu46 N57 1.985 . S
Cu46 O66 1.959 . S
N47 Cu46 1.999 . S
N47 C49 1.263 . S
N47 C51 1.389 . S
N48 C49 1.358 . S
N48 C50 1.400 . S
C49 N47 1.263 . S
C49 N48 1.358 . S
C49 H55 0.930 . S
C50 N48 1.400 . S
C50 C51 1.351 . S
C50 H67 0.930 . S
C51 N47 1.389 . S
C51 C50 1.351 . S
C51 H56 0.930 . S
O52 Cu46 1.974 . S
O52 C62 1.282 . S
C53 O54 1.261 . S
C53 O66 1.251 . S
O54 C53 1.261 . S
H55 C49 0.930 . S
H56 C51 0.930 . S
N57 Cu46 1.985 . S
N57 C59 1.335 . S
N57 C60 1.390 . S
N58 C59 1.345 . S
N58 C61 1.336 . S
C59 N57 1.335 . S
C59 N58 1.345 . S
C59 H64 0.930 . S
C60 N57 1.390 . S
C60 C61 1.346 . S
C60 H65 0.930 . S
C61 N58 1.336 . S
C61 C60 1.346 . S
C61 H68 0.929 . S
C62 O52 1.282 . S
C62 O63 1.216 . S
O63 C62 1.216 . S
H64 C59 0.930 . S
H65 C60 0.930 . S
O66 Cu46 1.959 . S
O66 C53 1.251 . S
H67 C50 0.930 . S
H68 C61 0.929 . S
Cu69 N70 1.999 . S
Cu69 O75 1.974 . S
Cu69 N80 1.985 . S
Cu69 O89 1.959 . S
N70 Cu69 1.999 . S
N70 C72 1.263 . S
N70 C74 1.389 . S
N71 C72 1.358 . S
N71 C73 1.400 . S
C72 N70 1.263 . S
C72 N71 1.358 . S
C72 H78 0.930 . S
C73 N71 1.400 . S
C73 C74 1.351 . S
C73 H90 0.930 . S
C74 N70 1.389 . S
C74 C73 1.351 . S
C74 H79 0.930 . S
O75 Cu69 1.974 . S
O75 C85 1.282 . S
C76 O77 1.261 . S
C76 O89 1.251 . S
O77 C76 1.261 . S
H78 C72 0.930 . S
H79 C74 0.930 . S
N80 Cu69 1.985 . S
N80 C82 1.335 . S
N80 C83 1.390 . S
N81 C82 1.345 . S
N81 C84 1.336 . S
C82 N80 1.335 . S
C82 N81 1.345 . S
C82 H87 0.930 . S
C83 N80 1.390 . S
C83 C84 1.346 . S
C83 H88 0.930 . S
C84 N81 1.336 . S
C84 C83 1.346 . S
C84 H91 0.929 . S
C85 O75 1.282 . S
C85 O86 1.216 . S
O86 C85 1.216 . S
H87 C82 0.930 . S
H88 C83 0.930 . S
O89 Cu69 1.959 . S
O89 C76 1.251 . S
H90 C73 0.930 . S
H91 C84 0.929 . S
Cu92 N93 1.999 1_565 S
Cu92 O98 1.974 . S
Cu92 N103 1.985 . S
Cu92 O112 1.959 1_565 S
N93 Cu92 1.999 1_545 S
N93 C95 1.263 . S
N93 C97 1.389 . S
N94 C95 1.358 . S
N94 C96 1.400 . S
C95 N93 1.263 . S
C95 N94 1.358 . S
C95 H101 0.930 . S
C96 N94 1.400 . S
C96 C97 1.351 . S
C96 H113 0.930 . S
C97 N93 1.389 . S
C97 C96 1.351 . S
C97 H102 0.930 . S
O98 Cu92 1.974 . S
O98 C108 1.282 . S
C99 O100 1.261 . S
C99 O112 1.251 . S
O100 C99 1.261 . S
H101 C95 0.930 . S
H102 C97 0.930 . S
N103 Cu92 1.985 . S
N103 C105 1.335 . S
N103 C106 1.390 . S
N104 C105 1.345 . S
N104 C107 1.336 . S
C105 N103 1.335 . S
C105 N104 1.345 . S
C105 H110 0.930 . S
C106 N103 1.390 . S
C106 C107 1.346 . S
C106 H111 0.930 . S
C107 N104 1.336 . S
C107 C106 1.346 . S
C107 H114 0.929 . S
C108 O98 1.282 . S
C108 O109 1.216 . S
O109 C108 1.216 . S
H110 C105 0.930 . S
H111 C106 0.930 . S
O112 Cu92 1.959 1_545 S
O112 C99 1.251 . S
H113 C96 0.930 . S
H114 C107 0.929 . S
Cu115 N116 1.999 . S
Cu115 O121 1.974 . S
Cu115 N126 1.985 . S
Cu115 O135 1.959 . S
N116 Cu115 1.999 . S
N116 C118 1.263 . S
N116 C120 1.389 . S
N117 C118 1.358 . S
N117 C119 1.400 . S
C118 N116 1.263 . S
C118 N117 1.358 . S
C118 H124 0.930 . S
C119 N117 1.400 . S
C119 C120 1.351 . S
C119 H136 0.930 . S
C120 N116 1.389 . S
C120 C119 1.351 . S
C120 H125 0.930 . S
O121 Cu115 1.974 . S
O121 C131 1.282 . S
C122 O123 1.261 . S
C122 O135 1.251 . S
O123 C122 1.261 . S
H124 C118 0.930 . S
H125 C120 0.930 . S
N126 Cu115 1.985 . S
N126 C128 1.335 1_565 S
N126 C129 1.390 . S
N127 C128 1.345 . S
N127 C130 1.336 1_545 S
C128 N126 1.335 1_545 S
C128 N127 1.345 . S
C128 H133 0.930 . S
C129 N126 1.390 . S
C129 C130 1.346 . S
C129 H134 0.930 . S
C130 N127 1.336 1_565 S
C130 C129 1.346 . S
C130 H137 0.929 . S
C131 O121 1.282 . S
C131 O132 1.216 . S
O132 C131 1.216 . S
H133 C128 0.930 . S
H134 C129 0.930 . S
O135 Cu115 1.959 . S
O135 C122 1.251 . S
H136 C119 0.930 . S
H137 C130 0.929 . S
Cu138 N139 1.999 . S
Cu138 O144 1.974 . S
Cu138 N149 1.985 . S
Cu138 O158 1.959 . S
N139 Cu138 1.999 . S
N139 C141 1.263 1_545 S
N139 C143 1.389 1_545 S
N140 C141 1.358 . S
N140 C142 1.400 . S
C141 N139 1.263 1_565 S
C141 N140 1.358 . S
C141 H147 0.930 . S
C142 N140 1.400 . S
C142 C143 1.351 . S
C142 H159 0.930 . S
C143 N139 1.389 1_565 S
C143 C142 1.351 . S
C143 H148 0.927 1_565 S
O144 Cu138 1.974 . S
O144 C154 1.282 . S
C145 O146 1.261 . S
C145 O158 1.251 1_565 S
O146 C145 1.261 . S
H147 C141 0.930 . S
H148 C143 0.927 1_545 S
N149 Cu138 1.985 . S
N149 C151 1.335 . S
N149 C152 1.390 . S
N150 C151 1.345 . S
N150 C153 1.336 . S
C151 N149 1.335 . S
C151 N150 1.345 . S
C151 H156 0.930 . S
C152 N149 1.390 . S
C152 C153 1.346 . S
C152 H157 0.930 . S
C153 N150 1.336 . S
C153 C152 1.346 . S
C153 H160 0.929 . S
C154 O144 1.282 . S
C154 O155 1.216 . S
O155 C154 1.216 . S
H156 C151 0.930 . S
H157 C152 0.930 . S
O158 Cu138 1.959 . S
O158 C145 1.251 1_545 S
H159 C142 0.930 . S
H160 C153 0.929 . S
Cu161 N162 1.999 . S
Cu161 O167 1.974 1_556 S
Cu161 N172 1.985 1_556 S
Cu161 O181 1.959 . S
N162 Cu161 1.999 . S
N162 C164 1.263 . S
N162 C166 1.389 . S
N163 C164 1.358 . S
N163 C165 1.400 . S
C164 N162 1.263 . S
C164 N163 1.358 . S
C164 H170 0.930 . S
C165 N163 1.400 . S
C165 C166 1.351 . S
C165 H182 0.930 . S
C166 N162 1.389 . S
C166 C165 1.351 . S
C166 H171 0.930 . S
O167 Cu161 1.974 1_554 S
O167 C177 1.282 . S
C168 O169 1.261 1_556 S
C168 O181 1.251 . S
O169 C168 1.261 1_554 S
H170 C164 0.930 . S
H171 C166 0.930 . S
N172 Cu161 1.985 1_554 S
N172 C174 1.335 . S
N172 C175 1.390 . S
N173 C174 1.345 . S
N173 C176 1.336 . S
C174 N172 1.335 . S
C174 N173 1.345 . S
C174 H179 0.931 . S
C175 N172 1.390 . S
C175 C176 1.346 . S
C175 H180 0.930 . S
C176 N173 1.336 . S
C176 C175 1.346 . S
C176 H183 0.929 . S
C177 O167 1.282 . S
C177 O178 1.216 . S
O178 C177 1.216 . S
H179 C174 0.931 . S
H180 C175 0.930 . S
O181 Cu161 1.959 . S
O181 C168 1.251 . S
H182 C165 0.930 . S
H183 C176 0.929 . S
Cu184 N185 1.999 . S
Cu184 O190 1.974 1_556 S
Cu184 N195 1.985 1_556 S
Cu184 O204 1.959 . S
N185 Cu184 1.999 . S
N185 C187 1.263 . S
N185 C189 1.389 . S
N186 C187 1.358 . S
N186 C188 1.400 . S
C187 N185 1.263 . S
C187 N186 1.358 . S
C187 H193 0.930 . S
C188 N186 1.400 . S
C188 C189 1.351 . S
C188 H205 0.930 . S
C189 N185 1.389 . S
C189 C188 1.351 . S
C189 H194 0.930 . S
O190 Cu184 1.974 1_554 S
O190 C200 1.282 . S
C191 O192 1.261 1_556 S
C191 O204 1.251 . S
O192 C191 1.261 1_554 S
H193 C187 0.930 . S
H194 C189 0.930 . S
N195 Cu184 1.985 1_554 S
N195 C197 1.335 . S
N195 C198 1.390 . S
N196 C197 1.345 . S
N196 C199 1.336 . S
C197 N195 1.335 . S
C197 N196 1.345 . S
C197 H202 0.930 1_554 S
C198 N195 1.390 . S
C198 C199 1.346 . S
C198 H203 0.930 . S
C199 N196 1.336 . S
C199 C198 1.346 . S
C199 H206 0.929 . S
C200 O190 1.282 . S
C200 O201 1.216 . S
O201 C200 1.216 . S
H202 C197 0.930 1_556 S
H203 C198 0.930 . S
O204 Cu184 1.959 . S
O204 C191 1.251 . S
H205 C188 0.930 . S
H206 C199 0.929 . S
Cu207 N208 1.999 . S
Cu207 O213 1.974 . S
Cu207 N218 1.985 . S
Cu207 O227 1.959 . S
N208 Cu207 1.999 . S
N208 C210 1.263 . S
N208 C212 1.389 . S
N209 C210 1.358 . S
N209 C211 1.400 . S
C210 N208 1.263 . S
C210 N209 1.358 . S
C210 H216 0.930 . S
C211 N209 1.400 . S
C211 C212 1.351 . S
C211 H228 0.930 . S
C212 N208 1.389 . S
C212 C211 1.351 . S
C212 H217 0.930 . S
O213 Cu207 1.974 . S
O213 C223 1.282 . S
C214 O215 1.261 . S
C214 O227 1.251 . S
O215 C214 1.261 . S
H216 C210 0.930 . S
H217 C212 0.930 . S
N218 Cu207 1.985 . S
N218 C220 1.335 . S
N218 C221 1.390 . S
N219 C220 1.345 . S
N219 C222 1.336 . S
C220 N218 1.335 . S
C220 N219 1.345 . S
C220 H225 0.930 . S
C221 N218 1.390 . S
C221 C222 1.346 . S
C221 H226 0.930 . S
C222 N219 1.336 . S
C222 C221 1.346 . S
C222 H229 0.929 . S
C223 O213 1.282 . S
C223 O224 1.216 . S
O224 C223 1.216 . S
H225 C220 0.930 . S
H226 C221 0.930 . S
O227 Cu207 1.959 . S
O227 C214 1.251 . S
H228 C211 0.930 . S
H229 C222 0.929 . S
Cu230 N231 1.999 . S
Cu230 O236 1.974 . S
Cu230 N241 1.985 . S
Cu230 O250 1.959 . S
N231 Cu230 1.999 . S
N231 C233 1.263 . S
N231 C235 1.389 . S
N232 C233 1.358 . S
N232 C234 1.400 . S
C233 N231 1.263 . S
C233 N232 1.358 . S
C233 H239 0.930 . S
C234 N232 1.400 . S
C234 C235 1.351 . S
C234 H251 0.930 . S
C235 N231 1.389 . S
C235 C234 1.351 . S
C235 H240 0.930 . S
O236 Cu230 1.974 . S
O236 C246 1.282 . S
C237 O238 1.261 . S
C237 O250 1.251 . S
O238 C237 1.261 . S
H239 C233 0.930 . S
H240 C235 0.930 . S
N241 Cu230 1.985 . S
N241 C243 1.335 . S
N241 C244 1.390 . S
N242 C243 1.345 . S
N242 C245 1.336 . S
C243 N241 1.335 . S
C243 N242 1.345 . S
C243 H248 0.930 . S
C244 N241 1.390 . S
C244 C245 1.346 . S
C244 H249 0.930 . S
C245 N242 1.336 . S
C245 C244 1.346 . S
C245 H252 0.929 . S
C246 O236 1.282 . S
C246 O247 1.216 . S
O247 C246 1.216 . S
H248 C243 0.930 . S
H249 C244 0.930 . S
O250 Cu230 1.959 . S
O250 C237 1.251 . S
H251 C234 0.930 . S
H252 C245 0.929 . S
Cu253 N254 1.999 . S
Cu253 O259 1.974 . S
Cu253 N264 1.985 . S
Cu253 O273 1.959 . S
N254 Cu253 1.999 . S
N254 C256 1.263 . S
N254 C258 1.389 . S
N255 C256 1.358 . S
N255 C257 1.400 . S
C256 N254 1.263 . S
C256 N255 1.358 . S
C256 H262 0.930 . S
C257 N255 1.400 . S
C257 C258 1.351 . S
C257 H274 0.930 . S
C258 N254 1.389 . S
C258 C257 1.351 . S
C258 H263 0.930 . S
O259 Cu253 1.974 . S
O259 C269 1.282 . S
C260 O261 1.261 . S
C260 O273 1.251 . S
O261 C260 1.261 . S
H262 C256 0.930 . S
H263 C258 0.930 . S
N264 Cu253 1.985 . S
N264 C266 1.335 . S
N264 C267 1.390 . S
N265 C266 1.345 . S
N265 C268 1.336 . S
C266 N264 1.335 . S
C266 N265 1.345 . S
C266 H271 0.930 . S
C267 N264 1.390 . S
C267 C268 1.346 . S
C267 H272 0.930 . S
C268 N265 1.336 . S
C268 C267 1.346 . S
C268 H275 0.929 . S
C269 O259 1.282 . S
C269 O270 1.216 . S
O270 C269 1.216 . S
H271 C266 0.930 . S
H272 C267 0.930 . S
O273 Cu253 1.959 . S
O273 C260 1.251 . S
H274 C257 0.930 . S
H275 C268 0.929 . S
H276 C282 0.930 . S
H277 C285 0.930 1_455 S
H278 C287 0.931 . S
H279 C289 0.930 . S
H280 C291 0.930 . S
H281 C293 0.931 . S
C282 H276 0.930 . S
C282 C283 1.380 . S
C282 C284 1.394 . S
C283 C282 1.380 . S
C283 C287 1.382 1_655 S
C284 C282 1.394 . S
C284 C285 1.400 . S
C285 H277 0.930 1_655 S
C285 C284 1.400 . S
C285 C286 1.375 1_655 S
C286 C285 1.375 1_455 S
C286 C287 1.415 . S
C286 C288 1.501 . S
C287 H278 0.931 . S
C287 C283 1.382 1_455 S
C287 C286 1.415 . S
C288 C286 1.501 . S
C288 C289 1.384 . S
C288 C293 1.408 . S
C289 H279 0.930 . S
C289 C288 1.384 . S
C289 C290 1.389 . S
C290 C289 1.389 . S
C290 C291 1.405 . S
C291 H280 0.930 . S
C291 C290 1.405 . S
C291 C292 1.364 . S
C292 C291 1.364 . S
C292 C293 1.400 . S
C293 H281 0.931 . S
C293 C288 1.408 . S
C293 C292 1.400 . S
H294 C300 0.930 . S
H295 C303 0.931 . S
H296 C305 0.931 . S
H297 C307 0.930 . S
H298 C309 0.930 . S
H299 C311 0.931 . S
C300 H294 0.930 . S
C300 C301 1.380 . S
C300 C302 1.394 . S
C301 C300 1.380 . S
C301 C305 1.382 . S
C302 C300 1.394 . S
C302 C303 1.400 . S
C303 H295 0.931 . S
C303 C302 1.400 . S
C303 C304 1.375 . S
C304 C303 1.375 . S
C304 C305 1.415 . S
C304 C306 1.501 1_655 S
C305 H296 0.931 . S
C305 C301 1.382 . S
C305 C304 1.415 . S
C306 C304 1.501 1_455 S
C306 C307 1.384 . S
C306 C311 1.408 . S
C307 H297 0.930 . S
C307 C306 1.384 . S
C307 C308 1.389 . S
C308 C307 1.389 . S
C308 C309 1.405 . S
C309 H298 0.930 . S
C309 C308 1.405 . S
C309 C310 1.364 . S
C310 C309 1.364 . S
C310 C311 1.400 . S
C311 H299 0.931 . S
C311 C306 1.408 . S
C311 C310 1.400 . S
H312 C318 0.930 . S
H313 C321 0.931 . S
H314 C323 0.931 . S
H315 C325 0.930 . S
H316 C327 0.930 . S
H317 C329 0.931 . S
C318 H312 0.930 . S
C318 C319 1.380 . S
C318 C320 1.394 . S
C319 C318 1.380 . S
C319 C323 1.382 . S
C320 C318 1.394 . S
C320 C321 1.400 . S
C321 H313 0.931 . S
C321 C320 1.400 . S
C321 C322 1.375 . S
C322 C321 1.375 . S
C322 C323 1.415 . S
C322 C324 1.501 . S
C323 H314 0.931 . S
C323 C319 1.382 . S
C323 C322 1.415 . S
C324 C322 1.501 . S
C324 C325 1.384 . S
C324 C329 1.408 . S
C325 H315 0.930 . S
C325 C324 1.384 . S
C325 C326 1.389 . S
C326 C325 1.389 . S
C326 C327 1.405 . S
C327 H316 0.930 . S
C327 C326 1.405 . S
C327 C328 1.364 . S
C328 C327 1.364 . S
C328 C329 1.400 . S
C329 H317 0.931 . S
C329 C324 1.408 . S
C329 C328 1.400 . S
H330 C336 0.930 . S
H331 C339 0.931 . S
H332 C341 0.931 . S
H333 C343 0.930 . S
H334 C345 0.930 . S
H335 C347 0.931 . S
C336 H330 0.930 . S
C336 C337 1.380 . S
C336 C338 1.394 . S
C337 C336 1.380 . S
C337 C341 1.382 . S
C338 C336 1.394 . S
C338 C339 1.400 . S
C339 H331 0.931 . S
C339 C338 1.400 . S
C339 C340 1.375 . S
C340 C339 1.375 . S
C340 C341 1.415 . S
C340 C342 1.501 . S
C341 H332 0.931 . S
C341 C337 1.382 . S
C341 C340 1.415 . S
C342 C340 1.501 . S
C342 C343 1.384 . S
C342 C347 1.408 . S
C343 H333 0.930 . S
C343 C342 1.384 . S
C343 C344 1.389 . S
C344 C343 1.389 . S
C344 C345 1.405 . S
C345 H334 0.930 . S
C345 C344 1.405 . S
C345 C346 1.364 . S
C346 C345 1.364 . S
C346 C347 1.400 . S
C347 H335 0.931 . S
C347 C342 1.408 . S
C347 C346 1.400 . S
H348 C354 0.930 . S
H349 C357 0.931 . S
H350 C359 0.931 . S
H351 C361 0.930 . S
H352 C363 0.930 . S
H353 C365 0.931 . S
C354 H348 0.930 . S
C354 C355 1.380 1_565 S
C354 C356 1.394 1_565 S
C355 C354 1.380 1_545 S
C355 C359 1.382 . S
C356 C354 1.394 1_545 S
C356 C357 1.400 . S
C357 H349 0.931 . S
C357 C356 1.400 . S
C357 C358 1.375 . S
C358 C357 1.375 . S
C358 C359 1.415 . S
C358 C360 1.501 . S
C359 H350 0.931 . S
C359 C355 1.382 . S
C359 C358 1.415 . S
C360 C358 1.501 . S
C360 C361 1.384 . S
C360 C365 1.408 . S
C361 H351 0.930 . S
C361 C360 1.384 . S
C361 C362 1.389 . S
C362 C361 1.389 . S
C362 C363 1.405 . S
C363 H352 0.930 . S
C363 C362 1.405 . S
C363 C364 1.364 . S
C364 C363 1.364 . S
C364 C365 1.400 . S
C365 H353 0.931 . S
C365 C360 1.408 . S
C365 C364 1.400 . S
H366 C372 0.930 . S
H367 C375 0.931 . S
H368 C377 0.931 . S
H369 C379 0.930 . S
H370 C381 0.930 . S
H371 C383 0.931 . S
C372 H366 0.930 . S
C372 C373 1.380 . S
C372 C374 1.394 . S
C373 C372 1.380 . S
C373 C377 1.382 . S
C374 C372 1.394 . S
C374 C375 1.400 . S
C375 H367 0.931 . S
C375 C374 1.400 . S
C375 C376 1.375 . S
C376 C375 1.375 . S
C376 C377 1.415 . S
C376 C378 1.501 . S
C377 H368 0.931 . S
C377 C373 1.382 . S
C377 C376 1.415 . S
C378 C376 1.501 . S
C378 C379 1.384 . S
C378 C383 1.408 . S
C379 H369 0.930 . S
C379 C378 1.384 . S
C379 C380 1.389 . S
C380 C379 1.389 . S
C380 C381 1.405 . S
C381 H370 0.930 . S
C381 C380 1.405 . S
C381 C382 1.364 . S
C382 C381 1.364 . S
C382 C383 1.400 . S
C383 H371 0.931 . S
C383 C378 1.408 . S
C383 C382 1.400 . S
H384 C390 0.930 . S
H385 C393 0.931 . S
H386 C395 0.931 . S
H387 C397 0.930 . S
H388 C399 0.930 . S
H389 C401 0.931 1_545 S
C390 H384 0.930 . S
C390 C391 1.380 . S
C390 C392 1.394 . S
C391 C390 1.380 . S
C391 C395 1.382 . S
C392 C390 1.394 . S
C392 C393 1.400 . S
C393 H385 0.931 . S
C393 C392 1.400 . S
C393 C394 1.375 . S
C394 C393 1.375 . S
C394 C395 1.415 . S
C394 C396 1.501 . S
C395 H386 0.931 . S
C395 C391 1.382 . S
C395 C394 1.415 . S
C396 C394 1.501 . S
C396 C397 1.384 . S
C396 C401 1.408 1_545 S
C397 H387 0.930 . S
C397 C396 1.384 . S
C397 C398 1.389 1_545 S
C398 C397 1.389 1_565 S
C398 C399 1.405 . S
C399 H388 0.930 . S
C399 C398 1.405 . S
C399 C400 1.364 . S
C400 C399 1.364 . S
C400 C401 1.400 . S
C401 H389 0.931 1_565 S
C401 C396 1.408 1_565 S
C401 C400 1.400 . S
H402 C408 0.930 . S
H403 C411 0.931 1_554 S
H404 C413 0.931 . S
H405 C415 0.930 . S
H406 C417 0.930 . S
H407 C419 0.931 . S
C408 H402 0.930 . S
C408 C409 1.380 . S
C408 C410 1.394 . S
C409 C408 1.380 . S
C409 C413 1.382 . S
C410 C408 1.394 . S
C410 C411 1.400 . S
C411 H403 0.931 1_556 S
C411 C410 1.400 . S
C411 C412 1.375 1_556 S
C412 C411 1.375 1_554 S
C412 C413 1.415 1_554 S
C412 C414 1.501 . S
C413 H404 0.931 . S
C413 C409 1.382 . S
C413 C412 1.415 1_556 S
C414 C412 1.501 . S
C414 C415 1.384 . S
C414 C419 1.408 . S
C415 H405 0.930 . S
C415 C414 1.384 . S
C415 C416 1.389 . S
C416 C415 1.389 . S
C416 C417 1.405 . S
C417 H406 0.930 . S
C417 C416 1.405 . S
C417 C418 1.364 . S
C418 C417 1.364 . S
C418 C419 1.400 . S
C419 H407 0.931 . S
C419 C414 1.408 . S
C419 C418 1.400 . S
H420 C426 0.930 . S
H421 C429 0.931 1_554 S
H422 C431 0.931 . S
H423 C433 0.930 . S
H424 C435 0.930 . S
H425 C437 0.931 . S
C426 H420 0.930 . S
C426 C427 1.380 . S
C426 C428 1.394 . S
C427 C426 1.380 . S
C427 C431 1.382 . S
C428 C426 1.394 . S
C428 C429 1.400 . S
C429 H421 0.931 1_556 S
C429 C428 1.400 . S
C429 C430 1.375 1_556 S
C430 C429 1.375 1_554 S
C430 C431 1.415 1_554 S
C430 C432 1.501 . S
C431 H422 0.931 . S
C431 C427 1.382 . S
C431 C430 1.415 1_556 S
C432 C430 1.501 . S
C432 C433 1.384 . S
C432 C437 1.408 . S
C433 H423 0.930 . S
C433 C432 1.384 . S
C433 C434 1.389 . S
C434 C433 1.389 . S
C434 C435 1.405 . S
C435 H424 0.930 . S
C435 C434 1.405 . S
C435 C436 1.364 . S
C436 C435 1.364 . S
C436 C437 1.400 . S
C437 H425 0.931 . S
C437 C432 1.408 . S
C437 C436 1.400 . S
H438 C444 0.930 . S
H439 C447 0.931 . S
H440 C449 0.931 . S
H441 C451 0.930 . S
H442 C453 0.930 . S
H443 C455 0.931 . S
C444 H438 0.930 . S
C444 C445 1.380 . S
C444 C446 1.394 . S
C445 C444 1.380 . S
C445 C449 1.382 . S
C446 C444 1.394 . S
C446 C447 1.400 . S
C447 H439 0.931 . S
C447 C446 1.400 . S
C447 C448 1.375 . S
C448 C447 1.375 . S
C448 C449 1.415 . S
C448 C450 1.501 . S
C449 H440 0.931 . S
C449 C445 1.382 . S
C449 C448 1.415 . S
C450 C448 1.501 . S
C450 C451 1.384 . S
C450 C455 1.408 . S
C451 H441 0.930 . S
C451 C450 1.384 . S
C451 C452 1.389 . S
C452 C451 1.389 . S
C452 C453 1.405 . S
C453 H442 0.930 . S
C453 C452 1.405 . S
C453 C454 1.364 . S
C454 C453 1.364 . S
C454 C455 1.400 . S
C455 H443 0.931 . S
C455 C450 1.408 . S
C455 C454 1.400 . S
H456 C462 0.930 . S
H457 C465 0.931 . S
H458 C467 0.931 . S
H459 C469 0.930 . S
H460 C471 0.930 . S
H461 C473 0.931 . S
C462 H456 0.930 . S
C462 C463 1.380 . S
C462 C464 1.394 . S
C463 C462 1.380 . S
C463 C467 1.382 . S
C464 C462 1.394 . S
C464 C465 1.400 . S
C465 H457 0.931 . S
C465 C464 1.400 . S
C465 C466 1.375 . S
C466 C465 1.375 . S
C466 C467 1.415 . S
C466 C468 1.501 . S
C467 H458 0.931 . S
C467 C463 1.382 . S
C467 C466 1.415 . S
C468 C466 1.501 . S
C468 C469 1.384 . S
C468 C473 1.408 . S
C469 H459 0.930 . S
C469 C468 1.384 . S
C469 C470 1.389 . S
C470 C469 1.389 . S
C470 C471 1.405 . S
C471 H460 0.930 . S
C471 C470 1.405 . S
C471 C472 1.364 . S
C472 C471 1.364 . S
C472 C473 1.400 . S
C473 H461 0.931 . S
C473 C468 1.408 . S
C473 C472 1.400 . S
H474 C480 0.930 . S
H475 C483 0.931 . S
H476 C485 0.931 . S
H477 C487 0.930 . S
H478 C489 0.930 . S
H479 C491 0.931 . S
C480 H474 0.930 . S
C480 C481 1.380 . S
C480 C482 1.394 . S
C481 C480 1.380 . S
C481 C485 1.382 . S
C482 C480 1.394 . S
C482 C483 1.400 . S
C483 H475 0.931 . S
C483 C482 1.400 . S
C483 C484 1.375 . S
C484 C483 1.375 . S
C484 C485 1.415 . S
C484 C486 1.501 . S
C485 H476 0.931 . S
C485 C481 1.382 . S
C485 C484 1.415 . S
C486 C484 1.501 . S
C486 C487 1.384 . S
C486 C491 1.408 . S
C487 H477 0.930 . S
C487 C486 1.384 . S
C487 C488 1.389 . S
C488 C487 1.389 . S
C488 C489 1.405 . S
C489 H478 0.930 . S
C489 C488 1.405 . S
C489 C490 1.364 . S
C490 C489 1.364 . S
C490 C491 1.400 . S
C491 H479 0.931 . S
C491 C486 1.408 . S
C491 C490 1.400 . S
H492 C498 0.914 1_554 S
H493 C501 0.930 . S
H494 C502 0.930 . S
H495 C503 0.930 . S
H496 C506 0.930 . S
H497 C507 0.930 . S
C498 H492 0.914 1_556 S
C498 C499 1.353 1_556 S
C498 C500 1.431 . S
C499 C498 1.353 1_554 S
C499 C501 1.419 1_554 S
C500 C498 1.431 . S
C500 C505 1.425 . S
C500 C507 1.409 . S
C501 H493 0.930 . S
C501 C499 1.419 1_556 S
C501 C502 1.362 . S
C502 H494 0.930 . S
C502 C501 1.362 . S
C502 C505 1.409 . S
C503 H495 0.930 . S
C503 C504 1.355 . S
C503 C505 1.415 . S
C504 C503 1.355 . S
C504 C506 1.419 . S
C505 C500 1.425 . S
C505 C502 1.409 . S
C505 C503 1.415 . S
C506 H496 0.930 . S
C506 C504 1.419 . S
C506 C507 1.362 . S
C507 H497 0.930 . S
C507 C500 1.409 . S
C507 C506 1.362 . S
H508 C514 0.930 . S
H509 C517 0.930 . S
H510 C518 0.930 . S
H511 C519 0.930 . S
H512 C522 0.930 . S
H513 C523 0.930 . S
C514 H508 0.930 . S
C514 C515 1.355 . S
C514 C516 1.415 . S
C515 C514 1.355 . S
C515 C517 1.419 . S
C516 C514 1.415 . S
C516 C521 1.425 . S
C516 C523 1.409 . S
C517 H509 0.930 . S
C517 C515 1.419 . S
C517 C518 1.362 . S
C518 H510 0.930 . S
C518 C517 1.362 . S
C518 C521 1.409 . S
C519 H511 0.930 . S
C519 C520 1.355 . S
C519 C521 1.415 . S
C520 C519 1.355 . S
C520 C522 1.419 . S
C521 C516 1.425 . S
C521 C518 1.409 . S
C521 C519 1.415 . S
C522 H512 0.930 . S
C522 C520 1.419 . S
C522 C523 1.362 . S
C523 H513 0.930 . S
C523 C516 1.409 . S
C523 C522 1.362 . S
H524 C530 0.930 . S
H525 C533 0.930 . S
H526 C534 0.930 . S
H527 C535 0.930 . S
H528 C538 0.930 . S
H529 C539 0.930 . S
C530 H524 0.930 . S
C530 C531 1.355 . S
C530 C532 1.415 . S
C531 C530 1.355 . S
C531 C533 1.419 . S
C532 C530 1.415 . S
C532 C537 1.425 . S
C532 C539 1.409 . S
C533 H525 0.930 . S
C533 C531 1.419 . S
C533 C534 1.362 . S
C534 H526 0.930 . S
C534 C533 1.362 . S
C534 C537 1.409 . S
C535 H527 0.930 . S
C535 C536 1.355 . S
C535 C537 1.415 . S
C536 C535 1.355 . S
C536 C538 1.419 . S
C537 C532 1.425 . S
C537 C534 1.409 . S
C537 C535 1.415 . S
C538 H528 0.930 . S
C538 C536 1.419 . S
C538 C539 1.362 . S
C539 H529 0.930 . S
C539 C532 1.409 . S
C539 C538 1.362 . S
H540 C546 0.930 . S
H541 C549 0.930 . S
H542 C550 0.930 . S
H543 C551 0.930 . S
H544 C554 0.930 . S
H545 C555 0.930 . S
C546 H540 0.930 . S
C546 C547 1.355 . S
C546 C548 1.415 . S
C547 C546 1.355 . S
C547 C549 1.419 . S
C548 C546 1.415 . S
C548 C553 1.425 . S
C548 C555 1.409 . S
C549 H541 0.930 . S
C549 C547 1.419 . S
C549 C550 1.362 . S
C550 H542 0.930 . S
C550 C549 1.362 . S
C550 C553 1.409 . S
C551 H543 0.930 . S
C551 C552 1.355 . S
C551 C553 1.415 . S
C552 C551 1.355 . S
C552 C554 1.419 . S
C553 C548 1.425 . S
C553 C550 1.409 . S
C553 C551 1.415 . S
C554 H544 0.930 . S
C554 C552 1.419 . S
C554 C555 1.362 . S
C555 H545 0.930 . S
C555 C548 1.409 . S
C555 C554 1.362 . S
H556 C562 0.930 . S
H557 C565 0.930 . S
H558 C566 0.930 . S
H559 C567 0.930 . S
H560 C570 0.930 . S
H561 C571 0.930 1_655 S
C562 H556 0.930 . S
C562 C563 1.355 . S
C562 C564 1.415 . S
C563 C562 1.355 . S
C563 C565 1.419 . S
C564 C562 1.415 . S
C564 C569 1.425 . S
C564 C571 1.409 . S
C565 H557 0.930 . S
C565 C563 1.419 . S
C565 C566 1.362 . S
C566 H558 0.930 . S
C566 C565 1.362 . S
C566 C569 1.409 . S
C567 H559 0.930 . S
C567 C568 1.355 . S
C567 C569 1.415 . S
C568 C567 1.355 . S
C568 C570 1.419 . S
C569 C564 1.425 . S
C569 C566 1.409 . S
C569 C567 1.415 . S
C570 H560 0.930 . S
C570 C568 1.419 . S
C570 C571 1.362 . S
C571 H561 0.930 1_455 S
C571 C564 1.409 . S
C571 C570 1.362 . S
H572 C578 0.930 . S
H573 C581 0.930 . S
H574 C582 0.930 . S
H575 C583 0.930 . S
H576 C586 0.930 . S
H577 C587 0.930 . S
C578 H572 0.930 . S
C578 C579 1.355 . S
C578 C580 1.415 . S
C579 C578 1.355 . S
C579 C581 1.419 . S
C580 C578 1.415 . S
C580 C585 1.425 . S
C580 C587 1.409 . S
C581 H573 0.930 . S
C581 C579 1.419 . S
C581 C582 1.362 . S
C582 H574 0.930 . S
C582 C581 1.362 . S
C582 C585 1.409 . S
C583 H575 0.930 . S
C583 C584 1.355 . S
C583 C585 1.415 . S
C584 C583 1.355 . S
C584 C586 1.419 . S
C585 C580 1.425 . S
C585 C582 1.409 . S
C585 C583 1.415 . S
C586 H576 0.930 . S
C586 C584 1.419 . S
C586 C587 1.362 . S
C587 H577 0.930 . S
C587 C580 1.409 . S
C587 C586 1.362 . S
H588 C594 0.930 . S
H589 C597 0.930 . S
H590 C598 0.930 . S
H591 C599 0.930 . S
H592 C602 0.930 . S
H593 C603 0.930 . S
C594 H588 0.930 . S
C594 C595 1.355 . S
C594 C596 1.415 . S
C595 C594 1.355 . S
C595 C597 1.419 . S
C596 C594 1.415 . S
C596 C601 1.425 . S
C596 C603 1.409 . S
C597 H589 0.930 . S
C597 C595 1.419 . S
C597 C598 1.362 . S
C598 H590 0.930 . S
C598 C597 1.362 . S
C598 C601 1.409 . S
C599 H591 0.930 . S
C599 C600 1.355 . S
C599 C601 1.415 . S
C600 C599 1.355 . S
C600 C602 1.419 . S
C601 C596 1.425 . S
C601 C598 1.409 . S
C601 C599 1.415 . S
C602 H592 0.930 . S
C602 C600 1.419 . S
C602 C603 1.362 . S
C603 H593 0.930 . S
C603 C596 1.409 . S
C603 C602 1.362 . S
H604 C610 0.930 . S
H605 C613 0.930 . S
H606 C614 0.930 . S
H607 C615 0.930 . S
H608 C618 0.930 . S
H609 C619 0.930 . S
C610 H604 0.930 . S
C610 C611 1.355 . S
C610 C612 1.415 . S
C611 C610 1.355 . S
C611 C613 1.419 . S
C612 C610 1.415 . S
C612 C617 1.425 . S
C612 C619 1.409 . S
C613 H605 0.930 . S
C613 C611 1.419 . S
C613 C614 1.362 . S
C614 H606 0.930 . S
C614 C613 1.362 . S
C614 C617 1.409 . S
C615 H607 0.930 . S
C615 C616 1.355 . S
C615 C617 1.415 . S
C616 C615 1.355 . S
C616 C618 1.419 . S
C617 C612 1.425 . S
C617 C614 1.409 . S
C617 C615 1.415 . S
C618 H608 0.930 . S
C618 C616 1.419 . S
C618 C619 1.362 . S
C619 H609 0.930 . S
C619 C612 1.409 . S
C619 C618 1.362 . S
H620 C626 0.930 1_455 S
H621 C629 0.930 . S
H622 C630 0.930 1_565 S
H623 C631 0.930 . S
H624 C634 0.930 . S
H625 C635 0.930 . S
C626 H620 0.930 1_655 S
C626 C627 1.355 . S
C626 C628 1.415 . S
C627 C626 1.355 . S
C627 C629 1.419 . S
C628 C626 1.415 . S
C628 C633 1.425 . S
C628 C635 1.409 . S
C629 H621 0.930 . S
C629 C627 1.419 . S
C629 C630 1.362 . S
C630 H622 0.930 1_545 S
C630 C629 1.362 . S
C630 C633 1.409 . S
C631 H623 0.930 . S
C631 C632 1.355 . S
C631 C633 1.415 . S
C632 C631 1.355 . S
C632 C634 1.419 . S
C633 C628 1.425 . S
C633 C630 1.409 . S
C633 C631 1.415 . S
C634 H624 0.930 . S
C634 C632 1.419 . S
C634 C635 1.362 . S
C635 H625 0.930 . S
C635 C628 1.409 . S
C635 C634 1.362 . S
H636 C642 0.930 . S
H637 C645 0.930 . S
H638 C646 0.930 . S
H639 C647 0.930 . S
H640 C650 0.930 . S
H641 C651 0.930 . S
C642 H636 0.930 . S
C642 C643 1.355 . S
C642 C644 1.415 . S
C643 C642 1.355 . S
C643 C645 1.419 . S
C644 C642 1.415 . S
C644 C649 1.425 . S
C644 C651 1.409 . S
C645 H637 0.930 . S
C645 C643 1.419 . S
C645 C646 1.362 . S
C646 H638 0.930 . S
C646 C645 1.362 . S
C646 C649 1.409 . S
C647 H639 0.930 . S
C647 C648 1.355 . S
C647 C649 1.415 . S
C648 C647 1.355 . S
C648 C650 1.419 . S
C649 C644 1.425 . S
C649 C646 1.409 . S
C649 C647 1.415 . S
C650 H640 0.930 . S
C650 C648 1.419 . S
C650 C651 1.362 . S
C651 H641 0.930 . S
C651 C644 1.409 . S
C651 C650 1.362 . S
H652 C658 0.930 . S
H653 C661 0.930 . S
H654 C662 0.930 . S
H655 C663 0.930 . S
H656 C666 0.930 . S
H657 C667 0.930 . S
C658 H652 0.930 . S
C658 C659 1.355 . S
C658 C660 1.415 . S
C659 C658 1.355 . S
C659 C661 1.419 . S
C660 C658 1.415 . S
C660 C665 1.425 . S
C660 C667 1.409 . S
C661 H653 0.930 . S
C661 C659 1.419 . S
C661 C662 1.362 . S
C662 H654 0.930 . S
C662 C661 1.362 . S
C662 C665 1.409 . S
C663 H655 0.930 . S
C663 C664 1.355 . S
C663 C665 1.415 . S
C664 C663 1.355 . S
C664 C666 1.419 . S
C665 C660 1.425 . S
C665 C662 1.409 . S
C665 C663 1.415 . S
C666 H656 0.930 . S
C666 C664 1.419 . S
C666 C667 1.362 . S
C667 H657 0.930 . S
C667 C660 1.409 . S
C667 C666 1.362 . S
H668 C674 0.930 . S
H669 C677 0.930 . S
H670 C678 0.930 . S
H671 C679 0.930 . S
H672 C682 0.930 . S
H673 C683 0.930 . S
C674 H668 0.930 . S
C674 C675 1.355 . S
C674 C676 1.415 . S
C675 C674 1.355 . S
C675 C677 1.419 . S
C676 C674 1.415 . S
C676 C681 1.425 . S
C676 C683 1.409 . S
C677 H669 0.930 . S
C677 C675 1.419 . S
C677 C678 1.362 . S
C678 H670 0.930 . S
C678 C677 1.362 . S
C678 C681 1.409 . S
C679 H671 0.930 . S
C679 C680 1.355 . S
C679 C681 1.415 . S
C680 C679 1.355 . S
C680 C682 1.419 . S
C681 C676 1.425 . S
C681 C678 1.409 . S
C681 C679 1.415 . S
C682 H672 0.930 . S
C682 C680 1.419 . S
C682 C683 1.362 . S
C683 H673 0.930 . S
C683 C676 1.409 . S
C683 C682 1.362 . S
H684 C690 0.930 . S
H685 C693 0.930 1_545 S
H686 C694 0.930 1_545 S
H687 C695 0.930 . S
H688 C698 0.930 . S
H689 C699 0.930 . S
C690 H684 0.930 . S
C690 C691 1.355 1_655 S
C690 C692 1.415 . S
C691 C690 1.355 1_455 S
C691 C693 1.419 . S
C692 C690 1.415 . S
C692 C697 1.425 . S
C692 C699 1.409 . S
C693 H685 0.930 1_565 S
C693 C691 1.419 . S
C693 C694 1.362 1_455 S
C694 H686 0.930 1_565 S
C694 C693 1.362 1_655 S
C694 C697 1.409 . S
C695 H687 0.930 . S
C695 C696 1.355 . S
C695 C697 1.415 . S
C696 C695 1.355 . S
C696 C698 1.419 . S
C697 C692 1.425 . S
C697 C694 1.409 . S
C697 C695 1.415 . S
C698 H688 0.930 . S
C698 C696 1.419 . S
C698 C699 1.362 . S
C699 H689 0.930 . S
C699 C692 1.409 . S
C699 C698 1.362 . S
H700 C706 0.930 . S
H701 C709 0.930 . S
H702 C710 0.930 . S
H703 C711 0.930 . S
H704 C714 0.930 . S
H705 C715 0.930 . S
C706 H700 0.930 . S
C706 C707 1.355 . S
C706 C708 1.415 . S
C707 C706 1.355 . S
C707 C709 1.419 . S
C708 C706 1.415 . S
C708 C713 1.425 . S
C708 C715 1.409 . S
C709 H701 0.930 . S
C709 C707 1.419 . S
C709 C710 1.362 . S
C710 H702 0.930 . S
C710 C709 1.362 . S
C710 C713 1.409 . S
C711 H703 0.930 . S
C711 C712 1.355 . S
C711 C713 1.415 . S
C712 C711 1.355 . S
C712 C714 1.419 . S
C713 C708 1.425 . S
C713 C710 1.409 . S
C713 C711 1.415 . S
C714 H704 0.930 . S
C714 C712 1.419 . S
C714 C715 1.362 . S
C715 H705 0.930 . S
C715 C708 1.409 . S
C715 C714 1.362 . S
H716 C722 0.930 . S
H717 C725 0.930 1_565 S
H718 C726 0.930 1_565 S
H719 C727 0.930 . S
H720 C730 0.930 . S
H721 C731 0.930 . S
C722 H716 0.930 . S
C722 C723 1.355 . S
C722 C724 1.415 . S
C723 C722 1.355 . S
C723 C725 1.419 . S
C724 C722 1.415 . S
C724 C729 1.425 . S
C724 C731 1.409 . S
C725 H717 0.930 1_545 S
C725 C723 1.419 . S
C725 C726 1.362 . S
C726 H718 0.930 1_545 S
C726 C725 1.362 . S
C726 C729 1.409 . S
C727 H719 0.930 . S
C727 C728 1.355 . S
C727 C729 1.415 . S
C728 C727 1.355 . S
C728 C730 1.419 . S
C729 C724 1.425 . S
C729 C726 1.409 . S
C729 C727 1.415 . S
C730 H720 0.930 . S
C730 C728 1.419 . S
C730 C731 1.362 . S
C731 H721 0.930 . S
C731 C724 1.409 . S
C731 C730 1.362 . S
H732 C738 0.930 . S
H733 C741 0.930 . S
H734 C742 0.930 . S
H735 C743 0.930 . S
H736 C746 0.930 . S
H737 C747 0.930 . S
C738 H732 0.930 . S
C738 C739 1.355 . S
C738 C740 1.415 . S
C739 C738 1.355 . S
C739 C741 1.419 . S
C740 C738 1.415 . S
C740 C745 1.425 . S
C740 C747 1.409 . S
C741 H733 0.930 . S
C741 C739 1.419 . S
C741 C742 1.362 . S
C742 H734 0.930 . S
C742 C741 1.362 . S
C742 C745 1.409 . S
C743 H735 0.930 . S
C743 C744 1.355 . S
C743 C745 1.415 . S
C744 C743 1.355 . S
C744 C746 1.419 . S
C745 C740 1.425 . S
C745 C742 1.409 . S
C745 C743 1.415 . S
C746 H736 0.930 . S
C746 C744 1.419 . S
C746 C747 1.362 . S
C747 H737 0.930 . S
C747 C740 1.409 . S
C747 C746 1.362 . S
H748 C754 0.930 . S
H749 C757 0.930 . S
H750 C758 0.930 . S
H751 C759 0.930 . S
H752 C762 0.930 . S
H753 C763 0.930 . S
C754 H748 0.930 . S
C754 C755 1.355 1_565 S
C754 C756 1.415 . S
C755 C754 1.355 1_545 S
C755 C757 1.419 . S
C756 C754 1.415 . S
C756 C761 1.425 . S
C756 C763 1.409 . S
C757 H749 0.930 . S
C757 C755 1.419 . S
C757 C758 1.362 . S
C758 H750 0.930 . S
C758 C757 1.362 . S
C758 C761 1.409 1_545 S
C759 H751 0.930 . S
C759 C760 1.355 . S
C759 C761 1.415 . S
C760 C759 1.355 . S
C760 C762 1.419 . S
C761 C756 1.425 . S
C761 C758 1.409 1_565 S
C761 C759 1.415 . S
C762 H752 0.930 . S
C762 C760 1.419 . S
C762 C763 1.362 . S
C763 H753 0.930 . S
C763 C756 1.409 . S
C763 C762 1.362 . S
H764 C770 0.930 . S
H765 C773 0.930 . S
H766 C774 0.930 . S
H767 C775 0.930 1_554 S
H768 C778 0.930 . S
H769 C779 0.930 . S
C770 H764 0.930 . S
C770 C771 1.355 . S
C770 C772 1.415 . S
C771 C770 1.355 . S
C771 C773 1.419 1_556 S
C772 C770 1.415 . S
C772 C777 1.425 . S
C772 C779 1.409 . S
C773 H765 0.930 . S
C773 C771 1.419 1_554 S
C773 C774 1.362 . S
C774 H766 0.930 . S
C774 C773 1.362 . S
C774 C777 1.409 1_554 S
C775 H767 0.930 1_556 S
C775 C776 1.355 . S
C775 C777 1.415 . S
C776 C775 1.355 . S
C776 C778 1.419 . S
C777 C772 1.425 . S
C777 C774 1.409 1_556 S
C777 C775 1.415 . S
C778 H768 0.930 . S
C778 C776 1.419 . S
C778 C779 1.362 . S
C779 H769 0.930 . S
C779 C772 1.409 . S
C779 C778 1.362 . S
H780 C786 0.930 . S
H781 C789 0.930 . S
H782 C790 0.930 . S
H783 C791 0.930 . S
H784 C794 0.930 . S
H785 C795 0.930 . S
C786 H780 0.930 . S
C786 C787 1.355 . S
C786 C788 1.415 . S
C787 C786 1.355 . S
C787 C789 1.419 . S
C788 C786 1.415 . S
C788 C793 1.425 . S
C788 C795 1.409 . S
C789 H781 0.930 . S
C789 C787 1.419 . S
C789 C790 1.362 . S
C790 H782 0.930 . S
C790 C789 1.362 . S
C790 C793 1.409 . S
C791 H783 0.930 . S
C791 C792 1.355 . S
C791 C793 1.415 . S
C792 C791 1.355 . S
C792 C794 1.419 . S
C793 C788 1.425 . S
C793 C790 1.409 . S
C793 C791 1.415 . S
C794 H784 0.930 . S
C794 C792 1.419 . S
C794 C795 1.362 . S
C795 H785 0.930 . S
C795 C788 1.409 . S
C795 C794 1.362 . S
H796 C802 0.930 . S
H797 C805 0.930 . S
H798 C806 0.930 . S
H799 C807 0.930 . S
H800 C810 0.930 . S
H801 C811 0.930 . S
C802 H796 0.930 . S
C802 C803 1.355 . S
C802 C804 1.415 . S
C803 C802 1.355 . S
C803 C805 1.419 . S
C804 C802 1.415 . S
C804 C809 1.425 . S
C804 C811 1.409 . S
C805 H797 0.930 . S
C805 C803 1.419 . S
C805 C806 1.362 . S
C806 H798 0.930 . S
C806 C805 1.362 . S
C806 C809 1.409 . S
C807 H799 0.930 . S
C807 C808 1.355 . S
C807 C809 1.415 . S
C808 C807 1.355 . S
C808 C810 1.419 . S
C809 C804 1.425 . S
C809 C806 1.409 . S
C809 C807 1.415 . S
C810 H800 0.930 . S
C810 C808 1.419 . S
C810 C811 1.362 . S
C811 H801 0.930 . S
C811 C804 1.409 . S
C811 C810 1.362 . S
H812 C818 0.930 . S
H813 C821 0.930 . S
H814 C822 0.930 . S
H815 C823 0.930 . S
H816 C826 0.930 . S
H817 C827 0.930 . S
C818 H812 0.930 . S
C818 C819 1.355 . S
C818 C820 1.415 . S
C819 C818 1.355 . S
C819 C821 1.419 . S
C820 C818 1.415 . S
C820 C825 1.425 . S
C820 C827 1.409 . S
C821 H813 0.930 . S
C821 C819 1.419 . S
C821 C822 1.362 . S
C822 H814 0.930 . S
C822 C821 1.362 . S
C822 C825 1.409 . S
C823 H815 0.930 . S
C823 C824 1.355 . S
C823 C825 1.415 . S
C824 C823 1.355 . S
C824 C826 1.419 . S
C825 C820 1.425 . S
C825 C822 1.409 . S
C825 C823 1.415 . S
C826 H816 0.930 . S
C826 C824 1.419 . S
C826 C827 1.362 . S
C827 H817 0.930 . S
C827 C820 1.409 . S
C827 C826 1.362 . S
H828 C834 0.930 . S
H829 C837 0.930 . S
H830 C838 0.930 . S
H831 C839 0.930 . S
H832 C842 0.930 . S
H833 C843 0.930 . S
C834 H828 0.930 . S
C834 C835 1.355 . S
C834 C836 1.415 . S
C835 C834 1.355 . S
C835 C837 1.419 . S
C836 C834 1.415 . S
C836 C841 1.425 . S
C836 C843 1.409 . S
C837 H829 0.930 . S
C837 C835 1.419 . S
C837 C838 1.362 . S
C838 H830 0.930 . S
C838 C837 1.362 . S
C838 C841 1.409 . S
C839 H831 0.930 . S
C839 C840 1.355 . S
C839 C841 1.415 . S
C840 C839 1.355 . S
C840 C842 1.419 . S
C841 C836 1.425 . S
C841 C838 1.409 . S
C841 C839 1.415 . S
C842 H832 0.930 . S
C842 C840 1.419 . S
C842 C843 1.362 . S
C843 H833 0.930 . S
C843 C836 1.409 . S
C843 C842 1.362 . S
H844 C850 0.930 . S
H845 C853 0.930 . S
H846 C854 0.930 . S
H847 C855 0.930 . S
H848 C858 0.930 . S
H849 C859 0.930 . S
C850 H844 0.930 . S
C850 C851 1.355 . S
C850 C852 1.415 . S
C851 C850 1.355 . S
C851 C853 1.419 . S
C852 C850 1.415 . S
C852 C857 1.425 . S
C852 C859 1.409 . S
C853 H845 0.930 . S
C853 C851 1.419 . S
C853 C854 1.362 . S
C854 H846 0.930 . S
C854 C853 1.362 . S
C854 C857 1.409 . S
C855 H847 0.930 . S
C855 C856 1.355 . S
C855 C857 1.415 . S
C856 C855 1.355 . S
C856 C858 1.419 . S
C857 C852 1.425 . S
C857 C854 1.409 . S
C857 C855 1.415 . S
C858 H848 0.930 . S
C858 C856 1.419 . S
C858 C859 1.362 . S
C859 H849 0.930 . S
C859 C852 1.409 . S
C859 C858 1.362 . S
H860 C866 0.930 . S
H861 C869 0.930 . S
H862 C870 0.930 . S
H863 C871 0.930 . S
H864 C874 0.930 . S
H865 C875 0.930 . S
C866 H860 0.930 . S
C866 C867 1.355 . S
C866 C868 1.415 . S
C867 C866 1.355 . S
C867 C869 1.419 . S
C868 C866 1.415 . S
C868 C873 1.425 . S
C868 C875 1.409 . S
C869 H861 0.930 . S
C869 C867 1.419 . S
C869 C870 1.362 . S
C870 H862 0.930 . S
C870 C869 1.362 . S
C870 C873 1.409 . S
C871 H863 0.930 . S
C871 C872 1.355 . S
C871 C873 1.415 . S
C872 C871 1.355 . S
C872 C874 1.419 . S
C873 C868 1.425 . S
C873 C870 1.409 . S
C873 C871 1.415 . S
C874 H864 0.930 . S
C874 C872 1.419 . S
C874 C875 1.362 . S
C875 H865 0.930 . S
C875 C868 1.409 . S
C875 C874 1.362 . S
H876 C882 0.930 . S
H877 C885 0.930 . S
H878 C886 0.930 . S
H879 C887 0.930 . S
H880 C890 0.930 . S
H881 C891 0.930 . S
C882 H876 0.930 . S
C882 C883 1.355 . S
C882 C884 1.415 . S
C883 C882 1.355 . S
C883 C885 1.419 . S
C884 C882 1.415 . S
C884 C889 1.425 . S
C884 C891 1.409 . S
C885 H877 0.930 . S
C885 C883 1.419 . S
C885 C886 1.362 . S
C886 H878 0.930 . S
C886 C885 1.362 . S
C886 C889 1.409 . S
C887 H879 0.930 . S
C887 C888 1.355 . S
C887 C889 1.415 . S
C888 C887 1.355 . S
C888 C890 1.419 . S
C889 C884 1.425 . S
C889 C886 1.409 . S
C889 C887 1.415 . S
C890 H880 0.930 . S
C890 C888 1.419 . S
C890 C891 1.362 . S
C891 H881 0.930 . S
C891 C884 1.409 . S
C891 C890 1.362 . S
H892 C898 0.930 . S
H893 C901 0.930 . S
H894 C902 0.930 . S
H895 C903 0.930 . S
H896 C906 0.930 . S
H897 C907 0.930 . S
C898 H892 0.930 . S
C898 C899 1.355 . S
C898 C900 1.415 . S
C899 C898 1.355 . S
C899 C901 1.419 . S
C900 C898 1.415 . S
C900 C905 1.425 . S
C900 C907 1.409 . S
C901 H893 0.930 . S
C901 C899 1.419 . S
C901 C902 1.362 . S
C902 H894 0.930 . S
C902 C901 1.362 . S
C902 C905 1.409 . S
C903 H895 0.930 . S
C903 C904 1.355 . S
C903 C905 1.415 . S
C904 C903 1.355 . S
C904 C906 1.419 . S
C905 C900 1.425 . S
C905 C902 1.409 . S
C905 C903 1.415 . S
C906 H896 0.930 . S
C906 C904 1.419 . S
C906 C907 1.362 . S
C907 H897 0.930 . S
C907 C900 1.409 . S
C907 C906 1.362 . S
H908 C914 0.930 . S
H909 C917 0.928 1_554 S
H910 C918 0.930 . S
H911 C919 0.930 . S
H912 C922 0.930 . S
H913 C923 0.930 . S
C914 H908 0.930 . S
C914 C915 1.355 . S
C914 C916 1.415 1_554 S
C915 C914 1.355 . S
C915 C917 1.419 1_554 S
C916 C914 1.415 1_556 S
C916 C921 1.425 . S
C916 C923 1.409 . S
C917 H909 0.928 1_556 S
C917 C915 1.419 1_556 S
C917 C918 1.362 . S
C918 H910 0.930 . S
C918 C917 1.362 . S
C918 C921 1.409 . S
C919 H911 0.930 . S
C919 C920 1.355 . S
C919 C921 1.415 . S
C920 C919 1.355 . S
C920 C922 1.419 . S
C921 C916 1.425 . S
C921 C918 1.409 . S
C921 C919 1.415 . S
C922 H912 0.930 . S
C922 C920 1.419 . S
C922 C923 1.362 . S
C923 H913 0.930 . S
C923 C916 1.409 . S
C923 C922 1.362 . S
H924 C930 0.930 . S
H925 C933 0.930 . S
H926 C934 0.930 . S
H927 C935 0.930 . S
H928 C938 0.930 . S
H929 C939 0.930 . S
C930 H924 0.930 . S
C930 C931 1.355 . S
C930 C932 1.415 . S
C931 C930 1.355 . S
C931 C933 1.419 . S
C932 C930 1.415 . S
C932 C937 1.425 . S
C932 C939 1.409 . S
C933 H925 0.930 . S
C933 C931 1.419 . S
C933 C934 1.362 . S
C934 H926 0.930 . S
C934 C933 1.362 . S
C934 C937 1.409 . S
C935 H927 0.930 . S
C935 C936 1.355 . S
C935 C937 1.415 . S
C936 C935 1.355 . S
C936 C938 1.419 . S
C937 C932 1.425 . S
C937 C934 1.409 . S
C937 C935 1.415 . S
C938 H928 0.930 . S
C938 C936 1.419 . S
C938 C939 1.362 . S
C939 H929 0.930 . S
C939 C932 1.409 . S
C939 C938 1.362 . S
H940 C946 0.930 . S
H941 C949 0.930 . S
H942 C950 0.930 . S
H943 C951 0.930 . S
H944 C954 0.930 . S
H945 C955 0.930 . S
C946 H940 0.930 . S
C946 C947 1.355 . S
C946 C948 1.415 . S
C947 C946 1.355 . S
C947 C949 1.419 . S
C948 C946 1.415 . S
C948 C953 1.425 . S
C948 C955 1.409 . S
C949 H941 0.930 . S
C949 C947 1.419 . S
C949 C950 1.362 . S
C950 H942 0.930 . S
C950 C949 1.362 . S
C950 C953 1.409 . S
C951 H943 0.930 . S
C951 C952 1.355 . S
C951 C953 1.415 . S
C952 C951 1.355 . S
C952 C954 1.419 . S
C953 C948 1.425 . S
C953 C950 1.409 . S
C953 C951 1.415 . S
C954 H944 0.930 . S
C954 C952 1.419 . S
C954 C955 1.362 . S
C955 H945 0.930 . S
C955 C948 1.409 . S
C955 C954 1.362 . S
H956 C962 0.930 . S
H957 C965 0.930 . S
H958 C966 0.930 . S
H959 C967 0.930 . S
H960 C970 0.930 . S
H961 C971 0.930 . S
C962 H956 0.930 . S
C962 C963 1.355 . S
C962 C964 1.415 . S
C963 C962 1.355 . S
C963 C965 1.419 . S
C964 C962 1.415 . S
C964 C969 1.425 . S
C964 C971 1.409 . S
C965 H957 0.930 . S
C965 C963 1.419 . S
C965 C966 1.362 . S
C966 H958 0.930 . S
C966 C965 1.362 . S
C966 C969 1.409 . S
C967 H959 0.930 . S
C967 C968 1.355 . S
C967 C969 1.415 . S
C968 C967 1.355 . S
C968 C970 1.419 . S
C969 C964 1.425 . S
C969 C966 1.409 . S
C969 C967 1.415 . S
C970 H960 0.930 . S
C970 C968 1.419 . S
C970 C971 1.362 . S
C971 H961 0.930 . S
C971 C964 1.409 . S
C971 C970 1.362 . S
H972 C978 0.930 1_455 S
H973 C981 0.930 . S
H974 C982 0.930 . S
H975 C983 0.930 . S
H976 C986 0.930 . S
H977 C987 0.930 . S
C978 H972 0.930 1_655 S
C978 C979 1.355 . S
C978 C980 1.415 . S
C979 C978 1.355 . S
C979 C981 1.419 . S
C980 C978 1.415 . S
C980 C985 1.425 . S
C980 C987 1.409 1_655 S
C981 H973 0.930 . S
C981 C979 1.419 . S
C981 C982 1.362 . S
C982 H974 0.930 . S
C982 C981 1.362 . S
C982 C985 1.409 . S
C983 H975 0.930 . S
C983 C984 1.355 . S
C983 C985 1.415 . S
C984 C983 1.355 . S
C984 C986 1.419 1_655 S
C985 C980 1.425 . S
C985 C982 1.409 . S
C985 C983 1.415 . S
C986 H976 0.930 . S
C986 C984 1.419 1_455 S
C986 C987 1.362 . S
C987 H977 0.930 . S
C987 C980 1.409 1_455 S
C987 C986 1.362 . S
H988 C994 0.930 . S
H989 C997 0.930 . S
H990 C998 0.930 . S
H991 C999 0.930 . S
H992 C1002 0.930 . S
H993 C1003 0.930 . S
C994 H988 0.930 . S
C994 C995 1.355 . S
C994 C996 1.415 . S
C995 C994 1.355 . S
C995 C997 1.419 . S
C996 C994 1.415 . S
C996 C1001 1.425 . S
C996 C1003 1.409 . S
C997 H989 0.930 . S
C997 C995 1.419 . S
C997 C998 1.362 . S
C998 H990 0.930 . S
C998 C997 1.362 . S
C998 C1001 1.409 . S
C999 H991 0.930 . S
C999 C1000 1.355 . S
C999 C1001 1.415 . S
C1000 C999 1.355 . S
C1000 C1002 1.419 . S
C1001 C996 1.425 . S
C1001 C998 1.409 . S
C1001 C999 1.415 . S
C1002 H992 0.930 . S
C1002 C1000 1.419 . S
C1002 C1003 1.362 . S
C1003 H993 0.930 . S
C1003 C996 1.409 . S
C1003 C1002 1.362 . S
H1004 C1010 0.930 . S
H1005 C1013 0.930 . S
H1006 C1014 0.930 . S
H1007 C1015 0.930 . S
H1008 C1018 0.930 . S
H1009 C1019 0.930 . S
C1010 H1004 0.930 . S
C1010 C1011 1.355 . S
C1010 C1012 1.415 . S
C1011 C1010 1.355 . S
C1011 C1013 1.419 . S
C1012 C1010 1.415 . S
C1012 C1017 1.425 . S
C1012 C1019 1.409 . S
C1013 H1005 0.930 . S
C1013 C1011 1.419 . S
C1013 C1014 1.362 . S
C1014 H1006 0.930 . S
C1014 C1013 1.362 . S
C1014 C1017 1.409 . S
C1015 H1007 0.930 . S
C1015 C1016 1.355 . S
C1015 C1017 1.415 . S
C1016 C1015 1.355 . S
C1016 C1018 1.419 . S
C1017 C1012 1.425 . S
C1017 C1014 1.409 . S
C1017 C1015 1.415 . S
C1018 H1008 0.930 . S
C1018 C1016 1.419 . S
C1018 C1019 1.362 . S
C1019 H1009 0.930 . S
C1019 C1012 1.409 . S
C1019 C1018 1.362 . S
H1020 C1026 0.930 . S
H1021 C1029 0.930 . S
H1022 C1030 0.930 . S
H1023 C1031 0.930 . S
H1024 C1034 0.930 . S
H1025 C1035 0.930 . S
C1026 H1020 0.930 . S
C1026 C1027 1.355 . S
C1026 C1028 1.415 . S
C1027 C1026 1.355 . S
C1027 C1029 1.419 . S
C1028 C1026 1.415 . S
C1028 C1033 1.425 . S
C1028 C1035 1.409 . S
C1029 H1021 0.930 . S
C1029 C1027 1.419 . S
C1029 C1030 1.362 . S
C1030 H1022 0.930 . S
C1030 C1029 1.362 . S
C1030 C1033 1.409 . S
C1031 H1023 0.930 . S
C1031 C1032 1.355 . S
C1031 C1033 1.415 . S
C1032 C1031 1.355 . S
C1032 C1034 1.419 . S
C1033 C1028 1.425 . S
C1033 C1030 1.409 . S
C1033 C1031 1.415 . S
C1034 H1024 0.930 . S
C1034 C1032 1.419 . S
C1034 C1035 1.362 . S
C1035 H1025 0.930 . S
C1035 C1028 1.409 . S
C1035 C1034 1.362 . S
H1036 C1042 0.930 . S
H1037 C1045 0.930 . S
H1038 C1046 0.930 . S
H1039 C1047 0.930 . S
H1040 C1050 0.930 . S
H1041 C1051 0.930 . S
C1042 H1036 0.930 . S
C1042 C1043 1.355 . S
C1042 C1044 1.415 . S
C1043 C1042 1.355 . S
C1043 C1045 1.419 . S
C1044 C1042 1.415 . S
C1044 C1049 1.425 . S
C1044 C1051 1.409 . S
C1045 H1037 0.930 . S
C1045 C1043 1.419 . S
C1045 C1046 1.362 . S
C1046 H1038 0.930 . S
C1046 C1045 1.362 . S
C1046 C1049 1.409 . S
C1047 H1039 0.930 . S
C1047 C1048 1.355 . S
C1047 C1049 1.415 . S
C1048 C1047 1.355 . S
C1048 C1050 1.419 . S
C1049 C1044 1.425 . S
C1049 C1046 1.409 . S
C1049 C1047 1.415 . S
C1050 H1040 0.930 . S
C1050 C1048 1.419 . S
C1050 C1051 1.362 . S
C1051 H1041 0.930 . S
C1051 C1044 1.409 . S
C1051 C1050 1.362 . S
H1052 C1058 0.930 . S
H1053 C1061 0.930 . S
H1054 C1062 0.930 . S
H1055 C1063 0.930 . S
H1056 C1066 0.930 . S
H1057 C1067 0.930 . S
C1058 H1052 0.930 . S
C1058 C1059 1.355 . S
C1058 C1060 1.415 . S
C1059 C1058 1.355 . S
C1059 C1061 1.419 . S
C1060 C1058 1.415 . S
C1060 C1065 1.425 . S
C1060 C1067 1.409 . S
C1061 H1053 0.930 . S
C1061 C1059 1.419 . S
C1061 C1062 1.362 . S
C1062 H1054 0.930 . S
C1062 C1061 1.362 . S
C1062 C1065 1.409 . S
C1063 H1055 0.930 . S
C1063 C1064 1.355 . S
C1063 C1065 1.415 . S
C1064 C1063 1.355 . S
C1064 C1066 1.419 . S
C1065 C1060 1.425 . S
C1065 C1062 1.409 . S
C1065 C1063 1.415 . S
C1066 H1056 0.930 . S
C1066 C1064 1.419 . S
C1066 C1067 1.362 . S
C1067 H1057 0.930 . S
C1067 C1060 1.409 . S
C1067 C1066 1.362 . S
H1068 C1074 0.930 . S
H1069 C1077 0.930 . S
H1070 C1078 0.930 . S
H1071 C1079 0.930 . S
H1072 C1082 0.930 . S
H1073 C1083 0.930 . S
C1074 H1068 0.930 . S
C1074 C1075 1.355 . S
C1074 C1076 1.415 . S
C1075 C1074 1.355 . S
C1075 C1077 1.419 . S
C1076 C1074 1.415 . S
C1076 C1081 1.425 . S
C1076 C1083 1.409 . S
C1077 H1069 0.930 . S
C1077 C1075 1.419 . S
C1077 C1078 1.362 . S
C1078 H1070 0.930 . S
C1078 C1077 1.362 . S
C1078 C1081 1.409 . S
C1079 H1071 0.930 . S
C1079 C1080 1.355 . S
C1079 C1081 1.415 . S
C1080 C1079 1.355 . S
C1080 C1082 1.419 . S
C1081 C1076 1.425 . S
C1081 C1078 1.409 . S
C1081 C1079 1.415 . S
C1082 H1072 0.930 . S
C1082 C1080 1.419 . S
C1082 C1083 1.362 . S
C1083 H1073 0.930 . S
C1083 C1076 1.409 . S
C1083 C1082 1.362 . S
H1084 C1090 0.930 . S
H1085 C1093 0.930 . S
H1086 C1094 0.930 . S
H1087 C1095 0.930 . S
H1088 C1098 0.930 . S
H1089 C1099 0.930 . S
C1090 H1084 0.930 . S
C1090 C1091 1.355 . S
C1090 C1092 1.415 . S
C1091 C1090 1.355 . S
C1091 C1093 1.419 . S
C1092 C1090 1.415 . S
C1092 C1097 1.425 . S
C1092 C1099 1.409 . S
C1093 H1085 0.930 . S
C1093 C1091 1.419 . S
C1093 C1094 1.362 . S
C1094 H1086 0.930 . S
C1094 C1093 1.362 . S
C1094 C1097 1.409 . S
C1095 H1087 0.930 . S
C1095 C1096 1.355 . S
C1095 C1097 1.415 . S
C1096 C1095 1.355 . S
C1096 C1098 1.419 . S
C1097 C1092 1.425 . S
C1097 C1094 1.409 . S
C1097 C1095 1.415 . S
C1098 H1088 0.930 . S
C1098 C1096 1.419 . S
C1098 C1099 1.362 . S
C1099 H1089 0.930 . S
C1099 C1092 1.409 . S
C1099 C1098 1.362 . S
H1100 C1106 0.930 1_655 S
H1101 C1109 0.930 . S
H1102 C1110 0.930 . S
H1103 C1111 0.930 . S
H1104 C1114 0.930 . S
H1105 C1115 0.930 . S
C1106 H1100 0.930 1_455 S
C1106 C1107 1.355 . S
C1106 C1108 1.415 . S
C1107 C1106 1.355 . S
C1107 C1109 1.419 . S
C1108 C1106 1.415 . S
C1108 C1113 1.425 . S
C1108 C1115 1.409 . S
C1109 H1101 0.930 . S
C1109 C1107 1.419 . S
C1109 C1110 1.362 . S
C1110 H1102 0.930 . S
C1110 C1109 1.362 . S
C1110 C1113 1.409 . S
C1111 H1103 0.930 . S
C1111 C1112 1.355 . S
C1111 C1113 1.415 . S
C1112 C1111 1.355 . S
C1112 C1114 1.419 . S
C1113 C1108 1.425 . S
C1113 C1110 1.409 . S
C1113 C1111 1.415 . S
C1114 H1104 0.930 . S
C1114 C1112 1.419 . S
C1114 C1115 1.362 . S
C1115 H1105 0.930 . S
C1115 C1108 1.409 . S
C1115 C1114 1.362 . S
H1116 C1122 0.930 . S
H1117 C1125 0.930 . S
H1118 C1126 0.930 . S
H1119 C1127 0.930 . S
H1120 C1130 0.930 . S
H1121 C1131 0.930 . S
C1122 H1116 0.930 . S
C1122 C1123 1.355 . S
C1122 C1124 1.415 . S
C1123 C1122 1.355 . S
C1123 C1125 1.419 . S
C1124 C1122 1.415 . S
C1124 C1129 1.425 . S
C1124 C1131 1.409 . S
C1125 H1117 0.930 . S
C1125 C1123 1.419 . S
C1125 C1126 1.362 . S
C1126 H1118 0.930 . S
C1126 C1125 1.362 . S
C1126 C1129 1.409 . S
C1127 H1119 0.930 . S
C1127 C1128 1.355 . S
C1127 C1129 1.415 . S
C1128 C1127 1.355 . S
C1128 C1130 1.419 . S
C1129 C1124 1.425 . S
C1129 C1126 1.409 . S
C1129 C1127 1.415 . S
C1130 H1120 0.930 . S
C1130 C1128 1.419 . S
C1130 C1131 1.362 . S
C1131 H1121 0.930 . S
C1131 C1124 1.409 . S
C1131 C1130 1.362 . S
H1132 C1138 0.930 . S
H1133 C1141 0.930 . S
H1134 C1142 0.930 . S
H1135 C1143 0.952 . S
H1136 C1146 0.930 . S
H1137 C1147 0.930 . S
C1138 H1132 0.930 . S
C1138 C1139 1.355 . S
C1138 C1140 1.415 . S
C1139 C1138 1.355 . S
C1139 C1141 1.419 . S
C1140 C1138 1.415 . S
C1140 C1145 1.425 . S
C1140 C1147 1.409 . S
C1141 H1133 0.930 . S
C1141 C1139 1.419 . S
C1141 C1142 1.362 . S
C1142 H1134 0.930 . S
C1142 C1141 1.362 . S
C1142 C1145 1.409 . S
C1143 H1135 0.952 . S
C1143 C1144 1.355 . S
C1143 C1145 1.415 . S
C1144 C1143 1.355 . S
C1144 C1146 1.419 . S
C1145 C1140 1.425 . S
C1145 C1142 1.409 . S
C1145 C1143 1.415 . S
C1146 H1136 0.930 . S
C1146 C1144 1.419 . S
C1146 C1147 1.362 . S
C1147 H1137 0.930 . S
C1147 C1140 1.409 . S
C1147 C1146 1.362 . S
H1148 C1154 0.930 . S
H1149 C1157 0.930 . S
H1150 C1158 0.930 . S
H1151 C1159 0.930 . S
H1152 C1162 0.930 . S
H1153 C1163 0.930 . S
C1154 H1148 0.930 . S
C1154 C1155 1.355 . S
C1154 C1156 1.415 . S
C1155 C1154 1.355 . S
C1155 C1157 1.419 . S
C1156 C1154 1.415 . S
C1156 C1161 1.425 . S
C1156 C1163 1.409 . S
C1157 H1149 0.930 . S
C1157 C1155 1.419 . S
C1157 C1158 1.362 . S
C1158 H1150 0.930 . S
C1158 C1157 1.362 . S
C1158 C1161 1.409 . S
C1159 H1151 0.930 . S
C1159 C1160 1.355 . S
C1159 C1161 1.415 . S
C1160 C1159 1.355 . S
C1160 C1162 1.419 . S
C1161 C1156 1.425 . S
C1161 C1158 1.409 . S
C1161 C1159 1.415 . S
C1162 H1152 0.930 . S
C1162 C1160 1.419 . S
C1162 C1163 1.362 . S
C1163 H1153 0.930 . S
C1163 C1156 1.409 . S
C1163 C1162 1.362 . S
H1164 C1170 0.930 . S
H1165 C1173 0.930 . S
H1166 C1174 0.930 . S
H1167 C1175 0.930 . S
H1168 C1178 0.930 . S
H1169 C1179 0.930 . S
C1170 H1164 0.930 . S
C1170 C1171 1.355 . S
C1170 C1172 1.415 . S
C1171 C1170 1.355 . S
C1171 C1173 1.419 . S
C1172 C1170 1.415 . S
C1172 C1177 1.425 . S
C1172 C1179 1.409 . S
C1173 H1165 0.930 . S
C1173 C1171 1.419 . S
C1173 C1174 1.362 . S
C1174 H1166 0.930 . S
C1174 C1173 1.362 . S
C1174 C1177 1.409 . S
C1175 H1167 0.930 . S
C1175 C1176 1.355 . S
C1175 C1177 1.415 . S
C1176 C1175 1.355 . S
C1176 C1178 1.419 . S
C1177 C1172 1.425 . S
C1177 C1174 1.409 . S
C1177 C1175 1.415 . S
C1178 H1168 0.930 . S
C1178 C1176 1.419 . S
C1178 C1179 1.362 . S
C1179 H1169 0.930 . S
C1179 C1172 1.409 . S
C1179 C1178 1.362 . S
H1180 C1186 0.930 . S
H1181 C1189 0.930 . S
H1182 C1190 0.930 . S
H1183 C1191 0.930 . S
H1184 C1194 0.930 . S
H1185 C1195 0.923 1_545 S
C1186 H1180 0.930 . S
C1186 C1187 1.355 . S
C1186 C1188 1.415 . S
C1187 C1186 1.355 . S
C1187 C1189 1.419 . S
C1188 C1186 1.415 . S
C1188 C1193 1.425 1_545 S
C1188 C1195 1.409 1_545 S
C1189 H1181 0.930 . S
C1189 C1187 1.419 . S
C1189 C1190 1.362 1_545 S
C1190 H1182 0.930 . S
C1190 C1189 1.362 1_565 S
C1190 C1193 1.409 . S
C1191 H1183 0.930 . S
C1191 C1192 1.355 . S
C1191 C1193 1.415 . S
C1192 C1191 1.355 . S
C1192 C1194 1.419 . S
C1193 C1188 1.425 1_565 S
C1193 C1190 1.409 . S
C1193 C1191 1.415 . S
C1194 H1184 0.930 . S
C1194 C1192 1.419 . S
C1194 C1195 1.370 . S
C1195 H1185 0.923 1_565 S
C1195 C1188 1.409 1_565 S
C1195 C1194 1.370 . S
H1196 C1202 0.930 . S
H1197 C1205 0.930 . S
H1198 C1206 0.930 . S
H1199 C1207 0.930 . S
H1200 C1210 0.930 . S
H1201 C1211 0.930 . S
C1202 H1196 0.930 . S
C1202 C1203 1.355 . S
C1202 C1204 1.415 . S
C1203 C1202 1.355 . S
C1203 C1205 1.419 . S
C1204 C1202 1.415 . S
C1204 C1209 1.425 . S
C1204 C1211 1.409 . S
C1205 H1197 0.930 . S
C1205 C1203 1.419 . S
C1205 C1206 1.362 . S
C1206 H1198 0.930 . S
C1206 C1205 1.362 . S
C1206 C1209 1.409 . S
C1207 H1199 0.930 . S
C1207 C1208 1.355 . S
C1207 C1209 1.415 . S
C1208 C1207 1.355 . S
C1208 C1210 1.419 . S
C1209 C1204 1.425 . S
C1209 C1206 1.409 . S
C1209 C1207 1.415 . S
C1210 H1200 0.930 . S
C1210 C1208 1.419 . S
C1210 C1211 1.362 . S
C1211 H1201 0.930 . S
C1211 C1204 1.409 . S
C1211 C1210 1.362 . S
H1212 C1218 0.930 . S
H1213 C1221 0.930 . S
H1214 C1222 0.930 . S
H1215 C1223 0.930 . S
H1216 C1226 0.930 . S
H1217 C1227 0.930 . S
C1218 H1212 0.930 . S
C1218 C1219 1.355 . S
C1218 C1220 1.415 . S
C1219 C1218 1.355 . S
C1219 C1221 1.419 . S
C1220 C1218 1.415 . S
C1220 C1225 1.425 . S
C1220 C1227 1.409 . S
C1221 H1213 0.930 . S
C1221 C1219 1.419 . S
C1221 C1222 1.362 . S
C1222 H1214 0.930 . S
C1222 C1221 1.362 . S
C1222 C1225 1.409 . S
C1223 H1215 0.930 . S
C1223 C1224 1.355 . S
C1223 C1225 1.415 . S
C1224 C1223 1.355 . S
C1224 C1226 1.419 . S
C1225 C1220 1.425 . S
C1225 C1222 1.409 . S
C1225 C1223 1.415 . S
C1226 H1216 0.930 . S
C1226 C1224 1.419 . S
C1226 C1227 1.362 . S
C1227 H1217 0.930 . S
C1227 C1220 1.409 . S
C1227 C1226 1.362 . S
H1228 C1234 0.930 . S
H1229 C1237 0.930 1_545 S
H1230 C1238 0.930 1_545 S
H1231 C1239 0.930 . S
H1232 C1242 0.930 . S
H1233 C1243 0.930 . S
C1234 H1228 0.930 . S
C1234 C1235 1.355 . S
C1234 C1236 1.415 . S
C1235 C1234 1.355 . S
C1235 C1237 1.419 . S
C1236 C1234 1.415 . S
C1236 C1241 1.425 . S
C1236 C1243 1.409 . S
C1237 H1229 0.930 1_565 S
C1237 C1235 1.419 . S
C1237 C1238 1.362 . S
C1238 H1230 0.930 1_565 S
C1238 C1237 1.362 . S
C1238 C1241 1.409 . S
C1239 H1231 0.930 . S
C1239 C1240 1.355 . S
C1239 C1241 1.415 . S
C1240 C1239 1.355 . S
C1240 C1242 1.419 . S
C1241 C1236 1.425 . S
C1241 C1238 1.409 . S
C1241 C1239 1.415 . S
C1242 H1232 0.930 . S
C1242 C1240 1.419 . S
C1242 C1243 1.362 . S
C1243 H1233 0.930 . S
C1243 C1236 1.409 . S
C1243 C1242 1.362 . S
H1244 C1250 0.930 . S
H1245 C1253 0.930 . S
H1246 C1254 0.930 . S
H1247 C1255 0.930 . S
H1248 C1258 0.930 . S
H1249 C1259 0.930 . S
C1250 H1244 0.930 . S
C1250 C1251 1.355 . S
C1250 C1252 1.415 . S
C1251 C1250 1.355 . S
C1251 C1253 1.419 . S
C1252 C1250 1.415 . S
C1252 C1257 1.425 . S
C1252 C1259 1.409 . S
C1253 H1245 0.930 . S
C1253 C1251 1.419 . S
C1253 C1254 1.362 . S
C1254 H1246 0.930 . S
C1254 C1253 1.362 . S
C1254 C1257 1.409 . S
C1255 H1247 0.930 . S
C1255 C1256 1.355 . S
C1255 C1257 1.415 . S
C1256 C1255 1.355 . S
C1256 C1258 1.419 . S
C1257 C1252 1.425 . S
C1257 C1254 1.409 . S
C1257 C1255 1.415 . S
C1258 H1248 0.930 . S
C1258 C1256 1.419 . S
C1258 C1259 1.362 . S
C1259 H1249 0.930 . S
C1259 C1252 1.409 . S
C1259 C1258 1.362 . S
C504 C481 1.262 . S
C499 N12 1.462 . S
C515 C30 1.478 . S
C520 C434 1.254 . S
C531 C62 1.331 . S
C536 C445 1.244 . S
C552 C470 1.309 . S
C547 N81 1.382 . S
C563 C39 1.397 . S
C568 C488 1.298 . S
C584 C427 1.286 . S
C579 C53 1.461 . S
C600 C452 1.199 . S
C595 N71 1.398 1_554 S
C616 C463 1.319 . S
C611 N2 1.328 . S
C627 N94 1.430 1_655 S
C632 C464 1.231 . S
C648 C490 1.230 . S
C643 C131 1.387 . S
C664 C428 1.219 . S
C659 N140 1.336 . S
C680 C454 1.278 . S
C675 C177 1.371 . S
C691 C108 1.318 . S
C696 C436 1.220 . S
C707 N117 1.331 . S
C712 C446 1.232 . S
C723 C154 1.381 . S
C728 C472 1.181 . S
C744 C482 1.194 . S
C739 N163 1.364 . S
C760 C319 1.280 . S
C755 N173 1.371 . S
C776 C302 1.180 . S
C771 C191 1.407 . S
C792 C328 1.179 . S
C787 N219 1.415 . S
C808 C346 1.353 . S
C803 C237 1.460 . S
C819 N104 1.406 . S
C824 C320 1.203 . S
C835 N127 1.375 . S
C840 C290 1.229 . S
C851 C214 1.458 . S
C856 C344 1.349 . S
C867 C260 1.461 . S
C872 C301 1.281 . S
C888 C355 1.225 1_565 S
C883 N48 1.340 . S
C904 C380 1.226 . S
C899 C76 1.452 . S
C915 C7 1.397 . S
C920 C391 1.249 . S
C931 N35 1.372 . S
C936 C416 1.153 . S
C952 C362 1.248 . S
C947 C85 1.416 1_554 S
C968 C373 1.244 . S
C963 C16 1.395 . S
C979 N25 1.434 . S
C984 C398 1.314 . S
C1000 C409 1.248 . S
C995 N58 1.352 . S
C1011 N255 1.426 . S
C1016 C410 1.343 . S
C1027 C200 1.376 . S
C1032 C364 1.277 . S
C1048 C374 1.238 . S
C1043 N209 1.351 1_455 S
C1059 C246 1.351 . S
C1064 C400 1.180 . S
C1080 C382 1.218 . S
C1075 C269 1.331 . S
C1091 N186 1.385 . S
C1096 C392 1.340 . S
C1112 C418 1.250 . S
C1107 C223 1.428 1_455 S
C1128 C356 1.256 1_565 S
C1123 N232 1.411 . S
C1144 C283 1.300 . S
C1139 N242 1.375 . S
C1160 C338 1.252 . S
C1155 C122 1.452 1_545 S
C1171 N150 1.408 . S
C1176 C292 1.311 . S
C1192 C310 1.336 . S
C1187 C168 1.469 . S
C1208 C284 1.272 . S
C1203 N265 1.400 . S
C1219 N196 1.399 . S
C1224 C326 1.187 . S
C1235 C145 1.425 . S
C1240 C308 1.249 . S
C1251 C99 1.458 . S
C1256 C337 1.233 . S
