# Generated by pormake.
# Topology zzz, (3,6)-cn, num edge types: 1
# Building blocks:
#     Node 0, Type 0, BuildingBlock: ESEHIV_clean_linker_0, # of connection points: 3
#     Node 1, Type 0, BuildingBlock: ESEHIV_clean_linker_0, # of connection points: 3
#     Node 2, Type 0, BuildingBlock: ESEHIV_clean_linker_0, # of connection points: 3
#     Node 3, Type 0, BuildingBlock: ESEHIV_clean_linker_0, # of connection points: 3
#     Node 4, Type 0, BuildingBlock: ESEHIV_clean_linker_0, # of connection points: 3
#     Node 5, Type 0, BuildingBlock: ESEHIV_clean_linker_0, # of connection points: 3
#     Node 6, Type 0, BuildingBlock: ESEHIV_clean_linker_0, # of connection points: 3
#     Node 7, Type 0, BuildingBlock: ESEHIV_clean_linker_0, # of connection points: 3
#     Node 8, Type 1, BuildingBlock: CUWYAW_clean_sbu_0, # of connection points: 6
#     Node 9, Type 1, BuildingBlock: CUWYAW_clean_sbu_0, # of connection points: 6
#     Node 10, Type 1, BuildingBlock: CUWYAW_clean_sbu_0, # of connection points: 6
#     Node 11, Type 1, BuildingBlock: CUWYAW_clean_sbu_0, # of connection points: 6
#     Edge 12, Type (0, 1), BuildingBlock: MIFKUJ_clean_linker_0, # of connection points: 2
#     Edge 13, Type (0, 1), BuildingBlock: MIFKUJ_clean_linker_0, # of connection points: 2
#     Edge 14, Type (0, 1), BuildingBlock: MIFKUJ_clean_linker_0, # of connection points: 2
#     Edge 15, Type (0, 1), BuildingBlock: MIFKUJ_clean_linker_0, # of connection points: 2
#     Edge 16, Type (0, 1), BuildingBlock: MIFKUJ_clean_linker_0, # of connection points: 2
#     Edge 17, Type (0, 1), BuildingBlock: MIFKUJ_clean_linker_0, # of connection points: 2
#     Edge 18, Type (0, 1), BuildingBlock: MIFKUJ_clean_linker_0, # of connection points: 2
#     Edge 19, Type (0, 1), BuildingBlock: MIFKUJ_clean_linker_0, # of connection points: 2
#     Edge 20, Type (0, 1), BuildingBlock: MIFKUJ_clean_linker_0, # of connection points: 2
#     Edge 21, Type (0, 1), BuildingBlock: MIFKUJ_clean_linker_0, # of connection points: 2
#     Edge 22, Type (0, 1), BuildingBlock: MIFKUJ_clean_linker_0, # of connection points: 2
#     Edge 23, Type (0, 1), BuildingBlock: MIFKUJ_clean_linker_0, # of connection points: 2
#     Edge 24, Type (0, 1), BuildingBlock: MIFKUJ_clean_linker_0, # of connection points: 2
#     Edge 25, Type (0, 1), BuildingBlock: MIFKUJ_clean_linker_0, # of connection points: 2
#     Edge 26, Type (0, 1), BuildingBlock: MIFKUJ_clean_linker_0, # of connection points: 2
#     Edge 27, Type (0, 1), BuildingBlock: MIFKUJ_clean_linker_0, # of connection points: 2
#     Edge 28, Type (0, 1), BuildingBlock: MIFKUJ_clean_linker_0, # of connection points: 2
#     Edge 29, Type (0, 1), BuildingBlock: MIFKUJ_clean_linker_0, # of connection points: 2
#     Edge 30, Type (0, 1), BuildingBlock: MIFKUJ_clean_linker_0, # of connection points: 2
#     Edge 31, Type (0, 1), BuildingBlock: MIFKUJ_clean_linker_0, # of connection points: 2
#     Edge 32, Type (0, 1), BuildingBlock: MIFKUJ_clean_linker_0, # of connection points: 2
#     Edge 33, Type (0, 1), BuildingBlock: MIFKUJ_clean_linker_0, # of connection points: 2
#     Edge 34, Type (0, 1), BuildingBlock: MIFKUJ_clean_linker_0, # of connection points: 2
#     Edge 35, Type (0, 1), BuildingBlock: MIFKUJ_clean_linker_0, # of connection points: 2
# Relax obj value: 0.425
# Max RMSD: 0.249
# Mean RMSD: 0.230
data_MOF--net-zzz--node1-CUWYAW_clean_sbu_0--node2-ESEHIV_clean_linker_0--edge1-MIFKUJ_clean_linker_0
_symmetry_space_group_name_H-M    P1
_symmetry_Int_Tables_number       1
_symmetry_cell_setting            triclinic
loop_
_symmetry_equiv_pos_as_xyz
'x, y, z'
_cell_length_a     59.963896
_cell_length_b     59.975401
_cell_length_c     19.516202
_cell_angle_alpha  89.827243
_cell_angle_beta   89.775062
_cell_angle_gamma 89.927365
loop_
_atom_site_label
_atom_site_type_symbol
_atom_site_fract_x
_atom_site_fract_y
_atom_site_fract_z
_atom_type_partial_charge
H0 H 0.77254 0.54605 0.27054 0.0
H1 H 0.70902 0.55552 0.17388 0.0
H2 H 0.71265 0.525 0.37381 0.0
C3 C 0.75448 0.5453 0.27218 0.0
C4 C 0.74416 0.5362 0.33047 0.0
C5 C 0.74202 0.55185 0.21482 0.0
C6 C 0.71877 0.55032 0.21781 0.0
C7 C 0.70793 0.54033 0.27377 0.0
C8 C 0.72073 0.53303 0.33061 0.0
H9 H 0.99193 0.77596 0.22042 0.0
H10 H 0.98624 0.71087 0.13285 0.0
H11 H 0.996 0.71777 0.35039 0.0
C12 C 0.9909 0.75801 0.22692 0.0
C13 C 0.99341 0.7488 0.29266 0.0
C14 C 0.98853 0.74441 0.16922 0.0
C15 C 0.9878 0.72137 0.17764 0.0
C16 C 0.99055 0.71147 0.242 0.0
C17 C 0.99338 0.72521 0.30046 0.0
H18 H 0.74339 0.95314 0.31527 0.0
H19 H 0.80215 0.94494 0.19097 0.0
H20 H 0.79335 1.00407 0.3137 0.0
C21 C 0.75979 0.95854 0.29883 0.0
C22 C 0.76739 0.97909 0.32295 0.0
C23 C 0.7718 0.94615 0.2501 0.0
C24 C 0.79259 0.95431 0.22829 0.0
C25 C 0.80061 0.9752 0.25014 0.0
C26 C 0.78766 0.98783 0.29714 0.0
H27 H 0.57442 0.73807 0.33346 0.0
H28 H 0.52835 0.7925 0.34848 0.0
H29 H 0.58388 0.79598 0.20724 0.0
C30 C 0.57009 0.75503 0.31961 0.0
C31 C 0.58167 0.76587 0.26654 0.0
C32 C 0.55115 0.76436 0.35038 0.0
C33 C 0.5435 0.78545 0.32724 0.0
C34 C 0.55581 0.79737 0.27658 0.0
C35 C 0.57499 0.78744 0.24797 0.0
H36 H 0.23182 0.55348 0.11131 0.0
H37 H 0.28237 0.54902 0.26678 0.0
H38 H 0.27764 0.49834 0.11216 0.0
C39 C 0.24604 0.54514 0.13401 0.0
C40 C 0.25322 0.52497 0.10541 0.0
C41 C 0.25573 0.55368 0.19385 0.0
C42 C 0.27466 0.54294 0.22037 0.0
C43 C 0.28321 0.52351 0.18994 0.0
C44 C 0.27201 0.51404 0.13341 0.0
H45 H 0.96311 0.2375 0.07564 0.0
H46 H 0.95739 0.29615 0.19979 0.0
H47 H 0.01654 0.28525 0.0772 0.0
C48 C 0.96965 0.25347 0.09214 0.0
C49 C 0.99077 0.26005 0.06921 0.0
C50 C 0.9576 0.26624 0.13944 0.0
C51 C 0.96656 0.28643 0.16231 0.0
C52 C 0.98769 0.29369 0.13987 0.0
C53 C 1.00001 0.28022 0.09357 0.0
H54 H 0.28186 0.01516 0.15817 0.0
H55 H 0.21743 0.02142 0.25252 0.0
H56 H 0.22272 0.01299 0.03378 0.0
C57 C 0.26389 0.01657 0.15377 0.0
C58 C 0.25419 0.0151 0.08853 0.0
C59 C 0.25082 0.01851 0.21322 0.0
C60 C 0.22768 0.01977 0.20684 0.0
C61 C 0.21727 0.01726 0.14321 0.0
C62 C 0.23057 0.01526 0.08316 0.0
H63 H 0.53516 0.28471 0.16066 0.0
H64 H 0.49191 0.2295 0.11685 0.0
H65 H 0.54425 0.22261 0.26667 0.0
C66 C 0.5307 0.26739 0.16878 0.0
C67 C 0.54212 0.25464 0.21774 0.0
C68 C 0.51294 0.25852 0.13133 0.0
C69 C 0.50596 0.23635 0.14441 0.0
C70 C 0.51738 0.22315 0.1936 0.0
C71 C 0.53554 0.23252 0.22875 0.0
C72 C 0.97075 0.03477 0.48573 0.0
Eu73 Eu 0.98574 0.018 0.59897 0.0
C74 C 0.95291 0.05061 0.46976 0.0
C75 C 0.9479 0.05553 0.4015 0.0
C76 C 0.93181 0.0716 0.38602 0.0
C77 C 0.92048 0.08301 0.43873 0.0
C78 C 0.92504 0.07738 0.50726 0.0
C79 C 0.94114 0.06128 0.52264 0.0
C80 C 0.96079 0.01009 0.71536 0.0
C81 C 1.00422 0.05297 0.7159 0.0
C82 C 0.03236 0.97982 0.83031 0.0
Eu83 Eu 0.01677 1.00017 0.7246 0.0
C84 C 0.04509 0.95901 0.82718 0.0
C85 C 0.05036 0.95019 0.76242 0.0
C86 C 0.05707 0.92808 0.7559 0.0
C87 C 0.05901 0.91464 0.81427 0.0
C88 C 0.05575 0.92404 0.87957 0.0
C89 C 0.04859 0.94613 0.88598 0.0
C90 C 0.04111 1.00677 0.60589 0.0
C91 C 0.99921 0.96511 0.60899 0.0
O92 O 0.98786 0.0431 0.51871 0.0
O93 O 0.96413 0.01549 0.51022 0.0
O94 O 0.95251 0.01673 0.65747 0.0
O95 O 0.98148 0.00782 0.7065 0.0
O96 O 0.99611 0.05016 0.653 0.0
O97 O 0.01119 0.03613 0.75475 0.0
O98 O 0.01158 0.97765 0.81048 0.0
O99 O 0.04226 0.9973 0.80335 0.0
O100 O 0.04953 0.99985 0.6631 0.0
O101 O 0.02071 0.01005 0.61667 0.0
O102 O 1.00596 0.96813 0.67288 0.0
O103 O 0.99309 0.98197 0.56883 0.0
H104 H 0.95684 0.04739 0.36019 0.0
H105 H 0.92906 0.07583 0.33272 0.0
H106 H 0.91654 0.08578 0.54891 0.0
H107 H 0.94478 0.05751 0.57578 0.0
H108 H 0.04763 0.95986 0.71634 0.0
H109 H 0.05924 0.92106 0.7052 0.0
H110 H 0.05682 0.91376 0.92519 0.0
H111 H 0.04439 0.95262 0.93616 0.0
C112 C 0.49349 0.96847 0.54209 0.0
Eu113 Eu 0.5049 0.98941 0.65211 0.0
C114 C 0.47297 0.95588 0.52965 0.0
C115 C 0.46267 0.94423 0.58377 0.0
C116 C 0.44026 0.93822 0.5795 0.0
C117 C 0.42779 0.94393 0.52132 0.0
C118 C 0.43876 0.95374 0.46481 0.0
C119 C 0.4612 0.95964 0.469 0.0
C120 C 0.51031 0.96751 0.77339 0.0
C121 C 0.46663 0.00838 0.75141 0.0
C122 C 0.53429 0.02576 0.8961 0.0
Eu123 Eu 0.52013 0.01814 0.7734 0.0
C124 C 0.55214 0.01423 0.93454 0.0
C125 C 0.57461 0.0192 0.92081 0.0
C126 C 0.59142 1.00497 0.94331 0.0
C127 C 0.58619 0.98554 0.98039 0.0
C128 C 0.56399 0.98174 1.00018 0.0
C129 C 0.54706 0.99595 0.97725 0.0
C130 C 0.50853 0.0463 0.66877 0.0
C131 C 0.5573 1.00393 0.66073 0.0
O132 O 0.49025 0.9899 0.55047 0.0
O133 O 0.50727 0.96 0.58718 0.0
O134 O 0.49387 0.96418 0.73187 0.0
O135 O 0.52323 0.98219 0.74897 0.0
O136 O 0.47108 1.00094 0.68912 0.0
O137 O 0.48278 0.01401 0.79435 0.0
O138 O 0.51645 0.01382 0.88363 0.0
O139 O 0.54073 0.0375 0.84269 0.0
O140 O 0.51538 0.05296 0.72833 0.0
O141 O 0.50779 0.02529 0.66903 0.0
O142 O 0.55379 0.01086 0.72425 0.0
O143 O 0.54076 0.99677 0.62187 0.0
H144 H 0.4714 0.94122 0.63138 0.0
H145 H 0.43237 0.93038 0.62339 0.0
H146 H 0.42963 0.95864 0.41942 0.0
H147 H 0.46878 0.96885 0.42713 0.0
H148 H 0.5792 0.03338 0.88931 0.0
H149 H 0.60853 0.00877 0.92954 0.0
H150 H 0.55954 0.96709 0.02977 0.0
H151 H 0.52992 0.99182 0.98945 0.0
C152 C 0.53889 0.49118 0.5744 0.0
Eu153 Eu 0.5142 0.50243 0.67819 0.0
C154 C 0.55429 0.47243 0.56478 0.0
C155 C 0.57188 0.47388 0.51758 0.0
C156 C 0.58621 0.4557 0.50791 0.0
C157 C 0.58303 0.43577 0.54512 0.0
C158 C 0.56578 0.43485 0.59421 0.0
C159 C 0.55169 0.45303 0.60423 0.0
C160 C 0.53296 0.5069 0.80426 0.0
C161 C 0.49229 0.46547 0.77488 0.0
C162 C 0.47077 0.53256 0.91102 0.0
Eu163 Eu 0.48302 0.5192 0.79035 0.0
C164 C 0.48138 0.54771 0.96043 0.0
C165 C 0.47207 0.56886 0.97141 0.0
C166 C 0.48453 0.58544 1.00312 0.0
C167 C 0.50647 0.58109 0.02454 0.0
C168 C 0.51476 0.55926 0.02102 0.0
C169 C 0.50233 0.54266 0.98897 0.0
C170 C 0.45693 0.5081 0.68119 0.0
C171 C 0.50198 0.55542 0.68199 0.0
O172 O 0.51774 0.4859 0.57972 0.0
O173 O 0.54509 0.50584 0.61996 0.0
O174 O 0.53652 0.49024 0.7637 0.0
O175 O 0.51974 0.52062 0.77652 0.0
O176 O 0.50078 0.46912 0.71328 0.0
O177 O 0.48653 0.48218 0.81548 0.0
O178 O 0.48088 0.51349 0.90023 0.0
O179 O 0.46383 0.54197 0.85418 0.0
O180 O 0.44928 0.5152 0.73927 0.0
O181 O 0.47788 0.50652 0.68442 0.0
O182 O 0.49359 0.5525 0.74428 0.0
O183 O 0.50859 0.53827 0.64459 0.0
H184 H 0.57436 0.48892 0.48766 0.0
H185 H 0.59949 0.45712 0.47042 0.0
H186 H 0.56244 0.41976 0.62301 0.0
H187 H 0.5384 0.45174 0.6418 0.0
H188 H 0.4558 0.57303 0.95104 0.0
H189 H 0.47756 0.60207 0.00693 0.0
H190 H 0.5315 0.55543 0.03805 0.0
H191 H 0.50981 0.52635 0.98255 0.0
C192 C 0.03006 0.54141 0.52486 0.0
Eu193 Eu 0.01184 0.52259 0.63067 0.0
C194 C 0.04742 0.55849 0.51673 0.0
C195 C 0.04587 0.57417 0.46367 0.0
C196 C 0.06261 0.59013 0.45455 0.0
C197 C 0.08126 0.59052 0.49814 0.0
C198 C 0.08224 0.57527 0.55298 0.0
C199 C 0.0654 0.55951 0.56244 0.0
C200 C 1.00422 0.54535 0.75015 0.0
C201 C 0.04757 0.50372 0.74426 0.0
C202 C 0.97463 0.46414 0.8229 0.0
Eu203 Eu 0.99695 0.48857 0.73689 0.0
C204 C 0.95034 0.46109 0.82627 0.0
C205 C 0.9378 0.46108 0.7654 0.0
C206 C 0.91484 0.46456 0.76755 0.0
C207 C 0.90411 0.46774 0.83047 0.0
C208 C 0.91622 0.46563 0.89159 0.0
C209 C 0.9393 0.46243 0.8895 0.0
C210 C 0.01387 0.47116 0.61881 0.0
C211 C 0.95963 0.51147 0.63543 0.0
O212 O 0.03662 0.52205 0.54923 0.0
O213 O 0.01126 0.54835 0.55181 0.0
O214 O 0.0102 0.55452 0.69297 0.0
O215 O 1.00196 0.52469 0.74063 0.0
O216 O 0.04448 0.51179 0.68158 0.0
O217 O 0.03076 0.49583 0.78101 0.0
O218 O 0.98151 0.48427 0.83756 0.0
O219 O 0.98444 0.45604 0.76854 0.0
O220 O 0.01918 0.46437 0.67979 0.0
O221 O 1.00046 0.48739 0.62315 0.0
O222 O 0.96375 0.50117 0.69413 0.0
O223 O 0.97598 0.51936 0.59703 0.0
H224 H 0.03189 0.57388 0.42869 0.0
H225 H 0.06118 0.60182 0.41241 0.0
H226 H 0.09648 0.57481 0.58692 0.0
H227 H 0.06671 0.5478 0.60459 0.0
H228 H 0.94591 0.46012 0.7158 0.0
H229 H 0.90575 0.46641 0.72006 0.0
H230 H 0.90813 0.46831 0.94063 0.0
H231 H 0.94867 0.46264 0.93685 0.0
H232 H 0.18414 0.04789 0.11863 0.0
H233 H 0.14676 0.04669 0.17032 0.0
H234 H 0.15922 0.97937 0.2391 0.0
H235 H 0.19557 0.98014 0.18319 0.0
H236 H 0.11822 0.98195 0.23018 0.0
H237 H 0.17182 0.0299 0.33591 0.0
H238 H 0.19855 0.06104 0.34217 0.0
H239 H 0.14612 0.10756 0.2966 0.0
H240 H 0.11913 0.07661 0.28906 0.0
H241 H 0.0794 0.98531 0.57606 0.0
H242 H 0.10237 0.98789 0.47281 0.0
H243 H 0.05559 0.03431 0.38467 0.0
H244 H 0.03192 0.03126 0.48837 0.0
H245 H 0.10785 0.04526 0.39023 0.0
H246 H 0.05346 0.99126 0.31133 0.0
H247 H 0.03112 0.9572 0.32874 0.0
H248 H 0.09103 0.9185 0.34893 0.0
H249 H 0.11374 0.9524 0.33271 0.0
C250 C 0.17828 0.03244 0.14119 0.0
C251 C 0.19268 0.01401 0.14594 0.0
C252 C 0.15708 0.03189 0.17239 0.0
C253 C 0.15026 0.01323 0.21149 0.0
C254 C 0.16383 0.99409 0.21006 0.0
C255 C 0.18466 0.99443 0.17735 0.0
C256 C 0.13063 0.01425 0.25996 0.0
C257 C 0.116 0.99592 0.26466 0.0
C258 C 0.12742 0.03231 0.30612 0.0
C259 C 0.14353 0.05094 0.31104 0.0
C260 C 0.16603 0.04676 0.32685 0.0
C261 C 0.18122 0.06437 0.33063 0.0
C262 C 0.17405 0.08626 0.31959 0.0
C263 C 0.15165 0.09059 0.30494 0.0
C264 C 0.1364 0.07303 0.30087 0.0
C265 C 0.07383 0.99597 0.53458 0.0
C266 C 0.05381 0.00809 0.5404 0.0
C267 C 0.08702 0.99741 0.47552 0.0
C268 C 0.08077 0.01129 0.42095 0.0
C269 C 0.06073 0.02347 0.4262 0.0
C270 C 0.04718 0.02166 0.4852 0.0
C271 C 0.09575 0.01309 0.35985 0.0
C272 C 0.1097 0.03175 0.35379 0.0
C273 C 0.09892 0.99497 0.31456 0.0
C274 C 0.0853 0.97441 0.32103 0.0
C275 C 0.06187 0.9755 0.31966 0.0
C276 C 0.04914 0.95622 0.32934 0.0
C277 C 0.05965 0.9357 0.34001 0.0
C278 C 0.08291 0.9344 0.3406 0.0
C279 C 0.09573 0.95364 0.33102 0.0
H280 H 0.04976 0.92081 0.3478 0.0
H281 H 0.18583 0.09988 0.32255 0.0
H282 H 0.54381 0.18643 0.20802 0.0
H283 H 0.53545 0.1527 0.27212 0.0
H284 H 0.46663 0.17313 0.28993 0.0
H285 H 0.47548 0.20795 0.22904 0.0
H286 H 0.47781 0.16108 0.40596 0.0
H287 H 0.48582 0.1237 0.1969 0.0
H288 H 0.5017 0.11297 0.08503 0.0
H289 H 0.56073 0.08864 0.18422 0.0
H290 H 0.54538 0.0995 0.29665 0.0
H291 H 0.49267 0.03624 0.53943 0.0
H292 H 0.48687 0.06225 0.44317 0.0
H293 H 0.51048 0.11642 0.56836 0.0
H294 H 0.51549 0.09086 0.66411 0.0
H295 H 0.51217 0.08686 0.36781 0.0
H296 H 0.48773 0.16485 0.53261 0.0
H297 H 0.46603 0.1729 0.63726 0.0
H298 H 0.42947 0.11197 0.61235 0.0
H299 H 0.45069 0.10371 0.50698 0.0
C300 C 0.52674 0.18355 0.22421 0.0
C301 C 0.51037 0.20006 0.21377 0.0
C302 C 0.52189 0.16402 0.26065 0.0
C303 C 0.50031 0.15997 0.28625 0.0
C304 C 0.48347 0.17572 0.27136 0.0
C305 C 0.48845 0.19554 0.23556 0.0
C306 C 0.49623 0.14074 0.33452 0.0
C307 C 0.48518 0.14483 0.39697 0.0
C308 C 0.50503 0.11906 0.32284 0.0
C309 C 0.51446 0.11254 0.2553 0.0
C310 C 0.50226 0.1162 0.19487 0.0
C311 C 0.51116 0.11007 0.13133 0.0
C312 C 0.53222 0.10015 0.12751 0.0
C313 C 0.54441 0.09632 0.18726 0.0
C314 C 0.5356 0.10242 0.25094 0.0
C315 C 0.49639 0.05374 0.54634 0.0
C316 C 0.50436 0.06149 0.60965 0.0
C317 C 0.49315 0.06863 0.49122 0.0
C318 C 0.49782 0.09154 0.49833 0.0
C319 C 0.50609 0.09906 0.56149 0.0
C320 C 0.5091 0.08433 0.61638 0.0
C321 C 0.49484 0.10772 0.44009 0.0
C322 C 0.50454 0.10304 0.37603 0.0
C323 C 0.48397 0.12854 0.44908 0.0
C324 C 0.47094 0.13359 0.51205 0.0
C325 C 0.47497 0.15323 0.54918 0.0
C326 C 0.46277 0.15782 0.6087 0.0
C327 C 0.44642 0.14293 0.63152 0.0
C328 C 0.44218 0.12346 0.59474 0.0
C329 C 0.45431 0.1188 0.53515 0.0
H330 H 0.43701 0.14651 0.67765 0.0
H331 H 0.53907 0.09541 0.07827 0.0
H332 H 0.32691 0.53012 0.15704 0.0
H333 H 0.3592 0.5223 0.23048 0.0
H334 H 0.31626 0.48789 0.37353 0.0
H335 H 0.28408 0.4959 0.3003 0.0
H336 H 0.33939 0.52033 0.4349 0.0
H337 H 0.35744 0.46044 0.27948 0.0
H338 H 0.36575 0.444 0.16655 0.0
H339 H 0.42231 0.48728 0.14386 0.0
H340 H 0.41417 0.50419 0.25629 0.0
H341 H 0.41568 0.49024 0.68428 0.0
H342 H 0.38897 0.48733 0.59084 0.0
H343 H 0.43781 0.51426 0.45037 0.0
H344 H 0.46522 0.51578 0.54405 0.0
H345 H 0.41294 0.48632 0.3828 0.0
H346 H 0.39563 0.54742 0.52948 0.0
H347 H 0.388 0.56663 0.63867 0.0
H348 H 0.33063 0.52518 0.67218 0.0
H349 H 0.33808 0.50551 0.5636 0.0
C350 C 0.32461 0.52006 0.20272 0.0
C351 C 0.3031 0.51316 0.22227 0.0
C352 C 0.34304 0.5157 0.24496 0.0
C353 C 0.34029 0.50444 0.3078 0.0
C354 C 0.31892 0.49655 0.3254 0.0
C355 C 0.30054 0.50089 0.28319 0.0
C356 C 0.35887 0.50313 0.35878 0.0
C357 C 0.35532 0.51251 0.42374 0.0
C358 C 0.38012 0.49395 0.34353 0.0
C359 C 0.38506 0.48373 0.27606 0.0
C360 C 0.37154 0.46658 0.25018 0.0
C361 C 0.37625 0.45715 0.1863 0.0
C362 C 0.39451 0.46463 0.14798 0.0
C363 C 0.40815 0.48151 0.17356 0.0
C364 C 0.40351 0.49101 0.23739 0.0
C365 C 0.42088 0.49511 0.63316 0.0
C366 C 0.44248 0.50333 0.62148 0.0
C367 C 0.4055 0.49366 0.5797 0.0
C368 C 0.41094 0.50133 0.51354 0.0
C369 C 0.433 0.50842 0.50086 0.0
C370 C 0.4487 0.50927 0.55435 0.0
C371 C 0.3932 0.50302 0.4596 0.0
C372 C 0.39696 0.49399 0.39406 0.0
C373 C 0.37217 0.51297 0.47358 0.0
C374 C 0.36753 0.52487 0.53868 0.0
C375 C 0.38146 0.54232 0.56033 0.0
C376 C 0.37716 0.55329 0.62209 0.0
C377 C 0.35887 0.54709 0.6624 0.0
C378 C 0.3448 0.52994 0.64094 0.0
C379 C 0.34904 0.51889 0.57926 0.0
H380 H 0.35558 0.5556 0.71022 0.0
H381 H 0.39812 0.4573 0.09854 0.0
H382 H 0.96875 0.33493 0.13663 0.0
H383 H 0.97837 0.36725 0.20675 0.0
H384 H 0.03543 0.33186 0.28583 0.0
H385 H 0.02577 0.29939 0.21514 0.0
H386 H 0.00913 0.34848 0.38813 0.0
H387 H 0.04221 0.37759 0.18316 0.0
H388 H 0.04376 0.38825 0.06113 0.0
H389 H 0.98978 0.43431 0.09162 0.0
H390 H 0.98769 0.42371 0.21369 0.0
H391 H 0.0427 0.43654 0.60121 0.0
H392 H 0.04309 0.40888 0.50945 0.0
H393 H 0.9893 0.44363 0.40889 0.0
H394 H 0.9894 0.47184 0.49982 0.0
H395 H 0.01651 0.42741 0.3149 0.0
H396 H 0.98046 0.39672 0.51308 0.0
H397 H 0.97674 0.38604 0.63471 0.0
H398 H 0.03345 0.34266 0.61604 0.0
H399 H 0.0377 0.35332 0.49445 0.0
C400 C 0.98374 0.33431 0.16741 0.0
C401 C 0.99663 0.31469 0.16988 0.0
C402 C 0.98923 0.35281 0.20762 0.0
C403 C 0.00768 0.35214 0.25173 0.0
C404 C 0.02114 0.33287 0.25217 0.0
C405 C 0.01576 0.31439 0.21125 0.0
C406 C 0.01157 0.37067 0.30159 0.0
C407 C 0.01124 0.36567 0.37194 0.0
C408 C 0.01347 0.39329 0.28094 0.0
C409 C 0.01468 0.39971 0.20752 0.0
C410 C 0.03054 0.38986 0.16376 0.0
C411 C 0.03154 0.39592 0.09458 0.0
C412 C 0.01685 0.41191 0.06861 0.0
C413 C 1.00114 0.42192 0.1118 0.0
C414 C 1.00007 0.4159 0.18101 0.0
C415 C 0.03117 0.43849 0.55901 0.0
C416 C 0.01591 0.4563 0.55812 0.0
C417 C 0.03129 0.42254 0.50667 0.0
C418 C 0.01584 0.42371 0.45272 0.0
C419 C 1.00132 0.44217 0.44992 0.0
C420 C 1.00139 0.45833 0.502 0.0
C421 C 0.01413 0.40518 0.40146 0.0
C422 C 0.01469 0.41018 0.33101 0.0
C423 C 0.01211 0.38253 0.42189 0.0
C424 C 0.00954 0.376 0.49488 0.0
C425 C 0.99224 0.38502 0.53504 0.0
C426 C 0.99002 0.37896 0.60395 0.0
C427 C 1.00489 0.36373 0.63313 0.0
C428 C 0.02197 0.35448 0.5934 0.0
C429 C 0.02429 0.36052 0.52447 0.0
H430 H 1.00315 0.35906 0.68649 0.0
H431 H 0.01765 0.41659 0.01504 0.0
H432 H 0.84041 0.95349 0.23862 0.0
H433 H 0.87099 0.96222 0.15989 0.0
H434 H 0.83907 0.02427 0.1068 0.0
H435 H 0.80803 0.01537 0.18517 0.0
H436 H 0.88997 0.02463 0.11036 0.0
H437 H 0.87842 0.93644 1.0041 0.0
H438 H 0.8494 0.90727 1.00262 0.0
H439 H 0.79832 0.95747 0.00983 0.0
H440 H 0.827 0.98689 0.00974 0.0
H441 H 0.97462 1.00426 0.85015 0.0
H442 H 0.95056 1.00024 0.95246 0.0
H443 H 0.89226 1.0042 0.82429 0.0
H444 H 0.91595 0.00808 0.72337 0.0
H445 H 0.88701 0.97181 0.91528 0.0
H446 H 0.91013 0.0486 0.91856 0.0
H447 H 0.9373 0.07941 0.92134 0.0
H448 H 0.96216 0.05572 0.11436 0.0
H449 H 0.93536 0.02453 0.11216 0.0
C450 C 0.84018 0.96932 0.21174 0.0
C451 C 0.82167 0.98367 0.21792 0.0
C452 C 0.85773 0.9743 0.16672 0.0
C453 C 0.85732 0.99382 0.12686 0.0
C454 C 0.83985 0.00916 0.13725 0.0
C455 C 0.82213 1.0041 0.18226 0.0
C456 C 0.87312 0.99625 0.06779 0.0
C457 C 0.88942 0.01306 0.06781 0.0
C458 C 0.87226 0.98137 0.01166 0.0
C459 C 0.85488 0.96383 0.00763 0.0
C460 C 0.861 0.94123 1.00474 0.0
C461 C 0.8446 0.92466 1.00423 0.0
C462 C 0.82204 0.93051 0.00637 0.0
C463 C 0.8158 0.95295 0.00835 0.0
C464 C 0.83212 0.96957 0.00853 0.0
C465 C 0.95668 1.00404 0.84403 0.0
C466 C 0.94722 1.00638 0.77854 0.0
C467 C 0.94291 1.00191 0.90254 0.0
C468 C 0.91945 1.00201 0.89648 0.0
C469 C 0.9102 1.00399 0.8308 0.0
C470 C 0.92383 1.00626 0.77292 0.0
C471 C 0.90423 1.00013 0.95752 0.0
C472 C 0.88786 0.98334 0.95792 0.0
C473 C 0.90487 0.01529 0.01325 0.0
C474 C 0.92092 0.03407 0.01478 0.0
C475 C 0.92152 0.04984 0.9613 0.0
C476 C 0.93684 0.06739 0.96281 0.0
C477 C 0.9515 0.06948 0.01788 0.0
C478 C 0.95083 0.05405 0.07165 0.0
C479 C 0.93558 0.03643 0.0703 0.0
H480 H 0.96334 0.08308 0.01897 0.0
H481 H 0.80938 0.91766 0.00639 0.0
H482 H 0.58092 0.83465 0.25533 0.0
H483 H 0.57265 0.8659 0.18024 0.0
H484 H 0.50583 0.84105 0.15217 0.0
H485 H 0.51457 0.8089 0.22557 0.0
H486 H 0.52085 0.84981 0.03521 0.0
H487 H 0.52356 0.895 0.24222 0.0
H488 H 0.54076 0.90906 0.34832 0.0
H489 H 0.59783 0.93141 0.23368 0.0
H490 H 0.58107 0.91729 0.1271 0.0
H491 H 0.48135 0.93965 0.8378 0.0
H492 H 0.48863 0.91367 0.93167 0.0
H493 H 0.55711 0.93543 0.9381 0.0
H494 H 0.54956 0.96229 0.84537 0.0
H495 H 0.54243 0.92896 0.065 0.0
H496 H 0.54206 0.88552 0.86218 0.0
H497 H 0.52788 0.87122 0.75235 0.0
H498 H 0.47023 0.8446 0.85477 0.0
H499 H 0.48391 0.85902 0.96515 0.0
C500 C 0.56426 0.83609 0.23448 0.0
C501 C 0.54842 0.81919 0.24663 0.0
C502 C 0.55948 0.85415 0.19132 0.0
C503 C 0.53855 0.8562 0.15963 0.0
C504 C 0.52219 0.84001 0.17528 0.0
C505 C 0.52706 0.82174 0.21821 0.0
C506 C 0.53447 0.87379 0.10561 0.0
C507 C 0.52511 0.8672 0.04282 0.0
C508 C 0.54112 0.89643 0.11278 0.0
C509 C 0.55108 0.90503 0.17683 0.0
C510 C 0.5398 0.90285 0.23976 0.0
C511 C 0.54948 0.91083 0.29995 0.0
C512 C 0.57038 0.92111 0.29776 0.0
C513 C 0.58164 0.92347 0.23533 0.0
C514 C 0.57204 0.91553 0.17501 0.0
C515 C 0.49794 0.93906 0.85952 0.0
C516 C 0.51489 0.95297 0.83379 0.0
C517 C 0.50214 0.92405 0.91309 0.0
C518 C 0.52355 0.92216 0.94168 0.0
C519 C 0.54043 0.93648 0.91721 0.0
C520 C 0.53613 0.9518 0.86401 0.0
C521 C 0.52818 0.905 0.99611 0.0
C522 C 0.53788 0.91161 0.05822 0.0
C523 C 0.52219 0.88229 0.98807 0.0
C524 C 0.5139 0.87355 0.92183 0.0
C525 C 0.52627 0.87677 0.8612 0.0
C526 C 0.51834 0.86862 0.79886 0.0
C527 C 0.49814 0.85706 0.79655 0.0
C528 C 0.48586 0.85358 0.85663 0.0
C529 C 0.4937 0.86173 0.91911 0.0
H530 H 0.49203 0.85076 0.74823 0.0
H531 H 0.57784 0.92726 0.34444 0.0
H532 H 0.67422 0.5704 0.26025 0.0
H533 H 0.63945 0.56406 0.19886 0.0
H534 H 0.65281 0.49347 0.1968 0.0
H535 H 0.68792 0.4999 0.25762 0.0
H536 H 0.6469 0.50641 0.07359 0.0
H537 H 0.60538 0.52067 0.27916 0.0
H538 H 0.59386 0.54134 0.38239 0.0
H539 H 0.57382 0.59689 0.25775 0.0
H540 H 0.5853 0.57662 0.15365 0.0
H541 H 0.55364 0.47573 0.88201 0.0
H542 H 0.57865 0.48137 0.97886 0.0
H543 H 0.56856 0.55245 0.96429 0.0
H544 H 0.54262 0.5467 0.86837 0.0
H545 H 0.57161 0.53988 0.09739 0.0
H546 H 0.61533 0.52784 0.89557 0.0
H547 H 0.62689 0.50833 0.79017 0.0
H548 H 0.64314 0.44996 0.90784 0.0
H549 H 0.6314 0.46904 0.0139 0.0
C550 C 0.66917 0.55341 0.2498 0.0
C551 C 0.68372 0.53562 0.26465 0.0
C552 C 0.64929 0.5498 0.21392 0.0
C553 C 0.64336 0.52832 0.192 0.0
C554 C 0.65692 0.51027 0.21245 0.0
C555 C 0.67686 0.51388 0.24841 0.0
C556 C 0.62512 0.52512 0.14022 0.0
C557 C 0.6303 0.51332 0.08002 0.0
C558 C 0.60364 0.53503 0.14606 0.0
C559 C 0.59655 0.54722 0.20857 0.0
C560 C 0.59871 0.53737 0.27372 0.0
C561 C 0.59211 0.54899 0.33239 0.0
C562 C 0.58319 0.57045 0.3266 0.0
C563 C 0.58076 0.58029 0.26208 0.0
C564 C 0.58728 0.56872 0.20323 0.0
C565 C 0.55653 0.49256 0.8999 0.0
C566 C 0.54628 0.51077 0.86721 0.0
C567 C 0.57094 0.49579 0.95522 0.0
C568 C 0.57596 0.51738 0.9784 0.0
C569 C 0.56508 0.53562 0.94744 0.0
C570 C 0.55029 0.53234 0.8925 0.0
C571 C 0.59338 0.52072 0.03237 0.0
C572 C 0.58816 0.53276 0.09203 0.0
C573 C 0.61495 0.51122 0.02613 0.0
C574 C 0.62231 0.4998 0.96257 0.0
C575 C 0.62125 0.5108 0.89891 0.0
C576 C 0.62785 0.49982 0.83906 0.0
C577 C 0.6357 0.4779 0.84229 0.0
C578 C 0.63704 0.46693 0.90541 0.0
C579 C 0.63044 0.47782 0.96542 0.0
H580 H 0.64078 0.46943 0.79589 0.0
H581 H 0.57811 0.57943 0.37209 0.0
H582 H 0.02792 0.68679 0.22359 0.0
H583 H 0.0286 0.65177 0.15984 0.0
H584 H 0.95739 0.64587 0.185 0.0
H585 H 0.9567 0.68132 0.24688 0.0
H586 H 0.01769 0.60854 0.15722 0.0
H587 H 0.93398 0.63319 0.0397 0.0
H588 H 0.91032 0.66636 0.02081 0.0
H589 H 0.96846 0.70806 0.01722 0.0
H590 H 0.99242 0.67516 0.03699 0.0
H591 H 0.99491 0.52967 0.8814 0.0
H592 H 0.99116 0.55207 0.98684 0.0
H593 H 1.00376 0.61189 0.86983 0.0
H594 H 0.00725 0.58992 0.7659 0.0
H595 H 0.97004 0.61875 0.9523 0.0
H596 H 0.04366 0.58697 0.97167 0.0
H597 H 0.07083 0.55616 0.97919 0.0
H598 H 0.03912 0.53246 0.163 0.0
H599 H 0.01148 0.56291 0.15591 0.0
C600 C 0.01261 0.67733 0.21926 0.0
C601 C 0.9923 0.68674 0.24117 0.0
C602 C 0.01295 0.65738 0.18175 0.0
C603 C 0.99296 0.64638 0.16552 0.0
C604 C 0.97302 0.65421 0.19536 0.0
C605 C 0.97267 0.67428 0.23226 0.0
C606 C 0.99263 0.62915 0.10981 0.0
C607 C 1.00705 0.61062 0.11284 0.0
C608 C 0.97915 0.63188 0.05078 0.0
C609 C 0.9649 0.65179 0.04051 0.0
C610 C 0.94167 0.64946 0.03515 0.0
C611 C 0.92822 0.66821 0.02447 0.0
C612 C 0.93788 0.68932 0.01827 0.0
C613 C 0.961 0.69172 0.02264 0.0
C614 C 0.97451 0.67305 0.03388 0.0
C615 C 0.99676 0.54761 0.87846 0.0
C616 C 1.00128 0.558 0.81516 0.0
C617 C 0.99474 0.5604 0.93875 0.0
C618 C 0.9972 0.58379 0.93668 0.0
C619 C 1.00163 0.59399 0.87323 0.0
C620 C 1.00368 0.58132 0.81358 0.0
C621 C 0.99511 0.5981 0.99934 0.0
C622 C 0.98028 0.61624 0.99741 0.0
C623 C 0.00863 0.59523 0.05824 0.0
C624 C 0.02533 0.57705 0.06278 0.0
C625 C 0.04236 0.57508 0.01337 0.0
C626 C 0.05786 0.55771 0.01759 0.0
C627 C 0.05667 0.54234 0.07141 0.0
C628 C 0.03999 0.54435 0.12124 0.0
C629 C 0.0244 0.56166 0.11714 0.0
H630 H 0.06869 0.5289 0.07457 0.0
H631 H 0.92745 0.7038 0.00979 0.0
H632 H 0.94772 0.26367 0.27565 0.0
H633 H 0.92255 0.23671 0.32873 0.0
H634 H 0.89752 0.21872 0.12959 0.0
H635 H 0.92254 0.24586 0.0761 0.0
H636 H 0.87886 0.21939 0.33556 0.0
H637 H 0.9102 0.16278 0.11342 0.0
H638 H 0.94234 0.1586 0.03486 0.0
H639 H 0.98293 0.19744 0.17022 0.0
H640 H 0.95125 0.20147 0.24997 0.0
H641 H 0.88998 0.087 0.33506 0.0
H642 H 0.87603 0.12202 0.28707 0.0
H643 H 0.90511 0.15808 0.4553 0.0
H644 H 0.91933 0.12339 0.50283 0.0
H645 H 0.91123 0.14834 0.25168 0.0
H646 H 0.88315 0.21076 0.46253 0.0
H647 H 0.85844 0.21127 0.56372 0.0
H648 H 0.81938 0.15831 0.47836 0.0
H649 H 0.84363 0.15768 0.37613 0.0
C650 C 0.93605 0.25483 0.24341 0.0
C651 C 0.93744 0.25644 0.17164 0.0
C652 C 0.92162 0.23942 0.2739 0.0
C653 C 0.90856 0.22543 0.23289 0.0
C654 C 0.90767 0.22925 0.16198 0.0
C655 C 0.92205 0.24465 0.13149 0.0
C656 C 0.9006 0.204 0.26143 0.0
C657 C 0.88569 0.20376 0.31712 0.0
C658 C 0.90965 0.18368 0.2373 0.0
C659 C 0.92821 0.18279 0.1869 0.0
C660 C 0.92594 0.17059 0.126 0.0
C661 C 0.94411 0.16813 0.08153 0.0
C662 C 0.96466 0.17769 0.09773 0.0
C663 C 0.967 0.19006 0.15775 0.0
C664 C 0.94892 0.19249 0.20248 0.0
C665 C 0.89276 0.10233 0.36296 0.0
C666 C 0.90627 0.10251 0.42169 0.0
C667 C 0.88454 0.12228 0.33592 0.0
C668 C 0.88964 0.14265 0.36739 0.0
C669 C 0.90071 0.14255 0.43057 0.0
C670 C 0.90897 0.12263 0.45758 0.0
C671 C 0.88947 0.16344 0.32638 0.0
C672 C 0.90331 0.16369 0.26839 0.0
C673 C 0.88019 0.18365 0.35064 0.0
C674 C 0.8653 0.18413 0.41161 0.0
C675 C 0.8692 0.19933 0.46502 0.0
C676 C 0.85529 0.19961 0.52268 0.0
C677 C 0.83737 0.18482 0.52751 0.0
C678 C 0.8333 0.16973 0.47463 0.0
C679 C 0.84716 0.16937 0.41686 0.0
H680 H 0.82663 0.18506 0.57221 0.0
H681 H 0.97882 0.17539 0.06397 0.0
H682 H 0.29096 0.0348 0.25818 0.0
H683 H 0.3119 0.02123 0.35653 0.0
H684 H 0.25462 0.9837 0.42491 0.0
H685 H 0.23413 0.99572 0.32422 0.0
H686 H 0.31268 0.01705 0.492 0.0
H687 H 0.27178 0.93209 0.46408 0.0
H688 H 0.24826 0.91125 0.38272 0.0
H689 H 0.27756 0.94719 0.21435 0.0
H690 H 0.30141 0.96797 0.29469 0.0
H691 H 0.40009 0.95428 0.62873 0.0
H692 H 0.36035 0.96264 0.62202 0.0
H693 H 0.36044 0.94262 0.40961 0.0
H694 H 0.39957 0.93259 0.41762 0.0
H695 H 0.32179 0.93561 0.45702 0.0
H696 H 0.37483 0.99881 0.47298 0.0
H697 H 0.40198 0.02262 0.53314 0.0
H698 H 0.35483 0.03302 0.69626 0.0
H699 H 0.32756 0.00904 0.6374 0.0
C700 C 0.28269 0.02389 0.29457 0.0
C701 C 0.26113 0.0158 0.28188 0.0
C702 C 0.29457 0.01642 0.35148 0.0
C703 C 0.28496 1.00099 0.39703 0.0
C704 C 0.26244 0.9953 0.38964 0.0
C705 C 0.2507 1.00238 0.33199 0.0
C706 C 0.29973 0.98784 0.44235 0.0
C707 C 0.31439 0.99915 0.48579 0.0
C708 C 0.30197 0.96449 0.43408 0.0
C709 C 0.2881 0.95173 0.38537 0.0
C710 C 0.27321 0.93546 0.40968 0.0
C711 C 0.25984 0.92367 0.36376 0.0
C712 C 0.26136 0.92795 0.29344 0.0
C713 C 0.27636 0.94392 0.26882 0.0
C714 C 0.28981 0.95569 0.31449 0.0
C715 C 0.39141 0.95064 0.58151 0.0
C716 C 0.40309 0.94322 0.52304 0.0
C717 C 0.36871 0.95573 0.57758 0.0
C718 C 0.35756 0.95401 0.51474 0.0
C719 C 0.36866 0.94433 0.45864 0.0
C720 C 0.39116 0.93881 0.46293 0.0
C721 C 0.33579 0.96506 0.50286 0.0
C722 C 0.31952 0.95331 0.46631 0.0
C723 C 0.33267 0.98817 0.51507 0.0
C724 C 0.3493 1.00199 0.55126 0.0
C725 C 0.37035 1.00608 0.5219 0.0
C726 C 0.38573 0.01963 0.55567 0.0
C727 C 0.38011 0.02942 0.61831 0.0
C728 C 0.35915 0.02553 0.6476 0.0
C729 C 0.34376 0.0119 0.61419 0.0
H730 H 0.39203 0.03992 0.6443 0.0
H731 H 0.25095 0.91886 0.25803 0.0
H732 H 0.55123 0.24674 0.354 0.0
H733 H 0.57457 0.26888 0.42898 0.0
H734 H 0.59425 0.31002 0.25747 0.0
H735 H 0.57292 0.28648 0.18065 0.0
H736 H 0.62562 0.31162 0.34811 0.0
H737 H 0.54484 0.31968 0.3546 0.0
H738 H 0.50629 0.30642 0.37205 0.0
H739 H 0.52197 0.28773 0.57895 0.0
H740 H 0.56072 0.30064 0.56232 0.0
H741 H 0.59672 0.42192 0.41823 0.0
H742 H 0.60736 0.38435 0.38597 0.0
H743 H 0.60702 0.3644 0.59838 0.0
H744 H 0.59737 0.40245 0.63188 0.0
H745 H 0.57404 0.34511 0.51848 0.0
H746 H 0.6523 0.35274 0.51095 0.0
H747 H 0.6884 0.37039 0.48431 0.0
H748 H 0.6751 0.36493 0.26903 0.0
H749 H 0.63875 0.34755 0.29424 0.0
C750 C 0.56126 0.25982 0.33129 0.0
C751 C 0.55955 0.2652 0.26117 0.0
C752 C 0.57448 0.27266 0.37467 0.0
C753 C 0.58546 0.29165 0.34939 0.0
C754 C 0.58566 0.29566 0.27852 0.0
C755 C 0.57304 0.2824 0.23473 0.0
C756 C 0.59335 0.30931 0.39652 0.0
C757 C 0.61445 0.31892 0.38571 0.0
C758 C 0.57896 0.31853 0.44681 0.0
C759 C 0.55571 0.31079 0.45693 0.0
C760 C 0.54008 0.31261 0.40365 0.0
C761 C 0.51821 0.30517 0.41339 0.0
C762 C 0.51171 0.29616 0.47649 0.0
C763 C 0.52706 0.29464 0.53004 0.0
C764 C 0.54897 0.30199 0.52049 0.0
C765 C 0.6 0.40997 0.45863 0.0
C766 C 0.59558 0.41513 0.52764 0.0
C767 C 0.60615 0.38839 0.43995 0.0
C768 C 0.60783 0.37157 0.48977 0.0
C769 C 0.60579 0.37718 0.5592 0.0
C770 C 0.59997 0.39887 0.57808 0.0
C771 C 0.60589 0.34809 0.4679 0.0
C772 C 0.58573 0.33735 0.4832 0.0
C773 C 0.62083 0.33841 0.42033 0.0
C774 C 0.64272 0.34885 0.40459 0.0
C775 C 0.65698 0.35543 0.4579 0.0
C776 C 0.67752 0.36537 0.44304 0.0
C777 C 0.68404 0.36878 0.37502 0.0
C778 C 0.67004 0.36224 0.3217 0.0
C779 C 0.64948 0.3523 0.33626 0.0
H780 H 0.69994 0.37649 0.36363 0.0
H781 H 0.49477 0.29042 0.48396 0.0
H782 H 0.21088 0.56218 0.2012 0.0
H783 H 0.19159 0.58891 0.27162 0.0
H784 H 0.25398 0.61169 0.35446 0.0
H785 H 0.27419 0.58606 0.27833 0.0
H786 H 0.21374 0.59037 0.44629 0.0
H787 H 0.23415 0.65178 0.30941 0.0
H788 H 0.24314 0.67175 0.20227 0.0
H789 H 0.17624 0.6619 0.13101 0.0
H790 H 0.1669 0.64156 0.23711 0.0
H791 H 0.10897 0.61287 0.58702 0.0
H792 H 0.1461 0.6276 0.56013 0.0
H793 H 0.13503 0.61446 0.34571 0.0
H794 H 0.09844 0.5997 0.37182 0.0
H795 H 0.16297 0.64945 0.3607 0.0
H796 H 0.15414 0.57256 0.45391 0.0
H797 H 0.14277 0.54693 0.54685 0.0
H798 H 0.18582 0.58115 0.68687 0.0
H799 H 0.19717 0.6072 0.59474 0.0
C800 C 0.2209 0.57344 0.23137 0.0
C801 C 0.24433 0.57186 0.23286 0.0
C802 C 0.20967 0.58866 0.27242 0.0
C803 C 0.22139 0.60233 0.31765 0.0
C804 C 0.24472 0.60133 0.31925 0.0
C805 C 0.25616 0.58645 0.27625 0.0
C806 C 0.20822 0.61508 0.36806 0.0
C807 C 0.20326 0.60413 0.42976 0.0
C808 C 0.1945 0.63278 0.3456 0.0
C809 C 0.19981 0.64521 0.28162 0.0
C810 C 0.22136 0.65379 0.27082 0.0
C811 C 0.22652 0.66518 0.21022 0.0
C812 C 0.21026 0.66813 0.15992 0.0
C813 C 0.1888 0.65968 0.17013 0.0
C814 C 0.18355 0.64826 0.23063 0.0
C815 C 0.11429 0.61366 0.53397 0.0
C816 C 0.10092 0.60465 0.48172 0.0
C817 C 0.13542 0.62227 0.51869 0.0
C818 C 0.14347 0.6218 0.45107 0.0
C819 C 0.12917 0.6151 0.39828 0.0
C820 C 0.10814 0.60656 0.41339 0.0
C821 C 0.16762 0.62342 0.43543 0.0
C822 C 0.17441 0.63699 0.38045 0.0
C823 C 0.1828 0.60764 0.46279 0.0
C824 C 0.17631 0.5919 0.51788 0.0
C825 C 0.16111 0.57462 0.50462 0.0
C826 C 0.15465 0.56006 0.55709 0.0
C827 C 0.16353 0.56244 0.62275 0.0
C828 C 0.17892 0.57937 0.63602 0.0
C829 C 0.18534 0.59406 0.58375 0.0
H830 H 0.15853 0.55111 0.66321 0.0
H831 H 0.2143 0.67694 0.11301 0.0
H832 H 0.01423 0.72924 0.06401 0.0
H833 H 0.02601 0.75056 0.96402 0.0
H834 H 0.97959 0.80273 0.0172 0.0
H835 H 0.96771 0.7815 0.11812 0.0
H836 H 0.01159 0.7778 0.84794 0.0
H837 H 0.0104 0.84576 0.05143 0.0
H838 H 0.00838 0.84916 0.17744 0.0
H839 H 0.04299 0.78685 0.19968 0.0
H840 H 0.04535 0.7832 0.07402 0.0
H841 H 0.02878 0.88944 0.74879 0.0
H842 H 0.02147 0.85016 0.7708 0.0
H843 H 0.08242 0.84558 0.88706 0.0
H844 H 0.08925 0.88533 0.8672 0.0
H845 H 0.04815 0.84113 0.96571 0.0
H846 H 0.07075 0.8064 0.76003 0.0
H847 H 0.07518 0.79846 0.63686 0.0
H848 H 1.00426 0.79152 0.61665 0.0
H849 H 0.99938 0.79945 0.73978 0.0
C850 C 1.00575 0.74478 0.05283 0.0
C851 C 0.99045 0.75405 0.09972 0.0
C852 C 0.01243 0.75686 0.99526 0.0
C853 C 1.00394 0.7783 0.98426 0.0
C854 C 0.9864 0.78621 0.0255 0.0
C855 C 0.97983 0.77422 0.08344 0.0
C856 C 0.01728 0.79427 0.94407 0.0
C857 C 0.01956 0.79179 0.87297 0.0
C858 C 0.02855 0.81169 0.97788 0.0
C859 C 0.02794 0.81417 0.05349 0.0
C860 C 0.0177 0.83288 0.08332 0.0
C861 C 0.01645 0.83482 0.15463 0.0
C862 C 0.02554 0.81823 0.19651 0.0
C863 C 0.03593 0.79968 0.16722 0.0
C864 C 0.03721 0.79765 0.09599 0.0
C865 C 0.04112 0.87977 0.77639 0.0
C866 C 0.05939 0.89027 0.80732 0.0
C867 C 0.03702 0.85724 0.7885 0.0
C868 C 0.05128 0.84498 0.83121 0.0
C869 C 0.07119 0.8548 0.85409 0.0
C870 C 0.07506 0.87746 0.84309 0.0
C871 C 0.04221 0.82539 0.86792 0.0
C872 C 0.04057 0.82715 0.93946 0.0
C873 C 0.03204 0.8072 0.83413 0.0
C874 C 0.03471 0.80358 0.75928 0.0
C875 C 0.05607 0.80338 0.72928 0.0
C876 C 0.05868 0.79871 0.65954 0.0
C877 C 0.04003 0.7943 0.6191 0.0
C878 C 0.01871 0.79476 0.64818 0.0
C879 C 0.01602 0.79928 0.718 0.0
H880 H 0.04208 0.79066 0.56516 0.0
H881 H 0.02461 0.8198 0.25163 0.0
H882 H 0.77722 0.93264 0.11507 0.0
H883 H 0.74705 0.91842 0.04653 0.0
H884 H 0.70863 0.9053 0.22911 0.0
H885 H 0.74013 0.91627 0.29915 0.0
H886 H 0.68768 0.88752 0.12087 0.0
H887 H 0.71558 0.96273 0.17938 0.0
H888 H 0.746 0.99041 0.18489 0.0
H889 H 0.75735 0.98354 0.96867 0.0
H890 H 0.72681 0.95601 0.96181 0.0
H891 H 0.59387 0.96232 0.09963 0.0
H892 H 0.62623 0.93872 0.12544 0.0
H893 H 0.65046 0.9477 0.9188 0.0
H894 H 0.61814 0.97087 0.89237 0.0
H895 H 0.67894 0.96301 0.01932 0.0
H896 H 0.63808 0.89746 0.96647 0.0
H897 H 0.60607 0.87178 0.97196 0.0
H898 H 0.61694 0.86194 0.18725 0.0
H899 H 0.6488 0.88793 0.18339 0.0
C900 C 0.76317 0.9253 0.14169 0.0
C901 C 0.76033 0.92761 0.21309 0.0
C902 C 0.74569 0.91722 0.10179 0.0
C903 C 0.72499 0.9127 0.13268 0.0
C904 C 0.72412 0.90978 0.2039 0.0
C905 C 0.74208 0.91661 0.24398 0.0
C906 C 0.70411 0.91849 0.09612 0.0
C907 C 0.68576 0.90391 0.09801 0.0
C908 C 0.70147 0.94002 0.06686 0.0
C909 C 0.71909 0.95728 0.07016 0.0
C910 C 0.7245 0.96726 0.13301 0.0
C911 C 0.74176 0.98287 0.1364 0.0
C912 C 0.75368 0.98862 0.07729 0.0
C913 C 0.74814 0.97903 0.01444 0.0
C914 C 0.7308 0.9635 0.01068 0.0
C915 C 0.60583 0.9588 0.05935 0.0
C916 C 0.60387 0.96893 0.99461 0.0
C917 C 0.62421 0.94523 0.07399 0.0
C918 C 0.64071 0.94157 0.02396 0.0
C919 C 0.63791 0.9504 0.95803 0.0
C920 C 0.6196 0.96384 0.94336 0.0
C921 C 0.66251 0.93204 0.04336 0.0
C922 C 0.68095 0.94625 0.03957 0.0
C923 C 0.66488 0.91047 0.07187 0.0
C924 C 0.64582 0.89471 0.07465 0.0
C925 C 0.63356 0.88996 0.01514 0.0
C926 C 0.61545 0.87534 0.01792 0.0
C927 C 0.60952 0.8652 0.07984 0.0
C928 C 0.62161 0.86977 0.13925 0.0
C929 C 0.63971 0.88443 0.13678 0.0
H930 H 0.59559 0.85376 0.08163 0.0
H931 H 0.76717 1.00055 0.08018 0.0
H932 H 0.58745 0.76921 0.12612 0.0
H933 H 0.5912 0.73648 0.05535 0.0
H934 H 0.61107 0.69793 0.23146 0.0
H935 H 0.61043 0.7314 0.30125 0.0
H936 H 0.61699 0.67372 0.11831 0.0
H937 H 0.553 0.71683 0.21663 0.0
H938 H 0.52939 0.7504 0.22735 0.0
H939 H 0.52231 0.75343 0.00894 0.0
H940 H 0.54536 0.71949 0.99691 0.0
H941 H 0.53671 0.58482 0.12979 0.0
H942 H 0.56181 0.61637 0.15149 0.0
H943 H 0.53583 0.65018 0.9735 0.0
H944 H 0.51094 0.61917 0.95182 0.0
H945 H 0.53575 0.67657 0.07199 0.0
H946 H 0.58868 0.62442 0.98427 0.0
H947 H 0.6098 0.58921 0.97824 0.0
H948 H 0.63863 0.60252 0.17499 0.0
H949 H 0.61679 0.63708 0.18398 0.0
C950 C 0.59429 0.75434 0.14952 0.0
C951 C 0.59657 0.75239 0.22116 0.0
C952 C 0.59623 0.7354 0.10853 0.0
C953 C 0.59943 0.71453 0.13963 0.0
C954 C 0.60746 0.71375 0.20696 0.0
C955 C 0.60673 0.73295 0.24717 0.0
C956 C 0.5879 0.69466 0.11219 0.0
C957 C 0.59925 0.67422 0.10774 0.0
C958 C 0.56471 0.69536 0.09842 0.0
C959 C 0.55103 0.7158 0.10586 0.0
C960 C 0.54635 0.72461 0.17097 0.0
C961 C 0.53309 0.7437 0.17729 0.0
C962 C 0.52456 0.75416 0.11897 0.0
C963 C 0.52902 0.74538 0.0541 0.0
C964 C 0.54207 0.72617 0.04748 0.0
C965 C 0.53652 0.599 0.09531 0.0
C966 C 0.5216 0.5998 0.03996 0.0
C967 C 0.55099 0.61685 0.10727 0.0
C968 C 0.551 0.63543 0.06321 0.0
C969 C 0.53632 0.63593 0.00754 0.0
C970 C 0.52184 0.61833 0.99591 0.0
C971 C 0.56473 0.65536 0.07759 0.0
C972 C 0.55361 0.67587 0.08066 0.0
C973 C 0.58798 0.65446 0.09018 0.0
C974 C 0.60088 0.63334 0.08509 0.0
C975 C 0.59923 0.61967 0.0268 0.0
C976 C 0.61132 0.59975 0.02289 0.0
C977 C 0.62549 0.59353 0.07628 0.0
C978 C 0.62753 0.60718 0.1338 0.0
C979 C 0.61521 0.6269 0.13849 0.0
H980 H 0.6349 0.57815 0.07301 0.0
H981 H 0.51443 0.76902 0.12408 0.0
H982 H 0.72857 0.53903 0.08688 0.0
H983 H 0.75236 0.5344 0.9877 0.0
H984 H 0.80584 0.56792 0.09198 0.0
H985 H 0.78161 0.57396 0.19119 0.0
H986 H 0.78802 0.55594 0.89773 0.0
H987 H 0.84305 0.52486 0.11168 0.0
H988 H 0.84182 0.5146 0.23419 0.0
H989 H 0.77368 0.49381 0.21336 0.0
H990 H 0.77478 0.50328 0.09027 0.0
H991 H 0.89354 0.51002 0.79927 0.0
H992 H 0.8594 0.52964 0.82973 0.0
H993 H 0.83049 0.46766 0.8996 0.0
H994 H 0.86525 0.44813 0.8708 0.0
H995 H 0.83406 0.4955 0.99897 0.0
H996 H 0.80156 0.50319 0.77 0.0
H997 H 0.80193 0.51286 0.64697 0.0
H998 H 0.82581 0.57846 0.69414 0.0
H999 H 0.82479 0.56944 0.81764 0.0
C1000 C 0.74487 0.54673 0.08787 0.0
C1001 C 0.75344 0.5562 0.14833 0.0
C1002 C 0.75849 0.54406 0.03051 0.0
C1003 C 0.7809 0.55039 0.03335 0.0
C1004 C 0.78855 0.5628 0.08934 0.0
C1005 C 0.7748 0.56586 0.14643 0.0
C1006 C 0.79696 0.53833 0.98993 0.0
C1007 C 0.79825 0.54279 0.91949 0.0
C1008 C 0.80983 0.5209 0.01841 0.0
C1009 C 0.80891 0.51508 0.09221 0.0
C1010 C 0.82783 0.51807 0.13333 0.0
C1011 C 0.82718 0.51233 0.20274 0.0
C1012 C 0.80767 0.50361 0.23153 0.0
C1013 C 0.78877 0.50059 0.19098 0.0
C1014 C 0.7894 0.50612 0.12138 0.0
C1015 C 0.87949 0.50048 0.81815 0.0
C1016 C 0.88178 0.47767 0.83261 0.0
C1017 C 0.8599 0.51168 0.83521 0.0
C1018 C 0.8423 0.50014 0.86676 0.0
C1019 C 0.84388 0.47687 0.87518 0.0
C1020 C 0.86367 0.46573 0.85911 0.0
C1021 C 0.82525 0.51275 0.90561 0.0
C1022 C 0.82385 0.50849 0.97616 0.0
C1023 C 0.81243 0.53024 0.87685 0.0
C1024 C 0.81325 0.53559 0.80281 0.0
C1025 C 0.80695 0.51964 0.75403 0.0
C1026 C 0.8072 0.52504 0.68427 0.0
C1027 C 0.81415 0.54616 0.66269 0.0
C1028 C 0.8205 0.56208 0.71091 0.0
C1029 C 0.81989 0.55691 0.78079 0.0
H1030 H 0.81453 0.55026 0.60872 0.0
H1031 H 0.80728 0.49906 0.28512 0.0
H1032 H 0.99292 0.26042 0.92934 0.0
H1033 H 1.00031 0.2279 0.85638 0.0
H1034 H 0.0194 0.18995 0.03498 0.0
H1035 H 0.01277 0.22261 0.10688 0.0
H1036 H 0.04269 0.17577 0.93241 0.0
H1037 H 0.96468 0.19356 0.96385 0.0
H1038 H 0.93054 0.21616 0.95437 0.0
H1039 H 0.93638 0.21531 0.73497 0.0
H1040 H 0.97075 0.19283 0.74359 0.0
H1041 H 0.01479 0.06512 0.84727 0.0
H1042 H 0.0167 0.10242 0.8959 0.0
H1043 H 0.99858 0.13079 0.7006 0.0
H1044 H 0.99609 0.09327 0.65166 0.0
H1045 H 0.97694 0.1518 0.79816 0.0
H1046 H 0.05343 0.13288 0.76427 0.0
H1047 H 0.08736 0.10976 0.7723 0.0
H1048 H 0.08448 0.11314 0.99189 0.0
H1049 H 0.05035 0.13603 0.98522 0.0
C1050 C 0.99975 0.24544 0.95229 0.0
C1051 C 1.00269 0.24417 0.0236 0.0
C1052 C 1.00355 0.22668 0.9108 0.0
C1053 C 0.00977 0.20609 0.94013 0.0
C1054 C 0.01448 0.20545 0.01069 0.0
C1055 C 0.0109 0.22422 0.0519 0.0
C1056 C 0.00966 0.18483 0.89955 0.0
C1057 C 0.02822 0.17053 0.90344 0.0
C1058 C 0.99107 0.17802 0.85976 0.0
C1059 C 0.97042 0.19162 0.85458 0.0
C1060 C 0.95873 0.19821 0.91374 0.0
C1061 C 0.93933 0.21103 0.90847 0.0
C1062 C 0.9313 0.21721 0.84406 0.0
C1063 C 0.94264 0.21054 0.78486 0.0
C1064 C 0.96209 0.19776 0.78996 0.0
C1065 C 0.01128 0.07923 0.81424 0.0
C1066 C 1.00544 0.07601 0.7451 0.0
C1067 C 0.0125 0.10069 0.84225 0.0
C1068 C 0.00824 0.11967 0.80186 0.0
C1069 C 1.00209 0.11653 0.73301 0.0
C1070 C 1.00072 0.095 0.70496 0.0
C1071 C 0.0098 0.14262 0.83211 0.0
C1072 C 0.99151 0.15718 0.82639 0.0
C1073 C 0.02864 0.14973 0.86996 0.0
C1074 C 0.04922 0.13604 0.87422 0.0
C1075 C 0.05994 0.12856 0.81428 0.0
C1076 C 0.07922 0.11552 0.81859 0.0
C1077 C 0.08804 0.10995 0.88256 0.0
C1078 C 0.07762 0.11746 0.94237 0.0
C1079 C 0.05832 0.13049 0.93835 0.0
H1080 H 0.10297 0.09984 0.88579 0.0
H1081 H 0.91627 0.22713 0.84 0.0
H1082 H 0.26246 0.04351 0.98032 0.0
H1083 H 0.29491 0.04251 0.90268 0.0
H1084 H 0.31516 0.97979 0.99176 0.0
H1085 H 0.28265 0.98057 0.06718 0.0
H1086 H 0.3362 0.04568 0.93034 0.0
H1087 H 0.34826 0.9496 0.89211 0.0
H1088 H 0.32513 0.91647 0.86967 0.0
H1089 H 0.27356 0.95814 0.78655 0.0
H1090 H 0.29648 0.99149 0.80763 0.0
H1091 H 0.45017 0.02401 0.87402 0.0
H1092 H 0.41153 0.02506 0.91351 0.0
H1093 H 0.39014 0.99621 0.72263 0.0
H1094 H 0.42881 0.99496 0.68298 0.0
H1095 H 0.36638 0.97894 0.81258 0.0
H1096 H 0.38278 0.05443 0.76771 0.0
H1097 H 0.40353 0.08984 0.77111 0.0
H1098 H 0.39394 0.09329 0.98898 0.0
H1099 H 0.37336 0.05771 0.98701 0.0
C1100 C 0.27335 0.0291 0.98109 0.0
C1101 C 0.26973 0.01194 0.02911 0.0
C1102 C 0.29214 0.02865 0.93739 0.0
C1103 C 0.30773 0.01102 0.94057 0.0
C1104 C 0.30341 0.9934 0.98652 0.0
C1105 C 0.2847 0.99382 0.02982 0.0
C1106 C 0.32941 0.01177 0.9011 0.0
C1107 C 0.34268 0.03107 0.90438 0.0
C1108 C 0.33792 0.99309 0.86484 0.0
C1109 C 0.32403 0.97308 0.85207 0.0
C1110 C 0.33202 0.9517 0.86883 0.0
C1111 C 0.31893 0.93287 0.85639 0.0
C1112 C 0.29786 0.9352 0.8269 0.0
C1113 C 0.28984 0.95636 0.80965 0.0
C1114 C 0.30286 0.97524 0.82197 0.0
C1115 C 0.43727 0.01808 0.83998 0.0
C1116 C 0.4428 0.00966 0.77479 0.0
C1117 C 0.415 0.01883 0.86256 0.0
C1118 C 0.39748 0.01141 0.8205 0.0
C1119 C 0.40305 1.00252 0.75594 0.0
C1120 C 0.42532 1.00183 0.73317 0.0
C1121 C 0.37356 0.0125 0.84461 0.0
C1122 C 0.35986 0.99358 0.83823 0.0
C1123 C 0.36433 0.03184 0.87567 0.0
C1124 C 0.37664 0.0533 0.87722 0.0
C1125 C 0.38519 0.06266 0.8164 0.0
C1126 C 0.39692 0.08277 0.81807 0.0
C1127 C 0.40009 0.09379 0.88025 0.0
C1128 C 0.39148 0.08473 0.94086 0.0
C1129 C 0.37976 0.0646 0.93947 0.0
H1130 H 0.40918 0.10936 0.88145 0.0
H1131 H 0.28776 0.92061 0.8173 0.0
H1132 H 0.48304 0.29158 0.15611 0.0
H1133 H 0.47558 0.32388 0.0828 0.0
H1134 H 0.51383 0.29365 0.92003 0.0
H1135 H 0.52154 0.26142 0.99433 0.0
H1136 H 0.52786 0.33436 0.938 0.0
H1137 H 0.45591 0.30299 0.90779 0.0
H1138 H 0.42002 0.28605 0.94107 0.0
H1139 H 0.40287 0.34471 0.05542 0.0
H1140 H 0.43882 0.3619 0.02363 0.0
H1141 H 0.5071 0.42661 0.71473 0.0
H1142 H 0.50654 0.38884 0.76274 0.0
H1143 H 0.47355 0.41342 0.94409 0.0
H1144 H 0.47384 0.45114 0.89629 0.0
H1145 H 0.45588 0.37372 0.90528 0.0
H1146 H 0.52997 0.40309 0.94191 0.0
H1147 H 0.5653 0.42017 0.90356 0.0
H1148 H 0.57769 0.36443 0.77109 0.0
H1149 H 0.54228 0.34714 0.80814 0.0
C1150 C 0.48895 0.29138 0.10359 0.0
C1151 C 0.5023 0.27364 0.0803 0.0
C1152 C 0.48485 0.30999 0.06166 0.0
C1153 C 0.49402 0.31138 0.99525 0.0
C1154 C 0.50648 0.29311 0.9708 0.0
C1155 C 0.51058 0.27448 0.01286 0.0
C1156 C 0.49232 0.33262 0.95437 0.0
C1157 C 0.51201 0.34266 0.92977 0.0
C1158 C 0.47179 0.34394 0.94427 0.0
C1159 C 0.45016 0.33366 0.96378 0.0
C1160 C 0.44457 0.31221 0.94051 0.0
C1161 C 0.4242 0.30257 0.95902 0.0
C1162 C 0.4092 0.31427 1.00046 0.0
C1163 C 0.41452 0.33566 0.02338 0.0
C1164 C 0.43489 0.34537 0.00506 0.0
C1165 C 0.49952 0.424 0.76457 0.0
C1166 C 0.49059 0.44209 0.80156 0.0
C1167 C 0.49931 0.40233 0.79219 0.0
C1168 C 0.49023 0.39816 0.85763 0.0
C1169 C 0.48068 0.41607 0.89363 0.0
C1170 C 0.48093 0.43773 0.86617 0.0
C1171 C 0.49138 0.37542 0.88982 0.0
C1172 C 0.47164 0.3652 0.91298 0.0
C1173 C 0.51183 0.36385 0.89821 0.0
C1174 C 0.5334 0.37392 0.87733 0.0
C1175 C 0.5402 0.39452 0.90441 0.0
C1176 C 0.56023 0.40423 0.88293 0.0
C1177 C 0.57371 0.39341 0.83481 0.0
C1178 C 0.56722 0.3728 0.80833 0.0
C1179 C 0.54719 0.36302 0.82961 0.0
H1180 H 0.58919 0.40098 0.81812 0.0
H1181 H 0.39343 0.30679 0.01471 0.0
H1182 H 0.22244 0.49245 0.12385 0.0
H1183 H 0.18989 0.48565 0.05193 0.0
H1184 H 0.21682 0.52983 0.89758 0.0
H1185 H 0.2489 0.53737 0.97153 0.0
H1186 H 0.17693 0.54139 0.91784 0.0
H1187 H 0.20913 0.47014 0.87557 0.0
H1188 H 0.22654 0.43396 0.9031 0.0
H1189 H 0.16845 0.4148 0.01827 0.0
H1190 H 0.1508 0.451 0.9922 0.0
H1191 H 0.08632 0.5207 0.68879 0.0
H1192 H 0.1236 0.52112 0.73942 0.0
H1193 H 0.09833 0.48691 0.91807 0.0
H1194 H 0.06105 0.48635 0.86782 0.0
H1195 H 0.13854 0.46955 0.87632 0.0
H1196 H 0.10762 0.54272 0.91868 0.0
H1197 H 0.09063 0.57849 0.88397 0.0
H1198 H 0.14795 0.59345 0.75974 0.0
H1199 H 0.16519 0.55766 0.79312 0.0
C1200 C 0.22188 0.49989 0.07322 0.0
C1201 C 0.23853 0.51496 0.05253 0.0
C1202 C 0.20313 0.49611 0.03202 0.0
C1203 C 0.2007 0.50708 0.96851 0.0
C1204 C 0.21809 0.52113 0.94612 0.0
C1205 C 0.23667 0.52516 0.98785 0.0
C1206 C 0.17924 0.50566 0.92907 0.0
C1207 C 0.16886 0.52557 0.90766 0.0
C1208 C 0.16816 0.48518 0.91653 0.0
C1209 C 0.17872 0.46338 0.93238 0.0
C1210 C 0.20013 0.45828 0.9072 0.0
C1211 C 0.21003 0.43776 0.92247 0.0
C1212 C 0.19863 0.42211 0.96254 0.0
C1213 C 0.17728 0.42695 0.98729 0.0
C1214 C 0.1673 0.44746 0.97221 0.0
C1215 C 0.08864 0.5132 0.73879 0.0
C1216 C 0.07051 0.50355 0.77413 0.0
C1217 C 0.11004 0.5135 0.76782 0.0
C1218 C 0.11387 0.50418 0.83297 0.0
C1219 C 0.0959 0.49419 0.86777 0.0
C1220 C 0.0745 0.49396 0.83895 0.0
C1221 C 0.13642 0.5052 0.86564 0.0
C1222 C 0.14687 0.48527 0.88599 0.0
C1223 C 0.14771 0.52562 0.8764 0.0
C1224 C 0.13755 0.54737 0.85762 0.0
C1225 C 0.11653 0.55357 0.88359 0.0
C1226 C 0.10687 0.57386 0.86425 0.0
C1227 C 0.11817 0.58818 0.81948 0.0
C1228 C 0.1392 0.58231 0.79427 0.0
C1229 C 0.14893 0.56204 0.81343 0.0
H1230 H 0.11065 0.60386 0.80448 0.0
H1231 H 0.20633 0.40623 0.9743 0.0
H1232 H 0.96378 0.76283 0.39064 0.0
H1233 H 0.9662 0.79757 0.45652 0.0
H1234 H 0.03318 0.80771 0.38143 0.0
H1235 H 0.0309 0.77274 0.31759 0.0
H1236 H 0.03133 0.82587 0.49972 0.0
H1237 H 0.98703 0.83113 0.30074 0.0
H1238 H 0.95727 0.82081 0.22013 0.0
H1239 H 0.90775 0.83557 0.37312 0.0
H1240 H 0.93733 0.84561 0.45506 0.0
H1241 H 0.99129 0.95123 0.47665 0.0
H1242 H 0.99207 0.91318 0.43162 0.0
H1243 H 0.00714 0.88791 0.63331 0.0
H1244 H 1.00704 0.92585 0.67818 0.0
H1245 H 0.9691 0.87777 0.44845 0.0
H1246 H 0.03805 0.84155 0.62703 0.0
H1247 H 0.07325 0.8533 0.68117 0.0
H1248 H 0.07976 0.90641 0.53451 0.0
H1249 H 0.04538 0.89408 0.47711 0.0
C1250 C 0.97935 0.77197 0.39085 0.0
C1251 C 0.99725 0.76487 0.34967 0.0
C1252 C 0.98063 0.79209 0.42757 0.0
C1253 C 0.99968 0.80582 0.42277 0.0
C1254 C 0.01823 0.7977 0.38617 0.0
C1255 C 0.01698 0.77756 0.34986 0.0
C1256 C 0.99956 0.82935 0.44977 0.0
C1257 C 0.01754 0.83706 0.48929 0.0
C1258 C 0.98228 0.84465 0.43334 0.0
C1259 C 0.96439 0.83887 0.38424 0.0
C1260 C 0.96981 0.83202 0.31731 0.0
C1261 C 0.95297 0.82623 0.27138 0.0
C1262 C 0.93062 0.82748 0.29156 0.0
C1263 C 0.92508 0.83457 0.35764 0.0
C1264 C 0.94187 0.84032 0.40385 0.0
C1265 C 0.99476 0.9376 0.51156 0.0
C1266 C 0.99908 0.94181 0.58124 0.0
C1267 C 0.99516 0.91574 0.48567 0.0
C1268 C 0.99986 0.89743 0.52862 0.0
C1269 C 1.00388 0.9016 0.59843 0.0
C1270 C 1.00367 0.92343 0.62423 0.0
C1271 C 1.00047 0.87405 0.5007 0.0
C1272 C 0.98266 0.86644 0.46032 0.0
C1273 C 0.01846 0.85922 0.51351 0.0
C1274 C 0.03913 0.86682 0.5479 0.0
C1275 C 0.04722 0.85545 0.60569 0.0
C1276 C 0.06702 0.86223 0.63691 0.0
C1277 C 0.07865 0.88067 0.61159 0.0
C1278 C 0.07069 0.89217 0.5543 0.0
C1279 C 0.05111 0.8852 0.52215 0.0
H1280 H 0.09384 0.88604 0.63633 0.0
H1281 H 0.9176 0.823 0.25594 0.0
H1282 H 0.73802 0.01298 0.2966 0.0
H1283 H 0.70442 0.02149 0.36415 0.0
H1284 H 0.72743 0.97763 0.52444 0.0
H1285 H 0.76087 0.96917 0.45693 0.0
H1286 H 0.68652 0.96607 0.48383 0.0
H1287 H 0.72235 0.03385 0.5512 0.0
H1288 H 0.74194 0.06953 0.53329 0.0
H1289 H 0.68614 0.09477 0.41958 0.0
H1290 H 0.66633 0.05911 0.43601 0.0
H1291 H 0.59588 0.02079 0.71755 0.0
H1292 H 0.63368 0.02056 0.66865 0.0
H1293 H 0.6091 0.98724 0.48884 0.0
H1294 H 0.57147 0.98738 0.53697 0.0
H1295 H 0.65209 0.03826 0.5486 0.0
H1296 H 0.64782 0.94973 0.43577 0.0
H1297 H 0.62872 0.91398 0.45782 0.0
H1298 H 0.62332 0.93006 0.67153 0.0
H1299 H 0.64261 0.96576 0.65087 0.0
C1300 C 0.73643 1.00609 0.34776 0.0
C1301 C 0.7524 0.99084 0.37217 0.0
C1302 C 0.71705 0.01075 0.38615 0.0
C1303 C 0.71318 1.00012 0.44958 0.0
C1304 C 0.72988 0.98603 0.47579 0.0
C1305 C 0.74922 0.98148 0.43765 0.0
C1306 C 0.69097 1.0017 0.4851 0.0
C1307 C 0.67909 0.98191 0.49799 0.0
C1308 C 0.68108 0.02227 0.5042 0.0
C1309 C 0.69294 0.04373 0.49432 0.0
C1310 C 0.71433 0.04694 0.52188 0.0
C1311 C 0.72546 0.06717 0.5121 0.0
C1312 C 0.71531 0.08438 0.47518 0.0
C1313 C 0.69399 0.08141 0.44811 0.0
C1314 C 0.68279 0.0612 0.45771 0.0
C1315 C 0.59849 0.01341 0.66756 0.0
C1316 C 0.58047 1.00401 0.63156 0.0
C1317 C 0.62015 0.0134 0.63946 0.0
C1318 C 0.62441 1.00376 0.57507 0.0
C1319 C 0.60641 0.9946 0.53882 0.0
C1320 C 0.58479 0.99473 0.56657 0.0
C1321 C 0.64765 1.00266 0.54632 0.0
C1322 C 0.65962 0.02247 0.53447 0.0
C1323 C 0.65774 0.9821 0.52837 0.0
C1324 C 0.64649 0.96049 0.54161 0.0
C1325 C 0.64265 0.94558 0.4875 0.0
C1326 C 0.63177 0.92534 0.49975 0.0
C1327 C 0.62476 0.91978 0.566 0.0
C1328 C 0.62869 0.93442 0.6202 0.0
C1329 C 0.63957 0.95467 0.60823 0.0
H1330 H 0.61632 0.90412 0.57536 0.0
H1331 H 0.72395 0.10004 0.46767 0.0
H1332 H 0.56751 0.74868 0.47031 0.0
H1333 H 0.55562 0.71516 0.53076 0.0
H1334 H 0.49667 0.71221 0.40494 0.0
H1335 H 0.50938 0.74537 0.34178 0.0
H1336 H 0.52769 0.69875 0.60547 0.0
H1337 H 0.48037 0.66081 0.3747 0.0
H1338 H 0.48184 0.66077 0.24818 0.0
H1339 H 0.55136 0.67771 0.25362 0.0
H1340 H 0.55018 0.67828 0.38002 0.0
H1341 H 0.4856 0.59539 0.73187 0.0
H1342 H 0.48984 0.63274 0.68209 0.0
H1343 H 0.52902 0.60513 0.51693 0.0
H1344 H 0.52417 0.56792 0.56493 0.0
H1345 H 0.50579 0.63426 0.46269 0.0
H1346 H 0.55212 0.63564 0.65482 0.0
H1347 H 0.56539 0.63269 0.77382 0.0
H1348 H 0.51884 0.68326 0.83591 0.0
H1349 H 0.50503 0.68632 0.71717 0.0
C1350 C 0.55159 0.74134 0.4571 0.0
C1351 C 0.53934 0.74987 0.40147 0.0
C1352 C 0.54483 0.72194 0.49149 0.0
C1353 C 0.52543 0.71046 0.47183 0.0
C1354 C 0.51205 0.72015 0.42024 0.0
C1355 C 0.51904 0.73951 0.38501 0.0
C1356 C 0.52021 0.68794 0.50291 0.0
C1357 C 0.52266 0.68476 0.57405 0.0
C1358 C 0.51457 0.66912 0.46255 0.0
C1359 C 0.51509 0.66986 0.38666 0.0
C1360 C 0.49591 0.66471 0.3488 0.0
C1361 C 0.49668 0.66465 0.27716 0.0
C1362 C 0.51663 0.66944 0.2429 0.0
C1363 C 0.53584 0.67432 0.28019 0.0
C1364 C 0.5351 0.67463 0.3518 0.0
C1365 C 0.49509 0.59726 0.68489 0.0
C1366 C 0.50451 0.57846 0.65268 0.0
C1367 C 0.49763 0.61874 0.65645 0.0
C1368 C 0.50995 0.62212 0.59555 0.0
C1369 C 0.51927 0.60328 0.56345 0.0
C1370 C 0.51656 0.58185 0.59136 0.0
C1371 C 0.51329 0.64509 0.56526 0.0
C1372 C 0.51043 0.64834 0.49431 0.0
C1373 C 0.52015 0.6636 0.60507 0.0
C1374 C 0.52734 0.66099 0.67727 0.0
C1375 C 0.54445 0.64589 0.69402 0.0
C1376 C 0.55213 0.64425 0.76133 0.0
C1377 C 0.54297 0.65778 0.81229 0.0
C1378 C 0.5259 0.67279 0.79628 0.0
C1379 C 0.51813 0.67447 0.72898 0.0
H1380 H 0.54928 0.65677 0.86396 0.0
H1381 H 0.51721 0.66922 0.1875 0.0
H1382 H 0.75941 0.56231 0.43352 0.0
H1383 H 0.79354 0.55625 0.49942 0.0
H1384 H 0.79922 0.49005 0.41552 0.0
H1385 H 0.76482 0.49612 0.35023 0.0
H1386 H 0.81719 0.49001 0.54016 0.0
H1387 H 0.82523 0.53402 0.33931 0.0
H1388 H 0.81694 0.56462 0.25866 0.0
H1389 H 0.83474 0.61258 0.412 0.0
H1390 H 0.84299 0.58213 0.49359 0.0
H1391 H 0.94468 0.51973 0.50485 0.0
H1392 H 0.90613 0.52186 0.46468 0.0
H1393 H 0.88244 0.51079 0.67079 0.0
H1394 H 0.92113 0.50836 0.7109 0.0
H1395 H 0.87324 0.5482 0.48497 0.0
H1396 H 0.83175 0.48433 0.66997 0.0
H1397 H 0.8413 0.44995 0.73253 0.0
H1398 H 0.89356 0.43623 0.58765 0.0
H1399 H 0.88396 0.47032 0.52322 0.0
C1400 C 0.76734 0.54608 0.43182 0.0
C1401 C 0.75916 0.52954 0.38772 0.0
C1402 C 0.78711 0.5427 0.46877 0.0
C1403 C 0.79945 0.52283 0.46152 0.0
C1404 C 0.7902 0.50555 0.42217 0.0
C1405 C 0.77037 0.50894 0.38521 0.0
C1406 C 0.82295 0.52115 0.48794 0.0
C1407 C 0.82937 0.50284 0.5286 0.0
C1408 C 0.83928 0.5374 0.47125 0.0
C1409 C 0.83455 0.55582 0.42253 0.0
C1410 C 0.82728 0.5511 0.35574 0.0
C1411 C 0.82258 0.5684 0.30993 0.0
C1412 C 0.82523 0.59055 0.33027 0.0
C1413 C 0.83267 0.59541 0.39637 0.0
C1414 C 0.83739 0.57812 0.44238 0.0
C1415 C 0.93129 0.51776 0.54176 0.0
C1416 C 0.93606 0.51357 0.61119 0.0
C1417 C 0.90915 0.519 0.51868 0.0
C1418 C 0.89111 0.51617 0.56432 0.0
C1419 C 0.89589 0.5125 0.63401 0.0
C1420 C 0.91805 0.51112 0.657 0.0
C1421 C 0.86746 0.51733 0.53888 0.0
C1422 C 0.86102 0.53551 0.49776 0.0
C1423 C 0.85136 0.50062 0.55372 0.0
C1424 C 0.85725 0.48006 0.59216 0.0
C1425 C 0.84523 0.47399 0.65129 0.0
C1426 C 0.85065 0.45452 0.68709 0.0
C1427 C 0.86809 0.44095 0.66428 0.0
C1428 C 0.88008 0.44677 0.60536 0.0
C1429 C 0.87466 0.46619 0.5692 0.0
H1430 H 0.87233 0.42594 0.69227 0.0
H1431 H 0.82156 0.60395 0.29476 0.0
loop_
_geom_bond_atom_site_label_1
_geom_bond_atom_site_label_2
_geom_bond_distance
_geom_bond_site_symmetry_2
_ccdc_geom_bond_type
H0 C3 0.931 . S
H1 C6 0.928 . S
H2 C8 0.930 . S
C3 H0 0.931 . S
C3 C4 1.413 . S
C3 C5 1.360 . S
C4 C3 1.413 . S
C4 C8 1.429 . S
C5 C3 1.360 . S
C5 C6 1.372 . S
C6 H1 0.928 . S
C6 C5 1.372 . S
C6 C7 1.404 . S
C7 C6 1.404 . S
C7 C8 1.391 . S
C8 H2 0.930 . S
C8 C4 1.429 . S
C8 C7 1.391 . S
H9 C12 0.931 . S
H10 C15 0.928 . S
H11 C17 0.930 . S
C12 H9 0.931 . S
C12 C13 1.413 . S
C12 C14 1.360 . S
C13 C12 1.413 . S
C13 C17 1.429 1_655 S
C14 C12 1.360 . S
C14 C15 1.372 . S
C15 H10 0.928 . S
C15 C14 1.372 . S
C15 C16 1.404 . S
C16 C15 1.404 . S
C16 C17 1.390 1_655 S
C17 H11 0.930 . S
C17 C13 1.429 1_455 S
C17 C16 1.390 1_455 S
H18 C21 0.931 . S
H19 C24 0.928 . S
H20 C26 0.930 . S
C21 H18 0.931 . S
C21 C22 1.413 . S
C21 C23 1.360 . S
C22 C21 1.413 . S
C22 C26 1.429 1_565 S
C23 C21 1.360 . S
C23 C24 1.372 . S
C24 H19 0.928 . S
C24 C23 1.372 . S
C24 C25 1.404 . S
C25 C24 1.404 . S
C25 C26 1.390 1_565 S
C26 H20 0.930 . S
C26 C22 1.429 1_545 S
C26 C25 1.390 1_545 S
H27 C30 0.931 . S
H28 C33 0.928 . S
H29 C35 0.930 . S
C30 H27 0.931 . S
C30 C31 1.413 . S
C30 C32 1.360 . S
C31 C30 1.413 . S
C31 C35 1.429 . S
C32 C30 1.360 . S
C32 C33 1.372 . S
C33 H28 0.928 . S
C33 C32 1.372 . S
C33 C34 1.404 . S
C34 C33 1.404 . S
C34 C35 1.391 . S
C35 H29 0.930 . S
C35 C31 1.429 . S
C35 C34 1.391 . S
H36 C39 0.931 . S
H37 C42 0.928 . S
H38 C44 0.930 1_556 S
C39 H36 0.931 . S
C39 C40 1.413 1_554 S
C39 C41 1.360 . S
C40 C39 1.413 1_556 S
C40 C44 1.429 1_556 S
C41 C39 1.360 . S
C41 C42 1.372 . S
C42 H37 0.928 . S
C42 C41 1.372 . S
C42 C43 1.404 . S
C43 C42 1.404 . S
C43 C44 1.391 . S
C44 H38 0.930 1_554 S
C44 C40 1.429 1_554 S
C44 C43 1.391 . S
H45 C48 0.931 . S
H46 C51 0.928 . S
H47 C53 0.930 1_556 S
C48 H45 0.931 . S
C48 C49 1.413 1_554 S
C48 C50 1.360 . S
C49 C48 1.413 1_556 S
C49 C53 1.429 1_656 S
C50 C48 1.360 . S
C50 C51 1.372 . S
C51 H46 0.928 . S
C51 C50 1.372 . S
C51 C52 1.404 . S
C52 C51 1.404 . S
C52 C53 1.391 1_655 S
C53 H47 0.930 1_554 S
C53 C49 1.429 1_454 S
C53 C52 1.391 1_455 S
H54 C57 0.931 . S
H55 C60 0.928 . S
H56 C62 0.930 1_556 S
C57 H54 0.931 . S
C57 C58 1.413 1_554 S
C57 C59 1.360 . S
C58 C57 1.413 1_556 S
C58 C62 1.429 1_566 S
C59 C57 1.360 . S
C59 C60 1.372 . S
C60 H55 0.928 . S
C60 C59 1.372 . S
C60 C61 1.404 . S
C61 C60 1.404 . S
C61 C62 1.391 1_565 S
C62 H56 0.930 1_554 S
C62 C58 1.429 1_544 S
C62 C61 1.391 1_545 S
H63 C66 0.931 . S
H64 C69 0.928 1_556 S
H65 C71 0.930 . S
C66 H63 0.931 . S
C66 C67 1.413 . S
C66 C68 1.360 1_554 S
C67 C66 1.413 . S
C67 C71 1.429 . S
C68 C66 1.360 1_556 S
C68 C69 1.372 1_556 S
C69 H64 0.928 1_554 S
C69 C68 1.372 1_554 S
C69 C70 1.404 . S
C70 C69 1.404 . S
C70 C71 1.391 . S
C71 H65 0.930 . S
C71 C67 1.429 . S
C71 C70 1.391 . S
C72 Eu73 2.835 . S
C72 C74 1.500 . S
C72 O92 1.257 . S
C72 O93 1.260 . S
Eu73 C72 2.835 . S
Eu73 O92 2.473 . S
Eu73 O93 2.480 . S
Eu73 O94 2.430 . S
Eu73 O95 2.670 1_545 S
Eu73 O96 2.394 . S
Eu73 O101 2.355 1_655 S
Eu73 O103 2.374 1_545 S
C74 C72 1.500 . S
C74 C75 1.377 . S
C74 C79 1.377 . S
C75 C74 1.377 . S
C75 C76 1.395 . S
C75 H104 0.931 . S
C76 C75 1.395 . S
C76 C77 1.383 . S
C76 H105 0.931 . S
C77 C76 1.383 . S
C77 C78 1.394 . S
C78 C77 1.394 . S
C78 C79 1.378 . S
C78 H106 0.931 1_655 S
C79 C74 1.377 . S
C79 C78 1.378 . S
C79 H107 0.931 1_655 S
C80 O94 1.286 . S
C80 O95 1.251 1_545 S
C81 O96 1.251 1_455 S
C81 O97 1.251 . S
C82 Eu83 2.835 . S
C82 C84 1.500 . S
C82 O98 1.257 . S
C82 O99 1.260 . S
Eu83 C82 2.835 . S
Eu83 O95 2.355 1_455 S
Eu83 O97 2.374 1_565 S
Eu83 O98 2.473 . S
Eu83 O99 2.480 . S
Eu83 O100 2.430 . S
Eu83 O101 2.670 1_565 S
Eu83 O102 2.394 . S
C84 C82 1.500 . S
C84 C85 1.377 . S
C84 C89 1.377 . S
C85 C84 1.377 . S
C85 C86 1.395 . S
C85 H108 0.931 . S
C86 C85 1.395 . S
C86 C87 1.383 . S
C86 H109 0.931 . S
C87 C86 1.383 . S
C87 C88 1.394 . S
C88 C87 1.394 . S
C88 C89 1.378 . S
C88 H110 0.931 1_455 S
C89 C84 1.377 . S
C89 C88 1.378 . S
C89 H111 0.931 1_455 S
C90 O100 1.280 . S
C90 O101 1.255 1_565 S
C91 O102 1.251 1_655 S
C91 O103 1.251 . S
O92 C72 1.257 . S
O92 Eu73 2.473 . S
O93 C72 1.260 . S
O93 Eu73 2.480 . S
O94 Eu73 2.430 . S
O94 C80 1.286 . S
O95 Eu73 2.670 1_565 S
O95 C80 1.251 1_565 S
O95 Eu83 2.355 1_655 S
O96 Eu73 2.394 . S
O96 C81 1.251 1_655 S
O97 C81 1.251 . S
O97 Eu83 2.374 1_545 S
O98 C82 1.257 . S
O98 Eu83 2.473 . S
O99 C82 1.260 . S
O99 Eu83 2.480 . S
O100 Eu83 2.430 . S
O100 C90 1.280 . S
O101 Eu73 2.355 1_455 S
O101 Eu83 2.670 1_545 S
O101 C90 1.255 1_545 S
O102 Eu83 2.394 . S
O102 C91 1.251 1_455 S
O103 Eu73 2.374 1_565 S
O103 C91 1.251 . S
H104 C75 0.931 . S
H105 C76 0.931 . S
H106 C78 0.931 1_455 S
H107 C79 0.931 1_455 S
H108 C85 0.931 . S
H109 C86 0.931 . S
H110 C88 0.931 1_655 S
H111 C89 0.931 1_655 S
C112 Eu113 2.835 . S
C112 C114 1.500 . S
C112 O132 1.257 . S
C112 O133 1.260 . S
Eu113 C112 2.835 . S
Eu113 O132 2.473 . S
Eu113 O133 2.480 . S
Eu113 O134 2.430 . S
Eu113 O135 2.670 . S
Eu113 O136 2.394 . S
Eu113 O141 2.355 1_565 S
Eu113 O143 2.374 . S
C114 C112 1.500 . S
C114 C115 1.377 . S
C114 C119 1.377 . S
C115 C114 1.377 . S
C115 C116 1.395 . S
C115 H144 0.931 . S
C116 C115 1.395 . S
C116 C117 1.383 . S
C116 H145 0.931 . S
C117 C116 1.383 . S
C117 C118 1.394 . S
C118 C117 1.394 . S
C118 C119 1.378 . S
C118 H146 0.931 1_565 S
C119 C114 1.377 . S
C119 C118 1.378 . S
C119 H147 0.931 1_565 S
C120 O134 1.259 . S
C120 O135 1.270 . S
C121 O136 1.251 1_545 S
C121 O137 1.251 . S
C122 Eu123 2.835 . S
C122 C124 1.500 . S
C122 O138 1.257 . S
C122 O139 1.260 . S
Eu123 C122 2.835 . S
Eu123 O135 2.355 1_545 S
Eu123 O137 2.374 . S
Eu123 O138 2.473 . S
Eu123 O139 2.480 . S
Eu123 O140 2.430 . S
Eu123 O141 2.670 . S
Eu123 O142 2.394 . S
C124 C122 1.500 . S
C124 C125 1.377 . S
C124 C129 1.377 . S
C125 C124 1.377 . S
C125 C126 1.395 . S
C125 H148 0.931 . S
C126 C125 1.395 . S
C126 C127 1.383 . S
C126 H149 0.931 . S
C127 C126 1.383 . S
C127 C128 1.394 . S
C128 C127 1.394 . S
C128 C129 1.378 . S
C128 H150 0.931 1_545 S
C129 C124 1.377 . S
C129 C128 1.378 . S
C129 H151 0.931 1_545 S
C130 O140 1.259 . S
C130 O141 1.270 . S
C131 O142 1.251 1_565 S
C131 O143 1.251 . S
O132 C112 1.257 . S
O132 Eu113 2.473 . S
O133 C112 1.260 . S
O133 Eu113 2.480 . S
O134 Eu113 2.430 . S
O134 C120 1.259 . S
O135 Eu113 2.670 . S
O135 C120 1.270 . S
O135 Eu123 2.355 1_565 S
O136 Eu113 2.394 . S
O136 C121 1.251 1_565 S
O137 C121 1.251 . S
O137 Eu123 2.374 . S
O138 C122 1.257 . S
O138 Eu123 2.473 . S
O139 C122 1.260 . S
O139 Eu123 2.480 . S
O140 Eu123 2.430 . S
O140 C130 1.259 . S
O141 Eu113 2.355 1_545 S
O141 Eu123 2.670 . S
O141 C130 1.270 . S
O142 Eu123 2.394 . S
O142 C131 1.251 1_545 S
O143 Eu113 2.374 . S
O143 C131 1.251 . S
H144 C115 0.931 . S
H145 C116 0.931 . S
H146 C118 0.931 1_545 S
H147 C119 0.931 1_545 S
H148 C125 0.931 . S
H149 C126 0.931 . S
H150 C128 0.931 1_565 S
H151 C129 0.931 1_565 S
C152 Eu153 2.835 . S
C152 C154 1.500 . S
C152 O172 1.257 . S
C152 O173 1.260 . S
Eu153 C152 2.835 . S
Eu153 O172 2.473 . S
Eu153 O173 2.480 . S
Eu153 O174 2.430 . S
Eu153 O175 2.670 . S
Eu153 O176 2.394 . S
Eu153 O181 2.355 . S
Eu153 O183 2.374 . S
C154 C152 1.500 . S
C154 C155 1.377 . S
C154 C159 1.377 . S
C155 C154 1.377 . S
C155 C156 1.395 . S
C155 H184 0.931 . S
C156 C155 1.395 . S
C156 C157 1.383 . S
C156 H185 0.931 . S
C157 C156 1.383 . S
C157 C158 1.394 . S
C158 C157 1.394 . S
C158 C159 1.378 . S
C158 H186 0.931 . S
C159 C154 1.377 . S
C159 C158 1.378 . S
C159 H187 0.931 . S
C160 O174 1.259 . S
C160 O175 1.270 . S
C161 O176 1.251 . S
C161 O177 1.251 . S
C162 Eu163 2.835 . S
C162 C164 1.500 . S
C162 O178 1.257 . S
C162 O179 1.260 . S
Eu163 C162 2.835 . S
Eu163 O175 2.355 . S
Eu163 O177 2.374 . S
Eu163 O178 2.473 . S
Eu163 O179 2.480 . S
Eu163 O180 2.430 . S
Eu163 O181 2.670 . S
Eu163 O182 2.394 . S
C164 C162 1.500 . S
C164 C165 1.377 . S
C164 C169 1.377 . S
C165 C164 1.377 . S
C165 C166 1.395 . S
C165 H188 0.931 . S
C166 C165 1.395 . S
C166 C167 1.383 . S
C166 H189 0.931 . S
C167 C166 1.383 . S
C167 C168 1.394 . S
C168 C167 1.394 . S
C168 C169 1.378 . S
C168 H190 0.931 . S
C169 C164 1.377 . S
C169 C168 1.378 . S
C169 H191 0.931 . S
C170 O180 1.259 . S
C170 O181 1.270 . S
C171 O182 1.251 . S
C171 O183 1.251 . S
O172 C152 1.257 . S
O172 Eu153 2.473 . S
O173 C152 1.260 . S
O173 Eu153 2.480 . S
O174 Eu153 2.430 . S
O174 C160 1.259 . S
O175 Eu153 2.670 . S
O175 C160 1.270 . S
O175 Eu163 2.355 . S
O176 Eu153 2.394 . S
O176 C161 1.251 . S
O177 C161 1.251 . S
O177 Eu163 2.374 . S
O178 C162 1.257 . S
O178 Eu163 2.473 . S
O179 C162 1.260 . S
O179 Eu163 2.480 . S
O180 Eu163 2.430 . S
O180 C170 1.259 . S
O181 Eu153 2.355 . S
O181 Eu163 2.670 . S
O181 C170 1.270 . S
O182 Eu163 2.394 . S
O182 C171 1.251 . S
O183 Eu153 2.374 . S
O183 C171 1.251 . S
H184 C155 0.931 . S
H185 C156 0.931 . S
H186 C158 0.931 . S
H187 C159 0.931 . S
H188 C165 0.931 . S
H189 C166 0.931 . S
H190 C168 0.931 . S
H191 C169 0.931 . S
C192 Eu193 2.835 . S
C192 C194 1.500 . S
C192 O212 1.257 . S
C192 O213 1.260 . S
Eu193 C192 2.835 . S
Eu193 O212 2.473 . S
Eu193 O213 2.480 . S
Eu193 O214 2.430 . S
Eu193 O215 2.670 1_455 S
Eu193 O216 2.394 . S
Eu193 O221 2.355 . S
Eu193 O223 2.374 1_455 S
C194 C192 1.500 . S
C194 C195 1.377 . S
C194 C199 1.377 . S
C195 C194 1.377 . S
C195 C196 1.395 . S
C195 H224 0.931 . S
C196 C195 1.395 . S
C196 C197 1.383 . S
C196 H225 0.931 . S
C197 C196 1.383 . S
C197 C198 1.394 . S
C198 C197 1.394 . S
C198 C199 1.378 . S
C198 H226 0.931 . S
C199 C194 1.377 . S
C199 C198 1.378 . S
C199 H227 0.931 . S
C200 O214 1.268 . S
C200 O215 1.263 1_455 S
C201 O216 1.251 . S
C201 O217 1.251 . S
C202 Eu203 2.835 . S
C202 C204 1.500 . S
C202 O218 1.257 . S
C202 O219 1.260 . S
Eu203 C202 2.835 . S
Eu203 O215 2.355 . S
Eu203 O217 2.374 1_655 S
Eu203 O218 2.473 . S
Eu203 O219 2.480 . S
Eu203 O220 2.430 . S
Eu203 O221 2.670 1_655 S
Eu203 O222 2.394 . S
C204 C202 1.500 . S
C204 C205 1.377 . S
C204 C209 1.377 . S
C205 C204 1.377 . S
C205 C206 1.395 . S
C205 H228 0.931 . S
C206 C205 1.395 . S
C206 C207 1.383 . S
C206 H229 0.931 . S
C207 C206 1.383 . S
C207 C208 1.394 . S
C208 C207 1.394 . S
C208 C209 1.378 . S
C208 H230 0.931 . S
C209 C204 1.377 . S
C209 C208 1.378 . S
C209 H231 0.931 . S
C210 O220 1.263 . S
C210 O221 1.267 1_655 S
C211 O222 1.251 . S
C211 O223 1.251 . S
O212 C192 1.257 . S
O212 Eu193 2.473 . S
O213 C192 1.260 . S
O213 Eu193 2.480 . S
O214 Eu193 2.430 . S
O214 C200 1.268 . S
O215 Eu193 2.670 1_655 S
O215 C200 1.263 1_655 S
O215 Eu203 2.355 . S
O216 Eu193 2.394 . S
O216 C201 1.251 . S
O217 C201 1.251 . S
O217 Eu203 2.374 1_455 S
O218 C202 1.257 . S
O218 Eu203 2.473 . S
O219 C202 1.260 . S
O219 Eu203 2.480 . S
O220 Eu203 2.430 . S
O220 C210 1.263 . S
O221 Eu193 2.355 . S
O221 Eu203 2.670 1_455 S
O221 C210 1.267 1_455 S
O222 Eu203 2.394 . S
O222 C211 1.251 . S
O223 Eu193 2.374 1_655 S
O223 C211 1.251 . S
H224 C195 0.931 . S
H225 C196 0.931 . S
H226 C198 0.931 . S
H227 C199 0.931 . S
H228 C205 0.931 . S
H229 C206 0.931 . S
H230 C208 0.931 . S
H231 C209 0.931 . S
H232 C250 0.951 . S
H233 C252 0.951 . S
H234 C254 0.950 . S
H235 C255 0.950 . S
H236 C257 0.950 . S
H237 C260 0.950 . S
H238 C261 0.950 . S
H239 C263 0.950 . S
H240 C264 0.950 . S
H241 C265 0.951 . S
H242 C267 0.951 . S
H243 C269 0.950 . S
H244 C270 0.950 . S
H245 C272 0.950 . S
H246 C275 0.950 . S
H247 C276 0.950 . S
H248 C278 0.950 . S
H249 C279 0.950 . S
C250 H232 0.951 . S
C250 C251 1.366 . S
C250 C252 1.388 . S
C251 C250 1.366 . S
C251 C255 1.385 1_545 S
C252 H233 0.951 . S
C252 C250 1.388 . S
C252 C253 1.366 . S
C253 C252 1.366 . S
C253 C254 1.414 1_545 S
C253 C256 1.499 . S
C254 H234 0.950 . S
C254 C253 1.414 1_565 S
C254 C255 1.374 . S
C255 H235 0.950 . S
C255 C251 1.385 1_565 S
C255 C254 1.374 . S
C256 C253 1.499 . S
C256 C257 1.373 1_545 S
C256 C258 1.389 . S
C257 H236 0.950 . S
C257 C256 1.373 1_565 S
C257 C273 1.377 . S
C258 C256 1.389 . S
C258 C259 1.524 . S
C258 C272 1.377 . S
C259 C258 1.524 . S
C259 C260 1.397 . S
C259 C264 1.363 . S
C260 H237 0.950 . S
C260 C259 1.397 . S
C260 C261 1.334 . S
C261 H238 0.950 . S
C261 C260 1.334 . S
C261 C262 1.287 . S
C262 C261 1.287 . S
C262 C263 1.524 . S
C262 H281 0.913 . S
C263 H239 0.950 . S
C263 C262 1.524 . S
C263 C264 1.415 . S
C264 H240 0.950 . S
C264 C259 1.363 . S
C264 C263 1.415 . S
C265 H241 0.951 . S
C265 C266 1.359 1_565 S
C265 C267 1.388 . S
C266 C265 1.359 1_545 S
C266 C270 1.392 . S
C267 H242 0.951 . S
C267 C265 1.388 . S
C267 C268 1.374 . S
C268 C267 1.374 . S
C268 C269 1.404 1_565 S
C268 C271 1.499 . S
C269 H243 0.950 . S
C269 C268 1.404 1_545 S
C269 C270 1.374 . S
C270 H244 0.950 . S
C270 C266 1.392 . S
C270 C269 1.374 . S
C271 C268 1.499 . S
C271 C272 1.348 1_565 S
C271 C273 1.414 . S
C272 H245 0.950 . S
C272 C258 1.377 . S
C272 C271 1.348 1_545 S
C273 C257 1.377 . S
C273 C271 1.414 . S
C273 C274 1.524 . S
C274 C273 1.524 . S
C274 C275 1.397 . S
C274 C279 1.363 . S
C275 H246 0.950 . S
C275 C274 1.397 . S
C275 C276 1.334 . S
C276 H247 0.950 . S
C276 C275 1.334 . S
C276 C277 1.287 . S
C277 C276 1.287 . S
C277 C278 1.524 . S
C277 H280 0.999 . S
C278 H248 0.950 . S
C278 C277 1.524 . S
C278 C279 1.415 . S
C279 H249 0.950 . S
C279 C274 1.363 . S
C279 C278 1.415 . S
H280 C277 0.999 . S
H281 C262 0.913 . S
H282 C300 0.951 . S
H283 C302 0.951 . S
H284 C304 0.950 . S
H285 C305 0.950 . S
H286 C307 0.950 . S
H287 C310 0.950 . S
H288 C311 0.950 . S
H289 C313 0.950 . S
H290 C314 0.950 . S
H291 C315 0.951 . S
H292 C317 0.951 . S
H293 C319 0.950 . S
H294 C320 0.950 . S
H295 C322 0.950 . S
H296 C325 0.950 . S
H297 C326 0.950 . S
H298 C328 0.950 . S
H299 C329 0.950 . S
C300 H282 0.951 . S
C300 C301 1.366 . S
C300 C302 1.388 . S
C301 C300 1.366 . S
C301 C305 1.385 . S
C302 H283 0.951 . S
C302 C300 1.388 . S
C302 C303 1.366 . S
C303 C302 1.366 . S
C303 C304 1.414 . S
C303 C306 1.499 . S
C304 H284 0.950 . S
C304 C303 1.414 . S
C304 C305 1.374 . S
C305 H285 0.950 . S
C305 C301 1.385 . S
C305 C304 1.374 . S
C306 C303 1.499 . S
C306 C307 1.373 . S
C306 C308 1.389 . S
C307 H286 0.950 . S
C307 C306 1.373 . S
C307 C323 1.377 . S
C308 C306 1.389 . S
C308 C309 1.524 . S
C308 C322 1.377 . S
C309 C308 1.524 . S
C309 C310 1.397 . S
C309 C314 1.363 . S
C310 H287 0.950 . S
C310 C309 1.397 . S
C310 C311 1.334 . S
C311 H288 0.950 . S
C311 C310 1.334 . S
C311 C312 1.287 . S
C312 C311 1.287 . S
C312 C313 1.524 . S
C312 H331 0.913 . S
C313 H289 0.950 . S
C313 C312 1.524 . S
C313 C314 1.415 . S
C314 H290 0.950 . S
C314 C309 1.363 . S
C314 C313 1.415 . S
C315 H291 0.951 . S
C315 C316 1.366 . S
C315 C317 1.388 . S
C316 C315 1.366 . S
C316 C320 1.385 . S
C317 H292 0.951 . S
C317 C315 1.388 . S
C317 C318 1.366 . S
C318 C317 1.366 . S
C318 C319 1.414 . S
C318 C321 1.499 . S
C319 H293 0.950 . S
C319 C318 1.414 . S
C319 C320 1.374 . S
C320 H294 0.950 . S
C320 C316 1.385 . S
C320 C319 1.374 . S
C321 C318 1.499 . S
C321 C322 1.373 . S
C321 C323 1.389 . S
C322 H295 0.950 . S
C322 C308 1.377 . S
C322 C321 1.373 . S
C323 C307 1.377 . S
C323 C321 1.389 . S
C323 C324 1.524 . S
C324 C323 1.524 . S
C324 C325 1.397 . S
C324 C329 1.363 . S
C325 H296 0.950 . S
C325 C324 1.397 . S
C325 C326 1.334 . S
C326 H297 0.950 . S
C326 C325 1.334 . S
C326 C327 1.287 . S
C327 C326 1.287 . S
C327 C328 1.524 . S
C327 H330 0.999 . S
C328 H298 0.950 . S
C328 C327 1.524 . S
C328 C329 1.415 . S
C329 H299 0.950 . S
C329 C324 1.363 . S
C329 C328 1.415 . S
H330 C327 0.999 . S
H331 C312 0.913 . S
H332 C350 0.951 . S
H333 C352 0.951 . S
H334 C354 0.950 . S
H335 C355 0.950 . S
H336 C357 0.950 . S
H337 C360 0.950 . S
H338 C361 0.950 . S
H339 C363 0.950 . S
H340 C364 0.950 . S
H341 C365 0.951 . S
H342 C367 0.951 . S
H343 C369 0.950 . S
H344 C370 0.950 . S
H345 C372 0.950 . S
H346 C375 0.950 . S
H347 C376 0.950 . S
H348 C378 0.950 . S
H349 C379 0.950 . S
C350 H332 0.951 . S
C350 C351 1.366 . S
C350 C352 1.388 . S
C351 C350 1.366 . S
C351 C355 1.385 . S
C352 H333 0.951 . S
C352 C350 1.388 . S
C352 C353 1.366 . S
C353 C352 1.366 . S
C353 C354 1.414 . S
C353 C356 1.499 . S
C354 H334 0.950 . S
C354 C353 1.414 . S
C354 C355 1.374 . S
C355 H335 0.950 . S
C355 C351 1.385 . S
C355 C354 1.374 . S
C356 C353 1.499 . S
C356 C357 1.373 . S
C356 C358 1.389 . S
C357 H336 0.950 . S
C357 C356 1.373 . S
C357 C373 1.377 . S
C358 C356 1.389 . S
C358 C359 1.524 . S
C358 C372 1.377 . S
C359 C358 1.524 . S
C359 C360 1.397 . S
C359 C364 1.363 . S
C360 H337 0.950 . S
C360 C359 1.397 . S
C360 C361 1.334 . S
C361 H338 0.950 . S
C361 C360 1.334 . S
C361 C362 1.287 . S
C362 C361 1.287 . S
C362 C363 1.524 . S
C362 H381 0.913 . S
C363 H339 0.950 . S
C363 C362 1.524 . S
C363 C364 1.415 . S
C364 H340 0.950 . S
C364 C359 1.363 . S
C364 C363 1.415 . S
C365 H341 0.951 . S
C365 C366 1.366 . S
C365 C367 1.388 . S
C366 C365 1.366 . S
C366 C370 1.385 . S
C367 H342 0.951 . S
C367 C365 1.388 . S
C367 C368 1.366 . S
C368 C367 1.366 . S
C368 C369 1.414 . S
C368 C371 1.499 . S
C369 H343 0.950 . S
C369 C368 1.414 . S
C369 C370 1.374 . S
C370 H344 0.950 . S
C370 C366 1.385 . S
C370 C369 1.374 . S
C371 C368 1.499 . S
C371 C372 1.373 . S
C371 C373 1.389 . S
C372 H345 0.950 . S
C372 C358 1.377 . S
C372 C371 1.373 . S
C373 C357 1.377 . S
C373 C371 1.389 . S
C373 C374 1.524 . S
C374 C373 1.524 . S
C374 C375 1.397 . S
C374 C379 1.363 . S
C375 H346 0.950 . S
C375 C374 1.397 . S
C375 C376 1.334 . S
C376 H347 0.950 . S
C376 C375 1.334 . S
C376 C377 1.287 . S
C377 C376 1.287 . S
C377 C378 1.524 . S
C377 H380 0.999 . S
C378 H348 0.950 . S
C378 C377 1.524 . S
C378 C379 1.415 . S
C379 H349 0.950 . S
C379 C374 1.363 . S
C379 C378 1.415 . S
H380 C377 0.999 . S
H381 C362 0.913 . S
H382 C400 0.951 . S
H383 C402 0.951 . S
H384 C404 0.950 . S
H385 C405 0.950 . S
H386 C407 0.950 1_655 S
H387 C410 0.950 . S
H388 C411 0.950 . S
H389 C413 0.950 . S
H390 C414 0.950 . S
H391 C415 0.951 . S
H392 C417 0.951 . S
H393 C419 0.950 . S
H394 C420 0.950 . S
H395 C422 0.950 . S
H396 C425 0.950 . S
H397 C426 0.950 . S
H398 C428 0.950 . S
H399 C429 0.950 . S
C400 H382 0.951 . S
C400 C401 1.364 1_655 S
C400 C402 1.388 . S
C401 C400 1.364 1_455 S
C401 C405 1.386 . S
C402 H383 0.951 . S
C402 C400 1.388 . S
C402 C403 1.366 1_655 S
C403 C402 1.366 1_455 S
C403 C404 1.414 . S
C403 C406 1.499 . S
C404 H384 0.950 . S
C404 C403 1.414 . S
C404 C405 1.374 . S
C405 H385 0.950 . S
C405 C401 1.386 . S
C405 C404 1.374 . S
C406 C403 1.499 . S
C406 C407 1.373 . S
C406 C408 1.389 . S
C407 H386 0.950 1_455 S
C407 C406 1.373 . S
C407 C423 1.377 1_455 S
C408 C406 1.389 . S
C408 C409 1.524 . S
C408 C422 1.377 . S
C409 C408 1.524 . S
C409 C410 1.397 . S
C409 C414 1.363 1_455 S
C410 H387 0.950 . S
C410 C409 1.397 . S
C410 C411 1.334 . S
C411 H388 0.950 . S
C411 C410 1.334 . S
C411 C412 1.287 . S
C412 C411 1.287 . S
C412 C413 1.524 1_455 S
C412 H431 0.913 . S
C413 H389 0.950 . S
C413 C412 1.524 1_655 S
C413 C414 1.415 . S
C414 H390 0.950 . S
C414 C409 1.363 1_655 S
C414 C413 1.415 . S
C415 H391 0.951 . S
C415 C416 1.366 . S
C415 C417 1.388 . S
C416 C415 1.366 . S
C416 C420 1.385 1_455 S
C417 H392 0.951 . S
C417 C415 1.388 . S
C417 C418 1.369 1_455 S
C418 C417 1.369 1_655 S
C418 C419 1.411 . S
C418 C421 1.498 . S
C419 H393 0.950 . S
C419 C418 1.411 . S
C419 C420 1.374 . S
C420 H394 0.950 . S
C420 C416 1.385 1_655 S
C420 C419 1.374 . S
C421 C418 1.498 . S
C421 C422 1.371 1_655 S
C421 C423 1.391 . S
C422 H395 0.950 . S
C422 C408 1.377 . S
C422 C421 1.371 1_455 S
C423 C407 1.377 1_655 S
C423 C421 1.391 . S
C423 C424 1.524 . S
C424 C423 1.524 . S
C424 C425 1.397 . S
C424 C429 1.363 1_655 S
C425 H396 0.950 . S
C425 C424 1.397 . S
C425 C426 1.334 . S
C426 H397 0.950 . S
C426 C425 1.334 . S
C426 C427 1.287 . S
C427 C426 1.287 . S
C427 C428 1.524 1_655 S
C427 H430 0.999 . S
C428 H398 0.950 . S
C428 C427 1.524 1_455 S
C428 C429 1.415 . S
C429 H399 0.950 . S
C429 C424 1.363 1_455 S
C429 C428 1.415 . S
H430 C427 0.999 . S
H431 C412 0.913 . S
H432 C450 0.951 . S
H433 C452 0.951 . S
H434 C454 0.950 . S
H435 C455 0.950 . S
H436 C457 0.950 . S
H437 C460 0.950 . S
H438 C461 0.950 . S
H439 C463 0.950 . S
H440 C464 0.950 1_556 S
H441 C465 0.951 . S
H442 C467 0.951 . S
H443 C469 0.950 . S
H444 C470 0.950 . S
H445 C472 0.950 1_556 S
H446 C475 0.950 . S
H447 C476 0.950 . S
H448 C478 0.950 . S
H449 C479 0.950 . S
C450 H432 0.951 . S
C450 C451 1.366 1_565 S
C450 C452 1.388 . S
C451 C450 1.366 1_545 S
C451 C455 1.384 . S
C452 H433 0.951 . S
C452 C450 1.388 . S
C452 C453 1.366 . S
C453 C452 1.366 . S
C453 C454 1.414 1_565 S
C453 C456 1.500 . S
C454 H434 0.950 . S
C454 C453 1.414 1_545 S
C454 C455 1.374 . S
C455 H435 0.950 . S
C455 C451 1.384 . S
C455 C454 1.374 . S
C456 C453 1.500 . S
C456 C457 1.329 1_565 S
C456 C458 1.432 . S
C457 H436 0.950 . S
C457 C456 1.329 1_545 S
C457 C473 1.377 . S
C458 C456 1.432 . S
C458 C459 1.524 . S
C458 C472 1.377 . S
C459 C458 1.524 . S
C459 C460 1.397 . S
C459 C464 1.363 . S
C460 H437 0.950 . S
C460 C459 1.397 . S
C460 C461 1.334 . S
C461 H438 0.950 . S
C461 C460 1.334 . S
C461 C462 1.287 . S
C462 C461 1.287 . S
C462 C463 1.524 . S
C462 H481 0.913 . S
C463 H439 0.950 . S
C463 C462 1.524 . S
C463 C464 1.415 . S
C464 H440 0.950 1_554 S
C464 C459 1.363 . S
C464 C463 1.415 . S
C465 H441 0.951 . S
C465 C466 1.361 1_545 S
C465 C467 1.388 . S
C466 C465 1.361 1_565 S
C466 C470 1.389 . S
C467 H442 0.951 . S
C467 C465 1.388 . S
C467 C468 1.380 . S
C468 C467 1.380 . S
C468 C469 1.398 1_545 S
C468 C471 1.499 . S
C469 H443 0.950 . S
C469 C468 1.398 1_565 S
C469 C470 1.374 . S
C470 H444 0.950 . S
C470 C466 1.389 . S
C470 C469 1.374 . S
C471 C468 1.499 . S
C471 C472 1.342 1_546 S
C471 C473 1.420 1_556 S
C472 H445 0.950 1_554 S
C472 C458 1.377 . S
C472 C471 1.342 1_564 S
C473 C457 1.377 . S
C473 C471 1.420 1_554 S
C473 C474 1.524 . S
C474 C473 1.524 . S
C474 C475 1.397 1_554 S
C474 C479 1.363 . S
C475 H446 0.950 . S
C475 C474 1.397 1_556 S
C475 C476 1.334 . S
C476 H447 0.950 . S
C476 C475 1.334 . S
C476 C477 1.287 . S
C477 C476 1.287 . S
C477 C478 1.524 1_556 S
C477 H480 0.999 . S
C478 H448 0.950 . S
C478 C477 1.524 1_554 S
C478 C479 1.415 . S
C479 H449 0.950 . S
C479 C474 1.363 . S
C479 C478 1.415 . S
H480 C477 0.999 . S
H481 C462 0.913 . S
H482 C500 0.951 . S
H483 C502 0.951 . S
H484 C504 0.950 . S
H485 C505 0.950 . S
H486 C507 0.950 . S
H487 C510 0.950 . S
H488 C511 0.950 . S
H489 C513 0.950 . S
H490 C514 0.950 . S
H491 C515 0.951 . S
H492 C517 0.951 . S
H493 C519 0.950 . S
H494 C520 0.950 . S
H495 C522 0.950 . S
H496 C525 0.950 . S
H497 C526 0.950 . S
H498 C528 0.950 . S
H499 C529 0.950 . S
C500 H482 0.951 . S
C500 C501 1.366 . S
C500 C502 1.388 . S
C501 C500 1.366 . S
C501 C505 1.385 . S
C502 H483 0.951 . S
C502 C500 1.388 . S
C502 C503 1.366 . S
C503 C502 1.366 . S
C503 C504 1.414 . S
C503 C506 1.499 . S
C504 H484 0.950 . S
C504 C503 1.414 . S
C504 C505 1.374 . S
C505 H485 0.950 . S
C505 C501 1.385 . S
C505 C504 1.374 . S
C506 C503 1.499 . S
C506 C507 1.373 . S
C506 C508 1.389 . S
C507 H486 0.950 . S
C507 C506 1.373 . S
C507 C523 1.377 1_554 S
C508 C506 1.389 . S
C508 C509 1.524 . S
C508 C522 1.377 . S
C509 C508 1.524 . S
C509 C510 1.397 . S
C509 C514 1.363 . S
C510 H487 0.950 . S
C510 C509 1.397 . S
C510 C511 1.334 . S
C511 H488 0.950 . S
C511 C510 1.334 . S
C511 C512 1.287 . S
C512 C511 1.287 . S
C512 C513 1.524 . S
C512 H531 0.913 . S
C513 H489 0.950 . S
C513 C512 1.524 . S
C513 C514 1.415 . S
C514 H490 0.950 . S
C514 C509 1.363 . S
C514 C513 1.415 . S
C515 H491 0.951 . S
C515 C516 1.366 . S
C515 C517 1.388 . S
C516 C515 1.366 . S
C516 C520 1.385 . S
C517 H492 0.951 . S
C517 C515 1.388 . S
C517 C518 1.366 . S
C518 C517 1.366 . S
C518 C519 1.414 . S
C518 C521 1.499 . S
C519 H493 0.950 . S
C519 C518 1.414 . S
C519 C520 1.374 . S
C520 H494 0.950 . S
C520 C516 1.385 . S
C520 C519 1.374 . S
C521 C518 1.499 . S
C521 C522 1.373 1_556 S
C521 C523 1.389 . S
C522 H495 0.950 . S
C522 C508 1.377 . S
C522 C521 1.373 1_554 S
C523 C507 1.377 1_556 S
C523 C521 1.389 . S
C523 C524 1.524 . S
C524 C523 1.524 . S
C524 C525 1.397 . S
C524 C529 1.363 . S
C525 H496 0.950 . S
C525 C524 1.397 . S
C525 C526 1.334 . S
C526 H497 0.950 . S
C526 C525 1.334 . S
C526 C527 1.287 . S
C527 C526 1.287 . S
C527 C528 1.524 . S
C527 H530 0.999 . S
C528 H498 0.950 . S
C528 C527 1.524 . S
C528 C529 1.415 . S
C529 H499 0.950 . S
C529 C524 1.363 . S
C529 C528 1.415 . S
H530 C527 0.999 . S
H531 C512 0.913 . S
H532 C550 0.951 . S
H533 C552 0.951 . S
H534 C554 0.950 . S
H535 C555 0.950 . S
H536 C557 0.950 . S
H537 C560 0.950 . S
H538 C561 0.950 . S
H539 C563 0.950 . S
H540 C564 0.950 . S
H541 C565 0.951 . S
H542 C567 0.951 . S
H543 C569 0.950 . S
H544 C570 0.950 . S
H545 C572 0.950 . S
H546 C575 0.950 . S
H547 C576 0.950 . S
H548 C578 0.950 . S
H549 C579 0.950 . S
C550 H532 0.951 . S
C550 C551 1.366 . S
C550 C552 1.388 . S
C551 C550 1.366 . S
C551 C555 1.385 . S
C552 H533 0.951 . S
C552 C550 1.388 . S
C552 C553 1.366 . S
C553 C552 1.366 . S
C553 C554 1.414 . S
C553 C556 1.499 . S
C554 H534 0.950 . S
C554 C553 1.414 . S
C554 C555 1.374 . S
C555 H535 0.950 . S
C555 C551 1.385 . S
C555 C554 1.374 . S
C556 C553 1.499 . S
C556 C557 1.373 . S
C556 C558 1.389 . S
C557 H536 0.950 . S
C557 C556 1.373 . S
C557 C573 1.377 1_554 S
C558 C556 1.389 . S
C558 C559 1.524 . S
C558 C572 1.377 . S
C559 C558 1.524 . S
C559 C560 1.397 . S
C559 C564 1.363 . S
C560 H537 0.950 . S
C560 C559 1.397 . S
C560 C561 1.334 . S
C561 H538 0.950 . S
C561 C560 1.334 . S
C561 C562 1.287 . S
C562 C561 1.287 . S
C562 C563 1.524 . S
C562 H581 0.913 . S
C563 H539 0.950 . S
C563 C562 1.524 . S
C563 C564 1.415 . S
C564 H540 0.950 . S
C564 C559 1.363 . S
C564 C563 1.415 . S
C565 H541 0.951 . S
C565 C566 1.366 . S
C565 C567 1.388 . S
C566 C565 1.366 . S
C566 C570 1.385 . S
C567 H542 0.951 . S
C567 C565 1.388 . S
C567 C568 1.366 . S
C568 C567 1.366 . S
C568 C569 1.414 . S
C568 C571 1.499 . S
C569 H543 0.950 . S
C569 C568 1.414 . S
C569 C570 1.374 . S
C570 H544 0.950 . S
C570 C566 1.385 . S
C570 C569 1.374 . S
C571 C568 1.499 . S
C571 C572 1.373 1_556 S
C571 C573 1.389 . S
C572 H545 0.950 . S
C572 C558 1.377 . S
C572 C571 1.373 1_554 S
C573 C557 1.377 1_556 S
C573 C571 1.389 . S
C573 C574 1.524 . S
C574 C573 1.524 . S
C574 C575 1.397 . S
C574 C579 1.363 . S
C575 H546 0.950 . S
C575 C574 1.397 . S
C575 C576 1.334 . S
C576 H547 0.950 . S
C576 C575 1.334 . S
C576 C577 1.287 . S
C577 C576 1.287 . S
C577 C578 1.524 . S
C577 H580 0.999 . S
C578 H548 0.950 . S
C578 C577 1.524 . S
C578 C579 1.415 . S
C579 H549 0.950 . S
C579 C574 1.363 . S
C579 C578 1.415 . S
H580 C577 0.999 . S
H581 C562 0.913 . S
H582 C600 0.951 . S
H583 C602 0.951 . S
H584 C604 0.950 . S
H585 C605 0.950 . S
H586 C607 0.950 . S
H587 C610 0.950 . S
H588 C611 0.950 . S
H589 C613 0.950 . S
H590 C614 0.950 . S
H591 C615 0.951 . S
H592 C617 0.951 . S
H593 C619 0.950 . S
H594 C620 0.950 . S
H595 C622 0.950 . S
H596 C625 0.950 . S
H597 C626 0.950 . S
H598 C628 0.950 . S
H599 C629 0.950 . S
C600 H582 0.951 . S
C600 C601 1.363 1_455 S
C600 C602 1.388 . S
C601 C600 1.363 1_655 S
C601 C605 1.387 . S
C602 H583 0.951 . S
C602 C600 1.388 . S
C602 C603 1.366 1_455 S
C603 C602 1.366 1_655 S
C603 C604 1.414 . S
C603 C606 1.499 . S
C604 H584 0.950 . S
C604 C603 1.414 . S
C604 C605 1.374 . S
C605 H585 0.950 . S
C605 C601 1.387 . S
C605 C604 1.374 . S
C606 C603 1.499 . S
C606 C607 1.373 . S
C606 C608 1.389 . S
C607 H586 0.950 . S
C607 C606 1.373 . S
C607 C623 1.376 . S
C608 C606 1.389 . S
C608 C609 1.524 . S
C608 C622 1.376 1_654 S
C609 C608 1.524 . S
C609 C610 1.397 . S
C609 C614 1.363 1_654 S
C610 H587 0.950 . S
C610 C609 1.397 . S
C610 C611 1.334 . S
C611 H588 0.950 . S
C611 C610 1.334 . S
C611 C612 1.287 1_554 S
C612 C611 1.287 1_556 S
C612 C613 1.524 1_655 S
C612 H631 0.913 . S
C613 H589 0.950 . S
C613 C612 1.524 1_455 S
C613 C614 1.415 . S
C614 H590 0.950 . S
C614 C609 1.363 1_456 S
C614 C613 1.415 . S
C615 H591 0.951 . S
C615 C616 1.366 . S
C615 C617 1.388 . S
C616 C615 1.366 . S
C616 C620 1.385 1_655 S
C617 H592 0.951 . S
C617 C615 1.388 . S
C617 C618 1.363 . S
C618 C617 1.363 . S
C618 C619 1.416 1_655 S
C618 C621 1.498 1_655 S
C619 H593 0.950 . S
C619 C618 1.416 1_455 S
C619 C620 1.374 . S
C620 H594 0.950 . S
C620 C616 1.385 1_455 S
C620 C619 1.374 . S
C621 C618 1.498 1_455 S
C621 C622 1.373 . S
C621 C623 1.389 1_456 S
C622 H595 0.950 . S
C622 C608 1.376 1_456 S
C622 C621 1.373 . S
C623 C607 1.376 . S
C623 C621 1.389 1_654 S
C623 C624 1.525 1_655 S
C624 C623 1.525 1_455 S
C624 C625 1.397 . S
C624 C629 1.363 1_455 S
C625 H596 0.950 . S
C625 C624 1.397 . S
C625 C626 1.334 . S
C626 H597 0.950 . S
C626 C625 1.334 . S
C626 C627 1.287 . S
C627 C626 1.287 . S
C627 C628 1.524 1_455 S
C627 H630 0.999 . S
C628 H598 0.950 . S
C628 C627 1.524 1_655 S
C628 C629 1.415 . S
C629 H599 0.950 . S
C629 C624 1.363 1_655 S
C629 C628 1.415 . S
H630 C627 0.999 . S
H631 C612 0.913 . S
H632 C650 0.951 . S
H633 C652 0.951 . S
H634 C654 0.950 . S
H635 C655 0.950 . S
H636 C657 0.950 . S
H637 C660 0.950 . S
H638 C661 0.960 . S
H639 C663 0.950 . S
H640 C664 0.950 . S
H641 C665 0.951 . S
H642 C667 0.951 . S
H643 C669 0.950 1_455 S
H644 C670 0.950 . S
H645 C672 0.950 . S
H646 C675 0.950 . S
H647 C676 0.950 . S
H648 C678 0.950 . S
H649 C679 0.950 . S
C650 H632 0.951 . S
C650 C651 1.366 . S
C650 C652 1.388 . S
C651 C650 1.366 . S
C651 C655 1.385 1_455 S
C652 H633 0.951 . S
C652 C650 1.388 . S
C652 C653 1.366 1_455 S
C653 C652 1.366 1_655 S
C653 C654 1.414 . S
C653 C656 1.499 . S
C654 H634 0.950 . S
C654 C653 1.414 . S
C654 C655 1.374 . S
C655 H635 0.950 . S
C655 C651 1.385 1_655 S
C655 C654 1.374 . S
C656 C653 1.499 . S
C656 C657 1.373 . S
C656 C658 1.389 . S
C657 H636 0.950 . S
C657 C656 1.373 . S
C657 C673 1.377 . S
C658 C656 1.389 . S
C658 C659 1.524 . S
C658 C672 1.377 . S
C659 C658 1.524 . S
C659 C660 1.397 . S
C659 C664 1.363 1_655 S
C660 H637 0.950 . S
C660 C659 1.397 . S
C660 C661 1.334 . S
C661 H638 0.960 . S
C661 C660 1.334 . S
C661 C662 1.287 1_655 S
C662 C661 1.287 1_455 S
C662 C663 1.524 . S
C662 H681 0.913 1_554 S
C663 H639 0.950 . S
C663 C662 1.524 . S
C663 C664 1.415 . S
C664 H640 0.950 . S
C664 C659 1.363 1_455 S
C664 C663 1.415 . S
C665 H641 0.951 . S
C665 C666 1.366 . S
C665 C667 1.388 . S
C666 C665 1.366 . S
C666 C670 1.385 . S
C667 H642 0.951 . S
C667 C665 1.388 . S
C667 C668 1.366 . S
C668 C667 1.366 . S
C668 C669 1.414 . S
C668 C671 1.499 . S
C669 H643 0.950 1_655 S
C669 C668 1.414 . S
C669 C670 1.374 . S
C670 H644 0.950 . S
C670 C666 1.385 . S
C670 C669 1.374 . S
C671 C668 1.499 . S
C671 C672 1.373 . S
C671 C673 1.389 . S
C672 H645 0.950 . S
C672 C658 1.377 . S
C672 C671 1.373 . S
C673 C657 1.377 . S
C673 C671 1.389 . S
C673 C674 1.524 . S
C674 C673 1.524 . S
C674 C675 1.397 . S
C674 C679 1.363 . S
C675 H646 0.950 . S
C675 C674 1.397 . S
C675 C676 1.334 . S
C676 H647 0.950 . S
C676 C675 1.334 . S
C676 C677 1.287 . S
C677 C676 1.287 . S
C677 C678 1.524 . S
C677 H680 0.999 . S
C678 H648 0.950 . S
C678 C677 1.524 . S
C678 C679 1.415 . S
C679 H649 0.950 . S
C679 C674 1.363 . S
C679 C678 1.415 . S
H680 C677 0.999 . S
H681 C662 0.913 1_556 S
H682 C700 0.951 . S
H683 C702 0.952 . S
H684 C704 0.950 . S
H685 C705 0.950 . S
H686 C707 0.950 1_545 S
H687 C710 0.950 . S
H688 C711 0.950 . S
H689 C713 0.950 . S
H690 C714 0.950 . S
H691 C715 0.951 . S
H692 C717 0.951 . S
H693 C719 0.950 . S
H694 C720 0.950 . S
H695 C722 0.950 . S
H696 C725 0.950 . S
H697 C726 0.950 . S
H698 C728 0.950 . S
H699 C729 0.950 1_565 S
C700 H682 0.951 . S
C700 C701 1.366 . S
C700 C702 1.389 . S
C701 C700 1.366 . S
C701 C705 1.385 1_545 S
C702 H683 0.952 . S
C702 C700 1.389 . S
C702 C703 1.363 1_545 S
C703 C702 1.363 1_565 S
C703 C704 1.414 . S
C703 C706 1.499 . S
C704 H684 0.950 . S
C704 C703 1.414 . S
C704 C705 1.374 . S
C705 H685 0.950 . S
C705 C701 1.385 1_565 S
C705 C704 1.374 . S
C706 C703 1.499 . S
C706 C707 1.373 . S
C706 C708 1.389 . S
C707 H686 0.950 1_565 S
C707 C706 1.373 . S
C707 C723 1.377 . S
C708 C706 1.389 . S
C708 C709 1.524 . S
C708 C722 1.377 . S
C709 C708 1.524 . S
C709 C710 1.397 . S
C709 C714 1.363 . S
C710 H687 0.950 . S
C710 C709 1.397 . S
C710 C711 1.334 . S
C711 H688 0.950 . S
C711 C710 1.334 . S
C711 C712 1.287 . S
C712 C711 1.287 . S
C712 C713 1.524 . S
C712 H731 0.913 . S
C713 H689 0.950 . S
C713 C712 1.524 . S
C713 C714 1.415 . S
C714 H690 0.950 . S
C714 C709 1.363 . S
C714 C713 1.415 . S
C715 H691 0.951 . S
C715 C716 1.366 . S
C715 C717 1.388 . S
C716 C715 1.366 . S
C716 C720 1.385 . S
C717 H692 0.951 . S
C717 C715 1.388 . S
C717 C718 1.366 . S
C718 C717 1.366 . S
C718 C719 1.414 . S
C718 C721 1.499 . S
C719 H693 0.950 . S
C719 C718 1.414 . S
C719 C720 1.374 . S
C720 H694 0.950 . S
C720 C716 1.385 . S
C720 C719 1.374 . S
C721 C718 1.499 . S
C721 C722 1.373 . S
C721 C723 1.389 . S
C722 H695 0.950 . S
C722 C708 1.377 . S
C722 C721 1.373 . S
C723 C707 1.377 . S
C723 C721 1.389 . S
C723 C724 1.524 1_565 S
C724 C723 1.524 1_545 S
C724 C725 1.397 . S
C724 C729 1.363 . S
C725 H696 0.950 . S
C725 C724 1.397 . S
C725 C726 1.334 . S
C726 H697 0.950 . S
C726 C725 1.334 . S
C726 C727 1.287 . S
C727 C726 1.287 . S
C727 C728 1.524 . S
C727 H730 0.999 . S
C728 H698 0.950 . S
C728 C727 1.524 . S
C728 C729 1.415 . S
C729 H699 0.950 1_545 S
C729 C724 1.363 . S
C729 C728 1.415 . S
H730 C727 0.999 . S
H731 C712 0.913 . S
H732 C750 0.951 . S
H733 C752 0.951 . S
H734 C754 0.950 . S
H735 C755 0.950 . S
H736 C757 0.950 . S
H737 C760 0.950 . S
H738 C761 0.950 . S
H739 C763 0.950 . S
H740 C764 0.950 . S
H741 C765 0.951 . S
H742 C767 0.951 . S
H743 C769 0.950 . S
H744 C770 0.950 . S
H745 C772 0.950 . S
H746 C775 0.950 . S
H747 C776 0.950 . S
H748 C778 0.950 . S
H749 C779 0.950 . S
C750 H732 0.951 . S
C750 C751 1.366 . S
C750 C752 1.388 . S
C751 C750 1.366 . S
C751 C755 1.385 . S
C752 H733 0.951 . S
C752 C750 1.388 . S
C752 C753 1.366 . S
C753 C752 1.366 . S
C753 C754 1.414 . S
C753 C756 1.499 . S
C754 H734 0.950 . S
C754 C753 1.414 . S
C754 C755 1.374 . S
C755 H735 0.950 . S
C755 C751 1.385 . S
C755 C754 1.374 . S
C756 C753 1.499 . S
C756 C757 1.373 . S
C756 C758 1.389 . S
C757 H736 0.950 . S
C757 C756 1.373 . S
C757 C773 1.377 . S
C758 C756 1.389 . S
C758 C759 1.524 . S
C758 C772 1.377 . S
C759 C758 1.524 . S
C759 C760 1.397 . S
C759 C764 1.363 . S
C760 H737 0.950 . S
C760 C759 1.397 . S
C760 C761 1.334 . S
C761 H738 0.950 . S
C761 C760 1.334 . S
C761 C762 1.287 . S
C762 C761 1.287 . S
C762 C763 1.524 . S
C762 H781 0.913 . S
C763 H739 0.950 . S
C763 C762 1.524 . S
C763 C764 1.415 . S
C764 H740 0.950 . S
C764 C759 1.363 . S
C764 C763 1.415 . S
C765 H741 0.951 . S
C765 C766 1.366 . S
C765 C767 1.388 . S
C766 C765 1.366 . S
C766 C770 1.385 . S
C767 H742 0.951 . S
C767 C765 1.388 . S
C767 C768 1.366 . S
C768 C767 1.366 . S
C768 C769 1.414 . S
C768 C771 1.499 . S
C769 H743 0.950 . S
C769 C768 1.414 . S
C769 C770 1.374 . S
C770 H744 0.950 . S
C770 C766 1.385 . S
C770 C769 1.374 . S
C771 C768 1.499 . S
C771 C772 1.373 . S
C771 C773 1.389 . S
C772 H745 0.950 . S
C772 C758 1.377 . S
C772 C771 1.373 . S
C773 C757 1.377 . S
C773 C771 1.389 . S
C773 C774 1.524 . S
C774 C773 1.524 . S
C774 C775 1.397 . S
C774 C779 1.363 . S
C775 H746 0.950 . S
C775 C774 1.397 . S
C775 C776 1.334 . S
C776 H747 0.950 . S
C776 C775 1.334 . S
C776 C777 1.287 . S
C777 C776 1.287 . S
C777 C778 1.524 . S
C777 H780 0.999 . S
C778 H748 0.950 . S
C778 C777 1.524 . S
C778 C779 1.415 . S
C779 H749 0.950 . S
C779 C774 1.363 . S
C779 C778 1.415 . S
H780 C777 0.999 . S
H781 C762 0.913 . S
H782 C800 0.951 . S
H783 C802 0.951 . S
H784 C804 0.950 . S
H785 C805 0.950 . S
H786 C807 0.950 . S
H787 C810 0.950 . S
H788 C811 0.950 . S
H789 C813 0.950 . S
H790 C814 0.950 . S
H791 C815 0.951 . S
H792 C817 0.951 . S
H793 C819 0.950 . S
H794 C820 0.950 . S
H795 C822 0.950 . S
H796 C825 0.950 . S
H797 C826 0.950 . S
H798 C828 0.950 . S
H799 C829 0.950 . S
C800 H782 0.951 . S
C800 C801 1.366 . S
C800 C802 1.388 . S
C801 C800 1.366 . S
C801 C805 1.385 . S
C802 H783 0.951 . S
C802 C800 1.388 . S
C802 C803 1.366 . S
C803 C802 1.366 . S
C803 C804 1.414 . S
C803 C806 1.499 . S
C804 H784 0.950 . S
C804 C803 1.414 . S
C804 C805 1.374 . S
C805 H785 0.950 . S
C805 C801 1.385 . S
C805 C804 1.374 . S
C806 C803 1.499 . S
C806 C807 1.373 . S
C806 C808 1.389 . S
C807 H786 0.950 . S
C807 C806 1.373 . S
C807 C823 1.377 . S
C808 C806 1.389 . S
C808 C809 1.524 . S
C808 C822 1.377 . S
C809 C808 1.524 . S
C809 C810 1.397 . S
C809 C814 1.363 . S
C810 H787 0.950 . S
C810 C809 1.397 . S
C810 C811 1.334 . S
C811 H788 0.950 . S
C811 C810 1.334 . S
C811 C812 1.287 . S
C812 C811 1.287 . S
C812 C813 1.524 . S
C812 H831 0.913 . S
C813 H789 0.950 . S
C813 C812 1.524 . S
C813 C814 1.415 . S
C814 H790 0.950 . S
C814 C809 1.363 . S
C814 C813 1.415 . S
C815 H791 0.951 . S
C815 C816 1.366 . S
C815 C817 1.388 . S
C816 C815 1.366 . S
C816 C820 1.385 . S
C817 H792 0.951 . S
C817 C815 1.388 . S
C817 C818 1.366 . S
C818 C817 1.366 . S
C818 C819 1.414 . S
C818 C821 1.499 . S
C819 H793 0.950 . S
C819 C818 1.414 . S
C819 C820 1.374 . S
C820 H794 0.950 . S
C820 C816 1.385 . S
C820 C819 1.374 . S
C821 C818 1.499 . S
C821 C822 1.373 . S
C821 C823 1.389 . S
C822 H795 0.950 . S
C822 C808 1.377 . S
C822 C821 1.373 . S
C823 C807 1.377 . S
C823 C821 1.389 . S
C823 C824 1.524 . S
C824 C823 1.524 . S
C824 C825 1.397 . S
C824 C829 1.363 . S
C825 H796 0.950 . S
C825 C824 1.397 . S
C825 C826 1.334 . S
C826 H797 0.950 . S
C826 C825 1.334 . S
C826 C827 1.287 . S
C827 C826 1.287 . S
C827 C828 1.524 . S
C827 H830 0.999 . S
C828 H798 0.950 . S
C828 C827 1.524 . S
C828 C829 1.415 . S
C829 H799 0.950 . S
C829 C824 1.363 . S
C829 C828 1.415 . S
H830 C827 0.999 . S
H831 C812 0.913 . S
H832 C850 0.951 . S
H833 C852 0.951 . S
H834 C854 0.950 . S
H835 C855 0.950 . S
H836 C857 0.950 . S
H837 C860 0.950 . S
H838 C861 0.950 . S
H839 C863 0.950 . S
H840 C864 0.950 . S
H841 C865 0.951 1_655 S
H842 C867 0.951 1_654 S
H843 C869 0.946 1_554 S
H844 C870 0.950 . S
H845 C872 0.950 . S
H846 C875 0.950 . S
H847 C876 0.950 1_455 S
H848 C878 0.950 . S
H849 C879 0.950 1_554 S
C850 H832 0.951 . S
C850 C851 1.366 1_455 S
C850 C852 1.388 . S
C851 C850 1.366 1_655 S
C851 C855 1.385 . S
C852 H833 0.951 . S
C852 C850 1.388 . S
C852 C853 1.366 . S
C853 C852 1.366 . S
C853 C854 1.414 1_455 S
C853 C856 1.499 . S
C854 H834 0.950 . S
C854 C853 1.414 1_655 S
C854 C855 1.374 . S
C855 H835 0.950 . S
C855 C851 1.385 . S
C855 C854 1.374 . S
C856 C853 1.499 . S
C856 C857 1.373 1_455 S
C856 C858 1.389 . S
C857 H836 0.950 . S
C857 C856 1.373 1_655 S
C857 C873 1.377 1_655 S
C858 C856 1.389 . S
C858 C859 1.524 . S
C858 C872 1.377 . S
C859 C858 1.524 . S
C859 C860 1.397 . S
C859 C864 1.363 . S
C860 H837 0.950 . S
C860 C859 1.397 . S
C860 C861 1.334 . S
C861 H838 0.950 . S
C861 C860 1.334 . S
C861 C862 1.287 . S
C862 C861 1.287 . S
C862 C863 1.524 . S
C862 H881 0.913 . S
C863 H839 0.950 . S
C863 C862 1.524 . S
C863 C864 1.415 . S
C864 H840 0.950 . S
C864 C859 1.363 . S
C864 C863 1.415 . S
C865 H841 0.951 1_455 S
C865 C866 1.366 . S
C865 C867 1.388 . S
C866 C865 1.366 . S
C866 C870 1.385 . S
C867 H842 0.951 1_456 S
C867 C865 1.388 . S
C867 C868 1.366 1_556 S
C868 C867 1.366 1_554 S
C868 C869 1.410 1_554 S
C868 C871 1.499 . S
C869 H843 0.946 1_556 S
C869 C868 1.410 1_556 S
C869 C870 1.382 . S
C870 H844 0.950 . S
C870 C866 1.385 . S
C870 C869 1.382 . S
C871 C868 1.499 . S
C871 C872 1.373 . S
C871 C873 1.389 . S
C872 H845 0.950 . S
C872 C858 1.377 . S
C872 C871 1.373 . S
C873 C857 1.377 1_455 S
C873 C871 1.389 . S
C873 C874 1.524 1_454 S
C874 C873 1.524 1_656 S
C874 C875 1.397 1_655 S
C874 C879 1.363 . S
C875 H846 0.950 . S
C875 C874 1.397 1_455 S
C875 C876 1.334 1_455 S
C876 H847 0.950 1_655 S
C876 C875 1.334 1_655 S
C876 C877 1.287 . S
C877 C876 1.287 . S
C877 C878 1.524 . S
C877 H880 0.999 . S
C878 H848 0.950 . S
C878 C877 1.524 . S
C878 C879 1.415 . S
C879 H849 0.950 1_556 S
C879 C874 1.363 . S
C879 C878 1.415 . S
H880 C877 0.999 . S
H881 C862 0.913 . S
H882 C900 0.951 . S
H883 C902 0.951 . S
H884 C904 0.950 . S
H885 C905 0.950 . S
H886 C907 0.950 . S
H887 C910 0.950 . S
H888 C911 0.950 . S
H889 C913 0.950 . S
H890 C914 0.950 . S
H891 C915 0.951 . S
H892 C917 0.951 1_565 S
H893 C919 0.950 . S
H894 C920 0.950 . S
H895 C922 0.950 . S
H896 C925 0.950 . S
H897 C926 0.950 . S
H898 C928 0.950 1_554 S
H899 C929 0.950 . S
C900 H882 0.951 . S
C900 C901 1.366 1_545 S
C900 C902 1.388 . S
C901 C900 1.366 1_565 S
C901 C905 1.385 . S
C902 H883 0.951 . S
C902 C900 1.388 . S
C902 C903 1.366 . S
C903 C902 1.366 . S
C903 C904 1.414 1_545 S
C903 C906 1.499 . S
C904 H884 0.950 . S
C904 C903 1.414 1_565 S
C904 C905 1.374 . S
C905 H885 0.950 . S
C905 C901 1.385 . S
C905 C904 1.374 . S
C906 C903 1.499 . S
C906 C907 1.373 1_545 S
C906 C908 1.389 . S
C907 H886 0.950 . S
C907 C906 1.373 1_565 S
C907 C923 1.377 . S
C908 C906 1.389 . S
C908 C909 1.524 . S
C908 C922 1.377 . S
C909 C908 1.524 . S
C909 C910 1.397 . S
C909 C914 1.363 . S
C910 H887 0.950 . S
C910 C909 1.397 . S
C910 C911 1.334 . S
C911 H888 0.950 . S
C911 C910 1.334 . S
C911 C912 1.287 . S
C912 C911 1.287 . S
C912 C913 1.524 . S
C912 H931 0.913 . S
C913 H889 0.950 . S
C913 C912 1.524 . S
C913 C914 1.415 . S
C914 H890 0.950 . S
C914 C909 1.363 . S
C914 C913 1.415 . S
C915 H891 0.951 . S
C915 C916 1.366 . S
C915 C917 1.388 1_556 S
C916 C915 1.366 . S
C916 C920 1.385 . S
C917 H892 0.951 1_545 S
C917 C915 1.388 1_554 S
C917 C918 1.366 . S
C918 C917 1.366 . S
C918 C919 1.414 1_554 S
C918 C921 1.499 . S
C919 H893 0.950 . S
C919 C918 1.414 1_556 S
C919 C920 1.374 . S
C920 H894 0.950 . S
C920 C916 1.385 . S
C920 C919 1.374 . S
C921 C918 1.499 . S
C921 C922 1.373 . S
C921 C923 1.389 1_545 S
C922 H895 0.950 . S
C922 C908 1.377 . S
C922 C921 1.373 . S
C923 C907 1.377 . S
C923 C921 1.389 1_565 S
C923 C924 1.524 . S
C924 C923 1.524 . S
C924 C925 1.397 1_554 S
C924 C929 1.363 . S
C925 H896 0.950 . S
C925 C924 1.397 1_556 S
C925 C926 1.334 . S
C926 H897 0.950 . S
C926 C925 1.334 . S
C926 C927 1.287 . S
C927 C926 1.287 . S
C927 C928 1.524 . S
C927 H930 0.999 . S
C928 H898 0.950 1_556 S
C928 C927 1.524 . S
C928 C929 1.415 1_556 S
C929 H899 0.950 . S
C929 C924 1.363 . S
C929 C928 1.415 1_554 S
H930 C927 0.999 . S
H931 C912 0.913 . S
H932 C950 0.951 . S
H933 C952 0.951 . S
H934 C954 0.950 . S
H935 C955 0.950 . S
H936 C957 0.950 . S
H937 C960 0.950 . S
H938 C961 0.950 . S
H939 C963 0.950 . S
H940 C964 0.950 . S
H941 C965 0.951 . S
H942 C967 0.951 . S
H943 C969 0.950 . S
H944 C970 0.950 . S
H945 C972 0.950 . S
H946 C975 0.950 1_556 S
H947 C976 0.950 1_556 S
H948 C978 0.950 . S
H949 C979 0.950 . S
C950 H932 0.951 . S
C950 C951 1.366 . S
C950 C952 1.388 . S
C951 C950 1.366 . S
C951 C955 1.385 . S
C952 H933 0.951 . S
C952 C950 1.388 . S
C952 C953 1.366 . S
C953 C952 1.366 . S
C953 C954 1.414 . S
C953 C956 1.499 . S
C954 H934 0.950 . S
C954 C953 1.414 . S
C954 C955 1.374 . S
C955 H935 0.950 . S
C955 C951 1.385 . S
C955 C954 1.374 . S
C956 C953 1.499 . S
C956 C957 1.373 . S
C956 C958 1.389 . S
C957 H936 0.950 . S
C957 C956 1.373 . S
C957 C973 1.377 . S
C958 C956 1.389 . S
C958 C959 1.524 . S
C958 C972 1.377 . S
C959 C958 1.524 . S
C959 C960 1.397 . S
C959 C964 1.363 . S
C960 H937 0.950 . S
C960 C959 1.397 . S
C960 C961 1.334 . S
C961 H938 0.950 . S
C961 C960 1.334 . S
C961 C962 1.287 . S
C962 C961 1.287 . S
C962 C963 1.524 . S
C962 H981 0.913 . S
C963 H939 0.950 . S
C963 C962 1.524 . S
C963 C964 1.415 . S
C964 H940 0.950 . S
C964 C959 1.363 . S
C964 C963 1.415 . S
C965 H941 0.951 . S
C965 C966 1.366 1_554 S
C965 C967 1.388 . S
C966 C965 1.366 1_556 S
C966 C970 1.385 . S
C967 H942 0.951 . S
C967 C965 1.388 . S
C967 C968 1.366 . S
C968 C967 1.366 . S
C968 C969 1.414 1_554 S
C968 C971 1.499 . S
C969 H943 0.950 . S
C969 C968 1.414 1_556 S
C969 C970 1.374 . S
C970 H944 0.950 . S
C970 C966 1.385 . S
C970 C969 1.374 . S
C971 C968 1.499 . S
C971 C972 1.373 . S
C971 C973 1.389 . S
C972 H945 0.950 . S
C972 C958 1.377 . S
C972 C971 1.373 . S
C973 C957 1.377 . S
C973 C971 1.389 . S
C973 C974 1.524 . S
C974 C973 1.524 . S
C974 C975 1.397 . S
C974 C979 1.363 . S
C975 H946 0.950 1_554 S
C975 C974 1.397 . S
C975 C976 1.334 . S
C976 H947 0.950 1_554 S
C976 C975 1.334 . S
C976 C977 1.287 . S
C977 C976 1.287 . S
C977 C978 1.524 . S
C977 H980 0.999 . S
C978 H948 0.950 . S
C978 C977 1.524 . S
C978 C979 1.415 . S
C979 H949 0.950 . S
C979 C974 1.363 . S
C979 C978 1.415 . S
H980 C977 0.999 . S
H981 C962 0.913 . S
H982 C1000 0.951 . S
H983 C1002 0.951 . S
H984 C1004 0.950 . S
H985 C1005 0.950 . S
H986 C1007 0.950 . S
H987 C1010 0.950 . S
H988 C1011 0.950 . S
H989 C1013 0.950 . S
H990 C1014 0.950 . S
H991 C1015 0.951 . S
H992 C1017 0.951 . S
H993 C1019 0.950 . S
H994 C1020 0.950 . S
H995 C1022 0.950 . S
H996 C1025 0.950 . S
H997 C1026 0.950 . S
H998 C1028 0.950 . S
H999 C1029 0.950 . S
C1000 H982 0.951 . S
C1000 C1001 1.366 . S
C1000 C1002 1.388 . S
C1001 C1000 1.366 . S
C1001 C1005 1.385 . S
C1002 H983 0.951 . S
C1002 C1000 1.388 . S
C1002 C1003 1.366 . S
C1003 C1002 1.366 . S
C1003 C1004 1.414 . S
C1003 C1006 1.499 . S
C1004 H984 0.950 . S
C1004 C1003 1.414 . S
C1004 C1005 1.374 . S
C1005 H985 0.950 . S
C1005 C1001 1.385 . S
C1005 C1004 1.374 . S
C1006 C1003 1.499 . S
C1006 C1007 1.373 . S
C1006 C1008 1.389 . S
C1007 H986 0.950 . S
C1007 C1006 1.373 . S
C1007 C1023 1.377 . S
C1008 C1006 1.389 . S
C1008 C1009 1.524 . S
C1008 C1022 1.377 . S
C1009 C1008 1.524 . S
C1009 C1010 1.397 . S
C1009 C1014 1.363 . S
C1010 H987 0.950 . S
C1010 C1009 1.397 . S
C1010 C1011 1.334 . S
C1011 H988 0.950 . S
C1011 C1010 1.334 . S
C1011 C1012 1.287 . S
C1012 C1011 1.287 . S
C1012 C1013 1.524 . S
C1012 H1031 0.913 . S
C1013 H989 0.950 . S
C1013 C1012 1.524 . S
C1013 C1014 1.415 . S
C1014 H990 0.950 . S
C1014 C1009 1.363 . S
C1014 C1013 1.415 . S
C1015 H991 0.951 . S
C1015 C1016 1.366 . S
C1015 C1017 1.388 . S
C1016 C1015 1.366 . S
C1016 C1020 1.385 . S
C1017 H992 0.951 . S
C1017 C1015 1.388 . S
C1017 C1018 1.366 1_556 S
C1018 C1017 1.366 1_554 S
C1018 C1019 1.414 . S
C1018 C1021 1.499 . S
C1019 H993 0.950 . S
C1019 C1018 1.414 . S
C1019 C1020 1.374 1_554 S
C1020 H994 0.950 . S
C1020 C1016 1.385 . S
C1020 C1019 1.374 1_556 S
C1021 C1018 1.499 . S
C1021 C1022 1.373 . S
C1021 C1023 1.389 . S
C1022 H995 0.950 . S
C1022 C1008 1.377 . S
C1022 C1021 1.373 . S
C1023 C1007 1.377 . S
C1023 C1021 1.389 . S
C1023 C1024 1.524 1_554 S
C1024 C1023 1.524 1_556 S
C1024 C1025 1.397 . S
C1024 C1029 1.363 . S
C1025 H996 0.950 . S
C1025 C1024 1.397 . S
C1025 C1026 1.334 . S
C1026 H997 0.950 . S
C1026 C1025 1.334 . S
C1026 C1027 1.287 . S
C1027 C1026 1.287 . S
C1027 C1028 1.524 . S
C1027 H1030 0.999 . S
C1028 H998 0.950 . S
C1028 C1027 1.524 . S
C1028 C1029 1.415 . S
C1029 H999 0.950 . S
C1029 C1024 1.363 . S
C1029 C1028 1.415 . S
H1030 C1027 0.999 . S
H1031 C1012 0.913 . S
H1032 C1050 0.952 . S
H1033 C1052 0.949 1_655 S
H1034 C1054 0.953 . S
H1035 C1055 0.950 1_554 S
H1036 C1057 0.950 . S
H1037 C1060 0.950 . S
H1038 C1061 0.950 . S
H1039 C1063 0.950 . S
H1040 C1064 0.950 . S
H1041 C1065 0.951 . S
H1042 C1067 0.951 . S
H1043 C1069 0.950 . S
H1044 C1070 0.950 . S
H1045 C1072 0.950 . S
H1046 C1075 0.950 . S
H1047 C1076 0.950 . S
H1048 C1078 0.950 1_554 S
H1049 C1079 0.950 1_554 S
C1050 H1032 0.952 . S
C1050 C1051 1.365 1_655 S
C1050 C1052 1.388 1_655 S
C1051 C1050 1.365 1_455 S
C1051 C1055 1.385 . S
C1052 H1033 0.949 1_455 S
C1052 C1050 1.388 1_455 S
C1052 C1053 1.366 . S
C1053 C1052 1.366 . S
C1053 C1054 1.414 . S
C1053 C1056 1.499 . S
C1054 H1034 0.953 . S
C1054 C1053 1.414 . S
C1054 C1055 1.374 . S
C1055 H1035 0.950 1_556 S
C1055 C1051 1.385 . S
C1055 C1054 1.374 . S
C1056 C1053 1.499 . S
C1056 C1057 1.373 . S
C1056 C1058 1.389 1_455 S
C1057 H1036 0.950 . S
C1057 C1056 1.373 . S
C1057 C1073 1.377 . S
C1058 C1056 1.389 1_655 S
C1058 C1059 1.524 . S
C1058 C1072 1.377 . S
C1059 C1058 1.524 . S
C1059 C1060 1.397 . S
C1059 C1064 1.363 . S
C1060 H1037 0.950 . S
C1060 C1059 1.397 . S
C1060 C1061 1.334 . S
C1061 H1038 0.950 . S
C1061 C1060 1.334 . S
C1061 C1062 1.287 . S
C1062 C1061 1.287 . S
C1062 C1063 1.524 . S
C1062 H1081 0.913 . S
C1063 H1039 0.950 . S
C1063 C1062 1.524 . S
C1063 C1064 1.415 . S
C1064 H1040 0.950 . S
C1064 C1059 1.363 . S
C1064 C1063 1.415 . S
C1065 H1041 0.951 . S
C1065 C1066 1.366 . S
C1065 C1067 1.388 . S
C1066 C1065 1.366 . S
C1066 C1070 1.385 . S
C1067 H1042 0.951 . S
C1067 C1065 1.388 . S
C1067 C1068 1.366 . S
C1068 C1067 1.366 . S
C1068 C1069 1.414 . S
C1068 C1071 1.499 . S
C1069 H1043 0.950 . S
C1069 C1068 1.414 . S
C1069 C1070 1.374 . S
C1070 H1044 0.950 . S
C1070 C1066 1.385 . S
C1070 C1069 1.374 . S
C1071 C1068 1.499 . S
C1071 C1072 1.373 1_455 S
C1071 C1073 1.389 . S
C1072 H1045 0.950 . S
C1072 C1058 1.377 . S
C1072 C1071 1.373 1_655 S
C1073 C1057 1.377 . S
C1073 C1071 1.389 . S
C1073 C1074 1.524 . S
C1074 C1073 1.524 . S
C1074 C1075 1.397 . S
C1074 C1079 1.363 . S
C1075 H1046 0.950 . S
C1075 C1074 1.397 . S
C1075 C1076 1.334 . S
C1076 H1047 0.950 . S
C1076 C1075 1.334 . S
C1076 C1077 1.287 . S
C1077 C1076 1.287 . S
C1077 C1078 1.524 . S
C1077 H1080 0.999 . S
C1078 H1048 0.950 1_556 S
C1078 C1077 1.524 . S
C1078 C1079 1.415 . S
C1079 H1049 0.950 1_556 S
C1079 C1074 1.363 . S
C1079 C1078 1.415 . S
H1080 C1077 0.999 . S
H1081 C1062 0.913 . S
H1082 C1100 0.951 . S
H1083 C1102 0.951 . S
H1084 C1104 0.950 . S
H1085 C1105 0.951 1_554 S
H1086 C1107 0.950 . S
H1087 C1110 0.950 . S
H1088 C1111 0.950 . S
H1089 C1113 0.950 . S
H1090 C1114 0.950 . S
H1091 C1115 0.951 . S
H1092 C1117 0.951 . S
H1093 C1119 0.950 . S
H1094 C1120 0.950 . S
H1095 C1122 0.950 . S
H1096 C1125 0.950 . S
H1097 C1126 0.950 . S
H1098 C1128 0.950 . S
H1099 C1129 0.950 1_554 S
C1100 H1082 0.951 . S
C1100 C1101 1.366 . S
C1100 C1102 1.388 . S
C1101 C1100 1.366 . S
C1101 C1105 1.385 . S
C1102 H1083 0.951 . S
C1102 C1100 1.388 . S
C1102 C1103 1.366 . S
C1103 C1102 1.366 . S
C1103 C1104 1.414 . S
C1103 C1106 1.499 . S
C1104 H1084 0.950 . S
C1104 C1103 1.414 . S
C1104 C1105 1.374 . S
C1105 H1085 0.951 1_556 S
C1105 C1101 1.385 . S
C1105 C1104 1.374 . S
C1106 C1103 1.499 . S
C1106 C1107 1.373 . S
C1106 C1108 1.389 1_545 S
C1107 H1086 0.950 . S
C1107 C1106 1.373 . S
C1107 C1123 1.377 . S
C1108 C1106 1.389 1_565 S
C1108 C1109 1.524 . S
C1108 C1122 1.377 . S
C1109 C1108 1.524 . S
C1109 C1110 1.397 . S
C1109 C1114 1.363 . S
C1110 H1087 0.950 . S
C1110 C1109 1.397 . S
C1110 C1111 1.334 . S
C1111 H1088 0.950 . S
C1111 C1110 1.334 . S
C1111 C1112 1.287 . S
C1112 C1111 1.287 . S
C1112 C1113 1.524 . S
C1112 H1131 0.913 . S
C1113 H1089 0.950 . S
C1113 C1112 1.524 . S
C1113 C1114 1.415 . S
C1114 H1090 0.950 . S
C1114 C1109 1.363 . S
C1114 C1113 1.415 . S
C1115 H1091 0.951 . S
C1115 C1116 1.366 . S
C1115 C1117 1.388 . S
C1116 C1115 1.366 . S
C1116 C1120 1.385 . S
C1117 H1092 0.951 . S
C1117 C1115 1.388 . S
C1117 C1118 1.366 . S
C1118 C1117 1.366 . S
C1118 C1119 1.414 . S
C1118 C1121 1.499 . S
C1119 H1093 0.950 . S
C1119 C1118 1.414 . S
C1119 C1120 1.374 . S
C1120 H1094 0.950 . S
C1120 C1116 1.385 . S
C1120 C1119 1.374 . S
C1121 C1118 1.499 . S
C1121 C1122 1.373 1_545 S
C1121 C1123 1.389 . S
C1122 H1095 0.950 . S
C1122 C1108 1.377 . S
C1122 C1121 1.373 1_565 S
C1123 C1107 1.377 . S
C1123 C1121 1.389 . S
C1123 C1124 1.524 . S
C1124 C1123 1.524 . S
C1124 C1125 1.397 . S
C1124 C1129 1.363 . S
C1125 H1096 0.950 . S
C1125 C1124 1.397 . S
C1125 C1126 1.334 . S
C1126 H1097 0.950 . S
C1126 C1125 1.334 . S
C1126 C1127 1.287 . S
C1127 C1126 1.287 . S
C1127 C1128 1.524 1_556 S
C1127 H1130 0.999 . S
C1128 H1098 0.950 . S
C1128 C1127 1.524 1_554 S
C1128 C1129 1.415 1_554 S
C1129 H1099 0.950 1_556 S
C1129 C1124 1.363 . S
C1129 C1128 1.415 1_556 S
H1130 C1127 0.999 . S
H1131 C1112 0.913 . S
H1132 C1150 0.951 . S
H1133 C1152 0.951 . S
H1134 C1154 0.950 . S
H1135 C1155 0.950 . S
H1136 C1157 0.950 . S
H1137 C1160 0.950 . S
H1138 C1161 0.950 . S
H1139 C1163 0.950 . S
H1140 C1164 0.950 . S
H1141 C1165 0.951 . S
H1142 C1167 0.951 . S
H1143 C1169 0.950 . S
H1144 C1170 0.950 . S
H1145 C1172 0.950 . S
H1146 C1175 0.950 . S
H1147 C1176 0.950 1_554 S
H1148 C1178 0.950 . S
H1149 C1179 0.950 . S
C1150 H1132 0.951 . S
C1150 C1151 1.366 . S
C1150 C1152 1.388 . S
C1151 C1150 1.366 . S
C1151 C1155 1.385 . S
C1152 H1133 0.951 . S
C1152 C1150 1.388 . S
C1152 C1153 1.366 . S
C1153 C1152 1.366 . S
C1153 C1154 1.414 . S
C1153 C1156 1.499 . S
C1154 H1134 0.950 . S
C1154 C1153 1.414 . S
C1154 C1155 1.374 . S
C1155 H1135 0.950 . S
C1155 C1151 1.385 . S
C1155 C1154 1.374 . S
C1156 C1153 1.499 . S
C1156 C1157 1.373 . S
C1156 C1158 1.389 . S
C1157 H1136 0.950 . S
C1157 C1156 1.373 . S
C1157 C1173 1.377 . S
C1158 C1156 1.389 . S
C1158 C1159 1.524 . S
C1158 C1172 1.377 . S
C1159 C1158 1.524 . S
C1159 C1160 1.397 . S
C1159 C1164 1.363 . S
C1160 H1137 0.950 . S
C1160 C1159 1.397 . S
C1160 C1161 1.334 . S
C1161 H1138 0.950 . S
C1161 C1160 1.334 . S
C1161 C1162 1.287 . S
C1162 C1161 1.287 . S
C1162 C1163 1.524 . S
C1162 H1181 0.913 . S
C1163 H1139 0.950 . S
C1163 C1162 1.524 . S
C1163 C1164 1.415 . S
C1164 H1140 0.950 . S
C1164 C1159 1.363 . S
C1164 C1163 1.415 . S
C1165 H1141 0.951 . S
C1165 C1166 1.366 . S
C1165 C1167 1.388 . S
C1166 C1165 1.366 . S
C1166 C1170 1.385 . S
C1167 H1142 0.951 . S
C1167 C1165 1.388 . S
C1167 C1168 1.366 . S
C1168 C1167 1.366 . S
C1168 C1169 1.414 . S
C1168 C1171 1.499 . S
C1169 H1143 0.950 . S
C1169 C1168 1.414 . S
C1169 C1170 1.374 . S
C1170 H1144 0.950 . S
C1170 C1166 1.385 . S
C1170 C1169 1.374 . S
C1171 C1168 1.499 . S
C1171 C1172 1.373 . S
C1171 C1173 1.389 . S
C1172 H1145 0.950 . S
C1172 C1158 1.377 . S
C1172 C1171 1.373 . S
C1173 C1157 1.377 . S
C1173 C1171 1.389 . S
C1173 C1174 1.524 . S
C1174 C1173 1.524 . S
C1174 C1175 1.397 . S
C1174 C1179 1.363 . S
C1175 H1146 0.950 . S
C1175 C1174 1.397 . S
C1175 C1176 1.334 . S
C1176 H1147 0.950 1_556 S
C1176 C1175 1.334 . S
C1176 C1177 1.287 . S
C1177 C1176 1.287 . S
C1177 C1178 1.524 . S
C1177 H1180 0.999 . S
C1178 H1148 0.950 . S
C1178 C1177 1.524 . S
C1178 C1179 1.415 . S
C1179 H1149 0.950 . S
C1179 C1174 1.363 . S
C1179 C1178 1.415 . S
H1180 C1177 0.999 . S
H1181 C1162 0.913 . S
H1182 C1200 0.951 1_554 S
H1183 C1202 0.951 . S
H1184 C1204 0.950 . S
H1185 C1205 0.950 . S
H1186 C1207 0.950 . S
H1187 C1210 0.950 . S
H1188 C1211 0.950 . S
H1189 C1213 0.950 . S
H1190 C1214 0.950 . S
H1191 C1215 0.951 . S
H1192 C1217 0.951 . S
H1193 C1219 0.950 . S
H1194 C1220 0.950 . S
H1195 C1222 0.950 . S
H1196 C1225 0.950 . S
H1197 C1226 0.950 . S
H1198 C1228 0.950 . S
H1199 C1229 0.950 . S
C1200 H1182 0.951 1_556 S
C1200 C1201 1.366 . S
C1200 C1202 1.388 . S
C1201 C1200 1.366 . S
C1201 C1205 1.385 . S
C1202 H1183 0.951 . S
C1202 C1200 1.388 . S
C1202 C1203 1.366 . S
C1203 C1202 1.366 . S
C1203 C1204 1.414 . S
C1203 C1206 1.499 . S
C1204 H1184 0.950 . S
C1204 C1203 1.414 . S
C1204 C1205 1.374 . S
C1205 H1185 0.950 . S
C1205 C1201 1.385 . S
C1205 C1204 1.374 . S
C1206 C1203 1.499 . S
C1206 C1207 1.373 . S
C1206 C1208 1.389 . S
C1207 H1186 0.950 . S
C1207 C1206 1.373 . S
C1207 C1223 1.377 . S
C1208 C1206 1.389 . S
C1208 C1209 1.524 . S
C1208 C1222 1.377 . S
C1209 C1208 1.524 . S
C1209 C1210 1.397 . S
C1209 C1214 1.363 . S
C1210 H1187 0.950 . S
C1210 C1209 1.397 . S
C1210 C1211 1.334 . S
C1211 H1188 0.950 . S
C1211 C1210 1.334 . S
C1211 C1212 1.287 . S
C1212 C1211 1.287 . S
C1212 C1213 1.524 1_556 S
C1212 H1231 0.913 . S
C1213 H1189 0.950 . S
C1213 C1212 1.524 1_554 S
C1213 C1214 1.415 1_554 S
C1214 H1190 0.950 . S
C1214 C1209 1.363 . S
C1214 C1213 1.415 1_556 S
C1215 H1191 0.951 . S
C1215 C1216 1.366 . S
C1215 C1217 1.388 . S
C1216 C1215 1.366 . S
C1216 C1220 1.385 . S
C1217 H1192 0.951 . S
C1217 C1215 1.388 . S
C1217 C1218 1.366 . S
C1218 C1217 1.366 . S
C1218 C1219 1.414 . S
C1218 C1221 1.499 . S
C1219 H1193 0.950 . S
C1219 C1218 1.414 . S
C1219 C1220 1.374 . S
C1220 H1194 0.950 . S
C1220 C1216 1.385 . S
C1220 C1219 1.374 . S
C1221 C1218 1.499 . S
C1221 C1222 1.373 . S
C1221 C1223 1.389 . S
C1222 H1195 0.950 . S
C1222 C1208 1.377 . S
C1222 C1221 1.373 . S
C1223 C1207 1.377 . S
C1223 C1221 1.389 . S
C1223 C1224 1.524 . S
C1224 C1223 1.524 . S
C1224 C1225 1.397 . S
C1224 C1229 1.363 . S
C1225 H1196 0.950 . S
C1225 C1224 1.397 . S
C1225 C1226 1.334 . S
C1226 H1197 0.950 . S
C1226 C1225 1.334 . S
C1226 C1227 1.287 . S
C1227 C1226 1.287 . S
C1227 C1228 1.524 . S
C1227 H1230 0.999 . S
C1228 H1198 0.950 . S
C1228 C1227 1.524 . S
C1228 C1229 1.415 . S
C1229 H1199 0.950 . S
C1229 C1224 1.363 . S
C1229 C1228 1.415 . S
H1230 C1227 0.999 . S
H1231 C1212 0.913 . S
H1232 C1250 0.951 . S
H1233 C1252 0.951 . S
H1234 C1254 0.950 . S
H1235 C1255 0.950 . S
H1236 C1257 0.950 . S
H1237 C1260 0.950 . S
H1238 C1261 0.950 . S
H1239 C1263 0.950 . S
H1240 C1264 0.950 . S
H1241 C1265 0.951 . S
H1242 C1267 0.951 . S
H1243 C1269 0.950 . S
H1244 C1270 0.950 . S
H1245 C1272 0.950 . S
H1246 C1275 0.950 . S
H1247 C1276 0.950 . S
H1248 C1278 0.950 . S
H1249 C1279 0.950 . S
C1250 H1232 0.951 . S
C1250 C1251 1.366 . S
C1250 C1252 1.388 . S
C1251 C1250 1.366 . S
C1251 C1255 1.385 1_655 S
C1252 H1233 0.951 . S
C1252 C1250 1.388 . S
C1252 C1253 1.366 . S
C1253 C1252 1.366 . S
C1253 C1254 1.414 1_655 S
C1253 C1256 1.499 . S
C1254 H1234 0.950 . S
C1254 C1253 1.414 1_455 S
C1254 C1255 1.374 . S
C1255 H1235 0.950 . S
C1255 C1251 1.385 1_455 S
C1255 C1254 1.374 . S
C1256 C1253 1.499 . S
C1256 C1257 1.373 1_655 S
C1256 C1258 1.389 . S
C1257 H1236 0.950 . S
C1257 C1256 1.373 1_455 S
C1257 C1273 1.377 . S
C1258 C1256 1.389 . S
C1258 C1259 1.524 . S
C1258 C1272 1.377 . S
C1259 C1258 1.524 . S
C1259 C1260 1.397 . S
C1259 C1264 1.363 . S
C1260 H1237 0.950 . S
C1260 C1259 1.397 . S
C1260 C1261 1.334 . S
C1261 H1238 0.950 . S
C1261 C1260 1.334 . S
C1261 C1262 1.287 . S
C1262 C1261 1.287 . S
C1262 C1263 1.524 . S
C1262 H1281 0.913 . S
C1263 H1239 0.950 . S
C1263 C1262 1.524 . S
C1263 C1264 1.415 . S
C1264 H1240 0.950 . S
C1264 C1259 1.363 . S
C1264 C1263 1.415 . S
C1265 H1241 0.951 . S
C1265 C1266 1.366 1_455 S
C1265 C1267 1.388 . S
C1266 C1265 1.366 1_655 S
C1266 C1270 1.385 . S
C1267 H1242 0.951 . S
C1267 C1265 1.388 . S
C1267 C1268 1.366 1_455 S
C1268 C1267 1.366 1_655 S
C1268 C1269 1.414 . S
C1268 C1271 1.499 . S
C1269 H1243 0.950 . S
C1269 C1268 1.414 . S
C1269 C1270 1.374 . S
C1270 H1244 0.950 . S
C1270 C1266 1.385 . S
C1270 C1269 1.374 . S
C1271 C1268 1.499 . S
C1271 C1272 1.373 . S
C1271 C1273 1.389 1_655 S
C1272 H1245 0.950 . S
C1272 C1258 1.377 . S
C1272 C1271 1.373 . S
C1273 C1257 1.377 . S
C1273 C1271 1.389 1_455 S
C1273 C1274 1.524 . S
C1274 C1273 1.524 . S
C1274 C1275 1.397 . S
C1274 C1279 1.363 . S
C1275 H1246 0.950 . S
C1275 C1274 1.397 . S
C1275 C1276 1.334 . S
C1276 H1247 0.950 . S
C1276 C1275 1.334 . S
C1276 C1277 1.287 . S
C1277 C1276 1.287 . S
C1277 C1278 1.524 . S
C1277 H1280 0.999 . S
C1278 H1248 0.950 . S
C1278 C1277 1.524 . S
C1278 C1279 1.415 . S
C1279 H1249 0.950 . S
C1279 C1274 1.363 . S
C1279 C1278 1.415 . S
H1280 C1277 0.999 . S
H1281 C1262 0.913 . S
H1282 C1300 0.951 . S
H1283 C1302 0.951 . S
H1284 C1304 0.950 . S
H1285 C1305 0.950 . S
H1286 C1307 0.950 . S
H1287 C1310 0.950 . S
H1288 C1311 0.950 . S
H1289 C1313 0.950 . S
H1290 C1314 0.950 . S
H1291 C1315 0.951 . S
H1292 C1317 0.951 . S
H1293 C1319 0.949 1_545 S
H1294 C1320 0.950 . S
H1295 C1322 0.950 . S
H1296 C1325 0.950 . S
H1297 C1326 0.950 . S
H1298 C1328 0.950 . S
H1299 C1329 0.950 . S
C1300 H1282 0.951 . S
C1300 C1301 1.358 1_545 S
C1300 C1302 1.388 . S
C1301 C1300 1.358 1_565 S
C1301 C1305 1.396 . S
C1302 H1283 0.951 . S
C1302 C1300 1.388 . S
C1302 C1303 1.366 1_545 S
C1303 C1302 1.366 1_565 S
C1303 C1304 1.414 . S
C1303 C1306 1.499 . S
C1304 H1284 0.950 . S
C1304 C1303 1.414 . S
C1304 C1305 1.374 . S
C1305 H1285 0.950 . S
C1305 C1301 1.396 . S
C1305 C1304 1.374 . S
C1306 C1303 1.499 . S
C1306 C1307 1.373 . S
C1306 C1308 1.389 1_565 S
C1307 H1286 0.950 . S
C1307 C1306 1.373 . S
C1307 C1323 1.377 . S
C1308 C1306 1.389 1_545 S
C1308 C1309 1.524 . S
C1308 C1322 1.377 . S
C1309 C1308 1.524 . S
C1309 C1310 1.397 . S
C1309 C1314 1.363 . S
C1310 H1287 0.950 . S
C1310 C1309 1.397 . S
C1310 C1311 1.334 . S
C1311 H1288 0.950 . S
C1311 C1310 1.334 . S
C1311 C1312 1.287 . S
C1312 C1311 1.287 . S
C1312 C1313 1.524 . S
C1312 H1331 0.913 . S
C1313 H1289 0.950 . S
C1313 C1312 1.524 . S
C1313 C1314 1.415 . S
C1314 H1290 0.950 . S
C1314 C1309 1.363 . S
C1314 C1313 1.415 . S
C1315 H1291 0.951 . S
C1315 C1316 1.366 . S
C1315 C1317 1.388 . S
C1316 C1315 1.366 . S
C1316 C1320 1.385 . S
C1317 H1292 0.951 . S
C1317 C1315 1.388 . S
C1317 C1318 1.366 . S
C1318 C1317 1.366 . S
C1318 C1319 1.414 . S
C1318 C1321 1.499 . S
C1319 H1293 0.949 1_565 S
C1319 C1318 1.414 . S
C1319 C1320 1.374 . S
C1320 H1294 0.950 . S
C1320 C1316 1.385 . S
C1320 C1319 1.374 . S
C1321 C1318 1.499 . S
C1321 C1322 1.373 1_565 S
C1321 C1323 1.389 . S
C1322 H1295 0.950 . S
C1322 C1308 1.377 . S
C1322 C1321 1.373 1_545 S
C1323 C1307 1.377 . S
C1323 C1321 1.389 . S
C1323 C1324 1.524 . S
C1324 C1323 1.524 . S
C1324 C1325 1.397 . S
C1324 C1329 1.363 . S
C1325 H1296 0.950 . S
C1325 C1324 1.397 . S
C1325 C1326 1.334 . S
C1326 H1297 0.950 . S
C1326 C1325 1.334 . S
C1326 C1327 1.287 . S
C1327 C1326 1.287 . S
C1327 C1328 1.524 . S
C1327 H1330 0.999 . S
C1328 H1298 0.950 . S
C1328 C1327 1.524 . S
C1328 C1329 1.415 . S
C1329 H1299 0.950 . S
C1329 C1324 1.363 . S
C1329 C1328 1.415 . S
H1330 C1327 0.999 . S
H1331 C1312 0.913 . S
H1332 C1350 0.951 . S
H1333 C1352 0.951 . S
H1334 C1354 0.950 . S
H1335 C1355 0.950 . S
H1336 C1357 0.950 . S
H1337 C1360 0.950 . S
H1338 C1361 0.950 . S
H1339 C1363 0.950 . S
H1340 C1364 0.950 . S
H1341 C1365 0.951 . S
H1342 C1367 0.951 . S
H1343 C1369 0.950 . S
H1344 C1370 0.950 . S
H1345 C1372 0.950 . S
H1346 C1375 0.950 . S
H1347 C1376 0.950 . S
H1348 C1378 0.950 . S
H1349 C1379 0.950 . S
C1350 H1332 0.951 . S
C1350 C1351 1.366 . S
C1350 C1352 1.388 . S
C1351 C1350 1.366 . S
C1351 C1355 1.385 . S
C1352 H1333 0.951 . S
C1352 C1350 1.388 . S
C1352 C1353 1.366 . S
C1353 C1352 1.366 . S
C1353 C1354 1.414 . S
C1353 C1356 1.499 . S
C1354 H1334 0.950 . S
C1354 C1353 1.414 . S
C1354 C1355 1.374 . S
C1355 H1335 0.950 . S
C1355 C1351 1.385 . S
C1355 C1354 1.374 . S
C1356 C1353 1.499 . S
C1356 C1357 1.373 . S
C1356 C1358 1.389 . S
C1357 H1336 0.950 . S
C1357 C1356 1.373 . S
C1357 C1373 1.377 . S
C1358 C1356 1.389 . S
C1358 C1359 1.524 . S
C1358 C1372 1.377 . S
C1359 C1358 1.524 . S
C1359 C1360 1.397 . S
C1359 C1364 1.363 . S
C1360 H1337 0.950 . S
C1360 C1359 1.397 . S
C1360 C1361 1.334 . S
C1361 H1338 0.950 . S
C1361 C1360 1.334 . S
C1361 C1362 1.287 . S
C1362 C1361 1.287 . S
C1362 C1363 1.524 . S
C1362 H1381 0.913 . S
C1363 H1339 0.950 . S
C1363 C1362 1.524 . S
C1363 C1364 1.415 . S
C1364 H1340 0.950 . S
C1364 C1359 1.363 . S
C1364 C1363 1.415 . S
C1365 H1341 0.951 . S
C1365 C1366 1.366 . S
C1365 C1367 1.388 . S
C1366 C1365 1.366 . S
C1366 C1370 1.385 . S
C1367 H1342 0.951 . S
C1367 C1365 1.388 . S
C1367 C1368 1.366 . S
C1368 C1367 1.366 . S
C1368 C1369 1.414 . S
C1368 C1371 1.499 . S
C1369 H1343 0.950 . S
C1369 C1368 1.414 . S
C1369 C1370 1.374 . S
C1370 H1344 0.950 . S
C1370 C1366 1.385 . S
C1370 C1369 1.374 . S
C1371 C1368 1.499 . S
C1371 C1372 1.373 . S
C1371 C1373 1.389 . S
C1372 H1345 0.950 . S
C1372 C1358 1.377 . S
C1372 C1371 1.373 . S
C1373 C1357 1.377 . S
C1373 C1371 1.389 . S
C1373 C1374 1.524 . S
C1374 C1373 1.524 . S
C1374 C1375 1.397 . S
C1374 C1379 1.363 . S
C1375 H1346 0.950 . S
C1375 C1374 1.397 . S
C1375 C1376 1.334 . S
C1376 H1347 0.950 . S
C1376 C1375 1.334 . S
C1376 C1377 1.287 . S
C1377 C1376 1.287 . S
C1377 C1378 1.524 . S
C1377 H1380 0.999 . S
C1378 H1348 0.950 . S
C1378 C1377 1.524 . S
C1378 C1379 1.415 . S
C1379 H1349 0.950 . S
C1379 C1374 1.363 . S
C1379 C1378 1.415 . S
H1380 C1377 0.999 . S
H1381 C1362 0.913 . S
H1382 C1400 0.951 . S
H1383 C1402 0.951 . S
H1384 C1404 0.950 . S
H1385 C1405 0.950 . S
H1386 C1407 0.950 . S
H1387 C1410 0.950 . S
H1388 C1411 0.950 . S
H1389 C1413 0.950 . S
H1390 C1414 0.950 . S
H1391 C1415 0.951 . S
H1392 C1417 0.951 . S
H1393 C1419 0.950 . S
H1394 C1420 0.950 . S
H1395 C1422 0.950 . S
H1396 C1425 0.950 . S
H1397 C1426 0.950 . S
H1398 C1428 0.950 . S
H1399 C1429 0.950 . S
C1400 H1382 0.951 . S
C1400 C1401 1.366 . S
C1400 C1402 1.388 . S
C1401 C1400 1.366 . S
C1401 C1405 1.385 . S
C1402 H1383 0.951 . S
C1402 C1400 1.388 . S
C1402 C1403 1.366 . S
C1403 C1402 1.366 . S
C1403 C1404 1.414 . S
C1403 C1406 1.499 . S
C1404 H1384 0.950 . S
C1404 C1403 1.414 . S
C1404 C1405 1.374 . S
C1405 H1385 0.950 . S
C1405 C1401 1.385 . S
C1405 C1404 1.374 . S
C1406 C1403 1.499 . S
C1406 C1407 1.373 . S
C1406 C1408 1.389 . S
C1407 H1386 0.950 . S
C1407 C1406 1.373 . S
C1407 C1423 1.377 . S
C1408 C1406 1.389 . S
C1408 C1409 1.524 . S
C1408 C1422 1.377 . S
C1409 C1408 1.524 . S
C1409 C1410 1.397 . S
C1409 C1414 1.363 . S
C1410 H1387 0.950 . S
C1410 C1409 1.397 . S
C1410 C1411 1.334 . S
C1411 H1388 0.950 . S
C1411 C1410 1.334 . S
C1411 C1412 1.287 . S
C1412 C1411 1.287 . S
C1412 C1413 1.524 . S
C1412 H1431 0.913 . S
C1413 H1389 0.950 . S
C1413 C1412 1.524 . S
C1413 C1414 1.415 . S
C1414 H1390 0.950 . S
C1414 C1409 1.363 . S
C1414 C1413 1.415 . S
C1415 H1391 0.951 . S
C1415 C1416 1.366 . S
C1415 C1417 1.388 . S
C1416 C1415 1.366 . S
C1416 C1420 1.385 . S
C1417 H1392 0.951 . S
C1417 C1415 1.388 . S
C1417 C1418 1.366 . S
C1418 C1417 1.366 . S
C1418 C1419 1.414 . S
C1418 C1421 1.499 . S
C1419 H1393 0.950 . S
C1419 C1418 1.414 . S
C1419 C1420 1.374 . S
C1420 H1394 0.950 . S
C1420 C1416 1.385 . S
C1420 C1419 1.374 . S
C1421 C1418 1.499 . S
C1421 C1422 1.373 . S
C1421 C1423 1.389 . S
C1422 H1395 0.950 . S
C1422 C1408 1.377 . S
C1422 C1421 1.373 . S
C1423 C1407 1.377 . S
C1423 C1421 1.389 . S
C1423 C1424 1.524 . S
C1424 C1423 1.524 . S
C1424 C1425 1.397 . S
C1424 C1429 1.363 . S
C1425 H1396 0.950 . S
C1425 C1424 1.397 . S
C1425 C1426 1.334 . S
C1426 H1397 0.950 . S
C1426 C1425 1.334 . S
C1426 C1427 1.287 . S
C1427 C1426 1.287 . S
C1427 C1428 1.524 . S
C1427 H1430 0.999 . S
C1428 H1398 0.950 . S
C1428 C1427 1.524 . S
C1428 C1429 1.415 . S
C1429 H1399 0.950 . S
C1429 C1424 1.363 . S
C1429 C1428 1.415 . S
H1430 C1427 0.999 . S
H1431 C1412 0.913 . S
C251 C61 1.666 1_545 S
C266 C90 1.753 1_545 S
C316 C130 1.768 . S
C301 C70 1.682 . S
C366 C170 1.774 . S
C351 C43 1.682 . S
C416 C210 1.767 1_455 S
C401 C52 1.676 1_455 S
C466 C80 1.757 1_565 S
C451 C25 1.671 1_545 S
C501 C34 1.687 . S
C516 C120 1.772 . S
C551 C7 1.682 . S
C566 C160 1.774 . S
C601 C16 1.676 . S
C616 C200 1.766 1_655 S
C666 C77 0.268 . S
C651 C50 0.232 1_455 S
C716 C117 0.272 . S
C701 C59 0.243 1_545 S
C766 C157 0.269 . S
C751 C67 0.230 . S
C801 C41 0.237 . S
C816 C197 0.268 . S
C851 C14 0.228 . S
C866 C87 0.262 . S
C916 C127 0.271 . S
C901 C23 0.232 . S
C966 C167 0.273 . S
C951 C31 0.240 . S
C1001 C5 0.222 . S
C1016 C207 0.272 . S
C1051 C49 1.839 1_455 S
C1066 C81 2.005 . S
C1101 C58 1.806 1_545 S
C1116 C121 1.976 . S
C1166 C161 1.960 . S
C1151 C68 1.788 . S
C1216 C201 1.990 . S
C1201 C40 1.815 . S
C1251 C13 1.839 . S
C1266 C91 2.017 . S
C1316 C131 1.975 . S
C1301 C22 1.805 . S
C1366 C171 1.960 . S
C1351 C32 1.792 . S
C1401 C4 1.819 . S
C1416 C211 1.995 . S
