# Generated by pormake.
# Topology anh, (6,3)-cn, num edge types: 1
# Building blocks:
#     Node 0, Type 0, BuildingBlock: VOLQOD_clean_sbu_1, # of connection points: 6
#     Node 1, Type 0, BuildingBlock: VOLQOD_clean_sbu_1, # of connection points: 6
#     Node 2, Type 0, BuildingBlock: VOLQOD_clean_sbu_1, # of connection points: 6
#     Node 3, Type 1, BuildingBlock: CUQRIR_clean_linker_1, # of connection points: 3
#     Node 4, Type 1, BuildingBlock: CUQRIR_clean_linker_1, # of connection points: 3
#     Node 5, Type 1, BuildingBlock: CUQRIR_clean_linker_1, # of connection points: 3
#     Node 6, Type 1, BuildingBlock: CUQRIR_clean_linker_1, # of connection points: 3
#     Node 7, Type 1, BuildingBlock: CUQRIR_clean_linker_1, # of connection points: 3
#     Node 8, Type 1, BuildingBlock: CUQRIR_clean_linker_1, # of connection points: 3
#     Edge 9, Type (0, 1), BuildingBlock: XIVTED_clean_linker_0, # of connection points: 2
#     Edge 10, Type (0, 1), BuildingBlock: XIVTED_clean_linker_0, # of connection points: 2
#     Edge 11, Type (0, 1), BuildingBlock: XIVTED_clean_linker_0, # of connection points: 2
#     Edge 12, Type (0, 1), BuildingBlock: XIVTED_clean_linker_0, # of connection points: 2
#     Edge 13, Type (0, 1), BuildingBlock: XIVTED_clean_linker_0, # of connection points: 2
#     Edge 14, Type (0, 1), BuildingBlock: XIVTED_clean_linker_0, # of connection points: 2
#     Edge 15, Type (0, 1), BuildingBlock: XIVTED_clean_linker_0, # of connection points: 2
#     Edge 16, Type (0, 1), BuildingBlock: XIVTED_clean_linker_0, # of connection points: 2
#     Edge 17, Type (0, 1), BuildingBlock: XIVTED_clean_linker_0, # of connection points: 2
#     Edge 18, Type (0, 1), BuildingBlock: XIVTED_clean_linker_0, # of connection points: 2
#     Edge 19, Type (0, 1), BuildingBlock: XIVTED_clean_linker_0, # of connection points: 2
#     Edge 20, Type (0, 1), BuildingBlock: XIVTED_clean_linker_0, # of connection points: 2
#     Edge 21, Type (0, 1), BuildingBlock: XIVTED_clean_linker_0, # of connection points: 2
#     Edge 22, Type (0, 1), BuildingBlock: XIVTED_clean_linker_0, # of connection points: 2
#     Edge 23, Type (0, 1), BuildingBlock: XIVTED_clean_linker_0, # of connection points: 2
#     Edge 24, Type (0, 1), BuildingBlock: XIVTED_clean_linker_0, # of connection points: 2
#     Edge 25, Type (0, 1), BuildingBlock: XIVTED_clean_linker_0, # of connection points: 2
#     Edge 26, Type (0, 1), BuildingBlock: XIVTED_clean_linker_0, # of connection points: 2
# Relax obj value: 0.187
# Max RMSD: 0.221
# Mean RMSD: 0.170
data_MOF--net-anh--node1-VOLQOD_clean_sbu_1--node2-CUQRIR_clean_linker_1--edge1-XIVTED_clean_linker_0
_symmetry_space_group_name_H-M    P1
_symmetry_Int_Tables_number       1
_symmetry_cell_setting            triclinic
loop_
_symmetry_equiv_pos_as_xyz
'x, y, z'
_cell_length_a     27.431442
_cell_length_b     27.463138
_cell_length_c     53.478515
_cell_angle_alpha  84.840254
_cell_angle_beta   90.113489
_cell_angle_gamma 120.2782
loop_
_atom_site_label
_atom_site_type_symbol
_atom_site_fract_x
_atom_site_fract_y
_atom_site_fract_z
_atom_type_partial_charge
O0 O -0.00514 0.4947 0.21182 0.0
Zn1 Zn 0.01037 0.51256 0.17416 0.0
O2 O 0.01602 0.45259 0.1597 0.0
Zn3 Zn 0.9544 0.41333 0.13789 0.0
Zn4 Zn 0.01765 0.40062 0.18653 0.0
Zn5 Zn 0.08487 0.48499 0.13935 0.0
O6 O 0.98194 0.41917 0.10183 0.0
O7 O 0.07183 0.4865 0.10278 0.0
O8 O 0.94967 0.52457 0.15808 0.0
O9 O 0.90861 0.45164 0.1352 0.0
O10 O 0.90301 0.3326 0.15282 0.0
O11 O 0.94811 0.32437 0.18614 0.0
O12 O 0.08682 0.39254 0.18354 0.0
O13 O 0.08575 0.58512 0.17034 0.0
O14 O 0.12356 0.44085 0.14625 0.0
O15 O 0.13857 0.56317 0.14788 0.0
C16 C 0.00255 0.46169 0.22752 0.0
C17 C 0.02945 0.45474 0.09056 0.0
C18 C 0.90616 0.30363 0.17214 0.0
C19 C 0.91173 0.49535 0.14322 0.0
C20 C 0.12257 0.40863 0.16508 0.0
C21 C 0.13323 0.59791 0.16017 0.0
O22 O 0.015 0.42624 0.22021 0.0
O23 O 0.56782 0.07393 0.44475 0.0
Zn24 Zn 0.53953 0.07317 0.47956 0.0
O25 O 0.58872 0.0663 0.50422 0.0
Zn26 Zn 0.62626 0.13266 0.52208 0.0
Zn27 Zn 0.64479 0.05398 0.48781 0.0
Zn28 Zn 0.54291 0.00434 0.52895 0.0
O29 O 0.61171 0.1154 0.55991 0.0
O30 O 0.5362 0.02919 0.56204 0.0
O31 O 0.53333 0.14287 0.48263 0.0
O32 O 0.59663 0.18345 0.51133 0.0
O33 O 0.70827 0.17772 0.51184 0.0
O34 O 0.72136 0.12571 0.48611 0.0
O35 O 0.64904 0.98824 0.50669 0.0
O36 O 0.46186 0.00378 0.48317 0.0
O37 O 0.57937 0.95882 0.53567 0.0
O38 O 0.46651 0.95313 0.5168 0.0
C39 C 0.59803 0.05487 0.43665 0.0
C40 C 0.57019 0.07307 0.57246 0.0
C41 C 0.73976 0.17115 0.49671 0.0
C42 C 0.56078 0.18321 0.49619 0.0
C43 C 0.61972 0.9555 0.52602 0.0
C44 C 0.43978 0.95887 0.49841 0.0
O45 O 0.62587 0.04011 0.45151 0.0
O46 O 0.49019 0.58641 0.78282 0.0
Zn47 Zn 0.47518 0.56895 0.82039 0.0
O48 O 0.53808 0.62228 0.83831 0.0
Zn49 Zn 0.51076 0.65148 0.86289 0.0
Zn50 Zn 0.59199 0.68288 0.81391 0.0
Zn51 Zn 0.57336 0.58563 0.85629 0.0
O52 O 0.54234 0.65119 0.89731 0.0
O53 O 0.56877 0.58795 0.89355 0.0
O54 O 0.40278 0.5643 0.83105 0.0
O55 O 0.42604 0.60425 0.8669 0.0
O56 O 0.5271 0.72903 0.84915 0.0
O57 O 0.58042 0.74931 0.81414 0.0
O58 O 0.67216 0.7057 0.82196 0.0
O59 O 0.46476 0.49169 0.82788 0.0
O60 O 0.65575 0.62977 0.84758 0.0
O61 O 0.53943 0.50473 0.8491 0.0
C62 C 0.53449 0.62089 0.76919 0.0
C63 C 0.56037 0.61934 0.90692 0.0
C64 C 0.55355 0.76163 0.82935 0.0
C65 C 0.3892 0.5758 0.85154 0.0
C66 C 0.68947 0.67711 0.83522 0.0
C67 C 0.49426 0.47267 0.83845 0.0
O68 O 0.57851 0.65855 0.77879 0.0
C69 C 0.53058 0.91599 0.22593 0.0
N70 N 0.56423 0.95024 0.24285 0.0
N71 N 0.47868 0.87872 0.23662 0.0
C72 C 0.54644 0.92222 0.19838 0.0
C73 C 0.48183 0.8918 0.26059 0.0
N74 N 0.53378 0.93552 0.26432 0.0
C75 C 0.43454 0.86129 0.28043 0.0
H76 H 0.51174 0.91988 0.18688 0.0
H77 H 0.55258 0.88666 0.19444 0.0
H78 H 0.58607 0.96247 0.19255 0.0
H79 H 0.40517 0.81714 0.27627 0.0
H80 H 0.41056 0.88385 0.28088 0.0
H81 H 0.45153 0.8608 0.29925 0.0
C82 C 0.56245 0.5496 0.55103 0.0
N83 N 0.56681 0.57929 0.57059 0.0
N84 N 0.54097 0.49417 0.55902 0.0
C85 C 0.57454 0.57361 0.52383 0.0
C86 C 0.53189 0.49098 0.58416 0.0
N87 N 0.54701 0.54276 0.59117 0.0
C88 C 0.51327 0.4385 0.60204 0.0
H89 H 0.5495 0.54021 0.51135 0.0
H90 H 0.62006 0.59146 0.51888 0.0
H91 H 0.56459 0.60805 0.52046 0.0
H92 H 0.52952 0.44944 0.62096 0.0
H93 H 0.52806 0.41119 0.59492 0.0
H94 H 0.46641 0.414 0.60378 0.0
C95 C 0.02456 0.61351 0.87618 0.0
N96 N 0.04975 0.59108 0.89119 0.0
N97 N -0.00127 0.63368 0.89009 0.0
C98 C 0.01903 0.60912 0.84834 0.0
C99 C 0.00867 0.62225 0.91407 0.0
N100 N 0.03937 0.59631 0.91476 0.0
C101 C -0.01019 0.63755 0.93704 0.0
H102 H 0.0506 0.65013 0.83801 0.0
H103 H 0.97636 0.59983 0.84288 0.0
H104 H 0.0263 0.57532 0.84265 0.0
H105 H 0.9493 0.60065 0.94498 0.0
H106 H 0.98376 0.67428 0.93236 0.0
H107 H 0.02139 0.64785 0.95166 0.0
C108 C 0.10283 0.56525 0.44134 0.0
N109 N 0.07112 0.52978 0.42442 0.0
N110 N 0.13753 0.61791 0.42979 0.0
C111 C 0.09614 0.54968 0.46936 0.0
C112 C 0.1253 0.61323 0.40525 0.0
N113 N 0.08419 0.55974 0.40207 0.0
C114 C 0.15653 0.65961 0.38425 0.0
H115 H 0.05236 0.51559 0.47517 0.0
H116 H 0.1068 0.58697 0.47957 0.0
H117 H 0.12512 0.53388 0.47486 0.0
H118 H 0.20014 0.68975 0.38934 0.0
H119 H 0.13386 0.68324 0.38055 0.0
H120 H 0.15852 0.64171 0.36674 0.0
C121 C 0.44475 0.07709 0.78834 0.0
N122 N 0.4595 0.05529 0.77006 0.0
N123 N 0.44399 0.12398 0.77887 0.0
C124 C 0.43624 0.05562 0.81583 0.0
C125 C 0.45952 0.13046 0.75426 0.0
N126 N 0.46956 0.08897 0.74893 0.0
C127 C 0.46757 0.17901 0.73584 0.0
H128 H 0.43011 0.0833 0.82774 0.0
H129 H 0.47311 0.05215 0.82204 0.0
H130 H 0.39827 0.01267 0.8187 0.0
H131 H 0.51148 0.21482 0.73651 0.0
H132 H 0.43836 0.19389 0.74075 0.0
H133 H 0.46039 0.16652 0.71642 0.0
C134 C 0.54951 0.52279 0.12818 0.0
N135 N 0.58846 0.5499 0.10884 0.0
N136 N 0.50219 0.52461 0.12322 0.0
C137 C 0.55555 0.49008 0.15086 0.0
C138 C 0.51381 0.55402 0.10018 0.0
N139 N 0.56656 0.56983 0.09142 0.0
C140 C 0.47122 0.56136 0.08499 0.0
H141 H 0.54143 0.44634 0.14641 0.0
H142 H 0.52894 0.48752 0.16708 0.0
H143 H 0.60033 0.51002 0.15601 0.0
H144 H 0.43107 0.54606 0.09604 0.0
H145 H 0.46251 0.53792 0.06814 0.0
H146 H 0.48874 0.60679 0.07841 0.0
H147 H 0.19376 0.42539 0.20311 0.0
H148 H 0.41825 0.42943 0.10742 0.0
H149 H 0.15866 0.36936 0.12905 0.0
H150 H 0.46251 0.53947 0.16621 0.0
H151 H 0.31977 0.37736 0.12416 0.0
H152 H 0.28803 0.43636 0.19854 0.0
C153 C 0.2051 0.41309 0.18637 0.0
C154 C 0.16907 0.39688 0.16631 0.0
C155 C 0.35117 0.41212 0.13374 0.0
C156 C 0.27593 0.40973 0.1609 0.0
C157 C 0.40696 0.4416 0.1242 0.0
C158 C 0.44735 0.48884 0.13537 0.0
C159 C 0.336 0.43038 0.15452 0.0
C160 C 0.43178 0.50338 0.15713 0.0
C161 C 0.25891 0.41989 0.18367 0.0
C162 C 0.18568 0.38228 0.14483 0.0
N163 N 0.37686 0.47469 0.16587 0.0
N164 N 0.23827 0.38971 0.14254 0.0
H165 H 0.82912 0.17522 0.47104 0.0
H166 H 0.96206 0.49954 0.4241 0.0
H167 H 0.77433 0.28149 0.50126 0.0
H168 H 0.07421 0.43512 0.43951 0.0
H169 H 0.88219 0.40817 0.44205 0.0
H170 H 0.91261 0.2612 0.45089 0.0
C171 C 0.83499 0.21644 0.47373 0.0
C172 C 0.79474 0.22118 0.48788 0.0
C173 C 0.9242 0.41379 0.44113 0.0
C174 C 0.88802 0.31833 0.46427 0.0
C175 C 0.96921 0.46532 0.43072 0.0
C176 C 0.02385 0.47383 0.43039 0.0
C177 C 0.93419 0.37058 0.45087 0.0
C178 C 0.0321 0.42918 0.43947 0.0
C179 C 0.88229 0.26516 0.46218 0.0
C180 C 0.80425 0.27563 0.49066 0.0
N181 N -0.0125 0.379 0.44943 0.0
N182 N 0.84939 0.32195 0.47863 0.0
H183 H 0.47499 0.78291 0.84863 0.0
H184 H 0.56072 0.06471 0.76078 0.0
H185 H 0.61269 0.84973 0.79263 0.0
H186 H 0.39025 0.94749 0.7893 0.0
H187 H 0.58766 -0.00585 0.77504 0.0
H188 H 0.45224 0.85409 0.83179 0.0
C189 C 0.50108 0.81312 0.83306 0.0
C190 C 0.5457 0.8102 0.82194 0.0
C191 C 0.54424 0.98374 0.77789 0.0
C192 C 0.51934 0.8913 0.80246 0.0
C193 C 0.52887 0.02356 0.76957 0.0
C194 C 0.4734 0.01146 0.7741 0.0
C195 C 0.5039 0.93231 0.79116 0.0
C196 C 0.43358 0.95824 0.78589 0.0
C197 C 0.48759 0.85327 0.82328 0.0
C198 C 0.57777 0.85036 0.80168 0.0
N199 N 0.44974 0.92077 0.79437 0.0
N200 N 0.56395 0.88941 0.79254 0.0
H201 H 0.90465 0.58784 0.15415 0.0
H202 H 0.69267 0.64008 0.11139 0.0
H203 H 0.82349 0.4403 0.11318 0.0
H204 H 0.60264 0.46201 0.10251 0.0
H205 H 0.78018 0.63679 0.1165 0.0
H206 H 0.83236 0.61074 0.14137 0.0
C207 C 0.87205 0.56062 0.14225 0.0
C208 C 0.87005 0.51186 0.13489 0.0
C209 C 0.74143 0.59839 0.1134 0.0
C210 C 0.78777 0.53848 0.11966 0.0
C211 C 0.692 0.60064 0.11005 0.0
C212 C 0.64118 0.55122 0.1066 0.0
C213 C 0.73931 0.5461 0.11337 0.0
C214 C 0.64145 0.50081 0.10515 0.0
C215 C 0.83106 0.57412 0.13468 0.0
C216 C 0.82675 0.47818 0.11945 0.0
N217 N 0.68973 0.49942 0.10867 0.0
N218 N 0.78715 0.49182 0.1126 0.0
H219 H 0.39013 0.85021 0.52091 0.0
H220 H 0.14573 0.7206 0.42381 0.0
H221 H 0.36675 0.95456 0.46232 0.0
H222 H 0.21719 0.62795 0.4619 0.0
H223 H 0.2132 0.80536 0.44349 0.0
H224 H 0.31066 0.76633 0.50612 0.0
C225 C 0.36772 0.85568 0.50521 0.0
C226 C 0.38566 0.90952 0.49261 0.0
C227 C 0.21388 0.76637 0.44758 0.0
C228 C 0.29494 0.81354 0.47556 0.0
C229 C 0.17586 0.71839 0.43627 0.0
C230 C 0.17652 0.66774 0.44122 0.0
C231 C 0.25208 0.76314 0.46418 0.0
C232 C 0.21532 0.66626 0.45784 0.0
C233 C 0.32262 0.80769 0.49669 0.0
C234 C 0.35475 0.91384 0.47243 0.0
N235 N 0.2516 0.71332 0.46879 0.0
N236 N 0.31106 0.86634 0.46438 0.0
H237 H 0.39736 0.3901 0.82016 0.0
H238 H 0.52414 0.1883 0.80913 0.0
H239 H 0.55413 0.41995 0.85166 0.0
H240 H 0.36555 0.15533 0.77962 0.0
H241 H 0.52941 0.26644 0.83009 0.0
H242 H 0.37785 0.29698 0.81073 0.0
C243 C 0.42742 0.37684 0.82537 0.0
C244 C 0.47804 0.41332 0.83627 0.0
C245 C 0.49304 0.24185 0.8193 0.0
C246 C 0.45606 0.30694 0.82536 0.0
C247 C 0.49019 0.19752 0.80744 0.0
C248 C 0.44456 0.16635 0.79274 0.0
C249 C 0.45017 0.25527 0.8161 0.0
C250 C 0.40141 0.17917 0.79078 0.0
C251 C 0.41619 0.3236 0.81998 0.0
C252 C 0.51493 0.39352 0.84295 0.0
N253 N 0.40548 0.22322 0.80216 0.0
N254 N 0.50356 0.3419 0.83705 0.0
H255 H 0.58112 0.89609 0.57196 0.0
H256 H 0.66516 0.66488 0.54873 0.0
H257 H 0.67852 0.91021 0.50551 0.0
H258 H 0.51276 0.62871 0.58892 0.0
H259 H 0.69162 0.76509 0.54115 0.0
H260 H 0.57959 0.80923 0.58722 0.0
C261 C 0.60288 0.88133 0.56068 0.0
C262 C 0.6288 0.90967 0.53707 0.0
C263 C 0.65286 0.73525 0.55193 0.0
C264 C 0.62718 0.81024 0.55464 0.0
C265 C 0.63772 0.6784 0.55616 0.0
C266 C 0.58644 0.6389 0.56914 0.0
C267 C 0.61686 0.75247 0.56125 0.0
C268 C 0.55271 0.65811 0.57894 0.0
C269 C 0.60191 0.83173 0.56946 0.0
C270 C 0.65746 0.88925 0.52364 0.0
N271 N 0.5684 0.71365 0.57469 0.0
N272 N 0.65521 0.84005 0.53247 0.0
H273 H 0.77409 0.69341 0.80242 0.0
H274 H 0.89403 0.59817 0.90891 0.0
H275 H 0.73829 0.71023 0.87855 0.0
H276 H 0.01911 0.71432 0.85162 0.0
H277 H 0.83118 0.6323 0.89464 0.0
H278 H 0.86342 0.7002 0.81554 0.0
C279 C 0.78643 0.70117 0.82156 0.0
C280 C 0.74939 0.70104 0.83958 0.0
C281 C 0.87276 0.65093 0.88541 0.0
C282 C 0.8488 0.70697 0.8546 0.0
C283 C 0.90859 0.63166 0.89361 0.0
C284 C 0.96202 0.65429 0.88171 0.0
C285 C 0.88961 0.69165 0.86458 0.0
C286 C 0.97795 0.69581 0.86114 0.0
C287 C 0.83699 0.70482 0.82903 0.0
C288 C 0.76609 0.70998 0.86426 0.0
N289 N 0.94136 0.71276 0.85286 0.0
N290 N 0.81405 0.71116 0.87124 0.0
H291 H 0.14144 0.68077 0.18805 0.0
H292 H 0.46727 0.79677 0.20888 0.0
H293 H 0.24286 0.63258 0.14661 0.0
H294 H 0.37914 0.87629 0.23548 0.0
H295 H 0.38447 0.73569 0.18591 0.0
H296 H 0.22747 0.75447 0.20481 0.0
C297 C 0.18179 0.68631 0.18209 0.0
C298 C 0.18478 0.64985 0.16616 0.0
C299 C 0.38319 0.76662 0.19668 0.0
C300 C 0.28309 0.73331 0.18563 0.0
C301 C 0.4303 0.80121 0.20977 0.0
C302 C 0.42945 0.84099 0.22407 0.0
C303 C 0.33479 0.77167 0.19815 0.0
C304 C 0.38067 0.8452 0.22495 0.0
C305 C 0.23087 0.72825 0.19176 0.0
C306 C 0.23833 0.65924 0.15903 0.0
N307 N 0.33502 0.81069 0.21224 0.0
N308 N 0.28526 0.69948 0.16911 0.0
H309 H 0.63953 0.29355 0.48709 0.0
H310 H 0.45043 0.3898 0.55551 0.0
H311 H 0.46163 0.18105 0.50496 0.0
H312 H 0.62435 0.501 0.53005 0.0
H313 H 0.44866 0.31507 0.53263 0.0
H314 H 0.62975 0.37337 0.49656 0.0
C315 C 0.59803 0.28614 0.49239 0.0
C316 C 0.5513 0.23116 0.4953 0.0
C317 C 0.48693 0.35611 0.53174 0.0
C318 C 0.53994 0.32156 0.50727 0.0
C319 C 0.48796 0.39833 0.5449 0.0
C320 C 0.53768 0.45104 0.54462 0.0
C321 C 0.53618 0.36702 0.51845 0.0
C322 C 0.58521 0.46086 0.53051 0.0
C323 C 0.59241 0.33155 0.49798 0.0
C324 C 0.49846 0.22321 0.50238 0.0
N325 N 0.58343 0.41911 0.51815 0.0
N326 N 0.49433 0.26796 0.50868 0.0
H327 H 0.33235 0.54836 0.89715 0.0
H328 H 0.13434 0.65125 0.85619 0.0
H329 H 0.31314 0.57015 0.81752 0.0
H330 H 0.05976 0.49956 0.90818 0.0
H331 H 0.20805 0.63174 0.84416 0.0
H332 H 0.23909 0.53761 0.9053 0.0
C333 C 0.30805 0.54993 0.88142 0.0
C334 C 0.33032 0.56058 0.85665 0.0
C335 C 0.17505 0.60242 0.85798 0.0
C336 C 0.22534 0.54952 0.86585 0.0
C337 C 0.13292 0.6133 0.86476 0.0
C338 C 0.0908 0.57696 0.88317 0.0
C339 C 0.17638 0.55608 0.87037 0.0
C340 C 0.09217 0.52942 0.89436 0.0
C341 C 0.25498 0.54342 0.88608 0.0
C342 C 0.29732 0.56203 0.83688 0.0
N343 N 0.13515 0.52085 0.88814 0.0
N344 N 0.24692 0.55808 0.84192 0.0
H345 H 0.79709 0.25973 0.15838 0.0
H346 H 0.66995 0.96804 0.24553 0.0
H347 H 0.90319 0.22044 0.20558 0.0
H348 H 0.57414 0.04867 0.22457 0.0
H349 H 0.75663 0.05384 0.22743 0.0
H350 H 0.71424 0.1733 0.17734 0.0
C351 C 0.80308 0.23247 0.17242 0.0
C352 C 0.85709 0.24742 0.1805 0.0
C353 C 0.71674 0.053 0.22713 0.0
C354 C 0.76251 0.14893 0.20239 0.0
C355 C 0.66782 0.00456 0.23758 0.0
C356 C 0.61592 0.00253 0.23666 0.0
C357 C 0.71277 0.09857 0.21526 0.0
C358 C 0.61405 0.04972 0.22577 0.0
C359 C 0.75574 0.18353 0.18343 0.0
C360 C 0.86224 0.21062 0.19891 0.0
N361 N 0.66178 0.09578 0.2152 0.0
N362 N 0.81545 0.16297 0.20928 0.0
H363 H 0.94727 0.40215 0.05701 0.0
H364 H 0.13226 0.62777 0.94171 0.0
H365 H 0.12377 0.52786 0.06061 0.0
H366 H 0.95808 0.49861 0.93815 0.0
H367 H 0.13466 0.58328 0.98347 0.0
H368 H 0.95444 0.42769 0.01169 0.0
C369 C -0.0123 0.43457 0.04826 0.0
C370 C 0.0347 0.46348 0.06275 0.0
C371 C 0.09614 0.564 0.97339 0.0
C372 C 0.04313 0.49338 0.01086 0.0
C373 C 0.09506 0.58928 0.94965 0.0
C374 C 0.04497 0.56637 0.9369 0.0
C375 C 0.04649 0.51602 0.98429 0.0
C376 C -0.00267 0.51697 0.94771 0.0
C377 C -0.00821 0.44923 0.02235 0.0
C378 C 0.08614 0.5049 0.05029 0.0
N379 N -0.00098 0.49367 0.97091 0.0
N380 N 0.08879 0.5191 0.02514 0.0
H381 H 0.65546 0.01431 0.41148 0.0
H382 H 0.48814 0.9884 0.28648 0.0
H383 H 0.53989 0.07677 0.4 0.0
H384 H 0.61915 0.94625 0.29283 0.0
H385 H 0.5111 0.02647 0.32732 0.0
H386 H 0.64756 -0.00588 0.36753 0.0
C387 C 0.6288 0.02423 0.39972 0.0
C388 C 0.59787 0.0468 0.40959 0.0
C389 C 0.53539 0.0095 0.31977 0.0
C390 C 0.58852 0.02356 0.35929 0.0
C391 C 0.52218 0.98785 0.29654 0.0
C392 C 0.55166 0.96406 0.28668 0.0
C393 C 0.57805 0.00671 0.33332 0.0
C394 C 0.59574 0.96445 0.30004 0.0
C395 C 0.62438 0.01273 0.3746 0.0
C396 C 0.56424 0.059 0.39335 0.0
N397 N 0.60727 0.98484 0.32291 0.0
N398 N 0.56013 0.04679 0.36913 0.0
H399 H 0.62338 0.68061 0.73428 0.0
H400 H 0.4551 0.49523 0.62298 0.0
H401 H 0.44856 0.54652 0.74195 0.0
H402 H 0.63195 0.62166 0.61611 0.0
H403 H 0.45054 0.51754 0.66599 0.0
H404 H 0.62598 0.66456 0.6902 0.0
C405 C 0.5854 0.64808 0.72669 0.0
C406 C 0.53573 0.61471 0.74196 0.0
C407 C 0.4904 0.54059 0.65512 0.0
C408 C 0.53858 0.59596 0.69146 0.0
C409 C 0.49293 0.52765 0.6307 0.0
C410 C 0.54397 0.55651 0.61627 0.0
C411 C 0.5394 0.58278 0.66518 0.0
C412 C 0.59184 0.59875 0.62676 0.0
C413 C 0.587 0.63885 0.70151 0.0
C414 C 0.48789 0.57318 0.731 0.0
N415 N 0.58847 0.61056 0.65065 0.0
N416 N 0.4906 0.56488 0.7065 0.0
H417 H 0.6303 0.15981 0.60186 0.0
H418 H 0.42068 -0.00281 0.72329 0.0
H419 H 0.48789 0.98912 0.60492 0.0
H420 H 0.56302 0.16677 0.72092 0.0
H421 H 0.44944 -0.00951 0.68088 0.0
H422 H 0.61057 0.16121 0.64629 0.0
C423 C 0.59505 0.12258 0.61186 0.0
C424 C 0.56049 0.07445 0.59954 0.0
C425 C 0.47462 0.02916 0.68963 0.0
C426 C 0.5377 0.07574 0.6504 0.0
C427 C 0.45828 0.03273 0.71378 0.0
C428 C 0.48906 0.08287 0.72513 0.0
C429 C 0.52214 0.0762 0.67687 0.0
C430 C 0.53764 0.12793 0.71236 0.0
C431 C 0.58383 0.12338 0.63724 0.0
C432 C 0.51551 0.02736 0.61353 0.0
N433 N 0.55249 0.12377 0.68878 0.0
N434 N 0.50531 0.0293 0.63813 0.0
H435 H 0.59159 0.5509 0.93395 0.0
H436 H 0.59019 0.6686 0.06535 0.0
H437 H 0.55639 0.68551 0.94177 0.0
H438 H 0.58411 0.51079 0.05859 0.0
H439 H 0.59858 0.68759 0.01929 0.0
H440 H 0.60777 0.547 0.97872 0.0
C441 C 0.58743 0.57986 0.94502 0.0
C442 C 0.57195 0.61824 0.93403 0.0
C443 C 0.59657 0.64934 0.02787 0.0
C444 C 0.59093 0.61409 0.98549 0.0
C445 C 0.59229 0.63884 0.05406 0.0
C446 C 0.58657 0.58821 0.06555 0.0
C447 C 0.59525 0.60882 0.01317 0.0
C448 C 0.58923 0.55063 0.05034 0.0
C449 C 0.59679 0.57759 0.97063 0.0
C450 C 0.56768 0.65488 0.94943 0.0
N451 N 0.59278 0.56138 0.02489 0.0
N452 N 0.57689 0.65174 0.9744 0.0
H453 H 0.0148 0.39753 0.26653 0.0
H454 H 0.03793 0.60253 0.36875 0.0
H455 H -0.01198 0.5391 0.25073 0.0
H456 H 0.07537 0.46835 0.38284 0.0
H457 H 0.0066 0.57184 0.32707 0.0
H458 H 0.02378 0.41438 0.31074 0.0
C459 C 0.01025 0.43186 0.27236 0.0
C460 C 0.00131 0.46739 0.25476 0.0
C461 C 0.02115 0.5487 0.33932 0.0
C462 C 0.01189 0.48707 0.30547 0.0
C463 C 0.0391 0.56632 0.36298 0.0
C464 C 0.05982 0.53825 0.37885 0.0
C465 C 0.02409 0.50267 0.33154 0.0
C466 C 0.05962 0.49092 0.37098 0.0
C467 C 0.01545 0.44147 0.29765 0.0
C468 C -0.00468 0.51087 0.26354 0.0
N469 N 0.04259 0.47489 0.34773 0.0
N470 N 0.00127 0.51981 0.28824 0.0
loop_
_geom_bond_atom_site_label_1
_geom_bond_atom_site_label_2
_geom_bond_distance
_geom_bond_site_symmetry_2
_ccdc_geom_bond_type
O0 Zn1 1.953 . S
O0 C16 1.225 . S
Zn1 O0 1.953 . S
Zn1 O2 1.949 . S
Zn1 O8 1.919 1_455 S
Zn1 O13 1.924 . S
O2 Zn1 1.949 . S
O2 Zn3 1.923 1_455 S
O2 Zn4 1.950 . S
O2 Zn5 1.945 . S
Zn3 O2 1.923 1_655 S
Zn3 O6 1.933 . S
Zn3 O9 1.941 . S
Zn3 O10 1.965 . S
Zn4 O2 1.950 . S
Zn4 O11 1.938 1_455 S
Zn4 O12 1.906 . S
Zn4 O22 1.953 . S
Zn5 O2 1.945 . S
Zn5 O7 1.932 . S
Zn5 O14 1.977 . S
Zn5 O15 1.910 . S
O6 Zn3 1.933 . S
O6 C17 1.226 1_655 S
O7 Zn5 1.932 . S
O7 C17 1.307 . S
O8 Zn1 1.919 1_655 S
O8 C19 1.253 . S
O9 Zn3 1.941 . S
O9 C19 1.283 . S
O10 Zn3 1.965 . S
O10 C18 1.303 . S
O11 Zn4 1.938 1_655 S
O11 C18 1.247 . S
O12 Zn4 1.906 . S
O12 C20 1.304 . S
O13 Zn1 1.924 . S
O13 C21 1.311 . S
O14 Zn5 1.977 . S
O14 C20 1.272 . S
O15 Zn5 1.910 . S
O15 C21 1.231 . S
C16 O0 1.225 . S
C16 O22 1.298 . S
C17 O6 1.226 1_455 S
C17 O7 1.307 . S
C18 O10 1.303 . S
C18 O11 1.247 . S
C19 O8 1.253 . S
C19 O9 1.283 . S
C20 O12 1.304 . S
C20 O14 1.272 . S
C21 O13 1.311 . S
C21 O15 1.231 . S
O22 Zn4 1.953 . S
O22 C16 1.298 . S
O23 Zn24 1.953 . S
O23 C39 1.225 . S
Zn24 O23 1.953 . S
Zn24 O25 1.949 . S
Zn24 O31 1.919 . S
Zn24 O36 1.924 . S
O25 Zn24 1.949 . S
O25 Zn26 1.923 . S
O25 Zn27 1.950 . S
O25 Zn28 1.945 1_545 S
Zn26 O25 1.923 . S
Zn26 O29 1.933 . S
Zn26 O32 1.941 . S
Zn26 O33 1.965 . S
Zn27 O25 1.950 . S
Zn27 O34 1.938 . S
Zn27 O35 1.906 1_545 S
Zn27 O45 1.953 . S
Zn28 O25 1.945 1_565 S
Zn28 O30 1.932 1_565 S
Zn28 O37 1.977 . S
Zn28 O38 1.910 . S
O29 Zn26 1.933 . S
O29 C40 1.226 . S
O30 Zn28 1.932 1_545 S
O30 C40 1.307 . S
O31 Zn24 1.919 . S
O31 C42 1.253 . S
O32 Zn26 1.941 . S
O32 C42 1.283 . S
O33 Zn26 1.965 . S
O33 C41 1.303 . S
O34 Zn27 1.938 . S
O34 C41 1.247 . S
O35 Zn27 1.906 1_565 S
O35 C43 1.304 . S
O36 Zn24 1.924 . S
O36 C44 1.311 1_545 S
O37 Zn28 1.977 . S
O37 C43 1.272 . S
O38 Zn28 1.910 . S
O38 C44 1.231 . S
C39 O23 1.225 . S
C39 O45 1.298 . S
C40 O29 1.226 . S
C40 O30 1.307 . S
C41 O33 1.303 . S
C41 O34 1.247 . S
C42 O31 1.253 . S
C42 O32 1.283 . S
C43 O35 1.304 . S
C43 O37 1.272 . S
C44 O36 1.311 1_565 S
C44 O38 1.231 . S
O45 Zn27 1.953 . S
O45 C39 1.298 . S
O46 Zn47 1.953 . S
O46 C62 1.225 . S
Zn47 O46 1.953 . S
Zn47 O48 1.949 . S
Zn47 O54 1.919 . S
Zn47 O59 1.924 . S
O48 Zn47 1.949 . S
O48 Zn49 1.923 . S
O48 Zn50 1.950 . S
O48 Zn51 1.945 . S
Zn49 O48 1.923 . S
Zn49 O52 1.933 . S
Zn49 O55 1.941 . S
Zn49 O56 1.965 . S
Zn50 O48 1.950 . S
Zn50 O57 1.938 . S
Zn50 O58 1.906 . S
Zn50 O68 1.953 . S
Zn51 O48 1.945 . S
Zn51 O53 1.932 . S
Zn51 O60 1.977 . S
Zn51 O61 1.910 . S
O52 Zn49 1.933 . S
O52 C63 1.226 . S
O53 Zn51 1.932 . S
O53 C63 1.307 . S
O54 Zn47 1.919 . S
O54 C65 1.253 . S
O55 Zn49 1.941 . S
O55 C65 1.283 . S
O56 Zn49 1.965 . S
O56 C64 1.303 . S
O57 Zn50 1.938 . S
O57 C64 1.247 . S
O58 Zn50 1.906 . S
O58 C66 1.304 . S
O59 Zn47 1.924 . S
O59 C67 1.311 . S
O60 Zn51 1.977 . S
O60 C66 1.272 . S
O61 Zn51 1.910 . S
O61 C67 1.231 . S
C62 O46 1.225 . S
C62 O68 1.298 . S
C63 O52 1.226 . S
C63 O53 1.307 . S
C64 O56 1.303 . S
C64 O57 1.247 . S
C65 O54 1.253 . S
C65 O55 1.283 . S
C66 O58 1.304 . S
C66 O60 1.272 . S
C67 O59 1.311 . S
C67 O61 1.231 . S
O68 Zn50 1.953 . S
O68 C62 1.298 . S
C69 N70 1.317 . S
C69 N71 1.348 1_545 S
C69 C72 1.485 . S
N70 C69 1.317 . S
N70 N74 1.370 . S
N71 C69 1.348 1_565 S
N71 C73 1.346 . S
C72 C69 1.485 . S
C72 H76 0.960 . S
C72 H77 0.961 . S
C72 H78 0.960 . S
C73 N71 1.346 . S
C73 N74 1.307 1_565 S
C73 C75 1.486 . S
N74 N70 1.370 . S
N74 C73 1.307 1_545 S
C75 C73 1.486 . S
C75 H79 0.960 . S
C75 H80 0.960 . S
C75 H81 0.959 . S
H76 C72 0.960 . S
H77 C72 0.961 . S
H78 C72 0.960 . S
H79 C75 0.960 . S
H80 C75 0.960 . S
H81 C75 0.959 . S
C82 N83 1.317 . S
C82 N84 1.348 . S
C82 C85 1.485 . S
N83 C82 1.317 . S
N83 N87 1.370 . S
N84 C82 1.348 . S
N84 C86 1.346 . S
C85 C82 1.485 . S
C85 H89 0.960 . S
C85 H90 0.961 . S
C85 H91 0.960 . S
C86 N84 1.346 . S
C86 N87 1.307 . S
C86 C88 1.486 . S
N87 N83 1.370 . S
N87 C86 1.307 . S
C88 C86 1.486 . S
C88 H92 0.960 . S
C88 H93 0.960 . S
C88 H94 0.959 . S
H89 C85 0.960 . S
H90 C85 0.961 . S
H91 C85 0.960 . S
H92 C88 0.960 . S
H93 C88 0.960 . S
H94 C88 0.959 . S
C95 N96 1.317 . S
C95 N97 1.348 . S
C95 C98 1.485 . S
N96 C95 1.317 . S
N96 N100 1.370 . S
N97 C95 1.348 . S
N97 C99 1.346 . S
C98 C95 1.485 . S
C98 H102 0.960 . S
C98 H103 0.961 . S
C98 H104 0.960 . S
C99 N97 1.346 . S
C99 N100 1.307 . S
C99 C101 1.486 1_455 S
N100 N96 1.370 . S
N100 C99 1.307 . S
C101 C99 1.486 1_655 S
C101 H105 0.960 . S
C101 H106 0.960 . S
C101 H107 0.959 . S
H102 C98 0.960 . S
H103 C98 0.961 . S
H104 C98 0.960 . S
H105 C101 0.960 . S
H106 C101 0.960 . S
H107 C101 0.959 . S
C108 N109 1.317 . S
C108 N110 1.348 . S
C108 C111 1.485 . S
N109 C108 1.317 . S
N109 N113 1.370 . S
N110 C108 1.348 . S
N110 C112 1.346 . S
C111 C108 1.485 . S
C111 H115 0.960 . S
C111 H116 0.961 . S
C111 H117 0.960 . S
C112 N110 1.346 . S
C112 N113 1.307 . S
C112 C114 1.486 . S
N113 N109 1.370 . S
N113 C112 1.307 . S
C114 C112 1.486 . S
C114 H118 0.960 . S
C114 H119 0.960 . S
C114 H120 0.959 . S
H115 C111 0.960 . S
H116 C111 0.961 . S
H117 C111 0.960 . S
H118 C114 0.960 . S
H119 C114 0.960 . S
H120 C114 0.959 . S
C121 N122 1.317 . S
C121 N123 1.348 . S
C121 C124 1.485 . S
N122 C121 1.317 . S
N122 N126 1.370 . S
N123 C121 1.348 . S
N123 C125 1.346 . S
C124 C121 1.485 . S
C124 H128 0.960 . S
C124 H129 0.961 . S
C124 H130 0.960 . S
C125 N123 1.346 . S
C125 N126 1.307 . S
C125 C127 1.486 . S
N126 N122 1.370 . S
N126 C125 1.307 . S
C127 C125 1.486 . S
C127 H131 0.960 . S
C127 H132 0.960 . S
C127 H133 0.959 . S
H128 C124 0.960 . S
H129 C124 0.961 . S
H130 C124 0.960 . S
H131 C127 0.960 . S
H132 C127 0.960 . S
H133 C127 0.959 . S
C134 N135 1.317 . S
C134 N136 1.348 . S
C134 C137 1.485 . S
N135 C134 1.317 . S
N135 N139 1.370 . S
N136 C134 1.348 . S
N136 C138 1.346 . S
C137 C134 1.485 . S
C137 H141 0.960 . S
C137 H142 0.961 . S
C137 H143 0.960 . S
C138 N136 1.346 . S
C138 N139 1.307 . S
C138 C140 1.486 . S
N139 N135 1.370 . S
N139 C138 1.307 . S
C140 C138 1.486 . S
C140 H144 0.960 . S
C140 H145 0.960 . S
C140 H146 0.959 . S
H141 C137 0.960 . S
H142 C137 0.961 . S
H143 C137 0.960 . S
H144 C140 0.960 . S
H145 C140 0.960 . S
H146 C140 0.959 . S
H147 C153 0.930 . S
H148 C157 0.930 . S
H149 C162 0.929 . S
H150 C160 0.929 . S
H151 C155 0.929 . S
H152 C161 0.929 . S
C153 H147 0.930 . S
C153 C154 1.367 . S
C153 C161 1.378 . S
C154 C153 1.367 . S
C154 C162 1.433 . S
C155 H151 0.929 . S
C155 C157 1.378 . S
C155 C159 1.350 . S
C156 C159 1.463 . S
C156 C161 1.350 . S
C156 N164 1.427 . S
C157 H148 0.930 . S
C157 C155 1.378 . S
C157 C158 1.367 . S
C158 C157 1.367 . S
C158 C160 1.433 . S
C159 C155 1.350 . S
C159 C156 1.463 . S
C159 N163 1.427 . S
C160 H150 0.929 . S
C160 C158 1.433 . S
C160 N163 1.384 . S
C161 H152 0.929 . S
C161 C153 1.378 . S
C161 C156 1.350 . S
C162 H149 0.929 . S
C162 C154 1.433 . S
C162 N164 1.384 . S
N163 C159 1.427 . S
N163 C160 1.384 . S
N164 C156 1.427 . S
N164 C162 1.384 . S
H165 C171 0.930 . S
H166 C175 0.930 1_455 S
H167 C180 0.929 . S
H168 C178 0.929 . S
H169 C173 0.929 . S
H170 C179 0.929 . S
C171 H165 0.930 . S
C171 C172 1.367 . S
C171 C179 1.378 . S
C172 C171 1.367 . S
C172 C180 1.433 . S
C173 H169 0.929 . S
C173 C175 1.378 . S
C173 C177 1.350 . S
C174 C177 1.463 . S
C174 C179 1.350 . S
C174 N182 1.427 . S
C175 H166 0.930 1_655 S
C175 C173 1.378 . S
C175 C176 1.367 . S
C176 C175 1.367 . S
C176 C178 1.433 . S
C177 C173 1.350 . S
C177 C174 1.463 . S
C177 N181 1.427 . S
C178 H168 0.929 . S
C178 C176 1.433 . S
C178 N181 1.384 . S
C179 H170 0.929 . S
C179 C171 1.378 . S
C179 C174 1.350 . S
C180 H167 0.929 . S
C180 C172 1.433 . S
C180 N182 1.384 . S
N181 C177 1.427 . S
N181 C178 1.384 . S
N182 C174 1.427 . S
N182 C180 1.384 . S
H183 C189 0.930 . S
H184 C193 0.930 . S
H185 C198 0.929 . S
H186 C196 0.929 . S
H187 C191 0.929 . S
H188 C197 0.929 . S
C189 H183 0.930 . S
C189 C190 1.367 . S
C189 C197 1.378 . S
C190 C189 1.367 . S
C190 C198 1.433 . S
C191 H187 0.929 . S
C191 C193 1.378 1_565 S
C191 C195 1.350 . S
C192 C195 1.463 . S
C192 C197 1.350 . S
C192 N200 1.427 . S
C193 H184 0.930 . S
C193 C191 1.378 1_545 S
C193 C194 1.367 . S
C194 C193 1.367 . S
C194 C196 1.433 1_545 S
C195 C191 1.350 . S
C195 C192 1.463 . S
C195 N199 1.427 . S
C196 H186 0.929 . S
C196 C194 1.433 1_565 S
C196 N199 1.384 . S
C197 H188 0.929 . S
C197 C189 1.378 . S
C197 C192 1.350 . S
C198 H185 0.929 . S
C198 C190 1.433 . S
C198 N200 1.384 . S
N199 C195 1.427 . S
N199 C196 1.384 . S
N200 C192 1.427 . S
N200 C198 1.384 . S
H201 C207 0.930 . S
H202 C211 0.930 . S
H203 C216 0.929 . S
H204 C214 0.929 . S
H205 C209 0.929 . S
H206 C215 0.929 . S
C207 H201 0.930 . S
C207 C208 1.367 . S
C207 C215 1.378 . S
C208 C207 1.367 . S
C208 C216 1.433 . S
C209 H205 0.929 . S
C209 C211 1.378 . S
C209 C213 1.350 . S
C210 C213 1.463 . S
C210 C215 1.350 . S
C210 N218 1.427 . S
C211 H202 0.930 . S
C211 C209 1.378 . S
C211 C212 1.367 . S
C212 C211 1.367 . S
C212 C214 1.433 . S
C213 C209 1.350 . S
C213 C210 1.463 . S
C213 N217 1.427 . S
C214 H204 0.929 . S
C214 C212 1.433 . S
C214 N217 1.384 . S
C215 H206 0.929 . S
C215 C207 1.378 . S
C215 C210 1.350 . S
C216 H203 0.929 . S
C216 C208 1.433 . S
C216 N218 1.384 . S
N217 C213 1.427 . S
N217 C214 1.384 . S
N218 C210 1.427 . S
N218 C216 1.384 . S
H219 C225 0.930 . S
H220 C229 0.930 . S
H221 C234 0.929 . S
H222 C232 0.929 . S
H223 C227 0.929 . S
H224 C233 0.929 . S
C225 H219 0.930 . S
C225 C226 1.367 . S
C225 C233 1.378 . S
C226 C225 1.367 . S
C226 C234 1.433 . S
C227 H223 0.929 . S
C227 C229 1.378 . S
C227 C231 1.350 . S
C228 C231 1.463 . S
C228 C233 1.350 . S
C228 N236 1.427 . S
C229 H220 0.930 . S
C229 C227 1.378 . S
C229 C230 1.367 . S
C230 C229 1.367 . S
C230 C232 1.433 . S
C231 C227 1.350 . S
C231 C228 1.463 . S
C231 N235 1.427 . S
C232 H222 0.929 . S
C232 C230 1.433 . S
C232 N235 1.384 . S
C233 H224 0.929 . S
C233 C225 1.378 . S
C233 C228 1.350 . S
C234 H221 0.929 . S
C234 C226 1.433 . S
C234 N236 1.384 . S
N235 C231 1.427 . S
N235 C232 1.384 . S
N236 C228 1.427 . S
N236 C234 1.384 . S
H237 C243 0.930 . S
H238 C247 0.930 . S
H239 C252 0.929 . S
H240 C250 0.929 . S
H241 C245 0.929 . S
H242 C251 0.929 . S
C243 H237 0.930 . S
C243 C244 1.367 . S
C243 C251 1.378 . S
C244 C243 1.367 . S
C244 C252 1.433 . S
C245 H241 0.929 . S
C245 C247 1.378 . S
C245 C249 1.350 . S
C246 C249 1.463 . S
C246 C251 1.350 . S
C246 N254 1.427 . S
C247 H238 0.930 . S
C247 C245 1.378 . S
C247 C248 1.367 . S
C248 C247 1.367 . S
C248 C250 1.433 . S
C249 C245 1.350 . S
C249 C246 1.463 . S
C249 N253 1.427 . S
C250 H240 0.929 . S
C250 C248 1.433 . S
C250 N253 1.384 . S
C251 H242 0.929 . S
C251 C243 1.378 . S
C251 C246 1.350 . S
C252 H239 0.929 . S
C252 C244 1.433 . S
C252 N254 1.384 . S
N253 C249 1.427 . S
N253 C250 1.384 . S
N254 C246 1.427 . S
N254 C252 1.384 . S
H255 C261 0.930 . S
H256 C265 0.930 . S
H257 C270 0.929 . S
H258 C268 0.929 . S
H259 C263 0.929 . S
H260 C269 0.929 . S
C261 H255 0.930 . S
C261 C262 1.367 . S
C261 C269 1.378 . S
C262 C261 1.367 . S
C262 C270 1.433 . S
C263 H259 0.929 . S
C263 C265 1.378 . S
C263 C267 1.350 . S
C264 C267 1.463 . S
C264 C269 1.350 . S
C264 N272 1.427 . S
C265 H256 0.930 . S
C265 C263 1.378 . S
C265 C266 1.367 . S
C266 C265 1.367 . S
C266 C268 1.433 . S
C267 C263 1.350 . S
C267 C264 1.463 . S
C267 N271 1.427 . S
C268 H258 0.929 . S
C268 C266 1.433 . S
C268 N271 1.384 . S
C269 H260 0.929 . S
C269 C261 1.378 . S
C269 C264 1.350 . S
C270 H257 0.929 . S
C270 C262 1.433 . S
C270 N272 1.384 . S
N271 C267 1.427 . S
N271 C268 1.384 . S
N272 C264 1.427 . S
N272 C270 1.384 . S
H273 C279 0.930 . S
H274 C283 0.930 . S
H275 C288 0.929 . S
H276 C286 0.929 . S
H277 C281 0.929 . S
H278 C287 0.929 . S
C279 H273 0.930 . S
C279 C280 1.367 . S
C279 C287 1.378 . S
C280 C279 1.367 . S
C280 C288 1.433 . S
C281 H277 0.929 . S
C281 C283 1.378 . S
C281 C285 1.350 . S
C282 C285 1.463 . S
C282 C287 1.350 . S
C282 N290 1.427 . S
C283 H274 0.930 . S
C283 C281 1.378 . S
C283 C284 1.367 . S
C284 C283 1.367 . S
C284 C286 1.433 . S
C285 C281 1.350 . S
C285 C282 1.463 . S
C285 N289 1.427 . S
C286 H276 0.929 . S
C286 C284 1.433 . S
C286 N289 1.384 . S
C287 H278 0.929 . S
C287 C279 1.378 . S
C287 C282 1.350 . S
C288 H275 0.929 . S
C288 C280 1.433 . S
C288 N290 1.384 . S
N289 C285 1.427 . S
N289 C286 1.384 . S
N290 C282 1.427 . S
N290 C288 1.384 . S
H291 C297 0.930 . S
H292 C301 0.930 . S
H293 C306 0.929 . S
H294 C304 0.929 . S
H295 C299 0.929 . S
H296 C305 0.929 . S
C297 H291 0.930 . S
C297 C298 1.367 . S
C297 C305 1.378 . S
C298 C297 1.367 . S
C298 C306 1.433 . S
C299 H295 0.929 . S
C299 C301 1.378 . S
C299 C303 1.350 . S
C300 C303 1.463 . S
C300 C305 1.350 . S
C300 N308 1.427 . S
C301 H292 0.930 . S
C301 C299 1.378 . S
C301 C302 1.367 . S
C302 C301 1.367 . S
C302 C304 1.433 . S
C303 C299 1.350 . S
C303 C300 1.463 . S
C303 N307 1.427 . S
C304 H294 0.929 . S
C304 C302 1.433 . S
C304 N307 1.384 . S
C305 H296 0.929 . S
C305 C297 1.378 . S
C305 C300 1.350 . S
C306 H293 0.929 . S
C306 C298 1.433 . S
C306 N308 1.384 . S
N307 C303 1.427 . S
N307 C304 1.384 . S
N308 C300 1.427 . S
N308 C306 1.384 . S
H309 C315 0.930 . S
H310 C319 0.930 . S
H311 C324 0.929 . S
H312 C322 0.929 . S
H313 C317 0.929 . S
H314 C323 0.929 . S
C315 H309 0.930 . S
C315 C316 1.367 . S
C315 C323 1.378 . S
C316 C315 1.367 . S
C316 C324 1.433 . S
C317 H313 0.929 . S
C317 C319 1.378 . S
C317 C321 1.350 . S
C318 C321 1.463 . S
C318 C323 1.350 . S
C318 N326 1.427 . S
C319 H310 0.930 . S
C319 C317 1.378 . S
C319 C320 1.367 . S
C320 C319 1.367 . S
C320 C322 1.433 . S
C321 C317 1.350 . S
C321 C318 1.463 . S
C321 N325 1.427 . S
C322 H312 0.929 . S
C322 C320 1.433 . S
C322 N325 1.384 . S
C323 H314 0.929 . S
C323 C315 1.378 . S
C323 C318 1.350 . S
C324 H311 0.929 . S
C324 C316 1.433 . S
C324 N326 1.384 . S
N325 C321 1.427 . S
N325 C322 1.384 . S
N326 C318 1.427 . S
N326 C324 1.384 . S
H327 C333 0.930 . S
H328 C337 0.930 . S
H329 C342 0.929 . S
H330 C340 0.929 . S
H331 C335 0.929 . S
H332 C341 0.929 . S
C333 H327 0.930 . S
C333 C334 1.367 . S
C333 C341 1.378 . S
C334 C333 1.367 . S
C334 C342 1.433 . S
C335 H331 0.929 . S
C335 C337 1.378 . S
C335 C339 1.350 . S
C336 C339 1.463 . S
C336 C341 1.350 . S
C336 N344 1.427 . S
C337 H328 0.930 . S
C337 C335 1.378 . S
C337 C338 1.367 . S
C338 C337 1.367 . S
C338 C340 1.433 . S
C339 C335 1.350 . S
C339 C336 1.463 . S
C339 N343 1.427 . S
C340 H330 0.929 . S
C340 C338 1.433 . S
C340 N343 1.384 . S
C341 H332 0.929 . S
C341 C333 1.378 . S
C341 C336 1.350 . S
C342 H329 0.929 . S
C342 C334 1.433 . S
C342 N344 1.384 . S
N343 C339 1.427 . S
N343 C340 1.384 . S
N344 C336 1.427 . S
N344 C342 1.384 . S
H345 C351 0.930 . S
H346 C355 0.930 . S
H347 C360 0.929 . S
H348 C358 0.929 . S
H349 C353 0.929 . S
H350 C359 0.929 . S
C351 H345 0.930 . S
C351 C352 1.367 . S
C351 C359 1.378 . S
C352 C351 1.367 . S
C352 C360 1.433 . S
C353 H349 0.929 . S
C353 C355 1.378 . S
C353 C357 1.350 . S
C354 C357 1.463 . S
C354 C359 1.350 . S
C354 N362 1.427 . S
C355 H346 0.930 . S
C355 C353 1.378 . S
C355 C356 1.367 . S
C356 C355 1.367 . S
C356 C358 1.433 . S
C357 C353 1.350 . S
C357 C354 1.463 . S
C357 N361 1.427 . S
C358 H348 0.929 . S
C358 C356 1.433 . S
C358 N361 1.384 . S
C359 H350 0.929 . S
C359 C351 1.378 . S
C359 C354 1.350 . S
C360 H347 0.929 . S
C360 C352 1.433 . S
C360 N362 1.384 . S
N361 C357 1.427 . S
N361 C358 1.384 . S
N362 C354 1.427 . S
N362 C360 1.384 . S
H363 C369 0.930 . S
H364 C373 0.930 . S
H365 C378 0.929 . S
H366 C376 0.929 1_655 S
H367 C371 0.929 . S
H368 C377 0.929 . S
C369 H363 0.930 . S
C369 C370 1.367 1_655 S
C369 C377 1.378 . S
C370 C369 1.367 1_455 S
C370 C378 1.433 . S
C371 H367 0.929 . S
C371 C373 1.378 . S
C371 C375 1.350 . S
C372 C375 1.463 1_554 S
C372 C377 1.350 1_455 S
C372 N380 1.427 . S
C373 H364 0.930 . S
C373 C371 1.378 . S
C373 C374 1.367 . S
C374 C373 1.367 . S
C374 C376 1.433 . S
C375 C371 1.350 . S
C375 C372 1.463 1_556 S
C375 N379 1.430 . S
C376 H366 0.929 1_455 S
C376 C374 1.433 . S
C376 N379 1.384 . S
C377 H368 0.929 . S
C377 C369 1.378 . S
C377 C372 1.350 1_655 S
C378 H365 0.929 . S
C378 C370 1.433 . S
C378 N380 1.384 . S
N379 C375 1.430 . S
N379 C376 1.384 . S
N380 C372 1.427 . S
N380 C378 1.384 . S
H381 C387 0.930 . S
H382 C391 0.930 . S
H383 C396 0.929 . S
H384 C394 0.929 . S
H385 C389 0.929 . S
H386 C395 0.929 . S
C387 H381 0.930 . S
C387 C388 1.367 . S
C387 C395 1.378 . S
C388 C387 1.367 . S
C388 C396 1.433 . S
C389 H385 0.929 . S
C389 C391 1.378 . S
C389 C393 1.350 . S
C390 C393 1.463 . S
C390 C395 1.350 . S
C390 N398 1.427 . S
C391 H382 0.930 . S
C391 C389 1.378 . S
C391 C392 1.367 . S
C392 C391 1.367 . S
C392 C394 1.433 . S
C393 C389 1.350 . S
C393 C390 1.463 . S
C393 N397 1.427 . S
C394 H384 0.929 . S
C394 C392 1.433 . S
C394 N397 1.384 . S
C395 H386 0.929 . S
C395 C387 1.378 . S
C395 C390 1.350 . S
C396 H383 0.929 . S
C396 C388 1.433 . S
C396 N398 1.384 . S
N397 C393 1.427 . S
N397 C394 1.384 . S
N398 C390 1.427 . S
N398 C396 1.384 . S
H399 C405 0.930 . S
H400 C409 0.930 . S
H401 C414 0.929 . S
H402 C412 0.929 . S
H403 C407 0.929 . S
H404 C413 0.929 . S
C405 H399 0.930 . S
C405 C406 1.367 . S
C405 C413 1.378 . S
C406 C405 1.367 . S
C406 C414 1.433 . S
C407 H403 0.929 . S
C407 C409 1.378 . S
C407 C411 1.350 . S
C408 C411 1.463 . S
C408 C413 1.350 . S
C408 N416 1.427 . S
C409 H400 0.930 . S
C409 C407 1.378 . S
C409 C410 1.367 . S
C410 C409 1.367 . S
C410 C412 1.433 . S
C411 C407 1.350 . S
C411 C408 1.463 . S
C411 N415 1.427 . S
C412 H402 0.929 . S
C412 C410 1.433 . S
C412 N415 1.384 . S
C413 H404 0.929 . S
C413 C405 1.378 . S
C413 C408 1.350 . S
C414 H401 0.929 . S
C414 C406 1.433 . S
C414 N416 1.384 . S
N415 C411 1.427 . S
N415 C412 1.384 . S
N416 C408 1.427 . S
N416 C414 1.384 . S
H417 C423 0.930 1_565 S
H418 C427 0.930 . S
H419 C432 0.929 . S
H420 C430 0.929 . S
H421 C425 0.929 . S
H422 C431 0.929 1_565 S
C423 H417 0.930 1_545 S
C423 C424 1.367 . S
C423 C431 1.378 . S
C424 C423 1.367 . S
C424 C432 1.433 . S
C425 H421 0.929 . S
C425 C427 1.378 . S
C425 C429 1.350 . S
C426 C429 1.463 . S
C426 C431 1.350 . S
C426 N434 1.427 . S
C427 H418 0.930 . S
C427 C425 1.378 . S
C427 C428 1.367 . S
C428 C427 1.367 . S
C428 C430 1.433 . S
C429 C425 1.350 . S
C429 C426 1.463 . S
C429 N433 1.427 . S
C430 H420 0.929 . S
C430 C428 1.433 . S
C430 N433 1.384 . S
C431 H422 0.929 1_545 S
C431 C423 1.378 . S
C431 C426 1.350 . S
C432 H419 0.929 . S
C432 C424 1.433 . S
C432 N434 1.384 . S
N433 C429 1.427 . S
N433 C430 1.384 . S
N434 C426 1.427 . S
N434 C432 1.384 . S
H435 C441 0.930 . S
H436 C445 0.930 . S
H437 C450 0.929 . S
H438 C448 0.929 . S
H439 C443 0.929 . S
H440 C449 0.929 . S
C441 H435 0.930 . S
C441 C442 1.367 . S
C441 C449 1.378 . S
C442 C441 1.367 . S
C442 C450 1.433 . S
C443 H439 0.929 . S
C443 C445 1.378 . S
C443 C447 1.350 . S
C444 C447 1.463 1_556 S
C444 C449 1.350 . S
C444 N452 1.427 . S
C445 H436 0.930 . S
C445 C443 1.378 . S
C445 C446 1.367 . S
C446 C445 1.367 . S
C446 C448 1.433 . S
C447 C443 1.350 . S
C447 C444 1.463 1_554 S
C447 N451 1.427 . S
C448 H438 0.929 . S
C448 C446 1.433 . S
C448 N451 1.384 . S
C449 H440 0.929 . S
C449 C441 1.378 . S
C449 C444 1.350 . S
C450 H437 0.929 . S
C450 C442 1.433 . S
C450 N452 1.384 . S
N451 C447 1.427 . S
N451 C448 1.384 . S
N452 C444 1.427 . S
N452 C450 1.384 . S
H453 C459 0.930 . S
H454 C463 0.930 . S
H455 C468 0.929 1_655 S
H456 C466 0.929 . S
H457 C461 0.929 . S
H458 C467 0.929 . S
C459 H453 0.930 . S
C459 C460 1.367 . S
C459 C467 1.378 . S
C460 C459 1.367 . S
C460 C468 1.433 . S
C461 H457 0.929 . S
C461 C463 1.378 . S
C461 C465 1.350 . S
C462 C465 1.463 . S
C462 C467 1.350 . S
C462 N470 1.427 . S
C463 H454 0.930 . S
C463 C461 1.378 . S
C463 C464 1.367 . S
C464 C463 1.367 . S
C464 C466 1.433 . S
C465 C461 1.350 . S
C465 C462 1.463 . S
C465 N469 1.427 . S
C466 H456 0.929 . S
C466 C464 1.433 . S
C466 N469 1.384 . S
C467 H458 0.929 . S
C467 C459 1.378 . S
C467 C462 1.350 . S
C468 H455 0.929 1_455 S
C468 C460 1.433 . S
C468 N470 1.384 . S
N469 C465 1.427 . S
N469 C466 1.384 . S
N470 C462 1.427 . S
N470 C468 1.384 . S
C154 C20 0.991 . S
C158 N136 1.027 . S
C172 C41 1.322 . S
C176 N109 1.307 1_655 S
C190 C64 1.319 . S
C194 N122 1.303 . S
C208 C19 1.554 . S
C212 N135 1.590 . S
C230 N110 1.337 . S
C226 C44 1.337 . S
C248 N123 1.331 . S
C244 C67 1.332 . S
C262 C43 1.222 . S
C266 N83 1.275 . S
C280 C66 0.997 . S
C284 N97 1.028 1_655 S
C298 C21 1.338 . S
C302 N71 1.339 . S
C320 N84 1.339 . S
C316 C42 1.312 . S
C338 N96 1.587 . S
C334 C65 1.562 . S
C352 C18 1.296 . S
C356 N70 1.282 . S
C374 N100 1.503 . S
C370 C17 1.536 . S
C388 C39 1.548 . S
C392 N74 1.540 . S
C406 C62 1.541 . S
C410 N87 1.542 . S
C428 N126 1.523 . S
C424 C40 1.540 . S
C446 N139 1.495 . S
C442 C63 1.534 . S
C460 C16 1.532 . S
C464 N113 1.527 . S
