# Generated by pormake.
# Topology zzz, (3,6)-cn, num edge types: 1
# Building blocks:
#     Node 0, Type 0, BuildingBlock: BETDAH_clean_linker_0, # of connection points: 3
#     Node 1, Type 0, BuildingBlock: BETDAH_clean_linker_0, # of connection points: 3
#     Node 2, Type 0, BuildingBlock: BETDAH_clean_linker_0, # of connection points: 3
#     Node 3, Type 0, BuildingBlock: BETDAH_clean_linker_0, # of connection points: 3
#     Node 4, Type 0, BuildingBlock: BETDAH_clean_linker_0, # of connection points: 3
#     Node 5, Type 0, BuildingBlock: BETDAH_clean_linker_0, # of connection points: 3
#     Node 6, Type 0, BuildingBlock: BETDAH_clean_linker_0, # of connection points: 3
#     Node 7, Type 0, BuildingBlock: BETDAH_clean_linker_0, # of connection points: 3
#     Node 8, Type 1, BuildingBlock: GEDQOX_clean_sbu_0, # of connection points: 6
#     Node 9, Type 1, BuildingBlock: GEDQOX_clean_sbu_0, # of connection points: 6
#     Node 10, Type 1, BuildingBlock: GEDQOX_clean_sbu_0, # of connection points: 6
#     Node 11, Type 1, BuildingBlock: GEDQOX_clean_sbu_0, # of connection points: 6
#     Edge 12, Type (0, 1), BuildingBlock: ZUJKAS_clean_linker_0, # of connection points: 2
#     Edge 13, Type (0, 1), BuildingBlock: ZUJKAS_clean_linker_0, # of connection points: 2
#     Edge 14, Type (0, 1), BuildingBlock: ZUJKAS_clean_linker_0, # of connection points: 2
#     Edge 15, Type (0, 1), BuildingBlock: ZUJKAS_clean_linker_0, # of connection points: 2
#     Edge 16, Type (0, 1), BuildingBlock: ZUJKAS_clean_linker_0, # of connection points: 2
#     Edge 17, Type (0, 1), BuildingBlock: ZUJKAS_clean_linker_0, # of connection points: 2
#     Edge 18, Type (0, 1), BuildingBlock: ZUJKAS_clean_linker_0, # of connection points: 2
#     Edge 19, Type (0, 1), BuildingBlock: ZUJKAS_clean_linker_0, # of connection points: 2
#     Edge 20, Type (0, 1), BuildingBlock: ZUJKAS_clean_linker_0, # of connection points: 2
#     Edge 21, Type (0, 1), BuildingBlock: ZUJKAS_clean_linker_0, # of connection points: 2
#     Edge 22, Type (0, 1), BuildingBlock: ZUJKAS_clean_linker_0, # of connection points: 2
#     Edge 23, Type (0, 1), BuildingBlock: ZUJKAS_clean_linker_0, # of connection points: 2
#     Edge 24, Type (0, 1), BuildingBlock: ZUJKAS_clean_linker_0, # of connection points: 2
#     Edge 25, Type (0, 1), BuildingBlock: ZUJKAS_clean_linker_0, # of connection points: 2
#     Edge 26, Type (0, 1), BuildingBlock: ZUJKAS_clean_linker_0, # of connection points: 2
#     Edge 27, Type (0, 1), BuildingBlock: ZUJKAS_clean_linker_0, # of connection points: 2
#     Edge 28, Type (0, 1), BuildingBlock: ZUJKAS_clean_linker_0, # of connection points: 2
#     Edge 29, Type (0, 1), BuildingBlock: ZUJKAS_clean_linker_0, # of connection points: 2
#     Edge 30, Type (0, 1), BuildingBlock: ZUJKAS_clean_linker_0, # of connection points: 2
#     Edge 31, Type (0, 1), BuildingBlock: ZUJKAS_clean_linker_0, # of connection points: 2
#     Edge 32, Type (0, 1), BuildingBlock: ZUJKAS_clean_linker_0, # of connection points: 2
#     Edge 33, Type (0, 1), BuildingBlock: ZUJKAS_clean_linker_0, # of connection points: 2
#     Edge 34, Type (0, 1), BuildingBlock: ZUJKAS_clean_linker_0, # of connection points: 2
#     Edge 35, Type (0, 1), BuildingBlock: ZUJKAS_clean_linker_0, # of connection points: 2
# Relax obj value: 0.124
# Max RMSD: 0.173
# Mean RMSD: 0.093
data_MOF--net-zzz--node1-GEDQOX_clean_sbu_0--node2-BETDAH_clean_linker_0--edge1-ZUJKAS_clean_linker_0
_symmetry_space_group_name_H-M    P1
_symmetry_Int_Tables_number       1
_symmetry_cell_setting            triclinic
loop_
_symmetry_equiv_pos_as_xyz
'x, y, z'
_cell_length_a     69.748093
_cell_length_b     69.525737
_cell_length_c     21.388316
_cell_angle_alpha  81.232258
_cell_angle_beta   88.979632
_cell_angle_gamma 98.103408
loop_
_atom_site_label
_atom_site_type_symbol
_atom_site_fract_x
_atom_site_fract_y
_atom_site_fract_z
_atom_type_partial_charge
H0 H 0.82136 0.549 0.12828 0.0
H1 H 0.76598 0.54788 0.04337 0.0
H2 H 0.77751 0.57759 0.2046 0.0
C3 C 0.80693 0.55316 0.12727 0.0
C4 C 0.80109 0.5641 0.17215 0.0
C5 C 0.79445 0.5474 0.08084 0.0
C6 C 0.77557 0.55224 0.07964 0.0
C7 C 0.76941 0.56307 0.125 0.0
C8 C 0.78226 0.56902 0.17054 0.0
N9 N 0.75066 0.56874 0.1258 0.0
C10 C 0.73485 0.56063 0.095 0.0
H11 H 0.01392 0.81012 0.22555 0.0
H12 H 0.01242 0.75785 0.14021 0.0
H13 H 0.01043 0.75398 0.34413 0.0
C14 C 0.0133 0.79425 0.23071 0.0
C15 C 0.01243 0.78327 0.29128 0.0
C16 C 0.01312 0.78528 0.17643 0.0
C17 C 0.01239 0.76475 0.18231 0.0
C18 C 0.0114 0.7533 0.24322 0.0
C19 C 0.01121 0.7627 0.29737 0.0
N20 N 0.01063 0.73244 0.25261 0.0
C21 C 0.01027 0.72035 0.20592 0.0
H22 H 0.70133 0.98982 0.1743 0.0
H23 H 0.74934 0.98344 0.05382 0.0
H24 H 0.74218 0.95183 0.24428 0.0
C25 C 0.71473 0.98401 0.16764 0.0
C26 C 0.72084 0.97083 0.21683 0.0
C27 C 0.72475 0.98855 0.10854 0.0
C28 C 0.74163 0.9802 0.09947 0.0
C29 C 0.74806 0.96709 0.14894 0.0
C30 C 0.73739 0.9622 0.2068 0.0
N31 N 0.7647 0.95791 0.14158 0.0
C32 C 0.78006 0.96547 0.09849 0.0
H33 H 0.46983 0.71905 0.38817 0.0
H34 H 0.47188 0.77918 0.30018 0.0
H35 H 0.49034 0.7657 0.49123 0.0
C36 C 0.47253 0.73464 0.39097 0.0
C37 C 0.48003 0.74068 0.44623 0.0
C38 C 0.46954 0.74836 0.33806 0.0
C39 C 0.47411 0.76854 0.34094 0.0
C40 C 0.48148 0.77482 0.39668 0.0
C41 C 0.4845 0.76083 0.44873 0.0
N42 N 0.48619 0.79501 0.40222 0.0
C43 C 0.48482 0.81048 0.35386 0.0
H44 H 0.19828 0.48157 0.60179 0.0
H45 H 0.25598 0.50076 0.65655 0.0
H46 H 0.24721 0.47617 0.48432 0.0
C47 C 0.21384 0.48284 0.59371 0.0
C48 C 0.22117 0.47743 0.5386 0.0
C49 C 0.22622 0.49131 0.6362 0.0
C50 C 0.24639 0.49391 0.6244 0.0
C51 C 0.25396 0.48808 0.56977 0.0
C52 C 0.24129 0.4802 0.52689 0.0
N53 N 0.27412 0.49064 0.55445 0.0
C54 C 0.28875 0.49303 0.59704 0.0
H55 H 0.01781 0.22783 0.50379 0.0
H56 H 0.00679 0.27826 0.58509 0.0
H57 H 0.01814 0.28318 0.38335 0.0
C58 C 0.01662 0.2434 0.49806 0.0
C59 C 0.0188 0.25445 0.43749 0.0
C60 C 0.01229 0.25175 0.55123 0.0
C61 C 0.01018 0.2718 0.544 0.0
C62 C 0.01254 0.28335 0.48318 0.0
C63 C 0.0165 0.27443 0.43011 0.0
N64 N 0.01101 0.30382 0.47287 0.0
C65 C 0.00926 0.31575 0.51911 0.0
H66 H 0.31665 0.04954 0.54346 0.0
H67 H 0.27174 0.06233 0.66425 0.0
H68 H 0.28019 0.0921 0.47173 0.0
C69 C 0.30425 0.05701 0.54962 0.0
C70 C 0.29929 0.07073 0.49981 0.0
C71 C 0.29458 0.05403 0.60906 0.0
C72 C 0.27904 0.0643 0.6181 0.0
C73 C 0.27361 0.0778 0.56788 0.0
C74 C 0.28409 0.0813 0.50962 0.0
N75 N 0.25841 0.0889 0.57545 0.0
C76 C 0.24136 0.08142 0.61082 0.0
H77 H 0.52179 0.31573 0.3627 0.0
H78 H 0.54048 0.26025 0.42954 0.0
H79 H 0.52417 0.27364 0.23604 0.0
C80 C 0.52425 0.30125 0.35438 0.0
C81 C 0.52179 0.29615 0.29384 0.0
C82 C 0.53104 0.28845 0.40333 0.0
C83 C 0.53505 0.27004 0.39189 0.0
C84 C 0.53226 0.26455 0.33152 0.0
C85 C 0.52599 0.27779 0.28263 0.0
N86 N 0.53588 0.24601 0.31794 0.0
C87 C 0.53736 0.22996 0.36404 0.0
Nd88 Nd 0.00329 0.01384 0.79563 0.0
Nd89 Nd 0.01961 0.02626 0.92687 0.0
C90 C 0.98674 0.99366 0.71055 0.0
C91 C 0.98883 0.97502 0.6869 0.0
C92 C 0.98806 0.95704 0.72808 0.0
C93 C 0.99025 0.9397 0.70431 0.0
C94 C 0.99348 0.93999 0.63898 0.0
C95 C 0.99429 0.95801 0.59809 0.0
C96 C 0.99193 0.97526 0.62175 0.0
C97 C 0.04119 0.03107 0.79269 0.0
C98 C 0.0203 0.98107 0.90458 0.0
C99 C 0.04153 0.04603 0.0019 0.0
C100 C 0.03962 0.0635 0.03186 0.0
C101 C 0.05587 0.07374 0.05598 0.0
C102 C 0.05434 0.09077 0.08229 0.0
C103 C 0.03646 0.09795 0.08512 0.0
C104 C 0.0202 0.08762 0.06044 0.0
C105 C 0.02178 0.07063 0.03395 0.0
C106 C 0.97976 0.01646 0.93562 0.0
C107 C 0.99916 0.05733 0.8233 0.0
O108 O 0.9795 0.99239 0.76826 0.0
O109 O 1.0011 0.00808 0.69645 0.0
O110 O 0.02984 0.03374 0.74552 0.0
O111 O 0.03268 0.01882 0.83783 0.0
O112 O 0.01214 0.98542 0.84972 0.0
O113 O 0.02531 0.99414 0.94277 0.0
O114 O 0.04385 0.04935 0.94001 0.0
O115 O 0.02947 0.02995 0.02291 0.0
O116 O 0.98995 0.02123 0.98272 0.0
O117 O 0.99105 0.01679 0.88901 0.0
O118 O 0.01134 0.05449 0.8695 0.0
O119 O 0.99192 0.04335 0.791 0.0
H120 H 0.98586 0.95636 0.77867 0.0
H121 H 0.98973 0.92612 0.73717 0.0
H122 H 0.99653 0.95873 0.54749 0.0
H123 H 0.99257 0.98888 0.58898 0.0
H124 H 0.06982 0.06865 0.05399 0.0
H125 H 0.06727 0.09845 0.09959 0.0
H126 H 0.00615 0.09248 0.06229 0.0
H127 H 0.00907 0.06306 0.01497 0.0
Nd128 Nd 0.51195 1.00232 0.80633 0.0
Nd129 Nd 0.50817 0.03419 0.90055 0.0
C130 C 0.51692 0.97007 0.76099 0.0
C131 C 0.53178 0.96558 0.71807 0.0
C132 C 0.53612 0.94635 0.72231 0.0
C133 C 0.55142 0.94238 0.68534 0.0
C134 C 0.56256 0.9576 0.64348 0.0
C135 C 0.55798 0.97681 0.63901 0.0
C136 C 0.5428 0.98078 0.67618 0.0
C137 C 0.51685 0.04028 0.74045 0.0
C138 C 0.55162 0.02526 0.85788 0.0
C139 C 0.50531 0.06347 0.96346 0.0
C140 C 0.48878 0.06738 0.00061 0.0
C141 C 0.49063 0.08275 0.03651 0.0
C142 C 0.47462 0.08615 0.07161 0.0
C143 C 0.45656 0.07419 0.07126 0.0
C144 C 0.45485 0.05892 0.03458 0.0
C145 C 0.47079 0.05552 -0.00016 0.0
C146 C 0.49859 0.99511 0.95079 0.0
C147 C 0.46972 0.0149 0.837 0.0
O148 O 0.5231 0.97379 0.81591 0.0
O149 O 0.50537 0.98223 0.73596 0.0
O150 O 0.51773 0.02496 0.71309 0.0
O151 O 0.51341 0.03459 0.79848 0.0
O152 O 0.54369 0.01149 0.82597 0.0
O153 O 0.54139 0.03606 0.88786 0.0
O154 O 0.50272 0.06465 0.90252 0.0
O155 O 0.51307 0.04793 0.98699 0.0
O156 O 0.48994 0.00887 0.96831 0.0
O157 O 0.51227 1.0024 0.91147 0.0
O158 O 0.47871 0.031 0.85553 0.0
O159 O 0.47899 1.00036 0.82507 0.0
H160 H 0.52789 0.93449 0.75496 0.0
H161 H 0.55456 0.92743 0.68954 0.0
H162 H 0.56649 0.9889 0.60805 0.0
H163 H 0.53992 0.9958 0.67315 0.0
H164 H 0.50444 0.09202 0.03759 0.0
H165 H 0.47646 0.09792 0.0998 0.0
H166 H 0.44111 0.04965 0.03226 0.0
H167 H 0.46907 0.04362 0.97216 0.0
Nd168 Nd 0.49666 0.52423 0.92731 0.0
Nd169 Nd 0.52138 0.51773 0.81645 0.0
C170 C 0.47072 0.5368 0.9964 0.0
C171 C 0.46715 0.55671 0.00346 0.0
C172 C 0.44852 0.56012 0.01966 0.0
C173 C 0.44502 0.57921 0.02419 0.0
C174 C 0.46013 0.5952 0.01258 0.0
C175 C 0.47875 0.59164 0.9956 0.0
C176 C 0.4822 0.57262 0.99082 0.0
C177 C 0.53554 0.52694 0.94813 0.0
C178 C 0.51331 0.56159 0.81478 0.0
C179 C 0.5469 0.50521 0.74542 0.0
C180 C 0.54887 0.48534 0.73337 0.0
C181 C 0.56576 0.48158 0.70403 0.0
C182 C 0.56747 0.46249 0.69344 0.0
C183 C 0.5523 0.4469 0.71228 0.0
C184 C 0.53554 0.4508 0.74265 0.0
C185 C 0.53382 0.46983 0.75279 0.0
C186 C 0.48244 0.51486 0.79596 0.0
C187 C 0.50471 0.4803 0.92944 0.0
O188 O 0.4672 0.53183 0.94075 0.0
O189 O 0.48691 0.53163 0.01869 0.0
O190 O 0.52219 0.51902 0.99116 0.0
O191 O 0.52823 0.53397 0.89775 0.0
O192 O 0.49975 0.55364 0.85874 0.0
O193 O 0.52606 0.55123 0.79541 0.0
O194 O 0.55008 0.50833 0.80339 0.0
O195 O 0.53152 0.51219 0.72298 0.0
O196 O 0.49572 0.52268 0.75269 0.0
O197 O 0.48988 0.50792 0.84612 0.0
O198 O 0.51802 0.48812 0.88449 0.0
O199 O 0.49226 0.49078 0.95 0.0
H200 H 0.43667 0.54805 0.02853 0.0
H201 H 0.43045 0.58143 0.03648 0.0
H202 H 0.49082 0.60349 0.98723 0.0
H203 H 0.49666 0.57033 0.97736 0.0
H204 H 0.57755 0.49339 0.689 0.0
H205 H 0.58049 0.46001 0.66937 0.0
H206 H 0.52373 0.43912 0.75877 0.0
H207 H 0.52068 0.47245 0.77584 0.0
Nd208 Nd 0.01057 0.53274 0.80463 0.0
Nd209 Nd 0.0099 0.50356 0.91986 0.0
C210 C 0.00328 0.56173 0.71712 0.0
C211 C 0.98675 0.56432 0.6767 0.0
C212 C 0.98368 0.58318 0.64898 0.0
C213 C 0.96765 0.58562 0.61164 0.0
C214 C 0.95455 0.56918 0.60131 0.0
C215 C 0.95764 0.55033 0.62977 0.0
C216 C 0.97354 0.54793 0.66737 0.0
C217 C 0.01228 0.4952 0.77926 0.0
C218 C 0.96845 0.51037 0.87063 0.0
C219 C 0.01695 0.47461 0.00811 0.0
C220 C 0.03391 0.47096 0.04529 0.0
C221 C 0.03438 0.45258 0.08209 0.0
C222 C 0.05055 0.44914 0.11762 0.0
C223 C 0.06651 0.46406 0.11675 0.0
C224 C 0.06598 0.48242 0.07905 0.0
C225 C 0.04983 0.48582 0.04363 0.0
C226 C 0.00787 0.5411 0.94444 0.0
C227 C 0.05194 0.52565 0.85375 0.0
O228 O 0.99973 0.56124 0.77758 0.0
O229 O 0.01349 0.54818 0.70563 0.0
O230 O 0.02213 0.511 0.74763 0.0
O231 O 1.00135 0.49948 0.82129 0.0
O232 O 0.9781 0.52621 0.83588 0.0
O233 O 0.97768 0.49698 0.90234 0.0
O234 O 0.01899 0.47424 0.94749 0.0
O235 O 0.00847 0.48932 0.02017 0.0
O236 O 0.99776 0.52532 0.97527 0.0
O237 O 0.01909 0.53683 0.90318 0.0
O238 O 0.04219 0.50964 0.88721 0.0
O239 O 0.04278 0.53932 0.82329 0.0
H240 H 0.99366 0.596 0.65624 0.0
H241 H 0.96566 0.60031 0.59006 0.0
H242 H 0.94762 0.53743 0.62349 0.0
H243 H 0.97551 0.53326 0.68931 0.0
H244 H 0.02224 0.44091 0.08344 0.0
H245 H 0.05059 0.43478 0.14554 0.0
H246 H 0.07785 0.49433 0.07796 0.0
H247 H 0.0497 0.50012 0.01536 0.0
H248 H 0.2083 0.0854 0.55285 0.0
H249 H 0.17525 0.07545 0.59821 0.0
H250 H 0.198 0.05319 0.7769 0.0
H251 H 0.23128 0.06343 0.73126 0.0
H252 H 0.15782 0.03744 0.65049 0.0
H253 H 0.15957 0.08897 0.8264 0.0
H254 H 0.17742 0.09229 0.76202 0.0
H255 H 0.17845 0.07374 0.82965 0.0
C256 C 0.20618 0.07842 0.60185 0.0
C257 C 0.22211 0.07515 0.63885 0.0
C258 C 0.18736 0.07275 0.6277 0.0
C259 C 0.18415 0.06378 0.69112 0.0
C260 C 0.20015 0.06039 0.7282 0.0
H261 H 0.06867 0.0217 0.87786 0.0
H262 H 0.1041 0.02896 0.86031 0.0
C263 C 0.21908 0.0661 0.70215 0.0
C264 C 0.16395 0.05764 0.71691 0.0
H265 H 0.13017 0.06812 0.81966 0.0
C266 C 0.15183 0.04402 0.68789 0.0
C267 C 0.15618 0.06619 0.76592 0.0
C268 C 0.16848 0.08122 0.79773 0.0
C269 C 0.13207 0.0391 0.70527 0.0
C270 C 0.12414 0.04822 0.75241 0.0
C271 C 0.13634 0.06123 0.78341 0.0
C272 C 0.10296 0.04537 0.76634 0.0
C273 C 0.11969 0.02442 0.67229 0.0
C274 C 0.09072 0.05272 0.72014 0.0
C275 C 0.07063 0.04868 0.73003 0.0
C276 C 0.06239 0.03718 0.78635 0.0
C277 C 0.07466 0.03055 0.8339 0.0
C278 C 0.09485 0.03467 0.82398 0.0
H279 H 0.1286 0.01534 0.64873 0.0
H280 H 0.10911 0.01451 0.70631 0.0
H281 H 0.11144 0.03241 0.63554 0.0
H282 H 0.09674 0.06122 0.67567 0.0
H283 H 0.06155 0.05411 0.69272 0.0
H284 H 0.53136 0.22503 0.49104 0.0
H285 H 0.53054 0.19415 0.56528 0.0
H286 H 0.54292 0.16433 0.40962 0.0
H287 H 0.54409 0.1952 0.336 0.0
H288 H 0.50588 0.15986 0.56539 0.0
H289 H 0.58163 0.14641 0.53677 0.0
H290 H 0.5741 0.16997 0.50962 0.0
H291 H 0.57024 0.15054 0.46236 0.0
C292 C 0.5342 0.21189 0.47321 0.0
C293 C 0.53797 0.2123 0.40842 0.0
C294 C 0.53369 0.19431 0.5154 0.0
C295 C 0.53702 0.17702 0.49313 0.0
C296 C 0.54083 0.17758 0.42811 0.0
H297 H 0.52267 0.05298 0.61432 0.0
H298 H 0.52803 0.08699 0.55951 0.0
C299 C 0.54138 0.19513 0.38609 0.0
C300 C 0.53526 0.15807 0.53682 0.0
H301 H 0.55863 0.11857 0.58283 0.0
C302 C 0.5175 0.15096 0.57005 0.0
C303 C 0.55047 0.14651 0.54292 0.0
C304 C 0.57024 0.15383 0.51152 0.0
C305 C 0.51426 0.13218 0.60687 0.0
C306 C 0.52922 0.12035 0.61083 0.0
C307 C 0.54716 0.12768 0.57927 0.0
C308 C 0.52619 0.09991 0.64484 0.0
C309 C 0.49463 0.12479 0.63919 0.0
C310 C 0.52359 0.09598 0.71099 0.0
C311 C 0.52058 0.07656 0.74239 0.0
C312 C 0.52007 0.06083 0.70807 0.0
C313 C 0.52289 0.06483 0.64193 0.0
C314 C 0.52598 0.08422 0.6106 0.0
H315 H 0.48372 0.13451 0.62335 0.0
H316 H 0.48931 0.10971 0.62988 0.0
H317 H 0.49587 0.1241 0.69112 0.0
H318 H 0.524 0.10793 0.73828 0.0
H319 H 0.51883 0.07386 0.79336 0.0
H320 H 0.31925 0.47514 0.57859 0.0
H321 H 0.35027 0.47881 0.63015 0.0
H322 H 0.32881 0.51767 0.74524 0.0
H323 H 0.29768 0.51424 0.69215 0.0
H324 H 0.36431 0.53265 0.69268 0.0
H325 H 0.36562 0.45575 0.80301 0.0
H326 H 0.3612 0.45724 0.72023 0.0
H327 H 0.34382 0.46429 0.77256 0.0
C328 C 0.32111 0.48422 0.61559 0.0
C329 C 0.30622 0.49429 0.63209 0.0
C330 C 0.33876 0.48622 0.64532 0.0
C331 C 0.34177 0.49818 0.69258 0.0
C332 C 0.32674 0.5082 0.70939 0.0
H333 H 0.45281 0.49847 0.88138 0.0
H334 H 0.41791 0.49583 0.86438 0.0
C335 C 0.30902 0.50623 0.67933 0.0
C336 C 0.36111 0.50122 0.7205 0.0
H337 H 0.39676 0.47638 0.78469 0.0
C338 C 0.37129 0.52038 0.7138 0.0
C339 C 0.37014 0.48528 0.74917 0.0
C340 C 0.35953 0.46452 0.76231 0.0
C341 C 0.3906 0.52389 0.7316 0.0
C342 C 0.40014 0.50777 0.75529 0.0
C343 C 0.38959 0.48873 0.76548 0.0
C344 C 0.42123 0.51017 0.76679 0.0
C345 C 0.40062 0.54486 0.72437 0.0
C346 C 0.43471 0.51891 0.71749 0.0
C347 C 0.45459 0.52055 0.72724 0.0
C348 C 0.4614 0.51323 0.78625 0.0
C349 C 0.44795 0.50432 0.83548 0.0
C350 C 0.42803 0.50279 0.82581 0.0
H351 H 0.39001 0.55526 0.72698 0.0
H352 H 0.41136 0.54681 0.7614 0.0
H353 H 0.4083 0.54883 0.67729 0.0
H354 H 0.42986 0.5242 0.67102 0.0
H355 H 0.46463 0.52738 0.68834 0.0
H356 H 0.0258 0.32081 0.63118 0.0
H357 H 0.02508 0.34908 0.68768 0.0
H358 H 0.98949 0.37471 0.54415 0.0
H359 H 0.98988 0.34637 0.48897 0.0
H360 H 0.03869 0.38692 0.65048 0.0
H361 H 0.95999 0.38139 0.69986 0.0
H362 H 0.97073 0.3617 0.67367 0.0
H363 H 0.96533 0.38205 0.61721 0.0
C364 C 0.01753 0.33234 0.61265 0.0
C365 C 0.00765 0.33135 0.55636 0.0
C366 C 0.01718 0.34853 0.6447 0.0
C367 C 0.00692 0.36399 0.62106 0.0
C368 C 0.99703 0.36283 0.56469 0.0
H369 H 0.02999 0.48577 0.67588 0.0
H370 H 0.02873 0.45356 0.64264 0.0
C371 C 0.99733 0.34666 0.53292 0.0
C372 C 0.0075 0.38189 0.65267 0.0
H373 H 0.97888 0.41277 0.70542 0.0
C374 C 0.02558 0.39242 0.66311 0.0
C375 C 0.99046 0.38905 0.67047 0.0
C376 C 0.97055 0.37784 0.66538 0.0
C377 C 0.02711 0.41015 0.68825 0.0
C378 C 0.01009 0.418 0.70203 0.0
C379 C 0.99199 0.40705 0.69408 0.0
C380 C 0.01075 0.43772 0.72288 0.0
C381 C 0.04704 0.42017 0.70026 0.0
C382 C 1.00049 0.43994 0.77805 0.0
C383 C 1.00093 0.45855 0.79669 0.0
C384 C 0.01163 0.47535 0.7605 0.0
C385 C 0.02175 0.47312 0.7052 0.0
C386 C 0.02117 0.45462 0.68636 0.0
H387 H 0.05749 0.40945 0.70827 0.0
H388 H 0.05245 0.4311 0.65811 0.0
H389 H 0.04679 0.4279 0.74194 0.0
H390 H 0.99221 0.42724 0.80697 0.0
H391 H 0.99294 0.45977 0.83947 0.0
H392 H 0.79593 0.94626 0.01509 0.0
H393 H 0.82881 0.95469 0.96606 0.0
H394 H 0.8374 0.00721 0.05277 0.0
H395 H 0.80447 0.99889 0.10098 0.0
H396 H 0.85369 0.01228 0.92623 0.0
H397 H 0.87482 0.94748 0.0816 0.0
H398 H 0.85491 0.94242 0.03151 0.0
H399 H 0.8523 0.9566 0.09387 0.0
C400 C 0.80475 0.95982 0.02224 0.0
C401 C 0.79787 0.97201 0.06135 0.0
C402 C 0.8235 0.96456 0.99466 0.0
C403 C 0.83562 0.98143 0.00652 0.0
C404 C 0.82829 0.99413 0.04299 0.0
H405 H 0.95608 0.0116 0.0398 0.0
H406 H 0.92093 1.00257 0.04805 0.0
C407 C 0.80953 0.9894 0.07045 0.0
C408 C 0.85642 0.98504 0.98601 0.0
H409 H 0.89929 0.96761 0.01565 0.0
C410 C 0.86366 1.00242 0.94503 0.0
C411 C 0.86939 0.9722 0.01122 0.0
C412 C 0.86258 0.95369 0.05737 0.0
C413 C 0.88361 0.00751 0.92971 0.0
C414 C 0.89657 0.99483 0.95582 0.0
C415 C 0.88927 0.97721 0.99537 0.0
C416 C 0.91789 1.00049 0.94873 0.0
C417 C 0.89082 0.02682 0.88816 0.0
C418 C 0.92788 1.00225 0.89002 0.0
C419 C 0.9481 0.0074 0.88519 0.0
C420 C 0.95852 0.01081 0.93904 0.0
C421 C 0.94844 0.00903 0.99751 0.0
C422 C 0.92836 1.00385 0.00233 0.0
H423 H 0.8792 0.03617 0.87878 0.0
H424 H 0.90292 0.0351 0.91052 0.0
H425 H 0.89645 0.02394 0.84214 0.0
H426 H 0.92007 0.99952 0.8482 0.0
H427 H 0.95554 0.00883 0.83951 0.0
H428 H 0.48498 0.81264 0.22644 0.0
H429 H 0.48623 0.84279 0.14825 0.0
H430 H 0.48492 0.877 0.30011 0.0
H431 H 0.48377 0.84697 0.37791 0.0
H432 H 0.46012 0.87241 0.13317 0.0
H433 H 0.53476 0.90189 0.19096 0.0
H434 H 0.5245 0.87637 0.21361 0.0
H435 H 0.51815 0.8946 0.25834 0.0
C436 C 0.48483 0.82663 0.24272 0.0
C437 C 0.48434 0.82773 0.3076 0.0
C438 C 0.48552 0.84376 0.19829 0.0
C439 C 0.48591 0.8621 0.21856 0.0
C440 C 0.48491 0.86302 0.28362 0.0
H441 H 0.46891 0.97696 0.03286 0.0
H442 H 0.46513 0.94344 0.09167 0.0
C443 C 0.48418 0.84593 0.32787 0.0
C444 C 0.48783 0.88042 0.17211 0.0
H445 H 0.5174 0.92397 0.12684 0.0
C446 C 0.47269 0.88365 0.13129 0.0
C447 C 0.50438 0.89488 0.16929 0.0
C448 C 0.52148 0.89176 0.20994 0.0
C449 C 0.47338 0.90136 0.08906 0.0
C450 C 0.48955 0.91619 0.08836 0.0
C451 C 0.50495 0.91264 0.12777 0.0
C452 C 0.49072 0.93573 0.04842 0.0
C453 C 0.45687 0.904 0.0455 0.0
C454 C 0.50643 0.94258 0.0051 0.0
C455 C 0.5087 0.96175 0.97199 0.0
C456 C 0.49531 0.97441 0.98177 0.0
C457 C 0.47938 0.96745 0.02422 0.0
C458 C 0.47713 0.94827 0.05743 0.0
H459 H 0.44855 0.88964 0.03902 0.0
H460 H 0.44678 0.91252 0.06636 0.0
H461 H 0.46222 0.91223 0.99837 0.0
H462 H 0.51719 0.93322 0.99794 0.0
H463 H 0.5213 0.96684 0.94043 0.0
H464 H 0.70727 0.53312 0.1562 0.0
H465 H 0.67392 0.52494 0.1236 0.0
H466 H 0.68738 0.56508 0.94872 0.0
H467 H 0.72082 0.5732 0.98141 0.0
H468 H 0.64942 0.55455 0.09787 0.0
H469 H 0.65653 0.51526 0.89273 0.0
H470 H 0.675 0.51739 0.95049 0.0
H471 H 0.6726 0.53799 0.89089 0.0
C472 C 0.70318 0.53976 0.11011 0.0
C473 C 0.71646 0.55358 0.07083 0.0
C474 C 0.68417 0.53516 0.09165 0.0
C475 C 0.67823 0.54427 0.03351 0.0
C476 C 0.69176 0.55761 0.99321 0.0
H477 H 0.56516 0.54656 0.86742 0.0
H478 H 0.59993 0.55063 0.88718 0.0
C479 C 0.71079 0.56226 0.01184 0.0
C480 C 0.65745 0.54135 0.01839 0.0
H481 H 0.62555 0.52362 0.91428 0.0
C482 C 0.64417 0.5477 0.05791 0.0
C483 C 0.65073 0.53264 0.96581 0.0
C484 C 0.66438 0.52527 0.92263 0.0
C485 C 0.62433 0.54571 0.0461 0.0
C486 C 0.61749 0.53666 0.99419 0.0
C487 C 0.6308 0.53047 0.95422 0.0
C488 C 0.59654 0.53345 0.98104 0.0
C489 C 0.61095 0.55374 0.08858 0.0
C490 C 0.58315 0.52211 0.02667 0.0
C491 C 0.56332 0.51992 0.01571 0.0
C492 C 0.55654 0.52883 0.95861 0.0
C493 C 0.56999 0.53965 0.91207 0.0
C494 C 0.58984 0.54193 0.92321 0.0
H495 H 0.61899 0.565 0.11387 0.0
H496 H 0.59953 0.56044 0.06116 0.0
H497 H 0.60379 0.54157 0.12472 0.0
H498 H 0.58802 0.51504 0.071 0.0
H499 H 0.5533 0.5113 0.05209 0.0
H500 H 0.98824 0.68505 0.23278 0.0
H501 H 0.98847 0.65666 0.17752 0.0
H502 H 0.03072 0.6911 0.04012 0.0
H503 H 0.03072 0.7195 0.09652 0.0
H504 H 0.97975 0.65093 0.05708 0.0
H505 H 0.05701 0.64326 0.09642 0.0
H506 H 0.04438 0.65899 0.13694 0.0
H507 H 0.05291 0.66684 0.05602 0.0
C508 C 0.99746 0.68657 0.19045 0.0
C509 C 0.00942 0.70441 0.16869 0.0
C510 C 0.99761 0.67034 0.15892 0.0
C511 C 0.00984 0.67151 0.10506 0.0
C512 C 0.02146 0.6896 0.08228 0.0
H513 H 0.02975 0.57614 0.89128 0.0
H514 H 0.03018 0.6086 0.92431 0.0
C515 C 0.02133 0.70588 0.11407 0.0
C516 C 0.01029 0.65371 0.07366 0.0
H517 H 0.03961 0.62095 0.03792 0.0
C518 C 0.99288 0.64445 0.05273 0.0
C519 C 0.02741 0.64518 0.06747 0.0
C520 C 0.04648 0.65393 0.09081 0.0
C521 C 0.99206 0.62695 0.02652 0.0
C522 C 0.00904 0.6181 0.02208 0.0
C523 C 0.02657 0.62764 0.04131 0.0
C524 C 0.00867 0.59849 0.00082 0.0
C525 C 0.97295 0.6182 0.00347 0.0
C526 C 0.99667 0.58187 0.03307 0.0
C527 C 0.99638 0.5634 0.01421 0.0
C528 C 0.00824 0.56096 0.96296 0.0
C529 C 0.02041 0.57753 0.93086 0.0
C530 C 0.02067 0.59608 0.94978 0.0
H531 H 0.96332 0.62954 0.99114 0.0
H532 H 0.97506 0.61105 0.96134 0.0
H533 H 0.96542 0.60692 0.04169 0.0
H534 H 0.98764 0.58312 0.07355 0.0
H535 H 0.98692 0.55096 0.04027 0.0
H536 H 0.03877 0.2317 0.61152 0.0
H537 H 0.0313 0.20031 0.68134 0.0
H538 H 0.97159 0.20936 0.69831 0.0
H539 H 0.97897 0.24051 0.62494 0.0
H540 H 0.01715 0.1834 0.79203 0.0
H541 H 0.96489 0.162 0.61264 0.0
H542 H 0.98037 0.18536 0.6015 0.0
H543 H 0.95893 0.18137 0.65265 0.0
C544 C 0.02421 0.22735 0.63221 0.0
C545 C 0.00941 0.23838 0.61247 0.0
C546 C 0.01989 0.20931 0.67186 0.0
C547 C 1.0007 0.20202 0.69315 0.0
C548 C 0.98636 0.21431 0.68053 0.0
H549 H 0.99059 0.08146 0.90473 0.0
H550 H 0.98715 0.11629 0.87965 0.0
C551 C 0.99065 0.23232 0.63975 0.0
C552 C 0.9958 0.18087 0.7213 0.0
H553 H 0.97071 0.13723 0.69375 0.0
C554 C 0.00684 0.17332 0.77103 0.0
C555 C 0.98256 0.16761 0.69312 0.0
C556 C 0.97112 0.1744 0.6367 0.0
C557 C 0.00576 0.15297 0.79127 0.0
C558 C 0.99252 0.13972 0.76308 0.0
C559 C 0.98081 0.14733 0.71546 0.0
C560 C 0.99171 0.11795 0.7784 0.0
C561 C 0.0198 0.14599 0.83969 0.0
C562 C 0.99381 0.10677 0.72966 0.0
C563 C 0.99494 0.08663 0.74383 0.0
C564 C 0.99434 0.07742 0.80703 0.0
C565 C 0.99129 0.08833 0.85556 0.0
C566 C 0.98958 0.10829 0.84131 0.0
H567 H 0.03238 0.15752 0.84258 0.0
H568 H 0.01231 0.14236 0.88711 0.0
H569 H 0.02538 0.13268 0.8284 0.0
H570 H 0.99536 0.11379 0.68065 0.0
H571 H 0.99741 0.07854 0.70568 0.0
H572 H 0.31143 0.06736 0.71033 0.0
H573 H 0.33662 0.0526 0.77071 0.0
H574 H 0.32336 1.00023 0.68519 0.0
H575 H 0.29858 0.01526 0.62323 0.0
H576 H 0.34331 0.01763 0.85073 0.0
H577 H 0.37709 0.02508 0.60879 0.0
H578 H 0.3555 0.03542 0.62385 0.0
H579 H 0.35412 0.00951 0.62188 0.0
C580 C 0.31327 0.05234 0.7068 0.0
C581 C 0.3032 0.04244 0.66209 0.0
C582 C 0.32775 0.04395 0.74099 0.0
C583 C 0.3322 0.02555 0.73103 0.0
C584 C 0.3204 0.01461 0.69255 0.0
H585 H 0.44578 0.98661 0.78741 0.0
H586 H 0.41104 0.98551 0.76992 0.0
C587 C 0.30612 0.0231 0.65774 0.0
C588 C 0.35094 0.01954 0.75178 0.0
H589 H 0.3956 0.0145 0.69379 0.0
C590 C 0.35468 0.01669 0.81655 0.0
C591 C 0.36583 0.01848 0.70697 0.0
C592 C 0.36309 0.02243 0.63648 0.0
C593 C 0.37301 0.01307 0.83764 0.0
C594 C 0.388 0.01257 0.79267 0.0
C595 C 0.38405 0.01474 0.72816 0.0
C596 C 0.40837 0.01175 0.81034 0.0
C597 C 0.37623 0.01001 0.90778 0.0
C598 C 0.4184 0.02688 0.83871 0.0
C599 C 0.43821 0.02763 0.84841 0.0
C600 C 0.44849 0.0133 0.82956 0.0
C601 C 0.43833 0.99788 0.80243 0.0
C602 C 0.41847 0.99719 0.79256 0.0
H603 H 0.36241 1.0045 0.93557 0.0
H604 H 0.38663 0.99946 0.92025 0.0
H605 H 0.38226 0.02428 0.92194 0.0
H606 H 0.41105 0.03855 0.85134 0.0
H607 H 0.4455 0.0397 0.86966 0.0
H608 H 0.56529 0.29107 0.46327 0.0
H609 H 0.57422 0.31107 0.54643 0.0
H610 H 0.51531 0.3229 0.55949 0.0
H611 H 0.50641 0.30284 0.47758 0.0
H612 H 0.57182 0.34981 0.52314 0.0
H613 H 0.52898 0.31818 0.74271 0.0
H614 H 0.53276 0.30382 0.68106 0.0
H615 H 0.51363 0.31887 0.67635 0.0
C616 C 0.55413 0.29725 0.48607 0.0
C617 C 0.53519 0.2955 0.46419 0.0
C618 C 0.55924 0.30873 0.53325 0.0
C619 C 0.54541 0.31837 0.55962 0.0
C620 C 0.52615 0.31528 0.5411 0.0
H621 H 0.52366 0.4215 0.67077 0.0
H622 H 0.52553 0.38879 0.64551 0.0
C623 C 0.52108 0.30393 0.49394 0.0
C624 C 0.55141 0.33437 0.59691 0.0
H625 H 0.53655 0.3542 0.72264 0.0
C626 C 0.5646 0.35056 0.56786 0.0
C627 C 0.54201 0.33532 0.65523 0.0
C628 C 0.52872 0.31799 0.69087 0.0
C629 C 0.56725 0.36829 0.59247 0.0
C630 C 0.55659 0.36974 0.64797 0.0
C631 C 0.54458 0.35309 0.67974 0.0
C632 C 0.55562 0.38899 0.66845 0.0
C633 C 0.58023 0.3858 0.55626 0.0
C634 C 0.57192 0.39988 0.69035 0.0
C635 C 0.5709 0.41866 0.7051 0.0
C636 C 0.55352 0.42679 0.6984 0.0
C637 C 0.53718 0.41561 0.67743 0.0
C638 C 0.53822 0.39691 0.66282 0.0
H639 H 0.58564 0.38282 0.51002 0.0
H640 H 0.57235 0.39871 0.54758 0.0
H641 H 0.59292 0.38976 0.58471 0.0
H642 H 0.58544 0.39391 0.69558 0.0
H643 H 0.58365 0.42678 0.72197 0.0
H644 H 0.20257 0.47076 0.73283 0.0
H645 H 0.17845 0.48413 0.79144 0.0
H646 H 0.20399 0.543 0.71072 0.0
H647 H 0.22823 0.52959 0.65193 0.0
H648 H 0.17683 0.51591 0.87325 0.0
H649 H 0.14954 0.53107 0.62965 0.0
H650 H 0.1675 0.515 0.64838 0.0
H651 H 0.17411 0.54113 0.64239 0.0
C652 C 0.2036 0.48656 0.73014 0.0
C653 C 0.21719 0.49918 0.68804 0.0
C654 C 0.1898 0.49419 0.76341 0.0
C655 C 0.1893 0.51452 0.75461 0.0
C656 C 0.20413 0.52725 0.71788 0.0
H657 H 0.07758 0.55651 0.79117 0.0
H658 H 0.11265 0.55796 0.77535 0.0
C659 C 0.21805 0.51961 0.68478 0.0
C660 C 0.17142 0.52169 0.7739 0.0
H661 H 0.12927 0.53462 0.71361 0.0
C662 C 0.16654 0.52037 0.83846 0.0
C663 C 0.15804 0.52749 0.72831 0.0
C664 C 0.16238 0.5287 0.65825 0.0
C665 C 0.14833 0.52416 0.85872 0.0
C666 C 0.13451 0.52882 0.81316 0.0
C667 C 0.13983 0.53107 0.74856 0.0
C668 C 0.11388 0.52939 0.83067 0.0
C669 C 0.14405 0.52289 0.92871 0.0
C670 C 0.10289 0.51295 0.86744 0.0
C671 C 0.08291 0.51213 0.87683 0.0
C672 C 0.07338 0.52761 0.84874 0.0
C673 C 0.08445 0.54432 0.81333 0.0
C674 C 0.10451 0.54518 0.80435 0.0
H675 H 0.15751 0.52682 0.95383 0.0
H676 H 0.13348 0.53274 0.93823 0.0
H677 H 0.13793 0.50754 0.94877 0.0
H678 H 0.10959 0.5003 0.88668 0.0
H679 H 0.07487 0.49901 0.90432 0.0
H680 H 0.04411 0.79862 0.09438 0.0
H681 H 0.04825 0.83038 0.02368 0.0
H682 H 0.98806 0.83503 0.05806 0.0
H683 H 0.98381 0.80308 0.12602 0.0
H684 H 0.99991 0.85378 0.94355 0.0
H685 H 0.05299 0.87618 0.1191 0.0
H686 H 0.05973 0.85772 0.07632 0.0
H687 H 0.03865 0.85219 0.12924 0.0
C688 C 0.03156 0.80594 0.08371 0.0
C689 C 0.01362 0.79844 0.11519 0.0
C690 C 0.03401 0.82428 0.04447 0.0
C691 C 0.01865 0.83546 0.03759 0.0
C692 C 1.0002 0.82682 0.06305 0.0
H693 H 0.02014 0.95996 0.02381 0.0
H694 H 0.021 0.92454 0.05143 0.0
C695 C 0.9977 0.80844 0.10141 0.0
C696 C 0.02201 0.85685 0.01166 0.0
H697 H 0.04614 0.90093 0.03898 0.0
C698 C 0.01015 0.8641 0.96393 0.0
C699 C 0.03505 0.87037 0.03945 0.0
C700 C 0.04721 0.86381 0.09424 0.0
C701 C 0.01063 0.88441 0.94419 0.0
C702 C 0.02389 0.89791 0.9713 0.0
C703 C 0.03607 0.89063 0.01794 0.0
C704 C 0.02468 0.91962 0.95452 0.0
C705 C 0.99617 0.8911 0.8969 0.0
C706 C 0.02712 0.92883 0.8912 0.0
C707 C 0.02625 0.94893 0.87542 0.0
C708 C 0.02353 0.96042 0.92275 0.0
C709 C 0.02232 0.95149 0.98641 0.0
C710 C 0.02275 0.93124 0.00212 0.0
H711 H 0.98359 0.87945 0.89549 0.0
H712 H 0.99066 0.90445 0.90813 0.0
H713 H 0.00327 0.89459 0.84888 0.0
H714 H 0.02937 0.92043 0.85375 0.0
H715 H 0.02748 0.95546 0.8259 0.0
H716 H 0.7179 0.97931 0.99062 0.0
H717 H 0.6942 0.99207 0.91847 0.0
H718 H 0.68608 0.03516 0.03819 0.0
H719 H 0.71022 0.02296 0.10875 0.0
H720 H 0.65806 0.98752 0.96403 0.0
H721 H 0.67896 0.0662 0.86873 0.0
H722 H 0.69633 0.05088 0.90162 0.0
H723 H 0.68158 0.06172 0.95268 0.0
C724 C 0.7118 0.99215 -0.00029 0.0
C725 C 0.71573 1.00001 0.05564 0.0
C726 C 0.69814 0.99936 0.95869 0.0
C727 C 0.68829 0.01458 0.97283 0.0
C728 C 0.69366 0.02367 0.0254 0.0
H729 H 0.57383 0.04423 0.94118 0.0
H730 H 0.60837 0.04351 0.95885 0.0
C731 C 0.70736 0.01656 0.06612 0.0
C732 C 0.67003 0.01817 0.94131 0.0
H733 H 0.64433 0.05435 0.878 0.0
C734 C 0.65524 1.00208 0.94383 0.0
C735 C 0.66621 0.0372 0.9158 0.0
C736 C 0.68171 0.05493 0.90898 0.0
C737 C 0.63656 1.00458 0.92435 0.0
C738 C 0.63257 0.02367 0.90071 0.0
C739 C 0.64744 0.03974 0.89635 0.0
C740 C 0.61274 0.02704 0.88305 0.0
C741 C 0.62098 0.98683 0.93203 0.0
C742 C 0.60399 0.01865 0.83315 0.0
C743 C 0.5843 0.01889 0.82326 0.0
C744 C 0.57297 0.02768 0.86283 0.0
C745 C 0.5821 0.03728 0.91003 0.0
C746 C 0.60184 0.03693 0.92012 0.0
H747 H 0.62544 0.97398 0.96279 0.0
H748 H 0.60736 0.99024 0.95261 0.0
H749 H 0.61787 0.98258 0.88491 0.0
H750 H 0.61224 0.0112 0.80347 0.0
H751 H 0.57783 0.01161 0.7858 0.0
H752 H 0.4401 0.71905 0.32713 0.0
H753 H 0.43554 0.70061 0.23912 0.0
H754 H 0.47902 0.74267 0.12688 0.0
H755 H 0.48438 0.76072 0.21657 0.0
H756 H 0.42715 0.70496 0.11505 0.0
H757 H 0.50422 0.69352 0.14464 0.0
H758 H 0.49168 0.70542 0.19861 0.0
H759 H 0.5001 0.71847 0.1217 0.0
C760 C 0.44846 0.72458 0.2833 0.0
C761 C 0.46298 0.74098 0.27929 0.0
C762 C 0.44575 0.71409 0.23282 0.0
C763 C 0.45738 0.7199 0.17711 0.0
C764 C 0.47029 0.73761 0.17017 0.0
H765 H 0.47566 0.63051 0.94144 0.0
H766 H 0.47363 0.66355 0.96503 0.0
C767 C 0.47317 0.74805 0.22115 0.0
C768 C 0.45764 0.70585 0.13142 0.0
H769 H 0.4857 0.67412 0.08203 0.0
C770 C 0.44005 0.69849 0.1067 0.0
C771 C 0.47448 0.69733 0.12065 0.0
C772 C 0.49368 0.70393 0.14804 0.0
C773 C 0.43862 0.68218 0.07462 0.0
C774 C 0.45518 0.67303 0.06727 0.0
C775 C 0.47304 0.68123 0.08781 0.0
C776 C 0.45399 0.65355 0.04652 0.0
C777 C 0.41927 0.67443 0.05089 0.0
C778 C 0.44352 0.63701 0.08435 0.0
C779 C 0.44492 0.61811 0.07181 0.0
C780 C 0.45684 0.61536 0.02111 0.0
C781 C 0.46662 0.63205 0.98156 0.0
C782 C 0.46533 0.65096 0.9945 0.0
H783 H 0.40984 0.6861 0.04235 0.0
H784 H 0.42107 0.66834 0.00641 0.0
H785 H 0.41179 0.66246 0.08711 0.0
H786 H 0.43507 0.63865 0.12568 0.0
H787 H 0.43743 0.60565 0.10388 0.0
H788 H 0.79587 0.5083 0.09041 0.0
H789 H 0.82018 0.49388 0.03565 0.0
H790 H 0.83715 0.54957 0.91512 0.0
H791 H 0.81258 0.56381 0.96893 0.0
H792 H 0.84219 0.5154 0.85633 0.0
H793 H 0.87435 0.51513 0.09298 0.0
H794 H 0.8508 0.50093 0.09193 0.0
H795 H 0.85368 0.52724 0.07137 0.0
C796 C 0.80404 0.51707 0.04982 0.0
C797 C 0.80233 0.53706 0.03328 0.0
C798 C 0.81806 0.50892 0.01907 0.0
C799 C 0.83072 0.5208 0.97231 0.0
C800 C 0.82753 0.54016 0.95107 0.0
H801 H 0.94492 0.53531 0.81235 0.0
H802 H 0.9102 0.53413 0.83136 0.0
C803 C 0.81342 0.54826 0.9815 0.0
C804 C 0.84923 0.51453 0.9542 0.0
H805 H 0.89318 0.5068 0.01278 0.0
C806 C 0.85327 0.51323 0.89058 0.0
C807 C 0.86372 0.51187 0.99899 0.0
C808 C 0.86058 0.51399 0.06755 0.0
C809 C 0.87155 0.50959 0.87041 0.0
C810 C 0.88622 0.50759 0.9149 0.0
C811 C 0.88191 0.50822 0.9788 0.0
C812 C 0.90663 0.50662 0.89618 0.0
C813 C 0.87502 0.5081 0.80165 0.0
C814 C 0.9163 0.4916 0.92651 0.0
C815 C 0.93629 0.49237 0.91641 0.0
C816 C 0.94701 0.50826 0.87605 0.0
C817 C 0.93715 0.52286 0.84383 0.0
C818 C 0.91719 0.5221 0.85409 0.0
H819 H 0.86128 0.50319 0.77944 0.0
H820 H 0.88113 0.52281 0.77574 0.0
H821 H 0.88542 0.49771 0.79591 0.0
H822 H 0.90847 0.47959 0.95959 0.0
H823 H 0.94341 0.48085 0.94188 0.0
H824 H 0.04842 0.23362 0.42621 0.0
H825 H 0.05122 0.20999 0.35402 0.0
H826 H 1.00127 0.22735 0.25705 0.0
H827 H 0.99835 0.25114 0.32992 0.0
H828 H 0.01784 0.17899 0.34866 0.0
H829 H 0.04232 0.22221 0.11282 0.0
H830 H 0.04741 0.23185 0.1856 0.0
H831 H 0.02335 0.23003 0.1569 0.0
C832 C 0.03837 0.23283 0.38832 0.0
C833 C 0.02317 0.24424 0.38367 0.0
C834 C 0.03995 0.21926 0.34724 0.0
C835 C 0.02646 0.21685 0.30018 0.0
C836 C 0.01197 0.22911 0.29262 0.0
H837 H 0.01438 0.12737 0.04793 0.0
H838 H 0.01086 0.15603 0.09868 0.0
C839 C 0.01036 0.24276 0.33401 0.0
C840 C 0.02642 0.19999 0.26474 0.0
H841 H 0.03668 0.18766 0.1203 0.0
C842 C 0.02191 0.18088 0.29866 0.0
C843 C 0.03147 0.20248 0.19942 0.0
C844 C 0.03652 0.22271 0.16117 0.0
C845 C 0.02252 0.1642 0.26936 0.0
C846 C 0.02837 0.16661 0.20451 0.0
C847 C 0.03236 0.18576 0.17006 0.0
C848 C 0.03084 0.14942 0.17243 0.0
C849 C 0.01663 0.14413 0.30823 0.0
C850 C 0.04349 0.13626 0.19612 0.0
C851 C 0.04533 0.11969 0.16782 0.0
C852 C 0.03476 0.11595 0.11438 0.0
C853 C 0.02247 0.12947 0.08969 0.0
C854 C 0.02057 0.14602 0.11832 0.0
H855 H 0.0069 0.14482 0.34928 0.0
H856 H 0.00913 0.13362 0.27928 0.0
H857 H 0.02977 0.13834 0.32704 0.0
H858 H 0.05193 0.13874 0.23691 0.0
H859 H 0.05481 0.10963 0.1887 0.0
H860 H 0.31546 0.10641 0.43403 0.0
H861 H 0.33955 0.11234 0.34552 0.0
H862 H 0.33475 0.04984 0.34472 0.0
H863 H 0.31051 0.0439 0.43181 0.0
H864 H 0.37467 0.0986 0.3543 0.0
H865 H 0.33504 0.07087 0.15718 0.0
H866 H 0.32278 0.07669 0.2255 0.0
H867 H 0.33139 0.05334 0.22862 0.0
C868 C 0.31912 0.09401 0.41352 0.0
C869 C 0.31115 0.07469 0.43975 0.0
C870 C 0.33295 0.0974 0.3633 0.0
C871 C 0.3388 0.08155 0.33808 0.0
C872 C 0.33018 0.06233 0.36244 0.0
H873 H 0.42989 0.0462 0.14081 0.0
H874 H 0.40125 0.051 0.20038 0.0
C875 C 0.31645 0.05894 0.41258 0.0
C876 C 0.3554 0.08466 0.29158 0.0
H877 H 0.36982 0.07151 0.1527 0.0
C878 C 0.37357 0.0931 0.3095 0.0
C879 C 0.35392 0.07746 0.23321 0.0
C880 C 0.33468 0.06927 0.20969 0.0
C881 C 0.39048 0.09339 0.27252 0.0
C882 C 0.3891 0.0852 0.21591 0.0
C883 C 0.37083 0.07766 0.19641 0.0
C884 C 0.40654 0.08276 0.17912 0.0
C885 C 0.40981 0.1014 0.29598 0.0
C886 C 0.41901 0.09907 0.14736 0.0
C887 C 0.43542 0.09637 0.11285 0.0
C888 C 0.43954 0.07731 0.10935 0.0
C889 C 0.427 0.06106 0.14161 0.0
C890 C 0.41065 0.06377 0.17589 0.0
H891 H 0.40863 0.10443 0.34532 0.0
H892 H 0.42031 0.09087 0.29395 0.0
H893 H 0.41574 0.11534 0.265 0.0
H894 H 0.41594 0.11385 0.14872 0.0
H895 H 0.44464 0.10918 0.0879 0.0
H896 H 0.49272 0.31841 0.29778 0.0
H897 H 0.48717 0.34665 0.22084 0.0
H898 H 0.53233 0.33537 0.09683 0.0
H899 H 0.53825 0.30726 0.17451 0.0
H900 H 0.53773 0.37293 0.12722 0.0
H901 H 0.46302 0.35496 0.04838 0.0
H902 H 0.46462 0.35088 0.13291 0.0
H903 H 0.47662 0.33641 0.08596 0.0
C904 C 0.50121 0.32173 0.25354 0.0
C905 C 0.51601 0.31074 0.24226 0.0
C906 C 0.49789 0.33774 0.20934 0.0
C907 C 0.50921 0.343 0.15285 0.0
C908 C 0.52334 0.33145 0.13997 0.0
H909 H 0.52583 0.45372 0.89084 0.0
H910 H 0.52615 0.41969 0.9392 0.0
C911 C 0.52664 0.31536 0.18418 0.0
C912 C 0.50804 0.36195 0.11186 0.0
H913 H 0.47667 0.38913 0.0308 0.0
C914 C 0.52448 0.37638 0.10522 0.0
C915 C 0.49066 0.36646 0.0839 0.0
C916 C 0.47277 0.3513 0.08759 0.0
C917 C 0.52385 0.39544 0.07334 0.0
C918 C 0.50638 0.40006 0.04625 0.0
C919 C 0.49002 0.38553 0.05175 0.0
C920 C 0.50481 0.42009 0.01346 0.0
C921 C 0.54167 0.41067 0.07119 0.0
C922 C 0.49213 0.43137 0.03773 0.0
C923 C 0.49174 0.45086 0.00976 0.0
C924 C 0.50406 0.45935 0.95704 0.0
C925 C 0.51626 0.44774 0.93167 0.0
C926 C 0.51653 0.42827 0.95938 0.0
H927 H 0.55216 0.4061 0.10705 0.0
H928 H 0.54907 0.41276 0.02377 0.0
H929 H 0.53774 0.42505 0.0793 0.0
H930 H 0.48291 0.42527 0.07937 0.0
H931 H 0.48213 0.45936 0.0303 0.0
H932 H 0.22285 0.4891 0.41031 0.0
H933 H 0.19746 0.4818 0.33611 0.0
H934 H 0.16314 0.44315 0.48663 0.0
H935 H 0.18846 0.45031 0.56103 0.0
H936 H 0.17667 0.44532 0.30158 0.0
H937 H 0.13023 0.48754 0.42609 0.0
H938 H 0.15594 0.48886 0.43723 0.0
H939 H 0.13956 0.46791 0.47529 0.0
C940 C 0.21012 0.47866 0.42722 0.0
C941 C 0.20753 0.47045 0.49162 0.0
C942 C 0.19562 0.47456 0.38486 0.0
C943 C 0.17833 0.46222 0.40627 0.0
C944 C 0.17627 0.45297 0.46952 0.0
H945 H 0.06605 0.44468 0.2383 0.0
H946 H 0.0935 0.44158 0.30664 0.0
C947 C 0.19072 0.45708 0.51188 0.0
C948 C 0.16184 0.46038 0.364 0.0
H949 H 0.11649 0.47267 0.34245 0.0
C950 C 0.16347 0.45123 0.31043 0.0
C951 C 0.14469 0.46817 0.37579 0.0
C952 C 0.14245 0.47883 0.43138 0.0
C953 C 0.14825 0.44949 0.2685 0.0
C954 C 0.13118 0.45747 0.28002 0.0
C955 C 0.12955 0.46647 0.33389 0.0
C956 C 0.115 0.45733 0.23601 0.0
C957 C 0.15049 0.43893 0.2128 0.0
C958 C 0.11799 0.46708 0.17342 0.0
C959 C 0.10234 0.46874 0.13402 0.0
C960 C 0.08335 0.46084 0.15668 0.0
C961 C 0.08048 0.4507 0.21901 0.0
C962 C 0.09615 0.44901 0.25829 0.0
H963 H 0.16152 0.42884 0.22093 0.0
H964 H 0.13652 0.43033 0.20288 0.0
H965 H 0.15533 0.44991 0.1702 0.0
H966 H 0.13234 0.47397 0.15559 0.0
H967 H 0.10509 0.47646 0.08607 0.0
H968 H 0.03929 0.81324 0.31466 0.0
H969 H 0.03579 0.8366 0.38727 0.0
H970 H 0.98181 0.8021 0.46247 0.0
H971 H 0.98527 0.77855 0.38923 0.0
H972 H 1.00126 0.85643 0.37831 0.0
H973 H 0.01138 0.81878 0.62196 0.0
H974 H 0.02171 0.81151 0.5526 0.0
H975 H 0.99618 0.80551 0.57075 0.0
C976 C 0.02696 0.8103 0.34803 0.0
C977 C 0.01256 0.79406 0.34635 0.0
C978 C 0.02495 0.8237 0.38935 0.0
C979 C 0.00855 0.82114 0.43031 0.0
C980 C 0.9947 0.80425 0.4318 0.0
H981 H 0.97224 0.90314 0.6692 0.0
H982 H 0.97521 0.87379 0.62088 0.0
C983 C 0.99672 0.79076 0.39018 0.0
C984 C 0.00502 0.8374 0.46504 0.0
H985 H 0.00393 0.85117 0.61177 0.0
C986 C 1.0018 0.85527 0.42939 0.0
C987 C 0.00546 0.83579 0.53167 0.0
C988 C 0.00895 0.81693 0.57189 0.0
C989 C 0.99921 0.87161 0.4583 0.0
C990 C 1.00045 0.87033 0.52485 0.0
C991 C 0.00315 0.85226 0.56079 0.0
C992 C 0.99935 0.88774 0.55728 0.0
C993 C 0.99488 0.89 0.41706 0.0
C994 C 0.01226 0.90523 0.53912 0.0
C995 C 0.01049 0.92203 0.56622 0.0
C996 C 0.99597 0.92168 0.61305 0.0
C997 C 0.9836 0.9039 0.63332 0.0
C998 C 0.98526 0.88712 0.60565 0.0
H999 H 0.98839 0.88666 0.37217 0.0
H1000 H 0.98481 0.89762 0.44187 0.0
H1001 H 0.00859 0.90021 0.40457 0.0
H1002 H 0.02365 0.90597 0.5034 0.0
H1003 H 0.02054 0.93533 0.55049 0.0
H1004 H 0.70702 0.99559 0.28757 0.0
H1005 H 0.68285 0.98699 0.37505 0.0
H1006 H 0.68317 0.92536 0.36809 0.0
H1007 H 0.70729 0.93395 0.27951 0.0
H1008 H 0.64658 0.93634 0.35995 0.0
H1009 H 0.68349 0.96406 0.56199 0.0
H1010 H 0.68642 0.98219 0.4919 0.0
H1011 H 0.69659 0.95974 0.49303 0.0
C1012 C 0.70223 0.9802 0.30559 0.0
C1013 C 0.70897 0.96543 0.27675 0.0
C1014 C 0.68854 0.9753 0.35591 0.0
C1015 C 0.68137 0.95553 0.37858 0.0
C1016 C 0.68866 0.9407 0.35162 0.0
H1017 H 0.59077 0.93533 0.68308 0.0
H1018 H 0.61951 0.93088 0.62211 0.0
C1019 C 0.70248 0.94561 0.30135 0.0
C1020 C 0.66466 0.95072 0.42483 0.0
H1021 H 0.64846 0.96105 0.56577 0.0
C1022 C 0.64708 0.94136 0.40557 0.0
C1023 C 0.66535 0.95707 0.4846 0.0
C1024 C 0.68404 0.96614 0.50941 0.0
C1025 C 0.62991 0.93938 0.44265 0.0
C1026 C 0.63032 0.94717 0.50001 0.0
C1027 C 0.64812 0.95531 0.52133 0.0
C1028 C 0.61231 0.94851 0.5358 0.0
C1029 C 0.61139 0.92939 0.41934 0.0
C1030 C 0.59878 0.9599 0.50743 0.0
C1031 C 0.58241 0.96245 0.54197 0.0
C1032 C 0.57927 0.95371 0.60573 0.0
C1033 C 0.59268 0.94204 0.63382 0.0
C1034 C 0.60914 0.93957 0.59922 0.0
H1035 H 0.61435 0.91909 0.38662 0.0
H1036 H 0.60178 0.92113 0.45938 0.0
H1037 H 0.60354 0.94069 0.393 0.0
H1038 H 0.60113 0.96722 0.45888 0.0
H1039 H 0.57229 0.97142 0.51892 0.0
H1040 H 0.45572 0.70811 0.50032 0.0
H1041 H 0.464 0.68031 0.57407 0.0
H1042 H 0.52185 0.71098 0.58359 0.0
H1043 H 0.51356 0.739 0.50994 0.0
H1044 H 0.4931 0.65961 0.54248 0.0
H1045 H 0.50696 0.68749 0.77011 0.0
H1046 H 0.4935 0.69967 0.70848 0.0
H1047 H 0.51945 0.7023 0.70111 0.0
C1048 C 0.47008 0.70908 0.51919 0.0
C1049 C 0.48404 0.72563 0.49929 0.0
C1050 C 0.47479 0.69322 0.56127 0.0
C1051 C 0.49352 0.69361 0.58433 0.0
C1052 C 0.50723 0.71052 0.56711 0.0
H1053 H 0.53729 0.58314 0.71817 0.0
H1054 H 0.53516 0.61645 0.66436 0.0
C1055 C 0.50248 0.72649 0.52509 0.0
C1056 C 0.49909 0.67547 0.62053 0.0
H1057 H 0.51382 0.65538 0.7642 0.0
C1058 C 0.4977 0.65869 0.59091 0.0
C1059 C 0.50503 0.67437 0.68364 0.0
C1060 C 0.50621 0.69184 0.71812 0.0
C1061 C 0.50176 0.64069 0.62296 0.0
C1062 C 0.50781 0.63955 0.68602 0.0
C1063 C 0.50941 0.65639 0.71557 0.0
C1064 C 0.51098 0.62059 0.72327 0.0
C1065 C 0.49884 0.62287 0.58978 0.0
C1066 C 0.49865 0.61227 0.77577 0.0
C1067 C 0.49987 0.59333 0.80669 0.0
C1068 C 0.5135 0.58235 0.78575 0.0
C1069 C 0.52651 0.59112 0.73509 0.0
C1070 C 0.52529 0.61012 0.7042 0.0
H1071 H 0.49021 0.62533 0.54685 0.0
H1072 H 0.51316 0.61952 0.57488 0.0
H1073 H 0.49137 0.60982 0.62199 0.0
H1074 H 0.48755 0.62014 0.79135 0.0
H1075 H 0.48971 0.58713 0.84588 0.0
H1076 H 0.83966 0.57838 0.155 0.0
H1077 H 0.8632 0.58289 0.23638 0.0
H1078 H 0.81719 0.5684 0.38051 0.0
H1079 H 0.79354 0.56295 0.29923 0.0
H1080 H 0.86864 0.60607 0.32868 0.0
H1081 H 0.85189 0.52704 0.43392 0.0
H1082 H 0.84275 0.53675 0.35914 0.0
H1083 H 0.83174 0.54055 0.43204 0.0
C1084 C 0.83451 0.57615 0.20402 0.0
C1085 C 0.81478 0.56988 0.22079 0.0
C1086 C 0.84798 0.57891 0.25044 0.0
C1087 C 0.842 0.57556 0.31461 0.0
C1088 C 0.82215 0.57063 0.33133 0.0
H1089 H 0.92891 0.59563 0.60184 0.0
H1090 H 0.90065 0.59852 0.53621 0.0
C1091 C 0.80864 0.56773 0.28479 0.0
C1092 C 0.85684 0.57594 0.36341 0.0
H1093 H 0.87641 0.54634 0.47985 0.0
C1094 C 0.87026 0.59309 0.36224 0.0
C1095 C 0.85905 0.55888 0.40648 0.0
C1096 C 0.84573 0.53969 0.40789 0.0
C1097 C 0.88612 0.59349 0.40187 0.0
C1098 C 0.88835 0.57639 0.44471 0.0
C1099 C 0.87462 0.55944 0.4471 0.0
C1100 C 0.90554 0.57515 0.48418 0.0
C1101 C 0.9008 0.6119 0.39542 0.0
C1102 C 0.91745 0.56085 0.47753 0.0
C1103 C 0.9334 0.55905 0.51528 0.0
C1104 C 0.93782 0.57154 0.56044 0.0
C1105 C 0.92598 0.58597 0.56684 0.0
C1106 C 0.90987 0.58766 0.52932 0.0
H1107 H 0.89937 0.62199 0.35072 0.0
H1108 H 0.89857 0.61987 0.43551 0.0
H1109 H 0.91579 0.60823 0.39671 0.0
H1110 H 0.9144 0.55107 0.44292 0.0
H1111 H 0.94238 0.54794 0.50881 0.0
loop_
_geom_bond_atom_site_label_1
_geom_bond_atom_site_label_2
_geom_bond_distance
_geom_bond_site_symmetry_2
_ccdc_geom_bond_type
H0 C3 0.929 . S
H1 C6 0.929 . S
H2 C8 0.930 . S
C3 H0 0.929 . S
C3 C4 1.398 . S
C3 C5 1.396 1_554 S
C4 C3 1.398 . S
C4 C8 1.407 . S
C5 C3 1.396 1_556 S
C5 C6 1.394 . S
C6 H1 0.929 . S
C6 C5 1.394 . S
C6 C7 1.382 1_556 S
C7 C6 1.382 1_554 S
C7 C8 1.392 . S
C7 N9 1.420 . S
C8 H2 0.930 . S
C8 C4 1.407 . S
C8 C7 1.392 . S
N9 C7 1.420 . S
N9 C10 1.244 1_554 S
C10 N9 1.244 1_556 S
H11 C14 0.929 . S
H12 C17 0.929 . S
H13 C19 0.930 . S
C14 H11 0.929 . S
C14 C15 1.398 . S
C14 C16 1.396 . S
C15 C14 1.398 . S
C15 C19 1.407 1_655 S
C16 C14 1.396 . S
C16 C17 1.394 1_655 S
C17 H12 0.929 . S
C17 C16 1.394 1_455 S
C17 C18 1.382 . S
C18 C17 1.382 . S
C18 C19 1.392 . S
C18 N20 1.420 . S
C19 H13 0.930 . S
C19 C15 1.407 1_455 S
C19 C18 1.392 . S
N20 C18 1.420 . S
N20 C21 1.244 1_455 S
C21 N20 1.244 1_655 S
H22 C25 0.929 . S
H23 C28 0.929 . S
H24 C30 0.930 . S
C25 H22 0.929 . S
C25 C26 1.398 . S
C25 C27 1.396 . S
C26 C25 1.398 . S
C26 C30 1.407 . S
C27 C25 1.396 . S
C27 C28 1.394 . S
C28 H23 0.929 . S
C28 C27 1.394 . S
C28 C29 1.382 . S
C29 C28 1.382 . S
C29 C30 1.392 . S
C29 N31 1.420 . S
C30 H24 0.930 . S
C30 C26 1.407 . S
C30 C29 1.392 . S
N31 C29 1.420 . S
N31 C32 1.244 . S
C32 N31 1.244 . S
H33 C36 0.929 . S
H34 C39 0.929 . S
H35 C41 0.930 . S
C36 H33 0.929 . S
C36 C37 1.398 . S
C36 C38 1.396 . S
C37 C36 1.398 . S
C37 C41 1.407 . S
C38 C36 1.396 . S
C38 C39 1.394 . S
C39 H34 0.929 . S
C39 C38 1.394 . S
C39 C40 1.382 . S
C40 C39 1.382 . S
C40 C41 1.392 . S
C40 N42 1.420 . S
C41 H35 0.930 . S
C41 C37 1.407 . S
C41 C40 1.392 . S
N42 C40 1.420 . S
N42 C43 1.244 . S
C43 N42 1.244 . S
H44 C47 0.929 . S
H45 C50 0.929 . S
H46 C52 0.930 . S
C47 H44 0.929 . S
C47 C48 1.398 . S
C47 C49 1.396 . S
C48 C47 1.398 . S
C48 C52 1.407 . S
C49 C47 1.396 . S
C49 C50 1.394 . S
C50 H45 0.929 . S
C50 C49 1.394 . S
C50 C51 1.382 . S
C51 C50 1.382 . S
C51 C52 1.392 . S
C51 N53 1.420 . S
C52 H46 0.930 . S
C52 C48 1.407 . S
C52 C51 1.392 . S
N53 C51 1.420 . S
N53 C54 1.244 . S
C54 N53 1.244 . S
H55 C58 0.929 . S
H56 C61 0.929 . S
H57 C63 0.930 . S
C58 H55 0.929 . S
C58 C59 1.398 . S
C58 C60 1.396 . S
C59 C58 1.398 . S
C59 C63 1.407 . S
C60 C58 1.396 . S
C60 C61 1.394 . S
C61 H56 0.929 . S
C61 C60 1.394 . S
C61 C62 1.382 . S
C62 C61 1.382 . S
C62 C63 1.392 . S
C62 N64 1.420 . S
C63 H57 0.930 . S
C63 C59 1.407 . S
C63 C62 1.392 . S
N64 C62 1.420 . S
N64 C65 1.244 . S
C65 N64 1.244 . S
H66 C69 0.929 . S
H67 C72 0.929 . S
H68 C74 0.930 . S
C69 H66 0.929 . S
C69 C70 1.398 . S
C69 C71 1.396 . S
C70 C69 1.398 . S
C70 C74 1.407 . S
C71 C69 1.396 . S
C71 C72 1.394 . S
C72 H67 0.929 . S
C72 C71 1.394 . S
C72 C73 1.382 . S
C73 C72 1.382 . S
C73 C74 1.392 . S
C73 N75 1.420 . S
C74 H68 0.930 . S
C74 C70 1.407 . S
C74 C73 1.392 . S
N75 C73 1.420 . S
N75 C76 1.244 . S
C76 N75 1.244 . S
H77 C80 0.929 . S
H78 C83 0.929 . S
H79 C85 0.930 . S
C80 H77 0.929 . S
C80 C81 1.398 . S
C80 C82 1.396 . S
C81 C80 1.398 . S
C81 C85 1.407 . S
C82 C80 1.396 . S
C82 C83 1.394 . S
C83 H78 0.929 . S
C83 C82 1.394 . S
C83 C84 1.382 . S
C84 C83 1.382 . S
C84 C85 1.392 . S
C84 N86 1.420 . S
C85 H79 0.930 . S
C85 C81 1.407 . S
C85 C84 1.392 . S
N86 C84 1.420 . S
N86 C87 1.244 . S
C87 N86 1.244 . S
Nd88 C90 2.836 1_545 S
Nd88 O108 2.500 1_445 S
Nd88 O109 2.492 1_545 S
Nd88 O110 2.487 . S
Nd88 O111 2.682 . S
Nd88 O112 2.410 1_545 S
Nd88 O117 2.414 1_455 S
Nd88 O119 2.424 . S
Nd89 C99 2.836 1_556 S
Nd89 O111 2.414 . S
Nd89 O113 2.424 1_545 S
Nd89 O114 2.500 . S
Nd89 O115 2.492 1_456 S
Nd89 O116 2.487 1_455 S
Nd89 O117 2.682 1_455 S
Nd89 O118 2.396 1_455 S
C90 Nd88 2.836 1_565 S
C90 C91 1.498 . S
C90 O108 1.258 1_455 S
C90 O109 1.239 . S
C91 C90 1.498 . S
C91 C92 1.371 1_455 S
C91 C96 1.403 . S
C92 C91 1.371 1_655 S
C92 C93 1.392 . S
C92 H120 0.930 . S
C93 C92 1.392 . S
C93 C94 1.398 . S
C93 H121 0.929 . S
C94 C93 1.398 . S
C94 C95 1.352 1_655 S
C95 C94 1.352 1_455 S
C95 C96 1.384 . S
C95 H122 0.930 . S
C96 C91 1.403 . S
C96 C95 1.384 . S
C96 H123 0.929 . S
C97 O110 1.241 . S
C97 O111 1.273 . S
C98 O112 1.251 . S
C98 O113 1.268 . S
C99 Nd89 2.836 1_554 S
C99 C100 1.498 . S
C99 O114 1.258 1_554 S
C99 O115 1.239 1_455 S
C100 C99 1.498 . S
C100 C101 1.366 . S
C100 C105 1.410 . S
C101 C100 1.366 . S
C101 C102 1.392 . S
C101 H124 0.930 1_554 S
C102 C101 1.392 . S
C102 C103 1.398 . S
C102 H125 0.929 . S
C103 C102 1.398 . S
C103 C104 1.352 . S
C104 C103 1.352 . S
C104 C105 1.384 . S
C104 H126 0.930 1_455 S
C105 C100 1.410 . S
C105 C104 1.384 . S
C105 H127 0.926 1_455 S
C106 O116 1.241 . S
C106 O117 1.273 . S
C107 O118 1.245 1_455 S
C107 O119 1.268 . S
O108 Nd88 2.500 1_665 S
O108 C90 1.258 1_655 S
O109 Nd88 2.492 1_565 S
O109 C90 1.239 . S
O110 Nd88 2.487 . S
O110 C97 1.241 . S
O111 Nd88 2.682 . S
O111 Nd89 2.414 . S
O111 C97 1.273 . S
O112 Nd88 2.410 1_565 S
O112 C98 1.251 . S
O113 Nd89 2.424 1_565 S
O113 C98 1.268 . S
O114 Nd89 2.500 . S
O114 C99 1.258 1_556 S
O115 Nd89 2.492 1_654 S
O115 C99 1.239 1_655 S
O116 Nd89 2.487 1_655 S
O116 C106 1.241 . S
O117 Nd88 2.414 1_655 S
O117 Nd89 2.682 1_655 S
O117 C106 1.273 . S
O118 Nd89 2.396 1_655 S
O118 C107 1.245 1_655 S
O119 Nd88 2.424 . S
O119 C107 1.268 . S
H120 C92 0.930 . S
H121 C93 0.929 . S
H122 C95 0.930 . S
H123 C96 0.929 . S
H124 C101 0.930 1_556 S
H125 C102 0.929 . S
H126 C104 0.930 1_655 S
H127 C105 0.926 1_655 S
Nd128 C130 2.836 1_545 S
Nd128 O148 2.500 1_545 S
Nd128 O149 2.492 . S
Nd128 O150 2.487 . S
Nd128 O151 2.682 . S
Nd128 O152 2.410 . S
Nd128 O157 2.414 1_545 S
Nd128 O159 2.424 . S
Nd129 C139 2.836 1_556 S
Nd129 O151 2.414 . S
Nd129 O153 2.424 . S
Nd129 O154 2.500 . S
Nd129 O155 2.492 1_556 S
Nd129 O156 2.487 1_545 S
Nd129 O157 2.682 1_545 S
Nd129 O158 2.410 . S
C130 Nd128 2.836 1_565 S
C130 C131 1.498 . S
C130 O148 1.258 . S
C130 O149 1.239 1_565 S
C131 C130 1.498 . S
C131 C132 1.366 . S
C131 C136 1.407 . S
C132 C131 1.366 . S
C132 C133 1.392 . S
C132 H160 0.930 . S
C133 C132 1.392 . S
C133 C134 1.398 . S
C133 H161 0.929 . S
C134 C133 1.398 . S
C134 C135 1.352 . S
C135 C134 1.352 . S
C135 C136 1.384 . S
C135 H162 0.930 . S
C136 C131 1.407 . S
C136 C135 1.384 . S
C136 H163 0.929 1_565 S
C137 O150 1.241 . S
C137 O151 1.273 . S
C138 O152 1.251 . S
C138 O153 1.268 . S
C139 Nd129 2.836 1_554 S
C139 C140 1.498 . S
C139 O154 1.258 1_554 S
C139 O155 1.239 . S
C140 C139 1.498 . S
C140 C141 1.366 . S
C140 C145 1.407 . S
C141 C140 1.366 . S
C141 C142 1.392 . S
C141 H164 0.930 1_554 S
C142 C141 1.392 . S
C142 C143 1.398 . S
C142 H165 0.929 . S
C143 C142 1.398 . S
C143 C144 1.352 . S
C144 C143 1.352 . S
C144 C145 1.384 . S
C144 H166 0.930 . S
C145 C140 1.407 . S
C145 C144 1.384 . S
C145 H167 0.929 . S
C146 O156 1.241 . S
C146 O157 1.273 . S
C147 O158 1.251 . S
C147 O159 1.268 . S
O148 Nd128 2.500 1_565 S
O148 C130 1.258 . S
O149 Nd128 2.492 . S
O149 C130 1.239 1_545 S
O150 Nd128 2.487 . S
O150 C137 1.241 . S
O151 Nd128 2.682 . S
O151 Nd129 2.414 . S
O151 C137 1.273 . S
O152 Nd128 2.410 . S
O152 C138 1.251 . S
O153 Nd129 2.424 . S
O153 C138 1.268 . S
O154 Nd129 2.500 . S
O154 C139 1.258 1_556 S
O155 Nd129 2.492 1_554 S
O155 C139 1.239 . S
O156 Nd129 2.487 1_565 S
O156 C146 1.241 . S
O157 Nd128 2.414 1_565 S
O157 Nd129 2.682 1_565 S
O157 C146 1.273 . S
O158 Nd129 2.410 . S
O158 C147 1.251 . S
O159 Nd128 2.424 . S
O159 C147 1.268 . S
H160 C132 0.930 . S
H161 C133 0.929 . S
H162 C135 0.930 . S
H163 C136 0.929 1_545 S
H164 C141 0.930 1_556 S
H165 C142 0.929 . S
H166 C144 0.930 . S
H167 C145 0.929 . S
Nd168 C170 2.836 . S
Nd168 O188 2.500 . S
Nd168 O189 2.492 . S
Nd168 O190 2.487 . S
Nd168 O191 2.682 . S
Nd168 O192 2.410 . S
Nd168 O197 2.414 . S
Nd168 O199 2.424 . S
Nd169 C179 2.836 . S
Nd169 O191 2.414 . S
Nd169 O193 2.424 . S
Nd169 O194 2.500 . S
Nd169 O195 2.492 . S
Nd169 O196 2.487 . S
Nd169 O197 2.682 . S
Nd169 O198 2.410 . S
C170 Nd168 2.836 . S
C170 C171 1.498 . S
C170 O188 1.258 . S
C170 O189 1.239 . S
C171 C170 1.498 . S
C171 C172 1.366 . S
C171 C176 1.407 1_556 S
C172 C171 1.366 . S
C172 C173 1.384 1_556 S
C172 H200 0.930 . S
C173 C172 1.384 1_554 S
C173 C174 1.411 . S
C173 H201 0.925 1_554 S
C174 C173 1.411 . S
C174 C175 1.352 . S
C175 C174 1.352 . S
C175 C176 1.384 . S
C175 H202 0.930 . S
C176 C171 1.407 1_554 S
C176 C175 1.384 . S
C176 H203 0.929 . S
C177 O190 1.241 . S
C177 O191 1.273 . S
C178 O192 1.251 . S
C178 O193 1.268 . S
C179 Nd169 2.836 . S
C179 C180 1.498 . S
C179 O194 1.258 . S
C179 O195 1.239 . S
C180 C179 1.498 . S
C180 C181 1.366 . S
C180 C185 1.407 . S
C181 C180 1.366 . S
C181 C182 1.392 . S
C181 H204 0.930 . S
C182 C181 1.392 . S
C182 C183 1.398 . S
C182 H205 0.929 . S
C183 C182 1.398 . S
C183 C184 1.352 . S
C184 C183 1.352 . S
C184 C185 1.384 . S
C184 H206 0.930 . S
C185 C180 1.407 . S
C185 C184 1.384 . S
C185 H207 0.929 . S
C186 O196 1.241 . S
C186 O197 1.273 . S
C187 O198 1.251 . S
C187 O199 1.268 . S
O188 Nd168 2.500 . S
O188 C170 1.258 . S
O189 Nd168 2.492 . S
O189 C170 1.239 . S
O190 Nd168 2.487 . S
O190 C177 1.241 . S
O191 Nd168 2.682 . S
O191 Nd169 2.414 . S
O191 C177 1.273 . S
O192 Nd168 2.410 . S
O192 C178 1.251 . S
O193 Nd169 2.424 . S
O193 C178 1.268 . S
O194 Nd169 2.500 . S
O194 C179 1.258 . S
O195 Nd169 2.492 . S
O195 C179 1.239 . S
O196 Nd169 2.487 . S
O196 C186 1.241 . S
O197 Nd168 2.414 . S
O197 Nd169 2.682 . S
O197 C186 1.273 . S
O198 Nd169 2.410 . S
O198 C187 1.251 . S
O199 Nd168 2.424 . S
O199 C187 1.268 . S
H200 C172 0.930 . S
H201 C173 0.925 1_556 S
H202 C175 0.930 . S
H203 C176 0.929 . S
H204 C181 0.930 . S
H205 C182 0.929 . S
H206 C184 0.930 . S
H207 C185 0.929 . S
Nd208 C210 2.836 1_455 S
Nd208 O228 2.500 1_455 S
Nd208 O229 2.492 1_455 S
Nd208 O230 2.487 1_455 S
Nd208 O231 2.682 . S
Nd208 O232 2.410 1_455 S
Nd208 O237 2.414 . S
Nd208 O239 2.424 . S
Nd209 C219 2.836 1_556 S
Nd209 O231 2.414 . S
Nd209 O233 2.424 1_455 S
Nd209 O234 2.500 1_556 S
Nd209 O235 2.492 1_556 S
Nd209 O236 2.487 . S
Nd209 O237 2.682 . S
Nd209 O238 2.410 . S
C210 Nd208 2.836 1_655 S
C210 C211 1.498 . S
C210 O228 1.258 . S
C210 O229 1.239 . S
C211 C210 1.498 . S
C211 C212 1.366 . S
C211 C216 1.407 . S
C212 C211 1.366 . S
C212 C213 1.392 . S
C212 H240 0.930 . S
C213 C212 1.392 . S
C213 C214 1.398 . S
C213 H241 0.929 . S
C214 C213 1.398 . S
C214 C215 1.352 . S
C215 C214 1.352 . S
C215 C216 1.384 . S
C215 H242 0.930 . S
C216 C211 1.407 . S
C216 C215 1.384 . S
C216 H243 0.929 . S
C217 O230 1.241 1_455 S
C217 O231 1.273 . S
C218 O232 1.251 . S
C218 O233 1.268 . S
C219 Nd209 2.836 1_554 S
C219 C220 1.498 . S
C219 O234 1.258 . S
C219 O235 1.239 . S
C220 C219 1.498 . S
C220 C221 1.366 . S
C220 C225 1.407 . S
C221 C220 1.366 . S
C221 C222 1.392 . S
C221 H244 0.930 . S
C222 C221 1.392 . S
C222 C223 1.398 . S
C222 H245 0.929 . S
C223 C222 1.398 . S
C223 C224 1.352 . S
C224 C223 1.352 . S
C224 C225 1.384 . S
C224 H246 0.930 . S
C225 C220 1.407 . S
C225 C224 1.384 . S
C225 H247 0.929 . S
C226 O236 1.241 . S
C226 O237 1.273 . S
C227 O238 1.251 . S
C227 O239 1.268 . S
O228 Nd208 2.500 1_655 S
O228 C210 1.258 . S
O229 Nd208 2.492 1_655 S
O229 C210 1.239 . S
O230 Nd208 2.487 1_655 S
O230 C217 1.241 1_655 S
O231 Nd208 2.682 . S
O231 Nd209 2.414 . S
O231 C217 1.273 . S
O232 Nd208 2.410 1_655 S
O232 C218 1.251 . S
O233 Nd209 2.424 1_655 S
O233 C218 1.268 . S
O234 Nd209 2.500 1_554 S
O234 C219 1.258 . S
O235 Nd209 2.492 1_554 S
O235 C219 1.239 . S
O236 Nd209 2.487 . S
O236 C226 1.241 . S
O237 Nd208 2.414 . S
O237 Nd209 2.682 . S
O237 C226 1.273 . S
O238 Nd209 2.410 . S
O238 C227 1.251 . S
O239 Nd208 2.424 . S
O239 C227 1.268 . S
H240 C212 0.930 . S
H241 C213 0.929 . S
H242 C215 0.930 . S
H243 C216 0.929 . S
H244 C221 0.930 . S
H245 C222 0.929 . S
H246 C224 0.930 . S
H247 C225 0.929 . S
H248 C256 0.929 . S
H249 C258 0.930 . S
H250 C260 0.930 . S
H251 C263 0.929 . S
H252 C266 0.930 . S
H253 C268 0.960 . S
H254 C268 0.960 . S
H255 C268 0.960 . S
C256 H248 0.929 . S
C256 C257 1.377 . S
C256 C258 1.384 . S
C257 C256 1.377 . S
C257 C263 1.390 . S
C258 H249 0.930 . S
C258 C256 1.384 . S
C258 C259 1.372 . S
C259 C258 1.372 . S
C259 C260 1.400 . S
C259 C264 1.490 . S
C260 H250 0.930 . S
C260 C259 1.400 . S
C260 C263 1.386 . S
H261 C277 0.930 . S
H262 C278 0.931 . S
C263 H251 0.929 . S
C263 C257 1.390 . S
C263 C260 1.386 . S
C264 C259 1.490 . S
C264 C266 1.395 . S
C264 C267 1.403 . S
H265 C271 0.930 . S
C266 H252 0.930 . S
C266 C264 1.395 . S
C266 C269 1.403 . S
C267 C264 1.403 . S
C267 C268 1.524 . S
C267 C271 1.400 . S
C268 H253 0.960 . S
C268 H254 0.960 . S
C268 H255 0.960 . S
C268 C267 1.524 . S
C269 C266 1.403 . S
C269 C270 1.392 . S
C269 C273 1.495 . S
C270 C269 1.392 . S
C270 C271 1.385 . S
C270 C272 1.478 . S
C271 H265 0.930 . S
C271 C267 1.400 . S
C271 C270 1.385 . S
C272 C270 1.478 . S
C272 C274 1.381 . S
C272 C278 1.383 . S
C273 C269 1.495 . S
C273 H279 0.959 . S
C273 H280 0.961 . S
C273 H281 0.960 . S
C274 C272 1.381 . S
C274 C275 1.394 . S
C274 H282 0.930 . S
C275 C274 1.394 . S
C275 C276 1.383 . S
C275 H283 0.929 . S
C276 C275 1.383 . S
C276 C277 1.377 . S
C277 H261 0.930 . S
C277 C276 1.377 . S
C277 C278 1.379 . S
C278 H262 0.931 . S
C278 C272 1.383 . S
C278 C277 1.379 . S
H279 C273 0.959 . S
H280 C273 0.961 . S
H281 C273 0.960 . S
H282 C274 0.930 . S
H283 C275 0.929 . S
H284 C292 0.929 . S
H285 C294 0.930 . S
H286 C296 0.930 . S
H287 C299 0.929 . S
H288 C302 0.930 . S
H289 C304 0.960 . S
H290 C304 0.960 . S
H291 C304 0.960 . S
C292 H284 0.929 . S
C292 C293 1.377 . S
C292 C294 1.384 . S
C293 C292 1.377 . S
C293 C299 1.390 . S
C294 H285 0.930 . S
C294 C292 1.384 . S
C294 C295 1.372 . S
C295 C294 1.372 . S
C295 C296 1.400 . S
C295 C300 1.490 . S
C296 H286 0.930 . S
C296 C295 1.400 . S
C296 C299 1.386 . S
H297 C313 0.930 . S
H298 C314 0.931 . S
C299 H287 0.929 . S
C299 C293 1.390 . S
C299 C296 1.386 . S
C300 C295 1.490 . S
C300 C302 1.395 . S
C300 C303 1.403 . S
H301 C307 0.930 . S
C302 H288 0.930 . S
C302 C300 1.395 . S
C302 C305 1.403 . S
C303 C300 1.403 . S
C303 C304 1.524 . S
C303 C307 1.400 . S
C304 H289 0.960 . S
C304 H290 0.960 . S
C304 H291 0.960 . S
C304 C303 1.524 . S
C305 C302 1.403 . S
C305 C306 1.392 . S
C305 C309 1.495 . S
C306 C305 1.392 . S
C306 C307 1.385 . S
C306 C308 1.478 . S
C307 H301 0.930 . S
C307 C303 1.400 . S
C307 C306 1.385 . S
C308 C306 1.478 . S
C308 C310 1.381 . S
C308 C314 1.383 . S
C309 C305 1.495 . S
C309 H315 0.959 . S
C309 H316 0.961 . S
C309 H317 0.960 . S
C310 C308 1.381 . S
C310 C311 1.394 . S
C310 H318 0.930 . S
C311 C310 1.394 . S
C311 C312 1.383 . S
C311 H319 0.929 . S
C312 C311 1.383 . S
C312 C313 1.377 . S
C313 H297 0.930 . S
C313 C312 1.377 . S
C313 C314 1.379 . S
C314 H298 0.931 . S
C314 C308 1.383 . S
C314 C313 1.379 . S
H315 C309 0.959 . S
H316 C309 0.961 . S
H317 C309 0.960 . S
H318 C310 0.930 . S
H319 C311 0.929 . S
H320 C328 0.929 . S
H321 C330 0.930 . S
H322 C332 0.930 . S
H323 C335 0.929 . S
H324 C338 0.930 . S
H325 C340 0.960 . S
H326 C340 0.960 . S
H327 C340 0.960 . S
C328 H320 0.929 . S
C328 C329 1.377 . S
C328 C330 1.384 . S
C329 C328 1.377 . S
C329 C335 1.390 . S
C330 H321 0.930 . S
C330 C328 1.384 . S
C330 C331 1.372 . S
C331 C330 1.372 . S
C331 C332 1.400 . S
C331 C336 1.490 . S
C332 H322 0.930 . S
C332 C331 1.400 . S
C332 C335 1.386 . S
H333 C349 0.930 . S
H334 C350 0.931 . S
C335 H323 0.929 . S
C335 C329 1.390 . S
C335 C332 1.386 . S
C336 C331 1.490 . S
C336 C338 1.395 . S
C336 C339 1.403 . S
H337 C343 0.930 . S
C338 H324 0.930 . S
C338 C336 1.395 . S
C338 C341 1.403 . S
C339 C336 1.403 . S
C339 C340 1.524 . S
C339 C343 1.400 . S
C340 H325 0.960 . S
C340 H326 0.960 . S
C340 H327 0.960 . S
C340 C339 1.524 . S
C341 C338 1.403 . S
C341 C342 1.392 . S
C341 C345 1.495 . S
C342 C341 1.392 . S
C342 C343 1.385 . S
C342 C344 1.478 . S
C343 H337 0.930 . S
C343 C339 1.400 . S
C343 C342 1.385 . S
C344 C342 1.478 . S
C344 C346 1.381 . S
C344 C350 1.383 . S
C345 C341 1.495 . S
C345 H351 0.959 . S
C345 H352 0.961 . S
C345 H353 0.960 . S
C346 C344 1.381 . S
C346 C347 1.394 . S
C346 H354 0.930 . S
C347 C346 1.394 . S
C347 C348 1.383 . S
C347 H355 0.929 . S
C348 C347 1.383 . S
C348 C349 1.377 . S
C349 H333 0.930 . S
C349 C348 1.377 . S
C349 C350 1.379 . S
C350 H334 0.931 . S
C350 C344 1.383 . S
C350 C349 1.379 . S
H351 C345 0.959 . S
H352 C345 0.961 . S
H353 C345 0.960 . S
H354 C346 0.930 . S
H355 C347 0.929 . S
H356 C364 0.929 . S
H357 C366 0.930 . S
H358 C368 0.930 1_655 S
H359 C371 0.929 1_655 S
H360 C374 0.930 . S
H361 C376 0.960 . S
H362 C376 0.960 . S
H363 C376 0.960 . S
C364 H356 0.929 . S
C364 C365 1.377 . S
C364 C366 1.384 . S
C365 C364 1.377 . S
C365 C371 1.390 . S
C366 H357 0.930 . S
C366 C364 1.384 . S
C366 C367 1.372 . S
C367 C366 1.372 . S
C367 C368 1.400 . S
C367 C372 1.490 . S
C368 H358 0.930 1_455 S
C368 C367 1.400 . S
C368 C371 1.386 . S
H369 C385 0.930 . S
H370 C386 0.931 . S
C371 H359 0.929 1_455 S
C371 C365 1.390 . S
C371 C368 1.386 . S
C372 C367 1.490 . S
C372 C374 1.395 . S
C372 C375 1.403 1_455 S
H373 C379 0.930 . S
C374 H360 0.930 . S
C374 C372 1.395 . S
C374 C377 1.403 . S
C375 C372 1.403 1_655 S
C375 C376 1.524 . S
C375 C379 1.400 . S
C376 H361 0.960 . S
C376 H362 0.960 . S
C376 H363 0.960 . S
C376 C375 1.524 . S
C377 C374 1.403 . S
C377 C378 1.392 . S
C377 C381 1.495 . S
C378 C377 1.392 . S
C378 C379 1.385 1_455 S
C378 C380 1.478 . S
C379 H373 0.930 . S
C379 C375 1.400 . S
C379 C378 1.385 1_655 S
C380 C378 1.478 . S
C380 C382 1.381 . S
C380 C386 1.383 1_455 S
C381 C377 1.495 . S
C381 H387 0.959 . S
C381 H388 0.961 . S
C381 H389 0.960 . S
C382 C380 1.381 . S
C382 C383 1.394 . S
C382 H390 0.930 . S
C383 C382 1.394 . S
C383 C384 1.383 . S
C383 H391 0.929 . S
C384 C383 1.383 . S
C384 C385 1.377 1_455 S
C385 H369 0.930 . S
C385 C384 1.377 1_655 S
C385 C386 1.379 . S
C386 H370 0.931 . S
C386 C380 1.383 1_655 S
C386 C385 1.379 . S
H387 C381 0.959 . S
H388 C381 0.961 . S
H389 C381 0.960 . S
H390 C382 0.930 . S
H391 C383 0.929 . S
H392 C400 0.929 . S
H393 C402 0.930 . S
H394 C404 0.930 . S
H395 C407 0.929 . S
H396 C410 0.930 . S
H397 C412 0.960 . S
H398 C412 0.960 . S
H399 C412 0.960 . S
C400 H392 0.929 . S
C400 C401 1.377 . S
C400 C402 1.384 . S
C401 C400 1.377 . S
C401 C407 1.390 . S
C402 H393 0.930 . S
C402 C400 1.384 . S
C402 C403 1.372 . S
C403 C402 1.372 . S
C403 C404 1.400 . S
C403 C408 1.490 1_554 S
C404 H394 0.930 . S
C404 C403 1.400 . S
C404 C407 1.386 . S
H405 C421 0.930 . S
H406 C422 0.931 1_545 S
C407 H395 0.929 . S
C407 C401 1.390 . S
C407 C404 1.386 . S
C408 C403 1.490 1_556 S
C408 C410 1.395 . S
C408 C411 1.403 1_556 S
H409 C415 0.930 1_554 S
C410 H396 0.930 . S
C410 C408 1.395 . S
C410 C413 1.403 . S
C411 C408 1.403 1_554 S
C411 C412 1.524 . S
C411 C415 1.400 1_554 S
C412 H397 0.960 . S
C412 H398 0.960 . S
C412 H399 0.960 . S
C412 C411 1.524 . S
C413 C410 1.403 . S
C413 C414 1.392 . S
C413 C417 1.495 . S
C414 C413 1.392 . S
C414 C415 1.385 . S
C414 C416 1.478 . S
C415 H409 0.930 1_556 S
C415 C411 1.400 1_556 S
C415 C414 1.385 . S
C416 C414 1.478 . S
C416 C418 1.381 . S
C416 C422 1.383 . S
C417 C413 1.495 . S
C417 H423 0.959 . S
C417 H424 0.961 . S
C417 H425 0.960 . S
C418 C416 1.381 . S
C418 C419 1.394 . S
C418 H426 0.930 . S
C419 C418 1.394 . S
C419 C420 1.383 . S
C419 H427 0.929 . S
C420 C419 1.383 . S
C420 C421 1.377 1_565 S
C421 H405 0.930 . S
C421 C420 1.377 1_545 S
C421 C422 1.379 1_545 S
C422 H406 0.931 1_565 S
C422 C416 1.383 . S
C422 C421 1.379 1_565 S
H423 C417 0.959 . S
H424 C417 0.961 . S
H425 C417 0.960 . S
H426 C418 0.930 . S
H427 C419 0.929 . S
H428 C436 0.929 . S
H429 C438 0.930 . S
H430 C440 0.930 . S
H431 C443 0.929 . S
H432 C446 0.930 . S
H433 C448 0.960 . S
H434 C448 0.960 . S
H435 C448 0.960 . S
C436 H428 0.929 . S
C436 C437 1.377 . S
C436 C438 1.384 . S
C437 C436 1.377 . S
C437 C443 1.390 . S
C438 H429 0.930 . S
C438 C436 1.384 . S
C438 C439 1.372 . S
C439 C438 1.372 . S
C439 C440 1.400 . S
C439 C444 1.490 . S
C440 H430 0.930 . S
C440 C439 1.400 . S
C440 C443 1.386 . S
H441 C457 0.930 . S
H442 C458 0.931 . S
C443 H431 0.929 . S
C443 C437 1.390 . S
C443 C440 1.386 . S
C444 C439 1.490 . S
C444 C446 1.395 . S
C444 C447 1.403 . S
H445 C451 0.930 . S
C446 H432 0.930 . S
C446 C444 1.395 . S
C446 C449 1.403 . S
C447 C444 1.403 . S
C447 C448 1.524 . S
C447 C451 1.400 . S
C448 H433 0.960 . S
C448 H434 0.960 . S
C448 H435 0.960 . S
C448 C447 1.524 . S
C449 C446 1.403 . S
C449 C450 1.392 . S
C449 C453 1.495 . S
C450 C449 1.392 . S
C450 C451 1.385 . S
C450 C452 1.478 . S
C451 H445 0.930 . S
C451 C447 1.400 . S
C451 C450 1.385 . S
C452 C450 1.478 . S
C452 C454 1.381 1_554 S
C452 C458 1.383 . S
C453 C449 1.495 . S
C453 H459 0.959 . S
C453 H460 0.961 . S
C453 H461 0.960 . S
C454 C452 1.381 1_556 S
C454 C455 1.394 . S
C454 H462 0.930 . S
C455 C454 1.394 . S
C455 C456 1.383 . S
C455 H463 0.929 . S
C456 C455 1.383 . S
C456 C457 1.377 1_556 S
C457 H441 0.930 . S
C457 C456 1.377 1_554 S
C457 C458 1.379 . S
C458 H442 0.931 . S
C458 C452 1.383 . S
C458 C457 1.379 . S
H459 C453 0.959 . S
H460 C453 0.961 . S
H461 C453 0.960 . S
H462 C454 0.930 . S
H463 C455 0.929 . S
H464 C472 0.929 . S
H465 C474 0.930 . S
H466 C476 0.930 . S
H467 C479 0.929 . S
H468 C482 0.930 1_554 S
H469 C484 0.960 . S
H470 C484 0.960 . S
H471 C484 0.960 . S
C472 H464 0.929 . S
C472 C473 1.377 . S
C472 C474 1.384 . S
C473 C472 1.377 . S
C473 C479 1.390 . S
C474 H465 0.930 . S
C474 C472 1.384 . S
C474 C475 1.372 . S
C475 C474 1.372 . S
C475 C476 1.400 . S
C475 C480 1.490 . S
C476 H466 0.930 . S
C476 C475 1.400 . S
C476 C479 1.386 . S
H477 C493 0.930 . S
H478 C494 0.931 . S
C479 H467 0.929 . S
C479 C473 1.390 . S
C479 C476 1.386 . S
C480 C475 1.490 . S
C480 C482 1.395 . S
C480 C483 1.403 . S
H481 C487 0.930 . S
C482 H468 0.930 1_556 S
C482 C480 1.395 . S
C482 C485 1.403 . S
C483 C480 1.403 . S
C483 C484 1.524 . S
C483 C487 1.400 . S
C484 H469 0.960 . S
C484 H470 0.960 . S
C484 H471 0.960 . S
C484 C483 1.524 . S
C485 C482 1.403 . S
C485 C486 1.392 . S
C485 C489 1.495 1_556 S
C486 C485 1.392 . S
C486 C487 1.385 . S
C486 C488 1.478 . S
C487 H481 0.930 . S
C487 C483 1.400 . S
C487 C486 1.385 . S
C488 C486 1.478 . S
C488 C490 1.381 . S
C488 C494 1.383 . S
C489 C485 1.495 1_554 S
C489 H495 0.959 . S
C489 H496 0.961 . S
C489 H497 0.960 1_554 S
C490 C488 1.381 . S
C490 C491 1.394 . S
C490 H498 0.930 . S
C491 C490 1.394 . S
C491 C492 1.383 . S
C491 H499 0.929 . S
C492 C491 1.383 . S
C492 C493 1.377 . S
C493 H477 0.930 . S
C493 C492 1.377 . S
C493 C494 1.379 . S
C494 H478 0.931 . S
C494 C488 1.383 . S
C494 C493 1.379 . S
H495 C489 0.959 . S
H496 C489 0.961 . S
H497 C489 0.960 1_556 S
H498 C490 0.930 . S
H499 C491 0.929 . S
H500 C508 0.933 . S
H501 C510 0.930 . S
H502 C512 0.930 . S
H503 C515 0.929 1_556 S
H504 C518 0.930 . S
H505 C520 0.960 . S
H506 C520 0.960 . S
H507 C520 0.960 . S
C508 H500 0.933 . S
C508 C509 1.366 1_455 S
C508 C510 1.394 . S
C509 C508 1.366 1_655 S
C509 C515 1.390 . S
C510 H501 0.930 . S
C510 C508 1.394 . S
C510 C511 1.372 . S
C511 C510 1.372 . S
C511 C512 1.400 1_554 S
C511 C516 1.490 . S
C512 H502 0.930 . S
C512 C511 1.400 1_556 S
C512 C515 1.385 1_456 S
H513 C529 0.930 . S
H514 C530 0.913 1_655 S
C515 H503 0.929 1_554 S
C515 C509 1.390 . S
C515 C512 1.385 1_654 S
C516 C511 1.490 . S
C516 C518 1.395 1_455 S
C516 C519 1.403 1_554 S
H517 C523 0.930 . S
C518 H504 0.930 . S
C518 C516 1.395 1_655 S
C518 C521 1.403 . S
C519 C516 1.403 1_556 S
C519 C520 1.524 . S
C519 C523 1.400 . S
C520 H505 0.960 . S
C520 H506 0.960 . S
C520 H507 0.960 . S
C520 C519 1.524 . S
C521 C518 1.403 . S
C521 C522 1.392 1_654 S
C521 C525 1.495 . S
C522 C521 1.392 1_456 S
C522 C523 1.385 . S
C522 C524 1.478 . S
C523 H517 0.930 . S
C523 C519 1.400 . S
C523 C522 1.385 . S
C524 C522 1.478 . S
C524 C526 1.381 . S
C524 C530 1.383 . S
C525 C521 1.495 . S
C525 H531 0.959 . S
C525 H532 0.974 . S
C525 H533 0.960 . S
C526 C524 1.381 . S
C526 C527 1.394 . S
C526 H534 0.930 1_556 S
C527 C526 1.394 . S
C527 C528 1.383 . S
C527 H535 0.929 . S
C528 C527 1.383 . S
C528 C529 1.377 . S
C529 H513 0.930 . S
C529 C528 1.377 . S
C529 C530 1.379 . S
C530 H514 0.913 1_455 S
C530 C524 1.383 . S
C530 C529 1.379 . S
H531 C525 0.959 . S
H532 C525 0.974 . S
H533 C525 0.960 . S
H534 C526 0.930 1_554 S
H535 C527 0.929 . S
H536 C544 0.929 . S
H537 C546 0.930 . S
H538 C548 0.930 . S
H539 C551 0.929 . S
H540 C554 0.930 . S
H541 C556 0.960 . S
H542 C556 0.960 . S
H543 C556 0.960 . S
C544 H536 0.929 . S
C544 C545 1.377 . S
C544 C546 1.384 . S
C545 C544 1.377 . S
C545 C551 1.390 . S
C546 H537 0.930 . S
C546 C544 1.384 . S
C546 C547 1.372 . S
C547 C546 1.372 . S
C547 C548 1.400 . S
C547 C552 1.490 . S
C548 H538 0.930 . S
C548 C547 1.400 . S
C548 C551 1.386 . S
H549 C565 0.930 1_655 S
H550 C566 0.931 . S
C551 H539 0.929 . S
C551 C545 1.390 . S
C551 C548 1.386 . S
C552 C547 1.490 . S
C552 C554 1.395 . S
C552 C555 1.403 1_455 S
H553 C559 0.930 . S
C554 H540 0.930 . S
C554 C552 1.395 . S
C554 C557 1.403 . S
C555 C552 1.403 1_655 S
C555 C556 1.524 . S
C555 C559 1.400 . S
C556 H541 0.960 . S
C556 H542 0.960 . S
C556 H543 0.960 . S
C556 C555 1.524 . S
C557 C554 1.403 . S
C557 C558 1.392 . S
C557 C561 1.495 . S
C558 C557 1.392 . S
C558 C559 1.385 1_455 S
C558 C560 1.478 . S
C559 H553 0.930 . S
C559 C555 1.400 . S
C559 C558 1.385 1_655 S
C560 C558 1.478 . S
C560 C562 1.381 . S
C560 C566 1.383 . S
C561 C557 1.495 . S
C561 H567 0.959 . S
C561 H568 0.961 . S
C561 H569 0.960 . S
C562 C560 1.381 . S
C562 C563 1.394 . S
C562 H570 0.930 . S
C563 C562 1.394 . S
C563 C564 1.383 . S
C563 H571 0.929 . S
C564 C563 1.383 . S
C564 C565 1.377 . S
C565 H549 0.930 1_455 S
C565 C564 1.377 . S
C565 C566 1.379 . S
C566 H550 0.931 . S
C566 C560 1.383 . S
C566 C565 1.379 . S
H567 C561 0.959 . S
H568 C561 0.961 . S
H569 C561 0.960 . S
H570 C562 0.930 . S
H571 C563 0.929 . S
H572 C580 0.929 . S
H573 C582 0.930 . S
H574 C584 0.930 . S
H575 C587 0.929 . S
H576 C590 0.930 . S
H577 C592 0.960 . S
H578 C592 0.960 . S
H579 C592 0.960 . S
C580 H572 0.929 . S
C580 C581 1.377 . S
C580 C582 1.384 . S
C581 C580 1.377 . S
C581 C587 1.390 . S
C582 H573 0.930 . S
C582 C580 1.384 . S
C582 C583 1.372 . S
C583 C582 1.372 . S
C583 C584 1.400 . S
C583 C588 1.490 . S
C584 H574 0.930 . S
C584 C583 1.400 . S
C584 C587 1.386 . S
H585 C601 0.930 . S
H586 C602 0.931 . S
C587 H575 0.929 . S
C587 C581 1.390 . S
C587 C584 1.386 . S
C588 C583 1.490 . S
C588 C590 1.395 . S
C588 C591 1.403 . S
H589 C595 0.930 . S
C590 H576 0.930 . S
C590 C588 1.395 . S
C590 C593 1.403 . S
C591 C588 1.403 . S
C591 C592 1.524 . S
C591 C595 1.400 . S
C592 H577 0.960 . S
C592 H578 0.960 . S
C592 H579 0.960 . S
C592 C591 1.524 . S
C593 C590 1.403 . S
C593 C594 1.392 . S
C593 C597 1.495 . S
C594 C593 1.392 . S
C594 C595 1.385 . S
C594 C596 1.478 . S
C595 H589 0.930 . S
C595 C591 1.400 . S
C595 C594 1.385 . S
C596 C594 1.478 . S
C596 C598 1.381 . S
C596 C602 1.383 . S
C597 C593 1.495 . S
C597 H603 0.959 . S
C597 H604 0.961 . S
C597 H605 0.960 . S
C598 C596 1.381 . S
C598 C599 1.394 . S
C598 H606 0.930 . S
C599 C598 1.394 . S
C599 C600 1.383 . S
C599 H607 0.929 . S
C600 C599 1.383 . S
C600 C601 1.377 . S
C601 H585 0.930 . S
C601 C600 1.377 . S
C601 C602 1.379 . S
C602 H586 0.931 . S
C602 C596 1.383 . S
C602 C601 1.379 . S
H603 C597 0.959 . S
H604 C597 0.961 . S
H605 C597 0.960 . S
H606 C598 0.930 . S
H607 C599 0.929 . S
H608 C616 0.929 . S
H609 C618 0.930 . S
H610 C620 0.930 . S
H611 C623 0.929 . S
H612 C626 0.930 . S
H613 C628 0.960 . S
H614 C628 0.960 . S
H615 C628 0.960 . S
C616 H608 0.929 . S
C616 C617 1.377 . S
C616 C618 1.384 . S
C617 C616 1.377 . S
C617 C623 1.390 . S
C618 H609 0.930 . S
C618 C616 1.384 . S
C618 C619 1.372 . S
C619 C618 1.372 . S
C619 C620 1.400 . S
C619 C624 1.490 . S
C620 H610 0.930 . S
C620 C619 1.400 . S
C620 C623 1.386 . S
H621 C637 0.930 . S
H622 C638 0.931 . S
C623 H611 0.929 . S
C623 C617 1.390 . S
C623 C620 1.386 . S
C624 C619 1.490 . S
C624 C626 1.395 . S
C624 C627 1.403 . S
H625 C631 0.930 . S
C626 H612 0.930 . S
C626 C624 1.395 . S
C626 C629 1.403 . S
C627 C624 1.403 . S
C627 C628 1.524 . S
C627 C631 1.400 . S
C628 H613 0.960 . S
C628 H614 0.960 . S
C628 H615 0.960 . S
C628 C627 1.524 . S
C629 C626 1.403 . S
C629 C630 1.392 . S
C629 C633 1.495 . S
C630 C629 1.392 . S
C630 C631 1.385 . S
C630 C632 1.478 . S
C631 H625 0.930 . S
C631 C627 1.400 . S
C631 C630 1.385 . S
C632 C630 1.478 . S
C632 C634 1.381 . S
C632 C638 1.383 . S
C633 C629 1.495 . S
C633 H639 0.959 . S
C633 H640 0.961 . S
C633 H641 0.960 . S
C634 C632 1.381 . S
C634 C635 1.394 . S
C634 H642 0.930 . S
C635 C634 1.394 . S
C635 C636 1.383 . S
C635 H643 0.929 . S
C636 C635 1.383 . S
C636 C637 1.377 . S
C637 H621 0.930 . S
C637 C636 1.377 . S
C637 C638 1.379 . S
C638 H622 0.931 . S
C638 C632 1.383 . S
C638 C637 1.379 . S
H639 C633 0.959 . S
H640 C633 0.961 . S
H641 C633 0.960 . S
H642 C634 0.930 . S
H643 C635 0.929 . S
H644 C652 0.929 . S
H645 C654 0.930 . S
H646 C656 0.930 . S
H647 C659 0.929 . S
H648 C662 0.930 . S
H649 C664 0.960 . S
H650 C664 0.960 . S
H651 C664 0.960 . S
C652 H644 0.929 . S
C652 C653 1.377 . S
C652 C654 1.384 . S
C653 C652 1.377 . S
C653 C659 1.390 . S
C654 H645 0.930 . S
C654 C652 1.384 . S
C654 C655 1.372 . S
C655 C654 1.372 . S
C655 C656 1.400 . S
C655 C660 1.490 . S
C656 H646 0.930 . S
C656 C655 1.400 . S
C656 C659 1.386 . S
H657 C673 0.930 . S
H658 C674 0.931 . S
C659 H647 0.929 . S
C659 C653 1.390 . S
C659 C656 1.386 . S
C660 C655 1.490 . S
C660 C662 1.395 . S
C660 C663 1.403 . S
H661 C667 0.930 . S
C662 H648 0.930 . S
C662 C660 1.395 . S
C662 C665 1.403 . S
C663 C660 1.403 . S
C663 C664 1.524 . S
C663 C667 1.400 . S
C664 H649 0.960 . S
C664 H650 0.960 . S
C664 H651 0.960 . S
C664 C663 1.524 . S
C665 C662 1.403 . S
C665 C666 1.392 . S
C665 C669 1.495 . S
C666 C665 1.392 . S
C666 C667 1.385 . S
C666 C668 1.478 . S
C667 H661 0.930 . S
C667 C663 1.400 . S
C667 C666 1.385 . S
C668 C666 1.478 . S
C668 C670 1.381 . S
C668 C674 1.383 . S
C669 C665 1.495 . S
C669 H675 0.959 . S
C669 H676 0.961 . S
C669 H677 0.960 . S
C670 C668 1.381 . S
C670 C671 1.394 . S
C670 H678 0.930 . S
C671 C670 1.394 . S
C671 C672 1.383 . S
C671 H679 0.929 . S
C672 C671 1.383 . S
C672 C673 1.377 . S
C673 H657 0.930 . S
C673 C672 1.377 . S
C673 C674 1.379 . S
C674 H658 0.931 . S
C674 C668 1.383 . S
C674 C673 1.379 . S
H675 C669 0.959 . S
H676 C669 0.961 . S
H677 C669 0.960 . S
H678 C670 0.930 . S
H679 C671 0.929 . S
H680 C688 0.929 . S
H681 C690 0.930 1_556 S
H682 C692 0.930 . S
H683 C695 0.929 . S
H684 C698 0.930 . S
H685 C700 0.960 . S
H686 C700 0.960 1_455 S
H687 C700 0.960 . S
C688 H680 0.929 . S
C688 C689 1.377 1_455 S
C688 C690 1.384 . S
C689 C688 1.377 1_655 S
C689 C695 1.390 . S
C690 H681 0.930 1_554 S
C690 C688 1.384 . S
C690 C691 1.372 . S
C691 C690 1.372 . S
C691 C692 1.400 1_455 S
C691 C696 1.490 1_554 S
C692 H682 0.930 . S
C692 C691 1.400 1_655 S
C692 C695 1.386 . S
H693 C709 0.930 . S
H694 C710 0.931 . S
C695 H683 0.929 . S
C695 C689 1.390 . S
C695 C692 1.386 . S
C696 C691 1.490 1_556 S
C696 C698 1.395 . S
C696 C699 1.405 1_556 S
H697 C703 0.923 1_655 S
C698 H684 0.930 . S
C698 C696 1.395 . S
C698 C701 1.403 . S
C699 C696 1.405 1_554 S
C699 C700 1.523 1_455 S
C699 C703 1.399 . S
C700 H685 0.960 . S
C700 H686 0.960 1_655 S
C700 H687 0.960 . S
C700 C699 1.523 1_655 S
C701 C698 1.403 . S
C701 C702 1.392 . S
C701 C705 1.495 . S
C702 C701 1.392 . S
C702 C703 1.385 1_556 S
C702 C704 1.478 . S
C703 H697 0.923 1_455 S
C703 C699 1.399 . S
C703 C702 1.385 1_554 S
C704 C702 1.478 . S
C704 C706 1.381 . S
C704 C710 1.383 1_455 S
C705 C701 1.495 . S
C705 H711 0.959 . S
C705 H712 0.961 . S
C705 H713 0.960 . S
C706 C704 1.381 . S
C706 C707 1.394 . S
C706 H714 0.930 . S
C707 C706 1.394 . S
C707 C708 1.383 . S
C707 H715 0.929 . S
C708 C707 1.383 . S
C708 C709 1.377 1_455 S
C709 H693 0.930 . S
C709 C708 1.377 1_655 S
C709 C710 1.379 . S
C710 H694 0.931 . S
C710 C704 1.383 1_655 S
C710 C709 1.379 . S
H711 C705 0.959 . S
H712 C705 0.961 . S
H713 C705 0.960 . S
H714 C706 0.930 . S
H715 C707 0.929 . S
H716 C724 0.929 . S
H717 C726 0.930 . S
H718 C728 0.930 . S
H719 C731 0.929 . S
H720 C734 0.930 . S
H721 C736 0.959 1_545 S
H722 C736 0.960 . S
H723 C736 0.960 1_554 S
C724 H716 0.929 . S
C724 C725 1.377 1_556 S
C724 C726 1.384 . S
C725 C724 1.377 1_554 S
C725 C731 1.390 . S
C726 H717 0.930 . S
C726 C724 1.384 . S
C726 C727 1.372 . S
C727 C726 1.372 . S
C727 C728 1.400 1_556 S
C727 C732 1.490 . S
C728 H718 0.930 . S
C728 C727 1.400 1_554 S
C728 C731 1.386 . S
H729 C745 0.895 1_545 S
H730 C746 0.931 1_554 S
C731 H719 0.929 . S
C731 C725 1.390 . S
C731 C728 1.386 . S
C732 C727 1.490 . S
C732 C734 1.395 . S
C732 C735 1.403 . S
H733 C739 0.930 . S
C734 H720 0.930 . S
C734 C732 1.395 . S
C734 C737 1.403 . S
C735 C732 1.403 . S
C735 C736 1.524 . S
C735 C739 1.400 . S
C736 H721 0.959 1_565 S
C736 H722 0.960 . S
C736 H723 0.960 1_556 S
C736 C735 1.524 . S
C737 C734 1.403 . S
C737 C738 1.392 . S
C737 C741 1.495 . S
C738 C737 1.392 . S
C738 C739 1.385 . S
C738 C740 1.478 . S
C739 H733 0.930 . S
C739 C735 1.400 . S
C739 C738 1.385 . S
C740 C738 1.478 . S
C740 C742 1.381 . S
C740 C746 1.383 . S
C741 C737 1.495 . S
C741 H747 0.959 . S
C741 H748 0.961 . S
C741 H749 0.960 . S
C742 C740 1.381 . S
C742 C743 1.394 . S
C742 H750 0.930 . S
C743 C742 1.394 . S
C743 C744 1.383 . S
C743 H751 0.929 . S
C744 C743 1.383 . S
C744 C745 1.377 . S
C745 H729 0.895 1_565 S
C745 C744 1.377 . S
C745 C746 1.379 . S
C746 H730 0.931 1_556 S
C746 C740 1.383 . S
C746 C745 1.379 . S
H747 C741 0.959 . S
H748 C741 0.961 . S
H749 C741 0.960 . S
H750 C742 0.930 . S
H751 C743 0.929 . S
H752 C760 0.929 . S
H753 C762 0.930 . S
H754 C764 0.930 . S
H755 C767 0.929 . S
H756 C770 0.930 . S
H757 C772 0.960 . S
H758 C772 0.960 . S
H759 C772 0.960 . S
C760 H752 0.929 . S
C760 C761 1.377 . S
C760 C762 1.384 . S
C761 C760 1.377 . S
C761 C767 1.390 . S
C762 H753 0.930 . S
C762 C760 1.384 . S
C762 C763 1.372 . S
C763 C762 1.372 . S
C763 C764 1.400 . S
C763 C768 1.490 . S
C764 H754 0.930 . S
C764 C763 1.400 . S
C764 C767 1.386 . S
H765 C781 0.930 1_556 S
H766 C782 0.931 . S
C767 H755 0.929 . S
C767 C761 1.390 . S
C767 C764 1.386 . S
C768 C763 1.490 . S
C768 C770 1.395 . S
C768 C771 1.403 . S
H769 C775 0.930 . S
C770 H756 0.930 . S
C770 C768 1.395 . S
C770 C773 1.403 . S
C771 C768 1.403 . S
C771 C772 1.524 . S
C771 C775 1.400 . S
C772 H757 0.960 . S
C772 H758 0.960 . S
C772 H759 0.960 . S
C772 C771 1.524 . S
C773 C770 1.403 . S
C773 C774 1.392 . S
C773 C777 1.495 . S
C774 C773 1.392 . S
C774 C775 1.385 . S
C774 C776 1.478 . S
C775 H769 0.930 . S
C775 C771 1.400 . S
C775 C774 1.385 . S
C776 C774 1.478 . S
C776 C778 1.381 . S
C776 C782 1.383 . S
C777 C773 1.495 . S
C777 H783 0.959 . S
C777 H784 0.961 . S
C777 H785 0.960 . S
C778 C776 1.381 . S
C778 C779 1.394 . S
C778 H786 0.930 . S
C779 C778 1.394 . S
C779 C780 1.383 . S
C779 H787 0.929 . S
C780 C779 1.383 . S
C780 C781 1.377 . S
C781 H765 0.930 1_554 S
C781 C780 1.377 . S
C781 C782 1.379 . S
C782 H766 0.931 . S
C782 C776 1.383 . S
C782 C781 1.379 . S
H783 C777 0.959 . S
H784 C777 0.961 . S
H785 C777 0.960 . S
H786 C778 0.930 . S
H787 C779 0.929 . S
H788 C796 0.929 . S
H789 C798 0.930 . S
H790 C800 0.930 . S
H791 C803 0.929 . S
H792 C806 0.930 . S
H793 C808 0.960 . S
H794 C808 0.960 1_554 S
H795 C808 0.960 . S
C796 H788 0.929 . S
C796 C797 1.377 . S
C796 C798 1.384 . S
C797 C796 1.377 . S
C797 C803 1.390 . S
C798 H789 0.930 . S
C798 C796 1.384 . S
C798 C799 1.372 . S
C799 C798 1.372 . S
C799 C800 1.400 . S
C799 C804 1.490 . S
C800 H790 0.930 . S
C800 C799 1.400 . S
C800 C803 1.386 . S
H801 C817 0.930 . S
H802 C818 0.931 . S
C803 H791 0.929 . S
C803 C797 1.390 . S
C803 C800 1.386 . S
C804 C799 1.490 . S
C804 C806 1.395 . S
C804 C807 1.403 . S
H805 C811 0.930 . S
C806 H792 0.930 . S
C806 C804 1.395 . S
C806 C809 1.403 . S
C807 C804 1.403 . S
C807 C808 1.524 . S
C807 C811 1.400 . S
C808 H793 0.960 . S
C808 H794 0.960 1_556 S
C808 H795 0.960 . S
C808 C807 1.524 . S
C809 C806 1.403 . S
C809 C810 1.392 . S
C809 C813 1.495 . S
C810 C809 1.392 . S
C810 C811 1.385 . S
C810 C812 1.478 . S
C811 H805 0.930 . S
C811 C807 1.400 . S
C811 C810 1.385 . S
C812 C810 1.478 . S
C812 C814 1.381 . S
C812 C818 1.383 . S
C813 C809 1.495 . S
C813 H819 0.959 . S
C813 H820 0.961 . S
C813 H821 0.960 . S
C814 C812 1.381 . S
C814 C815 1.394 . S
C814 H822 0.930 . S
C815 C814 1.394 . S
C815 C816 1.383 . S
C815 H823 0.929 . S
C816 C815 1.383 . S
C816 C817 1.377 . S
C817 H801 0.930 . S
C817 C816 1.377 . S
C817 C818 1.379 . S
C818 H802 0.931 . S
C818 C812 1.383 . S
C818 C817 1.379 . S
H819 C813 0.959 . S
H820 C813 0.961 . S
H821 C813 0.960 . S
H822 C814 0.930 . S
H823 C815 0.929 . S
H824 C832 0.929 . S
H825 C834 0.930 . S
H826 C836 0.930 1_655 S
H827 C839 0.929 1_655 S
H828 C842 0.930 . S
H829 C844 0.960 . S
H830 C844 0.960 . S
H831 C844 0.960 . S
C832 H824 0.929 . S
C832 C833 1.377 . S
C832 C834 1.384 . S
C833 C832 1.377 . S
C833 C839 1.390 . S
C834 H825 0.930 . S
C834 C832 1.384 . S
C834 C835 1.372 . S
C835 C834 1.372 . S
C835 C836 1.400 . S
C835 C840 1.490 . S
C836 H826 0.930 1_455 S
C836 C835 1.400 . S
C836 C839 1.386 . S
H837 C853 0.930 1_655 S
H838 C854 0.931 1_655 S
C839 H827 0.929 1_455 S
C839 C833 1.390 . S
C839 C836 1.386 . S
C840 C835 1.490 . S
C840 C842 1.395 . S
C840 C843 1.403 . S
H841 C847 0.930 . S
C842 H828 0.930 . S
C842 C840 1.395 . S
C842 C845 1.403 . S
C843 C840 1.403 . S
C843 C844 1.524 . S
C843 C847 1.400 . S
C844 H829 0.960 . S
C844 H830 0.960 . S
C844 H831 0.960 . S
C844 C843 1.524 . S
C845 C842 1.403 . S
C845 C846 1.392 . S
C845 C849 1.495 . S
C846 C845 1.392 . S
C846 C847 1.385 . S
C846 C848 1.478 . S
C847 H841 0.930 . S
C847 C843 1.400 . S
C847 C846 1.385 . S
C848 C846 1.478 . S
C848 C850 1.381 . S
C848 C854 1.383 . S
C849 C845 1.495 . S
C849 H855 0.959 . S
C849 H856 0.977 . S
C849 H857 0.960 . S
C850 C848 1.381 . S
C850 C851 1.394 . S
C850 H858 0.930 . S
C851 C850 1.394 . S
C851 C852 1.383 . S
C851 H859 0.929 . S
C852 C851 1.383 . S
C852 C853 1.377 . S
C853 H837 0.930 1_455 S
C853 C852 1.377 . S
C853 C854 1.379 . S
C854 H838 0.931 1_455 S
C854 C848 1.383 . S
C854 C853 1.379 . S
H855 C849 0.959 . S
H856 C849 0.977 . S
H857 C849 0.960 . S
H858 C850 0.930 . S
H859 C851 0.929 . S
H860 C868 0.929 . S
H861 C870 0.930 . S
H862 C872 0.930 . S
H863 C875 0.929 . S
H864 C878 0.930 . S
H865 C880 0.960 . S
H866 C880 0.960 . S
H867 C880 0.960 . S
C868 H860 0.929 . S
C868 C869 1.377 . S
C868 C870 1.384 . S
C869 C868 1.377 . S
C869 C875 1.390 . S
C870 H861 0.930 . S
C870 C868 1.384 . S
C870 C871 1.372 . S
C871 C870 1.372 . S
C871 C872 1.400 . S
C871 C876 1.490 . S
C872 H862 0.930 . S
C872 C871 1.400 . S
C872 C875 1.386 . S
H873 C889 0.930 . S
H874 C890 0.931 . S
C875 H863 0.929 . S
C875 C869 1.390 . S
C875 C872 1.386 . S
C876 C871 1.490 . S
C876 C878 1.395 . S
C876 C879 1.403 . S
H877 C883 0.930 . S
C878 H864 0.930 . S
C878 C876 1.395 . S
C878 C881 1.403 . S
C879 C876 1.403 . S
C879 C880 1.524 . S
C879 C883 1.400 . S
C880 H865 0.960 . S
C880 H866 0.960 . S
C880 H867 0.960 . S
C880 C879 1.524 . S
C881 C878 1.403 . S
C881 C882 1.392 . S
C881 C885 1.495 . S
C882 C881 1.392 . S
C882 C883 1.385 . S
C882 C884 1.478 . S
C883 H877 0.930 . S
C883 C879 1.400 . S
C883 C882 1.385 . S
C884 C882 1.478 . S
C884 C886 1.381 . S
C884 C890 1.383 . S
C885 C881 1.495 . S
C885 H891 0.959 . S
C885 H892 0.961 . S
C885 H893 0.960 . S
C886 C884 1.381 . S
C886 C887 1.394 . S
C886 H894 0.930 . S
C887 C886 1.394 . S
C887 C888 1.383 . S
C887 H895 0.929 . S
C888 C887 1.383 . S
C888 C889 1.377 . S
C889 H873 0.930 . S
C889 C888 1.377 . S
C889 C890 1.379 . S
C890 H874 0.931 . S
C890 C884 1.383 . S
C890 C889 1.379 . S
H891 C885 0.959 . S
H892 C885 0.961 . S
H893 C885 0.960 . S
H894 C886 0.930 . S
H895 C887 0.929 . S
H896 C904 0.929 . S
H897 C906 0.930 . S
H898 C908 0.930 . S
H899 C911 0.929 . S
H900 C914 0.930 . S
H901 C916 0.960 . S
H902 C916 0.960 . S
H903 C916 0.960 . S
C904 H896 0.929 . S
C904 C905 1.377 . S
C904 C906 1.384 . S
C905 C904 1.377 . S
C905 C911 1.390 . S
C906 H897 0.930 . S
C906 C904 1.384 . S
C906 C907 1.372 . S
C907 C906 1.372 . S
C907 C908 1.400 . S
C907 C912 1.490 . S
C908 H898 0.930 . S
C908 C907 1.400 . S
C908 C911 1.386 . S
H909 C925 0.930 . S
H910 C926 0.931 . S
C911 H899 0.929 . S
C911 C905 1.390 . S
C911 C908 1.386 . S
C912 C907 1.490 . S
C912 C914 1.395 . S
C912 C915 1.403 . S
H913 C919 0.930 . S
C914 H900 0.930 . S
C914 C912 1.395 . S
C914 C917 1.403 . S
C915 C912 1.403 . S
C915 C916 1.524 . S
C915 C919 1.400 . S
C916 H901 0.960 . S
C916 H902 0.960 . S
C916 H903 0.960 . S
C916 C915 1.524 . S
C917 C914 1.403 . S
C917 C918 1.392 . S
C917 C921 1.495 . S
C918 C917 1.392 . S
C918 C919 1.385 . S
C918 C920 1.478 . S
C919 H913 0.930 . S
C919 C915 1.400 . S
C919 C918 1.385 . S
C920 C918 1.478 . S
C920 C922 1.381 . S
C920 C926 1.383 1_554 S
C921 C917 1.495 . S
C921 H927 0.959 . S
C921 H928 0.961 . S
C921 H929 0.960 . S
C922 C920 1.381 . S
C922 C923 1.394 . S
C922 H930 0.930 . S
C923 C922 1.394 . S
C923 C924 1.383 1_554 S
C923 H931 0.929 . S
C924 C923 1.383 1_556 S
C924 C925 1.377 . S
C925 H909 0.930 . S
C925 C924 1.377 . S
C925 C926 1.379 . S
C926 H910 0.931 . S
C926 C920 1.383 1_556 S
C926 C925 1.379 . S
H927 C921 0.959 . S
H928 C921 0.961 . S
H929 C921 0.960 . S
H930 C922 0.930 . S
H931 C923 0.929 . S
H932 C940 0.929 . S
H933 C942 0.930 . S
H934 C944 0.930 . S
H935 C947 0.929 . S
H936 C950 0.930 . S
H937 C952 0.960 . S
H938 C952 0.960 . S
H939 C952 0.960 . S
C940 H932 0.929 . S
C940 C941 1.377 . S
C940 C942 1.384 . S
C941 C940 1.377 . S
C941 C947 1.390 . S
C942 H933 0.930 . S
C942 C940 1.384 . S
C942 C943 1.372 . S
C943 C942 1.372 . S
C943 C944 1.400 . S
C943 C948 1.490 . S
C944 H934 0.930 . S
C944 C943 1.400 . S
C944 C947 1.386 . S
H945 C961 0.930 . S
H946 C962 0.931 . S
C947 H935 0.929 . S
C947 C941 1.390 . S
C947 C944 1.386 . S
C948 C943 1.490 . S
C948 C950 1.395 . S
C948 C951 1.403 . S
H949 C955 0.930 . S
C950 H936 0.930 . S
C950 C948 1.395 . S
C950 C953 1.403 . S
C951 C948 1.403 . S
C951 C952 1.524 . S
C951 C955 1.400 . S
C952 H937 0.960 . S
C952 H938 0.960 . S
C952 H939 0.960 . S
C952 C951 1.524 . S
C953 C950 1.403 . S
C953 C954 1.392 . S
C953 C957 1.495 . S
C954 C953 1.392 . S
C954 C955 1.385 . S
C954 C956 1.478 . S
C955 H949 0.930 . S
C955 C951 1.400 . S
C955 C954 1.385 . S
C956 C954 1.478 . S
C956 C958 1.381 . S
C956 C962 1.383 . S
C957 C953 1.495 . S
C957 H963 0.959 . S
C957 H964 0.961 . S
C957 H965 0.960 . S
C958 C956 1.381 . S
C958 C959 1.394 . S
C958 H966 0.930 . S
C959 C958 1.394 . S
C959 C960 1.383 . S
C959 H967 0.929 . S
C960 C959 1.383 . S
C960 C961 1.377 . S
C961 H945 0.930 . S
C961 C960 1.377 . S
C961 C962 1.379 . S
C962 H946 0.931 . S
C962 C956 1.383 . S
C962 C961 1.379 . S
H963 C957 0.959 . S
H964 C957 0.961 . S
H965 C957 0.960 . S
H966 C958 0.930 . S
H967 C959 0.929 . S
H968 C976 0.929 . S
H969 C978 0.930 . S
H970 C980 0.930 . S
H971 C983 0.929 . S
H972 C986 0.930 . S
H973 C988 0.960 . S
H974 C988 0.913 1_455 S
H975 C988 0.960 . S
C976 H968 0.929 . S
C976 C977 1.377 1_455 S
C976 C978 1.384 . S
C977 C976 1.377 1_655 S
C977 C983 1.390 . S
C978 H969 0.930 . S
C978 C976 1.384 . S
C978 C979 1.372 1_455 S
C979 C978 1.372 1_655 S
C979 C980 1.400 . S
C979 C984 1.490 . S
C980 H970 0.930 . S
C980 C979 1.400 . S
C980 C983 1.386 . S
H981 C997 0.930 . S
H982 C998 0.931 . S
C983 H971 0.929 . S
C983 C977 1.390 . S
C983 C980 1.386 . S
C984 C979 1.490 . S
C984 C986 1.395 1_655 S
C984 C987 1.403 . S
H985 C991 0.930 . S
C986 H972 0.930 . S
C986 C984 1.395 1_455 S
C986 C989 1.403 . S
C987 C984 1.403 . S
C987 C988 1.524 . S
C987 C991 1.400 . S
C988 H973 0.960 . S
C988 H974 0.913 1_655 S
C988 H975 0.960 . S
C988 C987 1.524 . S
C989 C986 1.403 . S
C989 C990 1.392 1_455 S
C989 C993 1.495 . S
C990 C989 1.392 1_655 S
C990 C991 1.385 . S
C990 C992 1.478 . S
C991 H985 0.930 . S
C991 C987 1.400 . S
C991 C990 1.385 . S
C992 C990 1.478 . S
C992 C994 1.381 1_655 S
C992 C998 1.383 . S
C993 C989 1.495 . S
C993 H999 0.959 . S
C993 H1000 0.961 1_455 S
C993 H1001 0.960 . S
C994 C992 1.381 1_455 S
C994 C995 1.394 . S
C994 H1002 0.930 . S
C995 C994 1.394 . S
C995 C996 1.383 1_455 S
C995 H1003 0.929 . S
C996 C995 1.383 1_655 S
C996 C997 1.377 . S
C997 H981 0.930 . S
C997 C996 1.377 . S
C997 C998 1.379 . S
C998 H982 0.931 . S
C998 C992 1.383 . S
C998 C997 1.379 . S
H999 C993 0.959 . S
H1000 C993 0.961 1_655 S
H1001 C993 0.960 . S
H1002 C994 0.930 . S
H1003 C995 0.929 . S
H1004 C1012 0.929 . S
H1005 C1014 0.930 . S
H1006 C1016 0.930 . S
H1007 C1019 0.929 . S
H1008 C1022 0.930 . S
H1009 C1024 0.960 . S
H1010 C1024 0.960 . S
H1011 C1024 0.960 . S
C1012 H1004 0.929 . S
C1012 C1013 1.377 . S
C1012 C1014 1.384 . S
C1013 C1012 1.377 . S
C1013 C1019 1.390 . S
C1014 H1005 0.930 . S
C1014 C1012 1.384 . S
C1014 C1015 1.372 . S
C1015 C1014 1.372 . S
C1015 C1016 1.400 . S
C1015 C1020 1.490 . S
C1016 H1006 0.930 . S
C1016 C1015 1.400 . S
C1016 C1019 1.386 . S
H1017 C1033 0.930 . S
H1018 C1034 0.931 . S
C1019 H1007 0.929 . S
C1019 C1013 1.390 . S
C1019 C1016 1.386 . S
C1020 C1015 1.490 . S
C1020 C1022 1.395 . S
C1020 C1023 1.403 . S
H1021 C1027 0.930 . S
C1022 H1008 0.930 . S
C1022 C1020 1.395 . S
C1022 C1025 1.403 . S
C1023 C1020 1.403 . S
C1023 C1024 1.524 . S
C1023 C1027 1.400 . S
C1024 H1009 0.960 . S
C1024 H1010 0.960 . S
C1024 H1011 0.960 . S
C1024 C1023 1.524 . S
C1025 C1022 1.403 . S
C1025 C1026 1.392 . S
C1025 C1029 1.495 . S
C1026 C1025 1.392 . S
C1026 C1027 1.385 . S
C1026 C1028 1.478 . S
C1027 H1021 0.930 . S
C1027 C1023 1.400 . S
C1027 C1026 1.385 . S
C1028 C1026 1.478 . S
C1028 C1030 1.381 . S
C1028 C1034 1.383 . S
C1029 C1025 1.495 . S
C1029 H1035 0.959 . S
C1029 H1036 0.961 . S
C1029 H1037 0.960 . S
C1030 C1028 1.381 . S
C1030 C1031 1.394 . S
C1030 H1038 0.930 . S
C1031 C1030 1.394 . S
C1031 C1032 1.383 . S
C1031 H1039 0.929 . S
C1032 C1031 1.383 . S
C1032 C1033 1.377 . S
C1033 H1017 0.930 . S
C1033 C1032 1.377 . S
C1033 C1034 1.379 . S
C1034 H1018 0.931 . S
C1034 C1028 1.383 . S
C1034 C1033 1.379 . S
H1035 C1029 0.959 . S
H1036 C1029 0.961 . S
H1037 C1029 0.960 . S
H1038 C1030 0.930 . S
H1039 C1031 0.929 . S
H1040 C1048 0.929 . S
H1041 C1050 0.930 . S
H1042 C1052 0.930 . S
H1043 C1055 0.929 . S
H1044 C1058 0.930 . S
H1045 C1060 0.960 . S
H1046 C1060 0.960 . S
H1047 C1060 0.960 . S
C1048 H1040 0.929 . S
C1048 C1049 1.377 . S
C1048 C1050 1.384 . S
C1049 C1048 1.377 . S
C1049 C1055 1.390 . S
C1050 H1041 0.930 . S
C1050 C1048 1.384 . S
C1050 C1051 1.372 . S
C1051 C1050 1.372 . S
C1051 C1052 1.400 . S
C1051 C1056 1.490 . S
C1052 H1042 0.930 . S
C1052 C1051 1.400 . S
C1052 C1055 1.386 . S
H1053 C1069 0.930 . S
H1054 C1070 0.931 . S
C1055 H1043 0.929 . S
C1055 C1049 1.390 . S
C1055 C1052 1.386 . S
C1056 C1051 1.490 . S
C1056 C1058 1.395 . S
C1056 C1059 1.403 . S
H1057 C1063 0.930 . S
C1058 H1044 0.930 . S
C1058 C1056 1.395 . S
C1058 C1061 1.403 . S
C1059 C1056 1.403 . S
C1059 C1060 1.524 . S
C1059 C1063 1.400 . S
C1060 H1045 0.960 . S
C1060 H1046 0.960 . S
C1060 H1047 0.960 . S
C1060 C1059 1.524 . S
C1061 C1058 1.403 . S
C1061 C1062 1.392 . S
C1061 C1065 1.495 . S
C1062 C1061 1.392 . S
C1062 C1063 1.385 . S
C1062 C1064 1.478 . S
C1063 H1057 0.930 . S
C1063 C1059 1.400 . S
C1063 C1062 1.385 . S
C1064 C1062 1.478 . S
C1064 C1066 1.381 . S
C1064 C1070 1.383 . S
C1065 C1061 1.495 . S
C1065 H1071 0.959 . S
C1065 H1072 0.961 . S
C1065 H1073 0.960 . S
C1066 C1064 1.381 . S
C1066 C1067 1.394 . S
C1066 H1074 0.930 . S
C1067 C1066 1.394 . S
C1067 C1068 1.383 . S
C1067 H1075 0.929 . S
C1068 C1067 1.383 . S
C1068 C1069 1.377 . S
C1069 H1053 0.930 . S
C1069 C1068 1.377 . S
C1069 C1070 1.379 . S
C1070 H1054 0.931 . S
C1070 C1064 1.383 . S
C1070 C1069 1.379 . S
H1071 C1065 0.959 . S
H1072 C1065 0.961 . S
H1073 C1065 0.960 . S
H1074 C1066 0.930 . S
H1075 C1067 0.929 . S
H1076 C1084 0.929 . S
H1077 C1086 0.930 . S
H1078 C1088 0.930 . S
H1079 C1091 0.929 . S
H1080 C1094 0.930 . S
H1081 C1096 0.960 . S
H1082 C1096 0.960 . S
H1083 C1096 0.960 . S
C1084 H1076 0.929 . S
C1084 C1085 1.377 . S
C1084 C1086 1.384 . S
C1085 C1084 1.377 . S
C1085 C1091 1.390 . S
C1086 H1077 0.930 . S
C1086 C1084 1.384 . S
C1086 C1087 1.372 . S
C1087 C1086 1.372 . S
C1087 C1088 1.400 . S
C1087 C1092 1.490 . S
C1088 H1078 0.930 . S
C1088 C1087 1.400 . S
C1088 C1091 1.386 . S
H1089 C1105 0.930 . S
H1090 C1106 0.931 . S
C1091 H1079 0.929 . S
C1091 C1085 1.390 . S
C1091 C1088 1.386 . S
C1092 C1087 1.490 . S
C1092 C1094 1.395 . S
C1092 C1095 1.403 . S
H1093 C1099 0.930 . S
C1094 H1080 0.930 . S
C1094 C1092 1.395 . S
C1094 C1097 1.403 . S
C1095 C1092 1.403 . S
C1095 C1096 1.524 . S
C1095 C1099 1.400 . S
C1096 H1081 0.960 . S
C1096 H1082 0.960 . S
C1096 H1083 0.960 . S
C1096 C1095 1.524 . S
C1097 C1094 1.403 . S
C1097 C1098 1.392 . S
C1097 C1101 1.495 . S
C1098 C1097 1.392 . S
C1098 C1099 1.385 . S
C1098 C1100 1.478 . S
C1099 H1093 0.930 . S
C1099 C1095 1.400 . S
C1099 C1098 1.385 . S
C1100 C1098 1.478 . S
C1100 C1102 1.381 . S
C1100 C1106 1.383 . S
C1101 C1097 1.495 . S
C1101 H1107 0.959 . S
C1101 H1108 0.961 . S
C1101 H1109 0.960 . S
C1102 C1100 1.381 . S
C1102 C1103 1.394 . S
C1102 H1110 0.930 . S
C1103 C1102 1.394 . S
C1103 C1104 1.383 . S
C1103 H1111 0.929 . S
C1104 C1103 1.383 . S
C1104 C1105 1.377 . S
C1105 H1089 0.930 . S
C1105 C1104 1.377 . S
C1105 C1106 1.379 . S
C1106 H1090 0.931 . S
C1106 C1100 1.383 . S
C1106 C1105 1.379 . S
H1107 C1101 0.959 . S
H1108 C1101 0.961 . S
H1109 C1101 0.960 . S
H1110 C1102 0.930 . S
H1111 C1103 0.929 . S
C257 C76 1.739 . S
C276 C97 1.696 . S
C312 C137 1.320 . S
C293 C87 1.350 . S
C348 C186 1.274 . S
C329 C54 1.344 . S
C384 C217 1.521 . S
C365 C65 1.604 . S
C420 C106 1.734 1_565 S
C401 C32 1.751 . S
C437 C43 1.341 . S
C456 C146 1.323 . S
C473 C10 1.345 . S
C492 C177 1.285 . S
C509 C21 1.610 . S
C528 C226 1.516 . S
C564 C107 0.708 . S
C545 C60 0.699 . S
C600 C147 1.305 . S
C581 C71 1.186 . S
C636 C183 0.596 . S
C617 C82 0.621 . S
C653 C49 0.866 . S
C672 C227 0.908 . S
C689 C16 0.703 . S
C708 C98 0.704 . S
C744 C138 1.304 1_565 S
C725 C27 1.190 . S
C780 C174 0.625 . S
C761 C38 0.600 . S
C797 C5 0.843 . S
C816 C218 0.908 . S
C833 C59 1.618 . S
C852 C103 1.650 . S
C869 C70 1.402 . S
C888 C143 1.418 . S
C924 C187 1.932 . S
C905 C81 1.790 . S
C960 C223 1.438 . S
C941 C48 1.419 . S
C977 C15 1.621 . S
C996 C94 1.651 . S
C1032 C134 1.407 . S
C1013 C26 1.388 . S
C1068 C178 1.928 . S
C1049 C37 1.812 . S
C1085 C4 1.412 . S
C1104 C214 1.436 . S
