# Generated by pormake.
# Topology ptr, (4,4)-cn, num edge types: 1
# Building blocks:
#     Node 0, Type 0, BuildingBlock: NAHDIM_clean_sbu_0, # of connection points: 4
#     Node 1, Type 0, BuildingBlock: NAHDIM_clean_sbu_0, # of connection points: 4
#     Node 2, Type 0, BuildingBlock: NAHDIM_clean_sbu_0, # of connection points: 4
#     Node 3, Type 0, BuildingBlock: NAHDIM_clean_sbu_0, # of connection points: 4
#     Node 4, Type 0, BuildingBlock: NAHDIM_clean_sbu_0, # of connection points: 4
#     Node 5, Type 0, BuildingBlock: NAHDIM_clean_sbu_0, # of connection points: 4
#     Node 6, Type 0, BuildingBlock: NAHDIM_clean_sbu_0, # of connection points: 4
#     Node 7, Type 0, BuildingBlock: NAHDIM_clean_sbu_0, # of connection points: 4
#     Node 8, Type 0, BuildingBlock: NAHDIM_clean_sbu_0, # of connection points: 4
#     Node 9, Type 0, BuildingBlock: NAHDIM_clean_sbu_0, # of connection points: 4
#     Node 10, Type 0, BuildingBlock: NAHDIM_clean_sbu_0, # of connection points: 4
#     Node 11, Type 0, BuildingBlock: NAHDIM_clean_sbu_0, # of connection points: 4
#     Node 12, Type 0, BuildingBlock: NAHDIM_clean_sbu_0, # of connection points: 4
#     Node 13, Type 0, BuildingBlock: NAHDIM_clean_sbu_0, # of connection points: 4
#     Node 14, Type 0, BuildingBlock: NAHDIM_clean_sbu_0, # of connection points: 4
#     Node 15, Type 0, BuildingBlock: NAHDIM_clean_sbu_0, # of connection points: 4
#     Node 16, Type 0, BuildingBlock: NAHDIM_clean_sbu_0, # of connection points: 4
#     Node 17, Type 0, BuildingBlock: NAHDIM_clean_sbu_0, # of connection points: 4
#     Node 18, Type 1, BuildingBlock: NAWXER_clean_linker_0, # of connection points: 4
#     Node 19, Type 1, BuildingBlock: NAWXER_clean_linker_0, # of connection points: 4
#     Node 20, Type 1, BuildingBlock: NAWXER_clean_linker_0, # of connection points: 4
#     Node 21, Type 1, BuildingBlock: NAWXER_clean_linker_0, # of connection points: 4
#     Node 22, Type 1, BuildingBlock: NAWXER_clean_linker_0, # of connection points: 4
#     Node 23, Type 1, BuildingBlock: NAWXER_clean_linker_0, # of connection points: 4
#     Node 24, Type 1, BuildingBlock: NAWXER_clean_linker_0, # of connection points: 4
#     Node 25, Type 1, BuildingBlock: NAWXER_clean_linker_0, # of connection points: 4
#     Node 26, Type 1, BuildingBlock: NAWXER_clean_linker_0, # of connection points: 4
#     Node 27, Type 1, BuildingBlock: NAWXER_clean_linker_0, # of connection points: 4
#     Node 28, Type 1, BuildingBlock: NAWXER_clean_linker_0, # of connection points: 4
#     Node 29, Type 1, BuildingBlock: NAWXER_clean_linker_0, # of connection points: 4
#     Node 30, Type 1, BuildingBlock: NAWXER_clean_linker_0, # of connection points: 4
#     Node 31, Type 1, BuildingBlock: NAWXER_clean_linker_0, # of connection points: 4
#     Node 32, Type 1, BuildingBlock: NAWXER_clean_linker_0, # of connection points: 4
#     Node 33, Type 1, BuildingBlock: NAWXER_clean_linker_0, # of connection points: 4
#     Node 34, Type 1, BuildingBlock: NAWXER_clean_linker_0, # of connection points: 4
#     Node 35, Type 1, BuildingBlock: NAWXER_clean_linker_0, # of connection points: 4
#     Edge 36, Type (0, 1), BuildingBlock: CIFDUS_clean_linker_0, # of connection points: 2
#     Edge 37, Type (0, 1), BuildingBlock: CIFDUS_clean_linker_0, # of connection points: 2
#     Edge 38, Type (0, 1), BuildingBlock: CIFDUS_clean_linker_0, # of connection points: 2
#     Edge 39, Type (0, 1), BuildingBlock: CIFDUS_clean_linker_0, # of connection points: 2
#     Edge 40, Type (0, 1), BuildingBlock: CIFDUS_clean_linker_0, # of connection points: 2
#     Edge 41, Type (0, 1), BuildingBlock: CIFDUS_clean_linker_0, # of connection points: 2
#     Edge 42, Type (0, 1), BuildingBlock: CIFDUS_clean_linker_0, # of connection points: 2
#     Edge 43, Type (0, 1), BuildingBlock: CIFDUS_clean_linker_0, # of connection points: 2
#     Edge 44, Type (0, 1), BuildingBlock: CIFDUS_clean_linker_0, # of connection points: 2
#     Edge 45, Type (0, 1), BuildingBlock: CIFDUS_clean_linker_0, # of connection points: 2
#     Edge 46, Type (0, 1), BuildingBlock: CIFDUS_clean_linker_0, # of connection points: 2
#     Edge 47, Type (0, 1), BuildingBlock: CIFDUS_clean_linker_0, # of connection points: 2
#     Edge 48, Type (0, 1), BuildingBlock: CIFDUS_clean_linker_0, # of connection points: 2
#     Edge 49, Type (0, 1), BuildingBlock: CIFDUS_clean_linker_0, # of connection points: 2
#     Edge 50, Type (0, 1), BuildingBlock: CIFDUS_clean_linker_0, # of connection points: 2
#     Edge 51, Type (0, 1), BuildingBlock: CIFDUS_clean_linker_0, # of connection points: 2
#     Edge 52, Type (0, 1), BuildingBlock: CIFDUS_clean_linker_0, # of connection points: 2
#     Edge 53, Type (0, 1), BuildingBlock: CIFDUS_clean_linker_0, # of connection points: 2
#     Edge 54, Type (0, 1), BuildingBlock: CIFDUS_clean_linker_0, # of connection points: 2
#     Edge 55, Type (0, 1), BuildingBlock: CIFDUS_clean_linker_0, # of connection points: 2
#     Edge 56, Type (0, 1), BuildingBlock: CIFDUS_clean_linker_0, # of connection points: 2
#     Edge 57, Type (0, 1), BuildingBlock: CIFDUS_clean_linker_0, # of connection points: 2
#     Edge 58, Type (0, 1), BuildingBlock: CIFDUS_clean_linker_0, # of connection points: 2
#     Edge 59, Type (0, 1), BuildingBlock: CIFDUS_clean_linker_0, # of connection points: 2
#     Edge 60, Type (0, 1), BuildingBlock: CIFDUS_clean_linker_0, # of connection points: 2
#     Edge 61, Type (0, 1), BuildingBlock: CIFDUS_clean_linker_0, # of connection points: 2
#     Edge 62, Type (0, 1), BuildingBlock: CIFDUS_clean_linker_0, # of connection points: 2
#     Edge 63, Type (0, 1), BuildingBlock: CIFDUS_clean_linker_0, # of connection points: 2
#     Edge 64, Type (0, 1), BuildingBlock: CIFDUS_clean_linker_0, # of connection points: 2
#     Edge 65, Type (0, 1), BuildingBlock: CIFDUS_clean_linker_0, # of connection points: 2
#     Edge 66, Type (0, 1), BuildingBlock: CIFDUS_clean_linker_0, # of connection points: 2
#     Edge 67, Type (0, 1), BuildingBlock: CIFDUS_clean_linker_0, # of connection points: 2
#     Edge 68, Type (0, 1), BuildingBlock: CIFDUS_clean_linker_0, # of connection points: 2
#     Edge 69, Type (0, 1), BuildingBlock: CIFDUS_clean_linker_0, # of connection points: 2
#     Edge 70, Type (0, 1), BuildingBlock: CIFDUS_clean_linker_0, # of connection points: 2
#     Edge 71, Type (0, 1), BuildingBlock: CIFDUS_clean_linker_0, # of connection points: 2
#     Edge 72, Type (0, 1), BuildingBlock: CIFDUS_clean_linker_0, # of connection points: 2
#     Edge 73, Type (0, 1), BuildingBlock: CIFDUS_clean_linker_0, # of connection points: 2
#     Edge 74, Type (0, 1), BuildingBlock: CIFDUS_clean_linker_0, # of connection points: 2
#     Edge 75, Type (0, 1), BuildingBlock: CIFDUS_clean_linker_0, # of connection points: 2
#     Edge 76, Type (0, 1), BuildingBlock: CIFDUS_clean_linker_0, # of connection points: 2
#     Edge 77, Type (0, 1), BuildingBlock: CIFDUS_clean_linker_0, # of connection points: 2
#     Edge 78, Type (0, 1), BuildingBlock: CIFDUS_clean_linker_0, # of connection points: 2
#     Edge 79, Type (0, 1), BuildingBlock: CIFDUS_clean_linker_0, # of connection points: 2
#     Edge 80, Type (0, 1), BuildingBlock: CIFDUS_clean_linker_0, # of connection points: 2
#     Edge 81, Type (0, 1), BuildingBlock: CIFDUS_clean_linker_0, # of connection points: 2
#     Edge 82, Type (0, 1), BuildingBlock: CIFDUS_clean_linker_0, # of connection points: 2
#     Edge 83, Type (0, 1), BuildingBlock: CIFDUS_clean_linker_0, # of connection points: 2
#     Edge 84, Type (0, 1), BuildingBlock: CIFDUS_clean_linker_0, # of connection points: 2
#     Edge 85, Type (0, 1), BuildingBlock: CIFDUS_clean_linker_0, # of connection points: 2
#     Edge 86, Type (0, 1), BuildingBlock: CIFDUS_clean_linker_0, # of connection points: 2
#     Edge 87, Type (0, 1), BuildingBlock: CIFDUS_clean_linker_0, # of connection points: 2
#     Edge 88, Type (0, 1), BuildingBlock: CIFDUS_clean_linker_0, # of connection points: 2
#     Edge 89, Type (0, 1), BuildingBlock: CIFDUS_clean_linker_0, # of connection points: 2
#     Edge 90, Type (0, 1), BuildingBlock: CIFDUS_clean_linker_0, # of connection points: 2
#     Edge 91, Type (0, 1), BuildingBlock: CIFDUS_clean_linker_0, # of connection points: 2
#     Edge 92, Type (0, 1), BuildingBlock: CIFDUS_clean_linker_0, # of connection points: 2
#     Edge 93, Type (0, 1), BuildingBlock: CIFDUS_clean_linker_0, # of connection points: 2
#     Edge 94, Type (0, 1), BuildingBlock: CIFDUS_clean_linker_0, # of connection points: 2
#     Edge 95, Type (0, 1), BuildingBlock: CIFDUS_clean_linker_0, # of connection points: 2
#     Edge 96, Type (0, 1), BuildingBlock: CIFDUS_clean_linker_0, # of connection points: 2
#     Edge 97, Type (0, 1), BuildingBlock: CIFDUS_clean_linker_0, # of connection points: 2
#     Edge 98, Type (0, 1), BuildingBlock: CIFDUS_clean_linker_0, # of connection points: 2
#     Edge 99, Type (0, 1), BuildingBlock: CIFDUS_clean_linker_0, # of connection points: 2
#     Edge 100, Type (0, 1), BuildingBlock: CIFDUS_clean_linker_0, # of connection points: 2
#     Edge 101, Type (0, 1), BuildingBlock: CIFDUS_clean_linker_0, # of connection points: 2
#     Edge 102, Type (0, 1), BuildingBlock: CIFDUS_clean_linker_0, # of connection points: 2
#     Edge 103, Type (0, 1), BuildingBlock: CIFDUS_clean_linker_0, # of connection points: 2
#     Edge 104, Type (0, 1), BuildingBlock: CIFDUS_clean_linker_0, # of connection points: 2
#     Edge 105, Type (0, 1), BuildingBlock: CIFDUS_clean_linker_0, # of connection points: 2
#     Edge 106, Type (0, 1), BuildingBlock: CIFDUS_clean_linker_0, # of connection points: 2
#     Edge 107, Type (0, 1), BuildingBlock: CIFDUS_clean_linker_0, # of connection points: 2
# Relax obj value: 0.073
# Max RMSD: 0.265
# Mean RMSD: 0.109
data_MOF--net-ptr--node1-NAHDIM_clean_sbu_0--node2-NAWXER_clean_linker_0--edge1-CIFDUS_clean_linker_0
_symmetry_space_group_name_H-M    P1
_symmetry_Int_Tables_number       1
_symmetry_cell_setting            triclinic
loop_
_symmetry_equiv_pos_as_xyz
'x, y, z'
_cell_length_a     79.667073
_cell_length_b     78.110038
_cell_length_c     56.600728
_cell_angle_alpha  91.79712
_cell_angle_beta   89.060171
_cell_angle_gamma 121.95532
loop_
_atom_site_label
_atom_site_type_symbol
_atom_site_fract_x
_atom_site_fract_y
_atom_site_fract_z
_atom_type_partial_charge
C0 C 0.02933 0.32888 0.03311 0.0
O1 O 0.01032 0.31517 0.03416 0.0
O2 O 0.99431 0.32166 0.98964 0.0
Zn3 Zn 0.01367 0.34751 0.00721 0.0
O4 O -0.00018 0.35274 0.03407 0.0
C5 C 0.02527 0.37124 0.96366 0.0
O6 O 0.01897 0.35404 0.95211 0.0
O7 O 0.03498 0.34474 0.02158 0.0
C8 C 0.9919 0.36289 0.03037 0.0
O9 O 0.99222 0.36898 0.00891 0.0
C10 C 0.97952 0.31971 0.97882 0.0
O11 O 0.97705 0.33504 0.9786 0.0
O12 O 0.02508 0.37158 0.98613 0.0
C13 C 0.69767 0.66839 0.99078 0.0
O14 O 0.69914 0.68371 0.00296 0.0
O15 O 0.66204 0.6736 0.02191 0.0
Zn16 Zn 0.65659 0.64783 0.0059 0.0
O17 O 0.63566 0.63885 0.98087 0.0
C18 C 0.65183 0.63051 0.0519 0.0
O19 O 0.66625 0.64886 0.05783 0.0
O20 O 0.68124 0.65159 0.99027 0.0
C21 C 0.61765 0.63126 0.98668 0.0
O22 O 0.61303 0.63009 0.00922 0.0
C23 C 0.66317 0.68826 0.01128 0.0
O24 O 0.66043 0.68684 0.9883 0.0
O25 O 0.64605 0.62647 0.03052 0.0
C26 C 0.32803 0.01945 0.99019 0.0
O27 O 0.314 0.00088 0.99497 0.0
O28 O 0.32642 0.98778 0.03311 0.0
Zn29 Zn 0.35092 0.00734 0.01486 0.0
O30 O 0.35882 0.99326 0.99072 0.0
C31 C 0.37223 0.02125 0.05966 0.0
O32 O 0.3544 0.01159 0.06888 0.0
O33 O 0.34554 0.0261 0.99736 0.0
C34 C 0.37045 0.98765 0.99678 0.0
O35 O 0.37561 0.98954 0.01909 0.0
C36 C 0.3225 0.9708 0.04033 0.0
O37 O 0.33469 0.96469 0.03532 0.0
O38 O 0.37409 0.02258 0.03732 0.0
C39 C 0.97892 0.6733 0.9867 0.0
O40 O 0.9966 0.68079 0.9774 0.0
O41 O 0.01571 0.68935 0.03656 0.0
Zn42 Zn 0.99744 0.66278 0.01993 0.0
O43 O 0.01051 0.65606 0.99327 0.0
C44 C -2e-05 0.64466 0.06129 0.0
O45 O 0.01698 0.66198 0.06209 0.0
O46 O 0.97505 0.6641 0.00607 0.0
C47 C 0.02063 0.6481 0.99667 0.0
O48 O 0.02428 0.64563 0.01842 0.0
C49 C 0.03029 0.70578 0.02919 0.0
O50 O 0.03536 0.70729 0.00679 0.0
O51 O 0.988 0.64114 0.04453 0.0
C52 C 0.3031 0.33094 0.02214 0.0
O53 O 0.308 0.31737 0.0234 0.0
O54 O 0.33494 0.32356 0.98772 0.0
Zn55 Zn 0.33974 0.35089 0.99772 0.0
O56 O 0.3604 0.36371 0.02348 0.0
C57 C 0.35756 0.36587 0.95236 0.0
O58 O 0.35728 0.34892 0.95178 0.0
O59 O 0.31446 0.34712 0.01122 0.0
C60 C 0.37859 0.37521 0.01833 0.0
O61 O 0.3839 0.37793 0.99601 0.0
C62 C 0.34797 0.31894 0.98915 0.0
O63 O 0.36551 0.33229 0.99774 0.0
O64 O 0.34973 0.36972 0.96985 0.0
C65 C 0.66486 0.97122 0.02341 0.0
O66 O 0.67967 0.99011 0.02452 0.0
O67 O 0.67221 0.01054 0.98797 0.0
Zn68 Zn 0.64666 0.9905 0.00406 0.0
O69 O 0.64144 0.00265 0.03319 0.0
C70 C 0.6243 0.98077 0.95964 0.0
O71 O 0.64101 0.98558 0.94912 0.0
O72 O 0.64853 0.96716 0.01458 0.0
C73 C 0.63172 0.01125 0.03154 0.0
O74 O 0.62654 0.0135 0.0105 0.0
C75 C 0.67493 0.02617 0.97799 0.0
O76 O 0.66069 0.02992 0.97833 0.0
O77 O 0.62355 0.98111 0.98208 0.0
C78 C 0.69085 0.67054 0.36862 0.0
O79 O 0.672 0.65638 0.36754 0.0
O80 O 0.65762 0.66677 0.32242 0.0
Zn81 Zn 0.6776 0.69151 0.34117 0.0
O82 O 0.66534 0.7007 0.3658 0.0
C83 C 0.69495 0.71075 0.29694 0.0
O84 O 0.69097 0.69266 0.29054 0.0
O85 O 0.69699 0.68689 0.35788 0.0
C86 C 0.64853 0.69889 0.36528 0.0
O87 O 0.63655 0.68929 0.34739 0.0
C88 C 0.64131 0.65176 0.32926 0.0
O89 O 0.63577 0.65111 0.35138 0.0
O90 O 0.69141 0.71393 0.31808 0.0
C91 C 0.35259 0.99698 0.32059 0.0
O92 O 0.34224 0.00465 0.31396 0.0
O93 O 0.34018 0.0173 0.3753 0.0
Zn94 Zn 0.32806 0.9898 0.35988 0.0
O95 O 0.30575 0.98354 0.33773 0.0
C96 C 0.31142 0.97414 0.40486 0.0
O97 O 0.31427 0.99229 0.40701 0.0
O98 O 0.34917 0.98898 0.34072 0.0
C99 C 0.28809 0.9767 0.34457 0.0
O100 O 0.2841 0.97476 0.36728 0.0
C101 C 0.34229 0.03332 0.36727 0.0
O102 O 0.33647 0.03325 0.34567 0.0
O103 O 0.31685 0.96924 0.38587 0.0
C104 C 0.0106 0.36777 0.31174 0.0
O105 O 0.99721 0.34835 0.31119 0.0
O106 O 0.00033 0.334 0.35586 0.0
Zn107 Zn 0.02755 0.35356 0.34294 0.0
O108 O 0.0369 0.33943 0.3208 0.0
C109 C 0.04255 0.35957 0.3907 0.0
O110 O 0.02422 0.3451 0.39486 0.0
O111 O 0.02587 0.37429 0.32458 0.0
C112 C 0.04689 0.33248 0.3288 0.0
O113 O 0.05014 0.33374 0.35165 0.0
C114 C 0.99332 0.31527 0.35816 0.0
O115 O 0.00393 0.30765 0.35132 0.0
O116 O 0.04728 0.36652 0.36998 0.0
C117 C 0.65187 0.00216 0.30369 0.0
O118 O 0.66999 0.00938 0.29594 0.0
O119 O 0.69063 0.01435 0.34649 0.0
Zn120 Zn 0.66725 0.9877 0.33558 0.0
O121 O 0.67514 0.97566 0.3091 0.0
C122 C 0.67178 0.96763 0.37228 0.0
O123 O 0.68983 0.97897 0.36402 0.0
O124 O 0.6464 0.99183 0.32231 0.0
C125 C 0.69272 0.98184 0.30244 0.0
O126 O 0.70766 0.99728 0.31357 0.0
C127 C 0.68843 0.02778 0.35662 0.0
O128 O 0.67051 0.02438 0.35932 0.0
O129 O 0.65792 0.96855 0.36279 0.0
C130 C 0.95718 0.66206 0.35111 0.0
O131 O 0.95975 0.64683 0.34833 0.0
O132 O 0.98804 0.6562 0.31225 0.0
Zn133 Zn 0.99505 0.68215 0.32939 0.0
O134 O 0.01358 0.68797 0.35655 0.0
C135 C 0.00617 0.70381 0.28492 0.0
O136 O 0.99356 0.68604 0.2753 0.0
O137 O 0.97038 0.67924 0.34355 0.0
C138 C 0.03222 0.69885 0.35386 0.0
O139 O 0.03939 0.70555 0.33277 0.0
C140 C 0.00057 0.65113 0.30817 0.0
O141 O 0.01899 0.66333 0.31496 0.0
O142 O 0.00846 0.70552 0.30723 0.0
C143 C 0.33117 0.30886 0.38116 0.0
O144 O 0.33607 0.32624 0.39137 0.0
O145 O 0.34134 0.34428 0.33012 0.0
Zn146 Zn 0.31687 0.32405 0.34753 0.0
O147 O 0.30998 0.33717 0.37414 0.0
C148 C 0.29407 0.31 0.30321 0.0
O149 O 0.31127 0.31742 0.29265 0.0
O150 O 0.32222 0.30398 0.3614 0.0
C151 C 0.29815 0.34306 0.37049 0.0
O152 O 0.29172 0.34189 0.34891 0.0
C153 C 0.34397 0.36036 0.32156 0.0
O154 O 0.33018 0.36465 0.3243 0.0
O155 O 0.29335 0.31045 0.32565 0.0
C156 C 0.34878 0.99519 0.69868 0.0
O157 O 0.32959 0.98217 0.69909 0.0
O158 O 0.31464 0.98587 0.65635 0.0
Zn159 Zn 0.33509 0.01361 0.66934 0.0
O160 O 0.32352 0.02421 0.69335 0.0
C161 C 0.33715 0.02976 0.62374 0.0
O162 O 0.31999 0.01272 0.62165 0.0
O163 O 0.35553 0.0109 0.68644 0.0
C164 C 0.31558 0.03396 0.68764 0.0
O165 O 0.31368 0.03629 0.66516 0.0
C166 C 0.29604 0.97815 0.65669 0.0
O167 O 0.28885 0.98857 0.66602 0.0
O168 O 0.3471 0.03345 0.64262 0.0
C169 C 0.02879 0.34104 0.66908 0.0
O170 O 0.02629 0.35636 0.66864 0.0
O171 O 0.99491 0.34872 0.70083 0.0
Zn172 Zn 0.98994 0.32149 0.68995 0.0
O173 O 0.97018 0.30947 0.66303 0.0
C174 C 0.96958 0.30455 0.73376 0.0
O175 O 0.96782 0.32033 0.73359 0.0
O176 O 0.01533 0.32459 0.67793 0.0
C177 C 0.95183 0.29759 0.66704 0.0
O178 O 0.94563 0.29397 0.68901 0.0
C179 C 0.98232 0.35385 0.69851 0.0
O180 O 0.96536 0.34123 0.68808 0.0
O181 O 0.97915 0.30208 0.71718 0.0
C182 C 0.67616 0.70602 0.6543 0.0
O183 O 0.67087 0.68861 0.64389 0.0
O184 O 0.66663 0.67024 0.70541 0.0
Zn185 Zn 0.69069 0.69026 0.68716 0.0
O186 O 0.69659 0.67671 0.66019 0.0
C187 C 0.71165 0.70432 0.73153 0.0
O188 O 0.69401 0.69902 0.73952 0.0
O189 O 0.6855 0.71073 0.6738 0.0
C190 C 0.70516 0.66712 0.66338 0.0
O191 O 0.70954 0.66516 0.68501 0.0
C192 C 0.65102 0.65541 0.6963 0.0
O193 O 0.6502 0.65208 0.67333 0.0
O194 O 0.71404 0.70294 0.70944 0.0
C195 C 0.30812 0.33649 0.65743 0.0
O196 O 0.32715 0.34951 0.66031 0.0
O197 O 0.33733 0.34035 0.70468 0.0
Zn198 Zn 0.31803 0.31448 0.68693 0.0
O199 O 0.33304 0.30636 0.66486 0.0
C200 C 0.30468 0.29298 0.73144 0.0
O201 O 0.31552 0.31104 0.74129 0.0
O202 O 0.30018 0.31957 0.66744 0.0
C203 C 0.33831 0.2947 0.67231 0.0
O204 O 0.33427 0.2887 0.69422 0.0
C205 C 0.35341 0.34349 0.71323 0.0
O206 O 0.35744 0.32925 0.71124 0.0
O207 O 0.30254 0.29129 0.7091 0.0
C208 C 0.64266 0.01529 0.68656 0.0
O209 O 0.63854 0.00888 0.66444 0.0
O210 O 0.6716 0.99596 0.66003 0.0
Zn211 Zn 0.6818 0.02335 0.67506 0.0
O212 O 0.70394 0.03072 0.69777 0.0
C213 C 0.69772 0.04072 0.63037 0.0
O214 O 0.69666 0.02344 0.62727 0.0
O215 O 0.66008 0.02249 0.69424 0.0
C216 C 0.72191 0.03829 0.69176 0.0
O217 O 0.72666 0.04082 0.66926 0.0
C218 C 0.66894 0.98092 0.67132 0.0
O219 O 0.67299 0.98308 0.69402 0.0
O220 O 0.69167 0.04425 0.64976 0.0
C221 C 0.98217 0.63358 0.71168 0.0
O222 O 0.98459 0.6498 0.72267 0.0
O223 O 0.9985 0.66789 0.65358 0.0
Zn224 Zn 0.97356 0.65031 0.67225 0.0
O225 O 0.96799 0.66704 0.6953 0.0
C226 C 0.95061 0.63547 0.62822 0.0
O227 O 0.96793 0.64374 0.61775 0.0
O228 O 0.97712 0.6304 0.69002 0.0
C229 C 0.95754 0.674 0.68896 0.0
O230 O 0.95128 0.67101 0.66701 0.0
C231 C 0.00208 0.68375 0.64334 0.0
O232 O 0.98919 0.68934 0.645 0.0
O233 O 0.94981 0.63567 0.65067 0.0
C234 C 0.21297 0.31363 0.12101 0.0
C235 C 0.20852 0.2993 0.10267 0.0
C236 C 0.19822 0.31143 0.13655 0.0
C237 C 0.17876 0.29486 0.13405 0.0
C238 C 0.189 0.28278 0.10011 0.0
C239 C 0.17418 0.28071 0.11553 0.0
C240 C 0.16301 0.293 0.14989 0.0
C241 C 0.20273 0.28164 0.193 0.0
C242 C 0.21123 0.29454 0.21288 0.0
C243 C 0.18738 0.28113 0.18069 0.0
C244 C 0.18067 0.29397 0.18762 0.0
C245 C 0.20417 0.30695 0.22018 0.0
C246 C 0.18907 0.30668 0.20767 0.0
C247 C 0.16452 0.2939 0.17479 0.0
C248 C 0.08873 0.28895 0.2063 0.0
C249 C 0.09685 0.30312 0.22518 0.0
C250 C 0.10105 0.28608 0.19094 0.0
C251 C 0.12172 0.29772 0.19385 0.0
C252 C 0.11745 0.31438 0.22835 0.0
C253 C 0.12973 0.3117 0.21287 0.0
C254 C 0.13529 0.29527 0.17784 0.0
C255 C 0.10367 0.31449 0.12978 0.0
C256 C 0.09142 0.29939 0.11311 0.0
C257 C 0.11712 0.31252 0.14315 0.0
C258 C 0.11852 0.29542 0.14006 0.0
C259 C 0.09282 0.28226 0.11013 0.0
C260 C 0.10641 0.2804 0.12333 0.0
C261 C 0.13355 0.29381 0.15295 0.0
H262 H 0.22792 0.32643 0.12346 0.0
H263 H 0.20197 0.32277 0.15042 0.0
H264 H 0.18516 0.27164 0.08598 0.0
H265 H 0.15918 0.26799 0.11314 0.0
H266 H 0.20773 0.27171 0.18724 0.0
H267 H 0.18068 0.27056 0.16591 0.0
H268 H 0.21055 0.31712 0.23538 0.0
H269 H 0.1841 0.31662 0.21355 0.0
H270 H 0.07287 0.27988 0.20367 0.0
H271 H 0.09437 0.27465 0.17698 0.0
H272 H 0.12412 0.32553 0.24262 0.0
H273 H 0.14558 0.3208 0.21562 0.0
H274 H 0.10283 0.3278 0.13249 0.0
H275 H 0.12663 0.32448 0.15564 0.0
H276 H 0.08371 0.27051 0.09722 0.0
H277 H 0.1075 0.26723 0.12048 0.0
N278 N 0.14746 0.29271 0.13996 0.0
N279 N 0.15068 0.29519 0.18772 0.0
C280 C 0.67702 0.89028 0.11019 0.0
C281 C 0.69149 0.90138 0.09309 0.0
C282 C 0.67879 0.87714 0.1246 0.0
C283 C 0.69513 0.87494 0.12229 0.0
C284 C 0.70758 0.89875 0.09041 0.0
C285 C 0.70929 0.88551 0.10478 0.0
C286 C 0.6973 0.86141 0.13787 0.0
C287 C 0.70517 0.91304 0.18573 0.0
C288 C 0.68997 0.90647 0.2026 0.0
C289 C 0.70733 0.89899 0.17223 0.0
C290 C 0.69439 0.87822 0.1756 0.0
C291 C 0.677 0.88568 0.20572 0.0
C292 C 0.67929 0.87172 0.19247 0.0
C293 C 0.69686 0.86298 0.16272 0.0
C294 C 0.71581 0.80208 0.19496 0.0
C295 C 0.70428 0.79644 0.21565 0.0
C296 C 0.71411 0.81407 0.17844 0.0
C297 C 0.70059 0.82027 0.18216 0.0
C298 C 0.69077 0.80263 0.21924 0.0
C299 C 0.68899 0.81444 0.20273 0.0
C300 C 0.69919 0.83394 0.16584 0.0
C301 C 0.67911 0.77732 0.1229 0.0
C302 C 0.68992 0.77944 0.10218 0.0
C303 C 0.68218 0.7943 0.13568 0.0
C304 C 0.69647 0.81378 0.12832 0.0
C305 C 0.70404 0.79891 0.09463 0.0
C306 C 0.70725 0.81594 0.10758 0.0
C307 C 0.69878 0.83181 0.1409 0.0
H308 H 0.66453 0.89208 0.11279 0.0
H309 H 0.66744 0.86877 0.13765 0.0
H310 H 0.71883 0.90692 0.07718 0.0
H311 H 0.72187 0.8838 0.10253 0.0
H312 H 0.71537 0.929 0.18303 0.0
H313 H 0.71929 0.90431 0.15953 0.0
H314 H 0.66536 0.88019 0.21886 0.0
H315 H 0.66924 0.85577 0.19545 0.0
H316 H 0.72645 0.79764 0.19185 0.0
H317 H 0.72364 0.81881 0.16305 0.0
H318 H 0.68146 0.79825 0.23481 0.0
H319 H 0.67847 0.81903 0.20607 0.0
H320 H 0.66782 0.7625 0.12884 0.0
H321 H 0.67299 0.79215 0.15098 0.0
H322 H 0.7126 0.80097 0.07874 0.0
H323 H 0.71811 0.83081 0.10135 0.0
N324 N 0.6982 0.84585 0.12787 0.0
N325 N 0.69795 0.8493 0.17567 0.0
C326 C 0.10939 0.79882 0.12823 0.0
C327 C 0.1033 0.80382 0.10776 0.0
C328 C 0.12147 0.81377 0.14489 0.0
C329 C 0.12738 0.83396 0.14164 0.0
C330 C 0.10934 0.82405 0.10445 0.0
C331 C 0.12132 0.83897 0.12121 0.0
C332 C 0.14163 0.85019 0.15795 0.0
C333 C 0.08786 0.80988 0.20279 0.0
C334 C 0.09197 0.80248 0.22281 0.0
C335 C 0.10332 0.82509 0.18955 0.0
C336 C 0.12314 0.8328 0.19584 0.0
C337 C 0.11177 0.81031 0.22906 0.0
C338 C 0.12714 0.82528 0.21576 0.0
C339 C 0.13998 0.84937 0.18286 0.0
C340 C 0.21179 0.9297 0.21478 0.0
C341 C 0.21557 0.92288 0.23553 0.0
C342 C 0.19746 0.91594 0.19869 0.0
C343 C 0.18712 0.89509 0.20277 0.0
C344 C 0.20493 0.90212 0.23981 0.0
C345 C 0.19091 0.8884 0.22361 0.0
C346 C 0.17167 0.88001 0.18632 0.0
C347 C 0.22672 0.90983 0.14102 0.0
C348 C 0.22557 0.91968 0.1213 0.0
C349 C 0.2099 0.8976 0.15456 0.0
C350 C 0.19165 0.89514 0.14877 0.0
C351 C 0.20732 0.91732 0.11568 0.0
C352 C 0.1905 0.90504 0.12919 0.0
C353 C 0.17339 0.88064 0.16143 0.0
H354 H 0.10529 0.78342 0.13104 0.0
H355 H 0.1266 0.80959 0.15998 0.0
H356 H 0.10479 0.82832 0.08891 0.0
H357 H 0.12598 0.85451 0.11814 0.0
H358 H 0.07271 0.80424 0.19772 0.0
H359 H 0.09976 0.831 0.17469 0.0
H360 H 0.11541 0.80473 0.24421 0.0
H361 H 0.14225 0.83096 0.22106 0.0
H362 H 0.21968 0.94567 0.21123 0.0
H363 H 0.19436 0.92166 0.18327 0.0
H364 H 0.20769 0.89646 0.25557 0.0
H365 H 0.1831 0.87245 0.22733 0.0
H366 H 0.24059 0.91144 0.14587 0.0
H367 H 0.21106 0.88966 0.16918 0.0
H368 H 0.2059 0.92448 0.10041 0.0
H369 H 0.1765 0.90307 0.12418 0.0
N370 N 0.15822 0.86584 0.14831 0.0
N371 N 0.15507 0.86435 0.19592 0.0
C372 C 0.32068 0.10442 0.81502 0.0
C373 C 0.30505 0.09281 0.79907 0.0
C374 C 0.31992 0.1179 0.83113 0.0
C375 C 0.30337 0.11984 0.8319 0.0
C376 C 0.28859 0.09495 0.79969 0.0
C377 C 0.28781 0.10841 0.81589 0.0
C378 C 0.30277 0.13465 0.84827 0.0
C379 C 0.30433 0.08921 0.89456 0.0
C380 C 0.32062 0.09777 0.91006 0.0
C381 C 0.29983 0.10153 0.88217 0.0
C382 C 0.31169 0.12263 0.88485 0.0
C383 C 0.33231 0.11889 0.91281 0.0
C384 C 0.32786 0.13114 0.9004 0.0
C385 C 0.30705 0.13616 0.87268 0.0
C386 C 0.29504 0.2038 0.90595 0.0
C387 C 0.3105 0.21312 0.92262 0.0
C388 C 0.29254 0.18779 0.89146 0.0
C389 C 0.30584 0.18121 0.89275 0.0
C390 C 0.323 0.20561 0.92485 0.0
C391 C 0.32075 0.18992 0.91002 0.0
C392 C 0.30436 0.16513 0.87659 0.0
C393 C 0.31485 0.2154 0.8309 0.0
C394 C 0.29842 0.21086 0.81705 0.0
C395 C 0.31561 0.20013 0.84199 0.0
C396 C 0.29989 0.17997 0.8397 0.0
C397 C 0.28291 0.19056 0.81423 0.0
C398 C 0.28371 0.17524 0.82537 0.0
C399 C 0.30057 0.16394 0.85208 0.0
H400 H 0.33377 0.10348 0.81463 0.0
H401 H 0.33244 0.12707 0.8427 0.0
H402 H 0.27628 0.08617 0.78771 0.0
H403 H 0.27501 0.10985 0.81599 0.0
H404 H 0.29507 0.073 0.89196 0.0
H405 H 0.28698 0.09454 0.87075 0.0
H406 H 0.34471 0.12599 0.92493 0.0
H407 H 0.33712 0.14737 0.90297 0.0
H408 H 0.28512 0.20914 0.90363 0.0
H409 H 0.28035 0.18078 0.87906 0.0
H410 H 0.33467 0.21192 0.93795 0.0
H411 H 0.33096 0.18486 0.91177 0.0
H412 H 0.3273 0.23077 0.83293 0.0
H413 H 0.32851 0.20408 0.85244 0.0
H414 H 0.27003 0.18655 0.80372 0.0
H415 H 0.27151 0.15974 0.82319 0.0
N416 N 0.29965 0.14859 0.83893 0.0
N417 N 0.30761 0.1513 0.88578 0.0
C418 C 0.91602 0.19862 0.90699 0.0
C419 C 0.91025 0.20887 0.92273 0.0
C420 C 0.90179 0.18157 0.89415 0.0
C421 C 0.88161 0.1746 0.89676 0.0
C422 C 0.88999 0.20111 0.92632 0.0
C423 C 0.87581 0.18406 0.91355 0.0
C424 C 0.86648 0.15827 0.88126 0.0
C425 C 0.90315 0.21128 0.83532 0.0
C426 C 0.91154 0.20789 0.81502 0.0
C427 C 0.88922 0.1952 0.84875 0.0
C428 C 0.88399 0.17534 0.84301 0.0
C429 C 0.90614 0.18795 0.80912 0.0
C430 C 0.89254 0.17188 0.823 0.0
C431 C 0.8682 0.15808 0.85634 0.0
C432 C 0.78728 0.09697 0.82268 0.0
C433 C 0.7913 0.08654 0.80503 0.0
C434 C 0.80186 0.10989 0.83893 0.0
C435 C 0.82067 0.11244 0.83807 0.0
C436 C 0.81014 0.08908 0.80426 0.0
C437 C 0.82472 0.102 0.82056 0.0
C438 C 0.83666 0.12734 0.85391 0.0
C439 C 0.78941 0.07937 0.89959 0.0
C440 C 0.78085 0.08689 0.91538 0.0
C441 C 0.80704 0.09258 0.88782 0.0
C442 C 0.81634 0.11354 0.89153 0.0
C443 C 0.79054 0.10785 0.91953 0.0
C444 C 0.80811 0.121 0.90781 0.0
C445 C 0.83458 0.12801 0.87871 0.0
H446 H 0.93153 0.20426 0.9039 0.0
H447 H 0.90658 0.17423 0.88162 0.0
H448 H 0.88512 0.20847 0.93868 0.0
H449 H 0.86031 0.17882 0.91604 0.0
H450 H 0.90708 0.22636 0.84076 0.0
H451 H 0.88224 0.19838 0.86333 0.0
H452 H 0.91193 0.18462 0.7934 0.0
H453 H 0.88843 0.15666 0.81785 0.0
H454 H 0.77308 0.09572 0.82344 0.0
H455 H 0.79858 0.11832 0.85174 0.0
H456 H 0.81366 0.08118 0.79097 0.0
H457 H 0.83923 0.10397 0.81941 0.0
H458 H 0.7823 0.0633 0.896 0.0
H459 H 0.81334 0.08642 0.87574 0.0
H460 H 0.78455 0.11411 0.93193 0.0
H461 H 0.81511 0.1371 0.91115 0.0
N462 N 0.84962 0.14342 0.89139 0.0
N463 N 0.85337 0.1424 0.84372 0.0
C464 C 0.80526 0.71808 0.89998 0.0
C465 C 0.79504 0.70132 0.91462 0.0
C466 C 0.82072 0.72042 0.88553 0.0
C467 C 0.82606 0.70592 0.88528 0.0
C468 C 0.80074 0.6871 0.91465 0.0
C469 C 0.8161 0.68941 0.90019 0.0
C470 C 0.84244 0.70798 0.87041 0.0
C471 C 0.79626 0.70126 0.81937 0.0
C472 C 0.80302 0.71692 0.80324 0.0
C473 C 0.80963 0.6998 0.83354 0.0
C474 C 0.83 0.71425 0.83228 0.0
C475 C 0.82341 0.73128 0.80187 0.0
C476 C 0.83675 0.72993 0.81623 0.0
C477 C 0.8445 0.71222 0.84604 0.0
C478 C 0.90255 0.68961 0.81533 0.0
C479 C 0.91331 0.70404 0.79811 0.0
C480 C 0.88973 0.69165 0.83053 0.0
C481 C 0.88768 0.7084 0.82922 0.0
C482 C 0.91116 0.72073 0.79666 0.0
C483 C 0.89841 0.72285 0.81205 0.0
C484 C 0.87324 0.70996 0.84449 0.0
C485 C 0.91945 0.71456 0.89262 0.0
C486 C 0.91264 0.69747 0.90654 0.0
C487 C 0.90611 0.71759 0.8806 0.0
C488 C 0.88569 0.70361 0.88224 0.0
C489 C 0.89212 0.68377 0.90859 0.0
C490 C 0.87879 0.68691 0.89669 0.0
C491 C 0.87147 0.7063 0.86895 0.0
H492 H 0.80119 0.72927 0.89952 0.0
H493 H 0.82852 0.73357 0.87464 0.0
H494 H 0.79345 0.67424 0.92606 0.0
H495 H 0.82013 0.67817 0.90054 0.0
H496 H 0.78068 0.68972 0.82044 0.0
H497 H 0.80405 0.68707 0.84504 0.0
H498 H 0.82903 0.74353 0.78963 0.0
H499 H 0.85241 0.74111 0.81471 0.0
H500 H 0.90348 0.67632 0.81649 0.0
H501 H 0.88101 0.67982 0.8429 0.0
H502 H 0.91926 0.73207 0.78354 0.0
H503 H 0.89686 0.73574 0.81049 0.0
H504 H 0.93511 0.72567 0.89108 0.0
H505 H 0.91175 0.73086 0.86998 0.0
H506 H 0.88635 0.67035 0.91894 0.0
H507 H 0.86307 0.67598 0.89826 0.0
N508 N 0.85604 0.70522 0.88087 0.0
N509 N 0.85985 0.71305 0.83406 0.0
C510 C 0.74344 0.62517 0.46954 0.0
C511 C 0.75025 0.63925 0.45133 0.0
C512 C 0.75663 0.62205 0.48194 0.0
C513 C 0.77696 0.63331 0.47677 0.0
C514 C 0.77059 0.65034 0.44618 0.0
C515 C 0.78374 0.64747 0.4588 0.0
C516 C 0.79129 0.62957 0.48823 0.0
C517 C 0.76622 0.64762 0.54948 0.0
C518 C 0.75719 0.63321 0.56719 0.0
C519 C 0.77698 0.64523 0.53133 0.0
C520 C 0.77871 0.62824 0.53033 0.0
C521 C 0.75879 0.61611 0.56598 0.0
C522 C 0.76952 0.61372 0.54781 0.0
C523 C 0.7917 0.62653 0.51267 0.0
C524 C 0.87161 0.63888 0.52523 0.0
C525 C 0.86769 0.62323 0.54036 0.0
C526 C 0.85616 0.63909 0.51427 0.0
C527 C 0.83646 0.62354 0.51796 0.0
C528 C 0.8479 0.60779 0.54428 0.0
C529 C 0.83242 0.60802 0.53327 0.0
C530 C 0.82008 0.62397 0.50668 0.0
C531 C 0.8548 0.6157 0.44912 0.0
C532 C 0.86261 0.63075 0.43203 0.0
C533 C 0.84052 0.61401 0.4652 0.0
C534 C 0.83415 0.62769 0.46495 0.0
C535 C 0.85551 0.64381 0.43118 0.0
C536 C 0.8415 0.64232 0.44747 0.0
C537 C 0.81953 0.62677 0.48224 0.0
H538 H 0.7279 0.61644 0.47414 0.0
H539 H 0.75083 0.61055 0.49516 0.0
H540 H 0.77641 0.66092 0.43194 0.0
H541 H 0.79929 0.6562 0.45421 0.0
H542 H 0.76562 0.66116 0.55015 0.0
H543 H 0.78447 0.657 0.51853 0.0
H544 H 0.75188 0.60466 0.57923 0.0
H545 H 0.77084 0.6006 0.54753 0.0
H546 H 0.88662 0.65126 0.52229 0.0
H547 H 0.85961 0.65156 0.5031 0.0
H548 H 0.84438 0.59549 0.55577 0.0
H549 H 0.8173 0.59599 0.53654 0.0
H550 H 0.85993 0.6054 0.45039 0.0
H551 H 0.83457 0.60207 0.47788 0.0
H552 H 0.86075 0.65522 0.4179 0.0
H553 H 0.83659 0.65284 0.44659 0.0
N554 N 0.80522 0.62951 0.47412 0.0
N555 N 0.80603 0.62374 0.52088 0.0
C556 C 0.35214 0.23768 0.48106 0.0
C557 C 0.36257 0.24792 0.46081 0.0
C558 C 0.35667 0.22497 0.49227 0.0
C559 C 0.37223 0.22286 0.48398 0.0
C560 C 0.3776 0.24523 0.4519 0.0
C561 C 0.38242 0.23282 0.46344 0.0
C562 C 0.3769 0.20915 0.49561 0.0
C563 C 0.38533 0.25627 0.5499 0.0
C564 C 0.37257 0.24829 0.5694 0.0
C565 C 0.38769 0.24352 0.53413 0.0
C566 C 0.37695 0.22255 0.53737 0.0
C567 C 0.36238 0.2274 0.57294 0.0
C568 C 0.36459 0.2147 0.55715 0.0
C569 C 0.37818 0.20842 0.52042 0.0
C570 C 0.39155 0.14016 0.535 0.0
C571 C 0.37598 0.12907 0.55091 0.0
C572 C 0.39294 0.15643 0.52328 0.0
C573 C 0.37895 0.16191 0.52773 0.0
C574 C 0.36217 0.13472 0.55538 0.0
C575 C 0.36378 0.15111 0.54411 0.0
C576 C 0.37972 0.17882 0.51569 0.0
C577 C 0.36021 0.12876 0.46133 0.0
C578 C 0.37183 0.13403 0.44077 0.0
C579 C 0.36269 0.14359 0.47777 0.0
C580 C 0.37721 0.16396 0.4743 0.0
C581 C 0.38605 0.15443 0.43698 0.0
C582 C 0.38871 0.16928 0.45363 0.0
C583 C 0.37904 0.17987 0.49088 0.0
H584 H 0.34022 0.23922 0.48794 0.0
H585 H 0.34786 0.21667 0.50732 0.0
H586 H 0.38577 0.25294 0.43622 0.0
H587 H 0.39417 0.23106 0.45641 0.0
H588 H 0.39352 0.27234 0.54691 0.0
H589 H 0.39772 0.25 0.51934 0.0
H590 H 0.35225 0.22077 0.58764 0.0
H591 H 0.35619 0.19861 0.56008 0.0
H592 H 0.40236 0.13603 0.53138 0.0
H593 H 0.40487 0.16473 0.51086 0.0
H594 H 0.35016 0.12647 0.56774 0.0
H595 H 0.35288 0.15513 0.54783 0.0
H596 H 0.34879 0.11319 0.46439 0.0
H597 H 0.35287 0.13911 0.49286 0.0
H598 H 0.39515 0.15887 0.42122 0.0
H599 H 0.3997 0.18496 0.45035 0.0
N600 N 0.37773 0.19504 0.48183 0.0
N601 N 0.3793 0.19315 0.52941 0.0
C602 C 0.77882 0.12126 0.44383 0.0
C603 C 0.76798 0.12621 0.42924 0.0
C604 C 0.79403 0.13604 0.45807 0.0
C605 C 0.79862 0.15603 0.4581 0.0
C606 C 0.77275 0.14631 0.42908 0.0
C607 C 0.78811 0.16116 0.44327 0.0
C608 C 0.81468 0.17157 0.47327 0.0
C609 C 0.76448 0.13096 0.52246 0.0
C610 C 0.76927 0.11899 0.53527 0.0
C611 C 0.7792 0.14746 0.51002 0.0
C612 C 0.79888 0.15233 0.51065 0.0
C613 C 0.78896 0.12393 0.53581 0.0
C614 C 0.80365 0.14058 0.52381 0.0
C615 C 0.81479 0.16968 0.49792 0.0
C616 C 0.88726 0.24831 0.52975 0.0
C617 C 0.89135 0.2409 0.54973 0.0
C618 C 0.87322 0.23493 0.51314 0.0
C619 C 0.86338 0.21395 0.51605 0.0
C620 C 0.88181 0.21996 0.55234 0.0
C621 C 0.868 0.20666 0.5357 0.0
C622 C 0.84702 0.19941 0.50022 0.0
C623 C 0.89979 0.22705 0.4524 0.0
C624 C 0.89894 0.23762 0.43329 0.0
C625 C 0.88318 0.21556 0.46648 0.0
C626 C 0.8654 0.21456 0.46192 0.0
C627 C 0.88117 0.23672 0.42881 0.0
C628 C 0.8645 0.22515 0.44291 0.0
C629 C 0.8473 0.2008 0.47534 0.0
H630 H 0.77537 0.10588 0.44448 0.0
H631 H 0.80223 0.13185 0.46907 0.0
H632 H 0.76474 0.15056 0.41783 0.0
H633 H 0.79161 0.17658 0.4429 0.0
H634 H 0.74938 0.1274 0.52189 0.0
H635 H 0.77529 0.1565 0.50011 0.0
H636 H 0.79301 0.11504 0.5458 0.0
H637 H 0.81876 0.14415 0.52454 0.0
H638 H 0.89432 0.26441 0.52748 0.0
H639 H 0.86958 0.24103 0.49854 0.0
H640 H 0.88487 0.21387 0.56747 0.0
H641 H 0.86066 0.19058 0.5384 0.0
H642 H 0.91331 0.22757 0.45641 0.0
H643 H 0.88411 0.20701 0.48055 0.0
H644 H 0.88 0.24452 0.41404 0.0
H645 H 0.85084 0.2243 0.43881 0.0
N646 N 0.83096 0.18699 0.46285 0.0
N647 N 0.83085 0.18372 0.51043 0.0
C648 C 0.95515 0.53762 0.15296 0.0
C649 C 0.96893 0.547 0.13469 0.0
C650 C 0.95464 0.52218 0.16548 0.0
C651 C 0.96773 0.51579 0.15959 0.0
C652 C 0.98184 0.54044 0.12873 0.0
C653 C 0.9811 0.52482 0.1409 0.0
C654 C 0.96759 0.4996 0.17253 0.0
C655 C 0.99695 0.55409 0.22014 0.0
C656 C 0.98543 0.55303 0.23974 0.0
C657 C 0.99167 0.53688 0.20635 0.0
C658 C 0.97472 0.51825 0.21181 0.0
C659 C 0.96853 0.53433 0.24534 0.0
C660 C 0.96333 0.517 0.23158 0.0
C661 C 0.9696 0.50012 0.19726 0.0
C662 C 0.99059 0.43936 0.21524 0.0
C663 C 0.97736 0.42799 0.23329 0.0
C664 C 0.98761 0.45249 0.20232 0.0
C665 C 0.97141 0.45451 0.20733 0.0
C666 C 0.96113 0.43001 0.23822 0.0
C667 C 0.95832 0.44334 0.22551 0.0
C668 C 0.96879 0.46915 0.19469 0.0
C669 C 0.95627 0.41933 0.14082 0.0
C670 C 0.96714 0.42633 0.11978 0.0
C671 C 0.95635 0.43303 0.15751 0.0
C672 C 0.96776 0.45391 0.15359 0.0
C673 C 0.97856 0.44714 0.11601 0.0
C674 C 0.9789 0.46075 0.13273 0.0
C675 C 0.9674 0.46897 0.16981 0.0
H676 H 0.94509 0.5425 0.15781 0.0
H677 H 0.94404 0.51519 0.17966 0.0
H678 H 0.9925 0.54741 0.11458 0.0
H679 H 0.99125 0.52005 0.13604 0.0
H680 H 0.00996 0.56831 0.21531 0.0
H681 H 0.00092 0.53809 0.19146 0.0
H682 H 0.9595 0.53308 0.26049 0.0
H683 H 0.95035 0.50269 0.23622 0.0
H684 H 0.00317 0.43802 0.21106 0.0
H685 H 0.9981 0.46128 0.18865 0.0
H686 H 0.95085 0.42157 0.25222 0.0
H687 H 0.94588 0.44491 0.22981 0.0
H688 H 0.94728 0.4033 0.14397 0.0
H689 H 0.94714 0.42725 0.17307 0.0
H690 H 0.98726 0.4529 0.10004 0.0
H691 H 0.98783 0.47673 0.12922 0.0
N692 N 0.96675 0.48419 0.1598 0.0
N693 N 0.96987 0.48475 0.2075 0.0
C694 C 0.44765 0.42923 0.1522 0.0
C695 C 0.44361 0.43573 0.13137 0.0
C696 C 0.46192 0.44328 0.16813 0.0
C697 C 0.47202 0.46404 0.16367 0.0
C698 C 0.45358 0.45647 0.12711 0.0
C699 C 0.46763 0.47045 0.14306 0.0
C700 C 0.48827 0.47924 0.17908 0.0
C701 C 0.43409 0.45157 0.22477 0.0
C702 C 0.43512 0.44202 0.24486 0.0
C703 C 0.45101 0.46376 0.2114 0.0
C704 C 0.46925 0.46638 0.21758 0.0
C705 C 0.45348 0.44498 0.25126 0.0
C706 C 0.47039 0.45711 0.2378 0.0
C707 C 0.48738 0.47977 0.20399 0.0
C708 C 0.55715 0.56037 0.23167 0.0
C709 C 0.56258 0.55523 0.25256 0.0
C710 C 0.54386 0.54534 0.21583 0.0
C711 C 0.53603 0.52489 0.22039 0.0
C712 C 0.55482 0.53477 0.25701 0.0
C713 C 0.54163 0.51975 0.2411 0.0
C714 C 0.52033 0.50874 0.20525 0.0
C715 C 0.57292 0.54095 0.155 0.0
C716 C 0.56877 0.54748 0.13424 0.0
C717 C 0.55762 0.52868 0.17063 0.0
C718 C 0.53806 0.52315 0.16591 0.0
C719 C 0.54931 0.5423 0.12993 0.0
C720 C 0.53417 0.53029 0.14555 0.0
C721 C 0.52107 0.50838 0.18029 0.0
H722 H 0.44026 0.41329 0.15575 0.0
H723 H 0.46541 0.43787 0.18355 0.0
H724 H 0.45057 0.46189 0.11131 0.0
H725 H 0.47523 0.48635 0.13917 0.0
H726 H 0.42017 0.44954 0.21928 0.0
H727 H 0.44984 0.47129 0.19634 0.0
H728 H 0.45487 0.43815 0.26687 0.0
H729 H 0.48437 0.45922 0.24316 0.0
H730 H 0.56261 0.57599 0.22798 0.0
H731 H 0.53922 0.54972 0.20048 0.0
H732 H 0.55885 0.53036 0.27287 0.0
H733 H 0.53558 0.50407 0.24514 0.0
H734 H 0.58782 0.54471 0.15864 0.0
H735 H 0.56097 0.52298 0.18589 0.0
H736 H 0.54575 0.54739 0.11428 0.0
H737 H 0.51924 0.52627 0.14148 0.0
N738 N 0.50501 0.49361 0.16835 0.0
N739 N 0.50353 0.49436 0.21607 0.0
C740 C 0.45598 0.02233 0.24134 0.0
C741 C 0.44522 0.00436 0.25391 0.0
C742 C 0.4716 0.02565 0.22663 0.0
C743 C 0.47664 0.01099 0.22397 0.0
C744 C 0.45067 0.98995 0.25174 0.0
C745 C 0.4663 0.99329 0.23697 0.0
C746 C 0.49301 0.01426 0.2082 0.0
C747 C 0.44502 0.00777 0.16192 0.0
C748 C 0.44998 0.02513 0.14944 0.0
C749 C 0.45962 0.0063 0.17325 0.0
C750 C 0.47947 0.02228 0.17268 0.0
C751 C 0.46993 0.04095 0.14844 0.0
C752 C 0.48456 0.03949 0.15989 0.0
C753 C 0.49498 0.02073 0.18473 0.0
C754 C 0.5595 0.01117 0.14472 0.0
C755 C 0.56886 0.02803 0.13015 0.0
C756 C 0.54586 0.00937 0.16187 0.0
C757 C 0.54145 0.02449 0.16497 0.0
C758 C 0.56477 0.04337 0.1337 0.0
C759 C 0.55112 0.04155 0.15083 0.0
C760 C 0.52537 0.0217 0.18103 0.0
C761 C 0.57136 0.02528 0.23028 0.0
C762 C 0.56491 0.00759 0.24293 0.0
C763 C 0.55797 0.02754 0.21716 0.0
C764 C 0.53789 0.01215 0.2164 0.0
C765 C 0.54481 0.99214 0.24186 0.0
C766 C 0.53143 0.99448 0.22889 0.0
C767 C 0.52321 0.01495 0.20441 0.0
H768 H 0.45245 0.03392 0.24307 0.0
H769 H 0.47978 0.03972 0.21738 0.0
H770 H 0.44261 0.97593 0.2611 0.0
H771 H 0.47009 0.98187 0.23535 0.0
H772 H 0.42988 0.9951 0.16252 0.0
H773 H 0.45538 0.99256 0.18228 0.0
H774 H 0.47422 0.05451 0.13898 0.0
H775 H 0.49981 0.0519 0.159 0.0
H776 H 0.56201 0.99889 0.14216 0.0
H777 H 0.53816 0.99574 0.17198 0.0
H778 H 0.57186 0.05664 0.12294 0.0
H779 H 0.54787 0.05335 0.15279 0.0
H780 H 0.58667 0.03762 0.23103 0.0
H781 H 0.56321 0.04154 0.20818 0.0
H782 H 0.53937 0.9782 0.25105 0.0
H783 H 0.51598 0.98246 0.22864 0.0
N784 N 0.5071 0.01148 0.21703 0.0
N785 N 0.51116 0.02436 0.17212 0.0
C786 C 0.55067 0.00438 0.78024 0.0
C787 C 0.54651 0.99178 0.76004 0.0
C788 C 0.53572 0.00079 0.79627 0.0
C789 C 0.5163 0.98456 0.7924 0.0
C790 C 0.52698 0.97553 0.75628 0.0
C791 C 0.51198 0.97209 0.7722 0.0
C792 C 0.50022 0.9815 0.80844 0.0
C793 C 0.53816 0.96573 0.8487 0.0
C794 C 0.54612 0.97693 0.86986 0.0
C795 C 0.52338 0.96653 0.8367 0.0
C796 C 0.51663 0.97892 0.84535 0.0
C797 C 0.53912 0.98903 0.87868 0.0
C798 C 0.52452 0.98999 0.86658 0.0
C799 C 0.50083 0.9799 0.83315 0.0
C800 C 0.42182 0.96669 0.86492 0.0
C801 C 0.42811 0.97775 0.88641 0.0
C802 C 0.43564 0.96733 0.8488 0.0
C803 C 0.45602 0.97945 0.85365 0.0
C804 C 0.44846 0.9896 0.89137 0.0
C805 C 0.46224 0.99042 0.87518 0.0
C806 C 0.47104 0.98016 0.83719 0.0
C807 C 0.44121 0.00459 0.79414 0.0
C808 C 0.43074 0.9922 0.77451 0.0
C809 C 0.45374 0.00087 0.807 0.0
C810 C 0.45601 0.98473 0.80038 0.0
C811 C 0.43296 0.97598 0.76806 0.0
C812 C 0.44563 0.97241 0.78076 0.0
C813 C 0.4705 0.98172 0.81245 0.0
H814 H 0.56542 0.0173 0.78346 0.0
H815 H 0.53924 0.01093 0.81144 0.0
H816 H 0.52326 0.96535 0.74111 0.0
H817 H 0.49702 0.9596 0.76882 0.0
H818 H 0.54307 0.95603 0.84169 0.0
H819 H 0.51707 0.95722 0.82086 0.0
H820 H 0.5451 0.99797 0.89484 0.0
H821 H 0.5195 -0.00044 0.87373 0.0
H822 H 0.4062 0.95723 0.86081 0.0
H823 H 0.43033 0.95809 0.83276 0.0
H824 H 0.45375 0.99845 0.9077 0.0
H825 H 0.47784 -0.00022 0.87945 0.0
H826 H 0.4397 0.01715 0.79951 0.0
H827 H 0.46197 0.01086 0.82177 0.0
H828 H 0.42524 0.96634 0.75284 0.0
H829 H 0.44742 0.96007 0.77518 0.0
N830 N 0.48503 0.9822 0.79906 0.0
N831 N 0.48624 0.97938 0.84652 0.0
C832 C 0.00075 0.56281 0.81729 0.0
C833 C 0.00964 0.57154 0.79568 0.0
C834 C 0.0054 0.55009 0.82839 0.0
C835 C 0.01941 0.54627 0.81838 0.0
C836 C 0.02347 0.56752 0.78557 0.0
C837 C 0.02827 0.55498 0.79679 0.0
C838 C 0.02362 0.53185 0.82908 0.0
C839 C 0.04161 0.58177 0.88421 0.0
C840 C 0.03251 0.57524 0.90635 0.0
C841 C 0.03993 0.56775 0.86686 0.0
C842 C 0.02863 0.54694 0.87116 0.0
C843 C 0.02148 0.55449 0.91069 0.0
C844 C 0.01956 0.54051 0.8933 0.0
C845 C 0.02697 0.53163 0.85353 0.0
C846 C 0.04168 0.46305 0.85925 0.0
C847 C 0.03138 0.45476 0.88036 0.0
C848 C 0.04071 0.4784 0.84851 0.0
C849 C 0.02898 0.48535 0.85836 0.0
C850 C 0.02007 0.46208 0.89047 0.0
C851 C 0.0189 0.4772 0.8796 0.0
C852 C 0.02746 0.50147 0.84731 0.0
C853 C 0.00269 0.45021 0.79386 0.0
C854 C 0.01554 0.45439 0.7746 0.0
C855 C 0.00552 0.46568 0.80953 0.0
C856 C 0.02119 0.48559 0.80614 0.0
C857 C 0.03105 0.47438 0.77105 0.0
C858 C 0.03371 0.48991 0.78656 0.0
C859 C 0.0244 0.50189 0.8229 0.0
H860 H 0.98979 0.56537 0.82528 0.0
H861 H 0.99774 0.54294 0.84453 0.0
H862 H 0.03064 0.57414 0.769 0.0
H863 H 0.03891 0.55204 0.78855 0.0
H864 H 0.05037 0.59772 0.88053 0.0
H865 H 0.04767 0.57322 0.85027 0.0
H866 H 0.01414 0.54902 0.92752 0.0
H867 H 0.01087 0.5246 0.89717 0.0
H868 H 0.05075 0.45789 0.85127 0.0
H869 H 0.04927 0.48493 0.83266 0.0
H870 H 0.01184 0.45585 0.90663 0.0
H871 H 0.00987 0.48237 0.88767 0.0
H872 H 0.9907 0.43491 0.79706 0.0
H873 H 0.99555 0.46211 0.82438 0.0
H874 H 0.04105 0.47798 0.75623 0.0
H875 H 0.04577 0.50523 0.78358 0.0
N876 N 0.02269 0.51707 0.81473 0.0
N877 N 0.0286 0.51635 0.8616 0.0
C878 C 0.54337 0.58553 0.77836 0.0
C879 C 0.54969 0.57726 0.76048 0.0
C880 C 0.52708 0.57295 0.79254 0.0
C881 C 0.51706 0.55187 0.78936 0.0
C882 C 0.5395 0.5562 0.75721 0.0
C883 C 0.52336 0.54367 0.77145 0.0
C884 C 0.49952 0.53803 0.80366 0.0
C885 C 0.54916 0.5694 0.85713 0.0
C886 C 0.54615 0.58043 0.87502 0.0
C887 C 0.53391 0.55658 0.84151 0.0
C888 C 0.51539 0.55466 0.84331 0.0
C889 C 0.52766 0.57868 0.87652 0.0
C890 C 0.5124 0.5658 0.86093 0.0
C891 C 0.49857 0.53958 0.82854 0.0
C892 C 0.43038 0.45733 0.85171 0.0
C893 C 0.42243 0.46179 0.87166 0.0
C894 C 0.4448 0.47269 0.8379 0.0
C895 C 0.45088 0.49292 0.84273 0.0
C896 C 0.42894 0.48215 0.87686 0.0
C897 C 0.44297 0.49752 0.8625 0.0
C898 C 0.46654 0.50934 0.82831 0.0
C899 C 0.41685 0.46673 0.78071 0.0
C900 C 0.42215 0.45591 0.76525 0.0
C901 C 0.43146 0.48437 0.79236 0.0
C902 C 0.45156 0.4913 0.78889 0.0
C903 C 0.44229 0.46371 0.76062 0.0
C904 C 0.45684 0.48126 0.77227 0.0
C905 C 0.46725 0.50817 0.80335 0.0
H906 H 0.55079 0.60173 0.78105 0.0
H907 H 0.52219 0.57971 0.80573 0.0
H908 H 0.54414 0.54938 0.74377 0.0
H909 H 0.51586 0.52747 0.76857 0.0
H910 H 0.56306 0.57006 0.85575 0.0
H911 H 0.5364 0.54766 0.82854 0.0
H912 H 0.5249 0.58711 0.88991 0.0
H913 H 0.49816 0.56438 0.86277 0.0
H914 H 0.42563 0.44193 0.84671 0.0
H915 H 0.45129 0.46865 0.82354 0.0
H916 H 0.42359 0.48633 0.89232 0.0
H917 H 0.44777 0.51304 0.86697 0.0
H918 H 0.40145 0.46112 0.78457 0.0
H919 H 0.42705 0.49215 0.80473 0.0
H920 H 0.44682 0.45597 0.74837 0.0
H921 H 0.47225 0.48647 0.76907 0.0
N922 N 0.48378 0.52241 0.79212 0.0
N923 N 0.4821 0.5252 0.83985 0.0
C924 C 0.65247 0.77666 0.48695 0.0
C925 C 0.64058 0.76796 0.46667 0.0
C926 C 0.64968 0.7892 0.50241 0.0
C927 C 0.63435 0.79267 0.49865 0.0
C928 C 0.62527 0.77151 0.46287 0.0
C929 C 0.62219 0.78371 0.4787 0.0
C930 C 0.6323 0.80732 0.51382 0.0
C931 C 0.62676 0.76008 0.56215 0.0
C932 C 0.64318 0.76753 0.5773 0.0
C933 C 0.62349 0.77333 0.54988 0.0
C934 C 0.63656 0.79427 0.55256 0.0
C935 C 0.65585 0.78855 0.58043 0.0
C936 C 0.65246 0.80175 0.56836 0.0
C937 C 0.63416 0.80858 0.53872 0.0
C938 C 0.62353 0.87809 0.56556 0.0
C939 C 0.63858 0.88761 0.58269 0.0
C940 C 0.6214 0.86191 0.55169 0.0
C941 C 0.63449 0.85521 0.55447 0.0
C942 C 0.65124 0.88044 0.58587 0.0
C943 C 0.64917 0.86438 0.57197 0.0
C944 C 0.63307 0.83855 0.53962 0.0
C945 C 0.64892 0.88825 0.48869 0.0
C946 C 0.63571 0.88298 0.46972 0.0
C947 C 0.64713 0.87354 0.50374 0.0
C948 C 0.63183 0.85326 0.5005 0.0
C949 C 0.62023 0.86271 0.46671 0.0
C950 C 0.61839 0.848 0.48188 0.0
C951 C 0.63108 0.83726 0.51474 0.0
H952 H 0.66424 0.77412 0.49074 0.0
H953 H 0.65996 0.79661 0.51691 0.0
H954 H 0.61605 0.76546 0.44725 0.0
H955 H 0.61052 0.78648 0.47509 0.0
H956 H 0.61644 0.74401 0.55968 0.0
H957 H 0.61088 0.76724 0.53813 0.0
H958 H 0.66878 0.79488 0.59166 0.0
H959 H 0.66271 0.81787 0.57071 0.0
H960 H 0.61337 0.88311 0.56296 0.0
H961 H 0.60958 0.8547 0.53878 0.0
H962 H 0.66312 0.8876 0.59871 0.0
H963 H 0.65938 0.85942 0.57453 0.0
H964 H 0.66091 0.90373 0.49165 0.0
H965 H 0.65811 0.87797 0.51746 0.0
H966 H 0.60999 0.85806 0.45209 0.0
H967 H 0.60667 0.83241 0.47879 0.0
N968 N 0.63065 0.82162 0.50289 0.0
N969 N 0.63459 0.82419 0.55056 0.0
C970 C 0.11716 0.75196 0.47151 0.0
C971 C 0.11572 0.76009 0.45037 0.0
C972 C 0.12954 0.76475 0.48981 0.0
C973 C 0.14021 0.78582 0.48737 0.0
C974 C 0.12634 0.7811 0.44808 0.0
C975 C 0.1384 0.79379 0.46634 0.0
C976 C 0.1544 0.80003 0.50546 0.0
C977 C 0.0957 0.76848 0.54368 0.0
C978 C 0.09538 0.759 0.56456 0.0
C979 C 0.11353 0.78112 0.53203 0.0
C980 C 0.13137 0.78424 0.54076 0.0
C981 C 0.11328 0.7621 0.57318 0.0
C982 C 0.13108 0.77466 0.56144 0.0
C983 C 0.15056 0.79913 0.53005 0.0
C984 C 0.20749 0.88231 0.56338 0.0
C985 C 0.21602 0.88024 0.58373 0.0
C986 C 0.19663 0.86592 0.54785 0.0
C987 C 0.19404 0.84711 0.55239 0.0
C988 C 0.21346 0.86139 0.5883 0.0
C989 C 0.20231 0.84485 0.57285 0.0
C990 C 0.18178 0.82974 0.53627 0.0
C991 C 0.23943 0.86807 0.49702 0.0
C992 C 0.23725 0.87804 0.47824 0.0
C993 C 0.22268 0.85273 0.50845 0.0
C994 C 0.20365 0.84707 0.5009 0.0
C995 C 0.21826 0.87247 0.47087 0.0
C996 C 0.20159 0.85695 0.48194 0.0
C997 C 0.18571 0.83038 0.51188 0.0
H998 H 0.10913 0.73577 0.47361 0.0
H999 H 0.13105 0.75816 0.50556 0.0
H1000 H 0.12526 0.78776 0.43212 0.0
H1001 H 0.14642 0.80995 0.46395 0.0
H1002 H 0.08218 0.76633 0.53646 0.0
H1003 H 0.11339 0.78886 0.51656 0.0
H1004 H 0.11364 0.75534 0.58943 0.0
H1005 H 0.14471 0.77715 0.56875 0.0
H1006 H 0.20936 0.8967 0.55935 0.0
H1007 H 0.19003 0.86787 0.53238 0.0
H1008 H 0.21982 0.85941 0.60396 0.0
H1009 H 0.20025 0.83037 0.57677 0.0
H1010 H 0.25402 0.87224 0.50289 0.0
H1011 H 0.22455 0.84509 0.52287 0.0
H1012 H 0.21634 0.88001 0.45636 0.0
H1013 H 0.18705 0.85276 0.47582 0.0
N1014 N 0.17187 0.81561 0.49749 0.0
N1015 N 0.16446 0.81404 0.5445 0.0
C1016 C 0.23826 0.36952 0.48375 0.0
C1017 C 0.23006 0.35729 0.46328 0.0
C1018 C 0.22594 0.36996 0.5014 0.0
C1019 C 0.20525 0.35788 0.49902 0.0
C1020 C 0.2094 0.34496 0.46122 0.0
C1021 C 0.19716 0.34528 0.47885 0.0
C1022 C 0.19178 0.35953 0.516 0.0
C1023 C 0.22053 0.3349 0.55985 0.0
C1024 C 0.23185 0.3474 0.57901 0.0
C1025 C 0.20867 0.33947 0.54693 0.0
C1026 C 0.20794 0.35667 0.55285 0.0
C1027 C 0.23128 0.36474 0.58473 0.0
C1028 C 0.21929 0.36922 0.57189 0.0
C1029 C 0.19387 0.36042 0.54085 0.0
C1030 C 0.11712 0.34753 0.57547 0.0
C1031 C 0.12283 0.36299 0.59269 0.0
C1032 C 0.13108 0.34774 0.56008 0.0
C1033 C 0.151 0.36346 0.56151 0.0
C1034 C 0.14284 0.37862 0.59429 0.0
C1035 C 0.15686 0.37874 0.57894 0.0
C1036 C 0.16572 0.36349 0.54529 0.0
C1037 C 0.12879 0.37802 0.49955 0.0
C1038 C 0.11585 0.36132 0.48509 0.0
C1039 C 0.14417 0.37827 0.51152 0.0
C1040 C 0.14697 0.36201 0.50873 0.0
C1041 C 0.11861 0.34505 0.4825 0.0
C1042 C 0.1342 0.34551 0.494 0.0
C1043 C 0.16341 0.36216 0.52055 0.0
H1044 H 0.25415 0.37929 0.48568 0.0
H1045 H 0.23261 0.38025 0.51644 0.0
H1046 H 0.20268 0.33515 0.44581 0.0
H1047 H 0.18127 0.33583 0.47655 0.0
H1048 H 0.22075 0.3215 0.55496 0.0
H1049 H 0.19962 0.32922 0.53274 0.0
H1050 H 0.23964 0.37451 0.59959 0.0
H1051 H 0.21872 0.38238 0.577 0.0
H1052 H 0.1018 0.33537 0.57369 0.0
H1053 H 0.1263 0.33555 0.5471 0.0
H1054 H 0.14767 0.39063 0.60754 0.0
H1055 H 0.17222 0.39087 0.58048 0.0
H1056 H 0.12688 0.39072 0.5017 0.0
H1057 H 0.15402 0.39123 0.52267 0.0
H1058 H 0.10886 0.3321 0.47127 0.0
H1059 H 0.13618 0.33287 0.49158 0.0
N1060 N 0.17651 0.36027 0.5069 0.0
N1061 N 0.18086 0.36259 0.55455 0.0
H1062 H 0.97393 0.38399 0.02762 0.0
H1063 H 0.99342 0.3576 0.07781 0.0
H1064 H 0.98516 0.37311 0.11047 0.0
H1065 H 0.97577 0.39727 0.12446 0.0
H1066 H 0.95781 0.42452 0.07367 0.0
H1067 H 0.96192 0.40544 0.04154 0.0
C1068 C 0.97618 0.38142 0.04569 0.0
C1069 C 0.98453 0.36988 0.05024 0.0
C1070 C 0.97175 0.39064 0.06429 0.0
C1071 C 0.98714 0.36654 0.0738 0.0
C1072 C 0.98246 0.37545 0.0925 0.0
C1073 C 0.97238 0.39864 0.10639 0.0
C1074 C 0.96664 0.41231 0.10129 0.0
C1075 C 0.97524 0.38797 0.08792 0.0
C1076 C 0.96241 0.41417 0.07786 0.0
C1077 C 0.96479 0.40331 0.05953 0.0
H1078 H 0.61999 0.59251 0.0456 0.0
H1079 H 0.65802 0.63505 0.09978 0.0
H1080 H 0.6366 0.61213 0.13035 0.0
H1081 H 0.60518 0.58139 0.14163 0.0
H1082 H 0.56697 0.53974 0.08703 0.0
H1083 H 0.59036 0.56087 0.05674 0.0
C1084 C 0.62377 0.59671 0.06408 0.0
C1085 C 0.64049 0.61557 0.07035 0.0
C1086 C 0.61123 0.58366 0.08154 0.0
C1087 C 0.64519 0.62066 0.09442 0.0
C1088 C 0.6329 0.60759 0.11194 0.0
C1089 C 0.60221 0.57683 0.12312 0.0
C1090 C 0.58431 0.5592 0.11651 0.0
C1091 C 0.61561 0.58925 0.10571 0.0
C1092 C 0.58053 0.55344 0.09248 0.0
C1093 C 0.5939 0.56548 0.07516 0.0
H1094 H 0.37277 0.0155 0.10672 0.0
H1095 H 0.41098 0.03978 0.04597 0.0
H1096 H 0.43886 0.04461 0.06903 0.0
H1097 H 0.45157 0.03876 0.10522 0.0
H1098 H 0.41316 0.01392 0.16566 0.0
H1099 H 0.38617 0.01237 0.14387 0.0
C1100 C 0.38725 0.02214 0.09858 0.0
C1101 C 0.38969 0.02711 0.07457 0.0
C1102 C 0.40315 0.02451 0.1118 0.0
C1103 C 0.40861 0.03573 0.06438 0.0
C1104 C 0.42458 0.03843 0.07753 0.0
C1105 C 0.43741 0.03337 0.11377 0.0
C1106 C 0.43433 0.02626 0.13695 0.0
C1107 C 0.4219 0.0324 0.10108 0.0
C1108 C 0.41581 0.01914 0.14769 0.0
C1109 C 0.4004 0.01833 0.13528 0.0
H1110 H 0.36627 0.98593 0.94882 0.0
H1111 H 0.39708 0.97657 0.00413 0.0
H1112 H 0.41676 0.97143 0.97469 0.0
H1113 H 0.42707 0.97221 0.93351 0.0
H1114 H 0.39679 0.98191 0.87803 0.0
H1115 H 0.37489 0.98405 0.90722 0.0
C1116 C 0.37711 0.98251 0.95443 0.0
C1117 C 0.38032 0.98186 0.97868 0.0
C1118 C 0.38856 0.97975 0.93738 0.0
C1119 C 0.39436 0.9773 0.98561 0.0
C1120 C 0.40569 0.97441 0.96878 0.0
C1121 C 0.41563 0.97474 0.92784 0.0
C1122 C 0.41367 0.97714 0.90374 0.0
C1123 C 0.40323 0.97607 0.94468 0.0
C1124 C 0.39854 0.97999 0.89652 0.0
C1125 C 0.3861 0.98131 0.9132 0.0
H1126 H 0.02489 0.37565 0.916 0.0
H1127 H 0.03588 0.40808 0.98285 0.0
H1128 H 0.03975 0.43708 0.96279 0.0
H1129 H 0.03784 0.45249 0.92669 0.0
H1130 H 0.02674 0.42039 0.85976 0.0
H1131 H 0.02532 0.39214 0.87936 0.0
C1132 C 0.02835 0.38914 0.92616 0.0
C1133 C 0.02992 0.38956 0.95094 0.0
C1134 C 0.03044 0.40581 0.91451 0.0
C1135 C 0.0345 0.40724 0.96378 0.0
C1136 C 0.03667 0.42385 0.95234 0.0
C1137 C 0.03515 0.43931 0.91641 0.0
C1138 C 0.0322 0.43841 0.89189 0.0
C1139 C 0.03428 0.42315 0.92779 0.0
C1140 C 0.0291 0.42144 0.87868 0.0
C1141 C 0.02819 0.40525 0.88989 0.0
H1142 H 0.62224 0.63174 0.93884 0.0
H1143 H 0.57768 0.61075 0.99348 0.0
H1144 H 0.5517 0.59399 0.96368 0.0
H1145 H 0.54167 0.5836 0.92244 0.0
H1146 H 0.58607 0.60486 0.86765 0.0
H1147 H 0.61206 0.62302 0.89726 0.0
C1148 C 0.60684 0.62361 0.94425 0.0
C1149 C 0.60195 0.62242 0.9684 0.0
C1150 C 0.59194 0.61391 0.92702 0.0
C1151 C 0.58191 0.6119 0.97504 0.0
C1152 C 0.56701 0.60226 0.95801 0.0
C1153 C 0.557 0.5925 0.91688 0.0
C1154 C 0.56187 0.59277 0.89282 0.0
C1155 C 0.57186 0.60295 0.93398 0.0
C1156 C 0.58188 0.60413 0.88606 0.0
C1157 C 0.59677 0.6146 0.90298 0.0
H1158 H 0.03483 0.62337 0.99873 0.0
H1159 H 0.01689 0.65173 0.94936 0.0
H1160 H 0.02076 0.63295 0.91659 0.0
H1161 H 0.02629 0.6061 0.90243 0.0
H1162 H 0.04264 0.5768 0.95233 0.0
H1163 H 0.04237 0.59831 0.9844 0.0
C1164 C 0.03203 0.62569 0.98078 0.0
C1165 C 0.02546 0.63885 0.97655 0.0
C1166 C 0.03381 0.61449 0.96212 0.0
C1167 C 0.02187 0.64161 0.95315 0.0
C1168 C 0.02403 0.63084 0.93439 0.0
C1169 C 0.0301 0.6047 0.92027 0.0
C1170 C 0.03434 0.58983 0.92508 0.0
C1171 C 0.02955 0.61688 0.93872 0.0
C1172 C 0.0391 0.588 0.94829 0.0
C1173 C 0.03898 0.60031 0.96661 0.0
H1174 H 0.35742 0.39995 0.94269 0.0
H1175 H 0.38555 0.36706 0.92337 0.0
H1176 H 0.40811 0.39385 0.89735 0.0
H1177 H 0.42097 0.42708 0.88166 0.0
H1178 H 0.39142 0.4592 0.89738 0.0
H1179 H 0.36877 0.43253 0.92381 0.0
C1180 C 0.36839 0.39862 0.93262 0.0
C1181 C 0.36981 0.38154 0.93506 0.0
C1182 C 0.38128 0.41405 0.91733 0.0
C1183 C 0.38403 0.37996 0.9218 0.0
C1184 C 0.39705 0.39535 0.90697 0.0
C1185 C 0.40933 0.42818 0.89029 0.0
C1186 C 0.40806 0.4453 0.88733 0.0
C1187 C 0.39592 0.41251 0.90477 0.0
C1188 C 0.39312 0.44647 0.89952 0.0
C1189 C 0.37998 0.4311 0.91451 0.0
H1190 H 0.62106 0.98061 0.91166 0.0
H1191 H 0.58881 0.97323 0.97651 0.0
H1192 H 0.56158 0.97062 0.95434 0.0
H1193 H 0.54754 0.97215 0.91685 0.0
H1194 H 0.5795 0.97967 0.8519 0.0
H1195 H 0.60609 0.98028 0.87375 0.0
C1196 C 0.608 0.97825 0.92093 0.0
C1197 C 0.60709 0.97725 0.94575 0.0
C1198 C 0.59235 0.97686 0.90806 0.0
C1199 C 0.58999 0.97412 0.95744 0.0
C1200 C 0.57439 0.97267 0.94478 0.0
C1201 C 0.56035 0.97395 0.9075 0.0
C1202 C 0.56166 0.97605 0.88286 0.0
C1203 C 0.57555 0.97434 0.92016 0.0
C1204 C 0.57814 0.97795 0.87088 0.0
C1205 C 0.59337 0.9784 0.88337 0.0
H1206 H 0.60964 0.02838 0.03363 0.0
H1207 H 0.63626 0.00498 0.07775 0.0
H1208 H 0.62018 0.00937 0.11251 0.0
H1209 H 0.59665 0.0176 0.12991 0.0
H1210 H 0.56934 0.0399 0.0852 0.0
H1211 H 0.58784 0.03847 0.0513 0.0
C1212 C 0.61212 0.02442 0.05087 0.0
C1213 C 0.62401 0.01619 0.053 0.0
C1214 C 0.60264 0.02674 0.07072 0.0
C1215 C 0.62713 0.01127 0.07554 0.0
C1216 C 0.61788 0.01372 0.09545 0.0
C1217 C 0.59479 0.02218 0.11275 0.0
C1218 C 0.58156 0.02878 0.11015 0.0
C1219 C 0.60527 0.02103 0.09316 0.0
C1220 C 0.57957 0.03498 0.08784 0.0
C1221 C 0.59004 0.03402 0.06836 0.0
H1222 H 0.96542 0.60868 0.06878 0.0
H1223 H 0.02633 0.64523 0.09153 0.0
H1224 H 0.02173 0.61859 0.11698 0.0
H1225 H 0.00114 0.58422 0.13115 0.0
H1226 H 0.94006 0.54754 0.10999 0.0
H1227 H 0.94386 0.57493 0.08574 0.0
C1228 C 0.97762 0.61083 0.07944 0.0
C1229 C 0.99623 0.62886 0.07804 0.0
C1230 C 0.97486 0.59543 0.09429 0.0
C1231 C 0.01185 0.63151 0.09216 0.0
C1232 C 0.00927 0.61626 0.10673 0.0
C1233 C 0.98866 0.58235 0.12132 0.0
C1234 C 0.97044 0.56399 0.12205 0.0
C1235 C 0.99097 0.59808 0.10765 0.0
C1236 C 0.95423 0.56166 0.1096 0.0
C1237 C 0.95644 0.57724 0.09569 0.0
H1238 H 0.37318 0.37218 0.06612 0.0
H1239 H 0.41758 0.40376 0.01257 0.0
H1240 H 0.44175 0.42449 0.04299 0.0
H1241 H 0.44989 0.43494 0.0845 0.0
H1242 H 0.40598 0.40374 0.1384 0.0
H1243 H 0.38203 0.38136 0.10816 0.0
C1244 C 0.38817 0.38351 0.06112 0.0
C1245 C 0.39348 0.38652 0.03708 0.0
C1246 C 0.40206 0.39545 0.07874 0.0
C1247 C 0.41303 0.40115 0.03092 0.0
C1248 C 0.42689 0.41306 0.0483 0.0
C1249 C 0.43507 0.42321 0.08959 0.0
C1250 C 0.42957 0.42109 0.11353 0.0
C1251 C 0.42148 0.41055 0.07219 0.0
C1252 C 0.41049 0.40561 0.12003 0.0
C1253 C 0.39681 0.39291 0.10276 0.0
H1254 H 0.6737 0.72939 0.3948 0.0
H1255 H 0.61177 0.69123 0.37738 0.0
H1256 H 0.60365 0.70868 0.4079 0.0
H1257 H 0.61437 0.73501 0.4393 0.0
H1258 H 0.67685 0.77484 0.45362 0.0
H1259 H 0.68441 0.75614 0.42491 0.0
C1260 C 0.65839 0.72477 0.39776 0.0
C1261 C 0.64334 0.70897 0.38395 0.0
C1262 C 0.65391 0.7351 0.41489 0.0
C1263 C 0.62362 0.70337 0.38779 0.0
C1264 C 0.61899 0.71333 0.40523 0.0
C1265 C 0.62966 0.73976 0.43603 0.0
C1266 C 0.64494 0.75625 0.44899 0.0
C1267 C 0.63405 0.72931 0.41881 0.0
C1268 C 0.66465 0.76192 0.44454 0.0
C1269 C 0.66907 0.75136 0.42788 0.0
H1270 H 0.30416 0.93591 0.40824 0.0
H1271 H 0.2918 0.97845 0.44199 0.0
H1272 H 0.26894 0.95279 0.46899 0.0
H1273 H 0.25007 0.91746 0.48075 0.0
H1274 H 0.26241 0.87476 0.44815 0.0
H1275 H 0.28779 0.90124 0.42312 0.0
C1276 C 0.29663 0.9396 0.42167 0.0
C1277 C 0.29952 0.95901 0.42284 0.0
C1278 C 0.28345 0.92472 0.43731 0.0
C1279 C 0.2898 0.96362 0.44054 0.0
C1280 C 0.27666 0.94894 0.45601 0.0
C1281 C 0.25863 0.91414 0.46843 0.0
C1282 C 0.25455 0.89439 0.46609 0.0
C1283 C 0.27304 0.92935 0.45421 0.0
C1284 C 0.26554 0.89002 0.45018 0.0
C1285 C 0.2799 0.90509 0.43583 0.0
H1286 H 0.03877 0.34016 0.43107 0.0
H1287 H 0.08115 0.39119 0.39053 0.0
H1288 H 0.10742 0.39763 0.41798 0.0
H1289 H 0.11883 0.38674 0.45147 0.0
H1290 H 0.07665 0.33408 0.48962 0.0
H1291 H 0.04972 0.33033 0.46528 0.0
C1292 C 0.05369 0.35289 0.42839 0.0
C1293 C 0.058 0.36514 0.40872 0.0
C1294 C 0.06876 0.3561 0.44378 0.0
C1295 C 0.07745 0.38148 0.40548 0.0
C1296 C 0.09248 0.38515 0.42114 0.0
C1297 C 0.10367 0.3747 0.45462 0.0
C1298 C 0.09957 0.36072 0.47224 0.0
C1299 C 0.08839 0.37228 0.44004 0.0
C1300 C 0.08 0.34497 0.47609 0.0
C1301 C 0.06467 0.34281 0.46218 0.0
H1302 H 0.04156 0.32554 0.28112 0.0
H1303 H 0.07302 0.32159 0.34004 0.0
H1304 H 0.09045 0.31117 0.31327 0.0
H1305 H 0.09818 0.30499 0.27301 0.0
H1306 H 0.06688 0.3087 0.21392 0.0
H1307 H 0.04778 0.31713 0.24088 0.0
C1308 C 0.05213 0.32227 0.28812 0.0
C1309 C 0.05609 0.32454 0.31255 0.0
C1310 C 0.06216 0.31627 0.2726 0.0
C1311 C 0.06971 0.32006 0.32133 0.0
C1312 C 0.07974 0.31413 0.30603 0.0
C1313 C 0.08714 0.30761 0.26607 0.0
C1314 C 0.08405 0.30642 0.24155 0.0
C1315 C 0.07631 0.3125 0.28162 0.0
C1316 C 0.06946 0.30947 0.23277 0.0
C1317 C 0.05863 0.3144 0.24815 0.0
H1318 H 0.70204 0.74856 0.30413 0.0
H1319 H 0.70007 0.7078 0.24936 0.0
H1320 H 0.70456 0.73164 0.21927 0.0
H1321 H 0.7057 0.76257 0.20835 0.0
H1322 H 0.70691 0.80271 0.26336 0.0
H1323 H 0.70603 0.78059 0.29348 0.0
C1324 C 0.70284 0.74496 0.28564 0.0
C1325 C 0.7005 0.72631 0.27903 0.0
C1326 C 0.70507 0.75855 0.26842 0.0
C1327 C 0.70172 0.722 0.25497 0.0
C1328 C 0.70421 0.7356 0.23772 0.0
C1329 C 0.70613 0.76662 0.22694 0.0
C1330 C 0.70611 0.7841 0.23363 0.0
C1331 C 0.70541 0.75369 0.24421 0.0
C1332 C 0.70656 0.78913 0.25778 0.0
C1333 C 0.70612 0.77653 0.27501 0.0
H1334 H 0.29122 0.98056 0.29677 0.0
H1335 H 0.24841 0.95366 0.35299 0.0
H1336 H 0.22191 0.93577 0.32401 0.0
H1337 H 0.21131 0.92535 0.28281 0.0
H1338 H 0.25385 0.95215 0.22651 0.0
H1339 H 0.28003 0.9727 0.25539 0.0
C1340 C 0.27607 0.97097 0.30269 0.0
C1341 C 0.27186 0.96826 0.32703 0.0
C1342 C 0.26087 0.96063 0.28592 0.0
C1343 C 0.2521 0.95596 0.33439 0.0
C1344 C 0.23693 0.94565 0.31782 0.0
C1345 C 0.22631 0.93583 0.27692 0.0
C1346 C 0.23077 0.93713 0.25267 0.0
C1347 C 0.24121 0.94748 0.29358 0.0
C1348 C 0.25012 0.95096 0.24512 0.0
C1349 C 0.26508 0.9626 0.26162 0.0
H1350 H 0.66524 0.95332 0.27262 0.0
H1351 H 0.72783 0.98654 0.28771 0.0
H1352 H 0.73282 0.96724 0.25655 0.0
H1353 H 0.71891 0.93921 0.22695 0.0
H1354 H 0.65624 0.90601 0.21257 0.0
H1355 H 0.65178 0.92713 0.2415 0.0
C1356 C 0.68001 0.95643 0.26907 0.0
C1357 C 0.6961 0.97119 0.28265 0.0
C1358 C 0.68274 0.94525 0.25128 0.0
C1359 C 0.71517 0.97518 0.27759 0.0
C1360 C 0.71803 0.96414 0.25979 0.0
C1361 C 0.70436 0.93688 0.22987 0.0
C1362 C 0.68789 0.92101 0.21781 0.0
C1363 C 0.70187 0.94893 0.24676 0.0
C1364 C 0.66908 0.918 0.22188 0.0
C1365 C 0.66652 0.93005 0.23839 0.0
H1366 H 0.03557 0.74132 0.29928 0.0
H1367 H 0.00583 0.70552 0.23666 0.0
H1368 H 0.02893 0.73343 0.21183 0.0
H1369 H 0.05904 0.7673 0.20788 0.0
H1370 H 0.0889 0.80246 0.27073 0.0
H1371 H 0.06429 0.77553 0.29545 0.0
C1372 C 0.03398 0.73964 0.2802 0.0
C1373 C 0.01903 0.72128 0.26988 0.0
C1374 C 0.04745 0.75563 0.26604 0.0
C1375 C 0.01724 0.71944 0.24511 0.0
C1376 C 0.03047 0.7354 0.23088 0.0
C1377 C 0.05995 0.76914 0.22698 0.0
C1378 C 0.07585 0.78676 0.23747 0.0
C1379 C 0.04583 0.75346 0.24113 0.0
C1380 C 0.07696 0.78891 0.26225 0.0
C1381 C 0.06287 0.77355 0.27639 0.0
H1382 H 0.28971 0.30663 0.25522 0.0
H1383 H 0.25775 0.29967 0.3202 0.0
H1384 H 0.22906 0.29336 0.29789 0.0
H1385 H 0.21372 0.29204 0.26013 0.0
H1386 H 0.24516 0.29862 0.19502 0.0
H1387 H 0.27329 0.30266 0.21712 0.0
C1388 C 0.27641 0.30352 0.26449 0.0
C1389 C 0.27601 0.30381 0.28937 0.0
C1390 C 0.25988 0.29994 0.25153 0.0
C1391 C 0.25855 0.29961 0.30108 0.0
C1392 C 0.24211 0.29606 0.28834 0.0
C1393 C 0.22673 0.29429 0.25082 0.0
C1394 C 0.22751 0.29525 0.22606 0.0
C1395 C 0.24275 0.29658 0.26361 0.0
C1396 C 0.24426 0.29781 0.21411 0.0
C1397 C 0.26034 0.30021 0.22674 0.0
H1398 H 0.27001 0.3525 0.36859 0.0
H1399 H 0.30696 0.34577 0.41761 0.0
H1400 H 0.29007 0.35106 0.45085 0.0
H1401 H 0.26292 0.35489 0.46597 0.0
H1402 H 0.22562 0.36057 0.4165 0.0
H1403 H 0.24451 0.35836 0.38349 0.0
C1404 C 0.27455 0.3524 0.38652 0.0
C1405 C 0.28964 0.3486 0.39057 0.0
C1406 C 0.26456 0.35507 0.40551 0.0
C1407 C 0.29534 0.34859 0.41396 0.0
C1408 C 0.28564 0.35155 0.433 0.0
C1409 C 0.25914 0.35591 0.44796 0.0
C1410 C 0.24278 0.35765 0.44364 0.0
C1411 C 0.26996 0.3544 0.42899 0.0
C1412 C 0.23796 0.35888 0.42023 0.0
C1413 C 0.24878 0.35769 0.40136 0.0
H1414 H 0.63618 0.94003 0.3921 0.0
H1415 H 0.69891 0.9638 0.39605 0.0
H1416 H 0.69325 0.94022 0.42674 0.0
H1417 H 0.67068 0.9121 0.4514 0.0
H1418 H 0.60793 0.88804 0.44836 0.0
H1419 H 0.61342 0.91229 0.41823 0.0
C1420 C 0.6486 0.9401 0.39977 0.0
C1421 C 0.66793 0.95366 0.39166 0.0
C1422 C 0.64526 0.92637 0.41749 0.0
C1423 C 0.68386 0.95353 0.40182 0.0
C1424 C 0.68066 0.94003 0.41942 0.0
C1425 C 0.65819 0.91235 0.44449 0.0
C1426 C 0.63893 0.89829 0.45224 0.0
C1427 C 0.66145 0.92631 0.42726 0.0
C1428 C 0.62291 0.89857 0.44259 0.0
C1429 C 0.62605 0.91249 0.42541 0.0
H1430 H 0.07227 0.72217 0.35386 0.0
H1431 H 0.02212 0.69089 0.40051 0.0
H1432 H 0.04395 0.70543 0.43483 0.0
H1433 H 0.07699 0.72976 0.45153 0.0
H1434 H 0.12667 0.76164 0.4045 0.0
H1435 H 0.10538 0.74402 0.37042 0.0
C1436 C 0.06611 0.71834 0.37152 0.0
C1437 C 0.04557 0.70565 0.37458 0.0
C1438 C 0.07868 0.72696 0.39114 0.0
C1439 C 0.03787 0.70073 0.39762 0.0
C1440 C 0.05035 0.70906 0.41728 0.0
C1441 C 0.08315 0.73249 0.43383 0.0
C1442 C 0.10327 0.74706 0.43043 0.0
C1443 C 0.07073 0.72258 0.41425 0.0
C1444 C 0.11114 0.75062 0.40744 0.0
C1445 C 0.09899 0.74058 0.38798 0.0
H1446 H 0.32089 0.03509 0.73518 0.0
H1447 H 0.29846 0.05596 0.68152 0.0
H1448 H 0.29229 0.07518 0.71145 0.0
H1449 H 0.2952 0.08774 0.75244 0.0
H1450 H 0.31789 0.06711 0.80599 0.0
H1451 H 0.32216 0.04624 0.77646 0.0
C1452 C 0.31449 0.04369 0.73002 0.0
C1453 C 0.31025 0.04415 0.70609 0.0
C1454 C 0.31119 0.05491 0.74728 0.0
C1455 C 0.30194 0.05538 0.69978 0.0
C1456 C 0.29844 0.06642 0.71689 0.0
C1457 C 0.30078 0.07843 0.75772 0.0
C1458 C 0.30631 0.07907 0.78138 0.0
C1459 C 0.30327 0.06652 0.74063 0.0
C1460 C 0.31379 0.06712 0.78784 0.0
C1461 C 0.31616 0.05512 0.77099 0.0
H1462 H 0.97316 0.27257 0.74371 0.0
H1463 H 0.94029 0.30063 0.7627 0.0
H1464 H 0.9196 0.27331 0.78919 0.0
H1465 H 0.90973 0.24086 0.80545 0.0
H1466 H 0.94369 0.21346 0.78926 0.0
H1467 H 0.96468 0.24086 0.76271 0.0
C1468 C 0.96155 0.27274 0.75377 0.0
C1469 C 0.95825 0.2886 0.75112 0.0
C1470 C 0.94972 0.257 0.76924 0.0
C1471 C 0.94322 0.28867 0.7644 0.0
C1472 C 0.93129 0.273 0.77951 0.0
C1473 C 0.92197 0.24099 0.79663 0.0
C1474 C 0.92501 0.22498 0.79951 0.0
C1475 C 0.9343 0.25702 0.78191 0.0
C1476 C 0.94069 0.22533 0.78719 0.0
C1477 C 0.95284 0.24111 0.77211 0.0
H1478 H 0.74944 0.71497 0.72104 0.0
H1479 H 0.71003 0.70417 0.77976 0.0
H1480 H 0.73517 0.70806 0.80724 0.0
H1481 H 0.76755 0.71233 0.81442 0.0
H1482 H 0.80686 0.72293 0.75575 0.0
H1483 H 0.78265 0.72152 0.72851 0.0
C1484 C 0.74641 0.71367 0.73987 0.0
C1485 C 0.72779 0.70911 0.74826 0.0
C1486 C 0.76089 0.7158 0.7556 0.0
C1487 C 0.72419 0.7076 0.77275 0.0
C1488 C 0.73854 0.70976 0.78851 0.0
C1489 C 0.77081 0.71437 0.79567 0.0
C1490 C 0.7889 0.7176 0.78709 0.0
C1491 C 0.75679 0.71346 0.78009 0.0
C1492 C 0.79308 0.72055 0.76281 0.0
C1493 C 0.7792 0.71964 0.74721 0.0
H1494 H 0.72589 0.64844 0.66391 0.0
H1495 H 0.69922 0.66964 0.6165 0.0
H1496 H 0.71218 0.66017 0.58257 0.0
H1497 H 0.73236 0.64731 0.56635 0.0
H1498 H 0.75968 0.62693 0.61387 0.0
H1499 H 0.74493 0.63436 0.64765 0.0
C1500 C 0.72277 0.65086 0.64617 0.0
C1501 C 0.71169 0.65986 0.64282 0.0
C1502 C 0.7304 0.64553 0.6267 0.0
C1503 C 0.70776 0.66281 0.61965 0.0
C1504 C 0.7152 0.65743 0.6002 0.0
C1505 C 0.73511 0.64452 0.58411 0.0
C1506 C 0.74715 0.63661 0.58753 0.0
C1507 C 0.72677 0.64905 0.60352 0.0
C1508 C 0.75029 0.63279 0.61066 0.0
C1509 C 0.74198 0.63717 0.63003 0.0
H1510 H 0.37237 0.06588 0.62044 0.0
H1511 H 0.31542 0.02882 0.58664 0.0
H1512 H 0.3232 0.05578 0.55983 0.0
H1513 H 0.3448 0.09092 0.54826 0.0
H1514 H 0.40196 0.1282 0.58093 0.0
H1515 H 0.39566 0.10011 0.60569 0.0
C1516 C 0.36178 0.06364 0.60704 0.0
C1517 C 0.34323 0.04542 0.60581 0.0
C1518 C 0.36635 0.07928 0.59151 0.0
C1519 C 0.32975 0.04269 0.58814 0.0
C1520 C 0.33415 0.05814 0.57278 0.0
C1521 C 0.35595 0.09272 0.56058 0.0
C1522 C 0.37371 0.11149 0.56301 0.0
C1523 C 0.35219 0.07662 0.57467 0.0
C1524 C 0.3882 0.11378 0.57882 0.0
C1525 C 0.38453 0.09779 0.59304 0.0
H1526 H 0.95889 0.30274 0.61958 0.0
H1527 H 0.91305 0.26776 0.67041 0.0
H1528 H 0.89026 0.24775 0.63853 0.0
H1529 H 0.88367 0.23904 0.59643 0.0
H1530 H 0.92886 0.27382 0.54513 0.0
H1531 H 0.95155 0.29521 0.57695 0.0
C1532 C 0.94388 0.29082 0.62366 0.0
C1533 C 0.93776 0.28667 0.64739 0.0
C1534 C 0.93075 0.2793 0.60518 0.0
C1535 C 0.9182 0.27128 0.65235 0.0
C1536 C 0.90513 0.25976 0.63413 0.0
C1537 C 0.89851 0.25131 0.59226 0.0
C1538 C 0.90474 0.25475 0.56859 0.0
C1539 C 0.91133 0.26346 0.61054 0.0
C1540 C 0.92381 0.27093 0.56329 0.0
C1541 C 0.93676 0.28307 0.58145 0.0
H1542 H 0.34624 0.30136 0.62519 0.0
H1543 H 0.35159 0.2703 0.68366 0.0
H1544 H 0.36439 0.25469 0.65719 0.0
H1545 H 0.37177 0.24786 0.61719 0.0
H1546 H 0.36565 0.27784 0.55827 0.0
H1547 H 0.35589 0.29622 0.58522 0.0
C1548 C 0.35037 0.29132 0.63216 0.0
C1549 C 0.34773 0.28684 0.65634 0.0
C1550 C 0.3576 0.2822 0.61678 0.0
C1551 C 0.35329 0.2739 0.66511 0.0
C1552 C 0.36062 0.26494 0.64999 0.0
C1553 C 0.36837 0.25849 0.61027 0.0
C1554 C 0.36921 0.26134 0.5858 0.0
C1555 C 0.36245 0.26866 0.62576 0.0
C1556 C 0.36518 0.27546 0.57708 0.0
C1557 C 0.35945 0.28584 0.59245 0.0
H1558 H 0.71659 0.03932 0.59083 0.0
H1559 H 0.70167 0.07778 0.63001 0.0
H1560 H 0.72101 0.10493 0.60239 0.0
H1561 H 0.74442 0.11861 0.56892 0.0
H1562 H 0.76057 0.08046 0.53154 0.0
H1563 H 0.73835 0.05222 0.55652 0.0
C1564 C 0.71737 0.05356 0.59324 0.0
C1565 C 0.7078 0.05655 0.61256 0.0
C1566 C 0.72881 0.06918 0.57763 0.0
C1567 C 0.70899 0.07511 0.61536 0.0
C1568 C 0.72006 0.09065 0.59959 0.0
C1569 C 0.74275 0.10398 0.56607 0.0
C1570 C 0.75404 0.10151 0.54854 0.0
C1571 C 0.73034 0.08798 0.58092 0.0
C1572 C 0.75203 0.08263 0.54507 0.0
C1573 C 0.73938 0.06654 0.55934 0.0
H1574 H 0.94759 0.63738 0.58064 0.0
H1575 H 0.91283 0.61891 0.64465 0.0
H1576 H 0.88375 0.61217 0.62273 0.0
H1577 H 0.86896 0.61442 0.58621 0.0
H1578 H 0.90366 0.63302 0.52221 0.0
H1579 H 0.932 0.63694 0.54338 0.0
C1580 C 0.9336 0.63162 0.58976 0.0
C1581 C 0.93248 0.62882 0.6143 0.0
C1582 C 0.91696 0.62803 0.57711 0.0
C1583 C 0.91418 0.62131 0.62579 0.0
C1584 C 0.89752 0.61749 0.61329 0.0
C1585 C 0.88259 0.61895 0.57677 0.0
C1586 C 0.88421 0.6236 0.55271 0.0
C1587 C 0.89885 0.62123 0.58905 0.0
C1588 C 0.9021 0.6297 0.54084 0.0
C1589 C 0.9183 0.63185 0.5529 0.0
H1590 H 0.96239 0.67687 0.73677 0.0
H1591 H 0.93714 0.69227 0.68051 0.0
H1592 H 0.92268 0.70461 0.7094 0.0
H1593 H 0.91474 0.70825 0.75058 0.0
H1594 H 0.93922 0.69214 0.80691 0.0
H1595 H 0.95643 0.68286 0.77806 0.0
C1596 C 0.95393 0.68316 0.73081 0.0
C1597 C 0.95072 0.68348 0.7065 0.0
C1598 C 0.94537 0.68995 0.74754 0.0
C1599 C 0.93973 0.69169 0.69911 0.0
C1600 C 0.93142 0.69874 0.71562 0.0
C1601 C 0.92417 0.70311 0.75656 0.0
C1602 C 0.92562 0.70078 0.78082 0.0
C1603 C 0.9338 0.69756 0.73988 0.0
C1604 C 0.93768 0.69382 0.78829 0.0
C1605 C 0.94755 0.68855 0.77181 0.0
H1606 H 0.3099 0.29132 0.77853 0.0
H1607 H 0.28581 0.25365 0.71554 0.0
H1608 H 0.28046 0.22454 0.73696 0.0
H1609 H 0.28573 0.21057 0.77241 0.0
H1610 H 0.30981 0.24828 0.83535 0.0
H1611 H 0.3122 0.27657 0.81501 0.0
C1612 C 0.3032 0.2767 0.76955 0.0
C1613 C 0.29845 0.27478 0.74539 0.0
C1614 C 0.30043 0.26005 0.78186 0.0
C1615 C 0.2897 0.25564 0.73411 0.0
C1616 C 0.28671 0.23896 0.74631 0.0
C1617 C 0.29114 0.22485 0.78184 0.0
C1618 C 0.29785 0.22734 0.80529 0.0
C1619 C 0.29248 0.2411 0.77003 0.0
C1620 C 0.30497 0.24605 0.81713 0.0
C1621 C 0.30624 0.26222 0.80556 0.0
H1622 H 0.7168 0.03502 0.73936 0.0
H1623 H 0.76203 0.05943 0.6855 0.0
H1624 H 0.7876 0.07542 0.71594 0.0
H1625 H 0.7969 0.08468 0.75767 0.0
H1626 H 0.75163 0.06029 0.81143 0.0
H1627 H 0.72627 0.04219 0.78113 0.0
C1628 C 0.73226 0.04369 0.73424 0.0
C1629 C 0.73746 0.04617 0.71015 0.0
C1630 C 0.74687 0.05301 0.7518 0.0
C1631 C 0.75758 0.05733 0.70389 0.0
C1632 C 0.77222 0.06653 0.72129 0.0
C1633 C 0.78153 0.0751 0.7628 0.0
C1634 C 0.77617 0.07397 0.78679 0.0
C1635 C 0.76701 0.06478 0.74528 0.0
C1636 C 0.75613 0.06169 0.79308 0.0
C1637 C 0.74162 0.05127 0.77577 0.0
H1638 H 0.02218 0.29562 0.05596 0.0
H1639 H 0.06876 0.35641 0.04 0.0
H1640 H 0.09203 0.35266 0.06346 0.0
H1641 H 0.09902 0.33226 0.08905 0.0
H1642 H 0.05255 0.27139 0.1045 0.0
H1643 H 0.02934 0.275 0.08061 0.0
C1644 C 0.03743 0.30805 0.05755 0.0
C1645 C 0.04369 0.32629 0.04631 0.0
C1646 C 0.05073 0.30578 0.07102 0.0
C1647 C 0.06355 0.34219 0.04845 0.0
C1648 C 0.07686 0.34008 0.06192 0.0
C1649 C 0.08377 0.31986 0.08727 0.0
C1650 C 0.07744 0.30163 0.09859 0.0
C1651 C 0.07058 0.322 0.07341 0.0
C1652 C 0.05776 0.28553 0.09584 0.0
C1653 C 0.04449 0.2876 0.08226 0.0
H1654 H 0.66983 0.69548 0.05843 0.0
H1655 H 0.66821 0.72314 0.99434 0.0
H1656 H 0.67704 0.75408 0.01672 0.0
H1657 H 0.68467 0.77305 0.05466 0.0
H1658 H 0.68601 0.74509 0.11856 0.0
H1659 H 0.67781 0.71443 0.09602 0.0
C1660 C 0.6714 0.70826 0.0493 0.0
C1661 C 0.66832 0.70697 0.02474 0.0
C1662 C 0.67644 0.72594 0.06224 0.0
C1663 C 0.67044 0.7237 0.01324 0.0
C1664 C 0.67552 0.74141 0.02602 0.0
C1665 C 0.68339 0.76031 0.06357 0.0
C1666 C 0.68594 0.7613 0.08821 0.0
C1667 C 0.67854 0.74269 0.05053 0.0
C1668 C 0.68394 0.7446 0.09962 0.0
C1669 C 0.6793 0.7271 0.08675 0.0
H1670 H 0.29572 0.98022 0.05556 0.0
H1671 H 0.30968 0.93393 0.05885 0.0
H1672 H 0.2811 0.91421 0.08437 0.0
H1673 H 0.25211 0.91006 0.10569 0.0
H1674 H 0.23839 0.95649 0.10269 0.0
H1675 H 0.26687 0.97614 0.07696 0.0
C1676 C 0.29252 0.96579 0.0618 0.0
C1677 C 0.30486 0.95858 0.05527 0.0
C1678 C 0.2761 0.95455 0.07653 0.0
C1679 C 0.30045 0.93986 0.06357 0.0
C1680 C 0.28411 0.92857 0.0782 0.0
C1681 C 0.25549 0.92459 0.09962 0.0
C1682 C 0.24318 0.93183 0.10615 0.0
C1683 C 0.27188 0.9358 0.08485 0.0
C1684 C 0.24753 0.9505 0.09776 0.0
C1685 C 0.26385 0.96177 0.08312 0.0
H1686 H 0.35407 0.0545 0.96855 0.0
H1687 H 0.29167 0.01259 0.97971 0.0
H1688 H 0.28386 0.03287 0.95567 0.0
H1689 H 0.29471 0.06269 0.93184 0.0
H1690 H 0.35705 0.10392 0.91937 0.0
H1691 H 0.36488 0.08381 0.94368 0.0
C1692 C 0.33877 0.04985 0.96579 0.0
C1693 C 0.32349 0.0321 0.97599 0.0
C1694 C 0.33435 0.06146 0.95171 0.0
C1695 C 0.30373 0.02618 0.97206 0.0
C1696 C 0.29923 0.03777 0.9583 0.0
C1697 C 0.31 0.06714 0.93415 0.0
C1698 C 0.32525 0.08486 0.92384 0.0
C1699 C 0.31441 0.05541 0.948 0.0
C1700 C 0.34501 0.09053 0.92738 0.0
C1701 C 0.34951 0.07899 0.9412 0.0
H1702 H 0.9807 0.28548 0.97498 0.0
H1703 H 0.94566 0.31033 0.95612 0.0
H1704 H 0.92123 0.27823 0.93734 0.0
H1705 H 0.90974 0.24319 0.92627 0.0
H1706 H 0.94451 0.21806 0.94478 0.0
H1707 H 0.96924 0.25029 0.96354 0.0
C1708 C 0.96773 0.28389 0.96674 0.0
C1709 C 0.96501 0.3003 0.96702 0.0
C1710 C 0.95371 0.26536 0.95591 0.0
C1711 C 0.94814 0.29797 0.9562 0.0
C1712 C 0.93413 0.27961 0.94546 0.0
C1713 C 0.92263 0.2447 0.93464 0.0
C1714 C 0.92523 0.22824 0.93435 0.0
C1715 C 0.93673 0.26321 0.94529 0.0
C1716 C 0.94223 0.23055 0.94475 0.0
C1717 C 0.95632 0.24894 0.95552 0.0
H1718 H 0.73296 0.70321 0.98382 0.0
H1719 H 0.70018 0.6396 0.96513 0.0
H1720 H 0.72734 0.64428 0.93986 0.0
H1721 H 0.76 0.66649 0.92239 0.0
H1722 H 0.79297 0.73002 0.94123 0.0
H1723 H 0.76591 0.72535 0.9668 0.0
C1724 C 0.73178 0.69033 0.97434 0.0
C1725 C 0.71455 0.67108 0.9764 0.0
C1726 C 0.74739 0.69315 0.95968 0.0
C1727 C 0.71326 0.65459 0.96388 0.0
C1728 C 0.72877 0.65725 0.94938 0.0
C1729 C 0.76136 0.67929 0.93227 0.0
C1730 C 0.7785 0.69857 0.92991 0.0
C1731 C 0.74585 0.67647 0.94706 0.0
C1732 C 0.77985 0.71506 0.94249 0.0
C1733 C 0.76444 0.71238 0.95725 0.0
H1734 H 0.98147 0.68767 0.94304 0.0
H1735 H 0.94305 0.665 0.00381 0.0
H1736 H 0.91917 0.67057 0.98442 0.0
H1737 H 0.90964 0.68259 0.95053 0.0
H1738 H 0.94772 0.70395 0.8893 0.0
H1739 H 0.97147 0.69849 0.90882 0.0
C1740 C 0.96787 0.68392 0.95209 0.0
C1741 C 0.96409 0.67601 0.97488 0.0
C1742 C 0.95422 0.68708 0.94084 0.0
C1743 C 0.94633 0.67111 0.98624 0.0
C1744 C 0.93269 0.67432 0.97519 0.0
C1745 C 0.92302 0.68584 0.94133 0.0
C1746 C 0.9269 0.69382 0.91852 0.0
C1747 C 0.93652 0.68237 0.95251 0.0
C1748 C 0.94449 0.69819 0.90704 0.0
C1749 C 0.95803 0.69493 0.9181 0.0
H1750 H 0.31227 0.28533 0.97888 0.0
H1751 H 0.37506 0.30933 0.97577 0.0
H1752 H 0.36893 0.27857 0.9553 0.0
H1753 H 0.34597 0.24593 0.93626 0.0
H1754 H 0.283 0.22081 0.94142 0.0
H1755 H 0.28906 0.25121 0.96268 0.0
C1756 C 0.3246 0.28376 0.97383 0.0
C1757 C 0.34409 0.29963 0.97867 0.0
C1758 C 0.32097 0.26598 0.9622 0.0
C1759 C 0.35991 0.29732 0.97228 0.0
C1760 C 0.35643 0.27977 0.96048 0.0
C1761 C 0.33349 0.24681 0.94243 0.0
C1762 C 0.31404 0.23104 0.93701 0.0
C1763 C 0.33703 0.26412 0.95511 0.0
C1764 C 0.29815 0.23282 0.94483 0.0
C1765 C 0.30158 0.25016 0.95718 0.0
H1766 H 0.70582 0.02089 0.97088 0.0
H1767 H 0.68633 0.06173 0.95699 0.0
H1768 H 0.71722 0.0839 0.93623 0.0
H1769 H 0.74969 0.09166 0.92193 0.0
H1770 H 0.76933 0.05101 0.93589 0.0
H1771 H 0.73829 0.02862 0.95642 0.0
C1772 C 0.70832 0.03465 0.96336 0.0
C1773 C 0.69377 0.03965 0.96557 0.0
C1774 C 0.72609 0.04731 0.95134 0.0
C1775 C 0.69725 0.05751 0.95559 0.0
C1776 C 0.71492 0.0702 0.9437 0.0
C1777 C 0.74725 0.07798 0.92963 0.0
C1778 C 0.76184 0.07306 0.92746 0.0
C1779 C 0.72944 0.06526 0.94149 0.0
C1780 C 0.75828 0.05507 0.93713 0.0
C1781 C 0.74058 0.04232 0.94899 0.0
H1782 H 0.69819 0.97491 0.04088 0.0
H1783 H 0.636 0.93157 0.02939 0.0
H1784 H 0.63894 0.9059 0.04911 0.0
H1785 H 0.6589 0.89619 0.07112 0.0
H1786 H 0.72095 0.93972 0.08286 0.0
H1787 H 0.71838 0.96481 0.06126 0.0
C1788 C 0.68527 0.95983 0.04256 0.0
C1789 C 0.66687 0.95523 0.03381 0.0
C1790 C 0.68705 0.94517 0.05397 0.0
C1791 C 0.65034 0.93555 0.036 0.0
C1792 C 0.652 0.92086 0.04733 0.0
C1793 C 0.67184 0.91118 0.06895 0.0
C1794 C 0.69007 0.91611 0.07867 0.0
C1795 C 0.67022 0.92558 0.05665 0.0
C1796 C 0.70679 0.93549 0.07538 0.0
C1797 C 0.7053 0.94988 0.06316 0.0
H1798 H 0.06133 0.74393 0.02047 0.0
H1799 H 0.0249 0.7055 0.07679 0.0
H1800 H 0.04392 0.73247 0.10573 0.0
H1801 H 0.07118 0.76671 0.11542 0.0
H1802 H 0.10792 0.80547 0.05971 0.0
H1803 H 0.08836 0.77878 0.03023 0.0
C1804 C 0.05754 0.74148 0.03906 0.0
C1805 C 0.04175 0.72266 0.04637 0.0
C1806 C 0.06856 0.75714 0.05578 0.0
C1807 C 0.03698 0.7198 0.07057 0.0
C1808 C 0.04786 0.73522 0.08721 0.0
C1809 C 0.07495 0.76927 0.09683 0.0
C1810 C 0.091 0.78797 0.08977 0.0
C1811 C 0.06373 0.75389 0.08005 0.0
C1812 C 0.09551 0.79123 0.06558 0.0
C1813 C 0.08441 0.77594 0.04873 0.0
H1814 H 0.27368 0.2964 0.04122 0.0
H1815 H 0.29269 0.35872 0.03141 0.0
H1816 H 0.26472 0.35424 0.05497 0.0
H1817 H 0.23568 0.33297 0.07982 0.0
H1818 H 0.21663 0.27064 0.08923 0.0
H1819 H 0.24375 0.27473 0.06418 0.0
C1820 C 0.27167 0.30899 0.04413 0.0
C1821 C 0.28535 0.3279 0.03473 0.0
C1822 C 0.25558 0.30631 0.05765 0.0
C1823 C 0.2824 0.344 0.03846 0.0
C1824 C 0.26644 0.34147 0.052 0.0
C1825 C 0.23752 0.32031 0.07636 0.0
C1826 C 0.22431 0.30158 0.08645 0.0
C1827 C 0.2531 0.32277 0.06193 0.0
C1828 C 0.22658 0.28518 0.08154 0.0
C1829 C 0.24212 0.28753 0.06733 0.0
H1830 H 0.68368 0.63607 0.38845 0.0
H1831 H 0.72844 0.69928 0.38237 0.0
H1832 H 0.75024 0.69534 0.40841 0.0
H1833 H 0.75641 0.67412 0.43317 0.0
H1834 H 0.71258 0.61038 0.43705 0.0
H1835 H 0.69034 0.61457 0.41226 0.0
C1836 C 0.69822 0.64899 0.39277 0.0
C1837 C 0.70441 0.66794 0.38347 0.0
C1838 C 0.71074 0.6466 0.40762 0.0
C1839 C 0.72333 0.6845 0.38919 0.0
C1840 C 0.73578 0.68228 0.40416 0.0
C1841 C 0.74211 0.66104 0.4284 0.0
C1842 C 0.73628 0.64195 0.43707 0.0
C1843 C 0.72962 0.66341 0.41349 0.0
C1844 C 0.71742 0.62534 0.43108 0.0
C1845 C 0.70474 0.62767 0.41665 0.0
H1846 H 0.34994 0.07072 0.35664 0.0
H1847 H 0.35191 0.03638 0.41375 0.0
H1848 H 0.36227 0.06488 0.44103 0.0
H1849 H 0.36909 0.09886 0.44937 0.0
H1850 H 0.36729 0.13364 0.39293 0.0
H1851 H 0.35886 0.10583 0.36465 0.0
C1852 C 0.35275 0.06953 0.37502 0.0
C1853 C 0.34996 0.05135 0.38312 0.0
C1854 C 0.35875 0.08605 0.39076 0.0
C1855 C 0.35383 0.05013 0.40698 0.0
C1856 C 0.35975 0.06642 0.42267 0.0
C1857 C 0.3669 0.10033 0.43085 0.0
C1858 C 0.36861 0.11812 0.42323 0.0
C1859 C 0.36197 0.08432 0.41484 0.0
C1860 C 0.3661 0.12006 0.39915 0.0
C1861 C 0.36117 0.10414 0.38303 0.0
H1862 H 0.97672 0.27646 0.37165 0.0
H1863 H 0.9671 0.32593 0.3725 0.0
H1864 H 0.93672 0.30604 0.39512 0.0
H1865 H 0.91366 0.27517 0.41625 0.0
H1866 H 0.92348 0.22587 0.41563 0.0
H1867 H 0.95307 0.2452 0.39151 0.0
C1868 C 0.96791 0.28285 0.37662 0.0
C1869 C 0.97423 0.30267 0.37044 0.0
C1870 C 0.95057 0.27143 0.38986 0.0
C1871 C 0.96263 0.31072 0.37708 0.0
C1872 C 0.94525 0.29938 0.39005 0.0
C1873 C 0.92216 0.26859 0.4106 0.0
C1874 C 0.91646 0.24918 0.41786 0.0
C1875 C 0.93919 0.2798 0.39676 0.0
C1876 C 0.92774 0.24092 0.4106 0.0
C1877 C 0.9446 0.25191 0.3967 0.0
H1878 H 0.97704 0.35956 0.28985 0.0
H1879 H 0.03775 0.40726 0.30213 0.0
H1880 H 0.03293 0.42999 0.27846 0.0
H1881 H 0.01134 0.43631 0.2544 0.0
H1882 H 0.95043 0.38883 0.24332 0.0
H1883 H 0.95543 0.36597 0.26647 0.0
C1884 C 0.98925 0.37491 0.28732 0.0
C1885 C 0.00775 0.38168 0.29767 0.0
C1886 C 0.98632 0.38792 0.27393 0.0
C1887 C 0.02335 0.40168 0.29438 0.0
C1888 C 0.02062 0.41467 0.28082 0.0
C1889 C -0.00077 0.42091 0.25696 0.0
C1890 C 0.98057 0.4142 0.24715 0.0
C1891 C 0.00217 0.40795 0.2705 0.0
C1892 C 0.96489 0.39433 0.25085 0.0
C1893 C 0.96776 0.38126 0.264 0.0
H1894 H 0.6079 0.61552 0.33831 0.0
H1895 H 0.64648 0.65103 0.2816 0.0
H1896 H 0.62574 0.62426 0.25303 0.0
H1897 H 0.59652 0.59087 0.24396 0.0
H1898 H 0.55792 0.55522 0.30046 0.0
H1899 H 0.57892 0.58181 0.32927 0.0
C1900 C 0.61177 0.61741 0.3197 0.0
C1901 C 0.62869 0.63529 0.31214 0.0
C1902 C 0.59982 0.60189 0.30331 0.0
C1903 C 0.63354 0.63742 0.28796 0.0
C1904 C 0.62168 0.62213 0.27156 0.0
C1905 C 0.59267 0.58898 0.26257 0.0
C1906 C 0.5757 0.57114 0.27005 0.0
C1907 C 0.60476 0.60433 0.27902 0.0
C1908 C 0.57104 0.56875 0.29427 0.0
C1909 C 0.58297 0.58399 0.31074 0.0
H1910 H 0.37948 0.98658 0.3303 0.0
H1911 H 0.36108 0.01065 0.27573 0.0
H1912 H 0.38771 0.0145 0.25023 0.0
H1913 H 0.41659 0.01177 0.24358 0.0
H1914 H 0.43581 0.98856 0.29814 0.0
H1915 H 0.40832 0.98335 0.32331 0.0
C1916 C 0.38125 0.99258 0.3128 0.0
C1917 C 0.36834 0.99839 0.30501 0.0
C1918 C 0.39673 0.9949 0.29819 0.0
C1919 C 0.37084 0.00613 0.28225 0.0
C1920 C 0.38607 0.00835 0.26761 0.0
C1921 C 0.41487 0.00572 0.26106 0.0
C1922 C 0.4283 0.0007 0.26903 0.0
C1923 C 0.3992 0.00296 0.27548 0.0
C1924 C 0.42559 0.99243 0.29152 0.0
C1925 C 0.40994 0.98955 0.30597 0.0
H1926 H 0.61404 0.9909 0.31529 0.0
H1927 H 0.65862 0.02041 0.26141 0.0
H1928 H 0.63577 0.02467 0.238 0.0
H1929 H 0.60293 0.01932 0.23221 0.0
H1930 H 0.55856 0.99086 0.28651 0.0
H1931 H 0.58141 0.98661 0.31008 0.0
C1932 C 0.61877 0.99831 0.29846 0.0
C1933 C 0.63801 0.00527 0.29014 0.0
C1934 C 0.60554 0.00077 0.28502 0.0
C1935 C 0.64391 0.0149 0.2683 0.0
C1936 C 0.63083 0.01732 0.25483 0.0
C1937 C 0.59831 0.01241 0.24933 0.0
C1938 C 0.579 0.00535 0.25746 0.0
C1939 C 0.6116 0.01025 0.26296 0.0
C1940 C 0.57321 0.99613 0.27956 0.0
C1941 C 0.58632 0.99382 0.29317 0.0
H1942 H 0.02377 0.63648 0.29554 0.0
H1943 H 0.96342 0.62192 0.29348 0.0
H1944 H 0.95326 0.58988 0.27307 0.0
H1945 H 0.96167 0.56636 0.2548 0.0
H1946 H 0.02205 0.5812 0.2565 0.0
H1947 H 0.03204 0.61276 0.27806 0.0
C1948 C 0.00839 0.6263 0.29067 0.0
C1949 C 0.99441 0.63164 0.29598 0.0
C1950 C 0.00264 0.60794 0.27886 0.0
C1951 C 0.97452 0.61823 0.28955 0.0
C1952 C 0.96867 0.59988 0.2779 0.0
C1953 C 0.97695 0.57642 0.26017 0.0
C1954 C 0.99111 0.57151 0.25406 0.0
C1955 C 0.98262 0.59462 0.27237 0.0
C1956 C 0.01093 0.58477 0.26082 0.0
C1957 C 0.01664 0.60278 0.27318 0.0
H1958 H 0.35505 0.39644 0.30242 0.0
H1959 H 0.37383 0.3542 0.31018 0.0
H1960 H 0.40355 0.37569 0.28725 0.0
H1961 H 0.42398 0.40613 0.26442 0.0
H1962 H 0.40576 0.44885 0.25736 0.0
H1963 H 0.37594 0.42735 0.28028 0.0
C1964 C 0.36565 0.39194 0.29913 0.0
C1965 C 0.36217 0.37371 0.30801 0.0
C1966 C 0.38277 0.40439 0.28592 0.0
C1967 C 0.37611 0.36815 0.3036 0.0
C1968 C 0.39313 0.38042 0.29044 0.0
C1969 C 0.41361 0.41087 0.26812 0.0
C1970 C 0.41712 0.42907 0.25912 0.0
C1971 C 0.39659 0.39855 0.28149 0.0
C1972 C 0.40331 0.43478 0.26376 0.0
C1973 C 0.3863 0.42256 0.277 0.0
H1974 H 0.342 0.31066 0.42666 0.0
H1975 H 0.33198 0.27701 0.36099 0.0
H1976 H 0.34153 0.25557 0.37966 0.0
H1977 H 0.35271 0.24638 0.41483 0.0
H1978 H 0.36108 0.27911 0.48074 0.0
H1979 H 0.35226 0.30102 0.4618 0.0
C1980 C 0.34193 0.29865 0.41641 0.0
C1981 C 0.33638 0.29548 0.39247 0.0
C1982 C 0.34718 0.28627 0.4273 0.0
C1983 C 0.33615 0.27973 0.37948 0.0
C1984 C 0.34167 0.26751 0.39012 0.0
C1985 C 0.3527 0.25841 0.42491 0.0
C1986 C 0.35761 0.26129 0.44903 0.0
C1987 C 0.34724 0.27067 0.414 0.0
C1988 C 0.3573 0.27668 0.46213 0.0
C1989 C 0.35228 0.28918 0.45132 0.0
H1990 H 0.68903 0.05951 0.37892 0.0
H1991 H 0.72676 0.03756 0.3574 0.0
H1992 H 0.75488 0.06668 0.37691 0.0
H1993 H 0.76841 0.0974 0.40179 0.0
H1994 H 0.73085 0.1193 0.42382 0.0
H1995 H 0.70307 0.09133 0.40208 0.0
C1996 C 0.70342 0.06115 0.37836 0.0
C1997 C 0.70571 0.04627 0.36688 0.0
C1998 C 0.71956 0.07791 0.38971 0.0
C1999 C 0.72452 0.04873 0.36619 0.0
C2000 C 0.74063 0.06537 0.37737 0.0
C2001 C 0.75413 0.09603 0.40181 0.0
C2002 C 0.75162 0.11026 0.41453 0.0
C2003 C 0.73825 0.07987 0.38948 0.0
C2004 C 0.73316 0.10857 0.41405 0.0
C2005 C 0.71726 0.09252 0.40176 0.0
H2006 H 0.92454 0.62694 0.36437 0.0
H2007 H 0.95141 0.69159 0.36851 0.0
H2008 H 0.92441 0.68753 0.39367 0.0
H2009 H 0.89424 0.66578 0.4161 0.0
H2010 H 0.86649 0.60102 0.41054 0.0
H2011 H 0.89309 0.60505 0.38472 0.0
C2012 C 0.92445 0.64015 0.37066 0.0
C2013 C 0.94003 0.65954 0.36468 0.0
C2014 C 0.90887 0.63771 0.3851 0.0
C2015 C 0.9396 0.67648 0.37283 0.0
C2016 C 0.9242 0.67418 0.3873 0.0
C2017 C 0.89375 0.65249 0.40894 0.0
C2018 C 0.87836 0.63312 0.41544 0.0
C2019 C 0.90889 0.65488 0.39374 0.0
C2020 C 0.8783 0.61614 0.40627 0.0
C2021 C 0.89344 0.61841 0.39133 0.0
H2022 H 0.38662 0.0225 0.71264 0.0
H2023 H 0.34048 0.95956 0.71621 0.0
H2024 H 0.36175 0.95311 0.73993 0.0
H2025 H 0.39331 0.9653 0.75994 0.0
H2026 H 0.43922 0.02831 0.75767 0.0
H2027 H 0.41814 0.03486 0.73342 0.0
C2028 C 0.38129 0.00737 0.71853 0.0
C2029 C 0.36205 0.99152 0.7126 0.0
C2030 C 0.39349 0.00381 0.73253 0.0
C2031 C 0.35523 0.97203 0.72057 0.0
C2032 C 0.36737 0.96831 0.73413 0.0
C2033 C 0.3987 0.98044 0.75403 0.0
C2034 C 0.41776 0.99628 0.76047 0.0
C2035 C 0.3865 0.98408 0.74025 0.0
C2036 C 0.42451 0.0159 0.75305 0.0
C2037 C 0.41252 0.01962 0.73909 0.0
H2038 H 0.01707 0.38546 0.71551 0.0
H2039 H 0.95528 0.36459 0.70736 0.0
H2040 H 0.96026 0.39424 0.72952 0.0
H2041 H 0.9818 0.42521 0.75307 0.0
H2042 H 0.04364 0.44641 0.76064 0.0
H2043 H 0.03907 0.41761 0.7367 0.0
C2044 C 0.00472 0.38746 0.71845 0.0
C2045 C 0.9858 0.37274 0.70997 0.0
C2046 C 0.00769 0.40458 0.73117 0.0
C2047 C 0.97 0.37567 0.7137 0.0
C2048 C 0.97281 0.39259 0.72646 0.0
C2049 C 0.99425 0.4235 0.74939 0.0
C2050 C 0.01298 0.43776 0.75869 0.0
C2051 C 0.99152 0.40697 0.73557 0.0
C2052 C 0.0291 0.43562 0.75355 0.0
C2053 C 0.02647 0.41913 0.73998 0.0
H2054 H 0.61515 0.62328 0.68272 0.0
H2055 H 0.64811 0.65868 0.74417 0.0
H2056 H 0.6196 0.63798 0.76929 0.0
H2057 H 0.58534 0.60964 0.77397 0.0
H2058 H 0.5524 0.57426 0.7126 0.0
H2059 H 0.58087 0.59509 0.68736 0.0
C2060 C 0.61612 0.62646 0.7016 0.0
C2061 C 0.63377 0.64251 0.71149 0.0
C2062 C 0.59966 0.6145 0.716 0.0
C2063 C 0.63473 0.64641 0.73603 0.0
C2064 C 0.61842 0.6346 0.75045 0.0
C2065 C 0.58435 0.60664 0.75504 0.0
C2066 C 0.56681 0.59044 0.74518 0.0
C2067 C 0.6008 0.61863 0.74063 0.0
C2068 C 0.56583 0.58653 0.72065 0.0
C2069 C 0.58207 0.59846 0.7062 0.0
H2070 H 0.65994 0.70165 0.61111 0.0
H2071 H 0.6807 0.74099 0.67312 0.0
H2072 H 0.67165 0.76308 0.65514 0.0
H2073 H 0.65782 0.77113 0.62181 0.0
H2074 H 0.63864 0.73244 0.55915 0.0
H2075 H 0.64666 0.70993 0.57771 0.0
C2076 C 0.66249 0.71504 0.62075 0.0
C2077 C 0.67099 0.71964 0.64344 0.0
C2078 C 0.65737 0.7277 0.61027 0.0
C2079 C 0.67423 0.73711 0.6556 0.0
C2080 C 0.66903 0.74973 0.64535 0.0
C2081 C 0.65554 0.75788 0.61209 0.0
C2082 C 0.64754 0.75352 0.58909 0.0
C2083 C 0.66062 0.74518 0.62267 0.0
C2084 C 0.6444 0.73604 0.57701 0.0
C2085 C 0.64917 0.72323 0.58752 0.0
H2086 H 0.25731 0.96108 0.64498 0.0
H2087 H 0.30525 0.95044 0.64225 0.0
H2088 H 0.28423 0.91844 0.62091 0.0
H2089 H 0.2528 0.89437 0.60097 0.0
H2090 H 0.20541 0.90574 0.60226 0.0
H2091 H 0.22558 0.9365 0.62626 0.0
C2092 C 0.26311 0.95168 0.63991 0.0
C2093 C 0.28283 0.95819 0.64513 0.0
C2094 C 0.25105 0.93345 0.62728 0.0
C2095 C 0.29014 0.94586 0.63833 0.0
C2096 C 0.27814 0.92753 0.62613 0.0
C2097 C 0.24685 0.90347 0.60682 0.0
C2098 C 0.22772 0.89788 0.59987 0.0
C2099 C 0.25866 0.92131 0.62023 0.0
C2100 C 0.22019 0.90988 0.60728 0.0
C2101 C 0.23169 0.92743 0.621 0.0
H2102 H 0.06069 0.37419 0.65035 0.0
H2103 H 0.03621 0.31088 0.66207 0.0
H2104 H 0.0637 0.3124 0.64046 0.0
H2105 H 0.09375 0.33122 0.6165 0.0
H2106 H 0.11815 0.39439 0.60446 0.0
H2107 H 0.09178 0.39347 0.62822 0.0
C2108 C 0.06142 0.36074 0.64832 0.0
C2109 C 0.04631 0.34241 0.65766 0.0
C2110 C 0.07724 0.36168 0.6358 0.0
C2111 C 0.04759 0.32518 0.65501 0.0
C2112 C 0.06329 0.32601 0.6426 0.0
C2113 C 0.09327 0.34478 0.6191 0.0
C2114 C 0.10776 0.3628 0.6086 0.0
C2115 C 0.07802 0.34409 0.63262 0.0
C2116 C 0.10721 0.38036 0.61247 0.0
C2117 C 0.09208 0.37981 0.62593 0.0
H2118 H 0.27029 0.31143 0.64174 0.0
H2119 H 0.31946 0.37318 0.63989 0.0
H2120 H 0.30029 0.38197 0.61553 0.0
H2121 H 0.26959 0.3722 0.59461 0.0
H2122 H 0.22055 0.31045 0.59591 0.0
H2123 H 0.23968 0.30156 0.62036 0.0
C2124 C 0.27679 0.32681 0.63605 0.0
C2125 C 0.29627 0.34161 0.6427 0.0
C2126 C 0.26574 0.33177 0.62183 0.0
C2127 C 0.30451 0.36146 0.63502 0.0
C2128 C 0.29356 0.36653 0.62108 0.0
C2129 C 0.26308 0.35683 0.60036 0.0
C2130 C 0.24369 0.34202 0.59347 0.0
C2131 C 0.27417 0.35182 0.61439 0.0
C2132 C 0.23553 0.32209 0.60077 0.0
C2133 C 0.24642 0.31702 0.61487 0.0
H2134 H 0.6567 0.97112 0.6257 0.0
H2135 H 0.66565 0.94693 0.68851 0.0
H2136 H 0.65595 0.91546 0.66691 0.0
H2137 H 0.64629 0.89539 0.62976 0.0
H2138 H 0.63792 0.9199 0.5669 0.0
H2139 H 0.64568 0.95055 0.58911 0.0
C2140 C 0.65647 0.95895 0.63473 0.0
C2141 C 0.66205 0.96145 0.65865 0.0
C2142 C 0.65092 0.94094 0.62221 0.0
C2143 C 0.66149 0.94545 0.67009 0.0
C2144 C 0.65596 0.92745 0.65775 0.0
C2145 C 0.64618 0.90746 0.62094 0.0
C2146 C 0.64165 0.90542 0.59669 0.0
C2147 C 0.65089 0.92513 0.63374 0.0
C2148 C 0.64119 0.92102 0.58559 0.0
C2149 C 0.64577 0.93861 0.59823 0.0
H2150 H 0.01418 0.71824 0.61983 0.0
H2151 H 0.03103 0.6755 0.63496 0.0
H2152 H 0.06106 0.69469 0.6115 0.0
H2153 H 0.08257 0.72362 0.58672 0.0
H2154 H 0.0661 0.76681 0.57257 0.0
H2155 H 0.03572 0.7472 0.59523 0.0
C2156 C 0.0244 0.7131 0.61802 0.0
C2157 C 0.02034 0.69547 0.62919 0.0
C2158 C 0.04167 0.72421 0.60452 0.0
C2159 C 0.03378 0.68904 0.6266 0.0
C2160 C 0.05096 0.7 0.61316 0.0
C2161 C 0.07241 0.72883 0.58873 0.0
C2162 C 0.07664 0.74666 0.57787 0.0
C2163 C 0.05508 0.71762 0.60208 0.0
C2164 C 0.06311 0.75299 0.58038 0.0
C2165 C 0.04579 0.74186 0.59351 0.0
H2166 H 0.98973 0.63421 0.75848 0.0
H2167 H 0.98359 0.6017 0.69284 0.0
H2168 H 0.9915 0.57968 0.71306 0.0
H2169 H 0.00067 0.56995 0.74927 0.0
H2170 H 0.00645 0.60217 0.81493 0.0
H2171 H 0.99804 0.62393 0.79484 0.0
C2172 C 0.99008 0.62229 0.74858 0.0
C2173 C 0.98615 0.61969 0.72415 0.0
C2174 C 0.99459 0.60963 0.76033 0.0
C2175 C 0.98655 0.60406 0.71166 0.0
C2176 C 0.99112 0.59147 0.72319 0.0
C2177 C 0.0002 0.58183 0.75912 0.0
C2178 C 0.00428 0.58454 0.7835 0.0
C2179 C 0.99528 0.59421 0.74748 0.0
C2180 C 0.00326 0.59973 0.79617 0.0
C2181 C 0.99853 0.61221 0.78468 0.0
H2182 H 0.35082 0.37689 0.7177 0.0
H2183 H 0.38829 0.35435 0.73436 0.0
H2184 H 0.4126 0.38703 0.75202 0.0
H2185 H 0.42345 0.422 0.76237 0.0
H2186 H 0.38653 0.44505 0.74548 0.0
H2187 H 0.36163 0.41205 0.72851 0.0
C2188 C 0.36427 0.3791 0.72526 0.0
C2189 C 0.36773 0.36318 0.72464 0.0
C2190 C 0.37828 0.398 0.73534 0.0
C2191 C 0.38524 0.36632 0.73453 0.0
C2192 C 0.39918 0.38502 0.74464 0.0
C2193 C 0.41005 0.41988 0.75474 0.0
C2194 C 0.40692 0.43599 0.75496 0.0
C2195 C 0.39591 0.40097 0.74499 0.0
C2196 C 0.38925 0.43285 0.74558 0.0
C2197 C 0.37506 0.41402 0.73581 0.0
H2198 H 0.60466 0.00335 0.67595 0.0
H2199 H 0.64538 0.02145 0.73435 0.0
H2200 H 0.61927 0.01565 0.76204 0.0
H2201 H 0.58476 0.00444 0.76991 0.0
H2202 H 0.54419 0.98784 0.71165 0.0
H2203 H 0.57028 0.99363 0.68379 0.0
C2204 C 0.60783 0.0061 0.69472 0.0
C2205 C 0.62694 0.01276 0.70302 0.0
C2206 C 0.59274 0.0028 0.71063 0.0
C2207 C 0.63082 0.01634 0.72742 0.0
C2208 C 0.61588 0.01297 0.74332 0.0
C2209 C 0.58164 0.00237 0.75111 0.0
C2210 C 0.56247 0.99563 0.74298 0.0
C2211 C 0.59678 0.0061 0.73514 0.0
C2212 C 0.55869 0.99266 0.71851 0.0
C2213 C 0.57365 0.99613 0.70251 0.0
loop_
_geom_bond_atom_site_label_1
_geom_bond_atom_site_label_2
_geom_bond_distance
_geom_bond_site_symmetry_2
_ccdc_geom_bond_type
C0 O1 1.160 . S
C0 O7 1.185 . S
O1 C0 1.160 . S
O2 Zn3 1.899 1_656 S
O2 C10 1.284 . S
Zn3 O2 1.899 1_454 S
Zn3 O4 2.032 . S
Zn3 O7 2.086 . S
Zn3 O12 1.977 1_554 S
O4 Zn3 2.032 . S
O4 C8 1.278 1_455 S
C5 O6 1.203 1_455 S
C5 O12 1.267 . S
O6 C5 1.203 1_655 S
O7 C0 1.185 . S
O7 Zn3 2.086 . S
C8 O4 1.278 1_655 S
C8 O9 1.211 . S
O9 C8 1.211 . S
C10 O2 1.284 . S
C10 O11 1.273 1_556 S
O11 C10 1.273 1_554 S
O12 Zn3 1.977 1_556 S
O12 C5 1.267 . S
C13 O14 1.160 . S
C13 O20 1.185 1_556 S
O14 C13 1.160 . S
O15 Zn16 1.899 . S
O15 C23 1.284 . S
Zn16 O15 1.899 . S
Zn16 O17 2.032 1_554 S
Zn16 O20 2.086 . S
Zn16 O25 1.977 . S
O17 Zn16 2.032 1_556 S
O17 C21 1.278 . S
C18 O19 1.203 . S
C18 O25 1.267 . S
O19 C18 1.203 . S
O20 C13 1.185 1_554 S
O20 Zn16 2.086 . S
C21 O17 1.278 . S
C21 O22 1.211 . S
O22 C21 1.211 . S
C23 O15 1.284 . S
C23 O24 1.273 . S
O24 C23 1.273 . S
O25 Zn16 1.977 . S
O25 C18 1.267 . S
C26 O27 1.160 . S
C26 O33 1.185 1_556 S
O27 C26 1.160 . S
O28 Zn29 1.899 1_565 S
O28 C36 1.284 . S
Zn29 O28 1.899 1_545 S
Zn29 O30 2.032 1_554 S
Zn29 O33 2.086 . S
Zn29 O38 1.977 . S
O30 Zn29 2.032 1_556 S
O30 C34 1.278 1_545 S
C31 O32 1.203 1_545 S
C31 O38 1.267 . S
O32 C31 1.203 1_565 S
O33 C26 1.185 1_554 S
O33 Zn29 2.086 . S
C34 O30 1.278 1_565 S
C34 O35 1.211 . S
O35 C34 1.211 . S
C36 O28 1.284 . S
C36 O37 1.273 . S
O37 C36 1.273 . S
O38 Zn29 1.977 . S
O38 C31 1.267 . S
C39 O40 1.160 . S
C39 O46 1.185 1_556 S
O40 C39 1.160 . S
O41 Zn42 1.899 1_455 S
O41 C49 1.284 . S
Zn42 O41 1.899 1_655 S
Zn42 O43 2.009 1_654 S
Zn42 O46 2.086 . S
Zn42 O51 1.977 . S
O43 Zn42 2.009 1_456 S
O43 C47 1.335 . S
C44 O45 1.203 1_655 S
C44 O51 1.267 . S
O45 C44 1.203 1_455 S
O46 C39 1.185 1_554 S
O46 Zn42 2.086 . S
C47 O43 1.335 . S
C47 O48 1.211 . S
O48 C47 1.211 . S
C49 O41 1.284 . S
C49 O50 1.273 . S
O50 C49 1.273 . S
O51 Zn42 1.977 . S
O51 C44 1.267 . S
C52 O53 1.160 . S
C52 O59 1.185 . S
O53 C52 1.160 . S
O54 Zn55 1.899 1_556 S
O54 C62 1.284 . S
Zn55 O54 1.899 1_554 S
Zn55 O56 2.032 . S
Zn55 O59 2.086 . S
Zn55 O64 1.977 1_554 S
O56 Zn55 2.032 . S
O56 C60 1.278 . S
C57 O58 1.203 . S
C57 O64 1.267 . S
O58 C57 1.203 . S
O59 C52 1.185 . S
O59 Zn55 2.086 . S
C60 O56 1.278 . S
C60 O61 1.211 . S
O61 C60 1.211 . S
C62 O54 1.284 . S
C62 O63 1.273 1_556 S
O63 C62 1.273 1_554 S
O64 Zn55 1.977 1_556 S
O64 C57 1.267 . S
C65 O66 1.160 . S
C65 O72 1.185 . S
O66 C65 1.160 . S
O67 Zn68 1.899 1_546 S
O67 C75 1.284 . S
Zn68 O67 1.899 1_564 S
Zn68 O69 2.032 1_565 S
Zn68 O72 2.086 . S
Zn68 O77 1.977 1_554 S
O69 Zn68 2.032 1_545 S
O69 C73 1.278 . S
C70 O71 1.203 1_565 S
C70 O77 1.267 . S
O71 C70 1.203 1_545 S
O72 C65 1.185 . S
O72 Zn68 2.086 . S
C73 O69 1.278 . S
C73 O74 1.211 . S
O74 C73 1.211 . S
C75 O67 1.284 . S
C75 O76 1.273 1_556 S
O76 C75 1.273 1_554 S
O77 Zn68 1.977 1_556 S
O77 C70 1.267 . S
C78 O79 1.160 . S
C78 O85 1.185 . S
O79 C78 1.160 . S
O80 Zn81 1.899 . S
O80 C88 1.284 . S
Zn81 O80 1.899 . S
Zn81 O82 2.032 . S
Zn81 O85 2.086 . S
Zn81 O90 1.977 . S
O82 Zn81 2.032 . S
O82 C86 1.278 . S
C83 O84 1.203 . S
C83 O90 1.267 . S
O84 C83 1.203 . S
O85 C78 1.185 . S
O85 Zn81 2.086 . S
C86 O82 1.278 . S
C86 O87 1.211 . S
O87 C86 1.211 . S
C88 O80 1.284 . S
C88 O89 1.273 . S
O89 C88 1.273 . S
O90 Zn81 1.977 . S
O90 C83 1.267 . S
C91 O92 1.160 1_565 S
C91 O98 1.185 . S
O92 C91 1.160 1_545 S
O93 Zn94 1.899 1_545 S
O93 C101 1.284 . S
Zn94 O93 1.899 1_565 S
Zn94 O95 2.032 . S
Zn94 O98 2.086 . S
Zn94 O103 1.977 . S
O95 Zn94 2.032 . S
O95 C99 1.278 . S
C96 O97 1.203 . S
C96 O103 1.267 . S
O97 C96 1.203 . S
O98 C91 1.185 . S
O98 Zn94 2.086 . S
C99 O95 1.278 . S
C99 O100 1.211 . S
O100 C99 1.211 . S
C101 O93 1.284 . S
C101 O102 1.273 . S
O102 C101 1.273 . S
O103 Zn94 1.977 . S
O103 C96 1.267 . S
C104 O105 1.166 . S
C104 O111 1.185 . S
O105 C104 1.166 . S
O106 Zn107 1.866 1_655 S
O106 C114 1.282 . S
Zn107 O106 1.866 1_455 S
Zn107 O108 2.032 . S
Zn107 O111 2.086 . S
Zn107 O116 1.977 . S
O108 Zn107 2.032 . S
O108 C112 1.278 . S
C109 O110 1.203 . S
C109 O116 1.267 . S
O110 C109 1.203 . S
O111 C104 1.185 . S
O111 Zn107 2.086 . S
C112 O108 1.278 . S
C112 O113 1.211 . S
O113 C112 1.211 . S
C114 O106 1.282 . S
C114 O115 1.273 . S
O115 C114 1.273 . S
O116 Zn107 1.977 . S
O116 C109 1.267 . S
C117 O118 1.160 1_565 S
C117 O124 1.185 . S
O118 C117 1.160 1_545 S
O119 Zn120 1.899 1_545 S
O119 C127 1.284 . S
Zn120 O119 1.899 1_565 S
Zn120 O121 2.032 . S
Zn120 O124 2.086 . S
Zn120 O129 1.977 . S
O121 Zn120 2.032 . S
O121 C125 1.278 . S
C122 O123 1.203 . S
C122 O129 1.267 . S
O123 C122 1.203 . S
O124 C117 1.185 . S
O124 Zn120 2.086 . S
C125 O121 1.278 . S
C125 O126 1.211 . S
O126 C125 1.211 . S
C127 O119 1.284 . S
C127 O128 1.273 . S
O128 C127 1.273 . S
O129 Zn120 1.977 . S
O129 C122 1.267 . S
C130 O131 1.160 . S
C130 O137 1.185 . S
O131 C130 1.160 . S
O132 Zn133 1.899 . S
O132 C140 1.284 . S
Zn133 O132 1.899 . S
Zn133 O134 2.032 . S
Zn133 O137 2.086 1_455 S
Zn133 O142 1.977 . S
O134 Zn133 2.032 . S
O134 C138 1.278 . S
C135 O136 1.203 . S
C135 O142 1.267 . S
O136 C135 1.203 . S
O137 C130 1.185 . S
O137 Zn133 2.086 1_655 S
C138 O134 1.278 . S
C138 O139 1.211 . S
O139 C138 1.211 . S
C140 O132 1.284 . S
C140 O141 1.273 . S
O141 C140 1.273 . S
O142 Zn133 1.977 . S
O142 C135 1.267 . S
C143 O144 1.160 . S
C143 O150 1.185 . S
O144 C143 1.160 . S
O145 Zn146 1.899 . S
O145 C153 1.284 . S
Zn146 O145 1.899 . S
Zn146 O147 2.032 . S
Zn146 O150 2.086 . S
Zn146 O155 1.977 . S
O147 Zn146 2.032 . S
O147 C151 1.278 . S
C148 O149 1.203 . S
C148 O155 1.267 . S
O149 C148 1.203 . S
O150 C143 1.185 . S
O150 Zn146 2.086 . S
C151 O147 1.278 . S
C151 O152 1.211 . S
O152 C151 1.211 . S
C153 O145 1.284 . S
C153 O154 1.273 . S
O154 C153 1.273 . S
O155 Zn146 1.977 . S
O155 C148 1.267 . S
C156 O157 1.160 1_545 S
C156 O163 1.185 . S
O157 C156 1.160 1_565 S
O158 Zn159 1.899 1_565 S
O158 C166 1.284 . S
Zn159 O158 1.899 1_545 S
Zn159 O160 2.032 . S
Zn159 O163 2.086 . S
Zn159 O168 1.977 . S
O160 Zn159 2.032 . S
O160 C164 1.278 . S
C161 O162 1.203 . S
C161 O168 1.267 . S
O162 C161 1.203 . S
O163 C156 1.185 . S
O163 Zn159 2.086 . S
C164 O160 1.278 . S
C164 O165 1.211 . S
O165 C164 1.211 . S
C166 O158 1.284 . S
C166 O167 1.273 . S
O167 C166 1.273 . S
O168 Zn159 1.977 . S
O168 C161 1.267 . S
C169 O170 1.160 . S
C169 O176 1.185 . S
O170 C169 1.160 . S
O171 Zn172 1.896 . S
O171 C179 1.297 . S
Zn172 O171 1.896 . S
Zn172 O173 2.032 . S
Zn172 O176 2.086 1_655 S
Zn172 O181 1.977 . S
O173 Zn172 2.032 . S
O173 C177 1.278 . S
C174 O175 1.203 . S
C174 O181 1.267 . S
O175 C174 1.203 . S
O176 C169 1.185 . S
O176 Zn172 2.086 1_455 S
C177 O173 1.278 . S
C177 O178 1.211 . S
O178 C177 1.211 . S
C179 O171 1.297 . S
C179 O180 1.273 . S
O180 C179 1.273 . S
O181 Zn172 1.977 . S
O181 C174 1.267 . S
C182 O183 1.160 . S
C182 O189 1.185 . S
O183 C182 1.160 . S
O184 Zn185 1.899 . S
O184 C192 1.284 . S
Zn185 O184 1.899 . S
Zn185 O186 2.032 . S
Zn185 O189 2.086 . S
Zn185 O194 1.977 . S
O186 Zn185 2.032 . S
O186 C190 1.278 . S
C187 O188 1.203 . S
C187 O194 1.267 . S
O188 C187 1.203 . S
O189 C182 1.185 . S
O189 Zn185 2.086 . S
C190 O186 1.278 . S
C190 O191 1.211 . S
O191 C190 1.211 . S
C192 O184 1.284 . S
C192 O193 1.273 . S
O193 C192 1.273 . S
O194 Zn185 1.977 . S
O194 C187 1.267 . S
C195 O196 1.160 . S
C195 O202 1.185 . S
O196 C195 1.160 . S
O197 Zn198 1.899 . S
O197 C205 1.284 . S
Zn198 O197 1.899 . S
Zn198 O199 2.032 . S
Zn198 O202 2.086 . S
Zn198 O207 1.977 . S
O199 Zn198 2.032 . S
O199 C203 1.278 . S
C200 O201 1.203 . S
C200 O207 1.267 . S
O201 C200 1.203 . S
O202 C195 1.185 . S
O202 Zn198 2.086 . S
C203 O199 1.278 . S
C203 O204 1.211 . S
O204 C203 1.211 . S
C205 O197 1.284 . S
C205 O206 1.273 . S
O206 C205 1.273 . S
O207 Zn198 1.977 . S
O207 C200 1.267 . S
C208 O209 1.160 1_545 S
C208 O215 1.185 . S
O209 C208 1.160 1_565 S
O210 Zn211 1.899 1_565 S
O210 C218 1.284 . S
Zn211 O210 1.899 1_545 S
Zn211 O212 2.032 . S
Zn211 O215 2.086 . S
Zn211 O220 1.977 . S
O212 Zn211 2.032 . S
O212 C216 1.278 . S
C213 O214 1.203 . S
C213 O220 1.267 . S
O214 C213 1.203 . S
O215 C208 1.185 . S
O215 Zn211 2.086 . S
C216 O212 1.278 . S
C216 O217 1.211 . S
O217 C216 1.211 . S
C218 O210 1.284 . S
C218 O219 1.273 . S
O219 C218 1.273 . S
O220 Zn211 1.977 . S
O220 C213 1.267 . S
C221 O222 1.139 1_655 S
C221 O228 1.185 . S
O222 C221 1.139 1_455 S
O223 Zn224 1.899 1_455 S
O223 C231 1.284 . S
Zn224 O223 1.899 1_655 S
Zn224 O225 2.032 . S
Zn224 O228 2.086 . S
Zn224 O233 1.977 . S
O225 Zn224 2.032 . S
O225 C229 1.278 . S
C226 O227 1.203 . S
C226 O233 1.267 . S
O227 C226 1.203 . S
O228 C221 1.185 . S
O228 Zn224 2.086 . S
C229 O225 1.278 . S
C229 O230 1.211 . S
O230 C229 1.211 . S
C231 O223 1.284 . S
C231 O232 1.273 . S
O232 C231 1.273 . S
O233 Zn224 1.977 . S
O233 C226 1.267 . S
C234 C235 1.384 . S
C234 C236 1.384 . S
C234 H262 0.931 . S
C235 C234 1.384 . S
C235 C238 1.382 . S
C236 C234 1.384 . S
C236 C237 1.381 . S
C236 H263 0.930 . S
C237 C236 1.381 . S
C237 C239 1.381 . S
C237 C240 1.487 . S
C238 C235 1.382 . S
C238 C239 1.387 . S
C238 H264 0.930 . S
C239 C237 1.381 . S
C239 C238 1.387 . S
C239 H265 0.931 . S
C240 C237 1.487 . S
C240 C247 1.399 . S
C240 N278 1.343 . S
C241 C242 1.384 . S
C241 C243 1.384 . S
C241 H266 0.931 . S
C242 C241 1.384 . S
C242 C245 1.382 . S
C243 C241 1.384 . S
C243 C244 1.381 . S
C243 H267 0.930 . S
C244 C243 1.381 . S
C244 C246 1.381 . S
C244 C247 1.487 . S
C245 C242 1.382 . S
C245 C246 1.387 . S
C245 H268 0.930 . S
C246 C244 1.381 . S
C246 C245 1.387 . S
C246 H269 0.931 . S
C247 C240 1.399 . S
C247 C244 1.487 . S
C247 N279 1.343 . S
C248 C249 1.384 . S
C248 C250 1.384 . S
C248 H270 0.931 . S
C249 C248 1.384 . S
C249 C252 1.382 . S
C250 C248 1.384 . S
C250 C251 1.381 . S
C250 H271 0.930 . S
C251 C250 1.381 . S
C251 C253 1.381 . S
C251 C254 1.487 . S
C252 C249 1.382 . S
C252 C253 1.387 . S
C252 H272 0.930 . S
C253 C251 1.381 . S
C253 C252 1.387 . S
C253 H273 0.931 . S
C254 C251 1.487 . S
C254 C261 1.399 . S
C254 N279 1.343 . S
C255 C256 1.384 . S
C255 C257 1.384 . S
C255 H274 0.931 . S
C256 C255 1.384 . S
C256 C259 1.382 . S
C257 C255 1.384 . S
C257 C258 1.381 . S
C257 H275 0.930 . S
C258 C257 1.381 . S
C258 C260 1.381 . S
C258 C261 1.487 . S
C259 C256 1.382 . S
C259 C260 1.387 . S
C259 H276 0.930 . S
C260 C258 1.381 . S
C260 C259 1.387 . S
C260 H277 0.931 . S
C261 C254 1.399 . S
C261 C258 1.487 . S
C261 N278 1.343 . S
H262 C234 0.931 . S
H263 C236 0.930 . S
H264 C238 0.930 . S
H265 C239 0.931 . S
H266 C241 0.931 . S
H267 C243 0.930 . S
H268 C245 0.930 . S
H269 C246 0.931 . S
H270 C248 0.931 . S
H271 C250 0.930 . S
H272 C252 0.930 . S
H273 C253 0.931 . S
H274 C255 0.931 . S
H275 C257 0.930 . S
H276 C259 0.930 . S
H277 C260 0.931 . S
N278 C240 1.343 . S
N278 C261 1.343 . S
N279 C247 1.343 . S
N279 C254 1.343 . S
C280 C281 1.384 . S
C280 C282 1.384 . S
C280 H308 0.931 . S
C281 C280 1.384 . S
C281 C284 1.382 . S
C282 C280 1.384 . S
C282 C283 1.381 . S
C282 H309 0.930 . S
C283 C282 1.381 . S
C283 C285 1.381 . S
C283 C286 1.487 . S
C284 C281 1.382 . S
C284 C285 1.387 . S
C284 H310 0.930 . S
C285 C283 1.381 . S
C285 C284 1.387 . S
C285 H311 0.931 . S
C286 C283 1.487 . S
C286 C293 1.399 . S
C286 N324 1.343 . S
C287 C288 1.384 . S
C287 C289 1.384 . S
C287 H312 0.931 . S
C288 C287 1.384 . S
C288 C291 1.382 . S
C289 C287 1.384 . S
C289 C290 1.381 . S
C289 H313 0.930 . S
C290 C289 1.381 . S
C290 C292 1.381 . S
C290 C293 1.487 . S
C291 C288 1.382 . S
C291 C292 1.387 . S
C291 H314 0.930 . S
C292 C290 1.381 . S
C292 C291 1.387 . S
C292 H315 0.931 . S
C293 C286 1.399 . S
C293 C290 1.487 . S
C293 N325 1.343 . S
C294 C295 1.384 . S
C294 C296 1.384 . S
C294 H316 0.931 . S
C295 C294 1.384 . S
C295 C298 1.382 . S
C296 C294 1.384 . S
C296 C297 1.381 . S
C296 H317 0.930 . S
C297 C296 1.381 . S
C297 C299 1.381 . S
C297 C300 1.487 . S
C298 C295 1.382 . S
C298 C299 1.387 . S
C298 H318 0.930 . S
C299 C297 1.381 . S
C299 C298 1.387 . S
C299 H319 0.931 . S
C300 C297 1.487 . S
C300 C307 1.399 . S
C300 N325 1.343 . S
C301 C302 1.384 . S
C301 C303 1.384 . S
C301 H320 0.931 . S
C302 C301 1.384 . S
C302 C305 1.382 . S
C303 C301 1.384 . S
C303 C304 1.381 . S
C303 H321 0.930 . S
C304 C303 1.381 . S
C304 C306 1.381 . S
C304 C307 1.487 . S
C305 C302 1.382 . S
C305 C306 1.387 . S
C305 H322 0.930 . S
C306 C304 1.381 . S
C306 C305 1.387 . S
C306 H323 0.931 . S
C307 C300 1.399 . S
C307 C304 1.487 . S
C307 N324 1.343 . S
H308 C280 0.931 . S
H309 C282 0.930 . S
H310 C284 0.930 . S
H311 C285 0.931 . S
H312 C287 0.931 . S
H313 C289 0.930 . S
H314 C291 0.930 . S
H315 C292 0.931 . S
H316 C294 0.931 . S
H317 C296 0.930 . S
H318 C298 0.930 . S
H319 C299 0.931 . S
H320 C301 0.931 . S
H321 C303 0.930 . S
H322 C305 0.930 . S
H323 C306 0.931 . S
N324 C286 1.343 . S
N324 C307 1.343 . S
N325 C293 1.343 . S
N325 C300 1.343 . S
C326 C327 1.384 . S
C326 C328 1.384 . S
C326 H354 0.931 . S
C327 C326 1.384 . S
C327 C330 1.382 . S
C328 C326 1.384 . S
C328 C329 1.381 . S
C328 H355 0.930 . S
C329 C328 1.381 . S
C329 C331 1.381 . S
C329 C332 1.487 . S
C330 C327 1.382 . S
C330 C331 1.387 . S
C330 H356 0.930 . S
C331 C329 1.381 . S
C331 C330 1.387 . S
C331 H357 0.931 . S
C332 C329 1.487 . S
C332 C339 1.399 . S
C332 N370 1.343 . S
C333 C334 1.384 . S
C333 C335 1.384 . S
C333 H358 0.931 . S
C334 C333 1.384 . S
C334 C337 1.382 . S
C335 C333 1.384 . S
C335 C336 1.381 . S
C335 H359 0.930 . S
C336 C335 1.381 . S
C336 C338 1.381 . S
C336 C339 1.487 . S
C337 C334 1.382 . S
C337 C338 1.387 . S
C337 H360 0.930 . S
C338 C336 1.381 . S
C338 C337 1.387 . S
C338 H361 0.931 . S
C339 C332 1.399 . S
C339 C336 1.487 . S
C339 N371 1.343 . S
C340 C341 1.384 . S
C340 C342 1.384 . S
C340 H362 0.931 . S
C341 C340 1.384 . S
C341 C344 1.382 . S
C342 C340 1.384 . S
C342 C343 1.381 . S
C342 H363 0.930 . S
C343 C342 1.381 . S
C343 C345 1.381 . S
C343 C346 1.487 . S
C344 C341 1.382 . S
C344 C345 1.387 . S
C344 H364 0.930 . S
C345 C343 1.381 . S
C345 C344 1.387 . S
C345 H365 0.931 . S
C346 C343 1.487 . S
C346 C353 1.399 . S
C346 N371 1.343 . S
C347 C348 1.384 . S
C347 C349 1.384 . S
C347 H366 0.931 . S
C348 C347 1.384 . S
C348 C351 1.382 . S
C349 C347 1.384 . S
C349 C350 1.381 . S
C349 H367 0.930 . S
C350 C349 1.381 . S
C350 C352 1.381 . S
C350 C353 1.487 . S
C351 C348 1.382 . S
C351 C352 1.387 . S
C351 H368 0.930 . S
C352 C350 1.381 . S
C352 C351 1.387 . S
C352 H369 0.931 . S
C353 C346 1.399 . S
C353 C350 1.487 . S
C353 N370 1.343 . S
H354 C326 0.931 . S
H355 C328 0.930 . S
H356 C330 0.930 . S
H357 C331 0.931 . S
H358 C333 0.931 . S
H359 C335 0.930 . S
H360 C337 0.930 . S
H361 C338 0.931 . S
H362 C340 0.931 . S
H363 C342 0.930 . S
H364 C344 0.930 . S
H365 C345 0.931 . S
H366 C347 0.931 . S
H367 C349 0.930 . S
H368 C351 0.930 . S
H369 C352 0.931 . S
N370 C332 1.343 . S
N370 C353 1.343 . S
N371 C339 1.343 . S
N371 C346 1.343 . S
C372 C373 1.384 . S
C372 C374 1.384 . S
C372 H400 0.931 . S
C373 C372 1.384 . S
C373 C376 1.382 . S
C374 C372 1.384 . S
C374 C375 1.381 . S
C374 H401 0.930 . S
C375 C374 1.381 . S
C375 C377 1.381 . S
C375 C378 1.487 . S
C376 C373 1.382 . S
C376 C377 1.387 . S
C376 H402 0.930 . S
C377 C375 1.381 . S
C377 C376 1.387 . S
C377 H403 0.931 . S
C378 C375 1.487 . S
C378 C385 1.399 . S
C378 N416 1.343 . S
C379 C380 1.384 . S
C379 C381 1.384 . S
C379 H404 0.931 . S
C380 C379 1.384 . S
C380 C383 1.382 . S
C381 C379 1.384 . S
C381 C382 1.381 . S
C381 H405 0.930 . S
C382 C381 1.381 . S
C382 C384 1.381 . S
C382 C385 1.487 . S
C383 C380 1.382 . S
C383 C384 1.387 . S
C383 H406 0.930 . S
C384 C382 1.381 . S
C384 C383 1.387 . S
C384 H407 0.931 . S
C385 C378 1.399 . S
C385 C382 1.487 . S
C385 N417 1.343 . S
C386 C387 1.384 . S
C386 C388 1.384 . S
C386 H408 0.931 . S
C387 C386 1.384 . S
C387 C390 1.382 . S
C388 C386 1.384 . S
C388 C389 1.381 . S
C388 H409 0.930 . S
C389 C388 1.381 . S
C389 C391 1.381 . S
C389 C392 1.487 . S
C390 C387 1.382 . S
C390 C391 1.387 . S
C390 H410 0.930 . S
C391 C389 1.381 . S
C391 C390 1.387 . S
C391 H411 0.931 . S
C392 C389 1.487 . S
C392 C399 1.399 . S
C392 N417 1.343 . S
C393 C394 1.384 . S
C393 C395 1.384 . S
C393 H412 0.931 . S
C394 C393 1.384 . S
C394 C397 1.382 . S
C395 C393 1.384 . S
C395 C396 1.381 . S
C395 H413 0.930 . S
C396 C395 1.381 . S
C396 C398 1.381 . S
C396 C399 1.487 . S
C397 C394 1.382 . S
C397 C398 1.387 . S
C397 H414 0.930 . S
C398 C396 1.381 . S
C398 C397 1.387 . S
C398 H415 0.931 . S
C399 C392 1.399 . S
C399 C396 1.487 . S
C399 N416 1.343 . S
H400 C372 0.931 . S
H401 C374 0.930 . S
H402 C376 0.930 . S
H403 C377 0.931 . S
H404 C379 0.931 . S
H405 C381 0.930 . S
H406 C383 0.930 . S
H407 C384 0.931 . S
H408 C386 0.931 . S
H409 C388 0.930 . S
H410 C390 0.930 . S
H411 C391 0.931 . S
H412 C393 0.931 . S
H413 C395 0.930 . S
H414 C397 0.930 . S
H415 C398 0.931 . S
N416 C378 1.343 . S
N416 C399 1.343 . S
N417 C385 1.343 . S
N417 C392 1.343 . S
C418 C419 1.384 . S
C418 C420 1.384 . S
C418 H446 0.931 . S
C419 C418 1.384 . S
C419 C422 1.382 . S
C420 C418 1.384 . S
C420 C421 1.381 . S
C420 H447 0.930 . S
C421 C420 1.381 . S
C421 C423 1.381 . S
C421 C424 1.487 . S
C422 C419 1.382 . S
C422 C423 1.387 . S
C422 H448 0.930 . S
C423 C421 1.381 . S
C423 C422 1.387 . S
C423 H449 0.931 . S
C424 C421 1.487 . S
C424 C431 1.399 . S
C424 N462 1.343 . S
C425 C426 1.384 . S
C425 C427 1.384 . S
C425 H450 0.931 . S
C426 C425 1.384 . S
C426 C429 1.382 . S
C427 C425 1.384 . S
C427 C428 1.381 . S
C427 H451 0.930 . S
C428 C427 1.381 . S
C428 C430 1.381 . S
C428 C431 1.487 . S
C429 C426 1.382 . S
C429 C430 1.387 . S
C429 H452 0.930 . S
C430 C428 1.381 . S
C430 C429 1.387 . S
C430 H453 0.931 . S
C431 C424 1.399 . S
C431 C428 1.487 . S
C431 N463 1.343 . S
C432 C433 1.384 . S
C432 C434 1.384 . S
C432 H454 0.931 . S
C433 C432 1.384 . S
C433 C436 1.382 . S
C434 C432 1.384 . S
C434 C435 1.381 . S
C434 H455 0.930 . S
C435 C434 1.381 . S
C435 C437 1.381 . S
C435 C438 1.487 . S
C436 C433 1.382 . S
C436 C437 1.387 . S
C436 H456 0.930 . S
C437 C435 1.381 . S
C437 C436 1.387 . S
C437 H457 0.931 . S
C438 C435 1.487 . S
C438 C445 1.399 . S
C438 N463 1.343 . S
C439 C440 1.384 . S
C439 C441 1.384 . S
C439 H458 0.931 . S
C440 C439 1.384 . S
C440 C443 1.382 . S
C441 C439 1.384 . S
C441 C442 1.381 . S
C441 H459 0.930 . S
C442 C441 1.381 . S
C442 C444 1.381 . S
C442 C445 1.487 . S
C443 C440 1.382 . S
C443 C444 1.387 . S
C443 H460 0.930 . S
C444 C442 1.381 . S
C444 C443 1.387 . S
C444 H461 0.931 . S
C445 C438 1.399 . S
C445 C442 1.487 . S
C445 N462 1.343 . S
H446 C418 0.931 . S
H447 C420 0.930 . S
H448 C422 0.930 . S
H449 C423 0.931 . S
H450 C425 0.931 . S
H451 C427 0.930 . S
H452 C429 0.930 . S
H453 C430 0.931 . S
H454 C432 0.931 . S
H455 C434 0.930 . S
H456 C436 0.930 . S
H457 C437 0.931 . S
H458 C439 0.931 . S
H459 C441 0.930 . S
H460 C443 0.930 . S
H461 C444 0.931 . S
N462 C424 1.343 . S
N462 C445 1.343 . S
N463 C431 1.343 . S
N463 C438 1.343 . S
C464 C465 1.384 . S
C464 C466 1.384 . S
C464 H492 0.931 . S
C465 C464 1.384 . S
C465 C468 1.382 . S
C466 C464 1.384 . S
C466 C467 1.381 . S
C466 H493 0.930 . S
C467 C466 1.381 . S
C467 C469 1.381 . S
C467 C470 1.487 . S
C468 C465 1.382 . S
C468 C469 1.387 . S
C468 H494 0.930 . S
C469 C467 1.381 . S
C469 C468 1.387 . S
C469 H495 0.931 . S
C470 C467 1.487 . S
C470 C477 1.399 . S
C470 N508 1.343 . S
C471 C472 1.384 . S
C471 C473 1.384 . S
C471 H496 0.931 . S
C472 C471 1.384 . S
C472 C475 1.382 . S
C473 C471 1.384 . S
C473 C474 1.381 . S
C473 H497 0.930 . S
C474 C473 1.381 . S
C474 C476 1.381 . S
C474 C477 1.487 . S
C475 C472 1.382 . S
C475 C476 1.387 . S
C475 H498 0.930 . S
C476 C474 1.381 . S
C476 C475 1.387 . S
C476 H499 0.931 . S
C477 C470 1.399 . S
C477 C474 1.487 . S
C477 N509 1.343 . S
C478 C479 1.384 . S
C478 C480 1.384 . S
C478 H500 0.931 . S
C479 C478 1.384 . S
C479 C482 1.382 . S
C480 C478 1.384 . S
C480 C481 1.381 . S
C480 H501 0.930 . S
C481 C480 1.381 . S
C481 C483 1.381 . S
C481 C484 1.487 . S
C482 C479 1.382 . S
C482 C483 1.387 . S
C482 H502 0.930 . S
C483 C481 1.381 . S
C483 C482 1.387 . S
C483 H503 0.931 . S
C484 C481 1.487 . S
C484 C491 1.399 . S
C484 N509 1.343 . S
C485 C486 1.384 . S
C485 C487 1.384 . S
C485 H504 0.931 . S
C486 C485 1.384 . S
C486 C489 1.382 . S
C487 C485 1.384 . S
C487 C488 1.381 . S
C487 H505 0.930 . S
C488 C487 1.381 . S
C488 C490 1.381 . S
C488 C491 1.487 . S
C489 C486 1.382 . S
C489 C490 1.387 . S
C489 H506 0.930 . S
C490 C488 1.381 . S
C490 C489 1.387 . S
C490 H507 0.931 . S
C491 C484 1.399 . S
C491 C488 1.487 . S
C491 N508 1.343 . S
H492 C464 0.931 . S
H493 C466 0.930 . S
H494 C468 0.930 . S
H495 C469 0.931 . S
H496 C471 0.931 . S
H497 C473 0.930 . S
H498 C475 0.930 . S
H499 C476 0.931 . S
H500 C478 0.931 . S
H501 C480 0.930 . S
H502 C482 0.930 . S
H503 C483 0.931 . S
H504 C485 0.931 . S
H505 C487 0.930 . S
H506 C489 0.930 . S
H507 C490 0.931 . S
N508 C470 1.343 . S
N508 C491 1.343 . S
N509 C477 1.343 . S
N509 C484 1.343 . S
C510 C511 1.384 . S
C510 C512 1.384 . S
C510 H538 0.931 . S
C511 C510 1.384 . S
C511 C514 1.382 . S
C512 C510 1.384 . S
C512 C513 1.381 . S
C512 H539 0.930 . S
C513 C512 1.381 . S
C513 C515 1.381 . S
C513 C516 1.487 . S
C514 C511 1.382 . S
C514 C515 1.387 . S
C514 H540 0.930 . S
C515 C513 1.381 . S
C515 C514 1.387 . S
C515 H541 0.931 . S
C516 C513 1.487 . S
C516 C523 1.399 . S
C516 N554 1.343 . S
C517 C518 1.384 . S
C517 C519 1.384 . S
C517 H542 0.931 . S
C518 C517 1.384 . S
C518 C521 1.382 . S
C519 C517 1.384 . S
C519 C520 1.381 . S
C519 H543 0.930 . S
C520 C519 1.381 . S
C520 C522 1.381 . S
C520 C523 1.487 . S
C521 C518 1.382 . S
C521 C522 1.387 . S
C521 H544 0.930 . S
C522 C520 1.381 . S
C522 C521 1.387 . S
C522 H545 0.931 . S
C523 C516 1.399 . S
C523 C520 1.487 . S
C523 N555 1.343 . S
C524 C525 1.384 . S
C524 C526 1.384 . S
C524 H546 0.931 . S
C525 C524 1.384 . S
C525 C528 1.382 . S
C526 C524 1.384 . S
C526 C527 1.381 . S
C526 H547 0.930 . S
C527 C526 1.381 . S
C527 C529 1.381 . S
C527 C530 1.487 . S
C528 C525 1.382 . S
C528 C529 1.387 . S
C528 H548 0.930 . S
C529 C527 1.381 . S
C529 C528 1.387 . S
C529 H549 0.931 . S
C530 C527 1.487 . S
C530 C537 1.399 . S
C530 N555 1.343 . S
C531 C532 1.384 . S
C531 C533 1.384 . S
C531 H550 0.931 . S
C532 C531 1.384 . S
C532 C535 1.382 . S
C533 C531 1.384 . S
C533 C534 1.381 . S
C533 H551 0.930 . S
C534 C533 1.381 . S
C534 C536 1.381 . S
C534 C537 1.487 . S
C535 C532 1.382 . S
C535 C536 1.387 . S
C535 H552 0.930 . S
C536 C534 1.381 . S
C536 C535 1.387 . S
C536 H553 0.931 . S
C537 C530 1.399 . S
C537 C534 1.487 . S
C537 N554 1.343 . S
H538 C510 0.931 . S
H539 C512 0.930 . S
H540 C514 0.930 . S
H541 C515 0.931 . S
H542 C517 0.931 . S
H543 C519 0.930 . S
H544 C521 0.930 . S
H545 C522 0.931 . S
H546 C524 0.931 . S
H547 C526 0.930 . S
H548 C528 0.930 . S
H549 C529 0.931 . S
H550 C531 0.931 . S
H551 C533 0.930 . S
H552 C535 0.930 . S
H553 C536 0.931 . S
N554 C516 1.343 . S
N554 C537 1.343 . S
N555 C523 1.343 . S
N555 C530 1.343 . S
C556 C557 1.384 . S
C556 C558 1.384 . S
C556 H584 0.931 . S
C557 C556 1.384 . S
C557 C560 1.382 . S
C558 C556 1.384 . S
C558 C559 1.381 . S
C558 H585 0.930 . S
C559 C558 1.381 . S
C559 C561 1.381 . S
C559 C562 1.487 . S
C560 C557 1.382 . S
C560 C561 1.387 . S
C560 H586 0.930 . S
C561 C559 1.381 . S
C561 C560 1.387 . S
C561 H587 0.931 . S
C562 C559 1.487 . S
C562 C569 1.399 . S
C562 N600 1.343 . S
C563 C564 1.384 . S
C563 C565 1.384 . S
C563 H588 0.931 . S
C564 C563 1.384 . S
C564 C567 1.382 . S
C565 C563 1.384 . S
C565 C566 1.381 . S
C565 H589 0.930 . S
C566 C565 1.381 . S
C566 C568 1.381 . S
C566 C569 1.487 . S
C567 C564 1.382 . S
C567 C568 1.387 . S
C567 H590 0.930 . S
C568 C566 1.381 . S
C568 C567 1.387 . S
C568 H591 0.931 . S
C569 C562 1.399 . S
C569 C566 1.487 . S
C569 N601 1.343 . S
C570 C571 1.384 . S
C570 C572 1.384 . S
C570 H592 0.931 . S
C571 C570 1.384 . S
C571 C574 1.382 . S
C572 C570 1.384 . S
C572 C573 1.381 . S
C572 H593 0.930 . S
C573 C572 1.381 . S
C573 C575 1.381 . S
C573 C576 1.487 . S
C574 C571 1.382 . S
C574 C575 1.387 . S
C574 H594 0.930 . S
C575 C573 1.381 . S
C575 C574 1.387 . S
C575 H595 0.931 . S
C576 C573 1.487 . S
C576 C583 1.399 . S
C576 N601 1.343 . S
C577 C578 1.384 . S
C577 C579 1.384 . S
C577 H596 0.931 . S
C578 C577 1.384 . S
C578 C581 1.382 . S
C579 C577 1.384 . S
C579 C580 1.381 . S
C579 H597 0.930 . S
C580 C579 1.381 . S
C580 C582 1.381 . S
C580 C583 1.487 . S
C581 C578 1.382 . S
C581 C582 1.387 . S
C581 H598 0.930 . S
C582 C580 1.381 . S
C582 C581 1.387 . S
C582 H599 0.931 . S
C583 C576 1.399 . S
C583 C580 1.487 . S
C583 N600 1.343 . S
H584 C556 0.931 . S
H585 C558 0.930 . S
H586 C560 0.930 . S
H587 C561 0.931 . S
H588 C563 0.931 . S
H589 C565 0.930 . S
H590 C567 0.930 . S
H591 C568 0.931 . S
H592 C570 0.931 . S
H593 C572 0.930 . S
H594 C574 0.930 . S
H595 C575 0.931 . S
H596 C577 0.931 . S
H597 C579 0.930 . S
H598 C581 0.930 . S
H599 C582 0.931 . S
N600 C562 1.343 . S
N600 C583 1.343 . S
N601 C569 1.343 . S
N601 C576 1.343 . S
C602 C603 1.384 . S
C602 C604 1.384 . S
C602 H630 0.931 . S
C603 C602 1.384 . S
C603 C606 1.382 . S
C604 C602 1.384 . S
C604 C605 1.381 . S
C604 H631 0.930 . S
C605 C604 1.381 . S
C605 C607 1.381 . S
C605 C608 1.487 . S
C606 C603 1.382 . S
C606 C607 1.387 . S
C606 H632 0.930 . S
C607 C605 1.381 . S
C607 C606 1.387 . S
C607 H633 0.931 . S
C608 C605 1.487 . S
C608 C615 1.399 . S
C608 N646 1.343 . S
C609 C610 1.384 . S
C609 C611 1.384 . S
C609 H634 0.931 . S
C610 C609 1.384 . S
C610 C613 1.382 . S
C611 C609 1.384 . S
C611 C612 1.381 . S
C611 H635 0.930 . S
C612 C611 1.381 . S
C612 C614 1.381 . S
C612 C615 1.487 . S
C613 C610 1.382 . S
C613 C614 1.387 . S
C613 H636 0.930 . S
C614 C612 1.381 . S
C614 C613 1.387 . S
C614 H637 0.931 . S
C615 C608 1.399 . S
C615 C612 1.487 . S
C615 N647 1.343 . S
C616 C617 1.384 . S
C616 C618 1.384 . S
C616 H638 0.931 . S
C617 C616 1.384 . S
C617 C620 1.382 . S
C618 C616 1.384 . S
C618 C619 1.381 . S
C618 H639 0.930 . S
C619 C618 1.381 . S
C619 C621 1.381 . S
C619 C622 1.487 . S
C620 C617 1.382 . S
C620 C621 1.387 . S
C620 H640 0.930 . S
C621 C619 1.381 . S
C621 C620 1.387 . S
C621 H641 0.931 . S
C622 C619 1.487 . S
C622 C629 1.399 . S
C622 N647 1.343 . S
C623 C624 1.384 . S
C623 C625 1.384 . S
C623 H642 0.931 . S
C624 C623 1.384 . S
C624 C627 1.382 . S
C625 C623 1.384 . S
C625 C626 1.381 . S
C625 H643 0.930 . S
C626 C625 1.381 . S
C626 C628 1.381 . S
C626 C629 1.487 . S
C627 C624 1.382 . S
C627 C628 1.387 . S
C627 H644 0.930 . S
C628 C626 1.381 . S
C628 C627 1.387 . S
C628 H645 0.931 . S
C629 C622 1.399 . S
C629 C626 1.487 . S
C629 N646 1.343 . S
H630 C602 0.931 . S
H631 C604 0.930 . S
H632 C606 0.930 . S
H633 C607 0.931 . S
H634 C609 0.931 . S
H635 C611 0.930 . S
H636 C613 0.930 . S
H637 C614 0.931 . S
H638 C616 0.931 . S
H639 C618 0.930 . S
H640 C620 0.930 . S
H641 C621 0.931 . S
H642 C623 0.931 . S
H643 C625 0.930 . S
H644 C627 0.930 . S
H645 C628 0.931 . S
N646 C608 1.343 . S
N646 C629 1.343 . S
N647 C615 1.343 . S
N647 C622 1.343 . S
C648 C649 1.384 . S
C648 C650 1.384 . S
C648 H676 0.931 . S
C649 C648 1.384 . S
C649 C652 1.382 1_655 S
C650 C648 1.384 . S
C650 C651 1.429 . S
C650 H677 0.930 . S
C651 C650 1.429 . S
C651 C653 1.358 1_655 S
C651 C654 1.466 1_655 S
C652 C649 1.382 1_455 S
C652 C653 1.387 . S
C652 H678 0.930 . S
C653 C651 1.358 1_455 S
C653 C652 1.387 . S
C653 H679 0.931 . S
C654 C651 1.466 1_455 S
C654 C661 1.399 1_455 S
C654 N692 1.341 . S
C655 C656 1.384 . S
C655 C657 1.384 . S
C655 H680 0.931 . S
C656 C655 1.384 . S
C656 C659 1.382 1_455 S
C657 C655 1.384 . S
C657 C658 1.379 1_455 S
C657 H681 0.930 . S
C658 C657 1.379 1_655 S
C658 C660 1.389 . S
C658 C661 1.493 . S
C659 C656 1.382 1_655 S
C659 C660 1.387 . S
C659 H682 0.930 . S
C660 C658 1.389 . S
C660 C659 1.387 . S
C660 H683 0.931 . S
C661 C654 1.399 1_655 S
C661 C658 1.493 . S
C661 N693 1.357 . S
C662 C663 1.384 . S
C662 C664 1.384 . S
C662 H684 0.931 . S
C663 C662 1.384 . S
C663 C666 1.382 1_455 S
C664 C662 1.384 . S
C664 C665 1.444 . S
C664 H685 0.930 . S
C665 C664 1.444 . S
C665 C667 1.351 1_455 S
C665 C668 1.459 . S
C666 C663 1.382 1_655 S
C666 C667 1.387 . S
C666 H686 0.930 . S
C667 C665 1.351 1_655 S
C667 C666 1.387 . S
C667 H687 0.931 . S
C668 C665 1.459 . S
C668 C675 1.399 . S
C668 N693 1.313 1_455 S
C669 C670 1.384 . S
C669 C671 1.384 . S
C669 H688 0.931 . S
C670 C669 1.384 . S
C670 C673 1.382 1_655 S
C671 C669 1.384 . S
C671 C672 1.377 1_655 S
C671 H689 0.930 . S
C672 C671 1.377 1_455 S
C672 C674 1.398 . S
C672 C675 1.493 . S
C673 C670 1.382 1_455 S
C673 C674 1.387 . S
C673 H690 0.930 . S
C674 C672 1.398 . S
C674 C673 1.387 . S
C674 H691 0.931 . S
C675 C668 1.399 . S
C675 C672 1.493 . S
C675 N692 1.325 . S
H676 C648 0.931 . S
H677 C650 0.930 . S
H678 C652 0.930 . S
H679 C653 0.931 . S
H680 C655 0.931 . S
H681 C657 0.930 . S
H682 C659 0.930 . S
H683 C660 0.931 . S
H684 C662 0.931 . S
H685 C664 0.930 . S
H686 C666 0.930 . S
H687 C667 0.931 . S
H688 C669 0.931 . S
H689 C671 0.930 . S
H690 C673 0.930 . S
H691 C674 0.931 . S
N692 C654 1.341 . S
N692 C675 1.325 . S
N693 C661 1.357 . S
N693 C668 1.313 1_655 S
C694 C695 1.384 . S
C694 C696 1.384 . S
C694 H722 0.931 . S
C695 C694 1.384 . S
C695 C698 1.382 . S
C696 C694 1.384 . S
C696 C697 1.381 . S
C696 H723 0.930 . S
C697 C696 1.381 . S
C697 C699 1.381 . S
C697 C700 1.487 . S
C698 C695 1.382 . S
C698 C699 1.387 . S
C698 H724 0.930 . S
C699 C697 1.381 . S
C699 C698 1.387 . S
C699 H725 0.931 . S
C700 C697 1.487 . S
C700 C707 1.399 . S
C700 N738 1.343 . S
C701 C702 1.384 . S
C701 C703 1.384 . S
C701 H726 0.931 . S
C702 C701 1.384 . S
C702 C705 1.382 . S
C703 C701 1.384 . S
C703 C704 1.381 . S
C703 H727 0.930 . S
C704 C703 1.381 . S
C704 C706 1.381 . S
C704 C707 1.487 . S
C705 C702 1.382 . S
C705 C706 1.387 . S
C705 H728 0.930 . S
C706 C704 1.381 . S
C706 C705 1.387 . S
C706 H729 0.931 . S
C707 C700 1.399 . S
C707 C704 1.487 . S
C707 N739 1.343 . S
C708 C709 1.384 . S
C708 C710 1.384 . S
C708 H730 0.931 . S
C709 C708 1.384 . S
C709 C712 1.382 . S
C710 C708 1.384 . S
C710 C711 1.381 . S
C710 H731 0.930 . S
C711 C710 1.381 . S
C711 C713 1.381 . S
C711 C714 1.487 . S
C712 C709 1.382 . S
C712 C713 1.387 . S
C712 H732 0.930 . S
C713 C711 1.381 . S
C713 C712 1.387 . S
C713 H733 0.931 . S
C714 C711 1.487 . S
C714 C721 1.399 . S
C714 N739 1.343 . S
C715 C716 1.384 . S
C715 C717 1.384 . S
C715 H734 0.931 . S
C716 C715 1.384 . S
C716 C719 1.382 . S
C717 C715 1.384 . S
C717 C718 1.381 . S
C717 H735 0.930 . S
C718 C717 1.381 . S
C718 C720 1.381 . S
C718 C721 1.487 . S
C719 C716 1.382 . S
C719 C720 1.387 . S
C719 H736 0.930 . S
C720 C718 1.381 . S
C720 C719 1.387 . S
C720 H737 0.931 . S
C721 C714 1.399 . S
C721 C718 1.487 . S
C721 N738 1.343 . S
H722 C694 0.931 . S
H723 C696 0.930 . S
H724 C698 0.930 . S
H725 C699 0.931 . S
H726 C701 0.931 . S
H727 C703 0.930 . S
H728 C705 0.930 . S
H729 C706 0.931 . S
H730 C708 0.931 . S
H731 C710 0.930 . S
H732 C712 0.930 . S
H733 C713 0.931 . S
H734 C715 0.931 . S
H735 C717 0.930 . S
H736 C719 0.930 . S
H737 C720 0.931 . S
N738 C700 1.343 . S
N738 C721 1.343 . S
N739 C707 1.343 . S
N739 C714 1.343 . S
C740 C741 1.384 1_545 S
C740 C742 1.384 . S
C740 H768 0.931 . S
C741 C740 1.384 1_565 S
C741 C744 1.382 . S
C742 C740 1.384 . S
C742 C743 1.381 1_545 S
C742 H769 0.930 . S
C743 C742 1.381 1_565 S
C743 C745 1.381 . S
C743 C746 1.487 . S
C744 C741 1.382 . S
C744 C745 1.387 . S
C744 H770 0.930 . S
C745 C743 1.381 . S
C745 C744 1.387 . S
C745 H771 0.931 . S
C746 C743 1.487 . S
C746 C753 1.399 1_565 S
C746 N784 1.343 . S
C747 C748 1.384 1_565 S
C747 C749 1.384 . S
C747 H772 0.931 . S
C748 C747 1.384 1_545 S
C748 C751 1.382 . S
C749 C747 1.384 . S
C749 C750 1.381 1_565 S
C749 H773 0.930 . S
C750 C749 1.381 1_545 S
C750 C752 1.381 . S
C750 C753 1.487 . S
C751 C748 1.382 . S
C751 C752 1.387 . S
C751 H774 0.930 . S
C752 C750 1.381 . S
C752 C751 1.387 . S
C752 H775 0.931 . S
C753 C746 1.399 1_545 S
C753 C750 1.487 . S
C753 N785 1.343 . S
C754 C755 1.384 1_565 S
C754 C756 1.384 . S
C754 H776 0.931 . S
C755 C754 1.384 1_545 S
C755 C758 1.382 . S
C756 C754 1.384 . S
C756 C757 1.381 1_565 S
C756 H777 0.930 . S
C757 C756 1.381 1_545 S
C757 C759 1.381 . S
C757 C760 1.487 . S
C758 C755 1.382 . S
C758 C759 1.387 . S
C758 H778 0.930 . S
C759 C757 1.381 . S
C759 C758 1.387 . S
C759 H779 0.931 . S
C760 C757 1.487 . S
C760 C767 1.399 1_545 S
C760 N785 1.343 . S
C761 C762 1.384 1_545 S
C761 C763 1.384 . S
C761 H780 0.931 . S
C762 C761 1.384 1_565 S
C762 C765 1.382 . S
C763 C761 1.384 . S
C763 C764 1.381 1_545 S
C763 H781 0.930 . S
C764 C763 1.381 1_565 S
C764 C766 1.381 . S
C764 C767 1.487 . S
C765 C762 1.382 . S
C765 C766 1.387 . S
C765 H782 0.930 . S
C766 C764 1.381 . S
C766 C765 1.387 . S
C766 H783 0.931 . S
C767 C760 1.399 1_565 S
C767 C764 1.487 . S
C767 N784 1.343 . S
H768 C740 0.931 . S
H769 C742 0.930 . S
H770 C744 0.930 . S
H771 C745 0.931 . S
H772 C747 0.931 . S
H773 C749 0.930 . S
H774 C751 0.930 . S
H775 C752 0.931 . S
H776 C754 0.931 . S
H777 C756 0.930 . S
H778 C758 0.930 . S
H779 C759 0.931 . S
H780 C761 0.931 . S
H781 C763 0.930 . S
H782 C765 0.930 . S
H783 C766 0.931 . S
N784 C746 1.343 . S
N784 C767 1.343 . S
N785 C753 1.343 . S
N785 C760 1.343 . S
C786 C787 1.384 . S
C786 C788 1.384 . S
C786 H814 0.931 . S
C787 C786 1.384 . S
C787 C790 1.382 1_545 S
C788 C786 1.384 . S
C788 C789 1.381 1_545 S
C788 H815 0.930 . S
C789 C788 1.381 1_565 S
C789 C791 1.383 . S
C789 C792 1.495 . S
C790 C787 1.382 1_565 S
C790 C791 1.387 . S
C790 H816 0.930 . S
C791 C789 1.383 . S
C791 C790 1.387 . S
C791 H817 0.931 . S
C792 C789 1.495 . S
C792 C799 1.399 1_565 S
C792 N830 1.360 . S
C793 C794 1.384 . S
C793 C795 1.384 . S
C793 H818 0.931 . S
C794 C793 1.384 . S
C794 C797 1.382 1_565 S
C795 C793 1.384 . S
C795 C796 1.419 . S
C795 H819 0.930 . S
C796 C795 1.419 . S
C796 C798 1.364 1_565 S
C796 C799 1.468 1_565 S
C797 C794 1.382 1_545 S
C797 C798 1.387 . S
C797 H820 0.930 . S
C798 C796 1.364 1_545 S
C798 C797 1.387 . S
C798 H821 0.931 . S
C799 C792 1.399 1_545 S
C799 C796 1.468 1_545 S
C799 N831 1.344 . S
C800 C801 1.384 . S
C800 C802 1.384 . S
C800 H822 0.931 . S
C801 C800 1.384 . S
C801 C804 1.382 1_565 S
C802 C800 1.384 . S
C802 C803 1.379 1_565 S
C802 H823 0.930 . S
C803 C802 1.379 1_545 S
C803 C805 1.391 . S
C803 C806 1.495 . S
C804 C801 1.382 1_545 S
C804 C805 1.387 . S
C804 H824 0.930 . S
C805 C803 1.391 . S
C805 C804 1.387 . S
C805 H825 0.931 . S
C806 C803 1.495 . S
C806 C813 1.400 . S
C806 N831 1.326 . S
C807 C808 1.384 . S
C807 C809 1.384 . S
C807 H826 0.931 . S
C808 C807 1.384 . S
C808 C811 1.382 1_545 S
C809 C807 1.384 . S
C809 C810 1.434 . S
C809 H827 0.930 . S
C810 C809 1.434 . S
C810 C812 1.357 1_545 S
C810 C813 1.461 . S
C811 C808 1.382 1_565 S
C811 C812 1.387 . S
C811 H828 0.930 . S
C812 C810 1.357 1_565 S
C812 C811 1.387 . S
C812 H829 0.931 . S
C813 C806 1.400 . S
C813 C810 1.461 . S
C813 N830 1.317 1_545 S
H814 C786 0.931 . S
H815 C788 0.930 . S
H816 C790 0.930 . S
H817 C791 0.931 . S
H818 C793 0.931 . S
H819 C795 0.930 . S
H820 C797 0.930 . S
H821 C798 0.931 . S
H822 C800 0.931 . S
H823 C802 0.930 . S
H824 C804 0.930 . S
H825 C805 0.931 . S
H826 C807 0.931 . S
H827 C809 0.930 . S
H828 C811 0.930 . S
H829 C812 0.931 . S
N830 C792 1.360 . S
N830 C813 1.317 1_565 S
N831 C799 1.344 . S
N831 C806 1.326 . S
C832 C833 1.384 . S
C832 C834 1.384 . S
C832 H860 0.931 . S
C833 C832 1.384 . S
C833 C836 1.382 1_655 S
C834 C832 1.384 . S
C834 C835 1.381 . S
C834 H861 0.930 . S
C835 C834 1.381 . S
C835 C837 1.381 1_655 S
C835 C838 1.492 . S
C836 C833 1.382 1_455 S
C836 C837 1.387 . S
C836 H862 0.930 . S
C837 C835 1.381 1_455 S
C837 C836 1.387 . S
C837 H863 0.931 . S
C838 C835 1.492 . S
C838 C845 1.399 . S
C838 N876 1.316 1_655 S
C839 C840 1.384 . S
C839 C841 1.384 . S
C839 H864 0.931 . S
C840 C839 1.384 . S
C840 C843 1.382 1_455 S
C841 C839 1.384 . S
C841 C842 1.379 1_455 S
C841 H865 0.930 . S
C842 C841 1.379 1_655 S
C842 C844 1.389 . S
C842 C845 1.496 . S
C843 C840 1.382 1_655 S
C843 C844 1.387 . S
C843 H866 0.930 . S
C844 C842 1.389 . S
C844 C843 1.387 . S
C844 H867 0.931 . S
C845 C838 1.399 . S
C845 C842 1.496 . S
C845 N877 1.354 . S
C846 C847 1.384 . S
C846 C848 1.384 . S
C846 H868 0.931 . S
C847 C846 1.384 . S
C847 C850 1.382 1_455 S
C848 C846 1.384 . S
C848 C849 1.443 . S
C848 H869 0.930 . S
C849 C848 1.443 . S
C849 C851 1.352 1_455 S
C849 C852 1.455 . S
C850 C847 1.382 1_655 S
C850 C851 1.387 . S
C850 H870 0.930 . S
C851 C849 1.352 1_655 S
C851 C850 1.387 . S
C851 H871 0.931 . S
C852 C849 1.455 . S
C852 C859 1.399 . S
C852 N877 1.316 1_455 S
C853 C854 1.384 . S
C853 C855 1.384 . S
C853 H872 0.931 . S
C854 C853 1.384 . S
C854 C857 1.382 1_655 S
C855 C853 1.384 . S
C855 C856 1.381 1_655 S
C855 H873 0.930 . S
C856 C855 1.381 1_455 S
C856 C858 1.381 . S
C856 C859 1.496 . S
C857 C854 1.382 1_455 S
C857 C858 1.387 . S
C857 H874 0.930 . S
C858 C856 1.381 . S
C858 C857 1.387 . S
C858 H875 0.931 . S
C859 C852 1.399 . S
C859 C856 1.496 . S
C859 N876 1.354 . S
H860 C832 0.931 . S
H861 C834 0.930 . S
H862 C836 0.930 . S
H863 C837 0.931 . S
H864 C839 0.931 . S
H865 C841 0.930 . S
H866 C843 0.930 . S
H867 C844 0.931 . S
H868 C846 0.931 . S
H869 C848 0.930 . S
H870 C850 0.930 . S
H871 C851 0.931 . S
H872 C853 0.931 . S
H873 C855 0.930 . S
H874 C857 0.930 . S
H875 C858 0.931 . S
N876 C838 1.316 1_455 S
N876 C859 1.354 . S
N877 C845 1.354 . S
N877 C852 1.316 1_655 S
C878 C879 1.384 . S
C878 C880 1.384 . S
C878 H906 0.931 . S
C879 C878 1.384 . S
C879 C882 1.382 . S
C880 C878 1.384 . S
C880 C881 1.381 . S
C880 H907 0.930 . S
C881 C880 1.381 . S
C881 C883 1.381 . S
C881 C884 1.487 . S
C882 C879 1.382 . S
C882 C883 1.387 . S
C882 H908 0.930 . S
C883 C881 1.381 . S
C883 C882 1.387 . S
C883 H909 0.931 . S
C884 C881 1.487 . S
C884 C891 1.399 . S
C884 N922 1.343 . S
C885 C886 1.384 . S
C885 C887 1.384 . S
C885 H910 0.931 . S
C886 C885 1.384 . S
C886 C889 1.382 . S
C887 C885 1.384 . S
C887 C888 1.381 . S
C887 H911 0.930 . S
C888 C887 1.381 . S
C888 C890 1.381 . S
C888 C891 1.487 . S
C889 C886 1.382 . S
C889 C890 1.387 . S
C889 H912 0.930 . S
C890 C888 1.381 . S
C890 C889 1.387 . S
C890 H913 0.931 . S
C891 C884 1.399 . S
C891 C888 1.487 . S
C891 N923 1.343 . S
C892 C893 1.384 . S
C892 C894 1.384 . S
C892 H914 0.931 . S
C893 C892 1.384 . S
C893 C896 1.382 . S
C894 C892 1.384 . S
C894 C895 1.381 . S
C894 H915 0.930 . S
C895 C894 1.381 . S
C895 C897 1.381 . S
C895 C898 1.487 . S
C896 C893 1.382 . S
C896 C897 1.387 . S
C896 H916 0.930 . S
C897 C895 1.381 . S
C897 C896 1.387 . S
C897 H917 0.931 . S
C898 C895 1.487 . S
C898 C905 1.399 . S
C898 N923 1.343 . S
C899 C900 1.384 . S
C899 C901 1.384 . S
C899 H918 0.931 . S
C900 C899 1.384 . S
C900 C903 1.382 . S
C901 C899 1.384 . S
C901 C902 1.381 . S
C901 H919 0.930 . S
C902 C901 1.381 . S
C902 C904 1.381 . S
C902 C905 1.487 . S
C903 C900 1.382 . S
C903 C904 1.387 . S
C903 H920 0.930 . S
C904 C902 1.381 . S
C904 C903 1.387 . S
C904 H921 0.931 . S
C905 C898 1.399 . S
C905 C902 1.487 . S
C905 N922 1.343 . S
H906 C878 0.931 . S
H907 C880 0.930 . S
H908 C882 0.930 . S
H909 C883 0.931 . S
H910 C885 0.931 . S
H911 C887 0.930 . S
H912 C889 0.930 . S
H913 C890 0.931 . S
H914 C892 0.931 . S
H915 C894 0.930 . S
H916 C896 0.930 . S
H917 C897 0.931 . S
H918 C899 0.931 . S
H919 C901 0.930 . S
H920 C903 0.930 . S
H921 C904 0.931 . S
N922 C884 1.343 . S
N922 C905 1.343 . S
N923 C891 1.343 . S
N923 C898 1.343 . S
C924 C925 1.384 . S
C924 C926 1.384 . S
C924 H952 0.931 . S
C925 C924 1.384 . S
C925 C928 1.382 . S
C926 C924 1.384 . S
C926 C927 1.381 . S
C926 H953 0.930 . S
C927 C926 1.381 . S
C927 C929 1.381 . S
C927 C930 1.487 . S
C928 C925 1.382 . S
C928 C929 1.387 . S
C928 H954 0.930 . S
C929 C927 1.381 . S
C929 C928 1.387 . S
C929 H955 0.931 . S
C930 C927 1.487 . S
C930 C937 1.399 . S
C930 N968 1.343 . S
C931 C932 1.384 . S
C931 C933 1.384 . S
C931 H956 0.931 . S
C932 C931 1.384 . S
C932 C935 1.382 . S
C933 C931 1.384 . S
C933 C934 1.381 . S
C933 H957 0.930 . S
C934 C933 1.381 . S
C934 C936 1.381 . S
C934 C937 1.487 . S
C935 C932 1.382 . S
C935 C936 1.387 . S
C935 H958 0.930 . S
C936 C934 1.381 . S
C936 C935 1.387 . S
C936 H959 0.931 . S
C937 C930 1.399 . S
C937 C934 1.487 . S
C937 N969 1.343 . S
C938 C939 1.384 . S
C938 C940 1.384 . S
C938 H960 0.931 . S
C939 C938 1.384 . S
C939 C942 1.382 . S
C940 C938 1.384 . S
C940 C941 1.381 . S
C940 H961 0.930 . S
C941 C940 1.381 . S
C941 C943 1.381 . S
C941 C944 1.487 . S
C942 C939 1.382 . S
C942 C943 1.387 . S
C942 H962 0.930 . S
C943 C941 1.381 . S
C943 C942 1.387 . S
C943 H963 0.931 . S
C944 C941 1.487 . S
C944 C951 1.399 . S
C944 N969 1.343 . S
C945 C946 1.384 . S
C945 C947 1.384 . S
C945 H964 0.931 . S
C946 C945 1.384 . S
C946 C949 1.382 . S
C947 C945 1.384 . S
C947 C948 1.381 . S
C947 H965 0.930 . S
C948 C947 1.381 . S
C948 C950 1.381 . S
C948 C951 1.487 . S
C949 C946 1.382 . S
C949 C950 1.387 . S
C949 H966 0.930 . S
C950 C948 1.381 . S
C950 C949 1.387 . S
C950 H967 0.931 . S
C951 C944 1.399 . S
C951 C948 1.487 . S
C951 N968 1.343 . S
H952 C924 0.931 . S
H953 C926 0.930 . S
H954 C928 0.930 . S
H955 C929 0.931 . S
H956 C931 0.931 . S
H957 C933 0.930 . S
H958 C935 0.930 . S
H959 C936 0.931 . S
H960 C938 0.931 . S
H961 C940 0.930 . S
H962 C942 0.930 . S
H963 C943 0.931 . S
H964 C945 0.931 . S
H965 C947 0.930 . S
H966 C949 0.930 . S
H967 C950 0.931 . S
N968 C930 1.343 . S
N968 C951 1.343 . S
N969 C937 1.343 . S
N969 C944 1.343 . S
C970 C971 1.384 . S
C970 C972 1.384 . S
C970 H998 0.931 . S
C971 C970 1.384 . S
C971 C974 1.382 . S
C972 C970 1.384 . S
C972 C973 1.381 . S
C972 H999 0.930 . S
C973 C972 1.381 . S
C973 C975 1.381 . S
C973 C976 1.487 . S
C974 C971 1.382 . S
C974 C975 1.387 . S
C974 H1000 0.930 . S
C975 C973 1.381 . S
C975 C974 1.387 . S
C975 H1001 0.931 . S
C976 C973 1.487 . S
C976 C983 1.399 . S
C976 N1014 1.343 . S
C977 C978 1.384 . S
C977 C979 1.384 . S
C977 H1002 0.931 . S
C978 C977 1.384 . S
C978 C981 1.382 . S
C979 C977 1.384 . S
C979 C980 1.381 . S
C979 H1003 0.930 . S
C980 C979 1.381 . S
C980 C982 1.381 . S
C980 C983 1.487 . S
C981 C978 1.382 . S
C981 C982 1.387 . S
C981 H1004 0.930 . S
C982 C980 1.381 . S
C982 C981 1.387 . S
C982 H1005 0.931 . S
C983 C976 1.399 . S
C983 C980 1.487 . S
C983 N1015 1.343 . S
C984 C985 1.384 . S
C984 C986 1.384 . S
C984 H1006 0.931 . S
C985 C984 1.384 . S
C985 C988 1.382 . S
C986 C984 1.384 . S
C986 C987 1.381 . S
C986 H1007 0.930 . S
C987 C986 1.381 . S
C987 C989 1.381 . S
C987 C990 1.487 . S
C988 C985 1.382 . S
C988 C989 1.387 . S
C988 H1008 0.930 . S
C989 C987 1.381 . S
C989 C988 1.387 . S
C989 H1009 0.931 . S
C990 C987 1.487 . S
C990 C997 1.399 . S
C990 N1015 1.343 . S
C991 C992 1.384 . S
C991 C993 1.384 . S
C991 H1010 0.931 . S
C992 C991 1.384 . S
C992 C995 1.382 . S
C993 C991 1.384 . S
C993 C994 1.381 . S
C993 H1011 0.930 . S
C994 C993 1.381 . S
C994 C996 1.381 . S
C994 C997 1.487 . S
C995 C992 1.382 . S
C995 C996 1.387 . S
C995 H1012 0.930 . S
C996 C994 1.381 . S
C996 C995 1.387 . S
C996 H1013 0.931 . S
C997 C990 1.399 . S
C997 C994 1.487 . S
C997 N1014 1.343 . S
H998 C970 0.931 . S
H999 C972 0.930 . S
H1000 C974 0.930 . S
H1001 C975 0.931 . S
H1002 C977 0.931 . S
H1003 C979 0.930 . S
H1004 C981 0.930 . S
H1005 C982 0.931 . S
H1006 C984 0.931 . S
H1007 C986 0.930 . S
H1008 C988 0.930 . S
H1009 C989 0.931 . S
H1010 C991 0.931 . S
H1011 C993 0.930 . S
H1012 C995 0.930 . S
H1013 C996 0.931 . S
N1014 C976 1.343 . S
N1014 C997 1.343 . S
N1015 C983 1.343 . S
N1015 C990 1.343 . S
C1016 C1017 1.384 . S
C1016 C1018 1.384 . S
C1016 H1044 0.931 . S
C1017 C1016 1.384 . S
C1017 C1020 1.382 . S
C1018 C1016 1.384 . S
C1018 C1019 1.381 . S
C1018 H1045 0.930 . S
C1019 C1018 1.381 . S
C1019 C1021 1.381 . S
C1019 C1022 1.487 . S
C1020 C1017 1.382 . S
C1020 C1021 1.387 . S
C1020 H1046 0.930 . S
C1021 C1019 1.381 . S
C1021 C1020 1.387 . S
C1021 H1047 0.931 . S
C1022 C1019 1.487 . S
C1022 C1029 1.399 . S
C1022 N1060 1.343 . S
C1023 C1024 1.384 . S
C1023 C1025 1.384 . S
C1023 H1048 0.931 . S
C1024 C1023 1.384 . S
C1024 C1027 1.382 . S
C1025 C1023 1.384 . S
C1025 C1026 1.381 . S
C1025 H1049 0.930 . S
C1026 C1025 1.381 . S
C1026 C1028 1.381 . S
C1026 C1029 1.487 . S
C1027 C1024 1.382 . S
C1027 C1028 1.387 . S
C1027 H1050 0.930 . S
C1028 C1026 1.381 . S
C1028 C1027 1.387 . S
C1028 H1051 0.931 . S
C1029 C1022 1.399 . S
C1029 C1026 1.487 . S
C1029 N1061 1.343 . S
C1030 C1031 1.384 . S
C1030 C1032 1.384 . S
C1030 H1052 0.931 . S
C1031 C1030 1.384 . S
C1031 C1034 1.382 . S
C1032 C1030 1.384 . S
C1032 C1033 1.381 . S
C1032 H1053 0.930 . S
C1033 C1032 1.381 . S
C1033 C1035 1.381 . S
C1033 C1036 1.487 . S
C1034 C1031 1.382 . S
C1034 C1035 1.387 . S
C1034 H1054 0.930 . S
C1035 C1033 1.381 . S
C1035 C1034 1.387 . S
C1035 H1055 0.931 . S
C1036 C1033 1.487 . S
C1036 C1043 1.399 . S
C1036 N1061 1.343 . S
C1037 C1038 1.384 . S
C1037 C1039 1.384 . S
C1037 H1056 0.931 . S
C1038 C1037 1.384 . S
C1038 C1041 1.382 . S
C1039 C1037 1.384 . S
C1039 C1040 1.381 . S
C1039 H1057 0.930 . S
C1040 C1039 1.381 . S
C1040 C1042 1.381 . S
C1040 C1043 1.487 . S
C1041 C1038 1.382 . S
C1041 C1042 1.387 . S
C1041 H1058 0.930 . S
C1042 C1040 1.381 . S
C1042 C1041 1.387 . S
C1042 H1059 0.931 . S
C1043 C1036 1.399 . S
C1043 C1040 1.487 . S
C1043 N1060 1.343 . S
H1044 C1016 0.931 . S
H1045 C1018 0.930 . S
H1046 C1020 0.930 . S
H1047 C1021 0.931 . S
H1048 C1023 0.931 . S
H1049 C1025 0.930 . S
H1050 C1027 0.930 . S
H1051 C1028 0.931 . S
H1052 C1030 0.931 . S
H1053 C1032 0.930 . S
H1054 C1034 0.930 . S
H1055 C1035 0.931 . S
H1056 C1037 0.931 . S
H1057 C1039 0.930 . S
H1058 C1041 0.930 . S
H1059 C1042 0.931 . S
N1060 C1022 1.343 . S
N1060 C1043 1.343 . S
N1061 C1029 1.343 . S
N1061 C1036 1.343 . S
H1062 C1068 0.930 . S
H1063 C1071 0.930 . S
H1064 C1072 0.930 . S
H1065 C1073 0.967 . S
H1066 C1076 0.930 . S
H1067 C1077 0.930 . S
C1068 H1062 0.930 . S
C1068 C1069 1.355 . S
C1068 C1070 1.415 . S
C1069 C1068 1.355 . S
C1069 C1071 1.419 1_655 S
C1070 C1068 1.415 . S
C1070 C1075 1.425 . S
C1070 C1077 1.409 . S
C1071 H1063 0.930 . S
C1071 C1069 1.419 1_455 S
C1071 C1072 1.362 . S
C1072 H1064 0.930 . S
C1072 C1071 1.362 . S
C1072 C1075 1.409 1_455 S
C1073 H1065 0.967 . S
C1073 C1074 1.304 1_455 S
C1073 C1075 1.433 1_455 S
C1074 C1073 1.304 1_655 S
C1074 C1076 1.419 . S
C1075 C1070 1.425 . S
C1075 C1072 1.409 1_655 S
C1075 C1073 1.433 1_655 S
C1076 H1066 0.930 . S
C1076 C1074 1.419 . S
C1076 C1077 1.362 . S
C1077 H1067 0.930 . S
C1077 C1070 1.409 . S
C1077 C1076 1.362 . S
H1078 C1084 0.930 . S
H1079 C1087 0.930 . S
H1080 C1088 0.930 . S
H1081 C1089 0.930 . S
H1082 C1092 0.930 . S
H1083 C1093 0.930 . S
C1084 H1078 0.930 . S
C1084 C1085 1.355 . S
C1084 C1086 1.415 . S
C1085 C1084 1.355 . S
C1085 C1087 1.419 . S
C1086 C1084 1.415 . S
C1086 C1091 1.425 . S
C1086 C1093 1.409 . S
C1087 H1079 0.930 . S
C1087 C1085 1.419 . S
C1087 C1088 1.362 . S
C1088 H1080 0.930 . S
C1088 C1087 1.362 . S
C1088 C1091 1.409 . S
C1089 H1081 0.930 . S
C1089 C1090 1.355 . S
C1089 C1091 1.415 . S
C1090 C1089 1.355 . S
C1090 C1092 1.419 . S
C1091 C1086 1.425 . S
C1091 C1088 1.409 . S
C1091 C1089 1.415 . S
C1092 H1082 0.930 . S
C1092 C1090 1.419 . S
C1092 C1093 1.362 . S
C1093 H1083 0.930 . S
C1093 C1086 1.409 . S
C1093 C1092 1.362 . S
H1094 C1100 0.930 . S
H1095 C1103 0.930 . S
H1096 C1104 0.930 . S
H1097 C1105 0.943 . S
H1098 C1108 0.930 . S
H1099 C1109 0.930 . S
C1100 H1094 0.930 . S
C1100 C1101 1.355 . S
C1100 C1102 1.415 . S
C1101 C1100 1.355 . S
C1101 C1103 1.419 . S
C1102 C1100 1.415 . S
C1102 C1107 1.425 . S
C1102 C1109 1.409 . S
C1103 H1095 0.930 . S
C1103 C1101 1.419 . S
C1103 C1104 1.362 . S
C1104 H1096 0.930 . S
C1104 C1103 1.362 . S
C1104 C1107 1.409 . S
C1105 H1097 0.943 . S
C1105 C1106 1.355 . S
C1105 C1107 1.415 . S
C1106 C1105 1.355 . S
C1106 C1108 1.419 . S
C1107 C1102 1.425 . S
C1107 C1104 1.409 . S
C1107 C1105 1.415 . S
C1108 H1098 0.930 . S
C1108 C1106 1.419 . S
C1108 C1109 1.362 . S
C1109 H1099 0.930 . S
C1109 C1102 1.409 . S
C1109 C1108 1.362 . S
H1110 C1116 0.930 . S
H1111 C1119 0.930 . S
H1112 C1120 0.930 . S
H1113 C1121 0.930 . S
H1114 C1124 0.930 . S
H1115 C1125 0.930 . S
C1116 H1110 0.930 . S
C1116 C1117 1.355 1_545 S
C1116 C1118 1.415 . S
C1117 C1116 1.355 1_565 S
C1117 C1119 1.419 . S
C1118 C1116 1.415 . S
C1118 C1123 1.425 1_545 S
C1118 C1125 1.409 . S
C1119 H1111 0.930 . S
C1119 C1117 1.419 . S
C1119 C1120 1.362 . S
C1120 H1112 0.930 . S
C1120 C1119 1.362 . S
C1120 C1123 1.409 . S
C1121 H1113 0.930 . S
C1121 C1122 1.375 . S
C1121 C1123 1.415 . S
C1122 C1121 1.375 . S
C1122 C1124 1.371 1_565 S
C1123 C1118 1.425 1_565 S
C1123 C1120 1.409 . S
C1123 C1121 1.415 . S
C1124 H1114 0.930 . S
C1124 C1122 1.371 1_545 S
C1124 C1125 1.362 . S
C1125 H1115 0.930 . S
C1125 C1118 1.409 . S
C1125 C1124 1.362 . S
H1126 C1132 0.930 . S
H1127 C1135 0.930 . S
H1128 C1136 0.930 . S
H1129 C1137 0.930 . S
H1130 C1140 0.930 . S
H1131 C1141 0.930 . S
C1132 H1126 0.930 . S
C1132 C1133 1.355 . S
C1132 C1134 1.415 . S
C1133 C1132 1.355 . S
C1133 C1135 1.419 . S
C1134 C1132 1.415 . S
C1134 C1139 1.425 . S
C1134 C1141 1.409 . S
C1135 H1127 0.930 . S
C1135 C1133 1.419 . S
C1135 C1136 1.362 . S
C1136 H1128 0.930 . S
C1136 C1135 1.362 . S
C1136 C1139 1.409 . S
C1137 H1129 0.930 . S
C1137 C1138 1.355 . S
C1137 C1139 1.415 . S
C1138 C1137 1.355 . S
C1138 C1140 1.419 . S
C1139 C1134 1.425 . S
C1139 C1136 1.409 . S
C1139 C1137 1.415 . S
C1140 H1130 0.930 . S
C1140 C1138 1.419 . S
C1140 C1141 1.362 . S
C1141 H1131 0.930 . S
C1141 C1134 1.409 . S
C1141 C1140 1.362 . S
H1142 C1148 0.930 . S
H1143 C1151 0.930 . S
H1144 C1152 0.930 . S
H1145 C1153 0.930 . S
H1146 C1156 0.930 . S
H1147 C1157 0.930 . S
C1148 H1142 0.930 . S
C1148 C1149 1.355 . S
C1148 C1150 1.415 . S
C1149 C1148 1.355 . S
C1149 C1151 1.419 . S
C1150 C1148 1.415 . S
C1150 C1155 1.425 . S
C1150 C1157 1.409 . S
C1151 H1143 0.930 . S
C1151 C1149 1.419 . S
C1151 C1152 1.362 . S
C1152 H1144 0.930 . S
C1152 C1151 1.362 . S
C1152 C1155 1.409 . S
C1153 H1145 0.930 . S
C1153 C1154 1.355 . S
C1153 C1155 1.415 . S
C1154 C1153 1.355 . S
C1154 C1156 1.419 . S
C1155 C1150 1.425 . S
C1155 C1152 1.409 . S
C1155 C1153 1.415 . S
C1156 H1146 0.930 . S
C1156 C1154 1.419 . S
C1156 C1157 1.362 . S
C1157 H1147 0.930 . S
C1157 C1150 1.409 . S
C1157 C1156 1.362 . S
H1158 C1164 0.930 . S
H1159 C1167 0.930 . S
H1160 C1168 0.930 . S
H1161 C1169 0.930 . S
H1162 C1172 0.930 . S
H1163 C1173 0.930 . S
C1164 H1158 0.930 . S
C1164 C1165 1.355 . S
C1164 C1166 1.415 . S
C1165 C1164 1.355 . S
C1165 C1167 1.419 . S
C1166 C1164 1.415 . S
C1166 C1171 1.425 . S
C1166 C1173 1.409 1_455 S
C1167 H1159 0.930 . S
C1167 C1165 1.419 . S
C1167 C1168 1.362 . S
C1168 H1160 0.930 . S
C1168 C1167 1.362 . S
C1168 C1171 1.409 . S
C1169 H1161 0.930 . S
C1169 C1170 1.355 . S
C1169 C1171 1.415 . S
C1170 C1169 1.355 . S
C1170 C1172 1.419 1_455 S
C1171 C1166 1.425 . S
C1171 C1168 1.409 . S
C1171 C1169 1.415 . S
C1172 H1162 0.930 . S
C1172 C1170 1.419 1_655 S
C1172 C1173 1.362 . S
C1173 H1163 0.930 . S
C1173 C1166 1.409 1_655 S
C1173 C1172 1.362 . S
H1174 C1180 0.930 . S
H1175 C1183 0.930 . S
H1176 C1184 0.930 . S
H1177 C1185 0.930 . S
H1178 C1188 0.930 . S
H1179 C1189 0.930 . S
C1180 H1174 0.930 . S
C1180 C1181 1.355 . S
C1180 C1182 1.415 . S
C1181 C1180 1.355 . S
C1181 C1183 1.419 . S
C1182 C1180 1.415 . S
C1182 C1187 1.425 . S
C1182 C1189 1.409 . S
C1183 H1175 0.930 . S
C1183 C1181 1.419 . S
C1183 C1184 1.362 . S
C1184 H1176 0.930 . S
C1184 C1183 1.362 . S
C1184 C1187 1.409 . S
C1185 H1177 0.930 . S
C1185 C1186 1.355 . S
C1185 C1187 1.415 . S
C1186 C1185 1.355 . S
C1186 C1188 1.419 . S
C1187 C1182 1.425 . S
C1187 C1184 1.409 . S
C1187 C1185 1.415 . S
C1188 H1178 0.930 . S
C1188 C1186 1.419 . S
C1188 C1189 1.362 . S
C1189 H1179 0.930 . S
C1189 C1182 1.409 . S
C1189 C1188 1.362 . S
H1190 C1196 0.930 . S
H1191 C1199 0.930 . S
H1192 C1200 0.930 . S
H1193 C1201 0.930 . S
H1194 C1204 0.925 1_545 S
H1195 C1205 0.930 . S
C1196 H1190 0.930 . S
C1196 C1197 1.355 . S
C1196 C1198 1.415 . S
C1197 C1196 1.355 . S
C1197 C1199 1.419 . S
C1198 C1196 1.415 . S
C1198 C1203 1.425 . S
C1198 C1205 1.409 . S
C1199 H1191 0.930 . S
C1199 C1197 1.419 . S
C1199 C1200 1.362 . S
C1200 H1192 0.930 . S
C1200 C1199 1.362 . S
C1200 C1203 1.409 . S
C1201 H1193 0.930 . S
C1201 C1202 1.355 . S
C1201 C1203 1.415 . S
C1202 C1201 1.355 . S
C1202 C1204 1.419 . S
C1203 C1198 1.425 . S
C1203 C1200 1.409 . S
C1203 C1201 1.415 . S
C1204 H1194 0.925 1_565 S
C1204 C1202 1.419 . S
C1204 C1205 1.362 . S
C1205 H1195 0.930 . S
C1205 C1198 1.409 . S
C1205 C1204 1.362 . S
H1206 C1212 0.930 . S
H1207 C1215 0.930 . S
H1208 C1216 0.930 . S
H1209 C1217 0.930 . S
H1210 C1220 0.930 . S
H1211 C1221 0.930 . S
C1212 H1206 0.930 . S
C1212 C1213 1.355 . S
C1212 C1214 1.415 . S
C1213 C1212 1.355 . S
C1213 C1215 1.419 1_545 S
C1214 C1212 1.415 . S
C1214 C1219 1.395 1_545 S
C1214 C1221 1.409 . S
C1215 H1207 0.930 . S
C1215 C1213 1.419 1_565 S
C1215 C1216 1.362 . S
C1216 H1208 0.930 . S
C1216 C1215 1.362 . S
C1216 C1219 1.444 . S
C1217 H1209 0.930 . S
C1217 C1218 1.355 1_565 S
C1217 C1219 1.410 . S
C1218 C1217 1.355 1_545 S
C1218 C1220 1.419 . S
C1219 C1214 1.395 1_565 S
C1219 C1216 1.444 . S
C1219 C1217 1.410 . S
C1220 H1210 0.930 . S
C1220 C1218 1.419 . S
C1220 C1221 1.362 . S
C1221 H1211 0.930 . S
C1221 C1214 1.409 . S
C1221 C1220 1.362 . S
H1222 C1228 0.930 . S
H1223 C1231 0.930 . S
H1224 C1232 0.930 . S
H1225 C1233 0.930 . S
H1226 C1236 0.930 . S
H1227 C1237 0.930 . S
C1228 H1222 0.930 . S
C1228 C1229 1.355 . S
C1228 C1230 1.415 . S
C1229 C1228 1.355 . S
C1229 C1231 1.419 1_655 S
C1230 C1228 1.415 . S
C1230 C1235 1.425 1_655 S
C1230 C1237 1.409 . S
C1231 H1223 0.930 . S
C1231 C1229 1.419 1_455 S
C1231 C1232 1.362 . S
C1232 H1224 0.930 . S
C1232 C1231 1.362 . S
C1232 C1235 1.409 . S
C1233 H1225 0.930 . S
C1233 C1234 1.355 1_455 S
C1233 C1235 1.415 . S
C1234 C1233 1.355 1_655 S
C1234 C1236 1.419 . S
C1235 C1230 1.425 1_455 S
C1235 C1232 1.409 . S
C1235 C1233 1.415 . S
C1236 H1226 0.930 . S
C1236 C1234 1.419 . S
C1236 C1237 1.362 . S
C1237 H1227 0.930 . S
C1237 C1230 1.409 . S
C1237 C1236 1.362 . S
H1238 C1244 0.930 . S
H1239 C1247 0.930 . S
H1240 C1248 0.930 . S
H1241 C1249 0.930 . S
H1242 C1252 0.930 . S
H1243 C1253 0.930 . S
C1244 H1238 0.930 . S
C1244 C1245 1.355 . S
C1244 C1246 1.415 . S
C1245 C1244 1.355 . S
C1245 C1247 1.419 . S
C1246 C1244 1.415 . S
C1246 C1251 1.425 . S
C1246 C1253 1.409 . S
C1247 H1239 0.930 . S
C1247 C1245 1.419 . S
C1247 C1248 1.362 . S
C1248 H1240 0.930 . S
C1248 C1247 1.362 . S
C1248 C1251 1.409 . S
C1249 H1241 0.930 . S
C1249 C1250 1.355 . S
C1249 C1251 1.415 . S
C1250 C1249 1.355 . S
C1250 C1252 1.419 . S
C1251 C1246 1.425 . S
C1251 C1248 1.409 . S
C1251 C1249 1.415 . S
C1252 H1242 0.930 . S
C1252 C1250 1.419 . S
C1252 C1253 1.362 . S
C1253 H1243 0.930 . S
C1253 C1246 1.409 . S
C1253 C1252 1.362 . S
H1254 C1260 0.930 . S
H1255 C1263 0.930 . S
H1256 C1264 0.930 . S
H1257 C1265 0.930 . S
H1258 C1268 0.930 . S
H1259 C1269 0.930 . S
C1260 H1254 0.930 . S
C1260 C1261 1.355 . S
C1260 C1262 1.415 . S
C1261 C1260 1.355 . S
C1261 C1263 1.419 . S
C1262 C1260 1.415 . S
C1262 C1267 1.425 . S
C1262 C1269 1.409 . S
C1263 H1255 0.930 . S
C1263 C1261 1.419 . S
C1263 C1264 1.362 . S
C1264 H1256 0.930 . S
C1264 C1263 1.362 . S
C1264 C1267 1.409 . S
C1265 H1257 0.930 . S
C1265 C1266 1.355 . S
C1265 C1267 1.415 . S
C1266 C1265 1.355 . S
C1266 C1268 1.419 . S
C1267 C1262 1.425 . S
C1267 C1264 1.409 . S
C1267 C1265 1.415 . S
C1268 H1258 0.930 . S
C1268 C1266 1.419 . S
C1268 C1269 1.362 . S
C1269 H1259 0.930 . S
C1269 C1262 1.409 . S
C1269 C1268 1.362 . S
H1270 C1276 0.930 . S
H1271 C1279 0.930 . S
H1272 C1280 0.930 . S
H1273 C1281 0.930 . S
H1274 C1284 0.930 . S
H1275 C1285 0.930 . S
C1276 H1270 0.930 . S
C1276 C1277 1.355 . S
C1276 C1278 1.415 . S
C1277 C1276 1.355 . S
C1277 C1279 1.419 . S
C1278 C1276 1.415 . S
C1278 C1283 1.425 . S
C1278 C1285 1.409 . S
C1279 H1271 0.930 . S
C1279 C1277 1.419 . S
C1279 C1280 1.362 . S
C1280 H1272 0.930 . S
C1280 C1279 1.362 . S
C1280 C1283 1.409 . S
C1281 H1273 0.930 . S
C1281 C1282 1.355 . S
C1281 C1283 1.415 . S
C1282 C1281 1.355 . S
C1282 C1284 1.419 . S
C1283 C1278 1.425 . S
C1283 C1280 1.409 . S
C1283 C1281 1.415 . S
C1284 H1274 0.930 . S
C1284 C1282 1.419 . S
C1284 C1285 1.362 . S
C1285 H1275 0.930 . S
C1285 C1278 1.409 . S
C1285 C1284 1.362 . S
H1286 C1292 0.930 . S
H1287 C1295 0.930 . S
H1288 C1296 0.930 . S
H1289 C1297 0.930 . S
H1290 C1300 0.930 . S
H1291 C1301 0.930 . S
C1292 H1286 0.930 . S
C1292 C1293 1.355 . S
C1292 C1294 1.415 . S
C1293 C1292 1.355 . S
C1293 C1295 1.419 . S
C1294 C1292 1.415 . S
C1294 C1299 1.425 . S
C1294 C1301 1.409 . S
C1295 H1287 0.930 . S
C1295 C1293 1.419 . S
C1295 C1296 1.362 . S
C1296 H1288 0.930 . S
C1296 C1295 1.362 . S
C1296 C1299 1.409 . S
C1297 H1289 0.930 . S
C1297 C1298 1.355 . S
C1297 C1299 1.415 . S
C1298 C1297 1.355 . S
C1298 C1300 1.419 . S
C1299 C1294 1.425 . S
C1299 C1296 1.409 . S
C1299 C1297 1.415 . S
C1300 H1290 0.930 . S
C1300 C1298 1.419 . S
C1300 C1301 1.362 . S
C1301 H1291 0.930 . S
C1301 C1294 1.409 . S
C1301 C1300 1.362 . S
H1302 C1308 0.930 . S
H1303 C1311 0.930 . S
H1304 C1312 0.930 . S
H1305 C1313 0.930 . S
H1306 C1316 0.930 . S
H1307 C1317 0.930 . S
C1308 H1302 0.930 . S
C1308 C1309 1.355 . S
C1308 C1310 1.415 . S
C1309 C1308 1.355 . S
C1309 C1311 1.419 . S
C1310 C1308 1.415 . S
C1310 C1315 1.425 . S
C1310 C1317 1.409 . S
C1311 H1303 0.930 . S
C1311 C1309 1.419 . S
C1311 C1312 1.362 . S
C1312 H1304 0.930 . S
C1312 C1311 1.362 . S
C1312 C1315 1.409 . S
C1313 H1305 0.930 . S
C1313 C1314 1.355 . S
C1313 C1315 1.415 . S
C1314 C1313 1.355 . S
C1314 C1316 1.419 . S
C1315 C1310 1.425 . S
C1315 C1312 1.409 . S
C1315 C1313 1.415 . S
C1316 H1306 0.930 . S
C1316 C1314 1.419 . S
C1316 C1317 1.362 . S
C1317 H1307 0.930 . S
C1317 C1310 1.409 . S
C1317 C1316 1.362 . S
H1318 C1324 0.930 . S
H1319 C1327 0.930 . S
H1320 C1328 0.930 . S
H1321 C1329 0.930 . S
H1322 C1332 0.930 . S
H1323 C1333 0.930 . S
C1324 H1318 0.930 . S
C1324 C1325 1.355 . S
C1324 C1326 1.415 . S
C1325 C1324 1.355 . S
C1325 C1327 1.419 . S
C1326 C1324 1.415 . S
C1326 C1331 1.425 . S
C1326 C1333 1.409 . S
C1327 H1319 0.930 . S
C1327 C1325 1.419 . S
C1327 C1328 1.362 . S
C1328 H1320 0.930 . S
C1328 C1327 1.362 . S
C1328 C1331 1.409 . S
C1329 H1321 0.930 . S
C1329 C1330 1.355 . S
C1329 C1331 1.415 . S
C1330 C1329 1.355 . S
C1330 C1332 1.419 . S
C1331 C1326 1.425 . S
C1331 C1328 1.409 . S
C1331 C1329 1.415 . S
C1332 H1322 0.930 . S
C1332 C1330 1.419 . S
C1332 C1333 1.362 . S
C1333 H1323 0.930 . S
C1333 C1326 1.409 . S
C1333 C1332 1.362 . S
H1334 C1340 0.930 . S
H1335 C1343 0.930 . S
H1336 C1344 0.930 . S
H1337 C1345 0.930 . S
H1338 C1348 0.930 . S
H1339 C1349 0.930 . S
C1340 H1334 0.930 . S
C1340 C1341 1.355 . S
C1340 C1342 1.415 . S
C1341 C1340 1.355 . S
C1341 C1343 1.419 . S
C1342 C1340 1.415 . S
C1342 C1347 1.425 . S
C1342 C1349 1.409 . S
C1343 H1335 0.930 . S
C1343 C1341 1.419 . S
C1343 C1344 1.362 . S
C1344 H1336 0.930 . S
C1344 C1343 1.362 . S
C1344 C1347 1.409 . S
C1345 H1337 0.930 . S
C1345 C1346 1.355 . S
C1345 C1347 1.415 . S
C1346 C1345 1.355 . S
C1346 C1348 1.419 . S
C1347 C1342 1.425 . S
C1347 C1344 1.409 . S
C1347 C1345 1.415 . S
C1348 H1338 0.930 . S
C1348 C1346 1.419 . S
C1348 C1349 1.362 . S
C1349 H1339 0.930 . S
C1349 C1342 1.409 . S
C1349 C1348 1.362 . S
H1350 C1356 0.930 . S
H1351 C1359 0.930 . S
H1352 C1360 0.930 . S
H1353 C1361 0.930 . S
H1354 C1364 0.930 . S
H1355 C1365 0.930 . S
C1356 H1350 0.930 . S
C1356 C1357 1.355 . S
C1356 C1358 1.415 . S
C1357 C1356 1.355 . S
C1357 C1359 1.419 . S
C1358 C1356 1.415 . S
C1358 C1363 1.425 . S
C1358 C1365 1.409 . S
C1359 H1351 0.930 . S
C1359 C1357 1.419 . S
C1359 C1360 1.362 . S
C1360 H1352 0.930 . S
C1360 C1359 1.362 . S
C1360 C1363 1.409 . S
C1361 H1353 0.930 . S
C1361 C1362 1.355 . S
C1361 C1363 1.415 . S
C1362 C1361 1.355 . S
C1362 C1364 1.419 . S
C1363 C1358 1.425 . S
C1363 C1360 1.409 . S
C1363 C1361 1.415 . S
C1364 H1354 0.930 . S
C1364 C1362 1.419 . S
C1364 C1365 1.362 . S
C1365 H1355 0.930 . S
C1365 C1358 1.409 . S
C1365 C1364 1.362 . S
H1366 C1372 0.930 . S
H1367 C1375 0.930 . S
H1368 C1376 0.930 . S
H1369 C1377 0.930 . S
H1370 C1380 0.930 . S
H1371 C1381 0.930 . S
C1372 H1366 0.930 . S
C1372 C1373 1.355 . S
C1372 C1374 1.415 . S
C1373 C1372 1.355 . S
C1373 C1375 1.419 . S
C1374 C1372 1.415 . S
C1374 C1379 1.425 . S
C1374 C1381 1.409 . S
C1375 H1367 0.930 . S
C1375 C1373 1.419 . S
C1375 C1376 1.362 . S
C1376 H1368 0.930 . S
C1376 C1375 1.362 . S
C1376 C1379 1.409 . S
C1377 H1369 0.930 . S
C1377 C1378 1.355 . S
C1377 C1379 1.415 . S
C1378 C1377 1.355 . S
C1378 C1380 1.419 . S
C1379 C1374 1.425 . S
C1379 C1376 1.409 . S
C1379 C1377 1.415 . S
C1380 H1370 0.930 . S
C1380 C1378 1.419 . S
C1380 C1381 1.362 . S
C1381 H1371 0.930 . S
C1381 C1374 1.409 . S
C1381 C1380 1.362 . S
H1382 C1388 0.930 . S
H1383 C1391 0.930 . S
H1384 C1392 0.930 . S
H1385 C1393 0.930 . S
H1386 C1396 0.930 . S
H1387 C1397 0.930 . S
C1388 H1382 0.930 . S
C1388 C1389 1.355 . S
C1388 C1390 1.415 . S
C1389 C1388 1.355 . S
C1389 C1391 1.419 . S
C1390 C1388 1.415 . S
C1390 C1395 1.425 . S
C1390 C1397 1.409 . S
C1391 H1383 0.930 . S
C1391 C1389 1.419 . S
C1391 C1392 1.362 . S
C1392 H1384 0.930 . S
C1392 C1391 1.362 . S
C1392 C1395 1.409 . S
C1393 H1385 0.930 . S
C1393 C1394 1.355 . S
C1393 C1395 1.415 . S
C1394 C1393 1.355 . S
C1394 C1396 1.419 . S
C1395 C1390 1.425 . S
C1395 C1392 1.409 . S
C1395 C1393 1.415 . S
C1396 H1386 0.930 . S
C1396 C1394 1.419 . S
C1396 C1397 1.362 . S
C1397 H1387 0.930 . S
C1397 C1390 1.409 . S
C1397 C1396 1.362 . S
H1398 C1404 0.930 . S
H1399 C1407 0.930 . S
H1400 C1408 0.930 . S
H1401 C1409 0.930 . S
H1402 C1412 0.930 . S
H1403 C1413 0.930 . S
C1404 H1398 0.930 . S
C1404 C1405 1.355 . S
C1404 C1406 1.415 . S
C1405 C1404 1.355 . S
C1405 C1407 1.419 . S
C1406 C1404 1.415 . S
C1406 C1411 1.425 . S
C1406 C1413 1.409 . S
C1407 H1399 0.930 . S
C1407 C1405 1.419 . S
C1407 C1408 1.362 . S
C1408 H1400 0.930 . S
C1408 C1407 1.362 . S
C1408 C1411 1.409 . S
C1409 H1401 0.930 . S
C1409 C1410 1.355 . S
C1409 C1411 1.415 . S
C1410 C1409 1.355 . S
C1410 C1412 1.419 . S
C1411 C1406 1.425 . S
C1411 C1408 1.409 . S
C1411 C1409 1.415 . S
C1412 H1402 0.930 . S
C1412 C1410 1.419 . S
C1412 C1413 1.362 . S
C1413 H1403 0.930 . S
C1413 C1406 1.409 . S
C1413 C1412 1.362 . S
H1414 C1420 0.930 . S
H1415 C1423 0.930 . S
H1416 C1424 0.930 . S
H1417 C1425 0.930 . S
H1418 C1428 0.930 . S
H1419 C1429 0.930 . S
C1420 H1414 0.930 . S
C1420 C1421 1.355 . S
C1420 C1422 1.415 . S
C1421 C1420 1.355 . S
C1421 C1423 1.419 . S
C1422 C1420 1.415 . S
C1422 C1427 1.425 . S
C1422 C1429 1.409 . S
C1423 H1415 0.930 . S
C1423 C1421 1.419 . S
C1423 C1424 1.362 . S
C1424 H1416 0.930 . S
C1424 C1423 1.362 . S
C1424 C1427 1.409 . S
C1425 H1417 0.930 . S
C1425 C1426 1.355 . S
C1425 C1427 1.415 . S
C1426 C1425 1.355 . S
C1426 C1428 1.419 . S
C1427 C1422 1.425 . S
C1427 C1424 1.409 . S
C1427 C1425 1.415 . S
C1428 H1418 0.930 . S
C1428 C1426 1.419 . S
C1428 C1429 1.362 . S
C1429 H1419 0.930 . S
C1429 C1422 1.409 . S
C1429 C1428 1.362 . S
H1430 C1436 0.930 . S
H1431 C1439 0.930 . S
H1432 C1440 0.930 . S
H1433 C1441 0.930 . S
H1434 C1444 0.930 . S
H1435 C1445 0.930 . S
C1436 H1430 0.930 . S
C1436 C1437 1.355 . S
C1436 C1438 1.415 . S
C1437 C1436 1.355 . S
C1437 C1439 1.419 . S
C1438 C1436 1.415 . S
C1438 C1443 1.425 . S
C1438 C1445 1.409 . S
C1439 H1431 0.930 . S
C1439 C1437 1.419 . S
C1439 C1440 1.362 . S
C1440 H1432 0.930 . S
C1440 C1439 1.362 . S
C1440 C1443 1.409 . S
C1441 H1433 0.930 . S
C1441 C1442 1.355 . S
C1441 C1443 1.415 . S
C1442 C1441 1.355 . S
C1442 C1444 1.419 . S
C1443 C1438 1.425 . S
C1443 C1440 1.409 . S
C1443 C1441 1.415 . S
C1444 H1434 0.930 . S
C1444 C1442 1.419 . S
C1444 C1445 1.362 . S
C1445 H1435 0.930 . S
C1445 C1438 1.409 . S
C1445 C1444 1.362 . S
H1446 C1452 0.930 . S
H1447 C1455 0.930 . S
H1448 C1456 0.930 . S
H1449 C1457 0.930 . S
H1450 C1460 0.930 . S
H1451 C1461 0.930 . S
C1452 H1446 0.930 . S
C1452 C1453 1.355 . S
C1452 C1454 1.415 . S
C1453 C1452 1.355 . S
C1453 C1455 1.419 . S
C1454 C1452 1.415 . S
C1454 C1459 1.425 . S
C1454 C1461 1.409 . S
C1455 H1447 0.930 . S
C1455 C1453 1.419 . S
C1455 C1456 1.362 . S
C1456 H1448 0.930 . S
C1456 C1455 1.362 . S
C1456 C1459 1.409 . S
C1457 H1449 0.930 . S
C1457 C1458 1.355 . S
C1457 C1459 1.415 . S
C1458 C1457 1.355 . S
C1458 C1460 1.419 . S
C1459 C1454 1.425 . S
C1459 C1456 1.409 . S
C1459 C1457 1.415 . S
C1460 H1450 0.930 . S
C1460 C1458 1.419 . S
C1460 C1461 1.362 . S
C1461 H1451 0.930 . S
C1461 C1454 1.409 . S
C1461 C1460 1.362 . S
H1462 C1468 0.930 . S
H1463 C1471 0.930 . S
H1464 C1472 0.930 . S
H1465 C1473 0.930 . S
H1466 C1476 0.930 . S
H1467 C1477 0.930 . S
C1468 H1462 0.930 . S
C1468 C1469 1.355 . S
C1468 C1470 1.415 . S
C1469 C1468 1.355 . S
C1469 C1471 1.419 . S
C1470 C1468 1.415 . S
C1470 C1475 1.425 . S
C1470 C1477 1.409 . S
C1471 H1463 0.930 . S
C1471 C1469 1.419 . S
C1471 C1472 1.362 . S
C1472 H1464 0.930 . S
C1472 C1471 1.362 . S
C1472 C1475 1.409 . S
C1473 H1465 0.930 . S
C1473 C1474 1.355 . S
C1473 C1475 1.415 . S
C1474 C1473 1.355 . S
C1474 C1476 1.419 . S
C1475 C1470 1.425 . S
C1475 C1472 1.409 . S
C1475 C1473 1.415 . S
C1476 H1466 0.930 . S
C1476 C1474 1.419 . S
C1476 C1477 1.362 . S
C1477 H1467 0.930 . S
C1477 C1470 1.409 . S
C1477 C1476 1.362 . S
H1478 C1484 0.930 . S
H1479 C1487 0.930 . S
H1480 C1488 0.930 . S
H1481 C1489 0.930 . S
H1482 C1492 0.930 . S
H1483 C1493 0.930 . S
C1484 H1478 0.930 . S
C1484 C1485 1.355 . S
C1484 C1486 1.415 . S
C1485 C1484 1.355 . S
C1485 C1487 1.419 . S
C1486 C1484 1.415 . S
C1486 C1491 1.425 . S
C1486 C1493 1.409 . S
C1487 H1479 0.930 . S
C1487 C1485 1.419 . S
C1487 C1488 1.362 . S
C1488 H1480 0.930 . S
C1488 C1487 1.362 . S
C1488 C1491 1.409 . S
C1489 H1481 0.930 . S
C1489 C1490 1.355 . S
C1489 C1491 1.415 . S
C1490 C1489 1.355 . S
C1490 C1492 1.419 . S
C1491 C1486 1.425 . S
C1491 C1488 1.409 . S
C1491 C1489 1.415 . S
C1492 H1482 0.930 . S
C1492 C1490 1.419 . S
C1492 C1493 1.362 . S
C1493 H1483 0.930 . S
C1493 C1486 1.409 . S
C1493 C1492 1.362 . S
H1494 C1500 0.930 . S
H1495 C1503 0.930 . S
H1496 C1504 0.930 . S
H1497 C1505 0.930 . S
H1498 C1508 0.930 . S
H1499 C1509 0.930 . S
C1500 H1494 0.930 . S
C1500 C1501 1.355 . S
C1500 C1502 1.415 . S
C1501 C1500 1.355 . S
C1501 C1503 1.419 . S
C1502 C1500 1.415 . S
C1502 C1507 1.425 . S
C1502 C1509 1.409 . S
C1503 H1495 0.930 . S
C1503 C1501 1.419 . S
C1503 C1504 1.362 . S
C1504 H1496 0.930 . S
C1504 C1503 1.362 . S
C1504 C1507 1.409 . S
C1505 H1497 0.930 . S
C1505 C1506 1.355 . S
C1505 C1507 1.415 . S
C1506 C1505 1.355 . S
C1506 C1508 1.419 . S
C1507 C1502 1.425 . S
C1507 C1504 1.409 . S
C1507 C1505 1.415 . S
C1508 H1498 0.930 . S
C1508 C1506 1.419 . S
C1508 C1509 1.362 . S
C1509 H1499 0.930 . S
C1509 C1502 1.409 . S
C1509 C1508 1.362 . S
H1510 C1516 0.930 . S
H1511 C1519 0.930 . S
H1512 C1520 0.930 . S
H1513 C1521 0.930 . S
H1514 C1524 0.930 . S
H1515 C1525 0.930 . S
C1516 H1510 0.930 . S
C1516 C1517 1.355 . S
C1516 C1518 1.415 . S
C1517 C1516 1.355 . S
C1517 C1519 1.419 . S
C1518 C1516 1.415 . S
C1518 C1523 1.425 . S
C1518 C1525 1.409 . S
C1519 H1511 0.930 . S
C1519 C1517 1.419 . S
C1519 C1520 1.362 . S
C1520 H1512 0.930 . S
C1520 C1519 1.362 . S
C1520 C1523 1.409 . S
C1521 H1513 0.930 . S
C1521 C1522 1.355 . S
C1521 C1523 1.415 . S
C1522 C1521 1.355 . S
C1522 C1524 1.419 . S
C1523 C1518 1.425 . S
C1523 C1520 1.409 . S
C1523 C1521 1.415 . S
C1524 H1514 0.930 . S
C1524 C1522 1.419 . S
C1524 C1525 1.362 . S
C1525 H1515 0.930 . S
C1525 C1518 1.409 . S
C1525 C1524 1.362 . S
H1526 C1532 0.930 . S
H1527 C1535 0.930 . S
H1528 C1536 0.930 . S
H1529 C1537 0.930 . S
H1530 C1540 0.930 . S
H1531 C1541 0.930 . S
C1532 H1526 0.930 . S
C1532 C1533 1.355 . S
C1532 C1534 1.415 . S
C1533 C1532 1.355 . S
C1533 C1535 1.419 . S
C1534 C1532 1.415 . S
C1534 C1539 1.425 . S
C1534 C1541 1.409 . S
C1535 H1527 0.930 . S
C1535 C1533 1.419 . S
C1535 C1536 1.362 . S
C1536 H1528 0.930 . S
C1536 C1535 1.362 . S
C1536 C1539 1.409 . S
C1537 H1529 0.930 . S
C1537 C1538 1.355 . S
C1537 C1539 1.415 . S
C1538 C1537 1.355 . S
C1538 C1540 1.419 . S
C1539 C1534 1.425 . S
C1539 C1536 1.409 . S
C1539 C1537 1.415 . S
C1540 H1530 0.930 . S
C1540 C1538 1.419 . S
C1540 C1541 1.362 . S
C1541 H1531 0.930 . S
C1541 C1534 1.409 . S
C1541 C1540 1.362 . S
H1542 C1548 0.930 . S
H1543 C1551 0.930 . S
H1544 C1552 0.930 . S
H1545 C1553 0.930 . S
H1546 C1556 0.930 . S
H1547 C1557 0.930 . S
C1548 H1542 0.930 . S
C1548 C1549 1.355 . S
C1548 C1550 1.415 . S
C1549 C1548 1.355 . S
C1549 C1551 1.419 . S
C1550 C1548 1.415 . S
C1550 C1555 1.425 . S
C1550 C1557 1.409 . S
C1551 H1543 0.930 . S
C1551 C1549 1.419 . S
C1551 C1552 1.362 . S
C1552 H1544 0.930 . S
C1552 C1551 1.362 . S
C1552 C1555 1.409 . S
C1553 H1545 0.930 . S
C1553 C1554 1.355 . S
C1553 C1555 1.415 . S
C1554 C1553 1.355 . S
C1554 C1556 1.419 . S
C1555 C1550 1.425 . S
C1555 C1552 1.409 . S
C1555 C1553 1.415 . S
C1556 H1546 0.930 . S
C1556 C1554 1.419 . S
C1556 C1557 1.362 . S
C1557 H1547 0.930 . S
C1557 C1550 1.409 . S
C1557 C1556 1.362 . S
H1558 C1564 0.930 . S
H1559 C1567 0.930 . S
H1560 C1568 0.930 . S
H1561 C1569 0.930 . S
H1562 C1572 0.930 . S
H1563 C1573 0.930 . S
C1564 H1558 0.930 . S
C1564 C1565 1.355 . S
C1564 C1566 1.415 . S
C1565 C1564 1.355 . S
C1565 C1567 1.419 . S
C1566 C1564 1.415 . S
C1566 C1571 1.425 . S
C1566 C1573 1.409 . S
C1567 H1559 0.930 . S
C1567 C1565 1.419 . S
C1567 C1568 1.362 . S
C1568 H1560 0.930 . S
C1568 C1567 1.362 . S
C1568 C1571 1.409 . S
C1569 H1561 0.930 . S
C1569 C1570 1.355 . S
C1569 C1571 1.415 . S
C1570 C1569 1.355 . S
C1570 C1572 1.419 . S
C1571 C1566 1.425 . S
C1571 C1568 1.409 . S
C1571 C1569 1.415 . S
C1572 H1562 0.930 . S
C1572 C1570 1.419 . S
C1572 C1573 1.362 . S
C1573 H1563 0.930 . S
C1573 C1566 1.409 . S
C1573 C1572 1.362 . S
H1574 C1580 0.930 . S
H1575 C1583 0.930 . S
H1576 C1584 0.930 . S
H1577 C1585 0.930 . S
H1578 C1588 0.930 . S
H1579 C1589 0.930 . S
C1580 H1574 0.930 . S
C1580 C1581 1.355 . S
C1580 C1582 1.415 . S
C1581 C1580 1.355 . S
C1581 C1583 1.419 . S
C1582 C1580 1.415 . S
C1582 C1587 1.425 . S
C1582 C1589 1.409 . S
C1583 H1575 0.930 . S
C1583 C1581 1.419 . S
C1583 C1584 1.362 . S
C1584 H1576 0.930 . S
C1584 C1583 1.362 . S
C1584 C1587 1.409 . S
C1585 H1577 0.930 . S
C1585 C1586 1.355 . S
C1585 C1587 1.415 . S
C1586 C1585 1.355 . S
C1586 C1588 1.419 . S
C1587 C1582 1.425 . S
C1587 C1584 1.409 . S
C1587 C1585 1.415 . S
C1588 H1578 0.930 . S
C1588 C1586 1.419 . S
C1588 C1589 1.362 . S
C1589 H1579 0.930 . S
C1589 C1582 1.409 . S
C1589 C1588 1.362 . S
H1590 C1596 0.930 . S
H1591 C1599 0.930 . S
H1592 C1600 0.930 . S
H1593 C1601 0.930 . S
H1594 C1604 0.930 . S
H1595 C1605 0.930 . S
C1596 H1590 0.930 . S
C1596 C1597 1.355 . S
C1596 C1598 1.415 . S
C1597 C1596 1.355 . S
C1597 C1599 1.419 . S
C1598 C1596 1.415 . S
C1598 C1603 1.425 . S
C1598 C1605 1.409 . S
C1599 H1591 0.930 . S
C1599 C1597 1.419 . S
C1599 C1600 1.362 . S
C1600 H1592 0.930 . S
C1600 C1599 1.362 . S
C1600 C1603 1.409 . S
C1601 H1593 0.930 . S
C1601 C1602 1.355 . S
C1601 C1603 1.415 . S
C1602 C1601 1.355 . S
C1602 C1604 1.419 . S
C1603 C1598 1.425 . S
C1603 C1600 1.409 . S
C1603 C1601 1.415 . S
C1604 H1594 0.930 . S
C1604 C1602 1.419 . S
C1604 C1605 1.362 . S
C1605 H1595 0.930 . S
C1605 C1598 1.409 . S
C1605 C1604 1.362 . S
H1606 C1612 0.930 . S
H1607 C1615 0.930 . S
H1608 C1616 0.930 . S
H1609 C1617 0.930 . S
H1610 C1620 0.930 . S
H1611 C1621 0.930 . S
C1612 H1606 0.930 . S
C1612 C1613 1.355 . S
C1612 C1614 1.415 . S
C1613 C1612 1.355 . S
C1613 C1615 1.419 . S
C1614 C1612 1.415 . S
C1614 C1619 1.425 . S
C1614 C1621 1.409 . S
C1615 H1607 0.930 . S
C1615 C1613 1.419 . S
C1615 C1616 1.362 . S
C1616 H1608 0.930 . S
C1616 C1615 1.362 . S
C1616 C1619 1.409 . S
C1617 H1609 0.930 . S
C1617 C1618 1.355 . S
C1617 C1619 1.415 . S
C1618 C1617 1.355 . S
C1618 C1620 1.419 . S
C1619 C1614 1.425 . S
C1619 C1616 1.409 . S
C1619 C1617 1.415 . S
C1620 H1610 0.930 . S
C1620 C1618 1.419 . S
C1620 C1621 1.362 . S
C1621 H1611 0.930 . S
C1621 C1614 1.409 . S
C1621 C1620 1.362 . S
H1622 C1628 0.930 . S
H1623 C1631 0.930 . S
H1624 C1632 0.930 . S
H1625 C1633 0.930 . S
H1626 C1636 0.930 . S
H1627 C1637 0.930 . S
C1628 H1622 0.930 . S
C1628 C1629 1.355 . S
C1628 C1630 1.415 . S
C1629 C1628 1.355 . S
C1629 C1631 1.419 . S
C1630 C1628 1.415 . S
C1630 C1635 1.425 . S
C1630 C1637 1.409 . S
C1631 H1623 0.930 . S
C1631 C1629 1.419 . S
C1631 C1632 1.362 . S
C1632 H1624 0.930 . S
C1632 C1631 1.362 . S
C1632 C1635 1.409 . S
C1633 H1625 0.930 . S
C1633 C1634 1.355 . S
C1633 C1635 1.415 . S
C1634 C1633 1.355 . S
C1634 C1636 1.419 . S
C1635 C1630 1.425 . S
C1635 C1632 1.409 . S
C1635 C1633 1.415 . S
C1636 H1626 0.930 . S
C1636 C1634 1.419 . S
C1636 C1637 1.362 . S
C1637 H1627 0.930 . S
C1637 C1630 1.409 . S
C1637 C1636 1.362 . S
H1638 C1644 0.930 . S
H1639 C1647 0.930 . S
H1640 C1648 0.930 . S
H1641 C1649 0.930 . S
H1642 C1652 0.930 . S
H1643 C1653 0.930 . S
C1644 H1638 0.930 . S
C1644 C1645 1.355 . S
C1644 C1646 1.415 . S
C1645 C1644 1.355 . S
C1645 C1647 1.419 . S
C1646 C1644 1.415 . S
C1646 C1651 1.425 . S
C1646 C1653 1.409 . S
C1647 H1639 0.930 . S
C1647 C1645 1.419 . S
C1647 C1648 1.362 . S
C1648 H1640 0.930 . S
C1648 C1647 1.362 . S
C1648 C1651 1.409 . S
C1649 H1641 0.930 . S
C1649 C1650 1.355 . S
C1649 C1651 1.415 . S
C1650 C1649 1.355 . S
C1650 C1652 1.419 . S
C1651 C1646 1.425 . S
C1651 C1648 1.409 . S
C1651 C1649 1.415 . S
C1652 H1642 0.930 . S
C1652 C1650 1.419 . S
C1652 C1653 1.362 . S
C1653 H1643 0.930 . S
C1653 C1646 1.409 . S
C1653 C1652 1.362 . S
H1654 C1660 0.930 . S
H1655 C1663 0.930 . S
H1656 C1664 0.930 . S
H1657 C1665 0.930 . S
H1658 C1668 0.930 . S
H1659 C1669 0.930 . S
C1660 H1654 0.930 . S
C1660 C1661 1.355 . S
C1660 C1662 1.415 . S
C1661 C1660 1.355 . S
C1661 C1663 1.419 . S
C1662 C1660 1.415 . S
C1662 C1667 1.425 . S
C1662 C1669 1.409 . S
C1663 H1655 0.930 . S
C1663 C1661 1.419 . S
C1663 C1664 1.362 . S
C1664 H1656 0.930 . S
C1664 C1663 1.362 . S
C1664 C1667 1.409 . S
C1665 H1657 0.930 . S
C1665 C1666 1.355 . S
C1665 C1667 1.415 . S
C1666 C1665 1.355 . S
C1666 C1668 1.419 . S
C1667 C1662 1.425 . S
C1667 C1664 1.409 . S
C1667 C1665 1.415 . S
C1668 H1658 0.930 . S
C1668 C1666 1.419 . S
C1668 C1669 1.362 . S
C1669 H1659 0.930 . S
C1669 C1662 1.409 . S
C1669 C1668 1.362 . S
H1670 C1676 0.930 . S
H1671 C1679 0.930 . S
H1672 C1680 0.930 . S
H1673 C1681 0.930 . S
H1674 C1684 0.930 . S
H1675 C1685 0.930 . S
C1676 H1670 0.930 . S
C1676 C1677 1.355 . S
C1676 C1678 1.415 . S
C1677 C1676 1.355 . S
C1677 C1679 1.419 . S
C1678 C1676 1.415 . S
C1678 C1683 1.425 . S
C1678 C1685 1.409 . S
C1679 H1671 0.930 . S
C1679 C1677 1.419 . S
C1679 C1680 1.362 . S
C1680 H1672 0.930 . S
C1680 C1679 1.362 . S
C1680 C1683 1.409 . S
C1681 H1673 0.930 . S
C1681 C1682 1.355 . S
C1681 C1683 1.415 . S
C1682 C1681 1.355 . S
C1682 C1684 1.419 . S
C1683 C1678 1.425 . S
C1683 C1680 1.409 . S
C1683 C1681 1.415 . S
C1684 H1674 0.930 . S
C1684 C1682 1.419 . S
C1684 C1685 1.362 . S
C1685 H1675 0.930 . S
C1685 C1678 1.409 . S
C1685 C1684 1.362 . S
H1686 C1692 0.930 . S
H1687 C1695 0.930 1_554 S
H1688 C1696 0.930 . S
H1689 C1697 0.930 . S
H1690 C1700 0.930 . S
H1691 C1701 0.930 . S
C1692 H1686 0.930 . S
C1692 C1693 1.355 . S
C1692 C1694 1.415 . S
C1693 C1692 1.355 . S
C1693 C1695 1.419 . S
C1694 C1692 1.415 . S
C1694 C1699 1.425 . S
C1694 C1701 1.409 . S
C1695 H1687 0.930 1_556 S
C1695 C1693 1.419 . S
C1695 C1696 1.362 . S
C1696 H1688 0.930 . S
C1696 C1695 1.362 . S
C1696 C1699 1.409 . S
C1697 H1689 0.930 . S
C1697 C1698 1.355 . S
C1697 C1699 1.415 . S
C1698 C1697 1.355 . S
C1698 C1700 1.419 . S
C1699 C1694 1.425 . S
C1699 C1696 1.409 . S
C1699 C1697 1.415 . S
C1700 H1690 0.930 . S
C1700 C1698 1.419 . S
C1700 C1701 1.362 . S
C1701 H1691 0.930 . S
C1701 C1694 1.409 . S
C1701 C1700 1.362 . S
H1702 C1708 0.930 1_554 S
H1703 C1711 0.930 . S
H1704 C1712 0.930 . S
H1705 C1713 0.930 . S
H1706 C1716 0.930 . S
H1707 C1717 0.930 . S
C1708 H1702 0.930 1_556 S
C1708 C1709 1.355 . S
C1708 C1710 1.415 . S
C1709 C1708 1.355 . S
C1709 C1711 1.419 . S
C1710 C1708 1.415 . S
C1710 C1715 1.425 . S
C1710 C1717 1.409 . S
C1711 H1703 0.930 . S
C1711 C1709 1.419 . S
C1711 C1712 1.362 . S
C1712 H1704 0.930 . S
C1712 C1711 1.362 . S
C1712 C1715 1.409 . S
C1713 H1705 0.930 . S
C1713 C1714 1.355 . S
C1713 C1715 1.415 . S
C1714 C1713 1.355 . S
C1714 C1716 1.419 . S
C1715 C1710 1.425 . S
C1715 C1712 1.409 . S
C1715 C1713 1.415 . S
C1716 H1706 0.930 . S
C1716 C1714 1.419 . S
C1716 C1717 1.362 . S
C1717 H1707 0.930 . S
C1717 C1710 1.409 . S
C1717 C1716 1.362 . S
H1718 C1724 0.890 1_554 S
H1719 C1727 0.930 . S
H1720 C1728 0.930 . S
H1721 C1729 0.930 . S
H1722 C1732 0.930 . S
H1723 C1733 0.930 . S
C1724 H1718 0.890 1_556 S
C1724 C1725 1.355 . S
C1724 C1726 1.415 . S
C1725 C1724 1.355 . S
C1725 C1727 1.419 . S
C1726 C1724 1.415 . S
C1726 C1731 1.425 . S
C1726 C1733 1.409 . S
C1727 H1719 0.930 . S
C1727 C1725 1.419 . S
C1727 C1728 1.362 . S
C1728 H1720 0.930 . S
C1728 C1727 1.362 . S
C1728 C1731 1.409 . S
C1729 H1721 0.930 . S
C1729 C1730 1.355 . S
C1729 C1731 1.415 . S
C1730 C1729 1.355 . S
C1730 C1732 1.419 . S
C1731 C1726 1.425 . S
C1731 C1728 1.409 . S
C1731 C1729 1.415 . S
C1732 H1722 0.930 . S
C1732 C1730 1.419 . S
C1732 C1733 1.362 . S
C1733 H1723 0.930 . S
C1733 C1726 1.409 . S
C1733 C1732 1.362 . S
H1734 C1740 0.930 . S
H1735 C1743 0.930 1_554 S
H1736 C1744 0.910 1_554 S
H1737 C1745 0.930 . S
H1738 C1748 0.930 . S
H1739 C1749 0.930 . S
C1740 H1734 0.930 . S
C1740 C1741 1.355 . S
C1740 C1742 1.415 . S
C1741 C1740 1.355 . S
C1741 C1743 1.419 . S
C1742 C1740 1.415 . S
C1742 C1747 1.425 . S
C1742 C1749 1.409 . S
C1743 H1735 0.930 1_556 S
C1743 C1741 1.419 . S
C1743 C1744 1.362 . S
C1744 H1736 0.910 1_556 S
C1744 C1743 1.362 . S
C1744 C1747 1.409 . S
C1745 H1737 0.930 . S
C1745 C1746 1.355 . S
C1745 C1747 1.415 . S
C1746 C1745 1.355 . S
C1746 C1748 1.419 . S
C1747 C1742 1.425 . S
C1747 C1744 1.409 . S
C1747 C1745 1.415 . S
C1748 H1738 0.930 . S
C1748 C1746 1.419 . S
C1748 C1749 1.362 . S
C1749 H1739 0.930 . S
C1749 C1742 1.409 . S
C1749 C1748 1.362 . S
H1750 C1756 0.930 . S
H1751 C1759 0.930 . S
H1752 C1760 0.930 . S
H1753 C1761 0.930 . S
H1754 C1764 0.930 . S
H1755 C1765 0.930 . S
C1756 H1750 0.930 . S
C1756 C1757 1.355 . S
C1756 C1758 1.415 . S
C1757 C1756 1.355 . S
C1757 C1759 1.419 . S
C1758 C1756 1.415 . S
C1758 C1763 1.425 . S
C1758 C1765 1.409 . S
C1759 H1751 0.930 . S
C1759 C1757 1.419 . S
C1759 C1760 1.362 . S
C1760 H1752 0.930 . S
C1760 C1759 1.362 . S
C1760 C1763 1.409 . S
C1761 H1753 0.930 . S
C1761 C1762 1.355 . S
C1761 C1763 1.415 . S
C1762 C1761 1.355 . S
C1762 C1764 1.419 . S
C1763 C1758 1.425 . S
C1763 C1760 1.409 . S
C1763 C1761 1.415 . S
C1764 H1754 0.930 . S
C1764 C1762 1.419 . S
C1764 C1765 1.362 . S
C1765 H1755 0.930 . S
C1765 C1758 1.409 . S
C1765 C1764 1.362 . S
H1766 C1772 0.930 . S
H1767 C1775 0.930 . S
H1768 C1776 0.930 . S
H1769 C1777 0.930 . S
H1770 C1780 0.930 . S
H1771 C1781 0.930 . S
C1772 H1766 0.930 . S
C1772 C1773 1.355 . S
C1772 C1774 1.415 . S
C1773 C1772 1.355 . S
C1773 C1775 1.419 . S
C1774 C1772 1.415 . S
C1774 C1779 1.425 . S
C1774 C1781 1.409 . S
C1775 H1767 0.930 . S
C1775 C1773 1.419 . S
C1775 C1776 1.362 . S
C1776 H1768 0.930 . S
C1776 C1775 1.362 . S
C1776 C1779 1.409 . S
C1777 H1769 0.930 . S
C1777 C1778 1.355 . S
C1777 C1779 1.415 . S
C1778 C1777 1.355 . S
C1778 C1780 1.419 . S
C1779 C1774 1.425 . S
C1779 C1776 1.409 . S
C1779 C1777 1.415 . S
C1780 H1770 0.930 . S
C1780 C1778 1.419 . S
C1780 C1781 1.362 . S
C1781 H1771 0.930 . S
C1781 C1774 1.409 . S
C1781 C1780 1.362 . S
H1782 C1788 0.930 . S
H1783 C1791 0.930 . S
H1784 C1792 0.930 . S
H1785 C1793 0.930 . S
H1786 C1796 0.930 . S
H1787 C1797 0.930 . S
C1788 H1782 0.930 . S
C1788 C1789 1.355 . S
C1788 C1790 1.415 . S
C1789 C1788 1.355 . S
C1789 C1791 1.419 . S
C1790 C1788 1.415 . S
C1790 C1795 1.425 . S
C1790 C1797 1.409 . S
C1791 H1783 0.930 . S
C1791 C1789 1.419 . S
C1791 C1792 1.362 . S
C1792 H1784 0.930 . S
C1792 C1791 1.362 . S
C1792 C1795 1.409 . S
C1793 H1785 0.930 . S
C1793 C1794 1.355 . S
C1793 C1795 1.415 . S
C1794 C1793 1.355 . S
C1794 C1796 1.419 . S
C1795 C1790 1.425 . S
C1795 C1792 1.409 . S
C1795 C1793 1.415 . S
C1796 H1786 0.930 . S
C1796 C1794 1.419 . S
C1796 C1797 1.362 . S
C1797 H1787 0.930 . S
C1797 C1790 1.409 . S
C1797 C1796 1.362 . S
H1798 C1804 0.930 . S
H1799 C1807 0.930 . S
H1800 C1808 0.930 . S
H1801 C1809 0.930 . S
H1802 C1812 0.930 . S
H1803 C1813 0.930 . S
C1804 H1798 0.930 . S
C1804 C1805 1.355 . S
C1804 C1806 1.415 . S
C1805 C1804 1.355 . S
C1805 C1807 1.419 . S
C1806 C1804 1.415 . S
C1806 C1811 1.425 . S
C1806 C1813 1.409 . S
C1807 H1799 0.930 . S
C1807 C1805 1.419 . S
C1807 C1808 1.362 . S
C1808 H1800 0.930 . S
C1808 C1807 1.362 . S
C1808 C1811 1.409 . S
C1809 H1801 0.930 . S
C1809 C1810 1.355 . S
C1809 C1811 1.415 . S
C1810 C1809 1.355 . S
C1810 C1812 1.419 . S
C1811 C1806 1.425 . S
C1811 C1808 1.409 . S
C1811 C1809 1.415 . S
C1812 H1802 0.930 . S
C1812 C1810 1.419 . S
C1812 C1813 1.362 . S
C1813 H1803 0.930 . S
C1813 C1806 1.409 . S
C1813 C1812 1.362 . S
H1814 C1820 0.930 . S
H1815 C1823 0.930 . S
H1816 C1824 0.930 . S
H1817 C1825 0.930 . S
H1818 C1828 0.930 . S
H1819 C1829 0.930 . S
C1820 H1814 0.930 . S
C1820 C1821 1.355 . S
C1820 C1822 1.415 . S
C1821 C1820 1.355 . S
C1821 C1823 1.419 . S
C1822 C1820 1.415 . S
C1822 C1827 1.425 . S
C1822 C1829 1.409 . S
C1823 H1815 0.930 . S
C1823 C1821 1.419 . S
C1823 C1824 1.362 . S
C1824 H1816 0.930 . S
C1824 C1823 1.362 . S
C1824 C1827 1.409 . S
C1825 H1817 0.930 . S
C1825 C1826 1.355 . S
C1825 C1827 1.415 . S
C1826 C1825 1.355 . S
C1826 C1828 1.419 . S
C1827 C1822 1.425 . S
C1827 C1824 1.409 . S
C1827 C1825 1.415 . S
C1828 H1818 0.930 . S
C1828 C1826 1.419 . S
C1828 C1829 1.362 . S
C1829 H1819 0.930 . S
C1829 C1822 1.409 . S
C1829 C1828 1.362 . S
H1830 C1836 0.930 . S
H1831 C1839 0.930 . S
H1832 C1840 0.930 . S
H1833 C1841 0.930 . S
H1834 C1844 0.930 . S
H1835 C1845 0.930 . S
C1836 H1830 0.930 . S
C1836 C1837 1.355 . S
C1836 C1838 1.415 . S
C1837 C1836 1.355 . S
C1837 C1839 1.419 . S
C1838 C1836 1.415 . S
C1838 C1843 1.425 . S
C1838 C1845 1.409 . S
C1839 H1831 0.930 . S
C1839 C1837 1.419 . S
C1839 C1840 1.362 . S
C1840 H1832 0.930 . S
C1840 C1839 1.362 . S
C1840 C1843 1.409 . S
C1841 H1833 0.930 . S
C1841 C1842 1.355 . S
C1841 C1843 1.415 . S
C1842 C1841 1.355 . S
C1842 C1844 1.419 . S
C1843 C1838 1.425 . S
C1843 C1840 1.409 . S
C1843 C1841 1.415 . S
C1844 H1834 0.930 . S
C1844 C1842 1.419 . S
C1844 C1845 1.362 . S
C1845 H1835 0.930 . S
C1845 C1838 1.409 . S
C1845 C1844 1.362 . S
H1846 C1852 0.930 . S
H1847 C1855 0.930 . S
H1848 C1856 0.930 . S
H1849 C1857 0.930 . S
H1850 C1860 0.930 . S
H1851 C1861 0.930 . S
C1852 H1846 0.930 . S
C1852 C1853 1.355 . S
C1852 C1854 1.415 . S
C1853 C1852 1.355 . S
C1853 C1855 1.419 . S
C1854 C1852 1.415 . S
C1854 C1859 1.425 . S
C1854 C1861 1.409 . S
C1855 H1847 0.930 . S
C1855 C1853 1.419 . S
C1855 C1856 1.362 . S
C1856 H1848 0.930 . S
C1856 C1855 1.362 . S
C1856 C1859 1.409 . S
C1857 H1849 0.930 . S
C1857 C1858 1.355 . S
C1857 C1859 1.415 . S
C1858 C1857 1.355 . S
C1858 C1860 1.419 . S
C1859 C1854 1.425 . S
C1859 C1856 1.409 . S
C1859 C1857 1.415 . S
C1860 H1850 0.930 . S
C1860 C1858 1.419 . S
C1860 C1861 1.362 . S
C1861 H1851 0.930 . S
C1861 C1854 1.409 . S
C1861 C1860 1.362 . S
H1862 C1868 0.930 . S
H1863 C1871 0.930 . S
H1864 C1872 0.930 . S
H1865 C1873 0.930 . S
H1866 C1876 0.930 . S
H1867 C1877 0.930 . S
C1868 H1862 0.930 . S
C1868 C1869 1.355 . S
C1868 C1870 1.415 . S
C1869 C1868 1.355 . S
C1869 C1871 1.419 . S
C1870 C1868 1.415 . S
C1870 C1875 1.425 . S
C1870 C1877 1.409 . S
C1871 H1863 0.930 . S
C1871 C1869 1.419 . S
C1871 C1872 1.362 . S
C1872 H1864 0.930 . S
C1872 C1871 1.362 . S
C1872 C1875 1.409 . S
C1873 H1865 0.930 . S
C1873 C1874 1.355 . S
C1873 C1875 1.415 . S
C1874 C1873 1.355 . S
C1874 C1876 1.419 . S
C1875 C1870 1.425 . S
C1875 C1872 1.409 . S
C1875 C1873 1.415 . S
C1876 H1866 0.930 . S
C1876 C1874 1.419 . S
C1876 C1877 1.362 . S
C1877 H1867 0.930 . S
C1877 C1870 1.409 . S
C1877 C1876 1.362 . S
H1878 C1884 0.930 1_655 S
H1879 C1887 0.930 . S
H1880 C1888 0.930 . S
H1881 C1889 0.930 . S
H1882 C1892 0.930 . S
H1883 C1893 0.930 . S
C1884 H1878 0.930 1_455 S
C1884 C1885 1.355 . S
C1884 C1886 1.415 . S
C1885 C1884 1.355 . S
C1885 C1887 1.419 . S
C1886 C1884 1.415 . S
C1886 C1891 1.425 . S
C1886 C1893 1.409 1_455 S
C1887 H1879 0.930 . S
C1887 C1885 1.419 . S
C1887 C1888 1.362 . S
C1888 H1880 0.930 . S
C1888 C1887 1.362 . S
C1888 C1891 1.409 . S
C1889 H1881 0.930 . S
C1889 C1890 1.355 . S
C1889 C1891 1.415 . S
C1890 C1889 1.355 . S
C1890 C1892 1.419 1_455 S
C1891 C1886 1.425 . S
C1891 C1888 1.409 . S
C1891 C1889 1.415 . S
C1892 H1882 0.930 . S
C1892 C1890 1.419 1_655 S
C1892 C1893 1.362 . S
C1893 H1883 0.930 . S
C1893 C1886 1.409 1_655 S
C1893 C1892 1.362 . S
H1894 C1900 0.930 . S
H1895 C1903 0.930 . S
H1896 C1904 0.930 . S
H1897 C1905 0.930 . S
H1898 C1908 0.930 . S
H1899 C1909 0.930 . S
C1900 H1894 0.930 . S
C1900 C1901 1.355 . S
C1900 C1902 1.415 . S
C1901 C1900 1.355 . S
C1901 C1903 1.419 . S
C1902 C1900 1.415 . S
C1902 C1907 1.425 . S
C1902 C1909 1.409 . S
C1903 H1895 0.930 . S
C1903 C1901 1.419 . S
C1903 C1904 1.362 . S
C1904 H1896 0.930 . S
C1904 C1903 1.362 . S
C1904 C1907 1.409 . S
C1905 H1897 0.930 . S
C1905 C1906 1.355 . S
C1905 C1907 1.415 . S
C1906 C1905 1.355 . S
C1906 C1908 1.419 . S
C1907 C1902 1.425 . S
C1907 C1904 1.409 . S
C1907 C1905 1.415 . S
C1908 H1898 0.930 . S
C1908 C1906 1.419 . S
C1908 C1909 1.362 . S
C1909 H1899 0.930 . S
C1909 C1902 1.409 . S
C1909 C1908 1.362 . S
H1910 C1916 0.922 1_545 S
H1911 C1919 0.930 . S
H1912 C1920 0.930 . S
H1913 C1921 0.930 . S
H1914 C1924 0.930 . S
H1915 C1925 0.930 . S
C1916 H1910 0.922 1_565 S
C1916 C1917 1.355 . S
C1916 C1918 1.415 . S
C1917 C1916 1.355 . S
C1917 C1919 1.419 . S
C1918 C1916 1.415 . S
C1918 C1923 1.425 . S
C1918 C1925 1.409 1_565 S
C1919 H1911 0.930 . S
C1919 C1917 1.419 . S
C1919 C1920 1.362 . S
C1920 H1912 0.930 . S
C1920 C1919 1.362 . S
C1920 C1923 1.409 . S
C1921 H1913 0.930 . S
C1921 C1922 1.355 . S
C1921 C1923 1.415 . S
C1922 C1921 1.355 . S
C1922 C1924 1.419 1_565 S
C1923 C1918 1.425 . S
C1923 C1920 1.409 . S
C1923 C1921 1.415 . S
C1924 H1914 0.930 . S
C1924 C1922 1.419 1_545 S
C1924 C1925 1.362 . S
C1925 H1915 0.930 . S
C1925 C1918 1.409 1_545 S
C1925 C1924 1.362 . S
H1926 C1932 0.930 . S
H1927 C1935 0.930 . S
H1928 C1936 0.930 . S
H1929 C1937 0.930 . S
H1930 C1940 0.930 . S
H1931 C1941 0.930 . S
C1932 H1926 0.930 . S
C1932 C1933 1.355 . S
C1932 C1934 1.415 . S
C1933 C1932 1.355 . S
C1933 C1935 1.419 . S
C1934 C1932 1.415 . S
C1934 C1939 1.425 . S
C1934 C1941 1.409 . S
C1935 H1927 0.930 . S
C1935 C1933 1.419 . S
C1935 C1936 1.362 . S
C1936 H1928 0.930 . S
C1936 C1935 1.362 . S
C1936 C1939 1.409 . S
C1937 H1929 0.930 . S
C1937 C1938 1.355 . S
C1937 C1939 1.415 . S
C1938 C1937 1.355 . S
C1938 C1940 1.419 . S
C1939 C1934 1.425 . S
C1939 C1936 1.409 . S
C1939 C1937 1.415 . S
C1940 H1930 0.930 . S
C1940 C1938 1.419 . S
C1940 C1941 1.362 . S
C1941 H1931 0.930 . S
C1941 C1934 1.409 . S
C1941 C1940 1.362 . S
H1942 C1948 0.930 . S
H1943 C1951 0.930 . S
H1944 C1952 0.930 . S
H1945 C1953 0.930 . S
H1946 C1956 0.930 . S
H1947 C1957 0.930 . S
C1948 H1942 0.930 . S
C1948 C1949 1.355 . S
C1948 C1950 1.415 . S
C1949 C1948 1.355 . S
C1949 C1951 1.419 1_455 S
C1950 C1948 1.415 . S
C1950 C1955 1.425 1_455 S
C1950 C1957 1.409 . S
C1951 H1943 0.930 . S
C1951 C1949 1.419 1_655 S
C1951 C1952 1.362 . S
C1952 H1944 0.930 . S
C1952 C1951 1.362 . S
C1952 C1955 1.409 . S
C1953 H1945 0.930 . S
C1953 C1954 1.355 1_655 S
C1953 C1955 1.415 . S
C1954 C1953 1.355 1_455 S
C1954 C1956 1.419 . S
C1955 C1950 1.425 1_655 S
C1955 C1952 1.409 . S
C1955 C1953 1.415 . S
C1956 H1946 0.930 . S
C1956 C1954 1.419 . S
C1956 C1957 1.362 . S
C1957 H1947 0.930 . S
C1957 C1950 1.409 . S
C1957 C1956 1.362 . S
H1958 C1964 0.930 . S
H1959 C1967 0.930 . S
H1960 C1968 0.930 . S
H1961 C1969 0.930 . S
H1962 C1972 0.930 . S
H1963 C1973 0.930 . S
C1964 H1958 0.930 . S
C1964 C1965 1.355 . S
C1964 C1966 1.415 . S
C1965 C1964 1.355 . S
C1965 C1967 1.419 . S
C1966 C1964 1.415 . S
C1966 C1971 1.425 . S
C1966 C1973 1.409 . S
C1967 H1959 0.930 . S
C1967 C1965 1.419 . S
C1967 C1968 1.362 . S
C1968 H1960 0.930 . S
C1968 C1967 1.362 . S
C1968 C1971 1.409 . S
C1969 H1961 0.930 . S
C1969 C1970 1.355 . S
C1969 C1971 1.415 . S
C1970 C1969 1.355 . S
C1970 C1972 1.419 . S
C1971 C1966 1.425 . S
C1971 C1968 1.409 . S
C1971 C1969 1.415 . S
C1972 H1962 0.930 . S
C1972 C1970 1.419 . S
C1972 C1973 1.362 . S
C1973 H1963 0.930 . S
C1973 C1966 1.409 . S
C1973 C1972 1.362 . S
H1974 C1980 0.930 . S
H1975 C1983 0.930 . S
H1976 C1984 0.930 . S
H1977 C1985 0.930 . S
H1978 C1988 0.930 . S
H1979 C1989 0.930 . S
C1980 H1974 0.930 . S
C1980 C1981 1.355 . S
C1980 C1982 1.415 . S
C1981 C1980 1.355 . S
C1981 C1983 1.419 . S
C1982 C1980 1.415 . S
C1982 C1987 1.425 . S
C1982 C1989 1.409 . S
C1983 H1975 0.930 . S
C1983 C1981 1.419 . S
C1983 C1984 1.362 . S
C1984 H1976 0.930 . S
C1984 C1983 1.362 . S
C1984 C1987 1.409 . S
C1985 H1977 0.930 . S
C1985 C1986 1.355 . S
C1985 C1987 1.415 . S
C1986 C1985 1.355 . S
C1986 C1988 1.419 . S
C1987 C1982 1.425 . S
C1987 C1984 1.409 . S
C1987 C1985 1.415 . S
C1988 H1978 0.930 . S
C1988 C1986 1.419 . S
C1988 C1989 1.362 . S
C1989 H1979 0.930 . S
C1989 C1982 1.409 . S
C1989 C1988 1.362 . S
H1990 C1996 0.930 . S
H1991 C1999 0.930 . S
H1992 C2000 0.930 . S
H1993 C2001 0.930 . S
H1994 C2004 0.930 . S
H1995 C2005 0.930 . S
C1996 H1990 0.930 . S
C1996 C1997 1.355 . S
C1996 C1998 1.415 . S
C1997 C1996 1.355 . S
C1997 C1999 1.419 . S
C1998 C1996 1.415 . S
C1998 C2003 1.425 . S
C1998 C2005 1.409 . S
C1999 H1991 0.930 . S
C1999 C1997 1.419 . S
C1999 C2000 1.362 . S
C2000 H1992 0.930 . S
C2000 C1999 1.362 . S
C2000 C2003 1.409 . S
C2001 H1993 0.930 . S
C2001 C2002 1.355 . S
C2001 C2003 1.415 . S
C2002 C2001 1.355 . S
C2002 C2004 1.419 . S
C2003 C1998 1.425 . S
C2003 C2000 1.409 . S
C2003 C2001 1.415 . S
C2004 H1994 0.930 . S
C2004 C2002 1.419 . S
C2004 C2005 1.362 . S
C2005 H1995 0.930 . S
C2005 C1998 1.409 . S
C2005 C2004 1.362 . S
H2006 C2012 0.930 . S
H2007 C2015 0.930 . S
H2008 C2016 0.930 . S
H2009 C2017 0.930 . S
H2010 C2020 0.930 . S
H2011 C2021 0.930 . S
C2012 H2006 0.930 . S
C2012 C2013 1.355 . S
C2012 C2014 1.415 . S
C2013 C2012 1.355 . S
C2013 C2015 1.419 . S
C2014 C2012 1.415 . S
C2014 C2019 1.425 . S
C2014 C2021 1.409 . S
C2015 H2007 0.930 . S
C2015 C2013 1.419 . S
C2015 C2016 1.362 . S
C2016 H2008 0.930 . S
C2016 C2015 1.362 . S
C2016 C2019 1.409 . S
C2017 H2009 0.930 . S
C2017 C2018 1.355 . S
C2017 C2019 1.415 . S
C2018 C2017 1.355 . S
C2018 C2020 1.419 . S
C2019 C2014 1.425 . S
C2019 C2016 1.409 . S
C2019 C2017 1.415 . S
C2020 H2010 0.930 . S
C2020 C2018 1.419 . S
C2020 C2021 1.362 . S
C2021 H2011 0.930 . S
C2021 C2014 1.409 . S
C2021 C2020 1.362 . S
H2022 C2028 0.930 . S
H2023 C2031 0.930 . S
H2024 C2032 0.930 . S
H2025 C2033 0.930 . S
H2026 C2036 0.930 . S
H2027 C2037 0.930 . S
C2028 H2022 0.930 . S
C2028 C2029 1.355 . S
C2028 C2030 1.415 . S
C2029 C2028 1.355 . S
C2029 C2031 1.419 1_545 S
C2030 C2028 1.415 . S
C2030 C2035 1.427 . S
C2030 C2037 1.409 . S
C2031 H2023 0.930 . S
C2031 C2029 1.419 1_565 S
C2031 C2032 1.362 . S
C2032 H2024 0.930 . S
C2032 C2031 1.362 . S
C2032 C2035 1.409 1_565 S
C2033 H2025 0.930 . S
C2033 C2034 1.355 1_565 S
C2033 C2035 1.414 1_565 S
C2034 C2033 1.355 1_545 S
C2034 C2036 1.419 . S
C2035 C2030 1.427 . S
C2035 C2032 1.409 1_545 S
C2035 C2033 1.414 1_545 S
C2036 H2026 0.930 . S
C2036 C2034 1.419 . S
C2036 C2037 1.362 . S
C2037 H2027 0.930 . S
C2037 C2030 1.409 . S
C2037 C2036 1.362 . S
H2038 C2044 0.930 . S
H2039 C2047 0.930 . S
H2040 C2048 0.930 . S
H2041 C2049 0.930 . S
H2042 C2052 0.930 . S
H2043 C2053 0.930 . S
C2044 H2038 0.930 . S
C2044 C2045 1.355 1_455 S
C2044 C2046 1.415 . S
C2045 C2044 1.355 1_655 S
C2045 C2047 1.419 . S
C2046 C2044 1.415 . S
C2046 C2051 1.425 1_455 S
C2046 C2053 1.409 . S
C2047 H2039 0.930 . S
C2047 C2045 1.419 . S
C2047 C2048 1.362 . S
C2048 H2040 0.930 . S
C2048 C2047 1.362 . S
C2048 C2051 1.409 . S
C2049 H2041 0.930 . S
C2049 C2050 1.355 . S
C2049 C2051 1.415 . S
C2050 C2049 1.355 . S
C2050 C2052 1.419 1_655 S
C2051 C2046 1.425 1_655 S
C2051 C2048 1.409 . S
C2051 C2049 1.415 . S
C2052 H2042 0.930 . S
C2052 C2050 1.419 1_455 S
C2052 C2053 1.362 . S
C2053 H2043 0.930 . S
C2053 C2046 1.409 . S
C2053 C2052 1.362 . S
H2054 C2060 0.930 . S
H2055 C2063 0.930 . S
H2056 C2064 0.930 . S
H2057 C2065 0.930 . S
H2058 C2068 0.930 . S
H2059 C2069 0.930 . S
C2060 H2054 0.930 . S
C2060 C2061 1.355 . S
C2060 C2062 1.415 . S
C2061 C2060 1.355 . S
C2061 C2063 1.419 . S
C2062 C2060 1.415 . S
C2062 C2067 1.425 . S
C2062 C2069 1.409 . S
C2063 H2055 0.930 . S
C2063 C2061 1.419 . S
C2063 C2064 1.362 . S
C2064 H2056 0.930 . S
C2064 C2063 1.362 . S
C2064 C2067 1.409 . S
C2065 H2057 0.930 . S
C2065 C2066 1.355 . S
C2065 C2067 1.415 . S
C2066 C2065 1.355 . S
C2066 C2068 1.419 . S
C2067 C2062 1.425 . S
C2067 C2064 1.409 . S
C2067 C2065 1.415 . S
C2068 H2058 0.930 . S
C2068 C2066 1.419 . S
C2068 C2069 1.362 . S
C2069 H2059 0.930 . S
C2069 C2062 1.409 . S
C2069 C2068 1.362 . S
H2070 C2076 0.930 . S
H2071 C2079 0.930 . S
H2072 C2080 0.930 . S
H2073 C2081 0.930 . S
H2074 C2084 0.930 . S
H2075 C2085 0.930 . S
C2076 H2070 0.930 . S
C2076 C2077 1.355 . S
C2076 C2078 1.415 . S
C2077 C2076 1.355 . S
C2077 C2079 1.419 . S
C2078 C2076 1.415 . S
C2078 C2083 1.425 . S
C2078 C2085 1.409 . S
C2079 H2071 0.930 . S
C2079 C2077 1.419 . S
C2079 C2080 1.362 . S
C2080 H2072 0.930 . S
C2080 C2079 1.362 . S
C2080 C2083 1.409 . S
C2081 H2073 0.930 . S
C2081 C2082 1.355 . S
C2081 C2083 1.415 . S
C2082 C2081 1.355 . S
C2082 C2084 1.419 . S
C2083 C2078 1.425 . S
C2083 C2080 1.409 . S
C2083 C2081 1.415 . S
C2084 H2074 0.930 . S
C2084 C2082 1.419 . S
C2084 C2085 1.362 . S
C2085 H2075 0.930 . S
C2085 C2078 1.409 . S
C2085 C2084 1.362 . S
H2086 C2092 0.930 . S
H2087 C2095 0.930 . S
H2088 C2096 0.930 . S
H2089 C2097 0.930 . S
H2090 C2100 0.930 . S
H2091 C2101 0.930 . S
C2092 H2086 0.930 . S
C2092 C2093 1.355 . S
C2092 C2094 1.415 . S
C2093 C2092 1.355 . S
C2093 C2095 1.419 . S
C2094 C2092 1.415 . S
C2094 C2099 1.425 . S
C2094 C2101 1.409 . S
C2095 H2087 0.930 . S
C2095 C2093 1.419 . S
C2095 C2096 1.362 . S
C2096 H2088 0.930 . S
C2096 C2095 1.362 . S
C2096 C2099 1.409 . S
C2097 H2089 0.930 . S
C2097 C2098 1.355 . S
C2097 C2099 1.415 . S
C2098 C2097 1.355 . S
C2098 C2100 1.419 . S
C2099 C2094 1.425 . S
C2099 C2096 1.409 . S
C2099 C2097 1.415 . S
C2100 H2090 0.930 . S
C2100 C2098 1.419 . S
C2100 C2101 1.362 . S
C2101 H2091 0.930 . S
C2101 C2094 1.409 . S
C2101 C2100 1.362 . S
H2102 C2108 0.930 . S
H2103 C2111 0.930 . S
H2104 C2112 0.930 . S
H2105 C2113 0.930 . S
H2106 C2116 0.930 . S
H2107 C2117 0.930 . S
C2108 H2102 0.930 . S
C2108 C2109 1.355 . S
C2108 C2110 1.415 . S
C2109 C2108 1.355 . S
C2109 C2111 1.419 . S
C2110 C2108 1.415 . S
C2110 C2115 1.425 . S
C2110 C2117 1.409 . S
C2111 H2103 0.930 . S
C2111 C2109 1.419 . S
C2111 C2112 1.362 . S
C2112 H2104 0.930 . S
C2112 C2111 1.362 . S
C2112 C2115 1.409 . S
C2113 H2105 0.930 . S
C2113 C2114 1.355 . S
C2113 C2115 1.415 . S
C2114 C2113 1.355 . S
C2114 C2116 1.419 . S
C2115 C2110 1.425 . S
C2115 C2112 1.409 . S
C2115 C2113 1.415 . S
C2116 H2106 0.930 . S
C2116 C2114 1.419 . S
C2116 C2117 1.362 . S
C2117 H2107 0.930 . S
C2117 C2110 1.409 . S
C2117 C2116 1.362 . S
H2118 C2124 0.930 . S
H2119 C2127 0.930 . S
H2120 C2128 0.930 . S
H2121 C2129 0.930 . S
H2122 C2132 0.930 . S
H2123 C2133 0.930 . S
C2124 H2118 0.930 . S
C2124 C2125 1.355 . S
C2124 C2126 1.415 . S
C2125 C2124 1.355 . S
C2125 C2127 1.419 . S
C2126 C2124 1.415 . S
C2126 C2131 1.425 . S
C2126 C2133 1.409 . S
C2127 H2119 0.930 . S
C2127 C2125 1.419 . S
C2127 C2128 1.362 . S
C2128 H2120 0.930 . S
C2128 C2127 1.362 . S
C2128 C2131 1.409 . S
C2129 H2121 0.930 . S
C2129 C2130 1.355 . S
C2129 C2131 1.415 . S
C2130 C2129 1.355 . S
C2130 C2132 1.419 . S
C2131 C2126 1.425 . S
C2131 C2128 1.409 . S
C2131 C2129 1.415 . S
C2132 H2122 0.930 . S
C2132 C2130 1.419 . S
C2132 C2133 1.362 . S
C2133 H2123 0.930 . S
C2133 C2126 1.409 . S
C2133 C2132 1.362 . S
H2134 C2140 0.930 . S
H2135 C2143 0.930 . S
H2136 C2144 0.930 . S
H2137 C2145 0.930 . S
H2138 C2148 0.930 . S
H2139 C2149 0.930 . S
C2140 H2134 0.930 . S
C2140 C2141 1.355 . S
C2140 C2142 1.415 . S
C2141 C2140 1.355 . S
C2141 C2143 1.419 . S
C2142 C2140 1.415 . S
C2142 C2147 1.425 . S
C2142 C2149 1.409 . S
C2143 H2135 0.930 . S
C2143 C2141 1.419 . S
C2143 C2144 1.362 . S
C2144 H2136 0.930 . S
C2144 C2143 1.362 . S
C2144 C2147 1.409 . S
C2145 H2137 0.930 . S
C2145 C2146 1.355 . S
C2145 C2147 1.415 . S
C2146 C2145 1.355 . S
C2146 C2148 1.419 . S
C2147 C2142 1.425 . S
C2147 C2144 1.409 . S
C2147 C2145 1.415 . S
C2148 H2138 0.930 . S
C2148 C2146 1.419 . S
C2148 C2149 1.362 . S
C2149 H2139 0.930 . S
C2149 C2142 1.409 . S
C2149 C2148 1.362 . S
H2150 C2156 0.930 . S
H2151 C2159 0.930 . S
H2152 C2160 0.930 . S
H2153 C2161 0.930 . S
H2154 C2164 0.930 . S
H2155 C2165 0.930 . S
C2156 H2150 0.930 . S
C2156 C2157 1.355 . S
C2156 C2158 1.415 . S
C2157 C2156 1.355 . S
C2157 C2159 1.419 . S
C2158 C2156 1.415 . S
C2158 C2163 1.425 . S
C2158 C2165 1.409 . S
C2159 H2151 0.930 . S
C2159 C2157 1.419 . S
C2159 C2160 1.362 . S
C2160 H2152 0.930 . S
C2160 C2159 1.362 . S
C2160 C2163 1.409 . S
C2161 H2153 0.930 . S
C2161 C2162 1.355 . S
C2161 C2163 1.415 . S
C2162 C2161 1.355 . S
C2162 C2164 1.419 . S
C2163 C2158 1.425 . S
C2163 C2160 1.409 . S
C2163 C2161 1.415 . S
C2164 H2154 0.930 . S
C2164 C2162 1.419 . S
C2164 C2165 1.362 . S
C2165 H2155 0.930 . S
C2165 C2158 1.409 . S
C2165 C2164 1.362 . S
H2166 C2172 0.930 . S
H2167 C2175 0.930 . S
H2168 C2176 0.930 . S
H2169 C2177 0.930 . S
H2170 C2180 0.930 . S
H2171 C2181 0.930 . S
C2172 H2166 0.930 . S
C2172 C2173 1.355 . S
C2172 C2174 1.415 . S
C2173 C2172 1.355 . S
C2173 C2175 1.419 . S
C2174 C2172 1.415 . S
C2174 C2179 1.425 . S
C2174 C2181 1.409 . S
C2175 H2167 0.930 . S
C2175 C2173 1.419 . S
C2175 C2176 1.362 . S
C2176 H2168 0.930 . S
C2176 C2175 1.362 . S
C2176 C2179 1.409 . S
C2177 H2169 0.930 . S
C2177 C2178 1.355 . S
C2177 C2179 1.415 . S
C2178 C2177 1.355 . S
C2178 C2180 1.419 . S
C2179 C2174 1.425 . S
C2179 C2176 1.409 . S
C2179 C2177 1.415 . S
C2180 H2170 0.930 . S
C2180 C2178 1.419 . S
C2180 C2181 1.362 . S
C2181 H2171 0.930 . S
C2181 C2174 1.409 . S
C2181 C2180 1.362 . S
H2182 C2188 0.930 . S
H2183 C2191 0.930 . S
H2184 C2192 0.930 . S
H2185 C2193 0.930 . S
H2186 C2196 0.930 . S
H2187 C2197 0.930 . S
C2188 H2182 0.930 . S
C2188 C2189 1.355 . S
C2188 C2190 1.415 . S
C2189 C2188 1.355 . S
C2189 C2191 1.419 . S
C2190 C2188 1.415 . S
C2190 C2195 1.425 . S
C2190 C2197 1.409 . S
C2191 H2183 0.930 . S
C2191 C2189 1.419 . S
C2191 C2192 1.362 . S
C2192 H2184 0.930 . S
C2192 C2191 1.362 . S
C2192 C2195 1.409 . S
C2193 H2185 0.930 . S
C2193 C2194 1.355 . S
C2193 C2195 1.415 . S
C2194 C2193 1.355 . S
C2194 C2196 1.419 . S
C2195 C2190 1.425 . S
C2195 C2192 1.409 . S
C2195 C2193 1.415 . S
C2196 H2186 0.930 . S
C2196 C2194 1.419 . S
C2196 C2197 1.362 . S
C2197 H2187 0.930 . S
C2197 C2190 1.409 . S
C2197 C2196 1.362 . S
H2198 C2204 0.930 1_565 S
H2199 C2207 0.930 . S
H2200 C2208 0.930 . S
H2201 C2209 0.930 . S
H2202 C2212 0.930 . S
H2203 C2213 0.930 . S
C2204 H2198 0.930 1_545 S
C2204 C2205 1.355 . S
C2204 C2206 1.415 . S
C2205 C2204 1.355 . S
C2205 C2207 1.419 . S
C2206 C2204 1.415 . S
C2206 C2211 1.425 . S
C2206 C2213 1.409 1_545 S
C2207 H2199 0.930 . S
C2207 C2205 1.419 . S
C2207 C2208 1.362 . S
C2208 H2200 0.930 . S
C2208 C2207 1.362 . S
C2208 C2211 1.409 . S
C2209 H2201 0.930 . S
C2209 C2210 1.355 . S
C2209 C2211 1.415 . S
C2210 C2209 1.355 . S
C2210 C2212 1.419 1_545 S
C2211 C2206 1.425 . S
C2211 C2208 1.409 . S
C2211 C2209 1.415 . S
C2212 H2202 0.930 . S
C2212 C2210 1.419 1_565 S
C2212 C2213 1.362 . S
C2213 H2203 0.930 . S
C2213 C2206 1.409 1_565 S
C2213 C2212 1.362 . S
C1069 C8 1.408 . S
C1074 C670 1.465 . S
C1085 C18 1.479 . S
C1090 C716 1.518 . S
C1106 C748 1.497 . S
C1101 C31 1.398 . S
C1117 C34 1.439 . S
C1122 C801 1.494 . S
C1133 C5 1.416 . S
C1138 C847 1.494 . S
C1149 C21 1.491 . S
C1154 C886 1.536 . S
C1165 C47 1.433 . S
C1170 C840 1.461 . S
C1186 C893 1.530 . S
C1181 C57 1.451 . S
C1202 C794 1.506 . S
C1197 C70 1.408 . S
C1213 C73 1.399 . S
C1218 C755 1.454 . S
C1234 C649 1.500 . S
C1229 C44 1.374 . S
C1245 C60 1.463 . S
C1250 C695 1.537 . S
C1261 C86 1.582 . S
C1266 C925 1.597 . S
C1277 C96 1.526 . S
C1282 C992 1.576 . S
C1298 C1038 1.576 . S
C1293 C109 1.621 . S
C1309 C112 1.549 . S
C1314 C249 1.609 . S
C1325 C83 1.608 . S
C1330 C295 1.596 . S
C1341 C99 1.551 . S
C1346 C341 1.568 . S
C1357 C125 1.485 . S
C1362 C288 1.508 . S
C1373 C135 1.542 . S
C1378 C334 1.552 . S
C1394 C242 1.612 . S
C1389 C148 1.594 . S
C1410 C1017 1.694 . S
C1405 C151 1.644 . S
C1426 C946 1.610 . S
C1421 C122 1.563 . S
C1442 C971 1.582 . S
C1437 C138 1.612 . S
C1453 C164 1.481 . S
C1458 C373 1.533 . S
C1469 C174 1.511 . S
C1474 C426 1.574 . S
C1485 C187 1.580 . S
C1490 C472 1.618 . S
C1501 C190 1.674 . S
C1506 C518 1.684 . S
C1522 C571 1.616 . S
C1517 C161 1.579 . S
C1538 C617 1.590 . S
C1533 C177 1.589 . S
C1554 C564 1.607 . S
C1549 C203 1.563 . S
C1570 C610 1.556 . S
C1565 C213 1.581 . S
C1581 C226 1.587 . S
C1586 C525 1.611 . S
C1602 C479 1.608 . S
C1597 C229 1.542 . S
C1613 C200 1.577 . S
C1618 C394 1.626 . S
C1634 C433 1.612 . S
C1629 C216 1.546 . S
C1650 C256 1.569 . S
C1645 C0 1.517 . S
C1661 C23 1.482 . S
C1666 C302 1.454 . S
C1682 C348 1.574 . S
C1677 C36 1.582 . S
C1698 C380 1.533 . S
C1693 C26 1.476 . S
C1714 C419 1.535 . S
C1709 C10 1.561 . S
C1730 C465 1.494 . S
C1725 C13 1.449 . S
C1741 C39 1.445 . S
C1746 C486 1.508 . S
C1757 C62 1.479 . S
C1762 C387 1.456 . S
C1773 C75 1.563 . S
C1778 C440 1.542 . S
C1789 C65 1.562 . S
C1794 C281 1.617 . S
C1810 C327 1.535 . S
C1805 C49 1.555 . S
C1821 C52 1.460 . S
C1826 C235 1.492 . S
C1842 C511 1.506 . S
C1837 C78 1.483 . S
C1853 C101 1.582 . S
C1858 C578 1.553 . S
C1869 C114 1.578 . S
C1874 C624 1.539 . S
C1890 C663 1.318 . S
C1885 C104 1.322 . S
C1901 C88 1.486 . S
C1906 C709 1.476 . S
C1917 C91 1.223 . S
C1922 C741 1.254 . S
C1933 C117 1.263 . S
C1938 C762 1.281 . S
C1949 C140 1.284 . S
C1954 C656 1.271 . S
C1970 C702 1.459 . S
C1965 C153 1.486 . S
C1981 C143 1.439 . S
C1986 C557 1.498 . S
C1997 C127 1.586 . S
C2002 C603 1.576 . S
C2018 C532 1.551 . S
C2013 C130 1.546 . S
C2034 C808 1.283 . S
C2029 C156 1.234 . S
C2045 C179 1.260 . S
C2050 C854 1.279 . S
C2061 C192 1.492 . S
C2066 C879 1.475 . S
C2082 C932 1.472 . S
C2077 C182 1.443 . S
C2098 C985 1.527 . S
C2093 C166 1.576 . S
C2109 C169 1.551 . S
C2114 C1031 1.570 . S
C2125 C195 1.405 . S
C2130 C1024 1.481 . S
C2141 C218 1.561 . S
C2146 C939 1.505 . S
C2162 C978 1.516 . S
C2157 C231 1.555 . S
C2178 C833 1.288 . S
C2173 C221 1.265 . S
C2194 C900 1.457 . S
C2189 C205 1.483 . S
C2205 C208 1.263 . S
C2210 C787 1.273 . S
