# Generated by pormake.
# Topology nom, (4,4)-cn, num edge types: 1
# Building blocks:
#     Node 0, Type 0, BuildingBlock: NAHDIM_clean_linker_0, # of connection points: 4
#     Node 1, Type 0, BuildingBlock: NAHDIM_clean_linker_0, # of connection points: 4
#     Node 2, Type 0, BuildingBlock: NAHDIM_clean_linker_0, # of connection points: 4
#     Node 3, Type 0, BuildingBlock: NAHDIM_clean_linker_0, # of connection points: 4
#     Node 4, Type 0, BuildingBlock: NAHDIM_clean_linker_0, # of connection points: 4
#     Node 5, Type 0, BuildingBlock: NAHDIM_clean_linker_0, # of connection points: 4
#     Node 6, Type 1, BuildingBlock: QUQFOY_clean_sbu_3, # of connection points: 4
#     Node 7, Type 1, BuildingBlock: QUQFOY_clean_sbu_3, # of connection points: 4
#     Node 8, Type 1, BuildingBlock: QUQFOY_clean_sbu_3, # of connection points: 4
#     Node 9, Type 1, BuildingBlock: QUQFOY_clean_sbu_3, # of connection points: 4
#     Node 10, Type 1, BuildingBlock: QUQFOY_clean_sbu_3, # of connection points: 4
#     Node 11, Type 1, BuildingBlock: QUQFOY_clean_sbu_3, # of connection points: 4
#     Edge 12, Type (0, 1), BuildingBlock: AJUNOK_clean_linker_0, # of connection points: 2
#     Edge 13, Type (0, 1), BuildingBlock: AJUNOK_clean_linker_0, # of connection points: 2
#     Edge 14, Type (0, 1), BuildingBlock: AJUNOK_clean_linker_0, # of connection points: 2
#     Edge 15, Type (0, 1), BuildingBlock: AJUNOK_clean_linker_0, # of connection points: 2
#     Edge 16, Type (0, 1), BuildingBlock: AJUNOK_clean_linker_0, # of connection points: 2
#     Edge 17, Type (0, 1), BuildingBlock: AJUNOK_clean_linker_0, # of connection points: 2
#     Edge 18, Type (0, 1), BuildingBlock: AJUNOK_clean_linker_0, # of connection points: 2
#     Edge 19, Type (0, 1), BuildingBlock: AJUNOK_clean_linker_0, # of connection points: 2
#     Edge 20, Type (0, 1), BuildingBlock: AJUNOK_clean_linker_0, # of connection points: 2
#     Edge 21, Type (0, 1), BuildingBlock: AJUNOK_clean_linker_0, # of connection points: 2
#     Edge 22, Type (0, 1), BuildingBlock: AJUNOK_clean_linker_0, # of connection points: 2
#     Edge 23, Type (0, 1), BuildingBlock: AJUNOK_clean_linker_0, # of connection points: 2
#     Edge 24, Type (0, 1), BuildingBlock: AJUNOK_clean_linker_0, # of connection points: 2
#     Edge 25, Type (0, 1), BuildingBlock: AJUNOK_clean_linker_0, # of connection points: 2
#     Edge 26, Type (0, 1), BuildingBlock: AJUNOK_clean_linker_0, # of connection points: 2
#     Edge 27, Type (0, 1), BuildingBlock: AJUNOK_clean_linker_0, # of connection points: 2
#     Edge 28, Type (0, 1), BuildingBlock: AJUNOK_clean_linker_0, # of connection points: 2
#     Edge 29, Type (0, 1), BuildingBlock: AJUNOK_clean_linker_0, # of connection points: 2
#     Edge 30, Type (0, 1), BuildingBlock: AJUNOK_clean_linker_0, # of connection points: 2
#     Edge 31, Type (0, 1), BuildingBlock: AJUNOK_clean_linker_0, # of connection points: 2
#     Edge 32, Type (0, 1), BuildingBlock: AJUNOK_clean_linker_0, # of connection points: 2
#     Edge 33, Type (0, 1), BuildingBlock: AJUNOK_clean_linker_0, # of connection points: 2
#     Edge 34, Type (0, 1), BuildingBlock: AJUNOK_clean_linker_0, # of connection points: 2
#     Edge 35, Type (0, 1), BuildingBlock: AJUNOK_clean_linker_0, # of connection points: 2
# Relax obj value: 0.048
# Max RMSD: 0.131
# Mean RMSD: 0.100
data_MOF--net-nom--node1-QUQFOY_clean_sbu_3--node2-NAHDIM_clean_linker_0--edge1-AJUNOK_clean_linker_0
_symmetry_space_group_name_H-M    P1
_symmetry_Int_Tables_number       1
_symmetry_cell_setting            triclinic
loop_
_symmetry_equiv_pos_as_xyz
'x, y, z'
_cell_length_a     46.991641
_cell_length_b     48.273033
_cell_length_c     57.061432
_cell_angle_alpha  90.174598
_cell_angle_beta   90.169406
_cell_angle_gamma 120.09085
loop_
_atom_site_label
_atom_site_type_symbol
_atom_site_fract_x
_atom_site_fract_y
_atom_site_fract_z
_atom_type_partial_charge
C0 C 0.18968 0.60726 0.21775 0.0
C1 C 0.19896 0.62402 0.24174 0.0
C2 C 0.14445 0.6023 0.25984 0.0
C3 C 0.13943 0.57157 0.26457 0.0
C4 C 0.10911 0.54732 0.27302 0.0
C5 C 0.08329 0.55383 0.2766 0.0
C6 C 0.08842 0.58483 0.27221 0.0
C7 C 0.1191 0.60874 0.2641 0.0
C8 C 0.10452 0.51461 0.2779 0.0
C9 C 0.0613 0.59254 0.27568 0.0
C10 C 0.95163 0.39351 0.16047 0.0
C11 C 0.94188 0.41651 0.17144 0.0
C12 C 0.94333 0.42403 0.21333 0.0
C13 C 0.94832 0.4551 0.21514 0.0
C14 C 0.96446 0.47437 0.23471 0.0
C15 C 0.97652 0.46248 0.25251 0.0
C16 C 0.9709 0.4308 0.25083 0.0
C17 C 0.95362 0.41171 0.23145 0.0
C18 C 0.96927 0.50768 0.23605 0.0
C19 C 0.98415 0.41744 0.26899 0.0
C20 C 0.84827 0.40977 0.37195 0.0
C21 C 0.86108 0.44282 0.36909 0.0
C22 C 0.89509 0.46386 0.36848 0.0
C23 C 0.91666 0.45161 0.37103 0.0
C24 C 0.90389 0.41879 0.37594 0.0
C25 C 0.86969 0.39823 0.37644 0.0
C26 C 0.90794 0.49892 0.36381 0.0
C27 C 0.92633 0.40517 0.3792 0.0
C28 C 0.15042 0.6416 0.43682 0.0
C29 C 0.13197 0.60631 0.44385 0.0
C30 C 0.07534 0.57434 0.43027 0.0
C31 C 0.05131 0.58065 0.42173 0.0
C32 C 0.02815 0.56043 0.40504 0.0
C33 C 0.0286 0.53276 0.39732 0.0
C34 C 0.0515 0.52512 0.40717 0.0
C35 C 0.07481 0.54615 0.42347 0.0
C36 C 0.00378 0.5691 0.39523 0.0
C37 C 0.05182 0.49515 0.40007 0.0
C38 C 0.05044 0.52794 0.28398 0.0
C39 C 0.02925 0.50745 0.26664 0.0
C40 C -0.00294 0.48389 0.2719 0.0
C41 C 0.98545 0.48093 0.29511 0.0
C42 C 0.95266 0.45891 0.30081 0.0
C43 C 0.94161 0.456 0.32374 0.0
C44 C 0.96298 0.47489 0.34191 0.0
C45 C 0.95188 0.47225 0.36525 0.0
C46 C 0.9738 0.49089 0.38298 0.0
C47 C 0.00662 0.513 0.3779 0.0
C48 C 0.01791 0.51679 0.3545 0.0
C49 C 0.05037 0.53978 0.34858 0.0
C50 C 0.06113 0.54345 0.32551 0.0
C51 C 0.03989 0.52421 0.30749 0.0
C52 C 0.00717 0.50075 0.31304 0.0
C53 C 0.99606 0.49735 0.33652 0.0
C54 C 0.77016 0.3621 0.34333 0.0
C55 C 0.79358 0.39303 0.35649 0.0
O56 O 0.17297 0.62631 0.25093 0.0
O57 O 0.09862 0.59583 0.44506 0.0
O58 O 0.81566 0.38837 0.36964 0.0
O59 O 0.92987 0.40609 0.19378 0.0
H60 H 0.2055 0.61007 0.25388 0.0
H61 H 0.16895 0.58236 0.21946 0.0
H62 H 0.18215 0.62021 0.20541 0.0
H63 H 0.21091 0.60622 0.21023 0.0
H64 H 0.15881 0.56612 0.26162 0.0
H65 H 0.12326 0.63252 0.26052 0.0
H66 H 0.08635 0.49698 0.26532 0.0
H67 H 0.12785 0.51416 0.27632 0.0
H68 H 0.09457 0.50683 0.29581 0.0
H69 H 0.06876 0.61737 0.27032 0.0
H70 H 0.03921 0.57558 0.26539 0.0
H71 H 0.05417 0.58963 0.29443 0.0
H72 H 0.96493 0.44022 0.17236 0.0
H73 H 0.96107 0.4013 0.14244 0.0
H74 H 0.9714 0.39341 0.17113 0.0
H75 H 0.93035 0.36871 0.15977 0.0
H76 H 0.9398 0.46427 0.20112 0.0
H77 H 0.9495 0.3876 0.22978 0.0
H78 H 0.99527 0.52541 0.23203 0.0
H79 H 0.95328 0.51103 0.22336 0.0
H80 H 0.96401 0.51285 0.25399 0.0
H81 H 0.98193 0.39441 0.26328 0.0
H82 H 0.01043 0.43478 0.2728 0.0
H83 H 0.97029 0.41324 0.28554 0.0
H84 H 0.80682 0.41106 0.34253 0.0
H85 H 0.84465 0.45219 0.36667 0.0
H86 H 0.85955 0.37278 0.37913 0.0
H87 H 0.92013 0.5053 0.34644 0.0
H88 H 0.8881 0.50505 0.36393 0.0
H89 H 0.92665 0.51374 0.37721 0.0
H90 H 0.91286 0.38 0.38539 0.0
H91 H 0.93826 0.40593 0.36226 0.0
H92 H 0.94612 0.41994 0.39199 0.0
H93 H 0.13698 0.59307 0.42995 0.0
H94 H 0.17723 0.65049 0.43561 0.0
H95 H 0.14157 0.6444 0.4194 0.0
H96 H 0.14629 0.65646 0.44976 0.0
H97 H 0.05159 0.60219 0.42753 0.0
H98 H 0.09263 0.54062 0.43089 0.0
H99 H 0.00477 0.56954 0.37578 0.0
H100 H 0.97855 0.55061 0.40038 0.0
H101 H 0.00841 0.59275 0.40167 0.0
H102 H 0.06782 0.49031 0.4117 0.0
H103 H 0.02649 0.47418 0.40038 0.0
H104 H 0.06104 0.49775 0.38186 0.0
H105 H 0.03789 0.51006 0.24872 0.0
H106 H 0.93514 0.44378 0.28757 0.0
H107 H 0.91608 0.43861 0.32701 0.0
H108 H 0.96505 0.48864 0.40084 0.0
H109 H 0.06783 0.55536 0.36168 0.0
H110 H 0.08636 0.56152 0.32199 0.0
H111 H 0.75176 0.36526 0.33318 0.0
H112 H 0.78435 0.35606 0.33084 0.0
H113 H 0.75705 0.34167 0.35549 0.0
C114 C 0.33159 0.84269 0.5778 0.0
C115 C 0.35387 0.82821 0.57465 0.0
C116 C 0.39849 0.86917 0.55154 0.0
C117 C 0.43033 0.87383 0.55116 0.0
C118 C 0.45734 0.90382 0.54551 0.0
C119 C 0.45211 0.92954 0.54014 0.0
C120 C 0.41987 0.92489 0.54082 0.0
C121 C 0.39335 0.8945 0.54596 0.0
C122 C 0.49128 0.90781 0.54465 0.0
C123 C 0.41323 0.95179 0.53558 0.0
C124 C 0.60396 0.06214 0.66461 0.0
C125 C 0.58684 0.07336 0.64741 0.0
C126 C 0.58284 0.06395 0.60523 0.0
C127 C 0.55233 0.06191 0.60137 0.0
C128 C 0.53378 0.04687 0.58118 0.0
C129 C 0.54593 0.03342 0.56469 0.0
C130 C 0.57737 0.03677 0.56808 0.0
C131 C 0.59567 0.05253 0.58819 0.0
C132 C 0.50082 0.04459 0.57777 0.0
C133 C 0.59107 0.02257 0.55098 0.0
C134 C 0.59582 0.15629 0.43284 0.0
C135 C 0.56648 0.14597 0.44513 0.0
C136 C 0.54654 0.11362 0.45107 0.0
C137 C 0.55687 0.09146 0.44524 0.0
C138 C 0.58645 0.10194 0.43264 0.0
C139 C 0.60522 0.13421 0.4262 0.0
C140 C 0.5144 0.10323 0.46344 0.0
C141 C 0.59842 0.07919 0.42614 0.0
C142 C 0.39362 0.85894 0.38019 0.0
C143 C 0.424 0.88175 0.36599 0.0
C144 C 0.4461 0.93471 0.38388 0.0
C145 C 0.43313 0.95291 0.393 0.0
C146 C 0.44967 0.97567 0.41075 0.0
C147 C 0.48025 0.98066 0.41912 0.0
C148 C 0.49426 0.96338 0.40914 0.0
C149 C 0.47702 0.94056 0.39159 0.0
C150 C 0.43422 0.99387 0.42092 0.0
C151 C 0.52732 0.96887 0.4172 0.0
C152 C 0.47994 0.96106 0.53298 0.0
C153 C 0.50023 0.98201 0.55046 0.0
C154 C 0.52459 0.01331 0.54516 0.0
C155 C 0.52819 0.02451 0.52187 0.0
C156 C 0.55086 0.05645 0.51612 0.0
C157 C 0.55375 0.06723 0.49315 0.0
C158 C 0.53421 0.04643 0.47505 0.0
C159 C 0.5363 0.05722 0.45173 0.0
C160 C 0.51803 0.03535 0.43398 0.0
C161 C 0.49712 0.003 0.43893 0.0
C162 C 0.49311 0.99217 0.46231 0.0
C163 C 0.47072 0.96015 0.46803 0.0
C164 C 0.46644 0.94986 0.49114 0.0
C165 C 0.4848 0.97107 0.50937 0.0
C166 C 0.50841 0.00314 0.50388 0.0
C167 C 0.51195 0.01393 0.48039 0.0
C168 C 0.66388 0.23089 0.44342 0.0
C169 C 0.62627 0.21259 0.44304 0.0
O170 O 0.37263 0.83932 0.5545 0.0
O171 O 0.42862 0.91244 0.36721 0.0
O172 O 0.61543 0.18747 0.4272 0.0
O173 O 0.60022 0.07623 0.62533 0.0
H174 H 0.37071 0.835 0.59008 0.0
H175 H 0.34655 0.86852 0.58226 0.0
H176 H 0.31724 0.83974 0.56154 0.0
H177 H 0.31422 0.8309 0.59251 0.0
H178 H 0.43384 0.85373 0.55487 0.0
H179 H 0.3685 0.89036 0.54507 0.0
H180 H 0.50715 0.92542 0.55819 0.0
H181 H 0.49091 0.88492 0.54774 0.0
H182 H 0.50261 0.91739 0.52732 0.0
H183 H 0.38799 0.94576 0.54074 0.0
H184 H 0.43123 0.97403 0.54488 0.0
H185 H 0.41596 0.95677 0.51649 0.0
H186 H 0.56038 0.05438 0.64733 0.0
H187 H 0.59345 0.05947 0.68244 0.0
H188 H 0.60022 0.03852 0.6589 0.0
H189 H 0.63081 0.07941 0.66542 0.0
H190 H 0.54288 0.07181 0.61419 0.0
H191 H 0.61948 0.0547 0.59123 0.0
H192 H 0.48097 0.01953 0.58073 0.0
H193 H 0.49722 0.06044 0.59008 0.0
H194 H 0.49829 0.05102 0.55952 0.0
H195 H 0.61516 0.02586 0.55682 0.0
H196 H 0.57351 0.99656 0.54871 0.0
H197 H 0.59432 0.03399 0.5336 0.0
H198 H 0.61815 0.20322 0.46111 0.0
H199 H 0.55903 0.16319 0.44975 0.0
H200 H 0.62788 0.14257 0.41653 0.0
H201 H 0.51677 0.09826 0.4821 0.0
H202 H 0.50723 0.12193 0.46282 0.0
H203 H 0.49436 0.08087 0.45547 0.0
H204 H 0.62419 0.092 0.41977 0.0
H205 H 0.59683 0.06431 0.44143 0.0
H206 H 0.5825 0.06281 0.41203 0.0
H207 H 0.44536 0.88101 0.37366 0.0
H208 H 0.38949 0.83419 0.37927 0.0
H209 H 0.39731 0.86661 0.39886 0.0
H210 H 0.37138 0.8589 0.37348 0.0
H211 H 0.40952 0.94862 0.38657 0.0
H212 H 0.48801 0.92774 0.38372 0.0
H213 H 0.43041 0.98923 0.44003 0.0
H214 H 0.45106 0.01997 0.41865 0.0
H215 H 0.4102 0.9871 0.41255 0.0
H216 H 0.53583 0.95506 0.40663 0.0
H217 H 0.54596 0.99472 0.41612 0.0
H218 H 0.52579 0.96169 0.43583 0.0
H219 H 0.49676 0.97394 0.56851 0.0
H220 H 0.56635 0.07351 0.52937 0.0
H221 H 0.57151 0.09208 0.48973 0.0
H222 H 0.52018 0.04359 0.41605 0.0
H223 H 0.45588 0.94275 0.45475 0.0
H224 H 0.44865 0.92501 0.49454 0.0
H225 H 0.67379 0.24083 0.42584 0.0
H226 H 0.67329 0.25084 0.45637 0.0
H227 H 0.67301 0.21452 0.44854 0.0
C228 C 0.59888 0.40876 0.75762 0.0
C229 C 0.59114 0.39693 0.73217 0.0
C230 C 0.55417 0.41563 0.7179 0.0
C231 C 0.5783 0.44823 0.71606 0.0
C232 C 0.57004 0.47087 0.70831 0.0
C233 C 0.53699 0.46091 0.70259 0.0
C234 C 0.51261 0.42823 0.70456 0.0
C235 C 0.52163 0.40602 0.71204 0.0
C236 C 0.5966 0.50555 0.7064 0.0
C237 C 0.47698 0.41682 0.69903 0.0
C238 C 0.43682 0.55267 0.8234 0.0
C239 C 0.44067 0.54024 0.80045 0.0
C240 C 0.4794 0.55213 0.76871 0.0
C241 C 0.45652 0.52738 0.75409 0.0
C242 C 0.4666 0.51866 0.73368 0.0
C243 C 0.50025 0.53524 0.72753 0.0
C244 C 0.52317 0.56111 0.74155 0.0
C245 C 0.51238 0.56932 0.76199 0.0
C246 C 0.44137 0.49093 0.71912 0.0
C247 C 0.55914 0.57944 0.73528 0.0
C248 C 0.45564 0.60676 0.59277 0.0
C249 C 0.43418 0.57824 0.60433 0.0
C250 C 0.44442 0.55647 0.61061 0.0
C251 C 0.47722 0.56413 0.60603 0.0
C252 C 0.49876 0.59288 0.59422 0.0
C253 C 0.48738 0.61349 0.58731 0.0
C254 C 0.42008 0.52529 0.62199 0.0
C255 C 0.53386 0.602 0.58898 0.0
C256 C 0.52575 0.37801 0.5502 0.0
C257 C 0.54003 0.41178 0.54025 0.0
C258 C 0.51199 0.44071 0.55077 0.0
C259 C 0.48123 0.43237 0.55993 0.0
C260 C 0.47763 0.45282 0.57561 0.0
C261 C 0.50545 0.48254 0.58172 0.0
C262 C 0.53611 0.49216 0.571 0.0
C263 C 0.53908 0.47104 0.55562 0.0
C264 C 0.44448 0.44208 0.58646 0.0
C265 C 0.56595 0.52417 0.57654 0.0
C266 C 0.52772 0.48486 0.69538 0.0
C267 C 0.52184 0.50141 0.71304 0.0
C268 C 0.51147 0.5232 0.70774 0.0
C269 C 0.50775 0.52953 0.68411 0.0
C270 C 0.49848 0.55214 0.67813 0.0
C271 C 0.49318 0.55692 0.65484 0.0
C272 C 0.49621 0.53875 0.63671 0.0
C273 C 0.48889 0.54191 0.61311 0.0
C274 C 0.49232 0.52346 0.5956 0.0
C275 C 0.50315 0.50206 0.60093 0.0
C276 C 0.51063 0.49857 0.62437 0.0
C277 C 0.52153 0.47713 0.6303 0.0
C278 C 0.52789 0.47314 0.65348 0.0
C279 C 0.52308 0.49003 0.67166 0.0
C280 C 0.51286 0.51233 0.66603 0.0
C281 C 0.50675 0.5167 0.64234 0.0
C282 C 0.44165 0.67282 0.59741 0.0
C283 C 0.42741 0.63669 0.59962 0.0
O284 O 0.5609 0.39275 0.72537 0.0
O285 O 0.51497 0.41881 0.53772 0.0
O286 O 0.44631 0.62803 0.5863 0.0
O287 O 0.47059 0.55937 0.78955 0.0
H288 H 0.61074 0.41503 0.72074 0.0
H289 H 0.62287 0.41151 0.76312 0.0
H290 H 0.57942 0.39177 0.76962 0.0
H291 H 0.60051 0.43242 0.75939 0.0
H292 H 0.6036 0.45642 0.72074 0.0
H293 H 0.50316 0.38093 0.71357 0.0
H294 H 0.59196 0.52006 0.71933 0.0
H295 H 0.62154 0.50911 0.70967 0.0
H296 H 0.59604 0.51472 0.68868 0.0
H297 H 0.46077 0.39096 0.70278 0.0
H298 H 0.46845 0.43072 0.70944 0.0
H299 H 0.47433 0.42096 0.68023 0.0
H300 H 0.43365 0.51444 0.80058 0.0
H301 H 0.43528 0.53481 0.8367 0.0
H302 H 0.46213 0.572 0.82899 0.0
H303 H 0.39804 0.56134 0.81716 0.0
H304 H 0.43075 0.5143 0.7587 0.0
H305 H 0.52983 0.5886 0.77318 0.0
H306 H 0.4404 0.4993 0.7012 0.0
H307 H 0.4485 0.4723 0.71746 0.0
H308 H 0.41634 0.47981 0.72678 0.0
H309 H 0.57322 0.60104 0.74647 0.0
H310 H 0.56986 0.56367 0.7374 0.0
H311 H 0.56205 0.58685 0.71663 0.0
H312 H 0.42927 0.63177 0.61849 0.0
H313 H 0.40928 0.5727 0.60802 0.0
H314 H 0.50356 0.63548 0.57814 0.0
H315 H 0.42559 0.52652 0.64101 0.0
H316 H 0.39437 0.52016 0.61992 0.0
H317 H 0.42195 0.50505 0.6144 0.0
H318 H 0.54866 0.62714 0.58291 0.0
H319 H 0.5458 0.59892 0.6048 0.0
H320 H 0.53407 0.586 0.57506 0.0
H321 H 0.55866 0.42819 0.55321 0.0
H322 H 0.5454 0.37178 0.55224 0.0
H323 H 0.51494 0.37686 0.56771 0.0
H324 H 0.50614 0.36006 0.53854 0.0
H325 H 0.46038 0.40911 0.55565 0.0
H326 H 0.56262 0.47797 0.54768 0.0
H327 H 0.44611 0.43998 0.60573 0.0
H328 H 0.43704 0.46025 0.58324 0.0
H329 H 0.42509 0.41866 0.57937 0.0
H330 H 0.58695 0.52956 0.56484 0.0
H331 H 0.55982 0.54351 0.57488 0.0
H332 H 0.57372 0.52427 0.59495 0.0
H333 H 0.52418 0.49634 0.73125 0.0
H334 H 0.49514 0.56628 0.69144 0.0
H335 H 0.4861 0.57466 0.65127 0.0
H336 H 0.48633 0.52569 0.57757 0.0
H337 H 0.5251 0.46299 0.61713 0.0
H338 H 0.53612 0.45624 0.65701 0.0
H339 H 0.4404 0.67935 0.57893 0.0
H340 H 0.42789 0.6809 0.60865 0.0
H341 H 0.46779 0.68562 0.60318 0.0
C342 C 0.19122 0.58564 0.92238 0.0
C343 C 0.2066 0.5842 0.89903 0.0
C344 C 0.15601 0.54742 0.87734 0.0
C345 C 0.14467 0.56904 0.87367 0.0
C346 C 0.11259 0.55819 0.86551 0.0
C347 C 0.09159 0.52519 0.86093 0.0
C348 C 0.10353 0.50366 0.86348 0.0
C349 C 0.13576 0.5152 0.87149 0.0
C350 C 0.1007 0.58179 0.86256 0.0
C351 C 0.08181 0.46829 0.85875 0.0
C352 C 0.89078 0.41579 0.9852 0.0
C353 C 0.91391 0.42123 0.96569 0.0
C354 C 0.94476 0.46058 0.93552 0.0
C355 C 0.95094 0.43964 0.92216 0.0
C356 C 0.96897 0.44985 0.90137 0.0
C357 C 0.98124 0.48169 0.89377 0.0
C358 C 0.97506 0.50285 0.90708 0.0
C359 C 0.95677 0.49194 0.92781 0.0
C360 C 0.97531 0.42667 0.88767 0.0
C361 C 0.98798 0.53696 0.89943 0.0
C362 C 0.84284 0.42874 0.77474 0.0
C363 C 0.85449 0.4081 0.78111 0.0
C364 C 0.88836 0.41919 0.78211 0.0
C365 C 0.91092 0.45172 0.77714 0.0
C366 C 0.89918 0.47214 0.76976 0.0
C367 C 0.86518 0.46018 0.76835 0.0
C368 C 0.90002 0.39639 0.78915 0.0
C369 C 0.92251 0.50686 0.76413 0.0
C370 C 0.13482 0.49374 0.7076 0.0
C371 C 0.11977 0.51147 0.69516 0.0
C372 C 0.06372 0.48866 0.70836 0.0
C373 C 0.04305 0.45896 0.71849 0.0
C374 C 0.02154 0.45595 0.73657 0.0
C375 C 0.02025 0.48328 0.74411 0.0
C376 C 0.03955 0.51296 0.73272 0.0
C377 C 0.06137 0.51539 0.71504 0.0
C378 C 0.00107 0.42388 0.74817 0.0
C379 C 0.03786 0.54225 0.73973 0.0
C380 C 0.05626 0.51272 0.85604 0.0
C381 C 0.03567 0.50605 0.87534 0.0
C382 C 0.00184 0.49292 0.87248 0.0
C383 C 0.98808 0.48733 0.84973 0.0
C384 C 0.9543 0.47544 0.84626 0.0
C385 C 0.94079 0.46887 0.82383 0.0
C386 C 0.96041 0.47311 0.80406 0.0
C387 C 0.94662 0.46494 0.78127 0.0
C388 C 0.96672 0.46898 0.76207 0.0
C389 C 0.00051 0.48122 0.76496 0.0
C390 C 0.01487 0.49004 0.78756 0.0
C391 C 0.04886 0.50274 0.79109 0.0
C392 C 0.06264 0.51094 0.81343 0.0
C393 C 0.04284 0.50593 0.83316 0.0
C394 C 0.00858 0.49326 0.83001 0.0
C395 C 0.99464 0.48566 0.80717 0.0
C396 C 0.76081 0.40457 0.79496 0.0
C397 C 0.78649 0.3953 0.78845 0.0
O398 O 0.18583 0.55623 0.88694 0.0
O399 O 0.0862 0.4912 0.69243 0.0
O400 O 0.81035 0.41932 0.77476 0.0
O401 O 0.92738 0.45139 0.95579 0.0
H402 H 0.21145 0.60511 0.88807 0.0
H403 H 0.16843 0.58663 0.91936 0.0
H404 H 0.18499 0.56419 0.93314 0.0
H405 H 0.20864 0.60746 0.93239 0.0
H406 H 0.1604 0.59422 0.87754 0.0
H407 H 0.14495 0.49884 0.8741 0.0
H408 H 0.08203 0.57736 0.87614 0.0
H409 H 0.12101 0.60699 0.86419 0.0
H410 H 0.08868 0.57842 0.84517 0.0
H411 H 0.09514 0.45489 0.86106 0.0
H412 H 0.06052 0.45827 0.87085 0.0
H413 H 0.07197 0.46439 0.8406 0.0
H414 H 0.93271 0.41415 0.96946 0.0
H415 H 0.90276 0.41239 0.0012 0.0
H416 H 0.89526 0.44008 0.99077 0.0
H417 H 0.84537 0.37978 0.97207 0.0
H418 H 0.94192 0.4153 0.92787 0.0
H419 H 0.95188 0.50792 0.93819 0.0
H420 H 0.96519 0.42379 0.86965 0.0
H421 H 0.00219 0.43632 0.88614 0.0
H422 H 0.96409 0.4027 0.89598 0.0
H423 H 0.9798 0.55003 0.91114 0.0
H424 H 0.01528 0.54983 0.89929 0.0
H425 H 0.97958 0.53731 0.88128 0.0
H426 H 0.79775 0.3935 0.80517 0.0
H427 H 0.83727 0.38339 0.7854 0.0
H428 H 0.85585 0.47573 0.76312 0.0
H429 H 0.90989 0.40199 0.80731 0.0
H430 H 0.87983 0.37104 0.78853 0.0
H431 H 0.92018 0.3992 0.7775 0.0
H432 H 0.90939 0.51985 0.7594 0.0
H433 H 0.93875 0.51899 0.77945 0.0
H434 H 0.93849 0.50852 0.74927 0.0
H435 H 0.12467 0.53233 0.70642 0.0
H436 H 0.16181 0.50969 0.70971 0.0
H437 H 0.12387 0.48619 0.72529 0.0
H438 H 0.13006 0.47206 0.69756 0.0
H439 H 0.04486 0.43843 0.71286 0.0
H440 H 0.07681 0.53814 0.70655 0.0
H441 H 0.0066 0.42604 0.76724 0.0
H442 H 0.97457 0.41596 0.74611 0.0
H443 H 0.0056 0.40518 0.74065 0.0
H444 H 0.05092 0.5622 0.72714 0.0
H445 H 0.01183 0.53635 0.74095 0.0
H446 H 0.04926 0.55055 0.75731 0.0
H447 H 0.046 0.51009 0.8929 0.0
H448 H 0.93797 0.47117 0.86087 0.0
H449 H 0.91464 0.45992 0.82225 0.0
H450 H 0.95589 0.46222 0.74469 0.0
H451 H 0.06525 0.50652 0.77663 0.0
H452 H 0.08893 0.52072 0.81511 0.0
H453 H 0.74881 0.40718 0.77896 0.0
H454 H 0.74169 0.3861 0.80643 0.0
H455 H 0.7728 0.42774 0.80461 0.0
C456 C 0.41525 0.81749 0.88556 0.0
C457 C 0.42795 0.81728 0.9103 0.0
C458 C 0.46408 0.87377 0.92146 0.0
C459 C 0.4391 0.88148 0.92443 0.0
C460 C 0.44665 0.91209 0.93212 0.0
C461 C 0.47973 0.93544 0.93681 0.0
C462 C 0.50489 0.9278 0.93371 0.0
C463 C 0.49666 0.89705 0.92605 0.0
C464 C 0.41931 0.91956 0.93526 0.0
C465 C 0.54054 0.95221 0.93819 0.0
C466 C 0.58388 0.12229 0.8179 0.0
C467 C 0.57733 0.10344 0.83987 0.0
C468 C 0.54038 0.08293 0.87308 0.0
C469 C 0.56209 0.0778 0.88697 0.0
C470 C 0.55149 0.06 0.90763 0.0
C471 C 0.5183 0.04656 0.91453 0.0
C472 C 0.49667 0.05281 0.90127 0.0
C473 C 0.50812 0.07123 0.88076 0.0
C474 C 0.57558 0.05451 0.92159 0.0
C475 C 0.46128 0.03916 0.90839 0.0
C476 C 0.57655 0.15368 0.06006 0.0
C477 C 0.59547 0.14131 0.05113 0.0
C478 C 0.58075 0.112 0.03913 0.0
C479 C 0.54606 0.09399 0.03713 0.0
C480 C 0.52683 0.10695 0.04547 0.0
C481 C 0.54239 0.13698 0.05669 0.0
C482 C 0.60227 0.09979 0.02944 0.0
C483 C 0.48984 0.08848 0.04342 0.0
C484 C 0.51552 0.86817 0.09481 0.0
C485 C 0.49733 0.88554 0.10242 0.0
C486 C 0.51761 0.94005 0.08928 0.0
C487 C 0.54651 0.96379 0.07917 0.0
C488 C 0.54594 0.98551 0.06323 0.0
C489 C 0.51571 0.98409 0.05805 0.0
C490 C 0.48663 0.96136 0.06951 0.0
C491 C 0.48783 0.93931 0.08489 0.0
C492 C 0.5778 0.00989 0.05205 0.0
C493 C 0.4543 0.96006 0.06519 0.0
C494 C 0.48818 0.96798 0.9448 0.0
C495 C 0.49441 0.99098 0.92774 0.0
C496 C 0.50582 0.02293 0.93385 0.0
C497 C 0.50997 0.03213 0.95773 0.0
C498 C 0.52116 0.06401 0.96451 0.0
C499 C 0.52712 0.07317 0.98801 0.0
C500 C 0.52228 0.05082 0.00554 0.0
C501 C 0.5301 0.06014 0.02928 0.0
C502 C 0.52592 0.03746 0.04614 0.0
C503 C 0.51458 0.0056 0.03999 0.0
C504 C 0.50612 0.99565 0.01642 0.0
C505 C 0.49469 0.96374 0.0096 0.0
C506 C 0.48783 0.95442 0.98625 0.0
C507 C 0.49285 0.9768 0.96873 0.0
C508 C 0.50381 0.009 0.97521 0.0
C509 C 0.51021 0.01839 -0.00088 0.0
C510 C 0.57064 0.21172 0.09062 0.0
C511 C 0.58886 0.20758 0.06996 0.0
O512 O 0.45816 0.84452 0.91409 0.0
O513 O 0.51925 0.91817 0.10315 0.0
O514 O 0.59165 0.18067 0.0732 0.0
O515 O 0.5496 0.09825 0.85209 0.0
H516 H 0.40983 0.81637 0.92323 0.0
H517 H 0.39123 0.79536 0.88249 0.0
H518 H 0.43297 0.81903 0.87208 0.0
H519 H 0.41161 0.83835 0.88341 0.0
H520 H 0.41374 0.86399 0.92068 0.0
H521 H 0.51574 0.89096 0.92358 0.0
H522 H 0.42322 0.93924 0.92329 0.0
H523 H 0.39467 0.89849 0.93163 0.0
H524 H 0.41974 0.92795 0.95346 0.0
H525 H 0.55696 0.94204 0.93588 0.0
H526 H 0.54831 0.97246 0.92588 0.0
H527 H 0.54377 0.96194 0.95627 0.0
H528 H 0.57878 0.08113 0.83805 0.0
H529 H 0.62887 0.16385 0.82501 0.0
H530 H 0.58073 0.10517 0.80335 0.0
H531 H 0.56066 0.12269 0.81362 0.0
H532 H 0.58731 0.0871 0.88162 0.0
H533 H 0.49157 0.07555 0.87017 0.0
H534 H 0.57635 0.06216 0.94005 0.0
H535 H 0.56739 0.02861 0.92167 0.0
H536 H 0.60088 0.06772 0.91437 0.0
H537 H 0.44844 0.04876 0.89765 0.0
H538 H 0.44814 0.01271 0.90639 0.0
H539 H 0.45994 0.04459 0.92715 0.0
H540 H 0.57447 0.20493 0.05372 0.0
H541 H 0.62189 0.15465 0.05376 0.0
H542 H 0.52783 0.14668 0.06377 0.0
H543 H 0.59395 0.08962 0.0116 0.0
H544 H 0.62851 0.11892 0.02864 0.0
H545 H 0.60042 0.08045 0.04086 0.0
H546 H 0.47857 0.10279 0.0492 0.0
H547 H 0.48246 0.08071 0.02498 0.0
H548 H 0.4799 0.06657 0.0543 0.0
H549 H 0.4779 0.8797 0.08892 0.0
H550 H 0.49833 0.84189 0.0942 0.0
H551 H 0.52585 0.87618 0.07701 0.0
H552 H 0.53607 0.87337 0.10703 0.0
H553 H 0.56943 0.96449 0.08316 0.0
H554 H 0.46562 0.92155 0.0935 0.0
H555 H 0.57431 0.01313 0.03321 0.0
H556 H 0.58677 0.03318 0.06112 0.0
H557 H 0.59711 0.00314 0.05365 0.0
H558 H 0.43497 0.94381 0.0776 0.0
H559 H 0.45748 0.98439 0.06681 0.0
H560 H 0.44573 0.95144 0.04707 0.0
H561 H 0.49207 0.98424 0.90937 0.0
H562 H 0.5257 0.08222 0.95166 0.0
H563 H 0.53605 0.09808 0.99227 0.0
H564 H 0.53302 0.04503 0.06419 0.0
H565 H 0.4911 0.94558 0.02221 0.0
H566 H 0.47918 0.92955 0.98206 0.0
H567 H 0.5836 0.21366 0.1074 0.0
H568 H 0.56883 0.23363 0.08827 0.0
H569 H 0.54534 0.19085 0.09169 0.0
C570 C 0.62546 0.42595 0.06086 0.0
C571 C 0.64146 0.43978 0.08474 0.0
C572 C 0.62188 0.47686 0.09497 0.0
C573 C 0.58915 0.45317 0.09964 0.0
C574 C 0.56591 0.46159 0.10662 0.0
C575 C 0.57549 0.49427 0.10893 0.0
C576 C 0.60829 0.51816 0.10427 0.0
C577 C 0.63108 0.50908 0.09738 0.0
C578 C 0.53101 0.43557 0.11139 0.0
C579 C 0.61914 0.55325 0.10641 0.0
C580 C 0.45621 0.48879 0.97613 0.0
C581 C 0.46751 0.51475 0.99504 0.0
C582 C 0.46104 0.50764 0.03743 0.0
C583 C 0.48897 0.53668 0.04386 0.0
C584 C 0.503 0.54066 0.06623 0.0
C585 C 0.48885 0.51506 0.08234 0.0
C586 C 0.45909 0.48686 0.07656 0.0
C587 C 0.44534 0.48371 0.05418 0.0
C588 C 0.53416 0.57143 0.0721 0.0
C589 C 0.44321 0.45909 0.09332 0.0
C590 C 0.42879 0.57947 0.21682 0.0
C591 C 0.45825 0.59907 0.20507 0.0
C592 C 0.47904 0.58735 0.19852 0.0
C593 C 0.46935 0.55493 0.20307 0.0
C594 C 0.43939 0.53512 0.21487 0.0
C595 C 0.41983 0.54794 0.22205 0.0
C596 C 0.51142 0.60978 0.18698 0.0
C597 C 0.4279 0.50041 0.21992 0.0
C598 C 0.61826 0.46395 0.26167 0.0
C599 C 0.59027 0.45912 0.27791 0.0
C600 C 0.57283 0.49584 0.26313 0.0
C601 C 0.58797 0.52793 0.2564 0.0
C602 C 0.57356 0.53812 0.23944 0.0
C603 C 0.54299 0.51564 0.22939 0.0
C604 C 0.52667 0.4835 0.23712 0.0
C605 C 0.54174 0.47394 0.25397 0.0
C606 C 0.59143 0.57257 0.23166 0.0
C607 C 0.4936 0.45909 0.22719 0.0
C608 C 0.55093 0.50348 0.11559 0.0
C609 C 0.53227 0.50628 0.09775 0.0
C610 C 0.50862 0.5149 0.10256 0.0
C611 C 0.50389 0.52179 0.12586 0.0
C612 C 0.48109 0.53154 0.13133 0.0
C613 C 0.47675 0.53818 0.15443 0.0
C614 C 0.495 0.53522 0.17288 0.0
C615 C 0.49112 0.54213 0.19643 0.0
C616 C 0.508 0.53664 0.21441 0.0
C617 C 0.52906 0.52484 0.20954 0.0
C618 C 0.53497 0.5199 0.18609 0.0
C619 C 0.55761 0.5099 0.1806 0.0
C620 C 0.56316 0.50486 0.15751 0.0
C621 C 0.54577 0.50897 0.13907 0.0
C622 C 0.52247 0.51859 0.1442 0.0
C623 C 0.51758 0.52473 0.16773 0.0
C624 C 0.3579 0.58377 0.20925 0.0
C625 C 0.3954 0.60302 0.20757 0.0
O626 O 0.64522 0.46989 0.08793 0.0
O627 O 0.58864 0.48704 0.27876 0.0
O628 O 0.40863 0.59059 0.2232 0.0
O629 O 0.44927 0.50139 0.01514 0.0
H630 H 0.62562 0.42363 0.09883 0.0
H631 H 0.60067 0.42337 0.05978 0.0
H632 H 0.64066 0.44189 0.04645 0.0
H633 H 0.62267 0.40188 0.05827 0.0
H634 H 0.5813 0.42806 0.09776 0.0
H635 H 0.65628 0.52718 0.09371 0.0
H636 H 0.51406 0.43764 0.09885 0.0
H637 H 0.52775 0.41121 0.10975 0.0
H638 H 0.52375 0.43852 0.12932 0.0
H639 H 0.64552 0.56891 0.10202 0.0
H640 H 0.6041 0.55905 0.09454 0.0
H641 H 0.61502 0.5587 0.12458 0.0
H642 H 0.49395 0.52313 -0.00152 0.0
H643 H 0.47073 0.49876 0.95987 0.0
H644 H 0.45992 0.46904 0.98235 0.0
H645 H 0.42969 0.47879 0.97201 0.0
H646 H 0.50044 0.55589 0.03126 0.0
H647 H 0.42337 0.46168 0.04915 0.0
H648 H 0.55542 0.56746 0.0708 0.0
H649 H 0.53831 0.59103 0.05994 0.0
H650 H 0.53331 0.57903 0.09035 0.0
H651 H 0.4191 0.43966 0.08673 0.0
H652 H 0.45972 0.4491 0.09609 0.0
H653 H 0.4395 0.4674 0.11059 0.0
H654 H 0.40179 0.60014 0.18924 0.0
H655 H 0.46513 0.62367 0.20142 0.0
H656 H 0.39697 0.53314 0.23124 0.0
H657 H 0.50974 0.60413 0.16799 0.0
H658 H 0.51805 0.63523 0.18892 0.0
H659 H 0.53153 0.60681 0.19455 0.0
H660 H 0.40148 0.48689 0.22477 0.0
H661 H 0.43175 0.48863 0.20448 0.0
H662 H 0.44243 0.49897 0.23475 0.0
H663 H 0.56706 0.43896 0.27086 0.0
H664 H 0.62002 0.44186 0.26088 0.0
H665 H 0.61351 0.46941 0.24366 0.0
H666 H 0.64211 0.48416 0.26795 0.0
H667 H 0.61169 0.54478 0.26394 0.0
H668 H 0.52895 0.44945 0.26002 0.0
H669 H 0.59761 0.57374 0.21278 0.0
H670 H 0.57519 0.58298 0.23368 0.0
H671 H 0.61446 0.58737 0.24178 0.0
H672 H 0.48303 0.43568 0.23626 0.0
H673 H 0.47608 0.4681 0.22862 0.0
H674 H 0.49617 0.45527 0.20829 0.0
H675 H 0.53598 0.50128 0.0798 0.0
H676 H 0.46648 0.53423 0.11778 0.0
H677 H 0.45878 0.54551 0.15767 0.0
H678 H 0.50424 0.54107 0.23248 0.0
H679 H 0.57156 0.50614 0.19408 0.0
H680 H 0.58103 0.49739 0.15431 0.0
H681 H 0.34971 0.58534 0.22721 0.0
H682 H 0.34662 0.59288 0.19652 0.0
H683 H 0.34901 0.55821 0.20509 0.0
C684 C 0.70737 0.42583 0.40641 0.0
O685 O 0.71207 0.45338 0.41158 0.0
Cd686 Cd 0.66394 0.45688 0.42217 0.0
O687 O 0.67868 0.40162 0.4069 0.0
Cd688 Cd 0.62131 0.38267 0.41506 0.0
C689 C 0.61935 0.42893 0.37127 0.0
O690 O 0.62888 0.41538 0.44957 0.0
O691 O 0.57951 0.38869 0.4351 0.0
O692 O 0.6217 0.34099 0.4377 0.0
C693 C 0.59842 0.4061 0.45153 0.0
O694 O 0.63676 0.45243 0.38489 0.0
C695 C 0.60483 0.31819 0.4236 0.0
O696 O 0.61091 0.40046 0.37738 0.0
O697 O 0.59357 0.32474 0.40544 0.0
C698 C 0.29168 0.58895 0.57146 0.0
O699 O 0.27251 0.56405 0.55976 0.0
Cd700 Cd 0.21713 0.55378 0.5526 0.0
O701 O 0.28307 0.60921 0.57688 0.0
Cd702 Cd 0.23824 0.62043 0.57024 0.0
C703 C 0.18908 0.56089 0.60642 0.0
O704 O 0.21842 0.59748 0.53103 0.0
O705 O 0.18764 0.61011 0.55124 0.0
O706 O 0.2766 0.67306 0.55538 0.0
C707 C 0.19377 0.60166 0.5317 0.0
O708 O 0.18742 0.54229 0.58993 0.0
C709 C 0.27358 0.68865 0.57216 0.0
O710 O 0.20729 0.59105 0.60436 0.0
O711 O 0.25394 0.67254 0.58849 0.0
C712 C 0.70616 0.27447 0.74067 0.0
O713 O 0.7132 0.25449 0.73184 0.0
Cd714 Cd 0.66952 0.20291 0.71843 0.0
O715 O 0.67675 0.26902 0.74102 0.0
Cd716 Cd 0.61924 0.23323 0.72977 0.0
C717 C 0.62334 0.18372 0.76994 0.0
O718 O 0.63251 0.21258 0.69626 0.0
O719 O 0.58099 0.18804 0.70456 0.0
O720 O 0.62495 0.28232 0.71516 0.0
C721 C 0.60388 0.18958 0.69182 0.0
O722 O 0.64194 0.18006 0.75558 0.0
C723 C 0.60101 0.28104 0.72633 0.0
O724 O 0.61225 0.20249 0.76563 0.0
O725 O 0.58384 0.2561 0.73858 0.0
C726 C 0.32895 0.58422 0.91842 0.0
O727 O 0.32727 0.55853 0.92557 0.0
Cd728 Cd 0.37544 0.55402 0.9302 0.0
O729 O 0.35673 0.60911 0.91483 0.0
Cd730 Cd 0.41699 0.63375 0.91704 0.0
C731 C 0.40771 0.58067 0.87432 0.0
O732 O 0.4125 0.60231 0.94983 0.0
O733 O 0.4622 0.63109 0.93798 0.0
O734 O 0.41066 0.67661 0.93281 0.0
C735 C 0.44225 0.60965 0.95186 0.0
O736 O 0.39308 0.55853 0.88936 0.0
C737 C 0.43108 0.69823 0.91928 0.0
O738 O 0.41858 0.61001 0.87945 0.0
O739 O 0.44697 0.69033 0.90536 0.0
C740 C 0.7637 0.43795 0.07637 0.0
O741 O 0.78968 0.46088 0.06774 0.0
Cd742 Cd 0.83191 0.44903 0.05556 0.0
O743 O 0.76017 0.41017 0.07715 0.0
Cd744 Cd 0.78345 0.37692 0.06727 0.0
C745 C 0.84774 0.41664 0.10429 0.0
O746 O 0.80733 0.40262 0.02995 0.0
O747 O 0.81817 0.36629 0.04209 0.0
O748 O 0.72831 0.34281 0.05289 0.0
C749 C 0.82062 0.38571 0.02625 0.0
O750 O 0.85706 0.43976 0.08998 0.0
C751 C 0.72175 0.3188 0.06548 0.0
O752 O 0.82042 0.39087 0.10114 0.0
O753 O 0.74473 0.32121 0.07876 0.0
C754 C 0.31757 0.74845 0.22792 0.0
O755 O 0.31729 0.77294 0.22022 0.0
Cd756 Cd 0.36913 0.82165 0.21495 0.0
O757 O 0.3448 0.74946 0.23139 0.0
Cd758 Cd 0.40449 0.7827 0.22779 0.0
C759 C 0.40374 0.83175 0.26991 0.0
O760 O 0.40401 0.80901 0.19183 0.0
O761 O 0.45134 0.82772 0.20901 0.0
O762 O 0.40181 0.73785 0.20742 0.0
C763 C 0.43493 0.82777 0.19128 0.0
O764 O 0.38994 0.84014 0.2545 0.0
C765 C 0.41711 0.731 0.2225 0.0
O766 O 0.41134 0.81044 0.26521 0.0
O767 O 0.42818 0.74918 0.24042 0.0
C768 C 0.26 0.66206 0.24489 0.0
C769 C 0.22869 0.65719 0.23929 0.0
C770 C 0.28829 0.69177 0.24155 0.0
C771 C 0.2866 0.71793 0.23225 0.0
H772 H 0.26271 0.64257 0.25169 0.0
H773 H 0.31176 0.69398 0.24607 0.0
S774 S 0.21035 0.71757 0.21443 0.0
N775 N 0.19746 0.68085 0.22378 0.0
N776 N 0.25074 0.73693 0.21757 0.0
C777 C 0.25538 0.7135 0.22668 0.0
C778 C 0.22646 0.68309 0.23009 0.0
C779 C 0.60765 0.25114 0.455 0.0
C780 C 0.61367 0.23507 0.43679 0.0
C781 C 0.60224 0.27659 0.45038 0.0
C782 C 0.60234 0.28682 0.42733 0.0
H783 H 0.60888 0.24512 0.47311 0.0
H784 H 0.59953 0.28936 0.46506 0.0
S785 S 0.61536 0.25205 0.37322 0.0
N786 N 0.61833 0.23067 0.39463 0.0
N787 N 0.60734 0.27814 0.38597 0.0
C788 C 0.60642 0.2699 0.40882 0.0
C789 C 0.61243 0.24421 0.41354 0.0
C790 C 0.36792 0.61674 0.6084 0.0
C791 C 0.39149 0.61918 0.59211 0.0
C792 C 0.33524 0.60549 0.60173 0.0
C793 C 0.32467 0.59561 0.57861 0.0
H794 H 0.37518 0.62496 0.62628 0.0
H795 H 0.31828 0.60533 0.61463 0.0
S796 S 0.37581 0.59625 0.52916 0.0
N797 N 0.40157 0.61048 0.5516 0.0
N798 N 0.33959 0.58799 0.53945 0.0
C799 C 0.34739 0.59654 0.56229 0.0
C800 C 0.38098 0.60876 0.56892 0.0
C801 C 0.76491 0.36213 0.75112 0.0
C802 C 0.77008 0.36346 0.77555 0.0
C803 C 0.74595 0.33278 0.73949 0.0
C804 C 0.73155 0.3039 0.75191 0.0
H805 H 0.77451 0.38396 0.74104 0.0
H806 H 0.74129 0.33276 0.72088 0.0
S807 S 0.73685 0.29401 0.81577 0.0
N808 N 0.75904 0.33305 0.81159 0.0
N809 N 0.72325 0.27797 0.7896 0.0
C810 C 0.73695 0.3047 0.77611 0.0
C811 C 0.75624 0.33448 0.78797 0.0
C812 C 0.40766 0.76216 0.92698 0.0
C813 C 0.43123 0.78785 0.91366 0.0
C814 C 0.40877 0.7339 0.9294 0.0
C815 C 0.43325 0.72991 0.91835 0.0
H816 H 0.38782 0.76369 0.93533 0.0
H817 H 0.38955 0.71465 0.93946 0.0
S818 S 0.50144 0.79037 0.88208 0.0
N819 N 0.48046 0.80794 0.88982 0.0
N820 N 0.48229 0.75451 0.89412 0.0
C821 C 0.45735 0.75558 0.90528 0.0
C822 C 0.45637 0.78456 0.90296 0.0
C823 C 0.70197 0.46654 0.07426 0.0
C824 C 0.67472 0.44197 0.08606 0.0
C825 C 0.73171 0.46647 0.07261 0.0
C826 C 0.73513 0.44161 0.08245 0.0
H827 H 0.69985 0.48527 0.06545 0.0
H828 H 0.75145 0.48503 0.06243 0.0
S829 S 0.67206 0.37316 0.11688 0.0
N830 N 0.65378 0.39325 0.10892 0.0
N831 N 0.70959 0.39323 0.10612 0.0
C832 C 0.70861 0.41783 0.09533 0.0
C833 C 0.67841 0.41789 0.09696 0.0
C834 C 0.32541 0.77395 0.59419 0.0
C835 C 0.33288 0.79199 0.57345 0.0
C836 C 0.30547 0.7405 0.59379 0.0
C837 C 0.2926 0.72392 0.57259 0.0
H838 H 0.33515 0.78584 0.61085 0.0
H839 H 0.30073 0.72748 0.61009 0.0
S840 S 0.30132 0.75979 0.51384 0.0
N841 N 0.32277 0.79068 0.53143 0.0
N842 N 0.2866 0.72781 0.53065 0.0
C843 C 0.29906 0.74159 0.55184 0.0
C844 C 0.31873 0.77563 0.55228 0.0
C845 C 0.61799 0.36583 0.7184 0.0
C846 C 0.59119 0.3657 0.72938 0.0
C847 C 0.62012 0.33802 0.71682 0.0
C848 C 0.59576 0.30889 0.72644 0.0
H849 H 0.63786 0.38779 0.71127 0.0
H850 H 0.64165 0.33975 0.70853 0.0
S851 S 0.51988 0.29539 0.75639 0.0
N852 N 0.5391 0.33371 0.74939 0.0
N853 N 0.54335 0.28136 0.74675 0.0
C854 C 0.56847 0.30818 0.73714 0.0
C855 C 0.56616 0.33657 0.73857 0.0
C856 C 0.23851 0.55666 0.91001 0.0
C857 C 0.23868 0.58498 0.90387 0.0
C858 C 0.26774 0.55672 0.91478 0.0
C859 C 0.29836 0.58518 0.91394 0.0
H860 H 0.21554 0.53416 0.91106 0.0
H861 H 0.26622 0.53417 0.91904 0.0
S862 S 0.31185 0.66643 0.90128 0.0
N863 N 0.27168 0.64258 0.8989 0.0
N864 N 0.32682 0.64296 0.90801 0.0
C865 C 0.29882 0.61392 0.90859 0.0
C866 C 0.26896 0.61377 0.90364 0.0
C867 C 0.64802 0.24002 0.08379 0.0
C868 C 0.62318 0.23637 0.06805 0.0
C869 C 0.67997 0.26629 0.08247 0.0
C870 C 0.68832 0.29021 0.06553 0.0
H871 H 0.64264 0.22236 0.0973 0.0
H872 H 0.69809 0.26808 0.09509 0.0
S873 S 0.63214 0.2922 0.0204 0.0
N874 N 0.609 0.25902 0.03516 0.0
N875 N 0.66898 0.30852 0.03261 0.0
C876 C 0.66369 0.28692 0.0497 0.0
C877 C 0.63115 0.26007 0.05103 0.0
C878 C 0.41179 0.6583 0.19346 0.0
C879 C 0.40768 0.63815 0.21245 0.0
C880 C 0.41715 0.68924 0.19701 0.0
C881 C 0.41877 0.70139 0.21971 0.0
H882 H 0.40923 0.64952 0.17564 0.0
H883 H 0.41862 0.70327 0.18179 0.0
S884 S 0.41148 0.65918 0.27547 0.0
N885 N 0.40695 0.6331 0.2549 0.0
N886 N 0.41768 0.69168 0.26154 0.0
C887 C 0.41659 0.6823 0.23892 0.0
C888 C 0.41072 0.65052 0.2353 0.0
C889 C 0.77389 0.43177 0.36654 0.0
C890 C 0.7749 0.40384 0.37209 0.0
C891 C 0.75401 0.44051 0.37916 0.0
C892 C 0.73403 0.42124 0.39743 0.0
H893 H 0.78772 0.4464 0.35182 0.0
H894 H 0.75264 0.46124 0.37358 0.0
S895 S 0.73027 0.34783 0.42061 0.0
N896 N 0.75675 0.35896 0.39881 0.0
N897 N 0.71822 0.37459 0.42176 0.0
C898 C 0.73601 0.39422 0.40393 0.0
C899 C 0.75674 0.38571 0.39145 0.0
C900 C 0.16842 0.59237 0.46764 0.0
C901 C 0.14469 0.60199 0.46721 0.0
C902 C 0.18331 0.59131 0.48866 0.0
C903 C 0.17524 0.60004 0.51013 0.0
H904 H 0.17611 0.5863 0.45148 0.0
H905 H 0.20188 0.58431 0.48795 0.0
S906 S 0.11405 0.62647 0.51859 0.0
N907 N 0.11346 0.62005 0.49012 0.0
N908 N 0.14113 0.61782 0.52969 0.0
C909 C 0.15095 0.60901 0.51003 0.0
C910 C 0.13586 0.61016 0.48858 0.0
C911 C 0.5645 0.10511 0.66749 0.0
C912 C 0.59054 0.10494 0.65553 0.0
C913 C 0.56846 0.13307 0.67804 0.0
C914 C 0.59878 0.16192 0.67729 0.0
H915 H 0.54116 0.08316 0.66938 0.0
H916 H 0.54797 0.13164 0.68771 0.0
S917 S 0.67394 0.17479 0.64648 0.0
N918 N 0.64707 0.13649 0.64227 0.0
N919 N 0.65461 0.18912 0.66206 0.0
C920 C 0.62458 0.16244 0.66444 0.0
C921 C 0.62049 0.13394 0.65364 0.0
C922 C 0.38321 0.51649 0.81224 0.0
C923 C 0.41623 0.54701 0.79319 0.0
C924 C 0.38337 0.52971 0.84195 0.0
C925 C 0.40954 0.57146 0.85017 0.0
H926 H 0.36984 0.49134 0.8076 0.0
H927 H 0.36762 0.51252 0.85486 0.0
S928 S 0.47262 0.64524 0.80638 0.0
N929 N 0.45892 0.6152 0.78654 0.0
N930 N 0.45485 0.63279 0.83287 0.0
C931 C 0.43452 0.60143 0.82886 0.0
C932 C 0.43616 0.59079 0.79923 0.0
C933 C 0.86023 0.41871 0.9544 0.0
C934 C 0.88514 0.39822 0.95419 0.0
C935 C 0.83888 0.41487 0.98165 0.0
C936 C 0.83721 0.38767 0.00422 0.0
H937 H 0.86368 0.43654 0.94155 0.0
H938 H 0.82726 0.42908 0.9845 0.0
S939 S 0.87848 0.32934 0.00115 0.0
N940 N 0.89122 0.34688 0.97478 0.0
N941 N 0.85524 0.3416 0.01533 0.0
C942 C 0.85454 0.36211 -0.00021 0.0
C943 C 0.87605 0.36416 0.97376 0.0
C944 C 0.4476 0.85243 0.12751 0.0
C945 C 0.48162 0.87383 0.12616 0.0
C946 C 0.43264 0.83869 0.14883 0.0
C947 C 0.45116 0.84549 0.16965 0.0
H948 H 0.43247 0.84566 0.11183 0.0
H949 H 0.40645 0.8218 0.14877 0.0
S950 S 0.54092 0.90163 0.17581 0.0
N951 N 0.53328 0.90251 0.14765 0.0
N952 N 0.50521 0.87648 0.1878 0.0
C953 C 0.4851 0.86763 0.16871 0.0
C954 C 0.50032 0.88179 0.14697 0.0
C955 C 0.61618 0.47483 0.31833 0.0
C956 C 0.59612 0.45057 0.30231 0.0
C957 C 0.62289 0.46745 0.34062 0.0
C958 C 0.61035 0.43549 0.34776 0.0
H959 H 0.62702 0.4998 0.31358 0.0
H960 H 0.63853 0.48717 0.35218 0.0
S961 S 0.55792 0.36308 0.31174 0.0
N962 N 0.56467 0.39333 0.29469 0.0
N963 N 0.57741 0.37931 0.33657 0.0
C964 C 0.59057 0.41095 0.33177 0.0
C965 C 0.58357 0.41853 0.30906 0.0
C966 C 0.43348 0.85217 0.33305 0.0
C967 C 0.41977 0.87069 0.34066 0.0
C968 C 0.4286 0.84011 0.31011 0.0
C969 C 0.4097 0.846 0.29382 0.0
H970 H 0.44786 0.84667 0.34503 0.0
H971 H 0.43958 0.82587 0.3052 0.0
S972 S 0.36729 0.89221 0.30532 0.0
N973 N 0.38561 0.89353 0.33035 0.0
N974 N 0.37672 0.87135 0.2872 0.0
C975 C 0.3958 0.86453 0.30124 0.0
C976 C 0.40064 0.87662 0.32465 0.0
C977 C 0.53639 0.39891 0.49697 0.0
C978 C 0.55603 0.41407 0.51679 0.0
C979 C 0.55045 0.39762 0.47569 0.0
C980 C 0.58473 0.4113 0.4734 0.0
H981 H 0.50984 0.38714 0.49811 0.0
H982 H 0.53415 0.38492 0.46115 0.0
S983 S 0.64716 0.45578 0.51969 0.0
N984 N 0.61157 0.44444 0.53253 0.0
N985 N 0.63812 0.44226 0.49251 0.0
C986 C 0.60475 0.42763 0.49285 0.0
C987 C 0.59038 0.42887 0.51455 0.0
C988 C 0.15993 0.55601 0.66907 0.0
C989 C 0.13583 0.5236 0.67155 0.0
C990 C 0.17662 0.56779 0.64791 0.0
C991 C 0.1702 0.54757 0.62836 0.0
H992 H 0.16619 0.57243 0.68372 0.0
H993 H 0.19507 0.59294 0.64705 0.0
S994 S 0.10914 0.46054 0.62576 0.0
N995 N 0.10622 0.47134 0.65271 0.0
N996 N 0.13755 0.49335 0.61286 0.0
C997 C 0.14603 0.51502 0.63057 0.0
C998 C 0.12893 0.50307 0.65216 0.0
C999 C 0.63417 0.12669 0.82667 0.0
C1000 C 0.60609 0.13079 0.84766 0.0
C1001 C 0.63634 0.14364 0.79809 0.0
C1002 C 0.61772 0.16818 0.79281 0.0
H1003 H 0.64276 0.10994 0.82951 0.0
H1004 H 0.64923 0.13938 0.78415 0.0
S1005 S 0.5691 0.19316 0.8417 0.0
N1006 N 0.57686 0.16958 0.85922 0.0
N1007 N 0.5843 0.19639 0.81442 0.0
C1008 C 0.59828 0.17809 0.81605 0.0
C1009 C 0.5948 0.1625 0.84475 0.0
C1010 C 0.43197 0.53954 0.9878 0.0
C1011 C 0.46302 0.54198 0.98646 0.0
C1012 C 0.42619 0.56256 0.9776 0.0
C1013 C 0.45102 0.58872 0.96527 0.0
H1014 H 0.41167 0.51916 0.99621 0.0
H1015 H 0.40158 0.55905 0.97869 0.0
S1016 S 0.53702 0.60671 0.9575 0.0
N1017 N 0.51926 0.57312 0.97263 0.0
N1018 N 0.50837 0.61646 0.95325 0.0
C1019 C 0.4825 0.59203 0.96441 0.0
C1020 C 0.48843 0.56857 0.97494 0.0
C1021 C 0.88472 0.39167 0.15357 0.0
C1022 C 0.91632 0.41857 0.1564 0.0
C1023 C 0.86217 0.39172 0.13743 0.0
C1024 C 0.87026 0.41872 0.12351 0.0
H1025 H 0.8778 0.37002 0.16335 0.0
H1026 H 0.83865 0.36997 0.13533 0.0
S1027 S 0.94851 0.4967 0.12644 0.0
N1028 N 0.95358 0.47383 0.14545 0.0
N1029 N 0.91125 0.47425 0.11541 0.0
C1030 C 0.90115 0.44644 0.1272 0.0
C1031 C 0.92414 0.44627 0.14354 0.0
loop_
_geom_bond_atom_site_label_1
_geom_bond_atom_site_label_2
_geom_bond_distance
_geom_bond_site_symmetry_2
_ccdc_geom_bond_type
C0 C1 1.560 . S
C0 H61 0.959 . S
C0 H62 0.959 . S
C0 H63 0.960 . S
C1 C0 1.560 . S
C1 O56 1.426 . S
C1 H60 0.980 . S
C2 C3 1.407 . S
C2 C7 1.418 . S
C2 O56 1.334 . S
C3 C2 1.407 . S
C3 C4 1.360 . S
C3 H64 0.929 . S
C4 C3 1.360 . S
C4 C5 1.401 . S
C4 C8 1.527 . S
C5 C4 1.401 . S
C5 C6 1.405 . S
C5 C38 1.587 . S
C6 C5 1.405 . S
C6 C7 1.332 . S
C6 C9 1.496 . S
C7 C2 1.418 . S
C7 C6 1.332 . S
C7 H65 0.929 . S
C8 C4 1.527 . S
C8 H66 0.959 . S
C8 H67 0.961 . S
C8 H68 0.961 . S
C9 C6 1.496 . S
C9 H69 0.960 . S
C9 H70 0.960 . S
C9 H71 0.961 . S
C10 C11 1.517 . S
C10 H73 0.961 . S
C10 H74 0.960 . S
C10 H75 0.959 . S
C11 C10 1.517 . S
C11 O59 1.468 . S
C11 H72 0.980 . S
C12 C13 1.349 . S
C12 C17 1.367 . S
C12 O59 1.408 . S
C13 C12 1.349 . S
C13 C14 1.407 . S
C13 H76 0.930 . S
C14 C13 1.407 . S
C14 C15 1.449 . S
C14 C18 1.535 . S
C15 C14 1.449 . S
C15 C16 1.384 . S
C15 C40 1.553 1_655 S
C16 C15 1.384 . S
C16 C17 1.364 . S
C16 C19 1.450 . S
C17 C12 1.367 . S
C17 C16 1.364 . S
C17 H77 0.931 . S
C18 C14 1.535 . S
C18 H78 0.959 1_655 S
C18 H79 0.961 1_655 S
C18 H80 0.959 . S
C19 C16 1.450 . S
C19 H81 0.960 . S
C19 H82 0.960 1_655 S
C19 H83 0.960 . S
C20 C21 1.309 . S
C20 C25 1.304 . S
C20 O58 1.435 . S
C21 C20 1.309 . S
C21 C22 1.476 . S
C21 H85 0.930 . S
C22 C21 1.476 . S
C22 C23 1.400 . S
C22 C26 1.567 . S
C23 C22 1.400 . S
C23 C24 1.373 . S
C23 C45 1.432 . S
C24 C23 1.373 . S
C24 C25 1.339 . S
C24 C27 1.530 . S
C25 C20 1.304 . S
C25 C24 1.339 . S
C25 H86 0.930 . S
C26 C22 1.567 . S
C26 H87 0.961 . S
C26 H88 0.960 . S
C26 H89 0.958 . S
C27 C24 1.530 . S
C27 H90 0.961 . S
C27 H91 0.960 . S
C27 H92 0.960 . S
C28 C29 1.530 . S
C28 H94 0.961 . S
C28 H95 0.961 . S
C28 H96 0.959 . S
C29 C28 1.530 . S
C29 O57 1.412 . S
C29 H93 0.980 . S
C30 C31 1.288 . S
C30 C35 1.377 . S
C30 O57 1.393 . S
C31 C30 1.288 . S
C31 C32 1.369 . S
C31 H97 0.932 . S
C32 C31 1.369 . S
C32 C33 1.398 . S
C32 C36 1.527 . S
C33 C32 1.398 . S
C33 C34 1.380 . S
C33 C47 1.497 . S
C34 C33 1.380 . S
C34 C35 1.383 . S
C34 C37 1.603 . S
C35 C30 1.377 . S
C35 C34 1.383 . S
C35 H98 0.929 . S
C36 C32 1.527 . S
C36 H99 0.961 . S
C36 H100 0.959 1_455 S
C36 H101 0.959 . S
C37 C34 1.603 . S
C37 H102 0.960 . S
C37 H103 0.962 . S
C37 H104 0.961 . S
C38 C5 1.587 . S
C38 C39 1.360 . S
C38 C51 1.412 . S
C39 C38 1.360 . S
C39 C40 1.365 . S
C39 H105 0.929 . S
C40 C15 1.553 1_455 S
C40 C39 1.365 . S
C40 C41 1.404 . S
C41 C40 1.404 . S
C41 C42 1.395 1_455 S
C41 C52 1.451 . S
C42 C41 1.395 1_655 S
C42 C43 1.322 . S
C42 H106 0.930 . S
C43 C42 1.322 . S
C43 C44 1.459 . S
C43 H107 0.929 . S
C44 C43 1.459 . S
C44 C45 1.445 . S
C44 C53 1.395 1_655 S
C45 C23 1.432 . S
C45 C44 1.445 . S
C45 C46 1.370 . S
C46 C45 1.370 . S
C46 C47 1.438 1_655 S
C46 H108 0.930 . S
C47 C33 1.497 . S
C47 C46 1.438 1_455 S
C47 C48 1.360 . S
C48 C47 1.360 . S
C48 C49 1.401 . S
C48 C53 1.446 . S
C49 C48 1.401 . S
C49 C50 1.347 . S
C49 H109 0.929 . S
C50 C49 1.347 . S
C50 C51 1.455 . S
C50 H110 0.930 . S
C51 C38 1.412 . S
C51 C50 1.455 . S
C51 C52 1.331 . S
C52 C41 1.451 . S
C52 C51 1.331 . S
C52 C53 1.497 . S
C53 C44 1.395 1_455 S
C53 C48 1.446 . S
C53 C52 1.497 . S
C54 C55 1.582 . S
C54 H111 0.962 . S
C54 H112 0.959 . S
C54 H113 0.958 . S
C55 C54 1.582 . S
C55 O58 1.458 . S
C55 H84 0.980 . S
O56 C1 1.426 . S
O56 C2 1.334 . S
O57 C29 1.412 . S
O57 C30 1.393 . S
O58 C20 1.435 . S
O58 C55 1.458 . S
O59 C11 1.468 . S
O59 C12 1.408 . S
H60 C1 0.980 . S
H61 C0 0.959 . S
H62 C0 0.959 . S
H63 C0 0.960 . S
H64 C3 0.929 . S
H65 C7 0.929 . S
H66 C8 0.959 . S
H67 C8 0.961 . S
H68 C8 0.961 . S
H69 C9 0.960 . S
H70 C9 0.960 . S
H71 C9 0.961 . S
H72 C11 0.980 . S
H73 C10 0.961 . S
H74 C10 0.960 . S
H75 C10 0.959 . S
H76 C13 0.930 . S
H77 C17 0.931 . S
H78 C18 0.959 1_455 S
H79 C18 0.961 1_455 S
H80 C18 0.959 . S
H81 C19 0.960 . S
H82 C19 0.960 1_455 S
H83 C19 0.960 . S
H84 C55 0.980 . S
H85 C21 0.930 . S
H86 C25 0.930 . S
H87 C26 0.961 . S
H88 C26 0.960 . S
H89 C26 0.958 . S
H90 C27 0.961 . S
H91 C27 0.960 . S
H92 C27 0.960 . S
H93 C29 0.980 . S
H94 C28 0.961 . S
H95 C28 0.961 . S
H96 C28 0.959 . S
H97 C31 0.932 . S
H98 C35 0.929 . S
H99 C36 0.961 . S
H100 C36 0.959 1_655 S
H101 C36 0.959 . S
H102 C37 0.960 . S
H103 C37 0.962 . S
H104 C37 0.961 . S
H105 C39 0.929 . S
H106 C42 0.930 . S
H107 C43 0.929 . S
H108 C46 0.930 . S
H109 C49 0.929 . S
H110 C50 0.930 . S
H111 C54 0.962 . S
H112 C54 0.959 . S
H113 C54 0.958 . S
C114 C115 1.560 . S
C114 H175 0.959 . S
C114 H176 0.959 . S
C114 H177 0.960 . S
C115 C114 1.560 . S
C115 O170 1.426 . S
C115 H174 0.980 . S
C116 C117 1.407 . S
C116 C121 1.418 . S
C116 O170 1.334 . S
C117 C116 1.407 . S
C117 C118 1.360 . S
C117 H178 0.929 . S
C118 C117 1.360 . S
C118 C119 1.401 . S
C118 C122 1.527 . S
C119 C118 1.401 . S
C119 C120 1.405 . S
C119 C152 1.587 . S
C120 C119 1.405 . S
C120 C121 1.332 . S
C120 C123 1.496 . S
C121 C116 1.418 . S
C121 C120 1.332 . S
C121 H179 0.929 . S
C122 C118 1.527 . S
C122 H180 0.959 . S
C122 H181 0.961 . S
C122 H182 0.961 . S
C123 C120 1.496 . S
C123 H183 0.960 . S
C123 H184 0.960 . S
C123 H185 0.961 . S
C124 C125 1.517 . S
C124 H187 0.961 . S
C124 H188 0.960 . S
C124 H189 0.959 . S
C125 C124 1.517 . S
C125 O173 1.468 . S
C125 H186 0.980 . S
C126 C127 1.349 . S
C126 C131 1.367 . S
C126 O173 1.408 . S
C127 C126 1.349 . S
C127 C128 1.407 . S
C127 H190 0.930 . S
C128 C127 1.407 . S
C128 C129 1.449 . S
C128 C132 1.535 . S
C129 C128 1.449 . S
C129 C130 1.384 . S
C129 C154 1.553 . S
C130 C129 1.384 . S
C130 C131 1.364 . S
C130 C133 1.450 . S
C131 C126 1.367 . S
C131 C130 1.364 . S
C131 H191 0.931 . S
C132 C128 1.535 . S
C132 H192 0.959 . S
C132 H193 0.961 . S
C132 H194 0.959 . S
C133 C130 1.450 . S
C133 H195 0.960 . S
C133 H196 0.960 . S
C133 H197 0.960 . S
C134 C135 1.309 . S
C134 C139 1.304 . S
C134 O172 1.435 . S
C135 C134 1.309 . S
C135 C136 1.476 . S
C135 H199 0.930 . S
C136 C135 1.476 . S
C136 C137 1.400 . S
C136 C140 1.567 . S
C137 C136 1.400 . S
C137 C138 1.373 . S
C137 C159 1.432 . S
C138 C137 1.373 . S
C138 C139 1.339 . S
C138 C141 1.530 . S
C139 C134 1.304 . S
C139 C138 1.339 . S
C139 H200 0.930 . S
C140 C136 1.567 . S
C140 H201 0.961 . S
C140 H202 0.960 . S
C140 H203 0.958 . S
C141 C138 1.530 . S
C141 H204 0.961 . S
C141 H205 0.960 . S
C141 H206 0.960 . S
C142 C143 1.530 . S
C142 H208 0.961 . S
C142 H209 0.961 . S
C142 H210 0.959 . S
C143 C142 1.530 . S
C143 O171 1.412 . S
C143 H207 0.980 . S
C144 C145 1.288 . S
C144 C149 1.377 . S
C144 O171 1.393 . S
C145 C144 1.288 . S
C145 C146 1.369 . S
C145 H211 0.932 . S
C146 C145 1.369 . S
C146 C147 1.398 . S
C146 C150 1.527 . S
C147 C146 1.398 . S
C147 C148 1.380 . S
C147 C161 1.497 1_565 S
C148 C147 1.380 . S
C148 C149 1.383 . S
C148 C151 1.603 . S
C149 C144 1.377 . S
C149 C148 1.383 . S
C149 H212 0.929 . S
C150 C146 1.527 . S
C150 H213 0.961 . S
C150 H214 0.959 1_565 S
C150 H215 0.959 . S
C151 C148 1.603 . S
C151 H216 0.960 . S
C151 H217 0.962 . S
C151 H218 0.961 . S
C152 C119 1.587 . S
C152 C153 1.360 . S
C152 C165 1.412 . S
C153 C152 1.360 . S
C153 C154 1.365 1_565 S
C153 H219 0.929 . S
C154 C129 1.553 . S
C154 C153 1.365 1_545 S
C154 C155 1.404 . S
C155 C154 1.404 . S
C155 C156 1.395 . S
C155 C166 1.451 1_545 S
C156 C155 1.395 . S
C156 C157 1.322 . S
C156 H220 0.930 . S
C157 C156 1.322 . S
C157 C158 1.459 . S
C157 H221 0.929 . S
C158 C157 1.459 . S
C158 C159 1.445 . S
C158 C167 1.395 . S
C159 C137 1.432 . S
C159 C158 1.445 . S
C159 C160 1.370 . S
C160 C159 1.370 . S
C160 C161 1.438 . S
C160 H222 0.930 . S
C161 C147 1.497 1_545 S
C161 C160 1.438 . S
C161 C162 1.360 1_545 S
C162 C161 1.360 1_565 S
C162 C163 1.401 . S
C162 C167 1.446 1_565 S
C163 C162 1.401 . S
C163 C164 1.347 . S
C163 H223 0.929 . S
C164 C163 1.347 . S
C164 C165 1.455 . S
C164 H224 0.930 . S
C165 C152 1.412 . S
C165 C164 1.455 . S
C165 C166 1.331 . S
C166 C155 1.451 1_565 S
C166 C165 1.331 . S
C166 C167 1.497 1_565 S
C167 C158 1.395 . S
C167 C162 1.446 1_545 S
C167 C166 1.497 1_545 S
C168 C169 1.582 . S
C168 H225 0.962 . S
C168 H226 0.959 . S
C168 H227 0.958 . S
C169 C168 1.582 . S
C169 O172 1.458 . S
C169 H198 0.980 . S
O170 C115 1.426 . S
O170 C116 1.334 . S
O171 C143 1.412 . S
O171 C144 1.393 . S
O172 C134 1.435 . S
O172 C169 1.458 . S
O173 C125 1.468 . S
O173 C126 1.408 . S
H174 C115 0.980 . S
H175 C114 0.959 . S
H176 C114 0.959 . S
H177 C114 0.960 . S
H178 C117 0.929 . S
H179 C121 0.929 . S
H180 C122 0.959 . S
H181 C122 0.961 . S
H182 C122 0.961 . S
H183 C123 0.960 . S
H184 C123 0.960 . S
H185 C123 0.961 . S
H186 C125 0.980 . S
H187 C124 0.961 . S
H188 C124 0.960 . S
H189 C124 0.959 . S
H190 C127 0.930 . S
H191 C131 0.931 . S
H192 C132 0.959 . S
H193 C132 0.961 . S
H194 C132 0.959 . S
H195 C133 0.960 . S
H196 C133 0.960 . S
H197 C133 0.960 . S
H198 C169 0.980 . S
H199 C135 0.930 . S
H200 C139 0.930 . S
H201 C140 0.961 . S
H202 C140 0.960 . S
H203 C140 0.958 . S
H204 C141 0.961 . S
H205 C141 0.960 . S
H206 C141 0.960 . S
H207 C143 0.980 . S
H208 C142 0.961 . S
H209 C142 0.961 . S
H210 C142 0.959 . S
H211 C145 0.932 . S
H212 C149 0.929 . S
H213 C150 0.961 . S
H214 C150 0.959 1_545 S
H215 C150 0.959 . S
H216 C151 0.960 . S
H217 C151 0.962 . S
H218 C151 0.961 . S
H219 C153 0.929 . S
H220 C156 0.930 . S
H221 C157 0.929 . S
H222 C160 0.930 . S
H223 C163 0.929 . S
H224 C164 0.930 . S
H225 C168 0.962 . S
H226 C168 0.959 . S
H227 C168 0.958 . S
C228 C229 1.560 . S
C228 H289 0.959 . S
C228 H290 0.959 . S
C228 H291 0.960 . S
C229 C228 1.560 . S
C229 O284 1.426 . S
C229 H288 0.980 . S
C230 C231 1.407 . S
C230 C235 1.418 . S
C230 O284 1.334 . S
C231 C230 1.407 . S
C231 C232 1.360 . S
C231 H292 0.929 . S
C232 C231 1.360 . S
C232 C233 1.401 . S
C232 C236 1.527 . S
C233 C232 1.401 . S
C233 C234 1.405 . S
C233 C266 1.587 . S
C234 C233 1.405 . S
C234 C235 1.332 . S
C234 C237 1.496 . S
C235 C230 1.418 . S
C235 C234 1.332 . S
C235 H293 0.929 . S
C236 C232 1.527 . S
C236 H294 0.959 . S
C236 H295 0.961 . S
C236 H296 0.961 . S
C237 C234 1.496 . S
C237 H297 0.960 . S
C237 H298 0.960 . S
C237 H299 0.961 . S
C238 C239 1.517 . S
C238 H301 0.961 . S
C238 H302 0.960 . S
C238 H303 0.959 . S
C239 C238 1.517 . S
C239 O287 1.468 . S
C239 H300 0.980 . S
C240 C241 1.349 . S
C240 C245 1.367 . S
C240 O287 1.408 . S
C241 C240 1.349 . S
C241 C242 1.407 . S
C241 H304 0.930 . S
C242 C241 1.407 . S
C242 C243 1.449 . S
C242 C246 1.535 . S
C243 C242 1.449 . S
C243 C244 1.384 . S
C243 C268 1.553 . S
C244 C243 1.384 . S
C244 C245 1.364 . S
C244 C247 1.450 . S
C245 C240 1.367 . S
C245 C244 1.364 . S
C245 H305 0.931 . S
C246 C242 1.535 . S
C246 H306 0.959 . S
C246 H307 0.961 . S
C246 H308 0.959 . S
C247 C244 1.450 . S
C247 H309 0.960 . S
C247 H310 0.960 . S
C247 H311 0.960 . S
C248 C249 1.309 . S
C248 C253 1.304 . S
C248 O286 1.435 . S
C249 C248 1.309 . S
C249 C250 1.476 . S
C249 H313 0.930 . S
C250 C249 1.476 . S
C250 C251 1.400 . S
C250 C254 1.567 . S
C251 C250 1.400 . S
C251 C252 1.373 . S
C251 C273 1.432 . S
C252 C251 1.373 . S
C252 C253 1.339 . S
C252 C255 1.530 . S
C253 C248 1.304 . S
C253 C252 1.339 . S
C253 H314 0.930 . S
C254 C250 1.567 . S
C254 H315 0.961 . S
C254 H316 0.960 . S
C254 H317 0.958 . S
C255 C252 1.530 . S
C255 H318 0.961 . S
C255 H319 0.960 . S
C255 H320 0.960 . S
C256 C257 1.530 . S
C256 H322 0.961 . S
C256 H323 0.961 . S
C256 H324 0.959 . S
C257 C256 1.530 . S
C257 O285 1.412 . S
C257 H321 0.980 . S
C258 C259 1.288 . S
C258 C263 1.377 . S
C258 O285 1.393 . S
C259 C258 1.288 . S
C259 C260 1.369 . S
C259 H325 0.932 . S
C260 C259 1.369 . S
C260 C261 1.398 . S
C260 C264 1.527 . S
C261 C260 1.398 . S
C261 C262 1.380 . S
C261 C275 1.497 . S
C262 C261 1.380 . S
C262 C263 1.383 . S
C262 C265 1.603 . S
C263 C258 1.377 . S
C263 C262 1.383 . S
C263 H326 0.929 . S
C264 C260 1.527 . S
C264 H327 0.961 . S
C264 H328 0.959 . S
C264 H329 0.959 . S
C265 C262 1.603 . S
C265 H330 0.960 . S
C265 H331 0.962 . S
C265 H332 0.961 . S
C266 C233 1.587 . S
C266 C267 1.360 . S
C266 C279 1.412 . S
C267 C266 1.360 . S
C267 C268 1.365 . S
C267 H333 0.929 . S
C268 C243 1.553 . S
C268 C267 1.365 . S
C268 C269 1.404 . S
C269 C268 1.404 . S
C269 C270 1.395 . S
C269 C280 1.451 . S
C270 C269 1.395 . S
C270 C271 1.322 . S
C270 H334 0.930 . S
C271 C270 1.322 . S
C271 C272 1.459 . S
C271 H335 0.929 . S
C272 C271 1.459 . S
C272 C273 1.445 . S
C272 C281 1.395 . S
C273 C251 1.432 . S
C273 C272 1.445 . S
C273 C274 1.370 . S
C274 C273 1.370 . S
C274 C275 1.438 . S
C274 H336 0.930 . S
C275 C261 1.497 . S
C275 C274 1.438 . S
C275 C276 1.360 . S
C276 C275 1.360 . S
C276 C277 1.401 . S
C276 C281 1.446 . S
C277 C276 1.401 . S
C277 C278 1.347 . S
C277 H337 0.929 . S
C278 C277 1.347 . S
C278 C279 1.455 . S
C278 H338 0.930 . S
C279 C266 1.412 . S
C279 C278 1.455 . S
C279 C280 1.331 . S
C280 C269 1.451 . S
C280 C279 1.331 . S
C280 C281 1.497 . S
C281 C272 1.395 . S
C281 C276 1.446 . S
C281 C280 1.497 . S
C282 C283 1.582 . S
C282 H339 0.962 . S
C282 H340 0.959 . S
C282 H341 0.958 . S
C283 C282 1.582 . S
C283 O286 1.458 . S
C283 H312 0.980 . S
O284 C229 1.426 . S
O284 C230 1.334 . S
O285 C257 1.412 . S
O285 C258 1.393 . S
O286 C248 1.435 . S
O286 C283 1.458 . S
O287 C239 1.468 . S
O287 C240 1.408 . S
H288 C229 0.980 . S
H289 C228 0.959 . S
H290 C228 0.959 . S
H291 C228 0.960 . S
H292 C231 0.929 . S
H293 C235 0.929 . S
H294 C236 0.959 . S
H295 C236 0.961 . S
H296 C236 0.961 . S
H297 C237 0.960 . S
H298 C237 0.960 . S
H299 C237 0.961 . S
H300 C239 0.980 . S
H301 C238 0.961 . S
H302 C238 0.960 . S
H303 C238 0.959 . S
H304 C241 0.930 . S
H305 C245 0.931 . S
H306 C246 0.959 . S
H307 C246 0.961 . S
H308 C246 0.959 . S
H309 C247 0.960 . S
H310 C247 0.960 . S
H311 C247 0.960 . S
H312 C283 0.980 . S
H313 C249 0.930 . S
H314 C253 0.930 . S
H315 C254 0.961 . S
H316 C254 0.960 . S
H317 C254 0.958 . S
H318 C255 0.961 . S
H319 C255 0.960 . S
H320 C255 0.960 . S
H321 C257 0.980 . S
H322 C256 0.961 . S
H323 C256 0.961 . S
H324 C256 0.959 . S
H325 C259 0.932 . S
H326 C263 0.929 . S
H327 C264 0.961 . S
H328 C264 0.959 . S
H329 C264 0.959 . S
H330 C265 0.960 . S
H331 C265 0.962 . S
H332 C265 0.961 . S
H333 C267 0.929 . S
H334 C270 0.930 . S
H335 C271 0.929 . S
H336 C274 0.930 . S
H337 C277 0.929 . S
H338 C278 0.930 . S
H339 C282 0.962 . S
H340 C282 0.959 . S
H341 C282 0.958 . S
C342 C343 1.560 . S
C342 H403 0.959 . S
C342 H404 0.959 . S
C342 H405 0.960 . S
C343 C342 1.560 . S
C343 O398 1.426 . S
C343 H402 0.980 . S
C344 C345 1.407 . S
C344 C349 1.418 . S
C344 O398 1.334 . S
C345 C344 1.407 . S
C345 C346 1.360 . S
C345 H406 0.929 . S
C346 C345 1.360 . S
C346 C347 1.401 . S
C346 C350 1.527 . S
C347 C346 1.401 . S
C347 C348 1.405 . S
C347 C380 1.587 . S
C348 C347 1.405 . S
C348 C349 1.332 . S
C348 C351 1.496 . S
C349 C344 1.418 . S
C349 C348 1.332 . S
C349 H407 0.929 . S
C350 C346 1.527 . S
C350 H408 0.959 . S
C350 H409 0.961 . S
C350 H410 0.961 . S
C351 C348 1.496 . S
C351 H411 0.960 . S
C351 H412 0.960 . S
C351 H413 0.961 . S
C352 C353 1.517 . S
C352 H415 0.961 1_556 S
C352 H416 0.960 . S
C352 H417 0.959 . S
C353 C352 1.517 . S
C353 O401 1.468 . S
C353 H414 0.980 . S
C354 C355 1.349 . S
C354 C359 1.367 . S
C354 O401 1.408 . S
C355 C354 1.349 . S
C355 C356 1.407 . S
C355 H418 0.930 . S
C356 C355 1.407 . S
C356 C357 1.449 . S
C356 C360 1.535 . S
C357 C356 1.449 . S
C357 C358 1.384 . S
C357 C382 1.553 1_655 S
C358 C357 1.384 . S
C358 C359 1.364 . S
C358 C361 1.450 . S
C359 C354 1.367 . S
C359 C358 1.364 . S
C359 H419 0.931 . S
C360 C356 1.535 . S
C360 H420 0.959 1_655 S
C360 H421 0.942 1_655 S
C360 H422 0.959 . S
C361 C358 1.450 . S
C361 H423 0.960 . S
C361 H424 0.960 1_655 S
C361 H425 0.960 . S
C362 C363 1.309 . S
C362 C367 1.304 . S
C362 O400 1.435 . S
C363 C362 1.309 . S
C363 C364 1.476 . S
C363 H427 0.930 . S
C364 C363 1.476 . S
C364 C365 1.400 . S
C364 C368 1.567 . S
C365 C364 1.400 . S
C365 C366 1.373 . S
C365 C387 1.432 . S
C366 C365 1.373 . S
C366 C367 1.339 . S
C366 C369 1.530 . S
C367 C362 1.304 . S
C367 C366 1.339 . S
C367 H428 0.930 . S
C368 C364 1.567 . S
C368 H429 0.961 . S
C368 H430 0.960 . S
C368 H431 0.958 . S
C369 C366 1.530 . S
C369 H432 0.961 . S
C369 H433 0.960 . S
C369 H434 0.960 . S
C370 C371 1.530 . S
C370 H436 0.961 . S
C370 H437 0.961 . S
C370 H438 0.959 . S
C371 C370 1.530 . S
C371 O399 1.412 . S
C371 H435 0.980 . S
C372 C373 1.288 . S
C372 C377 1.377 . S
C372 O399 1.393 . S
C373 C372 1.288 . S
C373 C374 1.369 . S
C373 H439 0.932 . S
C374 C373 1.369 . S
C374 C375 1.398 . S
C374 C378 1.527 . S
C375 C374 1.398 . S
C375 C376 1.380 . S
C375 C389 1.497 . S
C376 C375 1.380 . S
C376 C377 1.383 . S
C376 C379 1.603 . S
C377 C372 1.377 . S
C377 C376 1.383 . S
C377 H440 0.929 . S
C378 C374 1.527 . S
C378 H441 0.961 . S
C378 H442 0.959 1_455 S
C378 H443 0.959 . S
C379 C376 1.603 . S
C379 H444 0.960 . S
C379 H445 0.962 . S
C379 H446 0.961 . S
C380 C347 1.587 . S
C380 C381 1.360 . S
C380 C393 1.412 . S
C381 C380 1.360 . S
C381 C382 1.365 . S
C381 H447 0.929 . S
C382 C357 1.553 1_455 S
C382 C381 1.365 . S
C382 C383 1.404 1_455 S
C383 C382 1.404 1_655 S
C383 C384 1.395 . S
C383 C394 1.451 1_655 S
C384 C383 1.395 . S
C384 C385 1.322 . S
C384 H448 0.930 . S
C385 C384 1.322 . S
C385 C386 1.459 . S
C385 H449 0.929 . S
C386 C385 1.459 . S
C386 C387 1.445 . S
C386 C395 1.395 1_655 S
C387 C365 1.432 . S
C387 C386 1.445 . S
C387 C388 1.370 . S
C388 C387 1.370 . S
C388 C389 1.438 1_655 S
C388 H450 0.930 . S
C389 C375 1.497 . S
C389 C388 1.438 1_455 S
C389 C390 1.360 . S
C390 C389 1.360 . S
C390 C391 1.401 . S
C390 C395 1.446 . S
C391 C390 1.401 . S
C391 C392 1.347 . S
C391 H451 0.929 . S
C392 C391 1.347 . S
C392 C393 1.455 . S
C392 H452 0.930 . S
C393 C380 1.412 . S
C393 C392 1.455 . S
C393 C394 1.331 . S
C394 C383 1.451 1_455 S
C394 C393 1.331 . S
C394 C395 1.497 . S
C395 C386 1.395 1_455 S
C395 C390 1.446 . S
C395 C394 1.497 . S
C396 C397 1.582 . S
C396 H453 0.962 . S
C396 H454 0.959 . S
C396 H455 0.958 . S
C397 C396 1.582 . S
C397 O400 1.458 . S
C397 H426 0.980 . S
O398 C343 1.426 . S
O398 C344 1.334 . S
O399 C371 1.412 . S
O399 C372 1.393 . S
O400 C362 1.435 . S
O400 C397 1.458 . S
O401 C353 1.468 . S
O401 C354 1.408 . S
H402 C343 0.980 . S
H403 C342 0.959 . S
H404 C342 0.959 . S
H405 C342 0.960 . S
H406 C345 0.929 . S
H407 C349 0.929 . S
H408 C350 0.959 . S
H409 C350 0.961 . S
H410 C350 0.961 . S
H411 C351 0.960 . S
H412 C351 0.960 . S
H413 C351 0.961 . S
H414 C353 0.980 . S
H415 C352 0.961 1_554 S
H416 C352 0.960 . S
H417 C352 0.959 . S
H418 C355 0.930 . S
H419 C359 0.931 . S
H420 C360 0.959 1_455 S
H421 C360 0.942 1_455 S
H422 C360 0.959 . S
H423 C361 0.960 . S
H424 C361 0.960 1_455 S
H425 C361 0.960 . S
H426 C397 0.980 . S
H427 C363 0.930 . S
H428 C367 0.930 . S
H429 C368 0.961 . S
H430 C368 0.960 . S
H431 C368 0.958 . S
H432 C369 0.961 . S
H433 C369 0.960 . S
H434 C369 0.960 . S
H435 C371 0.980 . S
H436 C370 0.961 . S
H437 C370 0.961 . S
H438 C370 0.959 . S
H439 C373 0.932 . S
H440 C377 0.929 . S
H441 C378 0.961 . S
H442 C378 0.959 1_655 S
H443 C378 0.959 . S
H444 C379 0.960 . S
H445 C379 0.962 . S
H446 C379 0.961 . S
H447 C381 0.929 . S
H448 C384 0.930 . S
H449 C385 0.929 . S
H450 C388 0.930 . S
H451 C391 0.929 . S
H452 C392 0.930 . S
H453 C396 0.962 . S
H454 C396 0.959 . S
H455 C396 0.958 . S
C456 C457 1.560 . S
C456 H517 0.959 . S
C456 H518 0.959 . S
C456 H519 0.960 . S
C457 C456 1.560 . S
C457 O512 1.426 . S
C457 H516 0.980 . S
C458 C459 1.407 . S
C458 C463 1.418 . S
C458 O512 1.334 . S
C459 C458 1.407 . S
C459 C460 1.360 . S
C459 H520 0.929 . S
C460 C459 1.360 . S
C460 C461 1.401 . S
C460 C464 1.527 . S
C461 C460 1.401 . S
C461 C462 1.405 . S
C461 C494 1.587 . S
C462 C461 1.405 . S
C462 C463 1.332 . S
C462 C465 1.496 . S
C463 C458 1.418 . S
C463 C462 1.332 . S
C463 H521 0.929 . S
C464 C460 1.527 . S
C464 H522 0.959 . S
C464 H523 0.961 . S
C464 H524 0.961 . S
C465 C462 1.496 . S
C465 H525 0.960 . S
C465 H526 0.960 . S
C465 H527 0.961 . S
C466 C467 1.517 . S
C466 H529 0.961 . S
C466 H530 0.960 . S
C466 H531 0.959 . S
C467 C466 1.517 . S
C467 O515 1.468 . S
C467 H528 0.980 . S
C468 C469 1.349 . S
C468 C473 1.367 . S
C468 O515 1.408 . S
C469 C468 1.349 . S
C469 C470 1.407 . S
C469 H532 0.930 . S
C470 C469 1.407 . S
C470 C471 1.449 . S
C470 C474 1.535 . S
C471 C470 1.449 . S
C471 C472 1.384 . S
C471 C496 1.572 . S
C472 C471 1.384 . S
C472 C473 1.364 . S
C472 C475 1.450 . S
C473 C468 1.367 . S
C473 C472 1.364 . S
C473 H533 0.931 . S
C474 C470 1.535 . S
C474 H534 0.959 . S
C474 H535 0.961 . S
C474 H536 0.959 . S
C475 C472 1.450 . S
C475 H537 0.960 . S
C475 H538 0.960 1_545 S
C475 H539 0.960 . S
C476 C477 1.309 . S
C476 C481 1.304 . S
C476 O514 1.435 . S
C477 C476 1.309 . S
C477 C478 1.476 . S
C477 H541 0.930 . S
C478 C477 1.476 . S
C478 C479 1.400 . S
C478 C482 1.567 . S
C479 C478 1.400 . S
C479 C480 1.373 . S
C479 C501 1.432 . S
C480 C479 1.373 . S
C480 C481 1.339 . S
C480 C483 1.530 . S
C481 C476 1.304 . S
C481 C480 1.339 . S
C481 H542 0.930 . S
C482 C478 1.567 . S
C482 H543 0.961 . S
C482 H544 0.960 . S
C482 H545 0.958 . S
C483 C480 1.530 . S
C483 H546 0.961 . S
C483 H547 0.960 . S
C483 H548 0.960 . S
C484 C485 1.530 . S
C484 H550 0.961 . S
C484 H551 0.961 . S
C484 H552 0.959 . S
C485 C484 1.530 . S
C485 O513 1.412 . S
C485 H549 0.980 . S
C486 C487 1.288 . S
C486 C491 1.377 . S
C486 O513 1.393 . S
C487 C486 1.288 . S
C487 C488 1.369 . S
C487 H553 0.932 . S
C488 C487 1.369 . S
C488 C489 1.398 . S
C488 C492 1.527 . S
C489 C488 1.398 . S
C489 C490 1.380 . S
C489 C503 1.514 . S
C490 C489 1.380 . S
C490 C491 1.383 . S
C490 C493 1.603 . S
C491 C486 1.377 . S
C491 C490 1.383 . S
C491 H554 0.929 . S
C492 C488 1.527 . S
C492 H555 0.961 . S
C492 H556 0.959 1_565 S
C492 H557 0.959 . S
C493 C490 1.603 . S
C493 H558 0.960 . S
C493 H559 0.962 . S
C493 H560 0.961 . S
C494 C461 1.587 . S
C494 C495 1.360 . S
C494 C507 1.412 . S
C495 C494 1.360 . S
C495 C496 1.336 1_565 S
C495 H561 0.929 . S
C496 C471 1.572 . S
C496 C495 1.336 1_545 S
C496 C497 1.416 . S
C497 C496 1.416 . S
C497 C498 1.395 . S
C497 C508 1.451 1_545 S
C498 C497 1.395 . S
C498 C499 1.322 . S
C498 H562 0.930 . S
C499 C498 1.322 . S
C499 C500 1.459 1_556 S
C499 H563 0.929 . S
C500 C499 1.459 1_554 S
C500 C501 1.445 . S
C500 C509 1.390 1_554 S
C501 C479 1.432 . S
C501 C500 1.445 . S
C501 C502 1.370 . S
C502 C501 1.370 . S
C502 C503 1.412 1_545 S
C502 H564 0.930 . S
C503 C489 1.514 . S
C503 C502 1.412 1_565 S
C503 C504 1.368 . S
C504 C503 1.368 . S
C504 C505 1.401 . S
C504 C509 1.410 1_564 S
C505 C504 1.401 . S
C505 C506 1.347 1_554 S
C505 H565 0.929 . S
C506 C505 1.347 1_556 S
C506 C507 1.455 . S
C506 H566 0.930 . S
C507 C494 1.412 . S
C507 C506 1.455 . S
C507 C508 1.331 . S
C508 C497 1.451 1_565 S
C508 C507 1.331 . S
C508 C509 1.539 1_565 S
C509 C500 1.390 1_556 S
C509 C504 1.410 1_546 S
C509 C508 1.539 1_545 S
C510 C511 1.582 . S
C510 H567 0.962 . S
C510 H568 0.959 . S
C510 H569 0.958 . S
C511 C510 1.582 . S
C511 O514 1.458 . S
C511 H540 0.980 . S
O512 C457 1.426 . S
O512 C458 1.334 . S
O513 C485 1.412 . S
O513 C486 1.393 . S
O514 C476 1.435 . S
O514 C511 1.458 . S
O515 C467 1.468 . S
O515 C468 1.408 . S
H516 C457 0.980 . S
H517 C456 0.959 . S
H518 C456 0.959 . S
H519 C456 0.960 . S
H520 C459 0.929 . S
H521 C463 0.929 . S
H522 C464 0.959 . S
H523 C464 0.961 . S
H524 C464 0.961 . S
H525 C465 0.960 . S
H526 C465 0.960 . S
H527 C465 0.961 . S
H528 C467 0.980 . S
H529 C466 0.961 . S
H530 C466 0.960 . S
H531 C466 0.959 . S
H532 C469 0.930 . S
H533 C473 0.931 . S
H534 C474 0.959 . S
H535 C474 0.961 . S
H536 C474 0.959 . S
H537 C475 0.960 . S
H538 C475 0.960 1_565 S
H539 C475 0.960 . S
H540 C511 0.980 . S
H541 C477 0.930 . S
H542 C481 0.930 . S
H543 C482 0.961 . S
H544 C482 0.960 . S
H545 C482 0.958 . S
H546 C483 0.961 . S
H547 C483 0.960 . S
H548 C483 0.960 . S
H549 C485 0.980 . S
H550 C484 0.961 . S
H551 C484 0.961 . S
H552 C484 0.959 . S
H553 C487 0.932 . S
H554 C491 0.929 . S
H555 C492 0.961 . S
H556 C492 0.959 1_545 S
H557 C492 0.959 . S
H558 C493 0.960 . S
H559 C493 0.962 . S
H560 C493 0.961 . S
H561 C495 0.929 . S
H562 C498 0.930 . S
H563 C499 0.929 . S
H564 C502 0.930 . S
H565 C505 0.929 . S
H566 C506 0.930 . S
H567 C510 0.962 . S
H568 C510 0.959 . S
H569 C510 0.958 . S
C570 C571 1.560 . S
C570 H631 0.959 . S
C570 H632 0.959 . S
C570 H633 0.960 . S
C571 C570 1.560 . S
C571 O626 1.426 . S
C571 H630 0.980 . S
C572 C573 1.407 . S
C572 C577 1.418 . S
C572 O626 1.334 . S
C573 C572 1.407 . S
C573 C574 1.360 . S
C573 H634 0.929 . S
C574 C573 1.360 . S
C574 C575 1.401 . S
C574 C578 1.527 . S
C575 C574 1.401 . S
C575 C576 1.405 . S
C575 C608 1.587 . S
C576 C575 1.405 . S
C576 C577 1.332 . S
C576 C579 1.496 . S
C577 C572 1.418 . S
C577 C576 1.332 . S
C577 H635 0.929 . S
C578 C574 1.527 . S
C578 H636 0.959 . S
C578 H637 0.961 . S
C578 H638 0.961 . S
C579 C576 1.496 . S
C579 H639 0.960 . S
C579 H640 0.960 . S
C579 H641 0.961 . S
C580 C581 1.517 1_556 S
C580 H643 0.961 . S
C580 H644 0.960 . S
C580 H645 0.959 . S
C581 C580 1.517 1_554 S
C581 O629 1.468 . S
C581 H642 0.980 . S
C582 C583 1.349 . S
C582 C587 1.367 . S
C582 O629 1.408 . S
C583 C582 1.349 . S
C583 C584 1.407 . S
C583 H646 0.930 . S
C584 C583 1.407 . S
C584 C585 1.449 . S
C584 C588 1.535 . S
C585 C584 1.449 . S
C585 C586 1.384 . S
C585 C610 1.553 . S
C586 C585 1.384 . S
C586 C587 1.364 . S
C586 C589 1.450 . S
C587 C582 1.367 . S
C587 C586 1.364 . S
C587 H647 0.931 . S
C588 C584 1.535 . S
C588 H648 0.959 . S
C588 H649 0.961 . S
C588 H650 0.959 . S
C589 C586 1.450 . S
C589 H651 0.960 . S
C589 H652 0.960 . S
C589 H653 0.960 . S
C590 C591 1.309 . S
C590 C595 1.304 . S
C590 O628 1.435 . S
C591 C590 1.309 . S
C591 C592 1.476 . S
C591 H655 0.930 . S
C592 C591 1.476 . S
C592 C593 1.400 . S
C592 C596 1.567 . S
C593 C592 1.400 . S
C593 C594 1.373 . S
C593 C615 1.432 . S
C594 C593 1.373 . S
C594 C595 1.339 . S
C594 C597 1.530 . S
C595 C590 1.304 . S
C595 C594 1.339 . S
C595 H656 0.930 . S
C596 C592 1.567 . S
C596 H657 0.961 . S
C596 H658 0.960 . S
C596 H659 0.958 . S
C597 C594 1.530 . S
C597 H660 0.961 . S
C597 H661 0.960 . S
C597 H662 0.960 . S
C598 C599 1.530 . S
C598 H664 0.961 . S
C598 H665 0.961 . S
C598 H666 0.959 . S
C599 C598 1.530 . S
C599 O627 1.412 . S
C599 H663 0.980 . S
C600 C601 1.288 . S
C600 C605 1.377 . S
C600 O627 1.393 . S
C601 C600 1.288 . S
C601 C602 1.369 . S
C601 H667 0.932 . S
C602 C601 1.369 . S
C602 C603 1.398 . S
C602 C606 1.527 . S
C603 C602 1.398 . S
C603 C604 1.380 . S
C603 C617 1.497 . S
C604 C603 1.380 . S
C604 C605 1.383 . S
C604 C607 1.603 . S
C605 C600 1.377 . S
C605 C604 1.383 . S
C605 H668 0.929 . S
C606 C602 1.527 . S
C606 H669 0.961 . S
C606 H670 0.959 . S
C606 H671 0.959 . S
C607 C604 1.603 . S
C607 H672 0.960 . S
C607 H673 0.962 . S
C607 H674 0.961 . S
C608 C575 1.587 . S
C608 C609 1.360 . S
C608 C621 1.412 . S
C609 C608 1.360 . S
C609 C610 1.365 . S
C609 H675 0.929 . S
C610 C585 1.553 . S
C610 C609 1.365 . S
C610 C611 1.404 . S
C611 C610 1.404 . S
C611 C612 1.395 . S
C611 C622 1.451 . S
C612 C611 1.395 . S
C612 C613 1.322 . S
C612 H676 0.930 . S
C613 C612 1.322 . S
C613 C614 1.459 . S
C613 H677 0.929 . S
C614 C613 1.459 . S
C614 C615 1.445 . S
C614 C623 1.395 . S
C615 C593 1.432 . S
C615 C614 1.445 . S
C615 C616 1.370 . S
C616 C615 1.370 . S
C616 C617 1.438 . S
C616 H678 0.930 . S
C617 C603 1.497 . S
C617 C616 1.438 . S
C617 C618 1.360 . S
C618 C617 1.360 . S
C618 C619 1.401 . S
C618 C623 1.446 . S
C619 C618 1.401 . S
C619 C620 1.347 . S
C619 H679 0.929 . S
C620 C619 1.347 . S
C620 C621 1.455 . S
C620 H680 0.930 . S
C621 C608 1.412 . S
C621 C620 1.455 . S
C621 C622 1.331 . S
C622 C611 1.451 . S
C622 C621 1.331 . S
C622 C623 1.497 . S
C623 C614 1.395 . S
C623 C618 1.446 . S
C623 C622 1.497 . S
C624 C625 1.582 . S
C624 H681 0.962 . S
C624 H682 0.959 . S
C624 H683 0.958 . S
C625 C624 1.582 . S
C625 O628 1.458 . S
C625 H654 0.980 . S
O626 C571 1.426 . S
O626 C572 1.334 . S
O627 C599 1.412 . S
O627 C600 1.393 . S
O628 C590 1.435 . S
O628 C625 1.458 . S
O629 C581 1.468 . S
O629 C582 1.408 . S
H630 C571 0.980 . S
H631 C570 0.959 . S
H632 C570 0.959 . S
H633 C570 0.960 . S
H634 C573 0.929 . S
H635 C577 0.929 . S
H636 C578 0.959 . S
H637 C578 0.961 . S
H638 C578 0.961 . S
H639 C579 0.960 . S
H640 C579 0.960 . S
H641 C579 0.961 . S
H642 C581 0.980 . S
H643 C580 0.961 . S
H644 C580 0.960 . S
H645 C580 0.959 . S
H646 C583 0.930 . S
H647 C587 0.931 . S
H648 C588 0.959 . S
H649 C588 0.961 . S
H650 C588 0.959 . S
H651 C589 0.960 . S
H652 C589 0.960 . S
H653 C589 0.960 . S
H654 C625 0.980 . S
H655 C591 0.930 . S
H656 C595 0.930 . S
H657 C596 0.961 . S
H658 C596 0.960 . S
H659 C596 0.958 . S
H660 C597 0.961 . S
H661 C597 0.960 . S
H662 C597 0.960 . S
H663 C599 0.980 . S
H664 C598 0.961 . S
H665 C598 0.961 . S
H666 C598 0.959 . S
H667 C601 0.932 . S
H668 C605 0.929 . S
H669 C606 0.961 . S
H670 C606 0.959 . S
H671 C606 0.959 . S
H672 C607 0.960 . S
H673 C607 0.962 . S
H674 C607 0.961 . S
H675 C609 0.929 . S
H676 C612 0.930 . S
H677 C613 0.929 . S
H678 C616 0.930 . S
H679 C619 0.929 . S
H680 C620 0.930 . S
H681 C624 0.962 . S
H682 C624 0.959 . S
H683 C624 0.958 . S
C684 O685 1.306 . S
C684 O687 1.160 . S
O685 C684 1.306 . S
O685 Cd686 2.228 . S
Cd686 O685 2.228 . S
Cd686 O690 2.273 . S
Cd686 O694 2.277 . S
O687 C684 1.160 . S
O687 Cd688 2.203 . S
Cd688 O687 2.203 . S
Cd688 O690 2.411 . S
Cd688 O691 2.333 . S
Cd688 O692 2.352 . S
Cd688 O696 2.277 . S
Cd688 O697 2.356 . S
C689 O694 1.209 . S
C689 O696 1.226 . S
O690 Cd686 2.273 . S
O690 Cd688 2.411 . S
O690 C693 1.320 . S
O691 Cd688 2.333 . S
O691 C693 1.214 . S
O692 Cd688 2.352 . S
O692 C695 1.258 . S
C693 O690 1.320 . S
C693 O691 1.214 . S
O694 Cd686 2.277 . S
O694 C689 1.209 . S
C695 O692 1.258 . S
C695 O697 1.282 . S
O696 Cd688 2.277 . S
O696 C689 1.226 . S
O697 Cd688 2.356 . S
O697 C695 1.282 . S
C698 O699 1.306 . S
C698 O701 1.160 . S
O699 C698 1.306 . S
O699 Cd700 2.228 . S
Cd700 O699 2.228 . S
Cd700 O704 2.273 . S
Cd700 O708 2.277 . S
O701 C698 1.160 . S
O701 Cd702 2.203 . S
Cd702 O701 2.203 . S
Cd702 O704 2.411 . S
Cd702 O705 2.333 . S
Cd702 O706 2.352 . S
Cd702 O710 2.277 . S
Cd702 O711 2.356 . S
C703 O708 1.209 . S
C703 O710 1.226 . S
O704 Cd700 2.273 . S
O704 Cd702 2.411 . S
O704 C707 1.320 . S
O705 Cd702 2.333 . S
O705 C707 1.214 . S
O706 Cd702 2.352 . S
O706 C709 1.258 . S
C707 O704 1.320 . S
C707 O705 1.214 . S
O708 Cd700 2.277 . S
O708 C703 1.209 . S
C709 O706 1.258 . S
C709 O711 1.282 . S
O710 Cd702 2.277 . S
O710 C703 1.226 . S
O711 Cd702 2.356 . S
O711 C709 1.282 . S
C712 O713 1.306 . S
C712 O715 1.160 . S
O713 C712 1.306 . S
O713 Cd714 2.228 . S
Cd714 O713 2.228 . S
Cd714 O718 2.273 . S
Cd714 O722 2.277 . S
O715 C712 1.160 . S
O715 Cd716 2.203 . S
Cd716 O715 2.203 . S
Cd716 O718 2.411 . S
Cd716 O719 2.333 . S
Cd716 O720 2.352 . S
Cd716 O724 2.277 . S
Cd716 O725 2.356 . S
C717 O722 1.209 . S
C717 O724 1.226 . S
O718 Cd714 2.273 . S
O718 Cd716 2.411 . S
O718 C721 1.320 . S
O719 Cd716 2.333 . S
O719 C721 1.214 . S
O720 Cd716 2.352 . S
O720 C723 1.258 . S
C721 O718 1.320 . S
C721 O719 1.214 . S
O722 Cd714 2.277 . S
O722 C717 1.209 . S
C723 O720 1.258 . S
C723 O725 1.282 . S
O724 Cd716 2.277 . S
O724 C717 1.226 . S
O725 Cd716 2.356 . S
O725 C723 1.282 . S
C726 O727 1.306 . S
C726 O729 1.160 . S
O727 C726 1.306 . S
O727 Cd728 2.228 . S
Cd728 O727 2.228 . S
Cd728 O732 2.273 . S
Cd728 O736 2.277 . S
O729 C726 1.160 . S
O729 Cd730 2.203 . S
Cd730 O729 2.203 . S
Cd730 O732 2.411 . S
Cd730 O733 2.333 . S
Cd730 O734 2.352 . S
Cd730 O738 2.277 . S
Cd730 O739 2.356 . S
C731 O736 1.209 . S
C731 O738 1.226 . S
O732 Cd728 2.273 . S
O732 Cd730 2.411 . S
O732 C735 1.320 . S
O733 Cd730 2.333 . S
O733 C735 1.214 . S
O734 Cd730 2.352 . S
O734 C737 1.258 . S
C735 O732 1.320 . S
C735 O733 1.214 . S
O736 Cd728 2.277 . S
O736 C731 1.209 . S
C737 O734 1.258 . S
C737 O739 1.282 . S
O738 Cd730 2.277 . S
O738 C731 1.226 . S
O739 Cd730 2.356 . S
O739 C737 1.282 . S
C740 O741 1.306 . S
C740 O743 1.160 . S
O741 C740 1.306 . S
O741 Cd742 2.228 . S
Cd742 O741 2.228 . S
Cd742 O746 2.273 . S
Cd742 O750 2.277 . S
O743 C740 1.160 . S
O743 Cd744 2.203 . S
Cd744 O743 2.203 . S
Cd744 O746 2.411 . S
Cd744 O747 2.333 . S
Cd744 O748 2.352 . S
Cd744 O752 2.277 . S
Cd744 O753 2.356 . S
C745 O750 1.209 . S
C745 O752 1.226 . S
O746 Cd742 2.273 . S
O746 Cd744 2.411 . S
O746 C749 1.320 . S
O747 Cd744 2.333 . S
O747 C749 1.214 . S
O748 Cd744 2.352 . S
O748 C751 1.258 . S
C749 O746 1.320 . S
C749 O747 1.214 . S
O750 Cd742 2.277 . S
O750 C745 1.209 . S
C751 O748 1.258 . S
C751 O753 1.282 . S
O752 Cd744 2.277 . S
O752 C745 1.226 . S
O753 Cd744 2.356 . S
O753 C751 1.282 . S
C754 O755 1.306 . S
C754 O757 1.160 . S
O755 C754 1.306 . S
O755 Cd756 2.228 . S
Cd756 O755 2.228 . S
Cd756 O760 2.273 . S
Cd756 O764 2.277 . S
O757 C754 1.160 . S
O757 Cd758 2.203 . S
Cd758 O757 2.203 . S
Cd758 O760 2.411 . S
Cd758 O761 2.333 . S
Cd758 O762 2.352 . S
Cd758 O766 2.277 . S
Cd758 O767 2.356 . S
C759 O764 1.209 . S
C759 O766 1.226 . S
O760 Cd756 2.273 . S
O760 Cd758 2.411 . S
O760 C763 1.320 . S
O761 Cd758 2.333 . S
O761 C763 1.214 . S
O762 Cd758 2.352 . S
O762 C765 1.258 . S
C763 O760 1.320 . S
C763 O761 1.214 . S
O764 Cd756 2.277 . S
O764 C759 1.209 . S
C765 O762 1.258 . S
C765 O767 1.282 . S
O766 Cd758 2.277 . S
O766 C759 1.226 . S
O767 Cd758 2.356 . S
O767 C765 1.282 . S
C768 C769 1.369 . S
C768 C770 1.419 . S
C768 H772 0.930 . S
C769 C768 1.369 . S
C769 C778 1.429 . S
C770 C768 1.419 . S
C770 C771 1.363 . S
C770 H773 0.929 . S
C771 C770 1.363 . S
C771 C777 1.428 . S
H772 C768 0.930 . S
H773 C770 0.929 . S
S774 N775 1.613 . S
S774 N776 1.610 . S
N775 S774 1.613 . S
N775 C778 1.350 . S
N776 S774 1.610 . S
N776 C777 1.351 . S
C777 C771 1.428 . S
C777 N776 1.351 . S
C777 C778 1.434 . S
C778 C769 1.429 . S
C778 N775 1.350 . S
C778 C777 1.434 . S
C779 C780 1.369 . S
C779 C781 1.419 . S
C779 H783 0.930 . S
C780 C779 1.369 . S
C780 C789 1.429 . S
C781 C779 1.419 . S
C781 C782 1.363 . S
C781 H784 0.929 . S
C782 C781 1.363 . S
C782 C788 1.428 . S
H783 C779 0.930 . S
H784 C781 0.929 . S
S785 N786 1.613 . S
S785 N787 1.610 . S
N786 S785 1.613 . S
N786 C789 1.350 . S
N787 S785 1.610 . S
N787 C788 1.351 . S
C788 C782 1.428 . S
C788 N787 1.351 . S
C788 C789 1.434 . S
C789 C780 1.429 . S
C789 N786 1.350 . S
C789 C788 1.434 . S
C790 C791 1.369 . S
C790 C792 1.419 . S
C790 H794 0.930 . S
C791 C790 1.369 . S
C791 C800 1.429 . S
C792 C790 1.419 . S
C792 C793 1.363 . S
C792 H795 0.929 . S
C793 C792 1.363 . S
C793 C799 1.428 . S
H794 C790 0.930 . S
H795 C792 0.929 . S
S796 N797 1.613 . S
S796 N798 1.610 . S
N797 S796 1.613 . S
N797 C800 1.350 . S
N798 S796 1.610 . S
N798 C799 1.351 . S
C799 C793 1.428 . S
C799 N798 1.351 . S
C799 C800 1.434 . S
C800 C791 1.429 . S
C800 N797 1.350 . S
C800 C799 1.434 . S
C801 C802 1.369 . S
C801 C803 1.419 . S
C801 H805 0.930 . S
C802 C801 1.369 . S
C802 C811 1.429 . S
C803 C801 1.419 . S
C803 C804 1.363 . S
C803 H806 0.929 . S
C804 C803 1.363 . S
C804 C810 1.428 . S
H805 C801 0.930 . S
H806 C803 0.929 . S
S807 N808 1.613 . S
S807 N809 1.610 . S
N808 S807 1.613 . S
N808 C811 1.350 . S
N809 S807 1.610 . S
N809 C810 1.351 . S
C810 C804 1.428 . S
C810 N809 1.351 . S
C810 C811 1.434 . S
C811 C802 1.429 . S
C811 N808 1.350 . S
C811 C810 1.434 . S
C812 C813 1.369 . S
C812 C814 1.419 . S
C812 H816 0.930 . S
C813 C812 1.369 . S
C813 C822 1.429 . S
C814 C812 1.419 . S
C814 C815 1.363 . S
C814 H817 0.929 . S
C815 C814 1.363 . S
C815 C821 1.428 . S
H816 C812 0.930 . S
H817 C814 0.929 . S
S818 N819 1.613 . S
S818 N820 1.610 . S
N819 S818 1.613 . S
N819 C822 1.350 . S
N820 S818 1.610 . S
N820 C821 1.351 . S
C821 C815 1.428 . S
C821 N820 1.351 . S
C821 C822 1.434 . S
C822 C813 1.429 . S
C822 N819 1.350 . S
C822 C821 1.434 . S
C823 C824 1.369 . S
C823 C825 1.419 . S
C823 H827 0.930 . S
C824 C823 1.369 . S
C824 C833 1.429 . S
C825 C823 1.419 . S
C825 C826 1.363 . S
C825 H828 0.929 . S
C826 C825 1.363 . S
C826 C832 1.428 . S
H827 C823 0.930 . S
H828 C825 0.929 . S
S829 N830 1.613 . S
S829 N831 1.610 . S
N830 S829 1.613 . S
N830 C833 1.350 . S
N831 S829 1.610 . S
N831 C832 1.351 . S
C832 C826 1.428 . S
C832 N831 1.351 . S
C832 C833 1.434 . S
C833 C824 1.429 . S
C833 N830 1.350 . S
C833 C832 1.434 . S
C834 C835 1.369 . S
C834 C836 1.419 . S
C834 H838 0.930 . S
C835 C834 1.369 . S
C835 C844 1.429 . S
C836 C834 1.419 . S
C836 C837 1.363 . S
C836 H839 0.929 . S
C837 C836 1.363 . S
C837 C843 1.428 . S
H838 C834 0.930 . S
H839 C836 0.929 . S
S840 N841 1.613 . S
S840 N842 1.610 . S
N841 S840 1.613 . S
N841 C844 1.350 . S
N842 S840 1.610 . S
N842 C843 1.351 . S
C843 C837 1.428 . S
C843 N842 1.351 . S
C843 C844 1.434 . S
C844 C835 1.429 . S
C844 N841 1.350 . S
C844 C843 1.434 . S
C845 C846 1.369 . S
C845 C847 1.419 . S
C845 H849 0.930 . S
C846 C845 1.369 . S
C846 C855 1.429 . S
C847 C845 1.419 . S
C847 C848 1.363 . S
C847 H850 0.929 . S
C848 C847 1.363 . S
C848 C854 1.428 . S
H849 C845 0.930 . S
H850 C847 0.929 . S
S851 N852 1.613 . S
S851 N853 1.610 . S
N852 S851 1.613 . S
N852 C855 1.350 . S
N853 S851 1.610 . S
N853 C854 1.351 . S
C854 C848 1.428 . S
C854 N853 1.351 . S
C854 C855 1.434 . S
C855 C846 1.429 . S
C855 N852 1.350 . S
C855 C854 1.434 . S
C856 C857 1.369 . S
C856 C858 1.419 . S
C856 H860 0.930 . S
C857 C856 1.369 . S
C857 C866 1.429 . S
C858 C856 1.419 . S
C858 C859 1.363 . S
C858 H861 0.929 . S
C859 C858 1.363 . S
C859 C865 1.428 . S
H860 C856 0.930 . S
H861 C858 0.929 . S
S862 N863 1.613 . S
S862 N864 1.610 . S
N863 S862 1.613 . S
N863 C866 1.350 . S
N864 S862 1.610 . S
N864 C865 1.351 . S
C865 C859 1.428 . S
C865 N864 1.351 . S
C865 C866 1.434 . S
C866 C857 1.429 . S
C866 N863 1.350 . S
C866 C865 1.434 . S
C867 C868 1.369 . S
C867 C869 1.419 . S
C867 H871 0.930 . S
C868 C867 1.369 . S
C868 C877 1.429 . S
C869 C867 1.419 . S
C869 C870 1.363 . S
C869 H872 0.929 . S
C870 C869 1.363 . S
C870 C876 1.428 . S
H871 C867 0.930 . S
H872 C869 0.929 . S
S873 N874 1.613 . S
S873 N875 1.610 . S
N874 S873 1.613 . S
N874 C877 1.350 . S
N875 S873 1.610 . S
N875 C876 1.351 . S
C876 C870 1.428 . S
C876 N875 1.351 . S
C876 C877 1.434 . S
C877 C868 1.429 . S
C877 N874 1.350 . S
C877 C876 1.434 . S
C878 C879 1.369 . S
C878 C880 1.419 . S
C878 H882 0.930 . S
C879 C878 1.369 . S
C879 C888 1.429 . S
C880 C878 1.419 . S
C880 C881 1.363 . S
C880 H883 0.929 . S
C881 C880 1.363 . S
C881 C887 1.428 . S
H882 C878 0.930 . S
H883 C880 0.929 . S
S884 N885 1.613 . S
S884 N886 1.610 . S
N885 S884 1.613 . S
N885 C888 1.350 . S
N886 S884 1.610 . S
N886 C887 1.351 . S
C887 C881 1.428 . S
C887 N886 1.351 . S
C887 C888 1.434 . S
C888 C879 1.429 . S
C888 N885 1.350 . S
C888 C887 1.434 . S
C889 C890 1.369 . S
C889 C891 1.419 . S
C889 H893 0.930 . S
C890 C889 1.369 . S
C890 C899 1.429 . S
C891 C889 1.419 . S
C891 C892 1.363 . S
C891 H894 0.929 . S
C892 C891 1.363 . S
C892 C898 1.428 . S
H893 C889 0.930 . S
H894 C891 0.929 . S
S895 N896 1.613 . S
S895 N897 1.610 . S
N896 S895 1.613 . S
N896 C899 1.350 . S
N897 S895 1.610 . S
N897 C898 1.351 . S
C898 C892 1.428 . S
C898 N897 1.351 . S
C898 C899 1.434 . S
C899 C890 1.429 . S
C899 N896 1.350 . S
C899 C898 1.434 . S
C900 C901 1.369 . S
C900 C902 1.419 . S
C900 H904 0.930 . S
C901 C900 1.369 . S
C901 C910 1.429 . S
C902 C900 1.419 . S
C902 C903 1.363 . S
C902 H905 0.929 . S
C903 C902 1.363 . S
C903 C909 1.428 . S
H904 C900 0.930 . S
H905 C902 0.929 . S
S906 N907 1.613 . S
S906 N908 1.610 . S
N907 S906 1.613 . S
N907 C910 1.350 . S
N908 S906 1.610 . S
N908 C909 1.351 . S
C909 C903 1.428 . S
C909 N908 1.351 . S
C909 C910 1.434 . S
C910 C901 1.429 . S
C910 N907 1.350 . S
C910 C909 1.434 . S
C911 C912 1.369 . S
C911 C913 1.419 . S
C911 H915 0.930 . S
C912 C911 1.369 . S
C912 C921 1.429 . S
C913 C911 1.419 . S
C913 C914 1.363 . S
C913 H916 0.929 . S
C914 C913 1.363 . S
C914 C920 1.428 . S
H915 C911 0.930 . S
H916 C913 0.929 . S
S917 N918 1.613 . S
S917 N919 1.610 . S
N918 S917 1.613 . S
N918 C921 1.350 . S
N919 S917 1.610 . S
N919 C920 1.351 . S
C920 C914 1.428 . S
C920 N919 1.351 . S
C920 C921 1.434 . S
C921 C912 1.429 . S
C921 N918 1.350 . S
C921 C920 1.434 . S
C922 C923 1.369 . S
C922 C924 1.419 . S
C922 H926 0.930 . S
C923 C922 1.369 . S
C923 C932 1.429 . S
C924 C922 1.419 . S
C924 C925 1.363 . S
C924 H927 0.929 . S
C925 C924 1.363 . S
C925 C931 1.428 . S
H926 C922 0.930 . S
H927 C924 0.929 . S
S928 N929 1.613 . S
S928 N930 1.610 . S
N929 S928 1.613 . S
N929 C932 1.350 . S
N930 S928 1.610 . S
N930 C931 1.351 . S
C931 C925 1.428 . S
C931 N930 1.351 . S
C931 C932 1.434 . S
C932 C923 1.429 . S
C932 N929 1.350 . S
C932 C931 1.434 . S
C933 C934 1.369 . S
C933 C935 1.419 1_556 S
C933 H937 0.930 . S
C934 C933 1.369 . S
C934 C943 1.429 . S
C935 C933 1.419 1_554 S
C935 C936 1.363 . S
C935 H938 0.929 . S
C936 C935 1.363 . S
C936 C942 1.428 . S
H937 C933 0.930 . S
H938 C935 0.929 . S
S939 N940 1.613 . S
S939 N941 1.610 1_556 S
N940 S939 1.613 . S
N940 C943 1.350 . S
N941 S939 1.610 1_554 S
N941 C942 1.351 . S
C942 C936 1.428 . S
C942 N941 1.351 . S
C942 C943 1.434 1_554 S
C943 C934 1.429 . S
C943 N940 1.350 . S
C943 C942 1.434 1_556 S
C944 C945 1.369 . S
C944 C946 1.419 . S
C944 H948 0.930 . S
C945 C944 1.369 . S
C945 C954 1.429 . S
C946 C944 1.419 . S
C946 C947 1.363 . S
C946 H949 0.929 . S
C947 C946 1.363 . S
C947 C953 1.428 . S
H948 C944 0.930 . S
H949 C946 0.929 . S
S950 N951 1.613 . S
S950 N952 1.610 . S
N951 S950 1.613 . S
N951 C954 1.350 . S
N952 S950 1.610 . S
N952 C953 1.351 . S
C953 C947 1.428 . S
C953 N952 1.351 . S
C953 C954 1.434 . S
C954 C945 1.429 . S
C954 N951 1.350 . S
C954 C953 1.434 . S
C955 C956 1.369 . S
C955 C957 1.419 . S
C955 H959 0.930 . S
C956 C955 1.369 . S
C956 C965 1.429 . S
C957 C955 1.419 . S
C957 C958 1.363 . S
C957 H960 0.929 . S
C958 C957 1.363 . S
C958 C964 1.428 . S
H959 C955 0.930 . S
H960 C957 0.929 . S
S961 N962 1.613 . S
S961 N963 1.610 . S
N962 S961 1.613 . S
N962 C965 1.350 . S
N963 S961 1.610 . S
N963 C964 1.351 . S
C964 C958 1.428 . S
C964 N963 1.351 . S
C964 C965 1.434 . S
C965 C956 1.429 . S
C965 N962 1.350 . S
C965 C964 1.434 . S
C966 C967 1.369 . S
C966 C968 1.419 . S
C966 H970 0.930 . S
C967 C966 1.369 . S
C967 C976 1.429 . S
C968 C966 1.419 . S
C968 C969 1.363 . S
C968 H971 0.929 . S
C969 C968 1.363 . S
C969 C975 1.428 . S
H970 C966 0.930 . S
H971 C968 0.929 . S
S972 N973 1.613 . S
S972 N974 1.610 . S
N973 S972 1.613 . S
N973 C976 1.350 . S
N974 S972 1.610 . S
N974 C975 1.351 . S
C975 C969 1.428 . S
C975 N974 1.351 . S
C975 C976 1.434 . S
C976 C967 1.429 . S
C976 N973 1.350 . S
C976 C975 1.434 . S
C977 C978 1.369 . S
C977 C979 1.419 . S
C977 H981 0.930 . S
C978 C977 1.369 . S
C978 C987 1.429 . S
C979 C977 1.419 . S
C979 C980 1.363 . S
C979 H982 0.929 . S
C980 C979 1.363 . S
C980 C986 1.428 . S
H981 C977 0.930 . S
H982 C979 0.929 . S
S983 N984 1.613 . S
S983 N985 1.610 . S
N984 S983 1.613 . S
N984 C987 1.350 . S
N985 S983 1.610 . S
N985 C986 1.351 . S
C986 C980 1.428 . S
C986 N985 1.351 . S
C986 C987 1.434 . S
C987 C978 1.429 . S
C987 N984 1.350 . S
C987 C986 1.434 . S
C988 C989 1.369 . S
C988 C990 1.419 . S
C988 H992 0.930 . S
C989 C988 1.369 . S
C989 C998 1.429 . S
C990 C988 1.419 . S
C990 C991 1.363 . S
C990 H993 0.929 . S
C991 C990 1.363 . S
C991 C997 1.428 . S
H992 C988 0.930 . S
H993 C990 0.929 . S
S994 N995 1.613 . S
S994 N996 1.610 . S
N995 S994 1.613 . S
N995 C998 1.350 . S
N996 S994 1.610 . S
N996 C997 1.351 . S
C997 C991 1.428 . S
C997 N996 1.351 . S
C997 C998 1.434 . S
C998 C989 1.429 . S
C998 N995 1.350 . S
C998 C997 1.434 . S
C999 C1000 1.369 . S
C999 C1001 1.419 . S
C999 H1003 0.930 . S
C1000 C999 1.369 . S
C1000 C1009 1.429 . S
C1001 C999 1.419 . S
C1001 C1002 1.363 . S
C1001 H1004 0.929 . S
C1002 C1001 1.363 . S
C1002 C1008 1.428 . S
H1003 C999 0.930 . S
H1004 C1001 0.929 . S
S1005 N1006 1.613 . S
S1005 N1007 1.610 . S
N1006 S1005 1.613 . S
N1006 C1009 1.350 . S
N1007 S1005 1.610 . S
N1007 C1008 1.351 . S
C1008 C1002 1.428 . S
C1008 N1007 1.351 . S
C1008 C1009 1.434 . S
C1009 C1000 1.429 . S
C1009 N1006 1.350 . S
C1009 C1008 1.434 . S
C1010 C1011 1.369 . S
C1010 C1012 1.419 1_554 S
C1010 H1014 0.930 . S
C1011 C1010 1.369 . S
C1011 C1020 1.429 1_554 S
C1012 C1010 1.419 1_556 S
C1012 C1013 1.363 . S
C1012 H1015 0.929 . S
C1013 C1012 1.363 . S
C1013 C1019 1.428 . S
H1014 C1010 0.930 . S
H1015 C1012 0.929 . S
S1016 N1017 1.613 . S
S1016 N1018 1.610 . S
N1017 S1016 1.613 . S
N1017 C1020 1.350 . S
N1018 S1016 1.610 . S
N1018 C1019 1.351 . S
C1019 C1013 1.428 . S
C1019 N1018 1.351 . S
C1019 C1020 1.434 . S
C1020 C1011 1.429 1_556 S
C1020 N1017 1.350 . S
C1020 C1019 1.434 . S
C1021 C1022 1.369 . S
C1021 C1023 1.419 . S
C1021 H1025 0.930 . S
C1022 C1021 1.369 . S
C1022 C1031 1.429 . S
C1023 C1021 1.419 . S
C1023 C1024 1.363 . S
C1023 H1026 0.929 . S
C1024 C1023 1.363 . S
C1024 C1030 1.428 . S
H1025 C1021 0.930 . S
H1026 C1023 0.929 . S
S1027 N1028 1.613 . S
S1027 N1029 1.610 . S
N1028 S1027 1.613 . S
N1028 C1031 1.350 . S
N1029 S1027 1.610 . S
N1029 C1030 1.351 . S
C1030 C1024 1.428 . S
C1030 N1029 1.351 . S
C1030 C1031 1.434 . S
C1031 C1022 1.429 . S
C1031 N1028 1.350 . S
C1031 C1030 1.434 . S
C771 C754 1.823 . S
C769 C1 1.364 . S
C780 C169 1.600 . S
C782 C695 1.857 . S
C791 C283 1.636 . S
C793 C698 1.907 . S
C802 C397 1.385 . S
C804 C712 1.683 . S
C815 C737 1.723 . S
C813 C457 1.284 . S
C824 C571 1.243 . S
C826 C740 1.626 . S
C835 C115 1.303 . S
C837 C709 1.721 . S
C846 C229 1.239 . S
C848 C723 1.686 . S
C857 C343 1.200 . S
C859 C726 1.557 . S
C870 C751 1.775 . S
C868 C511 1.528 . S
C881 C765 1.786 . S
C879 C625 1.522 . S
C892 C684 1.877 . S
C890 C55 1.602 . S
C901 C29 1.160 . S
C903 C707 1.445 . S
C912 C125 0.932 . S
C914 C721 1.521 . S
C925 C731 1.477 . S
C923 C239 0.887 . S
C934 C353 0.880 . S
C936 C749 1.448 . S
C947 C763 1.432 . S
C945 C485 1.093 . S
C958 C689 1.482 . S
C956 C599 1.177 . S
C969 C759 1.507 . S
C967 C143 1.178 . S
C978 C257 1.155 . S
C980 C693 1.493 . S
C991 C703 1.441 . S
C989 C371 1.159 . S
C1000 C467 0.985 . S
C1002 C717 1.504 . S
C1011 C581 0.895 . S
C1013 C735 1.474 . S
C1022 C11 0.922 . S
C1024 C745 1.537 . S
