# Generated by pormake.
# Topology zzz, (3,6)-cn, num edge types: 1
# Building blocks:
#     Node 0, Type 0, BuildingBlock: MIDCAF_clean_linker_0, # of connection points: 3
#     Node 1, Type 0, BuildingBlock: MIDCAF_clean_linker_0, # of connection points: 3
#     Node 2, Type 0, BuildingBlock: MIDCAF_clean_linker_0, # of connection points: 3
#     Node 3, Type 0, BuildingBlock: MIDCAF_clean_linker_0, # of connection points: 3
#     Node 4, Type 0, BuildingBlock: MIDCAF_clean_linker_0, # of connection points: 3
#     Node 5, Type 0, BuildingBlock: MIDCAF_clean_linker_0, # of connection points: 3
#     Node 6, Type 0, BuildingBlock: MIDCAF_clean_linker_0, # of connection points: 3
#     Node 7, Type 0, BuildingBlock: MIDCAF_clean_linker_0, # of connection points: 3
#     Node 8, Type 1, BuildingBlock: CUWYAW_clean_sbu_0, # of connection points: 6
#     Node 9, Type 1, BuildingBlock: CUWYAW_clean_sbu_0, # of connection points: 6
#     Node 10, Type 1, BuildingBlock: CUWYAW_clean_sbu_0, # of connection points: 6
#     Node 11, Type 1, BuildingBlock: CUWYAW_clean_sbu_0, # of connection points: 6
#     Edge 12, Type (0, 1), BuildingBlock: CIFDUS_clean_linker_0, # of connection points: 2
#     Edge 13, Type (0, 1), BuildingBlock: CIFDUS_clean_linker_0, # of connection points: 2
#     Edge 14, Type (0, 1), BuildingBlock: CIFDUS_clean_linker_0, # of connection points: 2
#     Edge 15, Type (0, 1), BuildingBlock: CIFDUS_clean_linker_0, # of connection points: 2
#     Edge 16, Type (0, 1), BuildingBlock: CIFDUS_clean_linker_0, # of connection points: 2
#     Edge 17, Type (0, 1), BuildingBlock: CIFDUS_clean_linker_0, # of connection points: 2
#     Edge 18, Type (0, 1), BuildingBlock: CIFDUS_clean_linker_0, # of connection points: 2
#     Edge 19, Type (0, 1), BuildingBlock: CIFDUS_clean_linker_0, # of connection points: 2
#     Edge 20, Type (0, 1), BuildingBlock: CIFDUS_clean_linker_0, # of connection points: 2
#     Edge 21, Type (0, 1), BuildingBlock: CIFDUS_clean_linker_0, # of connection points: 2
#     Edge 22, Type (0, 1), BuildingBlock: CIFDUS_clean_linker_0, # of connection points: 2
#     Edge 23, Type (0, 1), BuildingBlock: CIFDUS_clean_linker_0, # of connection points: 2
#     Edge 24, Type (0, 1), BuildingBlock: CIFDUS_clean_linker_0, # of connection points: 2
#     Edge 25, Type (0, 1), BuildingBlock: CIFDUS_clean_linker_0, # of connection points: 2
#     Edge 26, Type (0, 1), BuildingBlock: CIFDUS_clean_linker_0, # of connection points: 2
#     Edge 27, Type (0, 1), BuildingBlock: CIFDUS_clean_linker_0, # of connection points: 2
#     Edge 28, Type (0, 1), BuildingBlock: CIFDUS_clean_linker_0, # of connection points: 2
#     Edge 29, Type (0, 1), BuildingBlock: CIFDUS_clean_linker_0, # of connection points: 2
#     Edge 30, Type (0, 1), BuildingBlock: CIFDUS_clean_linker_0, # of connection points: 2
#     Edge 31, Type (0, 1), BuildingBlock: CIFDUS_clean_linker_0, # of connection points: 2
#     Edge 32, Type (0, 1), BuildingBlock: CIFDUS_clean_linker_0, # of connection points: 2
#     Edge 33, Type (0, 1), BuildingBlock: CIFDUS_clean_linker_0, # of connection points: 2
#     Edge 34, Type (0, 1), BuildingBlock: CIFDUS_clean_linker_0, # of connection points: 2
#     Edge 35, Type (0, 1), BuildingBlock: CIFDUS_clean_linker_0, # of connection points: 2
# Relax obj value: 0.453
# Max RMSD: 0.249
# Mean RMSD: 0.233
data_MOF--net-zzz--node1-CUWYAW_clean_sbu_0--node2-MIDCAF_clean_linker_0--edge1-CIFDUS_clean_linker_0
_symmetry_space_group_name_H-M    P1
_symmetry_Int_Tables_number       1
_symmetry_cell_setting            triclinic
loop_
_symmetry_equiv_pos_as_xyz
'x, y, z'
_cell_length_a     52.261805
_cell_length_b     52.282267
_cell_length_c     17.219016
_cell_angle_alpha  89.626764
_cell_angle_beta   90.016397
_cell_angle_gamma 90.037855
loop_
_atom_site_label
_atom_site_type_symbol
_atom_site_fract_x
_atom_site_fract_y
_atom_site_fract_z
_atom_type_partial_charge
C0 C 0.79535 0.49395 0.46979 0.0
C1 C 0.80623 0.51846 0.46261 0.0
C2 C 0.7932 0.53686 0.417 0.0
C3 C 0.77077 0.53038 0.37617 0.0
H4 H 0.65822 0.49012 0.30256 0.0
H5 H 0.61806 0.49495 0.23091 0.0
H6 H 0.65781 0.53673 0.05081 0.0
H7 H 0.69798 0.53173 0.12278 0.0
H8 H 0.71493 0.44676 0.08778 0.0
H9 H 0.73783 0.41981 0.99614 0.0
H10 H 0.79658 0.40659 0.1688 0.0
H11 H 0.7734 0.43233 0.26016 0.0
H12 H 0.76637 0.46794 0.43205 0.0
H13 H 0.80481 0.47913 0.50332 0.0
H14 H 0.80083 0.55602 0.41071 0.0
H15 H 0.76208 0.54442 0.33789 0.0
N16 N 0.72074 0.50871 0.30042 0.0
N17 N 0.71206 0.47701 0.20697 0.0
N18 N 0.74852 0.47374 0.2844 0.0
C19 C 0.70531 0.49892 0.24353 0.0
C20 C 0.7336 0.46427 0.22712 0.0
C21 C 0.74247 0.49575 0.32133 0.0
C22 C 0.68108 0.51101 0.21899 0.0
C23 C 0.65807 0.50154 0.24982 0.0
C24 C 0.63515 0.50403 0.2082 0.0
C25 C 0.63478 0.51599 0.13469 0.0
C26 C 0.65737 0.52764 0.1075 0.0
C27 C 0.68036 0.52494 0.14896 0.0
C28 C 0.74289 0.44252 0.18028 0.0
C29 C 0.73229 0.43733 0.10694 0.0
C30 C 0.74546 0.42191 0.05422 0.0
C31 C 0.76951 0.41162 0.0738 0.0
C32 C 0.77821 0.4141 0.15081 0.0
C33 C 0.76501 0.42931 0.20341 0.0
C34 C 0.76109 0.50532 0.37959 0.0
C35 C 0.77323 0.48749 0.42871 0.0
C36 C 0.97831 0.82677 0.37487 0.0
C37 C 0.98275 0.82911 0.45542 0.0
C38 C 0.99051 0.80701 0.49662 0.0
C39 C 0.99581 0.78412 0.45767 0.0
H40 H 1.00145 0.73345 0.08922 0.0
H41 H 0.99019 0.7003 0.99626 0.0
H42 H 0.97689 0.64724 0.18544 0.0
H43 H 0.98851 0.6808 0.27854 0.0
H44 H 0.07622 0.7316 0.16192 0.0
H45 H 0.11102 0.75588 0.10335 0.0
H46 H 0.11008 0.80755 0.29836 0.0
H47 H 0.0765 0.78277 0.358 0.0
H48 H 0.98137 0.80315 0.27364 0.0
H49 H 0.97272 0.84318 0.34024 0.0
H50 H 0.99351 0.80755 0.55877 0.0
H51 H 1.00371 0.76815 0.49012 0.0
N52 N 0.99379 0.74429 0.29003 0.0
N53 N 0.03341 0.73116 0.23837 0.0
N54 N 0.032 0.76431 0.32844 0.0
C55 C 1.00763 0.72825 0.24372 0.0
C56 C 0.0458 0.74903 0.28097 0.0
C57 C 1.00623 0.76215 0.33374 0.0
C58 C 0.99527 0.70981 0.1909 0.0
C59 C 0.99534 0.71492 0.11085 0.0
C60 C 0.98893 0.69584 0.05764 0.0
C61 C 0.9826 0.67096 0.08305 0.0
C62 C 0.98183 0.66608 0.16368 0.0
C63 C 0.98809 0.68535 0.21709 0.0
C64 C 0.0726 0.75616 0.26252 0.0
C65 C 0.08423 0.74747 0.19395 0.0
C66 C 0.10418 0.76148 0.16012 0.0
C67 C 0.1124 0.78456 0.19374 0.0
C68 C 0.10402 0.79026 0.26937 0.0
C69 C 0.08436 0.77611 0.30354 0.0
C70 C 0.99267 0.78239 0.37694 0.0
C71 C 0.98312 0.80369 0.33631 0.0
C72 C 0.69982 0.99324 0.43944 0.0
C73 C 0.69374 1.00712 0.50705 0.0
C74 C 0.71087 0.02628 0.53113 0.0
C75 C 0.73242 0.03249 0.48677 0.0
H76 H 0.83619 0.05582 0.24641 0.0
H77 H 0.86997 0.04158 0.16007 0.0
H78 H 0.8302 0.97003 0.12699 0.0
H79 H 0.796 0.98459 0.21436 0.0
H80 H 0.78066 0.09483 0.15691 0.0
H81 H 0.75494 0.12482 0.08144 0.0
H82 H 0.70038 0.12863 0.26959 0.0
H83 H 0.72633 0.09964 0.34548 0.0
H84 H 0.72493 0.9896 0.34076 0.0
H85 H 0.68725 0.97819 0.41937 0.0
H86 H 0.70684 0.03773 0.58185 0.0
H87 H 0.74414 0.04855 0.50437 0.0
N88 N 0.77561 0.01982 0.32726 0.0
N89 N 0.78484 0.0575 0.25641 0.0
N90 N 0.75001 0.05655 0.34084 0.0
C91 C 0.79085 0.03298 0.27589 0.0
C92 C 0.76441 0.06938 0.28823 0.0
C93 C 0.75531 0.03203 0.361 0.0
C94 C 0.81339 0.02134 0.23718 0.0
C95 C 0.83492 0.03677 0.22225 0.0
C96 C 0.85441 0.02853 0.17286 0.0
C97 C 0.85286 1.00468 0.13599 0.0
C98 C 0.83192 0.98862 0.15393 0.0
C99 C 0.81245 0.9968 0.20457 0.0
C100 C 0.75487 0.09389 0.25573 0.0
C101 C 0.76373 0.10291 0.18346 0.0
C102 C 0.74895 0.1201 0.14001 0.0
C103 C 0.72503 0.12829 0.16796 0.0
C104 C 0.71849 0.12256 0.24539 0.0
C105 C 0.7333 0.10556 0.2889 0.0
C106 C 0.73774 0.01962 0.41732 0.0
C107 C 0.72166 0.9994 0.39508 0.0
C108 C 0.61798 0.72404 0.19806 0.0
C109 C 0.60649 0.71842 0.1262 0.0
C110 C 0.59349 0.73828 0.08688 0.0
C111 C 0.58739 0.76086 0.12552 0.0
H112 H 0.49524 0.80758 0.18964 0.0
H113 H 0.48016 0.84276 0.10761 0.0
H114 H 0.54271 0.88979 0.18881 0.0
H115 H 0.55837 0.85392 0.26653 0.0
H116 H 0.49301 0.75782 0.38567 0.0
H117 H 0.47809 0.71976 0.45808 0.0
H118 H 0.55616 0.70107 0.5161 0.0
H119 H 0.57093 0.73886 0.44663 0.0
H120 H 0.61692 0.74828 0.29771 0.0
H121 H 0.62932 0.70981 0.22838 0.0
H122 H 0.58471 0.73523 0.03079 0.0
H123 H 0.57418 0.77402 0.0978 0.0
N124 N 0.56259 0.79766 0.23045 0.0
N125 N 0.53062 0.79077 0.32536 0.0
N126 N 0.56561 0.76286 0.31522 0.0
C127 C 0.54077 0.80533 0.26644 0.0
C128 C 0.54356 0.76959 0.351 0.0
C129 C 0.57516 0.77645 0.25486 0.0
C130 C 0.52773 0.82821 0.23504 0.0
C131 C 0.50522 0.82574 0.19143 0.0
C132 C 0.49668 0.84599 0.14416 0.0
C133 C 0.51036 0.86928 0.14009 0.0
C134 C 0.53199 0.87208 0.18819 0.0
C135 C 0.54075 0.85169 0.23407 0.0
C136 C 0.53318 0.75129 0.40967 0.0
C137 C 0.50684 0.74606 0.41621 0.0
C138 C 0.49834 0.72419 0.45704 0.0
C139 C 0.51607 0.7072 0.49115 0.0
C140 C 0.54212 0.71354 0.48917 0.0
C141 C 0.55052 0.73532 0.44958 0.0
C142 C 0.5937 0.7635 0.20419 0.0
C143 C 0.61125 0.74631 0.23751 0.0
C144 C 0.20186 0.5144 0.97202 0.0
C145 C 0.19468 0.50041 0.90572 0.0
C146 C 0.21119 0.48103 0.87974 0.0
C147 C 0.23294 0.47424 0.92284 0.0
H148 H 0.32713 0.44325 0.20587 0.0
H149 H 0.35875 0.45734 0.29983 0.0
H150 H 0.33167 0.53498 0.27497 0.0
H151 H 0.29956 0.52061 0.18058 0.0
H152 H 0.26363 0.42115 0.28805 0.0
H153 H 0.22827 0.41189 0.37531 0.0
H154 H 0.17747 0.40486 0.17901 0.0
H155 H 0.21274 0.41365 0.09159 0.0
H156 H 0.22768 0.51748 0.06882 0.0
H157 H 0.18972 0.52959 0.99331 0.0
H158 H 0.20624 0.4697 0.82949 0.0
H159 H 0.24388 0.45765 0.90532 0.0
N160 N 0.27603 0.48374 0.08496 0.0
N161 N 0.27769 0.44839 0.17047 0.0
N162 N 0.24506 0.45114 0.07867 0.0
C163 C 0.2881 0.47057 0.14357 0.0
C164 C 0.25608 0.43861 0.13896 0.0
C165 C 0.25475 0.47339 0.05084 0.0
C166 C 0.31072 0.48079 0.18587 0.0
C167 C 0.32827 0.46346 0.21899 0.0
C168 C 0.34655 0.47158 0.27284 0.0
C169 C 0.34771 0.49728 0.29589 0.0
C170 C 0.33112 0.51496 0.25933 0.0
C171 C 0.31291 0.50682 0.20451 0.0
C172 C 0.24055 0.41981 0.18321 0.0
C173 C 0.24528 0.41623 0.26297 0.0
C174 C 0.22498 0.4109 0.31326 0.0
C175 C 0.19994 0.40905 0.28401 0.0
C176 C 0.19647 0.4068 0.20346 0.0
C177 C 0.21676 0.41206 0.15316 0.0
C178 C 0.23907 0.48698 0.99207 0.0
C179 C 0.22388 0.50781 0.01457 0.0
C180 C 1.01213 0.21151 0.03168 0.0
C181 C 0.02164 0.20684 0.95655 0.0
C182 C 0.03643 0.22603 0.92042 0.0
C183 C 0.04344 0.24818 0.96097 0.0
H184 H 0.08907 0.33998 0.22904 0.0
H185 H 0.07905 0.37291 0.32316 0.0
H186 H 0.99908 0.353 0.31058 0.0
H187 H 1.0092 0.31931 0.21571 0.0
H188 H 0.10856 0.2778 0.31216 0.0
H189 H 0.11711 0.24277 0.40165 0.0
H190 H 0.1196 0.19017 0.20996 0.0
H191 H 0.11118 0.22506 0.12011 0.0
H192 H 0.01306 0.23579 0.13182 0.0
H193 H 1.00049 0.19728 0.06103 0.0
H194 H 0.04427 0.22305 0.86297 0.0
H195 H 0.05692 0.26134 0.93442 0.0
N196 N 0.04269 0.29052 0.12165 0.0
N197 N 0.08024 0.2919 0.19736 0.0
N198 N 0.07357 0.25788 0.11326 0.0
C199 C 0.0579 0.30292 0.17443 0.0
C200 C 0.08819 0.26937 0.16761 0.0
C201 C 0.05112 0.26815 0.08937 0.0
C202 C 0.04999 0.3267 0.21538 0.0
C203 C 0.06922 0.34284 0.24486 0.0
C204 C 0.06352 0.36174 0.29905 0.0
C205 C 0.03837 0.36528 0.32528 0.0
C206 C 0.01867 0.35068 0.29135 0.0
C207 C 0.02444 0.33147 0.23683 0.0
C208 C 0.10744 0.2538 0.20969 0.0
C209 C 0.11243 0.25908 0.28827 0.0
C210 C 0.11743 0.23899 0.33986 0.0
C211 C 0.11765 0.21369 0.31286 0.0
C212 C 0.11891 0.20945 0.23255 0.0
C213 C 0.11386 0.22952 0.18094 0.0
C214 C 0.03535 0.25198 0.03787 0.0
C215 C 0.01886 0.23384 0.07174 0.0
C216 C 0.29211 0.02349 1.00265 0.0
C217 C 0.30911 0.04182 0.97141 0.0
C218 C 0.3033 0.06779 0.98019 0.0
C219 C 0.28196 0.07541 0.02279 0.0
H220 H 0.16472 0.08228 0.23454 0.0
H221 H 0.13331 0.06478 0.32487 0.0
H222 H 0.17684 0.99475 0.34011 0.0
H223 H 0.20845 1.01254 0.24909 0.0
H224 H 0.22553 0.1092 0.36513 0.0
H225 H 0.25736 0.11806 0.46416 0.0
H226 H 0.3123 0.13695 0.2856 0.0
H227 H 0.28045 0.12896 0.18707 0.0
H228 H 0.25882 0.01675 0.0742 0.0
H229 H 0.29612 1.00329 0.99641 0.0
H230 H 0.31575 0.08233 0.95569 0.0
H231 H 0.27876 0.09573 0.03001 0.0
N232 N 0.22636 0.05301 0.14325 0.0
N233 N 0.21813 0.08471 0.23701 0.0
N234 N 0.25344 0.08866 0.15565 0.0
C235 C 0.21121 0.06267 0.20122 0.0
C236 C 0.23929 0.09777 0.21506 0.0
C237 C 0.24733 0.06663 0.11884 0.0
C238 C 0.18898 0.04873 0.23434 0.0
C239 C 0.16706 0.06275 0.25483 0.0
C240 C 0.14903 0.05271 0.30683 0.0
C241 C 0.15263 0.02845 0.34075 0.0
C242 C 0.17361 0.01363 0.31577 0.0
C243 C 0.19155 0.02363 0.26274 0.0
C244 C 0.25116 0.11653 0.26824 0.0
C245 C 0.24392 0.11669 0.3469 0.0
C246 C 0.26222 0.12178 0.40396 0.0
C247 C 0.28778 0.12643 0.38241 0.0
C248 C 0.29301 0.13253 0.30438 0.0
C249 C 0.27468 0.1277 0.24742 0.0
C250 C 0.26586 0.05733 0.05929 0.0
C251 C 0.27068 0.03118 0.04667 0.0
C252 C 0.5862 0.29621 0.26683 0.0
C253 C 0.58975 0.28736 0.3435 0.0
C254 C 0.57981 0.26321 0.364 0.0
C255 C 0.56366 0.25014 0.31298 0.0
H256 H 0.46231 0.22232 0.29875 0.0
H257 H 0.45309 0.18496 0.38081 0.0
H258 H 0.49938 0.13815 0.23044 0.0
H259 H 0.50868 0.17561 0.14947 0.0
H260 H 0.45761 0.28645 0.08984 0.0
H261 H 0.44909 0.32339 1.00424 0.0
H262 H 0.5219 0.31156 0.89148 0.0
H263 H 0.5301 0.27508 0.97609 0.0
H264 H 0.56652 0.2916 0.15947 0.0
H265 H 0.59342 0.31465 0.24807 0.0
H266 H 0.58279 0.2554 0.4217 0.0
H267 H 0.55456 0.2327 0.33309 0.0
N268 N 0.52145 0.23111 0.2206 0.0
N269 N 0.48934 0.23955 0.12748 0.0
N270 N 0.52573 0.26592 0.13626 0.0
C271 C 0.49891 0.22473 0.18665 0.0
C272 C 0.50315 0.2602 0.10168 0.0
C273 C 0.53498 0.25169 0.19589 0.0
C274 C 0.48574 0.20172 0.21686 0.0
C275 C 0.46941 0.20377 0.28129 0.0
C276 C 0.4643 0.18236 0.32859 0.0
C277 C 0.47577 0.15856 0.31294 0.0
C278 C 0.49048 0.15622 0.24483 0.0
C279 C 0.49551 0.17758 0.19765 0.0
C280 C 0.49434 0.27764 0.0388 0.0
C281 C 0.47126 0.29127 0.04473 0.0
C282 C 0.46661 0.31267 0.99652 0.0
C283 C 0.48485 0.32064 0.94092 0.0
C284 C 0.50722 0.30596 0.9326 0.0
C285 C 0.51194 0.28493 0.98109 0.0
C286 C 0.55742 0.26089 0.2403 0.0
C287 C 0.57033 0.28307 0.2158 0.0
C288 C 0.97576 0.05082 0.57531 0.0
Eu289 Eu 0.98944 0.02196 0.69041 0.0
C290 C 0.99099 0.07234 0.54564 0.0
C291 C 0.98075 0.09061 0.49466 0.0
C292 C 0.99587 0.11126 0.46983 0.0
C293 C 0.02137 0.11363 0.49548 0.0
C294 C 0.0314 0.09525 0.5465 0.0
C295 C 0.01631 0.07496 0.57165 0.0
C296 C 0.96392 1.00397 0.81704 0.0
C297 C 0.01578 0.05959 0.82063 0.0
C298 C 0.04187 0.97579 0.9455 0.0
Eu299 Eu 0.0245 0.99867 0.82258 0.0
C300 C 0.05949 0.95429 0.95641 0.0
C301 C 0.06599 0.94608 0.0313 0.0
C302 C 0.08103 0.92425 0.04171 0.0
C303 C 0.08973 0.91028 0.97721 0.0
C304 C 0.08411 0.91936 0.90208 0.0
C305 C 0.06909 0.94121 0.89178 0.0
C306 C 0.05274 1.00753 0.69 0.0
C307 C 0.99969 0.96113 0.69006 0.0
O308 O 0.98634 0.02836 0.56573 0.0
O309 O 0.96679 0.05386 0.64565 0.0
O310 O 0.95464 1.00373 0.74678 0.0
O311 O 0.9853 0.01532 0.81712 0.0
O312 O 1.00672 0.05719 0.74915 0.0
O313 O 0.02146 0.03939 0.86386 0.0
O314 O 0.01984 0.96998 0.91331 0.0
O315 O 0.05215 0.9967 0.91676 0.0
O316 O 0.06233 0.99834 0.7537 0.0
O317 O 0.02947 1.01165 0.7025 0.0
O318 O 1.00951 0.96343 0.76079 0.0
O319 O 0.99229 0.98114 0.64804 0.0
H320 H 0.96118 0.08899 0.47454 0.0
H321 H 0.98774 0.12524 0.43021 0.0
H322 H 0.0508 0.09682 0.56818 0.0
H323 H 0.02448 0.06132 0.61202 0.0
H324 H 0.05873 0.95604 0.08168 0.0
H325 H 0.08462 0.91753 0.10034 0.0
H326 H 0.09063 0.9091 0.85135 0.0
H327 H 0.06431 0.94745 0.83342 0.0
C328 C 0.46328 0.98932 0.54961 0.0
Eu329 Eu 0.48656 1.00379 0.67395 0.0
C330 C 0.43758 0.99823 0.52654 0.0
C331 C 0.41682 0.99527 0.57791 0.0
C332 C 0.39469 1.00981 0.5683 0.0
C333 C 0.39284 0.02762 0.50723 0.0
C334 C 0.41286 0.02938 0.45292 0.0
C335 C 0.43501 0.01474 0.46237 0.0
C336 C 0.49583 0.97633 0.80594 0.0
C337 C 0.45174 0.02719 0.80385 0.0
C338 C 0.53251 0.05772 0.90956 0.0
Eu339 Eu 0.51328 0.03344 0.79167 0.0
C340 C 0.55561 0.07322 0.9196 0.0
C341 C 0.56228 0.08215 0.99325 0.0
C342 C 0.58513 0.09557 1.00374 0.0
C343 C 0.60164 0.10026 0.94055 0.0
C344 C 0.59428 0.09208 0.86617 0.0
C345 C 0.57147 0.0786 0.85584 0.0
C346 C 0.50565 0.05918 0.65639 0.0
C347 C 0.54934 1.00703 0.6669 0.0
O348 O 0.4808 1.00721 0.54901 0.0
O349 O 0.46456 0.97489 0.6119 0.0
O350 O 0.47517 0.97433 0.76486 0.0
O351 O 0.51128 0.99161 0.77366 0.0
O352 O 0.45212 0.02199 0.72927 0.0
O353 O 0.47337 0.02854 0.8433 0.0
O354 O 0.53634 0.03335 0.89718 0.0
O355 O 0.51523 0.06749 0.86332 0.0
O356 O 0.52679 0.0594 0.69533 0.0
O357 O 0.48904 0.04559 0.69061 0.0
O358 O 0.54891 0.01753 0.73639 0.0
O359 O 0.52781 1.00129 0.63014 0.0
H360 H 0.41821 0.98297 0.62861 0.0
H361 H 0.37959 1.00807 0.61112 0.0
H362 H 0.41169 0.04259 0.40433 0.0
H363 H 0.45078 0.01755 0.42237 0.0
H364 H 0.55019 0.07813 0.04296 0.0
H365 H 0.59043 0.10116 0.06203 0.0
H366 H 0.60647 0.09552 0.81633 0.0
H367 H 0.56649 0.07188 0.79841 0.0
C368 C 0.53662 0.48455 0.53381 0.0
Eu369 Eu 0.51016 0.50097 0.65093 0.0
C370 C 0.55548 0.46417 0.52347 0.0
C371 C 0.56378 0.44956 0.58728 0.0
C372 C 0.58025 0.42887 0.57631 0.0
C373 C 0.58853 0.4224 0.50124 0.0
C374 C 0.58109 0.43797 0.43807 0.0
C375 C 0.56468 0.45868 0.4492 0.0
C376 C 0.53229 0.50983 0.79089 0.0
C377 C 0.48134 0.46458 0.77381 0.0
C378 C 0.46721 0.55072 0.90374 0.0
Eu379 Eu 0.47576 0.52727 0.77539 0.0
C380 C 0.48367 0.57087 0.93753 0.0
C381 C 0.48292 0.59591 0.90731 0.0
C382 C 0.50244 0.61323 0.92391 0.0
C383 C 0.52311 0.606 0.97142 0.0
C384 C 0.52285 0.58167 1.00658 0.0
C385 C 0.50333 0.56427 0.98977 0.0
C386 C 0.44623 0.51385 0.65056 0.0
C387 C 0.49945 0.56252 0.64047 0.0
O388 O 0.51316 0.47699 0.54842 0.0
O389 O 0.54397 0.50347 0.57793 0.0
O390 O 0.53604 0.48936 0.75054 0.0
O391 O 0.51764 0.52494 0.75471 0.0
O392 O 0.49186 0.46574 0.70381 0.0
O393 O 0.47566 0.48547 0.81375 0.0
O394 O 0.47739 0.52777 0.90167 0.0
O395 O 0.45536 0.55678 0.83888 0.0
O396 O 0.43709 0.52485 0.71221 0.0
O397 O 0.46978 0.5103 0.66078 0.0
O398 O 0.49092 0.56203 0.71256 0.0
O399 O 0.50494 0.54126 0.60244 0.0
H400 H 0.55692 0.45371 0.64522 0.0
H401 H 0.58576 0.41738 0.62613 0.0
H402 H 0.58671 0.4333 0.37931 0.0
H403 H 0.55849 0.46988 0.39946 0.0
H404 H 0.46795 0.60182 0.86752 0.0
H405 H 0.50157 0.63217 0.89818 0.0
H406 H 0.53836 0.57559 0.04409 0.0
H407 H 0.50448 0.54515 0.01418 0.0
C408 C 0.02891 0.54122 0.54217 0.0
Eu409 Eu 1.00346 0.52563 0.6626 0.0
C410 C 0.05023 0.52685 0.50818 0.0
C411 C 0.07 0.53897 0.46724 0.0
C412 C 0.09126 0.52477 0.44288 0.0
C413 C 0.09292 0.49836 0.4595 0.0
C414 C 0.07287 0.48641 0.49974 0.0
C415 C 0.05188 0.50054 0.52391 0.0
C416 C 0.98825 0.55281 0.7888 0.0
C417 C 0.04582 0.50582 0.78574 0.0
C418 C 0.96765 0.4672 0.90387 0.0
Eu419 Eu 0.98809 0.49222 0.78844 0.0
C420 C 0.94721 0.44815 0.90961 0.0
C421 C 0.94079 0.43773 0.98197 0.0
C422 C 0.91999 0.42111 0.98879 0.0
C423 C 0.90528 0.41468 0.92318 0.0
C424 C 0.91267 0.42423 0.84998 0.0
C425 C 0.93349 0.44086 0.84326 0.0
C426 C 1.00293 0.46631 0.65843 0.0
C427 C 0.9436 0.51527 0.67275 0.0
O428 O 1.00666 0.52993 0.537 0.0
O429 O 0.03322 0.54995 0.61187 0.0
O430 O 0.98411 0.55979 0.71733 0.0
O431 O 1.00147 0.53258 0.79049 0.0
O432 O 0.04105 0.50871 0.71079 0.0
O433 O 0.02644 0.50393 0.83396 0.0
O434 O 0.96045 0.4902 0.8829 0.0
O435 O 0.98828 0.4597 0.86793 0.0
O436 O 1.00926 0.45974 0.7283 0.0
O437 O 0.989 0.48587 0.66053 0.0
O438 O 0.94924 0.5035 0.73882 0.0
O439 O 0.9618 0.52479 0.62801 0.0
H440 H 0.06923 0.55933 0.45548 0.0
H441 H 0.10642 0.53444 0.41143 0.0
H442 H 0.07372 0.46628 0.51481 0.0
H443 H 0.03715 0.49102 0.55706 0.0
H444 H 0.9513 0.44314 0.03359 0.0
H445 H 0.91457 0.41451 0.04623 0.0
H446 H 0.9018 0.41955 0.79841 0.0
H447 H 0.93844 0.44864 0.78673 0.0
H448 H 0.10044 0.0326 0.3589 0.0
H449 H 0.16867 1.00665 0.47657 0.0
H450 H 0.14385 0.99769 0.59351 0.0
H451 H 0.10325 0.99933 0.66544 0.0
H452 H 0.03451 0.02286 0.54745 0.0
H453 H 0.05894 0.03121 0.42869 0.0
C454 C 0.10985 0.02484 0.40999 0.0
C455 C 0.13649 0.0203 0.40843 0.0
C456 C 0.0954 0.01974 0.47767 0.0
C457 C 0.14822 1.01 0.47524 0.0
C458 C 0.13406 1.00509 0.54264 0.0
C459 C 0.09359 1.00625 0.61368 0.0
C460 C 0.06714 1.01135 0.61621 0.0
C461 C 0.10772 1.01021 0.54494 0.0
C462 C 0.05491 0.01976 0.54809 0.0
C463 C 0.06889 0.02424 0.47981 0.0
H464 H 0.5159 0.12986 0.36139 0.0
H465 H 0.43514 0.14043 0.4002 0.0
H466 H 0.4363 0.10861 0.50568 0.0
H467 H 0.4614 0.07977 0.59368 0.0
H468 H 0.54263 0.07217 0.55571 0.0
H469 H 0.54004 0.10026 0.44271 0.0
C470 C 0.49838 0.12488 0.39168 0.0
C471 C 0.47544 0.13748 0.37228 0.0
C472 C 0.49934 0.10706 0.4531 0.0
C473 C 0.4531 0.13113 0.41393 0.0
C474 C 0.45377 0.1129 0.4743 0.0
C475 C 0.47839 0.08406 0.55986 0.0
C476 C 0.50223 0.07399 0.58332 0.0
C477 C 0.47691 0.10102 0.49548 0.0
C478 C 0.52412 0.07983 0.5393 0.0
C479 C 0.52267 0.09592 0.47459 0.0
H480 H 0.39698 0.48204 0.3285 0.0
H481 H 0.33569 0.52907 0.41585 0.0
H482 H 0.36061 0.53824 0.5322 0.0
H483 H 0.39904 0.53151 0.61255 0.0
H484 H 0.46075 0.48519 0.52568 0.0
H485 H 0.43639 0.47683 0.40675 0.0
C486 C 0.38908 0.49435 0.37288 0.0
C487 C 0.36437 0.50483 0.36288 0.0
C488 C 0.40352 0.49945 0.44038 0.0
C489 C 0.3547 0.52101 0.42092 0.0
C490 C 0.36887 0.52607 0.48809 0.0
C491 C 0.40714 0.51955 0.56759 0.0
C492 C 0.4316 0.50878 0.57825 0.0
C493 C 0.39315 0.51516 0.49894 0.0
C494 C 0.44195 0.49361 0.51904 0.0
C495 C 0.42802 0.48886 0.45098 0.0
H496 H 1.00443 0.40531 0.34005 0.0
H497 H 0.06225 0.36288 0.46446 0.0
H498 H 0.05649 0.39004 0.5778 0.0
H499 H 0.03514 0.42593 0.64256 0.0
H500 H 0.97878 0.47011 0.51784 0.0
H501 H 0.98384 0.44252 0.40436 0.0
C502 C 0.01562 0.402 0.3922 0.0
C503 C 0.03371 0.38203 0.39376 0.0
C504 C 1.01252 0.4181 0.45729 0.0
C505 C 0.04829 0.37817 0.46154 0.0
C506 C 0.04499 0.39369 0.52652 0.0
C507 C 0.02392 0.42946 0.59058 0.0
C508 C 1.00642 0.44987 0.58903 0.0
C509 C 0.0272 0.41373 0.52517 0.0
C510 C 0.99229 0.45443 0.52078 0.0
C511 C 0.99517 0.43863 0.45581 0.0
H512 H 0.90487 1.01186 0.13617 0.0
H513 H 0.84323 0.98327 0.99433 0.0
H514 H 0.87258 0.97841 0.8851 0.0
H515 H 0.91488 0.98624 0.82561 0.0
H516 H 0.97637 0.01538 0.96685 0.0
H517 H 0.94807 0.01608 0.07992 0.0
C518 C 0.89787 1.00438 0.08154 0.0
C519 C 0.87172 0.99811 0.07373 0.0
C520 C 0.91484 1.00196 0.01834 0.0
C521 C 0.8632 0.98804 1.00265 0.0
C522 C 0.87997 0.98548 0.93972 0.0
C523 C 0.92217 0.99244 0.88139 0.0
C524 C 0.94766 1.00102 0.88745 0.0
C525 C 0.9057 0.99294 0.94627 0.0
C526 C 0.95683 1.00881 0.96033 0.0
C527 C 0.94061 1.00928 0.02507 0.0
H528 H 0.54212 0.90208 0.06022 0.0
H529 H 0.46221 0.88296 0.08889 0.0
H530 H 0.45085 0.91403 0.98849 0.0
H531 H 0.46357 0.94614 0.88991 0.0
H532 H 0.54304 0.96719 0.86794 0.0
H533 H 0.55444 0.93638 0.96976 0.0
C534 C 0.52212 0.90496 0.04614 0.0
C535 C 0.50315 0.8898 0.0826 0.0
C536 C 0.51559 0.92331 0.98922 0.0
C537 C 0.47741 0.89376 0.06131 0.0
C538 C 0.47082 0.91174 1.00404 0.0
C539 C 0.48337 0.94402 0.9077 0.0
C540 C 0.50247 0.95876 0.87088 0.0
C541 C 0.48976 0.92644 0.96703 0.0
C542 C 0.52799 0.95603 0.89513 0.0
C543 C 0.53452 0.93837 0.95329 0.0
H544 H 0.60972 0.55159 0.04322 0.0
H545 H 0.61051 0.47142 0.10429 0.0
H546 H 0.57794 0.46279 1.0068 0.0
H547 H 0.55159 0.47715 0.89708 0.0
H548 H 0.54834 0.55726 0.83809 0.0
H549 H 0.57929 0.56683 0.94132 0.0
C550 C 0.6025 0.53232 0.03565 0.0
C551 C 0.6126 0.51219 0.08127 0.0
C552 C 0.58344 0.52743 0.97931 0.0
C553 C 0.60292 0.48733 0.07091 0.0
C554 C 0.58439 0.48231 0.01464 0.0
C555 C 0.55744 0.49675 0.90756 0.0
C556 C 0.54798 0.51642 0.85964 0.0
C557 C 0.57486 0.50208 0.96761 0.0
C558 C 0.55545 0.54176 0.87418 0.0
C559 C 0.57324 0.54721 0.93297 0.0
H560 H 0.99932 0.62122 0.08902 0.0
H561 H 0.95646 0.67384 0.9453 0.0
H562 H 0.95347 0.64173 0.8435 0.0
H563 H 0.96513 0.5995 0.79156 0.0
H564 H 1.00755 0.54663 0.93527 0.0
H565 H 1.00821 0.57776 0.04073 0.0
C566 C 0.9889 0.62554 0.03609 0.0
C567 C 0.97835 0.65015 0.02497 0.0
C568 C 0.98727 0.60691 0.97731 0.0
C569 C 0.96518 0.65532 0.95526 0.0
C570 C 0.96337 0.6369 0.89692 0.0
C571 C 0.97433 0.59471 0.84621 0.0
C572 C 0.98645 0.57082 0.85515 0.0
C573 C 0.97473 0.61278 0.90665 0.0
C574 C 0.99814 0.56488 0.92659 0.0
C575 C 0.99858 0.58273 0.98697 0.0
H576 H 0.07453 0.21636 0.39545 0.0
H577 H 0.13534 0.16457 0.3343 0.0
H578 H 0.11091 0.12867 0.38962 0.0
H579 H 0.07032 0.11188 0.44281 0.0
H580 H 1.00871 0.16404 0.49394 0.0
H581 H 0.03536 0.20018 0.45373 0.0
C582 C 0.08288 0.19737 0.39665 0.0
C583 C 0.10692 0.19313 0.36238 0.0
C584 C 0.06826 0.17691 0.42465 0.0
C585 C 0.11706 0.16827 0.36162 0.0
C586 C 0.10297 0.14779 0.39234 0.0
C587 C 0.06287 0.13122 0.44572 0.0
C588 C 0.03756 0.13538 0.47065 0.0
C589 C 0.07823 0.15183 0.42184 0.0
C590 C 0.02798 0.16041 0.47366 0.0
C591 C 0.04327 0.18104 0.4514 0.0
H592 H 0.28721 0.08206 0.46257 0.0
H593 H 0.33629 0.14588 0.40526 0.0
H594 H 0.37376 0.12088 0.44509 0.0
H595 H 0.39257 0.07881 0.47733 0.0
H596 H 0.3427 0.0148 0.52566 0.0
H597 H 0.30536 0.04219 0.50883 0.0
C598 C 0.30593 0.09103 0.4616 0.0
C599 C 0.3089 0.11585 0.43056 0.0
C600 C 0.32729 0.07624 0.48112 0.0
C601 C 0.33348 0.1268 0.42863 0.0
C602 C 0.3549 0.11241 0.45058 0.0
C603 C 0.3735 0.07091 0.48416 0.0
C604 C 0.37035 0.04473 0.50136 0.0
C605 C 0.35207 0.08671 0.47329 0.0
C606 C 0.34561 0.03486 0.51221 0.0
C607 C 0.32426 0.0505 0.50253 0.0
H608 H 0.62617 0.32513 0.33266 0.0
H609 H 0.57139 0.29179 0.49177 0.0
H610 H 0.57159 0.33046 0.56818 0.0
H611 H 0.5772 0.37669 0.56732 0.0
H612 H 0.6279 0.41205 0.40053 0.0
H613 H 0.63889 0.37001 0.34897 0.0
C614 C 0.61466 0.32613 0.38495 0.0
C615 C 0.59803 0.30582 0.40416 0.0
C616 C 0.6134 0.34921 0.42596 0.0
C617 C 0.58423 0.30703 0.47432 0.0
C618 C 0.58397 0.32942 0.51779 0.0
C619 C 0.59145 0.37523 0.52179 0.0
C620 C 0.60121 0.3975 0.48645 0.0
C621 C 0.59695 0.35115 0.49075 0.0
C622 C 0.61961 0.39517 0.42734 0.0
C623 C 0.6259 0.37115 0.39787 0.0
H624 H 0.19944 0.4506 0.37436 0.0
H625 H 0.15124 0.38915 0.29437 0.0
H626 H 0.11347 0.4113 0.34514 0.0
H627 H 0.09415 0.4504 0.39862 0.0
H628 H 0.14295 0.51227 0.47302 0.0
H629 H 0.18071 0.48773 0.43649 0.0
C630 C 0.18081 0.44154 0.37039 0.0
C631 C 0.17816 0.4181 0.33147 0.0
C632 C 0.1593 0.45483 0.39649 0.0
C633 C 0.15375 0.40707 0.32469 0.0
C634 C 0.13218 0.41985 0.35294 0.0
C635 C 0.11307 0.45838 0.40765 0.0
C636 C 0.11576 0.48327 0.43756 0.0
C637 C 0.1347 0.44414 0.38658 0.0
C638 C 0.14036 0.49343 0.44842 0.0
C639 C 0.16195 0.4793 0.42837 0.0
H640 H 0.10052 0.7947 0.04322 0.0
H641 H 0.14655 0.82287 0.23264 0.0
H642 H 0.14727 0.8653 0.17243 0.0
H643 H 0.12609 0.89581 0.083 0.0
H644 H 0.0785 0.86677 0.89847 0.0
H645 H 0.08797 0.82315 0.93847 0.0
C646 C 0.11177 0.80964 0.07014 0.0
C647 C 0.12262 0.80571 0.14418 0.0
C648 C 0.11139 0.8341 0.03658 0.0
C649 C 0.13724 0.82553 0.17697 0.0
C650 C 0.13755 0.84987 0.14275 0.0
C651 C 0.11828 0.87988 0.05061 0.0
C652 C 0.10115 0.88456 0.98901 0.0
C653 C 0.12317 0.8547 0.07543 0.0
C654 C 0.09168 0.86379 0.94622 0.0
C655 C 0.09691 0.83876 0.96948 0.0
H656 H 0.71652 0.1095 0.02424 0.0
H657 H 0.68635 0.16348 0.18923 0.0
H658 H 0.64504 0.16273 0.12265 0.0
H659 H 0.61565 0.13954 0.03564 0.0
H660 H 0.64635 0.08367 0.87736 0.0
H661 H 0.68946 0.09312 0.92155 0.0
C662 C 0.70138 0.12204 0.04402 0.0
C663 C 0.7044 0.136 0.11307 0.0
C664 C 0.67753 0.12081 1.00726 0.0
C665 C 0.68436 0.15205 0.13732 0.0
C666 C 0.66068 0.15151 0.09953 0.0
C667 C 0.63185 0.12979 1.00994 0.0
C668 C 0.6277 0.11056 0.95447 0.0
C669 C 0.65665 0.13471 0.03751 0.0
C670 C 0.6489 0.09855 0.92015 0.0
C671 C 0.67362 0.10378 0.94588 0.0
H672 H 0.60027 0.698 0.98037 0.0
H673 H 0.59959 0.67732 0.22396 0.0
H674 H 0.57676 0.63839 0.1948 0.0
H675 H 0.54882 0.61515 0.10591 0.0
H676 H 0.54636 0.63694 0.86389 0.0
H677 H 0.57747 0.67085 0.8875 0.0
C678 C 0.59546 0.68485 0.02707 0.0
C679 C 0.60119 0.6913 0.10446 0.0
C680 C 0.58078 0.66302 0.01077 0.0
C681 C 0.59565 0.6733 0.16357 0.0
C682 C 0.58205 0.65103 0.14728 0.0
C683 C 0.55553 0.62689 0.05791 0.0
C684 C 0.54473 0.62397 0.98378 0.0
C685 C 0.57324 0.6465 0.07192 0.0
C686 C 0.55373 0.63935 0.92219 0.0
C687 C 0.57169 0.65862 0.93545 0.0
H688 H 0.80665 0.3746 0.08059 0.0
H689 H 0.77484 0.43239 0.92835 0.0
H690 H 0.81401 0.43319 0.85338 0.0
H691 H 0.86025 0.42728 0.85563 0.0
H692 H 0.89398 0.37341 0.01644 0.0
H693 H 0.85148 0.3617 0.06406 0.0
C694 C 0.80808 0.38695 0.02994 0.0
C695 C 0.78809 0.40411 0.01246 0.0
C696 C 0.83143 0.38871 0.99003 0.0
C697 C 0.78985 0.41911 0.94439 0.0
C698 C 0.81253 0.41993 0.90184 0.0
C699 C 0.85832 0.41221 0.89883 0.0
C700 C 0.88025 0.40172 0.93394 0.0
C701 C 0.83397 0.4063 0.92783 0.0
C702 C 0.87736 0.38224 0.98995 0.0
C703 C 0.85307 0.37555 0.0172 0.0
H704 H 0.02757 0.15983 0.02339 0.0
H705 H 1.0092 0.19609 0.80488 0.0
H706 H 1.00608 0.15412 0.74295 0.0
H707 H 1.00873 0.10677 0.75091 0.0
H708 H 0.02822 0.07125 0.97027 0.0
H709 H 0.03068 0.11305 0.03111 0.0
C710 C 0.02253 0.15858 0.96243 0.0
C711 C 0.01836 0.1812 0.91923 0.0
C712 C 0.02112 0.13438 0.92696 0.0
C713 C 1.0125 0.17909 0.83971 0.0
C714 C 1.0107 0.15504 0.80423 0.0
C715 C 0.01357 0.10814 0.81199 0.0
C716 C 0.01826 0.08562 0.85559 0.0
C717 C 0.01507 0.13249 0.84718 0.0
C718 C 0.02457 0.08802 0.93474 0.0
C719 C 0.02591 0.11202 0.96994 0.0
H720 H 0.35671 0.05662 0.01309 0.0
H721 H 0.31666 1.01113 0.84453 0.0
H722 H 0.35711 1.00296 0.77609 0.0
H723 H 0.404 1.00992 0.7627 0.0
H724 H 0.44371 0.05365 0.93703 0.0
H725 H 0.40341 0.06138 1.00444 0.0
C726 C 0.3569 0.04477 0.9616 0.0
C727 C 0.33373 0.03458 0.93365 0.0
C728 C 0.3802 0.03998 0.92336 0.0
C729 C 0.33425 0.01907 0.86733 0.0
C730 C 0.35736 0.01454 0.82804 0.0
C731 C 0.4038 0.02116 0.81539 0.0
C732 C 0.42692 0.03137 0.84436 0.0
C733 C 0.38047 0.02511 0.85511 0.0
C734 C 0.42631 0.04557 0.91335 0.0
C735 C 0.40322 0.05003 0.95199 0.0
H736 H 0.46709 0.36708 0.99107 0.0
H737 H 0.49637 0.32934 0.78757 0.0
H738 H 0.49695 0.37001 0.71713 0.0
H739 H 0.49164 0.41687 0.71528 0.0
H740 H 0.46218 0.45455 0.91893 0.0
H741 H 0.45889 0.41351 0.98613 0.0
C742 C 0.47311 0.36761 0.93083 0.0
C743 C 0.48185 0.34501 0.8952 0.0
C744 C 0.47354 0.39122 0.89044 0.0
C745 C 0.48989 0.34635 0.81718 0.0
C746 C 0.49018 0.36967 0.77662 0.0
C747 C 0.48426 0.41615 0.77409 0.0
C748 C 0.4773 0.43904 0.81167 0.0
C749 C 0.4825 0.39234 0.81303 0.0
C750 C 0.46777 0.43745 0.88808 0.0
C751 C 0.46589 0.41389 0.92689 0.0
H752 H 0.1489 0.50544 0.97899 0.0
H753 H 0.18212 0.50193 0.75024 0.0
H754 H 0.13932 0.50361 0.69195 0.0
H755 H 0.0919 0.50485 0.70655 0.0
H756 H 0.05978 0.50711 0.93751 0.0
H757 H 0.10242 0.50728 0.99355 0.0
C758 C 0.14687 0.50551 0.9163 0.0
C759 C 0.16884 0.5038 0.86925 0.0
C760 C 0.12221 0.50604 0.88329 0.0
C761 C 0.16562 0.50324 0.78805 0.0
C762 C 0.1411 0.50418 0.75463 0.0
C763 C 0.09426 0.50542 0.76909 0.0
C764 C 0.07244 0.50587 0.81744 0.0
C765 C 0.11915 0.50532 0.8017 0.0
C766 C 0.07601 0.50658 0.89847 0.0
C767 C 0.1005 0.50676 0.9309 0.0
H768 H 1.0116 0.84689 0.5773 0.0
H769 H 0.95066 0.86987 0.42236 0.0
H770 H 0.95087 0.91251 0.47892 0.0
H771 H 0.96885 0.94391 0.57168 0.0
H772 H 0.02743 0.91926 0.73224 0.0
H773 H 0.02705 0.87672 0.67545 0.0
C774 C 0.99787 0.86087 0.55663 0.0
C775 C 0.98123 0.85475 0.49473 0.0
C776 C 0.99764 0.88532 0.59065 0.0
C777 C 0.96412 0.8738 0.46852 0.0
C778 C 0.96408 0.8983 0.50132 0.0
C779 C 0.98147 0.9292 0.59434 0.0
C780 C 0.9982 0.93497 0.65617 0.0
C781 C 0.98092 0.9044 0.56203 0.0
C782 C 0.01425 0.9155 0.68509 0.0
C783 C 0.01413 0.89109 0.65242 0.0
H784 H 0.64598 0.99778 0.44636 0.0
H785 H 0.68528 1.00836 0.66434 0.0
H786 H 0.64446 1.00863 0.73284 0.0
H787 H 0.59734 1.00855 0.73057 0.0
H788 H 0.55796 0.99661 0.5135 0.0
H789 H 0.59891 0.99377 0.44581 0.0
C790 C 0.64574 0.99959 0.50903 0.0
C791 C 0.66891 1.00338 0.54959 0.0
C792 C 0.62204 0.99964 0.54854 0.0
C793 C 0.66789 1.00594 0.63096 0.0
C794 C 0.64448 1.00602 0.67044 0.0
C795 C 0.59767 1.00511 0.66854 0.0
C796 C 0.57443 1.00296 0.62739 0.0
C797 C 0.62139 1.00341 0.62973 0.0
C798 C 0.57541 0.99833 0.547 0.0
C799 C 0.5989 0.99677 0.50802 0.0
H800 H 0.53338 0.66062 0.44926 0.0
H801 H 0.48126 0.69734 0.60686 0.0
H802 H 0.47138 0.6558 0.66748 0.0
H803 H 0.47895 0.60907 0.67824 0.0
H804 H 0.52977 0.57266 0.5152 0.0
H805 H 0.53876 0.61395 0.45422 0.0
C806 C 0.51976 0.65947 0.49671 0.0
C807 C 0.5082 0.68199 0.52406 0.0
C808 C 0.51404 0.63556 0.53043 0.0
C809 C 0.49034 0.68025 0.5848 0.0
C810 C 0.48482 0.65652 0.6196 0.0
C811 C 0.49194 0.61017 0.62922 0.0
C812 C 0.50378 0.5877 0.60174 0.0
C813 C 0.49676 0.63405 0.59341 0.0
C814 C 0.52034 0.58952 0.5376 0.0
C815 C 0.52556 0.61317 0.50272 0.0
H816 H 0.82514 0.50288 0.60381 0.0
H817 H 0.84611 0.54532 0.3977 0.0
H818 H 0.88992 0.54931 0.44564 0.0
H819 H 0.9233 0.53804 0.54193 0.0
H820 H 0.90205 0.49465 0.74628 0.0
H821 H 0.85776 0.49354 0.70266 0.0
C822 C 0.83924 0.51307 0.56928 0.0
C823 C 0.83212 0.52366 0.49684 0.0
C824 C 0.86461 0.51491 0.59658 0.0
C825 C 0.85074 0.53719 0.45397 0.0
C826 C 0.87597 0.53927 0.48104 0.0
C827 C 0.90897 0.52848 0.57725 0.0
C828 C 0.91627 0.51634 0.6473 0.0
C829 C 0.88328 0.5278 0.55165 0.0
C830 C 0.89724 0.50415 0.69214 0.0
C831 C 0.87178 0.50346 0.66718 0.0
loop_
_geom_bond_atom_site_label_1
_geom_bond_atom_site_label_2
_geom_bond_distance
_geom_bond_site_symmetry_2
_ccdc_geom_bond_type
C0 C1 1.384 . S
C0 H13 0.947 . S
C0 C35 1.382 . S
C1 C0 1.384 . S
C1 C2 1.378 . S
C2 C1 1.378 . S
C2 C3 1.378 . S
C2 H14 0.952 . S
C3 C2 1.378 . S
C3 H15 0.950 . S
C3 C34 1.383 . S
H4 C23 0.947 . S
H5 C24 0.946 . S
H6 C26 0.953 . S
H7 C27 0.945 . S
H8 C29 0.952 . S
H9 C30 0.949 . S
H10 C32 0.950 . S
H11 C33 0.948 . S
H12 C35 0.951 . S
H13 C0 0.947 . S
H14 C2 0.952 . S
H15 C3 0.950 . S
N16 C19 1.382 . S
N16 C21 1.363 . S
N17 C19 1.371 . S
N17 C20 1.372 . S
N18 C20 1.361 . S
N18 C21 1.377 . S
C19 N16 1.382 . S
C19 N17 1.371 . S
C19 C22 1.480 . S
C20 N17 1.372 . S
C20 N18 1.361 . S
C20 C28 1.457 . S
C21 N16 1.363 . S
C21 N18 1.377 . S
C21 C34 1.479 . S
C22 C19 1.480 . S
C22 C23 1.383 . S
C22 C27 1.385 . S
C23 H4 0.947 . S
C23 C22 1.383 . S
C23 C24 1.388 . S
C24 H5 0.946 . S
C24 C23 1.388 . S
C24 C25 1.384 . S
C25 C24 1.384 . S
C25 C26 1.377 . S
C26 H6 0.953 . S
C26 C25 1.377 . S
C26 C27 1.369 . S
C27 H7 0.945 . S
C27 C22 1.385 . S
C27 C26 1.369 . S
C28 C20 1.457 . S
C28 C29 1.372 . S
C28 C33 1.364 . S
C29 H8 0.952 . S
C29 C28 1.372 . S
C29 C30 1.389 . S
C30 H9 0.949 . S
C30 C29 1.389 . S
C30 C31 1.387 . S
C31 C30 1.387 . S
C31 C32 1.372 . S
C32 H10 0.950 . S
C32 C31 1.372 . S
C32 C33 1.379 . S
C33 H11 0.948 . S
C33 C28 1.364 . S
C33 C32 1.379 . S
C34 C3 1.383 . S
C34 C21 1.479 . S
C34 C35 1.398 . S
C35 C0 1.382 . S
C35 H12 0.951 . S
C35 C34 1.398 . S
C36 C37 1.384 1_655 S
C36 H49 0.948 . S
C36 C71 1.382 1_655 S
C37 C36 1.384 1_455 S
C37 C38 1.378 . S
C38 C37 1.378 . S
C38 C39 1.378 . S
C38 H50 0.952 . S
C39 C38 1.378 . S
C39 H51 0.950 . S
C39 C70 1.383 . S
H40 C59 0.947 . S
H41 C60 0.952 . S
H42 C62 0.953 . S
H43 C63 0.945 . S
H44 C65 0.949 1_655 S
H45 C66 0.956 . S
H46 C68 0.950 . S
H47 C69 0.948 . S
H48 C71 0.951 1_655 S
H49 C36 0.948 . S
H50 C38 0.952 . S
H51 C39 0.950 . S
N52 C55 1.382 . S
N52 C57 1.363 . S
N53 C55 1.371 . S
N53 C56 1.372 . S
N54 C56 1.361 . S
N54 C57 1.377 . S
C55 N52 1.382 . S
C55 N53 1.371 . S
C55 C58 1.480 . S
C56 N53 1.372 . S
C56 N54 1.361 . S
C56 C64 1.457 . S
C57 N52 1.363 . S
C57 N54 1.377 . S
C57 C70 1.479 . S
C58 C55 1.480 . S
C58 C59 1.383 . S
C58 C63 1.385 . S
C59 H40 0.947 . S
C59 C58 1.383 . S
C59 C60 1.386 1_455 S
C60 H41 0.952 . S
C60 C59 1.386 1_655 S
C60 C61 1.381 1_655 S
C61 C60 1.381 1_455 S
C61 C62 1.377 . S
C62 H42 0.953 . S
C62 C61 1.377 . S
C62 C63 1.369 . S
C63 H43 0.945 . S
C63 C58 1.385 . S
C63 C62 1.369 . S
C64 C56 1.457 . S
C64 C65 1.376 . S
C64 C69 1.364 . S
C65 H44 0.949 1_455 S
C65 C64 1.376 . S
C65 C66 1.386 1_455 S
C66 H45 0.956 . S
C66 C65 1.386 1_655 S
C66 C67 1.383 1_655 S
C67 C66 1.383 1_455 S
C67 C68 1.372 . S
C68 H46 0.950 . S
C68 C67 1.372 . S
C68 C69 1.379 . S
C69 H47 0.948 . S
C69 C64 1.364 . S
C69 C68 1.379 . S
C70 C39 1.383 . S
C70 C57 1.479 . S
C70 C71 1.398 . S
C71 C36 1.382 1_455 S
C71 H48 0.951 1_455 S
C71 C70 1.398 . S
C72 C73 1.384 1_565 S
C72 H85 0.948 . S
C72 C107 1.382 1_565 S
C73 C72 1.384 1_545 S
C73 C74 1.378 . S
C74 C73 1.378 . S
C74 C75 1.378 . S
C74 H86 0.952 . S
C75 C74 1.378 . S
C75 H87 0.950 . S
C75 C106 1.383 . S
H76 C95 0.947 . S
H77 C96 0.952 . S
H78 C98 0.953 . S
H79 C99 0.945 . S
H80 C101 0.949 1_565 S
H81 C102 0.957 . S
H82 C104 0.950 . S
H83 C105 0.948 . S
H84 C107 0.951 1_565 S
H85 C72 0.948 . S
H86 C74 0.952 . S
H87 C75 0.950 . S
N88 C91 1.382 . S
N88 C93 1.363 . S
N89 C91 1.371 . S
N89 C92 1.372 . S
N90 C92 1.361 . S
N90 C93 1.377 . S
C91 N88 1.382 . S
C91 N89 1.371 . S
C91 C94 1.480 . S
C92 N89 1.372 . S
C92 N90 1.361 . S
C92 C100 1.457 . S
C93 N88 1.363 . S
C93 N90 1.377 . S
C93 C106 1.479 . S
C94 C91 1.480 . S
C94 C95 1.383 . S
C94 C99 1.385 . S
C95 H76 0.947 . S
C95 C94 1.383 . S
C95 C96 1.386 1_545 S
C96 H77 0.952 . S
C96 C95 1.386 1_565 S
C96 C97 1.382 1_565 S
C97 C96 1.382 1_545 S
C97 C98 1.377 . S
C98 H78 0.953 . S
C98 C97 1.377 . S
C98 C99 1.369 . S
C99 H79 0.945 . S
C99 C94 1.385 . S
C99 C98 1.369 . S
C100 C92 1.457 . S
C100 C101 1.377 . S
C100 C105 1.364 . S
C101 H80 0.949 1_545 S
C101 C100 1.377 . S
C101 C102 1.386 1_545 S
C102 H81 0.957 . S
C102 C101 1.386 1_565 S
C102 C103 1.383 1_565 S
C103 C102 1.383 1_545 S
C103 C104 1.372 . S
C104 H82 0.950 . S
C104 C103 1.372 . S
C104 C105 1.379 . S
C105 H83 0.948 . S
C105 C100 1.364 . S
C105 C104 1.379 . S
C106 C75 1.383 . S
C106 C93 1.479 . S
C106 C107 1.398 . S
C107 C72 1.382 1_545 S
C107 H84 0.951 1_545 S
C107 C106 1.398 . S
C108 C109 1.384 . S
C108 H121 0.947 . S
C108 C143 1.382 . S
C109 C108 1.384 . S
C109 C110 1.378 . S
C110 C109 1.378 . S
C110 C111 1.378 . S
C110 H122 0.952 . S
C111 C110 1.378 . S
C111 H123 0.950 . S
C111 C142 1.383 . S
H112 C131 0.947 . S
H113 C132 0.946 . S
H114 C134 0.953 . S
H115 C135 0.945 . S
H116 C137 0.952 . S
H117 C138 0.949 . S
H118 C140 0.950 . S
H119 C141 0.948 . S
H120 C143 0.951 . S
H121 C108 0.947 . S
H122 C110 0.952 . S
H123 C111 0.950 . S
N124 C127 1.382 . S
N124 C129 1.363 . S
N125 C127 1.371 . S
N125 C128 1.372 . S
N126 C128 1.361 . S
N126 C129 1.377 . S
C127 N124 1.382 . S
C127 N125 1.371 . S
C127 C130 1.480 . S
C128 N125 1.372 . S
C128 N126 1.361 . S
C128 C136 1.457 . S
C129 N124 1.363 . S
C129 N126 1.377 . S
C129 C142 1.479 . S
C130 C127 1.480 . S
C130 C131 1.383 . S
C130 C135 1.385 . S
C131 H112 0.947 . S
C131 C130 1.383 . S
C131 C132 1.388 . S
C132 H113 0.946 . S
C132 C131 1.388 . S
C132 C133 1.384 . S
C133 C132 1.384 . S
C133 C134 1.377 . S
C134 H114 0.953 . S
C134 C133 1.377 . S
C134 C135 1.369 . S
C135 H115 0.945 . S
C135 C130 1.385 . S
C135 C134 1.369 . S
C136 C128 1.457 . S
C136 C137 1.372 . S
C136 C141 1.364 . S
C137 H116 0.952 . S
C137 C136 1.372 . S
C137 C138 1.389 . S
C138 H117 0.949 . S
C138 C137 1.389 . S
C138 C139 1.387 . S
C139 C138 1.387 . S
C139 C140 1.372 . S
C140 H118 0.950 . S
C140 C139 1.372 . S
C140 C141 1.379 . S
C141 H119 0.948 . S
C141 C136 1.364 . S
C141 C140 1.379 . S
C142 C111 1.383 . S
C142 C129 1.479 . S
C142 C143 1.398 . S
C143 C108 1.382 . S
C143 H120 0.951 . S
C143 C142 1.398 . S
C144 C145 1.384 . S
C144 H157 0.947 . S
C144 C179 1.382 . S
C145 C144 1.384 . S
C145 C146 1.378 . S
C146 C145 1.378 . S
C146 C147 1.378 . S
C146 H158 0.952 . S
C147 C146 1.378 . S
C147 H159 0.950 . S
C147 C178 1.383 . S
H148 C167 0.947 1_556 S
H149 C168 0.946 . S
H150 C170 0.953 . S
H151 C171 0.945 . S
H152 C173 0.952 . S
H153 C174 0.949 . S
H154 C176 0.950 . S
H155 C177 0.948 . S
H156 C179 0.951 . S
H157 C144 0.947 . S
H158 C146 0.952 . S
H159 C147 0.950 . S
N160 C163 1.382 . S
N160 C165 1.363 1_554 S
N161 C163 1.371 . S
N161 C164 1.372 . S
N162 C164 1.361 . S
N162 C165 1.377 1_554 S
C163 N160 1.382 . S
C163 N161 1.371 . S
C163 C166 1.480 . S
C164 N161 1.372 . S
C164 N162 1.361 . S
C164 C172 1.457 . S
C165 N160 1.363 1_556 S
C165 N162 1.377 1_556 S
C165 C178 1.479 . S
C166 C163 1.480 . S
C166 C167 1.383 . S
C166 C171 1.385 . S
C167 H148 0.947 1_554 S
C167 C166 1.383 . S
C167 C168 1.388 . S
C168 H149 0.946 . S
C168 C167 1.388 . S
C168 C169 1.384 . S
C169 C168 1.384 . S
C169 C170 1.377 . S
C170 H150 0.953 . S
C170 C169 1.377 . S
C170 C171 1.369 . S
C171 H151 0.945 . S
C171 C166 1.385 . S
C171 C170 1.369 . S
C172 C164 1.457 . S
C172 C173 1.372 . S
C172 C177 1.364 . S
C173 H152 0.952 . S
C173 C172 1.372 . S
C173 C174 1.389 . S
C174 H153 0.949 . S
C174 C173 1.389 . S
C174 C175 1.387 . S
C175 C174 1.387 . S
C175 C176 1.372 . S
C176 H154 0.950 . S
C176 C175 1.372 . S
C176 C177 1.379 . S
C177 H155 0.948 . S
C177 C172 1.364 . S
C177 C176 1.379 . S
C178 C147 1.383 . S
C178 C165 1.479 . S
C178 C179 1.398 . S
C179 C144 1.382 . S
C179 H156 0.951 . S
C179 C178 1.398 . S
C180 C181 1.384 . S
C180 H193 0.948 1_455 S
C180 C215 1.382 . S
C181 C180 1.384 . S
C181 C182 1.378 . S
C182 C181 1.378 . S
C182 C183 1.378 . S
C182 H194 0.952 . S
C183 C182 1.378 . S
C183 H195 0.950 . S
C183 C214 1.383 . S
H184 C203 0.947 1_556 S
H185 C204 0.949 . S
H186 C206 0.953 . S
H187 C207 0.945 . S
H188 C209 0.947 1_655 S
H189 C210 0.954 . S
H190 C212 0.950 . S
H191 C213 0.948 . S
H192 C215 0.950 1_655 S
H193 C180 0.948 1_655 S
H194 C182 0.952 . S
H195 C183 0.950 . S
N196 C199 1.382 . S
N196 C201 1.363 1_554 S
N197 C199 1.371 . S
N197 C200 1.372 . S
N198 C200 1.361 . S
N198 C201 1.377 1_554 S
C199 N196 1.382 . S
C199 N197 1.371 . S
C199 C202 1.480 . S
C200 N197 1.372 . S
C200 N198 1.361 . S
C200 C208 1.457 . S
C201 N196 1.363 1_556 S
C201 N198 1.377 1_556 S
C201 C214 1.479 . S
C202 C199 1.480 . S
C202 C203 1.383 . S
C202 C207 1.385 . S
C203 H184 0.947 1_554 S
C203 C202 1.383 . S
C203 C204 1.387 1_455 S
C204 H185 0.949 . S
C204 C203 1.387 1_655 S
C204 C205 1.382 1_655 S
C205 C204 1.382 1_455 S
C205 C206 1.377 . S
C206 H186 0.953 . S
C206 C205 1.377 . S
C206 C207 1.369 . S
C207 H187 0.945 . S
C207 C202 1.385 . S
C207 C206 1.369 . S
C208 C200 1.457 . S
C208 C209 1.379 . S
C208 C213 1.364 . S
C209 H188 0.947 1_455 S
C209 C208 1.379 . S
C209 C210 1.387 1_455 S
C210 H189 0.954 . S
C210 C209 1.387 1_655 S
C210 C211 1.384 1_655 S
C211 C210 1.384 1_455 S
C211 C212 1.372 . S
C212 H190 0.950 . S
C212 C211 1.372 . S
C212 C213 1.379 . S
C213 H191 0.948 . S
C213 C208 1.364 . S
C213 C212 1.379 . S
C214 C183 1.383 . S
C214 C201 1.479 . S
C214 C215 1.399 . S
C215 C180 1.382 . S
C215 H192 0.950 1_455 S
C215 C214 1.399 . S
C216 C217 1.384 . S
C216 H229 0.948 1_545 S
C216 C251 1.382 . S
C217 C216 1.384 . S
C217 C218 1.378 . S
C218 C217 1.378 . S
C218 C219 1.378 . S
C218 H230 0.952 . S
C219 C218 1.378 . S
C219 H231 0.950 . S
C219 C250 1.383 . S
H220 C239 0.947 1_556 S
H221 C240 0.949 . S
H222 C242 0.953 . S
H223 C243 0.945 . S
H224 C245 0.948 1_565 S
H225 C246 0.954 . S
H226 C248 0.950 . S
H227 C249 0.948 . S
H228 C251 0.950 1_565 S
H229 C216 0.948 1_565 S
H230 C218 0.952 . S
H231 C219 0.950 . S
N232 C235 1.382 . S
N232 C237 1.363 1_554 S
N233 C235 1.371 . S
N233 C236 1.372 . S
N234 C236 1.361 . S
N234 C237 1.377 1_554 S
C235 N232 1.382 . S
C235 N233 1.371 . S
C235 C238 1.480 . S
C236 N233 1.372 . S
C236 N234 1.361 . S
C236 C244 1.457 . S
C237 N232 1.363 1_556 S
C237 N234 1.377 1_556 S
C237 C250 1.479 . S
C238 C235 1.480 . S
C238 C239 1.383 . S
C238 C243 1.385 . S
C239 H220 0.947 1_554 S
C239 C238 1.383 . S
C239 C240 1.387 1_545 S
C240 H221 0.949 . S
C240 C239 1.387 1_565 S
C240 C241 1.382 1_565 S
C241 C240 1.382 1_545 S
C241 C242 1.377 . S
C242 H222 0.953 . S
C242 C241 1.377 . S
C242 C243 1.369 . S
C243 H223 0.945 . S
C243 C238 1.385 . S
C243 C242 1.369 . S
C244 C236 1.457 . S
C244 C245 1.379 . S
C244 C249 1.364 . S
C245 H224 0.948 1_545 S
C245 C244 1.379 . S
C245 C246 1.387 1_545 S
C246 H225 0.954 . S
C246 C245 1.387 1_565 S
C246 C247 1.384 1_565 S
C247 C246 1.384 1_545 S
C247 C248 1.372 . S
C248 H226 0.950 . S
C248 C247 1.372 . S
C248 C249 1.379 . S
C249 H227 0.948 . S
C249 C244 1.364 . S
C249 C248 1.379 . S
C250 C219 1.383 . S
C250 C237 1.479 . S
C250 C251 1.399 . S
C251 C216 1.382 . S
C251 H228 0.950 1_545 S
C251 C250 1.399 . S
C252 C253 1.384 . S
C252 H265 0.947 . S
C252 C287 1.382 . S
C253 C252 1.384 . S
C253 C254 1.378 . S
C254 C253 1.378 . S
C254 C255 1.378 . S
C254 H266 0.952 . S
C255 C254 1.378 . S
C255 H267 0.950 . S
C255 C286 1.383 . S
H256 C275 0.947 . S
H257 C276 0.946 . S
H258 C278 0.953 . S
H259 C279 0.945 1_556 S
H260 C281 0.952 . S
H261 C282 0.949 . S
H262 C284 0.950 . S
H263 C285 0.948 . S
H264 C287 0.951 . S
H265 C252 0.947 . S
H266 C254 0.952 . S
H267 C255 0.950 . S
N268 C271 1.382 . S
N268 C273 1.363 . S
N269 C271 1.371 1_556 S
N269 C272 1.372 . S
N270 C272 1.361 1_554 S
N270 C273 1.377 . S
C271 N268 1.382 . S
C271 N269 1.371 1_554 S
C271 C274 1.480 . S
C272 N269 1.372 . S
C272 N270 1.361 1_556 S
C272 C280 1.457 . S
C273 N268 1.363 . S
C273 N270 1.377 . S
C273 C286 1.479 . S
C274 C271 1.480 . S
C274 C275 1.383 . S
C274 C279 1.385 . S
C275 H256 0.947 . S
C275 C274 1.383 . S
C275 C276 1.388 . S
C276 H257 0.946 . S
C276 C275 1.388 . S
C276 C277 1.384 . S
C277 C276 1.384 . S
C277 C278 1.377 . S
C278 H258 0.953 . S
C278 C277 1.377 . S
C278 C279 1.369 . S
C279 H259 0.945 1_554 S
C279 C274 1.385 . S
C279 C278 1.369 . S
C280 C272 1.457 . S
C280 C281 1.372 . S
C280 C285 1.364 . S
C281 H260 0.952 . S
C281 C280 1.372 . S
C281 C282 1.389 . S
C282 H261 0.949 . S
C282 C281 1.389 . S
C282 C283 1.387 . S
C283 C282 1.387 . S
C283 C284 1.372 . S
C284 H262 0.950 . S
C284 C283 1.372 . S
C284 C285 1.379 . S
C285 H263 0.948 . S
C285 C280 1.364 . S
C285 C284 1.379 . S
C286 C255 1.383 . S
C286 C273 1.479 . S
C286 C287 1.398 . S
C287 C252 1.382 . S
C287 H264 0.951 . S
C287 C286 1.398 . S
C288 Eu289 2.835 . S
C288 C290 1.500 . S
C288 O308 1.257 . S
C288 O309 1.260 . S
Eu289 C288 2.835 . S
Eu289 O308 2.473 . S
Eu289 O309 2.480 . S
Eu289 O310 2.430 . S
Eu289 O311 2.670 1_545 S
Eu289 O312 2.394 . S
Eu289 O317 2.355 1_655 S
Eu289 O319 2.374 1_545 S
C290 C288 1.500 . S
C290 C291 1.377 . S
C290 C295 1.377 . S
C291 C290 1.377 . S
C291 C292 1.395 . S
C291 H320 0.931 . S
C292 C291 1.395 . S
C292 C293 1.383 . S
C292 H321 0.931 . S
C293 C292 1.383 . S
C293 C294 1.394 . S
C294 C293 1.394 . S
C294 C295 1.378 . S
C294 H322 0.931 1_655 S
C295 C290 1.377 . S
C295 C294 1.378 . S
C295 H323 0.931 1_655 S
C296 O310 1.259 . S
C296 O311 1.270 1_545 S
C297 O312 1.251 1_455 S
C297 O313 1.251 . S
C298 Eu299 2.835 . S
C298 C300 1.500 . S
C298 O314 1.257 . S
C298 O315 1.260 . S
Eu299 C298 2.835 . S
Eu299 O311 2.355 1_455 S
Eu299 O313 2.374 1_565 S
Eu299 O314 2.473 . S
Eu299 O315 2.480 . S
Eu299 O316 2.430 . S
Eu299 O317 2.670 1_565 S
Eu299 O318 2.394 . S
C300 C298 1.500 . S
C300 C301 1.377 . S
C300 C305 1.377 . S
C301 C300 1.377 . S
C301 C302 1.395 . S
C301 H324 0.931 . S
C302 C301 1.395 . S
C302 C303 1.383 . S
C302 H325 0.931 . S
C303 C302 1.383 . S
C303 C304 1.394 . S
C304 C303 1.394 . S
C304 C305 1.378 . S
C304 H326 0.931 1_455 S
C305 C300 1.377 . S
C305 C304 1.378 . S
C305 H327 0.931 1_455 S
C306 O316 1.259 . S
C306 O317 1.270 1_565 S
C307 O318 1.251 1_655 S
C307 O319 1.251 . S
O308 C288 1.257 . S
O308 Eu289 2.473 . S
O309 C288 1.260 . S
O309 Eu289 2.480 . S
O310 Eu289 2.430 . S
O310 C296 1.259 . S
O311 Eu289 2.670 1_565 S
O311 C296 1.270 1_565 S
O311 Eu299 2.355 1_655 S
O312 Eu289 2.394 . S
O312 C297 1.251 1_655 S
O313 C297 1.251 . S
O313 Eu299 2.374 1_545 S
O314 C298 1.257 . S
O314 Eu299 2.473 . S
O315 C298 1.260 . S
O315 Eu299 2.480 . S
O316 Eu299 2.430 . S
O316 C306 1.259 . S
O317 Eu289 2.355 1_455 S
O317 Eu299 2.670 1_545 S
O317 C306 1.270 1_545 S
O318 Eu299 2.394 . S
O318 C307 1.251 1_455 S
O319 Eu289 2.374 1_565 S
O319 C307 1.251 . S
H320 C291 0.931 . S
H321 C292 0.931 . S
H322 C294 0.931 1_455 S
H323 C295 0.931 1_455 S
H324 C301 0.931 . S
H325 C302 0.931 . S
H326 C304 0.931 1_655 S
H327 C305 0.931 1_655 S
C328 Eu329 2.835 . S
C328 C330 1.500 . S
C328 O348 1.257 . S
C328 O349 1.260 . S
Eu329 C328 2.835 . S
Eu329 O348 2.473 . S
Eu329 O349 2.480 . S
Eu329 O350 2.430 . S
Eu329 O351 2.670 . S
Eu329 O352 2.394 . S
Eu329 O357 2.355 1_565 S
Eu329 O359 2.374 . S
C330 C328 1.500 . S
C330 C331 1.377 . S
C330 C335 1.377 . S
C331 C330 1.377 . S
C331 C332 1.395 . S
C331 H360 0.931 . S
C332 C331 1.395 . S
C332 C333 1.383 . S
C332 H361 0.931 . S
C333 C332 1.383 . S
C333 C334 1.394 . S
C334 C333 1.394 . S
C334 C335 1.378 . S
C334 H362 0.931 1_565 S
C335 C330 1.377 . S
C335 C334 1.378 . S
C335 H363 0.931 1_565 S
C336 O350 1.259 . S
C336 O351 1.270 . S
C337 O352 1.251 1_545 S
C337 O353 1.251 . S
C338 Eu339 2.835 . S
C338 C340 1.500 . S
C338 O354 1.257 . S
C338 O355 1.260 . S
Eu339 C338 2.835 . S
Eu339 O351 2.355 1_545 S
Eu339 O353 2.374 . S
Eu339 O354 2.473 . S
Eu339 O355 2.480 . S
Eu339 O356 2.430 . S
Eu339 O357 2.670 . S
Eu339 O358 2.394 . S
C340 C338 1.500 . S
C340 C341 1.377 . S
C340 C345 1.377 . S
C341 C340 1.377 . S
C341 C342 1.395 . S
C341 H364 0.931 . S
C342 C341 1.395 . S
C342 C343 1.383 . S
C342 H365 0.931 . S
C343 C342 1.383 . S
C343 C344 1.394 . S
C344 C343 1.394 . S
C344 C345 1.378 . S
C344 H366 0.931 1_545 S
C345 C340 1.377 . S
C345 C344 1.378 . S
C345 H367 0.931 1_545 S
C346 O356 1.259 . S
C346 O357 1.270 . S
C347 O358 1.251 1_565 S
C347 O359 1.251 . S
O348 C328 1.257 . S
O348 Eu329 2.473 . S
O349 C328 1.260 . S
O349 Eu329 2.480 . S
O350 Eu329 2.430 . S
O350 C336 1.259 . S
O351 Eu329 2.670 . S
O351 C336 1.270 . S
O351 Eu339 2.355 1_565 S
O352 Eu329 2.394 . S
O352 C337 1.251 1_565 S
O353 C337 1.251 . S
O353 Eu339 2.374 . S
O354 C338 1.257 . S
O354 Eu339 2.473 . S
O355 C338 1.260 . S
O355 Eu339 2.480 . S
O356 Eu339 2.430 . S
O356 C346 1.259 . S
O357 Eu329 2.355 1_545 S
O357 Eu339 2.670 . S
O357 C346 1.270 . S
O358 Eu339 2.394 . S
O358 C347 1.251 1_545 S
O359 Eu329 2.374 . S
O359 C347 1.251 . S
H360 C331 0.931 . S
H361 C332 0.931 . S
H362 C334 0.931 1_545 S
H363 C335 0.931 1_545 S
H364 C341 0.931 . S
H365 C342 0.931 . S
H366 C344 0.931 1_565 S
H367 C345 0.931 1_565 S
C368 Eu369 2.835 . S
C368 C370 1.500 . S
C368 O388 1.257 . S
C368 O389 1.260 . S
Eu369 C368 2.835 . S
Eu369 O388 2.473 . S
Eu369 O389 2.480 . S
Eu369 O390 2.430 . S
Eu369 O391 2.670 . S
Eu369 O392 2.394 . S
Eu369 O397 2.355 . S
Eu369 O399 2.374 . S
C370 C368 1.500 . S
C370 C371 1.377 . S
C370 C375 1.377 . S
C371 C370 1.377 . S
C371 C372 1.395 . S
C371 H400 0.931 . S
C372 C371 1.395 . S
C372 C373 1.383 . S
C372 H401 0.931 . S
C373 C372 1.383 . S
C373 C374 1.394 . S
C374 C373 1.394 . S
C374 C375 1.378 . S
C374 H402 0.931 . S
C375 C370 1.377 . S
C375 C374 1.378 . S
C375 H403 0.931 . S
C376 O390 1.259 . S
C376 O391 1.270 . S
C377 O392 1.251 . S
C377 O393 1.251 . S
C378 Eu379 2.835 . S
C378 C380 1.500 . S
C378 O394 1.257 . S
C378 O395 1.260 . S
Eu379 C378 2.835 . S
Eu379 O391 2.355 . S
Eu379 O393 2.374 . S
Eu379 O394 2.473 . S
Eu379 O395 2.480 . S
Eu379 O396 2.430 . S
Eu379 O397 2.670 . S
Eu379 O398 2.394 . S
C380 C378 1.500 . S
C380 C381 1.377 . S
C380 C385 1.377 . S
C381 C380 1.377 . S
C381 C382 1.395 . S
C381 H404 0.931 . S
C382 C381 1.395 . S
C382 C383 1.383 . S
C382 H405 0.931 . S
C383 C382 1.383 . S
C383 C384 1.394 . S
C384 C383 1.394 . S
C384 C385 1.378 . S
C384 H406 0.925 1_556 S
C385 C380 1.377 . S
C385 C384 1.378 . S
C385 H407 0.931 . S
C386 O396 1.259 . S
C386 O397 1.270 . S
C387 O398 1.251 . S
C387 O399 1.251 . S
O388 C368 1.257 . S
O388 Eu369 2.473 . S
O389 C368 1.260 . S
O389 Eu369 2.480 . S
O390 Eu369 2.430 . S
O390 C376 1.259 . S
O391 Eu369 2.670 . S
O391 C376 1.270 . S
O391 Eu379 2.355 . S
O392 Eu369 2.394 . S
O392 C377 1.251 . S
O393 C377 1.251 . S
O393 Eu379 2.374 . S
O394 C378 1.257 . S
O394 Eu379 2.473 . S
O395 C378 1.260 . S
O395 Eu379 2.480 . S
O396 Eu379 2.430 . S
O396 C386 1.259 . S
O397 Eu369 2.355 . S
O397 Eu379 2.670 . S
O397 C386 1.270 . S
O398 Eu379 2.394 . S
O398 C387 1.251 . S
O399 Eu369 2.374 . S
O399 C387 1.251 . S
H400 C371 0.931 . S
H401 C372 0.931 . S
H402 C374 0.931 . S
H403 C375 0.931 . S
H404 C381 0.931 . S
H405 C382 0.931 . S
H406 C384 0.925 1_554 S
H407 C385 0.931 . S
C408 Eu409 2.835 . S
C408 C410 1.500 . S
C408 O428 1.257 . S
C408 O429 1.260 . S
Eu409 C408 2.835 . S
Eu409 O428 2.473 . S
Eu409 O429 2.480 . S
Eu409 O430 2.430 . S
Eu409 O431 2.670 1_455 S
Eu409 O432 2.394 . S
Eu409 O437 2.355 . S
Eu409 O439 2.374 1_455 S
C410 C408 1.500 . S
C410 C411 1.377 . S
C410 C415 1.377 . S
C411 C410 1.377 . S
C411 C412 1.395 . S
C411 H440 0.931 . S
C412 C411 1.395 . S
C412 C413 1.383 . S
C412 H441 0.931 . S
C413 C412 1.383 . S
C413 C414 1.394 . S
C414 C413 1.394 . S
C414 C415 1.378 . S
C414 H442 0.931 . S
C415 C410 1.377 . S
C415 C414 1.378 . S
C415 H443 0.931 . S
C416 O430 1.263 . S
C416 O431 1.267 1_455 S
C417 O432 1.251 . S
C417 O433 1.251 . S
C418 Eu419 2.835 . S
C418 C420 1.500 . S
C418 O434 1.257 . S
C418 O435 1.260 . S
Eu419 C418 2.835 . S
Eu419 O431 2.355 . S
Eu419 O433 2.374 1_655 S
Eu419 O434 2.473 . S
Eu419 O435 2.480 . S
Eu419 O436 2.430 . S
Eu419 O437 2.670 1_655 S
Eu419 O438 2.394 . S
C420 C418 1.500 . S
C420 C421 1.377 . S
C420 C425 1.377 . S
C421 C420 1.377 . S
C421 C422 1.395 . S
C421 H444 0.931 . S
C422 C421 1.395 . S
C422 C423 1.383 . S
C422 H445 0.931 . S
C423 C422 1.383 . S
C423 C424 1.394 . S
C424 C423 1.394 . S
C424 C425 1.378 . S
C424 H446 0.937 . S
C425 C420 1.377 . S
C425 C424 1.378 . S
C425 H447 0.931 . S
C426 O436 1.258 . S
C426 O437 1.271 1_655 S
C427 O438 1.251 . S
C427 O439 1.251 . S
O428 C408 1.257 . S
O428 Eu409 2.473 . S
O429 C408 1.260 . S
O429 Eu409 2.480 . S
O430 Eu409 2.430 . S
O430 C416 1.263 . S
O431 Eu409 2.670 1_655 S
O431 C416 1.267 1_655 S
O431 Eu419 2.355 . S
O432 Eu409 2.394 . S
O432 C417 1.251 . S
O433 C417 1.251 . S
O433 Eu419 2.374 1_455 S
O434 C418 1.257 . S
O434 Eu419 2.473 . S
O435 C418 1.260 . S
O435 Eu419 2.480 . S
O436 Eu419 2.430 . S
O436 C426 1.258 . S
O437 Eu409 2.355 . S
O437 Eu419 2.670 1_455 S
O437 C426 1.271 1_455 S
O438 Eu419 2.394 . S
O438 C427 1.251 . S
O439 Eu409 2.374 1_655 S
O439 C427 1.251 . S
H440 C411 0.931 . S
H441 C412 0.931 . S
H442 C414 0.931 . S
H443 C415 0.931 . S
H444 C421 0.931 . S
H445 C422 0.931 . S
H446 C424 0.937 . S
H447 C425 0.931 . S
H448 C454 0.930 . S
H449 C457 0.930 . S
H450 C458 0.930 . S
H451 C459 0.930 . S
H452 C462 0.930 . S
H453 C463 0.930 . S
C454 H448 0.930 . S
C454 C455 1.355 1_565 S
C454 C456 1.415 . S
C455 C454 1.355 1_545 S
C455 C457 1.419 . S
C456 C454 1.415 . S
C456 C461 1.425 1_565 S
C456 C463 1.409 . S
C457 H449 0.930 . S
C457 C455 1.419 . S
C457 C458 1.362 . S
C458 H450 0.930 . S
C458 C457 1.362 . S
C458 C461 1.409 . S
C459 H451 0.930 . S
C459 C460 1.355 1_545 S
C459 C461 1.415 . S
C460 C459 1.355 1_565 S
C460 C462 1.419 . S
C461 C456 1.425 1_545 S
C461 C458 1.409 . S
C461 C459 1.415 . S
C462 H452 0.930 . S
C462 C460 1.419 . S
C462 C463 1.362 . S
C463 H453 0.930 . S
C463 C456 1.409 . S
C463 C462 1.362 . S
H464 C470 0.930 . S
H465 C473 0.930 . S
H466 C474 0.930 . S
H467 C475 0.930 . S
H468 C478 0.930 . S
H469 C479 0.930 . S
C470 H464 0.930 . S
C470 C471 1.355 . S
C470 C472 1.415 . S
C471 C470 1.355 . S
C471 C473 1.419 . S
C472 C470 1.415 . S
C472 C477 1.425 . S
C472 C479 1.409 . S
C473 H465 0.930 . S
C473 C471 1.419 . S
C473 C474 1.362 . S
C474 H466 0.930 . S
C474 C473 1.362 . S
C474 C477 1.409 . S
C475 H467 0.930 . S
C475 C476 1.355 . S
C475 C477 1.415 . S
C476 C475 1.355 . S
C476 C478 1.419 . S
C477 C472 1.425 . S
C477 C474 1.409 . S
C477 C475 1.415 . S
C478 H468 0.930 . S
C478 C476 1.419 . S
C478 C479 1.362 . S
C479 H469 0.930 . S
C479 C472 1.409 . S
C479 C478 1.362 . S
H480 C486 0.930 . S
H481 C489 0.930 . S
H482 C490 0.930 . S
H483 C491 0.930 . S
H484 C494 0.930 . S
H485 C495 0.930 . S
C486 H480 0.930 . S
C486 C487 1.355 . S
C486 C488 1.415 . S
C487 C486 1.355 . S
C487 C489 1.419 . S
C488 C486 1.415 . S
C488 C493 1.425 . S
C488 C495 1.409 . S
C489 H481 0.930 . S
C489 C487 1.419 . S
C489 C490 1.362 . S
C490 H482 0.930 . S
C490 C489 1.362 . S
C490 C493 1.409 . S
C491 H483 0.930 . S
C491 C492 1.355 . S
C491 C493 1.415 . S
C492 C491 1.355 . S
C492 C494 1.419 . S
C493 C488 1.425 . S
C493 C490 1.409 . S
C493 C491 1.415 . S
C494 H484 0.930 . S
C494 C492 1.419 . S
C494 C495 1.362 . S
C495 H485 0.930 . S
C495 C488 1.409 . S
C495 C494 1.362 . S
H496 C502 0.930 . S
H497 C505 0.930 . S
H498 C506 0.930 . S
H499 C507 0.930 . S
H500 C510 0.930 . S
H501 C511 0.930 . S
C502 H496 0.930 . S
C502 C503 1.355 1_655 S
C502 C504 1.415 . S
C503 C502 1.355 1_455 S
C503 C505 1.419 . S
C504 C502 1.415 . S
C504 C509 1.425 1_655 S
C504 C511 1.409 . S
C505 H497 0.930 . S
C505 C503 1.419 . S
C505 C506 1.362 . S
C506 H498 0.930 . S
C506 C505 1.362 . S
C506 C509 1.409 . S
C507 H499 0.930 . S
C507 C508 1.342 1_455 S
C507 C509 1.415 . S
C508 C507 1.342 1_655 S
C508 C510 1.436 . S
C509 C504 1.425 1_455 S
C509 C506 1.409 . S
C509 C507 1.415 . S
C510 H500 0.930 . S
C510 C508 1.436 . S
C510 C511 1.362 . S
C511 H501 0.930 . S
C511 C504 1.409 . S
C511 C510 1.362 . S
H512 C518 0.930 . S
H513 C521 0.930 . S
H514 C522 0.930 . S
H515 C523 0.930 . S
H516 C526 0.930 . S
H517 C527 0.930 . S
C518 H512 0.930 . S
C518 C519 1.355 1_565 S
C518 C520 1.415 . S
C519 C518 1.355 1_545 S
C519 C521 1.419 . S
C520 C518 1.415 . S
C520 C525 1.425 1_565 S
C520 C527 1.409 . S
C521 H513 0.930 . S
C521 C519 1.419 . S
C521 C522 1.362 . S
C522 H514 0.930 . S
C522 C521 1.362 . S
C522 C525 1.409 . S
C523 H515 0.930 . S
C523 C524 1.355 1_545 S
C523 C525 1.415 1_556 S
C524 C523 1.355 1_565 S
C524 C526 1.419 . S
C525 C520 1.425 1_545 S
C525 C522 1.409 . S
C525 C523 1.415 1_554 S
C526 H516 0.930 . S
C526 C524 1.419 . S
C526 C527 1.362 1_556 S
C527 H517 0.930 . S
C527 C520 1.409 . S
C527 C526 1.362 1_554 S
H528 C534 0.930 . S
H529 C537 0.930 . S
H530 C538 0.930 . S
H531 C539 0.930 . S
H532 C542 0.930 . S
H533 C543 0.930 . S
C534 H528 0.930 . S
C534 C535 1.355 . S
C534 C536 1.415 . S
C535 C534 1.355 . S
C535 C537 1.419 . S
C536 C534 1.415 . S
C536 C541 1.425 . S
C536 C543 1.409 . S
C537 H529 0.930 . S
C537 C535 1.419 . S
C537 C538 1.362 . S
C538 H530 0.930 . S
C538 C537 1.362 . S
C538 C541 1.409 . S
C539 H531 0.930 . S
C539 C540 1.355 . S
C539 C541 1.415 1_556 S
C540 C539 1.355 . S
C540 C542 1.419 . S
C541 C536 1.425 . S
C541 C538 1.409 . S
C541 C539 1.415 1_554 S
C542 H532 0.930 . S
C542 C540 1.419 . S
C542 C543 1.362 1_556 S
C543 H533 0.930 . S
C543 C536 1.409 . S
C543 C542 1.362 1_554 S
H544 C550 0.930 . S
H545 C553 0.930 . S
H546 C554 0.930 . S
H547 C555 0.930 . S
H548 C558 0.930 . S
H549 C559 0.930 . S
C550 H544 0.930 . S
C550 C551 1.355 . S
C550 C552 1.415 . S
C551 C550 1.355 . S
C551 C553 1.419 . S
C552 C550 1.415 . S
C552 C557 1.425 . S
C552 C559 1.409 . S
C553 H545 0.930 . S
C553 C551 1.419 . S
C553 C554 1.362 . S
C554 H546 0.930 . S
C554 C553 1.362 . S
C554 C557 1.409 . S
C555 H547 0.930 . S
C555 C556 1.355 . S
C555 C557 1.415 1_556 S
C556 C555 1.355 . S
C556 C558 1.419 . S
C557 C552 1.425 . S
C557 C554 1.409 . S
C557 C555 1.415 1_554 S
C558 H548 0.930 . S
C558 C556 1.419 . S
C558 C559 1.362 1_556 S
C559 H549 0.930 . S
C559 C552 1.409 . S
C559 C558 1.362 1_554 S
H560 C566 0.930 . S
H561 C569 0.930 . S
H562 C570 0.930 . S
H563 C571 0.930 . S
H564 C574 0.930 . S
H565 C575 0.930 . S
C566 H560 0.930 . S
C566 C567 1.355 1_455 S
C566 C568 1.415 . S
C567 C566 1.355 1_655 S
C567 C569 1.419 . S
C568 C566 1.415 . S
C568 C573 1.425 1_455 S
C568 C575 1.409 1_554 S
C569 H561 0.930 . S
C569 C567 1.419 . S
C569 C570 1.362 . S
C570 H562 0.930 . S
C570 C569 1.362 . S
C570 C573 1.409 . S
C571 H563 0.930 . S
C571 C572 1.354 1_655 S
C571 C573 1.415 1_556 S
C572 C571 1.354 1_455 S
C572 C574 1.420 . S
C573 C568 1.425 1_655 S
C573 C570 1.409 . S
C573 C571 1.415 1_554 S
C574 H564 0.930 . S
C574 C572 1.420 . S
C574 C575 1.362 . S
C575 H565 0.930 . S
C575 C568 1.409 1_556 S
C575 C574 1.362 . S
H576 C582 0.930 . S
H577 C585 0.930 . S
H578 C586 0.930 . S
H579 C587 0.930 . S
H580 C590 0.930 . S
H581 C591 0.930 . S
C582 H576 0.930 . S
C582 C583 1.355 1_655 S
C582 C584 1.415 . S
C583 C582 1.355 1_455 S
C583 C585 1.419 . S
C584 C582 1.415 . S
C584 C589 1.425 . S
C584 C591 1.409 . S
C585 H577 0.930 . S
C585 C583 1.419 . S
C585 C586 1.362 . S
C586 H578 0.930 . S
C586 C585 1.362 . S
C586 C589 1.409 1_455 S
C587 H579 0.930 . S
C587 C588 1.355 . S
C587 C589 1.415 . S
C588 C587 1.355 . S
C588 C590 1.419 . S
C589 C584 1.425 . S
C589 C586 1.409 1_655 S
C589 C587 1.415 . S
C590 H580 0.930 . S
C590 C588 1.419 . S
C590 C591 1.362 . S
C591 H581 0.930 . S
C591 C584 1.409 . S
C591 C590 1.362 . S
H592 C598 0.930 . S
H593 C601 0.930 . S
H594 C602 0.930 . S
H595 C603 0.930 . S
H596 C606 0.930 . S
H597 C607 0.930 . S
C598 H592 0.930 . S
C598 C599 1.355 1_565 S
C598 C600 1.415 . S
C599 C598 1.355 1_545 S
C599 C601 1.419 . S
C600 C598 1.415 . S
C600 C605 1.425 . S
C600 C607 1.409 . S
C601 H593 0.930 . S
C601 C599 1.419 . S
C601 C602 1.362 . S
C602 H594 0.930 . S
C602 C601 1.362 . S
C602 C605 1.409 1_545 S
C603 H595 0.930 . S
C603 C604 1.355 . S
C603 C605 1.415 . S
C604 C603 1.355 . S
C604 C606 1.419 . S
C605 C600 1.425 . S
C605 C602 1.409 1_565 S
C605 C603 1.415 . S
C606 H596 0.930 . S
C606 C604 1.419 . S
C606 C607 1.362 . S
C607 H597 0.930 . S
C607 C600 1.409 . S
C607 C606 1.362 . S
H608 C614 0.930 . S
H609 C617 0.930 . S
H610 C618 0.930 . S
H611 C619 0.930 . S
H612 C622 0.930 . S
H613 C623 0.930 . S
C614 H608 0.930 . S
C614 C615 1.355 . S
C614 C616 1.415 . S
C615 C614 1.355 . S
C615 C617 1.419 . S
C616 C614 1.415 . S
C616 C621 1.425 . S
C616 C623 1.409 . S
C617 H609 0.930 . S
C617 C615 1.419 . S
C617 C618 1.362 . S
C618 H610 0.930 . S
C618 C617 1.362 . S
C618 C621 1.409 . S
C619 H611 0.930 . S
C619 C620 1.355 . S
C619 C621 1.415 . S
C620 C619 1.355 . S
C620 C622 1.419 . S
C621 C616 1.425 . S
C621 C618 1.409 . S
C621 C619 1.415 . S
C622 H612 0.930 . S
C622 C620 1.419 . S
C622 C623 1.362 . S
C623 H613 0.930 . S
C623 C616 1.409 . S
C623 C622 1.362 . S
H624 C630 0.930 . S
H625 C633 0.930 . S
H626 C634 0.930 . S
H627 C635 0.930 . S
H628 C638 0.930 . S
H629 C639 0.930 . S
C630 H624 0.930 . S
C630 C631 1.355 . S
C630 C632 1.415 . S
C631 C630 1.355 . S
C631 C633 1.419 . S
C632 C630 1.415 . S
C632 C637 1.425 . S
C632 C639 1.409 . S
C633 H625 0.930 . S
C633 C631 1.419 . S
C633 C634 1.362 . S
C634 H626 0.930 . S
C634 C633 1.362 . S
C634 C637 1.409 . S
C635 H627 0.930 . S
C635 C636 1.355 . S
C635 C637 1.415 . S
C636 C635 1.355 . S
C636 C638 1.419 . S
C637 C632 1.425 . S
C637 C634 1.409 . S
C637 C635 1.415 . S
C638 H628 0.930 . S
C638 C636 1.419 . S
C638 C639 1.362 . S
C639 H629 0.930 . S
C639 C632 1.409 . S
C639 C638 1.362 . S
H640 C646 0.930 . S
H641 C649 0.930 . S
H642 C650 0.930 . S
H643 C651 0.930 . S
H644 C654 0.930 1_556 S
H645 C655 0.930 . S
C646 H640 0.930 . S
C646 C647 1.369 . S
C646 C648 1.415 1_655 S
C647 C646 1.369 . S
C647 C649 1.384 1_655 S
C648 C646 1.415 1_455 S
C648 C653 1.425 . S
C648 C655 1.409 1_455 S
C649 H641 0.930 . S
C649 C647 1.384 1_455 S
C649 C650 1.362 . S
C650 H642 0.930 . S
C650 C649 1.362 . S
C650 C653 1.409 . S
C651 H643 0.930 . S
C651 C652 1.355 1_554 S
C651 C653 1.415 . S
C652 C651 1.355 1_556 S
C652 C654 1.419 1_556 S
C653 C648 1.425 . S
C653 C650 1.409 . S
C653 C651 1.415 . S
C654 H644 0.930 1_554 S
C654 C652 1.419 1_554 S
C654 C655 1.362 1_455 S
C655 H645 0.930 . S
C655 C648 1.409 1_655 S
C655 C654 1.362 1_655 S
H656 C662 0.930 1_565 S
H657 C665 0.930 . S
H658 C666 0.930 . S
H659 C667 0.930 . S
H660 C670 0.930 . S
H661 C671 0.930 . S
C662 H656 0.930 1_545 S
C662 C663 1.355 1_545 S
C662 C664 1.415 . S
C663 C662 1.355 1_565 S
C663 C665 1.419 1_565 S
C664 C662 1.415 . S
C664 C669 1.425 . S
C664 C671 1.409 . S
C665 H657 0.930 . S
C665 C663 1.419 1_545 S
C665 C666 1.362 1_554 S
C666 H658 0.930 . S
C666 C665 1.362 1_556 S
C666 C669 1.409 1_556 S
C667 H659 0.930 . S
C667 C668 1.355 1_556 S
C667 C669 1.415 1_556 S
C668 C667 1.355 1_554 S
C668 C670 1.419 . S
C669 C664 1.425 . S
C669 C666 1.409 1_554 S
C669 C667 1.415 1_554 S
C670 H660 0.930 . S
C670 C668 1.419 . S
C670 C671 1.362 . S
C671 H661 0.930 . S
C671 C664 1.409 . S
C671 C670 1.362 . S
H672 C678 0.930 . S
H673 C681 0.930 . S
H674 C682 0.930 . S
H675 C683 0.930 . S
H676 C686 0.930 . S
H677 C687 0.930 . S
C678 H672 0.930 . S
C678 C679 1.355 . S
C678 C680 1.415 . S
C679 C678 1.355 . S
C679 C681 1.419 . S
C680 C678 1.415 . S
C680 C685 1.425 . S
C680 C687 1.409 1_554 S
C681 H673 0.930 . S
C681 C679 1.419 . S
C681 C682 1.362 . S
C682 H674 0.930 . S
C682 C681 1.362 . S
C682 C685 1.409 . S
C683 H675 0.930 . S
C683 C684 1.355 1_554 S
C683 C685 1.415 . S
C684 C683 1.355 1_556 S
C684 C686 1.419 . S
C685 C680 1.425 . S
C685 C682 1.409 . S
C685 C683 1.415 . S
C686 H676 0.930 . S
C686 C684 1.419 . S
C686 C687 1.362 . S
C687 H677 0.930 . S
C687 C680 1.409 1_556 S
C687 C686 1.362 . S
H688 C694 0.930 . S
H689 C697 0.930 . S
H690 C698 0.930 . S
H691 C699 0.930 . S
H692 C702 0.934 . S
H693 C703 0.930 . S
C694 H688 0.930 . S
C694 C695 1.355 . S
C694 C696 1.415 . S
C695 C694 1.355 . S
C695 C697 1.419 . S
C696 C694 1.415 . S
C696 C701 1.425 . S
C696 C703 1.409 . S
C697 H689 0.930 . S
C697 C695 1.419 . S
C697 C698 1.362 . S
C698 H690 0.930 . S
C698 C697 1.362 . S
C698 C701 1.409 . S
C699 H691 0.930 . S
C699 C700 1.355 1_554 S
C699 C701 1.415 . S
C700 C699 1.355 1_556 S
C700 C702 1.420 . S
C701 C696 1.425 . S
C701 C698 1.409 . S
C701 C699 1.415 . S
C702 H692 0.934 . S
C702 C700 1.420 . S
C702 C703 1.358 1_556 S
C703 H693 0.930 . S
C703 C696 1.409 . S
C703 C702 1.358 1_554 S
H704 C710 0.930 . S
H705 C713 0.936 . S
H706 C714 0.930 . S
H707 C715 0.935 . S
H708 C718 0.930 . S
H709 C719 0.930 . S
C710 H704 0.930 . S
C710 C711 1.355 . S
C710 C712 1.415 . S
C711 C710 1.355 . S
C711 C713 1.415 1_455 S
C712 C710 1.415 . S
C712 C717 1.425 . S
C712 C719 1.409 . S
C713 H705 0.936 . S
C713 C711 1.415 1_655 S
C713 C714 1.362 . S
C714 H706 0.930 . S
C714 C713 1.362 . S
C714 C717 1.409 1_655 S
C715 H707 0.935 . S
C715 C716 1.355 . S
C715 C717 1.415 . S
C716 C715 1.355 . S
C716 C718 1.419 . S
C717 C712 1.425 . S
C717 C714 1.409 1_455 S
C717 C715 1.415 . S
C718 H708 0.930 . S
C718 C716 1.419 . S
C718 C719 1.362 . S
C719 H709 0.930 . S
C719 C712 1.409 . S
C719 C718 1.362 . S
H720 C726 0.930 . S
H721 C729 0.930 . S
H722 C730 0.930 . S
H723 C731 0.919 1_565 S
H724 C734 0.930 . S
H725 C735 0.930 . S
C726 H720 0.930 . S
C726 C727 1.355 . S
C726 C728 1.415 . S
C727 C726 1.355 . S
C727 C729 1.419 1_545 S
C728 C726 1.415 . S
C728 C733 1.425 . S
C728 C735 1.409 . S
C729 H721 0.930 . S
C729 C727 1.419 1_565 S
C729 C730 1.362 . S
C730 H722 0.930 . S
C730 C729 1.362 . S
C730 C733 1.409 1_565 S
C731 H723 0.919 1_545 S
C731 C732 1.365 . S
C731 C733 1.416 . S
C732 C731 1.365 . S
C732 C734 1.419 . S
C733 C728 1.425 . S
C733 C730 1.409 1_545 S
C733 C731 1.416 . S
C734 H724 0.930 . S
C734 C732 1.419 . S
C734 C735 1.362 . S
C735 H725 0.930 . S
C735 C728 1.409 . S
C735 C734 1.362 . S
H736 C742 0.930 . S
H737 C745 0.930 . S
H738 C746 0.930 . S
H739 C747 0.930 . S
H740 C750 0.930 . S
H741 C751 0.930 . S
C742 H736 0.930 . S
C742 C743 1.355 . S
C742 C744 1.415 . S
C743 C742 1.355 . S
C743 C745 1.419 . S
C744 C742 1.415 . S
C744 C749 1.425 . S
C744 C751 1.409 . S
C745 H737 0.930 . S
C745 C743 1.419 . S
C745 C746 1.362 . S
C746 H738 0.930 . S
C746 C745 1.362 . S
C746 C749 1.409 . S
C747 H739 0.930 . S
C747 C748 1.355 . S
C747 C749 1.415 . S
C748 C747 1.355 . S
C748 C750 1.419 . S
C749 C744 1.425 . S
C749 C746 1.409 . S
C749 C747 1.415 . S
C750 H740 0.930 . S
C750 C748 1.419 . S
C750 C751 1.362 . S
C751 H741 0.930 . S
C751 C744 1.409 . S
C751 C750 1.362 . S
H752 C758 0.930 . S
H753 C761 0.930 . S
H754 C762 0.930 . S
H755 C763 0.930 . S
H756 C766 0.930 . S
H757 C767 0.930 . S
C758 H752 0.930 . S
C758 C759 1.355 . S
C758 C760 1.415 . S
C759 C758 1.355 . S
C759 C761 1.419 . S
C760 C758 1.415 . S
C760 C765 1.425 . S
C760 C767 1.409 . S
C761 H753 0.930 . S
C761 C759 1.419 . S
C761 C762 1.362 . S
C762 H754 0.930 . S
C762 C761 1.362 . S
C762 C765 1.409 . S
C763 H755 0.930 . S
C763 C764 1.355 . S
C763 C765 1.415 . S
C764 C763 1.355 . S
C764 C766 1.419 . S
C765 C760 1.425 . S
C765 C762 1.409 . S
C765 C763 1.415 . S
C766 H756 0.930 . S
C766 C764 1.419 . S
C766 C767 1.362 . S
C767 H757 0.930 . S
C767 C760 1.409 . S
C767 C766 1.362 . S
H768 C774 0.930 . S
H769 C777 0.930 . S
H770 C778 0.930 . S
H771 C779 0.930 . S
H772 C782 0.930 . S
H773 C783 0.930 . S
C774 H768 0.930 . S
C774 C775 1.355 1_455 S
C774 C776 1.415 . S
C775 C774 1.355 1_655 S
C775 C777 1.419 . S
C776 C774 1.415 . S
C776 C781 1.425 1_455 S
C776 C783 1.409 . S
C777 H769 0.930 . S
C777 C775 1.419 . S
C777 C778 1.362 . S
C778 H770 0.930 . S
C778 C777 1.362 . S
C778 C781 1.409 . S
C779 H771 0.930 . S
C779 C780 1.355 . S
C779 C781 1.415 . S
C780 C779 1.355 . S
C780 C782 1.419 1_655 S
C781 C776 1.425 1_655 S
C781 C778 1.409 . S
C781 C779 1.415 . S
C782 H772 0.930 . S
C782 C780 1.419 1_455 S
C782 C783 1.362 . S
C783 H773 0.930 . S
C783 C776 1.409 . S
C783 C782 1.362 . S
H784 C790 0.930 . S
H785 C793 0.930 . S
H786 C794 0.930 . S
H787 C795 0.930 . S
H788 C798 0.930 . S
H789 C799 0.930 . S
C790 H784 0.930 . S
C790 C791 1.355 . S
C790 C792 1.415 . S
C791 C790 1.355 . S
C791 C793 1.419 . S
C792 C790 1.415 . S
C792 C797 1.425 . S
C792 C799 1.409 . S
C793 H785 0.930 . S
C793 C791 1.419 . S
C793 C794 1.362 . S
C794 H786 0.930 . S
C794 C793 1.362 . S
C794 C797 1.409 . S
C795 H787 0.930 . S
C795 C796 1.355 . S
C795 C797 1.415 . S
C796 C795 1.355 . S
C796 C798 1.419 . S
C797 C792 1.425 . S
C797 C794 1.409 . S
C797 C795 1.415 . S
C798 H788 0.930 . S
C798 C796 1.419 . S
C798 C799 1.362 . S
C799 H789 0.930 . S
C799 C792 1.409 . S
C799 C798 1.362 . S
H800 C806 0.930 . S
H801 C809 0.930 . S
H802 C810 0.930 . S
H803 C811 0.930 . S
H804 C814 0.930 . S
H805 C815 0.930 . S
C806 H800 0.930 . S
C806 C807 1.355 . S
C806 C808 1.415 . S
C807 C806 1.355 . S
C807 C809 1.419 . S
C808 C806 1.415 . S
C808 C813 1.425 . S
C808 C815 1.409 . S
C809 H801 0.930 . S
C809 C807 1.419 . S
C809 C810 1.362 . S
C810 H802 0.930 . S
C810 C809 1.362 . S
C810 C813 1.409 . S
C811 H803 0.930 . S
C811 C812 1.355 . S
C811 C813 1.415 . S
C812 C811 1.355 . S
C812 C814 1.419 . S
C813 C808 1.425 . S
C813 C810 1.409 . S
C813 C811 1.415 . S
C814 H804 0.930 . S
C814 C812 1.419 . S
C814 C815 1.362 . S
C815 H805 0.930 . S
C815 C808 1.409 . S
C815 C814 1.362 . S
H816 C822 0.930 . S
H817 C825 0.930 . S
H818 C826 0.930 . S
H819 C827 0.930 . S
H820 C830 0.930 . S
H821 C831 0.930 . S
C822 H816 0.930 . S
C822 C823 1.355 . S
C822 C824 1.415 . S
C823 C822 1.355 . S
C823 C825 1.419 . S
C824 C822 1.415 . S
C824 C829 1.425 . S
C824 C831 1.409 . S
C825 H817 0.930 . S
C825 C823 1.419 . S
C825 C826 1.362 . S
C826 H818 0.930 . S
C826 C825 1.362 . S
C826 C829 1.409 . S
C827 H819 0.930 . S
C827 C828 1.355 . S
C827 C829 1.415 . S
C828 C827 1.355 . S
C828 C830 1.419 . S
C829 C824 1.425 . S
C829 C826 1.409 . S
C829 C827 1.415 . S
C830 H820 0.930 . S
C830 C828 1.419 . S
C830 C831 1.362 . S
C831 H821 0.930 . S
C831 C824 1.409 . S
C831 C830 1.362 . S
C455 C241 2.269 . S
C460 C306 2.577 . S
C476 C346 2.622 . S
C471 C277 2.411 . S
C492 C386 2.596 . S
C487 C169 2.266 . S
C508 C426 2.587 . S
C503 C205 2.254 . S
C524 C296 2.581 1_565 S
C519 C97 2.241 . S
C535 C133 2.374 . S
C540 C336 2.626 . S
C551 C25 2.270 . S
C556 C376 2.604 . S
C567 C61 2.323 1_655 S
C572 C416 2.599 . S
C588 C293 0.636 . S
C583 C211 0.548 . S
C604 C333 0.622 . S
C599 C247 0.600 . S
C620 C373 0.503 . S
C615 C253 0.529 . S
C631 C175 0.495 . S
C636 C413 0.593 . S
C647 C67 0.499 1_655 S
C652 C303 0.447 . S
C668 C343 0.581 1_554 S
C663 C103 0.639 1_565 S
C684 C383 0.411 . S
C679 C109 0.384 . S
C695 C31 0.566 . S
C700 C423 0.588 . S
C711 C181 3.023 . S
C716 C297 3.388 . S
C727 C217 2.982 . S
C732 C337 3.353 . S
C748 C377 3.357 . S
C743 C283 2.894 . S
C764 C417 3.367 . S
C759 C145 2.989 . S
C775 C37 3.018 1_655 S
C780 C307 3.387 . S
C796 C347 3.356 . S
C791 C73 2.987 1_565 S
C812 C387 3.357 . S
C807 C139 2.881 . S
C823 C1 2.952 . S
C828 C427 3.362 . S
