# Generated by pormake.
# Topology hwx, (6,3)-cn, num edge types: 1
# Building blocks:
#     Node 0, Type 0, BuildingBlock: IZENUY_clean_sbu_0, # of connection points: 6
#     Node 1, Type 0, BuildingBlock: IZENUY_clean_sbu_0, # of connection points: 6
#     Node 2, Type 0, BuildingBlock: IZENUY_clean_sbu_0, # of connection points: 6
#     Node 3, Type 0, BuildingBlock: IZENUY_clean_sbu_0, # of connection points: 6
#     Node 4, Type 1, BuildingBlock: PAMTOO_clean_linker_0, # of connection points: 3
#     Node 5, Type 1, BuildingBlock: PAMTOO_clean_linker_0, # of connection points: 3
#     Node 6, Type 1, BuildingBlock: PAMTOO_clean_linker_0, # of connection points: 3
#     Node 7, Type 1, BuildingBlock: PAMTOO_clean_linker_0, # of connection points: 3
#     Node 8, Type 1, BuildingBlock: PAMTOO_clean_linker_0, # of connection points: 3
#     Node 9, Type 1, BuildingBlock: PAMTOO_clean_linker_0, # of connection points: 3
#     Node 10, Type 1, BuildingBlock: PAMTOO_clean_linker_0, # of connection points: 3
#     Node 11, Type 1, BuildingBlock: PAMTOO_clean_linker_0, # of connection points: 3
#     Edge 12, Type (0, 1), BuildingBlock: KIFKEQ_clean_linker_1, # of connection points: 2
#     Edge 13, Type (0, 1), BuildingBlock: KIFKEQ_clean_linker_1, # of connection points: 2
#     Edge 14, Type (0, 1), BuildingBlock: KIFKEQ_clean_linker_1, # of connection points: 2
#     Edge 15, Type (0, 1), BuildingBlock: KIFKEQ_clean_linker_1, # of connection points: 2
#     Edge 16, Type (0, 1), BuildingBlock: KIFKEQ_clean_linker_1, # of connection points: 2
#     Edge 17, Type (0, 1), BuildingBlock: KIFKEQ_clean_linker_1, # of connection points: 2
#     Edge 18, Type (0, 1), BuildingBlock: KIFKEQ_clean_linker_1, # of connection points: 2
#     Edge 19, Type (0, 1), BuildingBlock: KIFKEQ_clean_linker_1, # of connection points: 2
#     Edge 20, Type (0, 1), BuildingBlock: KIFKEQ_clean_linker_1, # of connection points: 2
#     Edge 21, Type (0, 1), BuildingBlock: KIFKEQ_clean_linker_1, # of connection points: 2
#     Edge 22, Type (0, 1), BuildingBlock: KIFKEQ_clean_linker_1, # of connection points: 2
#     Edge 23, Type (0, 1), BuildingBlock: KIFKEQ_clean_linker_1, # of connection points: 2
#     Edge 24, Type (0, 1), BuildingBlock: KIFKEQ_clean_linker_1, # of connection points: 2
#     Edge 25, Type (0, 1), BuildingBlock: KIFKEQ_clean_linker_1, # of connection points: 2
#     Edge 26, Type (0, 1), BuildingBlock: KIFKEQ_clean_linker_1, # of connection points: 2
#     Edge 27, Type (0, 1), BuildingBlock: KIFKEQ_clean_linker_1, # of connection points: 2
#     Edge 28, Type (0, 1), BuildingBlock: KIFKEQ_clean_linker_1, # of connection points: 2
#     Edge 29, Type (0, 1), BuildingBlock: KIFKEQ_clean_linker_1, # of connection points: 2
#     Edge 30, Type (0, 1), BuildingBlock: KIFKEQ_clean_linker_1, # of connection points: 2
#     Edge 31, Type (0, 1), BuildingBlock: KIFKEQ_clean_linker_1, # of connection points: 2
#     Edge 32, Type (0, 1), BuildingBlock: KIFKEQ_clean_linker_1, # of connection points: 2
#     Edge 33, Type (0, 1), BuildingBlock: KIFKEQ_clean_linker_1, # of connection points: 2
#     Edge 34, Type (0, 1), BuildingBlock: KIFKEQ_clean_linker_1, # of connection points: 2
#     Edge 35, Type (0, 1), BuildingBlock: KIFKEQ_clean_linker_1, # of connection points: 2
# Relax obj value: 0.003
# Max RMSD: 0.062
# Mean RMSD: 0.050
data_MOF--net-hwx--node1-IZENUY_clean_sbu_0--node2-PAMTOO_clean_linker_0--edge1-KIFKEQ_clean_linker_1
_symmetry_space_group_name_H-M    P1
_symmetry_Int_Tables_number       1
_symmetry_cell_setting            triclinic
loop_
_symmetry_equiv_pos_as_xyz
'x, y, z'
_cell_length_a     51.822072
_cell_length_b     51.869067
_cell_length_c     21.116821
_cell_angle_alpha  88.358516
_cell_angle_beta   91.723606
_cell_angle_gamma 89.838461
loop_
_atom_site_label
_atom_site_type_symbol
_atom_site_fract_x
_atom_site_fract_y
_atom_site_fract_z
_atom_type_partial_charge
Fe0 Fe 0.24752 0.24331 0.08391 0.0
Fe1 Fe 0.24386 0.24572 0.93824 0.0
O2 O 0.23437 0.23182 0.01158 0.0
Fe3 Fe 0.21157 0.20637 0.01243 0.0
O4 O 0.18918 0.22521 0.0569 0.0
O5 O 0.21792 0.23792 0.1281 0.0
O6 O 0.23578 0.27577 0.06636 0.0
C7 C 0.24073 0.28906 0.01731 0.0
C8 C 0.24699 0.19152 0.11184 0.0
O9 O 0.24851 0.27839 0.96812 0.0
C10 C 0.24126 0.19214 0.91457 0.0
O11 O 0.27944 0.25074 0.05239 0.0
O12 O 0.27745 0.23731 0.95451 0.0
O13 O 0.22495 0.19024 0.08467 0.0
O14 O 0.26031 0.21175 0.10735 0.0
C15 C 0.19226 0.2396 0.91301 0.0
O16 O 0.24112 0.2155 0.89501 0.0
O17 O 0.23254 0.18596 0.96802 0.0
C18 C 0.29048 0.24351 0.00312 0.0
O19 O 0.21087 0.25517 0.91666 0.0
O20 O 0.19385 0.21757 0.94024 0.0
C21 C 0.19462 0.2352 0.10943 0.0
Fe22 Fe 0.26877 0.74304 0.59734 0.0
Fe23 Fe 0.30122 0.70407 0.52713 0.0
O24 O 0.27979 0.73079 0.52543 0.0
Fe25 Fe 0.26939 0.74526 0.45185 0.0
O26 O 0.26717 0.77811 0.48204 0.0
O27 O 0.28243 0.77453 0.58015 0.0
O28 O 0.29852 0.73531 0.64323 0.0
C29 C 0.32132 0.73094 0.62628 0.0
C30 C 0.22424 0.7457 0.51621 0.0
O31 O 0.32539 0.72131 0.57333 0.0
C32 C 0.26929 0.69166 0.42733 0.0
O33 O 0.25435 0.71241 0.61975 0.0
O34 O 0.28793 0.68857 0.59821 0.0
O35 O 0.23571 0.73861 0.46771 0.0
O36 O 0.23695 0.75293 0.56463 0.0
C37 C 0.32041 0.73652 0.42911 0.0
O38 O 0.27862 0.685 0.48117 0.0
O39 O 0.26975 0.71505 0.40826 0.0
C40 C 0.26642 0.69125 0.62422 0.0
O41 O 0.31838 0.71458 0.45631 0.0
O42 O 0.30237 0.75287 0.43086 0.0
C43 C 0.27719 0.78815 0.53096 0.0
Fe44 Fe 0.76556 0.78072 0.93285 0.0
Fe45 Fe 0.77007 0.77796 0.07832 0.0
O46 O 0.77907 0.7921 0.0049 0.0
Fe47 Fe 0.80171 0.81766 0.00367 0.0
O48 O 0.78777 0.83387 0.93215 0.0
O49 O 0.7524 0.81219 0.91051 0.0
O50 O 0.73384 0.77293 0.96554 0.0
C51 C 0.72315 0.78056 0.01495 0.0
C52 C 0.81825 0.78915 0.90563 0.0
O53 O 0.73651 0.78649 0.0632 0.0
C54 C 0.82171 0.78417 0.10177 0.0
O55 O 0.77778 0.74846 0.94952 0.0
O56 O 0.7654 0.74529 0.04796 0.0
O57 O 0.8239 0.79904 0.95815 0.0
O58 O 0.79487 0.78647 0.88752 0.0
C59 C 0.77258 0.83147 0.10288 0.0
O60 O 0.80314 0.76855 0.09852 0.0
O61 O 0.81989 0.8063 0.07508 0.0
C62 C 0.77346 0.73496 0.99857 0.0
O63 O 0.77297 0.80807 0.12211 0.0
O64 O 0.78094 0.83782 0.04917 0.0
C65 C 0.76555 0.83252 0.90593 0.0
Fe66 Fe 0.70976 0.31544 0.49769 0.0
Fe67 Fe 0.748 0.27906 0.56991 0.0
O68 O 0.73422 0.29146 0.49747 0.0
Fe69 Fe 0.74485 0.27997 0.42456 0.0
O70 O 0.73978 0.31069 0.38093 0.0
O71 O 0.72937 0.3382 0.45315 0.0
O72 O 0.72192 0.3306 0.57012 0.0
C73 C 0.74404 0.3302 0.59722 0.0
C74 C 0.69298 0.28312 0.39873 0.0
O75 O 0.75873 0.31092 0.59293 0.0
C76 C 0.7442 0.2347 0.50286 0.0
O77 O 0.68864 0.29426 0.54207 0.0
O78 O 0.71805 0.28173 0.61382 0.0
O79 O 0.71267 0.26872 0.40276 0.0
O80 O 0.69298 0.30468 0.4254 0.0
C81 C 0.79099 0.2839 0.49024 0.0
O82 O 0.73829 0.24629 0.55216 0.0
O83 O 0.752 0.24717 0.45479 0.0
C84 C 0.69462 0.28358 0.59496 0.0
O85 O 0.78039 0.27423 0.53874 0.0
O86 O 0.77763 0.29051 0.44148 0.0
C87 C 0.73858 0.33359 0.39996 0.0
H88 H 0.23002 0.59753 0.02746 0.0
H89 H 0.23456 0.52508 0.93441 0.0
H90 H 0.23303 0.52632 0.13769 0.0
H91 H 0.26598 0.48599 0.09383 0.0
C92 C 0.25728 0.4831 0.0458 0.0
O93 O 0.23435 0.49666 0.03919 0.0
H94 H 0.27104 0.49045 0.01006 0.0
C95 C 0.23041 0.57661 0.03014 0.0
C96 C 0.2312 0.56373 0.08958 0.0
C97 C 0.23176 0.56292 0.97406 0.0
C98 C 0.23344 0.5359 0.97739 0.0
C99 C 0.23355 0.52274 0.03636 0.0
C100 C 0.2326 0.53664 0.09232 0.0
H101 H 0.915 0.75817 0.51608 0.0
H102 H 0.98685 0.75278 0.42056 0.0
H103 H 0.98653 0.75096 0.62438 0.0
H104 H 0.02799 0.78244 0.56891 0.0
C105 C 0.03078 0.77189 0.52446 0.0
O106 O 0.01573 0.74998 0.52461 0.0
H107 H 0.02474 0.78498 0.48394 0.0
C108 C 0.93584 0.75592 0.51808 0.0
C109 C 0.94897 0.754 0.57707 0.0
C110 C 0.94928 0.75562 0.46154 0.0
C111 C 0.97621 0.75285 0.46397 0.0
C112 C 0.98965 0.75141 0.52268 0.0
C113 C 0.97604 0.75203 0.5792 0.0
H114 H 0.77376 0.4267 0.00051 0.0
H115 H 0.7722 0.50029 0.08856 0.0
H116 H 0.77762 0.49681 0.8864 0.0
H117 H 0.81118 0.5359 0.94913 0.0
C118 C 0.79844 0.54101 0.98842 0.0
O119 O 0.77562 0.52747 0.98262 0.0
H120 H 0.80852 0.53567 0.03421 0.0
C121 C 0.7747 0.44756 0.99634 0.0
C122 C 0.776 0.45972 0.93618 0.0
C123 C 0.77343 0.46194 0.05143 0.0
C124 C 0.77323 0.48894 0.04641 0.0
C125 C 0.77508 0.50142 0.98694 0.0
C126 C 0.7763 0.48687 0.932 0.0
H127 H 0.09796 0.26416 0.49946 0.0
H128 H 0.0263 0.27229 0.59475 0.0
H129 H 0.02681 0.27409 0.39092 0.0
H130 H 0.99128 0.31108 0.44253 0.0
C131 C 0.98595 0.30062 0.48698 0.0
O132 O 0.99766 0.27668 0.49019 0.0
H133 H 0.99279 0.31226 0.52765 0.0
C134 C 0.07719 0.26704 0.49748 0.0
C135 C 0.06415 0.26948 0.43848 0.0
C136 C 0.06377 0.26784 0.55399 0.0
C137 C 0.03693 0.27167 0.55141 0.0
C138 C 0.02362 0.27387 0.49256 0.0
C139 C 0.0372 0.27247 0.43617 0.0
H140 H 0.73243 0.92638 0.49727 0.0
H141 H 0.73564 0.99886 0.59076 0.0
H142 H 0.73724 0.99748 0.38753 0.0
H143 H 0.77111 0.03688 0.44513 0.0
C144 C 0.76028 0.04034 0.4888 0.0
O145 O 0.73719 0.02718 0.48627 0.0
H146 H 0.77234 0.03314 0.53017 0.0
C147 C 0.73287 0.94729 0.49449 0.0
C148 C 0.7345 0.9601 0.43523 0.0
C149 C 0.73346 0.96105 0.55066 0.0
C150 C 0.7351 0.98802 0.54762 0.0
C151 C 0.73617 1.00113 0.48879 0.0
C152 C 0.73609 0.98719 0.43272 0.0
H153 H 0.59937 0.2527 0.98999 0.0
H154 H 0.52741 0.25005 0.08612 0.0
H155 H 0.52785 0.24511 0.88311 0.0
H156 H 0.48601 0.27613 0.92454 0.0
C157 C 0.48368 0.26817 0.97348 0.0
O158 O 0.49857 0.24616 0.98242 0.0
H159 H 0.4903 0.28299 0.00742 0.0
C160 C 0.57853 0.25072 0.98837 0.0
C161 C 0.56538 0.24828 0.92983 0.0
C162 C 0.56505 0.25141 0.04479 0.0
C163 C 0.53806 0.24927 0.04282 0.0
C164 C 0.52466 0.24715 0.98444 0.0
C165 C 0.53832 0.24664 0.92803 0.0
H166 H 0.27933 0.09711 0.52092 0.0
H167 H 0.27709 0.02454 0.42763 0.0
H168 H 0.27795 0.02594 0.63115 0.0
H169 H 0.31344 0.98801 0.57447 0.0
C170 C 0.30108 0.98232 0.53319 0.0
O171 O 0.27826 0.99618 0.53275 0.0
H172 H 0.31157 0.9868 0.48905 0.0
C173 C 0.27938 0.0762 0.52369 0.0
C174 C 0.27879 0.06334 0.58306 0.0
C175 C 0.27858 0.06243 0.46754 0.0
C176 C 0.27769 0.0354 0.47073 0.0
C177 C 0.27805 0.02226 0.5298 0.0
C178 C 0.27816 0.03623 0.58579 0.0
H179 H 0.41888 0.74624 0.0359 0.0
H180 H 0.48946 0.75781 0.93635 0.0
H181 H 0.48867 0.76559 0.13852 0.0
H182 H 0.52296 0.80279 0.07397 0.0
C183 C 0.52797 0.79131 0.03233 0.0
O184 O 0.51758 0.76694 0.03831 0.0
H185 H 0.51976 0.80137 0.98896 0.0
C186 C 0.43934 0.75059 0.03607 0.0
C187 C 0.45211 0.75571 0.09372 0.0
C188 C 0.45247 0.75129 0.97885 0.0
C189 C 0.47884 0.75753 0.97979 0.0
C190 C 0.49185 0.76269 0.03732 0.0
C191 C 0.47844 0.76198 0.09417 0.0
H192 H 0.19978 0.25185 0.23036 0.0
H193 H 0.14209 0.23386 0.08634 0.0
H194 H 0.16606 0.26223 0.30248 0.0
H195 H 0.10806 0.24503 0.15867 0.0
H196 H 0.05822 0.23628 0.3409 0.0
H197 H 0.08837 0.22955 0.25566 0.0
H198 H 0.13398 0.29388 0.32029 0.0
H199 H 0.10439 0.29982 0.40625 0.0
C200 C 0.17987 0.25031 0.21379 0.0
C201 C 0.1737 0.24196 0.15248 0.0
C202 C 0.16046 0.25651 0.25511 0.0
C203 C 0.13428 0.25474 0.23627 0.0
C204 C 0.12802 0.24645 0.17486 0.0
C205 C 0.14753 0.24013 0.13336 0.0
C206 C 0.07444 0.24923 0.33578 0.0
C207 C 0.07921 0.26839 0.38022 0.0
C208 C 0.09171 0.24543 0.28705 0.0
C209 C 0.1139 0.26087 0.28182 0.0
C210 C 0.11751 0.28117 0.32392 0.0
C211 C 0.10048 0.28475 0.37282 0.0
H212 H 0.2775 0.63992 0.62103 0.0
H213 H 0.23499 0.69561 0.72497 0.0
H214 H 0.26557 0.60605 0.69682 0.0
H215 H 0.22423 0.66226 0.8028 0.0
H216 H 0.19649 0.59698 0.92273 0.0
H217 H 0.20131 0.62558 0.83009 0.0
H218 H 0.27612 0.5916 0.79932 0.0
H219 H 0.27028 0.56212 0.88967 0.0
C220 C 0.26559 0.64489 0.66019 0.0
C221 C 0.2573 0.67043 0.66727 0.0
C222 C 0.25887 0.62551 0.70399 0.0
C223 C 0.2441 0.63128 0.75667 0.0
C224 C 0.23523 0.6568 0.76251 0.0
C225 C 0.24155 0.67607 0.71802 0.0
C226 C 0.21365 0.59535 0.895 0.0
C227 C 0.233 0.57741 0.91294 0.0
C228 C 0.21661 0.61191 0.84235 0.0
C229 C 0.2393 0.61132 0.80735 0.0
C230 C 0.2582 0.59252 0.82419 0.0
C231 C 0.25496 0.57562 0.87613 0.0
H232 H 0.86158 0.81612 0.13296 0.0
H233 H 0.83285 0.73901 0.16841 0.0
H234 H 0.89592 0.80853 0.21253 0.0
H235 H 0.86744 0.73153 0.24832 0.0
H236 H 0.94533 0.72334 0.36146 0.0
H237 H 0.91717 0.72902 0.26602 0.0
H238 H 0.89258 0.80304 0.33149 0.0
H239 H 0.92032 0.79719 0.42625 0.0
C240 C 0.86273 0.79743 0.15712 0.0
C241 C 0.84419 0.7783 0.14492 0.0
C242 C 0.88241 0.79313 0.20277 0.0
C243 C 0.8842 0.76954 0.23689 0.0
C244 C 0.86658 0.74986 0.22243 0.0
C245 C 0.84669 0.75422 0.177 0.0
C246 C 0.93414 0.74092 0.35457 0.0
C247 C 0.93486 0.75985 0.40076 0.0
C248 C 0.91797 0.7441 0.30045 0.0
C249 C 0.90275 0.76648 0.29141 0.0
C250 C 0.90429 0.78573 0.33681 0.0
C251 C 0.92005 0.78237 0.39108 0.0
H252 H 0.71316 0.36876 0.63752 0.0
H253 H 0.79135 0.33965 0.654 0.0
H254 H 0.72381 0.40182 0.71269 0.0
H255 H 0.8024 0.37359 0.72776 0.0
H256 H 0.80112 0.41392 0.9197 0.0
H257 H 0.79524 0.38446 0.83326 0.0
H258 H 0.74592 0.44036 0.7332 0.0
H259 H 0.75044 0.46917 0.82195 0.0
C260 C 0.73278 0.36963 0.6565 0.0
C261 C 0.75134 0.35135 0.64007 0.0
C262 C 0.73898 0.38883 0.69937 0.0
C263 C 0.76401 0.39052 0.72659 0.0
C264 C 0.78281 0.37268 0.70867 0.0
C265 C 0.77652 0.35326 0.66614 0.0
C266 C 0.78897 0.41995 0.87931 0.0
C267 C 0.77584 0.44376 0.87852 0.0
C268 C 0.78588 0.40314 0.82912 0.0
C269 C 0.76982 0.40978 0.77626 0.0
C270 C 0.75797 0.43429 0.7737 0.0
C271 C 0.76087 0.45103 0.82428 0.0
H272 H 0.68487 0.23849 0.33381 0.0
H273 H 0.6513 0.31331 0.36504 0.0
H274 H 0.65056 0.23011 0.25488 0.0
H275 H 0.6173 0.30486 0.28647 0.0
H276 H 0.5912 0.29443 0.07511 0.0
H277 H 0.6196 0.30095 0.16764 0.0
H278 H 0.60106 0.22473 0.24015 0.0
H279 H 0.57224 0.21841 0.14708 0.0
C280 C 0.67008 0.25301 0.3244 0.0
C281 C 0.67106 0.2767 0.35521 0.0
C282 C 0.65036 0.24813 0.27954 0.0
C283 C 0.6314 0.26692 0.2643 0.0
C284 C 0.63183 0.29015 0.29682 0.0
C285 C 0.65133 0.29493 0.34193 0.0
C286 C 0.59288 0.2793 0.11149 0.0
C287 C 0.57955 0.25602 0.10458 0.0
C288 C 0.60905 0.283 0.1644 0.0
C289 C 0.61252 0.26334 0.21107 0.0
C290 C 0.59879 0.24015 0.20471 0.0
C291 C 0.58222 0.2366 0.15199 0.0
H292 H 0.25858 0.19846 0.79438 0.0
H293 H 0.2423 0.13963 0.93664 0.0
H294 H 0.27019 0.16539 0.72136 0.0
H295 H 0.25457 0.10636 0.86347 0.0
H296 H 0.2454 0.05755 0.68024 0.0
H297 H 0.23855 0.08735 0.76582 0.0
H298 H 0.30249 0.1336 0.70205 0.0
H299 H 0.3089 0.1041 0.61603 0.0
C300 C 0.25768 0.17846 0.81037 0.0
C301 C 0.24936 0.17175 0.87138 0.0
C302 C 0.26458 0.15944 0.76854 0.0
C303 C 0.26346 0.13317 0.78656 0.0
C304 C 0.25544 0.1264 0.84787 0.0
C305 C 0.2485 0.14549 0.88987 0.0
C306 C 0.2583 0.07379 0.68549 0.0
C307 C 0.27749 0.07869 0.64113 0.0
C308 C 0.2544 0.09088 0.73449 0.0
C309 C 0.2697 0.11313 0.74021 0.0
C310 C 0.28993 0.11703 0.69809 0.0
C311 C 0.29371 0.10008 0.64902 0.0
H312 H 0.33002 0.77903 0.35227 0.0
H313 H 0.3622 0.70535 0.41519 0.0
H314 H 0.36544 0.78473 0.27908 0.0
H315 H 0.39742 0.71121 0.3428 0.0
H316 H 0.44363 0.79269 0.1809 0.0
H317 H 0.41411 0.7898 0.26999 0.0
H318 H 0.39781 0.71058 0.22569 0.0
H319 H 0.42703 0.71359 0.13755 0.0
C320 C 0.34475 0.76422 0.35111 0.0
C321 C 0.34298 0.74154 0.3889 0.0
C322 C 0.36514 0.76758 0.30951 0.0
C323 C 0.38408 0.7483 0.3048 0.0
C324 C 0.38291 0.72623 0.34467 0.0
C325 C 0.36268 0.7229 0.38622 0.0
C326 C 0.43406 0.77459 0.19136 0.0
C327 C 0.43755 0.75333 0.15278 0.0
C328 C 0.41704 0.77299 0.24176 0.0
C329 C 0.40363 0.74997 0.25479 0.0
C330 C 0.40804 0.72849 0.21743 0.0
C331 C 0.4247 0.7302 0.16688 0.0
H332 H 0.73311 0.82924 0.80237 0.0
H333 H 0.77824 0.8834 0.91021 0.0
H334 H 0.72285 0.86281 0.72305 0.0
H335 H 0.76671 0.91762 0.83297 0.0
H336 H 0.77198 0.96077 0.64038 0.0
H337 H 0.77708 0.93147 0.73211 0.0
H338 H 0.70125 0.90008 0.69138 0.0
H339 H 0.69724 0.92839 0.59721 0.0
C340 C 0.74031 0.84854 0.80984 0.0
C341 C 0.75668 0.85365 0.8621 0.0
C342 C 0.73428 0.86794 0.76449 0.0
C343 C 0.74403 0.89311 0.77098 0.0
C344 C 0.75935 0.89842 0.82525 0.0
C345 C 0.76583 0.87885 0.86987 0.0
C346 C 0.7563 0.94787 0.65199 0.0
C347 C 0.73428 0.94669 0.61206 0.0
C348 C 0.7591 0.93109 0.70475 0.0
C349 C 0.73968 0.91306 0.71931 0.0
C350 C 0.71694 0.91313 0.68101 0.0
C351 C 0.71443 0.92952 0.62748 0.0
H352 H 0.81294 0.77239 0.78463 0.0
H353 H 0.87077 0.79043 0.92825 0.0
H354 H 0.84664 0.76177 0.71247 0.0
H355 H 0.90472 0.77906 0.85603 0.0
H356 H 0.95484 0.78725 0.6746 0.0
H357 H 0.92451 0.79428 0.75924 0.0
H358 H 0.87875 0.73006 0.69472 0.0
H359 H 0.90858 0.72374 0.60942 0.0
C360 C 0.83287 0.77392 0.80108 0.0
C361 C 0.83909 0.78235 0.86229 0.0
C362 C 0.85226 0.76759 0.75975 0.0
C363 C 0.87847 0.76931 0.77852 0.0
C364 C 0.88476 0.77769 0.83984 0.0
C365 C 0.86528 0.78413 0.88129 0.0
C366 C 0.93857 0.77436 0.67964 0.0
C367 C 0.93386 0.75512 0.63536 0.0
C368 C 0.92118 0.77835 0.72802 0.0
C369 C 0.89889 0.76304 0.7331 0.0
C370 C 0.89529 0.74267 0.6912 0.0
C371 C 0.91248 0.73887 0.64269 0.0
H372 H 0.73335 0.38607 0.41441 0.0
H373 H 0.76048 0.32941 0.28548 0.0
H374 H 0.74466 0.42055 0.33838 0.0
H375 H 0.77108 0.36337 0.2101 0.0
H376 H 0.80684 0.42602 0.1011 0.0
H377 H 0.80109 0.39782 0.19389 0.0
H378 H 0.73016 0.43764 0.23267 0.0
H379 H 0.73656 0.46649 0.14046 0.0
C380 C 0.74176 0.38096 0.37012 0.0
C381 C 0.74592 0.35495 0.35602 0.0
C382 C 0.74814 0.40069 0.32653 0.0
C383 C 0.75897 0.39475 0.26836 0.0
C384 C 0.7633 0.36875 0.25491 0.0
C385 C 0.75694 0.34918 0.29808 0.0
C386 C 0.79031 0.42902 0.13031 0.0
C387 C 0.77199 0.44816 0.11351 0.0
C388 C 0.78691 0.41282 0.18318 0.0
C389 C 0.76487 0.41511 0.21992 0.0
C390 C 0.74738 0.43541 0.20551 0.0
C391 C 0.75098 0.45188 0.15275 0.0
H392 H 0.15212 0.20785 0.88267 0.0
H393 H 0.18164 0.28442 0.8442 0.0
H394 H 0.11773 0.21534 0.80325 0.0
H395 H 0.14697 0.29181 0.76437 0.0
H396 H 0.09184 0.22576 0.59046 0.0
H397 H 0.12006 0.22002 0.68441 0.0
H398 H 0.0974 0.29503 0.74756 0.0
H399 H 0.06878 0.3006 0.65294 0.0
C400 C 0.15116 0.2264 0.8578 0.0
C401 C 0.16991 0.24542 0.86928 0.0
C402 C 0.13143 0.23064 0.81221 0.0
C403 C 0.12979 0.25406 0.77732 0.0
C404 C 0.14769 0.27361 0.79085 0.0
C405 C 0.16764 0.2693 0.83625 0.0
C406 C 0.0926 0.24081 0.62501 0.0
C407 C 0.07818 0.26356 0.61486 0.0
C408 C 0.10866 0.23753 0.67882 0.0
C409 C 0.11093 0.25709 0.7233 0.0
C410 C 0.09607 0.2797 0.71385 0.0
C411 C 0.07961 0.28281 0.66022 0.0
H412 H 0.25101 0.69858 0.30531 0.0
H413 H 0.26737 0.63922 0.44887 0.0
H414 H 0.23894 0.6658 0.23027 0.0
H415 H 0.25467 0.6063 0.37375 0.0
H416 H 0.26441 0.55786 0.19203 0.0
H417 H 0.27094 0.58756 0.27872 0.0
H418 H 0.20692 0.63406 0.20499 0.0
H419 H 0.20078 0.6046 0.1179 0.0
C420 C 0.25177 0.67854 0.32116 0.0
C421 C 0.26035 0.67158 0.3831 0.0
C422 C 0.24464 0.6597 0.27815 0.0
C423 C 0.24577 0.63336 0.29593 0.0
C424 C 0.25383 0.62638 0.35828 0.0
C425 C 0.26101 0.64528 0.40141 0.0
C426 C 0.25139 0.57411 0.19528 0.0
C427 C 0.23226 0.57906 0.14791 0.0
C428 C 0.25512 0.59116 0.24493 0.0
C429 C 0.23969 0.61343 0.24834 0.0
C430 C 0.21955 0.61745 0.20299 0.0
C431 C 0.21593 0.60051 0.15327 0.0
H432 H 0.3735 0.73196 0.60518 0.0
H433 H 0.31797 0.73686 0.75322 0.0
H434 H 0.40878 0.73553 0.68497 0.0
H435 H 0.35294 0.74003 0.83177 0.0
H436 H 0.41865 0.71208 0.95949 0.0
H437 H 0.38914 0.70668 0.86892 0.0
H438 H 0.42429 0.77121 0.77155 0.0
H439 H 0.45372 0.77711 0.8634 0.0
C440 C 0.36883 0.73381 0.6545 0.0
C441 C 0.34294 0.73402 0.67289 0.0
C442 C 0.38898 0.73593 0.69992 0.0
C443 C 0.38349 0.73777 0.76436 0.0
C444 C 0.35767 0.7383 0.78242 0.0
C445 C 0.33764 0.73662 0.73728 0.0
C446 C 0.42026 0.72503 0.91865 0.0
C447 C 0.43811 0.74539 0.9191 0.0
C448 C 0.40343 0.72187 0.8668 0.0
C449 C 0.40425 0.73877 0.81387 0.0
C450 C 0.42334 0.75794 0.81195 0.0
C451 C 0.44016 0.76127 0.86436 0.0
H452 H 0.77191 0.88403 0.08193 0.0
H453 H 0.7551 0.82489 0.22296 0.0
H454 H 0.75976 0.91714 0.15558 0.0
H455 H 0.74353 0.85784 0.29649 0.0
H456 H 0.70435 0.91949 0.40096 0.0
H457 H 0.71116 0.88991 0.31532 0.0
H458 H 0.77582 0.93571 0.25409 0.0
H459 H 0.76868 0.96553 0.33946 0.0
C460 C 0.76562 0.87806 0.12854 0.0
C461 C 0.76459 0.85175 0.14654 0.0
C462 C 0.75875 0.89707 0.17083 0.0
C463 C 0.75059 0.89019 0.23193 0.0
C464 C 0.74929 0.86387 0.24948 0.0
C465 C 0.75615 0.84492 0.20738 0.0
C466 C 0.71982 0.92339 0.36868 0.0
C467 C 0.73613 0.94468 0.37726 0.0
C468 C 0.72381 0.90638 0.3198 0.0
C469 C 0.74431 0.91017 0.27844 0.0
C470 C 0.75975 0.93228 0.28484 0.0
C471 C 0.75567 0.9494 0.33371 0.0
H472 H 0.64212 0.28332 0.57176 0.0
H473 H 0.70048 0.26561 0.7172 0.0
H474 H 0.60852 0.2712 0.64561 0.0
H475 H 0.66713 0.25434 0.79094 0.0
H476 H 0.60599 0.21771 0.90295 0.0
H477 H 0.63539 0.22311 0.81561 0.0
H478 H 0.58888 0.2867 0.73945 0.0
H479 H 0.55897 0.28051 0.82602 0.0
C480 C 0.6478 0.27685 0.61939 0.0
C481 C 0.67403 0.27551 0.63854 0.0
C482 C 0.62852 0.27 0.66179 0.0
C483 C 0.63506 0.26168 0.72425 0.0
C484 C 0.66132 0.26012 0.74293 0.0
C485 C 0.68051 0.26683 0.70064 0.0
C486 C 0.60184 0.23249 0.86673 0.0
C487 C 0.58037 0.2488 0.87125 0.0
C488 C 0.61876 0.23575 0.81699 0.0
C489 C 0.61483 0.25569 0.7711 0.0
C490 C 0.59246 0.27106 0.77368 0.0
C491 C 0.57532 0.26756 0.82322 0.0
H492 H 0.27963 0.19442 0.21534 0.0
H493 H 0.23313 0.1409 0.10896 0.0
H494 H 0.28939 0.16083 0.29506 0.0
H495 H 0.24407 0.10668 0.18666 0.0
H496 H 0.23931 0.06345 0.37948 0.0
H497 H 0.23399 0.09302 0.28815 0.0
H498 H 0.31057 0.12314 0.32594 0.0
H499 H 0.31485 0.09457 0.41955 0.0
C500 C 0.27199 0.17526 0.20829 0.0
C501 C 0.25543 0.17035 0.15623 0.0
C502 C 0.27771 0.15584 0.25389 0.0
C503 C 0.26746 0.13085 0.2479 0.0
C504 C 0.25185 0.12574 0.19399 0.0
C505 C 0.24571 0.14532 0.14908 0.0
C506 C 0.25509 0.07613 0.36728 0.0
C507 C 0.27744 0.07685 0.40618 0.0
C508 C 0.25216 0.09308 0.31478 0.0
C509 C 0.27175 0.11083 0.29952 0.0
C510 C 0.29476 0.11033 0.33685 0.0
C511 C 0.29742 0.09376 0.39004 0.0
H512 H 0.23341 0.31902 0.12027 0.0
H513 H 0.24711 0.32397 0.91945 0.0
H514 H 0.236 0.36579 0.12521 0.0
H515 H 0.24893 0.37079 0.92403 0.0
H516 H 0.28291 0.44971 0.97106 0.0
H517 H 0.27724 0.40324 0.96327 0.0
H518 H 0.21541 0.40586 0.09592 0.0
H519 H 0.22183 0.45235 0.10502 0.0
C520 C 0.23665 0.33009 0.07697 0.0
C521 C 0.24026 0.31766 0.01954 0.0
C522 C 0.238 0.35698 0.07974 0.0
C523 C 0.24284 0.37216 0.02509 0.0
C524 C 0.24569 0.35974 0.96733 0.0
C525 C 0.24448 0.33285 0.96462 0.0
C526 C 0.26797 0.44034 0.99807 0.0
C527 C 0.25255 0.45465 0.03795 0.0
C528 C 0.2646 0.41372 0.99341 0.0
C529 C 0.24575 0.40071 0.02867 0.0
C530 C 0.23027 0.41513 0.0685 0.0
C531 C 0.23375 0.44178 0.07333 0.0
H532 H 0.19395 0.76123 0.61157 0.0
H533 H 0.18956 0.73414 0.41987 0.0
H534 H 0.14729 0.76515 0.61134 0.0
H535 H 0.14249 0.7376 0.42023 0.0
H536 H 0.06248 0.77878 0.42331 0.0
H537 H 0.10888 0.77048 0.41984 0.0
H538 H 0.10838 0.73986 0.61234 0.0
H539 H 0.06206 0.74884 0.61587 0.0
C540 C 0.18304 0.75596 0.56937 0.0
C541 C 0.19561 0.74749 0.51558 0.0
C542 C 0.15617 0.758 0.56949 0.0
C543 C 0.14105 0.75158 0.51589 0.0
C544 C 0.15356 0.74294 0.46212 0.0
C545 C 0.18054 0.74086 0.46199 0.0
C546 C 0.07235 0.77015 0.46464 0.0
C547 C 0.05888 0.76478 0.52022 0.0
C548 C 0.09887 0.76522 0.46258 0.0
C549 C 0.11245 0.75472 0.51602 0.0
C550 C 0.09865 0.74842 0.57075 0.0
C551 C 0.07215 0.75339 0.57277 0.0
H552 H 0.7836 0.70586 0.89611 0.0
H553 H 0.7698 0.69951 0.09675 0.0
H554 H 0.78826 0.65927 0.8926 0.0
H555 H 0.77525 0.65286 0.09361 0.0
H556 H 0.7626 0.56751 0.05456 0.0
H557 H 0.7556 0.61415 0.05628 0.0
H558 H 0.81742 0.62555 0.92548 0.0
H559 H 0.82366 0.57899 0.92243 0.0
C560 C 0.78167 0.69455 0.93961 0.0
C561 C 0.77629 0.7065 0.99673 0.0
C562 C 0.7845 0.66778 0.93766 0.0
C563 C 0.78221 0.65221 0.99284 0.0
C564 C 0.77677 0.66416 0.04997 0.0
C565 C 0.77379 0.69096 0.05187 0.0
C566 C 0.77437 0.58007 0.02554 0.0
C567 C 0.79324 0.56966 0.98721 0.0
C568 C 0.77059 0.60679 0.027 0.0
C569 C 0.78587 0.6237 0.9908 0.0
C570 C 0.80492 0.61316 0.95295 0.0
C571 C 0.80858 0.58648 0.9513 0.0
H572 H 0.82065 0.30475 0.39649 0.0
H573 H 0.82615 0.26752 0.58219 0.0
H574 H 0.86753 0.30836 0.39601 0.0
H575 H 0.87299 0.2706 0.58098 0.0
H576 H 0.95392 0.30606 0.58689 0.0
H577 H 0.90696 0.30192 0.58736 0.0
H578 H 0.90631 0.28271 0.38945 0.0
H579 H 0.95329 0.28756 0.38912 0.0
C580 C 0.83184 0.29718 0.43705 0.0
C581 C 0.81956 0.28584 0.48937 0.0
C582 C 0.85877 0.29912 0.43661 0.0
C583 C 0.8741 0.28976 0.48844 0.0
C584 C 0.86181 0.27835 0.54063 0.0
C585 C 0.8349 0.27645 0.54114 0.0
C586 C 0.94364 0.30104 0.54357 0.0
C587 C 0.95706 0.29753 0.48769 0.0
C588 C 0.91678 0.29847 0.54384 0.0
C589 C 0.90277 0.2921 0.48833 0.0
C590 C 0.91639 0.28811 0.43273 0.0
C591 C 0.94326 0.29073 0.4325 0.0
H592 H 0.73145 0.20021 0.59843 0.0
H593 H 0.75721 0.2042 0.4056 0.0
H594 H 0.73278 0.15309 0.59649 0.0
H595 H 0.75907 0.1575 0.40427 0.0
H596 H 0.73904 0.07312 0.39815 0.0
H597 H 0.73244 0.11973 0.40295 0.0
H598 H 0.76404 0.11815 0.59482 0.0
H599 H 0.76991 0.07145 0.59013 0.0
C600 C 0.73739 0.19109 0.5557 0.0
C601 C 0.7443 0.20606 0.50228 0.0
C602 C 0.73828 0.16408 0.55468 0.0
C603 C 0.746 0.15145 0.50017 0.0
C604 C 0.75262 0.16649 0.44671 0.0
C605 C 0.75174 0.19337 0.4477 0.0
C606 C 0.74438 0.08283 0.44134 0.0
C607 C 0.75523 0.06884 0.49343 0.0
C608 C 0.74075 0.1095 0.44411 0.0
C609 C 0.74794 0.12278 0.4991 0.0
C610 C 0.75809 0.10856 0.55193 0.0
C611 C 0.76164 0.08186 0.54914 0.0
H612 H 0.32079 0.23704 0.90041 0.0
H613 H 0.32501 0.25262 0.1004 0.0
H614 H 0.36748 0.24148 0.89554 0.0
H615 H 0.37173 0.25631 0.0959 0.0
H616 H 0.4493 0.29298 0.04705 0.0
H617 H 0.40308 0.28554 0.05512 0.0
H618 H 0.40831 0.22245 0.92664 0.0
H619 H 0.45456 0.23061 0.91729 0.0
C620 C 0.33168 0.24115 0.94351 0.0
C621 C 0.31906 0.24469 0.00069 0.0
C622 C 0.35853 0.24354 0.9408 0.0
C623 C 0.37345 0.24939 0.99527 0.0
C624 C 0.36085 0.25228 0.05275 0.0
C625 C 0.33402 0.25003 0.05539 0.0
C626 C 0.44058 0.27736 0.0211 0.0
C627 C 0.45553 0.26213 0.98223 0.0
C628 C 0.41409 0.27299 0.02589 0.0
C629 C 0.40189 0.2533 0.99177 0.0
C630 C 0.41697 0.23794 0.95312 0.0
C631 C 0.44348 0.24241 0.94818 0.0
H632 H 0.27182 0.82315 0.43194 0.0
H633 H 0.29021 0.81759 0.63283 0.0
H634 H 0.27703 0.86975 0.43385 0.0
H635 H 0.29463 0.86428 0.63515 0.0
H636 H 0.32784 0.94517 0.60251 0.0
H637 H 0.32217 0.89851 0.60209 0.0
H638 H 0.25753 0.90823 0.46921 0.0
H639 H 0.26396 0.95491 0.46821 0.0
C640 C 0.27683 0.83187 0.47664 0.0
C641 C 0.28059 0.81656 0.53222 0.0
C642 C 0.27964 0.85867 0.47783 0.0
C643 C 0.28616 0.87091 0.53471 0.0
C644 C 0.28994 0.85556 0.59029 0.0
C645 C 0.28728 0.82874 0.58903 0.0
C646 C 0.31224 0.93729 0.57383 0.0
C647 C 0.29596 0.95368 0.53653 0.0
C648 C 0.30892 0.91054 0.57368 0.0
C649 C 0.28929 0.89949 0.53589 0.0
C650 C 0.27301 0.91598 0.49846 0.0
C651 C 0.27645 0.94274 0.4984 0.0
H652 H 0.69379 0.79858 0.10984 0.0
H653 H 0.68763 0.76452 0.92561 0.0
H654 H 0.64697 0.80085 0.11331 0.0
H655 H 0.64069 0.76619 0.92987 0.0
H656 H 0.55838 0.79927 0.92917 0.0
H657 H 0.60537 0.79633 0.92492 0.0
H658 H 0.60941 0.77435 0.12402 0.0
H659 H 0.56242 0.77809 0.12815 0.0
C660 C 0.68246 0.79136 0.07025 0.0
C661 C 0.69455 0.78133 0.01746 0.0
C662 C 0.65555 0.79254 0.07242 0.0
C663 C 0.63997 0.78365 0.02195 0.0
C664 C 0.65205 0.77352 0.96924 0.0
C665 C 0.679 0.77242 0.96696 0.0
C666 C 0.5694 0.79392 0.97195 0.0
C667 C 0.55691 0.78924 0.02922 0.0
C668 C 0.59629 0.79202 0.9695 0.0
C669 C 0.61127 0.78519 0.02419 0.0
C670 C 0.59859 0.78011 0.08125 0.0
C671 C 0.57171 0.78211 0.08367 0.0
loop_
_geom_bond_atom_site_label_1
_geom_bond_atom_site_label_2
_geom_bond_distance
_geom_bond_site_symmetry_2
_ccdc_geom_bond_type
Fe0 O2 1.918 . S
Fe0 O5 1.997 . S
Fe0 O6 2.002 . S
Fe0 O11 1.976 . S
Fe0 O14 1.996 . S
Fe1 O2 1.918 1_556 S
Fe1 O9 1.997 . S
Fe1 O12 1.996 . S
Fe1 O16 1.976 . S
Fe1 O19 2.002 . S
O2 Fe0 1.918 . S
O2 Fe1 1.918 1_554 S
O2 Fe3 1.918 . S
Fe3 O2 1.918 . S
Fe3 O4 2.002 . S
Fe3 O13 1.976 . S
Fe3 O17 1.996 1_554 S
Fe3 O20 1.997 1_554 S
O4 Fe3 2.002 . S
O4 C21 1.295 . S
O5 Fe0 1.997 . S
O5 C21 1.235 . S
O6 Fe0 2.002 . S
O6 C7 1.295 . S
C7 O6 1.295 . S
C7 O9 1.235 1_554 S
C8 O13 1.287 . S
C8 O14 1.255 . S
O9 Fe1 1.997 . S
O9 C7 1.235 1_556 S
C10 O16 1.287 . S
C10 O17 1.255 . S
O11 Fe0 1.976 . S
O11 C18 1.287 . S
O12 Fe1 1.996 . S
O12 C18 1.255 1_556 S
O13 Fe3 1.976 . S
O13 C8 1.287 . S
O14 Fe0 1.996 . S
O14 C8 1.255 . S
C15 O19 1.295 . S
C15 O20 1.235 . S
O16 Fe1 1.976 . S
O16 C10 1.287 . S
O17 Fe3 1.996 1_556 S
O17 C10 1.255 . S
C18 O11 1.287 . S
C18 O12 1.255 1_554 S
O19 Fe1 2.002 . S
O19 C15 1.295 . S
O20 Fe3 1.997 1_556 S
O20 C15 1.235 . S
C21 O4 1.295 . S
C21 O5 1.235 . S
Fe22 O24 1.918 . S
Fe22 O27 1.997 . S
Fe22 O28 2.002 . S
Fe22 O33 1.976 . S
Fe22 O36 1.996 . S
Fe23 O24 1.918 . S
Fe23 O31 1.997 . S
Fe23 O34 1.996 . S
Fe23 O38 1.976 . S
Fe23 O41 2.002 . S
O24 Fe22 1.918 . S
O24 Fe23 1.918 . S
O24 Fe25 1.918 . S
Fe25 O24 1.918 . S
Fe25 O26 2.002 . S
Fe25 O35 1.976 . S
Fe25 O39 1.996 . S
Fe25 O42 1.997 . S
O26 Fe25 2.002 . S
O26 C43 1.295 . S
O27 Fe22 1.997 . S
O27 C43 1.235 . S
O28 Fe22 2.002 . S
O28 C29 1.295 . S
C29 O28 1.295 . S
C29 O31 1.235 . S
C30 O35 1.287 . S
C30 O36 1.255 . S
O31 Fe23 1.997 . S
O31 C29 1.235 . S
C32 O38 1.287 . S
C32 O39 1.255 . S
O33 Fe22 1.976 . S
O33 C40 1.287 . S
O34 Fe23 1.996 . S
O34 C40 1.255 . S
O35 Fe25 1.976 . S
O35 C30 1.287 . S
O36 Fe22 1.996 . S
O36 C30 1.255 . S
C37 O41 1.295 . S
C37 O42 1.235 . S
O38 Fe23 1.976 . S
O38 C32 1.287 . S
O39 Fe25 1.996 . S
O39 C32 1.255 . S
C40 O33 1.287 . S
C40 O34 1.255 . S
O41 Fe23 2.002 . S
O41 C37 1.295 . S
O42 Fe25 1.997 . S
O42 C37 1.235 . S
C43 O26 1.295 . S
C43 O27 1.235 . S
Fe44 O46 1.918 1_556 S
Fe44 O49 1.997 . S
Fe44 O50 2.002 . S
Fe44 O55 1.976 . S
Fe44 O58 1.996 . S
Fe45 O46 1.918 . S
Fe45 O53 1.997 . S
Fe45 O56 1.996 . S
Fe45 O60 1.976 . S
Fe45 O63 2.002 . S
O46 Fe44 1.918 1_554 S
O46 Fe45 1.918 . S
O46 Fe47 1.918 . S
Fe47 O46 1.918 . S
Fe47 O48 2.002 1_554 S
Fe47 O57 1.976 1_554 S
Fe47 O61 1.996 . S
Fe47 O64 1.997 . S
O48 Fe47 2.002 1_556 S
O48 C65 1.295 . S
O49 Fe44 1.997 . S
O49 C65 1.235 . S
O50 Fe44 2.002 . S
O50 C51 1.295 1_556 S
C51 O50 1.295 1_554 S
C51 O53 1.235 . S
C52 O57 1.287 . S
C52 O58 1.255 . S
O53 Fe45 1.997 . S
O53 C51 1.235 . S
C54 O60 1.287 . S
C54 O61 1.255 . S
O55 Fe44 1.976 . S
O55 C62 1.287 1_556 S
O56 Fe45 1.996 . S
O56 C62 1.255 . S
O57 Fe47 1.976 1_556 S
O57 C52 1.287 . S
O58 Fe44 1.996 . S
O58 C52 1.255 . S
C59 O63 1.295 . S
C59 O64 1.235 . S
O60 Fe45 1.976 . S
O60 C54 1.287 . S
O61 Fe47 1.996 . S
O61 C54 1.255 . S
C62 O55 1.287 1_554 S
C62 O56 1.255 . S
O63 Fe45 2.002 . S
O63 C59 1.295 . S
O64 Fe47 1.997 . S
O64 C59 1.235 . S
C65 O48 1.295 . S
C65 O49 1.235 . S
Fe66 O68 1.918 . S
Fe66 O71 1.997 . S
Fe66 O72 2.002 . S
Fe66 O77 1.976 . S
Fe66 O80 1.996 . S
Fe67 O68 1.918 . S
Fe67 O75 1.997 . S
Fe67 O78 1.996 . S
Fe67 O82 1.976 . S
Fe67 O85 2.002 . S
O68 Fe66 1.918 . S
O68 Fe67 1.918 . S
O68 Fe69 1.918 . S
Fe69 O68 1.918 . S
Fe69 O70 2.002 . S
Fe69 O79 1.976 . S
Fe69 O83 1.996 . S
Fe69 O86 1.997 . S
O70 Fe69 2.002 . S
O70 C87 1.295 . S
O71 Fe66 1.997 . S
O71 C87 1.235 . S
O72 Fe66 2.002 . S
O72 C73 1.295 . S
C73 O72 1.295 . S
C73 O75 1.235 . S
C74 O79 1.287 . S
C74 O80 1.255 . S
O75 Fe67 1.997 . S
O75 C73 1.235 . S
C76 O82 1.287 . S
C76 O83 1.255 . S
O77 Fe66 1.976 . S
O77 C84 1.287 . S
O78 Fe67 1.996 . S
O78 C84 1.255 . S
O79 Fe69 1.976 . S
O79 C74 1.287 . S
O80 Fe66 1.996 . S
O80 C74 1.255 . S
C81 O85 1.295 . S
C81 O86 1.235 . S
O82 Fe67 1.976 . S
O82 C76 1.287 . S
O83 Fe69 1.996 . S
O83 C76 1.255 . S
C84 O77 1.287 . S
C84 O78 1.255 . S
O85 Fe67 2.002 . S
O85 C81 1.295 . S
O86 Fe69 1.997 . S
O86 C81 1.235 . S
C87 O70 1.295 . S
C87 O71 1.235 . S
H88 C95 0.929 . S
H89 C98 0.930 . S
H90 C100 0.929 . S
H91 C92 0.969 . S
C92 H91 0.969 . S
C92 O93 1.550 1_556 S
C92 H94 0.973 . S
O93 C92 1.550 1_554 S
O93 C99 1.412 . S
H94 C92 0.973 . S
C95 H88 0.929 . S
C95 C96 1.400 . S
C95 C97 1.364 1_554 S
C96 C95 1.400 . S
C96 C100 1.377 . S
C97 C95 1.364 1_556 S
C97 C98 1.374 . S
C98 H89 0.930 . S
C98 C97 1.374 . S
C98 C99 1.383 1_556 S
C99 O93 1.412 . S
C99 C98 1.383 1_554 S
C99 C100 1.394 . S
C100 H90 0.929 . S
C100 C96 1.377 . S
C100 C99 1.394 . S
H101 C108 0.929 . S
H102 C111 0.930 . S
H103 C113 0.929 . S
H104 C105 0.969 . S
C105 H104 0.969 . S
C105 O106 1.550 . S
C105 H107 0.973 . S
O106 C105 1.550 . S
O106 C112 1.386 1_455 S
H107 C105 0.973 . S
C108 H101 0.929 . S
C108 C109 1.400 . S
C108 C110 1.364 . S
C109 C108 1.400 . S
C109 C113 1.377 . S
C110 C108 1.364 . S
C110 C111 1.374 . S
C111 H102 0.930 . S
C111 C110 1.374 . S
C111 C112 1.395 . S
C112 O106 1.386 1_655 S
C112 C111 1.395 . S
C112 C113 1.413 . S
C113 H103 0.929 . S
C113 C109 1.377 . S
C113 C112 1.413 . S
H114 C121 0.929 . S
H115 C124 0.930 . S
H116 C126 0.929 . S
H117 C118 0.969 . S
C118 H117 0.969 . S
C118 O119 1.550 1_554 S
C118 H120 0.973 . S
O119 C118 1.550 1_556 S
O119 C125 1.412 . S
H120 C118 0.973 . S
C121 H114 0.929 . S
C121 C122 1.400 1_554 S
C121 C123 1.364 . S
C122 C121 1.400 1_556 S
C122 C126 1.377 . S
C123 C121 1.364 . S
C123 C124 1.374 . S
C124 H115 0.930 . S
C124 C123 1.374 . S
C124 C125 1.383 1_554 S
C125 O119 1.412 . S
C125 C124 1.383 1_556 S
C125 C126 1.394 . S
C126 H116 0.929 . S
C126 C122 1.377 . S
C126 C125 1.394 . S
H127 C134 0.929 . S
H128 C137 0.930 1_655 S
H129 C139 0.929 . S
H130 C131 0.969 . S
C131 H130 0.969 . S
C131 O132 1.550 . S
C131 H133 0.973 . S
O132 C131 1.550 . S
O132 C138 1.412 . S
H133 C131 0.973 . S
C134 H127 0.929 . S
C134 C135 1.400 . S
C134 C136 1.364 . S
C135 C134 1.400 . S
C135 C139 1.377 . S
C136 C134 1.364 . S
C136 C137 1.374 . S
C137 H128 0.930 1_455 S
C137 C136 1.374 . S
C137 C138 1.383 1_455 S
C138 O132 1.412 . S
C138 C137 1.383 1_655 S
C138 C139 1.394 1_655 S
C139 H129 0.929 . S
C139 C135 1.377 . S
C139 C138 1.394 1_455 S
H140 C147 0.929 . S
H141 C150 0.930 1_545 S
H142 C152 0.929 . S
H143 C144 0.969 . S
C144 H143 0.969 . S
C144 O145 1.550 . S
C144 H146 0.973 . S
O145 C144 1.550 . S
O145 C151 1.412 . S
H146 C144 0.973 . S
C147 H140 0.929 . S
C147 C148 1.400 . S
C147 C149 1.364 . S
C148 C147 1.400 . S
C148 C152 1.377 . S
C149 C147 1.364 . S
C149 C150 1.374 . S
C150 H141 0.930 1_565 S
C150 C149 1.374 . S
C150 C151 1.383 1_565 S
C151 O145 1.412 . S
C151 C150 1.383 1_545 S
C151 C152 1.394 1_545 S
C152 H142 0.929 . S
C152 C148 1.377 . S
C152 C151 1.394 1_565 S
H153 C160 0.927 1_554 S
H154 C163 0.930 . S
H155 C165 0.929 . S
H156 C157 0.969 . S
C157 H156 0.969 . S
C157 O158 1.550 1_554 S
C157 H159 0.973 . S
O158 C157 1.550 1_556 S
O158 C164 1.412 . S
H159 C157 0.973 . S
C160 H153 0.927 1_556 S
C160 C161 1.417 . S
C160 C162 1.349 1_556 S
C161 C160 1.417 . S
C161 C165 1.377 . S
C162 C160 1.349 1_554 S
C162 C163 1.374 . S
C163 H154 0.930 . S
C163 C162 1.374 . S
C163 C164 1.383 1_554 S
C164 O158 1.412 . S
C164 C163 1.383 1_556 S
C164 C165 1.394 . S
C165 H155 0.929 . S
C165 C161 1.377 . S
C165 C164 1.394 . S
H166 C173 0.929 . S
H167 C176 0.930 1_565 S
H168 C178 0.929 . S
H169 C170 0.969 . S
C170 H169 0.969 . S
C170 O171 1.550 . S
C170 H172 0.973 . S
O171 C170 1.550 . S
O171 C177 1.412 . S
H172 C170 0.973 . S
C173 H166 0.929 . S
C173 C174 1.400 . S
C173 C175 1.364 . S
C174 C173 1.400 . S
C174 C178 1.377 . S
C175 C173 1.364 . S
C175 C176 1.374 . S
C176 H167 0.930 1_545 S
C176 C175 1.374 . S
C176 C177 1.383 1_545 S
C177 O171 1.412 . S
C177 C176 1.383 1_565 S
C177 C178 1.394 1_565 S
C178 H168 0.929 . S
C178 C174 1.377 . S
C178 C177 1.394 1_545 S
H179 C186 0.929 . S
H180 C189 0.930 . S
H181 C191 0.929 . S
H182 C183 0.969 . S
C183 H182 0.969 . S
C183 O184 1.550 1_556 S
C183 H185 0.973 . S
O184 C183 1.550 1_554 S
O184 C190 1.412 . S
H185 C183 0.973 . S
C186 H179 0.929 . S
C186 C187 1.400 . S
C186 C188 1.364 1_554 S
C187 C186 1.400 . S
C187 C191 1.377 . S
C188 C186 1.364 1_556 S
C188 C189 1.374 . S
C189 H180 0.930 . S
C189 C188 1.374 . S
C189 C190 1.383 1_556 S
C190 O184 1.412 . S
C190 C189 1.383 1_554 S
C190 C191 1.394 . S
C191 H181 0.929 . S
C191 C187 1.377 . S
C191 C190 1.394 . S
H192 C200 0.950 . S
H193 C205 0.950 . S
H194 C202 0.950 . S
H195 C204 0.950 . S
H196 C206 0.950 . S
H197 C208 0.950 . S
H198 C210 0.950 . S
H199 C211 0.950 . S
C200 H192 0.950 . S
C200 C201 1.386 . S
C200 C202 1.391 . S
C201 C200 1.386 . S
C201 C205 1.393 . S
C202 H194 0.950 . S
C202 C200 1.391 . S
C202 C203 1.400 . S
C203 C202 1.400 . S
C203 C204 1.398 . S
C203 C209 1.491 . S
C204 H195 0.950 . S
C204 C203 1.398 . S
C204 C205 1.391 . S
C205 H193 0.950 . S
C205 C201 1.393 . S
C205 C204 1.391 . S
C206 H196 0.950 . S
C206 C207 1.386 . S
C206 C208 1.391 . S
C207 C206 1.386 . S
C207 C211 1.393 . S
C208 H197 0.950 . S
C208 C206 1.391 . S
C208 C209 1.400 . S
C209 C203 1.491 . S
C209 C208 1.400 . S
C209 C210 1.398 . S
C210 H198 0.950 . S
C210 C209 1.398 . S
C210 C211 1.391 . S
C211 H199 0.950 . S
C211 C207 1.393 . S
C211 C210 1.391 . S
H212 C220 0.950 . S
H213 C225 0.950 . S
H214 C222 0.950 . S
H215 C224 0.950 . S
H216 C226 0.950 . S
H217 C228 0.950 . S
H218 C230 0.950 . S
H219 C231 0.950 . S
C220 H212 0.950 . S
C220 C221 1.386 . S
C220 C222 1.391 . S
C221 C220 1.386 . S
C221 C225 1.393 . S
C222 H214 0.950 . S
C222 C220 1.391 . S
C222 C223 1.400 . S
C223 C222 1.400 . S
C223 C224 1.398 . S
C223 C229 1.491 . S
C224 H215 0.950 . S
C224 C223 1.398 . S
C224 C225 1.391 . S
C225 H213 0.950 . S
C225 C221 1.393 . S
C225 C224 1.391 . S
C226 H216 0.950 . S
C226 C227 1.386 . S
C226 C228 1.391 . S
C227 C226 1.386 . S
C227 C231 1.393 . S
C228 H217 0.950 . S
C228 C226 1.391 . S
C228 C229 1.400 . S
C229 C223 1.491 . S
C229 C228 1.400 . S
C229 C230 1.398 . S
C230 H218 0.950 . S
C230 C229 1.398 . S
C230 C231 1.391 . S
C231 H219 0.950 . S
C231 C227 1.393 . S
C231 C230 1.391 . S
H232 C240 0.950 . S
H233 C245 0.950 . S
H234 C242 0.950 . S
H235 C244 0.950 . S
H236 C246 0.950 . S
H237 C248 0.950 . S
H238 C250 0.950 . S
H239 C251 0.950 . S
C240 H232 0.950 . S
C240 C241 1.386 . S
C240 C242 1.391 . S
C241 C240 1.386 . S
C241 C245 1.393 . S
C242 H234 0.950 . S
C242 C240 1.391 . S
C242 C243 1.400 . S
C243 C242 1.400 . S
C243 C244 1.398 . S
C243 C249 1.491 . S
C244 H235 0.950 . S
C244 C243 1.398 . S
C244 C245 1.391 . S
C245 H233 0.950 . S
C245 C241 1.393 . S
C245 C244 1.391 . S
C246 H236 0.950 . S
C246 C247 1.386 . S
C246 C248 1.391 . S
C247 C246 1.386 . S
C247 C251 1.393 . S
C248 H237 0.950 . S
C248 C246 1.391 . S
C248 C249 1.400 . S
C249 C243 1.491 . S
C249 C248 1.400 . S
C249 C250 1.398 . S
C250 H238 0.950 . S
C250 C249 1.398 . S
C250 C251 1.391 . S
C251 H239 0.950 . S
C251 C247 1.393 . S
C251 C250 1.391 . S
H252 C260 0.950 . S
H253 C265 0.950 . S
H254 C262 0.950 . S
H255 C264 0.950 . S
H256 C266 0.950 . S
H257 C268 0.950 . S
H258 C270 0.950 . S
H259 C271 0.950 . S
C260 H252 0.950 . S
C260 C261 1.386 . S
C260 C262 1.391 . S
C261 C260 1.386 . S
C261 C265 1.393 . S
C262 H254 0.950 . S
C262 C260 1.391 . S
C262 C263 1.400 . S
C263 C262 1.400 . S
C263 C264 1.398 . S
C263 C269 1.491 . S
C264 H255 0.950 . S
C264 C263 1.398 . S
C264 C265 1.391 . S
C265 H253 0.950 . S
C265 C261 1.393 . S
C265 C264 1.391 . S
C266 H256 0.950 . S
C266 C267 1.386 . S
C266 C268 1.391 . S
C267 C266 1.386 . S
C267 C271 1.393 . S
C268 H257 0.950 . S
C268 C266 1.391 . S
C268 C269 1.400 . S
C269 C263 1.491 . S
C269 C268 1.400 . S
C269 C270 1.398 . S
C270 H258 0.950 . S
C270 C269 1.398 . S
C270 C271 1.391 . S
C271 H259 0.950 . S
C271 C267 1.393 . S
C271 C270 1.391 . S
H272 C280 0.950 . S
H273 C285 0.950 . S
H274 C282 0.950 . S
H275 C284 0.950 . S
H276 C286 0.950 . S
H277 C288 0.950 . S
H278 C290 0.950 . S
H279 C291 0.950 . S
C280 H272 0.950 . S
C280 C281 1.386 . S
C280 C282 1.391 . S
C281 C280 1.386 . S
C281 C285 1.393 . S
C282 H274 0.950 . S
C282 C280 1.391 . S
C282 C283 1.400 . S
C283 C282 1.400 . S
C283 C284 1.398 . S
C283 C289 1.491 . S
C284 H275 0.950 . S
C284 C283 1.398 . S
C284 C285 1.391 . S
C285 H273 0.950 . S
C285 C281 1.393 . S
C285 C284 1.391 . S
C286 H276 0.950 . S
C286 C287 1.386 . S
C286 C288 1.391 . S
C287 C286 1.386 . S
C287 C291 1.393 . S
C288 H277 0.950 . S
C288 C286 1.391 . S
C288 C289 1.400 . S
C289 C283 1.491 . S
C289 C288 1.400 . S
C289 C290 1.398 . S
C290 H278 0.950 . S
C290 C289 1.398 . S
C290 C291 1.391 . S
C291 H279 0.950 . S
C291 C287 1.393 . S
C291 C290 1.391 . S
H292 C300 0.950 . S
H293 C305 0.950 . S
H294 C302 0.950 . S
H295 C304 0.950 . S
H296 C306 0.950 . S
H297 C308 0.950 . S
H298 C310 0.950 . S
H299 C311 0.950 . S
C300 H292 0.950 . S
C300 C301 1.386 . S
C300 C302 1.391 . S
C301 C300 1.386 . S
C301 C305 1.393 . S
C302 H294 0.950 . S
C302 C300 1.391 . S
C302 C303 1.400 . S
C303 C302 1.400 . S
C303 C304 1.398 . S
C303 C309 1.491 . S
C304 H295 0.950 . S
C304 C303 1.398 . S
C304 C305 1.391 . S
C305 H293 0.950 . S
C305 C301 1.393 . S
C305 C304 1.391 . S
C306 H296 0.950 . S
C306 C307 1.386 . S
C306 C308 1.391 . S
C307 C306 1.386 . S
C307 C311 1.393 . S
C308 H297 0.950 . S
C308 C306 1.391 . S
C308 C309 1.400 . S
C309 C303 1.491 . S
C309 C308 1.400 . S
C309 C310 1.398 . S
C310 H298 0.950 . S
C310 C309 1.398 . S
C310 C311 1.391 . S
C311 H299 0.950 . S
C311 C307 1.393 . S
C311 C310 1.391 . S
H312 C320 0.950 . S
H313 C325 0.950 . S
H314 C322 0.950 . S
H315 C324 0.950 . S
H316 C326 0.950 . S
H317 C328 0.950 . S
H318 C330 0.950 . S
H319 C331 0.950 . S
C320 H312 0.950 . S
C320 C321 1.386 . S
C320 C322 1.391 . S
C321 C320 1.386 . S
C321 C325 1.393 . S
C322 H314 0.950 . S
C322 C320 1.391 . S
C322 C323 1.400 . S
C323 C322 1.400 . S
C323 C324 1.398 . S
C323 C329 1.491 . S
C324 H315 0.950 . S
C324 C323 1.398 . S
C324 C325 1.391 . S
C325 H313 0.950 . S
C325 C321 1.393 . S
C325 C324 1.391 . S
C326 H316 0.950 . S
C326 C327 1.386 . S
C326 C328 1.391 . S
C327 C326 1.386 . S
C327 C331 1.393 . S
C328 H317 0.950 . S
C328 C326 1.391 . S
C328 C329 1.400 . S
C329 C323 1.491 . S
C329 C328 1.400 . S
C329 C330 1.398 . S
C330 H318 0.950 . S
C330 C329 1.398 . S
C330 C331 1.391 . S
C331 H319 0.950 . S
C331 C327 1.393 . S
C331 C330 1.391 . S
H332 C340 0.950 . S
H333 C345 0.950 . S
H334 C342 0.950 . S
H335 C344 0.950 . S
H336 C346 0.950 . S
H337 C348 0.950 . S
H338 C350 0.950 . S
H339 C351 0.950 . S
C340 H332 0.950 . S
C340 C341 1.386 . S
C340 C342 1.391 . S
C341 C340 1.386 . S
C341 C345 1.393 . S
C342 H334 0.950 . S
C342 C340 1.391 . S
C342 C343 1.400 . S
C343 C342 1.400 . S
C343 C344 1.398 . S
C343 C349 1.491 . S
C344 H335 0.950 . S
C344 C343 1.398 . S
C344 C345 1.391 . S
C345 H333 0.950 . S
C345 C341 1.393 . S
C345 C344 1.391 . S
C346 H336 0.950 . S
C346 C347 1.386 . S
C346 C348 1.391 . S
C347 C346 1.386 . S
C347 C351 1.393 . S
C348 H337 0.950 . S
C348 C346 1.391 . S
C348 C349 1.400 . S
C349 C343 1.491 . S
C349 C348 1.400 . S
C349 C350 1.398 . S
C350 H338 0.950 . S
C350 C349 1.398 . S
C350 C351 1.391 . S
C351 H339 0.950 . S
C351 C347 1.393 . S
C351 C350 1.391 . S
H352 C360 0.950 . S
H353 C365 0.950 . S
H354 C362 0.950 . S
H355 C364 0.950 . S
H356 C366 0.950 . S
H357 C368 0.950 . S
H358 C370 0.950 . S
H359 C371 0.950 . S
C360 H352 0.950 . S
C360 C361 1.386 . S
C360 C362 1.391 . S
C361 C360 1.386 . S
C361 C365 1.393 . S
C362 H354 0.950 . S
C362 C360 1.391 . S
C362 C363 1.400 . S
C363 C362 1.400 . S
C363 C364 1.398 . S
C363 C369 1.491 . S
C364 H355 0.950 . S
C364 C363 1.398 . S
C364 C365 1.391 . S
C365 H353 0.950 . S
C365 C361 1.393 . S
C365 C364 1.391 . S
C366 H356 0.950 . S
C366 C367 1.386 . S
C366 C368 1.391 . S
C367 C366 1.386 . S
C367 C371 1.393 . S
C368 H357 0.950 . S
C368 C366 1.391 . S
C368 C369 1.400 . S
C369 C363 1.491 . S
C369 C368 1.400 . S
C369 C370 1.398 . S
C370 H358 0.950 . S
C370 C369 1.398 . S
C370 C371 1.391 . S
C371 H359 0.950 . S
C371 C367 1.393 . S
C371 C370 1.391 . S
H372 C380 0.950 . S
H373 C385 0.950 . S
H374 C382 0.950 . S
H375 C384 0.950 . S
H376 C386 0.950 . S
H377 C388 0.950 . S
H378 C390 0.950 . S
H379 C391 0.950 . S
C380 H372 0.950 . S
C380 C381 1.386 . S
C380 C382 1.391 . S
C381 C380 1.386 . S
C381 C385 1.393 . S
C382 H374 0.950 . S
C382 C380 1.391 . S
C382 C383 1.400 . S
C383 C382 1.400 . S
C383 C384 1.398 . S
C383 C389 1.491 . S
C384 H375 0.950 . S
C384 C383 1.398 . S
C384 C385 1.391 . S
C385 H373 0.950 . S
C385 C381 1.393 . S
C385 C384 1.391 . S
C386 H376 0.950 . S
C386 C387 1.386 . S
C386 C388 1.391 . S
C387 C386 1.386 . S
C387 C391 1.393 . S
C388 H377 0.950 . S
C388 C386 1.391 . S
C388 C389 1.400 . S
C389 C383 1.491 . S
C389 C388 1.400 . S
C389 C390 1.398 . S
C390 H378 0.950 . S
C390 C389 1.398 . S
C390 C391 1.391 . S
C391 H379 0.950 . S
C391 C387 1.393 . S
C391 C390 1.391 . S
H392 C400 0.950 . S
H393 C405 0.950 . S
H394 C402 0.950 . S
H395 C404 0.950 . S
H396 C406 0.950 . S
H397 C408 0.950 . S
H398 C410 0.950 . S
H399 C411 0.950 . S
C400 H392 0.950 . S
C400 C401 1.386 . S
C400 C402 1.391 . S
C401 C400 1.386 . S
C401 C405 1.393 . S
C402 H394 0.950 . S
C402 C400 1.391 . S
C402 C403 1.400 . S
C403 C402 1.400 . S
C403 C404 1.398 . S
C403 C409 1.491 . S
C404 H395 0.950 . S
C404 C403 1.398 . S
C404 C405 1.391 . S
C405 H393 0.950 . S
C405 C401 1.393 . S
C405 C404 1.391 . S
C406 H396 0.950 . S
C406 C407 1.386 . S
C406 C408 1.391 . S
C407 C406 1.386 . S
C407 C411 1.393 . S
C408 H397 0.950 . S
C408 C406 1.391 . S
C408 C409 1.400 . S
C409 C403 1.491 . S
C409 C408 1.400 . S
C409 C410 1.398 . S
C410 H398 0.950 . S
C410 C409 1.398 . S
C410 C411 1.391 . S
C411 H399 0.950 . S
C411 C407 1.393 . S
C411 C410 1.391 . S
H412 C420 0.950 . S
H413 C425 0.950 . S
H414 C422 0.950 . S
H415 C424 0.950 . S
H416 C426 0.950 . S
H417 C428 0.950 . S
H418 C430 0.950 . S
H419 C431 0.950 . S
C420 H412 0.950 . S
C420 C421 1.386 . S
C420 C422 1.391 . S
C421 C420 1.386 . S
C421 C425 1.393 . S
C422 H414 0.950 . S
C422 C420 1.391 . S
C422 C423 1.400 . S
C423 C422 1.400 . S
C423 C424 1.398 . S
C423 C429 1.491 . S
C424 H415 0.950 . S
C424 C423 1.398 . S
C424 C425 1.391 . S
C425 H413 0.950 . S
C425 C421 1.393 . S
C425 C424 1.391 . S
C426 H416 0.950 . S
C426 C427 1.386 . S
C426 C428 1.391 . S
C427 C426 1.386 . S
C427 C431 1.393 . S
C428 H417 0.950 . S
C428 C426 1.391 . S
C428 C429 1.400 . S
C429 C423 1.491 . S
C429 C428 1.400 . S
C429 C430 1.398 . S
C430 H418 0.950 . S
C430 C429 1.398 . S
C430 C431 1.391 . S
C431 H419 0.950 . S
C431 C427 1.393 . S
C431 C430 1.391 . S
H432 C440 0.950 . S
H433 C445 0.950 . S
H434 C442 0.950 . S
H435 C444 0.950 . S
H436 C446 0.950 . S
H437 C448 0.950 . S
H438 C450 0.950 . S
H439 C451 0.950 . S
C440 H432 0.950 . S
C440 C441 1.386 . S
C440 C442 1.391 . S
C441 C440 1.386 . S
C441 C445 1.393 . S
C442 H434 0.950 . S
C442 C440 1.391 . S
C442 C443 1.400 . S
C443 C442 1.400 . S
C443 C444 1.398 . S
C443 C449 1.491 . S
C444 H435 0.950 . S
C444 C443 1.398 . S
C444 C445 1.391 . S
C445 H433 0.950 . S
C445 C441 1.393 . S
C445 C444 1.391 . S
C446 H436 0.950 . S
C446 C447 1.386 . S
C446 C448 1.391 . S
C447 C446 1.386 . S
C447 C451 1.393 . S
C448 H437 0.950 . S
C448 C446 1.391 . S
C448 C449 1.400 . S
C449 C443 1.491 . S
C449 C448 1.400 . S
C449 C450 1.398 . S
C450 H438 0.950 . S
C450 C449 1.398 . S
C450 C451 1.391 . S
C451 H439 0.950 . S
C451 C447 1.393 . S
C451 C450 1.391 . S
H452 C460 0.950 . S
H453 C465 0.950 . S
H454 C462 0.950 . S
H455 C464 0.950 . S
H456 C466 0.950 . S
H457 C468 0.950 . S
H458 C470 0.950 . S
H459 C471 0.950 . S
C460 H452 0.950 . S
C460 C461 1.386 . S
C460 C462 1.391 . S
C461 C460 1.386 . S
C461 C465 1.393 . S
C462 H454 0.950 . S
C462 C460 1.391 . S
C462 C463 1.400 . S
C463 C462 1.400 . S
C463 C464 1.398 . S
C463 C469 1.491 . S
C464 H455 0.950 . S
C464 C463 1.398 . S
C464 C465 1.391 . S
C465 H453 0.950 . S
C465 C461 1.393 . S
C465 C464 1.391 . S
C466 H456 0.950 . S
C466 C467 1.386 . S
C466 C468 1.391 . S
C467 C466 1.386 . S
C467 C471 1.393 . S
C468 H457 0.950 . S
C468 C466 1.391 . S
C468 C469 1.400 . S
C469 C463 1.491 . S
C469 C468 1.400 . S
C469 C470 1.398 . S
C470 H458 0.950 . S
C470 C469 1.398 . S
C470 C471 1.391 . S
C471 H459 0.950 . S
C471 C467 1.393 . S
C471 C470 1.391 . S
H472 C480 0.950 . S
H473 C485 0.950 . S
H474 C482 0.950 . S
H475 C484 0.950 . S
H476 C486 0.950 . S
H477 C488 0.950 . S
H478 C490 0.950 . S
H479 C491 0.950 . S
C480 H472 0.950 . S
C480 C481 1.386 . S
C480 C482 1.391 . S
C481 C480 1.386 . S
C481 C485 1.393 . S
C482 H474 0.950 . S
C482 C480 1.391 . S
C482 C483 1.400 . S
C483 C482 1.400 . S
C483 C484 1.398 . S
C483 C489 1.491 . S
C484 H475 0.950 . S
C484 C483 1.398 . S
C484 C485 1.391 . S
C485 H473 0.950 . S
C485 C481 1.393 . S
C485 C484 1.391 . S
C486 H476 0.950 . S
C486 C487 1.386 . S
C486 C488 1.391 . S
C487 C486 1.386 . S
C487 C491 1.393 . S
C488 H477 0.950 . S
C488 C486 1.391 . S
C488 C489 1.400 . S
C489 C483 1.491 . S
C489 C488 1.400 . S
C489 C490 1.398 . S
C490 H478 0.950 . S
C490 C489 1.398 . S
C490 C491 1.391 . S
C491 H479 0.950 . S
C491 C487 1.393 . S
C491 C490 1.391 . S
H492 C500 0.950 . S
H493 C505 0.950 . S
H494 C502 0.950 . S
H495 C504 0.950 . S
H496 C506 0.950 . S
H497 C508 0.950 . S
H498 C510 0.950 . S
H499 C511 0.950 . S
C500 H492 0.950 . S
C500 C501 1.386 . S
C500 C502 1.391 . S
C501 C500 1.386 . S
C501 C505 1.393 . S
C502 H494 0.950 . S
C502 C500 1.391 . S
C502 C503 1.400 . S
C503 C502 1.400 . S
C503 C504 1.398 . S
C503 C509 1.491 . S
C504 H495 0.950 . S
C504 C503 1.398 . S
C504 C505 1.391 . S
C505 H493 0.950 . S
C505 C501 1.393 . S
C505 C504 1.391 . S
C506 H496 0.950 . S
C506 C507 1.386 . S
C506 C508 1.391 . S
C507 C506 1.386 . S
C507 C511 1.393 . S
C508 H497 0.950 . S
C508 C506 1.391 . S
C508 C509 1.400 . S
C509 C503 1.491 . S
C509 C508 1.400 . S
C509 C510 1.398 . S
C510 H498 0.950 . S
C510 C509 1.398 . S
C510 C511 1.391 . S
C511 H499 0.950 . S
C511 C507 1.393 . S
C511 C510 1.391 . S
H512 C520 0.950 . S
H513 C525 0.950 . S
H514 C522 0.950 . S
H515 C524 0.950 . S
H516 C526 0.950 . S
H517 C528 0.950 . S
H518 C530 0.950 . S
H519 C531 0.950 . S
C520 H512 0.950 . S
C520 C521 1.386 . S
C520 C522 1.391 . S
C521 C520 1.386 . S
C521 C525 1.393 1_554 S
C522 H514 0.950 . S
C522 C520 1.391 . S
C522 C523 1.400 . S
C523 C522 1.400 . S
C523 C524 1.398 1_554 S
C523 C529 1.491 . S
C524 H515 0.950 . S
C524 C523 1.398 1_556 S
C524 C525 1.391 . S
C525 H513 0.950 . S
C525 C521 1.393 1_556 S
C525 C524 1.391 . S
C526 H516 0.950 . S
C526 C527 1.386 1_556 S
C526 C528 1.391 . S
C527 C526 1.386 1_554 S
C527 C531 1.393 . S
C528 H517 0.950 . S
C528 C526 1.391 . S
C528 C529 1.400 1_556 S
C529 C523 1.491 . S
C529 C528 1.400 1_554 S
C529 C530 1.398 . S
C530 H518 0.950 . S
C530 C529 1.398 . S
C530 C531 1.391 . S
C531 H519 0.950 . S
C531 C527 1.393 . S
C531 C530 1.391 . S
H532 C540 0.950 . S
H533 C545 0.950 . S
H534 C542 0.950 . S
H535 C544 0.950 . S
H536 C546 0.950 . S
H537 C548 0.950 . S
H538 C550 0.950 . S
H539 C551 0.950 . S
C540 H532 0.950 . S
C540 C541 1.386 . S
C540 C542 1.391 . S
C541 C540 1.386 . S
C541 C545 1.393 . S
C542 H534 0.950 . S
C542 C540 1.391 . S
C542 C543 1.400 . S
C543 C542 1.400 . S
C543 C544 1.398 . S
C543 C549 1.491 . S
C544 H535 0.950 . S
C544 C543 1.398 . S
C544 C545 1.391 . S
C545 H533 0.950 . S
C545 C541 1.393 . S
C545 C544 1.391 . S
C546 H536 0.950 . S
C546 C547 1.386 . S
C546 C548 1.391 . S
C547 C546 1.386 . S
C547 C551 1.393 . S
C548 H537 0.950 . S
C548 C546 1.391 . S
C548 C549 1.400 . S
C549 C543 1.491 . S
C549 C548 1.400 . S
C549 C550 1.398 . S
C550 H538 0.950 . S
C550 C549 1.398 . S
C550 C551 1.391 . S
C551 H539 0.950 . S
C551 C547 1.393 . S
C551 C550 1.391 . S
H552 C560 0.950 . S
H553 C565 0.950 . S
H554 C562 0.950 . S
H555 C564 0.950 . S
H556 C566 0.950 . S
H557 C568 0.950 . S
H558 C570 0.950 . S
H559 C571 0.950 . S
C560 H552 0.950 . S
C560 C561 1.386 1_556 S
C560 C562 1.391 . S
C561 C560 1.386 1_554 S
C561 C565 1.393 . S
C562 H554 0.950 . S
C562 C560 1.391 . S
C562 C563 1.400 1_556 S
C563 C562 1.400 1_554 S
C563 C564 1.398 . S
C563 C569 1.491 . S
C564 H555 0.950 . S
C564 C563 1.398 . S
C564 C565 1.391 . S
C565 H553 0.950 . S
C565 C561 1.393 . S
C565 C564 1.391 . S
C566 H556 0.950 . S
C566 C567 1.386 . S
C566 C568 1.391 . S
C567 C566 1.386 . S
C567 C571 1.393 1_554 S
C568 H557 0.950 . S
C568 C566 1.391 . S
C568 C569 1.400 . S
C569 C563 1.491 . S
C569 C568 1.400 . S
C569 C570 1.398 1_554 S
C570 H558 0.950 . S
C570 C569 1.398 1_556 S
C570 C571 1.391 . S
C571 H559 0.950 . S
C571 C567 1.393 1_556 S
C571 C570 1.391 . S
H572 C580 0.950 . S
H573 C585 0.950 . S
H574 C582 0.950 . S
H575 C584 0.950 . S
H576 C586 0.950 . S
H577 C588 0.950 . S
H578 C590 0.950 . S
H579 C591 0.950 . S
C580 H572 0.950 . S
C580 C581 1.386 . S
C580 C582 1.391 . S
C581 C580 1.386 . S
C581 C585 1.393 . S
C582 H574 0.950 . S
C582 C580 1.391 . S
C582 C583 1.400 . S
C583 C582 1.400 . S
C583 C584 1.398 . S
C583 C589 1.491 . S
C584 H575 0.950 . S
C584 C583 1.398 . S
C584 C585 1.391 . S
C585 H573 0.950 . S
C585 C581 1.393 . S
C585 C584 1.391 . S
C586 H576 0.950 . S
C586 C587 1.386 . S
C586 C588 1.391 . S
C587 C586 1.386 . S
C587 C591 1.393 . S
C588 H577 0.950 . S
C588 C586 1.391 . S
C588 C589 1.400 . S
C589 C583 1.491 . S
C589 C588 1.400 . S
C589 C590 1.398 . S
C590 H578 0.950 . S
C590 C589 1.398 . S
C590 C591 1.391 . S
C591 H579 0.950 . S
C591 C587 1.393 . S
C591 C590 1.391 . S
H592 C600 0.950 . S
H593 C605 0.950 . S
H594 C602 0.950 . S
H595 C604 0.950 . S
H596 C606 0.950 . S
H597 C608 0.950 . S
H598 C610 0.950 . S
H599 C611 0.950 . S
C600 H592 0.950 . S
C600 C601 1.386 . S
C600 C602 1.391 . S
C601 C600 1.386 . S
C601 C605 1.393 . S
C602 H594 0.950 . S
C602 C600 1.391 . S
C602 C603 1.400 . S
C603 C602 1.400 . S
C603 C604 1.398 . S
C603 C609 1.491 . S
C604 H595 0.950 . S
C604 C603 1.398 . S
C604 C605 1.391 . S
C605 H593 0.950 . S
C605 C601 1.393 . S
C605 C604 1.391 . S
C606 H596 0.950 . S
C606 C607 1.386 . S
C606 C608 1.391 . S
C607 C606 1.386 . S
C607 C611 1.393 . S
C608 H597 0.950 . S
C608 C606 1.391 . S
C608 C609 1.400 . S
C609 C603 1.491 . S
C609 C608 1.400 . S
C609 C610 1.398 . S
C610 H598 0.950 . S
C610 C609 1.398 . S
C610 C611 1.391 . S
C611 H599 0.950 . S
C611 C607 1.393 . S
C611 C610 1.391 . S
H612 C620 0.950 1_556 S
H613 C625 0.950 . S
H614 C622 0.950 1_556 S
H615 C624 0.950 . S
H616 C626 0.950 . S
H617 C628 0.950 . S
H618 C630 0.950 . S
H619 C631 0.950 1_556 S
C620 H612 0.950 1_554 S
C620 C621 1.386 . S
C620 C622 1.391 . S
C621 C620 1.386 . S
C621 C625 1.393 . S
C622 H614 0.950 1_554 S
C622 C620 1.391 . S
C622 C623 1.400 . S
C623 C622 1.400 . S
C623 C624 1.398 . S
C623 C629 1.491 . S
C624 H615 0.950 . S
C624 C623 1.398 . S
C624 C625 1.391 . S
C625 H613 0.950 . S
C625 C621 1.393 . S
C625 C624 1.391 . S
C626 H616 0.950 . S
C626 C627 1.386 . S
C626 C628 1.391 . S
C627 C626 1.386 . S
C627 C631 1.393 . S
C628 H617 0.950 . S
C628 C626 1.391 . S
C628 C629 1.400 . S
C629 C623 1.491 . S
C629 C628 1.400 . S
C629 C630 1.398 . S
C630 H618 0.950 . S
C630 C629 1.398 . S
C630 C631 1.391 . S
C631 H619 0.950 1_554 S
C631 C627 1.393 . S
C631 C630 1.391 . S
H632 C640 0.950 . S
H633 C645 0.950 . S
H634 C642 0.950 . S
H635 C644 0.950 . S
H636 C646 0.950 . S
H637 C648 0.950 . S
H638 C650 0.950 . S
H639 C651 0.950 . S
C640 H632 0.950 . S
C640 C641 1.386 . S
C640 C642 1.391 . S
C641 C640 1.386 . S
C641 C645 1.393 . S
C642 H634 0.950 . S
C642 C640 1.391 . S
C642 C643 1.400 . S
C643 C642 1.400 . S
C643 C644 1.398 . S
C643 C649 1.491 . S
C644 H635 0.950 . S
C644 C643 1.398 . S
C644 C645 1.391 . S
C645 H633 0.950 . S
C645 C641 1.393 . S
C645 C644 1.391 . S
C646 H636 0.950 . S
C646 C647 1.386 . S
C646 C648 1.391 . S
C647 C646 1.386 . S
C647 C651 1.393 . S
C648 H637 0.950 . S
C648 C646 1.391 . S
C648 C649 1.400 . S
C649 C643 1.491 . S
C649 C648 1.400 . S
C649 C650 1.398 . S
C650 H638 0.950 . S
C650 C649 1.398 . S
C650 C651 1.391 . S
C651 H639 0.950 . S
C651 C647 1.393 . S
C651 C650 1.391 . S
H652 C660 0.950 . S
H653 C665 0.950 . S
H654 C662 0.950 . S
H655 C664 0.950 . S
H656 C666 0.950 . S
H657 C668 0.950 . S
H658 C670 0.950 . S
H659 C671 0.950 . S
C660 H652 0.950 . S
C660 C661 1.386 . S
C660 C662 1.391 . S
C661 C660 1.386 . S
C661 C665 1.393 1_554 S
C662 H654 0.950 . S
C662 C660 1.391 . S
C662 C663 1.400 . S
C663 C662 1.400 . S
C663 C664 1.398 1_554 S
C663 C669 1.491 . S
C664 H655 0.950 . S
C664 C663 1.398 1_556 S
C664 C665 1.391 . S
C665 H653 0.950 . S
C665 C661 1.393 1_556 S
C665 C664 1.391 . S
C666 H656 0.950 . S
C666 C667 1.386 1_556 S
C666 C668 1.391 . S
C667 C666 1.386 1_554 S
C667 C671 1.393 . S
C668 H657 0.950 . S
C668 C666 1.391 . S
C668 C669 1.400 1_556 S
C669 C663 1.491 . S
C669 C668 1.400 1_554 S
C669 C670 1.398 . S
C670 H658 0.950 . S
C670 C669 1.398 . S
C670 C671 1.391 . S
C671 H659 0.950 . S
C671 C667 1.393 . S
C671 C670 1.391 . S
C201 C21 1.501 . S
C207 C135 1.501 . S
C221 C40 1.513 . S
C227 C97 1.489 . S
C247 C110 1.449 . S
C241 C54 1.463 . S
C261 C73 1.500 . S
C267 C122 1.513 . S
C287 C162 1.441 . S
C281 C74 1.472 . S
C307 C174 1.478 . S
C301 C10 1.494 . S
C327 C187 1.493 . S
C321 C37 1.489 . S
C347 C149 1.499 . S
C341 C65 1.531 . S
C361 C52 1.446 . S
C367 C109 1.448 . S
C381 C87 1.539 . S
C387 C123 1.514 . S
C401 C15 1.505 . S
C407 C136 1.502 . S
C427 C96 1.474 . S
C421 C32 1.476 . S
C441 C29 1.517 . S
C447 C188 1.511 . S
C467 C148 1.506 . S
C461 C59 1.520 . S
C487 C161 1.432 . S
C481 C84 1.444 . S
C501 C8 1.497 . S
C507 C175 1.482 . S
C527 C92 1.481 1_554 S
C521 C7 1.532 . S
C547 C105 1.451 . S
C541 C30 1.483 . S
C561 C62 1.538 . S
C567 C118 1.510 . S
C581 C81 1.507 . S
C587 C131 1.453 . S
C607 C144 1.451 . S
C601 C76 1.536 . S
C621 C18 1.485 . S
C627 C157 1.441 . S
C641 C43 1.532 . S
C647 C170 1.493 . S
C661 C51 1.510 . S
C667 C183 1.460 1_554 S
