# Generated by pormake.
# Topology nom, (4,4)-cn, num edge types: 1
# Building blocks:
#     Node 0, Type 0, BuildingBlock: NAWXER_clean_linker_0, # of connection points: 4
#     Node 1, Type 0, BuildingBlock: NAWXER_clean_linker_0, # of connection points: 4
#     Node 2, Type 0, BuildingBlock: NAWXER_clean_linker_0, # of connection points: 4
#     Node 3, Type 0, BuildingBlock: NAWXER_clean_linker_0, # of connection points: 4
#     Node 4, Type 0, BuildingBlock: NAWXER_clean_linker_0, # of connection points: 4
#     Node 5, Type 0, BuildingBlock: NAWXER_clean_linker_0, # of connection points: 4
#     Node 6, Type 1, BuildingBlock: TATPOV_clean_sbu_0, # of connection points: 4
#     Node 7, Type 1, BuildingBlock: TATPOV_clean_sbu_0, # of connection points: 4
#     Node 8, Type 1, BuildingBlock: TATPOV_clean_sbu_0, # of connection points: 4
#     Node 9, Type 1, BuildingBlock: TATPOV_clean_sbu_0, # of connection points: 4
#     Node 10, Type 1, BuildingBlock: TATPOV_clean_sbu_0, # of connection points: 4
#     Node 11, Type 1, BuildingBlock: TATPOV_clean_sbu_0, # of connection points: 4
#     Edge 12, Type (0, 1), BuildingBlock: TEMPAE_clean_linker_10, # of connection points: 2
#     Edge 13, Type (0, 1), BuildingBlock: TEMPAE_clean_linker_10, # of connection points: 2
#     Edge 14, Type (0, 1), BuildingBlock: TEMPAE_clean_linker_10, # of connection points: 2
#     Edge 15, Type (0, 1), BuildingBlock: TEMPAE_clean_linker_10, # of connection points: 2
#     Edge 16, Type (0, 1), BuildingBlock: TEMPAE_clean_linker_10, # of connection points: 2
#     Edge 17, Type (0, 1), BuildingBlock: TEMPAE_clean_linker_10, # of connection points: 2
#     Edge 18, Type (0, 1), BuildingBlock: TEMPAE_clean_linker_10, # of connection points: 2
#     Edge 19, Type (0, 1), BuildingBlock: TEMPAE_clean_linker_10, # of connection points: 2
#     Edge 20, Type (0, 1), BuildingBlock: TEMPAE_clean_linker_10, # of connection points: 2
#     Edge 21, Type (0, 1), BuildingBlock: TEMPAE_clean_linker_10, # of connection points: 2
#     Edge 22, Type (0, 1), BuildingBlock: TEMPAE_clean_linker_10, # of connection points: 2
#     Edge 23, Type (0, 1), BuildingBlock: TEMPAE_clean_linker_10, # of connection points: 2
#     Edge 24, Type (0, 1), BuildingBlock: TEMPAE_clean_linker_10, # of connection points: 2
#     Edge 25, Type (0, 1), BuildingBlock: TEMPAE_clean_linker_10, # of connection points: 2
#     Edge 26, Type (0, 1), BuildingBlock: TEMPAE_clean_linker_10, # of connection points: 2
#     Edge 27, Type (0, 1), BuildingBlock: TEMPAE_clean_linker_10, # of connection points: 2
#     Edge 28, Type (0, 1), BuildingBlock: TEMPAE_clean_linker_10, # of connection points: 2
#     Edge 29, Type (0, 1), BuildingBlock: TEMPAE_clean_linker_10, # of connection points: 2
#     Edge 30, Type (0, 1), BuildingBlock: TEMPAE_clean_linker_10, # of connection points: 2
#     Edge 31, Type (0, 1), BuildingBlock: TEMPAE_clean_linker_10, # of connection points: 2
#     Edge 32, Type (0, 1), BuildingBlock: TEMPAE_clean_linker_10, # of connection points: 2
#     Edge 33, Type (0, 1), BuildingBlock: TEMPAE_clean_linker_10, # of connection points: 2
#     Edge 34, Type (0, 1), BuildingBlock: TEMPAE_clean_linker_10, # of connection points: 2
#     Edge 35, Type (0, 1), BuildingBlock: TEMPAE_clean_linker_10, # of connection points: 2
# Relax obj value: 0.024
# Max RMSD: 0.116
# Mean RMSD: 0.110
data_MOF--net-nom--node1-TATPOV_clean_sbu_0--node2-NAWXER_clean_linker_0--edge1-TEMPAE_clean_linker_10
_symmetry_space_group_name_H-M    P1
_symmetry_Int_Tables_number       1
_symmetry_cell_setting            triclinic
loop_
_symmetry_equiv_pos_as_xyz
'x, y, z'
_cell_length_a     52.275781
_cell_length_b     53.033399
_cell_length_c     57.791921
_cell_angle_alpha  90.555234
_cell_angle_beta   90.670115
_cell_angle_gamma 120.01603
loop_
_atom_site_label
_atom_site_type_symbol
_atom_site_fract_x
_atom_site_fract_y
_atom_site_fract_z
_atom_type_partial_charge
C0 C 0.91015 0.4446 0.33365 0.0
C1 C 0.89874 0.42717 0.35324 0.0
C2 C 0.93707 0.45025 0.32462 0.0
C3 C 0.95305 0.43825 0.33473 0.0
C4 C 0.91458 0.41488 0.36322 0.0
C5 C 0.94159 0.42051 0.3541 0.0
C6 C 0.98338 0.44763 0.32714 0.0
C7 C 0.92261 0.3998 0.2666 0.0
C8 C 0.92864 0.41618 0.24637 0.0
C9 C 0.94293 0.40992 0.28521 0.0
C10 C 0.96921 0.43699 0.28408 0.0
C11 C 0.95524 0.44275 0.24507 0.0
C12 C 0.97523 0.45302 0.26368 0.0
C13 C 0.99103 0.44903 0.30359 0.0
C14 C 0.12569 0.52096 0.30893 0.0
C15 C 0.12873 0.5406 0.29154 0.0
C16 C 0.09759 0.49958 0.31588 0.0
C17 C 0.07218 0.49802 0.30588 0.0
C18 C 0.10325 0.5379 0.28077 0.0
C19 C 0.07533 0.51683 0.28784 0.0
C20 C 0.04211 0.47804 0.31431 0.0
C21 C 0.09253 0.53759 0.37478 0.0
C22 C 0.09522 0.52277 0.39387 0.0
C23 C 0.07302 0.52223 0.35649 0.0
C24 C 0.05614 0.4917 0.35672 0.0
C25 C 0.07809 0.49219 0.39413 0.0
C26 C 0.0586 0.47682 0.37576 0.0
C27 C 0.03452 0.47545 0.33789 0.0
H28 H 0.89893 0.45502 0.32589 0.0
H29 H 0.94598 0.46503 0.31029 0.0
H30 H 0.90631 0.40129 0.37828 0.0
H31 H 0.95382 0.41149 0.36244 0.0
H32 H 0.90231 0.37913 0.26794 0.0
H33 H 0.93808 0.3966 0.3004 0.0
H34 H 0.96028 0.45603 0.22981 0.0
H35 H 0.99526 0.47392 0.26223 0.0
H36 H 0.14501 0.52235 0.3173 0.0
H37 H 0.09576 0.48476 0.32937 0.0
H38 H 0.10485 0.5529 0.26751 0.0
H39 H 0.05612 0.51606 0.27978 0.0
H40 H 0.10489 0.56115 0.37428 0.0
H41 H 0.07079 0.53423 0.34229 0.0
H42 H 0.07974 0.48014 0.40854 0.0
H43 H 0.04547 0.4533 0.37639 0.0
N44 N 0.00547 0.46036 0.34336 0.0
N45 N 0.02008 0.46443 0.29823 0.0
C46 C 0.4587 0.92776 0.49572 0.0
C47 C 0.46433 0.91664 0.51592 0.0
C48 C 0.47955 0.95506 0.48769 0.0
C49 C 0.50674 0.97173 0.49947 0.0
C50 C 0.49155 0.93333 0.52773 0.0
C51 C 0.5125 0.9607 0.51962 0.0
C52 C 0.52758 0.00181 0.49217 0.0
C53 C 0.52239 0.94207 0.43511 0.0
C54 C 0.51055 0.94538 0.41417 0.0
C55 C 0.53117 0.96313 0.45278 0.0
C56 C 0.52766 0.98755 0.44998 0.0
C57 C 0.50819 0.97041 0.4111 0.0
C58 C 0.51674 0.9913 0.42879 0.0
C59 C 0.53524 0.00936 0.46889 0.0
C60 C 0.6029 0.1421 0.47348 0.0
C61 C 0.58744 0.14667 0.45539 0.0
C62 C 0.59412 0.11386 0.48083 0.0
C63 C 0.56926 0.08978 0.47064 0.0
C64 C 0.56386 0.12229 0.44426 0.0
C65 C 0.55486 0.09424 0.45183 0.0
C66 C 0.55722 0.05979 0.47932 0.0
C67 C 0.55589 0.1139 0.54017 0.0
C68 C 0.56828 0.11053 0.56089 0.0
C69 C 0.55027 0.09513 0.52122 0.0
C70 C 0.55821 0.07347 0.52214 0.0
C71 C 0.57555 0.08832 0.56183 0.0
C72 C 0.57074 0.07019 0.54266 0.0
C73 C 0.55121 0.05225 0.50288 0.0
H74 H 0.43769 0.91582 0.48654 0.0
H75 H 0.47398 0.96351 0.47266 0.0
H76 H 0.49657 0.92533 0.5433 0.0
H77 H 0.53312 0.97338 0.5292 0.0
H78 H 0.5248 0.92317 0.43782 0.0
H79 H 0.54044 0.96018 0.46869 0.0
H80 H 0.49882 0.97341 0.39526 0.0
H81 H 0.51398 0.01 0.42613 0.0
H82 H 0.62122 0.16033 0.48243 0.0
H83 H 0.60623 0.11095 0.49489 0.0
H84 H 0.55203 0.12484 0.4298 0.0
H85 H 0.53595 0.07601 0.44336 0.0
H86 H 0.55019 0.13081 0.53857 0.0
H87 H 0.53937 0.09739 0.50599 0.0
H88 H 0.5842 0.08425 0.57757 0.0
H89 H 0.5764 0.05319 0.54402 0.0
N90 N 0.5365 0.02355 0.50827 0.0
N91 N 0.54922 0.03799 0.46337 0.0
C92 C 0.56312 0.49418 0.60625 0.0
C93 C 0.55178 0.4873 0.58343 0.0
C94 C 0.54926 0.50206 0.62301 0.0
C95 C 0.52288 0.50195 0.61774 0.0
C96 C 0.5258 0.48802 0.57803 0.0
C97 C 0.51147 0.49509 0.595 0.0
C98 C 0.50823 0.51087 0.63532 0.0
C99 C 0.50729 0.43346 0.66672 0.0
C100 C 0.52422 0.43919 0.68721 0.0
C101 C 0.50208 0.45469 0.65737 0.0
C102 C 0.51397 0.48221 0.66818 0.0
C103 C 0.53589 0.46668 0.69811 0.0
C104 C 0.53067 0.48792 0.68874 0.0
C105 C 0.50718 0.50423 0.65905 0.0
C106 C 0.43959 0.5558 0.70341 0.0
C107 C 0.45729 0.56716 0.72362 0.0
C108 C 0.44887 0.54533 0.68491 0.0
C109 C 0.47656 0.54703 0.68582 0.0
C110 C 0.48491 0.56861 0.72444 0.0
C111 C 0.49444 0.55883 0.70575 0.0
C112 C 0.48643 0.53437 0.6674 0.0
C113 C 0.46368 0.59638 0.63212 0.0
C114 C 0.43888 0.58102 0.61726 0.0
C115 C 0.47932 0.58312 0.64034 0.0
C116 C 0.47039 0.55428 0.63383 0.0
C117 C 0.43067 0.5524 0.61033 0.0
C118 C 0.44642 0.53931 0.61837 0.0
C119 C 0.48494 0.53885 0.64346 0.0
H120 H 0.58284 0.49364 0.6113 0.0
H121 H 0.55956 0.5086 0.64002 0.0
H122 H 0.51672 0.48369 0.56057 0.0
H123 H 0.49151 0.49539 0.59026 0.0
H124 H 0.49746 0.4123 0.65817 0.0
H125 H 0.48829 0.44938 0.64193 0.0
H126 H 0.54918 0.47181 0.71383 0.0
H127 H 0.53977 0.50889 0.69751 0.0
H128 H 0.41829 0.5545 0.70197 0.0
H129 H 0.43399 0.53526 0.67022 0.0
H130 H 0.4989 0.57637 0.73982 0.0
H131 H 0.51568 0.55995 0.70709 0.0
H132 H 0.47097 0.61862 0.63748 0.0
H133 H 0.49807 0.59518 0.652 0.0
H134 H 0.41148 0.5397 0.59923 0.0
H135 H 0.4392 0.51702 0.61315 0.0
N136 N 0.49626 0.52726 0.6284 0.0
N137 N 0.49712 0.51689 0.67414 0.0
C138 C 0.87918 0.42026 0.79354 0.0
C139 C 0.86566 0.43088 0.7784 0.0
C140 C 0.9083 0.43822 0.8012 0.0
C141 C 0.92447 0.46718 0.79395 0.0
C142 C 0.88199 0.45978 0.77092 0.0
C143 C 0.91127 0.4777 0.77848 0.0
C144 C 0.95537 0.48613 0.80201 0.0
C145 C 0.90124 0.47519 0.86563 0.0
C146 C 0.90541 0.45952 0.88338 0.0
C147 C 0.91954 0.48413 0.84641 0.0
C148 C 0.94239 0.47765 0.84459 0.0
C149 C 0.92781 0.45235 0.88108 0.0
C150 C 0.94629 0.4616 0.86201 0.0
C151 C 0.96379 0.48951 0.82564 0.0
C152 C 0.08379 0.56098 0.85185 0.0
C153 C 0.10288 0.55244 0.84211 0.0
C154 C 0.05527 0.55025 0.84271 0.0
C155 C 0.04546 0.53114 0.82349 0.0
C156 C 0.09306 0.53357 0.82266 0.0
C157 C 0.06462 0.52296 0.8135 0.0
C158 C 0.01436 0.51758 0.81544 0.0
C159 C 0.04872 0.52875 0.73673 0.0
C160 C 0.06979 0.55862 0.73879 0.0
C161 C 0.02767 0.51496 0.75382 0.0
C162 C 0.02758 0.53059 0.7735 0.0
C163 C 0.06917 0.57431 0.75835 0.0
C164 C 0.04831 0.56043 0.77551 0.0
C165 C 0.0059 0.51567 0.7919 0.0
H166 H 0.86708 0.39814 0.7997 0.0
H167 H 0.91825 0.42941 0.81273 0.0
H168 H 0.8722 0.46842 0.75907 0.0
H169 H 0.92349 0.49989 0.77249 0.0
H170 H 0.88457 0.48152 0.86697 0.0
H171 H 0.91651 0.49701 0.83338 0.0
H172 H 0.93132 0.43985 0.89416 0.0
H173 H 0.9638 0.45637 0.86093 0.0
H174 H 0.09077 0.57566 0.86671 0.0
H175 H 0.04073 0.55664 0.8508 0.0
H176 H 0.10692 0.52601 0.81505 0.0
H177 H 0.05725 0.50749 0.79913 0.0
H178 H 0.04871 0.51589 0.72206 0.0
H179 H 0.01186 0.49191 0.75193 0.0
H180 H 0.08456 0.59744 0.76028 0.0
H181 H 0.04826 0.57307 0.79033 0.0
N182 N 0.97671 0.49966 0.78599 0.0
N183 N 0.99297 0.50476 0.83142 0.0
C184 C 0.49089 0.89597 0.97095 0.0
C185 C 0.46797 0.88545 0.95422 0.0
C186 C 0.50203 0.9237 0.98084 0.0
C187 C 0.49034 0.9414 0.97432 0.0
C188 C 0.45665 0.90341 0.9474 0.0
C189 C 0.46794 0.93125 0.95722 0.0
C190 C 0.50221 0.97087 0.98466 0.0
C191 C 0.45487 0.90904 0.04194 0.0
C192 C 0.47033 0.91369 0.06311 0.0
C193 C 0.46672 0.92924 0.02423 0.0
C194 C 0.49503 0.95394 0.02669 0.0
C195 C 0.49854 0.93864 0.06562 0.0
C196 C 0.51077 0.95832 0.0476 0.0
C197 C 0.50717 0.97679 0.00875 0.0
C198 C 0.56169 0.10806 0.01491 0.0
C199 C 0.58612 0.11462 0.02944 0.0
C200 C 0.54368 0.07981 0.00607 0.0
C201 C 0.55011 0.0577 0.01118 0.0
C202 C 0.59174 0.09213 0.03523 0.0
C203 C 0.57391 0.064 0.02621 0.0
C204 C 0.53217 0.02782 0.00139 0.0
C205 C 0.56891 0.0858 0.9387 0.0
C206 C 0.54612 0.0879 0.9274 0.0
C207 C 0.56222 0.0644 0.95527 0.0
C208 C 0.53267 0.04461 0.9604 0.0
C209 C 0.51661 0.06812 0.93268 0.0
C210 C 0.50994 0.04643 0.94885 0.0
C211 C 0.52502 0.02174 0.97762 0.0
H212 H 0.49992 0.88257 0.97665 0.0
H213 H 0.51981 0.93134 0.99361 0.0
H214 H 0.43923 0.896 0.93434 0.0
H215 H 0.45888 0.94471 0.95172 0.0
H216 H 0.43331 0.89002 0.03904 0.0
H217 H 0.45319 0.92575 0.00891 0.0
H218 H 0.51096 0.94363 0.08176 0.0
H219 H 0.5324 0.9774 0.05025 0.0
H220 H 0.55673 0.12483 0.01003 0.0
H221 H 0.52479 0.07534 0.99524 0.0
H222 H 0.60993 0.09622 0.04679 0.0
H223 H 0.57902 0.04719 0.03072 0.0
H224 H 0.59181 0.10079 0.93479 0.0
H225 H 0.58001 0.06313 0.96396 0.0
H226 H 0.49869 0.06912 0.92395 0.0
H227 H 0.48702 0.03124 0.95257 0.0
N228 N 0.51062 0.99355 0.97011 0.0
N229 N 0.52264 0.0051 0.01604 0.0
C230 C 0.49742 0.59704 0.18137 0.0
C231 C 0.47691 0.59106 0.19894 0.0
C232 C 0.50287 0.57541 0.17314 0.0
C233 C 0.48772 0.54722 0.18213 0.0
C234 C 0.46237 0.56305 0.20843 0.0
C235 C 0.46787 0.54134 0.20016 0.0
C236 C 0.49376 0.52449 0.17329 0.0
C237 C 0.44479 0.53804 0.11468 0.0
C238 C 0.46212 0.5514 0.09524 0.0
C239 C 0.4556 0.52826 0.13259 0.0
C240 C 0.48391 0.53154 0.1314 0.0
C241 C 0.49077 0.55526 0.09444 0.0
C242 C 0.5014 0.54514 0.11222 0.0
C243 C 0.49466 0.51932 0.14941 0.0
C244 C 0.53686 0.43119 0.14755 0.0
C245 C 0.5583 0.44464 0.13049 0.0
C246 C 0.52171 0.44476 0.15609 0.0
C247 C 0.52843 0.47236 0.14814 0.0
C248 C 0.56385 0.47152 0.12181 0.0
C249 C 0.54907 0.48518 0.13052 0.0
C250 C 0.51459 0.48857 0.15776 0.0
C251 C 0.56137 0.4745 0.21821 0.0
C252 C 0.54213 0.4579 0.23583 0.0
C253 C 0.55166 0.48558 0.20048 0.0
C254 C 0.52241 0.47994 0.19986 0.0
C255 C 0.51285 0.45234 0.23515 0.0
C256 C 0.50315 0.46341 0.21739 0.0
C257 C 0.51217 0.49247 0.18174 0.0
H258 H 0.50951 0.61857 0.1741 0.0
H259 H 0.51914 0.58082 0.15983 0.0
H260 H 0.44636 0.55776 0.22193 0.0
H261 H 0.45627 0.51984 0.20755 0.0
H262 H 0.42244 0.53418 0.11571 0.0
H263 H 0.44149 0.51731 0.14704 0.0
H264 H 0.50492 0.56588 0.07995 0.0
H265 H 0.52333 0.54792 0.111 0.0
H266 H 0.53198 0.41032 0.15435 0.0
H267 H 0.50511 0.43389 0.16907 0.0
H268 H 0.58051 0.48258 0.10887 0.0
H269 H 0.55452 0.50634 0.12396 0.0
H270 H 0.58423 0.47972 0.21851 0.0
H271 H 0.56714 0.49896 0.18747 0.0
H272 H 0.49747 0.43953 0.24841 0.0
H273 H 0.48056 0.45903 0.2173 0.0
N274 N 0.50199 0.51043 0.18859 0.0
N275 N 0.50548 0.50198 0.14258 0.0
Zn276 Zn 0.6912 0.46808 0.41087 0.0
Zn277 Zn 0.65815 0.41 0.41629 0.0
O278 O 0.70067 0.41862 0.41281 0.0
O279 O 0.7289 0.46607 0.41046 0.0
O280 O 0.63776 0.36707 0.42247 0.0
O281 O 0.67446 0.47436 0.44037 0.0
O282 O 0.64887 0.42687 0.44505 0.0
C283 C 0.72615 0.44097 0.41084 0.0
C284 C 0.64698 0.43737 0.37421 0.0
O285 O 0.63963 0.41473 0.38618 0.0
O286 O 0.66825 0.46185 0.38093 0.0
C287 C 0.63998 0.34984 0.40827 0.0
O288 O 0.65345 0.36006 0.38862 0.0
C289 C 0.65645 0.45262 0.45192 0.0
Zn290 Zn 0.22239 0.69339 0.5658 0.0
Zn291 Zn 0.25378 0.66578 0.57245 0.0
O292 O 0.28454 0.70916 0.56887 0.0
O293 O 0.26001 0.73228 0.56317 0.0
O294 O 0.27938 0.64779 0.57852 0.0
O295 O 0.20331 0.67871 0.59686 0.0
O296 O 0.22745 0.65485 0.60105 0.0
C297 C 0.28437 0.7327 0.56513 0.0
C298 C 0.2115 0.64884 0.53085 0.0
O299 O 0.23038 0.64561 0.54267 0.0
O300 O 0.20456 0.66759 0.53711 0.0
C301 C 0.30467 0.65822 0.56945 0.0
O302 O 0.31348 0.68002 0.55516 0.0
C303 C 0.20879 0.66171 0.60841 0.0
Zn304 Zn 0.53155 0.21278 0.74705 0.0
Zn305 Zn 0.59068 0.24978 0.75162 0.0
O306 O 0.57416 0.27716 0.74787 0.0
O307 O 0.52617 0.24806 0.74363 0.0
O308 O 0.63418 0.27738 0.75639 0.0
O309 O 0.5316 0.19604 0.77829 0.0
O310 O 0.5797 0.2255 0.78118 0.0
C311 C 0.54842 0.27355 0.74454 0.0
C312 C 0.56605 0.20613 0.71115 0.0
O313 O 0.58777 0.22747 0.72163 0.0
O314 O 0.54011 0.19543 0.71881 0.0
C315 C 0.65013 0.29409 0.74053 0.0
O316 O 0.63797 0.29303 0.72024 0.0
C317 C 0.55578 0.2052 0.78937 0.0
Zn318 Zn 0.33445 0.55607 0.91068 0.0
Zn319 Zn 0.36061 0.61453 0.91417 0.0
O320 O 0.31699 0.60197 0.9092 0.0
O321 O 0.29533 0.55435 0.90493 0.0
O322 O 0.37972 0.65775 0.91939 0.0
O323 O 0.34782 0.55393 0.94309 0.0
O324 O 0.37213 0.60184 0.94425 0.0
C325 C 0.2938 0.57746 0.90531 0.0
C326 C 0.37756 0.58699 0.87528 0.0
O327 O 0.37914 0.60953 0.88474 0.0
O328 O 0.36126 0.56201 0.88364 0.0
C329 C 0.38239 0.67561 0.90381 0.0
O330 O 0.37271 0.66583 0.88268 0.0
C331 C 0.36513 0.57762 0.9536 0.0
Zn332 Zn 0.78997 0.44354 0.07909 0.0
Zn333 Zn 0.75904 0.38525 0.07221 0.0
O334 O 0.72728 0.3959 0.07969 0.0
O335 O 0.75192 0.44343 0.08511 0.0
O336 O 0.73457 0.3424 0.06512 0.0
O337 O 0.80571 0.44864 0.04657 0.0
O338 O 0.78131 0.40098 0.04192 0.0
C339 C 0.72765 0.41957 0.08448 0.0
C340 C 0.80487 0.41085 0.11148 0.0
O341 O 0.78535 0.38872 0.10009 0.0
O342 O 0.81088 0.43624 0.10579 0.0
C343 C 0.72218 0.32337 0.08059 0.0
O344 O 0.72612 0.33163 0.10247 0.0
C345 C 0.79861 0.42622 0.03412 0.0
Zn346 Zn 0.34852 0.78956 0.25051 0.0
Zn347 Zn 0.37979 0.76156 0.24668 0.0
O348 O 0.33728 0.73004 0.25209 0.0
O349 O 0.31019 0.75101 0.25341 0.0
O350 O 0.39819 0.73651 0.24299 0.0
O351 O 0.36443 0.80765 0.21934 0.0
O352 O 0.38779 0.78287 0.21592 0.0
C353 C 0.31223 0.72822 0.25421 0.0
C354 C 0.39479 0.80576 0.28582 0.0
O355 O 0.40058 0.78835 0.27477 0.0
O356 O 0.37353 0.80921 0.27922 0.0
C357 C 0.42532 0.74395 0.24442 0.0
O358 O 0.44515 0.77129 0.24888 0.0
C359 C 0.38069 0.80085 0.20788 0.0
C360 C 0.16499 0.57286 0.26233 0.0
C361 C 0.15809 0.5652 0.28552 0.0
C362 C 0.19091 0.59837 0.25651 0.0
C363 C 0.21033 0.61663 0.27432 0.0
C364 C 0.20413 0.60837 0.29772 0.0
C365 C 0.17805 0.5827 0.30305 0.0
C366 C 0.19691 0.60633 0.23135 0.0
C367 C 0.22438 0.62728 0.31719 0.0
C368 C 0.28834 0.67437 0.25936 0.0
C369 C 0.28584 0.69952 0.25845 0.0
C370 C 0.26392 0.6472 0.26436 0.0
C371 C 0.23633 0.64511 0.26856 0.0
C372 C 0.23353 0.67028 0.26741 0.0
C373 C 0.25833 0.6972 0.26235 0.0
C374 C 0.26769 0.62079 0.26537 0.0
C375 C 0.2044 0.66884 0.27176 0.0
H376 H 0.14974 0.55917 0.24873 0.0
H377 H 0.17263 0.57702 0.321 0.0
H378 H 0.19607 0.62651 0.22816 0.0
H379 H 0.2194 0.61087 0.22693 0.0
H380 H 0.18064 0.58884 0.21955 0.0
H381 H 0.21743 0.61681 0.33429 0.0
H382 H 0.24735 0.63229 0.31413 0.0
H383 H 0.22461 0.64831 0.31782 0.0
H384 H 0.3095 0.67592 0.25635 0.0
H385 H 0.25619 0.71648 0.2617 0.0
H386 H 0.25203 0.60371 0.25303 0.0
H387 H 0.26245 0.61144 0.28293 0.0
H388 H 0.2905 0.62601 0.2612 0.0
H389 H 0.18726 0.65316 0.25942 0.0
H390 H 0.20585 0.69036 0.26997 0.0
H391 H 0.1969 0.66083 0.28945 0.0
C392 C 0.62463 0.19918 0.4479 0.0
C393 C 0.5951 0.17661 0.44847 0.0
C394 C 0.63184 0.22741 0.44139 0.0
C395 C 0.60901 0.23315 0.43504 0.0
C396 C 0.57921 0.21051 0.43552 0.0
C397 C 0.57262 0.18265 0.44243 0.0
C398 C 0.66389 0.25111 0.44132 0.0
C399 C 0.55425 0.21571 0.42874 0.0
C400 C 0.62422 0.31107 0.43797 0.0
C401 C 0.63046 0.31952 0.41484 0.0
C402 C 0.61735 0.28307 0.44479 0.0
C403 C 0.61624 0.26289 0.42803 0.0
C404 C 0.62189 0.27107 0.40458 0.0
C405 C 0.62914 0.29936 0.39829 0.0
C406 C 0.61176 0.27526 0.47001 0.0
C407 C 0.62041 0.24997 0.38615 0.0
H408 H 0.64217 0.19472 0.45227 0.0
H409 H 0.54969 0.16561 0.4433 0.0
H410 H 0.6701 0.25982 0.42363 0.0
H411 H 0.66731 0.26946 0.45282 0.0
H412 H 0.67896 0.24324 0.44716 0.0
H413 H 0.53231 0.19557 0.42944 0.0
H414 H 0.5542 0.23237 0.44045 0.0
H415 H 0.55746 0.22427 0.41093 0.0
H416 H 0.62541 0.32658 0.4509 0.0
H417 H 0.63387 0.30572 0.38039 0.0
H418 H 0.62788 0.26914 0.47665 0.0
H419 H 0.58939 0.25609 0.472 0.0
H420 H 0.61355 0.29348 0.48089 0.0
H421 H 0.63686 0.24317 0.39012 0.0
H422 H 0.62471 0.2595 0.36862 0.0
H423 H 0.59828 0.23004 0.38594 0.0
C424 C 0.40845 0.58865 0.58714 0.0
C425 C 0.42092 0.5942 0.60957 0.0
C426 C 0.38976 0.59917 0.58017 0.0
C427 C 0.38375 0.61613 0.59586 0.0
C428 C 0.39688 0.62253 0.61829 0.0
C429 C 0.41512 0.61133 0.62493 0.0
C430 C 0.37606 0.59175 0.55614 0.0
C431 C 0.39128 0.64084 0.63542 0.0
C432 C 0.35493 0.66353 0.57116 0.0
C433 C 0.32468 0.64707 0.5758 0.0
C434 C 0.37445 0.65383 0.57774 0.0
C435 C 0.36337 0.62679 0.5889 0.0
C436 C 0.33279 0.6099 0.59338 0.0
C437 C 0.31384 0.62036 0.58694 0.0
C438 C 0.40697 0.67266 0.57298 0.0
C439 C 0.32008 0.58075 0.60494 0.0
H440 H 0.4132 0.57592 0.57498 0.0
H441 H 0.42425 0.61542 0.64239 0.0
H442 H 0.35161 0.57961 0.55726 0.0
H443 H 0.38228 0.61198 0.54656 0.0
H444 H 0.38299 0.57833 0.54602 0.0
H445 H 0.4043 0.64502 0.65176 0.0
H446 H 0.39693 0.66205 0.62772 0.0
H447 H 0.36748 0.62969 0.63962 0.0
H448 H 0.36352 0.68432 0.56272 0.0
H449 H 0.29046 0.60749 0.5905 0.0
H450 H 0.41449 0.6606 0.5618 0.0
H451 H 0.41994 0.67811 0.58944 0.0
H452 H 0.41208 0.69326 0.56436 0.0
H453 H 0.3252 0.56605 0.59472 0.0
H454 H 0.29575 0.57006 0.60682 0.0
H455 H 0.33038 0.58351 0.62236 0.0
C456 C 0.81442 0.42201 0.77146 0.0
C457 C 0.8345 0.41181 0.77073 0.0
C458 C 0.78447 0.4036 0.76559 0.0
C459 C 0.77448 0.3744 0.75867 0.0
C460 C 0.79484 0.36424 0.75728 0.0
C461 C 0.82459 0.38304 0.76341 0.0
C462 C 0.76338 0.41515 0.76744 0.0
C463 C 0.78508 0.33333 0.74976 0.0
C464 C 0.69404 0.3178 0.7674 0.0
C465 C 0.68194 0.31473 0.74505 0.0
C466 C 0.72407 0.33731 0.77207 0.0
C467 C 0.74252 0.35405 0.75392 0.0
C468 C 0.73049 0.35107 0.73132 0.0
C469 C 0.7003 0.3315 0.72716 0.0
C470 C 0.73605 0.33999 0.79643 0.0
C471 C 0.74956 0.36845 0.71152 0.0
H472 H 0.82196 0.44416 0.7773 0.0
H473 H 0.84016 0.37522 0.76254 0.0
H474 H 0.75115 0.41168 0.75081 0.0
H475 H 0.74679 0.40305 0.78083 0.0
H476 H 0.77489 0.43874 0.77205 0.0
H477 H 0.80393 0.32929 0.74846 0.0
H478 H 0.7692 0.31792 0.76232 0.0
H479 H 0.77348 0.3284 0.7327 0.0
H480 H 0.68001 0.30502 0.78136 0.0
H481 H 0.69115 0.32923 0.70984 0.0
H482 H 0.74619 0.36288 0.80276 0.0
H483 H 0.75364 0.3341 0.79664 0.0
H484 H 0.71866 0.32577 0.80867 0.0
H485 H 0.75995 0.39209 0.71553 0.0
H486 H 0.73679 0.36368 0.69498 0.0
H487 H 0.76769 0.36358 0.70912 0.0
C488 C 0.47441 0.84532 0.93741 0.0
C489 C 0.45559 0.85561 0.94429 0.0
C490 C 0.463 0.81659 0.92926 0.0
C491 C 0.43202 0.79768 0.92811 0.0
C492 C 0.41289 0.80817 0.93449 0.0
C493 C 0.42492 0.83705 0.94246 0.0
C494 C 0.48409 0.80628 0.92242 0.0
C495 C 0.37974 0.7886 0.93365 0.0
C496 C 0.40013 0.72729 0.89262 0.0
C497 C 0.39555 0.70696 0.90976 0.0
C498 C 0.41219 0.75697 0.89827 0.0
C499 C 0.41965 0.76647 0.92162 0.0
C500 C 0.41515 0.74607 0.93897 0.0
C501 C 0.40325 0.71662 0.93283 0.0
C502 C 0.41685 0.77815 0.8793 0.0
C503 C 0.42273 0.75534 0.96409 0.0
H504 H 0.49814 0.85974 0.9385 0.0
H505 H 0.4103 0.84484 0.94797 0.0
H506 H 0.48188 0.78904 0.93432 0.0
H507 H 0.47856 0.79655 0.90471 0.0
H508 H 0.50747 0.82419 0.92292 0.0
H509 H 0.36794 0.80054 0.93792 0.0
H510 H 0.37235 0.77843 0.91618 0.0
H511 H 0.3732 0.77071 0.94612 0.0
H512 H 0.3943 0.72002 0.87475 0.0
H513 H 0.39975 0.7011 0.94622 0.0
H514 H 0.44044 0.79546 0.879 0.0
H515 H 0.40378 0.78899 0.88274 0.0
H516 H 0.41034 0.76736 0.86196 0.0
H517 H 0.44652 0.77182 0.96604 0.0
H518 H 0.41788 0.73675 0.97546 0.0
H519 H 0.41003 0.76567 0.97016 0.0
C520 C 0.58289 0.43201 0.09928 0.0
C521 C 0.57668 0.4322 0.1228 0.0
C522 C 0.60459 0.42564 0.09212 0.0
C523 C 0.62051 0.41946 0.10892 0.0
C524 C 0.61281 0.41752 0.13252 0.0
C525 C 0.59089 0.42388 0.13918 0.0
C526 C 0.6119 0.4276 0.06677 0.0
C527 C 0.62925 0.41097 0.15095 0.0
C528 C 0.6727 0.39313 0.08974 0.0
C529 C 0.69991 0.41928 0.09006 0.0
C530 C 0.64652 0.39273 0.09574 0.0
C531 C 0.64768 0.41908 0.10226 0.0
C532 C 0.67502 0.44552 0.10247 0.0
C533 C 0.70075 0.4453 0.09634 0.0
C534 C 0.61771 0.36418 0.09524 0.0
C535 C 0.67718 0.47411 0.10932 0.0
H536 H 0.57159 0.43806 0.08656 0.0
H537 H 0.58626 0.42417 0.15739 0.0
H538 H 0.63346 0.44754 0.06392 0.0
H539 H 0.61403 0.40869 0.06114 0.0
H540 H 0.59489 0.42852 0.05568 0.0
H541 H 0.61804 0.40635 0.16787 0.0
H542 H 0.63155 0.39204 0.14567 0.0
H543 H 0.65186 0.42995 0.15327 0.0
H544 H 0.67184 0.37291 0.08492 0.0
H545 H 0.72162 0.46561 0.09666 0.0
H546 H 0.60157 0.36559 0.08346 0.0
H547 H 0.60806 0.35951 0.11274 0.0
H548 H 0.62049 0.34568 0.08943 0.0
H549 H 0.66296 0.47858 0.09766 0.0
H550 H 0.70016 0.49272 0.10861 0.0
H551 H 0.66909 0.47287 0.12717 0.0
C552 C 0.42397 0.86486 0.51 0.0
C553 C 0.44107 0.88842 0.52512 0.0
C554 C 0.39993 0.83912 0.51801 0.0
C555 C 0.39286 0.8368 0.54175 0.0
C556 C 0.41079 0.86 0.5573 0.0
C557 C 0.43466 0.88557 0.54878 0.0
C558 C 0.38144 0.81481 0.50088 0.0
C559 C 0.40403 0.85828 0.58275 0.0
C560 C 0.31226 0.78544 0.55499 0.0
C561 C 0.31253 0.76012 0.56138 0.0
C562 C 0.3384 0.81078 0.5492 0.0
C563 C 0.36554 0.8109 0.5499 0.0
C564 C 0.36618 0.7858 0.55716 0.0
C565 C 0.33965 0.76069 0.5628 0.0
C566 C 0.33681 0.83713 0.54156 0.0
C567 C 0.39472 0.78517 0.55829 0.0
H568 H 0.42912 0.86674 0.49176 0.0
H569 H 0.44759 0.90378 0.56055 0.0
H570 H 0.37943 0.79406 0.50678 0.0
H571 H 0.35879 0.81162 0.49979 0.0
H572 H 0.39088 0.81936 0.48328 0.0
H573 H 0.42164 0.87697 0.59285 0.0
H574 H 0.38288 0.85804 0.58512 0.0
H575 H 0.40128 0.83777 0.58995 0.0
H576 H 0.29147 0.78528 0.55389 0.0
H577 H 0.34015 0.74131 0.56785 0.0
H578 H 0.34356 0.84181 0.52325 0.0
H579 H 0.35237 0.85656 0.55207 0.0
H580 H 0.31424 0.83401 0.54307 0.0
H581 H 0.40361 0.7873 0.54063 0.0
H582 H 0.39177 0.7647 0.56581 0.0
H583 H 0.41152 0.80389 0.56882 0.0
C584 C 0.52668 0.41141 0.72125 0.0
C585 C 0.52912 0.41628 0.69734 0.0
C586 C 0.5302 0.38911 0.73087 0.0
C587 C 0.53622 0.37123 0.71623 0.0
C588 C 0.5391 0.37629 0.69214 0.0
C589 C 0.53556 0.39878 0.683 0.0
C590 C 0.52701 0.38435 0.75664 0.0
C591 C 0.54561 0.35775 0.67596 0.0
C592 C 0.56954 0.32719 0.73965 0.0
C593 C 0.5448 0.29903 0.73983 0.0
C594 C 0.56691 0.35112 0.73278 0.0
C595 C 0.5389 0.34677 0.72589 0.0
C596 C 0.51368 0.31864 0.72691 0.0
C597 C 0.51692 0.29511 0.73389 0.0
C598 C 0.59429 0.38085 0.73206 0.0
C599 C 0.48342 0.31317 0.71973 0.0
H600 H 0.52137 0.42464 0.73239 0.0
H601 H 0.53792 0.40272 0.66457 0.0
H602 H 0.50804 0.36242 0.76007 0.0
H603 H 0.54705 0.38516 0.76411 0.0
H604 H 0.52345 0.40086 0.76575 0.0
H605 H 0.54761 0.36482 0.65772 0.0
H606 H 0.56648 0.35866 0.68139 0.0
H607 H 0.52774 0.33467 0.6768 0.0
H608 H 0.59117 0.33049 0.74428 0.0
H609 H 0.49766 0.27347 0.73403 0.0
H610 H 0.59075 0.39706 0.7416 0.0
H611 H 0.59897 0.38802 0.71386 0.0
H612 H 0.61399 0.38097 0.73962 0.0
H613 H 0.47819 0.32827 0.72921 0.0
H614 H 0.46579 0.29044 0.72298 0.0
H615 H 0.48312 0.31744 0.701 0.0
C616 C 0.15664 0.56836 0.83918 0.0
C617 C 0.13219 0.56149 0.85298 0.0
C618 C 0.1835 0.57354 0.84907 0.0
C619 C 0.18603 0.57206 0.87337 0.0
C620 C 0.16196 0.56669 0.8875 0.0
C621 C 0.13526 0.56133 0.87713 0.0
C622 C 0.2087 0.57924 0.83341 0.0
C623 C 0.16392 0.56518 0.91349 0.0
C624 C 0.24043 0.54917 0.89363 0.0
C625 C 0.26543 0.57603 0.89944 0.0
C626 C 0.21423 0.54758 0.88571 0.0
C627 C 0.21288 0.57346 0.88367 0.0
C628 C 0.2376 0.60054 0.89037 0.0
C629 C 0.26364 0.60152 0.89814 0.0
C630 C 0.1883 0.51826 0.87875 0.0
C631 C 0.23682 0.62854 0.88865 0.0
H632 H 0.15459 0.56907 0.82054 0.0
H633 H 0.1164 0.55576 0.88792 0.0
H634 H 0.22917 0.59924 0.83918 0.0
H635 H 0.21315 0.56089 0.83436 0.0
H636 H 0.20389 0.58175 0.81507 0.0
H637 H 0.14461 0.56426 0.92215 0.0
H638 H 0.16498 0.54547 0.91811 0.0
H639 H 0.18438 0.58434 0.92042 0.0
H640 H 0.24153 0.52933 0.89464 0.0
H641 H 0.28282 0.62237 0.90266 0.0
H642 H 0.18341 0.51792 0.85998 0.0
H643 H 0.16829 0.51434 0.88814 0.0
H644 H 0.19251 0.50009 0.88232 0.0
H645 H 0.23484 0.63306 0.87021 0.0
H646 H 0.25699 0.64744 0.8963 0.0
H647 H 0.2172 0.6265 0.89755 0.0
C648 C 0.59444 0.16255 0.04517 0.0
C649 C 0.606 0.14488 0.03819 0.0
C650 C 0.6131 0.1914 0.0528 0.0
C651 C 0.64404 0.20278 0.05368 0.0
C652 C 0.65583 0.18495 0.04706 0.0
C653 C 0.6367 0.1563 0.03927 0.0
C654 C 0.59973 0.20983 0.05962 0.0
C655 C 0.68871 0.19629 0.04784 0.0
C656 C 0.69446 0.28459 0.05049 0.0
C657 C 0.70255 0.29243 0.07382 0.0
C658 C 0.67531 0.25552 0.04375 0.0
C659 C 0.66419 0.23368 0.06071 0.0
C660 C 0.67243 0.24136 0.08427 0.0
C661 C 0.69142 0.2707 0.09056 0.0
C662 C 0.66684 0.24821 0.01847 0.0
C663 C 0.66123 0.21859 0.1028 0.0
H664 H 0.57074 0.15379 0.04475 0.0
H665 H 0.6459 0.14302 0.03358 0.0
H666 H 0.60643 0.21814 0.07764 0.0
H667 H 0.60813 0.22903 0.04829 0.0
H668 H 0.57522 0.19756 0.05832 0.0
H669 H 0.69421 0.17919 0.04323 0.0
H670 H 0.69992 0.2145 0.03563 0.0
H671 H 0.69784 0.20501 0.06541 0.0
H672 H 0.70284 0.30125 0.03744 0.0
H673 H 0.69762 0.27657 0.10861 0.0
H674 H 0.64249 0.23748 0.01622 0.0
H675 H 0.67359 0.23261 0.01218 0.0
H676 H 0.67721 0.26779 0.00748 0.0
H677 H 0.63674 0.20705 0.103 0.0
H678 H 0.66989 0.22812 0.1203 0.0
H679 H 0.66776 0.20207 0.09894 0.0
C680 C 0.46788 0.61824 0.23064 0.0
C681 C 0.47054 0.614 0.20699 0.0
C682 C 0.46182 0.6399 0.23829 0.0
C683 C 0.4583 0.65764 0.22188 0.0
C684 C 0.46118 0.65359 0.19802 0.0
C685 C 0.46721 0.6318 0.19087 0.0
C686 C 0.45888 0.64361 0.26388 0.0
C687 C 0.45737 0.67193 0.17997 0.0
C688 C 0.41236 0.69261 0.23596 0.0
C689 C 0.43414 0.72179 0.24012 0.0
C690 C 0.41998 0.67141 0.23064 0.0
C691 C 0.45013 0.67952 0.22943 0.0
C692 C 0.47227 0.70873 0.23421 0.0
C693 C 0.46401 0.72956 0.23951 0.0
C694 C 0.39571 0.64047 0.22568 0.0
C695 C 0.50466 0.71811 0.23312 0.0
H696 H 0.47079 0.60478 0.24319 0.0
H697 H 0.46881 0.62835 0.17255 0.0
H698 H 0.47448 0.6664 0.2695 0.0
H699 H 0.43625 0.63929 0.26749 0.0
H700 H 0.46328 0.62875 0.27445 0.0
H701 H 0.46146 0.66677 0.16219 0.0
H702 H 0.43459 0.66837 0.18047 0.0
H703 H 0.47275 0.69538 0.18374 0.0
H704 H 0.3892 0.68631 0.23653 0.0
H705 H 0.48095 0.75202 0.24277 0.0
H706 H 0.39862 0.62521 0.2369 0.0
H707 H 0.3969 0.63437 0.20747 0.0
H708 H 0.37336 0.63745 0.22849 0.0
H709 H 0.50964 0.70412 0.24426 0.0
H710 H 0.51911 0.7412 0.23867 0.0
H711 H 0.51025 0.7154 0.21514 0.0
C712 C 0.87034 0.42684 0.38802 0.0
C713 C 0.87154 0.42378 0.36397 0.0
C714 C 0.84629 0.42738 0.39807 0.0
C715 C 0.82305 0.425 0.3837 0.0
C716 C 0.8235 0.42055 0.35955 0.0
C717 C 0.84767 0.41988 0.35 0.0
C718 C 0.84643 0.43186 0.42392 0.0
C719 C 0.79906 0.4178 0.34363 0.0
C720 C 0.74904 0.40945 0.40694 0.0
C721 C 0.75206 0.43729 0.40684 0.0
C722 C 0.77242 0.40521 0.40041 0.0
C723 C 0.79936 0.42936 0.3935 0.0
C724 C 0.80298 0.45766 0.39434 0.0
C725 C 0.77932 0.4613 0.40108 0.0
C726 C 0.76787 0.37476 0.4 0.0
C727 C 0.83139 0.48397 0.38708 0.0
H728 H 0.88881 0.43012 0.39892 0.0
H729 H 0.84824 0.41699 0.33145 0.0
H730 H 0.84965 0.45382 0.4277 0.0
H731 H 0.8249 0.41573 0.43121 0.0
H732 H 0.86429 0.42997 0.4329 0.0
H733 H 0.80187 0.41269 0.32547 0.0
H734 H 0.7773 0.40046 0.34967 0.0
H735 H 0.79864 0.43851 0.34393 0.0
H736 H 0.7281 0.39077 0.41149 0.0
H737 H 0.78191 0.48289 0.401 0.0
H738 H 0.78643 0.37434 0.40914 0.0
H739 H 0.76754 0.36763 0.38184 0.0
H740 H 0.74683 0.35884 0.40814 0.0
H741 H 0.85047 0.48516 0.39669 0.0
H742 H 0.8313 0.50465 0.3901 0.0
H743 H 0.83486 0.48202 0.36839 0.0
C744 C 0.10494 0.53187 0.43656 0.0
C745 C 0.11483 0.53937 0.41385 0.0
C746 C 0.12221 0.54873 0.45555 0.0
C747 C 0.15003 0.57373 0.45175 0.0
C748 C 0.1606 0.58084 0.42894 0.0
C749 C 0.14287 0.56358 0.41026 0.0
C750 C 0.11013 0.54045 0.47961 0.0
C751 C 0.1902 0.60725 0.42419 0.0
C752 C 0.17656 0.63439 0.49693 0.0
C753 C 0.19688 0.63024 0.51006 0.0
C754 C 0.16154 0.6164 0.47776 0.0
C755 C 0.16691 0.59363 0.47148 0.0
C756 C 0.18772 0.58954 0.48437 0.0
C757 C 0.20248 0.60792 0.50352 0.0
C758 C 0.13957 0.62152 0.46442 0.0
C759 C 0.19402 0.56549 0.47815 0.0
H760 H 0.08319 0.5134 0.43947 0.0
H761 H 0.15083 0.56923 0.39277 0.0
H762 H 0.12654 0.53926 0.49121 0.0
H763 H 0.10588 0.55742 0.48689 0.0
H764 H 0.08922 0.51919 0.47978 0.0
H765 H 0.1962 0.60851 0.40569 0.0
H766 H 0.18972 0.6273 0.42902 0.0
H767 H 0.20777 0.60694 0.43492 0.0
H768 H 0.17211 0.65161 0.50175 0.0
H769 H 0.21815 0.60454 0.51353 0.0
H770 H 0.11723 0.60199 0.46525 0.0
H771 H 0.14556 0.62508 0.4459 0.0
H772 H 0.13846 0.64061 0.47121 0.0
H773 H 0.17363 0.54403 0.47979 0.0
H774 H 0.21162 0.56588 0.48937 0.0
H775 H 0.20086 0.56737 0.45986 0.0
C776 C 0.59506 0.13568 0.59803 0.0
C777 C 0.57209 0.12884 0.58187 0.0
C778 C 0.59686 0.14994 0.61908 0.0
C779 C 0.57585 0.1586 0.62376 0.0
C780 C 0.55374 0.15345 0.607 0.0
C781 C 0.5518 0.13821 0.58648 0.0
C782 C 0.6204 0.15451 0.63673 0.0
C783 C 0.53138 0.16305 0.61111 0.0
C784 C 0.55432 0.16398 0.68518 0.0
C785 C 0.57066 0.19402 0.68961 0.0
C786 C 0.55687 0.1521 0.66417 0.0
C787 C 0.57539 0.17088 0.64687 0.0
C788 C 0.59222 0.20127 0.65137 0.0
C789 C 0.59002 0.21246 0.67292 0.0
C790 C 0.53929 0.1195 0.66033 0.0
C791 C 0.61147 0.22203 0.6331 0.0
H792 H 0.61141 0.12937 0.59449 0.0
H793 H 0.53366 0.13282 0.57447 0.0
H794 H 0.63312 0.17769 0.64236 0.0
H795 H 0.60981 0.14156 0.65231 0.0
H796 H 0.63603 0.14791 0.62995 0.0
H797 H 0.51805 0.16071 0.59528 0.0
H798 H 0.51613 0.14975 0.62489 0.0
H799 H 0.54261 0.18613 0.61712 0.0
H800 H 0.53952 0.14975 0.69822 0.0
H801 H 0.60244 0.23575 0.67634 0.0
H802 H 0.55398 0.11129 0.65444 0.0
H803 H 0.5223 0.11404 0.64653 0.0
H804 H 0.52803 0.10783 0.67624 0.0
H805 H 0.62709 0.21543 0.62642 0.0
H806 H 0.6243 0.24484 0.63975 0.0
H807 H 0.59743 0.22127 0.61824 0.0
C808 C 0.46615 0.5979 0.75957 0.0
C809 C 0.44635 0.5755 0.74443 0.0
C810 C 0.45682 0.60322 0.78081 0.0
C811 C 0.42676 0.58639 0.78675 0.0
C812 C 0.40627 0.56515 0.77092 0.0
C813 C 0.41636 0.55966 0.75014 0.0
C814 C 0.47941 0.62576 0.79739 0.0
C815 C 0.37386 0.54722 0.7764 0.0
C816 C 0.40353 0.57003 0.84914 0.0
C817 C 0.39325 0.58937 0.85367 0.0
C818 C 0.41587 0.56992 0.82777 0.0
C819 C 0.41705 0.58898 0.81029 0.0
C820 C 0.40732 0.60906 0.81497 0.0
C821 C 0.39589 0.6093 0.83681 0.0
C822 C 0.42682 0.54877 0.82369 0.0
C823 C 0.40752 0.62918 0.79659 0.0
H824 H 0.48922 0.61087 0.75513 0.0
H825 H 0.40079 0.54207 0.73888 0.0
H826 H 0.47205 0.64097 0.80346 0.0
H827 H 0.48173 0.61478 0.81286 0.0
H828 H 0.50145 0.63857 0.78946 0.0
H829 H 0.36033 0.53431 0.76115 0.0
H830 H 0.37082 0.53197 0.7905 0.0
H831 H 0.36537 0.5615 0.78255 0.0
H832 H 0.40166 0.55476 0.86227 0.0
H833 H 0.38765 0.62407 0.84027 0.0
H834 H 0.44955 0.56033 0.81684 0.0
H835 H 0.41248 0.53212 0.81054 0.0
H836 H 0.42692 0.53744 0.83974 0.0
H837 H 0.42961 0.64131 0.7887 0.0
H838 H 0.40149 0.64508 0.80354 0.0
H839 H 0.39151 0.61612 0.78254 0.0
C840 C 0.9011 0.45441 0.92647 0.0
C841 C 0.88763 0.45209 0.90478 0.0
C842 C 0.88511 0.44864 0.94693 0.0
C843 C 0.85496 0.44077 0.94579 0.0
C844 C 0.84107 0.4381 0.92401 0.0
C845 C 0.85753 0.44364 0.90375 0.0
C846 C 0.90069 0.45155 0.96982 0.0
C847 C 0.80899 0.42993 0.92214 0.0
C848 C 0.80961 0.40538 -0.00096 0.0
C849 C 0.81124 0.42945 0.01078 0.0
C850 C 0.82318 0.40859 0.97759 0.0
C851 C 0.83842 0.43645 0.96754 0.0
C852 C 0.8393 0.46062 0.97895 0.0
C853 C 0.82586 0.45686 0.00048 0.0
C854 C 0.82203 0.38237 0.96605 0.0
C855 C 0.85504 0.49061 0.96865 0.0
H856 H 0.92444 0.46146 0.92755 0.0
H857 H 0.8468 0.44139 0.88709 0.0
H858 H 0.9012 0.4694 0.98036 0.0
H859 H 0.88846 0.43121 0.97974 0.0
H860 H 0.92375 0.45626 0.96764 0.0
H861 H 0.80127 0.42804 0.90388 0.0
H862 H 0.79494 0.40888 0.93072 0.0
H863 H 0.8057 0.44659 0.93123 0.0
H864 H 0.7984 0.38413 0.00689 0.0
H865 H 0.82702 0.47552 0.00934 0.0
H866 H 0.84468 0.38562 0.96515 0.0
H867 H 0.81344 0.37973 0.94802 0.0
H868 H 0.80792 0.36195 0.97546 0.0
H869 H 0.87903 0.49839 0.96769 0.0
H870 H 0.85205 0.50672 0.97896 0.0
H871 H 0.84679 0.48983 0.95073 0.0
C872 C 0.47406 0.88937 0.09928 0.0
C873 C 0.45652 0.8936 0.0829 0.0
C874 C 0.46166 0.87285 0.11912 0.0
C875 C 0.4308 0.8592 0.12227 0.0
C876 C 0.41273 0.86196 0.10526 0.0
C877 C 0.42582 0.87955 0.08607 0.0
C878 C 0.48178 0.87099 0.13715 0.0
C879 C 0.3796 0.84707 0.10768 0.0
C880 C 0.39715 0.80024 0.16753 0.0
C881 C 0.39286 0.81525 0.18576 0.0
C882 C 0.40895 0.81406 0.14651 0.0
C883 C 0.41766 0.84384 0.14413 0.0
C884 C 0.41377 0.85916 0.16269 0.0
C885 C 0.40092 0.84452 0.18313 0.0
C886 C 0.41176 0.79677 0.12681 0.0
C887 C 0.42359 0.89115 0.16111 0.0
H888 H 0.49764 0.89934 0.09686 0.0
H889 H 0.41188 0.88288 0.07395 0.0
H890 H 0.48026 0.88096 0.15368 0.0
H891 H 0.47473 0.84791 0.1406 0.0
H892 H 0.50523 0.88227 0.13184 0.0
H893 H 0.3684 0.84831 0.09162 0.0
H894 H 0.37053 0.82382 0.112 0.0
H895 H 0.37411 0.85746 0.12204 0.0
H896 H 0.39076 0.77754 0.16957 0.0
H897 H 0.39792 0.85622 0.19736 0.0
H898 H 0.43525 0.8064 0.12199 0.0
H899 H 0.3995 0.79769 0.11133 0.0
H900 H 0.40311 0.77358 0.13122 0.0
H901 H 0.44737 0.9037 0.15685 0.0
H902 H 0.42018 0.90013 0.17748 0.0
H903 H 0.41118 0.8946 0.14699 0.0
C904 C 0.54615 0.45148 0.27832 0.0
C905 C 0.55322 0.4481 0.25559 0.0
C906 C 0.5591 0.44554 0.29732 0.0
C907 C 0.57967 0.43603 0.29351 0.0
C908 C 0.58565 0.43101 0.27063 0.0
C909 C 0.57239 0.43716 0.25192 0.0
C910 C 0.55216 0.45123 0.32145 0.0
C911 C 0.60727 0.42067 0.26586 0.0
C912 C 0.64021 0.4608 0.33927 0.0
C913 C 0.63042 0.43585 0.35273 0.0
C914 C 0.62421 0.4608 0.31969 0.0
C915 C 0.59767 0.43518 0.31327 0.0
C916 C 0.588 0.4096 0.32632 0.0
C917 C 0.60451 0.41023 0.34595 0.0
C918 C 0.63538 0.48854 0.30622 0.0
C919 C 0.55986 0.38186 0.31989 0.0
H920 H 0.53157 0.46015 0.28131 0.0
H921 H 0.57754 0.43403 0.23438 0.0
H922 H 0.54689 0.43248 0.33271 0.0
H923 H 0.57183 0.47055 0.32916 0.0
H924 H 0.53331 0.45534 0.32156 0.0
H925 H 0.60654 0.41417 0.24742 0.0
H926 H 0.63001 0.43841 0.27021 0.0
H927 H 0.60268 0.40191 0.27688 0.0
H928 H 0.6603 0.48067 0.34422 0.0
H929 H 0.59681 0.39083 0.35621 0.0
H930 H 0.6191 0.49613 0.30691 0.0
H931 H 0.6379 0.48446 0.28775 0.0
H932 H 0.65696 0.50629 0.31303 0.0
H933 H 0.54067 0.38518 0.32202 0.0
H934 H 0.55654 0.36331 0.33072 0.0
H935 H 0.5601 0.37604 0.30143 0.0
C936 C 0.48036 0.89306 0.40173 0.0
C937 C 0.49904 0.92224 0.39595 0.0
C938 C 0.46564 0.87157 0.38446 0.0
C939 C 0.46973 0.87956 0.36091 0.0
C940 C 0.49014 0.90862 0.35498 0.0
C941 C 0.50454 0.92962 0.37259 0.0
C942 C 0.44413 0.84081 0.39146 0.0
C943 C 0.49529 0.91798 0.33007 0.0
C944 C 0.43936 0.82293 0.31203 0.0
C945 C 0.41327 0.82293 0.30599 0.0
C946 C 0.45775 0.84072 0.33029 0.0
C947 C 0.44979 0.85882 0.34272 0.0
C948 C 0.42308 0.85825 0.3371 0.0
C949 C 0.4052 0.84036 0.31885 0.0
C950 C 0.48602 0.84072 0.33589 0.0
C951 C 0.41371 0.87715 0.35 0.0
H952 H 0.47594 0.88727 0.41977 0.0
H953 H 0.51938 0.95209 0.36808 0.0
H954 H 0.42121 0.8363 0.38846 0.0
H955 H 0.44698 0.8249 0.38081 0.0
H956 H 0.4468 0.83718 0.41003 0.0
H957 H 0.51437 0.94036 0.32829 0.0
H958 H 0.49925 0.90274 0.3195 0.0
H959 H 0.47528 0.91747 0.32282 0.0
H960 H 0.44574 0.8095 0.3022 0.0
H961 H 0.385 0.84038 0.31446 0.0
H962 H 0.48731 0.83694 0.35461 0.0
H963 H 0.50525 0.86234 0.33207 0.0
H964 H 0.48795 0.82384 0.32579 0.0
H965 H 0.41281 0.87296 0.36883 0.0
H966 H 0.39173 0.8733 0.34405 0.0
H967 H 0.43019 0.90047 0.34757 0.0
C968 C 0.55158 0.4606 0.54704 0.0
C969 C 0.56745 0.4803 0.56522 0.0
C970 C 0.56616 0.45515 0.52912 0.0
C971 C 0.59737 0.46894 0.52973 0.0
C972 C 0.61352 0.48791 0.54842 0.0
C973 C 0.59845 0.49376 0.56568 0.0
C974 C 0.54818 0.43525 0.50919 0.0
C975 C 0.6468 0.50255 0.54995 0.0
C976 C 0.63281 0.43741 0.49057 0.0
C977 C 0.6425 0.45718 0.47238 0.0
C978 C 0.61866 0.44129 0.50967 0.0
C979 C 0.61323 0.46492 0.51011 0.0
C980 C 0.62281 0.4848 0.49167 0.0
C981 C 0.63774 0.48094 0.47321 0.0
C982 C 0.60959 0.4202 0.52937 0.0
C983 C 0.61674 0.50981 0.49118 0.0
H984 H 0.52766 0.44949 0.54666 0.0
H985 H 0.61118 0.50945 0.57926 0.0
H986 H 0.55463 0.44746 0.4928 0.0
H987 H 0.55275 0.41704 0.50737 0.0
H988 H 0.52406 0.426 0.51141 0.0
H989 H 0.6558 0.51424 0.56675 0.0
H990 H 0.65397 0.48622 0.54768 0.0
H991 H 0.65665 0.51845 0.53584 0.0
H992 H 0.63659 0.41909 0.48997 0.0
H993 H 0.64488 0.49606 0.45902 0.0
H994 H 0.58525 0.40869 0.53115 0.0
H995 H 0.61944 0.43223 0.54589 0.0
H996 H 0.61656 0.40373 0.52682 0.0
H997 H 0.59261 0.50137 0.49219 0.0
H998 H 0.62501 0.52286 0.47527 0.0
H999 H 0.62734 0.52443 0.50642 0.0
C1000 C 0.0842 0.56653 0.69703 0.0
C1001 C 0.09208 0.57347 0.7205 0.0
C1002 C 0.10473 0.58086 0.67959 0.0
C1003 C 0.13379 0.60297 0.6857 0.0
C1004 C 0.14203 0.60993 0.70932 0.0
C1005 C 0.12114 0.59499 0.72643 0.0
C1006 C 0.09513 0.57268 0.65459 0.0
C1007 C 0.17276 0.63348 0.7165 0.0
C1008 C 0.19201 0.62435 0.63952 0.0
C1009 C 0.19189 0.64835 0.62961 0.0
C1010 C 0.17372 0.60974 0.65817 0.0
C1011 C 0.1551 0.61953 0.66725 0.0
C1012 C 0.15575 0.64442 0.65792 0.0
C1013 C 0.17402 0.65844 0.63917 0.0
C1014 C 0.17353 0.58319 0.66759 0.0
C1015 C 0.13649 0.65576 0.6673 0.0
H1016 H 0.06174 0.55028 0.69221 0.0
H1017 H 0.12764 0.60016 0.7445 0.0
H1018 H 0.09626 0.59155 0.64553 0.0
H1019 H 0.1103 0.56697 0.64569 0.0
H1020 H 0.07224 0.55397 0.65278 0.0
H1021 H 0.17588 0.63577 0.73561 0.0
H1022 H 0.18942 0.62868 0.70919 0.0
H1023 H 0.17719 0.65466 0.70948 0.0
H1024 H 0.20568 0.61636 0.63223 0.0
H1025 H 0.17391 0.67708 0.63175 0.0
H1026 H 0.15154 0.56365 0.66428 0.0
H1027 H 0.17734 0.58546 0.68661 0.0
H1028 H 0.1906 0.57945 0.65961 0.0
H1029 H 0.11288 0.6393 0.66425 0.0
H1030 H 0.14097 0.67641 0.65911 0.0
H1031 H 0.14003 0.65954 0.68628 0.0
C1032 C 0.54091 0.12838 0.91081 0.0
C1033 C 0.55268 0.10981 0.9094 0.0
C1034 C 0.54409 0.14699 0.89261 0.0
C1035 C 0.55875 0.1464 0.87234 0.0
C1036 C 0.57164 0.12844 0.87123 0.0
C1037 C 0.56868 0.11052 0.88992 0.0
C1038 C 0.53062 0.16629 0.89467 0.0
C1039 C 0.58701 0.12682 0.84978 0.0
C1040 C 0.53295 0.16309 0.81596 0.0
C1041 C 0.5563 0.191 0.81115 0.0
C1042 C 0.5336 0.14841 0.83579 0.0
C1043 C 0.55792 0.16219 0.85148 0.0
C1044 C 0.58129 0.19063 0.84703 0.0
C1045 C 0.58036 0.2046 0.82675 0.0
C1046 C 0.50845 0.1179 0.83971 0.0
C1047 C 0.60725 0.20622 0.86364 0.0
H1048 H 0.52873 0.12792 0.92601 0.0
H1049 H 0.57758 0.09596 0.88883 0.0
H1050 H 0.54673 0.18884 0.88956 0.0
H1051 H 0.51121 0.15816 0.88274 0.0
H1052 H 0.52329 0.16689 0.91253 0.0
H1053 H 0.59786 0.11359 0.85237 0.0
H1054 H 0.57067 0.11695 0.8353 0.0
H1055 H 0.60392 0.14897 0.84447 0.0
H1056 H 0.5144 0.15233 0.8039 0.0
H1057 H 0.59841 0.22623 0.82316 0.0
H1058 H 0.49773 0.11708 0.85635 0.0
H1059 H 0.51706 0.10259 0.84088 0.0
H1060 H 0.4914 0.11013 0.82565 0.0
H1061 H 0.59936 0.2073 0.88117 0.0
H1062 H 0.62304 0.2287 0.85811 0.0
H1063 H 0.6192 0.19392 0.86508 0.0
C1064 C 0.45554 0.55467 0.05256 0.0
C1065 C 0.44968 0.55959 0.07529 0.0
C1066 C 0.44246 0.56035 0.03352 0.0
C1067 C 0.42264 0.57078 0.03724 0.0
C1068 C 0.41714 0.57649 0.06006 0.0
C1069 C 0.43086 0.57099 0.07882 0.0
C1070 C 0.4491 0.55419 0.00942 0.0
C1071 C 0.39602 0.5875 0.06468 0.0
C1072 C 0.40397 0.60158 0.9848 0.0
C1073 C 0.37831 0.57696 0.97623 0.0
C1074 C 0.41824 0.60022 0.0051 0.0
C1075 C 0.40629 0.57375 0.01722 0.0
C1076 C 0.37965 0.54926 0.00924 0.0
C1077 C 0.36609 0.55111 0.98876 0.0
C1078 C 0.44676 0.62669 0.01298 0.0
C1079 C 0.36597 0.52076 0.02188 0.0
H1080 H 0.46962 0.54543 0.04959 0.0
H1081 H 0.42658 0.57534 0.09628 0.0
H1082 H 0.42885 0.53591 0.00135 0.0
H1083 H 0.45601 0.57348 0.99839 0.0
H1084 H 0.46678 0.54838 0.00941 0.0
H1085 H 0.39557 0.5926 0.08331 0.0
H1086 H 0.4022 0.60736 0.05458 0.0
H1087 H 0.37337 0.57079 0.05897 0.0
H1088 H 0.41356 0.62162 0.97517 0.0
H1089 H 0.34609 0.53209 0.98238 0.0
H1090 H 0.46527 0.62226 0.01113 0.0
H1091 H 0.4458 0.63157 0.03155 0.0
H1092 H 0.45178 0.64626 0.00281 0.0
H1093 H 0.38074 0.51138 0.02099 0.0
H1094 H 0.34401 0.50456 0.01446 0.0
H1095 H 0.3634 0.52439 0.04044 0.0
C1096 C 0.87769 0.39933 0.23073 0.0
C1097 C 0.90701 0.40671 0.22684 0.0
C1098 C 0.85847 0.39553 0.21213 0.0
C1099 C 0.86889 0.39906 0.1892 0.0
C1100 C 0.8978 0.40433 0.18519 0.0
C1101 C 0.91655 0.4082 0.20407 0.0
C1102 C 0.8278 0.38992 0.21713 0.0
C1103 C 0.90968 0.40794 0.16101 0.0
C1104 C 0.81632 0.37978 0.13738 0.0
C1105 C 0.82056 0.40726 0.1316 0.0
C1106 C 0.83155 0.37656 0.15631 0.0
C1107 C 0.85132 0.40137 0.16976 0.0
C1108 C 0.85531 0.42903 0.1642 0.0
C1109 C 0.83998 0.43163 0.1452 0.0
C1110 C 0.82683 0.34676 0.16172 0.0
C1111 C 0.87612 0.45604 0.17817 0.0
H1112 H 0.87031 0.39829 0.24834 0.0
H1113 H 0.93913 0.41352 0.20106 0.0
H1114 H 0.82674 0.40996 0.21385 0.0
H1115 H 0.81121 0.37249 0.2055 0.0
H1116 H 0.82163 0.38357 0.23537 0.0
H1117 H 0.93102 0.40813 0.16066 0.0
H1118 H 0.89357 0.39016 0.14938 0.0
H1119 H 0.91317 0.42879 0.15394 0.0
H1120 H 0.80131 0.36082 0.127 0.0
H1121 H 0.8433 0.45293 0.141 0.0
H1122 H 0.82002 0.34133 0.17994 0.0
H1123 H 0.84787 0.34666 0.1598 0.0
H1124 H 0.80978 0.32949 0.1502 0.0
H1125 H 0.86995 0.453 0.19666 0.0
H1126 H 0.87599 0.47576 0.172 0.0
H1127 H 0.89899 0.45993 0.17718 0.0
loop_
_geom_bond_atom_site_label_1
_geom_bond_atom_site_label_2
_geom_bond_distance
_geom_bond_site_symmetry_2
_ccdc_geom_bond_type
C0 C1 1.384 . S
C0 C2 1.384 . S
C0 H28 0.931 . S
C1 C0 1.384 . S
C1 C4 1.382 . S
C2 C0 1.384 . S
C2 C3 1.381 . S
C2 H29 0.930 . S
C3 C2 1.381 . S
C3 C5 1.381 . S
C3 C6 1.487 . S
C4 C1 1.382 . S
C4 C5 1.387 . S
C4 H30 0.930 . S
C5 C3 1.381 . S
C5 C4 1.387 . S
C5 H31 0.931 . S
C6 C3 1.487 . S
C6 C13 1.399 . S
C6 N44 1.343 . S
C7 C8 1.384 . S
C7 C9 1.384 . S
C7 H32 0.931 . S
C8 C7 1.384 . S
C8 C11 1.382 . S
C9 C7 1.384 . S
C9 C10 1.381 . S
C9 H33 0.930 . S
C10 C9 1.381 . S
C10 C12 1.381 . S
C10 C13 1.487 . S
C11 C8 1.382 . S
C11 C12 1.387 . S
C11 H34 0.930 . S
C12 C10 1.381 . S
C12 C11 1.387 . S
C12 H35 0.931 . S
C13 C6 1.399 . S
C13 C10 1.487 . S
C13 N45 1.343 1_655 S
C14 C15 1.384 . S
C14 C16 1.384 . S
C14 H36 0.931 . S
C15 C14 1.384 . S
C15 C18 1.382 . S
C16 C14 1.384 . S
C16 C17 1.381 . S
C16 H37 0.930 . S
C17 C16 1.381 . S
C17 C19 1.381 . S
C17 C20 1.487 . S
C18 C15 1.382 . S
C18 C19 1.387 . S
C18 H38 0.930 . S
C19 C17 1.381 . S
C19 C18 1.387 . S
C19 H39 0.931 . S
C20 C17 1.487 . S
C20 C27 1.399 . S
C20 N45 1.343 . S
C21 C22 1.384 . S
C21 C23 1.384 . S
C21 H40 0.931 . S
C22 C21 1.384 . S
C22 C25 1.382 . S
C23 C21 1.384 . S
C23 C24 1.381 . S
C23 H41 0.930 . S
C24 C23 1.381 . S
C24 C26 1.381 . S
C24 C27 1.487 . S
C25 C22 1.382 . S
C25 C26 1.387 . S
C25 H42 0.930 . S
C26 C24 1.381 . S
C26 C25 1.387 . S
C26 H43 0.931 . S
C27 C20 1.399 . S
C27 C24 1.487 . S
C27 N44 1.343 1_455 S
H28 C0 0.931 . S
H29 C2 0.930 . S
H30 C4 0.930 . S
H31 C5 0.931 . S
H32 C7 0.931 . S
H33 C9 0.930 . S
H34 C11 0.930 . S
H35 C12 0.931 . S
H36 C14 0.931 . S
H37 C16 0.930 . S
H38 C18 0.930 . S
H39 C19 0.931 . S
H40 C21 0.931 . S
H41 C23 0.930 . S
H42 C25 0.930 . S
H43 C26 0.931 . S
N44 C6 1.343 . S
N44 C27 1.343 1_655 S
N45 C13 1.343 1_455 S
N45 C20 1.343 . S
C46 C47 1.384 . S
C46 C48 1.384 . S
C46 H74 0.931 . S
C47 C46 1.384 . S
C47 C50 1.382 . S
C48 C46 1.384 . S
C48 C49 1.381 . S
C48 H75 0.930 . S
C49 C48 1.381 . S
C49 C51 1.381 . S
C49 C52 1.487 . S
C50 C47 1.382 . S
C50 C51 1.387 . S
C50 H76 0.930 . S
C51 C49 1.381 . S
C51 C50 1.387 . S
C51 H77 0.931 . S
C52 C49 1.487 . S
C52 C59 1.399 . S
C52 N90 1.343 . S
C53 C54 1.384 . S
C53 C55 1.384 . S
C53 H78 0.931 . S
C54 C53 1.384 . S
C54 C57 1.382 . S
C55 C53 1.384 . S
C55 C56 1.381 . S
C55 H79 0.930 . S
C56 C55 1.381 . S
C56 C58 1.381 . S
C56 C59 1.487 . S
C57 C54 1.382 . S
C57 C58 1.387 . S
C57 H80 0.930 . S
C58 C56 1.381 . S
C58 C57 1.387 . S
C58 H81 0.931 . S
C59 C52 1.399 . S
C59 C56 1.487 . S
C59 N91 1.343 1_565 S
C60 C61 1.384 . S
C60 C62 1.384 . S
C60 H82 0.931 . S
C61 C60 1.384 . S
C61 C64 1.382 . S
C62 C60 1.384 . S
C62 C63 1.381 . S
C62 H83 0.930 . S
C63 C62 1.381 . S
C63 C65 1.381 . S
C63 C66 1.487 . S
C64 C61 1.382 . S
C64 C65 1.387 . S
C64 H84 0.930 . S
C65 C63 1.381 . S
C65 C64 1.387 . S
C65 H85 0.931 . S
C66 C63 1.487 . S
C66 C73 1.399 . S
C66 N91 1.343 . S
C67 C68 1.384 . S
C67 C69 1.384 . S
C67 H86 0.931 . S
C68 C67 1.384 . S
C68 C71 1.382 . S
C69 C67 1.384 . S
C69 C70 1.381 . S
C69 H87 0.930 . S
C70 C69 1.381 . S
C70 C72 1.381 . S
C70 C73 1.487 . S
C71 C68 1.382 . S
C71 C72 1.387 . S
C71 H88 0.930 . S
C72 C70 1.381 . S
C72 C71 1.387 . S
C72 H89 0.931 . S
C73 C66 1.399 . S
C73 C70 1.487 . S
C73 N90 1.343 1_545 S
H74 C46 0.931 . S
H75 C48 0.930 . S
H76 C50 0.930 . S
H77 C51 0.931 . S
H78 C53 0.931 . S
H79 C55 0.930 . S
H80 C57 0.930 . S
H81 C58 0.931 . S
H82 C60 0.931 . S
H83 C62 0.930 . S
H84 C64 0.930 . S
H85 C65 0.931 . S
H86 C67 0.931 . S
H87 C69 0.930 . S
H88 C71 0.930 . S
H89 C72 0.931 . S
N90 C52 1.343 . S
N90 C73 1.343 1_565 S
N91 C59 1.343 1_545 S
N91 C66 1.343 . S
C92 C93 1.384 . S
C92 C94 1.384 . S
C92 H120 0.931 . S
C93 C92 1.384 . S
C93 C96 1.382 . S
C94 C92 1.384 . S
C94 C95 1.381 . S
C94 H121 0.930 . S
C95 C94 1.381 . S
C95 C97 1.381 . S
C95 C98 1.487 . S
C96 C93 1.382 . S
C96 C97 1.387 . S
C96 H122 0.930 . S
C97 C95 1.381 . S
C97 C96 1.387 . S
C97 H123 0.931 . S
C98 C95 1.487 . S
C98 C105 1.399 . S
C98 N136 1.343 . S
C99 C100 1.384 . S
C99 C101 1.384 . S
C99 H124 0.931 . S
C100 C99 1.384 . S
C100 C103 1.382 . S
C101 C99 1.384 . S
C101 C102 1.381 . S
C101 H125 0.930 . S
C102 C101 1.381 . S
C102 C104 1.381 . S
C102 C105 1.487 . S
C103 C100 1.382 . S
C103 C104 1.387 . S
C103 H126 0.930 . S
C104 C102 1.381 . S
C104 C103 1.387 . S
C104 H127 0.931 . S
C105 C98 1.399 . S
C105 C102 1.487 . S
C105 N137 1.343 . S
C106 C107 1.384 . S
C106 C108 1.384 . S
C106 H128 0.931 . S
C107 C106 1.384 . S
C107 C110 1.382 . S
C108 C106 1.384 . S
C108 C109 1.381 . S
C108 H129 0.930 . S
C109 C108 1.381 . S
C109 C111 1.381 . S
C109 C112 1.487 . S
C110 C107 1.382 . S
C110 C111 1.387 . S
C110 H130 0.930 . S
C111 C109 1.381 . S
C111 C110 1.387 . S
C111 H131 0.931 . S
C112 C109 1.487 . S
C112 C119 1.399 . S
C112 N137 1.343 . S
C113 C114 1.384 . S
C113 C115 1.384 . S
C113 H132 0.931 . S
C114 C113 1.384 . S
C114 C117 1.382 . S
C115 C113 1.384 . S
C115 C116 1.381 . S
C115 H133 0.930 . S
C116 C115 1.381 . S
C116 C118 1.381 . S
C116 C119 1.487 . S
C117 C114 1.382 . S
C117 C118 1.387 . S
C117 H134 0.930 . S
C118 C116 1.381 . S
C118 C117 1.387 . S
C118 H135 0.931 . S
C119 C112 1.399 . S
C119 C116 1.487 . S
C119 N136 1.343 . S
H120 C92 0.931 . S
H121 C94 0.930 . S
H122 C96 0.930 . S
H123 C97 0.931 . S
H124 C99 0.931 . S
H125 C101 0.930 . S
H126 C103 0.930 . S
H127 C104 0.931 . S
H128 C106 0.931 . S
H129 C108 0.930 . S
H130 C110 0.930 . S
H131 C111 0.931 . S
H132 C113 0.931 . S
H133 C115 0.930 . S
H134 C117 0.930 . S
H135 C118 0.931 . S
N136 C98 1.343 . S
N136 C119 1.343 . S
N137 C105 1.343 . S
N137 C112 1.343 . S
C138 C139 1.384 . S
C138 C140 1.384 . S
C138 H166 0.931 . S
C139 C138 1.384 . S
C139 C142 1.382 . S
C140 C138 1.384 . S
C140 C141 1.381 . S
C140 H167 0.930 . S
C141 C140 1.381 . S
C141 C143 1.381 . S
C141 C144 1.487 . S
C142 C139 1.382 . S
C142 C143 1.387 . S
C142 H168 0.930 . S
C143 C141 1.381 . S
C143 C142 1.387 . S
C143 H169 0.931 . S
C144 C141 1.487 . S
C144 C151 1.399 . S
C144 N182 1.326 1_655 S
C145 C146 1.384 . S
C145 C147 1.384 . S
C145 H170 0.931 . S
C146 C145 1.384 . S
C146 C149 1.382 . S
C147 C145 1.384 . S
C147 C148 1.381 . S
C147 H171 0.930 . S
C148 C147 1.381 . S
C148 C150 1.381 . S
C148 C151 1.487 . S
C149 C146 1.382 . S
C149 C150 1.387 . S
C149 H172 0.930 . S
C150 C148 1.381 . S
C150 C149 1.387 . S
C150 H173 0.931 . S
C151 C144 1.399 . S
C151 C148 1.487 . S
C151 N183 1.343 1_655 S
C152 C153 1.384 . S
C152 C154 1.384 . S
C152 H174 0.931 . S
C153 C152 1.384 . S
C153 C156 1.382 . S
C154 C152 1.384 . S
C154 C155 1.381 . S
C154 H175 0.930 . S
C155 C154 1.381 . S
C155 C157 1.381 . S
C155 C158 1.487 . S
C156 C153 1.382 . S
C156 C157 1.387 . S
C156 H176 0.930 . S
C157 C155 1.381 . S
C157 C156 1.387 . S
C157 H177 0.931 . S
C158 C155 1.487 . S
C158 C165 1.399 . S
C158 N183 1.343 . S
C159 C160 1.384 . S
C159 C161 1.384 . S
C159 H178 0.931 . S
C160 C159 1.384 . S
C160 C163 1.382 . S
C161 C159 1.384 . S
C161 C162 1.381 . S
C161 H179 0.930 . S
C162 C161 1.381 . S
C162 C164 1.381 . S
C162 C165 1.487 . S
C163 C160 1.382 . S
C163 C164 1.387 . S
C163 H180 0.930 . S
C164 C162 1.381 . S
C164 C163 1.387 . S
C164 H181 0.931 . S
C165 C158 1.399 . S
C165 C162 1.487 . S
C165 N182 1.372 . S
H166 C138 0.931 . S
H167 C140 0.930 . S
H168 C142 0.930 . S
H169 C143 0.931 . S
H170 C145 0.931 . S
H171 C147 0.930 . S
H172 C149 0.930 . S
H173 C150 0.931 . S
H174 C152 0.931 . S
H175 C154 0.930 . S
H176 C156 0.930 . S
H177 C157 0.931 . S
H178 C159 0.931 . S
H179 C161 0.930 . S
H180 C163 0.930 . S
H181 C164 0.931 . S
N182 C144 1.326 1_455 S
N182 C165 1.372 . S
N183 C151 1.343 1_455 S
N183 C158 1.343 . S
C184 C185 1.384 . S
C184 C186 1.384 . S
C184 H212 0.931 . S
C185 C184 1.384 . S
C185 C188 1.382 . S
C186 C184 1.384 . S
C186 C187 1.381 . S
C186 H213 0.936 . S
C187 C186 1.381 . S
C187 C189 1.381 . S
C187 C190 1.487 . S
C188 C185 1.382 . S
C188 C189 1.387 . S
C188 H214 0.930 . S
C189 C187 1.381 . S
C189 C188 1.387 . S
C189 H215 0.931 . S
C190 C187 1.487 . S
C190 C197 1.399 1_556 S
C190 N228 1.349 . S
C191 C192 1.384 . S
C191 C193 1.384 . S
C191 H216 0.931 . S
C192 C191 1.384 . S
C192 C195 1.382 . S
C193 C191 1.384 . S
C193 C194 1.381 . S
C193 H217 0.930 . S
C194 C193 1.381 . S
C194 C196 1.381 . S
C194 C197 1.487 . S
C195 C192 1.382 . S
C195 C196 1.387 . S
C195 H218 0.930 . S
C196 C194 1.381 . S
C196 C195 1.387 . S
C196 H219 0.931 . S
C197 C190 1.399 1_554 S
C197 C194 1.487 . S
C197 N229 1.343 1_565 S
C198 C199 1.384 . S
C198 C200 1.384 1_554 S
C198 H220 0.931 1_554 S
C199 C198 1.384 . S
C199 C202 1.382 . S
C200 C198 1.384 1_556 S
C200 C201 1.381 1_556 S
C200 H221 0.930 . S
C201 C200 1.381 1_554 S
C201 C203 1.381 . S
C201 C204 1.487 1_554 S
C202 C199 1.382 . S
C202 C203 1.387 . S
C202 H222 0.930 . S
C203 C201 1.381 . S
C203 C202 1.387 . S
C203 H223 0.931 . S
C204 C201 1.487 1_556 S
C204 C211 1.399 . S
C204 N229 1.343 1_556 S
C205 C206 1.384 . S
C205 C207 1.384 . S
C205 H224 0.931 . S
C206 C205 1.384 . S
C206 C209 1.382 . S
C207 C205 1.384 . S
C207 C208 1.381 . S
C207 H225 0.930 . S
C208 C207 1.381 . S
C208 C210 1.381 . S
C208 C211 1.487 . S
C209 C206 1.382 . S
C209 C210 1.387 . S
C209 H226 0.930 . S
C210 C208 1.381 . S
C210 C209 1.387 . S
C210 H227 0.931 . S
C211 C204 1.399 . S
C211 C208 1.487 . S
C211 N228 1.335 1_545 S
H212 C184 0.931 . S
H213 C186 0.936 . S
H214 C188 0.930 . S
H215 C189 0.931 . S
H216 C191 0.931 . S
H217 C193 0.930 . S
H218 C195 0.930 . S
H219 C196 0.931 . S
H220 C198 0.931 1_556 S
H221 C200 0.930 . S
H222 C202 0.930 . S
H223 C203 0.931 . S
H224 C205 0.931 . S
H225 C207 0.930 . S
H226 C209 0.930 . S
H227 C210 0.931 . S
N228 C190 1.349 . S
N228 C211 1.335 1_565 S
N229 C197 1.343 1_545 S
N229 C204 1.343 1_554 S
C230 C231 1.384 . S
C230 C232 1.384 . S
C230 H258 0.931 . S
C231 C230 1.384 . S
C231 C234 1.382 . S
C232 C230 1.384 . S
C232 C233 1.381 . S
C232 H259 0.930 . S
C233 C232 1.381 . S
C233 C235 1.381 . S
C233 C236 1.487 . S
C234 C231 1.382 . S
C234 C235 1.387 . S
C234 H260 0.930 . S
C235 C233 1.381 . S
C235 C234 1.387 . S
C235 H261 0.931 . S
C236 C233 1.487 . S
C236 C243 1.399 . S
C236 N274 1.343 . S
C237 C238 1.384 . S
C237 C239 1.384 . S
C237 H262 0.931 . S
C238 C237 1.384 . S
C238 C241 1.382 . S
C239 C237 1.384 . S
C239 C240 1.381 . S
C239 H263 0.930 . S
C240 C239 1.381 . S
C240 C242 1.381 . S
C240 C243 1.487 . S
C241 C238 1.382 . S
C241 C242 1.387 . S
C241 H264 0.930 . S
C242 C240 1.381 . S
C242 C241 1.387 . S
C242 H265 0.931 . S
C243 C236 1.399 . S
C243 C240 1.487 . S
C243 N275 1.343 . S
C244 C245 1.384 . S
C244 C246 1.384 . S
C244 H266 0.931 . S
C245 C244 1.384 . S
C245 C248 1.382 . S
C246 C244 1.384 . S
C246 C247 1.381 . S
C246 H267 0.930 . S
C247 C246 1.381 . S
C247 C249 1.381 . S
C247 C250 1.487 . S
C248 C245 1.382 . S
C248 C249 1.387 . S
C248 H268 0.930 . S
C249 C247 1.381 . S
C249 C248 1.387 . S
C249 H269 0.931 . S
C250 C247 1.487 . S
C250 C257 1.399 . S
C250 N275 1.343 . S
C251 C252 1.384 . S
C251 C253 1.384 . S
C251 H270 0.931 . S
C252 C251 1.384 . S
C252 C255 1.382 . S
C253 C251 1.384 . S
C253 C254 1.381 . S
C253 H271 0.930 . S
C254 C253 1.381 . S
C254 C256 1.381 . S
C254 C257 1.487 . S
C255 C252 1.382 . S
C255 C256 1.387 . S
C255 H272 0.930 . S
C256 C254 1.381 . S
C256 C255 1.387 . S
C256 H273 0.931 . S
C257 C250 1.399 . S
C257 C254 1.487 . S
C257 N274 1.343 . S
H258 C230 0.931 . S
H259 C232 0.930 . S
H260 C234 0.930 . S
H261 C235 0.931 . S
H262 C237 0.931 . S
H263 C239 0.930 . S
H264 C241 0.930 . S
H265 C242 0.931 . S
H266 C244 0.931 . S
H267 C246 0.930 . S
H268 C248 0.930 . S
H269 C249 0.931 . S
H270 C251 0.931 . S
H271 C253 0.930 . S
H272 C255 0.930 . S
H273 C256 0.931 . S
N274 C236 1.343 . S
N274 C257 1.343 . S
N275 C243 1.343 . S
N275 C250 1.343 . S
Zn276 O279 2.031 . S
Zn276 O281 2.049 . S
Zn276 O286 2.067 . S
Zn277 O278 1.962 . S
Zn277 O280 1.986 . S
Zn277 O282 1.996 . S
Zn277 O285 1.943 . S
O278 Zn277 1.962 . S
O278 C283 1.254 . S
O279 Zn276 2.031 . S
O279 C283 1.269 . S
O280 Zn277 1.986 . S
O280 C287 1.262 . S
O281 Zn276 2.049 . S
O281 C289 1.260 . S
O282 Zn277 1.996 . S
O282 C289 1.257 . S
C283 O278 1.254 . S
C283 O279 1.269 . S
C284 O285 1.249 . S
C284 O286 1.270 . S
O285 Zn277 1.943 . S
O285 C284 1.249 . S
O286 Zn276 2.067 . S
O286 C284 1.270 . S
C287 O280 1.262 . S
C287 O288 1.232 . S
O288 C287 1.232 . S
C289 O281 1.260 . S
C289 O282 1.257 . S
Zn290 O293 2.031 . S
Zn290 O295 2.049 . S
Zn290 O300 2.067 . S
Zn291 O292 1.962 . S
Zn291 O294 1.986 . S
Zn291 O296 1.996 . S
Zn291 O299 1.943 . S
O292 Zn291 1.962 . S
O292 C297 1.254 . S
O293 Zn290 2.031 . S
O293 C297 1.269 . S
O294 Zn291 1.986 . S
O294 C301 1.262 . S
O295 Zn290 2.049 . S
O295 C303 1.260 . S
O296 Zn291 1.996 . S
O296 C303 1.257 . S
C297 O292 1.254 . S
C297 O293 1.269 . S
C298 O299 1.249 . S
C298 O300 1.270 . S
O299 Zn291 1.943 . S
O299 C298 1.249 . S
O300 Zn290 2.067 . S
O300 C298 1.270 . S
C301 O294 1.262 . S
C301 O302 1.232 . S
O302 C301 1.232 . S
C303 O295 1.260 . S
C303 O296 1.257 . S
Zn304 O307 2.031 . S
Zn304 O309 2.049 . S
Zn304 O314 2.067 . S
Zn305 O306 1.962 . S
Zn305 O308 1.986 . S
Zn305 O310 1.996 . S
Zn305 O313 1.943 . S
O306 Zn305 1.962 . S
O306 C311 1.254 . S
O307 Zn304 2.031 . S
O307 C311 1.269 . S
O308 Zn305 1.986 . S
O308 C315 1.262 . S
O309 Zn304 2.049 . S
O309 C317 1.260 . S
O310 Zn305 1.996 . S
O310 C317 1.257 . S
C311 O306 1.254 . S
C311 O307 1.269 . S
C312 O313 1.249 . S
C312 O314 1.270 . S
O313 Zn305 1.943 . S
O313 C312 1.249 . S
O314 Zn304 2.067 . S
O314 C312 1.270 . S
C315 O308 1.262 . S
C315 O316 1.232 . S
O316 C315 1.232 . S
C317 O309 1.260 . S
C317 O310 1.257 . S
Zn318 O321 2.031 . S
Zn318 O323 2.049 . S
Zn318 O328 2.067 . S
Zn319 O320 1.962 . S
Zn319 O322 1.986 . S
Zn319 O324 1.996 . S
Zn319 O327 1.943 . S
O320 Zn319 1.962 . S
O320 C325 1.254 . S
O321 Zn318 2.031 . S
O321 C325 1.269 . S
O322 Zn319 1.986 . S
O322 C329 1.262 . S
O323 Zn318 2.049 . S
O323 C331 1.260 . S
O324 Zn319 1.996 . S
O324 C331 1.257 . S
C325 O320 1.254 . S
C325 O321 1.269 . S
C326 O327 1.249 . S
C326 O328 1.270 . S
O327 Zn319 1.943 . S
O327 C326 1.249 . S
O328 Zn318 2.067 . S
O328 C326 1.270 . S
C329 O322 1.262 . S
C329 O330 1.232 . S
O330 C329 1.232 . S
C331 O323 1.260 . S
C331 O324 1.257 . S
Zn332 O335 2.031 . S
Zn332 O337 2.049 . S
Zn332 O342 2.067 . S
Zn333 O334 1.962 . S
Zn333 O336 1.986 . S
Zn333 O338 1.996 . S
Zn333 O341 1.943 . S
O334 Zn333 1.962 . S
O334 C339 1.254 . S
O335 Zn332 2.031 . S
O335 C339 1.269 . S
O336 Zn333 1.986 . S
O336 C343 1.262 . S
O337 Zn332 2.049 . S
O337 C345 1.260 . S
O338 Zn333 1.996 . S
O338 C345 1.257 . S
C339 O334 1.254 . S
C339 O335 1.269 . S
C340 O341 1.249 . S
C340 O342 1.270 . S
O341 Zn333 1.943 . S
O341 C340 1.249 . S
O342 Zn332 2.067 . S
O342 C340 1.270 . S
C343 O336 1.262 . S
C343 O344 1.232 . S
O344 C343 1.232 . S
C345 O337 1.260 . S
C345 O338 1.257 . S
Zn346 O349 2.031 . S
Zn346 O351 2.049 . S
Zn346 O356 2.067 . S
Zn347 O348 1.962 . S
Zn347 O350 1.986 . S
Zn347 O352 1.996 . S
Zn347 O355 1.943 . S
O348 Zn347 1.962 . S
O348 C353 1.254 . S
O349 Zn346 2.031 . S
O349 C353 1.269 . S
O350 Zn347 1.986 . S
O350 C357 1.262 . S
O351 Zn346 2.049 . S
O351 C359 1.260 . S
O352 Zn347 1.996 . S
O352 C359 1.257 . S
C353 O348 1.254 . S
C353 O349 1.269 . S
C354 O355 1.249 . S
C354 O356 1.270 . S
O355 Zn347 1.943 . S
O355 C354 1.249 . S
O356 Zn346 2.067 . S
O356 C354 1.270 . S
C357 O350 1.262 . S
C357 O358 1.232 . S
O358 C357 1.232 . S
C359 O351 1.260 . S
C359 O352 1.257 . S
C360 C361 1.391 . S
C360 C362 1.394 . S
C360 H376 0.931 . S
C361 C360 1.391 . S
C361 C365 1.376 . S
C362 C360 1.394 . S
C362 C363 1.369 . S
C362 C366 1.531 . S
C363 C362 1.369 . S
C363 C364 1.410 . S
C363 C371 1.503 . S
C364 C363 1.410 . S
C364 C365 1.392 . S
C364 C367 1.511 . S
C365 C361 1.376 . S
C365 C364 1.392 . S
C365 H377 0.929 . S
C366 C362 1.531 . S
C366 H378 0.960 . S
C366 H379 0.962 . S
C366 H380 0.960 . S
C367 C364 1.511 . S
C367 H381 0.961 . S
C367 H382 0.961 . S
C367 H383 0.961 . S
C368 C369 1.370 . S
C368 C370 1.363 . S
C368 H384 0.931 . S
C369 C368 1.370 . S
C369 C373 1.408 . S
C370 C368 1.363 . S
C370 C371 1.370 . S
C370 C374 1.524 . S
C371 C363 1.503 . S
C371 C370 1.370 . S
C371 C372 1.403 . S
C372 C371 1.403 . S
C372 C373 1.404 . S
C372 C375 1.539 . S
C373 C369 1.408 . S
C373 C372 1.404 . S
C373 H385 0.930 . S
C374 C370 1.524 . S
C374 H386 0.956 . S
C374 H387 0.961 . S
C374 H388 0.961 . S
C375 C372 1.539 . S
C375 H389 0.958 . S
C375 H390 0.961 . S
C375 H391 0.960 . S
H376 C360 0.931 . S
H377 C365 0.929 . S
H378 C366 0.960 . S
H379 C366 0.962 . S
H380 C366 0.960 . S
H381 C367 0.961 . S
H382 C367 0.961 . S
H383 C367 0.961 . S
H384 C368 0.931 . S
H385 C373 0.930 . S
H386 C374 0.956 . S
H387 C374 0.961 . S
H388 C374 0.961 . S
H389 C375 0.958 . S
H390 C375 0.961 . S
H391 C375 0.960 . S
C392 C393 1.391 . S
C392 C394 1.394 . S
C392 H408 0.931 . S
C393 C392 1.391 . S
C393 C397 1.376 . S
C394 C392 1.394 . S
C394 C395 1.369 . S
C394 C398 1.531 . S
C395 C394 1.369 . S
C395 C396 1.410 . S
C395 C403 1.503 . S
C396 C395 1.410 . S
C396 C397 1.392 . S
C396 C399 1.511 . S
C397 C393 1.376 . S
C397 C396 1.392 . S
C397 H409 0.929 . S
C398 C394 1.531 . S
C398 H410 0.960 . S
C398 H411 0.962 . S
C398 H412 0.960 . S
C399 C396 1.511 . S
C399 H413 0.961 . S
C399 H414 0.961 . S
C399 H415 0.961 . S
C400 C401 1.370 . S
C400 C402 1.363 . S
C400 H416 0.931 . S
C401 C400 1.370 . S
C401 C405 1.408 . S
C402 C400 1.363 . S
C402 C403 1.370 . S
C402 C406 1.524 . S
C403 C395 1.503 . S
C403 C402 1.370 . S
C403 C404 1.403 . S
C404 C403 1.403 . S
C404 C405 1.404 . S
C404 C407 1.539 . S
C405 C401 1.408 . S
C405 C404 1.404 . S
C405 H417 0.930 . S
C406 C402 1.524 . S
C406 H418 0.956 . S
C406 H419 0.961 . S
C406 H420 0.961 . S
C407 C404 1.539 . S
C407 H421 0.958 . S
C407 H422 0.961 . S
C407 H423 0.960 . S
H408 C392 0.931 . S
H409 C397 0.929 . S
H410 C398 0.960 . S
H411 C398 0.962 . S
H412 C398 0.960 . S
H413 C399 0.961 . S
H414 C399 0.961 . S
H415 C399 0.961 . S
H416 C400 0.931 . S
H417 C405 0.930 . S
H418 C406 0.956 . S
H419 C406 0.961 . S
H420 C406 0.961 . S
H421 C407 0.958 . S
H422 C407 0.961 . S
H423 C407 0.960 . S
C424 C425 1.391 . S
C424 C426 1.394 . S
C424 H440 0.931 . S
C425 C424 1.391 . S
C425 C429 1.376 . S
C426 C424 1.394 . S
C426 C427 1.369 . S
C426 C430 1.531 . S
C427 C426 1.369 . S
C427 C428 1.410 . S
C427 C435 1.503 . S
C428 C427 1.410 . S
C428 C429 1.392 . S
C428 C431 1.511 . S
C429 C425 1.376 . S
C429 C428 1.392 . S
C429 H441 0.929 . S
C430 C426 1.531 . S
C430 H442 0.960 . S
C430 H443 0.962 . S
C430 H444 0.960 . S
C431 C428 1.511 . S
C431 H445 0.961 . S
C431 H446 0.961 . S
C431 H447 0.961 . S
C432 C433 1.370 . S
C432 C434 1.363 . S
C432 H448 0.931 . S
C433 C432 1.370 . S
C433 C437 1.408 . S
C434 C432 1.363 . S
C434 C435 1.370 . S
C434 C438 1.524 . S
C435 C427 1.503 . S
C435 C434 1.370 . S
C435 C436 1.403 . S
C436 C435 1.403 . S
C436 C437 1.404 . S
C436 C439 1.539 . S
C437 C433 1.408 . S
C437 C436 1.404 . S
C437 H449 0.930 . S
C438 C434 1.524 . S
C438 H450 0.956 . S
C438 H451 0.961 . S
C438 H452 0.961 . S
C439 C436 1.539 . S
C439 H453 0.958 . S
C439 H454 0.961 . S
C439 H455 0.960 . S
H440 C424 0.931 . S
H441 C429 0.929 . S
H442 C430 0.960 . S
H443 C430 0.962 . S
H444 C430 0.960 . S
H445 C431 0.961 . S
H446 C431 0.961 . S
H447 C431 0.961 . S
H448 C432 0.931 . S
H449 C437 0.930 . S
H450 C438 0.956 . S
H451 C438 0.961 . S
H452 C438 0.961 . S
H453 C439 0.958 . S
H454 C439 0.961 . S
H455 C439 0.960 . S
C456 C457 1.391 . S
C456 C458 1.394 . S
C456 H472 0.931 . S
C457 C456 1.391 . S
C457 C461 1.376 . S
C458 C456 1.394 . S
C458 C459 1.369 . S
C458 C462 1.531 . S
C459 C458 1.369 . S
C459 C460 1.410 . S
C459 C467 1.503 . S
C460 C459 1.410 . S
C460 C461 1.392 . S
C460 C463 1.511 . S
C461 C457 1.376 . S
C461 C460 1.392 . S
C461 H473 0.929 . S
C462 C458 1.531 . S
C462 H474 0.960 . S
C462 H475 0.962 . S
C462 H476 0.960 . S
C463 C460 1.511 . S
C463 H477 0.961 . S
C463 H478 0.961 . S
C463 H479 0.961 . S
C464 C465 1.370 . S
C464 C466 1.363 . S
C464 H480 0.931 . S
C465 C464 1.370 . S
C465 C469 1.408 . S
C466 C464 1.363 . S
C466 C467 1.370 . S
C466 C470 1.524 . S
C467 C459 1.503 . S
C467 C466 1.370 . S
C467 C468 1.403 . S
C468 C467 1.403 . S
C468 C469 1.404 . S
C468 C471 1.539 . S
C469 C465 1.408 . S
C469 C468 1.404 . S
C469 H481 0.930 . S
C470 C466 1.524 . S
C470 H482 0.956 . S
C470 H483 0.961 . S
C470 H484 0.961 . S
C471 C468 1.539 . S
C471 H485 0.958 . S
C471 H486 0.961 . S
C471 H487 0.960 . S
H472 C456 0.931 . S
H473 C461 0.929 . S
H474 C462 0.960 . S
H475 C462 0.962 . S
H476 C462 0.960 . S
H477 C463 0.961 . S
H478 C463 0.961 . S
H479 C463 0.961 . S
H480 C464 0.931 . S
H481 C469 0.930 . S
H482 C470 0.956 . S
H483 C470 0.961 . S
H484 C470 0.961 . S
H485 C471 0.958 . S
H486 C471 0.961 . S
H487 C471 0.960 . S
C488 C489 1.391 . S
C488 C490 1.394 . S
C488 H504 0.931 . S
C489 C488 1.391 . S
C489 C493 1.376 . S
C490 C488 1.394 . S
C490 C491 1.369 . S
C490 C494 1.531 . S
C491 C490 1.369 . S
C491 C492 1.410 . S
C491 C499 1.503 . S
C492 C491 1.410 . S
C492 C493 1.392 . S
C492 C495 1.511 . S
C493 C489 1.376 . S
C493 C492 1.392 . S
C493 H505 0.929 . S
C494 C490 1.531 . S
C494 H506 0.960 . S
C494 H507 0.962 . S
C494 H508 0.960 . S
C495 C492 1.511 . S
C495 H509 0.961 . S
C495 H510 0.961 . S
C495 H511 0.961 . S
C496 C497 1.370 . S
C496 C498 1.363 . S
C496 H512 0.931 . S
C497 C496 1.370 . S
C497 C501 1.408 . S
C498 C496 1.363 . S
C498 C499 1.370 . S
C498 C502 1.524 . S
C499 C491 1.503 . S
C499 C498 1.370 . S
C499 C500 1.403 . S
C500 C499 1.403 . S
C500 C501 1.404 . S
C500 C503 1.539 . S
C501 C497 1.408 . S
C501 C500 1.404 . S
C501 H513 0.930 . S
C502 C498 1.524 . S
C502 H514 0.956 . S
C502 H515 0.961 . S
C502 H516 0.961 . S
C503 C500 1.539 . S
C503 H517 0.958 . S
C503 H518 0.961 . S
C503 H519 0.960 . S
H504 C488 0.931 . S
H505 C493 0.929 . S
H506 C494 0.960 . S
H507 C494 0.962 . S
H508 C494 0.960 . S
H509 C495 0.961 . S
H510 C495 0.961 . S
H511 C495 0.961 . S
H512 C496 0.931 . S
H513 C501 0.930 . S
H514 C502 0.956 . S
H515 C502 0.961 . S
H516 C502 0.961 . S
H517 C503 0.958 . S
H518 C503 0.961 . S
H519 C503 0.960 . S
C520 C521 1.391 . S
C520 C522 1.394 . S
C520 H536 0.931 . S
C521 C520 1.391 . S
C521 C525 1.376 . S
C522 C520 1.394 . S
C522 C523 1.369 . S
C522 C526 1.531 . S
C523 C522 1.369 . S
C523 C524 1.410 . S
C523 C531 1.503 . S
C524 C523 1.410 . S
C524 C525 1.392 . S
C524 C527 1.511 . S
C525 C521 1.376 . S
C525 C524 1.392 . S
C525 H537 0.929 . S
C526 C522 1.531 . S
C526 H538 0.960 . S
C526 H539 0.962 . S
C526 H540 0.960 . S
C527 C524 1.511 . S
C527 H541 0.961 . S
C527 H542 0.961 . S
C527 H543 0.961 . S
C528 C529 1.370 . S
C528 C530 1.363 . S
C528 H544 0.931 . S
C529 C528 1.370 . S
C529 C533 1.408 . S
C530 C528 1.363 . S
C530 C531 1.370 . S
C530 C534 1.524 . S
C531 C523 1.503 . S
C531 C530 1.370 . S
C531 C532 1.403 . S
C532 C531 1.403 . S
C532 C533 1.404 . S
C532 C535 1.539 . S
C533 C529 1.408 . S
C533 C532 1.404 . S
C533 H545 0.930 . S
C534 C530 1.524 . S
C534 H546 0.956 . S
C534 H547 0.961 . S
C534 H548 0.961 . S
C535 C532 1.539 . S
C535 H549 0.958 . S
C535 H550 0.961 . S
C535 H551 0.960 . S
H536 C520 0.931 . S
H537 C525 0.929 . S
H538 C526 0.960 . S
H539 C526 0.962 . S
H540 C526 0.960 . S
H541 C527 0.961 . S
H542 C527 0.961 . S
H543 C527 0.961 . S
H544 C528 0.931 . S
H545 C533 0.930 . S
H546 C534 0.956 . S
H547 C534 0.961 . S
H548 C534 0.961 . S
H549 C535 0.958 . S
H550 C535 0.961 . S
H551 C535 0.960 . S
C552 C553 1.391 . S
C552 C554 1.394 . S
C552 H568 0.931 . S
C553 C552 1.391 . S
C553 C557 1.376 . S
C554 C552 1.394 . S
C554 C555 1.369 . S
C554 C558 1.531 . S
C555 C554 1.369 . S
C555 C556 1.410 . S
C555 C563 1.503 . S
C556 C555 1.410 . S
C556 C557 1.392 . S
C556 C559 1.511 . S
C557 C553 1.376 . S
C557 C556 1.392 . S
C557 H569 0.929 . S
C558 C554 1.531 . S
C558 H570 0.960 . S
C558 H571 0.962 . S
C558 H572 0.960 . S
C559 C556 1.511 . S
C559 H573 0.961 . S
C559 H574 0.961 . S
C559 H575 0.961 . S
C560 C561 1.370 . S
C560 C562 1.363 . S
C560 H576 0.931 . S
C561 C560 1.370 . S
C561 C565 1.408 . S
C562 C560 1.363 . S
C562 C563 1.370 . S
C562 C566 1.524 . S
C563 C555 1.503 . S
C563 C562 1.370 . S
C563 C564 1.403 . S
C564 C563 1.403 . S
C564 C565 1.404 . S
C564 C567 1.539 . S
C565 C561 1.408 . S
C565 C564 1.404 . S
C565 H577 0.930 . S
C566 C562 1.524 . S
C566 H578 0.956 . S
C566 H579 0.961 . S
C566 H580 0.961 . S
C567 C564 1.539 . S
C567 H581 0.958 . S
C567 H582 0.961 . S
C567 H583 0.960 . S
H568 C552 0.931 . S
H569 C557 0.929 . S
H570 C558 0.960 . S
H571 C558 0.962 . S
H572 C558 0.960 . S
H573 C559 0.961 . S
H574 C559 0.961 . S
H575 C559 0.961 . S
H576 C560 0.931 . S
H577 C565 0.930 . S
H578 C566 0.956 . S
H579 C566 0.961 . S
H580 C566 0.961 . S
H581 C567 0.958 . S
H582 C567 0.961 . S
H583 C567 0.960 . S
C584 C585 1.391 . S
C584 C586 1.394 . S
C584 H600 0.931 . S
C585 C584 1.391 . S
C585 C589 1.376 . S
C586 C584 1.394 . S
C586 C587 1.369 . S
C586 C590 1.531 . S
C587 C586 1.369 . S
C587 C588 1.410 . S
C587 C595 1.503 . S
C588 C587 1.410 . S
C588 C589 1.392 . S
C588 C591 1.511 . S
C589 C585 1.376 . S
C589 C588 1.392 . S
C589 H601 0.929 . S
C590 C586 1.531 . S
C590 H602 0.960 . S
C590 H603 0.962 . S
C590 H604 0.960 . S
C591 C588 1.511 . S
C591 H605 0.961 . S
C591 H606 0.961 . S
C591 H607 0.961 . S
C592 C593 1.370 . S
C592 C594 1.363 . S
C592 H608 0.931 . S
C593 C592 1.370 . S
C593 C597 1.408 . S
C594 C592 1.363 . S
C594 C595 1.370 . S
C594 C598 1.524 . S
C595 C587 1.503 . S
C595 C594 1.370 . S
C595 C596 1.403 . S
C596 C595 1.403 . S
C596 C597 1.404 . S
C596 C599 1.539 . S
C597 C593 1.408 . S
C597 C596 1.404 . S
C597 H609 0.930 . S
C598 C594 1.524 . S
C598 H610 0.956 . S
C598 H611 0.961 . S
C598 H612 0.961 . S
C599 C596 1.539 . S
C599 H613 0.958 . S
C599 H614 0.961 . S
C599 H615 0.960 . S
H600 C584 0.931 . S
H601 C589 0.929 . S
H602 C590 0.960 . S
H603 C590 0.962 . S
H604 C590 0.960 . S
H605 C591 0.961 . S
H606 C591 0.961 . S
H607 C591 0.961 . S
H608 C592 0.931 . S
H609 C597 0.930 . S
H610 C598 0.956 . S
H611 C598 0.961 . S
H612 C598 0.961 . S
H613 C599 0.958 . S
H614 C599 0.961 . S
H615 C599 0.960 . S
C616 C617 1.391 . S
C616 C618 1.394 . S
C616 H632 0.931 . S
C617 C616 1.391 . S
C617 C621 1.376 . S
C618 C616 1.394 . S
C618 C619 1.369 . S
C618 C622 1.531 . S
C619 C618 1.369 . S
C619 C620 1.410 . S
C619 C627 1.503 . S
C620 C619 1.410 . S
C620 C621 1.392 . S
C620 C623 1.511 . S
C621 C617 1.376 . S
C621 C620 1.392 . S
C621 H633 0.929 . S
C622 C618 1.531 . S
C622 H634 0.960 . S
C622 H635 0.962 . S
C622 H636 0.960 . S
C623 C620 1.511 . S
C623 H637 0.961 . S
C623 H638 0.961 . S
C623 H639 0.961 . S
C624 C625 1.370 . S
C624 C626 1.363 . S
C624 H640 0.931 . S
C625 C624 1.370 . S
C625 C629 1.408 . S
C626 C624 1.363 . S
C626 C627 1.370 . S
C626 C630 1.524 . S
C627 C619 1.503 . S
C627 C626 1.370 . S
C627 C628 1.403 . S
C628 C627 1.403 . S
C628 C629 1.404 . S
C628 C631 1.539 . S
C629 C625 1.408 . S
C629 C628 1.404 . S
C629 H641 0.930 . S
C630 C626 1.524 . S
C630 H642 0.956 . S
C630 H643 0.961 . S
C630 H644 0.961 . S
C631 C628 1.539 . S
C631 H645 0.958 . S
C631 H646 0.961 . S
C631 H647 0.960 . S
H632 C616 0.931 . S
H633 C621 0.929 . S
H634 C622 0.960 . S
H635 C622 0.962 . S
H636 C622 0.960 . S
H637 C623 0.961 . S
H638 C623 0.961 . S
H639 C623 0.961 . S
H640 C624 0.931 . S
H641 C629 0.930 . S
H642 C630 0.956 . S
H643 C630 0.961 . S
H644 C630 0.961 . S
H645 C631 0.958 . S
H646 C631 0.961 . S
H647 C631 0.960 . S
C648 C649 1.391 . S
C648 C650 1.394 . S
C648 H664 0.931 . S
C649 C648 1.391 . S
C649 C653 1.376 . S
C650 C648 1.394 . S
C650 C651 1.369 . S
C650 C654 1.531 . S
C651 C650 1.369 . S
C651 C652 1.410 . S
C651 C659 1.503 . S
C652 C651 1.410 . S
C652 C653 1.392 . S
C652 C655 1.511 . S
C653 C649 1.376 . S
C653 C652 1.392 . S
C653 H665 0.929 . S
C654 C650 1.531 . S
C654 H666 0.960 . S
C654 H667 0.962 . S
C654 H668 0.960 . S
C655 C652 1.511 . S
C655 H669 0.961 . S
C655 H670 0.961 . S
C655 H671 0.961 . S
C656 C657 1.370 . S
C656 C658 1.363 . S
C656 H672 0.931 . S
C657 C656 1.370 . S
C657 C661 1.408 . S
C658 C656 1.363 . S
C658 C659 1.370 . S
C658 C662 1.524 . S
C659 C651 1.503 . S
C659 C658 1.370 . S
C659 C660 1.403 . S
C660 C659 1.403 . S
C660 C661 1.404 . S
C660 C663 1.539 . S
C661 C657 1.408 . S
C661 C660 1.404 . S
C661 H673 0.930 . S
C662 C658 1.524 . S
C662 H674 0.956 . S
C662 H675 0.961 . S
C662 H676 0.961 . S
C663 C660 1.539 . S
C663 H677 0.958 . S
C663 H678 0.961 . S
C663 H679 0.960 . S
H664 C648 0.931 . S
H665 C653 0.929 . S
H666 C654 0.960 . S
H667 C654 0.962 . S
H668 C654 0.960 . S
H669 C655 0.961 . S
H670 C655 0.961 . S
H671 C655 0.961 . S
H672 C656 0.931 . S
H673 C661 0.930 . S
H674 C662 0.956 . S
H675 C662 0.961 . S
H676 C662 0.961 . S
H677 C663 0.958 . S
H678 C663 0.961 . S
H679 C663 0.960 . S
C680 C681 1.391 . S
C680 C682 1.394 . S
C680 H696 0.931 . S
C681 C680 1.391 . S
C681 C685 1.376 . S
C682 C680 1.394 . S
C682 C683 1.369 . S
C682 C686 1.531 . S
C683 C682 1.369 . S
C683 C684 1.410 . S
C683 C691 1.503 . S
C684 C683 1.410 . S
C684 C685 1.392 . S
C684 C687 1.511 . S
C685 C681 1.376 . S
C685 C684 1.392 . S
C685 H697 0.929 . S
C686 C682 1.531 . S
C686 H698 0.960 . S
C686 H699 0.962 . S
C686 H700 0.960 . S
C687 C684 1.511 . S
C687 H701 0.961 . S
C687 H702 0.961 . S
C687 H703 0.961 . S
C688 C689 1.370 . S
C688 C690 1.363 . S
C688 H704 0.931 . S
C689 C688 1.370 . S
C689 C693 1.408 . S
C690 C688 1.363 . S
C690 C691 1.370 . S
C690 C694 1.524 . S
C691 C683 1.503 . S
C691 C690 1.370 . S
C691 C692 1.403 . S
C692 C691 1.403 . S
C692 C693 1.404 . S
C692 C695 1.539 . S
C693 C689 1.408 . S
C693 C692 1.404 . S
C693 H705 0.930 . S
C694 C690 1.524 . S
C694 H706 0.956 . S
C694 H707 0.961 . S
C694 H708 0.961 . S
C695 C692 1.539 . S
C695 H709 0.958 . S
C695 H710 0.961 . S
C695 H711 0.960 . S
H696 C680 0.931 . S
H697 C685 0.929 . S
H698 C686 0.960 . S
H699 C686 0.962 . S
H700 C686 0.960 . S
H701 C687 0.961 . S
H702 C687 0.961 . S
H703 C687 0.961 . S
H704 C688 0.931 . S
H705 C693 0.930 . S
H706 C694 0.956 . S
H707 C694 0.961 . S
H708 C694 0.961 . S
H709 C695 0.958 . S
H710 C695 0.961 . S
H711 C695 0.960 . S
C712 C713 1.391 . S
C712 C714 1.394 . S
C712 H728 0.931 . S
C713 C712 1.391 . S
C713 C717 1.376 . S
C714 C712 1.394 . S
C714 C715 1.369 . S
C714 C718 1.531 . S
C715 C714 1.369 . S
C715 C716 1.410 . S
C715 C723 1.503 . S
C716 C715 1.410 . S
C716 C717 1.392 . S
C716 C719 1.511 . S
C717 C713 1.376 . S
C717 C716 1.392 . S
C717 H729 0.929 . S
C718 C714 1.531 . S
C718 H730 0.960 . S
C718 H731 0.962 . S
C718 H732 0.960 . S
C719 C716 1.511 . S
C719 H733 0.961 . S
C719 H734 0.961 . S
C719 H735 0.961 . S
C720 C721 1.370 . S
C720 C722 1.363 . S
C720 H736 0.931 . S
C721 C720 1.370 . S
C721 C725 1.408 . S
C722 C720 1.363 . S
C722 C723 1.370 . S
C722 C726 1.524 . S
C723 C715 1.503 . S
C723 C722 1.370 . S
C723 C724 1.403 . S
C724 C723 1.403 . S
C724 C725 1.404 . S
C724 C727 1.539 . S
C725 C721 1.408 . S
C725 C724 1.404 . S
C725 H737 0.930 . S
C726 C722 1.524 . S
C726 H738 0.956 . S
C726 H739 0.961 . S
C726 H740 0.961 . S
C727 C724 1.539 . S
C727 H741 0.958 . S
C727 H742 0.961 . S
C727 H743 0.960 . S
H728 C712 0.931 . S
H729 C717 0.929 . S
H730 C718 0.960 . S
H731 C718 0.962 . S
H732 C718 0.960 . S
H733 C719 0.961 . S
H734 C719 0.961 . S
H735 C719 0.961 . S
H736 C720 0.931 . S
H737 C725 0.930 . S
H738 C726 0.956 . S
H739 C726 0.961 . S
H740 C726 0.961 . S
H741 C727 0.958 . S
H742 C727 0.961 . S
H743 C727 0.960 . S
C744 C745 1.391 . S
C744 C746 1.394 . S
C744 H760 0.931 . S
C745 C744 1.391 . S
C745 C749 1.376 . S
C746 C744 1.394 . S
C746 C747 1.369 . S
C746 C750 1.531 . S
C747 C746 1.369 . S
C747 C748 1.410 . S
C747 C755 1.503 . S
C748 C747 1.410 . S
C748 C749 1.392 . S
C748 C751 1.511 . S
C749 C745 1.376 . S
C749 C748 1.392 . S
C749 H761 0.929 . S
C750 C746 1.531 . S
C750 H762 0.960 . S
C750 H763 0.962 . S
C750 H764 0.960 . S
C751 C748 1.511 . S
C751 H765 0.961 . S
C751 H766 0.961 . S
C751 H767 0.961 . S
C752 C753 1.370 . S
C752 C754 1.363 . S
C752 H768 0.931 . S
C753 C752 1.370 . S
C753 C757 1.408 . S
C754 C752 1.363 . S
C754 C755 1.370 . S
C754 C758 1.524 . S
C755 C747 1.503 . S
C755 C754 1.370 . S
C755 C756 1.403 . S
C756 C755 1.403 . S
C756 C757 1.404 . S
C756 C759 1.539 . S
C757 C753 1.408 . S
C757 C756 1.404 . S
C757 H769 0.930 . S
C758 C754 1.524 . S
C758 H770 0.956 . S
C758 H771 0.961 . S
C758 H772 0.961 . S
C759 C756 1.539 . S
C759 H773 0.958 . S
C759 H774 0.961 . S
C759 H775 0.960 . S
H760 C744 0.931 . S
H761 C749 0.929 . S
H762 C750 0.960 . S
H763 C750 0.962 . S
H764 C750 0.960 . S
H765 C751 0.961 . S
H766 C751 0.961 . S
H767 C751 0.961 . S
H768 C752 0.931 . S
H769 C757 0.930 . S
H770 C758 0.956 . S
H771 C758 0.961 . S
H772 C758 0.961 . S
H773 C759 0.958 . S
H774 C759 0.961 . S
H775 C759 0.960 . S
C776 C777 1.391 . S
C776 C778 1.394 . S
C776 H792 0.931 . S
C777 C776 1.391 . S
C777 C781 1.376 . S
C778 C776 1.394 . S
C778 C779 1.369 . S
C778 C782 1.531 . S
C779 C778 1.369 . S
C779 C780 1.410 . S
C779 C787 1.503 . S
C780 C779 1.410 . S
C780 C781 1.392 . S
C780 C783 1.511 . S
C781 C777 1.376 . S
C781 C780 1.392 . S
C781 H793 0.929 . S
C782 C778 1.531 . S
C782 H794 0.960 . S
C782 H795 0.962 . S
C782 H796 0.960 . S
C783 C780 1.511 . S
C783 H797 0.961 . S
C783 H798 0.961 . S
C783 H799 0.961 . S
C784 C785 1.370 . S
C784 C786 1.363 . S
C784 H800 0.931 . S
C785 C784 1.370 . S
C785 C789 1.408 . S
C786 C784 1.363 . S
C786 C787 1.370 . S
C786 C790 1.524 . S
C787 C779 1.503 . S
C787 C786 1.370 . S
C787 C788 1.403 . S
C788 C787 1.403 . S
C788 C789 1.404 . S
C788 C791 1.539 . S
C789 C785 1.408 . S
C789 C788 1.404 . S
C789 H801 0.930 . S
C790 C786 1.524 . S
C790 H802 0.956 . S
C790 H803 0.961 . S
C790 H804 0.961 . S
C791 C788 1.539 . S
C791 H805 0.958 . S
C791 H806 0.961 . S
C791 H807 0.960 . S
H792 C776 0.931 . S
H793 C781 0.929 . S
H794 C782 0.960 . S
H795 C782 0.962 . S
H796 C782 0.960 . S
H797 C783 0.961 . S
H798 C783 0.961 . S
H799 C783 0.961 . S
H800 C784 0.931 . S
H801 C789 0.930 . S
H802 C790 0.956 . S
H803 C790 0.961 . S
H804 C790 0.961 . S
H805 C791 0.958 . S
H806 C791 0.961 . S
H807 C791 0.960 . S
C808 C809 1.391 . S
C808 C810 1.394 . S
C808 H824 0.931 . S
C809 C808 1.391 . S
C809 C813 1.376 . S
C810 C808 1.394 . S
C810 C811 1.369 . S
C810 C814 1.531 . S
C811 C810 1.369 . S
C811 C812 1.410 . S
C811 C819 1.503 . S
C812 C811 1.410 . S
C812 C813 1.392 . S
C812 C815 1.511 . S
C813 C809 1.376 . S
C813 C812 1.392 . S
C813 H825 0.929 . S
C814 C810 1.531 . S
C814 H826 0.960 . S
C814 H827 0.962 . S
C814 H828 0.960 . S
C815 C812 1.511 . S
C815 H829 0.961 . S
C815 H830 0.961 . S
C815 H831 0.961 . S
C816 C817 1.370 . S
C816 C818 1.363 . S
C816 H832 0.931 . S
C817 C816 1.370 . S
C817 C821 1.408 . S
C818 C816 1.363 . S
C818 C819 1.370 . S
C818 C822 1.524 . S
C819 C811 1.503 . S
C819 C818 1.370 . S
C819 C820 1.403 . S
C820 C819 1.403 . S
C820 C821 1.404 . S
C820 C823 1.539 . S
C821 C817 1.408 . S
C821 C820 1.404 . S
C821 H833 0.930 . S
C822 C818 1.524 . S
C822 H834 0.956 . S
C822 H835 0.961 . S
C822 H836 0.961 . S
C823 C820 1.539 . S
C823 H837 0.958 . S
C823 H838 0.961 . S
C823 H839 0.960 . S
H824 C808 0.931 . S
H825 C813 0.929 . S
H826 C814 0.960 . S
H827 C814 0.962 . S
H828 C814 0.960 . S
H829 C815 0.961 . S
H830 C815 0.961 . S
H831 C815 0.961 . S
H832 C816 0.931 . S
H833 C821 0.930 . S
H834 C822 0.956 . S
H835 C822 0.961 . S
H836 C822 0.961 . S
H837 C823 0.958 . S
H838 C823 0.961 . S
H839 C823 0.960 . S
C840 C841 1.391 . S
C840 C842 1.394 . S
C840 H856 0.931 . S
C841 C840 1.391 . S
C841 C845 1.376 . S
C842 C840 1.394 . S
C842 C843 1.369 . S
C842 C846 1.531 . S
C843 C842 1.369 . S
C843 C844 1.410 . S
C843 C851 1.503 . S
C844 C843 1.410 . S
C844 C845 1.392 . S
C844 C847 1.511 . S
C845 C841 1.376 . S
C845 C844 1.392 . S
C845 H857 0.929 . S
C846 C842 1.531 . S
C846 H858 0.960 1_556 S
C846 H859 0.962 . S
C846 H860 0.960 . S
C847 C844 1.511 . S
C847 H861 0.961 . S
C847 H862 0.961 . S
C847 H863 0.961 . S
C848 C849 1.370 . S
C848 C850 1.363 1_554 S
C848 H864 0.931 . S
C849 C848 1.370 . S
C849 C853 1.408 . S
C850 C848 1.363 1_556 S
C850 C851 1.370 . S
C850 C854 1.524 . S
C851 C843 1.503 . S
C851 C850 1.370 . S
C851 C852 1.403 . S
C852 C851 1.403 . S
C852 C853 1.404 1_556 S
C852 C855 1.539 . S
C853 C849 1.408 . S
C853 C852 1.404 1_554 S
C853 H865 0.930 . S
C854 C850 1.524 . S
C854 H866 0.956 . S
C854 H867 0.961 . S
C854 H868 0.961 . S
C855 C852 1.539 . S
C855 H869 0.958 1_556 S
C855 H870 0.945 1_556 S
C855 H871 0.960 . S
H856 C840 0.931 . S
H857 C845 0.929 . S
H858 C846 0.960 1_554 S
H859 C846 0.962 . S
H860 C846 0.960 . S
H861 C847 0.961 . S
H862 C847 0.961 . S
H863 C847 0.961 . S
H864 C848 0.931 . S
H865 C853 0.930 . S
H866 C854 0.956 . S
H867 C854 0.961 . S
H868 C854 0.961 . S
H869 C855 0.958 1_554 S
H870 C855 0.945 1_554 S
H871 C855 0.960 . S
C872 C873 1.391 . S
C872 C874 1.394 . S
C872 H888 0.931 . S
C873 C872 1.391 . S
C873 C877 1.376 . S
C874 C872 1.394 . S
C874 C875 1.369 . S
C874 C878 1.531 . S
C875 C874 1.369 . S
C875 C876 1.410 . S
C875 C883 1.503 . S
C876 C875 1.410 . S
C876 C877 1.392 . S
C876 C879 1.511 . S
C877 C873 1.376 . S
C877 C876 1.392 . S
C877 H889 0.929 . S
C878 C874 1.531 . S
C878 H890 0.960 . S
C878 H891 0.962 . S
C878 H892 0.960 . S
C879 C876 1.511 . S
C879 H893 0.961 . S
C879 H894 0.961 . S
C879 H895 0.961 . S
C880 C881 1.370 . S
C880 C882 1.363 . S
C880 H896 0.931 . S
C881 C880 1.370 . S
C881 C885 1.408 . S
C882 C880 1.363 . S
C882 C883 1.370 . S
C882 C886 1.524 . S
C883 C875 1.503 . S
C883 C882 1.370 . S
C883 C884 1.403 . S
C884 C883 1.403 . S
C884 C885 1.404 . S
C884 C887 1.539 . S
C885 C881 1.408 . S
C885 C884 1.404 . S
C885 H897 0.930 . S
C886 C882 1.524 . S
C886 H898 0.956 . S
C886 H899 0.961 . S
C886 H900 0.961 . S
C887 C884 1.539 . S
C887 H901 0.958 . S
C887 H902 0.961 . S
C887 H903 0.960 . S
H888 C872 0.931 . S
H889 C877 0.929 . S
H890 C878 0.960 . S
H891 C878 0.962 . S
H892 C878 0.960 . S
H893 C879 0.961 . S
H894 C879 0.961 . S
H895 C879 0.961 . S
H896 C880 0.931 . S
H897 C885 0.930 . S
H898 C886 0.956 . S
H899 C886 0.961 . S
H900 C886 0.961 . S
H901 C887 0.958 . S
H902 C887 0.961 . S
H903 C887 0.960 . S
C904 C905 1.391 . S
C904 C906 1.394 . S
C904 H920 0.931 . S
C905 C904 1.391 . S
C905 C909 1.376 . S
C906 C904 1.394 . S
C906 C907 1.369 . S
C906 C910 1.531 . S
C907 C906 1.369 . S
C907 C908 1.410 . S
C907 C915 1.503 . S
C908 C907 1.410 . S
C908 C909 1.392 . S
C908 C911 1.511 . S
C909 C905 1.376 . S
C909 C908 1.392 . S
C909 H921 0.929 . S
C910 C906 1.531 . S
C910 H922 0.960 . S
C910 H923 0.962 . S
C910 H924 0.960 . S
C911 C908 1.511 . S
C911 H925 0.961 . S
C911 H926 0.961 . S
C911 H927 0.961 . S
C912 C913 1.370 . S
C912 C914 1.363 . S
C912 H928 0.931 . S
C913 C912 1.370 . S
C913 C917 1.408 . S
C914 C912 1.363 . S
C914 C915 1.370 . S
C914 C918 1.524 . S
C915 C907 1.503 . S
C915 C914 1.370 . S
C915 C916 1.403 . S
C916 C915 1.403 . S
C916 C917 1.404 . S
C916 C919 1.539 . S
C917 C913 1.408 . S
C917 C916 1.404 . S
C917 H929 0.930 . S
C918 C914 1.524 . S
C918 H930 0.956 . S
C918 H931 0.961 . S
C918 H932 0.961 . S
C919 C916 1.539 . S
C919 H933 0.958 . S
C919 H934 0.961 . S
C919 H935 0.960 . S
H920 C904 0.931 . S
H921 C909 0.929 . S
H922 C910 0.960 . S
H923 C910 0.962 . S
H924 C910 0.960 . S
H925 C911 0.961 . S
H926 C911 0.961 . S
H927 C911 0.961 . S
H928 C912 0.931 . S
H929 C917 0.930 . S
H930 C918 0.956 . S
H931 C918 0.961 . S
H932 C918 0.961 . S
H933 C919 0.958 . S
H934 C919 0.961 . S
H935 C919 0.960 . S
C936 C937 1.391 . S
C936 C938 1.394 . S
C936 H952 0.931 . S
C937 C936 1.391 . S
C937 C941 1.376 . S
C938 C936 1.394 . S
C938 C939 1.369 . S
C938 C942 1.531 . S
C939 C938 1.369 . S
C939 C940 1.410 . S
C939 C947 1.503 . S
C940 C939 1.410 . S
C940 C941 1.392 . S
C940 C943 1.511 . S
C941 C937 1.376 . S
C941 C940 1.392 . S
C941 H953 0.929 . S
C942 C938 1.531 . S
C942 H954 0.960 . S
C942 H955 0.962 . S
C942 H956 0.960 . S
C943 C940 1.511 . S
C943 H957 0.961 . S
C943 H958 0.961 . S
C943 H959 0.961 . S
C944 C945 1.370 . S
C944 C946 1.363 . S
C944 H960 0.931 . S
C945 C944 1.370 . S
C945 C949 1.408 . S
C946 C944 1.363 . S
C946 C947 1.370 . S
C946 C950 1.524 . S
C947 C939 1.503 . S
C947 C946 1.370 . S
C947 C948 1.403 . S
C948 C947 1.403 . S
C948 C949 1.404 . S
C948 C951 1.539 . S
C949 C945 1.408 . S
C949 C948 1.404 . S
C949 H961 0.930 . S
C950 C946 1.524 . S
C950 H962 0.956 . S
C950 H963 0.961 . S
C950 H964 0.961 . S
C951 C948 1.539 . S
C951 H965 0.958 . S
C951 H966 0.961 . S
C951 H967 0.960 . S
H952 C936 0.931 . S
H953 C941 0.929 . S
H954 C942 0.960 . S
H955 C942 0.962 . S
H956 C942 0.960 . S
H957 C943 0.961 . S
H958 C943 0.961 . S
H959 C943 0.961 . S
H960 C944 0.931 . S
H961 C949 0.930 . S
H962 C950 0.956 . S
H963 C950 0.961 . S
H964 C950 0.961 . S
H965 C951 0.958 . S
H966 C951 0.961 . S
H967 C951 0.960 . S
C968 C969 1.391 . S
C968 C970 1.394 . S
C968 H984 0.931 . S
C969 C968 1.391 . S
C969 C973 1.376 . S
C970 C968 1.394 . S
C970 C971 1.369 . S
C970 C974 1.531 . S
C971 C970 1.369 . S
C971 C972 1.410 . S
C971 C979 1.503 . S
C972 C971 1.410 . S
C972 C973 1.392 . S
C972 C975 1.511 . S
C973 C969 1.376 . S
C973 C972 1.392 . S
C973 H985 0.929 . S
C974 C970 1.531 . S
C974 H986 0.960 . S
C974 H987 0.962 . S
C974 H988 0.960 . S
C975 C972 1.511 . S
C975 H989 0.961 . S
C975 H990 0.961 . S
C975 H991 0.961 . S
C976 C977 1.370 . S
C976 C978 1.363 . S
C976 H992 0.931 . S
C977 C976 1.370 . S
C977 C981 1.408 . S
C978 C976 1.363 . S
C978 C979 1.370 . S
C978 C982 1.524 . S
C979 C971 1.503 . S
C979 C978 1.370 . S
C979 C980 1.403 . S
C980 C979 1.403 . S
C980 C981 1.404 . S
C980 C983 1.539 . S
C981 C977 1.408 . S
C981 C980 1.404 . S
C981 H993 0.930 . S
C982 C978 1.524 . S
C982 H994 0.956 . S
C982 H995 0.961 . S
C982 H996 0.961 . S
C983 C980 1.539 . S
C983 H997 0.958 . S
C983 H998 0.961 . S
C983 H999 0.960 . S
H984 C968 0.931 . S
H985 C973 0.929 . S
H986 C974 0.960 . S
H987 C974 0.962 . S
H988 C974 0.960 . S
H989 C975 0.961 . S
H990 C975 0.961 . S
H991 C975 0.961 . S
H992 C976 0.931 . S
H993 C981 0.930 . S
H994 C982 0.956 . S
H995 C982 0.961 . S
H996 C982 0.961 . S
H997 C983 0.958 . S
H998 C983 0.961 . S
H999 C983 0.960 . S
C1000 C1001 1.391 . S
C1000 C1002 1.394 . S
C1000 H1016 0.931 . S
C1001 C1000 1.391 . S
C1001 C1005 1.376 . S
C1002 C1000 1.394 . S
C1002 C1003 1.369 . S
C1002 C1006 1.531 . S
C1003 C1002 1.369 . S
C1003 C1004 1.410 . S
C1003 C1011 1.503 . S
C1004 C1003 1.410 . S
C1004 C1005 1.392 . S
C1004 C1007 1.511 . S
C1005 C1001 1.376 . S
C1005 C1004 1.392 . S
C1005 H1017 0.929 . S
C1006 C1002 1.531 . S
C1006 H1018 0.960 . S
C1006 H1019 0.962 . S
C1006 H1020 0.960 . S
C1007 C1004 1.511 . S
C1007 H1021 0.961 . S
C1007 H1022 0.961 . S
C1007 H1023 0.961 . S
C1008 C1009 1.370 . S
C1008 C1010 1.363 . S
C1008 H1024 0.931 . S
C1009 C1008 1.370 . S
C1009 C1013 1.408 . S
C1010 C1008 1.363 . S
C1010 C1011 1.370 . S
C1010 C1014 1.524 . S
C1011 C1003 1.503 . S
C1011 C1010 1.370 . S
C1011 C1012 1.403 . S
C1012 C1011 1.403 . S
C1012 C1013 1.404 . S
C1012 C1015 1.539 . S
C1013 C1009 1.408 . S
C1013 C1012 1.404 . S
C1013 H1025 0.930 . S
C1014 C1010 1.524 . S
C1014 H1026 0.956 . S
C1014 H1027 0.961 . S
C1014 H1028 0.961 . S
C1015 C1012 1.539 . S
C1015 H1029 0.958 . S
C1015 H1030 0.961 . S
C1015 H1031 0.960 . S
H1016 C1000 0.931 . S
H1017 C1005 0.929 . S
H1018 C1006 0.960 . S
H1019 C1006 0.962 . S
H1020 C1006 0.960 . S
H1021 C1007 0.961 . S
H1022 C1007 0.961 . S
H1023 C1007 0.961 . S
H1024 C1008 0.931 . S
H1025 C1013 0.930 . S
H1026 C1014 0.956 . S
H1027 C1014 0.961 . S
H1028 C1014 0.961 . S
H1029 C1015 0.958 . S
H1030 C1015 0.961 . S
H1031 C1015 0.960 . S
C1032 C1033 1.391 . S
C1032 C1034 1.394 . S
C1032 H1048 0.931 . S
C1033 C1032 1.391 . S
C1033 C1037 1.376 . S
C1034 C1032 1.394 . S
C1034 C1035 1.369 . S
C1034 C1038 1.531 . S
C1035 C1034 1.369 . S
C1035 C1036 1.410 . S
C1035 C1043 1.503 . S
C1036 C1035 1.410 . S
C1036 C1037 1.392 . S
C1036 C1039 1.511 . S
C1037 C1033 1.376 . S
C1037 C1036 1.392 . S
C1037 H1049 0.929 . S
C1038 C1034 1.531 . S
C1038 H1050 0.960 . S
C1038 H1051 0.962 . S
C1038 H1052 0.960 . S
C1039 C1036 1.511 . S
C1039 H1053 0.961 . S
C1039 H1054 0.961 . S
C1039 H1055 0.961 . S
C1040 C1041 1.370 . S
C1040 C1042 1.363 . S
C1040 H1056 0.931 . S
C1041 C1040 1.370 . S
C1041 C1045 1.408 . S
C1042 C1040 1.363 . S
C1042 C1043 1.370 . S
C1042 C1046 1.524 . S
C1043 C1035 1.503 . S
C1043 C1042 1.370 . S
C1043 C1044 1.403 . S
C1044 C1043 1.403 . S
C1044 C1045 1.404 . S
C1044 C1047 1.539 . S
C1045 C1041 1.408 . S
C1045 C1044 1.404 . S
C1045 H1057 0.930 . S
C1046 C1042 1.524 . S
C1046 H1058 0.956 . S
C1046 H1059 0.961 . S
C1046 H1060 0.961 . S
C1047 C1044 1.539 . S
C1047 H1061 0.958 . S
C1047 H1062 0.961 . S
C1047 H1063 0.960 . S
H1048 C1032 0.931 . S
H1049 C1037 0.929 . S
H1050 C1038 0.960 . S
H1051 C1038 0.962 . S
H1052 C1038 0.960 . S
H1053 C1039 0.961 . S
H1054 C1039 0.961 . S
H1055 C1039 0.961 . S
H1056 C1040 0.931 . S
H1057 C1045 0.930 . S
H1058 C1046 0.956 . S
H1059 C1046 0.961 . S
H1060 C1046 0.961 . S
H1061 C1047 0.958 . S
H1062 C1047 0.961 . S
H1063 C1047 0.960 . S
C1064 C1065 1.391 . S
C1064 C1066 1.394 . S
C1064 H1080 0.931 . S
C1065 C1064 1.391 . S
C1065 C1069 1.376 . S
C1066 C1064 1.394 . S
C1066 C1067 1.369 . S
C1066 C1070 1.530 1_554 S
C1067 C1066 1.369 . S
C1067 C1068 1.410 . S
C1067 C1075 1.503 . S
C1068 C1067 1.410 . S
C1068 C1069 1.392 . S
C1068 C1071 1.511 . S
C1069 C1065 1.376 . S
C1069 C1068 1.392 . S
C1069 H1081 0.929 . S
C1070 C1066 1.530 1_556 S
C1070 H1082 0.961 . S
C1070 H1083 0.962 . S
C1070 H1084 0.960 1_556 S
C1071 C1068 1.511 . S
C1071 H1085 0.961 . S
C1071 H1086 0.961 . S
C1071 H1087 0.961 . S
C1072 C1073 1.370 . S
C1072 C1074 1.363 . S
C1072 H1088 0.931 . S
C1073 C1072 1.370 . S
C1073 C1077 1.408 . S
C1074 C1072 1.363 . S
C1074 C1075 1.370 1_556 S
C1074 C1078 1.524 . S
C1075 C1067 1.503 . S
C1075 C1074 1.370 1_554 S
C1075 C1076 1.394 1_554 S
C1076 C1075 1.394 1_556 S
C1076 C1077 1.435 . S
C1076 C1079 1.517 1_556 S
C1077 C1073 1.408 . S
C1077 C1076 1.435 . S
C1077 H1089 0.930 . S
C1078 C1074 1.524 . S
C1078 H1090 0.956 . S
C1078 H1091 0.961 1_556 S
C1078 H1092 0.961 . S
C1079 C1076 1.517 1_554 S
C1079 H1093 0.958 . S
C1079 H1094 0.961 . S
C1079 H1095 0.960 . S
H1080 C1064 0.931 . S
H1081 C1069 0.929 . S
H1082 C1070 0.961 . S
H1083 C1070 0.962 . S
H1084 C1070 0.960 1_554 S
H1085 C1071 0.961 . S
H1086 C1071 0.961 . S
H1087 C1071 0.961 . S
H1088 C1072 0.931 . S
H1089 C1077 0.930 . S
H1090 C1078 0.956 . S
H1091 C1078 0.961 1_554 S
H1092 C1078 0.961 . S
H1093 C1079 0.958 . S
H1094 C1079 0.961 . S
H1095 C1079 0.960 . S
C1096 C1097 1.391 . S
C1096 C1098 1.394 . S
C1096 H1112 0.931 . S
C1097 C1096 1.391 . S
C1097 C1101 1.376 . S
C1098 C1096 1.394 . S
C1098 C1099 1.369 . S
C1098 C1102 1.531 . S
C1099 C1098 1.369 . S
C1099 C1100 1.410 . S
C1099 C1107 1.503 . S
C1100 C1099 1.410 . S
C1100 C1101 1.392 . S
C1100 C1103 1.511 . S
C1101 C1097 1.376 . S
C1101 C1100 1.392 . S
C1101 H1113 0.929 . S
C1102 C1098 1.531 . S
C1102 H1114 0.960 . S
C1102 H1115 0.962 . S
C1102 H1116 0.960 . S
C1103 C1100 1.511 . S
C1103 H1117 0.961 . S
C1103 H1118 0.961 . S
C1103 H1119 0.961 . S
C1104 C1105 1.370 . S
C1104 C1106 1.363 . S
C1104 H1120 0.931 . S
C1105 C1104 1.370 . S
C1105 C1109 1.408 . S
C1106 C1104 1.363 . S
C1106 C1107 1.370 . S
C1106 C1110 1.524 . S
C1107 C1099 1.503 . S
C1107 C1106 1.370 . S
C1107 C1108 1.403 . S
C1108 C1107 1.403 . S
C1108 C1109 1.404 . S
C1108 C1111 1.539 . S
C1109 C1105 1.408 . S
C1109 C1108 1.404 . S
C1109 H1121 0.930 . S
C1110 C1106 1.524 . S
C1110 H1122 0.956 . S
C1110 H1123 0.961 . S
C1110 H1124 0.961 . S
C1111 C1108 1.539 . S
C1111 H1125 0.958 . S
C1111 H1126 0.961 . S
C1111 H1127 0.960 . S
H1112 C1096 0.931 . S
H1113 C1101 0.929 . S
H1114 C1102 0.960 . S
H1115 C1102 0.962 . S
H1116 C1102 0.960 . S
H1117 C1103 0.961 . S
H1118 C1103 0.961 . S
H1119 C1103 0.961 . S
H1120 C1104 0.931 . S
H1121 C1109 0.930 . S
H1122 C1110 0.956 . S
H1123 C1110 0.961 . S
H1124 C1110 0.961 . S
H1125 C1111 0.958 . S
H1126 C1111 0.961 . S
H1127 C1111 0.960 . S
C369 C353 1.560 . S
C361 C15 1.533 . S
C393 C61 1.448 . S
C401 C287 1.459 . S
C425 C114 1.366 . S
C433 C301 1.398 . S
C457 C139 1.473 . S
C465 C315 1.472 . S
C497 C329 1.520 . S
C489 C185 1.512 . S
C521 C245 1.481 . S
C529 C339 1.535 . S
C553 C47 1.570 . S
C561 C297 1.576 . S
C585 C100 1.626 . S
C593 C311 1.661 . S
C617 C153 1.547 . S
C625 C325 1.596 . S
C657 C343 1.505 . S
C649 C199 1.489 . S
C689 C357 1.517 . S
C681 C231 1.509 . S
C721 C283 1.540 . S
C713 C1 1.512 . S
C745 C22 1.467 . S
C753 C298 1.435 . S
C777 C68 1.548 . S
C785 C312 1.520 . S
C817 C326 1.522 . S
C809 C107 1.551 . S
C841 C146 1.460 . S
C849 C345 1.390 . S
C881 C359 1.361 . S
C873 C192 1.444 . S
C913 C284 1.405 . S
C905 C252 1.448 . S
C945 C354 1.406 . S
C937 C54 1.461 . S
C969 C93 1.364 . S
C977 C289 1.299 . S
C1009 C303 1.309 . S
C1001 C160 1.365 . S
C1033 C206 1.439 . S
C1041 C317 1.401 . S
C1065 C238 1.458 . S
C1073 C331 1.402 . S
C1097 C8 1.496 . S
C1105 C340 1.425 . S
