# Generated by pormake.
# Topology zzz, (3,6)-cn, num edge types: 1
# Building blocks:
#     Node 0, Type 0, BuildingBlock: BETDAH_clean_linker_0, # of connection points: 3
#     Node 1, Type 0, BuildingBlock: BETDAH_clean_linker_0, # of connection points: 3
#     Node 2, Type 0, BuildingBlock: BETDAH_clean_linker_0, # of connection points: 3
#     Node 3, Type 0, BuildingBlock: BETDAH_clean_linker_0, # of connection points: 3
#     Node 4, Type 0, BuildingBlock: BETDAH_clean_linker_0, # of connection points: 3
#     Node 5, Type 0, BuildingBlock: BETDAH_clean_linker_0, # of connection points: 3
#     Node 6, Type 0, BuildingBlock: BETDAH_clean_linker_0, # of connection points: 3
#     Node 7, Type 0, BuildingBlock: BETDAH_clean_linker_0, # of connection points: 3
#     Node 8, Type 1, BuildingBlock: BETDIP_clean_sbu_0, # of connection points: 6
#     Node 9, Type 1, BuildingBlock: BETDIP_clean_sbu_0, # of connection points: 6
#     Node 10, Type 1, BuildingBlock: BETDIP_clean_sbu_0, # of connection points: 6
#     Node 11, Type 1, BuildingBlock: BETDIP_clean_sbu_0, # of connection points: 6
#     Edge 12, Type (0, 1), BuildingBlock: TEMPAE_clean_linker_10, # of connection points: 2
#     Edge 13, Type (0, 1), BuildingBlock: TEMPAE_clean_linker_10, # of connection points: 2
#     Edge 14, Type (0, 1), BuildingBlock: TEMPAE_clean_linker_10, # of connection points: 2
#     Edge 15, Type (0, 1), BuildingBlock: TEMPAE_clean_linker_10, # of connection points: 2
#     Edge 16, Type (0, 1), BuildingBlock: TEMPAE_clean_linker_10, # of connection points: 2
#     Edge 17, Type (0, 1), BuildingBlock: TEMPAE_clean_linker_10, # of connection points: 2
#     Edge 18, Type (0, 1), BuildingBlock: TEMPAE_clean_linker_10, # of connection points: 2
#     Edge 19, Type (0, 1), BuildingBlock: TEMPAE_clean_linker_10, # of connection points: 2
#     Edge 20, Type (0, 1), BuildingBlock: TEMPAE_clean_linker_10, # of connection points: 2
#     Edge 21, Type (0, 1), BuildingBlock: TEMPAE_clean_linker_10, # of connection points: 2
#     Edge 22, Type (0, 1), BuildingBlock: TEMPAE_clean_linker_10, # of connection points: 2
#     Edge 23, Type (0, 1), BuildingBlock: TEMPAE_clean_linker_10, # of connection points: 2
#     Edge 24, Type (0, 1), BuildingBlock: TEMPAE_clean_linker_10, # of connection points: 2
#     Edge 25, Type (0, 1), BuildingBlock: TEMPAE_clean_linker_10, # of connection points: 2
#     Edge 26, Type (0, 1), BuildingBlock: TEMPAE_clean_linker_10, # of connection points: 2
#     Edge 27, Type (0, 1), BuildingBlock: TEMPAE_clean_linker_10, # of connection points: 2
#     Edge 28, Type (0, 1), BuildingBlock: TEMPAE_clean_linker_10, # of connection points: 2
#     Edge 29, Type (0, 1), BuildingBlock: TEMPAE_clean_linker_10, # of connection points: 2
#     Edge 30, Type (0, 1), BuildingBlock: TEMPAE_clean_linker_10, # of connection points: 2
#     Edge 31, Type (0, 1), BuildingBlock: TEMPAE_clean_linker_10, # of connection points: 2
#     Edge 32, Type (0, 1), BuildingBlock: TEMPAE_clean_linker_10, # of connection points: 2
#     Edge 33, Type (0, 1), BuildingBlock: TEMPAE_clean_linker_10, # of connection points: 2
#     Edge 34, Type (0, 1), BuildingBlock: TEMPAE_clean_linker_10, # of connection points: 2
#     Edge 35, Type (0, 1), BuildingBlock: TEMPAE_clean_linker_10, # of connection points: 2
# Relax obj value: 0.267
# Max RMSD: 0.168
# Mean RMSD: 0.149
data_MOF--net-zzz--node1-BETDIP_clean_sbu_0--node2-BETDAH_clean_linker_0--edge1-TEMPAE_clean_linker_10
_symmetry_space_group_name_H-M    P1
_symmetry_Int_Tables_number       1
_symmetry_cell_setting            triclinic
loop_
_symmetry_equiv_pos_as_xyz
'x, y, z'
_cell_length_a     52.534238
_cell_length_b     52.551081
_cell_length_c     13.828646
_cell_angle_alpha  89.584655
_cell_angle_beta   89.751866
_cell_angle_gamma 90.071061
loop_
_atom_site_label
_atom_site_type_symbol
_atom_site_fract_x
_atom_site_fract_y
_atom_site_fract_z
_atom_type_partial_charge
H0 H 0.80367 0.47245 0.37252 0.0
H1 H 0.73244 0.49281 0.2468 0.0
H2 H 0.75994 0.53314 0.49703 0.0
C3 C 0.78643 0.48364 0.37601 0.0
C4 C 0.78433 0.50279 0.44555 0.0
C5 C 0.76798 0.4801 0.30458 0.0
C6 C 0.74623 0.49536 0.30376 0.0
C7 C 0.74277 0.5142 0.37446 0.0
C8 C 0.76216 0.51816 0.44431 0.0
N9 N 0.72047 0.52978 0.37512 0.0
C10 C 0.70022 0.5277 0.30969 0.0
H11 H 0.04341 0.80987 0.33055 0.0
H12 H 0.03485 0.73229 0.24441 0.0
H13 H 1.01072 0.75573 0.53021 0.0
C14 C 0.03764 0.79056 0.34857 0.0
C15 C 0.02721 0.78539 0.4398 0.0
C16 C 0.0401 0.77162 0.27849 0.0
C17 C 0.03273 0.74667 0.29959 0.0
C18 C 0.02206 0.74059 0.39054 0.0
C19 C 0.01907 0.76018 0.46036 0.0
N20 N 1.01406 0.71517 0.41261 0.0
C21 C 1.01524 0.69484 0.34737 0.0
H22 H 0.72472 0.96978 0.40557 0.0
H23 H 0.79839 0.98619 0.28544 0.0
H24 H 0.77325 0.0235 0.54631 0.0
C25 C 0.7431 0.979 0.41111 0.0
C26 C 0.7467 0.99644 0.48563 0.0
C27 C 0.76117 0.9759 0.33692 0.0
C28 C 0.7846 0.98852 0.34315 0.0
C29 C 0.78953 1.00525 0.41988 0.0
C30 C 0.77014 1.0097 0.48978 0.0
N31 N 0.81319 0.01868 0.42521 0.0
C32 C 0.83312 1.01645 0.35779 0.0
H33 H 0.55535 0.72821 0.39033 0.0
H34 H 0.54187 0.80205 0.26671 0.0
H35 H 0.50396 0.77925 0.53136 0.0
C36 C 0.54701 0.74701 0.39521 0.0
C37 C 0.52982 0.75152 0.47042 0.0
C38 C 0.5505 0.76456 0.31915 0.0
C39 C 0.53915 0.78859 0.32555 0.0
C40 C 0.52281 0.79445 0.40321 0.0
C41 C 0.51762 0.77548 0.47435 0.0
N42 N 0.51033 0.81858 0.40767 0.0
C43 C 0.51265 0.83771 0.33681 0.0
H44 H 0.22098 0.56015 0.1541 0.0
H45 H 0.29332 0.54277 0.27851 0.0
H46 H 0.27203 0.51022 0.00357 0.0
C47 C 0.23935 0.55095 0.14762 0.0
C48 C 0.24417 0.53534 0.0683 0.0
C49 C 0.25674 0.55337 0.22322 0.0
C50 C 0.28022 0.54098 0.21867 0.0
C51 C 0.28626 0.52574 0.13826 0.0
C52 C 0.26786 0.52253 0.06406 0.0
N53 N 0.31025 0.51305 0.13153 0.0
C54 C 0.32982 0.51487 0.19988 0.0
H55 H 0.98534 0.2213 0.18406 0.0
H56 H 0.99826 0.29753 0.27896 0.0
H57 H 0.0256 0.27369 0.99808 0.0
C58 C 0.9927 0.24024 0.16898 0.0
C59 C 1.0053 0.24501 0.08147 0.0
C60 C 0.99041 0.259 0.23975 0.0
C61 C 1.00008 0.28338 0.2229 0.0
C62 C 1.01269 0.28908 0.13531 0.0
C63 C 1.01558 0.26961 0.06505 0.0
N64 N 0.02287 0.31392 0.11711 0.0
C65 C 0.02158 0.33431 0.18204 0.0
H66 H 0.2993 0.06584 0.10957 0.0
H67 H 0.22618 0.04755 0.23067 0.0
H68 H 0.25211 1.01074 0.96992 0.0
C69 C 0.28115 0.05615 0.1043 0.0
C70 C 0.27796 0.03855 0.03002 0.0
C71 C 0.26308 0.0588 0.17872 0.0
C72 C 0.23998 0.04557 0.17282 0.0
C73 C 0.23544 0.02865 0.09627 0.0
C74 C 0.25488 0.02468 0.02624 0.0
N75 N 0.21218 1.01457 0.09128 0.0
C76 C 0.19232 1.01621 0.15915 0.0
H77 H 0.5567 0.30217 0.10208 0.0
H78 H 0.53627 0.23127 0.23387 0.0
H79 H 0.49156 0.26135 0.99806 0.0
C80 C 0.54493 0.28527 0.10228 0.0
C81 C 0.52421 0.28414 0.03891 0.0
C82 C 0.54907 0.26661 0.17352 0.0
C83 C 0.5331 0.24534 0.17788 0.0
C84 C 0.51251 0.24294 0.11397 0.0
C85 C 0.50788 0.26267 0.04535 0.0
N86 N 0.4957 0.22153 0.12038 0.0
C87 C 0.49774 0.20181 0.18907 0.0
Tb88 Tb 0.03102 1.01011 0.83765 0.0
Tb89 Tb 0.99633 0.02005 0.6877 0.0
C90 C 0.05518 0.99082 0.97586 0.0
C91 C 0.06847 0.96637 0.98437 0.0
C92 C 0.06669 0.95266 0.07097 0.0
C93 C 0.0757 0.92778 0.07625 0.0
C94 C 0.0871 0.91612 0.9952 0.0
C95 C 0.08979 0.93041 0.90937 0.0
C96 C 0.08036 0.95525 0.90377 0.0
C97 C 0.05425 0.02314 0.67318 0.0
C98 C 1.01217 0.96376 0.70495 0.0
C99 C 0.97148 0.03959 0.55126 0.0
C100 C 0.96218 0.06582 0.53915 0.0
C101 C 0.97835 0.08643 0.5584 0.0
C102 C 0.96894 0.11113 0.55906 0.0
C103 C 0.94331 0.11583 0.53817 0.0
C104 C 0.92716 0.09545 0.51556 0.0
C105 C 0.93649 0.07048 0.5174 0.0
C106 C 0.97343 1.00667 0.85253 0.0
C107 C 1.01569 0.06617 0.81987 0.0
O108 O 0.03048 0.98906 0.96706 0.0
O109 O 0.06506 1.00737 0.91559 0.0
O110 O 0.03533 1.00843 0.6821 0.0
O111 O 0.06059 0.03086 0.75822 0.0
O112 O 0.02148 0.97104 0.78928 0.0
O113 O 1.00352 0.98099 0.64359 0.0
O114 O 0.99619 0.03648 0.54897 0.0
O115 O 0.96096 0.02691 0.62228 0.0
O116 O 0.99202 0.02178 0.84315 0.0
O117 O 0.96755 0.99831 0.76781 0.0
O118 O 1.0078 0.05896 0.73338 0.0
O119 O 0.0225 0.04871 0.88349 0.0
H120 H 0.05723 0.96079 0.13334 0.0
H121 H 0.07244 0.91735 0.14293 0.0
H122 H 0.09857 0.92226 0.8458 0.0
H123 H 0.08162 0.96546 0.83554 0.0
H124 H 0.99833 0.08351 0.57316 0.0
H125 H 0.98191 0.12673 0.57278 0.0
H126 H 0.90748 0.09887 0.49647 0.0
H127 H 0.92369 0.05483 0.5024 0.0
Tb128 Tb 0.51801 0.03244 0.84748 0.0
Tb129 Tb 0.50672 1.00502 0.66843 0.0
C130 C 0.53815 0.04236 0.00543 0.0
C131 C 0.56167 0.0305 0.04088 0.0
C132 C 0.56569 1.00434 0.02624 0.0
C133 C 0.58958 0.99365 0.04077 0.0
C134 C 0.60996 1.00891 0.07013 0.0
C135 C 0.6058 0.03492 0.08804 0.0
C136 C 0.5818 0.04566 0.07325 0.0
C137 C 0.50621 0.06282 0.70115 0.0
C138 C 0.56391 1.0124 0.71105 0.0
C139 C 0.48662 0.99501 0.51043 0.0
C140 C 0.46311 1.00681 0.47457 0.0
C141 C 0.45895 0.03294 0.48942 0.0
C142 C 0.43505 0.04355 0.47437 0.0
C143 C 0.4148 0.02824 0.44427 0.0
C144 C 0.4191 1.00226 0.4261 0.0
C145 C 0.44311 0.99161 0.44139 0.0
C146 C 0.51795 0.97473 0.81636 0.0
C147 C 0.46082 0.02493 0.8047 0.0
O148 O 0.51859 0.02705 0.99772 0.0
O149 O 0.54114 0.05682 0.92877 0.0
O150 O 0.51937 0.04274 0.69753 0.0
O151 O 0.5007 0.06742 0.79093 0.0
O152 O 0.55598 0.0188 0.79888 0.0
O153 O 0.54737 1.00781 0.64175 0.0
O154 O 0.50615 1.01034 0.51815 0.0
O155 O 0.48358 0.98062 0.58724 0.0
O156 O 0.50502 0.99492 0.81823 0.0
O157 O 0.52365 0.96991 0.72687 0.0
O158 O 0.46876 0.01869 0.71673 0.0
O159 O 0.47735 0.0294 0.8742 0.0
H160 H 0.55067 0.99223 0.99951 0.0
H161 H 0.59218 0.97351 0.02788 0.0
H162 H 0.62132 0.04712 0.11025 0.0
H163 H 0.57923 0.06593 0.08302 0.0
H164 H 0.47388 0.04507 0.51671 0.0
H165 H 0.43235 0.06368 0.48749 0.0
H166 H 0.40368 0.99002 0.40332 0.0
H167 H 0.44578 0.97135 0.4314 0.0
Tb168 Tb 0.50033 0.52363 0.85789 0.0
Tb169 Tb 0.52916 0.5135 0.66832 0.0
C170 C 0.49436 0.53718 0.02957 0.0
C171 C 0.48979 0.56253 0.06819 0.0
C172 C 0.50298 0.56987 0.15135 0.0
C173 C 0.50804 0.59556 0.1674 0.0
C174 C 0.49995 0.61391 0.1001 0.0
C175 C 0.48409 0.60678 0.02385 0.0
C176 C 0.47904 0.58116 0.00771 0.0
C177 C 0.46727 0.52112 0.71208 0.0
C178 C 0.5133 0.56973 0.70941 0.0
C179 C 0.54674 0.49569 0.51478 0.0
C180 C 0.5521 0.46921 0.48808 0.0
C181 C 0.53291 0.4506 0.4931 0.0
C182 C 0.53885 0.42509 0.47897 0.0
C183 C 0.56406 0.41775 0.46057 0.0
C184 C 0.58327 0.43623 0.45521 0.0
C185 C 0.57728 0.46185 0.46829 0.0
C186 C 0.55709 0.52556 0.82018 0.0
C187 C 0.51049 0.46631 0.80357 0.0
O188 O 0.51659 0.5354 0.98719 0.0
O189 O 0.47607 0.52694 0.97852 0.0
O190 O 0.49117 0.5189 0.7102 0.0
O191 O 0.46104 0.52466 0.80188 0.0
O192 O 0.50849 0.56248 0.80044 0.0
O193 O 0.51879 0.55297 0.6412 0.0
O194 O 0.52277 0.50202 0.52557 0.0
O195 O 0.56102 0.50437 0.58429 0.0
O196 O 0.53774 0.51128 0.81912 0.0
O197 O 0.56144 0.53353 0.73278 0.0
O198 O 0.52022 0.47439 0.71967 0.0
O199 O 0.50241 0.4823 0.87076 0.0
H200 H 0.51166 0.5557 0.198 0.0
H201 H 0.52022 0.60082 0.2271 0.0
H202 H 0.47715 0.62085 0.97295 0.0
H203 H 0.46897 0.57587 0.94264 0.0
H204 H 0.51339 0.4556 0.50974 0.0
H205 H 0.52378 0.41102 0.48309 0.0
H206 H 0.60276 0.43086 0.43965 0.0
H207 H 0.59239 0.4759 0.46502 0.0
Tb208 Tb 1.01124 0.50186 0.83066 0.0
Tb209 Tb 0.02103 0.53513 0.65447 0.0
C210 C 0.99498 0.47953 0.97966 0.0
C211 C 0.9711 0.46598 0.99829 0.0
C212 C 0.96449 0.45892 0.09263 0.0
C213 C 0.94036 0.44896 0.11214 0.0
C214 C 0.92225 0.44667 0.03768 0.0
C215 C 0.92969 0.45218 0.94207 0.0
C216 C 0.95403 0.46151 0.92251 0.0
C217 C 0.02412 0.47728 0.67035 0.0
C218 C 0.96394 0.51975 0.69928 0.0
C219 C 0.03412 0.55019 0.48992 0.0
C220 C 0.05419 0.56779 0.45798 0.0
C221 C 0.06891 0.56146 0.37738 0.0
C222 C 0.09173 0.57416 0.35916 0.0
C223 C 0.10016 0.59368 0.42094 0.0
C224 C 0.08411 0.6015 0.49661 0.0
C225 C 0.06138 0.58852 0.51549 0.0
C226 C 0.01902 0.56469 0.81178 0.0
C227 C 0.06671 0.5208 0.7965 0.0
O228 O 0.99272 0.50405 0.96497 0.0
O229 O 1.01004 0.46889 0.91651 0.0
O230 O 1.00946 0.49627 0.67626 0.0
O231 O 0.03182 0.4716 0.75645 0.0
O232 O 0.9719 0.50922 0.78131 0.0
O233 O 0.98014 0.52953 0.63549 0.0
O234 O 0.04253 0.529 0.52921 0.0
O235 O 1.01512 0.56019 0.53839 0.0
O236 O 1.01646 0.54095 0.80577 0.0
O237 O 0.02259 0.57281 0.72437 0.0
O238 O 0.05977 0.52558 0.70574 0.0
O239 O 0.04959 0.51495 0.86375 0.0
H240 H 0.97761 0.46203 0.1515 0.0
H241 H 0.93547 0.44425 0.18632 0.0
H242 H 0.91629 0.45081 0.88304 0.0
H243 H 0.95911 0.46622 0.84865 0.0
H244 H 0.0637 0.54546 0.33253 0.0
H245 H 0.10359 0.5672 0.30092 0.0
H246 H 0.08973 0.61672 0.54443 0.0
H247 H 0.05024 0.59379 0.57821 0.0
C248 C 0.17094 1.00065 0.3087 0.0
C249 C 0.17141 0.01723 0.22896 0.0
C250 C 0.15089 1.00138 0.37693 0.0
C251 C 0.13077 0.01916 0.36536 0.0
C252 C 0.13116 0.03578 0.28395 0.0
C253 C 0.15146 0.03461 0.21682 0.0
C254 C 0.1514 0.98328 0.46215 0.0
C255 C 0.11027 0.05504 0.26837 0.0
C256 C 0.06898 1.00769 0.50921 0.0
C257 C 0.07252 0.02332 0.59001 0.0
C258 C 0.08749 1.00641 0.43479 0.0
C259 C 0.11011 0.02116 0.44092 0.0
C260 C 0.11337 0.03742 0.52129 0.0
C261 C 0.09464 0.03829 0.59441 0.0
C262 C 0.08309 0.98885 0.3506 0.0
C263 C 0.13699 0.05359 0.53122 0.0
H264 H 0.18634 0.98715 0.31796 0.0
H265 H 0.15179 0.04739 0.15492 0.0
H266 H 0.15247 0.99421 0.53038 0.0
H267 H 0.13356 0.97197 0.46488 0.0
H268 H 0.16782 0.97001 0.4591 0.0
H269 H 0.11284 0.06601 0.20005 0.0
H270 H 0.09151 0.04534 0.26658 0.0
H271 H 0.1098 0.06857 0.32958 0.0
H272 H 0.05199 0.99602 0.50515 0.0
H273 H 0.09755 0.05048 0.6563 0.0
H274 H 0.09804 0.97396 0.34933 0.0
H275 H 0.08454 0.9996 0.28146 0.0
H276 H 0.06417 0.97941 0.35425 0.0
H277 H 0.15401 0.04119 0.5364 0.0
H278 H 0.13628 0.06592 0.5961 0.0
H279 H 0.13949 0.06584 0.4662 0.0
C280 C 0.51753 0.18072 0.33181 0.0
C281 C 0.4989 0.18099 0.25963 0.0
C282 C 0.51862 0.16089 0.40101 0.0
C283 C 0.50058 0.14077 0.3984 0.0
C284 C 0.48178 0.14096 0.32496 0.0
C285 C 0.48118 0.16105 0.25656 0.0
C286 C 0.53899 0.16158 0.47756 0.0
C287 C 0.46213 0.12004 0.31922 0.0
C288 C 0.51693 0.07892 0.53348 0.0
C289 C 0.50389 0.08197 0.62146 0.0
C290 C 0.5157 0.09761 0.45976 0.0
C291 C 0.50106 0.11998 0.47396 0.0
C292 C 0.48745 0.12284 0.56204 0.0
C293 C 0.48907 0.10389 0.63446 0.0
C294 C 0.53045 0.09362 0.36725 0.0
C295 C 0.47144 0.14615 0.58049 0.0
H296 H 0.53127 0.19607 0.33473 0.0
H297 H 0.46673 0.16122 0.20079 0.0
H298 H 0.53007 0.16242 0.55033 0.0
H299 H 0.5505 0.14391 0.47494 0.0
H300 H 0.55193 0.17819 0.4687 0.0
H301 H 0.44913 0.12259 0.25675 0.0
H302 H 0.47166 0.10129 0.31294 0.0
H303 H 0.45059 0.11953 0.38661 0.0
H304 H 0.52841 0.06205 0.5227 0.0
H305 H 0.47882 0.10635 0.70195 0.0
H306 H 0.54498 0.10882 0.35858 0.0
H307 H 0.51752 0.09496 0.30422 0.0
H308 H 0.54018 0.07487 0.36576 0.0
H309 H 0.48368 0.16337 0.57948 0.0
H310 H 0.46132 0.14515 0.65113 0.0
H311 H 0.45716 0.14851 0.52227 0.0
C312 C 0.36247 0.53896 0.29136 0.0
C313 C 0.35081 0.51579 0.26863 0.0
C314 C 0.38274 0.54004 0.35801 0.0
C315 C 0.39157 0.51738 0.40324 0.0
C316 C 0.37997 0.49388 0.37894 0.0
C317 C 0.35976 0.49339 0.31204 0.0
C318 C 0.39437 0.56551 0.38147 0.0
C319 C 0.38859 0.46926 0.42506 0.0
C320 C 0.45611 0.51709 0.53407 0.0
C321 C 0.44864 0.51998 0.63087 0.0
C322 C 0.43788 0.51622 0.45902 0.0
C323 C 0.41152 0.51845 0.48113 0.0
C324 C 0.40402 0.52153 0.57886 0.0
C325 C 0.42256 0.52222 0.65195 0.0
C326 C 0.44681 0.51293 0.35606 0.0
C327 C 0.3763 0.52411 0.60657 0.0
H328 H 0.35561 0.5563 0.25744 0.0
H329 H 0.35081 0.47543 0.29413 0.0
H330 H 0.391 0.56995 0.4588 0.0
H331 H 0.41528 0.56491 0.37011 0.0
H332 H 0.38635 0.58115 0.3366 0.0
H333 H 0.37865 0.45245 0.39474 0.0
H334 H 0.40939 0.46681 0.41471 0.0
H335 H 0.38493 0.4698 0.50411 0.0
H336 H 0.47613 0.51561 0.51688 0.0
H337 H 0.41652 0.52457 0.7264 0.0
H338 H 0.44059 0.52938 0.31136 0.0
H339 H 0.43805 0.49564 0.32479 0.0
H340 H 0.46785 0.51125 0.35063 0.0
H341 H 0.3678 0.54065 0.56837 0.0
H342 H 0.37358 0.52666 0.68562 0.0
H343 H 0.36564 0.50693 0.584 0.0
C344 C 0.03787 0.37662 0.2312 0.0
C345 C 0.02121 0.35615 0.24687 0.0
C346 C 0.03824 0.39765 0.2942 0.0
C347 C 0.0216 0.39823 0.37529 0.0
C348 C 1.00442 0.37765 0.39014 0.0
C349 C 1.00442 0.35691 0.32577 0.0
C350 C 0.05674 0.41909 0.27477 0.0
C351 C 0.98631 0.37734 0.47514 0.0
C352 C 0.04026 0.43689 0.59743 0.0
C353 C 0.0247 0.45852 0.5897 0.0
C354 C 0.03968 0.41749 0.52774 0.0
C355 C 0.02311 0.41955 0.44743 0.0
C356 C 1.00779 0.44169 0.43783 0.0
C357 C 1.00876 0.46089 0.50892 0.0
C358 C 0.05648 0.39445 0.54131 0.0
C359 C 0.98987 0.44479 0.3537 0.0
H360 H 0.05079 0.37611 0.1699 0.0
H361 H 0.9914 0.34118 0.33775 0.0
H362 H 0.0464 0.43745 0.27017 0.0
H363 H 0.07038 0.42057 0.33552 0.0
H364 H 0.06766 0.41636 0.20666 0.0
H365 H 0.97353 0.36049 0.47482 0.0
H366 H 0.99725 0.37724 0.54362 0.0
H367 H 0.97448 0.39482 0.4746 0.0
H368 H 0.05268 0.43488 0.65942 0.0
H369 H 0.99659 0.47745 0.50243 0.0
H370 H 0.06877 0.39183 0.47673 0.0
H371 H 0.04453 0.37712 0.54903 0.0
H372 H 0.06881 0.396 0.60606 0.0
H373 H 0.99992 0.44082 0.28477 0.0
H374 H 0.98157 0.46421 0.34992 0.0
H375 H 0.97411 0.43082 0.36058 0.0
C376 C 0.85449 0.03025 0.20564 0.0
C377 C 0.85418 1.01485 0.28872 0.0
C378 C 0.87475 0.02905 0.13839 0.0
C379 C 0.89528 1.01197 0.15435 0.0
C380 C 0.89502 0.9965 0.23898 0.0
C381 C 0.8745 0.99815 0.30505 0.0
C382 C 0.87408 0.04593 0.0497 0.0
C383 C 0.91633 0.97802 0.2593 0.0
C384 C 0.93313 0.99113 0.93128 0.0
C385 C 0.95479 1.00678 0.93459 0.0
C386 C 0.91401 0.9923 0.00296 0.0
C387 C 0.91637 1.00962 0.08059 0.0
C388 C 0.93853 0.02508 0.08564 0.0
C389 C 0.95747 0.02344 0.01287 0.0
C390 C 0.89094 0.97532 0.99435 0.0
C391 C 0.94197 0.04381 0.16675 0.0
H392 H 0.8388 0.04324 0.19309 0.0
H393 H 0.87433 0.98627 0.36952 0.0
H394 H 0.89157 0.05776 0.04586 0.0
H395 H 0.87367 0.03407 0.98368 0.0
H396 H 0.85725 0.0587 0.04909 0.0
H397 H 0.91367 0.96777 0.32917 0.0
H398 H 0.91751 0.96382 0.20046 0.0
H399 H 0.9348 0.98826 0.26091 0.0
H400 H 0.93088 0.97816 0.87133 0.0
H401 H 0.97407 0.03566 0.01605 0.0
H402 H 0.8736 0.98712 0.98551 0.0
H403 H 0.88843 0.96386 0.06144 0.0
H404 H 0.89237 0.96217 0.93201 0.0
H405 H 0.92658 0.05824 0.16426 0.0
H406 H 0.96061 0.05377 0.16265 0.0
H407 H 0.94049 0.03389 0.23766 0.0
C408 C 0.49602 0.85924 0.19003 0.0
C409 C 0.51431 0.8577 0.26317 0.0
C410 C 0.4971 0.87859 0.11882 0.0
C411 C 0.51699 0.8969 0.12058 0.0
C412 C 0.53555 0.89529 0.19471 0.0
C413 C 0.53398 0.87572 0.26506 0.0
C414 C 0.47689 0.87945 0.04161 0.0
C415 C 0.55708 0.91428 0.19969 0.0
C416 C 0.53182 0.93241 0.88387 0.0
C417 C 0.51884 0.95549 0.89628 0.0
C418 C 0.53175 0.91345 0.95663 0.0
C419 C 0.51837 0.91753 0.04451 0.0
C420 C 0.50568 0.94107 0.05815 0.0
C421 C 0.50603 0.95968 0.98405 0.0
C422 C 0.54566 0.8888 0.93869 0.0
C423 C 0.4913 0.94644 0.15048 0.0
H424 H 0.48079 0.84531 0.18861 0.0
H425 H 0.54813 0.87453 0.32174 0.0
H426 H 0.46682 0.89798 0.04379 0.0
H427 H 0.48585 0.87787 0.96911 0.0
H428 H 0.46267 0.86393 0.05025 0.0
H429 H 0.56992 0.91054 0.26181 0.0
H430 H 0.56846 0.91372 0.13197 0.0
H431 H 0.54934 0.93383 0.20619 0.0
H432 H 0.54184 0.92903 0.8165 0.0
H433 H 0.49594 0.97744 0.99439 0.0
H434 H 0.53195 0.87273 0.9397 0.0
H435 H 0.55962 0.88523 0.99718 0.0
H436 H 0.55588 0.88886 0.86819 0.0
H437 H 0.47546 0.93261 0.15918 0.0
H438 H 0.48329 0.96599 0.15166 0.0
H439 H 0.50403 0.944 0.21366 0.0
C440 C 0.67789 0.50965 0.16733 0.0
C441 C 0.67852 0.52689 0.24405 0.0
C442 C 0.65725 0.50918 0.10236 0.0
C443 C 0.63667 0.52639 0.11416 0.0
C444 C 0.63717 0.54363 0.19268 0.0
C445 C 0.65807 0.54367 0.25652 0.0
C446 C 0.65764 0.49047 0.02008 0.0
C447 C 0.61578 0.56232 0.20842 0.0
C448 C 0.59776 0.54255 0.88863 0.0
C449 C 0.57624 0.52692 0.89947 0.0
C450 C 0.61722 0.54286 0.95845 0.0
C451 C 0.6153 0.52711 0.04187 0.0
C452 C 0.5933 0.51167 0.05435 0.0
C453 C 0.57408 0.51174 0.98309 0.0
C454 C 0.64013 0.55973 0.94185 0.0
C455 C 0.5903 0.49466 0.14207 0.0
H456 H 0.69364 0.49662 0.15748 0.0
H457 H 0.65852 0.55701 0.31595 0.0
H458 H 0.64017 0.47858 0.022 0.0
H459 H 0.65778 0.50089 0.95002 0.0
H460 H 0.67451 0.47776 0.02266 0.0
H461 H 0.61848 0.57379 0.27478 0.0
H462 H 0.61445 0.57545 0.14545 0.0
H463 H 0.59735 0.55208 0.21413 0.0
H464 H 0.59961 0.55437 0.82439 0.0
H465 H 0.55761 0.49948 0.99193 0.0
H466 H 0.65754 0.5479 0.93609 0.0
H467 H 0.64274 0.57262 0.00423 0.0
H468 H 0.63842 0.57146 0.87503 0.0
H469 H 0.60572 0.48027 0.14315 0.0
H470 H 0.57167 0.48462 0.14333 0.0
H471 H 0.59206 0.50601 0.20908 0.0
C472 C 0.99418 0.66766 0.22555 0.0
C473 C 1.01582 0.67366 0.27954 0.0
C474 C 0.99456 0.64785 0.15721 0.0
C475 C 0.01722 0.63369 0.14185 0.0
C476 C 0.03895 0.63929 0.19876 0.0
C477 C 0.03798 0.65922 0.26677 0.0
C478 C 0.97087 0.64257 0.0993 0.0
C479 C 0.06351 0.62483 0.18556 0.0
C480 C 1.01312 0.57226 0.99216 0.0
C481 C 0.0192 0.58127 0.8991 0.0
C482 C 1.01274 0.58888 0.07245 0.0
C483 C 0.01881 0.61508 0.05957 0.0
C484 C 0.02556 0.62396 0.96594 0.0
C485 C 0.02553 0.60709 0.88746 0.0
C486 C 1.00543 0.57853 0.17074 0.0
C487 C 0.03254 0.6515 0.9481 0.0
H488 H 0.97698 0.67873 0.23581 0.0
H489 H 0.05471 0.66376 0.30895 0.0
H490 H 0.97431 0.64755 0.02223 0.0
H491 H 0.96612 0.622 0.10266 0.0
H492 H 0.95423 0.65362 0.12549 0.0
H493 H 0.07784 0.62973 0.24132 0.0
H494 H 0.05994 0.60403 0.18869 0.0
H495 H 0.07166 0.62921 0.11317 0.0
H496 H 1.00834 0.55236 1.00201 0.0
H497 H 0.03046 0.61426 0.81609 0.0
H498 H 0.98809 0.58834 0.19727 0.0
H499 H 0.02081 0.58234 0.22346 0.0
H500 H 1.0017 0.55772 0.16949 0.0
H501 H 1.01604 0.66386 0.96506 0.0
H502 H 0.03846 0.65518 0.87204 0.0
H503 H 0.04833 0.65716 0.99647 0.0
C504 C 0.99366 0.23385 0.3887 0.0
C505 C 0.97975 0.25132 0.33384 0.0
C506 C 0.98125 0.217 0.45164 0.0
C507 C 0.95438 0.21833 0.46106 0.0
C508 C 0.94116 0.23923 0.42019 0.0
C509 C 0.95396 0.25528 0.35436 0.0
C510 C 0.99655 0.19579 0.49737 0.0
C511 C 0.91308 0.24301 0.43714 0.0
C512 C 0.93185 0.15151 0.43158 0.0
C513 C 0.9353 0.14243 0.52562 0.0
C514 C 0.93487 0.1774 0.41044 0.0
C515 C 0.94057 0.19453 0.48645 0.0
C516 C 0.93961 0.18586 0.58353 0.0
C517 C 0.93769 0.15964 0.60202 0.0
C518 C 0.93565 0.18555 0.30536 0.0
C519 C 0.94314 0.20365 0.66748 0.0
H520 H 1.01375 0.23129 0.37319 0.0
H521 H 0.94333 0.26919 0.31273 0.0
H522 H 0.99427 0.19642 0.57688 0.0
H523 H 0.98961 0.177 0.47238 0.0
H524 H 0.01718 0.19725 0.48029 0.0
H525 H 0.90858 0.26363 0.44077 0.0
H526 H 0.90222 0.23505 0.37577 0.0
H527 H 0.90657 0.23359 0.505 0.0
H528 H 0.92998 0.13802 0.373 0.0
H529 H 0.94004 0.15248 0.67521 0.0
H530 H 0.95523 0.19169 0.28552 0.0
H531 H 0.92276 0.20189 0.293 0.0
H532 H 0.92995 0.17 0.25591 0.0
H533 H 0.96278 0.20187 0.69586 0.0
H534 H 0.93001 0.1983 0.72745 0.0
H535 H 0.93966 0.2238 0.64683 0.0
C536 C 0.27217 0.05326 0.35231 0.0
C537 C 0.27191 0.06958 0.27155 0.0
C538 C 0.29327 0.053 0.41399 0.0
C539 C 0.31392 0.06944 0.39301 0.0
C540 C 0.3103 0.09018 0.32888 0.0
C541 C 0.28879 0.0903 0.26928 0.0
C542 C 0.29566 0.03181 0.48741 0.0
C543 C 0.33117 0.10927 0.30962 0.0
C544 C 0.3788 0.05553 0.50213 0.0
C545 C 0.38921 0.03935 0.43195 0.0
C546 C 0.35435 0.06587 0.49083 0.0
C547 C 0.34012 0.05972 0.40763 0.0
C548 C 0.35084 0.0436 0.33609 0.0
C549 C 0.37524 0.03373 0.34924 0.0
C550 C 0.34379 0.08278 0.56903 0.0
C551 C 0.33694 0.03706 0.24401 0.0
H552 H 0.2585 0.03783 0.35758 0.0
H553 H 0.28783 0.1038 0.20974 0.0
H554 H 0.30608 1.01567 0.45433 0.0
H555 H 0.30652 0.03817 0.55144 0.0
H556 H 0.27666 0.02483 0.51135 0.0
H557 H 0.32336 0.12734 0.27997 0.0
H558 H 0.34199 0.11338 0.37648 0.0
H559 H 0.34464 0.10136 0.25557 0.0
H560 H 0.38958 0.05973 0.5668 0.0
H561 H 0.38357 0.02174 0.29399 0.0
H562 H 0.33282 0.07097 0.62136 0.0
H563 H 0.33079 0.0975 0.53947 0.0
H564 H 0.3593 0.09237 0.60926 0.0
H565 H 0.31725 0.03062 0.25956 0.0
H566 H 0.34662 0.0218 0.20263 0.0
H567 H 0.33602 0.05425 0.19728 0.0
C568 C 0.55501 0.2753 0.34719 0.0
C569 C 0.56602 0.27311 0.25505 0.0
C570 C 0.56277 0.29485 0.40889 0.0
C571 C 0.58169 0.31209 0.37615 0.0
C572 C 0.59703 0.30554 0.29595 0.0
C573 C 0.58901 0.28579 0.23568 0.0
C574 C 0.54722 0.30014 0.49836 0.0
C575 C 0.61876 0.3223 0.26338 0.0
C576 C 0.55684 0.37936 0.36384 0.0
C577 C 0.56967 0.39098 0.43965 0.0
C578 C 0.56103 0.35386 0.34213 0.0
C579 C 0.57838 0.33942 0.39888 0.0
C580 C 0.59157 0.35117 0.47574 0.0
C581 C 0.58726 0.37708 0.49455 0.0
C582 C 0.54709 0.34274 0.25682 0.0
C583 C 0.61047 0.33682 0.53714 0.0
H584 H 0.53775 0.26485 0.36448 0.0
H585 H 0.59826 0.28325 0.16614 0.0
H586 H 0.55909 0.30885 0.55549 0.0
H587 H 0.53177 0.31372 0.47988 0.0
H588 H 0.53833 0.28245 0.52729 0.0
H589 H 0.63239 0.31168 0.21718 0.0
H590 H 0.61113 0.33849 0.22041 0.0
H591 H 0.62904 0.33017 0.32641 0.0
H592 H 0.5436 0.39044 0.32073 0.0
H593 H 0.59724 0.38633 0.55311 0.0
H594 H 0.53692 0.32506 0.27794 0.0
H595 H 0.56108 0.33807 0.19947 0.0
H596 H 0.53295 0.35614 0.22547 0.0
H597 H 0.60559 0.31634 0.544 0.0
H598 H 0.61175 0.34509 0.61069 0.0
H599 H 0.62957 0.3383 0.503 0.0
C600 C 0.24696 0.59239 0.31526 0.0
C601 C 0.24738 0.56577 0.31132 0.0
C602 C 0.22701 0.60492 0.36321 0.0
C603 C 0.20666 0.59031 0.40158 0.0
C604 C 0.20947 0.5636 0.41171 0.0
C605 C 0.23031 0.55168 0.36813 0.0
C606 C 0.226 0.63357 0.36119 0.0
C607 C 0.18868 0.54715 0.45503 0.0
C608 C 0.14161 0.60547 0.49903 0.0
C609 C 0.12706 0.60246 0.41471 0.0
C610 C 0.16832 0.60544 0.49487 0.0
C611 C 0.18054 0.60111 0.40516 0.0
C612 C 0.16595 0.60142 0.31887 0.0
C613 C 0.13943 0.60298 0.32492 0.0
C614 C 0.18299 0.60757 0.58801 0.0
C615 C 0.1776 0.59616 0.22091 0.0
H616 H 0.26042 0.6033 0.2721 0.0
H617 H 0.23094 0.53106 0.3653 0.0
H618 H 0.21576 0.64011 0.29561 0.0
H619 H 0.21575 0.64095 0.42551 0.0
H620 H 0.24548 0.64182 0.35882 0.0
H621 H 0.19442 0.52687 0.46126 0.0
H622 H 0.18356 0.55403 0.52801 0.0
H623 H 0.17137 0.54829 0.4094 0.0
H624 H 0.13241 0.60567 0.56929 0.0
H625 H 0.12828 0.60194 0.25926 0.0
H626 H 0.17498 0.62316 0.6326 0.0
H627 H 0.20355 0.61131 0.57566 0.0
H628 H 0.18082 0.58974 0.63072 0.0
H629 H 0.19537 0.60712 0.20935 0.0
H630 H 0.16436 0.60076 0.16084 0.0
H631 H 0.18226 0.57561 0.2167 0.0
C632 C 0.03537 0.79809 0.13346 0.0
C633 C 0.04928 0.77942 0.18217 0.0
C634 C 0.04752 0.81506 0.07038 0.0
C635 C 0.07403 0.81234 0.05268 0.0
C636 C 0.08672 0.79025 0.08646 0.0
C637 C 0.0743 0.77421 0.15344 0.0
C638 C 0.03263 0.83781 0.0344 0.0
C639 C 0.1141 0.78489 0.06093 0.0
C640 C 0.08882 0.87247 0.91986 0.0
C641 C 0.09338 0.88847 0.9992 0.0
C642 C 0.08731 0.84593 0.93272 0.0
C643 C 0.08862 0.8357 0.02727 0.0
C644 C 0.09719 0.85127 0.10388 0.0
C645 C 0.10031 0.87737 0.08769 0.0
C646 C 0.08242 0.829 0.84718 0.0
C647 C 0.09997 0.84116 0.20593 0.0
H648 H 1.01579 0.80153 0.15489 0.0
H649 H 0.08489 0.75928 0.18983 0.0
H650 H 0.0414 0.85575 0.06002 0.0
H651 H 0.03283 0.83812 0.95451 0.0
H652 H 1.01245 0.83744 0.05868 0.0
H653 H 0.11612 0.76466 0.0396 0.0
H654 H 0.12119 0.79717 1.00097 0.0
H655 H 0.12625 0.78768 0.12544 0.0
H656 H 0.08449 0.88053 0.84956 0.0
H657 H 0.10579 0.8894 0.14742 0.0
H658 H 0.06269 0.82154 0.84957 0.0
H659 H 0.09534 0.8123 0.85001 0.0
H660 H 0.08535 0.83924 0.77745 0.0
H661 H 0.08141 0.83381 0.23285 0.0
H662 H 0.10672 0.85593 0.25688 0.0
H663 H 0.11374 0.82522 0.20721 0.0
C664 C 0.73481 0.94502 0.24614 0.0
C665 C 0.75216 0.96534 0.24399 0.0
C666 C 0.71336 0.94562 0.1863 0.0
C667 C 0.71028 0.96641 0.12202 0.0
C668 C 0.73131 0.98237 0.10125 0.0
C669 C 0.75234 0.98165 0.1632 0.0
C670 C 0.69204 0.92702 0.20547 0.0
C671 C 0.72947 1.00357 0.02762 0.0
C672 C 0.64569 0.98128 0.01227 0.0
C673 C 0.63549 0.99767 0.0822 0.0
C674 C 0.67 0.97063 0.02371 0.0
C675 C 0.68431 0.97667 0.10683 0.0
C676 C 0.67384 0.99307 0.178 0.0
C677 C 0.64958 1.00326 0.16467 0.0
C678 C 0.68033 0.95349 0.94583 0.0
C679 C 0.68782 0.99951 0.26999 0.0
H680 H 0.73541 0.9315 0.30575 0.0
H681 H 0.76636 0.99676 0.15806 0.0
H682 H 0.68122 0.92308 0.13847 0.0
H683 H 0.69939 0.90882 0.2356 0.0
H684 H 0.67868 0.93531 0.25909 0.0
H685 H 0.74864 1.01008 0.0038 0.0
H686 H 0.71849 0.99744 0.96355 0.0
H687 H 0.71942 0.01998 0.06047 0.0
H688 H 0.63484 0.97713 0.94774 0.0
H689 H 0.64142 1.01542 0.21973 0.0
H690 H 0.69306 0.93858 0.97568 0.0
H691 H 0.69154 0.96508 0.8935 0.0
H692 H 0.66469 0.94413 0.90554 0.0
H693 H 0.67837 1.01496 0.31109 0.0
H694 H 0.70762 1.00561 0.25439 0.0
H695 H 0.68848 0.98235 0.31702 0.0
C696 C 0.54132 0.75542 0.14886 0.0
C697 C 0.55902 0.75443 0.22452 0.0
C698 C 0.53651 0.7336 0.09426 0.0
C699 C 0.55012 0.71112 0.11619 0.0
C700 C 0.57248 0.71262 0.17251 0.0
C701 C 0.57727 0.73496 0.22405 0.0
C702 C 0.51357 0.73325 0.02912 0.0
C703 C 0.58843 0.68942 0.19375 0.0
C704 C 0.50847 0.65477 0.18217 0.0
C705 C 0.51128 0.63945 0.10112 0.0
C706 C 0.52074 0.67834 0.18682 0.0
C707 C 0.53676 0.68637 0.10911 0.0
C708 C 0.53988 0.6707 0.02737 0.0
C709 C 0.52678 0.64746 0.02385 0.0
C710 C 0.51719 0.694 0.27706 0.0
C711 C 0.55722 0.67817 0.94458 0.0
H712 H 0.52796 0.7711 0.14447 0.0
H713 H 0.59202 0.7349 0.27869 0.0
H714 H 0.51654 0.72028 0.96721 0.0
H715 H 0.49684 0.72628 0.07093 0.0
H716 H 0.50915 0.7526 1.00112 0.0
H717 H 0.60815 0.69485 0.21383 0.0
H718 H 0.57987 0.67885 0.25566 0.0
H719 H 0.58914 0.67643 0.13096 0.0
H720 H 0.49676 0.64818 0.24214 0.0
H721 H 0.52928 0.63512 0.96197 0.0
H722 H 0.51371 0.71428 0.25915 0.0
H723 H 0.53473 0.69275 0.32112 0.0
H724 H 0.50102 0.68707 0.32214 0.0
H725 H 0.54778 0.69283 0.89926 0.0
H726 H 0.5619 0.66162 0.89835 0.0
H727 H 0.57523 0.68658 0.97118 0.0
C728 C 0.78324 0.43884 0.24162 0.0
C729 C 0.77479 0.46365 0.22243 0.0
C730 C 0.80286 0.42823 0.18604 0.0
C731 C 0.81415 0.44312 0.11186 0.0
C732 C 0.80168 0.46547 0.07934 0.0
C733 C 0.78188 0.47555 0.1355 0.0
C734 C 0.81445 0.40336 0.21803 0.0
C735 C 0.81235 0.4813 0.99722 0.0
C736 C 0.88454 0.45468 0.14163 0.0
C737 C 0.89498 0.44246 0.0612 0.0
C738 C 0.85844 0.45408 0.1601 0.0
C739 C 0.84203 0.44109 0.09579 0.0
C740 C 0.85241 0.42797 0.01582 0.0
C741 C 0.87887 0.4287 0.9997 0.0
C742 C 0.84856 0.46796 0.24798 0.0
C743 C 0.8358 0.41314 0.9475 0.0
H744 H 0.77725 0.42937 0.30787 0.0
H745 H 0.77496 0.49456 0.11963 0.0
H746 H 0.8304 0.40721 0.26827 0.0
H747 H 0.80027 0.39126 0.2566 0.0
H748 H 0.82216 0.39277 0.15529 0.0
H749 H 0.79773 0.49432 0.96682 0.0
H750 H 0.82835 0.49303 0.02442 0.0
H751 H 0.81982 0.46907 0.93857 0.0
H752 H 0.89666 0.46579 0.18851 0.0
H753 H 0.88688 0.41884 0.93812 0.0
H754 H 0.83987 0.45404 0.29894 0.0
H755 H 0.8338 0.48198 0.2269 0.0
H756 H 0.8638 0.47826 0.28707 0.0
H757 H 0.83162 0.39423 0.98006 0.0
H758 H 0.84541 0.41008 0.87681 0.0
H759 H 0.81736 0.42282 0.93462 0.0
C760 C 0.98621 0.20921 0.98693 0.0
C761 C 1.00797 0.22313 0.01305 0.0
C762 C 0.98804 0.18488 0.94519 0.0
C763 C 1.01229 0.17383 0.92924 0.0
C764 C 0.03436 0.18855 0.94898 0.0
C765 C 0.03196 0.21296 0.99076 0.0
C766 C 0.96394 0.17038 0.92358 0.0
C767 C 0.06057 0.17796 0.93037 0.0
C768 C 1.01618 0.10101 0.94465 0.0
C769 C 1.01573 0.09377 0.84706 0.0
C770 C 1.01536 0.12685 0.97183 0.0
C771 C 1.0144 0.14627 0.89996 0.0
C772 C 1.01449 0.13908 0.80121 0.0
C773 C 1.01501 0.11305 0.7762 0.0
C774 C 1.01499 0.13336 0.07799 0.0
C775 C 1.01325 0.15871 0.7213 0.0
H776 H 0.96759 0.21687 0.00415 0.0
H777 H 0.04887 0.22337 0.01159 0.0
H778 H 0.96435 0.16331 0.84822 0.0
H779 H 0.96252 0.15355 0.97224 0.0
H780 H 0.94663 0.18223 0.93336 0.0
H781 H 0.0757 0.19249 0.9403 0.0
H782 H 0.06421 0.16184 0.98069 0.0
H783 H 0.06184 0.17046 0.85567 0.0
H784 H 1.01666 0.0864 1.00033 0.0
H785 H 1.01507 0.10786 0.7007 0.0
H786 H 0.99718 0.14369 0.0958 0.0
H787 H 0.03113 0.14618 0.09505 0.0
H788 H 1.01623 0.11619 0.12508 0.0
H789 H 0.02076 0.15114 0.65202 0.0
H790 H 0.02401 0.17618 0.73978 0.0
H791 H 0.99308 0.16409 0.7099 0.0
C792 C 0.31341 1.01006 0.97233 0.0
C793 C 0.30067 0.03348 0.96683 0.0
C794 C 0.33858 1.00731 0.93694 0.0
C795 C 0.35147 0.0285 0.89493 0.0
C796 C 0.33801 0.0517 0.88365 0.0
C797 C 0.31297 0.05391 0.91988 0.0
C798 C 0.35192 0.98216 0.95041 0.0
C799 C 0.35068 0.07493 0.84033 0.0
C800 C 0.42408 0.03293 0.91909 0.0
C801 C 0.43277 0.02631 0.82632 0.0
C802 C 0.39788 0.03356 0.94206 0.0
C803 C 0.37954 0.02723 0.87105 0.0
C804 C 0.38815 0.0205 0.77719 0.0
C805 C 0.41452 0.02022 0.75589 0.0
C806 C 0.38986 0.04077 0.04322 0.0
C807 C 0.36944 1.01352 0.69924 0.0
H808 H 0.30437 0.99434 0.01041 0.0
H809 H 0.30349 0.07222 0.91671 0.0
H810 H 0.36205 0.97666 0.88316 0.0
H811 H 0.36639 0.98393 0.00821 0.0
H812 H 0.33847 0.9667 0.97106 0.0
H813 H 0.33655 0.08951 0.81783 0.0
H814 H 0.36343 0.08351 0.89497 0.0
H815 H 0.36254 0.06986 0.77683 0.0
H816 H 0.4378 0.03757 0.97453 0.0
H817 H 0.42081 1.01499 0.68398 0.0
H818 H 0.38073 0.02416 0.07916 0.0
H819 H 0.37561 0.05633 0.04092 0.0
H820 H 0.40618 0.04698 0.08811 0.0
H821 H 0.35744 0.99732 0.72388 0.0
H822 H 0.37904 1.0082 0.63058 0.0
H823 H 0.35649 0.02977 0.68494 0.0
C824 C 0.49511 0.31842 0.97025 0.0
C825 C 0.5193 0.30712 0.97551 0.0
C826 C 0.49184 0.34312 0.93035 0.0
C827 C 0.51328 0.35722 0.89679 0.0
C828 C 0.53739 0.34519 0.89599 0.0
C829 C 0.53997 0.32031 0.93336 0.0
C830 C 0.46556 0.35458 0.92808 0.0
C831 C 0.56088 0.35918 0.86146 0.0
C832 C 0.50866 0.42007 0.75272 0.0
C833 C 0.51014 0.43835 0.82618 0.0
C834 C 0.50862 0.39369 0.77428 0.0
C835 C 0.51111 0.38518 0.87162 0.0
C836 C 0.51289 0.40364 0.94577 0.0
C837 C 0.51194 0.4298 0.92241 0.0
C838 C 0.50635 0.37512 0.69205 0.0
C839 C 0.5167 0.39578 0.05002 0.0
H840 H 0.47894 0.30862 1.00213 0.0
H841 H 0.55868 0.31165 0.93462 0.0
H842 H 0.46414 0.36982 0.98295 0.0
H843 H 0.46191 0.36343 0.85631 0.0
H844 H 0.45052 0.3402 0.94337 0.0
H845 H 0.57823 0.34713 0.86465 0.0
H846 H 0.55831 0.36584 0.78592 0.0
H847 H 0.564 0.37625 0.90671 0.0
H848 H 0.50724 0.42637 0.67814 0.0
H849 H 0.51344 0.44367 0.97978 0.0
H850 H 0.49562 0.35781 0.71417 0.0
H851 H 0.52565 0.36918 0.66857 0.0
H852 H 0.49676 0.38392 0.62866 0.0
H853 H 0.51804 0.41237 0.0991 0.0
H854 H 0.53441 0.38442 0.05673 0.0
H855 H 0.50071 0.38352 0.07469 0.0
C856 C 0.21266 0.5077 0.97912 0.0
C857 C 0.2229 0.53187 0.99726 0.0
C858 C 0.18853 0.50491 0.93509 0.0
C859 C 0.17413 0.5268 0.90916 0.0
C860 C 0.18526 0.55114 0.92117 0.0
C861 C 0.20941 0.55333 0.96419 0.0
C862 C 0.17776 0.47856 0.92209 0.0
C863 C 0.17088 0.5751 0.89543 0.0
C864 C 0.1137 0.52257 0.75384 0.0
C865 C 0.09428 0.52214 0.82419 0.0
C866 C 0.13969 0.52356 0.78 0.0
C867 C 0.14663 0.52452 0.87902 0.0
C868 C 0.12708 0.52433 0.95017 0.0
C869 C 0.10133 0.52293 0.92208 0.0
C870 C 0.15975 0.52359 0.70157 0.0
C871 C 0.13332 0.52598 0.05647 0.0
H872 H 0.22269 0.49101 0.00518 0.0
H873 H 0.21712 0.57212 0.97776 0.0
H874 H 0.16212 0.47536 0.97496 0.0
H875 H 0.16959 0.47654 0.84867 0.0
H876 H 0.19238 0.46357 0.93309 0.0
H877 H 0.1831 0.59232 0.89912 0.0
H878 H 0.16284 0.57379 0.8216 0.0
H879 H 0.15469 0.57748 0.94641 0.0
H880 H 0.10861 0.52191 0.67803 0.0
H881 H 0.08664 0.52281 0.97733 0.0
H882 H 0.15137 0.52257 0.62807 0.0
H883 H 0.17272 0.50716 0.7119 0.0
H884 H 0.1715 0.54109 0.70612 0.0
H885 H 0.14581 0.50991 0.07787 0.0
H886 H 0.11602 0.5256 0.10293 0.0
H887 H 0.14393 0.54383 0.07084 0.0
C888 C 0.04593 0.82331 0.52296 0.0
C889 C 0.02478 0.80738 0.50815 0.0
C890 C 0.04338 0.84762 0.56422 0.0
C891 C 0.01902 0.85651 0.59255 0.0
C892 C 0.99785 0.83979 0.58448 0.0
C893 C 1.00094 0.8155 0.54209 0.0
C894 C 0.06663 0.8644 0.57181 0.0
C895 C 0.97165 0.84809 0.61591 0.0
C896 C 0.01784 0.91718 0.74646 0.0
C897 C 1.01282 0.93622 0.67728 0.0
C898 C 0.01915 0.89123 0.7208 0.0
C899 C 1.01568 0.88387 0.62319 0.0
C900 C 1.01049 0.90304 0.55314 0.0
C901 C 1.00893 0.9288 0.581 0.0
C902 C 0.0242 0.87172 0.79859 0.0
C903 C 1.00721 0.89641 0.44789 0.0
H904 H 0.06445 0.81725 0.49698 0.0
H905 H 0.98444 0.80354 0.53017 0.0
H906 H 0.06486 0.88067 0.52066 0.0
H907 H 0.06815 0.87238 0.64563 0.0
H908 H 0.08447 0.85399 0.55488 0.0
H909 H 0.95776 0.83213 0.6153 0.0
H910 H 0.97232 0.85615 0.68979 0.0
H911 H 0.96471 0.8633 0.56664 0.0
H912 H 0.02074 0.92254 0.82117 0.0
H913 H 1.00519 0.94324 0.52657 0.0
H914 H 0.03943 0.8585 0.77559 0.0
H915 H 1.00676 0.86021 0.8111 0.0
H916 H 0.02983 0.88061 0.86796 0.0
H917 H 1.00271 0.91334 0.40253 0.0
H918 H 0.9917 0.88225 0.43985 0.0
H919 H 0.02493 0.88759 0.41989 0.0
C920 C 0.71165 0.02551 0.54292 0.0
C921 C 0.72408 1.00193 0.5489 0.0
C922 C 0.68651 0.02864 0.57823 0.0
C923 C 0.67331 1.00769 0.62063 0.0
C924 C 0.68647 0.98432 0.6323 0.0
C925 C 0.71148 0.98172 0.59616 0.0
C926 C 0.6735 0.05396 0.56424 0.0
C927 C 0.67349 0.9613 0.67598 0.0
C928 C 0.61031 0.01687 0.75958 0.0
C929 C 0.59198 1.01084 0.68936 0.0
C930 C 0.63669 1.01631 0.7382 0.0
C931 C 0.64523 1.00936 0.64448 0.0
C932 C 0.62681 1.00313 0.57364 0.0
C933 C 0.60062 1.00402 0.59668 0.0
C934 C 0.65548 0.02319 0.81598 0.0
C935 C 0.63476 0.99568 0.47266 0.0
H936 H 0.7209 0.04105 0.50454 0.0
H937 H 0.72071 0.96329 0.59961 0.0
H938 H 0.65903 0.0523 0.50639 0.0
H939 H 0.66343 0.05967 0.63133 0.0
H940 H 0.68716 0.06921 0.54336 0.0
H941 H 0.68744 0.94664 0.69925 0.0
H942 H 0.66156 0.96662 0.73902 0.0
H943 H 0.66076 0.95273 0.62125 0.0
H944 H 0.60408 0.02225 0.8314 0.0
H945 H 0.58684 0.99941 0.54138 0.0
H946 H 0.64594 0.0287 0.88455 0.0
H947 H 0.66764 0.03924 0.79102 0.0
H948 H 0.66826 1.00684 0.83056 0.0
H949 H 0.6445 1.01195 0.43689 0.0
H950 H 0.61832 0.98998 0.42736 0.0
H951 H 0.64849 0.97966 0.47542 0.0
C952 C 0.54253 0.71658 0.58465 0.0
C953 C 0.52315 0.72918 0.53369 0.0
C954 C 0.53932 0.69154 0.62009 0.0
C955 C 0.51617 0.67833 0.6036 0.0
C956 C 0.49602 0.69146 0.55659 0.0
C957 C 0.49975 0.71665 0.52233 0.0
C958 C 0.56161 0.67867 0.66825 0.0
C959 C 0.47109 0.67834 0.53626 0.0
C960 C 0.52103 0.60556 0.58952 0.0
C961 C 0.51306 0.59757 0.68225 0.0
C962 C 0.52166 0.63154 0.56269 0.0
C963 C 0.5139 0.6504 0.62947 0.0
C964 C 0.50527 0.64251 0.72236 0.0
C965 C 0.50512 0.61635 0.74782 0.0
C966 C 0.5308 0.63881 0.46255 0.0
C967 C 0.49637 0.66187 0.79497 0.0
H968 H 0.56091 0.72581 0.59151 0.0
H969 H 0.48496 0.72585 0.48035 0.0
H970 H 0.55529 0.66548 0.72644 0.0
H971 H 0.57209 0.66734 0.61364 0.0
H972 H 0.57502 0.69275 0.6993 0.0
H973 H 0.45616 0.692 0.51299 0.0
H974 H 0.4739 0.66425 0.47782 0.0
H975 H 0.4642 0.66783 0.60113 0.0
H976 H 0.52715 0.59148 0.53754 0.0
H977 H 0.49878 0.61061 0.81924 0.0
H978 H 0.54718 0.65209 0.46729 0.0
H979 H 0.51541 0.64887 0.4233 0.0
H980 H 0.53666 0.62203 0.41945 0.0
H981 H 0.51198 0.67544 0.81042 0.0
H982 H 0.48995 0.65301 0.86379 0.0
H983 H 0.4804 0.67309 0.7645 0.0
C984 C 0.82089 0.48607 0.54537 0.0
C985 C 0.80679 0.50708 0.51133 0.0
C986 C 0.84537 0.4889 0.58499 0.0
C987 C 0.85599 0.51351 0.59547 0.0
C988 C 0.84092 0.53498 0.57003 0.0
C989 C 0.81669 0.53153 0.52735 0.0
C990 C 0.86059 0.46532 0.6088 0.0
C991 C 0.85093 0.56162 0.58331 0.0
C992 C 0.91728 0.51736 0.74627 0.0
C993 C 0.93621 0.51897 0.67429 0.0
C994 C 0.89112 0.51656 0.72227 0.0
C995 C 0.88357 0.51645 0.62372 0.0
C996 C 0.90269 0.51778 0.55101 0.0
C997 C 0.92857 0.51942 0.57707 0.0
C998 C 0.87157 0.51571 0.80256 0.0
C999 C 0.89589 0.51665 0.44513 0.0
H1000 H 0.81331 0.46706 0.53596 0.0
H1001 H 0.80618 0.54797 0.50176 0.0
H1002 H 0.87711 0.46402 0.55876 0.0
H1003 H 0.86823 0.46633 0.68325 0.0
H1004 H 0.84913 0.44764 0.60234 0.0
H1005 H 0.83575 0.57614 0.5746 0.0
H1006 H 0.85954 0.56364 0.65602 0.0
H1007 H 0.86607 0.56554 0.52905 0.0
H1008 H 0.92289 0.51703 0.8216 0.0
H1009 H 0.94295 0.52032 0.52069 0.0
H1010 H 0.85656 0.53016 0.78952 0.0
H1011 H 0.88019 0.51914 0.87454 0.0
H1012 H 0.86215 0.49682 0.80436 0.0
H1013 H 0.88571 0.49859 0.43022 0.0
H1014 H 0.91291 0.51778 0.39731 0.0
H1015 H 0.88285 0.53246 0.42609 0.0
loop_
_geom_bond_atom_site_label_1
_geom_bond_atom_site_label_2
_geom_bond_distance
_geom_bond_site_symmetry_2
_ccdc_geom_bond_type
H0 C3 0.929 . S
H1 C6 0.929 . S
H2 C8 0.930 . S
C3 H0 0.929 . S
C3 C4 1.398 . S
C3 C5 1.396 . S
C4 C3 1.398 . S
C4 C8 1.407 . S
C5 C3 1.396 . S
C5 C6 1.394 . S
C6 H1 0.929 . S
C6 C5 1.394 . S
C6 C7 1.382 . S
C7 C6 1.382 . S
C7 C8 1.392 . S
C7 N9 1.420 . S
C8 H2 0.930 . S
C8 C4 1.407 . S
C8 C7 1.392 . S
N9 C7 1.420 . S
N9 C10 1.244 . S
C10 N9 1.244 . S
H11 C14 0.929 . S
H12 C17 0.929 . S
H13 C19 0.930 . S
C14 H11 0.929 . S
C14 C15 1.395 1_655 S
C14 C16 1.395 1_655 S
C15 C14 1.395 1_455 S
C15 C19 1.413 . S
C16 C14 1.395 1_455 S
C16 C17 1.397 . S
C17 H12 0.929 . S
C17 C16 1.397 . S
C17 C18 1.382 . S
C18 C17 1.382 . S
C18 C19 1.392 . S
C18 N20 1.420 . S
C19 H13 0.930 . S
C19 C15 1.413 . S
C19 C18 1.392 . S
N20 C18 1.420 . S
N20 C21 1.232 1_455 S
C21 N20 1.232 1_655 S
H22 C25 0.929 . S
H23 C28 0.929 . S
H24 C30 0.930 . S
C25 H22 0.929 . S
C25 C26 1.395 1_565 S
C25 C27 1.395 1_565 S
C26 C25 1.395 1_545 S
C26 C30 1.413 . S
C27 C25 1.395 1_545 S
C27 C28 1.397 . S
C28 H23 0.929 . S
C28 C27 1.397 . S
C28 C29 1.382 . S
C29 C28 1.382 . S
C29 C30 1.392 . S
C29 N31 1.420 . S
C30 H24 0.930 . S
C30 C26 1.413 . S
C30 C29 1.392 . S
N31 C29 1.420 . S
N31 C32 1.232 1_545 S
C32 N31 1.232 1_565 S
H33 C36 0.929 . S
H34 C39 0.929 . S
H35 C41 0.930 . S
C36 H33 0.929 . S
C36 C37 1.398 . S
C36 C38 1.396 . S
C37 C36 1.398 . S
C37 C41 1.407 . S
C38 C36 1.396 . S
C38 C39 1.394 . S
C39 H34 0.929 . S
C39 C38 1.394 . S
C39 C40 1.382 . S
C40 C39 1.382 . S
C40 C41 1.392 . S
C40 N42 1.420 . S
C41 H35 0.930 . S
C41 C37 1.407 . S
C41 C40 1.392 . S
N42 C40 1.420 . S
N42 C43 1.244 . S
C43 N42 1.244 . S
H44 C47 0.929 . S
H45 C50 0.929 . S
H46 C52 0.930 . S
C47 H44 0.929 . S
C47 C48 1.398 1_554 S
C47 C49 1.396 . S
C48 C47 1.398 1_556 S
C48 C52 1.407 . S
C49 C47 1.396 . S
C49 C50 1.394 . S
C50 H45 0.929 . S
C50 C49 1.394 . S
C50 C51 1.382 . S
C51 C50 1.382 . S
C51 C52 1.392 1_554 S
C51 N53 1.420 . S
C52 H46 0.930 . S
C52 C48 1.407 . S
C52 C51 1.392 1_556 S
N53 C51 1.420 . S
N53 C54 1.244 . S
C54 N53 1.244 . S
H55 C58 0.929 . S
H56 C61 0.929 . S
H57 C63 0.930 . S
C58 H55 0.929 . S
C58 C59 1.395 1_654 S
C58 C60 1.394 1_655 S
C59 C58 1.395 1_456 S
C59 C63 1.416 . S
C60 C58 1.394 1_455 S
C60 C61 1.398 . S
C61 H56 0.929 . S
C61 C60 1.398 . S
C61 C62 1.382 . S
C62 C61 1.382 . S
C62 C63 1.392 1_554 S
C62 N64 1.420 . S
C63 H57 0.930 . S
C63 C59 1.416 . S
C63 C62 1.392 1_556 S
N64 C62 1.420 . S
N64 C65 1.236 1_455 S
C65 N64 1.236 1_655 S
H66 C69 0.929 . S
H67 C72 0.929 . S
H68 C74 0.930 . S
C69 H66 0.929 . S
C69 C70 1.395 1_564 S
C69 C71 1.394 1_565 S
C70 C69 1.395 1_546 S
C70 C74 1.416 . S
C71 C69 1.394 1_545 S
C71 C72 1.398 . S
C72 H67 0.929 . S
C72 C71 1.398 . S
C72 C73 1.382 . S
C73 C72 1.382 . S
C73 C74 1.392 1_554 S
C73 N75 1.420 . S
C74 H68 0.930 . S
C74 C70 1.416 . S
C74 C73 1.392 1_556 S
N75 C73 1.420 . S
N75 C76 1.237 1_545 S
C76 N75 1.237 1_565 S
H77 C80 0.929 . S
H78 C83 0.929 . S
H79 C85 0.930 . S
C80 H77 0.929 . S
C80 C81 1.398 1_554 S
C80 C82 1.396 . S
C81 C80 1.398 1_556 S
C81 C85 1.407 . S
C82 C80 1.396 . S
C82 C83 1.394 . S
C83 H78 0.929 . S
C83 C82 1.394 . S
C83 C84 1.382 . S
C84 C83 1.382 . S
C84 C85 1.392 1_554 S
C84 N86 1.420 . S
C85 H79 0.930 . S
C85 C81 1.407 . S
C85 C84 1.392 1_556 S
N86 C84 1.420 . S
N86 C87 1.244 . S
C87 N86 1.244 . S
Tb88 C90 2.809 . S
Tb88 O108 2.484 . S
Tb88 O109 2.440 . S
Tb88 O110 2.658 1_565 S
Tb88 O111 2.409 . S
Tb88 O112 2.378 . S
Tb88 O116 2.325 1_455 S
Tb88 O119 2.341 1_565 S
Tb89 C99 2.809 . S
Tb89 O110 2.325 1_655 S
Tb89 O113 2.341 1_545 S
Tb89 O114 2.484 . S
Tb89 O115 2.440 . S
Tb89 O116 2.658 1_545 S
Tb89 O117 2.409 . S
Tb89 O118 2.378 . S
C90 Tb88 2.809 . S
C90 C91 1.519 . S
C90 O108 1.248 . S
C90 O109 1.266 . S
C91 C90 1.519 . S
C91 C92 1.354 1_556 S
C91 C96 1.348 1_556 S
C92 C91 1.354 1_554 S
C92 C93 1.380 . S
C92 H120 0.929 1_455 S
C93 C92 1.380 . S
C93 C94 1.347 . S
C93 H121 0.931 1_455 S
C94 C93 1.347 . S
C94 C95 1.369 . S
C95 C94 1.369 . S
C95 C96 1.408 . S
C95 H122 0.930 . S
C96 C91 1.348 1_554 S
C96 C95 1.408 . S
C96 H123 0.930 1_554 S
C97 O110 1.281 1_565 S
C97 O111 1.254 . S
C98 O112 1.236 1_655 S
C98 O113 1.266 . S
C99 Tb89 2.809 . S
C99 C100 1.514 . S
C99 O114 1.248 . S
C99 O115 1.266 . S
C100 C99 1.514 . S
C100 C101 1.359 . S
C100 C105 1.348 . S
C101 C100 1.359 . S
C101 C102 1.380 . S
C101 H124 0.929 1_655 S
C102 C101 1.380 . S
C102 C103 1.347 . S
C102 H125 0.931 1_655 S
C103 C102 1.347 . S
C103 C104 1.369 . S
C104 C103 1.369 . S
C104 C105 1.408 . S
C104 H126 0.930 . S
C105 C100 1.348 . S
C105 C104 1.408 . S
C105 H127 0.930 . S
C106 O116 1.281 1_545 S
C106 O117 1.254 . S
C107 O118 1.236 1_455 S
C107 O119 1.266 . S
O108 Tb88 2.484 . S
O108 C90 1.248 . S
O109 Tb88 2.440 . S
O109 C90 1.266 . S
O110 Tb88 2.658 1_545 S
O110 Tb89 2.325 1_455 S
O110 C97 1.281 1_545 S
O111 Tb88 2.409 . S
O111 C97 1.254 . S
O112 Tb88 2.378 . S
O112 C98 1.236 1_455 S
O113 Tb89 2.341 1_565 S
O113 C98 1.266 . S
O114 Tb89 2.484 . S
O114 C99 1.248 . S
O115 Tb89 2.440 . S
O115 C99 1.266 . S
O116 Tb88 2.325 1_655 S
O116 Tb89 2.658 1_565 S
O116 C106 1.281 1_565 S
O117 Tb89 2.409 . S
O117 C106 1.254 . S
O118 Tb89 2.378 . S
O118 C107 1.236 1_655 S
O119 Tb88 2.341 1_545 S
O119 C107 1.266 . S
H120 C92 0.929 1_655 S
H121 C93 0.931 1_655 S
H122 C95 0.930 . S
H123 C96 0.930 1_556 S
H124 C101 0.929 1_455 S
H125 C102 0.931 1_455 S
H126 C104 0.930 . S
H127 C105 0.930 . S
Tb128 C130 2.809 . S
Tb128 O148 2.503 . S
Tb128 O149 2.440 . S
Tb128 O150 2.658 . S
Tb128 O151 2.409 . S
Tb128 O152 2.378 . S
Tb128 O156 2.325 1_545 S
Tb128 O159 2.341 . S
Tb129 C139 2.809 . S
Tb129 O150 2.325 1_565 S
Tb129 O153 2.341 . S
Tb129 O154 2.499 . S
Tb129 O155 2.440 . S
Tb129 O156 2.658 . S
Tb129 O157 2.409 . S
Tb129 O158 2.378 . S
C130 Tb128 2.809 . S
C130 C131 1.513 . S
C130 O148 1.291 . S
C130 O149 1.266 . S
C131 C130 1.513 . S
C131 C132 1.359 1_556 S
C131 C136 1.348 1_556 S
C132 C131 1.359 1_554 S
C132 C133 1.380 . S
C132 H160 0.929 1_545 S
C133 C132 1.380 . S
C133 C134 1.347 . S
C133 H161 0.931 1_545 S
C134 C133 1.347 . S
C134 C135 1.369 . S
C135 C134 1.369 . S
C135 C136 1.408 . S
C135 H162 0.930 . S
C136 C131 1.348 1_554 S
C136 C135 1.408 . S
C136 H163 0.930 1_554 S
C137 O150 1.281 . S
C137 O151 1.254 . S
C138 O152 1.236 1_565 S
C138 O153 1.266 . S
C139 Tb129 2.809 . S
C139 C140 1.514 . S
C139 O154 1.282 . S
C139 O155 1.266 . S
C140 C139 1.514 . S
C140 C141 1.359 . S
C140 C145 1.348 . S
C141 C140 1.359 . S
C141 C142 1.380 . S
C141 H164 0.929 1_565 S
C142 C141 1.380 . S
C142 C143 1.347 . S
C142 H165 0.931 1_565 S
C143 C142 1.347 . S
C143 C144 1.369 . S
C144 C143 1.369 . S
C144 C145 1.408 . S
C144 H166 0.930 . S
C145 C140 1.348 . S
C145 C144 1.408 . S
C145 H167 0.930 . S
C146 O156 1.281 . S
C146 O157 1.254 . S
C147 O158 1.236 1_545 S
C147 O159 1.266 . S
O148 Tb128 2.503 . S
O148 C130 1.291 . S
O149 Tb128 2.440 . S
O149 C130 1.266 . S
O150 Tb128 2.658 . S
O150 Tb129 2.325 1_545 S
O150 C137 1.281 . S
O151 Tb128 2.409 . S
O151 C137 1.254 . S
O152 Tb128 2.378 . S
O152 C138 1.236 1_545 S
O153 Tb129 2.341 . S
O153 C138 1.266 . S
O154 Tb129 2.499 . S
O154 C139 1.282 . S
O155 Tb129 2.440 . S
O155 C139 1.266 . S
O156 Tb128 2.325 1_565 S
O156 Tb129 2.658 . S
O156 C146 1.281 . S
O157 Tb129 2.409 . S
O157 C146 1.254 . S
O158 Tb129 2.378 . S
O158 C147 1.236 1_565 S
O159 Tb128 2.341 . S
O159 C147 1.266 . S
H160 C132 0.929 1_565 S
H161 C133 0.931 1_565 S
H162 C135 0.930 . S
H163 C136 0.930 1_556 S
H164 C141 0.929 1_545 S
H165 C142 0.931 1_545 S
H166 C144 0.930 . S
H167 C145 0.930 . S
Tb168 C170 2.809 . S
Tb168 O188 2.484 . S
Tb168 O189 2.440 . S
Tb168 O190 2.658 . S
Tb168 O191 2.409 . S
Tb168 O192 2.378 . S
Tb168 O196 2.325 . S
Tb168 O199 2.341 . S
Tb169 C179 2.809 . S
Tb169 O190 2.325 . S
Tb169 O193 2.341 . S
Tb169 O194 2.484 . S
Tb169 O195 2.440 . S
Tb169 O196 2.658 . S
Tb169 O197 2.409 . S
Tb169 O198 2.378 . S
C170 Tb168 2.809 . S
C170 C171 1.514 1_556 S
C170 O188 1.248 . S
C170 O189 1.266 . S
C171 C170 1.514 1_554 S
C171 C172 1.359 . S
C171 C176 1.348 . S
C172 C171 1.359 . S
C172 C173 1.380 . S
C172 H200 0.929 . S
C173 C172 1.380 . S
C173 C174 1.347 . S
C173 H201 0.931 . S
C174 C173 1.347 . S
C174 C175 1.369 . S
C175 C174 1.369 . S
C175 C176 1.408 . S
C175 H202 0.930 . S
C176 C171 1.348 . S
C176 C175 1.408 . S
C176 H203 0.930 1_554 S
C177 O190 1.281 . S
C177 O191 1.254 . S
C178 O192 1.236 . S
C178 O193 1.266 . S
C179 Tb169 2.809 . S
C179 C180 1.514 . S
C179 O194 1.248 . S
C179 O195 1.266 . S
C180 C179 1.514 . S
C180 C181 1.359 . S
C180 C185 1.348 . S
C181 C180 1.359 . S
C181 C182 1.380 . S
C181 H204 0.929 . S
C182 C181 1.380 . S
C182 C183 1.347 . S
C182 H205 0.931 . S
C183 C182 1.347 . S
C183 C184 1.369 . S
C184 C183 1.369 . S
C184 C185 1.408 . S
C184 H206 0.930 . S
C185 C180 1.348 . S
C185 C184 1.408 . S
C185 H207 0.930 . S
C186 O196 1.281 . S
C186 O197 1.254 . S
C187 O198 1.236 . S
C187 O199 1.266 . S
O188 Tb168 2.484 . S
O188 C170 1.248 . S
O189 Tb168 2.440 . S
O189 C170 1.266 . S
O190 Tb168 2.658 . S
O190 Tb169 2.325 . S
O190 C177 1.281 . S
O191 Tb168 2.409 . S
O191 C177 1.254 . S
O192 Tb168 2.378 . S
O192 C178 1.236 . S
O193 Tb169 2.341 . S
O193 C178 1.266 . S
O194 Tb169 2.484 . S
O194 C179 1.248 . S
O195 Tb169 2.440 . S
O195 C179 1.266 . S
O196 Tb168 2.325 . S
O196 Tb169 2.658 . S
O196 C186 1.281 . S
O197 Tb169 2.409 . S
O197 C186 1.254 . S
O198 Tb169 2.378 . S
O198 C187 1.236 . S
O199 Tb168 2.341 . S
O199 C187 1.266 . S
H200 C172 0.929 . S
H201 C173 0.931 . S
H202 C175 0.930 . S
H203 C176 0.930 1_556 S
H204 C181 0.929 . S
H205 C182 0.931 . S
H206 C184 0.930 . S
H207 C185 0.930 . S
Tb208 C210 2.809 . S
Tb208 O228 2.484 . S
Tb208 O229 2.440 . S
Tb208 O230 2.658 1_655 S
Tb208 O231 2.409 . S
Tb208 O232 2.378 . S
Tb208 O236 2.325 . S
Tb208 O239 2.341 1_655 S
Tb209 C219 2.809 . S
Tb209 O230 2.325 . S
Tb209 O233 2.341 1_455 S
Tb209 O234 2.484 . S
Tb209 O235 2.440 . S
Tb209 O236 2.658 1_455 S
Tb209 O237 2.409 . S
Tb209 O238 2.378 . S
C210 Tb208 2.809 . S
C210 C211 1.508 1_556 S
C210 O228 1.248 . S
C210 O229 1.266 . S
C211 C210 1.508 1_554 S
C211 C212 1.363 . S
C211 C216 1.349 . S
C212 C211 1.363 . S
C212 C213 1.380 . S
C212 H240 0.929 . S
C213 C212 1.380 . S
C213 C214 1.347 . S
C213 H241 0.931 . S
C214 C213 1.347 . S
C214 C215 1.369 . S
C215 C214 1.369 . S
C215 C216 1.408 . S
C215 H242 0.930 . S
C216 C211 1.349 . S
C216 C215 1.408 . S
C216 H243 0.930 1_554 S
C217 O230 1.273 1_655 S
C217 O231 1.264 . S
C218 O232 1.236 . S
C218 O233 1.266 . S
C219 Tb209 2.809 . S
C219 C220 1.514 . S
C219 O234 1.248 . S
C219 O235 1.266 . S
C220 C219 1.514 . S
C220 C221 1.359 . S
C220 C225 1.348 . S
C221 C220 1.359 . S
C221 C222 1.380 . S
C221 H244 0.929 . S
C222 C221 1.380 . S
C222 C223 1.347 . S
C222 H245 0.931 . S
C223 C222 1.347 . S
C223 C224 1.369 . S
C224 C223 1.369 . S
C224 C225 1.408 . S
C224 H246 0.930 . S
C225 C220 1.348 . S
C225 C224 1.408 . S
C225 H247 0.930 . S
C226 O236 1.270 1_455 S
C226 O237 1.269 . S
C227 O238 1.236 . S
C227 O239 1.266 . S
O228 Tb208 2.484 . S
O228 C210 1.248 . S
O229 Tb208 2.440 . S
O229 C210 1.266 . S
O230 Tb208 2.658 1_455 S
O230 Tb209 2.325 . S
O230 C217 1.273 1_455 S
O231 Tb208 2.409 . S
O231 C217 1.264 . S
O232 Tb208 2.378 . S
O232 C218 1.236 . S
O233 Tb209 2.341 1_655 S
O233 C218 1.266 . S
O234 Tb209 2.484 . S
O234 C219 1.248 . S
O235 Tb209 2.440 . S
O235 C219 1.266 . S
O236 Tb208 2.325 . S
O236 Tb209 2.658 1_655 S
O236 C226 1.270 1_655 S
O237 Tb209 2.409 . S
O237 C226 1.269 . S
O238 Tb209 2.378 . S
O238 C227 1.236 . S
O239 Tb208 2.341 1_455 S
O239 C227 1.266 . S
H240 C212 0.929 . S
H241 C213 0.931 . S
H242 C215 0.930 . S
H243 C216 0.930 1_556 S
H244 C221 0.929 . S
H245 C222 0.931 . S
H246 C224 0.930 . S
H247 C225 0.930 . S
C248 C249 1.411 . S
C248 C250 1.394 . S
C248 H264 0.931 . S
C249 C248 1.411 . S
C249 C253 1.356 1_565 S
C250 C248 1.394 . S
C250 C251 1.369 . S
C250 C254 1.531 . S
C251 C250 1.369 . S
C251 C252 1.410 1_565 S
C251 C259 1.503 . S
C252 C251 1.410 1_545 S
C252 C253 1.392 . S
C252 C255 1.511 . S
C253 C249 1.356 1_545 S
C253 C252 1.392 . S
C253 H265 0.929 . S
C254 C250 1.531 . S
C254 H266 0.960 . S
C254 H267 0.962 . S
C254 H268 0.960 . S
C255 C252 1.511 . S
C255 H269 0.961 . S
C255 H270 0.961 . S
C255 H271 0.961 . S
C256 C257 1.369 . S
C256 C258 1.363 . S
C256 H272 0.931 . S
C257 C256 1.369 . S
C257 C261 1.410 1_545 S
C258 C256 1.363 . S
C258 C259 1.370 1_545 S
C258 C262 1.524 . S
C259 C251 1.503 . S
C259 C258 1.370 1_565 S
C259 C260 1.403 . S
C260 C259 1.403 . S
C260 C261 1.404 . S
C260 C263 1.539 . S
C261 C257 1.410 1_565 S
C261 C260 1.404 . S
C261 H273 0.930 . S
C262 C258 1.524 . S
C262 H274 0.926 1_545 S
C262 H275 0.961 . S
C262 H276 0.961 . S
C263 C260 1.539 . S
C263 H277 0.958 . S
C263 H278 0.961 . S
C263 H279 0.960 . S
H264 C248 0.931 . S
H265 C253 0.929 . S
H266 C254 0.960 . S
H267 C254 0.962 . S
H268 C254 0.960 . S
H269 C255 0.961 . S
H270 C255 0.961 . S
H271 C255 0.961 . S
H272 C256 0.931 . S
H273 C261 0.930 . S
H274 C262 0.926 1_565 S
H275 C262 0.961 . S
H276 C262 0.961 . S
H277 C263 0.958 . S
H278 C263 0.961 . S
H279 C263 0.960 . S
C280 C281 1.391 . S
C280 C282 1.394 . S
C280 H296 0.931 . S
C281 C280 1.391 . S
C281 C285 1.376 . S
C282 C280 1.394 . S
C282 C283 1.369 . S
C282 C286 1.531 . S
C283 C282 1.369 . S
C283 C284 1.410 . S
C283 C291 1.503 . S
C284 C283 1.410 . S
C284 C285 1.392 . S
C284 C287 1.511 . S
C285 C281 1.376 . S
C285 C284 1.392 . S
C285 H297 0.929 . S
C286 C282 1.531 . S
C286 H298 0.960 . S
C286 H299 0.962 . S
C286 H300 0.960 . S
C287 C284 1.511 . S
C287 H301 0.961 . S
C287 H302 0.961 . S
C287 H303 0.961 . S
C288 C289 1.370 . S
C288 C290 1.363 . S
C288 H304 0.931 . S
C289 C288 1.370 . S
C289 C293 1.408 . S
C290 C288 1.363 . S
C290 C291 1.370 . S
C290 C294 1.524 . S
C291 C283 1.503 . S
C291 C290 1.370 . S
C291 C292 1.403 . S
C292 C291 1.403 . S
C292 C293 1.404 . S
C292 C295 1.539 . S
C293 C289 1.408 . S
C293 C292 1.404 . S
C293 H305 0.930 . S
C294 C290 1.524 . S
C294 H306 0.956 . S
C294 H307 0.961 . S
C294 H308 0.961 . S
C295 C292 1.539 . S
C295 H309 0.958 . S
C295 H310 0.961 . S
C295 H311 0.960 . S
H296 C280 0.931 . S
H297 C285 0.929 . S
H298 C286 0.960 . S
H299 C286 0.962 . S
H300 C286 0.960 . S
H301 C287 0.961 . S
H302 C287 0.961 . S
H303 C287 0.961 . S
H304 C288 0.931 . S
H305 C293 0.930 . S
H306 C294 0.956 . S
H307 C294 0.961 . S
H308 C294 0.961 . S
H309 C295 0.958 . S
H310 C295 0.961 . S
H311 C295 0.960 . S
C312 C313 1.391 . S
C312 C314 1.394 . S
C312 H328 0.931 . S
C313 C312 1.391 . S
C313 C317 1.376 . S
C314 C312 1.394 . S
C314 C315 1.369 . S
C314 C318 1.531 . S
C315 C314 1.369 . S
C315 C316 1.410 . S
C315 C323 1.503 . S
C316 C315 1.410 . S
C316 C317 1.392 . S
C316 C319 1.511 . S
C317 C313 1.376 . S
C317 C316 1.392 . S
C317 H329 0.929 . S
C318 C314 1.531 . S
C318 H330 0.960 . S
C318 H331 0.962 . S
C318 H332 0.960 . S
C319 C316 1.511 . S
C319 H333 0.961 . S
C319 H334 0.961 . S
C319 H335 0.961 . S
C320 C321 1.370 . S
C320 C322 1.363 . S
C320 H336 0.931 . S
C321 C320 1.370 . S
C321 C325 1.408 . S
C322 C320 1.363 . S
C322 C323 1.370 . S
C322 C326 1.524 . S
C323 C315 1.503 . S
C323 C322 1.370 . S
C323 C324 1.403 . S
C324 C323 1.403 . S
C324 C325 1.404 . S
C324 C327 1.539 . S
C325 C321 1.408 . S
C325 C324 1.404 . S
C325 H337 0.930 . S
C326 C322 1.524 . S
C326 H338 0.956 . S
C326 H339 0.961 . S
C326 H340 0.961 . S
C327 C324 1.539 . S
C327 H341 0.958 . S
C327 H342 0.961 . S
C327 H343 0.960 . S
H328 C312 0.931 . S
H329 C317 0.929 . S
H330 C318 0.960 . S
H331 C318 0.962 . S
H332 C318 0.960 . S
H333 C319 0.961 . S
H334 C319 0.961 . S
H335 C319 0.961 . S
H336 C320 0.931 . S
H337 C325 0.930 . S
H338 C326 0.956 . S
H339 C326 0.961 . S
H340 C326 0.961 . S
H341 C327 0.958 . S
H342 C327 0.961 . S
H343 C327 0.960 . S
C344 C345 1.366 1_455 S
C344 C346 1.394 . S
C344 H360 0.931 . S
C345 C344 1.366 1_655 S
C345 C349 1.402 . S
C346 C344 1.394 . S
C346 C347 1.369 1_455 S
C346 C350 1.531 . S
C347 C346 1.369 1_655 S
C347 C348 1.410 . S
C347 C355 1.505 . S
C348 C347 1.410 . S
C348 C349 1.392 . S
C348 C351 1.511 . S
C349 C345 1.402 . S
C349 C348 1.392 . S
C349 H361 0.929 . S
C350 C346 1.531 . S
C350 H362 0.960 . S
C350 H363 0.962 . S
C350 H364 0.960 . S
C351 C348 1.511 . S
C351 H365 0.961 . S
C351 H366 0.961 . S
C351 H367 0.961 . S
C352 C353 1.377 . S
C352 C354 1.363 . S
C352 H368 0.931 . S
C353 C352 1.377 . S
C353 C357 1.402 1_455 S
C354 C352 1.363 . S
C354 C355 1.354 1_455 S
C354 C358 1.524 . S
C355 C347 1.505 . S
C355 C354 1.354 1_655 S
C355 C356 1.419 . S
C356 C355 1.419 . S
C356 C357 1.404 . S
C356 C359 1.539 . S
C357 C353 1.402 1_655 S
C357 C356 1.404 . S
C357 H369 0.930 . S
C358 C354 1.524 . S
C358 H370 0.956 . S
C358 H371 0.961 . S
C358 H372 0.961 . S
C359 C356 1.539 . S
C359 H373 0.958 . S
C359 H374 0.961 . S
C359 H375 0.960 . S
H360 C344 0.931 . S
H361 C349 0.929 . S
H362 C350 0.960 . S
H363 C350 0.962 . S
H364 C350 0.960 . S
H365 C351 0.961 . S
H366 C351 0.961 . S
H367 C351 0.961 . S
H368 C352 0.931 . S
H369 C357 0.930 . S
H370 C358 0.956 . S
H371 C358 0.961 . S
H372 C358 0.961 . S
H373 C359 0.958 . S
H374 C359 0.961 . S
H375 C359 0.960 . S
C376 C377 1.391 . S
C376 C378 1.394 . S
C376 H392 0.931 . S
C377 C376 1.391 . S
C377 C381 1.376 1_545 S
C378 C376 1.394 . S
C378 C379 1.369 . S
C378 C382 1.531 . S
C379 C378 1.369 . S
C379 C380 1.410 1_545 S
C379 C387 1.503 . S
C380 C379 1.410 1_565 S
C380 C381 1.392 . S
C380 C383 1.511 . S
C381 C377 1.376 1_565 S
C381 C380 1.392 . S
C381 H393 0.929 . S
C382 C378 1.531 . S
C382 H394 0.960 . S
C382 H395 0.962 . S
C382 H396 0.960 . S
C383 C380 1.511 . S
C383 H397 0.961 . S
C383 H398 0.961 . S
C383 H399 0.961 . S
C384 C385 1.350 1_565 S
C384 C386 1.363 1_556 S
C384 H400 0.931 . S
C385 C384 1.350 1_545 S
C385 C389 1.431 1_556 S
C386 C384 1.363 1_554 S
C386 C387 1.370 1_565 S
C386 C390 1.524 . S
C387 C379 1.503 . S
C387 C386 1.370 1_545 S
C387 C388 1.403 . S
C388 C387 1.403 . S
C388 C389 1.404 . S
C388 C391 1.539 . S
C389 C385 1.431 1_554 S
C389 C388 1.404 . S
C389 H401 0.930 1_554 S
C390 C386 1.524 . S
C390 H402 0.956 . S
C390 H403 0.961 . S
C390 H404 0.961 1_554 S
C391 C388 1.539 . S
C391 H405 0.958 . S
C391 H406 0.961 . S
C391 H407 0.960 . S
H392 C376 0.931 . S
H393 C381 0.929 . S
H394 C382 0.960 . S
H395 C382 0.962 . S
H396 C382 0.960 . S
H397 C383 0.961 . S
H398 C383 0.961 . S
H399 C383 0.961 . S
H400 C384 0.931 . S
H401 C389 0.930 1_556 S
H402 C390 0.956 . S
H403 C390 0.961 . S
H404 C390 0.961 1_556 S
H405 C391 0.958 . S
H406 C391 0.961 . S
H407 C391 0.960 . S
C408 C409 1.391 . S
C408 C410 1.394 . S
C408 H424 0.931 . S
C409 C408 1.391 . S
C409 C413 1.376 . S
C410 C408 1.394 . S
C410 C411 1.369 . S
C410 C414 1.531 . S
C411 C410 1.369 . S
C411 C412 1.410 . S
C411 C419 1.503 . S
C412 C411 1.410 . S
C412 C413 1.392 . S
C412 C415 1.511 . S
C413 C409 1.376 . S
C413 C412 1.392 . S
C413 H425 0.929 . S
C414 C410 1.531 . S
C414 H426 0.960 . S
C414 H427 0.962 . S
C414 H428 0.960 . S
C415 C412 1.511 . S
C415 H429 0.961 . S
C415 H430 0.961 . S
C415 H431 0.961 . S
C416 C417 1.370 . S
C416 C418 1.363 1_556 S
C416 H432 0.931 . S
C417 C416 1.370 . S
C417 C421 1.408 1_556 S
C418 C416 1.363 1_554 S
C418 C419 1.370 . S
C418 C422 1.524 . S
C419 C411 1.503 . S
C419 C418 1.370 . S
C419 C420 1.403 . S
C420 C419 1.403 . S
C420 C421 1.404 . S
C420 C423 1.539 . S
C421 C417 1.408 1_554 S
C421 C420 1.404 . S
C421 H433 0.930 . S
C422 C418 1.524 . S
C422 H434 0.956 . S
C422 H435 0.961 . S
C422 H436 0.961 1_554 S
C423 C420 1.539 . S
C423 H437 0.958 . S
C423 H438 0.961 . S
C423 H439 0.960 . S
H424 C408 0.931 . S
H425 C413 0.929 . S
H426 C414 0.960 . S
H427 C414 0.962 . S
H428 C414 0.960 . S
H429 C415 0.961 . S
H430 C415 0.961 . S
H431 C415 0.961 . S
H432 C416 0.931 . S
H433 C421 0.930 . S
H434 C422 0.956 . S
H435 C422 0.961 . S
H436 C422 0.961 1_556 S
H437 C423 0.958 . S
H438 C423 0.961 . S
H439 C423 0.960 . S
C440 C441 1.391 . S
C440 C442 1.394 . S
C440 H456 0.931 . S
C441 C440 1.391 . S
C441 C445 1.376 . S
C442 C440 1.394 . S
C442 C443 1.369 . S
C442 C446 1.531 . S
C443 C442 1.369 . S
C443 C444 1.410 . S
C443 C451 1.503 . S
C444 C443 1.410 . S
C444 C445 1.392 . S
C444 C447 1.511 . S
C445 C441 1.376 . S
C445 C444 1.392 . S
C445 H457 0.929 . S
C446 C442 1.531 . S
C446 H458 0.960 . S
C446 H459 0.962 . S
C446 H460 0.960 . S
C447 C444 1.511 . S
C447 H461 0.961 . S
C447 H462 0.961 . S
C447 H463 0.961 . S
C448 C449 1.370 . S
C448 C450 1.363 1_556 S
C448 H464 0.931 . S
C449 C448 1.370 . S
C449 C453 1.408 1_556 S
C450 C448 1.363 1_554 S
C450 C451 1.370 . S
C450 C454 1.524 . S
C451 C443 1.503 . S
C451 C450 1.370 . S
C451 C452 1.403 . S
C452 C451 1.403 . S
C452 C453 1.404 . S
C452 C455 1.539 . S
C453 C449 1.408 1_554 S
C453 C452 1.404 . S
C453 H465 0.930 . S
C454 C450 1.524 . S
C454 H466 0.956 . S
C454 H467 0.961 . S
C454 H468 0.961 1_554 S
C455 C452 1.539 . S
C455 H469 0.958 . S
C455 H470 0.961 . S
C455 H471 0.960 . S
H456 C440 0.931 . S
H457 C445 0.929 . S
H458 C446 0.960 . S
H459 C446 0.962 . S
H460 C446 0.960 . S
H461 C447 0.961 . S
H462 C447 0.961 . S
H463 C447 0.961 . S
H464 C448 0.931 . S
H465 C453 0.930 . S
H466 C454 0.956 . S
H467 C454 0.961 . S
H468 C454 0.961 1_556 S
H469 C455 0.958 . S
H470 C455 0.961 . S
H471 C455 0.960 . S
C472 C473 1.396 . S
C472 C474 1.394 . S
C472 H488 0.931 . S
C473 C472 1.396 . S
C473 C477 1.370 1_655 S
C474 C472 1.394 . S
C474 C475 1.406 . S
C474 C478 1.531 . S
C475 C474 1.406 . S
C475 C476 1.372 1_655 S
C475 C483 1.503 . S
C476 C475 1.372 1_455 S
C476 C477 1.392 . S
C476 C479 1.511 . S
C477 C473 1.370 1_455 S
C477 C476 1.392 . S
C477 H489 0.929 . S
C478 C474 1.531 . S
C478 H490 0.960 . S
C478 H491 0.962 . S
C478 H492 0.960 . S
C479 C476 1.511 . S
C479 H493 0.961 . S
C479 H494 0.961 . S
C479 H495 0.961 . S
C480 C481 1.371 1_554 S
C480 C482 1.364 . S
C480 H496 0.931 . S
C481 C480 1.371 1_556 S
C481 C485 1.409 . S
C482 C480 1.364 . S
C482 C483 1.370 . S
C482 C486 1.524 . S
C483 C475 1.503 . S
C483 C482 1.370 . S
C483 C484 1.404 1_554 S
C484 C483 1.404 1_556 S
C484 C485 1.404 . S
C484 C487 1.539 1_655 S
C485 C481 1.409 . S
C485 C484 1.404 . S
C485 H497 0.930 . S
C486 C482 1.524 . S
C486 H498 0.968 . S
C486 H499 0.950 1_655 S
C486 H500 0.959 1_655 S
C487 C484 1.539 1_455 S
C487 H501 0.955 1_455 S
C487 H502 0.963 . S
C487 H503 0.961 . S
H488 C472 0.931 . S
H489 C477 0.929 . S
H490 C478 0.960 . S
H491 C478 0.962 . S
H492 C478 0.960 . S
H493 C479 0.961 . S
H494 C479 0.961 . S
H495 C479 0.961 . S
H496 C480 0.931 . S
H497 C485 0.930 . S
H498 C486 0.968 . S
H499 C486 0.950 1_455 S
H500 C486 0.959 1_455 S
H501 C487 0.955 1_655 S
H502 C487 0.963 . S
H503 C487 0.961 . S
C504 C505 1.391 . S
C504 C506 1.394 . S
C504 H520 0.931 . S
C505 C504 1.391 . S
C505 C509 1.376 1_455 S
C506 C504 1.394 . S
C506 C507 1.369 1_455 S
C506 C510 1.531 . S
C507 C506 1.369 1_655 S
C507 C508 1.410 . S
C507 C515 1.503 . S
C508 C507 1.410 . S
C508 C509 1.392 . S
C508 C511 1.511 . S
C509 C505 1.376 1_655 S
C509 C508 1.392 . S
C509 H521 0.929 . S
C510 C506 1.531 . S
C510 H522 0.960 . S
C510 H523 0.962 . S
C510 H524 0.960 . S
C511 C508 1.511 . S
C511 H525 0.961 . S
C511 H526 0.961 . S
C511 H527 0.961 . S
C512 C513 1.370 . S
C512 C514 1.363 . S
C512 H528 0.931 . S
C513 C512 1.370 . S
C513 C517 1.408 . S
C514 C512 1.363 . S
C514 C515 1.370 . S
C514 C518 1.524 . S
C515 C507 1.503 . S
C515 C514 1.370 . S
C515 C516 1.403 . S
C516 C515 1.403 . S
C516 C517 1.404 . S
C516 C519 1.539 1_655 S
C517 C513 1.408 . S
C517 C516 1.404 . S
C517 H529 0.930 . S
C518 C514 1.524 . S
C518 H530 0.956 . S
C518 H531 0.961 . S
C518 H532 0.961 . S
C519 C516 1.539 1_455 S
C519 H533 0.958 . S
C519 H534 0.961 1_455 S
C519 H535 0.963 . S
H520 C504 0.931 . S
H521 C509 0.929 . S
H522 C510 0.960 . S
H523 C510 0.962 . S
H524 C510 0.960 . S
H525 C511 0.961 . S
H526 C511 0.961 . S
H527 C511 0.961 . S
H528 C512 0.931 . S
H529 C517 0.930 . S
H530 C518 0.956 . S
H531 C518 0.961 . S
H532 C518 0.961 . S
H533 C519 0.958 . S
H534 C519 0.961 1_655 S
H535 C519 0.963 . S
C536 C537 1.394 . S
C536 C538 1.394 . S
C536 H552 0.931 . S
C537 C536 1.394 . S
C537 C541 1.374 1_565 S
C538 C536 1.394 . S
C538 C539 1.369 . S
C538 C542 1.531 . S
C539 C538 1.369 . S
C539 C540 1.409 . S
C539 C547 1.503 . S
C540 C539 1.409 . S
C540 C541 1.393 1_565 S
C540 C543 1.511 1_565 S
C541 C537 1.374 1_545 S
C541 C540 1.393 1_545 S
C541 H553 0.929 . S
C542 C538 1.531 . S
C542 H554 0.960 . S
C542 H555 0.962 . S
C542 H556 0.960 . S
C543 C540 1.511 1_545 S
C543 H557 0.961 . S
C543 H558 0.961 . S
C543 H559 0.961 1_545 S
C544 C545 1.370 . S
C544 C546 1.363 . S
C544 H560 0.931 . S
C545 C544 1.370 . S
C545 C549 1.408 . S
C546 C544 1.363 . S
C546 C547 1.370 . S
C546 C550 1.524 1_565 S
C547 C539 1.503 . S
C547 C546 1.370 . S
C547 C548 1.403 . S
C548 C547 1.403 . S
C548 C549 1.404 . S
C548 C551 1.539 . S
C549 C545 1.408 . S
C549 C548 1.404 . S
C549 H561 0.930 . S
C550 C546 1.524 1_545 S
C550 H562 0.956 . S
C550 H563 0.961 . S
C550 H564 0.961 . S
C551 C548 1.539 . S
C551 H565 0.958 . S
C551 H566 0.961 . S
C551 H567 0.960 . S
H552 C536 0.931 . S
H553 C541 0.929 . S
H554 C542 0.960 . S
H555 C542 0.962 . S
H556 C542 0.960 . S
H557 C543 0.961 . S
H558 C543 0.961 . S
H559 C543 0.961 1_565 S
H560 C544 0.931 . S
H561 C549 0.930 . S
H562 C550 0.956 . S
H563 C550 0.961 . S
H564 C550 0.961 . S
H565 C551 0.958 . S
H566 C551 0.961 . S
H567 C551 0.960 . S
C568 C569 1.391 . S
C568 C570 1.394 . S
C568 H584 0.931 . S
C569 C568 1.391 . S
C569 C573 1.376 . S
C570 C568 1.394 . S
C570 C571 1.369 . S
C570 C574 1.531 . S
C571 C570 1.369 . S
C571 C572 1.410 . S
C571 C579 1.503 . S
C572 C571 1.410 . S
C572 C573 1.392 . S
C572 C575 1.511 . S
C573 C569 1.376 . S
C573 C572 1.392 . S
C573 H585 0.929 . S
C574 C570 1.531 . S
C574 H586 0.960 . S
C574 H587 0.962 . S
C574 H588 0.960 . S
C575 C572 1.511 . S
C575 H589 0.961 . S
C575 H590 0.961 . S
C575 H591 0.961 . S
C576 C577 1.370 . S
C576 C578 1.363 . S
C576 H592 0.931 . S
C577 C576 1.370 . S
C577 C581 1.408 . S
C578 C576 1.363 . S
C578 C579 1.370 . S
C578 C582 1.524 . S
C579 C571 1.503 . S
C579 C578 1.370 . S
C579 C580 1.403 . S
C580 C579 1.403 . S
C580 C581 1.404 . S
C580 C583 1.539 . S
C581 C577 1.408 . S
C581 C580 1.404 . S
C581 H593 0.930 . S
C582 C578 1.524 . S
C582 H594 0.956 . S
C582 H595 0.961 . S
C582 H596 0.961 . S
C583 C580 1.539 . S
C583 H597 0.958 . S
C583 H598 0.961 . S
C583 H599 0.960 . S
H584 C568 0.931 . S
H585 C573 0.929 . S
H586 C574 0.960 . S
H587 C574 0.962 . S
H588 C574 0.960 . S
H589 C575 0.961 . S
H590 C575 0.961 . S
H591 C575 0.961 . S
H592 C576 0.931 . S
H593 C581 0.930 . S
H594 C582 0.956 . S
H595 C582 0.961 . S
H596 C582 0.961 . S
H597 C583 0.958 . S
H598 C583 0.961 . S
H599 C583 0.960 . S
C600 C601 1.391 . S
C600 C602 1.394 . S
C600 H616 0.931 . S
C601 C600 1.391 . S
C601 C605 1.376 . S
C602 C600 1.394 . S
C602 C603 1.369 . S
C602 C606 1.531 . S
C603 C602 1.369 . S
C603 C604 1.410 . S
C603 C611 1.503 . S
C604 C603 1.410 . S
C604 C605 1.392 . S
C604 C607 1.511 . S
C605 C601 1.376 . S
C605 C604 1.392 . S
C605 H617 0.929 . S
C606 C602 1.531 . S
C606 H618 0.960 . S
C606 H619 0.962 . S
C606 H620 0.960 . S
C607 C604 1.511 . S
C607 H621 0.961 . S
C607 H622 0.961 . S
C607 H623 0.961 . S
C608 C609 1.370 . S
C608 C610 1.363 . S
C608 H624 0.931 . S
C609 C608 1.370 . S
C609 C613 1.408 . S
C610 C608 1.363 . S
C610 C611 1.370 . S
C610 C614 1.524 . S
C611 C603 1.503 . S
C611 C610 1.370 . S
C611 C612 1.403 . S
C612 C611 1.403 . S
C612 C613 1.404 . S
C612 C615 1.539 . S
C613 C609 1.408 . S
C613 C612 1.404 . S
C613 H625 0.930 . S
C614 C610 1.524 . S
C614 H626 0.956 . S
C614 H627 0.961 . S
C614 H628 0.961 . S
C615 C612 1.539 . S
C615 H629 0.958 . S
C615 H630 0.961 . S
C615 H631 0.960 . S
H616 C600 0.931 . S
H617 C605 0.929 . S
H618 C606 0.960 . S
H619 C606 0.962 . S
H620 C606 0.960 . S
H621 C607 0.961 . S
H622 C607 0.961 . S
H623 C607 0.961 . S
H624 C608 0.931 . S
H625 C613 0.930 . S
H626 C614 0.956 . S
H627 C614 0.961 . S
H628 C614 0.961 . S
H629 C615 0.958 . S
H630 C615 0.961 . S
H631 C615 0.960 . S
C632 C633 1.391 . S
C632 C634 1.394 . S
C632 H648 0.931 . S
C633 C632 1.391 . S
C633 C637 1.376 1_655 S
C634 C632 1.394 . S
C634 C635 1.369 1_655 S
C634 C638 1.531 . S
C635 C634 1.369 1_455 S
C635 C636 1.410 . S
C635 C643 1.503 . S
C636 C635 1.410 . S
C636 C637 1.392 . S
C636 C639 1.511 . S
C637 C633 1.376 1_455 S
C637 C636 1.392 . S
C637 H649 0.929 . S
C638 C634 1.531 . S
C638 H650 0.960 . S
C638 H651 0.962 . S
C638 H652 0.960 . S
C639 C636 1.511 . S
C639 H653 0.961 . S
C639 H654 0.961 . S
C639 H655 0.961 . S
C640 C641 1.370 . S
C640 C642 1.363 . S
C640 H656 0.932 1_554 S
C641 C640 1.370 . S
C641 C645 1.408 . S
C642 C640 1.363 . S
C642 C643 1.370 . S
C642 C646 1.524 . S
C643 C635 1.503 . S
C643 C642 1.370 . S
C643 C644 1.403 . S
C644 C643 1.403 . S
C644 C645 1.404 . S
C644 C647 1.539 . S
C645 C641 1.408 . S
C645 C644 1.404 . S
C645 H657 0.930 . S
C646 C642 1.524 . S
C646 H658 0.939 1_455 S
C646 H659 0.961 . S
C646 H660 0.961 . S
C647 C644 1.539 . S
C647 H661 0.958 . S
C647 H662 0.961 . S
C647 H663 0.960 . S
H648 C632 0.931 . S
H649 C637 0.929 . S
H650 C638 0.960 . S
H651 C638 0.962 . S
H652 C638 0.960 . S
H653 C639 0.961 . S
H654 C639 0.961 . S
H655 C639 0.961 . S
H656 C640 0.932 1_556 S
H657 C645 0.930 . S
H658 C646 0.939 1_655 S
H659 C646 0.961 . S
H660 C646 0.961 . S
H661 C647 0.958 . S
H662 C647 0.961 . S
H663 C647 0.960 . S
C664 C665 1.386 1_565 S
C664 C666 1.394 1_565 S
C664 H680 0.931 . S
C665 C664 1.386 1_545 S
C665 C669 1.388 . S
C666 C664 1.394 1_545 S
C666 C667 1.369 . S
C666 C670 1.531 1_545 S
C667 C666 1.369 . S
C667 C668 1.410 . S
C667 C675 1.503 . S
C668 C667 1.410 . S
C668 C669 1.392 . S
C668 C671 1.511 . S
C669 C665 1.388 . S
C669 C668 1.392 . S
C669 H681 0.929 . S
C670 C666 1.531 1_565 S
C670 H682 0.960 1_565 S
C670 H683 0.962 . S
C670 H684 0.960 . S
C671 C668 1.511 . S
C671 H685 0.961 . S
C671 H686 0.961 . S
C671 H687 0.961 . S
C672 C673 1.370 . S
C672 C674 1.363 . S
C672 H688 0.945 . S
C673 C672 1.370 . S
C673 C677 1.408 . S
C674 C672 1.363 . S
C674 C675 1.370 . S
C674 C678 1.524 1_545 S
C675 C667 1.503 . S
C675 C674 1.370 . S
C675 C676 1.403 . S
C676 C675 1.403 . S
C676 C677 1.404 . S
C676 C679 1.539 . S
C677 C673 1.408 . S
C677 C676 1.404 . S
C677 H689 0.930 . S
C678 C674 1.524 1_565 S
C678 H690 0.956 . S
C678 H691 0.961 . S
C678 H692 0.961 . S
C679 C676 1.539 . S
C679 H693 0.958 . S
C679 H694 0.961 . S
C679 H695 0.960 . S
H680 C664 0.931 . S
H681 C669 0.929 . S
H682 C670 0.960 1_545 S
H683 C670 0.962 . S
H684 C670 0.960 . S
H685 C671 0.961 . S
H686 C671 0.961 . S
H687 C671 0.961 . S
H688 C672 0.945 . S
H689 C677 0.930 . S
H690 C678 0.956 . S
H691 C678 0.961 . S
H692 C678 0.961 . S
H693 C679 0.958 . S
H694 C679 0.961 . S
H695 C679 0.960 . S
C696 C697 1.391 . S
C696 C698 1.394 . S
C696 H712 0.931 . S
C697 C696 1.391 . S
C697 C701 1.376 . S
C698 C696 1.394 . S
C698 C699 1.369 . S
C698 C702 1.531 . S
C699 C698 1.369 . S
C699 C700 1.410 . S
C699 C707 1.503 . S
C700 C699 1.410 . S
C700 C701 1.392 . S
C700 C703 1.511 . S
C701 C697 1.376 . S
C701 C700 1.392 . S
C701 H713 0.929 . S
C702 C698 1.531 . S
C702 H714 0.960 . S
C702 H715 0.962 . S
C702 H716 0.960 . S
C703 C700 1.511 . S
C703 H717 0.961 . S
C703 H718 0.961 . S
C703 H719 0.961 . S
C704 C705 1.370 . S
C704 C706 1.363 . S
C704 H720 0.931 . S
C705 C704 1.370 . S
C705 C709 1.408 . S
C706 C704 1.363 . S
C706 C707 1.370 . S
C706 C710 1.524 . S
C707 C699 1.503 . S
C707 C706 1.370 . S
C707 C708 1.403 . S
C708 C707 1.403 . S
C708 C709 1.404 . S
C708 C711 1.539 . S
C709 C705 1.408 . S
C709 C708 1.404 . S
C709 H721 0.930 . S
C710 C706 1.524 . S
C710 H722 0.956 . S
C710 H723 0.961 . S
C710 H724 0.961 . S
C711 C708 1.539 . S
C711 H725 0.958 . S
C711 H726 0.961 . S
C711 H727 0.960 . S
H712 C696 0.931 . S
H713 C701 0.929 . S
H714 C702 0.960 . S
H715 C702 0.962 . S
H716 C702 0.960 . S
H717 C703 0.961 . S
H718 C703 0.961 . S
H719 C703 0.961 . S
H720 C704 0.931 . S
H721 C709 0.930 . S
H722 C710 0.956 . S
H723 C710 0.961 . S
H724 C710 0.961 . S
H725 C711 0.958 . S
H726 C711 0.961 . S
H727 C711 0.960 . S
C728 C729 1.391 . S
C728 C730 1.394 . S
C728 H744 0.931 . S
C729 C728 1.391 . S
C729 C733 1.376 . S
C730 C728 1.394 . S
C730 C731 1.369 . S
C730 C734 1.531 . S
C731 C730 1.369 . S
C731 C732 1.410 . S
C731 C739 1.503 . S
C732 C731 1.410 . S
C732 C733 1.392 . S
C732 C735 1.511 . S
C733 C729 1.376 . S
C733 C732 1.392 . S
C733 H745 0.929 . S
C734 C730 1.531 . S
C734 H746 0.960 . S
C734 H747 0.962 . S
C734 H748 0.960 . S
C735 C732 1.511 . S
C735 H749 0.961 . S
C735 H750 0.961 . S
C735 H751 0.961 . S
C736 C737 1.370 . S
C736 C738 1.363 . S
C736 H752 0.931 . S
C737 C736 1.370 . S
C737 C741 1.408 . S
C738 C736 1.363 . S
C738 C739 1.370 . S
C738 C742 1.524 . S
C739 C731 1.503 . S
C739 C738 1.370 . S
C739 C740 1.403 . S
C740 C739 1.403 . S
C740 C741 1.404 . S
C740 C743 1.539 . S
C741 C737 1.408 . S
C741 C740 1.404 . S
C741 H753 0.930 . S
C742 C738 1.524 . S
C742 H754 0.956 . S
C742 H755 0.961 . S
C742 H756 0.961 . S
C743 C740 1.539 . S
C743 H757 0.958 . S
C743 H758 0.961 . S
C743 H759 0.960 . S
H744 C728 0.931 . S
H745 C733 0.929 . S
H746 C734 0.960 . S
H747 C734 0.962 . S
H748 C734 0.960 . S
H749 C735 0.961 . S
H750 C735 0.961 . S
H751 C735 0.961 . S
H752 C736 0.931 . S
H753 C741 0.930 . S
H754 C742 0.956 . S
H755 C742 0.961 . S
H756 C742 0.961 . S
H757 C743 0.958 . S
H758 C743 0.961 . S
H759 C743 0.960 . S
C760 C761 1.391 1_655 S
C760 C762 1.394 . S
C760 H776 0.931 . S
C761 C760 1.391 1_455 S
C761 C765 1.376 . S
C762 C760 1.394 . S
C762 C763 1.369 1_655 S
C762 C766 1.531 . S
C763 C762 1.369 1_455 S
C763 C764 1.410 . S
C763 C771 1.503 . S
C764 C763 1.410 . S
C764 C765 1.392 . S
C764 C767 1.511 . S
C765 C761 1.376 . S
C765 C764 1.392 . S
C765 H777 0.929 . S
C766 C762 1.531 . S
C766 H778 0.960 . S
C766 H779 0.962 . S
C766 H780 0.960 . S
C767 C764 1.511 . S
C767 H781 0.961 . S
C767 H782 0.961 . S
C767 H783 0.961 . S
C768 C769 1.370 1_655 S
C768 C770 1.363 . S
C768 H784 0.931 . S
C769 C768 1.370 1_455 S
C769 C773 1.408 . S
C770 C768 1.363 . S
C770 C771 1.370 1_655 S
C770 C774 1.524 . S
C771 C763 1.503 . S
C771 C770 1.370 1_455 S
C771 C772 1.403 . S
C772 C771 1.403 . S
C772 C773 1.404 . S
C772 C775 1.539 . S
C773 C769 1.408 . S
C773 C772 1.404 . S
C773 H785 0.930 . S
C774 C770 1.524 . S
C774 H786 0.956 . S
C774 H787 0.961 1_556 S
C774 H788 0.961 1_556 S
C775 C772 1.539 . S
C775 H789 0.958 . S
C775 H790 0.961 . S
C775 H791 0.960 . S
H776 C760 0.931 . S
H777 C765 0.929 . S
H778 C766 0.960 . S
H779 C766 0.962 . S
H780 C766 0.960 . S
H781 C767 0.961 . S
H782 C767 0.961 . S
H783 C767 0.961 . S
H784 C768 0.931 . S
H785 C773 0.930 . S
H786 C774 0.956 . S
H787 C774 0.961 1_554 S
H788 C774 0.961 1_554 S
H789 C775 0.958 . S
H790 C775 0.961 . S
H791 C775 0.960 . S
C792 C793 1.375 1_565 S
C792 C794 1.394 . S
C792 H808 0.931 . S
C793 C792 1.375 1_545 S
C793 C797 1.392 . S
C794 C792 1.394 . S
C794 C795 1.369 1_565 S
C794 C798 1.531 . S
C795 C794 1.369 1_545 S
C795 C796 1.410 . S
C795 C803 1.503 . S
C796 C795 1.410 . S
C796 C797 1.392 . S
C796 C799 1.511 . S
C797 C793 1.392 . S
C797 C796 1.392 . S
C797 H809 0.929 . S
C798 C794 1.531 . S
C798 H810 0.960 . S
C798 H811 0.962 1_556 S
C798 H812 0.960 . S
C799 C796 1.511 . S
C799 H813 0.961 . S
C799 H814 0.961 . S
C799 H815 0.961 . S
C800 C801 1.370 . S
C800 C802 1.363 . S
C800 H816 0.931 . S
C801 C800 1.370 . S
C801 C805 1.408 1_545 S
C802 C800 1.363 . S
C802 C803 1.370 . S
C802 C806 1.524 . S
C803 C795 1.503 . S
C803 C802 1.370 . S
C803 C804 1.403 1_545 S
C804 C803 1.403 1_565 S
C804 C805 1.404 . S
C804 C807 1.539 . S
C805 C801 1.408 1_565 S
C805 C804 1.404 . S
C805 H817 0.930 . S
C806 C802 1.524 . S
C806 H818 0.956 1_556 S
C806 H819 0.961 . S
C806 H820 0.961 1_556 S
C807 C804 1.539 . S
C807 H821 0.958 . S
C807 H822 0.961 . S
C807 H823 0.960 . S
H808 C792 0.931 . S
H809 C797 0.929 . S
H810 C798 0.960 . S
H811 C798 0.962 1_554 S
H812 C798 0.960 . S
H813 C799 0.961 . S
H814 C799 0.961 . S
H815 C799 0.961 . S
H816 C800 0.931 . S
H817 C805 0.930 . S
H818 C806 0.956 1_554 S
H819 C806 0.961 . S
H820 C806 0.961 1_554 S
H821 C807 0.958 . S
H822 C807 0.961 . S
H823 C807 0.960 . S
C824 C825 1.391 . S
C824 C826 1.394 . S
C824 H840 0.931 1_556 S
C825 C824 1.391 . S
C825 C829 1.376 . S
C826 C824 1.394 . S
C826 C827 1.369 . S
C826 C830 1.531 1_556 S
C827 C826 1.369 . S
C827 C828 1.410 . S
C827 C835 1.503 . S
C828 C827 1.410 . S
C828 C829 1.392 . S
C828 C831 1.511 . S
C829 C825 1.376 . S
C829 C828 1.392 . S
C829 H841 0.929 . S
C830 C826 1.531 1_554 S
C830 H842 0.960 . S
C830 H843 0.962 . S
C830 H844 0.960 . S
C831 C828 1.511 . S
C831 H845 0.961 . S
C831 H846 0.961 . S
C831 H847 0.961 . S
C832 C833 1.370 . S
C832 C834 1.363 . S
C832 H848 0.931 . S
C833 C832 1.370 . S
C833 C837 1.408 . S
C834 C832 1.363 . S
C834 C835 1.370 . S
C834 C838 1.524 . S
C835 C827 1.503 . S
C835 C834 1.370 . S
C835 C836 1.403 . S
C836 C835 1.403 . S
C836 C837 1.404 . S
C836 C839 1.539 . S
C837 C833 1.408 . S
C837 C836 1.404 . S
C837 H849 0.930 . S
C838 C834 1.524 . S
C838 H850 0.956 . S
C838 H851 0.961 . S
C838 H852 0.961 . S
C839 C836 1.539 . S
C839 H853 0.958 1_556 S
C839 H854 0.961 . S
C839 H855 0.960 . S
H840 C824 0.931 1_554 S
H841 C829 0.929 . S
H842 C830 0.960 . S
H843 C830 0.962 . S
H844 C830 0.960 . S
H845 C831 0.961 . S
H846 C831 0.961 . S
H847 C831 0.961 . S
H848 C832 0.931 . S
H849 C837 0.930 . S
H850 C838 0.956 . S
H851 C838 0.961 . S
H852 C838 0.961 . S
H853 C839 0.958 1_554 S
H854 C839 0.961 . S
H855 C839 0.960 . S
C856 C857 1.391 . S
C856 C858 1.394 . S
C856 H872 0.931 . S
C857 C856 1.391 . S
C857 C861 1.376 . S
C858 C856 1.394 . S
C858 C859 1.369 . S
C858 C862 1.531 . S
C859 C858 1.369 . S
C859 C860 1.410 . S
C859 C867 1.503 . S
C860 C859 1.410 . S
C860 C861 1.392 . S
C860 C863 1.511 . S
C861 C857 1.376 . S
C861 C860 1.392 . S
C861 H873 0.929 . S
C862 C858 1.531 . S
C862 H874 0.960 . S
C862 H875 0.962 . S
C862 H876 0.960 1_556 S
C863 C860 1.511 . S
C863 H877 0.961 . S
C863 H878 0.961 . S
C863 H879 0.961 . S
C864 C865 1.370 . S
C864 C866 1.363 . S
C864 H880 0.931 . S
C865 C864 1.370 . S
C865 C869 1.408 . S
C866 C864 1.363 . S
C866 C867 1.370 . S
C866 C870 1.524 . S
C867 C859 1.503 . S
C867 C866 1.370 . S
C867 C868 1.403 . S
C868 C867 1.403 . S
C868 C869 1.404 . S
C868 C871 1.539 1_556 S
C869 C865 1.408 . S
C869 C868 1.404 . S
C869 H881 0.930 . S
C870 C866 1.524 . S
C870 H882 0.956 . S
C870 H883 0.961 . S
C870 H884 0.961 . S
C871 C868 1.539 1_554 S
C871 H885 0.958 . S
C871 H886 0.961 . S
C871 H887 0.960 . S
H872 C856 0.931 . S
H873 C861 0.929 . S
H874 C862 0.960 . S
H875 C862 0.962 . S
H876 C862 0.960 1_554 S
H877 C863 0.961 . S
H878 C863 0.961 . S
H879 C863 0.961 . S
H880 C864 0.931 . S
H881 C869 0.930 . S
H882 C870 0.956 . S
H883 C870 0.961 . S
H884 C870 0.961 . S
H885 C871 0.958 . S
H886 C871 0.961 . S
H887 C871 0.960 . S
C888 C889 1.391 1_455 S
C888 C890 1.394 . S
C888 H904 0.931 . S
C889 C888 1.391 1_655 S
C889 C893 1.376 . S
C890 C888 1.394 . S
C890 C891 1.369 1_455 S
C890 C894 1.531 . S
C891 C890 1.369 1_655 S
C891 C892 1.410 . S
C891 C899 1.503 . S
C892 C891 1.410 . S
C892 C893 1.392 . S
C892 C895 1.511 . S
C893 C889 1.376 . S
C893 C892 1.392 . S
C893 H905 0.929 . S
C894 C890 1.531 . S
C894 H906 0.960 . S
C894 H907 0.962 . S
C894 H908 0.960 . S
C895 C892 1.511 . S
C895 H909 0.961 . S
C895 H910 0.961 . S
C895 H911 0.961 . S
C896 C897 1.370 1_455 S
C896 C898 1.363 . S
C896 H912 0.931 . S
C897 C896 1.370 1_655 S
C897 C901 1.408 . S
C898 C896 1.363 . S
C898 C899 1.370 1_455 S
C898 C902 1.524 . S
C899 C891 1.503 . S
C899 C898 1.370 1_655 S
C899 C900 1.403 . S
C900 C899 1.403 . S
C900 C901 1.404 . S
C900 C903 1.539 . S
C901 C897 1.408 . S
C901 C900 1.404 . S
C901 H913 0.930 . S
C902 C898 1.524 . S
C902 H914 0.956 . S
C902 H915 0.961 . S
C902 H916 0.961 . S
C903 C900 1.539 . S
C903 H917 0.958 . S
C903 H918 0.961 . S
C903 H919 0.960 . S
H904 C888 0.931 . S
H905 C893 0.929 . S
H906 C894 0.960 . S
H907 C894 0.962 . S
H908 C894 0.960 . S
H909 C895 0.961 . S
H910 C895 0.961 . S
H911 C895 0.961 . S
H912 C896 0.931 . S
H913 C901 0.930 . S
H914 C902 0.956 . S
H915 C902 0.961 . S
H916 C902 0.961 . S
H917 C903 0.958 . S
H918 C903 0.961 . S
H919 C903 0.960 . S
C920 C921 1.391 1_545 S
C920 C922 1.394 . S
C920 H936 0.931 . S
C921 C920 1.391 1_565 S
C921 C925 1.376 . S
C922 C920 1.394 . S
C922 C923 1.369 1_545 S
C922 C926 1.531 . S
C923 C922 1.369 1_565 S
C923 C924 1.410 . S
C923 C931 1.503 . S
C924 C923 1.410 . S
C924 C925 1.392 . S
C924 C927 1.511 . S
C925 C921 1.376 . S
C925 C924 1.392 . S
C925 H937 0.929 . S
C926 C922 1.531 . S
C926 H938 0.960 . S
C926 H939 0.962 . S
C926 H940 0.960 . S
C927 C924 1.511 . S
C927 H941 0.961 . S
C927 H942 0.961 . S
C927 H943 0.961 . S
C928 C929 1.370 . S
C928 C930 1.363 . S
C928 H944 0.931 . S
C929 C928 1.370 . S
C929 C933 1.408 . S
C930 C928 1.363 . S
C930 C931 1.370 . S
C930 C934 1.524 . S
C931 C923 1.503 . S
C931 C930 1.370 . S
C931 C932 1.403 . S
C932 C931 1.403 . S
C932 C933 1.404 . S
C932 C935 1.539 . S
C933 C929 1.408 . S
C933 C932 1.404 . S
C933 H945 0.930 . S
C934 C930 1.524 . S
C934 H946 0.956 1_565 S
C934 H947 0.961 . S
C934 H948 0.961 . S
C935 C932 1.539 . S
C935 H949 0.958 1_565 S
C935 H950 0.961 . S
C935 H951 0.960 . S
H936 C920 0.931 . S
H937 C925 0.929 . S
H938 C926 0.960 . S
H939 C926 0.962 . S
H940 C926 0.960 . S
H941 C927 0.961 . S
H942 C927 0.961 . S
H943 C927 0.961 . S
H944 C928 0.931 . S
H945 C933 0.930 . S
H946 C934 0.956 1_545 S
H947 C934 0.961 . S
H948 C934 0.961 . S
H949 C935 0.958 1_545 S
H950 C935 0.961 . S
H951 C935 0.960 . S
C952 C953 1.391 . S
C952 C954 1.394 . S
C952 H968 0.931 . S
C953 C952 1.391 . S
C953 C957 1.376 . S
C954 C952 1.394 . S
C954 C955 1.369 . S
C954 C958 1.531 . S
C955 C954 1.369 . S
C955 C956 1.410 . S
C955 C963 1.503 . S
C956 C955 1.410 . S
C956 C957 1.392 . S
C956 C959 1.511 . S
C957 C953 1.376 . S
C957 C956 1.392 . S
C957 H969 0.929 . S
C958 C954 1.531 . S
C958 H970 0.960 . S
C958 H971 0.962 . S
C958 H972 0.960 . S
C959 C956 1.511 . S
C959 H973 0.961 . S
C959 H974 0.961 . S
C959 H975 0.961 . S
C960 C961 1.370 . S
C960 C962 1.363 . S
C960 H976 0.931 . S
C961 C960 1.370 . S
C961 C965 1.408 . S
C962 C960 1.363 . S
C962 C963 1.370 . S
C962 C966 1.524 . S
C963 C955 1.503 . S
C963 C962 1.370 . S
C963 C964 1.403 . S
C964 C963 1.403 . S
C964 C965 1.404 . S
C964 C967 1.539 . S
C965 C961 1.408 . S
C965 C964 1.404 . S
C965 H977 0.930 . S
C966 C962 1.524 . S
C966 H978 0.956 . S
C966 H979 0.961 . S
C966 H980 0.961 . S
C967 C964 1.539 . S
C967 H981 0.958 . S
C967 H982 0.961 . S
C967 H983 0.960 . S
H968 C952 0.931 . S
H969 C957 0.929 . S
H970 C958 0.960 . S
H971 C958 0.962 . S
H972 C958 0.960 . S
H973 C959 0.961 . S
H974 C959 0.961 . S
H975 C959 0.961 . S
H976 C960 0.931 . S
H977 C965 0.930 . S
H978 C966 0.956 . S
H979 C966 0.961 . S
H980 C966 0.961 . S
H981 C967 0.958 . S
H982 C967 0.961 . S
H983 C967 0.960 . S
C984 C985 1.391 . S
C984 C986 1.394 . S
C984 H1000 0.931 . S
C985 C984 1.391 . S
C985 C989 1.376 . S
C986 C984 1.394 . S
C986 C987 1.369 . S
C986 C990 1.531 . S
C987 C986 1.369 . S
C987 C988 1.410 . S
C987 C995 1.503 . S
C988 C987 1.410 . S
C988 C989 1.392 . S
C988 C991 1.511 . S
C989 C985 1.376 . S
C989 C988 1.392 . S
C989 H1001 0.929 . S
C990 C986 1.531 . S
C990 H1002 0.960 . S
C990 H1003 0.962 . S
C990 H1004 0.960 . S
C991 C988 1.511 . S
C991 H1005 0.961 . S
C991 H1006 0.961 . S
C991 H1007 0.961 . S
C992 C993 1.370 . S
C992 C994 1.363 . S
C992 H1008 0.931 . S
C993 C992 1.370 . S
C993 C997 1.408 . S
C994 C992 1.363 . S
C994 C995 1.370 . S
C994 C998 1.524 . S
C995 C987 1.503 . S
C995 C994 1.370 . S
C995 C996 1.403 . S
C996 C995 1.403 . S
C996 C997 1.404 . S
C996 C999 1.539 . S
C997 C993 1.408 . S
C997 C996 1.404 . S
C997 H1009 0.930 . S
C998 C994 1.524 . S
C998 H1010 0.956 . S
C998 H1011 0.961 . S
C998 H1012 0.961 . S
C999 C996 1.539 . S
C999 H1013 0.958 . S
C999 H1014 0.961 . S
C999 H1015 0.960 . S
H1000 C984 0.931 . S
H1001 C989 0.929 . S
H1002 C990 0.960 . S
H1003 C990 0.962 . S
H1004 C990 0.960 . S
H1005 C991 0.961 . S
H1006 C991 0.961 . S
H1007 C991 0.961 . S
H1008 C992 0.931 . S
H1009 C997 0.930 . S
H1010 C998 0.956 . S
H1011 C998 0.961 . S
H1012 C998 0.961 . S
H1013 C999 0.958 . S
H1014 C999 0.961 . S
H1015 C999 0.960 . S
C249 C76 1.776 . S
C257 C97 1.942 1_545 S
C289 C137 1.967 . S
C281 C87 1.812 . S
C321 C177 1.969 . S
C313 C54 1.822 . S
C353 C217 1.958 1_455 S
C345 C65 1.851 . S
C385 C106 1.951 . S
C377 C32 1.837 1_545 S
C409 C43 1.853 . S
C417 C146 1.970 . S
C441 C10 1.863 . S
C449 C186 1.974 . S
C473 C21 1.787 . S
C481 C226 1.955 1_655 S
C513 C103 0.470 . S
C505 C60 0.582 . S
C545 C143 0.512 . S
C537 C71 0.436 1_565 S
C577 C183 0.513 . S
C569 C82 0.576 . S
C601 C49 0.469 . S
C609 C223 0.511 . S
C633 C16 0.424 1_655 S
C641 C94 0.486 . S
C673 C134 0.519 . S
C665 C27 0.440 . S
C705 C174 0.477 . S
C697 C38 0.598 . S
C729 C5 0.468 . S
C737 C214 0.519 . S
C761 C59 2.082 . S
C769 C107 2.294 . S
C793 C70 2.045 . S
C801 C147 2.253 . S
C833 C187 2.231 . S
C825 C81 1.975 . S
C865 C227 2.272 . S
C857 C48 1.994 . S
C889 C15 2.019 1_655 S
C897 C98 2.306 . S
C929 C138 2.257 . S
C921 C26 1.974 1_565 S
C961 C178 2.231 . S
C953 C37 2.029 . S
C985 C4 2.007 . S
C993 C218 2.286 . S
