# Generated by pormake.
# Topology ptr, (4,4)-cn, num edge types: 1
# Building blocks:
#     Node 0, Type 0, BuildingBlock: AZAVOO_clean_sbu_0, # of connection points: 4
#     Node 1, Type 0, BuildingBlock: AZAVOO_clean_sbu_0, # of connection points: 4
#     Node 2, Type 0, BuildingBlock: AZAVOO_clean_sbu_0, # of connection points: 4
#     Node 3, Type 0, BuildingBlock: AZAVOO_clean_sbu_0, # of connection points: 4
#     Node 4, Type 0, BuildingBlock: AZAVOO_clean_sbu_0, # of connection points: 4
#     Node 5, Type 0, BuildingBlock: AZAVOO_clean_sbu_0, # of connection points: 4
#     Node 6, Type 0, BuildingBlock: AZAVOO_clean_sbu_0, # of connection points: 4
#     Node 7, Type 0, BuildingBlock: AZAVOO_clean_sbu_0, # of connection points: 4
#     Node 8, Type 0, BuildingBlock: AZAVOO_clean_sbu_0, # of connection points: 4
#     Node 9, Type 0, BuildingBlock: AZAVOO_clean_sbu_0, # of connection points: 4
#     Node 10, Type 0, BuildingBlock: AZAVOO_clean_sbu_0, # of connection points: 4
#     Node 11, Type 0, BuildingBlock: AZAVOO_clean_sbu_0, # of connection points: 4
#     Node 12, Type 0, BuildingBlock: AZAVOO_clean_sbu_0, # of connection points: 4
#     Node 13, Type 0, BuildingBlock: AZAVOO_clean_sbu_0, # of connection points: 4
#     Node 14, Type 0, BuildingBlock: AZAVOO_clean_sbu_0, # of connection points: 4
#     Node 15, Type 0, BuildingBlock: AZAVOO_clean_sbu_0, # of connection points: 4
#     Node 16, Type 0, BuildingBlock: AZAVOO_clean_sbu_0, # of connection points: 4
#     Node 17, Type 0, BuildingBlock: AZAVOO_clean_sbu_0, # of connection points: 4
#     Node 18, Type 1, BuildingBlock: NAHDIM_clean_linker_0, # of connection points: 4
#     Node 19, Type 1, BuildingBlock: NAHDIM_clean_linker_0, # of connection points: 4
#     Node 20, Type 1, BuildingBlock: NAHDIM_clean_linker_0, # of connection points: 4
#     Node 21, Type 1, BuildingBlock: NAHDIM_clean_linker_0, # of connection points: 4
#     Node 22, Type 1, BuildingBlock: NAHDIM_clean_linker_0, # of connection points: 4
#     Node 23, Type 1, BuildingBlock: NAHDIM_clean_linker_0, # of connection points: 4
#     Node 24, Type 1, BuildingBlock: NAHDIM_clean_linker_0, # of connection points: 4
#     Node 25, Type 1, BuildingBlock: NAHDIM_clean_linker_0, # of connection points: 4
#     Node 26, Type 1, BuildingBlock: NAHDIM_clean_linker_0, # of connection points: 4
#     Node 27, Type 1, BuildingBlock: NAHDIM_clean_linker_0, # of connection points: 4
#     Node 28, Type 1, BuildingBlock: NAHDIM_clean_linker_0, # of connection points: 4
#     Node 29, Type 1, BuildingBlock: NAHDIM_clean_linker_0, # of connection points: 4
#     Node 30, Type 1, BuildingBlock: NAHDIM_clean_linker_0, # of connection points: 4
#     Node 31, Type 1, BuildingBlock: NAHDIM_clean_linker_0, # of connection points: 4
#     Node 32, Type 1, BuildingBlock: NAHDIM_clean_linker_0, # of connection points: 4
#     Node 33, Type 1, BuildingBlock: NAHDIM_clean_linker_0, # of connection points: 4
#     Node 34, Type 1, BuildingBlock: NAHDIM_clean_linker_0, # of connection points: 4
#     Node 35, Type 1, BuildingBlock: NAHDIM_clean_linker_0, # of connection points: 4
#     Edge 36, Type (0, 1), BuildingBlock: ZUJKAS_clean_linker_0, # of connection points: 2
#     Edge 37, Type (0, 1), BuildingBlock: ZUJKAS_clean_linker_0, # of connection points: 2
#     Edge 38, Type (0, 1), BuildingBlock: ZUJKAS_clean_linker_0, # of connection points: 2
#     Edge 39, Type (0, 1), BuildingBlock: ZUJKAS_clean_linker_0, # of connection points: 2
#     Edge 40, Type (0, 1), BuildingBlock: ZUJKAS_clean_linker_0, # of connection points: 2
#     Edge 41, Type (0, 1), BuildingBlock: ZUJKAS_clean_linker_0, # of connection points: 2
#     Edge 42, Type (0, 1), BuildingBlock: ZUJKAS_clean_linker_0, # of connection points: 2
#     Edge 43, Type (0, 1), BuildingBlock: ZUJKAS_clean_linker_0, # of connection points: 2
#     Edge 44, Type (0, 1), BuildingBlock: ZUJKAS_clean_linker_0, # of connection points: 2
#     Edge 45, Type (0, 1), BuildingBlock: ZUJKAS_clean_linker_0, # of connection points: 2
#     Edge 46, Type (0, 1), BuildingBlock: ZUJKAS_clean_linker_0, # of connection points: 2
#     Edge 47, Type (0, 1), BuildingBlock: ZUJKAS_clean_linker_0, # of connection points: 2
#     Edge 48, Type (0, 1), BuildingBlock: ZUJKAS_clean_linker_0, # of connection points: 2
#     Edge 49, Type (0, 1), BuildingBlock: ZUJKAS_clean_linker_0, # of connection points: 2
#     Edge 50, Type (0, 1), BuildingBlock: ZUJKAS_clean_linker_0, # of connection points: 2
#     Edge 51, Type (0, 1), BuildingBlock: ZUJKAS_clean_linker_0, # of connection points: 2
#     Edge 52, Type (0, 1), BuildingBlock: ZUJKAS_clean_linker_0, # of connection points: 2
#     Edge 53, Type (0, 1), BuildingBlock: ZUJKAS_clean_linker_0, # of connection points: 2
#     Edge 54, Type (0, 1), BuildingBlock: ZUJKAS_clean_linker_0, # of connection points: 2
#     Edge 55, Type (0, 1), BuildingBlock: ZUJKAS_clean_linker_0, # of connection points: 2
#     Edge 56, Type (0, 1), BuildingBlock: ZUJKAS_clean_linker_0, # of connection points: 2
#     Edge 57, Type (0, 1), BuildingBlock: ZUJKAS_clean_linker_0, # of connection points: 2
#     Edge 58, Type (0, 1), BuildingBlock: ZUJKAS_clean_linker_0, # of connection points: 2
#     Edge 59, Type (0, 1), BuildingBlock: ZUJKAS_clean_linker_0, # of connection points: 2
#     Edge 60, Type (0, 1), BuildingBlock: ZUJKAS_clean_linker_0, # of connection points: 2
#     Edge 61, Type (0, 1), BuildingBlock: ZUJKAS_clean_linker_0, # of connection points: 2
#     Edge 62, Type (0, 1), BuildingBlock: ZUJKAS_clean_linker_0, # of connection points: 2
#     Edge 63, Type (0, 1), BuildingBlock: ZUJKAS_clean_linker_0, # of connection points: 2
#     Edge 64, Type (0, 1), BuildingBlock: ZUJKAS_clean_linker_0, # of connection points: 2
#     Edge 65, Type (0, 1), BuildingBlock: ZUJKAS_clean_linker_0, # of connection points: 2
#     Edge 66, Type (0, 1), BuildingBlock: ZUJKAS_clean_linker_0, # of connection points: 2
#     Edge 67, Type (0, 1), BuildingBlock: ZUJKAS_clean_linker_0, # of connection points: 2
#     Edge 68, Type (0, 1), BuildingBlock: ZUJKAS_clean_linker_0, # of connection points: 2
#     Edge 69, Type (0, 1), BuildingBlock: ZUJKAS_clean_linker_0, # of connection points: 2
#     Edge 70, Type (0, 1), BuildingBlock: ZUJKAS_clean_linker_0, # of connection points: 2
#     Edge 71, Type (0, 1), BuildingBlock: ZUJKAS_clean_linker_0, # of connection points: 2
#     Edge 72, Type (0, 1), BuildingBlock: ZUJKAS_clean_linker_0, # of connection points: 2
#     Edge 73, Type (0, 1), BuildingBlock: ZUJKAS_clean_linker_0, # of connection points: 2
#     Edge 74, Type (0, 1), BuildingBlock: ZUJKAS_clean_linker_0, # of connection points: 2
#     Edge 75, Type (0, 1), BuildingBlock: ZUJKAS_clean_linker_0, # of connection points: 2
#     Edge 76, Type (0, 1), BuildingBlock: ZUJKAS_clean_linker_0, # of connection points: 2
#     Edge 77, Type (0, 1), BuildingBlock: ZUJKAS_clean_linker_0, # of connection points: 2
#     Edge 78, Type (0, 1), BuildingBlock: ZUJKAS_clean_linker_0, # of connection points: 2
#     Edge 79, Type (0, 1), BuildingBlock: ZUJKAS_clean_linker_0, # of connection points: 2
#     Edge 80, Type (0, 1), BuildingBlock: ZUJKAS_clean_linker_0, # of connection points: 2
#     Edge 81, Type (0, 1), BuildingBlock: ZUJKAS_clean_linker_0, # of connection points: 2
#     Edge 82, Type (0, 1), BuildingBlock: ZUJKAS_clean_linker_0, # of connection points: 2
#     Edge 83, Type (0, 1), BuildingBlock: ZUJKAS_clean_linker_0, # of connection points: 2
#     Edge 84, Type (0, 1), BuildingBlock: ZUJKAS_clean_linker_0, # of connection points: 2
#     Edge 85, Type (0, 1), BuildingBlock: ZUJKAS_clean_linker_0, # of connection points: 2
#     Edge 86, Type (0, 1), BuildingBlock: ZUJKAS_clean_linker_0, # of connection points: 2
#     Edge 87, Type (0, 1), BuildingBlock: ZUJKAS_clean_linker_0, # of connection points: 2
#     Edge 88, Type (0, 1), BuildingBlock: ZUJKAS_clean_linker_0, # of connection points: 2
#     Edge 89, Type (0, 1), BuildingBlock: ZUJKAS_clean_linker_0, # of connection points: 2
#     Edge 90, Type (0, 1), BuildingBlock: ZUJKAS_clean_linker_0, # of connection points: 2
#     Edge 91, Type (0, 1), BuildingBlock: ZUJKAS_clean_linker_0, # of connection points: 2
#     Edge 92, Type (0, 1), BuildingBlock: ZUJKAS_clean_linker_0, # of connection points: 2
#     Edge 93, Type (0, 1), BuildingBlock: ZUJKAS_clean_linker_0, # of connection points: 2
#     Edge 94, Type (0, 1), BuildingBlock: ZUJKAS_clean_linker_0, # of connection points: 2
#     Edge 95, Type (0, 1), BuildingBlock: ZUJKAS_clean_linker_0, # of connection points: 2
#     Edge 96, Type (0, 1), BuildingBlock: ZUJKAS_clean_linker_0, # of connection points: 2
#     Edge 97, Type (0, 1), BuildingBlock: ZUJKAS_clean_linker_0, # of connection points: 2
#     Edge 98, Type (0, 1), BuildingBlock: ZUJKAS_clean_linker_0, # of connection points: 2
#     Edge 99, Type (0, 1), BuildingBlock: ZUJKAS_clean_linker_0, # of connection points: 2
#     Edge 100, Type (0, 1), BuildingBlock: ZUJKAS_clean_linker_0, # of connection points: 2
#     Edge 101, Type (0, 1), BuildingBlock: ZUJKAS_clean_linker_0, # of connection points: 2
#     Edge 102, Type (0, 1), BuildingBlock: ZUJKAS_clean_linker_0, # of connection points: 2
#     Edge 103, Type (0, 1), BuildingBlock: ZUJKAS_clean_linker_0, # of connection points: 2
#     Edge 104, Type (0, 1), BuildingBlock: ZUJKAS_clean_linker_0, # of connection points: 2
#     Edge 105, Type (0, 1), BuildingBlock: ZUJKAS_clean_linker_0, # of connection points: 2
#     Edge 106, Type (0, 1), BuildingBlock: ZUJKAS_clean_linker_0, # of connection points: 2
#     Edge 107, Type (0, 1), BuildingBlock: ZUJKAS_clean_linker_0, # of connection points: 2
# Relax obj value: 0.102
# Max RMSD: 0.340
# Mean RMSD: 0.134
data_MOF--net-ptr--node1-AZAVOO_clean_sbu_0--node2-NAHDIM_clean_linker_0--edge1-ZUJKAS_clean_linker_0
_symmetry_space_group_name_H-M    P1
_symmetry_Int_Tables_number       1
_symmetry_cell_setting            triclinic
loop_
_symmetry_equiv_pos_as_xyz
'x, y, z'
_cell_length_a     115.45521
_cell_length_b     113.00488
_cell_length_c     94.563551
_cell_angle_alpha  91.612593
_cell_angle_beta   91.023089
_cell_angle_gamma 120.33309
loop_
_atom_site_label
_atom_site_type_symbol
_atom_site_fract_x
_atom_site_fract_y
_atom_site_fract_z
_atom_type_partial_charge
Mg0 Mg 0.02082 0.34759 0.98539 0.0
O1 O 0.01021 0.3528 0.00264 0.0
O2 O 0.99284 0.35337 0.99264 0.0
Mg3 Mg 0.99195 0.34793 0.96901 0.0
C4 C 0.00023 0.35469 0.00347 0.0
C5 C 0.03471 0.33367 0.00024 0.0
O6 O 0.0303 0.32639 0.98824 0.0
O7 O 0.00412 0.32503 0.98426 0.0
O8 O 0.98729 0.32615 0.97358 0.0
O9 O 0.03295 0.37012 0.98099 0.0
O10 O 0.01362 0.35536 0.97017 0.0
C11 C 0.99215 0.31926 0.97897 0.0
C12 C 0.02327 0.36781 0.97213 0.0
O13 O 0.03254 0.34352 0.00245 0.0
Mg14 Mg 0.66534 0.65087 0.0271 0.0
O15 O 0.64737 0.6446 0.01163 0.0
O16 O 0.62985 0.64046 0.02469 0.0
Mg17 Mg 0.63659 0.64462 0.04804 0.0
C18 C 0.63501 0.64097 0.01273 0.0
C19 C 0.69222 0.66453 0.01322 0.0
O20 O 0.69522 0.66627 0.02687 0.0
O21 O 0.66787 0.672 0.03082 0.0
O22 O 0.65064 0.66766 0.04443 0.0
O23 O 0.6594 0.62893 0.02908 0.0
O24 O 0.65241 0.63995 0.04295 0.0
C25 C 0.66122 0.67605 0.03811 0.0
C26 C 0.65193 0.62864 0.03928 0.0
O27 O 0.67992 0.65832 0.00916 0.0
Mg28 Mg 0.34036 0.98867 0.99277 0.0
O29 O 0.35568 0.99843 0.01135 0.0
O30 O 0.37477 0.01569 0.00365 0.0
Mg31 Mg 0.3716 0.01681 0.97985 0.0
C32 C 0.3678 0.00815 0.01355 0.0
C33 C 0.31172 0.96967 0.00461 0.0
O34 O 0.30869 0.96617 0.9911 0.0
O35 O 0.33701 0.00686 0.99256 0.0
O36 O 0.35594 0.0233 0.98368 0.0
O37 O 0.34789 0.97426 0.98801 0.0
O38 O 0.35608 0.99477 0.9791 0.0
C39 C 0.34419 0.019 0.98828 0.0
C40 C 0.35682 0.98386 0.98055 0.0
O41 O 0.32379 0.97828 0.00846 0.0
Mg42 Mg 0.99481 0.66513 0.03013 0.0
O43 O 0.00391 0.65791 0.01294 0.0
O44 O 0.01977 0.65509 0.02351 0.0
Mg45 Mg 0.0201 0.65942 0.04741 0.0
C46 C 0.01307 0.65475 0.01244 0.0
C47 C 0.97602 0.66487 0.00516 0.0
O48 O 0.9706 0.65153 0.0059 0.0
O49 O 0.01366 0.68618 0.03204 0.0
O50 O 0.02801 0.68246 0.0446 0.0
O51 O 0.97917 0.64336 0.03382 0.0
O52 O 0.9991 0.65443 0.04486 0.0
C53 C 0.02491 0.69057 0.03866 0.0
C54 C 0.98787 0.64318 0.0425 0.0
O55 O 0.98591 0.67277 0.01346 0.0
Mg56 Mg 0.34236 0.35084 0.99083 0.0
O57 O 0.35998 0.356 0.00636 0.0
O58 O 0.37732 0.35928 0.99345 0.0
Mg59 Mg 0.37115 0.35712 0.96993 0.0
C60 C 0.37211 0.35875 0.0054 0.0
C61 C 0.32044 0.34793 0.01132 0.0
O62 O 0.32255 0.35875 0.00446 0.0
O63 O 0.33938 0.3297 0.98582 0.0
O64 O 0.35624 0.33389 0.97173 0.0
O65 O 0.34858 0.37295 0.98991 0.0
O66 O 0.3559 0.36249 0.97568 0.0
C67 C 0.34553 0.32553 0.97788 0.0
C68 C 0.35632 0.37366 0.97982 0.0
O69 O 0.32739 0.34239 0.00848 0.0
Mg70 Mg 0.67117 0.01542 0.03498 0.0
O71 O 0.65497 0.00441 0.01736 0.0
O72 O 0.63646 0.98802 0.02695 0.0
Mg73 Mg 0.64087 0.98868 0.05076 0.0
C74 C 0.64278 0.99464 0.01626 0.0
C75 C 0.69933 0.03011 0.02267 0.0
O76 O 0.70217 0.03066 0.03628 0.0
O77 O 0.67444 0.99732 0.03623 0.0
O78 O 0.65627 0.9817 0.04697 0.0
O79 O 0.66375 0.02998 0.03874 0.0
O80 O 0.65643 0.01055 0.04967 0.0
C81 C 0.66767 0.98561 0.0416 0.0
C82 C 0.65545 0.0212 0.04736 0.0
O83 O 0.68712 0.02468 0.01849 0.0
Mg84 Mg 0.6789 0.68164 0.33059 0.0
O85 O 0.66722 0.68744 0.34611 0.0
O86 O 0.65401 0.69233 0.33295 0.0
Mg87 Mg 0.65697 0.68956 0.3095 0.0
C88 C 0.65851 0.6912 0.34497 0.0
C89 C 0.68779 0.66328 0.3449 0.0
O90 O 0.68484 0.65814 0.33182 0.0
O91 O 0.66024 0.66076 0.32551 0.0
O92 O 0.64809 0.66627 0.31143 0.0
O93 O 0.69502 0.70366 0.32975 0.0
O94 O 0.6772 0.69357 0.3152 0.0
C95 C 0.64994 0.65734 0.31745 0.0
C96 C 0.68803 0.7046 0.31944 0.0
O97 O 0.68594 0.67315 0.3483 0.0
Mg98 Mg 0.32822 0.98477 0.36602 0.0
O99 O 0.31057 0.97926 0.35033 0.0
O100 O 0.29337 0.97696 0.36282 0.0
Mg101 Mg 0.30006 0.98148 0.38617 0.0
C102 C 0.29847 0.97663 0.35105 0.0
C103 C 0.34019 0.98154 0.33787 0.0
O104 O 0.3289 0.9697 0.33768 0.0
O105 O 0.33248 0.00665 0.36886 0.0
O106 O 0.31521 0.00406 0.38153 0.0
O107 O 0.3207 0.96263 0.36886 0.0
O108 O 0.31489 0.97508 0.38209 0.0
C109 C 0.32617 0.01161 0.37534 0.0
C110 C 0.31354 0.96327 0.3789 0.0
O111 O 0.34263 0.9903 0.3479 0.0
Mg112 Mg 0.01385 0.31841 0.32609 0.0
O113 O 0.03151 0.32974 0.34243 0.0
O114 O 0.05015 0.34173 0.33037 0.0
Mg115 Mg 0.04462 0.33847 0.30676 0.0
C116 C 0.0442 0.33787 0.34203 0.0
C117 C 0.98689 0.30979 0.33913 0.0
O118 O 0.98467 0.31065 0.32562 0.0
O119 O 0.01404 0.33836 0.32207 0.0
O120 O 0.03295 0.34974 0.31019 0.0
O121 O 0.01775 0.30091 0.3245 0.0
O122 O 0.02677 0.31878 0.31093 0.0
C123 C 0.02253 0.3489 0.31564 0.0
C124 C 0.02589 0.30749 0.3146 0.0
O125 O 0.99862 0.31283 0.34334 0.0
Mg126 Mg 0.65565 0.98049 0.36375 0.0
O127 O 0.66751 0.97473 0.34855 0.0
O128 O 0.68222 0.97196 0.36162 0.0
Mg129 Mg 0.6791 0.97497 0.38504 0.0
C130 C 0.67701 0.97207 0.34963 0.0
C131 C 0.63677 0.98708 0.34708 0.0
O132 O 0.63071 0.98281 0.35907 0.0
O133 O 0.67376 0.00182 0.36781 0.0
O134 O 0.68705 0.99807 0.38217 0.0
O135 O 0.64009 0.95859 0.36552 0.0
O136 O 0.65827 0.96948 0.37959 0.0
C137 C 0.68438 0.00622 0.37564 0.0
C138 C 0.64743 0.95822 0.37583 0.0
O139 O 0.64792 0.98759 0.34544 0.0
Mg140 Mg 0.01841 0.69703 0.32913 0.0
O141 O 0.03512 0.70357 0.34632 0.0
O142 O 0.05397 0.70871 0.33532 0.0
Mg143 Mg 0.04965 0.70635 0.31141 0.0
C144 C 0.04761 0.70742 0.34662 0.0
C145 C 0.99153 0.67654 0.34158 0.0
O146 O 0.99048 0.67142 0.32866 0.0
O147 O 0.01772 0.67672 0.32512 0.0
O148 O 0.0363 0.68298 0.31312 0.0
O149 O 0.02316 0.71876 0.32732 0.0
O150 O 0.03239 0.7092 0.31469 0.0
C151 C 0.02545 0.67376 0.31835 0.0
C152 C 0.03159 0.71991 0.31784 0.0
O153 O 0.00225 0.68754 0.34548 0.0
Mg154 Mg 0.32364 0.34639 0.3617 0.0
O155 O 0.30649 0.33338 0.34548 0.0
O156 O 0.2889 0.31829 0.35737 0.0
Mg157 Mg 0.29464 0.32212 0.38109 0.0
C158 C 0.2944 0.32344 0.34577 0.0
C159 C 0.35103 0.36142 0.34876 0.0
O160 O 0.35365 0.36454 0.36238 0.0
O161 O 0.32701 0.32859 0.3652 0.0
O162 O 0.30982 0.31464 0.37828 0.0
O163 O 0.31677 0.36154 0.36393 0.0
O164 O 0.30999 0.34348 0.37705 0.0
C165 C 0.32077 0.31778 0.37223 0.0
C166 C 0.30925 0.35409 0.37386 0.0
O167 O 0.33888 0.35389 0.34443 0.0
Mg168 Mg 0.34906 0.02039 0.66083 0.0
O169 O 0.33669 0.0259 0.67556 0.0
O170 O 0.32262 0.02921 0.66198 0.0
Mg171 Mg 0.32539 0.02508 0.63882 0.0
C172 C 0.32753 0.02899 0.67411 0.0
C173 C 0.36977 0.01881 0.67988 0.0
O174 O 0.37681 0.02631 0.66947 0.0
O175 O 0.33134 0.99861 0.65694 0.0
O176 O 0.31792 0.00232 0.64272 0.0
O177 O 0.36386 0.04268 0.65864 0.0
O178 O 0.34611 0.03054 0.64434 0.0
C179 C 0.32062 0.99419 0.64923 0.0
C180 C 0.35643 0.04224 0.64799 0.0
O181 O 0.35721 0.0143 0.67968 0.0
Mg182 Mg 0.99367 0.3122 0.69432 0.0
O183 O 0.97505 0.30391 0.67928 0.0
O184 O 0.95707 0.29571 0.69271 0.0
Mg185 Mg 0.96401 0.2989 0.71601 0.0
C186 C 0.96236 0.29815 0.6806 0.0
C187 C 0.01903 0.33306 0.67989 0.0
O188 O 0.02135 0.33756 0.69319 0.0
O189 O 0.99215 0.33121 0.69989 0.0
O190 O 0.97441 0.32218 0.7137 0.0
O191 O 0.9913 0.29121 0.69461 0.0
O192 O 0.98224 0.2991 0.70979 0.0
C193 C 0.98395 0.33245 0.70784 0.0
C194 C 0.98367 0.28911 0.70524 0.0
O195 O 0.00773 0.32261 0.67633 0.0
Mg196 Mg 0.67636 0.65117 0.66236 0.0
O197 O 0.69492 0.66433 0.67699 0.0
O198 O 0.71236 0.67635 0.66331 0.0
Mg199 Mg 0.70486 0.67158 0.64017 0.0
C200 C 0.70737 0.6729 0.67548 0.0
C201 C 0.65406 0.63331 0.68234 0.0
O202 O 0.654 0.62422 0.67332 0.0
O203 O 0.67473 0.66997 0.65794 0.0
O204 O 0.692 0.68162 0.64395 0.0
O205 O 0.68166 0.63468 0.66095 0.0
O206 O 0.68844 0.65154 0.64616 0.0
C207 C 0.68178 0.68024 0.65041 0.0
C208 C 0.68874 0.64094 0.65025 0.0
O209 O 0.66259 0.64593 0.68101 0.0
Mg210 Mg 0.32529 0.32111 0.69225 0.0
O211 O 0.33684 0.31579 0.67619 0.0
O212 O 0.3511 0.31186 0.6887 0.0
Mg213 Mg 0.34759 0.31307 0.7124 0.0
C214 C 0.34616 0.31283 0.67688 0.0
C215 C 0.30997 0.32418 0.66567 0.0
O216 O 0.30456 0.31079 0.66449 0.0
O217 O 0.34389 0.34171 0.69776 0.0
O218 O 0.35617 0.33651 0.71202 0.0
O219 O 0.30895 0.29917 0.69263 0.0
O220 O 0.32715 0.30857 0.70669 0.0
C221 C 0.35407 0.34531 0.70605 0.0
C222 C 0.3161 0.29779 0.70244 0.0
O223 O 0.31879 0.33089 0.67546 0.0
Mg224 Mg 0.68364 0.0202 0.65427 0.0
O225 O 0.701 0.02469 0.66978 0.0
O226 O 0.7176 0.02556 0.65723 0.0
Mg227 Mg 0.71103 0.02219 0.63373 0.0
C228 C 0.71274 0.02629 0.66904 0.0
C229 C 0.66309 0.0215 0.67319 0.0
O230 O 0.6656 0.03091 0.66396 0.0
O231 O 0.67834 0.99799 0.651 0.0
O232 O 0.69462 0.99975 0.63721 0.0
O233 O 0.69212 0.04257 0.65171 0.0
O234 O 0.69701 0.02956 0.63818 0.0
C235 C 0.68372 0.99252 0.64364 0.0
C236 C 0.69886 0.04156 0.64141 0.0
O237 O 0.66929 0.01489 0.67241 0.0
Mg238 Mg 0.98778 0.68049 0.69037 0.0
O239 O 0.9703 0.66929 0.67395 0.0
O240 O 0.9517 0.65686 0.68592 0.0
Mg241 Mg 0.95702 0.66058 0.70967 0.0
C242 C 0.95767 0.6609 0.67429 0.0
C243 C 0.01221 0.69833 0.67282 0.0
O244 O 0.0115 0.7073 0.68136 0.0
O245 O 0.98732 0.66053 0.69466 0.0
O246 O 0.96916 0.64956 0.70766 0.0
O247 O 0.98444 0.69832 0.69188 0.0
O248 O 0.97475 0.68043 0.70533 0.0
C249 C 0.97949 0.65037 0.70196 0.0
C250 C 0.97617 0.69199 0.70177 0.0
O251 O 0.00328 0.68573 0.6734 0.0
C252 C 0.18817 0.25858 0.06679 0.0
C253 C 0.19441 0.27123 0.07693 0.0
C254 C 0.18765 0.27074 0.10107 0.0
C255 C 0.19115 0.28445 0.10355 0.0
C256 C 0.18465 0.28802 0.11377 0.0
C257 C 0.17421 0.27758 0.1214 0.0
C258 C 0.17079 0.26373 0.11899 0.0
C259 C 0.17783 0.26055 0.10908 0.0
C260 C 0.18877 0.30291 0.1162 0.0
C261 C 0.15946 0.2522 0.12652 0.0
C262 C 0.10631 0.28093 0.08095 0.0
C263 C 0.10206 0.28741 0.09275 0.0
C264 C 0.12091 0.29399 0.10985 0.0
C265 C 0.11698 0.28067 0.11408 0.0
C266 C 0.12576 0.27817 0.12222 0.0
C267 C 0.13865 0.2892 0.12636 0.0
C268 C 0.14241 0.30269 0.12267 0.0
C269 C 0.13344 0.3049 0.1145 0.0
C270 C 0.12139 0.26368 0.12611 0.0
C271 C 0.15602 0.3147 0.12704 0.0
C272 C 0.1223 0.28414 0.22017 0.0
C273 C 0.11889 0.27221 0.21189 0.0
C274 C 0.1283 0.27161 0.20318 0.0
C275 C 0.14132 0.28325 0.20251 0.0
C276 C 0.1448 0.29525 0.21086 0.0
C277 C 0.13526 0.29548 0.21968 0.0
C278 C 0.12432 0.25851 0.19469 0.0
C279 C 0.15858 0.30784 0.21039 0.0
C280 C 0.22175 0.25753 0.2094 0.0
C281 C 0.21805 0.26822 0.2141 0.0
C282 C 0.19611 0.26622 0.20967 0.0
C283 C 0.18276 0.25642 0.20615 0.0
C284 C 0.17398 0.26018 0.20007 0.0
C285 C 0.17865 0.27417 0.19771 0.0
C286 C 0.19201 0.28423 0.20182 0.0
C287 C 0.20062 0.28015 0.20776 0.0
C288 C 0.15976 0.24918 0.19599 0.0
C289 C 0.19717 0.29926 0.19982 0.0
C290 C 0.16631 0.28103 0.13121 0.0
C291 C 0.15686 0.28387 0.12523 0.0
C292 C 0.14854 0.2865 0.13367 0.0
C293 C 0.14948 0.28612 0.14856 0.0
C294 C 0.14107 0.28842 0.15737 0.0
C295 C 0.14175 0.28752 0.17198 0.0
C296 C 0.15089 0.28433 0.17834 0.0
C297 C 0.15125 0.28279 0.19311 0.0
C298 C 0.16063 0.27986 0.19912 0.0
C299 C 0.16959 0.27818 0.19074 0.0
C300 C 0.16923 0.27944 0.17591 0.0
C301 C 0.17795 0.27761 0.16713 0.0
C302 C 0.17722 0.27841 0.15251 0.0
C303 C 0.16762 0.28091 0.1461 0.0
C304 C 0.15901 0.28324 0.15478 0.0
C305 C 0.15979 0.28245 0.1697 0.0
C306 C 0.09286 0.27913 0.24005 0.0
C307 C 0.09981 0.27571 0.22897 0.0
O308 O 0.19333 0.26706 0.09072 0.0
O309 O 0.20421 0.26179 0.21496 0.0
O310 O 0.11345 0.28509 0.22873 0.0
O311 O 0.11312 0.29675 0.10113 0.0
H312 H 0.18848 0.27642 0.07522 0.0
H313 H 0.17737 0.25191 0.06898 0.0
H314 H 0.19325 0.25252 0.06813 0.0
H315 H 0.18896 0.26169 0.05564 0.0
H316 H 0.19895 0.29234 0.09745 0.0
H317 H 0.17527 0.25 0.10707 0.0
H318 H 0.18093 0.30469 0.1115 0.0
H319 H 0.19846 0.30989 0.11132 0.0
H320 H 0.1897 0.3056 0.12772 0.0
H321 H 0.15661 0.24197 0.12168 0.0
H322 H 0.15046 0.25336 0.12636 0.0
H323 H 0.16258 0.25249 0.13775 0.0
H324 H 0.09467 0.27924 0.09944 0.0
H325 H 0.09749 0.27378 0.07402 0.0
H326 H 0.11062 0.27496 0.08543 0.0
H327 H 0.11398 0.289 0.0744 0.0
H328 H 0.10719 0.27214 0.11089 0.0
H329 H 0.13635 0.31515 0.11136 0.0
H330 H 0.12225 0.26323 0.13778 0.0
H331 H 0.12812 0.26045 0.12132 0.0
H332 H 0.11088 0.25626 0.12247 0.0
H333 H 0.15713 0.32465 0.12406 0.0
H334 H 0.16395 0.31345 0.12192 0.0
H335 H 0.15771 0.31497 0.13867 0.0
H336 H 0.09478 0.27309 0.21823 0.0
H337 H 0.10893 0.2633 0.21225 0.0
H338 H 0.13782 0.30461 0.22613 0.0
H339 H 0.12386 0.26024 0.18325 0.0
H340 H 0.11438 0.24993 0.19757 0.0
H341 H 0.13196 0.25541 0.19631 0.0
H342 H 0.15942 0.31666 0.21678 0.0
H343 H 0.16095 0.31087 0.19927 0.0
H344 H 0.16621 0.30546 0.21449 0.0
H345 H 0.22164 0.27601 0.20583 0.0
H346 H 0.23279 0.26241 0.20843 0.0
H347 H 0.21685 0.25282 0.1989 0.0
H348 H 0.21835 0.24927 0.21712 0.0
H349 H 0.17933 0.24572 0.20788 0.0
H350 H 0.21081 0.28787 0.21098 0.0
H351 H 0.15764 0.2497 0.18459 0.0
H352 H 0.15264 0.25097 0.20213 0.0
H353 H 0.15786 0.23872 0.19797 0.0
H354 H 0.20754 0.30589 0.20432 0.0
H355 H 0.19044 0.30234 0.20491 0.0
H356 H 0.1971 0.30108 0.18835 0.0
H357 H 0.15585 0.28386 0.11379 0.0
H358 H 0.13377 0.29079 0.15304 0.0
H359 H 0.13496 0.28928 0.17823 0.0
H360 H 0.16073 0.27852 0.21043 0.0
H361 H 0.1854 0.27544 0.17144 0.0
H362 H 0.18417 0.2769 0.14628 0.0
H363 H 0.08623 0.26286 0.2537 0.0
H364 H 0.08575 0.28142 0.23404 0.0
H365 H 0.09994 0.29013 0.24363 0.0
C366 C 0.75488 0.92682 0.07122 0.0
C367 C 0.74276 0.92128 0.08067 0.0
C368 C 0.74226 0.91641 0.1056 0.0
C369 C 0.72849 0.90698 0.10643 0.0
C370 C 0.72372 0.89745 0.11713 0.0
C371 C 0.73295 0.89715 0.12697 0.0
C372 C 0.74679 0.90711 0.12652 0.0
C373 C 0.7512 0.91684 0.116 0.0
C374 C 0.70886 0.88731 0.11751 0.0
C375 C 0.75707 0.90702 0.13655 0.0
C376 C 0.72404 0.82578 0.07952 0.0
C377 C 0.72109 0.81547 0.09108 0.0
C378 C 0.71568 0.8267 0.11046 0.0
C379 C 0.72893 0.83698 0.11421 0.0
C380 C 0.7315 0.84801 0.12351 0.0
C381 C 0.72064 0.84889 0.12902 0.0
C382 C 0.7073 0.83834 0.12561 0.0
C383 C 0.70502 0.82729 0.11651 0.0
C384 C 0.74586 0.85894 0.12713 0.0
C385 C 0.69546 0.839 0.13115 0.0
C386 C 0.72244 0.83349 0.22147 0.0
C387 C 0.73475 0.84432 0.21711 0.0
C388 C 0.73523 0.85494 0.20934 0.0
C389 C 0.72318 0.8548 0.2059 0.0
C390 C 0.71082 0.84414 0.21056 0.0
C391 C 0.71063 0.83361 0.21829 0.0
C392 C 0.7486 0.86622 0.20459 0.0
C393 C 0.69782 0.84373 0.20712 0.0
C394 C 0.73859 0.95838 0.21875 0.0
C395 C 0.72864 0.94392 0.22332 0.0
C396 C 0.73292 0.92506 0.21833 0.0
C397 C 0.7437 0.92299 0.21606 0.0
C398 C 0.74185 0.91118 0.20869 0.0
C399 C 0.72881 0.90106 0.20371 0.0
C400 C 0.71776 0.90286 0.20639 0.0
C401 C 0.71992 0.91485 0.21371 0.0
C402 C 0.75384 0.90953 0.20617 0.0
C403 C 0.70369 0.8921 0.20154 0.0
C404 C 0.72853 0.8852 0.13606 0.0
C405 C 0.72606 0.87292 0.1294 0.0
C406 C 0.7232 0.86147 0.13713 0.0
C407 C 0.72304 0.86231 0.15205 0.0
C408 C 0.72103 0.85128 0.16022 0.0
C409 C 0.72116 0.8523 0.17493 0.0
C410 C 0.72313 0.86434 0.18201 0.0
C411 C 0.72355 0.86557 0.19696 0.0
C412 C 0.72517 0.87753 0.20366 0.0
C413 C 0.72673 0.88853 0.19582 0.0
C414 C 0.72681 0.88768 0.18086 0.0
C415 C 0.72885 0.89873 0.17264 0.0
C416 C 0.72929 0.89791 0.15795 0.0
C417 C 0.72765 0.886 0.15092 0.0
C418 C 0.72513 0.87458 0.15896 0.0
C419 C 0.72493 0.8755 0.17395 0.0
C420 C 0.73521 0.81455 0.21844 0.0
C421 C 0.73158 0.81993 0.23173 0.0
O422 O 0.74726 0.92491 0.09468 0.0
O423 O 0.73545 0.93687 0.22527 0.0
O424 O 0.72142 0.82268 0.22854 0.0
O425 O 0.71268 0.81622 0.10091 0.0
H426 H 0.73724 0.90989 0.07902 0.0
H427 H 0.76119 0.92234 0.07411 0.0
H428 H 0.76112 0.93817 0.07253 0.0
H429 H 0.75151 0.92395 0.05993 0.0
H430 H 0.7215 0.90693 0.0986 0.0
H431 H 0.76179 0.9243 0.11533 0.0
H432 H 0.70673 0.8773 0.11272 0.0
H433 H 0.70285 0.89079 0.11148 0.0
H434 H 0.70554 0.88566 0.1286 0.0
H435 H 0.76752 0.91455 0.13382 0.0
H436 H 0.75592 0.89665 0.13646 0.0
H437 H 0.75548 0.90956 0.14749 0.0
H438 H 0.73067 0.81772 0.09648 0.0
H439 H 0.73053 0.82494 0.07149 0.0
H440 H 0.72941 0.83644 0.08413 0.0
H441 H 0.71455 0.82386 0.0742 0.0
H442 H 0.73733 0.83659 0.10985 0.0
H443 H 0.69484 0.81926 0.11365 0.0
H444 H 0.74728 0.86144 0.13871 0.0
H445 H 0.74822 0.86845 0.1217 0.0
H446 H 0.7531 0.85575 0.12383 0.0
H447 H 0.68571 0.83018 0.12715 0.0
H448 H 0.696 0.84866 0.12799 0.0
H449 H 0.69577 0.83912 0.14289 0.0
H450 H 0.74062 0.82945 0.23601 0.0
H451 H 0.74404 0.84455 0.21957 0.0
H452 H 0.70119 0.82528 0.22174 0.0
H453 H 0.74858 0.86612 0.19284 0.0
H454 H 0.75712 0.86514 0.20854 0.0
H455 H 0.75023 0.87636 0.20838 0.0
H456 H 0.68906 0.83488 0.21176 0.0
H457 H 0.69613 0.84308 0.19546 0.0
H458 H 0.69845 0.85337 0.21117 0.0
H459 H 0.72085 0.93899 0.21462 0.0
H460 H 0.7334 0.96427 0.217 0.0
H461 H 0.74311 0.95777 0.20868 0.0
H462 H 0.74679 0.96397 0.22693 0.0
H463 H 0.75365 0.93083 0.21988 0.0
H464 H 0.71143 0.91608 0.21599 0.0
H465 H 0.75447 0.90766 0.19469 0.0
H466 H 0.75262 0.90046 0.21171 0.0
H467 H 0.76342 0.91868 0.21002 0.0
H468 H 0.69611 0.89482 0.20482 0.0
H469 H 0.70111 0.88208 0.20593 0.0
H470 H 0.70313 0.89077 0.18982 0.0
H471 H 0.72664 0.87232 0.11797 0.0
H472 H 0.71949 0.84178 0.15534 0.0
H473 H 0.71966 0.84352 0.18068 0.0
H474 H 0.72548 0.87839 0.21513 0.0
H475 H 0.73026 0.90818 0.17749 0.0
H476 H 0.73098 0.90673 0.15213 0.0
H477 H 0.74312 0.81205 0.22112 0.0
H478 H 0.73913 0.82239 0.21029 0.0
H479 H 0.72624 0.80519 0.2138 0.0
C480 C 0.21651 0.925 0.08239 0.0
C481 C 0.20466 0.92039 0.09136 0.0
C482 C 0.19097 0.90205 0.10716 0.0
C483 C 0.1831 0.90767 0.11149 0.0
C484 C 0.1721 0.90038 0.12009 0.0
C485 C 0.16894 0.88724 0.12446 0.0
C486 C 0.17705 0.88172 0.12044 0.0
C487 C 0.18801 0.88925 0.11188 0.0
C488 C 0.16372 0.9066 0.12432 0.0
C489 C 0.17396 0.86776 0.12497 0.0
C490 C 0.08061 0.83851 0.06998 0.0
C491 C 0.08884 0.83404 0.07883 0.0
C492 C 0.09814 0.84222 0.10269 0.0
C493 C 0.10718 0.83743 0.10379 0.0
C494 C 0.11807 0.84358 0.11364 0.0
C495 C 0.12018 0.85504 0.12223 0.0
C496 C 0.11097 0.85982 0.12112 0.0
C497 C 0.09983 0.85304 0.11164 0.0
C498 C 0.12745 0.83796 0.11466 0.0
C499 C 0.11304 0.87233 0.12957 0.0
C500 C 0.09466 0.84187 0.21177 0.0
C501 C 0.10213 0.83554 0.20846 0.0
C502 C 0.11465 0.84291 0.20222 0.0
C503 C 0.11969 0.85682 0.19913 0.0
C504 C 0.11242 0.86335 0.20299 0.0
C505 C 0.10005 0.8558 0.20944 0.0
C506 C 0.12237 0.83579 0.1987 0.0
C507 C 0.11756 0.87821 0.20002 0.0
C508 C 0.21644 0.93978 0.21513 0.0
C509 C 0.20882 0.93189 0.22798 0.0
C510 C 0.19161 0.90936 0.21747 0.0
C511 C 0.18807 0.89562 0.2155 0.0
C512 C 0.17654 0.88627 0.20742 0.0
C513 C 0.1683 0.89079 0.20122 0.0
C514 C 0.17168 0.90464 0.20332 0.0
C515 C 0.18333 0.9138 0.21135 0.0
C516 C 0.17323 0.87158 0.20536 0.0
C517 C 0.16303 0.90977 0.19697 0.0
C518 C 0.15666 0.87893 0.13248 0.0
C519 C 0.14464 0.8708 0.1247 0.0
C520 C 0.13258 0.86272 0.13139 0.0
C521 C 0.13249 0.86265 0.14636 0.0
C522 C 0.12064 0.85442 0.15349 0.0
C523 C 0.12054 0.85495 0.16821 0.0
C524 C 0.13234 0.86355 0.17638 0.0
C525 C 0.13228 0.86442 0.19134 0.0
C526 C 0.14418 0.87314 0.19911 0.0
C527 C 0.15623 0.88113 0.19236 0.0
C528 C 0.15652 0.88033 0.17742 0.0
C529 C 0.16849 0.88814 0.17029 0.0
C530 C 0.1686 0.88761 0.15558 0.0
C531 C 0.15674 0.87926 0.14743 0.0
C532 C 0.14459 0.87112 0.15439 0.0
C533 C 0.1445 0.8716 0.16941 0.0
C534 C 0.05924 0.81965 0.21071 0.0
C535 C 0.07291 0.82114 0.21421 0.0
O536 O 0.20135 0.90852 0.09836 0.0
O537 O 0.20307 0.91788 0.22524 0.0
O538 O 0.08222 0.83488 0.21711 0.0
O539 O 0.08776 0.83664 0.09302 0.0
H540 H 0.19581 0.92012 0.08606 0.0
H541 H 0.2125 0.92406 0.07122 0.0
H542 H 0.21817 0.91604 0.08105 0.0
H543 H 0.23085 0.94382 0.09209 0.0
H544 H 0.18541 0.91768 0.10813 0.0
H545 H 0.1942 0.88504 0.10858 0.0
H546 H 0.15336 0.90017 0.11972 0.0
H547 H 0.1679 0.91722 0.12069 0.0
H548 H 0.16302 0.90678 0.13601 0.0
H549 H 0.18144 0.86506 0.12127 0.0
H550 H 0.16385 0.85985 0.1207 0.0
H551 H 0.17374 0.86747 0.1367 0.0
H552 H 0.09949 0.84034 0.07575 0.0
H553 H 0.08162 0.83701 0.0585 0.0
H554 H 0.08431 0.84958 0.07226 0.0
H555 H 0.06983 0.83253 0.07254 0.0
H556 H 0.10567 0.82885 0.09699 0.0
H557 H 0.09271 0.85658 0.11071 0.0
H558 H 0.13685 0.84484 0.10927 0.0
H559 H 0.12296 0.82752 0.10956 0.0
H560 H 0.13014 0.83756 0.12589 0.0
H561 H 0.10669 0.87631 0.12532 0.0
H562 H 0.12371 0.88067 0.12963 0.0
H563 H 0.11033 0.86962 0.14069 0.0
H564 H 0.07561 0.8173 0.20456 0.0
H565 H 0.09821 0.82487 0.21074 0.0
H566 H 0.09429 0.86063 0.21225 0.0
H567 H 0.12272 0.83476 0.18703 0.0
H568 H 0.11776 0.8254 0.20305 0.0
H569 H 0.13288 0.84202 0.20294 0.0
H570 H 0.11039 0.88158 0.20306 0.0
H571 H 0.11951 0.87987 0.18858 0.0
H572 H 0.12723 0.88477 0.20599 0.0
H573 H 0.20086 0.93437 0.23038 0.0
H574 H 0.22115 0.95101 0.21738 0.0
H575 H 0.20948 0.93696 0.20577 0.0
H576 H 0.22439 0.93738 0.21248 0.0
H577 H 0.19447 0.89226 0.22026 0.0
H578 H 0.18586 0.92438 0.21269 0.0
H579 H 0.17255 0.86887 0.19387 0.0
H580 H 0.16328 0.86463 0.20974 0.0
H581 H 0.18084 0.86975 0.21058 0.0
H582 H 0.16653 0.9206 0.20033 0.0
H583 H 0.15248 0.90325 0.2001 0.0
H584 H 0.16309 0.90903 0.18525 0.0
H585 H 0.14465 0.87091 0.11323 0.0
H586 H 0.11128 0.84758 0.14776 0.0
H587 H 0.11106 0.84856 0.17309 0.0
H588 H 0.144 0.87392 0.21056 0.0
H589 H 0.17792 0.89482 0.17601 0.0
H590 H 0.17808 0.89392 0.15065 0.0
H591 H 0.05158 0.80869 0.2084 0.0
H592 H 0.05992 0.8255 0.2012 0.0
H593 H 0.05593 0.8237 0.21964 0.0
C594 C 0.27666 0.09589 0.94242 0.0
C595 C 0.28228 0.09011 0.93137 0.0
C596 C 0.28872 0.10728 0.91308 0.0
C597 C 0.27567 0.10289 0.90771 0.0
C598 C 0.27336 0.11065 0.89792 0.0
C599 C 0.28428 0.12306 0.89347 0.0
C600 C 0.29746 0.12729 0.89852 0.0
C601 C 0.29951 0.11926 0.90818 0.0
C602 C 0.25918 0.10577 0.89261 0.0
C603 C 0.30932 0.1405 0.89402 0.0
C604 C 0.25645 0.17744 0.94663 0.0
C605 C 0.2679 0.1825 0.93633 0.0
C606 C 0.26589 0.17372 0.91221 0.0
C607 C 0.27932 0.1778 0.90982 0.0
C608 C 0.28256 0.17058 0.89987 0.0
C609 C 0.27213 0.15886 0.89242 0.0
C610 C 0.25857 0.15503 0.89449 0.0
C611 C 0.25565 0.16275 0.90415 0.0
C612 C 0.29714 0.17518 0.89775 0.0
C613 C 0.24714 0.14239 0.88708 0.0
C614 C 0.25927 0.16751 0.79879 0.0
C615 C 0.27246 0.17469 0.80449 0.0
C616 C 0.27761 0.16796 0.81248 0.0
C617 C 0.26921 0.15387 0.81515 0.0
C618 C 0.25593 0.14663 0.80925 0.0
C619 C 0.25124 0.15351 0.80091 0.0
C620 C 0.292 0.17587 0.818 0.0
C621 C 0.24664 0.13162 0.81182 0.0
C622 C 0.29041 0.07498 0.80839 0.0
C623 C 0.2869 0.07909 0.79434 0.0
C624 C 0.28979 0.10165 0.80139 0.0
C625 C 0.29927 0.11567 0.80249 0.0
C626 C 0.29673 0.12491 0.81013 0.0
C627 C 0.28422 0.12002 0.81652 0.0
C628 C 0.27439 0.1059 0.81508 0.0
C629 C 0.27735 0.09683 0.80773 0.0
C630 C 0.30747 0.13987 0.81144 0.0
C631 C 0.26073 0.10037 0.82129 0.0
C632 C 0.28172 0.13217 0.88457 0.0
C633 C 0.2785 0.14114 0.8915 0.0
C634 C 0.27539 0.14969 0.88398 0.0
C635 C 0.27532 0.14921 0.86901 0.0
C636 C 0.27194 0.15742 0.86105 0.0
C637 C 0.27142 0.15648 0.84631 0.0
C638 C 0.27474 0.14765 0.83896 0.0
C639 C 0.27422 0.14659 0.82398 0.0
C640 C 0.27764 0.13774 0.81706 0.0
C641 C 0.28138 0.12968 0.82465 0.0
C642 C 0.28187 0.13053 0.83963 0.0
C643 C 0.28554 0.12254 0.84763 0.0
C644 C 0.28547 0.12302 0.86234 0.0
C645 C 0.282 0.13174 0.86964 0.0
C646 C 0.27866 0.1402 0.86182 0.0
C647 C 0.2785 0.13952 0.84679 0.0
C648 C 0.24171 0.18504 0.7936 0.0
C649 C 0.25563 0.1865 0.79407 0.0
O650 O 0.29139 0.10049 0.92311 0.0
O651 O 0.29311 0.09328 0.7941 0.0
O652 O 0.25408 0.1737 0.79095 0.0
O653 O 0.26258 0.17989 0.92257 0.0
H654 H 0.2739 0.08209 0.92452 0.0
H655 H 0.27108 0.10028 0.93717 0.0
H656 H 0.28493 0.10411 0.94921 0.0
H657 H 0.2696 0.08762 0.94922 0.0
H658 H 0.2672 0.09355 0.9112 0.0
H659 H 0.30955 0.12252 0.91228 0.0
H660 H 0.256 0.11298 0.89661 0.0
H661 H 0.25194 0.09532 0.89607 0.0
H662 H 0.25875 0.10569 0.88086 0.0
H663 H 0.31899 0.14218 0.89861 0.0
H664 H 0.30809 0.14928 0.89738 0.0
H665 H 0.30977 0.1404 0.8823 0.0
H666 H 0.273 0.17651 0.93827 0.0
H667 H 0.26049 0.17939 0.95774 0.0
H668 H 0.24957 0.16622 0.94481 0.0
H669 H 0.25058 0.18267 0.9451 0.0
H670 H 0.28723 0.1865 0.91589 0.0
H671 H 0.24532 0.15978 0.90605 0.0
H672 H 0.29901 0.17477 0.88632 0.0
H673 H 0.29968 0.16814 0.90314 0.0
H674 H 0.30393 0.18577 0.90218 0.0
H675 H 0.23719 0.14019 0.89078 0.0
H676 H 0.24824 0.13333 0.88887 0.0
H677 H 0.24736 0.1438 0.8755 0.0
H678 H 0.25997 0.19016 0.80502 0.0
H679 H 0.27878 0.18548 0.80248 0.0
H680 H 0.24113 0.14806 0.79628 0.0
H681 H 0.29226 0.17741 0.82967 0.0
H682 H 0.29771 0.18609 0.81332 0.0
H683 H 0.29712 0.16998 0.81568 0.0
H684 H 0.23615 0.12799 0.80806 0.0
H685 H 0.24666 0.12973 0.82328 0.0
H686 H 0.25023 0.12542 0.80614 0.0
H687 H 0.27583 0.07443 0.7931 0.0
H688 H 0.28541 0.06363 0.80878 0.0
H689 H 0.28694 0.07874 0.81741 0.0
H690 H 0.30145 0.07945 0.8097 0.0
H691 H 0.30881 0.11932 0.79753 0.0
H692 H 0.26982 0.08606 0.80693 0.0
H693 H 0.30931 0.1435 0.82273 0.0
H694 H 0.304 0.14604 0.80574 0.0
H695 H 0.31709 0.14181 0.80699 0.0
H696 H 0.25357 0.08967 0.81744 0.0
H697 H 0.25644 0.10692 0.81863 0.0
H698 H 0.26173 0.10052 0.833 0.0
H699 H 0.27832 0.14138 0.90297 0.0
H700 H 0.26945 0.16451 0.86614 0.0
H701 H 0.26844 0.16282 0.84076 0.0
H702 H 0.27709 0.13687 0.80558 0.0
H703 H 0.28838 0.1157 0.84259 0.0
H704 H 0.28819 0.1165 0.86795 0.0
H705 H 0.237 0.18171 0.78279 0.0
H706 H 0.24238 0.19492 0.79673 0.0
H707 H 0.23516 0.17725 0.80112 0.0
C708 C 0.80303 0.05277 0.91644 0.0
C709 C 0.80443 0.06557 0.92413 0.0
C710 C 0.81399 0.08458 0.90779 0.0
C711 C 0.81142 0.09387 0.901 0.0
C712 C 0.82149 0.10484 0.89383 0.0
C713 C 0.83437 0.1063 0.89314 0.0
C714 C 0.83706 0.09689 0.89993 0.0
C715 C 0.82687 0.08617 0.90727 0.0
C716 C 0.81831 0.11481 0.88694 0.0
C717 C 0.85068 0.09811 0.89932 0.0
C718 C 0.92082 0.20092 0.93601 0.0
C719 C 0.91231 0.18698 0.92921 0.0
C720 C 0.893 0.17475 0.91255 0.0
C721 C 0.89501 0.16365 0.90963 0.0
C722 C 0.88601 0.15258 0.9006 0.0
C723 C 0.8747 0.1525 0.89448 0.0
C724 C 0.87268 0.16368 0.89734 0.0
C725 C 0.88193 0.1747 0.90627 0.0
C726 C 0.8885 0.14086 0.89768 0.0
C727 C 0.86066 0.16387 0.89111 0.0
C728 C 0.89517 0.16945 0.80094 0.0
C729 C 0.89837 0.16044 0.80758 0.0
C730 C 0.88896 0.14992 0.81577 0.0
C731 C 0.8762 0.14856 0.81756 0.0
C732 C 0.87304 0.15774 0.81104 0.0
C733 C 0.88255 0.16801 0.80273 0.0
C734 C 0.89258 0.14017 0.8224 0.0
C735 C 0.85957 0.15665 0.8128 0.0
C736 C 0.79015 0.04442 0.80309 0.0
C737 C 0.79416 0.05847 0.79742 0.0
C738 C 0.81708 0.07763 0.80205 0.0
C739 C 0.82987 0.07974 0.8052 0.0
C740 C 0.83962 0.09171 0.81263 0.0
C741 C 0.83652 0.1019 0.81672 0.0
C742 C 0.82381 0.10013 0.81292 0.0
C743 C 0.8142 0.088 0.8056 0.0
C744 C 0.85313 0.09334 0.81635 0.0
C745 C 0.82034 0.11101 0.81673 0.0
C746 C 0.84495 0.11751 0.88508 0.0
C747 C 0.85457 0.12938 0.8926 0.0
C748 C 0.86466 0.14043 0.88565 0.0
C749 C 0.86511 0.13977 0.87071 0.0
C750 C 0.87497 0.15077 0.86333 0.0
C751 C 0.87524 0.15002 0.84862 0.0
C752 C 0.86576 0.13817 0.84075 0.0
C753 C 0.86599 0.13724 0.82581 0.0
C754 C 0.85634 0.12535 0.81832 0.0
C755 C 0.84644 0.11422 0.82534 0.0
C756 C 0.84611 0.11489 0.84027 0.0
C757 C 0.83641 0.10379 0.84767 0.0
C758 C 0.83606 0.10459 0.86234 0.0
C759 C 0.84539 0.11653 0.87019 0.0
C760 C 0.85542 0.12775 0.86297 0.0
C761 C 0.85577 0.12694 0.84799 0.0
C762 C 0.92335 0.19356 0.7795 0.0
C763 C 0.91713 0.18337 0.79063 0.0
O764 O 0.80371 0.0742 0.91448 0.0
O765 O 0.80788 0.06556 0.79543 0.0
O766 O 0.90384 0.17954 0.79263 0.0
O767 O 0.90143 0.18562 0.92131 0.0
H768 H 0.81426 0.07097 0.93013 0.0
H769 H 0.81144 0.05566 0.90921 0.0
H770 H 0.79347 0.04725 0.91004 0.0
H771 H 0.80329 0.04571 0.92423 0.0
H772 H 0.80147 0.09256 0.90144 0.0
H773 H 0.82901 0.079 0.91236 0.0
H774 H 0.82609 0.12552 0.89011 0.0
H775 H 0.80832 0.11315 0.88979 0.0
H776 H 0.81842 0.11362 0.87526 0.0
H777 H 0.85085 0.08935 0.90414 0.0
H778 H 0.85826 0.10774 0.90505 0.0
H779 H 0.85369 0.09869 0.88816 0.0
H780 H 0.90955 0.17828 0.93629 0.0
H781 H 0.91984 0.19925 0.94771 0.0
H782 H 0.91471 0.20616 0.9357 0.0
H783 H 0.93916 0.20853 0.92602 0.0
H784 H 0.90356 0.16355 0.91437 0.0
H785 H 0.88047 0.1833 0.90856 0.0
H786 H 0.88836 0.13892 0.88609 0.0
H787 H 0.88034 0.13138 0.90212 0.0
H788 H 0.89826 0.14291 0.90239 0.0
H789 H 0.86043 0.17323 0.89452 0.0
H790 H 0.85128 0.15471 0.89432 0.0
H791 H 0.86078 0.16335 0.87937 0.0
H792 H 0.92316 0.18591 0.80077 0.0
H793 H 0.90812 0.16144 0.80627 0.0
H794 H 0.88018 0.17502 0.79757 0.0
H795 H 0.89258 0.14122 0.83411 0.0
H796 H 0.90262 0.1421 0.81934 0.0
H797 H 0.88494 0.12941 0.8192 0.0
H798 H 0.8591 0.1653 0.80809 0.0
H799 H 0.85739 0.15644 0.82422 0.0
H800 H 0.85158 0.14689 0.80763 0.0
H801 H 0.79141 0.06384 0.80556 0.0
H802 H 0.77919 0.03853 0.80484 0.0
H803 H 0.79558 0.04576 0.81336 0.0
H804 H 0.79272 0.03844 0.79555 0.0
H805 H 0.83207 0.07178 0.80216 0.0
H806 H 0.80452 0.08669 0.80259 0.0
H807 H 0.85501 0.09482 0.828 0.0
H808 H 0.86115 0.10264 0.81149 0.0
H809 H 0.85386 0.08433 0.81266 0.0
H810 H 0.81043 0.10856 0.8121 0.0
H811 H 0.82817 0.12109 0.81299 0.0
H812 H 0.82015 0.11205 0.82842 0.0
H813 H 0.8542 0.13002 0.90404 0.0
H814 H 0.88255 0.16012 0.86885 0.0
H815 H 0.883 0.15885 0.84349 0.0
H816 H 0.85656 0.12474 0.80686 0.0
H817 H 0.82895 0.09435 0.84221 0.0
H818 H 0.82836 0.09572 0.86745 0.0
H819 H 0.92762 0.18306 0.76377 0.0
H820 H 0.93139 0.20316 0.78527 0.0
H821 H 0.91649 0.19777 0.77751 0.0
C822 C 0.8189 0.71959 0.94067 0.0
C823 C 0.80883 0.71838 0.92907 0.0
C824 C 0.81958 0.7146 0.90863 0.0
C825 C 0.82961 0.72837 0.9072 0.0
C826 C 0.8406 0.73177 0.89869 0.0
C827 C 0.84167 0.72121 0.89157 0.0
C828 C 0.83143 0.70737 0.89268 0.0
C829 C 0.8204 0.70427 0.90106 0.0
C830 C 0.85124 0.74666 0.89754 0.0
C831 C 0.83231 0.69585 0.88531 0.0
C832 C 0.91353 0.73949 0.95011 0.0
C833 C 0.91166 0.72933 0.93799 0.0
C834 C 0.90791 0.73514 0.91468 0.0
C835 C 0.89889 0.72229 0.90829 0.0
C836 C 0.88938 0.72091 0.89795 0.0
C837 C 0.8888 0.73262 0.89411 0.0
C838 C 0.89828 0.7457 0.90016 0.0
C839 C 0.90791 0.74681 0.91024 0.0
C840 C 0.87962 0.70685 0.89152 0.0
C841 C 0.89785 0.75839 0.8965 0.0
C842 C 0.91983 0.75936 0.80749 0.0
C843 C 0.91261 0.74517 0.80938 0.0
C844 C 0.89976 0.73891 0.815 0.0
C845 C 0.89423 0.74711 0.81916 0.0
C846 C 0.90135 0.76135 0.81683 0.0
C847 C 0.91398 0.76724 0.81079 0.0
C848 C 0.89219 0.7236 0.81667 0.0
C849 C 0.89574 0.77042 0.821 0.0
C850 C 0.79512 0.72258 0.8085 0.0
C851 C 0.80208 0.72629 0.7943 0.0
C852 C 0.82199 0.72444 0.80018 0.0
C853 C 0.82667 0.71521 0.79996 0.0
C854 C 0.83829 0.71802 0.80777 0.0
C855 C 0.84557 0.73056 0.81577 0.0
C856 C 0.84123 0.74024 0.81556 0.0
C857 C 0.8294 0.73703 0.80789 0.0
C858 C 0.84264 0.70747 0.80772 0.0
C859 C 0.84899 0.7539 0.82362 0.0
C860 C 0.8539 0.72469 0.88366 0.0
C861 C 0.86521 0.72672 0.89142 0.0
C862 C 0.87741 0.73092 0.88498 0.0
C863 C 0.87847 0.73335 0.87034 0.0
C864 C 0.89068 0.73802 0.86358 0.0
C865 C 0.89167 0.74072 0.84924 0.0
C866 C 0.88038 0.73837 0.84099 0.0
C867 C 0.88125 0.74096 0.82637 0.0
C868 C 0.86976 0.73826 0.81846 0.0
C869 C 0.85739 0.73327 0.8248 0.0
C870 C 0.85638 0.73094 0.83946 0.0
C871 C 0.84415 0.72622 0.84625 0.0
C872 C 0.84334 0.7243 0.86074 0.0
C873 C 0.85463 0.72662 0.86894 0.0
C874 C 0.86699 0.73109 0.86228 0.0
C875 C 0.86791 0.73343 0.84756 0.0
C876 C 0.95574 0.77514 0.8075 0.0
C877 C 0.94204 0.76212 0.80511 0.0
O878 O 0.80915 0.71085 0.91738 0.0
O879 O 0.8103 0.72069 0.7929 0.0
O880 O 0.93244 0.7658 0.80255 0.0
O881 O 0.91622 0.73634 0.92563 0.0
H882 H 0.81137 0.72879 0.92591 0.0
H883 H 0.82929 0.72513 0.93685 0.0
H884 H 0.81658 0.70924 0.94382 0.0
H885 H 0.81854 0.72544 0.95014 0.0
H886 H 0.82903 0.73654 0.91274 0.0
H887 H 0.81258 0.69369 0.90214 0.0
H888 H 0.86072 0.74857 0.90283 0.0
H889 H 0.84828 0.75372 0.90253 0.0
H890 H 0.85329 0.74913 0.88625 0.0
H891 H 0.82367 0.6856 0.88751 0.0
H892 H 0.84174 0.69623 0.88877 0.0
H893 H 0.83265 0.69713 0.8737 0.0
H894 H 0.90065 0.72185 0.93696 0.0
H895 H 0.91019 0.73409 0.96018 0.0
H896 H 0.90739 0.74428 0.94777 0.0
H897 H 0.92421 0.74777 0.95147 0.0
H898 H 0.89915 0.71333 0.91164 0.0
H899 H 0.91501 0.7567 0.91524 0.0
H900 H 0.87887 0.70726 0.87983 0.0
H901 H 0.86949 0.70332 0.89564 0.0
H902 H 0.88259 0.69918 0.89405 0.0
H903 H 0.90567 0.76772 0.90249 0.0
H904 H 0.88784 0.75697 0.89879 0.0
H905 H 0.89935 0.76007 0.88501 0.0
H906 H 0.93988 0.75643 0.81507 0.0
H907 H 0.91695 0.73895 0.80642 0.0
H908 H 0.91958 0.77816 0.80909 0.0
H909 H 0.89199 0.72143 0.82806 0.0
H910 H 0.89689 0.71846 0.81096 0.0
H911 H 0.88163 0.71906 0.81268 0.0
H912 H 0.90301 0.78145 0.81954 0.0
H913 H 0.89292 0.76905 0.83225 0.0
H914 H 0.88651 0.7674 0.81447 0.0
H915 H 0.80816 0.73764 0.79371 0.0
H916 H 0.78843 0.72694 0.80962 0.0
H917 H 0.80266 0.72683 0.81743 0.0
H918 H 0.78905 0.71125 0.80926 0.0
H919 H 0.82096 0.70557 0.79389 0.0
H920 H 0.82605 0.7444 0.80802 0.0
H921 H 0.8434 0.7047 0.81874 0.0
H922 H 0.85275 0.71187 0.80324 0.0
H923 H 0.83557 0.69798 0.80141 0.0
H924 H 0.84529 0.76096 0.82096 0.0
H925 H 0.85982 0.7589 0.82133 0.0
H926 H 0.84805 0.75226 0.83516 0.0
H927 H 0.86454 0.72513 0.90272 0.0
H928 H 0.89965 0.73984 0.86936 0.0
H929 H 0.90141 0.74457 0.8447 0.0
H930 H 0.87048 0.74021 0.80725 0.0
H931 H 0.83508 0.7241 0.84047 0.0
H932 H 0.83372 0.72085 0.86542 0.0
H933 H 0.9636 0.77247 0.80978 0.0
H934 H 0.95546 0.78132 0.8167 0.0
H935 H 0.95848 0.7815 0.79803 0.0
C936 C 0.87413 0.59817 0.43377 0.0
C937 C 0.87482 0.61031 0.42614 0.0
C938 C 0.86443 0.61961 0.44218 0.0
C939 C 0.86702 0.63104 0.45069 0.0
C940 C 0.85675 0.63146 0.45798 0.0
C941 C 0.84358 0.61995 0.45697 0.0
C942 C 0.8408 0.60841 0.44818 0.0
C943 C 0.85123 0.6084 0.44076 0.0
C944 C 0.86004 0.64411 0.46695 0.0
C945 C 0.82687 0.59597 0.44686 0.0
C946 C 0.7714 0.61592 0.41219 0.0
C947 C 0.76567 0.6199 0.4248 0.0
C948 C 0.78441 0.62747 0.4423 0.0
C949 C 0.78215 0.61432 0.44511 0.0
C950 C 0.79144 0.61269 0.45335 0.0
C951 C 0.8032 0.62442 0.459 0.0
C952 C 0.80532 0.63765 0.45656 0.0
C953 C 0.79586 0.63899 0.44828 0.0
C954 C 0.78881 0.59841 0.45585 0.0
C955 C 0.8177 0.65035 0.46253 0.0
C956 C 0.78238 0.61619 0.55208 0.0
C957 C 0.77892 0.60405 0.54418 0.0
C958 C 0.78832 0.60321 0.53563 0.0
C959 C 0.80136 0.61477 0.53484 0.0
C960 C 0.80486 0.62699 0.54278 0.0
C961 C 0.79532 0.62749 0.55137 0.0
C962 C 0.78433 0.58995 0.52746 0.0
C963 C 0.81866 0.63951 0.54215 0.0
C964 C 0.88211 0.5886 0.542 0.0
C965 C 0.87844 0.59952 0.54571 0.0
C966 C 0.85644 0.59759 0.54273 0.0
C967 C 0.84302 0.58785 0.5395 0.0
C968 C 0.83418 0.59168 0.53373 0.0
C969 C 0.83886 0.60569 0.53149 0.0
C970 C 0.85225 0.61572 0.53555 0.0
C971 C 0.86095 0.61155 0.54104 0.0
C972 C 0.81994 0.58072 0.52968 0.0
C973 C 0.85743 0.63079 0.53382 0.0
C974 C 0.83291 0.61977 0.46567 0.0
C975 C 0.82357 0.62248 0.45918 0.0
C976 C 0.81348 0.62275 0.46691 0.0
C977 C 0.81294 0.62075 0.48164 0.0
C978 C 0.80332 0.62156 0.48987 0.0
C979 C 0.80287 0.61953 0.50436 0.0
C980 C 0.81187 0.61637 0.51112 0.0
C981 C 0.81137 0.61406 0.52579 0.0
C982 C 0.8204 0.61083 0.53214 0.0
C983 C 0.82994 0.60974 0.52422 0.0
C984 C 0.83065 0.61207 0.50956 0.0
C985 C 0.84007 0.61097 0.50125 0.0
C986 C 0.84083 0.61348 0.4869 0.0
C987 C 0.83209 0.61704 0.48023 0.0
C988 C 0.82224 0.61779 0.48829 0.0
C989 C 0.8216 0.61544 0.50301 0.0
C990 C 0.75344 0.61161 0.57261 0.0
C991 C 0.76008 0.60784 0.56148 0.0
O992 O 0.87502 0.61985 0.43582 0.0
O993 O 0.8647 0.59312 0.5474 0.0
O994 O 0.77361 0.61741 0.56052 0.0
O995 O 0.776 0.62954 0.43378 0.0
H996 H 0.86591 0.6064 0.41875 0.0
H997 H 0.86465 0.59261 0.43946 0.0
H998 H 0.88263 0.60174 0.44162 0.0
H999 H 0.87448 0.59082 0.42598 0.0
H1000 H 0.8772 0.63968 0.45166 0.0
H1001 H 0.84898 0.5995 0.43411 0.0
H1002 H 0.8525 0.64725 0.46486 0.0
H1003 H 0.87019 0.65285 0.46495 0.0
H1004 H 0.85969 0.64178 0.47831 0.0
H1005 H 0.82654 0.58742 0.44042 0.0
H1006 H 0.81991 0.59881 0.44182 0.0
H1007 H 0.82314 0.59229 0.45752 0.0
H1008 H 0.7591 0.61061 0.43073 0.0
H1009 H 0.76313 0.60841 0.40488 0.0
H1010 H 0.77716 0.61107 0.41581 0.0
H1011 H 0.7782 0.62513 0.40629 0.0
H1012 H 0.77327 0.60525 0.44081 0.0
H1013 H 0.79749 0.64909 0.44618 0.0
H1014 H 0.78874 0.59685 0.46739 0.0
H1015 H 0.79701 0.59718 0.45144 0.0
H1016 H 0.77909 0.59031 0.45092 0.0
H1017 H 0.81764 0.65989 0.46014 0.0
H1018 H 0.82678 0.6509 0.45805 0.0
H1019 H 0.81847 0.64979 0.47419 0.0
H1020 H 0.75461 0.60458 0.55096 0.0
H1021 H 0.76896 0.59518 0.54469 0.0
H1022 H 0.7979 0.63679 0.55752 0.0
H1023 H 0.78469 0.59166 0.51593 0.0
H1024 H 0.77407 0.58164 0.52984 0.0
H1025 H 0.79157 0.58651 0.52998 0.0
H1026 H 0.8196 0.64844 0.54842 0.0
H1027 H 0.82097 0.64239 0.53098 0.0
H1028 H 0.82629 0.63714 0.54628 0.0
H1029 H 0.88134 0.6064 0.5366 0.0
H1030 H 0.89306 0.59346 0.54036 0.0
H1031 H 0.87664 0.58285 0.53206 0.0
H1032 H 0.87933 0.58121 0.55059 0.0
H1033 H 0.8396 0.57713 0.54107 0.0
H1034 H 0.87123 0.6192 0.544 0.0
H1035 H 0.8177 0.58139 0.51836 0.0
H1036 H 0.81286 0.58239 0.53605 0.0
H1037 H 0.81807 0.57022 0.53142 0.0
H1038 H 0.86741 0.63736 0.53922 0.0
H1039 H 0.85024 0.63365 0.53813 0.0
H1040 H 0.85834 0.63295 0.52239 0.0
H1041 H 0.82407 0.62425 0.44793 0.0
H1042 H 0.7961 0.62388 0.48521 0.0
H1043 H 0.79531 0.62039 0.51017 0.0
H1044 H 0.81989 0.60899 0.54338 0.0
H1045 H 0.84703 0.60821 0.50576 0.0
H1046 H 0.84833 0.61252 0.48109 0.0
H1047 H 0.74782 0.59618 0.58717 0.0
H1048 H 0.74592 0.61335 0.56669 0.0
H1049 H 0.76044 0.6228 0.57553 0.0
C1050 C 0.41066 0.26272 0.39786 0.0
C1051 C 0.399 0.25602 0.40787 0.0
C1052 C 0.39978 0.25021 0.43229 0.0
C1053 C 0.38618 0.24038 0.43356 0.0
C1054 C 0.38212 0.23063 0.44404 0.0
C1055 C 0.39193 0.23052 0.45317 0.0
C1056 C 0.40563 0.24073 0.45213 0.0
C1057 C 0.40931 0.25066 0.44191 0.0
C1058 C 0.3674 0.22021 0.44505 0.0
C1059 C 0.41651 0.24081 0.46134 0.0
C1060 C 0.36919 0.13156 0.41404 0.0
C1061 C 0.37496 0.1457 0.41996 0.0
C1062 C 0.37329 0.15808 0.44053 0.0
C1063 C 0.38642 0.16938 0.44085 0.0
C1064 C 0.38984 0.18135 0.449 0.0
C1065 C 0.3798 0.18224 0.45657 0.0
C1066 C 0.36651 0.17087 0.45614 0.0
C1067 C 0.36355 0.15881 0.44844 0.0
C1068 C 0.4042 0.19306 0.44942 0.0
C1069 C 0.35533 0.17149 0.46353 0.0
C1070 C 0.38535 0.16979 0.549 0.0
C1071 C 0.39751 0.17979 0.54345 0.0
C1072 C 0.39811 0.19047 0.53568 0.0
C1073 C 0.38632 0.19112 0.53329 0.0
C1074 C 0.37416 0.18131 0.53918 0.0
C1075 C 0.37387 0.17082 0.54703 0.0
C1076 C 0.41131 0.20092 0.52977 0.0
C1077 C 0.36142 0.18175 0.53687 0.0
C1078 C 0.40155 0.2946 0.54239 0.0
C1079 C 0.39208 0.28067 0.54845 0.0
C1080 C 0.39636 0.26174 0.54391 0.0
C1081 C 0.40712 0.25976 0.54118 0.0
C1082 C 0.4051 0.24771 0.53417 0.0
C1083 C 0.39191 0.23729 0.53002 0.0
C1084 C 0.3809 0.23902 0.5332 0.0
C1085 C 0.38323 0.25122 0.54015 0.0
C1086 C 0.41705 0.24615 0.53111 0.0
C1087 C 0.36669 0.22793 0.52926 0.0
C1088 C 0.38812 0.21889 0.46259 0.0
C1089 C 0.38528 0.20636 0.45621 0.0
C1090 C 0.38304 0.19527 0.46427 0.0
C1091 C 0.38392 0.19678 0.47922 0.0
C1092 C 0.38268 0.18621 0.4877 0.0
C1093 C 0.38348 0.18777 0.50239 0.0
C1094 C 0.3856 0.19998 0.50919 0.0
C1095 C 0.38663 0.20172 0.52412 0.0
C1096 C 0.3885 0.21388 0.53054 0.0
C1097 C 0.38964 0.22456 0.52245 0.0
C1098 C 0.38897 0.22315 0.50748 0.0
C1099 C 0.39044 0.23381 0.49898 0.0
C1100 C 0.39006 0.23242 0.48427 0.0
C1101 C 0.38814 0.22029 0.4775 0.0
C1102 C 0.38625 0.20926 0.48585 0.0
C1103 C 0.38688 0.21078 0.50085 0.0
C1104 C 0.39394 0.14804 0.54274 0.0
C1105 C 0.39337 0.15451 0.55701 0.0
O1106 O 0.40406 0.25919 0.42173 0.0
O1107 O 0.39904 0.27376 0.55045 0.0
O1108 O 0.38416 0.15894 0.55612 0.0
O1109 O 0.36967 0.14636 0.4328 0.0
H1110 H 0.39403 0.24472 0.40562 0.0
H1111 H 0.41763 0.2588 0.39966 0.0
H1112 H 0.41635 0.27405 0.39971 0.0
H1113 H 0.40686 0.26023 0.38666 0.0
H1114 H 0.37874 0.24026 0.42633 0.0
H1115 H 0.41977 0.2584 0.44089 0.0
H1116 H 0.36534 0.21025 0.4402 0.0
H1117 H 0.36095 0.2234 0.43943 0.0
H1118 H 0.36457 0.21859 0.45629 0.0
H1119 H 0.42673 0.2482 0.45782 0.0
H1120 H 0.41532 0.23043 0.46127 0.0
H1121 H 0.41571 0.24373 0.47242 0.0
H1122 H 0.37525 0.15313 0.41227 0.0
H1123 H 0.38497 0.12753 0.41406 0.0
H1124 H 0.35843 0.12477 0.41672 0.0
H1125 H 0.35843 0.12477 0.41672 0.0
H1126 H 0.39407 0.16883 0.43491 0.0
H1127 H 0.35346 0.15001 0.44815 0.0
H1128 H 0.40749 0.19753 0.46036 0.0
H1129 H 0.40495 0.20127 0.44264 0.0
H1130 H 0.41119 0.18978 0.44547 0.0
H1131 H 0.34527 0.16299 0.45981 0.0
H1132 H 0.3558 0.1814 0.46178 0.0
H1133 H 0.3564 0.17069 0.47509 0.0
H1134 H 0.40347 0.16334 0.56006 0.0
H1135 H 0.40656 0.17931 0.54501 0.0
H1136 H 0.36456 0.16314 0.55143 0.0
H1137 H 0.41064 0.19976 0.51804 0.0
H1138 H 0.41981 0.19977 0.53367 0.0
H1139 H 0.41349 0.21146 0.53266 0.0
H1140 H 0.35273 0.17326 0.542 0.0
H1141 H 0.35902 0.1811 0.52535 0.0
H1142 H 0.36289 0.19168 0.54119 0.0
H1143 H 0.38362 0.27505 0.54053 0.0
H1144 H 0.39621 0.30034 0.5406 0.0
H1145 H 0.40521 0.2931 0.53209 0.0
H1146 H 0.41037 0.30082 0.54973 0.0
H1147 H 0.41719 0.26784 0.54435 0.0
H1148 H 0.37478 0.2524 0.54282 0.0
H1149 H 0.41727 0.24418 0.51957 0.0
H1150 H 0.41613 0.23717 0.53658 0.0
H1151 H 0.4267 0.2554 0.53461 0.0
H1152 H 0.35918 0.23066 0.53283 0.0
H1153 H 0.36452 0.21818 0.53402 0.0
H1154 H 0.36552 0.22608 0.51759 0.0
H1155 H 0.38501 0.20528 0.44475 0.0
H1156 H 0.38115 0.17663 0.48307 0.0
H1157 H 0.38241 0.17925 0.50835 0.0
H1158 H 0.38928 0.21513 0.542 0.0
H1159 H 0.392 0.2434 0.50362 0.0
H1160 H 0.39128 0.24096 0.47824 0.0
H1161 H 0.40113 0.14426 0.54353 0.0
H1162 H 0.39737 0.15569 0.5344 0.0
H1163 H 0.38386 0.13931 0.53943 0.0
C1164 C 0.85706 0.24051 0.40703 0.0
C1165 C 0.86734 0.24785 0.41936 0.0
C1166 C 0.85551 0.23149 0.43786 0.0
C1167 C 0.84587 0.23534 0.44039 0.0
C1168 C 0.83479 0.22738 0.44866 0.0
C1169 C 0.83328 0.2153 0.45446 0.0
C1170 C 0.84313 0.21157 0.45224 0.0
C1171 C 0.8542 0.21983 0.44408 0.0
C1172 C 0.82457 0.23175 0.451 0.0
C1173 C 0.84179 0.19871 0.45821 0.0
C1174 C 0.75201 0.15693 0.39612 0.0
C1175 C 0.75761 0.15174 0.40761 0.0
C1176 C 0.76493 0.16273 0.43107 0.0
C1177 C 0.77463 0.1592 0.43448 0.0
C1178 C 0.78496 0.16705 0.44462 0.0
C1179 C 0.78572 0.17883 0.45126 0.0
C1180 C 0.77572 0.18221 0.44805 0.0
C1181 C 0.76526 0.17389 0.4382 0.0
C1182 C 0.79523 0.16293 0.44799 0.0
C1183 C 0.77631 0.19484 0.45461 0.0
C1184 C 0.75768 0.1655 0.53963 0.0
C1185 C 0.76585 0.16002 0.53613 0.0
C1186 C 0.7785 0.16827 0.53046 0.0
C1187 C 0.78291 0.18218 0.52798 0.0
C1188 C 0.77492 0.18785 0.53206 0.0
C1189 C 0.76247 0.17944 0.53803 0.0
C1190 C 0.78701 0.16204 0.52681 0.0
C1191 C 0.77937 0.20269 0.52976 0.0
C1192 C 0.87754 0.2678 0.54744 0.0
C1193 C 0.87047 0.25857 0.55975 0.0
C1194 C 0.85405 0.23643 0.54781 0.0
C1195 C 0.85123 0.22307 0.54463 0.0
C1196 C 0.83982 0.21379 0.53636 0.0
C1197 C 0.83098 0.21801 0.53116 0.0
C1198 C 0.83364 0.23146 0.53447 0.0
C1199 C 0.84515 0.24056 0.54274 0.0
C1200 C 0.83727 0.19951 0.53304 0.0
C1201 C 0.82436 0.23625 0.52912 0.0
C1202 C 0.82104 0.20621 0.46222 0.0
C1203 C 0.80952 0.19695 0.45422 0.0
C1204 C 0.79751 0.18817 0.46067 0.0
C1205 C 0.79694 0.18859 0.47559 0.0
C1206 C 0.78507 0.1799 0.48247 0.0
C1207 C 0.78453 0.18065 0.49714 0.0
C1208 C 0.79594 0.18986 0.50554 0.0
C1209 C 0.79551 0.19064 0.52047 0.0
C1210 C 0.80707 0.19983 0.52849 0.0
C1211 C 0.81911 0.20845 0.522 0.0
C1212 C 0.8197 0.20794 0.50708 0.0
C1213 C 0.8316 0.2166 0.50019 0.0
C1214 C 0.83206 0.21609 0.4855 0.0
C1215 C 0.82067 0.20682 0.47714 0.0
C1216 C 0.80857 0.19798 0.48385 0.0
C1217 C 0.80808 0.19856 0.49883 0.0
C1218 C 0.72227 0.14137 0.53855 0.0
C1219 C 0.73651 0.1439 0.54074 0.0
O1220 O 0.86605 0.23853 0.42935 0.0
O1221 O 0.86546 0.2449 0.55567 0.0
O1222 O 0.74512 0.15764 0.54442 0.0
O1223 O 0.7553 0.15571 0.42078 0.0
H1224 H 0.86573 0.25589 0.42439 0.0
H1225 H 0.84666 0.23582 0.41077 0.0
H1226 H 0.8584 0.23227 0.40205 0.0
H1227 H 0.85826 0.24792 0.39889 0.0
H1228 H 0.84682 0.24446 0.43588 0.0
H1229 H 0.86173 0.21698 0.44217 0.0
H1230 H 0.81489 0.22417 0.44558 0.0
H1231 H 0.82779 0.24204 0.4469 0.0
H1232 H 0.82273 0.23194 0.46247 0.0
H1233 H 0.85012 0.19703 0.45518 0.0
H1234 H 0.83211 0.18967 0.45441 0.0
H1235 H 0.84167 0.19937 0.46993 0.0
H1236 H 0.76862 0.15667 0.406 0.0
H1237 H 0.75381 0.15395 0.38545 0.0
H1238 H 0.7571 0.16831 0.39707 0.0
H1239 H 0.74105 0.15266 0.39719 0.0
H1240 H 0.77414 0.15032 0.42916 0.0
H1241 H 0.75763 0.17643 0.43554 0.0
H1242 H 0.8049 0.17026 0.44331 0.0
H1243 H 0.79206 0.15243 0.4437 0.0
H1244 H 0.79702 0.16336 0.45962 0.0
H1245 H 0.76867 0.19686 0.44976 0.0
H1246 H 0.78642 0.20397 0.45344 0.0
H1247 H 0.77454 0.19353 0.4661 0.0
H1248 H 0.73927 0.14124 0.53037 0.0
H1249 H 0.76237 0.14931 0.5378 0.0
H1250 H 0.75616 0.1836 0.54099 0.0
H1251 H 0.78723 0.16098 0.51513 0.0
H1252 H 0.78307 0.15174 0.53122 0.0
H1253 H 0.7975 0.16885 0.53088 0.0
H1254 H 0.77163 0.2053 0.53275 0.0
H1255 H 0.78166 0.20497 0.51847 0.0
H1256 H 0.78871 0.2094 0.53617 0.0
H1257 H 0.86212 0.26011 0.56308 0.0
H1258 H 0.87036 0.26536 0.53836 0.0
H1259 H 0.88171 0.27875 0.55079 0.0
H1260 H 0.88585 0.26631 0.54382 0.0
H1261 H 0.85812 0.21995 0.54859 0.0
H1262 H 0.84711 0.25084 0.54506 0.0
H1263 H 0.83705 0.19777 0.5214 0.0
H1264 H 0.8273 0.19182 0.53686 0.0
H1265 H 0.84506 0.19777 0.53798 0.0
H1266 H 0.82764 0.24693 0.53287 0.0
H1267 H 0.81404 0.22934 0.53269 0.0
H1268 H 0.82391 0.23573 0.51737 0.0
H1269 H 0.80988 0.19664 0.44276 0.0
H1270 H 0.77602 0.17251 0.47657 0.0
H1271 H 0.77504 0.17384 0.5018 0.0
H1272 H 0.80667 0.20035 0.53994 0.0
H1273 H 0.84069 0.22391 0.50608 0.0
H1274 H 0.84147 0.22305 0.48078 0.0
H1275 H 0.71518 0.1304 0.53555 0.0
H1276 H 0.72204 0.1477 0.52989 0.0
H1277 H 0.71887 0.14419 0.54834 0.0
C1278 C 0.03723 0.47948 0.2758 0.0
C1279 C 0.02407 0.46826 0.26857 0.0
C1280 C 0.01883 0.47195 0.24456 0.0
C1281 C 0.0049 0.46629 0.24517 0.0
C1282 C 0.99799 0.46995 0.2355 0.0
C1283 C 0.00522 0.47957 0.22516 0.0
C1284 C 0.01924 0.48494 0.2243 0.0
C1285 C 0.02579 0.48079 0.23385 0.0
C1286 C 0.98303 0.4638 0.23655 0.0
C1287 C 0.02742 0.49547 0.21368 0.0
C1288 C 0.00285 0.56886 0.25783 0.0
C1289 C 0.0043 0.55953 0.24759 0.0
C1290 C 0.99278 0.53583 0.23837 0.0
C1291 C 0.0025 0.53807 0.22837 0.0
C1292 C 0.00185 0.52711 0.22038 0.0
C1293 C 0.99107 0.51364 0.22211 0.0
C1294 C 0.98095 0.5114 0.23169 0.0
C1295 C 0.98197 0.52254 0.23974 0.0
C1296 C 0.01297 0.52993 0.21042 0.0
C1297 C 0.96924 0.49718 0.23368 0.0
C1298 C 0.96815 0.51279 0.13041 0.0
C1299 C 0.98139 0.51927 0.1358 0.0
C1300 C 0.98596 0.51205 0.14379 0.0
C1301 C 0.97691 0.49816 0.14675 0.0
C1302 C 0.96355 0.49158 0.1411 0.0
C1303 C 0.9594 0.49896 0.1328 0.0
C1304 C 0.00043 0.5193 0.1491 0.0
C1305 C 0.95361 0.47681 0.14395 0.0
C1306 C 0.00566 0.42178 0.14295 0.0
C1307 C 0.99654 0.4233 0.13212 0.0
C1308 C 0.99812 0.44566 0.13614 0.0
C1309 C 0.00803 0.4594 0.1386 0.0
C1310 C 0.00512 0.46877 0.14533 0.0
C1311 C 0.99188 0.46425 0.14954 0.0
C1312 C 0.98167 0.45047 0.14662 0.0
C1313 C 0.98487 0.44132 0.13986 0.0
C1314 C 0.0162 0.48345 0.1481 0.0
C1315 C 0.96739 0.44543 0.1507 0.0
C1316 C 0.99846 0.48512 0.21631 0.0
C1317 C 0.99632 0.49512 0.22268 0.0
C1318 C 0.99117 0.50186 0.21491 0.0
C1319 C 0.98782 0.49843 0.20034 0.0
C1320 C 0.9824 0.50484 0.19226 0.0
C1321 C 0.97996 0.50205 0.17774 0.0
C1322 C 0.98298 0.49283 0.17074 0.0
C1323 C 0.98136 0.49057 0.15585 0.0
C1324 C 0.98428 0.48118 0.1493 0.0
C1325 C 0.98876 0.47389 0.15721 0.0
C1326 C 0.99054 0.47609 0.17209 0.0
C1327 C 0.99508 0.46897 0.18037 0.0
C1328 C 0.99737 0.47166 0.19492 0.0
C1329 C 0.99532 0.48164 0.20171 0.0
C1330 C 0.99018 0.48849 0.19366 0.0
C1331 C 0.98781 0.48574 0.17883 0.0
C1332 C 0.94634 0.52266 0.13215 0.0
C1333 C 0.96121 0.52953 0.1287 0.0
O1334 O 0.02584 0.46902 0.25408 0.0
O1335 O 0.00169 0.43711 0.12975 0.0
O1336 O 0.96377 0.51978 0.12274 0.0
O1337 O 0.99366 0.54612 0.247 0.0
H1338 H 0.01603 0.47045 0.27159 0.0
H1339 H 0.04031 0.48949 0.27107 0.0
H1340 H 0.04537 0.47707 0.27435 0.0
H1341 H 0.03605 0.48068 0.28728 0.0
H1342 H 0.99945 0.45904 0.25318 0.0
H1343 H 0.03653 0.48491 0.2334 0.0
H1344 H 0.98093 0.47169 0.241 0.0
H1345 H 0.97858 0.45488 0.24347 0.0
H1346 H 0.978 0.46046 0.22588 0.0
H1347 H 0.03839 0.49984 0.21559 0.0
H1348 H 0.02525 0.50398 0.21406 0.0
H1349 H 0.02468 0.49063 0.20285 0.0
H1350 H 0.0143 0.56022 0.24829 0.0
H1351 H 0.01121 0.57204 0.26603 0.0
H1352 H 0.99466 0.56211 0.26509 0.0
H1353 H 0.00154 0.58293 0.24486 0.0
H1354 H 0.01078 0.54832 0.22691 0.0
H1355 H 0.97444 0.5209 0.24736 0.0
H1356 H 0.00888 0.52761 0.19934 0.0
H1357 H 0.01717 0.5232 0.21261 0.0
H1358 H 0.02127 0.54079 0.2113 0.0
H1359 H 0.96131 0.49737 0.23999 0.0
H1360 H 0.97284 0.49105 0.23923 0.0
H1361 H 0.96479 0.49191 0.22324 0.0
H1362 H 0.96731 0.53402 0.13875 0.0
H1363 H 0.98812 0.52995 0.13366 0.0
H1364 H 0.94921 0.49407 0.12841 0.0
H1365 H 0.00096 0.52168 0.16064 0.0
H1366 H 0.00665 0.52907 0.14376 0.0
H1367 H 0.00481 0.51261 0.14743 0.0
H1368 H 0.94325 0.47371 0.1402 0.0
H1369 H 0.95357 0.4751 0.15547 0.0
H1370 H 0.95666 0.47005 0.13847 0.0
H1371 H 0.98642 0.41863 0.1366 0.0
H1372 H 0.0018 0.41076 0.14482 0.0
H1373 H 0.00588 0.427 0.15317 0.0
H1374 H 0.01609 0.42647 0.13923 0.0
H1375 H 0.01817 0.46272 0.13544 0.0
H1376 H 0.97692 0.43093 0.1373 0.0
H1377 H 0.01782 0.48581 0.15969 0.0
H1378 H 0.01325 0.49052 0.14349 0.0
H1379 H 0.02583 0.48549 0.14358 0.0
H1380 H 0.96063 0.43435 0.14792 0.0
H1381 H 0.9635 0.45137 0.14527 0.0
H1382 H 0.96711 0.44717 0.16228 0.0
H1383 H 0.99922 0.4981 0.23377 0.0
H1384 H 0.98011 0.5122 0.19707 0.0
H1385 H 0.97588 0.50738 0.17203 0.0
H1386 H 0.98314 0.47957 0.13788 0.0
H1387 H 0.99705 0.46135 0.17567 0.0
H1388 H 0.00098 0.46598 0.20076 0.0
H1389 H 0.93991 0.51811 0.12236 0.0
H1390 H 0.94407 0.53022 0.1372 0.0
H1391 H 0.94383 0.51438 0.13965 0.0
C1392 C 0.46182 0.38702 0.25028 0.0
C1393 C 0.46191 0.3994 0.2575 0.0
C1394 C 0.47132 0.41863 0.24149 0.0
C1395 C 0.46841 0.42764 0.2346 0.0
C1396 C 0.47846 0.43918 0.22811 0.0
C1397 C 0.4917 0.44149 0.22816 0.0
C1398 C 0.49474 0.4324 0.23508 0.0
C1399 C 0.48454 0.4211 0.24177 0.0
C1400 C 0.4749 0.44881 0.22108 0.0
C1401 C 0.50875 0.43452 0.23525 0.0
C1402 C 0.57643 0.53838 0.27212 0.0
C1403 C 0.5687 0.52449 0.265 0.0
C1404 C 0.54859 0.51083 0.24971 0.0
C1405 C 0.55156 0.50049 0.24619 0.0
C1406 C 0.54291 0.48928 0.2371 0.0
C1407 C 0.53108 0.48839 0.23138 0.0
C1408 C 0.52811 0.49881 0.23482 0.0
C1409 C 0.53692 0.5099 0.24395 0.0
C1410 C 0.54637 0.47833 0.23365 0.0
C1411 C 0.51559 0.49819 0.22887 0.0
C1412 C 0.55992 0.50656 0.14204 0.0
C1413 C 0.56092 0.49562 0.14743 0.0
C1414 C 0.55009 0.48493 0.15412 0.0
C1415 C 0.53801 0.48514 0.15539 0.0
C1416 C 0.5369 0.49603 0.14985 0.0
C1417 C 0.54791 0.50662 0.14328 0.0
C1418 C 0.5516 0.47346 0.15997 0.0
C1419 C 0.52414 0.49653 0.15103 0.0
C1420 C 0.45395 0.38081 0.13701 0.0
C1421 C 0.45683 0.39466 0.13171 0.0
C1422 C 0.47916 0.41466 0.13656 0.0
C1423 C 0.49211 0.41731 0.13988 0.0
C1424 C 0.50134 0.42922 0.14777 0.0
C1425 C 0.49758 0.43887 0.15208 0.0
C1426 C 0.48471 0.43659 0.14807 0.0
C1427 C 0.4756 0.42446 0.14038 0.0
C1428 C 0.51502 0.43137 0.15168 0.0
C1429 C 0.48054 0.4469 0.15203 0.0
C1430 C 0.50228 0.45318 0.22061 0.0
C1431 C 0.51132 0.46504 0.22856 0.0
C1432 C 0.52163 0.47635 0.22213 0.0
C1433 C 0.52292 0.47594 0.2073 0.0
C1434 C 0.53316 0.48711 0.20046 0.0
C1435 C 0.53441 0.48653 0.18588 0.0
C1436 C 0.5254 0.47479 0.17756 0.0
C1437 C 0.52664 0.47405 0.16275 0.0
C1438 C 0.51734 0.46235 0.15474 0.0
C1439 C 0.50695 0.45111 0.16117 0.0
C1440 C 0.50578 0.45149 0.17602 0.0
C1441 C 0.49578 0.44017 0.18292 0.0
C1442 C 0.49467 0.44066 0.19751 0.0
C1443 C 0.50346 0.45253 0.20579 0.0
C1444 C 0.51375 0.46399 0.1991 0.0
C1445 C 0.51494 0.46345 0.18421 0.0
C1446 C 0.59195 0.52483 0.14651 0.0
C1447 C 0.58282 0.51921 0.1331 0.0
O1448 O 0.46104 0.40763 0.24746 0.0
O1449 O 0.47046 0.40267 0.12949 0.0
O1450 O 0.57023 0.51729 0.13573 0.0
O1451 O 0.55666 0.52179 0.25857 0.0
H1452 H 0.47141 0.40531 0.26401 0.0
H1453 H 0.47079 0.39047 0.24378 0.0
H1454 H 0.45275 0.38107 0.24321 0.0
H1455 H 0.46202 0.38018 0.25837 0.0
H1456 H 0.45818 0.42564 0.23443 0.0
H1457 H 0.48695 0.41417 0.24695 0.0
H1458 H 0.48219 0.4596 0.22454 0.0
H1459 H 0.46461 0.44654 0.22352 0.0
H1460 H 0.47546 0.44789 0.20944 0.0
H1461 H 0.50926 0.42595 0.24012 0.0
H1462 H 0.5157 0.44419 0.24134 0.0
H1463 H 0.51235 0.43555 0.22429 0.0
H1464 H 0.56767 0.51591 0.27143 0.0
H1465 H 0.59379 0.54837 0.26034 0.0
H1466 H 0.57676 0.53646 0.2837 0.0
H1467 H 0.56921 0.54227 0.27329 0.0
H1468 H 0.56058 0.50106 0.25053 0.0
H1469 H 0.53472 0.51792 0.24669 0.0
H1470 H 0.54716 0.47744 0.22203 0.0
H1471 H 0.53821 0.46825 0.23701 0.0
H1472 H 0.55597 0.48052 0.23892 0.0
H1473 H 0.5149 0.5073 0.23224 0.0
H1474 H 0.50659 0.48882 0.23241 0.0
H1475 H 0.51541 0.49746 0.21713 0.0
H1476 H 0.58191 0.50929 0.12955 0.0
H1477 H 0.57011 0.49534 0.1466 0.0
H1478 H 0.54722 0.51509 0.1391 0.0
H1479 H 0.5501 0.47306 0.17155 0.0
H1480 H 0.56162 0.47473 0.15804 0.0
H1481 H 0.54376 0.46348 0.15505 0.0
H1482 H 0.52481 0.5056 0.14598 0.0
H1483 H 0.52191 0.49684 0.16236 0.0
H1484 H 0.51561 0.48708 0.14596 0.0
H1485 H 0.45369 0.39945 0.14012 0.0
H1486 H 0.4431 0.37421 0.139 0.0
H1487 H 0.45974 0.3824 0.1471 0.0
H1488 H 0.45693 0.37544 0.12914 0.0
H1489 H 0.49483 0.40979 0.13662 0.0
H1490 H 0.46576 0.42271 0.13727 0.0
H1491 H 0.51707 0.43347 0.16327 0.0
H1492 H 0.52281 0.44045 0.14632 0.0
H1493 H 0.51596 0.42235 0.14856 0.0
H1494 H 0.47087 0.44442 0.14669 0.0
H1495 H 0.48841 0.45734 0.14921 0.0
H1496 H 0.4794 0.44709 0.16365 0.0
H1497 H 0.51038 0.46543 0.23994 0.0
H1498 H 0.54036 0.49643 0.20632 0.0
H1499 H 0.54252 0.49544 0.18121 0.0
H1500 H 0.51835 0.4619 0.14338 0.0
H1501 H 0.48871 0.43076 0.17712 0.0
H1502 H 0.4868 0.4316 0.20221 0.0
H1503 H 0.60212 0.52661 0.14429 0.0
H1504 H 0.58782 0.51743 0.15506 0.0
H1505 H 0.59287 0.53465 0.1504 0.0
C1506 C 0.44725 0.96765 0.28111 0.0
C1507 C 0.44779 0.97847 0.27135 0.0
C1508 C 0.45625 0.97961 0.24773 0.0
C1509 C 0.46389 0.99389 0.24665 0.0
C1510 C 0.47428 0.99974 0.23706 0.0
C1511 C 0.47707 0.9911 0.22844 0.0
C1512 C 0.46907 0.97668 0.22919 0.0
C1513 C 0.45861 0.97111 0.23872 0.0
C1514 C 0.48239 0.01514 0.23627 0.0
C1515 C 0.47176 0.96716 0.22015 0.0
C1516 C 0.58535 0.03433 0.22863 0.0
C1517 C 0.57397 0.02183 0.23541 0.0
C1518 C 0.55199 0.02034 0.23512 0.0
C1519 C 0.54394 0.00685 0.2295 0.0
C1520 C 0.53101 0.00237 0.22376 0.0
C1521 C 0.526 0.01151 0.22379 0.0
C1522 C 0.53386 0.02488 0.23003 0.0
C1523 C 0.54673 0.02908 0.23571 0.0
C1524 C 0.52274 0.98794 0.21748 0.0
C1525 C 0.52875 0.03481 0.23042 0.0
C1526 C 0.54407 0.03404 0.13635 0.0
C1527 C 0.53748 0.01983 0.138 0.0
C1528 C 0.52499 0.01304 0.14436 0.0
C1529 C 0.51914 0.02069 0.14933 0.0
C1530 C 0.52541 0.03488 0.14686 0.0
C1531 C 0.53776 0.04135 0.1402 0.0
C1532 C 0.51835 0.9978 0.14633 0.0
C1533 C 0.51936 0.04332 0.15184 0.0
C1534 C 0.40902 0.97799 0.14703 0.0
C1535 C 0.42215 0.98921 0.14119 0.0
C1536 C 0.44345 0.98925 0.14284 0.0
C1537 C 0.44852 0.98037 0.14371 0.0
C1538 C 0.46163 0.98506 0.14896 0.0
C1539 C 0.46986 0.99901 0.15343 0.0
C1540 C 0.46505 0.00822 0.15186 0.0
C1541 C 0.45192 0.00327 0.14645 0.0
C1542 C 0.46656 0.97503 0.15012 0.0
C1543 C 0.4737 0.02322 0.15621 0.0
C1544 C 0.48865 0.99719 0.21901 0.0
C1545 C 0.50138 0.00131 0.22496 0.0
C1546 C 0.51278 0.00728 0.2168 0.0
C1547 C 0.51152 0.00919 0.20226 0.0
C1548 C 0.52281 0.01534 0.1938 0.0
C1549 C 0.52148 0.01713 0.1795 0.0
C1550 C 0.50879 0.01269 0.17303 0.0
C1551 C 0.50732 0.01422 0.15842 0.0
C1552 C 0.49456 0.00969 0.15232 0.0
C1553 C 0.48315 0.00375 0.1605 0.0
C1554 C 0.48444 0.00225 0.17517 0.0
C1555 C 0.4732 0.99652 0.18375 0.0
C1556 C 0.47455 0.99494 0.19813 0.0
C1557 C 0.48718 0.99894 0.20446 0.0
C1558 C 0.49866 0.00491 0.19605 0.0
C1559 C 0.49729 0.00661 0.1814 0.0
C1560 C 0.57691 0.05305 0.14548 0.0
C1561 C 0.56735 0.03991 0.13679 0.0
O1562 O 0.44659 0.97375 0.25739 0.0
O1563 O 0.4304 0.98384 0.13848 0.0
O1564 O 0.55665 0.04094 0.13141 0.0
O1565 O 0.56471 0.02522 0.24034 0.0
H1566 H 0.45773 0.9879 0.27358 0.0
H1567 H 0.45572 0.96592 0.27899 0.0
H1568 H 0.43769 0.95775 0.27933 0.0
H1569 H 0.44814 0.97119 0.29238 0.0
H1570 H 0.46172 0.00046 0.25328 0.0
H1571 H 0.4525 0.96009 0.23952 0.0
H1572 H 0.49285 0.01889 0.24018 0.0
H1573 H 0.47817 0.02036 0.24269 0.0
H1574 H 0.48281 0.01809 0.2251 0.0
H1575 H 0.465 0.95621 0.22245 0.0
H1576 H 0.48233 0.96974 0.22191 0.0
H1577 H 0.47037 0.96855 0.20879 0.0
H1578 H 0.56941 0.01352 0.227 0.0
H1579 H 0.59292 0.03189 0.22461 0.0
H1580 H 0.59035 0.04319 0.2364 0.0
H1581 H 0.58126 0.03731 0.21957 0.0
H1582 H 0.54763 0.99976 0.22969 0.0
H1583 H 0.55292 0.03936 0.24034 0.0
H1584 H 0.52072 0.98827 0.20602 0.0
H1585 H 0.51288 0.98257 0.22258 0.0
H1586 H 0.52783 0.9819 0.21877 0.0
H1587 H 0.53602 0.04479 0.23584 0.0
H1588 H 0.51914 0.03028 0.23598 0.0
H1589 H 0.5267 0.03672 0.21945 0.0
H1590 H 0.56382 0.03134 0.14418 0.0
H1591 H 0.54223 0.01413 0.13453 0.0
H1592 H 0.54288 0.05229 0.13863 0.0
H1593 H 0.51922 0.99597 0.15767 0.0
H1594 H 0.52303 0.99302 0.13998 0.0
H1595 H 0.50749 0.99267 0.14331 0.0
H1596 H 0.52553 0.05426 0.14916 0.0
H1597 H 0.51832 0.04277 0.16349 0.0
H1598 H 0.50915 0.03904 0.14691 0.0
H1599 H 0.42671 0.99755 0.14959 0.0
H1600 H 0.40218 0.98201 0.1492 0.0
H1601 H 0.41114 0.9745 0.1571 0.0
H1602 H 0.40389 0.96901 0.13942 0.0
H1603 H 0.44201 0.96963 0.1406 0.0
H1604 H 0.44836 0.01039 0.14511 0.0
H1605 H 0.46796 0.97359 0.16146 0.0
H1606 H 0.47646 0.97917 0.1452 0.0
H1607 H 0.45943 0.96486 0.14497 0.0
H1608 H 0.46845 0.02905 0.15446 0.0
H1609 H 0.48299 0.02785 0.1501 0.0
H1610 H 0.47675 0.02431 0.1676 0.0
H1611 H 0.50243 0.9999 0.23612 0.0
H1612 H 0.53282 0.01887 0.19813 0.0
H1613 H 0.53056 0.02198 0.17358 0.0
H1614 H 0.49351 0.01082 0.14109 0.0
H1615 H 0.46321 0.99319 0.17947 0.0
H1616 H 0.46555 0.99047 0.2042 0.0
H1617 H 0.58562 0.05246 0.14978 0.0
H1618 H 0.57157 0.05435 0.15451 0.0
H1619 H 0.58063 0.06219 0.13891 0.0
C1620 C 0.53518 0.97036 0.74454 0.0
C1621 C 0.54579 0.9832 0.75292 0.0
C1622 C 0.53952 0.98393 0.77698 0.0
C1623 C 0.5431 0.99767 0.77934 0.0
C1624 C 0.53609 0.00126 0.78887 0.0
C1625 C 0.52521 0.99084 0.79603 0.0
C1626 C 0.52186 0.97699 0.79395 0.0
C1627 C 0.52925 0.97374 0.78459 0.0
C1628 C 0.54012 0.01615 0.79104 0.0
C1629 C 0.51021 0.96558 0.80125 0.0
C1630 C 0.43627 0.99357 0.76138 0.0
C1631 C 0.4444 0.9899 0.77067 0.0
C1632 C 0.46682 0.00015 0.78194 0.0
C1633 C 0.4643 0.98829 0.78892 0.0
C1634 C 0.47457 0.98791 0.79668 0.0
C1635 C 0.48758 0.99967 0.79767 0.0
C1636 C 0.49009 0.01171 0.79091 0.0
C1637 C 0.47965 0.01178 0.78311 0.0
C1638 C 0.47154 0.97489 0.80376 0.0
C1639 C 0.5038 0.02447 0.7919 0.0
C1640 C 0.4776 0.01591 0.88528 0.0
C1641 C 0.4734 0.00205 0.88224 0.0
C1642 C 0.48227 0.99828 0.8766 0.0
C1643 C 0.49557 0.00858 0.87391 0.0
C1644 C 0.50008 0.02243 0.87793 0.0
C1645 C 0.49102 0.02589 0.88372 0.0
C1646 C 0.47728 0.98335 0.87289 0.0
C1647 C 0.51426 0.03363 0.87543 0.0
C1648 C 0.56756 0.97724 0.87825 0.0
C1649 C 0.56823 0.98731 0.88984 0.0
C1650 C 0.54745 0.98791 0.8868 0.0
C1651 C 0.53385 0.97829 0.88442 0.0
C1652 C 0.52526 0.98176 0.87737 0.0
C1653 C 0.53039 0.99531 0.87292 0.0
C1654 C 0.54402 0.00528 0.87589 0.0
C1655 C 0.55245 0.00147 0.88279 0.0
C1656 C 0.51073 0.9709 0.8745 0.0
C1657 C 0.54968 0.01992 0.87169 0.0
C1658 C 0.51682 0.99435 0.80492 0.0
C1659 C 0.50691 0.99596 0.79803 0.0
C1660 C 0.49856 0.99923 0.80561 0.0
C1661 C 0.50024 0.00121 0.82049 0.0
C1662 C 0.49231 0.00496 0.82839 0.0
C1663 C 0.49374 0.00647 0.84306 0.0
C1664 C 0.50304 0.00411 0.85043 0.0
C1665 C 0.50419 0.0051 0.8654 0.0
C1666 C 0.51335 0.00245 0.87241 0.0
C1667 C 0.52153 0.9989 0.86484 0.0
C1668 C 0.52072 0.99813 0.84985 0.0
C1669 C 0.52898 0.99485 0.84189 0.0
C1670 C 0.52793 0.9939 0.82717 0.0
C1671 C 0.51836 0.99584 0.81984 0.0
C1672 C 0.51002 0.99928 0.82765 0.0
C1673 C 0.51131 0.00058 0.84265 0.0
C1674 C 0.4527 0.02487 0.87972 0.0
C1675 C 0.45555 0.01384 0.88486 0.0
O1676 O 0.54562 0.98029 0.76708 0.0
O1677 O 0.55532 0.98384 0.89339 0.0
O1678 O 0.46891 0.02 0.88937 0.0
O1679 O 0.45724 0.00076 0.77394 0.0
H1680 H 0.54309 0.99129 0.75153 0.0
H1681 H 0.52507 0.96719 0.74851 0.0
H1682 H 0.5371 0.96173 0.7457 0.0
H1683 H 0.53521 0.97249 0.73313 0.0
H1684 H 0.55128 0.00553 0.77359 0.0
H1685 H 0.52667 0.96317 0.78271 0.0
H1686 H 0.53217 0.01777 0.78635 0.0
H1687 H 0.54975 0.02312 0.78605 0.0
H1688 H 0.5411 0.01897 0.80252 0.0
H1689 H 0.50842 0.95529 0.79783 0.0
H1690 H 0.50093 0.96596 0.79901 0.0
H1691 H 0.51221 0.96698 0.81288 0.0
H1692 H 0.44422 0.98027 0.76723 0.0
H1693 H 0.43441 0.98723 0.75131 0.0
H1694 H 0.44349 0.00361 0.75662 0.0
H1695 H 0.42071 0.99123 0.77422 0.0
H1696 H 0.45437 0.97928 0.78833 0.0
H1697 H 0.48149 0.0209 0.77779 0.0
H1698 H 0.4729 0.97684 0.81541 0.0
H1699 H 0.47867 0.97159 0.80036 0.0
H1700 H 0.46113 0.96637 0.80129 0.0
H1701 H 0.50391 0.03326 0.7868 0.0
H1702 H 0.51114 0.02235 0.78669 0.0
H1703 H 0.50717 0.0274 0.80317 0.0
H1704 H 0.45343 0.00669 0.87554 0.0
H1705 H 0.46313 0.99422 0.88403 0.0
H1706 H 0.49421 0.03653 0.88638 0.0
H1707 H 0.47642 0.9817 0.8612 0.0
H1708 H 0.4673 0.97647 0.87728 0.0
H1709 H 0.48455 0.98045 0.87694 0.0
H1710 H 0.51639 0.0438 0.87976 0.0
H1711 H 0.51596 0.0343 0.86389 0.0
H1712 H 0.5215 0.03112 0.88041 0.0
H1713 H 0.57369 0.99778 0.88568 0.0
H1714 H 0.57785 0.97982 0.87537 0.0
H1715 H 0.56225 0.97785 0.86863 0.0
H1716 H 0.56206 0.96654 0.88185 0.0
H1717 H 0.53006 0.96792 0.88781 0.0
H1718 H 0.56281 0.00916 0.88524 0.0
H1719 H 0.50825 0.96988 0.86297 0.0
H1720 H 0.50416 0.97402 0.87989 0.0
H1721 H 0.50841 0.96072 0.87825 0.0
H1722 H 0.56026 0.02666 0.87556 0.0
H1723 H 0.5435 0.02408 0.87597 0.0
H1724 H 0.54924 0.02023 0.85998 0.0
H1725 H 0.50556 0.99445 0.7866 0.0
H1726 H 0.48489 0.00676 0.82331 0.0
H1727 H 0.48734 0.00937 0.84854 0.0
H1728 H 0.51398 0.00298 0.88389 0.0
H1729 H 0.53637 0.993 0.84695 0.0
H1730 H 0.53459 0.99141 0.82159 0.0
H1731 H 0.44199 0.02018 0.87619 0.0
H1732 H 0.45903 0.02998 0.87062 0.0
H1733 H 0.455 0.0328 0.88825 0.0
C1734 C 0.03087 0.55622 0.73497 0.0
C1735 C 0.0205 0.55546 0.7453 0.0
C1736 C 0.02111 0.55054 0.77005 0.0
C1737 C 0.00734 0.54364 0.77257 0.0
C1738 C 0.0021 0.53424 0.78336 0.0
C1739 C 0.01081 0.53156 0.79161 0.0
C1740 C 0.02481 0.53906 0.78953 0.0
C1741 C 0.02981 0.54869 0.77893 0.0
C1742 C 0.98717 0.52675 0.78553 0.0
C1743 C 0.03442 0.53635 0.79792 0.0
C1744 C 0.96744 0.45017 0.73783 0.0
C1745 C 0.97791 0.45141 0.74884 0.0
C1746 C 0.97805 0.45968 0.77289 0.0
C1747 C 0.9919 0.46698 0.7761 0.0
C1748 C 0.99738 0.47783 0.78634 0.0
C1749 C 0.98884 0.48153 0.79332 0.0
C1750 C 0.97478 0.47365 0.79062 0.0
C1751 C 0.96955 0.46262 0.78059 0.0
C1752 C 0.01237 0.48572 0.78925 0.0
C1753 C 0.96534 0.47734 0.7977 0.0
C1754 C 0.98398 0.46358 0.88642 0.0
C1755 C 0.99668 0.46975 0.8805 0.0
C1756 C 0.00125 0.48159 0.87268 0.0
C1757 C 0.99281 0.48716 0.87053 0.0
C1758 C 0.98014 0.48112 0.87682 0.0
C1759 C 0.976 0.46952 0.88489 0.0
C1760 C 0.01506 0.48808 0.86668 0.0
C1761 C 0.97089 0.48679 0.87483 0.0
C1762 C 0.03156 0.59505 0.87675 0.0
C1763 C 0.02086 0.58485 0.88634 0.0
C1764 C 0.01935 0.56255 0.88295 0.0
C1765 C 0.02824 0.55771 0.88107 0.0
C1766 C 0.02412 0.54512 0.87383 0.0
C1767 C 0.01068 0.53707 0.86861 0.0
C1768 C 0.00148 0.54165 0.87098 0.0
C1769 C 0.00591 0.55434 0.87815 0.0
C1770 C 0.03413 0.54045 0.87163 0.0
C1771 C 0.98697 0.5331 0.86595 0.0
C1772 C 0.00512 0.51957 0.80078 0.0
C1773 C 0.99975 0.50664 0.79401 0.0
C1774 C 0.99473 0.49475 0.80165 0.0
C1775 C 0.99528 0.49573 0.81661 0.0
C1776 C 0.99076 0.48404 0.82468 0.0
C1777 C 0.99128 0.48513 0.83941 0.0
C1778 C 0.99645 0.49797 0.84663 0.0
C1779 C 0.99717 0.49921 0.8616 0.0
C1780 C 0.00198 0.51208 0.8684 0.0
C1781 C 0.00621 0.52385 0.86067 0.0
C1782 C 0.00592 0.52288 0.84571 0.0
C1783 C 0.0104 0.53457 0.8376 0.0
C1784 C 0.01011 0.53352 0.82288 0.0
C1785 C 0.0053 0.52075 0.81571 0.0
C1786 C 0.00051 0.50878 0.82366 0.0
C1787 C 0.00097 0.50988 0.83868 0.0
C1788 C 0.96645 0.42796 0.88862 0.0
C1789 C 0.98045 0.44074 0.88982 0.0
O1790 O 0.02623 0.55871 0.7589 0.0
O1791 O 0.02397 0.57491 0.88985 0.0
O1792 O 0.9792 0.45195 0.8937 0.0
O1793 O 0.97268 0.44997 0.76219 0.0
H1794 H 0.01193 0.54467 0.74448 0.0
H1795 H 0.03401 0.54874 0.7378 0.0
H1796 H 0.03991 0.56666 0.73537 0.0
H1797 H 0.02648 0.55362 0.72399 0.0
H1798 H 0.00067 0.54544 0.76594 0.0
H1799 H 0.04045 0.55424 0.77697 0.0
H1800 H 0.98259 0.51613 0.78091 0.0
H1801 H 0.98223 0.53185 0.78036 0.0
H1802 H 0.98513 0.52608 0.797 0.0
H1803 H 0.04491 0.54254 0.79447 0.0
H1804 H 0.03129 0.52531 0.79678 0.0
H1805 H 0.0342 0.5388 0.80931 0.0
H1806 H 0.98692 0.46181 0.74794 0.0
H1807 H 0.97143 0.45142 0.72703 0.0
H1808 H 0.96495 0.45832 0.74002 0.0
H1809 H 0.95809 0.44002 0.7382 0.0
H1810 H 0.99841 0.46434 0.77044 0.0
H1811 H 0.95884 0.45673 0.77814 0.0
H1812 H 0.01471 0.48793 0.8008 0.0
H1813 H 0.01678 0.49569 0.78403 0.0
H1814 H 0.01724 0.48005 0.78515 0.0
H1815 H 0.95472 0.47046 0.79404 0.0
H1816 H 0.96825 0.48808 0.7955 0.0
H1817 H 0.96608 0.4767 0.80933 0.0
H1818 H 0.98481 0.44201 0.87916 0.0
H1819 H 0.00304 0.46537 0.8821 0.0
H1820 H 0.96629 0.46475 0.8897 0.0
H1821 H 0.01411 0.48639 0.85499 0.0
H1822 H 0.02105 0.4837 0.87096 0.0
H1823 H 0.0206 0.49933 0.86904 0.0
H1824 H 0.96085 0.4801 0.87919 0.0
H1825 H 0.96957 0.48802 0.8634 0.0
H1826 H 0.97543 0.49709 0.88023 0.0
H1827 H 0.01106 0.58023 0.88038 0.0
H1828 H 0.02927 0.60314 0.87387 0.0
H1829 H 0.03174 0.58962 0.86685 0.0
H1830 H 0.04166 0.59997 0.88212 0.0
H1831 H 0.03852 0.564 0.88506 0.0
H1832 H 0.99877 0.55766 0.88022 0.0
H1833 H 0.03474 0.53857 0.86015 0.0
H1834 H 0.03072 0.53061 0.87686 0.0
H1835 H 0.04432 0.5481 0.87596 0.0
H1836 H 0.98092 0.53779 0.86919 0.0
H1837 H 0.98246 0.5227 0.87025 0.0
H1838 H 0.98636 0.53183 0.85423 0.0
H1839 H 0.99951 0.50582 0.78252 0.0
H1840 H 0.98677 0.47393 0.81967 0.0
H1841 H 0.98759 0.47577 0.84506 0.0
H1842 H 0.00236 0.51294 0.87988 0.0
H1843 H 0.01425 0.54468 0.84255 0.0
H1844 H 0.01369 0.54284 0.81716 0.0
H1845 H 0.96147 0.42607 0.89894 0.0
H1846 H 0.96708 0.41881 0.88524 0.0
H1847 H 0.96017 0.4294 0.88059 0.0
C1848 C 0.52689 0.5811 0.75231 0.0
C1849 C 0.53649 0.58179 0.76418 0.0
C1850 C 0.52152 0.56127 0.77728 0.0
C1851 C 0.51379 0.56644 0.78322 0.0
C1852 C 0.50253 0.55808 0.7911 0.0
C1853 C 0.49903 0.54434 0.79325 0.0
C1854 C 0.50695 0.5392 0.78757 0.0
C1855 C 0.5181 0.54776 0.77965 0.0
C1856 C 0.49429 0.56389 0.79702 0.0
C1857 C 0.50356 0.52464 0.78978 0.0
C1858 C 0.41071 0.49253 0.73865 0.0
C1859 C 0.41889 0.48839 0.74803 0.0
C1860 C 0.4283 0.49757 0.77165 0.0
C1861 C 0.43739 0.49289 0.77313 0.0
C1862 C 0.44834 0.49942 0.78289 0.0
C1863 C 0.45042 0.51113 0.791 0.0
C1864 C 0.44117 0.51581 0.78951 0.0
C1865 C 0.43 0.50868 0.78012 0.0
C1866 C 0.4578 0.49394 0.78431 0.0
C1867 C 0.44323 0.52855 0.79746 0.0
C1868 C 0.42609 0.50209 0.88291 0.0
C1869 C 0.43157 0.49418 0.87804 0.0
C1870 C 0.44366 0.50026 0.87084 0.0
C1871 C 0.4501 0.51441 0.86806 0.0
C1872 C 0.44457 0.52237 0.87306 0.0
C1873 C 0.43277 0.51612 0.88068 0.0
C1874 C 0.44957 0.49158 0.86627 0.0
C1875 C 0.45107 0.53747 0.87035 0.0
C1876 C 0.55015 0.59121 0.87758 0.0
C1877 C 0.54269 0.58801 0.89147 0.0
C1878 C 0.52285 0.5654 0.88515 0.0
C1879 C 0.51809 0.55131 0.88507 0.0
C1880 C 0.50634 0.54191 0.87732 0.0
C1881 C 0.49899 0.54674 0.86974 0.0
C1882 C 0.50344 0.56095 0.87025 0.0
C1883 C 0.51543 0.57015 0.87775 0.0
C1884 C 0.50191 0.52685 0.87704 0.0
C1885 C 0.49561 0.56647 0.86274 0.0
C1886 C 0.48689 0.5353 0.80116 0.0
C1887 C 0.47484 0.52722 0.79341 0.0
C1888 C 0.46281 0.51905 0.80014 0.0
C1889 C 0.46274 0.51902 0.81511 0.0
C1890 C 0.45083 0.51112 0.8223 0.0
C1891 C 0.45076 0.51181 0.83702 0.0
C1892 C 0.46268 0.52004 0.84516 0.0
C1893 C 0.4627 0.52104 0.86013 0.0
C1894 C 0.47475 0.52944 0.86782 0.0
C1895 C 0.48683 0.53704 0.86101 0.0
C1896 C 0.48703 0.53607 0.84608 0.0
C1897 C 0.49906 0.54344 0.8389 0.0
C1898 C 0.49906 0.54308 0.8242 0.0
C1899 C 0.48706 0.53523 0.8161 0.0
C1900 C 0.47491 0.52723 0.8231 0.0
C1901 C 0.47489 0.52767 0.83813 0.0
C1902 C 0.39088 0.48527 0.88803 0.0
C1903 C 0.40332 0.48378 0.88723 0.0
O1904 O 0.5322 0.56881 0.7691 0.0
O1905 O 0.53458 0.57392 0.89247 0.0
O1906 O 0.41455 0.49659 0.89006 0.0
O1907 O 0.41788 0.49164 0.76203 0.0
H1908 H 0.53691 0.58871 0.77304 0.0
H1909 H 0.51668 0.57733 0.75626 0.0
H1910 H 0.52618 0.57405 0.74346 0.0
H1911 H 0.53052 0.59147 0.74821 0.0
H1912 H 0.51634 0.57692 0.78169 0.0
H1913 H 0.52415 0.54387 0.77511 0.0
H1914 H 0.48365 0.55744 0.79322 0.0
H1915 H 0.49802 0.57461 0.79396 0.0
H1916 H 0.4945 0.5637 0.80875 0.0
H1917 H 0.51116 0.52243 0.78538 0.0
H1918 H 0.49362 0.51742 0.78462 0.0
H1919 H 0.5028 0.52268 0.80127 0.0
H1920 H 0.42954 0.49448 0.74487 0.0
H1921 H 0.41164 0.49043 0.72729 0.0
H1922 H 0.41452 0.50369 0.74029 0.0
H1923 H 0.39994 0.48678 0.74129 0.0
H1924 H 0.43589 0.4841 0.76671 0.0
H1925 H 0.42284 0.51214 0.77889 0.0
H1926 H 0.46041 0.49375 0.79563 0.0
H1927 H 0.46723 0.5008 0.77896 0.0
H1928 H 0.45344 0.48343 0.77941 0.0
H1929 H 0.43673 0.53228 0.79302 0.0
H1930 H 0.45386 0.53693 0.79721 0.0
H1931 H 0.44073 0.52624 0.80869 0.0
H1932 H 0.40348 0.48004 0.87623 0.0
H1933 H 0.42656 0.48335 0.88012 0.0
H1934 H 0.4285 0.52213 0.88465 0.0
H1935 H 0.44869 0.4901 0.85457 0.0
H1936 H 0.44441 0.48132 0.87094 0.0
H1937 H 0.46042 0.49685 0.86939 0.0
H1938 H 0.4445 0.54168 0.87312 0.0
H1939 H 0.45358 0.5393 0.85904 0.0
H1940 H 0.46057 0.54321 0.8768 0.0
H1941 H 0.53648 0.59297 0.89185 0.0
H1942 H 0.55665 0.60247 0.87667 0.0
H1943 H 0.54287 0.5872 0.8684 0.0
H1944 H 0.55647 0.58638 0.87709 0.0
H1945 H 0.52382 0.54772 0.89087 0.0
H1946 H 0.51883 0.58099 0.87777 0.0
H1947 H 0.50049 0.5228 0.86591 0.0
H1948 H 0.4921 0.52109 0.88213 0.0
H1949 H 0.50926 0.52486 0.88264 0.0
H1950 H 0.49905 0.57726 0.86619 0.0
H1951 H 0.48473 0.56007 0.86468 0.0
H1952 H 0.49689 0.56612 0.85116 0.0
H1953 H 0.47479 0.52748 0.78194 0.0
H1954 H 0.44137 0.50452 0.81661 0.0
H1955 H 0.44122 0.5058 0.84194 0.0
H1956 H 0.47465 0.53042 0.87926 0.0
H1957 H 0.5086 0.54971 0.84457 0.0
H1958 H 0.50858 0.54912 0.81925 0.0
H1959 H 0.39001 0.48868 0.8989 0.0
H1960 H 0.38162 0.47538 0.88508 0.0
H1961 H 0.39167 0.49302 0.88053 0.0
C1962 C 0.61992 0.76559 0.6163 0.0
C1963 C 0.62439 0.75975 0.60411 0.0
C1964 C 0.62939 0.77636 0.58553 0.0
C1965 C 0.61596 0.77194 0.58157 0.0
C1966 C 0.61283 0.77894 0.57159 0.0
C1967 C 0.6233 0.79074 0.56559 0.0
C1968 C 0.63682 0.7951 0.56934 0.0
C1969 C 0.63968 0.78776 0.57918 0.0
C1970 C 0.59828 0.77395 0.56776 0.0
C1971 C 0.64821 0.80774 0.56326 0.0
C1972 C 0.59294 0.8419 0.61859 0.0
C1973 C 0.60419 0.8477 0.60802 0.0
C1974 C 0.60198 0.83893 0.5839 0.0
C1975 C 0.61544 0.84388 0.58079 0.0
C1976 C 0.61891 0.83693 0.57075 0.0
C1977 C 0.60871 0.82458 0.56398 0.0
C1978 C 0.59506 0.81984 0.56679 0.0
C1979 C 0.59187 0.82731 0.57649 0.0
C1980 C 0.63353 0.84249 0.56783 0.0
C1981 C 0.58388 0.80652 0.56016 0.0
C1982 C 0.58927 0.82727 0.47091 0.0
C1983 C 0.60265 0.83511 0.47594 0.0
C1984 C 0.60865 0.82908 0.48374 0.0
C1985 C 0.60088 0.81507 0.48702 0.0
C1986 C 0.58739 0.80717 0.48184 0.0
C1987 C 0.58187 0.81334 0.47357 0.0
C1988 C 0.62325 0.83768 0.48843 0.0
C1989 C 0.57873 0.79222 0.48509 0.0
C1990 C 0.62333 0.73713 0.48046 0.0
C1991 C 0.61941 0.74109 0.46656 0.0
C1992 C 0.62255 0.76378 0.47354 0.0
C1993 C 0.63182 0.77785 0.47381 0.0
C1994 C 0.62951 0.78727 0.48142 0.0
C1995 C 0.61745 0.78249 0.48871 0.0
C1996 C 0.60783 0.76828 0.48819 0.0
C1997 C 0.61056 0.75905 0.48078 0.0
C1998 C 0.63999 0.80233 0.48172 0.0
C1999 C 0.59465 0.76283 0.49544 0.0
C2000 C 0.61996 0.79915 0.55647 0.0
C2001 C 0.61677 0.8082 0.56325 0.0
C2002 C 0.61242 0.81573 0.55563 0.0
C2003 C 0.61123 0.81424 0.54068 0.0
C2004 C 0.60669 0.82147 0.53264 0.0
C2005 C 0.60507 0.81952 0.51797 0.0
C2006 C 0.60836 0.81062 0.51073 0.0
C2007 C 0.60678 0.80858 0.49582 0.0
C2008 C 0.61009 0.79959 0.48902 0.0
C2009 C 0.61479 0.79236 0.49668 0.0
C2010 C 0.61643 0.79425 0.51159 0.0
C2011 C 0.62112 0.78713 0.51965 0.0
C2012 C 0.62226 0.78869 0.53435 0.0
C2013 C 0.61902 0.79764 0.54154 0.0
C2014 C 0.61457 0.80516 0.53361 0.0
C2015 C 0.61321 0.80341 0.51862 0.0
C2016 C 0.56979 0.84285 0.46533 0.0
C2017 C 0.58406 0.8452 0.46645 0.0
O2018 O 0.6329 0.77016 0.59551 0.0
O2019 O 0.62563 0.75527 0.46615 0.0
O2020 O 0.58332 0.8328 0.4632 0.0
O2021 O 0.59856 0.84488 0.59439 0.0
H2022 H 0.61536 0.75198 0.59784 0.0
H2023 H 0.61402 0.77009 0.61211 0.0
H2024 H 0.62874 0.77374 0.62253 0.0
H2025 H 0.61346 0.75731 0.62343 0.0
H2026 H 0.60779 0.76318 0.58629 0.0
H2027 H 0.65001 0.79109 0.58224 0.0
H2028 H 0.59552 0.78135 0.57221 0.0
H2029 H 0.59141 0.7637 0.57192 0.0
H2030 H 0.59672 0.77337 0.55608 0.0
H2031 H 0.6582 0.80979 0.56725 0.0
H2032 H 0.64722 0.8168 0.56598 0.0
H2033 H 0.64773 0.80651 0.55154 0.0
H2034 H 0.60998 0.84236 0.60964 0.0
H2035 H 0.59722 0.84398 0.6296 0.0
H2036 H 0.58659 0.83061 0.6167 0.0
H2037 H 0.58647 0.84651 0.61741 0.0
H2038 H 0.62321 0.85307 0.58639 0.0
H2039 H 0.5815 0.82366 0.57896 0.0
H2040 H 0.63489 0.84177 0.5563 0.0
H2041 H 0.6371 0.83626 0.57324 0.0
H2042 H 0.63989 0.85335 0.57171 0.0
H2043 H 0.57398 0.80361 0.56457 0.0
H2044 H 0.58599 0.79809 0.56183 0.0
H2045 H 0.58321 0.8075 0.54857 0.0
H2046 H 0.58783 0.84867 0.4776 0.0
H2047 H 0.60845 0.84585 0.47353 0.0
H2048 H 0.57159 0.80738 0.46946 0.0
H2049 H 0.62402 0.84014 0.49996 0.0
H2050 H 0.62843 0.84747 0.48287 0.0
H2051 H 0.62856 0.83192 0.48647 0.0
H2052 H 0.568 0.78813 0.48203 0.0
H2053 H 0.57954 0.79078 0.49656 0.0
H2054 H 0.58229 0.7861 0.4792 0.0
H2055 H 0.60833 0.73646 0.4657 0.0
H2056 H 0.61834 0.72579 0.48095 0.0
H2057 H 0.62015 0.74099 0.48964 0.0
H2058 H 0.63439 0.74159 0.4814 0.0
H2059 H 0.64101 0.78143 0.46817 0.0
H2060 H 0.6032 0.74822 0.48067 0.0
H2061 H 0.64251 0.80651 0.49282 0.0
H2062 H 0.63591 0.80802 0.47611 0.0
H2063 H 0.64934 0.80425 0.4766 0.0
H2064 H 0.58758 0.75182 0.49258 0.0
H2065 H 0.58979 0.76882 0.4926 0.0
H2066 H 0.5965 0.76397 0.50708 0.0
H2067 H 0.61739 0.80917 0.57474 0.0
H2068 H 0.60416 0.82856 0.53763 0.0
H2069 H 0.60123 0.82512 0.51239 0.0
H2070 H 0.60873 0.79799 0.4776 0.0
H2071 H 0.62383 0.78017 0.51469 0.0
H2072 H 0.62574 0.78282 0.54003 0.0
H2073 H 0.5657 0.83989 0.45425 0.0
H2074 H 0.56962 0.85223 0.4688 0.0
H2075 H 0.56314 0.83446 0.47225 0.0
C2076 C 0.14665 0.73816 0.6251 0.0
C2077 C 0.14147 0.7454 0.61566 0.0
C2078 C 0.14984 0.75281 0.59234 0.0
C2079 C 0.1476 0.76383 0.59107 0.0
C2080 C 0.15522 0.77444 0.58197 0.0
C2081 C 0.16547 0.77412 0.57425 0.0
C2082 C 0.16759 0.76286 0.57541 0.0
C2083 C 0.15948 0.75217 0.58421 0.0
C2084 C 0.15245 0.78608 0.5808 0.0
C2085 C 0.17864 0.76227 0.56771 0.0
C2086 C 0.25146 0.87469 0.6088 0.0
C2087 C 0.24318 0.86005 0.60376 0.0
C2088 C 0.22206 0.84517 0.59032 0.0
C2089 C 0.22488 0.83468 0.58708 0.0
C2090 C 0.21573 0.82296 0.57885 0.0
C2091 C 0.2035 0.82167 0.57387 0.0
C2092 C 0.20062 0.83217 0.57717 0.0
C2093 C 0.20998 0.84381 0.58532 0.0
C2094 C 0.21911 0.81194 0.57548 0.0
C2095 C 0.18762 0.83107 0.57213 0.0
C2096 C 0.22229 0.8386 0.48205 0.0
C2097 C 0.22375 0.82751 0.48603 0.0
C2098 C 0.21377 0.81676 0.49354 0.0
C2099 C 0.20204 0.81702 0.49703 0.0
C2100 C 0.20039 0.82799 0.49279 0.0
C2101 C 0.21057 0.83866 0.48538 0.0
C2102 C 0.21584 0.80519 0.4979 0.0
C2103 C 0.18796 0.82853 0.49627 0.0
C2104 C 0.11436 0.71168 0.48272 0.0
C2105 C 0.11953 0.72656 0.47898 0.0
C2106 C 0.14256 0.74553 0.48381 0.0
C2107 C 0.15548 0.74796 0.48681 0.0
C2108 C 0.16527 0.76025 0.49369 0.0
C2109 C 0.16208 0.77046 0.49739 0.0
C2110 C 0.14922 0.76836 0.49373 0.0
C2111 C 0.13956 0.7559 0.48696 0.0
C2112 C 0.17894 0.76221 0.49725 0.0
C2113 C 0.14563 0.77921 0.49721 0.0
C2114 C 0.17447 0.7859 0.56563 0.0
C2115 C 0.18439 0.79786 0.5728 0.0
C2116 C 0.19357 0.8092 0.56545 0.0
C2117 C 0.1931 0.80856 0.55048 0.0
C2118 C 0.20249 0.81958 0.54275 0.0
C2119 C 0.20204 0.81878 0.52802 0.0
C2120 C 0.19211 0.80697 0.52044 0.0
C2121 C 0.19169 0.80598 0.50547 0.0
C2122 C 0.18166 0.79411 0.49827 0.0
C2123 C 0.17203 0.78306 0.50563 0.0
C2124 C 0.17233 0.78382 0.52061 0.0
C2125 C 0.16285 0.77286 0.52836 0.0
C2126 C 0.1634 0.77359 0.54309 0.0
C2127 C 0.17353 0.78525 0.55065 0.0
C2128 C 0.183 0.79655 0.54306 0.0
C2129 C 0.18244 0.79581 0.52803 0.0
C2130 C 0.25415 0.85679 0.48427 0.0
C2131 C 0.24437 0.85179 0.47134 0.0
O2132 O 0.14304 0.74286 0.60161 0.0
O2133 O 0.13335 0.73312 0.47784 0.0
O2134 O 0.23188 0.84948 0.47518 0.0
O2135 O 0.23067 0.85673 0.59814 0.0
H2136 H 0.14778 0.75658 0.61854 0.0
H2137 H 0.15749 0.74222 0.62338 0.0
H2138 H 0.14114 0.72692 0.6226 0.0
H2139 H 0.14545 0.74003 0.63644 0.0
H2140 H 0.13991 0.76412 0.59721 0.0
H2141 H 0.16105 0.74355 0.58526 0.0
H2142 H 0.16067 0.79541 0.5864 0.0
H2143 H 0.1428 0.78368 0.58555 0.0
H2144 H 0.15217 0.78848 0.56954 0.0
H2145 H 0.18029 0.754 0.57147 0.0
H2146 H 0.18821 0.77222 0.5691 0.0
H2147 H 0.17598 0.76033 0.55621 0.0
H2148 H 0.24271 0.8524 0.61128 0.0
H2149 H 0.25282 0.87434 0.62058 0.0
H2150 H 0.2444 0.8788 0.60975 0.0
H2151 H 0.26763 0.88279 0.59521 0.0
H2152 H 0.23419 0.83556 0.59092 0.0
H2153 H 0.20788 0.85194 0.58788 0.0
H2154 H 0.21862 0.81005 0.56383 0.0
H2155 H 0.21159 0.8022 0.5801 0.0
H2156 H 0.22927 0.81471 0.57965 0.0
H2157 H 0.18676 0.83999 0.57587 0.0
H2158 H 0.17899 0.82155 0.57594 0.0
H2159 H 0.18691 0.83037 0.56038 0.0
H2160 H 0.24337 0.84212 0.46678 0.0
H2161 H 0.23266 0.82716 0.48348 0.0
H2162 H 0.20948 0.84721 0.48223 0.0
H2163 H 0.21536 0.80442 0.50958 0.0
H2164 H 0.22562 0.80659 0.49459 0.0
H2165 H 0.20765 0.79533 0.49313 0.0
H2166 H 0.18796 0.8375 0.49174 0.0
H2167 H 0.18725 0.82911 0.50793 0.0
H2168 H 0.17888 0.81899 0.49215 0.0
H2169 H 0.11683 0.73133 0.48783 0.0
H2170 H 0.1033 0.70619 0.48386 0.0
H2171 H 0.11912 0.71142 0.49294 0.0
H2172 H 0.11682 0.70623 0.4744 0.0
H2173 H 0.15775 0.73998 0.4841 0.0
H2174 H 0.12974 0.75432 0.48413 0.0
H2175 H 0.18112 0.76419 0.50884 0.0
H2176 H 0.18673 0.7713 0.49192 0.0
H2177 H 0.17973 0.75314 0.49393 0.0
H2178 H 0.13552 0.7764 0.49285 0.0
H2179 H 0.1532 0.78914 0.49294 0.0
H2180 H 0.14582 0.78075 0.50888 0.0
H2181 H 0.18501 0.79834 0.58428 0.0
H2182 H 0.21036 0.82891 0.54801 0.0
H2183 H 0.2096 0.82755 0.52265 0.0
H2184 H 0.18149 0.79337 0.48679 0.0
H2185 H 0.1549 0.76356 0.52313 0.0
H2186 H 0.15582 0.76486 0.54848 0.0
H2187 H 0.25511 0.8663 0.48921 0.0
H2188 H 0.26422 0.85892 0.48107 0.0
H2189 H 0.2506 0.84889 0.49235 0.0
C2190 C 0.14869 0.39069 0.61324 0.0
C2191 C 0.1387 0.38674 0.6006 0.0
C2192 C 0.15032 0.38076 0.58264 0.0
C2193 C 0.16048 0.39427 0.58022 0.0
C2194 C 0.17135 0.39682 0.57184 0.0
C2195 C 0.17209 0.38567 0.56573 0.0
C2196 C 0.16175 0.37207 0.56787 0.0
C2197 C 0.15095 0.36981 0.57624 0.0
C2198 C 0.18215 0.41146 0.56963 0.0
C2199 C 0.16224 0.35995 0.56148 0.0
C2200 C 0.25102 0.40509 0.6194 0.0
C2201 C 0.24606 0.39341 0.60814 0.0
C2202 C 0.23925 0.39733 0.5853 0.0
C2203 C 0.22886 0.38426 0.58077 0.0
C2204 C 0.21853 0.38272 0.57147 0.0
C2205 C 0.21851 0.39452 0.56684 0.0
C2206 C 0.22915 0.40775 0.57126 0.0
C2207 C 0.23956 0.40897 0.58022 0.0
C2208 C 0.20751 0.36847 0.56681 0.0
C2209 C 0.22934 0.42058 0.56685 0.0
C2210 C 0.2475 0.4159 0.48017 0.0
C2211 C 0.23922 0.40173 0.48175 0.0
C2212 C 0.22636 0.39641 0.48716 0.0
C2213 C 0.22186 0.40549 0.49133 0.0
C2214 C 0.22996 0.4197 0.48911 0.0
C2215 C 0.24262 0.42468 0.48333 0.0
C2216 C 0.21776 0.38115 0.48881 0.0
C2217 C 0.22543 0.42969 0.49323 0.0
C2218 C 0.1296 0.39846 0.47578 0.0
C2219 C 0.13536 0.39446 0.46324 0.0
C2220 C 0.15074 0.38797 0.47433 0.0
C2221 C 0.15266 0.37696 0.47695 0.0
C2222 C 0.16413 0.37891 0.48444 0.0
C2223 C 0.1739 0.39225 0.48956 0.0
C2224 C 0.17214 0.40349 0.48684 0.0
C2225 C 0.16062 0.40127 0.4792 0.0
C2226 C 0.16575 0.3667 0.48705 0.0
C2227 C 0.18236 0.41785 0.49217 0.0
C2228 C 0.18393 0.38828 0.55751 0.0
C2229 C 0.19522 0.38989 0.56497 0.0
C2230 C 0.20698 0.39298 0.55808 0.0
C2231 C 0.20756 0.39463 0.54329 0.0
C2232 C 0.21929 0.39801 0.53603 0.0
C2233 C 0.21989 0.40006 0.52156 0.0
C2234 C 0.20865 0.39833 0.51367 0.0
C2235 C 0.20916 0.40037 0.49894 0.0
C2236 C 0.19769 0.3982 0.49138 0.0
C2237 C 0.18571 0.39435 0.49819 0.0
C2238 C 0.18514 0.39271 0.51299 0.0
C2239 C 0.17341 0.38937 0.52026 0.0
C2240 C 0.17299 0.38794 0.53484 0.0
C2241 C 0.18423 0.38965 0.54269 0.0
C2242 C 0.19613 0.39292 0.53557 0.0
C2243 C 0.19662 0.39459 0.52072 0.0
C2244 C 0.28279 0.42896 0.4834 0.0
C2245 C 0.26894 0.41671 0.47921 0.0
O2246 O 0.13989 0.3778 0.59117 0.0
O2247 O 0.13921 0.38521 0.46727 0.0
O2248 O 0.2603 0.42144 0.47586 0.0
O2249 O 0.24885 0.39889 0.59486 0.0
H2250 H 0.1407 0.39613 0.59511 0.0
H2251 H 0.15918 0.39616 0.60972 0.0
H2252 H 0.14695 0.38138 0.6187 0.0
H2253 H 0.14756 0.39764 0.62091 0.0
H2254 H 0.16011 0.40291 0.58489 0.0
H2255 H 0.14305 0.35943 0.57807 0.0
H2256 H 0.19186 0.41332 0.57429 0.0
H2257 H 0.17981 0.41902 0.57454 0.0
H2258 H 0.18347 0.41322 0.55813 0.0
H2259 H 0.15341 0.35 0.56415 0.0
H2260 H 0.17152 0.36023 0.56533 0.0
H2261 H 0.16263 0.36057 0.54979 0.0
H2262 H 0.23499 0.38684 0.60926 0.0
H2263 H 0.24884 0.40091 0.63015 0.0
H2264 H 0.24578 0.41095 0.61776 0.0
H2265 H 0.262 0.41224 0.61876 0.0
H2266 H 0.22884 0.3753 0.58461 0.0
H2267 H 0.2477 0.41901 0.58379 0.0
H2268 H 0.2057 0.36777 0.55516 0.0
H2269 H 0.19805 0.36624 0.57187 0.0
H2270 H 0.20993 0.36049 0.56976 0.0
H2271 H 0.23751 0.42997 0.57244 0.0
H2272 H 0.21958 0.41985 0.569 0.0
H2273 H 0.23081 0.42167 0.55529 0.0
H2274 H 0.26547 0.41032 0.4887 0.0
H2275 H 0.24281 0.39484 0.47885 0.0
H2276 H 0.24903 0.43556 0.48183 0.0
H2277 H 0.21729 0.37892 0.50021 0.0
H2278 H 0.22179 0.37533 0.48314 0.0
H2279 H 0.20734 0.37743 0.48476 0.0
H2280 H 0.23329 0.4405 0.49166 0.0
H2281 H 0.22269 0.42863 0.50451 0.0
H2282 H 0.21635 0.42729 0.48675 0.0
H2283 H 0.14418 0.40388 0.45945 0.0
H2284 H 0.12618 0.40558 0.47239 0.0
H2285 H 0.12098 0.38924 0.4801 0.0
H2286 H 0.13735 0.40375 0.48441 0.0
H2287 H 0.14503 0.36675 0.47313 0.0
H2288 H 0.15939 0.40996 0.47727 0.0
H2289 H 0.16554 0.36508 0.49859 0.0
H2290 H 0.17563 0.36869 0.48337 0.0
H2291 H 0.15769 0.35715 0.48159 0.0
H2292 H 0.17926 0.42543 0.48973 0.0
H2293 H 0.19211 0.42104 0.48726 0.0
H2294 H 0.18398 0.41805 0.50381 0.0
H2295 H 0.1949 0.38883 0.57635 0.0
H2296 H 0.2282 0.3993 0.5415 0.0
H2297 H 0.2293 0.40292 0.51664 0.0
H2298 H 0.19813 0.3997 0.48007 0.0
H2299 H 0.16444 0.38791 0.51478 0.0
H2300 H 0.16372 0.38543 0.53988 0.0
H2301 H 0.28991 0.42539 0.48607 0.0
H2302 H 0.28203 0.43455 0.49286 0.0
H2303 H 0.28684 0.4362 0.47467 0.0
H2304 H 0.01435 0.35981 0.02868 0.0
H2305 H 0.01167 0.37 0.05057 0.0
H2306 H 0.97804 0.37101 0.03138 0.0
H2307 H 0.98072 0.36098 0.00933 0.0
H2308 H 0.99681 0.39578 0.04412 0.0
H2309 H 0.98356 0.35367 0.08068 0.0
H2310 H 0.99858 0.3583 0.07136 0.0
H2311 H 0.98275 0.35108 0.06168 0.0
C2312 C 0.00626 0.362 0.02914 0.0
C2313 C 0.99776 0.35956 0.0172 0.0
C2314 C 0.0047 0.36778 0.04171 0.0
C2315 C 0.99456 0.37112 0.04265 0.0
C2316 C 0.98589 0.36845 0.03088 0.0
H2317 H 0.97554 0.39882 0.12135 0.0
H2318 H 0.97431 0.38623 0.09931 0.0
C2319 C 0.98744 0.36268 0.01829 0.0
C2320 C 0.9936 0.37823 0.05559 0.0
H2321 H 0.99021 0.37572 0.09134 0.0
C2322 C 0.99525 0.39135 0.05443 0.0
C2323 C 0.99141 0.37237 0.069 0.0
C2324 C 0.98884 0.35802 0.07078 0.0
C2325 C 0.99515 0.39894 0.06639 0.0
C2326 C 0.99361 0.39334 0.07989 0.0
C2327 C 0.99155 0.38005 0.081 0.0
C2328 C 0.99425 0.40116 0.09302 0.0
C2329 C 0.99662 0.41284 0.06444 0.0
C2330 C 0.00591 0.41365 0.09684 0.0
C2331 C 0.0066 0.42089 0.10936 0.0
C2332 C 0.99565 0.41572 0.11832 0.0
C2333 C 0.98405 0.40312 0.11456 0.0
C2334 C 0.98336 0.39591 0.10201 0.0
H2335 H 0.99382 0.41388 0.05343 0.0
H2336 H 0.9903 0.41471 0.07184 0.0
H2337 H 0.00726 0.42091 0.06661 0.0
H2338 H 0.01456 0.41772 0.09023 0.0
H2339 H 0.01574 0.43046 0.11212 0.0
H2340 H 0.64903 0.6033 0.03422 0.0
H2341 H 0.63573 0.58257 0.04744 0.0
H2342 H 0.62201 0.60437 0.07394 0.0
H2343 H 0.63527 0.62506 0.06095 0.0
H2344 H 0.63908 0.58117 0.07737 0.0
H2345 H 0.5872 0.56806 0.06205 0.0
H2346 H 0.60155 0.57901 0.05181 0.0
H2347 H 0.59811 0.58573 0.06761 0.0
C2348 C 0.64304 0.60362 0.04274 0.0
C2349 C 0.64315 0.61582 0.04647 0.0
C2350 C 0.63546 0.59178 0.05027 0.0
C2351 C 0.62776 0.59191 0.06151 0.0
C2352 C 0.62767 0.60399 0.06509 0.0
H2353 H 0.58377 0.54381 0.13022 0.0
H2354 H 0.59452 0.56048 0.11189 0.0
C2355 C 0.6353 0.61583 0.05766 0.0
C2356 C 0.62062 0.57982 0.07028 0.0
H2357 H 0.58973 0.55745 0.08245 0.0
C2358 C 0.62827 0.57581 0.07835 0.0
C2359 C 0.60654 0.57296 0.07153 0.0
C2360 C 0.59783 0.57655 0.0627 0.0
C2361 C 0.62226 0.56549 0.08815 0.0
C2362 C 0.6082 0.55884 0.08967 0.0
C2363 C 0.60051 0.56259 0.08128 0.0
C2364 C 0.60138 0.54846 0.1004 0.0
C2365 C 0.63108 0.56223 0.09725 0.0
C2366 C 0.60156 0.53614 0.09991 0.0
C2367 C 0.59546 0.52663 0.11039 0.0
C2368 C 0.58892 0.52921 0.12142 0.0
C2369 C 0.58863 0.54151 0.12177 0.0
C2370 C 0.59475 0.55101 0.11132 0.0
H2371 H 0.64183 0.57034 0.09703 0.0
H2372 H 0.62796 0.561 0.10841 0.0
H2373 H 0.63013 0.55244 0.09327 0.0
H2374 H 0.60645 0.53389 0.09145 0.0
H2375 H 0.59591 0.51728 0.10992 0.0
H2376 H 0.35705 0.99246 0.0365 0.0
H2377 H 0.3685 0.99361 0.05881 0.0
H2378 H 0.40464 0.02887 0.0453 0.0
H2379 H 0.39334 0.02763 0.02271 0.0
H2380 H 0.40959 0.00971 0.05493 0.0
H2381 H 0.37929 0.01867 0.09366 0.0
H2382 H 0.36889 0.00414 0.08199 0.0
H2383 H 0.37821 0.02097 0.07496 0.0
C2384 C 0.36737 0.00062 0.03832 0.0
C2385 C 0.37427 0.00994 0.02776 0.0
C2386 C 0.37389 0.00132 0.05116 0.0
C2387 C 0.38738 0.01145 0.05382 0.0
C2388 C 0.3942 0.02101 0.04349 0.0
H2389 H 0.42273 0.01353 0.13752 0.0
H2390 H 0.41634 0.02108 0.11619 0.0
C2391 C 0.38771 0.02029 0.03059 0.0
C2392 C 0.39461 0.01121 0.06684 0.0
H2393 H 0.39215 0.00884 0.10268 0.0
C2394 C 0.40591 0.00975 0.0654 0.0
C2395 C 0.38997 0.01151 0.08052 0.0
C2396 C 0.37851 0.01406 0.0829 0.0
C2397 C 0.41225 0.00782 0.07718 0.0
C2398 C 0.40694 0.00702 0.09072 0.0
C2399 C 0.39611 0.00925 0.09227 0.0
C2400 C 0.41192 0.00308 0.10326 0.0
C2401 C 0.42449 0.00655 0.07497 0.0
C2402 C 0.41155 0.99046 0.10307 0.0
C2403 C 0.41528 0.9862 0.11517 0.0
C2404 C 0.41935 0.99442 0.12774 0.0
C2405 C 0.41978 0.00708 0.12791 0.0
C2406 C 0.4161 0.01137 0.11577 0.0
H2407 H 0.42983 0.01194 0.06544 0.0
H2408 H 0.4316 0.0108 0.08428 0.0
H2409 H 0.42132 0.99555 0.0733 0.0
H2410 H 0.40799 0.9837 0.09367 0.0
H2411 H 0.41466 0.9763 0.11482 0.0
H2412 H 0.3826 0.00406 0.97701 0.0
H2413 H 0.39933 0.00271 0.96282 0.0
H2414 H 0.37238 0.95929 0.95508 0.0
H2415 H 0.3554 0.96062 0.96932 0.0
H2416 H 0.41125 0.98416 0.96357 0.0
H2417 H 0.37984 0.97835 0.91541 0.0
H2418 H 0.37746 0.98479 0.93213 0.0
H2419 H 0.37229 0.96699 0.9297 0.0
C2420 C 0.38022 0.99422 0.97235 0.0
C2421 C 0.36759 0.98252 0.97395 0.0
C2422 C 0.38986 0.99343 0.96439 0.0
C2423 C 0.38701 0.98094 0.95781 0.0
C2424 C 0.37471 0.96903 0.96005 0.0
H2425 H 0.43439 0.98733 0.88433 0.0
H2426 H 0.4182 0.97594 0.90277 0.0
C2427 C 0.36506 0.9698 0.96818 0.0
C2428 C 0.39644 0.98099 0.94744 0.0
H2429 H 0.40197 0.98387 0.91211 0.0
C2430 C 0.40917 0.98378 0.95228 0.0
C2431 C 0.39363 0.98041 0.93276 0.0
C2432 C 0.3801 0.97752 0.92708 0.0
C2433 C 0.41941 0.98671 0.9428 0.0
C2434 C 0.41692 0.98725 0.92819 0.0
C2435 C 0.40391 0.98353 0.92331 0.0
C2436 C 0.42786 0.99315 0.91797 0.0
C2437 C 0.43285 0.98948 0.94859 0.0
C2438 C 0.43876 0.00654 0.92044 0.0
C2439 C 0.44806 0.01299 0.90999 0.0
C2440 C 0.44652 0.00626 0.89678 0.0
C2441 C 0.43583 0.99273 0.89444 0.0
C2442 C 0.4266 0.98622 0.90496 0.0
H2443 H 0.43166 0.98358 0.9582 0.0
H2444 H 0.43819 0.98679 0.94063 0.0
H2445 H 0.43915 0.00054 0.9517 0.0
H2446 H 0.43974 0.01228 0.93019 0.0
H2447 H 0.45616 0.02345 0.91202 0.0
H2448 H 0.00783 0.36514 0.94911 0.0
H2449 H 0.00454 0.38261 0.93848 0.0
H2450 H 0.03318 0.41312 0.96875 0.0
H2451 H 0.03668 0.39549 0.97949 0.0
H2452 H 0.99513 0.39797 0.95368 0.0
H2453 H 0.0444 0.43108 0.92943 0.0
H2454 H 0.03909 0.41375 0.9342 0.0
H2455 H 0.04427 0.42705 0.94774 0.0
C2456 C 0.01352 0.37557 0.9535 0.0
C2457 C 0.02243 0.37893 0.96522 0.0
C2458 C 0.01163 0.38555 0.94738 0.0
C2459 C 0.01859 0.39914 0.95283 0.0
C2460 C 0.02781 0.4027 0.96431 0.0
H2461 H 0.98315 0.44606 0.91885 0.0
H2462 H 0.99461 0.43938 0.93618 0.0
C2463 C 0.02978 0.39264 0.97044 0.0
C2464 C 0.0154 0.40912 0.94669 0.0
H2465 H 0.02696 0.43542 0.92406 0.0
C2466 C 0.00214 0.40635 0.94741 0.0
C2467 C 0.02459 0.41997 0.93852 0.0
C2468 C 0.03889 0.42319 0.9373 0.0
C2469 C 0.99755 0.41355 0.93946 0.0
C2470 C 0.0066 0.4241 0.93084 0.0
C2471 C 0.02008 0.42739 0.93073 0.0
C2472 C 0.0018 0.4305 0.92055 0.0
C2473 C 0.98282 0.40911 0.93962 0.0
C2474 C 0.00266 0.42838 0.906 0.0
C2475 C 0.99635 0.43241 0.8961 0.0
C2476 C 0.98912 0.43869 0.90054 0.0
C2477 C 0.98878 0.44138 0.9151 0.0
C2478 C 0.99523 0.43747 0.92501 0.0
H2479 H 0.97679 0.39909 0.94461 0.0
H2480 H 0.98158 0.41688 0.94577 0.0
H2481 H 0.97867 0.40822 0.92871 0.0
H2482 H 0.00763 0.42298 0.90232 0.0
H2483 H 0.99663 0.43007 0.88496 0.0
H2484 H 0.60774 0.62497 0.01105 0.0
H2485 H 0.59308 0.61686 0.98983 0.0
H2486 H 0.62735 0.63941 0.96401 0.0
H2487 H 0.6422 0.6471 0.98524 0.0
H2488 H 0.58748 0.62961 0.97076 0.0
H2489 H 0.61048 0.60255 0.94414 0.0
H2490 H 0.61483 0.60918 0.9622 0.0
H2491 H 0.62216 0.62044 0.94779 0.0
C2492 C 0.61219 0.62821 0.00086 0.0
C2493 C 0.62615 0.63661 0.99981 0.0
C2494 C 0.60378 0.62355 0.98872 0.0
C2495 C 0.60911 0.6273 0.97527 0.0
C2496 C 0.62303 0.63603 0.97422 0.0
H2497 H 0.55621 0.61457 0.90178 0.0
H2498 H 0.57283 0.62476 0.92146 0.0
C2499 C 0.6315 0.64051 0.98636 0.0
C2500 C 0.59997 0.62213 0.96249 0.0
H2501 H 0.59385 0.60431 0.93083 0.0
C2502 C 0.58887 0.62405 0.96204 0.0
C2503 C 0.60167 0.61472 0.95118 0.0
C2504 C 0.61285 0.61147 0.95138 0.0
C2505 C 0.57937 0.6187 0.95071 0.0
C2506 C 0.58129 0.61166 0.9392 0.0
C2507 C 0.59244 0.60981 0.93959 0.0
C2508 C 0.5716 0.60568 0.92689 0.0
C2509 C 0.56714 0.62023 0.95148 0.0
C2510 C 0.56586 0.59171 0.92294 0.0
C2511 C 0.55661 0.58594 0.9115 0.0
C2512 C 0.55272 0.594 0.90392 0.0
C2513 C 0.55876 0.60806 0.90767 0.0
C2514 C 0.56819 0.61386 0.91896 0.0
H2515 H 0.56519 0.62207 0.96256 0.0
H2516 H 0.56881 0.62919 0.9454 0.0
H2517 H 0.55804 0.61096 0.94692 0.0
H2518 H 0.56845 0.58521 0.92879 0.0
H2519 H 0.55244 0.57516 0.90868 0.0
H2520 H 0.99894 0.64957 0.98718 0.0
H2521 H 0.00105 0.63846 0.96561 0.0
H2522 H 0.03422 0.63684 0.98514 0.0
H2523 H 0.03211 0.64775 0.00683 0.0
H2524 H 0.02238 0.64554 0.94759 0.0
H2525 H 0.00785 0.59668 0.97345 0.0
H2526 H 0.00558 0.60998 0.98157 0.0
H2527 H 0.02186 0.61151 0.98203 0.0
C2528 C 0.00677 0.64696 0.98688 0.0
C2529 C 0.01526 0.64943 0.99883 0.0
C2530 C 0.00794 0.6406 0.97453 0.0
C2531 C 0.0176 0.63656 0.97389 0.0
C2532 C 0.02649 0.63958 0.98553 0.0
H2533 H 0.03751 0.59332 0.9103 0.0
H2534 H 0.03688 0.60615 0.93133 0.0
C2535 C 0.02531 0.6459 0.9979 0.0
C2536 C 0.01818 0.62895 0.96115 0.0
H2537 H 0.01517 0.59848 0.94995 0.0
C2538 C 0.02077 0.63524 0.94808 0.0
C2539 C 0.01603 0.61549 0.96183 0.0
C2540 C 0.01255 0.60794 0.97544 0.0
C2541 C 0.0215 0.62852 0.93571 0.0
C2542 C 0.0194 0.61508 0.93641 0.0
C2543 C 0.01682 0.6088 0.94947 0.0
C2544 C 0.01972 0.60731 0.92369 0.0
C2545 C 0.02475 0.63591 0.92202 0.0
C2546 C 0.01018 0.60358 0.91254 0.0
C2547 C 0.01046 0.59618 0.90058 0.0
C2548 C 0.0202 0.59225 0.89964 0.0
C2549 C 0.02976 0.59601 0.91085 0.0
C2550 C 0.02944 0.60338 0.92282 0.0
H2551 H 0.02924 0.64716 0.92387 0.0
H2552 H 0.03181 0.634 0.91591 0.0
H2553 H 0.01537 0.63205 0.91545 0.0
H2554 H 0.00248 0.60636 0.9131 0.0
H2555 H 0.00309 0.59357 0.89204 0.0
H2556 H 0.38053 0.38239 0.96768 0.0
H2557 H 0.39345 0.40321 0.95454 0.0
H2558 H 0.36335 0.41436 0.96216 0.0
H2559 H 0.35097 0.3941 0.97603 0.0
H2560 H 0.38796 0.40982 0.93146 0.0
H2561 H 0.395 0.45065 0.96967 0.0
H2562 H 0.3889 0.43333 0.97493 0.0
H2563 H 0.37743 0.43835 0.96792 0.0
C2564 C 0.37684 0.38944 0.96675 0.0
C2565 C 0.36479 0.38668 0.9729 0.0
C2566 C 0.38422 0.40135 0.95924 0.0
C2567 C 0.37955 0.41058 0.95752 0.0
C2568 C 0.36751 0.40778 0.96375 0.0
H2569 H 0.38686 0.45612 0.88498 0.0
H2570 H 0.38318 0.43905 0.90223 0.0
C2571 C 0.36034 0.3961 0.97158 0.0
C2572 C 0.38649 0.42238 0.94814 0.0
H2573 H 0.39474 0.4557 0.94477 0.0
C2574 C 0.3897 0.41993 0.93451 0.0
C2575 C 0.38919 0.43574 0.95212 0.0
C2576 C 0.38759 0.43968 0.96703 0.0
C2577 C 0.3947 0.43017 0.92453 0.0
C2578 C 0.3959 0.44302 0.928 0.0
C2579 C 0.39353 0.44576 0.94191 0.0
C2580 C 0.39872 0.45341 0.91722 0.0
C2581 C 0.39863 0.42701 0.9104 0.0
C2582 C 0.40832 0.46732 0.92003 0.0
C2583 C 0.41008 0.4772 0.91037 0.0
C2584 C 0.40242 0.47332 0.89755 0.0
C2585 C 0.39301 0.45938 0.89468 0.0
C2586 C 0.39102 0.44959 0.90448 0.0
H2587 H 0.40238 0.41974 0.91149 0.0
H2588 H 0.38966 0.42199 0.90308 0.0
H2589 H 0.40653 0.43643 0.9056 0.0
H2590 H 0.41432 0.47058 0.92983 0.0
H2591 H 0.41732 0.48786 0.91303 0.0
H2592 H 0.65179 0.00837 0.99178 0.0
H2593 H 0.63877 0.00517 0.96991 0.0
H2594 H 0.60417 0.97096 0.98727 0.0
H2595 H 0.61701 0.9742 0.00931 0.0
H2596 H 0.62475 0.98304 0.95048 0.0
H2597 H 0.59044 0.99678 0.97729 0.0
H2598 H 0.60587 0.99965 0.98564 0.0
H2599 H 0.59123 0.98277 0.98476 0.0
C2600 C 0.64144 8e-05 0.99094 0.0
C2601 C 0.63541 0.99166 0.0024 0.0
C2602 C 0.63402 0.99827 0.97841 0.0
C2603 C 0.62044 0.98802 0.97709 0.0
C2604 C 0.61456 0.97914 0.9882 0.0
H2605 H 0.55914 0.96867 0.91098 0.0
H2606 H 0.57178 0.96808 0.9318 0.0
C2607 C 0.62195 0.98097 0.00077 0.0
C2608 C 0.61234 0.98698 0.96429 0.0
H2609 H 0.58554 0.98975 0.9531 0.0
C2610 C 0.61617 0.98449 0.95104 0.0
C2611 C 0.60117 0.98893 0.96506 0.0
C2612 C 0.59697 0.9923 0.97892 0.0
C2613 C 0.60907 0.9838 0.93854 0.0
C2614 C 0.59796 0.98582 0.93933 0.0
C2615 C 0.59404 0.98816 0.95257 0.0
C2616 C 0.59048 0.98594 0.92652 0.0
C2617 C 0.61341 0.9808 0.92459 0.0
C2618 C 0.59682 0.99624 0.91674 0.0
C2619 C 0.58961 0.99667 0.90494 0.0
C2620 C 0.5759 0.98691 0.90279 0.0
C2621 C 0.56963 0.97648 0.91251 0.0
C2622 C 0.57684 0.97609 0.92435 0.0
H2623 H 0.61989 0.97624 0.92606 0.0
H2624 H 0.60456 0.97369 0.91768 0.0
H2625 H 0.61923 0.99052 0.91904 0.0
H2626 H 0.60731 0.00403 0.91833 0.0
H2627 H 0.59473 0.00469 0.89751 0.0
H2628 H 0.6379 0.00531 0.06701 0.0
H2629 H 0.6212 0.00877 0.07882 0.0
H2630 H 0.63259 0.04481 0.05501 0.0
H2631 H 0.64947 0.04144 0.04309 0.0
H2632 H 0.6316 0.04901 0.08391 0.0
H2633 H 0.58498 0.00241 0.06416 0.0
H2634 H 0.59716 0.99862 0.07139 0.0
H2635 H 0.60086 0.00855 0.05583 0.0
C2636 C 0.63674 0.01385 0.06408 0.0
C2637 C 0.64495 0.02304 0.05402 0.0
C2638 C 0.62713 0.01578 0.07082 0.0
C2639 C 0.62548 0.02689 0.06759 0.0
C2640 C 0.63363 0.03609 0.05754 0.0
H2641 H 0.57646 0.05426 0.11249 0.0
H2642 H 0.58991 0.05154 0.09423 0.0
C2643 C 0.64326 0.03416 0.05076 0.0
C2644 C 0.6159 0.02934 0.07552 0.0
H2645 H 0.58325 0.0138 0.08521 0.0
C2646 C 0.62098 0.04144 0.08401 0.0
C2647 C 0.60206 0.01943 0.07562 0.0
C2648 C 0.59591 0.00658 0.06615 0.0
C2649 C 0.61271 0.04358 0.09315 0.0
C2650 C 0.59899 0.03342 0.09365 0.0
C2651 C 0.5938 0.02154 0.08481 0.0
C2652 C 0.59011 0.03455 0.10399 0.0
C2653 C 0.6188 0.05638 0.10269 0.0
C2654 C 0.58555 0.02569 0.11527 0.0
C2655 C 0.57793 0.02723 0.12567 0.0
C2656 C 0.5746 0.03757 0.12487 0.0
C2657 C 0.57887 0.04619 0.11332 0.0
C2658 C 0.58656 0.04468 0.10295 0.0
H2659 H 0.62995 0.06217 0.10258 0.0
H2660 H 0.61512 0.06321 0.09912 0.0
H2661 H 0.61572 0.05375 0.11375 0.0
H2662 H 0.58821 0.01781 0.11622 0.0
H2663 H 0.57483 0.02049 0.13448 0.0
H2664 H 0.9641 0.6237 0.05248 0.0
H2665 H 0.95997 0.60401 0.0663 0.0
H2666 H 0.00099 0.61404 0.06113 0.0
H2667 H 0.00528 0.63412 0.04801 0.0
H2668 H 0.96045 0.58163 0.06169 0.0
H2669 H 0.99989 0.6126 0.10287 0.0
H2670 H 0.99507 0.62035 0.08933 0.0
H2671 H 0.00667 0.61449 0.08564 0.0
C2672 C 0.9722 0.62165 0.0543 0.0
C2673 C 0.98507 0.63054 0.04946 0.0
C2674 C 0.96985 0.61042 0.06219 0.0
C2675 C 0.98028 0.60775 0.06515 0.0
C2676 C 0.99293 0.61618 0.05953 0.0
H2677 H 0.96408 0.52983 0.09947 0.0
H2678 H 0.96915 0.54861 0.08391 0.0
C2679 C 0.99536 0.62762 0.05196 0.0
C2680 C 0.97791 0.59625 0.07423 0.0
H2681 H 0.98989 0.58841 0.10363 0.0
C2682 C 0.96686 0.58313 0.0709 0.0
C2683 C 0.98613 0.59822 0.0864 0.0
C2684 C 0.9975 0.6122 0.09137 0.0
C2685 C 0.9638 0.57197 0.07935 0.0
C2686 C 0.97237 0.57382 0.09116 0.0
C2687 C 0.98341 0.58693 0.09449 0.0
C2688 C 0.96979 0.56249 0.10059 0.0
C2689 C 0.95116 0.55845 0.07578 0.0
C2690 C 0.96905 0.56421 0.11525 0.0
C2691 C 0.9666 0.55365 0.12423 0.0
C2692 C 0.96478 0.5411 0.11877 0.0
C2693 C 0.96556 0.53939 0.10408 0.0
C2694 C 0.96827 0.55007 0.09512 0.0
H2695 H 0.94379 0.55987 0.06943 0.0
H2696 H 0.95372 0.55176 0.06937 0.0
H2697 H 0.94628 0.55309 0.08549 0.0
H2698 H 0.9702 0.57368 0.11975 0.0
H2699 H 0.96592 0.55519 0.13547 0.0
H2700 H 0.39785 0.3636 0.00779 0.0
H2701 H 0.41218 0.3698 0.02921 0.0
H2702 H 0.3802 0.36739 0.05412 0.0
H2703 H 0.36574 0.36124 0.03272 0.0
H2704 H 0.40591 0.39193 0.0591 0.0
H2705 H 0.40913 0.3446 0.06162 0.0
H2706 H 0.41295 0.35257 0.04483 0.0
H2707 H 0.39625 0.34535 0.05122 0.0
C2708 C 0.39379 0.36429 0.01781 0.0
C2709 C 0.3806 0.36188 0.01851 0.0
C2710 C 0.40199 0.36778 0.03006 0.0
C2711 C 0.39719 0.36891 0.04325 0.0
C2712 C 0.38406 0.36651 0.04403 0.0
H2713 H 0.43236 0.39283 0.1287 0.0
H2714 H 0.41809 0.38718 0.10721 0.0
C2715 C 0.37581 0.36296 0.03178 0.0
C2716 C 0.40605 0.37305 0.05616 0.0
H2717 H 0.42349 0.36312 0.07748 0.0
C2718 C 0.40972 0.38562 0.06319 0.0
C2719 C 0.41104 0.36481 0.06137 0.0
C2720 C 0.40708 0.35102 0.05447 0.0
C2721 C 0.41846 0.39031 0.07519 0.0
C2722 C 0.42342 0.38205 0.08045 0.0
C2723 C 0.41972 0.36946 0.07341 0.0
C2724 C 0.43231 0.38614 0.09336 0.0
C2725 C 0.42256 0.40422 0.0819 0.0
C2726 C 0.44493 0.38717 0.09278 0.0
C2727 C 0.45304 0.39029 0.10506 0.0
C2728 C 0.44872 0.39255 0.11815 0.0
C2729 C 0.43607 0.39149 0.1187 0.0
C2730 C 0.42794 0.3883 0.10643 0.0
H2731 H 0.4211 0.41078 0.07439 0.0
H2732 H 0.41626 0.40288 0.09112 0.0
H2733 H 0.43324 0.40964 0.08568 0.0
H2734 H 0.44844 0.38539 0.08284 0.0
H2735 H 0.4626 0.39072 0.10438 0.0
H2736 H 0.66018 0.68453 0.37234 0.0
H2737 H 0.6526 0.69111 0.39362 0.0
H2738 H 0.63943 0.71355 0.36823 0.0
H2739 H 0.64644 0.70659 0.34696 0.0
H2740 H 0.66042 0.71514 0.40589 0.0
H2741 H 0.60677 0.69211 0.39034 0.0
H2742 H 0.61793 0.68842 0.38056 0.0
H2743 H 0.61716 0.70367 0.37737 0.0
C2744 C 0.65554 0.69075 0.37129 0.0
C2745 C 0.65379 0.69491 0.35793 0.0
C2746 C 0.65122 0.69452 0.38346 0.0
C2747 C 0.64516 0.70259 0.38252 0.0
C2748 C 0.64364 0.70693 0.36921 0.0
H2749 H 0.64183 0.75416 0.4499 0.0
H2750 H 0.64781 0.74431 0.43004 0.0
C2751 C 0.64775 0.70301 0.35704 0.0
C2752 C 0.64097 0.707 0.39547 0.0
H2753 H 0.61504 0.70938 0.40923 0.0
C2754 C 0.65044 0.71374 0.40669 0.0
C2755 C 0.62788 0.70495 0.39668 0.0
C2756 C 0.61682 0.69676 0.38565 0.0
C2757 C 0.64733 0.71887 0.41885 0.0
C2758 C 0.63454 0.71767 0.4196 0.0
C2759 C 0.62493 0.71053 0.40859 0.0
C2760 C 0.63087 0.72373 0.43166 0.0
C2761 C 0.65775 0.72531 0.43081 0.0
C2762 C 0.61907 0.71562 0.43889 0.0
C2763 C 0.61538 0.72134 0.44997 0.0
C2764 C 0.62341 0.73531 0.4541 0.0
C2765 C 0.6353 0.74341 0.44692 0.0
C2766 C 0.63886 0.73773 0.43567 0.0
H2767 H 0.66475 0.72127 0.43072 0.0
H2768 H 0.66379 0.73655 0.42955 0.0
H2769 H 0.65303 0.72342 0.44126 0.0
H2770 H 0.61272 0.70481 0.436 0.0
H2771 H 0.60626 0.71483 0.45542 0.0
H2772 H 0.30854 0.93712 0.37427 0.0
H2773 H 0.29492 0.91716 0.38831 0.0
H2774 H 0.2844 0.94156 0.4151 0.0
H2775 H 0.29797 0.96156 0.40113 0.0
H2776 H 0.29957 0.91626 0.41758 0.0
H2777 H 0.24802 0.90633 0.406 0.0
H2778 H 0.26194 0.91654 0.39493 0.0
H2779 H 0.2601 0.92379 0.4113 0.0
C2780 C 0.30317 0.9382 0.38302 0.0
C2781 C 0.30431 0.95093 0.38656 0.0
C2782 C 0.2954 0.92679 0.39103 0.0
C2783 C 0.28854 0.92785 0.40264 0.0
C2784 C 0.28941 0.94045 0.40601 0.0
H2785 H 0.24507 0.8765 0.47117 0.0
H2786 H 0.25553 0.89453 0.45402 0.0
C2787 C 0.29721 0.95189 0.39803 0.0
C2788 C 0.28137 0.91611 0.41188 0.0
H2789 H 0.25067 0.89439 0.42496 0.0
C2790 C 0.28886 0.91138 0.41911 0.0
C2791 C 0.26742 0.90987 0.4139 0.0
C2792 C 0.25884 0.91429 0.40605 0.0
C2793 C 0.28284 0.90077 0.4286 0.0
C2794 C 0.26888 0.89451 0.43065 0.0
C2795 C 0.26136 0.89919 0.42334 0.0
C2796 C 0.26197 0.88329 0.44057 0.0
C2797 C 0.29156 0.89665 0.43666 0.0
C2798 C 0.26193 0.87091 0.43854 0.0
C2799 C 0.25602 0.86065 0.44833 0.0
C2800 C 0.24985 0.86247 0.46021 0.0
C2801 C 0.24964 0.87477 0.46203 0.0
C2802 C 0.25561 0.88505 0.45227 0.0
H2803 H 0.30235 0.90471 0.43666 0.0
H2804 H 0.28852 0.89455 0.4478 0.0
H2805 H 0.29048 0.88715 0.43159 0.0
H2806 H 0.26658 0.86925 0.42944 0.0
H2807 H 0.2564 0.85133 0.4467 0.0
H2808 H 0.0704 0.35831 0.34548 0.0
H2809 H 0.08405 0.36686 0.36743 0.0
H2810 H 0.05045 0.338 0.39094 0.0
H2811 H 0.03655 0.32934 0.36898 0.0
H2812 H 0.0748 0.37616 0.39539 0.0
H2813 H 0.08601 0.33373 0.3988 0.0
H2814 H 0.08244 0.33862 0.38197 0.0
H2815 H 0.06922 0.32989 0.39403 0.0
C2816 C 0.06585 0.35373 0.35528 0.0
C2817 C 0.05236 0.34309 0.35544 0.0
C2818 C 0.07368 0.35867 0.36781 0.0
C2819 C 0.06824 0.35301 0.38072 0.0
C2820 C 0.0548 0.34244 0.38102 0.0
H2821 H 0.11206 0.36931 0.46197 0.0
H2822 H 0.09487 0.35914 0.44275 0.0
C2823 C 0.04689 0.33754 0.36847 0.0
C2824 C 0.07676 0.35823 0.39382 0.0
H2825 H 0.09664 0.35198 0.41579 0.0
C2826 C 0.07951 0.37085 0.39996 0.0
C2827 C 0.08276 0.35119 0.39972 0.0
C2828 C 0.08005 0.3376 0.39335 0.0
C2829 C 0.08831 0.37676 0.41183 0.0
C2830 C 0.0948 0.37001 0.41741 0.0
C2831 C 0.09173 0.35718 0.41146 0.0
C2832 C 0.10509 0.37627 0.42913 0.0
C2833 C 0.09048 0.39011 0.41832 0.0
C2834 C 0.11663 0.38917 0.42778 0.0
C2835 C 0.12638 0.39503 0.43876 0.0
C2836 C 0.12491 0.38798 0.45123 0.0
C2837 C 0.11344 0.37496 0.45248 0.0
C2838 C 0.10364 0.36915 0.44152 0.0
H2839 H 0.08183 0.39155 0.41587 0.0
H2840 H 0.09202 0.39061 0.43 0.0
H2841 H 0.09952 0.39877 0.41388 0.0
H2842 H 0.11815 0.39469 0.41817 0.0
H2843 H 0.13511 0.40506 0.43749 0.0
H2844 H 0.03933 0.31609 0.29029 0.0
H2845 H 0.0524 0.30758 0.27841 0.0
H2846 H 0.04473 0.27954 0.31181 0.0
H2847 H 0.03116 0.28773 0.32357 0.0
H2848 H 0.07465 0.30792 0.28627 0.0
H2849 H 0.03349 0.25391 0.27744 0.0
H2850 H 0.03052 0.26736 0.28358 0.0
H2851 H 0.03676 0.25972 0.29571 0.0
C2852 C 0.04042 0.30812 0.29514 0.0
C2853 C 0.03418 0.30254 0.30784 0.0
C2854 C 0.04791 0.30326 0.28833 0.0
C2855 C 0.04939 0.29278 0.29409 0.0
C2856 C 0.04344 0.28739 0.30697 0.0
H2857 H 0.11623 0.27723 0.25644 0.0
H2858 H 0.10189 0.28596 0.27478 0.0
C2859 C 0.03577 0.29214 0.31373 0.0
C2860 C 0.05725 0.28767 0.2865 0.0
H2861 H 0.05508 0.2591 0.27063 0.0
C2862 C 0.07039 0.29723 0.28287 0.0
C2863 C 0.05161 0.27376 0.28189 0.0
C2864 C 0.03729 0.2631 0.28472 0.0
C2865 C 0.07796 0.29336 0.27453 0.0
C2866 C 0.07242 0.27939 0.27016 0.0
C2867 C 0.05936 0.26979 0.27399 0.0
C2868 C 0.07957 0.2745 0.26108 0.0
C2869 C 0.09147 0.30447 0.26993 0.0
C2870 C 0.07019 0.26253 0.24646 0.0
C2871 C 0.07811 0.25599 0.23496 0.0
C2872 C 0.09667 0.26461 0.23755 0.0
C2873 C 0.10567 0.27359 0.25453 0.0
C2874 C 0.09684 0.27955 0.26543 0.0
H2875 H 0.09219 0.31466 0.27026 0.0
H2876 H 0.09944 0.30523 0.27727 0.0
H2877 H 0.09346 0.30231 0.25903 0.0
H2878 H 0.05974 0.25935 0.24448 0.0
H2879 H 0.07293 0.24985 0.22547 0.0
H2880 H 0.71076 0.72942 0.32547 0.0
H2881 H 0.71852 0.75076 0.31303 0.0
H2882 H 0.68297 0.73084 0.28564 0.0
H2883 H 0.67522 0.70954 0.29783 0.0
H2884 H 0.72292 0.75315 0.28299 0.0
H2885 H 0.68542 0.76735 0.29927 0.0
H2886 H 0.68869 0.75575 0.30901 0.0
H2887 H 0.67838 0.74982 0.293 0.0
C2888 C 0.70451 0.72964 0.31692 0.0
C2889 C 0.69231 0.71779 0.31272 0.0
C2890 C 0.70897 0.74182 0.30983 0.0
C2891 C 0.70122 0.7424 0.29856 0.0
C2892 C 0.68896 0.73067 0.29449 0.0
H2893 H 0.70719 0.79608 0.23315 0.0
H2894 H 0.70045 0.77804 0.25025 0.0
C2895 C 0.68455 0.71848 0.30148 0.0
C2896 C 0.7063 0.75492 0.29034 0.0
H2897 H 0.6987 0.77891 0.27974 0.0
C2898 C 0.71776 0.75892 0.28241 0.0
C2899 C 0.69946 0.76232 0.28957 0.0
C2900 C 0.68736 0.7587 0.29825 0.0
C2901 C 0.72228 0.76985 0.27326 0.0
C2902 C 0.7153 0.77713 0.2723 0.0
C2903 C 0.70402 0.7733 0.28049 0.0
C2904 C 0.71926 0.78841 0.26244 0.0
C2905 C 0.73413 0.77313 0.26428 0.0
C2906 C 0.73198 0.8003 0.26378 0.0
C2907 C 0.73585 0.81059 0.25403 0.0
C2908 C 0.72698 0.80928 0.24289 0.0
C2909 C 0.71415 0.79745 0.24174 0.0
C2910 C 0.71031 0.78715 0.25147 0.0
H2911 H 0.73627 0.76459 0.26377 0.0
H2912 H 0.73237 0.77533 0.25333 0.0
H2913 H 0.74318 0.78237 0.26892 0.0
H2914 H 0.73896 0.80156 0.2723 0.0
H2915 H 0.74583 0.81953 0.25509 0.0
H2916 H 0.30567 0.97598 0.32363 0.0
H2917 H 0.29112 0.9687 0.30217 0.0
H2918 H 0.25737 0.96098 0.32724 0.0
H2919 H 0.27172 0.96818 0.34871 0.0
H2920 H 0.25291 0.93904 0.30741 0.0
H2921 H 0.27433 0.98974 0.28288 0.0
H2922 H 0.28614 0.98471 0.2885 0.0
H2923 H 0.27687 0.98807 0.30146 0.0
C2924 C 0.29517 0.97281 0.32458 0.0
C2925 C 0.28989 0.9727 0.33792 0.0
C2926 C 0.28689 0.9687 0.3123 0.0
C2927 C 0.27322 0.96441 0.31315 0.0
C2928 C 0.26792 0.96429 0.32639 0.0
H2929 H 0.21301 0.95086 0.24914 0.0
H2930 H 0.22884 0.95851 0.26958 0.0
C2931 C 0.27617 0.96845 0.33865 0.0
C2932 C 0.26426 0.95966 0.3003 0.0
H2933 H 0.25744 0.97051 0.26958 0.0
C2934 C 0.25391 0.94589 0.2991 0.0
C2935 C 0.26555 0.96868 0.28959 0.0
C2936 C 0.27625 0.98366 0.29063 0.0
C2937 C 0.24478 0.94088 0.28743 0.0
C2938 C 0.24615 0.94986 0.27664 0.0
C2939 C 0.25649 0.96364 0.27785 0.0
C2940 C 0.23669 0.94523 0.26421 0.0
C2941 C 0.23357 0.9261 0.28688 0.0
C2942 C 0.236 0.93536 0.25435 0.0
C2943 C 0.22696 0.93096 0.2427 0.0
C2944 C 0.21837 0.93628 0.24078 0.0
C2945 C 0.2193 0.94638 0.25052 0.0
C2946 C 0.22837 0.9508 0.26214 0.0
H2947 H 0.23224 0.92139 0.29732 0.0
H2948 H 0.22393 0.92525 0.28337 0.0
H2949 H 0.2359 0.92011 0.27912 0.0
H2950 H 0.24254 0.93115 0.25561 0.0
H2951 H 0.22669 0.92342 0.23516 0.0
H2952 H 0.69854 0.96826 0.34729 0.0
H2953 H 0.70679 0.96292 0.32584 0.0
H2954 H 0.67503 0.96283 0.30105 0.0
H2955 H 0.66685 0.96845 0.32239 0.0
H2956 H 0.69425 0.94071 0.30718 0.0
H2957 H 0.70792 0.98849 0.27961 0.0
H2958 H 0.70414 0.98665 0.29813 0.0
H2959 H 0.69078 0.97942 0.2848 0.0
C2960 C 0.69333 0.96718 0.33728 0.0
C2961 C 0.68207 0.96888 0.33659 0.0
C2962 C 0.69806 0.9641 0.32502 0.0
C2963 C 0.69166 0.96268 0.31181 0.0
C2964 C 0.68032 0.96419 0.31108 0.0
H2965 H 0.70472 0.94314 0.22617 0.0
H2966 H 0.69527 0.94677 0.24776 0.0
C2967 C 0.67562 0.96734 0.32333 0.0
C2968 C 0.69671 0.95936 0.29884 0.0
H2969 H 0.70859 0.97079 0.26619 0.0
C2970 C 0.69743 0.94731 0.29824 0.0
C2971 C 0.70089 0.968 0.28719 0.0
C2972 C 0.70103 0.98143 0.28747 0.0
C2973 C 0.70202 0.94357 0.28621 0.0
C2974 C 0.7061 0.95216 0.27455 0.0
C2975 C 0.70537 0.96419 0.27514 0.0
C2976 C 0.71138 0.94901 0.2617 0.0
C2977 C 0.70227 0.93034 0.28597 0.0
C2978 C 0.72357 0.94908 0.2624 0.0
C2979 C 0.72897 0.94701 0.25009 0.0
C2980 C 0.72222 0.94473 0.23687 0.0
C2981 C 0.70999 0.9446 0.23624 0.0
C2982 C 0.70462 0.94673 0.24854 0.0
H2983 H 0.69598 0.92343 0.29426 0.0
H2984 H 0.69868 0.92484 0.27548 0.0
H2985 H 0.71275 0.9327 0.28792 0.0
H2986 H 0.72909 0.95112 0.27241 0.0
H2987 H 0.73858 0.94752 0.25086 0.0
H2988 H 0.03134 0.74397 0.32103 0.0
H2989 H 0.04132 0.76344 0.30543 0.0
H2990 H 0.05896 0.74395 0.28142 0.0
H2991 H 0.04905 0.72452 0.29678 0.0
H2992 H 0.07139 0.78095 0.2945 0.0
H2993 H 0.03016 0.74824 0.25508 0.0
H2994 H 0.02871 0.74519 0.27379 0.0
H2995 H 0.03886 0.74066 0.26341 0.0
C2996 C 0.03758 0.74397 0.31262 0.0
C2997 C 0.03933 0.73265 0.3101 0.0
C2998 C 0.04328 0.7551 0.30375 0.0
C2999 C 0.05078 0.75503 0.29228 0.0
C3000 C 0.05318 0.74414 0.29024 0.0
H3001 H 0.07379 0.79737 0.21422 0.0
H3002 H 0.06999 0.78237 0.23391 0.0
C3003 C 0.04751 0.73305 0.29906 0.0
C3004 C 0.05488 0.76549 0.2815 0.0
H3005 H 0.04692 0.76982 0.2479 0.0
C3006 C 0.06605 0.77861 0.28431 0.0
C3007 C 0.04788 0.76229 0.26827 0.0
C3008 C 0.03567 0.74837 0.26489 0.0
C3009 C 0.07059 0.78859 0.27401 0.0
C3010 C 0.06357 0.78537 0.26073 0.0
C3011 C 0.05233 0.77225 0.25805 0.0
C3012 C 0.06755 0.79536 0.24938 0.0
C3013 C 0.08303 0.80234 0.2773 0.0
C3014 C 0.06761 0.80773 0.25158 0.0
C3015 C 0.0699 0.81637 0.24036 0.0
C3016 C 0.07202 0.8127 0.22672 0.0
C3017 C 0.07225 0.80047 0.22463 0.0
C3018 C 0.07006 0.7919 0.23586 0.0
H3019 H 0.08925 0.80183 0.28609 0.0
H3020 H 0.08926 0.80616 0.26786 0.0
H3021 H 0.08002 0.80988 0.28059 0.0
H3022 H 0.06538 0.81046 0.26182 0.0
H3023 H 0.06957 0.82569 0.24221 0.0
H3024 H 0.30192 0.3325 0.31902 0.0
H3025 H 0.2885 0.32352 0.29691 0.0
H3026 H 0.25539 0.2929 0.3197 0.0
H3027 H 0.26871 0.30171 0.34188 0.0
H3028 H 0.26164 0.28274 0.2948 0.0
H3029 H 0.25646 0.32807 0.28458 0.0
H3030 H 0.27337 0.33175 0.28783 0.0
H3031 H 0.26157 0.32522 0.30171 0.0
C3032 C 0.29178 0.32386 0.31937 0.0
C3033 C 0.28639 0.31787 0.33228 0.0
C3034 C 0.2841 0.3188 0.30672 0.0
C3035 C 0.27089 0.30769 0.30672 0.0
C3036 C 0.26554 0.30155 0.31951 0.0
H3037 H 0.20989 0.25898 0.24088 0.0
H3038 H 0.22226 0.26873 0.2635 0.0
C3039 C 0.27319 0.30662 0.33217 0.0
C3040 C 0.26274 0.30225 0.29334 0.0
H3041 H 0.24852 0.31064 0.26636 0.0
C3042 C 0.2587 0.2888 0.2886 0.0
C3043 C 0.25899 0.31022 0.28528 0.0
C3044 C 0.2627 0.32458 0.29012 0.0
C3045 C 0.25121 0.28316 0.27585 0.0
C3046 C 0.24739 0.2911 0.2678 0.0
C3047 C 0.25142 0.30456 0.27256 0.0
C3048 C 0.23943 0.28571 0.25427 0.0
C3049 C 0.24779 0.2689 0.27093 0.0
C3050 C 0.24473 0.29232 0.24166 0.0
C3051 C 0.23758 0.2869 0.22877 0.0
C3052 C 0.22494 0.27484 0.22827 0.0
C3053 C 0.21952 0.26839 0.24096 0.0
C3054 C 0.22665 0.27386 0.25386 0.0
H3055 H 0.25444 0.26575 0.27618 0.0
H3056 H 0.2373 0.26148 0.2736 0.0
H3057 H 0.24862 0.26821 0.25929 0.0
H3058 H 0.25457 0.30149 0.24175 0.0
H3059 H 0.24207 0.29196 0.21913 0.0
H3060 H 0.29397 0.34141 0.39636 0.0
H3061 H 0.28348 0.35027 0.41233 0.0
H3062 H 0.29564 0.38509 0.38634 0.0
H3063 H 0.30612 0.37626 0.37018 0.0
H3064 H 0.30001 0.37671 0.42613 0.0
H3065 H 0.2563 0.37329 0.39649 0.0
H3066 H 0.26344 0.36275 0.39176 0.0
H3067 H 0.27179 0.38045 0.38732 0.0
C3068 C 0.29413 0.35077 0.3938 0.0
C3069 C 0.30094 0.35818 0.38203 0.0
C3070 C 0.28813 0.35581 0.40296 0.0
C3071 C 0.28873 0.36828 0.40046 0.0
C3072 C 0.29488 0.37534 0.38832 0.0
H3073 H 0.27413 0.42403 0.45151 0.0
H3074 H 0.27806 0.41173 0.43211 0.0
C3075 C 0.30093 0.37031 0.37915 0.0
C3076 C 0.28456 0.37473 0.41151 0.0
H3077 H 0.26263 0.38583 0.41859 0.0
C3078 C 0.29176 0.37861 0.42454 0.0
C3079 C 0.27395 0.37735 0.40927 0.0
C3080 C 0.26582 0.37318 0.3955 0.0
C3081 C 0.28876 0.38521 0.43538 0.0
C3082 C 0.27799 0.38766 0.43327 0.0
C3083 C 0.2708 0.38384 0.4202 0.0
C3084 C 0.27428 0.3944 0.44451 0.0
C3085 C 0.2974 0.38985 0.44885 0.0
C3086 C 0.27047 0.38853 0.45773 0.0
C3087 C 0.2684 0.39559 0.46882 0.0
C3088 C 0.26986 0.40853 0.4668 0.0
C3089 C 0.273 0.41408 0.45333 0.0
C3090 C 0.27519 0.40706 0.44227 0.0
H3091 H 0.30726 0.39059 0.44727 0.0
H3092 H 0.29923 0.4 0.45288 0.0
H3093 H 0.2922 0.38229 0.45707 0.0
H3094 H 0.26944 0.37863 0.45958 0.0
H3095 H 0.26592 0.39105 0.47907 0.0
H3096 H 0.62186 0.93758 0.3785 0.0
H3097 H 0.61395 0.91775 0.39319 0.0
H3098 H 0.65495 0.9298 0.40454 0.0
H3099 H 0.66288 0.95022 0.39051 0.0
H3100 H 0.6159 0.89626 0.39325 0.0
H3101 H 0.64111 0.92653 0.44294 0.0
H3102 H 0.64085 0.93453 0.42684 0.0
H3103 H 0.6526 0.92865 0.42941 0.0
C3104 C 0.6292 0.93598 0.38409 0.0
C3105 C 0.64298 0.94553 0.38351 0.0
C3106 C 0.62467 0.92462 0.39249 0.0
C3107 C 0.63382 0.9224 0.40029 0.0
C3108 C 0.64766 0.93153 0.39907 0.0
H3109 H 0.5971 0.84337 0.44247 0.0
H3110 H 0.61093 0.86164 0.42674 0.0
C3111 C 0.65219 0.94314 0.39095 0.0
C3112 C 0.62866 0.91068 0.40985 0.0
H3113 H 0.6291 0.90251 0.44427 0.0
C3114 C 0.61881 0.89763 0.40441 0.0
C3115 C 0.63238 0.91245 0.42445 0.0
C3116 C 0.64221 0.92631 0.4313 0.0
C3117 C 0.61215 0.88649 0.41321 0.0
C3118 C 0.61595 0.88824 0.42779 0.0
C3119 C 0.62622 0.90114 0.4331 0.0
C3120 C 0.60864 0.87727 0.43797 0.0
C3121 C 0.60062 0.87325 0.40686 0.0
C3122 C 0.60342 0.88011 0.45006 0.0
C3123 C 0.59594 0.86982 0.45938 0.0
C3124 C 0.59321 0.85634 0.4567 0.0
C3125 C 0.59879 0.85357 0.44481 0.0
C3126 C 0.60661 0.864 0.43568 0.0
H3127 H 0.59667 0.87486 0.39674 0.0
H3128 H 0.60414 0.86593 0.40457 0.0
H3129 H 0.59223 0.86851 0.41423 0.0
H3130 H 0.6049 0.89026 0.45216 0.0
H3131 H 0.59199 0.87232 0.46856 0.0
H3132 H 0.03878 0.70897 0.373 0.0
H3133 H 0.05117 0.71406 0.39573 0.0
H3134 H 0.08533 0.71735 0.37441 0.0
H3135 H 0.07319 0.7126 0.35167 0.0
H3136 H 0.06144 0.69998 0.40862 0.0
H3137 H 0.10266 0.75247 0.39864 0.0
H3138 H 0.0876 0.74368 0.38746 0.0
H3139 H 0.10098 0.74005 0.3853 0.0
C3140 C 0.04896 0.71086 0.37313 0.0
C3141 C 0.05501 0.71046 0.36047 0.0
C3142 C 0.05603 0.71377 0.38614 0.0
C3143 C 0.06927 0.71636 0.38675 0.0
C3144 C 0.07526 0.71578 0.37417 0.0
H3145 H 0.1263 0.72417 0.45164 0.0
H3146 H 0.11398 0.72248 0.42957 0.0
C3147 C 0.06825 0.71296 0.36117 0.0
C3148 C 0.07665 0.71909 0.40057 0.0
H3149 H 0.1059 0.74176 0.41859 0.0
C3150 C 0.07109 0.70919 0.41086 0.0
C3151 C 0.08925 0.73112 0.40348 0.0
C3152 C 0.09541 0.7425 0.39319 0.0
C3153 C 0.07796 0.71078 0.42381 0.0
C3154 C 0.09067 0.72265 0.42657 0.0
C3155 C 0.09617 0.73266 0.41639 0.0
C3156 C 0.09854 0.72465 0.43985 0.0
C3157 C 0.07178 0.69959 0.4343 0.0
C3158 C 0.09404 0.72671 0.45287 0.0
C3159 C 0.10111 0.7278 0.46546 0.0
C3160 C 0.11284 0.72695 0.46522 0.0
C3161 C 0.11743 0.72512 0.45212 0.0
C3162 C 0.11039 0.72409 0.43953 0.0
H3163 H 0.06314 0.69003 0.42953 0.0
H3164 H 0.07936 0.69719 0.43854 0.0
H3165 H 0.06815 0.70315 0.44334 0.0
H3166 H 0.08495 0.72726 0.4533 0.0
H3167 H 0.09726 0.72902 0.47542 0.0
H3168 H 0.32948 0.02321 0.70172 0.0
H3169 H 0.32181 0.03015 0.72266 0.0
H3170 H 0.30798 0.05141 0.69627 0.0
H3171 H 0.31505 0.04402 0.67532 0.0
H3172 H 0.32927 0.05425 0.73424 0.0
H3173 H 0.27552 0.03024 0.71865 0.0
H3174 H 0.28681 0.02659 0.70909 0.0
H3175 H 0.28581 0.04165 0.70553 0.0
C3176 C 0.32467 0.02925 0.70038 0.0
C3177 C 0.32274 0.03294 0.68684 0.0
C3178 C 0.3203 0.03322 0.71236 0.0
C3179 C 0.31404 0.04106 0.71105 0.0
C3180 C 0.31234 0.04497 0.69755 0.0
H3181 H 0.30947 0.09255 0.77791 0.0
H3182 H 0.31587 0.08296 0.75818 0.0
C3183 C 0.31648 0.0408 0.68556 0.0
C3184 C 0.30978 0.04566 0.72381 0.0
H3185 H 0.28356 0.04762 0.73735 0.0
C3186 C 0.31923 0.05267 0.73499 0.0
C3187 C 0.2966 0.04339 0.72495 0.0
C3188 C 0.28558 0.03492 0.71398 0.0
C3189 C 0.31599 0.05778 0.74706 0.0
C3190 C 0.30308 0.05631 0.74776 0.0
C3191 C 0.29352 0.04897 0.73676 0.0
C3192 C 0.29921 0.06222 0.75977 0.0
C3193 C 0.32639 0.06447 0.75901 0.0
C3194 C 0.28742 0.05391 0.76695 0.0
C3195 C 0.28349 0.05947 0.77795 0.0
C3196 C 0.29125 0.07347 0.78206 0.0
C3197 C 0.30314 0.08176 0.77495 0.0
C3198 C 0.30694 0.07623 0.76377 0.0
H3199 H 0.33359 0.06067 0.75899 0.0
H3200 H 0.33223 0.07571 0.75768 0.0
H3201 H 0.32167 0.06255 0.76946 0.0
H3202 H 0.28127 0.04307 0.76407 0.0
H3203 H 0.27437 0.05282 0.78332 0.0
H3204 H 0.97304 0.28412 0.73117 0.0
H3205 H 0.96123 0.26227 0.74257 0.0
H3206 H 0.96557 0.24177 0.70558 0.0
H3207 H 0.97798 0.26389 0.69427 0.0
H3208 H 0.93838 0.24016 0.73552 0.0
H3209 H 0.97858 0.2269 0.7361 0.0
H3210 H 0.98162 0.24358 0.73148 0.0
H3211 H 0.97379 0.22934 0.71875 0.0
C3212 C 0.97153 0.27497 0.72545 0.0
C3213 C 0.97645 0.2757 0.71184 0.0
C3214 C 0.96477 0.26248 0.73199 0.0
C3215 C 0.96263 0.25037 0.72502 0.0
C3216 C 0.96738 0.25101 0.71131 0.0
H3217 H 0.89761 0.16779 0.76453 0.0
H3218 H 0.91086 0.19061 0.7462 0.0
C3219 C 0.97438 0.26362 0.70482 0.0
C3220 C 0.95515 0.23719 0.7322 0.0
H3221 H 0.95759 0.21044 0.74459 0.0
C3222 C 0.94257 0.23363 0.73749 0.0
C3223 C 0.96069 0.22878 0.73489 0.0
C3224 C 0.97446 0.23237 0.73013 0.0
C3225 C 0.93554 0.22216 0.74575 0.0
C3226 C 0.94096 0.2136 0.74826 0.0
C3227 C 0.9534 0.21697 0.74268 0.0
C3228 C 0.93437 0.20152 0.75716 0.0
C3229 C 0.92282 0.21998 0.7523 0.0
C3230 C 0.94475 0.19896 0.76986 0.0
C3231 C 0.93745 0.1846 0.78119 0.0
C3232 C 0.91876 0.17485 0.78074 0.0
C3233 C 0.90836 0.17465 0.76535 0.0
C3234 C 0.9166 0.18932 0.75452 0.0
H3235 H 0.92257 0.22967 0.75318 0.0
H3236 H 0.91404 0.21261 0.74549 0.0
H3237 H 0.92177 0.21596 0.76304 0.0
H3238 H 0.95542 0.20621 0.77082 0.0
H3239 H 0.94334 0.18371 0.78967 0.0
H3240 H 0.70044 0.67378 0.7029 0.0
H3241 H 0.71551 0.68388 0.72383 0.0
H3242 H 0.74962 0.69507 0.69789 0.0
H3243 H 0.73472 0.6855 0.67692 0.0
H3244 H 0.73206 0.67748 0.73611 0.0
H3245 H 0.76189 0.73072 0.71899 0.0
H3246 H 0.74661 0.71808 0.70969 0.0
H3247 H 0.76231 0.71889 0.70628 0.0
C3248 C 0.71116 0.67848 0.70165 0.0
C3249 C 0.71639 0.67894 0.68822 0.0
C3250 C 0.71976 0.68426 0.71362 0.0
C3251 C 0.73373 0.69051 0.71241 0.0
C3252 C 0.73893 0.69072 0.69905 0.0
H3253 H 0.79159 0.70191 0.77813 0.0
H3254 H 0.77463 0.6936 0.7589 0.0
C3255 C 0.73037 0.68514 0.68706 0.0
C3256 C 0.74286 0.6963 0.72515 0.0
H3257 H 0.77162 0.72459 0.73805 0.0
C3258 C 0.74062 0.68784 0.7366 0.0
C3259 C 0.75388 0.70991 0.72596 0.0
C3260 C 0.75622 0.71996 0.71463 0.0
C3261 C 0.74936 0.69244 0.74859 0.0
C3262 C 0.76094 0.7057 0.74892 0.0
C3263 C 0.76289 0.71434 0.73771 0.0
C3264 C 0.77126 0.71078 0.76065 0.0
C3265 C 0.74598 0.68306 0.76081 0.0
C3266 C 0.77542 0.72346 0.76773 0.0
C3267 C 0.78546 0.72847 0.77844 0.0
C3268 C 0.79158 0.72092 0.78229 0.0
C3269 C 0.78727 0.70812 0.7753 0.0
C3270 C 0.7774 0.70324 0.76443 0.0
H3271 H 0.73499 0.67577 0.76106 0.0
H3272 H 0.75097 0.67691 0.75955 0.0
H3273 H 0.74941 0.68895 0.77111 0.0
H3274 H 0.77085 0.72948 0.765 0.0
H3275 H 0.78843 0.73824 0.7838 0.0
H3276 H 0.70047 0.64887 0.62491 0.0
H3277 H 0.71334 0.64054 0.61225 0.0
H3278 H 0.70916 0.61452 0.64665 0.0
H3279 H 0.69583 0.62252 0.65923 0.0
H3280 H 0.73651 0.64195 0.6185 0.0
H3281 H 0.69605 0.58732 0.61345 0.0
H3282 H 0.69304 0.60076 0.61955 0.0
H3283 H 0.70039 0.59397 0.63141 0.0
C3284 C 0.7023 0.6414 0.62982 0.0
C3285 C 0.69709 0.6363 0.64304 0.0
C3286 C 0.70966 0.63664 0.62256 0.0
C3287 C 0.71203 0.62674 0.62838 0.0
C3288 C 0.70716 0.6219 0.64178 0.0
H3289 H 0.77788 0.61118 0.58841 0.0
H3290 H 0.764 0.62043 0.60682 0.0
C3291 C 0.69964 0.62655 0.649 0.0
C3292 C 0.7196 0.62158 0.6203 0.0
H3293 H 0.71734 0.59261 0.60538 0.0
C3294 C 0.73234 0.63115 0.61564 0.0
C3295 C 0.71405 0.60752 0.61639 0.0
C3296 C 0.70009 0.5968 0.62033 0.0
C3297 C 0.73962 0.6271 0.60703 0.0
C3298 C 0.7342 0.613 0.60341 0.0
C3299 C 0.72152 0.60342 0.60818 0.0
C3300 C 0.74113 0.60788 0.59426 0.0
C3301 C 0.75266 0.63813 0.60139 0.0
C3302 C 0.73128 0.59509 0.58042 0.0
C3303 C 0.73893 0.58821 0.56895 0.0
C3304 C 0.75758 0.59728 0.57062 0.0
C3305 C 0.76721 0.60724 0.58697 0.0
C3306 C 0.75864 0.61349 0.59788 0.0
H3307 H 0.75306 0.64817 0.6013 0.0
H3308 H 0.76113 0.63952 0.60834 0.0
H3309 H 0.7541 0.63544 0.59046 0.0
H3310 H 0.72071 0.5916 0.5789 0.0
H3311 H 0.73342 0.58153 0.55987 0.0
H3312 H 0.37597 0.06885 0.65457 0.0
H3313 H 0.38211 0.08901 0.64056 0.0
H3314 H 0.35045 0.06375 0.6098 0.0
H3315 H 0.34428 0.04361 0.62361 0.0
H3316 H 0.37707 0.08073 0.59886 0.0
H3317 H 0.36094 0.10979 0.63385 0.0
H3318 H 0.37096 0.1036 0.64201 0.0
H3319 H 0.35437 0.09158 0.6351 0.0
C3320 C 0.37022 0.06763 0.6449 0.0
C3321 C 0.35961 0.05464 0.64022 0.0
C3322 C 0.37371 0.07915 0.63696 0.0
C3323 C 0.36665 0.07785 0.62423 0.0
C3324 C 0.35596 0.06495 0.61964 0.0
H3325 H 0.36789 0.13471 0.56432 0.0
H3326 H 0.36176 0.11667 0.58132 0.0
C3327 C 0.35243 0.05347 0.62759 0.0
C3328 C 0.37084 0.08973 0.61521 0.0
H3329 H 0.3722 0.12053 0.6132 0.0
C3330 C 0.37605 0.08945 0.60199 0.0
C3331 C 0.3694 0.10102 0.61935 0.0
C3332 C 0.36353 0.10157 0.63331 0.0
C3333 C 0.37991 0.10023 0.59279 0.0
C3334 C 0.37854 0.11155 0.59695 0.0
C3335 C 0.37329 0.11183 0.61014 0.0
C3336 C 0.38227 0.12303 0.58752 0.0
C3337 C 0.38527 0.09942 0.57858 0.0
C3338 C 0.39582 0.13259 0.58554 0.0
C3339 C 0.39935 0.14297 0.57597 0.0
C3340 C 0.38938 0.144 0.56827 0.0
C3341 C 0.37579 0.13439 0.57034 0.0
C3342 C 0.37227 0.12406 0.57999 0.0
H3343 H 0.38416 0.0892 0.57625 0.0
H3344 H 0.37997 0.10161 0.57005 0.0
H3345 H 0.39609 0.10731 0.57842 0.0
H3346 H 0.40366 0.13187 0.59123 0.0
H3347 H 0.40988 0.15007 0.57437 0.0
H3348 H 0.96947 0.30221 0.65281 0.0
H3349 H 0.95451 0.29562 0.63175 0.0
H3350 H 0.92014 0.27862 0.65813 0.0
H3351 H 0.93491 0.28502 0.6792 0.0
H3352 H 0.91773 0.2613 0.6349 0.0
H3353 H 0.93331 0.31407 0.61873 0.0
H3354 H 0.94673 0.31056 0.62132 0.0
H3355 H 0.93722 0.31057 0.63614 0.0
C3356 C 0.95873 0.29709 0.65415 0.0
C3357 C 0.95342 0.29419 0.66774 0.0
C3358 C 0.95021 0.2934 0.6421 0.0
C3359 C 0.93624 0.28679 0.64341 0.0
C3360 C 0.9309 0.28376 0.65691 0.0
H3361 H 0.87343 0.27462 0.5834 0.0
H3362 H 0.88958 0.28128 0.60343 0.0
C3363 C 0.93939 0.28746 0.66894 0.0
C3364 C 0.92709 0.28279 0.63075 0.0
H3365 H 0.91794 0.29572 0.60331 0.0
C3366 C 0.91778 0.26881 0.62796 0.0
C3367 C 0.92711 0.29263 0.62183 0.0
C3368 C 0.93653 0.30781 0.62466 0.0
C3369 C 0.9085 0.26441 0.61645 0.0
C3370 C 0.90864 0.27424 0.60741 0.0
C3371 C 0.91792 0.28821 0.61022 0.0
C3372 C 0.89898 0.27023 0.59521 0.0
C3373 C 0.89839 0.2493 0.61426 0.0
C3374 C 0.89905 0.26198 0.58388 0.0
C3375 C 0.88981 0.25813 0.57247 0.0
C3376 C 0.8803 0.26242 0.57223 0.0
C3377 C 0.88047 0.27095 0.58345 0.0
C3378 C 0.88972 0.2748 0.59484 0.0
H3379 H 0.89761 0.24354 0.62387 0.0
H3380 H 0.88829 0.24765 0.61138 0.0
H3381 H 0.90152 0.24496 0.60546 0.0
H3382 H 0.90632 0.2586 0.58382 0.0
H3383 H 0.89012 0.25183 0.56381 0.0
H3384 H 0.3356 0.30955 0.64987 0.0
H3385 H 0.34324 0.30375 0.62816 0.0
H3386 H 0.37541 0.30371 0.65196 0.0
H3387 H 0.36788 0.30948 0.67373 0.0
H3388 H 0.38249 0.31896 0.62543 0.0
H3389 H 0.33977 0.26527 0.61899 0.0
H3390 H 0.33557 0.27841 0.62211 0.0
H3391 H 0.3443 0.27491 0.63573 0.0
C3392 C 0.34433 0.30836 0.65051 0.0
C3393 C 0.35109 0.30993 0.66358 0.0
C3394 C 0.34863 0.30497 0.6381 0.0
C3395 C 0.35978 0.30315 0.63852 0.0
C3396 C 0.36673 0.305 0.65145 0.0
H3397 H 0.40429 0.28671 0.57513 0.0
H3398 H 0.39641 0.29178 0.59709 0.0
C3399 C 0.36239 0.30829 0.66388 0.0
C3400 C 0.36426 0.29937 0.62546 0.0
H3401 H 0.35528 0.27333 0.6007 0.0
C3402 C 0.37658 0.30898 0.62002 0.0
C3403 C 0.35648 0.28635 0.61845 0.0
C3404 C 0.34332 0.27556 0.62411 0.0
C3405 C 0.38126 0.30601 0.60757 0.0
C3406 C 0.37354 0.29293 0.60061 0.0
C3407 C 0.36119 0.28332 0.60607 0.0
C3408 C 0.37801 0.2891 0.58752 0.0
C3409 C 0.39425 0.31703 0.60181 0.0
C3410 C 0.37006 0.28539 0.57498 0.0
C3411 C 0.37444 0.28228 0.56248 0.0
C3412 C 0.3868 0.28266 0.56233 0.0
C3413 C 0.39465 0.28615 0.57497 0.0
C3414 C 0.39022 0.28921 0.58748 0.0
H3415 H 0.39694 0.32741 0.60607 0.0
H3416 H 0.40248 0.31517 0.60496 0.0
H3417 H 0.39362 0.31693 0.59008 0.0
H3418 H 0.36059 0.28522 0.57478 0.0
H3419 H 0.3683 0.27982 0.55286 0.0
H3420 H 0.70408 0.06787 0.64533 0.0
H3421 H 0.71482 0.08644 0.62889 0.0
H3422 H 0.72367 0.0609 0.60182 0.0
H3423 H 0.71282 0.0422 0.61809 0.0
H3424 H 0.74108 0.10047 0.61584 0.0
H3425 H 0.69813 0.0691 0.57779 0.0
H3426 H 0.69774 0.06518 0.5962 0.0
H3427 H 0.70707 0.06098 0.58411 0.0
C3428 C 0.70853 0.06628 0.63602 0.0
C3429 C 0.70744 0.0535 0.63292 0.0
C3430 C 0.71469 0.07691 0.62666 0.0
C3431 C 0.71983 0.07493 0.61406 0.0
C3432 C 0.7196 0.06254 0.61142 0.0
H3433 H 0.73851 0.12085 0.53734 0.0
H3434 H 0.73672 0.10489 0.55531 0.0
C3435 C 0.71343 0.05189 0.62076 0.0
C3436 C 0.72414 0.08527 0.6031 0.0
H3437 H 0.7148 0.09063 0.57058 0.0
C3438 C 0.73542 0.09834 0.60589 0.0
C3439 C 0.71667 0.08242 0.59018 0.0
C3440 C 0.70416 0.06871 0.58686 0.0
C3441 C 0.73946 0.10866 0.59602 0.0
C3442 C 0.73183 0.10587 0.58321 0.0
C3443 C 0.72068 0.09273 0.58038 0.0
C3444 C 0.73476 0.11649 0.57277 0.0
C3445 C 0.75189 0.1224 0.59936 0.0
C3446 C 0.73437 0.12837 0.57663 0.0
C3447 C 0.73548 0.13754 0.56639 0.0
C3448 C 0.73688 0.13491 0.55209 0.0
C3449 C 0.73754 0.12316 0.5483 0.0
C3450 C 0.73651 0.11405 0.55854 0.0
H3451 H 0.75873 0.12155 0.60714 0.0
H3452 H 0.75746 0.12692 0.58966 0.0
H3453 H 0.74892 0.12954 0.60407 0.0
H3454 H 0.73266 0.13028 0.58746 0.0
H3455 H 0.73479 0.14644 0.56955 0.0
H3456 H 0.96595 0.66858 0.64733 0.0
H3457 H 0.95249 0.65989 0.62519 0.0
H3458 H 0.91789 0.6325 0.64848 0.0
H3459 H 0.93112 0.64126 0.67063 0.0
H3460 H 0.93939 0.63378 0.61356 0.0
H3461 H 0.90281 0.65073 0.62396 0.0
H3462 H 0.91816 0.65703 0.63447 0.0
H3463 H 0.90374 0.64061 0.63773 0.0
C3464 C 0.95546 0.66076 0.64776 0.0
C3465 C 0.94962 0.65568 0.66079 0.0
C3466 C 0.94778 0.65582 0.63509 0.0
C3467 C 0.93412 0.64574 0.63521 0.0
C3468 C 0.92831 0.64054 0.64816 0.0
H3469 H 0.8722 0.59295 0.57351 0.0
H3470 H 0.88589 0.60506 0.59492 0.0
C3471 C 0.93594 0.64551 0.66082 0.0
C3472 C 0.92606 0.64021 0.62176 0.0
H3473 H 0.89721 0.63439 0.60465 0.0
C3474 C 0.93025 0.63405 0.61154 0.0
C3475 C 0.91414 0.64058 0.61914 0.0
C3476 C 0.9095 0.64772 0.62934 0.0
C3477 C 0.92262 0.62787 0.59898 0.0
C3478 C 0.91056 0.62798 0.59653 0.0
C3479 C 0.90645 0.6343 0.60662 0.0
C3480 C 0.90194 0.62128 0.58367 0.0
C3481 C 0.92729 0.62093 0.58857 0.0
C3482 C 0.90636 0.62658 0.57033 0.0
C3483 C 0.89853 0.61976 0.55812 0.0
C3484 C 0.8861 0.60759 0.55907 0.0
C3485 C 0.88161 0.60243 0.57249 0.0
C3486 C 0.88943 0.6093 0.5847 0.0
H3487 H 0.93547 0.61962 0.59317 0.0
H3488 H 0.91882 0.61071 0.58496 0.0
H3489 H 0.93111 0.62725 0.57914 0.0
H3490 H 0.91597 0.63587 0.56935 0.0
H3491 H 0.90229 0.62383 0.5479 0.0
H3492 H 0.97937 0.71745 0.69869 0.0
H3493 H 0.97092 0.72904 0.71402 0.0
H3494 H 0.9494 0.69245 0.73756 0.0
H3495 H 0.95787 0.68081 0.72247 0.0
H3496 H 0.93594 0.71034 0.72953 0.0
H3497 H 0.98586 0.73601 0.75823 0.0
H3498 H 0.98534 0.73561 0.73915 0.0
H3499 H 0.97959 0.71998 0.74819 0.0
C3500 C 0.97261 0.71176 0.70693 0.0
C3501 C 0.96936 0.69822 0.7094 0.0
C3502 C 0.9678 0.7184 0.71566 0.0
C3503 C 0.95959 0.71157 0.72689 0.0
C3504 C 0.95569 0.69783 0.72888 0.0
H3505 H 0.94579 0.74016 0.80626 0.0
H3506 H 0.94885 0.72752 0.78663 0.0
C3507 C 0.96056 0.69122 0.72024 0.0
C3508 C 0.95632 0.71914 0.73753 0.0
H3509 H 0.96963 0.74082 0.76669 0.0
C3510 C 0.94329 0.7171 0.73761 0.0
C3511 C 0.96594 0.72778 0.74809 0.0
C3512 C 0.97998 0.73 0.74856 0.0
C3513 C 0.93962 0.72353 0.7481 0.0
C3514 C 0.94925 0.73216 0.75868 0.0
C3515 C 0.96228 0.7342 0.75853 0.0
C3516 C 0.94603 0.73894 0.77029 0.0
C3517 C 0.92542 0.72081 0.74803 0.0
C3518 C 0.94338 0.7495 0.76756 0.0
C3519 C 0.94164 0.75674 0.77876 0.0
C3520 C 0.94245 0.75346 0.79285 0.0
C3521 C 0.94492 0.74275 0.7955 0.0
C3522 C 0.94669 0.73556 0.78432 0.0
H3523 H 0.91861 0.71204 0.74072 0.0
H3524 H 0.92144 0.71866 0.75885 0.0
H3525 H 0.92532 0.73007 0.74459 0.0
H3526 H 0.9431 0.75243 0.75681 0.0
H3527 H 0.94 0.76513 0.77644 0.0
H3528 H 0.33124 0.28775 0.71374 0.0
H3529 H 0.32325 0.26668 0.72662 0.0
H3530 H 0.28241 0.25757 0.71997 0.0
H3531 H 0.29033 0.2781 0.70635 0.0
H3532 H 0.31221 0.26053 0.74993 0.0
H3533 H 0.27609 0.22058 0.71193 0.0
H3534 H 0.28745 0.23779 0.70669 0.0
H3535 H 0.27157 0.23349 0.71416 0.0
C3536 C 0.32055 0.28109 0.71481 0.0
C3537 C 0.31139 0.28451 0.70902 0.0
C3538 C 0.31597 0.26904 0.72217 0.0
C3539 C 0.30217 0.26033 0.72412 0.0
C3540 C 0.29304 0.26376 0.71821 0.0
H3541 H 0.26689 0.21418 0.79678 0.0
H3542 H 0.27937 0.23141 0.77958 0.0
C3543 C 0.29759 0.27559 0.71052 0.0
C3544 C 0.29739 0.24843 0.73342 0.0
H3545 H 0.27213 0.2154 0.73681 0.0
C3546 C 0.3036 0.25058 0.74692 0.0
C3547 C 0.28638 0.23527 0.72949 0.0
C3548 C 0.28013 0.23163 0.7147 0.0
C3549 C 0.29868 0.24025 0.7568 0.0
C3550 C 0.2868 0.22761 0.75338 0.0
C3551 C 0.28105 0.22517 0.73962 0.0
C3552 C 0.27975 0.21712 0.76409 0.0
C3553 C 0.30635 0.24308 0.77076 0.0
C3554 C 0.2753 0.2032 0.76099 0.0
C3555 C 0.26773 0.19324 0.77066 0.0
C3556 C 0.26464 0.19704 0.78374 0.0
C3557 C 0.26928 0.21098 0.78688 0.0
C3558 C 0.27655 0.22086 0.7771 0.0
H3559 H 0.31726 0.25021 0.76954 0.0
H3560 H 0.3028 0.2481 0.77838 0.0
H3561 H 0.30497 0.23351 0.77528 0.0
H3562 H 0.27752 0.2 0.75099 0.0
H3563 H 0.26418 0.18258 0.76778 0.0
H3564 H 0.70714 0.03145 0.69579 0.0
H3565 H 0.72142 0.0377 0.71728 0.0
H3566 H 0.75147 0.03448 0.69384 0.0
H3567 H 0.7374 0.02848 0.67222 0.0
H3568 H 0.73127 0.02342 0.7311 0.0
H3569 H 0.77324 0.07241 0.71303 0.0
H3570 H 0.75706 0.0634 0.70381 0.0
H3571 H 0.76906 0.05788 0.70138 0.0
C3572 C 0.71679 0.03207 0.69517 0.0
C3573 C 0.72115 0.02954 0.68222 0.0
C3574 C 0.72494 0.03566 0.70748 0.0
C3575 C 0.73762 0.03682 0.70711 0.0
C3576 C 0.74188 0.034 0.69429 0.0
H3577 H 0.79936 0.05244 0.77065 0.0
H3578 H 0.78568 0.04756 0.74878 0.0
C3579 C 0.73376 0.03047 0.68196 0.0
C3580 C 0.74625 0.04071 0.7202 0.0
H3581 H 0.77706 0.06439 0.73461 0.0
C3582 C 0.74125 0.03242 0.7319 0.0
C3583 C 0.75927 0.05246 0.72121 0.0
C3584 C 0.76495 0.06214 0.70924 0.0
C3585 C 0.749 0.03542 0.7445 0.0
C3586 C 0.76204 0.04712 0.74547 0.0
C3587 C 0.76706 0.05542 0.7338 0.0
C3588 C 0.77065 0.05082 0.75852 0.0
C3589 C 0.74331 0.0259 0.75659 0.0
C3590 C 0.76685 0.05454 0.77114 0.0
C3591 C 0.77468 0.0574 0.7836 0.0
C3592 C 0.78651 0.05674 0.78362 0.0
C3593 C 0.79041 0.05324 0.77089 0.0
C3594 C 0.78259 0.05042 0.75843 0.0
H3595 H 0.73451 0.01583 0.75307 0.0
H3596 H 0.75104 0.0241 0.76157 0.0
H3597 H 0.73998 0.03066 0.76477 0.0
H3598 H 0.75774 0.05506 0.77138 0.0
H3599 H 0.77137 0.05991 0.79328 0.0
H3600 H 0.0461 0.34709 0.02582 0.0
H3601 H 0.0585 0.34156 0.04319 0.0
H3602 H 0.05199 0.30705 0.01643 0.0
H3603 H 0.03982 0.31258 0.99898 0.0
H3604 H 0.05044 0.31794 0.05803 0.0
H3605 H 0.09252 0.32771 0.02377 0.0
H3606 H 0.08076 0.33329 0.01956 0.0
H3607 H 0.07643 0.31582 0.01563 0.0
C3608 C 0.04736 0.33835 0.02361 0.0
C3609 C 0.04207 0.33035 0.01094 0.0
C3610 C 0.05442 0.3352 0.03356 0.0
C3611 C 0.05638 0.32405 0.03098 0.0
C3612 C 0.05088 0.3159 0.01849 0.0
H3613 H 0.07531 0.27686 0.08651 0.0
H3614 H 0.06461 0.28706 0.07288 0.0
C3615 C 0.04386 0.31905 0.00854 0.0
C3616 C 0.06398 0.32073 0.04138 0.0
H3617 H 0.0903 0.31511 0.04443 0.0
C3618 C 0.05925 0.31746 0.05512 0.0
C3619 C 0.07561 0.32035 0.03767 0.0
C3620 C 0.08172 0.32462 0.0234 0.0
C3621 C 0.06551 0.31327 0.06506 0.0
C3622 C 0.07665 0.31208 0.06104 0.0
C3623 C 0.08169 0.31589 0.04748 0.0
C3624 C 0.08295 0.30641 0.07045 0.0
C3625 C 0.06015 0.31019 0.07975 0.0
C3626 C 0.09686 0.31378 0.07343 0.0
C3627 C 0.10302 0.3079 0.08109 0.0
C3628 C 0.09535 0.29457 0.08605 0.0
C3629 C 0.08141 0.28728 0.08317 0.0
C3630 C 0.07528 0.29313 0.07543 0.0
H3631 H 0.05482 0.31578 0.08251 0.0
H3632 H 0.05284 0.29905 0.08021 0.0
H3633 H 0.06833 0.313 0.08782 0.0
H3634 H 0.10301 0.32398 0.06955 0.0
H3635 H 0.11382 0.31364 0.08282 0.0
H3636 H 0.68545 0.69728 0.03033 0.0
H3637 H 0.69538 0.72165 0.03708 0.0
H3638 H 0.65923 0.71307 0.05793 0.0
H3639 H 0.64916 0.68867 0.05132 0.0
H3640 H 0.67607 0.7396 0.03712 0.0
H3641 H 0.70156 0.7322 0.08385 0.0
H3642 H 0.70081 0.72391 0.067 0.0
H3643 H 0.68575 0.71842 0.07647 0.0
C3644 C 0.67949 0.70057 0.03613 0.0
C3645 C 0.66654 0.69098 0.04039 0.0
C3646 C 0.6852 0.7145 0.03997 0.0
C3647 C 0.67802 0.71905 0.04802 0.0
C3648 C 0.66488 0.70968 0.05169 0.0
H3649 H 0.69421 0.79753 0.08435 0.0
H3650 H 0.6839 0.77444 0.07327 0.0
C3651 C 0.65917 0.69574 0.04793 0.0
C3652 C 0.68462 0.73337 0.05366 0.0
H3653 H 0.70495 0.75428 0.08102 0.0
C3654 C 0.68242 0.74288 0.04669 0.0
C3655 C 0.69291 0.73752 0.06609 0.0
C3656 C 0.69545 0.72754 0.0739 0.0
C3657 C 0.68839 0.75657 0.05186 0.0
C3658 C 0.69649 0.76067 0.0645 0.0
C3659 C 0.69874 0.75112 0.07136 0.0
C3660 C 0.70269 0.77478 0.07091 0.0
C3661 C 0.68618 0.76653 0.0436 0.0
C3662 C 0.71663 0.78252 0.07358 0.0
C3663 C 0.7225 0.79558 0.08019 0.0
C3664 C 0.71453 0.80111 0.08438 0.0
C3665 C 0.70058 0.79343 0.08149 0.0
C3666 C 0.6947 0.78032 0.07498 0.0
H3667 H 0.68327 0.76295 0.03235 0.0
H3668 H 0.6779 0.76745 0.04827 0.0
H3669 H 0.69533 0.77687 0.04398 0.0
H3670 H 0.72298 0.77844 0.07053 0.0
H3671 H 0.73329 0.80138 0.08203 0.0
H3672 H 0.28492 0.95104 1.00021 0.0
H3673 H 0.26722 0.94379 0.01744 0.0
H3674 H 0.29673 0.96926 0.04998 0.0
H3675 H 0.31447 0.97661 0.0329 0.0
H3676 H 0.2645 0.93118 0.0444 0.0
H3677 H 0.26891 0.98242 0.04927 0.0
H3678 H 0.27589 0.97751 0.03487 0.0
H3679 H 0.2844 0.98248 0.05196 0.0
C3680 C 0.28766 0.95505 0.01105 0.0
C3681 C 0.30109 0.96449 0.01515 0.0
C3682 C 0.27754 0.95087 0.02087 0.0
C3683 C 0.28067 0.95615 0.0349 0.0
C3684 C 0.2941 0.96524 0.03913 0.0
H3685 H 0.22649 0.92304 0.11346 0.0
H3686 H 0.24676 0.92972 0.09262 0.0
C3687 C 0.30422 0.96938 0.02936 0.0
C3688 C 0.26988 0.95241 0.04507 0.0
H3689 H 0.25482 0.9659 0.06527 0.0
C3690 C 0.26234 0.93874 0.04898 0.0
C3691 C 0.26697 0.96227 0.05079 0.0
C3692 C 0.27437 0.97698 0.04644 0.0
C3693 C 0.25209 0.9347 0.05871 0.0
C3694 C 0.2495 0.94467 0.06481 0.0
C3695 C 0.25687 0.95828 0.06066 0.0
C3696 C 0.23914 0.94135 0.07536 0.0
C3697 C 0.2439 0.91973 0.06197 0.0
C3698 C 0.22776 0.94778 0.07295 0.0
C3699 C 0.21529 0.94473 0.08573 0.0
C3700 C 0.21342 0.93241 0.09937 0.0
C3701 C 0.22713 0.92904 0.10448 0.0
C3702 C 0.23923 0.9326 0.09106 0.0
H3703 H 0.24439 0.91306 0.05342 0.0
H3704 H 0.24796 0.91793 0.07188 0.0
H3705 H 0.23322 0.91657 0.06337 0.0
H3706 H 0.22841 0.9535 0.06372 0.0
H3707 H 0.20769 0.94747 0.08374 0.0
H3708 H 0.35716 0.04651 0.98389 0.0
H3709 H 0.34701 0.06017 0.97762 0.0
H3710 H 0.30758 0.02507 0.98248 0.0
H3711 H 0.31765 0.01144 0.98915 0.0
H3712 H 0.33142 0.05473 0.95443 0.0
H3713 H 0.3031 0.05488 0.001 0.0
H3714 H 0.31565 0.04985 0.00193 0.0
H3715 H 0.29889 0.03788 0.99521 0.0
C3716 C 0.34634 0.04178 0.98397 0.0
C3717 C 0.33822 0.02785 0.98695 0.0
C3718 C 0.34055 0.0496 0.98037 0.0
C3719 C 0.32654 0.04368 0.97965 0.0
C3720 C 0.31842 0.02996 0.98326 0.0
H3721 H 0.27168 0.06309 0.9375 0.0
H3722 H 0.28264 0.05236 0.94989 0.0
C3723 C 0.32421 0.02215 0.98701 0.0
C3724 C 0.32045 0.05133 0.97354 0.0
H3725 H 0.2973 0.06118 0.97907 0.0
C3726 C 0.3241 0.0563 0.95992 0.0
C3727 C 0.31083 0.0533 0.98066 0.0
C3728 C 0.30698 0.04881 0.99556 0.0
C3729 C 0.31818 0.06289 0.95309 0.0
C3730 C 0.3084 0.0646 0.96009 0.0
C3731 C 0.3048 0.05978 0.97375 0.0
C3732 C 0.30167 0.07122 0.9532 0.0
C3733 C 0.32216 0.06769 0.93829 0.0
C3734 C 0.30874 0.08537 0.95118 0.0
C3735 C 0.30252 0.09151 0.94413 0.0
C3736 C 0.28919 0.08354 0.93881 0.0
C3737 C 0.28205 0.06941 0.9412 0.0
C3738 C 0.28825 0.06329 0.94833 0.0
H3739 H 0.32841 0.0638 0.93357 0.0
H3740 H 0.31309 0.06429 0.93132 0.0
H3741 H 0.32801 0.07908 0.93858 0.0
H3742 H 0.31907 0.09165 0.95503 0.0
H3743 H 0.30815 0.10248 0.94279 0.0
H3744 H 0.00075 0.30074 0.98148 0.0
H3745 H 0.98831 0.27639 0.97384 0.0
H3746 H 0.9531 0.2792 0.96475 0.0
H3747 H 0.96535 0.30346 0.97229 0.0
H3748 H 0.95391 0.25213 0.98052 0.0
H3749 H 0.9732 0.27005 0.92697 0.0
H3750 H 0.98349 0.27852 0.94274 0.0
H3751 H 0.96925 0.2803 0.93868 0.0
C3752 C 0.99026 0.2961 0.97823 0.0
C3753 C 0.98409 0.30409 0.97733 0.0
C3754 C 0.98319 0.2822 0.97387 0.0
C3755 C 0.96985 0.27611 0.9687 0.0
C3756 C 0.96339 0.28377 0.96874 0.0
H3757 H 0.91946 0.20522 0.90299 0.0
H3758 H 0.93339 0.2308 0.91964 0.0
C3759 C 0.97044 0.29764 0.97301 0.0
C3760 C 0.96316 0.26234 0.96158 0.0
H3761 H 0.95826 0.24652 0.92899 0.0
C3762 C 0.9549 0.25081 0.96928 0.0
C3763 C 0.96437 0.26081 0.94691 0.0
C3764 C 0.97304 0.27302 0.93823 0.0
C3765 C 0.94766 0.23766 0.96259 0.0
C3766 C 0.94895 0.23612 0.94789 0.0
C3767 C 0.95725 0.24771 0.94025 0.0
C3768 C 0.94172 0.22273 0.94 0.0
C3769 C 0.93833 0.22574 0.97124 0.0
C3770 C 0.94309 0.20845 0.94611 0.0
C3771 C 0.93527 0.19232 0.93612 0.0
C3772 C 0.92377 0.19094 0.92128 0.0
C3773 C 0.92528 0.20618 0.9125 0.0
C3774 C 0.93342 0.22183 0.92328 0.0
H3775 H 0.93542 0.22923 0.98094 0.0
H3776 H 0.92907 0.21844 0.96502 0.0
H3777 H 0.94351 0.22023 0.97465 0.0
H3778 H 0.9489 0.20964 0.95569 0.0
H3779 H 0.93511 0.1834 0.94023 0.0
H3780 H 0.7192 0.67836 0.01893 0.0
H3781 H 0.73715 0.68606 0.00215 0.0
H3782 H 0.70784 0.66919 0.96743 0.0
H3783 H 0.68972 0.66159 0.9842 0.0
H3784 H 0.74202 0.67048 0.98298 0.0
H3785 H 0.73332 0.70845 0.95582 0.0
H3786 H 0.72575 0.70125 0.9723 0.0
H3787 H 0.71903 0.69138 0.95594 0.0
C3788 C 0.71653 0.67634 0.00773 0.0
C3789 C 0.70302 0.6694 0.0029 0.0
C3790 C 0.72682 0.68073 0.99815 0.0
C3791 C 0.72384 0.67832 0.98355 0.0
C3792 C 0.71037 0.67136 0.97865 0.0
H3793 H 0.7888 0.69084 0.92751 0.0
H3794 H 0.76714 0.68021 0.93888 0.0
C3795 C 0.70003 0.66698 0.98825 0.0
C3796 C 0.73496 0.68292 0.97361 0.0
H3797 H 0.75059 0.70511 0.94735 0.0
C3798 C 0.74387 0.67799 0.97512 0.0
C3799 C 0.73737 0.6928 0.96347 0.0
C3800 C 0.72845 0.6989 0.96181 0.0
C3801 C 0.75534 0.68291 0.96701 0.0
C3802 C 0.75776 0.69277 0.95681 0.0
C3803 C 0.74866 0.69747 0.95508 0.0
C3804 C 0.77023 0.69918 0.94869 0.0
C3805 C 0.76504 0.67793 0.96992 0.0
C3806 C 0.77888 0.71345 0.94988 0.0
C3807 C 0.79108 0.71959 0.94308 0.0
C3808 C 0.79489 0.7116 0.93493 0.0
C3809 C 0.78609 0.69732 0.93355 0.0
C3810 C 0.77378 0.6912 0.94019 0.0
H3811 H 0.76344 0.67313 0.98034 0.0
H3812 H 0.76354 0.67008 0.96164 0.0
H3813 H 0.7756 0.68648 0.96974 0.0
H3814 H 0.77638 0.71982 0.9564 0.0
H3815 H 0.79774 0.73058 0.9445 0.0
H3816 H 0.98585 0.6919 0.99977 0.0
H3817 H 0.97521 0.70166 0.98531 0.0
H3818 H 0.94232 0.66102 0.97428 0.0
H3819 H 0.95287 0.6511 0.98869 0.0
H3820 H 0.96484 0.69485 0.95437 0.0
H3821 H 0.92637 0.68358 0.99468 0.0
H3822 H 0.94213 0.68451 0.99892 0.0
H3823 H 0.92909 0.66984 0.98911 0.0
C3824 C 0.97641 0.68501 0.99418 0.0
C3825 C 0.97014 0.67071 0.99549 0.0
C3826 C 0.97038 0.69061 0.98588 0.0
C3827 C 0.95797 0.68205 0.97884 0.0
C3828 C 0.95189 0.66778 0.97972 0.0
H3829 H 0.9009 0.70178 0.94153 0.0
H3830 H 0.91232 0.68976 0.9494 0.0
C3831 C 0.95794 0.66214 0.98795 0.0
C3832 C 0.951 0.68812 0.97131 0.0
H3833 H 0.925 0.69411 0.9742 0.0
C3834 C 0.95609 0.69467 0.95863 0.0
C3835 C 0.93961 0.68781 0.97693 0.0
C3836 C 0.93396 0.68114 0.9907 0.0
C3837 C 0.94997 0.70087 0.95132 0.0
C3838 C 0.9387 0.70081 0.95709 0.0
C3839 C 0.9336 0.69413 0.96974 0.0
C3840 C 0.93217 0.70785 0.95052 0.0
C3841 C 0.95551 0.70721 0.9374 0.0
C3842 C 0.93953 0.72199 0.94826 0.0
C3843 C 0.93303 0.72885 0.94357 0.0
C3844 C 0.919 0.72175 0.94135 0.0
C3845 C 0.91171 0.70754 0.94321 0.0
C3846 C 0.91823 0.70066 0.94773 0.0
H3847 H 0.961 0.7026 0.93233 0.0
H3848 H 0.9474 0.70598 0.92993 0.0
H3849 H 0.96271 0.71834 0.93931 0.0
H3850 H 0.95024 0.72784 0.95064 0.0
H3851 H 0.9389 0.73979 0.94217 0.0
H3852 H 0.32189 0.30467 0.98728 0.0
H3853 H 0.31079 0.28036 0.98021 0.0
H3854 H 0.34413 0.288 0.95444 0.0
H3855 H 0.35526 0.31244 0.96125 0.0
H3856 H 0.32002 0.27298 0.94006 0.0
H3857 H 0.31815 0.25045 0.99181 0.0
H3858 H 0.31121 0.26152 0.99222 0.0
H3859 H 0.32877 0.26853 0.98902 0.0
C3860 C 0.32699 0.30119 0.98027 0.0
C3861 C 0.33949 0.31056 0.97483 0.0
C3862 C 0.32064 0.28725 0.97629 0.0
C3863 C 0.3267 0.28233 0.96693 0.0
C3864 C 0.3393 0.29158 0.96172 0.0
H3865 H 0.29307 0.19462 0.94893 0.0
H3866 H 0.3083 0.21894 0.9553 0.0
C3867 C 0.34566 0.30555 0.96566 0.0
C3868 C 0.31947 0.26772 0.96186 0.0
H3869 H 0.30362 0.23497 0.97319 0.0
C3870 C 0.31655 0.26466 0.94729 0.0
C3871 C 0.31509 0.25688 0.97127 0.0
C3872 C 0.31858 0.25949 0.98693 0.0
C3873 C 0.30901 0.25104 0.94191 0.0
C3874 C 0.30403 0.24022 0.9514 0.0
C3875 C 0.30732 0.24328 0.96593 0.0
C3876 C 0.29523 0.22566 0.94656 0.0
C3877 C 0.30653 0.24838 0.92611 0.0
C3878 C 0.28284 0.22136 0.9395 0.0
C3879 C 0.27419 0.20749 0.93574 0.0
C3880 C 0.27773 0.19765 0.93909 0.0
C3881 C 0.29016 0.20199 0.94609 0.0
C3882 C 0.29883 0.21586 0.94977 0.0
H3883 H 0.31421 0.25713 0.92023 0.0
H3884 H 0.30656 0.23893 0.92263 0.0
H3885 H 0.29657 0.24704 0.9232 0.0
H3886 H 0.27969 0.22867 0.93723 0.0
H3887 H 0.26459 0.20438 0.93053 0.0
H3888 H 0.72638 0.04295 0.02828 0.0
H3889 H 0.74413 0.04956 0.01131 0.0
H3890 H 0.71459 0.03466 0.97683 0.0
H3891 H 0.69672 0.02792 0.99373 0.0
H3892 H 0.73284 0.02495 0.9756 0.0
H3893 H 0.75929 0.08158 0.98433 0.0
H3894 H 0.75659 0.07228 1.0002 0.0
H3895 H 0.74243 0.07042 0.98999 0.0
C3896 C 0.72365 0.04119 0.01709 0.0
C3897 C 0.71013 0.03492 0.01236 0.0
C3898 C 0.73382 0.04504 0.0074 0.0
C3899 C 0.73067 0.04274 0.99282 0.0
C3900 C 0.71721 0.03659 0.98805 0.0
H3901 H 0.7775 0.05483 0.91816 0.0
H3902 H 0.75952 0.04892 0.93479 0.0
C3903 C 0.70703 0.03277 0.99772 0.0
C3904 C 0.74137 0.04611 0.98261 0.0
H3905 H 0.77033 0.07258 0.97053 0.0
C3906 C 0.74099 0.03537 0.97441 0.0
C3907 C 0.752 0.05971 0.98115 0.0
C3908 C 0.75259 0.0717 0.98928 0.0
C3909 C 0.75112 0.03784 0.96494 0.0
C3910 C 0.76178 0.05142 0.96354 0.0
C3911 C 0.76215 0.06217 0.9717 0.0
C3912 C 0.77258 0.05471 0.95352 0.0
C3913 C 0.75052 0.02588 0.95673 0.0
C3914 C 0.78587 0.06004 0.95857 0.0
C3915 C 0.79614 0.06339 0.94911 0.0
C3916 C 0.7933 0.0616 0.93443 0.0
C3917 C 0.77995 0.05625 0.92942 0.0
C3918 C 0.76969 0.05284 0.93889 0.0
H3919 H 0.74342 0.01591 0.9613 0.0
H3920 H 0.74708 0.02569 0.94565 0.0
H3921 H 0.7606 0.02692 0.95649 0.0
H3922 H 0.78827 0.06158 0.96985 0.0
H3923 H 0.80631 0.06748 0.95326 0.0
H3924 H 0.65679 0.96026 0.05294 0.0
H3925 H 0.66817 0.94751 0.05813 0.0
H3926 H 0.70381 0.97844 0.03881 0.0
H3927 H 0.69252 0.99121 0.03339 0.0
H3928 H 0.69782 0.95118 0.03254 0.0
H3929 H 0.69737 0.96196 0.0902 0.0
H3930 H 0.68119 0.95358 0.08116 0.0
H3931 H 0.69354 0.97074 0.07689 0.0
C3932 C 0.66699 0.96429 0.04961 0.0
C3933 C 0.6738 0.97688 0.04292 0.0
C3934 C 0.67349 0.957 0.05265 0.0
C3935 C 0.68691 0.9622 0.04912 0.0
C3936 C 0.69347 0.97432 0.04171 0.0
H3937 H 0.74684 0.94718 0.08611 0.0
H3938 H 0.73292 0.95657 0.07809 0.0
C3939 C 0.68699 0.98161 0.03863 0.0
C3940 C 0.69439 0.95549 0.05387 0.0
H3941 H 0.70633 0.94801 0.08353 0.0
C3942 C 0.69965 0.95042 0.04368 0.0
C3943 C 0.69692 0.95474 0.06842 0.0
C3944 C 0.69208 0.96064 0.07983 0.0
C3945 C 0.70735 0.94454 0.04766 0.0
C3946 C 0.70968 0.94358 0.06221 0.0
C3947 C 0.70443 0.94867 0.07239 0.0
C3948 C 0.71792 0.93775 0.06715 0.0
C3949 C 0.71325 0.93977 0.03627 0.0
C3950 C 0.71397 0.92401 0.06383 0.0
C3951 C 0.72191 0.91866 0.06839 0.0
C3952 C 0.73381 0.92689 0.07651 0.0
C3953 C 0.73765 0.94059 0.07998 0.0
C3954 C 0.72973 0.94595 0.07539 0.0
H3955 H 0.71328 0.94423 0.02594 0.0
H3956 H 0.72369 0.94256 0.03927 0.0
H3957 H 0.70713 0.92844 0.03485 0.0
H3958 H 0.70477 0.91744 0.05771 0.0
H3959 H 0.71878 0.90809 0.06551 0.0
H3960 H 0.04519 0.70399 0.05871 0.0
H3961 H 0.05737 0.7285 0.06512 0.0
H3962 H 0.03751 0.73575 0.03021 0.0
H3963 H 0.02487 0.71114 0.02405 0.0
H3964 H 0.07438 0.75152 0.05291 0.0
H3965 H 0.02727 0.75166 0.06276 0.0
H3966 H 0.02757 0.73604 0.05939 0.0
H3967 H 0.02793 0.74625 0.04494 0.0
C3968 C 0.04352 0.7108 0.05227 0.0
C3969 C 0.0339 0.70558 0.04099 0.0
C3970 C 0.05049 0.72483 0.05597 0.0
C3971 C 0.04808 0.73392 0.0484 0.0
C3972 C 0.03921 0.72887 0.0365 0.0
H3973 H 0.09577 0.82295 0.05698 0.0
H3974 H 0.08647 0.79875 0.04996 0.0
C3975 C 0.03207 0.71481 0.03292 0.0
C3976 C 0.05443 0.74855 0.05333 0.0
H3977 H 0.04732 0.77334 0.06353 0.0
C3978 C 0.06847 0.75629 0.05527 0.0
C3979 C 0.0467 0.75469 0.05674 0.0
C3980 C 0.03153 0.7467 0.056 0.0
C3981 C 0.07498 0.77005 0.06032 0.0
C3982 C 0.06728 0.77636 0.06308 0.0
C3983 C 0.05324 0.76855 0.06131 0.0
C3984 C 0.07349 0.79105 0.06775 0.0
C3985 C 0.09001 0.77755 0.06294 0.0
C3986 C 0.06904 0.79483 0.07986 0.0
C3987 C 0.07413 0.80867 0.08372 0.0
C3988 C 0.08396 0.819 0.07564 0.0
C3989 C 0.08844 0.81519 0.06357 0.0
C3990 C 0.0832 0.80136 0.0596 0.0
H3991 H 0.09366 0.77029 0.06481 0.0
H3992 H 0.09498 0.78333 0.05347 0.0
H3993 H 0.09315 0.78491 0.0722 0.0
H3994 H 0.06145 0.78706 0.08624 0.0
H3995 H 0.07025 0.81126 0.0929 0.0
H3996 H 0.31225 0.32462 0.02611 0.0
H3997 H 0.2921 0.31275 0.04007 0.0
H3998 H 0.28305 0.34471 0.03255 0.0
H3999 H 0.30308 0.35664 0.01859 0.0
H4000 H 0.28247 0.32272 0.06477 0.0
H4001 H 0.25032 0.30765 0.01548 0.0
H4002 H 0.26798 0.3132 0.01535 0.0
H4003 H 0.26271 0.32557 0.01787 0.0
C4004 C 0.30607 0.32921 0.02757 0.0
C4005 C 0.30919 0.3415 0.02109 0.0
C4006 C 0.29459 0.32244 0.03558 0.0
C4007 C 0.28605 0.3278 0.03718 0.0
C4008 C 0.28947 0.34036 0.0313 0.0
H4009 H 0.2053 0.29624 0.06495 0.0
H4010 H 0.22816 0.31061 0.05702 0.0
C4011 C 0.30093 0.34715 0.02333 0.0
C4012 C 0.27308 0.31985 0.0441 0.0
H4013 H 0.23927 0.30225 0.03708 0.0
C4014 C 0.273 0.3182 0.05876 0.0
C4015 C 0.2608 0.31397 0.03619 0.0
C4016 C 0.26036 0.31505 0.02033 0.0
C4017 C 0.26085 0.31106 0.06578 0.0
C4018 C 0.24855 0.30523 0.05785 0.0
C4019 C 0.2487 0.3068 0.04317 0.0
C4020 C 0.2353 0.29738 0.06438 0.0
C4021 C 0.2613 0.31011 0.08164 0.0
C4022 C 0.23177 0.28526 0.07135 0.0
C4023 C 0.21872 0.27709 0.07601 0.0
C4024 C 0.20895 0.28083 0.07363 0.0
C4025 C 0.21263 0.29314 0.06698 0.0
C4026 C 0.22567 0.30134 0.06243 0.0
H4027 H 0.27107 0.31818 0.0865 0.0
H4028 H 0.25311 0.31105 0.08654 0.0
H4029 H 0.25997 0.29998 0.08418 0.0
H4030 H 0.23893 0.28183 0.07269 0.0
H4031 H 0.21611 0.26759 0.08102 0.0
H4032 H 0.6922 0.6419 0.34095 0.0
H4033 H 0.70467 0.6351 0.3566 0.0
H4034 H 0.71106 0.66711 0.38712 0.0
H4035 H 0.6984 0.67388 0.37158 0.0
H4036 H 0.73114 0.65139 0.36528 0.0
H4037 H 0.69854 0.6338 0.41162 0.0
H4038 H 0.69277 0.63618 0.39464 0.0
H4039 H 0.70319 0.65074 0.40633 0.0
C4040 C 0.6961 0.6474 0.35107 0.0
C4041 C 0.69431 0.65845 0.355 0.0
C4042 C 0.70324 0.6435 0.36 0.0
C4043 C 0.70872 0.65053 0.37307 0.0
C4044 C 0.70673 0.66139 0.37719 0.0
H4045 H 0.77378 0.6464 0.41733 0.0
H4046 H 0.76018 0.65475 0.40595 0.0
C4047 C 0.69953 0.66528 0.36826 0.0
C4048 C 0.71719 0.64696 0.38189 0.0
H4049 H 0.71969 0.63522 0.41404 0.0
C4050 C 0.72865 0.64788 0.37595 0.0
C4051 C 0.71386 0.64228 0.39577 0.0
C4052 C 0.70136 0.64056 0.40246 0.0
C4053 C 0.73685 0.64417 0.38346 0.0
C4054 C 0.73365 0.63969 0.39742 0.0
C4055 C 0.7222 0.6388 0.40339 0.0
C4056 C 0.74167 0.63515 0.40565 0.0
C4057 C 0.74861 0.64467 0.37617 0.0
C4058 C 0.73567 0.62152 0.40976 0.0
C4059 C 0.74336 0.6168 0.41645 0.0
C4060 C 0.75719 0.62564 0.4193 0.0
C4061 C 0.76311 0.6394 0.41549 0.0
C4062 C 0.75539 0.64414 0.40886 0.0
H4063 H 0.74773 0.64507 0.3645 0.0
H4064 H 0.758 0.65401 0.38001 0.0
H4065 H 0.74949 0.63559 0.37857 0.0
H4066 H 0.72511 0.61441 0.40736 0.0
H4067 H 0.73858 0.6061 0.41904 0.0
H4068 H 0.31334 0.02632 0.37615 0.0
H4069 H 0.32343 0.05105 0.38093 0.0
H4070 H 0.36266 0.05515 0.38427 0.0
H4071 H 0.3527 0.03069 0.37847 0.0
H4072 H 0.33479 0.06503 0.40299 0.0
H4073 H 0.37262 0.0875 0.36231 0.0
H4074 H 0.36004 0.06953 0.36161 0.0
H4075 H 0.37547 0.07576 0.37197 0.0
C4076 C 0.32415 0.0326 0.37757 0.0
C4077 C 0.33226 0.02665 0.37683 0.0
C4078 C 0.32992 0.04673 0.38034 0.0
C4079 C 0.34388 0.05512 0.38276 0.0
C4080 C 0.35196 0.04911 0.38193 0.0
H4081 H 0.38104 0.13153 0.44469 0.0
H4082 H 0.36624 0.10443 0.43138 0.0
C4083 C 0.34624 0.03507 0.37873 0.0
C4084 C 0.34981 0.06981 0.38744 0.0
H4085 H 0.37681 0.10174 0.38359 0.0
C4086 C 0.34386 0.07309 0.39855 0.0
C4087 C 0.36146 0.08049 0.3815 0.0
C4088 C 0.36764 0.07813 0.36858 0.0
C4089 C 0.34946 0.08656 0.40421 0.0
C4090 C 0.36181 0.09698 0.39917 0.0
C4091 C 0.36747 0.09382 0.38768 0.0
C4092 C 0.36931 0.11104 0.40579 0.0
C4093 C 0.34172 0.08932 0.41522 0.0
C4094 C 0.37826 0.12531 0.39448 0.0
C4095 C 0.38864 0.14247 0.40182 0.0
C4096 C 0.38646 0.14435 0.42108 0.0
C4097 C 0.38076 0.12996 0.43332 0.0
C4098 C 0.37086 0.11325 0.42488 0.0
H4099 H 0.33073 0.08244 0.41328 0.0
H4100 H 0.34424 0.08709 0.42582 0.0
H4101 H 0.3439 0.10005 0.41529 0.0
H4102 H 0.3775 0.12356 0.38311 0.0
H4103 H 0.39303 0.15116 0.39509 0.0
H4104 H 0.96093 0.30265 0.33311 0.0
H4105 H 0.94205 0.29273 0.34881 0.0
H4106 H 0.96829 0.29462 0.38294 0.0
H4107 H 0.98736 0.30478 0.36732 0.0
H4108 H 0.93228 0.26829 0.36227 0.0
H4109 H 0.94809 0.31198 0.40117 0.0
H4110 H 0.95574 0.31391 0.38426 0.0
H4111 H 0.9602 0.30666 0.39855 0.0
C4112 C 0.96275 0.3011 0.34399 0.0
C4113 C 0.97567 0.30452 0.34896 0.0
C4114 C 0.95193 0.2954 0.35294 0.0
C4115 C 0.95378 0.29304 0.36706 0.0
C4116 C 0.96668 0.29657 0.37214 0.0
H4117 H 0.88451 0.2376 0.41594 0.0
H4118 H 0.90623 0.24849 0.40468 0.0
C4119 C 0.97755 0.30231 0.36318 0.0
C4120 C 0.94203 0.28633 0.37617 0.0
H4121 H 0.92832 0.29123 0.40587 0.0
C4122 C 0.93142 0.27327 0.37183 0.0
C4123 C 0.94092 0.29292 0.38857 0.0
C4124 C 0.95178 0.30719 0.3934 0.0
C4125 C 0.91962 0.26667 0.37944 0.0
C4126 C 0.91854 0.27319 0.39194 0.0
C4127 C 0.92922 0.2862 0.39636 0.0
C4128 C 0.90607 0.26706 0.40004 0.0
C4129 C 0.90825 0.25302 0.3737 0.0
C4130 C 0.89905 0.27412 0.40172 0.0
C4131 C 0.8868 0.26806 0.40843 0.0
C4132 C 0.88135 0.25484 0.41367 0.0
C4133 C 0.88853 0.24788 0.41222 0.0
C4134 C 0.90087 0.25403 0.40564 0.0
H4135 H 0.90938 0.25117 0.36233 0.0
H4136 H 0.90818 0.24467 0.37967 0.0
H4137 H 0.89841 0.25239 0.37488 0.0
H4138 H 0.90285 0.28417 0.39745 0.0
H4139 H 0.88137 0.27354 0.40919 0.0
H4140 H 0.99855 0.34766 0.31036 0.0
H4141 H 0.99544 0.36648 0.30259 0.0
H4142 H 0.03794 0.39477 0.30914 0.0
H4143 H 0.04116 0.37597 0.3162 0.0
H4144 H 0.00013 0.3911 0.31284 0.0
H4145 H 0.03278 0.39879 0.26788 0.0
H4146 H 0.02707 0.38431 0.279 0.0
H4147 H 0.04152 0.40063 0.28438 0.0
C4148 C 0.00717 0.35795 0.31032 0.0
C4149 C 0.02012 0.36037 0.31363 0.0
C4150 C 0.00539 0.36867 0.30586 0.0
C4151 C 0.01653 0.38193 0.30484 0.0
C4152 C 0.02928 0.38452 0.30935 0.0
H4153 H 0.02165 0.45969 0.2959 0.0
H4154 H 0.01789 0.43785 0.30407 0.0
C4155 C 0.0311 0.37381 0.31348 0.0
C4156 C 0.0151 0.39295 0.29837 0.0
H4157 H 0.02854 0.41703 0.2734 0.0
C4158 C 0.00621 0.39669 0.30411 0.0
C4159 C 0.02271 0.39995 0.28667 0.0
C4160 C 0.03142 0.39561 0.27902 0.0
C4161 C 0.00524 0.4077 0.2989 0.0
C4162 C 0.01373 0.41545 0.288 0.0
C4163 C 0.02214 0.41126 0.28187 0.0
C4164 C 0.01463 0.42826 0.2831 0.0
C4165 C 0.99504 0.41079 0.30506 0.0
C4166 C 0.01427 0.43033 0.26856 0.0
C4167 C 0.01706 0.44307 0.26381 0.0
C4168 C 0.02027 0.45408 0.27352 0.0
C4169 C 0.01974 0.45167 0.28809 0.0
C4170 C 0.01727 0.43903 0.29281 0.0
H4171 H 0.98629 0.40134 0.30884 0.0
H4172 H 0.9997 0.41808 0.31433 0.0
H4173 H 0.99138 0.41539 0.29722 0.0
H4174 H 0.01216 0.42217 0.26083 0.0
H4175 H 0.01692 0.44429 0.2525 0.0
H4176 H 0.6493 0.6349 0.32883 0.0
H4177 H 0.63541 0.61085 0.32063 0.0
H4178 H 0.61575 0.6224 0.28931 0.0
H4179 H 0.6292 0.6463 0.29768 0.0
H4180 H 0.59813 0.59858 0.30105 0.0
H4181 H 0.64312 0.59663 0.28455 0.0
H4182 H 0.64326 0.60078 0.30303 0.0
H4183 H 0.64394 0.61244 0.29006 0.0
C4184 C 0.6419 0.6323 0.32032 0.0
C4185 C 0.6405 0.64259 0.31381 0.0
C4186 C 0.63404 0.61856 0.31557 0.0
C4187 C 0.62479 0.61487 0.30411 0.0
C4188 C 0.62289 0.62501 0.29811 0.0
H4189 H 0.57135 0.54327 0.2401 0.0
H4190 H 0.5844 0.56841 0.25759 0.0
C4191 C 0.63063 0.6387 0.30292 0.0
C4192 C 0.61749 0.60065 0.29785 0.0
H4193 H 0.6222 0.57638 0.28092 0.0
C4194 C 0.60339 0.59371 0.29669 0.0
C4195 C 0.62436 0.59428 0.29216 0.0
C4196 C 0.6395 0.60144 0.29237 0.0
C4197 C 0.59601 0.58066 0.28987 0.0
C4198 C 0.60291 0.57446 0.28398 0.0
C4199 C 0.61694 0.58117 0.2855 0.0
C4200 C 0.59597 0.56136 0.2756 0.0
C4201 C 0.58089 0.57357 0.28924 0.0
C4202 C 0.59986 0.5482 0.27964 0.0
C4203 C 0.59279 0.53253 0.26893 0.0
C4204 C 0.57946 0.53008 0.25583 0.0
C4205 C 0.5782 0.54465 0.2488 0.0
C4206 C 0.58575 0.55992 0.26021 0.0
H4207 H 0.57713 0.57762 0.29774 0.0
H4208 H 0.57747 0.57542 0.27893 0.0
H4209 H 0.5763 0.56234 0.29025 0.0
H4210 H 0.6066 0.54977 0.28851 0.0
H4211 H 0.59413 0.52413 0.27196 0.0
H4212 H 0.33927 0.96376 0.31705 0.0
H4213 H 0.35781 0.96623 0.30286 0.0
H4214 H 0.38339 0.00691 0.32142 0.0
H4215 H 0.36498 0.00449 0.33582 0.0
H4216 H 0.37535 0.98598 0.28335 0.0
H4217 H 0.40209 0.98543 0.33264 0.0
H4218 H 0.38462 0.98064 0.33216 0.0
H4219 H 0.39749 0.99842 0.3324 0.0
C4220 C 0.34878 0.97332 0.31799 0.0
C4221 C 0.35071 0.98384 0.32775 0.0
C4222 C 0.35935 0.97471 0.30983 0.0
C4223 C 0.37202 0.98665 0.3113 0.0
C4224 C 0.37374 0.99752 0.32033 0.0
H4225 H 0.44985 0.00102 0.28543 0.0
H4226 H 0.4317 0.00453 0.29334 0.0
C4227 C 0.36319 0.99613 0.32853 0.0
C4228 C 0.38364 0.9872 0.30428 0.0
H4229 H 0.41302 0.9878 0.31132 0.0
C4230 C 0.38364 0.98646 0.28943 0.0
C4231 C 0.3944 0.98776 0.31226 0.0
C4232 C 0.39467 0.98799 0.32825 0.0
C4233 C 0.39417 0.98631 0.28235 0.0
C4234 C 0.40482 0.98667 0.29036 0.0
C4235 C 0.40489 0.98761 0.30519 0.0
C4236 C 0.41575 0.98544 0.28375 0.0
C4237 C 0.39385 0.98588 0.26639 0.0
C4238 C 0.41283 0.97363 0.27558 0.0
C4239 C 0.42319 0.97165 0.27097 0.0
C4240 C 0.43667 0.98141 0.27455 0.0
C4241 C 0.43957 0.99339 0.28241 0.0
C4242 C 0.42922 0.9954 0.28695 0.0
H4243 H 0.38752 0.98984 0.26204 0.0
H4244 H 0.40412 0.99197 0.26232 0.0
H4245 H 0.3895 0.97509 0.26238 0.0
H4246 H 0.40252 0.96564 0.27328 0.0
H4247 H 0.42068 0.96224 0.26509 0.0
H4248 H 0.6459 0.99514 0.32047 0.0
H4249 H 0.63512 0.00093 0.30152 0.0
H4250 H 0.60282 0.99353 0.32884 0.0
H4251 H 0.61338 0.98755 0.34774 0.0
H4252 H 0.59391 0.98116 0.30207 0.0
H4253 H 0.63323 0.036 0.29895 0.0
H4254 H 0.63931 0.02423 0.29718 0.0
H4255 H 0.63252 0.0258 0.31362 0.0
C4256 C 0.63654 0.99481 0.32247 0.0
C4257 C 0.63052 0.99092 0.33564 0.0
C4258 C 0.63043 0.99818 0.31165 0.0
C4259 C 0.61826 0.99783 0.31384 0.0
C4260 C 0.61223 0.99391 0.32695 0.0
H4261 H 0.5816 0.03336 0.26244 0.0
H4262 H 0.59181 0.02703 0.28151 0.0
C4263 C 0.6183 0.99052 0.33775 0.0
C4264 C 0.61162 0.00124 0.30241 0.0
H4265 H 0.61576 0.02697 0.28122 0.0
C4266 C 0.59867 0.99118 0.29752 0.0
C4267 C 0.6178 0.01437 0.29662 0.0
C4268 C 0.63143 0.02578 0.30192 0.0
C4269 C 0.59177 0.99385 0.28687 0.0
C4270 C 0.59808 0.00686 0.28082 0.0
C4271 C 0.61098 0.01697 0.28581 0.0
C4272 C 0.59143 0.01029 0.26941 0.0
C4273 C 0.57768 0.98281 0.28239 0.0
C4274 C 0.5879 0.00302 0.25628 0.0
C4275 C 0.58199 0.00656 0.24542 0.0
C4276 C 0.5795 0.01743 0.2475 0.0
C4277 C 0.58316 0.02477 0.26064 0.0
C4278 C 0.58905 0.02121 0.27149 0.0
H4279 H 0.57308 0.9749 0.29045 0.0
H4280 H 0.57115 0.98725 0.28051 0.0
H4281 H 0.57797 0.97763 0.27237 0.0
H4282 H 0.58994 0.99476 0.25434 0.0
H4283 H 0.57953 0.00093 0.23531 0.0
H4284 H 0.00049 0.65113 0.32121 0.0
H4285 H 0.99256 0.62778 0.31174 0.0
H4286 H 0.03248 0.64023 0.29826 0.0
H4287 H 0.04048 0.66341 0.30775 0.0
H4288 H 0.99328 0.62248 0.28356 0.0
H4289 H 0.0211 0.60294 0.31344 0.0
H4290 H 0.01945 0.61716 0.32005 0.0
H4291 H 0.03232 0.61993 0.30785 0.0
C4292 C 0.00766 0.64879 0.31659 0.0
C4293 C 0.02111 0.65917 0.31512 0.0
C4294 C 0.0031 0.63544 0.31117 0.0
C4295 C 0.01195 0.63222 0.30442 0.0
C4296 C 0.02552 0.64238 0.30369 0.0
H4297 H 0.02823 0.58571 0.239 0.0
H4298 H 0.02651 0.60227 0.26178 0.0
C4299 C 0.03006 0.65569 0.30902 0.0
C4300 C 0.00687 0.61904 0.29627 0.0
H4301 H 0.0148 0.59432 0.28886 0.0
C4302 C 0.99764 0.61603 0.28494 0.0
C4303 C 0.01255 0.61064 0.29814 0.0
C4304 C 0.0218 0.61276 0.31064 0.0
C4305 C 0.99493 0.60566 0.27466 0.0
C4306 C 0.00145 0.59798 0.27597 0.0
C4307 C 0.00988 0.6003 0.28785 0.0
C4308 C 0.00139 0.58909 0.26426 0.0
C4309 C 0.986 0.60383 0.26195 0.0
C4310 C 0.98578 0.57532 0.25644 0.0
C4311 C 0.98583 0.56488 0.24169 0.0
C4312 C 0.00276 0.56762 0.23762 0.0
C4313 C 0.01859 0.5838 0.24253 0.0
C4314 C 0.01745 0.59357 0.25719 0.0
H4315 H 0.9842 0.61257 0.26107 0.0
H4316 H 0.99044 0.60278 0.25201 0.0
H4317 H 0.97612 0.59437 0.26295 0.0
H4318 H 0.97632 0.57321 0.26067 0.0
H4319 H 0.97667 0.55596 0.23763 0.0
H4320 H 0.37789 0.37748 0.35496 0.0
H4321 H 0.39634 0.38401 0.33896 0.0
H4322 H 0.36794 0.36201 0.30431 0.0
H4323 H 0.34934 0.35548 0.32023 0.0
H4324 H 0.40141 0.36553 0.32308 0.0
H4325 H 0.39344 0.39999 0.28854 0.0
H4326 H 0.38602 0.39522 0.30562 0.0
H4327 H 0.37894 0.38334 0.29061 0.0
C4328 C 0.37553 0.37411 0.34392 0.0
C4329 C 0.36214 0.36596 0.33887 0.0
C4330 C 0.3861 0.37785 0.3348 0.0
C4331 C 0.38349 0.3736 0.32045 0.0
C4332 C 0.37015 0.36558 0.31531 0.0
H4333 H 0.43499 0.38554 0.25006 0.0
H4334 H 0.41597 0.37862 0.26544 0.0
C4335 C 0.35954 0.36182 0.32444 0.0
C4336 C 0.39478 0.37705 0.31106 0.0
H4337 H 0.41004 0.39472 0.28188 0.0
C4338 C 0.40334 0.37194 0.31408 0.0
C4339 C 0.39718 0.38535 0.29931 0.0
C4340 C 0.3885 0.39141 0.29584 0.0
C4341 C 0.41419 0.37477 0.30555 0.0
C4342 C 0.4167 0.3832 0.29389 0.0
C4343 C 0.40809 0.38826 0.29083 0.0
C4344 C 0.42824 0.38697 0.28473 0.0
C4345 C 0.42267 0.36845 0.30896 0.0
C4346 C 0.44144 0.39401 0.29046 0.0
C4347 C 0.4523 0.3978 0.28173 0.0
C4348 C 0.45016 0.39476 0.26707 0.0
C4349 C 0.43692 0.38784 0.26134 0.0
C4350 C 0.42608 0.38396 0.27009 0.0
H4351 H 0.41719 0.35927 0.31541 0.0
H4352 H 0.42587 0.36543 0.29917 0.0
H4353 H 0.4318 0.37606 0.31519 0.0
H4354 H 0.44337 0.39677 0.30167 0.0
H4355 H 0.46239 0.40327 0.28641 0.0
H4356 H 0.34515 0.32255 0.36337 0.0
H4357 H 0.35637 0.3098 0.36898 0.0
H4358 H 0.32188 0.28086 0.39142 0.0
H4359 H 0.31061 0.29371 0.38611 0.0
H4360 H 0.34519 0.2904 0.40694 0.0
H4361 H 0.35076 0.27352 0.35323 0.0
H4362 H 0.35731 0.29168 0.35491 0.0
H4363 H 0.33962 0.28003 0.35668 0.0
C4364 C 0.33983 0.31336 0.36933 0.0
C4365 C 0.32696 0.30918 0.3743 0.0
C4366 C 0.34625 0.30603 0.37246 0.0
C4367 C 0.3399 0.29428 0.38047 0.0
C4368 C 0.32694 0.28988 0.38518 0.0
H4369 H 0.37463 0.24225 0.39353 0.0
H4370 H 0.35931 0.25059 0.38767 0.0
C4371 C 0.32051 0.29723 0.3821 0.0
C4372 C 0.34717 0.28719 0.38475 0.0
H4373 H 0.36453 0.27243 0.37182 0.0
C4374 C 0.3493 0.28633 0.39926 0.0
C4375 C 0.3524 0.28176 0.37473 0.0
C4376 C 0.3498 0.28166 0.35902 0.0
C4377 C 0.35688 0.28057 0.40403 0.0
C4378 C 0.36269 0.27579 0.394 0.0
C4379 C 0.36019 0.27624 0.3795 0.0
C4380 C 0.37158 0.2705 0.3983 0.0
C4381 C 0.35854 0.27961 0.41974 0.0
C4382 C 0.38357 0.27895 0.40619 0.0
C4383 C 0.39228 0.27418 0.40962 0.0
C4384 C 0.38916 0.26089 0.40517 0.0
C4385 C 0.37717 0.25247 0.39725 0.0
C4386 C 0.36845 0.25723 0.39386 0.0
H4387 H 0.35042 0.27986 0.42564 0.0
H4388 H 0.35855 0.27005 0.42215 0.0
H4389 H 0.36826 0.28849 0.42366 0.0
H4390 H 0.38635 0.28935 0.40941 0.0
H4391 H 0.40157 0.28095 0.41552 0.0
H4392 H 0.68109 0.02686 0.36546 0.0
H4393 H 0.69489 0.05144 0.37109 0.0
H4394 H 0.72185 0.0444 0.39683 0.0
H4395 H 0.708 0.01972 0.39146 0.0
H4396 H 0.71415 0.06101 0.41044 0.0
H4397 H 0.73139 0.07936 0.35686 0.0
H4398 H 0.71348 0.06884 0.35758 0.0
H4399 H 0.72389 0.06154 0.36104 0.0
C4400 C 0.69005 0.03051 0.37218 0.0
C4401 C 0.69342 0.02126 0.37799 0.0
C4402 C 0.69796 0.0446 0.37533 0.0
C4403 C 0.70949 0.04977 0.38424 0.0
C4404 C 0.71302 0.04062 0.38989 0.0
H4405 H 0.76822 0.13687 0.39629 0.0
H4406 H 0.75714 0.11202 0.39164 0.0
C4407 C 0.70509 0.02652 0.38677 0.0
C4408 C 0.71746 0.06464 0.38824 0.0
H4409 H 0.73479 0.09638 0.37456 0.0
C4410 C 0.71876 0.06875 0.40261 0.0
C4411 C 0.72358 0.07471 0.37803 0.0
C4412 C 0.72315 0.07091 0.36253 0.0
C4413 C 0.72574 0.08269 0.40702 0.0
C4414 C 0.73138 0.09277 0.39675 0.0
C4415 C 0.73036 0.08864 0.38242 0.0
C4416 C 0.73834 0.10767 0.40058 0.0
C4417 C 0.72712 0.08648 0.42264 0.0
C4418 C 0.73146 0.11347 0.40721 0.0
C4419 C 0.73781 0.12766 0.40996 0.0
C4420 C 0.75114 0.13629 0.4061 0.0
C4421 C 0.75802 0.13044 0.39956 0.0
C4422 C 0.75168 0.11627 0.39684 0.0
H4423 H 0.72564 0.07784 0.42917 0.0
H4424 H 0.73714 0.09553 0.42544 0.0
H4425 H 0.71936 0.0891 0.42541 0.0
H4426 H 0.72106 0.10708 0.40988 0.0
H4427 H 0.7322 0.13193 0.41477 0.0
H4428 H 0.98874 0.68597 0.3676 0.0
H4429 H 0.96959 0.67474 0.38303 0.0
H4430 H 0.94969 0.64055 0.35275 0.0
H4431 H 0.9687 0.65163 0.33727 0.0
H4432 H 0.94159 0.66591 0.37477 0.0
H4433 H 0.94876 0.62322 0.39165 0.0
H4434 H 0.96213 0.63874 0.38463 0.0
H4435 H 0.94934 0.62574 0.37292 0.0
C4436 C 0.98033 0.67602 0.36427 0.0
C4437 C 0.98024 0.66969 0.35121 0.0
C4438 C 0.9694 0.66964 0.37308 0.0
C4439 C 0.95832 0.65678 0.36906 0.0
C4440 C 0.95824 0.6504 0.3561 0.0
H4441 H 0.87698 0.61137 0.39719 0.0
H4442 H 0.89747 0.623 0.38366 0.0
C4443 C 0.96909 0.65679 0.34725 0.0
C4444 C 0.94657 0.6502 0.37813 0.0
H4445 H 0.92827 0.62199 0.39755 0.0
C4446 C 0.93871 0.65635 0.37983 0.0
C4447 C 0.9429 0.63777 0.38472 0.0
C4448 C 0.95126 0.63099 0.38352 0.0
C4449 C 0.92706 0.65019 0.38771 0.0
C4450 C 0.92323 0.63761 0.39401 0.0
C4451 C 0.93124 0.6316 0.39258 0.0
C4452 C 0.91092 0.63056 0.40215 0.0
C4453 C 0.91885 0.6571 0.38927 0.0
C4454 C 0.9118 0.63095 0.41697 0.0
C4455 C 0.90015 0.62444 0.4247 0.0
C4456 C 0.88743 0.61731 0.41772 0.0
C4457 C 0.88662 0.61682 0.40284 0.0
C4458 C 0.89829 0.62344 0.39512 0.0
H4459 H 0.92403 0.66761 0.38521 0.0
H4460 H 0.9091 0.6509 0.38332 0.0
H4461 H 0.91664 0.65768 0.40057 0.0
H4462 H 0.92149 0.6364 0.42253 0.0
H4463 H 0.90105 0.625 0.43615 0.0
H4464 H 0.35842 0.00356 0.7031 0.0
H4465 H 0.36973 0.99826 0.72195 0.0
H4466 H 0.40751 0.02175 0.70179 0.0
H4467 H 0.39634 0.02698 0.68289 0.0
H4468 H 0.40224 0.9959 0.70938 0.0
H4469 H 0.39519 0.02418 0.75424 0.0
H4470 H 0.38008 0.01227 0.74433 0.0
H4471 H 0.3929 0.02705 0.73597 0.0
C4472 C 0.36914 0.00765 0.70271 0.0
C4473 C 0.37647 0.0157 0.69149 0.0
C4474 C 0.3756 0.00468 0.71354 0.0
C4475 C 0.38948 0.00976 0.71334 0.0
C4476 C 0.3968 0.01778 0.70216 0.0
H4477 H 0.44569 0.01444 0.78819 0.0
H4478 H 0.43142 0.02031 0.76653 0.0
C4479 C 0.39038 0.02075 0.69137 0.0
C4480 C 0.39639 0.00635 0.72447 0.0
H4481 H 0.40455 0.01037 0.75986 0.0
C4482 C 0.40272 0.99902 0.72043 0.0
C4483 C 0.39721 0.01067 0.73882 0.0
C4484 C 0.39109 0.01909 0.74364 0.0
C4485 C 0.40972 0.99574 0.73037 0.0
C4486 C 0.4102 0.99972 0.74478 0.0
C4487 C 0.40406 0.00724 0.74881 0.0
C4488 C 0.41706 0.99629 0.75584 0.0
C4489 C 0.41699 0.98858 0.72523 0.0
C4490 C 0.41214 0.97852 0.75796 0.0
C4491 C 0.42003 0.97383 0.77153 0.0
C4492 C 0.43501 0.98856 0.78066 0.0
C4493 C 0.43769 0.00628 0.78167 0.0
C4494 C 0.42921 0.00989 0.76775 0.0
H4495 H 0.41819 0.98914 0.71359 0.0
H4496 H 0.42709 0.99322 0.73048 0.0
H4497 H 0.41119 0.97759 0.72772 0.0
H4498 H 0.40427 0.97058 0.75117 0.0
H4499 H 0.41797 0.9634 0.77213 0.0
H4500 H 0.96746 0.33833 0.72294 0.0
H4501 H 0.97044 0.36072 0.7292 0.0
H4502 H 0.00705 0.38027 0.70633 0.0
H4503 H 0.00414 0.35769 0.69984 0.0
H4504 H 0.99341 0.38263 0.7446 0.0
H4505 H 0.98448 0.39719 0.69138 0.0
H4506 H 0.97914 0.37964 0.69524 0.0
H4507 H 0.99659 0.39169 0.69306 0.0
C4508 C 0.97614 0.34733 0.71912 0.0
C4509 C 0.98558 0.34617 0.71088 0.0
C4510 C 0.97782 0.36014 0.72275 0.0
C4511 C 0.98893 0.37212 0.7182 0.0
C4512 C 0.99833 0.3711 0.70982 0.0
H4513 H 0.99923 0.454 0.73411 0.0
H4514 H 0.00424 0.43601 0.72715 0.0
C4515 C 0.99666 0.35821 0.70616 0.0
C4516 C 0.99058 0.38555 0.72267 0.0
H4517 H 0.98722 0.41194 0.71079 0.0
C4518 C 0.99224 0.38915 0.7372 0.0
C4519 C 0.98914 0.39405 0.71297 0.0
C4520 C 0.98717 0.3905 0.69728 0.0
C4521 C 0.99198 0.40077 0.74235 0.0
C4522 C 0.98978 0.40884 0.73272 0.0
C4523 C 0.98883 0.40566 0.71813 0.0
C4524 C 0.98736 0.41993 0.73765 0.0
C4525 C 0.99384 0.40417 0.75806 0.0
C4526 C 0.97618 0.4168 0.74578 0.0
C4527 C 0.97332 0.42702 0.74975 0.0
C4528 C 0.98164 0.44058 0.74573 0.0
C4529 C 0.99283 0.44368 0.73759 0.0
C4530 C 0.99566 0.43344 0.73357 0.0
H4531 H 0.99938 0.39973 0.76334 0.0
H4532 H 0.99937 0.41544 0.7603 0.0
H4533 H 0.98385 0.39978 0.7628 0.0
H4534 H 0.96946 0.40636 0.74872 0.0
H4535 H 0.96444 0.42426 0.7557 0.0
H4536 H 0.63429 0.60721 0.68729 0.0
H4537 H 0.61621 0.6 0.70389 0.0
H4538 H 0.63236 0.64204 0.71872 0.0
H4539 H 0.65044 0.64942 0.70195 0.0
H4540 H 0.6166 0.60337 0.73354 0.0
H4541 H 0.59355 0.62986 0.70623 0.0
H4542 H 0.6062 0.62722 0.69828 0.0
H4543 H 0.6109 0.64055 0.71174 0.0
C4544 C 0.63406 0.61495 0.69411 0.0
C4545 C 0.64374 0.62892 0.69318 0.0
C4546 C 0.62373 0.61079 0.70362 0.0
C4547 C 0.62283 0.6205 0.71237 0.0
C4548 C 0.63273 0.63441 0.71186 0.0
H4549 H 0.55732 0.60842 0.76639 0.0
H4550 H 0.57923 0.61837 0.75547 0.0
C4551 C 0.64309 0.6386 0.70232 0.0
C4552 C 0.61126 0.616 0.72165 0.0
H4553 H 0.58305 0.618 0.72652 0.0
C4554 C 0.6093 0.60662 0.73207 0.0
C4555 C 0.60176 0.62027 0.7197 0.0
C4556 C 0.60309 0.62994 0.70832 0.0
C4557 C 0.59801 0.60129 0.74053 0.0
C4558 C 0.58836 0.60531 0.73834 0.0
C4559 C 0.5905 0.61496 0.72818 0.0
C4560 C 0.57562 0.59912 0.74592 0.0
C4561 C 0.59652 0.59142 0.75174 0.0
C4562 C 0.56632 0.58503 0.7441 0.0
C4563 C 0.55384 0.57934 0.75033 0.0
C4564 C 0.55044 0.58763 0.75855 0.0
C4565 C 0.55979 0.60175 0.76036 0.0
C4566 C 0.57226 0.60744 0.7541 0.0
H4567 H 0.60633 0.59244 0.7548 0.0
H4568 H 0.59204 0.59309 0.76135 0.0
H4569 H 0.58977 0.58076 0.74753 0.0
H4570 H 0.56856 0.5785 0.73751 0.0
H4571 H 0.54671 0.5685 0.74844 0.0
H4572 H 0.65796 0.67837 0.65726 0.0
H4573 H 0.65001 0.69397 0.65094 0.0
H4574 H 0.688 0.72087 0.63259 0.0
H4575 H 0.69597 0.70525 0.63861 0.0
H4576 H 0.65962 0.72216 0.65686 0.0
H4577 H 0.66073 0.71061 0.5995 0.0
H4578 H 0.66236 0.70059 0.61308 0.0
H4579 H 0.67642 0.71701 0.6092 0.0
C4580 C 0.66469 0.68768 0.65203 0.0
C4581 C 0.67753 0.69045 0.64825 0.0
C4582 C 0.66013 0.69659 0.64843 0.0
C4583 C 0.66833 0.70842 0.64105 0.0
C4584 C 0.68142 0.71163 0.63801 0.0
H4585 H 0.64927 0.77143 0.61779 0.0
H4586 H 0.66056 0.75975 0.62746 0.0
C4587 C 0.68596 0.7027 0.6415 0.0
C4588 C 0.66288 0.71692 0.63582 0.0
H4589 H 0.65441 0.72691 0.60547 0.0
C4590 C 0.65855 0.72328 0.64564 0.0
C4591 C 0.66137 0.71822 0.62115 0.0
C4592 C 0.66535 0.71116 0.61009 0.0
C4593 C 0.65272 0.73091 0.64115 0.0
C4594 C 0.65127 0.73221 0.6265 0.0
C4595 C 0.65566 0.72594 0.6167 0.0
C4596 C 0.64448 0.73937 0.62107 0.0
C4597 C 0.64779 0.73721 0.65201 0.0
C4598 C 0.63181 0.73174 0.61422 0.0
C4599 C 0.62536 0.73834 0.60876 0.0
C4600 C 0.63156 0.75272 0.60988 0.0
C4601 C 0.6443 0.76035 0.61674 0.0
C4602 C 0.65071 0.75371 0.62231 0.0
H4603 H 0.64814 0.73383 0.66284 0.0
H4604 H 0.65413 0.74856 0.65205 0.0
H4605 H 0.63731 0.73447 0.64923 0.0
H4606 H 0.62689 0.72065 0.61315 0.0
H4607 H 0.61553 0.73219 0.60362 0.0
H4608 H 0.29626 0.98105 0.63497 0.0
H4609 H 0.28347 0.95701 0.62681 0.0
H4610 H 0.31204 0.94927 0.64839 0.0
H4611 H 0.32493 0.97335 0.65673 0.0
H4612 H 0.29549 0.94569 0.60944 0.0
H4613 H 0.27524 0.91594 0.65771 0.0
H4614 H 0.28073 0.93399 0.65719 0.0
H4615 H 0.29285 0.92855 0.65861 0.0
C4616 C 0.29972 0.97421 0.63825 0.0
C4617 C 0.31172 0.9792 0.64642 0.0
C4618 C 0.29237 0.96046 0.63357 0.0
C4619 C 0.29678 0.95135 0.63703 0.0
C4620 C 0.30835 0.95608 0.64578 0.0
H4621 H 0.2692 0.86054 0.61011 0.0
H4622 H 0.28275 0.88807 0.62284 0.0
C4623 C 0.31574 0.96988 0.65049 0.0
C4624 C 0.29013 0.93743 0.63011 0.0
H4625 H 0.27268 0.90321 0.63633 0.0
C4626 C 0.29041 0.93639 0.61532 0.0
C4627 C 0.28374 0.92536 0.63782 0.0
C4628 C 0.28299 0.92593 0.65371 0.0
C4629 C 0.28454 0.9236 0.60799 0.0
C4630 C 0.27784 0.91151 0.61566 0.0
C4631 C 0.27772 0.91251 0.63048 0.0
C4632 C 0.27103 0.89775 0.60854 0.0
C4633 C 0.2861 0.92331 0.59219 0.0
C4634 C 0.25944 0.89415 0.59373 0.0
C4635 C 0.25108 0.87755 0.58467 0.0
C4636 C 0.2531 0.8642 0.59363 0.0
C4637 C 0.26754 0.8684 0.60596 0.0
C4638 C 0.27537 0.88533 0.6143 0.0
H4639 H 0.29538 0.93259 0.58899 0.0
H4640 H 0.2865 0.91412 0.58847 0.0
H4641 H 0.27748 0.92324 0.58674 0.0
H4642 H 0.2573 0.90193 0.59037 0.0
H4643 H 0.24332 0.87494 0.57658 0.0
H4644 H 0.04409 0.35533 0.68446 0.0
H4645 H 0.06294 0.36395 0.66873 0.0
H4646 H 0.03789 0.33301 0.63679 0.0
H4647 H 0.01886 0.32437 0.65244 0.0
H4648 H 0.07389 0.3486 0.65856 0.0
H4649 H 0.05679 0.36822 0.61443 0.0
H4650 H 0.04913 0.36474 0.63146 0.0
H4651 H 0.04519 0.35087 0.61891 0.0
C4652 C 0.0425 0.35046 0.67402 0.0
C4653 C 0.02997 0.33913 0.66972 0.0
C4654 C 0.0533 0.3554 0.66505 0.0
C4655 C 0.0518 0.34917 0.65157 0.0
C4656 C 0.03922 0.3381 0.64706 0.0
H4657 H 0.12151 0.35947 0.60615 0.0
H4658 H 0.09968 0.34945 0.61718 0.0
C4659 C 0.02837 0.33314 0.65604 0.0
C4660 C 0.0637 0.35373 0.64275 0.0
H4661 H 0.07707 0.36812 0.61149 0.0
C4662 C 0.07459 0.35284 0.64825 0.0
C4663 C 0.06458 0.35933 0.62936 0.0
C4664 C 0.05336 0.36098 0.62319 0.0
C4665 C 0.08641 0.35751 0.64079 0.0
C4666 C 0.08726 0.36297 0.62731 0.0
C4667 C 0.07633 0.3638 0.62176 0.0
C4668 C 0.09971 0.36859 0.61923 0.0
C4669 C 0.09803 0.35696 0.64765 0.0
C4670 C 0.10669 0.38254 0.6162 0.0
C4671 C 0.11903 0.38824 0.60969 0.0
C4672 C 0.12458 0.38006 0.60596 0.0
C4673 C 0.1174 0.36599 0.6087 0.0
C4674 C 0.105 0.36028 0.61512 0.0
H4675 H 0.09694 0.35566 0.65924 0.0
H4676 H 0.09847 0.34809 0.64296 0.0
H4677 H 0.10771 0.36644 0.64582 0.0
H4678 H 0.10281 0.38914 0.61932 0.0
H4679 H 0.12445 0.39914 0.60793 0.0
H4680 H 0.3187 0.35163 0.66592 0.0
H4681 H 0.30856 0.36296 0.65339 0.0
H4682 H 0.27946 0.32432 0.63292 0.0
H4683 H 0.28958 0.31283 0.64537 0.0
H4684 H 0.29072 0.34836 0.61492 0.0
H4685 H 0.271 0.35587 0.66553 0.0
H4686 H 0.28874 0.36208 0.66581 0.0
H4687 H 0.27704 0.344 0.66344 0.0
C4688 C 0.31024 0.34553 0.65864 0.0
C4689 C 0.30484 0.33128 0.65679 0.0
C4690 C 0.30445 0.35204 0.6515 0.0
C4691 C 0.29316 0.34443 0.6424 0.0
C4692 C 0.28815 0.33035 0.63994 0.0
H4693 H 0.23517 0.36826 0.61977 0.0
H4694 H 0.24642 0.35571 0.62647 0.0
C4695 C 0.29394 0.3238 0.64709 0.0
C4696 C 0.28602 0.35101 0.63628 0.0
H4697 H 0.26796 0.36617 0.64553 0.0
C4698 C 0.28571 0.35225 0.62157 0.0
C4699 C 0.27938 0.3559 0.645 0.0
C4700 C 0.27892 0.35433 0.66082 0.0
C4701 C 0.27908 0.35848 0.61536 0.0
C4702 C 0.2727 0.36366 0.62414 0.0
C4703 C 0.27289 0.36224 0.63882 0.0
C4704 C 0.26564 0.37051 0.61845 0.0
C4705 C 0.27876 0.35929 0.59948 0.0
C4706 C 0.27269 0.38293 0.61157 0.0
C4707 C 0.26625 0.39009 0.60767 0.0
C4708 C 0.25266 0.38496 0.61061 0.0
C4709 C 0.24559 0.37238 0.61722 0.0
C4710 C 0.25201 0.36522 0.62109 0.0
H4711 H 0.28116 0.35196 0.59411 0.0
H4712 H 0.26875 0.35715 0.59548 0.0
H4713 H 0.28633 0.3698 0.59655 0.0
H4714 H 0.28329 0.38735 0.60972 0.0
H4715 H 0.27199 0.39987 0.60279 0.0
H4716 H 0.69189 0.97701 0.62879 0.0
H4717 H 0.67902 0.95234 0.62314 0.0
H4718 H 0.64639 0.94899 0.64754 0.0
H4719 H 0.65922 0.97362 0.65345 0.0
H4720 H 0.65176 0.92785 0.65179 0.0
H4721 H 0.64703 0.935 0.59456 0.0
H4722 H 0.66402 0.94347 0.60158 0.0
H4723 H 0.65268 0.94883 0.60776 0.0
C4724 C 0.68203 0.97104 0.63307 0.0
C4725 C 0.67655 0.97736 0.64147 0.0
C4726 C 0.67465 0.95694 0.62975 0.0
C4727 C 0.66164 0.94891 0.63466 0.0
C4728 C 0.65638 0.95504 0.64355 0.0
H4729 H 0.59923 0.86853 0.60223 0.0
H4730 H 0.61329 0.89305 0.60875 0.0
C4731 C 0.66374 0.96914 0.64691 0.0
C4732 C 0.65341 0.93416 0.6303 0.0
H4733 H 0.63908 0.91222 0.60141 0.0
C4734 C 0.64898 0.92441 0.64078 0.0
C4735 C 0.64962 0.92975 0.61595 0.0
C4736 C 0.65346 0.9398 0.6043 0.0
C4737 C 0.64101 0.91032 0.63727 0.0
C4738 C 0.63758 0.90588 0.62287 0.0
C4739 C 0.64185 0.91565 0.61242 0.0
C4740 C 0.62935 0.89115 0.61847 0.0
C4741 C 0.63611 0.90034 0.64904 0.0
C4742 C 0.63387 0.88203 0.62148 0.0
C4743 C 0.62586 0.86806 0.61779 0.0
C4744 C 0.61328 0.86299 0.61083 0.0
C4745 C 0.60893 0.8722 0.60749 0.0
C4746 C 0.61693 0.88617 0.61123 0.0
H4747 H 0.6366 0.9055 0.65939 0.0
H4748 H 0.62561 0.89195 0.64678 0.0
H4749 H 0.64256 0.8957 0.64999 0.0
H4750 H 0.64355 0.8857 0.62679 0.0
H4751 H 0.62943 0.86118 0.62053 0.0
H4752 H 0.03307 0.72435 0.67011 0.0
H4753 H 0.05366 0.73153 0.65744 0.0
H4754 H 0.03885 0.68972 0.64267 0.0
H4755 H 0.0181 0.68237 0.65535 0.0
H4756 H 0.07068 0.72013 0.66361 0.0
H4757 H 0.05426 0.71323 0.60677 0.0
H4758 H 0.04477 0.7152 0.62069 0.0
H4759 H 0.04446 0.69927 0.61805 0.0
C4760 C 0.03406 0.71668 0.66401 0.0
C4761 C 0.02396 0.70276 0.66382 0.0
C4762 C 0.04584 0.72082 0.65676 0.0
C4763 C 0.04773 0.71118 0.64907 0.0
C4764 C 0.0375 0.69734 0.6484 0.0
H4765 H 0.11911 0.72019 0.60872 0.0
H4766 H 0.09598 0.71156 0.61603 0.0
C4767 C 0.02568 0.69316 0.6557 0.0
C4768 C 0.06093 0.7155 0.64295 0.0
H4769 H 0.07702 0.72023 0.61185 0.0
C4770 C 0.07208 0.72016 0.65229 0.0
C4771 C 0.06264 0.71536 0.6282 0.0
C4772 C 0.05095 0.71058 0.61777 0.0
C4773 C 0.08496 0.72476 0.6473 0.0
C4774 C 0.08679 0.72504 0.63253 0.0
C4775 C 0.07559 0.7201 0.62315 0.0
C4776 C 0.10034 0.73061 0.62677 0.0
C4777 C 0.09647 0.72912 0.65792 0.0
C4778 C 0.11031 0.74428 0.62998 0.0
C4779 C 0.12348 0.74917 0.62593 0.0
C4780 C 0.12689 0.74054 0.61839 0.0
C4781 C 0.11674 0.72705 0.61453 0.0
C4782 C 0.10355 0.72213 0.61868 0.0
H4783 H 0.09288 0.72473 0.6684 0.0
H4784 H 0.10358 0.72592 0.65418 0.0
H4785 H 0.10202 0.74047 0.65941 0.0
H4786 H 0.10798 0.75107 0.63598 0.0
H4787 H 0.13109 0.75961 0.62901 0.0
H4788 H 0.9654 0.62736 0.71715 0.0
H4789 H 0.97213 0.61092 0.72378 0.0
H4790 H 0.00805 0.63251 0.70011 0.0
H4791 H 0.00138 0.64903 0.69327 0.0
H4792 H 0.99457 0.60324 0.69659 0.0
H4793 H 0.00313 0.62117 0.75313 0.0
H4794 H 0.98681 0.61638 0.74578 0.0
H4795 H 0.00147 0.63088 0.73921 0.0
C4796 C 0.97469 0.6286 0.71323 0.0
C4797 C 0.98292 0.63963 0.70478 0.0
C4798 C 0.97854 0.61921 0.71711 0.0
C4799 C 0.9907 0.62068 0.71266 0.0
C4800 C 0.99867 0.63129 0.70373 0.0
H4801 H 0.03383 0.5836 0.74895 0.0
H4802 H 0.02667 0.59939 0.74075 0.0
C4803 C 0.99483 0.64071 0.69984 0.0
C4804 C 0.99525 0.61134 0.71765 0.0
H4805 H 0.0043 0.60123 0.74751 0.0
C4806 C 0.99673 0.6028 0.70771 0.0
C4807 C 0.99824 0.61097 0.73215 0.0
C4808 C 0.99747 0.62042 0.7432 0.0
C4809 C 0.00089 0.59366 0.71192 0.0
C4810 C 0.00344 0.59296 0.72648 0.0
C4811 C 0.0022 0.6017 0.73638 0.0
C4812 C 0.0076 0.58336 0.73166 0.0
C4813 C 0.00271 0.585 0.70074 0.0
C4814 C 0.99913 0.56913 0.7295 0.0
C4815 C 0.0032 0.56013 0.73418 0.0
C4816 C 0.01572 0.56519 0.74126 0.0
C4817 C 0.02408 0.57944 0.74364 0.0
C4818 C 0.02002 0.58844 0.73893 0.0
H4819 H 0.00376 0.58927 0.69009 0.0
H4820 H 0.01169 0.58416 0.70328 0.0
H4821 H 0.99377 0.57451 0.70027 0.0
H4822 H 0.98939 0.56499 0.72416 0.0
H4823 H 0.9966 0.5492 0.73215 0.0
H4824 H 0.3718 0.35691 0.72877 0.0
H4825 H 0.384 0.38108 0.73678 0.0
H4826 H 0.36894 0.3914 0.69991 0.0
H4827 H 0.35636 0.36721 0.69205 0.0
H4828 H 0.40313 0.40455 0.72632 0.0
H4829 H 0.35646 0.40663 0.73122 0.0
H4830 H 0.3563 0.39074 0.72805 0.0
H4831 H 0.35833 0.40163 0.71363 0.0
C4832 C 0.37118 0.36433 0.72228 0.0
C4833 C 0.36296 0.3601 0.70986 0.0
C4834 C 0.37815 0.37815 0.7269 0.0
C4835 C 0.37709 0.38799 0.71915 0.0
C4836 C 0.36956 0.38392 0.7063 0.0
H4837 H 0.42663 0.47632 0.72793 0.0
H4838 H 0.4171 0.45189 0.72194 0.0
C4839 C 0.36246 0.37009 0.70176 0.0
C4840 C 0.38354 0.40244 0.7247 0.0
H4841 H 0.377 0.42801 0.73315 0.0
C4842 C 0.39741 0.40966 0.72789 0.0
C4843 C 0.37603 0.40903 0.72709 0.0
C4844 C 0.36094 0.40157 0.72497 0.0
C4845 C 0.40404 0.4234 0.73302 0.0
C4846 C 0.39664 0.4302 0.73464 0.0
C4847 C 0.38271 0.42286 0.73179 0.0
C4848 C 0.4031 0.445 0.73892 0.0
C4849 C 0.41885 0.43039 0.73686 0.0
C4850 C 0.3982 0.44932 0.75025 0.0
C4851 C 0.40349 0.4633 0.75352 0.0
C4852 C 0.4139 0.47323 0.74564 0.0
C4853 C 0.41884 0.46888 0.73439 0.0
C4854 C 0.41345 0.45492 0.73102 0.0
H4855 H 0.4219 0.42281 0.73957 0.0
H4856 H 0.42464 0.43597 0.72763 0.0
H4857 H 0.42162 0.43786 0.74595 0.0
H4858 H 0.39011 0.44186 0.7564 0.0
H4859 H 0.39926 0.46634 0.76204 0.0
H4860 H 0.64822 0.03381 0.67708 0.0
H4861 H 0.62969 0.0273 0.69292 0.0
H4862 H 0.63532 0.99502 0.70862 0.0
H4863 H 0.65402 0.00153 0.6928 0.0
H4864 H 0.60629 0.00061 0.69179 0.0
H4865 H 0.63218 0.01478 0.745 0.0
H4866 H 0.64096 0.02185 0.72897 0.0
H4867 H 0.63606 0.00459 0.7332 0.0
C4868 C 0.64565 0.02542 0.684 0.0
C4869 C 0.65257 0.01815 0.68363 0.0
C4870 C 0.63506 0.02172 0.69305 0.0
C4871 C 0.63121 0.01076 0.702 0.0
C4872 C 0.63827 0.00366 0.70194 0.0
H4873 H 0.562 0.97196 0.75611 0.0
H4874 H 0.58311 0.97845 0.74442 0.0
C4875 C 0.64891 0.00734 0.69285 0.0
C4876 C 0.61915 0.0062 0.71051 0.0
H4877 H 0.60847 0.00391 0.74431 0.0
C4878 C 0.60676 0.00131 0.70327 0.0
C4879 C 0.61982 0.00702 0.72547 0.0
C4880 C 0.63296 0.01242 0.73369 0.0
C4881 C 0.59499 0.99733 0.7106 0.0
C4882 C 0.59568 0.99853 0.72556 0.0
C4883 C 0.60802 0.00309 0.73284 0.0
C4884 C 0.58369 0.99539 0.73369 0.0
C4885 C 0.58188 0.99178 0.70224 0.0
C4886 C 0.57729 0.00301 0.73182 0.0
C4887 C 0.56528 0.99932 0.73842 0.0
C4888 C 0.55955 0.98805 0.74718 0.0
C4889 C 0.56626 0.98074 0.74948 0.0
C4890 C 0.57828 0.98443 0.74282 0.0
H4891 H 0.58244 0.98808 0.6914 0.0
H4892 H 0.57353 0.9832 0.70767 0.0
H4893 H 0.57946 6e-05 0.70122 0.0
H4894 H 0.58142 0.01163 0.72497 0.0
H4895 H 0.56031 0.0051 0.73641 0.0
loop_
_geom_bond_atom_site_label_1
_geom_bond_atom_site_label_2
_geom_bond_distance
_geom_bond_site_symmetry_2
_ccdc_geom_bond_type
Mg0 O1 2.028 1_556 S
Mg0 O7 1.986 1_455 S
Mg0 O9 2.114 . S
Mg0 O10 2.251 . S
Mg0 O13 2.010 1_556 S
O1 Mg0 2.028 1_554 S
O1 C4 1.271 . S
O2 Mg3 2.028 1_554 S
O2 C4 1.231 1_655 S
Mg3 O2 2.028 1_556 S
Mg3 O8 2.032 . S
Mg3 O10 2.079 1_655 S
C4 O1 1.271 . S
C4 O2 1.231 1_455 S
C5 O6 1.264 . S
C5 O13 1.249 . S
O6 C5 1.264 . S
O7 Mg0 1.986 1_655 S
O7 C11 1.246 . S
O8 Mg3 2.032 . S
O8 C11 1.259 . S
O9 Mg0 2.114 . S
O9 C12 1.252 . S
O10 Mg0 2.251 . S
O10 Mg3 2.079 1_455 S
O10 C12 1.273 . S
C11 O7 1.246 . S
C11 O8 1.259 . S
C12 O9 1.252 . S
C12 O10 1.273 . S
O13 Mg0 2.010 1_554 S
O13 C5 1.249 . S
Mg14 O15 2.028 . S
Mg14 O21 1.986 . S
Mg14 O23 2.114 . S
Mg14 O24 2.251 . S
Mg14 O27 2.010 . S
O15 Mg14 2.028 . S
O15 C18 1.250 . S
O16 Mg17 2.028 . S
O16 C18 1.248 . S
Mg17 O16 2.028 . S
Mg17 O22 2.032 . S
Mg17 O24 2.079 . S
C18 O15 1.250 . S
C18 O16 1.248 . S
C19 O20 1.264 . S
C19 O27 1.249 . S
O20 C19 1.264 . S
O21 Mg14 1.986 . S
O21 C25 1.246 . S
O22 Mg17 2.032 . S
O22 C25 1.259 . S
O23 Mg14 2.114 . S
O23 C26 1.252 . S
O24 Mg14 2.251 . S
O24 Mg17 2.079 . S
O24 C26 1.273 . S
C25 O21 1.246 . S
C25 O22 1.259 . S
C26 O23 1.252 . S
C26 O24 1.273 . S
O27 Mg14 2.010 . S
O27 C19 1.249 . S
Mg28 O29 2.065 1_565 S
Mg28 O35 1.983 1_564 S
Mg28 O37 2.101 1_554 S
Mg28 O38 2.226 1_564 S
Mg28 O41 2.028 . S
O29 Mg28 2.065 1_545 S
O29 C32 1.250 . S
O30 Mg31 2.028 1_554 S
O30 C32 1.248 . S
Mg31 O30 2.028 1_556 S
Mg31 O36 2.032 . S
Mg31 O38 2.079 . S
C32 O29 1.250 . S
C32 O30 1.248 . S
C33 O34 1.264 . S
C33 O41 1.249 . S
O34 C33 1.264 . S
O35 Mg28 1.983 1_546 S
O35 C39 1.253 . S
O36 Mg31 2.032 . S
O36 C39 1.259 . S
O37 Mg28 2.101 1_556 S
O37 C40 1.252 . S
O38 Mg28 2.226 1_546 S
O38 Mg31 2.079 . S
O38 C40 1.273 1_545 S
C39 O35 1.253 . S
C39 O36 1.259 . S
C40 O37 1.252 . S
C40 O38 1.273 1_565 S
O41 Mg28 2.028 . S
O41 C33 1.249 . S
Mg42 O43 2.028 1_655 S
Mg42 O49 1.986 1_655 S
Mg42 O51 2.114 . S
Mg42 O52 2.251 1_655 S
Mg42 O55 2.010 . S
O43 Mg42 2.028 1_455 S
O43 C46 1.250 1_554 S
O44 Mg45 2.028 . S
O44 C46 1.248 1_554 S
Mg45 O44 2.028 . S
Mg45 O50 2.032 . S
Mg45 O52 2.079 . S
C46 O43 1.250 1_556 S
C46 O44 1.248 1_556 S
C47 O48 1.264 . S
C47 O55 1.249 . S
O48 C47 1.264 . S
O49 Mg42 1.986 1_455 S
O49 C53 1.246 . S
O50 Mg45 2.032 . S
O50 C53 1.259 . S
O51 Mg42 2.114 . S
O51 C54 1.252 . S
O52 Mg42 2.251 1_455 S
O52 Mg45 2.079 . S
O52 C54 1.273 1_455 S
C53 O49 1.246 . S
C53 O50 1.259 . S
C54 O51 1.252 . S
C54 O52 1.273 1_655 S
O55 Mg42 2.010 . S
O55 C47 1.249 . S
Mg56 O57 2.028 1_556 S
Mg56 O63 1.986 . S
Mg56 O65 2.114 . S
Mg56 O66 2.251 . S
Mg56 O69 2.010 1_556 S
O57 Mg56 2.028 1_554 S
O57 C60 1.250 . S
O58 Mg59 2.028 1_554 S
O58 C60 1.248 . S
Mg59 O58 2.028 1_556 S
Mg59 O64 2.032 . S
Mg59 O66 2.079 . S
C60 O57 1.250 . S
C60 O58 1.248 . S
C61 O62 1.264 . S
C61 O69 1.249 . S
O62 C61 1.264 . S
O63 Mg56 1.986 . S
O63 C67 1.246 . S
O64 Mg59 2.032 . S
O64 C67 1.259 . S
O65 Mg56 2.114 . S
O65 C68 1.252 . S
O66 Mg56 2.251 . S
O66 Mg59 2.079 . S
O66 C68 1.273 . S
C67 O63 1.246 . S
C67 O64 1.259 . S
C68 O65 1.252 . S
C68 O66 1.273 . S
O69 Mg56 2.010 1_554 S
O69 C61 1.249 . S
Mg70 O71 2.028 . S
Mg70 O77 1.986 1_545 S
Mg70 O79 2.114 . S
Mg70 O80 2.251 . S
Mg70 O83 2.010 . S
O71 Mg70 2.028 . S
O71 C74 1.242 1_544 S
O72 Mg73 2.028 . S
O72 C74 1.216 1_554 S
Mg73 O72 2.028 . S
Mg73 O78 2.032 . S
Mg73 O80 2.079 1_565 S
C74 O71 1.242 1_566 S
C74 O72 1.216 1_556 S
C75 O76 1.264 . S
C75 O83 1.249 . S
O76 C75 1.264 . S
O77 Mg70 1.986 1_565 S
O77 C81 1.246 . S
O78 Mg73 2.032 . S
O78 C81 1.259 . S
O79 Mg70 2.114 . S
O79 C82 1.252 . S
O80 Mg70 2.251 . S
O80 Mg73 2.079 1_545 S
O80 C82 1.273 . S
C81 O77 1.246 . S
C81 O78 1.259 . S
C82 O79 1.252 . S
C82 O80 1.273 . S
O83 Mg70 2.010 . S
O83 C75 1.249 . S
Mg84 O85 2.028 . S
Mg84 O91 1.986 . S
Mg84 O93 2.114 . S
Mg84 O94 2.251 . S
Mg84 O97 2.010 . S
O85 Mg84 2.028 . S
O85 C88 1.250 . S
O86 Mg87 2.028 . S
O86 C88 1.248 . S
Mg87 O86 2.028 . S
Mg87 O92 2.032 . S
Mg87 O94 2.079 . S
C88 O85 1.250 . S
C88 O86 1.248 . S
C89 O90 1.264 . S
C89 O97 1.249 . S
O90 C89 1.264 . S
O91 Mg84 1.986 . S
O91 C95 1.246 . S
O92 Mg87 2.032 . S
O92 C95 1.259 . S
O93 Mg84 2.114 . S
O93 C96 1.252 . S
O94 Mg84 2.251 . S
O94 Mg87 2.079 . S
O94 C96 1.273 . S
C95 O91 1.246 . S
C95 O92 1.259 . S
C96 O93 1.252 . S
C96 O94 1.273 . S
O97 Mg84 2.010 . S
O97 C89 1.249 . S
Mg98 O99 2.028 . S
Mg98 O105 1.986 1_565 S
Mg98 O107 2.114 . S
Mg98 O108 2.251 . S
Mg98 O111 2.010 . S
O99 Mg98 2.028 . S
O99 C102 1.250 . S
O100 Mg101 2.028 . S
O100 C102 1.248 . S
Mg101 O100 2.028 . S
Mg101 O106 2.032 1_565 S
Mg101 O108 2.079 . S
C102 O99 1.250 . S
C102 O100 1.248 . S
C103 O104 1.264 . S
C103 O111 1.249 . S
O104 C103 1.264 . S
O105 Mg98 1.986 1_545 S
O105 C109 1.246 . S
O106 Mg101 2.032 1_545 S
O106 C109 1.259 . S
O107 Mg98 2.114 . S
O107 C110 1.252 . S
O108 Mg98 2.251 . S
O108 Mg101 2.079 . S
O108 C110 1.273 . S
C109 O105 1.246 . S
C109 O106 1.259 . S
C110 O107 1.252 . S
C110 O108 1.273 . S
O111 Mg98 2.010 . S
O111 C103 1.249 . S
Mg112 O113 2.028 . S
Mg112 O119 1.986 . S
Mg112 O121 2.114 . S
Mg112 O122 2.251 . S
Mg112 O125 2.010 1_455 S
O113 Mg112 2.028 . S
O113 C116 1.250 . S
O114 Mg115 2.028 . S
O114 C116 1.248 . S
Mg115 O114 2.028 . S
Mg115 O120 2.032 . S
Mg115 O122 2.079 . S
C116 O113 1.250 . S
C116 O114 1.248 . S
C117 O118 1.264 . S
C117 O125 1.249 . S
O118 C117 1.264 . S
O119 Mg112 1.986 . S
O119 C123 1.246 . S
O120 Mg115 2.032 . S
O120 C123 1.259 . S
O121 Mg112 2.114 . S
O121 C124 1.252 . S
O122 Mg112 2.251 . S
O122 Mg115 2.079 . S
O122 C124 1.273 . S
C123 O119 1.246 . S
C123 O120 1.259 . S
C124 O121 1.252 . S
C124 O122 1.273 . S
O125 Mg112 2.010 1_655 S
O125 C117 1.249 . S
Mg126 O127 2.028 . S
Mg126 O133 1.939 1_565 S
Mg126 O135 2.114 . S
Mg126 O136 2.251 . S
Mg126 O139 2.010 . S
O127 Mg126 2.028 . S
O127 C130 1.250 . S
O128 Mg129 2.028 . S
O128 C130 1.248 . S
Mg129 O128 2.028 . S
Mg129 O134 2.127 . S
Mg129 O136 2.079 . S
C130 O127 1.250 . S
C130 O128 1.248 . S
C131 O132 1.264 . S
C131 O139 1.249 . S
O132 C131 1.264 . S
O133 Mg126 1.939 1_545 S
O133 C137 1.241 . S
O134 Mg129 2.127 . S
O134 C137 1.176 1_565 S
O135 Mg126 2.114 . S
O135 C138 1.252 . S
O136 Mg126 2.251 . S
O136 Mg129 2.079 . S
O136 C138 1.273 . S
C137 O133 1.241 . S
C137 O134 1.176 1_545 S
C138 O135 1.252 . S
C138 O136 1.273 . S
O139 Mg126 2.010 . S
O139 C131 1.249 . S
Mg140 O141 2.028 . S
Mg140 O147 1.986 . S
Mg140 O149 2.114 . S
Mg140 O150 2.251 . S
Mg140 O153 2.010 1_455 S
O141 Mg140 2.028 . S
O141 C144 1.250 . S
O142 Mg143 2.028 . S
O142 C144 1.248 . S
Mg143 O142 2.028 . S
Mg143 O148 2.032 . S
Mg143 O150 2.079 . S
C144 O141 1.250 . S
C144 O142 1.248 . S
C145 O146 1.264 . S
C145 O153 1.249 . S
O146 C145 1.264 . S
O147 Mg140 1.986 . S
O147 C151 1.246 . S
O148 Mg143 2.032 . S
O148 C151 1.259 . S
O149 Mg140 2.114 . S
O149 C152 1.252 . S
O150 Mg140 2.251 . S
O150 Mg143 2.079 . S
O150 C152 1.273 . S
C151 O147 1.246 . S
C151 O148 1.259 . S
C152 O149 1.252 . S
C152 O150 1.273 . S
O153 Mg140 2.010 1_655 S
O153 C145 1.249 . S
Mg154 O155 2.028 . S
Mg154 O161 1.986 . S
Mg154 O163 2.114 . S
Mg154 O164 2.251 . S
Mg154 O167 2.010 . S
O155 Mg154 2.028 . S
O155 C158 1.250 . S
O156 Mg157 2.028 . S
O156 C158 1.248 . S
Mg157 O156 2.028 . S
Mg157 O162 2.032 . S
Mg157 O164 2.079 . S
C158 O155 1.250 . S
C158 O156 1.248 . S
C159 O160 1.264 . S
C159 O167 1.249 . S
O160 C159 1.264 . S
O161 Mg154 1.986 . S
O161 C165 1.246 . S
O162 Mg157 2.032 . S
O162 C165 1.259 . S
O163 Mg154 2.114 . S
O163 C166 1.252 . S
O164 Mg154 2.251 . S
O164 Mg157 2.079 . S
O164 C166 1.273 . S
C165 O161 1.246 . S
C165 O162 1.259 . S
C166 O163 1.252 . S
C166 O164 1.273 . S
O167 Mg154 2.010 . S
O167 C159 1.249 . S
Mg168 O169 2.028 . S
Mg168 O175 1.986 . S
Mg168 O177 2.114 . S
Mg168 O178 2.251 . S
Mg168 O181 2.010 . S
O169 Mg168 2.028 . S
O169 C172 1.250 . S
O170 Mg171 2.028 . S
O170 C172 1.248 . S
Mg171 O170 2.028 . S
Mg171 O176 2.032 . S
Mg171 O178 2.079 . S
C172 O169 1.250 . S
C172 O170 1.248 . S
C173 O174 1.264 . S
C173 O181 1.249 . S
O174 C173 1.264 . S
O175 Mg168 1.986 . S
O175 C179 1.246 1_545 S
O176 Mg171 2.032 . S
O176 C179 1.259 1_545 S
O177 Mg168 2.114 . S
O177 C180 1.252 . S
O178 Mg168 2.251 . S
O178 Mg171 2.079 . S
O178 C180 1.273 . S
C179 O175 1.246 1_565 S
C179 O176 1.259 1_565 S
C180 O177 1.252 . S
C180 O178 1.273 . S
O181 Mg168 2.010 . S
O181 C173 1.249 . S
Mg182 O183 2.028 . S
Mg182 O189 1.986 . S
Mg182 O191 2.114 . S
Mg182 O192 2.251 . S
Mg182 O195 2.010 1_655 S
O183 Mg182 2.028 . S
O183 C186 1.250 . S
O184 Mg185 2.028 . S
O184 C186 1.248 . S
Mg185 O184 2.028 . S
Mg185 O190 2.032 . S
Mg185 O192 2.079 . S
C186 O183 1.250 . S
C186 O184 1.248 . S
C187 O188 1.264 . S
C187 O195 1.249 . S
O188 C187 1.264 . S
O189 Mg182 1.986 . S
O189 C193 1.246 . S
O190 Mg185 2.032 . S
O190 C193 1.259 . S
O191 Mg182 2.114 . S
O191 C194 1.252 . S
O192 Mg182 2.251 . S
O192 Mg185 2.079 . S
O192 C194 1.273 . S
C193 O189 1.246 . S
C193 O190 1.259 . S
C194 O191 1.252 . S
C194 O192 1.273 . S
O195 Mg182 2.010 1_455 S
O195 C187 1.249 . S
Mg196 O197 2.028 . S
Mg196 O203 1.986 . S
Mg196 O205 2.114 . S
Mg196 O206 2.251 . S
Mg196 O209 2.010 . S
O197 Mg196 2.028 . S
O197 C200 1.250 . S
O198 Mg199 2.028 . S
O198 C200 1.248 . S
Mg199 O198 2.028 . S
Mg199 O204 2.032 . S
Mg199 O206 2.079 . S
C200 O197 1.250 . S
C200 O198 1.248 . S
C201 O202 1.264 . S
C201 O209 1.249 . S
O202 C201 1.264 . S
O203 Mg196 1.986 . S
O203 C207 1.246 . S
O204 Mg199 2.032 . S
O204 C207 1.259 . S
O205 Mg196 2.114 . S
O205 C208 1.252 . S
O206 Mg196 2.251 . S
O206 Mg199 2.079 . S
O206 C208 1.273 . S
C207 O203 1.246 . S
C207 O204 1.259 . S
C208 O205 1.252 . S
C208 O206 1.273 . S
O209 Mg196 2.010 . S
O209 C201 1.249 . S
Mg210 O211 2.028 . S
Mg210 O217 1.986 . S
Mg210 O219 2.114 . S
Mg210 O220 2.251 . S
Mg210 O223 2.010 . S
O211 Mg210 2.028 . S
O211 C214 1.250 . S
O212 Mg213 2.028 . S
O212 C214 1.248 . S
Mg213 O212 2.028 . S
Mg213 O218 2.032 . S
Mg213 O220 2.079 . S
C214 O211 1.250 . S
C214 O212 1.248 . S
C215 O216 1.264 . S
C215 O223 1.249 . S
O216 C215 1.264 . S
O217 Mg210 1.986 . S
O217 C221 1.246 . S
O218 Mg213 2.032 . S
O218 C221 1.259 . S
O219 Mg210 2.114 . S
O219 C222 1.252 . S
O220 Mg210 2.251 . S
O220 Mg213 2.079 . S
O220 C222 1.273 . S
C221 O217 1.246 . S
C221 O218 1.259 . S
C222 O219 1.252 . S
C222 O220 1.273 . S
O223 Mg210 2.010 . S
O223 C215 1.249 . S
Mg224 O225 2.028 . S
Mg224 O231 1.986 1_545 S
Mg224 O233 2.114 . S
Mg224 O234 2.251 . S
Mg224 O237 2.010 . S
O225 Mg224 2.028 . S
O225 C228 1.250 . S
O226 Mg227 2.028 . S
O226 C228 1.248 . S
Mg227 O226 2.028 . S
Mg227 O232 1.985 1_545 S
Mg227 O234 2.079 . S
C228 O225 1.250 . S
C228 O226 1.248 . S
C229 O230 1.264 . S
C229 O237 1.249 . S
O230 C229 1.264 . S
O231 Mg224 1.986 1_565 S
O231 C235 1.246 . S
O232 Mg227 1.985 1_565 S
O232 C235 1.264 . S
O233 Mg224 2.114 . S
O233 C236 1.252 . S
O234 Mg224 2.251 . S
O234 Mg227 2.079 . S
O234 C236 1.273 . S
C235 O231 1.246 . S
C235 O232 1.264 . S
C236 O233 1.252 . S
C236 O234 1.273 . S
O237 Mg224 2.010 . S
O237 C229 1.249 . S
Mg238 O239 2.028 . S
Mg238 O245 1.986 . S
Mg238 O247 2.114 . S
Mg238 O248 2.251 . S
Mg238 O251 2.010 1_655 S
O239 Mg238 2.028 . S
O239 C242 1.250 . S
O240 Mg241 2.028 . S
O240 C242 1.248 . S
Mg241 O240 2.028 . S
Mg241 O246 2.032 . S
Mg241 O248 2.079 . S
C242 O239 1.250 . S
C242 O240 1.248 . S
C243 O244 1.264 . S
C243 O251 1.249 . S
O244 C243 1.264 . S
O245 Mg238 1.986 . S
O245 C249 1.246 . S
O246 Mg241 2.032 . S
O246 C249 1.259 . S
O247 Mg238 2.114 . S
O247 C250 1.252 . S
O248 Mg238 2.251 . S
O248 Mg241 2.079 . S
O248 C250 1.273 . S
C249 O245 1.246 . S
C249 O246 1.259 . S
C250 O247 1.252 . S
C250 O248 1.273 . S
O251 Mg238 2.010 1_455 S
O251 C243 1.249 . S
C252 C253 1.560 . S
C252 H313 0.959 . S
C252 H314 0.959 . S
C252 H315 0.960 . S
C253 C252 1.560 . S
C253 O308 1.426 . S
C253 H312 0.980 . S
C254 C255 1.407 . S
C254 C259 1.418 . S
C254 O308 1.334 . S
C255 C254 1.407 . S
C255 C256 1.360 . S
C255 H316 0.929 . S
C256 C255 1.360 . S
C256 C257 1.401 . S
C256 C260 1.527 . S
C257 C256 1.401 . S
C257 C258 1.405 . S
C257 C290 1.587 . S
C258 C257 1.405 . S
C258 C259 1.332 . S
C258 C261 1.496 . S
C259 C254 1.418 . S
C259 C258 1.332 . S
C259 H317 0.929 . S
C260 C256 1.527 . S
C260 H318 0.959 . S
C260 H319 0.961 . S
C260 H320 0.961 . S
C261 C258 1.496 . S
C261 H321 0.960 . S
C261 H322 0.960 . S
C261 H323 0.961 . S
C262 C263 1.517 . S
C262 H325 0.961 . S
C262 H326 0.960 . S
C262 H327 0.959 . S
C263 C262 1.517 . S
C263 O311 1.468 . S
C263 H324 0.980 . S
C264 C265 1.349 . S
C264 C269 1.367 . S
C264 O311 1.408 . S
C265 C264 1.349 . S
C265 C266 1.407 . S
C265 H328 0.930 . S
C266 C265 1.407 . S
C266 C267 1.449 . S
C266 C270 1.535 . S
C267 C266 1.449 . S
C267 C268 1.384 . S
C267 C292 1.553 . S
C268 C267 1.384 . S
C268 C269 1.364 . S
C268 C271 1.450 . S
C269 C264 1.367 . S
C269 C268 1.364 . S
C269 H329 0.931 . S
C270 C266 1.535 . S
C270 H330 0.959 . S
C270 H331 0.961 . S
C270 H332 0.959 . S
C271 C268 1.450 . S
C271 H333 0.960 . S
C271 H334 0.960 . S
C271 H335 0.960 . S
C272 C273 1.309 . S
C272 C277 1.304 . S
C272 O310 1.435 . S
C273 C272 1.309 . S
C273 C274 1.476 . S
C273 H337 0.930 . S
C274 C273 1.476 . S
C274 C275 1.400 . S
C274 C278 1.567 . S
C275 C274 1.400 . S
C275 C276 1.373 . S
C275 C297 1.432 . S
C276 C275 1.373 . S
C276 C277 1.339 . S
C276 C279 1.530 . S
C277 C272 1.304 . S
C277 C276 1.339 . S
C277 H338 0.930 . S
C278 C274 1.567 . S
C278 H339 0.961 . S
C278 H340 0.960 . S
C278 H341 0.958 . S
C279 C276 1.530 . S
C279 H342 0.961 . S
C279 H343 0.960 . S
C279 H344 0.960 . S
C280 C281 1.530 . S
C280 H346 0.961 . S
C280 H347 0.961 . S
C280 H348 0.959 . S
C281 C280 1.530 . S
C281 O309 1.412 . S
C281 H345 0.980 . S
C282 C283 1.288 . S
C282 C287 1.377 . S
C282 O309 1.393 . S
C283 C282 1.288 . S
C283 C284 1.369 . S
C283 H349 0.932 . S
C284 C283 1.369 . S
C284 C285 1.398 . S
C284 C288 1.527 . S
C285 C284 1.398 . S
C285 C286 1.380 . S
C285 C299 1.497 . S
C286 C285 1.380 . S
C286 C287 1.383 . S
C286 C289 1.603 . S
C287 C282 1.377 . S
C287 C286 1.383 . S
C287 H350 0.929 . S
C288 C284 1.527 . S
C288 H351 0.961 . S
C288 H352 0.959 . S
C288 H353 0.959 . S
C289 C286 1.603 . S
C289 H354 0.960 . S
C289 H355 0.962 . S
C289 H356 0.961 . S
C290 C257 1.587 . S
C290 C291 1.360 . S
C290 C303 1.412 . S
C291 C290 1.360 . S
C291 C292 1.365 . S
C291 H357 0.929 . S
C292 C267 1.553 . S
C292 C291 1.365 . S
C292 C293 1.404 . S
C293 C292 1.404 . S
C293 C294 1.395 . S
C293 C304 1.451 . S
C294 C293 1.395 . S
C294 C295 1.322 . S
C294 H358 0.930 . S
C295 C294 1.322 . S
C295 C296 1.459 . S
C295 H359 0.929 . S
C296 C295 1.459 . S
C296 C297 1.445 . S
C296 C305 1.395 . S
C297 C275 1.432 . S
C297 C296 1.445 . S
C297 C298 1.370 . S
C298 C297 1.370 . S
C298 C299 1.438 . S
C298 H360 0.930 . S
C299 C285 1.497 . S
C299 C298 1.438 . S
C299 C300 1.360 . S
C300 C299 1.360 . S
C300 C301 1.401 . S
C300 C305 1.446 . S
C301 C300 1.401 . S
C301 C302 1.347 . S
C301 H361 0.929 . S
C302 C301 1.347 . S
C302 C303 1.455 . S
C302 H362 0.930 . S
C303 C290 1.412 . S
C303 C302 1.455 . S
C303 C304 1.331 . S
C304 C293 1.451 . S
C304 C303 1.331 . S
C304 C305 1.497 . S
C305 C296 1.395 . S
C305 C300 1.446 . S
C305 C304 1.497 . S
C306 C307 1.582 . S
C306 H363 0.962 . S
C306 H364 0.959 . S
C306 H365 0.958 . S
C307 C306 1.582 . S
C307 O310 1.458 . S
C307 H336 0.980 . S
O308 C253 1.426 . S
O308 C254 1.334 . S
O309 C281 1.412 . S
O309 C282 1.393 . S
O310 C272 1.435 . S
O310 C307 1.458 . S
O311 C263 1.468 . S
O311 C264 1.408 . S
H312 C253 0.980 . S
H313 C252 0.959 . S
H314 C252 0.959 . S
H315 C252 0.960 . S
H316 C255 0.929 . S
H317 C259 0.929 . S
H318 C260 0.959 . S
H319 C260 0.961 . S
H320 C260 0.961 . S
H321 C261 0.960 . S
H322 C261 0.960 . S
H323 C261 0.961 . S
H324 C263 0.980 . S
H325 C262 0.961 . S
H326 C262 0.960 . S
H327 C262 0.959 . S
H328 C265 0.930 . S
H329 C269 0.931 . S
H330 C270 0.959 . S
H331 C270 0.961 . S
H332 C270 0.959 . S
H333 C271 0.960 . S
H334 C271 0.960 . S
H335 C271 0.960 . S
H336 C307 0.980 . S
H337 C273 0.930 . S
H338 C277 0.930 . S
H339 C278 0.961 . S
H340 C278 0.960 . S
H341 C278 0.958 . S
H342 C279 0.961 . S
H343 C279 0.960 . S
H344 C279 0.960 . S
H345 C281 0.980 . S
H346 C280 0.961 . S
H347 C280 0.961 . S
H348 C280 0.959 . S
H349 C283 0.932 . S
H350 C287 0.929 . S
H351 C288 0.961 . S
H352 C288 0.959 . S
H353 C288 0.959 . S
H354 C289 0.960 . S
H355 C289 0.962 . S
H356 C289 0.961 . S
H357 C291 0.929 . S
H358 C294 0.930 . S
H359 C295 0.929 . S
H360 C298 0.930 . S
H361 C301 0.929 . S
H362 C302 0.930 . S
H363 C306 0.962 . S
H364 C306 0.959 . S
H365 C306 0.958 . S
C366 C367 1.560 . S
C366 H427 0.959 . S
C366 H428 0.959 . S
C366 H429 0.960 . S
C367 C366 1.560 . S
C367 O422 1.426 . S
C367 H426 0.980 . S
C368 C369 1.407 . S
C368 C373 1.418 . S
C368 O422 1.334 . S
C369 C368 1.407 . S
C369 C370 1.360 . S
C369 H430 0.929 . S
C370 C369 1.360 . S
C370 C371 1.401 . S
C370 C374 1.527 . S
C371 C370 1.401 . S
C371 C372 1.405 . S
C371 C404 1.587 . S
C372 C371 1.405 . S
C372 C373 1.332 . S
C372 C375 1.496 . S
C373 C368 1.418 . S
C373 C372 1.332 . S
C373 H431 0.929 . S
C374 C370 1.527 . S
C374 H432 0.959 . S
C374 H433 0.961 . S
C374 H434 0.961 . S
C375 C372 1.496 . S
C375 H435 0.960 . S
C375 H436 0.960 . S
C375 H437 0.961 . S
C376 C377 1.517 . S
C376 H439 0.961 . S
C376 H440 0.960 . S
C376 H441 0.959 . S
C377 C376 1.517 . S
C377 O425 1.468 . S
C377 H438 0.980 . S
C378 C379 1.349 . S
C378 C383 1.367 . S
C378 O425 1.408 . S
C379 C378 1.349 . S
C379 C380 1.407 . S
C379 H442 0.930 . S
C380 C379 1.407 . S
C380 C381 1.449 . S
C380 C384 1.535 . S
C381 C380 1.449 . S
C381 C382 1.384 . S
C381 C406 1.553 . S
C382 C381 1.384 . S
C382 C383 1.364 . S
C382 C385 1.450 . S
C383 C378 1.367 . S
C383 C382 1.364 . S
C383 H443 0.931 . S
C384 C380 1.535 . S
C384 H444 0.959 . S
C384 H445 0.961 . S
C384 H446 0.959 . S
C385 C382 1.450 . S
C385 H447 0.960 . S
C385 H448 0.960 . S
C385 H449 0.960 . S
C386 C387 1.309 . S
C386 C391 1.304 . S
C386 O424 1.435 . S
C387 C386 1.309 . S
C387 C388 1.476 . S
C387 H451 0.930 . S
C388 C387 1.476 . S
C388 C389 1.400 . S
C388 C392 1.567 . S
C389 C388 1.400 . S
C389 C390 1.373 . S
C389 C411 1.432 . S
C390 C389 1.373 . S
C390 C391 1.339 . S
C390 C393 1.530 . S
C391 C386 1.304 . S
C391 C390 1.339 . S
C391 H452 0.930 . S
C392 C388 1.567 . S
C392 H453 0.961 . S
C392 H454 0.960 . S
C392 H455 0.958 . S
C393 C390 1.530 . S
C393 H456 0.961 . S
C393 H457 0.960 . S
C393 H458 0.960 . S
C394 C395 1.530 . S
C394 H460 0.961 . S
C394 H461 0.961 . S
C394 H462 0.959 . S
C395 C394 1.530 . S
C395 O423 1.412 . S
C395 H459 0.980 . S
C396 C397 1.288 . S
C396 C401 1.377 . S
C396 O423 1.393 . S
C397 C396 1.288 . S
C397 C398 1.369 . S
C397 H463 0.932 . S
C398 C397 1.369 . S
C398 C399 1.398 . S
C398 C402 1.527 . S
C399 C398 1.398 . S
C399 C400 1.380 . S
C399 C413 1.497 . S
C400 C399 1.380 . S
C400 C401 1.383 . S
C400 C403 1.603 . S
C401 C396 1.377 . S
C401 C400 1.383 . S
C401 H464 0.929 . S
C402 C398 1.527 . S
C402 H465 0.961 . S
C402 H466 0.959 . S
C402 H467 0.959 . S
C403 C400 1.603 . S
C403 H468 0.960 . S
C403 H469 0.962 . S
C403 H470 0.961 . S
C404 C371 1.587 . S
C404 C405 1.360 . S
C404 C417 1.412 . S
C405 C404 1.360 . S
C405 C406 1.365 . S
C405 H471 0.929 . S
C406 C381 1.553 . S
C406 C405 1.365 . S
C406 C407 1.404 . S
C407 C406 1.404 . S
C407 C408 1.395 . S
C407 C418 1.451 . S
C408 C407 1.395 . S
C408 C409 1.322 . S
C408 H472 0.930 . S
C409 C408 1.322 . S
C409 C410 1.459 . S
C409 H473 0.929 . S
C410 C409 1.459 . S
C410 C411 1.445 . S
C410 C419 1.395 . S
C411 C389 1.432 . S
C411 C410 1.445 . S
C411 C412 1.370 . S
C412 C411 1.370 . S
C412 C413 1.438 . S
C412 H474 0.930 . S
C413 C399 1.497 . S
C413 C412 1.438 . S
C413 C414 1.360 . S
C414 C413 1.360 . S
C414 C415 1.401 . S
C414 C419 1.446 . S
C415 C414 1.401 . S
C415 C416 1.347 . S
C415 H475 0.929 . S
C416 C415 1.347 . S
C416 C417 1.455 . S
C416 H476 0.930 . S
C417 C404 1.412 . S
C417 C416 1.455 . S
C417 C418 1.331 . S
C418 C407 1.451 . S
C418 C417 1.331 . S
C418 C419 1.497 . S
C419 C410 1.395 . S
C419 C414 1.446 . S
C419 C418 1.497 . S
C420 C421 1.582 . S
C420 H477 0.962 . S
C420 H478 0.959 . S
C420 H479 0.958 . S
C421 C420 1.582 . S
C421 O424 1.458 . S
C421 H450 0.980 . S
O422 C367 1.426 . S
O422 C368 1.334 . S
O423 C395 1.412 . S
O423 C396 1.393 . S
O424 C386 1.435 . S
O424 C421 1.458 . S
O425 C377 1.468 . S
O425 C378 1.408 . S
H426 C367 0.980 . S
H427 C366 0.959 . S
H428 C366 0.959 . S
H429 C366 0.960 . S
H430 C369 0.929 . S
H431 C373 0.929 . S
H432 C374 0.959 . S
H433 C374 0.961 . S
H434 C374 0.961 . S
H435 C375 0.960 . S
H436 C375 0.960 . S
H437 C375 0.961 . S
H438 C377 0.980 . S
H439 C376 0.961 . S
H440 C376 0.960 . S
H441 C376 0.959 . S
H442 C379 0.930 . S
H443 C383 0.931 . S
H444 C384 0.959 . S
H445 C384 0.961 . S
H446 C384 0.959 . S
H447 C385 0.960 . S
H448 C385 0.960 . S
H449 C385 0.960 . S
H450 C421 0.980 . S
H451 C387 0.930 . S
H452 C391 0.930 . S
H453 C392 0.961 . S
H454 C392 0.960 . S
H455 C392 0.958 . S
H456 C393 0.961 . S
H457 C393 0.960 . S
H458 C393 0.960 . S
H459 C395 0.980 . S
H460 C394 0.961 . S
H461 C394 0.961 . S
H462 C394 0.959 . S
H463 C397 0.932 . S
H464 C401 0.929 . S
H465 C402 0.961 . S
H466 C402 0.959 . S
H467 C402 0.959 . S
H468 C403 0.960 . S
H469 C403 0.962 . S
H470 C403 0.961 . S
H471 C405 0.929 . S
H472 C408 0.930 . S
H473 C409 0.929 . S
H474 C412 0.930 . S
H475 C415 0.929 . S
H476 C416 0.930 . S
H477 C420 0.962 . S
H478 C420 0.959 . S
H479 C420 0.958 . S
C480 C481 1.560 . S
C480 H541 0.959 . S
C480 H542 0.959 . S
C480 H543 0.960 . S
C481 C480 1.560 . S
C481 O536 1.426 . S
C481 H540 0.980 . S
C482 C483 1.407 . S
C482 C487 1.418 . S
C482 O536 1.334 . S
C483 C482 1.407 . S
C483 C484 1.360 . S
C483 H544 0.929 . S
C484 C483 1.360 . S
C484 C485 1.401 . S
C484 C488 1.527 . S
C485 C484 1.401 . S
C485 C486 1.405 . S
C485 C518 1.587 . S
C486 C485 1.405 . S
C486 C487 1.332 . S
C486 C489 1.496 . S
C487 C482 1.418 . S
C487 C486 1.332 . S
C487 H545 0.929 . S
C488 C484 1.527 . S
C488 H546 0.959 . S
C488 H547 0.961 . S
C488 H548 0.961 . S
C489 C486 1.496 . S
C489 H549 0.960 . S
C489 H550 0.960 . S
C489 H551 0.961 . S
C490 C491 1.517 . S
C490 H553 0.961 . S
C490 H554 0.960 . S
C490 H555 0.959 . S
C491 C490 1.517 . S
C491 O539 1.468 . S
C491 H552 0.980 . S
C492 C493 1.349 . S
C492 C497 1.367 . S
C492 O539 1.408 . S
C493 C492 1.349 . S
C493 C494 1.407 . S
C493 H556 0.930 . S
C494 C493 1.407 . S
C494 C495 1.449 . S
C494 C498 1.535 . S
C495 C494 1.449 . S
C495 C496 1.384 . S
C495 C520 1.553 . S
C496 C495 1.384 . S
C496 C497 1.364 . S
C496 C499 1.450 . S
C497 C492 1.367 . S
C497 C496 1.364 . S
C497 H557 0.931 . S
C498 C494 1.535 . S
C498 H558 0.959 . S
C498 H559 0.961 . S
C498 H560 0.959 . S
C499 C496 1.450 . S
C499 H561 0.960 . S
C499 H562 0.960 . S
C499 H563 0.960 . S
C500 C501 1.309 . S
C500 C505 1.304 . S
C500 O538 1.435 . S
C501 C500 1.309 . S
C501 C502 1.476 . S
C501 H565 0.930 . S
C502 C501 1.476 . S
C502 C503 1.400 . S
C502 C506 1.567 . S
C503 C502 1.400 . S
C503 C504 1.373 . S
C503 C525 1.432 . S
C504 C503 1.373 . S
C504 C505 1.339 . S
C504 C507 1.530 . S
C505 C500 1.304 . S
C505 C504 1.339 . S
C505 H566 0.930 . S
C506 C502 1.567 . S
C506 H567 0.961 . S
C506 H568 0.960 . S
C506 H569 0.958 . S
C507 C504 1.530 . S
C507 H570 0.961 . S
C507 H571 0.960 . S
C507 H572 0.960 . S
C508 C509 1.530 . S
C508 H574 0.961 . S
C508 H575 0.961 . S
C508 H576 0.959 . S
C509 C508 1.530 . S
C509 O537 1.412 . S
C509 H573 0.980 . S
C510 C511 1.288 . S
C510 C515 1.377 . S
C510 O537 1.393 . S
C511 C510 1.288 . S
C511 C512 1.369 . S
C511 H577 0.932 . S
C512 C511 1.369 . S
C512 C513 1.398 . S
C512 C516 1.527 . S
C513 C512 1.398 . S
C513 C514 1.380 . S
C513 C527 1.497 . S
C514 C513 1.380 . S
C514 C515 1.383 . S
C514 C517 1.603 . S
C515 C510 1.377 . S
C515 C514 1.383 . S
C515 H578 0.929 . S
C516 C512 1.527 . S
C516 H579 0.961 . S
C516 H580 0.959 . S
C516 H581 0.959 . S
C517 C514 1.603 . S
C517 H582 0.960 . S
C517 H583 0.962 . S
C517 H584 0.961 . S
C518 C485 1.587 . S
C518 C519 1.360 . S
C518 C531 1.412 . S
C519 C518 1.360 . S
C519 C520 1.365 . S
C519 H585 0.929 . S
C520 C495 1.553 . S
C520 C519 1.365 . S
C520 C521 1.404 . S
C521 C520 1.404 . S
C521 C522 1.395 . S
C521 C532 1.451 . S
C522 C521 1.395 . S
C522 C523 1.322 . S
C522 H586 0.930 . S
C523 C522 1.322 . S
C523 C524 1.459 . S
C523 H587 0.929 . S
C524 C523 1.459 . S
C524 C525 1.445 . S
C524 C533 1.395 . S
C525 C503 1.432 . S
C525 C524 1.445 . S
C525 C526 1.370 . S
C526 C525 1.370 . S
C526 C527 1.438 . S
C526 H588 0.930 . S
C527 C513 1.497 . S
C527 C526 1.438 . S
C527 C528 1.360 . S
C528 C527 1.360 . S
C528 C529 1.401 . S
C528 C533 1.446 . S
C529 C528 1.401 . S
C529 C530 1.347 . S
C529 H589 0.929 . S
C530 C529 1.347 . S
C530 C531 1.455 . S
C530 H590 0.930 . S
C531 C518 1.412 . S
C531 C530 1.455 . S
C531 C532 1.331 . S
C532 C521 1.451 . S
C532 C531 1.331 . S
C532 C533 1.497 . S
C533 C524 1.395 . S
C533 C528 1.446 . S
C533 C532 1.497 . S
C534 C535 1.582 . S
C534 H591 0.962 . S
C534 H592 0.959 . S
C534 H593 0.958 . S
C535 C534 1.582 . S
C535 O538 1.458 . S
C535 H564 0.980 . S
O536 C481 1.426 . S
O536 C482 1.334 . S
O537 C509 1.412 . S
O537 C510 1.393 . S
O538 C500 1.435 . S
O538 C535 1.458 . S
O539 C491 1.468 . S
O539 C492 1.408 . S
H540 C481 0.980 . S
H541 C480 0.959 . S
H542 C480 0.959 . S
H543 C480 0.960 . S
H544 C483 0.929 . S
H545 C487 0.929 . S
H546 C488 0.959 . S
H547 C488 0.961 . S
H548 C488 0.961 . S
H549 C489 0.960 . S
H550 C489 0.960 . S
H551 C489 0.961 . S
H552 C491 0.980 . S
H553 C490 0.961 . S
H554 C490 0.960 . S
H555 C490 0.959 . S
H556 C493 0.930 . S
H557 C497 0.931 . S
H558 C498 0.959 . S
H559 C498 0.961 . S
H560 C498 0.959 . S
H561 C499 0.960 . S
H562 C499 0.960 . S
H563 C499 0.960 . S
H564 C535 0.980 . S
H565 C501 0.930 . S
H566 C505 0.930 . S
H567 C506 0.961 . S
H568 C506 0.960 . S
H569 C506 0.958 . S
H570 C507 0.961 . S
H571 C507 0.960 . S
H572 C507 0.960 . S
H573 C509 0.980 . S
H574 C508 0.961 . S
H575 C508 0.961 . S
H576 C508 0.959 . S
H577 C511 0.932 . S
H578 C515 0.929 . S
H579 C516 0.961 . S
H580 C516 0.959 . S
H581 C516 0.959 . S
H582 C517 0.960 . S
H583 C517 0.962 . S
H584 C517 0.961 . S
H585 C519 0.929 . S
H586 C522 0.930 . S
H587 C523 0.929 . S
H588 C526 0.930 . S
H589 C529 0.929 . S
H590 C530 0.930 . S
H591 C534 0.962 . S
H592 C534 0.959 . S
H593 C534 0.958 . S
C594 C595 1.560 . S
C594 H655 0.959 . S
C594 H656 0.959 . S
C594 H657 0.960 . S
C595 C594 1.560 . S
C595 O650 1.426 . S
C595 H654 0.980 . S
C596 C597 1.407 . S
C596 C601 1.418 . S
C596 O650 1.334 . S
C597 C596 1.407 . S
C597 C598 1.360 . S
C597 H658 0.929 . S
C598 C597 1.360 . S
C598 C599 1.401 . S
C598 C602 1.527 . S
C599 C598 1.401 . S
C599 C600 1.405 . S
C599 C632 1.587 . S
C600 C599 1.405 . S
C600 C601 1.332 . S
C600 C603 1.496 . S
C601 C596 1.418 . S
C601 C600 1.332 . S
C601 H659 0.929 . S
C602 C598 1.527 . S
C602 H660 0.959 . S
C602 H661 0.961 . S
C602 H662 0.961 . S
C603 C600 1.496 . S
C603 H663 0.960 . S
C603 H664 0.960 . S
C603 H665 0.961 . S
C604 C605 1.517 . S
C604 H667 0.961 . S
C604 H668 0.960 . S
C604 H669 0.959 . S
C605 C604 1.517 . S
C605 O653 1.468 . S
C605 H666 0.980 . S
C606 C607 1.349 . S
C606 C611 1.367 . S
C606 O653 1.408 . S
C607 C606 1.349 . S
C607 C608 1.407 . S
C607 H670 0.930 . S
C608 C607 1.407 . S
C608 C609 1.449 . S
C608 C612 1.535 . S
C609 C608 1.449 . S
C609 C610 1.384 . S
C609 C634 1.553 . S
C610 C609 1.384 . S
C610 C611 1.364 . S
C610 C613 1.450 . S
C611 C606 1.367 . S
C611 C610 1.364 . S
C611 H671 0.931 . S
C612 C608 1.535 . S
C612 H672 0.959 . S
C612 H673 0.961 . S
C612 H674 0.959 . S
C613 C610 1.450 . S
C613 H675 0.960 . S
C613 H676 0.960 . S
C613 H677 0.960 . S
C614 C615 1.309 . S
C614 C619 1.304 . S
C614 O652 1.435 . S
C615 C614 1.309 . S
C615 C616 1.476 . S
C615 H679 0.930 . S
C616 C615 1.476 . S
C616 C617 1.400 . S
C616 C620 1.567 . S
C617 C616 1.400 . S
C617 C618 1.373 . S
C617 C639 1.432 . S
C618 C617 1.373 . S
C618 C619 1.339 . S
C618 C621 1.530 . S
C619 C614 1.304 . S
C619 C618 1.339 . S
C619 H680 0.930 . S
C620 C616 1.567 . S
C620 H681 0.961 . S
C620 H682 0.960 . S
C620 H683 0.958 . S
C621 C618 1.530 . S
C621 H684 0.961 . S
C621 H685 0.960 . S
C621 H686 0.960 . S
C622 C623 1.530 . S
C622 H688 0.961 . S
C622 H689 0.961 . S
C622 H690 0.959 . S
C623 C622 1.530 . S
C623 O651 1.412 . S
C623 H687 0.980 . S
C624 C625 1.288 . S
C624 C629 1.377 . S
C624 O651 1.393 . S
C625 C624 1.288 . S
C625 C626 1.369 . S
C625 H691 0.932 . S
C626 C625 1.369 . S
C626 C627 1.398 . S
C626 C630 1.527 . S
C627 C626 1.398 . S
C627 C628 1.380 . S
C627 C641 1.497 . S
C628 C627 1.380 . S
C628 C629 1.383 . S
C628 C631 1.603 . S
C629 C624 1.377 . S
C629 C628 1.383 . S
C629 H692 0.929 . S
C630 C626 1.527 . S
C630 H693 0.961 . S
C630 H694 0.959 . S
C630 H695 0.959 . S
C631 C628 1.603 . S
C631 H696 0.960 . S
C631 H697 0.962 . S
C631 H698 0.961 . S
C632 C599 1.587 . S
C632 C633 1.360 . S
C632 C645 1.412 . S
C633 C632 1.360 . S
C633 C634 1.365 . S
C633 H699 0.929 . S
C634 C609 1.553 . S
C634 C633 1.365 . S
C634 C635 1.404 . S
C635 C634 1.404 . S
C635 C636 1.395 . S
C635 C646 1.451 . S
C636 C635 1.395 . S
C636 C637 1.322 . S
C636 H700 0.930 . S
C637 C636 1.322 . S
C637 C638 1.459 . S
C637 H701 0.929 . S
C638 C637 1.459 . S
C638 C639 1.445 . S
C638 C647 1.395 . S
C639 C617 1.432 . S
C639 C638 1.445 . S
C639 C640 1.370 . S
C640 C639 1.370 . S
C640 C641 1.438 . S
C640 H702 0.930 . S
C641 C627 1.497 . S
C641 C640 1.438 . S
C641 C642 1.360 . S
C642 C641 1.360 . S
C642 C643 1.401 . S
C642 C647 1.446 . S
C643 C642 1.401 . S
C643 C644 1.347 . S
C643 H703 0.929 . S
C644 C643 1.347 . S
C644 C645 1.455 . S
C644 H704 0.930 . S
C645 C632 1.412 . S
C645 C644 1.455 . S
C645 C646 1.331 . S
C646 C635 1.451 . S
C646 C645 1.331 . S
C646 C647 1.497 . S
C647 C638 1.395 . S
C647 C642 1.446 . S
C647 C646 1.497 . S
C648 C649 1.582 . S
C648 H705 0.962 . S
C648 H706 0.959 . S
C648 H707 0.958 . S
C649 C648 1.582 . S
C649 O652 1.458 . S
C649 H678 0.980 . S
O650 C595 1.426 . S
O650 C596 1.334 . S
O651 C623 1.412 . S
O651 C624 1.393 . S
O652 C614 1.435 . S
O652 C649 1.458 . S
O653 C605 1.468 . S
O653 C606 1.408 . S
H654 C595 0.980 . S
H655 C594 0.959 . S
H656 C594 0.959 . S
H657 C594 0.960 . S
H658 C597 0.929 . S
H659 C601 0.929 . S
H660 C602 0.959 . S
H661 C602 0.961 . S
H662 C602 0.961 . S
H663 C603 0.960 . S
H664 C603 0.960 . S
H665 C603 0.961 . S
H666 C605 0.980 . S
H667 C604 0.961 . S
H668 C604 0.960 . S
H669 C604 0.959 . S
H670 C607 0.930 . S
H671 C611 0.931 . S
H672 C612 0.959 . S
H673 C612 0.961 . S
H674 C612 0.959 . S
H675 C613 0.960 . S
H676 C613 0.960 . S
H677 C613 0.960 . S
H678 C649 0.980 . S
H679 C615 0.930 . S
H680 C619 0.930 . S
H681 C620 0.961 . S
H682 C620 0.960 . S
H683 C620 0.958 . S
H684 C621 0.961 . S
H685 C621 0.960 . S
H686 C621 0.960 . S
H687 C623 0.980 . S
H688 C622 0.961 . S
H689 C622 0.961 . S
H690 C622 0.959 . S
H691 C625 0.932 . S
H692 C629 0.929 . S
H693 C630 0.961 . S
H694 C630 0.959 . S
H695 C630 0.959 . S
H696 C631 0.960 . S
H697 C631 0.962 . S
H698 C631 0.961 . S
H699 C633 0.929 . S
H700 C636 0.930 . S
H701 C637 0.929 . S
H702 C640 0.930 . S
H703 C643 0.929 . S
H704 C644 0.930 . S
H705 C648 0.962 . S
H706 C648 0.959 . S
H707 C648 0.958 . S
C708 C709 1.560 . S
C708 H769 0.959 . S
C708 H770 0.959 . S
C708 H771 0.960 . S
C709 C708 1.560 . S
C709 O764 1.426 . S
C709 H768 0.980 . S
C710 C711 1.407 . S
C710 C715 1.418 . S
C710 O764 1.334 . S
C711 C710 1.407 . S
C711 C712 1.360 . S
C711 H772 0.929 . S
C712 C711 1.360 . S
C712 C713 1.401 . S
C712 C716 1.527 . S
C713 C712 1.401 . S
C713 C714 1.405 . S
C713 C746 1.587 . S
C714 C713 1.405 . S
C714 C715 1.332 . S
C714 C717 1.496 . S
C715 C710 1.418 . S
C715 C714 1.332 . S
C715 H773 0.929 . S
C716 C712 1.527 . S
C716 H774 0.959 . S
C716 H775 0.961 . S
C716 H776 0.961 . S
C717 C714 1.496 . S
C717 H777 0.960 . S
C717 H778 0.960 . S
C717 H779 0.961 . S
C718 C719 1.517 . S
C718 H781 0.961 . S
C718 H782 0.960 . S
C718 H783 0.959 . S
C719 C718 1.517 . S
C719 O767 1.468 . S
C719 H780 0.980 . S
C720 C721 1.349 . S
C720 C725 1.367 . S
C720 O767 1.408 . S
C721 C720 1.349 . S
C721 C722 1.407 . S
C721 H784 0.930 . S
C722 C721 1.407 . S
C722 C723 1.449 . S
C722 C726 1.535 . S
C723 C722 1.449 . S
C723 C724 1.384 . S
C723 C748 1.553 . S
C724 C723 1.384 . S
C724 C725 1.364 . S
C724 C727 1.450 . S
C725 C720 1.367 . S
C725 C724 1.364 . S
C725 H785 0.931 . S
C726 C722 1.535 . S
C726 H786 0.959 . S
C726 H787 0.961 . S
C726 H788 0.959 . S
C727 C724 1.450 . S
C727 H789 0.960 . S
C727 H790 0.960 . S
C727 H791 0.960 . S
C728 C729 1.309 . S
C728 C733 1.304 . S
C728 O766 1.435 . S
C729 C728 1.309 . S
C729 C730 1.476 . S
C729 H793 0.930 . S
C730 C729 1.476 . S
C730 C731 1.400 . S
C730 C734 1.567 . S
C731 C730 1.400 . S
C731 C732 1.373 . S
C731 C753 1.432 . S
C732 C731 1.373 . S
C732 C733 1.339 . S
C732 C735 1.530 . S
C733 C728 1.304 . S
C733 C732 1.339 . S
C733 H794 0.930 . S
C734 C730 1.567 . S
C734 H795 0.961 . S
C734 H796 0.960 . S
C734 H797 0.958 . S
C735 C732 1.530 . S
C735 H798 0.961 . S
C735 H799 0.960 . S
C735 H800 0.960 . S
C736 C737 1.530 . S
C736 H802 0.961 . S
C736 H803 0.961 . S
C736 H804 0.959 . S
C737 C736 1.530 . S
C737 O765 1.412 . S
C737 H801 0.980 . S
C738 C739 1.288 . S
C738 C743 1.377 . S
C738 O765 1.393 . S
C739 C738 1.288 . S
C739 C740 1.369 . S
C739 H805 0.932 . S
C740 C739 1.369 . S
C740 C741 1.398 . S
C740 C744 1.527 . S
C741 C740 1.398 . S
C741 C742 1.380 . S
C741 C755 1.497 . S
C742 C741 1.380 . S
C742 C743 1.383 . S
C742 C745 1.603 . S
C743 C738 1.377 . S
C743 C742 1.383 . S
C743 H806 0.929 . S
C744 C740 1.527 . S
C744 H807 0.961 . S
C744 H808 0.959 . S
C744 H809 0.959 . S
C745 C742 1.603 . S
C745 H810 0.960 . S
C745 H811 0.962 . S
C745 H812 0.961 . S
C746 C713 1.587 . S
C746 C747 1.360 . S
C746 C759 1.412 . S
C747 C746 1.360 . S
C747 C748 1.365 . S
C747 H813 0.929 . S
C748 C723 1.553 . S
C748 C747 1.365 . S
C748 C749 1.404 . S
C749 C748 1.404 . S
C749 C750 1.395 . S
C749 C760 1.451 . S
C750 C749 1.395 . S
C750 C751 1.322 . S
C750 H814 0.930 . S
C751 C750 1.322 . S
C751 C752 1.459 . S
C751 H815 0.929 . S
C752 C751 1.459 . S
C752 C753 1.445 . S
C752 C761 1.395 . S
C753 C731 1.432 . S
C753 C752 1.445 . S
C753 C754 1.370 . S
C754 C753 1.370 . S
C754 C755 1.438 . S
C754 H816 0.930 . S
C755 C741 1.497 . S
C755 C754 1.438 . S
C755 C756 1.360 . S
C756 C755 1.360 . S
C756 C757 1.401 . S
C756 C761 1.446 . S
C757 C756 1.401 . S
C757 C758 1.347 . S
C757 H817 0.929 . S
C758 C757 1.347 . S
C758 C759 1.455 . S
C758 H818 0.930 . S
C759 C746 1.412 . S
C759 C758 1.455 . S
C759 C760 1.331 . S
C760 C749 1.451 . S
C760 C759 1.331 . S
C760 C761 1.497 . S
C761 C752 1.395 . S
C761 C756 1.446 . S
C761 C760 1.497 . S
C762 C763 1.582 . S
C762 H819 0.962 . S
C762 H820 0.959 . S
C762 H821 0.958 . S
C763 C762 1.582 . S
C763 O766 1.458 . S
C763 H792 0.980 . S
O764 C709 1.426 . S
O764 C710 1.334 . S
O765 C737 1.412 . S
O765 C738 1.393 . S
O766 C728 1.435 . S
O766 C763 1.458 . S
O767 C719 1.468 . S
O767 C720 1.408 . S
H768 C709 0.980 . S
H769 C708 0.959 . S
H770 C708 0.959 . S
H771 C708 0.960 . S
H772 C711 0.929 . S
H773 C715 0.929 . S
H774 C716 0.959 . S
H775 C716 0.961 . S
H776 C716 0.961 . S
H777 C717 0.960 . S
H778 C717 0.960 . S
H779 C717 0.961 . S
H780 C719 0.980 . S
H781 C718 0.961 . S
H782 C718 0.960 . S
H783 C718 0.959 . S
H784 C721 0.930 . S
H785 C725 0.931 . S
H786 C726 0.959 . S
H787 C726 0.961 . S
H788 C726 0.959 . S
H789 C727 0.960 . S
H790 C727 0.960 . S
H791 C727 0.960 . S
H792 C763 0.980 . S
H793 C729 0.930 . S
H794 C733 0.930 . S
H795 C734 0.961 . S
H796 C734 0.960 . S
H797 C734 0.958 . S
H798 C735 0.961 . S
H799 C735 0.960 . S
H800 C735 0.960 . S
H801 C737 0.980 . S
H802 C736 0.961 . S
H803 C736 0.961 . S
H804 C736 0.959 . S
H805 C739 0.932 . S
H806 C743 0.929 . S
H807 C744 0.961 . S
H808 C744 0.959 . S
H809 C744 0.959 . S
H810 C745 0.960 . S
H811 C745 0.962 . S
H812 C745 0.961 . S
H813 C747 0.929 . S
H814 C750 0.930 . S
H815 C751 0.929 . S
H816 C754 0.930 . S
H817 C757 0.929 . S
H818 C758 0.930 . S
H819 C762 0.962 . S
H820 C762 0.959 . S
H821 C762 0.958 . S
C822 C823 1.560 . S
C822 H883 0.959 . S
C822 H884 0.959 . S
C822 H885 0.960 . S
C823 C822 1.560 . S
C823 O878 1.426 . S
C823 H882 0.980 . S
C824 C825 1.407 . S
C824 C829 1.418 . S
C824 O878 1.334 . S
C825 C824 1.407 . S
C825 C826 1.360 . S
C825 H886 0.929 . S
C826 C825 1.360 . S
C826 C827 1.401 . S
C826 C830 1.527 . S
C827 C826 1.401 . S
C827 C828 1.405 . S
C827 C860 1.587 . S
C828 C827 1.405 . S
C828 C829 1.332 . S
C828 C831 1.496 . S
C829 C824 1.418 . S
C829 C828 1.332 . S
C829 H887 0.929 . S
C830 C826 1.527 . S
C830 H888 0.959 . S
C830 H889 0.961 . S
C830 H890 0.961 . S
C831 C828 1.496 . S
C831 H891 0.960 . S
C831 H892 0.960 . S
C831 H893 0.961 . S
C832 C833 1.517 . S
C832 H895 0.961 . S
C832 H896 0.960 . S
C832 H897 0.959 . S
C833 C832 1.517 . S
C833 O881 1.468 . S
C833 H894 0.980 . S
C834 C835 1.349 . S
C834 C839 1.367 . S
C834 O881 1.408 . S
C835 C834 1.349 . S
C835 C836 1.407 . S
C835 H898 0.930 . S
C836 C835 1.407 . S
C836 C837 1.449 . S
C836 C840 1.535 . S
C837 C836 1.449 . S
C837 C838 1.384 . S
C837 C862 1.553 . S
C838 C837 1.384 . S
C838 C839 1.364 . S
C838 C841 1.450 . S
C839 C834 1.367 . S
C839 C838 1.364 . S
C839 H899 0.931 . S
C840 C836 1.535 . S
C840 H900 0.959 . S
C840 H901 0.961 . S
C840 H902 0.959 . S
C841 C838 1.450 . S
C841 H903 0.960 . S
C841 H904 0.960 . S
C841 H905 0.960 . S
C842 C843 1.309 . S
C842 C847 1.304 . S
C842 O880 1.435 . S
C843 C842 1.309 . S
C843 C844 1.476 . S
C843 H907 0.930 . S
C844 C843 1.476 . S
C844 C845 1.400 . S
C844 C848 1.567 . S
C845 C844 1.400 . S
C845 C846 1.373 . S
C845 C867 1.432 . S
C846 C845 1.373 . S
C846 C847 1.339 . S
C846 C849 1.530 . S
C847 C842 1.304 . S
C847 C846 1.339 . S
C847 H908 0.930 . S
C848 C844 1.567 . S
C848 H909 0.961 . S
C848 H910 0.960 . S
C848 H911 0.958 . S
C849 C846 1.530 . S
C849 H912 0.961 . S
C849 H913 0.960 . S
C849 H914 0.960 . S
C850 C851 1.530 . S
C850 H916 0.961 . S
C850 H917 0.961 . S
C850 H918 0.959 . S
C851 C850 1.530 . S
C851 O879 1.412 . S
C851 H915 0.980 . S
C852 C853 1.288 . S
C852 C857 1.377 . S
C852 O879 1.393 . S
C853 C852 1.288 . S
C853 C854 1.369 . S
C853 H919 0.932 . S
C854 C853 1.369 . S
C854 C855 1.398 . S
C854 C858 1.527 . S
C855 C854 1.398 . S
C855 C856 1.380 . S
C855 C869 1.497 . S
C856 C855 1.380 . S
C856 C857 1.383 . S
C856 C859 1.603 . S
C857 C852 1.377 . S
C857 C856 1.383 . S
C857 H920 0.929 . S
C858 C854 1.527 . S
C858 H921 0.961 . S
C858 H922 0.959 . S
C858 H923 0.959 . S
C859 C856 1.603 . S
C859 H924 0.960 . S
C859 H925 0.962 . S
C859 H926 0.961 . S
C860 C827 1.587 . S
C860 C861 1.360 . S
C860 C873 1.412 . S
C861 C860 1.360 . S
C861 C862 1.365 . S
C861 H927 0.929 . S
C862 C837 1.553 . S
C862 C861 1.365 . S
C862 C863 1.404 . S
C863 C862 1.404 . S
C863 C864 1.395 . S
C863 C874 1.451 . S
C864 C863 1.395 . S
C864 C865 1.322 . S
C864 H928 0.930 . S
C865 C864 1.322 . S
C865 C866 1.459 . S
C865 H929 0.929 . S
C866 C865 1.459 . S
C866 C867 1.445 . S
C866 C875 1.395 . S
C867 C845 1.432 . S
C867 C866 1.445 . S
C867 C868 1.370 . S
C868 C867 1.370 . S
C868 C869 1.438 . S
C868 H930 0.930 . S
C869 C855 1.497 . S
C869 C868 1.438 . S
C869 C870 1.360 . S
C870 C869 1.360 . S
C870 C871 1.401 . S
C870 C875 1.446 . S
C871 C870 1.401 . S
C871 C872 1.347 . S
C871 H931 0.929 . S
C872 C871 1.347 . S
C872 C873 1.455 . S
C872 H932 0.930 . S
C873 C860 1.412 . S
C873 C872 1.455 . S
C873 C874 1.331 . S
C874 C863 1.451 . S
C874 C873 1.331 . S
C874 C875 1.497 . S
C875 C866 1.395 . S
C875 C870 1.446 . S
C875 C874 1.497 . S
C876 C877 1.582 . S
C876 H933 0.962 . S
C876 H934 0.959 . S
C876 H935 0.958 . S
C877 C876 1.582 . S
C877 O880 1.458 . S
C877 H906 0.980 . S
O878 C823 1.426 . S
O878 C824 1.334 . S
O879 C851 1.412 . S
O879 C852 1.393 . S
O880 C842 1.435 . S
O880 C877 1.458 . S
O881 C833 1.468 . S
O881 C834 1.408 . S
H882 C823 0.980 . S
H883 C822 0.959 . S
H884 C822 0.959 . S
H885 C822 0.960 . S
H886 C825 0.929 . S
H887 C829 0.929 . S
H888 C830 0.959 . S
H889 C830 0.961 . S
H890 C830 0.961 . S
H891 C831 0.960 . S
H892 C831 0.960 . S
H893 C831 0.961 . S
H894 C833 0.980 . S
H895 C832 0.961 . S
H896 C832 0.960 . S
H897 C832 0.959 . S
H898 C835 0.930 . S
H899 C839 0.931 . S
H900 C840 0.959 . S
H901 C840 0.961 . S
H902 C840 0.959 . S
H903 C841 0.960 . S
H904 C841 0.960 . S
H905 C841 0.960 . S
H906 C877 0.980 . S
H907 C843 0.930 . S
H908 C847 0.930 . S
H909 C848 0.961 . S
H910 C848 0.960 . S
H911 C848 0.958 . S
H912 C849 0.961 . S
H913 C849 0.960 . S
H914 C849 0.960 . S
H915 C851 0.980 . S
H916 C850 0.961 . S
H917 C850 0.961 . S
H918 C850 0.959 . S
H919 C853 0.932 . S
H920 C857 0.929 . S
H921 C858 0.961 . S
H922 C858 0.959 . S
H923 C858 0.959 . S
H924 C859 0.960 . S
H925 C859 0.962 . S
H926 C859 0.961 . S
H927 C861 0.929 . S
H928 C864 0.930 . S
H929 C865 0.929 . S
H930 C868 0.930 . S
H931 C871 0.929 . S
H932 C872 0.930 . S
H933 C876 0.962 . S
H934 C876 0.959 . S
H935 C876 0.958 . S
C936 C937 1.560 . S
C936 H997 0.959 . S
C936 H998 0.959 . S
C936 H999 0.960 . S
C937 C936 1.560 . S
C937 O992 1.426 . S
C937 H996 0.980 . S
C938 C939 1.407 . S
C938 C943 1.418 . S
C938 O992 1.334 . S
C939 C938 1.407 . S
C939 C940 1.360 . S
C939 H1000 0.929 . S
C940 C939 1.360 . S
C940 C941 1.401 . S
C940 C944 1.527 . S
C941 C940 1.401 . S
C941 C942 1.405 . S
C941 C974 1.587 . S
C942 C941 1.405 . S
C942 C943 1.332 . S
C942 C945 1.496 . S
C943 C938 1.418 . S
C943 C942 1.332 . S
C943 H1001 0.929 . S
C944 C940 1.527 . S
C944 H1002 0.959 . S
C944 H1003 0.961 . S
C944 H1004 0.961 . S
C945 C942 1.496 . S
C945 H1005 0.960 . S
C945 H1006 0.960 . S
C945 H1007 0.961 . S
C946 C947 1.517 . S
C946 H1009 0.961 . S
C946 H1010 0.960 . S
C946 H1011 0.959 . S
C947 C946 1.517 . S
C947 O995 1.468 . S
C947 H1008 0.980 . S
C948 C949 1.349 . S
C948 C953 1.367 . S
C948 O995 1.408 . S
C949 C948 1.349 . S
C949 C950 1.407 . S
C949 H1012 0.930 . S
C950 C949 1.407 . S
C950 C951 1.449 . S
C950 C954 1.535 . S
C951 C950 1.449 . S
C951 C952 1.384 . S
C951 C976 1.553 . S
C952 C951 1.384 . S
C952 C953 1.364 . S
C952 C955 1.450 . S
C953 C948 1.367 . S
C953 C952 1.364 . S
C953 H1013 0.931 . S
C954 C950 1.535 . S
C954 H1014 0.959 . S
C954 H1015 0.961 . S
C954 H1016 0.959 . S
C955 C952 1.450 . S
C955 H1017 0.960 . S
C955 H1018 0.960 . S
C955 H1019 0.960 . S
C956 C957 1.309 . S
C956 C961 1.304 . S
C956 O994 1.435 . S
C957 C956 1.309 . S
C957 C958 1.476 . S
C957 H1021 0.930 . S
C958 C957 1.476 . S
C958 C959 1.400 . S
C958 C962 1.567 . S
C959 C958 1.400 . S
C959 C960 1.373 . S
C959 C981 1.432 . S
C960 C959 1.373 . S
C960 C961 1.339 . S
C960 C963 1.530 . S
C961 C956 1.304 . S
C961 C960 1.339 . S
C961 H1022 0.930 . S
C962 C958 1.567 . S
C962 H1023 0.961 . S
C962 H1024 0.960 . S
C962 H1025 0.958 . S
C963 C960 1.530 . S
C963 H1026 0.961 . S
C963 H1027 0.960 . S
C963 H1028 0.960 . S
C964 C965 1.530 . S
C964 H1030 0.961 . S
C964 H1031 0.961 . S
C964 H1032 0.959 . S
C965 C964 1.530 . S
C965 O993 1.412 . S
C965 H1029 0.980 . S
C966 C967 1.288 . S
C966 C971 1.377 . S
C966 O993 1.393 . S
C967 C966 1.288 . S
C967 C968 1.369 . S
C967 H1033 0.932 . S
C968 C967 1.369 . S
C968 C969 1.398 . S
C968 C972 1.527 . S
C969 C968 1.398 . S
C969 C970 1.380 . S
C969 C983 1.497 . S
C970 C969 1.380 . S
C970 C971 1.383 . S
C970 C973 1.603 . S
C971 C966 1.377 . S
C971 C970 1.383 . S
C971 H1034 0.929 . S
C972 C968 1.527 . S
C972 H1035 0.961 . S
C972 H1036 0.959 . S
C972 H1037 0.959 . S
C973 C970 1.603 . S
C973 H1038 0.960 . S
C973 H1039 0.962 . S
C973 H1040 0.961 . S
C974 C941 1.587 . S
C974 C975 1.360 . S
C974 C987 1.412 . S
C975 C974 1.360 . S
C975 C976 1.365 . S
C975 H1041 0.929 . S
C976 C951 1.553 . S
C976 C975 1.365 . S
C976 C977 1.404 . S
C977 C976 1.404 . S
C977 C978 1.395 . S
C977 C988 1.451 . S
C978 C977 1.395 . S
C978 C979 1.322 . S
C978 H1042 0.930 . S
C979 C978 1.322 . S
C979 C980 1.459 . S
C979 H1043 0.929 . S
C980 C979 1.459 . S
C980 C981 1.445 . S
C980 C989 1.395 . S
C981 C959 1.432 . S
C981 C980 1.445 . S
C981 C982 1.370 . S
C982 C981 1.370 . S
C982 C983 1.438 . S
C982 H1044 0.930 . S
C983 C969 1.497 . S
C983 C982 1.438 . S
C983 C984 1.360 . S
C984 C983 1.360 . S
C984 C985 1.401 . S
C984 C989 1.446 . S
C985 C984 1.401 . S
C985 C986 1.347 . S
C985 H1045 0.929 . S
C986 C985 1.347 . S
C986 C987 1.455 . S
C986 H1046 0.930 . S
C987 C974 1.412 . S
C987 C986 1.455 . S
C987 C988 1.331 . S
C988 C977 1.451 . S
C988 C987 1.331 . S
C988 C989 1.497 . S
C989 C980 1.395 . S
C989 C984 1.446 . S
C989 C988 1.497 . S
C990 C991 1.582 . S
C990 H1047 0.962 . S
C990 H1048 0.959 . S
C990 H1049 0.958 . S
C991 C990 1.582 . S
C991 O994 1.458 . S
C991 H1020 0.980 . S
O992 C937 1.426 . S
O992 C938 1.334 . S
O993 C965 1.412 . S
O993 C966 1.393 . S
O994 C956 1.435 . S
O994 C991 1.458 . S
O995 C947 1.468 . S
O995 C948 1.408 . S
H996 C937 0.980 . S
H997 C936 0.959 . S
H998 C936 0.959 . S
H999 C936 0.960 . S
H1000 C939 0.929 . S
H1001 C943 0.929 . S
H1002 C944 0.959 . S
H1003 C944 0.961 . S
H1004 C944 0.961 . S
H1005 C945 0.960 . S
H1006 C945 0.960 . S
H1007 C945 0.961 . S
H1008 C947 0.980 . S
H1009 C946 0.961 . S
H1010 C946 0.960 . S
H1011 C946 0.959 . S
H1012 C949 0.930 . S
H1013 C953 0.931 . S
H1014 C954 0.959 . S
H1015 C954 0.961 . S
H1016 C954 0.959 . S
H1017 C955 0.960 . S
H1018 C955 0.960 . S
H1019 C955 0.960 . S
H1020 C991 0.980 . S
H1021 C957 0.930 . S
H1022 C961 0.930 . S
H1023 C962 0.961 . S
H1024 C962 0.960 . S
H1025 C962 0.958 . S
H1026 C963 0.961 . S
H1027 C963 0.960 . S
H1028 C963 0.960 . S
H1029 C965 0.980 . S
H1030 C964 0.961 . S
H1031 C964 0.961 . S
H1032 C964 0.959 . S
H1033 C967 0.932 . S
H1034 C971 0.929 . S
H1035 C972 0.961 . S
H1036 C972 0.959 . S
H1037 C972 0.959 . S
H1038 C973 0.960 . S
H1039 C973 0.962 . S
H1040 C973 0.961 . S
H1041 C975 0.929 . S
H1042 C978 0.930 . S
H1043 C979 0.929 . S
H1044 C982 0.930 . S
H1045 C985 0.929 . S
H1046 C986 0.930 . S
H1047 C990 0.962 . S
H1048 C990 0.959 . S
H1049 C990 0.958 . S
C1050 C1051 1.560 . S
C1050 H1111 0.959 . S
C1050 H1112 0.959 . S
C1050 H1113 0.960 . S
C1051 C1050 1.560 . S
C1051 O1106 1.426 . S
C1051 H1110 0.980 . S
C1052 C1053 1.407 . S
C1052 C1057 1.418 . S
C1052 O1106 1.334 . S
C1053 C1052 1.407 . S
C1053 C1054 1.360 . S
C1053 H1114 0.929 . S
C1054 C1053 1.360 . S
C1054 C1055 1.401 . S
C1054 C1058 1.527 . S
C1055 C1054 1.401 . S
C1055 C1056 1.405 . S
C1055 C1088 1.587 . S
C1056 C1055 1.405 . S
C1056 C1057 1.332 . S
C1056 C1059 1.496 . S
C1057 C1052 1.418 . S
C1057 C1056 1.332 . S
C1057 H1115 0.929 . S
C1058 C1054 1.527 . S
C1058 H1116 0.959 . S
C1058 H1117 0.961 . S
C1058 H1118 0.961 . S
C1059 C1056 1.496 . S
C1059 H1119 0.960 . S
C1059 H1120 0.960 . S
C1059 H1121 0.961 . S
C1060 C1061 1.517 . S
C1060 H1123 0.961 . S
C1060 H1124 0.960 . S
C1060 H1125 0.959 . S
C1061 C1060 1.517 . S
C1061 O1109 1.468 . S
C1061 H1122 0.980 . S
C1062 C1063 1.349 . S
C1062 C1067 1.367 . S
C1062 O1109 1.408 . S
C1063 C1062 1.349 . S
C1063 C1064 1.407 . S
C1063 H1126 0.930 . S
C1064 C1063 1.407 . S
C1064 C1065 1.449 . S
C1064 C1068 1.535 . S
C1065 C1064 1.449 . S
C1065 C1066 1.384 . S
C1065 C1090 1.553 . S
C1066 C1065 1.384 . S
C1066 C1067 1.364 . S
C1066 C1069 1.450 . S
C1067 C1062 1.367 . S
C1067 C1066 1.364 . S
C1067 H1127 0.931 . S
C1068 C1064 1.535 . S
C1068 H1128 0.959 . S
C1068 H1129 0.961 . S
C1068 H1130 0.959 . S
C1069 C1066 1.450 . S
C1069 H1131 0.960 . S
C1069 H1132 0.960 . S
C1069 H1133 0.960 . S
C1070 C1071 1.309 . S
C1070 C1075 1.304 . S
C1070 O1108 1.435 . S
C1071 C1070 1.309 . S
C1071 C1072 1.476 . S
C1071 H1135 0.930 . S
C1072 C1071 1.476 . S
C1072 C1073 1.400 . S
C1072 C1076 1.567 . S
C1073 C1072 1.400 . S
C1073 C1074 1.373 . S
C1073 C1095 1.432 . S
C1074 C1073 1.373 . S
C1074 C1075 1.339 . S
C1074 C1077 1.530 . S
C1075 C1070 1.304 . S
C1075 C1074 1.339 . S
C1075 H1136 0.930 . S
C1076 C1072 1.567 . S
C1076 H1137 0.961 . S
C1076 H1138 0.960 . S
C1076 H1139 0.958 . S
C1077 C1074 1.530 . S
C1077 H1140 0.961 . S
C1077 H1141 0.960 . S
C1077 H1142 0.960 . S
C1078 C1079 1.530 . S
C1078 H1144 0.961 . S
C1078 H1145 0.961 . S
C1078 H1146 0.959 . S
C1079 C1078 1.530 . S
C1079 O1107 1.412 . S
C1079 H1143 0.980 . S
C1080 C1081 1.288 . S
C1080 C1085 1.377 . S
C1080 O1107 1.393 . S
C1081 C1080 1.288 . S
C1081 C1082 1.369 . S
C1081 H1147 0.932 . S
C1082 C1081 1.369 . S
C1082 C1083 1.398 . S
C1082 C1086 1.527 . S
C1083 C1082 1.398 . S
C1083 C1084 1.380 . S
C1083 C1097 1.497 . S
C1084 C1083 1.380 . S
C1084 C1085 1.383 . S
C1084 C1087 1.603 . S
C1085 C1080 1.377 . S
C1085 C1084 1.383 . S
C1085 H1148 0.929 . S
C1086 C1082 1.527 . S
C1086 H1149 0.961 . S
C1086 H1150 0.959 . S
C1086 H1151 0.959 . S
C1087 C1084 1.603 . S
C1087 H1152 0.960 . S
C1087 H1153 0.962 . S
C1087 H1154 0.961 . S
C1088 C1055 1.587 . S
C1088 C1089 1.360 . S
C1088 C1101 1.412 . S
C1089 C1088 1.360 . S
C1089 C1090 1.365 . S
C1089 H1155 0.929 . S
C1090 C1065 1.553 . S
C1090 C1089 1.365 . S
C1090 C1091 1.404 . S
C1091 C1090 1.404 . S
C1091 C1092 1.395 . S
C1091 C1102 1.451 . S
C1092 C1091 1.395 . S
C1092 C1093 1.322 . S
C1092 H1156 0.930 . S
C1093 C1092 1.322 . S
C1093 C1094 1.459 . S
C1093 H1157 0.929 . S
C1094 C1093 1.459 . S
C1094 C1095 1.445 . S
C1094 C1103 1.395 . S
C1095 C1073 1.432 . S
C1095 C1094 1.445 . S
C1095 C1096 1.370 . S
C1096 C1095 1.370 . S
C1096 C1097 1.438 . S
C1096 H1158 0.930 . S
C1097 C1083 1.497 . S
C1097 C1096 1.438 . S
C1097 C1098 1.360 . S
C1098 C1097 1.360 . S
C1098 C1099 1.401 . S
C1098 C1103 1.446 . S
C1099 C1098 1.401 . S
C1099 C1100 1.347 . S
C1099 H1159 0.929 . S
C1100 C1099 1.347 . S
C1100 C1101 1.455 . S
C1100 H1160 0.930 . S
C1101 C1088 1.412 . S
C1101 C1100 1.455 . S
C1101 C1102 1.331 . S
C1102 C1091 1.451 . S
C1102 C1101 1.331 . S
C1102 C1103 1.497 . S
C1103 C1094 1.395 . S
C1103 C1098 1.446 . S
C1103 C1102 1.497 . S
C1104 C1105 1.582 . S
C1104 H1161 0.962 . S
C1104 H1162 0.959 . S
C1104 H1163 0.958 . S
C1105 C1104 1.582 . S
C1105 O1108 1.458 . S
C1105 H1134 0.980 . S
O1106 C1051 1.426 . S
O1106 C1052 1.334 . S
O1107 C1079 1.412 . S
O1107 C1080 1.393 . S
O1108 C1070 1.435 . S
O1108 C1105 1.458 . S
O1109 C1061 1.468 . S
O1109 C1062 1.408 . S
H1110 C1051 0.980 . S
H1111 C1050 0.959 . S
H1112 C1050 0.959 . S
H1113 C1050 0.960 . S
H1114 C1053 0.929 . S
H1115 C1057 0.929 . S
H1116 C1058 0.959 . S
H1117 C1058 0.961 . S
H1118 C1058 0.961 . S
H1119 C1059 0.960 . S
H1120 C1059 0.960 . S
H1121 C1059 0.961 . S
H1122 C1061 0.980 . S
H1123 C1060 0.961 . S
H1124 C1060 0.960 . S
H1125 C1060 0.959 . S
H1126 C1063 0.930 . S
H1127 C1067 0.931 . S
H1128 C1068 0.959 . S
H1129 C1068 0.961 . S
H1130 C1068 0.959 . S
H1131 C1069 0.960 . S
H1132 C1069 0.960 . S
H1133 C1069 0.960 . S
H1134 C1105 0.980 . S
H1135 C1071 0.930 . S
H1136 C1075 0.930 . S
H1137 C1076 0.961 . S
H1138 C1076 0.960 . S
H1139 C1076 0.958 . S
H1140 C1077 0.961 . S
H1141 C1077 0.960 . S
H1142 C1077 0.960 . S
H1143 C1079 0.980 . S
H1144 C1078 0.961 . S
H1145 C1078 0.961 . S
H1146 C1078 0.959 . S
H1147 C1081 0.932 . S
H1148 C1085 0.929 . S
H1149 C1086 0.961 . S
H1150 C1086 0.959 . S
H1151 C1086 0.959 . S
H1152 C1087 0.960 . S
H1153 C1087 0.962 . S
H1154 C1087 0.961 . S
H1155 C1089 0.929 . S
H1156 C1092 0.930 . S
H1157 C1093 0.929 . S
H1158 C1096 0.930 . S
H1159 C1099 0.929 . S
H1160 C1100 0.930 . S
H1161 C1104 0.962 . S
H1162 C1104 0.959 . S
H1163 C1104 0.958 . S
C1164 C1165 1.560 . S
C1164 H1225 0.959 . S
C1164 H1226 0.959 . S
C1164 H1227 0.960 . S
C1165 C1164 1.560 . S
C1165 O1220 1.426 . S
C1165 H1224 0.980 . S
C1166 C1167 1.407 . S
C1166 C1171 1.418 . S
C1166 O1220 1.334 . S
C1167 C1166 1.407 . S
C1167 C1168 1.360 . S
C1167 H1228 0.929 . S
C1168 C1167 1.360 . S
C1168 C1169 1.401 . S
C1168 C1172 1.527 . S
C1169 C1168 1.401 . S
C1169 C1170 1.405 . S
C1169 C1202 1.587 . S
C1170 C1169 1.405 . S
C1170 C1171 1.332 . S
C1170 C1173 1.496 . S
C1171 C1166 1.418 . S
C1171 C1170 1.332 . S
C1171 H1229 0.929 . S
C1172 C1168 1.527 . S
C1172 H1230 0.959 . S
C1172 H1231 0.961 . S
C1172 H1232 0.961 . S
C1173 C1170 1.496 . S
C1173 H1233 0.960 . S
C1173 H1234 0.960 . S
C1173 H1235 0.961 . S
C1174 C1175 1.517 . S
C1174 H1237 0.961 . S
C1174 H1238 0.960 . S
C1174 H1239 0.959 . S
C1175 C1174 1.517 . S
C1175 O1223 1.468 . S
C1175 H1236 0.980 . S
C1176 C1177 1.349 . S
C1176 C1181 1.367 . S
C1176 O1223 1.408 . S
C1177 C1176 1.349 . S
C1177 C1178 1.407 . S
C1177 H1240 0.930 . S
C1178 C1177 1.407 . S
C1178 C1179 1.449 . S
C1178 C1182 1.535 . S
C1179 C1178 1.449 . S
C1179 C1180 1.384 . S
C1179 C1204 1.553 . S
C1180 C1179 1.384 . S
C1180 C1181 1.364 . S
C1180 C1183 1.450 . S
C1181 C1176 1.367 . S
C1181 C1180 1.364 . S
C1181 H1241 0.931 . S
C1182 C1178 1.535 . S
C1182 H1242 0.959 . S
C1182 H1243 0.961 . S
C1182 H1244 0.959 . S
C1183 C1180 1.450 . S
C1183 H1245 0.960 . S
C1183 H1246 0.960 . S
C1183 H1247 0.960 . S
C1184 C1185 1.309 . S
C1184 C1189 1.304 . S
C1184 O1222 1.435 . S
C1185 C1184 1.309 . S
C1185 C1186 1.476 . S
C1185 H1249 0.930 . S
C1186 C1185 1.476 . S
C1186 C1187 1.400 . S
C1186 C1190 1.567 . S
C1187 C1186 1.400 . S
C1187 C1188 1.373 . S
C1187 C1209 1.432 . S
C1188 C1187 1.373 . S
C1188 C1189 1.339 . S
C1188 C1191 1.530 . S
C1189 C1184 1.304 . S
C1189 C1188 1.339 . S
C1189 H1250 0.930 . S
C1190 C1186 1.567 . S
C1190 H1251 0.961 . S
C1190 H1252 0.960 . S
C1190 H1253 0.958 . S
C1191 C1188 1.530 . S
C1191 H1254 0.961 . S
C1191 H1255 0.960 . S
C1191 H1256 0.960 . S
C1192 C1193 1.530 . S
C1192 H1258 0.961 . S
C1192 H1259 0.961 . S
C1192 H1260 0.959 . S
C1193 C1192 1.530 . S
C1193 O1221 1.412 . S
C1193 H1257 0.980 . S
C1194 C1195 1.288 . S
C1194 C1199 1.377 . S
C1194 O1221 1.393 . S
C1195 C1194 1.288 . S
C1195 C1196 1.369 . S
C1195 H1261 0.932 . S
C1196 C1195 1.369 . S
C1196 C1197 1.398 . S
C1196 C1200 1.527 . S
C1197 C1196 1.398 . S
C1197 C1198 1.380 . S
C1197 C1211 1.497 . S
C1198 C1197 1.380 . S
C1198 C1199 1.383 . S
C1198 C1201 1.603 . S
C1199 C1194 1.377 . S
C1199 C1198 1.383 . S
C1199 H1262 0.929 . S
C1200 C1196 1.527 . S
C1200 H1263 0.961 . S
C1200 H1264 0.959 . S
C1200 H1265 0.959 . S
C1201 C1198 1.603 . S
C1201 H1266 0.960 . S
C1201 H1267 0.962 . S
C1201 H1268 0.961 . S
C1202 C1169 1.587 . S
C1202 C1203 1.360 . S
C1202 C1215 1.412 . S
C1203 C1202 1.360 . S
C1203 C1204 1.365 . S
C1203 H1269 0.929 . S
C1204 C1179 1.553 . S
C1204 C1203 1.365 . S
C1204 C1205 1.404 . S
C1205 C1204 1.404 . S
C1205 C1206 1.395 . S
C1205 C1216 1.451 . S
C1206 C1205 1.395 . S
C1206 C1207 1.322 . S
C1206 H1270 0.930 . S
C1207 C1206 1.322 . S
C1207 C1208 1.459 . S
C1207 H1271 0.929 . S
C1208 C1207 1.459 . S
C1208 C1209 1.445 . S
C1208 C1217 1.395 . S
C1209 C1187 1.432 . S
C1209 C1208 1.445 . S
C1209 C1210 1.370 . S
C1210 C1209 1.370 . S
C1210 C1211 1.438 . S
C1210 H1272 0.930 . S
C1211 C1197 1.497 . S
C1211 C1210 1.438 . S
C1211 C1212 1.360 . S
C1212 C1211 1.360 . S
C1212 C1213 1.401 . S
C1212 C1217 1.446 . S
C1213 C1212 1.401 . S
C1213 C1214 1.347 . S
C1213 H1273 0.929 . S
C1214 C1213 1.347 . S
C1214 C1215 1.455 . S
C1214 H1274 0.930 . S
C1215 C1202 1.412 . S
C1215 C1214 1.455 . S
C1215 C1216 1.331 . S
C1216 C1205 1.451 . S
C1216 C1215 1.331 . S
C1216 C1217 1.497 . S
C1217 C1208 1.395 . S
C1217 C1212 1.446 . S
C1217 C1216 1.497 . S
C1218 C1219 1.582 . S
C1218 H1275 0.962 . S
C1218 H1276 0.959 . S
C1218 H1277 0.958 . S
C1219 C1218 1.582 . S
C1219 O1222 1.458 . S
C1219 H1248 0.980 . S
O1220 C1165 1.426 . S
O1220 C1166 1.334 . S
O1221 C1193 1.412 . S
O1221 C1194 1.393 . S
O1222 C1184 1.435 . S
O1222 C1219 1.458 . S
O1223 C1175 1.468 . S
O1223 C1176 1.408 . S
H1224 C1165 0.980 . S
H1225 C1164 0.959 . S
H1226 C1164 0.959 . S
H1227 C1164 0.960 . S
H1228 C1167 0.929 . S
H1229 C1171 0.929 . S
H1230 C1172 0.959 . S
H1231 C1172 0.961 . S
H1232 C1172 0.961 . S
H1233 C1173 0.960 . S
H1234 C1173 0.960 . S
H1235 C1173 0.961 . S
H1236 C1175 0.980 . S
H1237 C1174 0.961 . S
H1238 C1174 0.960 . S
H1239 C1174 0.959 . S
H1240 C1177 0.930 . S
H1241 C1181 0.931 . S
H1242 C1182 0.959 . S
H1243 C1182 0.961 . S
H1244 C1182 0.959 . S
H1245 C1183 0.960 . S
H1246 C1183 0.960 . S
H1247 C1183 0.960 . S
H1248 C1219 0.980 . S
H1249 C1185 0.930 . S
H1250 C1189 0.930 . S
H1251 C1190 0.961 . S
H1252 C1190 0.960 . S
H1253 C1190 0.958 . S
H1254 C1191 0.961 . S
H1255 C1191 0.960 . S
H1256 C1191 0.960 . S
H1257 C1193 0.980 . S
H1258 C1192 0.961 . S
H1259 C1192 0.961 . S
H1260 C1192 0.959 . S
H1261 C1195 0.932 . S
H1262 C1199 0.929 . S
H1263 C1200 0.961 . S
H1264 C1200 0.959 . S
H1265 C1200 0.959 . S
H1266 C1201 0.960 . S
H1267 C1201 0.962 . S
H1268 C1201 0.961 . S
H1269 C1203 0.929 . S
H1270 C1206 0.930 . S
H1271 C1207 0.929 . S
H1272 C1210 0.930 . S
H1273 C1213 0.929 . S
H1274 C1214 0.930 . S
H1275 C1218 0.962 . S
H1276 C1218 0.959 . S
H1277 C1218 0.958 . S
C1278 C1279 1.560 . S
C1278 H1339 0.959 . S
C1278 H1340 0.959 . S
C1278 H1341 0.960 . S
C1279 C1278 1.560 . S
C1279 O1334 1.426 . S
C1279 H1338 0.980 . S
C1280 C1281 1.407 1_455 S
C1280 C1285 1.418 . S
C1280 O1334 1.334 . S
C1281 C1280 1.407 1_655 S
C1281 C1282 1.360 . S
C1281 H1342 0.929 . S
C1282 C1281 1.360 . S
C1282 C1283 1.385 1_655 S
C1282 C1286 1.527 . S
C1283 C1282 1.385 1_455 S
C1283 C1284 1.487 . S
C1283 C1316 1.526 1_455 S
C1284 C1283 1.487 . S
C1284 C1285 1.332 . S
C1284 C1287 1.496 . S
C1285 C1280 1.418 . S
C1285 C1284 1.332 . S
C1285 H1343 0.929 . S
C1286 C1282 1.527 . S
C1286 H1344 0.959 . S
C1286 H1345 0.961 . S
C1286 H1346 0.961 . S
C1287 C1284 1.496 . S
C1287 H1347 0.960 . S
C1287 H1348 0.960 . S
C1287 H1349 0.961 . S
C1288 C1289 1.517 . S
C1288 H1351 0.961 . S
C1288 H1352 0.960 . S
C1288 H1353 0.959 . S
C1289 C1288 1.517 . S
C1289 O1337 1.468 . S
C1289 H1350 0.958 1_655 S
C1290 C1291 1.349 . S
C1290 C1295 1.367 . S
C1290 O1337 1.408 . S
C1291 C1290 1.349 . S
C1291 C1292 1.413 1_655 S
C1291 H1354 0.930 1_655 S
C1292 C1291 1.413 1_455 S
C1292 C1293 1.454 1_455 S
C1292 C1296 1.526 . S
C1293 C1292 1.454 1_655 S
C1293 C1294 1.384 . S
C1293 C1318 1.553 . S
C1294 C1293 1.384 . S
C1294 C1295 1.364 . S
C1294 C1297 1.450 . S
C1295 C1290 1.367 . S
C1295 C1294 1.364 . S
C1295 H1355 0.931 . S
C1296 C1292 1.526 . S
C1296 H1356 0.959 . S
C1296 H1357 0.961 . S
C1296 H1358 0.959 . S
C1297 C1294 1.450 . S
C1297 H1359 0.960 . S
C1297 H1360 0.960 . S
C1297 H1361 0.960 . S
C1298 C1299 1.309 . S
C1298 C1303 1.304 . S
C1298 O1336 1.435 . S
C1299 C1298 1.309 . S
C1299 C1300 1.446 1_655 S
C1299 H1363 0.930 1_655 S
C1300 C1299 1.446 1_455 S
C1300 C1301 1.382 1_455 S
C1300 C1304 1.615 . S
C1301 C1300 1.382 1_655 S
C1301 C1302 1.373 . S
C1301 C1323 1.432 . S
C1302 C1301 1.373 . S
C1302 C1303 1.339 . S
C1302 C1305 1.530 . S
C1303 C1298 1.304 . S
C1303 C1302 1.339 . S
C1303 H1364 0.930 . S
C1304 C1300 1.615 . S
C1304 H1365 0.961 . S
C1304 H1366 0.960 . S
C1304 H1367 0.958 . S
C1305 C1302 1.530 . S
C1305 H1368 0.961 . S
C1305 H1369 0.960 . S
C1305 H1370 0.960 . S
C1306 C1307 1.617 . S
C1306 H1372 0.961 . S
C1306 H1373 0.961 . S
C1306 H1374 0.959 . S
C1307 C1306 1.617 . S
C1307 O1335 1.432 . S
C1307 H1371 0.958 1_455 S
C1308 C1309 1.288 . S
C1308 C1313 1.377 1_455 S
C1308 O1335 1.393 . S
C1309 C1308 1.288 . S
C1309 C1310 1.369 . S
C1309 H1375 0.932 . S
C1310 C1309 1.369 . S
C1310 C1311 1.341 1_455 S
C1310 C1314 1.527 . S
C1311 C1310 1.341 1_655 S
C1311 C1312 1.398 . S
C1311 C1325 1.536 . S
C1312 C1311 1.398 . S
C1312 C1313 1.383 . S
C1312 C1315 1.603 . S
C1313 C1308 1.377 1_655 S
C1313 C1312 1.383 . S
C1313 H1376 0.929 . S
C1314 C1310 1.527 . S
C1314 H1377 0.961 . S
C1314 H1378 0.959 . S
C1314 H1379 0.959 . S
C1315 C1312 1.603 . S
C1315 H1380 0.960 . S
C1315 H1381 0.962 . S
C1315 H1382 0.961 . S
C1316 C1283 1.526 1_655 S
C1316 C1317 1.360 . S
C1316 C1329 1.412 . S
C1317 C1316 1.360 . S
C1317 C1318 1.365 . S
C1317 H1383 0.929 . S
C1318 C1293 1.553 . S
C1318 C1317 1.365 . S
C1318 C1319 1.404 . S
C1319 C1318 1.404 . S
C1319 C1320 1.395 . S
C1319 C1330 1.451 . S
C1320 C1319 1.395 . S
C1320 C1321 1.322 . S
C1320 H1384 0.930 . S
C1321 C1320 1.322 . S
C1321 C1322 1.459 . S
C1321 H1385 0.929 . S
C1322 C1321 1.459 . S
C1322 C1323 1.445 . S
C1322 C1331 1.395 . S
C1323 C1301 1.432 . S
C1323 C1322 1.445 . S
C1323 C1324 1.370 . S
C1324 C1323 1.370 . S
C1324 C1325 1.438 . S
C1324 H1386 0.930 . S
C1325 C1311 1.536 . S
C1325 C1324 1.438 . S
C1325 C1326 1.360 . S
C1326 C1325 1.360 . S
C1326 C1327 1.401 . S
C1326 C1331 1.446 . S
C1327 C1326 1.401 . S
C1327 C1328 1.347 . S
C1327 H1387 0.985 . S
C1328 C1327 1.347 . S
C1328 C1329 1.455 . S
C1328 H1388 0.930 . S
C1329 C1316 1.412 . S
C1329 C1328 1.455 . S
C1329 C1330 1.331 . S
C1330 C1319 1.451 . S
C1330 C1329 1.331 . S
C1330 C1331 1.497 . S
C1331 C1322 1.395 . S
C1331 C1326 1.446 . S
C1331 C1330 1.497 . S
C1332 C1333 1.582 . S
C1332 H1389 0.962 . S
C1332 H1390 0.959 . S
C1332 H1391 0.958 . S
C1333 C1332 1.582 . S
C1333 O1336 1.458 . S
C1333 H1362 0.980 . S
O1334 C1279 1.426 . S
O1334 C1280 1.334 . S
O1335 C1307 1.432 . S
O1335 C1308 1.393 . S
O1336 C1298 1.435 . S
O1336 C1333 1.458 . S
O1337 C1289 1.468 . S
O1337 C1290 1.408 . S
H1338 C1279 0.980 . S
H1339 C1278 0.959 . S
H1340 C1278 0.959 . S
H1341 C1278 0.960 . S
H1342 C1281 0.929 . S
H1343 C1285 0.929 . S
H1344 C1286 0.959 . S
H1345 C1286 0.961 . S
H1346 C1286 0.961 . S
H1347 C1287 0.960 . S
H1348 C1287 0.960 . S
H1349 C1287 0.961 . S
H1350 C1289 0.958 1_455 S
H1351 C1288 0.961 . S
H1352 C1288 0.960 . S
H1353 C1288 0.959 . S
H1354 C1291 0.930 1_455 S
H1355 C1295 0.931 . S
H1356 C1296 0.959 . S
H1357 C1296 0.961 . S
H1358 C1296 0.959 . S
H1359 C1297 0.960 . S
H1360 C1297 0.960 . S
H1361 C1297 0.960 . S
H1362 C1333 0.980 . S
H1363 C1299 0.930 1_455 S
H1364 C1303 0.930 . S
H1365 C1304 0.961 . S
H1366 C1304 0.960 . S
H1367 C1304 0.958 . S
H1368 C1305 0.961 . S
H1369 C1305 0.960 . S
H1370 C1305 0.960 . S
H1371 C1307 0.958 1_655 S
H1372 C1306 0.961 . S
H1373 C1306 0.961 . S
H1374 C1306 0.959 . S
H1375 C1309 0.932 . S
H1376 C1313 0.929 . S
H1377 C1314 0.961 . S
H1378 C1314 0.959 . S
H1379 C1314 0.959 . S
H1380 C1315 0.960 . S
H1381 C1315 0.962 . S
H1382 C1315 0.961 . S
H1383 C1317 0.929 . S
H1384 C1320 0.930 . S
H1385 C1321 0.929 . S
H1386 C1324 0.930 . S
H1387 C1327 0.985 . S
H1388 C1328 0.930 . S
H1389 C1332 0.962 . S
H1390 C1332 0.959 . S
H1391 C1332 0.958 . S
C1392 C1393 1.560 . S
C1392 H1453 0.959 . S
C1392 H1454 0.959 . S
C1392 H1455 0.960 . S
C1393 C1392 1.560 . S
C1393 O1448 1.426 . S
C1393 H1452 0.980 . S
C1394 C1395 1.407 . S
C1394 C1399 1.418 . S
C1394 O1448 1.334 . S
C1395 C1394 1.407 . S
C1395 C1396 1.360 . S
C1395 H1456 0.929 . S
C1396 C1395 1.360 . S
C1396 C1397 1.401 . S
C1396 C1400 1.527 . S
C1397 C1396 1.401 . S
C1397 C1398 1.405 . S
C1397 C1430 1.587 . S
C1398 C1397 1.405 . S
C1398 C1399 1.332 . S
C1398 C1401 1.496 . S
C1399 C1394 1.418 . S
C1399 C1398 1.332 . S
C1399 H1457 0.929 . S
C1400 C1396 1.527 . S
C1400 H1458 0.959 . S
C1400 H1459 0.961 . S
C1400 H1460 0.961 . S
C1401 C1398 1.496 . S
C1401 H1461 0.960 . S
C1401 H1462 0.960 . S
C1401 H1463 0.961 . S
C1402 C1403 1.517 . S
C1402 H1465 0.961 . S
C1402 H1466 0.960 . S
C1402 H1467 0.959 . S
C1403 C1402 1.517 . S
C1403 O1451 1.468 . S
C1403 H1464 0.980 . S
C1404 C1405 1.349 . S
C1404 C1409 1.367 . S
C1404 O1451 1.408 . S
C1405 C1404 1.349 . S
C1405 C1406 1.407 . S
C1405 H1468 0.930 . S
C1406 C1405 1.407 . S
C1406 C1407 1.449 . S
C1406 C1410 1.535 . S
C1407 C1406 1.449 . S
C1407 C1408 1.384 . S
C1407 C1432 1.553 . S
C1408 C1407 1.384 . S
C1408 C1409 1.364 . S
C1408 C1411 1.450 . S
C1409 C1404 1.367 . S
C1409 C1408 1.364 . S
C1409 H1469 0.931 . S
C1410 C1406 1.535 . S
C1410 H1470 0.959 . S
C1410 H1471 0.961 . S
C1410 H1472 0.959 . S
C1411 C1408 1.450 . S
C1411 H1473 0.960 . S
C1411 H1474 0.960 . S
C1411 H1475 0.960 . S
C1412 C1413 1.309 . S
C1412 C1417 1.304 . S
C1412 O1450 1.435 . S
C1413 C1412 1.309 . S
C1413 C1414 1.476 . S
C1413 H1477 0.930 . S
C1414 C1413 1.476 . S
C1414 C1415 1.400 . S
C1414 C1418 1.567 . S
C1415 C1414 1.400 . S
C1415 C1416 1.373 . S
C1415 C1437 1.432 . S
C1416 C1415 1.373 . S
C1416 C1417 1.339 . S
C1416 C1419 1.530 . S
C1417 C1412 1.304 . S
C1417 C1416 1.339 . S
C1417 H1478 0.930 . S
C1418 C1414 1.567 . S
C1418 H1479 0.961 . S
C1418 H1480 0.960 . S
C1418 H1481 0.958 . S
C1419 C1416 1.530 . S
C1419 H1482 0.961 . S
C1419 H1483 0.960 . S
C1419 H1484 0.960 . S
C1420 C1421 1.530 . S
C1420 H1486 0.961 . S
C1420 H1487 0.961 . S
C1420 H1488 0.959 . S
C1421 C1420 1.530 . S
C1421 O1449 1.412 . S
C1421 H1485 0.980 . S
C1422 C1423 1.288 . S
C1422 C1427 1.377 . S
C1422 O1449 1.393 . S
C1423 C1422 1.288 . S
C1423 C1424 1.369 . S
C1423 H1489 0.932 . S
C1424 C1423 1.369 . S
C1424 C1425 1.398 . S
C1424 C1428 1.527 . S
C1425 C1424 1.398 . S
C1425 C1426 1.380 . S
C1425 C1439 1.497 . S
C1426 C1425 1.380 . S
C1426 C1427 1.383 . S
C1426 C1429 1.603 . S
C1427 C1422 1.377 . S
C1427 C1426 1.383 . S
C1427 H1490 0.929 . S
C1428 C1424 1.527 . S
C1428 H1491 0.961 . S
C1428 H1492 0.959 . S
C1428 H1493 0.959 . S
C1429 C1426 1.603 . S
C1429 H1494 0.960 . S
C1429 H1495 0.962 . S
C1429 H1496 0.961 . S
C1430 C1397 1.587 . S
C1430 C1431 1.360 . S
C1430 C1443 1.412 . S
C1431 C1430 1.360 . S
C1431 C1432 1.365 . S
C1431 H1497 0.929 . S
C1432 C1407 1.553 . S
C1432 C1431 1.365 . S
C1432 C1433 1.404 . S
C1433 C1432 1.404 . S
C1433 C1434 1.395 . S
C1433 C1444 1.451 . S
C1434 C1433 1.395 . S
C1434 C1435 1.322 . S
C1434 H1498 0.930 . S
C1435 C1434 1.322 . S
C1435 C1436 1.459 . S
C1435 H1499 0.929 . S
C1436 C1435 1.459 . S
C1436 C1437 1.445 . S
C1436 C1445 1.395 . S
C1437 C1415 1.432 . S
C1437 C1436 1.445 . S
C1437 C1438 1.370 . S
C1438 C1437 1.370 . S
C1438 C1439 1.438 . S
C1438 H1500 0.930 . S
C1439 C1425 1.497 . S
C1439 C1438 1.438 . S
C1439 C1440 1.360 . S
C1440 C1439 1.360 . S
C1440 C1441 1.401 . S
C1440 C1445 1.446 . S
C1441 C1440 1.401 . S
C1441 C1442 1.347 . S
C1441 H1501 0.929 . S
C1442 C1441 1.347 . S
C1442 C1443 1.455 . S
C1442 H1502 0.930 . S
C1443 C1430 1.412 . S
C1443 C1442 1.455 . S
C1443 C1444 1.331 . S
C1444 C1433 1.451 . S
C1444 C1443 1.331 . S
C1444 C1445 1.497 . S
C1445 C1436 1.395 . S
C1445 C1440 1.446 . S
C1445 C1444 1.497 . S
C1446 C1447 1.582 . S
C1446 H1503 0.962 . S
C1446 H1504 0.959 . S
C1446 H1505 0.958 . S
C1447 C1446 1.582 . S
C1447 O1450 1.458 . S
C1447 H1476 0.980 . S
O1448 C1393 1.426 . S
O1448 C1394 1.334 . S
O1449 C1421 1.412 . S
O1449 C1422 1.393 . S
O1450 C1412 1.435 . S
O1450 C1447 1.458 . S
O1451 C1403 1.468 . S
O1451 C1404 1.408 . S
H1452 C1393 0.980 . S
H1453 C1392 0.959 . S
H1454 C1392 0.959 . S
H1455 C1392 0.960 . S
H1456 C1395 0.929 . S
H1457 C1399 0.929 . S
H1458 C1400 0.959 . S
H1459 C1400 0.961 . S
H1460 C1400 0.961 . S
H1461 C1401 0.960 . S
H1462 C1401 0.960 . S
H1463 C1401 0.961 . S
H1464 C1403 0.980 . S
H1465 C1402 0.961 . S
H1466 C1402 0.960 . S
H1467 C1402 0.959 . S
H1468 C1405 0.930 . S
H1469 C1409 0.931 . S
H1470 C1410 0.959 . S
H1471 C1410 0.961 . S
H1472 C1410 0.959 . S
H1473 C1411 0.960 . S
H1474 C1411 0.960 . S
H1475 C1411 0.960 . S
H1476 C1447 0.980 . S
H1477 C1413 0.930 . S
H1478 C1417 0.930 . S
H1479 C1418 0.961 . S
H1480 C1418 0.960 . S
H1481 C1418 0.958 . S
H1482 C1419 0.961 . S
H1483 C1419 0.960 . S
H1484 C1419 0.960 . S
H1485 C1421 0.980 . S
H1486 C1420 0.961 . S
H1487 C1420 0.961 . S
H1488 C1420 0.959 . S
H1489 C1423 0.932 . S
H1490 C1427 0.929 . S
H1491 C1428 0.961 . S
H1492 C1428 0.959 . S
H1493 C1428 0.959 . S
H1494 C1429 0.960 . S
H1495 C1429 0.962 . S
H1496 C1429 0.961 . S
H1497 C1431 0.929 . S
H1498 C1434 0.930 . S
H1499 C1435 0.929 . S
H1500 C1438 0.930 . S
H1501 C1441 0.929 . S
H1502 C1442 0.930 . S
H1503 C1446 0.962 . S
H1504 C1446 0.959 . S
H1505 C1446 0.958 . S
C1506 C1507 1.560 . S
C1506 H1567 0.959 . S
C1506 H1568 0.959 . S
C1506 H1569 0.960 . S
C1507 C1506 1.560 . S
C1507 O1562 1.426 . S
C1507 H1566 0.980 . S
C1508 C1509 1.407 1_565 S
C1508 C1513 1.418 . S
C1508 O1562 1.334 . S
C1509 C1508 1.407 1_545 S
C1509 C1510 1.360 . S
C1509 H1570 0.929 . S
C1510 C1509 1.360 . S
C1510 C1511 1.401 1_545 S
C1510 C1514 1.527 . S
C1511 C1510 1.401 1_565 S
C1511 C1512 1.405 . S
C1511 C1544 1.587 1_565 S
C1512 C1511 1.405 . S
C1512 C1513 1.332 . S
C1512 C1515 1.496 . S
C1513 C1508 1.418 . S
C1513 C1512 1.332 . S
C1513 H1571 0.929 . S
C1514 C1510 1.527 . S
C1514 H1572 0.959 . S
C1514 H1573 0.961 . S
C1514 H1574 0.961 . S
C1515 C1512 1.496 . S
C1515 H1575 0.960 . S
C1515 H1576 0.960 . S
C1515 H1577 0.961 . S
C1516 C1517 1.517 . S
C1516 H1579 0.925 1_545 S
C1516 H1580 0.960 . S
C1516 H1581 0.959 . S
C1517 C1516 1.517 . S
C1517 O1565 1.468 . S
C1517 H1578 0.980 1_545 S
C1518 C1519 1.406 . S
C1518 C1523 1.367 . S
C1518 O1565 1.408 . S
C1519 C1518 1.406 . S
C1519 C1520 1.441 1_545 S
C1519 H1582 0.842 1_545 S
C1520 C1519 1.441 1_565 S
C1520 C1521 1.449 1_565 S
C1520 C1524 1.535 . S
C1521 C1520 1.449 1_545 S
C1521 C1522 1.384 . S
C1521 C1546 1.553 . S
C1522 C1521 1.384 . S
C1522 C1523 1.364 . S
C1522 C1525 1.450 . S
C1523 C1518 1.367 . S
C1523 C1522 1.364 . S
C1523 H1583 0.931 . S
C1524 C1520 1.535 . S
C1524 H1584 0.959 . S
C1524 H1585 0.961 . S
C1524 H1586 0.959 . S
C1525 C1522 1.450 . S
C1525 H1587 0.960 . S
C1525 H1588 0.960 . S
C1525 H1589 0.960 . S
C1526 C1527 1.309 . S
C1526 C1531 1.304 . S
C1526 O1564 1.435 . S
C1527 C1526 1.309 . S
C1527 C1528 1.483 1_545 S
C1527 H1591 0.930 1_545 S
C1528 C1527 1.483 1_565 S
C1528 C1529 1.376 1_565 S
C1528 C1532 1.583 . S
C1529 C1528 1.376 1_545 S
C1529 C1530 1.373 . S
C1529 C1551 1.432 . S
C1530 C1529 1.373 . S
C1530 C1531 1.339 . S
C1530 C1533 1.530 . S
C1531 C1526 1.304 . S
C1531 C1530 1.339 . S
C1531 H1592 0.930 . S
C1532 C1528 1.583 . S
C1532 H1593 0.961 . S
C1532 H1594 0.960 . S
C1532 H1595 0.958 . S
C1533 C1530 1.530 . S
C1533 H1596 0.961 . S
C1533 H1597 0.960 . S
C1533 H1598 0.960 . S
C1534 C1535 1.522 1_565 S
C1534 H1600 0.961 . S
C1534 H1601 0.961 . S
C1534 H1602 0.959 . S
C1535 C1534 1.522 1_545 S
C1535 O1563 1.332 1_545 S
C1535 H1599 1.023 . S
C1536 C1537 1.288 . S
C1536 C1541 1.377 1_565 S
C1536 O1563 1.393 . S
C1537 C1536 1.288 . S
C1537 C1538 1.369 . S
C1537 H1603 0.932 . S
C1538 C1537 1.369 . S
C1538 C1539 1.398 1_565 S
C1538 C1542 1.527 . S
C1539 C1538 1.398 1_545 S
C1539 C1540 1.380 . S
C1539 C1553 1.497 . S
C1540 C1539 1.380 . S
C1540 C1541 1.383 . S
C1540 C1543 1.603 . S
C1541 C1536 1.377 1_545 S
C1541 C1540 1.383 . S
C1541 H1604 0.929 . S
C1542 C1538 1.527 . S
C1542 H1605 0.961 . S
C1542 H1606 0.959 . S
C1542 H1607 0.959 . S
C1543 C1540 1.603 . S
C1543 H1608 0.960 . S
C1543 H1609 0.962 . S
C1543 H1610 0.961 . S
C1544 C1511 1.587 1_545 S
C1544 C1545 1.360 . S
C1544 C1557 1.412 . S
C1545 C1544 1.360 . S
C1545 C1546 1.365 . S
C1545 H1611 0.929 . S
C1546 C1521 1.553 . S
C1546 C1545 1.365 . S
C1546 C1547 1.404 . S
C1547 C1546 1.404 . S
C1547 C1548 1.395 . S
C1547 C1558 1.451 . S
C1548 C1547 1.395 . S
C1548 C1549 1.322 . S
C1548 H1612 0.930 . S
C1549 C1548 1.322 . S
C1549 C1550 1.459 . S
C1549 H1613 0.929 . S
C1550 C1549 1.459 . S
C1550 C1551 1.445 . S
C1550 C1559 1.395 . S
C1551 C1529 1.432 . S
C1551 C1550 1.445 . S
C1551 C1552 1.370 . S
C1552 C1551 1.370 . S
C1552 C1553 1.438 . S
C1552 H1614 0.930 . S
C1553 C1539 1.497 . S
C1553 C1552 1.438 . S
C1553 C1554 1.360 . S
C1554 C1553 1.360 . S
C1554 C1555 1.401 . S
C1554 C1559 1.446 . S
C1555 C1554 1.401 . S
C1555 C1556 1.347 . S
C1555 H1615 0.929 . S
C1556 C1555 1.347 . S
C1556 C1557 1.455 . S
C1556 H1616 0.930 . S
C1557 C1544 1.412 . S
C1557 C1556 1.455 . S
C1557 C1558 1.331 . S
C1558 C1547 1.451 . S
C1558 C1557 1.331 . S
C1558 C1559 1.497 . S
C1559 C1550 1.395 . S
C1559 C1554 1.446 . S
C1559 C1558 1.497 . S
C1560 C1561 1.582 . S
C1560 H1617 0.962 . S
C1560 H1618 0.959 . S
C1560 H1619 0.958 . S
C1561 C1560 1.582 . S
C1561 O1564 1.458 . S
C1561 H1590 0.980 . S
O1562 C1507 1.426 . S
O1562 C1508 1.334 . S
O1563 C1535 1.332 1_565 S
O1563 C1536 1.393 . S
O1564 C1526 1.435 . S
O1564 C1561 1.458 . S
O1565 C1517 1.468 . S
O1565 C1518 1.408 . S
H1566 C1507 0.980 . S
H1567 C1506 0.959 . S
H1568 C1506 0.959 . S
H1569 C1506 0.960 . S
H1570 C1509 0.929 . S
H1571 C1513 0.929 . S
H1572 C1514 0.959 . S
H1573 C1514 0.961 . S
H1574 C1514 0.961 . S
H1575 C1515 0.960 . S
H1576 C1515 0.960 . S
H1577 C1515 0.961 . S
H1578 C1517 0.980 1_565 S
H1579 C1516 0.925 1_565 S
H1580 C1516 0.960 . S
H1581 C1516 0.959 . S
H1582 C1519 0.842 1_565 S
H1583 C1523 0.931 . S
H1584 C1524 0.959 . S
H1585 C1524 0.961 . S
H1586 C1524 0.959 . S
H1587 C1525 0.960 . S
H1588 C1525 0.960 . S
H1589 C1525 0.960 . S
H1590 C1561 0.980 . S
H1591 C1527 0.930 1_565 S
H1592 C1531 0.930 . S
H1593 C1532 0.961 . S
H1594 C1532 0.960 . S
H1595 C1532 0.958 . S
H1596 C1533 0.961 . S
H1597 C1533 0.960 . S
H1598 C1533 0.960 . S
H1599 C1535 1.023 . S
H1600 C1534 0.961 . S
H1601 C1534 0.961 . S
H1602 C1534 0.959 . S
H1603 C1537 0.932 . S
H1604 C1541 0.929 . S
H1605 C1542 0.961 . S
H1606 C1542 0.959 . S
H1607 C1542 0.959 . S
H1608 C1543 0.960 . S
H1609 C1543 0.962 . S
H1610 C1543 0.961 . S
H1611 C1545 0.929 . S
H1612 C1548 0.930 . S
H1613 C1549 0.929 . S
H1614 C1552 0.930 . S
H1615 C1555 0.929 . S
H1616 C1556 0.930 . S
H1617 C1560 0.962 . S
H1618 C1560 0.959 . S
H1619 C1560 0.958 . S
C1620 C1621 1.560 . S
C1620 H1681 0.959 . S
C1620 H1682 0.959 . S
C1620 H1683 0.960 . S
C1621 C1620 1.560 . S
C1621 O1676 1.426 . S
C1621 H1680 0.980 1_565 S
C1622 C1623 1.407 1_565 S
C1622 C1627 1.418 . S
C1622 O1676 1.334 . S
C1623 C1622 1.407 1_545 S
C1623 C1624 1.360 . S
C1623 H1684 0.929 . S
C1624 C1623 1.360 . S
C1624 C1625 1.401 . S
C1624 C1628 1.527 . S
C1625 C1624 1.401 . S
C1625 C1626 1.405 1_545 S
C1625 C1658 1.587 . S
C1626 C1625 1.405 1_565 S
C1626 C1627 1.332 . S
C1626 C1629 1.496 . S
C1627 C1622 1.418 . S
C1627 C1626 1.332 . S
C1627 H1685 0.929 . S
C1628 C1624 1.527 . S
C1628 H1686 0.959 . S
C1628 H1687 0.961 . S
C1628 H1688 0.961 . S
C1629 C1626 1.496 . S
C1629 H1689 0.960 . S
C1629 H1690 0.960 . S
C1629 H1691 0.961 . S
C1630 C1631 1.517 . S
C1630 H1693 0.961 . S
C1630 H1694 0.960 . S
C1630 H1695 0.959 . S
C1631 C1630 1.517 . S
C1631 O1679 1.468 . S
C1631 H1692 0.980 . S
C1632 C1633 1.349 . S
C1632 C1637 1.367 . S
C1632 O1679 1.408 . S
C1633 C1632 1.349 . S
C1633 C1634 1.407 . S
C1633 H1696 0.909 1_545 S
C1634 C1633 1.407 . S
C1634 C1635 1.449 . S
C1634 C1638 1.535 1_545 S
C1635 C1634 1.449 . S
C1635 C1636 1.384 . S
C1635 C1660 1.553 . S
C1636 C1635 1.384 . S
C1636 C1637 1.364 . S
C1636 C1639 1.450 . S
C1637 C1632 1.367 . S
C1637 C1636 1.364 . S
C1637 H1697 0.931 . S
C1638 C1634 1.535 1_565 S
C1638 H1698 0.959 . S
C1638 H1699 0.961 . S
C1638 H1700 0.959 . S
C1639 C1636 1.450 . S
C1639 H1701 0.960 . S
C1639 H1702 0.960 . S
C1639 H1703 0.960 . S
C1640 C1641 1.309 1_545 S
C1640 C1645 1.304 . S
C1640 O1678 1.435 . S
C1641 C1640 1.309 1_565 S
C1641 C1642 1.476 . S
C1641 H1705 0.930 . S
C1642 C1641 1.476 . S
C1642 C1643 1.400 1_565 S
C1642 C1646 1.567 . S
C1643 C1642 1.400 1_545 S
C1643 C1644 1.373 . S
C1643 C1665 1.432 . S
C1644 C1643 1.373 . S
C1644 C1645 1.339 . S
C1644 C1647 1.530 . S
C1645 C1640 1.304 . S
C1645 C1644 1.339 . S
C1645 H1706 0.930 . S
C1646 C1642 1.567 . S
C1646 H1707 0.961 . S
C1646 H1708 0.960 . S
C1646 H1709 0.958 . S
C1647 C1644 1.530 . S
C1647 H1710 0.961 . S
C1647 H1711 0.960 . S
C1647 H1712 0.960 . S
C1648 C1649 1.530 . S
C1648 H1714 0.961 . S
C1648 H1715 0.961 . S
C1648 H1716 0.959 . S
C1649 C1648 1.530 . S
C1649 O1677 1.412 . S
C1649 H1713 0.978 1_565 S
C1650 C1651 1.288 . S
C1650 C1655 1.377 1_565 S
C1650 O1677 1.393 . S
C1651 C1650 1.288 . S
C1651 C1652 1.369 . S
C1651 H1717 0.932 . S
C1652 C1651 1.369 . S
C1652 C1653 1.398 . S
C1652 C1656 1.527 . S
C1653 C1652 1.398 . S
C1653 C1654 1.380 1_565 S
C1653 C1667 1.497 1_565 S
C1654 C1653 1.380 1_545 S
C1654 C1655 1.383 . S
C1654 C1657 1.603 . S
C1655 C1650 1.377 1_545 S
C1655 C1654 1.383 . S
C1655 H1718 0.929 . S
C1656 C1652 1.527 . S
C1656 H1719 0.961 . S
C1656 H1720 0.959 . S
C1656 H1721 0.959 . S
C1657 C1654 1.603 . S
C1657 H1722 0.960 . S
C1657 H1723 0.962 . S
C1657 H1724 0.961 . S
C1658 C1625 1.587 . S
C1658 C1659 1.360 . S
C1658 C1671 1.412 . S
C1659 C1658 1.360 . S
C1659 C1660 1.365 . S
C1659 H1725 0.929 . S
C1660 C1635 1.553 . S
C1660 C1659 1.365 . S
C1660 C1661 1.404 . S
C1661 C1660 1.404 . S
C1661 C1662 1.395 . S
C1661 C1672 1.451 . S
C1662 C1661 1.395 . S
C1662 C1663 1.322 . S
C1662 H1726 0.930 . S
C1663 C1662 1.322 . S
C1663 C1664 1.459 . S
C1663 H1727 0.929 . S
C1664 C1663 1.459 . S
C1664 C1665 1.445 . S
C1664 C1673 1.395 . S
C1665 C1643 1.432 . S
C1665 C1664 1.445 . S
C1665 C1666 1.370 . S
C1666 C1665 1.370 . S
C1666 C1667 1.438 . S
C1666 H1728 0.930 . S
C1667 C1653 1.497 1_545 S
C1667 C1666 1.438 . S
C1667 C1668 1.360 . S
C1668 C1667 1.360 . S
C1668 C1669 1.401 . S
C1668 C1673 1.446 . S
C1669 C1668 1.401 . S
C1669 C1670 1.347 . S
C1669 H1729 0.982 . S
C1670 C1669 1.347 . S
C1670 C1671 1.455 . S
C1670 H1730 0.930 . S
C1671 C1658 1.412 . S
C1671 C1670 1.455 . S
C1671 C1672 1.331 . S
C1672 C1661 1.451 . S
C1672 C1671 1.331 . S
C1672 C1673 1.497 . S
C1673 C1664 1.395 . S
C1673 C1668 1.446 . S
C1673 C1672 1.497 . S
C1674 C1675 1.631 . S
C1674 H1731 0.962 . S
C1674 H1732 0.959 . S
C1674 H1733 0.958 . S
C1675 C1674 1.631 . S
C1675 O1678 1.478 . S
C1675 H1704 0.981 1_545 S
O1676 C1621 1.426 . S
O1676 C1622 1.334 . S
O1677 C1649 1.412 . S
O1677 C1650 1.393 . S
O1678 C1640 1.435 . S
O1678 C1675 1.478 . S
O1679 C1631 1.468 . S
O1679 C1632 1.408 . S
H1680 C1621 0.980 1_545 S
H1681 C1620 0.959 . S
H1682 C1620 0.959 . S
H1683 C1620 0.960 . S
H1684 C1623 0.929 . S
H1685 C1627 0.929 . S
H1686 C1628 0.959 . S
H1687 C1628 0.961 . S
H1688 C1628 0.961 . S
H1689 C1629 0.960 . S
H1690 C1629 0.960 . S
H1691 C1629 0.961 . S
H1692 C1631 0.980 . S
H1693 C1630 0.961 . S
H1694 C1630 0.960 . S
H1695 C1630 0.959 . S
H1696 C1633 0.909 1_565 S
H1697 C1637 0.931 . S
H1698 C1638 0.959 . S
H1699 C1638 0.961 . S
H1700 C1638 0.959 . S
H1701 C1639 0.960 . S
H1702 C1639 0.960 . S
H1703 C1639 0.960 . S
H1704 C1675 0.981 1_565 S
H1705 C1641 0.930 . S
H1706 C1645 0.930 . S
H1707 C1646 0.961 . S
H1708 C1646 0.960 . S
H1709 C1646 0.958 . S
H1710 C1647 0.961 . S
H1711 C1647 0.960 . S
H1712 C1647 0.960 . S
H1713 C1649 0.978 1_545 S
H1714 C1648 0.961 . S
H1715 C1648 0.961 . S
H1716 C1648 0.959 . S
H1717 C1651 0.932 . S
H1718 C1655 0.929 . S
H1719 C1656 0.961 . S
H1720 C1656 0.959 . S
H1721 C1656 0.959 . S
H1722 C1657 0.960 . S
H1723 C1657 0.962 . S
H1724 C1657 0.961 . S
H1725 C1659 0.929 . S
H1726 C1662 0.930 . S
H1727 C1663 0.929 . S
H1728 C1666 0.930 . S
H1729 C1669 0.982 . S
H1730 C1670 0.930 . S
H1731 C1674 0.962 . S
H1732 C1674 0.959 . S
H1733 C1674 0.958 . S
C1734 C1735 1.560 . S
C1734 H1795 0.959 . S
C1734 H1796 0.959 . S
C1734 H1797 0.960 . S
C1735 C1734 1.560 . S
C1735 O1790 1.426 . S
C1735 H1794 0.980 1_455 S
C1736 C1737 1.407 1_455 S
C1736 C1741 1.418 . S
C1736 O1790 1.334 . S
C1737 C1736 1.407 1_655 S
C1737 C1738 1.360 . S
C1737 H1798 0.929 . S
C1738 C1737 1.360 . S
C1738 C1739 1.401 . S
C1738 C1742 1.527 . S
C1739 C1738 1.401 . S
C1739 C1740 1.405 1_655 S
C1739 C1772 1.587 . S
C1740 C1739 1.405 1_455 S
C1740 C1741 1.332 . S
C1740 C1743 1.496 . S
C1741 C1736 1.418 . S
C1741 C1740 1.332 . S
C1741 H1799 0.929 . S
C1742 C1738 1.527 . S
C1742 H1800 0.959 . S
C1742 H1801 0.961 . S
C1742 H1802 0.961 . S
C1743 C1740 1.496 . S
C1743 H1803 0.960 . S
C1743 H1804 0.960 . S
C1743 H1805 0.961 . S
C1744 C1745 1.517 . S
C1744 H1807 0.961 . S
C1744 H1808 0.960 . S
C1744 H1809 0.959 . S
C1745 C1744 1.517 . S
C1745 O1793 1.468 . S
C1745 H1806 0.980 . S
C1746 C1747 1.349 . S
C1746 C1751 1.367 . S
C1746 O1793 1.408 . S
C1747 C1746 1.349 . S
C1747 C1748 1.407 . S
C1747 H1810 0.874 1_655 S
C1748 C1747 1.407 . S
C1748 C1749 1.449 . S
C1748 C1752 1.535 1_655 S
C1749 C1748 1.449 . S
C1749 C1750 1.384 . S
C1749 C1774 1.553 . S
C1750 C1749 1.384 . S
C1750 C1751 1.364 . S
C1750 C1753 1.450 . S
C1751 C1746 1.367 . S
C1751 C1750 1.364 . S
C1751 H1811 0.931 . S
C1752 C1748 1.535 1_455 S
C1752 H1812 0.959 . S
C1752 H1813 0.961 . S
C1752 H1814 0.959 . S
C1753 C1750 1.450 . S
C1753 H1815 0.960 . S
C1753 H1816 0.960 . S
C1753 H1817 0.960 . S
C1754 C1755 1.309 1_655 S
C1754 C1759 1.304 . S
C1754 O1792 1.435 . S
C1755 C1754 1.309 1_455 S
C1755 C1756 1.476 . S
C1755 H1819 0.930 . S
C1756 C1755 1.476 . S
C1756 C1757 1.400 1_455 S
C1756 C1760 1.567 . S
C1757 C1756 1.400 1_655 S
C1757 C1758 1.373 . S
C1757 C1779 1.432 . S
C1758 C1757 1.373 . S
C1758 C1759 1.339 . S
C1758 C1761 1.530 . S
C1759 C1754 1.304 . S
C1759 C1758 1.339 . S
C1759 H1820 0.930 . S
C1760 C1756 1.567 . S
C1760 H1821 0.961 . S
C1760 H1822 0.960 . S
C1760 H1823 0.958 . S
C1761 C1758 1.530 . S
C1761 H1824 0.961 . S
C1761 H1825 0.960 . S
C1761 H1826 0.960 . S
C1762 C1763 1.530 . S
C1762 H1828 0.961 . S
C1762 H1829 0.961 . S
C1762 H1830 0.959 . S
C1763 C1762 1.530 . S
C1763 O1791 1.412 . S
C1763 H1827 0.957 1_455 S
C1764 C1765 1.288 . S
C1764 C1769 1.377 1_455 S
C1764 O1791 1.393 . S
C1765 C1764 1.288 . S
C1765 C1766 1.369 . S
C1765 H1831 0.932 . S
C1766 C1765 1.369 . S
C1766 C1767 1.398 . S
C1766 C1770 1.527 . S
C1767 C1766 1.398 . S
C1767 C1768 1.380 1_455 S
C1767 C1781 1.497 1_455 S
C1768 C1767 1.380 1_655 S
C1768 C1769 1.383 . S
C1768 C1771 1.603 . S
C1769 C1764 1.377 1_655 S
C1769 C1768 1.383 . S
C1769 H1832 0.929 . S
C1770 C1766 1.527 . S
C1770 H1833 0.961 . S
C1770 H1834 0.959 . S
C1770 H1835 0.959 . S
C1771 C1768 1.603 . S
C1771 H1836 0.960 . S
C1771 H1837 0.962 . S
C1771 H1838 0.961 . S
C1772 C1739 1.587 . S
C1772 C1773 1.360 . S
C1772 C1785 1.412 . S
C1773 C1772 1.360 . S
C1773 C1774 1.365 . S
C1773 H1839 0.929 . S
C1774 C1749 1.553 . S
C1774 C1773 1.365 . S
C1774 C1775 1.404 . S
C1775 C1774 1.404 . S
C1775 C1776 1.395 . S
C1775 C1786 1.451 . S
C1776 C1775 1.395 . S
C1776 C1777 1.322 . S
C1776 H1840 0.930 . S
C1777 C1776 1.322 . S
C1777 C1778 1.459 . S
C1777 H1841 0.929 . S
C1778 C1777 1.459 . S
C1778 C1779 1.445 . S
C1778 C1787 1.395 . S
C1779 C1757 1.432 . S
C1779 C1778 1.445 . S
C1779 C1780 1.370 . S
C1780 C1779 1.370 . S
C1780 C1781 1.438 . S
C1780 H1842 0.930 . S
C1781 C1767 1.497 1_655 S
C1781 C1780 1.438 . S
C1781 C1782 1.360 . S
C1782 C1781 1.360 . S
C1782 C1783 1.401 . S
C1782 C1787 1.446 . S
C1783 C1782 1.401 . S
C1783 C1784 1.347 . S
C1783 H1843 0.929 . S
C1784 C1783 1.347 . S
C1784 C1785 1.455 . S
C1784 H1844 0.930 . S
C1785 C1772 1.412 . S
C1785 C1784 1.455 . S
C1785 C1786 1.331 . S
C1786 C1775 1.451 . S
C1786 C1785 1.331 . S
C1786 C1787 1.497 . S
C1787 C1778 1.395 . S
C1787 C1782 1.446 . S
C1787 C1786 1.497 . S
C1788 C1789 1.581 1_655 S
C1788 H1845 0.965 . S
C1788 H1846 0.959 . S
C1788 H1847 0.958 . S
C1789 C1788 1.581 1_455 S
C1789 O1792 1.407 1_455 S
C1789 H1818 1.002 . S
O1790 C1735 1.426 . S
O1790 C1736 1.334 . S
O1791 C1763 1.412 . S
O1791 C1764 1.393 . S
O1792 C1754 1.435 . S
O1792 C1789 1.407 1_655 S
O1793 C1745 1.468 . S
O1793 C1746 1.408 . S
H1794 C1735 0.980 1_655 S
H1795 C1734 0.959 . S
H1796 C1734 0.959 . S
H1797 C1734 0.960 . S
H1798 C1737 0.929 . S
H1799 C1741 0.929 . S
H1800 C1742 0.959 . S
H1801 C1742 0.961 . S
H1802 C1742 0.961 . S
H1803 C1743 0.960 . S
H1804 C1743 0.960 . S
H1805 C1743 0.961 . S
H1806 C1745 0.980 . S
H1807 C1744 0.961 . S
H1808 C1744 0.960 . S
H1809 C1744 0.959 . S
H1810 C1747 0.874 1_455 S
H1811 C1751 0.931 . S
H1812 C1752 0.959 . S
H1813 C1752 0.961 . S
H1814 C1752 0.959 . S
H1815 C1753 0.960 . S
H1816 C1753 0.960 . S
H1817 C1753 0.960 . S
H1818 C1789 1.002 . S
H1819 C1755 0.930 . S
H1820 C1759 0.930 . S
H1821 C1760 0.961 . S
H1822 C1760 0.960 . S
H1823 C1760 0.958 . S
H1824 C1761 0.961 . S
H1825 C1761 0.960 . S
H1826 C1761 0.960 . S
H1827 C1763 0.957 1_655 S
H1828 C1762 0.961 . S
H1829 C1762 0.961 . S
H1830 C1762 0.959 . S
H1831 C1765 0.932 . S
H1832 C1769 0.929 . S
H1833 C1770 0.961 . S
H1834 C1770 0.959 . S
H1835 C1770 0.959 . S
H1836 C1771 0.960 . S
H1837 C1771 0.962 . S
H1838 C1771 0.961 . S
H1839 C1773 0.929 . S
H1840 C1776 0.930 . S
H1841 C1777 0.929 . S
H1842 C1780 0.930 . S
H1843 C1783 0.929 . S
H1844 C1784 0.930 . S
H1845 C1788 0.965 . S
H1846 C1788 0.959 . S
H1847 C1788 0.958 . S
C1848 C1849 1.560 . S
C1848 H1909 0.959 . S
C1848 H1910 0.959 . S
C1848 H1911 0.960 . S
C1849 C1848 1.560 . S
C1849 O1904 1.426 . S
C1849 H1908 0.980 . S
C1850 C1851 1.407 . S
C1850 C1855 1.418 . S
C1850 O1904 1.334 . S
C1851 C1850 1.407 . S
C1851 C1852 1.360 . S
C1851 H1912 0.929 . S
C1852 C1851 1.360 . S
C1852 C1853 1.401 . S
C1852 C1856 1.527 . S
C1853 C1852 1.401 . S
C1853 C1854 1.405 . S
C1853 C1886 1.587 . S
C1854 C1853 1.405 . S
C1854 C1855 1.332 . S
C1854 C1857 1.496 . S
C1855 C1850 1.418 . S
C1855 C1854 1.332 . S
C1855 H1913 0.929 . S
C1856 C1852 1.527 . S
C1856 H1914 0.959 . S
C1856 H1915 0.961 . S
C1856 H1916 0.961 . S
C1857 C1854 1.496 . S
C1857 H1917 0.960 . S
C1857 H1918 0.960 . S
C1857 H1919 0.961 . S
C1858 C1859 1.517 . S
C1858 H1921 0.961 . S
C1858 H1922 0.960 . S
C1858 H1923 0.959 . S
C1859 C1858 1.517 . S
C1859 O1907 1.468 . S
C1859 H1920 0.980 . S
C1860 C1861 1.349 . S
C1860 C1865 1.367 . S
C1860 O1907 1.408 . S
C1861 C1860 1.349 . S
C1861 C1862 1.407 . S
C1861 H1924 0.930 . S
C1862 C1861 1.407 . S
C1862 C1863 1.449 . S
C1862 C1866 1.535 . S
C1863 C1862 1.449 . S
C1863 C1864 1.384 . S
C1863 C1888 1.553 . S
C1864 C1863 1.384 . S
C1864 C1865 1.364 . S
C1864 C1867 1.450 . S
C1865 C1860 1.367 . S
C1865 C1864 1.364 . S
C1865 H1925 0.931 . S
C1866 C1862 1.535 . S
C1866 H1926 0.959 . S
C1866 H1927 0.961 . S
C1866 H1928 0.959 . S
C1867 C1864 1.450 . S
C1867 H1929 0.960 . S
C1867 H1930 0.960 . S
C1867 H1931 0.960 . S
C1868 C1869 1.309 . S
C1868 C1873 1.304 . S
C1868 O1906 1.435 . S
C1869 C1868 1.309 . S
C1869 C1870 1.476 . S
C1869 H1933 0.930 . S
C1870 C1869 1.476 . S
C1870 C1871 1.400 . S
C1870 C1874 1.567 . S
C1871 C1870 1.400 . S
C1871 C1872 1.373 . S
C1871 C1893 1.432 . S
C1872 C1871 1.373 . S
C1872 C1873 1.339 . S
C1872 C1875 1.530 . S
C1873 C1868 1.304 . S
C1873 C1872 1.339 . S
C1873 H1934 0.930 . S
C1874 C1870 1.567 . S
C1874 H1935 0.961 . S
C1874 H1936 0.960 . S
C1874 H1937 0.958 . S
C1875 C1872 1.530 . S
C1875 H1938 0.961 . S
C1875 H1939 0.960 . S
C1875 H1940 0.960 . S
C1876 C1877 1.530 . S
C1876 H1942 0.961 . S
C1876 H1943 0.961 . S
C1876 H1944 0.959 . S
C1877 C1876 1.530 . S
C1877 O1905 1.412 . S
C1877 H1941 0.980 . S
C1878 C1879 1.288 . S
C1878 C1883 1.377 . S
C1878 O1905 1.393 . S
C1879 C1878 1.288 . S
C1879 C1880 1.369 . S
C1879 H1945 0.932 . S
C1880 C1879 1.369 . S
C1880 C1881 1.398 . S
C1880 C1884 1.527 . S
C1881 C1880 1.398 . S
C1881 C1882 1.380 . S
C1881 C1895 1.497 . S
C1882 C1881 1.380 . S
C1882 C1883 1.383 . S
C1882 C1885 1.603 . S
C1883 C1878 1.377 . S
C1883 C1882 1.383 . S
C1883 H1946 0.929 . S
C1884 C1880 1.527 . S
C1884 H1947 0.961 . S
C1884 H1948 0.959 . S
C1884 H1949 0.959 . S
C1885 C1882 1.603 . S
C1885 H1950 0.960 . S
C1885 H1951 0.962 . S
C1885 H1952 0.961 . S
C1886 C1853 1.587 . S
C1886 C1887 1.360 . S
C1886 C1899 1.412 . S
C1887 C1886 1.360 . S
C1887 C1888 1.365 . S
C1887 H1953 0.929 . S
C1888 C1863 1.553 . S
C1888 C1887 1.365 . S
C1888 C1889 1.404 . S
C1889 C1888 1.404 . S
C1889 C1890 1.395 . S
C1889 C1900 1.451 . S
C1890 C1889 1.395 . S
C1890 C1891 1.322 . S
C1890 H1954 0.930 . S
C1891 C1890 1.322 . S
C1891 C1892 1.459 . S
C1891 H1955 0.929 . S
C1892 C1891 1.459 . S
C1892 C1893 1.445 . S
C1892 C1901 1.395 . S
C1893 C1871 1.432 . S
C1893 C1892 1.445 . S
C1893 C1894 1.370 . S
C1894 C1893 1.370 . S
C1894 C1895 1.438 . S
C1894 H1956 0.930 . S
C1895 C1881 1.497 . S
C1895 C1894 1.438 . S
C1895 C1896 1.360 . S
C1896 C1895 1.360 . S
C1896 C1897 1.401 . S
C1896 C1901 1.446 . S
C1897 C1896 1.401 . S
C1897 C1898 1.347 . S
C1897 H1957 0.929 . S
C1898 C1897 1.347 . S
C1898 C1899 1.455 . S
C1898 H1958 0.930 . S
C1899 C1886 1.412 . S
C1899 C1898 1.455 . S
C1899 C1900 1.331 . S
C1900 C1889 1.451 . S
C1900 C1899 1.331 . S
C1900 C1901 1.497 . S
C1901 C1892 1.395 . S
C1901 C1896 1.446 . S
C1901 C1900 1.497 . S
C1902 C1903 1.582 . S
C1902 H1959 0.962 . S
C1902 H1960 0.959 . S
C1902 H1961 0.958 . S
C1903 C1902 1.582 . S
C1903 O1906 1.458 . S
C1903 H1932 0.980 . S
O1904 C1849 1.426 . S
O1904 C1850 1.334 . S
O1905 C1877 1.412 . S
O1905 C1878 1.393 . S
O1906 C1868 1.435 . S
O1906 C1903 1.458 . S
O1907 C1859 1.468 . S
O1907 C1860 1.408 . S
H1908 C1849 0.980 . S
H1909 C1848 0.959 . S
H1910 C1848 0.959 . S
H1911 C1848 0.960 . S
H1912 C1851 0.929 . S
H1913 C1855 0.929 . S
H1914 C1856 0.959 . S
H1915 C1856 0.961 . S
H1916 C1856 0.961 . S
H1917 C1857 0.960 . S
H1918 C1857 0.960 . S
H1919 C1857 0.961 . S
H1920 C1859 0.980 . S
H1921 C1858 0.961 . S
H1922 C1858 0.960 . S
H1923 C1858 0.959 . S
H1924 C1861 0.930 . S
H1925 C1865 0.931 . S
H1926 C1866 0.959 . S
H1927 C1866 0.961 . S
H1928 C1866 0.959 . S
H1929 C1867 0.960 . S
H1930 C1867 0.960 . S
H1931 C1867 0.960 . S
H1932 C1903 0.980 . S
H1933 C1869 0.930 . S
H1934 C1873 0.930 . S
H1935 C1874 0.961 . S
H1936 C1874 0.960 . S
H1937 C1874 0.958 . S
H1938 C1875 0.961 . S
H1939 C1875 0.960 . S
H1940 C1875 0.960 . S
H1941 C1877 0.980 . S
H1942 C1876 0.961 . S
H1943 C1876 0.961 . S
H1944 C1876 0.959 . S
H1945 C1879 0.932 . S
H1946 C1883 0.929 . S
H1947 C1884 0.961 . S
H1948 C1884 0.959 . S
H1949 C1884 0.959 . S
H1950 C1885 0.960 . S
H1951 C1885 0.962 . S
H1952 C1885 0.961 . S
H1953 C1887 0.929 . S
H1954 C1890 0.930 . S
H1955 C1891 0.929 . S
H1956 C1894 0.930 . S
H1957 C1897 0.929 . S
H1958 C1898 0.930 . S
H1959 C1902 0.962 . S
H1960 C1902 0.959 . S
H1961 C1902 0.958 . S
C1962 C1963 1.560 . S
C1962 H2023 0.959 . S
C1962 H2024 0.959 . S
C1962 H2025 0.960 . S
C1963 C1962 1.560 . S
C1963 O2018 1.426 . S
C1963 H2022 0.980 . S
C1964 C1965 1.407 . S
C1964 C1969 1.418 . S
C1964 O2018 1.334 . S
C1965 C1964 1.407 . S
C1965 C1966 1.360 . S
C1965 H2026 0.929 . S
C1966 C1965 1.360 . S
C1966 C1967 1.401 . S
C1966 C1970 1.527 . S
C1967 C1966 1.401 . S
C1967 C1968 1.405 . S
C1967 C2000 1.587 . S
C1968 C1967 1.405 . S
C1968 C1969 1.332 . S
C1968 C1971 1.496 . S
C1969 C1964 1.418 . S
C1969 C1968 1.332 . S
C1969 H2027 0.929 . S
C1970 C1966 1.527 . S
C1970 H2028 0.959 . S
C1970 H2029 0.961 . S
C1970 H2030 0.961 . S
C1971 C1968 1.496 . S
C1971 H2031 0.960 . S
C1971 H2032 0.960 . S
C1971 H2033 0.961 . S
C1972 C1973 1.517 . S
C1972 H2035 0.961 . S
C1972 H2036 0.960 . S
C1972 H2037 0.959 . S
C1973 C1972 1.517 . S
C1973 O2021 1.468 . S
C1973 H2034 0.980 . S
C1974 C1975 1.349 . S
C1974 C1979 1.367 . S
C1974 O2021 1.408 . S
C1975 C1974 1.349 . S
C1975 C1976 1.407 . S
C1975 H2038 0.930 . S
C1976 C1975 1.407 . S
C1976 C1977 1.449 . S
C1976 C1980 1.535 . S
C1977 C1976 1.449 . S
C1977 C1978 1.384 . S
C1977 C2002 1.553 . S
C1978 C1977 1.384 . S
C1978 C1979 1.364 . S
C1978 C1981 1.450 . S
C1979 C1974 1.367 . S
C1979 C1978 1.364 . S
C1979 H2039 0.931 . S
C1980 C1976 1.535 . S
C1980 H2040 0.959 . S
C1980 H2041 0.961 . S
C1980 H2042 0.959 . S
C1981 C1978 1.450 . S
C1981 H2043 0.960 . S
C1981 H2044 0.960 . S
C1981 H2045 0.960 . S
C1982 C1983 1.309 . S
C1982 C1987 1.304 . S
C1982 O2020 1.435 . S
C1983 C1982 1.309 . S
C1983 C1984 1.476 . S
C1983 H2047 0.930 . S
C1984 C1983 1.476 . S
C1984 C1985 1.400 . S
C1984 C1988 1.567 . S
C1985 C1984 1.400 . S
C1985 C1986 1.373 . S
C1985 C2007 1.432 . S
C1986 C1985 1.373 . S
C1986 C1987 1.339 . S
C1986 C1989 1.530 . S
C1987 C1982 1.304 . S
C1987 C1986 1.339 . S
C1987 H2048 0.930 . S
C1988 C1984 1.567 . S
C1988 H2049 0.961 . S
C1988 H2050 0.960 . S
C1988 H2051 0.958 . S
C1989 C1986 1.530 . S
C1989 H2052 0.961 . S
C1989 H2053 0.960 . S
C1989 H2054 0.960 . S
C1990 C1991 1.530 . S
C1990 H2056 0.961 . S
C1990 H2057 0.961 . S
C1990 H2058 0.959 . S
C1991 C1990 1.530 . S
C1991 O2019 1.412 . S
C1991 H2055 0.980 . S
C1992 C1993 1.288 . S
C1992 C1997 1.377 . S
C1992 O2019 1.393 . S
C1993 C1992 1.288 . S
C1993 C1994 1.369 . S
C1993 H2059 0.932 . S
C1994 C1993 1.369 . S
C1994 C1995 1.398 . S
C1994 C1998 1.527 . S
C1995 C1994 1.398 . S
C1995 C1996 1.380 . S
C1995 C2009 1.497 . S
C1996 C1995 1.380 . S
C1996 C1997 1.383 . S
C1996 C1999 1.603 . S
C1997 C1992 1.377 . S
C1997 C1996 1.383 . S
C1997 H2060 0.929 . S
C1998 C1994 1.527 . S
C1998 H2061 0.961 . S
C1998 H2062 0.959 . S
C1998 H2063 0.959 . S
C1999 C1996 1.603 . S
C1999 H2064 0.960 . S
C1999 H2065 0.962 . S
C1999 H2066 0.961 . S
C2000 C1967 1.587 . S
C2000 C2001 1.360 . S
C2000 C2013 1.412 . S
C2001 C2000 1.360 . S
C2001 C2002 1.365 . S
C2001 H2067 0.929 . S
C2002 C1977 1.553 . S
C2002 C2001 1.365 . S
C2002 C2003 1.404 . S
C2003 C2002 1.404 . S
C2003 C2004 1.395 . S
C2003 C2014 1.451 . S
C2004 C2003 1.395 . S
C2004 C2005 1.322 . S
C2004 H2068 0.930 . S
C2005 C2004 1.322 . S
C2005 C2006 1.459 . S
C2005 H2069 0.929 . S
C2006 C2005 1.459 . S
C2006 C2007 1.445 . S
C2006 C2015 1.395 . S
C2007 C1985 1.432 . S
C2007 C2006 1.445 . S
C2007 C2008 1.370 . S
C2008 C2007 1.370 . S
C2008 C2009 1.438 . S
C2008 H2070 0.930 . S
C2009 C1995 1.497 . S
C2009 C2008 1.438 . S
C2009 C2010 1.360 . S
C2010 C2009 1.360 . S
C2010 C2011 1.401 . S
C2010 C2015 1.446 . S
C2011 C2010 1.401 . S
C2011 C2012 1.347 . S
C2011 H2071 0.929 . S
C2012 C2011 1.347 . S
C2012 C2013 1.455 . S
C2012 H2072 0.930 . S
C2013 C2000 1.412 . S
C2013 C2012 1.455 . S
C2013 C2014 1.331 . S
C2014 C2003 1.451 . S
C2014 C2013 1.331 . S
C2014 C2015 1.497 . S
C2015 C2006 1.395 . S
C2015 C2010 1.446 . S
C2015 C2014 1.497 . S
C2016 C2017 1.582 . S
C2016 H2073 0.962 . S
C2016 H2074 0.959 . S
C2016 H2075 0.958 . S
C2017 C2016 1.582 . S
C2017 O2020 1.458 . S
C2017 H2046 0.980 . S
O2018 C1963 1.426 . S
O2018 C1964 1.334 . S
O2019 C1991 1.412 . S
O2019 C1992 1.393 . S
O2020 C1982 1.435 . S
O2020 C2017 1.458 . S
O2021 C1973 1.468 . S
O2021 C1974 1.408 . S
H2022 C1963 0.980 . S
H2023 C1962 0.959 . S
H2024 C1962 0.959 . S
H2025 C1962 0.960 . S
H2026 C1965 0.929 . S
H2027 C1969 0.929 . S
H2028 C1970 0.959 . S
H2029 C1970 0.961 . S
H2030 C1970 0.961 . S
H2031 C1971 0.960 . S
H2032 C1971 0.960 . S
H2033 C1971 0.961 . S
H2034 C1973 0.980 . S
H2035 C1972 0.961 . S
H2036 C1972 0.960 . S
H2037 C1972 0.959 . S
H2038 C1975 0.930 . S
H2039 C1979 0.931 . S
H2040 C1980 0.959 . S
H2041 C1980 0.961 . S
H2042 C1980 0.959 . S
H2043 C1981 0.960 . S
H2044 C1981 0.960 . S
H2045 C1981 0.960 . S
H2046 C2017 0.980 . S
H2047 C1983 0.930 . S
H2048 C1987 0.930 . S
H2049 C1988 0.961 . S
H2050 C1988 0.960 . S
H2051 C1988 0.958 . S
H2052 C1989 0.961 . S
H2053 C1989 0.960 . S
H2054 C1989 0.960 . S
H2055 C1991 0.980 . S
H2056 C1990 0.961 . S
H2057 C1990 0.961 . S
H2058 C1990 0.959 . S
H2059 C1993 0.932 . S
H2060 C1997 0.929 . S
H2061 C1998 0.961 . S
H2062 C1998 0.959 . S
H2063 C1998 0.959 . S
H2064 C1999 0.960 . S
H2065 C1999 0.962 . S
H2066 C1999 0.961 . S
H2067 C2001 0.929 . S
H2068 C2004 0.930 . S
H2069 C2005 0.929 . S
H2070 C2008 0.930 . S
H2071 C2011 0.929 . S
H2072 C2012 0.930 . S
H2073 C2016 0.962 . S
H2074 C2016 0.959 . S
H2075 C2016 0.958 . S
C2076 C2077 1.560 . S
C2076 H2137 0.959 . S
C2076 H2138 0.959 . S
C2076 H2139 0.960 . S
C2077 C2076 1.560 . S
C2077 O2132 1.426 . S
C2077 H2136 0.980 . S
C2078 C2079 1.407 . S
C2078 C2083 1.418 . S
C2078 O2132 1.334 . S
C2079 C2078 1.407 . S
C2079 C2080 1.360 . S
C2079 H2140 0.929 . S
C2080 C2079 1.360 . S
C2080 C2081 1.401 . S
C2080 C2084 1.527 . S
C2081 C2080 1.401 . S
C2081 C2082 1.405 . S
C2081 C2114 1.587 . S
C2082 C2081 1.405 . S
C2082 C2083 1.332 . S
C2082 C2085 1.496 . S
C2083 C2078 1.418 . S
C2083 C2082 1.332 . S
C2083 H2141 0.929 . S
C2084 C2080 1.527 . S
C2084 H2142 0.959 . S
C2084 H2143 0.961 . S
C2084 H2144 0.961 . S
C2085 C2082 1.496 . S
C2085 H2145 0.960 . S
C2085 H2146 0.960 . S
C2085 H2147 0.961 . S
C2086 C2087 1.517 . S
C2086 H2149 0.961 . S
C2086 H2150 0.960 . S
C2086 H2151 0.959 . S
C2087 C2086 1.517 . S
C2087 O2135 1.468 . S
C2087 H2148 0.980 . S
C2088 C2089 1.349 . S
C2088 C2093 1.367 . S
C2088 O2135 1.408 . S
C2089 C2088 1.349 . S
C2089 C2090 1.407 . S
C2089 H2152 0.930 . S
C2090 C2089 1.407 . S
C2090 C2091 1.449 . S
C2090 C2094 1.535 . S
C2091 C2090 1.449 . S
C2091 C2092 1.384 . S
C2091 C2116 1.553 . S
C2092 C2091 1.384 . S
C2092 C2093 1.364 . S
C2092 C2095 1.450 . S
C2093 C2088 1.367 . S
C2093 C2092 1.364 . S
C2093 H2153 0.931 . S
C2094 C2090 1.535 . S
C2094 H2154 0.959 . S
C2094 H2155 0.961 . S
C2094 H2156 0.959 . S
C2095 C2092 1.450 . S
C2095 H2157 0.960 . S
C2095 H2158 0.960 . S
C2095 H2159 0.960 . S
C2096 C2097 1.309 . S
C2096 C2101 1.304 . S
C2096 O2134 1.435 . S
C2097 C2096 1.309 . S
C2097 C2098 1.476 . S
C2097 H2161 0.930 . S
C2098 C2097 1.476 . S
C2098 C2099 1.400 . S
C2098 C2102 1.567 . S
C2099 C2098 1.400 . S
C2099 C2100 1.373 . S
C2099 C2121 1.432 . S
C2100 C2099 1.373 . S
C2100 C2101 1.339 . S
C2100 C2103 1.530 . S
C2101 C2096 1.304 . S
C2101 C2100 1.339 . S
C2101 H2162 0.930 . S
C2102 C2098 1.567 . S
C2102 H2163 0.961 . S
C2102 H2164 0.960 . S
C2102 H2165 0.958 . S
C2103 C2100 1.530 . S
C2103 H2166 0.961 . S
C2103 H2167 0.960 . S
C2103 H2168 0.960 . S
C2104 C2105 1.530 . S
C2104 H2170 0.961 . S
C2104 H2171 0.961 . S
C2104 H2172 0.959 . S
C2105 C2104 1.530 . S
C2105 O2133 1.412 . S
C2105 H2169 0.980 . S
C2106 C2107 1.288 . S
C2106 C2111 1.377 . S
C2106 O2133 1.393 . S
C2107 C2106 1.288 . S
C2107 C2108 1.369 . S
C2107 H2173 0.932 . S
C2108 C2107 1.369 . S
C2108 C2109 1.398 . S
C2108 C2112 1.527 . S
C2109 C2108 1.398 . S
C2109 C2110 1.380 . S
C2109 C2123 1.497 . S
C2110 C2109 1.380 . S
C2110 C2111 1.383 . S
C2110 C2113 1.603 . S
C2111 C2106 1.377 . S
C2111 C2110 1.383 . S
C2111 H2174 0.929 . S
C2112 C2108 1.527 . S
C2112 H2175 0.961 . S
C2112 H2176 0.959 . S
C2112 H2177 0.959 . S
C2113 C2110 1.603 . S
C2113 H2178 0.960 . S
C2113 H2179 0.962 . S
C2113 H2180 0.961 . S
C2114 C2081 1.587 . S
C2114 C2115 1.360 . S
C2114 C2127 1.412 . S
C2115 C2114 1.360 . S
C2115 C2116 1.365 . S
C2115 H2181 0.929 . S
C2116 C2091 1.553 . S
C2116 C2115 1.365 . S
C2116 C2117 1.404 . S
C2117 C2116 1.404 . S
C2117 C2118 1.395 . S
C2117 C2128 1.451 . S
C2118 C2117 1.395 . S
C2118 C2119 1.322 . S
C2118 H2182 0.930 . S
C2119 C2118 1.322 . S
C2119 C2120 1.459 . S
C2119 H2183 0.929 . S
C2120 C2119 1.459 . S
C2120 C2121 1.445 . S
C2120 C2129 1.395 . S
C2121 C2099 1.432 . S
C2121 C2120 1.445 . S
C2121 C2122 1.370 . S
C2122 C2121 1.370 . S
C2122 C2123 1.438 . S
C2122 H2184 0.930 . S
C2123 C2109 1.497 . S
C2123 C2122 1.438 . S
C2123 C2124 1.360 . S
C2124 C2123 1.360 . S
C2124 C2125 1.401 . S
C2124 C2129 1.446 . S
C2125 C2124 1.401 . S
C2125 C2126 1.347 . S
C2125 H2185 0.929 . S
C2126 C2125 1.347 . S
C2126 C2127 1.455 . S
C2126 H2186 0.930 . S
C2127 C2114 1.412 . S
C2127 C2126 1.455 . S
C2127 C2128 1.331 . S
C2128 C2117 1.451 . S
C2128 C2127 1.331 . S
C2128 C2129 1.497 . S
C2129 C2120 1.395 . S
C2129 C2124 1.446 . S
C2129 C2128 1.497 . S
C2130 C2131 1.582 . S
C2130 H2187 0.962 . S
C2130 H2188 0.959 . S
C2130 H2189 0.958 . S
C2131 C2130 1.582 . S
C2131 O2134 1.458 . S
C2131 H2160 0.980 . S
O2132 C2077 1.426 . S
O2132 C2078 1.334 . S
O2133 C2105 1.412 . S
O2133 C2106 1.393 . S
O2134 C2096 1.435 . S
O2134 C2131 1.458 . S
O2135 C2087 1.468 . S
O2135 C2088 1.408 . S
H2136 C2077 0.980 . S
H2137 C2076 0.959 . S
H2138 C2076 0.959 . S
H2139 C2076 0.960 . S
H2140 C2079 0.929 . S
H2141 C2083 0.929 . S
H2142 C2084 0.959 . S
H2143 C2084 0.961 . S
H2144 C2084 0.961 . S
H2145 C2085 0.960 . S
H2146 C2085 0.960 . S
H2147 C2085 0.961 . S
H2148 C2087 0.980 . S
H2149 C2086 0.961 . S
H2150 C2086 0.960 . S
H2151 C2086 0.959 . S
H2152 C2089 0.930 . S
H2153 C2093 0.931 . S
H2154 C2094 0.959 . S
H2155 C2094 0.961 . S
H2156 C2094 0.959 . S
H2157 C2095 0.960 . S
H2158 C2095 0.960 . S
H2159 C2095 0.960 . S
H2160 C2131 0.980 . S
H2161 C2097 0.930 . S
H2162 C2101 0.930 . S
H2163 C2102 0.961 . S
H2164 C2102 0.960 . S
H2165 C2102 0.958 . S
H2166 C2103 0.961 . S
H2167 C2103 0.960 . S
H2168 C2103 0.960 . S
H2169 C2105 0.980 . S
H2170 C2104 0.961 . S
H2171 C2104 0.961 . S
H2172 C2104 0.959 . S
H2173 C2107 0.932 . S
H2174 C2111 0.929 . S
H2175 C2112 0.961 . S
H2176 C2112 0.959 . S
H2177 C2112 0.959 . S
H2178 C2113 0.960 . S
H2179 C2113 0.962 . S
H2180 C2113 0.961 . S
H2181 C2115 0.929 . S
H2182 C2118 0.930 . S
H2183 C2119 0.929 . S
H2184 C2122 0.930 . S
H2185 C2125 0.929 . S
H2186 C2126 0.930 . S
H2187 C2130 0.962 . S
H2188 C2130 0.959 . S
H2189 C2130 0.958 . S
C2190 C2191 1.560 . S
C2190 H2251 0.959 . S
C2190 H2252 0.959 . S
C2190 H2253 0.960 . S
C2191 C2190 1.560 . S
C2191 O2246 1.426 . S
C2191 H2250 0.980 . S
C2192 C2193 1.407 . S
C2192 C2197 1.418 . S
C2192 O2246 1.334 . S
C2193 C2192 1.407 . S
C2193 C2194 1.360 . S
C2193 H2254 0.929 . S
C2194 C2193 1.360 . S
C2194 C2195 1.401 . S
C2194 C2198 1.527 . S
C2195 C2194 1.401 . S
C2195 C2196 1.405 . S
C2195 C2228 1.587 . S
C2196 C2195 1.405 . S
C2196 C2197 1.332 . S
C2196 C2199 1.496 . S
C2197 C2192 1.418 . S
C2197 C2196 1.332 . S
C2197 H2255 0.929 . S
C2198 C2194 1.527 . S
C2198 H2256 0.959 . S
C2198 H2257 0.961 . S
C2198 H2258 0.961 . S
C2199 C2196 1.496 . S
C2199 H2259 0.960 . S
C2199 H2260 0.960 . S
C2199 H2261 0.961 . S
C2200 C2201 1.517 . S
C2200 H2263 0.961 . S
C2200 H2264 0.960 . S
C2200 H2265 0.959 . S
C2201 C2200 1.517 . S
C2201 O2249 1.468 . S
C2201 H2262 0.980 . S
C2202 C2203 1.349 . S
C2202 C2207 1.367 . S
C2202 O2249 1.408 . S
C2203 C2202 1.349 . S
C2203 C2204 1.407 . S
C2203 H2266 0.930 . S
C2204 C2203 1.407 . S
C2204 C2205 1.449 . S
C2204 C2208 1.535 . S
C2205 C2204 1.449 . S
C2205 C2206 1.384 . S
C2205 C2230 1.553 . S
C2206 C2205 1.384 . S
C2206 C2207 1.364 . S
C2206 C2209 1.450 . S
C2207 C2202 1.367 . S
C2207 C2206 1.364 . S
C2207 H2267 0.931 . S
C2208 C2204 1.535 . S
C2208 H2268 0.959 . S
C2208 H2269 0.961 . S
C2208 H2270 0.959 . S
C2209 C2206 1.450 . S
C2209 H2271 0.960 . S
C2209 H2272 0.960 . S
C2209 H2273 0.960 . S
C2210 C2211 1.309 . S
C2210 C2215 1.304 . S
C2210 O2248 1.435 . S
C2211 C2210 1.309 . S
C2211 C2212 1.476 . S
C2211 H2275 0.930 . S
C2212 C2211 1.476 . S
C2212 C2213 1.400 . S
C2212 C2216 1.567 . S
C2213 C2212 1.400 . S
C2213 C2214 1.373 . S
C2213 C2235 1.432 . S
C2214 C2213 1.373 . S
C2214 C2215 1.339 . S
C2214 C2217 1.530 . S
C2215 C2210 1.304 . S
C2215 C2214 1.339 . S
C2215 H2276 0.930 . S
C2216 C2212 1.567 . S
C2216 H2277 0.961 . S
C2216 H2278 0.960 . S
C2216 H2279 0.958 . S
C2217 C2214 1.530 . S
C2217 H2280 0.961 . S
C2217 H2281 0.960 . S
C2217 H2282 0.960 . S
C2218 C2219 1.530 . S
C2218 H2284 0.961 . S
C2218 H2285 0.961 . S
C2218 H2286 0.959 . S
C2219 C2218 1.530 . S
C2219 O2247 1.412 . S
C2219 H2283 0.980 . S
C2220 C2221 1.288 . S
C2220 C2225 1.377 . S
C2220 O2247 1.393 . S
C2221 C2220 1.288 . S
C2221 C2222 1.369 . S
C2221 H2287 0.932 . S
C2222 C2221 1.369 . S
C2222 C2223 1.398 . S
C2222 C2226 1.527 . S
C2223 C2222 1.398 . S
C2223 C2224 1.380 . S
C2223 C2237 1.497 . S
C2224 C2223 1.380 . S
C2224 C2225 1.383 . S
C2224 C2227 1.603 . S
C2225 C2220 1.377 . S
C2225 C2224 1.383 . S
C2225 H2288 0.929 . S
C2226 C2222 1.527 . S
C2226 H2289 0.961 . S
C2226 H2290 0.959 . S
C2226 H2291 0.959 . S
C2227 C2224 1.603 . S
C2227 H2292 0.960 . S
C2227 H2293 0.962 . S
C2227 H2294 0.961 . S
C2228 C2195 1.587 . S
C2228 C2229 1.360 . S
C2228 C2241 1.412 . S
C2229 C2228 1.360 . S
C2229 C2230 1.365 . S
C2229 H2295 0.929 . S
C2230 C2205 1.553 . S
C2230 C2229 1.365 . S
C2230 C2231 1.404 . S
C2231 C2230 1.404 . S
C2231 C2232 1.395 . S
C2231 C2242 1.451 . S
C2232 C2231 1.395 . S
C2232 C2233 1.322 . S
C2232 H2296 0.930 . S
C2233 C2232 1.322 . S
C2233 C2234 1.459 . S
C2233 H2297 0.929 . S
C2234 C2233 1.459 . S
C2234 C2235 1.445 . S
C2234 C2243 1.395 . S
C2235 C2213 1.432 . S
C2235 C2234 1.445 . S
C2235 C2236 1.370 . S
C2236 C2235 1.370 . S
C2236 C2237 1.438 . S
C2236 H2298 0.930 . S
C2237 C2223 1.497 . S
C2237 C2236 1.438 . S
C2237 C2238 1.360 . S
C2238 C2237 1.360 . S
C2238 C2239 1.401 . S
C2238 C2243 1.446 . S
C2239 C2238 1.401 . S
C2239 C2240 1.347 . S
C2239 H2299 0.929 . S
C2240 C2239 1.347 . S
C2240 C2241 1.455 . S
C2240 H2300 0.930 . S
C2241 C2228 1.412 . S
C2241 C2240 1.455 . S
C2241 C2242 1.331 . S
C2242 C2231 1.451 . S
C2242 C2241 1.331 . S
C2242 C2243 1.497 . S
C2243 C2234 1.395 . S
C2243 C2238 1.446 . S
C2243 C2242 1.497 . S
C2244 C2245 1.582 . S
C2244 H2301 0.962 . S
C2244 H2302 0.959 . S
C2244 H2303 0.958 . S
C2245 C2244 1.582 . S
C2245 O2248 1.458 . S
C2245 H2274 0.980 . S
O2246 C2191 1.426 . S
O2246 C2192 1.334 . S
O2247 C2219 1.412 . S
O2247 C2220 1.393 . S
O2248 C2210 1.435 . S
O2248 C2245 1.458 . S
O2249 C2201 1.468 . S
O2249 C2202 1.408 . S
H2250 C2191 0.980 . S
H2251 C2190 0.959 . S
H2252 C2190 0.959 . S
H2253 C2190 0.960 . S
H2254 C2193 0.929 . S
H2255 C2197 0.929 . S
H2256 C2198 0.959 . S
H2257 C2198 0.961 . S
H2258 C2198 0.961 . S
H2259 C2199 0.960 . S
H2260 C2199 0.960 . S
H2261 C2199 0.961 . S
H2262 C2201 0.980 . S
H2263 C2200 0.961 . S
H2264 C2200 0.960 . S
H2265 C2200 0.959 . S
H2266 C2203 0.930 . S
H2267 C2207 0.931 . S
H2268 C2208 0.959 . S
H2269 C2208 0.961 . S
H2270 C2208 0.959 . S
H2271 C2209 0.960 . S
H2272 C2209 0.960 . S
H2273 C2209 0.960 . S
H2274 C2245 0.980 . S
H2275 C2211 0.930 . S
H2276 C2215 0.930 . S
H2277 C2216 0.961 . S
H2278 C2216 0.960 . S
H2279 C2216 0.958 . S
H2280 C2217 0.961 . S
H2281 C2217 0.960 . S
H2282 C2217 0.960 . S
H2283 C2219 0.980 . S
H2284 C2218 0.961 . S
H2285 C2218 0.961 . S
H2286 C2218 0.959 . S
H2287 C2221 0.932 . S
H2288 C2225 0.929 . S
H2289 C2226 0.961 . S
H2290 C2226 0.959 . S
H2291 C2226 0.959 . S
H2292 C2227 0.960 . S
H2293 C2227 0.962 . S
H2294 C2227 0.961 . S
H2295 C2229 0.929 . S
H2296 C2232 0.930 . S
H2297 C2233 0.929 . S
H2298 C2236 0.930 . S
H2299 C2239 0.929 . S
H2300 C2240 0.930 . S
H2301 C2244 0.962 . S
H2302 C2244 0.959 . S
H2303 C2244 0.958 . S
H2304 C2312 0.929 . S
H2305 C2314 0.930 . S
H2306 C2316 0.930 . S
H2307 C2319 0.929 . S
H2308 C2322 0.930 . S
H2309 C2324 0.960 . S
H2310 C2324 0.960 . S
H2311 C2324 0.960 . S
C2312 H2304 0.929 . S
C2312 C2313 1.377 . S
C2312 C2314 1.384 . S
C2313 C2312 1.377 . S
C2313 C2319 1.391 1_455 S
C2314 H2305 0.930 . S
C2314 C2312 1.384 . S
C2314 C2315 1.338 1_455 S
C2315 C2314 1.338 1_655 S
C2315 C2316 1.419 . S
C2315 C2320 1.482 . S
C2316 H2306 0.930 . S
C2316 C2315 1.419 . S
C2316 C2319 1.386 . S
H2317 C2333 0.930 . S
H2318 C2334 0.931 . S
C2319 H2307 0.929 . S
C2319 C2313 1.391 1_655 S
C2319 C2316 1.386 . S
C2320 C2315 1.482 . S
C2320 C2322 1.383 1_655 S
C2320 C2323 1.437 . S
H2321 C2327 0.930 . S
C2322 H2308 0.930 . S
C2322 C2320 1.383 1_455 S
C2322 C2325 1.403 . S
C2323 C2320 1.437 . S
C2323 C2324 1.524 . S
C2323 C2327 1.400 . S
C2324 H2309 0.960 . S
C2324 H2310 0.960 . S
C2324 H2311 0.960 . S
C2324 C2323 1.524 . S
C2325 C2322 1.403 . S
C2325 C2326 1.383 1_455 S
C2325 C2329 1.495 . S
C2326 C2325 1.383 1_655 S
C2326 C2327 1.388 . S
C2326 C2328 1.443 . S
C2327 H2321 0.930 . S
C2327 C2323 1.400 . S
C2327 C2326 1.388 . S
C2328 C2326 1.443 . S
C2328 C2330 1.333 1_655 S
C2328 C2334 1.479 . S
C2329 C2325 1.495 . S
C2329 H2335 0.959 . S
C2329 H2336 0.961 . S
C2329 H2337 0.960 . S
C2330 C2328 1.333 1_455 S
C2330 C2331 1.394 . S
C2330 H2338 0.930 . S
C2331 C2330 1.394 . S
C2331 C2332 1.383 1_455 S
C2331 H2339 0.929 . S
C2332 C2331 1.383 1_655 S
C2332 C2333 1.377 . S
C2333 H2317 0.930 . S
C2333 C2332 1.377 . S
C2333 C2334 1.379 . S
C2334 H2318 0.931 . S
C2334 C2328 1.479 . S
C2334 C2333 1.379 . S
H2335 C2329 0.959 . S
H2336 C2329 0.961 . S
H2337 C2329 0.960 . S
H2338 C2330 0.930 . S
H2339 C2331 0.929 . S
H2340 C2348 0.929 . S
H2341 C2350 0.930 . S
H2342 C2352 0.930 . S
H2343 C2355 0.929 . S
H2344 C2358 0.930 . S
H2345 C2360 0.960 . S
H2346 C2360 0.960 . S
H2347 C2360 0.960 . S
C2348 H2340 0.929 . S
C2348 C2349 1.377 . S
C2348 C2350 1.384 . S
C2349 C2348 1.377 . S
C2349 C2355 1.390 . S
C2350 H2341 0.930 . S
C2350 C2348 1.384 . S
C2350 C2351 1.372 . S
C2351 C2350 1.372 . S
C2351 C2352 1.400 . S
C2351 C2356 1.490 . S
C2352 H2342 0.930 . S
C2352 C2351 1.400 . S
C2352 C2355 1.386 . S
H2353 C2369 0.930 . S
H2354 C2370 0.931 . S
C2355 H2343 0.929 . S
C2355 C2349 1.390 . S
C2355 C2352 1.386 . S
C2356 C2351 1.490 . S
C2356 C2358 1.395 . S
C2356 C2359 1.403 . S
H2357 C2363 0.930 . S
C2358 H2344 0.930 . S
C2358 C2356 1.395 . S
C2358 C2361 1.403 . S
C2359 C2356 1.403 . S
C2359 C2360 1.524 . S
C2359 C2363 1.400 . S
C2360 H2345 0.960 . S
C2360 H2346 0.960 . S
C2360 H2347 0.960 . S
C2360 C2359 1.524 . S
C2361 C2358 1.403 . S
C2361 C2362 1.392 . S
C2361 C2365 1.495 . S
C2362 C2361 1.392 . S
C2362 C2363 1.385 . S
C2362 C2364 1.478 . S
C2363 H2357 0.930 . S
C2363 C2359 1.400 . S
C2363 C2362 1.385 . S
C2364 C2362 1.478 . S
C2364 C2366 1.381 . S
C2364 C2370 1.383 . S
C2365 C2361 1.495 . S
C2365 H2371 0.959 . S
C2365 H2372 0.961 . S
C2365 H2373 0.960 . S
C2366 C2364 1.381 . S
C2366 C2367 1.394 . S
C2366 H2374 0.930 . S
C2367 C2366 1.394 . S
C2367 C2368 1.383 . S
C2367 H2375 0.929 . S
C2368 C2367 1.383 . S
C2368 C2369 1.377 . S
C2369 H2353 0.930 . S
C2369 C2368 1.377 . S
C2369 C2370 1.379 . S
C2370 H2354 0.931 . S
C2370 C2364 1.383 . S
C2370 C2369 1.379 . S
H2371 C2365 0.959 . S
H2372 C2365 0.961 . S
H2373 C2365 0.960 . S
H2374 C2366 0.930 . S
H2375 C2367 0.929 . S
H2376 C2384 0.913 1_565 S
H2377 C2386 0.946 . S
H2378 C2388 0.930 . S
H2379 C2391 0.929 . S
H2380 C2394 0.930 . S
H2381 C2396 0.960 . S
H2382 C2396 0.960 1_565 S
H2383 C2396 0.960 . S
C2384 H2376 0.913 1_545 S
C2384 C2385 1.408 . S
C2384 C2386 1.363 1_545 S
C2385 C2384 1.408 . S
C2385 C2391 1.390 . S
C2386 H2377 0.946 . S
C2386 C2384 1.363 1_565 S
C2386 C2387 1.364 1_565 S
C2387 C2386 1.364 1_545 S
C2387 C2388 1.400 . S
C2387 C2392 1.490 . S
C2388 H2378 0.930 . S
C2388 C2387 1.400 . S
C2388 C2391 1.386 . S
H2389 C2405 0.930 . S
H2390 C2406 0.931 . S
C2391 H2379 0.929 . S
C2391 C2385 1.390 . S
C2391 C2388 1.386 . S
C2392 C2387 1.490 . S
C2392 C2394 1.395 . S
C2392 C2395 1.403 . S
H2393 C2399 0.930 . S
C2394 H2380 0.930 . S
C2394 C2392 1.395 . S
C2394 C2397 1.403 . S
C2395 C2392 1.403 . S
C2395 C2396 1.524 . S
C2395 C2399 1.400 . S
C2396 H2381 0.960 . S
C2396 H2382 0.960 1_545 S
C2396 H2383 0.960 . S
C2396 C2395 1.524 . S
C2397 C2394 1.403 . S
C2397 C2398 1.392 . S
C2397 C2401 1.495 . S
C2398 C2397 1.392 . S
C2398 C2399 1.385 . S
C2398 C2400 1.478 . S
C2399 H2393 0.930 . S
C2399 C2395 1.400 . S
C2399 C2398 1.385 . S
C2400 C2398 1.478 . S
C2400 C2402 1.381 1_545 S
C2400 C2406 1.383 . S
C2401 C2397 1.495 . S
C2401 H2407 0.959 . S
C2401 H2408 0.961 . S
C2401 H2409 0.960 . S
C2402 C2400 1.381 1_565 S
C2402 C2403 1.394 . S
C2402 H2410 0.930 . S
C2403 C2402 1.394 . S
C2403 C2404 1.383 1_565 S
C2403 H2411 0.929 . S
C2404 C2403 1.383 1_545 S
C2404 C2405 1.377 . S
C2405 H2389 0.930 . S
C2405 C2404 1.377 . S
C2405 C2406 1.379 . S
C2406 H2390 0.931 . S
C2406 C2400 1.383 . S
C2406 C2405 1.379 . S
H2407 C2401 0.959 . S
H2408 C2401 0.961 . S
H2409 C2401 0.960 . S
H2410 C2402 0.930 . S
H2411 C2403 0.929 . S
H2412 C2420 0.929 . S
H2413 C2422 0.930 . S
H2414 C2424 0.930 . S
H2415 C2427 0.929 . S
H2416 C2430 0.930 . S
H2417 C2432 0.960 . S
H2418 C2432 0.960 . S
H2419 C2432 0.960 . S
C2420 H2412 0.929 . S
C2420 C2421 1.377 1_545 S
C2420 C2422 1.384 . S
C2421 C2420 1.377 1_565 S
C2421 C2427 1.390 . S
C2422 H2413 0.930 . S
C2422 C2420 1.384 . S
C2422 C2423 1.372 1_545 S
C2423 C2422 1.372 1_565 S
C2423 C2424 1.400 . S
C2423 C2428 1.490 . S
C2424 H2414 0.930 . S
C2424 C2423 1.400 . S
C2424 C2427 1.386 . S
H2425 C2441 0.930 . S
H2426 C2442 0.931 . S
C2427 H2415 0.929 . S
C2427 C2421 1.390 . S
C2427 C2424 1.386 . S
C2428 C2423 1.490 . S
C2428 C2430 1.395 . S
C2428 C2431 1.403 . S
H2429 C2435 0.930 . S
C2430 H2416 0.930 . S
C2430 C2428 1.395 . S
C2430 C2433 1.403 . S
C2431 C2428 1.403 . S
C2431 C2432 1.524 . S
C2431 C2435 1.400 . S
C2432 H2417 0.960 . S
C2432 H2418 0.960 . S
C2432 H2419 0.960 . S
C2432 C2431 1.524 . S
C2433 C2430 1.403 . S
C2433 C2434 1.392 . S
C2433 C2437 1.495 . S
C2434 C2433 1.392 . S
C2434 C2435 1.385 . S
C2434 C2436 1.478 . S
C2435 H2429 0.930 . S
C2435 C2431 1.400 . S
C2435 C2434 1.385 . S
C2436 C2434 1.478 . S
C2436 C2438 1.381 1_565 S
C2436 C2442 1.383 . S
C2437 C2433 1.495 . S
C2437 H2443 0.964 . S
C2437 H2444 0.961 . S
C2437 H2445 0.960 1_565 S
C2438 C2436 1.381 1_545 S
C2438 C2439 1.394 . S
C2438 H2446 0.930 . S
C2439 C2438 1.394 . S
C2439 C2440 1.383 1_545 S
C2439 H2447 0.929 . S
C2440 C2439 1.383 1_565 S
C2440 C2441 1.377 . S
C2441 H2425 0.930 . S
C2441 C2440 1.377 . S
C2441 C2442 1.379 . S
C2442 H2426 0.931 . S
C2442 C2436 1.383 . S
C2442 C2441 1.379 . S
H2443 C2437 0.964 . S
H2444 C2437 0.961 . S
H2445 C2437 0.960 1_545 S
H2446 C2438 0.930 . S
H2447 C2439 0.929 . S
H2448 C2456 0.929 . S
H2449 C2458 0.930 . S
H2450 C2460 0.930 . S
H2451 C2463 0.929 . S
H2452 C2466 0.930 1_655 S
H2453 C2468 0.960 . S
H2454 C2468 0.960 . S
H2455 C2468 0.960 . S
C2456 H2448 0.929 . S
C2456 C2457 1.377 . S
C2456 C2458 1.384 . S
C2457 C2456 1.377 . S
C2457 C2463 1.390 . S
C2458 H2449 0.930 . S
C2458 C2456 1.384 . S
C2458 C2459 1.372 . S
C2459 C2458 1.372 . S
C2459 C2460 1.400 . S
C2459 C2464 1.490 . S
C2460 H2450 0.930 . S
C2460 C2459 1.400 . S
C2460 C2463 1.386 . S
H2461 C2477 0.930 . S
H2462 C2478 0.931 . S
C2463 H2451 0.929 . S
C2463 C2457 1.390 . S
C2463 C2460 1.386 . S
C2464 C2459 1.490 . S
C2464 C2466 1.395 . S
C2464 C2467 1.403 . S
H2465 C2471 0.930 . S
C2466 H2452 0.930 1_455 S
C2466 C2464 1.395 . S
C2466 C2469 1.364 1_455 S
C2467 C2464 1.403 . S
C2467 C2468 1.524 . S
C2467 C2471 1.400 . S
C2468 H2453 0.960 . S
C2468 H2454 0.960 . S
C2468 H2455 0.960 . S
C2468 C2467 1.524 . S
C2469 C2466 1.364 1_655 S
C2469 C2470 1.372 1_655 S
C2469 C2473 1.558 . S
C2470 C2469 1.372 1_455 S
C2470 C2471 1.385 . S
C2470 C2472 1.478 . S
C2471 H2465 0.930 . S
C2471 C2467 1.400 . S
C2471 C2470 1.385 . S
C2472 C2470 1.478 . S
C2472 C2474 1.381 . S
C2472 C2478 1.383 . S
C2473 C2469 1.558 . S
C2473 H2479 0.959 . S
C2473 H2480 0.961 . S
C2473 H2481 0.960 . S
C2474 C2472 1.381 . S
C2474 C2475 1.394 . S
C2474 H2482 0.930 . S
C2475 C2474 1.394 . S
C2475 C2476 1.383 . S
C2475 H2483 0.929 . S
C2476 C2475 1.383 . S
C2476 C2477 1.377 . S
C2477 H2461 0.930 . S
C2477 C2476 1.377 . S
C2477 C2478 1.379 . S
C2478 H2462 0.931 . S
C2478 C2472 1.383 . S
C2478 C2477 1.379 . S
H2479 C2473 0.959 . S
H2480 C2473 0.961 . S
H2481 C2473 0.960 . S
H2482 C2474 0.930 . S
H2483 C2475 0.929 . S
H2484 C2492 0.929 1_554 S
H2485 C2494 0.930 . S
H2486 C2496 0.930 . S
H2487 C2499 0.929 . S
H2488 C2502 0.930 . S
H2489 C2504 0.960 . S
H2490 C2504 0.960 . S
H2491 C2504 0.960 . S
C2492 H2484 0.929 1_556 S
C2492 C2493 1.377 . S
C2492 C2494 1.384 . S
C2493 C2492 1.377 . S
C2493 C2499 1.390 . S
C2494 H2485 0.930 . S
C2494 C2492 1.384 . S
C2494 C2495 1.372 . S
C2495 C2494 1.372 . S
C2495 C2496 1.400 . S
C2495 C2500 1.490 . S
C2496 H2486 0.930 . S
C2496 C2495 1.400 . S
C2496 C2499 1.386 . S
H2497 C2513 0.930 . S
H2498 C2514 0.931 . S
C2499 H2487 0.929 . S
C2499 C2493 1.390 . S
C2499 C2496 1.386 . S
C2500 C2495 1.490 . S
C2500 C2502 1.395 . S
C2500 C2503 1.403 . S
H2501 C2507 0.930 . S
C2502 H2488 0.930 . S
C2502 C2500 1.395 . S
C2502 C2505 1.403 . S
C2503 C2500 1.403 . S
C2503 C2504 1.524 . S
C2503 C2507 1.400 . S
C2504 H2489 0.960 . S
C2504 H2490 0.960 . S
C2504 H2491 0.960 . S
C2504 C2503 1.524 . S
C2505 C2502 1.403 . S
C2505 C2506 1.392 . S
C2505 C2509 1.495 . S
C2506 C2505 1.392 . S
C2506 C2507 1.385 . S
C2506 C2508 1.478 . S
C2507 H2501 0.930 . S
C2507 C2503 1.400 . S
C2507 C2506 1.385 . S
C2508 C2506 1.478 . S
C2508 C2510 1.381 . S
C2508 C2514 1.383 . S
C2509 C2505 1.495 . S
C2509 H2515 0.959 . S
C2509 H2516 0.961 . S
C2509 H2517 0.960 . S
C2510 C2508 1.381 . S
C2510 C2511 1.394 . S
C2510 H2518 0.930 . S
C2511 C2510 1.394 . S
C2511 C2512 1.383 . S
C2511 H2519 0.929 . S
C2512 C2511 1.383 . S
C2512 C2513 1.377 . S
C2513 H2497 0.930 . S
C2513 C2512 1.377 . S
C2513 C2514 1.379 . S
C2514 H2498 0.931 . S
C2514 C2508 1.383 . S
C2514 C2513 1.379 . S
H2515 C2509 0.959 . S
H2516 C2509 0.961 . S
H2517 C2509 0.960 . S
H2518 C2510 0.930 . S
H2519 C2511 0.929 . S
H2520 C2528 0.929 1_655 S
H2521 C2530 0.930 1_655 S
H2522 C2532 0.930 . S
H2523 C2535 0.929 . S
H2524 C2538 0.930 . S
H2525 C2540 0.960 . S
H2526 C2540 0.960 . S
H2527 C2540 0.960 . S
C2528 H2520 0.929 1_455 S
C2528 C2529 1.377 . S
C2528 C2530 1.384 . S
C2529 C2528 1.377 . S
C2529 C2535 1.390 . S
C2530 H2521 0.930 1_455 S
C2530 C2528 1.384 . S
C2530 C2531 1.372 . S
C2531 C2530 1.372 . S
C2531 C2532 1.400 . S
C2531 C2536 1.490 . S
C2532 H2522 0.930 . S
C2532 C2531 1.400 . S
C2532 C2535 1.386 . S
H2533 C2549 0.930 . S
H2534 C2550 0.931 . S
C2535 H2523 0.929 . S
C2535 C2529 1.390 . S
C2535 C2532 1.386 . S
C2536 C2531 1.490 . S
C2536 C2538 1.395 . S
C2536 C2539 1.407 1_455 S
H2537 C2543 0.930 . S
C2538 H2524 0.930 . S
C2538 C2536 1.395 . S
C2538 C2541 1.403 . S
C2539 C2536 1.407 1_655 S
C2539 C2540 1.553 . S
C2539 C2543 1.403 . S
C2540 H2525 0.960 . S
C2540 H2526 0.960 . S
C2540 H2527 0.960 . S
C2540 C2539 1.553 . S
C2541 C2538 1.403 . S
C2541 C2542 1.392 . S
C2541 C2545 1.495 . S
C2542 C2541 1.392 . S
C2542 C2543 1.359 1_455 S
C2542 C2544 1.478 . S
C2543 H2537 0.930 . S
C2543 C2539 1.403 . S
C2543 C2542 1.359 1_655 S
C2544 C2542 1.478 . S
C2544 C2546 1.381 1_455 S
C2544 C2550 1.383 . S
C2545 C2541 1.495 . S
C2545 H2551 0.959 . S
C2545 H2552 0.961 . S
C2545 H2553 0.960 . S
C2546 C2544 1.381 1_655 S
C2546 C2547 1.394 . S
C2546 H2554 0.930 . S
C2547 C2546 1.394 . S
C2547 C2548 1.383 1_655 S
C2547 H2555 0.929 . S
C2548 C2547 1.383 1_455 S
C2548 C2549 1.377 . S
C2549 H2533 0.930 . S
C2549 C2548 1.377 . S
C2549 C2550 1.379 . S
C2550 H2534 0.931 . S
C2550 C2544 1.383 . S
C2550 C2549 1.379 . S
H2551 C2545 0.959 . S
H2552 C2545 0.961 . S
H2553 C2545 0.960 . S
H2554 C2546 0.930 . S
H2555 C2547 0.929 . S
H2556 C2564 0.929 . S
H2557 C2566 0.930 . S
H2558 C2568 0.930 . S
H2559 C2571 0.929 . S
H2560 C2574 0.930 . S
H2561 C2576 0.960 . S
H2562 C2576 0.960 . S
H2563 C2576 0.960 . S
C2564 H2556 0.929 . S
C2564 C2565 1.377 . S
C2564 C2566 1.384 . S
C2565 C2564 1.377 . S
C2565 C2571 1.390 . S
C2566 H2557 0.930 . S
C2566 C2564 1.384 . S
C2566 C2567 1.372 . S
C2567 C2566 1.372 . S
C2567 C2568 1.400 . S
C2567 C2572 1.490 . S
C2568 H2558 0.930 . S
C2568 C2567 1.400 . S
C2568 C2571 1.386 . S
H2569 C2585 0.930 . S
H2570 C2586 0.931 . S
C2571 H2559 0.929 . S
C2571 C2565 1.390 . S
C2571 C2568 1.386 . S
C2572 C2567 1.490 . S
C2572 C2574 1.395 . S
C2572 C2575 1.403 . S
H2573 C2579 0.930 . S
C2574 H2560 0.930 . S
C2574 C2572 1.395 . S
C2574 C2577 1.403 . S
C2575 C2572 1.403 . S
C2575 C2576 1.524 . S
C2575 C2579 1.400 . S
C2576 H2561 0.960 . S
C2576 H2562 0.960 . S
C2576 H2563 0.960 . S
C2576 C2575 1.524 . S
C2577 C2574 1.403 . S
C2577 C2578 1.392 . S
C2577 C2581 1.495 . S
C2578 C2577 1.392 . S
C2578 C2579 1.385 . S
C2578 C2580 1.478 . S
C2579 H2573 0.930 . S
C2579 C2575 1.400 . S
C2579 C2578 1.385 . S
C2580 C2578 1.478 . S
C2580 C2582 1.381 . S
C2580 C2586 1.383 . S
C2581 C2577 1.495 . S
C2581 H2587 0.959 . S
C2581 H2588 0.961 . S
C2581 H2589 0.960 . S
C2582 C2580 1.381 . S
C2582 C2583 1.394 . S
C2582 H2590 0.930 . S
C2583 C2582 1.394 . S
C2583 C2584 1.383 . S
C2583 H2591 0.929 . S
C2584 C2583 1.383 . S
C2584 C2585 1.377 . S
C2585 H2569 0.930 . S
C2585 C2584 1.377 . S
C2585 C2586 1.379 . S
C2586 H2570 0.931 . S
C2586 C2580 1.383 . S
C2586 C2585 1.379 . S
H2587 C2581 0.959 . S
H2588 C2581 0.961 . S
H2589 C2581 0.960 . S
H2590 C2582 0.930 . S
H2591 C2583 0.929 . S
H2592 C2600 0.941 1_545 S
H2593 C2602 0.928 . S
H2594 C2604 0.930 . S
H2595 C2607 0.854 1_554 S
H2596 C2610 0.930 . S
H2597 C2612 0.960 . S
H2598 C2612 0.960 . S
H2599 C2612 0.960 . S
C2600 H2592 0.941 1_565 S
C2600 C2601 1.387 . S
C2600 C2602 1.369 1_565 S
C2601 C2600 1.387 . S
C2601 C2607 1.390 . S
C2602 H2593 0.928 . S
C2602 C2600 1.369 1_545 S
C2602 C2603 1.369 1_545 S
C2603 C2602 1.369 1_565 S
C2603 C2604 1.400 . S
C2603 C2608 1.490 . S
C2604 H2594 0.930 . S
C2604 C2603 1.400 . S
C2604 C2607 1.386 . S
H2605 C2621 0.930 . S
H2606 C2622 0.931 . S
C2607 H2595 0.854 1_556 S
C2607 C2601 1.390 . S
C2607 C2604 1.386 . S
C2608 C2603 1.490 . S
C2608 C2610 1.395 . S
C2608 C2611 1.403 1_565 S
H2609 C2615 0.930 . S
C2610 H2596 0.930 . S
C2610 C2608 1.395 . S
C2610 C2613 1.403 . S
C2611 C2608 1.403 1_545 S
C2611 C2612 1.524 . S
C2611 C2615 1.400 . S
C2612 H2597 0.960 . S
C2612 H2598 0.960 . S
C2612 H2599 0.960 . S
C2612 C2611 1.524 . S
C2613 C2610 1.403 . S
C2613 C2614 1.392 . S
C2613 C2617 1.495 . S
C2614 C2613 1.392 . S
C2614 C2615 1.385 1_565 S
C2614 C2616 1.478 . S
C2615 H2609 0.930 . S
C2615 C2611 1.400 . S
C2615 C2614 1.385 1_545 S
C2616 C2614 1.478 . S
C2616 C2618 1.381 1_565 S
C2616 C2622 1.383 . S
C2617 C2613 1.495 . S
C2617 H2623 0.959 . S
C2617 H2624 0.961 . S
C2617 H2625 0.960 . S
C2618 C2616 1.381 1_545 S
C2618 C2619 1.394 . S
C2618 H2626 0.930 . S
C2619 C2618 1.394 . S
C2619 C2620 1.383 1_545 S
C2619 H2627 0.929 . S
C2620 C2619 1.383 1_565 S
C2620 C2621 1.377 . S
C2621 H2605 0.930 . S
C2621 C2620 1.377 . S
C2621 C2622 1.379 . S
C2622 H2606 0.931 . S
C2622 C2616 1.383 . S
C2622 C2621 1.379 . S
H2623 C2617 0.959 . S
H2624 C2617 0.961 . S
H2625 C2617 0.960 . S
H2626 C2618 0.930 . S
H2627 C2619 0.929 . S
H2628 C2636 0.929 . S
H2629 C2638 0.930 1_565 S
H2630 C2640 0.930 . S
H2631 C2643 0.929 . S
H2632 C2646 0.930 . S
H2633 C2648 0.960 1_565 S
H2634 C2648 0.960 1_565 S
H2635 C2648 0.960 . S
C2636 H2628 0.929 . S
C2636 C2637 1.377 . S
C2636 C2638 1.384 . S
C2637 C2636 1.377 . S
C2637 C2643 1.390 . S
C2638 H2629 0.930 1_545 S
C2638 C2636 1.384 . S
C2638 C2639 1.372 . S
C2639 C2638 1.372 . S
C2639 C2640 1.400 . S
C2639 C2644 1.490 . S
C2640 H2630 0.930 . S
C2640 C2639 1.400 . S
C2640 C2643 1.386 . S
H2641 C2657 0.930 . S
H2642 C2658 0.931 . S
C2643 H2631 0.929 . S
C2643 C2637 1.390 . S
C2643 C2640 1.386 . S
C2644 C2639 1.490 . S
C2644 C2646 1.395 . S
C2644 C2647 1.403 . S
H2645 C2651 0.930 . S
C2646 H2632 0.930 . S
C2646 C2644 1.395 . S
C2646 C2649 1.403 . S
C2647 C2644 1.403 . S
C2647 C2648 1.524 . S
C2647 C2651 1.400 . S
C2648 H2633 0.960 1_545 S
C2648 H2634 0.960 1_545 S
C2648 H2635 0.960 . S
C2648 C2647 1.524 . S
C2649 C2646 1.403 . S
C2649 C2650 1.392 . S
C2649 C2653 1.495 . S
C2650 C2649 1.392 . S
C2650 C2651 1.385 . S
C2650 C2652 1.478 . S
C2651 H2645 0.930 . S
C2651 C2647 1.400 . S
C2651 C2650 1.385 . S
C2652 C2650 1.478 . S
C2652 C2654 1.381 1_545 S
C2652 C2658 1.383 . S
C2653 C2649 1.495 . S
C2653 H2659 0.959 . S
C2653 H2660 0.961 . S
C2653 H2661 0.960 . S
C2654 C2652 1.381 1_565 S
C2654 C2655 1.394 . S
C2654 H2662 0.930 . S
C2655 C2654 1.394 . S
C2655 C2656 1.383 1_565 S
C2655 H2663 0.929 . S
C2656 C2655 1.383 1_545 S
C2656 C2657 1.377 . S
C2657 H2641 0.930 . S
C2657 C2656 1.377 . S
C2657 C2658 1.379 . S
C2658 H2642 0.931 . S
C2658 C2652 1.383 . S
C2658 C2657 1.379 . S
H2659 C2653 0.959 . S
H2660 C2653 0.961 . S
H2661 C2653 0.960 . S
H2662 C2654 0.930 . S
H2663 C2655 0.929 . S
H2664 C2672 0.929 . S
H2665 C2674 0.930 . S
H2666 C2676 0.881 1_455 S
H2667 C2679 0.929 1_455 S
H2668 C2682 0.930 . S
H2669 C2684 0.960 . S
H2670 C2684 0.960 . S
H2671 C2684 0.960 . S
C2672 H2664 0.929 . S
C2672 C2673 1.377 . S
C2672 C2674 1.384 . S
C2673 C2672 1.377 . S
C2673 C2679 1.390 . S
C2674 H2665 0.930 . S
C2674 C2672 1.384 . S
C2674 C2675 1.372 . S
C2675 C2674 1.372 . S
C2675 C2676 1.426 . S
C2675 C2680 1.490 . S
C2676 H2666 0.881 1_655 S
C2676 C2675 1.426 . S
C2676 C2679 1.409 . S
H2677 C2693 0.930 . S
H2678 C2694 0.931 . S
C2679 H2667 0.929 1_655 S
C2679 C2673 1.390 . S
C2679 C2676 1.409 . S
C2680 C2675 1.490 . S
C2680 C2682 1.395 . S
C2680 C2683 1.403 1_655 S
H2681 C2687 0.930 . S
C2682 H2668 0.930 . S
C2682 C2680 1.395 . S
C2682 C2685 1.403 . S
C2683 C2680 1.403 1_455 S
C2683 C2684 1.524 . S
C2683 C2687 1.400 . S
C2684 H2669 0.960 . S
C2684 H2670 0.960 . S
C2684 H2671 0.960 . S
C2684 C2683 1.524 . S
C2685 C2682 1.403 . S
C2685 C2686 1.392 . S
C2685 C2689 1.495 . S
C2686 C2685 1.392 . S
C2686 C2687 1.385 1_655 S
C2686 C2688 1.478 . S
C2687 H2681 0.930 . S
C2687 C2683 1.400 . S
C2687 C2686 1.385 1_455 S
C2688 C2686 1.478 . S
C2688 C2690 1.381 . S
C2688 C2694 1.383 1_655 S
C2689 C2685 1.495 . S
C2689 H2695 0.959 . S
C2689 H2696 0.961 . S
C2689 H2697 0.960 . S
C2690 C2688 1.381 . S
C2690 C2691 1.394 . S
C2690 H2698 0.930 . S
C2691 C2690 1.394 . S
C2691 C2692 1.383 . S
C2691 H2699 0.929 . S
C2692 C2691 1.383 . S
C2692 C2693 1.377 1_655 S
C2693 H2677 0.930 . S
C2693 C2692 1.377 1_455 S
C2693 C2694 1.379 . S
C2694 H2678 0.931 . S
C2694 C2688 1.383 1_455 S
C2694 C2693 1.379 . S
H2695 C2689 0.959 . S
H2696 C2689 0.961 . S
H2697 C2689 0.960 . S
H2698 C2690 0.930 . S
H2699 C2691 0.929 . S
H2700 C2708 0.929 . S
H2701 C2710 0.930 . S
H2702 C2712 0.930 . S
H2703 C2715 0.929 . S
H2704 C2718 0.930 . S
H2705 C2720 0.960 . S
H2706 C2720 0.960 . S
H2707 C2720 0.960 . S
C2708 H2700 0.929 . S
C2708 C2709 1.377 . S
C2708 C2710 1.384 . S
C2709 C2708 1.377 . S
C2709 C2715 1.390 . S
C2710 H2701 0.930 . S
C2710 C2708 1.384 . S
C2710 C2711 1.372 . S
C2711 C2710 1.372 . S
C2711 C2712 1.400 . S
C2711 C2716 1.490 . S
C2712 H2702 0.930 . S
C2712 C2711 1.400 . S
C2712 C2715 1.386 . S
H2713 C2729 0.930 . S
H2714 C2730 0.931 . S
C2715 H2703 0.929 . S
C2715 C2709 1.390 . S
C2715 C2712 1.386 . S
C2716 C2711 1.490 . S
C2716 C2718 1.395 . S
C2716 C2719 1.403 . S
H2717 C2723 0.930 . S
C2718 H2704 0.930 . S
C2718 C2716 1.395 . S
C2718 C2721 1.403 . S
C2719 C2716 1.403 . S
C2719 C2720 1.524 . S
C2719 C2723 1.400 . S
C2720 H2705 0.960 . S
C2720 H2706 0.960 . S
C2720 H2707 0.960 . S
C2720 C2719 1.524 . S
C2721 C2718 1.403 . S
C2721 C2722 1.392 . S
C2721 C2725 1.495 . S
C2722 C2721 1.392 . S
C2722 C2723 1.385 . S
C2722 C2724 1.478 . S
C2723 H2717 0.930 . S
C2723 C2719 1.400 . S
C2723 C2722 1.385 . S
C2724 C2722 1.478 . S
C2724 C2726 1.381 . S
C2724 C2730 1.383 . S
C2725 C2721 1.495 . S
C2725 H2731 0.959 . S
C2725 H2732 0.961 . S
C2725 H2733 0.960 . S
C2726 C2724 1.381 . S
C2726 C2727 1.394 . S
C2726 H2734 0.930 . S
C2727 C2726 1.394 . S
C2727 C2728 1.383 . S
C2727 H2735 0.929 . S
C2728 C2727 1.383 . S
C2728 C2729 1.377 . S
C2729 H2713 0.930 . S
C2729 C2728 1.377 . S
C2729 C2730 1.379 . S
C2730 H2714 0.931 . S
C2730 C2724 1.383 . S
C2730 C2729 1.379 . S
H2731 C2725 0.959 . S
H2732 C2725 0.961 . S
H2733 C2725 0.960 . S
H2734 C2726 0.930 . S
H2735 C2727 0.929 . S
H2736 C2744 0.929 . S
H2737 C2746 0.930 . S
H2738 C2748 0.930 . S
H2739 C2751 0.929 . S
H2740 C2754 0.930 . S
H2741 C2756 0.960 . S
H2742 C2756 0.960 . S
H2743 C2756 0.960 . S
C2744 H2736 0.929 . S
C2744 C2745 1.377 . S
C2744 C2746 1.384 . S
C2745 C2744 1.377 . S
C2745 C2751 1.390 . S
C2746 H2737 0.930 . S
C2746 C2744 1.384 . S
C2746 C2747 1.372 . S
C2747 C2746 1.372 . S
C2747 C2748 1.400 . S
C2747 C2752 1.490 . S
C2748 H2738 0.930 . S
C2748 C2747 1.400 . S
C2748 C2751 1.386 . S
H2749 C2765 0.930 . S
H2750 C2766 0.931 . S
C2751 H2739 0.929 . S
C2751 C2745 1.390 . S
C2751 C2748 1.386 . S
C2752 C2747 1.490 . S
C2752 C2754 1.395 . S
C2752 C2755 1.403 . S
H2753 C2759 0.930 . S
C2754 H2740 0.930 . S
C2754 C2752 1.395 . S
C2754 C2757 1.403 . S
C2755 C2752 1.403 . S
C2755 C2756 1.524 . S
C2755 C2759 1.400 . S
C2756 H2741 0.960 . S
C2756 H2742 0.960 . S
C2756 H2743 0.960 . S
C2756 C2755 1.524 . S
C2757 C2754 1.403 . S
C2757 C2758 1.392 . S
C2757 C2761 1.495 . S
C2758 C2757 1.392 . S
C2758 C2759 1.385 . S
C2758 C2760 1.478 . S
C2759 H2753 0.930 . S
C2759 C2755 1.400 . S
C2759 C2758 1.385 . S
C2760 C2758 1.478 . S
C2760 C2762 1.381 . S
C2760 C2766 1.383 . S
C2761 C2757 1.495 . S
C2761 H2767 0.959 . S
C2761 H2768 0.961 . S
C2761 H2769 0.960 . S
C2762 C2760 1.381 . S
C2762 C2763 1.394 . S
C2762 H2770 0.930 . S
C2763 C2762 1.394 . S
C2763 C2764 1.383 . S
C2763 H2771 0.929 . S
C2764 C2763 1.383 . S
C2764 C2765 1.377 . S
C2765 H2749 0.930 . S
C2765 C2764 1.377 . S
C2765 C2766 1.379 . S
C2766 H2750 0.931 . S
C2766 C2760 1.383 . S
C2766 C2765 1.379 . S
H2767 C2761 0.959 . S
H2768 C2761 0.961 . S
H2769 C2761 0.960 . S
H2770 C2762 0.930 . S
H2771 C2763 0.929 . S
H2772 C2780 0.929 . S
H2773 C2782 0.930 . S
H2774 C2784 0.930 . S
H2775 C2787 0.929 . S
H2776 C2790 0.930 . S
H2777 C2792 0.960 . S
H2778 C2792 0.960 . S
H2779 C2792 0.960 . S
C2780 H2772 0.929 . S
C2780 C2781 1.377 . S
C2780 C2782 1.384 . S
C2781 C2780 1.377 . S
C2781 C2787 1.390 . S
C2782 H2773 0.930 . S
C2782 C2780 1.384 . S
C2782 C2783 1.372 . S
C2783 C2782 1.372 . S
C2783 C2784 1.400 . S
C2783 C2788 1.490 . S
C2784 H2774 0.930 . S
C2784 C2783 1.400 . S
C2784 C2787 1.386 . S
H2785 C2801 0.930 . S
H2786 C2802 0.931 . S
C2787 H2775 0.929 . S
C2787 C2781 1.390 . S
C2787 C2784 1.386 . S
C2788 C2783 1.490 . S
C2788 C2790 1.395 . S
C2788 C2791 1.403 . S
H2789 C2795 0.930 . S
C2790 H2776 0.930 . S
C2790 C2788 1.395 . S
C2790 C2793 1.403 . S
C2791 C2788 1.403 . S
C2791 C2792 1.524 . S
C2791 C2795 1.400 . S
C2792 H2777 0.960 . S
C2792 H2778 0.960 . S
C2792 H2779 0.960 . S
C2792 C2791 1.524 . S
C2793 C2790 1.403 . S
C2793 C2794 1.392 . S
C2793 C2797 1.495 . S
C2794 C2793 1.392 . S
C2794 C2795 1.385 . S
C2794 C2796 1.478 . S
C2795 H2789 0.930 . S
C2795 C2791 1.400 . S
C2795 C2794 1.385 . S
C2796 C2794 1.478 . S
C2796 C2798 1.381 . S
C2796 C2802 1.383 . S
C2797 C2793 1.495 . S
C2797 H2803 0.959 . S
C2797 H2804 0.961 . S
C2797 H2805 0.960 . S
C2798 C2796 1.381 . S
C2798 C2799 1.394 . S
C2798 H2806 0.930 . S
C2799 C2798 1.394 . S
C2799 C2800 1.383 . S
C2799 H2807 0.929 . S
C2800 C2799 1.383 . S
C2800 C2801 1.377 . S
C2801 H2785 0.930 . S
C2801 C2800 1.377 . S
C2801 C2802 1.379 . S
C2802 H2786 0.931 . S
C2802 C2796 1.383 . S
C2802 C2801 1.379 . S
H2803 C2797 0.959 . S
H2804 C2797 0.961 . S
H2805 C2797 0.960 . S
H2806 C2798 0.930 . S
H2807 C2799 0.929 . S
H2808 C2816 0.929 . S
H2809 C2818 0.930 . S
H2810 C2820 0.930 . S
H2811 C2823 0.929 . S
H2812 C2826 0.930 . S
H2813 C2828 0.960 . S
H2814 C2828 0.960 . S
H2815 C2828 0.960 . S
C2816 H2808 0.929 . S
C2816 C2817 1.377 . S
C2816 C2818 1.384 . S
C2817 C2816 1.377 . S
C2817 C2823 1.390 . S
C2818 H2809 0.930 . S
C2818 C2816 1.384 . S
C2818 C2819 1.372 . S
C2819 C2818 1.372 . S
C2819 C2820 1.400 . S
C2819 C2824 1.490 . S
C2820 H2810 0.930 . S
C2820 C2819 1.400 . S
C2820 C2823 1.386 . S
H2821 C2837 0.930 . S
H2822 C2838 0.931 . S
C2823 H2811 0.929 . S
C2823 C2817 1.390 . S
C2823 C2820 1.386 . S
C2824 C2819 1.490 . S
C2824 C2826 1.395 . S
C2824 C2827 1.403 . S
H2825 C2831 0.930 . S
C2826 H2812 0.930 . S
C2826 C2824 1.395 . S
C2826 C2829 1.403 . S
C2827 C2824 1.403 . S
C2827 C2828 1.524 . S
C2827 C2831 1.400 . S
C2828 H2813 0.960 . S
C2828 H2814 0.960 . S
C2828 H2815 0.960 . S
C2828 C2827 1.524 . S
C2829 C2826 1.403 . S
C2829 C2830 1.392 . S
C2829 C2833 1.495 . S
C2830 C2829 1.392 . S
C2830 C2831 1.385 . S
C2830 C2832 1.478 . S
C2831 H2825 0.930 . S
C2831 C2827 1.400 . S
C2831 C2830 1.385 . S
C2832 C2830 1.478 . S
C2832 C2834 1.381 . S
C2832 C2838 1.383 . S
C2833 C2829 1.495 . S
C2833 H2839 0.959 . S
C2833 H2840 0.961 . S
C2833 H2841 0.960 . S
C2834 C2832 1.381 . S
C2834 C2835 1.394 . S
C2834 H2842 0.930 . S
C2835 C2834 1.394 . S
C2835 C2836 1.383 . S
C2835 H2843 0.929 . S
C2836 C2835 1.383 . S
C2836 C2837 1.377 . S
C2837 H2821 0.930 . S
C2837 C2836 1.377 . S
C2837 C2838 1.379 . S
C2838 H2822 0.931 . S
C2838 C2832 1.383 . S
C2838 C2837 1.379 . S
H2839 C2833 0.959 . S
H2840 C2833 0.961 . S
H2841 C2833 0.960 . S
H2842 C2834 0.930 . S
H2843 C2835 0.929 . S
H2844 C2852 0.929 . S
H2845 C2854 0.930 . S
H2846 C2856 0.930 . S
H2847 C2859 0.929 . S
H2848 C2862 0.930 . S
H2849 C2864 0.960 . S
H2850 C2864 0.960 . S
H2851 C2864 0.960 . S
C2852 H2844 0.929 . S
C2852 C2853 1.377 . S
C2852 C2854 1.384 . S
C2853 C2852 1.377 . S
C2853 C2859 1.390 . S
C2854 H2845 0.930 . S
C2854 C2852 1.384 . S
C2854 C2855 1.372 . S
C2855 C2854 1.372 . S
C2855 C2856 1.400 . S
C2855 C2860 1.490 . S
C2856 H2846 0.930 . S
C2856 C2855 1.400 . S
C2856 C2859 1.386 . S
H2857 C2873 0.930 . S
H2858 C2874 0.931 . S
C2859 H2847 0.929 . S
C2859 C2853 1.390 . S
C2859 C2856 1.386 . S
C2860 C2855 1.490 . S
C2860 C2862 1.395 . S
C2860 C2863 1.403 . S
H2861 C2867 0.930 . S
C2862 H2848 0.930 . S
C2862 C2860 1.395 . S
C2862 C2865 1.403 . S
C2863 C2860 1.403 . S
C2863 C2864 1.524 . S
C2863 C2867 1.400 . S
C2864 H2849 0.960 . S
C2864 H2850 0.960 . S
C2864 H2851 0.960 . S
C2864 C2863 1.524 . S
C2865 C2862 1.403 . S
C2865 C2866 1.392 . S
C2865 C2869 1.495 . S
C2866 C2865 1.392 . S
C2866 C2867 1.385 . S
C2866 C2868 1.478 . S
C2867 H2861 0.930 . S
C2867 C2863 1.400 . S
C2867 C2866 1.385 . S
C2868 C2866 1.478 . S
C2868 C2870 1.381 . S
C2868 C2874 1.383 . S
C2869 C2865 1.495 . S
C2869 H2875 0.959 . S
C2869 H2876 0.961 . S
C2869 H2877 0.960 . S
C2870 C2868 1.381 . S
C2870 C2871 1.394 . S
C2870 H2878 0.930 . S
C2871 C2870 1.394 . S
C2871 C2872 1.383 . S
C2871 H2879 0.929 . S
C2872 C2871 1.383 . S
C2872 C2873 1.377 . S
C2873 H2857 0.930 . S
C2873 C2872 1.377 . S
C2873 C2874 1.379 . S
C2874 H2858 0.931 . S
C2874 C2868 1.383 . S
C2874 C2873 1.379 . S
H2875 C2869 0.959 . S
H2876 C2869 0.961 . S
H2877 C2869 0.960 . S
H2878 C2870 0.930 . S
H2879 C2871 0.929 . S
H2880 C2888 0.929 . S
H2881 C2890 0.930 . S
H2882 C2892 0.930 . S
H2883 C2895 0.929 . S
H2884 C2898 0.930 . S
H2885 C2900 0.960 . S
H2886 C2900 0.960 . S
H2887 C2900 0.960 . S
C2888 H2880 0.929 . S
C2888 C2889 1.377 . S
C2888 C2890 1.384 . S
C2889 C2888 1.377 . S
C2889 C2895 1.390 . S
C2890 H2881 0.930 . S
C2890 C2888 1.384 . S
C2890 C2891 1.372 . S
C2891 C2890 1.372 . S
C2891 C2892 1.400 . S
C2891 C2896 1.490 . S
C2892 H2882 0.930 . S
C2892 C2891 1.400 . S
C2892 C2895 1.386 . S
H2893 C2909 0.930 . S
H2894 C2910 0.931 . S
C2895 H2883 0.929 . S
C2895 C2889 1.390 . S
C2895 C2892 1.386 . S
C2896 C2891 1.490 . S
C2896 C2898 1.395 . S
C2896 C2899 1.403 . S
H2897 C2903 0.930 . S
C2898 H2884 0.930 . S
C2898 C2896 1.395 . S
C2898 C2901 1.403 . S
C2899 C2896 1.403 . S
C2899 C2900 1.524 . S
C2899 C2903 1.400 . S
C2900 H2885 0.960 . S
C2900 H2886 0.960 . S
C2900 H2887 0.960 . S
C2900 C2899 1.524 . S
C2901 C2898 1.403 . S
C2901 C2902 1.392 . S
C2901 C2905 1.495 . S
C2902 C2901 1.392 . S
C2902 C2903 1.385 . S
C2902 C2904 1.478 . S
C2903 H2897 0.930 . S
C2903 C2899 1.400 . S
C2903 C2902 1.385 . S
C2904 C2902 1.478 . S
C2904 C2906 1.381 . S
C2904 C2910 1.383 . S
C2905 C2901 1.495 . S
C2905 H2911 0.959 . S
C2905 H2912 0.961 . S
C2905 H2913 0.960 . S
C2906 C2904 1.381 . S
C2906 C2907 1.394 . S
C2906 H2914 0.930 . S
C2907 C2906 1.394 . S
C2907 C2908 1.383 . S
C2907 H2915 0.929 . S
C2908 C2907 1.383 . S
C2908 C2909 1.377 . S
C2909 H2893 0.930 . S
C2909 C2908 1.377 . S
C2909 C2910 1.379 . S
C2910 H2894 0.931 . S
C2910 C2904 1.383 . S
C2910 C2909 1.379 . S
H2911 C2905 0.959 . S
H2912 C2905 0.961 . S
H2913 C2905 0.960 . S
H2914 C2906 0.930 . S
H2915 C2907 0.929 . S
H2916 C2924 0.929 . S
H2917 C2926 0.930 . S
H2918 C2928 0.930 . S
H2919 C2931 0.929 . S
H2920 C2934 0.930 . S
H2921 C2936 0.960 . S
H2922 C2936 0.960 . S
H2923 C2936 0.960 . S
C2924 H2916 0.929 . S
C2924 C2925 1.377 . S
C2924 C2926 1.384 . S
C2925 C2924 1.377 . S
C2925 C2931 1.390 . S
C2926 H2917 0.930 . S
C2926 C2924 1.384 . S
C2926 C2927 1.372 . S
C2927 C2926 1.372 . S
C2927 C2928 1.400 . S
C2927 C2932 1.490 . S
C2928 H2918 0.930 . S
C2928 C2927 1.400 . S
C2928 C2931 1.386 . S
H2929 C2945 0.930 . S
H2930 C2946 0.931 . S
C2931 H2919 0.929 . S
C2931 C2925 1.390 . S
C2931 C2928 1.386 . S
C2932 C2927 1.490 . S
C2932 C2934 1.395 . S
C2932 C2935 1.403 . S
H2933 C2939 0.930 . S
C2934 H2920 0.930 . S
C2934 C2932 1.395 . S
C2934 C2937 1.403 . S
C2935 C2932 1.403 . S
C2935 C2936 1.524 . S
C2935 C2939 1.400 . S
C2936 H2921 0.960 . S
C2936 H2922 0.960 . S
C2936 H2923 0.960 . S
C2936 C2935 1.524 . S
C2937 C2934 1.403 . S
C2937 C2938 1.392 . S
C2937 C2941 1.495 . S
C2938 C2937 1.392 . S
C2938 C2939 1.385 . S
C2938 C2940 1.478 . S
C2939 H2933 0.930 . S
C2939 C2935 1.400 . S
C2939 C2938 1.385 . S
C2940 C2938 1.478 . S
C2940 C2942 1.381 . S
C2940 C2946 1.383 . S
C2941 C2937 1.495 . S
C2941 H2947 0.959 . S
C2941 H2948 0.961 . S
C2941 H2949 0.960 . S
C2942 C2940 1.381 . S
C2942 C2943 1.394 . S
C2942 H2950 0.930 . S
C2943 C2942 1.394 . S
C2943 C2944 1.383 . S
C2943 H2951 0.929 . S
C2944 C2943 1.383 . S
C2944 C2945 1.377 . S
C2945 H2929 0.930 . S
C2945 C2944 1.377 . S
C2945 C2946 1.379 . S
C2946 H2930 0.931 . S
C2946 C2940 1.383 . S
C2946 C2945 1.379 . S
H2947 C2941 0.959 . S
H2948 C2941 0.961 . S
H2949 C2941 0.960 . S
H2950 C2942 0.930 . S
H2951 C2943 0.929 . S
H2952 C2960 0.929 . S
H2953 C2962 0.930 . S
H2954 C2964 0.930 . S
H2955 C2967 0.929 . S
H2956 C2970 0.930 . S
H2957 C2972 0.960 . S
H2958 C2972 0.960 . S
H2959 C2972 0.960 . S
C2960 H2952 0.929 . S
C2960 C2961 1.377 . S
C2960 C2962 1.384 . S
C2961 C2960 1.377 . S
C2961 C2967 1.390 . S
C2962 H2953 0.930 . S
C2962 C2960 1.384 . S
C2962 C2963 1.372 . S
C2963 C2962 1.372 . S
C2963 C2964 1.400 . S
C2963 C2968 1.490 . S
C2964 H2954 0.930 . S
C2964 C2963 1.400 . S
C2964 C2967 1.386 . S
H2965 C2981 0.930 . S
H2966 C2982 0.931 . S
C2967 H2955 0.929 . S
C2967 C2961 1.390 . S
C2967 C2964 1.386 . S
C2968 C2963 1.490 . S
C2968 C2970 1.395 . S
C2968 C2971 1.403 . S
H2969 C2975 0.930 . S
C2970 H2956 0.930 . S
C2970 C2968 1.395 . S
C2970 C2973 1.403 . S
C2971 C2968 1.403 . S
C2971 C2972 1.524 . S
C2971 C2975 1.400 . S
C2972 H2957 0.960 . S
C2972 H2958 0.960 . S
C2972 H2959 0.960 . S
C2972 C2971 1.524 . S
C2973 C2970 1.403 . S
C2973 C2974 1.392 . S
C2973 C2977 1.495 . S
C2974 C2973 1.392 . S
C2974 C2975 1.385 . S
C2974 C2976 1.478 . S
C2975 H2969 0.930 . S
C2975 C2971 1.400 . S
C2975 C2974 1.385 . S
C2976 C2974 1.478 . S
C2976 C2978 1.381 . S
C2976 C2982 1.383 . S
C2977 C2973 1.495 . S
C2977 H2983 0.959 . S
C2977 H2984 0.961 . S
C2977 H2985 0.960 . S
C2978 C2976 1.381 . S
C2978 C2979 1.394 . S
C2978 H2986 0.930 . S
C2979 C2978 1.394 . S
C2979 C2980 1.383 . S
C2979 H2987 0.929 . S
C2980 C2979 1.383 . S
C2980 C2981 1.377 . S
C2981 H2965 0.930 . S
C2981 C2980 1.377 . S
C2981 C2982 1.379 . S
C2982 H2966 0.931 . S
C2982 C2976 1.383 . S
C2982 C2981 1.379 . S
H2983 C2977 0.959 . S
H2984 C2977 0.961 . S
H2985 C2977 0.960 . S
H2986 C2978 0.930 . S
H2987 C2979 0.929 . S
H2988 C2996 0.929 . S
H2989 C2998 0.930 . S
H2990 C3000 0.930 . S
H2991 C3003 0.929 . S
H2992 C3006 0.930 . S
H2993 C3008 0.960 . S
H2994 C3008 0.960 . S
H2995 C3008 0.960 . S
C2996 H2988 0.929 . S
C2996 C2997 1.377 . S
C2996 C2998 1.384 . S
C2997 C2996 1.377 . S
C2997 C3003 1.390 . S
C2998 H2989 0.930 . S
C2998 C2996 1.384 . S
C2998 C2999 1.372 . S
C2999 C2998 1.372 . S
C2999 C3000 1.400 . S
C2999 C3004 1.490 . S
C3000 H2990 0.930 . S
C3000 C2999 1.400 . S
C3000 C3003 1.386 . S
H3001 C3017 0.930 . S
H3002 C3018 0.931 . S
C3003 H2991 0.929 . S
C3003 C2997 1.390 . S
C3003 C3000 1.386 . S
C3004 C2999 1.490 . S
C3004 C3006 1.395 . S
C3004 C3007 1.403 . S
H3005 C3011 0.930 . S
C3006 H2992 0.930 . S
C3006 C3004 1.395 . S
C3006 C3009 1.403 . S
C3007 C3004 1.403 . S
C3007 C3008 1.524 . S
C3007 C3011 1.400 . S
C3008 H2993 0.960 . S
C3008 H2994 0.960 . S
C3008 H2995 0.960 . S
C3008 C3007 1.524 . S
C3009 C3006 1.403 . S
C3009 C3010 1.392 . S
C3009 C3013 1.495 . S
C3010 C3009 1.392 . S
C3010 C3011 1.385 . S
C3010 C3012 1.478 . S
C3011 H3005 0.930 . S
C3011 C3007 1.400 . S
C3011 C3010 1.385 . S
C3012 C3010 1.478 . S
C3012 C3014 1.381 . S
C3012 C3018 1.383 . S
C3013 C3009 1.495 . S
C3013 H3019 0.959 . S
C3013 H3020 0.961 . S
C3013 H3021 0.960 . S
C3014 C3012 1.381 . S
C3014 C3015 1.394 . S
C3014 H3022 0.930 . S
C3015 C3014 1.394 . S
C3015 C3016 1.383 . S
C3015 H3023 0.929 . S
C3016 C3015 1.383 . S
C3016 C3017 1.377 . S
C3017 H3001 0.930 . S
C3017 C3016 1.377 . S
C3017 C3018 1.379 . S
C3018 H3002 0.931 . S
C3018 C3012 1.383 . S
C3018 C3017 1.379 . S
H3019 C3013 0.959 . S
H3020 C3013 0.961 . S
H3021 C3013 0.960 . S
H3022 C3014 0.930 . S
H3023 C3015 0.929 . S
H3024 C3032 0.929 . S
H3025 C3034 0.930 . S
H3026 C3036 0.930 . S
H3027 C3039 0.929 . S
H3028 C3042 0.930 . S
H3029 C3044 0.960 . S
H3030 C3044 0.960 . S
H3031 C3044 0.960 . S
C3032 H3024 0.929 . S
C3032 C3033 1.377 . S
C3032 C3034 1.384 . S
C3033 C3032 1.377 . S
C3033 C3039 1.390 . S
C3034 H3025 0.930 . S
C3034 C3032 1.384 . S
C3034 C3035 1.372 . S
C3035 C3034 1.372 . S
C3035 C3036 1.400 . S
C3035 C3040 1.490 . S
C3036 H3026 0.930 . S
C3036 C3035 1.400 . S
C3036 C3039 1.386 . S
H3037 C3053 0.930 . S
H3038 C3054 0.931 . S
C3039 H3027 0.929 . S
C3039 C3033 1.390 . S
C3039 C3036 1.386 . S
C3040 C3035 1.490 . S
C3040 C3042 1.395 . S
C3040 C3043 1.403 . S
H3041 C3047 0.930 . S
C3042 H3028 0.930 . S
C3042 C3040 1.395 . S
C3042 C3045 1.403 . S
C3043 C3040 1.403 . S
C3043 C3044 1.524 . S
C3043 C3047 1.400 . S
C3044 H3029 0.960 . S
C3044 H3030 0.960 . S
C3044 H3031 0.960 . S
C3044 C3043 1.524 . S
C3045 C3042 1.403 . S
C3045 C3046 1.392 . S
C3045 C3049 1.495 . S
C3046 C3045 1.392 . S
C3046 C3047 1.385 . S
C3046 C3048 1.478 . S
C3047 H3041 0.930 . S
C3047 C3043 1.400 . S
C3047 C3046 1.385 . S
C3048 C3046 1.478 . S
C3048 C3050 1.381 . S
C3048 C3054 1.383 . S
C3049 C3045 1.495 . S
C3049 H3055 0.959 . S
C3049 H3056 0.961 . S
C3049 H3057 0.960 . S
C3050 C3048 1.381 . S
C3050 C3051 1.394 . S
C3050 H3058 0.930 . S
C3051 C3050 1.394 . S
C3051 C3052 1.383 . S
C3051 H3059 0.929 . S
C3052 C3051 1.383 . S
C3052 C3053 1.377 . S
C3053 H3037 0.930 . S
C3053 C3052 1.377 . S
C3053 C3054 1.379 . S
C3054 H3038 0.931 . S
C3054 C3048 1.383 . S
C3054 C3053 1.379 . S
H3055 C3049 0.959 . S
H3056 C3049 0.961 . S
H3057 C3049 0.960 . S
H3058 C3050 0.930 . S
H3059 C3051 0.929 . S
H3060 C3068 0.929 . S
H3061 C3070 0.930 . S
H3062 C3072 0.930 . S
H3063 C3075 0.929 . S
H3064 C3078 0.930 . S
H3065 C3080 0.960 . S
H3066 C3080 0.960 . S
H3067 C3080 0.960 . S
C3068 H3060 0.929 . S
C3068 C3069 1.377 . S
C3068 C3070 1.384 . S
C3069 C3068 1.377 . S
C3069 C3075 1.390 . S
C3070 H3061 0.930 . S
C3070 C3068 1.384 . S
C3070 C3071 1.372 . S
C3071 C3070 1.372 . S
C3071 C3072 1.400 . S
C3071 C3076 1.490 . S
C3072 H3062 0.930 . S
C3072 C3071 1.400 . S
C3072 C3075 1.386 . S
H3073 C3089 0.930 . S
H3074 C3090 0.931 . S
C3075 H3063 0.929 . S
C3075 C3069 1.390 . S
C3075 C3072 1.386 . S
C3076 C3071 1.490 . S
C3076 C3078 1.395 . S
C3076 C3079 1.403 . S
H3077 C3083 0.930 . S
C3078 H3064 0.930 . S
C3078 C3076 1.395 . S
C3078 C3081 1.403 . S
C3079 C3076 1.403 . S
C3079 C3080 1.524 . S
C3079 C3083 1.400 . S
C3080 H3065 0.960 . S
C3080 H3066 0.960 . S
C3080 H3067 0.960 . S
C3080 C3079 1.524 . S
C3081 C3078 1.403 . S
C3081 C3082 1.392 . S
C3081 C3085 1.495 . S
C3082 C3081 1.392 . S
C3082 C3083 1.385 . S
C3082 C3084 1.478 . S
C3083 H3077 0.930 . S
C3083 C3079 1.400 . S
C3083 C3082 1.385 . S
C3084 C3082 1.478 . S
C3084 C3086 1.381 . S
C3084 C3090 1.383 . S
C3085 C3081 1.495 . S
C3085 H3091 0.959 . S
C3085 H3092 0.961 . S
C3085 H3093 0.960 . S
C3086 C3084 1.381 . S
C3086 C3087 1.394 . S
C3086 H3094 0.930 . S
C3087 C3086 1.394 . S
C3087 C3088 1.383 . S
C3087 H3095 0.929 . S
C3088 C3087 1.383 . S
C3088 C3089 1.377 . S
C3089 H3073 0.930 . S
C3089 C3088 1.377 . S
C3089 C3090 1.379 . S
C3090 H3074 0.931 . S
C3090 C3084 1.383 . S
C3090 C3089 1.379 . S
H3091 C3085 0.959 . S
H3092 C3085 0.961 . S
H3093 C3085 0.960 . S
H3094 C3086 0.930 . S
H3095 C3087 0.929 . S
H3096 C3104 0.929 . S
H3097 C3106 0.930 . S
H3098 C3108 0.930 . S
H3099 C3111 0.929 . S
H3100 C3114 0.930 . S
H3101 C3116 0.960 . S
H3102 C3116 0.960 . S
H3103 C3116 0.960 . S
C3104 H3096 0.929 . S
C3104 C3105 1.377 . S
C3104 C3106 1.384 . S
C3105 C3104 1.377 . S
C3105 C3111 1.390 . S
C3106 H3097 0.930 . S
C3106 C3104 1.384 . S
C3106 C3107 1.372 . S
C3107 C3106 1.372 . S
C3107 C3108 1.400 . S
C3107 C3112 1.490 . S
C3108 H3098 0.930 . S
C3108 C3107 1.400 . S
C3108 C3111 1.386 . S
H3109 C3125 0.930 . S
H3110 C3126 0.931 . S
C3111 H3099 0.929 . S
C3111 C3105 1.390 . S
C3111 C3108 1.386 . S
C3112 C3107 1.490 . S
C3112 C3114 1.395 . S
C3112 C3115 1.403 . S
H3113 C3119 0.930 . S
C3114 H3100 0.930 . S
C3114 C3112 1.395 . S
C3114 C3117 1.403 . S
C3115 C3112 1.403 . S
C3115 C3116 1.524 . S
C3115 C3119 1.400 . S
C3116 H3101 0.960 . S
C3116 H3102 0.960 . S
C3116 H3103 0.960 . S
C3116 C3115 1.524 . S
C3117 C3114 1.403 . S
C3117 C3118 1.392 . S
C3117 C3121 1.495 . S
C3118 C3117 1.392 . S
C3118 C3119 1.385 . S
C3118 C3120 1.478 . S
C3119 H3113 0.930 . S
C3119 C3115 1.400 . S
C3119 C3118 1.385 . S
C3120 C3118 1.478 . S
C3120 C3122 1.381 . S
C3120 C3126 1.383 . S
C3121 C3117 1.495 . S
C3121 H3127 0.959 . S
C3121 H3128 0.961 . S
C3121 H3129 0.960 . S
C3122 C3120 1.381 . S
C3122 C3123 1.394 . S
C3122 H3130 0.930 . S
C3123 C3122 1.394 . S
C3123 C3124 1.383 . S
C3123 H3131 0.929 . S
C3124 C3123 1.383 . S
C3124 C3125 1.377 . S
C3125 H3109 0.930 . S
C3125 C3124 1.377 . S
C3125 C3126 1.379 . S
C3126 H3110 0.931 . S
C3126 C3120 1.383 . S
C3126 C3125 1.379 . S
H3127 C3121 0.959 . S
H3128 C3121 0.961 . S
H3129 C3121 0.960 . S
H3130 C3122 0.930 . S
H3131 C3123 0.929 . S
H3132 C3140 0.929 . S
H3133 C3142 0.930 . S
H3134 C3144 0.930 . S
H3135 C3147 0.929 . S
H3136 C3150 0.930 . S
H3137 C3152 0.960 . S
H3138 C3152 0.960 . S
H3139 C3152 0.960 . S
C3140 H3132 0.929 . S
C3140 C3141 1.377 . S
C3140 C3142 1.384 . S
C3141 C3140 1.377 . S
C3141 C3147 1.390 . S
C3142 H3133 0.930 . S
C3142 C3140 1.384 . S
C3142 C3143 1.372 . S
C3143 C3142 1.372 . S
C3143 C3144 1.400 . S
C3143 C3148 1.490 . S
C3144 H3134 0.930 . S
C3144 C3143 1.400 . S
C3144 C3147 1.386 . S
H3145 C3161 0.930 . S
H3146 C3162 0.931 . S
C3147 H3135 0.929 . S
C3147 C3141 1.390 . S
C3147 C3144 1.386 . S
C3148 C3143 1.490 . S
C3148 C3150 1.395 . S
C3148 C3151 1.403 . S
H3149 C3155 0.930 . S
C3150 H3136 0.930 . S
C3150 C3148 1.395 . S
C3150 C3153 1.403 . S
C3151 C3148 1.403 . S
C3151 C3152 1.524 . S
C3151 C3155 1.400 . S
C3152 H3137 0.960 . S
C3152 H3138 0.960 . S
C3152 H3139 0.960 . S
C3152 C3151 1.524 . S
C3153 C3150 1.403 . S
C3153 C3154 1.392 . S
C3153 C3157 1.495 . S
C3154 C3153 1.392 . S
C3154 C3155 1.385 . S
C3154 C3156 1.478 . S
C3155 H3149 0.930 . S
C3155 C3151 1.400 . S
C3155 C3154 1.385 . S
C3156 C3154 1.478 . S
C3156 C3158 1.381 . S
C3156 C3162 1.383 . S
C3157 C3153 1.495 . S
C3157 H3163 0.959 . S
C3157 H3164 0.961 . S
C3157 H3165 0.960 . S
C3158 C3156 1.381 . S
C3158 C3159 1.394 . S
C3158 H3166 0.930 . S
C3159 C3158 1.394 . S
C3159 C3160 1.383 . S
C3159 H3167 0.929 . S
C3160 C3159 1.383 . S
C3160 C3161 1.377 . S
C3161 H3145 0.930 . S
C3161 C3160 1.377 . S
C3161 C3162 1.379 . S
C3162 H3146 0.931 . S
C3162 C3156 1.383 . S
C3162 C3161 1.379 . S
H3163 C3157 0.959 . S
H3164 C3157 0.961 . S
H3165 C3157 0.960 . S
H3166 C3158 0.930 . S
H3167 C3159 0.929 . S
H3168 C3176 0.929 . S
H3169 C3178 0.930 . S
H3170 C3180 0.930 . S
H3171 C3183 0.929 . S
H3172 C3186 0.930 . S
H3173 C3188 0.960 . S
H3174 C3188 0.960 . S
H3175 C3188 0.960 . S
C3176 H3168 0.929 . S
C3176 C3177 1.377 . S
C3176 C3178 1.384 . S
C3177 C3176 1.377 . S
C3177 C3183 1.390 . S
C3178 H3169 0.930 . S
C3178 C3176 1.384 . S
C3178 C3179 1.372 . S
C3179 C3178 1.372 . S
C3179 C3180 1.400 . S
C3179 C3184 1.490 . S
C3180 H3170 0.930 . S
C3180 C3179 1.400 . S
C3180 C3183 1.386 . S
H3181 C3197 0.930 . S
H3182 C3198 0.931 . S
C3183 H3171 0.929 . S
C3183 C3177 1.390 . S
C3183 C3180 1.386 . S
C3184 C3179 1.490 . S
C3184 C3186 1.395 . S
C3184 C3187 1.403 . S
H3185 C3191 0.930 . S
C3186 H3172 0.930 . S
C3186 C3184 1.395 . S
C3186 C3189 1.403 . S
C3187 C3184 1.403 . S
C3187 C3188 1.524 . S
C3187 C3191 1.400 . S
C3188 H3173 0.960 . S
C3188 H3174 0.960 . S
C3188 H3175 0.960 . S
C3188 C3187 1.524 . S
C3189 C3186 1.403 . S
C3189 C3190 1.392 . S
C3189 C3193 1.495 . S
C3190 C3189 1.392 . S
C3190 C3191 1.385 . S
C3190 C3192 1.478 . S
C3191 H3185 0.930 . S
C3191 C3187 1.400 . S
C3191 C3190 1.385 . S
C3192 C3190 1.478 . S
C3192 C3194 1.381 . S
C3192 C3198 1.383 . S
C3193 C3189 1.495 . S
C3193 H3199 0.959 . S
C3193 H3200 0.961 . S
C3193 H3201 0.960 . S
C3194 C3192 1.381 . S
C3194 C3195 1.394 . S
C3194 H3202 0.930 . S
C3195 C3194 1.394 . S
C3195 C3196 1.383 . S
C3195 H3203 0.929 . S
C3196 C3195 1.383 . S
C3196 C3197 1.377 . S
C3197 H3181 0.930 . S
C3197 C3196 1.377 . S
C3197 C3198 1.379 . S
C3198 H3182 0.931 . S
C3198 C3192 1.383 . S
C3198 C3197 1.379 . S
H3199 C3193 0.959 . S
H3200 C3193 0.961 . S
H3201 C3193 0.960 . S
H3202 C3194 0.930 . S
H3203 C3195 0.929 . S
H3204 C3212 0.929 . S
H3205 C3214 0.930 . S
H3206 C3216 0.930 . S
H3207 C3219 0.929 . S
H3208 C3222 0.930 . S
H3209 C3224 0.960 . S
H3210 C3224 0.960 . S
H3211 C3224 0.960 . S
C3212 H3204 0.929 . S
C3212 C3213 1.377 . S
C3212 C3214 1.384 . S
C3213 C3212 1.377 . S
C3213 C3219 1.390 . S
C3214 H3205 0.930 . S
C3214 C3212 1.384 . S
C3214 C3215 1.372 . S
C3215 C3214 1.372 . S
C3215 C3216 1.400 . S
C3215 C3220 1.490 . S
C3216 H3206 0.930 . S
C3216 C3215 1.400 . S
C3216 C3219 1.386 . S
H3217 C3233 0.930 . S
H3218 C3234 0.931 . S
C3219 H3207 0.929 . S
C3219 C3213 1.390 . S
C3219 C3216 1.386 . S
C3220 C3215 1.490 . S
C3220 C3222 1.395 . S
C3220 C3223 1.403 . S
H3221 C3227 0.930 . S
C3222 H3208 0.930 . S
C3222 C3220 1.395 . S
C3222 C3225 1.403 . S
C3223 C3220 1.403 . S
C3223 C3224 1.524 . S
C3223 C3227 1.400 . S
C3224 H3209 0.960 . S
C3224 H3210 0.960 . S
C3224 H3211 0.960 . S
C3224 C3223 1.524 . S
C3225 C3222 1.403 . S
C3225 C3226 1.392 . S
C3225 C3229 1.495 . S
C3226 C3225 1.392 . S
C3226 C3227 1.385 . S
C3226 C3228 1.478 . S
C3227 H3221 0.930 . S
C3227 C3223 1.400 . S
C3227 C3226 1.385 . S
C3228 C3226 1.478 . S
C3228 C3230 1.381 . S
C3228 C3234 1.383 . S
C3229 C3225 1.495 . S
C3229 H3235 0.959 . S
C3229 H3236 0.961 . S
C3229 H3237 0.960 . S
C3230 C3228 1.381 . S
C3230 C3231 1.394 . S
C3230 H3238 0.930 . S
C3231 C3230 1.394 . S
C3231 C3232 1.383 . S
C3231 H3239 0.929 . S
C3232 C3231 1.383 . S
C3232 C3233 1.377 . S
C3233 H3217 0.930 . S
C3233 C3232 1.377 . S
C3233 C3234 1.379 . S
C3234 H3218 0.931 . S
C3234 C3228 1.383 . S
C3234 C3233 1.379 . S
H3235 C3229 0.959 . S
H3236 C3229 0.961 . S
H3237 C3229 0.960 . S
H3238 C3230 0.930 . S
H3239 C3231 0.929 . S
H3240 C3248 0.929 . S
H3241 C3250 0.930 . S
H3242 C3252 0.930 . S
H3243 C3255 0.929 . S
H3244 C3258 0.930 . S
H3245 C3260 0.960 . S
H3246 C3260 0.960 . S
H3247 C3260 0.960 . S
C3248 H3240 0.929 . S
C3248 C3249 1.377 . S
C3248 C3250 1.384 . S
C3249 C3248 1.377 . S
C3249 C3255 1.390 . S
C3250 H3241 0.930 . S
C3250 C3248 1.384 . S
C3250 C3251 1.372 . S
C3251 C3250 1.372 . S
C3251 C3252 1.400 . S
C3251 C3256 1.490 . S
C3252 H3242 0.930 . S
C3252 C3251 1.400 . S
C3252 C3255 1.386 . S
H3253 C3269 0.930 . S
H3254 C3270 0.931 . S
C3255 H3243 0.929 . S
C3255 C3249 1.390 . S
C3255 C3252 1.386 . S
C3256 C3251 1.490 . S
C3256 C3258 1.395 . S
C3256 C3259 1.403 . S
H3257 C3263 0.930 . S
C3258 H3244 0.930 . S
C3258 C3256 1.395 . S
C3258 C3261 1.403 . S
C3259 C3256 1.403 . S
C3259 C3260 1.524 . S
C3259 C3263 1.400 . S
C3260 H3245 0.960 . S
C3260 H3246 0.960 . S
C3260 H3247 0.960 . S
C3260 C3259 1.524 . S
C3261 C3258 1.403 . S
C3261 C3262 1.392 . S
C3261 C3265 1.495 . S
C3262 C3261 1.392 . S
C3262 C3263 1.385 . S
C3262 C3264 1.478 . S
C3263 H3257 0.930 . S
C3263 C3259 1.400 . S
C3263 C3262 1.385 . S
C3264 C3262 1.478 . S
C3264 C3266 1.381 . S
C3264 C3270 1.383 . S
C3265 C3261 1.495 . S
C3265 H3271 0.959 . S
C3265 H3272 0.961 . S
C3265 H3273 0.960 . S
C3266 C3264 1.381 . S
C3266 C3267 1.394 . S
C3266 H3274 0.930 . S
C3267 C3266 1.394 . S
C3267 C3268 1.383 . S
C3267 H3275 0.929 . S
C3268 C3267 1.383 . S
C3268 C3269 1.377 . S
C3269 H3253 0.930 . S
C3269 C3268 1.377 . S
C3269 C3270 1.379 . S
C3270 H3254 0.931 . S
C3270 C3264 1.383 . S
C3270 C3269 1.379 . S
H3271 C3265 0.959 . S
H3272 C3265 0.961 . S
H3273 C3265 0.960 . S
H3274 C3266 0.930 . S
H3275 C3267 0.929 . S
H3276 C3284 0.929 . S
H3277 C3286 0.930 . S
H3278 C3288 0.930 . S
H3279 C3291 0.929 . S
H3280 C3294 0.930 . S
H3281 C3296 0.960 . S
H3282 C3296 0.960 . S
H3283 C3296 0.960 . S
C3284 H3276 0.929 . S
C3284 C3285 1.377 . S
C3284 C3286 1.384 . S
C3285 C3284 1.377 . S
C3285 C3291 1.390 . S
C3286 H3277 0.930 . S
C3286 C3284 1.384 . S
C3286 C3287 1.372 . S
C3287 C3286 1.372 . S
C3287 C3288 1.400 . S
C3287 C3292 1.490 . S
C3288 H3278 0.930 . S
C3288 C3287 1.400 . S
C3288 C3291 1.386 . S
H3289 C3305 0.930 . S
H3290 C3306 0.931 . S
C3291 H3279 0.929 . S
C3291 C3285 1.390 . S
C3291 C3288 1.386 . S
C3292 C3287 1.490 . S
C3292 C3294 1.395 . S
C3292 C3295 1.403 . S
H3293 C3299 0.930 . S
C3294 H3280 0.930 . S
C3294 C3292 1.395 . S
C3294 C3297 1.403 . S
C3295 C3292 1.403 . S
C3295 C3296 1.524 . S
C3295 C3299 1.400 . S
C3296 H3281 0.960 . S
C3296 H3282 0.960 . S
C3296 H3283 0.960 . S
C3296 C3295 1.524 . S
C3297 C3294 1.403 . S
C3297 C3298 1.392 . S
C3297 C3301 1.495 . S
C3298 C3297 1.392 . S
C3298 C3299 1.385 . S
C3298 C3300 1.478 . S
C3299 H3293 0.930 . S
C3299 C3295 1.400 . S
C3299 C3298 1.385 . S
C3300 C3298 1.478 . S
C3300 C3302 1.381 . S
C3300 C3306 1.383 . S
C3301 C3297 1.495 . S
C3301 H3307 0.959 . S
C3301 H3308 0.961 . S
C3301 H3309 0.960 . S
C3302 C3300 1.381 . S
C3302 C3303 1.394 . S
C3302 H3310 0.930 . S
C3303 C3302 1.394 . S
C3303 C3304 1.383 . S
C3303 H3311 0.929 . S
C3304 C3303 1.383 . S
C3304 C3305 1.377 . S
C3305 H3289 0.930 . S
C3305 C3304 1.377 . S
C3305 C3306 1.379 . S
C3306 H3290 0.931 . S
C3306 C3300 1.383 . S
C3306 C3305 1.379 . S
H3307 C3301 0.959 . S
H3308 C3301 0.961 . S
H3309 C3301 0.960 . S
H3310 C3302 0.930 . S
H3311 C3303 0.929 . S
H3312 C3320 0.929 . S
H3313 C3322 0.930 . S
H3314 C3324 0.930 . S
H3315 C3327 0.929 . S
H3316 C3330 0.930 . S
H3317 C3332 0.960 . S
H3318 C3332 0.960 . S
H3319 C3332 0.960 . S
C3320 H3312 0.929 . S
C3320 C3321 1.377 . S
C3320 C3322 1.384 . S
C3321 C3320 1.377 . S
C3321 C3327 1.390 . S
C3322 H3313 0.930 . S
C3322 C3320 1.384 . S
C3322 C3323 1.372 . S
C3323 C3322 1.372 . S
C3323 C3324 1.400 . S
C3323 C3328 1.490 . S
C3324 H3314 0.930 . S
C3324 C3323 1.400 . S
C3324 C3327 1.386 . S
H3325 C3341 0.930 . S
H3326 C3342 0.931 . S
C3327 H3315 0.929 . S
C3327 C3321 1.390 . S
C3327 C3324 1.386 . S
C3328 C3323 1.490 . S
C3328 C3330 1.395 . S
C3328 C3331 1.403 . S
H3329 C3335 0.930 . S
C3330 H3316 0.930 . S
C3330 C3328 1.395 . S
C3330 C3333 1.403 . S
C3331 C3328 1.403 . S
C3331 C3332 1.524 . S
C3331 C3335 1.400 . S
C3332 H3317 0.960 . S
C3332 H3318 0.960 . S
C3332 H3319 0.960 . S
C3332 C3331 1.524 . S
C3333 C3330 1.403 . S
C3333 C3334 1.392 . S
C3333 C3337 1.495 . S
C3334 C3333 1.392 . S
C3334 C3335 1.385 . S
C3334 C3336 1.478 . S
C3335 H3329 0.930 . S
C3335 C3331 1.400 . S
C3335 C3334 1.385 . S
C3336 C3334 1.478 . S
C3336 C3338 1.381 . S
C3336 C3342 1.383 . S
C3337 C3333 1.495 . S
C3337 H3343 0.959 . S
C3337 H3344 0.961 . S
C3337 H3345 0.960 . S
C3338 C3336 1.381 . S
C3338 C3339 1.394 . S
C3338 H3346 0.930 . S
C3339 C3338 1.394 . S
C3339 C3340 1.383 . S
C3339 H3347 0.929 . S
C3340 C3339 1.383 . S
C3340 C3341 1.377 . S
C3341 H3325 0.930 . S
C3341 C3340 1.377 . S
C3341 C3342 1.379 . S
C3342 H3326 0.931 . S
C3342 C3336 1.383 . S
C3342 C3341 1.379 . S
H3343 C3337 0.959 . S
H3344 C3337 0.961 . S
H3345 C3337 0.960 . S
H3346 C3338 0.930 . S
H3347 C3339 0.929 . S
H3348 C3356 0.929 . S
H3349 C3358 0.930 . S
H3350 C3360 0.930 . S
H3351 C3363 0.929 . S
H3352 C3366 0.930 . S
H3353 C3368 0.960 . S
H3354 C3368 0.960 . S
H3355 C3368 0.960 . S
C3356 H3348 0.929 . S
C3356 C3357 1.377 . S
C3356 C3358 1.384 . S
C3357 C3356 1.377 . S
C3357 C3363 1.390 . S
C3358 H3349 0.930 . S
C3358 C3356 1.384 . S
C3358 C3359 1.372 . S
C3359 C3358 1.372 . S
C3359 C3360 1.400 . S
C3359 C3364 1.490 . S
C3360 H3350 0.930 . S
C3360 C3359 1.400 . S
C3360 C3363 1.386 . S
H3361 C3377 0.930 . S
H3362 C3378 0.931 . S
C3363 H3351 0.929 . S
C3363 C3357 1.390 . S
C3363 C3360 1.386 . S
C3364 C3359 1.490 . S
C3364 C3366 1.395 . S
C3364 C3367 1.403 . S
H3365 C3371 0.930 . S
C3366 H3352 0.930 . S
C3366 C3364 1.395 . S
C3366 C3369 1.403 . S
C3367 C3364 1.403 . S
C3367 C3368 1.524 . S
C3367 C3371 1.400 . S
C3368 H3353 0.960 . S
C3368 H3354 0.960 . S
C3368 H3355 0.960 . S
C3368 C3367 1.524 . S
C3369 C3366 1.403 . S
C3369 C3370 1.392 . S
C3369 C3373 1.495 . S
C3370 C3369 1.392 . S
C3370 C3371 1.385 . S
C3370 C3372 1.478 . S
C3371 H3365 0.930 . S
C3371 C3367 1.400 . S
C3371 C3370 1.385 . S
C3372 C3370 1.478 . S
C3372 C3374 1.381 . S
C3372 C3378 1.383 . S
C3373 C3369 1.495 . S
C3373 H3379 0.959 . S
C3373 H3380 0.961 . S
C3373 H3381 0.960 . S
C3374 C3372 1.381 . S
C3374 C3375 1.394 . S
C3374 H3382 0.930 . S
C3375 C3374 1.394 . S
C3375 C3376 1.383 . S
C3375 H3383 0.929 . S
C3376 C3375 1.383 . S
C3376 C3377 1.377 . S
C3377 H3361 0.930 . S
C3377 C3376 1.377 . S
C3377 C3378 1.379 . S
C3378 H3362 0.931 . S
C3378 C3372 1.383 . S
C3378 C3377 1.379 . S
H3379 C3373 0.959 . S
H3380 C3373 0.961 . S
H3381 C3373 0.960 . S
H3382 C3374 0.930 . S
H3383 C3375 0.929 . S
H3384 C3392 0.929 . S
H3385 C3394 0.930 . S
H3386 C3396 0.930 . S
H3387 C3399 0.929 . S
H3388 C3402 0.930 . S
H3389 C3404 0.960 . S
H3390 C3404 0.960 . S
H3391 C3404 0.960 . S
C3392 H3384 0.929 . S
C3392 C3393 1.377 . S
C3392 C3394 1.384 . S
C3393 C3392 1.377 . S
C3393 C3399 1.390 . S
C3394 H3385 0.930 . S
C3394 C3392 1.384 . S
C3394 C3395 1.372 . S
C3395 C3394 1.372 . S
C3395 C3396 1.400 . S
C3395 C3400 1.490 . S
C3396 H3386 0.930 . S
C3396 C3395 1.400 . S
C3396 C3399 1.386 . S
H3397 C3413 0.930 . S
H3398 C3414 0.931 . S
C3399 H3387 0.929 . S
C3399 C3393 1.390 . S
C3399 C3396 1.386 . S
C3400 C3395 1.490 . S
C3400 C3402 1.395 . S
C3400 C3403 1.403 . S
H3401 C3407 0.930 . S
C3402 H3388 0.930 . S
C3402 C3400 1.395 . S
C3402 C3405 1.403 . S
C3403 C3400 1.403 . S
C3403 C3404 1.524 . S
C3403 C3407 1.400 . S
C3404 H3389 0.960 . S
C3404 H3390 0.960 . S
C3404 H3391 0.960 . S
C3404 C3403 1.524 . S
C3405 C3402 1.403 . S
C3405 C3406 1.392 . S
C3405 C3409 1.495 . S
C3406 C3405 1.392 . S
C3406 C3407 1.385 . S
C3406 C3408 1.478 . S
C3407 H3401 0.930 . S
C3407 C3403 1.400 . S
C3407 C3406 1.385 . S
C3408 C3406 1.478 . S
C3408 C3410 1.381 . S
C3408 C3414 1.383 . S
C3409 C3405 1.495 . S
C3409 H3415 0.959 . S
C3409 H3416 0.961 . S
C3409 H3417 0.960 . S
C3410 C3408 1.381 . S
C3410 C3411 1.394 . S
C3410 H3418 0.930 . S
C3411 C3410 1.394 . S
C3411 C3412 1.383 . S
C3411 H3419 0.929 . S
C3412 C3411 1.383 . S
C3412 C3413 1.377 . S
C3413 H3397 0.930 . S
C3413 C3412 1.377 . S
C3413 C3414 1.379 . S
C3414 H3398 0.931 . S
C3414 C3408 1.383 . S
C3414 C3413 1.379 . S
H3415 C3409 0.959 . S
H3416 C3409 0.961 . S
H3417 C3409 0.960 . S
H3418 C3410 0.930 . S
H3419 C3411 0.929 . S
H3420 C3428 0.929 . S
H3421 C3430 0.930 . S
H3422 C3432 0.930 . S
H3423 C3435 0.929 . S
H3424 C3438 0.930 . S
H3425 C3440 0.960 . S
H3426 C3440 0.960 . S
H3427 C3440 0.960 . S
C3428 H3420 0.929 . S
C3428 C3429 1.377 . S
C3428 C3430 1.384 . S
C3429 C3428 1.377 . S
C3429 C3435 1.390 . S
C3430 H3421 0.930 . S
C3430 C3428 1.384 . S
C3430 C3431 1.372 . S
C3431 C3430 1.372 . S
C3431 C3432 1.400 . S
C3431 C3436 1.490 . S
C3432 H3422 0.930 . S
C3432 C3431 1.400 . S
C3432 C3435 1.386 . S
H3433 C3449 0.930 . S
H3434 C3450 0.931 . S
C3435 H3423 0.929 . S
C3435 C3429 1.390 . S
C3435 C3432 1.386 . S
C3436 C3431 1.490 . S
C3436 C3438 1.395 . S
C3436 C3439 1.403 . S
H3437 C3443 0.930 . S
C3438 H3424 0.930 . S
C3438 C3436 1.395 . S
C3438 C3441 1.403 . S
C3439 C3436 1.403 . S
C3439 C3440 1.524 . S
C3439 C3443 1.400 . S
C3440 H3425 0.960 . S
C3440 H3426 0.960 . S
C3440 H3427 0.960 . S
C3440 C3439 1.524 . S
C3441 C3438 1.403 . S
C3441 C3442 1.392 . S
C3441 C3445 1.495 . S
C3442 C3441 1.392 . S
C3442 C3443 1.385 . S
C3442 C3444 1.478 . S
C3443 H3437 0.930 . S
C3443 C3439 1.400 . S
C3443 C3442 1.385 . S
C3444 C3442 1.478 . S
C3444 C3446 1.381 . S
C3444 C3450 1.383 . S
C3445 C3441 1.495 . S
C3445 H3451 0.959 . S
C3445 H3452 0.961 . S
C3445 H3453 0.960 . S
C3446 C3444 1.381 . S
C3446 C3447 1.394 . S
C3446 H3454 0.930 . S
C3447 C3446 1.394 . S
C3447 C3448 1.383 . S
C3447 H3455 0.929 . S
C3448 C3447 1.383 . S
C3448 C3449 1.377 . S
C3449 H3433 0.930 . S
C3449 C3448 1.377 . S
C3449 C3450 1.379 . S
C3450 H3434 0.931 . S
C3450 C3444 1.383 . S
C3450 C3449 1.379 . S
H3451 C3445 0.959 . S
H3452 C3445 0.961 . S
H3453 C3445 0.960 . S
H3454 C3446 0.930 . S
H3455 C3447 0.929 . S
H3456 C3464 0.929 . S
H3457 C3466 0.930 . S
H3458 C3468 0.930 . S
H3459 C3471 0.929 . S
H3460 C3474 0.930 . S
H3461 C3476 0.960 . S
H3462 C3476 0.960 . S
H3463 C3476 0.960 . S
C3464 H3456 0.929 . S
C3464 C3465 1.377 . S
C3464 C3466 1.384 . S
C3465 C3464 1.377 . S
C3465 C3471 1.390 . S
C3466 H3457 0.930 . S
C3466 C3464 1.384 . S
C3466 C3467 1.372 . S
C3467 C3466 1.372 . S
C3467 C3468 1.400 . S
C3467 C3472 1.490 . S
C3468 H3458 0.930 . S
C3468 C3467 1.400 . S
C3468 C3471 1.386 . S
H3469 C3485 0.930 . S
H3470 C3486 0.931 . S
C3471 H3459 0.929 . S
C3471 C3465 1.390 . S
C3471 C3468 1.386 . S
C3472 C3467 1.490 . S
C3472 C3474 1.395 . S
C3472 C3475 1.403 . S
H3473 C3479 0.930 . S
C3474 H3460 0.930 . S
C3474 C3472 1.395 . S
C3474 C3477 1.403 . S
C3475 C3472 1.403 . S
C3475 C3476 1.524 . S
C3475 C3479 1.400 . S
C3476 H3461 0.960 . S
C3476 H3462 0.960 . S
C3476 H3463 0.960 . S
C3476 C3475 1.524 . S
C3477 C3474 1.403 . S
C3477 C3478 1.392 . S
C3477 C3481 1.495 . S
C3478 C3477 1.392 . S
C3478 C3479 1.385 . S
C3478 C3480 1.478 . S
C3479 H3473 0.930 . S
C3479 C3475 1.400 . S
C3479 C3478 1.385 . S
C3480 C3478 1.478 . S
C3480 C3482 1.381 . S
C3480 C3486 1.383 . S
C3481 C3477 1.495 . S
C3481 H3487 0.959 . S
C3481 H3488 0.961 . S
C3481 H3489 0.960 . S
C3482 C3480 1.381 . S
C3482 C3483 1.394 . S
C3482 H3490 0.930 . S
C3483 C3482 1.394 . S
C3483 C3484 1.383 . S
C3483 H3491 0.929 . S
C3484 C3483 1.383 . S
C3484 C3485 1.377 . S
C3485 H3469 0.930 . S
C3485 C3484 1.377 . S
C3485 C3486 1.379 . S
C3486 H3470 0.931 . S
C3486 C3480 1.383 . S
C3486 C3485 1.379 . S
H3487 C3481 0.959 . S
H3488 C3481 0.961 . S
H3489 C3481 0.960 . S
H3490 C3482 0.930 . S
H3491 C3483 0.929 . S
H3492 C3500 0.929 . S
H3493 C3502 0.930 . S
H3494 C3504 0.930 . S
H3495 C3507 0.929 . S
H3496 C3510 0.930 . S
H3497 C3512 0.960 . S
H3498 C3512 0.960 . S
H3499 C3512 0.960 . S
C3500 H3492 0.929 . S
C3500 C3501 1.377 . S
C3500 C3502 1.384 . S
C3501 C3500 1.377 . S
C3501 C3507 1.390 . S
C3502 H3493 0.930 . S
C3502 C3500 1.384 . S
C3502 C3503 1.372 . S
C3503 C3502 1.372 . S
C3503 C3504 1.400 . S
C3503 C3508 1.490 . S
C3504 H3494 0.930 . S
C3504 C3503 1.400 . S
C3504 C3507 1.386 . S
H3505 C3521 0.930 . S
H3506 C3522 0.931 . S
C3507 H3495 0.929 . S
C3507 C3501 1.390 . S
C3507 C3504 1.386 . S
C3508 C3503 1.490 . S
C3508 C3510 1.395 . S
C3508 C3511 1.403 . S
H3509 C3515 0.930 . S
C3510 H3496 0.930 . S
C3510 C3508 1.395 . S
C3510 C3513 1.403 . S
C3511 C3508 1.403 . S
C3511 C3512 1.524 . S
C3511 C3515 1.400 . S
C3512 H3497 0.960 . S
C3512 H3498 0.960 . S
C3512 H3499 0.960 . S
C3512 C3511 1.524 . S
C3513 C3510 1.403 . S
C3513 C3514 1.392 . S
C3513 C3517 1.495 . S
C3514 C3513 1.392 . S
C3514 C3515 1.385 . S
C3514 C3516 1.478 . S
C3515 H3509 0.930 . S
C3515 C3511 1.400 . S
C3515 C3514 1.385 . S
C3516 C3514 1.478 . S
C3516 C3518 1.381 . S
C3516 C3522 1.383 . S
C3517 C3513 1.495 . S
C3517 H3523 0.959 . S
C3517 H3524 0.961 . S
C3517 H3525 0.960 . S
C3518 C3516 1.381 . S
C3518 C3519 1.394 . S
C3518 H3526 0.930 . S
C3519 C3518 1.394 . S
C3519 C3520 1.383 . S
C3519 H3527 0.929 . S
C3520 C3519 1.383 . S
C3520 C3521 1.377 . S
C3521 H3505 0.930 . S
C3521 C3520 1.377 . S
C3521 C3522 1.379 . S
C3522 H3506 0.931 . S
C3522 C3516 1.383 . S
C3522 C3521 1.379 . S
H3523 C3517 0.959 . S
H3524 C3517 0.961 . S
H3525 C3517 0.960 . S
H3526 C3518 0.930 . S
H3527 C3519 0.929 . S
H3528 C3536 0.929 . S
H3529 C3538 0.930 . S
H3530 C3540 0.930 . S
H3531 C3543 0.929 . S
H3532 C3546 0.930 . S
H3533 C3548 0.960 . S
H3534 C3548 0.960 . S
H3535 C3548 0.960 . S
C3536 H3528 0.929 . S
C3536 C3537 1.377 . S
C3536 C3538 1.384 . S
C3537 C3536 1.377 . S
C3537 C3543 1.390 . S
C3538 H3529 0.930 . S
C3538 C3536 1.384 . S
C3538 C3539 1.372 . S
C3539 C3538 1.372 . S
C3539 C3540 1.400 . S
C3539 C3544 1.490 . S
C3540 H3530 0.930 . S
C3540 C3539 1.400 . S
C3540 C3543 1.386 . S
H3541 C3557 0.930 . S
H3542 C3558 0.931 . S
C3543 H3531 0.929 . S
C3543 C3537 1.390 . S
C3543 C3540 1.386 . S
C3544 C3539 1.490 . S
C3544 C3546 1.395 . S
C3544 C3547 1.403 . S
H3545 C3551 0.930 . S
C3546 H3532 0.930 . S
C3546 C3544 1.395 . S
C3546 C3549 1.403 . S
C3547 C3544 1.403 . S
C3547 C3548 1.524 . S
C3547 C3551 1.400 . S
C3548 H3533 0.960 . S
C3548 H3534 0.960 . S
C3548 H3535 0.960 . S
C3548 C3547 1.524 . S
C3549 C3546 1.403 . S
C3549 C3550 1.392 . S
C3549 C3553 1.495 . S
C3550 C3549 1.392 . S
C3550 C3551 1.385 . S
C3550 C3552 1.478 . S
C3551 H3545 0.930 . S
C3551 C3547 1.400 . S
C3551 C3550 1.385 . S
C3552 C3550 1.478 . S
C3552 C3554 1.381 . S
C3552 C3558 1.383 . S
C3553 C3549 1.495 . S
C3553 H3559 0.959 . S
C3553 H3560 0.961 . S
C3553 H3561 0.960 . S
C3554 C3552 1.381 . S
C3554 C3555 1.394 . S
C3554 H3562 0.930 . S
C3555 C3554 1.394 . S
C3555 C3556 1.383 . S
C3555 H3563 0.929 . S
C3556 C3555 1.383 . S
C3556 C3557 1.377 . S
C3557 H3541 0.930 . S
C3557 C3556 1.377 . S
C3557 C3558 1.379 . S
C3558 H3542 0.931 . S
C3558 C3552 1.383 . S
C3558 C3557 1.379 . S
H3559 C3553 0.959 . S
H3560 C3553 0.961 . S
H3561 C3553 0.960 . S
H3562 C3554 0.930 . S
H3563 C3555 0.929 . S
H3564 C3572 0.929 . S
H3565 C3574 0.930 . S
H3566 C3576 0.930 . S
H3567 C3579 0.929 . S
H3568 C3582 0.930 . S
H3569 C3584 0.960 . S
H3570 C3584 0.960 . S
H3571 C3584 0.960 . S
C3572 H3564 0.929 . S
C3572 C3573 1.377 . S
C3572 C3574 1.384 . S
C3573 C3572 1.377 . S
C3573 C3579 1.390 . S
C3574 H3565 0.930 . S
C3574 C3572 1.384 . S
C3574 C3575 1.372 . S
C3575 C3574 1.372 . S
C3575 C3576 1.400 . S
C3575 C3580 1.490 . S
C3576 H3566 0.930 . S
C3576 C3575 1.400 . S
C3576 C3579 1.386 . S
H3577 C3593 0.930 . S
H3578 C3594 0.931 . S
C3579 H3567 0.929 . S
C3579 C3573 1.390 . S
C3579 C3576 1.386 . S
C3580 C3575 1.490 . S
C3580 C3582 1.395 . S
C3580 C3583 1.403 . S
H3581 C3587 0.930 . S
C3582 H3568 0.930 . S
C3582 C3580 1.395 . S
C3582 C3585 1.403 . S
C3583 C3580 1.403 . S
C3583 C3584 1.524 . S
C3583 C3587 1.400 . S
C3584 H3569 0.960 . S
C3584 H3570 0.960 . S
C3584 H3571 0.960 . S
C3584 C3583 1.524 . S
C3585 C3582 1.403 . S
C3585 C3586 1.392 . S
C3585 C3589 1.495 . S
C3586 C3585 1.392 . S
C3586 C3587 1.385 . S
C3586 C3588 1.478 . S
C3587 H3581 0.930 . S
C3587 C3583 1.400 . S
C3587 C3586 1.385 . S
C3588 C3586 1.478 . S
C3588 C3590 1.381 . S
C3588 C3594 1.383 . S
C3589 C3585 1.495 . S
C3589 H3595 0.959 . S
C3589 H3596 0.961 . S
C3589 H3597 0.960 . S
C3590 C3588 1.381 . S
C3590 C3591 1.394 . S
C3590 H3598 0.930 . S
C3591 C3590 1.394 . S
C3591 C3592 1.383 . S
C3591 H3599 0.929 . S
C3592 C3591 1.383 . S
C3592 C3593 1.377 . S
C3593 H3577 0.930 . S
C3593 C3592 1.377 . S
C3593 C3594 1.379 . S
C3594 H3578 0.931 . S
C3594 C3588 1.383 . S
C3594 C3593 1.379 . S
H3595 C3589 0.959 . S
H3596 C3589 0.961 . S
H3597 C3589 0.960 . S
H3598 C3590 0.930 . S
H3599 C3591 0.929 . S
H3600 C3608 0.929 . S
H3601 C3610 0.930 . S
H3602 C3612 0.930 . S
H3603 C3615 0.929 . S
H3604 C3618 0.930 . S
H3605 C3620 0.960 . S
H3606 C3620 0.960 . S
H3607 C3620 0.960 . S
C3608 H3600 0.929 . S
C3608 C3609 1.377 . S
C3608 C3610 1.384 . S
C3609 C3608 1.377 . S
C3609 C3615 1.390 . S
C3610 H3601 0.930 . S
C3610 C3608 1.384 . S
C3610 C3611 1.372 . S
C3611 C3610 1.372 . S
C3611 C3612 1.400 . S
C3611 C3616 1.490 . S
C3612 H3602 0.930 . S
C3612 C3611 1.400 . S
C3612 C3615 1.386 . S
H3613 C3629 0.930 . S
H3614 C3630 0.931 . S
C3615 H3603 0.929 . S
C3615 C3609 1.390 . S
C3615 C3612 1.386 . S
C3616 C3611 1.490 . S
C3616 C3618 1.395 . S
C3616 C3619 1.403 . S
H3617 C3623 0.930 . S
C3618 H3604 0.930 . S
C3618 C3616 1.395 . S
C3618 C3621 1.403 . S
C3619 C3616 1.403 . S
C3619 C3620 1.524 . S
C3619 C3623 1.400 . S
C3620 H3605 0.960 . S
C3620 H3606 0.960 . S
C3620 H3607 0.960 . S
C3620 C3619 1.524 . S
C3621 C3618 1.403 . S
C3621 C3622 1.392 . S
C3621 C3625 1.495 . S
C3622 C3621 1.392 . S
C3622 C3623 1.385 . S
C3622 C3624 1.478 . S
C3623 H3617 0.930 . S
C3623 C3619 1.400 . S
C3623 C3622 1.385 . S
C3624 C3622 1.478 . S
C3624 C3626 1.381 . S
C3624 C3630 1.383 . S
C3625 C3621 1.495 . S
C3625 H3631 0.959 . S
C3625 H3632 0.961 . S
C3625 H3633 0.960 . S
C3626 C3624 1.381 . S
C3626 C3627 1.394 . S
C3626 H3634 0.930 . S
C3627 C3626 1.394 . S
C3627 C3628 1.383 . S
C3627 H3635 0.929 . S
C3628 C3627 1.383 . S
C3628 C3629 1.377 . S
C3629 H3613 0.930 . S
C3629 C3628 1.377 . S
C3629 C3630 1.379 . S
C3630 H3614 0.931 . S
C3630 C3624 1.383 . S
C3630 C3629 1.379 . S
H3631 C3625 0.959 . S
H3632 C3625 0.961 . S
H3633 C3625 0.960 . S
H3634 C3626 0.930 . S
H3635 C3627 0.929 . S
H3636 C3644 0.929 . S
H3637 C3646 0.930 . S
H3638 C3648 0.930 . S
H3639 C3651 0.929 . S
H3640 C3654 0.930 . S
H3641 C3656 0.960 . S
H3642 C3656 0.960 . S
H3643 C3656 0.960 . S
C3644 H3636 0.929 . S
C3644 C3645 1.377 . S
C3644 C3646 1.384 . S
C3645 C3644 1.377 . S
C3645 C3651 1.390 . S
C3646 H3637 0.930 . S
C3646 C3644 1.384 . S
C3646 C3647 1.372 . S
C3647 C3646 1.372 . S
C3647 C3648 1.400 . S
C3647 C3652 1.490 . S
C3648 H3638 0.930 . S
C3648 C3647 1.400 . S
C3648 C3651 1.386 . S
H3649 C3665 0.930 . S
H3650 C3666 0.931 . S
C3651 H3639 0.929 . S
C3651 C3645 1.390 . S
C3651 C3648 1.386 . S
C3652 C3647 1.490 . S
C3652 C3654 1.395 . S
C3652 C3655 1.403 . S
H3653 C3659 0.930 . S
C3654 H3640 0.930 . S
C3654 C3652 1.395 . S
C3654 C3657 1.403 . S
C3655 C3652 1.403 . S
C3655 C3656 1.524 . S
C3655 C3659 1.400 . S
C3656 H3641 0.960 . S
C3656 H3642 0.960 . S
C3656 H3643 0.960 . S
C3656 C3655 1.524 . S
C3657 C3654 1.403 . S
C3657 C3658 1.392 . S
C3657 C3661 1.495 . S
C3658 C3657 1.392 . S
C3658 C3659 1.385 . S
C3658 C3660 1.478 . S
C3659 H3653 0.930 . S
C3659 C3655 1.400 . S
C3659 C3658 1.385 . S
C3660 C3658 1.478 . S
C3660 C3662 1.381 . S
C3660 C3666 1.383 . S
C3661 C3657 1.495 . S
C3661 H3667 0.959 . S
C3661 H3668 0.961 . S
C3661 H3669 0.960 . S
C3662 C3660 1.381 . S
C3662 C3663 1.394 . S
C3662 H3670 0.930 . S
C3663 C3662 1.394 . S
C3663 C3664 1.383 . S
C3663 H3671 0.929 . S
C3664 C3663 1.383 . S
C3664 C3665 1.377 . S
C3665 H3649 0.930 . S
C3665 C3664 1.377 . S
C3665 C3666 1.379 . S
C3666 H3650 0.931 . S
C3666 C3660 1.383 . S
C3666 C3665 1.379 . S
H3667 C3661 0.959 . S
H3668 C3661 0.961 . S
H3669 C3661 0.960 . S
H3670 C3662 0.930 . S
H3671 C3663 0.929 . S
H3672 C3680 0.929 . S
H3673 C3682 0.930 . S
H3674 C3684 0.930 . S
H3675 C3687 0.929 . S
H3676 C3690 0.930 . S
H3677 C3692 0.960 . S
H3678 C3692 0.960 . S
H3679 C3692 0.960 . S
C3680 H3672 0.929 . S
C3680 C3681 1.377 . S
C3680 C3682 1.384 . S
C3681 C3680 1.377 . S
C3681 C3687 1.390 . S
C3682 H3673 0.930 . S
C3682 C3680 1.384 . S
C3682 C3683 1.372 . S
C3683 C3682 1.372 . S
C3683 C3684 1.400 . S
C3683 C3688 1.490 . S
C3684 H3674 0.930 . S
C3684 C3683 1.400 . S
C3684 C3687 1.386 . S
H3685 C3701 0.930 . S
H3686 C3702 0.931 . S
C3687 H3675 0.929 . S
C3687 C3681 1.390 . S
C3687 C3684 1.386 . S
C3688 C3683 1.490 . S
C3688 C3690 1.395 . S
C3688 C3691 1.403 . S
H3689 C3695 0.930 . S
C3690 H3676 0.930 . S
C3690 C3688 1.395 . S
C3690 C3693 1.403 . S
C3691 C3688 1.403 . S
C3691 C3692 1.524 . S
C3691 C3695 1.400 . S
C3692 H3677 0.960 . S
C3692 H3678 0.960 . S
C3692 H3679 0.960 . S
C3692 C3691 1.524 . S
C3693 C3690 1.403 . S
C3693 C3694 1.392 . S
C3693 C3697 1.495 . S
C3694 C3693 1.392 . S
C3694 C3695 1.385 . S
C3694 C3696 1.478 . S
C3695 H3689 0.930 . S
C3695 C3691 1.400 . S
C3695 C3694 1.385 . S
C3696 C3694 1.478 . S
C3696 C3698 1.381 . S
C3696 C3702 1.383 . S
C3697 C3693 1.495 . S
C3697 H3703 0.959 . S
C3697 H3704 0.961 . S
C3697 H3705 0.960 . S
C3698 C3696 1.381 . S
C3698 C3699 1.394 . S
C3698 H3706 0.930 . S
C3699 C3698 1.394 . S
C3699 C3700 1.383 . S
C3699 H3707 0.929 . S
C3700 C3699 1.383 . S
C3700 C3701 1.377 . S
C3701 H3685 0.930 . S
C3701 C3700 1.377 . S
C3701 C3702 1.379 . S
C3702 H3686 0.931 . S
C3702 C3696 1.383 . S
C3702 C3701 1.379 . S
H3703 C3697 0.959 . S
H3704 C3697 0.961 . S
H3705 C3697 0.960 . S
H3706 C3698 0.930 . S
H3707 C3699 0.929 . S
H3708 C3716 0.929 . S
H3709 C3718 0.930 . S
H3710 C3720 0.930 . S
H3711 C3723 0.929 . S
H3712 C3726 0.930 . S
H3713 C3728 0.960 . S
H3714 C3728 0.960 . S
H3715 C3728 0.960 . S
C3716 H3708 0.929 . S
C3716 C3717 1.377 . S
C3716 C3718 1.384 . S
C3717 C3716 1.377 . S
C3717 C3723 1.390 . S
C3718 H3709 0.930 . S
C3718 C3716 1.384 . S
C3718 C3719 1.372 . S
C3719 C3718 1.372 . S
C3719 C3720 1.400 . S
C3719 C3724 1.490 . S
C3720 H3710 0.930 . S
C3720 C3719 1.400 . S
C3720 C3723 1.386 . S
H3721 C3737 0.930 . S
H3722 C3738 0.931 . S
C3723 H3711 0.929 . S
C3723 C3717 1.390 . S
C3723 C3720 1.386 . S
C3724 C3719 1.490 . S
C3724 C3726 1.395 . S
C3724 C3727 1.403 . S
H3725 C3731 0.930 . S
C3726 H3712 0.930 . S
C3726 C3724 1.395 . S
C3726 C3729 1.403 . S
C3727 C3724 1.403 . S
C3727 C3728 1.524 . S
C3727 C3731 1.400 . S
C3728 H3713 0.960 . S
C3728 H3714 0.960 . S
C3728 H3715 0.960 . S
C3728 C3727 1.524 . S
C3729 C3726 1.403 . S
C3729 C3730 1.392 . S
C3729 C3733 1.495 . S
C3730 C3729 1.392 . S
C3730 C3731 1.385 . S
C3730 C3732 1.478 . S
C3731 H3725 0.930 . S
C3731 C3727 1.400 . S
C3731 C3730 1.385 . S
C3732 C3730 1.478 . S
C3732 C3734 1.381 . S
C3732 C3738 1.383 . S
C3733 C3729 1.495 . S
C3733 H3739 0.959 . S
C3733 H3740 0.961 . S
C3733 H3741 0.960 . S
C3734 C3732 1.381 . S
C3734 C3735 1.394 . S
C3734 H3742 0.930 . S
C3735 C3734 1.394 . S
C3735 C3736 1.383 . S
C3735 H3743 0.929 . S
C3736 C3735 1.383 . S
C3736 C3737 1.377 . S
C3737 H3721 0.930 . S
C3737 C3736 1.377 . S
C3737 C3738 1.379 . S
C3738 H3722 0.931 . S
C3738 C3732 1.383 . S
C3738 C3737 1.379 . S
H3739 C3733 0.959 . S
H3740 C3733 0.961 . S
H3741 C3733 0.960 . S
H3742 C3734 0.930 . S
H3743 C3735 0.929 . S
H3744 C3752 0.929 . S
H3745 C3754 0.930 . S
H3746 C3756 0.930 . S
H3747 C3759 0.929 . S
H3748 C3762 0.930 . S
H3749 C3764 0.960 . S
H3750 C3764 0.960 . S
H3751 C3764 0.960 . S
C3752 H3744 0.929 . S
C3752 C3753 1.377 . S
C3752 C3754 1.384 . S
C3753 C3752 1.377 . S
C3753 C3759 1.390 . S
C3754 H3745 0.930 . S
C3754 C3752 1.384 . S
C3754 C3755 1.372 . S
C3755 C3754 1.372 . S
C3755 C3756 1.400 . S
C3755 C3760 1.490 . S
C3756 H3746 0.930 . S
C3756 C3755 1.400 . S
C3756 C3759 1.386 . S
H3757 C3773 0.930 . S
H3758 C3774 0.931 . S
C3759 H3747 0.929 . S
C3759 C3753 1.390 . S
C3759 C3756 1.386 . S
C3760 C3755 1.490 . S
C3760 C3762 1.395 . S
C3760 C3763 1.403 . S
H3761 C3767 0.930 . S
C3762 H3748 0.930 . S
C3762 C3760 1.395 . S
C3762 C3765 1.403 . S
C3763 C3760 1.403 . S
C3763 C3764 1.524 . S
C3763 C3767 1.400 . S
C3764 H3749 0.960 . S
C3764 H3750 0.960 . S
C3764 H3751 0.960 . S
C3764 C3763 1.524 . S
C3765 C3762 1.403 . S
C3765 C3766 1.392 . S
C3765 C3769 1.495 . S
C3766 C3765 1.392 . S
C3766 C3767 1.385 . S
C3766 C3768 1.478 . S
C3767 H3761 0.930 . S
C3767 C3763 1.400 . S
C3767 C3766 1.385 . S
C3768 C3766 1.478 . S
C3768 C3770 1.381 . S
C3768 C3774 1.383 . S
C3769 C3765 1.495 . S
C3769 H3775 0.959 . S
C3769 H3776 0.961 . S
C3769 H3777 0.960 . S
C3770 C3768 1.381 . S
C3770 C3771 1.394 . S
C3770 H3778 0.930 . S
C3771 C3770 1.394 . S
C3771 C3772 1.383 . S
C3771 H3779 0.929 . S
C3772 C3771 1.383 . S
C3772 C3773 1.377 . S
C3773 H3757 0.930 . S
C3773 C3772 1.377 . S
C3773 C3774 1.379 . S
C3774 H3758 0.931 . S
C3774 C3768 1.383 . S
C3774 C3773 1.379 . S
H3775 C3769 0.959 . S
H3776 C3769 0.961 . S
H3777 C3769 0.960 . S
H3778 C3770 0.930 . S
H3779 C3771 0.929 . S
H3780 C3788 0.929 1_554 S
H3781 C3790 0.930 . S
H3782 C3792 0.930 . S
H3783 C3795 0.929 . S
H3784 C3798 0.930 . S
H3785 C3800 0.960 . S
H3786 C3800 0.960 . S
H3787 C3800 0.960 . S
C3788 H3780 0.929 1_556 S
C3788 C3789 1.377 . S
C3788 C3790 1.384 . S
C3789 C3788 1.377 . S
C3789 C3795 1.390 . S
C3790 H3781 0.930 . S
C3790 C3788 1.384 . S
C3790 C3791 1.372 . S
C3791 C3790 1.372 . S
C3791 C3792 1.400 . S
C3791 C3796 1.490 . S
C3792 H3782 0.930 . S
C3792 C3791 1.400 . S
C3792 C3795 1.386 . S
H3793 C3809 0.930 . S
H3794 C3810 0.931 . S
C3795 H3783 0.929 . S
C3795 C3789 1.390 . S
C3795 C3792 1.386 . S
C3796 C3791 1.490 . S
C3796 C3798 1.395 . S
C3796 C3799 1.403 . S
H3797 C3803 0.930 . S
C3798 H3784 0.930 . S
C3798 C3796 1.395 . S
C3798 C3801 1.403 . S
C3799 C3796 1.403 . S
C3799 C3800 1.524 . S
C3799 C3803 1.400 . S
C3800 H3785 0.960 . S
C3800 H3786 0.960 . S
C3800 H3787 0.960 . S
C3800 C3799 1.524 . S
C3801 C3798 1.403 . S
C3801 C3802 1.392 . S
C3801 C3805 1.495 . S
C3802 C3801 1.392 . S
C3802 C3803 1.385 . S
C3802 C3804 1.478 . S
C3803 H3797 0.930 . S
C3803 C3799 1.400 . S
C3803 C3802 1.385 . S
C3804 C3802 1.478 . S
C3804 C3806 1.381 . S
C3804 C3810 1.383 . S
C3805 C3801 1.495 . S
C3805 H3811 0.959 . S
C3805 H3812 0.961 . S
C3805 H3813 0.960 . S
C3806 C3804 1.381 . S
C3806 C3807 1.394 . S
C3806 H3814 0.930 . S
C3807 C3806 1.394 . S
C3807 C3808 1.383 . S
C3807 H3815 0.929 . S
C3808 C3807 1.383 . S
C3808 C3809 1.377 . S
C3809 H3793 0.930 . S
C3809 C3808 1.377 . S
C3809 C3810 1.379 . S
C3810 H3794 0.931 . S
C3810 C3804 1.383 . S
C3810 C3809 1.379 . S
H3811 C3805 0.959 . S
H3812 C3805 0.961 . S
H3813 C3805 0.960 . S
H3814 C3806 0.930 . S
H3815 C3807 0.929 . S
H3816 C3824 0.929 1_554 S
H3817 C3826 0.930 . S
H3818 C3828 0.930 . S
H3819 C3831 0.929 . S
H3820 C3834 0.930 . S
H3821 C3836 0.960 . S
H3822 C3836 0.960 . S
H3823 C3836 0.960 . S
C3824 H3816 0.929 1_556 S
C3824 C3825 1.377 . S
C3824 C3826 1.384 . S
C3825 C3824 1.377 . S
C3825 C3831 1.390 . S
C3826 H3817 0.930 . S
C3826 C3824 1.384 . S
C3826 C3827 1.372 . S
C3827 C3826 1.372 . S
C3827 C3828 1.400 . S
C3827 C3832 1.490 . S
C3828 H3818 0.930 . S
C3828 C3827 1.400 . S
C3828 C3831 1.386 . S
H3829 C3845 0.930 . S
H3830 C3846 0.931 . S
C3831 H3819 0.929 . S
C3831 C3825 1.390 . S
C3831 C3828 1.386 . S
C3832 C3827 1.490 . S
C3832 C3834 1.395 . S
C3832 C3835 1.403 . S
H3833 C3839 0.930 . S
C3834 H3820 0.930 . S
C3834 C3832 1.395 . S
C3834 C3837 1.403 . S
C3835 C3832 1.403 . S
C3835 C3836 1.524 . S
C3835 C3839 1.400 . S
C3836 H3821 0.960 . S
C3836 H3822 0.960 . S
C3836 H3823 0.960 . S
C3836 C3835 1.524 . S
C3837 C3834 1.403 . S
C3837 C3838 1.392 . S
C3837 C3841 1.495 . S
C3838 C3837 1.392 . S
C3838 C3839 1.385 . S
C3838 C3840 1.478 . S
C3839 H3833 0.930 . S
C3839 C3835 1.400 . S
C3839 C3838 1.385 . S
C3840 C3838 1.478 . S
C3840 C3842 1.381 . S
C3840 C3846 1.383 . S
C3841 C3837 1.495 . S
C3841 H3847 0.959 . S
C3841 H3848 0.961 . S
C3841 H3849 0.960 . S
C3842 C3840 1.381 . S
C3842 C3843 1.394 . S
C3842 H3850 0.930 . S
C3843 C3842 1.394 . S
C3843 C3844 1.383 . S
C3843 H3851 0.929 . S
C3844 C3843 1.383 . S
C3844 C3845 1.377 . S
C3845 H3829 0.930 . S
C3845 C3844 1.377 . S
C3845 C3846 1.379 . S
C3846 H3830 0.931 . S
C3846 C3840 1.383 . S
C3846 C3845 1.379 . S
H3847 C3841 0.959 . S
H3848 C3841 0.961 . S
H3849 C3841 0.960 . S
H3850 C3842 0.930 . S
H3851 C3843 0.929 . S
H3852 C3860 0.929 . S
H3853 C3862 0.930 . S
H3854 C3864 0.930 . S
H3855 C3867 0.929 . S
H3856 C3870 0.930 . S
H3857 C3872 0.960 . S
H3858 C3872 0.960 . S
H3859 C3872 0.960 . S
C3860 H3852 0.929 . S
C3860 C3861 1.377 . S
C3860 C3862 1.384 . S
C3861 C3860 1.377 . S
C3861 C3867 1.390 . S
C3862 H3853 0.930 . S
C3862 C3860 1.384 . S
C3862 C3863 1.372 . S
C3863 C3862 1.372 . S
C3863 C3864 1.400 . S
C3863 C3868 1.490 . S
C3864 H3854 0.930 . S
C3864 C3863 1.400 . S
C3864 C3867 1.386 . S
H3865 C3881 0.930 . S
H3866 C3882 0.931 . S
C3867 H3855 0.929 . S
C3867 C3861 1.390 . S
C3867 C3864 1.386 . S
C3868 C3863 1.490 . S
C3868 C3870 1.395 . S
C3868 C3871 1.403 . S
H3869 C3875 0.930 . S
C3870 H3856 0.930 . S
C3870 C3868 1.395 . S
C3870 C3873 1.403 . S
C3871 C3868 1.403 . S
C3871 C3872 1.524 . S
C3871 C3875 1.400 . S
C3872 H3857 0.960 . S
C3872 H3858 0.960 . S
C3872 H3859 0.960 . S
C3872 C3871 1.524 . S
C3873 C3870 1.403 . S
C3873 C3874 1.392 . S
C3873 C3877 1.495 . S
C3874 C3873 1.392 . S
C3874 C3875 1.385 . S
C3874 C3876 1.478 . S
C3875 H3869 0.930 . S
C3875 C3871 1.400 . S
C3875 C3874 1.385 . S
C3876 C3874 1.478 . S
C3876 C3878 1.381 . S
C3876 C3882 1.383 . S
C3877 C3873 1.495 . S
C3877 H3883 0.959 . S
C3877 H3884 0.961 . S
C3877 H3885 0.960 . S
C3878 C3876 1.381 . S
C3878 C3879 1.394 . S
C3878 H3886 0.930 . S
C3879 C3878 1.394 . S
C3879 C3880 1.383 . S
C3879 H3887 0.929 . S
C3880 C3879 1.383 . S
C3880 C3881 1.377 . S
C3881 H3865 0.930 . S
C3881 C3880 1.377 . S
C3881 C3882 1.379 . S
C3882 H3866 0.931 . S
C3882 C3876 1.383 . S
C3882 C3881 1.379 . S
H3883 C3877 0.959 . S
H3884 C3877 0.961 . S
H3885 C3877 0.960 . S
H3886 C3878 0.930 . S
H3887 C3879 0.929 . S
H3888 C3896 0.917 1_554 S
H3889 C3898 0.930 . S
H3890 C3900 0.930 . S
H3891 C3903 0.929 . S
H3892 C3906 0.930 . S
H3893 C3908 0.960 . S
H3894 C3908 0.960 . S
H3895 C3908 0.960 . S
C3896 H3888 0.917 1_556 S
C3896 C3897 1.383 . S
C3896 C3898 1.391 . S
C3897 C3896 1.383 . S
C3897 C3903 1.390 . S
C3898 H3889 0.930 . S
C3898 C3896 1.391 . S
C3898 C3899 1.372 . S
C3899 C3898 1.372 . S
C3899 C3900 1.400 . S
C3899 C3904 1.490 . S
C3900 H3890 0.930 . S
C3900 C3899 1.400 . S
C3900 C3903 1.386 . S
H3901 C3917 0.930 . S
H3902 C3918 0.931 . S
C3903 H3891 0.929 . S
C3903 C3897 1.390 . S
C3903 C3900 1.386 . S
C3904 C3899 1.490 . S
C3904 C3906 1.395 . S
C3904 C3907 1.403 . S
H3905 C3911 0.930 . S
C3906 H3892 0.930 . S
C3906 C3904 1.395 . S
C3906 C3909 1.403 . S
C3907 C3904 1.403 . S
C3907 C3908 1.524 . S
C3907 C3911 1.400 . S
C3908 H3893 0.960 . S
C3908 H3894 0.960 . S
C3908 H3895 0.960 . S
C3908 C3907 1.524 . S
C3909 C3906 1.403 . S
C3909 C3910 1.392 . S
C3909 C3913 1.495 . S
C3910 C3909 1.392 . S
C3910 C3911 1.385 . S
C3910 C3912 1.478 . S
C3911 H3905 0.930 . S
C3911 C3907 1.400 . S
C3911 C3910 1.385 . S
C3912 C3910 1.478 . S
C3912 C3914 1.381 . S
C3912 C3918 1.383 . S
C3913 C3909 1.495 . S
C3913 H3919 0.959 . S
C3913 H3920 0.961 . S
C3913 H3921 0.960 . S
C3914 C3912 1.381 . S
C3914 C3915 1.394 . S
C3914 H3922 0.930 . S
C3915 C3914 1.394 . S
C3915 C3916 1.383 . S
C3915 H3923 0.929 . S
C3916 C3915 1.383 . S
C3916 C3917 1.377 . S
C3917 H3901 0.930 . S
C3917 C3916 1.377 . S
C3917 C3918 1.379 . S
C3918 H3902 0.931 . S
C3918 C3912 1.383 . S
C3918 C3917 1.379 . S
H3919 C3913 0.959 . S
H3920 C3913 0.961 . S
H3921 C3913 0.960 . S
H3922 C3914 0.930 . S
H3923 C3915 0.929 . S
H3924 C3932 0.929 . S
H3925 C3934 0.930 . S
H3926 C3936 0.930 . S
H3927 C3939 0.929 . S
H3928 C3942 0.930 . S
H3929 C3944 0.960 . S
H3930 C3944 0.960 . S
H3931 C3944 0.960 . S
C3932 H3924 0.929 . S
C3932 C3933 1.377 . S
C3932 C3934 1.384 . S
C3933 C3932 1.377 . S
C3933 C3939 1.390 . S
C3934 H3925 0.930 . S
C3934 C3932 1.384 . S
C3934 C3935 1.372 . S
C3935 C3934 1.372 . S
C3935 C3936 1.400 . S
C3935 C3940 1.490 . S
C3936 H3926 0.930 . S
C3936 C3935 1.400 . S
C3936 C3939 1.386 . S
H3937 C3953 0.930 . S
H3938 C3954 0.931 . S
C3939 H3927 0.929 . S
C3939 C3933 1.390 . S
C3939 C3936 1.386 . S
C3940 C3935 1.490 . S
C3940 C3942 1.395 . S
C3940 C3943 1.403 . S
H3941 C3947 0.930 . S
C3942 H3928 0.930 . S
C3942 C3940 1.395 . S
C3942 C3945 1.403 . S
C3943 C3940 1.403 . S
C3943 C3944 1.524 . S
C3943 C3947 1.400 . S
C3944 H3929 0.960 . S
C3944 H3930 0.960 . S
C3944 H3931 0.960 . S
C3944 C3943 1.524 . S
C3945 C3942 1.403 . S
C3945 C3946 1.392 . S
C3945 C3949 1.495 . S
C3946 C3945 1.392 . S
C3946 C3947 1.385 . S
C3946 C3948 1.478 . S
C3947 H3941 0.930 . S
C3947 C3943 1.400 . S
C3947 C3946 1.385 . S
C3948 C3946 1.478 . S
C3948 C3950 1.381 . S
C3948 C3954 1.383 . S
C3949 C3945 1.495 . S
C3949 H3955 0.959 . S
C3949 H3956 0.961 . S
C3949 H3957 0.960 . S
C3950 C3948 1.381 . S
C3950 C3951 1.394 . S
C3950 H3958 0.930 . S
C3951 C3950 1.394 . S
C3951 C3952 1.383 . S
C3951 H3959 0.929 . S
C3952 C3951 1.383 . S
C3952 C3953 1.377 . S
C3953 H3937 0.930 . S
C3953 C3952 1.377 . S
C3953 C3954 1.379 . S
C3954 H3938 0.931 . S
C3954 C3948 1.383 . S
C3954 C3953 1.379 . S
H3955 C3949 0.959 . S
H3956 C3949 0.961 . S
H3957 C3949 0.960 . S
H3958 C3950 0.930 . S
H3959 C3951 0.929 . S
H3960 C3968 0.929 . S
H3961 C3970 0.930 . S
H3962 C3972 0.930 . S
H3963 C3975 0.929 . S
H3964 C3978 0.930 . S
H3965 C3980 0.960 . S
H3966 C3980 0.960 . S
H3967 C3980 0.960 . S
C3968 H3960 0.929 . S
C3968 C3969 1.377 . S
C3968 C3970 1.384 . S
C3969 C3968 1.377 . S
C3969 C3975 1.390 . S
C3970 H3961 0.930 . S
C3970 C3968 1.384 . S
C3970 C3971 1.372 . S
C3971 C3970 1.372 . S
C3971 C3972 1.400 . S
C3971 C3976 1.490 . S
C3972 H3962 0.930 . S
C3972 C3971 1.400 . S
C3972 C3975 1.386 . S
H3973 C3989 0.930 . S
H3974 C3990 0.931 . S
C3975 H3963 0.929 . S
C3975 C3969 1.390 . S
C3975 C3972 1.386 . S
C3976 C3971 1.490 . S
C3976 C3978 1.395 . S
C3976 C3979 1.403 . S
H3977 C3983 0.930 . S
C3978 H3964 0.930 . S
C3978 C3976 1.395 . S
C3978 C3981 1.403 . S
C3979 C3976 1.403 . S
C3979 C3980 1.524 . S
C3979 C3983 1.400 . S
C3980 H3965 0.960 . S
C3980 H3966 0.960 . S
C3980 H3967 0.960 . S
C3980 C3979 1.524 . S
C3981 C3978 1.403 . S
C3981 C3982 1.392 . S
C3981 C3985 1.495 . S
C3982 C3981 1.392 . S
C3982 C3983 1.385 . S
C3982 C3984 1.478 . S
C3983 H3977 0.930 . S
C3983 C3979 1.400 . S
C3983 C3982 1.385 . S
C3984 C3982 1.478 . S
C3984 C3986 1.381 . S
C3984 C3990 1.383 . S
C3985 C3981 1.495 . S
C3985 H3991 0.959 . S
C3985 H3992 0.961 . S
C3985 H3993 0.960 . S
C3986 C3984 1.381 . S
C3986 C3987 1.394 . S
C3986 H3994 0.930 . S
C3987 C3986 1.394 . S
C3987 C3988 1.383 . S
C3987 H3995 0.929 . S
C3988 C3987 1.383 . S
C3988 C3989 1.377 . S
C3989 H3973 0.930 . S
C3989 C3988 1.377 . S
C3989 C3990 1.379 . S
C3990 H3974 0.931 . S
C3990 C3984 1.383 . S
C3990 C3989 1.379 . S
H3991 C3985 0.959 . S
H3992 C3985 0.961 . S
H3993 C3985 0.960 . S
H3994 C3986 0.930 . S
H3995 C3987 0.929 . S
H3996 C4004 0.929 . S
H3997 C4006 0.930 . S
H3998 C4008 0.930 . S
H3999 C4011 0.929 . S
H4000 C4014 0.930 . S
H4001 C4016 0.960 . S
H4002 C4016 0.960 . S
H4003 C4016 0.960 . S
C4004 H3996 0.929 . S
C4004 C4005 1.377 . S
C4004 C4006 1.384 . S
C4005 C4004 1.377 . S
C4005 C4011 1.390 . S
C4006 H3997 0.930 . S
C4006 C4004 1.384 . S
C4006 C4007 1.372 . S
C4007 C4006 1.372 . S
C4007 C4008 1.400 . S
C4007 C4012 1.490 . S
C4008 H3998 0.930 . S
C4008 C4007 1.400 . S
C4008 C4011 1.386 . S
H4009 C4025 0.930 . S
H4010 C4026 0.931 . S
C4011 H3999 0.929 . S
C4011 C4005 1.390 . S
C4011 C4008 1.386 . S
C4012 C4007 1.490 . S
C4012 C4014 1.395 . S
C4012 C4015 1.403 . S
H4013 C4019 0.930 . S
C4014 H4000 0.930 . S
C4014 C4012 1.395 . S
C4014 C4017 1.403 . S
C4015 C4012 1.403 . S
C4015 C4016 1.524 . S
C4015 C4019 1.400 . S
C4016 H4001 0.960 . S
C4016 H4002 0.960 . S
C4016 H4003 0.960 . S
C4016 C4015 1.524 . S
C4017 C4014 1.403 . S
C4017 C4018 1.392 . S
C4017 C4021 1.495 . S
C4018 C4017 1.392 . S
C4018 C4019 1.385 . S
C4018 C4020 1.478 . S
C4019 H4013 0.930 . S
C4019 C4015 1.400 . S
C4019 C4018 1.385 . S
C4020 C4018 1.478 . S
C4020 C4022 1.381 . S
C4020 C4026 1.383 . S
C4021 C4017 1.495 . S
C4021 H4027 0.959 . S
C4021 H4028 0.961 . S
C4021 H4029 0.960 . S
C4022 C4020 1.381 . S
C4022 C4023 1.394 . S
C4022 H4030 0.930 . S
C4023 C4022 1.394 . S
C4023 C4024 1.383 . S
C4023 H4031 0.929 . S
C4024 C4023 1.383 . S
C4024 C4025 1.377 . S
C4025 H4009 0.930 . S
C4025 C4024 1.377 . S
C4025 C4026 1.379 . S
C4026 H4010 0.931 . S
C4026 C4020 1.383 . S
C4026 C4025 1.379 . S
H4027 C4021 0.959 . S
H4028 C4021 0.961 . S
H4029 C4021 0.960 . S
H4030 C4022 0.930 . S
H4031 C4023 0.929 . S
H4032 C4040 0.929 . S
H4033 C4042 0.930 . S
H4034 C4044 0.930 . S
H4035 C4047 0.929 . S
H4036 C4050 0.930 . S
H4037 C4052 0.960 . S
H4038 C4052 0.960 . S
H4039 C4052 0.960 . S
C4040 H4032 0.929 . S
C4040 C4041 1.377 . S
C4040 C4042 1.384 . S
C4041 C4040 1.377 . S
C4041 C4047 1.390 . S
C4042 H4033 0.930 . S
C4042 C4040 1.384 . S
C4042 C4043 1.372 . S
C4043 C4042 1.372 . S
C4043 C4044 1.400 . S
C4043 C4048 1.490 . S
C4044 H4034 0.930 . S
C4044 C4043 1.400 . S
C4044 C4047 1.386 . S
H4045 C4061 0.930 . S
H4046 C4062 0.931 . S
C4047 H4035 0.929 . S
C4047 C4041 1.390 . S
C4047 C4044 1.386 . S
C4048 C4043 1.490 . S
C4048 C4050 1.395 . S
C4048 C4051 1.403 . S
H4049 C4055 0.930 . S
C4050 H4036 0.930 . S
C4050 C4048 1.395 . S
C4050 C4053 1.403 . S
C4051 C4048 1.403 . S
C4051 C4052 1.524 . S
C4051 C4055 1.400 . S
C4052 H4037 0.960 . S
C4052 H4038 0.960 . S
C4052 H4039 0.960 . S
C4052 C4051 1.524 . S
C4053 C4050 1.403 . S
C4053 C4054 1.392 . S
C4053 C4057 1.495 . S
C4054 C4053 1.392 . S
C4054 C4055 1.385 . S
C4054 C4056 1.478 . S
C4055 H4049 0.930 . S
C4055 C4051 1.400 . S
C4055 C4054 1.385 . S
C4056 C4054 1.478 . S
C4056 C4058 1.381 . S
C4056 C4062 1.383 . S
C4057 C4053 1.495 . S
C4057 H4063 0.959 . S
C4057 H4064 0.961 . S
C4057 H4065 0.960 . S
C4058 C4056 1.381 . S
C4058 C4059 1.394 . S
C4058 H4066 0.930 . S
C4059 C4058 1.394 . S
C4059 C4060 1.383 . S
C4059 H4067 0.929 . S
C4060 C4059 1.383 . S
C4060 C4061 1.377 . S
C4061 H4045 0.930 . S
C4061 C4060 1.377 . S
C4061 C4062 1.379 . S
C4062 H4046 0.931 . S
C4062 C4056 1.383 . S
C4062 C4061 1.379 . S
H4063 C4057 0.959 . S
H4064 C4057 0.961 . S
H4065 C4057 0.960 . S
H4066 C4058 0.930 . S
H4067 C4059 0.929 . S
H4068 C4076 0.929 . S
H4069 C4078 0.930 . S
H4070 C4080 0.930 . S
H4071 C4083 0.929 . S
H4072 C4086 0.930 . S
H4073 C4088 0.960 . S
H4074 C4088 0.960 . S
H4075 C4088 0.960 . S
C4076 H4068 0.929 . S
C4076 C4077 1.377 . S
C4076 C4078 1.384 . S
C4077 C4076 1.377 . S
C4077 C4083 1.390 . S
C4078 H4069 0.930 . S
C4078 C4076 1.384 . S
C4078 C4079 1.372 . S
C4079 C4078 1.372 . S
C4079 C4080 1.400 . S
C4079 C4084 1.490 . S
C4080 H4070 0.930 . S
C4080 C4079 1.400 . S
C4080 C4083 1.386 . S
H4081 C4097 0.930 . S
H4082 C4098 0.931 . S
C4083 H4071 0.929 . S
C4083 C4077 1.390 . S
C4083 C4080 1.386 . S
C4084 C4079 1.490 . S
C4084 C4086 1.395 . S
C4084 C4087 1.403 . S
H4085 C4091 0.930 . S
C4086 H4072 0.930 . S
C4086 C4084 1.395 . S
C4086 C4089 1.403 . S
C4087 C4084 1.403 . S
C4087 C4088 1.524 . S
C4087 C4091 1.400 . S
C4088 H4073 0.960 . S
C4088 H4074 0.960 . S
C4088 H4075 0.960 . S
C4088 C4087 1.524 . S
C4089 C4086 1.403 . S
C4089 C4090 1.392 . S
C4089 C4093 1.495 . S
C4090 C4089 1.392 . S
C4090 C4091 1.385 . S
C4090 C4092 1.478 . S
C4091 H4085 0.930 . S
C4091 C4087 1.400 . S
C4091 C4090 1.385 . S
C4092 C4090 1.478 . S
C4092 C4094 1.381 . S
C4092 C4098 1.383 . S
C4093 C4089 1.495 . S
C4093 H4099 0.959 . S
C4093 H4100 0.961 . S
C4093 H4101 0.960 . S
C4094 C4092 1.381 . S
C4094 C4095 1.394 . S
C4094 H4102 0.930 . S
C4095 C4094 1.394 . S
C4095 C4096 1.383 . S
C4095 H4103 0.929 . S
C4096 C4095 1.383 . S
C4096 C4097 1.377 . S
C4097 H4081 0.930 . S
C4097 C4096 1.377 . S
C4097 C4098 1.379 . S
C4098 H4082 0.931 . S
C4098 C4092 1.383 . S
C4098 C4097 1.379 . S
H4099 C4093 0.959 . S
H4100 C4093 0.961 . S
H4101 C4093 0.960 . S
H4102 C4094 0.930 . S
H4103 C4095 0.929 . S
H4104 C4112 0.929 . S
H4105 C4114 0.930 . S
H4106 C4116 0.930 . S
H4107 C4119 0.929 . S
H4108 C4122 0.930 . S
H4109 C4124 0.960 . S
H4110 C4124 0.960 . S
H4111 C4124 0.960 . S
C4112 H4104 0.929 . S
C4112 C4113 1.377 . S
C4112 C4114 1.384 . S
C4113 C4112 1.377 . S
C4113 C4119 1.390 . S
C4114 H4105 0.930 . S
C4114 C4112 1.384 . S
C4114 C4115 1.372 . S
C4115 C4114 1.372 . S
C4115 C4116 1.400 . S
C4115 C4120 1.490 . S
C4116 H4106 0.930 . S
C4116 C4115 1.400 . S
C4116 C4119 1.386 . S
H4117 C4133 0.930 . S
H4118 C4134 0.931 . S
C4119 H4107 0.929 . S
C4119 C4113 1.390 . S
C4119 C4116 1.386 . S
C4120 C4115 1.490 . S
C4120 C4122 1.395 . S
C4120 C4123 1.403 . S
H4121 C4127 0.930 . S
C4122 H4108 0.930 . S
C4122 C4120 1.395 . S
C4122 C4125 1.403 . S
C4123 C4120 1.403 . S
C4123 C4124 1.524 . S
C4123 C4127 1.400 . S
C4124 H4109 0.960 . S
C4124 H4110 0.960 . S
C4124 H4111 0.960 . S
C4124 C4123 1.524 . S
C4125 C4122 1.403 . S
C4125 C4126 1.392 . S
C4125 C4129 1.495 . S
C4126 C4125 1.392 . S
C4126 C4127 1.385 . S
C4126 C4128 1.478 . S
C4127 H4121 0.930 . S
C4127 C4123 1.400 . S
C4127 C4126 1.385 . S
C4128 C4126 1.478 . S
C4128 C4130 1.381 . S
C4128 C4134 1.383 . S
C4129 C4125 1.495 . S
C4129 H4135 0.959 . S
C4129 H4136 0.961 . S
C4129 H4137 0.960 . S
C4130 C4128 1.381 . S
C4130 C4131 1.394 . S
C4130 H4138 0.930 . S
C4131 C4130 1.394 . S
C4131 C4132 1.383 . S
C4131 H4139 0.929 . S
C4132 C4131 1.383 . S
C4132 C4133 1.377 . S
C4133 H4117 0.930 . S
C4133 C4132 1.377 . S
C4133 C4134 1.379 . S
C4134 H4118 0.931 . S
C4134 C4128 1.383 . S
C4134 C4133 1.379 . S
H4135 C4129 0.959 . S
H4136 C4129 0.961 . S
H4137 C4129 0.960 . S
H4138 C4130 0.930 . S
H4139 C4131 0.929 . S
H4140 C4148 0.924 1_655 S
H4141 C4150 0.930 1_655 S
H4142 C4152 0.930 . S
H4143 C4155 0.929 . S
H4144 C4158 0.930 1_655 S
H4145 C4160 0.960 . S
H4146 C4160 0.960 . S
H4147 C4160 0.960 . S
C4148 H4140 0.924 1_455 S
C4148 C4149 1.377 . S
C4148 C4150 1.384 . S
C4149 C4148 1.377 . S
C4149 C4155 1.390 . S
C4150 H4141 0.930 1_455 S
C4150 C4148 1.384 . S
C4150 C4151 1.372 . S
C4151 C4150 1.372 . S
C4151 C4152 1.400 . S
C4151 C4156 1.490 . S
C4152 H4142 0.930 . S
C4152 C4151 1.400 . S
C4152 C4155 1.386 . S
H4153 C4169 0.930 . S
H4154 C4170 0.931 . S
C4155 H4143 0.929 . S
C4155 C4149 1.390 . S
C4155 C4152 1.386 . S
C4156 C4151 1.490 . S
C4156 C4158 1.395 . S
C4156 C4159 1.403 . S
H4157 C4163 0.930 . S
C4158 H4144 0.930 1_455 S
C4158 C4156 1.395 . S
C4158 C4161 1.352 1_455 S
C4159 C4156 1.403 . S
C4159 C4160 1.524 . S
C4159 C4163 1.400 . S
C4160 H4145 0.960 . S
C4160 H4146 0.960 . S
C4160 H4147 0.960 . S
C4160 C4159 1.524 . S
C4161 C4158 1.352 1_655 S
C4161 C4162 1.350 1_655 S
C4161 C4165 1.592 . S
C4162 C4161 1.350 1_455 S
C4162 C4163 1.385 . S
C4162 C4164 1.478 . S
C4163 H4157 0.930 . S
C4163 C4159 1.400 . S
C4163 C4162 1.385 . S
C4164 C4162 1.478 . S
C4164 C4166 1.381 1_455 S
C4164 C4170 1.383 . S
C4165 C4161 1.592 . S
C4165 H4171 0.959 . S
C4165 H4172 0.961 . S
C4165 H4173 0.960 . S
C4166 C4164 1.381 1_655 S
C4166 C4167 1.394 . S
C4166 H4174 0.930 . S
C4167 C4166 1.394 . S
C4167 C4168 1.383 1_655 S
C4167 H4175 0.929 . S
C4168 C4167 1.383 1_455 S
C4168 C4169 1.377 . S
C4169 H4153 0.930 . S
C4169 C4168 1.377 . S
C4169 C4170 1.379 . S
C4170 H4154 0.931 . S
C4170 C4164 1.383 . S
C4170 C4169 1.379 . S
H4171 C4165 0.959 . S
H4172 C4165 0.961 . S
H4173 C4165 0.960 . S
H4174 C4166 0.930 . S
H4175 C4167 0.929 . S
H4176 C4184 0.929 . S
H4177 C4186 0.930 . S
H4178 C4188 0.930 . S
H4179 C4191 0.929 . S
H4180 C4194 0.930 . S
H4181 C4196 0.960 . S
H4182 C4196 0.960 . S
H4183 C4196 0.960 . S
C4184 H4176 0.929 . S
C4184 C4185 1.377 . S
C4184 C4186 1.384 . S
C4185 C4184 1.377 . S
C4185 C4191 1.390 . S
C4186 H4177 0.930 . S
C4186 C4184 1.384 . S
C4186 C4187 1.372 . S
C4187 C4186 1.372 . S
C4187 C4188 1.400 . S
C4187 C4192 1.490 . S
C4188 H4178 0.930 . S
C4188 C4187 1.400 . S
C4188 C4191 1.386 . S
H4189 C4205 0.930 . S
H4190 C4206 0.931 . S
C4191 H4179 0.929 . S
C4191 C4185 1.390 . S
C4191 C4188 1.386 . S
C4192 C4187 1.490 . S
C4192 C4194 1.395 . S
C4192 C4195 1.403 . S
H4193 C4199 0.930 . S
C4194 H4180 0.930 . S
C4194 C4192 1.395 . S
C4194 C4197 1.403 . S
C4195 C4192 1.403 . S
C4195 C4196 1.524 . S
C4195 C4199 1.400 . S
C4196 H4181 0.960 . S
C4196 H4182 0.960 . S
C4196 H4183 0.960 . S
C4196 C4195 1.524 . S
C4197 C4194 1.403 . S
C4197 C4198 1.392 . S
C4197 C4201 1.495 . S
C4198 C4197 1.392 . S
C4198 C4199 1.385 . S
C4198 C4200 1.478 . S
C4199 H4193 0.930 . S
C4199 C4195 1.400 . S
C4199 C4198 1.385 . S
C4200 C4198 1.478 . S
C4200 C4202 1.381 . S
C4200 C4206 1.383 . S
C4201 C4197 1.495 . S
C4201 H4207 0.959 . S
C4201 H4208 0.961 . S
C4201 H4209 0.960 . S
C4202 C4200 1.381 . S
C4202 C4203 1.394 . S
C4202 H4210 0.930 . S
C4203 C4202 1.394 . S
C4203 C4204 1.383 . S
C4203 H4211 0.929 . S
C4204 C4203 1.383 . S
C4204 C4205 1.377 . S
C4205 H4189 0.930 . S
C4205 C4204 1.377 . S
C4205 C4206 1.379 . S
C4206 H4190 0.931 . S
C4206 C4200 1.383 . S
C4206 C4205 1.379 . S
H4207 C4201 0.959 . S
H4208 C4201 0.961 . S
H4209 C4201 0.960 . S
H4210 C4202 0.930 . S
H4211 C4203 0.929 . S
H4212 C4220 0.929 . S
H4213 C4222 0.930 . S
H4214 C4224 0.930 1_545 S
H4215 C4227 0.929 1_545 S
H4216 C4230 0.930 . S
H4217 C4232 0.960 . S
H4218 C4232 0.960 . S
H4219 C4232 0.951 . S
C4220 H4212 0.929 . S
C4220 C4221 1.377 . S
C4220 C4222 1.384 . S
C4221 C4220 1.377 . S
C4221 C4227 1.390 . S
C4222 H4213 0.930 . S
C4222 C4220 1.384 . S
C4222 C4223 1.372 . S
C4223 C4222 1.372 . S
C4223 C4224 1.400 . S
C4223 C4228 1.490 . S
C4224 H4214 0.930 1_565 S
C4224 C4223 1.400 . S
C4224 C4227 1.386 . S
H4225 C4241 0.930 . S
H4226 C4242 0.931 . S
C4227 H4215 0.929 1_565 S
C4227 C4221 1.390 . S
C4227 C4224 1.386 . S
C4228 C4223 1.490 . S
C4228 C4230 1.395 . S
C4228 C4231 1.403 . S
H4229 C4235 0.930 . S
C4230 H4216 0.930 . S
C4230 C4228 1.395 . S
C4230 C4233 1.403 . S
C4231 C4228 1.403 . S
C4231 C4232 1.524 . S
C4231 C4235 1.400 . S
C4232 H4217 0.960 . S
C4232 H4218 0.960 . S
C4232 H4219 0.951 . S
C4232 C4231 1.524 . S
C4233 C4230 1.403 . S
C4233 C4234 1.392 . S
C4233 C4237 1.495 . S
C4234 C4233 1.392 . S
C4234 C4235 1.385 . S
C4234 C4236 1.478 . S
C4235 H4229 0.930 . S
C4235 C4231 1.400 . S
C4235 C4234 1.385 . S
C4236 C4234 1.478 . S
C4236 C4238 1.381 . S
C4236 C4242 1.383 1_565 S
C4237 C4233 1.495 . S
C4237 H4243 0.959 . S
C4237 H4244 0.961 . S
C4237 H4245 0.960 . S
C4238 C4236 1.381 . S
C4238 C4239 1.394 . S
C4238 H4246 0.930 . S
C4239 C4238 1.394 . S
C4239 C4240 1.383 . S
C4239 H4247 0.929 . S
C4240 C4239 1.383 . S
C4240 C4241 1.377 1_565 S
C4241 H4225 0.930 . S
C4241 C4240 1.377 1_545 S
C4241 C4242 1.379 . S
C4242 H4226 0.931 . S
C4242 C4236 1.383 1_545 S
C4242 C4241 1.379 . S
H4243 C4237 0.959 . S
H4244 C4237 0.961 . S
H4245 C4237 0.960 . S
H4246 C4238 0.930 . S
H4247 C4239 0.929 . S
H4248 C4256 0.929 . S
H4249 C4258 0.930 . S
H4250 C4260 0.930 1_545 S
H4251 C4263 0.956 . S
H4252 C4266 0.930 . S
H4253 C4268 0.960 . S
H4254 C4268 0.960 . S
H4255 C4268 0.960 . S
C4256 H4248 0.929 . S
C4256 C4257 1.377 . S
C4256 C4258 1.384 . S
C4257 C4256 1.377 . S
C4257 C4263 1.390 . S
C4258 H4249 0.930 . S
C4258 C4256 1.384 . S
C4258 C4259 1.372 . S
C4259 C4258 1.372 . S
C4259 C4260 1.400 . S
C4259 C4264 1.490 . S
C4260 H4250 0.930 1_565 S
C4260 C4259 1.400 . S
C4260 C4263 1.386 . S
H4261 C4277 0.930 . S
H4262 C4278 0.931 . S
C4263 H4251 0.956 . S
C4263 C4257 1.390 . S
C4263 C4260 1.386 . S
C4264 C4259 1.490 . S
C4264 C4266 1.395 . S
C4264 C4267 1.395 1_565 S
H4265 C4271 1.001 . S
C4266 H4252 0.930 . S
C4266 C4264 1.395 . S
C4266 C4269 1.403 . S
C4267 C4264 1.395 1_545 S
C4267 C4268 1.527 . S
C4267 C4271 1.367 . S
C4268 H4253 0.960 . S
C4268 H4254 0.960 . S
C4268 H4255 0.960 . S
C4268 C4267 1.527 . S
C4269 C4266 1.403 . S
C4269 C4270 1.392 . S
C4269 C4273 1.495 . S
C4270 C4269 1.392 . S
C4270 C4271 1.360 1_565 S
C4270 C4272 1.478 . S
C4271 H4265 1.001 . S
C4271 C4267 1.367 . S
C4271 C4270 1.360 1_545 S
C4272 C4270 1.478 . S
C4272 C4274 1.381 . S
C4272 C4278 1.383 1_565 S
C4273 C4269 1.495 . S
C4273 H4279 0.959 . S
C4273 H4280 0.961 . S
C4273 H4281 0.960 . S
C4274 C4272 1.381 . S
C4274 C4275 1.394 . S
C4274 H4282 0.930 . S
C4275 C4274 1.394 . S
C4275 C4276 1.383 . S
C4275 H4283 0.929 . S
C4276 C4275 1.383 . S
C4276 C4277 1.377 1_565 S
C4277 H4261 0.930 . S
C4277 C4276 1.377 1_545 S
C4277 C4278 1.379 . S
C4278 H4262 0.931 . S
C4278 C4272 1.383 1_545 S
C4278 C4277 1.379 . S
H4279 C4273 0.959 . S
H4280 C4273 0.961 . S
H4281 C4273 0.960 . S
H4282 C4274 0.930 . S
H4283 C4275 0.929 . S
H4284 C4292 0.929 1_655 S
H4285 C4294 0.930 1_655 S
H4286 C4296 0.930 . S
H4287 C4299 0.929 . S
H4288 C4302 0.984 . S
H4289 C4304 0.960 . S
H4290 C4304 0.960 . S
H4291 C4304 0.960 . S
C4292 H4284 0.929 1_455 S
C4292 C4293 1.377 . S
C4292 C4294 1.384 . S
C4293 C4292 1.377 . S
C4293 C4299 1.390 . S
C4294 H4285 0.930 1_455 S
C4294 C4292 1.384 . S
C4294 C4295 1.372 . S
C4295 C4294 1.372 . S
C4295 C4296 1.400 . S
C4295 C4300 1.490 . S
C4296 H4286 0.930 . S
C4296 C4295 1.400 . S
C4296 C4299 1.386 . S
H4297 C4313 0.930 . S
H4298 C4314 0.931 . S
C4299 H4287 0.929 . S
C4299 C4293 1.390 . S
C4299 C4296 1.386 . S
C4300 C4295 1.490 . S
C4300 C4302 1.357 1_455 S
C4300 C4303 1.403 . S
H4301 C4307 0.930 . S
C4302 H4288 0.984 . S
C4302 C4300 1.357 1_655 S
C4302 C4305 1.391 . S
C4303 C4300 1.403 . S
C4303 C4304 1.524 . S
C4303 C4307 1.400 . S
C4304 H4289 0.960 . S
C4304 H4290 0.960 . S
C4304 H4291 0.960 . S
C4304 C4303 1.524 . S
C4305 C4302 1.391 . S
C4305 C4306 1.392 1_655 S
C4305 C4309 1.495 . S
C4306 C4305 1.392 1_455 S
C4306 C4307 1.385 . S
C4306 C4308 1.478 . S
C4307 H4301 0.930 . S
C4307 C4303 1.400 . S
C4307 C4306 1.385 . S
C4308 C4306 1.478 . S
C4308 C4310 1.381 1_455 S
C4308 C4314 1.383 . S
C4309 C4305 1.495 . S
C4309 H4315 0.959 . S
C4309 H4316 0.961 . S
C4309 H4317 0.960 . S
C4310 C4308 1.381 1_655 S
C4310 C4311 1.394 . S
C4310 H4318 0.930 . S
C4311 C4310 1.394 . S
C4311 C4312 1.383 . S
C4311 H4319 0.929 . S
C4312 C4311 1.383 . S
C4312 C4313 1.377 1_655 S
C4313 H4297 0.930 . S
C4313 C4312 1.377 1_455 S
C4313 C4314 1.379 . S
C4314 H4298 0.931 . S
C4314 C4308 1.383 . S
C4314 C4313 1.379 . S
H4315 C4309 0.959 . S
H4316 C4309 0.961 . S
H4317 C4309 0.960 . S
H4318 C4310 0.930 . S
H4319 C4311 0.929 . S
H4320 C4328 0.929 . S
H4321 C4330 0.930 . S
H4322 C4332 0.930 . S
H4323 C4335 0.929 . S
H4324 C4338 0.930 . S
H4325 C4340 0.960 . S
H4326 C4340 0.960 . S
H4327 C4340 0.960 . S
C4328 H4320 0.929 . S
C4328 C4329 1.377 . S
C4328 C4330 1.384 . S
C4329 C4328 1.377 . S
C4329 C4335 1.390 . S
C4330 H4321 0.930 . S
C4330 C4328 1.384 . S
C4330 C4331 1.372 . S
C4331 C4330 1.372 . S
C4331 C4332 1.400 . S
C4331 C4336 1.490 . S
C4332 H4322 0.930 . S
C4332 C4331 1.400 . S
C4332 C4335 1.386 . S
H4333 C4349 0.930 . S
H4334 C4350 0.931 . S
C4335 H4323 0.929 . S
C4335 C4329 1.390 . S
C4335 C4332 1.386 . S
C4336 C4331 1.490 . S
C4336 C4338 1.395 . S
C4336 C4339 1.403 . S
H4337 C4343 0.930 . S
C4338 H4324 0.930 . S
C4338 C4336 1.395 . S
C4338 C4341 1.403 . S
C4339 C4336 1.403 . S
C4339 C4340 1.524 . S
C4339 C4343 1.400 . S
C4340 H4325 0.960 . S
C4340 H4326 0.960 . S
C4340 H4327 0.960 . S
C4340 C4339 1.524 . S
C4341 C4338 1.403 . S
C4341 C4342 1.392 . S
C4341 C4345 1.495 . S
C4342 C4341 1.392 . S
C4342 C4343 1.385 . S
C4342 C4344 1.478 . S
C4343 H4337 0.930 . S
C4343 C4339 1.400 . S
C4343 C4342 1.385 . S
C4344 C4342 1.478 . S
C4344 C4346 1.381 . S
C4344 C4350 1.383 . S
C4345 C4341 1.495 . S
C4345 H4351 0.959 . S
C4345 H4352 0.961 . S
C4345 H4353 0.960 . S
C4346 C4344 1.381 . S
C4346 C4347 1.394 . S
C4346 H4354 0.930 . S
C4347 C4346 1.394 . S
C4347 C4348 1.383 . S
C4347 H4355 0.929 . S
C4348 C4347 1.383 . S
C4348 C4349 1.377 . S
C4349 H4333 0.930 . S
C4349 C4348 1.377 . S
C4349 C4350 1.379 . S
C4350 H4334 0.931 . S
C4350 C4344 1.383 . S
C4350 C4349 1.379 . S
H4351 C4345 0.959 . S
H4352 C4345 0.961 . S
H4353 C4345 0.960 . S
H4354 C4346 0.930 . S
H4355 C4347 0.929 . S
H4356 C4364 0.929 . S
H4357 C4366 0.930 . S
H4358 C4368 0.930 . S
H4359 C4371 0.929 . S
H4360 C4374 0.930 . S
H4361 C4376 0.960 . S
H4362 C4376 0.960 . S
H4363 C4376 0.960 . S
C4364 H4356 0.929 . S
C4364 C4365 1.377 . S
C4364 C4366 1.384 . S
C4365 C4364 1.377 . S
C4365 C4371 1.390 . S
C4366 H4357 0.930 . S
C4366 C4364 1.384 . S
C4366 C4367 1.372 . S
C4367 C4366 1.372 . S
C4367 C4368 1.400 . S
C4367 C4372 1.490 . S
C4368 H4358 0.930 . S
C4368 C4367 1.400 . S
C4368 C4371 1.386 . S
H4369 C4385 0.930 . S
H4370 C4386 0.931 . S
C4371 H4359 0.929 . S
C4371 C4365 1.390 . S
C4371 C4368 1.386 . S
C4372 C4367 1.490 . S
C4372 C4374 1.395 . S
C4372 C4375 1.403 . S
H4373 C4379 0.930 . S
C4374 H4360 0.930 . S
C4374 C4372 1.395 . S
C4374 C4377 1.403 . S
C4375 C4372 1.403 . S
C4375 C4376 1.524 . S
C4375 C4379 1.400 . S
C4376 H4361 0.960 . S
C4376 H4362 0.960 . S
C4376 H4363 0.960 . S
C4376 C4375 1.524 . S
C4377 C4374 1.403 . S
C4377 C4378 1.392 . S
C4377 C4381 1.495 . S
C4378 C4377 1.392 . S
C4378 C4379 1.385 . S
C4378 C4380 1.478 . S
C4379 H4373 0.930 . S
C4379 C4375 1.400 . S
C4379 C4378 1.385 . S
C4380 C4378 1.478 . S
C4380 C4382 1.381 . S
C4380 C4386 1.383 . S
C4381 C4377 1.495 . S
C4381 H4387 0.959 . S
C4381 H4388 0.961 . S
C4381 H4389 0.960 . S
C4382 C4380 1.381 . S
C4382 C4383 1.394 . S
C4382 H4390 0.930 . S
C4383 C4382 1.394 . S
C4383 C4384 1.383 . S
C4383 H4391 0.929 . S
C4384 C4383 1.383 . S
C4384 C4385 1.377 . S
C4385 H4369 0.930 . S
C4385 C4384 1.377 . S
C4385 C4386 1.379 . S
C4386 H4370 0.931 . S
C4386 C4380 1.383 . S
C4386 C4385 1.379 . S
H4387 C4381 0.959 . S
H4388 C4381 0.961 . S
H4389 C4381 0.960 . S
H4390 C4382 0.930 . S
H4391 C4383 0.929 . S
H4392 C4400 0.929 . S
H4393 C4402 0.930 . S
H4394 C4404 0.930 . S
H4395 C4407 0.929 . S
H4396 C4410 0.930 . S
H4397 C4412 0.960 . S
H4398 C4412 0.960 . S
H4399 C4412 0.960 . S
C4400 H4392 0.929 . S
C4400 C4401 1.377 . S
C4400 C4402 1.384 . S
C4401 C4400 1.377 . S
C4401 C4407 1.390 . S
C4402 H4393 0.930 . S
C4402 C4400 1.384 . S
C4402 C4403 1.372 . S
C4403 C4402 1.372 . S
C4403 C4404 1.400 . S
C4403 C4408 1.490 . S
C4404 H4394 0.930 . S
C4404 C4403 1.400 . S
C4404 C4407 1.386 . S
H4405 C4421 0.930 . S
H4406 C4422 0.931 . S
C4407 H4395 0.929 . S
C4407 C4401 1.390 . S
C4407 C4404 1.386 . S
C4408 C4403 1.490 . S
C4408 C4410 1.395 . S
C4408 C4411 1.403 . S
H4409 C4415 0.930 . S
C4410 H4396 0.930 . S
C4410 C4408 1.395 . S
C4410 C4413 1.403 . S
C4411 C4408 1.403 . S
C4411 C4412 1.524 . S
C4411 C4415 1.400 . S
C4412 H4397 0.960 . S
C4412 H4398 0.960 . S
C4412 H4399 0.960 . S
C4412 C4411 1.524 . S
C4413 C4410 1.403 . S
C4413 C4414 1.392 . S
C4413 C4417 1.495 . S
C4414 C4413 1.392 . S
C4414 C4415 1.385 . S
C4414 C4416 1.478 . S
C4415 H4409 0.930 . S
C4415 C4411 1.400 . S
C4415 C4414 1.385 . S
C4416 C4414 1.478 . S
C4416 C4418 1.381 . S
C4416 C4422 1.383 . S
C4417 C4413 1.495 . S
C4417 H4423 0.959 . S
C4417 H4424 0.961 . S
C4417 H4425 0.960 . S
C4418 C4416 1.381 . S
C4418 C4419 1.394 . S
C4418 H4426 0.930 . S
C4419 C4418 1.394 . S
C4419 C4420 1.383 . S
C4419 H4427 0.929 . S
C4420 C4419 1.383 . S
C4420 C4421 1.377 . S
C4421 H4405 0.930 . S
C4421 C4420 1.377 . S
C4421 C4422 1.379 . S
C4422 H4406 0.931 . S
C4422 C4416 1.383 . S
C4422 C4421 1.379 . S
H4423 C4417 0.959 . S
H4424 C4417 0.961 . S
H4425 C4417 0.960 . S
H4426 C4418 0.930 . S
H4427 C4419 0.929 . S
H4428 C4436 0.929 . S
H4429 C4438 0.930 . S
H4430 C4440 0.930 . S
H4431 C4443 0.929 . S
H4432 C4446 0.930 . S
H4433 C4448 0.960 . S
H4434 C4448 0.960 . S
H4435 C4448 0.960 . S
C4436 H4428 0.929 . S
C4436 C4437 1.377 . S
C4436 C4438 1.384 . S
C4437 C4436 1.377 . S
C4437 C4443 1.390 . S
C4438 H4429 0.930 . S
C4438 C4436 1.384 . S
C4438 C4439 1.372 . S
C4439 C4438 1.372 . S
C4439 C4440 1.400 . S
C4439 C4444 1.490 . S
C4440 H4430 0.930 . S
C4440 C4439 1.400 . S
C4440 C4443 1.386 . S
H4441 C4457 0.930 . S
H4442 C4458 0.931 . S
C4443 H4431 0.929 . S
C4443 C4437 1.390 . S
C4443 C4440 1.386 . S
C4444 C4439 1.490 . S
C4444 C4446 1.395 . S
C4444 C4447 1.403 . S
H4445 C4451 0.930 . S
C4446 H4432 0.930 . S
C4446 C4444 1.395 . S
C4446 C4449 1.403 . S
C4447 C4444 1.403 . S
C4447 C4448 1.524 . S
C4447 C4451 1.400 . S
C4448 H4433 0.960 . S
C4448 H4434 0.960 . S
C4448 H4435 0.960 . S
C4448 C4447 1.524 . S
C4449 C4446 1.403 . S
C4449 C4450 1.392 . S
C4449 C4453 1.495 . S
C4450 C4449 1.392 . S
C4450 C4451 1.385 . S
C4450 C4452 1.478 . S
C4451 H4445 0.930 . S
C4451 C4447 1.400 . S
C4451 C4450 1.385 . S
C4452 C4450 1.478 . S
C4452 C4454 1.381 . S
C4452 C4458 1.383 . S
C4453 C4449 1.495 . S
C4453 H4459 0.959 . S
C4453 H4460 0.961 . S
C4453 H4461 0.960 . S
C4454 C4452 1.381 . S
C4454 C4455 1.394 . S
C4454 H4462 0.930 . S
C4455 C4454 1.394 . S
C4455 C4456 1.383 . S
C4455 H4463 0.929 . S
C4456 C4455 1.383 . S
C4456 C4457 1.377 . S
C4457 H4441 0.930 . S
C4457 C4456 1.377 . S
C4457 C4458 1.379 . S
C4458 H4442 0.931 . S
C4458 C4452 1.383 . S
C4458 C4457 1.379 . S
H4459 C4453 0.959 . S
H4460 C4453 0.961 . S
H4461 C4453 0.960 . S
H4462 C4454 0.930 . S
H4463 C4455 0.929 . S
H4464 C4472 0.929 1_565 S
H4465 C4474 0.930 1_565 S
H4466 C4476 0.930 . S
H4467 C4479 0.929 . S
H4468 C4482 0.928 1_565 S
H4469 C4484 0.960 . S
H4470 C4484 0.960 . S
H4471 C4484 0.960 . S
C4472 H4464 0.929 1_545 S
C4472 C4473 1.377 . S
C4472 C4474 1.384 . S
C4473 C4472 1.377 . S
C4473 C4479 1.390 . S
C4474 H4465 0.930 1_545 S
C4474 C4472 1.384 . S
C4474 C4475 1.372 . S
C4475 C4474 1.372 . S
C4475 C4476 1.400 . S
C4475 C4480 1.490 . S
C4476 H4466 0.930 . S
C4476 C4475 1.400 . S
C4476 C4479 1.386 . S
H4477 C4493 0.930 . S
H4478 C4494 0.931 . S
C4479 H4467 0.929 . S
C4479 C4473 1.390 . S
C4479 C4476 1.386 . S
C4480 C4475 1.490 . S
C4480 C4482 1.395 . S
C4480 C4483 1.403 . S
H4481 C4487 0.930 . S
C4482 H4468 0.928 1_545 S
C4482 C4480 1.395 . S
C4482 C4485 1.403 . S
C4483 C4480 1.403 . S
C4483 C4484 1.524 . S
C4483 C4487 1.400 . S
C4484 H4469 0.960 . S
C4484 H4470 0.960 . S
C4484 H4471 0.960 . S
C4484 C4483 1.524 . S
C4485 C4482 1.403 . S
C4485 C4486 1.392 . S
C4485 C4489 1.495 1_545 S
C4486 C4485 1.392 . S
C4486 C4487 1.385 . S
C4486 C4488 1.478 . S
C4487 H4481 0.930 . S
C4487 C4483 1.400 . S
C4487 C4486 1.385 . S
C4488 C4486 1.478 . S
C4488 C4490 1.381 1_545 S
C4488 C4494 1.383 . S
C4489 C4485 1.495 1_565 S
C4489 H4495 0.959 . S
C4489 H4496 0.961 . S
C4489 H4497 0.960 . S
C4490 C4488 1.381 1_565 S
C4490 C4491 1.394 . S
C4490 H4498 0.930 . S
C4491 C4490 1.394 . S
C4491 C4492 1.383 1_565 S
C4491 H4499 0.929 . S
C4492 C4491 1.383 1_545 S
C4492 C4493 1.377 . S
C4493 H4477 0.930 . S
C4493 C4492 1.377 . S
C4493 C4494 1.379 . S
C4494 H4478 0.931 . S
C4494 C4488 1.383 . S
C4494 C4493 1.379 . S
H4495 C4489 0.959 . S
H4496 C4489 0.961 . S
H4497 C4489 0.960 . S
H4498 C4490 0.930 . S
H4499 C4491 0.929 . S
H4500 C4508 0.929 . S
H4501 C4510 0.930 . S
H4502 C4512 0.930 1_455 S
H4503 C4515 0.929 1_455 S
H4504 C4518 0.930 . S
H4505 C4520 0.960 . S
H4506 C4520 0.960 . S
H4507 C4520 0.960 . S
C4508 H4500 0.929 . S
C4508 C4509 1.377 . S
C4508 C4510 1.384 . S
C4509 C4508 1.377 . S
C4509 C4515 1.390 . S
C4510 H4501 0.930 . S
C4510 C4508 1.384 . S
C4510 C4511 1.372 . S
C4511 C4510 1.372 . S
C4511 C4512 1.400 . S
C4511 C4516 1.490 . S
C4512 H4502 0.930 1_655 S
C4512 C4511 1.400 . S
C4512 C4515 1.386 . S
H4513 C4529 0.930 . S
H4514 C4530 0.931 . S
C4515 H4503 0.929 1_655 S
C4515 C4509 1.390 . S
C4515 C4512 1.386 . S
C4516 C4511 1.490 . S
C4516 C4518 1.395 . S
C4516 C4519 1.403 . S
H4517 C4523 0.930 . S
C4518 H4504 0.930 . S
C4518 C4516 1.395 . S
C4518 C4521 1.403 . S
C4519 C4516 1.403 . S
C4519 C4520 1.524 . S
C4519 C4523 1.400 . S
C4520 H4505 0.960 . S
C4520 H4506 0.960 . S
C4520 H4507 0.960 . S
C4520 C4519 1.524 . S
C4521 C4518 1.403 . S
C4521 C4522 1.392 . S
C4521 C4525 1.495 1_655 S
C4522 C4521 1.392 . S
C4522 C4523 1.385 . S
C4522 C4524 1.478 . S
C4523 H4517 0.930 . S
C4523 C4519 1.400 . S
C4523 C4522 1.385 . S
C4524 C4522 1.478 . S
C4524 C4526 1.381 . S
C4524 C4530 1.383 1_655 S
C4525 C4521 1.495 1_455 S
C4525 H4531 0.959 . S
C4525 H4532 0.961 . S
C4525 H4533 0.960 1_455 S
C4526 C4524 1.381 . S
C4526 C4527 1.394 . S
C4526 H4534 0.930 . S
C4527 C4526 1.394 . S
C4527 C4528 1.383 . S
C4527 H4535 0.929 . S
C4528 C4527 1.383 . S
C4528 C4529 1.377 1_655 S
C4529 H4513 0.930 . S
C4529 C4528 1.377 1_455 S
C4529 C4530 1.379 . S
C4530 H4514 0.931 . S
C4530 C4524 1.383 1_455 S
C4530 C4529 1.379 . S
H4531 C4525 0.959 . S
H4532 C4525 0.961 . S
H4533 C4525 0.960 1_655 S
H4534 C4526 0.930 . S
H4535 C4527 0.929 . S
H4536 C4544 0.929 . S
H4537 C4546 0.930 . S
H4538 C4548 0.930 . S
H4539 C4551 0.929 . S
H4540 C4554 0.930 . S
H4541 C4556 0.960 . S
H4542 C4556 0.960 . S
H4543 C4556 0.960 . S
C4544 H4536 0.929 . S
C4544 C4545 1.377 . S
C4544 C4546 1.384 . S
C4545 C4544 1.377 . S
C4545 C4551 1.390 . S
C4546 H4537 0.930 . S
C4546 C4544 1.384 . S
C4546 C4547 1.372 . S
C4547 C4546 1.372 . S
C4547 C4548 1.400 . S
C4547 C4552 1.490 . S
C4548 H4538 0.930 . S
C4548 C4547 1.400 . S
C4548 C4551 1.386 . S
H4549 C4565 0.930 . S
H4550 C4566 0.931 . S
C4551 H4539 0.929 . S
C4551 C4545 1.390 . S
C4551 C4548 1.386 . S
C4552 C4547 1.490 . S
C4552 C4554 1.395 . S
C4552 C4555 1.403 . S
H4553 C4559 0.930 . S
C4554 H4540 0.930 . S
C4554 C4552 1.395 . S
C4554 C4557 1.403 . S
C4555 C4552 1.403 . S
C4555 C4556 1.524 . S
C4555 C4559 1.400 . S
C4556 H4541 0.960 . S
C4556 H4542 0.960 . S
C4556 H4543 0.960 . S
C4556 C4555 1.524 . S
C4557 C4554 1.403 . S
C4557 C4558 1.392 . S
C4557 C4561 1.495 . S
C4558 C4557 1.392 . S
C4558 C4559 1.385 . S
C4558 C4560 1.478 . S
C4559 H4553 0.930 . S
C4559 C4555 1.400 . S
C4559 C4558 1.385 . S
C4560 C4558 1.478 . S
C4560 C4562 1.381 . S
C4560 C4566 1.383 . S
C4561 C4557 1.495 . S
C4561 H4567 0.959 . S
C4561 H4568 0.961 . S
C4561 H4569 0.960 . S
C4562 C4560 1.381 . S
C4562 C4563 1.394 . S
C4562 H4570 0.930 . S
C4563 C4562 1.394 . S
C4563 C4564 1.383 . S
C4563 H4571 0.929 . S
C4564 C4563 1.383 . S
C4564 C4565 1.377 . S
C4565 H4549 0.930 . S
C4565 C4564 1.377 . S
C4565 C4566 1.379 . S
C4566 H4550 0.931 . S
C4566 C4560 1.383 . S
C4566 C4565 1.379 . S
H4567 C4561 0.959 . S
H4568 C4561 0.961 . S
H4569 C4561 0.960 . S
H4570 C4562 0.930 . S
H4571 C4563 0.929 . S
H4572 C4580 0.929 . S
H4573 C4582 0.930 . S
H4574 C4584 0.930 . S
H4575 C4587 0.929 . S
H4576 C4590 0.930 . S
H4577 C4592 0.960 . S
H4578 C4592 0.960 . S
H4579 C4592 0.960 . S
C4580 H4572 0.929 . S
C4580 C4581 1.377 . S
C4580 C4582 1.384 . S
C4581 C4580 1.377 . S
C4581 C4587 1.390 . S
C4582 H4573 0.930 . S
C4582 C4580 1.384 . S
C4582 C4583 1.372 . S
C4583 C4582 1.372 . S
C4583 C4584 1.400 . S
C4583 C4588 1.490 . S
C4584 H4574 0.930 . S
C4584 C4583 1.400 . S
C4584 C4587 1.386 . S
H4585 C4601 0.930 . S
H4586 C4602 0.931 . S
C4587 H4575 0.929 . S
C4587 C4581 1.390 . S
C4587 C4584 1.386 . S
C4588 C4583 1.490 . S
C4588 C4590 1.395 . S
C4588 C4591 1.403 . S
H4589 C4595 0.930 . S
C4590 H4576 0.930 . S
C4590 C4588 1.395 . S
C4590 C4593 1.403 . S
C4591 C4588 1.403 . S
C4591 C4592 1.524 . S
C4591 C4595 1.400 . S
C4592 H4577 0.960 . S
C4592 H4578 0.960 . S
C4592 H4579 0.960 . S
C4592 C4591 1.524 . S
C4593 C4590 1.403 . S
C4593 C4594 1.392 . S
C4593 C4597 1.495 . S
C4594 C4593 1.392 . S
C4594 C4595 1.385 . S
C4594 C4596 1.478 . S
C4595 H4589 0.930 . S
C4595 C4591 1.400 . S
C4595 C4594 1.385 . S
C4596 C4594 1.478 . S
C4596 C4598 1.381 . S
C4596 C4602 1.383 . S
C4597 C4593 1.495 . S
C4597 H4603 0.959 . S
C4597 H4604 0.961 . S
C4597 H4605 0.960 . S
C4598 C4596 1.381 . S
C4598 C4599 1.394 . S
C4598 H4606 0.930 . S
C4599 C4598 1.394 . S
C4599 C4600 1.383 . S
C4599 H4607 0.929 . S
C4600 C4599 1.383 . S
C4600 C4601 1.377 . S
C4601 H4585 0.930 . S
C4601 C4600 1.377 . S
C4601 C4602 1.379 . S
C4602 H4586 0.931 . S
C4602 C4596 1.383 . S
C4602 C4601 1.379 . S
H4603 C4597 0.959 . S
H4604 C4597 0.961 . S
H4605 C4597 0.960 . S
H4606 C4598 0.930 . S
H4607 C4599 0.929 . S
H4608 C4616 0.929 . S
H4609 C4618 0.930 . S
H4610 C4620 0.930 . S
H4611 C4623 0.929 . S
H4612 C4626 0.930 . S
H4613 C4628 0.960 . S
H4614 C4628 0.960 . S
H4615 C4628 0.960 . S
C4616 H4608 0.929 . S
C4616 C4617 1.377 . S
C4616 C4618 1.384 . S
C4617 C4616 1.377 . S
C4617 C4623 1.390 . S
C4618 H4609 0.930 . S
C4618 C4616 1.384 . S
C4618 C4619 1.372 . S
C4619 C4618 1.372 . S
C4619 C4620 1.400 . S
C4619 C4624 1.490 . S
C4620 H4610 0.930 . S
C4620 C4619 1.400 . S
C4620 C4623 1.386 . S
H4621 C4637 0.930 . S
H4622 C4638 0.931 . S
C4623 H4611 0.929 . S
C4623 C4617 1.390 . S
C4623 C4620 1.386 . S
C4624 C4619 1.490 . S
C4624 C4626 1.395 . S
C4624 C4627 1.403 . S
H4625 C4631 0.930 . S
C4626 H4612 0.930 . S
C4626 C4624 1.395 . S
C4626 C4629 1.403 . S
C4627 C4624 1.403 . S
C4627 C4628 1.524 . S
C4627 C4631 1.400 . S
C4628 H4613 0.960 . S
C4628 H4614 0.960 . S
C4628 H4615 0.960 . S
C4628 C4627 1.524 . S
C4629 C4626 1.403 . S
C4629 C4630 1.392 . S
C4629 C4633 1.495 . S
C4630 C4629 1.392 . S
C4630 C4631 1.385 . S
C4630 C4632 1.478 . S
C4631 H4625 0.930 . S
C4631 C4627 1.400 . S
C4631 C4630 1.385 . S
C4632 C4630 1.478 . S
C4632 C4634 1.381 . S
C4632 C4638 1.383 . S
C4633 C4629 1.495 . S
C4633 H4639 0.959 . S
C4633 H4640 0.961 . S
C4633 H4641 0.960 . S
C4634 C4632 1.381 . S
C4634 C4635 1.394 . S
C4634 H4642 0.930 . S
C4635 C4634 1.394 . S
C4635 C4636 1.383 . S
C4635 H4643 0.929 . S
C4636 C4635 1.383 . S
C4636 C4637 1.377 . S
C4637 H4621 0.930 . S
C4637 C4636 1.377 . S
C4637 C4638 1.379 . S
C4638 H4622 0.931 . S
C4638 C4632 1.383 . S
C4638 C4637 1.379 . S
H4639 C4633 0.959 . S
H4640 C4633 0.961 . S
H4641 C4633 0.960 . S
H4642 C4634 0.930 . S
H4643 C4635 0.929 . S
H4644 C4652 0.929 . S
H4645 C4654 0.930 . S
H4646 C4656 0.930 . S
H4647 C4659 0.929 . S
H4648 C4662 0.930 . S
H4649 C4664 0.960 . S
H4650 C4664 0.960 . S
H4651 C4664 0.960 . S
C4652 H4644 0.929 . S
C4652 C4653 1.377 . S
C4652 C4654 1.384 . S
C4653 C4652 1.377 . S
C4653 C4659 1.390 . S
C4654 H4645 0.930 . S
C4654 C4652 1.384 . S
C4654 C4655 1.372 . S
C4655 C4654 1.372 . S
C4655 C4656 1.400 . S
C4655 C4660 1.490 . S
C4656 H4646 0.930 . S
C4656 C4655 1.400 . S
C4656 C4659 1.386 . S
H4657 C4673 0.930 . S
H4658 C4674 0.931 . S
C4659 H4647 0.929 . S
C4659 C4653 1.390 . S
C4659 C4656 1.386 . S
C4660 C4655 1.490 . S
C4660 C4662 1.395 . S
C4660 C4663 1.403 . S
H4661 C4667 0.930 . S
C4662 H4648 0.930 . S
C4662 C4660 1.395 . S
C4662 C4665 1.403 . S
C4663 C4660 1.403 . S
C4663 C4664 1.524 . S
C4663 C4667 1.400 . S
C4664 H4649 0.960 . S
C4664 H4650 0.960 . S
C4664 H4651 0.960 . S
C4664 C4663 1.524 . S
C4665 C4662 1.403 . S
C4665 C4666 1.392 . S
C4665 C4669 1.495 . S
C4666 C4665 1.392 . S
C4666 C4667 1.385 . S
C4666 C4668 1.478 . S
C4667 H4661 0.930 . S
C4667 C4663 1.400 . S
C4667 C4666 1.385 . S
C4668 C4666 1.478 . S
C4668 C4670 1.381 . S
C4668 C4674 1.383 . S
C4669 C4665 1.495 . S
C4669 H4675 0.959 . S
C4669 H4676 0.961 . S
C4669 H4677 0.960 . S
C4670 C4668 1.381 . S
C4670 C4671 1.394 . S
C4670 H4678 0.930 . S
C4671 C4670 1.394 . S
C4671 C4672 1.383 . S
C4671 H4679 0.929 . S
C4672 C4671 1.383 . S
C4672 C4673 1.377 . S
C4673 H4657 0.930 . S
C4673 C4672 1.377 . S
C4673 C4674 1.379 . S
C4674 H4658 0.931 . S
C4674 C4668 1.383 . S
C4674 C4673 1.379 . S
H4675 C4669 0.959 . S
H4676 C4669 0.961 . S
H4677 C4669 0.960 . S
H4678 C4670 0.930 . S
H4679 C4671 0.929 . S
H4680 C4688 0.929 . S
H4681 C4690 0.930 . S
H4682 C4692 0.930 . S
H4683 C4695 0.929 . S
H4684 C4698 0.930 . S
H4685 C4700 0.960 . S
H4686 C4700 0.960 . S
H4687 C4700 0.960 . S
C4688 H4680 0.929 . S
C4688 C4689 1.377 . S
C4688 C4690 1.384 . S
C4689 C4688 1.377 . S
C4689 C4695 1.390 . S
C4690 H4681 0.930 . S
C4690 C4688 1.384 . S
C4690 C4691 1.372 . S
C4691 C4690 1.372 . S
C4691 C4692 1.400 . S
C4691 C4696 1.490 . S
C4692 H4682 0.930 . S
C4692 C4691 1.400 . S
C4692 C4695 1.386 . S
H4693 C4709 0.930 . S
H4694 C4710 0.931 . S
C4695 H4683 0.929 . S
C4695 C4689 1.390 . S
C4695 C4692 1.386 . S
C4696 C4691 1.490 . S
C4696 C4698 1.395 . S
C4696 C4699 1.403 . S
H4697 C4703 0.930 . S
C4698 H4684 0.930 . S
C4698 C4696 1.395 . S
C4698 C4701 1.403 . S
C4699 C4696 1.403 . S
C4699 C4700 1.524 . S
C4699 C4703 1.400 . S
C4700 H4685 0.960 . S
C4700 H4686 0.960 . S
C4700 H4687 0.960 . S
C4700 C4699 1.524 . S
C4701 C4698 1.403 . S
C4701 C4702 1.392 . S
C4701 C4705 1.495 . S
C4702 C4701 1.392 . S
C4702 C4703 1.385 . S
C4702 C4704 1.478 . S
C4703 H4697 0.930 . S
C4703 C4699 1.400 . S
C4703 C4702 1.385 . S
C4704 C4702 1.478 . S
C4704 C4706 1.381 . S
C4704 C4710 1.383 . S
C4705 C4701 1.495 . S
C4705 H4711 0.959 . S
C4705 H4712 0.961 . S
C4705 H4713 0.960 . S
C4706 C4704 1.381 . S
C4706 C4707 1.394 . S
C4706 H4714 0.930 . S
C4707 C4706 1.394 . S
C4707 C4708 1.383 . S
C4707 H4715 0.929 . S
C4708 C4707 1.383 . S
C4708 C4709 1.377 . S
C4709 H4693 0.930 . S
C4709 C4708 1.377 . S
C4709 C4710 1.379 . S
C4710 H4694 0.931 . S
C4710 C4704 1.383 . S
C4710 C4709 1.379 . S
H4711 C4705 0.959 . S
H4712 C4705 0.961 . S
H4713 C4705 0.960 . S
H4714 C4706 0.930 . S
H4715 C4707 0.929 . S
H4716 C4724 0.929 . S
H4717 C4726 0.930 . S
H4718 C4728 0.930 . S
H4719 C4731 0.929 . S
H4720 C4734 0.930 . S
H4721 C4736 0.960 . S
H4722 C4736 0.960 . S
H4723 C4736 0.960 . S
C4724 H4716 0.929 . S
C4724 C4725 1.377 . S
C4724 C4726 1.384 . S
C4725 C4724 1.377 . S
C4725 C4731 1.390 . S
C4726 H4717 0.930 . S
C4726 C4724 1.384 . S
C4726 C4727 1.372 . S
C4727 C4726 1.372 . S
C4727 C4728 1.400 . S
C4727 C4732 1.490 . S
C4728 H4718 0.930 . S
C4728 C4727 1.400 . S
C4728 C4731 1.386 . S
H4729 C4745 0.930 . S
H4730 C4746 0.931 . S
C4731 H4719 0.929 . S
C4731 C4725 1.390 . S
C4731 C4728 1.386 . S
C4732 C4727 1.490 . S
C4732 C4734 1.395 . S
C4732 C4735 1.403 . S
H4733 C4739 0.930 . S
C4734 H4720 0.930 . S
C4734 C4732 1.395 . S
C4734 C4737 1.403 . S
C4735 C4732 1.403 . S
C4735 C4736 1.524 . S
C4735 C4739 1.400 . S
C4736 H4721 0.960 . S
C4736 H4722 0.960 . S
C4736 H4723 0.960 . S
C4736 C4735 1.524 . S
C4737 C4734 1.403 . S
C4737 C4738 1.392 . S
C4737 C4741 1.495 . S
C4738 C4737 1.392 . S
C4738 C4739 1.385 . S
C4738 C4740 1.478 . S
C4739 H4733 0.930 . S
C4739 C4735 1.400 . S
C4739 C4738 1.385 . S
C4740 C4738 1.478 . S
C4740 C4742 1.381 . S
C4740 C4746 1.383 . S
C4741 C4737 1.495 . S
C4741 H4747 0.959 . S
C4741 H4748 0.961 . S
C4741 H4749 0.960 . S
C4742 C4740 1.381 . S
C4742 C4743 1.394 . S
C4742 H4750 0.930 . S
C4743 C4742 1.394 . S
C4743 C4744 1.383 . S
C4743 H4751 0.929 . S
C4744 C4743 1.383 . S
C4744 C4745 1.377 . S
C4745 H4729 0.930 . S
C4745 C4744 1.377 . S
C4745 C4746 1.379 . S
C4746 H4730 0.931 . S
C4746 C4740 1.383 . S
C4746 C4745 1.379 . S
H4747 C4741 0.959 . S
H4748 C4741 0.961 . S
H4749 C4741 0.960 . S
H4750 C4742 0.930 . S
H4751 C4743 0.929 . S
H4752 C4760 0.929 . S
H4753 C4762 0.930 . S
H4754 C4764 0.930 . S
H4755 C4767 0.929 . S
H4756 C4770 0.930 . S
H4757 C4772 0.960 . S
H4758 C4772 0.960 . S
H4759 C4772 0.960 . S
C4760 H4752 0.929 . S
C4760 C4761 1.377 . S
C4760 C4762 1.384 . S
C4761 C4760 1.377 . S
C4761 C4767 1.390 . S
C4762 H4753 0.930 . S
C4762 C4760 1.384 . S
C4762 C4763 1.372 . S
C4763 C4762 1.372 . S
C4763 C4764 1.400 . S
C4763 C4768 1.490 . S
C4764 H4754 0.930 . S
C4764 C4763 1.400 . S
C4764 C4767 1.386 . S
H4765 C4781 0.930 . S
H4766 C4782 0.931 . S
C4767 H4755 0.929 . S
C4767 C4761 1.390 . S
C4767 C4764 1.386 . S
C4768 C4763 1.490 . S
C4768 C4770 1.395 . S
C4768 C4771 1.403 . S
H4769 C4775 0.930 . S
C4770 H4756 0.930 . S
C4770 C4768 1.395 . S
C4770 C4773 1.403 . S
C4771 C4768 1.403 . S
C4771 C4772 1.524 . S
C4771 C4775 1.400 . S
C4772 H4757 0.960 . S
C4772 H4758 0.960 . S
C4772 H4759 0.960 . S
C4772 C4771 1.524 . S
C4773 C4770 1.403 . S
C4773 C4774 1.392 . S
C4773 C4777 1.495 . S
C4774 C4773 1.392 . S
C4774 C4775 1.385 . S
C4774 C4776 1.478 . S
C4775 H4769 0.930 . S
C4775 C4771 1.400 . S
C4775 C4774 1.385 . S
C4776 C4774 1.478 . S
C4776 C4778 1.381 . S
C4776 C4782 1.383 . S
C4777 C4773 1.495 . S
C4777 H4783 0.959 . S
C4777 H4784 0.961 . S
C4777 H4785 0.960 . S
C4778 C4776 1.381 . S
C4778 C4779 1.394 . S
C4778 H4786 0.930 . S
C4779 C4778 1.394 . S
C4779 C4780 1.383 . S
C4779 H4787 0.929 . S
C4780 C4779 1.383 . S
C4780 C4781 1.377 . S
C4781 H4765 0.930 . S
C4781 C4780 1.377 . S
C4781 C4782 1.379 . S
C4782 H4766 0.931 . S
C4782 C4776 1.383 . S
C4782 C4781 1.379 . S
H4783 C4777 0.959 . S
H4784 C4777 0.961 . S
H4785 C4777 0.960 . S
H4786 C4778 0.930 . S
H4787 C4779 0.929 . S
H4788 C4796 0.929 . S
H4789 C4798 0.930 . S
H4790 C4800 1.004 . S
H4791 C4803 0.926 1_455 S
H4792 C4806 0.930 . S
H4793 C4808 0.960 . S
H4794 C4808 0.960 1_655 S
H4795 C4808 0.960 . S
C4796 H4788 0.929 . S
C4796 C4797 1.377 . S
C4796 C4798 1.384 . S
C4797 C4796 1.377 . S
C4797 C4803 1.396 . S
C4798 H4789 0.930 . S
C4798 C4796 1.384 . S
C4798 C4799 1.372 . S
C4799 C4798 1.372 . S
C4799 C4800 1.364 1_655 S
C4799 C4804 1.490 . S
C4800 H4790 1.004 . S
C4800 C4799 1.364 1_455 S
C4800 C4803 1.350 1_455 S
H4801 C4817 0.930 . S
H4802 C4818 0.931 . S
C4803 H4791 0.926 1_655 S
C4803 C4797 1.396 . S
C4803 C4800 1.350 1_655 S
C4804 C4799 1.490 . S
C4804 C4806 1.395 . S
C4804 C4807 1.403 . S
H4805 C4811 0.930 1_455 S
C4806 H4792 0.930 . S
C4806 C4804 1.395 . S
C4806 C4809 1.403 . S
C4807 C4804 1.403 . S
C4807 C4808 1.524 1_655 S
C4807 C4811 1.400 . S
C4808 H4793 0.960 . S
C4808 H4794 0.960 1_455 S
C4808 H4795 0.960 . S
C4808 C4807 1.524 1_455 S
C4809 C4806 1.403 . S
C4809 C4810 1.392 . S
C4809 C4813 1.495 . S
C4810 C4809 1.392 . S
C4810 C4811 1.385 . S
C4810 C4812 1.478 . S
C4811 H4805 0.930 1_655 S
C4811 C4807 1.400 . S
C4811 C4810 1.385 . S
C4812 C4810 1.478 . S
C4812 C4814 1.381 . S
C4812 C4818 1.383 1_655 S
C4813 C4809 1.495 . S
C4813 H4819 0.959 . S
C4813 H4820 0.961 . S
C4813 H4821 0.960 . S
C4814 C4812 1.381 . S
C4814 C4815 1.394 . S
C4814 H4822 0.930 . S
C4815 C4814 1.394 . S
C4815 C4816 1.383 . S
C4815 H4823 0.929 . S
C4816 C4815 1.383 . S
C4816 C4817 1.377 1_655 S
C4817 H4801 0.930 . S
C4817 C4816 1.377 1_455 S
C4817 C4818 1.379 . S
C4818 H4802 0.931 . S
C4818 C4812 1.383 1_455 S
C4818 C4817 1.379 . S
H4819 C4813 0.959 . S
H4820 C4813 0.961 . S
H4821 C4813 0.960 . S
H4822 C4814 0.930 . S
H4823 C4815 0.929 . S
H4824 C4832 0.929 . S
H4825 C4834 0.930 . S
H4826 C4836 0.930 . S
H4827 C4839 0.929 . S
H4828 C4842 0.930 . S
H4829 C4844 0.960 . S
H4830 C4844 0.960 . S
H4831 C4844 0.960 . S
C4832 H4824 0.929 . S
C4832 C4833 1.377 . S
C4832 C4834 1.384 . S
C4833 C4832 1.377 . S
C4833 C4839 1.390 . S
C4834 H4825 0.930 . S
C4834 C4832 1.384 . S
C4834 C4835 1.372 . S
C4835 C4834 1.372 . S
C4835 C4836 1.400 . S
C4835 C4840 1.490 . S
C4836 H4826 0.930 . S
C4836 C4835 1.400 . S
C4836 C4839 1.386 . S
H4837 C4853 0.930 . S
H4838 C4854 0.931 . S
C4839 H4827 0.929 . S
C4839 C4833 1.390 . S
C4839 C4836 1.386 . S
C4840 C4835 1.490 . S
C4840 C4842 1.395 . S
C4840 C4843 1.403 . S
H4841 C4847 0.930 . S
C4842 H4828 0.930 . S
C4842 C4840 1.395 . S
C4842 C4845 1.403 . S
C4843 C4840 1.403 . S
C4843 C4844 1.524 . S
C4843 C4847 1.400 . S
C4844 H4829 0.960 . S
C4844 H4830 0.960 . S
C4844 H4831 0.960 . S
C4844 C4843 1.524 . S
C4845 C4842 1.403 . S
C4845 C4846 1.392 . S
C4845 C4849 1.495 . S
C4846 C4845 1.392 . S
C4846 C4847 1.385 . S
C4846 C4848 1.478 . S
C4847 H4841 0.930 . S
C4847 C4843 1.400 . S
C4847 C4846 1.385 . S
C4848 C4846 1.478 . S
C4848 C4850 1.381 . S
C4848 C4854 1.383 . S
C4849 C4845 1.495 . S
C4849 H4855 0.959 . S
C4849 H4856 0.961 . S
C4849 H4857 0.960 . S
C4850 C4848 1.381 . S
C4850 C4851 1.394 . S
C4850 H4858 0.930 . S
C4851 C4850 1.394 . S
C4851 C4852 1.383 . S
C4851 H4859 0.929 . S
C4852 C4851 1.383 . S
C4852 C4853 1.377 . S
C4853 H4837 0.930 . S
C4853 C4852 1.377 . S
C4853 C4854 1.379 . S
C4854 H4838 0.931 . S
C4854 C4848 1.383 . S
C4854 C4853 1.379 . S
H4855 C4849 0.959 . S
H4856 C4849 0.961 . S
H4857 C4849 0.960 . S
H4858 C4850 0.930 . S
H4859 C4851 0.929 . S
H4860 C4868 0.929 . S
H4861 C4870 0.930 . S
H4862 C4872 0.930 1_565 S
H4863 C4875 0.881 1_565 S
H4864 C4878 0.930 . S
H4865 C4880 0.960 . S
H4866 C4880 0.960 . S
H4867 C4880 0.960 . S
C4868 H4860 0.929 . S
C4868 C4869 1.377 . S
C4868 C4870 1.384 . S
C4869 C4868 1.377 . S
C4869 C4875 1.390 . S
C4870 H4861 0.930 . S
C4870 C4868 1.384 . S
C4870 C4871 1.372 . S
C4871 C4870 1.372 . S
C4871 C4872 1.400 . S
C4871 C4876 1.490 . S
C4872 H4862 0.930 1_545 S
C4872 C4871 1.400 . S
C4872 C4875 1.386 . S
H4873 C4889 0.930 . S
H4874 C4890 0.931 . S
C4875 H4863 0.881 1_545 S
C4875 C4869 1.390 . S
C4875 C4872 1.386 . S
C4876 C4871 1.490 . S
C4876 C4878 1.395 . S
C4876 C4879 1.403 . S
H4877 C4883 0.930 . S
C4878 H4864 0.930 . S
C4878 C4876 1.395 . S
C4878 C4881 1.403 . S
C4879 C4876 1.403 . S
C4879 C4880 1.524 . S
C4879 C4883 1.400 . S
C4880 H4865 0.960 . S
C4880 H4866 0.960 . S
C4880 H4867 0.960 . S
C4880 C4879 1.524 . S
C4881 C4878 1.403 . S
C4881 C4882 1.392 . S
C4881 C4885 1.495 . S
C4882 C4881 1.392 . S
C4882 C4883 1.385 . S
C4882 C4884 1.478 . S
C4883 H4877 0.930 . S
C4883 C4879 1.400 . S
C4883 C4882 1.385 . S
C4884 C4882 1.478 . S
C4884 C4886 1.381 . S
C4884 C4890 1.383 1_545 S
C4885 C4881 1.495 . S
C4885 H4891 0.959 . S
C4885 H4892 0.961 1_545 S
C4885 H4893 0.960 . S
C4886 C4884 1.381 . S
C4886 C4887 1.394 . S
C4886 H4894 0.930 . S
C4887 C4886 1.394 . S
C4887 C4888 1.383 . S
C4887 H4895 0.929 . S
C4888 C4887 1.383 . S
C4888 C4889 1.377 1_545 S
C4889 H4873 0.930 . S
C4889 C4888 1.377 1_565 S
C4889 C4890 1.379 . S
C4890 H4874 0.931 . S
C4890 C4884 1.383 1_565 S
C4890 C4889 1.379 . S
H4891 C4885 0.959 . S
H4892 C4885 0.961 1_565 S
H4893 C4885 0.960 . S
H4894 C4886 0.930 . S
H4895 C4887 0.929 . S
C2313 C4 1.215 . S
C2332 C1307 0.992 1_655 S
C2349 C26 1.622 . S
C2368 C1447 1.026 . S
C2404 C1535 1.115 . S
C2385 C32 1.192 . S
C2421 C40 1.292 . S
C2440 C1675 0.985 1_565 S
C2457 C12 1.318 . S
C2476 C1789 0.977 . S
C2493 C18 1.519 1_556 S
C2512 C1877 1.229 . S
C2529 C46 1.182 . S
C2548 C1763 0.908 . S
C2584 C1903 1.236 . S
C2565 C68 1.531 . S
C2620 C1649 0.956 . S
C2601 C74 1.258 . S
C2637 C82 1.287 . S
C2656 C1561 0.868 . S
C2692 C1333 0.951 . S
C2673 C54 1.345 . S
C2709 C60 1.431 . S
C2728 C1421 1.304 . S
C2745 C88 1.674 . S
C2764 C1991 1.220 . S
C2781 C110 1.733 . S
C2800 C2131 1.138 . S
C2836 C2219 1.271 . S
C2817 C116 1.637 . S
C2853 C124 1.553 . S
C2872 C307 0.960 . S
C2889 C96 1.658 . S
C2908 C421 1.074 . S
C2925 C102 1.616 . S
C2944 C509 1.212 . S
C2961 C130 1.405 . S
C2980 C395 1.306 . S
C2997 C152 1.647 . S
C3016 C535 1.388 . S
C3052 C281 1.423 . S
C3033 C158 1.584 . S
C3088 C2245 1.321 . S
C3069 C166 1.646 . S
C3124 C2017 1.236 . S
C3105 C138 1.516 . S
C3160 C2105 1.432 . S
C3141 C144 1.563 . S
C3177 C172 1.506 . S
C3196 C623 1.065 . S
C3213 C194 1.738 . S
C3232 C763 1.039 . S
C3249 C200 1.675 . S
C3268 C851 1.210 . S
C3285 C208 1.710 . S
C3304 C991 1.074 . S
C3340 C1105 1.005 . S
C3321 C180 1.612 . S
C3376 C1193 1.234 . S
C3357 C186 1.640 . S
C3412 C1079 1.419 . S
C3393 C214 1.597 . S
C3448 C1219 1.397 . S
C3429 C236 1.638 . S
C3465 C242 1.524 . S
C3484 C965 1.345 . S
C3520 C877 1.258 . S
C3501 C250 1.463 . S
C3537 C222 1.588 . S
C3556 C649 1.304 . S
C3592 C737 1.405 . S
C3573 C228 1.530 . S
C3628 C263 1.001 . S
C3609 C5 1.544 . S
C3645 C25 1.506 . S
C3664 C377 0.748 . S
C3700 C481 1.156 . S
C3681 C33 1.457 . S
C3736 C595 1.022 . S
C3717 C39 1.399 . S
C3772 C719 0.863 . S
C3753 C11 1.630 . S
C3808 C823 1.041 . S
C3789 C19 1.271 1_556 S
C3825 C47 1.638 1_556 S
C3844 C833 1.415 . S
C3861 C67 1.610 . S
C3880 C605 1.226 . S
C3897 C75 1.569 1_556 S
C3916 C709 1.549 . S
C3933 C81 1.519 . S
C3952 C367 1.287 . S
C3988 C491 1.341 . S
C3969 C53 1.712 . S
C4005 C61 1.341 . S
C4024 C253 1.399 . S
C4060 C947 0.812 . S
C4041 C89 1.386 . S
C4077 C109 1.673 . S
C4096 C1061 0.933 . S
C4113 C117 1.394 . S
C4132 C1165 1.159 . S
C4168 C1279 0.837 . S
C4149 C123 0.956 . S
C4185 C95 1.467 . S
C4204 C1403 0.747 . S
C4221 C103 1.001 . S
C4240 C1507 0.976 . S
C4257 C131 1.104 . S
C4276 C1517 0.832 1_565 S
C4293 C151 1.120 . S
C4312 C1289 0.837 . S
C4348 C1393 1.325 . S
C4329 C159 1.350 . S
C4365 C165 1.443 . S
C4384 C1051 1.305 . S
C4401 C137 1.730 . S
C4420 C1175 1.367 . S
C4456 C937 1.493 . S
C4437 C145 1.500 . S
C4492 C1631 0.755 . S
C4473 C173 1.108 . S
C4509 C193 1.058 . S
C4528 C1745 0.864 . S
C4545 C201 1.251 . S
C4564 C1849 1.056 . S
C4600 C1963 1.002 . S
C4581 C207 1.322 . S
C4636 C2087 0.956 . S
C4617 C179 1.660 . S
C4653 C187 1.409 . S
C4672 C2191 1.142 . S
C4689 C215 1.498 . S
C4708 C2201 1.360 . S
C4725 C235 1.765 . S
C4744 C1973 1.315 . S
C4780 C2077 1.470 . S
C4761 C243 1.489 . S
C4816 C1735 0.799 1_655 S
C4797 C249 0.937 . S
C4852 C1859 1.214 . S
C4833 C221 1.573 . S
C4869 C229 1.022 . S
C4888 C1621 0.858 1_545 S
