# Generated by pormake.
# Topology pyr, (3,6)-cn, num edge types: 1
# Building blocks:
#     Node 0, Type 0, BuildingBlock: BETDIP_clean_linker_0, # of connection points: 3
#     Node 1, Type 0, BuildingBlock: BETDIP_clean_linker_0, # of connection points: 3
#     Node 2, Type 0, BuildingBlock: BETDIP_clean_linker_0, # of connection points: 3
#     Node 3, Type 0, BuildingBlock: BETDIP_clean_linker_0, # of connection points: 3
#     Node 4, Type 0, BuildingBlock: BETDIP_clean_linker_0, # of connection points: 3
#     Node 5, Type 0, BuildingBlock: BETDIP_clean_linker_0, # of connection points: 3
#     Node 6, Type 0, BuildingBlock: BETDIP_clean_linker_0, # of connection points: 3
#     Node 7, Type 0, BuildingBlock: BETDIP_clean_linker_0, # of connection points: 3
#     Node 8, Type 1, BuildingBlock: BETDIP_clean_sbu_0, # of connection points: 6
#     Node 9, Type 1, BuildingBlock: BETDIP_clean_sbu_0, # of connection points: 6
#     Node 10, Type 1, BuildingBlock: BETDIP_clean_sbu_0, # of connection points: 6
#     Node 11, Type 1, BuildingBlock: BETDIP_clean_sbu_0, # of connection points: 6
#     Edge 12, Type (0, 1), BuildingBlock: MIFKUJ_clean_linker_0, # of connection points: 2
#     Edge 13, Type (0, 1), BuildingBlock: MIFKUJ_clean_linker_0, # of connection points: 2
#     Edge 14, Type (0, 1), BuildingBlock: MIFKUJ_clean_linker_0, # of connection points: 2
#     Edge 15, Type (0, 1), BuildingBlock: MIFKUJ_clean_linker_0, # of connection points: 2
#     Edge 16, Type (0, 1), BuildingBlock: MIFKUJ_clean_linker_0, # of connection points: 2
#     Edge 17, Type (0, 1), BuildingBlock: MIFKUJ_clean_linker_0, # of connection points: 2
#     Edge 18, Type (0, 1), BuildingBlock: MIFKUJ_clean_linker_0, # of connection points: 2
#     Edge 19, Type (0, 1), BuildingBlock: MIFKUJ_clean_linker_0, # of connection points: 2
#     Edge 20, Type (0, 1), BuildingBlock: MIFKUJ_clean_linker_0, # of connection points: 2
#     Edge 21, Type (0, 1), BuildingBlock: MIFKUJ_clean_linker_0, # of connection points: 2
#     Edge 22, Type (0, 1), BuildingBlock: MIFKUJ_clean_linker_0, # of connection points: 2
#     Edge 23, Type (0, 1), BuildingBlock: MIFKUJ_clean_linker_0, # of connection points: 2
#     Edge 24, Type (0, 1), BuildingBlock: MIFKUJ_clean_linker_0, # of connection points: 2
#     Edge 25, Type (0, 1), BuildingBlock: MIFKUJ_clean_linker_0, # of connection points: 2
#     Edge 26, Type (0, 1), BuildingBlock: MIFKUJ_clean_linker_0, # of connection points: 2
#     Edge 27, Type (0, 1), BuildingBlock: MIFKUJ_clean_linker_0, # of connection points: 2
#     Edge 28, Type (0, 1), BuildingBlock: MIFKUJ_clean_linker_0, # of connection points: 2
#     Edge 29, Type (0, 1), BuildingBlock: MIFKUJ_clean_linker_0, # of connection points: 2
#     Edge 30, Type (0, 1), BuildingBlock: MIFKUJ_clean_linker_0, # of connection points: 2
#     Edge 31, Type (0, 1), BuildingBlock: MIFKUJ_clean_linker_0, # of connection points: 2
#     Edge 32, Type (0, 1), BuildingBlock: MIFKUJ_clean_linker_0, # of connection points: 2
#     Edge 33, Type (0, 1), BuildingBlock: MIFKUJ_clean_linker_0, # of connection points: 2
#     Edge 34, Type (0, 1), BuildingBlock: MIFKUJ_clean_linker_0, # of connection points: 2
#     Edge 35, Type (0, 1), BuildingBlock: MIFKUJ_clean_linker_0, # of connection points: 2
# Relax obj value: 0.137
# Max RMSD: 0.228
# Mean RMSD: 0.150
data_MOF--net-pyr--node1-BETDIP_clean_sbu_0--node2-BETDIP_clean_linker_0--edge1-MIFKUJ_clean_linker_0
_symmetry_space_group_name_H-M    P1
_symmetry_Int_Tables_number       1
_symmetry_cell_setting            triclinic
loop_
_symmetry_equiv_pos_as_xyz
'x, y, z'
_cell_length_a     45.873671
_cell_length_b     49.576055
_cell_length_c     50.681129
_cell_angle_alpha  90.07209
_cell_angle_beta   90.49009
_cell_angle_gamma 108.35298
loop_
_atom_site_label
_atom_site_type_symbol
_atom_site_fract_x
_atom_site_fract_y
_atom_site_fract_z
_atom_type_partial_charge
H0 H 0.29466 0.2859 0.23803 0.0
H1 H 0.34492 0.2721 0.17104 0.0
H2 H 0.34544 0.22637 0.2429 0.0
H3 H 0.33344 0.30945 0.15329 0.0
C4 C 0.31257 0.30996 0.1629 0.0
C5 C 0.30979 0.27547 0.22931 0.0
C6 C 0.31906 0.2555 0.2439 0.0
C7 C 0.31891 0.28168 0.20318 0.0
C8 C 0.33823 0.26809 0.19143 0.0
C9 C 0.34845 0.24855 0.20595 0.0
C10 C 0.33887 0.24249 0.23217 0.0
N11 N 0.30589 0.29989 0.18908 0.0
H12 H 0.1648 0.7793 0.75023 0.0
H13 H 0.17538 0.73855 0.67752 0.0
H14 H 0.24012 0.74598 0.74064 0.0
H15 H 0.13377 0.74746 0.66413 0.0
C16 C 0.12823 0.7621 0.6776 0.0
C17 C 0.17683 0.76773 0.73877 0.0
C18 C 0.20382 0.76377 0.74878 0.0
C19 C 0.1661 0.75865 0.71327 0.0
C20 C 0.18251 0.74499 0.69755 0.0
C21 C 0.20947 0.74079 0.70737 0.0
C22 C 0.21956 0.74971 0.73306 0.0
N23 N 0.14045 0.76612 0.70369 0.0
H24 H 0.67333 0.4019 0.83772 0.0
H25 H 0.59605 0.32519 0.83956 0.0
H26 H 0.66739 0.34033 0.89871 0.0
H27 H 0.66212 0.39334 0.79123 0.0
C28 C 0.63754 0.3899 0.79201 0.0
C29 C 0.6615 0.38156 0.84654 0.0
C30 C 0.67344 0.37338 0.86983 0.0
C31 C 0.63353 0.36415 0.83543 0.0
C32 C 0.61772 0.33832 0.84786 0.0
C33 C 0.62969 0.32944 0.87082 0.0
C34 C 0.65756 0.34719 0.88145 0.0
N35 N 0.62018 0.37267 0.81257 0.0
H36 H 0.83395 0.66389 0.33817 0.0
H37 H 0.9093 0.74058 0.32648 0.0
H38 H 0.84831 0.73454 0.39158 0.0
H39 H 0.90195 0.7246 0.28314 0.0
C40 C 0.8969 0.70176 0.28494 0.0
C41 C 0.8469 0.68525 0.3444 0.0
C42 C 0.83763 0.69739 0.36661 0.0
C43 C 0.87225 0.70074 0.32948 0.0
C44 C 0.88922 0.7286 0.33737 0.0
C45 C 0.88033 0.74101 0.35963 0.0
C46 C 0.85459 0.72526 0.37401 0.0
N47 N 0.88024 0.68732 0.30705 0.0
H48 H 0.65279 0.78531 0.8948 0.0
H49 H 0.71205 0.77373 0.83361 0.0
H50 H 0.68417 0.84864 0.83439 0.0
H51 H 0.68835 0.72652 0.84363 0.0
C52 C 0.69024 0.72863 0.86498 0.0
C53 C 0.66534 0.79263 0.87679 0.0
C54 C 0.66635 0.81899 0.86594 0.0
C55 C 0.6812 0.77589 0.86501 0.0
C56 C 0.69848 0.78578 0.84219 0.0
C57 C 0.6998 0.81206 0.8311 0.0
C58 C 0.68359 0.8285 0.84306 0.0
N59 N 0.68149 0.75041 0.87769 0.0
H60 H 0.84387 0.26663 0.3295 0.0
H61 H 0.8421 0.30796 0.4037 0.0
H62 H 0.78036 0.31352 0.34133 0.0
H63 H 0.88877 0.30031 0.41031 0.0
C64 C 0.88504 0.28003 0.40045 0.0
C65 C 0.83468 0.27999 0.34165 0.0
C66 C 0.81071 0.28932 0.33203 0.0
C67 C 0.84637 0.28672 0.36722 0.0
C68 C 0.83424 0.30348 0.38349 0.0
C69 C 0.81092 0.31374 0.3739 0.0
C70 C 0.79946 0.30681 0.34812 0.0
N71 N 0.86798 0.27372 0.37648 0.0
H72 H 0.32359 0.64723 0.22823 0.0
H73 H 0.40061 0.72384 0.23635 0.0
H74 H 0.33572 0.71533 0.17284 0.0
H75 H 0.41374 0.70326 0.27102 0.0
C76 C 0.39755 0.68247 0.27496 0.0
C77 C 0.33634 0.66832 0.2214 0.0
C78 C 0.32661 0.67914 0.1985 0.0
C79 C 0.36285 0.68404 0.23543 0.0
C80 C 0.37995 0.7114 0.2262 0.0
C81 C 0.37059 0.72265 0.20317 0.0
C82 C 0.34373 0.70641 0.18988 0.0
N83 N 0.37129 0.6711 0.25829 0.0
H84 H 0.11849 0.30696 0.7451 0.0
H85 H 0.19497 0.3841 0.74445 0.0
H86 H 0.18712 0.32033 0.68489 0.0
H87 H 0.18578 0.37571 0.79139 0.0
C88 C 0.16139 0.37318 0.79026 0.0
C89 C 0.13957 0.32001 0.73613 0.0
C90 C 0.1513 0.31001 0.71391 0.0
C91 C 0.15548 0.34641 0.74754 0.0
C92 C 0.18291 0.36347 0.73603 0.0
C93 C 0.19458 0.35412 0.71345 0.0
C94 C 0.17866 0.32736 0.70267 0.0
N95 N 0.14304 0.35569 0.77014 0.0
Tb96 Tb 0.9829 1.00966 0.53763 0.0
Tb97 Tb 0.05041 0.04114 0.53424 0.0
C98 C 0.9311 0.97237 0.53932 0.0
C99 C 0.91608 0.95393 0.56113 0.0
C100 C 0.88564 0.93625 0.55864 0.0
C101 C 0.87053 0.92095 0.58043 0.0
C102 C 0.88568 0.92334 0.60501 0.0
C103 C 0.91659 0.94027 0.60707 0.0
C104 C 0.93165 0.95546 0.58532 0.0
C105 C 1.00464 0.04889 0.57443 0.0
C106 C 0.03174 0.98503 0.56535 0.0
C107 C 0.10273 0.07803 0.53517 0.0
C108 C 0.12102 0.09791 0.5157 0.0
C109 C 0.15053 0.1156 0.52234 0.0
C110 C 0.16876 0.13338 0.50334 0.0
C111 C 0.1578 0.13351 0.47731 0.0
C112 C 0.12787 0.11599 0.47098 0.0
C113 C 0.10963 0.09841 0.49003 0.0
C114 C 0.02879 1.00177 0.4975 0.0
C115 C 1.00115 0.06513 0.50579 0.0
O116 O 0.95552 0.96766 0.52989 0.0
O117 O 0.93548 0.99942 0.54326 0.0
O118 O 0.01792 0.03248 0.5651 0.0
O119 O 0.97703 0.04182 0.56501 0.0
O120 O 1.00452 0.97965 0.55389 0.0
O121 O 0.05214 1.01071 0.56459 0.0
O122 O 0.07775 0.0829 0.54299 0.0
O123 O 0.09796 0.05118 0.52982 0.0
O124 O 0.01549 1.01816 0.50682 0.0
O125 O 0.05656 1.0092 0.50667 0.0
O126 O 0.0286 0.07087 0.5171 0.0
O127 O 0.98088 0.03938 0.50685 0.0
H128 H 0.87331 0.93494 0.54011 0.0
H129 H 0.84663 0.90823 0.57834 0.0
H130 H 0.92894 0.94222 0.62566 0.0
H131 H 0.95519 0.96907 0.5876 0.0
H132 H 0.15956 0.1155 0.54216 0.0
H133 H 0.19146 0.14693 0.50903 0.0
H134 H 0.11882 0.11514 0.45109 0.0
H135 H 0.08688 0.08471 0.48459 0.0
Tb136 Tb 0.53573 0.04165 0.05309 0.0
Tb137 Tb 0.47302 1.01496 0.03102 0.0
C138 C 0.59168 0.06862 0.06009 0.0
C139 C 0.60981 0.09139 0.07761 0.0
C140 C 0.59654 0.10986 0.09019 0.0
C141 C 0.61404 0.1307 0.10763 0.0
C142 C 0.64493 0.13315 0.11287 0.0
C143 C 0.65815 0.11485 0.09986 0.0
C144 C 0.64071 0.09416 0.08237 0.0
C145 C 0.50193 0.99678 0.07932 0.0
C146 C 0.48429 0.06032 0.07829 0.0
C147 C 0.41721 0.98798 1.02346 0.0
C148 C 0.39947 0.96637 1.00462 0.0
C149 C 0.37309 0.9452 1.01313 0.0
C150 C 0.35553 0.92483 0.99536 0.0
C151 C 0.364 0.92539 0.96869 0.0
C152 C 0.39077 0.94651 0.96036 0.0
C153 C 0.40844 0.96669 0.97819 0.0
C154 C 0.50701 0.05956 1.00463 0.0
C155 C 0.52454 0.99637 1.00573 0.0
O156 O 0.5742 0.0757 0.04266 0.0
O157 O 0.57769 0.04443 0.0715 0.0
O158 O 0.50313 0.99987 0.05462 0.0
O159 O 0.5214 0.01892 0.09025 0.0
O160 O 0.51421 0.06764 0.07478 0.0
O161 O 0.46489 0.03877 0.0653 0.0
O162 O 0.43477 0.97981 0.04 0.0
O163 O 0.43085 1.01325 1.01384 0.0
O164 O 0.50563 0.05669 0.02936 0.0
O165 O 0.48761 0.0373 0.99376 0.0
O166 O 0.49464 0.98883 1.00953 0.0
O167 O 0.54387 1.01803 1.01864 0.0
H168 H 0.57262 0.10793 0.0868 0.0
H169 H 0.6032 0.14435 0.11757 0.0
H170 H 0.68198 0.11647 0.10328 0.0
H171 H 0.65127 0.08009 0.07277 0.0
H172 H 0.366 0.9445 0.03353 0.0
H173 H 0.3354 0.9086 1.00257 0.0
H174 H 0.39778 0.94787 0.93993 0.0
H175 H 0.42889 0.98275 0.97124 0.0
Tb176 Tb 0.50731 0.55605 0.54367 0.0
Tb177 Tb 0.5083 0.50059 0.52089 0.0
C178 C 0.50098 0.60393 0.55058 0.0
C179 C 0.47648 0.61323 0.56268 0.0
C180 C 0.4464 0.60419 0.55222 0.0
C181 C 0.42338 0.61312 0.56352 0.0
C182 C 0.42968 0.63115 0.58569 0.0
C183 C 0.45973 0.6401 0.59624 0.0
C184 C 0.48291 0.63129 0.58478 0.0
C185 C 0.51928 0.521 0.57842 0.0
C186 C 0.45103 0.50198 0.55263 0.0
C187 C 0.51923 0.45577 0.5081 0.0
C188 C 0.54627 0.44644 0.50456 0.0
C189 C 0.57587 0.4643 0.511 0.0
C190 C 0.60148 0.45556 0.50594 0.0
C191 C 0.59771 0.42869 0.49474 0.0
C192 C 0.5679 0.4107 0.4889 0.0
C193 C 0.54242 0.41957 0.4937 0.0
C194 C 0.47871 0.52883 0.49222 0.0
C195 C 0.56784 0.55471 0.51537 0.0
O196 O 0.4933 0.58915 0.52873 0.0
O197 O 0.51751 0.59355 0.56644 0.0
O198 O 0.52875 0.52484 0.55496 0.0
O199 O 0.50389 0.53828 0.58349 0.0
O200 O 0.4595 0.52958 0.54782 0.0
O201 O 0.46898 0.48666 0.54673 0.0
O202 O 0.51348 0.46173 0.53232 0.0
O203 O 0.51607 0.47449 0.49106 0.0
O204 O 0.50331 0.53869 0.50505 0.0
O205 O 0.46993 0.50141 0.4945 0.0
O206 O 0.55474 0.52714 0.51119 0.0
O207 O 0.55379 0.57037 0.52808 0.0
H208 H 0.44052 0.59027 0.53517 0.0
H209 H 0.40071 0.60622 0.55454 0.0
H210 H 0.46532 0.65373 0.61349 0.0
H211 H 0.50585 0.63852 0.59323 0.0
H212 H 0.57918 0.48501 0.51968 0.0
H213 H 0.62417 0.46975 0.5108 0.0
H214 H 0.56432 0.39005 0.47992 0.0
H215 H 0.5197 0.40558 0.48857 0.0
Tb216 Tb 1.00583 0.55294 1.01112 0.0
Tb217 Tb 1.00044 0.50369 0.04647 0.0
C218 C 0.99503 0.59006 0.98233 0.0
C219 C 0.96987 0.60217 0.97952 0.0
C220 C 0.94376 0.59286 0.99545 0.0
C221 C 0.91858 0.60238 0.99073 0.0
C222 C 0.91896 0.62097 0.9697 0.0
C223 C 0.94564 0.63094 0.95439 0.0
C224 C 0.97088 0.6216 0.95929 0.0
C225 C 0.05676 0.55626 0.03771 0.0
C226 C 0.97516 0.55009 0.06794 0.0
C227 C 0.01058 0.46511 0.07346 0.0
C228 C 0.03563 0.45262 0.07413 0.0
C229 C 0.06489 0.46783 0.06475 0.0
C230 C 0.08884 0.45611 0.06623 0.0
C231 C 0.08403 0.42902 0.07725 0.0
C232 C 0.0543 0.41355 0.08577 0.0
C233 C 0.03038 0.42531 0.08429 0.0
C234 C 0.94982 0.50093 1.01937 0.0
C235 C 0.0327 0.50713 0.99076 0.0
O236 O 0.98795 0.56323 0.97586 0.0
O237 O 0.01123 0.59601 1.00417 0.0
O238 O 0.02966 0.54669 0.04602 0.0
O239 O 0.05604 0.5665 1.01428 0.0
O240 O 0.97662 0.55936 0.0433 0.0
O241 O 0.98618 0.5295 0.07475 0.0
O242 O 0.01793 0.49163 0.08115 0.0
O243 O 0.99357 0.46017 0.05204 0.0
O244 O 0.97705 0.50997 1.01145 0.0
O245 O 0.95007 0.49098 0.04297 0.0
O246 O 0.03176 0.49868 1.01557 0.0
O247 O 0.02033 0.52661 0.98337 0.0
H248 H 0.94244 0.57759 1.011 0.0
H249 H 0.89842 0.59429 1.00288 0.0
H250 H 0.94685 0.64566 0.93836 0.0
H251 H 0.99087 0.62895 0.9468 0.0
H252 H 0.06933 0.48894 0.05663 0.0
H253 H 0.11122 0.46864 0.05931 0.0
H254 H 0.04942 0.39231 0.09363 0.0
H255 H 0.00781 0.41314 0.09127 0.0
H256 H 0.26009 0.2467 0.25995 0.0
H257 H 0.23806 0.23093 0.30296 0.0
H258 H 0.32569 0.22703 0.3309 0.0
H259 H 0.3483 0.24355 0.28786 0.0
H260 H 0.27735 0.17849 0.34198 0.0
H261 H 0.3007 0.27908 0.3527 0.0
H262 H 0.30095 0.32718 0.34012 0.0
H263 H 0.20237 0.29988 0.34127 0.0
H264 H 0.20149 0.25149 0.35348 0.0
H265 H 0.21955 0.14337 0.47052 0.0
H266 H 0.25155 0.16884 0.43458 0.0
H267 H 0.17331 0.18672 0.40014 0.0
H268 H 0.14155 0.16271 0.43682 0.0
H269 H 0.22242 0.23114 0.39501 0.0
H270 H 0.19772 0.13074 0.3786 0.0
H271 H 0.19513 0.08142 0.38882 0.0
H272 H 0.29342 0.10696 0.39593 0.0
H273 H 0.29655 0.15654 0.38609 0.0
C274 C 0.27494 0.24312 0.27535 0.0
C275 C 0.30609 0.24669 0.27049 0.0
C276 C 0.26223 0.23397 0.29992 0.0
C277 C 0.28033 0.22815 0.3202 0.0
C278 C 0.31138 0.23152 0.3155 0.0
C279 C 0.32421 0.24085 0.29089 0.0
C280 C 0.26623 0.21737 0.34586 0.0
C281 C 0.2659 0.19023 0.35391 0.0
C282 C 0.25059 0.23242 0.36096 0.0
C283 C 0.25104 0.26159 0.35384 0.0
C284 C 0.27906 0.28327 0.35009 0.0
C285 C 0.27932 0.3106 0.34306 0.0
C286 C 0.2517 0.31657 0.33986 0.0
C287 C 0.22375 0.29523 0.34375 0.0
C288 C 0.22337 0.26785 0.35077 0.0
C289 C 0.20925 0.15324 0.45564 0.0
C290 C 0.17784 0.15075 0.45649 0.0
C291 C 0.22753 0.16751 0.4349 0.0
C292 C 0.2147 0.1792 0.41436 0.0
C293 C 0.18368 0.17771 0.41567 0.0
C294 C 0.16546 0.1637 0.43652 0.0
C295 C 0.23316 0.19205 0.391 0.0
C296 C 0.23426 0.21955 0.38333 0.0
C297 C 0.24918 0.17718 0.37603 0.0
C298 C 0.24734 0.14739 0.38192 0.0
C299 C 0.21876 0.12587 0.38255 0.0
C300 C 0.21719 0.09787 0.38824 0.0
C301 C 0.24408 0.09108 0.3931 0.0
C302 C 0.2726 0.11227 0.39221 0.0
C303 C 0.27429 0.14032 0.38657 0.0
H304 H 0.24283 0.06938 0.3975 0.0
H305 H 0.25195 0.33774 0.3344 0.0
H306 H 0.26435 0.78933 0.76143 0.0
H307 H 0.28625 0.81073 0.80326 0.0
H308 H 0.1956 0.78999 0.83629 0.0
H309 H 0.17326 0.76724 0.7946 0.0
H310 H 0.23394 0.84801 0.84337 0.0
H311 H 0.23727 0.75367 0.85769 0.0
H312 H 0.24846 0.70965 0.84611 0.0
H313 H 0.34454 0.75621 0.84102 0.0
H314 H 0.33388 0.80061 0.85218 0.0
H315 H 0.3011 0.904 0.96624 0.0
H316 H 0.26953 0.87128 0.9335 0.0
H317 H 0.35134 0.86809 0.89398 0.0
H318 H 0.38307 0.89936 0.92753 0.0
H319 H 0.31099 0.81745 0.89413 0.0
H320 H 0.30863 0.91148 0.87282 0.0
H321 H 0.2996 0.9572 0.88123 0.0
H322 H 0.20446 0.91334 0.89626 0.0
H323 H 0.21304 0.86731 0.88826 0.0
C324 C 0.24897 0.7886 0.7777 0.0
C325 C 0.21698 0.77622 0.77466 0.0
C326 C 0.26158 0.80105 0.80156 0.0
C327 C 0.24254 0.80167 0.82286 0.0
C328 C 0.21062 0.7896 0.82002 0.0
C329 C 0.19794 0.77677 0.79616 0.0
C330 C 0.25631 0.81605 0.84763 0.0
C331 C 0.25026 0.84103 0.8549 0.0
C332 C 0.27817 0.80723 0.86209 0.0
C333 C 0.28473 0.78051 0.85562 0.0
C334 C 0.26076 0.75456 0.85392 0.0
C335 C 0.26701 0.72953 0.84746 0.0
C336 C 0.29719 0.73014 0.84279 0.0
C337 C 0.32118 0.75577 0.84464 0.0
C338 C 0.31505 0.78087 0.85107 0.0
C339 C 0.31243 0.89592 0.9509 0.0
C340 C 0.34468 0.90452 0.94945 0.0
C341 C 0.2943 0.87745 0.932 0.0
C342 C 0.30805 0.86762 0.91101 0.0
C343 C 0.3402 0.8755 0.90993 0.0
C344 C 0.35833 0.89368 0.92897 0.0
C345 C 0.28913 0.84984 0.88965 0.0
C346 C 0.29426 0.82422 0.88297 0.0
C347 C 0.26675 0.85831 0.87545 0.0
C348 C 0.26156 0.88595 0.88027 0.0
C349 C 0.28584 0.91158 0.87813 0.0
C350 C 0.2808 0.93755 0.88278 0.0
C351 C 0.2515 0.93817 0.88936 0.0
C352 C 0.22716 0.91282 0.89123 0.0
C353 C 0.23209 0.88679 0.88662 0.0
H354 H 0.24763 0.95829 0.89295 0.0
H355 H 0.30198 0.71073 0.83778 0.0
H356 H 0.58091 0.39862 0.78989 0.0
H357 H 0.55924 0.41876 0.75333 0.0
H358 H 0.63898 0.42387 0.70651 0.0
H359 H 0.66131 0.40552 0.74359 0.0
H360 H 0.62746 0.46838 0.69805 0.0
H361 H 0.56121 0.3719 0.69839 0.0
H362 H 0.5249 0.32807 0.7164 0.0
H363 H 0.46043 0.37256 0.73271 0.0
H364 H 0.49654 0.41677 0.71517 0.0
H365 H 0.56335 0.49425 0.57482 0.0
H366 H 0.58165 0.46942 0.61011 0.0
H367 H 0.51574 0.48475 0.66336 0.0
H368 H 0.4975 0.50956 0.62829 0.0
H369 H 0.51933 0.42935 0.66742 0.0
H370 H 0.58797 0.526 0.66705 0.0
H371 H 0.624 0.56825 0.64627 0.0
H372 H 0.68401 0.52008 0.62678 0.0
H373 H 0.64811 0.47742 0.64714 0.0
C374 C 0.59366 0.4039 0.77171 0.0
C375 C 0.62278 0.40035 0.76958 0.0
C376 C 0.58116 0.41528 0.75065 0.0
C377 C 0.59707 0.42258 0.72664 0.0
C378 C 0.62605 0.41863 0.72461 0.0
C379 C 0.63881 0.40796 0.74583 0.0
C380 C 0.58438 0.43526 0.70399 0.0
C381 C 0.60391 0.45937 0.69122 0.0
C382 C 0.55342 0.42425 0.695 0.0
C383 C 0.53178 0.39775 0.70578 0.0
C384 C 0.53942 0.37241 0.70605 0.0
C385 C 0.51885 0.34748 0.71614 0.0
C386 C 0.49043 0.34756 0.72579 0.0
C387 C 0.48249 0.37255 0.72531 0.0
C388 C 0.503 0.39755 0.7153 0.0
C389 C 0.55262 0.49211 0.594 0.0
C390 C 0.52913 0.50405 0.59883 0.0
C391 C 0.56314 0.47798 0.61419 0.0
C392 C 0.55022 0.47532 0.63955 0.0
C393 C 0.52604 0.4864 0.64404 0.0
C394 C 0.51573 0.50072 0.62398 0.0
C395 C 0.56252 0.46197 0.66169 0.0
C396 C 0.5429 0.43799 0.67433 0.0
C397 C 0.59346 0.47276 0.67033 0.0
C398 C 0.61522 0.49847 0.65839 0.0
C399 C 0.60875 0.52437 0.65817 0.0
C400 C 0.62916 0.5484 0.64649 0.0
C401 C 0.65624 0.54683 0.63515 0.0
C402 C 0.66301 0.52125 0.63554 0.0
C403 C 0.64265 0.49716 0.64717 0.0
H404 H 0.672 0.56545 0.6261 0.0
H405 H 0.47452 0.32823 0.73356 0.0
H406 H 0.91593 0.72174 0.2361 0.0
H407 H 0.92694 0.69546 0.19842 0.0
H408 H 0.90514 0.61942 0.2455 0.0
H409 H 0.8938 0.64548 0.28311 0.0
H410 H 0.96022 0.63033 0.217 0.0
H411 H 0.85474 0.62506 0.20143 0.0
H412 H 0.81198 0.6447 0.19552 0.0
H413 H 0.85711 0.69265 0.12872 0.0
H414 H 0.90038 0.6736 0.13447 0.0
H415 H 0.95803 0.53093 0.11776 0.0
H416 H 0.94232 0.55608 0.15357 0.0
H417 H 0.94929 0.62681 0.1018 0.0
H418 H 0.96403 0.60127 0.06552 0.0
H419 H 0.90197 0.61953 0.13258 0.0
H420 H 0.00715 0.62685 0.14707 0.0
H421 H 0.05163 0.60942 0.1522 0.0
H422 H 0.01026 0.56124 0.22013 0.0
H423 H 0.96528 0.57805 0.21516 0.0
C424 C 0.91346 0.6994 0.23836 0.0
C425 C 0.90387 0.68565 0.26247 0.0
C426 C 0.91966 0.68441 0.21683 0.0
C427 C 0.91664 0.65542 0.21909 0.0
C428 C 0.90754 0.64175 0.24331 0.0
C429 C 0.90098 0.65665 0.26475 0.0
C430 C 0.92327 0.63943 0.19629 0.0
C431 C 0.94722 0.62762 0.19865 0.0
C432 C 0.90697 0.63671 0.17207 0.0
C433 C 0.88095 0.64813 0.16856 0.0
C434 C 0.85568 0.63999 0.18563 0.0
C435 C 0.83132 0.65098 0.18227 0.0
C436 C 0.83187 0.66998 0.1618 0.0
C437 C 0.85674 0.67797 0.14459 0.0
C438 C 0.88118 0.66706 0.14788 0.0
C439 C 0.95595 0.55174 0.11388 0.0
C440 C 0.96259 0.56419 0.08881 0.0
C441 C 0.94713 0.56619 0.13446 0.0
C442 C 0.94536 0.59371 0.13066 0.0
C443 C 0.95067 0.60571 0.10533 0.0
C444 C 0.95912 0.59107 0.08458 0.0
C445 C 0.93885 0.61017 0.15328 0.0
C446 C 0.915 0.62218 0.15089 0.0
C447 C 0.95557 0.61347 0.17739 0.0
C448 C 0.98271 0.60351 0.18059 0.0
C449 C 0.00744 0.61239 0.163 0.0
C450 C 0.03275 0.60263 0.16589 0.0
C451 C 0.03374 0.58418 0.18644 0.0
C452 C 0.00944 0.57551 0.2042 0.0
C453 C 0.98404 0.58516 0.20137 0.0
H454 H 0.05335 0.57664 0.18865 0.0
H455 H 0.81298 0.67845 0.15923 0.0
H456 H 0.33771 0.22104 0.15852 0.0
H457 H 0.36475 0.19016 0.13985 0.0
H458 H 0.42741 0.20829 0.20624 0.0
H459 H 0.40035 0.23926 0.22512 0.0
H460 H 0.45553 0.20733 0.15482 0.0
H461 H 0.37415 0.15054 0.20947 0.0
H462 H 0.32083 0.13274 0.22526 0.0
H463 H 0.28994 0.09939 0.14812 0.0
H464 H 0.34305 0.11742 0.13175 0.0
H465 H 0.5124 0.09399 0.11994 0.0
H466 H 0.49234 0.12592 0.14579 0.0
H467 H 0.409 0.10051 0.09889 0.0
H468 H 0.42812 0.06744 0.07431 0.0
H469 H 0.39416 0.10553 0.14587 0.0
H470 H 0.47355 0.16561 0.08964 0.0
H471 H 0.52634 0.18388 0.07257 0.0
H472 H 0.56048 0.21155 0.15045 0.0
H473 H 0.50791 0.19317 0.16802 0.0
C474 C 0.3576 0.21889 0.16888 0.0
C475 C 0.36692 0.23248 0.19328 0.0
C476 C 0.37291 0.20115 0.15828 0.0
C477 C 0.39789 0.19683 0.1718 0.0
C478 C 0.40816 0.21138 0.19556 0.0
C479 C 0.39263 0.2289 0.20634 0.0
C480 C 0.41188 0.17571 0.16184 0.0
C481 C 0.44234 0.18499 0.15313 0.0
C482 C 0.39447 0.14669 0.15947 0.0
C483 C 0.36255 0.13555 0.16933 0.0
C484 C 0.35596 0.13961 0.19582 0.0
C485 C 0.32578 0.12945 0.20488 0.0
C486 C 0.302 0.115 0.18769 0.0
C487 C 0.30837 0.11061 0.16141 0.0
C488 C 0.33852 0.12078 0.15223 0.0
C489 C 0.48966 0.09506 0.11541 0.0
C490 C 0.4718 0.07827 0.09514 0.0
C491 C 0.47831 0.11349 0.13003 0.0
C492 C 0.44938 0.11618 0.12395 0.0
C493 C 0.43136 0.09889 0.10403 0.0
C494 C 0.44233 0.07997 0.08995 0.0
C495 C 0.4377 0.13712 0.13784 0.0
C496 C 0.40758 0.12781 0.14754 0.0
C497 C 0.45538 0.16616 0.14082 0.0
C498 C 0.48686 0.17779 0.13017 0.0
C499 C 0.49234 0.17551 0.10312 0.0
C500 C 0.52221 0.18588 0.09336 0.0
C501 C 0.54676 0.19879 0.11043 0.0
C502 C 0.54146 0.2015 0.13727 0.0
C503 C 0.51163 0.19115 0.14713 0.0
H504 H 0.56987 0.20675 0.10285 0.0
H505 H 0.27864 0.10714 0.19474 0.0
H506 H 0.11237 0.76775 0.6267 0.0
H507 H 0.09084 0.80337 0.60864 0.0
H508 H 0.08538 0.83491 0.68718 0.0
H509 H 0.10672 0.79942 0.70533 0.0
H510 H 0.03491 0.83446 0.65537 0.0
H511 H 0.14576 0.86705 0.65251 0.0
H512 H 0.19648 0.86336 0.64092 0.0
H513 H 0.17194 0.85866 0.55869 0.0
H514 H 0.12088 0.86191 0.56985 0.0
H515 H 0.08254 0.9879 0.5955 0.0
H516 H 0.09492 0.94841 0.61657 0.0
H517 H 0.0105 0.88979 0.58614 0.0
H518 H 0.99753 0.92907 0.56583 0.0
H519 H 0.10531 0.90387 0.59558 0.0
H520 H 0.98463 0.83342 0.62717 0.0
H521 H 0.93485 0.83933 0.63882 0.0
H522 H 0.98109 0.92387 0.66691 0.0
H523 H 0.03115 0.91829 0.65593 0.0
C524 C 0.10606 0.78199 0.64011 0.0
C525 C 0.11156 0.78107 0.66732 0.0
C526 C 0.09382 0.8023 0.6298 0.0
C527 C 0.08685 0.82194 0.64658 0.0
C528 C 0.09062 0.81995 0.67392 0.0
C529 C 0.103 0.79976 0.68422 0.0
C530 C 0.07844 0.84617 0.63554 0.0
C531 C 0.05019 0.84961 0.64223 0.0
C532 C 0.09866 0.86617 0.61879 0.0
C533 C 0.12942 0.86443 0.61203 0.0
C534 C 0.15111 0.86501 0.63197 0.0
C535 C 0.17992 0.86303 0.62548 0.0
C536 C 0.1874 0.8607 0.59909 0.0
C537 C 0.1661 0.86042 0.57913 0.0
C538 C 0.13723 0.86235 0.58552 0.0
C539 C 0.0665 0.96663 0.59352 0.0
C540 C 0.03903 0.96164 0.57907 0.0
C541 C 0.07364 0.94408 0.60548 0.0
C542 C 0.05351 0.91617 0.60313 0.0
C543 C 0.02612 0.91117 0.58864 0.0
C544 C 0.01882 0.93369 0.57694 0.0
C545 C 0.06161 0.8922 0.61519 0.0
C546 C 0.08988 0.88875 0.60867 0.0
C547 C 0.04152 0.87249 0.63235 0.0
C548 C 0.01165 0.87551 0.64046 0.0
C549 C 0.9842 0.85317 0.63605 0.0
C550 C 0.95593 0.85649 0.64248 0.0
C551 C 0.9548 0.88203 0.65342 0.0
C552 C 0.98198 0.90416 0.65831 0.0
C553 C 0.01031 0.90091 0.65201 0.0
H554 H 0.93288 0.88467 0.65815 0.0
H555 H 0.20972 0.85917 0.5941 0.0
H556 H 0.72851 0.40242 0.84667 0.0
H557 H 0.77662 0.42975 0.86882 0.0
H558 H 0.73152 0.41322 0.94414 0.0
H559 H 0.68353 0.38642 0.92218 0.0
H560 H 0.76875 0.46772 0.94129 0.0
H561 H 0.7764 0.37444 0.92274 0.0
H562 H 0.77626 0.33423 0.89399 0.0
H563 H 0.85138 0.38875 0.84996 0.0
H564 H 0.85168 0.42939 0.87826 0.0
H565 H 0.88978 0.48171 0.03403 0.0
H566 H 0.84419 0.46677 1.00536 0.0
H567 H 0.90177 0.48955 0.93684 0.0
H568 H 0.94747 0.50475 0.96553 0.0
H569 H 0.86062 0.43615 0.93221 0.0
H570 H 0.85439 0.5288 0.9492 0.0
H571 H 0.8537 0.57081 0.97484 0.0
H572 H 0.77786 0.51941 1.02007 0.0
H573 H 0.77763 0.47707 0.99423 0.0
C574 C 0.72879 0.40495 0.8679 0.0
C575 C 0.70223 0.39199 0.88266 0.0
C576 C 0.75636 0.4204 0.88058 0.0
C577 C 0.75788 0.42328 0.90824 0.0
C578 C 0.73106 0.41126 0.92283 0.0
C579 C 0.70365 0.39575 0.91024 0.0
C580 C 0.78739 0.43798 0.92228 0.0
C581 C 0.78873 0.46064 0.93943 0.0
C582 C 0.81391 0.42943 0.91935 0.0
C583 C 0.81382 0.40501 0.90242 0.0
C584 C 0.79272 0.37789 0.9068 0.0
C585 C 0.79264 0.35502 0.8906 0.0
C586 C 0.81374 0.35895 0.8701 0.0
C587 C 0.83502 0.38575 0.86581 0.0
C588 C 0.83516 0.40871 0.88193 0.0
C589 C 0.89268 0.48386 1.01287 0.0
C590 C 0.92219 0.4943 1.00204 0.0
C591 C 0.86659 0.47544 0.99647 0.0
C592 C 0.86944 0.4771 0.96887 0.0
C593 C 0.89893 0.48806 0.95804 0.0
C594 C 0.92502 0.49682 0.97446 0.0
C595 C 0.8418 0.4656 0.95151 0.0
C596 C 0.84076 0.44345 0.93383 0.0
C597 C 0.81563 0.47471 0.95379 0.0
C598 C 0.81621 0.49976 0.97 0.0
C599 C 0.83775 0.52641 0.96478 0.0
C600 C 0.83746 0.55031 0.97929 0.0
C601 C 0.81599 0.54779 0.99927 0.0
C602 C 0.79456 0.52134 1.00464 0.0
C603 C 0.79449 0.49741 0.98997 0.0
H604 H 0.81587 0.56635 1.01049 0.0
H605 H 0.81365 0.34122 0.85759 0.0
H606 H 0.81963 0.64095 0.38044 0.0
H607 H 0.77555 0.61514 0.40728 0.0
H608 H 0.75036 0.69149 0.41551 0.0
H609 H 0.7938 0.71725 0.38827 0.0
H610 H 0.74973 0.664 0.46303 0.0
H611 H 0.71108 0.64047 0.3741 0.0
H612 H 0.71166 0.62198 0.32897 0.0
H613 H 0.70768 0.54042 0.36016 0.0
H614 H 0.7075 0.55855 0.40551 0.0
H615 H 0.59705 0.61163 0.50915 0.0
H616 H 0.645 0.63417 0.4861 0.0
H617 H 0.65633 0.55206 0.47288 0.0
H618 H 0.60787 0.52929 0.49515 0.0
H619 H 0.66643 0.58041 0.42928 0.0
H620 H 0.70215 0.60184 0.51782 0.0
H621 H 0.70225 0.61942 0.56337 0.0
H622 H 0.71325 0.70332 0.53426 0.0
H623 H 0.71278 0.68616 0.4885 0.0
C624 C 0.80448 0.65217 0.38766 0.0
C625 C 0.81036 0.68123 0.38223 0.0
C626 C 0.77939 0.63741 0.40311 0.0
C627 C 0.75969 0.65141 0.41339 0.0
C628 C 0.76541 0.68033 0.40795 0.0
C629 C 0.79034 0.69504 0.39242 0.0
C630 C 0.73305 0.63606 0.42987 0.0
C631 C 0.73134 0.64587 0.45562 0.0
C632 C 0.7096 0.61189 0.42044 0.0
C633 C 0.70963 0.60096 0.39319 0.0
C634 C 0.71059 0.61867 0.37134 0.0
C635 C 0.7108 0.60824 0.34572 0.0
C636 C 0.7098 0.58007 0.3417 0.0
C637 C 0.70851 0.56225 0.3633 0.0
C638 C 0.70834 0.57258 0.38896 0.0
C639 C 0.60994 0.59837 0.50169 0.0
C640 C 0.59858 0.56864 0.50404 0.0
C641 C 0.63747 0.61132 0.48855 0.0
C642 C 0.65454 0.59487 0.47793 0.0
C643 C 0.6436 0.56522 0.48085 0.0
C644 C 0.6159 0.55224 0.49371 0.0
C645 C 0.68282 0.60846 0.46252 0.0
C646 C 0.68488 0.59835 0.43691 0.0
C647 C 0.70675 0.6322 0.47219 0.0
C648 C 0.70717 0.64265 0.4997 0.0
C649 C 0.70437 0.624 0.52112 0.0
C650 C 0.70453 0.63389 0.54698 0.0
C651 C 0.70769 0.66245 0.5517 0.0
C652 C 0.71078 0.68119 0.53057 0.0
C653 C 0.7106 0.6714 0.50466 0.0
H654 H 0.70781 0.67008 0.57173 0.0
H655 H 0.70996 0.57203 0.32186 0.0
H656 H 0.32254 0.34067 0.11729 0.0
H657 H 0.28717 0.36185 0.0949 0.0
H658 H 0.21974 0.3283 0.15519 0.0
H659 H 0.2546 0.30743 0.17749 0.0
H660 H 0.19512 0.31866 0.10474 0.0
H661 H 0.26212 0.39603 0.15716 0.0
H662 H 0.31219 0.4296 0.17072 0.0
H663 H 0.32707 0.46201 0.09175 0.0
H664 H 0.27721 0.42832 0.07764 0.0
H665 H 0.09388 0.39704 0.11826 0.0
H666 H 0.13564 0.3771 0.12409 0.0
H667 H 0.17631 0.4158 0.05151 0.0
H668 H 0.13362 0.4349 0.04468 0.0
H669 H 0.21818 0.42311 0.09734 0.0
H670 H 0.14662 0.35071 0.047 0.0
H671 H 0.09576 0.31791 0.03446 0.0
H672 H 0.08914 0.2763 0.10944 0.0
H673 H 0.13978 0.30915 0.12263 0.0
C674 C 0.30014 0.33789 0.12567 0.0
C675 C 0.29143 0.32261 0.14919 0.0
C676 C 0.28004 0.34998 0.11293 0.0
C677 C 0.25088 0.34665 0.12345 0.0
C678 C 0.24209 0.33105 0.14671 0.0
C679 C 0.26218 0.31927 0.15953 0.0
C680 C 0.22925 0.35951 0.11075 0.0
C681 C 0.20017 0.34149 0.10307 0.0
C682 C 0.23621 0.38925 0.10782 0.0
C683 C 0.26618 0.4094 0.11627 0.0
C684 C 0.27622 0.41011 0.14263 0.0
C685 C 0.30452 0.4292 0.15043 0.0
C686 C 0.32286 0.44785 0.13209 0.0
C687 C 0.31288 0.4475 0.10592 0.0
C688 C 0.28461 0.42842 0.09801 0.0
C689 C 0.11126 0.40092 0.10317 0.0
C690 C 0.10998 0.41728 0.08077 0.0
C691 C 0.1353 0.3897 0.1067 0.0
C692 C 0.15885 0.39481 0.08812 0.0
C693 C 0.15827 0.41164 0.06604 0.0
C694 C 0.13389 0.42261 0.06227 0.0
C695 C 0.18382 0.38225 0.0922 0.0
C696 C 0.21343 0.40027 0.0983 0.0
C697 C 0.1774 0.35248 0.09369 0.0
C698 C 0.14695 0.33254 0.08587 0.0
C699 C 0.13422 0.33472 0.06091 0.0
C700 C 0.10544 0.31609 0.05367 0.0
C701 C 0.08921 0.29506 0.07116 0.0
C702 C 0.10175 0.2926 0.09592 0.0
C703 C 0.13051 0.3112 0.10327 0.0
H704 H 0.06693 0.28065 0.06551 0.0
H705 H 0.34475 0.46263 0.13817 0.0
H706 H 0.62208 0.31849 0.9238 0.0
H707 H 0.60103 0.27262 0.9455 0.0
H708 H 0.57978 0.23123 0.86968 0.0
H709 H 0.60116 0.27726 0.8477 0.0
H710 H 0.53352 0.20924 0.90486 0.0
H711 H 0.64287 0.22949 0.90434 0.0
H712 H 0.69671 0.25848 0.91244 0.0
H713 H 0.67939 0.2592 0.99552 0.0
H714 H 0.62529 0.23057 0.98787 0.0
H715 H 0.50876 0.06899 0.95158 0.0
H716 H 0.52919 0.11425 0.92845 0.0
H717 H 0.55686 0.15736 1.00292 0.0
H718 H 0.53696 0.11191 1.0261 0.0
H719 H 0.60014 0.17826 0.96764 0.0
H720 H 0.49108 0.15921 0.96867 0.0
H721 H 0.43683 0.13108 0.96114 0.0
H722 H 0.45308 0.12878 0.87798 0.0
H723 H 0.50756 0.15659 0.88506 0.0
C724 C 0.61301 0.29966 0.91165 0.0
C725 C 0.61376 0.30165 0.88391 0.0
C726 C 0.60093 0.27338 0.92414 0.0
C727 C 0.58932 0.24827 0.9093 0.0
C728 C 0.58873 0.25024 0.88162 0.0
C729 C 0.60087 0.27663 0.86905 0.0
C730 C 0.57846 0.22004 0.92274 0.0
C731 C 0.54824 0.20229 0.91828 0.0
C732 C 0.59734 0.21113 0.9408 0.0
C733 C 0.62995 0.2281 0.94549 0.0
C734 C 0.65048 0.236 0.92432 0.0
C735 C 0.68106 0.25234 0.92883 0.0
C736 C 0.69145 0.26073 0.95447 0.0
C737 C 0.6713 0.25271 0.97566 0.0
C738 C 0.64068 0.23641 0.97125 0.0
C739 C 0.51934 0.0881 0.96302 0.0
C740 C 0.5211 0.08687 0.99068 0.0
C741 C 0.53087 0.11405 0.94977 0.0
C742 C 0.54412 0.13949 0.96388 0.0
C743 C 0.54666 0.13815 0.99151 0.0
C744 C 0.53525 0.11214 1.00477 0.0
C745 C 0.55511 0.16743 0.94985 0.0
C746 C 0.58539 0.18514 0.95419 0.0
C747 C 0.53623 0.17636 0.93177 0.0
C748 C 0.50347 0.15974 0.92744 0.0
C749 C 0.48314 0.15253 0.9488 0.0
C750 C 0.45234 0.13667 0.94461 0.0
C751 C 0.44154 0.12808 0.91911 0.0
C752 C 0.4615 0.13541 0.89773 0.0
C753 C 0.49233 0.15124 0.90182 0.0
H754 H 0.41768 0.11581 0.91591 0.0
H755 H 0.71512 0.27339 0.95792 0.0
H756 H 0.85774 0.78396 0.37223 0.0
H757 H 0.88539 0.82996 0.3922 0.0
H758 H 0.97007 0.80973 0.38814 0.0
H759 H 0.94234 0.76346 0.36814 0.0
H760 H 0.95934 0.82859 0.43788 0.0
H761 H 0.95955 0.8588 0.34798 0.0
H762 H 0.93655 0.86316 0.30469 0.0
H763 H 0.87952 0.90645 0.34095 0.0
H764 H 0.90187 0.90199 0.38454 0.0
H765 H 0.05525 0.96327 0.4801 0.0
H766 H 0.03163 0.92058 0.45363 0.0
H767 H 0.94676 0.94073 0.45054 0.0
H768 H 0.97063 0.98395 0.4766 0.0
H769 H 0.95904 0.92212 0.40333 0.0
H770 H 0.9549 0.89003 0.49263 0.0
H771 H 0.97553 0.88533 0.53686 0.0
H772 H 0.03705 0.84532 0.50307 0.0
H773 H 0.01688 0.84991 0.45857 0.0
C774 C 0.88232 0.78948 0.37532 0.0
C775 C 0.89791 0.77016 0.36866 0.0
C776 C 0.89811 0.81579 0.38664 0.0
C777 C 0.92981 0.82332 0.3916 0.0
C778 C 0.9456 0.80434 0.38445 0.0
C779 C 0.92983 0.77805 0.37285 0.0
C780 C 0.94597 0.85038 0.40551 0.0
C781 C 0.95979 0.84909 0.4301 0.0
C782 C 0.94561 0.87703 0.39578 0.0
C783 C 0.93221 0.87984 0.36957 0.0
C784 C 0.94193 0.86905 0.34676 0.0
C785 C 0.92904 0.87157 0.32216 0.0
C786 C 0.90653 0.88502 0.32008 0.0
C787 C 0.89693 0.89602 0.34259 0.0
C788 C 0.90973 0.89353 0.36725 0.0
C789 C 0.0316 0.95868 0.47364 0.0
C790 C 0.01467 0.97676 0.48054 0.0
C791 C 0.01808 0.93421 0.45863 0.0
C792 C 0.98726 0.92718 0.45043 0.0
C793 C 0.97053 0.94566 0.45672 0.0
C794 C 0.98412 0.97025 0.47168 0.0
C795 C 0.97246 0.90034 0.43567 0.0
C796 C 0.95879 0.90164 0.41102 0.0
C797 C 0.97261 0.87363 0.44548 0.0
C798 C 0.98459 0.87056 0.47223 0.0
C799 C 0.97297 0.88039 0.49461 0.0
C800 C 0.98457 0.87774 0.51973 0.0
C801 C 0.00771 0.86518 0.52277 0.0
C802 C 0.01917 0.8551 0.50068 0.0
C803 C 0.00762 0.85766 0.47551 0.0
H804 H 0.01669 0.86316 0.54223 0.0
H805 H 0.89659 0.88695 0.30101 0.0
H806 H 0.19203 0.69107 0.67895 0.0
H807 H 0.2257 0.67019 0.65424 0.0
H808 H 0.30362 0.74325 0.67337 0.0
H809 H 0.27027 0.76401 0.69792 0.0
H810 H 0.30315 0.72577 0.6211 0.0
H811 H 0.29059 0.68515 0.7091 0.0
H812 H 0.26017 0.65879 0.74614 0.0
H813 H 0.22356 0.58563 0.69624 0.0
H814 H 0.25347 0.61173 0.65879 0.0
H815 H 0.43444 0.68388 0.60555 0.0
H816 H 0.39359 0.70017 0.62326 0.0
H817 H 0.32791 0.61745 0.60867 0.0
H818 H 0.36896 0.60051 0.59226 0.0
H819 H 0.31706 0.63652 0.65448 0.0
H820 H 0.33287 0.67453 0.56757 0.0
H821 H 0.36239 0.70028 0.52986 0.0
H822 H 0.39104 0.77722 0.57568 0.0
H823 H 0.36204 0.75183 0.61381 0.0
C824 C 0.21628 0.70271 0.67753 0.0
C825 C 0.22869 0.72896 0.69049 0.0
C826 C 0.23546 0.69078 0.66356 0.0
C827 C 0.26716 0.70511 0.66219 0.0
C828 C 0.27924 0.73185 0.67421 0.0
C829 C 0.26023 0.74359 0.68834 0.0
C830 C 0.28831 0.69198 0.6494 0.0
C831 C 0.30633 0.70632 0.62842 0.0
C832 C 0.29178 0.66621 0.65854 0.0
C833 C 0.27396 0.65049 0.68108 0.0
C834 C 0.27585 0.66353 0.70598 0.0
C835 C 0.25874 0.64862 0.72705 0.0
C836 C 0.23987 0.62058 0.72353 0.0
C837 C 0.23814 0.60736 0.69893 0.0
C838 C 0.25517 0.6222 0.67778 0.0
C839 C 0.41142 0.66899 0.60645 0.0
C840 C 0.40502 0.64091 0.59731 0.0
C841 C 0.38797 0.67846 0.61625 0.0
C842 C 0.35753 0.66022 0.61676 0.0
C843 C 0.35116 0.632 0.60824 0.0
C844 C 0.37464 0.62243 0.59864 0.0
C845 C 0.33246 0.67059 0.6264 0.0
C846 C 0.31368 0.65575 0.64681 0.0
C847 C 0.3281 0.69579 0.61656 0.0
C848 C 0.34545 0.7112 0.59362 0.0
C849 C 0.34563 0.69689 0.56967 0.0
C850 C 0.36225 0.71143 0.5482 0.0
C851 C 0.37863 0.74035 0.55039 0.0
C852 C 0.37836 0.75481 0.57402 0.0
C853 C 0.36181 0.74036 0.59556 0.0
H854 H 0.39149 0.75157 0.53375 0.0
H855 H 0.22664 0.60907 0.73987 0.0
H856 H 0.73947 0.8654 0.82294 0.0
H857 H 0.7716 0.88279 0.78445 0.0
H858 H 0.73585 0.80022 0.74768 0.0
H859 H 0.70382 0.78262 0.7863 0.0
H860 H 0.79659 0.82104 0.74138 0.0
H861 H 0.71107 0.85565 0.7285 0.0
H862 H 0.67408 0.88033 0.74071 0.0
H863 H 0.74788 0.95856 0.75031 0.0
H864 H 0.78537 0.93425 0.73853 0.0
H865 H 0.8463 0.86913 0.61052 0.0
H866 H 0.81581 0.84871 0.6494 0.0
H867 H 0.85601 0.92731 0.69187 0.0
H868 H 0.8863 0.94783 0.65318 0.0
H869 H 0.79234 0.90747 0.69434 0.0
H870 H 0.87779 0.87235 0.70866 0.0
H871 H 0.91474 0.8476 0.69653 0.0
H872 H 0.84053 0.77051 0.6829 0.0
H873 H 0.8031 0.79481 0.69502 0.0
C874 C 0.73824 0.85103 0.80654 0.0
C875 C 0.71896 0.82271 0.80754 0.0
C876 C 0.75665 0.86097 0.78458 0.0
C877 C 0.75584 0.8429 0.76302 0.0
C878 C 0.73685 0.81453 0.76408 0.0
C879 C 0.71857 0.80451 0.78613 0.0
C880 C 0.77478 0.85369 0.73938 0.0
C881 C 0.79533 0.8397 0.73087 0.0
C882 C 0.77356 0.87834 0.72593 0.0
C883 C 0.75105 0.89306 0.73286 0.0
C884 C 0.71943 0.87807 0.7334 0.0
C885 C 0.69837 0.892 0.74022 0.0
C886 C 0.70863 0.92098 0.74634 0.0
C887 C 0.73997 0.93611 0.74559 0.0
C888 C 0.76113 0.92227 0.73882 0.0
C889 C 0.84869 0.88195 0.62821 0.0
C890 C 0.86869 0.91004 0.62885 0.0
C891 C 0.83144 0.87025 0.65041 0.0
C892 C 0.83377 0.88652 0.67349 0.0
C893 C 0.85394 0.91442 0.67425 0.0
C894 C 0.87138 0.92602 0.6522 0.0
C895 C 0.81421 0.87495 0.69653 0.0
C896 C 0.79351 0.88878 0.70486 0.0
C897 C 0.81522 0.85015 0.70971 0.0
C898 C 0.83764 0.83546 0.70248 0.0
C899 C 0.86934 0.85018 0.70289 0.0
C900 C 0.89037 0.83623 0.69606 0.0
C901 C 0.87999 0.80757 0.68876 0.0
C902 C 0.84854 0.79274 0.68848 0.0
C903 C 0.82741 0.80655 0.69542 0.0
H904 H 0.89631 0.79684 0.68342 0.0
H905 H 0.69229 0.93172 0.75162 0.0
H906 H 0.79739 0.23562 0.31212 0.0
H907 H 0.77196 0.21708 0.27061 0.0
H908 H 0.76242 0.29887 0.25258 0.0
H909 H 0.78881 0.31807 0.29415 0.0
H910 H 0.70807 0.25258 0.24421 0.0
H911 H 0.8132 0.28026 0.21914 0.0
H912 H 0.86793 0.28408 0.2235 0.0
H913 H 0.84473 0.19325 0.21926 0.0
H914 H 0.7898 0.18883 0.21527 0.0
H915 H 0.64866 0.18914 0.11896 0.0
H916 H 0.67894 0.22293 0.15197 0.0
H917 H 0.71176 0.15728 0.18448 0.0
H918 H 0.682 0.12375 0.15153 0.0
H919 H 0.75755 0.20536 0.18015 0.0
H920 H 0.653 0.17746 0.21301 0.0
H921 H 0.59784 0.17235 0.20948 0.0
H922 H 0.61971 0.26255 0.19967 0.0
H923 H 0.67505 0.26814 0.20281 0.0
C924 C 0.79053 0.24995 0.29917 0.0
C925 C 0.79562 0.2785 0.30633 0.0
C926 C 0.77578 0.23922 0.27549 0.0
C927 C 0.76567 0.2567 0.25841 0.0
C928 C 0.77018 0.2851 0.26551 0.0
C929 C 0.78519 0.29598 0.28926 0.0
C930 C 0.74998 0.24467 0.23341 0.0
C931 C 0.71904 0.24282 0.22983 0.0
C932 C 0.76426 0.23168 0.2149 0.0
C933 C 0.79733 0.23422 0.21703 0.0
C934 C 0.81974 0.26108 0.2193 0.0
C935 C 0.85081 0.26336 0.22168 0.0
C936 C 0.8598 0.23892 0.22168 0.0
C937 C 0.83774 0.21216 0.21924 0.0
C938 C 0.80663 0.20976 0.21688 0.0
C939 C 0.66231 0.18199 0.13323 0.0
C940 C 0.66309 0.15386 0.13264 0.0
C941 C 0.67958 0.20128 0.15204 0.0
C942 C 0.69751 0.19259 0.17077 0.0
C943 C 0.6983 0.16453 0.1701 0.0
C944 C 0.6813 0.14538 0.15125 0.0
C945 C 0.7153 0.21228 0.19146 0.0
C946 C 0.74671 0.21563 0.19419 0.0
C947 C 0.70138 0.22648 0.20923 0.0
C948 C 0.66813 0.22318 0.20785 0.0
C949 C 0.64603 0.19618 0.20995 0.0
C950 C 0.61475 0.1932 0.20804 0.0
C951 C 0.60528 0.2171 0.20427 0.0
C952 C 0.62708 0.24405 0.20254 0.0
C953 C 0.6584 0.24714 0.2044 0.0
H954 H 0.58105 0.21475 0.20275 0.0
H955 H 0.88386 0.24073 0.22354 0.0
H956 H 0.44642 0.69843 0.30863 0.0
H957 H 0.45826 0.67208 0.34585 0.0
H958 H 0.37525 0.60293 0.33029 0.0
H959 H 0.36315 0.62942 0.29313 0.0
H960 H 0.38308 0.61308 0.38292 0.0
H961 H 0.44562 0.59869 0.31235 0.0
H962 H 0.48334 0.61294 0.27651 0.0
H963 H 0.552 0.66029 0.33172 0.0
H964 H 0.51455 0.64664 0.36786 0.0
H965 H 0.42647 0.51062 0.46159 0.0
H966 H 0.41072 0.53633 0.42557 0.0
H967 H 0.49135 0.6085 0.43947 0.0
H968 H 0.50709 0.58295 0.47534 0.0
H969 H 0.48367 0.59554 0.38729 0.0
H970 H 0.42179 0.61047 0.45775 0.0
H971 H 0.38468 0.59633 0.49403 0.0
H972 H 0.31532 0.54837 0.43964 0.0
H973 H 0.35222 0.56184 0.40307 0.0
C974 C 0.43066 0.67761 0.31314 0.0
C975 C 0.40395 0.66603 0.29778 0.0
C976 C 0.43751 0.66247 0.33441 0.0
C977 C 0.41789 0.63524 0.34083 0.0
C978 C 0.39084 0.62383 0.3258 0.0
C979 C 0.38399 0.63898 0.30445 0.0
C980 C 0.42587 0.61871 0.363 0.0
C981 C 0.40489 0.60889 0.38364 0.0
C982 C 0.4546 0.61365 0.36444 0.0
C983 C 0.47719 0.62186 0.34276 0.0
C984 C 0.46869 0.61233 0.31682 0.0
C985 C 0.49004 0.62026 0.29645 0.0
C986 C 0.52002 0.63757 0.30182 0.0
C987 C 0.52875 0.64692 0.32758 0.0
C988 C 0.50748 0.63907 0.34802 0.0
C989 C 0.44067 0.53205 0.45707 0.0
C990 C 0.46795 0.54476 0.47141 0.0
C991 C 0.43163 0.54678 0.4365 0.0
C992 C 0.44976 0.57449 0.42974 0.0
C993 C 0.47694 0.58719 0.44419 0.0
C994 C 0.48582 0.57259 0.46485 0.0
C995 C 0.44097 0.59003 0.40725 0.0
C996 C 0.46181 0.59966 0.38654 0.0
C997 C 0.41217 0.59494 0.40581 0.0
C998 C 0.38987 0.58691 0.42771 0.0
C999 C 0.39871 0.5967 0.45355 0.0
C1000 C 0.37769 0.58884 0.47417 0.0
C1001 C 0.34768 0.5714 0.46915 0.0
C1002 C 0.3386 0.56184 0.4435 0.0
C1003 C 0.35955 0.56959 0.42282 0.0
H1004 H 0.33143 0.56534 0.48513 0.0
H1005 H 0.53652 0.64369 0.28603 0.0
H1006 H 0.1863 0.39257 0.838 0.0
H1007 H 0.16441 0.41442 0.87296 0.0
H1008 H 0.08407 0.40513 0.82456 0.0
H1009 H 0.10546 0.38252 0.78984 0.0
H1010 H 0.11657 0.4629 0.84876 0.0
H1011 H 0.07275 0.36293 0.87006 0.0
H1012 H 0.07551 0.3152 0.88034 0.0
H1013 H 0.13269 0.34879 0.94784 0.0
H1014 H 0.13068 0.39685 0.93769 0.0
H1015 H 0.02074 0.50266 0.93798 0.0
H1016 H 0.04288 0.47947 0.9048 0.0
H1017 H 0.10041 0.45944 0.96457 0.0
H1018 H 0.07685 0.48127 0.99818 0.0
H1019 H 0.08162 0.41671 0.93469 0.0
H1020 H 0.12755 0.51495 0.91626 0.0
H1021 H 0.12992 0.56445 0.90722 0.0
H1022 H 0.07659 0.53765 0.83637 0.0
H1023 H 0.07353 0.4879 0.84516 0.0
C1024 C 0.16387 0.39502 0.83494 0.0
C1025 C 0.1475 0.38574 0.81133 0.0
C1026 C 0.15142 0.40745 0.85488 0.0
C1027 C 0.12263 0.4113 0.85132 0.0
C1028 C 0.10631 0.40227 0.82766 0.0
C1029 C 0.11848 0.38928 0.80792 0.0
C1030 C 0.10988 0.42531 0.87211 0.0
C1031 C 0.10851 0.45274 0.86744 0.0
C1032 C 0.10066 0.41243 0.89683 0.0
C1033 C 0.10187 0.38354 0.90292 0.0
C1034 C 0.08619 0.3602 0.88692 0.0
C1035 C 0.08756 0.33307 0.89276 0.0
C1036 C 0.10435 0.32898 0.91468 0.0
C1037 C 0.11975 0.352 0.93084 0.0
C1038 C 0.11849 0.37919 0.92506 0.0
C1039 C 0.03825 0.49347 0.94403 0.0
C1040 C 0.04724 0.494 0.97065 0.0
C1041 C 0.05107 0.48032 0.92498 0.0
C1042 C 0.07395 0.4682 0.93192 0.0
C1043 C 0.0829 0.46867 0.95859 0.0
C1044 C 0.06952 0.48125 0.9778 0.0
C1045 C 0.0879 0.45451 0.91143 0.0
C1046 C 0.08966 0.4271 0.9161 0.0
C1047 C 0.09826 0.46775 0.88692 0.0
C1048 C 0.10008 0.49765 0.88151 0.0
C1049 C 0.11614 0.51958 0.89885 0.0
C1050 C 0.11763 0.54769 0.89375 0.0
C1051 C 0.10335 0.55418 0.87127 0.0
C1052 C 0.08761 0.53258 0.85379 0.0
C1053 C 0.08602 0.50443 0.85881 0.0
H1054 H 0.10453 0.57596 0.86736 0.0
H1055 H 0.10536 0.30795 0.91918 0.0
H1056 H 0.68857 0.87595 0.87603 0.0
H1057 H 0.66245 0.90565 0.89806 0.0
H1058 H 0.58191 0.83263 0.9076 0.0
H1059 H 0.60784 0.80276 0.88524 0.0
H1060 H 0.56832 0.88118 0.89053 0.0
H1061 H 0.62718 0.85469 0.95873 0.0
H1062 H 0.67389 0.84914 0.97921 0.0
H1063 H 0.71803 0.93935 0.97559 0.0
H1064 H 0.6717 0.94539 0.95471 0.0
H1065 H 0.49539 0.94301 0.98646 0.0
H1066 H 0.51785 0.9128 0.96093 0.0
H1067 H 0.60444 0.98035 0.95943 0.0
H1068 H 0.58241 1.01031 0.98567 0.0
H1069 H 0.61387 0.93314 0.97231 0.0
H1070 H 0.5556 0.96012 0.90384 0.0
H1071 H 0.50914 0.96604 0.88316 0.0
H1072 H 0.46429 0.87594 0.88675 0.0
H1073 H 0.51036 0.86952 0.90777 0.0
C1074 C 0.66519 0.86626 0.88259 0.0
C1075 C 0.65024 0.83702 0.87895 0.0
C1076 C 0.65038 0.88321 0.89531 0.0
C1077 C 0.62034 0.87127 0.90462 0.0
C1078 C 0.60511 0.84221 0.90058 0.0
C1079 C 0.62001 0.82517 0.88801 0.0
C1080 C 0.60517 0.88912 0.91902 0.0
C1081 C 0.57801 0.89229 0.9086 0.0
C1082 C 0.61822 0.90402 0.94227 0.0
C1083 C 0.64607 0.90046 0.95491 0.0
C1084 C 0.64694 0.87332 0.96209 0.0
C1085 C 0.67333 0.87009 0.97381 0.0
C1086 C 0.69894 0.89387 0.97864 0.0
C1087 C 0.69818 0.92094 0.97181 0.0
C1088 C 0.67186 0.92428 0.96005 0.0
C1089 C 0.51912 0.95155 0.98042 0.0
C1090 C 0.53715 0.97904 0.98813 0.0
C1091 C 0.53191 0.93428 0.96574 0.0
C1092 C 0.56281 0.94436 0.95803 0.0
C1093 C 0.5806 0.97206 0.96519 0.0
C1094 C 0.56794 0.9892 0.98015 0.0
C1095 C 0.57711 0.92564 0.94369 0.0
C1096 C 0.60412 0.92216 0.9542 0.0
C1097 C 0.56395 0.9106 0.92047 0.0
C1098 C 0.53633 0.91438 0.9076 0.0
C1099 C 0.53575 0.94159 0.90038 0.0
C1100 C 0.5095 0.94503 0.88857 0.0
C1101 C 0.48375 0.92139 0.88371 0.0
C1102 C 0.48424 0.89424 0.89056 0.0
C1103 C 0.51043 0.89069 0.90239 0.0
H1104 H 0.46344 0.9241 0.87459 0.0
H1105 H 0.71935 0.89133 0.98772 0.0
H1106 H 0.92997 0.28923 0.43805 0.0
H1107 H 0.95305 0.25449 0.45609 0.0
H1108 H 0.89421 0.18955 0.40556 0.0
H1109 H 0.87156 0.22396 0.38727 0.0
H1110 H 0.89538 0.17433 0.46025 0.0
H1111 H 0.96424 0.21569 0.38845 0.0
H1112 H 1.00001 0.25542 0.36426 0.0
H1113 H 0.05926 0.27677 0.43236 0.0
H1114 H 0.02358 0.23739 0.45709 0.0
H1115 H 0.95321 0.06024 0.47174 0.0
H1116 H 0.93658 0.09862 0.45347 0.0
H1117 H 0.01243 0.16046 0.49282 0.0
H1118 H 0.02982 0.12216 0.51032 0.0
H1119 H 1.00411 0.17987 0.44658 0.0
H1120 H 0.93891 0.13976 0.51855 0.0
H1121 H 0.90402 0.10179 0.54522 0.0
H1122 H 0.8387 0.08079 0.48124 0.0
H1123 H 0.87342 0.11838 0.45402 0.0
C1124 C 0.92215 0.26755 0.43077 0.0
C1125 C 0.89918 0.25933 0.41119 0.0
C1126 C 0.93532 0.24781 0.44101 0.0
C1127 C 0.92533 0.21954 0.43204 0.0
C1128 C 0.90221 0.21129 0.41268 0.0
C1129 C 0.88941 0.23103 0.40219 0.0
C1130 C 0.93846 0.19821 0.443 0.0
C1131 C 0.91907 0.17534 0.45709 0.0
C1132 C 0.96961 0.20019 0.4396 0.0
C1133 C 0.99106 0.22382 0.42472 0.0
C1134 C 0.98474 0.22903 0.39835 0.0
C1135 C 1.00503 0.25145 0.38452 0.0
C1136 C 0.03185 0.26867 0.39679 0.0
C1137 C 0.03846 0.26345 0.4229 0.0
C1138 C 0.01822 0.24108 0.43682 0.0
C1139 C 0.96653 0.08202 0.47627 0.0
C1140 C 0.99269 0.08819 0.49262 0.0
C1141 C 0.95691 0.10394 0.46595 0.0
C1142 C 0.97282 0.13242 0.4723 0.0
C1143 C 0.99968 0.13867 0.48775 0.0
C1144 C 0.00959 0.11675 0.49775 0.0
C1145 C 0.96086 0.15553 0.46349 0.0
C1146 C 0.98045 0.17882 0.44991 0.0
C1147 C 0.92997 0.15424 0.46779 0.0
C1148 C 0.90889 0.13173 0.48416 0.0
C1149 C 0.91719 0.12692 0.5101 0.0
C1150 C 0.89744 0.10548 0.52532 0.0
C1151 C 0.86919 0.08885 0.51491 0.0
C1152 C 0.8606 0.09367 0.48927 0.0
C1153 C 0.8803 0.11506 0.47394 0.0
H1154 H 0.85392 0.07226 0.52673 0.0
H1155 H 0.04754 0.28601 0.38605 0.0
H1156 H 0.3192 0.67453 0.14481 0.0
H1157 H 0.27283 0.65018 0.1196 0.0
H1158 H 0.2245 0.62024 0.19177 0.0
H1159 H 0.27089 0.64511 0.21736 0.0
H1160 H 0.2111 0.57841 0.15176 0.0
H1161 H 0.21267 0.67492 0.16219 0.0
H1162 H 0.23555 0.72704 0.16061 0.0
H1163 H 0.24766 0.72288 0.07696 0.0
H1164 H 0.22527 0.67065 0.07809 0.0
H1165 H 0.06109 0.54496 0.09034 0.0
H1166 H 0.10681 0.56116 0.11887 0.0
H1167 H 0.16117 0.60014 0.05188 0.0
H1168 H 0.11562 0.58402 1.02339 0.0
H1169 H 0.16969 0.63696 0.09195 0.0
H1170 H 0.17667 0.54185 0.08208 0.0
H1171 H 0.15844 0.48943 0.08293 0.0
H1172 H 0.13032 0.49104 0.16335 0.0
H1173 H 0.14937 0.54354 0.1632 0.0
C1174 C 0.29872 0.66293 0.15544 0.0
C1175 C 0.29876 0.66223 0.18322 0.0
C1176 C 0.27221 0.64887 0.14093 0.0
C1177 C 0.24501 0.63369 0.15377 0.0
C1178 C 0.2452 0.63186 0.18143 0.0
C1179 C 0.27179 0.64606 0.19603 0.0
C1180 C 0.21626 0.62079 0.13814 0.0
C1181 C 0.20174 0.59127 0.13901 0.0
C1182 C 0.20431 0.63741 0.12107 0.0
C1183 C 0.21752 0.66885 0.12027 0.0
C1184 C 0.22041 0.6851 0.14348 0.0
C1185 C 0.23327 0.71466 0.14267 0.0
C1186 C 0.24312 0.72826 0.11871 0.0
C1187 C 0.24005 0.71231 0.09551 0.0
C1188 C 0.22725 0.68273 0.09622 0.0
C1189 C 0.0829 0.55659 0.08165 0.0
C1190 C 0.08473 0.56336 0.05464 0.0
C1191 C 0.10908 0.56577 0.09796 0.0
C1192 C 0.13757 0.58188 0.08757 0.0
C1193 C 0.1395 0.58784 0.06042 0.0
C1194 C 0.11343 0.57858 0.04413 0.0
C1195 C 0.16478 0.59448 0.10514 0.0
C1196 C 0.17893 0.62406 0.10476 0.0
C1197 C 0.1764 0.57791 0.12253 0.0
C1198 C 0.16408 0.54651 0.12253 0.0
C1199 C 0.16637 0.53099 0.09986 0.0
C1200 C 0.15602 0.50128 0.10026 0.0
C1201 C 0.14286 0.4869 0.12307 0.0
C1202 C 0.14039 0.50221 0.14565 0.0
C1203 C 0.15118 0.53193 0.1455 0.0
H1204 H 0.13478 0.46391 0.12331 0.0
H1205 H 0.25307 0.75115 0.11812 0.0
H1206 H 0.21106 0.41131 0.70341 0.0
H1207 H 0.2555 0.44014 0.67854 0.0
H1208 H 0.28574 0.36675 0.66838 0.0
H1209 H 0.24203 0.33812 0.6939 0.0
H1210 H 0.33355 0.413 0.67832 0.0
H1211 H 0.24548 0.38817 0.61986 0.0
H1212 H 0.19312 0.38576 0.6058 0.0
H1213 H 0.21875 0.47686 0.60732 0.0
H1214 H 0.27119 0.47979 0.62174 0.0
H1215 H 0.42769 0.44636 0.5671 0.0
H1216 H 0.38469 0.42509 0.59627 0.0
H1217 H 0.36731 0.50544 0.60232 0.0
H1218 H 0.41042 0.52705 0.57287 0.0
H1219 H 0.31409 0.46048 0.59694 0.0
H1220 H 0.40431 0.4848 0.65145 0.0
H1221 H 0.45654 0.48627 0.66496 0.0
H1222 H 0.4271 0.39525 0.67028 0.0
H1223 H 0.37473 0.39318 0.65647 0.0
C1224 C 0.22749 0.40146 0.69629 0.0
C1225 C 0.22287 0.37236 0.70043 0.0
C1226 C 0.25272 0.41789 0.68186 0.0
C1227 C 0.27369 0.4055 0.67121 0.0
C1228 C 0.2698 0.37676 0.67627 0.0
C1229 C 0.24466 0.36036 0.69069 0.0
C1230 C 0.29908 0.42199 0.65395 0.0
C1231 C 0.32928 0.42321 0.66043 0.0
C1232 C 0.2936 0.4359 0.63092 0.0
C1233 C 0.26213 0.43418 0.62217 0.0
C1234 C 0.23988 0.40767 0.6174 0.0
C1235 C 0.2102 0.40622 0.60933 0.0
C1236 C 0.20258 0.43114 0.60575 0.0
C1237 C 0.22467 0.45757 0.61015 0.0
C1238 C 0.25437 0.45915 0.61826 0.0
C1239 C 0.41461 0.45954 0.57436 0.0
C1240 C 0.42266 0.4885 0.56772 0.0
C1241 C 0.39011 0.44735 0.5912 0.0
C1242 C 0.37319 0.46382 0.60189 0.0
C1243 C 0.38024 0.49241 0.59443 0.0
C1244 C 0.40485 0.5047 0.57756 0.0
C1245 C 0.34846 0.45106 0.62109 0.0
C1246 C 0.31841 0.45055 0.61499 0.0
C1247 C 0.35408 0.43768 0.64441 0.0
C1248 C 0.38561 0.43884 0.6527 0.0
C1249 C 0.40901 0.46508 0.65527 0.0
C1250 C 0.43865 0.46602 0.66301 0.0
C1251 C 0.44516 0.44086 0.66839 0.0
C1252 C 0.42203 0.41472 0.66607 0.0
C1253 C 0.39235 0.41365 0.65832 0.0
H1254 H 0.46808 0.44162 0.67445 0.0
H1255 H 0.1796 0.42996 0.5995 0.0
H1256 H 0.72137 0.69586 0.84414 0.0
H1257 H 0.75344 0.6723 0.86724 0.0
H1258 H 0.72784 0.69982 0.94194 0.0
H1259 H 0.69659 0.72439 0.9187 0.0
H1260 H 0.78642 0.71042 0.94134 0.0
H1261 H 0.70271 0.6278 0.92139 0.0
H1262 H 0.66266 0.59435 0.89404 0.0
H1263 H 0.7319 0.5797 0.84477 0.0
H1264 H 0.77238 0.61335 0.87159 0.0
H1265 H 0.87918 0.63543 1.00293 0.0
H1266 H 0.83333 0.6481 0.99065 0.0
H1267 H 0.85025 0.63653 0.90845 0.0
H1268 H 0.89533 0.62311 0.92057 0.0
H1269 H 0.78982 0.61375 0.92019 0.0
H1270 H 0.87199 0.70253 0.93677 0.0
H1271 H 0.91175 0.7359 0.96448 0.0
H1272 H 0.8435 0.73776 1.02132 0.0
H1273 H 0.8034 0.70411 0.99406 0.0
C1274 C 0.72227 0.69652 0.86551 0.0
C1275 C 0.70662 0.71196 0.87962 0.0
C1276 C 0.74044 0.68289 0.87874 0.0
C1277 C 0.74276 0.68389 0.90642 0.0
C1278 C 0.72637 0.69869 0.9206 0.0
C1279 C 0.70849 0.71267 0.90731 0.0
C1280 C 0.76425 0.67146 0.92019 0.0
C1281 C 0.78664 0.68901 0.93718 0.0
C1282 C 0.76488 0.64364 0.9146 0.0
C1283 C 0.74059 0.62325 0.89845 0.0
C1284 C 0.7094 0.61759 0.90462 0.0
C1285 C 0.68662 0.59857 0.88922 0.0
C1286 C 0.69472 0.58494 0.86766 0.0
C1287 C 0.72565 0.59026 0.86149 0.0
C1288 C 0.74853 0.60928 0.87681 0.0
C1289 C 0.87297 0.63542 0.98227 0.0
C1290 C 0.89114 0.6287 0.96268 0.0
C1291 C 0.84686 0.64274 0.97529 0.0
C1292 C 0.83858 0.64352 0.94862 0.0
C1293 C 0.85626 0.63613 0.92914 0.0
C1294 C 0.88226 0.62883 0.93608 0.0
C1295 C 0.81225 0.65301 0.94058 0.0
C1296 C 0.78903 0.6349 0.92472 0.0
C1297 C 0.81071 0.68022 0.9473 0.0
C1298 C 0.83479 0.70058 0.96355 0.0
C1299 C 0.86552 0.70991 0.95527 0.0
C1300 C 0.8881 0.72889 0.97087 0.0
C1301 C 0.88017 0.73888 0.99468 0.0
C1302 C 0.84962 0.72996 1.0029 0.0
C1303 C 0.82696 0.71095 0.98738 0.0
H1304 H 0.89769 0.75357 1.00674 0.0
H1305 H 0.67705 0.57023 0.85576 0.0
H1306 H 0.38376 0.73704 0.15151 0.0
H1307 H 0.40752 0.78396 0.13286 0.0
H1308 H 0.42259 0.82031 0.2111 0.0
H1309 H 0.39745 0.77313 0.22999 0.0
H1310 H 0.40109 0.85263 0.17993 0.0
H1311 H 0.48257 0.81273 0.17258 0.0
H1312 H 0.50739 0.77693 0.16089 0.0
H1313 H 0.48622 0.78428 0.07905 0.0
H1314 H 0.46088 0.81985 0.09028 0.0
H1315 H 0.49902 0.98682 0.13238 0.0
H1316 H 0.47828 0.94116 0.15501 0.0
H1317 H 0.45256 0.8989 0.07996 0.0
H1318 H 0.47328 0.94455 0.05725 0.0
H1319 H 0.48193 0.87079 0.11181 0.0
H1320 H 0.39872 0.90964 0.1201 0.0
H1321 H 0.37477 0.94593 0.13226 0.0
H1322 H 0.40086 0.94119 0.21327 0.0
H1323 H 0.42537 0.90513 0.20152 0.0
C1324 C 0.39208 0.75496 0.16486 0.0
C1325 C 0.3884 0.75118 0.19233 0.0
C1326 C 0.40602 0.78187 0.15412 0.0
C1327 C 0.41726 0.80588 0.17047 0.0
C1328 C 0.4142 0.8022 0.19798 0.0
C1329 C 0.40007 0.77514 0.20881 0.0
C1330 C 0.43111 0.83475 0.15861 0.0
C1331 C 0.41918 0.85669 0.1654 0.0
C1332 C 0.45431 0.84015 0.13917 0.0
C1333 C 0.4696 0.8188 0.13231 0.0
C1334 C 0.483 0.80656 0.15211 0.0
C1335 C 0.4972 0.78633 0.14556 0.0
C1336 C 0.49832 0.77829 0.11925 0.0
C1337 C 0.48531 0.79051 0.09943 0.0
C1338 C 0.47106 0.81074 0.10587 0.0
C1339 C 0.48874 0.96781 0.12072 0.0
C1340 C 0.48775 0.96932 0.09303 0.0
C1341 C 0.47682 0.9417 0.13369 0.0
C1342 C 0.46368 0.91647 0.11926 0.0
C1343 C 0.46258 0.918 0.09157 0.0
C1344 C 0.47429 0.94414 0.07861 0.0
C1345 C 0.45169 0.88846 0.13295 0.0
C1346 C 0.46399 0.86672 0.12647 0.0
C1347 C 0.429 0.88332 0.15277 0.0
C1348 C 0.41417 0.90491 0.15988 0.0
C1349 C 0.39958 0.9165 0.14047 0.0
C1350 C 0.38586 0.937 0.1473 0.0
C1351 C 0.38636 0.94592 0.17351 0.0
C1352 C 0.40052 0.9343 0.19297 0.0
C1353 C 0.41431 0.91381 0.18624 0.0
H1354 H 0.37572 0.96179 0.17875 0.0
H1355 H 0.50933 0.76263 0.11423 0.0
H1356 H 0.08948 0.28514 0.70482 0.0
H1357 H 0.06394 0.23945 0.68325 0.0
H1358 H 0.15138 0.2251 0.67469 0.0
H1359 H 0.17697 0.2706 0.69625 0.0
H1360 H 0.11944 0.21384 0.6295 0.0
H1361 H 0.09925 0.18908 0.7206 0.0
H1362 H 0.08087 0.19351 0.76548 0.0
H1363 H 0.98962 0.17958 0.73511 0.0
H1364 H 0.00755 0.17545 0.68997 0.0
H1365 H 0.0633 0.06731 0.59406 0.0
H1366 H 0.08762 0.11095 0.61939 0.0
H1367 H 1.0021 0.12993 0.61896 0.0
H1368 H 0.97791 0.08675 0.59309 0.0
H1369 H 0.03264 0.13827 0.66882 0.0
H1370 H 0.05255 0.16497 0.57823 0.0
H1371 H 0.07016 0.16112 0.53297 0.0
H1372 H 0.16101 0.17107 0.56231 0.0
H1373 H 0.14391 0.17487 0.60785 0.0
C1374 C 0.1032 0.27207 0.69867 0.0
C1375 C 0.13528 0.28158 0.70218 0.0
C1376 C 0.08859 0.24597 0.6863 0.0
C1377 C 0.10573 0.22875 0.67743 0.0
C1378 C 0.13768 0.23806 0.68122 0.0
C1379 C 0.15228 0.26412 0.69351 0.0
C1380 C 0.09056 0.20136 0.6636 0.0
C1381 C 0.10078 0.19718 0.63832 0.0
C1382 C 0.06567 0.17982 0.67475 0.0
C1383 C 0.05481 0.18224 0.70187 0.0
C1384 C 0.07532 0.18719 0.72346 0.0
C1385 C 0.06497 0.18961 0.74895 0.0
C1386 C 0.03411 0.18691 0.75313 0.0
C1387 C 0.01352 0.18171 0.73183 0.0
C1388 C 0.02376 0.1793 0.7063 0.0
C1389 C 0.04975 0.08083 0.59935 0.0
C1390 C 0.01887 0.0739 0.59135 0.0
C1391 C 0.06361 0.10567 0.61384 0.0
C1392 C 0.04668 0.12373 0.62086 0.0
C1393 C 0.01554 0.11627 0.61372 0.0
C1394 C 1.0018 0.09166 0.59893 0.0
C1395 C 0.0617 0.15085 0.63495 0.0
C1396 C 0.05141 0.15496 0.66017 0.0
C1397 C 0.08648 0.17235 0.62376 0.0
C1398 C 0.09689 0.16995 0.59647 0.0
C1399 C 0.07622 0.16609 0.57506 0.0
C1400 C 0.08611 0.16396 0.54936 0.0
C1401 C 0.11664 0.16576 0.54478 0.0
C1402 C 0.13736 0.16968 0.5659 0.0
C1403 C 0.12761 0.17188 0.59166 0.0
H1404 H 0.12425 0.16425 0.52484 0.0
H1405 H 0.02615 0.18878 0.77288 0.0
H1406 H 0.8038 0.36565 0.36588 0.0
H1407 H 0.77316 0.38821 0.39235 0.0
H1408 H 0.75218 0.31804 0.44673 0.0
H1409 H 0.78349 0.29583 0.42079 0.0
H1410 H 0.70009 0.33442 0.41745 0.0
H1411 H 0.79013 0.36874 0.47337 0.0
H1412 H 0.84498 0.39345 0.48232 0.0
H1413 H 0.83551 0.47081 0.4512 0.0
H1414 H 0.78066 0.44641 0.44166 0.0
H1415 H 0.60578 0.37739 0.50445 0.0
H1416 H 0.64719 0.36046 0.48876 0.0
H1417 H 0.69151 0.4423 0.45382 0.0
H1418 H 0.65024 0.45947 0.46979 0.0
H1419 H 0.7336 0.4205 0.47431 0.0
H1420 H 0.64681 0.38891 0.41655 0.0
H1421 H 0.59246 0.36631 0.40418 0.0
H1422 H 0.59616 0.28635 0.43382 0.0
H1423 H 0.65046 0.30859 0.44676 0.0
C1424 C 0.79318 0.35544 0.38383 0.0
C1425 C 0.79601 0.32915 0.39146 0.0
C1426 C 0.77581 0.36831 0.39889 0.0
C1427 C 0.76062 0.35476 0.42146 0.0
C1428 C 0.764 0.32884 0.42946 0.0
C1429 C 0.7819 0.31627 0.41473 0.0
C1430 C 0.73869 0.3662 0.43506 0.0
C1431 C 0.70732 0.35293 0.43029 0.0
C1432 C 0.74841 0.39097 0.45086 0.0
C1433 C 0.78138 0.40565 0.45649 0.0
C1434 C 0.79982 0.39093 0.46813 0.0
C1435 C 0.83089 0.4049 0.47339 0.0
C1436 C 0.84375 0.43366 0.46725 0.0
C1437 C 0.82554 0.44852 0.4559 0.0
C1438 C 0.79444 0.43464 0.45058 0.0
C1439 C 0.6245 0.39184 0.49362 0.0
C1440 C 0.62463 0.41963 0.48806 0.0
C1441 C 0.64814 0.38217 0.48469 0.0
C1442 C 0.67213 0.39996 0.46969 0.0
C1443 C 0.67319 0.42821 0.46531 0.0
C1444 C 0.64963 0.43799 0.47445 0.0
C1445 C 0.69478 0.38843 0.45708 0.0
C1446 C 0.72628 0.40181 0.46173 0.0
C1447 C 0.68524 0.36399 0.44068 0.0
C1448 C 0.6526 0.35049 0.4329 0.0
C1449 C 0.63596 0.36656 0.42064 0.0
C1450 C 0.60518 0.35381 0.41349 0.0
C1451 C 0.59084 0.32493 0.41828 0.0
C1452 C 0.60729 0.30873 0.43017 0.0
C1453 C 0.63807 0.32139 0.43741 0.0
H1454 H 0.567 0.31509 0.41271 0.0
H1455 H 0.86781 0.44445 0.47136 0.0
loop_
_geom_bond_atom_site_label_1
_geom_bond_atom_site_label_2
_geom_bond_distance
_geom_bond_site_symmetry_2
_ccdc_geom_bond_type
H0 C5 0.930 . S
H1 C8 0.930 . S
H2 C10 0.930 . S
H3 C4 1.016 . S
C4 H3 1.016 . S
C4 N11 1.286 . S
C5 H0 0.930 . S
C5 C6 1.397 . S
C5 C7 1.361 . S
C6 C5 1.397 . S
C6 C10 1.390 . S
C7 C5 1.361 . S
C7 C8 1.393 . S
C7 N11 1.413 . S
C8 H1 0.930 . S
C8 C7 1.393 . S
C8 C9 1.399 . S
C9 C8 1.399 . S
C9 C10 1.381 . S
C10 H2 0.930 . S
C10 C6 1.390 . S
C10 C9 1.381 . S
N11 C4 1.286 . S
N11 C7 1.413 . S
H12 C17 0.930 . S
H13 C20 0.930 . S
H14 C22 0.930 . S
H15 C16 1.016 . S
C16 H15 1.016 . S
C16 N23 1.286 . S
C17 H12 0.930 . S
C17 C18 1.397 . S
C17 C19 1.361 . S
C18 C17 1.397 . S
C18 C22 1.390 . S
C19 C17 1.361 . S
C19 C20 1.393 . S
C19 N23 1.413 . S
C20 H13 0.930 . S
C20 C19 1.393 . S
C20 C21 1.399 . S
C21 C20 1.399 . S
C21 C22 1.381 . S
C22 H14 0.930 . S
C22 C18 1.390 . S
C22 C21 1.381 . S
N23 C16 1.286 . S
N23 C19 1.413 . S
H24 C29 0.930 . S
H25 C32 0.930 . S
H26 C34 0.930 . S
H27 C28 1.016 . S
C28 H27 1.016 . S
C28 N35 1.286 . S
C29 H24 0.930 . S
C29 C30 1.397 . S
C29 C31 1.361 . S
C30 C29 1.397 . S
C30 C34 1.390 . S
C31 C29 1.361 . S
C31 C32 1.393 . S
C31 N35 1.413 . S
C32 H25 0.930 . S
C32 C31 1.393 . S
C32 C33 1.399 . S
C33 C32 1.399 . S
C33 C34 1.381 . S
C34 H26 0.930 . S
C34 C30 1.390 . S
C34 C33 1.381 . S
N35 C28 1.286 . S
N35 C31 1.413 . S
H36 C41 0.930 . S
H37 C44 0.930 . S
H38 C46 0.930 . S
H39 C40 1.016 . S
C40 H39 1.016 . S
C40 N47 1.286 . S
C41 H36 0.930 . S
C41 C42 1.397 . S
C41 C43 1.361 . S
C42 C41 1.397 . S
C42 C46 1.390 . S
C43 C41 1.361 . S
C43 C44 1.393 . S
C43 N47 1.413 . S
C44 H37 0.930 . S
C44 C43 1.393 . S
C44 C45 1.399 . S
C45 C44 1.399 . S
C45 C46 1.381 . S
C46 H38 0.930 . S
C46 C42 1.390 . S
C46 C45 1.381 . S
N47 C40 1.286 . S
N47 C43 1.413 . S
H48 C53 0.930 . S
H49 C56 0.930 . S
H50 C58 0.930 . S
H51 C52 1.016 . S
C52 H51 1.016 . S
C52 N59 1.286 . S
C53 H48 0.930 . S
C53 C54 1.397 . S
C53 C55 1.361 . S
C54 C53 1.397 . S
C54 C58 1.390 . S
C55 C53 1.361 . S
C55 C56 1.393 . S
C55 N59 1.413 . S
C56 H49 0.930 . S
C56 C55 1.393 . S
C56 C57 1.399 . S
C57 C56 1.399 . S
C57 C58 1.381 . S
C58 H50 0.930 . S
C58 C54 1.390 . S
C58 C57 1.381 . S
N59 C52 1.286 . S
N59 C55 1.413 . S
H60 C65 0.930 . S
H61 C68 0.930 . S
H62 C70 0.930 . S
H63 C64 1.016 . S
C64 H63 1.016 . S
C64 N71 1.286 . S
C65 H60 0.930 . S
C65 C66 1.397 . S
C65 C67 1.361 . S
C66 C65 1.397 . S
C66 C70 1.390 . S
C67 C65 1.361 . S
C67 C68 1.393 . S
C67 N71 1.413 . S
C68 H61 0.930 . S
C68 C67 1.393 . S
C68 C69 1.399 . S
C69 C68 1.399 . S
C69 C70 1.381 . S
C70 H62 0.930 . S
C70 C66 1.390 . S
C70 C69 1.381 . S
N71 C64 1.286 . S
N71 C67 1.413 . S
H72 C77 0.930 . S
H73 C80 0.930 . S
H74 C82 0.930 . S
H75 C76 1.016 . S
C76 H75 1.016 . S
C76 N83 1.286 . S
C77 H72 0.930 . S
C77 C78 1.397 . S
C77 C79 1.361 . S
C78 C77 1.397 . S
C78 C82 1.390 . S
C79 C77 1.361 . S
C79 C80 1.393 . S
C79 N83 1.413 . S
C80 H73 0.930 . S
C80 C79 1.393 . S
C80 C81 1.399 . S
C81 C80 1.399 . S
C81 C82 1.381 . S
C82 H74 0.930 . S
C82 C78 1.390 . S
C82 C81 1.381 . S
N83 C76 1.286 . S
N83 C79 1.413 . S
H84 C89 0.930 . S
H85 C92 0.930 . S
H86 C94 0.930 . S
H87 C88 1.016 . S
C88 H87 1.016 . S
C88 N95 1.286 . S
C89 H84 0.930 . S
C89 C90 1.397 . S
C89 C91 1.361 . S
C90 C89 1.397 . S
C90 C94 1.390 . S
C91 C89 1.361 . S
C91 C92 1.393 . S
C91 N95 1.413 . S
C92 H85 0.930 . S
C92 C91 1.393 . S
C92 C93 1.399 . S
C93 C92 1.399 . S
C93 C94 1.381 . S
C94 H86 0.930 . S
C94 C90 1.390 . S
C94 C93 1.381 . S
N95 C88 1.286 . S
N95 C91 1.413 . S
Tb96 C98 2.809 . S
Tb96 O116 2.484 . S
Tb96 O117 2.440 . S
Tb96 O118 2.658 1_665 S
Tb96 O119 2.409 1_565 S
Tb96 O120 2.378 1_655 S
Tb96 O124 2.325 . S
Tb96 O127 2.341 1_565 S
Tb97 C107 2.809 . S
Tb97 O118 2.325 . S
Tb97 O121 2.341 1_545 S
Tb97 O122 2.484 . S
Tb97 O123 2.440 . S
Tb97 O124 2.658 1_445 S
Tb97 O125 2.409 1_545 S
Tb97 O126 2.378 1_455 S
C98 Tb96 2.809 . S
C98 C99 1.514 . S
C98 O116 1.248 . S
C98 O117 1.266 . S
C99 C98 1.514 . S
C99 C100 1.359 . S
C99 C104 1.348 . S
C100 C99 1.359 . S
C100 C101 1.380 . S
C100 H128 0.929 . S
C101 C100 1.380 . S
C101 C102 1.347 . S
C101 H129 0.931 . S
C102 C101 1.347 . S
C102 C103 1.369 . S
C103 C102 1.369 . S
C103 C104 1.408 . S
C103 H130 0.930 . S
C104 C99 1.348 . S
C104 C103 1.408 . S
C104 H131 0.930 . S
C105 O118 1.281 . S
C105 O119 1.254 1_455 S
C106 O120 1.236 . S
C106 O121 1.266 . S
C107 Tb97 2.809 . S
C107 C108 1.514 . S
C107 O122 1.248 . S
C107 O123 1.266 . S
C108 C107 1.514 . S
C108 C109 1.359 . S
C108 C113 1.348 . S
C109 C108 1.359 . S
C109 C110 1.380 . S
C109 H132 0.929 . S
C110 C109 1.380 . S
C110 C111 1.347 . S
C110 H133 0.931 . S
C111 C110 1.347 . S
C111 C112 1.369 . S
C112 C111 1.369 . S
C112 C113 1.408 . S
C112 H134 0.930 . S
C113 C108 1.348 . S
C113 C112 1.408 . S
C113 H135 0.930 . S
C114 O124 1.281 . S
C114 O125 1.254 1_655 S
C115 O126 1.236 . S
C115 O127 1.266 . S
O116 Tb96 2.484 . S
O116 C98 1.248 . S
O117 Tb96 2.440 . S
O117 C98 1.266 . S
O118 Tb96 2.658 1_445 S
O118 Tb97 2.325 . S
O118 C105 1.281 . S
O119 Tb96 2.409 1_545 S
O119 C105 1.254 1_655 S
O120 Tb96 2.378 1_455 S
O120 C106 1.236 . S
O121 Tb97 2.341 1_565 S
O121 C106 1.266 . S
O122 Tb97 2.484 . S
O122 C107 1.248 . S
O123 Tb97 2.440 . S
O123 C107 1.266 . S
O124 Tb96 2.325 . S
O124 Tb97 2.658 1_665 S
O124 C114 1.281 . S
O125 Tb97 2.409 1_565 S
O125 C114 1.254 1_455 S
O126 Tb97 2.378 1_655 S
O126 C115 1.236 . S
O127 Tb96 2.341 1_545 S
O127 C115 1.266 . S
H128 C100 0.929 . S
H129 C101 0.931 . S
H130 C103 0.930 . S
H131 C104 0.930 . S
H132 C109 0.929 . S
H133 C110 0.931 . S
H134 C112 0.930 . S
H135 C113 0.930 . S
Tb136 C138 2.809 . S
Tb136 O156 2.484 . S
Tb136 O157 2.440 . S
Tb136 O158 2.658 1_545 S
Tb136 O159 2.409 1_545 S
Tb136 O160 2.378 . S
Tb136 O164 2.325 1_554 S
Tb136 O167 2.341 1_544 S
Tb137 C147 2.809 1_545 S
Tb137 O158 2.325 1_546 S
Tb137 O161 2.341 1_556 S
Tb137 O162 2.484 1_545 S
Tb137 O163 2.440 1_545 S
Tb137 O164 2.658 . S
Tb137 O165 2.409 . S
Tb137 O166 2.378 1_545 S
C138 Tb136 2.809 . S
C138 C139 1.514 . S
C138 O156 1.248 . S
C138 O157 1.266 . S
C139 C138 1.514 . S
C139 C140 1.359 . S
C139 C144 1.348 . S
C140 C139 1.359 . S
C140 C141 1.380 . S
C140 H168 0.929 . S
C141 C140 1.380 . S
C141 C142 1.347 . S
C141 H169 0.931 . S
C142 C141 1.347 . S
C142 C143 1.369 . S
C143 C142 1.369 . S
C143 C144 1.408 . S
C143 H170 0.930 . S
C144 C139 1.348 . S
C144 C143 1.408 . S
C144 H171 0.930 . S
C145 O158 1.281 . S
C145 O159 1.254 . S
C146 O160 1.236 . S
C146 O161 1.266 . S
C147 Tb137 2.809 1_565 S
C147 C148 1.514 . S
C147 O162 1.248 . S
C147 O163 1.266 . S
C148 C147 1.514 . S
C148 C149 1.359 . S
C148 C153 1.348 . S
C149 C148 1.359 . S
C149 C150 1.380 . S
C149 H172 0.929 . S
C150 C149 1.380 . S
C150 C151 1.347 . S
C150 H173 0.931 . S
C151 C150 1.347 . S
C151 C152 1.369 . S
C152 C151 1.369 . S
C152 C153 1.408 . S
C152 H174 0.930 . S
C153 C148 1.348 . S
C153 C152 1.408 . S
C153 H175 0.930 . S
C154 O164 1.281 . S
C154 O165 1.254 . S
C155 O166 1.236 . S
C155 O167 1.266 . S
O156 Tb136 2.484 . S
O156 C138 1.248 . S
O157 Tb136 2.440 . S
O157 C138 1.266 . S
O158 Tb136 2.658 1_565 S
O158 Tb137 2.325 1_564 S
O158 C145 1.281 . S
O159 Tb136 2.409 1_565 S
O159 C145 1.254 . S
O160 Tb136 2.378 . S
O160 C146 1.236 . S
O161 Tb137 2.341 1_554 S
O161 C146 1.266 . S
O162 Tb137 2.484 1_565 S
O162 C147 1.248 . S
O163 Tb137 2.440 1_565 S
O163 C147 1.266 . S
O164 Tb136 2.325 1_556 S
O164 Tb137 2.658 . S
O164 C154 1.281 . S
O165 Tb137 2.409 . S
O165 C154 1.254 . S
O166 Tb137 2.378 1_565 S
O166 C155 1.236 . S
O167 Tb136 2.341 1_566 S
O167 C155 1.266 . S
H168 C140 0.929 . S
H169 C141 0.931 . S
H170 C143 0.930 . S
H171 C144 0.930 . S
H172 C149 0.929 . S
H173 C150 0.931 . S
H174 C152 0.930 . S
H175 C153 0.930 . S
Tb176 C178 2.809 . S
Tb176 O196 2.484 . S
Tb176 O197 2.440 . S
Tb176 O198 2.658 . S
Tb176 O199 2.409 . S
Tb176 O200 2.378 . S
Tb176 O204 2.325 . S
Tb176 O207 2.341 . S
Tb177 C187 2.809 . S
Tb177 O198 2.325 . S
Tb177 O201 2.341 . S
Tb177 O202 2.484 . S
Tb177 O203 2.440 . S
Tb177 O204 2.658 . S
Tb177 O205 2.409 . S
Tb177 O206 2.378 . S
C178 Tb176 2.809 . S
C178 C179 1.514 . S
C178 O196 1.248 . S
C178 O197 1.266 . S
C179 C178 1.514 . S
C179 C180 1.359 . S
C179 C184 1.348 . S
C180 C179 1.359 . S
C180 C181 1.380 . S
C180 H208 0.929 . S
C181 C180 1.380 . S
C181 C182 1.347 . S
C181 H209 0.931 . S
C182 C181 1.347 . S
C182 C183 1.369 . S
C183 C182 1.369 . S
C183 C184 1.408 . S
C183 H210 0.930 . S
C184 C179 1.348 . S
C184 C183 1.408 . S
C184 H211 0.930 . S
C185 O198 1.281 . S
C185 O199 1.254 . S
C186 O200 1.236 . S
C186 O201 1.266 . S
C187 Tb177 2.809 . S
C187 C188 1.514 . S
C187 O202 1.248 . S
C187 O203 1.266 . S
C188 C187 1.514 . S
C188 C189 1.359 . S
C188 C193 1.348 . S
C189 C188 1.359 . S
C189 C190 1.380 . S
C189 H212 0.929 . S
C190 C189 1.380 . S
C190 C191 1.347 . S
C190 H213 0.931 . S
C191 C190 1.347 . S
C191 C192 1.369 . S
C192 C191 1.369 . S
C192 C193 1.408 . S
C192 H214 0.930 . S
C193 C188 1.348 . S
C193 C192 1.408 . S
C193 H215 0.930 . S
C194 O204 1.281 . S
C194 O205 1.254 . S
C195 O206 1.236 . S
C195 O207 1.266 . S
O196 Tb176 2.484 . S
O196 C178 1.248 . S
O197 Tb176 2.440 . S
O197 C178 1.266 . S
O198 Tb176 2.658 . S
O198 Tb177 2.325 . S
O198 C185 1.281 . S
O199 Tb176 2.409 . S
O199 C185 1.254 . S
O200 Tb176 2.378 . S
O200 C186 1.236 . S
O201 Tb177 2.341 . S
O201 C186 1.266 . S
O202 Tb177 2.484 . S
O202 C187 1.248 . S
O203 Tb177 2.440 . S
O203 C187 1.266 . S
O204 Tb176 2.325 . S
O204 Tb177 2.658 . S
O204 C194 1.281 . S
O205 Tb177 2.409 . S
O205 C194 1.254 . S
O206 Tb177 2.378 . S
O206 C195 1.236 . S
O207 Tb176 2.341 . S
O207 C195 1.266 . S
H208 C180 0.929 . S
H209 C181 0.931 . S
H210 C183 0.930 . S
H211 C184 0.930 . S
H212 C189 0.929 . S
H213 C190 0.931 . S
H214 C192 0.930 . S
H215 C193 0.930 . S
Tb216 C218 2.809 1_455 S
Tb216 O236 2.484 1_455 S
Tb216 O237 2.440 . S
Tb216 O238 2.658 1_556 S
Tb216 O239 2.409 1_556 S
Tb216 O240 2.378 1_456 S
Tb216 O244 2.325 1_455 S
Tb216 O247 2.341 . S
Tb217 C227 2.809 . S
Tb217 O238 2.325 . S
Tb217 O241 2.341 1_455 S
Tb217 O242 2.484 . S
Tb217 O243 2.440 . S
Tb217 O244 2.658 1_454 S
Tb217 O245 2.393 1_454 S
Tb217 O246 2.378 1_554 S
C218 Tb216 2.809 1_655 S
C218 C219 1.514 . S
C218 O236 1.248 . S
C218 O237 1.266 1_655 S
C219 C218 1.514 . S
C219 C220 1.359 . S
C219 C224 1.348 . S
C220 C219 1.359 . S
C220 C221 1.380 . S
C220 H248 0.929 . S
C221 C220 1.380 . S
C221 C222 1.347 . S
C221 H249 0.931 . S
C222 C221 1.347 . S
C222 C223 1.369 . S
C223 C222 1.369 . S
C223 C224 1.408 . S
C223 H250 0.930 . S
C224 C219 1.348 . S
C224 C223 1.408 . S
C224 H251 0.930 1_655 S
C225 O238 1.281 . S
C225 O239 1.254 . S
C226 O240 1.236 . S
C226 O241 1.266 . S
C227 Tb217 2.809 . S
C227 C228 1.514 . S
C227 O242 1.248 . S
C227 O243 1.266 . S
C228 C227 1.514 . S
C228 C229 1.359 . S
C228 C233 1.348 . S
C229 C228 1.359 . S
C229 C230 1.380 . S
C229 H252 0.929 . S
C230 C229 1.380 . S
C230 C231 1.347 . S
C230 H253 0.931 . S
C231 C230 1.347 . S
C231 C232 1.369 . S
C232 C231 1.369 . S
C232 C233 1.408 . S
C232 H254 0.930 . S
C233 C228 1.348 . S
C233 C232 1.408 . S
C233 H255 0.930 . S
C234 O244 1.281 . S
C234 O245 1.270 . S
C235 O246 1.236 . S
C235 O247 1.266 . S
O236 Tb216 2.484 1_655 S
O236 C218 1.248 . S
O237 Tb216 2.440 . S
O237 C218 1.266 1_455 S
O238 Tb216 2.658 1_554 S
O238 Tb217 2.325 . S
O238 C225 1.281 . S
O239 Tb216 2.409 1_554 S
O239 C225 1.254 . S
O240 Tb216 2.378 1_654 S
O240 C226 1.236 . S
O241 Tb217 2.341 1_655 S
O241 C226 1.266 . S
O242 Tb217 2.484 . S
O242 C227 1.248 . S
O243 Tb217 2.440 . S
O243 C227 1.266 . S
O244 Tb216 2.325 1_655 S
O244 Tb217 2.658 1_656 S
O244 C234 1.281 . S
O245 Tb217 2.393 1_656 S
O245 C234 1.270 . S
O246 Tb217 2.378 1_556 S
O246 C235 1.236 . S
O247 Tb216 2.341 . S
O247 C235 1.266 . S
H248 C220 0.929 . S
H249 C221 0.931 . S
H250 C223 0.930 . S
H251 C224 0.930 1_455 S
H252 C229 0.929 . S
H253 C230 0.931 . S
H254 C232 0.930 . S
H255 C233 0.930 . S
H256 C274 0.951 . S
H257 C276 0.951 . S
H258 C278 0.950 . S
H259 C279 0.950 . S
H260 C281 0.950 . S
H261 C284 0.950 . S
H262 C285 0.950 . S
H263 C287 0.950 . S
H264 C288 0.950 . S
H265 C289 0.951 . S
H266 C291 0.951 . S
H267 C293 0.950 . S
H268 C294 0.950 . S
H269 C296 0.950 . S
H270 C299 0.950 . S
H271 C300 0.950 . S
H272 C302 0.950 . S
H273 C303 0.950 . S
C274 H256 0.951 . S
C274 C275 1.366 . S
C274 C276 1.388 . S
C275 C274 1.366 . S
C275 C279 1.385 . S
C276 H257 0.951 . S
C276 C274 1.388 . S
C276 C277 1.366 . S
C277 C276 1.366 . S
C277 C278 1.414 . S
C277 C280 1.499 . S
C278 H258 0.950 . S
C278 C277 1.414 . S
C278 C279 1.374 . S
C279 H259 0.950 . S
C279 C275 1.385 . S
C279 C278 1.374 . S
C280 C277 1.499 . S
C280 C281 1.373 . S
C280 C282 1.389 . S
C281 H260 0.950 . S
C281 C280 1.373 . S
C281 C297 1.377 . S
C282 C280 1.389 . S
C282 C283 1.524 . S
C282 C296 1.377 . S
C283 C282 1.524 . S
C283 C284 1.397 . S
C283 C288 1.363 . S
C284 H261 0.950 . S
C284 C283 1.397 . S
C284 C285 1.334 . S
C285 H262 0.950 . S
C285 C284 1.334 . S
C285 C286 1.287 . S
C286 C285 1.287 . S
C286 C287 1.524 . S
C286 H305 0.913 . S
C287 H263 0.950 . S
C287 C286 1.524 . S
C287 C288 1.415 . S
C288 H264 0.950 . S
C288 C283 1.363 . S
C288 C287 1.415 . S
C289 H265 0.951 . S
C289 C290 1.366 . S
C289 C291 1.388 . S
C290 C289 1.366 . S
C290 C294 1.385 . S
C291 H266 0.951 . S
C291 C289 1.388 . S
C291 C292 1.366 . S
C292 C291 1.366 . S
C292 C293 1.414 . S
C292 C295 1.499 . S
C293 H267 0.950 . S
C293 C292 1.414 . S
C293 C294 1.374 . S
C294 H268 0.950 . S
C294 C290 1.385 . S
C294 C293 1.374 . S
C295 C292 1.499 . S
C295 C296 1.373 . S
C295 C297 1.389 . S
C296 H269 0.950 . S
C296 C282 1.377 . S
C296 C295 1.373 . S
C297 C281 1.377 . S
C297 C295 1.389 . S
C297 C298 1.524 . S
C298 C297 1.524 . S
C298 C299 1.397 . S
C298 C303 1.363 . S
C299 H270 0.950 . S
C299 C298 1.397 . S
C299 C300 1.334 . S
C300 H271 0.950 . S
C300 C299 1.334 . S
C300 C301 1.287 . S
C301 C300 1.287 . S
C301 C302 1.524 . S
C301 H304 0.999 . S
C302 H272 0.950 . S
C302 C301 1.524 . S
C302 C303 1.415 . S
C303 H273 0.950 . S
C303 C298 1.363 . S
C303 C302 1.415 . S
H304 C301 0.999 . S
H305 C286 0.913 . S
H306 C324 0.951 . S
H307 C326 0.951 . S
H308 C328 0.950 . S
H309 C329 0.950 . S
H310 C331 0.950 . S
H311 C334 0.950 . S
H312 C335 0.950 . S
H313 C337 0.950 . S
H314 C338 0.950 . S
H315 C339 0.951 . S
H316 C341 0.951 . S
H317 C343 0.950 . S
H318 C344 0.950 . S
H319 C346 0.950 . S
H320 C349 0.950 . S
H321 C350 0.950 . S
H322 C352 0.950 . S
H323 C353 0.950 . S
C324 H306 0.951 . S
C324 C325 1.366 . S
C324 C326 1.388 . S
C325 C324 1.366 . S
C325 C329 1.385 . S
C326 H307 0.951 . S
C326 C324 1.388 . S
C326 C327 1.366 . S
C327 C326 1.366 . S
C327 C328 1.414 . S
C327 C330 1.499 . S
C328 H308 0.950 . S
C328 C327 1.414 . S
C328 C329 1.374 . S
C329 H309 0.950 . S
C329 C325 1.385 . S
C329 C328 1.374 . S
C330 C327 1.499 . S
C330 C331 1.373 . S
C330 C332 1.389 . S
C331 H310 0.950 . S
C331 C330 1.373 . S
C331 C347 1.377 . S
C332 C330 1.389 . S
C332 C333 1.524 . S
C332 C346 1.377 . S
C333 C332 1.524 . S
C333 C334 1.397 . S
C333 C338 1.363 . S
C334 H311 0.950 . S
C334 C333 1.397 . S
C334 C335 1.334 . S
C335 H312 0.950 . S
C335 C334 1.334 . S
C335 C336 1.287 . S
C336 C335 1.287 . S
C336 C337 1.524 . S
C336 H355 0.913 . S
C337 H313 0.950 . S
C337 C336 1.524 . S
C337 C338 1.415 . S
C338 H314 0.950 . S
C338 C333 1.363 . S
C338 C337 1.415 . S
C339 H315 0.951 . S
C339 C340 1.366 . S
C339 C341 1.388 . S
C340 C339 1.366 . S
C340 C344 1.385 . S
C341 H316 0.951 . S
C341 C339 1.388 . S
C341 C342 1.366 . S
C342 C341 1.366 . S
C342 C343 1.414 . S
C342 C345 1.499 . S
C343 H317 0.950 . S
C343 C342 1.414 . S
C343 C344 1.374 . S
C344 H318 0.950 . S
C344 C340 1.385 . S
C344 C343 1.374 . S
C345 C342 1.499 . S
C345 C346 1.373 . S
C345 C347 1.389 . S
C346 H319 0.950 . S
C346 C332 1.377 . S
C346 C345 1.373 . S
C347 C331 1.377 . S
C347 C345 1.389 . S
C347 C348 1.524 . S
C348 C347 1.524 . S
C348 C349 1.397 . S
C348 C353 1.363 . S
C349 H320 0.950 . S
C349 C348 1.397 . S
C349 C350 1.334 . S
C350 H321 0.950 . S
C350 C349 1.334 . S
C350 C351 1.287 . S
C351 C350 1.287 . S
C351 C352 1.524 . S
C351 H354 0.999 . S
C352 H322 0.950 . S
C352 C351 1.524 . S
C352 C353 1.415 . S
C353 H323 0.950 . S
C353 C348 1.363 . S
C353 C352 1.415 . S
H354 C351 0.999 . S
H355 C336 0.913 . S
H356 C374 0.951 . S
H357 C376 0.951 . S
H358 C378 0.950 . S
H359 C379 0.950 . S
H360 C381 0.950 . S
H361 C384 0.950 . S
H362 C385 0.950 . S
H363 C387 0.950 . S
H364 C388 0.950 . S
H365 C389 0.951 . S
H366 C391 0.951 . S
H367 C393 0.950 . S
H368 C394 0.950 . S
H369 C396 0.950 . S
H370 C399 0.950 . S
H371 C400 0.950 . S
H372 C402 0.950 . S
H373 C403 0.950 . S
C374 H356 0.951 . S
C374 C375 1.366 . S
C374 C376 1.388 . S
C375 C374 1.366 . S
C375 C379 1.385 . S
C376 H357 0.951 . S
C376 C374 1.388 . S
C376 C377 1.366 . S
C377 C376 1.366 . S
C377 C378 1.414 . S
C377 C380 1.499 . S
C378 H358 0.950 . S
C378 C377 1.414 . S
C378 C379 1.374 . S
C379 H359 0.950 . S
C379 C375 1.385 . S
C379 C378 1.374 . S
C380 C377 1.499 . S
C380 C381 1.373 . S
C380 C382 1.389 . S
C381 H360 0.950 . S
C381 C380 1.373 . S
C381 C397 1.377 . S
C382 C380 1.389 . S
C382 C383 1.524 . S
C382 C396 1.377 . S
C383 C382 1.524 . S
C383 C384 1.397 . S
C383 C388 1.363 . S
C384 H361 0.950 . S
C384 C383 1.397 . S
C384 C385 1.334 . S
C385 H362 0.950 . S
C385 C384 1.334 . S
C385 C386 1.287 . S
C386 C385 1.287 . S
C386 C387 1.524 . S
C386 H405 0.913 . S
C387 H363 0.950 . S
C387 C386 1.524 . S
C387 C388 1.415 . S
C388 H364 0.950 . S
C388 C383 1.363 . S
C388 C387 1.415 . S
C389 H365 0.951 . S
C389 C390 1.366 . S
C389 C391 1.388 . S
C390 C389 1.366 . S
C390 C394 1.385 . S
C391 H366 0.951 . S
C391 C389 1.388 . S
C391 C392 1.366 . S
C392 C391 1.366 . S
C392 C393 1.414 . S
C392 C395 1.499 . S
C393 H367 0.950 . S
C393 C392 1.414 . S
C393 C394 1.374 . S
C394 H368 0.950 . S
C394 C390 1.385 . S
C394 C393 1.374 . S
C395 C392 1.499 . S
C395 C396 1.373 . S
C395 C397 1.389 . S
C396 H369 0.950 . S
C396 C382 1.377 . S
C396 C395 1.373 . S
C397 C381 1.377 . S
C397 C395 1.389 . S
C397 C398 1.524 . S
C398 C397 1.524 . S
C398 C399 1.397 . S
C398 C403 1.363 . S
C399 H370 0.950 . S
C399 C398 1.397 . S
C399 C400 1.334 . S
C400 H371 0.950 . S
C400 C399 1.334 . S
C400 C401 1.287 . S
C401 C400 1.287 . S
C401 C402 1.524 . S
C401 H404 0.999 . S
C402 H372 0.950 . S
C402 C401 1.524 . S
C402 C403 1.415 . S
C403 H373 0.950 . S
C403 C398 1.363 . S
C403 C402 1.415 . S
H404 C401 0.999 . S
H405 C386 0.913 . S
H406 C424 0.951 . S
H407 C426 0.951 . S
H408 C428 0.950 . S
H409 C429 0.950 . S
H410 C431 0.950 . S
H411 C434 0.950 . S
H412 C435 0.950 . S
H413 C437 0.950 . S
H414 C438 0.950 . S
H415 C439 0.951 . S
H416 C441 0.951 . S
H417 C443 0.950 . S
H418 C444 0.950 . S
H419 C446 0.950 . S
H420 C449 0.950 . S
H421 C450 0.950 1_455 S
H422 C452 0.950 . S
H423 C453 0.950 . S
C424 H406 0.951 . S
C424 C425 1.366 . S
C424 C426 1.388 . S
C425 C424 1.366 . S
C425 C429 1.385 . S
C426 H407 0.951 . S
C426 C424 1.388 . S
C426 C427 1.366 . S
C427 C426 1.366 . S
C427 C428 1.414 . S
C427 C430 1.499 . S
C428 H408 0.950 . S
C428 C427 1.414 . S
C428 C429 1.374 . S
C429 H409 0.950 . S
C429 C425 1.385 . S
C429 C428 1.374 . S
C430 C427 1.499 . S
C430 C431 1.373 . S
C430 C432 1.389 . S
C431 H410 0.950 . S
C431 C430 1.373 . S
C431 C447 1.377 . S
C432 C430 1.389 . S
C432 C433 1.524 . S
C432 C446 1.377 . S
C433 C432 1.524 . S
C433 C434 1.397 . S
C433 C438 1.363 . S
C434 H411 0.950 . S
C434 C433 1.397 . S
C434 C435 1.334 . S
C435 H412 0.950 . S
C435 C434 1.334 . S
C435 C436 1.287 . S
C436 C435 1.287 . S
C436 C437 1.524 . S
C436 H455 0.913 . S
C437 H413 0.950 . S
C437 C436 1.524 . S
C437 C438 1.415 . S
C438 H414 0.950 . S
C438 C433 1.363 . S
C438 C437 1.415 . S
C439 H415 0.951 . S
C439 C440 1.366 . S
C439 C441 1.388 . S
C440 C439 1.366 . S
C440 C444 1.385 . S
C441 H416 0.951 . S
C441 C439 1.388 . S
C441 C442 1.366 . S
C442 C441 1.366 . S
C442 C443 1.414 . S
C442 C445 1.499 . S
C443 H417 0.950 . S
C443 C442 1.414 . S
C443 C444 1.374 . S
C444 H418 0.950 . S
C444 C440 1.385 . S
C444 C443 1.374 . S
C445 C442 1.499 . S
C445 C446 1.373 . S
C445 C447 1.389 . S
C446 H419 0.950 . S
C446 C432 1.377 . S
C446 C445 1.373 . S
C447 C431 1.377 . S
C447 C445 1.389 . S
C447 C448 1.524 . S
C448 C447 1.524 . S
C448 C449 1.397 . S
C448 C453 1.363 . S
C449 H420 0.950 . S
C449 C448 1.397 . S
C449 C450 1.334 . S
C450 H421 0.950 1_655 S
C450 C449 1.334 . S
C450 C451 1.287 . S
C451 C450 1.287 . S
C451 C452 1.524 . S
C451 H454 0.999 1_655 S
C452 H422 0.950 . S
C452 C451 1.524 . S
C452 C453 1.415 . S
C453 H423 0.950 . S
C453 C448 1.363 . S
C453 C452 1.415 . S
H454 C451 0.999 1_455 S
H455 C436 0.913 . S
H456 C474 0.951 . S
H457 C476 0.951 . S
H458 C478 0.950 . S
H459 C479 0.950 . S
H460 C481 0.950 . S
H461 C484 0.950 . S
H462 C485 0.950 . S
H463 C487 0.950 . S
H464 C488 0.950 . S
H465 C489 0.951 . S
H466 C491 0.951 . S
H467 C493 0.950 . S
H468 C494 0.950 . S
H469 C496 0.950 . S
H470 C499 0.950 . S
H471 C500 0.950 . S
H472 C502 0.950 . S
H473 C503 0.950 . S
C474 H456 0.951 . S
C474 C475 1.366 . S
C474 C476 1.388 . S
C475 C474 1.366 . S
C475 C479 1.385 . S
C476 H457 0.951 . S
C476 C474 1.388 . S
C476 C477 1.366 . S
C477 C476 1.366 . S
C477 C478 1.414 . S
C477 C480 1.499 . S
C478 H458 0.950 . S
C478 C477 1.414 . S
C478 C479 1.374 . S
C479 H459 0.950 . S
C479 C475 1.385 . S
C479 C478 1.374 . S
C480 C477 1.499 . S
C480 C481 1.373 . S
C480 C482 1.389 . S
C481 H460 0.950 . S
C481 C480 1.373 . S
C481 C497 1.377 . S
C482 C480 1.389 . S
C482 C483 1.524 . S
C482 C496 1.377 . S
C483 C482 1.524 . S
C483 C484 1.397 . S
C483 C488 1.363 . S
C484 H461 0.950 . S
C484 C483 1.397 . S
C484 C485 1.334 . S
C485 H462 0.950 . S
C485 C484 1.334 . S
C485 C486 1.287 . S
C486 C485 1.287 . S
C486 C487 1.524 . S
C486 H505 0.913 . S
C487 H463 0.950 . S
C487 C486 1.524 . S
C487 C488 1.415 . S
C488 H464 0.950 . S
C488 C483 1.363 . S
C488 C487 1.415 . S
C489 H465 0.951 . S
C489 C490 1.366 . S
C489 C491 1.388 . S
C490 C489 1.366 . S
C490 C494 1.385 . S
C491 H466 0.951 . S
C491 C489 1.388 . S
C491 C492 1.366 . S
C492 C491 1.366 . S
C492 C493 1.414 . S
C492 C495 1.499 . S
C493 H467 0.950 . S
C493 C492 1.414 . S
C493 C494 1.374 . S
C494 H468 0.950 . S
C494 C490 1.385 . S
C494 C493 1.374 . S
C495 C492 1.499 . S
C495 C496 1.373 . S
C495 C497 1.389 . S
C496 H469 0.950 . S
C496 C482 1.377 . S
C496 C495 1.373 . S
C497 C481 1.377 . S
C497 C495 1.389 . S
C497 C498 1.524 . S
C498 C497 1.524 . S
C498 C499 1.397 . S
C498 C503 1.363 . S
C499 H470 0.950 . S
C499 C498 1.397 . S
C499 C500 1.334 . S
C500 H471 0.950 . S
C500 C499 1.334 . S
C500 C501 1.287 . S
C501 C500 1.287 . S
C501 C502 1.524 . S
C501 H504 0.999 . S
C502 H472 0.950 . S
C502 C501 1.524 . S
C502 C503 1.415 . S
C503 H473 0.950 . S
C503 C498 1.363 . S
C503 C502 1.415 . S
H504 C501 0.999 . S
H505 C486 0.913 . S
H506 C524 0.951 . S
H507 C526 0.951 . S
H508 C528 0.950 . S
H509 C529 0.950 . S
H510 C531 0.950 . S
H511 C534 0.950 . S
H512 C535 0.950 . S
H513 C537 0.950 . S
H514 C538 0.950 . S
H515 C539 0.951 . S
H516 C541 0.951 . S
H517 C543 0.950 . S
H518 C544 0.950 . S
H519 C546 0.950 . S
H520 C549 0.950 . S
H521 C550 0.950 . S
H522 C552 0.950 . S
H523 C553 0.950 . S
C524 H506 0.951 . S
C524 C525 1.366 . S
C524 C526 1.388 . S
C525 C524 1.366 . S
C525 C529 1.385 . S
C526 H507 0.951 . S
C526 C524 1.388 . S
C526 C527 1.366 . S
C527 C526 1.366 . S
C527 C528 1.414 . S
C527 C530 1.499 . S
C528 H508 0.950 . S
C528 C527 1.414 . S
C528 C529 1.374 . S
C529 H509 0.950 . S
C529 C525 1.385 . S
C529 C528 1.374 . S
C530 C527 1.499 . S
C530 C531 1.373 . S
C530 C532 1.389 . S
C531 H510 0.950 . S
C531 C530 1.373 . S
C531 C547 1.377 . S
C532 C530 1.389 . S
C532 C533 1.524 . S
C532 C546 1.377 . S
C533 C532 1.524 . S
C533 C534 1.397 . S
C533 C538 1.363 . S
C534 H511 0.950 . S
C534 C533 1.397 . S
C534 C535 1.334 . S
C535 H512 0.950 . S
C535 C534 1.334 . S
C535 C536 1.287 . S
C536 C535 1.287 . S
C536 C537 1.524 . S
C536 H555 0.913 . S
C537 H513 0.950 . S
C537 C536 1.524 . S
C537 C538 1.415 . S
C538 H514 0.950 . S
C538 C533 1.363 . S
C538 C537 1.415 . S
C539 H515 0.951 . S
C539 C540 1.366 . S
C539 C541 1.388 . S
C540 C539 1.366 . S
C540 C544 1.385 . S
C541 H516 0.951 . S
C541 C539 1.388 . S
C541 C542 1.366 . S
C542 C541 1.366 . S
C542 C543 1.414 . S
C542 C545 1.499 . S
C543 H517 0.950 . S
C543 C542 1.414 . S
C543 C544 1.374 . S
C544 H518 0.950 . S
C544 C540 1.385 . S
C544 C543 1.374 . S
C545 C542 1.499 . S
C545 C546 1.373 . S
C545 C547 1.389 . S
C546 H519 0.950 . S
C546 C532 1.377 . S
C546 C545 1.373 . S
C547 C531 1.377 . S
C547 C545 1.389 . S
C547 C548 1.524 . S
C548 C547 1.524 . S
C548 C549 1.397 1_455 S
C548 C553 1.363 . S
C549 H520 0.950 . S
C549 C548 1.397 1_655 S
C549 C550 1.334 . S
C550 H521 0.950 . S
C550 C549 1.334 . S
C550 C551 1.287 . S
C551 C550 1.287 . S
C551 C552 1.524 1_655 S
C551 H554 0.999 . S
C552 H522 0.950 . S
C552 C551 1.524 1_455 S
C552 C553 1.415 . S
C553 H523 0.950 . S
C553 C548 1.363 . S
C553 C552 1.415 . S
H554 C551 0.999 . S
H555 C536 0.913 . S
H556 C574 0.951 . S
H557 C576 0.951 . S
H558 C578 0.950 . S
H559 C579 0.950 . S
H560 C581 0.950 . S
H561 C584 0.950 . S
H562 C585 0.950 . S
H563 C587 0.950 . S
H564 C588 0.950 . S
H565 C589 0.951 . S
H566 C591 0.951 . S
H567 C593 0.950 . S
H568 C594 0.950 . S
H569 C596 0.950 . S
H570 C599 0.950 . S
H571 C600 0.950 . S
H572 C602 0.950 . S
H573 C603 0.950 . S
C574 H556 0.951 . S
C574 C575 1.366 . S
C574 C576 1.388 . S
C575 C574 1.366 . S
C575 C579 1.385 . S
C576 H557 0.951 . S
C576 C574 1.388 . S
C576 C577 1.366 . S
C577 C576 1.366 . S
C577 C578 1.414 . S
C577 C580 1.499 . S
C578 H558 0.950 . S
C578 C577 1.414 . S
C578 C579 1.374 . S
C579 H559 0.950 . S
C579 C575 1.385 . S
C579 C578 1.374 . S
C580 C577 1.499 . S
C580 C581 1.373 . S
C580 C582 1.389 . S
C581 H560 0.950 . S
C581 C580 1.373 . S
C581 C597 1.377 . S
C582 C580 1.389 . S
C582 C583 1.524 . S
C582 C596 1.377 . S
C583 C582 1.524 . S
C583 C584 1.397 . S
C583 C588 1.363 . S
C584 H561 0.950 . S
C584 C583 1.397 . S
C584 C585 1.334 . S
C585 H562 0.950 . S
C585 C584 1.334 . S
C585 C586 1.287 . S
C586 C585 1.287 . S
C586 C587 1.524 . S
C586 H605 0.913 . S
C587 H563 0.950 . S
C587 C586 1.524 . S
C587 C588 1.415 . S
C588 H564 0.950 . S
C588 C583 1.363 . S
C588 C587 1.415 . S
C589 H565 0.951 . S
C589 C590 1.366 . S
C589 C591 1.388 . S
C590 C589 1.366 . S
C590 C594 1.385 . S
C591 H566 0.951 . S
C591 C589 1.388 . S
C591 C592 1.366 . S
C592 C591 1.366 . S
C592 C593 1.414 . S
C592 C595 1.499 . S
C593 H567 0.950 . S
C593 C592 1.414 . S
C593 C594 1.374 . S
C594 H568 0.950 . S
C594 C590 1.385 . S
C594 C593 1.374 . S
C595 C592 1.499 . S
C595 C596 1.373 . S
C595 C597 1.389 . S
C596 H569 0.950 . S
C596 C582 1.377 . S
C596 C595 1.373 . S
C597 C581 1.377 . S
C597 C595 1.389 . S
C597 C598 1.524 . S
C598 C597 1.524 . S
C598 C599 1.397 . S
C598 C603 1.363 . S
C599 H570 0.950 . S
C599 C598 1.397 . S
C599 C600 1.334 . S
C600 H571 0.950 . S
C600 C599 1.334 . S
C600 C601 1.287 . S
C601 C600 1.287 . S
C601 C602 1.524 . S
C601 H604 0.999 . S
C602 H572 0.950 . S
C602 C601 1.524 . S
C602 C603 1.415 . S
C603 H573 0.950 . S
C603 C598 1.363 . S
C603 C602 1.415 . S
H604 C601 0.999 . S
H605 C586 0.913 . S
H606 C624 0.951 . S
H607 C626 0.951 . S
H608 C628 0.950 . S
H609 C629 0.950 . S
H610 C631 0.950 . S
H611 C634 0.950 . S
H612 C635 0.950 . S
H613 C637 0.950 . S
H614 C638 0.950 . S
H615 C639 0.951 . S
H616 C641 0.951 . S
H617 C643 0.950 . S
H618 C644 0.950 . S
H619 C646 0.950 . S
H620 C649 0.950 . S
H621 C650 0.950 . S
H622 C652 0.950 . S
H623 C653 0.950 . S
C624 H606 0.951 . S
C624 C625 1.366 . S
C624 C626 1.388 . S
C625 C624 1.366 . S
C625 C629 1.385 . S
C626 H607 0.951 . S
C626 C624 1.388 . S
C626 C627 1.366 . S
C627 C626 1.366 . S
C627 C628 1.414 . S
C627 C630 1.499 . S
C628 H608 0.950 . S
C628 C627 1.414 . S
C628 C629 1.374 . S
C629 H609 0.950 . S
C629 C625 1.385 . S
C629 C628 1.374 . S
C630 C627 1.499 . S
C630 C631 1.373 . S
C630 C632 1.389 . S
C631 H610 0.950 . S
C631 C630 1.373 . S
C631 C647 1.377 . S
C632 C630 1.389 . S
C632 C633 1.524 . S
C632 C646 1.377 . S
C633 C632 1.524 . S
C633 C634 1.397 . S
C633 C638 1.363 . S
C634 H611 0.950 . S
C634 C633 1.397 . S
C634 C635 1.334 . S
C635 H612 0.950 . S
C635 C634 1.334 . S
C635 C636 1.287 . S
C636 C635 1.287 . S
C636 C637 1.524 . S
C636 H655 0.913 . S
C637 H613 0.950 . S
C637 C636 1.524 . S
C637 C638 1.415 . S
C638 H614 0.950 . S
C638 C633 1.363 . S
C638 C637 1.415 . S
C639 H615 0.951 . S
C639 C640 1.366 . S
C639 C641 1.388 . S
C640 C639 1.366 . S
C640 C644 1.385 . S
C641 H616 0.951 . S
C641 C639 1.388 . S
C641 C642 1.366 . S
C642 C641 1.366 . S
C642 C643 1.414 . S
C642 C645 1.499 . S
C643 H617 0.950 . S
C643 C642 1.414 . S
C643 C644 1.374 . S
C644 H618 0.950 . S
C644 C640 1.385 . S
C644 C643 1.374 . S
C645 C642 1.499 . S
C645 C646 1.373 . S
C645 C647 1.389 . S
C646 H619 0.950 . S
C646 C632 1.377 . S
C646 C645 1.373 . S
C647 C631 1.377 . S
C647 C645 1.389 . S
C647 C648 1.524 . S
C648 C647 1.524 . S
C648 C649 1.397 . S
C648 C653 1.363 . S
C649 H620 0.950 . S
C649 C648 1.397 . S
C649 C650 1.334 . S
C650 H621 0.950 . S
C650 C649 1.334 . S
C650 C651 1.287 . S
C651 C650 1.287 . S
C651 C652 1.524 . S
C651 H654 0.999 . S
C652 H622 0.950 . S
C652 C651 1.524 . S
C652 C653 1.415 . S
C653 H623 0.950 . S
C653 C648 1.363 . S
C653 C652 1.415 . S
H654 C651 0.999 . S
H655 C636 0.913 . S
H656 C674 0.951 . S
H657 C676 0.951 . S
H658 C678 0.950 . S
H659 C679 0.950 . S
H660 C681 0.950 . S
H661 C684 0.950 . S
H662 C685 0.950 . S
H663 C687 0.950 . S
H664 C688 0.950 . S
H665 C689 0.951 . S
H666 C691 0.951 . S
H667 C693 0.950 . S
H668 C694 0.950 . S
H669 C696 0.950 . S
H670 C699 0.950 . S
H671 C700 0.950 1_556 S
H672 C702 0.950 . S
H673 C703 0.950 . S
C674 H656 0.951 . S
C674 C675 1.366 . S
C674 C676 1.388 . S
C675 C674 1.366 . S
C675 C679 1.385 . S
C676 H657 0.951 . S
C676 C674 1.388 . S
C676 C677 1.366 . S
C677 C676 1.366 . S
C677 C678 1.414 . S
C677 C680 1.499 . S
C678 H658 0.950 . S
C678 C677 1.414 . S
C678 C679 1.374 . S
C679 H659 0.950 . S
C679 C675 1.385 . S
C679 C678 1.374 . S
C680 C677 1.499 . S
C680 C681 1.373 . S
C680 C682 1.389 . S
C681 H660 0.950 . S
C681 C680 1.373 . S
C681 C697 1.377 . S
C682 C680 1.389 . S
C682 C683 1.524 . S
C682 C696 1.377 . S
C683 C682 1.524 . S
C683 C684 1.397 . S
C683 C688 1.363 . S
C684 H661 0.950 . S
C684 C683 1.397 . S
C684 C685 1.334 . S
C685 H662 0.950 . S
C685 C684 1.334 . S
C685 C686 1.287 . S
C686 C685 1.287 . S
C686 C687 1.524 . S
C686 H705 0.913 . S
C687 H663 0.950 . S
C687 C686 1.524 . S
C687 C688 1.415 . S
C688 H664 0.950 . S
C688 C683 1.363 . S
C688 C687 1.415 . S
C689 H665 0.951 . S
C689 C690 1.366 . S
C689 C691 1.388 . S
C690 C689 1.366 . S
C690 C694 1.385 . S
C691 H666 0.951 . S
C691 C689 1.388 . S
C691 C692 1.366 . S
C692 C691 1.366 . S
C692 C693 1.414 . S
C692 C695 1.499 . S
C693 H667 0.950 . S
C693 C692 1.414 . S
C693 C694 1.374 . S
C694 H668 0.950 . S
C694 C690 1.385 . S
C694 C693 1.374 . S
C695 C692 1.499 . S
C695 C696 1.373 . S
C695 C697 1.389 . S
C696 H669 0.950 . S
C696 C682 1.377 . S
C696 C695 1.373 . S
C697 C681 1.377 . S
C697 C695 1.389 . S
C697 C698 1.524 . S
C698 C697 1.524 . S
C698 C699 1.397 . S
C698 C703 1.363 . S
C699 H670 0.950 . S
C699 C698 1.397 . S
C699 C700 1.334 . S
C700 H671 0.950 1_554 S
C700 C699 1.334 . S
C700 C701 1.287 . S
C701 C700 1.287 . S
C701 C702 1.524 . S
C701 H704 0.999 1_554 S
C702 H672 0.950 . S
C702 C701 1.524 . S
C702 C703 1.415 . S
C703 H673 0.950 . S
C703 C698 1.363 . S
C703 C702 1.415 . S
H704 C701 0.999 1_556 S
H705 C686 0.913 . S
H706 C724 0.951 . S
H707 C726 0.951 . S
H708 C728 0.950 . S
H709 C729 0.950 . S
H710 C731 0.950 . S
H711 C734 0.950 . S
H712 C735 0.950 . S
H713 C737 0.950 . S
H714 C738 0.950 . S
H715 C739 0.951 . S
H716 C741 0.951 . S
H717 C743 0.950 . S
H718 C744 0.950 . S
H719 C746 0.950 . S
H720 C749 0.950 . S
H721 C750 0.950 . S
H722 C752 0.950 . S
H723 C753 0.950 . S
C724 H706 0.951 . S
C724 C725 1.366 . S
C724 C726 1.388 . S
C725 C724 1.366 . S
C725 C729 1.385 . S
C726 H707 0.951 . S
C726 C724 1.388 . S
C726 C727 1.366 . S
C727 C726 1.366 . S
C727 C728 1.414 . S
C727 C730 1.499 . S
C728 H708 0.950 . S
C728 C727 1.414 . S
C728 C729 1.374 . S
C729 H709 0.950 . S
C729 C725 1.385 . S
C729 C728 1.374 . S
C730 C727 1.499 . S
C730 C731 1.373 . S
C730 C732 1.389 . S
C731 H710 0.950 . S
C731 C730 1.373 . S
C731 C747 1.377 . S
C732 C730 1.389 . S
C732 C733 1.524 . S
C732 C746 1.377 . S
C733 C732 1.524 . S
C733 C734 1.397 . S
C733 C738 1.363 . S
C734 H711 0.950 . S
C734 C733 1.397 . S
C734 C735 1.334 . S
C735 H712 0.950 . S
C735 C734 1.334 . S
C735 C736 1.287 . S
C736 C735 1.287 . S
C736 C737 1.524 . S
C736 H755 0.913 . S
C737 H713 0.950 . S
C737 C736 1.524 . S
C737 C738 1.415 . S
C738 H714 0.950 . S
C738 C733 1.363 . S
C738 C737 1.415 . S
C739 H715 0.951 . S
C739 C740 1.366 . S
C739 C741 1.388 . S
C740 C739 1.366 . S
C740 C744 1.385 . S
C741 H716 0.951 . S
C741 C739 1.388 . S
C741 C742 1.366 . S
C742 C741 1.366 . S
C742 C743 1.414 . S
C742 C745 1.499 . S
C743 H717 0.950 . S
C743 C742 1.414 . S
C743 C744 1.374 . S
C744 H718 0.950 . S
C744 C740 1.385 . S
C744 C743 1.374 . S
C745 C742 1.499 . S
C745 C746 1.373 . S
C745 C747 1.389 . S
C746 H719 0.950 . S
C746 C732 1.377 . S
C746 C745 1.373 . S
C747 C731 1.377 . S
C747 C745 1.389 . S
C747 C748 1.524 . S
C748 C747 1.524 . S
C748 C749 1.397 . S
C748 C753 1.363 . S
C749 H720 0.950 . S
C749 C748 1.397 . S
C749 C750 1.334 . S
C750 H721 0.950 . S
C750 C749 1.334 . S
C750 C751 1.287 . S
C751 C750 1.287 . S
C751 C752 1.524 . S
C751 H754 0.999 . S
C752 H722 0.950 . S
C752 C751 1.524 . S
C752 C753 1.415 . S
C753 H723 0.950 . S
C753 C748 1.363 . S
C753 C752 1.415 . S
H754 C751 0.999 . S
H755 C736 0.913 . S
H756 C774 0.951 . S
H757 C776 0.951 . S
H758 C778 0.950 . S
H759 C779 0.950 . S
H760 C781 0.950 . S
H761 C784 0.950 . S
H762 C785 0.950 . S
H763 C787 0.950 . S
H764 C788 0.950 . S
H765 C789 0.951 . S
H766 C791 0.951 . S
H767 C793 0.950 . S
H768 C794 0.950 . S
H769 C796 0.950 . S
H770 C799 0.950 . S
H771 C800 0.950 . S
H772 C802 0.950 . S
H773 C803 0.950 . S
C774 H756 0.951 . S
C774 C775 1.366 . S
C774 C776 1.388 . S
C775 C774 1.366 . S
C775 C779 1.385 . S
C776 H757 0.951 . S
C776 C774 1.388 . S
C776 C777 1.366 . S
C777 C776 1.366 . S
C777 C778 1.414 . S
C777 C780 1.499 . S
C778 H758 0.950 . S
C778 C777 1.414 . S
C778 C779 1.374 . S
C779 H759 0.950 . S
C779 C775 1.385 . S
C779 C778 1.374 . S
C780 C777 1.499 . S
C780 C781 1.373 . S
C780 C782 1.389 . S
C781 H760 0.950 . S
C781 C780 1.373 . S
C781 C797 1.377 . S
C782 C780 1.389 . S
C782 C783 1.524 . S
C782 C796 1.377 . S
C783 C782 1.524 . S
C783 C784 1.397 . S
C783 C788 1.363 . S
C784 H761 0.950 . S
C784 C783 1.397 . S
C784 C785 1.334 . S
C785 H762 0.950 . S
C785 C784 1.334 . S
C785 C786 1.287 . S
C786 C785 1.287 . S
C786 C787 1.524 . S
C786 H805 0.913 . S
C787 H763 0.950 . S
C787 C786 1.524 . S
C787 C788 1.415 . S
C788 H764 0.950 . S
C788 C783 1.363 . S
C788 C787 1.415 . S
C789 H765 0.951 . S
C789 C790 1.366 . S
C789 C791 1.388 . S
C790 C789 1.366 . S
C790 C794 1.385 . S
C791 H766 0.951 . S
C791 C789 1.388 . S
C791 C792 1.366 . S
C792 C791 1.366 . S
C792 C793 1.414 . S
C792 C795 1.499 . S
C793 H767 0.950 . S
C793 C792 1.414 . S
C793 C794 1.374 . S
C794 H768 0.950 . S
C794 C790 1.385 . S
C794 C793 1.374 . S
C795 C792 1.499 . S
C795 C796 1.373 . S
C795 C797 1.389 . S
C796 H769 0.950 . S
C796 C782 1.377 . S
C796 C795 1.373 . S
C797 C781 1.377 . S
C797 C795 1.389 . S
C797 C798 1.524 . S
C798 C797 1.524 . S
C798 C799 1.397 . S
C798 C803 1.363 . S
C799 H770 0.950 . S
C799 C798 1.397 . S
C799 C800 1.334 . S
C800 H771 0.950 . S
C800 C799 1.334 . S
C800 C801 1.287 . S
C801 C800 1.287 . S
C801 C802 1.524 . S
C801 H804 0.999 . S
C802 H772 0.950 . S
C802 C801 1.524 . S
C802 C803 1.415 . S
C803 H773 0.950 . S
C803 C798 1.363 . S
C803 C802 1.415 . S
H804 C801 0.999 . S
H805 C786 0.913 . S
H806 C824 0.951 . S
H807 C826 0.951 . S
H808 C828 0.950 . S
H809 C829 0.950 . S
H810 C831 0.950 . S
H811 C834 0.950 . S
H812 C835 0.950 . S
H813 C837 0.950 . S
H814 C838 0.950 . S
H815 C839 0.951 . S
H816 C841 0.951 . S
H817 C843 0.950 . S
H818 C844 0.950 . S
H819 C846 0.950 . S
H820 C849 0.950 . S
H821 C850 0.950 . S
H822 C852 0.950 . S
H823 C853 0.950 . S
C824 H806 0.951 . S
C824 C825 1.366 . S
C824 C826 1.388 . S
C825 C824 1.366 . S
C825 C829 1.385 . S
C826 H807 0.951 . S
C826 C824 1.388 . S
C826 C827 1.366 . S
C827 C826 1.366 . S
C827 C828 1.414 . S
C827 C830 1.499 . S
C828 H808 0.950 . S
C828 C827 1.414 . S
C828 C829 1.374 . S
C829 H809 0.950 . S
C829 C825 1.385 . S
C829 C828 1.374 . S
C830 C827 1.499 . S
C830 C831 1.373 . S
C830 C832 1.389 . S
C831 H810 0.950 . S
C831 C830 1.373 . S
C831 C847 1.377 . S
C832 C830 1.389 . S
C832 C833 1.524 . S
C832 C846 1.377 . S
C833 C832 1.524 . S
C833 C834 1.397 . S
C833 C838 1.363 . S
C834 H811 0.950 . S
C834 C833 1.397 . S
C834 C835 1.334 . S
C835 H812 0.950 . S
C835 C834 1.334 . S
C835 C836 1.287 . S
C836 C835 1.287 . S
C836 C837 1.524 . S
C836 H855 0.913 . S
C837 H813 0.950 . S
C837 C836 1.524 . S
C837 C838 1.415 . S
C838 H814 0.950 . S
C838 C833 1.363 . S
C838 C837 1.415 . S
C839 H815 0.951 . S
C839 C840 1.366 . S
C839 C841 1.388 . S
C840 C839 1.366 . S
C840 C844 1.385 . S
C841 H816 0.951 . S
C841 C839 1.388 . S
C841 C842 1.366 . S
C842 C841 1.366 . S
C842 C843 1.414 . S
C842 C845 1.499 . S
C843 H817 0.950 . S
C843 C842 1.414 . S
C843 C844 1.374 . S
C844 H818 0.950 . S
C844 C840 1.385 . S
C844 C843 1.374 . S
C845 C842 1.499 . S
C845 C846 1.373 . S
C845 C847 1.389 . S
C846 H819 0.950 . S
C846 C832 1.377 . S
C846 C845 1.373 . S
C847 C831 1.377 . S
C847 C845 1.389 . S
C847 C848 1.524 . S
C848 C847 1.524 . S
C848 C849 1.397 . S
C848 C853 1.363 . S
C849 H820 0.950 . S
C849 C848 1.397 . S
C849 C850 1.334 . S
C850 H821 0.950 . S
C850 C849 1.334 . S
C850 C851 1.287 . S
C851 C850 1.287 . S
C851 C852 1.524 . S
C851 H854 0.999 . S
C852 H822 0.950 . S
C852 C851 1.524 . S
C852 C853 1.415 . S
C853 H823 0.950 . S
C853 C848 1.363 . S
C853 C852 1.415 . S
H854 C851 0.999 . S
H855 C836 0.913 . S
H856 C874 0.951 . S
H857 C876 0.951 . S
H858 C878 0.950 . S
H859 C879 0.950 . S
H860 C881 0.950 . S
H861 C884 0.950 . S
H862 C885 0.950 . S
H863 C887 0.950 . S
H864 C888 0.950 . S
H865 C889 0.951 . S
H866 C891 0.951 . S
H867 C893 0.950 . S
H868 C894 0.950 . S
H869 C896 0.950 . S
H870 C899 0.950 . S
H871 C900 0.950 . S
H872 C902 0.950 . S
H873 C903 0.950 . S
C874 H856 0.951 . S
C874 C875 1.366 . S
C874 C876 1.388 . S
C875 C874 1.366 . S
C875 C879 1.385 . S
C876 H857 0.951 . S
C876 C874 1.388 . S
C876 C877 1.366 . S
C877 C876 1.366 . S
C877 C878 1.414 . S
C877 C880 1.499 . S
C878 H858 0.950 . S
C878 C877 1.414 . S
C878 C879 1.374 . S
C879 H859 0.950 . S
C879 C875 1.385 . S
C879 C878 1.374 . S
C880 C877 1.499 . S
C880 C881 1.373 . S
C880 C882 1.389 . S
C881 H860 0.950 . S
C881 C880 1.373 . S
C881 C897 1.377 . S
C882 C880 1.389 . S
C882 C883 1.524 . S
C882 C896 1.377 . S
C883 C882 1.524 . S
C883 C884 1.397 . S
C883 C888 1.363 . S
C884 H861 0.950 . S
C884 C883 1.397 . S
C884 C885 1.334 . S
C885 H862 0.950 . S
C885 C884 1.334 . S
C885 C886 1.287 . S
C886 C885 1.287 . S
C886 C887 1.524 . S
C886 H905 0.913 . S
C887 H863 0.950 . S
C887 C886 1.524 . S
C887 C888 1.415 . S
C888 H864 0.950 . S
C888 C883 1.363 . S
C888 C887 1.415 . S
C889 H865 0.951 . S
C889 C890 1.366 . S
C889 C891 1.388 . S
C890 C889 1.366 . S
C890 C894 1.385 . S
C891 H866 0.951 . S
C891 C889 1.388 . S
C891 C892 1.366 . S
C892 C891 1.366 . S
C892 C893 1.414 . S
C892 C895 1.499 . S
C893 H867 0.950 . S
C893 C892 1.414 . S
C893 C894 1.374 . S
C894 H868 0.950 . S
C894 C890 1.385 . S
C894 C893 1.374 . S
C895 C892 1.499 . S
C895 C896 1.373 . S
C895 C897 1.389 . S
C896 H869 0.950 . S
C896 C882 1.377 . S
C896 C895 1.373 . S
C897 C881 1.377 . S
C897 C895 1.389 . S
C897 C898 1.524 . S
C898 C897 1.524 . S
C898 C899 1.397 . S
C898 C903 1.363 . S
C899 H870 0.950 . S
C899 C898 1.397 . S
C899 C900 1.334 . S
C900 H871 0.950 . S
C900 C899 1.334 . S
C900 C901 1.287 . S
C901 C900 1.287 . S
C901 C902 1.524 . S
C901 H904 0.999 . S
C902 H872 0.950 . S
C902 C901 1.524 . S
C902 C903 1.415 . S
C903 H873 0.950 . S
C903 C898 1.363 . S
C903 C902 1.415 . S
H904 C901 0.999 . S
H905 C886 0.913 . S
H906 C924 0.951 . S
H907 C926 0.951 . S
H908 C928 0.950 . S
H909 C929 0.950 . S
H910 C931 0.950 . S
H911 C934 0.950 . S
H912 C935 0.950 . S
H913 C937 0.950 . S
H914 C938 0.950 . S
H915 C939 0.951 . S
H916 C941 0.951 . S
H917 C943 0.950 . S
H918 C944 0.950 . S
H919 C946 0.950 . S
H920 C949 0.950 . S
H921 C950 0.950 . S
H922 C952 0.950 . S
H923 C953 0.950 . S
C924 H906 0.951 . S
C924 C925 1.366 . S
C924 C926 1.388 . S
C925 C924 1.366 . S
C925 C929 1.385 . S
C926 H907 0.951 . S
C926 C924 1.388 . S
C926 C927 1.366 . S
C927 C926 1.366 . S
C927 C928 1.414 . S
C927 C930 1.499 . S
C928 H908 0.950 . S
C928 C927 1.414 . S
C928 C929 1.374 . S
C929 H909 0.950 . S
C929 C925 1.385 . S
C929 C928 1.374 . S
C930 C927 1.499 . S
C930 C931 1.373 . S
C930 C932 1.389 . S
C931 H910 0.950 . S
C931 C930 1.373 . S
C931 C947 1.377 . S
C932 C930 1.389 . S
C932 C933 1.524 . S
C932 C946 1.377 . S
C933 C932 1.524 . S
C933 C934 1.397 . S
C933 C938 1.363 . S
C934 H911 0.950 . S
C934 C933 1.397 . S
C934 C935 1.334 . S
C935 H912 0.950 . S
C935 C934 1.334 . S
C935 C936 1.287 . S
C936 C935 1.287 . S
C936 C937 1.524 . S
C936 H955 0.913 . S
C937 H913 0.950 . S
C937 C936 1.524 . S
C937 C938 1.415 . S
C938 H914 0.950 . S
C938 C933 1.363 . S
C938 C937 1.415 . S
C939 H915 0.951 . S
C939 C940 1.366 . S
C939 C941 1.388 . S
C940 C939 1.366 . S
C940 C944 1.385 . S
C941 H916 0.951 . S
C941 C939 1.388 . S
C941 C942 1.366 . S
C942 C941 1.366 . S
C942 C943 1.414 . S
C942 C945 1.499 . S
C943 H917 0.950 . S
C943 C942 1.414 . S
C943 C944 1.374 . S
C944 H918 0.950 . S
C944 C940 1.385 . S
C944 C943 1.374 . S
C945 C942 1.499 . S
C945 C946 1.373 . S
C945 C947 1.389 . S
C946 H919 0.950 . S
C946 C932 1.377 . S
C946 C945 1.373 . S
C947 C931 1.377 . S
C947 C945 1.389 . S
C947 C948 1.524 . S
C948 C947 1.524 . S
C948 C949 1.397 . S
C948 C953 1.363 . S
C949 H920 0.950 . S
C949 C948 1.397 . S
C949 C950 1.334 . S
C950 H921 0.950 . S
C950 C949 1.334 . S
C950 C951 1.287 . S
C951 C950 1.287 . S
C951 C952 1.524 . S
C951 H954 0.999 . S
C952 H922 0.950 . S
C952 C951 1.524 . S
C952 C953 1.415 . S
C953 H923 0.950 . S
C953 C948 1.363 . S
C953 C952 1.415 . S
H954 C951 0.999 . S
H955 C936 0.913 . S
H956 C974 0.951 . S
H957 C976 0.951 . S
H958 C978 0.950 . S
H959 C979 0.950 . S
H960 C981 0.950 . S
H961 C984 0.950 . S
H962 C985 0.950 . S
H963 C987 0.950 . S
H964 C988 0.950 . S
H965 C989 0.951 . S
H966 C991 0.951 . S
H967 C993 0.950 . S
H968 C994 0.950 . S
H969 C996 0.950 . S
H970 C999 0.950 . S
H971 C1000 0.950 . S
H972 C1002 0.950 . S
H973 C1003 0.950 . S
C974 H956 0.951 . S
C974 C975 1.366 . S
C974 C976 1.388 . S
C975 C974 1.366 . S
C975 C979 1.385 . S
C976 H957 0.951 . S
C976 C974 1.388 . S
C976 C977 1.366 . S
C977 C976 1.366 . S
C977 C978 1.414 . S
C977 C980 1.499 . S
C978 H958 0.950 . S
C978 C977 1.414 . S
C978 C979 1.374 . S
C979 H959 0.950 . S
C979 C975 1.385 . S
C979 C978 1.374 . S
C980 C977 1.499 . S
C980 C981 1.373 . S
C980 C982 1.389 . S
C981 H960 0.950 . S
C981 C980 1.373 . S
C981 C997 1.377 . S
C982 C980 1.389 . S
C982 C983 1.524 . S
C982 C996 1.377 . S
C983 C982 1.524 . S
C983 C984 1.397 . S
C983 C988 1.363 . S
C984 H961 0.950 . S
C984 C983 1.397 . S
C984 C985 1.334 . S
C985 H962 0.950 . S
C985 C984 1.334 . S
C985 C986 1.287 . S
C986 C985 1.287 . S
C986 C987 1.524 . S
C986 H1005 0.913 . S
C987 H963 0.950 . S
C987 C986 1.524 . S
C987 C988 1.415 . S
C988 H964 0.950 . S
C988 C983 1.363 . S
C988 C987 1.415 . S
C989 H965 0.951 . S
C989 C990 1.366 . S
C989 C991 1.388 . S
C990 C989 1.366 . S
C990 C994 1.385 . S
C991 H966 0.951 . S
C991 C989 1.388 . S
C991 C992 1.366 . S
C992 C991 1.366 . S
C992 C993 1.414 . S
C992 C995 1.499 . S
C993 H967 0.950 . S
C993 C992 1.414 . S
C993 C994 1.374 . S
C994 H968 0.950 . S
C994 C990 1.385 . S
C994 C993 1.374 . S
C995 C992 1.499 . S
C995 C996 1.373 . S
C995 C997 1.389 . S
C996 H969 0.950 . S
C996 C982 1.377 . S
C996 C995 1.373 . S
C997 C981 1.377 . S
C997 C995 1.389 . S
C997 C998 1.524 . S
C998 C997 1.524 . S
C998 C999 1.397 . S
C998 C1003 1.363 . S
C999 H970 0.950 . S
C999 C998 1.397 . S
C999 C1000 1.334 . S
C1000 H971 0.950 . S
C1000 C999 1.334 . S
C1000 C1001 1.287 . S
C1001 C1000 1.287 . S
C1001 C1002 1.524 . S
C1001 H1004 0.999 . S
C1002 H972 0.950 . S
C1002 C1001 1.524 . S
C1002 C1003 1.415 . S
C1003 H973 0.950 . S
C1003 C998 1.363 . S
C1003 C1002 1.415 . S
H1004 C1001 0.999 . S
H1005 C986 0.913 . S
H1006 C1024 0.951 . S
H1007 C1026 0.951 . S
H1008 C1028 0.950 . S
H1009 C1029 0.950 . S
H1010 C1031 0.950 . S
H1011 C1034 0.950 . S
H1012 C1035 0.950 . S
H1013 C1037 0.950 . S
H1014 C1038 0.950 . S
H1015 C1039 0.951 . S
H1016 C1041 0.951 . S
H1017 C1043 0.950 . S
H1018 C1044 0.950 . S
H1019 C1046 0.950 . S
H1020 C1049 0.950 . S
H1021 C1050 0.950 . S
H1022 C1052 0.950 . S
H1023 C1053 0.950 . S
C1024 H1006 0.951 . S
C1024 C1025 1.366 . S
C1024 C1026 1.388 . S
C1025 C1024 1.366 . S
C1025 C1029 1.385 . S
C1026 H1007 0.951 . S
C1026 C1024 1.388 . S
C1026 C1027 1.366 . S
C1027 C1026 1.366 . S
C1027 C1028 1.414 . S
C1027 C1030 1.499 . S
C1028 H1008 0.950 . S
C1028 C1027 1.414 . S
C1028 C1029 1.374 . S
C1029 H1009 0.950 . S
C1029 C1025 1.385 . S
C1029 C1028 1.374 . S
C1030 C1027 1.499 . S
C1030 C1031 1.373 . S
C1030 C1032 1.389 . S
C1031 H1010 0.950 . S
C1031 C1030 1.373 . S
C1031 C1047 1.377 . S
C1032 C1030 1.389 . S
C1032 C1033 1.524 . S
C1032 C1046 1.377 . S
C1033 C1032 1.524 . S
C1033 C1034 1.397 . S
C1033 C1038 1.363 . S
C1034 H1011 0.950 . S
C1034 C1033 1.397 . S
C1034 C1035 1.334 . S
C1035 H1012 0.950 . S
C1035 C1034 1.334 . S
C1035 C1036 1.287 . S
C1036 C1035 1.287 . S
C1036 C1037 1.524 . S
C1036 H1055 0.913 . S
C1037 H1013 0.950 . S
C1037 C1036 1.524 . S
C1037 C1038 1.415 . S
C1038 H1014 0.950 . S
C1038 C1033 1.363 . S
C1038 C1037 1.415 . S
C1039 H1015 0.951 . S
C1039 C1040 1.366 . S
C1039 C1041 1.388 . S
C1040 C1039 1.366 . S
C1040 C1044 1.385 . S
C1041 H1016 0.951 . S
C1041 C1039 1.388 . S
C1041 C1042 1.366 . S
C1042 C1041 1.366 . S
C1042 C1043 1.414 . S
C1042 C1045 1.499 . S
C1043 H1017 0.950 . S
C1043 C1042 1.414 . S
C1043 C1044 1.374 . S
C1044 H1018 0.950 . S
C1044 C1040 1.385 . S
C1044 C1043 1.374 . S
C1045 C1042 1.499 . S
C1045 C1046 1.373 . S
C1045 C1047 1.389 . S
C1046 H1019 0.950 . S
C1046 C1032 1.377 . S
C1046 C1045 1.373 . S
C1047 C1031 1.377 . S
C1047 C1045 1.389 . S
C1047 C1048 1.524 . S
C1048 C1047 1.524 . S
C1048 C1049 1.397 . S
C1048 C1053 1.363 . S
C1049 H1020 0.950 . S
C1049 C1048 1.397 . S
C1049 C1050 1.334 . S
C1050 H1021 0.950 . S
C1050 C1049 1.334 . S
C1050 C1051 1.287 . S
C1051 C1050 1.287 . S
C1051 C1052 1.524 . S
C1051 H1054 0.999 . S
C1052 H1022 0.950 . S
C1052 C1051 1.524 . S
C1052 C1053 1.415 . S
C1053 H1023 0.950 . S
C1053 C1048 1.363 . S
C1053 C1052 1.415 . S
H1054 C1051 0.999 . S
H1055 C1036 0.913 . S
H1056 C1074 0.951 . S
H1057 C1076 0.951 . S
H1058 C1078 0.950 . S
H1059 C1079 0.950 . S
H1060 C1081 0.950 . S
H1061 C1084 0.950 . S
H1062 C1085 0.950 . S
H1063 C1087 0.950 . S
H1064 C1088 0.950 . S
H1065 C1089 0.951 . S
H1066 C1091 0.951 . S
H1067 C1093 0.950 . S
H1068 C1094 0.950 . S
H1069 C1096 0.950 . S
H1070 C1099 0.950 . S
H1071 C1100 0.950 . S
H1072 C1102 0.950 . S
H1073 C1103 0.950 . S
C1074 H1056 0.951 . S
C1074 C1075 1.366 . S
C1074 C1076 1.388 . S
C1075 C1074 1.366 . S
C1075 C1079 1.385 . S
C1076 H1057 0.951 . S
C1076 C1074 1.388 . S
C1076 C1077 1.366 . S
C1077 C1076 1.366 . S
C1077 C1078 1.414 . S
C1077 C1080 1.499 . S
C1078 H1058 0.950 . S
C1078 C1077 1.414 . S
C1078 C1079 1.374 . S
C1079 H1059 0.950 . S
C1079 C1075 1.385 . S
C1079 C1078 1.374 . S
C1080 C1077 1.499 . S
C1080 C1081 1.373 . S
C1080 C1082 1.389 . S
C1081 H1060 0.950 . S
C1081 C1080 1.373 . S
C1081 C1097 1.377 . S
C1082 C1080 1.389 . S
C1082 C1083 1.524 . S
C1082 C1096 1.377 . S
C1083 C1082 1.524 . S
C1083 C1084 1.397 . S
C1083 C1088 1.363 . S
C1084 H1061 0.950 . S
C1084 C1083 1.397 . S
C1084 C1085 1.334 . S
C1085 H1062 0.950 . S
C1085 C1084 1.334 . S
C1085 C1086 1.287 . S
C1086 C1085 1.287 . S
C1086 C1087 1.524 . S
C1086 H1105 0.913 . S
C1087 H1063 0.950 . S
C1087 C1086 1.524 . S
C1087 C1088 1.415 . S
C1088 H1064 0.950 . S
C1088 C1083 1.363 . S
C1088 C1087 1.415 . S
C1089 H1065 0.951 . S
C1089 C1090 1.366 . S
C1089 C1091 1.388 . S
C1090 C1089 1.366 . S
C1090 C1094 1.385 . S
C1091 H1066 0.951 . S
C1091 C1089 1.388 . S
C1091 C1092 1.366 . S
C1092 C1091 1.366 . S
C1092 C1093 1.414 . S
C1092 C1095 1.499 . S
C1093 H1067 0.950 . S
C1093 C1092 1.414 . S
C1093 C1094 1.374 . S
C1094 H1068 0.950 . S
C1094 C1090 1.385 . S
C1094 C1093 1.374 . S
C1095 C1092 1.499 . S
C1095 C1096 1.373 . S
C1095 C1097 1.389 . S
C1096 H1069 0.950 . S
C1096 C1082 1.377 . S
C1096 C1095 1.373 . S
C1097 C1081 1.377 . S
C1097 C1095 1.389 . S
C1097 C1098 1.524 . S
C1098 C1097 1.524 . S
C1098 C1099 1.397 . S
C1098 C1103 1.363 . S
C1099 H1070 0.950 . S
C1099 C1098 1.397 . S
C1099 C1100 1.334 . S
C1100 H1071 0.950 . S
C1100 C1099 1.334 . S
C1100 C1101 1.287 . S
C1101 C1100 1.287 . S
C1101 C1102 1.524 . S
C1101 H1104 0.999 . S
C1102 H1072 0.950 . S
C1102 C1101 1.524 . S
C1102 C1103 1.415 . S
C1103 H1073 0.950 . S
C1103 C1098 1.363 . S
C1103 C1102 1.415 . S
H1104 C1101 0.999 . S
H1105 C1086 0.913 . S
H1106 C1124 0.951 . S
H1107 C1126 0.951 . S
H1108 C1128 0.950 . S
H1109 C1129 0.950 . S
H1110 C1131 0.950 . S
H1111 C1134 0.950 1_655 S
H1112 C1135 0.950 . S
H1113 C1137 0.950 . S
H1114 C1138 0.950 . S
H1115 C1139 0.951 . S
H1116 C1141 0.951 . S
H1117 C1143 0.950 . S
H1118 C1144 0.950 . S
H1119 C1146 0.950 . S
H1120 C1149 0.950 . S
H1121 C1150 0.950 . S
H1122 C1152 0.950 . S
H1123 C1153 0.950 . S
C1124 H1106 0.951 . S
C1124 C1125 1.366 . S
C1124 C1126 1.388 . S
C1125 C1124 1.366 . S
C1125 C1129 1.385 . S
C1126 H1107 0.951 . S
C1126 C1124 1.388 . S
C1126 C1127 1.366 . S
C1127 C1126 1.366 . S
C1127 C1128 1.414 . S
C1127 C1130 1.499 . S
C1128 H1108 0.950 . S
C1128 C1127 1.414 . S
C1128 C1129 1.374 . S
C1129 H1109 0.950 . S
C1129 C1125 1.385 . S
C1129 C1128 1.374 . S
C1130 C1127 1.499 . S
C1130 C1131 1.373 . S
C1130 C1132 1.389 . S
C1131 H1110 0.950 . S
C1131 C1130 1.373 . S
C1131 C1147 1.377 . S
C1132 C1130 1.389 . S
C1132 C1133 1.524 . S
C1132 C1146 1.377 . S
C1133 C1132 1.524 . S
C1133 C1134 1.397 1_655 S
C1133 C1138 1.363 1_655 S
C1134 H1111 0.950 1_455 S
C1134 C1133 1.397 1_455 S
C1134 C1135 1.334 . S
C1135 H1112 0.950 . S
C1135 C1134 1.334 . S
C1135 C1136 1.287 . S
C1136 C1135 1.287 . S
C1136 C1137 1.524 . S
C1136 H1155 0.913 . S
C1137 H1113 0.950 . S
C1137 C1136 1.524 . S
C1137 C1138 1.415 . S
C1138 H1114 0.950 . S
C1138 C1133 1.363 1_455 S
C1138 C1137 1.415 . S
C1139 H1115 0.951 . S
C1139 C1140 1.366 . S
C1139 C1141 1.388 . S
C1140 C1139 1.366 . S
C1140 C1144 1.385 . S
C1141 H1116 0.951 . S
C1141 C1139 1.388 . S
C1141 C1142 1.366 . S
C1142 C1141 1.366 . S
C1142 C1143 1.414 . S
C1142 C1145 1.499 . S
C1143 H1117 0.950 . S
C1143 C1142 1.414 . S
C1143 C1144 1.374 . S
C1144 H1118 0.950 . S
C1144 C1140 1.385 . S
C1144 C1143 1.374 . S
C1145 C1142 1.499 . S
C1145 C1146 1.373 . S
C1145 C1147 1.389 . S
C1146 H1119 0.950 . S
C1146 C1132 1.377 . S
C1146 C1145 1.373 . S
C1147 C1131 1.377 . S
C1147 C1145 1.389 . S
C1147 C1148 1.524 . S
C1148 C1147 1.524 . S
C1148 C1149 1.397 . S
C1148 C1153 1.363 . S
C1149 H1120 0.950 . S
C1149 C1148 1.397 . S
C1149 C1150 1.334 . S
C1150 H1121 0.950 . S
C1150 C1149 1.334 . S
C1150 C1151 1.287 . S
C1151 C1150 1.287 . S
C1151 C1152 1.524 . S
C1151 H1154 0.999 . S
C1152 H1122 0.950 . S
C1152 C1151 1.524 . S
C1152 C1153 1.415 . S
C1153 H1123 0.950 . S
C1153 C1148 1.363 . S
C1153 C1152 1.415 . S
H1154 C1151 0.999 . S
H1155 C1136 0.913 . S
H1156 C1174 0.951 . S
H1157 C1176 0.951 . S
H1158 C1178 0.950 . S
H1159 C1179 0.950 . S
H1160 C1181 0.950 . S
H1161 C1184 0.950 . S
H1162 C1185 0.950 . S
H1163 C1187 0.950 . S
H1164 C1188 0.950 . S
H1165 C1189 0.951 . S
H1166 C1191 0.951 . S
H1167 C1193 0.950 . S
H1168 C1194 0.950 . S
H1169 C1196 0.950 . S
H1170 C1199 0.950 . S
H1171 C1200 0.950 . S
H1172 C1202 0.950 . S
H1173 C1203 0.950 . S
C1174 H1156 0.951 . S
C1174 C1175 1.366 . S
C1174 C1176 1.388 . S
C1175 C1174 1.366 . S
C1175 C1179 1.385 . S
C1176 H1157 0.951 . S
C1176 C1174 1.388 . S
C1176 C1177 1.366 . S
C1177 C1176 1.366 . S
C1177 C1178 1.414 . S
C1177 C1180 1.499 . S
C1178 H1158 0.950 . S
C1178 C1177 1.414 . S
C1178 C1179 1.374 . S
C1179 H1159 0.950 . S
C1179 C1175 1.385 . S
C1179 C1178 1.374 . S
C1180 C1177 1.499 . S
C1180 C1181 1.373 . S
C1180 C1182 1.389 . S
C1181 H1160 0.950 . S
C1181 C1180 1.373 . S
C1181 C1197 1.377 . S
C1182 C1180 1.389 . S
C1182 C1183 1.524 . S
C1182 C1196 1.377 . S
C1183 C1182 1.524 . S
C1183 C1184 1.397 . S
C1183 C1188 1.363 . S
C1184 H1161 0.950 . S
C1184 C1183 1.397 . S
C1184 C1185 1.334 . S
C1185 H1162 0.950 . S
C1185 C1184 1.334 . S
C1185 C1186 1.287 . S
C1186 C1185 1.287 . S
C1186 C1187 1.524 . S
C1186 H1205 0.913 . S
C1187 H1163 0.950 . S
C1187 C1186 1.524 . S
C1187 C1188 1.415 . S
C1188 H1164 0.950 . S
C1188 C1183 1.363 . S
C1188 C1187 1.415 . S
C1189 H1165 0.951 . S
C1189 C1190 1.366 . S
C1189 C1191 1.388 . S
C1190 C1189 1.366 . S
C1190 C1194 1.385 . S
C1191 H1166 0.951 . S
C1191 C1189 1.388 . S
C1191 C1192 1.366 . S
C1192 C1191 1.366 . S
C1192 C1193 1.414 . S
C1192 C1195 1.499 . S
C1193 H1167 0.950 . S
C1193 C1192 1.414 . S
C1193 C1194 1.374 . S
C1194 H1168 0.950 . S
C1194 C1190 1.385 . S
C1194 C1193 1.374 . S
C1195 C1192 1.499 . S
C1195 C1196 1.373 . S
C1195 C1197 1.389 . S
C1196 H1169 0.950 . S
C1196 C1182 1.377 . S
C1196 C1195 1.373 . S
C1197 C1181 1.377 . S
C1197 C1195 1.389 . S
C1197 C1198 1.524 . S
C1198 C1197 1.524 . S
C1198 C1199 1.397 . S
C1198 C1203 1.363 . S
C1199 H1170 0.950 . S
C1199 C1198 1.397 . S
C1199 C1200 1.334 . S
C1200 H1171 0.950 . S
C1200 C1199 1.334 . S
C1200 C1201 1.287 . S
C1201 C1200 1.287 . S
C1201 C1202 1.524 . S
C1201 H1204 0.999 . S
C1202 H1172 0.950 . S
C1202 C1201 1.524 . S
C1202 C1203 1.415 . S
C1203 H1173 0.950 . S
C1203 C1198 1.363 . S
C1203 C1202 1.415 . S
H1204 C1201 0.999 . S
H1205 C1186 0.913 . S
H1206 C1224 0.951 . S
H1207 C1226 0.951 . S
H1208 C1228 0.950 . S
H1209 C1229 0.950 . S
H1210 C1231 0.950 . S
H1211 C1234 0.950 . S
H1212 C1235 0.950 . S
H1213 C1237 0.950 . S
H1214 C1238 0.950 . S
H1215 C1239 0.951 . S
H1216 C1241 0.951 . S
H1217 C1243 0.950 . S
H1218 C1244 0.950 . S
H1219 C1246 0.950 . S
H1220 C1249 0.950 . S
H1221 C1250 0.950 . S
H1222 C1252 0.950 . S
H1223 C1253 0.950 . S
C1224 H1206 0.951 . S
C1224 C1225 1.366 . S
C1224 C1226 1.388 . S
C1225 C1224 1.366 . S
C1225 C1229 1.385 . S
C1226 H1207 0.951 . S
C1226 C1224 1.388 . S
C1226 C1227 1.366 . S
C1227 C1226 1.366 . S
C1227 C1228 1.414 . S
C1227 C1230 1.499 . S
C1228 H1208 0.950 . S
C1228 C1227 1.414 . S
C1228 C1229 1.374 . S
C1229 H1209 0.950 . S
C1229 C1225 1.385 . S
C1229 C1228 1.374 . S
C1230 C1227 1.499 . S
C1230 C1231 1.373 . S
C1230 C1232 1.389 . S
C1231 H1210 0.950 . S
C1231 C1230 1.373 . S
C1231 C1247 1.377 . S
C1232 C1230 1.389 . S
C1232 C1233 1.524 . S
C1232 C1246 1.377 . S
C1233 C1232 1.524 . S
C1233 C1234 1.397 . S
C1233 C1238 1.363 . S
C1234 H1211 0.950 . S
C1234 C1233 1.397 . S
C1234 C1235 1.334 . S
C1235 H1212 0.950 . S
C1235 C1234 1.334 . S
C1235 C1236 1.287 . S
C1236 C1235 1.287 . S
C1236 C1237 1.524 . S
C1236 H1255 0.913 . S
C1237 H1213 0.950 . S
C1237 C1236 1.524 . S
C1237 C1238 1.415 . S
C1238 H1214 0.950 . S
C1238 C1233 1.363 . S
C1238 C1237 1.415 . S
C1239 H1215 0.951 . S
C1239 C1240 1.366 . S
C1239 C1241 1.388 . S
C1240 C1239 1.366 . S
C1240 C1244 1.385 . S
C1241 H1216 0.951 . S
C1241 C1239 1.388 . S
C1241 C1242 1.366 . S
C1242 C1241 1.366 . S
C1242 C1243 1.414 . S
C1242 C1245 1.499 . S
C1243 H1217 0.950 . S
C1243 C1242 1.414 . S
C1243 C1244 1.374 . S
C1244 H1218 0.950 . S
C1244 C1240 1.385 . S
C1244 C1243 1.374 . S
C1245 C1242 1.499 . S
C1245 C1246 1.373 . S
C1245 C1247 1.389 . S
C1246 H1219 0.950 . S
C1246 C1232 1.377 . S
C1246 C1245 1.373 . S
C1247 C1231 1.377 . S
C1247 C1245 1.389 . S
C1247 C1248 1.524 . S
C1248 C1247 1.524 . S
C1248 C1249 1.397 . S
C1248 C1253 1.363 . S
C1249 H1220 0.950 . S
C1249 C1248 1.397 . S
C1249 C1250 1.334 . S
C1250 H1221 0.950 . S
C1250 C1249 1.334 . S
C1250 C1251 1.287 . S
C1251 C1250 1.287 . S
C1251 C1252 1.524 . S
C1251 H1254 0.999 . S
C1252 H1222 0.950 . S
C1252 C1251 1.524 . S
C1252 C1253 1.415 . S
C1253 H1223 0.950 . S
C1253 C1248 1.363 . S
C1253 C1252 1.415 . S
H1254 C1251 0.999 . S
H1255 C1236 0.913 . S
H1256 C1274 0.951 . S
H1257 C1276 0.951 . S
H1258 C1278 0.950 . S
H1259 C1279 0.950 . S
H1260 C1281 0.950 . S
H1261 C1284 0.950 . S
H1262 C1285 0.950 . S
H1263 C1287 0.950 . S
H1264 C1288 0.950 . S
H1265 C1289 0.951 . S
H1266 C1291 0.951 . S
H1267 C1293 0.950 . S
H1268 C1294 0.950 . S
H1269 C1296 0.950 . S
H1270 C1299 0.950 . S
H1271 C1300 0.950 . S
H1272 C1302 0.950 . S
H1273 C1303 0.950 . S
C1274 H1256 0.951 . S
C1274 C1275 1.366 . S
C1274 C1276 1.388 . S
C1275 C1274 1.366 . S
C1275 C1279 1.385 . S
C1276 H1257 0.951 . S
C1276 C1274 1.388 . S
C1276 C1277 1.366 . S
C1277 C1276 1.366 . S
C1277 C1278 1.414 . S
C1277 C1280 1.499 . S
C1278 H1258 0.950 . S
C1278 C1277 1.414 . S
C1278 C1279 1.374 . S
C1279 H1259 0.950 . S
C1279 C1275 1.385 . S
C1279 C1278 1.374 . S
C1280 C1277 1.499 . S
C1280 C1281 1.373 . S
C1280 C1282 1.389 . S
C1281 H1260 0.950 . S
C1281 C1280 1.373 . S
C1281 C1297 1.377 . S
C1282 C1280 1.389 . S
C1282 C1283 1.524 . S
C1282 C1296 1.377 . S
C1283 C1282 1.524 . S
C1283 C1284 1.397 . S
C1283 C1288 1.363 . S
C1284 H1261 0.950 . S
C1284 C1283 1.397 . S
C1284 C1285 1.334 . S
C1285 H1262 0.950 . S
C1285 C1284 1.334 . S
C1285 C1286 1.287 . S
C1286 C1285 1.287 . S
C1286 C1287 1.524 . S
C1286 H1305 0.913 . S
C1287 H1263 0.950 . S
C1287 C1286 1.524 . S
C1287 C1288 1.415 . S
C1288 H1264 0.950 . S
C1288 C1283 1.363 . S
C1288 C1287 1.415 . S
C1289 H1265 0.951 . S
C1289 C1290 1.366 . S
C1289 C1291 1.388 . S
C1290 C1289 1.366 . S
C1290 C1294 1.385 . S
C1291 H1266 0.951 . S
C1291 C1289 1.388 . S
C1291 C1292 1.366 . S
C1292 C1291 1.366 . S
C1292 C1293 1.414 . S
C1292 C1295 1.499 . S
C1293 H1267 0.950 . S
C1293 C1292 1.414 . S
C1293 C1294 1.374 . S
C1294 H1268 0.950 . S
C1294 C1290 1.385 . S
C1294 C1293 1.374 . S
C1295 C1292 1.499 . S
C1295 C1296 1.373 . S
C1295 C1297 1.389 . S
C1296 H1269 0.950 . S
C1296 C1282 1.377 . S
C1296 C1295 1.373 . S
C1297 C1281 1.377 . S
C1297 C1295 1.389 . S
C1297 C1298 1.524 . S
C1298 C1297 1.524 . S
C1298 C1299 1.397 . S
C1298 C1303 1.363 . S
C1299 H1270 0.950 . S
C1299 C1298 1.397 . S
C1299 C1300 1.334 1_556 S
C1300 H1271 0.950 . S
C1300 C1299 1.334 1_554 S
C1300 C1301 1.287 . S
C1301 C1300 1.287 . S
C1301 C1302 1.524 . S
C1301 H1304 0.999 . S
C1302 H1272 0.950 . S
C1302 C1301 1.524 . S
C1302 C1303 1.415 1_554 S
C1303 H1273 0.950 . S
C1303 C1298 1.363 . S
C1303 C1302 1.415 1_556 S
H1304 C1301 0.999 . S
H1305 C1286 0.913 . S
H1306 C1324 0.951 . S
H1307 C1326 0.951 . S
H1308 C1328 0.950 . S
H1309 C1329 0.950 . S
H1310 C1331 0.950 . S
H1311 C1334 0.950 . S
H1312 C1335 0.950 . S
H1313 C1337 0.950 . S
H1314 C1338 0.950 . S
H1315 C1339 0.951 . S
H1316 C1341 0.951 . S
H1317 C1343 0.950 . S
H1318 C1344 0.950 . S
H1319 C1346 0.950 . S
H1320 C1349 0.950 . S
H1321 C1350 0.950 . S
H1322 C1352 0.950 . S
H1323 C1353 0.950 . S
C1324 H1306 0.951 . S
C1324 C1325 1.366 . S
C1324 C1326 1.388 . S
C1325 C1324 1.366 . S
C1325 C1329 1.385 . S
C1326 H1307 0.951 . S
C1326 C1324 1.388 . S
C1326 C1327 1.366 . S
C1327 C1326 1.366 . S
C1327 C1328 1.414 . S
C1327 C1330 1.499 . S
C1328 H1308 0.950 . S
C1328 C1327 1.414 . S
C1328 C1329 1.374 . S
C1329 H1309 0.950 . S
C1329 C1325 1.385 . S
C1329 C1328 1.374 . S
C1330 C1327 1.499 . S
C1330 C1331 1.373 . S
C1330 C1332 1.389 . S
C1331 H1310 0.950 . S
C1331 C1330 1.373 . S
C1331 C1347 1.377 . S
C1332 C1330 1.389 . S
C1332 C1333 1.524 . S
C1332 C1346 1.377 . S
C1333 C1332 1.524 . S
C1333 C1334 1.397 . S
C1333 C1338 1.363 . S
C1334 H1311 0.950 . S
C1334 C1333 1.397 . S
C1334 C1335 1.334 . S
C1335 H1312 0.950 . S
C1335 C1334 1.334 . S
C1335 C1336 1.287 . S
C1336 C1335 1.287 . S
C1336 C1337 1.524 . S
C1336 H1355 0.913 . S
C1337 H1313 0.950 . S
C1337 C1336 1.524 . S
C1337 C1338 1.415 . S
C1338 H1314 0.950 . S
C1338 C1333 1.363 . S
C1338 C1337 1.415 . S
C1339 H1315 0.951 . S
C1339 C1340 1.366 . S
C1339 C1341 1.388 . S
C1340 C1339 1.366 . S
C1340 C1344 1.385 . S
C1341 H1316 0.951 . S
C1341 C1339 1.388 . S
C1341 C1342 1.366 . S
C1342 C1341 1.366 . S
C1342 C1343 1.414 . S
C1342 C1345 1.499 . S
C1343 H1317 0.950 . S
C1343 C1342 1.414 . S
C1343 C1344 1.374 . S
C1344 H1318 0.950 . S
C1344 C1340 1.385 . S
C1344 C1343 1.374 . S
C1345 C1342 1.499 . S
C1345 C1346 1.373 . S
C1345 C1347 1.389 . S
C1346 H1319 0.950 . S
C1346 C1332 1.377 . S
C1346 C1345 1.373 . S
C1347 C1331 1.377 . S
C1347 C1345 1.389 . S
C1347 C1348 1.524 . S
C1348 C1347 1.524 . S
C1348 C1349 1.397 . S
C1348 C1353 1.363 . S
C1349 H1320 0.950 . S
C1349 C1348 1.397 . S
C1349 C1350 1.334 . S
C1350 H1321 0.950 . S
C1350 C1349 1.334 . S
C1350 C1351 1.287 . S
C1351 C1350 1.287 . S
C1351 C1352 1.524 . S
C1351 H1354 0.999 . S
C1352 H1322 0.950 . S
C1352 C1351 1.524 . S
C1352 C1353 1.415 . S
C1353 H1323 0.950 . S
C1353 C1348 1.363 . S
C1353 C1352 1.415 . S
H1354 C1351 0.999 . S
H1355 C1336 0.913 . S
H1356 C1374 0.951 . S
H1357 C1376 0.951 . S
H1358 C1378 0.950 . S
H1359 C1379 0.950 . S
H1360 C1381 0.950 . S
H1361 C1384 0.950 . S
H1362 C1385 0.950 . S
H1363 C1387 0.950 . S
H1364 C1388 0.950 . S
H1365 C1389 0.951 . S
H1366 C1391 0.951 . S
H1367 C1393 0.950 . S
H1368 C1394 0.950 . S
H1369 C1396 0.950 . S
H1370 C1399 0.950 . S
H1371 C1400 0.950 . S
H1372 C1402 0.950 . S
H1373 C1403 0.950 . S
C1374 H1356 0.951 . S
C1374 C1375 1.366 . S
C1374 C1376 1.388 . S
C1375 C1374 1.366 . S
C1375 C1379 1.385 . S
C1376 H1357 0.951 . S
C1376 C1374 1.388 . S
C1376 C1377 1.366 . S
C1377 C1376 1.366 . S
C1377 C1378 1.414 . S
C1377 C1380 1.499 . S
C1378 H1358 0.950 . S
C1378 C1377 1.414 . S
C1378 C1379 1.374 . S
C1379 H1359 0.950 . S
C1379 C1375 1.385 . S
C1379 C1378 1.374 . S
C1380 C1377 1.499 . S
C1380 C1381 1.373 . S
C1380 C1382 1.389 . S
C1381 H1360 0.950 . S
C1381 C1380 1.373 . S
C1381 C1397 1.377 . S
C1382 C1380 1.389 . S
C1382 C1383 1.524 . S
C1382 C1396 1.377 . S
C1383 C1382 1.524 . S
C1383 C1384 1.397 . S
C1383 C1388 1.363 . S
C1384 H1361 0.950 . S
C1384 C1383 1.397 . S
C1384 C1385 1.334 . S
C1385 H1362 0.950 . S
C1385 C1384 1.334 . S
C1385 C1386 1.287 . S
C1386 C1385 1.287 . S
C1386 C1387 1.524 . S
C1386 H1405 0.913 . S
C1387 H1363 0.950 . S
C1387 C1386 1.524 . S
C1387 C1388 1.415 . S
C1388 H1364 0.950 . S
C1388 C1383 1.363 . S
C1388 C1387 1.415 . S
C1389 H1365 0.951 . S
C1389 C1390 1.366 . S
C1389 C1391 1.388 . S
C1390 C1389 1.366 . S
C1390 C1394 1.385 . S
C1391 H1366 0.951 . S
C1391 C1389 1.388 . S
C1391 C1392 1.366 . S
C1392 C1391 1.366 . S
C1392 C1393 1.414 . S
C1392 C1395 1.499 . S
C1393 H1367 0.950 . S
C1393 C1392 1.414 . S
C1393 C1394 1.374 . S
C1394 H1368 0.950 . S
C1394 C1390 1.385 . S
C1394 C1393 1.374 . S
C1395 C1392 1.499 . S
C1395 C1396 1.373 . S
C1395 C1397 1.389 . S
C1396 H1369 0.950 . S
C1396 C1382 1.377 . S
C1396 C1395 1.373 . S
C1397 C1381 1.377 . S
C1397 C1395 1.389 . S
C1397 C1398 1.524 . S
C1398 C1397 1.524 . S
C1398 C1399 1.397 . S
C1398 C1403 1.363 . S
C1399 H1370 0.950 . S
C1399 C1398 1.397 . S
C1399 C1400 1.334 . S
C1400 H1371 0.950 . S
C1400 C1399 1.334 . S
C1400 C1401 1.287 . S
C1401 C1400 1.287 . S
C1401 C1402 1.524 . S
C1401 H1404 0.999 . S
C1402 H1372 0.950 . S
C1402 C1401 1.524 . S
C1402 C1403 1.415 . S
C1403 H1373 0.950 . S
C1403 C1398 1.363 . S
C1403 C1402 1.415 . S
H1404 C1401 0.999 . S
H1405 C1386 0.913 . S
H1406 C1424 0.951 . S
H1407 C1426 0.951 . S
H1408 C1428 0.950 . S
H1409 C1429 0.950 . S
H1410 C1431 0.950 . S
H1411 C1434 0.950 . S
H1412 C1435 0.950 . S
H1413 C1437 0.950 . S
H1414 C1438 0.950 . S
H1415 C1439 0.951 . S
H1416 C1441 0.951 . S
H1417 C1443 0.950 . S
H1418 C1444 0.950 . S
H1419 C1446 0.950 . S
H1420 C1449 0.950 . S
H1421 C1450 0.950 . S
H1422 C1452 0.950 . S
H1423 C1453 0.950 . S
C1424 H1406 0.951 . S
C1424 C1425 1.366 . S
C1424 C1426 1.388 . S
C1425 C1424 1.366 . S
C1425 C1429 1.385 . S
C1426 H1407 0.951 . S
C1426 C1424 1.388 . S
C1426 C1427 1.366 . S
C1427 C1426 1.366 . S
C1427 C1428 1.414 . S
C1427 C1430 1.499 . S
C1428 H1408 0.950 . S
C1428 C1427 1.414 . S
C1428 C1429 1.374 . S
C1429 H1409 0.950 . S
C1429 C1425 1.385 . S
C1429 C1428 1.374 . S
C1430 C1427 1.499 . S
C1430 C1431 1.373 . S
C1430 C1432 1.389 . S
C1431 H1410 0.950 . S
C1431 C1430 1.373 . S
C1431 C1447 1.377 . S
C1432 C1430 1.389 . S
C1432 C1433 1.524 . S
C1432 C1446 1.377 . S
C1433 C1432 1.524 . S
C1433 C1434 1.397 . S
C1433 C1438 1.363 . S
C1434 H1411 0.950 . S
C1434 C1433 1.397 . S
C1434 C1435 1.334 . S
C1435 H1412 0.950 . S
C1435 C1434 1.334 . S
C1435 C1436 1.287 . S
C1436 C1435 1.287 . S
C1436 C1437 1.524 . S
C1436 H1455 0.913 . S
C1437 H1413 0.950 . S
C1437 C1436 1.524 . S
C1437 C1438 1.415 . S
C1438 H1414 0.950 . S
C1438 C1433 1.363 . S
C1438 C1437 1.415 . S
C1439 H1415 0.951 . S
C1439 C1440 1.366 . S
C1439 C1441 1.388 . S
C1440 C1439 1.366 . S
C1440 C1444 1.385 . S
C1441 H1416 0.951 . S
C1441 C1439 1.388 . S
C1441 C1442 1.366 . S
C1442 C1441 1.366 . S
C1442 C1443 1.414 . S
C1442 C1445 1.499 . S
C1443 H1417 0.950 . S
C1443 C1442 1.414 . S
C1443 C1444 1.374 . S
C1444 H1418 0.950 . S
C1444 C1440 1.385 . S
C1444 C1443 1.374 . S
C1445 C1442 1.499 . S
C1445 C1446 1.373 . S
C1445 C1447 1.389 . S
C1446 H1419 0.950 . S
C1446 C1432 1.377 . S
C1446 C1445 1.373 . S
C1447 C1431 1.377 . S
C1447 C1445 1.389 . S
C1447 C1448 1.524 . S
C1448 C1447 1.524 . S
C1448 C1449 1.397 . S
C1448 C1453 1.363 . S
C1449 H1420 0.950 . S
C1449 C1448 1.397 . S
C1449 C1450 1.334 . S
C1450 H1421 0.950 . S
C1450 C1449 1.334 . S
C1450 C1451 1.287 . S
C1451 C1450 1.287 . S
C1451 C1452 1.524 . S
C1451 H1454 0.999 . S
C1452 H1422 0.950 . S
C1452 C1451 1.524 . S
C1452 C1453 1.415 . S
C1453 H1423 0.950 . S
C1453 C1448 1.363 . S
C1453 C1452 1.415 . S
H1454 C1451 0.999 . S
H1455 C1436 0.913 . S
C275 C6 1.260 . S
C290 C111 1.275 . S
C325 C18 1.340 . S
C340 C151 1.344 . S
C390 C185 2.293 . S
C375 C28 2.318 . S
C425 C40 1.945 . S
C440 C226 1.904 . S
C490 C146 1.665 . S
C475 C9 1.640 . S
C540 C106 2.018 . S
C525 C16 1.950 . S
C590 C234 1.446 . S
C575 C30 1.452 . S
C640 C195 1.371 . S
C625 C42 1.404 . S
C675 C4 1.184 . S
C690 C231 1.173 . S
C740 C154 2.156 . S
C725 C33 2.202 . S
C775 C45 2.123 . S
C790 C114 2.075 . S
C825 C21 1.690 . S
C840 C182 1.728 . S
C890 C102 1.323 . S
C875 C57 1.321 . S
C925 C66 1.295 . S
C940 C142 1.319 . S
C975 C76 2.368 . S
C990 C194 2.350 . S
C1025 C88 1.838 . S
C1040 C235 1.804 . S
C1075 C54 1.640 . S
C1090 C155 1.662 . S
C1140 C115 2.114 . S
C1125 C64 2.070 . S
C1190 C225 1.344 . S
C1175 C78 1.350 . S
C1240 C186 1.435 . S
C1225 C93 1.464 . S
C1275 C52 1.181 . S
C1290 C222 1.188 . S
C1340 C145 2.143 . S
C1325 C81 2.194 . S
C1390 C105 2.034 . S
C1375 C90 2.088 . S
C1425 C69 1.693 . S
C1440 C191 1.746 . S
