# Generated by pormake.
# Topology ssa, (4,4)-cn, num edge types: 1
# Building blocks:
#     Node 0, Type 0, BuildingBlock: KOZSID_clean_sbu_0, # of connection points: 4
#     Node 1, Type 0, BuildingBlock: KOZSID_clean_sbu_0, # of connection points: 4
#     Node 2, Type 0, BuildingBlock: KOZSID_clean_sbu_0, # of connection points: 4
#     Node 3, Type 0, BuildingBlock: KOZSID_clean_sbu_0, # of connection points: 4
#     Node 4, Type 0, BuildingBlock: KOZSID_clean_sbu_0, # of connection points: 4
#     Node 5, Type 0, BuildingBlock: KOZSID_clean_sbu_0, # of connection points: 4
#     Node 6, Type 1, BuildingBlock: NAHDIM_clean_linker_0, # of connection points: 4
#     Node 7, Type 1, BuildingBlock: NAHDIM_clean_linker_0, # of connection points: 4
#     Node 8, Type 1, BuildingBlock: NAHDIM_clean_linker_0, # of connection points: 4
#     Node 9, Type 1, BuildingBlock: NAHDIM_clean_linker_0, # of connection points: 4
#     Node 10, Type 1, BuildingBlock: NAHDIM_clean_linker_0, # of connection points: 4
#     Node 11, Type 1, BuildingBlock: NAHDIM_clean_linker_0, # of connection points: 4
#     Edge 12, Type (0, 1), BuildingBlock: CIFDUS_clean_linker_0, # of connection points: 2
#     Edge 13, Type (0, 1), BuildingBlock: CIFDUS_clean_linker_0, # of connection points: 2
#     Edge 14, Type (0, 1), BuildingBlock: CIFDUS_clean_linker_0, # of connection points: 2
#     Edge 15, Type (0, 1), BuildingBlock: CIFDUS_clean_linker_0, # of connection points: 2
#     Edge 16, Type (0, 1), BuildingBlock: CIFDUS_clean_linker_0, # of connection points: 2
#     Edge 17, Type (0, 1), BuildingBlock: CIFDUS_clean_linker_0, # of connection points: 2
#     Edge 18, Type (0, 1), BuildingBlock: CIFDUS_clean_linker_0, # of connection points: 2
#     Edge 19, Type (0, 1), BuildingBlock: CIFDUS_clean_linker_0, # of connection points: 2
#     Edge 20, Type (0, 1), BuildingBlock: CIFDUS_clean_linker_0, # of connection points: 2
#     Edge 21, Type (0, 1), BuildingBlock: CIFDUS_clean_linker_0, # of connection points: 2
#     Edge 22, Type (0, 1), BuildingBlock: CIFDUS_clean_linker_0, # of connection points: 2
#     Edge 23, Type (0, 1), BuildingBlock: CIFDUS_clean_linker_0, # of connection points: 2
#     Edge 24, Type (0, 1), BuildingBlock: CIFDUS_clean_linker_0, # of connection points: 2
#     Edge 25, Type (0, 1), BuildingBlock: CIFDUS_clean_linker_0, # of connection points: 2
#     Edge 26, Type (0, 1), BuildingBlock: CIFDUS_clean_linker_0, # of connection points: 2
#     Edge 27, Type (0, 1), BuildingBlock: CIFDUS_clean_linker_0, # of connection points: 2
#     Edge 28, Type (0, 1), BuildingBlock: CIFDUS_clean_linker_0, # of connection points: 2
#     Edge 29, Type (0, 1), BuildingBlock: CIFDUS_clean_linker_0, # of connection points: 2
#     Edge 30, Type (0, 1), BuildingBlock: CIFDUS_clean_linker_0, # of connection points: 2
#     Edge 31, Type (0, 1), BuildingBlock: CIFDUS_clean_linker_0, # of connection points: 2
#     Edge 32, Type (0, 1), BuildingBlock: CIFDUS_clean_linker_0, # of connection points: 2
#     Edge 33, Type (0, 1), BuildingBlock: CIFDUS_clean_linker_0, # of connection points: 2
#     Edge 34, Type (0, 1), BuildingBlock: CIFDUS_clean_linker_0, # of connection points: 2
#     Edge 35, Type (0, 1), BuildingBlock: CIFDUS_clean_linker_0, # of connection points: 2
# Relax obj value: 0.012
# Max RMSD: 0.051
# Mean RMSD: 0.032
data_MOF--net-ssa--node1-KOZSID_clean_sbu_0--node2-NAHDIM_clean_linker_0--edge1-CIFDUS_clean_linker_0
_symmetry_space_group_name_H-M    P1
_symmetry_Int_Tables_number       1
_symmetry_cell_setting            triclinic
loop_
_symmetry_equiv_pos_as_xyz
'x, y, z'
_cell_length_a     60.51237
_cell_length_b     61.806841
_cell_length_c     52.998052
_cell_angle_alpha  87.394511
_cell_angle_beta   90.562581
_cell_angle_gamma 122.26522
loop_
_atom_site_label
_atom_site_type_symbol
_atom_site_fract_x
_atom_site_fract_y
_atom_site_fract_z
_atom_type_partial_charge
C0 C 0.98319 0.52473 0.98805 0.0
C1 C 0.9597 0.52159 0.99561 0.0
C2 C 0.95107 0.50518 0.01638 0.0
C3 C 0.96962 0.49916 0.02028 0.0
N4 N 0.9897 0.51079 0.00328 0.0
Co5 Co 0.02071 0.50709 0.00178 0.0
N6 N 0.00761 0.48246 0.03204 0.0
C7 C 0.98507 0.47352 0.04522 0.0
C8 C 0.98123 0.45665 0.06489 0.0
C9 C 0.00267 0.45478 0.06442 0.0
C10 C 0.0185 0.47082 0.04446 0.0
N11 N 0.0518 0.50354 0.00043 0.0
C12 C 0.05864 0.49011 0.01603 0.0
C13 C 0.08234 0.49358 0.00872 0.0
C14 C 0.09079 0.50973 0.98775 0.0
C15 C 0.07192 0.51527 0.98353 0.0
N16 N 0.03371 0.5316 0.97145 0.0
C17 C 0.05597 0.5401 0.95797 0.0
C18 C 0.05977 0.55686 0.9382 0.0
C19 C 0.03859 0.55914 0.93895 0.0
C20 C 0.02297 0.54345 0.95917 0.0
N21 N 0.03999 0.5362 0.02432 0.0
C22 C 0.06644 0.57764 0.05626 0.0
C23 C 0.07888 0.57634 0.03483 0.0
C24 C 0.06534 0.55564 0.01916 0.0
C25 C 0.04077 0.5577 0.0616 0.0
C26 C 0.02809 0.53736 0.04562 0.0
N27 N 0.00132 0.47794 0.97924 0.0
C28 C 0.99952 0.45515 0.94247 0.0
C29 C 0.97331 0.43629 0.94767 0.0
C30 C 0.96145 0.43872 0.96888 0.0
C31 C 0.97564 0.45941 0.98422 0.0
C32 C 0.01301 0.47572 0.95832 0.0
H33 H 0.96533 0.45983 1.00007 0.0
H34 H 0.03286 0.48957 0.95327 0.0
H35 H 0.07573 0.55582 0.00296 0.0
H36 H 0.00865 0.52279 0.05097 0.0
C37 C 0.96829 0.48198 0.03918 0.0
C38 C 0.99811 0.54044 0.9658 0.0
C39 C 0.0438 0.47453 0.03835 0.0
C40 C 0.07291 0.53196 0.9643 0.0
H41 H 0.9496 0.52999 0.98684 0.0
H42 H 0.9332 0.49815 0.02714 0.0
H43 H 0.96491 0.44706 0.07816 0.0
H44 H 0.00632 0.44306 0.07742 0.0
H45 H 0.09268 0.48557 0.01779 0.0
H46 H 0.10875 0.51691 0.97709 0.0
H47 H 0.07599 0.56627 0.9248 0.0
H48 H 0.03503 0.57099 0.92603 0.0
H49 H 0.09879 0.59143 0.02991 0.0
H50 H 0.03049 0.55762 0.07827 0.0
H51 H 0.00953 0.45421 0.92613 0.0
H52 H 0.94133 0.4244 0.97401 0.0
C53 C 0.54563 0.00715 0.54885 0.0
C54 C 0.54543 0.99099 0.56806 0.0
C55 C 0.52247 0.96801 0.56633 0.0
C56 C 0.51011 0.97136 0.54616 0.0
N57 N 0.52369 0.99512 0.53491 0.0
Co58 Co 0.51347 0.00757 0.50406 0.0
N59 N 0.47859 0.97456 0.50306 0.0
C60 C 0.46915 0.95427 0.51982 0.0
C61 C 0.44382 0.93522 0.51574 0.0
C62 C 0.43647 0.9439 0.49526 0.0
C63 C 0.45801 0.96772 0.48772 0.0
N64 N 0.50376 0.01954 0.4725 0.0
C65 C 0.48147 0.0078 0.459 0.0
C66 C 0.48338 0.02244 0.4375 0.0
C67 C 0.50754 0.0444 0.43767 0.0
C68 C 0.51906 0.04185 0.45902 0.0
N69 N 0.54773 0.04115 0.50592 0.0
C70 C 0.55656 0.06204 0.49009 0.0
C71 C 0.58023 0.08263 0.49668 0.0
C72 C 0.58689 0.07451 0.51813 0.0
C73 C 0.56687 0.04926 0.52328 0.0
N74 N 0.52975 0.9938 0.48281 0.0
C75 C 0.55417 0.97481 0.45404 0.0
C76 C 0.56291 0.00076 0.45256 0.0
C77 C 0.55037 0.00972 0.46676 0.0
C78 C 0.53279 0.95838 0.46979 0.0
C79 C 0.52108 0.96821 0.48405 0.0
N80 N 0.49735 0.02131 0.52524 0.0
C81 C 0.48763 0.05369 0.53288 0.0
C82 C 0.47486 0.04105 0.55564 0.0
C83 C 0.47339 0.01829 0.56283 0.0
C84 C 0.48458 0.00878 0.54744 0.0
C85 C 0.49874 0.04362 0.51813 0.0
H86 H 0.48267 0.99125 0.55389 0.0
H87 H 0.50848 0.05427 0.5011 0.0
H88 H 0.55786 0.02966 0.46439 0.0
H89 H 0.50517 0.95469 0.49602 0.0
C90 C 0.48479 0.95344 0.53884 0.0
C91 C 0.56702 0.03375 0.54477 0.0
C92 C 0.4579 0.98315 0.46602 0.0
C93 C 0.54295 0.06107 0.46831 0.0
H94 H 0.56024 0.9954 0.58205 0.0
H95 H 0.51539 0.95105 0.57864 0.0
H96 H 0.43203 0.91725 0.52649 0.0
H97 H 0.41729 0.93377 0.48702 0.0
H98 H 0.46868 0.0179 0.42337 0.0
H99 H 0.51547 0.06061 0.4242 0.0
H100 H 0.59146 0.10123 0.48688 0.0
H101 H 0.60455 0.08582 0.5287 0.0
H102 H 0.57925 0.01409 0.44027 0.0
H103 H 0.52543 0.93808 0.47146 0.0
H104 H 0.48947 0.07153 0.52665 0.0
H105 H 0.46338 0.00765 0.58016 0.0
C106 C 0.55402 0.54549 0.96933 0.0
C107 C 0.55539 0.56052 0.94838 0.0
C108 C 0.53271 0.56024 0.94824 0.0
C109 C 0.51873 0.54495 0.96888 0.0
N110 N 0.53105 0.53536 0.98221 0.0
Co111 Co 0.51706 0.51117 0.01276 0.0
N112 N 0.48414 0.51172 0.0131 0.0
C113 C 0.47801 0.52537 0.99709 0.0
C114 C 0.45415 0.52196 0.00206 0.0
C115 C 0.4444 0.50513 0.02251 0.0
C116 C 0.46298 0.49923 0.02882 0.0
N117 N 0.5028 0.48648 0.04292 0.0
C118 C 0.47955 0.47583 0.05535 0.0
C119 C 0.47717 0.45908 0.07505 0.0
C120 C 0.49962 0.45896 0.07495 0.0
C121 C 0.51437 0.47557 0.05532 0.0
N122 N 0.55027 0.51119 0.01287 0.0
C123 C 0.55686 0.49843 0.02962 0.0
C124 C 0.58154 0.50341 0.02602 0.0
C125 C 0.59144 0.52042 0.00577 0.0
C126 C 0.57197 0.52461 0.99791 0.0
N127 N 0.53355 0.5406 0.03513 0.0
C128 C 0.55747 0.58249 0.06659 0.0
C129 C 0.55912 0.56109 0.0718 0.0
C130 C 0.54686 0.5404 0.05612 0.0
C131 C 0.54359 0.58265 0.0455 0.0
C132 C 0.53212 0.56177 0.02996 0.0
N133 N 0.50052 0.48171 0.99036 0.0
C134 C 0.49404 0.44165 0.97751 0.0
C135 C 0.47662 0.43972 0.95901 0.0
C136 C 0.47134 0.45905 0.95635 0.0
C137 C 0.48363 0.47985 0.97189 0.0
C138 C 0.50546 0.4625 0.99306 0.0
H139 H 0.47916 0.49418 0.9685 0.0
H140 H 0.51816 0.46258 0.00713 0.0
H141 H 0.54838 0.52446 0.06144 0.0
H142 H 0.52226 0.56322 0.01385 0.0
C143 C 0.49446 0.54007 0.97671 0.0
C144 C 0.57509 0.54154 0.97622 0.0
C145 C 0.45926 0.4811 0.04941 0.0
C146 C 0.53941 0.48189 0.04859 0.0
H147 H 0.57119 0.57072 0.93462 0.0
H148 H 0.52716 0.57015 0.93479 0.0
H149 H 0.44477 0.53036 0.99177 0.0
H150 H 0.42556 0.49774 0.03153 0.0
H151 H 0.4609 0.44813 0.0882 0.0
H152 H 0.50467 0.44816 0.08776 0.0
H153 H 0.59127 0.49576 0.03696 0.0
H154 H 0.61091 0.52887 0.99787 0.0
H155 H 0.56945 0.56011 0.0882 0.0
H156 H 0.54193 0.59897 0.04081 0.0
H157 H 0.49856 0.42694 0.98021 0.0
H158 H 0.45814 0.45838 0.94198 0.0
C159 C 0.96 0.44925 0.52741 0.0
C160 C 0.93399 0.43185 0.52205 0.0
C161 C 0.92795 0.44229 0.50201 0.0
C162 C 0.95051 0.46538 0.49635 0.0
N163 N 0.97073 0.47021 0.51134 0.0
Co164 Co 0.00663 0.50212 0.51061 0.0
N165 N 0.9972 0.51823 0.48224 0.0
C166 C 0.9743 0.50732 0.46986 0.0
C167 C 0.97382 0.52264 0.45064 0.0
C168 C 0.99784 0.54471 0.45072 0.0
C169 C 0.01158 0.54166 0.47025 0.0
N170 N 0.04231 0.53431 0.5104 0.0
C171 C 0.05208 0.55663 0.49649 0.0
C172 C 0.07738 0.57476 0.50347 0.0
C173 C 0.08396 0.56342 0.52214 0.0
C174 C 0.06236 0.53921 0.52572 0.0
N175 N 0.01625 0.48577 0.53859 0.0
C176 C 0.0399 0.49563 0.5494 0.0
C177 C 0.0405 0.47999 0.56819 0.0
C178 C 0.01571 0.45891 0.56962 0.0
C179 C 0.00137 0.46299 0.55156 0.0
N180 N 0.01871 0.48744 0.48547 0.0
C181 C 0.03542 0.46531 0.45104 0.0
C182 C 0.0513 0.47938 0.47077 0.0
C183 C 0.04273 0.4903 0.48748 0.0
C184 C 0.01118 0.46282 0.44853 0.0
C185 C 0.00324 0.47386 0.46587 0.0
N186 N 0.99459 0.5166 0.53576 0.0
C187 C 0.99921 0.53468 0.57638 0.0
C188 C 0.97649 0.53496 0.57287 0.0
C189 C 0.96321 0.52641 0.55023 0.0
C190 C 0.97244 0.5172 0.5321 0.0
C191 C 0.00795 0.52572 0.55769 0.0
H192 H 0.96124 0.51043 0.51539 0.0
H193 H 0.0255 0.52623 0.56149 0.0
H194 H 0.05596 0.50093 0.50188 0.0
H195 H 0.98444 0.47097 0.46306 0.0
C196 C 0.95323 0.48305 0.47735 0.0
C197 C 0.97348 0.44517 0.54819 0.0
C198 C 0.03816 0.56161 0.47666 0.0
C199 C 0.06042 0.5206 0.54314 0.0
H200 H 0.92072 0.4136 0.5318 0.0
H201 H 0.90926 0.43418 0.49287 0.0
H202 H 0.95784 0.51833 0.43816 0.0
H203 H 0.00444 0.56121 0.43787 0.0
H204 H 0.08983 0.59425 0.49598 0.0
H205 H 0.10228 0.57186 0.53203 0.0
H206 H 0.0568 0.48381 0.57998 0.0
H207 H 0.00881 0.44262 0.58284 0.0
H208 H 0.07046 0.48221 0.4732 0.0
H209 H 0.99815 0.45198 0.43354 0.0
H210 H 0.01039 0.54158 0.59347 0.0
H211 H 0.94549 0.52633 0.54675 0.0
C212 C 0.47883 0.00172 0.05726 0.0
C213 C 0.48105 0.01648 0.07728 0.0
C214 C 0.50507 0.03852 0.07488 0.0
C215 C 0.51604 0.036 0.05362 0.0
N216 N 0.50048 0.01373 0.04217 0.0
Co217 Co 0.50865 0.00238 0.01062 0.0
N218 N 0.54498 0.03366 0.00855 0.0
C219 C 0.55592 0.0528 0.02487 0.0
C220 C 0.58171 0.07074 0.01978 0.0
C221 C 0.58777 0.06254 0.99905 0.0
C222 C 0.56508 0.04009 0.99243 0.0
N223 N 0.51663 0.99133 0.97872 0.0
C224 C 0.53904 0.00235 0.96473 0.0
C225 C 0.53596 0.98872 0.94347 0.0
C226 C 0.51088 0.9681 0.9443 0.0
C227 C 0.50003 0.97039 0.96579 0.0
N228 N 0.47257 0.97069 0.01316 0.0
C229 C 0.46163 0.95135 0.99706 0.0
C230 C 0.43699 0.93172 0.00428 0.0
C231 C 0.43196 0.93877 0.02648 0.0
C232 C 0.45389 0.96242 0.03147 0.0
N233 N 0.49528 0.02071 0.99005 0.0
C234 C 0.47601 0.04629 0.96074 0.0
C235 C 0.4673 0.02073 0.95712 0.0
C236 C 0.47704 0.00846 0.97182 0.0
C237 C 0.49453 0.05887 0.97936 0.0
C238 C 0.5039 0.04586 0.9936 0.0
N239 N 0.52191 0.9841 0.03104 0.0
C240 C 0.52623 0.94761 0.03797 0.0
C241 C 0.54127 0.95812 0.05938 0.0
C242 C 0.54629 0.98187 0.06643 0.0
C243 C 0.53656 0.99445 0.05208 0.0
C244 C 0.51673 0.96071 0.02431 0.0
H245 H 0.54116 0.01256 0.05831 0.0
H246 H 0.50538 0.95159 0.00825 0.0
H247 H 0.46932 0.98901 0.96806 0.0
H248 H 0.5181 0.05661 0.00732 0.0
C249 C 0.54163 0.05317 0.04514 0.0
C250 C 0.45616 0.97611 0.05395 0.0
C251 C 0.56376 0.02535 0.97102 0.0
C252 C 0.475 0.95226 0.97528 0.0
H253 H 0.46696 0.01161 0.09233 0.0
H254 H 0.51377 0.0542 0.08751 0.0
H255 H 0.5947 0.08753 0.03019 0.0
H256 H 0.60691 0.07196 0.99015 0.0
H257 H 0.55045 0.99306 0.92901 0.0
H258 H 0.5018 0.95296 0.93108 0.0
H259 H 0.42428 0.91428 0.99464 0.0
H260 H 0.41422 0.92773 0.03781 0.0
H261 H 0.45262 0.00998 0.94323 0.0
H262 H 0.50203 0.07876 0.98276 0.0
H263 H 0.5221 0.92947 0.03144 0.0
H264 H 0.5576 0.99071 0.08303 0.0
C265 C 0.52615 0.56032 0.50016 0.0
C266 C 0.5229 0.58004 0.50646 0.0
C267 C 0.50578 0.57099 0.52647 0.0
C268 C 0.49937 0.5463 0.53111 0.0
N269 N 0.51126 0.53894 0.51518 0.0
Co270 Co 0.50673 0.50435 0.51472 0.0
N271 N 0.48408 0.4921 0.54605 0.0
C272 C 0.47667 0.50543 0.55937 0.0
C273 C 0.46234 0.49248 0.58079 0.0
C274 C 0.46084 0.46964 0.58147 0.0
C275 C 0.47434 0.46999 0.56027 0.0
N276 N 0.50172 0.46957 0.51397 0.0
C277 C 0.48972 0.44936 0.53092 0.0
C278 C 0.4908 0.42876 0.52329 0.0
C279 C 0.50429 0.43635 0.50084 0.0
C280 C 0.51058 0.461 0.49605 0.0
N281 N 0.5302 0.5169 0.48398 0.0
C282 C 0.53735 0.50338 0.47062 0.0
C283 C 0.55511 0.51751 0.45159 0.0
C284 C 0.55978 0.54158 0.45292 0.0
C285 C 0.54427 0.54067 0.47263 0.0
N286 N 0.53771 0.5162 0.53624 0.0
C287 C 0.58104 0.53252 0.56775 0.0
C288 C 0.57684 0.51685 0.54773 0.0
C289 C 0.55525 0.50906 0.53221 0.0
C290 C 0.56322 0.53989 0.57165 0.0
C291 C 0.54189 0.53156 0.55585 0.0
N292 N 0.47544 0.49243 0.49306 0.0
C293 C 0.45129 0.47301 0.4552 0.0
C294 C 0.43091 0.4758 0.46274 0.0
C295 C 0.43324 0.487 0.48568 0.0
C296 C 0.45536 0.49508 0.50031 0.0
C297 C 0.47319 0.48141 0.47048 0.0
H298 H 0.45552 0.50328 0.51748 0.0
H299 H 0.48798 0.47876 0.46357 0.0
H300 H 0.55306 0.49724 0.5171 0.0
H301 H 0.52891 0.53766 0.55999 0.0
C302 C 0.48397 0.5303 0.5515 0.0
C303 C 0.54377 0.56292 0.47995 0.0
C304 C 0.47799 0.44917 0.55485 0.0
C305 C 0.52737 0.47753 0.47669 0.0
H306 H 0.53214 0.59913 0.4977 0.0
H307 H 0.49924 0.58136 0.53675 0.0
H308 H 0.45436 0.49905 0.59453 0.0
H309 H 0.45124 0.45459 0.59611 0.0
H310 H 0.48319 0.4104 0.53326 0.0
H311 H 0.50979 0.42555 0.48984 0.0
H312 H 0.56392 0.51117 0.43854 0.0
H313 H 0.5733 0.55797 0.44087 0.0
H314 H 0.59028 0.51084 0.54388 0.0
H315 H 0.56544 0.5517 0.58715 0.0
H316 H 0.45047 0.46454 0.43749 0.0
H317 H 0.41779 0.48917 0.49266 0.0
C318 C 0.06821 0.37389 0.3597 0.0
C319 C 0.09119 0.39484 0.37429 0.0
C320 C 0.12958 0.41453 0.34552 0.0
C321 C 0.14814 0.43742 0.33279 0.0
C322 C 0.16927 0.43957 0.3196 0.0
C323 C 0.17145 0.41793 0.31854 0.0
C324 C 0.15276 0.39464 0.33139 0.0
C325 C 0.13215 0.39322 0.34494 0.0
C326 C 0.18916 0.46495 0.30672 0.0
C327 C 0.15443 0.37117 0.33064 0.0
C328 C 0.3487 0.42686 0.38576 0.0
C329 C 0.32505 0.41724 0.36992 0.0
C330 C 0.30115 0.43295 0.34594 0.0
C331 C 0.27891 0.40853 0.34222 0.0
C332 C 0.2575 0.40576 0.32874 0.0
C333 C 0.25822 0.42779 0.3189 0.0
C334 C 0.28038 0.45239 0.32295 0.0
C335 C 0.3016 0.45461 0.33633 0.0
C336 C 0.23417 0.37924 0.3248 0.0
C337 C 0.28174 0.47632 0.3129 0.0
C338 C 0.30561 0.4408 0.15838 0.0
C339 C 0.28455 0.41556 0.16361 0.0
C340 C 0.26162 0.4108 0.17547 0.0
C341 C 0.25969 0.43165 0.18211 0.0
C342 C 0.28042 0.45701 0.17597 0.0
C343 C 0.3031 0.46122 0.16415 0.0
C344 C 0.23969 0.38352 0.18153 0.0
C345 C 0.27887 0.47967 0.18255 0.0
C346 C 0.06673 0.3946 0.15883 0.0
C347 C 0.09221 0.41936 0.15065 0.0
C348 C 0.13018 0.41582 0.1538 0.0
C349 C 0.13337 0.39504 0.15577 0.0
C350 C 0.15384 0.39636 0.16978 0.0
C351 C 0.17196 0.41936 0.18143 0.0
C352 C 0.16952 0.44089 0.17838 0.0
C353 C 0.14848 0.43879 0.16477 0.0
C354 C 0.1559 0.37309 0.17241 0.0
C355 C 0.18907 0.46609 0.18954 0.0
C356 C 0.19308 0.41961 0.30369 0.0
C357 C 0.2147 0.42261 0.31672 0.0
C358 C 0.23604 0.42505 0.30385 0.0
C359 C 0.2361 0.42494 0.27715 0.0
C360 C 0.25739 0.42773 0.26356 0.0
C361 C 0.25759 0.4283 0.2373 0.0
C362 C 0.23642 0.42589 0.22358 0.0
C363 C 0.23674 0.42704 0.19686 0.0
C364 C 0.21545 0.42467 0.18376 0.0
C365 C 0.19354 0.42097 0.19664 0.0
C366 C 0.19279 0.41958 0.2234 0.0
C367 C 0.17093 0.41545 0.23704 0.0
C368 C 0.17083 0.41514 0.26332 0.0
C369 C 0.19257 0.41889 0.27702 0.0
C370 C 0.21435 0.42202 0.26371 0.0
C371 C 0.21448 0.4224 0.23688 0.0
C372 C 0.34319 0.42096 0.16906 0.0
C373 C 0.33705 0.42993 0.14398 0.0
O374 O 0.10956 0.41392 0.35774 0.0
O375 O 0.10943 0.41333 0.14109 0.0
O376 O 0.32876 0.4465 0.14818 0.0
O377 O 0.32244 0.43643 0.35859 0.0
H378 H 0.10026 0.38595 0.38546 0.0
H379 H 0.07488 0.36426 0.34752 0.0
H380 H 0.05924 0.38208 0.34739 0.0
H381 H 0.05309 0.35916 0.37309 0.0
H382 H 0.14609 0.45378 0.33337 0.0
H383 H 0.11804 0.37532 0.35468 0.0
H384 H 0.20929 0.46993 0.31111 0.0
H385 H 0.18687 0.48072 0.31247 0.0
H386 H 0.18689 0.46354 0.28594 0.0
H387 H 0.13694 0.35385 0.33934 0.0
H388 H 0.17196 0.37457 0.34099 0.0
H389 H 0.15663 0.36742 0.31081 0.0
H390 H 0.32164 0.40223 0.35672 0.0
H391 H 0.3609 0.42073 0.3762 0.0
H392 H 0.3332 0.41371 0.42277 0.0
H393 H 0.36219 0.44779 0.38012 0.0
H394 H 0.27815 0.39154 0.34965 0.0
H395 H 0.31874 0.47336 0.33934 0.0
H396 H 0.21655 0.37711 0.33374 0.0
H397 H 0.23694 0.36397 0.33291 0.0
H398 H 0.2304 0.37647 0.30429 0.0
H399 H 0.29951 0.49403 0.31915 0.0
H400 H 0.2642 0.47614 0.31926 0.0
H401 H 0.28178 0.47681 0.29194 0.0
H402 H 0.32154 0.41304 0.13411 0.0
H403 H 0.28593 0.39948 0.15887 0.0
H404 H 0.31931 0.4806 0.15981 0.0
H405 H 0.23676 0.38017 0.20233 0.0
H406 H 0.24364 0.36937 0.17409 0.0
H407 H 0.22118 0.3802 0.17344 0.0
H408 H 0.29621 0.49817 0.17554 0.0
H409 H 0.27733 0.47996 0.20338 0.0
H410 H 0.26103 0.47787 0.17436 0.0
H411 H 0.10025 0.43068 0.16784 0.0
H412 H 0.05257 0.39898 0.16646 0.0
H413 H 0.07072 0.38408 0.17388 0.0
H414 H 0.05781 0.38199 0.14266 0.0
H415 H 0.11928 0.3775 0.14689 0.0
H416 H 0.14642 0.45513 0.16247 0.0
H417 H 0.15743 0.36861 0.19265 0.0
H418 H 0.17393 0.37716 0.16256 0.0
H419 H 0.13887 0.35598 0.1643 0.0
H420 H 0.18652 0.48183 0.18252 0.0
H421 H 0.20931 0.47145 0.185 0.0
H422 H 0.18671 0.46418 0.21041 0.0
H423 H 0.21496 0.42311 0.33717 0.0
H424 H 0.27426 0.42974 0.27306 0.0
H425 H 0.27464 0.43076 0.2279 0.0
H426 H 0.21606 0.42595 0.16326 0.0
H427 H 0.15372 0.4126 0.22753 0.0
H428 H 0.15353 0.41205 0.27277 0.0
H429 H 0.35819 0.43763 0.17951 0.0
H430 H 0.35057 0.4083 0.1655 0.0
H431 H 0.32539 0.40992 0.18121 0.0
C432 C 0.89477 0.28442 0.90161 0.0
C433 C 0.90637 0.3034 0.87864 0.0
C434 C 0.86962 0.28195 0.84933 0.0
C435 C 0.8731 0.26191 0.84368 0.0
C436 C 0.85463 0.24149 0.82947 0.0
C437 C 0.83223 0.24103 0.82071 0.0
C438 C 0.82887 0.26134 0.82603 0.0
C439 C 0.84775 0.28163 0.8401 0.0
C440 C 0.85893 0.22024 0.82396 0.0
C441 C 0.80517 0.26145 0.8171 0.0
C442 C 0.7191 0.08901 0.91501 0.0
C443 C 0.70342 0.0982 0.90029 0.0
C444 C 0.71912 0.11241 0.85758 0.0
C445 C 0.71489 0.13208 0.85102 0.0
C446 C 0.73212 0.15249 0.83437 0.0
C447 C 0.75412 0.15322 0.82434 0.0
C448 C 0.75806 0.133 0.83055 0.0
C449 C 0.74026 0.11262 0.84694 0.0
C450 C 0.72707 0.17347 0.8278 0.0
C451 C 0.78141 0.13329 0.82036 0.0
C452 C 0.70971 0.11367 0.66237 0.0
C453 C 0.70451 0.13116 0.67236 0.0
C454 C 0.72408 0.15264 0.68463 0.0
C455 C 0.74924 0.15648 0.68715 0.0
C456 C 0.75469 0.13923 0.67641 0.0
C457 C 0.73489 0.1182 0.66382 0.0
C458 C 0.71782 0.17114 0.69503 0.0
C459 C 0.78131 0.14278 0.67857 0.0
C460 C 0.92905 0.326 0.65958 0.0
C461 C 0.91113 0.31695 0.63662 0.0
C462 C 0.86754 0.28791 0.6561 0.0
C463 C 0.8438 0.28531 0.66228 0.0
C464 C 0.82417 0.26355 0.676 0.0
C465 C 0.82843 0.24388 0.68371 0.0
C466 C 0.85213 0.24604 0.67707 0.0
C467 C 0.87144 0.268 0.66335 0.0
C468 C 0.79903 0.26174 0.68265 0.0
C469 C 0.85721 0.2253 0.68486 0.0
C470 C 0.81207 0.21904 0.80647 0.0
C471 C 0.79319 0.19709 0.8203 0.0
C472 C 0.77355 0.17567 0.80823 0.0
C473 C 0.77254 0.17606 0.78156 0.0
C474 C 0.75305 0.1549 0.7688 0.0
C475 C 0.7522 0.1555 0.74253 0.0
C476 C 0.77066 0.17739 0.728 0.0
C477 C 0.76975 0.17833 0.70129 0.0
C478 C 0.78865 0.20029 0.68745 0.0
C479 C 0.80856 0.22147 0.69956 0.0
C480 C 0.80963 0.221 0.72624 0.0
C481 C 0.82931 0.24206 0.739 0.0
C482 C 0.83024 0.24142 0.76525 0.0
C483 C 0.81145 0.21975 0.77977 0.0
C484 C 0.79154 0.19822 0.76729 0.0
C485 C 0.79059 0.19888 0.74049 0.0
C486 C 0.66222 0.05049 0.66886 0.0
C487 C 0.66563 0.07605 0.66017 0.0
O488 O 0.88654 0.3017 0.86375 0.0
O489 O 0.88601 0.30993 0.64348 0.0
O490 O 0.69095 0.09245 0.65098 0.0
O491 O 0.70348 0.09366 0.87495 0.0
H492 H 0.91879 0.29908 0.86726 0.0
H493 H 0.88304 0.26441 0.89557 0.0
H494 H 0.88191 0.28819 0.91293 0.0
H495 H 0.91064 0.28615 0.91379 0.0
H496 H 0.89005 0.26193 0.85033 0.0
H497 H 0.84525 0.29719 0.8444 0.0
H498 H 0.84337 0.20208 0.83352 0.0
H499 H 0.87822 0.22428 0.83048 0.0
H500 H 0.85755 0.21731 0.80334 0.0
H501 H 0.80476 0.27797 0.82391 0.0
H502 H 0.78708 0.24343 0.82377 0.0
H503 H 0.80502 0.26228 0.79614 0.0
H504 H 0.71379 0.11921 0.90307 0.0
H505 H 0.7173 0.09025 0.93566 0.0
H506 H 0.7401 0.10137 0.90946 0.0
H507 H 0.71248 0.06903 0.91068 0.0
H508 H 0.69825 0.13152 0.85916 0.0
H509 H 0.74324 0.09722 0.85221 0.0
H510 H 0.72701 0.17628 0.80696 0.0
H511 H 0.74304 0.19176 0.83521 0.0
H512 H 0.70816 0.16918 0.83578 0.0
H513 H 0.78184 0.11627 0.82722 0.0
H514 H 0.79968 0.15085 0.82607 0.0
H515 H 0.78114 0.13386 0.7994 0.0
H516 H 0.66188 0.08381 0.67705 0.0
H517 H 0.68524 0.12816 0.67036 0.0
H518 H 0.73876 0.10476 0.65566 0.0
H519 H 0.71806 0.16993 0.71598 0.0
H520 H 0.69834 0.16704 0.68909 0.0
H521 H 0.73292 0.19109 0.68868 0.0
H522 H 0.78184 0.12666 0.6708 0.0
H523 H 0.78713 0.14451 0.69867 0.0
H524 H 0.796 0.16081 0.66816 0.0
H525 H 0.91072 0.30026 0.629 0.0
H526 H 0.94936 0.33245 0.65383 0.0
H527 H 0.92234 0.3102 0.67416 0.0
H528 H 0.92914 0.34207 0.66826 0.0
H529 H 0.84084 0.30062 0.65653 0.0
H530 H 0.88953 0.26943 0.65869 0.0
H531 H 0.79635 0.26007 0.7035 0.0
H532 H 0.78223 0.2442 0.67489 0.0
H533 H 0.79866 0.27863 0.67519 0.0
H534 H 0.87597 0.22911 0.67698 0.0
H535 H 0.84107 0.20653 0.6785 0.0
H536 H 0.85776 0.22374 0.70578 0.0
H537 H 0.79376 0.19668 0.84078 0.0
H538 H 0.73823 0.1376 0.77899 0.0
H539 H 0.73681 0.13859 0.73377 0.0
H540 H 0.78794 0.20085 0.66698 0.0
H541 H 0.84424 0.25932 0.72885 0.0
H542 H 0.84585 0.25818 0.77402 0.0
H543 H 0.64207 0.03701 0.6764 0.0
H544 H 0.67621 0.0536 0.68412 0.0
H545 H 0.666 0.0417 0.65297 0.0
C546 C 0.6367 0.68808 0.36977 0.0
C547 C 0.61441 0.6868 0.38465 0.0
C548 C 0.59949 0.71055 0.35832 0.0
C549 C 0.57783 0.70759 0.34558 0.0
C550 C 0.57815 0.72865 0.33419 0.0
C551 C 0.60121 0.75331 0.33482 0.0
C552 C 0.62323 0.75657 0.34791 0.0
C553 C 0.62207 0.73516 0.3598 0.0
C554 C 0.55385 0.72439 0.32129 0.0
C555 C 0.64808 0.7826 0.34901 0.0
C556 C 0.57718 0.90541 0.40562 0.0
C557 C 0.59094 0.8942 0.39409 0.0
C558 C 0.58043 0.85602 0.37188 0.0
C559 C 0.60627 0.86513 0.36418 0.0
C560 C 0.6118 0.85076 0.34858 0.0
C561 C 0.59109 0.82704 0.34027 0.0
C562 C 0.56509 0.8179 0.34791 0.0
C563 C 0.56015 0.83247 0.36376 0.0
C564 C 0.63977 0.86085 0.34104 0.0
C565 C 0.54251 0.79272 0.33933 0.0
C566 C 0.59116 0.87961 0.1768 0.0
C567 C 0.61608 0.88365 0.18086 0.0
C568 C 0.61896 0.8651 0.19406 0.0
C569 C 0.5965 0.84198 0.2032 0.0
C570 C 0.57139 0.83777 0.19899 0.0
C571 C 0.56909 0.85677 0.18599 0.0
C572 C 0.64601 0.8702 0.19827 0.0
C573 C 0.547 0.81317 0.20817 0.0
C574 C 0.61871 0.68415 0.18762 0.0
C575 C 0.5986 0.68621 0.17159 0.0
C576 C 0.60762 0.72946 0.17295 0.0
C577 C 0.63006 0.7538 0.17511 0.0
C578 C 0.62926 0.77272 0.18805 0.0
C579 C 0.60529 0.76714 0.19863 0.0
C580 C 0.5822 0.74304 0.1951 0.0
C581 C 0.58361 0.72446 0.18223 0.0
C582 C 0.65413 0.79835 0.19114 0.0
C583 C 0.55615 0.7367 0.20546 0.0
C584 C 0.60219 0.77546 0.32141 0.0
C585 C 0.59861 0.79188 0.33562 0.0
C586 C 0.59656 0.81147 0.32395 0.0
C587 C 0.59813 0.8149 0.2973 0.0
C588 C 0.59574 0.83414 0.2849 0.0
C589 C 0.59655 0.83685 0.25863 0.0
C590 C 0.59944 0.8202 0.24375 0.0
C591 C 0.59932 0.82216 0.21703 0.0
C592 C 0.60166 0.80491 0.20285 0.0
C593 C 0.60448 0.78584 0.21462 0.0
C594 C 0.60525 0.78397 0.24128 0.0
C595 C 0.60869 0.76539 0.25369 0.0
C596 C 0.60832 0.76296 0.27992 0.0
C597 C 0.60425 0.77886 0.29477 0.0
C598 C 0.60179 0.79838 0.28268 0.0
C599 C 0.60231 0.80095 0.25588 0.0
C600 C 0.59647 0.93186 0.13472 0.0
C601 C 0.60684 0.91937 0.15137 0.0
O602 O 0.59762 0.68901 0.36834 0.0
O603 O 0.6097 0.71119 0.16194 0.0
O604 O 0.58757 0.89709 0.16406 0.0
O605 O 0.57421 0.86925 0.38702 0.0
H606 H 0.62267 0.70252 0.39811 0.0
H607 H 0.64831 0.70671 0.359 0.0
H608 H 0.62886 0.67254 0.35619 0.0
H609 H 0.65001 0.6861 0.38291 0.0
H610 H 0.56047 0.68855 0.34468 0.0
H611 H 0.63896 0.73778 0.36975 0.0
H612 H 0.54987 0.73928 0.32623 0.0
H613 H 0.5364 0.70523 0.3265 0.0
H614 H 0.5568 0.72577 0.30051 0.0
H615 H 0.66416 0.78165 0.35816 0.0
H616 H 0.64435 0.79535 0.3598 0.0
H617 H 0.65453 0.79142 0.32964 0.0
H618 H 0.60831 0.89702 0.40453 0.0
H619 H 0.58436 0.9091 0.4256 0.0
H620 H 0.55698 0.88891 0.41125 0.0
H621 H 0.5838 0.93511 0.37932 0.0
H622 H 0.62219 0.8833 0.3704 0.0
H623 H 0.54031 0.82562 0.36978 0.0
H624 H 0.64487 0.84655 0.34676 0.0
H625 H 0.65377 0.87925 0.34973 0.0
H626 H 0.64204 0.86381 0.32018 0.0
H627 H 0.52331 0.78905 0.34567 0.0
H628 H 0.54454 0.77684 0.34694 0.0
H629 H 0.54278 0.79248 0.31839 0.0
H630 H 0.62315 0.9325 0.16376 0.0
H631 H 0.63338 0.90123 0.17387 0.0
H632 H 0.54996 0.85377 0.18273 0.0
H633 H 0.64889 0.86799 0.21874 0.0
H634 H 0.66159 0.8897 0.19121 0.0
H635 H 0.64816 0.85592 0.18845 0.0
H636 H 0.52889 0.81221 0.20206 0.0
H637 H 0.54683 0.81146 0.22912 0.0
H638 H 0.54688 0.79651 0.20098 0.0
H639 H 0.58202 0.6807 0.18478 0.0
H640 H 0.61118 0.66383 0.19335 0.0
H641 H 0.62253 0.69495 0.205 0.0
H642 H 0.63759 0.69254 0.1772 0.0
H643 H 0.6484 0.75762 0.16742 0.0
H644 H 0.56595 0.70604 0.17948 0.0
H645 H 0.65817 0.80172 0.21154 0.0
H646 H 0.65175 0.81382 0.18293 0.0
H647 H 0.67122 0.79968 0.18186 0.0
H648 H 0.53969 0.71818 0.19894 0.0
H649 H 0.55264 0.75211 0.1997 0.0
H650 H 0.55636 0.73556 0.22642 0.0
H651 H 0.59661 0.7889 0.35602 0.0
H652 H 0.59309 0.84726 0.29536 0.0
H653 H 0.59455 0.85197 0.25013 0.0
H654 H 0.60105 0.80621 0.1824 0.0
H655 H 0.61157 0.75239 0.24328 0.0
H656 H 0.61097 0.74825 0.28841 0.0
H657 H 0.6038 0.95096 0.14302 0.0
H658 H 0.57554 0.92348 0.14088 0.0
H659 H 0.60715 0.92841 0.09795 0.0
C660 C 0.72931 0.59564 0.92836 0.0
C661 C 0.71136 0.59065 0.90578 0.0
C662 C 0.73463 0.58168 0.87395 0.0
C663 C 0.75558 0.60705 0.86914 0.0
C664 C 0.77692 0.61239 0.85386 0.0
C665 C 0.77735 0.592 0.8433 0.0
C666 C 0.75623 0.56649 0.84802 0.0
C667 C 0.73503 0.56174 0.86308 0.0
C668 C 0.79907 0.63982 0.84902 0.0
C669 C 0.75613 0.54422 0.83731 0.0
C670 C 0.96671 0.63757 0.87169 0.0
C671 C 0.94525 0.61929 0.89087 0.0
C672 C 0.90456 0.60204 0.86661 0.0
C673 C 0.88455 0.58004 0.85571 0.0
C674 C 0.86429 0.5801 0.84274 0.0
C675 C 0.86427 0.60298 0.8403 0.0
C676 C 0.88433 0.62535 0.85144 0.0
C677 C 0.90424 0.62466 0.86462 0.0
C678 C 0.84294 0.5557 0.83157 0.0
C679 C 0.88479 0.65002 0.84923 0.0
C680 C 0.90501 0.6156 0.67453 0.0
C681 C 0.8864 0.59161 0.68571 0.0
C682 C 0.8654 0.58848 0.70003 0.0
C683 C 0.86318 0.60986 0.70336 0.0
C684 C 0.88157 0.63389 0.69152 0.0
C685 C 0.90209 0.63634 0.67694 0.0
C686 C 0.84559 0.56236 0.7116 0.0
C687 C 0.8797 0.65703 0.69449 0.0
C688 C 0.6837 0.59381 0.69276 0.0
C689 C 0.69718 0.59752 0.66716 0.0
C690 C 0.73083 0.58846 0.67977 0.0
C691 C 0.73526 0.56857 0.6834 0.0
C692 C 0.75697 0.57203 0.69678 0.0
C693 C 0.77509 0.59631 0.70618 0.0
C694 C 0.77122 0.61681 0.70189 0.0
C695 C 0.74895 0.6126 0.68906 0.0
C696 C 0.76038 0.54969 0.70107 0.0
C697 C 0.79059 0.64318 0.71094 0.0
C698 C 0.79999 0.59725 0.82751 0.0
C699 C 0.82165 0.59955 0.83977 0.0
C700 C 0.84316 0.60331 0.82609 0.0
C701 C 0.84339 0.60534 0.79938 0.0
C702 C 0.86496 0.60973 0.78504 0.0
C703 C 0.86458 0.61067 0.75876 0.0
C704 C 0.84254 0.60709 0.74581 0.0
C705 C 0.84156 0.60704 0.71913 0.0
C706 C 0.81947 0.60372 0.70687 0.0
C707 C 0.79805 0.6002 0.72053 0.0
C708 C 0.79855 0.59994 0.74723 0.0
C709 C 0.77723 0.59613 0.7616 0.0
C710 C 0.77784 0.59573 0.78786 0.0
C711 C 0.79958 0.59862 0.80081 0.0
C712 C 0.82135 0.60261 0.78671 0.0
C713 C 0.82087 0.60335 0.7599 0.0
C714 C 0.96821 0.63189 0.67458 0.0
C715 C 0.94117 0.60964 0.66758 0.0
O716 O 0.71376 0.57542 0.88898 0.0
O717 O 0.70893 0.58343 0.66727 0.0
O718 O 0.92566 0.61921 0.66088 0.0
O719 O 0.92365 0.6004 0.87855 0.0
H720 H 0.7166 0.60914 0.89603 0.0
H721 H 0.75007 0.60599 0.92206 0.0
H722 H 0.7243 0.57726 0.93819 0.0
H723 H 0.72731 0.60767 0.94199 0.0
H724 H 0.75545 0.62275 0.87718 0.0
H725 H 0.71875 0.54226 0.86683 0.0
H726 H 0.81732 0.64246 0.8571 0.0
H727 H 0.79519 0.65363 0.85744 0.0
H728 H 0.80246 0.6443 0.82836 0.0
H729 H 0.73904 0.52545 0.84411 0.0
H730 H 0.7743 0.54491 0.84257 0.0
H731 H 0.75572 0.5456 0.81638 0.0
H732 H 0.9395 0.63027 0.90224 0.0
H733 H 0.98415 0.65246 0.88164 0.0
H734 H 0.95976 0.64739 0.85896 0.0
H735 H 0.97253 0.62692 0.85993 0.0
H736 H 0.8849 0.56268 0.85743 0.0
H737 H 0.91945 0.64186 0.87307 0.0
H738 H 0.84404 0.55812 0.81065 0.0
H739 H 0.82347 0.55148 0.83771 0.0
H740 H 0.8445 0.53902 0.83714 0.0
H741 H 0.90249 0.66614 0.85771 0.0
H742 H 0.86723 0.64733 0.85886 0.0
H743 H 0.88407 0.65522 0.82903 0.0
H744 H 0.93298 0.59633 0.68458 0.0
H745 H 0.88807 0.57527 0.68297 0.0
H746 H 0.91636 0.65466 0.66786 0.0
H747 H 0.847 0.56273 0.73249 0.0
H748 H 0.84862 0.54724 0.70519 0.0
H749 H 0.8255 0.55718 0.70671 0.0
H750 H 0.89655 0.67473 0.68551 0.0
H751 H 0.87872 0.66004 0.71485 0.0
H752 H 0.86144 0.65371 0.68577 0.0
H753 H 0.71211 0.61817 0.66337 0.0
H754 H 0.67407 0.60489 0.69276 0.0
H755 H 0.69825 0.60071 0.70807 0.0
H756 H 0.66877 0.57321 0.69691 0.0
H757 H 0.72128 0.55005 0.6761 0.0
H758 H 0.74609 0.62836 0.6863 0.0
H759 H 0.76335 0.54716 0.72145 0.0
H760 H 0.77807 0.55362 0.69063 0.0
H761 H 0.74331 0.53151 0.69464 0.0
H762 H 0.78654 0.65776 0.70339 0.0
H763 H 0.81077 0.64919 0.7052 0.0
H764 H 0.7898 0.64273 0.73187 0.0
H765 H 0.82149 0.59775 0.86024 0.0
H766 H 0.88235 0.6124 0.79398 0.0
H767 H 0.88171 0.61402 0.74872 0.0
H768 H 0.81885 0.60366 0.6864 0.0
H769 H 0.75978 0.59338 0.75271 0.0
H770 H 0.76089 0.59283 0.79789 0.0
H771 H 0.98098 0.62473 0.68039 0.0
H772 H 0.96638 0.6418 0.69064 0.0
H773 H 0.97756 0.64596 0.65831 0.0
C774 C 0.143 0.71487 0.42096 0.0
C775 C 0.12681 0.69655 0.40022 0.0
C776 C 0.15736 0.71978 0.36435 0.0
C777 C 0.15193 0.73912 0.36032 0.0
C778 C 0.16787 0.7606 0.34413 0.0
C779 C 0.18982 0.76293 0.33198 0.0
C780 C 0.19514 0.74333 0.33583 0.0
C781 C 0.17854 0.72182 0.35164 0.0
C782 C 0.16145 0.78098 0.34025 0.0
C783 C 0.21866 0.74532 0.32368 0.0
C784 C 0.30012 0.90677 0.42145 0.0
C785 C 0.31712 0.90225 0.40389 0.0
C786 C 0.29913 0.89104 0.36227 0.0
C787 C 0.30308 0.87143 0.3566 0.0
C788 C 0.28609 0.85212 0.34057 0.0
C789 C 0.26455 0.85236 0.33023 0.0
C790 C 0.26102 0.87263 0.33534 0.0
C791 C 0.27868 0.89201 0.35103 0.0
C792 C 0.29081 0.83113 0.33517 0.0
C793 C 0.23814 0.87338 0.32488 0.0
C794 C 0.3038 0.90216 0.16731 0.0
C795 C 0.30922 0.88337 0.1747 0.0
C796 C 0.29029 0.86056 0.1876 0.0
C797 C 0.26542 0.85642 0.19298 0.0
C798 C 0.25951 0.87475 0.18443 0.0
C799 C 0.27878 0.89735 0.1715 0.0
C800 C 0.29697 0.84105 0.19585 0.0
C801 C 0.23304 0.87072 0.1895 0.0
C802 C 0.10234 0.67297 0.18163 0.0
C803 C 0.11218 0.68734 0.15585 0.0
C804 C 0.15555 0.72305 0.16762 0.0
C805 C 0.18133 0.72973 0.17104 0.0
C806 C 0.19893 0.7511 0.18467 0.0
C807 C 0.19068 0.76661 0.19453 0.0
C808 C 0.16488 0.76053 0.19037 0.0
C809 C 0.14746 0.73862 0.17729 0.0
C810 C 0.22629 0.75695 0.18873 0.0
C811 C 0.15566 0.77714 0.19982 0.0
C812 C 0.20795 0.78639 0.31626 0.0
C813 C 0.22635 0.80814 0.32876 0.0
C814 C 0.24497 0.83058 0.31538 0.0
C815 C 0.24525 0.83153 0.28866 0.0
C816 C 0.26387 0.85366 0.27458 0.0
C817 C 0.26401 0.85439 0.2483 0.0
C818 C 0.24573 0.8329 0.23507 0.0
C819 C 0.24595 0.83336 0.20836 0.0
C820 C 0.22768 0.81162 0.19579 0.0
C821 C 0.20907 0.78916 0.20919 0.0
C822 C 0.20845 0.78836 0.23593 0.0
C823 C 0.19001 0.76612 0.25005 0.0
C824 C 0.18953 0.76555 0.27633 0.0
C825 C 0.2078 0.78702 0.28955 0.0
C826 C 0.22656 0.80966 0.27572 0.0
C827 C 0.22686 0.81033 0.24889 0.0
C828 C 0.35518 0.96385 0.17333 0.0
C829 C 0.34851 0.93901 0.16139 0.0
O830 O 0.14301 0.69905 0.38045 0.0
O831 O 0.1393 0.70153 0.15499 0.0
O832 O 0.32208 0.92498 0.15598 0.0
O833 O 0.31436 0.90868 0.37917 0.0
H834 H 0.11219 0.70092 0.39309 0.0
H835 H 0.15319 0.73507 0.41357 0.0
H836 H 0.15788 0.71087 0.42806 0.0
H837 H 0.13017 0.71271 0.43699 0.0
H838 H 0.13538 0.73766 0.36973 0.0
H839 H 0.18249 0.70675 0.35477 0.0
H840 H 0.17662 0.7987 0.34921 0.0
H841 H 0.1421 0.77496 0.34857 0.0
H842 H 0.16157 0.78574 0.31977 0.0
H843 H 0.22158 0.72983 0.33073 0.0
H844 H 0.23658 0.76411 0.32733 0.0
H845 H 0.21617 0.74413 0.30292 0.0
H846 H 0.30942 0.88135 0.40632 0.0
H847 H 0.30385 0.904 0.44155 0.0
H848 H 0.27915 0.89282 0.41775 0.0
H849 H 0.30381 0.9263 0.41808 0.0
H850 H 0.31932 0.87113 0.36497 0.0
H851 H 0.27596 0.90739 0.35546 0.0
H852 H 0.2897 0.82819 0.31457 0.0
H853 H 0.27536 0.8129 0.34472 0.0
H854 H 0.31014 0.83545 0.34194 0.0
H855 H 0.23743 0.88974 0.33167 0.0
H856 H 0.21958 0.85528 0.33038 0.0
H857 H 0.23943 0.87497 0.30393 0.0
H858 H 0.35349 0.92862 0.17572 0.0
H859 H 0.32815 0.8864 0.17035 0.0
H860 H 0.27464 0.91175 0.16525 0.0
H861 H 0.29641 0.83904 0.2168 0.0
H862 H 0.31664 0.84645 0.189 0.0
H863 H 0.2822 0.82205 0.18874 0.0
H864 H 0.23144 0.88673 0.18141 0.0
H865 H 0.22926 0.86883 0.21019 0.0
H866 H 0.21759 0.85262 0.18132 0.0
H867 H 0.10477 0.70025 0.15271 0.0
H868 H 0.08062 0.66142 0.18243 0.0
H869 H 0.10923 0.68674 0.19693 0.0
H870 H 0.10969 0.66004 0.18517 0.0
H871 H 0.18747 0.71773 0.16343 0.0
H872 H 0.12772 0.73406 0.17461 0.0
H873 H 0.23107 0.75941 0.20909 0.0
H874 H 0.24047 0.77523 0.17836 0.0
H875 H 0.22885 0.74164 0.18203 0.0
H876 H 0.13623 0.77172 0.19231 0.0
H877 H 0.16997 0.79758 0.19436 0.0
H878 H 0.15421 0.77532 0.22075 0.0
H879 H 0.22647 0.80744 0.34926 0.0
H880 H 0.27854 0.8707 0.28373 0.0
H881 H 0.27874 0.87201 0.2385 0.0
H882 H 0.22805 0.81213 0.1753 0.0
H883 H 0.17568 0.74888 0.24094 0.0
H884 H 0.17475 0.74798 0.28617 0.0
H885 H 0.34994 0.97521 0.16065 0.0
H886 H 0.37639 0.97564 0.17739 0.0
H887 H 0.34408 0.95928 0.19141 0.0
C888 C 0.37966 0.07663 0.64071 0.0
C889 C 0.40201 0.09927 0.62526 0.0
C890 C 0.42076 0.13588 0.65299 0.0
C891 C 0.44344 0.15337 0.66541 0.0
C892 C 0.44501 0.17351 0.6782 0.0
C893 C 0.4229 0.17566 0.67931 0.0
C894 C 0.39979 0.15801 0.66679 0.0
C895 C 0.39905 0.13849 0.65347 0.0
C896 C 0.47037 0.19248 0.69046 0.0
C897 C 0.37581 0.15967 0.66756 0.0
C898 C 0.42745 0.34539 0.60177 0.0
C899 C 0.41856 0.32198 0.6183 0.0
C900 C 0.43572 0.2994 0.64214 0.0
C901 C 0.41155 0.28065 0.65337 0.0
C902 C 0.40937 0.26086 0.66942 0.0
C903 C 0.43185 0.25999 0.67472 0.0
C904 C 0.45628 0.27908 0.66384 0.0
C905 C 0.45785 0.29849 0.64762 0.0
C906 C 0.38295 0.24071 0.68053 0.0
C907 C 0.48069 0.27887 0.66925 0.0
C908 C 0.44353 0.3035 0.83848 0.0
C909 C 0.41792 0.28452 0.83202 0.0
C910 C 0.41312 0.26324 0.81883 0.0
C911 C 0.43429 0.261 0.81189 0.0
C912 C 0.46002 0.27997 0.81851 0.0
C913 C 0.46424 0.30091 0.83182 0.0
C914 C 0.38543 0.24313 0.81228 0.0
C915 C 0.48304 0.27813 0.81145 0.0
C916 C 0.37909 0.07656 0.86865 0.0
C917 C 0.4082 0.0947 0.8622 0.0
C918 C 0.41749 0.13698 0.85065 0.0
C919 C 0.39519 0.13764 0.84522 0.0
C920 C 0.3965 0.15634 0.82812 0.0
C921 C 0.42079 0.17496 0.81662 0.0
C922 C 0.44338 0.17431 0.82218 0.0
C923 C 0.44142 0.15524 0.8392 0.0
C924 C 0.37208 0.15651 0.82271 0.0
C925 C 0.46966 0.19407 0.81056 0.0
C926 C 0.42411 0.19659 0.69326 0.0
C927 C 0.42723 0.21778 0.67921 0.0
C928 C 0.4296 0.23866 0.69104 0.0
C929 C 0.42945 0.23878 0.71772 0.0
C930 C 0.43278 0.25987 0.73027 0.0
C931 C 0.43276 0.25986 0.75653 0.0
C932 C 0.42935 0.23874 0.77126 0.0
C933 C 0.42961 0.23868 0.79794 0.0
C934 C 0.42641 0.2175 0.812 0.0
C935 C 0.42295 0.19616 0.8002 0.0
C936 C 0.42242 0.19574 0.77352 0.0
C937 C 0.41864 0.17448 0.761 0.0
C938 C 0.41884 0.17456 0.73472 0.0
C939 C 0.42295 0.19595 0.71996 0.0
C940 C 0.42602 0.21729 0.73221 0.0
C941 C 0.42582 0.21722 0.75902 0.0
C942 C 0.42753 0.3444 0.83311 0.0
C943 C 0.43293 0.33297 0.8569 0.0
O944 O 0.42077 0.11682 0.64112 0.0
O945 O 0.4163 0.11951 0.86785 0.0
O946 O 0.44935 0.32459 0.851 0.0
O947 O 0.43846 0.31845 0.62592 0.0
H948 H 0.39394 0.10868 0.61334 0.0
H949 H 0.36958 0.08313 0.65268 0.0
H950 H 0.38717 0.06716 0.65327 0.0
H951 H 0.36502 0.06234 0.62787 0.0
H952 H 0.46013 0.15131 0.66484 0.0
H953 H 0.38138 0.1253 0.6438 0.0
H954 H 0.47555 0.21239 0.68591 0.0
H955 H 0.48679 0.19065 0.68433 0.0
H956 H 0.46811 0.18918 0.71128 0.0
H957 H 0.35845 0.1427 0.65965 0.0
H958 H 0.37968 0.17705 0.65645 0.0
H959 H 0.37119 0.16145 0.6873 0.0
H960 H 0.40105 0.30426 0.61143 0.0
H961 H 0.41779 0.33813 0.58312 0.0
H962 H 0.44762 0.35179 0.59458 0.0
H963 H 0.41986 0.36838 0.62388 0.0
H964 H 0.39424 0.28118 0.64959 0.0
H965 H 0.47643 0.31306 0.63901 0.0
H966 H 0.37828 0.22134 0.67601 0.0
H967 H 0.36708 0.2432 0.67339 0.0
H968 H 0.38339 0.2416 0.70141 0.0
H969 H 0.49851 0.29618 0.66099 0.0
H970 H 0.47883 0.26166 0.66132 0.0
H971 H 0.4831 0.27767 0.68997 0.0
H972 H 0.41421 0.31668 0.86508 0.0
H973 H 0.40161 0.2861 0.83715 0.0
H974 H 0.48389 0.31558 0.83695 0.0
H975 H 0.38372 0.24177 0.79145 0.0
H976 H 0.37101 0.2474 0.81938 0.0
H977 H 0.38043 0.22414 0.82042 0.0
H978 H 0.50192 0.29488 0.81733 0.0
H979 H 0.48372 0.27672 0.79069 0.0
H980 H 0.48073 0.26046 0.82051 0.0
H981 H 0.41107 0.09387 0.84158 0.0
H982 H 0.37295 0.0564 0.8658 0.0
H983 H 0.36722 0.08113 0.85607 0.0
H984 H 0.37494 0.07829 0.88859 0.0
H985 H 0.37687 0.12377 0.85467 0.0
H986 H 0.45857 0.15464 0.84383 0.0
H987 H 0.3694 0.15722 0.80199 0.0
H988 H 0.37412 0.17395 0.83024 0.0
H989 H 0.35433 0.13941 0.83137 0.0
H990 H 0.48541 0.19116 0.81716 0.0
H991 H 0.47486 0.21354 0.81532 0.0
H992 H 0.46868 0.19324 0.78967 0.0
H993 H 0.42786 0.21804 0.65873 0.0
H994 H 0.43558 0.27668 0.71991 0.0
H995 H 0.4355 0.27666 0.76515 0.0
H996 H 0.42698 0.21777 0.83247 0.0
H997 H 0.41558 0.15758 0.77139 0.0
H998 H 0.41585 0.15766 0.72611 0.0
H999 H 0.41438 0.35114 0.83772 0.0
H1000 H 0.41783 0.3298 0.81869 0.0
H1001 H 0.4461 0.36079 0.82482 0.0
H1002 H 0.06239 0.48843 0.08522 0.0
H1003 H 0.04893 0.43437 0.0294 0.0
H1004 H 0.06448 0.41344 0.05852 0.0
H1005 H 0.0797 0.40932 0.10082 0.0
H1006 H 0.09178 0.46282 0.15696 0.0
H1007 H 0.07914 0.4853 0.12687 0.0
C1008 C 0.0631 0.47217 0.07951 0.0
C1009 C 0.05465 0.46284 0.0554 0.0
C1010 C 0.07176 0.46018 0.09641 0.0
C1011 C 0.05547 0.44178 0.04796 0.0
C1012 C 0.06428 0.42985 0.06459 0.0
C1013 C 0.07988 0.4261 0.10628 0.0
C1014 C 0.08688 0.43454 0.131 0.0
C1015 C 0.0722 0.43871 0.08898 0.0
C1016 C 0.0867 0.45611 0.13798 0.0
C1017 C 0.07937 0.46891 0.12083 0.0
H1018 H 0.56797 0.04858 0.59211 0.0
H1019 H 0.61538 0.04241 0.53643 0.0
H1020 H 0.65099 0.05656 0.56667 0.0
H1021 H 0.66733 0.06804 0.60989 0.0
H1022 H 0.61938 0.07344 0.66575 0.0
H1023 H 0.58527 0.06234 0.63464 0.0
C1024 C 0.58629 0.0507 0.58666 0.0
C1025 C 0.58934 0.04464 0.56229 0.0
C1026 C 0.60644 0.05859 0.60419 0.0
C1027 C 0.6129 0.04718 0.55518 0.0
C1028 C 0.63312 0.05515 0.57246 0.0
C1029 C 0.64959 0.06721 0.61507 0.0
C1030 C 0.64601 0.07188 0.63999 0.0
C1031 C 0.62997 0.06057 0.59713 0.0
C1032 C 0.62271 0.07024 0.64662 0.0
C1033 C 0.60317 0.0638 0.62887 0.0
H1034 H 0.53431 0.60352 0.09015 0.0
H1035 H 0.6082 0.60975 0.08086 0.0
H1036 H 0.62827 0.64395 0.11084 0.0
H1037 H 0.62416 0.67045 0.14106 0.0
H1038 H 0.54943 0.66203 0.15287 0.0
H1039 H 0.53045 0.63077 0.12004 0.0
C1040 C 0.55486 0.61261 0.09456 0.0
C1041 C 0.56982 0.60424 0.08344 0.0
C1042 C 0.56604 0.63174 0.1123 0.0
C1043 C 0.59635 0.61588 0.08939 0.0
C1044 C 0.60779 0.6354 0.10647 0.0
C1045 C 0.60367 0.66165 0.13676 0.0
C1046 C 0.58798 0.6679 0.15019 0.0
C1047 C 0.59271 0.64318 0.11837 0.0
C1048 C 0.56173 0.65702 0.14333 0.0
C1049 C 0.55087 0.63917 0.12456 0.0
H1050 H 0.96206 0.56974 0.5677 0.0
H1051 H 0.97004 0.52099 0.6229 0.0
H1052 H 0.95788 0.53846 0.65673 0.0
H1053 H 0.94767 0.56946 0.67089 0.0
H1054 H 0.94192 0.6199 0.61611 0.0
H1055 H 0.95026 0.59984 0.58185 0.0
C1056 C 0.96076 0.56273 0.58711 0.0
C1057 C 0.96701 0.54421 0.59286 0.0
C1058 C 0.95419 0.5732 0.60652 0.0
C1059 C 0.96555 0.53545 0.61809 0.0
C1060 C 0.95857 0.54538 0.63741 0.0
C1061 C 0.94782 0.57572 0.6514 0.0
C1062 C 0.94362 0.59572 0.64603 0.0
C1063 C 0.95325 0.56454 0.63189 0.0
C1064 C 0.94453 0.60416 0.62073 0.0
C1065 C 0.94946 0.59281 0.60115 0.0
H1066 H 0.41315 0.97869 0.05798 0.0
H1067 H 0.45442 0.94742 0.09491 0.0
H1068 H 0.42376 0.93173 0.131 0.0
H1069 H 0.38716 0.92976 0.15313 0.0
H1070 H 0.34586 0.96123 0.11628 0.0
H1071 H 0.37446 0.97403 0.07899 0.0
C1072 C 0.415 0.96806 0.07383 0.0
C1073 C 0.43569 0.96399 0.07404 0.0
C1074 C 0.39752 0.95943 0.09451 0.0
C1075 C 0.43839 0.9505 0.09455 0.0
C1076 C 0.421 0.94169 0.11513 0.0
C1077 C 0.38428 0.93918 0.13682 0.0
C1078 C 0.36458 0.94473 0.13749 0.0
C1079 C 0.40078 0.94646 0.11551 0.0
C1080 C 0.36099 0.95688 0.1162 0.0
C1081 C 0.37732 0.9642 0.09492 0.0
H1082 H 0.42971 0.40728 0.55976 0.0
H1083 H 0.50758 0.44518 0.58995 0.0
H1084 H 0.49684 0.41275 0.62372 0.0
H1085 H 0.46154 0.36488 0.65116 0.0
H1086 H 0.3678 0.32016 0.6171 0.0
H1087 H 0.38603 0.36218 0.57982 0.0
C1088 C 0.44297 0.40714 0.57355 0.0
C1089 C 0.46929 0.42752 0.57366 0.0
C1090 C 0.43353 0.3871 0.59144 0.0
C1091 C 0.48767 0.42879 0.5913 0.0
C1092 C 0.48177 0.41033 0.61085 0.0
C1093 C 0.44727 0.36488 0.6387 0.0
C1094 C 0.41384 0.33583 0.63529 0.0
C1095 C 0.45669 0.38919 0.61385 0.0
C1096 C 0.38767 0.33653 0.61719 0.0
C1097 C 0.3995 0.36199 0.59325 0.0
H1098 H 0.53165 0.93744 0.42085 0.0
H1099 H 0.60494 0.99157 0.45518 0.0
H1100 H 0.63076 0.97952 0.43168 0.0
H1101 H 0.63692 0.94883 0.39661 0.0
H1102 H 0.55099 0.88653 0.35233 0.0
H1103 H 0.52539 0.90544 0.38213 0.0
C1104 C 0.55243 0.94534 0.42257 0.0
C1105 C 0.56742 0.96509 0.4392 0.0
C1106 C 0.56411 0.93639 0.40751 0.0
C1107 C 0.5948 0.97658 0.44188 0.0
C1108 C 0.60997 0.96986 0.42852 0.0
C1109 C 0.61658 0.94168 0.39291 0.0
C1110 C 0.59585 0.91253 0.37472 0.0
C1111 C 0.59847 0.95108 0.41117 0.0
C1112 C 0.56195 0.902 0.3649 0.0
C1113 C 0.54601 0.91298 0.38437 0.0
H1114 H 0.59501 0.51992 0.94858 0.0
H1115 H 0.61074 0.59286 0.9711 0.0
H1116 H 0.65342 0.61469 0.94933 0.0
H1117 H 0.68735 0.61252 0.92632 0.0
H1118 H 0.6729 0.53877 0.90783 0.0
H1119 H 0.62883 0.51775 0.92563 0.0
C1120 C 0.60781 0.54061 0.9485 0.0
C1121 C 0.59998 0.55487 0.96131 0.0
C1122 C 0.63257 0.55282 0.93679 0.0
C1123 C 0.61652 0.58163 0.96122 0.0
C1124 C 0.64088 0.59403 0.94892 0.0
C1125 C 0.67437 0.59188 0.92593 0.0
C1126 C 0.68328 0.5774 0.91521 0.0
C1127 C 0.64928 0.57977 0.93698 0.0
C1128 C 0.66649 0.55055 0.9154 0.0
C1129 C 0.64127 0.53845 0.92572 0.0
H1130 H 0.08066 0.58298 0.4455 0.0
H1131 H 0.02444 0.59691 0.47737 0.0
H1132 H 0.04593 0.63917 0.45525 0.0
H1133 H 0.08162 0.67262 0.42785 0.0
H1134 H 0.13985 0.65977 0.3988 0.0
H1135 H 0.11681 0.61675 0.41873 0.0
C1136 C 0.07323 0.59538 0.44752 0.0
C1137 C 0.05112 0.58707 0.46293 0.0
C1138 C 0.08602 0.61977 0.43522 0.0
C1139 C 0.04147 0.60307 0.46551 0.0
C1140 C 0.05375 0.62716 0.45292 0.0
C1141 C 0.08906 0.66025 0.4257 0.0
C1142 C 0.11203 0.66922 0.41132 0.0
C1143 C 0.07613 0.63577 0.43784 0.0
C1144 C 0.12189 0.65324 0.40922 0.0
C1145 C 0.10881 0.62865 0.42075 0.0
H1146 H 0.46721 0.04387 0.91025 0.0
H1147 H 0.46088 0.07801 0.97682 0.0
H1148 H 0.44069 0.09713 0.95206 0.0
H1149 H 0.42249 0.10205 0.91191 0.0
H1150 H 0.42814 0.06709 0.84572 0.0
H1151 H 0.45064 0.05011 0.86996 0.0
C1152 C 0.46137 0.05545 0.91936 0.0
C1153 C 0.4654 0.05935 0.94538 0.0
C1154 C 0.44956 0.06616 0.90508 0.0
C1155 C 0.45818 0.07485 0.95679 0.0
C1156 C 0.44647 0.08565 0.94267 0.0
C1157 C 0.42901 0.09103 0.90276 0.0
C1158 C 0.42401 0.08614 0.87697 0.0
C1159 C 0.44179 0.08119 0.91687 0.0
C1160 C 0.43209 0.0714 0.86545 0.0
C1161 C 0.44486 0.06161 0.87932 0.0
H1162 H 0.40337 0.43041 0.44029 0.0
H1163 H 0.40669 0.50098 0.4522 0.0
H1164 H 0.36523 0.48744 0.43247 0.0
H1165 H 0.31832 0.45136 0.40687 0.0
H1166 H 0.31267 0.36644 0.39348 0.0
H1167 H 0.36247 0.38749 0.41826 0.0
C1168 C 0.39485 0.44191 0.43752 0.0
C1169 C 0.40691 0.46648 0.44746 0.0
C1170 C 0.37108 0.43132 0.42554 0.0
C1171 C 0.39612 0.48204 0.44473 0.0
C1172 C 0.37223 0.47456 0.43334 0.0
C1173 C 0.3259 0.43909 0.4099 0.0
C1174 C 0.31241 0.40844 0.39354 0.0
C1175 C 0.35738 0.45067 0.42361 0.0
C1176 C 0.32221 0.38507 0.40151 0.0
C1177 C 0.35384 0.39887 0.41561 0.0
H1178 H 0.98996 0.40742 0.92763 0.0
H1179 H 0.92293 0.4145 0.93203 0.0
H1180 H 0.8967 0.37491 0.90994 0.0
H1181 H 0.89194 0.3367 0.89203 0.0
H1182 H 0.95886 0.32958 0.88734 0.0
H1183 H 0.98603 0.37081 0.90671 0.0
C1184 C 0.96976 0.40056 0.92333 0.0
C1185 C 0.95838 0.41379 0.93173 0.0
C1186 C 0.95472 0.3777 0.91065 0.0
C1187 C 0.93206 0.40445 0.92621 0.0
C1188 C 0.91705 0.38185 0.91349 0.0
C1189 C 0.91259 0.34445 0.89475 0.0
C1190 C 0.92349 0.33032 0.8878 0.0
C1191 C 0.92803 0.36806 0.90604 0.0
C1192 C 0.95015 0.34032 0.8921 0.0
C1193 C 0.96564 0.36381 0.90329 0.0
H1194 H 0.9936 0.5807 0.97528 0.0
H1195 H 0.97875 0.52664 0.91893 0.0
H1196 H 0.96113 0.54617 0.89069 0.0
H1197 H 0.95021 0.57874 0.88211 0.0
H1198 H 0.96448 0.63264 0.9386 0.0
H1199 H 0.98217 0.61321 0.96678 0.0
C1200 C 0.98639 0.57327 0.95682 0.0
C1201 C 0.9873 0.55235 0.94902 0.0
C1202 C 0.9762 0.58452 0.94084 0.0
C1203 C 0.97811 0.54277 0.92513 0.0
C1204 C 0.96808 0.55391 0.90907 0.0
C1205 C 0.95695 0.58605 0.9007 0.0
C1206 C 0.95554 0.60676 0.9085 0.0
C1207 C 0.96701 0.57477 0.91674 0.0
C1208 C 0.96495 0.61644 0.93238 0.0
C1209 C 0.97512 0.60539 0.94844 0.0
H1210 H 0.43288 0.94128 0.43783 0.0
H1211 H 0.42853 0.00444 0.46215 0.0
H1212 H 0.38582 0.9868 0.44232 0.0
H1213 H 0.34827 0.95148 0.42145 0.0
H1214 H 0.35098 0.88614 0.40088 0.0
H1215 H 0.39593 0.90671 0.41535 0.0
C1216 C 0.42256 0.95119 0.43852 0.0
C1217 C 0.4335 0.9739 0.45153 0.0
C1218 C 0.39769 0.94043 0.42795 0.0
C1219 C 0.42028 0.98685 0.45226 0.0
C1220 C 0.39588 0.97671 0.44104 0.0
C1221 C 0.35852 0.94158 0.42025 0.0
C1222 C 0.3458 0.91677 0.41093 0.0
C1223 C 0.38408 0.95315 0.42942 0.0
C1224 C 0.36004 0.90493 0.40855 0.0
C1225 C 0.38574 0.91666 0.41684 0.0
H1226 H 0.50114 0.42374 0.92989 0.0
H1227 H 0.42479 0.40744 0.95033 0.0
H1228 H 0.40451 0.37213 0.92153 0.0
H1229 H 0.40875 0.34673 0.88961 0.0
H1230 H 0.48558 0.36551 0.86697 0.0
H1231 H 0.5054 0.39886 0.89753 0.0
C1232 C 0.48006 0.41227 0.92812 0.0
C1233 C 0.4644 0.41796 0.94218 0.0
C1234 C 0.46865 0.39246 0.91115 0.0
C1235 C 0.43715 0.40333 0.93956 0.0
C1236 C 0.42559 0.38318 0.92316 0.0
C1237 C 0.42981 0.358 0.8916 0.0
C1238 C 0.44552 0.35312 0.87651 0.0
C1239 C 0.44117 0.37768 0.90873 0.0
C1240 C 0.47289 0.36834 0.87875 0.0
C1241 C 0.4843 0.38755 0.89614 0.0
H1242 H 0.05758 0.43791 0.4628 0.0
H1243 H 0.03269 0.46571 0.39954 0.0
H1244 H 0.04786 0.44663 0.3703 0.0
H1245 H 0.06889 0.42262 0.36275 0.0
H1246 H 0.09252 0.39375 0.42615 0.0
H1247 H 0.07758 0.41304 0.45531 0.0
C1248 C 0.05562 0.43989 0.4426 0.0
C1249 C 0.04414 0.45329 0.43333 0.0
C1250 C 0.06425 0.42878 0.42595 0.0
C1251 C 0.0413 0.45535 0.40714 0.0
C1252 C 0.05009 0.44455 0.39042 0.0
C1253 C 0.07059 0.42044 0.38296 0.0
C1254 C 0.08172 0.4067 0.39227 0.0
C1255 C 0.06164 0.43128 0.39962 0.0
C1256 C 0.08401 0.40419 0.41851 0.0
C1257 C 0.07546 0.4152 0.43518 0.0
H1258 H 0.59219 0.06888 0.94168 0.0
H1259 H 0.58892 1.00003 0.96697 0.0
H1260 H 0.63057 0.01499 0.94515 0.0
H1261 H 0.66912 0.04898 0.92148 0.0
H1262 H 0.67433 0.11978 0.89986 0.0
H1263 H 0.63053 0.10263 0.91724 0.0
C1264 C 0.60065 0.0572 0.94222 0.0
C1265 C 0.58784 0.03357 0.95596 0.0
C1266 C 0.62496 0.06635 0.93044 0.0
C1267 C 0.59865 0.01834 0.95649 0.0
C1268 C 0.62243 0.02694 0.94413 0.0
C1269 C 0.66092 0.06084 0.92069 0.0
C1270 C 0.6755 0.08607 0.91003 0.0
C1271 C 0.63604 0.05117 0.9315 0.0
C1272 C 0.6638 0.10054 0.90839 0.0
C1273 C 0.63876 0.09077 0.91836 0.0
H1274 H 0.53911 0.5737 0.43094 0.0
H1275 H 0.58405 0.60772 0.49721 0.0
H1276 H 0.60996 0.6492 0.47379 0.0
H1277 H 0.61949 0.67569 0.43423 0.0
H1278 H 0.57569 0.64048 0.36753 0.0
H1279 H 0.54994 0.59948 0.39112 0.0
C1280 C 0.55472 0.59023 0.4401 0.0
C1281 C 0.55982 0.58789 0.46561 0.0
C1282 C 0.56967 0.61372 0.42644 0.0
C1283 C 0.57992 0.60929 0.47751 0.0
C1284 C 0.59468 0.6329 0.46414 0.0
C1285 C 0.60423 0.65903 0.42496 0.0
C1286 C 0.59899 0.66131 0.39939 0.0
C1287 C 0.58968 0.63536 0.43858 0.0
C1288 C 0.57965 0.63939 0.38737 0.0
C1289 C 0.56497 0.61592 0.40081 0.0
H1290 H 0.44555 0.06077 0.5411 0.0
H1291 H 0.47833 0.04496 0.60674 0.0
H1292 H 0.45907 0.06179 0.63384 0.0
H1293 H 0.43277 0.08082 0.63894 0.0
H1294 H 0.39928 0.09602 0.57358 0.0
H1295 H 0.41919 0.0799 0.54625 0.0
C1296 C 0.44864 0.06122 0.56131 0.0
C1297 C 0.46332 0.0516 0.5719 0.0
C1298 C 0.43743 0.07085 0.5768 0.0
C1299 C 0.46686 0.05197 0.59817 0.0
C1300 C 0.45597 0.0617 0.61365 0.0
C1301 C 0.42992 0.08065 0.6187 0.0
C1302 C 0.41475 0.08977 0.60827 0.0
C1303 C 0.44117 0.07112 0.60319 0.0
C1304 C 0.41102 0.08927 0.58203 0.0
C1305 C 0.42235 0.08002 0.56642 0.0
H1306 H 0.44605 0.50094 0.08636 0.0
H1307 H 0.41812 0.43221 0.04618 0.0
H1308 H 0.37753 0.41026 0.07158 0.0
H1309 H 0.35035 0.41078 0.10558 0.0
H1310 H 0.37885 0.47952 0.14622 0.0
H1311 H 0.41888 0.50143 0.12038 0.0
C1312 C 0.43094 0.48118 0.08326 0.0
C1313 C 0.4347 0.46805 0.06461 0.0
C1314 C 0.40785 0.46882 0.09793 0.0
C1315 C 0.41532 0.44249 0.06055 0.0
C1316 C 0.39224 0.43004 0.07502 0.0
C1317 C 0.36525 0.43062 0.10856 0.0
C1318 C 0.3614 0.44369 0.12736 0.0
C1319 C 0.3883 0.44302 0.09378 0.0
C1320 C 0.38114 0.46923 0.13149 0.0
C1321 C 0.40406 0.48173 0.11682 0.0
H1322 H 0.96704 0.39868 0.54509 0.0
H1323 H 0.94784 0.44216 0.59114 0.0
H1324 H 0.92549 0.40584 0.62212 0.0
H1325 H 0.913 0.36223 0.63667 0.0
H1326 H 0.93364 0.31937 0.59104 0.0
H1327 H 0.95358 0.35467 0.55914 0.0
C1328 C 0.95773 0.39994 0.56187 0.0
C1329 C 0.95884 0.42272 0.56607 0.0
C1330 C 0.94523 0.37914 0.57956 0.0
C1331 C 0.94698 0.42458 0.58774 0.0
C1332 C 0.93431 0.4039 0.60536 0.0
C1333 C 0.92171 0.36061 0.61964 0.0
C1334 C 0.92176 0.3382 0.61618 0.0
C1335 C 0.93351 0.38116 0.60157 0.0
C1336 C 0.93324 0.33637 0.59409 0.0
C1337 C 0.94471 0.35656 0.57589 0.0
H1338 H 0.59008 0.97953 0.07799 0.0
H1339 H 0.51596 0.90763 0.07179 0.0
H1340 H 0.53083 0.88171 0.09181 0.0
H1341 H 0.56888 0.87468 0.11749 0.0
H1342 H 0.65752 0.9596 0.1252 0.0
H1343 H 0.63523 0.98545 0.09882 0.0
C1344 C 0.57822 0.95902 0.08188 0.0
C1345 C 0.55208 0.9446 0.07373 0.0
C1346 C 0.58964 0.94721 0.094 0.0
C1347 C 0.53604 0.91753 0.07794 0.0
C1348 C 0.54426 0.90223 0.08957 0.0
C1349 C 0.58159 0.89501 0.11302 0.0
C1350 C 0.61407 0.91491 0.12806 0.0
C1351 C 0.56943 0.91325 0.09815 0.0
C1352 C 0.63795 0.94893 0.11784 0.0
C1353 C 0.62348 0.96496 0.1027 0.0
H1354 H 0.61332 0.58011 0.58475 0.0
H1355 H 0.59913 0.50383 0.58906 0.0
H1356 H 0.63424 0.51716 0.61955 0.0
H1357 H 0.66737 0.55 0.64669 0.0
H1358 H 0.68144 0.62626 0.64204 0.0
H1359 H 0.64755 0.61328 0.61035 0.0
C1360 C 0.6179 0.5664 0.5924 0.0
C1361 C 0.60354 0.54099 0.58481 0.0
C1362 C 0.63796 0.57415 0.60996 0.0
C1363 C 0.61001 0.52355 0.59449 0.0
C1364 C 0.62995 0.53111 0.61205 0.0
C1365 C 0.66332 0.56388 0.63844 0.0
C1366 C 0.67729 0.58925 0.64634 0.0
C1367 C 0.64387 0.55631 0.62013 0.0
C1368 C 0.67128 0.60679 0.63591 0.0
C1369 C 0.65187 0.59936 0.61787 0.0
H1370 H 0.04696 0.60406 0.07555 0.0
H1371 H 0.11601 0.60018 0.07473 0.0
H1372 H 0.13678 0.63427 0.10483 0.0
H1373 H 0.13426 0.66359 0.13307 0.0
H1374 H 0.06514 0.66745 0.13321 0.0
H1375 H 0.04523 0.63458 0.10201 0.0
C1376 C 0.06656 0.61068 0.08199 0.0
C1377 C 0.07985 0.59949 0.07311 0.0
C1378 C 0.07829 0.63017 0.09925 0.0
C1379 C 0.10542 0.60857 0.08122 0.0
C1380 C 0.11723 0.62794 0.09853 0.0
C1381 C 0.11503 0.65755 0.12595 0.0
C1382 C 0.10137 0.66833 0.1351 0.0
C1383 C 0.10374 0.6387 0.10789 0.0
C1384 C 0.07619 0.65977 0.12612 0.0
C1385 C 0.06478 0.64094 0.10837 0.0
loop_
_geom_bond_atom_site_label_1
_geom_bond_atom_site_label_2
_geom_bond_distance
_geom_bond_site_symmetry_2
_ccdc_geom_bond_type
C0 C1 1.443 . S
C0 N4 1.376 1_556 S
C0 C38 1.389 . S
C1 C0 1.443 . S
C1 C2 1.340 1_556 S
C1 H41 0.951 . S
C2 C1 1.340 1_554 S
C2 C3 1.439 . S
C2 H42 0.950 . S
C3 C2 1.439 . S
C3 N4 1.374 . S
C3 C37 1.395 . S
N4 C0 1.376 1_554 S
N4 C3 1.374 . S
N4 Co5 2.008 1_655 S
Co5 N4 2.008 1_455 S
Co5 N6 1.998 . S
Co5 N11 2.007 1_554 S
Co5 N16 1.991 1_554 S
Co5 N21 2.286 . S
Co5 N27 2.279 1_554 S
N6 Co5 1.998 . S
N6 C7 1.376 1_455 S
N6 C10 1.383 . S
C7 N6 1.376 1_655 S
C7 C8 1.446 . S
C7 C37 1.391 . S
C8 C7 1.446 . S
C8 C9 1.339 1_655 S
C8 H43 0.949 . S
C9 C8 1.339 1_455 S
C9 C10 1.439 . S
C9 H44 0.950 . S
C10 N6 1.383 . S
C10 C9 1.439 . S
C10 C39 1.392 . S
N11 Co5 2.007 1_556 S
N11 C12 1.346 1_556 S
N11 C15 1.401 . S
C12 N11 1.346 1_554 S
C12 C13 1.443 . S
C12 C39 1.389 . S
C13 C12 1.443 . S
C13 C14 1.340 1_554 S
C13 H45 0.951 . S
C14 C13 1.340 1_556 S
C14 C15 1.439 . S
C14 H46 0.950 . S
C15 N11 1.401 . S
C15 C14 1.439 . S
C15 C40 1.395 . S
N16 Co5 1.991 1_556 S
N16 C17 1.376 . S
N16 C20 1.383 . S
C17 N16 1.376 . S
C17 C18 1.446 . S
C17 C40 1.391 . S
C18 C17 1.446 . S
C18 C19 1.339 . S
C18 H47 0.949 . S
C19 C18 1.339 . S
C19 C20 1.439 . S
C19 H48 0.950 . S
C20 N16 1.383 . S
C20 C19 1.439 . S
C20 C38 1.392 1_455 S
N21 Co5 2.286 . S
N21 C24 1.332 . S
N21 C26 1.332 . S
C22 C23 1.386 . S
C22 C25 1.388 . S
C23 C22 1.386 . S
C23 C24 1.382 . S
C23 H49 0.950 . S
C24 N21 1.332 . S
C24 C23 1.382 . S
C24 H35 0.952 . S
C25 C22 1.388 . S
C25 C26 1.382 . S
C25 H50 0.950 . S
C26 N21 1.332 . S
C26 C25 1.382 . S
C26 H36 0.948 . S
N27 Co5 2.279 1_556 S
N27 C31 1.332 1_455 S
N27 C32 1.332 . S
C28 C29 1.388 . S
C28 C32 1.382 1_655 S
C28 H51 0.950 1_655 S
C29 C28 1.388 . S
C29 C30 1.386 . S
C30 C29 1.386 . S
C30 C31 1.382 . S
C30 H52 0.950 . S
C31 N27 1.332 1_655 S
C31 C30 1.382 . S
C31 H33 0.952 . S
C32 N27 1.332 . S
C32 C28 1.382 1_455 S
C32 H34 0.948 . S
H33 C31 0.952 . S
H34 C32 0.948 . S
H35 C24 0.952 . S
H36 C26 0.948 . S
C37 C3 1.395 . S
C37 C7 1.391 . S
C38 C0 1.389 . S
C38 C20 1.392 1_655 S
C39 C10 1.392 . S
C39 C12 1.389 . S
C40 C15 1.395 . S
C40 C17 1.391 . S
H41 C1 0.951 . S
H42 C2 0.950 . S
H43 C8 0.949 . S
H44 C9 0.950 . S
H45 C13 0.951 . S
H46 C14 0.950 . S
H47 C18 0.949 . S
H48 C19 0.950 . S
H49 C23 0.950 . S
H50 C25 0.950 . S
H51 C28 0.950 1_455 S
H52 C30 0.950 . S
C53 C54 1.443 . S
C53 N57 1.376 1_545 S
C53 C91 1.389 . S
C54 C53 1.443 . S
C54 C55 1.340 1_545 S
C54 H94 0.951 . S
C55 C54 1.340 1_565 S
C55 C56 1.439 . S
C55 H95 0.950 . S
C56 C55 1.439 . S
C56 N57 1.374 . S
C56 C90 1.395 . S
N57 C53 1.376 1_565 S
N57 C56 1.374 . S
N57 Co58 2.008 1_565 S
Co58 N57 2.008 1_545 S
Co58 N59 1.995 1_545 S
Co58 N64 2.008 . S
Co58 N69 1.995 . S
Co58 N74 2.282 1_545 S
Co58 N80 2.282 . S
N59 Co58 1.995 1_565 S
N59 C60 1.376 . S
N59 C63 1.383 . S
C60 N59 1.376 . S
C60 C61 1.446 . S
C60 C90 1.391 . S
C61 C60 1.446 . S
C61 C62 1.339 . S
C61 H96 0.949 . S
C62 C61 1.339 . S
C62 C63 1.439 . S
C62 H97 0.950 . S
C63 N59 1.383 . S
C63 C62 1.439 . S
C63 C92 1.392 . S
N64 Co58 2.008 . S
N64 C65 1.376 1_545 S
N64 C68 1.374 . S
C65 N64 1.376 1_565 S
C65 C66 1.443 1_565 S
C65 C92 1.389 . S
C66 C65 1.443 1_545 S
C66 C67 1.340 . S
C66 H98 0.956 . S
C67 C66 1.340 . S
C67 C68 1.439 . S
C67 H99 0.950 . S
C68 N64 1.374 . S
C68 C67 1.439 . S
C68 C93 1.395 . S
N69 Co58 1.995 . S
N69 C70 1.376 . S
N69 C73 1.383 . S
C70 N69 1.376 . S
C70 C71 1.446 . S
C70 C93 1.391 . S
C71 C70 1.446 . S
C71 C72 1.339 . S
C71 H100 0.949 . S
C72 C71 1.339 . S
C72 C73 1.439 . S
C72 H101 0.950 . S
C73 N69 1.383 . S
C73 C72 1.439 . S
C73 C91 1.392 . S
N74 Co58 2.282 1_565 S
N74 C77 1.332 . S
N74 C79 1.332 . S
C75 C76 1.386 . S
C75 C78 1.388 . S
C76 C75 1.386 . S
C76 C77 1.382 . S
C76 H102 0.950 . S
C77 N74 1.332 . S
C77 C76 1.382 . S
C77 H88 0.952 1_565 S
C78 C75 1.388 . S
C78 C79 1.382 . S
C78 H103 0.950 . S
C79 N74 1.332 . S
C79 C78 1.382 . S
C79 H89 0.948 . S
N80 Co58 2.282 . S
N80 C84 1.332 . S
N80 C85 1.332 . S
C81 C82 1.388 . S
C81 C85 1.382 . S
C81 H104 0.950 . S
C82 C81 1.388 . S
C82 C83 1.386 . S
C83 C82 1.386 . S
C83 C84 1.382 . S
C83 H105 0.950 . S
C84 N80 1.332 . S
C84 C83 1.382 . S
C84 H86 0.952 1_545 S
C85 N80 1.332 . S
C85 C81 1.382 . S
C85 H87 0.948 . S
H86 C84 0.952 1_565 S
H87 C85 0.948 . S
H88 C77 0.952 1_545 S
H89 C79 0.948 . S
C90 C56 1.395 . S
C90 C60 1.391 . S
C91 C53 1.389 . S
C91 C73 1.392 . S
C92 C63 1.392 . S
C92 C65 1.389 . S
C93 C68 1.395 . S
C93 C70 1.391 . S
H94 C54 0.951 . S
H95 C55 0.950 . S
H96 C61 0.949 . S
H97 C62 0.950 . S
H98 C66 0.956 . S
H99 C67 0.950 . S
H100 C71 0.949 . S
H101 C72 0.950 . S
H102 C76 0.950 . S
H103 C78 0.950 . S
H104 C81 0.950 . S
H105 C83 0.950 . S
C106 C107 1.443 . S
C106 N110 1.376 . S
C106 C144 1.389 . S
C107 C106 1.443 . S
C107 C108 1.340 . S
C107 H147 0.951 . S
C108 C107 1.340 . S
C108 C109 1.439 . S
C108 H148 0.950 . S
C109 C108 1.439 . S
C109 N110 1.374 . S
C109 C143 1.395 . S
N110 C106 1.376 . S
N110 C109 1.374 . S
N110 Co111 2.008 1_556 S
Co111 N110 2.008 1_554 S
Co111 N112 1.995 . S
Co111 N117 2.008 . S
Co111 N122 1.995 . S
Co111 N127 2.282 . S
Co111 N133 2.282 1_554 S
N112 Co111 1.995 . S
N112 C113 1.376 1_554 S
N112 C116 1.383 . S
C113 N112 1.376 1_556 S
C113 C114 1.446 . S
C113 C143 1.391 . S
C114 C113 1.446 . S
C114 C115 1.339 1_556 S
C114 H149 0.949 . S
C115 C114 1.339 1_554 S
C115 C116 1.439 . S
C115 H150 0.950 . S
C116 N112 1.383 . S
C116 C115 1.439 . S
C116 C145 1.392 . S
N117 Co111 2.008 . S
N117 C118 1.376 . S
N117 C121 1.374 . S
C118 N117 1.376 . S
C118 C119 1.443 . S
C118 C145 1.389 . S
C119 C118 1.443 . S
C119 C120 1.340 . S
C119 H151 0.951 . S
C120 C119 1.340 . S
C120 C121 1.439 . S
C120 H152 0.950 . S
C121 N117 1.374 . S
C121 C120 1.439 . S
C121 C146 1.395 . S
N122 Co111 1.995 . S
N122 C123 1.376 . S
N122 C126 1.383 1_554 S
C123 N122 1.376 . S
C123 C124 1.446 . S
C123 C146 1.391 . S
C124 C123 1.446 . S
C124 C125 1.339 . S
C124 H153 0.949 . S
C125 C124 1.339 . S
C125 C126 1.439 1_554 S
C125 H154 0.950 1_554 S
C126 N122 1.383 1_556 S
C126 C125 1.439 1_556 S
C126 C144 1.392 . S
N127 Co111 2.282 . S
N127 C130 1.332 . S
N127 C132 1.332 . S
C128 C129 1.386 . S
C128 C131 1.388 . S
C129 C128 1.386 . S
C129 C130 1.382 . S
C129 H155 0.950 . S
C130 N127 1.332 . S
C130 C129 1.382 . S
C130 H141 0.952 . S
C131 C128 1.388 . S
C131 C132 1.382 . S
C131 H156 0.950 . S
C132 N127 1.332 . S
C132 C131 1.382 . S
C132 H142 0.948 . S
N133 Co111 2.282 1_556 S
N133 C137 1.332 . S
N133 C138 1.332 . S
C134 C135 1.388 . S
C134 C138 1.382 . S
C134 H157 0.950 . S
C135 C134 1.388 . S
C135 C136 1.386 . S
C136 C135 1.386 . S
C136 C137 1.382 . S
C136 H158 0.950 . S
C137 N133 1.332 . S
C137 C136 1.382 . S
C137 H139 0.952 . S
C138 N133 1.332 . S
C138 C134 1.382 . S
C138 H140 0.948 1_556 S
H139 C137 0.952 . S
H140 C138 0.948 1_554 S
H141 C130 0.952 . S
H142 C132 0.948 . S
C143 C109 1.395 . S
C143 C113 1.391 . S
C144 C106 1.389 . S
C144 C126 1.392 . S
C145 C116 1.392 . S
C145 C118 1.389 . S
C146 C121 1.395 . S
C146 C123 1.391 . S
H147 C107 0.951 . S
H148 C108 0.950 . S
H149 C114 0.949 . S
H150 C115 0.950 . S
H151 C119 0.951 . S
H152 C120 0.950 . S
H153 C124 0.949 . S
H154 C125 0.950 1_556 S
H155 C129 0.950 . S
H156 C131 0.950 . S
H157 C134 0.950 . S
H158 C136 0.950 . S
C159 C160 1.443 . S
C159 N163 1.376 . S
C159 C197 1.389 . S
C160 C159 1.443 . S
C160 C161 1.340 . S
C160 H200 0.951 . S
C161 C160 1.340 . S
C161 C162 1.439 . S
C161 H201 0.950 . S
C162 C161 1.439 . S
C162 N163 1.374 . S
C162 C196 1.395 . S
N163 C159 1.376 . S
N163 C162 1.374 . S
N163 Co164 2.008 1_655 S
Co164 N163 2.008 1_455 S
Co164 N165 1.995 1_455 S
Co164 N170 2.008 . S
Co164 N175 1.995 . S
Co164 N180 2.282 . S
Co164 N186 2.282 1_455 S
N165 Co164 1.995 1_655 S
N165 C166 1.376 . S
N165 C169 1.383 1_655 S
C166 N165 1.376 . S
C166 C167 1.446 . S
C166 C196 1.391 . S
C167 C166 1.446 . S
C167 C168 1.366 . S
C167 H202 0.949 . S
C168 C167 1.366 . S
C168 C169 1.414 1_655 S
C168 H203 0.948 1_655 S
C169 N165 1.383 1_455 S
C169 C168 1.414 1_455 S
C169 C198 1.392 . S
N170 Co164 2.008 . S
N170 C171 1.376 . S
N170 C174 1.374 . S
C171 N170 1.376 . S
C171 C172 1.443 . S
C171 C198 1.389 . S
C172 C171 1.443 . S
C172 C173 1.340 . S
C172 H204 0.951 . S
C173 C172 1.340 . S
C173 C174 1.439 . S
C173 H205 0.950 . S
C174 N170 1.374 . S
C174 C173 1.439 . S
C174 C199 1.395 . S
N175 Co164 1.995 . S
N175 C176 1.376 . S
N175 C179 1.383 1_455 S
C176 N175 1.376 . S
C176 C177 1.446 . S
C176 C199 1.391 . S
C177 C176 1.446 . S
C177 C178 1.339 . S
C177 H206 0.949 . S
C178 C177 1.339 . S
C178 C179 1.439 1_455 S
C178 H207 0.950 1_455 S
C179 N175 1.383 1_655 S
C179 C178 1.439 1_655 S
C179 C197 1.392 . S
N180 Co164 2.282 . S
N180 C183 1.332 . S
N180 C185 1.332 . S
C181 C182 1.386 . S
C181 C184 1.388 . S
C182 C181 1.386 . S
C182 C183 1.382 . S
C182 H208 0.950 . S
C183 N180 1.332 . S
C183 C182 1.382 . S
C183 H194 0.952 . S
C184 C181 1.388 . S
C184 C185 1.382 . S
C184 H209 0.950 . S
C185 N180 1.332 . S
C185 C184 1.382 . S
C185 H195 0.948 1_455 S
N186 Co164 2.282 1_655 S
N186 C190 1.332 . S
N186 C191 1.332 . S
C187 C188 1.388 . S
C187 C191 1.382 . S
C187 H210 0.950 . S
C188 C187 1.388 . S
C188 C189 1.386 . S
C189 C188 1.386 . S
C189 C190 1.382 . S
C189 H211 0.950 . S
C190 N186 1.332 . S
C190 C189 1.382 . S
C190 H192 0.952 . S
C191 N186 1.332 . S
C191 C187 1.382 . S
C191 H193 0.948 1_655 S
H192 C190 0.952 . S
H193 C191 0.948 1_455 S
H194 C183 0.952 . S
H195 C185 0.948 1_655 S
C196 C162 1.395 . S
C196 C166 1.391 . S
C197 C159 1.389 . S
C197 C179 1.392 . S
C198 C169 1.392 . S
C198 C171 1.389 . S
C199 C174 1.395 . S
C199 C176 1.391 . S
H200 C160 0.951 . S
H201 C161 0.950 . S
H202 C167 0.949 . S
H203 C168 0.948 1_455 S
H204 C172 0.951 . S
H205 C173 0.950 . S
H206 C177 0.949 . S
H207 C178 0.950 1_655 S
H208 C182 0.950 . S
H209 C184 0.950 . S
H210 C187 0.950 . S
H211 C189 0.950 . S
C212 C213 1.443 1_565 S
C212 N216 1.376 1_565 S
C212 C250 1.389 . S
C213 C212 1.443 1_545 S
C213 C214 1.340 . S
C213 H253 0.951 . S
C214 C213 1.340 . S
C214 C215 1.439 . S
C214 H254 0.950 . S
C215 C214 1.439 . S
C215 N216 1.374 . S
C215 C249 1.395 . S
N216 C212 1.376 1_545 S
N216 C215 1.374 . S
N216 Co217 2.008 . S
Co217 N216 2.008 . S
Co217 N218 1.995 . S
Co217 N223 2.005 1_544 S
Co217 N228 1.995 1_545 S
Co217 N233 2.282 1_554 S
Co217 N239 2.282 1_545 S
N218 Co217 1.995 . S
N218 C219 1.376 . S
N218 C222 1.383 1_554 S
C219 N218 1.376 . S
C219 C220 1.446 . S
C219 C249 1.391 . S
C220 C219 1.446 . S
C220 C221 1.339 1_554 S
C220 H255 0.949 . S
C221 C220 1.339 1_556 S
C221 C222 1.439 . S
C221 H256 0.950 . S
C222 N218 1.383 1_556 S
C222 C221 1.439 . S
C222 C251 1.392 . S
N223 Co217 2.005 1_566 S
N223 C224 1.375 1_565 S
N223 C227 1.378 . S
C224 N223 1.375 1_545 S
C224 C225 1.443 . S
C224 C251 1.389 . S
C225 C224 1.443 . S
C225 C226 1.340 1_545 S
C225 H257 0.951 . S
C226 C225 1.340 1_565 S
C226 C227 1.439 . S
C226 H258 0.950 . S
C227 N223 1.378 . S
C227 C226 1.439 . S
C227 C252 1.395 . S
N228 Co217 1.995 1_565 S
N228 C229 1.376 1_554 S
N228 C232 1.383 . S
C229 N228 1.376 1_556 S
C229 C230 1.446 1_556 S
C229 C252 1.391 . S
C230 C229 1.446 1_554 S
C230 C231 1.339 . S
C230 H259 0.949 1_554 S
C231 C230 1.339 . S
C231 C232 1.439 . S
C231 H260 0.950 . S
C232 N228 1.383 . S
C232 C231 1.439 . S
C232 C250 1.392 . S
N233 Co217 2.282 1_556 S
N233 C236 1.332 . S
N233 C238 1.332 . S
C234 C235 1.386 . S
C234 C237 1.388 . S
C235 C234 1.386 . S
C235 C236 1.382 . S
C235 H261 0.950 . S
C236 N233 1.332 . S
C236 C235 1.382 . S
C236 H247 0.952 1_545 S
C237 C234 1.388 . S
C237 C238 1.382 . S
C237 H262 0.950 . S
C238 N233 1.332 . S
C238 C237 1.382 . S
C238 H248 0.948 1_556 S
N239 Co217 2.282 1_565 S
N239 C243 1.332 . S
N239 C244 1.332 . S
C240 C241 1.388 . S
C240 C244 1.382 . S
C240 H263 0.950 . S
C241 C240 1.388 . S
C241 C242 1.386 . S
C242 C241 1.386 . S
C242 C243 1.382 . S
C242 H264 0.950 . S
C243 N239 1.332 . S
C243 C242 1.382 . S
C243 H245 0.952 1_565 S
C244 N239 1.332 . S
C244 C240 1.382 . S
C244 H246 0.948 . S
H245 C243 0.952 1_545 S
H246 C244 0.948 . S
H247 C236 0.952 1_565 S
H248 C238 0.948 1_554 S
C249 C215 1.395 . S
C249 C219 1.391 . S
C250 C212 1.389 . S
C250 C232 1.392 . S
C251 C222 1.392 . S
C251 C224 1.389 . S
C252 C227 1.395 . S
C252 C229 1.391 . S
H253 C213 0.951 . S
H254 C214 0.950 . S
H255 C220 0.949 . S
H256 C221 0.950 . S
H257 C225 0.951 . S
H258 C226 0.950 . S
H259 C230 0.949 1_556 S
H260 C231 0.950 . S
H261 C235 0.950 . S
H262 C237 0.950 . S
H263 C240 0.950 . S
H264 C242 0.950 . S
C265 C266 1.443 . S
C265 N269 1.376 . S
C265 C303 1.389 . S
C266 C265 1.443 . S
C266 C267 1.340 . S
C266 H306 0.951 . S
C267 C266 1.340 . S
C267 C268 1.439 . S
C267 H307 0.950 . S
C268 C267 1.439 . S
C268 N269 1.374 . S
C268 C302 1.395 . S
N269 C265 1.376 . S
N269 C268 1.374 . S
N269 Co270 2.008 . S
Co270 N269 2.008 . S
Co270 N271 1.995 . S
Co270 N276 2.008 . S
Co270 N281 1.995 . S
Co270 N286 2.282 . S
Co270 N292 2.282 . S
N271 Co270 1.995 . S
N271 C272 1.376 . S
N271 C275 1.383 . S
C272 N271 1.376 . S
C272 C273 1.446 . S
C272 C302 1.391 . S
C273 C272 1.446 . S
C273 C274 1.339 . S
C273 H308 0.949 . S
C274 C273 1.339 . S
C274 C275 1.439 . S
C274 H309 0.950 . S
C275 N271 1.383 . S
C275 C274 1.439 . S
C275 C304 1.392 . S
N276 Co270 2.008 . S
N276 C277 1.376 . S
N276 C280 1.374 . S
C277 N276 1.376 . S
C277 C278 1.443 . S
C277 C304 1.389 . S
C278 C277 1.443 . S
C278 C279 1.340 . S
C278 H310 0.951 . S
C279 C278 1.340 . S
C279 C280 1.439 . S
C279 H311 0.950 . S
C280 N276 1.374 . S
C280 C279 1.439 . S
C280 C305 1.395 . S
N281 Co270 1.995 . S
N281 C282 1.376 . S
N281 C285 1.383 . S
C282 N281 1.376 . S
C282 C283 1.446 . S
C282 C305 1.391 . S
C283 C282 1.446 . S
C283 C284 1.339 . S
C283 H312 0.949 . S
C284 C283 1.339 . S
C284 C285 1.439 . S
C284 H313 0.950 . S
C285 N281 1.383 . S
C285 C284 1.439 . S
C285 C303 1.392 . S
N286 Co270 2.282 . S
N286 C289 1.332 . S
N286 C291 1.332 . S
C287 C288 1.386 . S
C287 C290 1.388 . S
C288 C287 1.386 . S
C288 C289 1.382 . S
C288 H314 0.950 . S
C289 N286 1.332 . S
C289 C288 1.382 . S
C289 H300 0.952 . S
C290 C287 1.388 . S
C290 C291 1.382 . S
C290 H315 0.950 . S
C291 N286 1.332 . S
C291 C290 1.382 . S
C291 H301 0.948 . S
N292 Co270 2.282 . S
N292 C296 1.332 . S
N292 C297 1.332 . S
C293 C294 1.388 . S
C293 C297 1.382 . S
C293 H316 0.950 . S
C294 C293 1.388 . S
C294 C295 1.386 . S
C295 C294 1.386 . S
C295 C296 1.382 . S
C295 H317 0.950 . S
C296 N292 1.332 . S
C296 C295 1.382 . S
C296 H298 0.952 . S
C297 N292 1.332 . S
C297 C293 1.382 . S
C297 H299 0.948 . S
H298 C296 0.952 . S
H299 C297 0.948 . S
H300 C289 0.952 . S
H301 C291 0.948 . S
C302 C268 1.395 . S
C302 C272 1.391 . S
C303 C265 1.389 . S
C303 C285 1.392 . S
C304 C275 1.392 . S
C304 C277 1.389 . S
C305 C280 1.395 . S
C305 C282 1.391 . S
H306 C266 0.951 . S
H307 C267 0.950 . S
H308 C273 0.949 . S
H309 C274 0.950 . S
H310 C278 0.951 . S
H311 C279 0.950 . S
H312 C283 0.949 . S
H313 C284 0.950 . S
H314 C288 0.950 . S
H315 C290 0.950 . S
H316 C293 0.950 . S
H317 C295 0.950 . S
C318 C319 1.560 . S
C318 H379 0.959 . S
C318 H380 0.959 . S
C318 H381 0.960 . S
C319 C318 1.560 . S
C319 O374 1.426 . S
C319 H378 0.980 . S
C320 C321 1.407 . S
C320 C325 1.418 . S
C320 O374 1.334 . S
C321 C320 1.407 . S
C321 C322 1.360 . S
C321 H382 0.929 . S
C322 C321 1.360 . S
C322 C323 1.401 . S
C322 C326 1.527 . S
C323 C322 1.401 . S
C323 C324 1.405 . S
C323 C356 1.587 . S
C324 C323 1.405 . S
C324 C325 1.332 . S
C324 C327 1.496 . S
C325 C320 1.418 . S
C325 C324 1.332 . S
C325 H383 0.929 . S
C326 C322 1.527 . S
C326 H384 0.959 . S
C326 H385 0.961 . S
C326 H386 0.961 . S
C327 C324 1.496 . S
C327 H387 0.960 . S
C327 H388 0.960 . S
C327 H389 0.961 . S
C328 C329 1.517 . S
C328 H391 0.961 . S
C328 H392 0.960 . S
C328 H393 0.959 . S
C329 C328 1.517 . S
C329 O377 1.468 . S
C329 H390 0.980 . S
C330 C331 1.349 . S
C330 C335 1.367 . S
C330 O377 1.408 . S
C331 C330 1.349 . S
C331 C332 1.407 . S
C331 H394 0.930 . S
C332 C331 1.407 . S
C332 C333 1.449 . S
C332 C336 1.535 . S
C333 C332 1.449 . S
C333 C334 1.384 . S
C333 C358 1.553 . S
C334 C333 1.384 . S
C334 C335 1.364 . S
C334 C337 1.450 . S
C335 C330 1.367 . S
C335 C334 1.364 . S
C335 H395 0.931 . S
C336 C332 1.535 . S
C336 H396 0.959 . S
C336 H397 0.961 . S
C336 H398 0.959 . S
C337 C334 1.450 . S
C337 H399 0.960 . S
C337 H400 0.960 . S
C337 H401 0.960 . S
C338 C339 1.309 . S
C338 C343 1.304 . S
C338 O376 1.435 . S
C339 C338 1.309 . S
C339 C340 1.476 . S
C339 H403 0.930 . S
C340 C339 1.476 . S
C340 C341 1.400 . S
C340 C344 1.567 . S
C341 C340 1.400 . S
C341 C342 1.373 . S
C341 C363 1.432 . S
C342 C341 1.373 . S
C342 C343 1.339 . S
C342 C345 1.530 . S
C343 C338 1.304 . S
C343 C342 1.339 . S
C343 H404 0.930 . S
C344 C340 1.567 . S
C344 H405 0.961 . S
C344 H406 0.960 . S
C344 H407 0.958 . S
C345 C342 1.530 . S
C345 H408 0.961 . S
C345 H409 0.960 . S
C345 H410 0.960 . S
C346 C347 1.530 . S
C346 H412 0.961 . S
C346 H413 0.961 . S
C346 H414 0.959 . S
C347 C346 1.530 . S
C347 O375 1.412 . S
C347 H411 0.980 . S
C348 C349 1.288 . S
C348 C353 1.377 . S
C348 O375 1.393 . S
C349 C348 1.288 . S
C349 C350 1.369 . S
C349 H415 0.932 . S
C350 C349 1.369 . S
C350 C351 1.398 . S
C350 C354 1.527 . S
C351 C350 1.398 . S
C351 C352 1.380 . S
C351 C365 1.497 . S
C352 C351 1.380 . S
C352 C353 1.383 . S
C352 C355 1.603 . S
C353 C348 1.377 . S
C353 C352 1.383 . S
C353 H416 0.929 . S
C354 C350 1.527 . S
C354 H417 0.961 . S
C354 H418 0.959 . S
C354 H419 0.959 . S
C355 C352 1.603 . S
C355 H420 0.960 . S
C355 H421 0.962 . S
C355 H422 0.961 . S
C356 C323 1.587 . S
C356 C357 1.360 . S
C356 C369 1.412 . S
C357 C356 1.360 . S
C357 C358 1.365 . S
C357 H423 0.929 . S
C358 C333 1.553 . S
C358 C357 1.365 . S
C358 C359 1.404 . S
C359 C358 1.404 . S
C359 C360 1.395 . S
C359 C370 1.451 . S
C360 C359 1.395 . S
C360 C361 1.322 . S
C360 H424 0.930 . S
C361 C360 1.322 . S
C361 C362 1.459 . S
C361 H425 0.929 . S
C362 C361 1.459 . S
C362 C363 1.445 . S
C362 C371 1.395 . S
C363 C341 1.432 . S
C363 C362 1.445 . S
C363 C364 1.370 . S
C364 C363 1.370 . S
C364 C365 1.438 . S
C364 H426 0.930 . S
C365 C351 1.497 . S
C365 C364 1.438 . S
C365 C366 1.360 . S
C366 C365 1.360 . S
C366 C367 1.401 . S
C366 C371 1.446 . S
C367 C366 1.401 . S
C367 C368 1.347 . S
C367 H427 0.929 . S
C368 C367 1.347 . S
C368 C369 1.455 . S
C368 H428 0.930 . S
C369 C356 1.412 . S
C369 C368 1.455 . S
C369 C370 1.331 . S
C370 C359 1.451 . S
C370 C369 1.331 . S
C370 C371 1.497 . S
C371 C362 1.395 . S
C371 C366 1.446 . S
C371 C370 1.497 . S
C372 C373 1.582 . S
C372 H429 0.962 . S
C372 H430 0.959 . S
C372 H431 0.958 . S
C373 C372 1.582 . S
C373 O376 1.458 . S
C373 H402 0.980 . S
O374 C319 1.426 . S
O374 C320 1.334 . S
O375 C347 1.412 . S
O375 C348 1.393 . S
O376 C338 1.435 . S
O376 C373 1.458 . S
O377 C329 1.468 . S
O377 C330 1.408 . S
H378 C319 0.980 . S
H379 C318 0.959 . S
H380 C318 0.959 . S
H381 C318 0.960 . S
H382 C321 0.929 . S
H383 C325 0.929 . S
H384 C326 0.959 . S
H385 C326 0.961 . S
H386 C326 0.961 . S
H387 C327 0.960 . S
H388 C327 0.960 . S
H389 C327 0.961 . S
H390 C329 0.980 . S
H391 C328 0.961 . S
H392 C328 0.960 . S
H393 C328 0.959 . S
H394 C331 0.930 . S
H395 C335 0.931 . S
H396 C336 0.959 . S
H397 C336 0.961 . S
H398 C336 0.959 . S
H399 C337 0.960 . S
H400 C337 0.960 . S
H401 C337 0.960 . S
H402 C373 0.980 . S
H403 C339 0.930 . S
H404 C343 0.930 . S
H405 C344 0.961 . S
H406 C344 0.960 . S
H407 C344 0.958 . S
H408 C345 0.961 . S
H409 C345 0.960 . S
H410 C345 0.960 . S
H411 C347 0.980 . S
H412 C346 0.961 . S
H413 C346 0.961 . S
H414 C346 0.959 . S
H415 C349 0.932 . S
H416 C353 0.929 . S
H417 C354 0.961 . S
H418 C354 0.959 . S
H419 C354 0.959 . S
H420 C355 0.960 . S
H421 C355 0.962 . S
H422 C355 0.961 . S
H423 C357 0.929 . S
H424 C360 0.930 . S
H425 C361 0.929 . S
H426 C364 0.930 . S
H427 C367 0.929 . S
H428 C368 0.930 . S
H429 C372 0.962 . S
H430 C372 0.959 . S
H431 C372 0.958 . S
C432 C433 1.560 . S
C432 H493 0.959 . S
C432 H494 0.959 . S
C432 H495 0.960 . S
C433 C432 1.560 . S
C433 O488 1.426 . S
C433 H492 0.980 . S
C434 C435 1.407 . S
C434 C439 1.418 . S
C434 O488 1.334 . S
C435 C434 1.407 . S
C435 C436 1.360 . S
C435 H496 0.929 . S
C436 C435 1.360 . S
C436 C437 1.401 . S
C436 C440 1.527 . S
C437 C436 1.401 . S
C437 C438 1.405 . S
C437 C470 1.587 . S
C438 C437 1.405 . S
C438 C439 1.332 . S
C438 C441 1.496 . S
C439 C434 1.418 . S
C439 C438 1.332 . S
C439 H497 0.929 . S
C440 C436 1.527 . S
C440 H498 0.959 . S
C440 H499 0.961 . S
C440 H500 0.961 . S
C441 C438 1.496 . S
C441 H501 0.960 . S
C441 H502 0.960 . S
C441 H503 0.961 . S
C442 C443 1.517 . S
C442 H505 0.961 . S
C442 H506 0.960 . S
C442 H507 0.959 . S
C443 C442 1.517 . S
C443 O491 1.468 . S
C443 H504 0.980 . S
C444 C445 1.349 . S
C444 C449 1.367 . S
C444 O491 1.408 . S
C445 C444 1.349 . S
C445 C446 1.407 . S
C445 H508 0.930 . S
C446 C445 1.407 . S
C446 C447 1.449 . S
C446 C450 1.535 . S
C447 C446 1.449 . S
C447 C448 1.384 . S
C447 C472 1.553 . S
C448 C447 1.384 . S
C448 C449 1.364 . S
C448 C451 1.450 . S
C449 C444 1.367 . S
C449 C448 1.364 . S
C449 H509 0.931 . S
C450 C446 1.535 . S
C450 H510 0.959 . S
C450 H511 0.961 . S
C450 H512 0.959 . S
C451 C448 1.450 . S
C451 H513 0.960 . S
C451 H514 0.960 . S
C451 H515 0.960 . S
C452 C453 1.309 . S
C452 C457 1.304 . S
C452 O490 1.435 . S
C453 C452 1.309 . S
C453 C454 1.476 . S
C453 H517 0.930 . S
C454 C453 1.476 . S
C454 C455 1.400 . S
C454 C458 1.567 . S
C455 C454 1.400 . S
C455 C456 1.373 . S
C455 C477 1.432 . S
C456 C455 1.373 . S
C456 C457 1.339 . S
C456 C459 1.530 . S
C457 C452 1.304 . S
C457 C456 1.339 . S
C457 H518 0.930 . S
C458 C454 1.567 . S
C458 H519 0.961 . S
C458 H520 0.960 . S
C458 H521 0.958 . S
C459 C456 1.530 . S
C459 H522 0.961 . S
C459 H523 0.960 . S
C459 H524 0.960 . S
C460 C461 1.530 . S
C460 H526 0.961 . S
C460 H527 0.961 . S
C460 H528 0.959 . S
C461 C460 1.530 . S
C461 O489 1.412 . S
C461 H525 0.980 . S
C462 C463 1.288 . S
C462 C467 1.377 . S
C462 O489 1.393 . S
C463 C462 1.288 . S
C463 C464 1.369 . S
C463 H529 0.932 . S
C464 C463 1.369 . S
C464 C465 1.398 . S
C464 C468 1.527 . S
C465 C464 1.398 . S
C465 C466 1.380 . S
C465 C479 1.497 . S
C466 C465 1.380 . S
C466 C467 1.383 . S
C466 C469 1.603 . S
C467 C462 1.377 . S
C467 C466 1.383 . S
C467 H530 0.929 . S
C468 C464 1.527 . S
C468 H531 0.961 . S
C468 H532 0.959 . S
C468 H533 0.959 . S
C469 C466 1.603 . S
C469 H534 0.960 . S
C469 H535 0.962 . S
C469 H536 0.961 . S
C470 C437 1.587 . S
C470 C471 1.360 . S
C470 C483 1.412 . S
C471 C470 1.360 . S
C471 C472 1.365 . S
C471 H537 0.929 . S
C472 C447 1.553 . S
C472 C471 1.365 . S
C472 C473 1.404 . S
C473 C472 1.404 . S
C473 C474 1.395 . S
C473 C484 1.451 . S
C474 C473 1.395 . S
C474 C475 1.322 . S
C474 H538 0.930 . S
C475 C474 1.322 . S
C475 C476 1.459 . S
C475 H539 0.929 . S
C476 C475 1.459 . S
C476 C477 1.445 . S
C476 C485 1.395 . S
C477 C455 1.432 . S
C477 C476 1.445 . S
C477 C478 1.370 . S
C478 C477 1.370 . S
C478 C479 1.438 . S
C478 H540 0.930 . S
C479 C465 1.497 . S
C479 C478 1.438 . S
C479 C480 1.360 . S
C480 C479 1.360 . S
C480 C481 1.401 . S
C480 C485 1.446 . S
C481 C480 1.401 . S
C481 C482 1.347 . S
C481 H541 0.929 . S
C482 C481 1.347 . S
C482 C483 1.455 . S
C482 H542 0.930 . S
C483 C470 1.412 . S
C483 C482 1.455 . S
C483 C484 1.331 . S
C484 C473 1.451 . S
C484 C483 1.331 . S
C484 C485 1.497 . S
C485 C476 1.395 . S
C485 C480 1.446 . S
C485 C484 1.497 . S
C486 C487 1.582 . S
C486 H543 0.962 . S
C486 H544 0.959 . S
C486 H545 0.958 . S
C487 C486 1.582 . S
C487 O490 1.458 . S
C487 H516 0.980 . S
O488 C433 1.426 . S
O488 C434 1.334 . S
O489 C461 1.412 . S
O489 C462 1.393 . S
O490 C452 1.435 . S
O490 C487 1.458 . S
O491 C443 1.468 . S
O491 C444 1.408 . S
H492 C433 0.980 . S
H493 C432 0.959 . S
H494 C432 0.959 . S
H495 C432 0.960 . S
H496 C435 0.929 . S
H497 C439 0.929 . S
H498 C440 0.959 . S
H499 C440 0.961 . S
H500 C440 0.961 . S
H501 C441 0.960 . S
H502 C441 0.960 . S
H503 C441 0.961 . S
H504 C443 0.980 . S
H505 C442 0.961 . S
H506 C442 0.960 . S
H507 C442 0.959 . S
H508 C445 0.930 . S
H509 C449 0.931 . S
H510 C450 0.959 . S
H511 C450 0.961 . S
H512 C450 0.959 . S
H513 C451 0.960 . S
H514 C451 0.960 . S
H515 C451 0.960 . S
H516 C487 0.980 . S
H517 C453 0.930 . S
H518 C457 0.930 . S
H519 C458 0.961 . S
H520 C458 0.960 . S
H521 C458 0.958 . S
H522 C459 0.961 . S
H523 C459 0.960 . S
H524 C459 0.960 . S
H525 C461 0.980 . S
H526 C460 0.961 . S
H527 C460 0.961 . S
H528 C460 0.959 . S
H529 C463 0.932 . S
H530 C467 0.929 . S
H531 C468 0.961 . S
H532 C468 0.959 . S
H533 C468 0.959 . S
H534 C469 0.960 . S
H535 C469 0.962 . S
H536 C469 0.961 . S
H537 C471 0.929 . S
H538 C474 0.930 . S
H539 C475 0.929 . S
H540 C478 0.930 . S
H541 C481 0.929 . S
H542 C482 0.930 . S
H543 C486 0.962 . S
H544 C486 0.959 . S
H545 C486 0.958 . S
C546 C547 1.560 . S
C546 H607 0.959 . S
C546 H608 0.959 . S
C546 H609 0.960 . S
C547 C546 1.560 . S
C547 O602 1.426 . S
C547 H606 0.980 . S
C548 C549 1.407 . S
C548 C553 1.418 . S
C548 O602 1.334 . S
C549 C548 1.407 . S
C549 C550 1.360 . S
C549 H610 0.929 . S
C550 C549 1.360 . S
C550 C551 1.401 . S
C550 C554 1.527 . S
C551 C550 1.401 . S
C551 C552 1.405 . S
C551 C584 1.587 . S
C552 C551 1.405 . S
C552 C553 1.332 . S
C552 C555 1.496 . S
C553 C548 1.418 . S
C553 C552 1.332 . S
C553 H611 0.929 . S
C554 C550 1.527 . S
C554 H612 0.959 . S
C554 H613 0.961 . S
C554 H614 0.961 . S
C555 C552 1.496 . S
C555 H615 0.960 . S
C555 H616 0.960 . S
C555 H617 0.961 . S
C556 C557 1.517 . S
C556 H619 0.961 . S
C556 H620 0.960 . S
C556 H621 0.959 . S
C557 C556 1.517 . S
C557 O605 1.468 . S
C557 H618 0.980 . S
C558 C559 1.349 . S
C558 C563 1.367 . S
C558 O605 1.408 . S
C559 C558 1.349 . S
C559 C560 1.407 . S
C559 H622 0.930 . S
C560 C559 1.407 . S
C560 C561 1.449 . S
C560 C564 1.535 . S
C561 C560 1.449 . S
C561 C562 1.384 . S
C561 C586 1.553 . S
C562 C561 1.384 . S
C562 C563 1.364 . S
C562 C565 1.450 . S
C563 C558 1.367 . S
C563 C562 1.364 . S
C563 H623 0.931 . S
C564 C560 1.535 . S
C564 H624 0.959 . S
C564 H625 0.961 . S
C564 H626 0.959 . S
C565 C562 1.450 . S
C565 H627 0.960 . S
C565 H628 0.960 . S
C565 H629 0.960 . S
C566 C567 1.309 . S
C566 C571 1.304 . S
C566 O604 1.435 . S
C567 C566 1.309 . S
C567 C568 1.476 . S
C567 H631 0.930 . S
C568 C567 1.476 . S
C568 C569 1.400 . S
C568 C572 1.567 . S
C569 C568 1.400 . S
C569 C570 1.373 . S
C569 C591 1.432 . S
C570 C569 1.373 . S
C570 C571 1.339 . S
C570 C573 1.530 . S
C571 C566 1.304 . S
C571 C570 1.339 . S
C571 H632 0.930 . S
C572 C568 1.567 . S
C572 H633 0.961 . S
C572 H634 0.960 . S
C572 H635 0.958 . S
C573 C570 1.530 . S
C573 H636 0.961 . S
C573 H637 0.960 . S
C573 H638 0.960 . S
C574 C575 1.530 . S
C574 H640 0.961 . S
C574 H641 0.961 . S
C574 H642 0.959 . S
C575 C574 1.530 . S
C575 O603 1.412 . S
C575 H639 0.980 . S
C576 C577 1.288 . S
C576 C581 1.377 . S
C576 O603 1.393 . S
C577 C576 1.288 . S
C577 C578 1.369 . S
C577 H643 0.932 . S
C578 C577 1.369 . S
C578 C579 1.398 . S
C578 C582 1.527 . S
C579 C578 1.398 . S
C579 C580 1.380 . S
C579 C593 1.497 . S
C580 C579 1.380 . S
C580 C581 1.383 . S
C580 C583 1.603 . S
C581 C576 1.377 . S
C581 C580 1.383 . S
C581 H644 0.929 . S
C582 C578 1.527 . S
C582 H645 0.961 . S
C582 H646 0.959 . S
C582 H647 0.959 . S
C583 C580 1.603 . S
C583 H648 0.960 . S
C583 H649 0.962 . S
C583 H650 0.961 . S
C584 C551 1.587 . S
C584 C585 1.360 . S
C584 C597 1.412 . S
C585 C584 1.360 . S
C585 C586 1.365 . S
C585 H651 0.929 . S
C586 C561 1.553 . S
C586 C585 1.365 . S
C586 C587 1.404 . S
C587 C586 1.404 . S
C587 C588 1.395 . S
C587 C598 1.451 . S
C588 C587 1.395 . S
C588 C589 1.322 . S
C588 H652 0.930 . S
C589 C588 1.322 . S
C589 C590 1.459 . S
C589 H653 0.929 . S
C590 C589 1.459 . S
C590 C591 1.445 . S
C590 C599 1.395 . S
C591 C569 1.432 . S
C591 C590 1.445 . S
C591 C592 1.370 . S
C592 C591 1.370 . S
C592 C593 1.438 . S
C592 H654 0.930 . S
C593 C579 1.497 . S
C593 C592 1.438 . S
C593 C594 1.360 . S
C594 C593 1.360 . S
C594 C595 1.401 . S
C594 C599 1.446 . S
C595 C594 1.401 . S
C595 C596 1.347 . S
C595 H655 0.929 . S
C596 C595 1.347 . S
C596 C597 1.455 . S
C596 H656 0.930 . S
C597 C584 1.412 . S
C597 C596 1.455 . S
C597 C598 1.331 . S
C598 C587 1.451 . S
C598 C597 1.331 . S
C598 C599 1.497 . S
C599 C590 1.395 . S
C599 C594 1.446 . S
C599 C598 1.497 . S
C600 C601 1.582 . S
C600 H657 0.962 . S
C600 H658 0.959 . S
C600 H659 0.958 . S
C601 C600 1.582 . S
C601 O604 1.458 . S
C601 H630 0.980 . S
O602 C547 1.426 . S
O602 C548 1.334 . S
O603 C575 1.412 . S
O603 C576 1.393 . S
O604 C566 1.435 . S
O604 C601 1.458 . S
O605 C557 1.468 . S
O605 C558 1.408 . S
H606 C547 0.980 . S
H607 C546 0.959 . S
H608 C546 0.959 . S
H609 C546 0.960 . S
H610 C549 0.929 . S
H611 C553 0.929 . S
H612 C554 0.959 . S
H613 C554 0.961 . S
H614 C554 0.961 . S
H615 C555 0.960 . S
H616 C555 0.960 . S
H617 C555 0.961 . S
H618 C557 0.980 . S
H619 C556 0.961 . S
H620 C556 0.960 . S
H621 C556 0.959 . S
H622 C559 0.930 . S
H623 C563 0.931 . S
H624 C564 0.959 . S
H625 C564 0.961 . S
H626 C564 0.959 . S
H627 C565 0.960 . S
H628 C565 0.960 . S
H629 C565 0.960 . S
H630 C601 0.980 . S
H631 C567 0.930 . S
H632 C571 0.930 . S
H633 C572 0.961 . S
H634 C572 0.960 . S
H635 C572 0.958 . S
H636 C573 0.961 . S
H637 C573 0.960 . S
H638 C573 0.960 . S
H639 C575 0.980 . S
H640 C574 0.961 . S
H641 C574 0.961 . S
H642 C574 0.959 . S
H643 C577 0.932 . S
H644 C581 0.929 . S
H645 C582 0.961 . S
H646 C582 0.959 . S
H647 C582 0.959 . S
H648 C583 0.960 . S
H649 C583 0.962 . S
H650 C583 0.961 . S
H651 C585 0.929 . S
H652 C588 0.930 . S
H653 C589 0.929 . S
H654 C592 0.930 . S
H655 C595 0.929 . S
H656 C596 0.930 . S
H657 C600 0.962 . S
H658 C600 0.959 . S
H659 C600 0.958 . S
C660 C661 1.560 . S
C660 H721 0.959 . S
C660 H722 0.959 . S
C660 H723 0.960 . S
C661 C660 1.560 . S
C661 O716 1.426 . S
C661 H720 0.980 . S
C662 C663 1.407 . S
C662 C667 1.418 . S
C662 O716 1.334 . S
C663 C662 1.407 . S
C663 C664 1.360 . S
C663 H724 0.929 . S
C664 C663 1.360 . S
C664 C665 1.401 . S
C664 C668 1.527 . S
C665 C664 1.401 . S
C665 C666 1.405 . S
C665 C698 1.587 . S
C666 C665 1.405 . S
C666 C667 1.332 . S
C666 C669 1.496 . S
C667 C662 1.418 . S
C667 C666 1.332 . S
C667 H725 0.929 . S
C668 C664 1.527 . S
C668 H726 0.959 . S
C668 H727 0.961 . S
C668 H728 0.961 . S
C669 C666 1.496 . S
C669 H729 0.960 . S
C669 H730 0.960 . S
C669 H731 0.961 . S
C670 C671 1.517 . S
C670 H733 0.961 . S
C670 H734 0.960 . S
C670 H735 0.959 . S
C671 C670 1.517 . S
C671 O719 1.468 . S
C671 H732 0.980 . S
C672 C673 1.349 . S
C672 C677 1.367 . S
C672 O719 1.408 . S
C673 C672 1.349 . S
C673 C674 1.407 . S
C673 H736 0.930 . S
C674 C673 1.407 . S
C674 C675 1.449 . S
C674 C678 1.535 . S
C675 C674 1.449 . S
C675 C676 1.384 . S
C675 C700 1.553 . S
C676 C675 1.384 . S
C676 C677 1.364 . S
C676 C679 1.450 . S
C677 C672 1.367 . S
C677 C676 1.364 . S
C677 H737 0.931 . S
C678 C674 1.535 . S
C678 H738 0.959 . S
C678 H739 0.961 . S
C678 H740 0.959 . S
C679 C676 1.450 . S
C679 H741 0.960 . S
C679 H742 0.960 . S
C679 H743 0.960 . S
C680 C681 1.309 . S
C680 C685 1.304 . S
C680 O718 1.435 . S
C681 C680 1.309 . S
C681 C682 1.476 . S
C681 H745 0.930 . S
C682 C681 1.476 . S
C682 C683 1.400 . S
C682 C686 1.567 . S
C683 C682 1.400 . S
C683 C684 1.373 . S
C683 C705 1.432 . S
C684 C683 1.373 . S
C684 C685 1.339 . S
C684 C687 1.530 . S
C685 C680 1.304 . S
C685 C684 1.339 . S
C685 H746 0.930 . S
C686 C682 1.567 . S
C686 H747 0.961 . S
C686 H748 0.960 . S
C686 H749 0.958 . S
C687 C684 1.530 . S
C687 H750 0.961 . S
C687 H751 0.960 . S
C687 H752 0.960 . S
C688 C689 1.530 . S
C688 H754 0.961 . S
C688 H755 0.961 . S
C688 H756 0.959 . S
C689 C688 1.530 . S
C689 O717 1.412 . S
C689 H753 0.980 . S
C690 C691 1.288 . S
C690 C695 1.377 . S
C690 O717 1.393 . S
C691 C690 1.288 . S
C691 C692 1.369 . S
C691 H757 0.932 . S
C692 C691 1.369 . S
C692 C693 1.398 . S
C692 C696 1.527 . S
C693 C692 1.398 . S
C693 C694 1.380 . S
C693 C707 1.497 . S
C694 C693 1.380 . S
C694 C695 1.383 . S
C694 C697 1.603 . S
C695 C690 1.377 . S
C695 C694 1.383 . S
C695 H758 0.929 . S
C696 C692 1.527 . S
C696 H759 0.961 . S
C696 H760 0.959 . S
C696 H761 0.959 . S
C697 C694 1.603 . S
C697 H762 0.960 . S
C697 H763 0.962 . S
C697 H764 0.961 . S
C698 C665 1.587 . S
C698 C699 1.360 . S
C698 C711 1.412 . S
C699 C698 1.360 . S
C699 C700 1.365 . S
C699 H765 0.929 . S
C700 C675 1.553 . S
C700 C699 1.365 . S
C700 C701 1.404 . S
C701 C700 1.404 . S
C701 C702 1.395 . S
C701 C712 1.451 . S
C702 C701 1.395 . S
C702 C703 1.322 . S
C702 H766 0.930 . S
C703 C702 1.322 . S
C703 C704 1.459 . S
C703 H767 0.929 . S
C704 C703 1.459 . S
C704 C705 1.445 . S
C704 C713 1.395 . S
C705 C683 1.432 . S
C705 C704 1.445 . S
C705 C706 1.370 . S
C706 C705 1.370 . S
C706 C707 1.438 . S
C706 H768 0.930 . S
C707 C693 1.497 . S
C707 C706 1.438 . S
C707 C708 1.360 . S
C708 C707 1.360 . S
C708 C709 1.401 . S
C708 C713 1.446 . S
C709 C708 1.401 . S
C709 C710 1.347 . S
C709 H769 0.929 . S
C710 C709 1.347 . S
C710 C711 1.455 . S
C710 H770 0.930 . S
C711 C698 1.412 . S
C711 C710 1.455 . S
C711 C712 1.331 . S
C712 C701 1.451 . S
C712 C711 1.331 . S
C712 C713 1.497 . S
C713 C704 1.395 . S
C713 C708 1.446 . S
C713 C712 1.497 . S
C714 C715 1.582 . S
C714 H771 0.962 . S
C714 H772 0.959 . S
C714 H773 0.958 . S
C715 C714 1.582 . S
C715 O718 1.458 . S
C715 H744 0.980 . S
O716 C661 1.426 . S
O716 C662 1.334 . S
O717 C689 1.412 . S
O717 C690 1.393 . S
O718 C680 1.435 . S
O718 C715 1.458 . S
O719 C671 1.468 . S
O719 C672 1.408 . S
H720 C661 0.980 . S
H721 C660 0.959 . S
H722 C660 0.959 . S
H723 C660 0.960 . S
H724 C663 0.929 . S
H725 C667 0.929 . S
H726 C668 0.959 . S
H727 C668 0.961 . S
H728 C668 0.961 . S
H729 C669 0.960 . S
H730 C669 0.960 . S
H731 C669 0.961 . S
H732 C671 0.980 . S
H733 C670 0.961 . S
H734 C670 0.960 . S
H735 C670 0.959 . S
H736 C673 0.930 . S
H737 C677 0.931 . S
H738 C678 0.959 . S
H739 C678 0.961 . S
H740 C678 0.959 . S
H741 C679 0.960 . S
H742 C679 0.960 . S
H743 C679 0.960 . S
H744 C715 0.980 . S
H745 C681 0.930 . S
H746 C685 0.930 . S
H747 C686 0.961 . S
H748 C686 0.960 . S
H749 C686 0.958 . S
H750 C687 0.961 . S
H751 C687 0.960 . S
H752 C687 0.960 . S
H753 C689 0.980 . S
H754 C688 0.961 . S
H755 C688 0.961 . S
H756 C688 0.959 . S
H757 C691 0.932 . S
H758 C695 0.929 . S
H759 C696 0.961 . S
H760 C696 0.959 . S
H761 C696 0.959 . S
H762 C697 0.960 . S
H763 C697 0.962 . S
H764 C697 0.961 . S
H765 C699 0.929 . S
H766 C702 0.930 . S
H767 C703 0.929 . S
H768 C706 0.930 . S
H769 C709 0.929 . S
H770 C710 0.930 . S
H771 C714 0.962 . S
H772 C714 0.959 . S
H773 C714 0.958 . S
C774 C775 1.560 . S
C774 H835 0.959 . S
C774 H836 0.959 . S
C774 H837 0.960 . S
C775 C774 1.560 . S
C775 O830 1.426 . S
C775 H834 0.980 . S
C776 C777 1.407 . S
C776 C781 1.418 . S
C776 O830 1.334 . S
C777 C776 1.407 . S
C777 C778 1.360 . S
C777 H838 0.929 . S
C778 C777 1.360 . S
C778 C779 1.401 . S
C778 C782 1.527 . S
C779 C778 1.401 . S
C779 C780 1.405 . S
C779 C812 1.587 . S
C780 C779 1.405 . S
C780 C781 1.332 . S
C780 C783 1.496 . S
C781 C776 1.418 . S
C781 C780 1.332 . S
C781 H839 0.929 . S
C782 C778 1.527 . S
C782 H840 0.959 . S
C782 H841 0.961 . S
C782 H842 0.961 . S
C783 C780 1.496 . S
C783 H843 0.960 . S
C783 H844 0.960 . S
C783 H845 0.961 . S
C784 C785 1.517 . S
C784 H847 0.961 . S
C784 H848 0.960 . S
C784 H849 0.959 . S
C785 C784 1.517 . S
C785 O833 1.468 . S
C785 H846 0.980 . S
C786 C787 1.349 . S
C786 C791 1.367 . S
C786 O833 1.408 . S
C787 C786 1.349 . S
C787 C788 1.407 . S
C787 H850 0.930 . S
C788 C787 1.407 . S
C788 C789 1.449 . S
C788 C792 1.535 . S
C789 C788 1.449 . S
C789 C790 1.384 . S
C789 C814 1.553 . S
C790 C789 1.384 . S
C790 C791 1.364 . S
C790 C793 1.450 . S
C791 C786 1.367 . S
C791 C790 1.364 . S
C791 H851 0.931 . S
C792 C788 1.535 . S
C792 H852 0.959 . S
C792 H853 0.961 . S
C792 H854 0.959 . S
C793 C790 1.450 . S
C793 H855 0.960 . S
C793 H856 0.960 . S
C793 H857 0.960 . S
C794 C795 1.309 . S
C794 C799 1.304 . S
C794 O832 1.435 . S
C795 C794 1.309 . S
C795 C796 1.476 . S
C795 H859 0.930 . S
C796 C795 1.476 . S
C796 C797 1.400 . S
C796 C800 1.567 . S
C797 C796 1.400 . S
C797 C798 1.373 . S
C797 C819 1.432 . S
C798 C797 1.373 . S
C798 C799 1.339 . S
C798 C801 1.530 . S
C799 C794 1.304 . S
C799 C798 1.339 . S
C799 H860 0.930 . S
C800 C796 1.567 . S
C800 H861 0.961 . S
C800 H862 0.960 . S
C800 H863 0.958 . S
C801 C798 1.530 . S
C801 H864 0.961 . S
C801 H865 0.960 . S
C801 H866 0.960 . S
C802 C803 1.530 . S
C802 H868 0.961 . S
C802 H869 0.961 . S
C802 H870 0.959 . S
C803 C802 1.530 . S
C803 O831 1.412 . S
C803 H867 0.980 . S
C804 C805 1.288 . S
C804 C809 1.377 . S
C804 O831 1.393 . S
C805 C804 1.288 . S
C805 C806 1.369 . S
C805 H871 0.932 . S
C806 C805 1.369 . S
C806 C807 1.398 . S
C806 C810 1.527 . S
C807 C806 1.398 . S
C807 C808 1.380 . S
C807 C821 1.497 . S
C808 C807 1.380 . S
C808 C809 1.383 . S
C808 C811 1.603 . S
C809 C804 1.377 . S
C809 C808 1.383 . S
C809 H872 0.929 . S
C810 C806 1.527 . S
C810 H873 0.961 . S
C810 H874 0.959 . S
C810 H875 0.959 . S
C811 C808 1.603 . S
C811 H876 0.960 . S
C811 H877 0.962 . S
C811 H878 0.961 . S
C812 C779 1.587 . S
C812 C813 1.360 . S
C812 C825 1.412 . S
C813 C812 1.360 . S
C813 C814 1.365 . S
C813 H879 0.929 . S
C814 C789 1.553 . S
C814 C813 1.365 . S
C814 C815 1.404 . S
C815 C814 1.404 . S
C815 C816 1.395 . S
C815 C826 1.451 . S
C816 C815 1.395 . S
C816 C817 1.322 . S
C816 H880 0.930 . S
C817 C816 1.322 . S
C817 C818 1.459 . S
C817 H881 0.929 . S
C818 C817 1.459 . S
C818 C819 1.445 . S
C818 C827 1.395 . S
C819 C797 1.432 . S
C819 C818 1.445 . S
C819 C820 1.370 . S
C820 C819 1.370 . S
C820 C821 1.438 . S
C820 H882 0.930 . S
C821 C807 1.497 . S
C821 C820 1.438 . S
C821 C822 1.360 . S
C822 C821 1.360 . S
C822 C823 1.401 . S
C822 C827 1.446 . S
C823 C822 1.401 . S
C823 C824 1.347 . S
C823 H883 0.929 . S
C824 C823 1.347 . S
C824 C825 1.455 . S
C824 H884 0.930 . S
C825 C812 1.412 . S
C825 C824 1.455 . S
C825 C826 1.331 . S
C826 C815 1.451 . S
C826 C825 1.331 . S
C826 C827 1.497 . S
C827 C818 1.395 . S
C827 C822 1.446 . S
C827 C826 1.497 . S
C828 C829 1.582 . S
C828 H885 0.962 . S
C828 H886 0.959 . S
C828 H887 0.958 . S
C829 C828 1.582 . S
C829 O832 1.458 . S
C829 H858 0.980 . S
O830 C775 1.426 . S
O830 C776 1.334 . S
O831 C803 1.412 . S
O831 C804 1.393 . S
O832 C794 1.435 . S
O832 C829 1.458 . S
O833 C785 1.468 . S
O833 C786 1.408 . S
H834 C775 0.980 . S
H835 C774 0.959 . S
H836 C774 0.959 . S
H837 C774 0.960 . S
H838 C777 0.929 . S
H839 C781 0.929 . S
H840 C782 0.959 . S
H841 C782 0.961 . S
H842 C782 0.961 . S
H843 C783 0.960 . S
H844 C783 0.960 . S
H845 C783 0.961 . S
H846 C785 0.980 . S
H847 C784 0.961 . S
H848 C784 0.960 . S
H849 C784 0.959 . S
H850 C787 0.930 . S
H851 C791 0.931 . S
H852 C792 0.959 . S
H853 C792 0.961 . S
H854 C792 0.959 . S
H855 C793 0.960 . S
H856 C793 0.960 . S
H857 C793 0.960 . S
H858 C829 0.980 . S
H859 C795 0.930 . S
H860 C799 0.930 . S
H861 C800 0.961 . S
H862 C800 0.960 . S
H863 C800 0.958 . S
H864 C801 0.961 . S
H865 C801 0.960 . S
H866 C801 0.960 . S
H867 C803 0.980 . S
H868 C802 0.961 . S
H869 C802 0.961 . S
H870 C802 0.959 . S
H871 C805 0.932 . S
H872 C809 0.929 . S
H873 C810 0.961 . S
H874 C810 0.959 . S
H875 C810 0.959 . S
H876 C811 0.960 . S
H877 C811 0.962 . S
H878 C811 0.961 . S
H879 C813 0.929 . S
H880 C816 0.930 . S
H881 C817 0.929 . S
H882 C820 0.930 . S
H883 C823 0.929 . S
H884 C824 0.930 . S
H885 C828 0.962 . S
H886 C828 0.959 . S
H887 C828 0.958 . S
C888 C889 1.560 . S
C888 H949 0.959 . S
C888 H950 0.959 . S
C888 H951 0.960 . S
C889 C888 1.560 . S
C889 O944 1.426 . S
C889 H948 0.980 . S
C890 C891 1.407 . S
C890 C895 1.418 . S
C890 O944 1.334 . S
C891 C890 1.407 . S
C891 C892 1.360 . S
C891 H952 0.929 . S
C892 C891 1.360 . S
C892 C893 1.401 . S
C892 C896 1.527 . S
C893 C892 1.401 . S
C893 C894 1.405 . S
C893 C926 1.587 . S
C894 C893 1.405 . S
C894 C895 1.332 . S
C894 C897 1.496 . S
C895 C890 1.418 . S
C895 C894 1.332 . S
C895 H953 0.929 . S
C896 C892 1.527 . S
C896 H954 0.959 . S
C896 H955 0.961 . S
C896 H956 0.961 . S
C897 C894 1.496 . S
C897 H957 0.960 . S
C897 H958 0.960 . S
C897 H959 0.961 . S
C898 C899 1.517 . S
C898 H961 0.961 . S
C898 H962 0.960 . S
C898 H963 0.959 . S
C899 C898 1.517 . S
C899 O947 1.468 . S
C899 H960 0.980 . S
C900 C901 1.349 . S
C900 C905 1.367 . S
C900 O947 1.408 . S
C901 C900 1.349 . S
C901 C902 1.407 . S
C901 H964 0.930 . S
C902 C901 1.407 . S
C902 C903 1.449 . S
C902 C906 1.535 . S
C903 C902 1.449 . S
C903 C904 1.384 . S
C903 C928 1.553 . S
C904 C903 1.384 . S
C904 C905 1.364 . S
C904 C907 1.450 . S
C905 C900 1.367 . S
C905 C904 1.364 . S
C905 H965 0.931 . S
C906 C902 1.535 . S
C906 H966 0.959 . S
C906 H967 0.961 . S
C906 H968 0.959 . S
C907 C904 1.450 . S
C907 H969 0.960 . S
C907 H970 0.960 . S
C907 H971 0.960 . S
C908 C909 1.309 . S
C908 C913 1.304 . S
C908 O946 1.435 . S
C909 C908 1.309 . S
C909 C910 1.476 . S
C909 H973 0.930 . S
C910 C909 1.476 . S
C910 C911 1.400 . S
C910 C914 1.567 . S
C911 C910 1.400 . S
C911 C912 1.373 . S
C911 C933 1.432 . S
C912 C911 1.373 . S
C912 C913 1.339 . S
C912 C915 1.530 . S
C913 C908 1.304 . S
C913 C912 1.339 . S
C913 H974 0.930 . S
C914 C910 1.567 . S
C914 H975 0.961 . S
C914 H976 0.960 . S
C914 H977 0.958 . S
C915 C912 1.530 . S
C915 H978 0.961 . S
C915 H979 0.960 . S
C915 H980 0.960 . S
C916 C917 1.530 . S
C916 H982 0.961 . S
C916 H983 0.961 . S
C916 H984 0.959 . S
C917 C916 1.530 . S
C917 O945 1.412 . S
C917 H981 0.980 . S
C918 C919 1.288 . S
C918 C923 1.377 . S
C918 O945 1.393 . S
C919 C918 1.288 . S
C919 C920 1.369 . S
C919 H985 0.932 . S
C920 C919 1.369 . S
C920 C921 1.398 . S
C920 C924 1.527 . S
C921 C920 1.398 . S
C921 C922 1.380 . S
C921 C935 1.497 . S
C922 C921 1.380 . S
C922 C923 1.383 . S
C922 C925 1.603 . S
C923 C918 1.377 . S
C923 C922 1.383 . S
C923 H986 0.929 . S
C924 C920 1.527 . S
C924 H987 0.961 . S
C924 H988 0.959 . S
C924 H989 0.959 . S
C925 C922 1.603 . S
C925 H990 0.960 . S
C925 H991 0.962 . S
C925 H992 0.961 . S
C926 C893 1.587 . S
C926 C927 1.360 . S
C926 C939 1.412 . S
C927 C926 1.360 . S
C927 C928 1.365 . S
C927 H993 0.929 . S
C928 C903 1.553 . S
C928 C927 1.365 . S
C928 C929 1.404 . S
C929 C928 1.404 . S
C929 C930 1.395 . S
C929 C940 1.451 . S
C930 C929 1.395 . S
C930 C931 1.322 . S
C930 H994 0.930 . S
C931 C930 1.322 . S
C931 C932 1.459 . S
C931 H995 0.929 . S
C932 C931 1.459 . S
C932 C933 1.445 . S
C932 C941 1.395 . S
C933 C911 1.432 . S
C933 C932 1.445 . S
C933 C934 1.370 . S
C934 C933 1.370 . S
C934 C935 1.438 . S
C934 H996 0.930 . S
C935 C921 1.497 . S
C935 C934 1.438 . S
C935 C936 1.360 . S
C936 C935 1.360 . S
C936 C937 1.401 . S
C936 C941 1.446 . S
C937 C936 1.401 . S
C937 C938 1.347 . S
C937 H997 0.929 . S
C938 C937 1.347 . S
C938 C939 1.455 . S
C938 H998 0.930 . S
C939 C926 1.412 . S
C939 C938 1.455 . S
C939 C940 1.331 . S
C940 C929 1.451 . S
C940 C939 1.331 . S
C940 C941 1.497 . S
C941 C932 1.395 . S
C941 C936 1.446 . S
C941 C940 1.497 . S
C942 C943 1.582 . S
C942 H999 0.962 . S
C942 H1000 0.959 . S
C942 H1001 0.958 . S
C943 C942 1.582 . S
C943 O946 1.458 . S
C943 H972 0.980 . S
O944 C889 1.426 . S
O944 C890 1.334 . S
O945 C917 1.412 . S
O945 C918 1.393 . S
O946 C908 1.435 . S
O946 C943 1.458 . S
O947 C899 1.468 . S
O947 C900 1.408 . S
H948 C889 0.980 . S
H949 C888 0.959 . S
H950 C888 0.959 . S
H951 C888 0.960 . S
H952 C891 0.929 . S
H953 C895 0.929 . S
H954 C896 0.959 . S
H955 C896 0.961 . S
H956 C896 0.961 . S
H957 C897 0.960 . S
H958 C897 0.960 . S
H959 C897 0.961 . S
H960 C899 0.980 . S
H961 C898 0.961 . S
H962 C898 0.960 . S
H963 C898 0.959 . S
H964 C901 0.930 . S
H965 C905 0.931 . S
H966 C906 0.959 . S
H967 C906 0.961 . S
H968 C906 0.959 . S
H969 C907 0.960 . S
H970 C907 0.960 . S
H971 C907 0.960 . S
H972 C943 0.980 . S
H973 C909 0.930 . S
H974 C913 0.930 . S
H975 C914 0.961 . S
H976 C914 0.960 . S
H977 C914 0.958 . S
H978 C915 0.961 . S
H979 C915 0.960 . S
H980 C915 0.960 . S
H981 C917 0.980 . S
H982 C916 0.961 . S
H983 C916 0.961 . S
H984 C916 0.959 . S
H985 C919 0.932 . S
H986 C923 0.929 . S
H987 C924 0.961 . S
H988 C924 0.959 . S
H989 C924 0.959 . S
H990 C925 0.960 . S
H991 C925 0.962 . S
H992 C925 0.961 . S
H993 C927 0.929 . S
H994 C930 0.930 . S
H995 C931 0.929 . S
H996 C934 0.930 . S
H997 C937 0.929 . S
H998 C938 0.930 . S
H999 C942 0.962 . S
H1000 C942 0.959 . S
H1001 C942 0.958 . S
H1002 C1008 0.930 . S
H1003 C1011 0.930 . S
H1004 C1012 0.930 . S
H1005 C1013 0.930 . S
H1006 C1016 0.930 . S
H1007 C1017 0.930 . S
C1008 H1002 0.930 . S
C1008 C1009 1.355 . S
C1008 C1010 1.415 . S
C1009 C1008 1.355 . S
C1009 C1011 1.419 . S
C1010 C1008 1.415 . S
C1010 C1015 1.425 . S
C1010 C1017 1.409 . S
C1011 H1003 0.930 . S
C1011 C1009 1.419 . S
C1011 C1012 1.362 . S
C1012 H1004 0.930 . S
C1012 C1011 1.362 . S
C1012 C1015 1.409 . S
C1013 H1005 0.930 . S
C1013 C1014 1.355 . S
C1013 C1015 1.415 . S
C1014 C1013 1.355 . S
C1014 C1016 1.419 . S
C1015 C1010 1.425 . S
C1015 C1012 1.409 . S
C1015 C1013 1.415 . S
C1016 H1006 0.930 . S
C1016 C1014 1.419 . S
C1016 C1017 1.362 . S
C1017 H1007 0.930 . S
C1017 C1010 1.409 . S
C1017 C1016 1.362 . S
H1018 C1024 0.930 . S
H1019 C1027 0.930 . S
H1020 C1028 0.930 . S
H1021 C1029 0.930 . S
H1022 C1032 0.930 . S
H1023 C1033 0.930 . S
C1024 H1018 0.930 . S
C1024 C1025 1.355 . S
C1024 C1026 1.415 . S
C1025 C1024 1.355 . S
C1025 C1027 1.419 . S
C1026 C1024 1.415 . S
C1026 C1031 1.425 . S
C1026 C1033 1.409 . S
C1027 H1019 0.930 . S
C1027 C1025 1.419 . S
C1027 C1028 1.362 . S
C1028 H1020 0.930 . S
C1028 C1027 1.362 . S
C1028 C1031 1.409 . S
C1029 H1021 0.930 . S
C1029 C1030 1.355 . S
C1029 C1031 1.415 . S
C1030 C1029 1.355 . S
C1030 C1032 1.419 . S
C1031 C1026 1.425 . S
C1031 C1028 1.409 . S
C1031 C1029 1.415 . S
C1032 H1022 0.930 . S
C1032 C1030 1.419 . S
C1032 C1033 1.362 . S
C1033 H1023 0.930 . S
C1033 C1026 1.409 . S
C1033 C1032 1.362 . S
H1034 C1040 0.930 . S
H1035 C1043 0.930 . S
H1036 C1044 0.930 . S
H1037 C1045 0.930 . S
H1038 C1048 0.930 . S
H1039 C1049 0.930 . S
C1040 H1034 0.930 . S
C1040 C1041 1.355 . S
C1040 C1042 1.415 . S
C1041 C1040 1.355 . S
C1041 C1043 1.419 . S
C1042 C1040 1.415 . S
C1042 C1047 1.425 . S
C1042 C1049 1.409 . S
C1043 H1035 0.930 . S
C1043 C1041 1.419 . S
C1043 C1044 1.362 . S
C1044 H1036 0.930 . S
C1044 C1043 1.362 . S
C1044 C1047 1.409 . S
C1045 H1037 0.930 . S
C1045 C1046 1.355 . S
C1045 C1047 1.415 . S
C1046 C1045 1.355 . S
C1046 C1048 1.419 . S
C1047 C1042 1.425 . S
C1047 C1044 1.409 . S
C1047 C1045 1.415 . S
C1048 H1038 0.930 . S
C1048 C1046 1.419 . S
C1048 C1049 1.362 . S
C1049 H1039 0.930 . S
C1049 C1042 1.409 . S
C1049 C1048 1.362 . S
H1050 C1056 0.930 . S
H1051 C1059 0.930 . S
H1052 C1060 0.930 . S
H1053 C1061 0.930 . S
H1054 C1064 0.930 . S
H1055 C1065 0.930 . S
C1056 H1050 0.930 . S
C1056 C1057 1.355 . S
C1056 C1058 1.415 . S
C1057 C1056 1.355 . S
C1057 C1059 1.419 . S
C1058 C1056 1.415 . S
C1058 C1063 1.425 . S
C1058 C1065 1.409 . S
C1059 H1051 0.930 . S
C1059 C1057 1.419 . S
C1059 C1060 1.362 . S
C1060 H1052 0.930 . S
C1060 C1059 1.362 . S
C1060 C1063 1.409 . S
C1061 H1053 0.930 . S
C1061 C1062 1.355 . S
C1061 C1063 1.415 . S
C1062 C1061 1.355 . S
C1062 C1064 1.419 . S
C1063 C1058 1.425 . S
C1063 C1060 1.409 . S
C1063 C1061 1.415 . S
C1064 H1054 0.930 . S
C1064 C1062 1.419 . S
C1064 C1065 1.362 . S
C1065 H1055 0.930 . S
C1065 C1058 1.409 . S
C1065 C1064 1.362 . S
H1066 C1072 0.930 . S
H1067 C1075 0.930 . S
H1068 C1076 0.930 . S
H1069 C1077 0.930 . S
H1070 C1080 0.930 . S
H1071 C1081 0.930 . S
C1072 H1066 0.930 . S
C1072 C1073 1.355 . S
C1072 C1074 1.415 . S
C1073 C1072 1.355 . S
C1073 C1075 1.419 . S
C1074 C1072 1.415 . S
C1074 C1079 1.425 . S
C1074 C1081 1.409 . S
C1075 H1067 0.930 . S
C1075 C1073 1.419 . S
C1075 C1076 1.362 . S
C1076 H1068 0.930 . S
C1076 C1075 1.362 . S
C1076 C1079 1.409 . S
C1077 H1069 0.930 . S
C1077 C1078 1.355 . S
C1077 C1079 1.415 . S
C1078 C1077 1.355 . S
C1078 C1080 1.419 . S
C1079 C1074 1.425 . S
C1079 C1076 1.409 . S
C1079 C1077 1.415 . S
C1080 H1070 0.930 . S
C1080 C1078 1.419 . S
C1080 C1081 1.362 . S
C1081 H1071 0.930 . S
C1081 C1074 1.409 . S
C1081 C1080 1.362 . S
H1082 C1088 0.930 . S
H1083 C1091 0.930 . S
H1084 C1092 0.930 . S
H1085 C1093 0.930 . S
H1086 C1096 0.930 . S
H1087 C1097 0.930 . S
C1088 H1082 0.930 . S
C1088 C1089 1.355 . S
C1088 C1090 1.415 . S
C1089 C1088 1.355 . S
C1089 C1091 1.419 . S
C1090 C1088 1.415 . S
C1090 C1095 1.425 . S
C1090 C1097 1.409 . S
C1091 H1083 0.930 . S
C1091 C1089 1.419 . S
C1091 C1092 1.362 . S
C1092 H1084 0.930 . S
C1092 C1091 1.362 . S
C1092 C1095 1.409 . S
C1093 H1085 0.930 . S
C1093 C1094 1.355 . S
C1093 C1095 1.415 . S
C1094 C1093 1.355 . S
C1094 C1096 1.419 . S
C1095 C1090 1.425 . S
C1095 C1092 1.409 . S
C1095 C1093 1.415 . S
C1096 H1086 0.930 . S
C1096 C1094 1.419 . S
C1096 C1097 1.362 . S
C1097 H1087 0.930 . S
C1097 C1090 1.409 . S
C1097 C1096 1.362 . S
H1098 C1104 0.930 . S
H1099 C1107 0.930 . S
H1100 C1108 0.930 . S
H1101 C1109 0.930 . S
H1102 C1112 0.930 . S
H1103 C1113 0.930 . S
C1104 H1098 0.930 . S
C1104 C1105 1.355 . S
C1104 C1106 1.415 . S
C1105 C1104 1.355 . S
C1105 C1107 1.419 . S
C1106 C1104 1.415 . S
C1106 C1111 1.425 . S
C1106 C1113 1.409 . S
C1107 H1099 0.930 . S
C1107 C1105 1.419 . S
C1107 C1108 1.362 . S
C1108 H1100 0.930 . S
C1108 C1107 1.362 . S
C1108 C1111 1.409 . S
C1109 H1101 0.930 . S
C1109 C1110 1.355 . S
C1109 C1111 1.415 . S
C1110 C1109 1.355 . S
C1110 C1112 1.419 . S
C1111 C1106 1.425 . S
C1111 C1108 1.409 . S
C1111 C1109 1.415 . S
C1112 H1102 0.930 . S
C1112 C1110 1.419 . S
C1112 C1113 1.362 . S
C1113 H1103 0.930 . S
C1113 C1106 1.409 . S
C1113 C1112 1.362 . S
H1114 C1120 0.930 . S
H1115 C1123 0.930 . S
H1116 C1124 0.930 . S
H1117 C1125 0.930 . S
H1118 C1128 0.930 . S
H1119 C1129 0.930 . S
C1120 H1114 0.930 . S
C1120 C1121 1.355 . S
C1120 C1122 1.415 . S
C1121 C1120 1.355 . S
C1121 C1123 1.419 . S
C1122 C1120 1.415 . S
C1122 C1127 1.425 . S
C1122 C1129 1.409 . S
C1123 H1115 0.930 . S
C1123 C1121 1.419 . S
C1123 C1124 1.362 . S
C1124 H1116 0.930 . S
C1124 C1123 1.362 . S
C1124 C1127 1.409 . S
C1125 H1117 0.930 . S
C1125 C1126 1.355 . S
C1125 C1127 1.415 . S
C1126 C1125 1.355 . S
C1126 C1128 1.419 . S
C1127 C1122 1.425 . S
C1127 C1124 1.409 . S
C1127 C1125 1.415 . S
C1128 H1118 0.930 . S
C1128 C1126 1.419 . S
C1128 C1129 1.362 . S
C1129 H1119 0.930 . S
C1129 C1122 1.409 . S
C1129 C1128 1.362 . S
H1130 C1136 0.930 . S
H1131 C1139 0.930 . S
H1132 C1140 0.930 . S
H1133 C1141 0.930 . S
H1134 C1144 0.930 . S
H1135 C1145 0.930 . S
C1136 H1130 0.930 . S
C1136 C1137 1.355 . S
C1136 C1138 1.415 . S
C1137 C1136 1.355 . S
C1137 C1139 1.419 . S
C1138 C1136 1.415 . S
C1138 C1143 1.425 . S
C1138 C1145 1.409 . S
C1139 H1131 0.930 . S
C1139 C1137 1.419 . S
C1139 C1140 1.362 . S
C1140 H1132 0.930 . S
C1140 C1139 1.362 . S
C1140 C1143 1.409 . S
C1141 H1133 0.930 . S
C1141 C1142 1.355 . S
C1141 C1143 1.415 . S
C1142 C1141 1.355 . S
C1142 C1144 1.419 . S
C1143 C1138 1.425 . S
C1143 C1140 1.409 . S
C1143 C1141 1.415 . S
C1144 H1134 0.930 . S
C1144 C1142 1.419 . S
C1144 C1145 1.362 . S
C1145 H1135 0.930 . S
C1145 C1138 1.409 . S
C1145 C1144 1.362 . S
H1146 C1152 0.930 . S
H1147 C1155 0.930 . S
H1148 C1156 0.930 . S
H1149 C1157 0.930 . S
H1150 C1160 0.930 . S
H1151 C1161 0.930 . S
C1152 H1146 0.930 . S
C1152 C1153 1.355 . S
C1152 C1154 1.415 . S
C1153 C1152 1.355 . S
C1153 C1155 1.419 . S
C1154 C1152 1.415 . S
C1154 C1159 1.425 . S
C1154 C1161 1.409 . S
C1155 H1147 0.930 . S
C1155 C1153 1.419 . S
C1155 C1156 1.362 . S
C1156 H1148 0.930 . S
C1156 C1155 1.362 . S
C1156 C1159 1.409 . S
C1157 H1149 0.930 . S
C1157 C1158 1.355 . S
C1157 C1159 1.415 . S
C1158 C1157 1.355 . S
C1158 C1160 1.419 . S
C1159 C1154 1.425 . S
C1159 C1156 1.409 . S
C1159 C1157 1.415 . S
C1160 H1150 0.930 . S
C1160 C1158 1.419 . S
C1160 C1161 1.362 . S
C1161 H1151 0.930 . S
C1161 C1154 1.409 . S
C1161 C1160 1.362 . S
H1162 C1168 0.930 . S
H1163 C1171 0.930 . S
H1164 C1172 0.930 . S
H1165 C1173 0.930 . S
H1166 C1176 0.930 . S
H1167 C1177 0.930 . S
C1168 H1162 0.930 . S
C1168 C1169 1.355 . S
C1168 C1170 1.415 . S
C1169 C1168 1.355 . S
C1169 C1171 1.419 . S
C1170 C1168 1.415 . S
C1170 C1175 1.425 . S
C1170 C1177 1.409 . S
C1171 H1163 0.930 . S
C1171 C1169 1.419 . S
C1171 C1172 1.362 . S
C1172 H1164 0.930 . S
C1172 C1171 1.362 . S
C1172 C1175 1.409 . S
C1173 H1165 0.930 . S
C1173 C1174 1.355 . S
C1173 C1175 1.415 . S
C1174 C1173 1.355 . S
C1174 C1176 1.419 . S
C1175 C1170 1.425 . S
C1175 C1172 1.409 . S
C1175 C1173 1.415 . S
C1176 H1166 0.930 . S
C1176 C1174 1.419 . S
C1176 C1177 1.362 . S
C1177 H1167 0.930 . S
C1177 C1170 1.409 . S
C1177 C1176 1.362 . S
H1178 C1184 0.930 . S
H1179 C1187 0.930 . S
H1180 C1188 0.930 . S
H1181 C1189 0.930 . S
H1182 C1192 0.930 . S
H1183 C1193 0.930 . S
C1184 H1178 0.930 . S
C1184 C1185 1.355 . S
C1184 C1186 1.415 . S
C1185 C1184 1.355 . S
C1185 C1187 1.419 . S
C1186 C1184 1.415 . S
C1186 C1191 1.425 . S
C1186 C1193 1.409 . S
C1187 H1179 0.930 . S
C1187 C1185 1.419 . S
C1187 C1188 1.362 . S
C1188 H1180 0.930 . S
C1188 C1187 1.362 . S
C1188 C1191 1.409 . S
C1189 H1181 0.930 . S
C1189 C1190 1.355 . S
C1189 C1191 1.415 . S
C1190 C1189 1.355 . S
C1190 C1192 1.419 . S
C1191 C1186 1.425 . S
C1191 C1188 1.409 . S
C1191 C1189 1.415 . S
C1192 H1182 0.930 . S
C1192 C1190 1.419 . S
C1192 C1193 1.362 . S
C1193 H1183 0.930 . S
C1193 C1186 1.409 . S
C1193 C1192 1.362 . S
H1194 C1200 0.930 . S
H1195 C1203 0.930 . S
H1196 C1204 0.930 . S
H1197 C1205 0.930 . S
H1198 C1208 0.930 . S
H1199 C1209 0.930 . S
C1200 H1194 0.930 . S
C1200 C1201 1.355 . S
C1200 C1202 1.415 . S
C1201 C1200 1.355 . S
C1201 C1203 1.419 . S
C1202 C1200 1.415 . S
C1202 C1207 1.425 . S
C1202 C1209 1.409 . S
C1203 H1195 0.930 . S
C1203 C1201 1.419 . S
C1203 C1204 1.362 . S
C1204 H1196 0.930 . S
C1204 C1203 1.362 . S
C1204 C1207 1.409 . S
C1205 H1197 0.930 . S
C1205 C1206 1.355 . S
C1205 C1207 1.415 . S
C1206 C1205 1.355 . S
C1206 C1208 1.419 . S
C1207 C1202 1.425 . S
C1207 C1204 1.409 . S
C1207 C1205 1.415 . S
C1208 H1198 0.930 . S
C1208 C1206 1.419 . S
C1208 C1209 1.362 . S
C1209 H1199 0.930 . S
C1209 C1202 1.409 . S
C1209 C1208 1.362 . S
H1210 C1216 0.930 . S
H1211 C1219 0.930 . S
H1212 C1220 0.930 . S
H1213 C1221 0.930 . S
H1214 C1224 0.930 . S
H1215 C1225 0.930 . S
C1216 H1210 0.930 . S
C1216 C1217 1.355 . S
C1216 C1218 1.415 . S
C1217 C1216 1.355 . S
C1217 C1219 1.419 . S
C1218 C1216 1.415 . S
C1218 C1223 1.425 . S
C1218 C1225 1.409 . S
C1219 H1211 0.930 . S
C1219 C1217 1.419 . S
C1219 C1220 1.362 . S
C1220 H1212 0.930 . S
C1220 C1219 1.362 . S
C1220 C1223 1.409 . S
C1221 H1213 0.930 . S
C1221 C1222 1.355 . S
C1221 C1223 1.415 . S
C1222 C1221 1.355 . S
C1222 C1224 1.419 . S
C1223 C1218 1.425 . S
C1223 C1220 1.409 . S
C1223 C1221 1.415 . S
C1224 H1214 0.930 . S
C1224 C1222 1.419 . S
C1224 C1225 1.362 . S
C1225 H1215 0.930 . S
C1225 C1218 1.409 . S
C1225 C1224 1.362 . S
H1226 C1232 0.930 . S
H1227 C1235 0.930 . S
H1228 C1236 0.930 . S
H1229 C1237 0.930 . S
H1230 C1240 0.930 . S
H1231 C1241 0.930 . S
C1232 H1226 0.930 . S
C1232 C1233 1.355 . S
C1232 C1234 1.415 . S
C1233 C1232 1.355 . S
C1233 C1235 1.419 . S
C1234 C1232 1.415 . S
C1234 C1239 1.425 . S
C1234 C1241 1.409 . S
C1235 H1227 0.930 . S
C1235 C1233 1.419 . S
C1235 C1236 1.362 . S
C1236 H1228 0.930 . S
C1236 C1235 1.362 . S
C1236 C1239 1.409 . S
C1237 H1229 0.930 . S
C1237 C1238 1.355 . S
C1237 C1239 1.415 . S
C1238 C1237 1.355 . S
C1238 C1240 1.419 . S
C1239 C1234 1.425 . S
C1239 C1236 1.409 . S
C1239 C1237 1.415 . S
C1240 H1230 0.930 . S
C1240 C1238 1.419 . S
C1240 C1241 1.362 . S
C1241 H1231 0.930 . S
C1241 C1234 1.409 . S
C1241 C1240 1.362 . S
H1242 C1248 0.930 . S
H1243 C1251 0.930 . S
H1244 C1252 0.930 . S
H1245 C1253 0.930 . S
H1246 C1256 0.930 . S
H1247 C1257 0.930 . S
C1248 H1242 0.930 . S
C1248 C1249 1.355 . S
C1248 C1250 1.415 . S
C1249 C1248 1.355 . S
C1249 C1251 1.419 . S
C1250 C1248 1.415 . S
C1250 C1255 1.425 . S
C1250 C1257 1.409 . S
C1251 H1243 0.930 . S
C1251 C1249 1.419 . S
C1251 C1252 1.362 . S
C1252 H1244 0.930 . S
C1252 C1251 1.362 . S
C1252 C1255 1.409 . S
C1253 H1245 0.930 . S
C1253 C1254 1.355 . S
C1253 C1255 1.415 . S
C1254 C1253 1.355 . S
C1254 C1256 1.419 . S
C1255 C1250 1.425 . S
C1255 C1252 1.409 . S
C1255 C1253 1.415 . S
C1256 H1246 0.930 . S
C1256 C1254 1.419 . S
C1256 C1257 1.362 . S
C1257 H1247 0.930 . S
C1257 C1250 1.409 . S
C1257 C1256 1.362 . S
H1258 C1264 0.930 . S
H1259 C1267 0.930 . S
H1260 C1268 0.930 . S
H1261 C1269 0.930 . S
H1262 C1272 0.930 . S
H1263 C1273 0.930 . S
C1264 H1258 0.930 . S
C1264 C1265 1.355 . S
C1264 C1266 1.415 . S
C1265 C1264 1.355 . S
C1265 C1267 1.419 . S
C1266 C1264 1.415 . S
C1266 C1271 1.425 . S
C1266 C1273 1.409 . S
C1267 H1259 0.930 . S
C1267 C1265 1.419 . S
C1267 C1268 1.362 . S
C1268 H1260 0.930 . S
C1268 C1267 1.362 . S
C1268 C1271 1.409 . S
C1269 H1261 0.930 . S
C1269 C1270 1.355 . S
C1269 C1271 1.415 . S
C1270 C1269 1.355 . S
C1270 C1272 1.419 . S
C1271 C1266 1.425 . S
C1271 C1268 1.409 . S
C1271 C1269 1.415 . S
C1272 H1262 0.930 . S
C1272 C1270 1.419 . S
C1272 C1273 1.362 . S
C1273 H1263 0.930 . S
C1273 C1266 1.409 . S
C1273 C1272 1.362 . S
H1274 C1280 0.930 . S
H1275 C1283 0.930 . S
H1276 C1284 0.930 . S
H1277 C1285 0.930 . S
H1278 C1288 0.930 . S
H1279 C1289 0.930 . S
C1280 H1274 0.930 . S
C1280 C1281 1.355 . S
C1280 C1282 1.415 . S
C1281 C1280 1.355 . S
C1281 C1283 1.419 . S
C1282 C1280 1.415 . S
C1282 C1287 1.425 . S
C1282 C1289 1.409 . S
C1283 H1275 0.930 . S
C1283 C1281 1.419 . S
C1283 C1284 1.362 . S
C1284 H1276 0.930 . S
C1284 C1283 1.362 . S
C1284 C1287 1.409 . S
C1285 H1277 0.930 . S
C1285 C1286 1.355 . S
C1285 C1287 1.415 . S
C1286 C1285 1.355 . S
C1286 C1288 1.419 . S
C1287 C1282 1.425 . S
C1287 C1284 1.409 . S
C1287 C1285 1.415 . S
C1288 H1278 0.930 . S
C1288 C1286 1.419 . S
C1288 C1289 1.362 . S
C1289 H1279 0.930 . S
C1289 C1282 1.409 . S
C1289 C1288 1.362 . S
H1290 C1296 0.930 . S
H1291 C1299 0.930 . S
H1292 C1300 0.930 . S
H1293 C1301 0.930 . S
H1294 C1304 0.930 . S
H1295 C1305 0.930 . S
C1296 H1290 0.930 . S
C1296 C1297 1.355 . S
C1296 C1298 1.415 . S
C1297 C1296 1.355 . S
C1297 C1299 1.419 . S
C1298 C1296 1.415 . S
C1298 C1303 1.425 . S
C1298 C1305 1.409 . S
C1299 H1291 0.930 . S
C1299 C1297 1.419 . S
C1299 C1300 1.362 . S
C1300 H1292 0.930 . S
C1300 C1299 1.362 . S
C1300 C1303 1.409 . S
C1301 H1293 0.930 . S
C1301 C1302 1.355 . S
C1301 C1303 1.415 . S
C1302 C1301 1.355 . S
C1302 C1304 1.419 . S
C1303 C1298 1.425 . S
C1303 C1300 1.409 . S
C1303 C1301 1.415 . S
C1304 H1294 0.930 . S
C1304 C1302 1.419 . S
C1304 C1305 1.362 . S
C1305 H1295 0.930 . S
C1305 C1298 1.409 . S
C1305 C1304 1.362 . S
H1306 C1312 0.930 . S
H1307 C1315 0.930 . S
H1308 C1316 0.930 . S
H1309 C1317 0.930 . S
H1310 C1320 0.930 . S
H1311 C1321 0.930 . S
C1312 H1306 0.930 . S
C1312 C1313 1.355 . S
C1312 C1314 1.415 . S
C1313 C1312 1.355 . S
C1313 C1315 1.419 . S
C1314 C1312 1.415 . S
C1314 C1319 1.425 . S
C1314 C1321 1.409 . S
C1315 H1307 0.930 . S
C1315 C1313 1.419 . S
C1315 C1316 1.362 . S
C1316 H1308 0.930 . S
C1316 C1315 1.362 . S
C1316 C1319 1.409 . S
C1317 H1309 0.930 . S
C1317 C1318 1.355 . S
C1317 C1319 1.415 . S
C1318 C1317 1.355 . S
C1318 C1320 1.419 . S
C1319 C1314 1.425 . S
C1319 C1316 1.409 . S
C1319 C1317 1.415 . S
C1320 H1310 0.930 . S
C1320 C1318 1.419 . S
C1320 C1321 1.362 . S
C1321 H1311 0.930 . S
C1321 C1314 1.409 . S
C1321 C1320 1.362 . S
H1322 C1328 0.930 . S
H1323 C1331 0.930 . S
H1324 C1332 0.930 . S
H1325 C1333 0.930 . S
H1326 C1336 0.930 . S
H1327 C1337 0.930 . S
C1328 H1322 0.930 . S
C1328 C1329 1.355 . S
C1328 C1330 1.415 . S
C1329 C1328 1.355 . S
C1329 C1331 1.419 . S
C1330 C1328 1.415 . S
C1330 C1335 1.425 . S
C1330 C1337 1.409 . S
C1331 H1323 0.930 . S
C1331 C1329 1.419 . S
C1331 C1332 1.362 . S
C1332 H1324 0.930 . S
C1332 C1331 1.362 . S
C1332 C1335 1.409 . S
C1333 H1325 0.930 . S
C1333 C1334 1.355 . S
C1333 C1335 1.415 . S
C1334 C1333 1.355 . S
C1334 C1336 1.419 . S
C1335 C1330 1.425 . S
C1335 C1332 1.409 . S
C1335 C1333 1.415 . S
C1336 H1326 0.930 . S
C1336 C1334 1.419 . S
C1336 C1337 1.362 . S
C1337 H1327 0.930 . S
C1337 C1330 1.409 . S
C1337 C1336 1.362 . S
H1338 C1344 0.930 . S
H1339 C1347 0.930 . S
H1340 C1348 0.930 . S
H1341 C1349 0.930 . S
H1342 C1352 0.930 . S
H1343 C1353 0.930 . S
C1344 H1338 0.930 . S
C1344 C1345 1.355 . S
C1344 C1346 1.415 . S
C1345 C1344 1.355 . S
C1345 C1347 1.419 . S
C1346 C1344 1.415 . S
C1346 C1351 1.425 . S
C1346 C1353 1.409 . S
C1347 H1339 0.930 . S
C1347 C1345 1.419 . S
C1347 C1348 1.362 . S
C1348 H1340 0.930 . S
C1348 C1347 1.362 . S
C1348 C1351 1.409 . S
C1349 H1341 0.930 . S
C1349 C1350 1.355 . S
C1349 C1351 1.415 . S
C1350 C1349 1.355 . S
C1350 C1352 1.419 . S
C1351 C1346 1.425 . S
C1351 C1348 1.409 . S
C1351 C1349 1.415 . S
C1352 H1342 0.930 . S
C1352 C1350 1.419 . S
C1352 C1353 1.362 . S
C1353 H1343 0.930 . S
C1353 C1346 1.409 . S
C1353 C1352 1.362 . S
H1354 C1360 0.930 . S
H1355 C1363 0.930 . S
H1356 C1364 0.930 . S
H1357 C1365 0.930 . S
H1358 C1368 0.930 . S
H1359 C1369 0.930 . S
C1360 H1354 0.930 . S
C1360 C1361 1.355 . S
C1360 C1362 1.415 . S
C1361 C1360 1.355 . S
C1361 C1363 1.419 . S
C1362 C1360 1.415 . S
C1362 C1367 1.425 . S
C1362 C1369 1.409 . S
C1363 H1355 0.930 . S
C1363 C1361 1.419 . S
C1363 C1364 1.362 . S
C1364 H1356 0.930 . S
C1364 C1363 1.362 . S
C1364 C1367 1.409 . S
C1365 H1357 0.930 . S
C1365 C1366 1.355 . S
C1365 C1367 1.415 . S
C1366 C1365 1.355 . S
C1366 C1368 1.419 . S
C1367 C1362 1.425 . S
C1367 C1364 1.409 . S
C1367 C1365 1.415 . S
C1368 H1358 0.930 . S
C1368 C1366 1.419 . S
C1368 C1369 1.362 . S
C1369 H1359 0.930 . S
C1369 C1362 1.409 . S
C1369 C1368 1.362 . S
H1370 C1376 0.930 . S
H1371 C1379 0.930 . S
H1372 C1380 0.930 . S
H1373 C1381 0.930 . S
H1374 C1384 0.930 . S
H1375 C1385 0.930 . S
C1376 H1370 0.930 . S
C1376 C1377 1.355 . S
C1376 C1378 1.415 . S
C1377 C1376 1.355 . S
C1377 C1379 1.419 . S
C1378 C1376 1.415 . S
C1378 C1383 1.425 . S
C1378 C1385 1.409 . S
C1379 H1371 0.930 . S
C1379 C1377 1.419 . S
C1379 C1380 1.362 . S
C1380 H1372 0.930 . S
C1380 C1379 1.362 . S
C1380 C1383 1.409 . S
C1381 H1373 0.930 . S
C1381 C1382 1.355 . S
C1381 C1383 1.415 . S
C1382 C1381 1.355 . S
C1382 C1384 1.419 . S
C1383 C1378 1.425 . S
C1383 C1380 1.409 . S
C1383 C1381 1.415 . S
C1384 H1374 0.930 . S
C1384 C1382 1.419 . S
C1384 C1385 1.362 . S
C1385 H1375 0.930 . S
C1385 C1378 1.409 . S
C1385 C1384 1.362 . S
C1009 C39 1.918 . S
C1014 C347 1.683 . S
C1025 C91 1.907 . S
C1030 C487 1.683 . S
C1046 C575 1.563 . S
C1041 C128 1.685 . S
C1062 C715 1.560 . S
C1057 C188 1.731 . S
C1078 C829 1.551 . S
C1073 C250 1.838 . S
C1094 C899 1.063 . S
C1089 C304 1.920 . S
C1105 C75 1.767 . S
C1110 C557 1.022 . S
C1121 C144 1.786 . S
C1126 C661 1.249 . S
C1142 C775 1.370 . S
C1137 C198 1.771 . S
C1158 C917 1.447 . S
C1153 C234 1.666 . S
C1169 C294 1.788 . S
C1174 C329 0.836 . S
C1190 C433 1.150 . S
C1185 C29 1.580 . S
C1206 C671 1.540 . S
C1201 C38 2.028 . S
C1217 C92 1.986 . S
C1222 C785 1.516 . S
C1238 C943 1.180 . S
C1233 C135 1.947 . S
C1249 C181 1.704 . S
C1254 C319 1.400 . S
C1265 C251 2.062 . S
C1270 C443 1.517 . S
C1281 C303 1.872 . S
C1286 C547 1.742 . S
C1297 C82 1.850 . S
C1302 C889 1.596 . S
C1318 C373 1.233 . S
C1313 C145 2.000 . S
C1329 C197 1.919 . S
C1334 C461 1.358 . S
C1345 C241 1.865 . S
C1350 C601 1.141 . S
C1361 C287 1.705 . S
C1366 C689 1.164 . S
C1377 C22 1.794 . S
C1382 C803 1.249 . S
