# Generated by pormake.
# Topology nom, (4,4)-cn, num edge types: 1
# Building blocks:
#     Node 0, Type 0, BuildingBlock: KUFVIS_clean_linker_0, # of connection points: 4
#     Node 1, Type 0, BuildingBlock: KUFVIS_clean_linker_0, # of connection points: 4
#     Node 2, Type 0, BuildingBlock: KUFVIS_clean_linker_0, # of connection points: 4
#     Node 3, Type 0, BuildingBlock: KUFVIS_clean_linker_0, # of connection points: 4
#     Node 4, Type 0, BuildingBlock: KUFVIS_clean_linker_0, # of connection points: 4
#     Node 5, Type 0, BuildingBlock: KUFVIS_clean_linker_0, # of connection points: 4
#     Node 6, Type 1, BuildingBlock: UXUYUI_clean_sbu_0, # of connection points: 4
#     Node 7, Type 1, BuildingBlock: UXUYUI_clean_sbu_0, # of connection points: 4
#     Node 8, Type 1, BuildingBlock: UXUYUI_clean_sbu_0, # of connection points: 4
#     Node 9, Type 1, BuildingBlock: UXUYUI_clean_sbu_0, # of connection points: 4
#     Node 10, Type 1, BuildingBlock: UXUYUI_clean_sbu_0, # of connection points: 4
#     Node 11, Type 1, BuildingBlock: UXUYUI_clean_sbu_0, # of connection points: 4
#     Edge 12, Type (0, 1), BuildingBlock: AJUNOK_clean_linker_0, # of connection points: 2
#     Edge 13, Type (0, 1), BuildingBlock: AJUNOK_clean_linker_0, # of connection points: 2
#     Edge 14, Type (0, 1), BuildingBlock: AJUNOK_clean_linker_0, # of connection points: 2
#     Edge 15, Type (0, 1), BuildingBlock: AJUNOK_clean_linker_0, # of connection points: 2
#     Edge 16, Type (0, 1), BuildingBlock: AJUNOK_clean_linker_0, # of connection points: 2
#     Edge 17, Type (0, 1), BuildingBlock: AJUNOK_clean_linker_0, # of connection points: 2
#     Edge 18, Type (0, 1), BuildingBlock: AJUNOK_clean_linker_0, # of connection points: 2
#     Edge 19, Type (0, 1), BuildingBlock: AJUNOK_clean_linker_0, # of connection points: 2
#     Edge 20, Type (0, 1), BuildingBlock: AJUNOK_clean_linker_0, # of connection points: 2
#     Edge 21, Type (0, 1), BuildingBlock: AJUNOK_clean_linker_0, # of connection points: 2
#     Edge 22, Type (0, 1), BuildingBlock: AJUNOK_clean_linker_0, # of connection points: 2
#     Edge 23, Type (0, 1), BuildingBlock: AJUNOK_clean_linker_0, # of connection points: 2
#     Edge 24, Type (0, 1), BuildingBlock: AJUNOK_clean_linker_0, # of connection points: 2
#     Edge 25, Type (0, 1), BuildingBlock: AJUNOK_clean_linker_0, # of connection points: 2
#     Edge 26, Type (0, 1), BuildingBlock: AJUNOK_clean_linker_0, # of connection points: 2
#     Edge 27, Type (0, 1), BuildingBlock: AJUNOK_clean_linker_0, # of connection points: 2
#     Edge 28, Type (0, 1), BuildingBlock: AJUNOK_clean_linker_0, # of connection points: 2
#     Edge 29, Type (0, 1), BuildingBlock: AJUNOK_clean_linker_0, # of connection points: 2
#     Edge 30, Type (0, 1), BuildingBlock: AJUNOK_clean_linker_0, # of connection points: 2
#     Edge 31, Type (0, 1), BuildingBlock: AJUNOK_clean_linker_0, # of connection points: 2
#     Edge 32, Type (0, 1), BuildingBlock: AJUNOK_clean_linker_0, # of connection points: 2
#     Edge 33, Type (0, 1), BuildingBlock: AJUNOK_clean_linker_0, # of connection points: 2
#     Edge 34, Type (0, 1), BuildingBlock: AJUNOK_clean_linker_0, # of connection points: 2
#     Edge 35, Type (0, 1), BuildingBlock: AJUNOK_clean_linker_0, # of connection points: 2
# Relax obj value: 0.035
# Max RMSD: 0.147
# Mean RMSD: 0.094
data_MOF--net-nom--node1-UXUYUI_clean_sbu_0--node2-KUFVIS_clean_linker_0--edge1-AJUNOK_clean_linker_0
_symmetry_space_group_name_H-M    P1
_symmetry_Int_Tables_number       1
_symmetry_cell_setting            triclinic
loop_
_symmetry_equiv_pos_as_xyz
'x, y, z'
_cell_length_a     43.735215
_cell_length_b     43.689835
_cell_length_c     45.386134
_cell_angle_alpha  89.909958
_cell_angle_beta   89.914512
_cell_angle_gamma 119.99356
loop_
_atom_site_label
_atom_site_type_symbol
_atom_site_fract_x
_atom_site_fract_y
_atom_site_fract_z
_atom_type_partial_charge
H0 H 0.16604 0.61482 0.34315 0.0
H1 H 0.07959 0.58747 0.28441 0.0
H2 H 0.06032 0.54472 0.37302 0.0
H3 H 1.01055 0.55213 0.36562 0.0
H4 H 0.9251 0.48999 0.3068 0.0
H5 H 0.03157 0.52959 0.27734 0.0
C6 C 0.13784 0.60034 0.33893 0.0
C7 C 0.11462 0.57924 0.36112 0.0
C8 C 0.1254 0.60317 0.31136 0.0
C9 C 0.08899 0.58481 0.3058 0.0
C10 C 0.06489 0.56371 0.32806 0.0
C11 C 0.07814 0.56129 0.35581 0.0
C12 C 1.02613 0.54359 0.3222 0.0
C13 C 1.00155 0.53974 0.3443 0.0
C14 C 0.96517 0.52043 0.33862 0.0
C15 C 0.95327 0.5047 0.31114 0.0
C16 C 0.977 0.50786 0.2891 0.0
C17 C 1.01339 0.52758 0.29449 0.0
H18 H 0.5816 0.15135 0.51517 0.0
H19 H 0.52008 0.0725 0.45111 0.0
H20 H 0.53906 0.0422 0.53728 0.0
H21 H 0.4846 0.99505 0.52884 0.0
H22 H 0.44761 0.91489 0.46245 0.0
H23 H 0.52084 0.02197 0.43844 0.0
C24 C 0.56675 0.12373 0.50881 0.0
C25 C 0.56176 0.09767 0.52913 0.0
C26 C 0.55201 0.11478 0.48073 0.0
C27 C 0.53216 0.07904 0.4727 0.0
C28 C 0.52706 0.05206 0.49291 0.0
C29 C 0.5422 0.06196 0.52126 0.0
C30 C 0.50549 1.01385 0.4847 0.0
C31 C 0.48511 0.98781 0.50612 0.0
C32 C 0.4644 0.95215 0.49809 0.0
C33 C 0.46358 0.94245 0.46871 0.0
C34 C 0.4836 0.96753 0.44733 0.0
C35 C 0.5049 1.00303 0.45526 0.0
H36 H 0.59035 0.46174 0.63898 0.0
H37 H 0.52493 0.47918 0.699 0.0
H38 H 0.54469 0.52387 0.611 0.0
H39 H 0.48771 0.51438 0.61938 0.0
H40 H 0.45809 0.56899 0.68124 0.0
H41 H 0.5302 0.53471 0.70794 0.0
C42 C 0.57454 0.47395 0.6438 0.0
C43 C 0.56923 0.49332 0.62192 0.0
C44 C 0.55885 0.46896 0.6715 0.0
C45 C 0.53748 0.48374 0.67759 0.0
C46 C 0.53227 0.50412 0.65599 0.0
C47 C 0.54804 0.50831 0.62794 0.0
C48 C 0.51124 0.52166 0.66292 0.0
C49 C 0.48989 0.52517 0.64125 0.0
C50 C 0.47077 0.54223 0.648 0.0
C51 C 0.473 0.55588 0.67618 0.0
C52 C 0.49423 0.55323 0.69782 0.0
C53 C 0.51318 0.53597 0.69124 0.0
H54 H 0.16251 0.58447 0.80191 0.0
H55 H 0.08142 0.5211 0.86403 0.0
H56 H 0.05406 0.53812 0.77611 0.0
H57 H 1.00637 0.48161 0.78609 0.0
H58 H 0.92447 0.45418 0.85029 0.0
H59 H 0.03175 0.52543 0.87419 0.0
C60 C 0.13465 0.56881 0.80734 0.0
C61 C 0.10942 0.56294 0.78588 0.0
C62 C 0.12475 0.55415 0.83545 0.0
C63 C 0.08878 0.53284 0.84229 0.0
C64 C 0.06259 0.52695 0.82114 0.0
C65 C 0.07341 0.5419 0.79271 0.0
C66 C 1.02421 0.50635 0.82903 0.0
C67 C 0.99852 0.48457 0.80806 0.0
C68 C 0.96254 0.46559 0.8158 0.0
C69 C 0.95222 0.46876 0.84425 0.0
C70 C 0.97703 0.48997 0.86521 0.0
C71 C 1.01292 0.50868 0.85773 0.0
H72 H 0.52599 0.91717 0.0133 0.0
H73 H 0.56677 0.99914 0.94814 0.0
H74 H 0.55255 0.02178 0.03865 0.0
H75 H 0.59949 0.07472 0.028 0.0
H76 H 0.61284 0.15358 0.9652 0.0
H77 H 0.55886 0.045 0.93913 0.0
C78 C 0.53658 0.94479 0.00751 0.0
C79 C 0.53964 0.96868 0.02924 0.0
C80 C 0.54561 0.95549 0.9783 0.0
C81 C 0.55887 0.99115 0.97074 0.0
C82 C 0.56234 1.01608 0.99242 0.0
C83 C 0.55167 1.00401 0.02165 0.0
C84 C 0.57665 0.05435 0.98476 0.0
C85 C 0.59459 0.08116 0.00612 0.0
C86 C 0.6065 0.11675 -0.00067 0.0
C87 C 0.60216 0.1259 0.97081 0.0
C88 C 0.58577 0.10028 0.94904 0.0
C89 C 0.57256 0.06454 0.95607 0.0
H90 H 0.49893 0.61018 0.13911 0.0
H91 H 0.5641 0.59177 0.19831 0.0
H92 H 0.54012 0.54387 0.11166 0.0
H93 H 0.59631 0.55184 0.1182 0.0
H94 H 0.63145 0.50303 0.1813 0.0
H95 H 0.56042 0.53812 0.20893 0.0
C96 C 0.51401 0.59717 0.14385 0.0
C97 C 0.51786 0.57662 0.12219 0.0
C98 C 0.5303 0.60235 0.17121 0.0
C99 C 0.55085 0.58671 0.17725 0.0
C100 C 0.55462 0.56514 0.15596 0.0
C101 C 0.538 0.56046 0.1283 0.0
C102 C 0.57568 0.54756 0.16269 0.0
C103 C 0.59567 0.54267 0.1405 0.0
C104 C 0.61547 0.52633 0.14725 0.0
C105 C 0.61591 0.51542 0.17608 0.0
C106 C 0.59642 0.51994 0.19823 0.0
C107 C 0.57598 0.53552 0.19157 0.0
Li108 Li 0.66175 0.42751 0.43597 0.0
Li109 Li 0.65359 0.37308 0.41163 0.0
Li110 Li 0.71197 0.42853 0.40722 0.0
Li111 Li 0.66014 0.42112 0.38244 0.0
C112 C 0.7114 0.41059 0.46564 0.0
N113 N 0.76147 0.4307 0.5095 0.0
C114 C 0.71711 0.38535 0.47956 0.0
C115 C 0.73127 0.44608 0.47386 0.0
C116 C 0.7425 0.39605 0.50176 0.0
C117 C 0.75645 0.45571 0.49611 0.0
C118 C 0.59046 0.36517 0.4172 0.0
C119 C 0.53798 0.31238 0.4015 0.0
N120 N 0.52718 0.30498 0.43004 0.0
C121 C 0.57875 0.35721 0.44636 0.0
C122 C 0.56986 0.34275 0.39454 0.0
C123 C 0.54671 0.32659 0.45241 0.0
C124 C 0.62971 0.46252 0.46274 0.0
N125 N 0.64774 0.44529 0.46853 0.0
C126 C 0.64318 0.45194 0.5203 0.0
C127 C 0.65401 0.43925 0.49667 0.0
C128 C 0.62531 0.47061 0.51496 0.0
C129 C 0.61816 0.4755 0.48577 0.0
H130 H 0.62377 0.46566 0.44022 0.0
H131 H 0.6668 0.42402 0.50088 0.0
C132 C 0.62417 0.29991 0.39508 0.0
N133 N 0.63108 0.32304 0.41757 0.0
C134 C 0.60763 0.26353 0.40069 0.0
C135 C 0.60562 0.27561 0.45238 0.0
C136 C 0.62227 0.31161 0.44582 0.0
C137 C 0.59822 0.25103 0.42971 0.0
H138 H 0.6316 0.30963 0.37283 0.0
H139 H 0.62828 0.33058 0.46329 0.0
C140 C 0.70403 0.49064 0.38828 0.0
N141 N 0.72141 0.54629 0.34999 0.0
C142 C 0.73129 0.50048 0.36778 0.0
C143 C 0.68569 0.5092 0.38933 0.0
C144 C 0.73971 0.5287 0.34865 0.0
C145 C 0.69481 0.53719 0.36975 0.0
C146 C 0.68446 0.3891 0.34681 0.0
C147 C 0.71617 0.40633 0.33103 0.0
C148 C 0.65285 0.36787 0.33188 0.0
C149 C 0.71567 0.40219 0.30048 0.0
C150 C 0.65345 0.36445 0.30131 0.0
N151 N 0.68459 0.38153 0.28638 0.0
C152 C 0.77436 0.42614 0.39701 0.0
C153 C 0.78437 0.48197 0.41313 0.0
C154 C 0.81053 0.43979 0.39269 0.0
N155 N 0.76199 0.44749 0.40631 0.0
C156 C 0.82078 0.49675 0.40909 0.0
C157 C 0.83422 0.47572 0.39822 0.0
H158 H 0.75594 0.39882 0.39175 0.0
H159 H 0.77385 0.49835 0.42063 0.0
C160 C 0.61195 0.43339 0.35045 0.0
N161 N 0.64392 0.43529 0.34859 0.0
C162 C 0.60052 0.44711 0.32788 0.0
C163 C 0.65493 0.46406 0.30181 0.0
C164 C 0.66525 0.45008 0.32478 0.0
C165 C 0.62238 0.46302 0.30332 0.0
H166 H 0.59575 0.42217 0.36988 0.0
H167 H 0.69085 0.45214 0.32395 0.0
O168 O 0.68684 0.40066 0.44373 0.0
O169 O 0.62223 0.39443 0.41089 0.0
O170 O 0.69505 0.46271 0.40691 0.0
O171 O 0.68446 0.39273 0.37674 0.0
H172 H 0.70202 0.3578 0.47332 0.0
H173 H 0.7272 0.46593 0.4632 0.0
H174 H 0.74713 0.3768 0.51283 0.0
H175 H 0.77198 0.48307 0.50272 0.0
H176 H 0.52184 0.29467 0.38421 0.0
H177 H 0.59447 0.37419 0.46417 0.0
H178 H 0.57846 0.34867 0.37185 0.0
H179 H 0.53744 0.31994 0.47489 0.0
H180 H 0.64802 0.44649 0.54257 0.0
H181 H 0.60385 0.48918 0.48084 0.0
H182 H 0.60217 0.24542 0.38258 0.0
H183 H 0.59919 0.26711 0.4751 0.0
H184 H 0.74524 0.48595 0.36609 0.0
H185 H 0.66448 0.50197 0.40493 0.0
H186 H 0.76057 0.53641 0.33254 0.0
H187 H 0.68069 0.55165 0.37024 0.0
H188 H 0.74087 0.42301 0.34218 0.0
H189 H 0.62808 0.35451 0.34371 0.0
H190 H 0.73999 0.41548 0.28797 0.0
H191 H 0.62916 0.34827 0.28946 0.0
H192 H 0.8196 0.42281 0.38361 0.0
H193 H 0.83814 0.52456 0.41355 0.0
H194 H 0.57544 0.44624 0.33001 0.0
H195 H 0.67247 0.47596 0.28315 0.0
Li196 Li 0.26884 0.64913 0.6011 0.0
Li197 Li 0.31419 0.64112 0.57803 0.0
Li198 Li 0.31445 0.69678 0.57243 0.0
Li199 Li 0.27015 0.64397 0.54824 0.0
C200 C 0.32874 0.69946 0.6318 0.0
N201 N 0.34529 0.74743 0.67705 0.0
C202 C 0.35733 0.70758 0.65026 0.0
C203 C 0.30856 0.71574 0.63634 0.0
C204 C 0.36527 0.7319 0.67302 0.0
C205 C 0.31735 0.73991 0.65934 0.0
C206 C 0.25382 0.58013 0.59687 0.0
C207 C 0.21762 0.51851 0.60951 0.0
N208 N 0.23626 0.52424 0.63486 0.0
C209 C 0.27261 0.58543 0.62306 0.0
C210 C 0.22609 0.54645 0.59003 0.0
C211 C 0.26333 0.55683 0.64196 0.0
C212 C 0.20226 0.62428 0.62699 0.0
N213 N 0.23678 0.63612 0.63337 0.0
C214 C 0.22377 0.6275 0.68481 0.0
C215 C 0.24779 0.63749 0.66157 0.0
C216 C 0.18803 0.61541 0.67889 0.0
C217 C 0.17716 0.61344 0.64959 0.0
H218 H 0.19423 0.62304 0.60428 0.0
H219 H 0.27516 0.64604 0.66606 0.0
C220 C 0.37647 0.64047 0.59291 0.0
N221 N 0.34348 0.62013 0.58182 0.0
C222 C 0.39829 0.62608 0.59773 0.0
C223 C 0.35212 0.57023 0.57903 0.0
C224 C 0.33124 0.58574 0.57445 0.0
C225 C 0.38605 0.59041 0.59102 0.0
H226 H 0.38551 0.6677 0.59863 0.0
H227 H 0.30496 0.57006 0.56556 0.0
C228 C 0.25462 0.6977 0.55224 0.0
N229 N 0.23798 0.73663 0.51421 0.0
C230 C 0.27463 0.71242 0.5267 0.0
C231 C 0.22613 0.70272 0.55841 0.0
C232 C 0.2658 0.73203 0.50776 0.0
C233 C 0.21815 0.72251 0.53892 0.0
C234 C 0.33103 0.65403 0.51906 0.0
C235 C 0.36025 0.67484 0.50118 0.0
C236 C 0.31095 0.61765 0.51405 0.0
C237 C 0.36894 0.65889 0.47854 0.0
C238 C 0.3205 0.6027 0.4912 0.0
N239 N 0.34906 0.62345 0.47406 0.0
C240 C 0.37665 0.76009 0.5575 0.0
C241 C 0.33103 0.76894 0.57616 0.0
C242 C 0.39784 0.79626 0.55191 0.0
N243 N 0.34371 0.74712 0.56894 0.0
C244 C 0.35126 0.80526 0.57082 0.0
C245 C 0.38496 0.81928 0.55818 0.0
H246 H 0.38603 0.74214 0.55186 0.0
H247 H 0.30475 0.75807 0.58522 0.0
C248 C 0.20523 0.60274 0.5199 0.0
N249 N 0.23996 0.62624 0.51495 0.0
C250 C 0.18144 0.58999 0.49641 0.0
C251 C 0.22977 0.62568 0.46327 0.0
C252 C 0.25248 0.63804 0.48736 0.0
C253 C 0.19382 0.60132 0.46769 0.0
H254 H 0.196 0.59426 0.54218 0.0
H255 H 0.27998 0.65743 0.48406 0.0
O256 O 0.32085 0.6758 0.60937 0.0
O257 O 0.26218 0.60766 0.57796 0.0
O258 O 0.26255 0.67825 0.57115 0.0
O259 O 0.32234 0.66941 0.54131 0.0
H260 H 0.3732 0.69519 0.64703 0.0
H261 H 0.28622 0.70966 0.62241 0.0
H262 H 0.38733 0.73843 0.68749 0.0
H263 H 0.30193 0.75266 0.66311 0.0
H264 H 0.19622 0.49229 0.60449 0.0
H265 H 0.29417 0.61126 0.62876 0.0
H266 H 0.21127 0.54196 0.56985 0.0
H267 H 0.27766 0.56054 0.66228 0.0
H268 H 0.23287 0.62866 0.70719 0.0
H269 H 0.14971 0.60392 0.64432 0.0
H270 H 0.42392 0.64235 0.60771 0.0
H271 H 0.34167 0.54261 0.57372 0.0
H272 H 0.29678 0.70886 0.52153 0.0
H273 H 0.21037 0.69143 0.57808 0.0
H274 H 0.28108 0.7436 0.48794 0.0
H275 H 0.19618 0.72663 0.54343 0.0
H276 H 0.37604 0.70305 0.50474 0.0
H277 H 0.28812 0.60112 0.52752 0.0
H278 H 0.3915 0.67468 0.46451 0.0
H279 H 0.30517 0.57459 0.48707 0.0
H280 H 0.42334 0.80585 0.54151 0.0
H281 H 0.34033 0.8221 0.57582 0.0
H282 H 0.1538 0.57145 0.50058 0.0
H283 H 0.24005 0.6356 0.44145 0.0
Li284 Li 0.71002 0.30633 0.73911 0.0
Li285 Li 0.65466 0.25974 0.76343 0.0
Li286 Li 0.66056 0.26112 0.7104 0.0
Li287 Li 0.65113 0.30467 0.73515 0.0
C288 C 0.69317 0.22763 0.72854 0.0
N289 N 0.69658 0.17212 0.70285 0.0
C290 C 0.67139 0.1931 0.73867 0.0
C291 C 0.71679 0.23394 0.70544 0.0
C292 C 0.67351 0.16539 0.72538 0.0
C293 C 0.71807 0.20551 0.6927 0.0
C294 C 0.68207 0.31205 0.80068 0.0
C295 C 0.65437 0.30555 0.84803 0.0
N296 N 0.68392 0.30946 0.86143 0.0
C297 C 0.71222 0.31614 0.81489 0.0
C298 C 0.65295 0.30686 0.81733 0.0
C299 C 0.71262 0.31472 0.84563 0.0
C300 C 0.77396 0.37091 0.74728 0.0
N301 N 0.75993 0.33552 0.74362 0.0
C302 C 0.81655 0.34075 0.7506 0.0
C303 C 0.78042 0.32026 0.74489 0.0
C304 C 0.83172 0.37726 0.75537 0.0
C305 C 0.80994 0.39237 0.75331 0.0
H306 H 0.75693 0.38225 0.74654 0.0
H307 H 0.76854 0.292 0.74231 0.0
C308 C 0.60224 0.20851 0.8014 0.0
N309 N 0.63752 0.22829 0.79615 0.0
C310 C 0.58956 0.18345 0.82405 0.0
C311 C 0.64974 0.19928 0.83517 0.0
C312 C 0.66125 0.22413 0.81243 0.0
C313 C 0.61345 0.17838 0.84103 0.0
H314 H 0.58387 0.21171 0.78771 0.0
H315 H 0.68911 0.23981 0.80741 0.0
C316 C 0.70061 0.32231 0.6761 0.0
N317 N 0.72871 0.3413 0.62002 0.0
C318 C 0.68194 0.32822 0.65398 0.0
C319 C 0.73372 0.32633 0.66973 0.0
C320 C 0.69654 0.3377 0.62575 0.0
C321 C 0.74744 0.33588 0.64123 0.0
C322 C 0.58689 0.24936 0.72924 0.0
C323 C 0.5708 0.23913 0.70163 0.0
C324 C 0.56994 0.25683 0.7519 0.0
C325 C 0.53807 0.23671 0.69713 0.0
C326 C 0.53726 0.25418 0.7465 0.0
N327 N 0.52214 0.24426 0.71946 0.0
C328 C 0.62039 0.19541 0.68504 0.0
C329 C 0.66117 0.23646 0.65073 0.0
C330 C 0.60696 0.16885 0.6638 0.0
N331 N 0.64667 0.22858 0.67816 0.0
C332 C 0.64818 0.21084 0.62867 0.0
C333 C 0.62031 0.17665 0.63496 0.0
H334 H 0.60966 0.18966 0.70715 0.0
H335 H 0.68255 0.26252 0.6457 0.0
C336 C 0.63366 0.35734 0.75279 0.0
N337 N 0.62971 0.33364 0.73158 0.0
C338 C 0.61857 0.37885 0.74917 0.0
C339 C 0.5951 0.35057 0.70239 0.0
C340 C 0.61099 0.33009 0.70669 0.0
C341 C 0.59888 0.37543 0.72371 0.0
H342 H 0.64896 0.35993 0.77228 0.0
H343 H 0.60859 0.31146 0.68998 0.0
O344 O 0.69082 0.255 0.74075 0.0
O345 O 0.68087 0.31256 0.7706 0.0
O346 O 0.68695 0.31349 0.70398 0.0
O347 O 0.61916 0.25231 0.73399 0.0
H348 H 0.6527 0.18765 0.75632 0.0
H349 H 0.7336 0.26044 0.69714 0.0
H350 H 0.65668 0.13852 0.7329 0.0
H351 H 0.73605 0.20999 0.67467 0.0
H352 H 0.63197 0.30137 0.86121 0.0
H353 H 0.73493 0.32003 0.80231 0.0
H354 H 0.62944 0.30368 0.80666 0.0
H355 H 0.73571 0.31769 0.85694 0.0
H356 H 0.83228 0.32798 0.75211 0.0
H357 H 0.82017 0.42016 0.75773 0.0
H358 H 0.5614 0.16786 0.82802 0.0
H359 H 0.66903 0.19666 0.84822 0.0
H360 H 0.6564 0.32541 0.65848 0.0
H361 H 0.74862 0.32194 0.68647 0.0
H362 H 0.6823 0.34223 0.60841 0.0
H363 H 0.77295 0.33894 0.63598 0.0
H364 H 0.58363 0.23361 0.68371 0.0
H365 H 0.58211 0.26505 0.77333 0.0
H366 H 0.52541 0.229 0.67583 0.0
H367 H 0.52398 0.26011 0.76379 0.0
H368 H 0.58613 0.14263 0.66983 0.0
H369 H 0.65922 0.21802 0.60668 0.0
H370 H 0.62243 0.3981 0.7659 0.0
H371 H 0.58098 0.3478 0.68207 0.0
Li372 Li 0.42624 0.64571 0.93807 0.0
Li373 Li 0.43642 0.69867 0.9117 0.0
Li374 Li 0.3787 0.64289 0.90776 0.0
Li375 Li 0.43202 0.64864 0.88374 0.0
C376 C 0.3867 0.6699 0.97031 0.0
N377 N 0.35852 0.66387 0.02598 0.0
C378 C 0.40042 0.69918 0.98903 0.0
C379 C 0.35846 0.63766 0.97981 0.0
C380 C 0.38587 0.69556 0.01712 0.0
C381 C 0.34463 0.63512 0.00805 0.0
C382 C 0.49676 0.69709 0.93115 0.0
C383 C 0.55832 0.7199 0.9421 0.0
N384 N 0.55459 0.73493 0.96707 0.0
C385 C 0.49352 0.71272 0.95692 0.0
C386 C 0.52937 0.70064 0.92366 0.0
C387 C 0.52307 0.73175 0.97479 0.0
C388 C 0.44953 0.60378 0.96481 0.0
N389 N 0.43843 0.6271 0.97117 0.0
C390 C 0.44881 0.62406 0.02243 0.0
C391 C 0.43807 0.63753 -0.0007 0.0
C392 C 0.46066 0.60019 0.01648 0.0
C393 C 0.46095 0.58996 0.98727 0.0
H394 H 0.44995 0.5963 0.94216 0.0
H395 H 0.43023 0.65683 0.00387 0.0
C396 C 0.43973 0.76361 0.92365 0.0
N397 N 0.45887 0.74917 0.91333 0.0
C398 C 0.45563 0.80012 0.92765 0.0
C399 C 0.5104 0.80644 0.90933 0.0
C400 C 0.49341 0.76979 0.90562 0.0
C401 C 0.49159 0.82202 0.92083 0.0
H402 H 0.41233 0.74659 0.92965 0.0
H403 H 0.50808 0.75774 0.89733 0.0
C404 C 0.37316 0.57501 0.91005 0.0
N405 N 0.3238 0.50384 0.91268 0.0
C406 C 0.36347 0.55459 0.88445 0.0
C407 C 0.35831 0.55912 0.93707 0.0
C408 C 0.33829 0.51868 0.8862 0.0
C409 C 0.33325 0.52314 0.93793 0.0
C410 C 0.42257 0.69883 0.85214 0.0
C411 C 0.40179 0.70721 0.83427 0.0
C412 C 0.45865 0.71392 0.84625 0.0
C413 C 0.41749 0.73059 0.8107 0.0
C414 C 0.47336 0.73718 0.82249 0.0
N415 N 0.45265 0.74497 0.80535 0.0
C416 C 0.30996 0.63365 0.91889 0.0
C417 C 0.31296 0.59764 0.88135 0.0
C418 C 0.27382 0.61964 0.91386 0.0
N419 N 0.3287 0.62238 0.90276 0.0
C420 C 0.27694 0.58287 0.87566 0.0
C421 C 0.25686 0.59392 0.89195 0.0
H422 H 0.32319 0.65414 0.93517 0.0
H423 H 0.32863 0.59017 0.86801 0.0
C424 C 0.47326 0.62373 0.85664 0.0
N425 N 0.44842 0.63317 0.85163 0.0
C426 C 0.48533 0.6114 0.8335 0.0
C427 C 0.44613 0.61908 0.80066 0.0
C428 C 0.43451 0.63077 0.82443 0.0
C429 C 0.47177 0.60918 0.80511 0.0
H430 H 0.48353 0.62562 0.87865 0.0
H431 H 0.41429 0.63779 0.82122 0.0
O432 O 0.40084 0.67298 0.94282 0.0
O433 O 0.46816 0.67809 0.91339 0.0
O434 O 0.39788 0.61015 0.90871 0.0
O435 O 0.40754 0.67611 0.87537 0.0
H436 H 0.42223 0.72437 0.98201 0.0
H437 H 0.34717 0.61494 0.96546 0.0
H438 H 0.39633 0.71795 0.03188 0.0
H439 H 0.32279 0.61032 0.0157 0.0
H440 H 0.58374 0.72289 0.93658 0.0
H441 H 0.46849 0.71019 0.96306 0.0
H442 H 0.53226 0.68863 0.90378 0.0
H443 H 0.52093 0.74399 0.99479 0.0
H444 H 0.44877 0.63295 0.04469 0.0
H445 H 0.46993 0.57159 0.98192 0.0
H446 H 0.44035 0.81087 0.93728 0.0
H447 H 0.53818 0.82237 0.90392 0.0
H448 H 0.37511 0.56644 0.86341 0.0
H449 H 0.36626 0.57429 0.95722 0.0
H450 H 0.33031 0.50261 0.86653 0.0
H451 H 0.32143 0.51051 0.95868 0.0
H452 H 0.37382 0.69575 0.83859 0.0
H453 H 0.47514 0.70771 0.85983 0.0
H454 H 0.40173 0.73731 0.79666 0.0
H455 H 0.50124 0.74905 0.81767 0.0
H456 H 0.25941 0.6293 0.92656 0.0
H457 H 0.26528 0.56414 0.8578 0.0
H458 H 0.50517 0.60401 0.83764 0.0
H459 H 0.43484 0.61729 0.77906 0.0
Li460 Li 0.77392 0.4289 0.07935 0.0
Li461 Li 0.81709 0.4177 0.10519 0.0
Li462 Li 0.81774 0.42403 0.0506 0.0
Li463 Li 0.77181 0.37004 0.07398 0.0
C464 C 0.83186 0.49237 0.08794 0.0
N465 N 0.84208 0.5584 0.10187 0.0
C466 C 0.84215 0.50585 0.11638 0.0
C467 C 0.82714 0.51265 0.06651 0.0
C468 C 0.84711 0.53925 0.123 0.0
C469 C 0.83231 0.5459 0.07401 0.0
C470 C 0.75133 0.37735 0.13686 0.0
C471 C 0.73702 0.33162 0.17311 0.0
N472 N 0.72461 0.34756 0.19142 0.0
C473 C 0.73803 0.39302 0.15593 0.0
C474 C 0.75048 0.34617 0.14543 0.0
C475 C 0.72479 0.37767 0.18346 0.0
C476 C 0.72234 0.44802 0.06257 0.0
N477 N 0.74615 0.45152 0.08348 0.0
C478 C 0.73002 0.48623 0.11338 0.0
C479 C 0.75038 0.47034 0.10845 0.0
C480 C 0.70471 0.48255 0.09254 0.0
C481 C 0.70122 0.46345 0.06666 0.0
H482 H 0.7193 0.43277 0.04294 0.0
H483 H 0.76915 0.47246 0.1249 0.0
C484 C 0.8827 0.4436 0.13185 0.0
N485 N 0.84777 0.42937 0.13819 0.0
C486 C 0.90753 0.45433 0.15452 0.0
C487 C 0.85987 0.43512 0.18976 0.0
C488 C 0.83606 0.42509 0.16647 0.0
C489 C 0.89608 0.44992 0.18388 0.0
H490 H 0.89125 0.44697 0.10911 0.0
H491 H 0.80843 0.41452 0.1711 0.0
C492 C 0.76547 0.40226 0.01341 0.0
N493 N 0.76685 0.40807 0.95273 0.0
C494 C 0.75792 0.37309 0.99583 0.0
C495 C 0.7733 0.43426 0.00014 0.0
C496 C 0.75884 0.37658 0.96519 0.0
C497 C 0.774 0.43671 0.96943 0.0
C498 C 0.83312 0.36439 0.08095 0.0
C499 C 0.84712 0.35235 0.05911 0.0
C500 C 0.8297 0.3516 0.10972 0.0
C501 C 0.85662 0.32711 0.06626 0.0
C502 C 0.83955 0.32642 0.11603 0.0
N503 N 0.85264 0.31474 0.09434 0.0
C504 C 0.87162 0.4764 0.01417 0.0
C505 C 0.84937 0.41703 -0.00083 0.0
C506 C 0.89623 0.48855 0.99115 0.0
N507 N 0.84893 0.44117 0.01772 0.0
C508 C 0.87377 0.42795 0.97615 0.0
C509 C 0.89779 0.46408 0.97217 0.0
H510 H 0.87101 0.49501 0.02945 0.0
H511 H 0.83092 0.38922 0.00243 0.0
C512 C 0.70975 0.3032 0.08288 0.0
N513 N 0.7417 0.3201 0.06914 0.0
C514 C 0.68656 0.26726 0.07789 0.0
C515 C 0.72937 0.26678 0.0445 0.0
C516 C 0.75192 0.30257 0.05046 0.0
C517 C 0.69589 0.24877 0.05786 0.0
H518 H 0.70191 0.3178 0.09724 0.0
H519 H 0.77701 0.31673 0.0392 0.0
O520 O 0.82654 0.45957 0.08111 0.0
O521 O 0.76454 0.39219 0.10984 0.0
O522 O 0.76536 0.39956 0.04345 0.0
O523 O 0.82377 0.38922 0.07427 0.0
H524 H 0.84597 0.49061 0.13327 0.0
H525 H 0.81936 0.50274 0.04437 0.0
H526 H 0.85487 0.54992 0.14496 0.0
H527 H 0.82853 0.56177 0.05768 0.0
H528 H 0.73631 0.30755 0.18 0.0
H529 H 0.738 0.41685 0.14967 0.0
H530 H 0.75969 0.33304 0.13077 0.0
H531 H 0.71464 0.38968 0.19847 0.0
H532 H 0.73323 0.50028 0.13383 0.0
H533 H 0.68217 0.46019 0.04995 0.0
H534 H 0.9353 0.46595 0.14921 0.0
H535 H 0.85017 0.43217 0.21215 0.0
H536 H 0.75162 0.34808 0.00572 0.0
H537 H 0.77894 0.45699 0.01342 0.0
H538 H 0.75324 0.35428 0.95131 0.0
H539 H 0.78024 0.46139 0.95887 0.0
H540 H 0.8505 0.36223 0.03681 0.0
H541 H 0.81992 0.3612 0.12711 0.0
H542 H 0.86723 0.31741 0.0495 0.0
H543 H 0.83691 0.31626 0.1382 0.0
H544 H 0.91427 0.51664 0.98853 0.0
H545 H 0.87376 0.40839 0.96149 0.0
H546 H 0.66126 0.25433 0.08904 0.0
H547 H 0.73746 0.25376 0.02857 0.0
Li548 Li 0.4267 0.80439 0.26587 0.0
Li549 Li 0.3767 0.75976 0.23851 0.0
Li550 Li 0.43457 0.76216 0.23794 0.0
Li551 Li 0.42782 0.80724 0.21163 0.0
C552 C 0.40242 0.74658 0.30113 0.0
N553 N 0.40378 0.73656 0.36116 0.0
C554 C 0.37105 0.73104 0.31745 0.0
C555 C 0.4344 0.75668 0.31531 0.0
C556 C 0.37231 0.72628 0.34778 0.0
C557 C 0.43457 0.7515 0.34568 0.0
C558 C 0.37513 0.82256 0.25466 0.0
C559 C 0.35766 0.86594 0.26436 0.0
N560 N 0.33645 0.84537 0.28661 0.0
C561 C 0.35313 0.80186 0.27761 0.0
C562 C 0.3774 0.85486 0.24793 0.0
C563 C 0.33379 0.81382 0.2935 0.0
C564 C 0.47133 0.86686 0.29624 0.0
N565 N 0.44091 0.83529 0.299 0.0
C566 C 0.42877 0.85257 0.34543 0.0
C567 C 0.41986 0.82769 0.32312 0.0
C568 C 0.45952 0.88568 0.34281 0.0
C569 C 0.48139 0.89253 0.31818 0.0
H570 H 0.48731 0.87249 0.2766 0.0
H571 H 0.3956 0.80276 0.32478 0.0
C572 C 0.31393 0.69643 0.25034 0.0
N573 N 0.32656 0.72918 0.23855 0.0
C574 C 0.27781 0.67484 0.25556 0.0
C575 C 0.26805 0.72013 0.23464 0.0
C576 C 0.30442 0.74087 0.22978 0.0
C577 C 0.25451 0.68712 0.24857 0.0
H578 H 0.33215 0.6878 0.25705 0.0
H579 H 0.3151 0.76697 0.22029 0.0
C580 C 0.49934 0.82009 0.23742 0.0
N581 N 0.56715 0.83091 0.23422 0.0
C582 C 0.51562 0.82404 0.21005 0.0
C583 C 0.5178 0.82231 0.26318 0.0
C584 C 0.54984 0.82929 0.20889 0.0
C585 C 0.55199 0.82763 0.2611 0.0
C586 C 0.38209 0.74697 0.17929 0.0
C587 C 0.37739 0.71904 0.16129 0.0
C588 C 0.36549 0.76625 0.17209 0.0
C589 C 0.35604 0.71077 0.13634 0.0
C590 C 0.34433 0.75714 0.14697 0.0
N591 N 0.34008 0.72983 0.12976 0.0
C592 C 0.45805 0.71376 0.25614 0.0
C593 C 0.47246 0.73674 0.20759 0.0
C594 C 0.47432 0.69351 0.25147 0.0
N595 N 0.45754 0.73489 0.2343 0.0
C596 C 0.48932 0.71739 0.20212 0.0
C597 C 0.49036 0.69539 0.22419 0.0
H598 H 0.44526 0.71201 0.27694 0.0
H599 H 0.47074 0.7529 0.19033 0.0
C600 C 0.45222 0.8727 0.18304 0.0
N601 N 0.44464 0.83875 0.1792 0.0
C602 C 0.46847 0.89754 0.16048 0.0
C603 C 0.46851 0.85179 0.13055 0.0
C604 C 0.45205 0.82784 0.15353 0.0
C605 C 0.47746 0.88722 0.13414 0.0
H606 H 0.44669 0.88072 0.20397 0.0
H607 H 0.4463 0.80084 0.1513 0.0
O608 O 0.40177 0.75167 0.27143 0.0
O609 O 0.39445 0.81142 0.23886 0.0
O610 O 0.46568 0.81451 0.23899 0.0
O611 O 0.40304 0.75536 0.20371 0.0
H612 H 0.34601 0.72296 0.3069 0.0
H613 H 0.45881 0.76838 0.30299 0.0
H614 H 0.34827 0.71446 0.3607 0.0
H615 H 0.45918 0.75934 0.35693 0.0
H616 H 0.35919 0.8909 0.25939 0.0
H617 H 0.35119 0.77692 0.28325 0.0
H618 H 0.39419 0.87119 0.23018 0.0
H619 H 0.31672 0.79805 0.31135 0.0
H620 H 0.41159 0.84612 0.36444 0.0
H621 H 0.50536 0.91778 0.31553 0.0
H622 H 0.26848 0.64964 0.2665 0.0
H623 H 0.25088 0.73033 0.22857 0.0
H624 H 0.50185 0.82264 0.1899 0.0
H625 H 0.50597 0.82022 0.28456 0.0
H626 H 0.56261 0.83203 0.18784 0.0
H627 H 0.56652 0.82924 0.28086 0.0
H628 H 0.39016 0.70394 0.16656 0.0
H629 H 0.36897 0.78808 0.18565 0.0
H630 H 0.35217 0.68922 0.12219 0.0
H631 H 0.33131 0.77182 0.14114 0.0
H632 H 0.47408 0.67634 0.26882 0.0
H633 H 0.50036 0.71868 0.18046 0.0
H634 H 0.4751 0.9247 0.16394 0.0
H635 H 0.47474 0.84288 0.11034 0.0
C636 C 0.16484 0.60977 0.26935 0.0
C637 C 0.15179 0.62538 0.28896 0.0
C638 C 0.19709 0.63029 0.25458 0.0
C639 C 0.21727 0.66708 0.25895 0.0
H640 H 0.15137 0.58128 0.2671 0.0
H641 H 0.20722 0.61706 0.24088 0.0
S642 S 0.19308 0.72049 0.30689 0.0
N643 N 0.16009 0.67959 0.31081 0.0
N644 N 0.22062 0.71831 0.28319 0.0
C645 C 0.20322 0.68316 0.2771 0.0
C646 C 0.1705 0.66224 0.29212 0.0
C647 C 0.54045 0.16327 0.46786 0.0
C648 C 0.55729 0.14395 0.46097 0.0
C649 C 0.55244 0.19704 0.45604 0.0
C650 C 0.58185 0.21281 0.43703 0.0
H651 H 0.51937 0.15314 0.48404 0.0
H652 H 0.5397 0.21167 0.46299 0.0
S653 S 0.63359 0.17191 0.41085 0.0
N654 N 0.60328 0.14177 0.43279 0.0
N655 N 0.6261 0.20542 0.41049 0.0
C656 C 0.59746 0.19275 0.42851 0.0
C657 C 0.58514 0.15828 0.44056 0.0
C658 C 0.4121 0.53039 0.63046 0.0
C659 C 0.44886 0.54774 0.62624 0.0
C660 C 0.39153 0.54292 0.61714 0.0
C661 C 0.40712 0.57359 0.59951 0.0
H662 H 0.39958 0.50854 0.64586 0.0
H663 H 0.36367 0.53001 0.62248 0.0
S664 S 0.50176 0.62589 0.57884 0.0
N665 N 0.49956 0.59491 0.60113 0.0
N666 N 0.46097 0.61855 0.5759 0.0
C667 C 0.44349 0.5896 0.59344 0.0
C668 C 0.46434 0.57662 0.60684 0.0
C669 C 0.91231 0.40624 0.8035 0.0
C670 C 0.93454 0.44167 0.79517 0.0
C671 C 0.88011 0.38504 0.78926 0.0
C672 C 0.86873 0.39848 0.76617 0.0
H673 H 0.91891 0.39548 0.8224 0.0
H674 H 0.86303 0.35862 0.79773 0.0
S675 S 0.91965 0.48827 0.73353 0.0
N676 N 0.94477 0.4884 0.76075 0.0
N677 N 0.88435 0.44838 0.73344 0.0
C678 C 0.89194 0.43316 0.75626 0.0
C679 C 0.92487 0.45476 0.77082 0.0
C680 C 0.55456 0.90684 0.96015 0.0
C681 C 0.53867 0.92772 0.95635 0.0
C682 C 0.54066 0.8737 0.94666 0.0
C683 C 0.51011 0.86005 0.92914 0.0
H684 H 0.5763 0.91506 0.97541 0.0
H685 H 0.55238 0.85759 0.95184 0.0
S686 S 0.46176 0.90667 0.909 0.0
N687 N 0.49325 0.93426 0.9314 0.0
N688 N 0.46712 0.87197 0.90577 0.0
C689 C 0.49573 0.88194 0.92327 0.0
C690 C 0.51008 0.91583 0.93689 0.0
C691 C 0.67278 0.54219 0.12367 0.0
C692 C 0.63606 0.51961 0.125 0.0
C693 C 0.69476 0.53096 0.11095 0.0
C694 C 0.68077 0.49665 0.09933 0.0
H695 H 0.68477 0.56766 0.1345 0.0
H696 H 0.72308 0.54851 0.11178 0.0
S697 S 0.58585 0.42852 0.09584 0.0
N698 N 0.58635 0.46257 0.1121 0.0
N699 N 0.62747 0.44115 0.08832 0.0
C700 C 0.64382 0.47478 0.09873 0.0
C701 C 0.62151 0.48633 0.11162 0.0
C702 C 0.40707 0.90283 0.51614 0.0
C703 C 0.44382 0.92371 0.51968 0.0
C704 C 0.38787 0.87006 0.53035 0.0
C705 C 0.40482 0.85677 0.5483 0.0
H706 H 0.39345 0.91093 0.50083 0.0
H707 H 0.35994 0.85403 0.52565 0.0
S708 S 0.50002 0.90318 0.56719 0.0
N709 N 0.49601 0.93041 0.54431 0.0
N710 N 0.45995 0.86871 0.57116 0.0
C711 C 0.44121 0.87847 0.5535 0.0
C712 C 0.4607 0.91202 0.5392 0.0
C713 C 0.5986 0.4596 0.70472 0.0
C714 C 0.56467 0.44685 0.69289 0.0
C715 C 0.6086 0.43648 0.71712 0.0
C716 C 0.58516 0.39977 0.7176 0.0
H717 H 0.61829 0.4873 0.70243 0.0
H718 H 0.63568 0.44711 0.72423 0.0
S719 S 0.49206 0.35382 0.69254 0.0
N720 N 0.50668 0.3959 0.68492 0.0
N721 N 0.52538 0.35226 0.70812 0.0
C722 C 0.55036 0.38708 0.70781 0.0
C723 C 0.54013 0.41069 0.69547 0.0
C724 C 0.17681 0.59715 0.8644 0.0
C725 C 0.15323 0.5618 0.85681 0.0
C726 C 0.20932 0.60693 0.87769 0.0
C727 C 0.21964 0.58176 0.88355 0.0
H728 H 0.17098 0.61769 0.85834 0.0
H729 H 0.22745 0.63475 0.88153 0.0
S730 S 0.16544 0.48513 0.87106 0.0
N731 N 0.14083 0.50115 0.85843 0.0
N732 N 0.20196 0.51938 0.88362 0.0
C733 C 0.19522 0.54597 0.87788 0.0
C734 C 0.16197 0.53601 0.8645 0.0
C735 C 0.65862 0.15405 0.03132 0.0
C736 C 0.62509 0.14567 0.02091 0.0
C737 C 0.68072 0.18672 0.04491 0.0
C738 C 0.66999 0.21203 0.04857 0.0
H739 H 0.66874 0.13633 0.02715 0.0
H740 H 0.707 0.19284 0.05142 0.0
S741 S 0.58305 0.20093 0.02725 0.0
N742 N 0.58091 0.16358 0.01733 0.0
N743 N 0.62242 0.22511 0.04216 0.0
C744 C 0.63553 0.2028 0.03991 0.0
C745 C 0.61312 0.16959 0.02625 0.0
C746 C 0.49385 0.61231 0.20776 0.0
C747 C 0.52591 0.6255 0.19235 0.0
C748 C 0.48375 0.63528 0.22029 0.0
C749 C 0.50517 0.67215 0.21734 0.0
H750 H 0.47536 0.58414 0.20824 0.0
H751 H 0.45784 0.62409 0.23032 0.0
S752 S 0.59348 0.7196 0.18204 0.0
N753 N 0.5804 0.67735 0.17718 0.0
N754 N 0.56155 0.72068 0.20069 0.0
C755 C 0.53842 0.68555 0.20385 0.0
C756 C 0.54876 0.66215 0.19134 0.0
C757 C 0.91906 0.53328 0.35632 0.0
C758 C 0.93823 0.51572 0.36062 0.0
C759 C 0.88655 0.52174 0.37044 0.0
C760 C 0.87185 0.49189 0.38904 0.0
H761 H 0.92807 0.55452 0.34033 0.0
H762 H 0.87167 0.5347 0.365 0.0
S763 S 0.91397 0.43949 0.41011 0.0
N764 N 0.94207 0.46926 0.38664 0.0
N765 N 0.881 0.44753 0.41348 0.0
C766 C 0.89206 0.47571 0.3951 0.0
C767 C 0.92527 0.48765 0.38082 0.0
C768 C 0.12086 0.58903 0.41561 0.0
C769 C 0.12952 0.5772 0.38982 0.0
C770 C 0.14055 0.59485 0.44152 0.0
C771 C 0.16947 0.58911 0.44227 0.0
H772 H 0.10026 0.59591 0.41522 0.0
H773 H 0.13443 0.60585 0.4605 0.0
S774 S 0.19887 0.55256 0.38206 0.0
N775 N 0.16585 0.55569 0.36772 0.0
N776 N 0.20293 0.56686 0.41628 0.0
C777 C 0.17663 0.57484 0.41728 0.0
C778 C 0.15658 0.56878 0.39108 0.0
C779 C 0.61156 0.12653 0.56439 0.0
C780 C 0.57506 0.10902 0.55923 0.0
C781 C 0.62588 0.14658 0.58997 0.0
C782 C 0.60417 0.15023 0.61097 0.0
H783 H 0.62928 0.12637 0.54775 0.0
H784 H 0.65429 0.16065 0.59266 0.0
S785 S 0.50654 0.10834 0.60756 0.0
N786 N 0.51731 0.09494 0.57732 0.0
N787 N 0.54398 0.13334 0.6251 0.0
C788 C 0.56736 0.13126 0.60662 0.0
C789 C 0.55286 0.11053 0.58074 0.0
C790 C 0.50231 0.60395 0.72843 0.0
C791 C 0.49589 0.56904 0.72704 0.0
C792 C 0.49619 0.61734 0.75434 0.0
C793 C 0.48376 0.59645 0.77988 0.0
H794 H 0.5104 0.62043 0.70887 0.0
H795 H 0.49989 0.64379 0.75408 0.0
S796 S 0.46562 0.50447 0.78852 0.0
N797 N 0.47858 0.51462 0.7539 0.0
N798 N 0.46751 0.54008 0.80295 0.0
C799 C 0.4795 0.56236 0.77944 0.0
C800 C 0.48553 0.54859 0.75291 0.0
C801 C 0.94281 0.50549 0.89989 0.0
C802 C 0.96429 0.49045 0.8952 0.0
C803 C 0.92296 0.49863 0.92584 0.0
C804 C 0.92345 0.47591 0.94756 0.0
H805 H 0.93993 0.52111 0.88271 0.0
H806 H 0.90549 0.50939 0.92811 0.0
S807 S 0.97764 0.43238 0.94665 0.0
N808 N 0.98687 0.45405 0.91504 0.0
N809 N 0.94923 0.44072 0.96376 0.0
C810 C 0.94624 0.46224 0.94375 0.0
C811 C 0.96679 0.46964 0.91754 0.0
C812 C 0.49867 0.95339 0.07223 0.0
C813 C 0.52886 0.95516 0.05956 0.0
C814 C 0.483 0.93276 0.09751 0.0
C815 C 0.49704 0.91322 0.11059 0.0
H816 H 0.48586 0.96615 0.0615 0.0
H817 H 0.45872 0.93047 0.10585 0.0
S818 S 0.5788 0.91364 0.08832 0.0
N819 N 0.57443 0.93913 0.06378 0.0
N820 N 0.54509 0.90044 0.11119 0.0
C821 C 0.52861 0.91692 0.0993 0.0
C822 C 0.54453 0.93792 0.07379 0.0
C823 C 0.63024 0.52759 0.24401 0.0
C824 C 0.59862 0.50843 0.22829 0.0
C825 C 0.63685 0.51337 0.26923 0.0
C826 C 0.61219 0.47933 0.27942 0.0
H827 H 0.6507 0.55302 0.23589 0.0
H828 H 0.66204 0.52859 0.2802 0.0
S829 S 0.52472 0.41926 0.24643 0.0
N830 N 0.5418 0.45468 0.22506 0.0
N831 N 0.55421 0.42753 0.27247 0.0
C832 C 0.5797 0.46064 0.26466 0.0
C833 C 0.57295 0.47527 0.23901 0.0
C834 C 0.50736 0.94836 0.40581 0.0
C835 C 0.48133 0.95521 0.41681 0.0
C836 C 0.50103 0.92749 0.38057 0.0
C837 C 0.46838 0.91267 0.36592 0.0
H838 H 0.5317 0.95717 0.41788 0.0
H839 H 0.52088 0.92108 0.37361 0.0
S840 S 0.39379 0.92701 0.38399 0.0
N841 N 0.42342 0.94871 0.40979 0.0
N842 N 0.41154 0.90978 0.36223 0.0
C843 C 0.44326 0.92153 0.37559 0.0
C844 C 0.44975 0.94275 0.40112 0.0
C845 C 0.56311 0.47941 0.56816 0.0
C846 C 0.58502 0.49577 0.59255 0.0
C847 C 0.57674 0.47318 0.54224 0.0
C848 C 0.61264 0.48306 0.54005 0.0
H849 H 0.53493 0.4692 0.56985 0.0
H850 H 0.55868 0.45861 0.52457 0.0
S851 S 0.68175 0.53205 0.59603 0.0
N852 N 0.64484 0.52558 0.61164 0.0
N853 N 0.6705 0.51411 0.56297 0.0
C854 C 0.63518 0.50189 0.56346 0.0
C855 C 0.62135 0.50823 0.58971 0.0
C856 C 0.1154 0.55584 0.7319 0.0
C857 C 0.12213 0.57823 0.75621 0.0
C858 C 0.13526 0.56863 0.70583 0.0
C859 C 0.16246 0.60406 0.70351 0.0
H860 H 0.09661 0.52784 0.73381 0.0
H861 H 0.13097 0.55022 0.6882 0.0
S862 S 0.18614 0.67437 0.75906 0.0
N863 N 0.15442 0.63831 0.77484 0.0
N864 N 0.19196 0.66214 0.72608 0.0
C865 C 0.16736 0.62719 0.72674 0.0
C866 C 0.14706 0.61432 0.75304 0.0
C867 C 0.57159 0.1351 0.91372 0.0
C868 C 0.5853 0.11247 0.91871 0.0
C869 C 0.57909 0.1548 0.88765 0.0
C870 C 0.60089 0.15282 0.86584 0.0
H871 H 0.5567 0.13914 0.93087 0.0
H872 H 0.56959 0.17331 0.88539 0.0
S873 S 0.63961 0.09424 0.86675 0.0
N874 N 0.61884 0.08671 0.89868 0.0
N875 N 0.63285 0.12364 0.84947 0.0
C876 C 0.61271 0.12848 0.86969 0.0
C877 C 0.60484 0.10822 0.89616 0.0
C878 C 0.46623 0.56578 0.0915 0.0
C879 C 0.50177 0.5743 0.09297 0.0
C880 C 0.45251 0.57233 0.06597 0.0
C881 C 0.47374 0.58735 0.0409 0.0
H882 H 0.44949 0.55592 0.11085 0.0
H883 H 0.42553 0.56708 0.06626 0.0
S884 S 0.56757 0.61174 0.03256 0.0
N885 N 0.55724 0.59636 0.06657 0.0
N886 N 0.53126 0.60829 0.01829 0.0
C887 C 0.50857 0.59366 0.04131 0.0
C888 C 0.52263 0.58715 0.06744 0.0
C889 C 0.96921 0.51208 0.23503 0.0
C890 C 0.96264 0.49106 0.26032 0.0
C891 C 0.94898 0.49796 0.20944 0.0
C892 C 0.9216 0.46249 0.20852 0.0
H893 H 0.98836 0.54007 0.23571 0.0
H894 H 0.95327 0.51544 0.191 0.0
S895 S 0.89835 0.39534 0.26726 0.0
N896 N 0.9302 0.43225 0.28166 0.0
N897 N 0.89226 0.4057 0.23361 0.0
C898 C 0.91681 0.44066 0.23287 0.0
C899 C 0.93736 0.45496 0.25877 0.0
loop_
_geom_bond_atom_site_label_1
_geom_bond_atom_site_label_2
_geom_bond_distance
_geom_bond_site_symmetry_2
_ccdc_geom_bond_type
H0 C6 0.930 . S
H1 C9 0.931 . S
H2 C11 0.931 . S
H3 C13 0.930 . S
H4 C15 0.930 . S
H5 C17 0.931 1_455 S
C6 H0 0.930 . S
C6 C7 1.380 . S
C6 C8 1.394 . S
C7 C6 1.380 . S
C7 C11 1.382 . S
C8 C6 1.394 . S
C8 C9 1.400 . S
C9 H1 0.931 . S
C9 C8 1.400 . S
C9 C10 1.375 . S
C10 C9 1.375 . S
C10 C11 1.415 . S
C10 C12 1.501 1_455 S
C11 H2 0.931 . S
C11 C7 1.382 . S
C11 C10 1.415 . S
C12 C10 1.501 1_655 S
C12 C13 1.384 . S
C12 C17 1.408 . S
C13 H3 0.930 . S
C13 C12 1.384 . S
C13 C14 1.389 . S
C14 C13 1.389 . S
C14 C15 1.405 . S
C15 H4 0.930 . S
C15 C14 1.405 . S
C15 C16 1.364 . S
C16 C15 1.364 . S
C16 C17 1.400 . S
C17 H5 0.931 1_655 S
C17 C12 1.408 . S
C17 C16 1.400 . S
H18 C24 0.930 . S
H19 C27 0.931 . S
H20 C29 0.931 . S
H21 C31 0.930 . S
H22 C33 0.930 . S
H23 C35 0.931 1_545 S
C24 H18 0.930 . S
C24 C25 1.380 . S
C24 C26 1.394 . S
C25 C24 1.380 . S
C25 C29 1.382 . S
C26 C24 1.394 . S
C26 C27 1.400 . S
C27 H19 0.931 . S
C27 C26 1.400 . S
C27 C28 1.375 . S
C28 C27 1.375 . S
C28 C29 1.415 . S
C28 C30 1.501 1_545 S
C29 H20 0.931 . S
C29 C25 1.382 . S
C29 C28 1.415 . S
C30 C28 1.501 1_565 S
C30 C31 1.384 . S
C30 C35 1.408 . S
C31 H21 0.930 . S
C31 C30 1.384 . S
C31 C32 1.389 . S
C32 C31 1.389 . S
C32 C33 1.405 . S
C33 H22 0.930 . S
C33 C32 1.405 . S
C33 C34 1.364 . S
C34 C33 1.364 . S
C34 C35 1.400 . S
C35 H23 0.931 1_565 S
C35 C30 1.408 . S
C35 C34 1.400 . S
H36 C42 0.930 . S
H37 C45 0.931 . S
H38 C47 0.931 . S
H39 C49 0.930 . S
H40 C51 0.930 . S
H41 C53 0.931 . S
C42 H36 0.930 . S
C42 C43 1.380 . S
C42 C44 1.394 . S
C43 C42 1.380 . S
C43 C47 1.382 . S
C44 C42 1.394 . S
C44 C45 1.400 . S
C45 H37 0.931 . S
C45 C44 1.400 . S
C45 C46 1.375 . S
C46 C45 1.375 . S
C46 C47 1.415 . S
C46 C48 1.501 . S
C47 H38 0.931 . S
C47 C43 1.382 . S
C47 C46 1.415 . S
C48 C46 1.501 . S
C48 C49 1.384 . S
C48 C53 1.408 . S
C49 H39 0.930 . S
C49 C48 1.384 . S
C49 C50 1.389 . S
C50 C49 1.389 . S
C50 C51 1.405 . S
C51 H40 0.930 . S
C51 C50 1.405 . S
C51 C52 1.364 . S
C52 C51 1.364 . S
C52 C53 1.400 . S
C53 H41 0.931 . S
C53 C48 1.408 . S
C53 C52 1.400 . S
H54 C60 0.930 . S
H55 C63 0.931 . S
H56 C65 0.931 . S
H57 C67 0.930 . S
H58 C69 0.930 . S
H59 C71 0.931 1_455 S
C60 H54 0.930 . S
C60 C61 1.380 . S
C60 C62 1.394 . S
C61 C60 1.380 . S
C61 C65 1.382 . S
C62 C60 1.394 . S
C62 C63 1.400 . S
C63 H55 0.931 . S
C63 C62 1.400 . S
C63 C64 1.375 . S
C64 C63 1.375 . S
C64 C65 1.415 . S
C64 C66 1.501 1_455 S
C65 H56 0.931 . S
C65 C61 1.382 . S
C65 C64 1.415 . S
C66 C64 1.501 1_655 S
C66 C67 1.384 . S
C66 C71 1.408 . S
C67 H57 0.930 . S
C67 C66 1.384 . S
C67 C68 1.389 . S
C68 C67 1.389 . S
C68 C69 1.405 . S
C69 H58 0.930 . S
C69 C68 1.405 . S
C69 C70 1.364 . S
C70 C69 1.364 . S
C70 C71 1.400 . S
C71 H59 0.931 1_655 S
C71 C66 1.408 . S
C71 C70 1.400 . S
H72 C78 0.930 . S
H73 C81 0.931 . S
H74 C83 0.931 1_545 S
H75 C85 0.930 . S
H76 C87 0.930 . S
H77 C89 0.931 . S
C78 H72 0.930 . S
C78 C79 1.380 . S
C78 C80 1.394 1_554 S
C79 C78 1.380 . S
C79 C83 1.382 . S
C80 C78 1.394 1_556 S
C80 C81 1.400 . S
C81 H73 0.931 . S
C81 C80 1.400 . S
C81 C82 1.375 . S
C82 C81 1.375 . S
C82 C83 1.415 1_556 S
C82 C84 1.501 1_565 S
C83 H74 0.931 1_565 S
C83 C79 1.382 . S
C83 C82 1.415 1_554 S
C84 C82 1.501 1_545 S
C84 C85 1.384 1_556 S
C84 C89 1.408 . S
C85 H75 0.930 . S
C85 C84 1.384 1_554 S
C85 C86 1.390 1_554 S
C86 C85 1.390 1_556 S
C86 C87 1.402 . S
C87 H76 0.930 . S
C87 C86 1.402 . S
C87 C88 1.364 . S
C88 C87 1.364 . S
C88 C89 1.400 . S
C89 H77 0.931 . S
C89 C84 1.408 . S
C89 C88 1.400 . S
H90 C96 0.930 . S
H91 C99 0.931 . S
H92 C101 0.931 . S
H93 C103 0.930 . S
H94 C105 0.930 . S
H95 C107 0.931 . S
C96 H90 0.930 . S
C96 C97 1.380 . S
C96 C98 1.394 . S
C97 C96 1.380 . S
C97 C101 1.382 . S
C98 C96 1.394 . S
C98 C99 1.400 . S
C99 H91 0.931 . S
C99 C98 1.400 . S
C99 C100 1.375 . S
C100 C99 1.375 . S
C100 C101 1.415 . S
C100 C102 1.501 . S
C101 H92 0.931 . S
C101 C97 1.382 . S
C101 C100 1.415 . S
C102 C100 1.501 . S
C102 C103 1.384 . S
C102 C107 1.408 . S
C103 H93 0.930 . S
C103 C102 1.384 . S
C103 C104 1.389 . S
C104 C103 1.389 . S
C104 C105 1.405 . S
C105 H94 0.930 . S
C105 C104 1.405 . S
C105 C106 1.364 . S
C106 C105 1.364 . S
C106 C107 1.400 . S
C107 H95 0.931 . S
C107 C102 1.408 . S
C107 C106 1.400 . S
Li108 N125 1.990 . S
Li108 O168 1.956 . S
Li108 O169 1.970 . S
Li108 O170 1.961 . S
Li109 N133 1.990 . S
Li109 O168 1.970 . S
Li109 O169 1.956 . S
Li109 O171 1.961 . S
Li110 N155 1.990 . S
Li110 O168 1.961 . S
Li110 O170 1.956 . S
Li110 O171 1.970 . S
Li111 N161 1.990 . S
Li111 O169 1.961 . S
Li111 O170 1.970 . S
Li111 O171 1.956 . S
C112 C114 1.348 . S
C112 C115 1.356 . S
C112 O168 1.325 . S
N113 C116 1.314 . S
N113 C117 1.279 . S
C114 C112 1.348 . S
C114 C116 1.353 . S
C114 H172 0.929 . S
C115 C112 1.356 . S
C115 C117 1.358 . S
C115 H173 0.930 . S
C116 N113 1.314 . S
C116 C114 1.353 . S
C116 H174 0.930 . S
C117 N113 1.279 . S
C117 C115 1.358 . S
C117 H175 0.930 . S
C118 C121 1.348 . S
C118 C122 1.356 . S
C118 O169 1.325 . S
C119 N120 1.279 . S
C119 C122 1.358 . S
C119 H176 0.930 . S
N120 C119 1.279 . S
N120 C123 1.314 . S
C121 C118 1.348 . S
C121 C123 1.353 . S
C121 H177 0.929 . S
C122 C118 1.356 . S
C122 C119 1.358 . S
C122 H178 0.930 . S
C123 N120 1.314 . S
C123 C121 1.353 . S
C123 H179 0.930 . S
C124 N125 1.314 . S
C124 C129 1.353 . S
C124 H130 0.930 . S
N125 Li108 1.990 . S
N125 C124 1.314 . S
N125 C127 1.279 . S
C126 C127 1.358 . S
C126 C128 1.356 . S
C126 H180 0.930 . S
C127 N125 1.279 . S
C127 C126 1.358 . S
C127 H131 0.930 . S
C128 C126 1.356 . S
C128 C129 1.348 . S
C129 C124 1.353 . S
C129 C128 1.348 . S
C129 H181 0.929 . S
H130 C124 0.930 . S
H131 C127 0.930 . S
C132 N133 1.314 . S
C132 C134 1.353 . S
C132 H138 0.930 . S
N133 Li109 1.990 . S
N133 C132 1.314 . S
N133 C136 1.279 . S
C134 C132 1.353 . S
C134 C137 1.348 . S
C134 H182 0.929 . S
C135 C136 1.358 . S
C135 C137 1.356 . S
C135 H183 0.930 . S
C136 N133 1.279 . S
C136 C135 1.358 . S
C136 H139 0.930 . S
C137 C134 1.348 . S
C137 C135 1.356 . S
H138 C132 0.930 . S
H139 C136 0.930 . S
C140 C142 1.348 . S
C140 C143 1.356 . S
C140 O170 1.325 . S
N141 C144 1.314 . S
N141 C145 1.279 . S
C142 C140 1.348 . S
C142 C144 1.353 . S
C142 H184 0.929 . S
C143 C140 1.356 . S
C143 C145 1.358 . S
C143 H185 0.930 . S
C144 N141 1.314 . S
C144 C142 1.353 . S
C144 H186 0.930 . S
C145 N141 1.279 . S
C145 C143 1.358 . S
C145 H187 0.930 . S
C146 C147 1.348 . S
C146 C148 1.356 . S
C146 O171 1.325 . S
C147 C146 1.348 . S
C147 C149 1.353 . S
C147 H188 0.929 . S
C148 C146 1.356 . S
C148 C150 1.358 . S
C148 H189 0.930 . S
C149 C147 1.353 . S
C149 N151 1.314 . S
C149 H190 0.930 . S
C150 C148 1.358 . S
C150 N151 1.279 . S
C150 H191 0.930 . S
N151 C149 1.314 . S
N151 C150 1.279 . S
C152 C154 1.353 . S
C152 N155 1.314 . S
C152 H158 0.930 . S
C153 N155 1.279 . S
C153 C156 1.358 . S
C153 H159 0.930 . S
C154 C152 1.353 . S
C154 C157 1.348 . S
C154 H192 0.929 . S
N155 Li110 1.990 . S
N155 C152 1.314 . S
N155 C153 1.279 . S
C156 C153 1.358 . S
C156 C157 1.356 . S
C156 H193 0.930 . S
C157 C154 1.348 . S
C157 C156 1.356 . S
H158 C152 0.930 . S
H159 C153 0.930 . S
C160 N161 1.314 . S
C160 C162 1.353 . S
C160 H166 0.930 . S
N161 Li111 1.990 . S
N161 C160 1.314 . S
N161 C164 1.279 . S
C162 C160 1.353 . S
C162 C165 1.348 . S
C162 H194 0.929 . S
C163 C164 1.358 . S
C163 C165 1.356 . S
C163 H195 0.930 . S
C164 N161 1.279 . S
C164 C163 1.358 . S
C164 H167 0.930 . S
C165 C162 1.348 . S
C165 C163 1.356 . S
H166 C160 0.930 . S
H167 C164 0.930 . S
O168 Li108 1.956 . S
O168 Li109 1.970 . S
O168 Li110 1.961 . S
O168 C112 1.325 . S
O169 Li108 1.970 . S
O169 Li109 1.956 . S
O169 Li111 1.961 . S
O169 C118 1.325 . S
O170 Li108 1.961 . S
O170 Li110 1.956 . S
O170 Li111 1.970 . S
O170 C140 1.325 . S
O171 Li109 1.961 . S
O171 Li110 1.970 . S
O171 Li111 1.956 . S
O171 C146 1.325 . S
H172 C114 0.929 . S
H173 C115 0.930 . S
H174 C116 0.930 . S
H175 C117 0.930 . S
H176 C119 0.930 . S
H177 C121 0.929 . S
H178 C122 0.930 . S
H179 C123 0.930 . S
H180 C126 0.930 . S
H181 C129 0.929 . S
H182 C134 0.929 . S
H183 C135 0.930 . S
H184 C142 0.929 . S
H185 C143 0.930 . S
H186 C144 0.930 . S
H187 C145 0.930 . S
H188 C147 0.929 . S
H189 C148 0.930 . S
H190 C149 0.930 . S
H191 C150 0.930 . S
H192 C154 0.929 . S
H193 C156 0.930 . S
H194 C162 0.929 . S
H195 C163 0.930 . S
Li196 N213 1.990 . S
Li196 O256 1.956 . S
Li196 O257 1.970 . S
Li196 O258 1.961 . S
Li197 N221 1.990 . S
Li197 O256 1.970 . S
Li197 O257 1.956 . S
Li197 O259 1.961 . S
Li198 N243 1.990 . S
Li198 O256 1.961 . S
Li198 O258 1.956 . S
Li198 O259 1.970 . S
Li199 N249 1.990 . S
Li199 O257 1.961 . S
Li199 O258 1.970 . S
Li199 O259 1.956 . S
C200 C202 1.348 . S
C200 C203 1.356 . S
C200 O256 1.325 . S
N201 C204 1.314 . S
N201 C205 1.279 . S
C202 C200 1.348 . S
C202 C204 1.353 . S
C202 H260 0.929 . S
C203 C200 1.356 . S
C203 C205 1.358 . S
C203 H261 0.930 . S
C204 N201 1.314 . S
C204 C202 1.353 . S
C204 H262 0.930 . S
C205 N201 1.279 . S
C205 C203 1.358 . S
C205 H263 0.930 . S
C206 C209 1.348 . S
C206 C210 1.356 . S
C206 O257 1.325 . S
C207 N208 1.279 . S
C207 C210 1.358 . S
C207 H264 0.930 . S
N208 C207 1.279 . S
N208 C211 1.314 . S
C209 C206 1.348 . S
C209 C211 1.353 . S
C209 H265 0.929 . S
C210 C206 1.356 . S
C210 C207 1.358 . S
C210 H266 0.930 . S
C211 N208 1.314 . S
C211 C209 1.353 . S
C211 H267 0.930 . S
C212 N213 1.314 . S
C212 C217 1.353 . S
C212 H218 0.930 . S
N213 Li196 1.990 . S
N213 C212 1.314 . S
N213 C215 1.279 . S
C214 C215 1.358 . S
C214 C216 1.356 . S
C214 H268 0.930 . S
C215 N213 1.279 . S
C215 C214 1.358 . S
C215 H219 0.930 . S
C216 C214 1.356 . S
C216 C217 1.348 . S
C217 C212 1.353 . S
C217 C216 1.348 . S
C217 H269 0.929 . S
H218 C212 0.930 . S
H219 C215 0.930 . S
C220 N221 1.314 . S
C220 C222 1.353 . S
C220 H226 0.930 . S
N221 Li197 1.990 . S
N221 C220 1.314 . S
N221 C224 1.279 . S
C222 C220 1.353 . S
C222 C225 1.348 . S
C222 H270 0.929 . S
C223 C224 1.358 . S
C223 C225 1.356 . S
C223 H271 0.930 . S
C224 N221 1.279 . S
C224 C223 1.358 . S
C224 H227 0.930 . S
C225 C222 1.348 . S
C225 C223 1.356 . S
H226 C220 0.930 . S
H227 C224 0.930 . S
C228 C230 1.348 . S
C228 C231 1.356 . S
C228 O258 1.325 . S
N229 C232 1.314 . S
N229 C233 1.279 . S
C230 C228 1.348 . S
C230 C232 1.353 . S
C230 H272 0.929 . S
C231 C228 1.356 . S
C231 C233 1.358 . S
C231 H273 0.930 . S
C232 N229 1.314 . S
C232 C230 1.353 . S
C232 H274 0.930 . S
C233 N229 1.279 . S
C233 C231 1.358 . S
C233 H275 0.930 . S
C234 C235 1.348 . S
C234 C236 1.356 . S
C234 O259 1.325 . S
C235 C234 1.348 . S
C235 C237 1.353 . S
C235 H276 0.929 . S
C236 C234 1.356 . S
C236 C238 1.358 . S
C236 H277 0.930 . S
C237 C235 1.353 . S
C237 N239 1.314 . S
C237 H278 0.930 . S
C238 C236 1.358 . S
C238 N239 1.279 . S
C238 H279 0.930 . S
N239 C237 1.314 . S
N239 C238 1.279 . S
C240 C242 1.353 . S
C240 N243 1.314 . S
C240 H246 0.930 . S
C241 N243 1.279 . S
C241 C244 1.358 . S
C241 H247 0.930 . S
C242 C240 1.353 . S
C242 C245 1.348 . S
C242 H280 0.929 . S
N243 Li198 1.990 . S
N243 C240 1.314 . S
N243 C241 1.279 . S
C244 C241 1.358 . S
C244 C245 1.356 . S
C244 H281 0.930 . S
C245 C242 1.348 . S
C245 C244 1.356 . S
H246 C240 0.930 . S
H247 C241 0.930 . S
C248 N249 1.314 . S
C248 C250 1.353 . S
C248 H254 0.930 . S
N249 Li199 1.990 . S
N249 C248 1.314 . S
N249 C252 1.279 . S
C250 C248 1.353 . S
C250 C253 1.348 . S
C250 H282 0.929 . S
C251 C252 1.358 . S
C251 C253 1.356 . S
C251 H283 0.930 . S
C252 N249 1.279 . S
C252 C251 1.358 . S
C252 H255 0.930 . S
C253 C250 1.348 . S
C253 C251 1.356 . S
H254 C248 0.930 . S
H255 C252 0.930 . S
O256 Li196 1.956 . S
O256 Li197 1.970 . S
O256 Li198 1.961 . S
O256 C200 1.325 . S
O257 Li196 1.970 . S
O257 Li197 1.956 . S
O257 Li199 1.961 . S
O257 C206 1.325 . S
O258 Li196 1.961 . S
O258 Li198 1.956 . S
O258 Li199 1.970 . S
O258 C228 1.325 . S
O259 Li197 1.961 . S
O259 Li198 1.970 . S
O259 Li199 1.956 . S
O259 C234 1.325 . S
H260 C202 0.929 . S
H261 C203 0.930 . S
H262 C204 0.930 . S
H263 C205 0.930 . S
H264 C207 0.930 . S
H265 C209 0.929 . S
H266 C210 0.930 . S
H267 C211 0.930 . S
H268 C214 0.930 . S
H269 C217 0.929 . S
H270 C222 0.929 . S
H271 C223 0.930 . S
H272 C230 0.929 . S
H273 C231 0.930 . S
H274 C232 0.930 . S
H275 C233 0.930 . S
H276 C235 0.929 . S
H277 C236 0.930 . S
H278 C237 0.930 . S
H279 C238 0.930 . S
H280 C242 0.929 . S
H281 C244 0.930 . S
H282 C250 0.929 . S
H283 C251 0.930 . S
Li284 N301 1.990 . S
Li284 O344 1.956 . S
Li284 O345 1.970 . S
Li284 O346 1.961 . S
Li285 N309 1.990 . S
Li285 O344 1.970 . S
Li285 O345 1.956 . S
Li285 O347 1.961 . S
Li286 N331 1.990 . S
Li286 O344 1.961 . S
Li286 O346 1.956 . S
Li286 O347 1.970 . S
Li287 N337 1.990 . S
Li287 O345 1.961 . S
Li287 O346 1.970 . S
Li287 O347 1.956 . S
C288 C290 1.348 . S
C288 C291 1.356 . S
C288 O344 1.325 . S
N289 C292 1.314 . S
N289 C293 1.279 . S
C290 C288 1.348 . S
C290 C292 1.353 . S
C290 H348 0.929 . S
C291 C288 1.356 . S
C291 C293 1.358 . S
C291 H349 0.930 . S
C292 N289 1.314 . S
C292 C290 1.353 . S
C292 H350 0.930 . S
C293 N289 1.279 . S
C293 C291 1.358 . S
C293 H351 0.930 . S
C294 C297 1.348 . S
C294 C298 1.356 . S
C294 O345 1.325 . S
C295 N296 1.279 . S
C295 C298 1.358 . S
C295 H352 0.930 . S
N296 C295 1.279 . S
N296 C299 1.314 . S
C297 C294 1.348 . S
C297 C299 1.353 . S
C297 H353 0.929 . S
C298 C294 1.356 . S
C298 C295 1.358 . S
C298 H354 0.930 . S
C299 N296 1.314 . S
C299 C297 1.353 . S
C299 H355 0.930 . S
C300 N301 1.314 . S
C300 C305 1.353 . S
C300 H306 0.930 . S
N301 Li284 1.990 . S
N301 C300 1.314 . S
N301 C303 1.279 . S
C302 C303 1.358 . S
C302 C304 1.356 . S
C302 H356 0.930 . S
C303 N301 1.279 . S
C303 C302 1.358 . S
C303 H307 0.930 . S
C304 C302 1.356 . S
C304 C305 1.348 . S
C305 C300 1.353 . S
C305 C304 1.348 . S
C305 H357 0.929 . S
H306 C300 0.930 . S
H307 C303 0.930 . S
C308 N309 1.314 . S
C308 C310 1.353 . S
C308 H314 0.930 . S
N309 Li285 1.990 . S
N309 C308 1.314 . S
N309 C312 1.279 . S
C310 C308 1.353 . S
C310 C313 1.348 . S
C310 H358 0.929 . S
C311 C312 1.358 . S
C311 C313 1.356 . S
C311 H359 0.930 . S
C312 N309 1.279 . S
C312 C311 1.358 . S
C312 H315 0.930 . S
C313 C310 1.348 . S
C313 C311 1.356 . S
H314 C308 0.930 . S
H315 C312 0.930 . S
C316 C318 1.348 . S
C316 C319 1.356 . S
C316 O346 1.325 . S
N317 C320 1.314 . S
N317 C321 1.279 . S
C318 C316 1.348 . S
C318 C320 1.353 . S
C318 H360 0.929 . S
C319 C316 1.356 . S
C319 C321 1.358 . S
C319 H361 0.930 . S
C320 N317 1.314 . S
C320 C318 1.353 . S
C320 H362 0.930 . S
C321 N317 1.279 . S
C321 C319 1.358 . S
C321 H363 0.930 . S
C322 C323 1.348 . S
C322 C324 1.356 . S
C322 O347 1.325 . S
C323 C322 1.348 . S
C323 C325 1.353 . S
C323 H364 0.929 . S
C324 C322 1.356 . S
C324 C326 1.358 . S
C324 H365 0.930 . S
C325 C323 1.353 . S
C325 N327 1.314 . S
C325 H366 0.930 . S
C326 C324 1.358 . S
C326 N327 1.279 . S
C326 H367 0.930 . S
N327 C325 1.314 . S
N327 C326 1.279 . S
C328 C330 1.353 . S
C328 N331 1.314 . S
C328 H334 0.930 . S
C329 N331 1.279 . S
C329 C332 1.358 . S
C329 H335 0.930 . S
C330 C328 1.353 . S
C330 C333 1.348 . S
C330 H368 0.929 . S
N331 Li286 1.990 . S
N331 C328 1.314 . S
N331 C329 1.279 . S
C332 C329 1.358 . S
C332 C333 1.356 . S
C332 H369 0.930 . S
C333 C330 1.348 . S
C333 C332 1.356 . S
H334 C328 0.930 . S
H335 C329 0.930 . S
C336 N337 1.314 . S
C336 C338 1.353 . S
C336 H342 0.930 . S
N337 Li287 1.990 . S
N337 C336 1.314 . S
N337 C340 1.279 . S
C338 C336 1.353 . S
C338 C341 1.348 . S
C338 H370 0.929 . S
C339 C340 1.358 . S
C339 C341 1.356 . S
C339 H371 0.930 . S
C340 N337 1.279 . S
C340 C339 1.358 . S
C340 H343 0.930 . S
C341 C338 1.348 . S
C341 C339 1.356 . S
H342 C336 0.930 . S
H343 C340 0.930 . S
O344 Li284 1.956 . S
O344 Li285 1.970 . S
O344 Li286 1.961 . S
O344 C288 1.325 . S
O345 Li284 1.970 . S
O345 Li285 1.956 . S
O345 Li287 1.961 . S
O345 C294 1.325 . S
O346 Li284 1.961 . S
O346 Li286 1.956 . S
O346 Li287 1.970 . S
O346 C316 1.325 . S
O347 Li285 1.961 . S
O347 Li286 1.970 . S
O347 Li287 1.956 . S
O347 C322 1.325 . S
H348 C290 0.929 . S
H349 C291 0.930 . S
H350 C292 0.930 . S
H351 C293 0.930 . S
H352 C295 0.930 . S
H353 C297 0.929 . S
H354 C298 0.930 . S
H355 C299 0.930 . S
H356 C302 0.930 . S
H357 C305 0.929 . S
H358 C310 0.929 . S
H359 C311 0.930 . S
H360 C318 0.929 . S
H361 C319 0.930 . S
H362 C320 0.930 . S
H363 C321 0.930 . S
H364 C323 0.929 . S
H365 C324 0.930 . S
H366 C325 0.930 . S
H367 C326 0.930 . S
H368 C330 0.929 . S
H369 C332 0.930 . S
H370 C338 0.929 . S
H371 C339 0.930 . S
Li372 N389 1.990 . S
Li372 O432 1.956 . S
Li372 O433 1.970 . S
Li372 O434 1.961 . S
Li373 N397 1.990 . S
Li373 O432 1.970 . S
Li373 O433 1.956 . S
Li373 O435 1.961 . S
Li374 N419 1.990 . S
Li374 O432 1.961 . S
Li374 O434 1.956 . S
Li374 O435 1.970 . S
Li375 N425 1.990 . S
Li375 O433 1.961 . S
Li375 O434 1.970 . S
Li375 O435 1.956 . S
C376 C378 1.348 . S
C376 C379 1.356 . S
C376 O432 1.325 . S
N377 C380 1.314 . S
N377 C381 1.279 . S
C378 C376 1.348 . S
C378 C380 1.353 1_556 S
C378 H436 0.929 . S
C379 C376 1.356 . S
C379 C381 1.358 1_556 S
C379 H437 0.930 . S
C380 N377 1.314 . S
C380 C378 1.353 1_554 S
C380 H438 0.930 . S
C381 N377 1.279 . S
C381 C379 1.358 1_554 S
C381 H439 0.930 . S
C382 C385 1.348 . S
C382 C386 1.356 . S
C382 O433 1.325 . S
C383 N384 1.279 . S
C383 C386 1.358 . S
C383 H440 0.930 . S
N384 C383 1.279 . S
N384 C387 1.314 . S
C385 C382 1.348 . S
C385 C387 1.353 . S
C385 H441 0.929 . S
C386 C382 1.356 . S
C386 C383 1.358 . S
C386 H442 0.930 . S
C387 N384 1.314 . S
C387 C385 1.353 . S
C387 H443 0.930 . S
C388 N389 1.314 . S
C388 C393 1.353 . S
C388 H394 0.930 . S
N389 Li372 1.990 . S
N389 C388 1.314 . S
N389 C391 1.279 1_556 S
C390 C391 1.358 . S
C390 C392 1.356 . S
C390 H444 0.930 . S
C391 N389 1.279 1_554 S
C391 C390 1.358 . S
C391 H395 0.930 . S
C392 C390 1.356 . S
C392 C393 1.348 1_554 S
C393 C388 1.353 . S
C393 C392 1.348 1_556 S
C393 H445 0.929 . S
H394 C388 0.930 . S
H395 C391 0.930 . S
C396 N397 1.314 . S
C396 C398 1.353 . S
C396 H402 0.930 . S
N397 Li373 1.990 . S
N397 C396 1.314 . S
N397 C400 1.279 . S
C398 C396 1.353 . S
C398 C401 1.348 . S
C398 H446 0.929 . S
C399 C400 1.358 . S
C399 C401 1.356 . S
C399 H447 0.930 . S
C400 N397 1.279 . S
C400 C399 1.358 . S
C400 H403 0.930 . S
C401 C398 1.348 . S
C401 C399 1.356 . S
H402 C396 0.930 . S
H403 C400 0.930 . S
C404 C406 1.348 . S
C404 C407 1.356 . S
C404 O434 1.325 . S
N405 C408 1.314 . S
N405 C409 1.279 . S
C406 C404 1.348 . S
C406 C408 1.353 . S
C406 H448 0.929 . S
C407 C404 1.356 . S
C407 C409 1.358 . S
C407 H449 0.930 . S
C408 N405 1.314 . S
C408 C406 1.353 . S
C408 H450 0.930 . S
C409 N405 1.279 . S
C409 C407 1.358 . S
C409 H451 0.930 . S
C410 C411 1.348 . S
C410 C412 1.356 . S
C410 O435 1.325 . S
C411 C410 1.348 . S
C411 C413 1.353 . S
C411 H452 0.929 . S
C412 C410 1.356 . S
C412 C414 1.358 . S
C412 H453 0.930 . S
C413 C411 1.353 . S
C413 N415 1.314 . S
C413 H454 0.930 . S
C414 C412 1.358 . S
C414 N415 1.279 . S
C414 H455 0.930 . S
N415 C413 1.314 . S
N415 C414 1.279 . S
C416 C418 1.353 . S
C416 N419 1.314 . S
C416 H422 0.930 . S
C417 N419 1.279 . S
C417 C420 1.358 . S
C417 H423 0.930 . S
C418 C416 1.353 . S
C418 C421 1.348 . S
C418 H456 0.929 . S
N419 Li374 1.990 . S
N419 C416 1.314 . S
N419 C417 1.279 . S
C420 C417 1.358 . S
C420 C421 1.356 . S
C420 H457 0.930 . S
C421 C418 1.348 . S
C421 C420 1.356 . S
H422 C416 0.930 . S
H423 C417 0.930 . S
C424 N425 1.314 . S
C424 C426 1.353 . S
C424 H430 0.930 . S
N425 Li375 1.990 . S
N425 C424 1.314 . S
N425 C428 1.279 . S
C426 C424 1.353 . S
C426 C429 1.348 . S
C426 H458 0.929 . S
C427 C428 1.358 . S
C427 C429 1.356 . S
C427 H459 0.930 . S
C428 N425 1.279 . S
C428 C427 1.358 . S
C428 H431 0.930 . S
C429 C426 1.348 . S
C429 C427 1.356 . S
H430 C424 0.930 . S
H431 C428 0.930 . S
O432 Li372 1.956 . S
O432 Li373 1.970 . S
O432 Li374 1.961 . S
O432 C376 1.325 . S
O433 Li372 1.970 . S
O433 Li373 1.956 . S
O433 Li375 1.961 . S
O433 C382 1.325 . S
O434 Li372 1.961 . S
O434 Li374 1.956 . S
O434 Li375 1.970 . S
O434 C404 1.325 . S
O435 Li373 1.961 . S
O435 Li374 1.970 . S
O435 Li375 1.956 . S
O435 C410 1.325 . S
H436 C378 0.929 . S
H437 C379 0.930 . S
H438 C380 0.930 . S
H439 C381 0.930 . S
H440 C383 0.930 . S
H441 C385 0.929 . S
H442 C386 0.930 . S
H443 C387 0.930 . S
H444 C390 0.930 . S
H445 C393 0.929 . S
H446 C398 0.929 . S
H447 C399 0.930 . S
H448 C406 0.929 . S
H449 C407 0.930 . S
H450 C408 0.930 . S
H451 C409 0.930 . S
H452 C411 0.929 . S
H453 C412 0.930 . S
H454 C413 0.930 . S
H455 C414 0.930 . S
H456 C418 0.929 . S
H457 C420 0.930 . S
H458 C426 0.929 . S
H459 C427 0.930 . S
Li460 N477 1.990 . S
Li460 O520 1.956 . S
Li460 O521 1.970 . S
Li460 O522 1.961 . S
Li461 N485 1.990 . S
Li461 O520 1.970 . S
Li461 O521 1.956 . S
Li461 O523 1.961 . S
Li462 N507 1.990 . S
Li462 O520 1.961 . S
Li462 O522 1.956 . S
Li462 O523 1.970 . S
Li463 N513 1.990 . S
Li463 O521 1.961 . S
Li463 O522 1.970 . S
Li463 O523 1.956 . S
C464 C466 1.348 . S
C464 C467 1.356 . S
C464 O520 1.325 . S
N465 C468 1.314 . S
N465 C469 1.279 . S
C466 C464 1.348 . S
C466 C468 1.353 . S
C466 H524 0.929 . S
C467 C464 1.356 . S
C467 C469 1.358 . S
C467 H525 0.930 . S
C468 N465 1.314 . S
C468 C466 1.353 . S
C468 H526 0.930 . S
C469 N465 1.279 . S
C469 C467 1.358 . S
C469 H527 0.930 . S
C470 C473 1.348 . S
C470 C474 1.356 . S
C470 O521 1.325 . S
C471 N472 1.279 . S
C471 C474 1.358 . S
C471 H528 0.930 . S
N472 C471 1.279 . S
N472 C475 1.314 . S
C473 C470 1.348 . S
C473 C475 1.353 . S
C473 H529 0.929 . S
C474 C470 1.356 . S
C474 C471 1.358 . S
C474 H530 0.930 . S
C475 N472 1.314 . S
C475 C473 1.353 . S
C475 H531 0.930 . S
C476 N477 1.314 . S
C476 C481 1.353 . S
C476 H482 0.930 . S
N477 Li460 1.990 . S
N477 C476 1.314 . S
N477 C479 1.279 . S
C478 C479 1.358 . S
C478 C480 1.356 . S
C478 H532 0.930 . S
C479 N477 1.279 . S
C479 C478 1.358 . S
C479 H483 0.930 . S
C480 C478 1.356 . S
C480 C481 1.348 . S
C481 C476 1.353 . S
C481 C480 1.348 . S
C481 H533 0.929 . S
H482 C476 0.930 . S
H483 C479 0.930 . S
C484 N485 1.314 . S
C484 C486 1.353 . S
C484 H490 0.930 . S
N485 Li461 1.990 . S
N485 C484 1.314 . S
N485 C488 1.279 . S
C486 C484 1.353 . S
C486 C489 1.348 . S
C486 H534 0.929 . S
C487 C488 1.358 . S
C487 C489 1.356 . S
C487 H535 0.930 . S
C488 N485 1.279 . S
C488 C487 1.358 . S
C488 H491 0.930 . S
C489 C486 1.348 . S
C489 C487 1.356 . S
H490 C484 0.930 . S
H491 C488 0.930 . S
C492 C494 1.348 . S
C492 C495 1.356 . S
C492 O522 1.325 . S
N493 C496 1.314 . S
N493 C497 1.279 . S
C494 C492 1.348 . S
C494 C496 1.353 1_554 S
C494 H536 0.929 . S
C495 C492 1.356 . S
C495 C497 1.358 1_554 S
C495 H537 0.930 . S
C496 N493 1.314 . S
C496 C494 1.353 1_556 S
C496 H538 0.930 . S
C497 N493 1.279 . S
C497 C495 1.358 1_556 S
C497 H539 0.930 . S
C498 C499 1.348 . S
C498 C500 1.356 . S
C498 O523 1.325 . S
C499 C498 1.348 . S
C499 C501 1.353 . S
C499 H540 0.929 . S
C500 C498 1.356 . S
C500 C502 1.358 . S
C500 H541 0.930 . S
C501 C499 1.353 . S
C501 N503 1.314 . S
C501 H542 0.930 . S
C502 C500 1.358 . S
C502 N503 1.279 . S
C502 H543 0.930 . S
N503 C501 1.314 . S
N503 C502 1.279 . S
C504 C506 1.353 1_554 S
C504 N507 1.314 . S
C504 H510 0.930 . S
C505 N507 1.279 1_556 S
C505 C508 1.358 . S
C505 H511 0.930 . S
C506 C504 1.353 1_556 S
C506 C509 1.348 . S
C506 H544 0.929 . S
N507 Li462 1.990 . S
N507 C504 1.314 . S
N507 C505 1.279 1_554 S
C508 C505 1.358 . S
C508 C509 1.356 . S
C508 H545 0.930 . S
C509 C506 1.348 . S
C509 C508 1.356 . S
H510 C504 0.930 . S
H511 C505 0.930 . S
C512 N513 1.314 . S
C512 C514 1.353 . S
C512 H518 0.930 . S
N513 Li463 1.990 . S
N513 C512 1.314 . S
N513 C516 1.279 . S
C514 C512 1.353 . S
C514 C517 1.348 . S
C514 H546 0.929 . S
C515 C516 1.358 . S
C515 C517 1.356 . S
C515 H547 0.930 . S
C516 N513 1.279 . S
C516 C515 1.358 . S
C516 H519 0.930 . S
C517 C514 1.348 . S
C517 C515 1.356 . S
H518 C512 0.930 . S
H519 C516 0.930 . S
O520 Li460 1.956 . S
O520 Li461 1.970 . S
O520 Li462 1.961 . S
O520 C464 1.325 . S
O521 Li460 1.970 . S
O521 Li461 1.956 . S
O521 Li463 1.961 . S
O521 C470 1.325 . S
O522 Li460 1.961 . S
O522 Li462 1.956 . S
O522 Li463 1.970 . S
O522 C492 1.325 . S
O523 Li461 1.961 . S
O523 Li462 1.970 . S
O523 Li463 1.956 . S
O523 C498 1.325 . S
H524 C466 0.929 . S
H525 C467 0.930 . S
H526 C468 0.930 . S
H527 C469 0.930 . S
H528 C471 0.930 . S
H529 C473 0.929 . S
H530 C474 0.930 . S
H531 C475 0.930 . S
H532 C478 0.930 . S
H533 C481 0.929 . S
H534 C486 0.929 . S
H535 C487 0.930 . S
H536 C494 0.929 . S
H537 C495 0.930 . S
H538 C496 0.930 . S
H539 C497 0.930 . S
H540 C499 0.929 . S
H541 C500 0.930 . S
H542 C501 0.930 . S
H543 C502 0.930 . S
H544 C506 0.929 . S
H545 C508 0.930 . S
H546 C514 0.929 . S
H547 C515 0.930 . S
Li548 N565 1.990 . S
Li548 O608 1.956 . S
Li548 O609 1.970 . S
Li548 O610 1.961 . S
Li549 N573 1.990 . S
Li549 O608 1.970 . S
Li549 O609 1.956 . S
Li549 O611 1.961 . S
Li550 N595 1.990 . S
Li550 O608 1.961 . S
Li550 O610 1.956 . S
Li550 O611 1.970 . S
Li551 N601 1.990 . S
Li551 O609 1.961 . S
Li551 O610 1.970 . S
Li551 O611 1.956 . S
C552 C554 1.348 . S
C552 C555 1.356 . S
C552 O608 1.325 . S
N553 C556 1.314 . S
N553 C557 1.279 . S
C554 C552 1.348 . S
C554 C556 1.353 . S
C554 H612 0.929 . S
C555 C552 1.356 . S
C555 C557 1.358 . S
C555 H613 0.930 . S
C556 N553 1.314 . S
C556 C554 1.353 . S
C556 H614 0.930 . S
C557 N553 1.279 . S
C557 C555 1.358 . S
C557 H615 0.930 . S
C558 C561 1.348 . S
C558 C562 1.356 . S
C558 O609 1.325 . S
C559 N560 1.279 . S
C559 C562 1.358 . S
C559 H616 0.930 . S
N560 C559 1.279 . S
N560 C563 1.314 . S
C561 C558 1.348 . S
C561 C563 1.353 . S
C561 H617 0.929 . S
C562 C558 1.356 . S
C562 C559 1.358 . S
C562 H618 0.930 . S
C563 N560 1.314 . S
C563 C561 1.353 . S
C563 H619 0.930 . S
C564 N565 1.314 . S
C564 C569 1.353 . S
C564 H570 0.930 . S
N565 Li548 1.990 . S
N565 C564 1.314 . S
N565 C567 1.279 . S
C566 C567 1.358 . S
C566 C568 1.356 . S
C566 H620 0.930 . S
C567 N565 1.279 . S
C567 C566 1.358 . S
C567 H571 0.930 . S
C568 C566 1.356 . S
C568 C569 1.348 . S
C569 C564 1.353 . S
C569 C568 1.348 . S
C569 H621 0.929 . S
H570 C564 0.930 . S
H571 C567 0.930 . S
C572 N573 1.314 . S
C572 C574 1.353 . S
C572 H578 0.930 . S
N573 Li549 1.990 . S
N573 C572 1.314 . S
N573 C576 1.279 . S
C574 C572 1.353 . S
C574 C577 1.348 . S
C574 H622 0.929 . S
C575 C576 1.358 . S
C575 C577 1.356 . S
C575 H623 0.930 . S
C576 N573 1.279 . S
C576 C575 1.358 . S
C576 H579 0.930 . S
C577 C574 1.348 . S
C577 C575 1.356 . S
H578 C572 0.930 . S
H579 C576 0.930 . S
C580 C582 1.348 . S
C580 C583 1.356 . S
C580 O610 1.325 . S
N581 C584 1.314 . S
N581 C585 1.279 . S
C582 C580 1.348 . S
C582 C584 1.353 . S
C582 H624 0.929 . S
C583 C580 1.356 . S
C583 C585 1.358 . S
C583 H625 0.930 . S
C584 N581 1.314 . S
C584 C582 1.353 . S
C584 H626 0.930 . S
C585 N581 1.279 . S
C585 C583 1.358 . S
C585 H627 0.930 . S
C586 C587 1.348 . S
C586 C588 1.356 . S
C586 O611 1.325 . S
C587 C586 1.348 . S
C587 C589 1.353 . S
C587 H628 0.929 . S
C588 C586 1.356 . S
C588 C590 1.358 . S
C588 H629 0.930 . S
C589 C587 1.353 . S
C589 N591 1.314 . S
C589 H630 0.930 . S
C590 C588 1.358 . S
C590 N591 1.279 . S
C590 H631 0.930 . S
N591 C589 1.314 . S
N591 C590 1.279 . S
C592 C594 1.353 . S
C592 N595 1.314 . S
C592 H598 0.930 . S
C593 N595 1.279 . S
C593 C596 1.358 . S
C593 H599 0.930 . S
C594 C592 1.353 . S
C594 C597 1.348 . S
C594 H632 0.929 . S
N595 Li550 1.990 . S
N595 C592 1.314 . S
N595 C593 1.279 . S
C596 C593 1.358 . S
C596 C597 1.356 . S
C596 H633 0.930 . S
C597 C594 1.348 . S
C597 C596 1.356 . S
H598 C592 0.930 . S
H599 C593 0.930 . S
C600 N601 1.314 . S
C600 C602 1.353 . S
C600 H606 0.930 . S
N601 Li551 1.990 . S
N601 C600 1.314 . S
N601 C604 1.279 . S
C602 C600 1.353 . S
C602 C605 1.348 . S
C602 H634 0.929 . S
C603 C604 1.358 . S
C603 C605 1.356 . S
C603 H635 0.930 . S
C604 N601 1.279 . S
C604 C603 1.358 . S
C604 H607 0.930 . S
C605 C602 1.348 . S
C605 C603 1.356 . S
H606 C600 0.930 . S
H607 C604 0.930 . S
O608 Li548 1.956 . S
O608 Li549 1.970 . S
O608 Li550 1.961 . S
O608 C552 1.325 . S
O609 Li548 1.970 . S
O609 Li549 1.956 . S
O609 Li551 1.961 . S
O609 C558 1.325 . S
O610 Li548 1.961 . S
O610 Li550 1.956 . S
O610 Li551 1.970 . S
O610 C580 1.325 . S
O611 Li549 1.961 . S
O611 Li550 1.970 . S
O611 Li551 1.956 . S
O611 C586 1.325 . S
H612 C554 0.929 . S
H613 C555 0.930 . S
H614 C556 0.930 . S
H615 C557 0.930 . S
H616 C559 0.930 . S
H617 C561 0.929 . S
H618 C562 0.930 . S
H619 C563 0.930 . S
H620 C566 0.930 . S
H621 C569 0.929 . S
H622 C574 0.929 . S
H623 C575 0.930 . S
H624 C582 0.929 . S
H625 C583 0.930 . S
H626 C584 0.930 . S
H627 C585 0.930 . S
H628 C587 0.929 . S
H629 C588 0.930 . S
H630 C589 0.930 . S
H631 C590 0.930 . S
H632 C594 0.929 . S
H633 C596 0.930 . S
H634 C602 0.929 . S
H635 C603 0.930 . S
C636 C637 1.369 . S
C636 C638 1.419 . S
C636 H640 0.930 . S
C637 C636 1.369 . S
C637 C646 1.429 . S
C638 C636 1.419 . S
C638 C639 1.363 . S
C638 H641 0.929 . S
C639 C638 1.363 . S
C639 C645 1.428 . S
H640 C636 0.930 . S
H641 C638 0.929 . S
S642 N643 1.613 . S
S642 N644 1.610 . S
N643 S642 1.613 . S
N643 C646 1.350 . S
N644 S642 1.610 . S
N644 C645 1.351 . S
C645 C639 1.428 . S
C645 N644 1.351 . S
C645 C646 1.434 . S
C646 C637 1.429 . S
C646 N643 1.350 . S
C646 C645 1.434 . S
C647 C648 1.369 . S
C647 C649 1.419 . S
C647 H651 0.930 . S
C648 C647 1.369 . S
C648 C657 1.429 . S
C649 C647 1.419 . S
C649 C650 1.363 . S
C649 H652 0.929 . S
C650 C649 1.363 . S
C650 C656 1.428 . S
H651 C647 0.930 . S
H652 C649 0.929 . S
S653 N654 1.613 . S
S653 N655 1.610 . S
N654 S653 1.613 . S
N654 C657 1.350 . S
N655 S653 1.610 . S
N655 C656 1.351 . S
C656 C650 1.428 . S
C656 N655 1.351 . S
C656 C657 1.434 . S
C657 C648 1.429 . S
C657 N654 1.350 . S
C657 C656 1.434 . S
C658 C659 1.369 . S
C658 C660 1.419 . S
C658 H662 0.930 . S
C659 C658 1.369 . S
C659 C668 1.429 . S
C660 C658 1.419 . S
C660 C661 1.363 . S
C660 H663 0.929 . S
C661 C660 1.363 . S
C661 C667 1.428 . S
H662 C658 0.930 . S
H663 C660 0.929 . S
S664 N665 1.613 . S
S664 N666 1.610 . S
N665 S664 1.613 . S
N665 C668 1.350 . S
N666 S664 1.610 . S
N666 C667 1.351 . S
C667 C661 1.428 . S
C667 N666 1.351 . S
C667 C668 1.434 . S
C668 C659 1.429 . S
C668 N665 1.350 . S
C668 C667 1.434 . S
C669 C670 1.369 . S
C669 C671 1.419 . S
C669 H673 0.930 . S
C670 C669 1.369 . S
C670 C679 1.429 . S
C671 C669 1.419 . S
C671 C672 1.363 . S
C671 H674 0.929 . S
C672 C671 1.363 . S
C672 C678 1.428 . S
H673 C669 0.930 . S
H674 C671 0.929 . S
S675 N676 1.613 . S
S675 N677 1.610 . S
N676 S675 1.613 . S
N676 C679 1.350 . S
N677 S675 1.610 . S
N677 C678 1.351 . S
C678 C672 1.428 . S
C678 N677 1.351 . S
C678 C679 1.434 . S
C679 C670 1.429 . S
C679 N676 1.350 . S
C679 C678 1.434 . S
C680 C681 1.369 . S
C680 C682 1.419 . S
C680 H684 0.930 . S
C681 C680 1.369 . S
C681 C690 1.429 . S
C682 C680 1.419 . S
C682 C683 1.363 . S
C682 H685 0.929 . S
C683 C682 1.363 . S
C683 C689 1.428 . S
H684 C680 0.930 . S
H685 C682 0.929 . S
S686 N687 1.613 . S
S686 N688 1.610 . S
N687 S686 1.613 . S
N687 C690 1.350 . S
N688 S686 1.610 . S
N688 C689 1.351 . S
C689 C683 1.428 . S
C689 N688 1.351 . S
C689 C690 1.434 . S
C690 C681 1.429 . S
C690 N687 1.350 . S
C690 C689 1.434 . S
C691 C692 1.369 . S
C691 C693 1.419 . S
C691 H695 0.930 . S
C692 C691 1.369 . S
C692 C701 1.429 . S
C693 C691 1.419 . S
C693 C694 1.363 . S
C693 H696 0.929 . S
C694 C693 1.363 . S
C694 C700 1.428 . S
H695 C691 0.930 . S
H696 C693 0.929 . S
S697 N698 1.613 . S
S697 N699 1.610 . S
N698 S697 1.613 . S
N698 C701 1.350 . S
N699 S697 1.610 . S
N699 C700 1.351 . S
C700 C694 1.428 . S
C700 N699 1.351 . S
C700 C701 1.434 . S
C701 C692 1.429 . S
C701 N698 1.350 . S
C701 C700 1.434 . S
C702 C703 1.369 . S
C702 C704 1.419 . S
C702 H706 0.930 . S
C703 C702 1.369 . S
C703 C712 1.429 . S
C704 C702 1.419 . S
C704 C705 1.363 . S
C704 H707 0.929 . S
C705 C704 1.363 . S
C705 C711 1.428 . S
H706 C702 0.930 . S
H707 C704 0.929 . S
S708 N709 1.613 . S
S708 N710 1.610 . S
N709 S708 1.613 . S
N709 C712 1.350 . S
N710 S708 1.610 . S
N710 C711 1.351 . S
C711 C705 1.428 . S
C711 N710 1.351 . S
C711 C712 1.434 . S
C712 C703 1.429 . S
C712 N709 1.350 . S
C712 C711 1.434 . S
C713 C714 1.369 . S
C713 C715 1.419 . S
C713 H717 0.930 . S
C714 C713 1.369 . S
C714 C723 1.429 . S
C715 C713 1.419 . S
C715 C716 1.363 . S
C715 H718 0.929 . S
C716 C715 1.363 . S
C716 C722 1.428 . S
H717 C713 0.930 . S
H718 C715 0.929 . S
S719 N720 1.613 . S
S719 N721 1.610 . S
N720 S719 1.613 . S
N720 C723 1.350 . S
N721 S719 1.610 . S
N721 C722 1.351 . S
C722 C716 1.428 . S
C722 N721 1.351 . S
C722 C723 1.434 . S
C723 C714 1.429 . S
C723 N720 1.350 . S
C723 C722 1.434 . S
C724 C725 1.369 . S
C724 C726 1.419 . S
C724 H728 0.930 . S
C725 C724 1.369 . S
C725 C734 1.429 . S
C726 C724 1.419 . S
C726 C727 1.363 . S
C726 H729 0.929 . S
C727 C726 1.363 . S
C727 C733 1.428 . S
H728 C724 0.930 . S
H729 C726 0.929 . S
S730 N731 1.613 . S
S730 N732 1.610 . S
N731 S730 1.613 . S
N731 C734 1.350 . S
N732 S730 1.610 . S
N732 C733 1.351 . S
C733 C727 1.428 . S
C733 N732 1.351 . S
C733 C734 1.434 . S
C734 C725 1.429 . S
C734 N731 1.350 . S
C734 C733 1.434 . S
C735 C736 1.369 . S
C735 C737 1.419 . S
C735 H739 0.930 . S
C736 C735 1.369 . S
C736 C745 1.429 . S
C737 C735 1.419 . S
C737 C738 1.363 . S
C737 H740 0.929 . S
C738 C737 1.363 . S
C738 C744 1.428 . S
H739 C735 0.930 . S
H740 C737 0.929 . S
S741 N742 1.613 . S
S741 N743 1.610 . S
N742 S741 1.613 . S
N742 C745 1.350 . S
N743 S741 1.610 . S
N743 C744 1.351 . S
C744 C738 1.428 . S
C744 N743 1.351 . S
C744 C745 1.434 . S
C745 C736 1.429 . S
C745 N742 1.350 . S
C745 C744 1.434 . S
C746 C747 1.369 . S
C746 C748 1.419 . S
C746 H750 0.930 . S
C747 C746 1.369 . S
C747 C756 1.429 . S
C748 C746 1.419 . S
C748 C749 1.363 . S
C748 H751 0.929 . S
C749 C748 1.363 . S
C749 C755 1.428 . S
H750 C746 0.930 . S
H751 C748 0.929 . S
S752 N753 1.613 . S
S752 N754 1.610 . S
N753 S752 1.613 . S
N753 C756 1.350 . S
N754 S752 1.610 . S
N754 C755 1.351 . S
C755 C749 1.428 . S
C755 N754 1.351 . S
C755 C756 1.434 . S
C756 C747 1.429 . S
C756 N753 1.350 . S
C756 C755 1.434 . S
C757 C758 1.369 . S
C757 C759 1.419 . S
C757 H761 0.930 . S
C758 C757 1.369 . S
C758 C767 1.429 . S
C759 C757 1.419 . S
C759 C760 1.363 . S
C759 H762 0.929 . S
C760 C759 1.363 . S
C760 C766 1.428 . S
H761 C757 0.930 . S
H762 C759 0.929 . S
S763 N764 1.613 . S
S763 N765 1.610 . S
N764 S763 1.613 . S
N764 C767 1.350 . S
N765 S763 1.610 . S
N765 C766 1.351 . S
C766 C760 1.428 . S
C766 N765 1.351 . S
C766 C767 1.434 . S
C767 C758 1.429 . S
C767 N764 1.350 . S
C767 C766 1.434 . S
C768 C769 1.369 . S
C768 C770 1.419 . S
C768 H772 0.930 . S
C769 C768 1.369 . S
C769 C778 1.429 . S
C770 C768 1.419 . S
C770 C771 1.363 . S
C770 H773 0.929 . S
C771 C770 1.363 . S
C771 C777 1.428 . S
H772 C768 0.930 . S
H773 C770 0.929 . S
S774 N775 1.613 . S
S774 N776 1.610 . S
N775 S774 1.613 . S
N775 C778 1.350 . S
N776 S774 1.610 . S
N776 C777 1.351 . S
C777 C771 1.428 . S
C777 N776 1.351 . S
C777 C778 1.434 . S
C778 C769 1.429 . S
C778 N775 1.350 . S
C778 C777 1.434 . S
C779 C780 1.369 . S
C779 C781 1.419 . S
C779 H783 0.930 . S
C780 C779 1.369 . S
C780 C789 1.429 . S
C781 C779 1.419 . S
C781 C782 1.363 . S
C781 H784 0.929 . S
C782 C781 1.363 . S
C782 C788 1.428 . S
H783 C779 0.930 . S
H784 C781 0.929 . S
S785 N786 1.613 . S
S785 N787 1.610 . S
N786 S785 1.613 . S
N786 C789 1.350 . S
N787 S785 1.610 . S
N787 C788 1.351 . S
C788 C782 1.428 . S
C788 N787 1.351 . S
C788 C789 1.434 . S
C789 C780 1.429 . S
C789 N786 1.350 . S
C789 C788 1.434 . S
C790 C791 1.369 . S
C790 C792 1.419 . S
C790 H794 0.930 . S
C791 C790 1.369 . S
C791 C800 1.429 . S
C792 C790 1.419 . S
C792 C793 1.363 . S
C792 H795 0.929 . S
C793 C792 1.363 . S
C793 C799 1.428 . S
H794 C790 0.930 . S
H795 C792 0.929 . S
S796 N797 1.613 . S
S796 N798 1.610 . S
N797 S796 1.613 . S
N797 C800 1.350 . S
N798 S796 1.610 . S
N798 C799 1.351 . S
C799 C793 1.428 . S
C799 N798 1.351 . S
C799 C800 1.434 . S
C800 C791 1.429 . S
C800 N797 1.350 . S
C800 C799 1.434 . S
C801 C802 1.369 . S
C801 C803 1.419 . S
C801 H805 0.930 . S
C802 C801 1.369 . S
C802 C811 1.429 . S
C803 C801 1.419 . S
C803 C804 1.363 . S
C803 H806 0.929 . S
C804 C803 1.363 . S
C804 C810 1.428 . S
H805 C801 0.930 . S
H806 C803 0.929 . S
S807 N808 1.613 . S
S807 N809 1.610 . S
N808 S807 1.613 . S
N808 C811 1.350 . S
N809 S807 1.610 . S
N809 C810 1.351 . S
C810 C804 1.428 . S
C810 N809 1.351 . S
C810 C811 1.434 . S
C811 C802 1.429 . S
C811 N808 1.350 . S
C811 C810 1.434 . S
C812 C813 1.369 . S
C812 C814 1.419 . S
C812 H816 0.930 . S
C813 C812 1.369 . S
C813 C822 1.429 . S
C814 C812 1.419 . S
C814 C815 1.363 . S
C814 H817 0.929 . S
C815 C814 1.363 . S
C815 C821 1.428 . S
H816 C812 0.930 . S
H817 C814 0.929 . S
S818 N819 1.613 . S
S818 N820 1.610 . S
N819 S818 1.613 . S
N819 C822 1.350 . S
N820 S818 1.610 . S
N820 C821 1.351 . S
C821 C815 1.428 . S
C821 N820 1.351 . S
C821 C822 1.434 . S
C822 C813 1.429 . S
C822 N819 1.350 . S
C822 C821 1.434 . S
C823 C824 1.369 . S
C823 C825 1.419 . S
C823 H827 0.930 . S
C824 C823 1.369 . S
C824 C833 1.429 . S
C825 C823 1.419 . S
C825 C826 1.363 . S
C825 H828 0.929 . S
C826 C825 1.363 . S
C826 C832 1.428 . S
H827 C823 0.930 . S
H828 C825 0.929 . S
S829 N830 1.613 . S
S829 N831 1.610 . S
N830 S829 1.613 . S
N830 C833 1.350 . S
N831 S829 1.610 . S
N831 C832 1.351 . S
C832 C826 1.428 . S
C832 N831 1.351 . S
C832 C833 1.434 . S
C833 C824 1.429 . S
C833 N830 1.350 . S
C833 C832 1.434 . S
C834 C835 1.369 . S
C834 C836 1.419 . S
C834 H838 0.930 . S
C835 C834 1.369 . S
C835 C844 1.429 . S
C836 C834 1.419 . S
C836 C837 1.363 . S
C836 H839 0.929 . S
C837 C836 1.363 . S
C837 C843 1.428 . S
H838 C834 0.930 . S
H839 C836 0.929 . S
S840 N841 1.613 . S
S840 N842 1.610 . S
N841 S840 1.613 . S
N841 C844 1.350 . S
N842 S840 1.610 . S
N842 C843 1.351 . S
C843 C837 1.428 . S
C843 N842 1.351 . S
C843 C844 1.434 . S
C844 C835 1.429 . S
C844 N841 1.350 . S
C844 C843 1.434 . S
C845 C846 1.369 . S
C845 C847 1.419 . S
C845 H849 0.930 . S
C846 C845 1.369 . S
C846 C855 1.429 . S
C847 C845 1.419 . S
C847 C848 1.363 . S
C847 H850 0.929 . S
C848 C847 1.363 . S
C848 C854 1.428 . S
H849 C845 0.930 . S
H850 C847 0.929 . S
S851 N852 1.613 . S
S851 N853 1.610 . S
N852 S851 1.613 . S
N852 C855 1.350 . S
N853 S851 1.610 . S
N853 C854 1.351 . S
C854 C848 1.428 . S
C854 N853 1.351 . S
C854 C855 1.434 . S
C855 C846 1.429 . S
C855 N852 1.350 . S
C855 C854 1.434 . S
C856 C857 1.369 . S
C856 C858 1.419 . S
C856 H860 0.930 . S
C857 C856 1.369 . S
C857 C866 1.429 . S
C858 C856 1.419 . S
C858 C859 1.363 . S
C858 H861 0.929 . S
C859 C858 1.363 . S
C859 C865 1.428 . S
H860 C856 0.930 . S
H861 C858 0.929 . S
S862 N863 1.613 . S
S862 N864 1.610 . S
N863 S862 1.613 . S
N863 C866 1.350 . S
N864 S862 1.610 . S
N864 C865 1.351 . S
C865 C859 1.428 . S
C865 N864 1.351 . S
C865 C866 1.434 . S
C866 C857 1.429 . S
C866 N863 1.350 . S
C866 C865 1.434 . S
C867 C868 1.369 . S
C867 C869 1.419 . S
C867 H871 0.930 . S
C868 C867 1.369 . S
C868 C877 1.429 . S
C869 C867 1.419 . S
C869 C870 1.363 . S
C869 H872 0.929 . S
C870 C869 1.363 . S
C870 C876 1.428 . S
H871 C867 0.930 . S
H872 C869 0.929 . S
S873 N874 1.613 . S
S873 N875 1.610 . S
N874 S873 1.613 . S
N874 C877 1.350 . S
N875 S873 1.610 . S
N875 C876 1.351 . S
C876 C870 1.428 . S
C876 N875 1.351 . S
C876 C877 1.434 . S
C877 C868 1.429 . S
C877 N874 1.350 . S
C877 C876 1.434 . S
C878 C879 1.369 . S
C878 C880 1.419 . S
C878 H882 0.930 . S
C879 C878 1.369 . S
C879 C888 1.429 . S
C880 C878 1.419 . S
C880 C881 1.363 . S
C880 H883 0.929 . S
C881 C880 1.363 . S
C881 C887 1.428 . S
H882 C878 0.930 . S
H883 C880 0.929 . S
S884 N885 1.613 . S
S884 N886 1.610 . S
N885 S884 1.613 . S
N885 C888 1.350 . S
N886 S884 1.610 . S
N886 C887 1.351 . S
C887 C881 1.428 . S
C887 N886 1.351 . S
C887 C888 1.434 . S
C888 C879 1.429 . S
C888 N885 1.350 . S
C888 C887 1.434 . S
C889 C890 1.369 . S
C889 C891 1.419 . S
C889 H893 0.930 . S
C890 C889 1.369 . S
C890 C899 1.429 . S
C891 C889 1.419 . S
C891 C892 1.363 . S
C891 H894 0.929 . S
C892 C891 1.363 . S
C892 C898 1.428 . S
H893 C889 0.930 . S
H894 C891 0.929 . S
S895 N896 1.613 . S
S895 N897 1.610 . S
N896 S895 1.613 . S
N896 C899 1.350 . S
N897 S895 1.610 . S
N897 C898 1.351 . S
C898 C892 1.428 . S
C898 N897 1.351 . S
C898 C899 1.434 . S
C899 C890 1.429 . S
C899 N896 1.350 . S
C899 C898 1.434 . S
C639 C577 1.607 . S
C637 C8 1.587 . S
C648 C26 1.590 . S
C650 C137 1.606 . S
C659 C50 1.597 . S
C661 C225 1.616 . S
C670 C68 1.591 . S
C672 C304 1.611 . S
C683 C401 1.606 . S
C681 C80 1.595 . S
C692 C104 1.589 . S
C694 C480 1.608 . S
C703 C32 1.597 . S
C705 C245 1.617 . S
C714 C44 1.592 . S
C716 C341 1.610 . S
C725 C62 1.591 . S
C727 C421 1.609 . S
C738 C517 1.608 . S
C736 C86 1.591 1_554 S
C749 C597 1.609 . S
C747 C98 1.592 . S
C760 C157 1.609 . S
C758 C14 1.591 . S
C769 C7 1.480 . S
C771 C253 1.553 . S
C780 C25 1.486 . S
C782 C333 1.547 . S
C793 C429 1.543 . S
C791 C52 1.487 . S
C802 C70 1.482 . S
C804 C509 1.551 . S
C815 C605 1.549 . S
C813 C79 1.475 . S
C826 C165 1.545 . S
C824 C106 1.489 . S
C837 C568 1.546 . S
C835 C34 1.478 . S
C846 C43 1.480 . S
C848 C128 1.551 . S
C859 C216 1.553 . S
C857 C61 1.481 . S
C868 C88 1.479 . S
C870 C313 1.546 . S
C879 C97 1.485 . S
C881 C392 1.545 . S
C890 C16 1.483 . S
C892 C489 1.552 . S
