# Generated by pormake.
# Topology zzz, (3,6)-cn, num edge types: 1
# Building blocks:
#     Node 0, Type 0, BuildingBlock: BETDIP_clean_linker_0, # of connection points: 3
#     Node 1, Type 0, BuildingBlock: BETDIP_clean_linker_0, # of connection points: 3
#     Node 2, Type 0, BuildingBlock: BETDIP_clean_linker_0, # of connection points: 3
#     Node 3, Type 0, BuildingBlock: BETDIP_clean_linker_0, # of connection points: 3
#     Node 4, Type 0, BuildingBlock: BETDIP_clean_linker_0, # of connection points: 3
#     Node 5, Type 0, BuildingBlock: BETDIP_clean_linker_0, # of connection points: 3
#     Node 6, Type 0, BuildingBlock: BETDIP_clean_linker_0, # of connection points: 3
#     Node 7, Type 0, BuildingBlock: BETDIP_clean_linker_0, # of connection points: 3
#     Node 8, Type 1, BuildingBlock: INOVEN_clean_sbu_0, # of connection points: 6
#     Node 9, Type 1, BuildingBlock: INOVEN_clean_sbu_0, # of connection points: 6
#     Node 10, Type 1, BuildingBlock: INOVEN_clean_sbu_0, # of connection points: 6
#     Node 11, Type 1, BuildingBlock: INOVEN_clean_sbu_0, # of connection points: 6
#     Edge 12, Type (0, 1), BuildingBlock: MIFKUJ_clean_linker_0, # of connection points: 2
#     Edge 13, Type (0, 1), BuildingBlock: MIFKUJ_clean_linker_0, # of connection points: 2
#     Edge 14, Type (0, 1), BuildingBlock: MIFKUJ_clean_linker_0, # of connection points: 2
#     Edge 15, Type (0, 1), BuildingBlock: MIFKUJ_clean_linker_0, # of connection points: 2
#     Edge 16, Type (0, 1), BuildingBlock: MIFKUJ_clean_linker_0, # of connection points: 2
#     Edge 17, Type (0, 1), BuildingBlock: MIFKUJ_clean_linker_0, # of connection points: 2
#     Edge 18, Type (0, 1), BuildingBlock: MIFKUJ_clean_linker_0, # of connection points: 2
#     Edge 19, Type (0, 1), BuildingBlock: MIFKUJ_clean_linker_0, # of connection points: 2
#     Edge 20, Type (0, 1), BuildingBlock: MIFKUJ_clean_linker_0, # of connection points: 2
#     Edge 21, Type (0, 1), BuildingBlock: MIFKUJ_clean_linker_0, # of connection points: 2
#     Edge 22, Type (0, 1), BuildingBlock: MIFKUJ_clean_linker_0, # of connection points: 2
#     Edge 23, Type (0, 1), BuildingBlock: MIFKUJ_clean_linker_0, # of connection points: 2
#     Edge 24, Type (0, 1), BuildingBlock: MIFKUJ_clean_linker_0, # of connection points: 2
#     Edge 25, Type (0, 1), BuildingBlock: MIFKUJ_clean_linker_0, # of connection points: 2
#     Edge 26, Type (0, 1), BuildingBlock: MIFKUJ_clean_linker_0, # of connection points: 2
#     Edge 27, Type (0, 1), BuildingBlock: MIFKUJ_clean_linker_0, # of connection points: 2
#     Edge 28, Type (0, 1), BuildingBlock: MIFKUJ_clean_linker_0, # of connection points: 2
#     Edge 29, Type (0, 1), BuildingBlock: MIFKUJ_clean_linker_0, # of connection points: 2
#     Edge 30, Type (0, 1), BuildingBlock: MIFKUJ_clean_linker_0, # of connection points: 2
#     Edge 31, Type (0, 1), BuildingBlock: MIFKUJ_clean_linker_0, # of connection points: 2
#     Edge 32, Type (0, 1), BuildingBlock: MIFKUJ_clean_linker_0, # of connection points: 2
#     Edge 33, Type (0, 1), BuildingBlock: MIFKUJ_clean_linker_0, # of connection points: 2
#     Edge 34, Type (0, 1), BuildingBlock: MIFKUJ_clean_linker_0, # of connection points: 2
#     Edge 35, Type (0, 1), BuildingBlock: MIFKUJ_clean_linker_0, # of connection points: 2
# Relax obj value: 0.217
# Max RMSD: 0.170
# Mean RMSD: 0.156
data_MOF--net-zzz--node1-INOVEN_clean_sbu_0--node2-BETDIP_clean_linker_0--edge1-MIFKUJ_clean_linker_0
_symmetry_space_group_name_H-M    P1
_symmetry_Int_Tables_number       1
_symmetry_cell_setting            triclinic
loop_
_symmetry_equiv_pos_as_xyz
'x, y, z'
_cell_length_a     68.564851
_cell_length_b     68.589714
_cell_length_c     17.114241
_cell_angle_alpha  89.820441
_cell_angle_beta   90.093462
_cell_angle_gamma 90.165357
loop_
_atom_site_label
_atom_site_type_symbol
_atom_site_fract_x
_atom_site_fract_y
_atom_site_fract_z
_atom_type_partial_charge
H0 H 0.74939 0.5272 0.39178 0.0
H1 H 0.73846 0.54654 0.15541 0.0
H2 H 0.79681 0.54615 0.24642 0.0
H3 H 0.71126 0.56251 0.2489 0.0
C4 C 0.70696 0.54726 0.25238 0.0
C5 C 0.75466 0.53308 0.33692 0.0
C6 C 0.77481 0.53709 0.32712 0.0
C7 C 0.74129 0.53729 0.27559 0.0
C8 C 0.74842 0.54434 0.20385 0.0
C9 C 0.76837 0.54752 0.19265 0.0
C10 C 0.78124 0.54433 0.25516 0.0
N11 N 0.72082 0.53376 0.28358 0.0
H12 H 1.0023 0.75469 0.33471 0.0
H13 H 0.04443 0.73933 0.15811 0.0
H14 H 0.05278 0.7908 0.2944 0.0
H15 H 0.01037 0.7339 0.10118 0.0
C16 C 1.00878 0.72244 0.1448 0.0
C17 C 0.01602 0.75736 0.30527 0.0
C18 C 0.02714 0.7742 0.32361 0.0
C19 C 0.02242 0.74441 0.24625 0.0
C20 C 0.03975 0.74863 0.20556 0.0
C21 C 0.05079 0.76516 0.22377 0.0
C22 C 0.04468 0.77748 0.28374 0.0
N23 N 0.0112 0.72763 0.22501 0.0
H24 H 0.76535 0.01733 0.34515 0.0
H25 H 0.77733 0.96698 0.20208 0.0
H26 H 0.72316 0.97114 0.32583 0.0
H27 H 0.80979 0.97438 0.27813 0.0
C28 C 0.80976 0.98844 0.24856 0.0
C29 C 0.76122 1.00309 0.32346 0.0
C30 C 0.74282 0.99512 0.34274 0.0
C31 C 0.77425 0.9925 0.27545 0.0
C32 C 0.76816 0.97452 0.24363 0.0
C33 C 0.74981 0.96678 0.26225 0.0
C34 C 0.73763 0.97687 0.31342 0.0
N35 N 0.79286 1.00044 0.25511 0.0
H36 H 0.52828 0.76675 0.37721 0.0
H37 H 0.52689 0.781 0.1313 0.0
H38 H 0.51826 0.72187 0.20629 0.0
H39 H 0.55826 0.80183 0.21339 0.0
C40 C 0.54425 0.80819 0.22819 0.0
C41 C 0.52677 0.76227 0.31688 0.0
C42 C 0.5234 0.74238 0.29879 0.0
C43 C 0.52832 0.7763 0.25595 0.0
C44 C 0.52626 0.77031 0.17805 0.0
C45 C 0.52218 0.75087 0.16038 0.0
C46 C 0.521 0.73705 0.22057 0.0
N47 N 0.5308 0.79657 0.27194 0.0
H48 H 0.26897 0.5108 0.95995 0.0
H49 H 0.28786 0.53286 0.18375 0.0
H50 H 0.22853 0.54019 0.11164 0.0
H51 H 0.31421 0.54339 0.06509 0.0
C52 C 0.3165 0.52785 0.07404 0.0
C53 C 0.26582 0.51837 0.01387 0.0
C54 C 0.24679 0.52579 0.02759 0.0
C55 C 0.28095 0.52156 0.06942 0.0
C56 C 0.27663 0.5311 0.13966 0.0
C57 C 0.25786 0.53789 0.15461 0.0
C58 C 0.24322 0.5354 0.09837 0.0
N59 N 0.3005 0.51515 0.0567 0.0
H60 H 0.02016 0.26414 0.99489 0.0
H61 H 0.99337 0.27934 0.21476 0.0
H62 H 0.99455 0.21971 0.14063 0.0
H63 H 0.98367 0.3073 0.09792 0.0
C64 C 0.99907 0.30959 0.11026 0.0
C65 C 0.01232 0.25992 0.04718 0.0
C66 C 1.00758 0.24009 0.06043 0.0
C67 C 1.00685 0.27429 0.10244 0.0
C68 C 0.99698 0.2686 0.1708 0.0
C69 C 0.99299 0.24895 0.18512 0.0
C70 C 0.99797 0.23494 0.12946 0.0
N71 N 0.01232 0.29422 0.09272 0.0
H72 H 0.25483 1.0087 0.02488 0.0
H73 H 0.24622 0.04538 0.22667 0.0
H74 H 0.29728 0.05247 0.08566 0.0
H75 H 0.23555 0.01152 0.26555 0.0
C76 C 0.22414 0.01249 0.22148 0.0
C77 C 0.25946 0.0207 0.06154 0.0
C78 C 0.27741 0.03025 0.04646 0.0
C79 C 0.24787 0.02632 0.12616 0.0
C80 C 0.25458 0.04129 0.17563 0.0
C81 C 0.2722 0.05088 0.16039 0.0
C82 C 0.28321 0.04559 0.09511 0.0
N83 N 0.22978 0.01674 0.1429 0.0
H84 H 0.49922 0.25712 0.04066 0.0
H85 H 0.52833 0.24237 0.25626 0.0
H86 H 0.53646 0.29904 0.15467 0.0
H87 H 0.53077 0.21136 0.13212 0.0
C88 C 0.51632 0.21137 0.15812 0.0
C89 C 0.50899 0.26109 0.08784 0.0
C90 C 0.51806 0.27971 0.0882 0.0
C91 C 0.51319 0.24733 0.14763 0.0
C92 C 0.5256 0.25264 0.20925 0.0
C93 C 0.53396 0.27123 0.21206 0.0
C94 C 0.53034 0.28447 0.15115 0.0
N95 N 0.50456 0.22838 0.14848 0.0
Gd96 Gd 0.01956 0.9998 0.77734 0.0
Gd97 Gd 1.00127 0.01372 0.61056 0.0
C98 C 1.00956 0.96754 0.64135 0.0
C99 C 0.02418 0.98503 0.91388 0.0
C100 C 0.03651 0.96877 0.94036 0.0
C101 C 0.05596 0.96716 0.91507 0.0
C102 C 0.02804 0.95338 0.98246 0.0
C103 C 0.05764 0.9343 0.96759 0.0
C104 C 0.0385 0.93626 0.9958 0.0
C105 C 0.06648 0.9501 0.9291 0.0
C106 C 0.0478 1.00327 0.66491 0.0
C107 C 0.01156 0.04602 0.74553 0.0
C108 C 0.99621 0.02907 0.47553 0.0
C109 C 0.98437 0.04617 0.45509 0.0
C110 C 0.96697 0.04993 0.4956 0.0
C111 C 0.99205 0.06046 0.40523 0.0
C112 C 0.96617 0.08279 0.44283 0.0
C113 C 0.98302 0.07862 0.39902 0.0
C114 C 0.95794 0.06807 0.48947 0.0
C115 C 0.97321 0.01088 0.72424 0.0
O116 O 0.014 0.97111 0.71562 0.0
O117 O 1.00545 0.98147 0.58977 0.0
O118 O 0.03328 1.00095 0.8911 0.0
O119 O 1.00979 0.97994 0.86745 0.0
O120 O 0.05119 0.99834 0.73694 0.0
O121 O 0.02974 1.00626 0.65906 0.0
O122 O 1.00763 0.04238 0.67094 0.0
O123 O 0.01499 0.03204 0.79774 0.0
O124 O 0.98658 0.01348 0.49857 0.0
O125 O 0.01143 0.03306 0.51932 0.0
O126 O 0.96976 0.01593 0.6525 0.0
O127 O 0.99118 1.00744 0.72912 0.0
H128 H 0.06279 0.97872 0.88158 0.0
H129 H 0.01305 0.95428 0.002 0.0
H130 H 0.03145 0.92434 0.02651 0.0
H131 H 0.08117 0.9489 0.90646 0.0
H132 H 0.96079 0.0392 0.53493 0.0
H133 H 1.00562 0.05796 0.37451 0.0
H134 H 0.98987 0.08974 0.36328 0.0
H135 H 0.94485 0.07077 0.52309 0.0
Gd136 Gd 0.51739 0.01755 0.78698 0.0
Gd137 Gd 0.50394 1.00311 0.61968 0.0
C138 C 0.5506 1.00902 0.65466 0.0
C139 C 0.5291 0.01477 0.92908 0.0
C140 C 0.54536 1.00388 0.96564 0.0
C141 C 0.5645 0.01116 0.96163 0.0
C142 C 0.54209 0.98563 1.00115 0.0
C143 C 0.57687 0.98195 0.02527 0.0
C144 C 0.55772 0.97472 0.03042 0.0
C145 C 0.58004 1.0003 0.99073 0.0
C146 C 0.5079 0.04851 0.69281 0.0
C147 C 0.4712 0.0143 0.74613 0.0
C148 C 0.49426 1.00189 0.47452 0.0
C149 C 0.47853 0.01262 0.4339 0.0
C150 C 0.46142 1.00281 0.41181 0.0
C151 C 0.47918 0.03308 0.42769 0.0
C152 C 0.44489 0.03384 0.39208 0.0
C153 C 0.46251 0.04359 0.40767 0.0
C154 C 0.44478 0.01331 0.3908 0.0
C155 C 0.50843 0.97515 0.7309 0.0
O156 O 0.54672 0.01322 0.72877 0.0
O157 O 0.5367 1.00484 0.60312 0.0
O158 O 0.53399 0.02935 0.88306 0.0
O159 O 0.51466 1.00422 0.90126 0.0
O160 O 0.51362 0.05047 0.76486 0.0
O161 O 0.50713 0.03058 0.67904 0.0
O162 O 0.47574 0.01428 0.6708 0.0
O163 O 0.4848 0.01312 0.80124 0.0
O164 O 0.48845 0.98877 0.5253 0.0
O165 O 0.50887 0.0124 0.50041 0.0
O166 O 0.49578 0.97405 0.67451 0.0
O167 O 0.51901 0.99001 0.72109 0.0
H168 H 0.56761 0.02513 0.93468 0.0
H169 H 0.52749 0.97963 0.0053 0.0
H170 H 0.55482 0.96071 0.05743 0.0
H171 H 0.59465 1.00617 0.98474 0.0
H172 H 0.46058 0.98705 0.4149 0.0
H173 H 0.49224 0.0411 0.44243 0.0
H174 H 0.46322 0.05936 0.40898 0.0
H175 H 0.43161 1.00533 0.37648 0.0
Gd176 Gd 0.49784 0.51545 0.75291 0.0
Gd177 Gd 0.52205 0.50215 0.61438 0.0
C178 C 0.51125 0.54825 0.62745 0.0
C179 C 0.48966 0.53136 0.88409 0.0
C180 C 0.4929 0.55207 0.90254 0.0
C181 C 0.47666 0.56434 0.9099 0.0
C182 C 0.51146 0.56043 0.89177 0.0
C183 C 0.49687 0.59248 0.87922 0.0
C184 C 0.51341 0.58046 0.8801 0.0
C185 C 0.4786 0.58438 0.89789 0.0
C186 C 0.47251 0.50759 0.63365 0.0
C187 C 0.50525 0.46923 0.73083 0.0
C188 C 0.54038 0.4906 0.49248 0.0
C189 C 0.55288 0.47322 0.48708 0.0
C190 C 0.56508 0.46816 0.55014 0.0
C191 C 0.54998 0.4598 0.42656 0.0
C192 C 0.56899 0.43564 0.49782 0.0
C193 C 0.55808 0.44115 0.43167 0.0
C194 C 0.57294 0.44949 0.55572 0.0
C195 C 0.54169 0.50565 0.75148 0.0
O196 O 0.50361 0.54473 0.69691 0.0
O197 O 0.51819 0.53411 0.58291 0.0
O198 O 0.4766 0.52851 0.82956 0.0
O199 O 0.50522 0.52054 0.87472 0.0
O200 O 0.46741 0.51268 0.70342 0.0
O201 O 0.49086 0.5059 0.63172 0.0
O202 O 0.51077 0.47312 0.65833 0.0
O203 O 0.50141 0.48336 0.78106 0.0
O204 O 0.5469 0.5047 0.537 0.0
O205 O 0.52185 0.4868 0.50382 0.0
O206 O 0.54359 0.49119 0.70395 0.0
O207 O 0.52928 0.51748 0.72442 0.0
H208 H 0.4622 0.55825 0.91783 0.0
H209 H 0.5243 0.55141 0.88643 0.0
H210 H 0.52778 0.58642 0.86857 0.0
H211 H 0.46559 0.59329 0.89817 0.0
H212 H 0.56765 0.47821 0.59769 0.0
H213 H 0.54046 0.4633 0.37795 0.0
H214 H 0.55467 0.43061 0.38659 0.0
H215 H 0.58139 0.44559 0.60697 0.0
Gd216 Gd 1.00552 0.49741 0.74733 0.0
Gd217 Gd 0.01514 0.51785 0.59194 0.0
C218 C 0.96978 0.5117 0.631 0.0
C219 C 0.99254 0.48442 0.87909 0.0
C220 C 0.974 0.48525 0.92158 0.0
C221 C 0.9646 0.46778 0.94232 0.0
C222 C 0.9647 0.50311 0.93514 0.0
C223 C 0.93604 0.4859 0.98203 0.0
C224 C 0.94589 0.50342 0.96553 0.0
C225 C 0.94565 0.46808 0.9718 0.0
C226 C 0.01622 0.4739 0.62769 0.0
C227 C 0.05011 0.50942 0.71906 0.0
C228 C 0.02943 0.52243 0.45496 0.0
C229 C 0.04858 0.53065 0.4344 0.0
C230 C 0.05519 0.54796 0.46985 0.0
C231 C 0.06189 0.51888 0.39425 0.0
C232 C 0.08843 0.53994 0.43533 0.0
C233 C 0.08173 0.5234 0.39532 0.0
C234 C 0.07502 0.55264 0.46973 0.0
C235 C 0.01155 0.54581 0.70391 0.0
O236 O 0.97521 0.50654 0.70301 0.0
O237 O 0.98277 0.51509 0.57535 0.0
O238 O 0.99208 0.4743 0.81448 0.0
O239 O 1.00241 0.50073 0.87233 0.0
O240 O 0.02231 0.47177 0.69894 0.0
O241 O 1.00499 0.4884 0.62359 0.0
O242 O 0.04525 0.51266 0.6451 0.0
O243 O 0.03678 0.50521 0.77227 0.0
O244 O 0.01646 0.53446 0.48399 0.0
O245 O 0.03057 0.50592 0.49351 0.0
O246 O 0.0153 0.54938 0.63101 0.0
O247 O 1.00976 0.52762 0.7126 0.0
H248 H 0.97159 0.45386 0.93227 0.0
H249 H 0.97155 0.5168 0.91914 0.0
H250 H 0.93862 0.51734 0.97159 0.0
H251 H 0.93825 0.45443 0.98396 0.0
H252 H 0.04531 0.55717 0.5023 0.0
H253 H 0.05714 0.50538 0.36739 0.0
H254 H 0.09195 0.51353 0.36797 0.0
H255 H 0.08001 0.56545 0.5009 0.0
H256 H 0.21242 1.00023 0.3631 0.0
H257 H 0.17945 0.99781 0.41535 0.0
H258 H 0.15603 0.01746 0.19487 0.0
H259 H 0.18943 0.01992 0.14181 0.0
H260 H 0.13845 0.03601 0.32156 0.0
H261 H 0.14989 0.97073 0.24479 0.0
H262 H 0.16791 0.93987 0.23146 0.0
H263 H 0.16868 0.93298 0.48088 0.0
H264 H 0.15092 0.96395 0.49585 0.0
H265 H 0.04467 0.0135 0.50773 0.0
H266 H 0.07125 0.01461 0.4106 0.0
H267 H 0.11204 0.99611 0.58776 0.0
H268 H 0.08593 0.99519 0.68368 0.0
H269 H 0.11658 0.9754 0.45423 0.0
H270 H 0.10951 0.04351 0.52805 0.0
H271 H 0.09123 0.07427 0.54029 0.0
H272 H 0.0814 0.07515 0.29243 0.0
H273 H 0.09942 0.04424 0.27892 0.0
C274 C 0.20026 1.00386 0.32526 0.0
C275 C 0.20356 0.01009 0.24811 0.0
C276 C 0.18136 1.00244 0.35526 0.0
C277 C 0.1651 1.00724 0.30906 0.0
C278 C 0.16829 0.01359 0.2317 0.0
C279 C 0.18736 0.01488 0.20124 0.0
C280 C 0.14506 1.0058 0.34355 0.0
C281 C 0.13346 0.02262 0.34896 0.0
C282 C 0.13845 0.98841 0.37995 0.0
C283 C 0.14915 0.96975 0.37142 0.0
C284 C 0.15403 0.96271 0.29685 0.0
C285 C 0.16417 0.94518 0.28899 0.0
C286 C 0.16946 0.93448 0.35528 0.0
C287 C 0.16458 0.94128 0.42958 0.0
C288 C 0.15444 0.95881 0.43778 0.0
C289 C 0.05933 1.00983 0.52575 0.0
C290 C 0.06317 1.00438 0.6036 0.0
C291 C 0.07453 0.01044 0.47025 0.0
C292 C 0.09376 1.00546 0.49168 0.0
C293 C 0.09741 0.99994 0.56933 0.0
C294 C 0.0824 0.99949 0.62438 0.0
C295 C 0.11035 1.00576 0.43482 0.0
C296 C 0.12135 0.98867 0.42532 0.0
C297 C 0.11629 0.02285 0.39449 0.0
C298 C 0.10558 0.04146 0.40261 0.0
C299 C 0.1033 0.05018 0.47627 0.0
C300 C 0.09302 0.06766 0.48342 0.0
C301 C 0.0851 0.07662 0.41722 0.0
C302 C 0.0875 0.06817 0.34368 0.0
C303 C 0.09775 0.05068 0.33624 0.0
H304 H 0.07714 0.09015 0.42287 0.0
H305 H 0.17731 0.92091 0.34907 0.0
H306 H 0.53077 0.17485 0.14913 0.0
H307 H 0.52498 0.14715 0.23686 0.0
H308 H 0.48449 0.18167 0.36966 0.0
H309 H 0.48985 0.2094 0.2801 0.0
H310 H 0.51526 0.16235 0.45997 0.0
H311 H 0.466 0.14685 0.27038 0.0
H312 H 0.45283 0.14063 0.13863 0.0
H313 H 0.49254 0.09289 0.11032 0.0
H314 H 0.50615 0.09899 0.24151 0.0
H315 H 0.4929 0.08462 0.71957 0.0
H316 H 0.49023 0.11199 0.62778 0.0
H317 H 0.51605 0.07674 0.44708 0.0
H318 H 0.51796 0.04921 0.53855 0.0
H319 H 0.48998 0.09745 0.38172 0.0
H320 H 0.54185 0.11367 0.55774 0.0
H321 H 0.55755 0.11935 0.68546 0.0
H322 H 0.51673 0.16509 0.73411 0.0
H323 H 0.50064 0.15952 0.60699 0.0
C324 C 0.52032 0.17642 0.1961 0.0
C325 C 0.51063 0.19425 0.20715 0.0
C326 C 0.51703 0.16057 0.2463 0.0
C327 C 0.50425 0.16223 0.30994 0.0
C328 C 0.49436 0.17998 0.32082 0.0
C329 C 0.49733 0.19578 0.26933 0.0
C330 C 0.50226 0.14575 0.36706 0.0
C331 C 0.50937 0.14826 0.44335 0.0
C332 C 0.49528 0.12711 0.34475 0.0
C333 C 0.48723 0.12351 0.26554 0.0
C334 C 0.47207 0.13515 0.23577 0.0
C335 C 0.46449 0.13162 0.16125 0.0
C336 C 0.47188 0.11641 0.11605 0.0
C337 C 0.48685 0.10468 0.14535 0.0
C338 C 0.49449 0.10817 0.21982 0.0
C339 C 0.4978 0.08271 0.65996 0.0
C340 C 0.50535 0.06469 0.63579 0.0
C341 C 0.49644 0.09843 0.60748 0.0
C342 C 0.50326 0.09676 0.53014 0.0
C343 C 0.51059 0.07858 0.50595 0.0
C344 C 0.5116 0.06276 0.55814 0.0
C345 C 0.50312 0.11393 0.47508 0.0
C346 C 0.49572 0.11155 0.39891 0.0
C347 C 0.51025 0.13261 0.49692 0.0
C348 C 0.51991 0.13603 0.57327 0.0
C349 C 0.53614 0.12485 0.59593 0.0
C350 C 0.54512 0.12806 0.66816 0.0
C351 C 0.5381 0.14253 0.71797 0.0
C352 C 0.52213 0.15386 0.69553 0.0
C353 C 0.51308 0.15069 0.62338 0.0
H354 H 0.54507 0.14499 0.77388 0.0
H355 H 0.46598 0.11368 0.0584 0.0
H356 H 0.3293 0.49086 0.11905 0.0
H357 H 0.35794 0.48314 0.20038 0.0
H358 H 0.3714 0.54449 0.21733 0.0
H359 H 0.34357 0.55201 0.13413 0.0
H360 H 0.40365 0.52734 0.20706 0.0
H361 H 0.34666 0.51598 0.36662 0.0
H362 H 0.31523 0.50063 0.40107 0.0
H363 H 0.34217 0.44419 0.3993 0.0
H364 H 0.37372 0.45921 0.36389 0.0
H365 H 0.43354 0.51271 0.64102 0.0
H366 H 0.40962 0.51216 0.53629 0.0
H367 H 0.4547 0.49714 0.37164 0.0
H368 H 0.47911 0.49833 0.47762 0.0
H369 H 0.39508 0.48703 0.44539 0.0
H370 H 0.44176 0.51492 0.18842 0.0
H371 H 0.47144 0.53453 0.16484 0.0
H372 H 0.46233 0.5651 0.38025 0.0
H373 H 0.43246 0.54588 0.40446 0.0
C374 C 0.33851 0.50262 0.13965 0.0
C375 C 0.33411 0.52207 0.12024 0.0
C376 C 0.35487 0.49824 0.18666 0.0
C377 C 0.36693 0.51323 0.21651 0.0
C378 C 0.3626 0.53255 0.19537 0.0
C379 C 0.34654 0.53687 0.14788 0.0
C380 C 0.38359 0.50924 0.27187 0.0
C381 C 0.40175 0.51837 0.2588 0.0
C382 C 0.38137 0.49773 0.34031 0.0
C383 C 0.36246 0.48869 0.36168 0.0
C384 C 0.34583 0.50029 0.37307 0.0
C385 C 0.32801 0.49165 0.39283 0.0
C386 C 0.32669 0.47144 0.40212 0.0
C387 C 0.3432 0.45983 0.3919 0.0
C388 C 0.36106 0.4684 0.372 0.0
C389 C 0.43846 0.5092 0.58264 0.0
C390 C 0.45832 0.50562 0.56788 0.0
C391 C 0.42465 0.5088 0.52247 0.0
C392 C 0.43014 0.50474 0.4452 0.0
C393 C 0.44997 0.50061 0.43029 0.0
C394 C 0.46395 0.50116 0.49097 0.0
C395 C 0.41496 0.50551 0.38155 0.0
C396 C 0.39709 0.49572 0.39295 0.0
C397 C 0.41723 0.51698 0.31303 0.0
C398 C 0.43504 0.52876 0.2987 0.0
C399 C 0.44608 0.52585 0.23063 0.0
C400 C 0.46293 0.53691 0.21715 0.0
C401 C 0.46881 0.55099 0.27119 0.0
C402 C 0.4578 0.55413 0.3386 0.0
C403 C 0.44092 0.54316 0.35224 0.0
H404 H 0.48187 0.55951 0.26072 0.0
H405 H 0.31288 0.46478 0.41744 0.0
H406 H 0.03224 0.31694 0.19806 0.0
H407 H 0.03876 0.34578 0.27948 0.0
H408 H 0.98503 0.37171 0.20005 0.0
H409 H 0.97834 0.34289 0.12019 0.0
H410 H 0.01662 0.39868 0.20699 0.0
H411 H 0.98516 0.34968 0.36837 0.0
H412 H 0.98215 0.31704 0.42805 0.0
H413 H 0.03768 0.32445 0.54068 0.0
H414 H 0.04114 0.35705 0.48062 0.0
H415 H 0.99518 0.47042 0.49225 0.0
H416 H 0.99563 0.44349 0.39894 0.0
H417 H 0.04156 0.41583 0.53125 0.0
H418 H 0.04048 0.44238 0.62652 0.0
H419 H 0.01723 0.38947 0.49454 0.0
H420 H 0.04835 0.43912 0.34477 0.0
H421 H 0.05261 0.47158 0.28483 0.0
H422 H 1.00058 0.46314 0.14898 0.0
H423 H 0.99581 0.43075 0.2091 0.0
C424 C 0.02201 0.32894 0.19704 0.0
C425 C 1.00479 0.3277 0.1525 0.0
C426 C 0.02569 0.34538 0.24387 0.0
C427 C 0.01235 0.36095 0.2462 0.0
C428 C 0.99558 0.35998 0.19918 0.0
C429 C 0.99176 0.34348 0.1536 0.0
C430 C 0.0151 0.37776 0.30066 0.0
C431 C 0.01666 0.39672 0.2699 0.0
C432 C 0.01566 0.37521 0.38276 0.0
C433 C 0.01352 0.35569 0.41926 0.0
C434 C 0.9968 0.34428 0.40531 0.0
C435 C 0.995 0.3258 0.4393 0.0
C436 C 1.00974 0.31865 0.48793 0.0
C437 C 0.02629 0.32999 0.50286 0.0
C438 C 0.02818 0.34847 0.46888 0.0
C439 C 1.00551 0.45869 0.501 0.0
C440 C 0.01781 0.45855 0.56681 0.0
C441 C 1.00584 0.44328 0.44723 0.0
C442 C 0.01882 0.42755 0.45687 0.0
C443 C 0.03137 0.42766 0.52204 0.0
C444 C 0.03083 0.44292 0.57641 0.0
C445 C 0.01868 0.41064 0.40124 0.0
C446 C 0.0175 0.39158 0.43171 0.0
C447 C 0.01875 0.41312 0.31881 0.0
C448 C 0.02163 0.43255 0.28201 0.0
C449 C 0.03773 0.44424 0.30254 0.0
C450 C 0.04025 0.46263 0.2685 0.0
C451 C 0.02685 0.46944 0.21329 0.0
C452 C 0.01093 0.45785 0.19185 0.0
C453 C 1.00832 0.43947 0.22585 0.0
H454 H 0.02882 0.48368 0.187 0.0
H455 H 1.00832 0.30435 0.51421 0.0
H456 H 0.81373 0.01653 0.13307 0.0
H457 H 0.84259 0.02259 0.05094 0.0
H458 H 0.87454 0.97907 0.1801 0.0
H459 H 0.84572 0.97269 0.2608 0.0
H460 H 0.89692 0.01396 0.14495 0.0
H461 H 0.85607 0.96577 0.01713 0.0
H462 H 0.82515 0.95369 0.96123 0.0
H463 H 0.82433 1.00163 0.79931 0.0
H464 H 0.85512 0.01416 0.85509 0.0
H465 H 0.97507 0.99539 0.87426 0.0
H466 H 0.94845 0.99352 0.97026 0.0
H467 H 0.91076 0.02444 0.81045 0.0
H468 H 0.93685 0.02554 0.71445 0.0
H469 H 0.89121 0.99652 0.86488 0.0
H470 H 0.93147 0.04502 0.98387 0.0
H471 H 0.9614 0.05938 0.0396 0.0
H472 H 0.96272 0.01475 0.21602 0.0
H473 H 0.93295 0.99992 0.16057 0.0
C474 C 0.827 1.00848 0.14461 0.0
C475 C 0.82748 0.99413 0.20346 0.0
C476 C 0.84347 0.01191 0.09755 0.0
C477 C 0.86078 1.00126 0.1092 0.0
C478 C 0.86145 0.98753 0.17009 0.0
C479 C 0.84494 0.98387 0.21604 0.0
C480 C 0.87774 1.00335 0.05491 0.0
C481 C 0.89576 0.01002 0.08378 0.0
C482 C 0.87618 0.99861 0.97476 0.0
C483 C 0.85777 0.99101 0.94083 0.0
C484 C 0.84921 0.97382 0.97004 0.0
C485 C 0.83172 0.96688 0.93831 0.0
C486 C 0.82275 0.97692 0.87691 0.0
C487 C 0.83128 0.99389 0.84696 0.0
C488 C 0.84875 1.00091 0.87858 0.0
C489 C 0.96113 1.0018 0.86002 0.0
C490 C 0.95807 0.01046 0.78651 0.0
C491 C 0.94589 1.00087 0.91512 0.0
C492 C 0.92742 1.00892 0.89826 0.0
C493 C 0.92467 0.01794 0.82529 0.0
C494 C 0.9397 0.01862 0.77029 0.0
C495 C 0.91061 1.00739 0.95421 0.0
C496 C 0.89252 1.00066 0.9258 0.0
C497 C 0.91209 0.01244 0.03439 0.0
C498 C 0.93009 0.02122 0.06748 0.0
C499 C 0.93824 0.03815 0.03408 0.0
C500 C 0.95516 0.0464 0.0657 0.0
C501 C 0.96398 0.03795 0.13117 0.0
C502 C 0.95589 0.02125 0.16521 0.0
C503 C 0.93899 0.01292 0.13372 0.0
H504 H 0.97706 0.04438 0.15565 0.0
H505 H 0.80922 0.97152 0.85241 0.0
H506 H 0.56947 0.83491 0.1703 0.0
H507 H 0.56229 0.865 0.0985 0.0
H508 H 0.50072 0.85473 0.12918 0.0
H509 H 0.50791 0.82466 0.20266 0.0
H510 H 0.51188 0.86232 0.97239 0.0
H511 H 0.52252 0.8908 0.22653 0.0
H512 H 0.54074 0.8981 0.34733 0.0
H513 H 0.58687 0.9239 0.2123 0.0
H514 H 0.56921 0.91621 0.09079 0.0
H515 H 0.48196 0.94843 0.78209 0.0
H516 H 0.48665 0.92223 0.87715 0.0
H517 H 0.54658 0.94014 0.90838 0.0
H518 H 0.54136 0.96731 0.81717 0.0
H519 H 0.53542 0.92867 0.03862 0.0
H520 H 0.52987 0.89841 0.78925 0.0
H521 H 0.51522 0.89056 0.66141 0.0
H522 H 0.46468 0.86695 0.7759 0.0
H523 H 0.47893 0.87488 0.90445 0.0
C524 C 0.55439 0.83926 0.16306 0.0
C525 C 0.53928 0.82747 0.19275 0.0
C526 C 0.5503 0.8565 0.12199 0.0
C527 C 0.53095 0.86229 0.10856 0.0
C528 C 0.51578 0.85066 0.13903 0.0
C529 C 0.51989 0.83352 0.18142 0.0
C530 C 0.52669 0.87972 0.05838 0.0
C531 C 0.51672 0.8769 0.98757 0.0
C532 C 0.53378 0.89865 0.0761 0.0
C533 C 0.54459 0.90279 0.14942 0.0
C534 C 0.53666 0.89779 0.22254 0.0
C535 C 0.5469 0.90201 0.29121 0.0
C536 C 0.565 0.91139 0.28756 0.0
C537 C 0.57291 0.91656 0.2152 0.0
C538 C 0.56279 0.91227 0.14641 0.0
C539 C 0.49611 0.94683 0.80958 0.0
C540 C 0.51135 0.95979 0.79139 0.0
C541 C 0.49888 0.93167 0.86359 0.0
C542 C 0.5172 0.92855 0.89873 0.0
C543 C 0.53232 0.94193 0.8821 0.0
C544 C 0.52937 0.95747 0.8296 0.0
C545 C 0.52059 0.91135 0.95203 0.0
C546 C 0.53047 0.91415 0.0233 0.0
C547 C 0.514 0.89223 0.93359 0.0
C548 C 0.50538 0.88743 0.85642 0.0
C549 C 0.51557 0.89166 0.78713 0.0
C550 C 0.50735 0.88718 0.71456 0.0
C551 C 0.489 0.87831 0.71053 0.0
C552 C 0.47887 0.87385 0.7791 0.0
C553 C 0.48702 0.87832 0.85184 0.0
H554 H 0.48266 0.87485 0.65429 0.0
H555 H 0.57287 0.91469 0.34079 0.0
H556 H 0.69139 0.51029 0.22592 0.0
H557 H 0.66166 0.50234 0.15161 0.0
H558 H 0.65123 0.56363 0.11348 0.0
H559 H 0.68049 0.57152 0.18854 0.0
H560 H 0.6177 0.54672 0.13919 0.0
H561 H 0.67239 0.53339 0.97224 0.0
H562 H 0.70348 0.51794 0.93545 0.0
H563 H 0.67698 0.46134 0.95499 0.0
H564 H 0.64579 0.47646 0.99299 0.0
H565 H 0.5533 0.54124 0.80947 0.0
H566 H 0.57992 0.54768 0.9019 0.0
H567 H 0.58959 0.48581 0.92642 0.0
H568 H 0.56357 0.47948 0.83184 0.0
H569 H 0.62285 0.50221 0.9125 0.0
H570 H 0.56701 0.51664 0.07351 0.0
H571 H 0.53592 0.53323 0.10133 0.0
H572 H 0.56458 0.58886 0.08712 0.0
H573 H 0.59581 0.57261 0.05824 0.0
C574 C 0.68261 0.52203 0.2024 0.0
C575 C 0.68833 0.54155 0.21307 0.0
C576 C 0.66565 0.5175 0.15941 0.0
C577 C 0.65416 0.53237 0.12563 0.0
C578 C 0.65966 0.55183 0.1386 0.0
C579 C 0.67649 0.55633 0.18148 0.0
C580 C 0.63687 0.5279 0.07442 0.0
C581 C 0.61889 0.53704 0.08942 0.0
C582 C 0.63814 0.51515 0.00954 0.0
C583 C 0.65683 0.50604 0.98632 0.0
C584 C 0.67324 0.51765 0.96924 0.0
C585 C 0.69087 0.50895 0.9481 0.0
C586 C 0.69222 0.48867 0.94312 0.0
C587 C 0.67592 0.47704 0.95904 0.0
C588 C 0.65826 0.48567 0.98035 0.0
C589 C 0.56089 0.52904 0.83579 0.0
C590 C 0.5562 0.50985 0.814 0.0
C591 C 0.57616 0.53271 0.8888 0.0
C592 C 0.5868 0.51724 0.92264 0.0
C593 C 0.58177 0.49806 0.90158 0.0
C594 C 0.56678 0.49443 0.84775 0.0
C595 C 0.60359 0.52089 0.97746 0.0
C596 C 0.62154 0.51168 0.96286 0.0
C597 C 0.60229 0.53366 0.04236 0.0
C598 C 0.58372 0.54341 0.06315 0.0
C599 C 0.56667 0.53241 0.0762 0.0
C600 C 0.54902 0.54176 0.09203 0.0
C601 C 0.54826 0.56209 0.0956 0.0
C602 C 0.56519 0.57312 0.08404 0.0
C603 C 0.58288 0.56384 0.06815 0.0
H604 H 0.53457 0.5693 0.10771 0.0
H605 H 0.70588 0.48197 0.92674 0.0
H606 H 1.00783 0.68735 0.22793 0.0
H607 H 1.00522 0.65426 0.17279 0.0
H608 H 1.00212 0.67888 0.94081 0.0
H609 H 1.00434 0.71155 0.99535 0.0
H610 H 0.97648 0.65107 0.95222 0.0
H611 H 0.04479 0.658 0.02255 0.0
H612 H 0.07218 0.66305 0.11401 0.0
H613 H 0.05425 0.61287 0.24659 0.0
H614 H 0.0266 0.60768 0.15637 0.0
H615 H 0.01102 0.58465 0.67818 0.0
H616 H 1.00717 0.61097 0.77187 0.0
H617 H 1.00262 0.56907 0.95931 0.0
H618 H 1.00641 0.54229 0.86431 0.0
H619 H 0.02775 0.60125 0.99411 0.0
H620 H 0.96247 0.59167 0.90395 0.0
H621 H 0.93587 0.58746 0.80821 0.0
H622 H 0.94885 0.64349 0.70848 0.0
H623 H 0.97575 0.64793 0.8025 0.0
C624 C 1.00642 0.68563 0.16531 0.0
C625 C 1.00623 0.70208 0.11594 0.0
C626 C 1.00506 0.6667 0.13369 0.0
C627 C 1.0036 0.66392 0.05222 0.0
C628 C 1.00314 0.68046 0.00367 0.0
C629 C 1.00445 0.6992 0.035 0.0
C630 C 1.00267 0.64406 0.01572 0.0
C631 C 0.98775 0.64022 0.96143 0.0
C632 C 0.01693 0.62947 0.0292 0.0
C633 C 0.0335 0.63261 0.0834 0.0
C634 C 0.0466 0.64815 0.07161 0.0
C635 C 0.06218 0.65102 0.12313 0.0
C636 C 0.06491 0.63834 0.18624 0.0
C637 C 0.05209 0.62272 0.19781 0.0
C638 C 0.03646 0.6198 0.14651 0.0
C639 C 1.00913 0.58093 0.73926 0.0
C640 C 1.00895 0.56133 0.76365 0.0
C641 C 1.00687 0.59606 0.7929 0.0
C642 C 1.00438 0.59211 0.87278 0.0
C643 C 1.00443 0.57252 0.89795 0.0
C644 C 1.00654 0.55723 0.8437 0.0
C645 C 1.00201 0.60872 0.92846 0.0
C646 C 0.01626 0.61193 0.98622 0.0
C647 C 0.98723 0.62288 0.91771 0.0
C648 C 0.9712 0.6201 0.86025 0.0
C649 C 0.95977 0.60302 0.86119 0.0
C650 C 0.94461 0.60061 0.8073 0.0
C651 C 0.94066 0.61521 0.75245 0.0
C652 C 0.95191 0.63221 0.7511 0.0
C653 C 0.9671 0.63469 0.80471 0.0
H654 H 0.92885 0.61341 0.71108 0.0
H655 H 0.07698 0.64057 0.22605 0.0
H656 H 0.01025 0.22481 0.28717 0.0
H657 H 0.99412 0.20536 0.38596 0.0
H658 H 0.94124 0.23861 0.35326 0.0
H659 H 0.95749 0.25767 0.24999 0.0
H660 H 0.97545 0.20357 0.51224 0.0
H661 H 0.90436 0.2079 0.35765 0.0
H662 H 0.88922 0.22039 0.23629 0.0
H663 H 0.94157 0.20759 0.10898 0.0
H664 H 0.95689 0.19493 0.22954 0.0
H665 H 0.95341 0.10346 0.56977 0.0
H666 H 0.94515 0.13815 0.57418 0.0
H667 H 0.95408 0.14221 0.3249 0.0
H668 H 0.96132 0.10759 0.31974 0.0
H669 H 0.92661 0.16565 0.36207 0.0
H670 H 0.98975 0.14808 0.469 0.0
H671 H 0.01413 0.13525 0.56158 0.0
H672 H 0.9914 0.17209 0.74184 0.0
H673 H 0.96617 0.18431 0.65174 0.0
C674 C 0.99536 0.22836 0.30283 0.0
C675 C 0.98489 0.24226 0.26011 0.0
C676 C 0.98612 0.21734 0.35997 0.0
C677 C 0.96621 0.2201 0.37582 0.0
C678 C 0.95646 0.2359 0.34071 0.0
C679 C 0.96574 0.24685 0.28219 0.0
C680 C 0.95561 0.20387 0.41491 0.0
C681 C 0.96429 0.19543 0.48113 0.0
C682 C 0.94091 0.19333 0.37482 0.0
C683 C 0.93175 0.2007 0.30236 0.0
C684 C 0.91257 0.20775 0.30364 0.0
C685 C 0.90398 0.21485 0.23509 0.0
C686 C 0.91445 0.21483 0.16502 0.0
C687 C 0.93349 0.20762 0.16326 0.0
C688 C 0.94211 0.20046 0.23158 0.0
C689 C 0.95296 0.11165 0.51557 0.0
C690 C 0.95826 0.10288 0.44437 0.0
C691 C 0.94835 0.1315 0.51835 0.0
C692 C 0.94923 0.14287 0.45014 0.0
C693 C 0.95325 0.13378 0.37845 0.0
C694 C 0.95765 0.11401 0.37556 0.0
C695 C 0.94848 0.16447 0.45248 0.0
C696 C 0.93699 0.17402 0.39629 0.0
C697 C 0.96177 0.17556 0.49797 0.0
C698 C 0.97566 0.16668 0.55422 0.0
C699 C 0.98954 0.15299 0.52908 0.0
C700 C 1.00355 0.14584 0.58113 0.0
C701 C 1.0042 0.15269 0.65785 0.0
C702 C 0.99071 0.16655 0.68288 0.0
C703 C 0.97643 0.17345 0.63156 0.0
H704 H 0.01529 0.14742 0.69753 0.0
H705 H 0.90778 0.22037 0.11208 0.0
H706 H 0.28183 0.04144 0.30839 0.0
H707 H 0.30854 0.05584 0.38089 0.0
H708 H 0.31051 0.10389 0.21717 0.0
H709 H 0.28446 0.08852 0.14133 0.0
H710 H 0.34136 0.08704 0.20629 0.0
H711 H 0.31176 0.1101 0.43045 0.0
H712 H 0.28936 0.1125 0.54239 0.0
H713 H 0.31427 0.06088 0.64338 0.0
H714 H 0.33658 0.0579 0.53153 0.0
H715 H 0.43903 0.06913 0.31835 0.0
H716 H 0.40852 0.08731 0.30757 0.0
H717 H 0.37854 0.04162 0.43363 0.0
H718 H 0.40904 0.02408 0.4491 0.0
H719 H 0.36436 0.07531 0.47624 0.0
H720 H 0.37919 0.04439 0.22604 0.0
H721 H 0.39801 0.03812 0.10591 0.0
H722 H 0.39708 0.09917 0.0499 0.0
H723 H 0.3783 0.10578 0.16993 0.0
C724 C 0.28727 0.05559 0.29026 0.0
C725 C 0.28137 0.06375 0.21891 0.0
C726 C 0.30256 0.06401 0.33228 0.0
C727 C 0.3119 0.08095 0.30434 0.0
C728 C 0.30377 0.09072 0.23963 0.0
C729 C 0.28883 0.08199 0.19634 0.0
C730 C 0.33262 0.08451 0.3267 0.0
C731 C 0.34628 0.0849 0.26564 0.0
C732 C 0.33937 0.08222 0.4044 0.0
C733 C 0.32595 0.08383 0.47229 0.0
C734 C 0.31241 0.09918 0.47623 0.0
C735 C 0.29972 0.10065 0.53978 0.0
C736 C 0.30041 0.08687 0.59999 0.0
C737 C 0.31379 0.07158 0.59678 0.0
C738 C 0.32651 0.07003 0.53336 0.0
C739 C 0.42599 0.06309 0.34474 0.0
C740 C 0.42644 0.04494 0.3834 0.0
C741 C 0.40854 0.07347 0.33823 0.0
C742 C 0.39118 0.06575 0.36911 0.0
C743 C 0.39173 0.04792 0.40945 0.0
C744 C 0.40915 0.03769 0.41684 0.0
C745 C 0.37205 0.0751 0.35433 0.0
C746 C 0.35913 0.07771 0.41716 0.0
C747 C 0.36566 0.07941 0.27772 0.0
C748 C 0.37774 0.07563 0.20766 0.0
C749 C 0.38327 0.0565 0.18866 0.0
C750 C 0.39385 0.05287 0.12048 0.0
C751 C 0.39887 0.06826 0.07065 0.0
C752 C 0.39331 0.08729 0.08886 0.0
C753 C 0.3827 0.09099 0.15692 0.0
H754 H 0.40697 0.06541 0.01768 0.0
H755 H 0.29056 0.08803 0.64912 0.0
H756 H 0.56867 0.29059 0.21501 0.0
H757 H 0.58171 0.30937 0.32344 0.0
H758 H 0.53728 0.28572 0.47537 0.0
H759 H 0.52379 0.26727 0.36554 0.0
H760 H 0.53408 0.32286 0.46914 0.0
H761 H 0.58673 0.28303 0.52988 0.0
H762 H 0.61442 0.26073 0.5108 0.0
H763 H 0.64626 0.306 0.39261 0.0
H764 H 0.61868 0.32851 0.40975 0.0
H765 H 0.56071 0.41357 0.62577 0.0
H766 H 0.56221 0.37797 0.63563 0.0
H767 H 0.58932 0.37552 0.40857 0.0
H768 H 0.58765 0.41107 0.39813 0.0
H769 H 0.6019 0.34516 0.51758 0.0
H770 H 0.54285 0.37805 0.41703 0.0
H771 H 0.5147 0.39997 0.43286 0.0
H772 H 0.4945 0.36559 0.62686 0.0
H773 H 0.52271 0.34366 0.61243 0.0
C774 C 0.56207 0.28892 0.27213 0.0
C775 C 0.54502 0.27782 0.28159 0.0
C776 C 0.5697 0.29946 0.33463 0.0
C777 C 0.56049 0.299 0.40793 0.0
C778 C 0.54465 0.28628 0.41944 0.0
C779 C 0.53697 0.27572 0.35668 0.0
C780 C 0.56451 0.31498 0.46396 0.0
C781 C 0.5489 0.32731 0.48265 0.0
C782 C 0.58379 0.3209 0.48198 0.0
C783 C 0.60057 0.3075 0.47128 0.0
C784 C 0.59959 0.28823 0.49943 0.0
C785 C 0.61528 0.27554 0.48899 0.0
C786 C 0.63209 0.28195 0.45057 0.0
C787 C 0.63324 0.30107 0.42254 0.0
C788 C 0.61759 0.31382 0.43282 0.0
C789 C 0.56765 0.40546 0.5793 0.0
C790 C 0.57392 0.41495 0.51076 0.0
C791 C 0.56853 0.38516 0.58518 0.0
C792 C 0.57582 0.37419 0.52277 0.0
C793 C 0.58377 0.38379 0.45757 0.0
C794 C 0.58265 0.40404 0.45122 0.0
C795 C 0.5716 0.35313 0.51672 0.0
C796 C 0.58711 0.34006 0.50772 0.0
C797 C 0.55221 0.34642 0.50758 0.0
C798 C 0.53516 0.35953 0.51521 0.0
C799 C 0.53254 0.37532 0.46368 0.0
C800 C 0.51654 0.38771 0.47214 0.0
C801 C 0.50286 0.38423 0.53105 0.0
C802 C 0.50514 0.36832 0.58141 0.0
C803 C 0.52117 0.35596 0.57334 0.0
H804 H 0.49047 0.39384 0.53753 0.0
H805 H 0.64422 0.2721 0.44251 0.0
H806 H 0.23851 0.5714 0.18816 0.0
H807 H 0.2184 0.57618 0.30342 0.0
H808 H 0.24437 0.52557 0.41141 0.0
H809 H 0.26442 0.52066 0.29538 0.0
H810 H 0.20781 0.51938 0.36305 0.0
H811 H 0.23819 0.56644 0.52149 0.0
H812 H 0.25632 0.59638 0.55448 0.0
H813 H 0.20971 0.63126 0.46237 0.0
H814 H 0.1914 0.60157 0.42763 0.0
H815 H 0.11314 0.51598 0.51198 0.0
H816 H 0.14869 0.51886 0.52114 0.0
H817 H 0.14638 0.57299 0.39193 0.0
H818 H 0.11068 0.57047 0.38581 0.0
H819 H 0.17531 0.57417 0.49819 0.0
H820 H 0.15318 0.53004 0.29678 0.0
H821 H 0.13583 0.50167 0.24172 0.0
H822 H 0.1678 0.46341 0.39385 0.0
H823 H 0.18522 0.49163 0.45034 0.0
C824 C 0.24064 0.56192 0.2382 0.0
C825 C 0.2525 0.54536 0.23239 0.0
C826 C 0.22929 0.56477 0.30461 0.0
C827 C 0.22964 0.551 0.36551 0.0
C828 C 0.24386 0.53631 0.36491 0.0
C829 C 0.25527 0.53348 0.29844 0.0
C830 C 0.21159 0.54817 0.41131 0.0
C831 C 0.20102 0.53107 0.39579 0.0
C832 C 0.20248 0.56368 0.45121 0.0
C833 C 0.2134 0.5817 0.4719 0.0
C834 C 0.23183 0.58048 0.50777 0.0
C835 C 0.24215 0.59742 0.52688 0.0
C836 C 0.23417 0.61571 0.51055 0.0
C837 C 0.21585 0.61709 0.47513 0.0
C838 C 0.20548 0.60019 0.45589 0.0
C839 C 0.1203 0.5286 0.48664 0.0
C840 C 0.10946 0.54284 0.44688 0.0
C841 C 0.14051 0.53026 0.49196 0.0
C842 C 0.15016 0.54594 0.45588 0.0
C843 C 0.13919 0.56077 0.42009 0.0
C844 C 0.1189 0.55929 0.41609 0.0
C845 C 0.1716 0.54574 0.44706 0.0
C846 C 0.18253 0.56219 0.46915 0.0
C847 C 0.18106 0.52987 0.41089 0.0
C848 C 0.17024 0.51294 0.37866 0.0
C849 C 0.15634 0.51559 0.3191 0.0
C850 C 0.14653 0.49955 0.28751 0.0
C851 C 0.15065 0.48076 0.31453 0.0
C852 C 0.16458 0.47798 0.37318 0.0
C853 C 0.17442 0.49399 0.40503 0.0
H854 H 0.1431 0.46834 0.28978 0.0
H855 H 0.24218 0.62881 0.52537 0.0
H856 H 0.08928 0.77279 0.25501 0.0
H857 H 0.10911 0.7967 0.18358 0.0
H858 H 0.06428 0.80018 0.00635 0.0
H859 H 0.0456 0.7753 0.07374 0.0
H860 H 0.09458 0.81291 0.94452 0.0
H861 H 0.06466 0.82493 0.20648 0.0
H862 H 0.06273 0.82213 0.35017 0.0
H863 H 0.12277 0.8393 0.36985 0.0
H864 H 0.12494 0.84252 0.22631 0.0
H865 H 0.04313 0.89867 0.9314 0.0
H866 H 0.05872 0.86707 0.94928 0.0
H867 H 0.11078 0.89544 0.03427 0.0
H868 H 0.09502 0.92736 0.01724 0.0
H869 H 0.096 0.86748 0.13378 0.0
H870 H 0.11446 0.87047 0.86889 0.0
H871 H 0.11048 0.87702 0.72809 0.0
H872 H 0.0663 0.8327 0.71378 0.0
H873 H 0.06959 0.82621 0.85472 0.0
C874 C 0.08436 0.77788 0.19835 0.0
C875 C 0.06588 0.7725 0.16999 0.0
C876 C 0.09553 0.79173 0.15804 0.0
C877 C 0.08777 0.80104 0.09161 0.0
C878 C 0.07061 0.79352 0.05793 0.0
C879 C 0.05984 0.77921 0.09653 0.0
C880 C 0.09452 0.82071 0.06635 0.0
C881 C 0.09511 0.82486 0.98586 0.0
C882 C 0.09615 0.83638 0.12013 0.0
C883 C 0.09501 0.83375 0.2059 0.0
C884 C 0.07741 0.82812 0.24157 0.0
C885 C 0.07629 0.82644 0.32287 0.0
C886 C 0.09263 0.83041 0.36904 0.0
C887 C 0.11014 0.83615 0.334 0.0
C888 C 0.11132 0.83792 0.25272 0.0
C889 C 0.05794 0.89819 0.95336 0.0
C890 C 0.0678 0.91538 0.97394 0.0
C891 C 0.06696 0.88016 0.9622 0.0
C892 C 0.08604 0.87895 0.99148 0.0
C893 C 0.09615 0.89613 0.01041 0.0
C894 C 0.08714 0.91427 1.00095 0.0
C895 C 0.09387 0.85958 0.01257 0.0
C896 C 0.09637 0.85557 0.09217 0.0
C897 C 0.09428 0.84413 0.9581 0.0
C898 C 0.09235 0.8478 0.87271 0.0
C899 C 0.10381 0.86218 0.83589 0.0
C900 C 0.10165 0.86591 0.75598 0.0
C901 C 0.08813 0.8553 0.71202 0.0
C902 C 0.07677 0.84091 0.74787 0.0
C903 C 0.07881 0.83718 0.82781 0.0
H904 H 0.08647 0.85821 0.65018 0.0
H905 H 0.09171 0.8291 0.43198 0.0
H906 H 0.73703 0.93182 0.31843 0.0
H907 H 0.70766 0.91602 0.26813 0.0
H908 H 0.71103 0.95176 0.06046 0.0
H909 H 0.74068 0.96676 0.10925 0.0
H910 H 0.67964 0.93995 0.2688 0.0
H911 H 0.67865 0.94206 0.92631 0.0
H912 H 0.6983 0.92962 0.81702 0.0
H913 H 0.72133 0.88451 0.96479 0.0
H914 H 0.70159 0.89646 0.07485 0.0
H915 H 0.60791 0.99565 0.10772 0.0
H916 H 0.63722 0.9782 0.14509 0.0
H917 H 0.61319 0.92487 0.05215 0.0
H918 H 0.58399 0.94275 0.00948 0.0
H919 H 0.65072 0.93055 0.00584 0.0
H920 H 0.62053 0.92658 0.26247 0.0
H921 H 0.60063 0.94051 0.36875 0.0
H922 H 0.64052 0.98863 0.38799 0.0
H923 H 0.66077 0.97479 0.28305 0.0
C924 C 0.73229 0.93515 0.25945 0.0
C925 C 0.74088 0.95064 0.21798 0.0
C926 C 0.71536 0.92627 0.23098 0.0
C927 C 0.70677 0.93298 0.16129 0.0
C928 C 0.71728 0.94612 0.11406 0.0
C929 C 0.73439 0.95474 0.14197 0.0
C930 C 0.68534 0.93113 0.14974 0.0
C931 C 0.67335 0.93722 0.21164 0.0
C932 C 0.67686 0.92764 0.07551 0.0
C933 C 0.68859 0.92018 0.00907 0.0
C934 C 0.68775 0.92937 0.93546 0.0
C935 C 0.69895 0.92243 0.87335 0.0
C936 C 0.71106 0.90629 0.88395 0.0
C937 C 0.71197 0.89703 0.9567 0.0
C938 C 0.70079 0.9039 0.01903 0.0
C939 C 0.60879 0.98021 0.09513 0.0
C940 C 0.59366 0.9706 0.05538 0.0
C941 C 0.62546 0.97015 0.11772 0.0
C942 C 0.62724 0.95011 0.1031 0.0
C943 C 0.61202 0.94029 0.06473 0.0
C944 C 0.59531 0.95046 0.04111 0.0
C945 C 0.64574 0.94019 0.12364 0.0
C946 C 0.65705 0.93215 0.06358 0.0
C947 C 0.65372 0.94178 0.19946 0.0
C948 C 0.64216 0.9496 0.26539 0.0
C949 C 0.62507 0.94007 0.28987 0.0
C950 C 0.61378 0.94791 0.35003 0.0
C951 C 0.6194 0.96536 0.38567 0.0
C952 C 0.63634 0.97497 0.36133 0.0
C953 C 0.64779 0.96706 0.30191 0.0
H954 H 0.61059 0.97149 0.43188 0.0
H955 H 0.71973 0.90095 0.8358 0.0
H956 H 0.54538 0.75619 0.03187 0.0
H957 H 0.54174 0.73974 0.90514 0.0
H958 H 0.48731 0.71466 0.98428 0.0
H959 H 0.49069 0.73136 0.10786 0.0
H960 H 0.54379 0.70275 0.895 0.0
H961 H 0.45756 0.70023 0.85809 0.0
H962 H 0.43087 0.72393 0.84577 0.0
H963 H 0.4718 0.76862 0.78139 0.0
H964 H 0.49878 0.74513 0.79165 0.0
H965 H 0.47871 0.62364 0.9451 0.0
H966 H 0.48315 0.65794 0.91332 0.0
H967 H 0.52339 0.64279 0.72983 0.0
H968 H 0.51862 0.60814 0.76013 0.0
H969 H 0.48028 0.68277 0.78149 0.0
H970 H 0.55886 0.67439 0.74492 0.0
H971 H 0.58542 0.65044 0.76174 0.0
H972 H 0.55924 0.63006 0.97485 0.0
H973 H 0.53264 0.654 0.95929 0.0
C974 C 0.53233 0.74773 0.02037 0.0
C975 C 0.51843 0.74469 0.0794 0.0
C976 C 0.53025 0.73837 0.94821 0.0
C977 C 0.51417 0.72607 0.9345 0.0
C978 C 0.4996 0.72443 0.99186 0.0
C979 C 0.50167 0.73372 0.06329 0.0
C980 C 0.51423 0.71166 0.87017 0.0
C981 C 0.53017 0.69889 0.86659 0.0
C982 C 0.49665 0.70663 0.8316 0.0
C983 C 0.48029 0.7208 0.82534 0.0
C984 C 0.46093 0.71502 0.84037 0.0
C985 C 0.44572 0.72846 0.83399 0.0
C986 C 0.44963 0.74776 0.81275 0.0
C987 C 0.46878 0.75367 0.79795 0.0
C988 C 0.48405 0.7403 0.80421 0.0
C989 C 0.48813 0.62752 0.89672 0.0
C990 C 0.49858 0.61323 0.85615 0.0
C991 C 0.49055 0.64714 0.87815 0.0
C992 C 0.50355 0.65287 0.81906 0.0
C993 C 0.51327 0.63863 0.77552 0.0
C994 C 0.51076 0.61891 0.79382 0.0
C995 C 0.50907 0.67366 0.81445 0.0
C996 C 0.49424 0.68747 0.80462 0.0
C997 C 0.52769 0.67981 0.83977 0.0
C998 C 0.54386 0.66588 0.85087 0.0
C999 C 0.55889 0.66486 0.7955 0.0
C1000 C 0.5739 0.65128 0.80475 0.0
C1001 C 0.57401 0.63874 0.86931 0.0
C1002 C 0.55915 0.63979 0.92493 0.0
C1003 C 0.54413 0.65336 0.91601 0.0
H1004 H 0.58562 0.6282 0.87624 0.0
H1005 H 0.43783 0.75813 0.80784 0.0
H1006 H 0.75778 0.52921 0.05683 0.0
H1007 H 0.78176 0.51974 0.9597 0.0
H1008 H 0.8226 0.56111 0.05668 0.0
H1009 H 0.79808 0.57192 0.14843 0.0
H1010 H 0.83723 0.54935 0.9306 0.0
H1011 H 0.8092 0.5158 0.15905 0.0
H1012 H 0.78275 0.49984 0.23333 0.0
H1013 H 0.7731 0.46 0.04407 0.0
H1014 H 0.79959 0.47572 0.96881 0.0
H1015 H 0.91763 0.50779 0.09147 0.0
H1016 H 0.88297 0.51615 0.09116 0.0
H1017 H 0.87258 0.47454 0.90725 0.0
H1018 H 0.90725 0.46601 0.90756 0.0
H1019 H 0.84072 0.48162 0.03351 0.0
H1020 H 0.8824 0.51358 0.84113 0.0
H1021 H 0.91441 0.52879 0.81564 0.0
H1022 H 0.90158 0.57413 0.97964 0.0
H1023 H 0.86979 0.55881 0.00856 0.0
C1024 C 0.77131 0.53735 0.05375 0.0
C1025 C 0.77665 0.55038 0.11346 0.0
C1026 C 0.78516 0.53173 0.99848 0.0
C1027 C 0.80441 0.5386 0.00523 0.0
C1028 C 0.80806 0.55497 0.05218 0.0
C1029 C 0.79401 0.56111 0.10528 0.0
C1030 C 0.82112 0.52589 0.985 0.0
C1031 C 0.83781 0.53442 0.95156 0.0
C1032 C 0.82214 0.50638 0.01342 0.0
C1033 C 0.80616 0.49704 0.05809 0.0
C1034 C 0.80143 0.50363 0.1334 0.0
C1035 C 0.78645 0.49465 0.17563 0.0
C1036 C 0.7762 0.47898 0.14332 0.0
C1037 C 0.781 0.47219 0.06888 0.0
C1038 C 0.796 0.48111 0.02644 0.0
C1039 C 0.9078 0.49994 0.05309 0.0
C1040 C 0.91502 0.4865 0.99882 0.0
C1041 C 0.88809 0.50468 0.05297 0.0
C1042 C 0.87552 0.4962 0.99795 0.0
C1043 C 0.88221 0.4812 0.9498 0.0
C1044 C 0.90196 0.47635 0.9502 0.0
C1045 C 0.85659 0.50543 0.98244 0.0
C1046 C 0.83972 0.49619 0.00895 0.0
C1047 C 0.85568 0.52454 0.95143 0.0
C1048 C 0.8737 0.535 0.92715 0.0
C1049 C 0.8864 0.52678 0.87182 0.0
C1050 C 0.90456 0.53535 0.85712 0.0
C1051 C 0.91006 0.55233 0.89628 0.0
C1052 C 0.89732 0.56093 0.94957 0.0
C1053 C 0.87922 0.55231 0.96514 0.0
H1054 H 0.92416 0.55886 0.88508 0.0
H1055 H 0.76458 0.47207 0.17605 0.0
H1056 H 0.03475 0.21207 0.08354 0.0
H1057 H 0.03664 0.18046 0.0187 0.0
H1058 H 0.99228 0.19862 0.85516 0.0
H1059 H 0.99018 0.2303 0.92169 0.0
H1060 H 0.98313 0.16403 0.91002 0.0
H1061 H 0.04097 0.19026 0.79801 0.0
H1062 H 0.07287 0.20694 0.79494 0.0
H1063 H 0.09729 0.16249 0.94245 0.0
H1064 H 0.06546 0.14568 0.94727 0.0
H1065 H 0.99504 0.07792 0.67414 0.0
H1066 H 0.99547 0.11189 0.71797 0.0
H1067 H 0.02968 0.09543 0.91897 0.0
H1068 H 0.02896 0.06133 0.8765 0.0
H1069 H 0.04387 0.12953 0.83683 0.0
H1070 H 0.98414 0.10395 0.94613 0.0
H1071 H 0.95229 0.08727 0.93812 0.0
H1072 H 0.93139 0.13134 0.7804 0.0
H1073 H 0.96314 0.14818 0.78692 0.0
C1074 C 0.02598 0.2096 0.03177 0.0
C1075 C 0.01271 0.22389 0.00641 0.0
C1076 C 0.02696 0.19142 0.99485 0.0
C1077 C 0.0147 0.18697 0.93129 0.0
C1078 C 1.00195 0.20157 0.90383 0.0
C1079 C 1.00097 0.21983 0.94098 0.0
C1080 C 0.01432 0.16673 0.8978 0.0
C1081 C 0.99642 0.15667 0.89283 0.0
C1082 C 0.0316 0.15676 0.87621 0.0
C1083 C 0.05078 0.16681 0.87358 0.0
C1084 C 0.0531 0.18413 0.83031 0.0
C1085 C 0.07118 0.19359 0.82816 0.0
C1086 C 0.08708 0.18581 0.86863 0.0
C1087 C 0.08495 0.16852 0.9112 0.0
C1088 C 0.0669 0.159 0.91359 0.0
C1089 C 1.00268 0.08149 0.72768 0.0
C1090 C 0.01195 0.06679 0.7718 0.0
C1091 C 1.00289 0.10096 0.75275 0.0
C1092 C 0.01261 0.1063 0.82189 0.0
C1093 C 0.0221 0.09172 0.86542 0.0
C1094 C 0.0216 0.07218 0.84118 0.0
C1095 C 0.01277 0.127 0.84924 0.0
C1096 C 0.03063 0.13702 0.85367 0.0
C1097 C 0.99543 0.13704 0.86865 0.0
C1098 C 0.97614 0.1272 0.86618 0.0
C1099 C 0.9728 0.11001 0.90929 0.0
C1100 C 0.95474 0.10054 0.90517 0.0
C1101 C 0.93985 0.1082 0.85858 0.0
C1102 C 0.94295 0.1254 0.81635 0.0
C1103 C 0.96098 0.13492 0.82029 0.0
H1104 H 0.92589 0.10084 0.85538 0.0
H1105 H 0.10107 0.19316 0.86688 0.0
H1106 H 0.29809 0.99627 0.04548 0.0
H1107 H 0.32953 0.99116 0.98007 0.0
H1108 H 0.32203 0.04506 0.85356 0.0
H1109 H 0.29088 0.05033 0.91996 0.0
H1110 H 0.34667 0.98961 0.83125 0.0
H1111 H 0.36491 0.07096 0.86919 0.0
H1112 H 0.35205 0.09893 0.94308 0.0
H1113 H 0.33271 0.06027 0.12527 0.0
H1114 H 0.34618 0.03229 0.05426 0.0
H1115 H 0.43854 0.01239 0.6524 0.0
H1116 H 0.40425 0.01302 0.69217 0.0
H1117 H 0.42175 0.01915 0.93289 0.0
H1118 H 0.45604 0.01854 0.89374 0.0
H1119 H 0.3921 0.04342 0.8998 0.0
H1120 H 0.40553 0.97544 0.86253 0.0
H1121 H 0.41673 0.94664 0.78949 0.0
H1122 H 0.373 0.95686 0.61433 0.0
H1123 H 0.36171 0.9859 0.68583 0.0
C1124 C 0.30273 1.00654 1.00097 0.0
C1125 C 0.29189 0.0236 0.98731 0.0
C1126 C 0.32081 1.00369 0.96395 0.0
C1127 C 0.32843 0.0179 0.91284 0.0
C1128 C 0.31667 0.03398 0.8934 0.0
C1129 C 0.29872 0.03689 0.93073 0.0
C1130 C 0.34946 0.01735 0.88856 0.0
C1131 C 0.35656 1.00143 0.84579 0.0
C1132 C 0.36263 0.03255 0.90878 0.0
C1133 C 0.35626 0.0495 0.95573 0.0
C1134 C 0.35816 0.06849 0.92555 0.0
C1135 C 0.35076 0.08436 0.96695 0.0
C1136 C 0.34143 0.0814 0.03853 0.0
C1137 C 0.3399 0.06261 0.06978 0.0
C1138 C 0.34748 0.04674 0.02914 0.0
C1139 C 0.43515 0.01392 0.71386 0.0
C1140 C 0.45021 0.01536 0.76976 0.0
C1141 C 0.41546 0.01418 0.7366 0.0
C1142 C 0.41027 0.01591 0.8158 0.0
C1143 C 0.42526 0.01774 0.87148 0.0
C1144 C 0.44494 0.01735 0.84889 0.0
C1145 C 0.38929 0.01587 0.84081 0.0
C1146 C 0.38222 0.03165 0.88445 0.0
C1147 C 0.37624 1.00047 0.82189 0.0
C1148 C 0.38289 0.98294 0.77917 0.0
C1149 C 0.39839 0.97162 0.80816 0.0
C1150 C 0.40474 0.95525 0.76708 0.0
C1151 C 0.39561 0.94995 0.69722 0.0
C1152 C 0.38007 0.961 0.66841 0.0
C1153 C 0.37368 0.9774 0.70922 0.0
H1154 H 0.40055 0.93727 0.66549 0.0
H1155 H 0.33545 0.0937 0.06976 0.0
H1156 H 0.48336 0.29281 0.02435 0.0
H1157 H 0.47849 0.3221 0.94346 0.0
H1158 H 0.54073 0.33137 0.93704 0.0
H1159 H 0.54556 0.30195 0.0145 0.0
H1160 H 0.48431 0.3574 0.97624 0.0
H1161 H 0.55508 0.36062 0.78035 0.0
H1162 H 0.57525 0.33871 0.70053 0.0
H1163 H 0.52883 0.29662 0.69527 0.0
H1164 H 0.50812 0.31848 0.77309 0.0
H1165 H 0.50537 0.4552 0.88117 0.0
H1166 H 0.50545 0.42133 0.92519 0.0
H1167 H 0.50253 0.40204 0.68593 0.0
H1168 H 0.50353 0.43595 0.64138 0.0
H1169 H 0.52474 0.37898 0.75207 0.0
H1170 H 0.46179 0.40029 0.823 0.0
H1171 H 0.43679 0.4215 0.88132 0.0
H1172 H 0.46097 0.41138 0.10941 0.0
H1173 H 0.48629 0.39031 0.05234 0.0
C1174 C 0.496 0.30075 0.00345 0.0
C1175 C 0.51484 0.29498 0.02634 0.0
C1176 C 0.49322 0.31768 0.95783 0.0
C1177 C 0.50922 0.3292 0.93349 0.0
C1178 C 0.52806 0.32282 0.95333 0.0
C1179 C 0.53082 0.30595 0.9984 0.0
C1180 C 0.50634 0.34867 0.89394 0.0
C1181 C 0.49315 0.36199 0.92698 0.0
C1182 C 0.51741 0.35482 0.82801 0.0
C1183 C 0.53008 0.34116 0.78378 0.0
C1184 C 0.54914 0.34669 0.76234 0.0
C1185 C 0.56067 0.33429 0.71723 0.0
C1186 C 0.55337 0.31624 0.69324 0.0
C1187 C 0.53452 0.31055 0.71438 0.0
C1188 C 0.52287 0.32295 0.75914 0.0
C1189 C 0.5046 0.44377 0.83775 0.0
C1190 C 0.50426 0.44844 0.75759 0.0
C1191 C 0.50453 0.42427 0.86311 0.0
C1192 C 0.50355 0.40879 0.80927 0.0
C1193 C 0.50325 0.41349 0.72909 0.0
C1194 C 0.50372 0.43299 0.70358 0.0
C1195 C 0.50335 0.38784 0.83657 0.0
C1196 C 0.51592 0.37429 0.8012 0.0
C1197 C 0.49125 0.38122 0.89854 0.0
C1198 C 0.47603 0.39384 0.93328 0.0
C1199 C 0.46185 0.40269 0.88554 0.0
C1200 C 0.44761 0.41467 0.91838 0.0
C1201 C 0.44731 0.41782 0.99899 0.0
C1202 C 0.46123 0.40894 0.04697 0.0
C1203 C 0.47551 0.39695 0.01442 0.0
H1204 H 0.43628 0.42711 0.0243 0.0
H1205 H 0.56229 0.30671 0.65792 0.0
H1206 H 0.22221 0.55429 0.97707 0.0
H1207 H 0.19031 0.55056 0.91644 0.0
H1208 H 0.20046 0.48885 0.89096 0.0
H1209 H 0.23231 0.49252 0.95594 0.0
H1210 H 0.17361 0.54206 0.79485 0.0
H1211 H 0.15863 0.46295 0.9087 0.0
H1212 H 0.16707 0.4423 0.02218 0.0
H1213 H 0.17925 0.49336 0.15856 0.0
H1214 H 0.1707 0.51429 0.04627 0.0
H1215 H 0.0828 0.51422 0.62641 0.0
H1216 H 0.11702 0.51584 0.66745 0.0
H1217 H 0.09946 0.50923 0.90798 0.0
H1218 H 0.06542 0.50699 0.86724 0.0
H1219 H 0.13006 0.48993 0.89507 0.0
H1220 H 0.11304 0.55296 0.82329 0.0
H1221 H 0.1005 0.5804 0.74522 0.0
H1222 H 0.14715 0.57341 0.58146 0.0
H1223 H 0.15947 0.5451 0.65588 0.0
C1224 C 0.21782 0.53992 0.95747 0.0
C1225 C 0.22987 0.52368 0.97214 0.0
C1226 C 0.19945 0.53779 0.92243 0.0
C1227 C 0.19245 0.51934 0.90006 0.0
C1228 C 0.2051 0.50324 0.90922 0.0
C1229 C 0.22353 0.50536 0.94524 0.0
C1230 C 0.1717 0.51709 0.87118 0.0
C1231 C 0.16421 0.5305 0.81625 0.0
C1232 C 0.15881 0.5027 0.90144 0.0
C1233 C 0.16431 0.49015 0.96867 0.0
C1234 C 0.16314 0.46975 0.96288 0.0
C1235 C 0.16792 0.45801 0.02702 0.0
C1236 C 0.17376 0.46651 0.09744 0.0
C1237 C 0.17481 0.48679 0.1039 0.0
C1238 C 0.17004 0.49859 0.03998 0.0
C1239 C 0.0862 0.51304 0.68809 0.0
C1240 C 0.07116 0.51048 0.74334 0.0
C1241 C 0.10587 0.51404 0.71165 0.0
C1242 C 0.11111 0.51281 0.79126 0.0
C1243 C 0.09608 0.5101 0.84623 0.0
C1244 C 0.07647 0.50893 0.82272 0.0
C1245 C 0.13207 0.51467 0.81764 0.0
C1246 C 0.13957 0.50126 0.87239 0.0
C1247 C 0.14452 0.52995 0.7915 0.0
C1248 C 0.13695 0.54658 0.74452 0.0
C1249 C 0.12042 0.55694 0.76964 0.0
C1250 C 0.11333 0.57263 0.72588 0.0
C1251 C 0.1229 0.57844 0.65772 0.0
C1252 C 0.13961 0.5686 0.63341 0.0
C1253 C 0.1466 0.55267 0.67619 0.0
H1254 H 0.11747 0.59067 0.6241 0.0
H1255 H 0.17741 0.4574 0.14706 0.0
H1256 H 0.99354 0.79565 0.31229 0.0
H1257 H 0.98725 0.82735 0.37376 0.0
H1258 H 0.04012 0.82156 0.50867 0.0
H1259 H 0.04614 0.78987 0.44856 0.0
H1260 H 0.01359 0.8389 0.59459 0.0
H1261 H 0.03807 0.84898 0.33045 0.0
H1262 H 0.03765 0.84603 0.18651 0.0
H1263 H 0.9806 0.87148 0.17874 0.0
H1264 H 0.98066 0.87457 0.3224 0.0
H1265 H 0.0331 0.93772 0.69028 0.0
H1266 H 0.03379 0.90413 0.6434 0.0
H1267 H 0.98569 0.91661 0.48813 0.0
H1268 H 0.98611 0.95064 0.53072 0.0
H1269 H 1.00744 0.89519 0.41398 0.0
H1270 H 0.98382 0.88802 0.67771 0.0
H1271 H 0.9845 0.89166 0.82111 0.0
H1272 H 0.03872 0.86058 0.83171 0.0
H1273 H 0.03851 0.85707 0.68841 0.0
C1274 C 1.00338 0.80082 0.35729 0.0
C1275 C 0.02023 0.79012 0.3761 0.0
C1276 C 1.0 0.81915 0.39142 0.0
C1277 C 0.01345 0.82722 0.44478 0.0
C1278 C 0.02951 0.81585 0.46763 0.0
C1279 C 0.03289 0.79761 0.4336 0.0
C1280 C 0.0115 0.84775 0.47418 0.0
C1281 C 0.01233 0.85123 0.55503 0.0
C1282 C 1.00944 0.86395 0.42321 0.0
C1283 C 1.00928 0.86175 0.3371 0.0
C1284 C 0.02538 0.85375 0.29801 0.0
C1285 C 0.02523 0.8521 0.21657 0.0
C1286 C 1.00909 0.85844 0.17366 0.0
C1287 C 0.99307 0.86652 0.21206 0.0
C1288 C 0.99317 0.86826 0.29343 0.0
C1289 C 0.02264 0.93327 0.64626 0.0
C1290 C 1.0095 0.94687 0.61448 0.0
C1291 C 0.02289 0.9139 0.61986 0.0
C1292 C 1.00943 0.90734 0.5633 0.0
C1293 C 0.99626 0.92103 0.53176 0.0
C1294 C 0.99645 0.94055 0.55633 0.0
C1295 C 1.00945 0.88652 0.53496 0.0
C1296 C 1.00838 0.88295 0.45408 0.0
C1297 C 0.01113 0.87023 0.58609 0.0
C1298 C 0.01121 0.87238 0.67232 0.0
C1299 C 0.99594 0.88207 0.71064 0.0
C1300 C 0.99624 0.88412 0.79192 0.0
C1301 C 0.01166 0.8764 0.83554 0.0
C1302 C 0.02681 0.8666 0.79798 0.0
C1303 C 0.0266 0.86456 0.71676 0.0
H1304 H 0.01184 0.87796 0.89845 0.0
H1305 H 1.00902 0.85717 0.11063 0.0
H1306 H 0.73691 0.9956 0.50045 0.0
H1307 H 0.70553 1.00159 0.56488 0.0
H1308 H 0.68129 0.02094 0.34526 0.0
H1309 H 0.71278 0.01566 0.28215 0.0
H1310 H 0.66398 0.03992 0.45463 0.0
H1311 H 0.67944 0.97354 0.41161 0.0
H1312 H 0.69761 0.94273 0.41985 0.0
H1313 H 0.68918 0.94129 0.66842 0.0
H1314 H 0.67106 0.97228 0.66171 0.0
H1315 H 0.56462 0.01041 0.50462 0.0
H1316 H 0.59867 0.01104 0.46156 0.0
H1317 H 0.61786 1.00738 0.70098 0.0
H1318 H 0.58381 1.00705 0.74487 0.0
H1319 H 0.63792 0.98131 0.58987 0.0
H1320 H 0.62086 0.04923 0.62262 0.0
H1321 H 0.60014 0.07806 0.60051 0.0
H1322 H 0.60966 0.07378 0.35324 0.0
H1323 H 0.63021 0.04473 0.37382 0.0
C1324 C 0.72517 1.00214 0.46714 0.0
C1325 C 0.72743 1.00561 0.3867 0.0
C1326 C 0.70708 1.0052 0.50355 0.0
C1327 C 0.69075 0.01128 0.45974 0.0
C1328 C 0.69351 0.01625 0.38073 0.0
C1329 C 0.71162 0.01342 0.34468 0.0
C1330 C 0.67056 0.01075 0.49345 0.0
C1331 C 0.65836 0.02704 0.48395 0.0
C1332 C 0.66295 0.99396 0.53185 0.0
C1333 C 0.67399 0.97537 0.53621 0.0
C1334 C 0.68149 0.96673 0.4681 0.0
C1335 C 0.6918 0.94921 0.47247 0.0
C1336 C 0.69459 0.94007 0.54466 0.0
C1337 C 0.68704 0.94841 0.61256 0.0
C1338 C 0.67674 0.96596 0.60848 0.0
C1339 C 0.57604 1.00967 0.54829 0.0
C1340 C 0.57138 1.00875 0.62837 0.0
C1341 C 0.59554 0.01008 0.52349 0.0
C1342 C 0.61087 1.00936 0.57798 0.0
C1343 C 0.60631 1.00797 0.65782 0.0
C1344 C 0.58679 1.00786 0.68281 0.0
C1345 C 0.63162 0.01049 0.55149 0.0
C1346 C 0.64379 0.99426 0.56184 0.0
C1347 C 0.63905 0.02709 0.51208 0.0
C1348 C 0.62695 0.04472 0.49973 0.0
C1349 C 0.61843 0.05436 0.5635 0.0
C1350 C 0.60673 0.07075 0.55125 0.0
C1351 C 0.60355 0.07773 0.47551 0.0
C1352 C 0.61212 0.06836 0.41187 0.0
C1353 C 0.62382 0.05194 0.4238 0.0
H1354 H 0.59448 0.09041 0.46614 0.0
H1355 H 0.70257 0.9265 0.54799 0.0
H1356 H 0.49083 0.72388 0.35151 0.0
H1357 H 0.48916 0.69203 0.41677 0.0
H1358 H 0.55185 0.69131 0.43585 0.0
H1359 H 0.55347 0.72324 0.37011 0.0
H1360 H 0.53602 0.65711 0.36916 0.0
H1361 H 0.52247 0.69797 0.59614 0.0
H1362 H 0.50287 0.72491 0.6494 0.0
H1363 H 0.45067 0.69095 0.62052 0.0
H1364 H 0.46987 0.66404 0.56473 0.0
H1365 H 0.54278 0.56686 0.56424 0.0
H1366 H 0.54564 0.60097 0.52424 0.0
H1367 H 0.48519 0.61015 0.58411 0.0
H1368 H 0.48312 0.5765 0.6319 0.0
H1369 H 0.49969 0.6411 0.61136 0.0
H1370 H 0.50628 0.60392 0.38047 0.0
H1371 H 0.51895 0.57845 0.29284 0.0
H1372 H 0.57587 0.60461 0.30126 0.0
H1373 H 0.5636 0.63013 0.38971 0.0
C1374 C 0.50419 0.71728 0.37257 0.0
C1375 C 0.52224 0.72639 0.35799 0.0
C1376 C 0.50325 0.69894 0.40918 0.0
C1377 C 0.52037 0.68914 0.43186 0.0
C1378 C 0.53841 0.69851 0.41938 0.0
C1379 C 0.53933 0.71693 0.38299 0.0
C1380 C 0.51949 0.66878 0.46464 0.0
C1381 C 0.52846 0.65364 0.4231 0.0
C1382 C 0.50867 0.66397 0.53257 0.0
C1383 C 0.49759 0.67908 0.57537 0.0
C1384 C 0.50681 0.69624 0.60124 0.0
C1385 C 0.49575 0.71157 0.63121 0.0
C1386 C 0.47551 0.70974 0.63719 0.0
C1387 C 0.46633 0.69241 0.61508 0.0
C1388 C 0.4773 0.67711 0.58428 0.0
C1389 C 0.53011 0.57619 0.56864 0.0
C1390 C 0.51263 0.56888 0.59999 0.0
C1391 C 0.53165 0.59577 0.54495 0.0
C1392 C 0.51544 0.6084 0.54774 0.0
C1393 C 0.49801 0.60103 0.58032 0.0
C1394 C 0.49673 0.58165 0.60718 0.0
C1395 C 0.51667 0.62911 0.51681 0.0
C1396 C 0.50764 0.64438 0.55824 0.0
C1397 C 0.52666 0.63396 0.44645 0.0
C1398 C 0.53407 0.6188 0.39249 0.0
C1399 C 0.52152 0.60418 0.36395 0.0
C1400 C 0.52863 0.58974 0.31412 0.0
C1401 C 0.54823 0.58987 0.29187 0.0
C1402 C 0.56072 0.60452 0.3188 0.0
C1403 C 0.55369 0.61898 0.36872 0.0
H1404 H 0.55375 0.5786 0.25383 0.0
H1405 H 0.46692 0.7217 0.65945 0.0
H1406 H 0.798 0.56387 0.39758 0.0
H1407 H 0.82946 0.55818 0.46042 0.0
H1408 H 0.81934 0.49613 0.45029 0.0
H1409 H 0.78791 0.50195 0.38487 0.0
H1410 H 0.84495 0.54459 0.58016 0.0
H1411 H 0.85969 0.47183 0.42031 0.0
H1412 H 0.852 0.45601 0.29442 0.0
H1413 H 0.8445 0.51211 0.18663 0.0
H1414 H 0.85173 0.52821 0.31217 0.0
H1415 H 0.93724 0.50885 0.72722 0.0
H1416 H 0.90267 0.51212 0.69013 0.0
H1417 H 0.91955 0.522 0.4508 0.0
H1418 H 0.95374 0.51876 0.4869 0.0
H1419 H 0.89005 0.49873 0.44995 0.0
H1420 H 0.90597 0.55738 0.57084 0.0
H1421 H 0.91576 0.58245 0.66505 0.0
H1422 H 0.86629 0.56856 0.80834 0.0
H1423 H 0.85695 0.54227 0.71789 0.0
C1424 C 0.80217 0.54902 0.41128 0.0
C1425 C 0.79024 0.53339 0.38733 0.0
C1426 C 0.82033 0.54573 0.44679 0.0
C1427 C 0.82724 0.52668 0.45928 0.0
C1428 C 0.81472 0.511 0.44013 0.0
C1429 C 0.7965 0.51432 0.40412 0.0
C1430 C 0.84779 0.52346 0.48852 0.0
C1431 C 0.85472 0.53431 0.55255 0.0
C1432 C 0.86104 0.5108 0.45048 0.0
C1433 C 0.85601 0.50117 0.37574 0.0
C1434 C 0.85626 0.48075 0.36982 0.0
C1435 C 0.85192 0.47175 0.29862 0.0
C1436 C 0.84758 0.48305 0.23276 0.0
C1437 C 0.84758 0.50337 0.23792 0.0
C1438 C 0.85169 0.51243 0.30915 0.0
C1439 C 0.93359 0.51175 0.6667 0.0
C1440 C 0.9485 0.51358 0.61036 0.0
C1441 C 0.91376 0.51368 0.64553 0.0
C1442 C 0.90827 0.51739 0.56742 0.0
C1443 C 0.92316 0.51904 0.51133 0.0
C1444 C 0.94287 0.51726 0.53239 0.0
C1445 C 0.8872 0.51959 0.54315 0.0
C1446 C 0.88019 0.5086 0.47951 0.0
C1447 C 0.87426 0.53304 0.57891 0.0
C1448 C 0.88098 0.54745 0.638 0.0
C1449 C 0.89751 0.55913 0.62368 0.0
C1450 C 0.90296 0.57366 0.67647 0.0
C1451 C 0.89169 0.5771 0.74286 0.0
C1452 C 0.87507 0.56583 0.75707 0.0
C1453 C 0.86983 0.55093 0.7055 0.0
H1454 H 0.89583 0.58851 0.78325 0.0
H1455 H 0.84431 0.47604 0.1777 0.0
loop_
_geom_bond_atom_site_label_1
_geom_bond_atom_site_label_2
_geom_bond_distance
_geom_bond_site_symmetry_2
_ccdc_geom_bond_type
H0 C5 0.930 . S
H1 C8 0.930 . S
H2 C10 0.930 . S
H3 C4 1.016 . S
C4 H3 1.016 . S
C4 N11 1.286 . S
C5 H0 0.930 . S
C5 C6 1.397 . S
C5 C7 1.361 . S
C6 C5 1.397 . S
C6 C10 1.390 . S
C7 C5 1.361 . S
C7 C8 1.393 . S
C7 N11 1.413 . S
C8 H1 0.930 . S
C8 C7 1.393 . S
C8 C9 1.399 . S
C9 C8 1.399 . S
C9 C10 1.381 . S
C10 H2 0.930 . S
C10 C6 1.390 . S
C10 C9 1.381 . S
N11 C4 1.286 . S
N11 C7 1.413 . S
H12 C17 0.930 . S
H13 C20 0.930 . S
H14 C22 0.930 . S
H15 C16 1.016 . S
C16 H15 1.016 . S
C16 N23 1.286 1_655 S
C17 H12 0.930 . S
C17 C18 1.387 1_455 S
C17 C19 1.361 . S
C18 C17 1.387 1_655 S
C18 C22 1.399 . S
C19 C17 1.361 . S
C19 C20 1.393 . S
C19 N23 1.413 . S
C20 H13 0.930 . S
C20 C19 1.393 . S
C20 C21 1.399 1_455 S
C21 C20 1.399 1_655 S
C21 C22 1.381 . S
C22 H14 0.930 . S
C22 C18 1.399 . S
C22 C21 1.381 . S
N23 C16 1.286 1_455 S
N23 C19 1.413 . S
H24 C29 0.930 . S
H25 C32 0.935 . S
H26 C34 0.930 . S
H27 C28 1.016 . S
C28 H27 1.016 . S
C28 N35 1.286 1_565 S
C29 H24 0.930 . S
C29 C30 1.397 1_545 S
C29 C31 1.361 . S
C30 C29 1.397 1_565 S
C30 C34 1.390 . S
C31 C29 1.361 . S
C31 C32 1.398 . S
C31 N35 1.413 . S
C32 H25 0.935 . S
C32 C31 1.398 . S
C32 C33 1.392 1_545 S
C33 C32 1.392 1_565 S
C33 C34 1.381 . S
C34 H26 0.930 . S
C34 C30 1.390 . S
C34 C33 1.381 . S
N35 C28 1.286 1_545 S
N35 C31 1.413 . S
H36 C41 0.930 . S
H37 C44 0.930 . S
H38 C46 0.930 . S
H39 C40 1.016 . S
C40 H39 1.016 . S
C40 N47 1.286 . S
C41 H36 0.930 . S
C41 C42 1.397 . S
C41 C43 1.361 . S
C42 C41 1.397 . S
C42 C46 1.390 . S
C43 C41 1.361 . S
C43 C44 1.393 . S
C43 N47 1.413 . S
C44 H37 0.930 . S
C44 C43 1.393 . S
C44 C45 1.399 . S
C45 C44 1.399 . S
C45 C46 1.381 . S
C46 H38 0.930 . S
C46 C42 1.390 . S
C46 C45 1.381 . S
N47 C40 1.286 . S
N47 C43 1.413 . S
H48 C53 0.930 . S
H49 C56 0.930 . S
H50 C58 0.930 1_556 S
H51 C52 1.016 . S
C52 H51 1.016 . S
C52 N59 1.286 . S
C53 H48 0.930 . S
C53 C54 1.397 . S
C53 C55 1.361 1_556 S
C54 C53 1.397 . S
C54 C58 1.383 1_556 S
C55 C53 1.361 1_554 S
C55 C56 1.393 . S
C55 N59 1.413 . S
C56 H49 0.930 . S
C56 C55 1.393 . S
C56 C57 1.399 . S
C57 C56 1.399 . S
C57 C58 1.388 . S
C58 H50 0.930 1_554 S
C58 C54 1.383 1_554 S
C58 C57 1.388 . S
N59 C52 1.286 . S
N59 C55 1.413 . S
H60 C65 0.930 . S
H61 C68 0.930 . S
H62 C70 0.929 1_556 S
H63 C64 1.016 . S
C64 H63 1.016 . S
C64 N71 1.286 . S
C65 H60 0.930 . S
C65 C66 1.397 . S
C65 C67 1.361 1_556 S
C66 C65 1.397 . S
C66 C70 1.381 1_556 S
C67 C65 1.361 1_554 S
C67 C68 1.393 . S
C67 N71 1.413 . S
C68 H61 0.930 . S
C68 C67 1.393 . S
C68 C69 1.399 . S
C69 C68 1.399 . S
C69 C70 1.392 . S
C70 H62 0.929 1_554 S
C70 C66 1.381 1_554 S
C70 C69 1.392 . S
N71 C64 1.286 . S
N71 C67 1.413 . S
H72 C77 0.930 . S
H73 C80 0.930 . S
H74 C82 0.929 1_556 S
H75 C76 1.016 . S
C76 H75 1.016 . S
C76 N83 1.286 . S
C77 H72 0.930 . S
C77 C78 1.397 . S
C77 C79 1.361 1_556 S
C78 C77 1.397 . S
C78 C82 1.380 1_556 S
C79 C77 1.361 1_554 S
C79 C80 1.393 . S
C79 N83 1.413 . S
C80 H73 0.930 . S
C80 C79 1.393 . S
C80 C81 1.399 . S
C81 C80 1.399 . S
C81 C82 1.392 . S
C82 H74 0.929 1_554 S
C82 C78 1.380 1_554 S
C82 C81 1.392 . S
N83 C76 1.286 . S
N83 C79 1.413 . S
H84 C89 0.930 . S
H85 C92 0.930 . S
H86 C94 0.930 1_556 S
H87 C88 1.016 . S
C88 H87 1.016 . S
C88 N95 1.286 . S
C89 H84 0.930 . S
C89 C90 1.397 . S
C89 C91 1.361 1_556 S
C90 C89 1.397 . S
C90 C94 1.383 1_556 S
C91 C89 1.361 1_554 S
C91 C92 1.393 . S
C91 N95 1.413 . S
C92 H85 0.930 . S
C92 C91 1.393 . S
C92 C93 1.399 . S
C93 C92 1.399 . S
C93 C94 1.389 . S
C94 H86 0.930 1_554 S
C94 C90 1.383 1_554 S
C94 C93 1.389 . S
N95 C88 1.286 . S
N95 C91 1.413 . S
Gd96 C99 2.818 . S
Gd96 O116 2.377 . S
Gd96 O118 2.448 . S
Gd96 O119 2.506 . S
Gd96 O120 2.435 . S
Gd96 O121 2.717 1_565 S
Gd96 O123 2.395 1_565 S
Gd96 O127 2.327 1_455 S
Gd97 C108 2.818 . S
Gd97 O117 2.395 1_545 S
Gd97 O121 2.327 1_655 S
Gd97 O122 2.377 . S
Gd97 O124 2.448 . S
Gd97 O125 2.506 1_655 S
Gd97 O126 2.435 . S
Gd97 O127 2.717 1_545 S
C98 O116 1.240 1_655 S
C98 O117 1.240 . S
C99 Gd96 2.818 . S
C99 C100 1.510 . S
C99 O118 1.249 . S
C99 O119 1.252 . S
C100 C99 1.510 . S
C100 C101 1.404 . S
C100 C102 1.352 . S
C101 C100 1.404 . S
C101 C105 1.389 . S
C101 H128 0.930 . S
C102 C100 1.352 . S
C102 C104 1.374 . S
C102 H129 0.931 1_455 S
C103 C104 1.359 . S
C103 C105 1.364 . S
C104 C102 1.374 . S
C104 C103 1.359 . S
C104 H130 0.931 1_455 S
C105 C101 1.389 . S
C105 C103 1.364 . S
C105 H131 0.931 . S
C106 O120 1.256 1_545 S
C106 O121 1.257 . S
C107 O122 1.240 1_455 S
C107 O123 1.240 . S
C108 Gd97 2.818 . S
C108 C109 1.510 . S
C108 O124 1.249 . S
C108 O125 1.252 1_655 S
C109 C108 1.510 . S
C109 C110 1.404 . S
C109 C111 1.352 1_655 S
C110 C109 1.404 . S
C110 C114 1.389 . S
C110 H132 0.930 . S
C111 C109 1.352 1_455 S
C111 C113 1.374 . S
C111 H133 0.931 . S
C112 C113 1.359 1_655 S
C112 C114 1.364 . S
C113 C111 1.374 . S
C113 C112 1.359 1_455 S
C113 H134 0.931 . S
C114 C110 1.389 . S
C114 C112 1.364 . S
C114 H135 0.931 . S
C115 O126 1.256 . S
C115 O127 1.257 1_545 S
O116 Gd96 2.377 . S
O116 C98 1.240 1_455 S
O117 Gd97 2.395 1_565 S
O117 C98 1.240 . S
O118 Gd96 2.448 . S
O118 C99 1.249 . S
O119 Gd96 2.506 . S
O119 C99 1.252 . S
O120 Gd96 2.435 . S
O120 C106 1.256 1_565 S
O121 Gd96 2.717 1_545 S
O121 Gd97 2.327 1_455 S
O121 C106 1.257 . S
O122 Gd97 2.377 . S
O122 C107 1.240 1_655 S
O123 Gd96 2.395 1_545 S
O123 C107 1.240 . S
O124 Gd97 2.448 . S
O124 C108 1.249 . S
O125 Gd97 2.506 1_455 S
O125 C108 1.252 1_455 S
O126 Gd97 2.435 . S
O126 C115 1.256 . S
O127 Gd96 2.327 1_655 S
O127 Gd97 2.717 1_565 S
O127 C115 1.257 1_565 S
H128 C101 0.930 . S
H129 C102 0.931 1_655 S
H130 C104 0.931 1_655 S
H131 C105 0.931 . S
H132 C110 0.930 . S
H133 C111 0.931 . S
H134 C113 0.931 . S
H135 C114 0.931 . S
Gd136 C139 2.818 . S
Gd136 O156 2.377 . S
Gd136 O158 2.448 . S
Gd136 O159 2.506 . S
Gd136 O160 2.435 . S
Gd136 O161 2.717 . S
Gd136 O163 2.395 . S
Gd136 O167 2.327 1_545 S
Gd137 C148 2.818 . S
Gd137 O157 2.395 . S
Gd137 O161 2.327 1_565 S
Gd137 O162 2.377 . S
Gd137 O164 2.448 . S
Gd137 O165 2.506 1_565 S
Gd137 O166 2.435 . S
Gd137 O167 2.717 . S
C138 O156 1.240 1_565 S
C138 O157 1.240 . S
C139 Gd136 2.818 . S
C139 C140 1.510 . S
C139 O158 1.249 . S
C139 O159 1.252 . S
C140 C139 1.510 . S
C140 C141 1.404 . S
C140 C142 1.352 . S
C141 C140 1.404 . S
C141 C145 1.389 . S
C141 H168 0.930 . S
C142 C140 1.352 . S
C142 C144 1.374 . S
C142 H169 0.931 1_545 S
C143 C144 1.359 . S
C143 C145 1.364 . S
C144 C142 1.374 . S
C144 C143 1.359 . S
C144 H170 0.931 1_545 S
C145 C141 1.389 . S
C145 C143 1.364 . S
C145 H171 0.931 . S
C146 O160 1.256 . S
C146 O161 1.257 . S
C147 O162 1.240 1_545 S
C147 O163 1.240 . S
C148 Gd137 2.818 . S
C148 C149 1.510 . S
C148 O164 1.249 . S
C148 O165 1.252 1_565 S
C149 C148 1.510 . S
C149 C150 1.404 . S
C149 C151 1.352 1_565 S
C150 C149 1.404 . S
C150 C154 1.389 . S
C150 H172 0.930 . S
C151 C149 1.352 1_545 S
C151 C153 1.374 . S
C151 H173 0.931 . S
C152 C153 1.359 1_565 S
C152 C154 1.364 . S
C153 C151 1.374 . S
C153 C152 1.359 1_545 S
C153 H174 0.931 . S
C154 C150 1.389 . S
C154 C152 1.364 . S
C154 H175 0.931 . S
C155 O166 1.256 . S
C155 O167 1.257 . S
O156 Gd136 2.377 . S
O156 C138 1.240 1_545 S
O157 Gd137 2.395 . S
O157 C138 1.240 . S
O158 Gd136 2.448 . S
O158 C139 1.249 . S
O159 Gd136 2.506 . S
O159 C139 1.252 . S
O160 Gd136 2.435 . S
O160 C146 1.256 . S
O161 Gd136 2.717 . S
O161 Gd137 2.327 1_545 S
O161 C146 1.257 . S
O162 Gd137 2.377 . S
O162 C147 1.240 1_565 S
O163 Gd136 2.395 . S
O163 C147 1.240 . S
O164 Gd137 2.448 . S
O164 C148 1.249 . S
O165 Gd137 2.506 1_545 S
O165 C148 1.252 1_545 S
O166 Gd137 2.435 . S
O166 C155 1.256 . S
O167 Gd136 2.327 1_565 S
O167 Gd137 2.717 . S
O167 C155 1.257 . S
H168 C141 0.930 . S
H169 C142 0.931 1_565 S
H170 C144 0.931 1_565 S
H171 C145 0.931 . S
H172 C150 0.930 . S
H173 C151 0.931 . S
H174 C153 0.931 . S
H175 C154 0.931 . S
Gd176 C179 2.818 . S
Gd176 O196 2.377 . S
Gd176 O198 2.448 . S
Gd176 O199 2.506 . S
Gd176 O200 2.435 . S
Gd176 O201 2.717 . S
Gd176 O203 2.395 . S
Gd176 O207 2.327 . S
Gd177 C188 2.818 . S
Gd177 O197 2.395 . S
Gd177 O201 2.327 . S
Gd177 O202 2.377 . S
Gd177 O204 2.448 . S
Gd177 O205 2.506 . S
Gd177 O206 2.435 . S
Gd177 O207 2.717 . S
C178 O196 1.240 . S
C178 O197 1.240 . S
C179 Gd176 2.818 . S
C179 C180 1.510 . S
C179 O198 1.249 . S
C179 O199 1.252 . S
C180 C179 1.510 . S
C180 C181 1.404 . S
C180 C182 1.352 . S
C181 C180 1.404 . S
C181 C185 1.389 . S
C181 H208 0.930 . S
C182 C180 1.352 . S
C182 C184 1.374 . S
C182 H209 0.931 . S
C183 C184 1.359 . S
C183 C185 1.364 . S
C184 C182 1.374 . S
C184 C183 1.359 . S
C184 H210 0.931 . S
C185 C181 1.389 . S
C185 C183 1.364 . S
C185 H211 0.931 . S
C186 O200 1.256 . S
C186 O201 1.257 . S
C187 O202 1.240 . S
C187 O203 1.240 . S
C188 Gd177 2.818 . S
C188 C189 1.510 . S
C188 O204 1.249 . S
C188 O205 1.252 . S
C189 C188 1.510 . S
C189 C190 1.404 . S
C189 C191 1.352 . S
C190 C189 1.404 . S
C190 C194 1.389 . S
C190 H212 0.930 . S
C191 C189 1.352 . S
C191 C193 1.374 . S
C191 H213 0.931 . S
C192 C193 1.359 . S
C192 C194 1.364 . S
C193 C191 1.374 . S
C193 C192 1.359 . S
C193 H214 0.931 . S
C194 C190 1.389 . S
C194 C192 1.364 . S
C194 H215 0.931 . S
C195 O206 1.256 . S
C195 O207 1.257 . S
O196 Gd176 2.377 . S
O196 C178 1.240 . S
O197 Gd177 2.395 . S
O197 C178 1.240 . S
O198 Gd176 2.448 . S
O198 C179 1.249 . S
O199 Gd176 2.506 . S
O199 C179 1.252 . S
O200 Gd176 2.435 . S
O200 C186 1.256 . S
O201 Gd176 2.717 . S
O201 Gd177 2.327 . S
O201 C186 1.257 . S
O202 Gd177 2.377 . S
O202 C187 1.240 . S
O203 Gd176 2.395 . S
O203 C187 1.240 . S
O204 Gd177 2.448 . S
O204 C188 1.249 . S
O205 Gd177 2.506 . S
O205 C188 1.252 . S
O206 Gd177 2.435 . S
O206 C195 1.256 . S
O207 Gd176 2.327 . S
O207 Gd177 2.717 . S
O207 C195 1.257 . S
H208 C181 0.930 . S
H209 C182 0.931 . S
H210 C184 0.931 . S
H211 C185 0.931 . S
H212 C190 0.930 . S
H213 C191 0.931 . S
H214 C193 0.931 . S
H215 C194 0.931 . S
Gd216 C219 2.818 . S
Gd216 O236 2.377 . S
Gd216 O238 2.448 . S
Gd216 O239 2.506 . S
Gd216 O240 2.435 . S
Gd216 O241 2.717 1_655 S
Gd216 O243 2.395 1_655 S
Gd216 O247 2.329 . S
Gd217 C228 2.818 . S
Gd217 O237 2.395 1_455 S
Gd217 O241 2.327 . S
Gd217 O242 2.377 . S
Gd217 O244 2.448 . S
Gd217 O245 2.506 . S
Gd217 O246 2.435 . S
Gd217 O247 2.714 1_455 S
C218 O236 1.240 . S
C218 O237 1.240 . S
C219 Gd216 2.818 . S
C219 C220 1.510 . S
C219 O238 1.249 . S
C219 O239 1.252 . S
C220 C219 1.510 . S
C220 C221 1.404 . S
C220 C222 1.352 . S
C221 C220 1.404 . S
C221 C225 1.389 . S
C221 H248 0.930 . S
C222 C220 1.352 . S
C222 C224 1.374 . S
C222 H249 0.931 . S
C223 C224 1.359 . S
C223 C225 1.364 . S
C224 C222 1.374 . S
C224 C223 1.359 . S
C224 H250 0.931 . S
C225 C221 1.389 . S
C225 C223 1.364 . S
C225 H251 0.931 . S
C226 O240 1.256 1_455 S
C226 O241 1.257 . S
C227 O242 1.240 . S
C227 O243 1.240 . S
C228 Gd217 2.818 . S
C228 C229 1.510 . S
C228 O244 1.249 . S
C228 O245 1.252 . S
C229 C228 1.510 . S
C229 C230 1.404 . S
C229 C231 1.352 . S
C230 C229 1.404 . S
C230 C234 1.389 . S
C230 H252 0.930 . S
C231 C229 1.352 . S
C231 C233 1.374 . S
C231 H253 0.931 . S
C232 C233 1.359 . S
C232 C234 1.364 . S
C233 C231 1.374 . S
C233 C232 1.359 . S
C233 H254 0.931 . S
C234 C230 1.389 . S
C234 C232 1.364 . S
C234 H255 0.931 . S
C235 O246 1.256 . S
C235 O247 1.255 1_455 S
O236 Gd216 2.377 . S
O236 C218 1.240 . S
O237 Gd217 2.395 1_655 S
O237 C218 1.240 . S
O238 Gd216 2.448 . S
O238 C219 1.249 . S
O239 Gd216 2.506 . S
O239 C219 1.252 . S
O240 Gd216 2.435 . S
O240 C226 1.256 1_655 S
O241 Gd216 2.717 1_455 S
O241 Gd217 2.327 . S
O241 C226 1.257 . S
O242 Gd217 2.377 . S
O242 C227 1.240 . S
O243 Gd216 2.395 1_455 S
O243 C227 1.240 . S
O244 Gd217 2.448 . S
O244 C228 1.249 . S
O245 Gd217 2.506 . S
O245 C228 1.252 . S
O246 Gd217 2.435 . S
O246 C235 1.256 . S
O247 Gd216 2.329 . S
O247 Gd217 2.714 1_655 S
O247 C235 1.255 1_655 S
H248 C221 0.930 . S
H249 C222 0.931 . S
H250 C224 0.931 . S
H251 C225 0.931 . S
H252 C230 0.930 . S
H253 C231 0.931 . S
H254 C233 0.931 . S
H255 C234 0.931 . S
H256 C274 0.951 . S
H257 C276 0.951 . S
H258 C278 0.950 . S
H259 C279 0.950 . S
H260 C281 0.950 . S
H261 C284 0.950 . S
H262 C285 0.950 . S
H263 C287 0.950 . S
H264 C288 0.950 . S
H265 C289 0.951 . S
H266 C291 0.951 . S
H267 C293 0.950 . S
H268 C294 0.950 . S
H269 C296 0.950 . S
H270 C299 0.950 . S
H271 C300 0.950 . S
H272 C302 0.950 . S
H273 C303 0.950 . S
C274 H256 0.951 . S
C274 C275 1.366 . S
C274 C276 1.388 . S
C275 C274 1.366 . S
C275 C279 1.385 . S
C276 H257 0.951 . S
C276 C274 1.388 . S
C276 C277 1.366 . S
C277 C276 1.366 . S
C277 C278 1.414 . S
C277 C280 1.499 . S
C278 H258 0.950 . S
C278 C277 1.414 . S
C278 C279 1.374 . S
C279 H259 0.950 . S
C279 C275 1.385 . S
C279 C278 1.374 . S
C280 C277 1.499 . S
C280 C281 1.373 . S
C280 C282 1.389 1_545 S
C281 H260 0.950 . S
C281 C280 1.373 . S
C281 C297 1.377 . S
C282 C280 1.389 1_565 S
C282 C283 1.524 . S
C282 C296 1.377 . S
C283 C282 1.524 . S
C283 C284 1.397 . S
C283 C288 1.363 . S
C284 H261 0.950 . S
C284 C283 1.397 . S
C284 C285 1.334 . S
C285 H262 0.950 . S
C285 C284 1.334 . S
C285 C286 1.287 . S
C286 C285 1.287 . S
C286 C287 1.524 . S
C286 H305 0.913 . S
C287 H263 0.950 . S
C287 C286 1.524 . S
C287 C288 1.415 . S
C288 H264 0.950 . S
C288 C283 1.363 . S
C288 C287 1.415 . S
C289 H265 0.951 . S
C289 C290 1.366 . S
C289 C291 1.388 . S
C290 C289 1.366 . S
C290 C294 1.385 . S
C291 H266 0.951 . S
C291 C289 1.388 . S
C291 C292 1.366 . S
C292 C291 1.366 . S
C292 C293 1.414 . S
C292 C295 1.499 . S
C293 H267 0.950 . S
C293 C292 1.414 . S
C293 C294 1.374 . S
C294 H268 0.950 . S
C294 C290 1.385 . S
C294 C293 1.374 . S
C295 C292 1.499 . S
C295 C296 1.373 1_545 S
C295 C297 1.389 . S
C296 H269 0.950 . S
C296 C282 1.377 . S
C296 C295 1.373 1_565 S
C297 C281 1.377 . S
C297 C295 1.389 . S
C297 C298 1.524 . S
C298 C297 1.524 . S
C298 C299 1.397 . S
C298 C303 1.363 . S
C299 H270 0.950 . S
C299 C298 1.397 . S
C299 C300 1.334 . S
C300 H271 0.950 . S
C300 C299 1.334 . S
C300 C301 1.287 . S
C301 C300 1.287 . S
C301 C302 1.524 . S
C301 H304 0.999 . S
C302 H272 0.950 . S
C302 C301 1.524 . S
C302 C303 1.415 . S
C303 H273 0.950 . S
C303 C298 1.363 . S
C303 C302 1.415 . S
H304 C301 0.999 . S
H305 C286 0.913 . S
H306 C324 0.951 . S
H307 C326 0.951 . S
H308 C328 0.950 . S
H309 C329 0.950 . S
H310 C331 0.950 . S
H311 C334 0.950 . S
H312 C335 0.950 . S
H313 C337 0.950 . S
H314 C338 0.950 . S
H315 C339 0.951 . S
H316 C341 0.951 . S
H317 C343 0.950 . S
H318 C344 0.950 . S
H319 C346 0.950 . S
H320 C349 0.950 . S
H321 C350 0.950 . S
H322 C352 0.950 . S
H323 C353 0.950 . S
C324 H306 0.951 . S
C324 C325 1.366 . S
C324 C326 1.388 . S
C325 C324 1.366 . S
C325 C329 1.385 . S
C326 H307 0.951 . S
C326 C324 1.388 . S
C326 C327 1.366 . S
C327 C326 1.366 . S
C327 C328 1.414 . S
C327 C330 1.499 . S
C328 H308 0.950 . S
C328 C327 1.414 . S
C328 C329 1.374 . S
C329 H309 0.950 . S
C329 C325 1.385 . S
C329 C328 1.374 . S
C330 C327 1.499 . S
C330 C331 1.373 . S
C330 C332 1.389 . S
C331 H310 0.950 . S
C331 C330 1.373 . S
C331 C347 1.377 . S
C332 C330 1.389 . S
C332 C333 1.524 . S
C332 C346 1.377 . S
C333 C332 1.524 . S
C333 C334 1.397 . S
C333 C338 1.363 . S
C334 H311 0.950 . S
C334 C333 1.397 . S
C334 C335 1.334 . S
C335 H312 0.950 . S
C335 C334 1.334 . S
C335 C336 1.287 . S
C336 C335 1.287 . S
C336 C337 1.524 . S
C336 H355 0.913 . S
C337 H313 0.950 . S
C337 C336 1.524 . S
C337 C338 1.415 . S
C338 H314 0.950 . S
C338 C333 1.363 . S
C338 C337 1.415 . S
C339 H315 0.951 . S
C339 C340 1.366 . S
C339 C341 1.388 . S
C340 C339 1.366 . S
C340 C344 1.385 . S
C341 H316 0.951 . S
C341 C339 1.388 . S
C341 C342 1.366 . S
C342 C341 1.366 . S
C342 C343 1.414 . S
C342 C345 1.499 . S
C343 H317 0.950 . S
C343 C342 1.414 . S
C343 C344 1.374 . S
C344 H318 0.950 . S
C344 C340 1.385 . S
C344 C343 1.374 . S
C345 C342 1.499 . S
C345 C346 1.373 . S
C345 C347 1.389 . S
C346 H319 0.950 . S
C346 C332 1.377 . S
C346 C345 1.373 . S
C347 C331 1.377 . S
C347 C345 1.389 . S
C347 C348 1.524 . S
C348 C347 1.524 . S
C348 C349 1.397 . S
C348 C353 1.363 . S
C349 H320 0.950 . S
C349 C348 1.397 . S
C349 C350 1.334 . S
C350 H321 0.950 . S
C350 C349 1.334 . S
C350 C351 1.287 . S
C351 C350 1.287 . S
C351 C352 1.524 . S
C351 H354 0.999 . S
C352 H322 0.950 . S
C352 C351 1.524 . S
C352 C353 1.415 . S
C353 H323 0.950 . S
C353 C348 1.363 . S
C353 C352 1.415 . S
H354 C351 0.999 . S
H355 C336 0.913 . S
H356 C374 0.951 . S
H357 C376 0.951 . S
H358 C378 0.950 . S
H359 C379 0.950 . S
H360 C381 0.950 . S
H361 C384 0.950 . S
H362 C385 0.950 . S
H363 C387 0.950 . S
H364 C388 0.950 . S
H365 C389 0.951 . S
H366 C391 0.951 . S
H367 C393 0.950 . S
H368 C394 0.950 . S
H369 C396 0.950 . S
H370 C399 0.950 . S
H371 C400 0.950 . S
H372 C402 0.950 . S
H373 C403 0.950 . S
C374 H356 0.951 . S
C374 C375 1.366 . S
C374 C376 1.388 . S
C375 C374 1.366 . S
C375 C379 1.385 . S
C376 H357 0.951 . S
C376 C374 1.388 . S
C376 C377 1.366 . S
C377 C376 1.366 . S
C377 C378 1.414 . S
C377 C380 1.499 . S
C378 H358 0.950 . S
C378 C377 1.414 . S
C378 C379 1.374 . S
C379 H359 0.950 . S
C379 C375 1.385 . S
C379 C378 1.374 . S
C380 C377 1.499 . S
C380 C381 1.373 . S
C380 C382 1.389 . S
C381 H360 0.950 . S
C381 C380 1.373 . S
C381 C397 1.377 . S
C382 C380 1.389 . S
C382 C383 1.524 . S
C382 C396 1.377 . S
C383 C382 1.524 . S
C383 C384 1.397 . S
C383 C388 1.363 . S
C384 H361 0.950 . S
C384 C383 1.397 . S
C384 C385 1.334 . S
C385 H362 0.950 . S
C385 C384 1.334 . S
C385 C386 1.287 . S
C386 C385 1.287 . S
C386 C387 1.524 . S
C386 H405 0.913 . S
C387 H363 0.950 . S
C387 C386 1.524 . S
C387 C388 1.415 . S
C388 H364 0.950 . S
C388 C383 1.363 . S
C388 C387 1.415 . S
C389 H365 0.951 . S
C389 C390 1.366 . S
C389 C391 1.388 . S
C390 C389 1.366 . S
C390 C394 1.385 . S
C391 H366 0.951 . S
C391 C389 1.388 . S
C391 C392 1.366 . S
C392 C391 1.366 . S
C392 C393 1.414 . S
C392 C395 1.499 . S
C393 H367 0.950 . S
C393 C392 1.414 . S
C393 C394 1.374 . S
C394 H368 0.950 . S
C394 C390 1.385 . S
C394 C393 1.374 . S
C395 C392 1.499 . S
C395 C396 1.373 . S
C395 C397 1.389 . S
C396 H369 0.950 . S
C396 C382 1.377 . S
C396 C395 1.373 . S
C397 C381 1.377 . S
C397 C395 1.389 . S
C397 C398 1.524 . S
C398 C397 1.524 . S
C398 C399 1.397 . S
C398 C403 1.363 . S
C399 H370 0.950 . S
C399 C398 1.397 . S
C399 C400 1.334 . S
C400 H371 0.950 . S
C400 C399 1.334 . S
C400 C401 1.287 . S
C401 C400 1.287 . S
C401 C402 1.524 . S
C401 H404 0.999 . S
C402 H372 0.950 . S
C402 C401 1.524 . S
C402 C403 1.415 . S
C403 H373 0.950 . S
C403 C398 1.363 . S
C403 C402 1.415 . S
H404 C401 0.999 . S
H405 C386 0.913 . S
H406 C424 0.951 . S
H407 C426 0.951 . S
H408 C428 0.950 . S
H409 C429 0.950 . S
H410 C431 0.950 . S
H411 C434 0.950 . S
H412 C435 0.950 . S
H413 C437 0.950 . S
H414 C438 0.950 . S
H415 C439 0.951 . S
H416 C441 0.951 . S
H417 C443 0.950 . S
H418 C444 0.950 . S
H419 C446 0.950 . S
H420 C449 0.950 . S
H421 C450 0.950 . S
H422 C452 0.950 . S
H423 C453 0.950 . S
C424 H406 0.951 . S
C424 C425 1.366 . S
C424 C426 1.388 . S
C425 C424 1.366 . S
C425 C429 1.385 . S
C426 H407 0.951 . S
C426 C424 1.388 . S
C426 C427 1.366 . S
C427 C426 1.366 . S
C427 C428 1.414 . S
C427 C430 1.499 . S
C428 H408 0.950 . S
C428 C427 1.414 . S
C428 C429 1.374 . S
C429 H409 0.950 . S
C429 C425 1.385 . S
C429 C428 1.374 . S
C430 C427 1.499 . S
C430 C431 1.373 . S
C430 C432 1.389 1_455 S
C431 H410 0.950 . S
C431 C430 1.373 . S
C431 C447 1.377 . S
C432 C430 1.389 1_655 S
C432 C433 1.524 . S
C432 C446 1.377 . S
C433 C432 1.524 . S
C433 C434 1.397 . S
C433 C438 1.363 . S
C434 H411 0.950 . S
C434 C433 1.397 . S
C434 C435 1.334 . S
C435 H412 0.950 . S
C435 C434 1.334 . S
C435 C436 1.287 . S
C436 C435 1.287 . S
C436 C437 1.524 . S
C436 H455 0.913 . S
C437 H413 0.950 . S
C437 C436 1.524 . S
C437 C438 1.415 . S
C438 H414 0.950 . S
C438 C433 1.363 . S
C438 C437 1.415 . S
C439 H415 0.951 . S
C439 C440 1.366 . S
C439 C441 1.388 . S
C440 C439 1.366 . S
C440 C444 1.385 . S
C441 H416 0.951 . S
C441 C439 1.388 . S
C441 C442 1.366 . S
C442 C441 1.366 . S
C442 C443 1.414 . S
C442 C445 1.499 . S
C443 H417 0.950 . S
C443 C442 1.414 . S
C443 C444 1.374 . S
C444 H418 0.950 . S
C444 C440 1.385 . S
C444 C443 1.374 . S
C445 C442 1.499 . S
C445 C446 1.373 1_455 S
C445 C447 1.389 . S
C446 H419 0.950 . S
C446 C432 1.377 . S
C446 C445 1.373 1_655 S
C447 C431 1.377 . S
C447 C445 1.389 . S
C447 C448 1.524 . S
C448 C447 1.524 . S
C448 C449 1.397 . S
C448 C453 1.363 . S
C449 H420 0.950 . S
C449 C448 1.397 . S
C449 C450 1.334 . S
C450 H421 0.950 . S
C450 C449 1.334 . S
C450 C451 1.287 . S
C451 C450 1.287 . S
C451 C452 1.524 . S
C451 H454 0.999 . S
C452 H422 0.950 . S
C452 C451 1.524 . S
C452 C453 1.415 . S
C453 H423 0.950 . S
C453 C448 1.363 . S
C453 C452 1.415 . S
H454 C451 0.999 . S
H455 C436 0.913 . S
H456 C474 0.951 . S
H457 C476 0.951 . S
H458 C478 0.951 1_545 S
H459 C479 0.952 . S
H460 C481 0.950 . S
H461 C484 0.950 . S
H462 C485 0.950 . S
H463 C487 0.950 . S
H464 C488 0.950 . S
H465 C489 0.951 . S
H466 C491 0.951 1_554 S
H467 C493 0.953 . S
H468 C494 0.951 . S
H469 C496 0.950 . S
H470 C499 0.950 . S
H471 C500 0.950 . S
H472 C502 0.950 . S
H473 C503 0.950 . S
C474 H456 0.951 . S
C474 C475 1.366 . S
C474 C476 1.388 . S
C475 C474 1.366 . S
C475 C479 1.385 . S
C476 H457 0.951 . S
C476 C474 1.388 . S
C476 C477 1.366 . S
C477 C476 1.366 . S
C477 C478 1.414 . S
C477 C480 1.499 . S
C478 H458 0.951 1_565 S
C478 C477 1.414 . S
C478 C479 1.374 . S
C479 H459 0.952 . S
C479 C475 1.385 . S
C479 C478 1.374 . S
C480 C477 1.499 . S
C480 C481 1.373 1_565 S
C480 C482 1.389 . S
C481 H460 0.950 . S
C481 C480 1.373 1_545 S
C481 C497 1.377 . S
C482 C480 1.389 . S
C482 C483 1.524 . S
C482 C496 1.377 1_554 S
C483 C482 1.524 . S
C483 C484 1.397 . S
C483 C488 1.363 1_554 S
C484 H461 0.950 . S
C484 C483 1.397 . S
C484 C485 1.334 . S
C485 H462 0.950 . S
C485 C484 1.334 . S
C485 C486 1.287 . S
C486 C485 1.287 . S
C486 C487 1.524 1_554 S
C486 H505 0.913 . S
C487 H463 0.950 . S
C487 C486 1.524 1_556 S
C487 C488 1.415 . S
C488 H464 0.950 . S
C488 C483 1.363 1_556 S
C488 C487 1.415 . S
C489 H465 0.951 . S
C489 C490 1.370 . S
C489 C491 1.388 . S
C490 C489 1.370 . S
C490 C494 1.382 1_545 S
C491 H466 0.951 1_556 S
C491 C489 1.388 . S
C491 C492 1.366 . S
C492 C491 1.366 . S
C492 C493 1.412 1_545 S
C492 C495 1.500 . S
C493 H467 0.953 . S
C493 C492 1.412 1_565 S
C493 C494 1.374 . S
C494 H468 0.951 . S
C494 C490 1.382 1_565 S
C494 C493 1.374 . S
C495 C492 1.500 . S
C495 C496 1.346 1_545 S
C495 C497 1.414 1_556 S
C496 H469 0.950 . S
C496 C482 1.377 1_556 S
C496 C495 1.346 1_565 S
C497 C481 1.377 . S
C497 C495 1.414 1_554 S
C497 C498 1.524 . S
C498 C497 1.524 . S
C498 C499 1.397 1_554 S
C498 C503 1.363 . S
C499 H470 0.950 . S
C499 C498 1.397 1_556 S
C499 C500 1.334 . S
C500 H471 0.950 . S
C500 C499 1.334 . S
C500 C501 1.287 1_556 S
C501 C500 1.287 1_554 S
C501 C502 1.524 . S
C501 H504 0.999 . S
C502 H472 0.950 . S
C502 C501 1.524 . S
C502 C503 1.415 . S
C503 H473 0.950 . S
C503 C498 1.363 . S
C503 C502 1.415 . S
H504 C501 0.999 . S
H505 C486 0.913 . S
H506 C524 0.951 . S
H507 C526 0.951 . S
H508 C528 0.950 . S
H509 C529 0.950 . S
H510 C531 0.950 . S
H511 C534 0.950 . S
H512 C535 0.950 . S
H513 C537 0.950 . S
H514 C538 0.950 . S
H515 C539 0.951 . S
H516 C541 0.951 . S
H517 C543 0.950 . S
H518 C544 0.950 . S
H519 C546 0.950 . S
H520 C549 0.950 . S
H521 C550 0.950 . S
H522 C552 0.950 . S
H523 C553 0.950 . S
C524 H506 0.951 . S
C524 C525 1.366 . S
C524 C526 1.388 . S
C525 C524 1.366 . S
C525 C529 1.385 . S
C526 H507 0.951 . S
C526 C524 1.388 . S
C526 C527 1.366 . S
C527 C526 1.366 . S
C527 C528 1.414 . S
C527 C530 1.499 . S
C528 H508 0.950 . S
C528 C527 1.414 . S
C528 C529 1.374 . S
C529 H509 0.950 . S
C529 C525 1.385 . S
C529 C528 1.374 . S
C530 C527 1.499 . S
C530 C531 1.373 . S
C530 C532 1.389 . S
C531 H510 0.950 . S
C531 C530 1.373 . S
C531 C547 1.377 1_554 S
C532 C530 1.389 . S
C532 C533 1.524 . S
C532 C546 1.377 . S
C533 C532 1.524 . S
C533 C534 1.397 . S
C533 C538 1.363 . S
C534 H511 0.950 . S
C534 C533 1.397 . S
C534 C535 1.334 . S
C535 H512 0.950 . S
C535 C534 1.334 . S
C535 C536 1.287 . S
C536 C535 1.287 . S
C536 C537 1.524 . S
C536 H555 0.913 . S
C537 H513 0.950 . S
C537 C536 1.524 . S
C537 C538 1.415 . S
C538 H514 0.950 . S
C538 C533 1.363 . S
C538 C537 1.415 . S
C539 H515 0.951 . S
C539 C540 1.366 . S
C539 C541 1.388 . S
C540 C539 1.366 . S
C540 C544 1.385 . S
C541 H516 0.951 . S
C541 C539 1.388 . S
C541 C542 1.366 . S
C542 C541 1.366 . S
C542 C543 1.414 . S
C542 C545 1.499 . S
C543 H517 0.950 . S
C543 C542 1.414 . S
C543 C544 1.374 . S
C544 H518 0.950 . S
C544 C540 1.385 . S
C544 C543 1.374 . S
C545 C542 1.499 . S
C545 C546 1.373 1_556 S
C545 C547 1.389 . S
C546 H519 0.950 . S
C546 C532 1.377 . S
C546 C545 1.373 1_554 S
C547 C531 1.377 1_556 S
C547 C545 1.389 . S
C547 C548 1.524 . S
C548 C547 1.524 . S
C548 C549 1.397 . S
C548 C553 1.363 . S
C549 H520 0.950 . S
C549 C548 1.397 . S
C549 C550 1.334 . S
C550 H521 0.950 . S
C550 C549 1.334 . S
C550 C551 1.287 . S
C551 C550 1.287 . S
C551 C552 1.524 . S
C551 H554 0.999 . S
C552 H522 0.950 . S
C552 C551 1.524 . S
C552 C553 1.415 . S
C553 H523 0.950 . S
C553 C548 1.363 . S
C553 C552 1.415 . S
H554 C551 0.999 . S
H555 C536 0.913 . S
H556 C574 0.951 . S
H557 C576 0.951 . S
H558 C578 0.950 . S
H559 C579 0.950 . S
H560 C581 0.950 . S
H561 C584 0.950 1_554 S
H562 C585 0.950 . S
H563 C587 0.950 . S
H564 C588 0.950 . S
H565 C589 0.951 . S
H566 C591 0.951 . S
H567 C593 0.950 . S
H568 C594 0.950 . S
H569 C596 0.950 . S
H570 C599 0.950 . S
H571 C600 0.950 . S
H572 C602 0.950 . S
H573 C603 0.950 . S
C574 H556 0.951 . S
C574 C575 1.366 . S
C574 C576 1.388 . S
C575 C574 1.366 . S
C575 C579 1.385 . S
C576 H557 0.951 . S
C576 C574 1.388 . S
C576 C577 1.366 . S
C577 C576 1.366 . S
C577 C578 1.414 . S
C577 C580 1.499 . S
C578 H558 0.950 . S
C578 C577 1.414 . S
C578 C579 1.374 . S
C579 H559 0.950 . S
C579 C575 1.385 . S
C579 C578 1.374 . S
C580 C577 1.499 . S
C580 C581 1.373 . S
C580 C582 1.389 . S
C581 H560 0.950 . S
C581 C580 1.373 . S
C581 C597 1.377 . S
C582 C580 1.389 . S
C582 C583 1.524 1_554 S
C582 C596 1.377 1_554 S
C583 C582 1.524 1_556 S
C583 C584 1.397 . S
C583 C588 1.363 . S
C584 H561 0.950 1_556 S
C584 C583 1.397 . S
C584 C585 1.334 . S
C585 H562 0.950 . S
C585 C584 1.334 . S
C585 C586 1.287 . S
C586 C585 1.287 . S
C586 C587 1.524 . S
C586 H605 0.913 . S
C587 H563 0.950 . S
C587 C586 1.524 . S
C587 C588 1.415 . S
C588 H564 0.950 . S
C588 C583 1.363 . S
C588 C587 1.415 . S
C589 H565 0.951 . S
C589 C590 1.366 . S
C589 C591 1.388 . S
C590 C589 1.366 . S
C590 C594 1.385 . S
C591 H566 0.951 . S
C591 C589 1.388 . S
C591 C592 1.366 . S
C592 C591 1.366 . S
C592 C593 1.414 . S
C592 C595 1.499 . S
C593 H567 0.950 . S
C593 C592 1.414 . S
C593 C594 1.374 . S
C594 H568 0.950 . S
C594 C590 1.385 . S
C594 C593 1.374 . S
C595 C592 1.499 . S
C595 C596 1.373 . S
C595 C597 1.389 1_556 S
C596 H569 0.950 . S
C596 C582 1.377 1_556 S
C596 C595 1.373 . S
C597 C581 1.377 . S
C597 C595 1.389 1_554 S
C597 C598 1.524 . S
C598 C597 1.524 . S
C598 C599 1.397 . S
C598 C603 1.363 . S
C599 H570 0.950 . S
C599 C598 1.397 . S
C599 C600 1.334 . S
C600 H571 0.950 . S
C600 C599 1.334 . S
C600 C601 1.287 . S
C601 C600 1.287 . S
C601 C602 1.524 . S
C601 H604 0.999 . S
C602 H572 0.950 . S
C602 C601 1.524 . S
C602 C603 1.415 . S
C603 H573 0.950 . S
C603 C598 1.363 . S
C603 C602 1.415 . S
H604 C601 0.999 . S
H605 C586 0.913 . S
H606 C624 0.951 . S
H607 C626 0.951 . S
H608 C628 0.950 . S
H609 C629 0.950 . S
H610 C631 0.950 . S
H611 C634 0.950 . S
H612 C635 0.950 . S
H613 C637 0.950 . S
H614 C638 0.950 . S
H615 C639 0.951 . S
H616 C641 0.951 . S
H617 C643 0.950 1_554 S
H618 C644 0.958 . S
H619 C646 0.950 . S
H620 C649 0.950 . S
H621 C650 0.950 . S
H622 C652 0.950 . S
H623 C653 0.950 . S
C624 H606 0.951 . S
C624 C625 1.366 . S
C624 C626 1.388 . S
C625 C624 1.366 . S
C625 C629 1.385 1_655 S
C626 H607 0.951 . S
C626 C624 1.388 . S
C626 C627 1.363 1_655 S
C627 C626 1.363 1_455 S
C627 C628 1.415 . S
C627 C630 1.498 . S
C628 H608 0.950 . S
C628 C627 1.415 . S
C628 C629 1.374 . S
C629 H609 0.950 . S
C629 C625 1.385 1_455 S
C629 C628 1.374 . S
C630 C627 1.498 . S
C630 C631 1.339 1_455 S
C630 C632 1.423 . S
C631 H610 0.950 . S
C631 C630 1.339 1_655 S
C631 C647 1.377 1_554 S
C632 C630 1.423 . S
C632 C633 1.524 . S
C632 C646 1.377 . S
C633 C632 1.524 . S
C633 C634 1.397 . S
C633 C638 1.363 . S
C634 H611 0.950 . S
C634 C633 1.397 . S
C634 C635 1.334 . S
C635 H612 0.950 . S
C635 C634 1.334 . S
C635 C636 1.287 . S
C636 C635 1.287 . S
C636 C637 1.524 . S
C636 H655 0.913 . S
C637 H613 0.950 . S
C637 C636 1.524 . S
C637 C638 1.415 . S
C638 H614 0.950 . S
C638 C633 1.363 . S
C638 C637 1.415 . S
C639 H615 0.951 . S
C639 C640 1.366 . S
C639 C641 1.388 . S
C640 C639 1.366 . S
C640 C644 1.377 1_455 S
C641 H616 0.951 . S
C641 C639 1.388 . S
C641 C642 1.365 . S
C642 C641 1.365 . S
C642 C643 1.414 1_455 S
C642 C645 1.498 1_455 S
C643 H617 0.950 1_556 S
C643 C642 1.414 1_655 S
C643 C644 1.377 . S
C644 H618 0.958 . S
C644 C640 1.377 1_655 S
C644 C643 1.377 . S
C645 C642 1.498 1_655 S
C645 C646 1.355 1_656 S
C645 C647 1.407 . S
C646 H619 0.950 . S
C646 C632 1.377 . S
C646 C645 1.355 1_454 S
C647 C631 1.377 1_556 S
C647 C645 1.407 . S
C647 C648 1.524 . S
C648 C647 1.524 . S
C648 C649 1.397 . S
C648 C653 1.363 . S
C649 H620 0.950 . S
C649 C648 1.397 . S
C649 C650 1.334 . S
C650 H621 0.950 . S
C650 C649 1.334 . S
C650 C651 1.287 . S
C651 C650 1.287 . S
C651 C652 1.524 . S
C651 H654 0.999 . S
C652 H622 0.950 . S
C652 C651 1.524 . S
C652 C653 1.415 . S
C653 H623 0.950 . S
C653 C648 1.363 . S
C653 C652 1.415 . S
H654 C651 0.999 . S
H655 C636 0.913 . S
H656 C674 0.951 . S
H657 C676 0.951 . S
H658 C678 0.937 1_655 S
H659 C679 0.950 . S
H660 C681 0.950 . S
H661 C684 0.950 . S
H662 C685 0.950 . S
H663 C687 0.950 . S
H664 C688 0.950 . S
H665 C689 0.951 . S
H666 C691 0.951 . S
H667 C693 0.950 . S
H668 C694 0.950 . S
H669 C696 0.950 . S
H670 C699 0.950 . S
H671 C700 0.950 . S
H672 C702 0.950 . S
H673 C703 0.950 . S
C674 H656 0.951 . S
C674 C675 1.366 . S
C674 C676 1.388 . S
C675 C674 1.366 . S
C675 C679 1.385 . S
C676 H657 0.951 . S
C676 C674 1.388 . S
C676 C677 1.366 . S
C677 C676 1.366 . S
C677 C678 1.414 . S
C677 C680 1.489 1_455 S
C678 H658 0.937 1_455 S
C678 C677 1.414 . S
C678 C679 1.374 . S
C679 H659 0.950 . S
C679 C675 1.385 . S
C679 C678 1.374 . S
C680 C677 1.489 1_655 S
C680 C681 1.349 1_655 S
C680 C682 1.422 . S
C681 H660 0.950 . S
C681 C680 1.349 1_455 S
C681 C697 1.377 . S
C682 C680 1.422 . S
C682 C683 1.524 . S
C682 C696 1.377 . S
C683 C682 1.524 . S
C683 C684 1.397 . S
C683 C688 1.363 . S
C684 H661 0.950 . S
C684 C683 1.397 . S
C684 C685 1.334 . S
C685 H662 0.950 . S
C685 C684 1.334 . S
C685 C686 1.287 1_554 S
C686 C685 1.287 1_556 S
C686 C687 1.524 . S
C686 H705 0.913 . S
C687 H663 0.950 . S
C687 C686 1.524 . S
C687 C688 1.415 1_556 S
C688 H664 0.950 . S
C688 C683 1.363 . S
C688 C687 1.415 1_554 S
C689 H665 0.951 . S
C689 C690 1.366 . S
C689 C691 1.388 . S
C690 C689 1.366 . S
C690 C694 1.385 . S
C691 H666 0.951 . S
C691 C689 1.388 . S
C691 C692 1.366 . S
C692 C691 1.366 . S
C692 C693 1.414 . S
C692 C695 1.499 . S
C693 H667 0.950 . S
C693 C692 1.414 . S
C693 C694 1.374 . S
C694 H668 0.950 . S
C694 C690 1.385 . S
C694 C693 1.374 . S
C695 C692 1.499 . S
C695 C696 1.373 . S
C695 C697 1.389 1_655 S
C696 H669 0.950 . S
C696 C682 1.377 . S
C696 C695 1.373 . S
C697 C681 1.377 . S
C697 C695 1.389 1_455 S
C697 C698 1.524 . S
C698 C697 1.524 . S
C698 C699 1.397 . S
C698 C703 1.363 . S
C699 H670 0.950 . S
C699 C698 1.397 . S
C699 C700 1.334 . S
C700 H671 0.950 . S
C700 C699 1.334 . S
C700 C701 1.287 . S
C701 C700 1.287 . S
C701 C702 1.524 . S
C701 H704 0.999 . S
C702 H672 0.950 . S
C702 C701 1.524 . S
C702 C703 1.415 . S
C703 H673 0.950 . S
C703 C698 1.363 . S
C703 C702 1.415 . S
H704 C701 0.999 . S
H705 C686 0.913 . S
H706 C724 0.951 . S
H707 C726 0.951 . S
H708 C728 0.950 . S
H709 C729 0.950 . S
H710 C731 0.950 . S
H711 C734 0.950 1_545 S
H712 C735 0.950 1_545 S
H713 C737 0.950 . S
H714 C738 0.950 . S
H715 C739 0.951 1_545 S
H716 C741 0.951 . S
H717 C743 0.950 . S
H718 C744 0.950 . S
H719 C746 0.950 . S
H720 C749 0.950 . S
H721 C750 0.981 . S
H722 C752 0.950 . S
H723 C753 0.950 . S
C724 H706 0.951 . S
C724 C725 1.366 1_565 S
C724 C726 1.388 . S
C725 C724 1.366 1_545 S
C725 C729 1.385 . S
C726 H707 0.951 . S
C726 C724 1.388 . S
C726 C727 1.366 1_565 S
C727 C726 1.366 1_545 S
C727 C728 1.414 . S
C727 C730 1.498 . S
C728 H708 0.950 . S
C728 C727 1.414 . S
C728 C729 1.374 . S
C729 H709 0.950 . S
C729 C725 1.385 . S
C729 C728 1.374 . S
C730 C727 1.498 . S
C730 C731 1.371 . S
C730 C732 1.393 1_545 S
C731 H710 0.950 . S
C731 C730 1.371 . S
C731 C747 1.377 . S
C732 C730 1.393 1_565 S
C732 C733 1.524 . S
C732 C746 1.377 . S
C733 C732 1.524 . S
C733 C734 1.397 . S
C733 C738 1.363 . S
C734 H711 0.950 1_565 S
C734 C733 1.397 . S
C734 C735 1.334 . S
C735 H712 0.950 1_565 S
C735 C734 1.334 . S
C735 C736 1.287 . S
C736 C735 1.287 . S
C736 C737 1.524 . S
C736 H755 0.913 . S
C737 H713 0.950 . S
C737 C736 1.524 . S
C737 C738 1.415 . S
C738 H714 0.950 . S
C738 C733 1.363 . S
C738 C737 1.415 . S
C739 H715 0.951 1_565 S
C739 C740 1.366 . S
C739 C741 1.388 1_565 S
C740 C739 1.366 . S
C740 C744 1.385 . S
C741 H716 0.951 . S
C741 C739 1.388 1_545 S
C741 C742 1.366 1_545 S
C742 C741 1.366 1_565 S
C742 C743 1.414 . S
C742 C745 1.499 . S
C743 H717 0.950 . S
C743 C742 1.414 . S
C743 C744 1.374 . S
C744 H718 0.950 . S
C744 C740 1.385 . S
C744 C743 1.374 . S
C745 C742 1.499 . S
C745 C746 1.373 . S
C745 C747 1.389 1_565 S
C746 H719 0.950 . S
C746 C732 1.377 . S
C746 C745 1.373 . S
C747 C731 1.377 . S
C747 C745 1.389 1_545 S
C747 C748 1.524 . S
C748 C747 1.524 . S
C748 C749 1.397 1_545 S
C748 C753 1.363 . S
C749 H720 0.950 . S
C749 C748 1.397 1_565 S
C749 C750 1.345 . S
C750 H721 0.981 . S
C750 C749 1.345 . S
C750 C751 1.245 1_565 S
C751 C750 1.245 1_545 S
C751 C752 1.524 . S
C751 H754 0.999 . S
C752 H722 0.950 . S
C752 C751 1.524 . S
C752 C753 1.415 . S
C753 H723 0.950 . S
C753 C748 1.363 . S
C753 C752 1.415 . S
H754 C751 0.999 . S
H755 C736 0.913 . S
H756 C774 0.951 . S
H757 C776 0.951 . S
H758 C778 0.950 . S
H759 C779 0.950 . S
H760 C781 0.950 . S
H761 C784 0.950 . S
H762 C785 0.950 . S
H763 C787 0.950 . S
H764 C788 0.950 . S
H765 C789 0.951 . S
H766 C791 0.951 . S
H767 C793 0.950 . S
H768 C794 0.950 . S
H769 C796 0.950 . S
H770 C799 0.950 . S
H771 C800 0.950 . S
H772 C802 0.950 . S
H773 C803 0.950 . S
C774 H756 0.951 . S
C774 C775 1.366 . S
C774 C776 1.388 . S
C775 C774 1.366 . S
C775 C779 1.385 . S
C776 H757 0.951 . S
C776 C774 1.388 . S
C776 C777 1.366 . S
C777 C776 1.366 . S
C777 C778 1.414 . S
C777 C780 1.499 . S
C778 H758 0.950 . S
C778 C777 1.414 . S
C778 C779 1.374 . S
C779 H759 0.950 . S
C779 C775 1.385 . S
C779 C778 1.374 . S
C780 C777 1.499 . S
C780 C781 1.373 . S
C780 C782 1.389 . S
C781 H760 0.950 . S
C781 C780 1.373 . S
C781 C797 1.377 . S
C782 C780 1.389 . S
C782 C783 1.524 . S
C782 C796 1.377 . S
C783 C782 1.524 . S
C783 C784 1.397 . S
C783 C788 1.363 . S
C784 H761 0.950 . S
C784 C783 1.397 . S
C784 C785 1.334 . S
C785 H762 0.950 . S
C785 C784 1.334 . S
C785 C786 1.287 . S
C786 C785 1.287 . S
C786 C787 1.524 . S
C786 H805 0.913 . S
C787 H763 0.950 . S
C787 C786 1.524 . S
C787 C788 1.415 . S
C788 H764 0.950 . S
C788 C783 1.363 . S
C788 C787 1.415 . S
C789 H765 0.951 . S
C789 C790 1.366 . S
C789 C791 1.388 . S
C790 C789 1.366 . S
C790 C794 1.385 . S
C791 H766 0.951 . S
C791 C789 1.388 . S
C791 C792 1.366 . S
C792 C791 1.366 . S
C792 C793 1.414 . S
C792 C795 1.499 . S
C793 H767 0.950 . S
C793 C792 1.414 . S
C793 C794 1.374 . S
C794 H768 0.950 . S
C794 C790 1.385 . S
C794 C793 1.374 . S
C795 C792 1.499 . S
C795 C796 1.373 . S
C795 C797 1.389 . S
C796 H769 0.950 . S
C796 C782 1.377 . S
C796 C795 1.373 . S
C797 C781 1.377 . S
C797 C795 1.389 . S
C797 C798 1.524 . S
C798 C797 1.524 . S
C798 C799 1.397 . S
C798 C803 1.363 . S
C799 H770 0.950 . S
C799 C798 1.397 . S
C799 C800 1.334 . S
C800 H771 0.950 . S
C800 C799 1.334 . S
C800 C801 1.287 . S
C801 C800 1.287 . S
C801 C802 1.524 . S
C801 H804 0.999 . S
C802 H772 0.950 . S
C802 C801 1.524 . S
C802 C803 1.415 . S
C803 H773 0.950 . S
C803 C798 1.363 . S
C803 C802 1.415 . S
H804 C801 0.999 . S
H805 C786 0.913 . S
H806 C824 0.951 . S
H807 C826 0.951 . S
H808 C828 0.950 . S
H809 C829 0.950 . S
H810 C831 0.950 . S
H811 C834 0.950 . S
H812 C835 0.950 . S
H813 C837 0.950 . S
H814 C838 0.950 . S
H815 C839 0.951 . S
H816 C841 0.951 . S
H817 C843 0.950 . S
H818 C844 0.950 . S
H819 C846 0.950 . S
H820 C849 0.950 . S
H821 C850 0.950 . S
H822 C852 0.950 . S
H823 C853 0.950 . S
C824 H806 0.951 . S
C824 C825 1.366 . S
C824 C826 1.388 . S
C825 C824 1.366 . S
C825 C829 1.385 . S
C826 H807 0.951 . S
C826 C824 1.388 . S
C826 C827 1.366 . S
C827 C826 1.366 . S
C827 C828 1.414 . S
C827 C830 1.499 . S
C828 H808 0.950 . S
C828 C827 1.414 . S
C828 C829 1.374 . S
C829 H809 0.950 . S
C829 C825 1.385 . S
C829 C828 1.374 . S
C830 C827 1.499 . S
C830 C831 1.373 . S
C830 C832 1.389 . S
C831 H810 0.950 . S
C831 C830 1.373 . S
C831 C847 1.377 . S
C832 C830 1.389 . S
C832 C833 1.524 . S
C832 C846 1.377 . S
C833 C832 1.524 . S
C833 C834 1.397 . S
C833 C838 1.363 . S
C834 H811 0.950 . S
C834 C833 1.397 . S
C834 C835 1.334 . S
C835 H812 0.950 . S
C835 C834 1.334 . S
C835 C836 1.287 . S
C836 C835 1.287 . S
C836 C837 1.524 . S
C836 H855 0.913 . S
C837 H813 0.950 . S
C837 C836 1.524 . S
C837 C838 1.415 . S
C838 H814 0.950 . S
C838 C833 1.363 . S
C838 C837 1.415 . S
C839 H815 0.951 . S
C839 C840 1.366 . S
C839 C841 1.388 . S
C840 C839 1.366 . S
C840 C844 1.385 . S
C841 H816 0.951 . S
C841 C839 1.388 . S
C841 C842 1.366 . S
C842 C841 1.366 . S
C842 C843 1.414 . S
C842 C845 1.499 . S
C843 H817 0.950 . S
C843 C842 1.414 . S
C843 C844 1.374 . S
C844 H818 0.950 . S
C844 C840 1.385 . S
C844 C843 1.374 . S
C845 C842 1.499 . S
C845 C846 1.373 . S
C845 C847 1.389 . S
C846 H819 0.950 . S
C846 C832 1.377 . S
C846 C845 1.373 . S
C847 C831 1.377 . S
C847 C845 1.389 . S
C847 C848 1.524 . S
C848 C847 1.524 . S
C848 C849 1.397 . S
C848 C853 1.363 . S
C849 H820 0.950 . S
C849 C848 1.397 . S
C849 C850 1.334 . S
C850 H821 0.950 . S
C850 C849 1.334 . S
C850 C851 1.287 . S
C851 C850 1.287 . S
C851 C852 1.524 . S
C851 H854 0.999 . S
C852 H822 0.950 . S
C852 C851 1.524 . S
C852 C853 1.415 . S
C853 H823 0.950 . S
C853 C848 1.363 . S
C853 C852 1.415 . S
H854 C851 0.999 . S
H855 C836 0.913 . S
H856 C874 0.951 . S
H857 C876 0.951 . S
H858 C878 0.950 . S
H859 C879 0.950 . S
H860 C881 0.950 . S
H861 C884 0.950 . S
H862 C885 0.950 . S
H863 C887 0.950 . S
H864 C888 0.950 . S
H865 C889 0.951 . S
H866 C891 0.951 1_655 S
H867 C893 0.950 . S
H868 C894 0.950 . S
H869 C896 0.950 . S
H870 C899 0.950 . S
H871 C900 0.950 . S
H872 C902 0.950 . S
H873 C903 0.950 . S
C874 H856 0.951 . S
C874 C875 1.366 1_455 S
C874 C876 1.388 . S
C875 C874 1.366 1_655 S
C875 C879 1.385 . S
C876 H857 0.951 . S
C876 C874 1.388 . S
C876 C877 1.366 . S
C877 C876 1.366 . S
C877 C878 1.414 1_455 S
C877 C880 1.499 . S
C878 H858 0.950 . S
C878 C877 1.414 1_655 S
C878 C879 1.374 . S
C879 H859 0.950 . S
C879 C875 1.385 . S
C879 C878 1.374 . S
C880 C877 1.499 . S
C880 C881 1.373 . S
C880 C882 1.389 . S
C881 H860 0.950 . S
C881 C880 1.373 . S
C881 C897 1.377 . S
C882 C880 1.389 . S
C882 C883 1.524 . S
C882 C896 1.377 . S
C883 C882 1.524 . S
C883 C884 1.397 1_455 S
C883 C888 1.363 . S
C884 H861 0.950 . S
C884 C883 1.397 1_655 S
C884 C885 1.334 . S
C885 H862 0.950 . S
C885 C884 1.334 . S
C885 C886 1.287 1_655 S
C886 C885 1.287 1_455 S
C886 C887 1.524 . S
C886 H905 0.913 . S
C887 H863 0.950 . S
C887 C886 1.524 . S
C887 C888 1.415 . S
C888 H864 0.950 . S
C888 C883 1.363 . S
C888 C887 1.415 . S
C889 H865 0.951 . S
C889 C890 1.366 . S
C889 C891 1.388 . S
C890 C889 1.366 . S
C890 C894 1.385 1_556 S
C891 H866 0.951 1_455 S
C891 C889 1.388 . S
C891 C892 1.366 1_556 S
C892 C891 1.366 1_554 S
C892 C893 1.414 . S
C892 C895 1.499 . S
C893 H867 0.950 . S
C893 C892 1.414 . S
C893 C894 1.374 . S
C894 H868 0.950 . S
C894 C890 1.385 1_554 S
C894 C893 1.374 . S
C895 C892 1.499 . S
C895 C896 1.373 . S
C895 C897 1.389 . S
C896 H869 0.950 . S
C896 C882 1.377 . S
C896 C895 1.373 . S
C897 C881 1.377 . S
C897 C895 1.389 . S
C897 C898 1.524 1_554 S
C898 C897 1.524 1_556 S
C898 C899 1.397 . S
C898 C903 1.363 1_455 S
C899 H870 0.950 . S
C899 C898 1.397 . S
C899 C900 1.334 . S
C900 H871 0.950 . S
C900 C899 1.334 . S
C900 C901 1.287 . S
C901 C900 1.287 . S
C901 C902 1.524 1_455 S
C901 H904 0.999 . S
C902 H872 0.950 . S
C902 C901 1.524 1_655 S
C902 C903 1.415 . S
C903 H873 0.950 . S
C903 C898 1.363 1_655 S
C903 C902 1.415 . S
H904 C901 0.999 . S
H905 C886 0.913 . S
H906 C924 0.953 . S
H907 C926 0.951 . S
H908 C928 0.950 . S
H909 C929 0.950 . S
H910 C931 0.950 . S
H911 C934 0.950 . S
H912 C935 0.950 . S
H913 C937 0.950 1_556 S
H914 C938 0.950 1_556 S
H915 C939 0.951 . S
H916 C941 0.951 . S
H917 C943 0.950 . S
H918 C944 0.950 . S
H919 C946 0.950 . S
H920 C949 0.950 . S
H921 C950 0.950 . S
H922 C952 0.950 . S
H923 C953 0.950 . S
C924 H906 0.953 . S
C924 C925 1.374 . S
C924 C926 1.380 1_565 S
C925 C924 1.374 . S
C925 C929 1.385 . S
C926 H907 0.951 . S
C926 C924 1.380 1_545 S
C926 C927 1.366 . S
C927 C926 1.366 . S
C927 C928 1.417 . S
C927 C930 1.499 . S
C928 H908 0.950 . S
C928 C927 1.417 . S
C928 C929 1.371 1_545 S
C929 H909 0.950 . S
C929 C925 1.385 . S
C929 C928 1.371 1_565 S
C930 C927 1.499 . S
C930 C931 1.373 1_545 S
C930 C932 1.389 . S
C931 H910 0.950 . S
C931 C930 1.373 1_565 S
C931 C947 1.377 . S
C932 C930 1.389 . S
C932 C933 1.524 . S
C932 C946 1.377 . S
C933 C932 1.524 . S
C933 C934 1.397 . S
C933 C938 1.363 . S
C934 H911 0.950 . S
C934 C933 1.397 . S
C934 C935 1.334 . S
C935 H912 0.950 . S
C935 C934 1.334 . S
C935 C936 1.287 . S
C936 C935 1.287 . S
C936 C937 1.524 . S
C936 H955 0.913 . S
C937 H913 0.950 1_554 S
C937 C936 1.524 . S
C937 C938 1.415 . S
C938 H914 0.950 1_554 S
C938 C933 1.363 . S
C938 C937 1.415 . S
C939 H915 0.951 . S
C939 C940 1.366 1_554 S
C939 C941 1.388 . S
C940 C939 1.366 1_556 S
C940 C944 1.385 . S
C941 H916 0.951 . S
C941 C939 1.388 . S
C941 C942 1.366 . S
C942 C941 1.366 . S
C942 C943 1.414 1_554 S
C942 C945 1.499 . S
C943 H917 0.950 . S
C943 C942 1.414 1_556 S
C943 C944 1.374 . S
C944 H918 0.950 . S
C944 C940 1.385 . S
C944 C943 1.374 . S
C945 C942 1.499 . S
C945 C946 1.373 . S
C945 C947 1.389 1_545 S
C946 H919 0.950 . S
C946 C932 1.377 . S
C946 C945 1.373 . S
C947 C931 1.377 . S
C947 C945 1.389 1_565 S
C947 C948 1.524 . S
C948 C947 1.524 . S
C948 C949 1.397 . S
C948 C953 1.363 . S
C949 H920 0.950 . S
C949 C948 1.397 . S
C949 C950 1.334 . S
C950 H921 0.950 . S
C950 C949 1.334 . S
C950 C951 1.287 . S
C951 C950 1.287 . S
C951 C952 1.524 . S
C951 H954 0.999 . S
C952 H922 0.950 . S
C952 C951 1.524 . S
C952 C953 1.415 . S
C953 H923 0.950 . S
C953 C948 1.363 . S
C953 C952 1.415 . S
H954 C951 0.999 . S
H955 C936 0.913 . S
H956 C974 0.951 . S
H957 C976 0.951 . S
H958 C978 0.950 . S
H959 C979 0.950 . S
H960 C981 0.950 . S
H961 C984 0.950 . S
H962 C985 0.950 . S
H963 C987 0.950 . S
H964 C988 0.950 . S
H965 C989 0.951 . S
H966 C991 0.951 . S
H967 C993 0.950 . S
H968 C994 0.950 . S
H969 C996 0.950 1_556 S
H970 C999 0.950 . S
H971 C1000 0.950 . S
H972 C1002 0.950 . S
H973 C1003 0.950 . S
C974 H956 0.951 . S
C974 C975 1.366 . S
C974 C976 1.388 . S
C975 C974 1.366 . S
C975 C979 1.385 . S
C976 H957 0.951 . S
C976 C974 1.388 . S
C976 C977 1.366 . S
C977 C976 1.366 . S
C977 C978 1.414 . S
C977 C980 1.499 . S
C978 H958 0.950 . S
C978 C977 1.414 . S
C978 C979 1.374 . S
C979 H959 0.950 . S
C979 C975 1.385 . S
C979 C978 1.374 . S
C980 C977 1.499 . S
C980 C981 1.373 . S
C980 C982 1.389 . S
C981 H960 0.950 . S
C981 C980 1.373 . S
C981 C997 1.377 . S
C982 C980 1.389 . S
C982 C983 1.524 . S
C982 C996 1.377 . S
C983 C982 1.524 . S
C983 C984 1.397 . S
C983 C988 1.363 1_554 S
C984 H961 0.950 . S
C984 C983 1.397 . S
C984 C985 1.334 . S
C985 H962 0.950 . S
C985 C984 1.334 . S
C985 C986 1.287 1_554 S
C986 C985 1.287 1_556 S
C986 C987 1.524 . S
C986 H1005 0.913 . S
C987 H963 0.950 . S
C987 C986 1.524 . S
C987 C988 1.415 . S
C988 H964 0.950 . S
C988 C983 1.363 1_556 S
C988 C987 1.415 . S
C989 H965 0.951 . S
C989 C990 1.366 1_554 S
C989 C991 1.388 . S
C990 C989 1.366 1_556 S
C990 C994 1.385 . S
C991 H966 0.951 . S
C991 C989 1.388 . S
C991 C992 1.366 . S
C992 C991 1.366 . S
C992 C993 1.414 1_554 S
C992 C995 1.499 . S
C993 H967 0.950 . S
C993 C992 1.414 1_556 S
C993 C994 1.374 . S
C994 H968 0.950 . S
C994 C990 1.385 . S
C994 C993 1.374 . S
C995 C992 1.499 . S
C995 C996 1.373 . S
C995 C997 1.389 . S
C996 H969 0.950 1_554 S
C996 C982 1.377 . S
C996 C995 1.373 . S
C997 C981 1.377 . S
C997 C995 1.389 . S
C997 C998 1.524 . S
C998 C997 1.524 . S
C998 C999 1.397 . S
C998 C1003 1.363 . S
C999 H970 0.950 . S
C999 C998 1.397 . S
C999 C1000 1.334 . S
C1000 H971 0.950 . S
C1000 C999 1.334 . S
C1000 C1001 1.287 . S
C1001 C1000 1.287 . S
C1001 C1002 1.524 . S
C1001 H1004 0.999 . S
C1002 H972 0.950 . S
C1002 C1001 1.524 . S
C1002 C1003 1.415 . S
C1003 H973 0.950 . S
C1003 C998 1.363 . S
C1003 C1002 1.415 . S
H1004 C1001 0.999 . S
H1005 C986 0.913 . S
H1006 C1024 0.951 . S
H1007 C1026 0.951 . S
H1008 C1028 0.950 . S
H1009 C1029 0.950 . S
H1010 C1031 0.950 . S
H1011 C1034 0.950 . S
H1012 C1035 0.950 . S
H1013 C1037 0.950 . S
H1014 C1038 0.950 . S
H1015 C1039 0.951 . S
H1016 C1041 0.951 . S
H1017 C1043 0.950 . S
H1018 C1044 0.950 . S
H1019 C1046 0.950 . S
H1020 C1049 0.950 1_556 S
H1021 C1050 0.950 1_556 S
H1022 C1052 0.950 . S
H1023 C1053 0.950 . S
C1024 H1006 0.951 . S
C1024 C1025 1.366 . S
C1024 C1026 1.388 . S
C1025 C1024 1.366 . S
C1025 C1029 1.385 . S
C1026 H1007 0.951 . S
C1026 C1024 1.388 . S
C1026 C1027 1.366 . S
C1027 C1026 1.366 . S
C1027 C1028 1.414 . S
C1027 C1030 1.499 . S
C1028 H1008 0.950 . S
C1028 C1027 1.414 . S
C1028 C1029 1.374 . S
C1029 H1009 0.950 . S
C1029 C1025 1.385 . S
C1029 C1028 1.374 . S
C1030 C1027 1.499 . S
C1030 C1031 1.373 . S
C1030 C1032 1.389 . S
C1031 H1010 0.950 . S
C1031 C1030 1.373 . S
C1031 C1047 1.377 . S
C1032 C1030 1.389 . S
C1032 C1033 1.524 . S
C1032 C1046 1.377 . S
C1033 C1032 1.524 . S
C1033 C1034 1.397 . S
C1033 C1038 1.363 . S
C1034 H1011 0.950 . S
C1034 C1033 1.397 . S
C1034 C1035 1.334 . S
C1035 H1012 0.950 . S
C1035 C1034 1.334 . S
C1035 C1036 1.287 . S
C1036 C1035 1.287 . S
C1036 C1037 1.524 . S
C1036 H1055 0.913 . S
C1037 H1013 0.950 . S
C1037 C1036 1.524 . S
C1037 C1038 1.415 . S
C1038 H1014 0.950 . S
C1038 C1033 1.363 . S
C1038 C1037 1.415 . S
C1039 H1015 0.951 . S
C1039 C1040 1.366 1_554 S
C1039 C1041 1.388 . S
C1040 C1039 1.366 1_556 S
C1040 C1044 1.385 . S
C1041 H1016 0.951 . S
C1041 C1039 1.388 . S
C1041 C1042 1.366 . S
C1042 C1041 1.366 . S
C1042 C1043 1.414 1_554 S
C1042 C1045 1.499 . S
C1043 H1017 0.950 . S
C1043 C1042 1.414 1_556 S
C1043 C1044 1.374 . S
C1044 H1018 0.950 . S
C1044 C1040 1.385 . S
C1044 C1043 1.374 . S
C1045 C1042 1.499 . S
C1045 C1046 1.373 . S
C1045 C1047 1.389 . S
C1046 H1019 0.950 . S
C1046 C1032 1.377 . S
C1046 C1045 1.373 . S
C1047 C1031 1.377 . S
C1047 C1045 1.389 . S
C1047 C1048 1.524 . S
C1048 C1047 1.524 . S
C1048 C1049 1.397 . S
C1048 C1053 1.363 . S
C1049 H1020 0.950 1_554 S
C1049 C1048 1.397 . S
C1049 C1050 1.334 . S
C1050 H1021 0.950 1_554 S
C1050 C1049 1.334 . S
C1050 C1051 1.287 . S
C1051 C1050 1.287 . S
C1051 C1052 1.524 . S
C1051 H1054 0.999 . S
C1052 H1022 0.950 . S
C1052 C1051 1.524 . S
C1052 C1053 1.415 . S
C1053 H1023 0.950 . S
C1053 C1048 1.363 . S
C1053 C1052 1.415 . S
H1054 C1051 0.999 . S
H1055 C1036 0.913 . S
H1056 C1074 0.951 . S
H1057 C1076 0.951 . S
H1058 C1078 0.950 . S
H1059 C1079 0.950 . S
H1060 C1081 0.977 . S
H1061 C1084 0.950 . S
H1062 C1085 0.950 . S
H1063 C1087 0.950 . S
H1064 C1088 0.950 . S
H1065 C1089 0.951 . S
H1066 C1091 0.951 . S
H1067 C1093 0.950 . S
H1068 C1094 0.950 . S
H1069 C1096 0.950 . S
H1070 C1099 0.950 1_455 S
H1071 C1100 0.950 . S
H1072 C1102 0.950 . S
H1073 C1103 0.950 . S
C1074 H1056 0.951 . S
C1074 C1075 1.366 . S
C1074 C1076 1.388 . S
C1075 C1074 1.366 . S
C1075 C1079 1.385 1_455 S
C1076 H1057 0.951 . S
C1076 C1074 1.388 . S
C1076 C1077 1.366 . S
C1077 C1076 1.366 . S
C1077 C1078 1.414 1_455 S
C1077 C1080 1.499 . S
C1078 H1058 0.950 . S
C1078 C1077 1.414 1_655 S
C1078 C1079 1.374 . S
C1079 H1059 0.950 . S
C1079 C1075 1.385 1_655 S
C1079 C1078 1.374 . S
C1080 C1077 1.499 . S
C1080 C1081 1.349 1_455 S
C1080 C1082 1.389 . S
C1081 H1060 0.977 . S
C1081 C1080 1.349 1_655 S
C1081 C1097 1.375 1_655 S
C1082 C1080 1.389 . S
C1082 C1083 1.524 . S
C1082 C1096 1.377 . S
C1083 C1082 1.524 . S
C1083 C1084 1.397 . S
C1083 C1088 1.363 . S
C1084 H1061 0.950 . S
C1084 C1083 1.397 . S
C1084 C1085 1.334 . S
C1085 H1062 0.950 . S
C1085 C1084 1.334 . S
C1085 C1086 1.287 . S
C1086 C1085 1.287 . S
C1086 C1087 1.524 . S
C1086 H1105 0.913 . S
C1087 H1063 0.950 . S
C1087 C1086 1.524 . S
C1087 C1088 1.415 . S
C1088 H1064 0.950 . S
C1088 C1083 1.363 . S
C1088 C1087 1.415 . S
C1089 H1065 0.951 . S
C1089 C1090 1.366 1_655 S
C1089 C1091 1.388 . S
C1090 C1089 1.366 1_455 S
C1090 C1094 1.385 . S
C1091 H1066 0.951 . S
C1091 C1089 1.388 . S
C1091 C1092 1.366 1_655 S
C1092 C1091 1.366 1_455 S
C1092 C1093 1.414 . S
C1092 C1095 1.499 . S
C1093 H1067 0.950 . S
C1093 C1092 1.414 . S
C1093 C1094 1.374 . S
C1094 H1068 0.950 . S
C1094 C1090 1.385 . S
C1094 C1093 1.374 . S
C1095 C1092 1.499 . S
C1095 C1096 1.373 . S
C1095 C1097 1.398 . S
C1096 H1069 0.950 . S
C1096 C1082 1.377 . S
C1096 C1095 1.373 . S
C1097 C1081 1.375 1_455 S
C1097 C1095 1.398 . S
C1097 C1098 1.517 1_455 S
C1098 C1097 1.517 1_655 S
C1098 C1099 1.397 . S
C1098 C1103 1.363 . S
C1099 H1070 0.950 1_655 S
C1099 C1098 1.397 . S
C1099 C1100 1.334 1_556 S
C1100 H1071 0.950 . S
C1100 C1099 1.334 1_554 S
C1100 C1101 1.287 . S
C1101 C1100 1.287 . S
C1101 C1102 1.524 1_554 S
C1101 H1104 0.999 . S
C1102 H1072 0.950 . S
C1102 C1101 1.524 1_556 S
C1102 C1103 1.415 . S
C1103 H1073 0.950 . S
C1103 C1098 1.363 . S
C1103 C1102 1.415 . S
H1104 C1101 0.999 . S
H1105 C1086 0.913 . S
H1106 C1124 0.928 1_565 S
H1107 C1126 0.951 1_565 S
H1108 C1128 0.950 . S
H1109 C1129 0.950 . S
H1110 C1131 0.950 . S
H1111 C1134 0.950 . S
H1112 C1135 0.950 . S
H1113 C1137 0.950 . S
H1114 C1138 0.950 . S
H1115 C1139 0.951 . S
H1116 C1141 0.951 . S
H1117 C1143 0.950 1_565 S
H1118 C1144 0.950 1_565 S
H1119 C1146 0.950 . S
H1120 C1149 0.950 . S
H1121 C1150 0.950 . S
H1122 C1152 0.950 1_545 S
H1123 C1153 0.950 . S
C1124 H1106 0.928 1_545 S
C1124 C1125 1.388 . S
C1124 C1126 1.390 . S
C1125 C1124 1.388 . S
C1125 C1129 1.385 . S
C1126 H1107 0.951 1_545 S
C1126 C1124 1.390 . S
C1126 C1127 1.366 . S
C1127 C1126 1.366 . S
C1127 C1128 1.414 . S
C1127 C1130 1.499 . S
C1128 H1108 0.950 . S
C1128 C1127 1.414 . S
C1128 C1129 1.374 . S
C1129 H1109 0.950 . S
C1129 C1125 1.385 . S
C1129 C1128 1.374 . S
C1130 C1127 1.499 . S
C1130 C1131 1.373 . S
C1130 C1132 1.389 . S
C1131 H1110 0.950 . S
C1131 C1130 1.373 . S
C1131 C1147 1.377 . S
C1132 C1130 1.389 . S
C1132 C1133 1.524 . S
C1132 C1146 1.377 . S
C1133 C1132 1.524 . S
C1133 C1134 1.397 . S
C1133 C1138 1.363 1_556 S
C1134 H1111 0.950 . S
C1134 C1133 1.397 . S
C1134 C1135 1.334 1_556 S
C1135 H1112 0.950 . S
C1135 C1134 1.334 1_554 S
C1135 C1136 1.287 . S
C1136 C1135 1.287 . S
C1136 C1137 1.524 . S
C1136 H1155 0.913 . S
C1137 H1113 0.950 . S
C1137 C1136 1.524 . S
C1137 C1138 1.415 . S
C1138 H1114 0.950 . S
C1138 C1133 1.363 1_554 S
C1138 C1137 1.415 . S
C1139 H1115 0.951 . S
C1139 C1140 1.366 . S
C1139 C1141 1.388 . S
C1140 C1139 1.366 . S
C1140 C1144 1.385 . S
C1141 H1116 0.951 . S
C1141 C1139 1.388 . S
C1141 C1142 1.366 . S
C1142 C1141 1.366 . S
C1142 C1143 1.414 . S
C1142 C1145 1.499 . S
C1143 H1117 0.950 1_545 S
C1143 C1142 1.414 . S
C1143 C1144 1.374 . S
C1144 H1118 0.950 1_545 S
C1144 C1140 1.385 . S
C1144 C1143 1.374 . S
C1145 C1142 1.499 . S
C1145 C1146 1.373 . S
C1145 C1147 1.389 . S
C1146 H1119 0.950 . S
C1146 C1132 1.377 . S
C1146 C1145 1.373 . S
C1147 C1131 1.377 . S
C1147 C1145 1.389 . S
C1147 C1148 1.524 1_545 S
C1148 C1147 1.524 1_565 S
C1148 C1149 1.397 . S
C1148 C1153 1.363 1_565 S
C1149 H1120 0.950 . S
C1149 C1148 1.397 . S
C1149 C1150 1.334 . S
C1150 H1121 0.950 . S
C1150 C1149 1.334 . S
C1150 C1151 1.287 . S
C1151 C1150 1.287 . S
C1151 C1152 1.524 . S
C1151 H1154 0.999 . S
C1152 H1122 0.950 1_565 S
C1152 C1151 1.524 . S
C1152 C1153 1.415 1_565 S
C1153 H1123 0.950 . S
C1153 C1148 1.363 1_545 S
C1153 C1152 1.415 1_545 S
H1154 C1151 0.999 . S
H1155 C1136 0.913 . S
H1156 C1174 0.951 . S
H1157 C1176 0.951 . S
H1158 C1178 0.950 . S
H1159 C1179 0.950 . S
H1160 C1181 0.950 . S
H1161 C1184 0.950 . S
H1162 C1185 0.950 . S
H1163 C1187 0.950 . S
H1164 C1188 0.950 . S
H1165 C1189 0.951 . S
H1166 C1191 0.951 . S
H1167 C1193 0.950 . S
H1168 C1194 0.950 . S
H1169 C1196 0.950 . S
H1170 C1199 0.950 . S
H1171 C1200 0.950 . S
H1172 C1202 0.950 . S
H1173 C1203 0.950 . S
C1174 H1156 0.951 . S
C1174 C1175 1.366 . S
C1174 C1176 1.388 . S
C1175 C1174 1.366 . S
C1175 C1179 1.385 . S
C1176 H1157 0.951 . S
C1176 C1174 1.388 . S
C1176 C1177 1.366 . S
C1177 C1176 1.366 . S
C1177 C1178 1.414 . S
C1177 C1180 1.499 . S
C1178 H1158 0.950 . S
C1178 C1177 1.414 . S
C1178 C1179 1.374 . S
C1179 H1159 0.950 . S
C1179 C1175 1.385 . S
C1179 C1178 1.374 . S
C1180 C1177 1.499 . S
C1180 C1181 1.373 . S
C1180 C1182 1.389 . S
C1181 H1160 0.950 . S
C1181 C1180 1.373 . S
C1181 C1197 1.377 . S
C1182 C1180 1.389 . S
C1182 C1183 1.524 . S
C1182 C1196 1.377 . S
C1183 C1182 1.524 . S
C1183 C1184 1.397 . S
C1183 C1188 1.363 . S
C1184 H1161 0.950 . S
C1184 C1183 1.397 . S
C1184 C1185 1.334 . S
C1185 H1162 0.950 . S
C1185 C1184 1.334 . S
C1185 C1186 1.287 . S
C1186 C1185 1.287 . S
C1186 C1187 1.524 . S
C1186 H1205 0.913 . S
C1187 H1163 0.950 . S
C1187 C1186 1.524 . S
C1187 C1188 1.415 . S
C1188 H1164 0.950 . S
C1188 C1183 1.363 . S
C1188 C1187 1.415 . S
C1189 H1165 0.951 . S
C1189 C1190 1.366 . S
C1189 C1191 1.388 . S
C1190 C1189 1.366 . S
C1190 C1194 1.385 . S
C1191 H1166 0.951 . S
C1191 C1189 1.388 . S
C1191 C1192 1.366 . S
C1192 C1191 1.366 . S
C1192 C1193 1.414 . S
C1192 C1195 1.499 . S
C1193 H1167 0.950 . S
C1193 C1192 1.414 . S
C1193 C1194 1.374 . S
C1194 H1168 0.950 . S
C1194 C1190 1.385 . S
C1194 C1193 1.374 . S
C1195 C1192 1.499 . S
C1195 C1196 1.373 . S
C1195 C1197 1.389 . S
C1196 H1169 0.950 . S
C1196 C1182 1.377 . S
C1196 C1195 1.373 . S
C1197 C1181 1.377 . S
C1197 C1195 1.389 . S
C1197 C1198 1.524 . S
C1198 C1197 1.524 . S
C1198 C1199 1.397 . S
C1198 C1203 1.363 . S
C1199 H1170 0.950 . S
C1199 C1198 1.397 . S
C1199 C1200 1.334 1_556 S
C1200 H1171 0.950 . S
C1200 C1199 1.334 1_554 S
C1200 C1201 1.287 . S
C1201 C1200 1.287 . S
C1201 C1202 1.524 . S
C1201 H1204 0.999 . S
C1202 H1172 0.950 . S
C1202 C1201 1.524 . S
C1202 C1203 1.415 1_554 S
C1203 H1173 0.950 . S
C1203 C1198 1.363 . S
C1203 C1202 1.415 1_556 S
H1204 C1201 0.999 . S
H1205 C1186 0.913 . S
H1206 C1224 0.951 . S
H1207 C1226 0.951 . S
H1208 C1228 0.950 . S
H1209 C1229 0.950 . S
H1210 C1231 0.950 . S
H1211 C1234 0.950 . S
H1212 C1235 0.950 . S
H1213 C1237 0.950 . S
H1214 C1238 0.950 . S
H1215 C1239 0.951 . S
H1216 C1241 0.951 . S
H1217 C1243 0.950 . S
H1218 C1244 0.950 . S
H1219 C1246 0.950 . S
H1220 C1249 0.950 . S
H1221 C1250 0.950 . S
H1222 C1252 0.950 . S
H1223 C1253 0.950 . S
C1224 H1206 0.951 . S
C1224 C1225 1.366 . S
C1224 C1226 1.388 . S
C1225 C1224 1.366 . S
C1225 C1229 1.385 . S
C1226 H1207 0.951 . S
C1226 C1224 1.388 . S
C1226 C1227 1.366 . S
C1227 C1226 1.366 . S
C1227 C1228 1.414 . S
C1227 C1230 1.499 . S
C1228 H1208 0.950 . S
C1228 C1227 1.414 . S
C1228 C1229 1.374 . S
C1229 H1209 0.950 . S
C1229 C1225 1.385 . S
C1229 C1228 1.374 . S
C1230 C1227 1.499 . S
C1230 C1231 1.373 . S
C1230 C1232 1.389 . S
C1231 H1210 0.950 . S
C1231 C1230 1.373 . S
C1231 C1247 1.377 . S
C1232 C1230 1.389 . S
C1232 C1233 1.524 . S
C1232 C1246 1.377 . S
C1233 C1232 1.524 . S
C1233 C1234 1.397 . S
C1233 C1238 1.363 1_556 S
C1234 H1211 0.950 . S
C1234 C1233 1.397 . S
C1234 C1235 1.334 1_556 S
C1235 H1212 0.950 . S
C1235 C1234 1.334 1_554 S
C1235 C1236 1.287 . S
C1236 C1235 1.287 . S
C1236 C1237 1.524 . S
C1236 H1255 0.913 . S
C1237 H1213 0.950 . S
C1237 C1236 1.524 . S
C1237 C1238 1.415 . S
C1238 H1214 0.950 . S
C1238 C1233 1.363 1_554 S
C1238 C1237 1.415 . S
C1239 H1215 0.951 . S
C1239 C1240 1.366 . S
C1239 C1241 1.388 . S
C1240 C1239 1.366 . S
C1240 C1244 1.385 . S
C1241 H1216 0.951 . S
C1241 C1239 1.388 . S
C1241 C1242 1.366 . S
C1242 C1241 1.366 . S
C1242 C1243 1.414 . S
C1242 C1245 1.499 . S
C1243 H1217 0.950 . S
C1243 C1242 1.414 . S
C1243 C1244 1.374 . S
C1244 H1218 0.950 . S
C1244 C1240 1.385 . S
C1244 C1243 1.374 . S
C1245 C1242 1.499 . S
C1245 C1246 1.373 . S
C1245 C1247 1.389 . S
C1246 H1219 0.950 . S
C1246 C1232 1.377 . S
C1246 C1245 1.373 . S
C1247 C1231 1.377 . S
C1247 C1245 1.389 . S
C1247 C1248 1.524 . S
C1248 C1247 1.524 . S
C1248 C1249 1.397 . S
C1248 C1253 1.363 . S
C1249 H1220 0.950 . S
C1249 C1248 1.397 . S
C1249 C1250 1.334 . S
C1250 H1221 0.950 . S
C1250 C1249 1.334 . S
C1250 C1251 1.287 . S
C1251 C1250 1.287 . S
C1251 C1252 1.524 . S
C1251 H1254 0.999 . S
C1252 H1222 0.950 . S
C1252 C1251 1.524 . S
C1252 C1253 1.415 . S
C1253 H1223 0.950 . S
C1253 C1248 1.363 . S
C1253 C1252 1.415 . S
H1254 C1251 0.999 . S
H1255 C1236 0.913 . S
H1256 C1274 0.951 . S
H1257 C1276 0.951 . S
H1258 C1278 0.950 . S
H1259 C1279 0.950 . S
H1260 C1281 0.950 . S
H1261 C1284 0.950 1_455 S
H1262 C1285 0.950 1_455 S
H1263 C1287 0.950 . S
H1264 C1288 0.950 . S
H1265 C1289 0.951 . S
H1266 C1291 0.951 . S
H1267 C1293 0.950 . S
H1268 C1294 0.950 . S
H1269 C1296 0.950 . S
H1270 C1299 0.950 . S
H1271 C1300 0.950 . S
H1272 C1302 0.950 . S
H1273 C1303 0.950 . S
C1274 H1256 0.951 . S
C1274 C1275 1.366 . S
C1274 C1276 1.388 . S
C1275 C1274 1.366 . S
C1275 C1279 1.385 1_655 S
C1276 H1257 0.951 . S
C1276 C1274 1.388 . S
C1276 C1277 1.366 . S
C1277 C1276 1.366 . S
C1277 C1278 1.414 1_655 S
C1277 C1280 1.499 . S
C1278 H1258 0.950 . S
C1278 C1277 1.414 1_455 S
C1278 C1279 1.374 . S
C1279 H1259 0.950 . S
C1279 C1275 1.385 1_455 S
C1279 C1278 1.374 . S
C1280 C1277 1.499 . S
C1280 C1281 1.373 1_655 S
C1280 C1282 1.389 . S
C1281 H1260 0.950 . S
C1281 C1280 1.373 1_455 S
C1281 C1297 1.377 . S
C1282 C1280 1.389 . S
C1282 C1283 1.524 . S
C1282 C1296 1.377 . S
C1283 C1282 1.524 . S
C1283 C1284 1.397 . S
C1283 C1288 1.363 . S
C1284 H1261 0.950 1_655 S
C1284 C1283 1.397 . S
C1284 C1285 1.334 . S
C1285 H1262 0.950 1_655 S
C1285 C1284 1.334 . S
C1285 C1286 1.287 . S
C1286 C1285 1.287 . S
C1286 C1287 1.524 . S
C1286 H1305 0.913 . S
C1287 H1263 0.950 . S
C1287 C1286 1.524 . S
C1287 C1288 1.415 . S
C1288 H1264 0.950 . S
C1288 C1283 1.363 . S
C1288 C1287 1.415 . S
C1289 H1265 0.951 . S
C1289 C1290 1.366 1_455 S
C1289 C1291 1.388 . S
C1290 C1289 1.366 1_655 S
C1290 C1294 1.385 . S
C1291 H1266 0.951 . S
C1291 C1289 1.388 . S
C1291 C1292 1.366 1_455 S
C1292 C1291 1.366 1_655 S
C1292 C1293 1.414 . S
C1292 C1295 1.499 . S
C1293 H1267 0.950 . S
C1293 C1292 1.414 . S
C1293 C1294 1.374 . S
C1294 H1268 0.950 . S
C1294 C1290 1.385 . S
C1294 C1293 1.374 . S
C1295 C1292 1.499 . S
C1295 C1296 1.373 . S
C1295 C1297 1.389 1_655 S
C1296 H1269 0.950 . S
C1296 C1282 1.377 . S
C1296 C1295 1.373 . S
C1297 C1281 1.377 . S
C1297 C1295 1.389 1_455 S
C1297 C1298 1.524 . S
C1298 C1297 1.524 . S
C1298 C1299 1.397 1_455 S
C1298 C1303 1.363 . S
C1299 H1270 0.950 . S
C1299 C1298 1.397 1_655 S
C1299 C1300 1.334 . S
C1300 H1271 0.950 . S
C1300 C1299 1.334 . S
C1300 C1301 1.287 1_655 S
C1301 C1300 1.287 1_455 S
C1301 C1302 1.524 . S
C1301 H1304 0.999 . S
C1302 H1272 0.950 . S
C1302 C1301 1.524 . S
C1302 C1303 1.415 . S
C1303 H1273 0.950 . S
C1303 C1298 1.363 . S
C1303 C1302 1.415 . S
H1304 C1301 0.999 . S
H1305 C1286 0.913 . S
H1306 C1324 0.946 1_545 S
H1307 C1326 0.947 1_545 S
H1308 C1328 0.950 . S
H1309 C1329 0.950 . S
H1310 C1331 0.950 . S
H1311 C1334 0.950 . S
H1312 C1335 0.950 . S
H1313 C1337 0.950 . S
H1314 C1338 0.950 . S
H1315 C1339 0.951 . S
H1316 C1341 0.951 . S
H1317 C1343 0.950 . S
H1318 C1344 0.959 . S
H1319 C1346 0.950 . S
H1320 C1349 0.950 . S
H1321 C1350 0.950 . S
H1322 C1352 0.950 . S
H1323 C1353 0.950 . S
C1324 H1306 0.946 1_565 S
C1324 C1325 1.370 . S
C1324 C1326 1.389 . S
C1325 C1324 1.370 . S
C1325 C1329 1.385 . S
C1326 H1307 0.947 1_565 S
C1326 C1324 1.389 . S
C1326 C1327 1.366 . S
C1327 C1326 1.366 . S
C1327 C1328 1.414 . S
C1327 C1330 1.499 . S
C1328 H1308 0.950 . S
C1328 C1327 1.414 . S
C1328 C1329 1.374 . S
C1329 H1309 0.950 . S
C1329 C1325 1.385 . S
C1329 C1328 1.374 . S
C1330 C1327 1.499 . S
C1330 C1331 1.373 1_565 S
C1330 C1332 1.389 . S
C1331 H1310 0.950 . S
C1331 C1330 1.373 1_545 S
C1331 C1347 1.377 . S
C1332 C1330 1.389 . S
C1332 C1333 1.524 . S
C1332 C1346 1.377 . S
C1333 C1332 1.524 . S
C1333 C1334 1.397 . S
C1333 C1338 1.363 . S
C1334 H1311 0.950 . S
C1334 C1333 1.397 . S
C1334 C1335 1.334 . S
C1335 H1312 0.950 . S
C1335 C1334 1.334 . S
C1335 C1336 1.287 . S
C1336 C1335 1.287 . S
C1336 C1337 1.524 . S
C1336 H1355 0.913 . S
C1337 H1313 0.950 . S
C1337 C1336 1.524 . S
C1337 C1338 1.415 . S
C1338 H1314 0.950 . S
C1338 C1333 1.363 . S
C1338 C1337 1.415 . S
C1339 H1315 0.951 . S
C1339 C1340 1.366 . S
C1339 C1341 1.388 . S
C1340 C1339 1.366 . S
C1340 C1344 1.385 . S
C1341 H1316 0.951 . S
C1341 C1339 1.388 . S
C1341 C1342 1.366 . S
C1342 C1341 1.366 . S
C1342 C1343 1.414 . S
C1342 C1345 1.499 . S
C1343 H1317 0.950 . S
C1343 C1342 1.414 . S
C1343 C1344 1.374 . S
C1344 H1318 0.959 . S
C1344 C1340 1.385 . S
C1344 C1343 1.374 . S
C1345 C1342 1.499 . S
C1345 C1346 1.373 . S
C1345 C1347 1.389 1_565 S
C1346 H1319 0.950 . S
C1346 C1332 1.377 . S
C1346 C1345 1.373 . S
C1347 C1331 1.377 . S
C1347 C1345 1.389 1_545 S
C1347 C1348 1.524 . S
C1348 C1347 1.524 . S
C1348 C1349 1.397 . S
C1348 C1353 1.363 . S
C1349 H1320 0.950 . S
C1349 C1348 1.397 . S
C1349 C1350 1.334 . S
C1350 H1321 0.950 . S
C1350 C1349 1.334 . S
C1350 C1351 1.287 . S
C1351 C1350 1.287 . S
C1351 C1352 1.524 . S
C1351 H1354 0.999 . S
C1352 H1322 0.950 . S
C1352 C1351 1.524 . S
C1352 C1353 1.415 . S
C1353 H1323 0.950 . S
C1353 C1348 1.363 . S
C1353 C1352 1.415 . S
H1354 C1351 0.999 . S
H1355 C1336 0.913 . S
H1356 C1374 0.951 . S
H1357 C1376 0.951 . S
H1358 C1378 0.950 . S
H1359 C1379 0.950 . S
H1360 C1381 0.950 . S
H1361 C1384 0.950 . S
H1362 C1385 0.950 . S
H1363 C1387 0.950 . S
H1364 C1388 0.950 . S
H1365 C1389 0.951 . S
H1366 C1391 0.951 . S
H1367 C1393 0.950 . S
H1368 C1394 0.950 . S
H1369 C1396 0.950 . S
H1370 C1399 0.950 . S
H1371 C1400 0.950 . S
H1372 C1402 0.950 . S
H1373 C1403 0.950 . S
C1374 H1356 0.951 . S
C1374 C1375 1.366 . S
C1374 C1376 1.388 . S
C1375 C1374 1.366 . S
C1375 C1379 1.385 . S
C1376 H1357 0.951 . S
C1376 C1374 1.388 . S
C1376 C1377 1.366 . S
C1377 C1376 1.366 . S
C1377 C1378 1.414 . S
C1377 C1380 1.499 . S
C1378 H1358 0.950 . S
C1378 C1377 1.414 . S
C1378 C1379 1.374 . S
C1379 H1359 0.950 . S
C1379 C1375 1.385 . S
C1379 C1378 1.374 . S
C1380 C1377 1.499 . S
C1380 C1381 1.373 . S
C1380 C1382 1.389 . S
C1381 H1360 0.950 . S
C1381 C1380 1.373 . S
C1381 C1397 1.377 . S
C1382 C1380 1.389 . S
C1382 C1383 1.524 . S
C1382 C1396 1.377 . S
C1383 C1382 1.524 . S
C1383 C1384 1.397 . S
C1383 C1388 1.363 . S
C1384 H1361 0.950 . S
C1384 C1383 1.397 . S
C1384 C1385 1.334 . S
C1385 H1362 0.950 . S
C1385 C1384 1.334 . S
C1385 C1386 1.287 . S
C1386 C1385 1.287 . S
C1386 C1387 1.524 . S
C1386 H1405 0.913 . S
C1387 H1363 0.950 . S
C1387 C1386 1.524 . S
C1387 C1388 1.415 . S
C1388 H1364 0.950 . S
C1388 C1383 1.363 . S
C1388 C1387 1.415 . S
C1389 H1365 0.951 . S
C1389 C1390 1.366 . S
C1389 C1391 1.388 . S
C1390 C1389 1.366 . S
C1390 C1394 1.385 . S
C1391 H1366 0.951 . S
C1391 C1389 1.388 . S
C1391 C1392 1.366 . S
C1392 C1391 1.366 . S
C1392 C1393 1.414 . S
C1392 C1395 1.499 . S
C1393 H1367 0.950 . S
C1393 C1392 1.414 . S
C1393 C1394 1.374 . S
C1394 H1368 0.950 . S
C1394 C1390 1.385 . S
C1394 C1393 1.374 . S
C1395 C1392 1.499 . S
C1395 C1396 1.373 . S
C1395 C1397 1.389 . S
C1396 H1369 0.950 . S
C1396 C1382 1.377 . S
C1396 C1395 1.373 . S
C1397 C1381 1.377 . S
C1397 C1395 1.389 . S
C1397 C1398 1.524 . S
C1398 C1397 1.524 . S
C1398 C1399 1.397 . S
C1398 C1403 1.363 . S
C1399 H1370 0.950 . S
C1399 C1398 1.397 . S
C1399 C1400 1.334 . S
C1400 H1371 0.950 . S
C1400 C1399 1.334 . S
C1400 C1401 1.287 . S
C1401 C1400 1.287 . S
C1401 C1402 1.524 . S
C1401 H1404 0.999 . S
C1402 H1372 0.950 . S
C1402 C1401 1.524 . S
C1402 C1403 1.415 . S
C1403 H1373 0.950 . S
C1403 C1398 1.363 . S
C1403 C1402 1.415 . S
H1404 C1401 0.999 . S
H1405 C1386 0.913 . S
H1406 C1424 0.951 . S
H1407 C1426 0.951 . S
H1408 C1428 0.950 . S
H1409 C1429 0.950 . S
H1410 C1431 0.950 . S
H1411 C1434 0.950 . S
H1412 C1435 0.950 . S
H1413 C1437 0.950 . S
H1414 C1438 0.950 . S
H1415 C1439 0.951 . S
H1416 C1441 0.951 . S
H1417 C1443 0.950 . S
H1418 C1444 0.950 . S
H1419 C1446 0.950 . S
H1420 C1449 0.950 . S
H1421 C1450 0.950 . S
H1422 C1452 0.950 . S
H1423 C1453 0.950 . S
C1424 H1406 0.951 . S
C1424 C1425 1.366 . S
C1424 C1426 1.388 . S
C1425 C1424 1.366 . S
C1425 C1429 1.385 . S
C1426 H1407 0.951 . S
C1426 C1424 1.388 . S
C1426 C1427 1.366 . S
C1427 C1426 1.366 . S
C1427 C1428 1.414 . S
C1427 C1430 1.499 . S
C1428 H1408 0.950 . S
C1428 C1427 1.414 . S
C1428 C1429 1.374 . S
C1429 H1409 0.950 . S
C1429 C1425 1.385 . S
C1429 C1428 1.374 . S
C1430 C1427 1.499 . S
C1430 C1431 1.373 . S
C1430 C1432 1.389 . S
C1431 H1410 0.950 . S
C1431 C1430 1.373 . S
C1431 C1447 1.377 . S
C1432 C1430 1.389 . S
C1432 C1433 1.524 . S
C1432 C1446 1.377 . S
C1433 C1432 1.524 . S
C1433 C1434 1.397 . S
C1433 C1438 1.363 . S
C1434 H1411 0.950 . S
C1434 C1433 1.397 . S
C1434 C1435 1.334 . S
C1435 H1412 0.950 . S
C1435 C1434 1.334 . S
C1435 C1436 1.287 . S
C1436 C1435 1.287 . S
C1436 C1437 1.524 . S
C1436 H1455 0.913 . S
C1437 H1413 0.950 . S
C1437 C1436 1.524 . S
C1437 C1438 1.415 . S
C1438 H1414 0.950 . S
C1438 C1433 1.363 . S
C1438 C1437 1.415 . S
C1439 H1415 0.951 . S
C1439 C1440 1.366 . S
C1439 C1441 1.388 . S
C1440 C1439 1.366 . S
C1440 C1444 1.385 . S
C1441 H1416 0.951 . S
C1441 C1439 1.388 . S
C1441 C1442 1.366 . S
C1442 C1441 1.366 . S
C1442 C1443 1.414 . S
C1442 C1445 1.499 . S
C1443 H1417 0.950 . S
C1443 C1442 1.414 . S
C1443 C1444 1.374 . S
C1444 H1418 0.950 . S
C1444 C1440 1.385 . S
C1444 C1443 1.374 . S
C1445 C1442 1.499 . S
C1445 C1446 1.373 . S
C1445 C1447 1.389 . S
C1446 H1419 0.950 . S
C1446 C1432 1.377 . S
C1446 C1445 1.373 . S
C1447 C1431 1.377 . S
C1447 C1445 1.389 . S
C1447 C1448 1.524 . S
C1448 C1447 1.524 . S
C1448 C1449 1.397 . S
C1448 C1453 1.363 . S
C1449 H1420 0.950 . S
C1449 C1448 1.397 . S
C1449 C1450 1.334 . S
C1450 H1421 0.950 . S
C1450 C1449 1.334 . S
C1450 C1451 1.287 . S
C1451 C1450 1.287 . S
C1451 C1452 1.524 . S
C1451 H1454 0.999 . S
C1452 H1422 0.950 . S
C1452 C1451 1.524 . S
C1452 C1453 1.415 . S
C1453 H1423 0.950 . S
C1453 C1448 1.363 . S
C1453 C1452 1.415 . S
H1454 C1451 0.999 . S
H1455 C1436 0.913 . S
C275 C76 1.727 . S
C290 C106 1.826 . S
C340 C146 1.828 . S
C325 C88 1.728 . S
C390 C186 1.827 . S
C375 C52 1.728 . S
C440 C226 1.827 . S
C425 C64 1.728 . S
C490 C115 1.834 . S
C475 C28 1.729 . S
C525 C40 1.728 . S
C540 C155 1.827 . S
C575 C4 1.730 . S
C590 C195 1.827 . S
C625 C16 1.728 . S
C640 C235 1.827 . S
C690 C112 0.347 . S
C675 C69 0.382 . S
C740 C152 0.346 . S
C725 C81 0.379 . S
C790 C192 0.347 . S
C775 C93 0.380 . S
C825 C57 0.382 . S
C840 C232 0.348 . S
C875 C21 0.397 . S
C890 C103 0.345 . S
C940 C143 0.347 . S
C925 C33 0.396 . S
C990 C183 0.347 . S
C975 C45 0.395 . S
C1025 C9 0.397 . S
C1040 C223 0.348 . S
C1075 C66 1.873 . S
C1090 C107 2.068 . S
C1125 C78 1.874 . S
C1140 C147 2.068 . S
C1190 C187 2.068 . S
C1175 C90 1.873 . S
C1240 C227 2.067 . S
C1225 C54 1.873 . S
C1275 C18 1.880 . S
C1290 C98 2.068 . S
C1340 C138 2.068 . S
C1325 C30 1.874 . S
C1390 C178 2.067 . S
C1375 C42 1.874 . S
C1425 C6 1.875 . S
C1440 C218 2.068 . S
