# Generated by pormake.
# Topology rtl, (3,6)-cn, num edge types: 1
# Building blocks:
#     Node 0, Type 0, BuildingBlock: QEWDON_clean_linker_0, # of connection points: 3
#     Node 1, Type 0, BuildingBlock: QEWDON_clean_linker_0, # of connection points: 3
#     Node 2, Type 0, BuildingBlock: QEWDON_clean_linker_0, # of connection points: 3
#     Node 3, Type 0, BuildingBlock: QEWDON_clean_linker_0, # of connection points: 3
#     Node 4, Type 1, BuildingBlock: FUNLAD_clean_sbu_0, # of connection points: 6
#     Node 5, Type 1, BuildingBlock: FUNLAD_clean_sbu_0, # of connection points: 6
#     Edge 6, Type (0, 1), BuildingBlock: KIFKEQ_clean_linker_1, # of connection points: 2
#     Edge 7, Type (0, 1), BuildingBlock: KIFKEQ_clean_linker_1, # of connection points: 2
#     Edge 8, Type (0, 1), BuildingBlock: KIFKEQ_clean_linker_1, # of connection points: 2
#     Edge 9, Type (0, 1), BuildingBlock: KIFKEQ_clean_linker_1, # of connection points: 2
#     Edge 10, Type (0, 1), BuildingBlock: KIFKEQ_clean_linker_1, # of connection points: 2
#     Edge 11, Type (0, 1), BuildingBlock: KIFKEQ_clean_linker_1, # of connection points: 2
#     Edge 12, Type (0, 1), BuildingBlock: KIFKEQ_clean_linker_1, # of connection points: 2
#     Edge 13, Type (0, 1), BuildingBlock: KIFKEQ_clean_linker_1, # of connection points: 2
#     Edge 14, Type (0, 1), BuildingBlock: KIFKEQ_clean_linker_1, # of connection points: 2
#     Edge 15, Type (0, 1), BuildingBlock: KIFKEQ_clean_linker_1, # of connection points: 2
#     Edge 16, Type (0, 1), BuildingBlock: KIFKEQ_clean_linker_1, # of connection points: 2
#     Edge 17, Type (0, 1), BuildingBlock: KIFKEQ_clean_linker_1, # of connection points: 2
# Relax obj value: 0.015
# Max RMSD: 0.095
# Mean RMSD: 0.078
data_MOF--net-rtl--node1-FUNLAD_clean_sbu_0--node2-QEWDON_clean_linker_0--edge1-KIFKEQ_clean_linker_1
_symmetry_space_group_name_H-M    P1
_symmetry_Int_Tables_number       1
_symmetry_cell_setting            triclinic
loop_
_symmetry_equiv_pos_as_xyz
'x, y, z'
_cell_length_a     42.317402
_cell_length_b     42.362853
_cell_length_c     21.184381
_cell_angle_alpha  91.853636
_cell_angle_beta   92.713643
_cell_angle_gamma 90.093778
loop_
_atom_site_label
_atom_site_type_symbol
_atom_site_fract_x
_atom_site_fract_y
_atom_site_fract_z
_atom_type_partial_charge
H0 H 0.22241 0.86737 0.09455 0.0
C1 C 0.20675 0.87117 0.05353 0.0
C2 C 0.17588 0.88224 0.06162 0.0
C3 C 0.21798 0.86706 0.99234 0.0
H4 H 0.13285 0.89841 0.01532 0.0
C5 C 0.1563 0.88892 0.00862 0.0
C6 C 0.16744 0.88577 0.9475 0.0
C7 C 0.19809 0.8742 0.93961 0.0
C8 C 0.25168 0.85975 0.98306 0.0
H9 H 0.2072 0.87249 0.89264 0.0
C10 C 0.2657 0.83175 0.00496 0.0
C11 C 0.29764 0.82499 -0.0065 0.0
C12 C 0.26987 0.8811 0.95057 0.0
H13 H 0.2596 0.90285 0.93365 0.0
C14 C 0.30144 0.8747 0.93971 0.0
H15 H 0.25172 0.81525 0.03008 0.0
C16 C 0.31522 0.84685 0.96066 0.0
H17 H 0.33957 0.84217 0.94991 0.0
H18 H 0.31521 0.89125 0.91438 0.0
H19 H 0.72228 0.67753 0.45476 0.0
C20 C 0.70658 0.67239 0.49211 0.0
C21 C 0.67698 0.65846 0.47675 0.0
C22 C 0.71673 0.67754 0.55591 0.0
H23 H 0.63493 0.63852 0.51252 0.0
C24 C 0.65742 0.65 0.52492 0.0
C25 C 0.66726 0.65453 0.58862 0.0
C26 C 0.69665 0.66894 0.60381 0.0
C27 C 0.74962 0.68809 0.57309 0.0
H28 H 0.70465 0.67197 0.65301 0.0
C29 C 0.76323 0.71427 0.54494 0.0
C30 C 0.79467 0.72347 0.5617 0.0
C31 C 0.76784 0.67121 0.61777 0.0
H32 H 0.7582 0.65069 0.63939 0.0
C33 C 0.79884 0.68024 0.63443 0.0
H34 H 0.74944 0.72739 0.51029 0.0
C35 C 0.81218 0.70616 0.6068 0.0
H36 H 0.83618 0.71294 0.62146 0.0
H37 H 0.81259 0.6671 0.66899 0.0
H38 H 0.81959 0.17562 0.08159 0.0
C39 C 0.83233 0.16985 0.03955 0.0
C40 C 0.86337 0.15801 0.04519 0.0
C41 C 0.81708 0.17259 0.97954 0.0
H42 H 0.90227 0.13888 -0.00601 0.0
C43 C 0.87884 0.1492 0.99018 0.0
C44 C 0.86371 0.1514 0.93028 0.0
C45 C 0.83298 0.16359 0.9251 0.0
C46 C 0.78294 0.17954 0.97344 0.0
H47 H 0.8207 0.16426 0.87905 0.0
C48 C 0.77134 0.21055 0.98005 0.0
C49 C 0.73887 0.21655 0.96829 0.0
C50 C 0.7619 0.15463 0.95715 0.0
H51 H 0.77051 0.13066 0.95182 0.0
C52 C 0.7297 0.16045 0.94701 0.0
H53 H 0.78757 0.22991 0.9918 0.0
C54 C 0.71825 0.19121 0.95208 0.0
H55 H 0.69316 0.19524 0.94339 0.0
H56 H 0.71362 0.14112 0.93445 0.0
H57 H 0.35123 0.32895 0.59824 0.0
C58 C 0.35869 0.3425 0.55903 0.0
C59 C 0.37113 0.37317 0.57011 0.0
C60 C 0.35747 0.32873 0.49758 0.0
H61 H 0.39264 0.41295 0.52725 0.0
C62 C 0.38197 0.3898 0.51901 0.0
C63 C 0.381 0.37629 0.4578 0.0
C64 C 0.3683 0.34593 0.44718 0.0
C65 C 0.34874 0.29511 0.48624 0.0
H66 H 0.36829 0.33503 0.40014 0.0
C67 C 0.31825 0.28378 0.49745 0.0
C68 C 0.3099 0.25232 0.48029 0.0
C69 C 0.37102 0.27445 0.46039 0.0
H70 H 0.39464 0.28267 0.45173 0.0
C71 C 0.36303 0.24313 0.44509 0.0
H72 H 0.30079 0.29964 0.51663 0.0
C73 C 0.33261 0.23216 0.45442 0.0
H74 H 0.32675 0.20783 0.44139 0.0
H75 H 0.38035 0.22742 0.42515 0.0
C76 C 0.05347 0.98775 0.40027 0.0
N77 N 0.06873 0.07406 0.50129 0.0
C78 C 0.09967 0.06597 0.51064 0.0
C79 C 0.1232 0.08918 0.51546 0.0
C80 C 0.11495 0.1211 0.50996 0.0
C81 C 0.08284 0.12885 0.50045 0.0
C82 C 0.05999 0.10486 0.49662 0.0
Zn83 Zn 0.0353 0.03871 0.49308 0.0
C84 C 0.98484 0.05129 0.3943 0.0
N85 N 0.96673 0.96385 0.47542 0.0
C86 C 0.97692 0.93342 0.47175 0.0
C87 C 0.93531 0.97066 0.47638 0.0
C88 C 0.91283 0.94636 0.47481 0.0
C89 C 0.92274 0.91473 0.47166 0.0
C90 C 0.95527 0.90845 0.46957 0.0
Zn91 Zn 0.99978 0.99955 0.4829 0.0
O92 O 0.06302 1.01363 0.42679 0.0
C93 C 0.0497 0.98755 0.58309 0.0
O94 O 0.02674 0.97659 0.41334 0.0
H95 H 0.92767 0.995 0.47916 0.0
H96 H 0.10621 0.04138 0.51372 0.0
H97 H 1.00197 0.92845 0.47158 0.0
O98 O 0.05877 1.01468 0.56735 0.0
O99 O 0.02546 0.97499 0.55472 0.0
H100 H 0.03527 0.11084 0.48947 0.0
O101 O 0.9736 0.02326 0.55275 0.0
O102 O 1.00731 0.06282 0.55932 0.0
O103 O 0.97462 0.02484 0.41177 0.0
O104 O 1.01066 0.06232 0.41914 0.0
C105 C 0.98197 0.05014 0.57637 0.0
H106 H 0.1477 0.08213 0.52183 0.0
H107 H 0.07548 0.1532 0.49629 0.0
H108 H 0.88797 0.95225 0.47606 0.0
H109 H 0.96401 0.88444 0.46812 0.0
C110 C 0.47954 0.48831 0.93572 0.0
N111 N 0.56843 0.46593 0.01878 0.0
C112 C 0.55744 0.43592 0.02302 0.0
C113 C 0.57796 0.41027 0.01882 0.0
C114 C 0.61023 0.41534 0.00959 0.0
C115 C 0.62107 0.44662 0.00641 0.0
C116 C 0.59967 0.47167 0.01116 0.0
Zn117 Zn 0.53641 0.5023 0.02217 0.0
C118 C 0.54806 0.55082 0.9281 0.0
N119 N 0.46796 0.57679 0.02855 0.0
C120 C 0.43633 0.57053 0.02599 0.0
C121 C 0.47896 0.60701 0.03422 0.0
C122 C 0.45796 0.63229 0.03835 0.0
C123 C 0.42523 0.62655 0.03571 0.0
C124 C 0.41444 0.59521 0.02898 0.0
Zn125 Zn 0.50015 0.54056 0.02491 0.0
O126 O 0.5059 0.47723 0.95586 0.0
C127 C 0.48861 0.49193 0.11883 0.0
O128 O 0.47098 0.51546 0.95568 0.0
H129 H 0.50413 0.61158 0.03555 0.0
H130 H 0.53256 0.43178 0.02915 0.0
H131 H 0.42803 0.54636 0.02182 0.0
O132 O 0.51397 0.48088 0.09716 0.0
O133 O 0.47703 0.51721 0.09684 0.0
H134 H 0.60796 0.49571 0.00791 0.0
O135 O 0.53007 0.56463 0.0946 0.0
O136 O 0.56646 0.52796 0.088 0.0
O137 O 0.52397 0.56335 0.95237 0.0
O138 O 0.55808 0.52443 0.94767 0.0
C139 C 0.55724 0.55418 0.11139 0.0
H140 H 0.56855 0.38667 0.02278 0.0
H141 H 0.64565 0.4517 -0.00124 0.0
H142 H 0.46722 0.65615 0.04261 0.0
H143 H 0.38937 0.58983 0.02699 0.0
H144 H 0.27629 0.25024 0.58736 0.0
H145 H 0.27096 0.22621 0.38773 0.0
H146 H 0.22567 0.22298 0.59919 0.0
H147 H 0.22063 0.19928 0.39912 0.0
H148 H 0.12028 0.17024 0.43056 0.0
H149 H 0.16414 0.20769 0.42688 0.0
H150 H 0.21023 0.16491 0.58883 0.0
H151 H 0.16627 0.12765 0.59288 0.0
C152 C 0.26392 0.23969 0.54595 0.0
C153 C 0.27743 0.24015 0.48672 0.0
C154 C 0.23516 0.22395 0.55269 0.0
C155 C 0.21923 0.20894 0.50008 0.0
C156 C 0.23212 0.21086 0.44042 0.0
C157 C 0.26099 0.22611 0.43391 0.0
C158 C 0.13949 0.16923 0.46609 0.0
C159 C 0.13995 0.14585 0.51173 0.0
C160 C 0.16467 0.19054 0.46375 0.0
C161 C 0.19067 0.18917 0.50743 0.0
C162 C 0.19042 0.16673 0.55485 0.0
C163 C 0.16542 0.1452 0.55677 0.0
H164 H 0.35731 0.81679 0.04495 0.0
H165 H 0.2725 0.76502 0.98546 0.0
H166 H 0.3852 0.76758 0.0612 0.0
H167 H 0.30001 0.71537 0.00523 0.0
H168 H 0.37304 0.63714 0.95834 0.0
H169 H 0.33933 0.68383 0.95731 0.0
H170 H 0.39242 0.72253 0.12141 0.0
H171 H 0.42671 0.67636 0.12057 0.0
C172 C 0.34446 0.79483 0.03619 0.0
C173 C 0.31279 0.79489 0.01298 0.0
C174 C 0.36038 0.76649 0.04632 0.0
C175 C 0.345 0.7373 0.03422 0.0
C176 C 0.3128 0.73735 0.01405 0.0
C177 C 0.29687 0.76584 0.00353 0.0
C178 C 0.37718 0.6555 -0.00543 0.0
C179 C 0.40271 0.65332 0.03904 0.0
C180 C 0.35777 0.68224 -0.00573 0.0
C181 C 0.36324 0.70725 0.03893 0.0
C182 C 0.38791 0.70419 0.08531 0.0
C183 C 0.40753 0.67769 0.08504 0.0
H184 H 0.85386 0.72766 0.51732 0.0
H185 H 0.76935 0.78238 0.54454 0.0
H186 H 0.88145 0.77477 0.48718 0.0
H187 H 0.79673 0.82973 0.512 0.0
H188 H 0.87231 0.90987 0.54708 0.0
H189 H 0.83802 0.86424 0.55787 0.0
H190 H 0.88645 0.81421 0.41016 0.0
H191 H 0.92102 0.85972 0.40018 0.0
C192 C 0.84103 0.74975 0.51594 0.0
C193 C 0.80954 0.75136 0.53405 0.0
C194 C 0.85677 0.77677 0.49798 0.0
C195 C 0.84141 0.80618 0.49743 0.0
C196 C 0.8094 0.80755 0.51271 0.0
C197 C 0.79359 0.78038 0.53067 0.0
C198 C 0.87525 0.88933 0.51613 0.0
C199 C 0.89962 0.8883 0.47325 0.0
C200 C 0.85551 0.86316 0.52217 0.0
C201 C 0.8596 0.83537 0.48527 0.0
C202 C 0.88303 0.83496 0.44027 0.0
C203 C 0.90285 0.86104 0.43449 0.0
H204 H 0.7048 0.24563 0.87576 0.0
H205 H 0.74347 0.26028 0.06647 0.0
H206 H 0.67715 0.29589 0.88297 0.0
H207 H 0.71478 0.31037 0.07505 0.0
H208 H 0.67201 0.40938 0.05493 0.0
H209 H 0.70709 0.36407 0.04151 0.0
H210 H 0.63205 0.31384 0.93517 0.0
H211 H 0.59788 0.35933 0.94561 0.0
C212 C 0.70747 0.25983 0.91917 0.0
C213 C 0.72596 0.24903 0.97077 0.0
C214 C 0.69146 0.28851 0.92356 0.0
C215 C 0.69313 0.30695 0.98008 0.0
C216 C 0.71302 0.29688 0.03072 0.0
C217 C 0.72941 0.26821 0.02597 0.0
C218 C 0.6632 0.38879 0.02795 0.0
C219 C 0.63202 0.38802 0.00159 0.0
C220 C 0.68321 0.36269 0.02083 0.0
C221 C 0.67252 0.33527 0.98703 0.0
C222 C 0.64139 0.33467 0.96057 0.0
C223 C 0.62152 0.36068 0.96746 0.0
H224 H 0.13297 0.85276 0.13132 0.0
H225 H 0.19246 0.93524 0.1289 0.0
H226 H 0.10593 0.87564 0.22137 0.0
H227 H 0.1645 0.95929 0.21588 0.0
H228 H 0.11739 0.9928 0.39099 0.0
H229 H 0.15092 0.96309 0.3202 0.0
H230 H 0.0683 0.91433 0.23744 0.0
H231 H 0.0353 0.94272 0.31086 0.0
C232 C 0.14068 0.87551 0.15132 0.0
C233 C 0.165 0.89212 0.12428 0.0
C234 C 0.12488 0.88895 0.2021 0.0
C235 C 0.13251 0.91969 0.22559 0.0
C236 C 0.15807 0.93549 0.20009 0.0
C237 C 0.17422 0.92175 0.15019 0.0
C238 C 0.10648 0.97565 0.35767 0.0
C239 C 0.07369 0.97022 0.35619 0.0
C240 C 0.12569 0.95862 0.31686 0.0
C241 C 0.11251 0.93616 0.27266 0.0
C242 C 0.0796 0.9308 0.27154 0.0
C243 C 0.06051 0.94738 0.3132 0.0
H244 H 0.65169 0.68172 0.7025 0.0
H245 H 0.64094 0.59594 0.58759 0.0
H246 H 0.62216 0.65746 0.78545 0.0
H247 H 0.61121 0.57211 0.66934 0.0
H248 H 0.59583 0.52743 0.85858 0.0
H249 H 0.62406 0.55377 0.77768 0.0
H250 H 0.56688 0.63706 0.80409 0.0
H251 H 0.5385 0.61071 0.88569 0.0
C252 C 0.64291 0.6578 0.69493 0.0
C253 C 0.64846 0.6408 0.63847 0.0
C254 C 0.62586 0.64402 0.74207 0.0
C255 C 0.61447 0.61286 0.73387 0.0
C256 C 0.61993 0.59603 0.67726 0.0
C257 C 0.63667 0.60983 0.63016 0.0
C258 C 0.58917 0.55134 0.84719 0.0
C259 C 0.56479 0.56691 0.87838 0.0
C260 C 0.6053 0.56639 0.80065 0.0
C261 C 0.59759 0.59743 0.78442 0.0
C262 C 0.57344 0.61319 0.81597 0.0
C263 C 0.55708 0.59802 0.86231 0.0
H264 H 0.92455 0.16931 0.08633 0.0
H265 H 0.83717 0.12869 0.14347 0.0
H266 H 0.95288 0.14576 0.17548 0.0
H267 H 0.86524 0.10628 0.23477 0.0
H268 H 0.93207 0.0325 0.32339 0.0
H269 H 0.90109 0.06303 0.24738 0.0
H270 H 0.96327 0.14307 0.28629 0.0
H271 H 0.99487 0.11214 0.36078 0.0
C272 C 0.91127 0.156 0.11901 0.0
C273 C 0.87871 0.15053 0.10743 0.0
C274 C 0.92748 0.14263 0.17044 0.0
C275 C 0.91147 0.12363 0.21186 0.0
C276 C 0.87844 0.12018 0.20297 0.0
C277 C 0.86222 0.13347 0.15124 0.0
C278 C 0.93916 0.0566 0.31566 0.0
C279 C 0.96612 0.06977 0.3477 0.0
C280 C 0.92116 0.07427 0.27257 0.0
C281 C 0.92954 0.10563 0.26081 0.0
C282 C 0.95632 0.1189 0.29354 0.0
C283 C 0.97445 0.10114 0.3363 0.0
H284 H 0.39649 0.34431 0.67453 0.0
H285 H 0.35999 0.43362 0.61157 0.0
H286 H 0.41768 0.3702 0.77211 0.0
H287 H 0.3825 0.45982 0.70706 0.0
H288 H 0.41843 0.50038 0.89505 0.0
H289 H 0.38547 0.46976 0.81763 0.0
H290 H 0.46211 0.4037 0.79402 0.0
H291 H 0.49443 0.43356 0.87274 0.0
C292 C 0.39228 0.36932 0.68224 0.0
C293 C 0.37694 0.387 0.635 0.0
C294 C 0.40488 0.38429 0.73773 0.0
C295 C 0.40252 0.41728 0.74695 0.0
C296 C 0.38482 0.43443 0.70194 0.0
C297 C 0.37207 0.41944 0.64682 0.0
C298 C 0.42812 0.4792 0.87353 0.0
C299 C 0.45914 0.46956 0.88969 0.0
C300 C 0.40924 0.46164 0.82907 0.0
C301 C 0.42104 0.43418 0.79938 0.0
C302 C 0.4519 0.42431 0.81664 0.0
C303 C 0.47063 0.44168 0.86138 0.0
H304 H 0.68871 0.60196 0.42146 0.0
H305 H 0.64203 0.69063 0.38888 0.0
H306 H 0.66227 0.57891 0.3263 0.0
H307 H 0.61628 0.66824 0.29142 0.0
H308 H 0.54101 0.60395 0.18832 0.0
H309 H 0.57438 0.63225 0.26793 0.0
H310 H 0.65428 0.57515 0.21597 0.0
H311 H 0.62042 0.54591 0.13828 0.0
C312 C 0.67368 0.61682 0.39216 0.0
C313 C 0.66758 0.64805 0.41158 0.0
C314 C 0.65847 0.60368 0.33757 0.0
C315 C 0.63683 0.62158 0.30114 0.0
C316 C 0.63231 0.65357 0.31886 0.0
C317 C 0.64736 0.6666 0.37398 0.0
C318 C 0.56573 0.59752 0.19377 0.0
C319 C 0.57796 0.57243 0.15756 0.0
C320 C 0.58502 0.614 0.23904 0.0
C321 C 0.61715 0.60606 0.24867 0.0
C322 C 0.62957 0.58159 0.21079 0.0
C323 C 0.61016 0.56485 0.1661 0.0
H324 H 0.8877 0.09245 0.91801 0.0
H325 H 0.87361 0.1786 0.81715 0.0
H326 H 0.91448 0.06904 0.82863 0.0
H327 H 0.90063 0.15502 0.72686 0.0
H328 H 0.93137 0.02617 0.63426 0.0
H329 H 0.90056 0.05174 0.71563 0.0
H330 H 0.95739 0.13609 0.70712 0.0
H331 H 0.98841 0.11054 0.62549 0.0
C332 C 0.89039 0.10635 0.87654 0.0
C333 C 0.87886 0.13738 0.87447 0.0
C334 C 0.90546 0.09287 0.82524 0.0
C335 C 0.90958 0.11021 0.77086 0.0
C336 C 0.89788 0.14124 0.76845 0.0
C337 C 0.88234 0.15463 0.81972 0.0
C338 C 0.93724 0.05022 0.64942 0.0
C339 C 0.96252 0.06623 0.6238 0.0
C340 C 0.91962 0.06481 0.69609 0.0
C341 C 0.92668 0.09583 0.71775 0.0
C342 C 0.95131 0.11223 0.6909 0.0
C343 C 0.96919 0.09751 0.64457 0.0
H344 H 0.35637 0.38774 0.33885 0.0
H345 H 0.43994 0.4018 0.46151 0.0
H346 H 0.38198 0.41577 0.25523 0.0
H347 H 0.46539 0.42966 0.37852 0.0
H348 H 0.51185 0.44384 0.18974 0.0
H349 H 0.48506 0.41529 0.26999 0.0
H350 H 0.40183 0.47255 0.23887 0.0
H351 H 0.42865 0.50138 0.15854 0.0
C352 C 0.38018 0.39678 0.34774 0.0
C353 C 0.39614 0.39284 0.40659 0.0
C354 C 0.39472 0.41293 0.30024 0.0
C355 C 0.42563 0.42485 0.31056 0.0
C356 C 0.44163 0.42054 0.36919 0.0
C357 C 0.42699 0.40483 0.41677 0.0
C358 C 0.48786 0.45041 0.20002 0.0
C359 C 0.47243 0.47498 0.16805 0.0
C360 C 0.47257 0.4341 0.24604 0.0
C361 C 0.4414 0.44174 0.26056 0.0
C362 C 0.42579 0.46605 0.22818 0.0
C363 C 0.44123 0.48268 0.18263 0.0
H364 H 0.15546 0.85855 0.82927 0.0
H365 H 0.13783 0.9425 0.94323 0.0
H366 H 0.12667 0.88196 0.73893 0.0
H367 H 0.10903 0.96552 0.8539 0.0
H368 H 0.09706 1.01126 0.66254 0.0
H369 H 0.12503 0.985 0.74903 0.0
H370 H 0.07015 0.9003 0.70672 0.0
H371 H 0.0419 0.92661 0.61967 0.0
C372 C 0.14528 0.88185 0.83503 0.0
C373 C 0.14869 0.89862 0.89331 0.0
C374 C 0.12872 0.89514 0.78361 0.0
C375 C 0.11579 0.92559 0.78946 0.0
C376 C 0.119 0.94214 0.84789 0.0
C377 C 0.1352 0.9288 0.89921 0.0
C378 C 0.09093 0.98702 0.67145 0.0
C379 C 0.06711 0.97109 0.63447 0.0
C380 C 0.10689 0.97204 0.72116 0.0
C381 C 0.0996 0.9407 0.73476 0.0
C382 C 0.0763 0.92444 0.69702 0.0
C383 C 0.06005 0.93956 0.64751 0.0
loop_
_geom_bond_atom_site_label_1
_geom_bond_atom_site_label_2
_geom_bond_distance
_geom_bond_site_symmetry_2
_ccdc_geom_bond_type
H0 C1 0.949 . S
C1 H0 0.949 . S
C1 C2 1.395 . S
C1 C3 1.391 1_554 S
C2 C1 1.395 . S
C2 C5 1.390 . S
C3 C1 1.391 1_556 S
C3 C7 1.387 . S
C3 C8 1.491 . S
H4 C5 0.950 . S
C5 C2 1.390 . S
C5 H4 0.950 . S
C5 C6 1.378 1_554 S
C6 C5 1.378 1_556 S
C6 C7 1.409 . S
C7 C3 1.387 . S
C7 C6 1.409 . S
C7 H9 0.951 . S
C8 C3 1.491 . S
C8 C10 1.382 1_556 S
C8 C12 1.404 . S
H9 C7 0.951 . S
C10 C8 1.382 1_554 S
C10 C11 1.390 . S
C10 H15 0.949 . S
C11 C10 1.390 . S
C11 C16 1.399 1_554 S
C12 C8 1.404 . S
C12 H13 0.950 . S
C12 C14 1.375 . S
H13 C12 0.950 . S
C14 C12 1.375 . S
C14 C16 1.382 . S
C14 H18 0.950 . S
H15 C10 0.949 . S
C16 C11 1.399 1_556 S
C16 C14 1.382 . S
C16 H17 0.952 . S
H17 C16 0.952 . S
H18 C14 0.950 . S
H19 C20 0.949 . S
C20 H19 0.949 . S
C20 C21 1.395 . S
C20 C22 1.391 . S
C21 C20 1.395 . S
C21 C24 1.390 . S
C22 C20 1.391 . S
C22 C26 1.387 . S
C22 C27 1.491 . S
H23 C24 0.950 . S
C24 C21 1.390 . S
C24 H23 0.950 . S
C24 C25 1.378 . S
C25 C24 1.378 . S
C25 C26 1.409 . S
C26 C22 1.387 . S
C26 C25 1.409 . S
C26 H28 0.951 . S
C27 C22 1.491 . S
C27 C29 1.382 . S
C27 C31 1.404 . S
H28 C26 0.951 . S
C29 C27 1.382 . S
C29 C30 1.390 . S
C29 H34 0.949 . S
C30 C29 1.390 . S
C30 C35 1.399 . S
C31 C27 1.404 . S
C31 H32 0.950 . S
C31 C33 1.375 . S
H32 C31 0.950 . S
C33 C31 1.375 . S
C33 C35 1.382 . S
C33 H37 0.950 . S
H34 C29 0.949 . S
C35 C30 1.399 . S
C35 C33 1.382 . S
C35 H36 0.952 . S
H36 C35 0.952 . S
H37 C33 0.950 . S
H38 C39 0.949 . S
C39 H38 0.949 . S
C39 C40 1.395 . S
C39 C41 1.391 1_554 S
C40 C39 1.395 . S
C40 C43 1.390 . S
C41 C39 1.391 1_556 S
C41 C45 1.387 . S
C41 C46 1.491 . S
H42 C43 0.950 . S
C43 C40 1.390 . S
C43 H42 0.950 . S
C43 C44 1.378 1_554 S
C44 C43 1.378 1_556 S
C44 C45 1.409 . S
C45 C41 1.387 . S
C45 C44 1.409 . S
C45 H47 0.951 . S
C46 C41 1.491 . S
C46 C48 1.382 1_556 S
C46 C50 1.404 . S
H47 C45 0.951 . S
C48 C46 1.382 1_554 S
C48 C49 1.390 . S
C48 H53 0.949 . S
C49 C48 1.390 . S
C49 C54 1.399 1_554 S
C50 C46 1.404 . S
C50 H51 0.950 . S
C50 C52 1.375 . S
H51 C50 0.950 . S
C52 C50 1.375 . S
C52 C54 1.382 . S
C52 H56 0.950 . S
H53 C48 0.949 . S
C54 C49 1.399 1_556 S
C54 C52 1.382 . S
C54 H55 0.952 . S
H55 C54 0.952 . S
H56 C52 0.950 . S
H57 C58 0.949 . S
C58 H57 0.949 . S
C58 C59 1.395 . S
C58 C60 1.391 . S
C59 C58 1.395 . S
C59 C62 1.390 . S
C60 C58 1.391 . S
C60 C64 1.387 . S
C60 C65 1.491 . S
H61 C62 0.950 . S
C62 C59 1.390 . S
C62 H61 0.950 . S
C62 C63 1.378 . S
C63 C62 1.378 . S
C63 C64 1.409 . S
C64 C60 1.387 . S
C64 C63 1.409 . S
C64 H66 0.951 . S
C65 C60 1.491 . S
C65 C67 1.382 . S
C65 C69 1.404 . S
H66 C64 0.951 . S
C67 C65 1.382 . S
C67 C68 1.390 . S
C67 H72 0.949 . S
C68 C67 1.390 . S
C68 C73 1.399 . S
C69 C65 1.404 . S
C69 H70 0.950 . S
C69 C71 1.375 . S
H70 C69 0.950 . S
C71 C69 1.375 . S
C71 C73 1.382 . S
C71 H75 0.950 . S
H72 C67 0.949 . S
C73 C68 1.399 . S
C73 C71 1.382 . S
C73 H74 0.952 . S
H74 C73 0.952 . S
H75 C71 0.950 . S
C76 O92 1.268 . S
C76 O94 1.254 . S
N77 C78 1.333 . S
N77 C82 1.307 . S
N77 Zn83 2.020 . S
C78 N77 1.333 . S
C78 C79 1.379 . S
C78 H96 0.952 . S
C79 C78 1.379 . S
C79 C80 1.390 . S
C79 H106 0.949 . S
C80 C79 1.390 . S
C80 C81 1.357 . S
C81 C80 1.357 . S
C81 C82 1.370 . S
C81 H107 0.950 . S
C82 N77 1.307 . S
C82 C81 1.370 . S
C82 H100 0.948 . S
Zn83 N77 2.020 . S
Zn83 O92 2.028 1_545 S
Zn83 O98 2.034 1_545 S
Zn83 O102 2.015 1_455 S
Zn83 O104 2.024 1_455 S
C84 O103 1.246 . S
C84 O104 1.249 . S
N85 C86 1.307 . S
N85 C87 1.333 . S
N85 Zn91 2.020 . S
C86 N85 1.307 . S
C86 C90 1.370 . S
C86 H97 0.948 . S
C87 N85 1.333 . S
C87 C88 1.379 . S
C87 H95 0.952 . S
C88 C87 1.379 . S
C88 C89 1.390 . S
C88 H108 0.949 . S
C89 C88 1.390 . S
C89 C90 1.357 . S
C90 C86 1.370 . S
C90 C89 1.357 . S
C90 H109 0.950 . S
Zn91 N85 2.020 . S
Zn91 O94 2.025 1_655 S
Zn91 O99 2.024 1_655 S
Zn91 O101 2.039 1_565 S
Zn91 O103 2.034 1_565 S
O92 C76 1.268 . S
O92 Zn83 2.028 1_565 S
C93 O98 1.246 . S
C93 O99 1.249 . S
O94 C76 1.254 . S
O94 Zn91 2.025 1_455 S
H95 C87 0.952 . S
H96 C78 0.952 . S
H97 C86 0.948 . S
O98 Zn83 2.034 1_565 S
O98 C93 1.246 . S
O99 Zn91 2.024 1_455 S
O99 C93 1.249 . S
H100 C82 0.948 . S
O101 Zn91 2.039 1_545 S
O101 C105 1.251 . S
O102 Zn83 2.015 1_655 S
O102 C105 1.268 . S
O103 C84 1.246 . S
O103 Zn91 2.034 1_545 S
O104 Zn83 2.024 1_655 S
O104 C84 1.249 . S
C105 O101 1.251 . S
C105 O102 1.268 . S
H106 C79 0.949 . S
H107 C81 0.950 . S
H108 C88 0.949 . S
H109 C90 0.950 . S
C110 O126 1.251 . S
C110 O128 1.254 . S
N111 C112 1.333 . S
N111 C116 1.307 . S
N111 Zn117 2.020 . S
C112 N111 1.333 . S
C112 C113 1.379 . S
C112 H130 0.952 1_554 S
C113 C112 1.379 . S
C113 C114 1.390 . S
C113 H140 0.949 1_554 S
C114 C113 1.390 . S
C114 C115 1.357 . S
C115 C114 1.357 . S
C115 C116 1.370 . S
C115 H141 0.950 . S
C116 N111 1.307 . S
C116 C115 1.370 . S
C116 H134 0.948 . S
Zn117 N111 2.020 . S
Zn117 O126 2.039 1_554 S
Zn117 O132 2.034 . S
Zn117 O136 2.025 . S
Zn117 O138 2.024 1_554 S
C118 O137 1.246 . S
C118 O138 1.249 . S
N119 C120 1.307 . S
N119 C121 1.333 . S
N119 Zn125 2.020 . S
C120 N119 1.307 . S
C120 C124 1.370 . S
C120 H131 0.950 . S
C121 N119 1.333 . S
C121 C122 1.379 . S
C121 H129 0.952 . S
C122 C121 1.379 . S
C122 C123 1.390 . S
C122 H142 0.949 . S
C123 C122 1.390 . S
C123 C124 1.357 . S
C124 C120 1.370 . S
C124 C123 1.357 . S
C124 H143 0.950 . S
Zn125 N119 2.020 . S
Zn125 O128 2.025 1_554 S
Zn125 O133 2.024 . S
Zn125 O135 2.039 . S
Zn125 O137 2.034 1_554 S
O126 C110 1.251 . S
O126 Zn117 2.039 1_556 S
C127 O132 1.246 . S
C127 O133 1.249 . S
O128 C110 1.254 . S
O128 Zn125 2.025 1_556 S
H129 C121 0.952 . S
H130 C112 0.952 1_556 S
H131 C120 0.950 . S
O132 Zn117 2.034 . S
O132 C127 1.246 . S
O133 Zn125 2.024 . S
O133 C127 1.249 . S
H134 C116 0.948 . S
O135 Zn125 2.039 . S
O135 C139 1.251 . S
O136 Zn117 2.025 . S
O136 C139 1.254 . S
O137 C118 1.246 . S
O137 Zn125 2.034 1_556 S
O138 Zn117 2.024 1_556 S
O138 C118 1.249 . S
C139 O135 1.251 . S
C139 O136 1.254 . S
H140 C113 0.949 1_556 S
H141 C115 0.950 . S
H142 C122 0.949 . S
H143 C124 0.950 . S
H144 C152 0.950 . S
H145 C157 0.950 . S
H146 C154 0.950 . S
H147 C156 0.950 . S
H148 C158 0.950 . S
H149 C160 0.950 . S
H150 C162 0.950 . S
H151 C163 0.950 . S
C152 H144 0.950 . S
C152 C153 1.386 . S
C152 C154 1.391 . S
C153 C152 1.386 . S
C153 C157 1.393 . S
C154 H146 0.950 . S
C154 C152 1.391 . S
C154 C155 1.400 . S
C155 C154 1.400 . S
C155 C156 1.398 . S
C155 C161 1.491 . S
C156 H147 0.950 . S
C156 C155 1.398 . S
C156 C157 1.391 . S
C157 H145 0.950 . S
C157 C153 1.393 . S
C157 C156 1.391 . S
C158 H148 0.950 . S
C158 C159 1.386 . S
C158 C160 1.391 . S
C159 C158 1.386 . S
C159 C163 1.393 . S
C160 H149 0.950 . S
C160 C158 1.391 . S
C160 C161 1.400 . S
C161 C155 1.491 . S
C161 C160 1.400 . S
C161 C162 1.398 . S
C162 H150 0.950 . S
C162 C161 1.398 . S
C162 C163 1.391 . S
C163 H151 0.950 . S
C163 C159 1.393 . S
C163 C162 1.391 . S
H164 C172 0.950 . S
H165 C177 0.950 . S
H166 C174 0.950 . S
H167 C176 0.950 . S
H168 C178 0.950 . S
H169 C180 0.950 . S
H170 C182 0.950 . S
H171 C183 0.950 . S
C172 H164 0.950 . S
C172 C173 1.386 . S
C172 C174 1.391 . S
C173 C172 1.386 . S
C173 C177 1.393 1_554 S
C174 H166 0.950 . S
C174 C172 1.391 . S
C174 C175 1.400 . S
C175 C174 1.400 . S
C175 C176 1.398 1_554 S
C175 C181 1.491 . S
C176 H167 0.950 . S
C176 C175 1.398 1_556 S
C176 C177 1.391 . S
C177 H165 0.950 . S
C177 C173 1.393 1_556 S
C177 C176 1.391 . S
C178 H168 0.950 . S
C178 C179 1.386 1_556 S
C178 C180 1.391 . S
C179 C178 1.386 1_554 S
C179 C183 1.393 . S
C180 H169 0.950 . S
C180 C178 1.391 . S
C180 C181 1.400 1_556 S
C181 C175 1.491 . S
C181 C180 1.400 1_554 S
C181 C182 1.398 . S
C182 H170 0.950 . S
C182 C181 1.398 . S
C182 C183 1.391 . S
C183 H171 0.950 . S
C183 C179 1.393 . S
C183 C182 1.391 . S
H184 C192 0.950 . S
H185 C197 0.950 . S
H186 C194 0.950 . S
H187 C196 0.950 . S
H188 C198 0.950 . S
H189 C200 0.950 . S
H190 C202 0.950 . S
H191 C203 0.950 . S
C192 H184 0.950 . S
C192 C193 1.386 . S
C192 C194 1.391 . S
C193 C192 1.386 . S
C193 C197 1.393 . S
C194 H186 0.950 . S
C194 C192 1.391 . S
C194 C195 1.400 . S
C195 C194 1.400 . S
C195 C196 1.398 . S
C195 C201 1.491 . S
C196 H187 0.950 . S
C196 C195 1.398 . S
C196 C197 1.391 . S
C197 H185 0.950 . S
C197 C193 1.393 . S
C197 C196 1.391 . S
C198 H188 0.950 . S
C198 C199 1.386 . S
C198 C200 1.391 . S
C199 C198 1.386 . S
C199 C203 1.393 . S
C200 H189 0.950 . S
C200 C198 1.391 . S
C200 C201 1.400 . S
C201 C195 1.491 . S
C201 C200 1.400 . S
C201 C202 1.398 . S
C202 H190 0.950 . S
C202 C201 1.398 . S
C202 C203 1.391 . S
C203 H191 0.950 . S
C203 C199 1.393 . S
C203 C202 1.391 . S
H204 C212 0.950 . S
H205 C217 0.950 . S
H206 C214 0.950 . S
H207 C216 0.950 . S
H208 C218 0.950 . S
H209 C220 0.950 . S
H210 C222 0.950 . S
H211 C223 0.950 . S
C212 H204 0.950 . S
C212 C213 1.386 1_556 S
C212 C214 1.391 . S
C213 C212 1.386 1_554 S
C213 C217 1.393 . S
C214 H206 0.950 . S
C214 C212 1.391 . S
C214 C215 1.400 1_556 S
C215 C214 1.400 1_554 S
C215 C216 1.398 . S
C215 C221 1.491 . S
C216 H207 0.950 . S
C216 C215 1.398 . S
C216 C217 1.391 . S
C217 H205 0.950 . S
C217 C213 1.393 . S
C217 C216 1.391 . S
C218 H208 0.950 . S
C218 C219 1.386 . S
C218 C220 1.391 . S
C219 C218 1.386 . S
C219 C223 1.393 1_554 S
C220 H209 0.950 . S
C220 C218 1.391 . S
C220 C221 1.400 . S
C221 C215 1.491 . S
C221 C220 1.400 . S
C221 C222 1.398 1_554 S
C222 H210 0.950 . S
C222 C221 1.398 1_556 S
C222 C223 1.391 . S
C223 H211 0.950 . S
C223 C219 1.393 1_556 S
C223 C222 1.391 . S
H224 C232 0.950 . S
H225 C237 0.950 . S
H226 C234 0.950 . S
H227 C236 0.950 . S
H228 C238 0.950 . S
H229 C240 0.950 . S
H230 C242 0.950 . S
H231 C243 0.950 . S
C232 H224 0.950 . S
C232 C233 1.386 . S
C232 C234 1.391 . S
C233 C232 1.386 . S
C233 C237 1.393 . S
C234 H226 0.950 . S
C234 C232 1.391 . S
C234 C235 1.400 . S
C235 C234 1.400 . S
C235 C236 1.398 . S
C235 C241 1.491 . S
C236 H227 0.950 . S
C236 C235 1.398 . S
C236 C237 1.391 . S
C237 H225 0.950 . S
C237 C233 1.393 . S
C237 C236 1.391 . S
C238 H228 0.950 . S
C238 C239 1.386 . S
C238 C240 1.391 . S
C239 C238 1.386 . S
C239 C243 1.393 . S
C240 H229 0.950 . S
C240 C238 1.391 . S
C240 C241 1.400 . S
C241 C235 1.491 . S
C241 C240 1.400 . S
C241 C242 1.398 . S
C242 H230 0.950 . S
C242 C241 1.398 . S
C242 C243 1.391 . S
C243 H231 0.950 . S
C243 C239 1.393 . S
C243 C242 1.391 . S
H244 C252 0.950 . S
H245 C257 0.950 . S
H246 C254 0.950 . S
H247 C256 0.950 . S
H248 C258 0.950 . S
H249 C260 0.950 . S
H250 C262 0.950 . S
H251 C263 0.950 . S
C252 H244 0.950 . S
C252 C253 1.386 . S
C252 C254 1.391 . S
C253 C252 1.386 . S
C253 C257 1.393 . S
C254 H246 0.950 . S
C254 C252 1.391 . S
C254 C255 1.400 . S
C255 C254 1.400 . S
C255 C256 1.398 . S
C255 C261 1.491 . S
C256 H247 0.950 . S
C256 C255 1.398 . S
C256 C257 1.391 . S
C257 H245 0.950 . S
C257 C253 1.393 . S
C257 C256 1.391 . S
C258 H248 0.950 . S
C258 C259 1.386 . S
C258 C260 1.391 . S
C259 C258 1.386 . S
C259 C263 1.393 . S
C260 H249 0.950 . S
C260 C258 1.391 . S
C260 C261 1.400 . S
C261 C255 1.491 . S
C261 C260 1.400 . S
C261 C262 1.398 . S
C262 H250 0.950 . S
C262 C261 1.398 . S
C262 C263 1.391 . S
C263 H251 0.950 . S
C263 C259 1.393 . S
C263 C262 1.391 . S
H264 C272 0.950 . S
H265 C277 0.950 . S
H266 C274 0.950 . S
H267 C276 0.950 . S
H268 C278 0.950 . S
H269 C280 0.950 . S
H270 C282 0.950 . S
H271 C283 0.950 . S
C272 H264 0.950 . S
C272 C273 1.386 . S
C272 C274 1.391 . S
C273 C272 1.386 . S
C273 C277 1.393 . S
C274 H266 0.950 . S
C274 C272 1.391 . S
C274 C275 1.400 . S
C275 C274 1.400 . S
C275 C276 1.398 . S
C275 C281 1.491 . S
C276 H267 0.950 . S
C276 C275 1.398 . S
C276 C277 1.391 . S
C277 H265 0.950 . S
C277 C273 1.393 . S
C277 C276 1.391 . S
C278 H268 0.950 . S
C278 C279 1.386 . S
C278 C280 1.391 . S
C279 C278 1.386 . S
C279 C283 1.393 . S
C280 H269 0.950 . S
C280 C278 1.391 . S
C280 C281 1.400 . S
C281 C275 1.491 . S
C281 C280 1.400 . S
C281 C282 1.398 . S
C282 H270 0.950 . S
C282 C281 1.398 . S
C282 C283 1.391 . S
C283 H271 0.950 . S
C283 C279 1.393 . S
C283 C282 1.391 . S
H284 C292 0.950 . S
H285 C297 0.950 . S
H286 C294 0.950 . S
H287 C296 0.950 . S
H288 C298 0.950 . S
H289 C300 0.950 . S
H290 C302 0.950 . S
H291 C303 0.950 . S
C292 H284 0.950 . S
C292 C293 1.386 . S
C292 C294 1.391 . S
C293 C292 1.386 . S
C293 C297 1.393 . S
C294 H286 0.950 . S
C294 C292 1.391 . S
C294 C295 1.400 . S
C295 C294 1.400 . S
C295 C296 1.398 . S
C295 C301 1.491 . S
C296 H287 0.950 . S
C296 C295 1.398 . S
C296 C297 1.391 . S
C297 H285 0.950 . S
C297 C293 1.393 . S
C297 C296 1.391 . S
C298 H288 0.950 . S
C298 C299 1.386 . S
C298 C300 1.391 . S
C299 C298 1.386 . S
C299 C303 1.393 . S
C300 H289 0.950 . S
C300 C298 1.391 . S
C300 C301 1.400 . S
C301 C295 1.491 . S
C301 C300 1.400 . S
C301 C302 1.398 . S
C302 H290 0.950 . S
C302 C301 1.398 . S
C302 C303 1.391 . S
C303 H291 0.950 . S
C303 C299 1.393 . S
C303 C302 1.391 . S
H304 C312 0.950 . S
H305 C317 0.950 . S
H306 C314 0.950 . S
H307 C316 0.950 . S
H308 C318 0.950 . S
H309 C320 0.950 . S
H310 C322 0.950 . S
H311 C323 0.950 . S
C312 H304 0.950 . S
C312 C313 1.386 . S
C312 C314 1.391 . S
C313 C312 1.386 . S
C313 C317 1.393 . S
C314 H306 0.950 . S
C314 C312 1.391 . S
C314 C315 1.400 . S
C315 C314 1.400 . S
C315 C316 1.398 . S
C315 C321 1.491 . S
C316 H307 0.950 . S
C316 C315 1.398 . S
C316 C317 1.391 . S
C317 H305 0.950 . S
C317 C313 1.393 . S
C317 C316 1.391 . S
C318 H308 0.950 . S
C318 C319 1.386 . S
C318 C320 1.391 . S
C319 C318 1.386 . S
C319 C323 1.393 . S
C320 H309 0.950 . S
C320 C318 1.391 . S
C320 C321 1.400 . S
C321 C315 1.491 . S
C321 C320 1.400 . S
C321 C322 1.398 . S
C322 H310 0.950 . S
C322 C321 1.398 . S
C322 C323 1.391 . S
C323 H311 0.950 . S
C323 C319 1.393 . S
C323 C322 1.391 . S
H324 C332 0.950 . S
H325 C337 0.950 . S
H326 C334 0.950 . S
H327 C336 0.950 . S
H328 C338 0.950 . S
H329 C340 0.950 . S
H330 C342 0.950 . S
H331 C343 0.950 . S
C332 H324 0.950 . S
C332 C333 1.386 . S
C332 C334 1.391 . S
C333 C332 1.386 . S
C333 C337 1.393 . S
C334 H326 0.950 . S
C334 C332 1.391 . S
C334 C335 1.400 . S
C335 C334 1.400 . S
C335 C336 1.398 . S
C335 C341 1.491 . S
C336 H327 0.950 . S
C336 C335 1.398 . S
C336 C337 1.391 . S
C337 H325 0.950 . S
C337 C333 1.393 . S
C337 C336 1.391 . S
C338 H328 0.950 . S
C338 C339 1.386 . S
C338 C340 1.391 . S
C339 C338 1.386 . S
C339 C343 1.393 . S
C340 H329 0.950 . S
C340 C338 1.391 . S
C340 C341 1.400 . S
C341 C335 1.491 . S
C341 C340 1.400 . S
C341 C342 1.398 . S
C342 H330 0.950 . S
C342 C341 1.398 . S
C342 C343 1.391 . S
C343 H331 0.950 . S
C343 C339 1.393 . S
C343 C342 1.391 . S
H344 C352 0.950 . S
H345 C357 0.950 . S
H346 C354 0.950 . S
H347 C356 0.950 . S
H348 C358 0.950 . S
H349 C360 0.950 . S
H350 C362 0.950 . S
H351 C363 0.950 . S
C352 H344 0.950 . S
C352 C353 1.386 . S
C352 C354 1.391 . S
C353 C352 1.386 . S
C353 C357 1.393 . S
C354 H346 0.950 . S
C354 C352 1.391 . S
C354 C355 1.400 . S
C355 C354 1.400 . S
C355 C356 1.398 . S
C355 C361 1.491 . S
C356 H347 0.950 . S
C356 C355 1.398 . S
C356 C357 1.391 . S
C357 H345 0.950 . S
C357 C353 1.393 . S
C357 C356 1.391 . S
C358 H348 0.950 . S
C358 C359 1.386 . S
C358 C360 1.391 . S
C359 C358 1.386 . S
C359 C363 1.393 . S
C360 H349 0.950 . S
C360 C358 1.391 . S
C360 C361 1.400 . S
C361 C355 1.491 . S
C361 C360 1.400 . S
C361 C362 1.398 . S
C362 H350 0.950 . S
C362 C361 1.398 . S
C362 C363 1.391 . S
C363 H351 0.950 . S
C363 C359 1.393 . S
C363 C362 1.391 . S
H364 C372 0.950 . S
H365 C377 0.950 . S
H366 C374 0.950 . S
H367 C376 0.950 . S
H368 C378 0.950 . S
H369 C380 0.950 . S
H370 C382 0.950 . S
H371 C383 0.950 . S
C372 H364 0.950 . S
C372 C373 1.386 . S
C372 C374 1.391 . S
C373 C372 1.386 . S
C373 C377 1.393 . S
C374 H366 0.950 . S
C374 C372 1.391 . S
C374 C375 1.400 . S
C375 C374 1.400 . S
C375 C376 1.398 . S
C375 C381 1.491 . S
C376 H367 0.950 . S
C376 C375 1.398 . S
C376 C377 1.391 . S
C377 H365 0.950 . S
C377 C373 1.393 . S
C377 C376 1.391 . S
C378 H368 0.950 . S
C378 C379 1.386 . S
C378 C380 1.391 . S
C379 C378 1.386 . S
C379 C383 1.393 . S
C380 H369 0.950 . S
C380 C378 1.391 . S
C380 C381 1.400 . S
C381 C375 1.491 . S
C381 C380 1.400 . S
C381 C382 1.398 . S
C382 H370 0.950 . S
C382 C381 1.398 . S
C382 C383 1.391 . S
C383 H371 0.950 . S
C383 C379 1.393 . S
C383 C382 1.391 . S
C159 C80 1.543 . S
C153 C68 1.439 . S
C173 C11 1.436 . S
C179 C123 1.544 . S
C193 C30 1.441 . S
C199 C89 1.542 . S
C213 C49 1.412 . S
C219 C114 1.539 . S
C239 C76 1.626 . S
C233 C2 1.595 . S
C259 C118 1.597 . S
C253 C25 1.600 . S
C273 C40 1.591 . S
C279 C84 1.616 . S
C293 C59 1.560 . S
C299 C110 1.597 . S
C319 C139 1.502 . S
C313 C21 1.463 . S
C339 C105 1.492 . S
C333 C44 1.491 . S
C359 C127 1.506 . S
C353 C63 1.509 . S
C373 C6 1.489 . S
C379 C93 1.487 . S
