# Generated by pormake.
# Topology pth, (4,4)-cn, num edge types: 1
# Building blocks:
#     Node 0, Type 0, BuildingBlock: QUQFOY_clean_sbu_1, # of connection points: 4
#     Node 1, Type 0, BuildingBlock: QUQFOY_clean_sbu_1, # of connection points: 4
#     Node 2, Type 0, BuildingBlock: QUQFOY_clean_sbu_1, # of connection points: 4
#     Node 3, Type 1, BuildingBlock: MUDLON_clean_linker_0, # of connection points: 4
#     Node 4, Type 1, BuildingBlock: MUDLON_clean_linker_0, # of connection points: 4
#     Node 5, Type 1, BuildingBlock: MUDLON_clean_linker_0, # of connection points: 4
#     Edge 6, Type (0, 1), BuildingBlock: KIFKEQ_clean_linker_1, # of connection points: 2
#     Edge 7, Type (0, 1), BuildingBlock: KIFKEQ_clean_linker_1, # of connection points: 2
#     Edge 8, Type (0, 1), BuildingBlock: KIFKEQ_clean_linker_1, # of connection points: 2
#     Edge 9, Type (0, 1), BuildingBlock: KIFKEQ_clean_linker_1, # of connection points: 2
#     Edge 10, Type (0, 1), BuildingBlock: KIFKEQ_clean_linker_1, # of connection points: 2
#     Edge 11, Type (0, 1), BuildingBlock: KIFKEQ_clean_linker_1, # of connection points: 2
#     Edge 12, Type (0, 1), BuildingBlock: KIFKEQ_clean_linker_1, # of connection points: 2
#     Edge 13, Type (0, 1), BuildingBlock: KIFKEQ_clean_linker_1, # of connection points: 2
#     Edge 14, Type (0, 1), BuildingBlock: KIFKEQ_clean_linker_1, # of connection points: 2
#     Edge 15, Type (0, 1), BuildingBlock: KIFKEQ_clean_linker_1, # of connection points: 2
#     Edge 16, Type (0, 1), BuildingBlock: KIFKEQ_clean_linker_1, # of connection points: 2
#     Edge 17, Type (0, 1), BuildingBlock: KIFKEQ_clean_linker_1, # of connection points: 2
# Relax obj value: 0.050
# Max RMSD: 0.152
# Mean RMSD: 0.116
data_MOF--net-pth--node1-QUQFOY_clean_sbu_1--node2-MUDLON_clean_linker_0--edge1-KIFKEQ_clean_linker_1
_symmetry_space_group_name_H-M    P1
_symmetry_Int_Tables_number       1
_symmetry_cell_setting            triclinic
loop_
_symmetry_equiv_pos_as_xyz
'x, y, z'
_cell_length_a     32.941146
_cell_length_b     35.187124
_cell_length_c     71.436838
_cell_angle_alpha  89.940923
_cell_angle_beta   90.037136
_cell_angle_gamma 120.05275
loop_
_atom_site_label
_atom_site_type_symbol
_atom_site_fract_x
_atom_site_fract_y
_atom_site_fract_z
_atom_type_partial_charge
O0 O 0.03113 0.07335 0.01679 0.0
Cd1 Cd 0.97348 0.03425 0.03309 0.0
Cd2 Cd 0.01409 0.98293 0.03257 0.0
O3 O 0.06947 0.03731 0.02005 0.0
O4 O 0.95003 0.07429 0.04067 0.0
O5 O 0.97813 0.04557 0.06086 0.0
C6 C 0.96158 0.07138 0.05764 0.0
C7 C 0.02655 0.94541 0.05683 0.0
C8 C 0.06732 0.07014 0.01383 0.0
C9 C 0.91938 0.9478 0.01397 0.0
O10 O 0.95541 0.94408 0.01657 0.0
O11 O 0.91787 0.98069 0.02047 0.0
O12 O 0.03763 0.94269 0.03978 0.0
O13 O 0.0102 0.97128 0.0603 0.0
O14 O 0.97617 0.04377 0.38342 0.0
Cd15 Cd 0.02977 0.05754 0.36495 0.0
Cd16 Cd 0.98455 0.96872 0.36364 0.0
O17 O 0.93192 0.973 0.37762 0.0
O18 O 0.05395 0.11987 0.35759 0.0
O19 O 0.0208 0.06464 0.33756 0.0
C20 C 0.03946 0.10621 0.34083 0.0
C21 C 0.96703 0.91832 0.33936 0.0
C22 C 0.93835 1.00759 0.38586 0.0
C23 C 0.08118 0.01701 0.38144 0.0
O24 O 0.04311 0.98104 0.37894 0.0
O25 O 0.08541 0.05283 0.37543 0.0
O26 O 0.95692 0.90581 0.35652 0.0
O27 O 0.98538 0.95972 0.33579 0.0
O28 O 0.94204 0.98639 0.6832 0.0
Cd29 Cd 0.98403 0.97209 0.69971 0.0
Cd30 Cd 0.03508 0.05931 0.70099 0.0
O31 O 0.97649 0.05718 0.68936 0.0
O32 O 0.94294 0.90993 0.70771 0.0
O33 O 0.973 0.96575 0.7275 0.0
C34 C 0.94653 0.92412 0.72462 0.0
C35 C 0.07159 0.10017 0.72768 0.0
C36 C 0.94366 0.0231 0.6816 0.0
C37 C 0.07574 0.01185 0.6802 0.0
O38 O 0.07757 0.0483 0.68323 0.0
O39 O 0.04253 0.97656 0.68705 0.0
O40 O 0.07501 0.11904 0.7118 0.0
O41 O 0.04572 0.05793 0.72857 0.0
H42 H 0.88334 0.63622 0.20809 0.0
N43 N 0.9548 0.6278 0.19646 0.0
H44 H 0.88273 0.68155 0.23389 0.0
H45 H 0.02364 0.66797 0.22289 0.0
H46 H 0.02341 0.71332 0.24887 0.0
H47 H 0.03956 0.70341 0.19205 0.0
H48 H 0.06027 0.75755 0.1672 0.0
H49 H 0.90673 0.61936 0.16532 0.0
H50 H 0.92703 0.6738 0.14038 0.0
H51 H 0.90027 0.54535 0.20744 0.0
H52 H 0.04124 0.63607 0.18935 0.0
H53 H 0.91984 0.4871 0.2097 0.0
H54 H 0.06031 0.57783 0.19036 0.0
H55 H 0.97386 0.35271 0.22468 0.0
H56 H 0.97559 0.30733 0.25039 0.0
H57 H 0.11374 0.33609 0.23302 0.0
H58 H 0.11134 0.38082 0.20726 0.0
H59 H 0.08519 0.39859 0.16516 0.0
H60 H 0.06327 0.34353 0.14042 0.0
H61 H 0.93291 0.25945 0.16911 0.0
H62 H 0.95528 0.31428 0.19377 0.0
H63 H 0.95256 0.38145 0.19112 0.0
H64 H 0.93342 0.43969 0.19175 0.0
H65 H 0.07555 0.53202 0.20875 0.0
N66 N 0.03977 0.39054 0.19699 0.0
H67 H 0.09506 0.47368 0.20685 0.0
C68 C 0.95333 0.6487 0.21358 0.0
C69 C 0.91357 0.65221 0.21723 0.0
C70 C 0.91335 0.67813 0.23197 0.0
C71 C 0.95316 0.70133 0.24336 0.0
C72 C 0.99244 0.69636 0.24017 0.0
C73 C 0.9925 0.67017 0.22544 0.0
C74 C 0.97136 0.65707 0.18054 0.0
C75 C 0.01509 0.69617 0.18068 0.0
C76 C 0.02679 0.72738 0.16651 0.0
C77 C 0.99512 0.72023 0.15191 0.0
C78 C 0.9524 0.68021 0.15134 0.0
C79 C 0.9407 0.64904 0.16555 0.0
C80 C 0.96877 0.59497 0.198 0.0
C81 C 0.93537 0.5526 0.20383 0.0
C82 C 0.94659 0.51922 0.20494 0.0
C83 C 0.99162 0.52729 0.20001 0.0
C84 C 0.02543 0.57019 0.19451 0.0
C85 C 0.01434 0.60374 0.1937 0.0
C86 C 0.04266 0.37019 0.21408 0.0
C87 C 1.00486 0.34995 0.22666 0.0
C88 C 1.0059 0.324 0.24134 0.0
C89 C 0.04458 0.31767 0.24359 0.0
C90 C 0.08312 0.33967 0.23147 0.0
C91 C 0.08208 0.36563 0.2169 0.0
C92 C 0.02211 0.36076 0.18129 0.0
C93 C 0.05147 0.36868 0.16585 0.0
C94 C 0.03884 0.33717 0.15175 0.0
C95 C 0.9965 0.2969 0.1529 0.0
C96 C 0.96608 0.28982 0.16797 0.0
C97 C 0.9787 0.3214 0.18202 0.0
C98 C 0.02575 0.4233 0.19861 0.0
C99 C 0.97977 0.41413 0.19489 0.0
C100 C 0.96868 0.44769 0.19547 0.0
C101 C 1.00294 0.49103 0.20018 0.0
C102 C 0.04841 0.49952 0.2046 0.0
C103 C 0.0596 0.46611 0.20371 0.0
H104 H 0.76869 0.11052 0.54068 0.0
N105 N 0.67947 0.05937 0.5311 0.0
H106 H 0.80835 0.10675 0.56884 0.0
H107 H 0.63743 1.00563 0.56198 0.0
H108 H 0.67586 1.00382 0.59043 0.0
H109 H 0.68666 0.98508 0.52955 0.0
H110 H 0.71821 0.96269 0.50342 0.0
H111 H 0.70374 0.09592 0.4974 0.0
H112 H 0.73424 0.07308 0.47105 0.0
H113 H 0.64511 0.11334 0.53095 0.0
H114 H 0.60368 0.97625 0.53048 0.0
H115 H 0.56285 0.09407 0.52988 0.0
H116 H 0.52143 0.95628 0.53074 0.0
H117 H 0.34138 0.04999 0.54106 0.0
H118 H 0.30372 0.05855 0.56869 0.0
H119 H 0.25262 0.92273 0.5833 0.0
H120 H 0.29223 0.91501 0.55578 0.0
H121 H 0.2688 0.91668 0.50923 0.0
H122 H 0.23772 0.92973 0.4803 0.0
H123 H 0.3444 0.06684 0.48228 0.0
H124 H 0.37559 0.0533 0.51114 0.0
H125 H 0.41314 0.04787 0.5464 0.0
H126 H 0.49459 0.0668 0.54711 0.0
H127 H 0.4609 0.95296 0.51315 0.0
N128 N 0.33997 0.97483 0.52969 0.0
H129 H 0.37836 0.93242 0.51377 0.0
C130 C 0.70011 0.05858 0.54892 0.0
C131 C 0.74824 0.08732 0.55157 0.0
C132 C 0.77078 0.0853 0.5678 0.0
C133 C 0.74547 0.05484 0.58203 0.0
C134 C 0.69686 0.02704 0.57966 0.0
C135 C 0.67453 0.02843 0.56325 0.0
C136 C 0.69377 0.0428 0.51549 0.0
C137 C 0.69674 1.00434 0.51681 0.0
C138 C 0.71463 0.99151 0.50189 0.0
C139 C 0.72869 0.01624 0.48527 0.0
C140 C 0.72329 0.05325 0.48365 0.0
C141 C 0.70621 0.06647 0.49867 0.0
C142 C 0.63046 0.04641 0.53099 0.0
C143 C 0.61807 0.07905 0.53087 0.0
C144 C 0.57097 0.06785 0.53041 0.0
C145 C 0.53509 0.0235 0.53035 0.0
C146 C 0.5478 0.99076 0.53045 0.0
C147 C 0.59494 1.00208 0.53049 0.0
C148 C 0.31965 0.98166 0.54634 0.0
C149 C 0.32242 0.02208 0.55022 0.0
C150 C 0.30052 0.02687 0.56603 0.0
C151 C 0.2748 0.99125 0.57821 0.0
C152 C 0.27261 0.95103 0.5744 0.0
C153 C 0.29493 0.94642 0.55864 0.0
C154 C 0.32407 0.98388 0.51236 0.0
C155 C 0.28559 0.94942 0.50331 0.0
C156 C 0.26814 0.95692 0.48677 0.0
C157 C 0.28874 0.99931 0.47903 0.0
C158 C 0.32768 0.03392 0.48802 0.0
C159 C 0.34546 0.02624 0.5045 0.0
C160 C 0.38907 0.98796 0.53029 0.0
C161 C 0.4228 0.02649 0.53931 0.0
C162 C 0.46994 0.03772 0.53949 0.0
C163 C 0.48475 0.01145 0.53022 0.0
C164 C 0.45096 0.97351 0.52085 0.0
C165 C 0.40373 0.96183 0.52104 0.0
H166 H 0.61667 0.73179 0.88415 0.0
N167 N 0.62703 0.66788 0.86955 0.0
H168 H 0.65382 0.7747 0.91238 0.0
H169 H 0.67984 0.65227 0.89485 0.0
H170 H 0.71834 0.69564 0.92248 0.0
H171 H 0.71087 0.67037 0.86423 0.0
H172 H 0.76656 0.70786 0.83892 0.0
H173 H 0.6152 0.70638 0.83979 0.0
H174 H 0.67103 0.74439 0.81439 0.0
H175 H 0.5346 0.63016 0.86751 0.0
H176 H 0.64627 0.60048 0.87148 0.0
H177 H 0.47685 0.55181 0.86788 0.0
H178 H 0.58914 0.52242 0.87309 0.0
H179 H 0.31379 0.34546 0.88577 0.0
H180 H 0.26471 0.30692 0.91254 0.0
H181 H 0.36097 0.26231 0.92793 0.0
H182 H 0.41136 0.30332 0.90153 0.0
H183 H 0.37231 0.26823 0.86013 0.0
H184 H 0.31727 0.22854 0.83499 0.0
H185 H 0.29608 0.33918 0.82646 0.0
H186 H 0.34902 0.37729 0.85249 0.0
H187 H 0.38366 0.4135 0.88883 0.0
H188 H 0.44138 0.49083 0.88752 0.0
H189 H 0.53426 0.46109 0.85613 0.0
N190 N 0.39307 0.34507 0.87469 0.0
H191 H 0.47682 0.38281 0.85851 0.0
C192 C 0.64546 0.68899 0.88729 0.0
C193 C 0.63821 0.72338 0.89269 0.0
C194 C 0.6598 0.74804 0.90872 0.0
C195 C 0.68948 0.73893 0.91964 0.0
C196 C 0.69534 0.70333 0.91456 0.0
C197 C 0.67349 0.67855 0.89858 0.0
C198 C 0.65868 0.68561 0.8539 0.0
C199 C 0.7015 0.68587 0.85333 0.0
C200 C 0.73357 0.70765 0.83889 0.0
C201 C 0.72336 0.72932 0.8247 0.0
C202 C 0.67981 0.72768 0.825 0.0
C203 C 0.64792 0.70609 0.83948 0.0
C204 C 0.59458 0.6213 0.8697 0.0
C205 C 0.54655 0.60664 0.86866 0.0
C206 C 0.51363 0.5618 0.86904 0.0
C207 C 0.52808 0.53046 0.87072 0.0
C208 C 0.57652 0.54536 0.87159 0.0
C209 C 0.60944 0.59027 0.87093 0.0
C210 C 0.36671 0.3277 0.89177 0.0
C211 C 0.32511 0.32851 0.8952 0.0
C212 C 0.29664 0.3058 0.9104 0.0
C213 C 0.30842 0.28086 0.9223 0.0
C214 C 0.35095 0.28147 0.91923 0.0
C215 C 0.37979 0.30478 0.90413 0.0
C216 C 0.36529 0.32578 0.85808 0.0
C217 C 0.35621 0.28404 0.85262 0.0
C218 C 0.32478 0.26151 0.83815 0.0
C219 C 0.30202 0.28052 0.82853 0.0
C220 C 0.31222 0.32307 0.83369 0.0
C221 C 0.34314 0.34531 0.84843 0.0
C222 C 0.42603 0.39176 0.87398 0.0
C223 C 0.41639 0.42311 0.88181 0.0
C224 C 0.44955 0.46786 0.88085 0.0
C225 C 0.49278 0.4826 0.87172 0.0
C226 C 0.5019 0.45117 0.86362 0.0
C227 C 0.46897 0.40637 0.86483 0.0
H228 H 0.92912 0.12881 0.05451 0.0
H229 H 0.98913 0.07815 0.09429 0.0
H230 H 0.93268 0.18088 0.0778 0.0
H231 H 0.99327 0.13082 0.11756 0.0
H232 H 0.96061 0.20929 0.15966 0.0
H233 H 0.94634 0.15168 0.13721 0.0
H234 H 0.99531 0.24717 0.09247 0.0
H235 H 0.00825 0.30451 0.11485 0.0
C236 C 0.94271 0.1285 0.06829 0.0
C237 C 0.95907 0.09945 0.07251 0.0
C238 C 0.94504 0.15859 0.08159 0.0
C239 C 0.9637 0.16033 0.09947 0.0
C240 C 0.9784 0.13013 0.10395 0.0
C241 C 0.97615 0.10003 0.0906 0.0
C242 C 0.96757 0.21785 0.14499 0.0
C243 C 0.9855 0.26151 0.13904 0.0
C244 C 0.95989 0.18491 0.13216 0.0
C245 C 0.96975 0.19481 0.11306 0.0
C246 C 0.98686 0.23832 0.10706 0.0
C247 C 0.99473 0.27129 0.1199 0.0
H248 H 0.95353 0.06502 0.41399 0.0
H249 H 0.84483 0.94549 0.38874 0.0
H250 H 0.89832 0.06056 0.43777 0.0
H251 H 0.78902 0.94187 0.41253 0.0
H252 H 0.71046 1.00835 0.44764 0.0
H253 H 0.75774 1.00128 0.42275 0.0
H254 H 0.84994 0.99654 0.46442 0.0
H255 H 0.80252 1.00282 0.48924 0.0
C256 C 0.91772 0.03802 0.41339 0.0
C257 C 0.90352 1.00558 0.39948 0.0
C258 C 0.88628 0.03538 0.42707 0.0
C259 C 0.83973 1.00076 0.42696 0.0
C260 C 0.82489 0.96882 0.41284 0.0
C261 C 0.85675 0.9709 0.3993 0.0
C262 C 0.74035 1.00497 0.45142 0.0
C263 C 0.75294 1.00614 0.47032 0.0
C264 C 0.76713 1.00075 0.43724 0.0
C265 C 0.80736 0.99854 0.44177 0.0
C266 C 0.81901 0.99822 0.46065 0.0
C267 C 0.7918 1.00159 0.47481 0.0
H268 H 0.88573 0.83592 0.72221 0.0
H269 H 0.9438 0.94359 0.76157 0.0
H270 H 0.83446 0.78694 0.74658 0.0
H271 H 0.89196 0.89454 0.78592 0.0
H272 H 0.81762 0.78507 0.82916 0.0
H273 H 0.87483 0.83016 0.80534 0.0
H274 H 0.76553 0.77814 0.76347 0.0
H275 H 0.70868 0.73225 0.78715 0.0
C276 C 0.88784 0.8491 0.7361 0.0
C277 C 0.91872 0.89375 0.73992 0.0
C278 C 0.85821 0.82104 0.75004 0.0
C279 C 0.85883 0.8369 0.76814 0.0
C280 C 0.89087 0.88122 0.77215 0.0
C281 C 0.92045 0.90937 0.75817 0.0
C282 C 0.80598 0.78277 0.81481 0.0
C283 C 0.75859 0.75507 0.81004 0.0
C284 C 0.83866 0.80895 0.80121 0.0
C285 C 0.82474 0.8078 0.78252 0.0
C286 C 0.77752 0.77948 0.7777 0.0
C287 C 0.74483 0.7535 0.7913 0.0
H288 H 0.05724 0.88675 0.05311 0.0
H289 H 1.0014 0.93934 0.09377 0.0
H290 H 0.05425 0.83456 0.07626 0.0
H291 H 0.99787 0.8866 0.1169 0.0
H292 H 0.03257 0.80813 0.15836 0.0
H293 H 0.04578 0.86542 0.13586 0.0
H294 H 0.99196 0.76887 0.09161 0.0
H295 H 0.97999 0.71178 0.11403 0.0
C296 C 0.04469 0.88746 0.06704 0.0
C297 C 0.02934 0.91712 0.07156 0.0
C298 C 0.04268 0.8573 0.08027 0.0
C299 C 0.0254 0.85611 0.09837 0.0
C300 C 0.01168 0.88685 0.10312 0.0
C301 C 0.01357 0.917 0.08985 0.0
C302 C 0.02428 0.79924 0.14378 0.0
C303 C 1.0053 0.75537 0.13798 0.0
C304 C 0.03136 0.83202 0.13092 0.0
C305 C 0.01986 0.82174 0.11195 0.0
C306 C 1.00166 0.77799 0.1061 0.0
C307 C 0.99436 0.74519 0.11896 0.0
H308 H 0.08354 0.94614 0.39554 0.0
H309 H 0.16441 0.08784 0.39288 0.0
H310 H 0.14051 0.94573 0.41689 0.0
H311 H 0.22246 0.08731 0.41404 0.0
H312 H 0.26903 0.06506 0.47307 0.0
H313 H 0.22552 0.07231 0.44699 0.0
H314 H 0.21872 0.95884 0.42054 0.0
H315 H 0.26141 0.9512 0.44682 0.0
C316 C 0.11392 0.97724 0.39926 0.0
C317 C 0.11914 0.01705 0.3926 0.0
C318 C 0.14689 0.97698 0.41143 0.0
C319 C 0.1861 0.01651 0.41724 0.0
C320 C 0.19234 0.05632 0.41003 0.0
C321 C 0.15923 0.05659 0.39781 0.0
C322 C 0.259 0.04222 0.46149 0.0
C323 C 0.26808 1.00725 0.46206 0.0
C324 C 0.23416 0.04642 0.44651 0.0
C325 C 0.21815 0.01586 0.43175 0.0
C326 C 0.22964 0.98238 0.43187 0.0
C327 C 0.25415 0.97802 0.44689 0.0
H328 H 0.09745 0.07081 0.75827 0.0
H329 H 0.10978 0.18822 0.73352 0.0
H330 H 0.15193 0.11516 0.78307 0.0
H331 H 0.16344 0.23232 0.7586 0.0
H332 H 0.22087 0.28142 0.81997 0.0
H333 H 0.16231 0.2382 0.79626 0.0
H334 H 0.2427 0.17727 0.78041 0.0
H335 H 0.30273 0.22199 0.80322 0.0
C336 C 0.11108 0.10594 0.75832 0.0
C337 C 0.09951 0.12609 0.74393 0.0
C338 C 0.14243 0.13128 0.77243 0.0
C339 C 0.16195 0.17708 0.77263 0.0
C340 C 0.14872 0.19703 0.75875 0.0
C341 C 0.11814 0.17181 0.74442 0.0
C342 C 0.22674 0.25953 0.81122 0.0
C343 C 0.26676 0.25529 0.81366 0.0
C344 C 0.19289 0.23452 0.79777 0.0
C345 C 0.19785 0.20414 0.78672 0.0
C346 C 0.23773 0.19997 0.789 0.0
C347 C 0.27201 0.22553 0.80216 0.0
H348 H 0.92449 0.09044 0.67945 0.0
H349 H 0.8859 0.96385 0.65577 0.0
H350 H 0.87195 0.09774 0.65751 0.0
H351 H 0.83568 0.97197 0.63332 0.0
H352 H 0.72499 0.98002 0.60159 0.0
H353 H 0.76674 0.97242 0.62787 0.0
H354 H 0.86642 0.11167 0.62586 0.0
H355 H 0.82197 0.11998 0.60067 0.0
C356 C 0.90473 0.06416 0.66958 0.0
C357 C 0.90936 0.02658 0.66936 0.0
C358 C 0.87486 0.06845 0.65689 0.0
C359 C 0.84951 0.03556 0.6435 0.0
C360 C 0.85369 0.99766 0.6436 0.0
C361 C 0.88287 0.99308 0.65645 0.0
C362 C 0.75501 0.00934 0.60702 0.0
C363 C 0.77002 0.05066 0.59881 0.0
C364 C 0.7796 1.00481 0.62197 0.0
C365 C 0.82054 0.04127 0.62892 0.0
C366 C 0.8349 0.08279 0.62106 0.0
C367 C 0.80977 0.08746 0.60631 0.0
H368 H 0.84347 0.95127 0.00033 0.0
H369 H 0.90649 0.86911 0.00158 0.0
H370 H 0.78242 0.89894 0.97937 0.0
H371 H 0.84582 0.81723 0.98057 0.0
H372 H 0.70965 0.7155 0.95362 0.0
H373 H 0.76051 0.76411 0.97825 0.0
H374 H 0.78144 0.87673 0.94628 0.0
H375 H 0.73146 0.82846 0.92155 0.0
C376 C 0.84408 0.9219 0.9963 0.0
C377 C 0.88006 0.91454 0.00254 0.0
C378 C 0.80924 0.89206 0.98422 0.0
C379 C 0.8094 0.85405 0.97828 0.0
C380 C 0.84443 0.84597 0.98505 0.0
C381 C 0.87942 0.8759 0.99699 0.0
C382 C 0.72507 0.75063 0.95184 0.0
C383 C 0.71658 0.76801 0.93553 0.0
C384 C 0.7541 0.77844 0.96598 0.0
C385 C 0.77507 0.82424 0.96418 0.0
C386 C 0.76529 0.84156 0.9482 0.0
C387 C 0.73652 0.81381 0.93402 0.0
H388 H 0.99474 0.93459 0.30263 0.0
H389 H 0.92551 0.8294 0.3428 0.0
H390 H 0.99007 0.88182 0.27926 0.0
H391 H 0.92151 0.77701 0.31962 0.0
H392 H 0.88373 0.68925 0.26788 0.0
H393 H 0.88418 0.74193 0.29018 0.0
H394 H 0.02606 0.83614 0.27394 0.0
H395 H 0.02507 0.78396 0.25122 0.0
C396 C 0.97819 0.90021 0.30643 0.0
C397 C 0.96055 0.88623 0.32458 0.0
C398 C 0.97588 0.87004 0.2931 0.0
C399 C 0.95568 0.82523 0.29761 0.0
C400 C 0.93691 0.81118 0.31562 0.0
C401 C 0.93937 0.8413 0.32894 0.0
C402 C 0.91495 0.72127 0.26902 0.0
C403 C 0.95439 0.73236 0.25779 0.0
C404 C 0.91533 0.75136 0.28189 0.0
C405 C 0.9551 0.79333 0.2838 0.0
C406 C 0.99464 0.80432 0.27265 0.0
C407 C 0.99432 0.77416 0.25982 0.0
H408 H 0.14622 0.07977 0.66077 0.0
H409 H 0.08358 0.94031 0.67071 0.0
H410 H 0.19787 0.07598 0.6374 0.0
H411 H 0.13521 0.93665 0.64717 0.0
H412 H 0.26384 0.95615 0.61351 0.0
H413 H 0.21946 0.96209 0.63964 0.0
H414 H 0.18367 0.04268 0.6057 0.0
H415 H 0.22691 0.03609 0.57954 0.0
C416 C 0.14373 0.04836 0.65812 0.0
C417 C 0.11043 0.01026 0.66752 0.0
C418 C 0.17319 0.0462 0.64465 0.0
C419 C 0.17026 1.00596 0.64033 0.0
C420 C 0.13844 0.96818 0.65028 0.0
C421 C 0.10873 0.97026 0.6637 0.0
C422 C 0.24626 0.9749 0.61159 0.0
C423 C 0.24911 0.99574 0.59441 0.0
C424 C 0.22098 0.97839 0.62657 0.0
C425 C 0.19835 1.00306 0.62475 0.0
C426 C 0.20149 0.02413 0.60765 0.0
C427 C 0.22639 0.02039 0.59266 0.0
H428 H 0.06977 0.1399 0.99609 0.0
H429 H 0.1523 0.07721 0.00537 0.0
H430 H 0.13008 0.1927 0.97528 0.0
H431 H 0.21288 0.13047 0.98437 0.0
H432 H 0.32781 0.26235 0.95762 0.0
H433 H 0.27189 0.21287 0.98097 0.0
H434 H 0.1575 0.18503 0.94348 0.0
H435 H 0.2128 0.233 0.92003 0.0
C436 C 0.1009 0.1375 0.99381 0.0
C437 C 0.10596 0.10402 0.0023 0.0
C438 C 0.13539 0.16772 0.98182 0.0
C439 C 0.17596 0.16545 0.97809 0.0
C440 C 0.18202 0.13307 0.98707 0.0
C441 C 0.14723 0.10249 0.99901 0.0
C442 C 0.29076 0.24546 0.95431 0.0
C443 C 0.2749 0.25209 0.93696 0.0
C444 C 0.2588 0.21721 0.9677 0.0
C445 C 0.21038 0.19541 0.96408 0.0
C446 C 0.19458 0.20205 0.9468 0.0
C447 C 0.22638 0.2298 0.93339 0.0
H448 H 0.07012 0.19358 0.34473 0.0
H449 H 0.01454 0.0891 0.30384 0.0
H450 H 0.07124 0.24426 0.32122 0.0
H451 H 0.01535 0.13997 0.2803 0.0
H452 H 0.07177 0.25657 0.23917 0.0
H453 H 0.07161 0.20573 0.26243 0.0
H454 H 0.01439 0.25638 0.30335 0.0
H455 H 0.01556 0.30805 0.28014 0.0
C456 C 0.05829 0.18142 0.3307 0.0
C457 C 0.04226 0.13725 0.32616 0.0
C458 C 0.05859 0.21045 0.31726 0.0
C459 C 0.04314 0.19611 0.29892 0.0
C460 C 0.02781 0.15211 0.29428 0.0
C461 C 0.02723 0.12294 0.30777 0.0
C462 C 0.05956 0.25716 0.25318 0.0
C463 C 0.04401 0.2866 0.25785 0.0
C464 C 0.05898 0.22767 0.26644 0.0
C465 C 0.04304 0.22704 0.28474 0.0
C466 C 0.02734 0.25638 0.28942 0.0
C467 C 0.02763 0.28571 0.27609 0.0
loop_
_geom_bond_atom_site_label_1
_geom_bond_atom_site_label_2
_geom_bond_distance
_geom_bond_site_symmetry_2
_ccdc_geom_bond_type
O0 Cd1 2.223 1_455 S
O0 C8 1.315 . S
Cd1 O0 2.223 1_655 S
Cd1 O4 2.297 . S
Cd1 O5 2.439 . S
Cd1 O11 2.240 1_545 S
Cd2 O3 2.240 1_565 S
Cd2 O10 2.223 1_455 S
Cd2 O12 2.297 . S
Cd2 O13 2.439 . S
O3 Cd2 2.240 1_545 S
O3 C8 1.279 . S
O4 Cd1 2.297 . S
O4 C6 1.247 . S
O5 Cd1 2.439 . S
O5 C6 1.208 . S
C6 O4 1.247 . S
C6 O5 1.208 . S
C7 O12 1.247 . S
C7 O13 1.208 . S
C8 O0 1.315 . S
C8 O3 1.279 . S
C9 O10 1.315 . S
C9 O11 1.279 . S
O10 Cd2 2.223 1_655 S
O10 C9 1.315 . S
O11 Cd1 2.240 1_565 S
O11 C9 1.279 . S
O12 Cd2 2.297 . S
O12 C7 1.247 . S
O13 Cd2 2.439 . S
O13 C7 1.208 . S
O14 Cd15 2.223 1_655 S
O14 C22 1.315 . S
Cd15 O14 2.223 1_455 S
Cd15 O18 2.297 . S
Cd15 O19 2.439 . S
Cd15 O25 2.240 . S
Cd16 O17 2.240 . S
Cd16 O24 2.223 1_655 S
Cd16 O26 2.297 . S
Cd16 O27 2.439 . S
O17 Cd16 2.240 . S
O17 C22 1.279 1_565 S
O18 Cd15 2.297 . S
O18 C20 1.247 . S
O19 Cd15 2.439 . S
O19 C20 1.208 . S
C20 O18 1.247 . S
C20 O19 1.208 . S
C21 O26 1.247 . S
C21 O27 1.208 . S
C22 O14 1.315 . S
C22 O17 1.279 1_545 S
C23 O24 1.315 . S
C23 O25 1.279 1_565 S
O24 Cd16 2.223 1_455 S
O24 C23 1.315 . S
O25 Cd15 2.240 . S
O25 C23 1.279 1_545 S
O26 Cd16 2.297 . S
O26 C21 1.247 . S
O27 Cd16 2.439 . S
O27 C21 1.208 . S
O28 Cd29 2.223 . S
O28 C36 1.315 . S
Cd29 O28 2.223 . S
Cd29 O32 2.297 . S
Cd29 O33 2.439 . S
Cd29 O39 2.240 1_655 S
Cd30 O31 2.240 1_455 S
Cd30 O38 2.223 . S
Cd30 O40 2.297 . S
Cd30 O41 2.439 . S
O31 Cd30 2.240 1_655 S
O31 C36 1.279 1_545 S
O32 Cd29 2.297 . S
O32 C34 1.247 . S
O33 Cd29 2.439 . S
O33 C34 1.208 . S
C34 O32 1.247 . S
C34 O33 1.208 . S
C35 O40 1.247 . S
C35 O41 1.208 . S
C36 O28 1.315 . S
C36 O31 1.279 1_565 S
C37 O38 1.315 . S
C37 O39 1.279 1_545 S
O38 Cd30 2.223 . S
O38 C37 1.315 . S
O39 Cd29 2.240 1_455 S
O39 C37 1.279 1_565 S
O40 Cd30 2.297 . S
O40 C35 1.247 . S
O41 Cd30 2.439 . S
O41 C35 1.208 . S
H42 C69 0.929 . S
N43 C68 1.433 . S
N43 C74 1.435 . S
N43 C80 1.423 . S
H44 C70 0.930 . S
H45 C73 0.931 . S
H46 C72 0.929 . S
H47 C75 0.930 . S
H48 C76 0.932 . S
H49 C79 0.929 . S
H50 C78 0.931 . S
H51 C81 0.929 . S
H52 C85 0.932 1_455 S
H53 C82 0.931 . S
H54 C84 0.929 1_455 S
H55 C87 0.929 . S
H56 C88 0.930 . S
H57 C90 0.929 . S
H58 C91 0.931 . S
H59 C93 0.930 . S
H60 C94 0.932 . S
H61 C96 0.931 . S
H62 C97 0.929 . S
H63 C99 0.929 . S
H64 C100 0.931 . S
H65 C102 0.929 1_455 S
N66 C86 1.433 . S
N66 C92 1.435 . S
N66 C98 1.423 . S
H67 C103 0.932 1_455 S
C68 N43 1.433 . S
C68 C69 1.363 . S
C68 C73 1.370 1_655 S
C69 H42 0.929 . S
C69 C68 1.363 . S
C69 C70 1.385 . S
C70 H44 0.930 . S
C70 C69 1.385 . S
C70 C71 1.357 . S
C71 C70 1.357 . S
C71 C72 1.406 1_655 S
C72 H46 0.929 . S
C72 C71 1.406 1_455 S
C72 C73 1.391 . S
C73 H45 0.931 . S
C73 C68 1.370 1_455 S
C73 C72 1.391 . S
C74 N43 1.435 . S
C74 C75 1.358 1_655 S
C74 C79 1.371 . S
C75 H47 0.930 . S
C75 C74 1.358 1_455 S
C75 C76 1.405 . S
C76 H48 0.932 . S
C76 C75 1.405 . S
C76 C77 1.383 1_455 S
C77 C76 1.383 1_655 S
C77 C78 1.393 . S
C78 H50 0.931 . S
C78 C77 1.393 . S
C78 C79 1.382 . S
C79 H49 0.929 . S
C79 C74 1.371 . S
C79 C78 1.382 . S
C80 N43 1.423 . S
C80 C81 1.362 . S
C80 C85 1.388 . S
C81 H51 0.929 . S
C81 C80 1.362 . S
C81 C82 1.376 . S
C82 H53 0.931 . S
C82 C81 1.376 . S
C82 C83 1.396 . S
C83 C82 1.396 . S
C83 C84 1.348 . S
C83 C101 1.472 . S
C84 H54 0.929 1_655 S
C84 C83 1.348 . S
C84 C85 1.443 . S
C85 H52 0.932 1_655 S
C85 C80 1.388 . S
C85 C84 1.443 . S
C86 N66 1.433 . S
C86 C87 1.363 . S
C86 C91 1.370 1_655 S
C87 H55 0.929 . S
C87 C86 1.363 . S
C87 C88 1.385 . S
C88 H56 0.930 . S
C88 C87 1.385 . S
C88 C89 1.357 . S
C89 C88 1.357 . S
C89 C90 1.406 1_655 S
C90 H57 0.929 . S
C90 C89 1.406 1_455 S
C90 C91 1.391 . S
C91 H58 0.931 . S
C91 C86 1.370 1_455 S
C91 C90 1.391 . S
C92 N66 1.435 . S
C92 C93 1.358 1_655 S
C92 C97 1.371 . S
C93 H59 0.930 . S
C93 C92 1.358 1_455 S
C93 C94 1.405 . S
C94 H60 0.932 . S
C94 C93 1.405 . S
C94 C95 1.383 1_455 S
C95 C94 1.383 1_655 S
C95 C96 1.393 . S
C96 H61 0.931 . S
C96 C95 1.393 . S
C96 C97 1.382 . S
C97 H62 0.929 . S
C97 C92 1.371 . S
C97 C96 1.382 . S
C98 N66 1.423 . S
C98 C99 1.362 . S
C98 C103 1.388 . S
C99 H63 0.929 . S
C99 C98 1.362 . S
C99 C100 1.376 . S
C100 H64 0.931 . S
C100 C99 1.376 . S
C100 C101 1.396 . S
C101 C83 1.472 . S
C101 C100 1.396 . S
C101 C102 1.348 . S
C102 H65 0.929 1_655 S
C102 C101 1.348 . S
C102 C103 1.443 . S
C103 H67 0.932 1_655 S
C103 C98 1.388 . S
C103 C102 1.443 . S
H104 C131 0.929 . S
N105 C130 1.433 . S
N105 C136 1.435 . S
N105 C142 1.423 . S
H106 C132 0.930 . S
H107 C135 0.931 . S
H108 C134 0.929 . S
H109 C137 0.930 . S
H110 C138 0.932 . S
H111 C141 0.929 . S
H112 C140 0.931 . S
H113 C143 0.929 . S
H114 C147 0.932 1_565 S
H115 C144 0.931 . S
H116 C146 0.929 1_565 S
H117 C149 0.929 . S
H118 C150 0.930 . S
H119 C152 0.929 . S
H120 C153 0.931 . S
H121 C155 0.930 . S
H122 C156 0.932 . S
H123 C158 0.931 . S
H124 C159 0.929 . S
H125 C161 0.929 . S
H126 C162 0.931 . S
H127 C164 0.929 1_565 S
N128 C148 1.433 . S
N128 C154 1.435 . S
N128 C160 1.423 . S
H129 C165 0.932 1_565 S
C130 N105 1.433 . S
C130 C131 1.363 . S
C130 C135 1.370 1_545 S
C131 H104 0.929 . S
C131 C130 1.363 . S
C131 C132 1.385 . S
C132 H106 0.930 . S
C132 C131 1.385 . S
C132 C133 1.357 . S
C133 C132 1.357 . S
C133 C134 1.406 1_545 S
C134 H108 0.929 . S
C134 C133 1.406 1_565 S
C134 C135 1.391 . S
C135 H107 0.931 . S
C135 C130 1.370 1_565 S
C135 C134 1.391 . S
C136 N105 1.435 . S
C136 C137 1.358 1_545 S
C136 C141 1.371 . S
C137 H109 0.930 . S
C137 C136 1.358 1_565 S
C137 C138 1.405 . S
C138 H110 0.932 . S
C138 C137 1.405 . S
C138 C139 1.383 1_565 S
C139 C138 1.383 1_545 S
C139 C140 1.393 . S
C140 H112 0.931 . S
C140 C139 1.393 . S
C140 C141 1.382 . S
C141 H111 0.929 . S
C141 C136 1.371 . S
C141 C140 1.382 . S
C142 N105 1.423 . S
C142 C143 1.362 . S
C142 C147 1.388 . S
C143 H113 0.929 . S
C143 C142 1.362 . S
C143 C144 1.376 . S
C144 H115 0.931 . S
C144 C143 1.376 . S
C144 C145 1.396 . S
C145 C144 1.396 . S
C145 C146 1.348 . S
C145 C163 1.472 . S
C146 H116 0.929 1_545 S
C146 C145 1.348 . S
C146 C147 1.443 . S
C147 H114 0.932 1_545 S
C147 C142 1.388 . S
C147 C146 1.443 . S
C148 N128 1.433 . S
C148 C149 1.363 . S
C148 C153 1.370 1_545 S
C149 H117 0.929 . S
C149 C148 1.363 . S
C149 C150 1.385 . S
C150 H118 0.930 . S
C150 C149 1.385 . S
C150 C151 1.357 . S
C151 C150 1.357 . S
C151 C152 1.406 1_545 S
C152 H119 0.929 . S
C152 C151 1.406 1_565 S
C152 C153 1.391 . S
C153 H120 0.931 . S
C153 C148 1.370 1_565 S
C153 C152 1.391 . S
C154 N128 1.435 . S
C154 C155 1.358 1_545 S
C154 C159 1.371 . S
C155 H121 0.930 . S
C155 C154 1.358 1_565 S
C155 C156 1.405 . S
C156 H122 0.932 . S
C156 C155 1.405 . S
C156 C157 1.383 1_565 S
C157 C156 1.383 1_545 S
C157 C158 1.393 . S
C158 H123 0.931 . S
C158 C157 1.393 . S
C158 C159 1.382 . S
C159 H124 0.929 . S
C159 C154 1.371 . S
C159 C158 1.382 . S
C160 N128 1.423 . S
C160 C161 1.362 . S
C160 C165 1.388 . S
C161 H125 0.929 . S
C161 C160 1.362 . S
C161 C162 1.376 . S
C162 H126 0.931 . S
C162 C161 1.376 . S
C162 C163 1.396 . S
C163 C145 1.472 . S
C163 C162 1.396 . S
C163 C164 1.348 . S
C164 H127 0.929 1_545 S
C164 C163 1.348 . S
C164 C165 1.443 . S
C165 H129 0.932 1_545 S
C165 C160 1.388 . S
C165 C164 1.443 . S
H166 C193 0.929 . S
N167 C192 1.433 . S
N167 C198 1.435 . S
N167 C204 1.423 . S
H168 C194 0.930 . S
H169 C197 0.931 . S
H170 C196 0.929 . S
H171 C199 0.930 . S
H172 C200 0.932 . S
H173 C203 0.929 . S
H174 C202 0.931 . S
H175 C205 0.929 . S
H176 C209 0.932 . S
H177 C206 0.931 . S
H178 C208 0.929 . S
H179 C211 0.929 . S
H180 C212 0.930 . S
H181 C214 0.929 . S
H182 C215 0.931 . S
H183 C217 0.930 . S
H184 C218 0.932 . S
H185 C220 0.931 . S
H186 C221 0.929 . S
H187 C223 0.929 . S
H188 C224 0.931 . S
H189 C226 0.929 . S
N190 C210 1.433 . S
N190 C216 1.435 . S
N190 C222 1.423 . S
H191 C227 0.932 . S
C192 N167 1.433 . S
C192 C193 1.363 . S
C192 C197 1.370 . S
C193 H166 0.929 . S
C193 C192 1.363 . S
C193 C194 1.385 . S
C194 H168 0.930 . S
C194 C193 1.385 . S
C194 C195 1.357 . S
C195 C194 1.357 . S
C195 C196 1.406 . S
C196 H170 0.929 . S
C196 C195 1.406 . S
C196 C197 1.391 . S
C197 H169 0.931 . S
C197 C192 1.370 . S
C197 C196 1.391 . S
C198 N167 1.435 . S
C198 C199 1.358 . S
C198 C203 1.371 . S
C199 H171 0.930 . S
C199 C198 1.358 . S
C199 C200 1.405 . S
C200 H172 0.932 . S
C200 C199 1.405 . S
C200 C201 1.383 . S
C201 C200 1.383 . S
C201 C202 1.393 . S
C202 H174 0.931 . S
C202 C201 1.393 . S
C202 C203 1.382 . S
C203 H173 0.929 . S
C203 C198 1.371 . S
C203 C202 1.382 . S
C204 N167 1.423 . S
C204 C205 1.362 . S
C204 C209 1.388 . S
C205 H175 0.929 . S
C205 C204 1.362 . S
C205 C206 1.376 . S
C206 H177 0.931 . S
C206 C205 1.376 . S
C206 C207 1.396 . S
C207 C206 1.396 . S
C207 C208 1.348 . S
C207 C225 1.472 . S
C208 H178 0.929 . S
C208 C207 1.348 . S
C208 C209 1.443 . S
C209 H176 0.932 . S
C209 C204 1.388 . S
C209 C208 1.443 . S
C210 N190 1.433 . S
C210 C211 1.363 . S
C210 C215 1.370 . S
C211 H179 0.929 . S
C211 C210 1.363 . S
C211 C212 1.385 . S
C212 H180 0.930 . S
C212 C211 1.385 . S
C212 C213 1.357 . S
C213 C212 1.357 . S
C213 C214 1.406 . S
C214 H181 0.929 . S
C214 C213 1.406 . S
C214 C215 1.391 . S
C215 H182 0.931 . S
C215 C210 1.370 . S
C215 C214 1.391 . S
C216 N190 1.435 . S
C216 C217 1.358 . S
C216 C221 1.371 . S
C217 H183 0.930 . S
C217 C216 1.358 . S
C217 C218 1.405 . S
C218 H184 0.932 . S
C218 C217 1.405 . S
C218 C219 1.383 . S
C219 C218 1.383 . S
C219 C220 1.393 . S
C220 H185 0.931 . S
C220 C219 1.393 . S
C220 C221 1.382 . S
C221 H186 0.929 . S
C221 C216 1.371 . S
C221 C220 1.382 . S
C222 N190 1.423 . S
C222 C223 1.362 . S
C222 C227 1.388 . S
C223 H187 0.929 . S
C223 C222 1.362 . S
C223 C224 1.376 . S
C224 H188 0.931 . S
C224 C223 1.376 . S
C224 C225 1.396 . S
C225 C207 1.472 . S
C225 C224 1.396 . S
C225 C226 1.348 . S
C226 H189 0.929 . S
C226 C225 1.348 . S
C226 C227 1.443 . S
C227 H191 0.932 . S
C227 C222 1.388 . S
C227 C226 1.443 . S
H228 C236 0.950 . S
H229 C241 0.950 . S
H230 C238 0.950 . S
H231 C240 0.950 . S
H232 C242 0.950 . S
H233 C244 0.950 . S
H234 C246 0.950 . S
H235 C247 0.950 . S
C236 H228 0.950 . S
C236 C237 1.389 1_455 S
C236 C238 1.391 . S
C237 C236 1.389 1_655 S
C237 C241 1.398 . S
C238 H230 0.950 . S
C238 C236 1.391 . S
C238 C239 1.399 1_455 S
C239 C238 1.399 1_655 S
C239 C240 1.398 . S
C239 C245 1.492 1_655 S
C240 H231 0.950 . S
C240 C239 1.398 . S
C240 C241 1.391 . S
C241 H229 0.950 . S
C241 C237 1.398 . S
C241 C240 1.391 . S
C242 H232 0.950 . S
C242 C243 1.386 1_655 S
C242 C244 1.391 . S
C243 C242 1.386 1_455 S
C243 C247 1.393 . S
C244 H233 0.950 . S
C244 C242 1.391 . S
C244 C245 1.400 1_655 S
C245 C239 1.492 1_455 S
C245 C244 1.400 1_455 S
C245 C246 1.398 . S
C246 H234 0.950 . S
C246 C245 1.398 . S
C246 C247 1.391 . S
C247 H235 0.950 . S
C247 C243 1.393 . S
C247 C246 1.391 . S
H248 C256 0.950 . S
H249 C261 0.950 . S
H250 C258 0.950 . S
H251 C260 0.950 . S
H252 C262 0.953 . S
H253 C264 0.953 . S
H254 C266 0.950 . S
H255 C267 0.950 . S
C256 H248 0.950 . S
C256 C257 1.386 . S
C256 C258 1.391 . S
C257 C256 1.386 . S
C257 C261 1.393 . S
C258 H250 0.950 . S
C258 C256 1.391 . S
C258 C259 1.400 . S
C259 C258 1.400 . S
C259 C260 1.398 . S
C259 C265 1.484 . S
C260 H251 0.950 . S
C260 C259 1.398 . S
C260 C261 1.391 . S
C261 H249 0.950 . S
C261 C257 1.393 . S
C261 C260 1.391 . S
C262 H252 0.953 . S
C262 C263 1.387 . S
C262 C264 1.402 1_565 S
C263 C262 1.387 . S
C263 C267 1.393 . S
C264 H253 0.953 . S
C264 C262 1.402 1_545 S
C264 C265 1.400 . S
C265 C259 1.484 . S
C265 C264 1.400 . S
C265 C266 1.395 1_545 S
C266 H254 0.950 . S
C266 C265 1.395 1_565 S
C266 C267 1.391 . S
C267 H255 0.950 . S
C267 C263 1.393 . S
C267 C266 1.391 . S
H268 C276 0.950 . S
H269 C281 0.950 . S
H270 C278 0.950 . S
H271 C280 0.950 . S
H272 C282 0.950 . S
H273 C284 0.950 . S
H274 C286 0.950 . S
H275 C287 0.950 . S
C276 H268 0.950 . S
C276 C277 1.386 . S
C276 C278 1.391 . S
C277 C276 1.386 . S
C277 C281 1.393 . S
C278 H270 0.950 . S
C278 C276 1.391 . S
C278 C279 1.400 . S
C279 C278 1.400 . S
C279 C280 1.398 . S
C279 C285 1.491 . S
C280 H271 0.950 . S
C280 C279 1.398 . S
C280 C281 1.391 . S
C281 H269 0.950 . S
C281 C277 1.393 . S
C281 C280 1.391 . S
C282 H272 0.950 . S
C282 C283 1.386 . S
C282 C284 1.391 . S
C283 C282 1.386 . S
C283 C287 1.393 . S
C284 H273 0.950 . S
C284 C282 1.391 . S
C284 C285 1.400 . S
C285 C279 1.491 . S
C285 C284 1.400 . S
C285 C286 1.398 . S
C286 H274 0.950 . S
C286 C285 1.398 . S
C286 C287 1.391 . S
C287 H275 0.950 . S
C287 C283 1.393 . S
C287 C286 1.391 . S
H288 C296 0.950 . S
H289 C301 0.950 . S
H290 C298 0.950 . S
H291 C300 0.950 . S
H292 C302 0.950 . S
H293 C304 0.950 . S
H294 C306 0.950 . S
H295 C307 0.950 . S
C296 H288 0.950 . S
C296 C297 1.401 . S
C296 C298 1.391 . S
C297 C296 1.401 . S
C297 C301 1.388 1_455 S
C298 H290 0.950 . S
C298 C296 1.391 . S
C298 C299 1.402 . S
C299 C298 1.402 . S
C299 C300 1.392 1_455 S
C299 C305 1.495 1_455 S
C300 H291 0.950 . S
C300 C299 1.392 1_655 S
C300 C301 1.391 . S
C301 H289 0.950 . S
C301 C297 1.388 1_655 S
C301 C300 1.391 . S
C302 H292 0.950 . S
C302 C303 1.386 . S
C302 C304 1.391 . S
C303 C302 1.386 . S
C303 C307 1.393 1_655 S
C304 H293 0.950 . S
C304 C302 1.391 . S
C304 C305 1.400 . S
C305 C299 1.495 1_655 S
C305 C304 1.400 . S
C305 C306 1.398 1_655 S
C306 H294 0.950 . S
C306 C305 1.398 1_455 S
C306 C307 1.391 . S
C307 H295 0.950 . S
C307 C303 1.393 1_455 S
C307 C306 1.391 . S
H308 C316 0.950 . S
H309 C321 0.950 . S
H310 C318 0.950 . S
H311 C320 0.950 . S
H312 C322 0.950 . S
H313 C324 0.950 . S
H314 C326 0.950 . S
H315 C327 0.950 . S
C316 H308 0.950 . S
C316 C317 1.386 . S
C316 C318 1.391 . S
C317 C316 1.386 . S
C317 C321 1.393 1_565 S
C318 H310 0.950 . S
C318 C316 1.391 . S
C318 C319 1.400 . S
C319 C318 1.400 . S
C319 C320 1.398 1_565 S
C319 C325 1.491 . S
C320 H311 0.950 . S
C320 C319 1.398 1_545 S
C320 C321 1.391 . S
C321 H309 0.950 . S
C321 C317 1.393 1_545 S
C321 C320 1.391 . S
C322 H312 0.950 . S
C322 C323 1.386 1_545 S
C322 C324 1.391 . S
C323 C322 1.386 1_565 S
C323 C327 1.393 . S
C324 H313 0.950 . S
C324 C322 1.391 . S
C324 C325 1.400 1_545 S
C325 C319 1.491 . S
C325 C324 1.400 1_565 S
C325 C326 1.398 . S
C326 H314 0.950 . S
C326 C325 1.398 . S
C326 C327 1.391 . S
C327 H315 0.950 . S
C327 C323 1.393 . S
C327 C326 1.391 . S
H328 C336 0.950 . S
H329 C341 0.950 . S
H330 C338 0.950 . S
H331 C340 0.950 . S
H332 C342 0.950 . S
H333 C344 0.950 . S
H334 C346 0.950 . S
H335 C347 0.950 . S
C336 H328 0.950 . S
C336 C337 1.386 . S
C336 C338 1.391 . S
C337 C336 1.386 . S
C337 C341 1.393 . S
C338 H330 0.950 . S
C338 C336 1.391 . S
C338 C339 1.400 . S
C339 C338 1.400 . S
C339 C340 1.398 . S
C339 C345 1.491 . S
C340 H331 0.950 . S
C340 C339 1.398 . S
C340 C341 1.391 . S
C341 H329 0.950 . S
C341 C337 1.393 . S
C341 C340 1.391 . S
C342 H332 0.950 . S
C342 C343 1.386 . S
C342 C344 1.391 . S
C343 C342 1.386 . S
C343 C347 1.393 . S
C344 H333 0.950 . S
C344 C342 1.391 . S
C344 C345 1.400 . S
C345 C339 1.491 . S
C345 C344 1.400 . S
C345 C346 1.398 . S
C346 H334 0.950 . S
C346 C345 1.398 . S
C346 C347 1.391 . S
C347 H335 0.950 . S
C347 C343 1.393 . S
C347 C346 1.391 . S
H348 C356 0.950 . S
H349 C361 0.950 . S
H350 C358 0.950 . S
H351 C360 0.950 . S
H352 C362 0.950 . S
H353 C364 0.950 . S
H354 C366 0.950 . S
H355 C367 0.950 . S
C356 H348 0.950 . S
C356 C357 1.386 1_545 S
C356 C358 1.391 . S
C357 C356 1.386 1_565 S
C357 C361 1.393 . S
C358 H350 0.950 . S
C358 C356 1.391 . S
C358 C359 1.400 1_545 S
C359 C358 1.400 1_565 S
C359 C360 1.398 . S
C359 C365 1.491 . S
C360 H351 0.950 . S
C360 C359 1.398 . S
C360 C361 1.391 . S
C361 H349 0.950 . S
C361 C357 1.393 . S
C361 C360 1.391 . S
C362 H352 0.950 . S
C362 C363 1.386 . S
C362 C364 1.391 . S
C363 C362 1.386 . S
C363 C367 1.393 1_565 S
C364 H353 0.950 . S
C364 C362 1.391 . S
C364 C365 1.400 . S
C365 C359 1.491 . S
C365 C364 1.400 . S
C365 C366 1.398 1_565 S
C366 H354 0.950 . S
C366 C365 1.398 1_545 S
C366 C367 1.391 . S
C367 H355 0.950 . S
C367 C363 1.393 1_545 S
C367 C366 1.391 . S
H368 C376 0.950 . S
H369 C381 0.950 . S
H370 C378 0.950 . S
H371 C380 0.950 . S
H372 C382 0.950 . S
H373 C384 0.950 . S
H374 C386 0.950 . S
H375 C387 0.950 . S
C376 H368 0.950 . S
C376 C377 1.386 . S
C376 C378 1.391 . S
C377 C376 1.386 . S
C377 C381 1.393 1_556 S
C378 H370 0.950 . S
C378 C376 1.391 . S
C378 C379 1.400 . S
C379 C378 1.400 . S
C379 C380 1.398 . S
C379 C385 1.491 . S
C380 H371 0.950 . S
C380 C379 1.398 . S
C380 C381 1.391 1_556 S
C381 H369 0.950 . S
C381 C377 1.393 1_554 S
C381 C380 1.391 1_554 S
C382 H372 0.950 . S
C382 C383 1.386 . S
C382 C384 1.391 . S
C383 C382 1.386 . S
C383 C387 1.393 . S
C384 H373 0.950 . S
C384 C382 1.391 . S
C384 C385 1.400 . S
C385 C379 1.491 . S
C385 C384 1.400 . S
C385 C386 1.398 . S
C386 H374 0.950 . S
C386 C385 1.398 . S
C386 C387 1.391 . S
C387 H375 0.950 . S
C387 C383 1.393 . S
C387 C386 1.391 . S
H388 C396 0.950 . S
H389 C401 0.951 . S
H390 C398 0.950 . S
H391 C400 0.950 . S
H392 C402 0.950 . S
H393 C404 0.950 . S
H394 C406 0.950 . S
H395 C407 0.950 . S
C396 H388 0.950 . S
C396 C397 1.386 . S
C396 C398 1.391 . S
C397 C396 1.386 . S
C397 C401 1.393 . S
C398 H390 0.950 . S
C398 C396 1.391 . S
C398 C399 1.400 . S
C399 C398 1.400 . S
C399 C400 1.398 . S
C399 C405 1.491 . S
C400 H391 0.950 . S
C400 C399 1.398 . S
C400 C401 1.391 . S
C401 H389 0.951 . S
C401 C397 1.393 . S
C401 C400 1.391 . S
C402 H392 0.950 . S
C402 C403 1.386 . S
C402 C404 1.391 . S
C403 C402 1.386 . S
C403 C407 1.393 1_655 S
C404 H393 0.950 . S
C404 C402 1.391 . S
C404 C405 1.400 1_655 S
C405 C399 1.491 . S
C405 C404 1.400 1_455 S
C405 C406 1.398 . S
C406 H394 0.950 . S
C406 C405 1.398 . S
C406 C407 1.391 . S
C407 H395 0.950 . S
C407 C403 1.393 1_455 S
C407 C406 1.391 . S
H408 C416 0.950 . S
H409 C421 0.950 . S
H410 C418 0.950 . S
H411 C420 0.950 . S
H412 C422 0.937 . S
H413 C424 0.950 . S
H414 C426 0.950 . S
H415 C427 0.950 . S
C416 H408 0.950 . S
C416 C417 1.386 . S
C416 C418 1.391 . S
C417 C416 1.386 . S
C417 C421 1.393 . S
C418 H410 0.950 . S
C418 C416 1.391 . S
C418 C419 1.400 . S
C419 C418 1.400 . S
C419 C420 1.398 . S
C419 C425 1.491 . S
C420 H411 0.950 . S
C420 C419 1.398 . S
C420 C421 1.391 . S
C421 H409 0.950 . S
C421 C417 1.393 . S
C421 C420 1.391 . S
C422 H412 0.937 . S
C422 C423 1.387 1_545 S
C422 C424 1.404 . S
C423 C422 1.387 1_565 S
C423 C427 1.383 . S
C424 H413 0.950 . S
C424 C422 1.404 . S
C424 C425 1.400 . S
C425 C419 1.491 . S
C425 C424 1.400 . S
C425 C426 1.398 1_545 S
C426 H414 0.950 . S
C426 C425 1.398 1_565 S
C426 C427 1.391 . S
C427 H415 0.950 . S
C427 C423 1.383 . S
C427 C426 1.391 . S
H428 C436 0.950 . S
H429 C441 0.950 . S
H430 C438 0.950 . S
H431 C440 0.950 . S
H432 C442 0.950 . S
H433 C444 0.950 . S
H434 C446 0.950 . S
H435 C447 0.950 . S
C436 H428 0.950 . S
C436 C437 1.386 . S
C436 C438 1.391 . S
C437 C436 1.386 . S
C437 C441 1.393 1_556 S
C438 H430 0.950 . S
C438 C436 1.391 . S
C438 C439 1.400 . S
C439 C438 1.400 . S
C439 C440 1.398 . S
C439 C445 1.491 . S
C440 H431 0.950 . S
C440 C439 1.398 . S
C440 C441 1.391 1_556 S
C441 H429 0.950 . S
C441 C437 1.393 1_554 S
C441 C440 1.391 1_554 S
C442 H432 0.950 . S
C442 C443 1.386 . S
C442 C444 1.391 . S
C443 C442 1.386 . S
C443 C447 1.393 . S
C444 H433 0.950 . S
C444 C442 1.391 . S
C444 C445 1.400 . S
C445 C439 1.491 . S
C445 C444 1.400 . S
C445 C446 1.398 . S
C446 H434 0.950 . S
C446 C445 1.398 . S
C446 C447 1.391 . S
C447 H435 0.950 . S
C447 C443 1.393 . S
C447 C446 1.391 . S
H448 C456 0.950 . S
H449 C461 0.950 . S
H450 C458 0.950 . S
H451 C460 0.950 . S
H452 C462 0.950 . S
H453 C464 0.950 . S
H454 C466 0.950 . S
H455 C467 0.950 . S
C456 H448 0.950 . S
C456 C457 1.386 . S
C456 C458 1.391 . S
C457 C456 1.386 . S
C457 C461 1.393 1_655 S
C458 H450 0.950 . S
C458 C456 1.391 . S
C458 C459 1.400 . S
C459 C458 1.400 . S
C459 C460 1.398 1_655 S
C459 C465 1.491 . S
C460 H451 0.950 . S
C460 C459 1.398 1_455 S
C460 C461 1.391 . S
C461 H449 0.950 . S
C461 C457 1.393 1_455 S
C461 C460 1.391 . S
C462 H452 0.950 . S
C462 C463 1.386 1_455 S
C462 C464 1.391 . S
C463 C462 1.386 1_655 S
C463 C467 1.393 . S
C464 H453 0.950 . S
C464 C462 1.391 . S
C464 C465 1.400 1_455 S
C465 C459 1.491 . S
C465 C464 1.400 1_655 S
C465 C466 1.398 . S
C466 H454 0.950 . S
C466 C465 1.398 . S
C466 C467 1.391 . S
C467 H455 0.950 . S
C467 C463 1.393 . S
C467 C466 1.391 . S
C243 C95 1.355 1_455 S
C237 C6 1.334 . S
C257 C22 1.535 . S
C263 C139 1.559 1_565 S
C277 C34 1.138 . S
C283 C201 1.154 . S
C297 C7 1.338 . S
C303 C77 1.356 . S
C323 C157 1.557 1_565 S
C317 C23 1.547 . S
C337 C35 1.144 . S
C343 C219 1.150 . S
C363 C133 1.746 1_565 S
C357 C36 1.814 . S
C377 C9 2.054 1_556 S
C383 C195 1.980 . S
C403 C71 1.598 . S
C397 C21 1.682 1_455 S
C423 C151 1.738 1_565 S
C417 C37 1.798 . S
C443 C213 1.976 . S
C437 C8 2.049 1_556 S
C457 C20 1.666 1_655 S
C463 C89 1.585 . S
