# Generated by pormake.
# Topology csq, (4,8)-cn, num edge types: 1
# Building blocks:
#     Node 0, Type 0, BuildingBlock: NAWXER_clean_linker_0, # of connection points: 4
#     Node 1, Type 0, BuildingBlock: NAWXER_clean_linker_0, # of connection points: 4
#     Node 2, Type 0, BuildingBlock: NAWXER_clean_linker_0, # of connection points: 4
#     Node 3, Type 0, BuildingBlock: NAWXER_clean_linker_0, # of connection points: 4
#     Node 4, Type 0, BuildingBlock: NAWXER_clean_linker_0, # of connection points: 4
#     Node 5, Type 0, BuildingBlock: NAWXER_clean_linker_0, # of connection points: 4
#     Node 6, Type 1, BuildingBlock: TAGTUT_clean_sbu_1, # of connection points: 8
#     Node 7, Type 1, BuildingBlock: TAGTUT_clean_sbu_1, # of connection points: 8
#     Node 8, Type 1, BuildingBlock: TAGTUT_clean_sbu_1, # of connection points: 8
#     Edge 9, Type (0, 1), BuildingBlock: ZUJKAS_clean_linker_0, # of connection points: 2
#     Edge 10, Type (0, 1), BuildingBlock: ZUJKAS_clean_linker_0, # of connection points: 2
#     Edge 11, Type (0, 1), BuildingBlock: ZUJKAS_clean_linker_0, # of connection points: 2
#     Edge 12, Type (0, 1), BuildingBlock: ZUJKAS_clean_linker_0, # of connection points: 2
#     Edge 13, Type (0, 1), BuildingBlock: ZUJKAS_clean_linker_0, # of connection points: 2
#     Edge 14, Type (0, 1), BuildingBlock: ZUJKAS_clean_linker_0, # of connection points: 2
#     Edge 15, Type (0, 1), BuildingBlock: ZUJKAS_clean_linker_0, # of connection points: 2
#     Edge 16, Type (0, 1), BuildingBlock: ZUJKAS_clean_linker_0, # of connection points: 2
#     Edge 17, Type (0, 1), BuildingBlock: ZUJKAS_clean_linker_0, # of connection points: 2
#     Edge 18, Type (0, 1), BuildingBlock: ZUJKAS_clean_linker_0, # of connection points: 2
#     Edge 19, Type (0, 1), BuildingBlock: ZUJKAS_clean_linker_0, # of connection points: 2
#     Edge 20, Type (0, 1), BuildingBlock: ZUJKAS_clean_linker_0, # of connection points: 2
#     Edge 21, Type (0, 1), BuildingBlock: ZUJKAS_clean_linker_0, # of connection points: 2
#     Edge 22, Type (0, 1), BuildingBlock: ZUJKAS_clean_linker_0, # of connection points: 2
#     Edge 23, Type (0, 1), BuildingBlock: ZUJKAS_clean_linker_0, # of connection points: 2
#     Edge 24, Type (0, 1), BuildingBlock: ZUJKAS_clean_linker_0, # of connection points: 2
#     Edge 25, Type (0, 1), BuildingBlock: ZUJKAS_clean_linker_0, # of connection points: 2
#     Edge 26, Type (0, 1), BuildingBlock: ZUJKAS_clean_linker_0, # of connection points: 2
#     Edge 27, Type (0, 1), BuildingBlock: ZUJKAS_clean_linker_0, # of connection points: 2
#     Edge 28, Type (0, 1), BuildingBlock: ZUJKAS_clean_linker_0, # of connection points: 2
#     Edge 29, Type (0, 1), BuildingBlock: ZUJKAS_clean_linker_0, # of connection points: 2
#     Edge 30, Type (0, 1), BuildingBlock: ZUJKAS_clean_linker_0, # of connection points: 2
#     Edge 31, Type (0, 1), BuildingBlock: ZUJKAS_clean_linker_0, # of connection points: 2
#     Edge 32, Type (0, 1), BuildingBlock: ZUJKAS_clean_linker_0, # of connection points: 2
# Relax obj value: 0.031
# Max RMSD: 0.128
# Mean RMSD: 0.042
data_MOF--net-csq--node1-TAGTUT_clean_sbu_1--node2-NAWXER_clean_linker_0--edge1-ZUJKAS_clean_linker_0
_symmetry_space_group_name_H-M    P1
_symmetry_Int_Tables_number       1
_symmetry_cell_setting            triclinic
loop_
_symmetry_equiv_pos_as_xyz
'x, y, z'
_cell_length_a     75.843974
_cell_length_b     74.931169
_cell_length_c     27.6045
_cell_angle_alpha  92.556101
_cell_angle_beta   91.669537
_cell_angle_gamma 119.87632
loop_
_atom_site_label
_atom_site_type_symbol
_atom_site_fract_x
_atom_site_fract_y
_atom_site_fract_z
_atom_type_partial_charge
C0 C 0.31742 0.50685 0.07157 0.0
C1 C 0.31238 0.49155 0.03381 0.0
C2 C 0.30262 0.50577 0.10238 0.0
C3 C 0.28246 0.48929 0.09624 0.0
C4 C 0.2923 0.47487 0.02842 0.0
C5 C 0.2775 0.47384 0.05907 0.0
C6 C 0.26599 0.48929 0.12406 0.0
C7 C 0.30369 0.48231 0.24428 0.0
C8 C 0.31244 0.49885 0.27988 0.0
C9 C 0.28993 0.48132 0.20801 0.0
C10 C 0.28466 0.4968 0.20707 0.0
C11 C 0.30768 0.51467 0.27777 0.0
C12 C 0.29375 0.51354 0.24193 0.0
C13 C 0.26771 0.49425 0.17452 0.0
C14 C 0.18417 0.47728 0.22239 0.0
C15 C 0.1899 0.49329 0.25876 0.0
C16 C 0.19863 0.47708 0.19222 0.0
C17 C 0.21909 0.49292 0.19773 0.0
C18 C 0.21035 0.50921 0.26373 0.0
C19 C 0.22476 0.50895 0.23377 0.0
C20 C 0.23512 0.49196 0.17 0.0
C21 C 0.19779 0.49972 0.05062 0.0
C22 C 0.18981 0.48406 0.01283 0.0
C23 C 0.21111 0.50009 0.08719 0.0
C24 C 0.21657 0.48473 0.08671 0.0
C25 C 0.19472 0.46831 0.01346 0.0
C26 C 0.20808 0.46872 0.04991 0.0
C27 C 0.23333 0.4869 0.11951 0.0
H28 H 0.33278 0.51983 0.07694 0.0
H29 H 0.3068 0.51824 0.12974 0.0
H30 H 0.2878 0.46295 0.99938 0.0
H31 H 0.26202 0.46112 0.0531 0.0
H32 H 0.30724 0.47 0.245 0.0
H33 H 0.28275 0.46804 0.18208 0.0
H34 H 0.3141 0.5275 0.30499 0.0
H35 H 0.28968 0.5255 0.24212 0.0
H36 H 0.16853 0.46485 0.2174 0.0
H37 H 0.1939 0.46422 0.16564 0.0
H38 H 0.21536 0.52161 0.29174 0.0
H39 H 0.24048 0.52121 0.23922 0.0
H40 H 0.19411 0.51196 0.05129 0.0
H41 H 0.21787 0.51291 0.11442 0.0
H42 H 0.18897 0.45616 0.9846 0.0
H43 H 0.21232 0.45687 0.0485 0.0
N44 N 0.2488 0.48574 0.09871 0.0
N45 N 0.25228 0.49544 0.19534 0.0
C46 C 0.70967 0.19122 0.20617 0.0
C47 C 0.7161 0.18513 0.24752 0.0
C48 C 0.72367 0.20327 0.17292 0.0
C49 C 0.74437 0.2093 0.18008 0.0
C50 C 0.73679 0.19102 0.25418 0.0
C51 C 0.75074 0.20301 0.22097 0.0
C52 C 0.75992 0.22388 0.14866 0.0
C53 C 0.72029 0.1695 0.03793 0.0
C54 C 0.71186 0.17514 0.99949 0.0
C55 C 0.73461 0.18457 0.072 0.0
C56 C 0.74053 0.2054 0.06809 0.0
C57 C 0.71719 0.19591 0.9973 0.0
C58 C 0.73147 0.21087 0.03103 0.0
C59 C 0.75809 0.222 0.09729 0.0
C60 C 0.84297 0.2855 0.04868 0.0
C61 C 0.83863 0.29391 0.00861 0.0
C62 C 0.82731 0.2717 0.07606 0.0
C63 C 0.80701 0.26624 0.06437 0.0
C64 C 0.8182 0.28783 0.99597 0.0
C65 C 0.80254 0.27405 0.02347 0.0
C66 C 0.79044 0.25243 0.0947 0.0
C67 C 0.82931 0.31119 0.1809 0.0
C68 C 0.84049 0.30965 0.22023 0.0
C69 C 0.81302 0.2935 0.15773 0.0
C70 C 0.80796 0.2739 0.17268 0.0
C71 C 0.83481 0.29012 0.23673 0.0
C72 C 0.81862 0.27235 0.21311 0.0
C73 C 0.79167 0.25513 0.1458 0.0
H74 H 0.69382 0.18683 0.19972 0.0
H75 H 0.71839 0.2084 0.14259 0.0
H76 H 0.74236 0.18692 0.28591 0.0
H77 H 0.76665 0.20769 0.22769 0.0
H78 H 0.71653 0.15362 0.04043 0.0
H79 H 0.74172 0.1801 0.09983 0.0
H80 H 0.71061 0.20068 0.96887 0.0
H81 H 0.73589 0.22689 0.02738 0.0
H82 H 0.85852 0.2899 0.05955 0.0
H83 H 0.83111 0.26546 0.10673 0.0
H84 H 0.8143 0.29371 0.96475 0.0
H85 H 0.78696 0.26983 0.0134 0.0
H86 H 0.83312 0.3261 0.1682 0.0
H87 H 0.80453 0.29511 0.12767 0.0
H88 H 0.84322 0.28856 0.26705 0.0
H89 H 0.81478 0.2574 0.22554 0.0
N90 N 0.77663 0.24056 0.17089 0.0
N91 N 0.77352 0.23622 0.07243 0.0
C92 C 0.55856 0.71793 0.01632 0.0
C93 C 0.54231 0.70303 0.98535 0.0
C94 C 0.55802 0.73507 0.03636 0.0
C95 C 0.54126 0.73766 0.02574 0.0
C96 C 0.52563 0.70584 0.97452 0.0
C97 C 0.52522 0.72312 0.99419 0.0
C98 C 0.54029 0.75534 0.04821 0.0
C99 C 0.52886 0.71062 0.16069 0.0
C100 C 0.54509 0.71769 0.19594 0.0
C101 C 0.52762 0.72425 0.12984 0.0
C102 C 0.54266 0.74519 0.13333 0.0
C103 C 0.55987 0.73879 0.20016 0.0
C104 C 0.55857 0.75246 0.1693 0.0
C105 C 0.54188 0.75942 0.09906 0.0
C106 C 0.52247 0.82816 0.11573 0.0
C107 C 0.53763 0.84186 0.15052 0.0
C108 C 0.52283 0.81085 0.09634 0.0
C109 C 0.53864 0.8072 0.11051 0.0
C110 C 0.553 0.83776 0.16608 0.0
C111 C 0.55347 0.82053 0.14625 0.0
C112 C 0.53983 0.78963 0.08783 0.0
C113 C 0.55044 0.83444 0.97665 0.0
C114 C 0.53366 0.82738 0.94305 0.0
C115 C 0.55235 0.82074 0.00602 0.0
C116 C 0.53745 0.79975 0.00259 0.0
C117 C 0.51916 0.8062 0.93844 0.0
C118 C 0.52113 0.79247 0.96776 0.0
C119 C 0.53837 0.78561 0.03691 0.0
H120 H 0.57184 0.71653 0.02462 0.0
H121 H 0.57071 0.74635 0.06012 0.0
H122 H 0.51272 0.69456 0.95137 0.0
H123 H 0.51214 0.72487 0.98572 0.0
H124 H 0.51732 0.69445 0.1563 0.0
H125 H 0.51499 0.71838 0.10292 0.0
H126 H 0.57238 0.74473 0.22742 0.0
H127 H 0.57022 0.76861 0.17281 0.0
H128 H 0.51021 0.83072 0.10391 0.0
H129 H 0.51081 0.80038 0.06999 0.0
H130 H 0.56488 0.8481 0.19287 0.0
H131 H 0.56569 0.81789 0.15797 0.0
H132 H 0.56181 0.85067 0.98123 0.0
H133 H 0.56523 0.82662 0.03226 0.0
H134 H 0.50624 0.80027 0.91234 0.0
H135 H 0.50956 0.77629 0.96438 0.0
N136 N 0.53847 0.76849 0.01888 0.0
N137 N 0.54172 0.77649 0.1171 0.0
C138 C 0.8338 0.53869 0.00206 0.0
C139 C 0.82877 0.52171 0.96923 0.0
C140 C 0.81909 0.53885 0.03138 0.0
C141 C 0.79907 0.52206 0.02814 0.0
C142 C 0.80881 0.50481 0.96676 0.0
C143 C 0.7941 0.50507 0.99558 0.0
C144 C 0.78272 0.52279 0.05466 0.0
C145 C 0.82134 0.51837 0.17661 0.0
C146 C 0.82806 0.53387 0.21459 0.0
C147 C 0.80797 0.51717 0.13902 0.0
C148 C 0.80131 0.53161 0.13845 0.0
C149 C 0.82198 0.54874 0.21293 0.0
C150 C 0.8087 0.54758 0.1753 0.0
C151 C 0.78432 0.52839 0.10478 0.0
C152 C 0.70001 0.50549 0.15337 0.0
C153 C 0.70463 0.52127 0.18962 0.0
C154 C 0.71477 0.50704 0.12179 0.0
C155 C 0.73443 0.52442 0.12573 0.0
C156 C 0.72409 0.53899 0.19206 0.0
C157 C 0.73884 0.54045 0.1608 0.0
C158 C 0.75118 0.52482 0.09856 0.0
C159 C 0.71156 0.52864 0.97883 0.0
C160 C 0.70427 0.51279 0.94155 0.0
C161 C 0.72563 0.53032 0.01515 0.0
C162 C 0.73255 0.51609 0.01502 0.0
C163 C 0.71082 0.49825 0.94235 0.0
C164 C 0.7249 0.49996 0.97856 0.0
C165 C 0.74967 0.51942 0.04836 0.0
H166 H 0.84907 0.5519 0.00485 0.0
H167 H 0.8232 0.55232 0.05545 0.0
H168 H 0.8044 0.49162 0.94143 0.0
H169 H 0.77871 0.49205 0.99205 0.0
H170 H 0.82557 0.50655 0.17726 0.0
H171 H 0.80199 0.50428 0.11204 0.0
H172 H 0.82713 0.56101 0.24135 0.0
H173 H 0.80364 0.5588 0.17583 0.0
H174 H 0.6853 0.4915 0.15073 0.0
H175 H 0.71111 0.49419 0.09594 0.0
H176 H 0.72809 0.55166 0.21873 0.0
H177 H 0.75392 0.55398 0.16471 0.0
H178 H 0.70703 0.54025 0.97887 0.0
H179 H 0.73177 0.54329 0.04195 0.0
H180 H 0.70524 0.48566 0.91464 0.0
H181 H 0.73014 0.48889 0.97755 0.0
N182 N 0.76545 0.51854 0.02856 0.0
N183 N 0.76849 0.52917 0.12456 0.0
C184 C 0.28973 0.83701 0.00885 0.0
C185 C 0.29924 0.82912 0.97866 0.0
C186 C 0.27642 0.82485 0.04311 0.0
C187 C 0.27238 0.80458 0.04772 0.0
C188 C 0.2955 0.809 0.98417 0.0
C189 C 0.2821 0.79682 0.01808 0.0
C190 C 0.25643 0.79055 0.07902 0.0
C191 C 0.3051 0.83649 0.18906 0.0
C192 C 0.29859 0.84576 0.22417 0.0
C193 C 0.29101 0.82095 0.15569 0.0
C194 C 0.27021 0.81471 0.15625 0.0
C195 C 0.27791 0.83999 0.2237 0.0
C196 C 0.26388 0.82464 0.19004 0.0
C197 C 0.25465 0.79586 0.1278 0.0
C198 C 0.18783 0.71475 0.18964 0.0
C199 C 0.17482 0.72058 0.21166 0.0
C200 C 0.20428 0.72886 0.16486 0.0
C201 C 0.20789 0.74901 0.16097 0.0
C202 C 0.17902 0.74105 0.20969 0.0
C203 C 0.19548 0.75517 0.1846 0.0
C204 C 0.22423 0.76341 0.13115 0.0
C205 C 0.17547 0.71385 0.03251 0.0
C206 C 0.18123 0.70015 0.01193 0.0
C207 C 0.1901 0.73289 0.0545 0.0
C208 C 0.21075 0.73854 0.05671 0.0
C209 C 0.20201 0.70609 0.01309 0.0
C210 C 0.21667 0.72521 0.03512 0.0
C211 C 0.22607 0.75811 0.0827 0.0
H212 H 0.29241 0.85251 0.00562 0.0
H213 H 0.26876 0.83103 0.06476 0.0
H214 H 0.30239 0.80239 0.9611 0.0
H215 H 0.27905 0.78115 0.02059 0.0
H216 H 0.32092 0.84045 0.18908 0.0
H217 H 0.29629 0.81309 0.13142 0.0
H218 H 0.27253 0.84703 0.25012 0.0
H219 H 0.24791 0.81999 0.19152 0.0
H220 H 0.18529 0.69924 0.19159 0.0
H221 H 0.21404 0.72394 0.1481 0.0
H222 H 0.16925 0.74597 0.22634 0.0
H223 H 0.19813 0.77071 0.18234 0.0
H224 H 0.15967 0.70998 0.03106 0.0
H225 H 0.18527 0.74318 0.07006 0.0
H226 H 0.20692 0.69586 0.99761 0.0
H227 H 0.23256 0.72936 0.0364 0.0
N228 N 0.24209 0.77179 0.05851 0.0
N229 N 0.23851 0.78208 0.15178 0.0
C230 C 0.48892 0.18058 0.10526 0.0
C231 C 0.47131 0.16279 0.08577 0.0
C232 C 0.48804 0.19813 0.12032 0.0
C233 C 0.46964 0.19824 0.11535 0.0
C234 C 0.45292 0.16297 0.08054 0.0
C235 C 0.45215 0.1807 0.09478 0.0
C236 C 0.46845 0.21617 0.13498 0.0
C237 C 0.45985 0.17422 0.2509 0.0
C238 C 0.47799 0.18147 0.2798 0.0
C239 C 0.45708 0.18745 0.22179 0.0
C240 C 0.47242 0.20814 0.22076 0.0
C241 C 0.493 0.20244 0.28017 0.0
C242 C 0.49017 0.2157 0.251 0.0
C243 C 0.47054 0.22134 0.18534 0.0
C244 C 0.45145 0.29036 0.19387 0.0
C245 C 0.46682 0.30463 0.22759 0.0
C246 C 0.45179 0.27283 0.17589 0.0
C247 C 0.46763 0.26936 0.19084 0.0
C248 C 0.4824 0.30085 0.24334 0.0
C249 C 0.48273 0.28331 0.22529 0.0
C250 C 0.46852 0.25126 0.17042 0.0
C251 C 0.48144 0.2944 0.05406 0.0
C252 C 0.46511 0.28743 0.01918 0.0
C253 C 0.48225 0.28088 0.08594 0.0
C254 C 0.46668 0.26016 0.08379 0.0
C255 C 0.44986 0.2665 0.01607 0.0
C256 C 0.45074 0.25293 0.04793 0.0
C257 C 0.46685 0.24627 0.11984 0.0
H258 H 0.50324 0.18075 0.10963 0.0
H259 H 0.50166 0.21156 0.13641 0.0
H260 H 0.43921 0.14946 0.06514 0.0
H261 H 0.43781 0.18054 0.09106 0.0
H262 H 0.44807 0.15814 0.24948 0.0
H263 H 0.44317 0.1814 0.19901 0.0
H264 H 0.507 0.20851 0.30258 0.0
H265 H 0.50215 0.23166 0.25068 0.0
H266 H 0.43927 0.29283 0.18096 0.0
H267 H 0.4397 0.26202 0.15013 0.0
H268 H 0.49423 0.31134 0.27004 0.0
H269 H 0.49497 0.2808 0.23764 0.0
H270 H 0.49334 0.31045 0.05759 0.0
H271 H 0.49487 0.28669 0.11289 0.0
H272 H 0.43725 0.26066 0.98911 0.0
H273 H 0.43868 0.23694 0.04551 0.0
N274 N 0.46669 0.22878 0.10382 0.0
N275 N 0.47057 0.23874 0.20146 0.0
C276 C 0.99028 0.44867 0.73234 0.0
C277 C 0.04992 0.48921 0.67944 0.0
C278 C 0.0292 0.5472 0.68958 0.0
Mg279 Mg 0.00684 0.46342 0.63144 0.0
O280 O 0.00076 0.48397 0.65126 0.0
Mg281 Mg 0.01367 0.49981 0.71498 0.0
Mg282 Mg 0.00802 0.50758 0.61001 0.0
O283 O 0.01525 0.53118 0.569 0.0
Mg284 Mg 0.00965 0.55197 0.59003 0.0
Mg285 Mg 0.00131 0.51506 0.50618 0.0
C286 C 0.98809 0.46844 0.53072 0.0
C287 C 0.04022 0.50923 0.53092 0.0
O288 O 0.99799 0.46767 0.74815 0.0
O289 O 0.99139 0.44342 0.68814 0.0
O290 O 0.04268 0.49808 0.70611 0.0
O291 O 0.03904 0.4756 0.64555 0.0
O292 O 0.99413 0.45834 0.55641 0.0
O293 O 0.98898 0.48521 0.54699 0.0
C294 C 0.97511 0.50567 0.68717 0.0
O295 O 0.98069 0.50888 0.64335 0.0
O296 O 0.98492 0.50173 0.71943 0.0
O297 O 0.0164 0.547 0.47241 0.0
O298 O 0.0241 0.57167 0.53213 0.0
O299 O 0.97247 0.51705 0.51765 0.0
C300 C 0.02436 0.56609 0.48765 0.0
O301 O 0.97738 0.53987 0.57863 0.0
O302 O 0.02365 0.55772 0.664 0.0
C303 C 0.96587 0.52626 0.54538 0.0
O304 O 0.02681 0.52973 0.67363 0.0
O305 O 0.03545 0.50643 0.5755 0.0
O306 O 0.02972 0.51282 0.49978 0.0
C307 C 0.47633 0.01702 0.77463 0.0
C308 C 0.44766 0.96284 0.67741 0.0
C309 C 0.52401 0.97679 0.65457 0.0
Mg310 Mg 0.46944 0.00918 0.66236 0.0
O311 O 0.49496 0.01121 0.6709 0.0
Mg312 Mg 0.49746 0.99224 0.71605 0.0
Mg313 Mg 0.5071 0.00594 0.6131 0.0
O314 O 0.51942 0.00081 0.55525 0.0
Mg315 Mg 0.54529 0.00343 0.56359 0.0
Mg316 Mg 0.51669 0.01978 0.51046 0.0
C317 C 0.49058 0.03552 0.57173 0.0
C318 C 0.47136 0.98193 0.52695 0.0
O319 O 0.48611 0.00704 0.77529 0.0
O320 O 0.46924 0.02008 0.73507 0.0
O321 O 0.46423 0.96628 0.69948 0.0
O322 O 0.44642 0.97701 0.65619 0.0
O323 O 0.47598 0.0287 0.60087 0.0
O324 O 0.50479 0.03095 0.57461 0.0
C325 C 0.54286 0.02983 0.69906 0.0
O326 O 0.53808 0.0286 0.6535 0.0
O327 O 0.53008 0.01803 0.72856 0.0
O328 O 0.52792 0.00516 0.45136 0.0
O329 O 0.54565 0.99274 0.49039 0.0
O330 O 0.54975 0.04592 0.52677 0.0
C331 C 0.53808 0.9956 0.45131 0.0
O332 O 0.56818 0.03579 0.56959 0.0
O333 O 0.53863 0.98392 0.62541 0.0
C334 C 0.5665 0.04974 0.54847 0.0
O335 O 0.50951 0.98098 0.65177 0.0
O336 O 0.47601 0.98317 0.57262 0.0
O337 O 0.48422 0.99385 0.49781 0.0
C338 C 0.54109 0.56105 0.48261 0.0
C339 C 0.55918 0.51653 0.51473 0.0
C340 C 0.47927 0.46454 0.53501 0.0
Mg341 Mg 0.54966 0.54537 0.57801 0.0
O342 O 0.52164 0.52681 0.56735 0.0
Mg343 Mg 0.51184 0.51051 0.50318 0.0
Mg344 Mg 0.50752 0.50402 0.61128 0.0
O345 O 0.49327 0.48128 0.65522 0.0
Mg346 Mg 0.4651 0.46331 0.64425 0.0
Mg347 Mg 0.50296 0.49772 0.71926 0.0
C348 C 0.53561 0.54367 0.68738 0.0
C349 C 0.5413 0.49741 0.67023 0.0
O350 O 0.52747 0.54237 0.46898 0.0
O351 O 0.55107 0.56589 0.52396 0.0
O352 O 0.54118 0.50878 0.49504 0.0
O353 O 0.5655 0.53012 0.5504 0.0
O354 O 0.54923 0.55245 0.65626 0.0
O355 O 0.51851 0.52719 0.67608 0.0
C356 C 0.47347 0.51036 0.55291 0.0
O357 O 0.47901 0.50667 0.59385 0.0
O358 O 0.48346 0.51254 0.51491 0.0
O359 O 0.48691 0.46587 0.75352 0.0
O360 O 0.46314 0.44268 0.69828 0.0
O361 O 0.47388 0.49995 0.72703 0.0
C362 C 0.47304 0.4473 0.7397 0.0
O363 O 0.44945 0.47882 0.67177 0.0
O364 O 0.46559 0.45605 0.56617 0.0
C365 C 0.45591 0.49244 0.70736 0.0
O366 O 0.49649 0.4809 0.54623 0.0
O367 O 0.536 0.50121 0.62908 0.0
O368 O 0.53117 0.49537 0.70793 0.0
H369 H 0.16016 0.46054 0.30321 0.0
H370 H 0.1357 0.46073 0.35898 0.0
H371 H 0.16121 0.52607 0.34639 0.0
H372 H 0.18567 0.52602 0.29067 0.0
H373 H 0.15409 0.51454 0.44269 0.0
H374 H 0.08616 0.46562 0.31742 0.0
H375 H 0.10196 0.45474 0.3314 0.0
H376 H 0.11177 0.47735 0.29749 0.0
C377 C 0.16043 0.47491 0.31193 0.0
C378 C 0.1748 0.49324 0.29219 0.0
C379 C 0.14649 0.475 0.34397 0.0
C380 C 0.14651 0.49338 0.35655 0.0
C381 C 0.16096 0.51172 0.33734 0.0
H382 H 0.0573 0.52096 0.44456 0.0
H383 H 0.08352 0.51585 0.4095 0.0
C384 C 0.17494 0.51166 0.30548 0.0
C385 C 0.13118 0.49356 0.3886 0.0
H386 H 0.08037 0.47671 0.39315 0.0
C387 C 0.13793 0.50611 0.43219 0.0
C388 C 0.11012 0.48259 0.37472 0.0
C389 C 0.10199 0.46943 0.32757 0.0
C390 C 0.12424 0.50842 0.46153 0.0
C391 C 0.10326 0.4978 0.44702 0.0
C392 C 0.09646 0.48473 0.40433 0.0
C393 C 0.08842 0.50197 0.47165 0.0
C394 C 0.13234 0.52293 0.50657 0.0
C395 C 0.08267 0.49622 0.51898 0.0
C396 C 0.06751 0.49919 0.53957 0.0
C397 C 0.05779 0.50778 0.51291 0.0
C398 C 0.06418 0.51407 0.46618 0.0
C399 C 0.07923 0.51116 0.44589 0.0
H400 H 0.14925 0.53191 0.50957 0.0
H401 H 0.12644 0.53385 0.50667 0.0
H402 H 0.127 0.51392 0.53916 0.0
H403 H 0.08949 0.48896 0.53942 0.0
H404 H 0.06303 0.49424 0.57557 0.0
H405 H 0.714 0.15331 0.2974 0.0
H406 H 0.69047 0.13449 0.35942 0.0
H407 H 0.66171 0.17126 0.34356 0.0
H408 H 0.68536 0.19041 0.2821 0.0
H409 H 0.68272 0.15034 0.45021 0.0
H410 H 0.61476 0.1105 0.3205 0.0
H411 H 0.64045 0.12279 0.30082 0.0
H412 H 0.6293 0.13809 0.31912 0.0
C413 C 0.70278 0.15752 0.30732 0.0
C414 C 0.70151 0.17331 0.28448 0.0
C415 C 0.68933 0.14673 0.34274 0.0
C416 C 0.67428 0.1514 0.35579 0.0
C417 C 0.67306 0.16724 0.3335 0.0
H418 H 0.56851 0.08549 0.5234 0.0
H419 H 0.59671 0.11367 0.48543 0.0
C420 C 0.68651 0.17808 0.29815 0.0
C421 C 0.65954 0.13934 0.39188 0.0
H422 H 0.60929 0.1049 0.40318 0.0
C423 C 0.66664 0.14043 0.44011 0.0
C424 C 0.6386 0.12648 0.37853 0.0
C425 C 0.63025 0.12418 0.32689 0.0
C426 C 0.65327 0.12905 0.47549 0.0
C427 C 0.63234 0.11596 0.46194 0.0
C428 C 0.62529 0.11507 0.41375 0.0
C429 C 0.61746 0.10204 0.49579 0.0
C430 C 0.66164 0.13134 0.52703 0.0
C431 C 0.62009 0.0867 0.51668 0.0
C432 C 0.60404 0.07067 0.53911 0.0
C433 C 0.58497 0.06952 0.54007 0.0
C434 C 0.58298 0.08587 0.52296 0.0
C435 C 0.59907 0.10196 0.50107 0.0
H436 H 0.67583 0.14642 0.53479 0.0
H437 H 0.65036 0.12996 0.55356 0.0
H438 H 0.6654 0.11901 0.5325 0.0
H439 H 0.63398 0.08618 0.51242 0.0
H440 H 0.60605 0.05827 0.55162 0.0
H441 H 0.51453 0.68653 0.2418 0.0
H442 H 0.51677 0.6613 0.29097 0.0
H443 H 0.58124 0.69036 0.27135 0.0
H444 H 0.57906 0.71544 0.2211 0.0
H445 H 0.55975 0.64671 0.25412 0.0
H446 H 0.54253 0.67149 0.43033 0.0
H447 H 0.52436 0.6668 0.3812 0.0
H448 H 0.55018 0.68753 0.37938 0.0
C449 C 0.52919 0.68754 0.24788 0.0
C450 C 0.54663 0.70299 0.22764 0.0
C451 C 0.53047 0.67324 0.27633 0.0
C452 C 0.54921 0.67415 0.28523 0.0
C453 C 0.56666 0.68952 0.26511 0.0
H454 H 0.56811 0.60242 0.49891 0.0
H455 H 0.57201 0.63021 0.44934 0.0
C456 C 0.56541 0.70389 0.23675 0.0
C457 C 0.5504 0.65864 0.31437 0.0
H458 H 0.5415 0.63917 0.4261 0.0
C459 C 0.55593 0.64514 0.29184 0.0
C460 C 0.54562 0.65682 0.36368 0.0
C461 C 0.54052 0.67154 0.39031 0.0
C462 C 0.55621 0.62939 0.317 0.0
C463 C 0.55058 0.62702 0.36569 0.0
C464 C 0.54565 0.64093 0.38862 0.0
C465 C 0.54931 0.61 0.39344 0.0
C466 C 0.56259 0.6155 0.29135 0.0
C467 C 0.5353 0.5894 0.37828 0.0
C468 C 0.53302 0.57343 0.40651 0.0
C469 C 0.54462 0.57778 0.45064 0.0
C470 C 0.55892 0.59846 0.46518 0.0
C471 C 0.56117 0.61439 0.43693 0.0
H472 H 0.57159 0.62267 0.2596 0.0
H473 H 0.57178 0.6117 0.31642 0.0
H474 H 0.54879 0.60087 0.27796 0.0
H475 H 0.52572 0.58571 0.34528 0.0
H476 H 0.52181 0.55773 0.39425 0.0
H477 H 0.86069 0.5277 0.2152 0.0
H478 H 0.87998 0.52623 0.28614 0.0
H479 H 0.84247 0.53836 0.38112 0.0
H480 H 0.82288 0.53955 0.31042 0.0
H481 H 0.90116 0.55884 0.36421 0.0
H482 H 0.84039 0.48457 0.4275 0.0
H483 H 0.84001 0.49182 0.3661 0.0
H484 H 0.83384 0.504 0.41484 0.0
C485 C 0.8565 0.52996 0.25118 0.0
C486 C 0.84031 0.53375 0.25727 0.0
C487 C 0.86754 0.52919 0.29159 0.0
C488 C 0.86246 0.53199 0.33868 0.0
C489 C 0.84644 0.53595 0.345 0.0
H490 H 0.9499 0.5502 0.57694 0.0
H491 H 0.92112 0.55121 0.53741 0.0
C492 C 0.83544 0.53683 0.3046 0.0
C493 C 0.87426 0.53105 0.38099 0.0
H494 H 0.87221 0.50051 0.47133 0.0
C495 C 0.89481 0.54628 0.38816 0.0
C496 C 0.86581 0.51458 0.41186 0.0
C497 C 0.84383 0.49769 0.40483 0.0
C498 C 0.90743 0.54511 0.42444 0.0
C499 C 0.89913 0.52836 0.45468 0.0
C500 C 0.87839 0.51345 0.44849 0.0
C501 C 0.91253 0.52468 0.48762 0.0
C502 C 0.92979 0.56117 0.42834 0.0
C503 C 0.91617 0.50853 0.47502 0.0
C504 C 0.93251 0.50787 0.49747 0.0
C505 C 0.94549 0.52339 0.53286 0.0
C506 C 0.94035 0.53816 0.54937 0.0
C507 C 0.92396 0.53882 0.52674 0.0
H508 H 0.93425 0.57135 0.39758 0.0
H509 H 0.93331 0.57097 0.46256 0.0
H510 H 0.93927 0.5537 0.42935 0.0
H511 H 0.90738 0.49737 0.44514 0.0
H512 H 0.93585 0.49607 0.48449 0.0
H513 H 0.29343 0.84526 0.32155 0.0
H514 H 0.31827 0.86793 0.38682 0.0
H515 H 0.36125 0.90124 0.28042 0.0
H516 H 0.33654 0.87863 0.21499 0.0
H517 H 0.36096 0.87419 0.39838 0.0
H518 H 0.35731 0.94554 0.37541 0.0
H519 H 0.3366 0.92012 0.35558 0.0
H520 H 0.35852 0.93264 0.32012 0.0
C521 C 0.30807 0.85763 0.3121 0.0
C522 C 0.31308 0.86029 0.26325 0.0
C523 C 0.32223 0.87045 0.34936 0.0
C524 C 0.34144 0.88628 0.33823 0.0
C525 C 0.34637 0.88918 0.28953 0.0
H526 H 0.45717 0.97692 0.43298 0.0
H527 H 0.42347 0.9528 0.39738 0.0
C528 C 0.33233 0.87624 0.25231 0.0
C529 C 0.35689 0.89925 0.37724 0.0
H530 H 0.38649 0.94936 0.42032 0.0
C531 C 0.36635 0.89056 0.40414 0.0
C532 C 0.36364 0.92049 0.38461 0.0
C533 C 0.35341 0.9303 0.35775 0.0
C534 C 0.38354 0.90296 0.43562 0.0
C535 C 0.39108 0.92447 0.4407 0.0
C536 C 0.38068 0.93286 0.41628 0.0
C537 C 0.41136 0.93892 0.46451 0.0
C538 C 0.39431 0.89322 0.46047 0.0
C539 C 0.41583 0.93908 0.51434 0.0
C540 C 0.43539 0.95288 0.53507 0.0
C541 C 0.45063 0.96681 0.5063 0.0
C542 C 0.44591 0.96649 0.45648 0.0
C543 C 0.42656 0.95274 0.43594 0.0
H544 H 0.38803 0.87681 0.4475 0.0
H545 H 0.41083 0.90181 0.45428 0.0
H546 H 0.39262 0.8939 0.5002 0.0
H547 H 0.40422 0.92865 0.53714 0.0
H548 H 0.43854 0.95263 0.57339 0.0
H549 H 0.43382 0.307 0.25635 0.0
H550 H 0.43341 0.33705 0.29325 0.0
H551 H 0.49835 0.37391 0.28182 0.0
H552 H 0.49881 0.34407 0.24354 0.0
H553 H 0.45492 0.35695 0.38001 0.0
H554 H 0.47787 0.41202 0.23515 0.0
H555 H 0.46854 0.3848 0.22264 0.0
H556 H 0.49444 0.40168 0.2452 0.0
C557 C 0.44794 0.32162 0.26061 0.0
C558 C 0.46636 0.32315 0.24716 0.0
C559 C 0.44768 0.33875 0.28179 0.0
C560 C 0.46579 0.35775 0.2896 0.0
C561 C 0.48414 0.35949 0.27518 0.0
H562 H 0.50795 0.46767 0.47291 0.0
H563 H 0.50295 0.44288 0.40581 0.0
C564 C 0.48442 0.34235 0.25401 0.0
C565 C 0.46586 0.37502 0.31793 0.0
H566 H 0.47899 0.4257 0.31597 0.0
C567 C 0.45989 0.3719 0.36581 0.0
C568 C 0.47257 0.39453 0.29933 0.0
C569 C 0.47856 0.39848 0.24761 0.0
C570 C 0.46104 0.38792 0.39625 0.0
C571 C 0.46786 0.40751 0.37787 0.0
C572 C 0.47361 0.41062 0.32974 0.0
C573 C 0.47022 0.42509 0.4096 0.0
C574 C 0.45572 0.38394 0.44849 0.0
C575 C 0.45334 0.42399 0.43181 0.0
C576 C 0.45615 0.43797 0.4705 0.0
C577 C 0.47589 0.45344 0.48703 0.0
C578 C 0.49257 0.45587 0.46115 0.0
C579 C 0.48974 0.44171 0.42279 0.0
H580 H 0.45527 0.36964 0.45949 0.0
H581 H 0.46689 0.39705 0.47342 0.0
H582 H 0.44044 0.38212 0.45313 0.0
H583 H 0.4381 0.4115 0.42135 0.0
H584 H 0.44298 0.43591 0.48923 0.0
H585 H 0.49889 0.82902 0.92441 0.0
H586 H 0.495 0.85397 0.87733 0.0
H587 H 0.55886 0.8844 0.85004 0.0
H588 H 0.56281 0.85936 0.89618 0.0
H589 H 0.51685 0.89859 0.89399 0.0
H590 H 0.52909 0.87203 0.71369 0.0
H591 H 0.52266 0.85641 0.76536 0.0
H592 H 0.54833 0.87697 0.76025 0.0
C593 C 0.51204 0.84088 0.90784 0.0
C594 C 0.53114 0.84217 0.91373 0.0
C595 C 0.50982 0.85518 0.88133 0.0
C596 C 0.5266 0.87086 0.85991 0.0
C597 C 0.54568 0.87224 0.86586 0.0
H598 H 0.55565 0.97165 0.68431 0.0
H599 H 0.55489 0.94628 0.73769 0.0
C600 C 0.54794 0.85802 0.89248 0.0
C601 C 0.52432 0.88596 0.83155 0.0
H602 H 0.52977 0.9041 0.71866 0.0
C603 C 0.51947 0.89973 0.85555 0.0
C604 C 0.52767 0.88727 0.78144 0.0
C605 C 0.53205 0.87228 0.75345 0.0
C606 C 0.51873 0.91542 0.83104 0.0
C607 C 0.52264 0.91706 0.78118 0.0
C608 C 0.52691 0.90288 0.75699 0.0
C609 C 0.52326 0.93381 0.75342 0.0
C610 C 0.51454 0.93054 0.85898 0.0
C611 C 0.50579 0.93549 0.74531 0.0
C612 C 0.50619 0.95013 0.71485 0.0
C613 C 0.52401 0.96311 0.69162 0.0
C614 C 0.54162 0.9618 0.70127 0.0
C615 C 0.54123 0.9473 0.7318 0.0
H616 H 0.51626 0.9299 0.89887 0.0
H617 H 0.52495 0.94654 0.84911 0.0
H618 H 0.49868 0.92681 0.84971 0.0
H619 H 0.49167 0.925 0.76104 0.0
H620 H 0.49234 0.95067 0.70792 0.0
H621 H 0.70528 0.50402 0.8446 0.0
H622 H 0.68226 0.50221 0.77807 0.0
H623 H 0.64923 0.51772 0.88021 0.0
H624 H 0.67193 0.51928 0.94693 0.0
H625 H 0.6401 0.47645 0.7666 0.0
H626 H 0.66075 0.5585 0.7748 0.0
H627 H 0.67665 0.5498 0.80315 0.0
H628 H 0.65516 0.54806 0.83329 0.0
C629 C 0.69304 0.50694 0.85294 0.0
C630 C 0.69042 0.5118 0.90109 0.0
C631 C 0.68003 0.50606 0.81483 0.0
C632 C 0.66432 0.51022 0.82417 0.0
C633 C 0.66161 0.51498 0.87213 0.0
H634 H 0.54778 0.4738 0.73129 0.0
H635 H 0.58003 0.47581 0.75337 0.0
C636 C 0.67456 0.51583 0.91023 0.0
C637 C 0.64992 0.50847 0.7845 0.0
H638 H 0.62732 0.53406 0.73831 0.0
C639 C 0.63758 0.48916 0.75951 0.0
C640 C 0.64701 0.52517 0.77434 0.0
C641 C 0.66076 0.54661 0.79744 0.0
C642 C 0.62119 0.48567 0.72792 0.0
C643 C 0.61697 0.50183 0.72186 0.0
C644 C 0.63045 0.52161 0.74334 0.0
C645 C 0.59707 0.49787 0.70096 0.0
C646 C 0.60803 0.46449 0.70298 0.0
C647 C 0.59585 0.50949 0.66379 0.0
C648 C 0.5773 0.50838 0.65114 0.0
C649 C 0.55989 0.49592 0.6761 0.0
C650 C 0.56099 0.48358 0.71152 0.0
C651 C 0.57938 0.48455 0.72382 0.0
H652 H 0.61702 0.4567 0.69621 0.0
H653 H 0.59572 0.45489 0.72684 0.0
H654 H 0.60094 0.46522 0.6679 0.0
H655 H 0.60941 0.52006 0.64615 0.0
H656 H 0.57693 0.51825 0.62428 0.0
H657 H 0.18341 0.68159 0.92653 0.0
H658 H 0.15612 0.65059 0.88245 0.0
H659 H 0.11616 0.64275 0.99761 0.0
H660 H 0.14361 0.67335 0.04291 0.0
H661 H 0.11211 0.60468 0.95444 0.0
H662 H 0.10888 0.65616 0.81993 0.0
H663 H 0.1335 0.65855 0.82978 0.0
H664 H 0.12258 0.66584 0.87835 0.0
C665 C 0.169 0.673 0.94309 0.0
C666 C 0.16556 0.68009 0.98786 0.0
C667 C 0.1534 0.65537 0.91772 0.0
C668 C 0.1341 0.64465 0.93654 0.0
C669 C 0.13095 0.65092 0.98248 0.0
H670 H 0.02589 0.57516 0.74909 0.0
H671 H 0.04904 0.59608 0.81802 0.0
C672 C 0.14657 0.66851 0.00799 0.0
C673 C 0.11673 0.62826 0.9062 0.0
H674 H 0.08823 0.62034 0.80144 0.0
C675 C 0.10678 0.60802 0.92102 0.0
C676 C 0.10965 0.63285 0.86324 0.0
C677 C 0.11905 0.65455 0.84697 0.0
C678 C 0.0901 0.59206 0.89314 0.0
C679 C 0.08348 0.59658 0.84933 0.0
C680 C 0.09331 0.61691 0.83511 0.0
C681 C 0.06675 0.58065 0.81637 0.0
C682 C 0.0796 0.57065 0.91103 0.0
C683 C 0.06847 0.56443 0.79404 0.0
C684 C 0.05505 0.55226 0.75496 0.0
C685 C 0.04005 0.55647 0.73715 0.0
C686 C 0.03746 0.57174 0.76178 0.0
C687 C 0.05065 0.58366 0.80119 0.0
H688 H 0.08243 0.57097 0.95087 0.0
H689 H 0.06291 0.56272 0.90239 0.0
H690 H 0.08562 0.56144 0.8929 0.0
H691 H 0.08099 0.56208 0.80449 0.0
H692 H 0.05745 0.54066 0.73643 0.0
H693 H 0.44762 0.12351 0.11255 0.0
H694 H 0.44842 0.09253 0.08319 0.0
H695 H 0.49707 0.12947 0.99167 0.0
H696 H 0.49693 0.16038 0.0228 0.0
H697 H 0.43941 0.07481 0.99901 0.0
H698 H 0.51866 0.09504 0.03995 0.0
H699 H 0.50827 0.11004 0.06635 0.0
H700 H 0.51906 0.1154 0.00765 0.0
C701 C 0.45867 0.12493 0.08674 0.0
C702 C 0.47226 0.14423 0.06992 0.0
C703 C 0.45918 0.1073 0.07013 0.0
C704 C 0.47314 0.10866 0.03601 0.0
C705 C 0.48673 0.12804 0.01941 0.0
H706 H 0.45804 0.04019 0.78501 0.0
H707 H 0.45563 0.0576 0.8582 0.0
C708 C 0.48649 0.14569 0.03672 0.0
C709 C 0.472 0.08976 0.01315 0.0
H710 H 0.50206 0.07234 0.9653 0.0
C711 C 0.45307 0.07402 0.99288 0.0
C712 C 0.48959 0.08812 0.00631 0.0
C713 C 0.50995 0.10298 0.03185 0.0
C714 C 0.45164 0.05797 0.96189 0.0
C715 C 0.46967 0.05812 0.94939 0.0
C716 C 0.48827 0.07251 0.97375 0.0
C717 C 0.46997 0.04583 0.90617 0.0
C718 C 0.43087 0.0415 0.94132 0.0
C719 C 0.47944 0.03382 0.90827 0.0
C720 C 0.4812 0.02398 0.86578 0.0
C721 C 0.47362 0.02614 0.82059 0.0
C722 C 0.46396 0.038 0.81903 0.0
C723 C 0.46234 0.04784 0.86114 0.0
H724 H 0.41918 0.03831 0.96816 0.0
H725 H 0.42654 0.047 0.90884 0.0
H726 H 0.43059 0.02688 0.93071 0.0
H727 H 0.48568 0.03229 0.94261 0.0
H728 H 0.48877 0.01501 0.86825 0.0
H729 H 0.31894 0.46094 0.99647 0.0
H730 H 0.34344 0.46376 0.93719 0.0
H731 H 0.36512 0.52886 0.93296 0.0
H732 H 0.34035 0.52611 0.99147 0.0
H733 H 0.35779 0.50741 0.8394 0.0
H734 H 0.40564 0.49118 0.96568 0.0
H735 H 0.37895 0.47236 0.96279 0.0
H736 H 0.38748 0.49827 0.98663 0.0
C737 C 0.32887 0.47585 0.98284 0.0
C738 C 0.32774 0.49332 0.99897 0.0
C739 C 0.34296 0.47746 0.94921 0.0
C740 C 0.35624 0.49656 0.93105 0.0
C741 C 0.35507 0.51399 0.94669 0.0
H742 H 0.46447 0.52134 0.78206 0.0
H743 H 0.44022 0.52453 0.83268 0.0
C744 C 0.34103 0.51242 0.98047 0.0
C745 C 0.37134 0.49831 0.89571 0.0
H746 H 0.41256 0.49203 0.88237 0.0
C747 C 0.36983 0.50414 0.84877 0.0
C748 C 0.38718 0.49428 0.90821 0.0
C749 C 0.39011 0.48885 0.95867 0.0
C750 C 0.3835 0.5056 0.81366 0.0
C751 C 0.39896 0.50095 0.82577 0.0
C752 C 0.40067 0.49552 0.87302 0.0
C753 C 0.41348 0.50133 0.79021 0.0
C754 C 0.38143 0.5123 0.76412 0.0
C755 C 0.40654 0.48769 0.74846 0.0
C756 C 0.42042 0.48585 0.71916 0.0
C757 C 0.44149 0.49748 0.73142 0.0
C758 C 0.44838 0.51203 0.7716 0.0
C759 C 0.43452 0.51386 0.80074 0.0
H760 H 0.3726 0.52049 0.76467 0.0
H761 H 0.39661 0.52257 0.75027 0.0
H762 H 0.37327 0.49849 0.73835 0.0
H763 H 0.39038 0.47765 0.73994 0.0
H764 H 0.41455 0.47448 0.68858 0.0
H765 H 0.8424 0.32913 0.97352 0.0
H766 H 0.86995 0.35437 0.92769 0.0
H767 H 0.90051 0.319 0.93557 0.0
H768 H 0.87286 0.29347 0.98097 0.0
H769 H 0.92617 0.3623 0.95876 0.0
H770 H 0.88026 0.34524 0.78494 0.0
H771 H 0.86932 0.35051 0.83665 0.0
H772 H 0.87202 0.32799 0.83354 0.0
C773 C 0.85483 0.32655 0.96498 0.0
C774 C 0.85535 0.3092 0.9806 0.0
C775 C 0.87059 0.34103 0.93892 0.0
C776 C 0.88711 0.3384 0.9278 0.0
C777 C 0.88785 0.32127 0.94378 0.0
H778 H 0.97291 0.40695 0.71359 0.0
H779 H 0.94971 0.37975 0.76335 0.0
C780 C 0.87208 0.30675 0.96983 0.0
C781 C 0.90366 0.35362 0.89965 0.0
H782 H 0.91306 0.37524 0.79043 0.0
C783 C 0.92338 0.36508 0.92185 0.0
C784 C 0.89998 0.35698 0.85134 0.0
C785 C 0.8793 0.34442 0.82494 0.0
C786 C 0.93946 0.38026 0.89733 0.0
C787 C 0.93558 0.38415 0.84967 0.0
C788 C 0.91596 0.37231 0.82711 0.0
C789 C 0.95149 0.40062 0.82247 0.0
C790 C 0.96045 0.39187 0.92246 0.0
C791 C 0.96041 0.42139 0.83956 0.0
C792 C 0.97374 0.43704 0.81123 0.0
C793 C 0.97825 0.43218 0.76506 0.0
C794 C 0.96977 0.41129 0.74885 0.0
C795 C 0.95648 0.39569 0.77722 0.0
H796 H 0.96207 0.3834 0.95271 0.0
H797 H 0.97235 0.39471 0.8965 0.0
H798 H 0.9632 0.40703 0.9379 0.0
H799 H 0.95647 0.42555 0.874 0.0
H800 H 0.9799 0.45293 0.8248 0.0
H801 H 0.83684 0.49055 0.94908 0.0
H802 H 0.86076 0.48997 0.89237 0.0
H803 H 0.87835 0.55194 0.85696 0.0
H804 H 0.85471 0.55274 0.91445 0.0
H805 H 0.86159 0.49341 0.79539 0.0
H806 H 0.93318 0.55729 0.88583 0.0
H807 H 0.90932 0.54587 0.91488 0.0
H808 H 0.91444 0.56435 0.8702 0.0
C809 C 0.84588 0.50409 0.92936 0.0
C810 C 0.84398 0.52174 0.93643 0.0
C811 C 0.85954 0.50374 0.89695 0.0
C812 C 0.87156 0.521 0.87076 0.0
C813 C 0.86963 0.53863 0.87756 0.0
H814 H 0.96332 0.53362 0.66423 0.0
H815 H 0.93643 0.53798 0.70105 0.0
C816 C 0.8561 0.53906 0.9104 0.0
C817 C 0.88575 0.52019 0.83578 0.0
H818 H 0.93603 0.54236 0.8115 0.0
C819 C 0.87785 0.5042 0.7988 0.0
C820 C 0.90698 0.53433 0.84001 0.0
C821 C 0.91656 0.55132 0.88009 0.0
C822 C 0.89063 0.50168 0.76681 0.0
C823 C 0.91183 0.51549 0.77187 0.0
C824 C 0.9197 0.53192 0.80754 0.0
C825 C 0.92631 0.51167 0.74466 0.0
C826 C 0.88147 0.48404 0.72836 0.0
C827 C 0.9293 0.49535 0.75659 0.0
C828 C 0.94461 0.49294 0.73591 0.0
C829 C 0.95712 0.50668 0.70248 0.0
C830 C 0.95361 0.52255 0.68897 0.0
C831 C 0.9384 0.52516 0.71031 0.0
H832 H 0.86482 0.47769 0.72192 0.0
H833 H 0.88892 0.48906 0.69359 0.0
H834 H 0.88398 0.47149 0.74028 0.0
H835 H 0.92029 0.48494 0.78343 0.0
H836 H 0.94706 0.48063 0.74713 0.0
H837 H 0.33595 0.83367 0.9548 0.0
H838 H 0.35719 0.85326 0.89004 0.0
H839 H 0.3133 0.87145 0.84998 0.0
H840 H 0.29207 0.85204 0.91497 0.0
H841 H 0.34869 0.84947 0.79034 0.0
H842 H 0.36591 0.92648 0.8688 0.0
H843 H 0.35458 0.9038 0.90299 0.0
H844 H 0.33927 0.90798 0.85908 0.0
C845 C 0.33082 0.84184 0.93217 0.0
C846 C 0.31242 0.84146 0.94025 0.0
C847 C 0.34296 0.85301 0.89518 0.0
C848 C 0.33694 0.86401 0.86554 0.0
C849 C 0.31845 0.86344 0.87306 0.0
H850 H 0.4081 0.95312 0.65761 0.0
H851 H 0.37806 0.92583 0.69273 0.0
C852 C 0.30636 0.85238 0.91027 0.0
C853 C 0.3502 0.87621 0.82716 0.0
H854 H 0.37885 0.92539 0.79303 0.0
C855 C 0.35521 0.86606 0.79072 0.0
C856 C 0.35862 0.89784 0.8276 0.0
C857 C 0.35451 0.90974 0.86689 0.0
C858 C 0.36865 0.87703 0.75514 0.0
C859 C 0.37744 0.8987 0.75638 0.0
C860 C 0.37194 0.90874 0.79187 0.0
C861 C 0.39402 0.91168 0.72496 0.0
C862 C 0.37344 0.86536 0.71677 0.0
C863 C 0.41274 0.9122 0.72954 0.0
C864 C 0.42994 0.92778 0.70958 0.0
C865 C 0.42878 0.94326 0.68503 0.0
C866 C 0.40959 0.94153 0.67649 0.0
C867 C 0.39238 0.92596 0.69668 0.0
H868 H 0.36098 0.84905 0.71107 0.0
H869 H 0.37597 0.87268 0.68161 0.0
H870 H 0.38752 0.86534 0.7287 0.0
H871 H 0.41445 0.90154 0.75173 0.0
H872 H 0.44444 0.92854 0.71659 0.0
H873 H 0.43168 0.2908 0.99575 0.0
H874 H 0.43007 0.31643 0.94647 0.0
H875 H 0.49408 0.34337 0.92305 0.0
H876 H 0.49573 0.31758 0.97129 0.0
H877 H 0.45317 0.36001 0.96496 0.0
H878 H 0.46722 0.33466 0.78537 0.0
H879 H 0.45948 0.31837 0.83586 0.0
H880 H 0.48557 0.33837 0.83314 0.0
C881 C 0.44532 0.30197 0.97936 0.0
C882 C 0.46382 0.30216 0.98722 0.0
C883 C 0.4444 0.31666 0.95158 0.0
C884 C 0.46191 0.33162 0.93083 0.0
C885 C 0.48035 0.33175 0.93823 0.0
H886 H 0.49282 0.44977 0.82669 0.0
H887 H 0.48821 0.42125 0.87461 0.0
C888 C 0.48129 0.31713 0.9661 0.0
C889 C 0.46117 0.34764 0.90292 0.0
H890 H 0.46969 0.36764 0.79183 0.0
C891 C 0.45661 0.36161 0.92699 0.0
C892 C 0.46545 0.3495 0.85334 0.0
C893 C 0.46953 0.33432 0.82518 0.0
C894 C 0.45682 0.37784 0.90303 0.0
C895 C 0.46195 0.38021 0.854 0.0
C896 C 0.46592 0.36586 0.82958 0.0
C897 C 0.46361 0.39762 0.8273 0.0
C898 C 0.45149 0.39225 0.93028 0.0
C899 C 0.45137 0.39374 0.78474 0.0
C900 C 0.45402 0.40996 0.75711 0.0
C901 C 0.46909 0.43039 0.77137 0.0
C902 C 0.48103 0.43426 0.81471 0.0
C903 C 0.47836 0.41799 0.84232 0.0
H904 H 0.44276 0.38524 0.9625 0.0
H905 H 0.46573 0.40654 0.94319 0.0
H906 H 0.4424 0.39661 0.90642 0.0
H907 H 0.43996 0.3781 0.7725 0.0
H908 H 0.44452 0.40639 0.72402 0.0
H909 H 0.19678 0.51753 0.96358 0.0
H910 H 0.17611 0.51882 0.89553 0.0
H911 H 0.13457 0.45351 0.8993 0.0
H912 H 0.15496 0.45212 0.96802 0.0
H913 H 0.16264 0.49397 0.7999 0.0
H914 H 0.1002 0.48311 0.91809 0.0
H915 H 0.1256 0.49113 0.9424 0.0
H916 H 0.10875 0.46469 0.9216 0.0
C917 C 0.18316 0.50347 0.95016 0.0
C918 C 0.17733 0.48476 0.97148 0.0
C919 C 0.17154 0.5042 0.91097 0.0
C920 C 0.15387 0.48628 0.89266 0.0
C921 C 0.14818 0.4675 0.91316 0.0
H922 H 0.06598 0.46433 0.658 0.0
H923 H 0.0949 0.46528 0.70241 0.0
C924 C 0.15983 0.46673 0.95228 0.0
C925 C 0.14073 0.48753 0.85409 0.0
H926 H 0.09506 0.4852 0.83458 0.0
C927 C 0.14783 0.492 0.80723 0.0
C928 C 0.12155 0.4851 0.86421 0.0
C929 C 0.11353 0.48089 0.91433 0.0
C930 C 0.13603 0.49402 0.76998 0.0
C931 C 0.11688 0.49159 0.78028 0.0
C932 C 0.10983 0.48707 0.82705 0.0
C933 C 0.10373 0.49396 0.74383 0.0
C934 C 0.14412 0.49909 0.72022 0.0
C935 C 0.09983 0.51027 0.75097 0.0
C936 C 0.08334 0.50974 0.72598 0.0
C937 C 0.0704 0.49278 0.6937 0.0
C938 C 0.07564 0.47756 0.68276 0.0
C939 C 0.09217 0.47808 0.70802 0.0
H940 H 0.16016 0.50259 0.71943 0.0
H941 H 0.13458 0.4858 0.69385 0.0
H942 H 0.14316 0.51253 0.70811 0.0
H943 H 0.10863 0.52264 0.77852 0.0
H944 H 0.07986 0.52185 0.7347 0.0
H945 H 0.68054 0.13587 0.00898 0.0
H946 H 0.65672 0.11147 0.9446 0.0
H947 H 0.68817 0.15528 0.83798 0.0
H948 H 0.71218 0.17963 0.90188 0.0
H949 H 0.64603 0.13984 0.83475 0.0
H950 H 0.66405 0.07672 0.83549 0.0
H951 H 0.66015 0.08449 0.89483 0.0
H952 H 0.68129 0.10241 0.86215 0.0
C953 C 0.6826 0.14014 0.97173 0.0
C954 C 0.69811 0.15972 0.96057 0.0
C955 C 0.66903 0.12619 0.935 0.0
C956 C 0.67086 0.13154 0.88654 0.0
C957 C 0.68656 0.15088 0.87516 0.0
H958 H 0.57376 0.06185 0.65421 0.0
H959 H 0.60764 0.08726 0.69048 0.0
C960 C 0.70014 0.1648 0.91178 0.0
C961 C 0.65534 0.1176 0.84852 0.0
H962 H 0.63152 0.06822 0.79828 0.0
C963 C 0.64305 0.12429 0.82593 0.0
C964 C 0.6517 0.09745 0.83695 0.0
C965 C 0.66512 0.08988 0.85825 0.0
C966 C 0.62622 0.11083 0.79466 0.0
C967 C 0.62188 0.09029 0.78526 0.0
C968 C 0.63492 0.08399 0.80561 0.0
C969 C 0.60235 0.07436 0.76079 0.0
C970 C 0.61247 0.11826 0.77455 0.0
C971 C 0.58849 0.05848 0.78788 0.0
C972 C 0.56937 0.04398 0.76735 0.0
C973 C 0.56362 0.045 0.71909 0.0
C974 C 0.57773 0.06064 0.69141 0.0
C975 C 0.59701 0.07523 0.71214 0.0
H976 H 0.61642 0.1337 0.79099 0.0
H977 H 0.61385 0.11932 0.73474 0.0
H978 H 0.59632 0.10719 0.78099 0.0
H979 H 0.59231 0.05756 0.82548 0.0
H980 H 0.55903 0.03207 0.78971 0.0
H981 H 0.52907 0.68472 0.89357 0.0
H982 H 0.5302 0.6551 0.85754 0.0
H983 H 0.55945 0.65135 0.98999 0.0
H984 H 0.55721 0.68027 0.02761 0.0
H985 H 0.56332 0.65261 0.84047 0.0
H986 H 0.51517 0.59191 0.9624 0.0
H987 H 0.51619 0.61649 0.96272 0.0
H988 H 0.53646 0.61445 0.99239 0.0
C989 C 0.53532 0.67735 0.91557 0.0
C990 C 0.54293 0.68485 0.96365 0.0
C991 C 0.53613 0.66051 0.89472 0.0
C992 C 0.5447 0.65087 0.92124 0.0
C993 C 0.55241 0.6583 0.96917 0.0
H994 H 0.57167 0.57046 0.73717 0.0
H995 H 0.5765 0.5949 0.80515 0.0
C996 C 0.55139 0.67504 0.99034 0.0
C997 C 0.5463 0.63369 0.89727 0.0
H998 H 0.5301 0.58229 0.90006 0.0
C999 C 0.55618 0.63725 0.85365 0.0
C1000 C 0.53693 0.61369 0.91462 0.0
C1001 C 0.52543 0.60877 0.96037 0.0
C1002 C 0.55621 0.62123 0.82563 0.0
C1003 C 0.54678 0.60116 0.84278 0.0
C1004 C 0.53753 0.59773 0.88737 0.0
C1005 C 0.54427 0.58327 0.81191 0.0
C1006 C 0.56525 0.62581 0.77655 0.0
C1007 C 0.5246 0.56742 0.79651 0.0
C1008 C 0.52181 0.5531 0.75869 0.0
C1009 C 0.53868 0.55463 0.7353 0.0
C1010 C 0.5584 0.56919 0.75404 0.0
C1011 C 0.56117 0.58321 0.79264 0.0
H1012 H 0.56757 0.64074 0.76446 0.0
H1013 H 0.58032 0.62674 0.7787 0.0
H1014 H 0.55529 0.61346 0.74848 0.0
H1015 H 0.51133 0.56704 0.81119 0.0
H1016 H 0.50642 0.54201 0.74513 0.0
H1017 H 0.51275 0.17904 0.28898 0.0
H1018 H 0.51762 0.15366 0.33152 0.0
H1019 H 0.45588 0.12567 0.37585 0.0
H1020 H 0.45093 0.15101 0.33385 0.0
H1021 H 0.51349 0.14492 0.43014 0.0
H1022 H 0.4589 0.07701 0.31023 0.0
H1023 H 0.46864 0.10318 0.29354 0.0
H1024 H 0.44814 0.09198 0.33374 0.0
C1025 C 0.50029 0.16761 0.30825 0.0
C1026 C 0.48141 0.16694 0.30787 0.0
C1027 C 0.50305 0.15306 0.33219 0.0
C1028 C 0.48697 0.13756 0.35586 0.0
C1029 C 0.46831 0.13719 0.35667 0.0
H1030 H 0.46007 0.04293 0.54468 0.0
H1031 H 0.46126 0.06738 0.48771 0.0
C1032 C 0.46552 0.1517 0.33278 0.0
C1033 C 0.48969 0.12195 0.38076 0.0
H1034 H 0.46919 0.06999 0.38658 0.0
C1035 C 0.50406 0.12854 0.42025 0.0
C1036 C 0.47743 0.10064 0.36739 0.0
C1037 C 0.46255 0.09275 0.3236 0.0
C1038 C 0.5057 0.11428 0.44856 0.0
C1039 C 0.49279 0.09294 0.43645 0.0
C1040 C 0.47901 0.08638 0.39576 0.0
C1041 C 0.49204 0.07722 0.46814 0.0
C1042 C 0.52047 0.12209 0.49257 0.0
C1043 C 0.50883 0.07434 0.4751 0.0
C1044 C 0.50822 0.06033 0.50778 0.0
C1045 C 0.49079 0.04901 0.53394 0.0
C1046 C 0.47379 0.05149 0.52547 0.0
C1047 C 0.4744 0.06542 0.4928 0.0
H1048 H 0.52688 0.13888 0.50134 0.0
H1049 H 0.5129 0.11369 0.52472 0.0
H1050 H 0.53327 0.11932 0.4856 0.0
H1051 H 0.52248 0.08314 0.45582 0.0
H1052 H 0.52157 0.05881 0.51347 0.0
H1053 H 0.30572 0.46762 0.33722 0.0
H1054 H 0.32782 0.46839 0.40476 0.0
H1055 H 0.37152 0.53156 0.38035 0.0
H1056 H 0.34926 0.53099 0.31375 0.0
H1057 H 0.3645 0.4735 0.40099 0.0
H1058 H 0.36972 0.53596 0.52486 0.0
H1059 H 0.3508 0.52424 0.47479 0.0
H1060 H 0.37617 0.54473 0.46517 0.0
C1061 C 0.32003 0.48167 0.3465 0.0
C1062 C 0.32584 0.49925 0.32036 0.0
C1063 C 0.33254 0.48215 0.38526 0.0
C1064 C 0.35109 0.50019 0.39841 0.0
C1065 C 0.35695 0.51771 0.37206 0.0
H1066 H 0.4672 0.53629 0.49978 0.0
H1067 H 0.43443 0.53309 0.47583 0.0
C1068 C 0.34435 0.51731 0.3337 0.0
C1069 C 0.36533 0.50017 0.43625 0.0
H1070 H 0.3982 0.52948 0.53194 0.0
C1071 C 0.37145 0.48538 0.43049 0.0
C1072 C 0.37427 0.51558 0.47501 0.0
C1073 C 0.3672 0.53086 0.48561 0.0
C1074 C 0.38739 0.48658 0.45996 0.0
C1075 C 0.39739 0.50296 0.49611 0.0
C1076 C 0.39047 0.51698 0.50403 0.0
C1077 C 0.41697 0.50751 0.51986 0.0
C1078 C 0.39444 0.47121 0.45004 0.0
C1079 C 0.41795 0.49468 0.55404 0.0
C1080 C 0.43672 0.49656 0.56796 0.0
C1081 C 0.45456 0.51118 0.54754 0.0
C1082 C 0.45362 0.52487 0.51592 0.0
C1083 C 0.43497 0.52313 0.50242 0.0
H1084 H 0.38574 0.46012 0.41861 0.0
H1085 H 0.41086 0.4794 0.44269 0.0
H1086 H 0.39258 0.46236 0.48254 0.0
H1087 H 0.40413 0.48248 0.56763 0.0
H1088 H 0.43703 0.48558 0.59156 0.0
H1089 H 0.87153 0.3408 0.17591 0.0
H1090 H 0.90127 0.37154 0.21486 0.0
H1091 H 0.87863 0.35166 0.35561 0.0
H1092 H 0.84915 0.32077 0.31696 0.0
H1093 H 0.90486 0.40326 0.27404 0.0
H1094 H 0.93565 0.36067 0.37025 0.0
H1095 H 0.91561 0.34845 0.32279 0.0
H1096 H 0.90976 0.35188 0.38413 0.0
C1097 C 0.87294 0.34307 0.21518 0.0
C1098 C 0.8582 0.32839 0.24358 0.0
C1099 C 0.8899 0.36057 0.2373 0.0
C1100 C 0.89233 0.36364 0.28808 0.0
C1101 C 0.87732 0.34927 0.31639 0.0
H1102 H 0.95465 0.46678 0.48766 0.0
H1103 H 0.93436 0.44418 0.41719 0.0
C1104 C 0.86049 0.33168 0.29435 0.0
C1105 C 0.91046 0.38186 0.31188 0.0
H1106 H 0.94744 0.39545 0.40157 0.0
C1107 C 0.91443 0.40165 0.3014 0.0
C1108 C 0.92329 0.37973 0.34641 0.0
C1109 C 0.921 0.35903 0.35614 0.0
C1110 C 0.93017 0.41936 0.32693 0.0
C1111 C 0.94177 0.41708 0.36469 0.0
C1112 C 0.9385 0.39731 0.37296 0.0
C1113 C 0.95606 0.4344 0.39928 0.0
C1114 C 0.93404 0.44023 0.31329 0.0
C1115 C 0.97519 0.43679 0.41237 0.0
C1116 C 0.9864 0.44909 0.4537 0.0
C1117 C 0.97888 0.4596 0.48184 0.0
C1118 C 0.96078 0.45889 0.46619 0.0
C1119 C 0.94926 0.4461 0.42561 0.0
H1120 H 0.93035 0.43995 0.27392 0.0
H1121 H 0.924 0.44435 0.33353 0.0
H1122 H 0.95013 0.4524 0.32195 0.0
H1123 H 0.9808 0.42801 0.39254 0.0
H1124 H 0.00045 0.44959 0.46502 0.0
H1125 H 0.54251 0.85557 0.24565 0.0
H1126 H 0.54148 0.88578 0.27954 0.0
H1127 H 0.53092 0.89986 0.13553 0.0
H1128 H 0.53195 0.86959 0.10116 0.0
H1129 H 0.56498 0.93438 0.20861 0.0
H1130 H 0.48657 0.89064 0.27237 0.0
H1131 H 0.50275 0.87986 0.28366 0.0
H1132 H 0.49516 0.88112 0.22229 0.0
C1133 C 0.5401 0.86517 0.2212 0.0
C1134 C 0.53728 0.86027 0.17085 0.0
C1135 C 0.53941 0.88231 0.24056 0.0
C1136 C 0.53602 0.89485 0.20991 0.0
C1137 C 0.53347 0.89023 0.1596 0.0
H1138 H 0.51429 0.9856 0.36681 0.0
H1139 H 0.51412 0.96463 0.29581 0.0
C1140 C 0.53396 0.87294 0.14016 0.0
C1141 C 0.53521 0.91278 0.23119 0.0
H1142 H 0.50757 0.92496 0.30696 0.0
C1143 C 0.55229 0.93248 0.22931 0.0
C1144 C 0.51849 0.91019 0.25741 0.0
C1145 C 0.49959 0.88935 0.25893 0.0
C1146 C 0.55364 0.94952 0.25612 0.0
C1147 C 0.53759 0.94659 0.28558 0.0
C1148 C 0.51989 0.92716 0.28441 0.0
C1149 C 0.53993 0.96241 0.32315 0.0
C1150 C 0.57253 0.97033 0.25412 0.0
C1151 C 0.5547 0.96832 0.36149 0.0
C1152 C 0.55473 0.98007 0.40208 0.0
C1153 C 0.53997 0.98613 0.40511 0.0
C1154 C 0.5259 0.98121 0.36544 0.0
C1155 C 0.52576 0.96925 0.3249 0.0
H1156 H 0.57983 0.97161 0.21915 0.0
H1157 H 0.569 0.983 0.25882 0.0
H1158 H 0.58369 0.97236 0.28383 0.0
H1159 H 0.5655 0.96285 0.36132 0.0
H1160 H 0.56583 0.9837 0.43193 0.0
H1161 H 0.71216 0.53314 0.28689 0.0
H1162 H 0.68778 0.52964 0.34686 0.0
H1163 H 0.6387 0.50002 0.23649 0.0
H1164 H 0.66305 0.50392 0.17568 0.0
H1165 H 0.66013 0.54573 0.34157 0.0
H1166 H 0.61996 0.46054 0.35016 0.0
H1167 H 0.64485 0.4749 0.32634 0.0
H1168 H 0.62254 0.46978 0.29028 0.0
C1169 C 0.69622 0.52607 0.27506 0.0
C1170 C 0.68963 0.51892 0.2262 0.0
C1171 C 0.68228 0.52392 0.30959 0.0
C1172 C 0.66143 0.51435 0.29626 0.0
C1173 C 0.65471 0.50711 0.2477 0.0
H1174 H 0.55257 0.49262 0.4309 0.0
H1175 H 0.57814 0.49109 0.3823 0.0
C1176 C 0.66866 0.50936 0.21299 0.0
C1177 C 0.64685 0.51278 0.33282 0.0
H1178 H 0.60588 0.47839 0.39211 0.0
C1179 C 0.64836 0.53103 0.35298 0.0
C1180 C 0.63151 0.49357 0.34741 0.0
C1181 C 0.62961 0.47354 0.32781 0.0
C1182 C 0.63453 0.53061 0.38628 0.0
C1183 C 0.61911 0.51138 0.40096 0.0
C1184 C 0.61778 0.49311 0.38118 0.0
C1185 C 0.60341 0.50995 0.43415 0.0
C1186 C 0.63608 0.55075 0.40381 0.0
C1187 C 0.60891 0.52018 0.4807 0.0
C1188 C 0.5943 0.52125 0.50862 0.0
C1189 C 0.57386 0.5119 0.49066 0.0
C1190 C 0.56817 0.50019 0.44581 0.0
C1191 C 0.5828 0.49928 0.41784 0.0
H1192 H 0.64533 0.56336 0.38009 0.0
H1193 H 0.62076 0.54919 0.40522 0.0
H1194 H 0.64355 0.55538 0.44095 0.0
H1195 H 0.62464 0.52799 0.49469 0.0
H1196 H 0.5992 0.53017 0.54324 0.0
H1197 H 0.16117 0.72553 0.29927 0.0
H1198 H 0.13254 0.69928 0.34116 0.0
H1199 H 0.11928 0.65483 0.22094 0.0
H1200 H 0.14778 0.68092 0.17888 0.0
H1201 H 0.09014 0.67418 0.31204 0.0
H1202 H 0.12797 0.62782 0.3391 0.0
H1203 H 0.14153 0.65406 0.3216 0.0
H1204 H 0.12584 0.63335 0.27725 0.0
C1205 C 0.15201 0.71022 0.2816 0.0
C1206 C 0.15687 0.70519 0.23611 0.0
C1207 C 0.13572 0.69525 0.30556 0.0
C1208 C 0.12406 0.67507 0.28443 0.0
C1209 C 0.12838 0.67022 0.23826 0.0
H1210 H 0.03077 0.56084 0.39214 0.0
H1211 H 0.05284 0.58748 0.33948 0.0
C1212 C 0.14468 0.68512 0.21438 0.0
C1213 C 0.10779 0.65887 0.31129 0.0
H1214 H 0.09409 0.61345 0.36228 0.0
C1215 C 0.09096 0.66089 0.32309 0.0
C1216 C 0.10896 0.64159 0.32558 0.0
C1217 C 0.12711 0.63908 0.31568 0.0
C1218 C 0.0751 0.64588 0.34846 0.0
C1219 C 0.07634 0.62865 0.36288 0.0
C1220 C 0.09312 0.62661 0.35081 0.0
C1221 C 0.06094 0.61291 0.39245 0.0
C1222 C 0.05707 0.64846 0.35907 0.0
C1223 C 0.05799 0.61843 0.43946 0.0
C1224 C 0.04539 0.60326 0.4697 0.0
C1225 C 0.03562 0.58225 0.4536 0.0
C1226 C 0.03805 0.57685 0.4058 0.0
C1227 C 0.05066 0.59204 0.37561 0.0
H1228 H 0.05564 0.659 0.33423 0.0
H1229 H 0.04269 0.63337 0.35578 0.0
H1230 H 0.05908 0.65521 0.39682 0.0
H1231 H 0.06609 0.63441 0.45352 0.0
H1232 H 0.04391 0.60801 0.50627 0.0
loop_
_geom_bond_atom_site_label_1
_geom_bond_atom_site_label_2
_geom_bond_distance
_geom_bond_site_symmetry_2
_ccdc_geom_bond_type
C0 C1 1.384 . S
C0 C2 1.384 . S
C0 H28 0.931 . S
C1 C0 1.384 . S
C1 C4 1.382 . S
C2 C0 1.384 . S
C2 C3 1.381 . S
C2 H29 0.930 . S
C3 C2 1.381 . S
C3 C5 1.381 . S
C3 C6 1.487 . S
C4 C1 1.382 . S
C4 C5 1.387 . S
C4 H30 0.930 . S
C5 C3 1.381 . S
C5 C4 1.387 . S
C5 H31 0.931 . S
C6 C3 1.487 . S
C6 C13 1.399 . S
C6 N44 1.343 . S
C7 C8 1.384 . S
C7 C9 1.384 . S
C7 H32 0.931 . S
C8 C7 1.384 . S
C8 C11 1.382 . S
C9 C7 1.384 . S
C9 C10 1.381 . S
C9 H33 0.930 . S
C10 C9 1.381 . S
C10 C12 1.381 . S
C10 C13 1.487 . S
C11 C8 1.382 . S
C11 C12 1.387 . S
C11 H34 0.930 . S
C12 C10 1.381 . S
C12 C11 1.387 . S
C12 H35 0.931 . S
C13 C6 1.399 . S
C13 C10 1.487 . S
C13 N45 1.343 . S
C14 C15 1.384 . S
C14 C16 1.384 . S
C14 H36 0.931 . S
C15 C14 1.384 . S
C15 C18 1.382 . S
C16 C14 1.384 . S
C16 C17 1.381 . S
C16 H37 0.930 . S
C17 C16 1.381 . S
C17 C19 1.381 . S
C17 C20 1.487 . S
C18 C15 1.382 . S
C18 C19 1.387 . S
C18 H38 0.930 . S
C19 C17 1.381 . S
C19 C18 1.387 . S
C19 H39 0.931 . S
C20 C17 1.487 . S
C20 C27 1.399 . S
C20 N45 1.343 . S
C21 C22 1.384 . S
C21 C23 1.384 . S
C21 H40 0.931 . S
C22 C21 1.384 . S
C22 C25 1.382 . S
C23 C21 1.384 . S
C23 C24 1.381 . S
C23 H41 0.930 . S
C24 C23 1.381 . S
C24 C26 1.381 . S
C24 C27 1.487 . S
C25 C22 1.382 . S
C25 C26 1.387 . S
C25 H42 0.938 . S
C26 C24 1.381 . S
C26 C25 1.387 . S
C26 H43 0.931 . S
C27 C20 1.399 . S
C27 C24 1.487 . S
C27 N44 1.343 . S
H28 C0 0.931 . S
H29 C2 0.930 . S
H30 C4 0.930 . S
H31 C5 0.931 . S
H32 C7 0.931 . S
H33 C9 0.930 . S
H34 C11 0.930 . S
H35 C12 0.931 . S
H36 C14 0.931 . S
H37 C16 0.930 . S
H38 C18 0.930 . S
H39 C19 0.931 . S
H40 C21 0.931 . S
H41 C23 0.930 . S
H42 C25 0.938 . S
H43 C26 0.931 . S
N44 C6 1.343 . S
N44 C27 1.343 . S
N45 C13 1.343 . S
N45 C20 1.343 . S
C46 C47 1.384 . S
C46 C48 1.384 . S
C46 H74 0.931 . S
C47 C46 1.384 . S
C47 C50 1.382 . S
C48 C46 1.384 . S
C48 C49 1.381 . S
C48 H75 0.930 . S
C49 C48 1.381 . S
C49 C51 1.381 . S
C49 C52 1.487 . S
C50 C47 1.382 . S
C50 C51 1.387 . S
C50 H76 0.930 . S
C51 C49 1.381 . S
C51 C50 1.387 . S
C51 H77 0.931 . S
C52 C49 1.487 . S
C52 C59 1.399 . S
C52 N90 1.343 . S
C53 C54 1.384 . S
C53 C55 1.384 . S
C53 H78 0.931 . S
C54 C53 1.384 . S
C54 C57 1.382 . S
C55 C53 1.384 . S
C55 C56 1.381 . S
C55 H79 0.930 . S
C56 C55 1.381 . S
C56 C58 1.381 . S
C56 C59 1.487 . S
C57 C54 1.382 . S
C57 C58 1.387 . S
C57 H80 0.930 1_554 S
C58 C56 1.381 . S
C58 C57 1.387 . S
C58 H81 0.931 . S
C59 C52 1.399 . S
C59 C56 1.487 . S
C59 N91 1.343 . S
C60 C61 1.384 . S
C60 C62 1.384 . S
C60 H82 0.931 . S
C61 C60 1.384 . S
C61 C64 1.382 . S
C62 C60 1.384 . S
C62 C63 1.381 . S
C62 H83 0.930 . S
C63 C62 1.381 . S
C63 C65 1.381 . S
C63 C66 1.487 . S
C64 C61 1.382 . S
C64 C65 1.387 . S
C64 H84 0.930 1_554 S
C65 C63 1.381 . S
C65 C64 1.387 . S
C65 H85 0.931 . S
C66 C63 1.487 . S
C66 C73 1.399 . S
C66 N91 1.343 . S
C67 C68 1.384 . S
C67 C69 1.384 . S
C67 H86 0.931 . S
C68 C67 1.384 . S
C68 C71 1.382 . S
C69 C67 1.384 . S
C69 C70 1.381 . S
C69 H87 0.930 . S
C70 C69 1.381 . S
C70 C72 1.381 . S
C70 C73 1.487 . S
C71 C68 1.382 . S
C71 C72 1.387 . S
C71 H88 0.930 . S
C72 C70 1.381 . S
C72 C71 1.387 . S
C72 H89 0.931 . S
C73 C66 1.399 . S
C73 C70 1.487 . S
C73 N90 1.343 . S
H74 C46 0.931 . S
H75 C48 0.930 . S
H76 C50 0.930 . S
H77 C51 0.931 . S
H78 C53 0.931 . S
H79 C55 0.930 . S
H80 C57 0.930 1_556 S
H81 C58 0.931 . S
H82 C60 0.931 . S
H83 C62 0.930 . S
H84 C64 0.930 1_556 S
H85 C65 0.931 . S
H86 C67 0.931 . S
H87 C69 0.930 . S
H88 C71 0.930 . S
H89 C72 0.931 . S
N90 C52 1.343 . S
N90 C73 1.343 . S
N91 C59 1.343 . S
N91 C66 1.343 . S
C92 C93 1.384 . S
C92 C94 1.384 . S
C92 H120 0.931 . S
C93 C92 1.384 . S
C93 C96 1.382 . S
C94 C92 1.384 . S
C94 C95 1.381 . S
C94 H121 0.930 1_556 S
C95 C94 1.381 . S
C95 C97 1.381 . S
C95 C98 1.487 . S
C96 C93 1.382 . S
C96 C97 1.387 . S
C96 H122 0.930 . S
C97 C95 1.381 . S
C97 C96 1.387 . S
C97 H123 0.931 . S
C98 C95 1.487 . S
C98 C105 1.399 1_556 S
C98 N136 1.343 . S
C99 C100 1.384 . S
C99 C101 1.384 . S
C99 H124 0.931 . S
C100 C99 1.384 . S
C100 C103 1.382 . S
C101 C99 1.384 . S
C101 C102 1.381 . S
C101 H125 0.930 . S
C102 C101 1.381 . S
C102 C104 1.381 . S
C102 C105 1.487 . S
C103 C100 1.382 . S
C103 C104 1.387 . S
C103 H126 0.930 . S
C104 C102 1.381 . S
C104 C103 1.387 . S
C104 H127 0.931 . S
C105 C98 1.399 1_554 S
C105 C102 1.487 . S
C105 N137 1.343 . S
C106 C107 1.384 . S
C106 C108 1.384 . S
C106 H128 0.931 . S
C107 C106 1.384 . S
C107 C110 1.382 . S
C108 C106 1.384 . S
C108 C109 1.381 . S
C108 H129 0.930 . S
C109 C108 1.381 . S
C109 C111 1.381 . S
C109 C112 1.487 . S
C110 C107 1.382 . S
C110 C111 1.387 . S
C110 H130 0.930 . S
C111 C109 1.381 . S
C111 C110 1.387 . S
C111 H131 0.931 . S
C112 C109 1.487 . S
C112 C119 1.399 1_554 S
C112 N137 1.343 . S
C113 C114 1.384 . S
C113 C115 1.384 . S
C113 H132 0.931 . S
C114 C113 1.384 . S
C114 C117 1.382 . S
C115 C113 1.384 . S
C115 C116 1.381 . S
C115 H133 0.930 1_556 S
C116 C115 1.381 . S
C116 C118 1.381 . S
C116 C119 1.487 . S
C117 C114 1.382 . S
C117 C118 1.387 . S
C117 H134 0.930 . S
C118 C116 1.381 . S
C118 C117 1.387 . S
C118 H135 0.931 . S
C119 C112 1.399 1_556 S
C119 C116 1.487 . S
C119 N136 1.343 . S
H120 C92 0.931 . S
H121 C94 0.930 1_554 S
H122 C96 0.930 . S
H123 C97 0.931 . S
H124 C99 0.931 . S
H125 C101 0.930 . S
H126 C103 0.930 . S
H127 C104 0.931 . S
H128 C106 0.931 . S
H129 C108 0.930 . S
H130 C110 0.930 . S
H131 C111 0.931 . S
H132 C113 0.931 . S
H133 C115 0.930 1_554 S
H134 C117 0.930 . S
H135 C118 0.931 . S
N136 C98 1.343 . S
N136 C119 1.343 . S
N137 C105 1.343 . S
N137 C112 1.343 . S
C138 C139 1.384 . S
C138 C140 1.384 1_556 S
C138 H166 0.931 . S
C139 C138 1.384 . S
C139 C142 1.382 . S
C140 C138 1.384 1_554 S
C140 C141 1.381 . S
C140 H167 0.930 . S
C141 C140 1.381 . S
C141 C143 1.381 1_554 S
C141 C144 1.487 . S
C142 C139 1.382 . S
C142 C143 1.387 . S
C142 H168 0.930 . S
C143 C141 1.381 1_556 S
C143 C142 1.387 . S
C143 H169 0.931 . S
C144 C141 1.487 . S
C144 C151 1.399 . S
C144 N182 1.343 . S
C145 C146 1.384 . S
C145 C147 1.384 . S
C145 H170 0.931 . S
C146 C145 1.384 . S
C146 C149 1.382 . S
C147 C145 1.384 . S
C147 C148 1.381 . S
C147 H171 0.930 . S
C148 C147 1.381 . S
C148 C150 1.381 . S
C148 C151 1.487 . S
C149 C146 1.382 . S
C149 C150 1.387 . S
C149 H172 0.930 . S
C150 C148 1.381 . S
C150 C149 1.387 . S
C150 H173 0.931 . S
C151 C144 1.399 . S
C151 C148 1.487 . S
C151 N183 1.343 . S
C152 C153 1.384 . S
C152 C154 1.384 . S
C152 H174 0.931 . S
C153 C152 1.384 . S
C153 C156 1.382 . S
C154 C152 1.384 . S
C154 C155 1.381 . S
C154 H175 0.930 . S
C155 C154 1.381 . S
C155 C157 1.381 . S
C155 C158 1.487 . S
C156 C153 1.382 . S
C156 C157 1.387 . S
C156 H176 0.930 . S
C157 C155 1.381 . S
C157 C156 1.387 . S
C157 H177 0.931 . S
C158 C155 1.487 . S
C158 C165 1.399 . S
C158 N183 1.343 . S
C159 C160 1.384 . S
C159 C161 1.384 1_556 S
C159 H178 0.931 . S
C160 C159 1.384 . S
C160 C163 1.382 . S
C161 C159 1.384 1_554 S
C161 C162 1.381 . S
C161 H179 0.930 . S
C162 C161 1.381 . S
C162 C164 1.381 1_554 S
C162 C165 1.487 . S
C163 C160 1.382 . S
C163 C164 1.387 . S
C163 H180 0.930 . S
C164 C162 1.381 1_556 S
C164 C163 1.387 . S
C164 H181 0.931 . S
C165 C158 1.399 . S
C165 C162 1.487 . S
C165 N182 1.343 . S
H166 C138 0.931 . S
H167 C140 0.930 . S
H168 C142 0.930 . S
H169 C143 0.931 . S
H170 C145 0.931 . S
H171 C147 0.930 . S
H172 C149 0.930 . S
H173 C150 0.931 . S
H174 C152 0.931 . S
H175 C154 0.930 . S
H176 C156 0.930 . S
H177 C157 0.931 . S
H178 C159 0.931 . S
H179 C161 0.930 . S
H180 C163 0.930 . S
H181 C164 0.931 . S
N182 C144 1.343 . S
N182 C165 1.343 . S
N183 C151 1.343 . S
N183 C158 1.343 . S
C184 C185 1.384 1_554 S
C184 C186 1.384 . S
C184 H212 0.931 . S
C185 C184 1.384 1_556 S
C185 C188 1.382 . S
C186 C184 1.384 . S
C186 C187 1.381 . S
C186 H213 0.930 . S
C187 C186 1.381 . S
C187 C189 1.381 1_554 S
C187 C190 1.487 . S
C188 C185 1.382 . S
C188 C189 1.387 . S
C188 H214 0.930 . S
C189 C187 1.381 1_556 S
C189 C188 1.387 . S
C189 H215 0.931 . S
C190 C187 1.487 . S
C190 C197 1.399 . S
C190 N228 1.343 . S
C191 C192 1.384 . S
C191 C193 1.384 . S
C191 H216 0.931 . S
C192 C191 1.384 . S
C192 C195 1.382 . S
C193 C191 1.384 . S
C193 C194 1.381 . S
C193 H217 0.930 . S
C194 C193 1.381 . S
C194 C196 1.381 . S
C194 C197 1.487 . S
C195 C192 1.382 . S
C195 C196 1.387 . S
C195 H218 0.930 . S
C196 C194 1.381 . S
C196 C195 1.387 . S
C196 H219 0.931 . S
C197 C190 1.399 . S
C197 C194 1.487 . S
C197 N229 1.343 . S
C198 C199 1.384 . S
C198 C200 1.384 . S
C198 H220 0.931 . S
C199 C198 1.384 . S
C199 C202 1.382 . S
C200 C198 1.384 . S
C200 C201 1.381 . S
C200 H221 0.930 . S
C201 C200 1.381 . S
C201 C203 1.381 . S
C201 C204 1.487 . S
C202 C199 1.382 . S
C202 C203 1.387 . S
C202 H222 0.930 . S
C203 C201 1.381 . S
C203 C202 1.387 . S
C203 H223 0.931 . S
C204 C201 1.487 . S
C204 C211 1.399 . S
C204 N229 1.343 . S
C205 C206 1.384 1_554 S
C205 C207 1.384 . S
C205 H224 0.931 . S
C206 C205 1.384 1_556 S
C206 C209 1.382 . S
C207 C205 1.384 . S
C207 C208 1.381 . S
C207 H225 0.930 . S
C208 C207 1.381 . S
C208 C210 1.381 1_554 S
C208 C211 1.487 . S
C209 C206 1.382 . S
C209 C210 1.387 . S
C209 H226 0.930 . S
C210 C208 1.381 1_556 S
C210 C209 1.387 . S
C210 H227 0.931 . S
C211 C204 1.399 . S
C211 C208 1.487 . S
C211 N228 1.343 . S
H212 C184 0.931 . S
H213 C186 0.930 . S
H214 C188 0.930 . S
H215 C189 0.931 . S
H216 C191 0.931 . S
H217 C193 0.930 . S
H218 C195 0.930 . S
H219 C196 0.931 . S
H220 C198 0.931 . S
H221 C200 0.930 . S
H222 C202 0.930 . S
H223 C203 0.931 . S
H224 C205 0.931 . S
H225 C207 0.930 . S
H226 C209 0.930 . S
H227 C210 0.931 . S
N228 C190 1.343 . S
N228 C211 1.343 . S
N229 C197 1.343 . S
N229 C204 1.343 . S
C230 C231 1.384 . S
C230 C232 1.384 . S
C230 H258 0.931 . S
C231 C230 1.384 . S
C231 C234 1.382 . S
C232 C230 1.384 . S
C232 C233 1.381 . S
C232 H259 0.930 . S
C233 C232 1.381 . S
C233 C235 1.381 . S
C233 C236 1.487 . S
C234 C231 1.382 . S
C234 C235 1.387 . S
C234 H260 0.930 . S
C235 C233 1.381 . S
C235 C234 1.387 . S
C235 H261 0.931 . S
C236 C233 1.487 . S
C236 C243 1.399 . S
C236 N274 1.343 . S
C237 C238 1.384 . S
C237 C239 1.384 . S
C237 H262 0.931 . S
C238 C237 1.384 . S
C238 C241 1.382 . S
C239 C237 1.384 . S
C239 C240 1.381 . S
C239 H263 0.930 . S
C240 C239 1.381 . S
C240 C242 1.381 . S
C240 C243 1.487 . S
C241 C238 1.382 . S
C241 C242 1.387 . S
C241 H264 0.930 . S
C242 C240 1.381 . S
C242 C241 1.387 . S
C242 H265 0.931 . S
C243 C236 1.399 . S
C243 C240 1.487 . S
C243 N275 1.343 . S
C244 C245 1.384 . S
C244 C246 1.384 . S
C244 H266 0.931 . S
C245 C244 1.384 . S
C245 C248 1.382 . S
C246 C244 1.384 . S
C246 C247 1.381 . S
C246 H267 0.930 . S
C247 C246 1.381 . S
C247 C249 1.381 . S
C247 C250 1.487 . S
C248 C245 1.382 . S
C248 C249 1.387 . S
C248 H268 0.930 . S
C249 C247 1.381 . S
C249 C248 1.387 . S
C249 H269 0.931 . S
C250 C247 1.487 . S
C250 C257 1.399 . S
C250 N275 1.343 . S
C251 C252 1.384 . S
C251 C253 1.384 . S
C251 H270 0.931 . S
C252 C251 1.384 . S
C252 C255 1.382 . S
C253 C251 1.384 . S
C253 C254 1.381 . S
C253 H271 0.930 . S
C254 C253 1.381 . S
C254 C256 1.381 . S
C254 C257 1.487 . S
C255 C252 1.382 . S
C255 C256 1.387 . S
C255 H272 0.930 . S
C256 C254 1.381 . S
C256 C255 1.387 . S
C256 H273 0.931 . S
C257 C250 1.399 . S
C257 C254 1.487 . S
C257 N274 1.343 . S
H258 C230 0.931 . S
H259 C232 0.930 . S
H260 C234 0.930 . S
H261 C235 0.931 . S
H262 C237 0.931 . S
H263 C239 0.930 . S
H264 C241 0.930 . S
H265 C242 0.931 . S
H266 C244 0.931 . S
H267 C246 0.930 . S
H268 C248 0.930 . S
H269 C249 0.931 . S
H270 C251 0.931 . S
H271 C253 0.930 . S
H272 C255 0.930 . S
H273 C256 0.931 . S
N274 C236 1.343 . S
N274 C257 1.343 . S
N275 C243 1.343 . S
N275 C250 1.343 . S
C276 O288 1.241 . S
C276 O289 1.280 . S
C277 O290 1.277 . S
C277 O291 1.245 . S
C278 O302 1.247 . S
C278 O304 1.289 . S
Mg279 O280 1.951 1_655 S
Mg279 O289 1.984 . S
Mg279 O291 1.988 1_655 S
Mg279 O292 2.061 . S
O280 Mg279 1.951 1_455 S
O280 Mg281 1.984 . S
O280 Mg282 1.913 . S
Mg281 O280 1.984 . S
Mg281 O288 2.042 1_455 S
Mg281 O290 2.041 . S
Mg281 O296 2.038 1_455 S
Mg281 O304 2.238 . S
Mg282 O280 1.913 . S
Mg282 O283 1.917 . S
Mg282 O293 2.106 1_455 S
Mg282 O295 2.079 1_455 S
Mg282 O304 2.106 . S
Mg282 O305 2.079 . S
O283 Mg282 1.917 . S
O283 Mg284 1.926 . S
O283 Mg285 1.986 . S
Mg284 O283 1.926 . S
Mg284 O298 1.984 . S
Mg284 O301 1.988 1_455 S
Mg284 O302 2.061 . S
Mg285 O283 1.986 . S
Mg285 O293 2.238 1_455 S
Mg285 O297 2.042 . S
Mg285 O299 2.041 1_455 S
Mg285 O306 2.038 . S
C286 O292 1.247 . S
C286 O293 1.289 . S
C287 O305 1.245 . S
C287 O306 1.274 . S
O288 C276 1.241 . S
O288 Mg281 2.042 1_655 S
O289 C276 1.280 . S
O289 Mg279 1.984 . S
O290 C277 1.277 . S
O290 Mg281 2.041 . S
O291 C277 1.245 . S
O291 Mg279 1.988 1_455 S
O292 Mg279 2.061 . S
O292 C286 1.247 . S
O293 Mg282 2.106 1_655 S
O293 Mg285 2.238 1_655 S
O293 C286 1.289 . S
C294 O295 1.245 . S
C294 O296 1.274 . S
O295 Mg282 2.079 1_655 S
O295 C294 1.245 . S
O296 Mg281 2.038 1_655 S
O296 C294 1.274 . S
O297 Mg285 2.042 . S
O297 C300 1.241 . S
O298 Mg284 1.984 . S
O298 C300 1.280 . S
O299 Mg285 2.041 1_655 S
O299 C303 1.277 . S
C300 O297 1.241 . S
C300 O298 1.280 . S
O301 Mg284 1.988 1_655 S
O301 C303 1.245 . S
O302 C278 1.247 . S
O302 Mg284 2.061 . S
C303 O299 1.277 . S
C303 O301 1.245 . S
O304 C278 1.289 . S
O304 Mg281 2.238 . S
O304 Mg282 2.106 . S
O305 Mg282 2.079 . S
O305 C287 1.245 . S
O306 Mg285 2.038 . S
O306 C287 1.274 . S
C307 O319 1.241 . S
C307 O320 1.280 . S
C308 O321 1.277 . S
C308 O322 1.245 . S
C309 O333 1.247 . S
C309 O335 1.289 . S
Mg310 O311 1.926 . S
Mg310 O320 1.984 . S
Mg310 O322 1.988 1_545 S
Mg310 O323 2.061 . S
O311 Mg310 1.926 . S
O311 Mg312 1.986 . S
O311 Mg313 1.917 . S
Mg312 O311 1.986 . S
Mg312 O319 2.042 . S
Mg312 O321 2.041 1_545 S
Mg312 O327 2.038 . S
Mg312 O335 2.238 1_545 S
Mg313 O311 1.917 . S
Mg313 O314 1.917 . S
Mg313 O324 2.106 . S
Mg313 O326 2.079 . S
Mg313 O335 2.106 1_545 S
Mg313 O336 2.079 1_545 S
O314 Mg313 1.917 . S
O314 Mg315 1.926 1_545 S
O314 Mg316 1.987 . S
Mg315 O314 1.926 1_565 S
Mg315 O329 1.984 . S
Mg315 O332 1.988 1_565 S
Mg315 O333 2.061 . S
Mg316 O314 1.987 . S
Mg316 O324 2.238 . S
Mg316 O328 2.042 1_545 S
Mg316 O330 2.041 . S
Mg316 O337 2.038 1_545 S
C317 O323 1.247 . S
C317 O324 1.289 . S
C318 O336 1.245 . S
C318 O337 1.274 . S
O319 C307 1.241 . S
O319 Mg312 2.042 . S
O320 C307 1.280 . S
O320 Mg310 1.984 . S
O321 C308 1.277 . S
O321 Mg312 2.041 1_565 S
O322 C308 1.245 . S
O322 Mg310 1.988 1_565 S
O323 Mg310 2.061 . S
O323 C317 1.247 . S
O324 Mg313 2.106 . S
O324 Mg316 2.238 . S
O324 C317 1.289 . S
C325 O326 1.245 . S
C325 O327 1.274 . S
O326 Mg313 2.079 . S
O326 C325 1.245 . S
O327 Mg312 2.038 . S
O327 C325 1.274 . S
O328 Mg316 2.042 1_565 S
O328 C331 1.241 . S
O329 Mg315 1.984 . S
O329 C331 1.280 . S
O330 Mg316 2.041 . S
O330 C334 1.277 . S
C331 O328 1.241 . S
C331 O329 1.280 . S
O332 Mg315 1.988 1_545 S
O332 C334 1.245 . S
O333 C309 1.247 . S
O333 Mg315 2.061 . S
C334 O330 1.277 . S
C334 O332 1.245 . S
O335 C309 1.289 . S
O335 Mg312 2.238 1_565 S
O335 Mg313 2.106 1_565 S
O336 Mg313 2.079 1_565 S
O336 C318 1.245 . S
O337 Mg316 2.038 1_565 S
O337 C318 1.274 . S
C338 O350 1.241 . S
C338 O351 1.280 . S
C339 O352 1.277 . S
C339 O353 1.245 . S
C340 O364 1.247 . S
C340 O366 1.289 . S
Mg341 O342 1.926 . S
Mg341 O351 1.984 . S
Mg341 O353 1.988 . S
Mg341 O354 2.061 . S
O342 Mg341 1.926 . S
O342 Mg343 1.986 . S
O342 Mg344 1.917 . S
Mg343 O342 1.986 . S
Mg343 O350 2.042 . S
Mg343 O352 2.041 . S
Mg343 O358 2.038 . S
Mg343 O366 2.238 . S
Mg344 O342 1.917 . S
Mg344 O345 1.917 . S
Mg344 O355 2.106 . S
Mg344 O357 2.079 . S
Mg344 O366 2.106 . S
Mg344 O367 2.079 . S
O345 Mg344 1.917 . S
O345 Mg346 1.926 . S
O345 Mg347 1.986 . S
Mg346 O345 1.926 . S
Mg346 O360 1.984 . S
Mg346 O363 1.988 . S
Mg346 O364 2.061 . S
Mg347 O345 1.986 . S
Mg347 O355 2.238 . S
Mg347 O359 2.042 . S
Mg347 O361 2.041 . S
Mg347 O368 2.038 . S
C348 O354 1.247 . S
C348 O355 1.289 . S
C349 O367 1.245 . S
C349 O368 1.274 . S
O350 C338 1.241 . S
O350 Mg343 2.042 . S
O351 C338 1.280 . S
O351 Mg341 1.984 . S
O352 C339 1.277 . S
O352 Mg343 2.041 . S
O353 C339 1.245 . S
O353 Mg341 1.988 . S
O354 Mg341 2.061 . S
O354 C348 1.247 . S
O355 Mg344 2.106 . S
O355 Mg347 2.238 . S
O355 C348 1.289 . S
C356 O357 1.245 . S
C356 O358 1.274 . S
O357 Mg344 2.079 . S
O357 C356 1.245 . S
O358 Mg343 2.038 . S
O358 C356 1.274 . S
O359 Mg347 2.042 . S
O359 C362 1.241 . S
O360 Mg346 1.984 . S
O360 C362 1.280 . S
O361 Mg347 2.041 . S
O361 C365 1.277 . S
C362 O359 1.241 . S
C362 O360 1.280 . S
O363 Mg346 1.988 . S
O363 C365 1.245 . S
O364 C340 1.247 . S
O364 Mg346 2.061 . S
C365 O361 1.277 . S
C365 O363 1.245 . S
O366 C340 1.289 . S
O366 Mg343 2.238 . S
O366 Mg344 2.106 . S
O367 Mg344 2.079 . S
O367 C349 1.245 . S
O368 Mg347 2.038 . S
O368 C349 1.274 . S
H369 C377 0.929 . S
H370 C379 0.930 . S
H371 C381 0.930 . S
H372 C384 0.929 . S
H373 C387 0.930 . S
H374 C389 0.960 . S
H375 C389 0.960 . S
H376 C389 0.960 . S
C377 H369 0.929 . S
C377 C378 1.377 . S
C377 C379 1.384 . S
C378 C377 1.377 . S
C378 C384 1.390 . S
C379 H370 0.930 . S
C379 C377 1.384 . S
C379 C380 1.372 . S
C380 C379 1.372 . S
C380 C381 1.400 . S
C380 C385 1.490 . S
C381 H371 0.930 . S
C381 C380 1.400 . S
C381 C384 1.386 . S
H382 C398 0.930 . S
H383 C399 0.931 . S
C384 H372 0.929 . S
C384 C378 1.390 . S
C384 C381 1.386 . S
C385 C380 1.490 . S
C385 C387 1.395 . S
C385 C388 1.403 . S
H386 C392 0.930 . S
C387 H373 0.930 . S
C387 C385 1.395 . S
C387 C390 1.403 . S
C388 C385 1.403 . S
C388 C389 1.524 . S
C388 C392 1.400 . S
C389 H374 0.960 . S
C389 H375 0.960 . S
C389 H376 0.960 . S
C389 C388 1.524 . S
C390 C387 1.403 . S
C390 C391 1.392 . S
C390 C394 1.495 . S
C391 C390 1.392 . S
C391 C392 1.385 . S
C391 C393 1.478 . S
C392 H386 0.930 . S
C392 C388 1.400 . S
C392 C391 1.385 . S
C393 C391 1.478 . S
C393 C395 1.381 . S
C393 C399 1.383 . S
C394 C390 1.495 . S
C394 H400 0.959 . S
C394 H401 0.961 . S
C394 H402 0.960 . S
C395 C393 1.381 . S
C395 C396 1.394 . S
C395 H403 0.930 . S
C396 C395 1.394 . S
C396 C397 1.383 . S
C396 H404 0.929 . S
C397 C396 1.383 . S
C397 C398 1.377 . S
C398 H382 0.930 . S
C398 C397 1.377 . S
C398 C399 1.379 . S
C399 H383 0.931 . S
C399 C393 1.383 . S
C399 C398 1.379 . S
H400 C394 0.959 . S
H401 C394 0.961 . S
H402 C394 0.960 . S
H403 C395 0.930 . S
H404 C396 0.929 . S
H405 C413 0.929 . S
H406 C415 0.930 . S
H407 C417 0.930 . S
H408 C420 0.929 . S
H409 C423 0.930 . S
H410 C425 0.960 . S
H411 C425 0.960 . S
H412 C425 0.960 . S
C413 H405 0.929 . S
C413 C414 1.377 . S
C413 C415 1.384 . S
C414 C413 1.377 . S
C414 C420 1.390 . S
C415 H406 0.930 . S
C415 C413 1.384 . S
C415 C416 1.372 . S
C416 C415 1.372 . S
C416 C417 1.400 . S
C416 C421 1.490 . S
C417 H407 0.930 . S
C417 C416 1.400 . S
C417 C420 1.386 . S
H418 C434 0.930 . S
H419 C435 0.931 . S
C420 H408 0.929 . S
C420 C414 1.390 . S
C420 C417 1.386 . S
C421 C416 1.490 . S
C421 C423 1.395 . S
C421 C424 1.403 . S
H422 C428 0.930 . S
C423 H409 0.930 . S
C423 C421 1.395 . S
C423 C426 1.403 . S
C424 C421 1.403 . S
C424 C425 1.524 . S
C424 C428 1.400 . S
C425 H410 0.960 . S
C425 H411 0.960 . S
C425 H412 0.960 . S
C425 C424 1.524 . S
C426 C423 1.403 . S
C426 C427 1.392 . S
C426 C430 1.495 . S
C427 C426 1.392 . S
C427 C428 1.385 . S
C427 C429 1.478 . S
C428 H422 0.930 . S
C428 C424 1.400 . S
C428 C427 1.385 . S
C429 C427 1.478 . S
C429 C431 1.381 . S
C429 C435 1.383 . S
C430 C426 1.495 . S
C430 H436 0.959 . S
C430 H437 0.961 . S
C430 H438 0.960 . S
C431 C429 1.381 . S
C431 C432 1.394 . S
C431 H439 0.930 . S
C432 C431 1.394 . S
C432 C433 1.383 . S
C432 H440 0.929 . S
C433 C432 1.383 . S
C433 C434 1.377 . S
C434 H418 0.930 . S
C434 C433 1.377 . S
C434 C435 1.379 . S
C435 H419 0.931 . S
C435 C429 1.383 . S
C435 C434 1.379 . S
H436 C430 0.959 . S
H437 C430 0.961 . S
H438 C430 0.960 . S
H439 C431 0.930 . S
H440 C432 0.929 . S
H441 C449 0.929 . S
H442 C451 0.930 . S
H443 C453 0.930 . S
H444 C456 0.929 . S
H445 C459 0.930 . S
H446 C461 0.960 . S
H447 C461 0.960 . S
H448 C461 0.960 . S
C449 H441 0.929 . S
C449 C450 1.377 . S
C449 C451 1.384 . S
C450 C449 1.377 . S
C450 C456 1.390 . S
C451 H442 0.930 . S
C451 C449 1.384 . S
C451 C452 1.372 . S
C452 C451 1.372 . S
C452 C453 1.400 . S
C452 C457 1.490 . S
C453 H443 0.930 . S
C453 C452 1.400 . S
C453 C456 1.386 . S
H454 C470 0.930 . S
H455 C471 0.931 . S
C456 H444 0.929 . S
C456 C450 1.390 . S
C456 C453 1.386 . S
C457 C452 1.490 . S
C457 C459 1.395 . S
C457 C460 1.403 . S
H458 C464 0.930 . S
C459 H445 0.930 . S
C459 C457 1.395 . S
C459 C462 1.403 . S
C460 C457 1.403 . S
C460 C461 1.524 . S
C460 C464 1.400 . S
C461 H446 0.960 . S
C461 H447 0.960 . S
C461 H448 0.960 . S
C461 C460 1.524 . S
C462 C459 1.403 . S
C462 C463 1.392 . S
C462 C466 1.495 . S
C463 C462 1.392 . S
C463 C464 1.385 . S
C463 C465 1.478 . S
C464 H458 0.930 . S
C464 C460 1.400 . S
C464 C463 1.385 . S
C465 C463 1.478 . S
C465 C467 1.381 . S
C465 C471 1.383 . S
C466 C462 1.495 . S
C466 H472 0.959 . S
C466 H473 0.961 . S
C466 H474 0.960 . S
C467 C465 1.381 . S
C467 C468 1.394 . S
C467 H475 0.930 . S
C468 C467 1.394 . S
C468 C469 1.383 . S
C468 H476 0.929 . S
C469 C468 1.383 . S
C469 C470 1.377 . S
C470 H454 0.930 . S
C470 C469 1.377 . S
C470 C471 1.379 . S
C471 H455 0.931 . S
C471 C465 1.383 . S
C471 C470 1.379 . S
H472 C466 0.959 . S
H473 C466 0.961 . S
H474 C466 0.960 . S
H475 C467 0.930 . S
H476 C468 0.929 . S
H477 C485 0.929 . S
H478 C487 0.930 . S
H479 C489 0.930 . S
H480 C492 0.929 . S
H481 C495 0.930 . S
H482 C497 0.960 . S
H483 C497 0.960 . S
H484 C497 0.960 . S
C485 H477 0.929 . S
C485 C486 1.377 . S
C485 C487 1.384 . S
C486 C485 1.377 . S
C486 C492 1.390 . S
C487 H478 0.930 . S
C487 C485 1.384 . S
C487 C488 1.372 . S
C488 C487 1.372 . S
C488 C489 1.400 . S
C488 C493 1.490 . S
C489 H479 0.930 . S
C489 C488 1.400 . S
C489 C492 1.386 . S
H490 C506 0.930 . S
H491 C507 0.931 . S
C492 H480 0.929 . S
C492 C486 1.390 . S
C492 C489 1.386 . S
C493 C488 1.490 . S
C493 C495 1.395 . S
C493 C496 1.403 . S
H494 C500 0.930 . S
C495 H481 0.930 . S
C495 C493 1.395 . S
C495 C498 1.403 . S
C496 C493 1.403 . S
C496 C497 1.524 . S
C496 C500 1.400 . S
C497 H482 0.960 . S
C497 H483 0.960 . S
C497 H484 0.960 . S
C497 C496 1.524 . S
C498 C495 1.403 . S
C498 C499 1.392 . S
C498 C502 1.495 . S
C499 C498 1.392 . S
C499 C500 1.385 . S
C499 C501 1.478 . S
C500 H494 0.930 . S
C500 C496 1.400 . S
C500 C499 1.385 . S
C501 C499 1.478 . S
C501 C503 1.381 . S
C501 C507 1.383 . S
C502 C498 1.495 . S
C502 H508 0.959 . S
C502 H509 0.961 . S
C502 H510 0.960 . S
C503 C501 1.381 . S
C503 C504 1.394 . S
C503 H511 0.930 . S
C504 C503 1.394 . S
C504 C505 1.383 . S
C504 H512 0.929 . S
C505 C504 1.383 . S
C505 C506 1.377 . S
C506 H490 0.930 . S
C506 C505 1.377 . S
C506 C507 1.379 . S
C507 H491 0.931 . S
C507 C501 1.383 . S
C507 C506 1.379 . S
H508 C502 0.959 . S
H509 C502 0.961 . S
H510 C502 0.960 . S
H511 C503 0.930 . S
H512 C504 0.929 . S
H513 C521 0.929 . S
H514 C523 0.930 . S
H515 C525 0.930 . S
H516 C528 0.929 . S
H517 C531 0.930 . S
H518 C533 0.960 . S
H519 C533 0.960 . S
H520 C533 0.960 . S
C521 H513 0.929 . S
C521 C522 1.377 . S
C521 C523 1.384 . S
C522 C521 1.377 . S
C522 C528 1.390 . S
C523 H514 0.930 . S
C523 C521 1.384 . S
C523 C524 1.372 . S
C524 C523 1.372 . S
C524 C525 1.400 . S
C524 C529 1.490 . S
C525 H515 0.930 . S
C525 C524 1.400 . S
C525 C528 1.386 . S
H526 C542 0.930 . S
H527 C543 0.931 . S
C528 H516 0.929 . S
C528 C522 1.390 . S
C528 C525 1.386 . S
C529 C524 1.490 . S
C529 C531 1.395 . S
C529 C532 1.403 . S
H530 C536 0.930 . S
C531 H517 0.930 . S
C531 C529 1.395 . S
C531 C534 1.403 . S
C532 C529 1.403 . S
C532 C533 1.524 . S
C532 C536 1.400 . S
C533 H518 0.960 . S
C533 H519 0.960 . S
C533 H520 0.960 . S
C533 C532 1.524 . S
C534 C531 1.403 . S
C534 C535 1.392 . S
C534 C538 1.495 . S
C535 C534 1.392 . S
C535 C536 1.385 . S
C535 C537 1.478 . S
C536 H530 0.930 . S
C536 C532 1.400 . S
C536 C535 1.385 . S
C537 C535 1.478 . S
C537 C539 1.381 . S
C537 C543 1.383 . S
C538 C534 1.495 . S
C538 H544 0.959 . S
C538 H545 0.961 . S
C538 H546 0.960 . S
C539 C537 1.381 . S
C539 C540 1.394 . S
C539 H547 0.930 . S
C540 C539 1.394 . S
C540 C541 1.383 . S
C540 H548 0.929 . S
C541 C540 1.383 . S
C541 C542 1.377 . S
C542 H526 0.930 . S
C542 C541 1.377 . S
C542 C543 1.379 . S
C543 H527 0.931 . S
C543 C537 1.383 . S
C543 C542 1.379 . S
H544 C538 0.959 . S
H545 C538 0.961 . S
H546 C538 0.960 . S
H547 C539 0.930 . S
H548 C540 0.929 . S
H549 C557 0.929 . S
H550 C559 0.930 . S
H551 C561 0.930 . S
H552 C564 0.929 . S
H553 C567 0.930 . S
H554 C569 0.960 . S
H555 C569 0.960 . S
H556 C569 0.960 . S
C557 H549 0.929 . S
C557 C558 1.377 . S
C557 C559 1.384 . S
C558 C557 1.377 . S
C558 C564 1.390 . S
C559 H550 0.930 . S
C559 C557 1.384 . S
C559 C560 1.372 . S
C560 C559 1.372 . S
C560 C561 1.400 . S
C560 C565 1.490 . S
C561 H551 0.930 . S
C561 C560 1.400 . S
C561 C564 1.386 . S
H562 C578 0.930 . S
H563 C579 0.931 . S
C564 H552 0.929 . S
C564 C558 1.390 . S
C564 C561 1.386 . S
C565 C560 1.490 . S
C565 C567 1.395 . S
C565 C568 1.403 . S
H566 C572 0.930 . S
C567 H553 0.930 . S
C567 C565 1.395 . S
C567 C570 1.403 . S
C568 C565 1.403 . S
C568 C569 1.524 . S
C568 C572 1.400 . S
C569 H554 0.960 . S
C569 H555 0.960 . S
C569 H556 0.960 . S
C569 C568 1.524 . S
C570 C567 1.403 . S
C570 C571 1.392 . S
C570 C574 1.495 . S
C571 C570 1.392 . S
C571 C572 1.385 . S
C571 C573 1.478 . S
C572 H566 0.930 . S
C572 C568 1.400 . S
C572 C571 1.385 . S
C573 C571 1.478 . S
C573 C575 1.381 . S
C573 C579 1.383 . S
C574 C570 1.495 . S
C574 H580 0.959 . S
C574 H581 0.961 . S
C574 H582 0.960 . S
C575 C573 1.381 . S
C575 C576 1.394 . S
C575 H583 0.930 . S
C576 C575 1.394 . S
C576 C577 1.383 . S
C576 H584 0.929 . S
C577 C576 1.383 . S
C577 C578 1.377 . S
C578 H562 0.930 . S
C578 C577 1.377 . S
C578 C579 1.379 . S
C579 H563 0.931 . S
C579 C573 1.383 . S
C579 C578 1.379 . S
H580 C574 0.959 . S
H581 C574 0.961 . S
H582 C574 0.960 . S
H583 C575 0.930 . S
H584 C576 0.929 . S
H585 C593 0.929 . S
H586 C595 0.930 . S
H587 C597 0.930 . S
H588 C600 0.929 . S
H589 C603 0.930 . S
H590 C605 0.960 . S
H591 C605 0.960 . S
H592 C605 0.960 . S
C593 H585 0.929 . S
C593 C594 1.377 . S
C593 C595 1.384 . S
C594 C593 1.377 . S
C594 C600 1.390 . S
C595 H586 0.930 . S
C595 C593 1.384 . S
C595 C596 1.372 . S
C596 C595 1.372 . S
C596 C597 1.400 . S
C596 C601 1.490 . S
C597 H587 0.930 . S
C597 C596 1.400 . S
C597 C600 1.386 . S
H598 C614 0.930 . S
H599 C615 0.931 . S
C600 H588 0.929 . S
C600 C594 1.390 . S
C600 C597 1.386 . S
C601 C596 1.490 . S
C601 C603 1.395 . S
C601 C604 1.403 . S
H602 C608 0.930 . S
C603 H589 0.930 . S
C603 C601 1.395 . S
C603 C606 1.403 . S
C604 C601 1.403 . S
C604 C605 1.524 . S
C604 C608 1.400 . S
C605 H590 0.960 . S
C605 H591 0.960 . S
C605 H592 0.960 . S
C605 C604 1.524 . S
C606 C603 1.403 . S
C606 C607 1.392 . S
C606 C610 1.495 . S
C607 C606 1.392 . S
C607 C608 1.385 . S
C607 C609 1.478 . S
C608 H602 0.930 . S
C608 C604 1.400 . S
C608 C607 1.385 . S
C609 C607 1.478 . S
C609 C611 1.381 . S
C609 C615 1.383 . S
C610 C606 1.495 . S
C610 H616 0.959 . S
C610 H617 0.961 . S
C610 H618 0.960 . S
C611 C609 1.381 . S
C611 C612 1.394 . S
C611 H619 0.930 . S
C612 C611 1.394 . S
C612 C613 1.383 . S
C612 H620 0.929 . S
C613 C612 1.383 . S
C613 C614 1.377 . S
C614 H598 0.930 . S
C614 C613 1.377 . S
C614 C615 1.379 . S
C615 H599 0.931 . S
C615 C609 1.383 . S
C615 C614 1.379 . S
H616 C610 0.959 . S
H617 C610 0.961 . S
H618 C610 0.960 . S
H619 C611 0.930 . S
H620 C612 0.929 . S
H621 C629 0.929 . S
H622 C631 0.930 . S
H623 C633 0.930 . S
H624 C636 0.929 . S
H625 C639 0.930 . S
H626 C641 0.960 . S
H627 C641 0.960 . S
H628 C641 0.960 . S
C629 H621 0.929 . S
C629 C630 1.377 . S
C629 C631 1.384 . S
C630 C629 1.377 . S
C630 C636 1.390 . S
C631 H622 0.930 . S
C631 C629 1.384 . S
C631 C632 1.372 . S
C632 C631 1.372 . S
C632 C633 1.400 . S
C632 C637 1.490 . S
C633 H623 0.930 . S
C633 C632 1.400 . S
C633 C636 1.386 . S
H634 C650 0.930 . S
H635 C651 0.931 . S
C636 H624 0.929 . S
C636 C630 1.390 . S
C636 C633 1.386 . S
C637 C632 1.490 . S
C637 C639 1.395 . S
C637 C640 1.403 . S
H638 C644 0.930 . S
C639 H625 0.930 . S
C639 C637 1.395 . S
C639 C642 1.403 . S
C640 C637 1.403 . S
C640 C641 1.524 . S
C640 C644 1.400 . S
C641 H626 0.960 . S
C641 H627 0.960 . S
C641 H628 0.960 . S
C641 C640 1.524 . S
C642 C639 1.403 . S
C642 C643 1.392 . S
C642 C646 1.495 . S
C643 C642 1.392 . S
C643 C644 1.385 . S
C643 C645 1.478 . S
C644 H638 0.930 . S
C644 C640 1.400 . S
C644 C643 1.385 . S
C645 C643 1.478 . S
C645 C647 1.381 . S
C645 C651 1.383 . S
C646 C642 1.495 . S
C646 H652 0.959 . S
C646 H653 0.961 . S
C646 H654 0.960 . S
C647 C645 1.381 . S
C647 C648 1.394 . S
C647 H655 0.930 . S
C648 C647 1.394 . S
C648 C649 1.383 . S
C648 H656 0.929 . S
C649 C648 1.383 . S
C649 C650 1.377 . S
C650 H634 0.930 . S
C650 C649 1.377 . S
C650 C651 1.379 . S
C651 H635 0.931 . S
C651 C645 1.383 . S
C651 C650 1.379 . S
H652 C646 0.959 . S
H653 C646 0.961 . S
H654 C646 0.960 . S
H655 C647 0.930 . S
H656 C648 0.929 . S
H657 C665 0.929 . S
H658 C667 0.930 . S
H659 C669 0.930 . S
H660 C672 0.929 . S
H661 C675 0.930 . S
H662 C677 0.960 . S
H663 C677 0.960 . S
H664 C677 0.960 . S
C665 H657 0.929 . S
C665 C666 1.377 . S
C665 C667 1.384 . S
C666 C665 1.377 . S
C666 C672 1.390 . S
C667 H658 0.930 . S
C667 C665 1.384 . S
C667 C668 1.372 . S
C668 C667 1.372 . S
C668 C669 1.400 . S
C668 C673 1.490 . S
C669 H659 0.930 . S
C669 C668 1.400 . S
C669 C672 1.386 . S
H670 C686 0.930 . S
H671 C687 0.931 . S
C672 H660 0.929 . S
C672 C666 1.390 . S
C672 C669 1.386 . S
C673 C668 1.490 . S
C673 C675 1.395 . S
C673 C676 1.403 . S
H674 C680 0.930 . S
C675 H661 0.930 . S
C675 C673 1.395 . S
C675 C678 1.403 . S
C676 C673 1.403 . S
C676 C677 1.524 . S
C676 C680 1.400 . S
C677 H662 0.960 . S
C677 H663 0.960 . S
C677 H664 0.960 . S
C677 C676 1.524 . S
C678 C675 1.403 . S
C678 C679 1.392 . S
C678 C682 1.495 . S
C679 C678 1.392 . S
C679 C680 1.385 . S
C679 C681 1.478 . S
C680 H674 0.930 . S
C680 C676 1.400 . S
C680 C679 1.385 . S
C681 C679 1.478 . S
C681 C683 1.381 . S
C681 C687 1.383 . S
C682 C678 1.495 . S
C682 H688 0.959 . S
C682 H689 0.961 . S
C682 H690 0.960 . S
C683 C681 1.381 . S
C683 C684 1.394 . S
C683 H691 0.930 . S
C684 C683 1.394 . S
C684 C685 1.383 . S
C684 H692 0.929 . S
C685 C684 1.383 . S
C685 C686 1.377 . S
C686 H670 0.930 . S
C686 C685 1.377 . S
C686 C687 1.379 . S
C687 H671 0.931 . S
C687 C681 1.383 . S
C687 C686 1.379 . S
H688 C682 0.959 . S
H689 C682 0.961 . S
H690 C682 0.960 . S
H691 C683 0.930 . S
H692 C684 0.929 . S
H693 C701 0.929 . S
H694 C703 0.930 . S
H695 C705 0.930 . S
H696 C708 0.932 . S
H697 C711 0.930 . S
H698 C713 0.960 . S
H699 C713 0.960 1_554 S
H700 C713 0.960 . S
C701 H693 0.929 . S
C701 C702 1.377 . S
C701 C703 1.384 . S
C702 C701 1.377 . S
C702 C708 1.390 . S
C703 H694 0.930 . S
C703 C701 1.384 . S
C703 C704 1.372 1_554 S
C704 C703 1.372 1_556 S
C704 C705 1.400 . S
C704 C709 1.490 . S
C705 H695 0.930 . S
C705 C704 1.400 . S
C705 C708 1.386 1_556 S
H706 C722 0.930 . S
H707 C723 0.931 . S
C708 H696 0.932 . S
C708 C702 1.390 . S
C708 C705 1.386 1_554 S
C709 C704 1.490 . S
C709 C711 1.395 . S
C709 C712 1.403 . S
H710 C716 0.930 . S
C711 H697 0.930 . S
C711 C709 1.395 . S
C711 C714 1.403 . S
C712 C709 1.403 . S
C712 C713 1.524 . S
C712 C716 1.400 . S
C713 H698 0.960 . S
C713 H699 0.960 1_556 S
C713 H700 0.960 . S
C713 C712 1.524 . S
C714 C711 1.403 . S
C714 C715 1.392 . S
C714 C718 1.495 . S
C715 C714 1.392 . S
C715 C716 1.385 . S
C715 C717 1.478 . S
C716 H710 0.930 . S
C716 C712 1.400 . S
C716 C715 1.385 . S
C717 C715 1.478 . S
C717 C719 1.381 . S
C717 C723 1.383 . S
C718 C714 1.495 . S
C718 H724 0.959 . S
C718 H725 0.961 . S
C718 H726 0.960 . S
C719 C717 1.381 . S
C719 C720 1.394 . S
C719 H727 0.930 . S
C720 C719 1.394 . S
C720 C721 1.383 . S
C720 H728 0.929 . S
C721 C720 1.383 . S
C721 C722 1.377 . S
C722 H706 0.930 . S
C722 C721 1.377 . S
C722 C723 1.379 . S
C723 H707 0.931 . S
C723 C717 1.383 . S
C723 C722 1.379 . S
H724 C718 0.959 . S
H725 C718 0.961 . S
H726 C718 0.960 . S
H727 C719 0.930 . S
H728 C720 0.929 . S
H729 C737 0.929 . S
H730 C739 0.930 . S
H731 C741 0.930 . S
H732 C744 0.929 . S
H733 C747 0.930 . S
H734 C749 0.960 . S
H735 C749 0.960 . S
H736 C749 0.960 . S
C737 H729 0.929 . S
C737 C738 1.377 . S
C737 C739 1.384 . S
C738 C737 1.377 . S
C738 C744 1.390 . S
C739 H730 0.930 . S
C739 C737 1.384 . S
C739 C740 1.372 . S
C740 C739 1.372 . S
C740 C741 1.400 . S
C740 C745 1.490 . S
C741 H731 0.930 . S
C741 C740 1.400 . S
C741 C744 1.386 . S
H742 C758 0.930 . S
H743 C759 0.931 . S
C744 H732 0.929 . S
C744 C738 1.390 . S
C744 C741 1.386 . S
C745 C740 1.490 . S
C745 C747 1.395 . S
C745 C748 1.403 . S
H746 C752 0.930 . S
C747 H733 0.930 . S
C747 C745 1.395 . S
C747 C750 1.403 . S
C748 C745 1.403 . S
C748 C749 1.524 . S
C748 C752 1.400 . S
C749 H734 0.960 . S
C749 H735 0.960 . S
C749 H736 0.960 . S
C749 C748 1.524 . S
C750 C747 1.403 . S
C750 C751 1.392 . S
C750 C754 1.495 . S
C751 C750 1.392 . S
C751 C752 1.385 . S
C751 C753 1.478 . S
C752 H746 0.930 . S
C752 C748 1.400 . S
C752 C751 1.385 . S
C753 C751 1.478 . S
C753 C755 1.381 . S
C753 C759 1.383 . S
C754 C750 1.495 . S
C754 H760 0.959 . S
C754 H761 0.961 . S
C754 H762 0.960 . S
C755 C753 1.381 . S
C755 C756 1.394 . S
C755 H763 0.930 . S
C756 C755 1.394 . S
C756 C757 1.383 . S
C756 H764 0.929 . S
C757 C756 1.383 . S
C757 C758 1.377 . S
C758 H742 0.930 . S
C758 C757 1.377 . S
C758 C759 1.379 . S
C759 H743 0.931 . S
C759 C753 1.383 . S
C759 C758 1.379 . S
H760 C754 0.959 . S
H761 C754 0.961 . S
H762 C754 0.960 . S
H763 C755 0.930 . S
H764 C756 0.929 . S
H765 C773 0.929 . S
H766 C775 0.930 . S
H767 C777 0.930 . S
H768 C780 0.929 . S
H769 C783 0.930 . S
H770 C785 0.960 . S
H771 C785 0.960 . S
H772 C785 0.960 . S
C773 H765 0.929 . S
C773 C774 1.377 . S
C773 C775 1.384 . S
C774 C773 1.377 . S
C774 C780 1.390 . S
C775 H766 0.930 . S
C775 C773 1.384 . S
C775 C776 1.372 . S
C776 C775 1.372 . S
C776 C777 1.400 . S
C776 C781 1.490 . S
C777 H767 0.930 . S
C777 C776 1.400 . S
C777 C780 1.386 . S
H778 C794 0.930 . S
H779 C795 0.931 . S
C780 H768 0.929 . S
C780 C774 1.390 . S
C780 C777 1.386 . S
C781 C776 1.490 . S
C781 C783 1.395 . S
C781 C784 1.403 . S
H782 C788 0.930 . S
C783 H769 0.930 . S
C783 C781 1.395 . S
C783 C786 1.403 . S
C784 C781 1.403 . S
C784 C785 1.524 . S
C784 C788 1.400 . S
C785 H770 0.960 . S
C785 H771 0.960 . S
C785 H772 0.960 . S
C785 C784 1.524 . S
C786 C783 1.403 . S
C786 C787 1.392 . S
C786 C790 1.495 . S
C787 C786 1.392 . S
C787 C788 1.385 . S
C787 C789 1.478 . S
C788 H782 0.930 . S
C788 C784 1.400 . S
C788 C787 1.385 . S
C789 C787 1.478 . S
C789 C791 1.381 . S
C789 C795 1.383 . S
C790 C786 1.495 . S
C790 H796 0.959 . S
C790 H797 0.961 . S
C790 H798 0.960 . S
C791 C789 1.381 . S
C791 C792 1.394 . S
C791 H799 0.930 . S
C792 C791 1.394 . S
C792 C793 1.383 . S
C792 H800 0.929 . S
C793 C792 1.383 . S
C793 C794 1.377 . S
C794 H778 0.930 . S
C794 C793 1.377 . S
C794 C795 1.379 . S
C795 H779 0.931 . S
C795 C789 1.383 . S
C795 C794 1.379 . S
H796 C790 0.959 . S
H797 C790 0.961 . S
H798 C790 0.960 . S
H799 C791 0.930 . S
H800 C792 0.929 . S
H801 C809 0.929 . S
H802 C811 0.930 . S
H803 C813 0.930 . S
H804 C816 0.929 . S
H805 C819 0.930 . S
H806 C821 0.960 . S
H807 C821 0.960 . S
H808 C821 0.960 . S
C809 H801 0.929 . S
C809 C810 1.377 . S
C809 C811 1.384 . S
C810 C809 1.377 . S
C810 C816 1.390 . S
C811 H802 0.930 . S
C811 C809 1.384 . S
C811 C812 1.372 . S
C812 C811 1.372 . S
C812 C813 1.400 . S
C812 C817 1.490 . S
C813 H803 0.930 . S
C813 C812 1.400 . S
C813 C816 1.386 . S
H814 C830 0.930 . S
H815 C831 0.931 . S
C816 H804 0.929 . S
C816 C810 1.390 . S
C816 C813 1.386 . S
C817 C812 1.490 . S
C817 C819 1.395 . S
C817 C820 1.403 . S
H818 C824 0.930 . S
C819 H805 0.930 . S
C819 C817 1.395 . S
C819 C822 1.403 . S
C820 C817 1.403 . S
C820 C821 1.524 . S
C820 C824 1.400 . S
C821 H806 0.960 . S
C821 H807 0.960 . S
C821 H808 0.960 . S
C821 C820 1.524 . S
C822 C819 1.403 . S
C822 C823 1.392 . S
C822 C826 1.495 . S
C823 C822 1.392 . S
C823 C824 1.385 . S
C823 C825 1.478 . S
C824 H818 0.930 . S
C824 C820 1.400 . S
C824 C823 1.385 . S
C825 C823 1.478 . S
C825 C827 1.381 . S
C825 C831 1.383 . S
C826 C822 1.495 . S
C826 H832 0.959 . S
C826 H833 0.961 . S
C826 H834 0.960 . S
C827 C825 1.381 . S
C827 C828 1.394 . S
C827 H835 0.930 . S
C828 C827 1.394 . S
C828 C829 1.383 . S
C828 H836 0.929 . S
C829 C828 1.383 . S
C829 C830 1.377 . S
C830 H814 0.930 . S
C830 C829 1.377 . S
C830 C831 1.379 . S
C831 H815 0.931 . S
C831 C825 1.383 . S
C831 C830 1.379 . S
H832 C826 0.959 . S
H833 C826 0.961 . S
H834 C826 0.960 . S
H835 C827 0.930 . S
H836 C828 0.929 . S
H837 C845 0.929 . S
H838 C847 0.930 . S
H839 C849 0.930 . S
H840 C852 0.929 . S
H841 C855 0.930 . S
H842 C857 0.960 . S
H843 C857 0.960 . S
H844 C857 0.960 . S
C845 H837 0.929 . S
C845 C846 1.377 . S
C845 C847 1.384 . S
C846 C845 1.377 . S
C846 C852 1.390 . S
C847 H838 0.930 . S
C847 C845 1.384 . S
C847 C848 1.372 . S
C848 C847 1.372 . S
C848 C849 1.400 . S
C848 C853 1.490 . S
C849 H839 0.930 . S
C849 C848 1.400 . S
C849 C852 1.386 . S
H850 C866 0.930 . S
H851 C867 0.931 . S
C852 H840 0.929 . S
C852 C846 1.390 . S
C852 C849 1.386 . S
C853 C848 1.490 . S
C853 C855 1.395 . S
C853 C856 1.403 . S
H854 C860 0.930 . S
C855 H841 0.930 . S
C855 C853 1.395 . S
C855 C858 1.403 . S
C856 C853 1.403 . S
C856 C857 1.524 . S
C856 C860 1.400 . S
C857 H842 0.960 . S
C857 H843 0.960 . S
C857 H844 0.960 . S
C857 C856 1.524 . S
C858 C855 1.403 . S
C858 C859 1.392 . S
C858 C862 1.495 . S
C859 C858 1.392 . S
C859 C860 1.385 . S
C859 C861 1.478 . S
C860 H854 0.930 . S
C860 C856 1.400 . S
C860 C859 1.385 . S
C861 C859 1.478 . S
C861 C863 1.381 . S
C861 C867 1.383 . S
C862 C858 1.495 . S
C862 H868 0.959 . S
C862 H869 0.961 . S
C862 H870 0.960 . S
C863 C861 1.381 . S
C863 C864 1.394 . S
C863 H871 0.930 . S
C864 C863 1.394 . S
C864 C865 1.383 . S
C864 H872 0.929 . S
C865 C864 1.383 . S
C865 C866 1.377 . S
C866 H850 0.930 . S
C866 C865 1.377 . S
C866 C867 1.379 . S
C867 H851 0.931 . S
C867 C861 1.383 . S
C867 C866 1.379 . S
H868 C862 0.959 . S
H869 C862 0.961 . S
H870 C862 0.960 . S
H871 C863 0.930 . S
H872 C864 0.929 . S
H873 C881 0.929 . S
H874 C883 0.930 1_556 S
H875 C885 0.930 . S
H876 C888 0.929 . S
H877 C891 0.930 . S
H878 C893 0.960 . S
H879 C893 0.960 . S
H880 C893 0.960 . S
C881 H873 0.929 . S
C881 C882 1.377 . S
C881 C883 1.387 . S
C882 C881 1.377 . S
C882 C888 1.390 . S
C883 H874 0.930 1_554 S
C883 C881 1.387 . S
C883 C884 1.369 1_554 S
C884 C883 1.369 1_556 S
C884 C885 1.400 . S
C884 C889 1.490 . S
C885 H875 0.930 . S
C885 C884 1.400 . S
C885 C888 1.386 1_556 S
H886 C902 0.930 . S
H887 C903 0.931 . S
C888 H876 0.929 . S
C888 C882 1.390 . S
C888 C885 1.386 1_554 S
C889 C884 1.490 . S
C889 C891 1.395 . S
C889 C892 1.403 . S
H890 C896 0.930 . S
C891 H877 0.930 . S
C891 C889 1.395 . S
C891 C894 1.403 . S
C892 C889 1.403 . S
C892 C893 1.524 . S
C892 C896 1.400 . S
C893 H878 0.960 . S
C893 H879 0.960 . S
C893 H880 0.960 . S
C893 C892 1.524 . S
C894 C891 1.403 . S
C894 C895 1.392 . S
C894 C898 1.495 . S
C895 C894 1.392 . S
C895 C896 1.385 . S
C895 C897 1.478 . S
C896 H890 0.930 . S
C896 C892 1.400 . S
C896 C895 1.385 . S
C897 C895 1.478 . S
C897 C899 1.381 . S
C897 C903 1.383 . S
C898 C894 1.495 . S
C898 H904 0.959 . S
C898 H905 0.961 . S
C898 H906 0.960 . S
C899 C897 1.381 . S
C899 C900 1.394 . S
C899 H907 0.930 . S
C900 C899 1.394 . S
C900 C901 1.383 . S
C900 H908 0.929 . S
C901 C900 1.383 . S
C901 C902 1.377 . S
C902 H886 0.930 . S
C902 C901 1.377 . S
C902 C903 1.379 . S
C903 H887 0.931 . S
C903 C897 1.383 . S
C903 C902 1.379 . S
H904 C898 0.959 . S
H905 C898 0.961 . S
H906 C898 0.960 . S
H907 C899 0.930 . S
H908 C900 0.929 . S
H909 C917 0.929 . S
H910 C919 0.930 . S
H911 C921 0.930 . S
H912 C924 0.929 . S
H913 C927 0.930 . S
H914 C929 0.960 . S
H915 C929 0.960 . S
H916 C929 0.960 . S
C917 H909 0.929 . S
C917 C918 1.377 1_554 S
C917 C919 1.384 1_554 S
C918 C917 1.377 1_556 S
C918 C924 1.390 . S
C919 H910 0.930 . S
C919 C917 1.384 1_556 S
C919 C920 1.372 . S
C920 C919 1.372 . S
C920 C921 1.400 . S
C920 C925 1.490 . S
C921 H911 0.930 . S
C921 C920 1.400 . S
C921 C924 1.386 . S
H922 C938 0.930 . S
H923 C939 0.931 . S
C924 H912 0.929 . S
C924 C918 1.390 . S
C924 C921 1.386 . S
C925 C920 1.490 . S
C925 C927 1.395 . S
C925 C928 1.403 . S
H926 C932 0.930 . S
C927 H913 0.930 . S
C927 C925 1.395 . S
C927 C930 1.403 . S
C928 C925 1.403 . S
C928 C929 1.524 . S
C928 C932 1.400 . S
C929 H914 0.960 . S
C929 H915 0.960 . S
C929 H916 0.960 . S
C929 C928 1.524 . S
C930 C927 1.403 . S
C930 C931 1.392 . S
C930 C934 1.495 . S
C931 C930 1.392 . S
C931 C932 1.385 . S
C931 C933 1.478 . S
C932 H926 0.930 . S
C932 C928 1.400 . S
C932 C931 1.385 . S
C933 C931 1.478 . S
C933 C935 1.381 . S
C933 C939 1.383 . S
C934 C930 1.495 . S
C934 H940 0.959 . S
C934 H941 0.961 . S
C934 H942 0.960 . S
C935 C933 1.381 . S
C935 C936 1.394 . S
C935 H943 0.930 . S
C936 C935 1.394 . S
C936 C937 1.383 . S
C936 H944 0.929 . S
C937 C936 1.383 . S
C937 C938 1.377 . S
C938 H922 0.930 . S
C938 C937 1.377 . S
C938 C939 1.379 . S
C939 H923 0.931 . S
C939 C933 1.383 . S
C939 C938 1.379 . S
H940 C934 0.959 . S
H941 C934 0.961 . S
H942 C934 0.960 . S
H943 C935 0.930 . S
H944 C936 0.929 . S
H945 C953 0.929 . S
H946 C955 0.930 . S
H947 C957 0.930 . S
H948 C960 0.929 . S
H949 C963 0.930 . S
H950 C965 0.960 . S
H951 C965 0.960 . S
H952 C965 0.960 . S
C953 H945 0.929 . S
C953 C954 1.377 . S
C953 C955 1.384 . S
C954 C953 1.377 . S
C954 C960 1.390 . S
C955 H946 0.930 . S
C955 C953 1.384 . S
C955 C956 1.372 . S
C956 C955 1.372 . S
C956 C957 1.400 . S
C956 C961 1.490 . S
C957 H947 0.930 . S
C957 C956 1.400 . S
C957 C960 1.386 . S
H958 C974 0.930 . S
H959 C975 0.931 . S
C960 H948 0.929 . S
C960 C954 1.390 . S
C960 C957 1.386 . S
C961 C956 1.490 . S
C961 C963 1.395 . S
C961 C964 1.403 . S
H962 C968 0.930 . S
C963 H949 0.930 . S
C963 C961 1.395 . S
C963 C966 1.403 . S
C964 C961 1.403 . S
C964 C965 1.524 . S
C964 C968 1.400 . S
C965 H950 0.960 . S
C965 H951 0.960 . S
C965 H952 0.960 . S
C965 C964 1.524 . S
C966 C963 1.403 . S
C966 C967 1.392 . S
C966 C970 1.495 . S
C967 C966 1.392 . S
C967 C968 1.385 . S
C967 C969 1.478 . S
C968 H962 0.930 . S
C968 C964 1.400 . S
C968 C967 1.385 . S
C969 C967 1.478 . S
C969 C971 1.381 . S
C969 C975 1.383 . S
C970 C966 1.495 . S
C970 H976 0.959 . S
C970 H977 0.961 . S
C970 H978 0.960 . S
C971 C969 1.381 . S
C971 C972 1.394 . S
C971 H979 0.930 . S
C972 C971 1.394 . S
C972 C973 1.383 . S
C972 H980 0.929 . S
C973 C972 1.383 . S
C973 C974 1.377 . S
C974 H958 0.930 . S
C974 C973 1.377 . S
C974 C975 1.379 . S
C975 H959 0.931 . S
C975 C969 1.383 . S
C975 C974 1.379 . S
H976 C970 0.959 . S
H977 C970 0.961 . S
H978 C970 0.960 . S
H979 C971 0.930 . S
H980 C972 0.929 . S
H981 C989 0.929 . S
H982 C991 0.930 . S
H983 C993 0.930 . S
H984 C996 0.929 . S
H985 C999 0.930 . S
H986 C1001 0.960 . S
H987 C1001 0.960 . S
H988 C1001 0.960 . S
C989 H981 0.929 . S
C989 C990 1.377 . S
C989 C991 1.384 . S
C990 C989 1.377 . S
C990 C996 1.390 . S
C991 H982 0.930 . S
C991 C989 1.384 . S
C991 C992 1.372 . S
C992 C991 1.372 . S
C992 C993 1.400 . S
C992 C997 1.490 . S
C993 H983 0.930 . S
C993 C992 1.400 . S
C993 C996 1.386 . S
H994 C1010 0.930 . S
H995 C1011 0.931 . S
C996 H984 0.929 . S
C996 C990 1.390 . S
C996 C993 1.386 . S
C997 C992 1.490 . S
C997 C999 1.395 . S
C997 C1000 1.403 . S
H998 C1004 0.930 . S
C999 H985 0.930 . S
C999 C997 1.395 . S
C999 C1002 1.403 . S
C1000 C997 1.403 . S
C1000 C1001 1.524 . S
C1000 C1004 1.400 . S
C1001 H986 0.960 . S
C1001 H987 0.960 . S
C1001 H988 0.960 . S
C1001 C1000 1.524 . S
C1002 C999 1.403 . S
C1002 C1003 1.392 . S
C1002 C1006 1.495 . S
C1003 C1002 1.392 . S
C1003 C1004 1.385 . S
C1003 C1005 1.478 . S
C1004 H998 0.930 . S
C1004 C1000 1.400 . S
C1004 C1003 1.385 . S
C1005 C1003 1.478 . S
C1005 C1007 1.381 . S
C1005 C1011 1.383 . S
C1006 C1002 1.495 . S
C1006 H1012 0.959 . S
C1006 H1013 0.961 . S
C1006 H1014 0.960 . S
C1007 C1005 1.381 . S
C1007 C1008 1.394 . S
C1007 H1015 0.930 . S
C1008 C1007 1.394 . S
C1008 C1009 1.383 . S
C1008 H1016 0.929 . S
C1009 C1008 1.383 . S
C1009 C1010 1.377 . S
C1010 H994 0.930 . S
C1010 C1009 1.377 . S
C1010 C1011 1.379 . S
C1011 H995 0.931 . S
C1011 C1005 1.383 . S
C1011 C1010 1.379 . S
H1012 C1006 0.959 . S
H1013 C1006 0.961 . S
H1014 C1006 0.960 . S
H1015 C1007 0.930 . S
H1016 C1008 0.929 . S
H1017 C1025 0.929 . S
H1018 C1027 0.930 . S
H1019 C1029 0.930 . S
H1020 C1032 0.929 . S
H1021 C1035 0.930 . S
H1022 C1037 0.960 . S
H1023 C1037 0.960 . S
H1024 C1037 0.960 . S
C1025 H1017 0.929 . S
C1025 C1026 1.377 . S
C1025 C1027 1.384 . S
C1026 C1025 1.377 . S
C1026 C1032 1.390 . S
C1027 H1018 0.930 . S
C1027 C1025 1.384 . S
C1027 C1028 1.372 . S
C1028 C1027 1.372 . S
C1028 C1029 1.400 . S
C1028 C1033 1.490 . S
C1029 H1019 0.930 . S
C1029 C1028 1.400 . S
C1029 C1032 1.386 . S
H1030 C1046 0.930 . S
H1031 C1047 0.931 . S
C1032 H1020 0.929 . S
C1032 C1026 1.390 . S
C1032 C1029 1.386 . S
C1033 C1028 1.490 . S
C1033 C1035 1.395 . S
C1033 C1036 1.403 . S
H1034 C1040 0.930 . S
C1035 H1021 0.930 . S
C1035 C1033 1.395 . S
C1035 C1038 1.403 . S
C1036 C1033 1.403 . S
C1036 C1037 1.524 . S
C1036 C1040 1.400 . S
C1037 H1022 0.960 . S
C1037 H1023 0.960 . S
C1037 H1024 0.960 . S
C1037 C1036 1.524 . S
C1038 C1035 1.403 . S
C1038 C1039 1.392 . S
C1038 C1042 1.495 . S
C1039 C1038 1.392 . S
C1039 C1040 1.385 . S
C1039 C1041 1.478 . S
C1040 H1034 0.930 . S
C1040 C1036 1.400 . S
C1040 C1039 1.385 . S
C1041 C1039 1.478 . S
C1041 C1043 1.381 . S
C1041 C1047 1.383 . S
C1042 C1038 1.495 . S
C1042 H1048 0.959 . S
C1042 H1049 0.961 . S
C1042 H1050 0.960 . S
C1043 C1041 1.381 . S
C1043 C1044 1.394 . S
C1043 H1051 0.930 . S
C1044 C1043 1.394 . S
C1044 C1045 1.383 . S
C1044 H1052 0.929 . S
C1045 C1044 1.383 . S
C1045 C1046 1.377 . S
C1046 H1030 0.930 . S
C1046 C1045 1.377 . S
C1046 C1047 1.379 . S
C1047 H1031 0.931 . S
C1047 C1041 1.383 . S
C1047 C1046 1.379 . S
H1048 C1042 0.959 . S
H1049 C1042 0.961 . S
H1050 C1042 0.960 . S
H1051 C1043 0.930 . S
H1052 C1044 0.929 . S
H1053 C1061 0.929 . S
H1054 C1063 0.930 . S
H1055 C1065 0.930 . S
H1056 C1068 0.929 . S
H1057 C1071 0.930 . S
H1058 C1073 0.960 . S
H1059 C1073 0.960 . S
H1060 C1073 0.960 . S
C1061 H1053 0.929 . S
C1061 C1062 1.377 . S
C1061 C1063 1.384 . S
C1062 C1061 1.377 . S
C1062 C1068 1.390 . S
C1063 H1054 0.930 . S
C1063 C1061 1.384 . S
C1063 C1064 1.372 . S
C1064 C1063 1.372 . S
C1064 C1065 1.400 . S
C1064 C1069 1.490 . S
C1065 H1055 0.930 . S
C1065 C1064 1.400 . S
C1065 C1068 1.386 . S
H1066 C1082 0.930 . S
H1067 C1083 0.931 . S
C1068 H1056 0.929 . S
C1068 C1062 1.390 . S
C1068 C1065 1.386 . S
C1069 C1064 1.490 . S
C1069 C1071 1.395 . S
C1069 C1072 1.403 . S
H1070 C1076 0.930 . S
C1071 H1057 0.930 . S
C1071 C1069 1.395 . S
C1071 C1074 1.403 . S
C1072 C1069 1.403 . S
C1072 C1073 1.524 . S
C1072 C1076 1.400 . S
C1073 H1058 0.960 . S
C1073 H1059 0.960 . S
C1073 H1060 0.960 . S
C1073 C1072 1.524 . S
C1074 C1071 1.403 . S
C1074 C1075 1.392 . S
C1074 C1078 1.495 . S
C1075 C1074 1.392 . S
C1075 C1076 1.385 . S
C1075 C1077 1.478 . S
C1076 H1070 0.930 . S
C1076 C1072 1.400 . S
C1076 C1075 1.385 . S
C1077 C1075 1.478 . S
C1077 C1079 1.381 . S
C1077 C1083 1.383 . S
C1078 C1074 1.495 . S
C1078 H1084 0.959 . S
C1078 H1085 0.961 . S
C1078 H1086 0.960 . S
C1079 C1077 1.381 . S
C1079 C1080 1.394 . S
C1079 H1087 0.930 . S
C1080 C1079 1.394 . S
C1080 C1081 1.383 . S
C1080 H1088 0.929 . S
C1081 C1080 1.383 . S
C1081 C1082 1.377 . S
C1082 H1066 0.930 . S
C1082 C1081 1.377 . S
C1082 C1083 1.379 . S
C1083 H1067 0.931 . S
C1083 C1077 1.383 . S
C1083 C1082 1.379 . S
H1084 C1078 0.959 . S
H1085 C1078 0.961 . S
H1086 C1078 0.960 . S
H1087 C1079 0.930 . S
H1088 C1080 0.929 . S
H1089 C1097 0.929 . S
H1090 C1099 0.930 . S
H1091 C1101 0.930 . S
H1092 C1104 0.929 . S
H1093 C1107 0.930 . S
H1094 C1109 0.960 . S
H1095 C1109 0.960 . S
H1096 C1109 0.960 . S
C1097 H1089 0.929 . S
C1097 C1098 1.377 . S
C1097 C1099 1.384 . S
C1098 C1097 1.377 . S
C1098 C1104 1.390 . S
C1099 H1090 0.930 . S
C1099 C1097 1.384 . S
C1099 C1100 1.372 . S
C1100 C1099 1.372 . S
C1100 C1101 1.400 . S
C1100 C1105 1.490 . S
C1101 H1091 0.930 . S
C1101 C1100 1.400 . S
C1101 C1104 1.386 . S
H1102 C1118 0.930 . S
H1103 C1119 0.931 . S
C1104 H1092 0.929 . S
C1104 C1098 1.390 . S
C1104 C1101 1.386 . S
C1105 C1100 1.490 . S
C1105 C1107 1.395 . S
C1105 C1108 1.403 . S
H1106 C1112 0.930 . S
C1107 H1093 0.930 . S
C1107 C1105 1.395 . S
C1107 C1110 1.403 . S
C1108 C1105 1.403 . S
C1108 C1109 1.524 . S
C1108 C1112 1.400 . S
C1109 H1094 0.960 . S
C1109 H1095 0.960 . S
C1109 H1096 0.960 . S
C1109 C1108 1.524 . S
C1110 C1107 1.403 . S
C1110 C1111 1.392 . S
C1110 C1114 1.495 . S
C1111 C1110 1.392 . S
C1111 C1112 1.385 . S
C1111 C1113 1.478 . S
C1112 H1106 0.930 . S
C1112 C1108 1.400 . S
C1112 C1111 1.385 . S
C1113 C1111 1.478 . S
C1113 C1115 1.381 . S
C1113 C1119 1.383 . S
C1114 C1110 1.495 . S
C1114 H1120 0.959 . S
C1114 H1121 0.961 . S
C1114 H1122 0.960 . S
C1115 C1113 1.381 . S
C1115 C1116 1.394 . S
C1115 H1123 0.930 . S
C1116 C1115 1.394 . S
C1116 C1117 1.383 . S
C1116 H1124 0.929 . S
C1117 C1116 1.383 . S
C1117 C1118 1.377 . S
C1118 H1102 0.930 . S
C1118 C1117 1.377 . S
C1118 C1119 1.379 . S
C1119 H1103 0.931 . S
C1119 C1113 1.383 . S
C1119 C1118 1.379 . S
H1120 C1114 0.959 . S
H1121 C1114 0.961 . S
H1122 C1114 0.960 . S
H1123 C1115 0.930 . S
H1124 C1116 0.929 . S
H1125 C1133 0.929 . S
H1126 C1135 0.930 . S
H1127 C1137 0.930 . S
H1128 C1140 0.929 . S
H1129 C1143 0.930 . S
H1130 C1145 0.960 . S
H1131 C1145 0.960 . S
H1132 C1145 0.960 . S
C1133 H1125 0.929 . S
C1133 C1134 1.377 . S
C1133 C1135 1.384 . S
C1134 C1133 1.377 . S
C1134 C1140 1.390 . S
C1135 H1126 0.930 . S
C1135 C1133 1.384 . S
C1135 C1136 1.372 . S
C1136 C1135 1.372 . S
C1136 C1137 1.400 . S
C1136 C1141 1.490 . S
C1137 H1127 0.930 . S
C1137 C1136 1.400 . S
C1137 C1140 1.386 . S
H1138 C1154 0.930 . S
H1139 C1155 0.931 . S
C1140 H1128 0.929 . S
C1140 C1134 1.390 . S
C1140 C1137 1.386 . S
C1141 C1136 1.490 . S
C1141 C1143 1.395 . S
C1141 C1144 1.403 . S
H1142 C1148 0.930 . S
C1143 H1129 0.930 . S
C1143 C1141 1.395 . S
C1143 C1146 1.403 . S
C1144 C1141 1.403 . S
C1144 C1145 1.524 . S
C1144 C1148 1.400 . S
C1145 H1130 0.960 . S
C1145 H1131 0.960 . S
C1145 H1132 0.960 . S
C1145 C1144 1.524 . S
C1146 C1143 1.403 . S
C1146 C1147 1.392 . S
C1146 C1150 1.495 . S
C1147 C1146 1.392 . S
C1147 C1148 1.385 . S
C1147 C1149 1.478 . S
C1148 H1142 0.930 . S
C1148 C1144 1.400 . S
C1148 C1147 1.385 . S
C1149 C1147 1.478 . S
C1149 C1151 1.381 . S
C1149 C1155 1.383 . S
C1150 C1146 1.495 . S
C1150 H1156 0.959 . S
C1150 H1157 0.961 . S
C1150 H1158 0.960 . S
C1151 C1149 1.381 . S
C1151 C1152 1.394 . S
C1151 H1159 0.930 . S
C1152 C1151 1.394 . S
C1152 C1153 1.383 . S
C1152 H1160 0.929 . S
C1153 C1152 1.383 . S
C1153 C1154 1.377 . S
C1154 H1138 0.930 . S
C1154 C1153 1.377 . S
C1154 C1155 1.379 . S
C1155 H1139 0.931 . S
C1155 C1149 1.383 . S
C1155 C1154 1.379 . S
H1156 C1150 0.959 . S
H1157 C1150 0.961 . S
H1158 C1150 0.960 . S
H1159 C1151 0.930 . S
H1160 C1152 0.929 . S
H1161 C1169 0.929 . S
H1162 C1171 0.930 . S
H1163 C1173 0.930 . S
H1164 C1176 0.929 . S
H1165 C1179 0.930 . S
H1166 C1181 0.960 . S
H1167 C1181 0.960 . S
H1168 C1181 0.960 . S
C1169 H1161 0.929 . S
C1169 C1170 1.377 . S
C1169 C1171 1.384 . S
C1170 C1169 1.377 . S
C1170 C1176 1.390 . S
C1171 H1162 0.930 . S
C1171 C1169 1.384 . S
C1171 C1172 1.372 . S
C1172 C1171 1.372 . S
C1172 C1173 1.400 . S
C1172 C1177 1.490 . S
C1173 H1163 0.930 . S
C1173 C1172 1.400 . S
C1173 C1176 1.386 . S
H1174 C1190 0.930 . S
H1175 C1191 0.931 . S
C1176 H1164 0.929 . S
C1176 C1170 1.390 . S
C1176 C1173 1.386 . S
C1177 C1172 1.490 . S
C1177 C1179 1.395 . S
C1177 C1180 1.403 . S
H1178 C1184 0.930 . S
C1179 H1165 0.930 . S
C1179 C1177 1.395 . S
C1179 C1182 1.403 . S
C1180 C1177 1.403 . S
C1180 C1181 1.524 . S
C1180 C1184 1.400 . S
C1181 H1166 0.960 . S
C1181 H1167 0.960 . S
C1181 H1168 0.960 . S
C1181 C1180 1.524 . S
C1182 C1179 1.403 . S
C1182 C1183 1.392 . S
C1182 C1186 1.495 . S
C1183 C1182 1.392 . S
C1183 C1184 1.385 . S
C1183 C1185 1.478 . S
C1184 H1178 0.930 . S
C1184 C1180 1.400 . S
C1184 C1183 1.385 . S
C1185 C1183 1.478 . S
C1185 C1187 1.381 . S
C1185 C1191 1.383 . S
C1186 C1182 1.495 . S
C1186 H1192 0.959 . S
C1186 H1193 0.961 . S
C1186 H1194 0.960 . S
C1187 C1185 1.381 . S
C1187 C1188 1.394 . S
C1187 H1195 0.930 . S
C1188 C1187 1.394 . S
C1188 C1189 1.383 . S
C1188 H1196 0.929 . S
C1189 C1188 1.383 . S
C1189 C1190 1.377 . S
C1190 H1174 0.930 . S
C1190 C1189 1.377 . S
C1190 C1191 1.379 . S
C1191 H1175 0.931 . S
C1191 C1185 1.383 . S
C1191 C1190 1.379 . S
H1192 C1186 0.959 . S
H1193 C1186 0.961 . S
H1194 C1186 0.960 . S
H1195 C1187 0.930 . S
H1196 C1188 0.929 . S
H1197 C1205 0.929 . S
H1198 C1207 0.930 . S
H1199 C1209 0.930 . S
H1200 C1212 0.929 . S
H1201 C1215 0.930 . S
H1202 C1217 0.960 . S
H1203 C1217 0.960 . S
H1204 C1217 0.960 . S
C1205 H1197 0.929 . S
C1205 C1206 1.377 . S
C1205 C1207 1.384 . S
C1206 C1205 1.377 . S
C1206 C1212 1.390 . S
C1207 H1198 0.930 . S
C1207 C1205 1.384 . S
C1207 C1208 1.372 . S
C1208 C1207 1.372 . S
C1208 C1209 1.400 . S
C1208 C1213 1.490 . S
C1209 H1199 0.930 . S
C1209 C1208 1.400 . S
C1209 C1212 1.386 . S
H1210 C1226 0.930 . S
H1211 C1227 0.931 . S
C1212 H1200 0.929 . S
C1212 C1206 1.390 . S
C1212 C1209 1.386 . S
C1213 C1208 1.490 . S
C1213 C1215 1.395 . S
C1213 C1216 1.403 . S
H1214 C1220 0.930 . S
C1215 H1201 0.930 . S
C1215 C1213 1.395 . S
C1215 C1218 1.403 . S
C1216 C1213 1.403 . S
C1216 C1217 1.524 . S
C1216 C1220 1.400 . S
C1217 H1202 0.960 . S
C1217 H1203 0.960 . S
C1217 H1204 0.960 . S
C1217 C1216 1.524 . S
C1218 C1215 1.403 . S
C1218 C1219 1.392 . S
C1218 C1222 1.495 . S
C1219 C1218 1.392 . S
C1219 C1220 1.385 . S
C1219 C1221 1.478 . S
C1220 H1214 0.930 . S
C1220 C1216 1.400 . S
C1220 C1219 1.385 . S
C1221 C1219 1.478 . S
C1221 C1223 1.381 . S
C1221 C1227 1.383 . S
C1222 C1218 1.495 . S
C1222 H1228 0.959 . S
C1222 H1229 0.961 . S
C1222 H1230 0.960 . S
C1223 C1221 1.381 . S
C1223 C1224 1.394 . S
C1223 H1231 0.930 . S
C1224 C1223 1.394 . S
C1224 C1225 1.383 . S
C1224 H1232 0.929 . S
C1225 C1224 1.383 . S
C1225 C1226 1.377 . S
C1226 H1210 0.930 . S
C1226 C1225 1.377 . S
C1226 C1227 1.379 . S
C1227 H1211 0.931 . S
C1227 C1221 1.383 . S
C1227 C1226 1.379 . S
H1228 C1222 0.959 . S
H1229 C1222 0.961 . S
H1230 C1222 0.960 . S
H1231 C1223 0.930 . S
H1232 C1224 0.929 . S
C378 C15 1.856 . S
C397 C287 1.806 . S
C414 C47 1.691 . S
C433 C334 1.664 . S
C469 C338 1.897 . S
C450 C100 1.962 . S
C505 C303 1.552 . S
C486 C146 1.612 . S
C522 C192 1.790 . S
C541 C318 1.732 . S
C577 C340 0.833 . S
C558 C245 0.887 . S
C613 C309 1.349 . S
C594 C114 1.369 . S
C630 C160 1.378 . S
C649 C349 1.360 . S
C685 C278 1.256 . S
C666 C206 1.269 . S
C702 C231 1.528 . S
C721 C307 1.455 . S
C738 C1 2.049 1_556 S
C757 C365 1.993 . S
C793 C276 1.565 . S
C774 C61 1.599 1_556 S
C829 C294 1.812 . S
C810 C139 1.855 . S
C865 C308 1.672 . S
C846 C185 1.682 . S
C901 C362 1.889 . S
C882 C252 1.964 . S
C937 C277 1.589 . S
C918 C22 1.612 1_556 S
C973 C325 1.693 . S
C954 C54 1.780 1_556 S
C990 C93 0.890 . S
C1009 C348 0.826 . S
C1045 C317 1.313 . S
C1026 C238 1.363 . S
C1081 C356 1.307 . S
C1062 C8 1.376 . S
C1117 C286 1.255 . S
C1098 C68 1.277 . S
C1153 C331 1.457 . S
C1134 C107 1.528 . S
C1170 C153 2.048 . S
C1189 C339 1.987 . S
C1206 C199 1.607 . S
C1225 C300 1.536 . S
