# Generated by pormake.
# Topology anh, (6,3)-cn, num edge types: 1
# Building blocks:
#     Node 0, Type 0, BuildingBlock: NUHQIS_clean_sbu_0, # of connection points: 6
#     Node 1, Type 0, BuildingBlock: NUHQIS_clean_sbu_0, # of connection points: 6
#     Node 2, Type 0, BuildingBlock: NUHQIS_clean_sbu_0, # of connection points: 6
#     Node 3, Type 1, BuildingBlock: PAMTOO_clean_linker_0, # of connection points: 3
#     Node 4, Type 1, BuildingBlock: PAMTOO_clean_linker_0, # of connection points: 3
#     Node 5, Type 1, BuildingBlock: PAMTOO_clean_linker_0, # of connection points: 3
#     Node 6, Type 1, BuildingBlock: PAMTOO_clean_linker_0, # of connection points: 3
#     Node 7, Type 1, BuildingBlock: PAMTOO_clean_linker_0, # of connection points: 3
#     Node 8, Type 1, BuildingBlock: PAMTOO_clean_linker_0, # of connection points: 3
#     Edge 9, Type (0, 1), BuildingBlock: CIFDUS_clean_linker_0, # of connection points: 2
#     Edge 10, Type (0, 1), BuildingBlock: CIFDUS_clean_linker_0, # of connection points: 2
#     Edge 11, Type (0, 1), BuildingBlock: CIFDUS_clean_linker_0, # of connection points: 2
#     Edge 12, Type (0, 1), BuildingBlock: CIFDUS_clean_linker_0, # of connection points: 2
#     Edge 13, Type (0, 1), BuildingBlock: CIFDUS_clean_linker_0, # of connection points: 2
#     Edge 14, Type (0, 1), BuildingBlock: CIFDUS_clean_linker_0, # of connection points: 2
#     Edge 15, Type (0, 1), BuildingBlock: CIFDUS_clean_linker_0, # of connection points: 2
#     Edge 16, Type (0, 1), BuildingBlock: CIFDUS_clean_linker_0, # of connection points: 2
#     Edge 17, Type (0, 1), BuildingBlock: CIFDUS_clean_linker_0, # of connection points: 2
#     Edge 18, Type (0, 1), BuildingBlock: CIFDUS_clean_linker_0, # of connection points: 2
#     Edge 19, Type (0, 1), BuildingBlock: CIFDUS_clean_linker_0, # of connection points: 2
#     Edge 20, Type (0, 1), BuildingBlock: CIFDUS_clean_linker_0, # of connection points: 2
#     Edge 21, Type (0, 1), BuildingBlock: CIFDUS_clean_linker_0, # of connection points: 2
#     Edge 22, Type (0, 1), BuildingBlock: CIFDUS_clean_linker_0, # of connection points: 2
#     Edge 23, Type (0, 1), BuildingBlock: CIFDUS_clean_linker_0, # of connection points: 2
#     Edge 24, Type (0, 1), BuildingBlock: CIFDUS_clean_linker_0, # of connection points: 2
#     Edge 25, Type (0, 1), BuildingBlock: CIFDUS_clean_linker_0, # of connection points: 2
#     Edge 26, Type (0, 1), BuildingBlock: CIFDUS_clean_linker_0, # of connection points: 2
# Relax obj value: 0.298
# Max RMSD: 0.149
# Mean RMSD: 0.121
data_MOF--net-anh--node1-NUHQIS_clean_sbu_0--node2-PAMTOO_clean_linker_0--edge1-CIFDUS_clean_linker_0
_symmetry_space_group_name_H-M    P1
_symmetry_Int_Tables_number       1
_symmetry_cell_setting            triclinic
loop_
_symmetry_equiv_pos_as_xyz
'x, y, z'
_cell_length_a     26.410786
_cell_length_b     26.655563
_cell_length_c     43.803089
_cell_angle_alpha  86.151905
_cell_angle_beta   94.57198
_cell_angle_gamma 120.16927
loop_
_atom_site_label
_atom_site_type_symbol
_atom_site_fract_x
_atom_site_fract_y
_atom_site_fract_z
_atom_type_partial_charge
Tb0 Tb 0.26672 0.64454 0.1623 0.0
Eu1 Eu 0.18763 0.70627 0.14938 0.0
C2 C 0.21585 0.67443 0.2156 0.0
C3 C 1.12417 0.56401 0.15804 0.0
C4 C 0.33371 0.54871 0.16358 0.0
C5 C 0.38165 0.49117 0.17006 0.0
C6 C 0.37233 0.53425 0.18019 0.0
C7 C 0.30269 0.51826 0.13725 0.0
C8 C 0.31203 0.4751 0.12704 0.0
C9 C 0.35248 0.46188 0.14305 0.0
C10 C 0.33009 0.59853 0.17286 0.0
O11 O 0.24033 0.63434 0.11311 0.0
O12 O 0.22955 0.71406 0.10557 0.0
O13 O 0.27863 0.78102 0.16287 0.0
O14 O 0.33446 0.7384 0.15819 0.0
C15 C 0.23654 0.67354 0.09462 0.0
O16 O 1.12512 0.72168 0.1207 0.0
O17 O 1.15706 0.76216 0.16481 0.0
O18 O 0.17263 0.66646 0.1963 0.0
O19 O 0.26379 0.67929 0.20572 0.0
O20 O 0.17586 0.5688 0.16636 0.0
O21 O 1.12051 0.60971 0.14747 0.0
C22 C 0.33055 0.78519 0.16201 0.0
O23 O 0.33918 0.63837 0.15164 0.0
O24 O 0.28631 0.58741 0.18921 0.0
C25 C 1.05621 0.72102 0.15125 0.0
C26 C 0.93529 0.65034 0.15973 0.0
C27 C 0.95575 0.69671 0.1379 0.0
C28 C 1.0158 0.73165 0.13364 0.0
C29 C 1.03624 0.67747 0.17451 0.0
C30 C 0.97633 0.64254 0.17877 0.0
C31 C 1.11717 0.74813 0.14232 0.0
H32 H 0.41363 0.48262 0.18269 0.0
H33 H 0.39678 0.55762 0.2005 0.0
H34 H 0.27258 0.52895 0.12419 0.0
H35 H 0.28842 0.45281 0.10635 0.0
H36 H 0.92528 0.70337 0.12254 0.0
H37 H 1.03034 0.76459 0.11538 0.0
H38 H 1.06668 0.66815 0.18822 0.0
H39 H 0.96198 0.60746 0.19586 0.0
Tb40 Tb 0.81272 0.15024 0.49194 0.0
Eu41 Eu 0.67219 1.064 0.4851 0.0
C42 C 0.73648 0.1115 0.54907 0.0
C43 C 0.75718 1.00932 0.49136 0.0
C44 C 0.96225 0.27551 0.50438 0.0
C45 C 1.06103 0.35785 0.50896 0.0
C46 C 1.02283 0.2978 0.50876 0.0
C47 C 0.93989 0.31346 0.50202 0.0
C48 C 0.97783 0.37329 0.50189 0.0
C49 C 1.03904 0.39638 0.50441 0.0
C50 C 0.92298 0.21351 0.4993 0.0
O51 O 0.79628 0.1407 0.44197 0.0
O52 O 0.69562 1.08996 0.43661 0.0
O53 O 0.68512 0.15424 0.49452 0.0
O54 O 0.78317 0.21542 0.4869 0.0
C55 C 0.74702 0.1189 0.42481 0.0
O56 O 0.59523 0.98322 0.4992 0.0
O57 O 0.58482 1.04336 0.46711 0.0
O58 O 0.69951 1.06475 0.53453 0.0
O59 O 0.77914 0.15544 0.53486 0.0
O60 O 0.7979 1.06065 0.50175 0.0
O61 O 0.70824 1.00362 0.47785 0.0
C62 C 0.73067 0.20767 0.49156 0.0
O63 O 0.88892 0.1835 0.52131 0.0
O64 O 0.89433 0.2015 0.47278 0.0
C65 C 0.50754 0.9862 0.50004 0.0
C66 C 0.40059 0.96435 0.52182 0.0
C67 C 0.40941 0.91822 0.51558 0.0
C68 C 0.46231 0.92913 0.50476 0.0
C69 C 0.50111 1.03245 0.50865 0.0
C70 C 0.44792 1.02157 0.51947 0.0
C71 C 0.55856 0.99589 0.48394 0.0
H72 H 1.10779 0.37406 0.51145 0.0
H73 H 1.0407 0.2689 0.51079 0.0
H74 H 0.89318 0.29693 0.49867 0.0
H75 H 0.95899 0.40117 0.49782 0.0
H76 H 0.37393 0.87363 0.51662 0.0
H77 H 0.4667 0.89292 0.49844 0.0
H78 H 0.53603 1.07696 0.50565 0.0
H79 H 0.44272 1.05798 0.52436 0.0
Tb80 Tb 0.8155 0.70204 0.81883 0.0
Eu81 Eu 0.73033 0.56243 0.82532 0.0
C82 C 0.77992 0.63771 0.88185 0.0
C83 C 0.87431 0.6195 0.82771 0.0
C84 C 0.87005 0.8578 0.82772 0.0
C85 C 0.82475 0.89222 0.86062 0.0
C86 C 0.84231 0.85245 0.85479 0.0
C87 C 0.88323 0.90529 0.80759 0.0
C88 C 0.86502 0.94455 0.81316 0.0
C89 C 0.83357 0.93727 0.83918 0.0
C90 C 0.87883 0.811 0.8182 0.0
O91 O 0.8107 0.67121 0.77295 0.0
O92 O 0.72431 0.58477 0.77526 0.0
O93 O 0.6702 0.59948 0.83158 0.0
O94 O 0.72662 0.6923 0.81252 0.0
C95 C 0.76593 0.62662 0.7594 0.0
O96 O 0.69518 0.4725 0.81287 0.0
O97 O 0.65787 0.49274 0.84957 0.0
O98 O 0.7807 0.59506 0.86964 0.0
O99 O 0.77873 0.67853 0.86405 0.0
O100 O 0.88029 0.67195 0.82709 0.0
O101 O 0.82173 0.57237 0.82545 0.0
C102 C 0.67591 0.65009 0.82245 0.0
O103 O 0.88274 0.77686 0.83989 0.0
O104 O 0.84489 0.78194 0.79497 0.0
C105 C 0.64624 0.39853 0.8515 0.0
C106 C 0.60562 0.28353 0.87314 0.0
C107 C 0.6584 0.31403 0.85796 0.0
C108 C 0.67848 0.37108 0.8471 0.0
C109 C 0.59701 0.3702 0.86941 0.0
C110 C 0.57688 0.31319 0.8802 0.0
C111 C 0.6572 0.45211 0.83427 0.0
H112 H 0.80154 0.88583 0.88111 0.0
H113 H 0.83159 0.81605 0.87073 0.0
H114 H 0.90441 0.91 0.78655 0.0
H115 H 0.87191 0.97794 0.79581 0.0
H116 H 0.68124 0.29217 0.8519 0.0
H117 H 0.71682 0.39206 0.83353 0.0
H118 H 0.57158 0.39067 0.8732 0.0
H119 H 0.53629 0.2908 0.89194 0.0
H120 H 0.87223 0.27578 0.2423 0.0
H121 H 0.71514 0.10792 0.23728 0.0
H122 H 0.79015 0.20433 0.15445 0.0
H123 H 0.64033 0.116 0.15071 0.0
C124 C 0.64274 1.09521 0.17319 0.0
O125 O 0.7001 0.10489 0.17852 0.0
H126 H 0.63364 0.11736 0.19088 0.0
C127 C 0.83731 0.24138 0.22885 0.0
C128 C 0.83767 0.24728 0.19661 0.0
C129 C 0.79364 0.19152 0.24395 0.0
C130 C 0.74818 0.14718 0.22622 0.0
C131 C 0.74491 0.15135 0.19415 0.0
C132 C 0.79073 0.20143 0.17923 0.0
H133 H 0.76864 0.73552 0.57208 0.0
H134 H 0.77236 0.57633 0.57157 0.0
H135 H 0.74666 0.65388 0.48628 0.0
H136 H 0.68478 0.50425 0.4905 0.0
C137 C 0.71472 0.50659 0.51036 0.0
O138 O 0.76063 0.56463 0.51245 0.0
H139 H 0.6889 0.4943 0.53118 0.0
C140 C 0.76655 0.70113 0.55919 0.0
C141 C 0.75781 0.70229 0.52707 0.0
C142 C 0.77108 0.65603 0.5754 0.0
C143 C 0.7672 0.61022 0.5592 0.0
C144 C 0.75824 0.60803 0.5271 0.0
C145 C 0.75271 0.65427 0.511 0.0
H146 H 0.1597 0.6307 0.91084 0.0
H147 H 0.32114 0.62763 0.91088 0.0
H148 H 0.23272 0.63622 0.82518 0.0
H149 H 0.39847 0.70113 0.86797 0.0
C150 C 0.38278 0.6734 0.84759 0.0
O151 O 0.32528 0.62767 0.85156 0.0
H152 H 0.38164 0.70072 0.82754 0.0
C153 C 0.19373 0.63118 0.89829 0.0
C154 C 0.18902 0.63312 0.86607 0.0
C155 C 0.24144 0.63043 0.91471 0.0
C156 C 0.28485 0.62934 0.89845 0.0
C157 C 0.28314 0.63201 0.86621 0.0
C158 C 0.2351 0.63475 0.84998 0.0
H159 H 1.14015 0.65552 0.3955 0.0
H160 H 1.14597 0.81597 0.36797 0.0
H161 H 1.14395 0.76719 0.46336 0.0
H162 H 1.07796 0.81596 0.44937 0.0
C163 C 1.11357 0.85736 0.43964 0.0
O164 O 1.1508 0.84826 0.4233 0.0
H165 H 1.09284 0.87758 0.42424 0.0
C166 C 1.14239 0.69533 0.40164 0.0
C167 C 1.14022 0.70552 0.43246 0.0
C168 C 1.14515 0.73508 0.37829 0.0
C169 C 1.14325 0.7845 0.38573 0.0
C170 C 1.14294 0.79612 0.41636 0.0
C171 C 1.14277 0.7573 0.43969 0.0
H172 H 0.71511 1.09525 0.73171 0.0
H173 H 0.53861 1.06114 0.71152 0.0
H174 H 0.60855 1.08003 0.80454 0.0
H175 H 0.49631 0.98386 0.79366 0.0
C176 C 0.47846 1.01328 0.78695 0.0
O177 O 0.5158 1.05974 0.76857 0.0
H178 H 0.43565 0.98743 0.77416 0.0
C179 C 0.67476 1.09041 0.73933 0.0
C180 C 0.66711 1.08834 0.77078 0.0
C181 C 0.62914 1.08142 0.71765 0.0
C182 C 0.57466 1.06879 0.72783 0.0
C183 C 0.56717 1.06836 0.75913 0.0
C184 C 0.61406 1.08009 0.78041 0.0
H185 H 0.66627 0.54954 0.05771 0.0
H186 H 0.56114 0.39093 0.00961 0.0
H187 H 0.5822 0.38583 0.10768 0.0
H188 H 0.45411 0.24971 0.06568 0.0
C189 C 0.47134 0.29304 0.05395 0.0
O190 O 0.5318 0.32368 0.05895 0.0
H191 H 0.46049 0.28527 0.02904 0.0
C192 C 0.63688 0.50295 0.05809 0.0
C193 C 0.62679 0.47151 0.0861 0.0
C194 C 0.61433 0.47462 0.03029 0.0
C195 C 0.57805 0.41399 0.03081 0.0
C196 C 0.56508 0.38233 0.05874 0.0
C197 C 0.58971 0.41098 0.08634 0.0
H198 H 0.3707 0.45397 0.08392 0.0
H199 H 0.36982 0.37898 0.17444 0.0
H200 H 0.4048 0.31884 0.15471 0.0
H201 H 0.44022 0.29106 0.11201 0.0
H202 H 0.4404 0.3658 0.02171 0.0
H203 H 0.40063 0.42237 0.04094 0.0
C204 C 0.37696 0.4236 0.09923 0.0
C205 C 0.36772 0.42101 0.1306 0.0
C206 C 0.39717 0.38934 0.08776 0.0
C207 C 0.37721 0.38223 0.15024 0.0
C208 C 0.39708 0.34776 0.13898 0.0
C209 C 0.43055 0.31911 0.0966 0.0
C210 C 0.44215 0.32383 0.06551 0.0
C211 C 0.40794 0.35152 0.10786 0.0
C212 C 0.4308 0.36104 0.04566 0.0
C213 C 0.40836 0.39345 0.05666 0.0
H214 H 1.02831 0.48765 0.52085 0.0
H215 H 1.1389 0.44711 0.47242 0.0
H216 H 0.18925 0.54551 0.45087 0.0
H217 H 0.18905 0.63612 0.43794 0.0
H218 H 1.06913 0.67162 0.48073 0.0
H219 H 1.03615 0.58309 0.51242 0.0
C220 C 1.0638 0.50046 0.5058 0.0
C221 C 1.07869 0.45936 0.49782 0.0
C222 C 1.09056 0.5563 0.49207 0.0
C223 C 1.12626 0.47747 0.47914 0.0
C224 C 1.15476 0.53374 0.46642 0.0
C225 C 1.15605 0.62476 0.45439 0.0
C226 C 1.13059 0.65974 0.45636 0.0
C227 C 1.1352 0.57241 0.47148 0.0
C228 C 1.08944 0.6455 0.4786 0.0
C229 C 1.07007 0.5945 0.49656 0.0
H230 H 0.871 1.05089 0.82241 0.0
H231 H 0.72351 0.89651 0.85897 0.0
H232 H 0.66149 0.93909 0.84781 0.0
H233 H 0.64338 1.00798 0.81634 0.0
H234 H 0.78691 0.1566 0.77374 0.0
H235 H 0.85593 0.12864 0.79839 0.0
C236 C 0.82552 1.02694 0.82838 0.0
C237 C 0.80188 0.96995 0.8408 0.0
C238 C 0.78891 1.05026 0.82021 0.0
C239 C 0.74332 0.9404 0.8494 0.0
C240 C 0.70735 0.96445 0.84265 0.0
C241 C 0.69005 1.03556 0.81343 0.0
C242 C 0.71005 1.08368 0.7929 0.0
C243 C 0.72882 1.01767 0.82641 0.0
C244 C 0.77056 0.11886 0.78916 0.0
C245 C 0.80989 1.10268 0.8031 0.0
H246 H 0.8403 0.66589 0.15486 0.0
H247 H 0.88879 0.53302 0.16187 0.0
H248 H 0.78868 0.4601 0.14718 0.0
H249 H 0.69527 0.4393 0.12075 0.0
H250 H 0.64814 0.57281 0.1102 0.0
H251 H 0.73884 0.63971 0.13843 0.0
C252 C 0.8285 0.62072 0.15384 0.0
C253 C 0.8722 0.60522 0.15888 0.0
C254 C 0.77106 0.5791 0.14441 0.0
C255 C 0.85613 0.54633 0.15812 0.0
C256 C 0.79886 0.50451 0.14944 0.0
C257 C 0.70354 0.48212 0.1259 0.0
C258 C 0.66575 0.50155 0.11301 0.0
C259 C 0.75689 0.52101 0.14093 0.0
C260 C 0.67707 0.55723 0.1197 0.0
C261 C 0.72921 0.59566 0.13552 0.0
H262 H 0.35188 1.02539 0.49433 0.0
H263 H 0.3115 0.8755 0.55363 0.0
H264 H 0.20738 0.83415 0.53895 0.0
H265 H 1.13552 0.82866 0.49804 0.0
H266 H 0.17936 0.97524 0.43593 0.0
H267 H 0.27337 1.03134 0.46407 0.0
C268 C 0.32025 0.98506 0.50529 0.0
C269 C 0.33964 0.95245 0.52409 0.0
C270 C 0.2608 0.96064 0.49586 0.0
C271 C 0.29777 0.90052 0.53826 0.0
C272 C 0.23821 0.87675 0.52979 0.0
C273 C 0.16461 0.87379 0.49164 0.0
C274 C 1.15147 0.89753 0.46464 0.0
C275 C 0.22005 0.9044 0.5068 0.0
C276 C 0.18885 0.95616 0.45663 0.0
C277 C 0.24303 0.98788 0.47243 0.0
H278 H 0.49388 0.21208 0.85385 0.0
H279 H 0.6483 0.21143 0.89352 0.0
H280 H 0.60812 0.11139 0.87787 0.0
H281 H 0.54243 1.03676 0.84139 0.0
H282 H 0.39993 1.04916 0.79374 0.0
H283 H 0.41884 0.12903 0.82564 0.0
C284 C 0.5176 0.18921 0.86033 0.0
C285 C 0.57435 0.21924 0.87437 0.0
C286 C 0.49597 0.13342 0.84954 0.0
C287 C 0.60482 0.18926 0.88236 0.0
C288 C 0.58196 0.13223 0.87327 0.0
C289 C 0.51471 1.05614 0.83867 0.0
C290 C 0.47117 1.03869 0.81472 0.0
C291 C 0.52959 0.10561 0.855 0.0
C292 C 0.43396 1.0623 0.81196 0.0
C293 C 0.44546 0.10862 0.82985 0.0
H294 H 0.68971 0.89329 0.4711 0.0
H295 H 0.84547 1.0045 0.52613 0.0
H296 H 0.861 0.9231 0.53963 0.0
H297 H 0.8298 0.81904 0.53838 0.0
H298 H 0.67611 0.70524 0.48336 0.0
H299 H 0.66172 0.78773 0.46714 0.0
C300 C 0.72733 0.90004 0.4859 0.0
C301 C 0.76612 0.95663 0.4975 0.0
C302 C 0.73684 0.85187 0.49366 0.0
C303 C 0.81448 0.96283 0.51659 0.0
C304 C 0.82358 0.91572 0.52447 0.0
C305 C 0.79327 0.81191 0.52254 0.0
C306 C 0.75416 0.75462 0.51232 0.0
C307 C 0.78499 0.85989 0.51345 0.0
C308 C 0.70761 0.74793 0.49157 0.0
C309 C 0.699 0.7955 0.4825 0.0
H310 H 0.99209 0.69607 0.81465 0.0
H311 H 0.87948 0.52667 0.85484 0.0
H312 H 0.9642 0.51444 0.86825 0.0
H313 H 1.07179 0.55308 0.87141 0.0
H314 H 0.18523 0.719 0.82861 0.0
H315 H 1.10001 0.73068 0.81322 0.0
C316 C 0.98589 0.65626 0.82616 0.0
C317 C 0.92825 0.6125 0.83376 0.0
C318 C 1.03559 0.6486 0.83332 0.0
C319 C 0.92227 0.56123 0.84847 0.0
C320 C 0.97116 0.55415 0.85628 0.0
C321 C 1.0779 0.59131 0.85808 0.0
C322 C 1.13571 0.63478 0.85097 0.0
C323 C 1.02818 0.59758 0.84911 0.0
C324 C 1.1419 0.6842 0.83401 0.0
C325 C 1.09284 0.69117 0.82547 0.0
H326 H 0.45089 0.82135 0.15772 0.0
H327 H 0.33605 0.88671 0.17497 0.0
H328 H 0.41999 0.98354 0.18104 0.0
H329 H 0.52623 1.05248 0.18068 0.0
H330 H 0.64395 0.99205 0.16239 0.0
H331 H 0.56022 0.8925 0.15771 0.0
C332 C 0.44405 0.85663 0.16287 0.0
C333 C 0.38559 0.84508 0.16575 0.0
C334 C 0.49377 0.91404 0.16634 0.0
C335 C 0.3792 0.89264 0.17241 0.0
C336 C 0.42771 0.94876 0.17599 0.0
C337 C 0.53396 1.01747 0.17612 0.0
C338 C 0.59246 1.03059 0.17279 0.0
C339 C 0.4852 0.96025 0.17298 0.0
C340 C 0.60037 0.9841 0.16589 0.0
C341 C 0.552 0.92681 0.163 0.0
H342 H 0.81256 0.32907 0.49282 0.0
H343 H 0.62758 0.20594 0.49804 0.0
H344 H 0.60847 0.28479 0.50419 0.0
H345 H 0.64204 0.38906 0.50836 0.0
H346 H 0.82551 0.515 0.50353 0.0
H347 H 0.84674 0.43625 0.49714 0.0
C348 C 0.76795 0.31924 0.49522 0.0
C349 C 0.72168 0.25988 0.4948 0.0
C350 C 0.75667 0.36605 0.49897 0.0
C351 C 0.66453 0.2498 0.49815 0.0
C352 C 0.65333 0.29542 0.50173 0.0
C353 C 0.68692 0.39961 0.50598 0.0
C354 C 0.73187 0.45895 0.50666 0.0
C355 C 0.69877 0.35371 0.50224 0.0
C356 C 0.78958 0.47063 0.50331 0.0
C357 C 0.80173 0.42509 0.49959 0.0
H358 H 0.56474 0.57738 0.84554 0.0
H359 H 0.66927 0.74723 0.80355 0.0
H360 H 0.58905 0.76698 0.80644 0.0
H361 H 0.4892 0.73802 0.82161 0.0
H362 H 0.38429 0.57022 0.86493 0.0
H363 H 0.46334 0.54808 0.86069 0.0
C364 C 0.5701 0.61869 0.83681 0.0
C365 C 0.62423 0.66052 0.82409 0.0
C366 C 0.52295 0.63024 0.83867 0.0
C367 C 0.62914 0.71378 0.81333 0.0
C368 C 0.58283 0.72525 0.81498 0.0
C369 C 0.48304 0.69608 0.82972 0.0
C370 C 0.4292 0.65531 0.84278 0.0
C371 C 0.52948 0.68401 0.8276 0.0
C372 C 0.42378 0.6021 0.85402 0.0
C373 C 0.46954 0.58957 0.85175 0.0
H374 H 1.08946 0.44576 0.15082 0.0
H375 H 1.02726 0.55545 0.18032 0.0
H376 H 0.93445 0.4703 0.19322 0.0
H377 H 0.87018 0.36327 0.19848 0.0
H378 H 0.92651 0.25187 0.16534 0.0
H379 H 1.01999 0.33723 0.15147 0.0
C380 C 1.05561 0.45111 0.15999 0.0
C381 C 1.06673 0.50825 0.16465 0.0
C382 C 1.00016 0.40084 0.16666 0.0
C383 C 1.02104 0.51303 0.17627 0.0
C384 C 0.96741 0.46389 0.18378 0.0
C385 C 0.90229 0.35755 0.18757 0.0
C386 C 0.89 0.30029 0.18264 0.0
C387 C 0.95623 0.4074 0.17925 0.0
C388 C 0.93339 0.29472 0.16892 0.0
C389 C 0.98752 0.34392 0.16126 0.0
H390 H 0.26015 0.6044 0.06044 0.0
H391 H 0.21449 0.73952 0.0517 0.0
H392 H 0.21306 0.73842 -0.00363 0.0
H393 H 0.22351 0.6995 0.94995 0.0
H394 H 0.26975 0.56529 0.95673 0.0
H395 H 0.27301 0.56634 0.01285 0.0
C396 C 0.24996 0.6336 0.04642 0.0
C397 C 0.23735 0.67188 0.0606 0.0
C398 C 0.24944 0.63316 0.01405 0.0
C399 C 0.22451 0.70955 0.04182 0.0
C400 C 0.22357 0.70902 0.00996 0.0
C401 C 0.23395 0.67013 0.96365 0.0
C402 C 0.24582 0.63202 0.949 0.0
C403 C 0.2357 0.67097 -0.00419 0.0
C404 C 0.26061 0.59528 0.96729 0.0
C405 C 0.26218 0.59567 -0.00056 0.0
H406 H 0.84237 0.17301 0.38818 0.0
H407 H 0.65298 1.08582 0.3842 0.0
H408 H 0.65118 1.10228 0.32915 0.0
H409 H 0.70199 0.14195 0.28182 0.0
H410 H 0.89075 0.22499 0.28392 0.0
H411 H 0.89382 0.21097 0.33961 0.0
C412 C 0.80072 0.15742 0.37527 0.0
C413 C 0.74798 0.12804 0.39073 0.0
C414 C 0.79965 0.16682 0.34308 0.0
C415 C 0.6945 0.10837 0.37333 0.0
C416 C 0.69324 0.11789 0.34164 0.0
C417 C 0.74394 0.15646 0.29426 0.0
C418 C 0.79598 0.18453 0.27829 0.0
C419 C 0.74542 0.14706 0.32625 0.0
C420 C 0.84982 0.20407 0.29533 0.0
C421 C 0.85165 0.19556 0.32729 0.0
H422 H 0.83235 0.71016 0.71681 0.0
H423 H 0.69022 0.53337 0.72499 0.0
H424 H 0.68138 0.52568 0.66947 0.0
H425 H 0.71168 0.56979 0.61797 0.0
H426 H 0.85149 0.74728 0.60957 0.0
H427 H 0.86354 0.75383 0.66535 0.0
C428 C 0.79959 0.66985 0.7065 0.0
C429 C 0.76202 0.62252 0.72533 0.0
C430 C 0.79419 0.66575 0.67428 0.0
C431 C 0.71969 0.57075 0.7113 0.0
C432 C 0.71458 0.56618 0.67942 0.0
C433 C 0.74521 0.60964 0.62839 0.0
C434 C 0.78058 0.65795 0.60954 0.0
C435 C 0.75133 0.61344 0.66061 0.0
C436 C 0.82336 0.70955 0.62348 0.0
C437 C 0.83033 0.71333 0.65543 0.0
H438 H 0.63883 1.03981 0.57917 0.0
H439 H 0.80942 0.19299 0.59075 0.0
H440 H 0.78971 0.19881 0.64373 0.0
H441 H 0.72451 0.15895 0.68679 0.0
H442 H 0.55458 1.0053 0.67462 0.0
H443 H 0.57315 1.00193 0.62129 0.0
C444 C 0.67202 1.0744 0.59326 0.0
C445 C 0.72589 0.11553 0.58117 0.0
C446 C 0.66021 1.07769 0.62339 0.0
C447 C 0.7678 0.16059 0.59961 0.0
C448 C 0.75649 0.16397 0.62983 0.0
C449 C 0.69161 0.1247 0.67244 0.0
C450 C 0.63834 1.08227 0.68465 0.0
C451 C 0.70294 0.12256 0.64197 0.0
C452 C 0.59565 1.03876 0.66569 0.0
C453 C 0.60646 1.03651 0.63531 0.0
H454 H 0.66753 0.57879 0.89548 0.0
H455 H 0.84347 0.66679 0.93603 0.0
H456 H 0.80621 0.62667 0.98677 0.0
H457 H 0.72521 0.55746 0.01777 0.0
H458 H 0.54926 0.46533 0.97683 0.0
H459 H 0.58494 0.51535 0.92756 0.0
C460 C 0.69727 0.59038 0.91568 0.0
C461 C 0.7578 0.62626 0.91253 0.0
C462 C 0.67568 0.56534 0.94431 0.0
C463 C 0.7966 0.6401 0.93836 0.0
C464 C 0.77533 0.61665 0.96716 0.0
C465 C 0.69432 0.5493 -0.0017 0.0
C466 C 0.63458 0.50781 0.00095 0.0
C467 C 0.71518 0.57789 0.97019 0.0
C468 C 0.59548 0.49667 0.97526 0.0
C469 C 0.6158 0.52544 0.94719 0.0
H470 H 1.13811 0.69845 0.23742 0.0
H471 H 0.28321 0.67175 0.26626 0.0
H472 H 0.2734 0.68747 0.31955 0.0
H473 H 0.22332 0.70926 0.35763 0.0
H474 H 1.08092 0.7392 0.32746 0.0
H475 H 1.09006 0.7218 0.2746 0.0
C476 C 0.16753 0.69564 0.25531 0.0
C477 C 0.21106 0.68339 0.24794 0.0
C478 C 0.16215 0.70552 0.28552 0.0
C479 C 0.24931 0.68097 0.27138 0.0
C480 C 0.24365 0.68993 0.30179 0.0
C481 C 0.1942 0.71167 0.33942 0.0
C482 C 1.15131 0.72522 0.34629 0.0
C483 C 0.2002 0.70224 0.30908 0.0
C484 C 1.11437 0.72914 0.32259 0.0
C485 C 1.11947 0.719 0.29247 0.0
loop_
_geom_bond_atom_site_label_1
_geom_bond_atom_site_label_2
_geom_bond_distance
_geom_bond_site_symmetry_2
_ccdc_geom_bond_type
Tb0 C10 2.825 . S
Tb0 O11 2.347 . S
Tb0 O14 2.366 . S
Tb0 O19 2.418 . S
Tb0 O20 2.384 1_455 S
Tb0 O23 2.479 . S
Tb0 O24 2.471 . S
Eu1 O12 2.418 . S
Eu1 O13 2.384 1_655 S
Eu1 O16 2.479 . S
Eu1 O17 2.471 . S
Eu1 O18 2.346 1_655 S
Eu1 O21 2.366 . S
Eu1 C31 2.825 . S
C2 O18 1.260 . S
C2 O19 1.265 . S
C3 O20 1.255 . S
C3 O21 1.265 . S
C4 C6 1.380 . S
C4 C7 1.374 . S
C4 C10 1.507 . S
C5 C6 1.384 . S
C5 C9 1.387 . S
C5 H32 0.930 . S
C6 C4 1.380 . S
C6 C5 1.384 . S
C6 H33 0.931 . S
C7 C4 1.374 . S
C7 C8 1.390 . S
C7 H34 0.930 . S
C8 C7 1.390 . S
C8 C9 1.391 . S
C8 H35 0.930 . S
C9 C5 1.387 . S
C9 C8 1.391 . S
C10 Tb0 2.825 . S
C10 C4 1.507 . S
C10 O23 1.238 . S
C10 O24 1.247 . S
O11 Tb0 2.347 . S
O11 C15 1.259 . S
O12 Eu1 2.418 . S
O12 C15 1.265 1_655 S
O13 Eu1 2.384 1_455 S
O13 C22 1.255 . S
O14 Tb0 2.366 . S
O14 C22 1.265 . S
C15 O11 1.259 . S
C15 O12 1.265 1_455 S
O16 Eu1 2.479 . S
O16 C31 1.238 . S
O17 Eu1 2.471 . S
O17 C31 1.247 . S
O18 Eu1 2.346 1_455 S
O18 C2 1.260 . S
O19 Tb0 2.418 . S
O19 C2 1.265 . S
O20 Tb0 2.384 1_655 S
O20 C3 1.255 . S
O21 Eu1 2.366 . S
O21 C3 1.265 . S
C22 O13 1.255 . S
C22 O14 1.265 . S
O23 Tb0 2.479 . S
O23 C10 1.238 . S
O24 Tb0 2.471 . S
O24 C10 1.247 . S
C25 C28 1.380 . S
C25 C29 1.374 . S
C25 C31 1.507 . S
C26 C27 1.387 . S
C26 C30 1.391 . S
C27 C26 1.387 . S
C27 C28 1.384 . S
C27 H36 0.930 . S
C28 C25 1.380 . S
C28 C27 1.384 . S
C28 H37 0.931 . S
C29 C25 1.374 . S
C29 C30 1.390 . S
C29 H38 0.930 . S
C30 C26 1.391 . S
C30 C29 1.390 . S
C30 H39 0.930 . S
C31 Eu1 2.825 . S
C31 O16 1.238 . S
C31 O17 1.247 . S
C31 C25 1.507 . S
H32 C5 0.930 . S
H33 C6 0.931 . S
H34 C7 0.930 . S
H35 C8 0.930 . S
H36 C27 0.930 . S
H37 C28 0.931 . S
H38 C29 0.930 . S
H39 C30 0.930 . S
Tb40 C50 2.825 . S
Tb40 O51 2.347 . S
Tb40 O54 2.366 . S
Tb40 O59 2.418 . S
Tb40 O60 2.384 1_545 S
Tb40 O63 2.479 . S
Tb40 O64 2.471 . S
Eu41 O52 2.418 . S
Eu41 O53 2.384 . S
Eu41 O56 2.479 1_545 S
Eu41 O57 2.471 1_545 S
Eu41 O58 2.347 . S
Eu41 O61 2.366 1_545 S
Eu41 C71 2.825 1_545 S
C42 O58 1.259 . S
C42 O59 1.265 . S
C43 O60 1.255 . S
C43 O61 1.265 . S
C44 C46 1.380 . S
C44 C47 1.374 . S
C44 C50 1.507 . S
C45 C46 1.384 . S
C45 C49 1.387 . S
C45 H72 0.930 . S
C46 C44 1.380 . S
C46 C45 1.384 . S
C46 H73 0.931 . S
C47 C44 1.374 . S
C47 C48 1.390 . S
C47 H74 0.930 . S
C48 C47 1.390 . S
C48 C49 1.391 . S
C48 H75 0.930 . S
C49 C45 1.387 . S
C49 C48 1.391 . S
C50 Tb40 2.825 . S
C50 C44 1.507 . S
C50 O63 1.238 . S
C50 O64 1.247 . S
O51 Tb40 2.347 . S
O51 C55 1.259 . S
O52 Eu41 2.418 . S
O52 C55 1.265 . S
O53 Eu41 2.384 . S
O53 C62 1.255 . S
O54 Tb40 2.366 . S
O54 C62 1.265 . S
C55 O51 1.259 . S
C55 O52 1.265 . S
O56 Eu41 2.479 1_565 S
O56 C71 1.238 . S
O57 Eu41 2.471 1_565 S
O57 C71 1.247 . S
O58 Eu41 2.347 . S
O58 C42 1.259 . S
O59 Tb40 2.418 . S
O59 C42 1.265 . S
O60 Tb40 2.384 1_565 S
O60 C43 1.255 . S
O61 Eu41 2.366 1_565 S
O61 C43 1.265 . S
C62 O53 1.255 . S
C62 O54 1.265 . S
O63 Tb40 2.479 . S
O63 C50 1.238 . S
O64 Tb40 2.471 . S
O64 C50 1.247 . S
C65 C68 1.380 . S
C65 C69 1.374 . S
C65 C71 1.507 . S
C66 C67 1.387 . S
C66 C70 1.391 . S
C67 C66 1.387 . S
C67 C68 1.384 . S
C67 H76 0.930 . S
C68 C65 1.380 . S
C68 C67 1.384 . S
C68 H77 0.931 . S
C69 C65 1.374 . S
C69 C70 1.390 . S
C69 H78 0.930 . S
C70 C66 1.391 . S
C70 C69 1.390 . S
C70 H79 0.930 . S
C71 Eu41 2.825 1_565 S
C71 O56 1.238 . S
C71 O57 1.247 . S
C71 C65 1.507 . S
H72 C45 0.930 . S
H73 C46 0.931 . S
H74 C47 0.930 . S
H75 C48 0.930 . S
H76 C67 0.930 . S
H77 C68 0.931 . S
H78 C69 0.930 . S
H79 C70 0.930 . S
Tb80 C90 2.825 . S
Tb80 O91 2.347 . S
Tb80 O94 2.366 . S
Tb80 O99 2.418 . S
Tb80 O100 2.384 . S
Tb80 O103 2.479 . S
Tb80 O104 2.471 . S
Eu81 O92 2.418 . S
Eu81 O93 2.384 . S
Eu81 O96 2.479 . S
Eu81 O97 2.471 . S
Eu81 O98 2.347 . S
Eu81 O101 2.366 . S
Eu81 C111 2.825 . S
C82 O98 1.259 . S
C82 O99 1.265 . S
C83 O100 1.255 . S
C83 O101 1.265 . S
C84 C86 1.380 . S
C84 C87 1.374 . S
C84 C90 1.507 . S
C85 C86 1.384 . S
C85 C89 1.387 . S
C85 H112 0.930 . S
C86 C84 1.380 . S
C86 C85 1.384 . S
C86 H113 0.931 . S
C87 C84 1.374 . S
C87 C88 1.390 . S
C87 H114 0.930 . S
C88 C87 1.390 . S
C88 C89 1.391 . S
C88 H115 0.930 . S
C89 C85 1.387 . S
C89 C88 1.391 . S
C90 Tb80 2.825 . S
C90 C84 1.507 . S
C90 O103 1.238 . S
C90 O104 1.247 . S
O91 Tb80 2.347 . S
O91 C95 1.259 . S
O92 Eu81 2.418 . S
O92 C95 1.265 . S
O93 Eu81 2.384 . S
O93 C102 1.255 . S
O94 Tb80 2.366 . S
O94 C102 1.265 . S
C95 O91 1.259 . S
C95 O92 1.265 . S
O96 Eu81 2.479 . S
O96 C111 1.238 . S
O97 Eu81 2.471 . S
O97 C111 1.247 . S
O98 Eu81 2.347 . S
O98 C82 1.259 . S
O99 Tb80 2.418 . S
O99 C82 1.265 . S
O100 Tb80 2.384 . S
O100 C83 1.255 . S
O101 Eu81 2.366 . S
O101 C83 1.265 . S
C102 O93 1.255 . S
C102 O94 1.265 . S
O103 Tb80 2.479 . S
O103 C90 1.238 . S
O104 Tb80 2.471 . S
O104 C90 1.247 . S
C105 C108 1.380 . S
C105 C109 1.374 . S
C105 C111 1.507 . S
C106 C107 1.387 . S
C106 C110 1.391 . S
C107 C106 1.387 . S
C107 C108 1.384 . S
C107 H116 0.930 . S
C108 C105 1.380 . S
C108 C107 1.384 . S
C108 H117 0.931 . S
C109 C105 1.374 . S
C109 C110 1.390 . S
C109 H118 0.930 . S
C110 C106 1.391 . S
C110 C109 1.390 . S
C110 H119 0.930 . S
C111 Eu81 2.825 . S
C111 O96 1.238 . S
C111 O97 1.247 . S
C111 C105 1.507 . S
H112 C85 0.930 . S
H113 C86 0.931 . S
H114 C87 0.930 . S
H115 C88 0.930 . S
H116 C107 0.930 . S
H117 C108 0.931 . S
H118 C109 0.930 . S
H119 C110 0.930 . S
H120 C127 0.929 . S
H121 C130 0.930 . S
H122 C132 0.929 . S
H123 C124 0.969 . S
C124 H123 0.969 . S
C124 O125 1.550 . S
C124 H126 0.973 . S
O125 C124 1.550 . S
O125 C131 1.412 . S
H126 C124 0.973 . S
C127 H120 0.929 . S
C127 C128 1.400 . S
C127 C129 1.364 . S
C128 C127 1.400 . S
C128 C132 1.377 . S
C129 C127 1.364 . S
C129 C130 1.374 1_545 S
C130 H121 0.930 . S
C130 C129 1.374 1_565 S
C130 C131 1.383 . S
C131 O125 1.412 . S
C131 C130 1.383 . S
C131 C132 1.394 1_565 S
C132 H122 0.929 . S
C132 C128 1.377 . S
C132 C131 1.394 1_545 S
H133 C140 0.929 . S
H134 C143 0.930 . S
H135 C145 0.929 . S
H136 C137 0.969 . S
C137 H136 0.969 . S
C137 O138 1.550 . S
C137 H139 0.973 . S
O138 C137 1.550 . S
O138 C144 1.412 . S
H139 C137 0.973 . S
C140 H133 0.929 . S
C140 C141 1.400 . S
C140 C142 1.364 . S
C141 C140 1.400 . S
C141 C145 1.377 . S
C142 C140 1.364 . S
C142 C143 1.374 . S
C143 H134 0.930 . S
C143 C142 1.374 . S
C143 C144 1.383 . S
C144 O138 1.412 . S
C144 C143 1.383 . S
C144 C145 1.394 . S
C145 H135 0.929 . S
C145 C141 1.377 . S
C145 C144 1.394 . S
H146 C153 0.929 1_655 S
H147 C156 0.930 . S
H148 C158 0.929 . S
H149 C150 0.969 . S
C150 H149 0.969 . S
C150 O151 1.550 . S
C150 H152 0.973 . S
O151 C150 1.550 . S
O151 C157 1.412 . S
H152 C150 0.973 . S
C153 H146 0.929 1_455 S
C153 C154 1.400 1_455 S
C153 C155 1.364 . S
C154 C153 1.400 1_655 S
C154 C158 1.377 1_655 S
C155 C153 1.364 . S
C155 C156 1.374 . S
C156 H147 0.930 . S
C156 C155 1.374 . S
C156 C157 1.383 . S
C157 O151 1.412 . S
C157 C156 1.383 . S
C157 C158 1.394 . S
C158 H148 0.929 . S
C158 C154 1.377 1_455 S
C158 C157 1.394 . S
H159 C166 0.929 . S
H160 C169 0.930 . S
H161 C171 0.929 . S
H162 C163 0.969 . S
C163 H162 0.969 . S
C163 O164 1.550 . S
C163 H165 0.973 . S
O164 C163 1.550 . S
O164 C170 1.412 . S
H165 C163 0.973 . S
C166 H159 0.929 . S
C166 C167 1.400 . S
C166 C168 1.364 1_655 S
C167 C166 1.400 . S
C167 C171 1.377 1_655 S
C168 C166 1.364 1_455 S
C168 C169 1.374 . S
C169 H160 0.930 . S
C169 C168 1.374 . S
C169 C170 1.383 . S
C170 O164 1.412 . S
C170 C169 1.383 . S
C170 C171 1.394 . S
C171 H161 0.929 . S
C171 C167 1.377 1_455 S
C171 C170 1.394 . S
H172 C179 0.929 . S
H173 C182 0.930 . S
H174 C184 0.929 . S
H175 C176 0.969 . S
C176 H175 0.969 . S
C176 O177 1.550 . S
C176 H178 0.973 . S
O177 C176 1.550 . S
O177 C183 1.412 . S
H178 C176 0.973 . S
C179 H172 0.929 . S
C179 C180 1.400 . S
C179 C181 1.364 . S
C180 C179 1.400 . S
C180 C184 1.377 . S
C181 C179 1.364 . S
C181 C182 1.374 1_565 S
C182 H173 0.930 . S
C182 C181 1.374 1_545 S
C182 C183 1.383 . S
C183 O177 1.412 . S
C183 C182 1.383 . S
C183 C184 1.394 1_545 S
C184 H174 0.929 . S
C184 C180 1.377 . S
C184 C183 1.394 1_565 S
H185 C192 0.929 . S
H186 C195 0.930 . S
H187 C197 0.929 . S
H188 C189 0.969 . S
C189 H188 0.969 . S
C189 O190 1.550 . S
C189 H191 0.973 . S
O190 C189 1.550 . S
O190 C196 1.412 . S
H191 C189 0.973 . S
C192 H185 0.929 . S
C192 C193 1.400 . S
C192 C194 1.364 . S
C193 C192 1.400 . S
C193 C197 1.377 . S
C194 C192 1.364 . S
C194 C195 1.374 . S
C195 H186 0.930 . S
C195 C194 1.374 . S
C195 C196 1.383 . S
C196 O190 1.412 . S
C196 C195 1.383 . S
C196 C197 1.394 . S
C197 H187 0.929 . S
C197 C193 1.377 . S
C197 C196 1.394 . S
H198 C204 0.930 . S
H199 C207 0.930 . S
H200 C208 0.930 . S
H201 C209 0.930 . S
H202 C212 0.930 . S
H203 C213 0.930 . S
C204 H198 0.930 . S
C204 C205 1.355 . S
C204 C206 1.415 . S
C205 C204 1.355 . S
C205 C207 1.419 . S
C206 C204 1.415 . S
C206 C211 1.425 . S
C206 C213 1.409 . S
C207 H199 0.930 . S
C207 C205 1.419 . S
C207 C208 1.362 . S
C208 H200 0.930 . S
C208 C207 1.362 . S
C208 C211 1.409 . S
C209 H201 0.930 . S
C209 C210 1.355 . S
C209 C211 1.415 . S
C210 C209 1.355 . S
C210 C212 1.419 . S
C211 C206 1.425 . S
C211 C208 1.409 . S
C211 C209 1.415 . S
C212 H202 0.930 . S
C212 C210 1.419 . S
C212 C213 1.362 . S
C213 H203 0.930 . S
C213 C206 1.409 . S
C213 C212 1.362 . S
H214 C220 0.930 . S
H215 C223 0.930 . S
H216 C224 0.930 . S
H217 C225 0.930 . S
H218 C228 0.930 . S
H219 C229 0.930 . S
C220 H214 0.930 . S
C220 C221 1.355 . S
C220 C222 1.415 . S
C221 C220 1.355 . S
C221 C223 1.419 . S
C222 C220 1.415 . S
C222 C227 1.425 . S
C222 C229 1.409 . S
C223 H215 0.930 . S
C223 C221 1.419 . S
C223 C224 1.362 . S
C224 H216 0.930 . S
C224 C223 1.362 . S
C224 C227 1.409 . S
C225 H217 0.930 . S
C225 C226 1.355 . S
C225 C227 1.415 . S
C226 C225 1.355 . S
C226 C228 1.419 . S
C227 C222 1.425 . S
C227 C224 1.409 . S
C227 C225 1.415 . S
C228 H218 0.930 . S
C228 C226 1.419 . S
C228 C229 1.362 . S
C229 H219 0.930 . S
C229 C222 1.409 . S
C229 C228 1.362 . S
H230 C236 0.930 . S
H231 C239 0.930 . S
H232 C240 0.930 . S
H233 C241 0.930 . S
H234 C244 0.930 . S
H235 C245 0.930 . S
C236 H230 0.930 . S
C236 C237 1.355 . S
C236 C238 1.415 . S
C237 C236 1.355 . S
C237 C239 1.419 . S
C238 C236 1.415 . S
C238 C243 1.425 . S
C238 C245 1.409 . S
C239 H231 0.930 . S
C239 C237 1.419 . S
C239 C240 1.362 . S
C240 H232 0.930 . S
C240 C239 1.362 . S
C240 C243 1.409 . S
C241 H233 0.930 . S
C241 C242 1.355 . S
C241 C243 1.415 . S
C242 C241 1.355 . S
C242 C244 1.419 . S
C243 C238 1.425 . S
C243 C240 1.409 . S
C243 C241 1.415 . S
C244 H234 0.930 . S
C244 C242 1.419 . S
C244 C245 1.362 . S
C245 H235 0.930 . S
C245 C238 1.409 . S
C245 C244 1.362 . S
H246 C252 0.930 . S
H247 C255 0.930 . S
H248 C256 0.930 . S
H249 C257 0.930 . S
H250 C260 0.930 . S
H251 C261 0.930 . S
C252 H246 0.930 . S
C252 C253 1.355 . S
C252 C254 1.415 . S
C253 C252 1.355 . S
C253 C255 1.419 . S
C254 C252 1.415 . S
C254 C259 1.425 . S
C254 C261 1.409 . S
C255 H247 0.930 . S
C255 C253 1.419 . S
C255 C256 1.362 . S
C256 H248 0.930 . S
C256 C255 1.362 . S
C256 C259 1.409 . S
C257 H249 0.930 . S
C257 C258 1.355 . S
C257 C259 1.415 . S
C258 C257 1.355 . S
C258 C260 1.419 . S
C259 C254 1.425 . S
C259 C256 1.409 . S
C259 C257 1.415 . S
C260 H250 0.930 . S
C260 C258 1.419 . S
C260 C261 1.362 . S
C261 H251 0.930 . S
C261 C254 1.409 . S
C261 C260 1.362 . S
H262 C268 0.930 . S
H263 C271 0.930 . S
H264 C272 0.930 . S
H265 C273 0.930 . S
H266 C276 0.930 . S
H267 C277 0.930 . S
C268 H262 0.930 . S
C268 C269 1.355 . S
C268 C270 1.415 . S
C269 C268 1.355 . S
C269 C271 1.419 . S
C270 C268 1.415 . S
C270 C275 1.425 . S
C270 C277 1.409 . S
C271 H263 0.930 . S
C271 C269 1.419 . S
C271 C272 1.362 . S
C272 H264 0.930 . S
C272 C271 1.362 . S
C272 C275 1.409 . S
C273 H265 0.930 . S
C273 C274 1.355 . S
C273 C275 1.415 . S
C274 C273 1.355 . S
C274 C276 1.419 . S
C275 C270 1.425 . S
C275 C272 1.409 . S
C275 C273 1.415 . S
C276 H266 0.930 . S
C276 C274 1.419 . S
C276 C277 1.362 . S
C277 H267 0.930 . S
C277 C270 1.409 . S
C277 C276 1.362 . S
H278 C284 0.930 . S
H279 C287 0.930 . S
H280 C288 0.930 . S
H281 C289 0.930 . S
H282 C292 0.930 . S
H283 C293 0.930 . S
C284 H278 0.930 . S
C284 C285 1.355 . S
C284 C286 1.415 . S
C285 C284 1.355 . S
C285 C287 1.419 . S
C286 C284 1.415 . S
C286 C291 1.425 . S
C286 C293 1.409 . S
C287 H279 0.930 . S
C287 C285 1.419 . S
C287 C288 1.362 . S
C288 H280 0.930 . S
C288 C287 1.362 . S
C288 C291 1.409 . S
C289 H281 0.930 . S
C289 C290 1.355 . S
C289 C291 1.415 . S
C290 C289 1.355 . S
C290 C292 1.419 . S
C291 C286 1.425 . S
C291 C288 1.409 . S
C291 C289 1.415 . S
C292 H282 0.930 . S
C292 C290 1.419 . S
C292 C293 1.362 . S
C293 H283 0.930 . S
C293 C286 1.409 . S
C293 C292 1.362 . S
H294 C300 0.930 . S
H295 C303 0.930 . S
H296 C304 0.930 . S
H297 C305 0.930 . S
H298 C308 0.930 . S
H299 C309 0.930 . S
C300 H294 0.930 . S
C300 C301 1.355 . S
C300 C302 1.415 . S
C301 C300 1.355 . S
C301 C303 1.419 . S
C302 C300 1.415 . S
C302 C307 1.425 . S
C302 C309 1.409 . S
C303 H295 0.930 . S
C303 C301 1.419 . S
C303 C304 1.362 . S
C304 H296 0.930 . S
C304 C303 1.362 . S
C304 C307 1.409 . S
C305 H297 0.930 . S
C305 C306 1.355 . S
C305 C307 1.415 . S
C306 C305 1.355 . S
C306 C308 1.419 . S
C307 C302 1.425 . S
C307 C304 1.409 . S
C307 C305 1.415 . S
C308 H298 0.930 . S
C308 C306 1.419 . S
C308 C309 1.362 . S
C309 H299 0.930 . S
C309 C302 1.409 . S
C309 C308 1.362 . S
H310 C316 0.930 . S
H311 C319 0.930 . S
H312 C320 0.930 . S
H313 C321 0.930 . S
H314 C324 0.930 . S
H315 C325 0.930 . S
C316 H310 0.930 . S
C316 C317 1.355 . S
C316 C318 1.415 . S
C317 C316 1.355 . S
C317 C319 1.419 . S
C318 C316 1.415 . S
C318 C323 1.425 . S
C318 C325 1.409 . S
C319 H311 0.930 . S
C319 C317 1.419 . S
C319 C320 1.362 . S
C320 H312 0.930 . S
C320 C319 1.362 . S
C320 C323 1.409 . S
C321 H313 0.930 . S
C321 C322 1.355 . S
C321 C323 1.415 . S
C322 C321 1.355 . S
C322 C324 1.419 . S
C323 C318 1.425 . S
C323 C320 1.409 . S
C323 C321 1.415 . S
C324 H314 0.930 . S
C324 C322 1.419 . S
C324 C325 1.362 . S
C325 H315 0.930 . S
C325 C318 1.409 . S
C325 C324 1.362 . S
H326 C332 0.930 . S
H327 C335 0.930 . S
H328 C336 0.930 . S
H329 C337 0.930 . S
H330 C340 0.930 . S
H331 C341 0.930 . S
C332 H326 0.930 . S
C332 C333 1.355 . S
C332 C334 1.415 . S
C333 C332 1.355 . S
C333 C335 1.419 . S
C334 C332 1.415 . S
C334 C339 1.425 . S
C334 C341 1.409 . S
C335 H327 0.930 . S
C335 C333 1.419 . S
C335 C336 1.362 . S
C336 H328 0.930 . S
C336 C335 1.362 . S
C336 C339 1.409 . S
C337 H329 0.930 . S
C337 C338 1.355 . S
C337 C339 1.415 . S
C338 C337 1.355 . S
C338 C340 1.419 . S
C339 C334 1.425 . S
C339 C336 1.409 . S
C339 C337 1.415 . S
C340 H330 0.930 . S
C340 C338 1.419 . S
C340 C341 1.362 . S
C341 H331 0.930 . S
C341 C334 1.409 . S
C341 C340 1.362 . S
H342 C348 0.930 . S
H343 C351 0.930 . S
H344 C352 0.930 . S
H345 C353 0.930 . S
H346 C356 0.930 . S
H347 C357 0.930 . S
C348 H342 0.930 . S
C348 C349 1.355 . S
C348 C350 1.415 . S
C349 C348 1.355 . S
C349 C351 1.419 . S
C350 C348 1.415 . S
C350 C355 1.425 . S
C350 C357 1.409 . S
C351 H343 0.930 . S
C351 C349 1.419 . S
C351 C352 1.362 . S
C352 H344 0.930 . S
C352 C351 1.362 . S
C352 C355 1.409 . S
C353 H345 0.930 . S
C353 C354 1.355 . S
C353 C355 1.415 . S
C354 C353 1.355 . S
C354 C356 1.419 . S
C355 C350 1.425 . S
C355 C352 1.409 . S
C355 C353 1.415 . S
C356 H346 0.930 . S
C356 C354 1.419 . S
C356 C357 1.362 . S
C357 H347 0.930 . S
C357 C350 1.409 . S
C357 C356 1.362 . S
H358 C364 0.930 . S
H359 C367 0.930 . S
H360 C368 0.930 . S
H361 C369 0.930 . S
H362 C372 0.930 . S
H363 C373 0.930 . S
C364 H358 0.930 . S
C364 C365 1.355 . S
C364 C366 1.415 . S
C365 C364 1.355 . S
C365 C367 1.419 . S
C366 C364 1.415 . S
C366 C371 1.425 . S
C366 C373 1.409 . S
C367 H359 0.930 . S
C367 C365 1.419 . S
C367 C368 1.362 . S
C368 H360 0.930 . S
C368 C367 1.362 . S
C368 C371 1.409 . S
C369 H361 0.930 . S
C369 C370 1.355 . S
C369 C371 1.415 . S
C370 C369 1.355 . S
C370 C372 1.419 . S
C371 C366 1.425 . S
C371 C368 1.409 . S
C371 C369 1.415 . S
C372 H362 0.930 . S
C372 C370 1.419 . S
C372 C373 1.362 . S
C373 H363 0.930 . S
C373 C366 1.409 . S
C373 C372 1.362 . S
H374 C380 0.930 . S
H375 C383 0.930 . S
H376 C384 0.930 . S
H377 C385 0.930 . S
H378 C388 0.930 . S
H379 C389 0.930 . S
C380 H374 0.930 . S
C380 C381 1.355 . S
C380 C382 1.415 . S
C381 C380 1.355 . S
C381 C383 1.419 . S
C382 C380 1.415 . S
C382 C387 1.425 . S
C382 C389 1.409 . S
C383 H375 0.930 . S
C383 C381 1.419 . S
C383 C384 1.362 . S
C384 H376 0.930 . S
C384 C383 1.362 . S
C384 C387 1.409 . S
C385 H377 0.930 . S
C385 C386 1.355 . S
C385 C387 1.415 . S
C386 C385 1.355 . S
C386 C388 1.419 . S
C387 C382 1.425 . S
C387 C384 1.409 . S
C387 C385 1.415 . S
C388 H378 0.930 . S
C388 C386 1.419 . S
C388 C389 1.362 . S
C389 H379 0.930 . S
C389 C382 1.409 . S
C389 C388 1.362 . S
H390 C396 0.930 . S
H391 C399 0.930 . S
H392 C400 0.930 . S
H393 C401 0.930 1_655 S
H394 C404 0.930 . S
H395 C405 0.930 . S
C396 H390 0.930 . S
C396 C397 1.355 . S
C396 C398 1.415 . S
C397 C396 1.355 . S
C397 C399 1.419 1_455 S
C398 C396 1.415 . S
C398 C403 1.425 . S
C398 C405 1.409 . S
C399 H391 0.930 . S
C399 C397 1.419 1_655 S
C399 C400 1.362 . S
C400 H392 0.930 . S
C400 C399 1.362 . S
C400 C403 1.409 1_655 S
C401 H393 0.930 1_455 S
C401 C402 1.355 . S
C401 C403 1.415 1_556 S
C402 C401 1.355 . S
C402 C404 1.419 . S
C403 C398 1.425 . S
C403 C400 1.409 1_455 S
C403 C401 1.415 1_554 S
C404 H394 0.930 . S
C404 C402 1.419 . S
C404 C405 1.362 1_556 S
C405 H395 0.930 . S
C405 C398 1.409 . S
C405 C404 1.362 1_554 S
H406 C412 0.930 . S
H407 C415 0.930 . S
H408 C416 0.930 . S
H409 C417 0.930 . S
H410 C420 0.930 . S
H411 C421 0.930 . S
C412 H406 0.930 . S
C412 C413 1.355 . S
C412 C414 1.415 . S
C413 C412 1.355 . S
C413 C415 1.419 . S
C414 C412 1.415 . S
C414 C419 1.425 . S
C414 C421 1.409 . S
C415 H407 0.930 . S
C415 C413 1.419 . S
C415 C416 1.362 . S
C416 H408 0.930 . S
C416 C415 1.362 . S
C416 C419 1.409 . S
C417 H409 0.930 . S
C417 C418 1.355 . S
C417 C419 1.415 . S
C418 C417 1.355 . S
C418 C420 1.419 . S
C419 C414 1.425 . S
C419 C416 1.409 . S
C419 C417 1.415 . S
C420 H410 0.930 . S
C420 C418 1.419 . S
C420 C421 1.362 . S
C421 H411 0.930 . S
C421 C414 1.409 . S
C421 C420 1.362 . S
H422 C428 0.930 . S
H423 C431 0.930 . S
H424 C432 0.930 . S
H425 C433 0.930 . S
H426 C436 0.930 . S
H427 C437 0.930 . S
C428 H422 0.930 . S
C428 C429 1.355 . S
C428 C430 1.415 . S
C429 C428 1.355 . S
C429 C431 1.419 . S
C430 C428 1.415 . S
C430 C435 1.425 . S
C430 C437 1.409 . S
C431 H423 0.930 . S
C431 C429 1.419 . S
C431 C432 1.362 . S
C432 H424 0.930 . S
C432 C431 1.362 . S
C432 C435 1.409 . S
C433 H425 0.930 . S
C433 C434 1.355 . S
C433 C435 1.415 . S
C434 C433 1.355 . S
C434 C436 1.419 . S
C435 C430 1.425 . S
C435 C432 1.409 . S
C435 C433 1.415 . S
C436 H426 0.930 . S
C436 C434 1.419 . S
C436 C437 1.362 . S
C437 H427 0.930 . S
C437 C430 1.409 . S
C437 C436 1.362 . S
H438 C444 0.930 1_565 S
H439 C447 0.930 . S
H440 C448 0.930 . S
H441 C449 0.930 . S
H442 C452 0.930 . S
H443 C453 0.930 . S
C444 H438 0.930 1_545 S
C444 C445 1.355 . S
C444 C446 1.415 . S
C445 C444 1.355 . S
C445 C447 1.419 . S
C446 C444 1.415 . S
C446 C451 1.425 . S
C446 C453 1.409 1_545 S
C447 H439 0.930 . S
C447 C445 1.419 . S
C447 C448 1.362 . S
C448 H440 0.930 . S
C448 C447 1.362 . S
C448 C451 1.409 . S
C449 H441 0.930 . S
C449 C450 1.355 . S
C449 C451 1.415 . S
C450 C449 1.355 . S
C450 C452 1.419 1_545 S
C451 C446 1.425 . S
C451 C448 1.409 . S
C451 C449 1.415 . S
C452 H442 0.930 . S
C452 C450 1.419 1_565 S
C452 C453 1.362 . S
C453 H443 0.930 . S
C453 C446 1.409 1_565 S
C453 C452 1.362 . S
H454 C460 0.930 . S
H455 C463 0.930 . S
H456 C464 0.930 . S
H457 C465 0.930 . S
H458 C468 0.930 . S
H459 C469 0.930 . S
C460 H454 0.930 . S
C460 C461 1.355 . S
C460 C462 1.415 . S
C461 C460 1.355 . S
C461 C463 1.419 . S
C462 C460 1.415 . S
C462 C467 1.425 . S
C462 C469 1.409 1_556 S
C463 H455 0.930 . S
C463 C461 1.419 . S
C463 C464 1.362 . S
C464 H456 0.930 . S
C464 C463 1.362 . S
C464 C467 1.409 . S
C465 H457 0.930 . S
C465 C466 1.355 . S
C465 C467 1.415 1_554 S
C466 C465 1.355 . S
C466 C468 1.419 . S
C467 C462 1.425 . S
C467 C464 1.409 . S
C467 C465 1.415 1_556 S
C468 H458 0.930 . S
C468 C466 1.419 . S
C468 C469 1.362 . S
C469 H459 0.930 . S
C469 C462 1.409 1_554 S
C469 C468 1.362 . S
H470 C476 0.930 . S
H471 C479 0.930 . S
H472 C480 0.930 . S
H473 C481 0.930 . S
H474 C484 0.930 . S
H475 C485 0.930 . S
C476 H470 0.930 . S
C476 C477 1.355 . S
C476 C478 1.415 . S
C477 C476 1.355 . S
C477 C479 1.419 1_455 S
C478 C476 1.415 . S
C478 C483 1.425 1_455 S
C478 C485 1.409 . S
C479 H471 0.930 . S
C479 C477 1.419 1_655 S
C479 C480 1.362 . S
C480 H472 0.930 . S
C480 C479 1.362 . S
C480 C483 1.409 . S
C481 H473 0.930 . S
C481 C482 1.355 1_655 S
C481 C483 1.415 . S
C482 C481 1.355 1_455 S
C482 C484 1.419 . S
C483 C478 1.425 1_655 S
C483 C480 1.409 . S
C483 C481 1.415 . S
C484 H474 0.930 . S
C484 C482 1.419 . S
C484 C485 1.362 . S
C485 H475 0.930 . S
C485 C478 1.409 . S
C485 C484 1.362 . S
C205 C9 0.530 . S
C210 C189 0.556 . S
C221 C49 0.279 . S
C226 C167 0.375 . S
C237 C89 0.292 . S
C242 C180 0.282 . S
C253 C26 0.352 . S
C258 C193 0.313 . S
C274 C163 0.610 . S
C269 C66 0.794 . S
C290 C176 0.692 . S
C285 C106 0.795 . S
C301 C43 2.928 . S
C306 C141 2.887 . S
C317 C83 3.014 . S
C322 C154 2.961 . S
C333 C22 3.160 . S
C338 C124 2.909 . S
C354 C137 2.972 . S
C349 C62 3.167 . S
C370 C150 2.906 . S
C365 C102 3.083 . S
C381 C3 2.943 . S
C386 C128 2.910 . S
C402 C155 1.761 . S
C397 C15 1.683 . S
C413 C55 1.699 . S
C418 C129 1.786 . S
C429 C95 1.678 . S
C434 C142 1.778 . S
C450 C181 1.231 1_545 S
C445 C42 1.201 . S
C466 C194 1.204 . S
C461 C82 1.235 . S
C477 C2 1.186 . S
C482 C168 1.219 . S
