# Generated by pormake.
# Topology nom, (4,4)-cn, num edge types: 1
# Building blocks:
#     Node 0, Type 0, BuildingBlock: MUDLON_clean_linker_0, # of connection points: 4
#     Node 1, Type 0, BuildingBlock: MUDLON_clean_linker_0, # of connection points: 4
#     Node 2, Type 0, BuildingBlock: MUDLON_clean_linker_0, # of connection points: 4
#     Node 3, Type 0, BuildingBlock: MUDLON_clean_linker_0, # of connection points: 4
#     Node 4, Type 0, BuildingBlock: MUDLON_clean_linker_0, # of connection points: 4
#     Node 5, Type 0, BuildingBlock: MUDLON_clean_linker_0, # of connection points: 4
#     Node 6, Type 1, BuildingBlock: CEKHIL_clean_sbu_0, # of connection points: 4
#     Node 7, Type 1, BuildingBlock: CEKHIL_clean_sbu_0, # of connection points: 4
#     Node 8, Type 1, BuildingBlock: CEKHIL_clean_sbu_0, # of connection points: 4
#     Node 9, Type 1, BuildingBlock: CEKHIL_clean_sbu_0, # of connection points: 4
#     Node 10, Type 1, BuildingBlock: CEKHIL_clean_sbu_0, # of connection points: 4
#     Node 11, Type 1, BuildingBlock: CEKHIL_clean_sbu_0, # of connection points: 4
#     Edge 12, Type (0, 1), BuildingBlock: OJICUG_clean_linker_0, # of connection points: 2
#     Edge 13, Type (0, 1), BuildingBlock: OJICUG_clean_linker_0, # of connection points: 2
#     Edge 14, Type (0, 1), BuildingBlock: OJICUG_clean_linker_0, # of connection points: 2
#     Edge 15, Type (0, 1), BuildingBlock: OJICUG_clean_linker_0, # of connection points: 2
#     Edge 16, Type (0, 1), BuildingBlock: OJICUG_clean_linker_0, # of connection points: 2
#     Edge 17, Type (0, 1), BuildingBlock: OJICUG_clean_linker_0, # of connection points: 2
#     Edge 18, Type (0, 1), BuildingBlock: OJICUG_clean_linker_0, # of connection points: 2
#     Edge 19, Type (0, 1), BuildingBlock: OJICUG_clean_linker_0, # of connection points: 2
#     Edge 20, Type (0, 1), BuildingBlock: OJICUG_clean_linker_0, # of connection points: 2
#     Edge 21, Type (0, 1), BuildingBlock: OJICUG_clean_linker_0, # of connection points: 2
#     Edge 22, Type (0, 1), BuildingBlock: OJICUG_clean_linker_0, # of connection points: 2
#     Edge 23, Type (0, 1), BuildingBlock: OJICUG_clean_linker_0, # of connection points: 2
#     Edge 24, Type (0, 1), BuildingBlock: OJICUG_clean_linker_0, # of connection points: 2
#     Edge 25, Type (0, 1), BuildingBlock: OJICUG_clean_linker_0, # of connection points: 2
#     Edge 26, Type (0, 1), BuildingBlock: OJICUG_clean_linker_0, # of connection points: 2
#     Edge 27, Type (0, 1), BuildingBlock: OJICUG_clean_linker_0, # of connection points: 2
#     Edge 28, Type (0, 1), BuildingBlock: OJICUG_clean_linker_0, # of connection points: 2
#     Edge 29, Type (0, 1), BuildingBlock: OJICUG_clean_linker_0, # of connection points: 2
#     Edge 30, Type (0, 1), BuildingBlock: OJICUG_clean_linker_0, # of connection points: 2
#     Edge 31, Type (0, 1), BuildingBlock: OJICUG_clean_linker_0, # of connection points: 2
#     Edge 32, Type (0, 1), BuildingBlock: OJICUG_clean_linker_0, # of connection points: 2
#     Edge 33, Type (0, 1), BuildingBlock: OJICUG_clean_linker_0, # of connection points: 2
#     Edge 34, Type (0, 1), BuildingBlock: OJICUG_clean_linker_0, # of connection points: 2
#     Edge 35, Type (0, 1), BuildingBlock: OJICUG_clean_linker_0, # of connection points: 2
# Relax obj value: 0.009
# Max RMSD: 0.106
# Mean RMSD: 0.066
data_MOF--net-nom--node1-CEKHIL_clean_sbu_0--node2-MUDLON_clean_linker_0--edge1-OJICUG_clean_linker_0
_symmetry_space_group_name_H-M    P1
_symmetry_Int_Tables_number       1
_symmetry_cell_setting            triclinic
loop_
_symmetry_equiv_pos_as_xyz
'x, y, z'
_cell_length_a     48.684941
_cell_length_b     49.031928
_cell_length_c     48.7046
_cell_angle_alpha  90.406204
_cell_angle_beta   89.750317
_cell_angle_gamma 121.78724
loop_
_atom_site_label
_atom_site_type_symbol
_atom_site_fract_x
_atom_site_fract_y
_atom_site_fract_z
_atom_type_partial_charge
H0 H 0.16315 0.54708 0.32654 0.0
N1 N 0.1219 0.56248 0.34539 0.0
H2 H 0.21093 0.57988 0.29803 0.0
H3 H 0.13738 0.61843 0.31959 0.0
H4 H 0.18543 0.6518 0.29212 0.0
H5 H 0.13748 0.62002 0.36827 0.0
H6 H 0.16297 0.64047 0.41268 0.0
H7 H 0.12744 0.52908 0.38521 0.0
H8 H 0.15158 0.54877 0.43056 0.0
H9 H 0.08068 0.50228 0.33126 0.0
H10 H 0.08847 0.59333 0.34224 0.0
H11 H 0.02467 0.47809 0.31676 0.0
H12 H 0.0331 0.57005 0.32597 0.0
H13 H 0.86231 0.39812 0.26353 0.0
H14 H 0.84288 0.3833 0.21638 0.0
H15 H 0.87963 0.48293 0.19815 0.0
H16 H 0.89881 0.49737 0.24582 0.0
H17 H 0.87221 0.4993 0.28904 0.0
H18 H 0.82267 0.49046 0.31128 0.0
H19 H 0.80516 0.40112 0.34419 0.0
H20 H 0.85445 0.41012 0.3219 0.0
H21 H 0.93743 0.44779 0.26673 0.0
H22 H 0.99395 0.47622 0.27975 0.0
H23 H 0.97778 0.53477 0.3363 0.0
N24 N 0.89094 0.45585 0.28635 0.0
H25 H 0.9216 0.50771 0.32167 0.0
C26 C 0.14675 0.58021 0.32529 0.0
C27 C 0.1676 0.56962 0.31853 0.0
C28 C 0.19504 0.58857 0.30254 0.0
C29 C 0.2023 0.61873 0.29314 0.0
C30 C 0.18051 0.62864 0.29886 0.0
C31 C 0.15295 0.60954 0.31475 0.0
C32 C 0.13083 0.57302 0.37333 0.0
C33 C 0.13995 0.60412 0.38184 0.0
C34 C 0.15446 0.61577 0.40744 0.0
C35 C 0.1598 0.59644 0.42515 0.0
C36 C 0.1486 0.56459 0.41722 0.0
C37 C 0.13441 0.55312 0.3915 0.0
C38 C 0.08888 0.54955 0.33739 0.0
C39 C 0.0703 0.5171 0.3302 0.0
C40 C 0.03837 0.50346 0.32163 0.0
C41 C 0.02435 0.52221 0.31961 0.0
C42 C 0.04295 0.55481 0.32731 0.0
C43 C 0.07487 0.56832 0.33633 0.0
C44 C 0.88188 0.44866 0.25796 0.0
C45 C 0.8664 0.4167 0.24921 0.0
C46 C 0.85551 0.40839 0.22226 0.0
C47 C 0.85986 0.43198 0.20345 0.0
C48 C 0.87574 0.46422 0.21222 0.0
C49 C 0.88678 0.47253 0.23931 0.0
C50 C 0.86674 0.45519 0.30386 0.0
C51 C 0.8581 0.47831 0.30169 0.0
C52 C 0.82992 0.47328 0.3144 0.0
C53 C 0.80999 0.44492 0.32911 0.0
C54 C 0.81998 0.42302 0.33272 0.0
C55 C 0.84814 0.42818 0.32023 0.0
C56 C 0.92494 0.47548 0.29292 0.0
C57 C 0.94614 0.46723 0.28149 0.0
C58 C 0.97848 0.48325 0.28933 0.0
C59 C 0.99049 0.50747 0.30953 0.0
C60 C 0.96954 0.51642 0.32055 0.0
C61 C 0.93714 0.50072 0.31224 0.0
H62 H 0.4822 0.86151 0.45762 0.0
N63 N 0.46839 0.90288 0.43748 0.0
H64 H 0.44744 0.81467 0.48598 0.0
H65 H 0.41312 0.8909 0.46382 0.0
H66 H 0.37768 0.84356 0.49146 0.0
H67 H 0.40962 0.88519 0.41481 0.0
H68 H 0.38882 0.85885 0.37123 0.0
H69 H 0.49975 0.89103 0.39907 0.0
H70 H 0.47773 0.86129 0.35611 0.0
H71 H 0.52291 0.94444 0.46281 0.0
H72 H 0.43732 0.93574 0.42796 0.0
H73 H 0.54098 0.99911 0.47797 0.0
H74 H 0.45554 0.99004 0.44201 0.0
H75 H 0.59769 0.14257 0.5172 0.0
H76 H 0.6236 0.16748 0.56065 0.0
H77 H 0.53265 0.15071 0.59175 0.0
H78 H 0.50729 0.12702 0.54754 0.0
H79 H 0.50041 0.14825 0.48938 0.0
H80 H 0.5179 0.19789 0.46416 0.0
H81 H 0.61011 0.20777 0.44843 0.0
H82 H 0.59259 0.15852 0.47362 0.0
H83 H 0.5765 0.10609 0.48055 0.0
H84 H 0.56066 0.05314 0.46278 0.0
H85 H 0.46116 0.01862 0.48354 0.0
N86 N 0.53594 0.12382 0.50234 0.0
H87 H 0.47725 0.07207 0.50043 0.0
C88 C 0.45023 0.87947 0.45838 0.0
C89 C 0.4598 0.85813 0.46557 0.0
C90 C 0.43975 0.83126 0.4815 0.0
C91 C 0.40948 0.82506 0.49045 0.0
C92 C 0.40083 0.84766 0.48486 0.0
C93 C 0.42105 0.8747 0.46894 0.0
C94 C 0.45691 0.89124 0.41002 0.0
C95 C 0.42544 0.88169 0.40171 0.0
C96 C 0.41309 0.86555 0.37687 0.0
C97 C 0.43121 0.85717 0.36016 0.0
C98 C 0.46305 0.86752 0.36814 0.0
C99 C 0.47574 0.88454 0.39273 0.0
C100 C 0.47888 0.93572 0.44414 0.0
C101 C 0.50826 0.95443 0.45807 0.0
C102 C 0.5186 0.9857 0.46659 0.0
C103 C 0.49965 0.99898 0.4613 0.0
C104 C 0.4705 0.98042 0.44684 0.0
C105 C 0.46011 0.94912 0.43849 0.0
C106 C 0.55051 0.13319 0.52908 0.0
C107 C 0.58319 0.14385 0.5334 0.0
C108 C 0.59799 0.158 0.55843 0.0
C109 C 0.58034 0.16154 0.57962 0.0
C110 C 0.54717 0.14906 0.57568 0.0
C111 C 0.53251 0.13517 0.5506 0.0
C112 C 0.54505 0.14964 0.48345 0.0
C113 C 0.52409 0.1608 0.4799 0.0
C114 C 0.53413 0.18912 0.46553 0.0
C115 C 0.56552 0.20689 0.4546 0.0
C116 C 0.58597 0.19482 0.45702 0.0
C117 C 0.57583 0.16643 0.47127 0.0
C118 C 0.52788 0.09307 0.49166 0.0
C119 C 0.55129 0.08731 0.48112 0.0
C120 C 0.54219 0.05683 0.47112 0.0
C121 C 0.50959 0.03158 0.47159 0.0
C122 C 0.48638 0.03757 0.48233 0.0
C123 C 0.49549 0.068 0.49217 0.0
H124 H 0.44842 0.58888 0.65495 0.0
N125 N 0.41726 0.52673 0.67257 0.0
H126 H 0.42509 0.61272 0.62718 0.0
H127 H 0.36176 0.49578 0.64525 0.0
H128 H 0.33733 0.51969 0.6185 0.0
H129 H 0.37035 0.51196 0.70827 0.0
H130 H 0.37338 0.53998 0.75069 0.0
H131 H 0.47282 0.57526 0.69628 0.0
H132 H 0.47667 0.60245 0.73964 0.0
H133 H 0.471 0.55965 0.63907 0.0
H134 H 0.41712 0.47541 0.68929 0.0
H135 H 0.50842 0.54313 0.62664 0.0
H136 H 0.45568 0.45948 0.67814 0.0
H137 H 0.62714 0.4787 0.59069 0.0
H138 H 0.63165 0.46248 0.54413 0.0
H139 H 0.52816 0.4155 0.53456 0.0
H140 H 0.52373 0.43025 0.58119 0.0
H141 H 0.5345 0.39489 0.61693 0.0
H142 H 0.54479 0.35703 0.63999 0.0
H143 H 0.62775 0.43602 0.68023 0.0
H144 H 0.61712 0.47387 0.65727 0.0
H145 H 0.58736 0.52 0.62791 0.0
H146 H 0.55072 0.53742 0.64226 0.0
H147 H 0.47141 0.43848 0.64239 0.0
N148 N 0.57336 0.46059 0.61877 0.0
H149 H 0.50835 0.42146 0.62955 0.0
C150 C 0.40687 0.54035 0.65194 0.0
C151 C 0.42466 0.57338 0.64622 0.0
C152 C 0.41101 0.58709 0.63067 0.0
C153 C 0.37905 0.56825 0.62101 0.0
C154 C 0.36206 0.53492 0.6254 0.0
C155 C 0.37593 0.52117 0.64069 0.0
C156 C 0.42125 0.5412 0.6993 0.0
C157 C 0.39367 0.53141 0.71529 0.0
C158 C 0.39556 0.54745 0.73963 0.0
C159 C 0.42532 0.57356 0.74882 0.0
C160 C 0.45324 0.5828 0.73309 0.0
C161 C 0.4512 0.56698 0.70843 0.0
C162 C 0.44064 0.51839 0.66487 0.0
C163 C 0.46712 0.53763 0.64758 0.0
C164 C 0.48892 0.52827 0.64066 0.0
C165 C 0.48513 0.49982 0.65123 0.0
C166 C 0.45906 0.48113 0.66904 0.0
C167 C 0.43707 0.49028 0.67562 0.0
C168 C 0.57525 0.45584 0.58967 0.0
C169 C 0.60554 0.46545 0.57828 0.0
C170 C 0.60806 0.45621 0.55162 0.0
C171 C 0.58021 0.43726 0.53567 0.0
C172 C 0.55006 0.42942 0.54649 0.0
C173 C 0.54752 0.43826 0.57325 0.0
C174 C 0.57509 0.43738 0.63552 0.0
C175 C 0.55425 0.40408 0.63141 0.0
C176 C 0.56018 0.3824 0.64454 0.0
C177 C 0.58721 0.39363 0.66168 0.0
C178 C 0.60691 0.42675 0.6669 0.0
C179 C 0.6008 0.44836 0.65398 0.0
C180 C 0.5508 0.46956 0.62754 0.0
C181 C 0.56207 0.50216 0.63123 0.0
C182 C 0.54099 0.51204 0.63921 0.0
C183 C 0.50793 0.4894 0.64342 0.0
C184 C 0.49673 0.45664 0.63983 0.0
C185 C 0.51792 0.4468 0.63221 0.0
H186 H 0.16789 0.58837 0.78213 0.0
N187 N 0.12357 0.5247 0.77279 0.0
H188 H 0.21626 0.61011 0.80953 0.0
H189 H 0.13748 0.4928 0.80857 0.0
H190 H 0.18486 0.51465 0.83841 0.0
H191 H 0.15614 0.5112 0.73722 0.0
H192 H 0.183 0.53992 0.69534 0.0
H193 H 0.11558 0.5704 0.74769 0.0
H194 H 0.14066 0.59793 0.70508 0.0
H195 H 0.11075 0.56546 0.8012 0.0
H196 H 0.06694 0.47088 0.76549 0.0
H197 H 0.05768 0.55377 0.81625 0.0
H198 H 0.0137 0.45882 0.7807 0.0
H199 H 0.87515 0.497 0.86562 0.0
H200 H 0.85051 0.47671 0.91053 0.0
H201 H 0.89146 0.41699 0.91213 0.0
H202 H 0.91437 0.4361 0.86669 0.0
H203 H 0.88548 0.4129 0.82396 0.0
H204 H 0.83539 0.3723 0.80142 0.0
H205 H 0.81198 0.44433 0.78554 0.0
H206 H 0.86205 0.48477 0.80833 0.0
H207 H 0.96078 0.50774 0.86287 0.0
H208 H 0.01415 0.52005 0.84872 0.0
H209 H 0.9757 0.47575 0.76992 0.0
N210 N 0.9046 0.47559 0.83397 0.0
H211 H 0.92265 0.46322 0.78374 0.0
C212 C 0.14933 0.53873 0.79279 0.0
C213 C 0.17126 0.57206 0.79439 0.0
C214 C 0.19897 0.58456 0.81051 0.0
C215 C 0.20501 0.56423 0.8262 0.0
C216 C 0.18171 0.53107 0.82607 0.0
C217 C 0.15434 0.5185 0.80933 0.0
C218 C 0.13367 0.53829 0.74566 0.0
C219 C 0.15218 0.5297 0.72997 0.0
C220 C 0.16748 0.54618 0.70595 0.0
C221 C 0.16426 0.57152 0.69676 0.0
C222 C 0.1443 0.57904 0.71177 0.0
C223 C 0.12941 0.56285 0.73607 0.0
C224 C 0.09279 0.51883 0.78228 0.0
C225 C 0.08976 0.54207 0.79677 0.0
C226 C 0.05937 0.53533 0.80545 0.0
C227 C 0.03146 0.50536 0.79969 0.0
C228 C 0.03466 0.48227 0.78519 0.0
C229 C 0.06501 0.489 0.77661 0.0
C230 C 0.89664 0.46824 0.86273 0.0
C231 C 0.87934 0.48005 0.87601 0.0
C232 C 0.86531 0.46841 0.90173 0.0
C233 C 0.86854 0.44481 0.91491 0.0
C234 C 0.8877 0.43452 0.90233 0.0
C235 C 0.90124 0.44577 0.87642 0.0
C236 C 0.87745 0.45197 0.81779 0.0
C237 C 0.86973 0.42 0.81538 0.0
C238 C 0.8412 0.39687 0.80239 0.0
C239 C 0.81971 0.40513 0.79196 0.0
C240 C 0.82794 0.43722 0.79372 0.0
C241 C 0.85656 0.46038 0.80648 0.0
C242 C 0.93632 0.48203 0.82552 0.0
C243 C 0.96339 0.49976 0.84279 0.0
C244 C 0.99418 0.50731 0.83453 0.0
C245 C 0.999 0.49814 0.80844 0.0
C246 C 0.97257 0.48209 0.79054 0.0
C247 C 0.94187 0.47465 0.79872 0.0
H248 H 0.54629 0.17585 0.95871 0.0
N249 N 0.55416 0.12896 0.94187 0.0
H250 H 0.58501 0.2245 0.98373 0.0
H251 H 0.60945 0.13958 0.96707 0.0
H252 H 0.64895 0.18866 0.99102 0.0
H253 H 0.61172 0.14455 0.91788 0.0
H254 H 0.62934 0.16502 0.87197 0.0
H255 H 0.51863 0.13191 0.90201 0.0
H256 H 0.53599 0.15191 0.85516 0.0
H257 H 0.49877 0.09135 0.96769 0.0
H258 H 0.5823 0.09309 0.93552 0.0
H259 H 0.47603 0.03587 0.98256 0.0
H260 H 0.55952 0.03773 0.94948 0.0
H261 H 0.40457 0.88299 0.02282 0.0
H262 H 0.3841 0.85821 0.06773 0.0
H263 H 0.47901 0.8774 0.08856 0.0
H264 H 0.49868 0.90108 0.04315 0.0
H265 H 0.50432 0.88402 0.98794 0.0
H266 H 0.49071 0.83456 0.96334 0.0
H267 H 0.39379 0.81397 0.9505 0.0
H268 H 0.40782 0.86351 0.9751 0.0
H269 H 0.43027 0.92666 0.97972 0.0
H270 H 0.45265 0.98212 0.96446 0.0
H271 H 0.54779 0.00567 0.98986 0.0
N272 N 0.46336 0.90237 0.00206 0.0
H273 H 0.52507 0.95001 0.0042 0.0
C274 C 0.57493 0.1542 0.96083 0.0
C275 C 0.56833 0.17823 0.96634 0.0
C276 C 0.5907 0.20617 0.98029 0.0
C277 C 0.62047 0.21084 0.98884 0.0
C278 C 0.6263 0.18588 0.98475 0.0
C279 C 0.60369 0.15775 0.97094 0.0
C280 C 0.56362 0.13652 0.91349 0.0
C281 C 0.59466 0.14533 0.90432 0.0
C282 C 0.60476 0.15705 0.87783 0.0
C283 C 0.58412 0.16021 0.8598 0.0
C284 C 0.55263 0.15017 0.86863 0.0
C285 C 0.54255 0.13845 0.89524 0.0
C286 C 0.54209 0.09645 0.95043 0.0
C287 C 0.51211 0.0797 0.96376 0.0
C288 C 0.49908 0.04795 0.97203 0.0
C289 C 0.51587 0.03223 0.96712 0.0
C290 C 0.54608 0.04917 0.95388 0.0
C291 C 0.55912 0.08095 0.94568 0.0
C292 C 0.45303 0.89367 0.0299 0.0
C293 C 0.42097 0.88235 0.03737 0.0
C294 C 0.40941 0.8683 0.06306 0.0
C295 C 0.42984 0.86548 0.08167 0.0
C296 C 0.46248 0.87862 0.07455 0.0
C297 C 0.4739 0.89249 0.04882 0.0
C298 C 0.45707 0.87721 0.98317 0.0
C299 C 0.48048 0.8692 0.97909 0.0
C300 C 0.47262 0.84098 0.96513 0.0
C301 C 0.44108 0.82025 0.95531 0.0
C302 C 0.41816 0.82928 0.95821 0.0
C303 C 0.42615 0.85763 0.97198 0.0
C304 C 0.47619 0.93455 0.99291 0.0
C305 C 0.45592 0.9439 0.9818 0.0
C306 C 0.46875 0.97559 0.97332 0.0
C307 C 0.50207 0.99842 0.97593 0.0
C308 C 0.52216 0.9887 0.98714 0.0
C309 C 0.50929 0.95703 0.9955 0.0
H310 H 0.55895 0.4052 0.13555 0.0
N311 N 0.57078 0.45799 0.16126 0.0
H312 H 0.59845 0.39552 0.11384 0.0
H313 H 0.63317 0.50396 0.14976 0.0
H314 H 0.67338 0.49444 0.12831 0.0
H315 H 0.61641 0.49686 0.19855 0.0
H316 H 0.6197 0.48367 0.24627 0.0
H317 H 0.5273 0.40607 0.1883 0.0
H318 H 0.53083 0.39188 0.23557 0.0
H319 H 0.52322 0.43848 0.12526 0.0
H320 H 0.58847 0.51881 0.1763 0.0
H321 H 0.4962 0.46635 0.11152 0.0
H322 H 0.56041 0.54619 0.16425 0.0
H323 H 0.3988 0.54756 0.08209 0.0
H324 H 0.39485 0.56547 0.03647 0.0
H325 H 0.49892 0.61659 0.02881 0.0
H326 H 0.50257 0.59993 0.07486 0.0
H327 H 0.49516 0.63039 0.11547 0.0
H328 H 0.48468 0.66837 0.13897 0.0
H329 H 0.39467 0.58918 0.16983 0.0
H330 H 0.40529 0.55139 0.14625 0.0
H331 H 0.42978 0.50419 0.11807 0.0
H332 H 0.46019 0.47924 0.12993 0.0
H333 H 0.54841 0.57276 0.13084 0.0
N334 N 0.45205 0.5657 0.11054 0.0
H335 H 0.51727 0.59744 0.12068 0.0
C336 C 0.59327 0.4551 0.14429 0.0
C337 C 0.58373 0.42492 0.1334 0.0
C338 C 0.60636 0.41943 0.12127 0.0
C339 C 0.63908 0.4441 0.11988 0.0
C340 C 0.64832 0.47502 0.12917 0.0
C341 C 0.62549 0.48047 0.14143 0.0
C342 C 0.57138 0.45245 0.1901 0.0
C343 C 0.59729 0.47428 0.20676 0.0
C344 C 0.59929 0.46651 0.23394 0.0
C345 C 0.5756 0.43664 0.24482 0.0
C346 C 0.54923 0.41531 0.22815 0.0
C347 C 0.54717 0.42325 0.2011 0.0
C348 C 0.55748 0.47638 0.15196 0.0
C349 C 0.53166 0.46221 0.13346 0.0
C350 C 0.51603 0.47807 0.12595 0.0
C351 C 0.5256 0.50835 0.13719 0.0
C352 C 0.55239 0.52302 0.15504 0.0
C353 C 0.56837 0.50728 0.16217 0.0
C354 C 0.45082 0.57217 0.08192 0.0
C355 C 0.42066 0.56213 0.07027 0.0
C356 C 0.41849 0.57233 0.04413 0.0
C357 C 0.4466 0.59272 0.02893 0.0
C358 C 0.47679 0.60143 0.04012 0.0
C359 C 0.47893 0.59153 0.06644 0.0
C360 C 0.45084 0.58798 0.12914 0.0
C361 C 0.47376 0.62116 0.12809 0.0
C362 C 0.46772 0.64287 0.14145 0.0
C363 C 0.43864 0.63168 0.15582 0.0
C364 C 0.41707 0.59844 0.15856 0.0
C365 C 0.42319 0.57684 0.14535 0.0
C366 C 0.47117 0.55247 0.11821 0.0
C367 C 0.45567 0.5192 0.12099 0.0
C368 C 0.47323 0.50502 0.12747 0.0
C369 C 0.50698 0.52387 0.13094 0.0
C370 C 0.52248 0.55743 0.12851 0.0
C371 C 0.50471 0.57164 0.12242 0.0
Co372 Co 0.63238 0.38013 0.38774 0.0
O373 O 0.65783 0.37493 0.36049 0.0
O374 O 0.67517 0.41864 0.38585 0.0
C375 C 0.61377 0.33198 0.40737 0.0
O376 O 0.61364 0.39349 0.41897 0.0
Co377 Co 0.55804 0.33476 0.38938 0.0
O378 O 0.56255 0.35322 0.42652 0.0
C379 C 0.58783 0.38539 0.34737 0.0
C380 C 0.68137 0.40338 0.36728 0.0
C381 C 0.58759 0.37977 0.43351 0.0
O382 O 0.61557 0.39706 0.35894 0.0
O383 O 0.56234 0.35965 0.35543 0.0
O384 O 0.64192 0.35646 0.41394 0.0
O385 O 0.59883 0.33674 0.38789 0.0
Co386 Co 0.28998 0.65416 0.56039 0.0
O387 O 0.32189 0.65709 0.5853 0.0
O388 O 0.28997 0.61466 0.55942 0.0
C389 C 0.32206 0.70233 0.5407 0.0
O390 O 0.25544 0.64296 0.53154 0.0
Co391 Co 0.2658 0.70073 0.56565 0.0
O392 O 0.24254 0.68073 0.53087 0.0
C393 C 0.24287 0.64807 0.60501 0.0
C394 C 0.3132 0.62832 0.57737 0.0
C395 C 0.24012 0.65531 0.52126 0.0
O396 O 0.25665 0.63663 0.5905 0.0
O397 O 0.24592 0.67514 0.60003 0.0
O398 O 0.3228 0.67739 0.5328 0.0
O399 O 0.30421 0.69822 0.56198 0.0
Co400 Co 0.64999 0.28339 0.72017 0.0
O401 O 0.65763 0.31669 0.69513 0.0
O402 O 0.61159 0.28583 0.71718 0.0
C403 C 0.69658 0.31343 0.74344 0.0
O404 O 0.6339 0.24795 0.74877 0.0
Co405 Co 0.6947 0.25661 0.72059 0.0
O406 O 0.67089 0.23423 0.75429 0.0
C407 C 0.64644 0.23638 0.67672 0.0
C408 C 0.62855 0.30971 0.70059 0.0
C409 C 0.64464 0.23228 0.76115 0.0
O410 O 0.63481 0.25142 0.68903 0.0
O411 O 0.67178 0.23719 0.68499 0.0
O412 O 0.67133 0.31489 0.74916 0.0
O413 O 0.69378 0.29572 0.72248 0.0
Co414 Co 0.38329 0.64752 0.88976 0.0
O415 O 0.3537 0.65022 0.86568 0.0
O416 O 0.34212 0.60726 0.8899 0.0
C417 C 0.40113 0.69533 0.91025 0.0
O418 O 0.40644 0.63633 0.91795 0.0
Co419 Co 0.45673 0.69551 0.8862 0.0
O420 O 0.45783 0.67725 0.92215 0.0
C421 C 0.42517 0.64423 0.84476 0.0
C422 C 0.33261 0.6211 0.87304 0.0
C423 C 0.43401 0.65044 0.93014 0.0
O424 O 0.39887 0.63162 0.85881 0.0
O425 O 0.45044 0.67126 0.85091 0.0
O426 O 0.37445 0.66988 0.91814 0.0
O427 O 0.415 0.69166 0.88903 0.0
Co428 Co 0.74794 0.3809 0.05779 0.0
O429 O 0.71655 0.37533 0.08466 0.0
O430 O 0.74693 0.41988 0.06106 0.0
C431 C 0.71503 0.33376 0.03619 0.0
O432 O 0.78178 0.39491 0.0274 0.0
Co433 Co 0.77257 0.33452 0.05477 0.0
O434 O 0.78956 0.35445 0.01851 0.0
C435 C 0.79595 0.38319 0.09896 0.0
C436 C 0.72411 0.4043 0.07908 0.0
C437 C 0.79352 0.38155 0.01258 0.0
O438 O 0.78178 0.39605 0.08743 0.0
O439 O 0.79346 0.35733 0.0901 0.0
O440 O 0.71412 0.35909 0.03043 0.0
O441 O 0.73416 0.33705 0.05603 0.0
Co442 Co 0.37056 0.73674 0.21654 0.0
O443 O 0.36535 0.70609 0.18913 0.0
O444 O 0.41023 0.73667 0.2128 0.0
C445 C 0.32354 0.70325 0.23803 0.0
O446 O 0.3844 0.7698 0.24743 0.0
Co447 Co 0.32254 0.75976 0.22141 0.0
O448 O 0.34171 0.77367 0.25851 0.0
C449 C 0.37235 0.78627 0.17788 0.0
C450 C 0.39461 0.71385 0.1948 0.0
C451 C 0.3698 0.77906 0.26354 0.0
O452 O 0.38492 0.77096 0.18772 0.0
O453 O 0.34651 0.78362 0.18747 0.0
O454 O 0.34926 0.70255 0.24338 0.0
O455 O 0.3264 0.72249 0.21867 0.0
C456 C 0.26195 0.64273 0.28753 0.0
C457 C 0.23331 0.64045 0.27878 0.0
H458 H 0.31285 0.66445 0.28163 0.0
C459 C 0.2348 0.65963 0.25679 0.0
H460 H 0.26185 0.62886 0.30478 0.0
C461 C 0.26421 0.68044 0.24378 0.0
C462 C 0.29268 0.68238 0.25242 0.0
H463 H 0.21316 0.65828 0.2494 0.0
H464 H 0.26456 0.69471 0.22675 0.0
C465 C 0.29127 0.66338 0.27444 0.0
C466 C 0.60842 0.26488 0.4494 0.0
C467 C 0.57764 0.23887 0.44234 0.0
H468 H 0.64374 0.31472 0.44418 0.0
C469 C 0.5584 0.24393 0.42418 0.0
H470 H 0.62357 0.26186 0.46373 0.0
C471 C 0.56994 0.27431 0.41302 0.0
C472 C 0.60082 0.30021 0.41999 0.0
H473 H 0.53461 0.22431 0.41833 0.0
H474 H 0.55477 0.27745 0.39882 0.0
C475 C 0.61985 0.29523 0.43841 0.0
C476 C 0.36826 0.61285 0.61987 0.0
C477 C 0.36261 0.58373 0.60887 0.0
H478 H 0.35712 0.64949 0.61866 0.0
C479 C 0.34017 0.56912 0.58733 0.0
H480 H 0.3847 0.62443 0.63692 0.0
C481 C 0.3238 0.58336 0.5771 0.0
C482 C 0.32968 0.61251 0.58816 0.0
H483 H 0.33537 0.54679 0.57827 0.0
H484 H 0.30675 0.57166 0.56045 0.0
C485 C 0.35214 0.62709 0.60957 0.0
C486 C 0.78563 0.35731 0.76147 0.0
C487 C 0.78806 0.38025 0.78042 0.0
H488 H 0.75458 0.31796 0.73476 0.0
C489 C 0.75993 0.37953 0.78834 0.0
H490 H 0.80697 0.35734 0.75504 0.0
C491 C 0.73011 0.35699 0.77699 0.0
C492 C 0.72775 0.33478 0.7573 0.0
H493 H 0.76099 0.39651 0.8033 0.0
H494 H 0.70901 0.35751 0.78323 0.0
C495 C 0.75571 0.33482 0.74988 0.0
C496 C 0.45106 0.78474 0.92475 0.0
C497 C 0.43144 0.78829 0.94388 0.0
H498 H 0.45684 0.75242 0.899 0.0
C499 C 0.40263 0.76089 0.95267 0.0
H500 H 0.47341 0.80548 0.91765 0.0
C501 C 0.39334 0.73063 0.94226 0.0
C502 C 0.41251 0.72712 0.92265 0.0
H503 H 0.38735 0.7628 0.96781 0.0
H504 H 0.37082 0.71005 0.9493 0.0
C505 C 0.44158 0.75442 0.9141 0.0
C506 C 0.66181 0.40902 0.12142 0.0
C507 C 0.66338 0.43638 0.11088 0.0
H508 H 0.68003 0.37792 0.12 0.0
C509 C 0.68736 0.45515 0.09143 0.0
H510 H 0.64408 0.39452 0.1369 0.0
C511 C 0.70825 0.44562 0.08167 0.0
C512 C 0.7055 0.41732 0.09139 0.0
H513 H 0.68914 0.47644 0.08307 0.0
H514 H 0.72571 0.45973 0.06591 0.0
C515 C 0.68257 0.39963 0.11183 0.0
C516 C 0.38254 0.76549 0.49248 0.0
C517 C 0.38615 0.79381 0.50335 0.0
H518 H 0.35936 0.71466 0.49554 0.0
C519 C 0.36712 0.79172 0.52602 0.0
H520 H 0.39618 0.76612 0.4746 0.0
C521 C 0.34562 0.76191 0.53801 0.0
C522 C 0.34276 0.73378 0.52742 0.0
H523 H 0.36934 0.81315 0.5348 0.0
H524 H 0.3317 0.76097 0.55578 0.0
C525 C 0.36118 0.7359 0.50436 0.0
C526 C 0.57476 0.34225 0.68439 0.0
C527 C 0.59696 0.37147 0.6717 0.0
H528 H 0.56734 0.29963 0.70382 0.0
C529 C 0.6289 0.37938 0.66778 0.0
H530 H 0.54994 0.33556 0.68754 0.0
C531 C 0.63866 0.35882 0.67662 0.0
C532 C 0.61681 0.32992 0.68987 0.0
H533 H 0.64637 0.40144 0.6576 0.0
H534 H 0.66359 0.36591 0.67338 0.0
C535 C 0.58469 0.32173 0.69365 0.0
C536 C 0.2531 0.60934 0.8509 0.0
C537 C 0.23637 0.5775 0.84105 0.0
H538 H 0.2969 0.64809 0.8681 0.0
C539 C 0.25107 0.55937 0.84382 0.0
H540 H 0.24242 0.62388 0.85014 0.0
C541 C 0.28194 0.57306 0.85529 0.0
C542 C 0.29904 0.60534 0.86342 0.0
H543 H 0.23941 0.53498 0.83619 0.0
H544 H 0.293 0.55887 0.85662 0.0
C545 C 0.28428 0.62324 0.86144 0.0
C546 C 0.65049 0.27097 0.98967 0.0
C547 C 0.64582 0.24231 0.00054 0.0
H548 H 0.67611 0.32216 0.99223 0.0
C549 C 0.66563 0.24417 0.02234 0.0
H550 H 0.63632 0.27055 0.97241 0.0
C551 C 0.68891 0.27397 0.03346 0.0
C552 C 0.69274 0.30244 0.02304 0.0
H553 H 0.66263 0.22259 0.03125 0.0
H554 H 0.70331 0.27464 0.05063 0.0
C555 C 0.67356 0.30063 0.00085 0.0
C556 C 0.4494 0.68173 0.18068 0.0
C557 C 0.42875 0.65414 0.1651 0.0
H558 H 0.45478 0.72251 0.20256 0.0
C559 C 0.39806 0.64785 0.1579 0.0
H560 H 0.47328 0.68718 0.18634 0.0
C561 C 0.38773 0.66807 0.16673 0.0
C562 C 0.40772 0.69502 0.18319 0.0
H563 H 0.38191 0.62715 0.14539 0.0
H564 H 0.36365 0.66205 0.16111 0.0
C565 C 0.43886 0.70192 0.18986 0.0
C566 C 0.75072 0.40602 0.32998 0.0
C567 C 0.77714 0.43599 0.33789 0.0
H568 H 0.69998 0.37266 0.33258 0.0
C569 C 0.77172 0.45654 0.35412 0.0
H570 H 0.75417 0.38998 0.31705 0.0
C571 C 0.74041 0.4465 0.36327 0.0
C572 C 0.71413 0.41602 0.35592 0.0
H573 H 0.79176 0.47986 0.36034 0.0
H574 H 0.73688 0.46228 0.37647 0.0
C575 C 0.71963 0.39622 0.33876 0.0
C576 C 0.17637 0.63288 0.4665 0.0
C577 C 0.17894 0.61015 0.45079 0.0
H578 H 0.19361 0.66497 0.50092 0.0
C579 C 0.20127 0.60181 0.45898 0.0
H580 H 0.15913 0.63953 0.46109 0.0
C581 C 0.22076 0.61609 0.48206 0.0
C582 C 0.21868 0.63934 0.49735 0.0
H583 H 0.20443 0.58488 0.44713 0.0
H584 H 0.23797 0.6094 0.48752 0.0
C585 C 0.19611 0.64741 0.48941 0.0
C586 C 0.5885 0.20094 0.61668 0.0
C587 C 0.59681 0.17993 0.60499 0.0
H588 H 0.59756 0.23516 0.64823 0.0
C589 C 0.62161 0.17758 0.61717 0.0
H590 H 0.57 0.20392 0.60753 0.0
C591 C 0.63779 0.19593 0.64039 0.0
C592 C 0.62946 0.21695 0.65204 0.0
H593 H 0.6284 0.1614 0.60888 0.0
H594 H 0.65675 0.19347 0.64928 0.0
C595 C 0.60452 0.21913 0.63995 0.0
C596 C 0.44797 0.62514 0.77585 0.0
C597 C 0.42674 0.59163 0.7741 0.0
H598 H 0.46425 0.668 0.79954 0.0
C599 C 0.40581 0.57568 0.7963 0.0
H600 H 0.46408 0.63841 0.75906 0.0
C601 C 0.40533 0.5928 0.81913 0.0
C602 C 0.42624 0.62625 0.82067 0.0
H603 H 0.38966 0.54987 0.79611 0.0
H604 H 0.38867 0.57974 0.83572 0.0
C605 C 0.44792 0.64221 0.79898 0.0
C606 C 0.84451 0.44656 0.96057 0.0
C607 C 0.85008 0.42918 0.94049 0.0
H608 H 0.82214 0.44522 -0.00098 0.0
C609 C 0.83665 0.39613 0.94444 0.0
H610 H 0.85467 0.47208 0.95839 0.0
C611 C 0.81849 0.38091 0.96783 0.0
C612 C 0.8128 0.39819 0.98782 0.0
H613 H 0.83955 0.38167 0.92917 0.0
H614 H 0.80848 0.35541 0.97 0.0
C615 C 0.82591 0.43118 0.9839 0.0
C616 C 0.42639 0.82594 0.11613 0.0
C617 C 0.4166 0.84684 0.10742 0.0
H618 H 0.42022 0.79052 0.14506 0.0
C619 C 0.39294 0.84846 0.1227 0.0
H620 H 0.44415 0.82364 0.10459 0.0
C621 C 0.37888 0.82909 0.14574 0.0
C622 C 0.38825 0.80776 0.15413 0.0
H623 H 0.38516 0.8646 0.1168 0.0
H624 H 0.36051 0.83078 0.15689 0.0
C625 C 0.41249 0.80673 0.13926 0.0
C626 C 0.60981 0.43428 0.28219 0.0
C627 C 0.57928 0.42667 0.27268 0.0
H628 H 0.63651 0.42742 0.31331 0.0
C629 C 0.55204 0.40756 0.28921 0.0
H630 H 0.6313 0.44859 0.2699 0.0
C631 C 0.55498 0.39498 0.31387 0.0
C632 C 0.58531 0.40153 0.3228 0.0
H633 H 0.52826 0.4018 0.28286 0.0
H634 H 0.53336 0.37965 0.32573 0.0
C635 C 0.61281 0.422 0.30706 0.0
C636 C 0.38289 0.81276 0.33538 0.0
C637 C 0.41614 0.83632 0.33546 0.0
H638 H 0.34238 0.77657 0.31261 0.0
C639 C 0.43446 0.83949 0.31187 0.0
H640 H 0.36805 0.80856 0.35336 0.0
C641 C 0.41972 0.82009 0.28871 0.0
C642 C 0.3863 0.79767 0.2885 0.0
H643 H 0.46003 0.85743 0.31098 0.0
H644 H 0.43422 0.82343 0.27066 0.0
C645 C 0.36812 0.79405 0.3121 0.0
C646 C 0.6082 0.44086 0.49075 0.0
C647 C 0.58212 0.42341 0.50893 0.0
H648 H 0.63053 0.4409 0.45264 0.0
C649 C 0.5582 0.39173 0.50196 0.0
H650 H 0.62696 0.46539 0.49538 0.0
C651 C 0.56006 0.37788 0.4775 0.0
C652 C 0.58609 0.39518 0.45933 0.0
H653 H 0.53822 0.37719 0.51571 0.0
H654 H 0.54119 0.35335 0.47307 0.0
C655 C 0.61019 0.42685 0.46623 0.0
C656 C 0.18946 0.57668 0.65029 0.0
C657 C 0.18302 0.59098 0.67253 0.0
H658 H 0.21353 0.58344 0.61182 0.0
C659 C 0.19592 0.62431 0.67194 0.0
H660 H 0.17947 0.55106 0.64964 0.0
C661 C 0.21495 0.64282 0.64987 0.0
C662 C 0.222 0.62855 0.62809 0.0
H663 H 0.19208 0.63637 0.68886 0.0
H664 H 0.22477 0.66843 0.6502 0.0
C665 C 0.20893 0.59527 0.6285 0.0
C666 C 0.58903 0.19821 0.82287 0.0
C667 C 0.59644 0.17589 0.83271 0.0
H668 H 0.59835 0.23351 0.79248 0.0
C669 C 0.6178 0.17057 0.81749 0.0
H670 H 0.57294 0.20317 0.8342 0.0
C671 C 0.63271 0.18829 0.79389 0.0
C672 C 0.62638 0.21156 0.78469 0.0
H673 H 0.62352 0.15308 0.82412 0.0
H674 H 0.64963 0.18406 0.78307 0.0
C675 C 0.60374 0.21576 0.79902 0.0
C676 C 0.41855 0.58871 0.98436 0.0
C677 C 0.44448 0.60665 0.00254 0.0
H678 H 0.39481 0.58838 0.94733 0.0
C679 C 0.46753 0.63875 0.99604 0.0
H680 H 0.40062 0.56381 0.98843 0.0
C681 C 0.46449 0.6527 0.97227 0.0
C682 C 0.43809 0.63503 0.95453 0.0
H683 H 0.48749 0.65356 0.00976 0.0
H684 H 0.48238 0.67761 0.96822 0.0
C685 C 0.4153 0.6028 0.96072 0.0
C686 C 0.84899 0.39861 0.161 0.0
C687 C 0.84664 0.42235 0.17521 0.0
H688 H 0.83513 0.36784 0.12589 0.0
C689 C 0.82959 0.435 0.16306 0.0
H690 H 0.86247 0.38881 0.16957 0.0
C691 C 0.81396 0.42307 0.13784 0.0
C692 C 0.81505 0.39821 0.12427 0.0
H693 H 0.82715 0.45315 0.17358 0.0
H694 H 0.80013 0.43259 0.12947 0.0
C695 C 0.83336 0.38665 0.13589 0.0
loop_
_geom_bond_atom_site_label_1
_geom_bond_atom_site_label_2
_geom_bond_distance
_geom_bond_site_symmetry_2
_ccdc_geom_bond_type
H0 C27 0.929 . S
N1 C26 1.433 . S
N1 C32 1.435 . S
N1 C38 1.423 . S
H2 C28 0.930 . S
H3 C31 0.931 . S
H4 C30 0.929 . S
H5 C33 0.930 . S
H6 C34 0.932 . S
H7 C37 0.929 . S
H8 C36 0.931 . S
H9 C39 0.929 . S
H10 C43 0.932 . S
H11 C40 0.931 . S
H12 C42 0.929 . S
H13 C45 0.929 . S
H14 C46 0.930 . S
H15 C48 0.929 . S
H16 C49 0.931 . S
H17 C51 0.930 . S
H18 C52 0.932 . S
H19 C54 0.931 . S
H20 C55 0.929 . S
H21 C57 0.929 . S
H22 C58 0.931 . S
H23 C60 0.929 . S
N24 C44 1.433 . S
N24 C50 1.435 . S
N24 C56 1.423 . S
H25 C61 0.932 . S
C26 N1 1.433 . S
C26 C27 1.363 . S
C26 C31 1.370 . S
C27 H0 0.929 . S
C27 C26 1.363 . S
C27 C28 1.385 . S
C28 H2 0.930 . S
C28 C27 1.385 . S
C28 C29 1.357 . S
C29 C28 1.357 . S
C29 C30 1.406 . S
C30 H4 0.929 . S
C30 C29 1.406 . S
C30 C31 1.391 . S
C31 H3 0.931 . S
C31 C26 1.370 . S
C31 C30 1.391 . S
C32 N1 1.435 . S
C32 C33 1.358 . S
C32 C37 1.371 . S
C33 H5 0.930 . S
C33 C32 1.358 . S
C33 C34 1.405 . S
C34 H6 0.932 . S
C34 C33 1.405 . S
C34 C35 1.383 . S
C35 C34 1.383 . S
C35 C36 1.393 . S
C36 H8 0.931 . S
C36 C35 1.393 . S
C36 C37 1.382 . S
C37 H7 0.929 . S
C37 C32 1.371 . S
C37 C36 1.382 . S
C38 N1 1.423 . S
C38 C39 1.362 . S
C38 C43 1.388 . S
C39 H9 0.929 . S
C39 C38 1.362 . S
C39 C40 1.376 . S
C40 H11 0.931 . S
C40 C39 1.376 . S
C40 C41 1.396 . S
C41 C40 1.396 . S
C41 C42 1.348 . S
C41 C59 1.472 1_455 S
C42 H12 0.929 . S
C42 C41 1.348 . S
C42 C43 1.443 . S
C43 H10 0.932 . S
C43 C38 1.388 . S
C43 C42 1.443 . S
C44 N24 1.433 . S
C44 C45 1.363 . S
C44 C49 1.370 . S
C45 H13 0.929 . S
C45 C44 1.363 . S
C45 C46 1.385 . S
C46 H14 0.930 . S
C46 C45 1.385 . S
C46 C47 1.357 . S
C47 C46 1.357 . S
C47 C48 1.406 . S
C48 H15 0.929 . S
C48 C47 1.406 . S
C48 C49 1.391 . S
C49 H16 0.931 . S
C49 C44 1.370 . S
C49 C48 1.391 . S
C50 N24 1.435 . S
C50 C51 1.358 . S
C50 C55 1.371 . S
C51 H17 0.930 . S
C51 C50 1.358 . S
C51 C52 1.405 . S
C52 H18 0.932 . S
C52 C51 1.405 . S
C52 C53 1.383 . S
C53 C52 1.383 . S
C53 C54 1.393 . S
C54 H19 0.931 . S
C54 C53 1.393 . S
C54 C55 1.382 . S
C55 H20 0.929 . S
C55 C50 1.371 . S
C55 C54 1.382 . S
C56 N24 1.423 . S
C56 C57 1.362 . S
C56 C61 1.388 . S
C57 H21 0.929 . S
C57 C56 1.362 . S
C57 C58 1.376 . S
C58 H22 0.931 . S
C58 C57 1.376 . S
C58 C59 1.396 . S
C59 C41 1.472 1_655 S
C59 C58 1.396 . S
C59 C60 1.348 . S
C60 H23 0.929 . S
C60 C59 1.348 . S
C60 C61 1.443 . S
C61 H25 0.932 . S
C61 C56 1.388 . S
C61 C60 1.443 . S
H62 C89 0.929 . S
N63 C88 1.433 . S
N63 C94 1.435 . S
N63 C100 1.423 . S
H64 C90 0.930 . S
H65 C93 0.931 . S
H66 C92 0.929 . S
H67 C95 0.930 . S
H68 C96 0.932 . S
H69 C99 0.929 . S
H70 C98 0.931 . S
H71 C101 0.929 . S
H72 C105 0.932 . S
H73 C102 0.931 . S
H74 C104 0.929 1_545 S
H75 C107 0.929 . S
H76 C108 0.930 . S
H77 C110 0.929 . S
H78 C111 0.931 . S
H79 C113 0.930 . S
H80 C114 0.932 . S
H81 C116 0.931 . S
H82 C117 0.929 . S
H83 C119 0.929 . S
H84 C120 0.931 . S
H85 C122 0.929 . S
N86 C106 1.433 . S
N86 C112 1.435 . S
N86 C118 1.423 . S
H87 C123 0.932 . S
C88 N63 1.433 . S
C88 C89 1.363 . S
C88 C93 1.370 . S
C89 H62 0.929 . S
C89 C88 1.363 . S
C89 C90 1.385 . S
C90 H64 0.930 . S
C90 C89 1.385 . S
C90 C91 1.357 . S
C91 C90 1.357 . S
C91 C92 1.406 . S
C92 H66 0.929 . S
C92 C91 1.406 . S
C92 C93 1.391 . S
C93 H65 0.931 . S
C93 C88 1.370 . S
C93 C92 1.391 . S
C94 N63 1.435 . S
C94 C95 1.358 . S
C94 C99 1.371 . S
C95 H67 0.930 . S
C95 C94 1.358 . S
C95 C96 1.405 . S
C96 H68 0.932 . S
C96 C95 1.405 . S
C96 C97 1.383 . S
C97 C96 1.383 . S
C97 C98 1.393 . S
C98 H70 0.931 . S
C98 C97 1.393 . S
C98 C99 1.382 . S
C99 H69 0.929 . S
C99 C94 1.371 . S
C99 C98 1.382 . S
C100 N63 1.423 . S
C100 C101 1.362 . S
C100 C105 1.388 . S
C101 H71 0.929 . S
C101 C100 1.362 . S
C101 C102 1.376 . S
C102 H73 0.931 . S
C102 C101 1.376 . S
C102 C103 1.396 1_565 S
C103 C102 1.396 1_545 S
C103 C104 1.348 1_545 S
C103 C121 1.472 . S
C104 H74 0.929 1_565 S
C104 C103 1.348 1_565 S
C104 C105 1.443 . S
C105 H72 0.932 . S
C105 C100 1.388 . S
C105 C104 1.443 . S
C106 N86 1.433 . S
C106 C107 1.363 . S
C106 C111 1.370 . S
C107 H75 0.929 . S
C107 C106 1.363 . S
C107 C108 1.385 . S
C108 H76 0.930 . S
C108 C107 1.385 . S
C108 C109 1.357 . S
C109 C108 1.357 . S
C109 C110 1.406 . S
C110 H77 0.929 . S
C110 C109 1.406 . S
C110 C111 1.391 . S
C111 H78 0.931 . S
C111 C106 1.370 . S
C111 C110 1.391 . S
C112 N86 1.435 . S
C112 C113 1.358 . S
C112 C117 1.371 . S
C113 H79 0.930 . S
C113 C112 1.358 . S
C113 C114 1.405 . S
C114 H80 0.932 . S
C114 C113 1.405 . S
C114 C115 1.383 . S
C115 C114 1.383 . S
C115 C116 1.393 . S
C116 H81 0.931 . S
C116 C115 1.393 . S
C116 C117 1.382 . S
C117 H82 0.929 . S
C117 C112 1.371 . S
C117 C116 1.382 . S
C118 N86 1.423 . S
C118 C119 1.362 . S
C118 C123 1.388 . S
C119 H83 0.929 . S
C119 C118 1.362 . S
C119 C120 1.376 . S
C120 H84 0.931 . S
C120 C119 1.376 . S
C120 C121 1.396 . S
C121 C103 1.472 . S
C121 C120 1.396 . S
C121 C122 1.348 . S
C122 H85 0.929 . S
C122 C121 1.348 . S
C122 C123 1.443 . S
C123 H87 0.932 . S
C123 C118 1.388 . S
C123 C122 1.443 . S
H124 C151 0.929 . S
N125 C150 1.433 . S
N125 C156 1.435 . S
N125 C162 1.423 . S
H126 C152 0.930 . S
H127 C155 0.931 . S
H128 C154 0.929 . S
H129 C157 0.930 . S
H130 C158 0.932 . S
H131 C161 0.929 . S
H132 C160 0.931 . S
H133 C163 0.929 . S
H134 C167 0.932 . S
H135 C164 0.931 . S
H136 C166 0.929 . S
H137 C169 0.929 . S
H138 C170 0.930 . S
H139 C172 0.929 . S
H140 C173 0.931 . S
H141 C175 0.930 . S
H142 C176 0.932 . S
H143 C178 0.931 . S
H144 C179 0.929 . S
H145 C181 0.929 . S
H146 C182 0.931 . S
H147 C184 0.929 . S
N148 C168 1.433 . S
N148 C174 1.435 . S
N148 C180 1.423 . S
H149 C185 0.932 . S
C150 N125 1.433 . S
C150 C151 1.363 . S
C150 C155 1.370 . S
C151 H124 0.929 . S
C151 C150 1.363 . S
C151 C152 1.385 . S
C152 H126 0.930 . S
C152 C151 1.385 . S
C152 C153 1.357 . S
C153 C152 1.357 . S
C153 C154 1.406 . S
C154 H128 0.929 . S
C154 C153 1.406 . S
C154 C155 1.391 . S
C155 H127 0.931 . S
C155 C150 1.370 . S
C155 C154 1.391 . S
C156 N125 1.435 . S
C156 C157 1.358 . S
C156 C161 1.371 . S
C157 H129 0.930 . S
C157 C156 1.358 . S
C157 C158 1.405 . S
C158 H130 0.932 . S
C158 C157 1.405 . S
C158 C159 1.383 . S
C159 C158 1.383 . S
C159 C160 1.393 . S
C160 H132 0.931 . S
C160 C159 1.393 . S
C160 C161 1.382 . S
C161 H131 0.929 . S
C161 C156 1.371 . S
C161 C160 1.382 . S
C162 N125 1.423 . S
C162 C163 1.362 . S
C162 C167 1.388 . S
C163 H133 0.929 . S
C163 C162 1.362 . S
C163 C164 1.376 . S
C164 H135 0.931 . S
C164 C163 1.376 . S
C164 C165 1.396 . S
C165 C164 1.396 . S
C165 C166 1.348 . S
C165 C183 1.472 . S
C166 H136 0.929 . S
C166 C165 1.348 . S
C166 C167 1.443 . S
C167 H134 0.932 . S
C167 C162 1.388 . S
C167 C166 1.443 . S
C168 N148 1.433 . S
C168 C169 1.363 . S
C168 C173 1.370 . S
C169 H137 0.929 . S
C169 C168 1.363 . S
C169 C170 1.385 . S
C170 H138 0.930 . S
C170 C169 1.385 . S
C170 C171 1.357 . S
C171 C170 1.357 . S
C171 C172 1.406 . S
C172 H139 0.929 . S
C172 C171 1.406 . S
C172 C173 1.391 . S
C173 H140 0.931 . S
C173 C168 1.370 . S
C173 C172 1.391 . S
C174 N148 1.435 . S
C174 C175 1.358 . S
C174 C179 1.371 . S
C175 H141 0.930 . S
C175 C174 1.358 . S
C175 C176 1.405 . S
C176 H142 0.932 . S
C176 C175 1.405 . S
C176 C177 1.383 . S
C177 C176 1.383 . S
C177 C178 1.393 . S
C178 H143 0.931 . S
C178 C177 1.393 . S
C178 C179 1.382 . S
C179 H144 0.929 . S
C179 C174 1.371 . S
C179 C178 1.382 . S
C180 N148 1.423 . S
C180 C181 1.362 . S
C180 C185 1.388 . S
C181 H145 0.929 . S
C181 C180 1.362 . S
C181 C182 1.376 . S
C182 H146 0.931 . S
C182 C181 1.376 . S
C182 C183 1.396 . S
C183 C165 1.472 . S
C183 C182 1.396 . S
C183 C184 1.348 . S
C184 H147 0.929 . S
C184 C183 1.348 . S
C184 C185 1.443 . S
C185 H149 0.932 . S
C185 C180 1.388 . S
C185 C184 1.443 . S
H186 C213 0.929 . S
N187 C212 1.433 . S
N187 C218 1.435 . S
N187 C224 1.423 . S
H188 C214 0.930 . S
H189 C217 0.931 . S
H190 C216 0.929 . S
H191 C219 0.930 . S
H192 C220 0.932 . S
H193 C223 0.929 . S
H194 C222 0.931 . S
H195 C225 0.929 . S
H196 C229 0.932 . S
H197 C226 0.931 . S
H198 C228 0.929 . S
H199 C231 0.929 . S
H200 C232 0.930 . S
H201 C234 0.929 . S
H202 C235 0.931 . S
H203 C237 0.930 . S
H204 C238 0.932 . S
H205 C240 0.931 . S
H206 C241 0.929 . S
H207 C243 0.929 . S
H208 C244 0.931 . S
H209 C246 0.929 . S
N210 C230 1.433 . S
N210 C236 1.435 . S
N210 C242 1.423 . S
H211 C247 0.932 . S
C212 N187 1.433 . S
C212 C213 1.363 . S
C212 C217 1.370 . S
C213 H186 0.929 . S
C213 C212 1.363 . S
C213 C214 1.385 . S
C214 H188 0.930 . S
C214 C213 1.385 . S
C214 C215 1.357 . S
C215 C214 1.357 . S
C215 C216 1.406 . S
C216 H190 0.929 . S
C216 C215 1.406 . S
C216 C217 1.391 . S
C217 H189 0.931 . S
C217 C212 1.370 . S
C217 C216 1.391 . S
C218 N187 1.435 . S
C218 C219 1.358 . S
C218 C223 1.371 . S
C219 H191 0.930 . S
C219 C218 1.358 . S
C219 C220 1.405 . S
C220 H192 0.932 . S
C220 C219 1.405 . S
C220 C221 1.383 . S
C221 C220 1.383 . S
C221 C222 1.393 . S
C222 H194 0.931 . S
C222 C221 1.393 . S
C222 C223 1.382 . S
C223 H193 0.929 . S
C223 C218 1.371 . S
C223 C222 1.382 . S
C224 N187 1.423 . S
C224 C225 1.362 . S
C224 C229 1.388 . S
C225 H195 0.929 . S
C225 C224 1.362 . S
C225 C226 1.376 . S
C226 H197 0.931 . S
C226 C225 1.376 . S
C226 C227 1.396 . S
C227 C226 1.396 . S
C227 C228 1.348 . S
C227 C245 1.472 1_455 S
C228 H198 0.929 . S
C228 C227 1.348 . S
C228 C229 1.443 . S
C229 H196 0.932 . S
C229 C224 1.388 . S
C229 C228 1.443 . S
C230 N210 1.433 . S
C230 C231 1.363 . S
C230 C235 1.370 . S
C231 H199 0.929 . S
C231 C230 1.363 . S
C231 C232 1.385 . S
C232 H200 0.930 . S
C232 C231 1.385 . S
C232 C233 1.357 . S
C233 C232 1.357 . S
C233 C234 1.406 . S
C234 H201 0.929 . S
C234 C233 1.406 . S
C234 C235 1.391 . S
C235 H202 0.931 . S
C235 C230 1.370 . S
C235 C234 1.391 . S
C236 N210 1.435 . S
C236 C237 1.358 . S
C236 C241 1.371 . S
C237 H203 0.930 . S
C237 C236 1.358 . S
C237 C238 1.405 . S
C238 H204 0.932 . S
C238 C237 1.405 . S
C238 C239 1.383 . S
C239 C238 1.383 . S
C239 C240 1.393 . S
C240 H205 0.931 . S
C240 C239 1.393 . S
C240 C241 1.382 . S
C241 H206 0.929 . S
C241 C236 1.371 . S
C241 C240 1.382 . S
C242 N210 1.423 . S
C242 C243 1.362 . S
C242 C247 1.388 . S
C243 H207 0.929 . S
C243 C242 1.362 . S
C243 C244 1.376 . S
C244 H208 0.931 . S
C244 C243 1.376 . S
C244 C245 1.396 . S
C245 C227 1.472 1_655 S
C245 C244 1.396 . S
C245 C246 1.348 . S
C246 H209 0.929 . S
C246 C245 1.348 . S
C246 C247 1.443 . S
C247 H211 0.932 . S
C247 C242 1.388 . S
C247 C246 1.443 . S
H248 C275 0.929 . S
N249 C274 1.433 . S
N249 C280 1.435 . S
N249 C286 1.423 . S
H250 C276 0.930 . S
H251 C279 0.931 . S
H252 C278 0.929 . S
H253 C281 0.930 . S
H254 C282 0.932 . S
H255 C285 0.929 . S
H256 C284 0.931 . S
H257 C287 0.929 . S
H258 C291 0.932 . S
H259 C288 0.931 . S
H260 C290 0.929 . S
H261 C293 0.929 . S
H262 C294 0.930 . S
H263 C296 0.929 . S
H264 C297 0.931 . S
H265 C299 0.901 1_554 S
H266 C300 0.932 . S
H267 C302 0.931 . S
H268 C303 0.929 . S
H269 C305 0.929 . S
H270 C306 0.931 1_554 S
H271 C308 0.929 . S
N272 C292 1.433 . S
N272 C298 1.435 1_554 S
N272 C304 1.423 1_554 S
H273 C309 0.932 . S
C274 N249 1.433 . S
C274 C275 1.363 . S
C274 C279 1.370 . S
C275 H248 0.929 . S
C275 C274 1.363 . S
C275 C276 1.385 . S
C276 H250 0.930 . S
C276 C275 1.385 . S
C276 C277 1.357 1_556 S
C277 C276 1.357 1_554 S
C277 C278 1.406 . S
C278 H252 0.929 . S
C278 C277 1.406 . S
C278 C279 1.391 1_554 S
C279 H251 0.931 . S
C279 C274 1.370 . S
C279 C278 1.391 1_556 S
C280 N249 1.435 . S
C280 C281 1.358 . S
C280 C285 1.371 . S
C281 H253 0.930 . S
C281 C280 1.358 . S
C281 C282 1.405 . S
C282 H254 0.932 . S
C282 C281 1.405 . S
C282 C283 1.383 . S
C283 C282 1.383 . S
C283 C284 1.393 . S
C284 H256 0.931 . S
C284 C283 1.393 . S
C284 C285 1.382 . S
C285 H255 0.929 . S
C285 C280 1.371 . S
C285 C284 1.382 . S
C286 N249 1.423 . S
C286 C287 1.362 . S
C286 C291 1.388 . S
C287 H257 0.929 . S
C287 C286 1.362 . S
C287 C288 1.376 . S
C288 H259 0.931 . S
C288 C287 1.376 . S
C288 C289 1.396 . S
C289 C288 1.396 . S
C289 C290 1.348 . S
C289 C307 1.472 1_545 S
C290 H260 0.929 . S
C290 C289 1.348 . S
C290 C291 1.443 . S
C291 H258 0.932 . S
C291 C286 1.388 . S
C291 C290 1.443 . S
C292 N272 1.433 . S
C292 C293 1.363 . S
C292 C297 1.370 . S
C293 H261 0.929 . S
C293 C292 1.363 . S
C293 C294 1.385 . S
C294 H262 0.930 . S
C294 C293 1.385 . S
C294 C295 1.357 . S
C295 C294 1.357 . S
C295 C296 1.406 . S
C296 H263 0.929 . S
C296 C295 1.406 . S
C296 C297 1.391 . S
C297 H264 0.931 . S
C297 C292 1.370 . S
C297 C296 1.391 . S
C298 N272 1.435 1_556 S
C298 C299 1.369 . S
C298 C303 1.371 . S
C299 H265 0.901 1_556 S
C299 C298 1.369 . S
C299 C300 1.425 . S
C300 H266 0.932 . S
C300 C299 1.425 . S
C300 C301 1.383 . S
C301 C300 1.383 . S
C301 C302 1.393 . S
C302 H267 0.931 . S
C302 C301 1.393 . S
C302 C303 1.382 . S
C303 H268 0.929 . S
C303 C298 1.371 . S
C303 C302 1.382 . S
C304 N272 1.423 1_556 S
C304 C305 1.362 1_556 S
C304 C309 1.388 . S
C305 H269 0.929 . S
C305 C304 1.362 1_554 S
C305 C306 1.376 1_554 S
C306 H270 0.931 1_556 S
C306 C305 1.376 1_556 S
C306 C307 1.396 . S
C307 C289 1.472 1_565 S
C307 C306 1.396 . S
C307 C308 1.348 . S
C308 H271 0.929 . S
C308 C307 1.348 . S
C308 C309 1.443 . S
C309 H273 0.932 . S
C309 C304 1.388 . S
C309 C308 1.443 . S
H310 C337 0.929 . S
N311 C336 1.433 . S
N311 C342 1.435 . S
N311 C348 1.423 . S
H312 C338 0.930 . S
H313 C341 0.931 . S
H314 C340 0.929 . S
H315 C343 0.930 . S
H316 C344 0.932 . S
H317 C347 0.929 . S
H318 C346 0.931 . S
H319 C349 0.929 . S
H320 C353 0.932 . S
H321 C350 0.931 . S
H322 C352 0.929 . S
H323 C355 0.929 . S
H324 C356 0.930 . S
H325 C358 0.929 . S
H326 C359 0.931 . S
H327 C361 0.930 . S
H328 C362 0.932 . S
H329 C364 0.931 . S
H330 C365 0.929 . S
H331 C367 0.929 . S
H332 C368 0.931 . S
H333 C370 0.929 . S
N334 C354 1.433 . S
N334 C360 1.435 . S
N334 C366 1.423 . S
H335 C371 0.932 . S
C336 N311 1.433 . S
C336 C337 1.363 . S
C336 C341 1.370 . S
C337 H310 0.929 . S
C337 C336 1.363 . S
C337 C338 1.385 . S
C338 H312 0.930 . S
C338 C337 1.385 . S
C338 C339 1.357 . S
C339 C338 1.357 . S
C339 C340 1.406 . S
C340 H314 0.929 . S
C340 C339 1.406 . S
C340 C341 1.391 . S
C341 H313 0.931 . S
C341 C336 1.370 . S
C341 C340 1.391 . S
C342 N311 1.435 . S
C342 C343 1.358 . S
C342 C347 1.371 . S
C343 H315 0.930 . S
C343 C342 1.358 . S
C343 C344 1.405 . S
C344 H316 0.932 . S
C344 C343 1.405 . S
C344 C345 1.383 . S
C345 C344 1.383 . S
C345 C346 1.393 . S
C346 H318 0.931 . S
C346 C345 1.393 . S
C346 C347 1.382 . S
C347 H317 0.929 . S
C347 C342 1.371 . S
C347 C346 1.382 . S
C348 N311 1.423 . S
C348 C349 1.362 . S
C348 C353 1.388 . S
C349 H319 0.929 . S
C349 C348 1.362 . S
C349 C350 1.376 . S
C350 H321 0.931 . S
C350 C349 1.376 . S
C350 C351 1.396 . S
C351 C350 1.396 . S
C351 C352 1.348 . S
C351 C369 1.472 . S
C352 H322 0.929 . S
C352 C351 1.348 . S
C352 C353 1.443 . S
C353 H320 0.932 . S
C353 C348 1.388 . S
C353 C352 1.443 . S
C354 N334 1.433 . S
C354 C355 1.363 . S
C354 C359 1.370 . S
C355 H323 0.929 . S
C355 C354 1.363 . S
C355 C356 1.385 . S
C356 H324 0.930 . S
C356 C355 1.385 . S
C356 C357 1.357 . S
C357 C356 1.357 . S
C357 C358 1.406 . S
C358 H325 0.929 . S
C358 C357 1.406 . S
C358 C359 1.391 . S
C359 H326 0.931 . S
C359 C354 1.370 . S
C359 C358 1.391 . S
C360 N334 1.435 . S
C360 C361 1.358 . S
C360 C365 1.371 . S
C361 H327 0.930 . S
C361 C360 1.358 . S
C361 C362 1.405 . S
C362 H328 0.932 . S
C362 C361 1.405 . S
C362 C363 1.383 . S
C363 C362 1.383 . S
C363 C364 1.393 . S
C364 H329 0.931 . S
C364 C363 1.393 . S
C364 C365 1.382 . S
C365 H330 0.929 . S
C365 C360 1.371 . S
C365 C364 1.382 . S
C366 N334 1.423 . S
C366 C367 1.362 . S
C366 C371 1.388 . S
C367 H331 0.929 . S
C367 C366 1.362 . S
C367 C368 1.376 . S
C368 H332 0.931 . S
C368 C367 1.376 . S
C368 C369 1.396 . S
C369 C351 1.472 . S
C369 C368 1.396 . S
C369 C370 1.348 . S
C370 H333 0.929 . S
C370 C369 1.348 . S
C370 C371 1.443 . S
C371 H335 0.932 . S
C371 C366 1.388 . S
C371 C370 1.443 . S
Co372 O373 2.216 . S
Co372 O374 2.091 . S
Co372 O376 2.004 . S
Co372 O382 2.021 . S
Co372 O384 2.137 . S
Co372 O385 2.244 . S
O373 Co372 2.216 . S
O373 C380 1.247 . S
O374 Co372 2.091 . S
O374 C380 1.261 . S
C375 O384 1.247 . S
C375 O385 1.272 . S
O376 Co372 2.004 . S
O376 C381 1.259 . S
Co377 O378 2.061 . S
Co377 O383 2.052 . S
Co377 O385 2.135 . S
O378 Co377 2.061 . S
O378 C381 1.235 . S
C379 O382 1.238 . S
C379 O383 1.241 . S
C380 O373 1.247 . S
C380 O374 1.261 . S
C381 O376 1.259 . S
C381 O378 1.235 . S
O382 Co372 2.021 . S
O382 C379 1.238 . S
O383 Co377 2.052 . S
O383 C379 1.241 . S
O384 Co372 2.137 . S
O384 C375 1.247 . S
O385 Co372 2.244 . S
O385 C375 1.272 . S
O385 Co377 2.135 . S
Co386 O387 2.216 . S
Co386 O388 2.091 . S
Co386 O390 2.004 . S
Co386 O396 2.021 . S
Co386 O398 2.137 . S
Co386 O399 2.244 . S
O387 Co386 2.216 . S
O387 C394 1.247 . S
O388 Co386 2.091 . S
O388 C394 1.261 . S
C389 O398 1.247 . S
C389 O399 1.272 . S
O390 Co386 2.004 . S
O390 C395 1.259 . S
Co391 O392 2.061 . S
Co391 O397 2.052 . S
Co391 O399 2.135 . S
O392 Co391 2.061 . S
O392 C395 1.235 . S
C393 O396 1.238 . S
C393 O397 1.241 . S
C394 O387 1.247 . S
C394 O388 1.261 . S
C395 O390 1.259 . S
C395 O392 1.235 . S
O396 Co386 2.021 . S
O396 C393 1.238 . S
O397 Co391 2.052 . S
O397 C393 1.241 . S
O398 Co386 2.137 . S
O398 C389 1.247 . S
O399 Co386 2.244 . S
O399 C389 1.272 . S
O399 Co391 2.135 . S
Co400 O401 2.216 . S
Co400 O402 2.091 . S
Co400 O404 2.004 . S
Co400 O410 2.021 . S
Co400 O412 2.137 . S
Co400 O413 2.244 . S
O401 Co400 2.216 . S
O401 C408 1.247 . S
O402 Co400 2.091 . S
O402 C408 1.261 . S
C403 O412 1.247 . S
C403 O413 1.272 . S
O404 Co400 2.004 . S
O404 C409 1.259 . S
Co405 O406 2.061 . S
Co405 O411 2.052 . S
Co405 O413 2.135 . S
O406 Co405 2.061 . S
O406 C409 1.235 . S
C407 O410 1.238 . S
C407 O411 1.241 . S
C408 O401 1.247 . S
C408 O402 1.261 . S
C409 O404 1.259 . S
C409 O406 1.235 . S
O410 Co400 2.021 . S
O410 C407 1.238 . S
O411 Co405 2.052 . S
O411 C407 1.241 . S
O412 Co400 2.137 . S
O412 C403 1.247 . S
O413 Co400 2.244 . S
O413 C403 1.272 . S
O413 Co405 2.135 . S
Co414 O415 2.216 . S
Co414 O416 2.091 . S
Co414 O418 2.004 . S
Co414 O424 2.021 . S
Co414 O426 2.137 . S
Co414 O427 2.244 . S
O415 Co414 2.216 . S
O415 C422 1.247 . S
O416 Co414 2.091 . S
O416 C422 1.261 . S
C417 O426 1.247 . S
C417 O427 1.272 . S
O418 Co414 2.004 . S
O418 C423 1.259 . S
Co419 O420 2.061 . S
Co419 O425 2.052 . S
Co419 O427 2.135 . S
O420 Co419 2.061 . S
O420 C423 1.235 . S
C421 O424 1.238 . S
C421 O425 1.241 . S
C422 O415 1.247 . S
C422 O416 1.261 . S
C423 O418 1.259 . S
C423 O420 1.235 . S
O424 Co414 2.021 . S
O424 C421 1.238 . S
O425 Co419 2.052 . S
O425 C421 1.241 . S
O426 Co414 2.137 . S
O426 C417 1.247 . S
O427 Co414 2.244 . S
O427 C417 1.272 . S
O427 Co419 2.135 . S
Co428 O429 2.216 . S
Co428 O430 2.091 . S
Co428 O432 2.004 . S
Co428 O438 2.021 . S
Co428 O440 2.137 . S
Co428 O441 2.244 . S
O429 Co428 2.216 . S
O429 C436 1.247 . S
O430 Co428 2.091 . S
O430 C436 1.261 . S
C431 O440 1.247 . S
C431 O441 1.272 . S
O432 Co428 2.004 . S
O432 C437 1.259 . S
Co433 O434 2.061 . S
Co433 O439 2.052 . S
Co433 O441 2.135 . S
O434 Co433 2.061 . S
O434 C437 1.235 . S
C435 O438 1.238 . S
C435 O439 1.241 . S
C436 O429 1.247 . S
C436 O430 1.261 . S
C437 O432 1.259 . S
C437 O434 1.235 . S
O438 Co428 2.021 . S
O438 C435 1.238 . S
O439 Co433 2.052 . S
O439 C435 1.241 . S
O440 Co428 2.137 . S
O440 C431 1.247 . S
O441 Co428 2.244 . S
O441 C431 1.272 . S
O441 Co433 2.135 . S
Co442 O443 2.216 . S
Co442 O444 2.091 . S
Co442 O446 2.004 . S
Co442 O452 2.021 . S
Co442 O454 2.137 . S
Co442 O455 2.244 . S
O443 Co442 2.216 . S
O443 C450 1.247 . S
O444 Co442 2.091 . S
O444 C450 1.261 . S
C445 O454 1.247 . S
C445 O455 1.272 . S
O446 Co442 2.004 . S
O446 C451 1.259 . S
Co447 O448 2.061 . S
Co447 O453 2.052 . S
Co447 O455 2.135 . S
O448 Co447 2.061 . S
O448 C451 1.235 . S
C449 O452 1.238 . S
C449 O453 1.241 . S
C450 O443 1.247 . S
C450 O444 1.261 . S
C451 O446 1.259 . S
C451 O448 1.235 . S
O452 Co442 2.021 . S
O452 C449 1.238 . S
O453 Co447 2.052 . S
O453 C449 1.241 . S
O454 Co442 2.137 . S
O454 C445 1.247 . S
O455 Co442 2.244 . S
O455 C445 1.272 . S
O455 Co447 2.135 . S
C456 C457 1.387 . S
C456 H460 0.950 . S
C456 C465 1.390 . S
C457 C456 1.387 . S
C457 C459 1.387 . S
H458 C465 0.950 . S
C459 C457 1.387 . S
C459 C461 1.390 . S
C459 H463 0.950 . S
H460 C456 0.950 . S
C461 C459 1.390 . S
C461 C462 1.387 . S
C461 H464 0.950 . S
C462 C461 1.387 . S
C462 C465 1.387 . S
H463 C459 0.950 . S
H464 C461 0.950 . S
C465 C456 1.390 . S
C465 H458 0.950 . S
C465 C462 1.387 . S
C466 C467 1.387 . S
C466 H470 0.950 . S
C466 C475 1.390 . S
C467 C466 1.387 . S
C467 C469 1.387 . S
H468 C475 0.950 . S
C469 C467 1.387 . S
C469 C471 1.390 . S
C469 H473 0.950 . S
H470 C466 0.950 . S
C471 C469 1.390 . S
C471 C472 1.387 . S
C471 H474 0.950 . S
C472 C471 1.387 . S
C472 C475 1.387 . S
H473 C469 0.950 . S
H474 C471 0.950 . S
C475 C466 1.390 . S
C475 H468 0.950 . S
C475 C472 1.387 . S
C476 C477 1.387 . S
C476 H480 0.950 . S
C476 C485 1.390 . S
C477 C476 1.387 . S
C477 C479 1.387 . S
H478 C485 0.950 . S
C479 C477 1.387 . S
C479 C481 1.390 . S
C479 H483 0.950 . S
H480 C476 0.950 . S
C481 C479 1.390 . S
C481 C482 1.387 . S
C481 H484 0.950 . S
C482 C481 1.387 . S
C482 C485 1.387 . S
H483 C479 0.950 . S
H484 C481 0.950 . S
C485 C476 1.390 . S
C485 H478 0.950 . S
C485 C482 1.387 . S
C486 C487 1.387 . S
C486 H490 0.950 . S
C486 C495 1.390 . S
C487 C486 1.387 . S
C487 C489 1.387 . S
H488 C495 0.950 . S
C489 C487 1.387 . S
C489 C491 1.390 . S
C489 H493 0.950 . S
H490 C486 0.950 . S
C491 C489 1.390 . S
C491 C492 1.387 . S
C491 H494 0.950 . S
C492 C491 1.387 . S
C492 C495 1.387 . S
H493 C489 0.950 . S
H494 C491 0.950 . S
C495 C486 1.390 . S
C495 H488 0.950 . S
C495 C492 1.387 . S
C496 C497 1.387 . S
C496 H500 0.950 . S
C496 C505 1.390 . S
C497 C496 1.387 . S
C497 C499 1.387 . S
H498 C505 0.950 . S
C499 C497 1.387 . S
C499 C501 1.390 . S
C499 H503 0.950 . S
H500 C496 0.950 . S
C501 C499 1.390 . S
C501 C502 1.387 . S
C501 H504 0.950 . S
C502 C501 1.387 . S
C502 C505 1.387 . S
H503 C499 0.950 . S
H504 C501 0.950 . S
C505 C496 1.390 . S
C505 H498 0.950 . S
C505 C502 1.387 . S
C506 C507 1.387 . S
C506 H510 0.950 . S
C506 C515 1.390 . S
C507 C506 1.387 . S
C507 C509 1.387 . S
H508 C515 0.950 . S
C509 C507 1.387 . S
C509 C511 1.390 . S
C509 H513 0.950 . S
H510 C506 0.950 . S
C511 C509 1.390 . S
C511 C512 1.387 . S
C511 H514 0.950 . S
C512 C511 1.387 . S
C512 C515 1.387 . S
H513 C509 0.950 . S
H514 C511 0.950 . S
C515 C506 1.390 . S
C515 H508 0.950 . S
C515 C512 1.387 . S
C516 C517 1.387 . S
C516 H520 0.950 . S
C516 C525 1.390 . S
C517 C516 1.387 . S
C517 C519 1.387 . S
H518 C525 0.950 . S
C519 C517 1.387 . S
C519 C521 1.390 . S
C519 H523 0.950 . S
H520 C516 0.950 . S
C521 C519 1.390 . S
C521 C522 1.387 . S
C521 H524 0.950 . S
C522 C521 1.387 . S
C522 C525 1.387 . S
H523 C519 0.950 . S
H524 C521 0.950 . S
C525 C516 1.390 . S
C525 H518 0.950 . S
C525 C522 1.387 . S
C526 C527 1.387 . S
C526 H530 0.950 . S
C526 C535 1.390 . S
C527 C526 1.387 . S
C527 C529 1.387 . S
H528 C535 0.950 . S
C529 C527 1.387 . S
C529 C531 1.390 . S
C529 H533 0.950 . S
H530 C526 0.950 . S
C531 C529 1.390 . S
C531 C532 1.387 . S
C531 H534 0.950 . S
C532 C531 1.387 . S
C532 C535 1.387 . S
H533 C529 0.950 . S
H534 C531 0.950 . S
C535 C526 1.390 . S
C535 H528 0.950 . S
C535 C532 1.387 . S
C536 C537 1.387 . S
C536 H540 0.950 . S
C536 C545 1.390 . S
C537 C536 1.387 . S
C537 C539 1.387 . S
H538 C545 0.950 . S
C539 C537 1.387 . S
C539 C541 1.390 . S
C539 H543 0.950 . S
H540 C536 0.950 . S
C541 C539 1.390 . S
C541 C542 1.387 . S
C541 H544 0.950 . S
C542 C541 1.387 . S
C542 C545 1.387 . S
H543 C539 0.950 . S
H544 C541 0.950 . S
C545 C536 1.390 . S
C545 H538 0.950 . S
C545 C542 1.387 . S
C546 C547 1.387 . S
C546 H550 0.950 1_554 S
C546 C555 1.390 . S
C547 C546 1.387 . S
C547 C549 1.387 . S
H548 C555 0.950 1_556 S
C549 C547 1.387 . S
C549 C551 1.390 . S
C549 H553 0.950 . S
H550 C546 0.950 1_556 S
C551 C549 1.390 . S
C551 C552 1.387 . S
C551 H554 0.950 . S
C552 C551 1.387 . S
C552 C555 1.387 . S
H553 C549 0.950 . S
H554 C551 0.950 . S
C555 C546 1.390 . S
C555 H548 0.950 1_554 S
C555 C552 1.387 . S
C556 C557 1.387 . S
C556 H560 0.950 . S
C556 C565 1.390 . S
C557 C556 1.387 . S
C557 C559 1.387 . S
H558 C565 0.950 . S
C559 C557 1.387 . S
C559 C561 1.390 . S
C559 H563 0.950 . S
H560 C556 0.950 . S
C561 C559 1.390 . S
C561 C562 1.387 . S
C561 H564 0.950 . S
C562 C561 1.387 . S
C562 C565 1.387 . S
H563 C559 0.950 . S
H564 C561 0.950 . S
C565 C556 1.390 . S
C565 H558 0.950 . S
C565 C562 1.387 . S
C566 C567 1.387 . S
C566 H570 0.950 . S
C566 C575 1.390 . S
C567 C566 1.387 . S
C567 C569 1.387 . S
H568 C575 0.950 . S
C569 C567 1.387 . S
C569 C571 1.390 . S
C569 H573 0.950 . S
H570 C566 0.950 . S
C571 C569 1.390 . S
C571 C572 1.387 . S
C571 H574 0.950 . S
C572 C571 1.387 . S
C572 C575 1.387 . S
H573 C569 0.950 . S
H574 C571 0.950 . S
C575 C566 1.390 . S
C575 H568 0.950 . S
C575 C572 1.387 . S
C576 C577 1.387 . S
C576 H580 0.950 . S
C576 C585 1.390 . S
C577 C576 1.387 . S
C577 C579 1.387 . S
H578 C585 0.950 . S
C579 C577 1.387 . S
C579 C581 1.390 . S
C579 H583 0.950 . S
H580 C576 0.950 . S
C581 C579 1.390 . S
C581 C582 1.387 . S
C581 H584 0.950 . S
C582 C581 1.387 . S
C582 C585 1.387 . S
H583 C579 0.950 . S
H584 C581 0.950 . S
C585 C576 1.390 . S
C585 H578 0.950 . S
C585 C582 1.387 . S
C586 C587 1.387 . S
C586 H590 0.950 . S
C586 C595 1.390 . S
C587 C586 1.387 . S
C587 C589 1.387 . S
H588 C595 0.950 . S
C589 C587 1.387 . S
C589 C591 1.390 . S
C589 H593 0.950 . S
H590 C586 0.950 . S
C591 C589 1.390 . S
C591 C592 1.387 . S
C591 H594 0.950 . S
C592 C591 1.387 . S
C592 C595 1.387 . S
H593 C589 0.950 . S
H594 C591 0.950 . S
C595 C586 1.390 . S
C595 H588 0.950 . S
C595 C592 1.387 . S
C596 C597 1.387 . S
C596 H600 0.950 . S
C596 C605 1.390 . S
C597 C596 1.387 . S
C597 C599 1.387 . S
H598 C605 0.950 . S
C599 C597 1.387 . S
C599 C601 1.390 . S
C599 H603 0.950 . S
H600 C596 0.950 . S
C601 C599 1.390 . S
C601 C602 1.387 . S
C601 H604 0.950 . S
C602 C601 1.387 . S
C602 C605 1.387 . S
H603 C599 0.950 . S
H604 C601 0.950 . S
C605 C596 1.390 . S
C605 H598 0.950 . S
C605 C602 1.387 . S
C606 C607 1.387 . S
C606 H610 0.950 . S
C606 C615 1.390 . S
C607 C606 1.387 . S
C607 C609 1.387 . S
H608 C615 0.950 . S
C609 C607 1.387 . S
C609 C611 1.390 . S
C609 H613 0.950 . S
H610 C606 0.950 . S
C611 C609 1.390 . S
C611 C612 1.387 . S
C611 H614 0.950 . S
C612 C611 1.387 . S
C612 C615 1.387 . S
H613 C609 0.950 . S
H614 C611 0.950 . S
C615 C606 1.390 . S
C615 H608 0.950 . S
C615 C612 1.387 . S
C616 C617 1.387 . S
C616 H620 0.950 . S
C616 C625 1.390 . S
C617 C616 1.387 . S
C617 C619 1.387 . S
H618 C625 0.950 . S
C619 C617 1.387 . S
C619 C621 1.390 . S
C619 H623 0.950 . S
H620 C616 0.950 . S
C621 C619 1.390 . S
C621 C622 1.387 . S
C621 H624 0.950 . S
C622 C621 1.387 . S
C622 C625 1.387 . S
H623 C619 0.950 . S
H624 C621 0.950 . S
C625 C616 1.390 . S
C625 H618 0.950 . S
C625 C622 1.387 . S
C626 C627 1.387 . S
C626 H630 0.950 . S
C626 C635 1.390 . S
C627 C626 1.387 . S
C627 C629 1.387 . S
H628 C635 0.950 . S
C629 C627 1.387 . S
C629 C631 1.390 . S
C629 H633 0.950 . S
H630 C626 0.950 . S
C631 C629 1.390 . S
C631 C632 1.387 . S
C631 H634 0.950 . S
C632 C631 1.387 . S
C632 C635 1.387 . S
H633 C629 0.950 . S
H634 C631 0.950 . S
C635 C626 1.390 . S
C635 H628 0.950 . S
C635 C632 1.387 . S
C636 C637 1.387 . S
C636 H640 0.950 . S
C636 C645 1.390 . S
C637 C636 1.387 . S
C637 C639 1.387 . S
H638 C645 0.950 . S
C639 C637 1.387 . S
C639 C641 1.390 . S
C639 H643 0.950 . S
H640 C636 0.950 . S
C641 C639 1.390 . S
C641 C642 1.387 . S
C641 H644 0.950 . S
C642 C641 1.387 . S
C642 C645 1.387 . S
H643 C639 0.950 . S
H644 C641 0.950 . S
C645 C636 1.390 . S
C645 H638 0.950 . S
C645 C642 1.387 . S
C646 C647 1.387 . S
C646 H650 0.950 . S
C646 C655 1.390 . S
C647 C646 1.387 . S
C647 C649 1.387 . S
H648 C655 0.950 . S
C649 C647 1.387 . S
C649 C651 1.390 . S
C649 H653 0.950 . S
H650 C646 0.950 . S
C651 C649 1.390 . S
C651 C652 1.387 . S
C651 H654 0.950 . S
C652 C651 1.387 . S
C652 C655 1.387 . S
H653 C649 0.950 . S
H654 C651 0.950 . S
C655 C646 1.390 . S
C655 H648 0.950 . S
C655 C652 1.387 . S
C656 C657 1.387 . S
C656 H660 0.950 . S
C656 C665 1.390 . S
C657 C656 1.387 . S
C657 C659 1.387 . S
H658 C665 0.950 . S
C659 C657 1.387 . S
C659 C661 1.390 . S
C659 H663 0.950 . S
H660 C656 0.950 . S
C661 C659 1.390 . S
C661 C662 1.387 . S
C661 H664 0.950 . S
C662 C661 1.387 . S
C662 C665 1.387 . S
H663 C659 0.950 . S
H664 C661 0.950 . S
C665 C656 1.390 . S
C665 H658 0.950 . S
C665 C662 1.387 . S
C666 C667 1.387 . S
C666 H670 0.950 . S
C666 C675 1.390 . S
C667 C666 1.387 . S
C667 C669 1.387 . S
H668 C675 0.950 . S
C669 C667 1.387 . S
C669 C671 1.390 . S
C669 H673 0.950 . S
H670 C666 0.950 . S
C671 C669 1.390 . S
C671 C672 1.387 . S
C671 H674 0.950 . S
C672 C671 1.387 . S
C672 C675 1.387 . S
H673 C669 0.950 . S
H674 C671 0.950 . S
C675 C666 1.390 . S
C675 H668 0.950 . S
C675 C672 1.387 . S
C676 C677 1.387 1_556 S
C676 H680 0.950 . S
C676 C685 1.390 . S
C677 C676 1.387 1_554 S
C677 C679 1.387 . S
H678 C685 0.950 . S
C679 C677 1.387 . S
C679 C681 1.390 1_554 S
C679 H683 0.950 . S
H680 C676 0.950 . S
C681 C679 1.390 1_556 S
C681 C682 1.387 . S
C681 H684 0.950 . S
C682 C681 1.387 . S
C682 C685 1.387 . S
H683 C679 0.950 . S
H684 C681 0.950 . S
C685 C676 1.390 . S
C685 H678 0.950 . S
C685 C682 1.387 . S
C686 C687 1.387 . S
C686 H690 0.950 . S
C686 C695 1.390 . S
C687 C686 1.387 . S
C687 C689 1.387 . S
H688 C695 0.950 . S
C689 C687 1.387 . S
C689 C691 1.390 . S
C689 H693 0.950 . S
H690 C686 0.950 . S
C691 C689 1.390 . S
C691 C692 1.387 . S
C691 H694 0.950 . S
C692 C691 1.387 . S
C692 C695 1.387 . S
H693 C689 0.950 . S
H694 C691 0.950 . S
C695 C686 1.390 . S
C695 H688 0.950 . S
C695 C692 1.387 . S
C462 C445 1.692 . S
C457 C29 1.589 . S
C467 C115 1.580 . S
C472 C375 1.577 . S
C477 C153 1.597 . S
C482 C394 1.704 . S
C487 C239 1.573 . S
C492 C403 1.577 . S
C502 C417 1.621 . S
C497 C301 1.610 . S
C507 C339 1.818 . S
C512 C436 1.943 . S
C517 C91 1.552 . S
C522 C389 1.663 . S
C527 C177 1.585 . S
C532 C408 1.604 . S
C537 C215 1.595 . S
C542 C422 1.687 . S
C552 C431 1.903 . S
C547 C277 1.772 . S
C562 C450 1.641 . S
C557 C363 1.612 . S
C572 C380 1.606 . S
C567 C53 1.591 . S
C577 C35 1.555 . S
C582 C395 1.559 . S
C587 C109 1.391 . S
C592 C407 1.489 . S
C602 C421 1.463 . S
C597 C159 1.487 . S
C607 C233 1.587 . S
C612 C437 1.690 1_556 S
C622 C449 1.544 . S
C617 C295 1.399 . S
C632 C379 1.436 . S
C627 C345 1.439 . S
C642 C451 1.486 . S
C637 C97 1.485 . S
C647 C171 1.414 . S
C652 C381 1.526 . S
C662 C393 1.571 . S
C657 C221 1.561 . S
C667 C283 1.452 . S
C672 C409 1.443 . S
C677 C357 1.410 . S
C682 C423 1.550 . S
C687 C47 1.590 . S
C692 C435 1.694 . S
