# Generated by pormake.
# Topology anh, (6,3)-cn, num edge types: 1
# Building blocks:
#     Node 0, Type 0, BuildingBlock: BETDAH_clean_sbu_0, # of connection points: 6
#     Node 1, Type 0, BuildingBlock: BETDAH_clean_sbu_0, # of connection points: 6
#     Node 2, Type 0, BuildingBlock: BETDAH_clean_sbu_0, # of connection points: 6
#     Node 3, Type 1, BuildingBlock: ESEHIV_clean_linker_0, # of connection points: 3
#     Node 4, Type 1, BuildingBlock: ESEHIV_clean_linker_0, # of connection points: 3
#     Node 5, Type 1, BuildingBlock: ESEHIV_clean_linker_0, # of connection points: 3
#     Node 6, Type 1, BuildingBlock: ESEHIV_clean_linker_0, # of connection points: 3
#     Node 7, Type 1, BuildingBlock: ESEHIV_clean_linker_0, # of connection points: 3
#     Node 8, Type 1, BuildingBlock: ESEHIV_clean_linker_0, # of connection points: 3
#     Edge 9, Type (0, 1), BuildingBlock: XUDNAN_clean_linker_2, # of connection points: 2
#     Edge 10, Type (0, 1), BuildingBlock: XUDNAN_clean_linker_2, # of connection points: 2
#     Edge 11, Type (0, 1), BuildingBlock: XUDNAN_clean_linker_2, # of connection points: 2
#     Edge 12, Type (0, 1), BuildingBlock: XUDNAN_clean_linker_2, # of connection points: 2
#     Edge 13, Type (0, 1), BuildingBlock: XUDNAN_clean_linker_2, # of connection points: 2
#     Edge 14, Type (0, 1), BuildingBlock: XUDNAN_clean_linker_2, # of connection points: 2
#     Edge 15, Type (0, 1), BuildingBlock: XUDNAN_clean_linker_2, # of connection points: 2
#     Edge 16, Type (0, 1), BuildingBlock: XUDNAN_clean_linker_2, # of connection points: 2
#     Edge 17, Type (0, 1), BuildingBlock: XUDNAN_clean_linker_2, # of connection points: 2
#     Edge 18, Type (0, 1), BuildingBlock: XUDNAN_clean_linker_2, # of connection points: 2
#     Edge 19, Type (0, 1), BuildingBlock: XUDNAN_clean_linker_2, # of connection points: 2
#     Edge 20, Type (0, 1), BuildingBlock: XUDNAN_clean_linker_2, # of connection points: 2
#     Edge 21, Type (0, 1), BuildingBlock: XUDNAN_clean_linker_2, # of connection points: 2
#     Edge 22, Type (0, 1), BuildingBlock: XUDNAN_clean_linker_2, # of connection points: 2
#     Edge 23, Type (0, 1), BuildingBlock: XUDNAN_clean_linker_2, # of connection points: 2
#     Edge 24, Type (0, 1), BuildingBlock: XUDNAN_clean_linker_2, # of connection points: 2
#     Edge 25, Type (0, 1), BuildingBlock: XUDNAN_clean_linker_2, # of connection points: 2
#     Edge 26, Type (0, 1), BuildingBlock: XUDNAN_clean_linker_2, # of connection points: 2
# Relax obj value: 0.215
# Max RMSD: 0.228
# Mean RMSD: 0.165
data_MOF--net-anh--node1-BETDAH_clean_sbu_0--node2-ESEHIV_clean_linker_0--edge1-XUDNAN_clean_linker_2
_symmetry_space_group_name_H-M    P1
_symmetry_Int_Tables_number       1
_symmetry_cell_setting            triclinic
loop_
_symmetry_equiv_pos_as_xyz
'x, y, z'
_cell_length_a     28.407703
_cell_length_b     35.141356
_cell_length_c     51.663757
_cell_angle_alpha  92.559997
_cell_angle_beta   88.568345
_cell_angle_gamma 130.67412
loop_
_atom_site_label
_atom_site_type_symbol
_atom_site_fract_x
_atom_site_fract_y
_atom_site_fract_z
_atom_type_partial_charge
Ho0 Ho 0.1541 0.50686 0.14781 0.0
Ho1 Ho 1.08529 0.54133 0.15136 0.0
C2 C 0.2306 0.62614 0.15498 0.0
C3 C 0.23959 0.50367 0.13973 0.0
C4 C 0.30196 0.54302 0.15035 0.0
C5 C 0.3369 0.59331 0.14355 0.0
C6 C 0.39485 0.63095 0.15477 0.0
C7 C 0.42026 0.61828 0.17172 0.0
C8 C 0.38043 0.56962 0.18178 0.0
C9 C 0.32261 0.53209 0.17063 0.0
C10 C 0.10701 0.49635 0.19533 0.0
C11 C 1.01153 0.42192 0.14493 0.0
C12 C 1.03403 0.57209 0.17405 0.0
C13 C 0.98404 0.54568 0.19246 0.0
C14 C 0.95972 0.49745 0.19894 0.0
C15 C 0.8968 0.46105 0.2042 0.0
C16 C 0.8597 0.47411 0.20441 0.0
C17 C 0.88704 0.52467 0.2025 0.0
C18 C 0.9492 0.5604 0.19617 0.0
C19 C 0.10319 0.53779 0.09996 0.0
O20 O 0.22942 0.58881 0.15917 0.0
O21 O 0.17991 0.61707 0.14805 0.0
O22 O 0.19709 0.47642 0.1572 0.0
O23 O 0.22202 0.51727 0.12176 0.0
O24 O 0.10715 0.4633 0.18336 0.0
O25 O 0.13289 0.53427 0.18149 0.0
O26 O 1.00995 0.45622 0.15554 0.0
O27 O 1.06302 0.43577 0.13435 0.0
O28 O 1.01715 0.54986 0.151 0.0
O29 O 1.08638 0.58554 0.18206 0.0
O30 O 1.07396 0.55135 0.11018 0.0
O31 O 0.12192 0.52642 0.11752 0.0
H32 H 0.3205 0.60361 0.12903 0.0
H33 H 0.42319 0.66841 0.14741 0.0
H34 H 0.39637 0.55829 0.19587 0.0
H35 H 0.29476 0.49419 0.17739 0.0
H36 H 0.9871 0.48618 0.19638 0.0
H37 H 0.87623 0.42221 0.20537 0.0
H38 H 0.85868 0.53519 0.20222 0.0
H39 H 0.96758 0.59741 0.19097 0.0
Ho40 Ho 0.63268 1.01144 0.46838 0.0
Ho41 Ho 0.55433 0.03834 0.46956 0.0
C42 C 0.48187 0.92299 0.46358 0.0
C43 C 0.67987 0.97058 0.47616 0.0
C44 C 0.65587 0.91881 0.47729 0.0
C45 C 0.6145 0.88673 0.49677 0.0
C46 C 0.60202 0.84178 0.50044 0.0
C47 C 0.63061 0.82857 0.48465 0.0
C48 C 0.66629 0.85778 0.46351 0.0
C49 C 0.67888 0.9027 0.45986 0.0
C50 C 0.61603 0.03234 0.4215 0.0
C51 C 0.70469 0.12807 0.47229 0.0
C52 C 0.51114 0.08163 0.46025 0.0
C53 C 0.53645 0.13323 0.46606 0.0
C54 C 0.54872 0.16373 0.44571 0.0
C55 C 0.5735 0.21306 0.45089 0.0
C56 C 0.58582 0.23228 0.47652 0.0
C57 C 0.57637 0.20251 0.49672 0.0
C58 C 0.55204 0.15345 0.49156 0.0
C59 C 0.57797 0.02354 0.51694 0.0
O60 O 0.53444 0.9347 0.47099 0.0
O61 O 0.48011 0.95836 0.4585 0.0
O62 O 0.67873 0.98478 0.45343 0.0
O63 O 0.66427 0.9866 0.495 0.0
O64 O 0.66791 0.04581 0.42965 0.0
O65 O 0.57486 1.00651 0.43845 0.0
O66 O 0.64979 0.11485 0.469 0.0
O67 O 0.71118 0.09443 0.47476 0.0
O68 O 0.49299 0.05276 0.47998 0.0
O69 O 0.54282 0.07773 0.44327 0.0
O70 O 0.52458 1.00892 0.51008 0.0
O71 O 0.61567 0.04644 0.4987 0.0
H72 H 0.59512 0.89777 0.51025 0.0
H73 H 0.57511 0.81996 0.51709 0.0
H74 H 0.68927 0.84832 0.45137 0.0
H75 H 0.71014 0.9265 0.44449 0.0
H76 H 0.53844 0.14916 0.42585 0.0
H77 H 0.58043 0.23535 0.43501 0.0
H78 H 0.58651 0.21689 0.51663 0.0
H79 H 0.54491 0.13135 0.50758 0.0
Ho80 Ho 0.68426 0.60279 0.83907 0.0
Ho81 Ho 0.59629 0.49171 0.83472 0.0
C82 C 0.53032 0.53878 0.84059 0.0
C83 C 0.74099 0.69567 0.83051 0.0
C84 C 0.71735 0.7213 0.82521 0.0
C85 C 0.65706 0.69347 0.81542 0.0
C86 C 0.63463 0.71715 0.80927 0.0
C87 C 0.67299 0.76963 0.81161 0.0
C88 C 0.73265 0.79757 0.82249 0.0
C89 C 0.75458 0.77337 0.8294 0.0
C90 C 0.65034 0.55786 0.88429 0.0
C91 C 0.74765 0.55249 0.83912 0.0
C92 C 0.53876 0.39778 0.83943 0.0
C93 C 0.55414 0.36553 0.83395 0.0
C94 C 0.60814 0.3775 0.84403 0.0
C95 C 0.6214 0.34605 0.83857 0.0
C96 C 0.5811 0.30227 0.82287 0.0
C97 C 0.52752 0.29081 0.81264 0.0
C98 C 0.51426 0.32215 0.81813 0.0
C99 C 0.6252 0.53591 0.78859 0.0
O100 O 0.58758 0.58239 0.83681 0.0
O101 O 0.52278 0.49776 0.84344 0.0
O102 O 0.7303 0.67851 0.85375 0.0
O103 O 0.72935 0.66313 0.81246 0.0
O104 O 0.70627 0.5995 0.88026 0.0
O105 O 0.6162 0.54467 0.86506 0.0
O106 O 0.68948 0.50915 0.83802 0.0
O107 O 0.75904 0.59568 0.83862 0.0
O108 O 0.53244 0.41523 0.81921 0.0
O109 O 0.56926 0.43134 0.85841 0.0
O110 O 0.57018 0.4971 0.79571 0.0
O111 O 0.66291 0.54968 0.80685 0.0
H112 H 0.62784 0.65359 0.81145 0.0
H113 H 0.58796 0.6944 0.8015 0.0
H114 H 0.76329 0.83811 0.82448 0.0
H115 H 0.80117 0.79541 0.83713 0.0
H116 H 0.6402 0.41112 0.85608 0.0
H117 H 0.66349 0.3563 0.8464 0.0
H118 H 0.49512 0.25709 0.80071 0.0
H119 H 0.47258 0.31236 0.81007 0.0
H120 H 0.51257 0.95516 0.22493 0.0
H121 H 0.68118 0.10844 0.23245 0.0
H122 H 0.62934 0.02846 0.1586 0.0
C123 C 0.55249 0.98913 0.21606 0.0
C124 C 0.56525 0.98628 0.19006 0.0
C125 C 0.59618 0.03138 0.23193 0.0
C126 C 0.64697 0.07546 0.22035 0.0
C127 C 0.65735 0.07584 0.19347 0.0
C128 C 0.61753 0.0303 0.17845 0.0
H129 H 0.6266 0.59801 0.60207 0.0
H130 H 0.6355 0.48085 0.58714 0.0
H131 H 0.62796 0.55144 0.52411 0.0
C132 C 0.62774 0.57359 0.58911 0.0
C133 C 0.62866 0.57923 0.56228 0.0
C134 C 0.62856 0.53716 0.59882 0.0
C135 C 0.63064 0.50702 0.58074 0.0
C136 C 0.62845 0.5109 0.55397 0.0
C137 C 0.62773 0.54723 0.5448 0.0
H138 H 1.06714 0.54776 0.91048 0.0
H139 H 0.2205 0.55248 0.90672 0.0
H140 H 0.13489 0.54156 0.83548 0.0
C141 C 0.09944 0.54898 0.89823 0.0
C142 C 0.09509 0.54741 0.87095 0.0
C143 C 0.1445 0.55147 0.9108 0.0
C144 C 0.18618 0.55068 0.89647 0.0
C145 C 0.18365 0.54648 0.86931 0.0
C146 C 0.13729 0.54457 0.85642 0.0
H147 H 1.00521 0.43318 0.39482 0.0
H148 H 0.16808 0.58782 0.38658 0.0
H149 H 0.09745 0.5297 0.46235 0.0
C150 C 1.04469 0.4692 0.40309 0.0
C151 C 1.04983 0.47505 0.43025 0.0
C152 C 1.08794 0.50863 0.38672 0.0
C153 C 0.13425 0.55622 0.39841 0.0
C154 C 0.1364 0.56461 0.42549 0.0
C155 C 0.09521 0.52361 0.44151 0.0
H156 H 0.64133 0.10357 0.71398 0.0
H157 H 0.62496 0.97459 0.70217 0.0
H158 H 0.60028 0.01288 0.77879 0.0
C159 C 0.6325 0.07149 0.72198 0.0
C160 C 0.62083 0.06255 0.74865 0.0
C161 C 0.63138 0.03863 0.70517 0.0
C162 C 0.62263 0.99825 0.71528 0.0
C163 C 0.61233 0.98894 0.74192 0.0
C164 C 0.61092 0.02107 0.75848 0.0
H165 H 0.45966 0.43773 0.05952 0.0
H166 H 0.61343 0.44211 0.06597 0.0
H167 H 0.49272 0.40009 0.13043 0.0
C168 C 0.48553 0.43174 0.07103 0.0
C169 C 0.47704 0.42698 0.09795 0.0
C170 C 0.53285 0.43462 0.05925 0.0
C171 C 0.57254 0.43396 0.07442 0.0
C172 C 0.55902 0.4235 0.10066 0.0
C173 C 0.50501 0.41196 0.11072 0.0
H174 H 0.49135 0.65582 0.12793 0.0
H175 H 0.50597 0.63794 0.20846 0.0
H176 H 0.52514 0.58065 0.19621 0.0
H177 H 0.39355 0.53816 0.11378 0.0
H178 H 0.41784 0.53697 0.08143 0.0
H179 H 0.43374 0.59267 0.09429 0.0
H180 H 0.55143 0.64604 0.0863 0.0
H181 H 0.53624 0.59121 0.07205 0.0
H182 H 0.59113 0.62615 0.09839 0.0
H183 H 0.48197 0.49629 0.17732 0.0
H184 H 0.44957 0.42319 0.15112 0.0
H185 H 0.47075 0.49828 0.08139 0.0
C186 C 0.50293 0.6427 0.14304 0.0
C187 C 0.48708 0.64355 0.16912 0.0
C188 C 0.51149 0.63273 0.18813 0.0
C189 C 0.52049 0.59876 0.18134 0.0
C190 C 0.51378 0.58371 0.15525 0.0
C191 C 0.50956 0.60762 0.13604 0.0
C192 C 0.4937 0.57995 0.11001 0.0
C193 C 0.43106 0.5609 0.09929 0.0
C194 C 0.54631 0.61277 0.09054 0.0
C195 C 0.48812 0.53632 0.11779 0.0
C196 C 0.49737 0.53812 0.14405 0.0
C197 C 0.48067 0.49662 0.15642 0.0
C198 C 0.46193 0.45493 0.14113 0.0
C199 C 0.46419 0.45633 0.11356 0.0
C200 C 0.47233 0.49614 0.10209 0.0
H201 H 0.80934 0.17924 0.44288 0.0
H202 H 0.71899 0.1987 0.50406 0.0
H203 H 0.80443 0.29101 0.50385 0.0
H204 H 0.97006 0.28205 0.46092 0.0
H205 H 0.99473 0.29976 0.42792 0.0
H206 H 0.92981 0.23539 0.43481 0.0
H207 H 0.86009 0.23583 0.40359 0.0
H208 H 0.92492 0.29993 0.39636 0.0
H209 H 0.85364 0.28342 0.40814 0.0
H210 H 0.89781 0.38273 0.49438 0.0
H211 H 0.98462 0.46327 0.4746 0.0
H212 H 1.01275 0.3822 0.42012 0.0
C213 C 0.80876 0.203 0.45673 0.0
C214 C 0.75894 0.18219 0.47401 0.0
C215 C 0.75773 0.21427 0.49103 0.0
C216 C 0.80595 0.26663 0.49102 0.0
C217 C 0.85449 0.28632 0.47353 0.0
C218 C 0.85575 0.25535 0.45654 0.0
C219 C 0.90936 0.28566 0.43791 0.0
C220 C 0.95363 0.27509 0.44057 0.0
C221 C 0.88557 0.2756 0.40986 0.0
C222 C 0.93911 0.33843 0.44745 0.0
C223 C 0.90688 0.33838 0.4679 0.0
C224 C 0.92371 0.38314 0.4785 0.0
C225 C 0.97342 0.42882 0.4673 0.0
C226 C 1.00545 0.42923 0.4457 0.0
C227 C 0.98908 0.38336 0.43649 0.0
H228 H 0.68801 0.85258 0.82999 0.0
H229 H 0.61544 0.7444 0.76521 0.0
H230 H 0.58017 0.78299 0.74419 0.0
H231 H 0.5659 0.86305 0.82789 0.0
H232 H 0.61929 0.92962 0.83541 0.0
H233 H 0.63324 0.89051 0.84775 0.0
H234 H 0.74218 0.94592 0.82685 0.0
H235 H 0.72903 0.98567 0.81497 0.0
H236 H 0.74959 0.95759 0.79272 0.0
H237 H 0.55293 0.831 0.72967 0.0
H238 H 0.55107 0.89669 0.71794 0.0
H239 H 0.6518 0.98195 0.78878 0.0
C240 C 0.66424 0.83692 0.8115 0.0
C241 C 0.65275 0.79443 0.79963 0.0
C242 C 0.62251 0.77554 0.7752 0.0
C243 C 0.60236 0.79726 0.76303 0.0
C244 C 0.6131 0.8382 0.77535 0.0
C245 C 0.64407 0.85858 0.7988 0.0
C246 C 0.65353 0.90542 0.80647 0.0
C247 C 0.61575 0.89663 0.83083 0.0
C248 C 0.72271 0.95136 0.81046 0.0
C249 C 0.62668 0.9096 0.78276 0.0
C250 C 0.60135 0.86905 0.76575 0.0
C251 C 0.57326 0.8634 0.74261 0.0
C252 C 0.57314 0.90133 0.73599 0.0
C253 C 0.60325 0.94552 0.75191 0.0
C254 C 0.62855 0.94883 0.7761 0.0
H255 H 0.80909 0.41761 0.16031 0.0
H256 H 0.76628 0.45317 0.23375 0.0
H257 H 0.67814 0.43835 0.21351 0.0
H258 H 0.79288 0.48047 0.12412 0.0
H259 H 0.75465 0.43922 0.09589 0.0
H260 H 0.80165 0.43493 0.11601 0.0
H261 H 0.71023 0.3411 0.12337 0.0
H262 H 0.66336 0.34388 0.10204 0.0
H263 H 0.63661 0.32129 0.13427 0.0
H264 H 0.63636 0.46033 0.18381 0.0
H265 H 0.58754 0.46802 0.14866 0.0
H266 H 0.6372 0.40176 0.09397 0.0
C267 C 0.77756 0.41767 0.17254 0.0
C268 C 0.79365 0.43645 0.19852 0.0
C269 C 0.75353 0.43816 0.21398 0.0
C270 C 0.70426 0.43075 0.20248 0.0
C271 C 0.69483 0.41942 0.17598 0.0
C272 C 0.72725 0.40943 0.16132 0.0
C273 C 0.71104 0.40286 0.13267 0.0
C274 C 0.7685 0.44168 0.11624 0.0
C275 C 0.67832 0.34905 0.1225 0.0
C276 C 0.66701 0.4132 0.13374 0.0
C277 C 0.66095 0.42474 0.15885 0.0
C278 C 0.6351 0.44658 0.16445 0.0
C279 C 0.60778 0.45091 0.14429 0.0
C280 C 0.603 0.43053 0.11917 0.0
C281 C 0.63648 0.41439 0.11336 0.0
H282 H 0.44769 0.83242 0.48003 0.0
H283 H 0.38508 0.89348 0.4345 0.0
H284 H 0.28743 0.80925 0.42536 0.0
H285 H 0.38271 0.72314 0.43934 0.0
H286 H 0.35715 0.6809 0.46528 0.0
H287 H 0.42233 0.74684 0.47022 0.0
H288 H 0.36729 0.74935 0.50999 0.0
H289 H 0.3011 0.68359 0.50479 0.0
H290 H 0.29094 0.72918 0.50629 0.0
H291 H 0.1984 0.72202 0.41978 0.0
H292 H 0.12436 0.63055 0.41261 0.0
H293 H 0.23814 0.61835 0.45968 0.0
C294 C 0.41315 0.82783 0.46827 0.0
C295 C 0.42416 0.87014 0.45841 0.0
C296 C 0.3779 0.86233 0.44286 0.0
C297 C 0.3218 0.81438 0.43751 0.0
C298 C 0.31164 0.77384 0.44784 0.0
C299 C 0.35571 0.77937 0.46266 0.0
C300 C 0.33201 0.7279 0.4701 0.0
C301 C 0.3762 0.7192 0.46065 0.0
C302 C 0.32227 0.72217 0.49954 0.0
C303 C 0.26987 0.6932 0.45566 0.0
C304 C 0.25888 0.72126 0.44384 0.0
C305 C 0.20614 0.69942 0.42895 0.0
C306 C 0.1643 0.64743 0.42502 0.0
C307 C 0.1756 0.61752 0.43546 0.0
C308 C 0.2282 0.64043 0.45169 0.0
H309 H 0.56544 0.25434 0.77666 0.0
H310 H 0.62622 0.2732 0.85598 0.0
H311 H 0.64289 0.2131 0.84632 0.0
H312 H 0.47881 0.12256 0.77061 0.0
H313 H 0.49947 0.12408 0.73717 0.0
H314 H 0.49599 0.17054 0.75023 0.0
H315 H 0.60953 0.24136 0.73581 0.0
H316 H 0.61351 0.19514 0.72278 0.0
H317 H 0.66987 0.24183 0.74646 0.0
H318 H 0.65303 0.15019 0.82707 0.0
H319 H 0.65595 0.09167 0.80024 0.0
H320 H 0.57628 0.10881 0.73583 0.0
C321 C 0.58185 0.24568 0.79211 0.0
C322 C 0.59429 0.26831 0.81709 0.0
C323 C 0.61704 0.2567 0.83659 0.0
C324 C 0.62623 0.22238 0.83134 0.0
C325 C 0.61227 0.20002 0.80655 0.0
C326 C 0.59053 0.21132 0.78732 0.0
C327 C 0.57785 0.1819 0.76242 0.0
C328 C 0.50893 0.14774 0.75467 0.0
C329 C 0.62022 0.21717 0.74059 0.0
C330 C 0.59524 0.15182 0.77062 0.0
C331 C 0.61574 0.16299 0.79599 0.0
C332 C 0.63667 0.14097 0.80721 0.0
C333 C 0.63766 0.10742 0.79185 0.0
C334 C 0.61704 0.0958 0.76568 0.0
C335 C 0.59419 0.11764 0.75541 0.0
H336 H 0.55126 0.7246 0.48404 0.0
H337 H 0.73251 0.86116 0.50928 0.0
H338 H 0.75188 0.81142 0.53086 0.0
H339 H 0.51307 0.65637 0.54051 0.0
H340 H 0.47684 0.59668 0.52408 0.0
H341 H 0.47737 0.6423 0.50916 0.0
H342 H 0.52965 0.6388 0.46849 0.0
H343 H 0.52932 0.59312 0.48326 0.0
H344 H 0.6011 0.65039 0.4719 0.0
H345 H 0.74841 0.75014 0.55315 0.0
H346 H 0.727 0.67675 0.57172 0.0
H347 H 0.55153 0.5775 0.53022 0.0
C348 C 0.59516 0.74352 0.49381 0.0
C349 C 0.64081 0.79638 0.49508 0.0
C350 C 0.69759 0.82054 0.5081 0.0
C351 C 0.7089 0.79272 0.52039 0.0
C352 C 0.66311 0.74077 0.51918 0.0
C353 C 0.60778 0.71605 0.50592 0.0
C354 C 0.56677 0.65962 0.50807 0.0
C355 C 0.50486 0.63747 0.52124 0.0
C356 C 0.55612 0.63398 0.48134 0.0
C357 C 0.60716 0.65707 0.52526 0.0
C358 C 0.66231 0.70449 0.53143 0.0
C359 C 0.70587 0.71265 0.54823 0.0
C360 C 0.69316 0.67101 0.55885 0.0
C361 C 0.63777 0.6221 0.55238 0.0
C362 C 0.59425 0.61484 0.53531 0.0
H363 H 0.83647 0.58255 0.87752 0.0
H364 H 0.778 0.51708 0.79976 0.0
H365 H 0.86012 0.51081 0.79787 0.0
H366 H 1.0015 0.65503 0.87047 0.0
H367 H 1.0123 0.64071 0.90171 0.0
H368 H 0.94983 0.64076 0.89676 0.0
H369 H 0.87088 0.54982 0.91225 0.0
H370 H 0.93316 0.54949 0.91729 0.0
H371 H 0.86855 0.5017 0.89666 0.0
H372 H 0.95261 0.51063 0.80531 0.0
H373 H 1.03711 0.51439 0.82154 0.0
H374 H 1.03779 0.58359 0.89355 0.0
C375 C 0.84141 0.5675 0.85995 0.0
C376 C 0.80061 0.55124 0.8385 0.0
C377 C 0.80841 0.53041 0.81634 0.0
C378 C 0.85528 0.5266 0.81513 0.0
C379 C 0.89468 0.54288 0.83646 0.0
C380 C 0.88767 0.5626 0.85858 0.0
C381 C 0.93409 0.57535 0.87929 0.0
C382 C 0.97699 0.6313 0.88753 0.0
C383 C 0.89962 0.54214 0.90276 0.0
C384 C 0.97002 0.56204 0.86515 0.0
C385 C 0.94615 0.54245 0.84061 0.0
C386 C 0.97113 0.526 0.82461 0.0
C387 C 1.02012 0.52864 0.83402 0.0
C388 C 1.04545 0.54805 0.8594 0.0
C389 C 1.01984 0.56616 0.87453 0.0
H390 H 0.26805 0.71462 0.13546 0.0
H391 H 0.32404 0.65665 0.18754 0.0
H392 H 0.4209 0.74264 0.19745 0.0
H393 H 0.42634 0.8149 0.11145 0.0
H394 H 0.41556 0.85976 0.1089 0.0
H395 H 0.35035 0.79348 0.10466 0.0
H396 H 0.29007 0.79869 0.14097 0.0
H397 H 0.35407 0.86513 0.14469 0.0
H398 H 0.32622 0.82602 0.1723 0.0
H399 H 0.51169 0.83346 0.2016 0.0
H400 H 0.58421 0.92567 0.20557 0.0
H401 H 0.47019 0.92875 0.15305 0.0
C402 C 0.30091 0.72015 0.14887 0.0
C403 C 0.28876 0.67864 0.16042 0.0
C404 C 0.33277 0.68752 0.17798 0.0
C405 C 0.38803 0.73634 0.18376 0.0
C406 C 0.39934 0.77624 0.17165 0.0
C407 C 0.35697 0.76899 0.15477 0.0
C408 C 0.38075 0.81909 0.14497 0.0
C409 C 0.39401 0.82198 0.11576 0.0
C410 C 0.33504 0.82772 0.15113 0.0
C411 C 0.44101 0.85567 0.16033 0.0
C412 C 0.45161 0.82963 0.17474 0.0
C413 C 0.504 0.85423 0.19035 0.0
C414 C 0.54535 0.90672 0.19223 0.0
C415 C 0.53342 0.93453 0.17938 0.0
C416 C 0.48126 0.90865 0.16263 0.0
H417 H 0.53078 0.24949 0.51253 0.0
H418 H 0.6742 0.32328 0.45395 0.0
H419 H 0.69676 0.40339 0.4649 0.0
H420 H 0.47597 0.31572 0.50197 0.0
H421 H 0.46059 0.31764 0.53585 0.0
H422 H 0.45499 0.26658 0.52247 0.0
H423 H 0.53404 0.28552 0.55661 0.0
H424 H 0.53908 0.33601 0.57033 0.0
H425 H 0.60849 0.34798 0.55975 0.0
H426 H 0.7054 0.47613 0.4844 0.0
H427 H 0.70217 0.53459 0.51146 0.0
H428 H 0.55177 0.40993 0.55614 0.0
C429 C 0.5673 0.28259 0.50211 0.0
C430 C 0.6013 0.28067 0.48265 0.0
C431 C 0.64774 0.32432 0.46897 0.0
C432 C 0.66071 0.36974 0.47504 0.0
C433 C 0.62614 0.37024 0.49451 0.0
C434 C 0.58036 0.32762 0.50775 0.0
C435 C 0.55028 0.33745 0.52815 0.0
C436 C 0.48138 0.30758 0.52172 0.0
C437 C 0.55852 0.32609 0.5553 0.0
C438 C 0.58772 0.39285 0.52511 0.0
C439 C 0.6307 0.41124 0.5054 0.0
C440 C 0.67168 0.46202 0.49976 0.0
C441 C 0.66943 0.49484 0.51511 0.0
C442 C 0.62698 0.47649 0.53588 0.0
C443 C 0.58495 0.42482 0.54047 0.0
H444 H 0.51737 0.61283 0.84996 0.0
H445 H 0.40934 0.45306 0.83474 0.0
H446 H 0.3132 0.44006 0.83664 0.0
H447 H 0.40769 0.59853 0.89637 0.0
H448 H 0.4188 0.65235 0.88629 0.0
H449 H 0.48064 0.65063 0.88257 0.0
H450 H 0.48636 0.66624 0.83382 0.0
H451 H 0.4241 0.66756 0.83725 0.0
H452 H 0.41756 0.62453 0.81399 0.0
H453 H 0.22519 0.44293 0.83924 0.0
H454 H 0.15478 0.46051 0.8482 0.0
H455 H 0.31391 0.61658 0.86518 0.0
C456 C 0.47357 0.57513 0.84683 0.0
C457 C 0.47249 0.53406 0.84184 0.0
C458 C 0.41306 0.48551 0.83842 0.0
C459 C 0.35744 0.4776 0.83939 0.0
C460 C 0.35999 0.51836 0.84413 0.0
C461 C 0.4165 0.56622 0.84824 0.0
C462 C 0.40502 0.60285 0.85432 0.0
C463 C 0.4295 0.62755 0.88151 0.0
C464 C 0.43508 0.64267 0.83362 0.0
C465 C 0.33375 0.56816 0.85306 0.0
C466 C 0.30896 0.51968 0.84665 0.0
C467 C 0.24451 0.48095 0.84413 0.0
C468 C 0.20445 0.49141 0.8489 0.0
C469 C 0.22768 0.54025 0.85653 0.0
C470 C 0.29391 0.57908 0.8585 0.0
H471 H 0.88263 0.35389 0.13769 0.0
H472 H 1.03482 0.36883 0.16851 0.0
H473 H 0.96162 0.28133 0.18186 0.0
H474 H 0.76802 0.27322 0.18464 0.0
H475 H 0.70494 0.23409 0.16173 0.0
H476 H 0.76959 0.29838 0.15465 0.0
H477 H 0.78742 0.26875 0.1115 0.0
H478 H 0.72285 0.20432 0.11862 0.0
H479 H 0.79822 0.22364 0.11213 0.0
H480 H 0.87289 0.19317 0.19305 0.0
H481 H 0.77259 0.10999 0.20255 0.0
H482 H 0.67535 0.14719 0.16287 0.0
C483 C 0.90024 0.33853 0.14721 0.0
C484 C 0.96458 0.36844 0.15211 0.0
C485 C 0.98591 0.34684 0.16447 0.0
C486 C 0.94464 0.29696 0.1721 0.0
C487 C 0.88179 0.26817 0.16667 0.0
C488 C 0.85949 0.28782 0.15435 0.0
C489 C 0.78956 0.24781 0.15049 0.0
C490 C 0.75605 0.26437 0.16368 0.0
C491 C 0.77355 0.2354 0.12146 0.0
C492 C 0.77584 0.20368 0.16383 0.0
C493 C 0.83018 0.21626 0.17258 0.0
C494 C 0.8301 0.18269 0.18603 0.0
C495 C 0.773 0.13543 0.19123 0.0
C496 C 0.71647 0.12187 0.18307 0.0
C497 C 0.718 0.15622 0.16882 0.0
H498 H 1.07929 0.47215 0.05956 0.0
H499 H 0.17283 0.62811 0.07926 0.0
H500 H 0.19865 0.64879 0.03329 0.0
H501 H 0.18426 0.49526 0.00572 0.0
H502 H 0.12167 0.4431 0.98586 0.0
H503 H 0.11582 0.44067 0.02067 0.0
H504 H 1.01229 0.42326 0.01814 0.0
H505 H 1.01817 0.42599 0.98337 0.0
H506 H 1.01012 0.4663 0.0017 0.0
H507 H 0.20667 0.65229 0.98564 0.0
H508 H 0.19937 0.63839 0.93803 0.0
H509 H 0.10113 0.48061 0.94744 0.0
C510 C 0.10686 0.5108 0.05414 0.0
C511 C 0.12545 0.54895 0.07294 0.0
C512 C 0.15923 0.59871 0.06515 0.0
C513 C 0.17396 0.61077 0.0391 0.0
C514 C 0.15418 0.57251 0.0209 0.0
C515 C 0.12161 0.5235 0.02792 0.0
C516 C 0.10266 0.48935 0.00396 0.0
C517 C 0.13293 0.4657 0.00407 0.0
C518 C 1.03159 0.44884 0.00167 0.0
C519 C 0.12926 0.52683 0.9826 0.0
C520 C 0.15881 0.57456 0.99294 0.0
C521 C 0.18452 0.61526 0.9773 0.0
C522 C 0.18017 0.60712 0.95036 0.0
C523 C 0.15057 0.55878 0.93932 0.0
C524 C 0.1249 0.51809 0.95559 0.0
H525 H 0.6312 0.0953 0.38587 0.0
H526 H 0.57176 0.9475 0.39495 0.0
H527 H 0.56052 0.93237 0.34748 0.0
H528 H 0.52437 0.05674 0.33076 0.0
H529 H 0.57974 0.11534 0.31493 0.0
H530 H 0.58029 0.11372 0.34974 0.0
H531 H 0.69623 0.15533 0.34825 0.0
H532 H 0.69561 0.15614 0.31343 0.0
H533 H 0.71928 0.12595 0.32891 0.0
H534 H 0.56572 0.93602 0.30036 0.0
H535 H 0.57263 0.9523 0.25436 0.0
H536 H 0.62126 0.09591 0.27367 0.0
C537 C 0.61468 0.05951 0.3777 0.0
C538 C 0.60174 0.02219 0.39374 0.0
C539 C 0.58105 0.97603 0.38275 0.0
C540 C 0.5749 0.9673 0.35591 0.0
C541 C 0.58894 1.00498 0.34046 0.0
C542 C 0.60719 0.04979 0.35079 0.0
C543 C 0.61893 0.0835 0.32943 0.0
C544 C 0.5731 0.09287 0.33133 0.0
C545 C 0.68654 0.13317 0.33005 0.0
C546 C 0.6059 0.05098 0.30555 0.0
C547 C 0.58901 1.00606 0.31263 0.0
C548 C 0.57709 0.97035 0.29451 0.0
C549 C 0.58068 0.97992 0.26835 0.0
C550 C 0.59493 0.02451 0.26026 0.0
C551 C 0.60901 0.06108 0.2792 0.0
H552 H 0.66278 0.60613 0.75216 0.0
H553 H 0.61738 0.46389 0.76335 0.0
H554 H 0.6159 0.45023 0.71609 0.0
H555 H 0.56914 0.56897 0.69817 0.0
H556 H 0.62195 0.62561 0.6805 0.0
H557 H 0.62634 0.62812 0.71532 0.0
H558 H 0.74216 0.66951 0.71308 0.0
H559 H 0.7384 0.66822 0.67824 0.0
H560 H 0.76442 0.63966 0.69359 0.0
H561 H 0.59754 0.44351 0.66927 0.0
H562 H 0.58848 0.45224 0.62365 0.0
H563 H 0.66398 0.60566 0.64043 0.0
C564 C 0.65503 0.57322 0.74453 0.0
C565 C 0.64075 0.53616 0.76121 0.0
C566 C 0.62907 0.49281 0.75075 0.0
C567 C 0.62771 0.48459 0.72398 0.0
C568 C 0.63932 0.52058 0.70793 0.0
C569 C 0.65484 0.56486 0.71762 0.0
C570 C 0.66403 0.5965 0.69565 0.0
C571 C 0.6176 0.6053 0.69754 0.0
C572 C 0.73127 0.64643 0.69511 0.0
C573 C 0.64982 0.56241 0.67236 0.0
C574 C 0.63449 0.51852 0.68009 0.0
C575 C 0.61256 0.47875 0.66273 0.0
C576 C 0.60839 0.48456 0.63653 0.0
C577 C 0.62859 0.53074 0.62742 0.0
C578 C 0.64879 0.56991 0.64599 0.0
H579 H 0.51744 0.96035 0.55756 0.0
H580 H 0.68472 0.10896 0.53759 0.0
H581 H 0.71786 0.12865 0.58347 0.0
H582 H 0.48915 0.99285 0.61834 0.0
H583 H 0.46493 0.93815 0.63443 0.0
H584 H 0.45451 0.93519 0.59995 0.0
H585 H 0.51693 0.90544 0.5926 0.0
H586 H 0.52706 0.90806 0.62712 0.0
H587 H 0.59382 0.94247 0.60624 0.0
H588 H 0.7285 0.13481 0.63187 0.0
H589 H 0.72139 0.12349 0.67921 0.0
H590 H 0.55211 0.96891 0.66755 0.0
C591 C 0.56113 0.99684 0.56295 0.0
C592 C 0.59839 0.03329 0.5442 0.0
C593 C 0.65563 0.08051 0.55174 0.0
C594 C 0.67476 0.09209 0.57773 0.0
C595 C 0.63686 0.05558 0.59585 0.0
C596 C 0.58185 1.00856 0.58878 0.0
C597 C 0.55056 0.97591 0.6121 0.0
C598 C 0.48597 0.95959 0.61646 0.0
C599 C 0.5469 0.93027 0.60934 0.0
C600 C 0.59562 0.01241 0.6334 0.0
C601 C 0.64492 0.05826 0.62363 0.0
C602 C 0.69072 0.09881 0.63972 0.0
C603 C 0.68625 0.09217 0.66652 0.0
C604 C 0.63678 0.04524 0.67684 0.0
C605 C 0.5911 1.0049 0.66002 0.0
H606 H 0.70454 0.59152 0.93268 0.0
H607 H 0.53835 0.46689 0.89089 0.0
H608 H 0.49491 0.41998 0.9307 0.0
H609 H 0.71408 0.52308 0.97859 0.0
H610 H 0.73379 0.56523 0.00577 0.0
H611 H 0.75511 0.58843 0.97346 0.0
H612 H 0.6973 0.62241 0.97936 0.0
H613 H 0.67615 0.5996 0.01175 0.0
H614 H 0.61686 0.58039 0.98877 0.0
H615 H 0.46814 0.38661 0.9739 0.0
H616 H 0.45497 0.3709 0.02074 0.0
H617 H 0.63391 0.51819 0.03619 0.0
C618 C 0.6595 0.55409 0.932 0.0
C619 C 0.62592 0.53169 0.90861 0.0
C620 C 0.56597 0.48366 0.90843 0.0
C621 C 0.54058 0.45687 0.93097 0.0
C622 C 0.57493 0.47945 0.95367 0.0
C623 C 0.63236 0.5273 0.95463 0.0
C624 C 0.65644 0.54407 0.9822 0.0
C625 C 0.71854 0.55587 0.98517 0.0
C626 C 0.662 0.58929 0.99103 0.0
C627 C 0.60447 0.49733 -0.00377 0.0
C628 C 0.55796 0.46072 0.97929 0.0
C629 C 0.5041 0.41477 0.98747 0.0
C630 C 0.49702 0.40613 0.01392 0.0
C631 C 0.54375 0.44316 0.03156 0.0
C632 C 0.59831 0.48915 0.02274 0.0
H633 H 0.14796 0.57157 0.23394 0.0
H634 H 1.02833 0.41026 0.21974 0.0
H635 H 1.0091 0.39728 0.26633 0.0
H636 H 0.21723 0.57646 0.29173 0.0
H637 H 0.21924 0.6231 0.30911 0.0
H638 H 0.22138 0.62182 0.27422 0.0
H639 H 0.12505 0.61503 0.27269 0.0
H640 H 0.12332 0.61688 0.3076 0.0
H641 H 1.05547 0.5656 0.2895 0.0
H642 H 1.01716 0.40087 0.31326 0.0
H643 H 1.0341 0.41902 0.35956 0.0
H644 H 0.13477 0.57713 0.34656 0.0
C645 C 0.11652 0.53361 0.2407 0.0
C646 C 0.08986 0.49179 0.22313 0.0
C647 C 1.04967 0.44278 0.23276 0.0
C648 C 1.03841 0.43494 0.25924 0.0
C649 C 1.06708 0.47649 0.27613 0.0
C650 C 0.10415 0.5249 0.26748 0.0
C651 C 0.12984 0.56232 0.29055 0.0
C652 C 0.20116 0.59804 0.29143 0.0
C653 C 0.10703 0.59168 0.29005 0.0
C654 C 0.10173 0.52705 0.31313 0.0
C655 C 1.0668 0.47796 0.30411 0.0
C656 C 1.04193 0.43891 0.32069 0.0
C657 C 1.05129 0.44983 0.34732 0.0
C658 C 1.08306 0.49935 0.35771 0.0
C659 C 0.10931 0.53859 0.33998 0.0
loop_
_geom_bond_atom_site_label_1
_geom_bond_atom_site_label_2
_geom_bond_distance
_geom_bond_site_symmetry_2
_ccdc_geom_bond_type
Ho0 C3 2.811 . S
Ho0 O20 2.322 . S
Ho0 O22 2.378 . S
Ho0 O23 2.524 . S
Ho0 O24 2.381 . S
Ho0 O25 2.669 . S
Ho0 O27 2.346 1_455 S
Ho0 O31 2.305 . S
Ho1 C12 2.811 . S
Ho1 O21 2.346 1_655 S
Ho1 O25 2.305 1_655 S
Ho1 O26 2.322 . S
Ho1 O28 2.378 . S
Ho1 O29 2.524 . S
Ho1 O30 2.381 . S
Ho1 O31 2.669 1_655 S
C2 O20 1.259 . S
C2 O21 1.268 . S
C3 Ho0 2.811 . S
C3 C4 1.488 . S
C3 O22 1.215 . S
C3 O23 1.289 . S
C4 C3 1.488 . S
C4 C5 1.348 . S
C4 C9 1.413 . S
C5 C4 1.348 . S
C5 C6 1.442 . S
C5 H32 0.930 . S
C6 C5 1.442 . S
C6 C7 1.381 . S
C6 H33 0.931 . S
C7 C6 1.381 . S
C7 C8 1.321 . S
C8 C7 1.321 . S
C8 C9 1.403 . S
C8 H34 0.934 . S
C9 C4 1.413 . S
C9 C8 1.403 . S
C9 H35 0.930 . S
C10 O24 1.275 . S
C10 O25 1.256 . S
C11 O26 1.259 . S
C11 O27 1.268 . S
C12 Ho1 2.811 . S
C12 C13 1.488 . S
C12 O28 1.215 . S
C12 O29 1.289 . S
C13 C12 1.488 . S
C13 C14 1.348 . S
C13 C18 1.413 . S
C14 C13 1.348 . S
C14 C15 1.442 . S
C14 H36 0.930 . S
C15 C14 1.442 . S
C15 C16 1.381 . S
C15 H37 0.931 . S
C16 C15 1.381 . S
C16 C17 1.321 . S
C17 C16 1.321 . S
C17 C18 1.403 . S
C17 H38 0.934 . S
C18 C13 1.413 . S
C18 C17 1.403 . S
C18 H39 0.930 . S
C19 O30 1.275 1_455 S
C19 O31 1.256 . S
O20 Ho0 2.322 . S
O20 C2 1.259 . S
O21 Ho1 2.346 1_455 S
O21 C2 1.268 . S
O22 Ho0 2.378 . S
O22 C3 1.215 . S
O23 Ho0 2.524 . S
O23 C3 1.289 . S
O24 Ho0 2.381 . S
O24 C10 1.275 . S
O25 Ho0 2.669 . S
O25 Ho1 2.305 1_455 S
O25 C10 1.256 . S
O26 Ho1 2.322 . S
O26 C11 1.259 . S
O27 Ho0 2.346 1_655 S
O27 C11 1.268 . S
O28 Ho1 2.378 . S
O28 C12 1.215 . S
O29 Ho1 2.524 . S
O29 C12 1.289 . S
O30 Ho1 2.381 . S
O30 C19 1.275 1_655 S
O31 Ho0 2.305 . S
O31 Ho1 2.669 1_455 S
O31 C19 1.256 . S
H32 C5 0.930 . S
H33 C6 0.931 . S
H34 C8 0.934 . S
H35 C9 0.930 . S
H36 C14 0.930 . S
H37 C15 0.931 . S
H38 C17 0.934 . S
H39 C18 0.930 . S
Ho40 C43 2.811 . S
Ho40 O60 2.322 . S
Ho40 O62 2.378 . S
Ho40 O63 2.524 . S
Ho40 O64 2.381 . S
Ho40 O65 2.669 1_565 S
Ho40 O67 2.346 1_565 S
Ho40 O71 2.319 . S
Ho41 C52 2.811 . S
Ho41 O61 2.346 1_545 S
Ho41 O65 2.305 . S
Ho41 O66 2.322 . S
Ho41 O68 2.378 . S
Ho41 O69 2.524 . S
Ho41 O70 2.381 . S
Ho41 O71 2.646 1_545 S
C42 O60 1.259 . S
C42 O61 1.268 . S
C43 Ho40 2.811 . S
C43 C44 1.488 . S
C43 O62 1.215 . S
C43 O63 1.289 . S
C44 C43 1.488 . S
C44 C45 1.348 . S
C44 C49 1.413 . S
C45 C44 1.348 . S
C45 C46 1.442 . S
C45 H72 0.930 . S
C46 C45 1.442 . S
C46 C47 1.381 . S
C46 H73 0.931 . S
C47 C46 1.381 . S
C47 C48 1.321 . S
C48 C47 1.321 . S
C48 C49 1.403 . S
C48 H74 0.934 . S
C49 C44 1.413 . S
C49 C48 1.403 . S
C49 H75 0.930 . S
C50 O64 1.275 1_545 S
C50 O65 1.256 . S
C51 O66 1.259 . S
C51 O67 1.268 . S
C52 Ho41 2.811 . S
C52 C53 1.488 . S
C52 O68 1.215 . S
C52 O69 1.289 . S
C53 C52 1.488 . S
C53 C54 1.348 . S
C53 C58 1.413 . S
C54 C53 1.348 . S
C54 C55 1.442 . S
C54 H76 0.930 . S
C55 C54 1.442 . S
C55 C56 1.381 . S
C55 H77 0.931 . S
C56 C55 1.381 . S
C56 C57 1.321 . S
C57 C56 1.321 . S
C57 C58 1.403 . S
C57 H78 0.934 . S
C58 C53 1.413 . S
C58 C57 1.403 . S
C58 H79 0.930 . S
C59 O70 1.275 . S
C59 O71 1.244 1_545 S
O60 Ho40 2.322 . S
O60 C42 1.259 . S
O61 Ho41 2.346 1_565 S
O61 C42 1.268 . S
O62 Ho40 2.378 . S
O62 C43 1.215 . S
O63 Ho40 2.524 . S
O63 C43 1.289 . S
O64 Ho40 2.381 . S
O64 C50 1.275 1_565 S
O65 Ho40 2.669 1_545 S
O65 Ho41 2.305 . S
O65 C50 1.256 . S
O66 Ho41 2.322 . S
O66 C51 1.259 . S
O67 Ho40 2.346 1_545 S
O67 C51 1.268 . S
O68 Ho41 2.378 . S
O68 C52 1.215 . S
O69 Ho41 2.524 . S
O69 C52 1.289 . S
O70 Ho41 2.381 . S
O70 C59 1.275 . S
O71 Ho40 2.319 . S
O71 Ho41 2.646 1_565 S
O71 C59 1.244 1_565 S
H72 C45 0.930 . S
H73 C46 0.931 . S
H74 C48 0.934 . S
H75 C49 0.930 . S
H76 C54 0.930 . S
H77 C55 0.931 . S
H78 C57 0.934 . S
H79 C58 0.930 . S
Ho80 C83 2.811 . S
Ho80 O100 2.322 . S
Ho80 O102 2.378 . S
Ho80 O103 2.524 . S
Ho80 O104 2.381 . S
Ho80 O105 2.669 . S
Ho80 O107 2.346 . S
Ho80 O111 2.305 . S
Ho81 C92 2.811 . S
Ho81 O101 2.346 . S
Ho81 O105 2.305 . S
Ho81 O106 2.322 . S
Ho81 O108 2.378 . S
Ho81 O109 2.524 . S
Ho81 O110 2.381 . S
Ho81 O111 2.669 . S
C82 O100 1.259 . S
C82 O101 1.268 . S
C83 Ho80 2.811 . S
C83 C84 1.488 . S
C83 O102 1.215 . S
C83 O103 1.289 . S
C84 C83 1.488 . S
C84 C85 1.348 . S
C84 C89 1.413 . S
C85 C84 1.348 . S
C85 C86 1.442 . S
C85 H112 0.930 . S
C86 C85 1.442 . S
C86 C87 1.381 . S
C86 H113 0.931 . S
C87 C86 1.381 . S
C87 C88 1.321 . S
C88 C87 1.321 . S
C88 C89 1.403 . S
C88 H114 0.934 . S
C89 C84 1.413 . S
C89 C88 1.403 . S
C89 H115 0.930 . S
C90 O104 1.275 . S
C90 O105 1.256 . S
C91 O106 1.259 . S
C91 O107 1.268 . S
C92 Ho81 2.811 . S
C92 C93 1.488 . S
C92 O108 1.215 . S
C92 O109 1.289 . S
C93 C92 1.488 . S
C93 C94 1.348 . S
C93 C98 1.413 . S
C94 C93 1.348 . S
C94 C95 1.442 . S
C94 H116 0.930 . S
C95 C94 1.442 . S
C95 C96 1.381 . S
C95 H117 0.931 . S
C96 C95 1.381 . S
C96 C97 1.321 . S
C97 C96 1.321 . S
C97 C98 1.403 . S
C97 H118 0.934 . S
C98 C93 1.413 . S
C98 C97 1.403 . S
C98 H119 0.930 . S
C99 O110 1.275 . S
C99 O111 1.256 . S
O100 Ho80 2.322 . S
O100 C82 1.259 . S
O101 Ho81 2.346 . S
O101 C82 1.268 . S
O102 Ho80 2.378 . S
O102 C83 1.215 . S
O103 Ho80 2.524 . S
O103 C83 1.289 . S
O104 Ho80 2.381 . S
O104 C90 1.275 . S
O105 Ho80 2.669 . S
O105 Ho81 2.305 . S
O105 C90 1.256 . S
O106 Ho81 2.322 . S
O106 C91 1.259 . S
O107 Ho80 2.346 . S
O107 C91 1.268 . S
O108 Ho81 2.378 . S
O108 C92 1.215 . S
O109 Ho81 2.524 . S
O109 C92 1.289 . S
O110 Ho81 2.381 . S
O110 C99 1.275 . S
O111 Ho80 2.305 . S
O111 Ho81 2.669 . S
O111 C99 1.256 . S
H112 C85 0.930 . S
H113 C86 0.931 . S
H114 C88 0.934 . S
H115 C89 0.930 . S
H116 C94 0.930 . S
H117 C95 0.931 . S
H118 C97 0.934 . S
H119 C98 0.930 . S
H120 C123 0.931 . S
H121 C126 0.928 . S
H122 C128 0.930 . S
C123 H120 0.931 . S
C123 C124 1.413 . S
C123 C125 1.360 1_565 S
C124 C123 1.413 . S
C124 C128 1.429 1_565 S
C125 C123 1.360 1_545 S
C125 C126 1.372 . S
C126 H121 0.928 . S
C126 C125 1.372 . S
C126 C127 1.404 . S
C127 C126 1.404 . S
C127 C128 1.391 . S
C128 H122 0.930 . S
C128 C124 1.429 1_545 S
C128 C127 1.391 . S
H129 C132 0.931 . S
H130 C135 0.928 . S
H131 C137 0.930 . S
C132 H129 0.931 . S
C132 C133 1.413 . S
C132 C134 1.360 . S
C133 C132 1.413 . S
C133 C137 1.429 . S
C134 C132 1.360 . S
C134 C135 1.372 . S
C135 H130 0.928 . S
C135 C134 1.372 . S
C135 C136 1.404 . S
C136 C135 1.404 . S
C136 C137 1.391 . S
C137 H131 0.930 . S
C137 C133 1.429 . S
C137 C136 1.391 . S
H138 C141 0.931 1_655 S
H139 C144 0.928 . S
H140 C146 0.930 . S
C141 H138 0.931 1_455 S
C141 C142 1.413 . S
C141 C143 1.360 . S
C142 C141 1.413 . S
C142 C146 1.429 . S
C143 C141 1.360 . S
C143 C144 1.372 . S
C144 H139 0.928 . S
C144 C143 1.372 . S
C144 C145 1.404 . S
C145 C144 1.404 . S
C145 C146 1.391 . S
C146 H140 0.930 . S
C146 C142 1.429 . S
C146 C145 1.391 . S
H147 C150 0.931 . S
H148 C153 0.928 . S
H149 C155 0.930 . S
C150 H147 0.931 . S
C150 C151 1.413 . S
C150 C152 1.359 1_655 S
C151 C150 1.413 . S
C151 C155 1.429 1_655 S
C152 C150 1.359 1_455 S
C152 C153 1.372 . S
C153 H148 0.928 . S
C153 C152 1.372 . S
C153 C154 1.404 . S
C154 C153 1.404 . S
C154 C155 1.391 . S
C155 H149 0.930 . S
C155 C151 1.429 1_455 S
C155 C154 1.391 . S
H156 C159 0.931 . S
H157 C162 0.928 . S
H158 C164 0.930 . S
C159 H156 0.931 . S
C159 C160 1.413 . S
C159 C161 1.360 1_545 S
C160 C159 1.413 . S
C160 C164 1.429 . S
C161 C159 1.360 1_565 S
C161 C162 1.372 . S
C162 H157 0.928 . S
C162 C161 1.372 . S
C162 C163 1.404 . S
C163 C162 1.404 . S
C163 C164 1.391 1_565 S
C164 H158 0.930 . S
C164 C160 1.429 . S
C164 C163 1.391 1_545 S
H165 C168 0.931 . S
H166 C171 0.928 . S
H167 C173 0.930 . S
C168 H165 0.931 . S
C168 C169 1.413 . S
C168 C170 1.360 . S
C169 C168 1.413 . S
C169 C173 1.429 . S
C170 C168 1.360 . S
C170 C171 1.372 . S
C171 H166 0.928 . S
C171 C170 1.372 . S
C171 C172 1.404 . S
C172 C171 1.404 . S
C172 C173 1.391 . S
C173 H167 0.930 . S
C173 C169 1.429 . S
C173 C172 1.391 . S
H174 C186 0.930 . S
H175 C188 0.930 . S
H176 C189 0.930 . S
H177 C193 0.959 . S
H178 C193 0.959 . S
H179 C193 0.961 . S
H180 C194 0.960 . S
H181 C194 0.961 . S
H182 C194 0.959 . S
H183 C197 0.929 . S
H184 C198 0.931 . S
H185 C200 0.930 . S
C186 H174 0.930 . S
C186 C187 1.399 . S
C186 C191 1.399 . S
C187 C186 1.399 . S
C187 C188 1.376 . S
C188 H175 0.930 . S
C188 C187 1.376 . S
C188 C189 1.388 . S
C189 H176 0.930 . S
C189 C188 1.388 . S
C189 C190 1.390 . S
C190 C189 1.390 . S
C190 C191 1.394 . S
C190 C196 1.465 . S
C191 C186 1.399 . S
C191 C190 1.394 . S
C191 C192 1.516 . S
C192 C191 1.516 . S
C192 C193 1.502 . S
C192 C194 1.561 . S
C192 C195 1.526 . S
C193 H177 0.959 . S
C193 H178 0.959 . S
C193 H179 0.961 . S
C193 C192 1.502 . S
C194 H180 0.960 . S
C194 H181 0.961 . S
C194 H182 0.959 . S
C194 C192 1.561 . S
C195 C192 1.526 . S
C195 C196 1.396 . S
C195 C200 1.390 . S
C196 C190 1.465 . S
C196 C195 1.396 . S
C196 C197 1.399 . S
C197 H183 0.929 . S
C197 C196 1.399 . S
C197 C198 1.385 . S
C198 H184 0.931 . S
C198 C197 1.385 . S
C198 C199 1.389 . S
C199 C198 1.389 . S
C199 C200 1.387 . S
C200 H185 0.930 . S
C200 C195 1.390 . S
C200 C199 1.387 . S
H201 C213 0.930 . S
H202 C215 0.930 . S
H203 C216 0.930 . S
H204 C220 0.959 . S
H205 C220 0.959 . S
H206 C220 0.961 . S
H207 C221 0.960 . S
H208 C221 0.961 . S
H209 C221 0.959 . S
H210 C224 0.929 . S
H211 C225 0.931 . S
H212 C227 0.930 . S
C213 H201 0.930 . S
C213 C214 1.399 . S
C213 C218 1.399 . S
C214 C213 1.399 . S
C214 C215 1.376 . S
C215 H202 0.930 . S
C215 C214 1.376 . S
C215 C216 1.388 . S
C216 H203 0.930 . S
C216 C215 1.388 . S
C216 C217 1.390 . S
C217 C216 1.390 . S
C217 C218 1.394 . S
C217 C223 1.465 . S
C218 C213 1.399 . S
C218 C217 1.394 . S
C218 C219 1.516 . S
C219 C218 1.516 . S
C219 C220 1.502 . S
C219 C221 1.561 . S
C219 C222 1.526 . S
C220 H204 0.959 . S
C220 H205 0.959 . S
C220 H206 0.961 . S
C220 C219 1.502 . S
C221 H207 0.960 . S
C221 H208 0.961 . S
C221 H209 0.959 . S
C221 C219 1.561 . S
C222 C219 1.526 . S
C222 C223 1.396 . S
C222 C227 1.390 . S
C223 C217 1.465 . S
C223 C222 1.396 . S
C223 C224 1.399 . S
C224 H210 0.929 . S
C224 C223 1.399 . S
C224 C225 1.385 . S
C225 H211 0.931 . S
C225 C224 1.385 . S
C225 C226 1.389 . S
C226 C225 1.389 . S
C226 C227 1.387 . S
C227 H212 0.930 . S
C227 C222 1.390 . S
C227 C226 1.387 . S
H228 C240 0.930 . S
H229 C242 0.930 . S
H230 C243 0.930 . S
H231 C247 0.959 . S
H232 C247 0.959 . S
H233 C247 0.961 . S
H234 C248 0.960 . S
H235 C248 0.961 . S
H236 C248 0.959 . S
H237 C251 0.929 . S
H238 C252 0.931 . S
H239 C254 0.930 . S
C240 H228 0.930 . S
C240 C241 1.399 . S
C240 C245 1.399 . S
C241 C240 1.399 . S
C241 C242 1.376 . S
C242 H229 0.930 . S
C242 C241 1.376 . S
C242 C243 1.388 . S
C243 H230 0.930 . S
C243 C242 1.388 . S
C243 C244 1.390 . S
C244 C243 1.390 . S
C244 C245 1.394 . S
C244 C250 1.465 . S
C245 C240 1.399 . S
C245 C244 1.394 . S
C245 C246 1.516 . S
C246 C245 1.516 . S
C246 C247 1.502 . S
C246 C248 1.561 . S
C246 C249 1.526 . S
C247 H231 0.959 . S
C247 H232 0.959 . S
C247 H233 0.961 . S
C247 C246 1.502 . S
C248 H234 0.960 . S
C248 H235 0.961 . S
C248 H236 0.959 . S
C248 C246 1.561 . S
C249 C246 1.526 . S
C249 C250 1.396 . S
C249 C254 1.390 . S
C250 C244 1.465 . S
C250 C249 1.396 . S
C250 C251 1.399 . S
C251 H237 0.929 . S
C251 C250 1.399 . S
C251 C252 1.385 . S
C252 H238 0.931 . S
C252 C251 1.385 . S
C252 C253 1.389 . S
C253 C252 1.389 . S
C253 C254 1.387 . S
C254 H239 0.930 . S
C254 C249 1.390 . S
C254 C253 1.387 . S
H255 C267 0.930 . S
H256 C269 0.930 . S
H257 C270 0.930 . S
H258 C274 0.959 . S
H259 C274 0.959 . S
H260 C274 0.961 . S
H261 C275 0.960 . S
H262 C275 0.961 . S
H263 C275 0.959 . S
H264 C278 0.929 . S
H265 C279 0.931 . S
H266 C281 0.930 . S
C267 H255 0.930 . S
C267 C268 1.399 . S
C267 C272 1.399 . S
C268 C267 1.399 . S
C268 C269 1.376 . S
C269 H256 0.930 . S
C269 C268 1.376 . S
C269 C270 1.388 . S
C270 H257 0.930 . S
C270 C269 1.388 . S
C270 C271 1.390 . S
C271 C270 1.390 . S
C271 C272 1.394 . S
C271 C277 1.465 . S
C272 C267 1.399 . S
C272 C271 1.394 . S
C272 C273 1.516 . S
C273 C272 1.516 . S
C273 C274 1.502 . S
C273 C275 1.561 . S
C273 C276 1.526 . S
C274 H258 0.959 . S
C274 H259 0.959 . S
C274 H260 0.961 . S
C274 C273 1.502 . S
C275 H261 0.960 . S
C275 H262 0.961 . S
C275 H263 0.959 . S
C275 C273 1.561 . S
C276 C273 1.526 . S
C276 C277 1.396 . S
C276 C281 1.390 . S
C277 C271 1.465 . S
C277 C276 1.396 . S
C277 C278 1.399 . S
C278 H264 0.929 . S
C278 C277 1.399 . S
C278 C279 1.385 . S
C279 H265 0.931 . S
C279 C278 1.385 . S
C279 C280 1.389 . S
C280 C279 1.389 . S
C280 C281 1.387 . S
C281 H266 0.930 . S
C281 C276 1.390 . S
C281 C280 1.387 . S
H282 C294 0.930 . S
H283 C296 0.930 . S
H284 C297 0.930 . S
H285 C301 0.959 . S
H286 C301 0.959 . S
H287 C301 0.961 . S
H288 C302 0.960 . S
H289 C302 0.961 . S
H290 C302 0.959 . S
H291 C305 0.929 . S
H292 C306 0.931 . S
H293 C308 0.930 . S
C294 H282 0.930 . S
C294 C295 1.399 . S
C294 C299 1.399 . S
C295 C294 1.399 . S
C295 C296 1.376 . S
C296 H283 0.930 . S
C296 C295 1.376 . S
C296 C297 1.388 . S
C297 H284 0.930 . S
C297 C296 1.388 . S
C297 C298 1.390 . S
C298 C297 1.390 . S
C298 C299 1.394 . S
C298 C304 1.465 . S
C299 C294 1.399 . S
C299 C298 1.394 . S
C299 C300 1.516 . S
C300 C299 1.516 . S
C300 C301 1.502 . S
C300 C302 1.561 . S
C300 C303 1.526 . S
C301 H285 0.959 . S
C301 H286 0.959 . S
C301 H287 0.961 . S
C301 C300 1.502 . S
C302 H288 0.960 . S
C302 H289 0.961 . S
C302 H290 0.959 . S
C302 C300 1.561 . S
C303 C300 1.526 . S
C303 C304 1.396 . S
C303 C308 1.390 . S
C304 C298 1.465 . S
C304 C303 1.396 . S
C304 C305 1.399 . S
C305 H291 0.929 . S
C305 C304 1.399 . S
C305 C306 1.385 . S
C306 H292 0.931 . S
C306 C305 1.385 . S
C306 C307 1.389 . S
C307 C306 1.389 . S
C307 C308 1.387 . S
C308 H293 0.930 . S
C308 C303 1.390 . S
C308 C307 1.387 . S
H309 C321 0.930 . S
H310 C323 0.930 . S
H311 C324 0.930 . S
H312 C328 0.959 . S
H313 C328 0.959 . S
H314 C328 0.961 . S
H315 C329 0.960 . S
H316 C329 0.961 . S
H317 C329 0.959 . S
H318 C332 0.929 . S
H319 C333 0.931 . S
H320 C335 0.930 . S
C321 H309 0.930 . S
C321 C322 1.399 . S
C321 C326 1.399 . S
C322 C321 1.399 . S
C322 C323 1.376 . S
C323 H310 0.930 . S
C323 C322 1.376 . S
C323 C324 1.388 . S
C324 H311 0.930 . S
C324 C323 1.388 . S
C324 C325 1.390 . S
C325 C324 1.390 . S
C325 C326 1.394 . S
C325 C331 1.465 . S
C326 C321 1.399 . S
C326 C325 1.394 . S
C326 C327 1.516 . S
C327 C326 1.516 . S
C327 C328 1.502 . S
C327 C329 1.561 . S
C327 C330 1.526 . S
C328 H312 0.959 . S
C328 H313 0.959 . S
C328 H314 0.961 . S
C328 C327 1.502 . S
C329 H315 0.960 . S
C329 H316 0.961 . S
C329 H317 0.959 . S
C329 C327 1.561 . S
C330 C327 1.526 . S
C330 C331 1.396 . S
C330 C335 1.390 . S
C331 C325 1.465 . S
C331 C330 1.396 . S
C331 C332 1.399 . S
C332 H318 0.929 . S
C332 C331 1.399 . S
C332 C333 1.385 . S
C333 H319 0.931 . S
C333 C332 1.385 . S
C333 C334 1.389 . S
C334 C333 1.389 . S
C334 C335 1.387 . S
C335 H320 0.930 . S
C335 C330 1.390 . S
C335 C334 1.387 . S
H336 C348 0.930 . S
H337 C350 0.930 . S
H338 C351 0.930 . S
H339 C355 0.959 . S
H340 C355 0.959 . S
H341 C355 0.961 . S
H342 C356 0.960 . S
H343 C356 0.961 . S
H344 C356 0.959 . S
H345 C359 0.929 . S
H346 C360 0.931 . S
H347 C362 0.930 . S
C348 H336 0.930 . S
C348 C349 1.399 . S
C348 C353 1.399 . S
C349 C348 1.399 . S
C349 C350 1.376 . S
C350 H337 0.930 . S
C350 C349 1.376 . S
C350 C351 1.388 . S
C351 H338 0.930 . S
C351 C350 1.388 . S
C351 C352 1.390 . S
C352 C351 1.390 . S
C352 C353 1.394 . S
C352 C358 1.465 . S
C353 C348 1.399 . S
C353 C352 1.394 . S
C353 C354 1.516 . S
C354 C353 1.516 . S
C354 C355 1.502 . S
C354 C356 1.561 . S
C354 C357 1.526 . S
C355 H339 0.959 . S
C355 H340 0.959 . S
C355 H341 0.961 . S
C355 C354 1.502 . S
C356 H342 0.960 . S
C356 H343 0.961 . S
C356 H344 0.959 . S
C356 C354 1.561 . S
C357 C354 1.526 . S
C357 C358 1.396 . S
C357 C362 1.390 . S
C358 C352 1.465 . S
C358 C357 1.396 . S
C358 C359 1.399 . S
C359 H345 0.929 . S
C359 C358 1.399 . S
C359 C360 1.385 . S
C360 H346 0.931 . S
C360 C359 1.385 . S
C360 C361 1.389 . S
C361 C360 1.389 . S
C361 C362 1.387 . S
C362 H347 0.930 . S
C362 C357 1.390 . S
C362 C361 1.387 . S
H363 C375 0.930 . S
H364 C377 0.930 . S
H365 C378 0.930 . S
H366 C382 0.959 . S
H367 C382 0.959 . S
H368 C382 0.961 . S
H369 C383 0.960 . S
H370 C383 0.961 . S
H371 C383 0.959 . S
H372 C386 0.929 . S
H373 C387 0.931 . S
H374 C389 0.930 . S
C375 H363 0.930 . S
C375 C376 1.399 . S
C375 C380 1.399 . S
C376 C375 1.399 . S
C376 C377 1.376 . S
C377 H364 0.930 . S
C377 C376 1.376 . S
C377 C378 1.388 . S
C378 H365 0.930 . S
C378 C377 1.388 . S
C378 C379 1.390 . S
C379 C378 1.390 . S
C379 C380 1.394 . S
C379 C385 1.465 . S
C380 C375 1.399 . S
C380 C379 1.394 . S
C380 C381 1.516 . S
C381 C380 1.516 . S
C381 C382 1.502 . S
C381 C383 1.561 . S
C381 C384 1.526 . S
C382 H366 0.959 . S
C382 H367 0.959 . S
C382 H368 0.961 . S
C382 C381 1.502 . S
C383 H369 0.960 . S
C383 H370 0.961 . S
C383 H371 0.959 . S
C383 C381 1.561 . S
C384 C381 1.526 . S
C384 C385 1.396 . S
C384 C389 1.390 . S
C385 C379 1.465 . S
C385 C384 1.396 . S
C385 C386 1.399 . S
C386 H372 0.929 . S
C386 C385 1.399 . S
C386 C387 1.385 . S
C387 H373 0.931 . S
C387 C386 1.385 . S
C387 C388 1.389 . S
C388 C387 1.389 . S
C388 C389 1.387 . S
C389 H374 0.930 . S
C389 C384 1.390 . S
C389 C388 1.387 . S
H390 C402 0.930 . S
H391 C404 0.930 . S
H392 C405 0.930 . S
H393 C409 0.959 . S
H394 C409 0.959 . S
H395 C409 0.961 . S
H396 C410 0.960 . S
H397 C410 0.961 . S
H398 C410 0.959 . S
H399 C413 0.929 . S
H400 C414 0.931 . S
H401 C416 0.930 . S
C402 H390 0.930 . S
C402 C403 1.399 . S
C402 C407 1.399 . S
C403 C402 1.399 . S
C403 C404 1.376 . S
C404 H391 0.930 . S
C404 C403 1.376 . S
C404 C405 1.388 . S
C405 H392 0.930 . S
C405 C404 1.388 . S
C405 C406 1.390 . S
C406 C405 1.390 . S
C406 C407 1.394 . S
C406 C412 1.465 . S
C407 C402 1.399 . S
C407 C406 1.394 . S
C407 C408 1.516 . S
C408 C407 1.516 . S
C408 C409 1.502 . S
C408 C410 1.561 . S
C408 C411 1.526 . S
C409 H393 0.959 . S
C409 H394 0.959 . S
C409 H395 0.961 . S
C409 C408 1.502 . S
C410 H396 0.960 . S
C410 H397 0.961 . S
C410 H398 0.959 . S
C410 C408 1.561 . S
C411 C408 1.526 . S
C411 C412 1.396 . S
C411 C416 1.390 . S
C412 C406 1.465 . S
C412 C411 1.396 . S
C412 C413 1.399 . S
C413 H399 0.929 . S
C413 C412 1.399 . S
C413 C414 1.385 . S
C414 H400 0.931 . S
C414 C413 1.385 . S
C414 C415 1.389 . S
C415 C414 1.389 . S
C415 C416 1.387 . S
C416 H401 0.930 . S
C416 C411 1.390 . S
C416 C415 1.387 . S
H417 C429 0.930 . S
H418 C431 0.930 . S
H419 C432 0.930 . S
H420 C436 0.959 . S
H421 C436 0.959 . S
H422 C436 0.961 . S
H423 C437 0.960 . S
H424 C437 0.961 . S
H425 C437 0.959 . S
H426 C440 0.929 . S
H427 C441 0.931 . S
H428 C443 0.930 . S
C429 H417 0.930 . S
C429 C430 1.399 . S
C429 C434 1.399 . S
C430 C429 1.399 . S
C430 C431 1.376 . S
C431 H418 0.930 . S
C431 C430 1.376 . S
C431 C432 1.388 . S
C432 H419 0.930 . S
C432 C431 1.388 . S
C432 C433 1.390 . S
C433 C432 1.390 . S
C433 C434 1.394 . S
C433 C439 1.465 . S
C434 C429 1.399 . S
C434 C433 1.394 . S
C434 C435 1.516 . S
C435 C434 1.516 . S
C435 C436 1.502 . S
C435 C437 1.561 . S
C435 C438 1.526 . S
C436 H420 0.959 . S
C436 H421 0.959 . S
C436 H422 0.961 . S
C436 C435 1.502 . S
C437 H423 0.960 . S
C437 H424 0.961 . S
C437 H425 0.959 . S
C437 C435 1.561 . S
C438 C435 1.526 . S
C438 C439 1.396 . S
C438 C443 1.390 . S
C439 C433 1.465 . S
C439 C438 1.396 . S
C439 C440 1.399 . S
C440 H426 0.929 . S
C440 C439 1.399 . S
C440 C441 1.385 . S
C441 H427 0.931 . S
C441 C440 1.385 . S
C441 C442 1.389 . S
C442 C441 1.389 . S
C442 C443 1.387 . S
C443 H428 0.930 . S
C443 C438 1.390 . S
C443 C442 1.387 . S
H444 C456 0.930 . S
H445 C458 0.930 . S
H446 C459 0.930 . S
H447 C463 0.959 . S
H448 C463 0.959 . S
H449 C463 0.961 . S
H450 C464 0.960 . S
H451 C464 0.961 . S
H452 C464 0.959 . S
H453 C467 0.929 . S
H454 C468 0.931 . S
H455 C470 0.930 . S
C456 H444 0.930 . S
C456 C457 1.399 . S
C456 C461 1.399 . S
C457 C456 1.399 . S
C457 C458 1.376 . S
C458 H445 0.930 . S
C458 C457 1.376 . S
C458 C459 1.388 . S
C459 H446 0.930 . S
C459 C458 1.388 . S
C459 C460 1.390 . S
C460 C459 1.390 . S
C460 C461 1.394 . S
C460 C466 1.465 . S
C461 C456 1.399 . S
C461 C460 1.394 . S
C461 C462 1.516 . S
C462 C461 1.516 . S
C462 C463 1.502 . S
C462 C464 1.561 . S
C462 C465 1.526 . S
C463 H447 0.959 . S
C463 H448 0.959 . S
C463 H449 0.961 . S
C463 C462 1.502 . S
C464 H450 0.960 . S
C464 H451 0.961 . S
C464 H452 0.959 . S
C464 C462 1.561 . S
C465 C462 1.526 . S
C465 C466 1.396 . S
C465 C470 1.390 . S
C466 C460 1.465 . S
C466 C465 1.396 . S
C466 C467 1.399 . S
C467 H453 0.929 . S
C467 C466 1.399 . S
C467 C468 1.385 . S
C468 H454 0.931 . S
C468 C467 1.385 . S
C468 C469 1.389 . S
C469 C468 1.389 . S
C469 C470 1.387 . S
C470 H455 0.930 . S
C470 C465 1.390 . S
C470 C469 1.387 . S
H471 C483 0.930 . S
H472 C485 0.930 . S
H473 C486 0.930 . S
H474 C490 0.959 . S
H475 C490 0.959 . S
H476 C490 0.961 . S
H477 C491 0.960 . S
H478 C491 0.961 . S
H479 C491 0.959 . S
H480 C494 0.929 . S
H481 C495 0.931 . S
H482 C497 0.930 . S
C483 H471 0.930 . S
C483 C484 1.399 . S
C483 C488 1.399 . S
C484 C483 1.399 . S
C484 C485 1.376 . S
C485 H472 0.930 . S
C485 C484 1.376 . S
C485 C486 1.388 . S
C486 H473 0.930 . S
C486 C485 1.388 . S
C486 C487 1.390 . S
C487 C486 1.390 . S
C487 C488 1.394 . S
C487 C493 1.465 . S
C488 C483 1.399 . S
C488 C487 1.394 . S
C488 C489 1.516 . S
C489 C488 1.516 . S
C489 C490 1.502 . S
C489 C491 1.561 . S
C489 C492 1.526 . S
C490 H474 0.959 . S
C490 H475 0.959 . S
C490 H476 0.961 . S
C490 C489 1.502 . S
C491 H477 0.960 . S
C491 H478 0.961 . S
C491 H479 0.959 . S
C491 C489 1.561 . S
C492 C489 1.526 . S
C492 C493 1.396 . S
C492 C497 1.390 . S
C493 C487 1.465 . S
C493 C492 1.396 . S
C493 C494 1.399 . S
C494 H480 0.929 . S
C494 C493 1.399 . S
C494 C495 1.385 . S
C495 H481 0.931 . S
C495 C494 1.385 . S
C495 C496 1.389 . S
C496 C495 1.389 . S
C496 C497 1.387 . S
C497 H482 0.930 . S
C497 C492 1.390 . S
C497 C496 1.387 . S
H498 C510 0.930 . S
H499 C512 0.930 . S
H500 C513 0.930 . S
H501 C517 0.959 . S
H502 C517 0.959 1_556 S
H503 C517 0.961 . S
H504 C518 0.960 . S
H505 C518 0.961 1_556 S
H506 C518 0.959 . S
H507 C521 0.929 . S
H508 C522 0.931 . S
H509 C524 0.930 . S
C510 H498 0.930 . S
C510 C511 1.399 . S
C510 C515 1.399 . S
C511 C510 1.399 . S
C511 C512 1.376 . S
C512 H499 0.930 . S
C512 C511 1.376 . S
C512 C513 1.388 . S
C513 H500 0.930 . S
C513 C512 1.388 . S
C513 C514 1.390 . S
C514 C513 1.390 . S
C514 C515 1.394 . S
C514 C520 1.465 . S
C515 C510 1.399 . S
C515 C514 1.394 . S
C515 C516 1.516 . S
C516 C515 1.516 . S
C516 C517 1.502 . S
C516 C518 1.561 1_455 S
C516 C519 1.526 1_554 S
C517 H501 0.959 . S
C517 H502 0.959 1_554 S
C517 H503 0.961 . S
C517 C516 1.502 . S
C518 H504 0.960 . S
C518 H505 0.961 1_554 S
C518 H506 0.959 . S
C518 C516 1.561 1_655 S
C519 C516 1.526 1_556 S
C519 C520 1.396 1_556 S
C519 C524 1.390 . S
C520 C514 1.465 . S
C520 C519 1.396 1_554 S
C520 C521 1.399 1_554 S
C521 H507 0.929 . S
C521 C520 1.399 1_556 S
C521 C522 1.385 . S
C522 H508 0.931 . S
C522 C521 1.385 . S
C522 C523 1.389 . S
C523 C522 1.389 . S
C523 C524 1.387 . S
C524 H509 0.930 . S
C524 C519 1.390 . S
C524 C523 1.387 . S
H525 C537 0.930 . S
H526 C539 0.930 . S
H527 C540 0.930 . S
H528 C544 0.959 . S
H529 C544 0.959 . S
H530 C544 0.961 . S
H531 C545 0.960 . S
H532 C545 0.961 . S
H533 C545 0.959 . S
H534 C548 0.929 . S
H535 C549 0.931 . S
H536 C551 0.930 . S
C537 H525 0.930 . S
C537 C538 1.399 . S
C537 C542 1.399 . S
C538 C537 1.399 . S
C538 C539 1.376 1_545 S
C539 H526 0.930 . S
C539 C538 1.376 1_565 S
C539 C540 1.388 . S
C540 H527 0.930 . S
C540 C539 1.388 . S
C540 C541 1.390 . S
C541 C540 1.390 . S
C541 C542 1.394 1_565 S
C541 C547 1.465 . S
C542 C537 1.399 . S
C542 C541 1.394 1_545 S
C542 C543 1.516 . S
C543 C542 1.516 . S
C543 C544 1.502 . S
C543 C545 1.561 . S
C543 C546 1.526 . S
C544 H528 0.959 . S
C544 H529 0.959 . S
C544 H530 0.961 . S
C544 C543 1.502 . S
C545 H531 0.960 . S
C545 H532 0.961 . S
C545 H533 0.959 . S
C545 C543 1.561 . S
C546 C543 1.526 . S
C546 C547 1.396 1_545 S
C546 C551 1.390 . S
C547 C541 1.465 . S
C547 C546 1.396 1_565 S
C547 C548 1.399 . S
C548 H534 0.929 . S
C548 C547 1.399 . S
C548 C549 1.385 . S
C549 H535 0.931 . S
C549 C548 1.385 . S
C549 C550 1.389 1_565 S
C550 C549 1.389 1_545 S
C550 C551 1.387 . S
C551 H536 0.930 . S
C551 C546 1.390 . S
C551 C550 1.387 . S
H552 C564 0.930 . S
H553 C566 0.930 . S
H554 C567 0.930 . S
H555 C571 0.959 . S
H556 C571 0.959 . S
H557 C571 0.961 . S
H558 C572 0.960 . S
H559 C572 0.961 . S
H560 C572 0.959 . S
H561 C575 0.929 . S
H562 C576 0.931 . S
H563 C578 0.930 . S
C564 H552 0.930 . S
C564 C565 1.399 . S
C564 C569 1.399 . S
C565 C564 1.399 . S
C565 C566 1.376 . S
C566 H553 0.930 . S
C566 C565 1.376 . S
C566 C567 1.388 . S
C567 H554 0.930 . S
C567 C566 1.388 . S
C567 C568 1.390 . S
C568 C567 1.390 . S
C568 C569 1.394 . S
C568 C574 1.465 . S
C569 C564 1.399 . S
C569 C568 1.394 . S
C569 C570 1.516 . S
C570 C569 1.516 . S
C570 C571 1.502 . S
C570 C572 1.561 . S
C570 C573 1.526 . S
C571 H555 0.959 . S
C571 H556 0.959 . S
C571 H557 0.961 . S
C571 C570 1.502 . S
C572 H558 0.960 . S
C572 H559 0.961 . S
C572 H560 0.959 . S
C572 C570 1.561 . S
C573 C570 1.526 . S
C573 C574 1.396 . S
C573 C578 1.390 . S
C574 C568 1.465 . S
C574 C573 1.396 . S
C574 C575 1.399 . S
C575 H561 0.929 . S
C575 C574 1.399 . S
C575 C576 1.385 . S
C576 H562 0.931 . S
C576 C575 1.385 . S
C576 C577 1.389 . S
C577 C576 1.389 . S
C577 C578 1.387 . S
C578 H563 0.930 . S
C578 C573 1.390 . S
C578 C577 1.387 . S
H579 C591 0.930 . S
H580 C593 0.930 . S
H581 C594 0.930 . S
H582 C598 0.959 . S
H583 C598 0.959 . S
H584 C598 0.961 . S
H585 C599 0.960 . S
H586 C599 0.961 . S
H587 C599 0.959 . S
H588 C602 0.929 . S
H589 C603 0.931 . S
H590 C605 0.930 . S
C591 H579 0.930 . S
C591 C592 1.399 1_565 S
C591 C596 1.399 . S
C592 C591 1.399 1_545 S
C592 C593 1.376 . S
C593 H580 0.930 . S
C593 C592 1.376 . S
C593 C594 1.388 . S
C594 H581 0.930 . S
C594 C593 1.388 . S
C594 C595 1.390 . S
C595 C594 1.390 . S
C595 C596 1.394 1_545 S
C595 C601 1.465 . S
C596 C591 1.399 . S
C596 C595 1.394 1_565 S
C596 C597 1.516 . S
C597 C596 1.516 . S
C597 C598 1.502 . S
C597 C599 1.561 . S
C597 C600 1.526 . S
C598 H582 0.959 . S
C598 H583 0.959 . S
C598 H584 0.961 . S
C598 C597 1.502 . S
C599 H585 0.960 . S
C599 H586 0.961 . S
C599 H587 0.959 . S
C599 C597 1.561 . S
C600 C597 1.526 . S
C600 C601 1.396 1_565 S
C600 C605 1.390 . S
C601 C595 1.465 . S
C601 C600 1.396 1_545 S
C601 C602 1.399 . S
C602 H588 0.929 . S
C602 C601 1.399 . S
C602 C603 1.385 . S
C603 H589 0.931 . S
C603 C602 1.385 . S
C603 C604 1.389 . S
C604 C603 1.389 . S
C604 C605 1.387 1_545 S
C605 H590 0.930 . S
C605 C600 1.390 . S
C605 C604 1.387 1_565 S
H606 C618 0.930 . S
H607 C620 0.930 . S
H608 C621 0.930 . S
H609 C625 0.959 . S
H610 C625 0.959 . S
H611 C625 0.961 . S
H612 C626 0.960 . S
H613 C626 0.961 . S
H614 C626 0.959 . S
H615 C629 0.929 . S
H616 C630 0.931 . S
H617 C632 0.930 . S
C618 H606 0.930 . S
C618 C619 1.399 . S
C618 C623 1.399 . S
C619 C618 1.399 . S
C619 C620 1.376 . S
C620 H607 0.930 . S
C620 C619 1.376 . S
C620 C621 1.388 . S
C621 H608 0.930 . S
C621 C620 1.388 . S
C621 C622 1.390 . S
C622 C621 1.390 . S
C622 C623 1.394 . S
C622 C628 1.465 . S
C623 C618 1.399 . S
C623 C622 1.394 . S
C623 C624 1.516 . S
C624 C623 1.516 . S
C624 C625 1.502 . S
C624 C626 1.561 . S
C624 C627 1.526 . S
C625 H609 0.959 . S
C625 H610 0.959 . S
C625 H611 0.961 . S
C625 C624 1.502 . S
C626 H612 0.960 . S
C626 H613 0.961 . S
C626 H614 0.959 . S
C626 C624 1.561 . S
C627 C624 1.526 . S
C627 C628 1.396 . S
C627 C632 1.390 1_556 S
C628 C622 1.465 . S
C628 C627 1.396 . S
C628 C629 1.399 . S
C629 H615 0.929 . S
C629 C628 1.399 . S
C629 C630 1.385 1_556 S
C630 H616 0.931 . S
C630 C629 1.385 1_554 S
C630 C631 1.389 . S
C631 C630 1.389 . S
C631 C632 1.387 . S
C632 H617 0.930 . S
C632 C627 1.390 1_554 S
C632 C631 1.387 . S
H633 C645 0.930 . S
H634 C647 0.930 . S
H635 C648 0.930 . S
H636 C652 0.959 . S
H637 C652 0.959 . S
H638 C652 0.961 . S
H639 C653 0.960 . S
H640 C653 0.961 . S
H641 C653 0.950 1_655 S
H642 C656 0.929 . S
H643 C657 0.931 . S
H644 C659 0.930 . S
C645 H633 0.930 . S
C645 C646 1.399 . S
C645 C650 1.399 . S
C646 C645 1.399 . S
C646 C647 1.376 1_455 S
C647 H634 0.930 . S
C647 C646 1.376 1_655 S
C647 C648 1.388 . S
C648 H635 0.930 . S
C648 C647 1.388 . S
C648 C649 1.390 . S
C649 C648 1.390 . S
C649 C650 1.394 1_655 S
C649 C655 1.465 . S
C650 C645 1.399 . S
C650 C649 1.394 1_455 S
C650 C651 1.516 . S
C651 C650 1.516 . S
C651 C652 1.502 . S
C651 C653 1.561 . S
C651 C654 1.526 . S
C652 H636 0.959 . S
C652 H637 0.959 . S
C652 H638 0.961 . S
C652 C651 1.502 . S
C653 H639 0.960 . S
C653 H640 0.961 . S
C653 H641 0.950 1_455 S
C653 C651 1.561 . S
C654 C651 1.526 . S
C654 C655 1.396 1_455 S
C654 C659 1.390 . S
C655 C649 1.465 . S
C655 C654 1.396 1_655 S
C655 C656 1.399 . S
C656 H642 0.929 . S
C656 C655 1.399 . S
C656 C657 1.385 . S
C657 H643 0.931 . S
C657 C656 1.385 . S
C657 C658 1.389 . S
C658 C657 1.389 . S
C658 C659 1.387 1_655 S
C659 H644 0.930 . S
C659 C654 1.390 . S
C659 C658 1.387 1_455 S
C187 C7 0.827 . S
C199 C169 0.713 . S
C214 C51 1.823 . S
C226 C151 1.812 . S
C241 C87 1.295 . S
C253 C163 1.361 . S
C268 C16 0.734 . S
C280 C172 0.531 . S
C307 C154 1.808 . S
C295 C42 1.814 . S
C334 C160 1.394 . S
C322 C96 1.380 . S
C349 C47 1.263 . S
C361 C133 1.317 . S
C376 C91 2.988 . S
C388 C142 2.967 1_655 S
C403 C2 1.847 . S
C415 C124 1.867 . S
C442 C136 1.383 . S
C430 C56 1.347 . S
C469 C145 2.895 . S
C457 C82 2.893 . S
C484 C11 1.795 . S
C496 C127 1.776 . S
C523 C143 1.784 . S
C511 C19 1.694 . S
C538 C50 1.282 . S
C550 C125 1.359 . S
C565 C99 1.421 . S
C577 C134 1.497 . S
C604 C161 1.471 1_545 S
C592 C59 1.448 . S
C631 C170 1.063 . S
C619 C90 1.056 . S
C646 C10 1.318 . S
C658 C152 1.350 1_655 S
