# Generated by pormake.
# Topology anh, (6,3)-cn, num edge types: 1
# Building blocks:
#     Node 0, Type 0, BuildingBlock: PAMTUU_clean_sbu_0, # of connection points: 6
#     Node 1, Type 0, BuildingBlock: PAMTUU_clean_sbu_0, # of connection points: 6
#     Node 2, Type 0, BuildingBlock: PAMTUU_clean_sbu_0, # of connection points: 6
#     Node 3, Type 1, BuildingBlock: BETDIP_clean_linker_0, # of connection points: 3
#     Node 4, Type 1, BuildingBlock: BETDIP_clean_linker_0, # of connection points: 3
#     Node 5, Type 1, BuildingBlock: BETDIP_clean_linker_0, # of connection points: 3
#     Node 6, Type 1, BuildingBlock: BETDIP_clean_linker_0, # of connection points: 3
#     Node 7, Type 1, BuildingBlock: BETDIP_clean_linker_0, # of connection points: 3
#     Node 8, Type 1, BuildingBlock: BETDIP_clean_linker_0, # of connection points: 3
#     Edge 9, Type (0, 1), BuildingBlock: KIFKEQ_clean_linker_1, # of connection points: 2
#     Edge 10, Type (0, 1), BuildingBlock: KIFKEQ_clean_linker_1, # of connection points: 2
#     Edge 11, Type (0, 1), BuildingBlock: KIFKEQ_clean_linker_1, # of connection points: 2
#     Edge 12, Type (0, 1), BuildingBlock: KIFKEQ_clean_linker_1, # of connection points: 2
#     Edge 13, Type (0, 1), BuildingBlock: KIFKEQ_clean_linker_1, # of connection points: 2
#     Edge 14, Type (0, 1), BuildingBlock: KIFKEQ_clean_linker_1, # of connection points: 2
#     Edge 15, Type (0, 1), BuildingBlock: KIFKEQ_clean_linker_1, # of connection points: 2
#     Edge 16, Type (0, 1), BuildingBlock: KIFKEQ_clean_linker_1, # of connection points: 2
#     Edge 17, Type (0, 1), BuildingBlock: KIFKEQ_clean_linker_1, # of connection points: 2
#     Edge 18, Type (0, 1), BuildingBlock: KIFKEQ_clean_linker_1, # of connection points: 2
#     Edge 19, Type (0, 1), BuildingBlock: KIFKEQ_clean_linker_1, # of connection points: 2
#     Edge 20, Type (0, 1), BuildingBlock: KIFKEQ_clean_linker_1, # of connection points: 2
#     Edge 21, Type (0, 1), BuildingBlock: KIFKEQ_clean_linker_1, # of connection points: 2
#     Edge 22, Type (0, 1), BuildingBlock: KIFKEQ_clean_linker_1, # of connection points: 2
#     Edge 23, Type (0, 1), BuildingBlock: KIFKEQ_clean_linker_1, # of connection points: 2
#     Edge 24, Type (0, 1), BuildingBlock: KIFKEQ_clean_linker_1, # of connection points: 2
#     Edge 25, Type (0, 1), BuildingBlock: KIFKEQ_clean_linker_1, # of connection points: 2
#     Edge 26, Type (0, 1), BuildingBlock: KIFKEQ_clean_linker_1, # of connection points: 2
# Relax obj value: 0.244
# Max RMSD: 0.171
# Mean RMSD: 0.117
data_MOF--net-anh--node1-PAMTUU_clean_sbu_0--node2-BETDIP_clean_linker_0--edge1-KIFKEQ_clean_linker_1
_symmetry_space_group_name_H-M    P1
_symmetry_Int_Tables_number       1
_symmetry_cell_setting            triclinic
loop_
_symmetry_equiv_pos_as_xyz
'x, y, z'
_cell_length_a     30.524748
_cell_length_b     30.560558
_cell_length_c     50.866123
_cell_angle_alpha  93.335349
_cell_angle_beta   91.705235
_cell_angle_gamma 120.21812
loop_
_atom_site_label
_atom_site_type_symbol
_atom_site_fract_x
_atom_site_fract_y
_atom_site_fract_z
_atom_type_partial_charge
Tb0 Tb 0.14565 0.7243 0.15115 0.0
Tb1 Tb 0.20239 0.66263 0.16601 0.0
C2 C 0.18867 0.68095 0.1079 0.0
C3 C 1.03491 0.73078 0.13308 0.0
C4 C 0.93339 0.65717 0.11682 0.0
C5 C 0.96345 0.69511 0.10027 0.0
C6 C 1.01387 0.73157 0.10833 0.0
C7 C 1.00375 0.69498 0.15026 0.0
C8 C 0.95373 0.65863 0.14221 0.0
C9 C 1.09045 0.76031 0.13909 0.0
O10 O 1.08449 0.64888 0.16071 0.0
O11 O 1.12489 0.60462 0.15173 0.0
O12 O 0.16137 0.66661 0.19942 0.0
O13 O 0.17015 0.74307 0.19266 0.0
O14 O 0.20806 0.59743 0.16048 0.0
O15 O 0.25168 0.65464 0.19251 0.0
O16 O 0.26379 0.74262 0.16978 0.0
O17 O 0.22609 0.78333 0.15047 0.0
O18 O 0.14947 0.68438 0.11513 0.0
O19 O 0.22065 0.68056 0.12557 0.0
C20 C 1.08298 0.60523 0.15616 0.0
O21 O 1.10608 0.76083 0.16327 0.0
O22 O 1.11709 0.75178 0.12217 0.0
C23 C 0.16083 0.70737 0.20828 0.0
C24 C 0.28438 0.60405 0.17517 0.0
C25 C 0.3567 0.57923 0.15845 0.0
C26 C 0.31536 0.54514 0.17217 0.0
C27 C 0.27969 0.55759 0.18051 0.0
C28 C 0.32658 0.63941 0.16262 0.0
C29 C 0.3628 0.62721 0.15448 0.0
C30 C 0.24172 0.6116 0.18026 0.0
C31 C 0.26656 0.78367 0.16081 0.0
H32 H 0.94864 0.6955 0.08073 0.0
H33 H 1.0372 0.7586 0.09471 0.0
H34 H 1.01874 0.69281 0.1694 0.0
H35 H 0.93218 0.6297 0.15538 0.0
H36 H 0.30873 0.50755 0.17518 0.0
H37 H 0.24697 0.52977 0.19 0.0
H38 H 0.33051 0.67548 0.15828 0.0
H39 H 0.39459 0.65465 0.14433 0.0
Tb40 Tb 0.61805 0.11084 0.48392 0.0
Tb41 Tb 0.73988 0.17276 0.49648 0.0
C42 C 0.69092 0.15157 0.43918 0.0
C43 C 0.47778 1.01928 0.48283 0.0
C44 C 0.38734 0.93274 0.49491 0.0
C45 C 0.39213 0.98104 0.49724 0.0
C46 C 0.43683 1.02377 0.4912 0.0
C47 C 0.4742 0.97153 0.48148 0.0
C48 C 0.42914 0.92848 0.48738 0.0
C49 C 0.52299 1.06518 0.47538 0.0
O50 O 0.6398 1.05127 0.48004 0.0
O51 O 0.72281 0.09477 0.49804 0.0
O52 O 0.7038 0.16385 0.53419 0.0
O53 O 0.62991 0.09046 0.52183 0.0
O54 O 0.81337 0.21062 0.48296 0.0
O55 O 0.80252 0.20928 0.52449 0.0
O56 O 0.72089 0.23094 0.48851 0.0
O57 O 0.63841 0.18869 0.49917 0.0
O58 O 0.6511 0.1493 0.44929 0.0
O59 O 0.72483 0.14834 0.45414 0.0
C60 C 0.68173 1.05211 0.48884 0.0
O61 O 0.54794 0.1004 0.49456 0.0
O62 O 0.55315 1.05951 0.4596 0.0
C63 C 0.66304 0.12233 0.54023 0.0
C64 C 0.85939 0.28835 0.50844 0.0
C65 C 0.88144 0.38764 0.50073 0.0
C66 C 0.90153 0.36402 0.48464 0.0
C67 C 0.8909 0.31488 0.48859 0.0
C68 C 0.84366 0.31408 0.52618 0.0
C69 C 0.85484 0.36346 0.52241 0.0
C70 C 0.83362 0.23228 0.5064 0.0
C71 C 0.67991 0.23153 0.49498 0.0
H72 H 0.36044 0.98561 0.50247 0.0
H73 H 0.43898 1.06034 0.49246 0.0
H74 H 0.50568 0.96731 0.47539 0.0
H75 H 0.42658 0.89176 0.4855 0.0
H76 H 0.92274 0.38232 0.46797 0.0
H77 H 0.90351 0.296 0.47468 0.0
H78 H 0.81917 0.29478 0.54168 0.0
H79 H 0.83885 0.38089 0.53503 0.0
Tb80 Tb 0.72636 0.59559 0.81783 0.0
Tb81 Tb 0.78533 0.71785 0.82833 0.0
C82 C 0.75507 0.66356 0.77117 0.0
C83 C 0.69387 0.46114 0.81818 0.0
C84 C 0.7116 0.38207 0.82955 0.0
C85 C 0.69993 0.38772 0.80346 0.0
C86 C 0.69103 0.42673 0.79787 0.0
C87 C 0.70709 0.45674 0.84425 0.0
C88 C 0.71556 0.41723 0.84991 0.0
C89 C 0.68178 0.50031 0.81161 0.0
O90 O 0.80695 0.61799 0.81448 0.0
O91 O 0.848 0.70211 0.83112 0.0
O92 O 0.75273 0.68193 0.86444 0.0
O93 O 0.76596 0.61658 0.85612 0.0
O94 O 0.80749 0.78993 0.81585 0.0
O95 O 0.82539 0.78152 0.85586 0.0
O96 O 0.70588 0.6961 0.81953 0.0
O97 O 0.66702 0.61322 0.82938 0.0
O98 O 0.71869 0.624 0.78121 0.0
O99 O 0.7912 0.70182 0.78642 0.0
C100 C 0.84902 0.66075 0.82301 0.0
O101 O 0.67508 0.52529 0.83128 0.0
O102 O 0.70846 0.52988 0.79374 0.0
C103 C 0.7594 0.64595 0.87302 0.0
C104 C 0.79315 0.83577 0.84899 0.0
C105 C 0.72469 0.87196 0.8519 0.0
C106 C 0.77548 0.90431 0.84591 0.0
C107 C 0.80923 0.88604 0.84407 0.0
C108 C 0.74465 0.80542 0.85795 0.0
C109 C 0.7107 0.82318 0.85931 0.0
C110 C 0.82153 0.81142 0.83985 0.0
C111 C 0.66495 0.65452 0.82536 0.0
H112 H 0.69542 0.36058 0.7874 0.0
H113 H 0.68082 0.42938 0.77768 0.0
H114 H 0.70999 0.48315 0.86031 0.0
H115 H 0.72439 0.41366 0.87017 0.0
H116 H 0.78837 0.94275 0.84102 0.0
H117 H 0.84661 0.91007 0.8372 0.0
H118 H 0.73145 0.76637 0.86185 0.0
H119 H 0.67224 0.79679 0.86396 0.0
H120 H 0.63454 0.15056 0.16604 0.0
H121 H 0.73369 0.22957 0.23598 0.0
H122 H 0.59822 1.08636 0.24128 0.0
H123 H 0.79186 0.24012 0.20202 0.0
C124 C 0.7783 0.26009 0.19027 0.0
C125 C 0.64333 0.15269 0.18702 0.0
C126 C 0.61053 0.1119 0.20203 0.0
C127 C 0.68898 0.19514 0.19907 0.0
C128 C 0.69974 0.19715 0.22639 0.0
C129 C 0.66754 0.1579 0.24155 0.0
C130 C 0.62345 0.11591 0.22925 0.0
N131 N 0.72436 0.2355 0.18411 0.0
H132 H 0.68586 0.60294 0.49494 0.0
H133 H 0.70938 0.69632 0.56711 0.0
H134 H 0.71236 0.55807 0.56994 0.0
H135 H 0.75381 0.75837 0.53763 0.0
C136 C 0.72157 0.74568 0.52342 0.0
C137 C 0.69296 0.60992 0.51617 0.0
C138 C 0.69907 0.57472 0.53089 0.0
C139 C 0.69816 0.65528 0.52903 0.0
C140 C 0.70734 0.66332 0.55672 0.0
C141 C 0.71198 0.62833 0.57146 0.0
C142 C 0.70814 0.58469 0.55844 0.0
N143 N 0.69374 0.69241 0.51457 0.0
H144 H 0.21651 0.65711 0.83335 0.0
H145 H 0.29339 0.66533 0.90789 0.0
H146 H 0.15511 0.66968 0.90674 0.0
H147 H 0.36343 0.71608 0.88136 0.0
C148 C 0.35261 0.68573 0.86586 0.0
C149 C 0.21853 0.65977 0.85472 0.0
C150 C 0.18065 0.66433 0.86838 0.0
C151 C 0.2605 0.66123 0.86888 0.0
C152 C 0.26239 0.66495 0.89677 0.0
C153 C 0.2248 0.66848 0.91049 0.0
C154 C 0.18451 0.66788 0.89611 0.0
N155 N 0.30044 0.65897 0.85534 0.0
H156 H 0.99082 0.73939 0.45674 0.0
H157 H 0.95403 0.71745 0.3729 0.0
H158 H 1.09259 0.72892 0.40376 0.0
H159 H 0.86437 0.71265 0.44781 0.0
C160 C 0.88802 0.69882 0.43961 0.0
C161 C 0.99996 0.73395 0.43684 0.0
C162 C 1.04504 0.73374 0.43274 0.0
C163 C 0.96681 0.72749 0.41522 0.0
C164 C 0.9798 0.72246 0.38944 0.0
C165 C 1.02453 0.72134 0.38511 0.0
C166 C 1.05676 0.72712 0.40692 0.0
N167 N 0.91966 0.72484 0.41916 0.0
H168 H 0.51006 0.99945 0.79491 0.0
H169 H 0.48531 0.962 0.71104 0.0
H170 H 0.62473 0.09251 0.74406 0.0
H171 H 0.39567 0.88511 0.78578 0.0
C172 C 0.43331 0.90224 0.77843 0.0
C173 C 0.52381 1.00659 0.77533 0.0
C174 C 0.57179 1.04853 0.77215 0.0
C175 C 0.49288 0.97481 0.75332 0.0
C176 C 0.50966 0.98627 0.72793 0.0
C177 C 0.55784 1.02824 0.72439 0.0
C178 C 0.58874 1.05867 0.74667 0.0
N179 N 0.44413 0.9321 0.75645 0.0
H180 H 0.50574 0.35543 0.07538 0.0
H181 H 0.61571 0.38972 0.01746 0.0
H182 H 0.55489 0.48813 0.0329 0.0
H183 H 0.61455 0.29406 0.05445 0.0
C184 C 0.6123 0.32821 0.05802 0.0
C185 C 0.52789 0.37908 0.06025 0.0
C186 C 0.52668 0.42318 0.05556 0.0
C187 C 0.55995 0.367 0.04653 0.0
C188 C 0.5902 0.39874 0.02762 0.0
C189 C 0.58889 0.44285 0.02259 0.0
C190 C 0.55637 0.45424 0.03646 0.0
N191 N 0.56451 0.32506 0.05346 0.0
H192 H 0.39043 0.5186 0.17794 0.0
H193 H 0.39629 0.60009 0.11017 0.0
H194 H 0.4294 0.47759 0.15376 0.0
H195 H 0.43901 0.56244 0.0869 0.0
H196 H 0.45341 0.44284 0.03929 0.0
H197 H 0.41528 0.48236 0.06576 0.0
H198 H 0.50287 0.48596 0.1352 0.0
H199 H 0.53883 0.44405 0.10867 0.0
C200 C 0.40073 0.5284 0.15804 0.0
C201 C 0.38939 0.56206 0.14589 0.0
C202 C 0.42362 0.50526 0.14426 0.0
C203 C 0.43643 0.5159 0.11816 0.0
C204 C 0.42824 0.55217 0.10669 0.0
C205 C 0.40466 0.57467 0.1203 0.0
C206 C 0.46356 0.45132 0.06031 0.0
C207 C 0.49853 0.44027 0.0721 0.0
C208 C 0.44243 0.4746 0.07543 0.0
C209 C 0.45671 0.48825 0.10256 0.0
C210 C 0.49068 0.47566 0.11444 0.0
C211 C 0.51119 0.45158 0.09933 0.0
H212 H 0.90948 0.47657 0.5306 0.0
H213 H 0.85067 0.39997 0.45286 0.0
H214 H 0.90795 0.55103 0.51634 0.0
H215 H 0.84675 0.47259 0.43889 0.0
H216 H 0.90212 0.62769 0.41174 0.0
H217 H 0.90147 0.55457 0.42782 0.0
H218 H 0.85623 0.58528 0.50325 0.0
H219 H 0.86117 0.66183 0.4875 0.0
C220 C 0.89619 0.47579 0.5105 0.0
C221 C 0.88154 0.43331 0.49259 0.0
C222 C 0.89477 0.51809 0.50238 0.0
C223 C 0.87787 0.51819 0.47632 0.0
C224 C 0.86156 0.47468 0.45882 0.0
C225 C 0.86381 0.433 0.46678 0.0
C226 C 0.89341 0.61983 0.43199 0.0
C227 C 0.88382 0.65173 0.44876 0.0
C228 C 0.89185 0.57701 0.44108 0.0
C229 C 0.87891 0.56388 0.46692 0.0
C230 C 0.86733 0.59478 0.48342 0.0
C231 C 0.8697 0.6383 0.47437 0.0
H232 H 0.63544 0.84282 0.87659 0.0
H233 H 0.72184 0.93024 0.81364 0.0
H234 H 0.56266 0.84797 0.86003 0.0
H235 H 0.6512 0.9392 0.79893 0.0
H236 H 0.50228 0.88532 0.7545 0.0
H237 H 0.5729 0.88163 0.77529 0.0
H238 H 0.52415 0.89879 0.85225 0.0
H239 H 0.45197 0.9008 0.831 0.0
C240 C 0.63948 0.86392 0.85958 0.0
C241 C 0.68466 0.88519 0.84624 0.0
C242 C 0.59779 0.86735 0.85028 0.0
C243 C 0.60067 0.8929 0.82774 0.0
C244 C 0.64712 0.91782 0.81585 0.0
C245 C 0.6883 0.91359 0.82476 0.0
C246 C 0.50663 0.8881 0.77585 0.0
C247 C 0.47254 0.89429 0.79125 0.0
C248 C 0.5473 0.88645 0.78781 0.0
C249 C 0.55509 0.89139 0.81548 0.0
C250 C 0.51937 0.89508 0.83091 0.0
C251 C 0.47812 0.89617 0.81882 0.0
H252 H 0.84783 0.60771 0.14407 0.0
H253 H 0.9055 0.60604 0.06766 0.0
H254 H 0.77102 0.5277 0.1305 0.0
H255 H 0.82694 0.52783 0.05338 0.0
H256 H 0.70933 0.35869 0.04683 0.0
H257 H 0.78592 0.44002 0.06057 0.0
H258 H 0.69518 0.48779 0.10387 0.0
H259 H 0.62014 0.40552 0.09185 0.0
C260 C 0.84382 0.59066 0.12423 0.0
C261 C 0.88313 0.61318 0.10706 0.0
C262 C 0.79944 0.54494 0.11632 0.0
C263 C 0.79286 0.52094 0.09089 0.0
C264 C 0.83116 0.54468 0.0733 0.0
C265 C 0.87586 0.59013 0.08133 0.0
C266 C 0.70615 0.38664 0.05945 0.0
C267 C 0.65874 0.37656 0.06755 0.0
C268 C 0.74977 0.43342 0.06705 0.0
C269 C 0.74667 0.47095 0.08296 0.0
C270 C 0.69918 0.45995 0.09166 0.0
C271 C 0.65588 0.41303 0.08436 0.0
H272 H 0.34155 0.84581 0.4621 0.0
H273 H 0.31816 0.91714 0.5318 0.0
H274 H 0.25187 0.78303 0.45756 0.0
H275 H 0.22761 0.85363 0.52736 0.0
H276 H 1.08535 0.81462 0.46941 0.0
H277 H 0.16629 0.84945 0.49477 0.0
H278 H 0.17305 0.71514 0.4705 0.0
H279 H 1.0923 0.68102 0.44453 0.0
C280 C 0.3176 0.84683 0.47713 0.0
C281 C 0.33673 0.88709 0.49696 0.0
C282 C 0.2659 0.8106 0.47457 0.0
C283 C 0.23223 0.81381 0.49183 0.0
C284 C 0.25237 0.85077 0.51342 0.0
C285 C 0.30417 0.88712 0.51595 0.0
C286 C 1.1031 0.79166 0.47042 0.0
C287 C 1.08333 0.74575 0.45464 0.0
C288 C 0.14958 0.81152 0.48502 0.0
C289 C 0.17684 0.78559 0.48414 0.0
C290 C 0.1536 0.73658 0.47105 0.0
C291 C 1.10733 0.71694 0.45629 0.0
H292 H 0.76044 0.34072 0.80326 0.0
H293 H 0.66602 0.3189 0.86842 0.0
H294 H 0.73777 0.25249 0.80171 0.0
H295 H 0.64517 0.23067 0.86793 0.0
H296 H 0.53645 0.08912 0.80875 0.0
H297 H 0.58621 0.1682 0.83574 0.0
H298 H 0.72446 0.17352 0.8136 0.0
H299 H 0.6738 0.09421 0.78576 0.0
C300 C 0.73642 0.31742 0.81798 0.0
C301 C 0.71341 0.33601 0.83524 0.0
C302 C 0.7238 0.26674 0.81736 0.0
C303 C 0.68809 0.23378 0.83415 0.0
C304 C 0.67153 0.25466 0.85419 0.0
C305 C 0.68384 0.30539 0.85463 0.0
C306 C 0.57737 0.10599 0.81047 0.0
C307 C 0.60134 1.08636 0.79461 0.0
C308 C 0.60619 0.15151 0.82615 0.0
C309 C 0.65961 0.17821 0.82632 0.0
C310 C 0.68342 0.15471 0.81331 0.0
C311 C 0.65449 0.10933 0.79739 0.0
H312 H 0.60233 0.95101 0.48637 0.0
H313 H 0.7659 1.04255 0.49323 0.0
H314 H 0.60832 0.87473 0.49244 0.0
H315 H 0.77191 0.96747 0.49845 0.0
H316 H 0.77326 0.84405 0.54131 0.0
H317 H 0.76043 0.91331 0.5313 0.0
H318 H 0.63261 0.81138 0.47718 0.0
H319 H 0.64519 0.74038 0.48802 0.0
C320 C 0.63956 0.95496 0.48878 0.0
C321 C 0.68358 1.00361 0.48961 0.0
C322 C 0.64304 0.911 0.49223 0.0
C323 C 0.69066 0.91431 0.49654 0.0
C324 C 0.73438 0.96278 0.49607 0.0
C325 C 0.73091 1.00631 0.49286 0.0
C326 C 0.74238 0.83602 0.52713 0.0
C327 C 0.71068 0.78631 0.51538 0.0
C328 C 0.73516 0.87626 0.52118 0.0
C329 C 0.69594 0.86904 0.50296 0.0
C330 C 0.66331 0.81893 0.49132 0.0
C331 C 0.67065 0.77809 0.4974 0.0
H332 H 0.86693 0.58014 0.82039 0.0
H333 H 0.94583 0.74378 0.83072 0.0
H334 H 0.94759 0.58224 0.82753 0.0
H335 H 1.02637 0.74626 0.83669 0.0
H336 H 0.15459 0.73636 0.87893 0.0
H337 H 1.07688 0.73498 0.8661 0.0
H338 H 1.02784 0.59783 0.81537 0.0
H339 H 1.10601 0.59847 0.82947 0.0
C340 C 0.90151 0.61673 0.82378 0.0
C341 C 0.89916 0.66178 0.82512 0.0
C342 C 0.94825 0.618 0.82779 0.0
C343 C 0.99464 0.66443 0.83309 0.0
C344 C 0.99212 0.70944 0.83346 0.0
C345 C 0.94548 0.70811 0.82977 0.0
C346 C 1.12769 0.7062 0.86468 0.0
C347 C 0.1372 0.66762 0.85529 0.0
C348 C 1.08264 0.70547 0.85711 0.0
C349 C 1.04476 0.66622 0.83954 0.0
C350 C 1.05514 0.62849 0.82922 0.0
C351 C 1.10061 0.62921 0.83694 0.0
H352 H 0.28841 0.88335 0.15969 0.0
H353 H 0.36135 0.79465 0.16684 0.0
H354 H 0.37122 0.96155 0.16637 0.0
H355 H 0.44384 0.87188 0.17203 0.0
H356 H 0.57949 1.01383 0.21188 0.0
H357 H 0.4985 0.93774 0.20068 0.0
H358 H 0.45131 1.02209 0.15372 0.0
H359 H 0.53272 0.10004 0.16661 0.0
C360 C 0.32213 0.88038 0.16233 0.0
C361 C 0.3176 0.83219 0.16301 0.0
C362 C 0.37008 0.92556 0.16603 0.0
C363 C 0.41541 0.92423 0.1702 0.0
C364 C 0.41057 0.87566 0.16982 0.0
C365 C 0.36277 0.83077 0.16658 0.0
C366 C 0.55205 1.01651 0.19909 0.0
C367 C 0.56311 1.06388 0.19052 0.0
C368 C 0.50514 0.97212 0.1923 0.0
C369 C 0.46698 0.97249 0.17613 0.0
C370 C 0.47874 1.01961 0.16655 0.0
C371 C 0.52602 1.06452 0.17361 0.0
H372 H 0.75911 0.32631 0.48643 0.0
H373 H 0.60459 0.25233 0.50924 0.0
H374 H 0.76352 0.40812 0.491 0.0
H375 H 0.60919 0.33477 0.51428 0.0
H376 H 0.61824 0.48775 0.50509 0.0
H377 H 0.61256 0.40545 0.4945 0.0
H378 H 0.77033 0.47168 0.52159 0.0
H379 H 0.77552 0.55314 0.53173 0.0
C380 C 0.72592 0.3273 0.49254 0.0
C381 C 0.68151 0.28196 0.49758 0.0
C382 C 0.72855 0.37475 0.49529 0.0
C383 C 0.68684 0.37912 0.50316 0.0
C384 C 0.64211 0.33363 0.50786 0.0
C385 C 0.63951 0.286 0.50515 0.0
C386 C 0.65199 0.48494 0.50803 0.0
C387 C 0.69757 0.52757 0.51886 0.0
C388 C 0.64862 0.43736 0.50239 0.0
C389 C 0.6908 0.43083 0.50731 0.0
C390 C 0.73688 0.47434 0.51715 0.0
C391 C 0.74004 0.52153 0.52294 0.0
H392 H 0.64862 0.73424 0.81938 0.0
H393 H 0.5698 0.57809 0.83828 0.0
H394 H 0.57301 0.73965 0.82662 0.0
H395 H 0.49322 0.58337 0.84533 0.0
H396 H 0.34951 0.6027 0.83686 0.0
H397 H 0.4224 0.59283 0.82555 0.0
H398 H 0.52519 0.7432 0.86245 0.0
H399 H 0.45327 0.75255 0.87365 0.0
C400 C 0.61518 0.7008 0.82507 0.0
C401 C 0.61627 0.65583 0.82844 0.0
C402 C 0.57138 0.70397 0.8293 0.0
C403 C 0.52628 0.66208 0.8368 0.0
C404 C 0.52671 0.61649 0.83942 0.0
C405 C 0.57097 0.61351 0.83547 0.0
C406 C 0.3877 0.63378 0.84223 0.0
C407 C 0.39518 0.67864 0.85605 0.0
C408 C 0.4297 0.62801 0.83598 0.0
C409 C 0.48043 0.66724 0.84294 0.0
C410 C 0.48733 0.71221 0.85631 0.0
C411 C 0.44571 0.71756 0.86285 0.0
H412 H 0.98778 0.5869 0.16986 0.0
H413 H 1.06677 0.509 0.14563 0.0
H414 H 0.91156 0.50467 0.1755 0.0
H415 H 0.99133 0.42781 0.15083 0.0
H416 H 0.87912 0.2994 0.19649 0.0
H417 H 0.94813 0.3814 0.18661 0.0
H418 H 0.83997 0.42025 0.15573 0.0
H419 H 0.76965 0.33664 0.16612 0.0
C420 C 0.9889 0.55241 0.16542 0.0
C421 C 1.03417 0.55523 0.1575 0.0
C422 C 0.94492 0.50502 0.16858 0.0
C423 C 0.9449 0.45894 0.16406 0.0
C424 C 0.98965 0.46203 0.15517 0.0
C425 C 1.03325 0.50903 0.15201 0.0
C426 C 0.86968 0.32504 0.18736 0.0
C427 C 0.8185 0.31076 0.18194 0.0
C428 C 0.90963 0.37241 0.18152 0.0
C429 C 0.90039 0.40806 0.17001 0.0
C430 C 0.84897 0.39413 0.16463 0.0
C431 C 0.8085 0.34596 0.17038 0.0
H432 H 0.26384 0.6716 0.08388 0.0
H433 H 1.13031 0.68244 0.06664 0.0
H434 H 0.27707 0.66995 0.03661 0.0
H435 H 0.14317 0.6802 0.01985 0.0
H436 H 0.20856 0.73338 0.9422 0.0
H437 H 0.2026 0.73607 -0.01022 0.0
H438 H 0.23986 0.61763 -0.00637 0.0
H439 H 0.24584 0.61495 0.94563 0.0
C440 C 0.23716 0.67333 0.07008 0.0
C441 C 0.19613 0.67739 0.07919 0.0
C442 C 0.24466 0.67221 0.04296 0.0
C443 C 0.21152 0.67551 0.02439 0.0
C444 C 0.17008 0.67862 0.03357 0.0
C445 C 0.16249 0.67954 0.0605 0.0
C446 C 0.2155 0.70785 0.95314 0.0
C447 C 0.22693 0.6734 0.93998 0.0
C448 C 0.21199 0.70932 0.98047 0.0
C449 C 0.21985 0.67644 -0.00444 0.0
C450 C 0.23365 0.64356 0.98264 0.0
C451 C 0.23714 0.64204 0.95514 0.0
H452 H 0.6496 0.19264 0.40828 0.0
H453 H 0.74372 0.1244 0.40524 0.0
H454 H 0.6512 0.19755 0.36078 0.0
H455 H 0.74504 0.12909 0.35712 0.0
H456 H 0.66469 1.0835 0.27028 0.0
H457 H 0.6782 1.08615 0.31816 0.0
H458 H 0.71107 0.24137 0.32598 0.0
H459 H 0.69718 0.2386 0.27817 0.0
C460 C 0.671 0.17896 0.39746 0.0
C461 C 0.69636 0.15788 0.41054 0.0
C462 C 0.67218 0.18214 0.37021 0.0
C463 C 0.69825 0.16375 0.35516 0.0
C464 C 0.72443 0.14336 0.36821 0.0
C465 C 0.72394 0.14094 0.39572 0.0
C466 C 0.67505 0.11826 0.28224 0.0
C467 C 0.67946 0.16072 0.27045 0.0
C468 C 0.6833 0.11993 0.30962 0.0
C469 C 0.69558 0.16391 0.32587 0.0
C470 C 0.70134 0.20681 0.314 0.0
C471 C 0.69365 0.20533 0.28661 0.0
H472 H 0.72532 0.58134 0.73699 0.0
H473 H 0.78436 0.74292 0.73958 0.0
H474 H 0.71826 0.57535 0.68923 0.0
H475 H 0.77444 0.73683 0.69122 0.0
H476 H 0.78568 0.71208 0.6017 0.0
H477 H 0.8002 0.72333 0.64985 0.0
H478 H 0.66756 0.5751 0.65497 0.0
H479 H 0.65535 0.56329 0.6071 0.0
C480 C 0.73649 0.61568 0.72723 0.0
C481 C 0.75499 0.66253 0.74202 0.0
C482 C 0.73195 0.61222 0.69972 0.0
C483 C 0.74451 0.65533 0.68605 0.0
C484 C 0.76452 0.70272 0.7009 0.0
C485 C 0.77014 0.70634 0.72863 0.0
C486 C 0.75983 0.68206 0.61329 0.0
C487 C 0.71974 0.63658 0.60072 0.0
C488 C 0.76791 0.68853 0.64091 0.0
C489 C 0.73555 0.64993 0.65659 0.0
C490 C 0.69445 0.60516 0.64378 0.0
C491 C 0.68706 0.59838 0.61627 0.0
H492 H 0.58152 1.03926 0.55669 0.0
H493 H 0.71813 0.1778 0.58651 0.0
H494 H 0.5589 1.01873 0.60119 0.0
H495 H 0.69461 0.15671 0.63186 0.0
H496 H 0.65328 1.06309 0.70703 0.0
H497 H 0.68196 0.08964 0.66332 0.0
H498 H 0.53032 1.05299 0.6376 0.0
H499 H 0.50177 1.0271 0.68119 0.0
C500 C 0.6069 1.0656 0.57275 0.0
C501 C 0.65164 0.11056 0.56793 0.0
C502 C 0.59359 1.05376 0.59835 0.0
C503 C 0.62455 1.08636 0.62 0.0
C504 C 0.67002 0.13086 0.61545 0.0
C505 C 0.6834 0.143 0.58956 0.0
C506 C 0.62615 1.06101 0.69208 0.0
C507 C 0.57507 1.04252 0.69754 0.0
C508 C 0.64268 1.07642 0.66711 0.0
C509 C 0.6084 1.0733 0.64705 0.0
C510 C 0.55749 1.05516 0.65257 0.0
C511 C 0.54102 1.03998 0.6775 0.0
H512 H 0.78749 0.58698 0.89771 0.0
H513 H 0.70486 0.66652 0.90862 0.0
H514 H 0.75293 0.54257 0.93682 0.0
H515 H 0.67009 0.62168 0.94806 0.0
H516 H 0.64088 0.54713 0.02721 0.0
H517 H 0.69027 0.60419 -0.00572 0.0
H518 H 0.66246 0.47494 0.94209 0.0
H519 H 0.61193 0.41777 0.97455 0.0
C520 C 0.76276 0.5958 0.90882 0.0
C521 C 0.74824 0.62967 0.89993 0.0
C522 C 0.74282 0.57014 0.93113 0.0
C523 C 0.7081 0.57794 0.9451 0.0
C524 C 0.69682 0.61499 0.93758 0.0
C525 C 0.71679 0.64073 0.91508 0.0
C526 C 0.64496 0.53082 0.00862 0.0
C527 C 0.62198 0.47776 0.00339 0.0
C528 C 0.67345 0.56358 -0.01013 0.0
C529 C 0.68021 0.544 0.96571 0.0
C530 C 0.65844 0.49113 0.96075 0.0
C531 C 0.62955 0.45836 0.97935 0.0
H532 H 0.16298 0.78864 0.23531 0.0
H533 H 1.11423 0.63001 0.24008 0.0
H534 H 1.127 0.78999 0.27733 0.0
H535 H 1.07661 0.63074 0.28138 0.0
H536 H 1.0651 0.66378 0.36836 0.0
H537 H 1.09877 0.66142 0.32606 0.0
H538 H 1.0483 0.76047 0.29766 0.0
H539 H 1.01719 0.76523 0.34082 0.0
C540 C 0.1446 0.75408 0.24533 0.0
C541 C 0.14184 0.70935 0.23447 0.0
C542 C 1.12345 0.75468 0.26928 0.0
C543 C 1.09867 0.71042 0.28277 0.0
C544 C 1.09608 0.66576 0.27183 0.0
C545 C 1.11765 0.66532 0.24807 0.0
C546 C 1.06134 0.68526 0.35314 0.0
C547 C 1.03901 0.71521 0.35809 0.0
C548 C 1.08015 0.68343 0.32871 0.0
C549 C 1.07656 0.71097 0.3084 0.0
C550 C 1.05253 0.7395 0.31301 0.0
C551 C 1.03399 0.74164 0.33761 0.0
loop_
_geom_bond_atom_site_label_1
_geom_bond_atom_site_label_2
_geom_bond_distance
_geom_bond_site_symmetry_2
_ccdc_geom_bond_type
Tb0 C9 2.764 1_455 S
Tb0 O10 2.325 1_455 S
Tb0 O13 2.303 . S
Tb0 O17 2.322 . S
Tb0 O18 2.349 . S
Tb0 O21 2.415 1_455 S
Tb0 O22 2.399 1_455 S
Tb1 O11 2.322 . S
Tb1 O12 2.349 . S
Tb1 O14 2.415 . S
Tb1 O15 2.399 . S
Tb1 O16 2.325 . S
Tb1 O19 2.303 . S
Tb1 C30 2.764 . S
C2 O18 1.261 . S
C2 O19 1.257 . S
C3 C6 1.358 . S
C3 C7 1.332 . S
C3 C9 1.504 . S
C4 C5 1.373 . S
C4 C8 1.308 . S
C5 C4 1.373 . S
C5 C6 1.429 . S
C5 H32 0.932 . S
C6 C3 1.358 . S
C6 C5 1.429 . S
C6 H33 0.930 . S
C7 C3 1.332 . S
C7 C8 1.394 . S
C7 H34 0.932 . S
C8 C4 1.308 . S
C8 C7 1.394 . S
C8 H35 0.929 . S
C9 Tb0 2.764 1_655 S
C9 C3 1.504 . S
C9 O21 1.239 . S
C9 O22 1.263 . S
O10 Tb0 2.325 1_655 S
O10 C20 1.236 . S
O11 Tb1 2.322 . S
O11 C20 1.257 1_455 S
O12 Tb1 2.349 . S
O12 C23 1.261 . S
O13 Tb0 2.303 . S
O13 C23 1.257 . S
O14 Tb1 2.415 . S
O14 C30 1.239 . S
O15 Tb1 2.399 . S
O15 C30 1.263 . S
O16 Tb1 2.325 . S
O16 C31 1.236 . S
O17 Tb0 2.322 . S
O17 C31 1.257 . S
O18 Tb0 2.349 . S
O18 C2 1.261 . S
O19 Tb1 2.303 . S
O19 C2 1.257 . S
C20 O10 1.236 . S
C20 O11 1.257 1_655 S
O21 Tb0 2.415 1_655 S
O21 C9 1.239 . S
O22 Tb0 2.399 1_655 S
O22 C9 1.263 . S
C23 O12 1.261 . S
C23 O13 1.257 . S
C24 C27 1.358 . S
C24 C28 1.332 . S
C24 C30 1.504 . S
C25 C26 1.373 . S
C25 C29 1.308 . S
C26 C25 1.373 . S
C26 C27 1.429 . S
C26 H36 0.932 . S
C27 C24 1.358 . S
C27 C26 1.429 . S
C27 H37 0.930 . S
C28 C24 1.332 . S
C28 C29 1.394 . S
C28 H38 0.932 . S
C29 C25 1.308 . S
C29 C28 1.394 . S
C29 H39 0.929 . S
C30 Tb1 2.764 . S
C30 O14 1.239 . S
C30 O15 1.263 . S
C30 C24 1.504 . S
C31 O16 1.236 . S
C31 O17 1.257 . S
H32 C5 0.932 . S
H33 C6 0.930 . S
H34 C7 0.932 . S
H35 C8 0.929 . S
H36 C26 0.932 . S
H37 C27 0.930 . S
H38 C28 0.932 . S
H39 C29 0.929 . S
Tb40 C49 2.764 1_545 S
Tb40 O50 2.325 1_545 S
Tb40 O53 2.303 . S
Tb40 O57 2.322 . S
Tb40 O58 2.349 . S
Tb40 O61 2.415 1_545 S
Tb40 O62 2.399 1_545 S
Tb41 O51 2.322 . S
Tb41 O52 2.349 . S
Tb41 O54 2.415 . S
Tb41 O55 2.399 . S
Tb41 O56 2.325 . S
Tb41 O59 2.303 . S
Tb41 C70 2.764 . S
C42 O58 1.261 . S
C42 O59 1.257 . S
C43 C46 1.358 . S
C43 C47 1.332 . S
C43 C49 1.504 . S
C44 C45 1.373 . S
C44 C48 1.308 . S
C45 C44 1.373 . S
C45 C46 1.429 . S
C45 H72 0.932 . S
C46 C43 1.358 . S
C46 C45 1.429 . S
C46 H73 0.930 . S
C47 C43 1.332 . S
C47 C48 1.394 . S
C47 H74 0.932 . S
C48 C44 1.308 . S
C48 C47 1.394 . S
C48 H75 0.929 . S
C49 Tb40 2.764 1_565 S
C49 C43 1.504 . S
C49 O61 1.239 . S
C49 O62 1.263 . S
O50 Tb40 2.325 1_565 S
O50 C60 1.236 . S
O51 Tb41 2.322 . S
O51 C60 1.257 1_545 S
O52 Tb41 2.349 . S
O52 C63 1.261 . S
O53 Tb40 2.303 . S
O53 C63 1.257 . S
O54 Tb41 2.415 . S
O54 C70 1.239 . S
O55 Tb41 2.399 . S
O55 C70 1.263 . S
O56 Tb41 2.325 . S
O56 C71 1.236 . S
O57 Tb40 2.322 . S
O57 C71 1.257 . S
O58 Tb40 2.349 . S
O58 C42 1.261 . S
O59 Tb41 2.303 . S
O59 C42 1.257 . S
C60 O50 1.236 . S
C60 O51 1.257 1_565 S
O61 Tb40 2.415 1_565 S
O61 C49 1.239 . S
O62 Tb40 2.399 1_565 S
O62 C49 1.263 . S
C63 O52 1.261 . S
C63 O53 1.257 . S
C64 C67 1.358 . S
C64 C68 1.332 . S
C64 C70 1.504 . S
C65 C66 1.373 . S
C65 C69 1.308 . S
C66 C65 1.373 . S
C66 C67 1.429 . S
C66 H76 0.932 . S
C67 C64 1.358 . S
C67 C66 1.429 . S
C67 H77 0.930 . S
C68 C64 1.332 . S
C68 C69 1.394 . S
C68 H78 0.932 . S
C69 C65 1.308 . S
C69 C68 1.394 . S
C69 H79 0.929 . S
C70 Tb41 2.764 . S
C70 O54 1.239 . S
C70 O55 1.263 . S
C70 C64 1.504 . S
C71 O56 1.236 . S
C71 O57 1.257 . S
H72 C45 0.932 . S
H73 C46 0.930 . S
H74 C47 0.932 . S
H75 C48 0.929 . S
H76 C66 0.932 . S
H77 C67 0.930 . S
H78 C68 0.932 . S
H79 C69 0.929 . S
Tb80 C89 2.764 . S
Tb80 O90 2.325 . S
Tb80 O93 2.303 . S
Tb80 O97 2.322 . S
Tb80 O98 2.349 . S
Tb80 O101 2.415 . S
Tb80 O102 2.399 . S
Tb81 O91 2.322 . S
Tb81 O92 2.349 . S
Tb81 O94 2.415 . S
Tb81 O95 2.399 . S
Tb81 O96 2.325 . S
Tb81 O99 2.303 . S
Tb81 C110 2.764 . S
C82 O98 1.261 . S
C82 O99 1.257 . S
C83 C86 1.358 . S
C83 C87 1.332 . S
C83 C89 1.504 . S
C84 C85 1.373 . S
C84 C88 1.308 . S
C85 C84 1.373 . S
C85 C86 1.429 . S
C85 H112 0.932 . S
C86 C83 1.358 . S
C86 C85 1.429 . S
C86 H113 0.930 . S
C87 C83 1.332 . S
C87 C88 1.394 . S
C87 H114 0.932 . S
C88 C84 1.308 . S
C88 C87 1.394 . S
C88 H115 0.929 . S
C89 Tb80 2.764 . S
C89 C83 1.504 . S
C89 O101 1.239 . S
C89 O102 1.263 . S
O90 Tb80 2.325 . S
O90 C100 1.236 . S
O91 Tb81 2.322 . S
O91 C100 1.257 . S
O92 Tb81 2.349 . S
O92 C103 1.261 . S
O93 Tb80 2.303 . S
O93 C103 1.257 . S
O94 Tb81 2.415 . S
O94 C110 1.239 . S
O95 Tb81 2.399 . S
O95 C110 1.263 . S
O96 Tb81 2.325 . S
O96 C111 1.236 . S
O97 Tb80 2.322 . S
O97 C111 1.257 . S
O98 Tb80 2.349 . S
O98 C82 1.261 . S
O99 Tb81 2.303 . S
O99 C82 1.257 . S
C100 O90 1.236 . S
C100 O91 1.257 . S
O101 Tb80 2.415 . S
O101 C89 1.239 . S
O102 Tb80 2.399 . S
O102 C89 1.263 . S
C103 O92 1.261 . S
C103 O93 1.257 . S
C104 C107 1.358 . S
C104 C108 1.332 . S
C104 C110 1.504 . S
C105 C106 1.373 . S
C105 C109 1.308 . S
C106 C105 1.373 . S
C106 C107 1.429 . S
C106 H116 0.932 . S
C107 C104 1.358 . S
C107 C106 1.429 . S
C107 H117 0.930 . S
C108 C104 1.332 . S
C108 C109 1.394 . S
C108 H118 0.932 . S
C109 C105 1.308 . S
C109 C108 1.394 . S
C109 H119 0.929 . S
C110 Tb81 2.764 . S
C110 O94 1.239 . S
C110 O95 1.263 . S
C110 C104 1.504 . S
C111 O96 1.236 . S
C111 O97 1.257 . S
H112 C85 0.932 . S
H113 C86 0.930 . S
H114 C87 0.932 . S
H115 C88 0.929 . S
H116 C106 0.932 . S
H117 C107 0.930 . S
H118 C108 0.932 . S
H119 C109 0.929 . S
H120 C125 0.930 . S
H121 C128 0.930 . S
H122 C130 0.930 . S
H123 C124 1.016 . S
C124 H123 1.016 . S
C124 N131 1.286 . S
C125 H120 0.930 . S
C125 C126 1.397 . S
C125 C127 1.361 . S
C126 C125 1.397 . S
C126 C130 1.390 . S
C127 C125 1.361 . S
C127 C128 1.393 . S
C127 N131 1.413 . S
C128 H121 0.930 . S
C128 C127 1.393 . S
C128 C129 1.399 . S
C129 C128 1.399 . S
C129 C130 1.381 . S
C130 H122 0.930 . S
C130 C126 1.390 . S
C130 C129 1.381 . S
N131 C124 1.286 . S
N131 C127 1.413 . S
H132 C137 0.930 . S
H133 C140 0.930 . S
H134 C142 0.930 . S
H135 C136 1.016 . S
C136 H135 1.016 . S
C136 N143 1.286 . S
C137 H132 0.930 . S
C137 C138 1.397 . S
C137 C139 1.361 . S
C138 C137 1.397 . S
C138 C142 1.390 . S
C139 C137 1.361 . S
C139 C140 1.393 . S
C139 N143 1.413 . S
C140 H133 0.930 . S
C140 C139 1.393 . S
C140 C141 1.399 . S
C141 C140 1.399 . S
C141 C142 1.381 . S
C142 H134 0.930 . S
C142 C138 1.390 . S
C142 C141 1.381 . S
N143 C136 1.286 . S
N143 C139 1.413 . S
H144 C149 0.930 . S
H145 C152 0.930 . S
H146 C154 0.930 1_655 S
H147 C148 1.016 . S
C148 H147 1.016 . S
C148 N155 1.286 . S
C149 H144 0.930 . S
C149 C150 1.397 1_455 S
C149 C151 1.361 . S
C150 C149 1.397 1_655 S
C150 C154 1.390 1_655 S
C151 C149 1.361 . S
C151 C152 1.393 . S
C151 N155 1.413 . S
C152 H145 0.930 . S
C152 C151 1.393 . S
C152 C153 1.399 . S
C153 C152 1.399 . S
C153 C154 1.381 . S
C154 H146 0.930 1_455 S
C154 C150 1.390 1_455 S
C154 C153 1.381 . S
N155 C148 1.286 . S
N155 C151 1.413 . S
H156 C161 0.930 . S
H157 C164 0.930 . S
H158 C166 0.930 . S
H159 C160 1.016 . S
C160 H159 1.016 . S
C160 N167 1.286 . S
C161 H156 0.930 . S
C161 C162 1.397 . S
C161 C163 1.361 1_455 S
C162 C161 1.397 . S
C162 C166 1.390 . S
C163 C161 1.361 1_655 S
C163 C164 1.393 . S
C163 N167 1.413 . S
C164 H157 0.930 . S
C164 C163 1.393 . S
C164 C165 1.399 1_655 S
C165 C164 1.399 1_455 S
C165 C166 1.381 . S
C166 H158 0.930 . S
C166 C162 1.390 . S
C166 C165 1.381 . S
N167 C160 1.286 . S
N167 C163 1.413 . S
H168 C173 0.930 . S
H169 C176 0.930 . S
H170 C178 0.930 . S
H171 C172 1.016 . S
C172 H171 1.016 . S
C172 N179 1.286 . S
C173 H168 0.930 . S
C173 C174 1.397 . S
C173 C175 1.361 . S
C174 C173 1.397 . S
C174 C178 1.390 . S
C175 C173 1.361 . S
C175 C176 1.393 1_545 S
C175 N179 1.413 1_545 S
C176 H169 0.930 . S
C176 C175 1.393 1_565 S
C176 C177 1.399 1_565 S
C177 C176 1.399 1_545 S
C177 C178 1.381 . S
C178 H170 0.930 . S
C178 C174 1.390 . S
C178 C177 1.381 . S
N179 C172 1.286 . S
N179 C175 1.413 1_565 S
H180 C185 0.930 . S
H181 C188 0.930 . S
H182 C190 0.930 . S
H183 C184 1.016 . S
C184 H183 1.016 . S
C184 N191 1.286 . S
C185 H180 0.930 . S
C185 C186 1.397 . S
C185 C187 1.361 . S
C186 C185 1.397 . S
C186 C190 1.390 . S
C187 C185 1.361 . S
C187 C188 1.393 . S
C187 N191 1.413 . S
C188 H181 0.930 . S
C188 C187 1.393 . S
C188 C189 1.399 . S
C189 C188 1.399 . S
C189 C190 1.381 . S
C190 H182 0.930 . S
C190 C186 1.390 . S
C190 C189 1.381 . S
N191 C184 1.286 . S
N191 C187 1.413 . S
H192 C200 0.950 . S
H193 C205 0.950 . S
H194 C202 0.950 . S
H195 C204 0.950 . S
H196 C206 0.950 . S
H197 C208 0.950 . S
H198 C210 0.950 . S
H199 C211 0.950 . S
C200 H192 0.950 . S
C200 C201 1.386 . S
C200 C202 1.391 . S
C201 C200 1.386 . S
C201 C205 1.393 . S
C202 H194 0.950 . S
C202 C200 1.391 . S
C202 C203 1.400 . S
C203 C202 1.400 . S
C203 C204 1.398 . S
C203 C209 1.491 . S
C204 H195 0.950 . S
C204 C203 1.398 . S
C204 C205 1.391 . S
C205 H193 0.950 . S
C205 C201 1.393 . S
C205 C204 1.391 . S
C206 H196 0.950 . S
C206 C207 1.386 . S
C206 C208 1.391 . S
C207 C206 1.386 . S
C207 C211 1.393 . S
C208 H197 0.950 . S
C208 C206 1.391 . S
C208 C209 1.400 . S
C209 C203 1.491 . S
C209 C208 1.400 . S
C209 C210 1.398 . S
C210 H198 0.950 . S
C210 C209 1.398 . S
C210 C211 1.391 . S
C211 H199 0.950 . S
C211 C207 1.393 . S
C211 C210 1.391 . S
H212 C220 0.950 . S
H213 C225 0.950 . S
H214 C222 0.950 . S
H215 C224 0.950 . S
H216 C226 0.950 . S
H217 C228 0.950 . S
H218 C230 0.950 . S
H219 C231 0.950 . S
C220 H212 0.950 . S
C220 C221 1.386 . S
C220 C222 1.391 . S
C221 C220 1.386 . S
C221 C225 1.393 . S
C222 H214 0.950 . S
C222 C220 1.391 . S
C222 C223 1.400 . S
C223 C222 1.400 . S
C223 C224 1.398 . S
C223 C229 1.491 . S
C224 H215 0.950 . S
C224 C223 1.398 . S
C224 C225 1.391 . S
C225 H213 0.950 . S
C225 C221 1.393 . S
C225 C224 1.391 . S
C226 H216 0.950 . S
C226 C227 1.386 . S
C226 C228 1.391 . S
C227 C226 1.386 . S
C227 C231 1.393 . S
C228 H217 0.950 . S
C228 C226 1.391 . S
C228 C229 1.400 . S
C229 C223 1.491 . S
C229 C228 1.400 . S
C229 C230 1.398 . S
C230 H218 0.950 . S
C230 C229 1.398 . S
C230 C231 1.391 . S
C231 H219 0.950 . S
C231 C227 1.393 . S
C231 C230 1.391 . S
H232 C240 0.950 . S
H233 C245 0.950 . S
H234 C242 0.950 . S
H235 C244 0.950 . S
H236 C246 0.950 . S
H237 C248 0.950 . S
H238 C250 0.950 . S
H239 C251 0.950 . S
C240 H232 0.950 . S
C240 C241 1.386 . S
C240 C242 1.391 . S
C241 C240 1.386 . S
C241 C245 1.393 . S
C242 H234 0.950 . S
C242 C240 1.391 . S
C242 C243 1.400 . S
C243 C242 1.400 . S
C243 C244 1.398 . S
C243 C249 1.491 . S
C244 H235 0.950 . S
C244 C243 1.398 . S
C244 C245 1.391 . S
C245 H233 0.950 . S
C245 C241 1.393 . S
C245 C244 1.391 . S
C246 H236 0.950 . S
C246 C247 1.386 . S
C246 C248 1.391 . S
C247 C246 1.386 . S
C247 C251 1.393 . S
C248 H237 0.950 . S
C248 C246 1.391 . S
C248 C249 1.400 . S
C249 C243 1.491 . S
C249 C248 1.400 . S
C249 C250 1.398 . S
C250 H238 0.950 . S
C250 C249 1.398 . S
C250 C251 1.391 . S
C251 H239 0.950 . S
C251 C247 1.393 . S
C251 C250 1.391 . S
H252 C260 0.950 . S
H253 C265 0.950 . S
H254 C262 0.950 . S
H255 C264 0.950 . S
H256 C266 0.950 . S
H257 C268 0.950 . S
H258 C270 0.950 . S
H259 C271 0.950 . S
C260 H252 0.950 . S
C260 C261 1.386 . S
C260 C262 1.391 . S
C261 C260 1.386 . S
C261 C265 1.393 . S
C262 H254 0.950 . S
C262 C260 1.391 . S
C262 C263 1.400 . S
C263 C262 1.400 . S
C263 C264 1.398 . S
C263 C269 1.491 . S
C264 H255 0.950 . S
C264 C263 1.398 . S
C264 C265 1.391 . S
C265 H253 0.950 . S
C265 C261 1.393 . S
C265 C264 1.391 . S
C266 H256 0.950 . S
C266 C267 1.386 . S
C266 C268 1.391 . S
C267 C266 1.386 . S
C267 C271 1.393 . S
C268 H257 0.950 . S
C268 C266 1.391 . S
C268 C269 1.400 . S
C269 C263 1.491 . S
C269 C268 1.400 . S
C269 C270 1.398 . S
C270 H258 0.950 . S
C270 C269 1.398 . S
C270 C271 1.391 . S
C271 H259 0.950 . S
C271 C267 1.393 . S
C271 C270 1.391 . S
H272 C280 0.950 . S
H273 C285 0.950 . S
H274 C282 0.950 . S
H275 C284 0.950 . S
H276 C286 0.950 . S
H277 C288 0.950 . S
H278 C290 0.950 . S
H279 C291 0.950 . S
C280 H272 0.950 . S
C280 C281 1.386 . S
C280 C282 1.391 . S
C281 C280 1.386 . S
C281 C285 1.393 . S
C282 H274 0.950 . S
C282 C280 1.391 . S
C282 C283 1.400 . S
C283 C282 1.400 . S
C283 C284 1.398 . S
C283 C289 1.491 . S
C284 H275 0.950 . S
C284 C283 1.398 . S
C284 C285 1.391 . S
C285 H273 0.950 . S
C285 C281 1.393 . S
C285 C284 1.391 . S
C286 H276 0.950 . S
C286 C287 1.386 . S
C286 C288 1.391 . S
C287 C286 1.386 . S
C287 C291 1.393 . S
C288 H277 0.950 . S
C288 C286 1.391 . S
C288 C289 1.400 . S
C289 C283 1.491 . S
C289 C288 1.400 . S
C289 C290 1.398 . S
C290 H278 0.950 . S
C290 C289 1.398 . S
C290 C291 1.391 . S
C291 H279 0.950 . S
C291 C287 1.393 . S
C291 C290 1.391 . S
H292 C300 0.950 . S
H293 C305 0.950 . S
H294 C302 0.950 . S
H295 C304 0.950 . S
H296 C306 0.950 . S
H297 C308 0.950 . S
H298 C310 0.950 . S
H299 C311 0.950 . S
C300 H292 0.950 . S
C300 C301 1.386 . S
C300 C302 1.391 . S
C301 C300 1.386 . S
C301 C305 1.393 . S
C302 H294 0.950 . S
C302 C300 1.391 . S
C302 C303 1.400 . S
C303 C302 1.400 . S
C303 C304 1.398 . S
C303 C309 1.491 . S
C304 H295 0.950 . S
C304 C303 1.398 . S
C304 C305 1.391 . S
C305 H293 0.950 . S
C305 C301 1.393 . S
C305 C304 1.391 . S
C306 H296 0.950 . S
C306 C307 1.386 . S
C306 C308 1.391 . S
C307 C306 1.386 . S
C307 C311 1.393 . S
C308 H297 0.950 . S
C308 C306 1.391 . S
C308 C309 1.400 . S
C309 C303 1.491 . S
C309 C308 1.400 . S
C309 C310 1.398 . S
C310 H298 0.950 . S
C310 C309 1.398 . S
C310 C311 1.391 . S
C311 H299 0.950 . S
C311 C307 1.393 . S
C311 C310 1.391 . S
H312 C320 0.950 . S
H313 C325 0.950 . S
H314 C322 0.950 . S
H315 C324 0.950 . S
H316 C326 0.950 . S
H317 C328 0.950 . S
H318 C330 0.950 . S
H319 C331 0.950 . S
C320 H312 0.950 . S
C320 C321 1.386 . S
C320 C322 1.391 . S
C321 C320 1.386 . S
C321 C325 1.393 . S
C322 H314 0.950 . S
C322 C320 1.391 . S
C322 C323 1.400 . S
C323 C322 1.400 . S
C323 C324 1.398 . S
C323 C329 1.491 . S
C324 H315 0.950 . S
C324 C323 1.398 . S
C324 C325 1.391 . S
C325 H313 0.950 . S
C325 C321 1.393 . S
C325 C324 1.391 . S
C326 H316 0.950 . S
C326 C327 1.386 . S
C326 C328 1.391 . S
C327 C326 1.386 . S
C327 C331 1.393 . S
C328 H317 0.950 . S
C328 C326 1.391 . S
C328 C329 1.400 . S
C329 C323 1.491 . S
C329 C328 1.400 . S
C329 C330 1.398 . S
C330 H318 0.950 . S
C330 C329 1.398 . S
C330 C331 1.391 . S
C331 H319 0.950 . S
C331 C327 1.393 . S
C331 C330 1.391 . S
H332 C340 0.950 . S
H333 C345 0.950 . S
H334 C342 0.950 . S
H335 C344 0.950 . S
H336 C346 0.950 . S
H337 C348 0.950 . S
H338 C350 0.950 . S
H339 C351 0.950 . S
C340 H332 0.950 . S
C340 C341 1.386 . S
C340 C342 1.391 . S
C341 C340 1.386 . S
C341 C345 1.393 . S
C342 H334 0.950 . S
C342 C340 1.391 . S
C342 C343 1.400 . S
C343 C342 1.400 . S
C343 C344 1.398 . S
C343 C349 1.491 . S
C344 H335 0.950 . S
C344 C343 1.398 . S
C344 C345 1.391 . S
C345 H333 0.950 . S
C345 C341 1.393 . S
C345 C344 1.391 . S
C346 H336 0.950 . S
C346 C347 1.386 . S
C346 C348 1.391 . S
C347 C346 1.386 . S
C347 C351 1.393 . S
C348 H337 0.950 . S
C348 C346 1.391 . S
C348 C349 1.400 . S
C349 C343 1.491 . S
C349 C348 1.400 . S
C349 C350 1.398 . S
C350 H338 0.950 . S
C350 C349 1.398 . S
C350 C351 1.391 . S
C351 H339 0.950 . S
C351 C347 1.393 . S
C351 C350 1.391 . S
H352 C360 0.950 . S
H353 C365 0.950 . S
H354 C362 0.950 . S
H355 C364 0.950 . S
H356 C366 0.950 . S
H357 C368 0.950 . S
H358 C370 0.950 . S
H359 C371 0.950 . S
C360 H352 0.950 . S
C360 C361 1.386 . S
C360 C362 1.391 . S
C361 C360 1.386 . S
C361 C365 1.393 . S
C362 H354 0.950 . S
C362 C360 1.391 . S
C362 C363 1.400 . S
C363 C362 1.400 . S
C363 C364 1.398 . S
C363 C369 1.491 . S
C364 H355 0.950 . S
C364 C363 1.398 . S
C364 C365 1.391 . S
C365 H353 0.950 . S
C365 C361 1.393 . S
C365 C364 1.391 . S
C366 H356 0.950 . S
C366 C367 1.386 . S
C366 C368 1.391 . S
C367 C366 1.386 . S
C367 C371 1.393 . S
C368 H357 0.950 . S
C368 C366 1.391 . S
C368 C369 1.400 . S
C369 C363 1.491 . S
C369 C368 1.400 . S
C369 C370 1.398 . S
C370 H358 0.950 . S
C370 C369 1.398 . S
C370 C371 1.391 . S
C371 H359 0.950 . S
C371 C367 1.393 . S
C371 C370 1.391 . S
H372 C380 0.950 . S
H373 C385 0.950 . S
H374 C382 0.950 . S
H375 C384 0.950 . S
H376 C386 0.950 . S
H377 C388 0.950 . S
H378 C390 0.950 . S
H379 C391 0.950 . S
C380 H372 0.950 . S
C380 C381 1.386 . S
C380 C382 1.391 . S
C381 C380 1.386 . S
C381 C385 1.393 . S
C382 H374 0.950 . S
C382 C380 1.391 . S
C382 C383 1.400 . S
C383 C382 1.400 . S
C383 C384 1.398 . S
C383 C389 1.491 . S
C384 H375 0.950 . S
C384 C383 1.398 . S
C384 C385 1.391 . S
C385 H373 0.950 . S
C385 C381 1.393 . S
C385 C384 1.391 . S
C386 H376 0.950 . S
C386 C387 1.386 . S
C386 C388 1.391 . S
C387 C386 1.386 . S
C387 C391 1.393 . S
C388 H377 0.950 . S
C388 C386 1.391 . S
C388 C389 1.400 . S
C389 C383 1.491 . S
C389 C388 1.400 . S
C389 C390 1.398 . S
C390 H378 0.950 . S
C390 C389 1.398 . S
C390 C391 1.391 . S
C391 H379 0.950 . S
C391 C387 1.393 . S
C391 C390 1.391 . S
H392 C400 0.950 . S
H393 C405 0.950 . S
H394 C402 0.950 . S
H395 C404 0.950 . S
H396 C406 0.950 . S
H397 C408 0.950 . S
H398 C410 0.950 . S
H399 C411 0.950 . S
C400 H392 0.950 . S
C400 C401 1.386 . S
C400 C402 1.391 . S
C401 C400 1.386 . S
C401 C405 1.393 . S
C402 H394 0.950 . S
C402 C400 1.391 . S
C402 C403 1.400 . S
C403 C402 1.400 . S
C403 C404 1.398 . S
C403 C409 1.491 . S
C404 H395 0.950 . S
C404 C403 1.398 . S
C404 C405 1.391 . S
C405 H393 0.950 . S
C405 C401 1.393 . S
C405 C404 1.391 . S
C406 H396 0.950 . S
C406 C407 1.386 . S
C406 C408 1.391 . S
C407 C406 1.386 . S
C407 C411 1.393 . S
C408 H397 0.950 . S
C408 C406 1.391 . S
C408 C409 1.400 . S
C409 C403 1.491 . S
C409 C408 1.400 . S
C409 C410 1.398 . S
C410 H398 0.950 . S
C410 C409 1.398 . S
C410 C411 1.391 . S
C411 H399 0.950 . S
C411 C407 1.393 . S
C411 C410 1.391 . S
H412 C420 0.950 . S
H413 C425 0.950 . S
H414 C422 0.950 . S
H415 C424 0.950 . S
H416 C426 0.950 . S
H417 C428 0.950 . S
H418 C430 0.950 . S
H419 C431 0.950 . S
C420 H412 0.950 . S
C420 C421 1.386 . S
C420 C422 1.391 . S
C421 C420 1.386 . S
C421 C425 1.393 . S
C422 H414 0.950 . S
C422 C420 1.391 . S
C422 C423 1.400 . S
C423 C422 1.400 . S
C423 C424 1.398 . S
C423 C429 1.491 . S
C424 H415 0.950 . S
C424 C423 1.398 . S
C424 C425 1.391 . S
C425 H413 0.950 . S
C425 C421 1.393 . S
C425 C424 1.391 . S
C426 H416 0.950 . S
C426 C427 1.386 . S
C426 C428 1.391 . S
C427 C426 1.386 . S
C427 C431 1.393 . S
C428 H417 0.950 . S
C428 C426 1.391 . S
C428 C429 1.400 . S
C429 C423 1.491 . S
C429 C428 1.400 . S
C429 C430 1.398 . S
C430 H418 0.950 . S
C430 C429 1.398 . S
C430 C431 1.391 . S
C431 H419 0.950 . S
C431 C427 1.393 . S
C431 C430 1.391 . S
H432 C440 0.950 . S
H433 C445 0.950 . S
H434 C442 0.950 . S
H435 C444 0.950 . S
H436 C446 0.950 . S
H437 C448 0.958 . S
H438 C450 0.950 . S
H439 C451 0.950 . S
C440 H432 0.950 . S
C440 C441 1.386 . S
C440 C442 1.391 . S
C441 C440 1.386 . S
C441 C445 1.393 . S
C442 H434 0.950 . S
C442 C440 1.391 . S
C442 C443 1.400 . S
C443 C442 1.400 . S
C443 C444 1.398 . S
C443 C449 1.452 1_554 S
C444 H435 0.950 . S
C444 C443 1.398 . S
C444 C445 1.391 . S
C445 H433 0.950 . S
C445 C441 1.393 . S
C445 C444 1.391 . S
C446 H436 0.950 . S
C446 C447 1.386 . S
C446 C448 1.391 . S
C447 C446 1.386 . S
C447 C451 1.393 . S
C448 H437 0.958 . S
C448 C446 1.391 . S
C448 C449 1.421 . S
C449 C443 1.452 1_556 S
C449 C448 1.421 . S
C449 C450 1.418 . S
C450 H438 0.950 . S
C450 C449 1.418 . S
C450 C451 1.391 . S
C451 H439 0.950 . S
C451 C447 1.393 . S
C451 C450 1.391 . S
H452 C460 0.950 . S
H453 C465 0.950 . S
H454 C462 0.950 . S
H455 C464 0.950 . S
H456 C466 0.950 . S
H457 C468 0.950 . S
H458 C470 0.950 . S
H459 C471 0.950 . S
C460 H452 0.950 . S
C460 C461 1.386 . S
C460 C462 1.391 . S
C461 C460 1.386 . S
C461 C465 1.393 . S
C462 H454 0.950 . S
C462 C460 1.391 . S
C462 C463 1.400 . S
C463 C462 1.400 . S
C463 C464 1.398 . S
C463 C469 1.491 . S
C464 H455 0.950 . S
C464 C463 1.398 . S
C464 C465 1.391 . S
C465 H453 0.950 . S
C465 C461 1.393 . S
C465 C464 1.391 . S
C466 H456 0.950 . S
C466 C467 1.386 . S
C466 C468 1.391 . S
C467 C466 1.386 . S
C467 C471 1.393 . S
C468 H457 0.950 . S
C468 C466 1.391 . S
C468 C469 1.400 . S
C469 C463 1.491 . S
C469 C468 1.400 . S
C469 C470 1.398 . S
C470 H458 0.950 . S
C470 C469 1.398 . S
C470 C471 1.391 . S
C471 H459 0.950 . S
C471 C467 1.393 . S
C471 C470 1.391 . S
H472 C480 0.950 . S
H473 C485 0.950 . S
H474 C482 0.950 . S
H475 C484 0.950 . S
H476 C486 0.950 . S
H477 C488 0.950 . S
H478 C490 0.950 . S
H479 C491 0.950 . S
C480 H472 0.950 . S
C480 C481 1.386 . S
C480 C482 1.391 . S
C481 C480 1.386 . S
C481 C485 1.393 . S
C482 H474 0.950 . S
C482 C480 1.391 . S
C482 C483 1.400 . S
C483 C482 1.400 . S
C483 C484 1.398 . S
C483 C489 1.491 . S
C484 H475 0.950 . S
C484 C483 1.398 . S
C484 C485 1.391 . S
C485 H473 0.950 . S
C485 C481 1.393 . S
C485 C484 1.391 . S
C486 H476 0.950 . S
C486 C487 1.386 . S
C486 C488 1.391 . S
C487 C486 1.386 . S
C487 C491 1.393 . S
C488 H477 0.950 . S
C488 C486 1.391 . S
C488 C489 1.400 . S
C489 C483 1.491 . S
C489 C488 1.400 . S
C489 C490 1.398 . S
C490 H478 0.950 . S
C490 C489 1.398 . S
C490 C491 1.391 . S
C491 H479 0.950 . S
C491 C487 1.393 . S
C491 C490 1.391 . S
H492 C500 0.950 1_565 S
H493 C505 0.950 . S
H494 C502 0.950 1_565 S
H495 C504 0.950 . S
H496 C506 0.950 . S
H497 C508 0.950 . S
H498 C510 0.950 . S
H499 C511 0.950 . S
C500 H492 0.950 1_545 S
C500 C501 1.386 . S
C500 C502 1.391 . S
C501 C500 1.386 . S
C501 C505 1.393 . S
C502 H494 0.950 1_545 S
C502 C500 1.391 . S
C502 C503 1.400 . S
C503 C502 1.400 . S
C503 C504 1.398 . S
C503 C509 1.491 . S
C504 H495 0.950 . S
C504 C503 1.398 . S
C504 C505 1.391 . S
C505 H493 0.950 . S
C505 C501 1.393 . S
C505 C504 1.391 . S
C506 H496 0.950 . S
C506 C507 1.386 . S
C506 C508 1.391 . S
C507 C506 1.386 . S
C507 C511 1.393 1_545 S
C508 H497 0.950 . S
C508 C506 1.391 . S
C508 C509 1.400 . S
C509 C503 1.491 . S
C509 C508 1.400 . S
C509 C510 1.398 1_545 S
C510 H498 0.950 . S
C510 C509 1.398 1_565 S
C510 C511 1.391 . S
C511 H499 0.950 . S
C511 C507 1.393 1_565 S
C511 C510 1.391 . S
H512 C520 0.950 . S
H513 C525 0.950 . S
H514 C522 0.950 . S
H515 C524 0.950 . S
H516 C526 0.950 . S
H517 C528 0.941 1_556 S
H518 C530 0.950 1_556 S
H519 C531 0.950 . S
C520 H512 0.950 . S
C520 C521 1.386 . S
C520 C522 1.391 . S
C521 C520 1.386 . S
C521 C525 1.393 . S
C522 H514 0.950 . S
C522 C520 1.391 . S
C522 C523 1.400 . S
C523 C522 1.400 . S
C523 C524 1.398 . S
C523 C529 1.491 . S
C524 H515 0.950 . S
C524 C523 1.398 . S
C524 C525 1.391 . S
C525 H513 0.950 . S
C525 C521 1.393 . S
C525 C524 1.391 . S
C526 H516 0.950 . S
C526 C527 1.386 . S
C526 C528 1.391 . S
C527 C526 1.386 . S
C527 C531 1.393 . S
C528 H517 0.941 1_554 S
C528 C526 1.391 . S
C528 C529 1.400 1_554 S
C529 C523 1.491 . S
C529 C528 1.400 1_556 S
C529 C530 1.398 1_556 S
C530 H518 0.950 1_554 S
C530 C529 1.398 1_554 S
C530 C531 1.391 . S
C531 H519 0.950 . S
C531 C527 1.393 . S
C531 C530 1.391 . S
H532 C540 0.950 . S
H533 C545 0.950 . S
H534 C542 0.950 . S
H535 C544 0.950 1_655 S
H536 C546 0.950 . S
H537 C548 0.950 1_655 S
H538 C550 0.950 . S
H539 C551 0.950 . S
C540 H532 0.950 . S
C540 C541 1.386 . S
C540 C542 1.391 . S
C541 C540 1.386 . S
C541 C545 1.393 . S
C542 H534 0.950 . S
C542 C540 1.391 . S
C542 C543 1.400 . S
C543 C542 1.400 . S
C543 C544 1.398 . S
C543 C549 1.491 . S
C544 H535 0.950 1_455 S
C544 C543 1.398 . S
C544 C545 1.391 . S
C545 H533 0.950 . S
C545 C541 1.393 . S
C545 C544 1.391 . S
C546 H536 0.950 . S
C546 C547 1.386 1_655 S
C546 C548 1.391 1_655 S
C547 C546 1.386 1_455 S
C547 C551 1.393 . S
C548 H537 0.950 1_455 S
C548 C546 1.391 1_455 S
C548 C549 1.400 . S
C549 C543 1.491 . S
C549 C548 1.400 . S
C549 C550 1.398 . S
C550 H538 0.950 . S
C550 C549 1.398 . S
C550 C551 1.391 . S
C551 H539 0.950 . S
C551 C547 1.393 . S
C551 C550 1.391 . S
C201 C25 0.596 . S
C207 C186 0.577 . S
C221 C65 0.380 . S
C227 C160 0.243 . S
C241 C105 0.417 . S
C247 C172 0.245 . S
C261 C4 0.354 . S
C267 C184 0.324 . S
C287 C162 0.144 . S
C281 C44 0.296 . S
C307 C174 0.171 . S
C301 C84 0.261 . S
C321 C60 3.028 . S
C327 C136 2.943 . S
C341 C100 3.345 . S
C347 C150 3.309 . S
C361 C31 2.987 . S
C367 C126 2.947 1_565 S
C387 C138 2.943 . S
C381 C71 2.990 . S
C407 C148 2.611 . S
C401 C111 2.716 . S
C421 C20 3.031 . S
C427 C124 2.947 . S
C447 C153 1.799 . S
C441 C2 1.706 . S
C461 C42 1.758 . S
C467 C129 1.763 . S
C481 C82 1.723 . S
C487 C141 1.736 . S
C507 C177 1.194 . S
C501 C63 1.156 . S
C527 C189 1.227 . S
C521 C103 1.197 . S
C541 C23 1.169 . S
C547 C165 1.165 . S
