# Generated by pormake.
# Topology zzz, (3,6)-cn, num edge types: 1
# Building blocks:
#     Node 0, Type 0, BuildingBlock: QEWDON_clean_linker_0, # of connection points: 3
#     Node 1, Type 0, BuildingBlock: QEWDON_clean_linker_0, # of connection points: 3
#     Node 2, Type 0, BuildingBlock: QEWDON_clean_linker_0, # of connection points: 3
#     Node 3, Type 0, BuildingBlock: QEWDON_clean_linker_0, # of connection points: 3
#     Node 4, Type 0, BuildingBlock: QEWDON_clean_linker_0, # of connection points: 3
#     Node 5, Type 0, BuildingBlock: QEWDON_clean_linker_0, # of connection points: 3
#     Node 6, Type 0, BuildingBlock: QEWDON_clean_linker_0, # of connection points: 3
#     Node 7, Type 0, BuildingBlock: QEWDON_clean_linker_0, # of connection points: 3
#     Node 8, Type 1, BuildingBlock: BETDEL_clean_sbu_0, # of connection points: 6
#     Node 9, Type 1, BuildingBlock: BETDEL_clean_sbu_0, # of connection points: 6
#     Node 10, Type 1, BuildingBlock: BETDEL_clean_sbu_0, # of connection points: 6
#     Node 11, Type 1, BuildingBlock: BETDEL_clean_sbu_0, # of connection points: 6
#     Edge 12, Type (0, 1), BuildingBlock: UVAHIK_clean_linker_0, # of connection points: 2
#     Edge 13, Type (0, 1), BuildingBlock: UVAHIK_clean_linker_0, # of connection points: 2
#     Edge 14, Type (0, 1), BuildingBlock: UVAHIK_clean_linker_0, # of connection points: 2
#     Edge 15, Type (0, 1), BuildingBlock: UVAHIK_clean_linker_0, # of connection points: 2
#     Edge 16, Type (0, 1), BuildingBlock: UVAHIK_clean_linker_0, # of connection points: 2
#     Edge 17, Type (0, 1), BuildingBlock: UVAHIK_clean_linker_0, # of connection points: 2
#     Edge 18, Type (0, 1), BuildingBlock: UVAHIK_clean_linker_0, # of connection points: 2
#     Edge 19, Type (0, 1), BuildingBlock: UVAHIK_clean_linker_0, # of connection points: 2
#     Edge 20, Type (0, 1), BuildingBlock: UVAHIK_clean_linker_0, # of connection points: 2
#     Edge 21, Type (0, 1), BuildingBlock: UVAHIK_clean_linker_0, # of connection points: 2
#     Edge 22, Type (0, 1), BuildingBlock: UVAHIK_clean_linker_0, # of connection points: 2
#     Edge 23, Type (0, 1), BuildingBlock: UVAHIK_clean_linker_0, # of connection points: 2
#     Edge 24, Type (0, 1), BuildingBlock: UVAHIK_clean_linker_0, # of connection points: 2
#     Edge 25, Type (0, 1), BuildingBlock: UVAHIK_clean_linker_0, # of connection points: 2
#     Edge 26, Type (0, 1), BuildingBlock: UVAHIK_clean_linker_0, # of connection points: 2
#     Edge 27, Type (0, 1), BuildingBlock: UVAHIK_clean_linker_0, # of connection points: 2
#     Edge 28, Type (0, 1), BuildingBlock: UVAHIK_clean_linker_0, # of connection points: 2
#     Edge 29, Type (0, 1), BuildingBlock: UVAHIK_clean_linker_0, # of connection points: 2
#     Edge 30, Type (0, 1), BuildingBlock: UVAHIK_clean_linker_0, # of connection points: 2
#     Edge 31, Type (0, 1), BuildingBlock: UVAHIK_clean_linker_0, # of connection points: 2
#     Edge 32, Type (0, 1), BuildingBlock: UVAHIK_clean_linker_0, # of connection points: 2
#     Edge 33, Type (0, 1), BuildingBlock: UVAHIK_clean_linker_0, # of connection points: 2
#     Edge 34, Type (0, 1), BuildingBlock: UVAHIK_clean_linker_0, # of connection points: 2
#     Edge 35, Type (0, 1), BuildingBlock: UVAHIK_clean_linker_0, # of connection points: 2
# Relax obj value: 0.088
# Max RMSD: 0.190
# Mean RMSD: 0.068
data_MOF--net-zzz--node1-BETDEL_clean_sbu_0--node2-QEWDON_clean_linker_0--edge1-UVAHIK_clean_linker_0
_symmetry_space_group_name_H-M    P1
_symmetry_Int_Tables_number       1
_symmetry_cell_setting            triclinic
loop_
_symmetry_equiv_pos_as_xyz
'x, y, z'
_cell_length_a     68.301556
_cell_length_b     69.613741
_cell_length_c     18.702754
_cell_angle_alpha  91.679551
_cell_angle_beta   88.278845
_cell_angle_gamma 94.606243
loop_
_atom_site_label
_atom_site_type_symbol
_atom_site_fract_x
_atom_site_fract_y
_atom_site_fract_z
_atom_type_partial_charge
H0 H 0.75937 0.52461 0.00513 0.0
C1 C 0.76715 0.52062 0.0514 0.0
C2 C 0.78574 0.51365 0.04125 0.0
C3 C 0.75907 0.52314 0.12114 0.0
H4 H 0.81119 0.50486 0.09222 0.0
C5 C 0.79641 0.50936 0.10046 0.0
C6 C 0.78927 0.51263 0.17003 0.0
C7 C 0.77051 0.51936 0.18051 0.0
C8 C 0.73923 0.53065 0.13162 0.0
H9 H 0.76499 0.52163 0.23471 0.0
C10 C 0.72402 0.5256 0.08311 0.0
C11 C 0.70544 0.53298 0.09263 0.0
C12 C 0.73545 0.54326 0.18971 0.0
H13 H 0.7468 0.54793 0.22697 0.0
C14 C 0.71706 0.55044 0.19968 0.0
H15 H 0.72647 0.51568 0.03864 0.0
C16 C 0.70216 0.54538 0.1517 0.0
H17 H 0.68818 0.55152 0.16007 0.0
H18 H 0.7144 0.56019 0.24444 0.0
H19 H 0.99226 0.76122 0.96944 0.0
C20 C 0.99465 0.76845 0.02088 0.0
C21 C 1.00456 0.78692 0.02333 0.0
C22 C 0.98702 0.75984 0.08445 0.0
H23 H 0.01339 0.81152 0.09053 0.0
C24 C 1.00678 0.7968 0.08911 0.0
C25 C 0.99839 0.78907 0.15182 0.0
C26 C 0.98879 0.77051 0.14987 0.0
C27 C 0.97615 0.74035 0.08227 0.0
H28 H 0.98249 0.76466 0.1992 0.0
C29 C 0.98209 0.72557 0.03495 0.0
C30 C 0.97195 0.70705 0.0342 0.0
C31 C 0.95966 0.73639 0.12797 0.0
H32 H 0.95422 0.74746 0.16338 0.0
C33 C 0.94978 0.7181 0.12827 0.0
H34 H 0.99458 0.72849 -0.00118 0.0
C35 C 0.95591 0.70352 0.0824 0.0
H36 H 0.9481 0.68939 0.08528 0.0
H37 H 0.93727 0.71521 0.16437 0.0
H38 H 0.75575 0.98536 0.97742 0.0
C39 C 0.74658 0.98658 0.02534 0.0
C40 C 0.7293 0.99602 0.02176 0.0
C41 C 0.75167 0.97841 0.08983 0.0
H42 H 0.70307 1.00379 0.07772 0.0
C43 C 0.71676 0.99702 0.08181 0.0
C44 C 0.72092 0.98837 0.14546 0.0
C45 C 0.73845 0.9792 0.14972 0.0
C46 C 0.77041 0.96871 0.09373 0.0
H47 H 0.74174 0.97296 0.19988 0.0
C48 C 0.78735 0.97505 0.0527 0.0
C49 C 0.8049 0.96576 0.05604 0.0
C50 C 0.77147 0.95282 0.13798 0.0
H51 H 0.75877 0.94705 0.16866 0.0
C52 C 0.7889 0.94379 0.14223 0.0
H53 H 0.78712 0.98741 0.01904 0.0
C54 C 0.8055 0.95019 0.10178 0.0
H55 H 0.81871 0.94266 0.10503 0.0
H56 H 0.78947 0.93158 0.17645 0.0
H57 H 0.52268 0.75441 0.99022 0.0
C58 C 0.52361 0.74687 0.03973 0.0
C59 C 0.51271 0.72906 0.0482 0.0
C60 C 0.53676 0.75415 0.09258 0.0
H61 H 0.50724 0.70438 0.11481 0.0
C62 C 0.51475 0.71866 0.1101 0.0
C63 C 0.52836 0.72509 0.16132 0.0
C64 C 0.53916 0.74294 0.15324 0.0
C65 C 0.54947 0.77232 0.08056 0.0
H66 H 0.54978 0.74774 0.19316 0.0
C67 C 0.5422 0.78834 0.04816 0.0
C68 C 0.55458 0.80522 0.03531 0.0
C69 C 0.56933 0.77346 0.09941 0.0
H70 H 0.57561 0.76133 0.1224 0.0
C71 C 0.58157 0.79006 0.08693 0.0
H72 H 0.52689 0.78779 0.03407 0.0
C73 C 0.57434 0.80578 0.05507 0.0
H74 H 0.58441 0.81826 0.04461 0.0
H75 H 0.59686 0.79065 0.10118 0.0
H76 H 0.26305 0.51066 0.13874 0.0
C77 C 0.25477 0.50656 0.09141 0.0
C78 C 0.23504 0.4996 0.0995 0.0
C79 C 0.26342 0.50916 0.0225 0.0
H80 H 0.20833 0.49081 0.04574 0.0
C81 C 0.22388 0.49522 0.03895 0.0
C82 C 0.2317 0.49864 0.97028 0.0
C83 C 0.25155 0.50548 0.96191 0.0
C84 C 0.28436 0.517 0.01465 0.0
H85 H 0.25757 0.50801 0.90849 0.0
C86 C 0.29873 0.51165 0.06158 0.0
C87 C 0.31835 0.51971 0.05618 0.0
C88 C 0.29001 0.53041 0.96163 0.0
H89 H 0.27938 0.53522 0.92573 0.0
C90 C 0.3094 0.53828 0.95553 0.0
H91 H 0.29471 0.50104 0.10175 0.0
C92 C 0.32344 0.53308 0.00241 0.0
H93 H 0.33821 0.53989 -0.00261 0.0
H94 H 0.3135 0.54872 0.91488 0.0
H95 H 0.01049 0.25389 0.1842 0.0
C96 C 0.0156 0.24687 0.13542 0.0
C97 C 0.025 0.22979 0.13983 0.0
C98 C 0.01178 0.25421 0.06814 0.0
H99 H 0.03695 0.20635 0.08058 0.0
C100 C 0.03074 0.22015 0.07696 0.0
C101 C 0.02628 0.22659 0.00977 0.0
C102 C 0.01692 0.24374 0.00535 0.0
C103 C 1.00101 0.27189 0.06395 0.0
H104 H 0.01341 0.24869 0.95321 0.0
C105 C 1.00522 0.28787 0.1107 0.0
C106 C 0.9943 0.30417 0.10915 0.0
C107 C 0.98591 0.27262 0.0148 0.0
H108 H 0.98205 0.26049 0.979 0.0
C109 C 0.97521 0.28883 0.01261 0.0
H110 H 0.0168 0.28754 0.1489 0.0
C111 C 0.97928 0.30447 0.05958 0.0
H112 H 0.97076 0.31689 0.05685 0.0
H113 H 0.96357 0.28919 0.97475 0.0
H114 H 0.26475 0.01071 0.14214 0.0
C115 C 0.27486 0.01616 0.10038 0.0
C116 C 0.29482 0.01978 0.1157 0.0
C117 C 0.26815 0.01888 0.03103 0.0
H118 H 0.32374 0.02805 0.07252 0.0
C119 C 0.30819 0.02603 0.06149 0.0
C120 C 0.30209 0.02806 0.99172 0.0
C121 C 0.28207 0.02465 0.97653 0.0
C122 C 0.24688 0.0146 0.01504 0.0
H123 H 0.27749 0.02646 0.92236 0.0
C124 C 0.23197 0.01827 0.06667 0.0
C125 C 0.21195 0.01341 0.05257 0.0
C126 C 0.24135 0.00618 0.94861 0.0
H127 H 0.25227 1.00266 0.90824 0.0
C128 C 0.2216 1.00163 0.93394 0.0
H129 H 0.23588 0.0251 0.11758 0.0
C130 C 0.20702 1.00511 0.98537 0.0
H131 H 0.19188 1.00083 0.97295 0.0
H132 H 0.21758 0.99502 0.88278 0.0
H133 H 0.50926 0.25905 0.14712 0.0
C134 C 0.50694 0.26834 0.10328 0.0
C135 C 0.50409 0.28771 0.11893 0.0
C136 C 0.50734 0.26133 0.0314 0.0
H137 H 0.50084 0.31551 0.07638 0.0
C138 C 0.50245 0.30039 0.06353 0.0
C139 C 0.50373 0.29423 0.99212 0.0
C140 C 0.50541 0.27458 0.9759 0.0
C141 C 0.51075 0.2406 0.01451 0.0
H142 H 0.50567 0.26991 0.92024 0.0
C143 C 0.50522 0.22587 0.06369 0.0
C144 C 0.50898 0.20656 0.04799 0.0
C145 C 0.52016 0.23538 0.94946 0.0
H146 H 0.52543 0.24607 0.91118 0.0
C147 C 0.52345 0.2162 0.9332 0.0
H148 H 0.49777 0.2292 0.11388 0.0
C149 C 0.51788 0.20188 0.98188 0.0
H150 H 0.52105 0.18717 0.96865 0.0
H151 H 0.53068 0.21247 0.88298 0.0
Dy152 Dy 0.01734 0.99732 0.65013 0.0
C153 C 1.00488 0.04586 0.4087 0.0
C154 C 0.01129 0.97109 0.75487 0.0
Dy155 Dy 1.00584 0.01817 0.50825 0.0
O156 O 0.02671 0.98334 0.74914 0.0
O157 O 0.99889 0.97408 0.70583 0.0
O158 O 0.05008 0.99709 0.62426 0.0
O159 O 0.0312 0.00757 0.55345 0.0
C160 C 0.04886 1.00451 0.56156 0.0
C161 C 0.97613 1.00416 0.59359 0.0
O162 O 0.00859 0.98885 0.45977 0.0
O163 O 0.01019 0.97343 0.56905 0.0
O164 O 0.9906 0.04072 0.45323 0.0
O165 O 0.01931 0.03504 0.41595 0.0
O166 O 0.97488 1.00524 0.52445 0.0
O167 O 0.99252 0.01187 0.61335 0.0
O168 O 0.01782 0.02756 0.69476 0.0
O169 O 0.01706 0.04204 0.5836 0.0
C170 C 0.00891 0.97313 0.49822 0.0
C171 C 0.01916 0.04302 0.65412 0.0
Dy172 Dy 0.49432 0.99763 0.53373 0.0
C173 C 0.56613 0.0299 0.65893 0.0
C174 C 0.45692 0.98752 0.49176 0.0
Dy175 Dy 0.52899 0.01946 0.61507 0.0
O176 O 0.47253 0.98669 0.45039 0.0
O177 O 0.46189 0.99362 0.55519 0.0
O178 O 0.51587 0.97998 0.47222 0.0
O179 O 0.52414 0.00842 0.50705 0.0
C180 C 0.53027 0.99338 0.47816 0.0
C181 C 0.49313 0.02405 0.67039 0.0
O182 O 0.52294 0.04284 0.54166 0.0
O183 O 0.49358 0.02834 0.49749 0.0
O184 O 0.55048 0.02925 0.70054 0.0
O185 O 0.56137 0.02512 0.59391 0.0
O186 O 0.50766 0.0373 0.67611 0.0
O187 O 0.4991 0.00886 0.64186 0.0
O188 O 0.50034 0.97426 0.60722 0.0
O189 O 0.53006 0.98859 0.64874 0.0
C190 C 0.50694 0.04329 0.5034 0.0
C191 C 0.51659 0.97371 0.64398 0.0
Dy192 Dy 0.50253 0.52014 0.64269 0.0
C193 C 0.51754 0.47101 0.4061 0.0
C194 C 0.50029 0.54796 0.74782 0.0
Dy195 Dy 0.51666 0.49894 0.51142 0.0
O196 O 0.48565 0.53624 0.72713 0.0
O197 O 0.51625 0.54365 0.71377 0.0
O198 O 0.47135 0.50948 0.62091 0.0
O199 O 0.49124 0.51516 0.53506 0.0
C200 C 0.47402 0.50855 0.55187 0.0
C201 C 0.5452 0.51084 0.60163 0.0
O202 O 0.51897 0.52797 0.46207 0.0
O203 O 0.51442 0.54407 0.57097 0.0
O204 O 0.53271 0.47839 0.44048 0.0
O205 O 0.5022 0.47979 0.42652 0.0
O206 O 0.54778 0.50988 0.53245 0.0
O207 O 0.52806 0.50406 0.61897 0.0
O208 O 0.50308 0.49129 0.69194 0.0
O209 O 0.50299 0.47537 0.58173 0.0
C210 C 0.51875 0.54414 0.50134 0.0
C211 C 0.50098 0.47518 0.6524 0.0
Dy212 Dy 0.99973 0.5036 0.64512 0.0
C213 C 0.04734 0.50672 0.38352 0.0
C214 C 0.97217 0.50403 0.75323 0.0
Dy215 Dy 0.02215 0.51339 0.49492 0.0
O216 O 0.97564 0.48912 0.71287 0.0
O217 O 0.98468 0.51845 0.7372 0.0
O218 O 0.00904 0.47348 0.63334 0.0
O219 O 1.00436 0.48921 0.54171 0.0
C220 C 0.01023 0.47374 0.56365 0.0
C221 C 0.01846 0.54504 0.57951 0.0
O222 O 0.99119 0.51214 0.45746 0.0
O223 O 0.97611 0.51138 0.57175 0.0
O224 O 0.03789 0.52222 0.3923 0.0
O225 O 0.04209 0.49466 0.43351 0.0
O226 O 0.02699 0.54594 0.51637 0.0
O227 O 0.01324 0.52772 0.59032 0.0
O228 O 0.03049 0.50829 0.68408 0.0
O229 O 0.04567 0.50693 0.57041 0.0
C230 C 0.9754 0.51269 0.50093 0.0
C231 C 0.04637 0.50735 0.64143 0.0
C232 C 0.19898 0.01203 0.18025 0.0
C233 C 0.19617 0.01614 0.10825 0.0
C234 C 0.18355 0.01282 0.23108 0.0
C235 C 0.13361 0.03041 0.26302 0.0
H236 H 0.12831 0.98968 0.40084 0.0
C237 C 0.06289 0.01305 0.43943 0.0
C238 C 0.06565 0.00843 0.51078 0.0
C239 C 0.079 0.01553 0.39131 0.0
C240 C 0.12967 1.00129 0.36329 0.0
H241 H 0.17508 0.02533 0.03445 0.0
H242 H 0.14814 0.02615 0.12225 0.0
H243 H 0.15617 0.99154 0.31665 0.0
H244 H 0.08742 1.00296 0.58803 0.0
H245 H 0.11543 0.00729 0.50466 0.0
H246 H 0.10676 0.03987 0.30925 0.0
C247 C 0.16229 0.02246 0.13981 0.0
C248 C 0.14573 1.00241 0.31501 0.0
C249 C 0.17772 0.02174 0.0891 0.0
C250 C 0.08482 0.00652 0.5333 0.0
C251 C 0.10087 0.0089 0.48539 0.0
C252 C 0.11744 0.02922 0.31118 0.0
C253 C 0.16487 0.01769 0.21131 0.0
C254 C 0.14796 0.01698 0.26415 0.0
C255 C 0.09818 0.01323 0.41357 0.0
C256 C 0.11529 0.01465 0.36199 0.0
H257 H 0.21291 0.00755 0.19705 0.0
H258 H 0.18624 0.0094 0.28584 0.0
H259 H 0.13492 0.04198 0.22532 0.0
H260 H 0.04827 0.01416 0.42027 0.0
H261 H 0.07638 0.01864 0.33616 0.0
C262 C 0.49457 0.17359 0.08072 0.0
C263 C 0.50455 0.19123 0.10115 0.0
C264 C 0.49242 0.15828 0.12788 0.0
C265 C 0.49862 0.14532 0.31899 0.0
H266 H 0.50272 0.09429 0.2338 0.0
C267 C 0.51552 0.0783 0.47825 0.0
C268 C 0.50435 0.06089 0.46267 0.0
C269 C 0.51381 0.09462 0.4375 0.0
C270 C 0.50135 0.10842 0.2584 0.0
H271 H 0.51976 0.20682 0.18747 0.0
H272 H 0.51663 0.17999 0.26924 0.0
H273 H 0.5029 0.12192 0.15716 0.0
H274 H 0.48239 0.04714 0.39239 0.0
H275 H 0.47967 0.07553 0.32069 0.0
H276 H 0.49789 0.13164 0.42056 0.0
C277 C 0.50996 0.17801 0.2175 0.0
C278 C 0.50134 0.12433 0.21441 0.0
C279 C 0.51182 0.19344 0.1706 0.0
C280 C 0.49121 0.06029 0.406 0.0
C281 C 0.48972 0.07653 0.36463 0.0
C282 C 0.49891 0.1294 0.36305 0.0
C283 C 0.50054 0.16006 0.19638 0.0
C284 C 0.49997 0.14305 0.24391 0.0
C285 C 0.50109 0.09384 0.37958 0.0
C286 C 0.50028 0.11077 0.33321 0.0
H287 H 0.48865 0.17155 0.02769 0.0
H288 H 0.48458 0.14495 0.11007 0.0
H289 H 0.49722 0.15939 0.34396 0.0
H290 H 0.52573 0.07931 0.52165 0.0
H291 H 0.52286 0.10771 0.45006 0.0
C292 C 0.32867 0.51259 0.18059 0.0
C293 C 0.33344 0.51477 0.10741 0.0
C294 C 0.3432 0.50943 0.22928 0.0
C295 C 0.39486 0.49567 0.24073 0.0
H296 H 0.3927 0.52274 0.42455 0.0
C297 C 0.46146 0.5077 0.42706 0.0
C298 C 0.45776 0.50601 0.501 0.0
C299 C 0.4459 0.50669 0.3796 0.0
C300 C 0.39341 0.51488 0.37382 0.0
H301 H 0.35725 0.51444 0.02803 0.0
H302 H 0.38257 0.50963 0.11274 0.0
H303 H 0.36625 0.52468 0.34135 0.0
H304 H 0.43492 0.50138 0.58305 0.0
H305 H 0.40777 0.4997 0.50036 0.0
H306 H 0.42237 0.48634 0.27288 0.0
C307 C 0.36757 0.51011 0.13272 0.0
C308 C 0.37818 0.51594 0.32603 0.0
C309 C 0.35304 0.51315 0.08407 0.0
C310 C 0.43823 0.50282 0.52637 0.0
C311 C 0.42267 0.50196 0.47904 0.0
C312 C 0.41017 0.49474 0.28837 0.0
C313 C 0.36293 0.50845 0.2062 0.0
C314 C 0.37873 0.50645 0.25856 0.0
C315 C 0.42629 0.50411 0.40515 0.0
C316 C 0.40969 0.50442 0.35535 0.0
H317 H 0.31379 0.51387 0.20076 0.0
H318 H 0.33897 0.50791 0.2852 0.0
H319 H 0.39567 0.48788 0.1899 0.0
H320 H 0.47636 0.51021 0.40597 0.0
H321 H 0.4492 0.50855 0.32311 0.0
C322 C 0.01748 0.329 0.16964 0.0
C323 C 0.99824 0.32078 0.15974 0.0
C324 C 0.02095 0.34517 0.21521 0.0
C325 C 0.02062 0.38673 0.27665 0.0
H326 H 0.994 0.38843 0.46259 0.0
C327 C 0.01086 0.45711 0.4431 0.0
C328 C 0.01298 0.45652 0.51747 0.0
C329 C 0.01165 0.44034 0.40036 0.0
C330 C 1.00169 0.38813 0.41113 0.0
H331 H 0.96765 0.32267 0.1912 0.0
H332 H 0.9737 0.35073 0.27114 0.0
H333 H 0.99027 0.35915 0.3876 0.0
H334 H 0.0182 0.43809 0.60518 0.0
H335 H 0.01939 0.40875 0.53064 0.0
H336 H 0.03174 0.41589 0.29979 0.0
C337 C 0.98609 0.34476 0.24354 0.0
C338 C 0.99942 0.37141 0.36796 0.0
C339 C 0.98261 0.32879 0.19737 0.0
C340 C 0.01646 0.43896 0.54802 0.0
C341 C 0.01706 0.42216 0.50542 0.0
C342 C 0.02271 0.40356 0.31955 0.0
C343 C 1.00527 0.35322 0.25259 0.0
C344 C 0.00871 0.37058 0.30001 0.0
C345 C 0.01436 0.4226 0.43128 0.0
C346 C 0.01316 0.40447 0.38708 0.0
H347 H 0.02979 0.32317 0.14101 0.0
H348 H 0.03589 0.35133 0.2215 0.0
H349 H 0.02786 0.38655 0.22433 0.0
H350 H 1.00802 0.47042 0.41814 0.0
H351 H 0.00935 0.44111 0.34349 0.0
C352 C 0.84129 0.97372 0.03957 0.0
C353 C 0.82247 0.97176 0.01052 0.0
C354 C 0.85799 0.97792 0.99588 0.0
C355 C 0.87414 0.99509 0.81404 0.0
H356 H 0.9216 0.97095 0.85587 0.0
C357 C 0.94045 0.99424 0.61455 0.0
C358 C 0.95911 0.99923 0.64244 0.0
C359 C 0.924 0.99092 0.66022 0.0
C360 C 0.90851 0.97792 0.84382 0.0
H361 H 0.80642 0.97282 0.91282 0.0
H362 H 0.8355 0.97967 0.83611 0.0
H363 H 0.89247 0.96557 0.93345 0.0
H364 H 0.97522 1.00434 0.74013 0.0
H365 H 0.94649 0.99812 0.82013 0.0
H366 H 0.89016 0.00702 0.72324 0.0
C367 C 0.83743 0.97844 0.89298 0.0
C368 C 0.89178 0.97492 0.88852 0.0
C369 C 0.8207 0.97447 0.93692 0.0
C370 C 0.96105 1.00039 0.71708 0.0
C371 C 0.94461 0.99683 0.76285 0.0
C372 C 0.8908 0.9979 0.76893 0.0
C373 C 0.85637 0.98004 0.92168 0.0
C374 C 0.87432 0.98347 0.87437 0.0
C375 C 0.92584 0.9923 0.73491 0.0
C376 C 0.90818 0.98934 0.78324 0.0
H377 H 0.8431 0.97194 0.09629 0.0
H378 H 0.87219 0.97949 0.02049 0.0
H379 H 0.86118 1.00224 0.80189 0.0
H380 H 0.93849 0.99322 0.55727 0.0
H381 H 0.9098 0.98723 0.63704 0.0
C382 C 0.55416 0.84103 0.0219 0.0
C383 C 0.54739 0.82221 -3e-05 0.0
C384 C 0.54952 0.85697 0.98397 0.0
C385 C 0.51556 0.8747 0.85684 0.0
H386 H 0.5599 0.91073 0.80824 0.0
C387 C 0.50836 0.93856 0.66848 0.0
C388 C 0.51966 0.95595 0.68311 0.0
C389 C 0.51119 0.92191 0.70601 0.0
C390 C 0.54725 0.90105 0.82215 0.0
H391 H 0.52952 0.8056 0.92253 0.0
H392 H 0.52104 0.83363 0.85703 0.0
H393 H 0.56495 0.88267 0.87775 0.0
H394 H 0.54257 0.96948 0.74976 0.0
H395 H 0.54707 0.9408 0.8164 0.0
H396 H 0.49774 0.89329 0.80269 0.0
C397 C 0.53011 0.83591 0.90352 0.0
C398 C 0.55019 0.88488 0.86185 0.0
C399 C 0.53491 0.81987 0.94123 0.0
C400 C 0.53375 0.9563 0.73646 0.0
C401 C 0.53641 0.93975 0.77452 0.0
C402 C 0.51255 0.89105 0.81775 0.0
C403 C 0.53778 0.8546 0.92348 0.0
C404 C 0.5344 0.87156 0.88003 0.0
C405 C 0.52524 0.92225 0.75972 0.0
C406 C 0.52835 0.90454 0.80012 0.0
H407 H 0.56337 0.84347 0.06796 0.0
H408 H 0.5553 0.87121 0.00164 0.0
H409 H 0.50309 0.86474 0.87037 0.0
H410 H 0.49744 0.93773 0.62748 0.0
H411 H 0.5025 0.9087 0.69211 0.0
C412 C 0.6935 0.52882 0.96642 0.0
C413 C 0.68951 0.5283 0.04057 0.0
C414 C 0.67821 0.52614 0.91788 0.0
C415 C 0.62601 0.50729 0.9012 0.0
H416 H 0.62662 0.54221 0.74332 0.0
C417 C 0.55814 0.51181 0.726 0.0
C418 C 0.56156 0.51382 0.65206 0.0
C419 C 0.57383 0.51353 0.77297 0.0
C420 C 0.6263 0.53217 0.78655 0.0
H421 H 0.66636 0.5237 0.12157 0.0
H422 H 0.63976 0.51916 0.03724 0.0
H423 H 0.65406 0.54424 0.82431 0.0
H424 H 0.58402 0.51952 0.56944 0.0
H425 H 0.61136 0.5223 0.65094 0.0
H426 H 0.59828 0.49519 0.86347 0.0
C427 C 0.65468 0.52162 0.01641 0.0
C428 C 0.64207 0.53332 0.83302 0.0
C429 C 0.66993 0.5244 0.06485 0.0
C430 C 0.58091 0.51793 0.6262 0.0
C431 C 0.5966 0.51962 0.67307 0.0
C432 C 0.61026 0.50609 0.85462 0.0
C433 C 0.65857 0.52273 0.94231 0.0
C434 C 0.64211 0.52096 0.89116 0.0
C435 C 0.59331 0.5173 0.74709 0.0
C436 C 0.61013 0.51857 0.79678 0.0
H437 H 0.70839 0.53191 0.94592 0.0
H438 H 0.68176 0.52686 0.86115 0.0
H439 H 0.62566 0.49735 0.9448 0.0
H440 H 0.54336 0.50872 0.74752 0.0
H441 H 0.57067 0.51198 0.82968 0.0
C442 C 0.99779 0.68934 0.96515 0.0
C443 C 0.97789 0.69131 0.98393 0.0
C444 C 1.00317 0.67398 0.92057 0.0
C445 C 0.98775 0.62453 0.87109 0.0
H446 H 0.01814 0.63229 0.69453 0.0
C447 C 0.99737 0.56163 0.66901 0.0
C448 C 0.01476 0.5616 0.62741 0.0
C449 C 0.99361 0.57759 0.71294 0.0
C450 C 0.00998 0.62975 0.7443 0.0
H451 H 0.94809 0.67895 0.96689 0.0
H452 H 0.95764 0.65184 0.89241 0.0
H453 H 0.01087 0.66005 0.7707 0.0
H454 H 0.04191 0.57803 0.59842 0.0
H455 H 0.03594 0.60558 0.67755 0.0
H456 H 0.98727 0.59434 0.84692 0.0
C457 C 0.969 0.66219 0.9125 0.0
C458 C 1.00574 0.64572 0.78764 0.0
C459 C 0.96358 0.67769 0.95569 0.0
C460 C 0.02837 0.57776 0.63025 0.0
C461 C 0.02483 0.5936 0.67524 0.0
C462 C 0.99231 0.60855 0.82865 0.0
C463 C 0.98883 0.66011 0.89492 0.0
C464 C 0.99437 0.64325 0.85089 0.0
C465 C 1.00733 0.59382 0.71708 0.0
C466 C 1.00326 0.6109 0.76401 0.0
H467 H 0.00928 0.69934 0.98628 0.0
H468 H 0.01858 0.67263 0.90781 0.0
H469 H 0.97913 0.62225 0.92012 0.0
H470 H 0.98636 0.54958 0.66566 0.0
H471 H 0.97971 0.57731 0.74242 0.0
C472 C 0.04295 0.21148 0.22518 0.0
C473 C 0.02548 0.21928 0.20711 0.0
C474 C 0.04224 0.19482 0.26517 0.0
C475 C 0.00971 0.15834 0.36238 0.0
H476 H 0.03693 0.12233 0.24091 0.0
C477 C 0.9911 0.07649 0.37775 0.0
C478 C 1.00693 0.06479 0.37499 0.0
C479 C 0.99403 0.09596 0.3611 0.0
C480 C 0.02947 0.13216 0.2762 0.0
H481 H 0.99394 0.21759 0.2248 0.0
H482 H 0.99267 0.1886 0.29535 0.0
H483 H 0.04216 0.15666 0.22057 0.0
H484 H 0.03801 0.06393 0.34961 0.0
H485 H 0.04322 0.0979 0.32106 0.0
H486 H 0.99687 0.13373 0.41764 0.0
C487 C 1.0069 0.1952 0.2785 0.0
C488 C 0.03255 0.15189 0.26478 0.0
C489 C 1.00762 0.21191 0.2385 0.0
C490 C 0.0255 0.07259 0.35147 0.0
C491 C 0.02848 0.0921 0.33533 0.0
C492 C 1.00674 0.13856 0.37424 0.0
C493 C 0.02406 0.18576 0.28761 0.0
C494 C 0.02256 0.16519 0.3072 0.0
C495 C 0.01289 0.10414 0.34185 0.0
C496 C 0.01639 0.12521 0.33059 0.0
H497 H 0.05689 0.21696 0.20152 0.0
H498 H 0.05574 0.18807 0.2729 0.0
H499 H 1.00183 0.16826 0.39587 0.0
H500 H 0.97662 0.07081 0.39583 0.0
H501 H 0.9816 0.10469 0.36485 0.0
C502 C 0.31572 0.02835 0.22049 0.0
C503 C 0.30264 0.01496 0.18519 0.0
C504 C 0.32747 0.02244 0.27409 0.0
C505 C 0.34973 0.00707 0.39475 0.0
H506 H 0.37656 0.96312 0.32258 0.0
C507 C 0.42105 0.98731 0.51917 0.0
C508 C 0.43641 0.98468 0.46908 0.0
C509 C 0.4017 0.98721 0.49704 0.0
C510 C 0.36915 0.97534 0.3437 0.0
H511 H 0.29031 0.98532 0.18182 0.0
H512 H 0.31086 0.97492 0.27623 0.0
H513 H 0.3465 0.97103 0.26713 0.0
H514 H 0.44363 0.97899 0.35739 0.0
H515 H 0.40982 0.97898 0.31826 0.0
H516 H 0.37305 0.01211 0.46836 0.0
C517 C 0.31211 0.98995 0.26207 0.0
C518 C 0.35177 0.97973 0.31259 0.0
C519 C 0.30022 0.99593 0.20867 0.0
C520 C 0.43202 0.981 0.397 0.0
C521 C 0.41265 0.9809 0.37479 0.0
C522 C 0.36709 1.00266 0.42595 0.0
C523 C 0.32646 1.00298 0.29304 0.0
C524 C 0.34224 0.99604 0.33616 0.0
C525 C 0.39734 0.98448 0.42434 0.0
C526 C 0.37734 0.98713 0.39914 0.0
H527 H 0.31782 0.0431 0.20308 0.0
H528 H 0.33845 0.03283 0.29641 0.0
H529 H 0.34263 0.01963 0.41443 0.0
H530 H 0.42403 0.99009 0.57526 0.0
H531 H 0.39022 0.98976 0.53661 0.0
C532 C 0.52239 0.30464 0.21634 0.0
C533 C 0.5044 0.2962 0.19182 0.0
C534 C 0.52285 0.32126 0.26025 0.0
C535 C 0.49429 0.3624 0.26484 0.0
H536 H 0.53188 0.38431 0.40169 0.0
C537 C 0.49794 0.4425 0.35524 0.0
C538 C 0.51637 0.45174 0.37114 0.0
C539 C 0.49601 0.42278 0.33854 0.0
C540 C 0.52145 0.37843 0.36274 0.0
H541 H 0.47281 0.29645 0.20188 0.0
H542 H 0.47352 0.3251 0.28046 0.0
H543 H 0.52854 0.34942 0.37924 0.0
H544 H 0.54744 0.44798 0.3776 0.0
H545 H 0.54423 0.41363 0.34549 0.0
H546 H 0.48775 0.39124 0.24557 0.0
C547 C 0.48728 0.31923 0.26473 0.0
C548 C 0.5194 0.35844 0.35063 0.0
C549 C 0.48684 0.30265 0.22081 0.0
C550 C 0.53305 0.4412 0.36543 0.0
C551 C 0.53115 0.42147 0.34821 0.0
C552 C 0.49646 0.38232 0.27639 0.0
C553 C 0.5053 0.32952 0.27995 0.0
C554 C 0.50585 0.35024 0.30123 0.0
C555 C 0.51252 0.41191 0.33673 0.0
C556 C 0.51017 0.39063 0.32501 0.0
H557 H 0.53609 0.30004 0.19369 0.0
H558 H 0.53696 0.32883 0.27128 0.0
H559 H 0.48411 0.3566 0.22487 0.0
H560 H 0.4848 0.45025 0.35984 0.0
H561 H 0.48141 0.41592 0.33046 0.0
C562 C 0.2198 0.51834 0.19697 0.0
C563 C 0.22426 0.50026 0.1688 0.0
C564 C 0.20261 0.52004 0.23822 0.0
C565 C 0.15914 0.4936 0.32319 0.0
H566 H 0.13003 0.52746 0.21269 0.0
C567 C 0.07504 0.48841 0.33842 0.0
C568 C 0.066 0.50581 0.34282 0.0
C569 C 0.09493 0.48828 0.31918 0.0
C570 C 0.13793 0.51817 0.24498 0.0
H571 H 0.21614 0.4696 0.16955 0.0
H572 H 0.18641 0.47243 0.24329 0.0
H573 H 0.16538 0.52726 0.19392 0.0
H574 H 0.07017 0.53655 0.32615 0.0
H575 H 0.10494 0.53644 0.29339 0.0
H576 H 0.13168 0.48445 0.37419 0.0
C577 C 0.19593 0.48532 0.23315 0.0
C578 C 0.15823 0.51813 0.2345 0.0
C579 C 0.21302 0.48366 0.19136 0.0
C580 C 0.07675 0.52289 0.32242 0.0
C581 C 0.09673 0.52281 0.304 0.0
C582 C 0.13883 0.49379 0.33433 0.0
C583 C 0.18986 0.50363 0.25229 0.0
C584 C 0.16901 0.50566 0.27272 0.0
C585 C 0.10622 0.5056 0.30482 0.0
C586 C 0.12791 0.50583 0.29436 0.0
H587 H 0.22817 0.53135 0.17967 0.0
H588 H 0.19837 0.53429 0.25338 0.0
H589 H 0.1671 0.48385 0.35327 0.0
H590 H 0.06702 0.47503 0.35386 0.0
H591 H 0.1016 0.47467 0.31809 0.0
C592 C 0.02813 0.80776 0.95062 0.0
C593 C 0.00933 0.79818 0.95858 0.0
C594 C 0.03074 0.82486 0.9131 0.0
C595 C 1.00572 0.8594 0.80558 0.0
H596 H 0.03133 0.89728 0.93564 0.0
C597 C 0.99399 0.93977 0.78845 0.0
C598 C 0.01078 0.95274 0.79237 0.0
C599 C 0.99481 0.92057 0.8068 0.0
C600 C 0.02435 0.88692 0.89819 0.0
H601 H 0.97913 0.79741 0.92629 0.0
H602 H 0.98363 0.82716 0.86026 0.0
H603 H 0.03269 0.86312 0.95661 0.0
H604 H 0.04124 0.95619 0.82272 0.0
H605 H 0.04272 0.92263 0.85511 0.0
H606 H 0.99708 0.8833 0.74793 0.0
C607 C 0.99639 0.8216 0.88284 0.0
C608 C 0.02524 0.86729 0.90988 0.0
C609 C 0.99381 0.80443 0.92019 0.0
C610 C 0.02803 0.94652 0.81979 0.0
C611 C 0.02888 0.92726 0.83797 0.0
C612 C 1.00487 0.87906 0.79379 0.0
C613 C 0.01457 0.83265 0.88324 0.0
C614 C 0.01573 0.85329 0.86425 0.0
C615 C 0.01247 0.91392 0.82926 0.0
C616 C 0.01392 0.89304 0.84064 0.0
H617 H 0.04029 0.80319 0.98005 0.0
H618 H 0.04504 0.8328 0.9127 0.0
H619 H 0.99835 0.84899 0.76928 0.0
H620 H 0.98048 0.94421 0.76758 0.0
H621 H 0.98175 0.91078 0.80138 0.0
C622 C 0.72187 0.02336 0.94759 0.0
C623 C 0.72277 1.00345 0.95441 0.0
C624 C 0.70998 0.03035 0.89638 0.0
C625 C 0.67032 0.03833 0.84432 0.0
H626 H 0.65319 0.01094 0.6711 0.0
C627 C 0.59055 0.03461 0.75569 0.0
C628 C 0.58652 0.03297 0.68265 0.0
C629 C 0.6099 0.03506 0.77826 0.0
C630 C 0.65794 0.01905 0.71861 0.0
H631 H 0.71322 0.97525 0.91116 0.0
H632 H 0.6921 0.98725 0.82281 0.0
H633 H 0.68436 1.00454 0.72169 0.0
H634 H 0.59945 0.03144 0.57553 0.0
H635 H 0.6333 0.03263 0.61482 0.0
H636 H 0.64389 0.05276 0.84153 0.0
C637 C 0.70084 0.99763 0.85518 0.0
C638 C 0.67575 0.01521 0.74808 0.0
C639 C 0.71296 0.99068 0.90574 0.0
C640 C 0.60219 0.03265 0.63233 0.0
C641 C 0.62155 0.0332 0.65483 0.0
C642 C 0.65263 0.04228 0.81457 0.0
C643 C 0.69843 0.0175 0.85237 0.0
C644 C 0.68182 0.0243 0.81272 0.0
C645 C 0.62561 0.03398 0.72815 0.0
C646 C 0.64587 0.03218 0.75285 0.0
H647 H 0.72923 0.0334 0.98525 0.0
H648 H 0.70884 0.04575 0.89455 0.0
H649 H 0.67432 0.04552 0.89451 0.0
H650 H 0.57871 0.03478 0.79552 0.0
H651 H 0.61242 0.03537 0.83518 0.0
C652 C 0.48402 0.70942 -0.00196 0.0
C653 C 0.50291 0.7186 0.98766 0.0
C654 C 0.47801 0.69308 0.95669 0.0
C655 C 0.49503 0.65943 0.81088 0.0
H656 H 0.47549 0.62048 0.94528 0.0
C657 C 0.51389 0.58097 0.7822 0.0
C658 C 0.49811 0.56674 0.78424 0.0
C659 C 0.51099 0.60003 0.8019 0.0
C660 C 0.4807 0.63121 0.90686 0.0
H661 H 0.52932 0.71955 0.92068 0.0
H662 H 0.51916 0.69106 0.84948 0.0
H663 H 0.47473 0.65442 0.97898 0.0
H664 H 0.46723 0.56099 0.81225 0.0
H665 H 0.46233 0.59441 0.84954 0.0
H666 H 0.50219 0.63593 0.74088 0.0
C667 C 0.50874 0.69634 0.8886 0.0
C668 C 0.4801 0.65072 0.92572 0.0
C669 C 0.51461 0.71282 0.92928 0.0
C670 C 0.47965 0.57168 0.81061 0.0
C671 C 0.47682 0.59077 0.83142 0.0
C672 C 0.49588 0.63991 0.79254 0.0
C673 C 0.49095 0.68551 0.90517 0.0
C674 C 0.4878 0.66512 0.8788 0.0
C675 C 0.49233 0.60518 0.82499 0.0
C676 C 0.48923 0.62566 0.84119 0.0
H677 H 0.47475 0.71368 0.04282 0.0
H678 H 0.46393 0.68548 0.96927 0.0
H679 H 0.50072 0.67005 0.77282 0.0
H680 H 0.52827 0.57759 0.76187 0.0
H681 H 0.52328 0.61084 0.79784 0.0
C682 C 0.80353 0.49631 0.94555 0.0
C683 C 0.79613 0.51352 0.97116 0.0
C684 C 0.82042 0.49687 0.90152 0.0
C685 C 0.86497 0.52813 0.89428 0.0
H686 H 0.88254 0.49 0.75692 0.0
C687 C 0.94657 0.52452 0.80347 0.0
C688 C 0.95304 0.5061 0.78966 0.0
C689 C 0.92675 0.52669 0.81993 0.0
C690 C 0.87787 0.50065 0.79584 0.0
H691 H 0.79879 0.54457 0.96414 0.0
H692 H 0.8282 0.5456 0.88608 0.0
H693 H 0.8474 0.49207 0.78048 0.0
H694 H 0.94435 0.47548 0.7873 0.0
H695 H 0.90994 0.47919 0.81886 0.0
H696 H 0.89533 0.53619 0.91212 0.0
C697 C 0.82115 0.53171 0.90068 0.0
C698 C 0.85775 0.50195 0.80865 0.0
C699 C 0.80417 0.53113 0.94439 0.0
C700 C 0.93972 0.48985 0.79768 0.0
C701 C 0.91996 0.492 0.81458 0.0
C702 C 0.88506 0.52676 0.88179 0.0
C703 C 0.83016 0.51467 0.88303 0.0
C704 C 0.85109 0.51546 0.85901 0.0
C705 C 0.91311 0.51047 0.8233 0.0
C706 C 0.89176 0.51272 0.8336 0.0
H707 H 0.79765 0.4826 0.96631 0.0
H708 H 0.82698 0.48348 0.88888 0.0
H709 H 0.86034 0.53843 0.93459 0.0
H710 H 0.95651 0.53732 0.79686 0.0
H711 H 0.92198 0.54112 0.82629 0.0
C712 C 0.01197 0.20581 0.91051 0.0
C713 C 0.02863 0.21325 0.94746 0.0
C714 C 0.01254 0.18881 0.86888 0.0
C715 C 0.01895 0.15415 0.76914 0.0
H716 H 0.04513 0.11509 0.86506 0.0
C717 C 0.02593 0.07863 0.64273 0.0
C718 C 0.02245 0.06264 0.68709 0.0
C719 C 0.02771 0.09735 0.67169 0.0
C720 C 0.03766 0.12579 0.83784 0.0
H721 H 0.05937 0.20995 0.96446 0.0
H722 H 0.06055 0.1806 0.89022 0.0
H723 H 0.04669 0.14799 0.91408 0.0
H724 H 0.01858 0.05391 0.79724 0.0
H725 H 0.02164 0.08681 0.84816 0.0
H726 H 0.00946 0.1318 0.69403 0.0
C727 C 0.04691 0.18753 0.89485 0.0
C728 C 0.03879 0.14474 0.86528 0.0
C729 C 0.04633 0.20447 0.9365 0.0
C730 C 0.0213 0.06587 0.76158 0.0
C731 C 0.02309 0.08472 0.7907 0.0
C732 C 0.01786 0.13521 0.74159 0.0
C733 C 0.02979 0.179 0.86341 0.0
C734 C 0.02943 0.15915 0.83134 0.0
C735 C 0.02605 0.10068 0.74588 0.0
C736 C 0.02717 0.12079 0.77568 0.0
H737 H 0.99807 0.21213 0.91889 0.0
H738 H 0.99907 0.18262 0.84548 0.0
H739 H 0.0116 0.16488 0.74167 0.0
H740 H 0.02713 0.07679 0.58509 0.0
H741 H 0.03041 0.10925 0.63572 0.0
C742 C 0.32979 0.04862 0.93651 0.0
C743 C 0.31745 0.03152 0.93505 0.0
C744 C 0.34743 0.05001 0.89623 0.0
C745 C 0.37763 0.02375 0.75894 0.0
H746 H 0.42093 0.05061 0.85985 0.0
C747 C 0.45934 0.00989 0.70393 0.0
C748 C 0.47272 0.02616 0.69651 0.0
C749 C 0.43983 0.0119 0.72592 0.0
C750 C 0.40897 0.04323 0.83059 0.0
H751 H 0.31343 1.00268 0.88913 0.0
H752 H 0.34436 1.00473 0.82032 0.0
H753 H 0.38757 0.05208 0.90746 0.0
H754 H 0.47641 0.05726 0.70912 0.0
H755 H 0.4424 0.06075 0.75003 0.0
H756 H 0.39947 0.01415 0.68406 0.0
C757 C 0.34034 0.01739 0.85051 0.0
C758 C 0.38974 0.04416 0.85757 0.0
C759 C 0.32253 0.01617 0.88984 0.0
C760 C 0.46638 0.04447 0.71398 0.0
C761 C 0.44694 0.04646 0.73726 0.0
C762 C 0.39694 0.02259 0.7326 0.0
C763 C 0.3534 0.03411 0.85504 0.0
C764 C 0.37374 0.03432 0.82253 0.0
C765 C 0.43341 0.03021 0.74286 0.0
C766 C 0.41282 0.0322 0.76848 0.0
H767 H 0.32625 0.06058 0.97165 0.0
H768 H 0.35674 0.06332 0.89976 0.0
H769 H 0.36579 0.01625 0.72954 0.0
H770 H 0.46398 0.99555 0.6931 0.0
H771 H 0.42985 0.99908 0.73109 0.0
C772 C 0.51858 0.3252 0.94492 0.0
C773 C 0.50472 0.30926 0.93715 0.0
C774 C 0.51699 0.34188 0.90689 0.0
C775 C 0.50019 0.36448 0.75438 0.0
H776 H 0.49096 0.40761 0.88385 0.0
C777 C 0.48998 0.44004 0.64713 0.0
C778 C 0.49796 0.45617 0.68643 0.0
C779 C 0.48886 0.42163 0.67578 0.0
C780 C 0.49379 0.39587 0.84674 0.0
H781 H 0.47921 0.29774 0.87941 0.0
H782 H 0.47681 0.32708 0.8101 0.0
H783 H 0.49379 0.37578 0.93146 0.0
H784 H 0.51088 0.46568 0.78695 0.0
H785 H 0.50964 0.43358 0.83624 0.0
H786 H 0.50131 0.38458 0.66979 0.0
C787 C 0.48871 0.32653 0.84678 0.0
C788 C 0.49521 0.37758 0.87413 0.0
C789 C 0.49016 0.30976 0.88587 0.0
C790 C 0.50443 0.45357 0.75571 0.0
C791 C 0.50364 0.43509 0.78398 0.0
C792 C 0.49913 0.38289 0.72688 0.0
C793 C 0.50169 0.34295 0.85926 0.0
C794 C 0.49859 0.36178 0.82834 0.0
C795 C 0.49603 0.41879 0.74412 0.0
C796 C 0.49612 0.39892 0.77279 0.0
H797 H 0.52999 0.32515 0.98393 0.0
H798 H 0.52728 0.35428 0.91679 0.0
H799 H 0.50296 0.35251 0.71817 0.0
H800 H 0.48473 0.44159 0.59367 0.0
H801 H 0.48245 0.40964 0.64393 0.0
C802 C 0.21349 0.51454 0.87776 0.0
C803 C 0.21771 0.49756 0.91088 0.0
C804 C 0.19607 0.51517 0.84041 0.0
C805 C 0.14595 0.4908 0.84104 0.0
H806 H 0.13917 0.52204 0.67694 0.0
C807 C 0.06878 0.50705 0.74679 0.0
C808 C 0.0661 0.5065 0.67248 0.0
C809 C 0.08759 0.50618 0.77428 0.0
C810 C 0.1408 0.51314 0.72258 0.0
H811 H 0.20797 0.46758 0.9261 0.0
H812 H 0.178 0.46841 0.85872 0.0
H813 H 0.17211 0.51895 0.7199 0.0
H814 H 0.08135 0.50452 0.569 0.0
H815 H 0.11366 0.50279 0.61668 0.0
H816 H 0.1147 0.48474 0.8431 0.0
C817 C 0.18777 0.48141 0.86313 0.0
C818 C 0.1597 0.5115 0.74756 0.0
C819 C 0.2051 0.48082 0.90065 0.0
C820 C 0.0827 0.50508 0.6266 0.0
C821 C 0.10139 0.50422 0.65394 0.0
C822 C 0.12706 0.49244 0.81611 0.0
C823 C 0.18258 0.49881 0.83539 0.0
C824 C 0.16255 0.50023 0.80695 0.0
C825 C 0.10415 0.50477 0.72808 0.0
C826 C 0.12422 0.50358 0.75638 0.0
H827 H 0.22278 0.52773 0.88601 0.0
H828 H 0.19256 0.52884 0.81994 0.0
H829 H 0.1475 0.4823 0.88783 0.0
H830 H 0.05638 0.50818 0.78372 0.0
H831 H 0.08919 0.50681 0.83174 0.0
C832 C 0.97912 0.81115 0.22608 0.0
C833 C 0.99675 0.80232 0.21428 0.0
C834 C 0.9789 0.82838 0.26628 0.0
C835 C 1.00198 0.8608 0.39729 0.0
H836 H 0.99393 0.90236 0.27027 0.0
C837 C 0.01923 0.93977 0.48758 0.0
C838 C 1.00794 0.95397 0.46225 0.0
C839 C 0.01731 0.92099 0.45913 0.0
C840 C 0.99582 0.89101 0.30716 0.0
H841 H 0.02762 0.80373 0.23831 0.0
H842 H 0.02701 0.83343 0.31225 0.0
H843 H 0.9901 0.86904 0.22596 0.0
H844 H 0.98584 0.95984 0.38724 0.0
H845 H 0.98164 0.92676 0.33941 0.0
H846 H 1.00702 0.88241 0.47939 0.0
C847 C 0.01346 0.82707 0.28986 0.0
C848 C 0.99371 0.87191 0.28148 0.0
C849 C 0.01379 0.81006 0.24825 0.0
C850 C 0.99486 0.94916 0.40702 0.0
C851 C 0.99254 0.93017 0.37964 0.0
C852 C 1.00363 0.87986 0.4236 0.0
C853 C 0.99622 0.83678 0.2964 0.0
C854 C 0.99699 0.85671 0.32611 0.0
C855 C 1.0036 0.91574 0.40588 0.0
C856 C 1.00089 0.89531 0.37861 0.0
H857 H 0.96595 0.80567 0.19888 0.0
H858 H 0.96548 0.83569 0.27062 0.0
H859 H 1.00453 0.84924 0.43257 0.0
H860 H 0.02958 0.9432 0.52978 0.0
H861 H 0.02661 0.91062 0.4793 0.0
C862 C 0.69561 0.9706 0.22372 0.0
C863 C 0.7058 0.98807 0.20411 0.0
C864 C 0.67785 0.9706 0.26351 0.0
C865 C 0.63732 1.00221 0.29297 0.0
H866 H 0.61725 0.96459 0.43115 0.0
C867 C 0.56307 0.0088 0.44077 0.0
C868 C 0.55065 0.99197 0.45047 0.0
C869 C 0.58245 0.00779 0.41582 0.0
C870 C 0.6226 0.97509 0.39212 0.0
H871 H 0.70637 0.01912 0.21505 0.0
H872 H 0.67592 0.0192 0.28661 0.0
H873 H 0.65103 0.96396 0.38373 0.0
H874 H 0.54867 0.96081 0.44089 0.0
H875 H 0.58262 0.95896 0.39582 0.0
H876 H 0.60901 0.01325 0.30041 0.0
C877 C 0.6812 1.00548 0.26976 0.0
C878 C 0.64198 0.97475 0.36508 0.0
C879 C 0.69879 1.00546 0.22964 0.0
C880 C 0.55796 0.97402 0.43399 0.0
C881 C 0.57744 0.97298 0.40885 0.0
C882 C 0.61806 1.00255 0.31991 0.0
C883 C 0.67003 0.98809 0.28449 0.0
C884 C 0.64962 0.98841 0.3154 0.0
C885 C 0.5899 0.98988 0.39916 0.0
C886 C 0.61043 0.98908 0.37008 0.0
H887 H 0.70058 0.957 0.20372 0.0
H888 H 0.66966 0.95694 0.27366 0.0
H889 H 0.64243 0.01261 0.25328 0.0
H890 H 0.55777 0.02286 0.45211 0.0
H891 H 0.59165 0.02109 0.40992 0.0
C892 C 0.54864 0.69913 0.19635 0.0
C893 C 0.53345 0.71102 0.214 0.0
C894 C 0.5501 0.68203 0.23259 0.0
C895 C 0.53577 0.65501 0.39304 0.0
H896 H 0.53166 0.60993 0.26583 0.0
C897 C 0.51508 0.57952 0.5022 0.0
C898 C 0.52229 0.5632 0.46772 0.0
C899 C 0.5183 0.59769 0.47252 0.0
C900 C 0.53323 0.62227 0.30236 0.0
H901 H 0.50834 0.71489 0.28458 0.0
H902 H 0.51145 0.68537 0.35076 0.0
H903 H 0.53524 0.64203 0.21611 0.0
H904 H 0.5387 0.55324 0.37494 0.0
H905 H 0.54507 0.58519 0.32402 0.0
H906 H 0.53427 0.63549 0.47939 0.0
C907 C 0.52217 0.68925 0.30873 0.0
C908 C 0.5352 0.6407 0.27369 0.0
C909 C 0.52047 0.70618 0.27142 0.0
C910 C 0.53287 0.56552 0.40258 0.0
C911 C 0.53642 0.58387 0.37332 0.0
C912 C 0.53422 0.63658 0.42179 0.0
C913 C 0.53654 0.67667 0.28782 0.0
C914 C 0.53618 0.65724 0.31875 0.0
C915 C 0.52918 0.60026 0.40798 0.0
C916 C 0.53251 0.6199 0.37695 0.0
H917 H 0.5585 0.70236 0.15103 0.0
H918 H 0.56133 0.67261 0.21559 0.0
H919 H 0.53666 0.66753 0.42891 0.0
H920 H 0.50664 0.57826 0.55204 0.0
H921 H 0.51193 0.60969 0.50006 0.0
C922 C 0.81057 0.52793 0.2654 0.0
C923 C 0.80307 0.51114 0.22897 0.0
C924 C 0.828 0.52798 0.3032 0.0
C925 C 0.87303 0.50168 0.29981 0.0
H926 H 0.88597 0.5334 0.46807 0.0
C927 C 0.95304 0.5143 0.39631 0.0
C928 C 0.95566 0.514 0.47054 0.0
C929 C 0.93415 0.51457 0.36894 0.0
C930 C 0.88259 0.52435 0.42128 0.0
H931 H 0.80691 0.48094 0.20791 0.0
H932 H 0.83677 0.48073 0.27629 0.0
H933 H 0.85258 0.53137 0.42414 0.0
H934 H 0.94028 0.51406 0.57407 0.0
H935 H 0.90772 0.51422 0.52656 0.0
H936 H 0.90287 0.49433 0.29767 0.0
C937 C 0.82964 0.49403 0.27413 0.0
C938 C 0.86345 0.52332 0.39572 0.0
C939 C 0.81234 0.49404 0.236 0.0
C940 C 0.93896 0.51431 0.51654 0.0
C941 C 0.92017 0.51454 0.48927 0.0
C942 C 0.89214 0.50268 0.3254 0.0
C943 C 0.8382 0.5112 0.30544 0.0
C944 C 0.85838 0.51192 0.33472 0.0
C945 C 0.91744 0.51455 0.41512 0.0
C946 C 0.8972 0.514 0.38655 0.0
H947 H 0.80391 0.54139 0.2596 0.0
H948 H 0.83415 0.54149 0.32636 0.0
H949 H 0.86985 0.49305 0.25183 0.0
H950 H 0.96552 0.51412 0.35927 0.0
H951 H 0.93265 0.51483 0.31151 0.0
loop_
_geom_bond_atom_site_label_1
_geom_bond_atom_site_label_2
_geom_bond_distance
_geom_bond_site_symmetry_2
_ccdc_geom_bond_type
H0 C1 0.949 1_556 S
C1 H0 0.949 1_554 S
C1 C2 1.395 . S
C1 C3 1.391 . S
C2 C1 1.395 . S
C2 C5 1.390 . S
C3 C1 1.391 . S
C3 C7 1.387 . S
C3 C8 1.491 . S
H4 C5 0.950 . S
C5 C2 1.390 . S
C5 H4 0.950 . S
C5 C6 1.378 . S
C6 C5 1.378 . S
C6 C7 1.409 . S
C7 C3 1.387 . S
C7 C6 1.409 . S
C7 H9 0.951 . S
C8 C3 1.491 . S
C8 C10 1.382 . S
C8 C12 1.404 . S
H9 C7 0.951 . S
C10 C8 1.382 . S
C10 C11 1.390 . S
C10 H15 0.949 1_554 S
C11 C10 1.390 . S
C11 C16 1.399 . S
C12 C8 1.404 . S
C12 H13 0.950 . S
C12 C14 1.375 . S
H13 C12 0.950 . S
C14 C12 1.375 . S
C14 C16 1.382 . S
C14 H18 0.950 . S
H15 C10 0.949 1_556 S
C16 C11 1.399 . S
C16 C14 1.382 . S
C16 H17 0.952 . S
H17 C16 0.952 . S
H18 C14 0.950 . S
H19 C20 0.949 . S
C20 H19 0.949 . S
C20 C21 1.395 . S
C20 C22 1.391 1_556 S
C21 C20 1.395 . S
C21 C24 1.392 1_556 S
C22 C20 1.391 1_554 S
C22 C26 1.387 . S
C22 C27 1.491 . S
H23 C24 0.948 1_455 S
C24 C21 1.392 1_554 S
C24 H23 0.948 1_655 S
C24 C25 1.379 . S
C25 C24 1.379 . S
C25 C26 1.409 . S
C26 C22 1.387 . S
C26 C25 1.409 . S
C26 H28 0.951 . S
C27 C22 1.491 . S
C27 C29 1.382 1_554 S
C27 C31 1.404 . S
H28 C26 0.951 . S
C29 C27 1.382 1_556 S
C29 C30 1.390 . S
C29 H34 0.949 1_655 S
C30 C29 1.390 . S
C30 C35 1.399 1_556 S
C31 C27 1.404 . S
C31 H32 0.950 . S
C31 C33 1.375 . S
H32 C31 0.950 . S
C33 C31 1.375 . S
C33 C35 1.382 . S
C33 H37 0.950 . S
H34 C29 0.949 1_455 S
C35 C30 1.399 1_554 S
C35 C33 1.382 . S
C35 H36 0.952 . S
H36 C35 0.952 . S
H37 C33 0.950 . S
H38 C39 0.949 . S
C39 H38 0.949 . S
C39 C40 1.395 . S
C39 C41 1.391 1_556 S
C40 C39 1.395 . S
C40 C43 1.390 1_556 S
C41 C39 1.391 1_554 S
C41 C45 1.387 . S
C41 C46 1.491 . S
H42 C43 0.950 . S
C43 C40 1.390 1_554 S
C43 H42 0.950 . S
C43 C44 1.378 . S
C44 C43 1.378 . S
C44 C45 1.409 . S
C45 C41 1.387 . S
C45 C44 1.409 . S
C45 H47 0.951 . S
C46 C41 1.491 . S
C46 C48 1.382 1_554 S
C46 C50 1.404 . S
H47 C45 0.951 . S
C48 C46 1.382 1_556 S
C48 C49 1.390 . S
C48 H53 0.949 . S
C49 C48 1.390 . S
C49 C54 1.399 1_556 S
C50 C46 1.404 . S
C50 H51 0.950 . S
C50 C52 1.375 . S
H51 C50 0.950 . S
C52 C50 1.375 . S
C52 C54 1.382 . S
C52 H56 0.950 . S
H53 C48 0.949 . S
C54 C49 1.399 1_554 S
C54 C52 1.382 . S
C54 H55 0.952 . S
H55 C54 0.952 . S
H56 C52 0.950 . S
H57 C58 0.949 . S
C58 H57 0.949 . S
C58 C59 1.395 . S
C58 C60 1.391 . S
C59 C58 1.395 . S
C59 C62 1.390 . S
C60 C58 1.391 . S
C60 C64 1.387 . S
C60 C65 1.491 . S
H61 C62 0.950 . S
C62 C59 1.390 . S
C62 H61 0.950 . S
C62 C63 1.378 . S
C63 C62 1.378 . S
C63 C64 1.409 . S
C64 C60 1.387 . S
C64 C63 1.409 . S
C64 H66 0.951 . S
C65 C60 1.491 . S
C65 C67 1.382 . S
C65 C69 1.404 . S
H66 C64 0.951 . S
C67 C65 1.382 . S
C67 C68 1.390 . S
C67 H72 0.949 . S
C68 C67 1.390 . S
C68 C73 1.399 . S
C69 C65 1.404 . S
C69 H70 0.950 . S
C69 C71 1.375 . S
H70 C69 0.950 . S
C71 C69 1.375 . S
C71 C73 1.382 . S
C71 H75 0.950 . S
H72 C67 0.949 . S
C73 C68 1.399 . S
C73 C71 1.382 . S
C73 H74 0.952 . S
H74 C73 0.952 . S
H75 C71 0.950 . S
H76 C77 0.949 . S
C77 H76 0.949 . S
C77 C78 1.395 . S
C77 C79 1.391 . S
C78 C77 1.395 . S
C78 C81 1.390 . S
C79 C77 1.391 . S
C79 C83 1.387 . S
C79 C84 1.491 . S
H80 C81 0.950 . S
C81 C78 1.390 . S
C81 H80 0.950 . S
C81 C82 1.378 . S
C82 C81 1.378 . S
C82 C83 1.409 . S
C83 C79 1.387 . S
C83 C82 1.409 . S
C83 H85 0.951 1_554 S
C84 C79 1.491 . S
C84 C86 1.382 . S
C84 C88 1.404 . S
H85 C83 0.951 1_556 S
C86 C84 1.382 . S
C86 C87 1.390 . S
C86 H91 0.949 . S
C87 C86 1.390 . S
C87 C92 1.399 . S
C88 C84 1.404 . S
C88 H89 0.950 . S
C88 C90 1.375 . S
H89 C88 0.950 . S
C90 C88 1.375 . S
C90 C92 1.382 . S
C90 H94 0.950 . S
H91 C86 0.949 . S
C92 C87 1.399 . S
C92 C90 1.382 . S
C92 H93 0.952 . S
H93 C92 0.952 . S
H94 C90 0.950 . S
H95 C96 0.949 . S
C96 H95 0.949 . S
C96 C97 1.395 . S
C96 C98 1.391 . S
C97 C96 1.395 . S
C97 C100 1.390 . S
C98 C96 1.391 . S
C98 C102 1.387 . S
C98 C103 1.491 1_455 S
H99 C100 0.950 . S
C100 C97 1.390 . S
C100 H99 0.950 . S
C100 C101 1.378 . S
C101 C100 1.378 . S
C101 C102 1.409 . S
C102 C98 1.387 . S
C102 C101 1.409 . S
C102 H104 0.951 1_554 S
C103 C98 1.491 1_655 S
C103 C105 1.382 1_655 S
C103 C107 1.404 . S
H104 C102 0.951 1_556 S
C105 C103 1.382 1_455 S
C105 C106 1.390 . S
C105 H110 0.949 . S
C106 C105 1.390 . S
C106 C111 1.399 1_455 S
C107 C103 1.404 . S
C107 H108 0.950 . S
C107 C109 1.375 . S
H108 C107 0.950 . S
C109 C107 1.375 . S
C109 C111 1.382 . S
C109 H113 0.950 . S
H110 C105 0.949 . S
C111 C106 1.399 1_655 S
C111 C109 1.382 . S
C111 H112 0.952 . S
H112 C111 0.952 . S
H113 C109 0.950 . S
H114 C115 0.949 . S
C115 H114 0.949 . S
C115 C116 1.395 . S
C115 C117 1.391 . S
C116 C115 1.395 . S
C116 C119 1.390 . S
C117 C115 1.391 . S
C117 C121 1.387 . S
C117 C122 1.491 . S
H118 C119 0.950 . S
C119 C116 1.390 . S
C119 H118 0.950 . S
C119 C120 1.378 . S
C120 C119 1.378 . S
C120 C121 1.409 . S
C121 C117 1.387 . S
C121 C120 1.409 . S
C121 H123 0.951 . S
C122 C117 1.491 . S
C122 C124 1.382 . S
C122 C126 1.404 . S
H123 C121 0.951 . S
C124 C122 1.382 . S
C124 C125 1.390 . S
C124 H129 0.949 . S
C125 C124 1.390 . S
C125 C130 1.399 . S
C126 C122 1.404 . S
C126 H127 0.950 . S
C126 C128 1.375 . S
H127 C126 0.950 . S
C128 C126 1.375 . S
C128 C130 1.382 . S
C128 H132 0.950 . S
H129 C124 0.949 . S
C130 C125 1.399 . S
C130 C128 1.382 . S
C130 H131 0.952 . S
H131 C130 0.952 . S
H132 C128 0.950 . S
H133 C134 0.949 . S
C134 H133 0.949 . S
C134 C135 1.395 . S
C134 C136 1.391 . S
C135 C134 1.395 . S
C135 C138 1.390 . S
C136 C134 1.391 . S
C136 C140 1.387 1_554 S
C136 C141 1.491 . S
H137 C138 0.950 . S
C138 C135 1.390 . S
C138 H137 0.950 . S
C138 C139 1.378 1_554 S
C139 C138 1.378 1_556 S
C139 C140 1.409 . S
C140 C136 1.387 1_556 S
C140 C139 1.409 . S
C140 H142 0.951 . S
C141 C136 1.491 . S
C141 C143 1.382 . S
C141 C145 1.404 1_554 S
H142 C140 0.951 . S
C143 C141 1.382 . S
C143 C144 1.390 . S
C143 H148 0.949 . S
C144 C143 1.390 . S
C144 C149 1.399 . S
C145 C141 1.404 1_556 S
C145 H146 0.950 . S
C145 C147 1.375 . S
H146 C145 0.950 . S
C147 C145 1.375 . S
C147 C149 1.382 1_556 S
C147 H151 0.950 . S
H148 C143 0.949 . S
C149 C144 1.399 . S
C149 C147 1.382 1_554 S
C149 H150 0.952 . S
H150 C149 0.952 . S
H151 C147 0.950 . S
Dy152 O156 2.398 . S
Dy152 O157 2.491 1_455 S
Dy152 O158 2.403 . S
Dy152 O159 2.664 1_565 S
Dy152 O163 2.326 . S
Dy152 O167 2.310 1_455 S
Dy152 O168 2.351 1_565 S
C153 O164 1.185 . S
C153 O165 1.355 1_655 S
C154 O156 1.185 . S
C154 O157 1.355 1_455 S
Dy155 O159 2.310 1_655 S
Dy155 O162 2.351 1_545 S
Dy155 O164 2.398 . S
Dy155 O165 2.491 1_655 S
Dy155 O166 2.403 . S
Dy155 O167 2.664 1_545 S
Dy155 O169 2.326 . S
O156 Dy152 2.398 . S
O156 C154 1.185 . S
O157 Dy152 2.491 1_655 S
O157 C154 1.355 1_655 S
O158 Dy152 2.403 . S
O158 C160 1.254 1_565 S
O159 Dy152 2.664 1_545 S
O159 Dy155 2.310 1_455 S
O159 C160 1.268 . S
C160 O158 1.254 1_545 S
C160 O159 1.268 . S
C161 O166 1.225 1_565 S
C161 O167 1.283 . S
O162 Dy155 2.351 1_565 S
O162 C170 1.257 . S
O163 Dy152 2.326 . S
O163 C170 1.255 1_455 S
O164 C153 1.185 . S
O164 Dy155 2.398 . S
O165 C153 1.355 1_455 S
O165 Dy155 2.491 1_455 S
O166 Dy155 2.403 . S
O166 C161 1.225 1_545 S
O167 Dy152 2.310 1_655 S
O167 Dy155 2.664 1_565 S
O167 C161 1.283 . S
O168 Dy152 2.351 1_545 S
O168 C171 1.249 . S
O169 Dy155 2.326 . S
O169 C171 1.267 1_655 S
C170 O162 1.257 . S
C170 O163 1.255 1_655 S
C171 O168 1.249 . S
C171 O169 1.267 1_455 S
Dy172 O176 2.398 . S
Dy172 O177 2.491 1_565 S
Dy172 O178 2.403 . S
Dy172 O179 2.664 . S
Dy172 O183 2.326 1_565 S
Dy172 O187 2.310 1_565 S
Dy172 O188 2.351 . S
C173 O184 1.215 . S
C173 O185 1.347 1_545 S
C174 O176 1.185 1_545 S
C174 O177 1.355 . S
Dy175 O179 2.310 1_545 S
Dy175 O182 2.351 . S
Dy175 O184 2.398 . S
Dy175 O185 2.491 1_545 S
Dy175 O186 2.403 . S
Dy175 O187 2.664 . S
Dy175 O189 2.326 1_545 S
O176 Dy172 2.398 . S
O176 C174 1.185 1_565 S
O177 Dy172 2.491 1_545 S
O177 C174 1.355 . S
O178 Dy172 2.403 . S
O178 C180 1.254 . S
O179 Dy172 2.664 . S
O179 Dy175 2.310 1_565 S
O179 C180 1.268 . S
C180 O178 1.254 . S
C180 O179 1.268 . S
C181 O186 1.254 . S
C181 O187 1.268 . S
O182 Dy175 2.351 . S
O182 C190 1.249 . S
O183 Dy172 2.326 1_545 S
O183 C190 1.267 . S
O184 C173 1.215 . S
O184 Dy175 2.398 . S
O185 C173 1.347 1_565 S
O185 Dy175 2.491 1_565 S
O186 Dy175 2.403 . S
O186 C181 1.254 . S
O187 Dy172 2.310 1_545 S
O187 Dy175 2.664 . S
O187 C181 1.268 . S
O188 Dy172 2.351 . S
O188 C191 1.249 . S
O189 Dy175 2.326 1_565 S
O189 C191 1.267 . S
C190 O182 1.249 . S
C190 O183 1.267 . S
C191 O188 1.249 . S
C191 O189 1.267 . S
Dy192 O196 2.398 . S
Dy192 O197 2.491 . S
Dy192 O198 2.403 . S
Dy192 O199 2.664 . S
Dy192 O203 2.326 . S
Dy192 O207 2.310 . S
Dy192 O208 2.351 . S
C193 O204 1.185 . S
C193 O205 1.355 . S
C194 O196 1.185 . S
C194 O197 1.355 . S
Dy195 O199 2.310 . S
Dy195 O202 2.351 . S
Dy195 O204 2.398 . S
Dy195 O205 2.491 . S
Dy195 O206 2.403 . S
Dy195 O207 2.664 . S
Dy195 O209 2.326 . S
O196 Dy192 2.398 . S
O196 C194 1.185 . S
O197 Dy192 2.491 . S
O197 C194 1.355 . S
O198 Dy192 2.403 . S
O198 C200 1.254 . S
O199 Dy192 2.664 . S
O199 Dy195 2.310 . S
O199 C200 1.268 . S
C200 O198 1.254 . S
C200 O199 1.268 . S
C201 O206 1.254 . S
C201 O207 1.268 . S
O202 Dy195 2.351 . S
O202 C210 1.249 . S
O203 Dy192 2.326 . S
O203 C210 1.267 . S
O204 C193 1.185 . S
O204 Dy195 2.398 . S
O205 C193 1.355 . S
O205 Dy195 2.491 . S
O206 Dy195 2.403 . S
O206 C201 1.254 . S
O207 Dy192 2.310 . S
O207 Dy195 2.664 . S
O207 C201 1.268 . S
O208 Dy192 2.351 . S
O208 C211 1.249 . S
O209 Dy195 2.326 . S
O209 C211 1.267 . S
C210 O202 1.249 . S
C210 O203 1.267 . S
C211 O208 1.249 . S
C211 O209 1.267 . S
Dy212 O216 2.398 . S
Dy212 O217 2.491 . S
Dy212 O218 2.403 . S
Dy212 O219 2.664 1_655 S
Dy212 O223 2.326 . S
Dy212 O227 2.310 . S
Dy212 O228 2.351 1_655 S
C213 O224 1.185 . S
C213 O225 1.355 . S
C214 O216 1.185 . S
C214 O217 1.355 . S
Dy215 O219 2.310 . S
Dy215 O222 2.351 1_455 S
Dy215 O224 2.398 . S
Dy215 O225 2.491 . S
Dy215 O226 2.403 . S
Dy215 O227 2.664 1_455 S
Dy215 O229 2.326 . S
O216 Dy212 2.398 . S
O216 C214 1.185 . S
O217 Dy212 2.491 . S
O217 C214 1.355 . S
O218 Dy212 2.403 . S
O218 C220 1.252 . S
O219 Dy212 2.664 1_455 S
O219 Dy215 2.310 . S
O219 C220 1.269 1_455 S
C220 O218 1.252 . S
C220 O219 1.269 1_655 S
C221 O226 1.254 . S
C221 O227 1.268 1_455 S
O222 Dy215 2.351 1_655 S
O222 C230 1.249 . S
O223 Dy212 2.326 . S
O223 C230 1.267 . S
O224 C213 1.185 . S
O224 Dy215 2.398 . S
O225 C213 1.355 . S
O225 Dy215 2.491 . S
O226 Dy215 2.403 . S
O226 C221 1.254 . S
O227 Dy212 2.310 . S
O227 Dy215 2.664 1_655 S
O227 C221 1.268 1_655 S
O228 Dy212 2.351 1_455 S
O228 C231 1.249 . S
O229 Dy215 2.326 . S
O229 C231 1.267 . S
C230 O222 1.249 . S
C230 O223 1.267 . S
C231 O228 1.249 . S
C231 O229 1.267 . S
C232 C233 1.349 . S
C232 C234 1.327 . S
C232 H257 0.950 . S
C233 C232 1.349 . S
C233 C249 1.349 . S
C234 C232 1.327 . S
C234 C253 1.429 . S
C234 H258 0.950 . S
C235 C252 1.574 . S
C235 C254 1.368 . S
C235 H259 0.949 . S
H236 C240 0.949 1_565 S
C237 C238 1.349 . S
C237 C239 1.327 . S
C237 H260 0.950 . S
C238 C237 1.349 . S
C238 C250 1.349 1_545 S
C239 C237 1.327 . S
C239 C255 1.429 . S
C239 H261 0.950 . S
C240 H236 0.949 1_545 S
C240 C248 1.574 . S
C240 C256 1.368 . S
H241 C249 0.950 . S
H242 C247 0.950 . S
H243 C248 0.949 . S
H244 C250 0.950 . S
H245 C251 0.926 1_565 S
H246 C252 0.949 . S
C247 H242 0.950 . S
C247 C249 1.327 . S
C247 C253 1.429 . S
C248 C240 1.574 . S
C248 H243 0.949 . S
C248 C254 1.368 . S
C249 C233 1.349 . S
C249 H241 0.950 . S
C249 C247 1.327 . S
C250 C238 1.349 1_565 S
C250 H244 0.950 . S
C250 C251 1.324 1_565 S
C251 H245 0.926 1_545 S
C251 C250 1.324 1_545 S
C251 C255 1.455 . S
C252 C235 1.574 . S
C252 H246 0.949 . S
C252 C256 1.368 . S
C253 C234 1.429 . S
C253 C247 1.429 . S
C253 C254 1.523 . S
C254 C235 1.368 . S
C254 C248 1.368 . S
C254 C253 1.523 . S
C255 C239 1.429 . S
C255 C251 1.455 . S
C255 C256 1.523 . S
C256 C240 1.368 . S
C256 C252 1.368 . S
C256 C255 1.523 . S
H257 C232 0.950 . S
H258 C234 0.950 . S
H259 C235 0.949 . S
H260 C237 0.950 . S
H261 C239 0.950 . S
C262 C263 1.349 . S
C262 C264 1.327 . S
C262 H287 0.950 . S
C263 C262 1.349 . S
C263 C279 1.349 . S
C264 C262 1.327 . S
C264 C283 1.429 . S
C264 H288 0.950 . S
C265 C282 1.574 . S
C265 C284 1.368 . S
C265 H289 0.949 . S
H266 C270 0.949 . S
C267 C268 1.349 . S
C267 C269 1.327 . S
C267 H290 0.950 . S
C268 C267 1.349 . S
C268 C280 1.349 . S
C269 C267 1.327 . S
C269 C285 1.429 . S
C269 H291 0.950 . S
C270 H266 0.949 . S
C270 C278 1.574 . S
C270 C286 1.368 . S
H271 C279 0.950 . S
H272 C277 0.950 . S
H273 C278 0.949 . S
H274 C280 0.950 . S
H275 C281 0.950 . S
H276 C282 0.949 . S
C277 H272 0.950 . S
C277 C279 1.327 . S
C277 C283 1.429 . S
C278 C270 1.574 . S
C278 H273 0.949 . S
C278 C284 1.368 . S
C279 C263 1.349 . S
C279 H271 0.950 . S
C279 C277 1.327 . S
C280 C268 1.349 . S
C280 H274 0.950 . S
C280 C281 1.327 . S
C281 H275 0.950 . S
C281 C280 1.327 . S
C281 C285 1.429 . S
C282 C265 1.574 . S
C282 H276 0.949 . S
C282 C286 1.368 . S
C283 C264 1.429 . S
C283 C277 1.429 . S
C283 C284 1.523 . S
C284 C265 1.368 . S
C284 C278 1.368 . S
C284 C283 1.523 . S
C285 C269 1.429 . S
C285 C281 1.429 . S
C285 C286 1.523 . S
C286 C270 1.368 . S
C286 C282 1.368 . S
C286 C285 1.523 . S
H287 C262 0.950 . S
H288 C264 0.950 . S
H289 C265 0.949 . S
H290 C267 0.950 . S
H291 C269 0.950 . S
C292 C293 1.349 . S
C292 C294 1.327 . S
C292 H317 0.950 . S
C293 C292 1.349 . S
C293 C309 1.349 . S
C294 C292 1.327 . S
C294 C313 1.429 . S
C294 H318 0.950 . S
C295 C312 1.574 . S
C295 C314 1.368 . S
C295 H319 0.949 . S
H296 C300 0.949 . S
C297 C298 1.349 . S
C297 C299 1.327 . S
C297 H320 0.950 . S
C298 C297 1.349 . S
C298 C310 1.349 . S
C299 C297 1.327 . S
C299 C315 1.429 . S
C299 H321 0.950 . S
C300 H296 0.949 . S
C300 C308 1.574 . S
C300 C316 1.368 . S
H301 C309 0.950 . S
H302 C307 0.950 . S
H303 C308 0.949 . S
H304 C310 0.950 . S
H305 C311 0.950 . S
H306 C312 0.949 . S
C307 H302 0.950 . S
C307 C309 1.327 . S
C307 C313 1.429 . S
C308 C300 1.574 . S
C308 H303 0.949 . S
C308 C314 1.368 . S
C309 C293 1.349 . S
C309 H301 0.950 . S
C309 C307 1.327 . S
C310 C298 1.349 . S
C310 H304 0.950 . S
C310 C311 1.327 . S
C311 H305 0.950 . S
C311 C310 1.327 . S
C311 C315 1.429 . S
C312 C295 1.574 . S
C312 H306 0.949 . S
C312 C316 1.368 . S
C313 C294 1.429 . S
C313 C307 1.429 . S
C313 C314 1.523 . S
C314 C295 1.368 . S
C314 C308 1.368 . S
C314 C313 1.523 . S
C315 C299 1.429 . S
C315 C311 1.429 . S
C315 C316 1.523 . S
C316 C300 1.368 . S
C316 C312 1.368 . S
C316 C315 1.523 . S
H317 C292 0.950 . S
H318 C294 0.950 . S
H319 C295 0.949 . S
H320 C297 0.950 . S
H321 C299 0.950 . S
C322 C323 1.349 . S
C322 C324 1.327 . S
C322 H347 0.950 . S
C323 C322 1.349 . S
C323 C339 1.349 1_455 S
C324 C322 1.327 . S
C324 C343 1.429 . S
C324 H348 0.950 . S
C325 C342 1.574 . S
C325 C344 1.368 1_655 S
C325 H349 0.949 . S
H326 C330 0.949 . S
C327 C328 1.349 1_655 S
C327 C329 1.327 . S
C327 H350 0.950 . S
C328 C327 1.349 1_455 S
C328 C340 1.349 . S
C329 C327 1.327 . S
C329 C345 1.429 1_655 S
C329 H351 0.950 . S
C330 H326 0.949 . S
C330 C338 1.574 . S
C330 C346 1.368 . S
H331 C339 0.950 . S
H332 C337 0.950 . S
H333 C338 0.949 . S
H334 C340 0.950 . S
H335 C341 0.950 . S
H336 C342 0.949 . S
C337 H332 0.950 . S
C337 C339 1.327 . S
C337 C343 1.429 1_655 S
C338 C330 1.574 . S
C338 H333 0.949 . S
C338 C344 1.368 . S
C339 C323 1.349 1_655 S
C339 H331 0.950 . S
C339 C337 1.327 . S
C340 C328 1.349 . S
C340 H334 0.950 . S
C340 C341 1.327 . S
C341 H335 0.950 . S
C341 C340 1.327 . S
C341 C345 1.429 . S
C342 C325 1.574 . S
C342 H336 0.949 . S
C342 C346 1.368 1_655 S
C343 C324 1.429 . S
C343 C337 1.429 1_455 S
C343 C344 1.523 . S
C344 C325 1.368 1_455 S
C344 C338 1.368 . S
C344 C343 1.523 . S
C345 C329 1.429 1_455 S
C345 C341 1.429 . S
C345 C346 1.523 . S
C346 C330 1.368 . S
C346 C342 1.368 1_455 S
C346 C345 1.523 . S
H347 C322 0.950 . S
H348 C324 0.950 . S
H349 C325 0.949 . S
H350 C327 0.950 . S
H351 C329 0.950 . S
C352 C353 1.349 . S
C352 C354 1.327 . S
C352 H377 0.950 1_556 S
C353 C352 1.349 . S
C353 C369 1.349 . S
C354 C352 1.327 . S
C354 C373 1.429 . S
C354 H378 0.950 . S
C355 C372 1.574 . S
C355 C374 1.368 . S
C355 H379 0.949 . S
H356 C360 0.949 . S
C357 C358 1.349 . S
C357 C359 1.327 . S
C357 H380 0.950 . S
C358 C357 1.349 . S
C358 C370 1.349 . S
C359 C357 1.327 . S
C359 C375 1.429 . S
C359 H381 0.950 . S
C360 H356 0.949 . S
C360 C368 1.574 . S
C360 C376 1.368 . S
H361 C369 0.950 . S
H362 C367 0.950 . S
H363 C368 0.949 . S
H364 C370 0.950 1_545 S
H365 C371 0.950 . S
H366 C372 0.949 . S
C367 H362 0.950 . S
C367 C369 1.327 . S
C367 C373 1.429 . S
C368 C360 1.574 . S
C368 H363 0.949 . S
C368 C374 1.368 . S
C369 C353 1.349 . S
C369 H361 0.950 . S
C369 C367 1.327 . S
C370 C358 1.349 . S
C370 H364 0.950 1_565 S
C370 C371 1.327 . S
C371 H365 0.950 . S
C371 C370 1.327 . S
C371 C375 1.429 . S
C372 C355 1.574 . S
C372 H366 0.949 . S
C372 C376 1.368 . S
C373 C354 1.429 . S
C373 C367 1.429 . S
C373 C374 1.523 . S
C374 C355 1.368 . S
C374 C368 1.368 . S
C374 C373 1.523 . S
C375 C359 1.429 . S
C375 C371 1.429 . S
C375 C376 1.523 . S
C376 C360 1.368 . S
C376 C372 1.368 . S
C376 C375 1.523 . S
H377 C352 0.950 1_554 S
H378 C354 0.950 . S
H379 C355 0.949 . S
H380 C357 0.950 . S
H381 C359 0.950 . S
C382 C383 1.349 1_554 S
C382 C384 1.327 1_554 S
C382 H407 0.950 . S
C383 C382 1.349 1_556 S
C383 C399 1.349 . S
C384 C382 1.327 1_556 S
C384 C403 1.429 . S
C384 H408 0.950 . S
C385 C402 1.574 . S
C385 C404 1.368 . S
C385 H409 0.949 . S
H386 C390 0.949 . S
C387 C388 1.349 . S
C387 C389 1.327 . S
C387 H410 0.950 . S
C388 C387 1.349 . S
C388 C400 1.349 . S
C389 C387 1.327 . S
C389 C405 1.429 . S
C389 H411 0.950 . S
C390 H386 0.949 . S
C390 C398 1.574 . S
C390 C406 1.368 . S
H391 C399 0.950 . S
H392 C397 0.950 . S
H393 C398 0.949 . S
H394 C400 0.950 . S
H395 C401 0.950 . S
H396 C402 0.949 . S
C397 H392 0.950 . S
C397 C399 1.327 . S
C397 C403 1.429 . S
C398 C390 1.574 . S
C398 H393 0.949 . S
C398 C404 1.368 . S
C399 C383 1.349 . S
C399 H391 0.950 . S
C399 C397 1.327 . S
C400 C388 1.349 . S
C400 H394 0.950 . S
C400 C401 1.327 . S
C401 H395 0.950 . S
C401 C400 1.327 . S
C401 C405 1.429 . S
C402 C385 1.574 . S
C402 H396 0.949 . S
C402 C406 1.368 . S
C403 C384 1.429 . S
C403 C397 1.429 . S
C403 C404 1.523 . S
C404 C385 1.368 . S
C404 C398 1.368 . S
C404 C403 1.523 . S
C405 C389 1.429 . S
C405 C401 1.429 . S
C405 C406 1.523 . S
C406 C390 1.368 . S
C406 C402 1.368 . S
C406 C405 1.523 . S
H407 C382 0.950 . S
H408 C384 0.950 . S
H409 C385 0.949 . S
H410 C387 0.950 . S
H411 C389 0.950 . S
C412 C413 1.349 . S
C412 C414 1.327 . S
C412 H437 0.950 . S
C413 C412 1.349 . S
C413 C429 1.349 . S
C414 C412 1.327 . S
C414 C433 1.429 . S
C414 H438 0.950 . S
C415 C432 1.574 . S
C415 C434 1.368 . S
C415 H439 0.949 . S
H416 C420 0.949 . S
C417 C418 1.349 . S
C417 C419 1.327 . S
C417 H440 0.950 . S
C418 C417 1.349 . S
C418 C430 1.349 . S
C419 C417 1.327 . S
C419 C435 1.429 . S
C419 H441 0.950 . S
C420 H416 0.949 . S
C420 C428 1.574 . S
C420 C436 1.368 . S
H421 C429 0.950 1_554 S
H422 C427 0.950 . S
H423 C428 0.949 . S
H424 C430 0.950 . S
H425 C431 0.950 . S
H426 C432 0.949 . S
C427 H422 0.950 . S
C427 C429 1.327 . S
C427 C433 1.429 . S
C428 C420 1.574 . S
C428 H423 0.949 . S
C428 C434 1.368 . S
C429 C413 1.349 . S
C429 H421 0.950 1_556 S
C429 C427 1.327 . S
C430 C418 1.349 . S
C430 H424 0.950 . S
C430 C431 1.327 . S
C431 H425 0.950 . S
C431 C430 1.327 . S
C431 C435 1.429 . S
C432 C415 1.574 . S
C432 H426 0.949 . S
C432 C436 1.368 . S
C433 C414 1.429 . S
C433 C427 1.429 . S
C433 C434 1.523 . S
C434 C415 1.368 . S
C434 C428 1.368 . S
C434 C433 1.523 . S
C435 C419 1.429 . S
C435 C431 1.429 . S
C435 C436 1.523 . S
C436 C420 1.368 . S
C436 C432 1.368 . S
C436 C435 1.523 . S
H437 C412 0.950 . S
H438 C414 0.950 . S
H439 C415 0.949 . S
H440 C417 0.950 . S
H441 C419 0.950 . S
C442 C443 1.349 1_455 S
C442 C444 1.327 . S
C442 H467 0.950 . S
C443 C442 1.349 1_655 S
C443 C459 1.349 . S
C444 C442 1.327 . S
C444 C463 1.414 1_455 S
C444 H468 0.950 . S
C445 C462 1.574 . S
C445 C464 1.370 1_655 S
C445 H469 0.949 . S
H446 C450 0.949 . S
C447 C448 1.349 1_655 S
C447 C449 1.327 . S
C447 H470 0.950 . S
C448 C447 1.349 1_455 S
C448 C460 1.349 . S
C449 C447 1.327 . S
C449 C465 1.429 1_655 S
C449 H471 0.950 . S
C450 H446 0.949 . S
C450 C458 1.574 . S
C450 C466 1.368 . S
H451 C459 0.950 1_554 S
H452 C457 0.950 . S
H453 C458 0.949 . S
H454 C460 0.950 . S
H455 C461 0.950 . S
H456 C462 0.949 . S
C457 H452 0.950 . S
C457 C459 1.327 . S
C457 C463 1.446 . S
C458 C450 1.574 . S
C458 H453 0.949 . S
C458 C464 1.367 . S
C459 C443 1.349 . S
C459 H451 0.950 1_556 S
C459 C457 1.327 . S
C460 C448 1.349 . S
C460 H454 0.950 . S
C460 C461 1.327 . S
C461 H455 0.950 . S
C461 C460 1.327 . S
C461 C465 1.429 . S
C462 C445 1.574 . S
C462 H456 0.949 . S
C462 C466 1.368 1_655 S
C463 C444 1.414 1_655 S
C463 C457 1.446 . S
C463 C464 1.521 1_655 S
C464 C445 1.370 1_455 S
C464 C458 1.367 . S
C464 C463 1.521 1_455 S
C465 C449 1.429 1_455 S
C465 C461 1.429 . S
C465 C466 1.523 . S
C466 C450 1.368 . S
C466 C462 1.368 1_455 S
C466 C465 1.523 . S
H467 C442 0.950 . S
H468 C444 0.950 . S
H469 C445 0.949 . S
H470 C447 0.950 . S
H471 C449 0.950 . S
C472 C473 1.349 . S
C472 C474 1.327 . S
C472 H497 0.950 . S
C473 C472 1.349 . S
C473 C489 1.349 1_455 S
C474 C472 1.327 . S
C474 C493 1.429 . S
C474 H498 0.950 . S
C475 C492 1.574 . S
C475 C494 1.368 1_655 S
C475 H499 0.949 . S
H476 C480 0.949 . S
C477 C478 1.349 . S
C477 C479 1.327 . S
C477 H500 0.950 . S
C478 C477 1.349 . S
C478 C490 1.349 1_655 S
C479 C477 1.327 . S
C479 C495 1.429 . S
C479 H501 0.950 . S
C480 H476 0.949 . S
C480 C488 1.574 . S
C480 C496 1.362 1_455 S
H481 C489 0.950 . S
H482 C487 0.950 . S
H483 C488 0.949 . S
H484 C490 0.950 . S
H485 C491 0.950 . S
H486 C492 0.949 . S
C487 H482 0.950 . S
C487 C489 1.327 . S
C487 C493 1.429 1_655 S
C488 C480 1.574 . S
C488 H483 0.949 . S
C488 C494 1.368 . S
C489 C473 1.349 1_655 S
C489 H481 0.950 . S
C489 C487 1.327 . S
C490 C478 1.349 1_455 S
C490 H484 0.950 . S
C490 C491 1.327 . S
C491 H485 0.950 . S
C491 C490 1.327 . S
C491 C495 1.429 1_455 S
C492 C475 1.574 . S
C492 H486 0.949 . S
C492 C496 1.375 . S
C493 C474 1.429 . S
C493 C487 1.429 1_455 S
C493 C494 1.523 . S
C494 C475 1.368 1_455 S
C494 C488 1.368 . S
C494 C493 1.523 . S
C495 C479 1.429 . S
C495 C491 1.429 1_655 S
C495 C496 1.523 . S
C496 C480 1.362 1_655 S
C496 C492 1.375 . S
C496 C495 1.523 . S
H497 C472 0.950 . S
H498 C474 0.950 . S
H499 C475 0.949 . S
H500 C477 0.950 . S
H501 C479 0.950 . S
C502 C503 1.349 . S
C502 C504 1.327 . S
C502 H527 0.950 . S
C503 C502 1.349 . S
C503 C519 1.349 . S
C504 C502 1.327 . S
C504 C523 1.429 . S
C504 H528 0.950 . S
C505 C522 1.574 . S
C505 C524 1.368 . S
C505 H529 0.949 . S
H506 C510 0.949 . S
C507 C508 1.349 1_565 S
C507 C509 1.327 1_565 S
C507 H530 0.950 . S
C508 C507 1.349 1_545 S
C508 C520 1.349 . S
C509 C507 1.327 1_545 S
C509 C525 1.429 . S
C509 H531 0.950 1_545 S
C510 H506 0.949 . S
C510 C518 1.574 . S
C510 C526 1.368 . S
H511 C519 0.950 . S
H512 C517 0.950 . S
H513 C518 0.949 . S
H514 C520 0.950 . S
H515 C521 0.950 . S
H516 C522 0.949 . S
C517 H512 0.950 . S
C517 C519 1.327 . S
C517 C523 1.429 . S
C518 C510 1.574 . S
C518 H513 0.949 . S
C518 C524 1.368 . S
C519 C503 1.349 . S
C519 H511 0.950 . S
C519 C517 1.327 . S
C520 C508 1.349 . S
C520 H514 0.950 . S
C520 C521 1.327 . S
C521 H515 0.950 . S
C521 C520 1.327 . S
C521 C525 1.429 . S
C522 C505 1.574 . S
C522 H516 0.949 . S
C522 C526 1.368 . S
C523 C504 1.429 . S
C523 C517 1.429 . S
C523 C524 1.523 . S
C524 C505 1.368 . S
C524 C518 1.368 . S
C524 C523 1.523 . S
C525 C509 1.429 . S
C525 C521 1.429 . S
C525 C526 1.523 . S
C526 C510 1.368 . S
C526 C522 1.368 . S
C526 C525 1.523 . S
H527 C502 0.950 . S
H528 C504 0.950 . S
H529 C505 0.949 . S
H530 C507 0.950 . S
H531 C509 0.950 1_565 S
C532 C533 1.349 . S
C532 C534 1.327 . S
C532 H557 0.950 . S
C533 C532 1.349 . S
C533 C549 1.349 . S
C534 C532 1.327 . S
C534 C553 1.429 . S
C534 H558 0.950 . S
C535 C552 1.574 . S
C535 C554 1.368 . S
C535 H559 0.949 . S
H536 C540 0.949 . S
C537 C538 1.349 . S
C537 C539 1.327 . S
C537 H560 0.950 . S
C538 C537 1.349 . S
C538 C550 1.349 . S
C539 C537 1.327 . S
C539 C555 1.429 . S
C539 H561 0.950 . S
C540 H536 0.949 . S
C540 C548 1.574 . S
C540 C556 1.368 . S
H541 C549 0.950 . S
H542 C547 0.950 . S
H543 C548 0.949 . S
H544 C550 0.950 . S
H545 C551 0.950 . S
H546 C552 0.949 . S
C547 H542 0.950 . S
C547 C549 1.327 . S
C547 C553 1.429 . S
C548 C540 1.574 . S
C548 H543 0.949 . S
C548 C554 1.368 . S
C549 C533 1.349 . S
C549 H541 0.950 . S
C549 C547 1.327 . S
C550 C538 1.349 . S
C550 H544 0.950 . S
C550 C551 1.327 . S
C551 H545 0.950 . S
C551 C550 1.327 . S
C551 C555 1.429 . S
C552 C535 1.574 . S
C552 H546 0.949 . S
C552 C556 1.368 . S
C553 C534 1.429 . S
C553 C547 1.429 . S
C553 C554 1.523 . S
C554 C535 1.368 . S
C554 C548 1.368 . S
C554 C553 1.523 . S
C555 C539 1.429 . S
C555 C551 1.429 . S
C555 C556 1.523 . S
C556 C540 1.368 . S
C556 C552 1.368 . S
C556 C555 1.523 . S
H557 C532 0.950 . S
H558 C534 0.950 . S
H559 C535 0.949 . S
H560 C537 0.950 . S
H561 C539 0.950 . S
C562 C563 1.349 . S
C562 C564 1.327 . S
C562 H587 0.950 . S
C563 C562 1.349 . S
C563 C579 1.349 . S
C564 C562 1.327 . S
C564 C583 1.429 . S
C564 H588 0.950 . S
C565 C582 1.574 . S
C565 C584 1.368 . S
C565 H589 0.949 . S
H566 C570 0.949 . S
C567 C568 1.349 . S
C567 C569 1.327 . S
C567 H590 0.950 . S
C568 C567 1.349 . S
C568 C580 1.349 . S
C569 C567 1.327 . S
C569 C585 1.429 . S
C569 H591 0.950 . S
C570 H566 0.949 . S
C570 C578 1.574 . S
C570 C586 1.368 . S
H571 C579 0.950 . S
H572 C577 0.950 . S
H573 C578 0.949 . S
H574 C580 0.950 . S
H575 C581 0.950 . S
H576 C582 0.949 . S
C577 H572 0.950 . S
C577 C579 1.327 . S
C577 C583 1.429 . S
C578 C570 1.574 . S
C578 H573 0.949 . S
C578 C584 1.368 . S
C579 C563 1.349 . S
C579 H571 0.950 . S
C579 C577 1.327 . S
C580 C568 1.349 . S
C580 H574 0.950 . S
C580 C581 1.327 . S
C581 H575 0.950 . S
C581 C580 1.327 . S
C581 C585 1.429 . S
C582 C565 1.574 . S
C582 H576 0.949 . S
C582 C586 1.368 . S
C583 C564 1.429 . S
C583 C577 1.429 . S
C583 C584 1.523 . S
C584 C565 1.368 . S
C584 C578 1.368 . S
C584 C583 1.523 . S
C585 C569 1.429 . S
C585 C581 1.429 . S
C585 C586 1.523 . S
C586 C570 1.368 . S
C586 C582 1.368 . S
C586 C585 1.523 . S
H587 C562 0.950 . S
H588 C564 0.950 . S
H589 C565 0.949 . S
H590 C567 0.950 . S
H591 C569 0.950 . S
C592 C593 1.349 1_455 S
C592 C594 1.327 . S
C592 H617 0.950 1_556 S
C593 C592 1.349 1_655 S
C593 C609 1.349 . S
C594 C592 1.327 . S
C594 C613 1.429 . S
C594 H618 0.950 . S
C595 C612 1.574 . S
C595 C614 1.368 1_655 S
C595 H619 0.949 . S
H596 C600 0.949 . S
C597 C598 1.349 . S
C597 C599 1.327 . S
C597 H620 0.955 . S
C598 C597 1.349 . S
C598 C610 1.349 . S
C599 C597 1.327 . S
C599 C615 1.429 . S
C599 H621 0.950 1_455 S
C600 H596 0.949 . S
C600 C608 1.574 . S
C600 C616 1.368 . S
H601 C609 0.950 . S
H602 C607 0.950 . S
H603 C608 0.949 . S
H604 C610 0.950 . S
H605 C611 0.950 . S
H606 C612 0.949 . S
C607 H602 0.950 . S
C607 C609 1.327 . S
C607 C613 1.429 1_655 S
C608 C600 1.574 . S
C608 H603 0.949 . S
C608 C614 1.368 . S
C609 C593 1.349 . S
C609 H601 0.950 . S
C609 C607 1.327 . S
C610 C598 1.349 . S
C610 H604 0.950 . S
C610 C611 1.327 . S
C611 H605 0.950 . S
C611 C610 1.327 . S
C611 C615 1.429 . S
C612 C595 1.574 . S
C612 H606 0.949 . S
C612 C616 1.368 1_655 S
C613 C594 1.429 . S
C613 C607 1.429 1_455 S
C613 C614 1.523 . S
C614 C595 1.368 1_455 S
C614 C608 1.368 . S
C614 C613 1.523 . S
C615 C599 1.429 . S
C615 C611 1.429 . S
C615 C616 1.523 . S
C616 C600 1.368 . S
C616 C612 1.368 1_455 S
C616 C615 1.523 . S
H617 C592 0.950 1_554 S
H618 C594 0.950 . S
H619 C595 0.949 . S
H620 C597 0.955 . S
H621 C599 0.950 1_655 S
C622 C623 1.349 . S
C622 C624 1.327 . S
C622 H647 0.950 . S
C623 C622 1.349 . S
C623 C639 1.349 . S
C624 C622 1.327 . S
C624 C643 1.429 . S
C624 H648 0.950 . S
C625 C642 1.574 . S
C625 C644 1.368 . S
C625 H649 0.949 . S
H626 C630 0.948 1_545 S
C627 C628 1.349 . S
C627 C629 1.327 . S
C627 H650 0.950 . S
C628 C627 1.349 . S
C628 C640 1.349 1_565 S
C629 C627 1.327 . S
C629 C645 1.429 . S
C629 H651 0.950 . S
C630 H626 0.948 1_565 S
C630 C638 1.574 . S
C630 C646 1.368 . S
H631 C639 0.950 1_554 S
H632 C637 0.950 . S
H633 C638 0.949 . S
H634 C640 0.950 . S
H635 C641 0.950 . S
H636 C642 0.949 . S
C637 H632 0.950 . S
C637 C639 1.327 . S
C637 C643 1.429 . S
C638 C630 1.574 . S
C638 H633 0.949 . S
C638 C644 1.368 . S
C639 C623 1.349 . S
C639 H631 0.950 1_556 S
C639 C637 1.327 . S
C640 C628 1.349 1_545 S
C640 H634 0.950 . S
C640 C641 1.327 . S
C641 H635 0.950 . S
C641 C640 1.327 . S
C641 C645 1.429 1_545 S
C642 C625 1.574 . S
C642 H636 0.949 . S
C642 C646 1.368 . S
C643 C624 1.429 . S
C643 C637 1.429 . S
C643 C644 1.523 . S
C644 C625 1.368 . S
C644 C638 1.368 . S
C644 C643 1.523 . S
C645 C629 1.429 . S
C645 C641 1.429 1_565 S
C645 C646 1.523 . S
C646 C630 1.368 . S
C646 C642 1.368 . S
C646 C645 1.523 . S
H647 C622 0.950 . S
H648 C624 0.950 . S
H649 C625 0.949 . S
H650 C627 0.950 . S
H651 C629 0.950 . S
C652 C653 1.349 . S
C652 C654 1.327 . S
C652 H677 0.950 . S
C653 C652 1.349 . S
C653 C669 1.349 1_554 S
C654 C652 1.327 . S
C654 C673 1.429 1_554 S
C654 H678 0.950 . S
C655 C672 1.574 . S
C655 C674 1.368 . S
C655 H679 0.949 . S
H656 C660 0.949 . S
C657 C658 1.349 . S
C657 C659 1.327 . S
C657 H680 0.950 . S
C658 C657 1.349 . S
C658 C670 1.349 . S
C659 C657 1.327 . S
C659 C675 1.429 . S
C659 H681 0.950 . S
C660 H656 0.949 . S
C660 C668 1.574 . S
C660 C676 1.368 . S
H661 C669 0.950 . S
H662 C667 0.950 . S
H663 C668 0.949 . S
H664 C670 0.950 . S
H665 C671 0.950 . S
H666 C672 0.949 . S
C667 H662 0.950 . S
C667 C669 1.327 . S
C667 C673 1.429 . S
C668 C660 1.574 . S
C668 H663 0.949 . S
C668 C674 1.368 . S
C669 C653 1.349 1_556 S
C669 H661 0.950 . S
C669 C667 1.327 . S
C670 C658 1.349 . S
C670 H664 0.950 . S
C670 C671 1.327 . S
C671 H665 0.950 . S
C671 C670 1.327 . S
C671 C675 1.429 . S
C672 C655 1.574 . S
C672 H666 0.949 . S
C672 C676 1.368 . S
C673 C654 1.429 1_556 S
C673 C667 1.429 . S
C673 C674 1.523 . S
C674 C655 1.368 . S
C674 C668 1.368 . S
C674 C673 1.523 . S
C675 C659 1.429 . S
C675 C671 1.429 . S
C675 C676 1.523 . S
C676 C660 1.368 . S
C676 C672 1.368 . S
C676 C675 1.523 . S
H677 C652 0.950 . S
H678 C654 0.950 . S
H679 C655 0.949 . S
H680 C657 0.950 . S
H681 C659 0.950 . S
C682 C683 1.349 . S
C682 C684 1.327 . S
C682 H707 0.950 . S
C683 C682 1.349 . S
C683 C699 1.349 . S
C684 C682 1.327 . S
C684 C703 1.429 . S
C684 H708 0.950 . S
C685 C702 1.574 . S
C685 C704 1.368 . S
C685 H709 0.949 . S
H686 C690 0.949 . S
C687 C688 1.349 . S
C687 C689 1.327 . S
C687 H710 0.950 . S
C688 C687 1.349 . S
C688 C700 1.349 . S
C689 C687 1.327 . S
C689 C705 1.429 . S
C689 H711 0.950 . S
C690 H686 0.949 . S
C690 C698 1.574 . S
C690 C706 1.368 . S
H691 C699 0.950 1_554 S
H692 C697 0.950 . S
H693 C698 0.949 . S
H694 C700 0.950 . S
H695 C701 0.950 . S
H696 C702 0.949 . S
C697 H692 0.950 . S
C697 C699 1.327 . S
C697 C703 1.429 . S
C698 C690 1.574 . S
C698 H693 0.949 . S
C698 C704 1.368 . S
C699 C683 1.349 . S
C699 H691 0.950 1_556 S
C699 C697 1.327 . S
C700 C688 1.349 . S
C700 H694 0.950 . S
C700 C701 1.327 . S
C701 H695 0.950 . S
C701 C700 1.327 . S
C701 C705 1.429 . S
C702 C685 1.574 . S
C702 H696 0.949 . S
C702 C706 1.368 . S
C703 C684 1.429 . S
C703 C697 1.429 . S
C703 C704 1.523 . S
C704 C685 1.368 . S
C704 C698 1.368 . S
C704 C703 1.523 . S
C705 C689 1.429 . S
C705 C701 1.429 . S
C705 C706 1.523 . S
C706 C690 1.368 . S
C706 C702 1.368 . S
C706 C705 1.523 . S
H707 C682 0.950 . S
H708 C684 0.950 . S
H709 C685 0.949 . S
H710 C687 0.950 . S
H711 C689 0.950 . S
C712 C713 1.349 1_655 S
C712 C714 1.327 . S
C712 H737 0.950 1_556 S
C713 C712 1.349 1_455 S
C713 C729 1.349 . S
C714 C712 1.327 . S
C714 C733 1.429 1_655 S
C714 H738 0.950 . S
C715 C732 1.574 . S
C715 C734 1.368 . S
C715 H739 0.949 . S
H716 C720 0.949 . S
C717 C718 1.349 . S
C717 C719 1.327 . S
C717 H740 0.950 . S
C718 C717 1.349 . S
C718 C730 1.349 1_455 S
C719 C717 1.327 . S
C719 C735 1.429 . S
C719 H741 0.950 . S
C720 H716 0.949 . S
C720 C728 1.574 . S
C720 C736 1.368 1_655 S
H721 C729 0.950 . S
H722 C727 0.950 . S
H723 C728 0.949 . S
H724 C730 0.950 . S
H725 C731 0.950 . S
H726 C732 0.949 . S
C727 H722 0.950 . S
C727 C729 1.327 . S
C727 C733 1.429 . S
C728 C720 1.574 . S
C728 H723 0.949 . S
C728 C734 1.368 1_655 S
C729 C713 1.349 . S
C729 H721 0.950 . S
C729 C727 1.327 . S
C730 C718 1.349 1_655 S
C730 H724 0.950 . S
C730 C731 1.327 . S
C731 H725 0.950 . S
C731 C730 1.327 . S
C731 C735 1.429 1_655 S
C732 C715 1.574 . S
C732 H726 0.949 . S
C732 C736 1.368 . S
C733 C714 1.429 1_455 S
C733 C727 1.429 . S
C733 C734 1.523 . S
C734 C715 1.368 . S
C734 C728 1.368 1_455 S
C734 C733 1.523 . S
C735 C719 1.429 . S
C735 C731 1.429 1_455 S
C735 C736 1.523 . S
C736 C720 1.368 1_455 S
C736 C732 1.368 . S
C736 C735 1.523 . S
H737 C712 0.950 1_554 S
H738 C714 0.950 . S
H739 C715 0.949 . S
H740 C717 0.950 . S
H741 C719 0.950 . S
C742 C743 1.349 . S
C742 C744 1.327 1_554 S
C742 H767 0.950 . S
C743 C742 1.349 . S
C743 C759 1.349 1_554 S
C744 C742 1.327 1_556 S
C744 C763 1.429 . S
C744 H768 0.950 . S
C745 C762 1.574 . S
C745 C764 1.368 . S
C745 H769 0.949 . S
H746 C750 0.949 . S
C747 C748 1.344 1_565 S
C747 C749 1.326 1_565 S
C747 H770 0.956 . S
C748 C747 1.344 1_545 S
C748 C760 1.349 . S
C749 C747 1.326 1_545 S
C749 C765 1.429 . S
C749 H771 0.950 1_545 S
C750 H746 0.949 . S
C750 C758 1.574 . S
C750 C766 1.368 . S
H751 C759 0.950 . S
H752 C757 0.950 . S
H753 C758 0.949 . S
H754 C760 0.950 . S
H755 C761 0.950 . S
H756 C762 0.949 1_565 S
C757 H752 0.950 . S
C757 C759 1.327 . S
C757 C763 1.429 . S
C758 C750 1.574 . S
C758 H753 0.949 . S
C758 C764 1.368 . S
C759 C743 1.349 1_556 S
C759 H751 0.950 . S
C759 C757 1.327 . S
C760 C748 1.349 . S
C760 H754 0.950 . S
C760 C761 1.327 . S
C761 H755 0.950 . S
C761 C760 1.327 . S
C761 C765 1.429 . S
C762 C745 1.574 . S
C762 H756 0.949 1_545 S
C762 C766 1.368 . S
C763 C744 1.429 . S
C763 C757 1.429 . S
C763 C764 1.523 . S
C764 C745 1.368 . S
C764 C758 1.368 . S
C764 C763 1.523 . S
C765 C749 1.429 . S
C765 C761 1.429 . S
C765 C766 1.523 . S
C766 C750 1.368 . S
C766 C762 1.368 . S
C766 C765 1.523 . S
H767 C742 0.950 . S
H768 C744 0.950 . S
H769 C745 0.949 . S
H770 C747 0.956 . S
H771 C749 0.950 1_565 S
C772 C773 1.349 . S
C772 C774 1.327 . S
C772 H797 0.950 1_556 S
C773 C772 1.349 . S
C773 C789 1.349 . S
C774 C772 1.327 . S
C774 C793 1.429 . S
C774 H798 0.950 . S
C775 C792 1.574 . S
C775 C794 1.368 . S
C775 H799 0.949 . S
H776 C780 0.949 . S
C777 C778 1.349 . S
C777 C779 1.327 . S
C777 H800 0.950 . S
C778 C777 1.349 . S
C778 C790 1.349 . S
C779 C777 1.327 . S
C779 C795 1.429 . S
C779 H801 0.950 . S
C780 H776 0.949 . S
C780 C788 1.574 . S
C780 C796 1.368 . S
H781 C789 0.950 . S
H782 C787 0.950 . S
H783 C788 0.949 . S
H784 C790 0.950 . S
H785 C791 0.950 . S
H786 C792 0.949 . S
C787 H782 0.950 . S
C787 C789 1.327 . S
C787 C793 1.429 . S
C788 C780 1.574 . S
C788 H783 0.949 . S
C788 C794 1.368 . S
C789 C773 1.349 . S
C789 H781 0.950 . S
C789 C787 1.327 . S
C790 C778 1.349 . S
C790 H784 0.950 . S
C790 C791 1.327 . S
C791 H785 0.950 . S
C791 C790 1.327 . S
C791 C795 1.429 . S
C792 C775 1.574 . S
C792 H786 0.949 . S
C792 C796 1.368 . S
C793 C774 1.429 . S
C793 C787 1.429 . S
C793 C794 1.523 . S
C794 C775 1.368 . S
C794 C788 1.368 . S
C794 C793 1.523 . S
C795 C779 1.429 . S
C795 C791 1.429 . S
C795 C796 1.523 . S
C796 C780 1.368 . S
C796 C792 1.368 . S
C796 C795 1.523 . S
H797 C772 0.950 1_554 S
H798 C774 0.950 . S
H799 C775 0.949 . S
H800 C777 0.950 . S
H801 C779 0.950 . S
C802 C803 1.349 . S
C802 C804 1.327 . S
C802 H827 0.950 . S
C803 C802 1.349 . S
C803 C819 1.349 . S
C804 C802 1.327 . S
C804 C823 1.429 . S
C804 H828 0.950 . S
C805 C822 1.574 . S
C805 C824 1.368 . S
C805 H829 0.949 . S
H806 C810 0.949 . S
C807 C808 1.349 . S
C807 C809 1.327 . S
C807 H830 0.950 . S
C808 C807 1.349 . S
C808 C820 1.349 . S
C809 C807 1.327 . S
C809 C825 1.429 . S
C809 H831 0.950 . S
C810 H806 0.949 . S
C810 C818 1.574 . S
C810 C826 1.368 . S
H811 C819 0.950 . S
H812 C817 0.950 . S
H813 C818 0.949 . S
H814 C820 0.950 . S
H815 C821 0.950 . S
H816 C822 0.949 . S
C817 H812 0.950 . S
C817 C819 1.327 . S
C817 C823 1.429 . S
C818 C810 1.574 . S
C818 H813 0.949 . S
C818 C824 1.368 . S
C819 C803 1.349 . S
C819 H811 0.950 . S
C819 C817 1.327 . S
C820 C808 1.349 . S
C820 H814 0.950 . S
C820 C821 1.327 . S
C821 H815 0.950 . S
C821 C820 1.327 . S
C821 C825 1.429 . S
C822 C805 1.574 . S
C822 H816 0.949 . S
C822 C826 1.368 . S
C823 C804 1.429 . S
C823 C817 1.429 . S
C823 C824 1.523 . S
C824 C805 1.368 . S
C824 C818 1.368 . S
C824 C823 1.523 . S
C825 C809 1.429 . S
C825 C821 1.429 . S
C825 C826 1.523 . S
C826 C810 1.368 . S
C826 C822 1.368 . S
C826 C825 1.523 . S
H827 C802 0.950 . S
H828 C804 0.950 . S
H829 C805 0.949 . S
H830 C807 0.950 . S
H831 C809 0.950 . S
C832 C833 1.349 . S
C832 C834 1.327 . S
C832 H857 0.950 . S
C833 C832 1.349 . S
C833 C849 1.349 1_655 S
C834 C832 1.327 . S
C834 C853 1.429 . S
C834 H858 0.950 . S
C835 C852 1.574 . S
C835 C854 1.368 1_455 S
C835 H859 0.949 . S
H836 C840 0.949 . S
C837 C838 1.349 1_455 S
C837 C839 1.327 . S
C837 H860 0.950 . S
C838 C837 1.349 1_655 S
C838 C850 1.349 . S
C839 C837 1.327 . S
C839 C855 1.429 1_455 S
C839 H861 0.950 . S
C840 H836 0.949 . S
C840 C848 1.574 . S
C840 C856 1.368 . S
H841 C849 0.950 . S
H842 C847 0.950 . S
H843 C848 0.949 . S
H844 C850 0.950 . S
H845 C851 0.950 . S
H846 C852 0.949 . S
C847 H842 0.950 . S
C847 C849 1.327 . S
C847 C853 1.429 1_455 S
C848 C840 1.574 . S
C848 H843 0.949 . S
C848 C854 1.368 . S
C849 C833 1.349 1_455 S
C849 H841 0.950 . S
C849 C847 1.327 . S
C850 C838 1.349 . S
C850 H844 0.950 . S
C850 C851 1.327 . S
C851 H845 0.950 . S
C851 C850 1.327 . S
C851 C855 1.429 . S
C852 C835 1.574 . S
C852 H846 0.949 . S
C852 C856 1.368 1_455 S
C853 C834 1.429 . S
C853 C847 1.429 1_655 S
C853 C854 1.523 . S
C854 C835 1.368 1_655 S
C854 C848 1.368 . S
C854 C853 1.523 . S
C855 C839 1.429 1_655 S
C855 C851 1.429 . S
C855 C856 1.523 . S
C856 C840 1.368 . S
C856 C852 1.368 1_655 S
C856 C855 1.523 . S
H857 C832 0.950 . S
H858 C834 0.950 . S
H859 C835 0.949 . S
H860 C837 0.950 . S
H861 C839 0.950 . S
C862 C863 1.349 . S
C862 C864 1.327 . S
C862 H887 0.950 . S
C863 C862 1.349 . S
C863 C879 1.349 . S
C864 C862 1.327 . S
C864 C883 1.429 . S
C864 H888 0.950 . S
C865 C882 1.574 . S
C865 C884 1.368 . S
C865 H889 0.949 1_565 S
H866 C870 0.949 . S
C867 C868 1.349 1_545 S
C867 C869 1.327 . S
C867 H890 0.950 . S
C868 C867 1.349 1_565 S
C868 C880 1.349 . S
C869 C867 1.327 . S
C869 C885 1.429 1_545 S
C869 H891 0.950 . S
C870 H866 0.949 . S
C870 C878 1.574 . S
C870 C886 1.368 . S
H871 C879 0.950 . S
H872 C877 0.950 . S
H873 C878 0.949 . S
H874 C880 0.950 . S
H875 C881 0.950 . S
H876 C882 0.949 1_545 S
C877 H872 0.950 . S
C877 C879 1.327 . S
C877 C883 1.429 . S
C878 C870 1.574 . S
C878 H873 0.949 . S
C878 C884 1.368 . S
C879 C863 1.349 . S
C879 H871 0.950 . S
C879 C877 1.327 . S
C880 C868 1.349 . S
C880 H874 0.950 . S
C880 C881 1.327 . S
C881 H875 0.950 . S
C881 C880 1.327 . S
C881 C885 1.429 . S
C882 C865 1.574 . S
C882 H876 0.949 1_565 S
C882 C886 1.368 . S
C883 C864 1.429 . S
C883 C877 1.429 . S
C883 C884 1.523 . S
C884 C865 1.368 . S
C884 C878 1.368 . S
C884 C883 1.523 . S
C885 C869 1.429 1_565 S
C885 C881 1.429 . S
C885 C886 1.523 . S
C886 C870 1.368 . S
C886 C882 1.368 . S
C886 C885 1.523 . S
H887 C862 0.950 . S
H888 C864 0.950 . S
H889 C865 0.949 1_545 S
H890 C867 0.950 . S
H891 C869 0.950 . S
C892 C893 1.349 . S
C892 C894 1.327 . S
C892 H917 0.950 . S
C893 C892 1.349 . S
C893 C909 1.349 . S
C894 C892 1.327 . S
C894 C913 1.429 . S
C894 H918 0.950 . S
C895 C912 1.574 . S
C895 C914 1.368 . S
C895 H919 0.949 . S
H896 C900 0.949 . S
C897 C898 1.349 . S
C897 C899 1.327 . S
C897 H920 0.950 . S
C898 C897 1.349 . S
C898 C910 1.349 . S
C899 C897 1.327 . S
C899 C915 1.429 . S
C899 H921 0.950 . S
C900 H896 0.949 . S
C900 C908 1.574 . S
C900 C916 1.368 . S
H901 C909 0.950 . S
H902 C907 0.950 . S
H903 C908 0.949 . S
H904 C910 0.950 . S
H905 C911 0.950 . S
H906 C912 0.949 . S
C907 H902 0.950 . S
C907 C909 1.327 . S
C907 C913 1.429 . S
C908 C900 1.574 . S
C908 H903 0.949 . S
C908 C914 1.368 . S
C909 C893 1.349 . S
C909 H901 0.950 . S
C909 C907 1.327 . S
C910 C898 1.349 . S
C910 H904 0.950 . S
C910 C911 1.327 . S
C911 H905 0.950 . S
C911 C910 1.327 . S
C911 C915 1.429 . S
C912 C895 1.574 . S
C912 H906 0.949 . S
C912 C916 1.368 . S
C913 C894 1.429 . S
C913 C907 1.429 . S
C913 C914 1.523 . S
C914 C895 1.368 . S
C914 C908 1.368 . S
C914 C913 1.523 . S
C915 C899 1.429 . S
C915 C911 1.429 . S
C915 C916 1.523 . S
C916 C900 1.368 . S
C916 C912 1.368 . S
C916 C915 1.523 . S
H917 C892 0.950 . S
H918 C894 0.950 . S
H919 C895 0.949 . S
H920 C897 0.950 . S
H921 C899 0.950 . S
C922 C923 1.349 . S
C922 C924 1.327 . S
C922 H947 0.950 . S
C923 C922 1.349 . S
C923 C939 1.349 . S
C924 C922 1.327 . S
C924 C943 1.429 . S
C924 H948 0.950 . S
C925 C942 1.574 . S
C925 C944 1.368 . S
C925 H949 0.949 . S
H926 C930 0.949 . S
C927 C928 1.349 . S
C927 C929 1.327 . S
C927 H950 0.950 . S
C928 C927 1.349 . S
C928 C940 1.349 . S
C929 C927 1.327 . S
C929 C945 1.429 . S
C929 H951 0.950 . S
C930 H926 0.949 . S
C930 C938 1.574 . S
C930 C946 1.368 . S
H931 C939 0.950 . S
H932 C937 0.950 . S
H933 C938 0.949 . S
H934 C940 0.950 . S
H935 C941 0.950 . S
H936 C942 0.949 . S
C937 H932 0.950 . S
C937 C939 1.327 . S
C937 C943 1.429 . S
C938 C930 1.574 . S
C938 H933 0.949 . S
C938 C944 1.368 . S
C939 C923 1.349 . S
C939 H931 0.950 . S
C939 C937 1.327 . S
C940 C928 1.349 . S
C940 H934 0.950 . S
C940 C941 1.327 . S
C941 H935 0.950 . S
C941 C940 1.327 . S
C941 C945 1.429 . S
C942 C925 1.574 . S
C942 H936 0.949 . S
C942 C946 1.368 . S
C943 C924 1.429 . S
C943 C937 1.429 . S
C943 C944 1.523 . S
C944 C925 1.368 . S
C944 C938 1.368 . S
C944 C943 1.523 . S
C945 C929 1.429 . S
C945 C941 1.429 . S
C945 C946 1.523 . S
C946 C930 1.368 . S
C946 C942 1.368 . S
C946 C945 1.523 . S
H947 C922 0.950 . S
H948 C924 0.950 . S
H949 C925 0.949 . S
H950 C927 0.950 . S
H951 C929 0.950 . S
C233 C125 1.629 . S
C238 C160 1.737 . S
C268 C190 1.866 . S
C263 C144 1.782 . S
C298 C200 1.468 . S
C293 C87 1.418 . S
C328 C220 1.329 1_455 S
C323 C106 1.279 . S
C358 C161 1.746 . S
C353 C49 1.705 . S
C383 C68 1.850 1_556 S
C388 C191 1.866 . S
C413 C11 1.427 1_556 S
C418 C201 1.468 . S
C443 C30 1.287 . S
C448 C221 1.327 . S
C478 C153 0.764 . S
C473 C97 0.762 . S
C508 C174 0.401 . S
C503 C116 0.512 . S
C538 C193 0.969 . S
C533 C135 0.950 . S
C563 C78 0.638 . S
C568 C213 0.620 . S
C593 C21 0.762 . S
C598 C154 0.764 . S
C628 C173 0.379 1_565 S
C623 C40 0.510 . S
C658 C194 0.969 . S
C653 C59 0.950 . S
C683 C2 0.638 1_556 S
C688 C214 0.620 . S
C713 C101 1.509 1_556 S
C718 C171 1.561 . S
C743 C120 1.331 . S
C748 C181 1.392 . S
C778 C211 1.795 . S
C773 C139 1.714 . S
C808 C231 1.797 . S
C803 C82 1.732 1_556 S
C833 C25 1.509 . S
C838 C170 1.563 . S
C868 C180 1.392 . S
C863 C44 1.334 . S
C898 C210 1.795 . S
C893 C63 1.717 . S
C923 C6 1.732 . S
C928 C230 1.797 . S
