# Generated by pormake.
# Topology zzz, (3,6)-cn, num edge types: 1
# Building blocks:
#     Node 0, Type 0, BuildingBlock: ESEHIV_clean_linker_0, # of connection points: 3
#     Node 1, Type 0, BuildingBlock: ESEHIV_clean_linker_0, # of connection points: 3
#     Node 2, Type 0, BuildingBlock: ESEHIV_clean_linker_0, # of connection points: 3
#     Node 3, Type 0, BuildingBlock: ESEHIV_clean_linker_0, # of connection points: 3
#     Node 4, Type 0, BuildingBlock: ESEHIV_clean_linker_0, # of connection points: 3
#     Node 5, Type 0, BuildingBlock: ESEHIV_clean_linker_0, # of connection points: 3
#     Node 6, Type 0, BuildingBlock: ESEHIV_clean_linker_0, # of connection points: 3
#     Node 7, Type 0, BuildingBlock: ESEHIV_clean_linker_0, # of connection points: 3
#     Node 8, Type 1, BuildingBlock: KUMBUR_clean_sbu_0, # of connection points: 6
#     Node 9, Type 1, BuildingBlock: KUMBUR_clean_sbu_0, # of connection points: 6
#     Node 10, Type 1, BuildingBlock: KUMBUR_clean_sbu_0, # of connection points: 6
#     Node 11, Type 1, BuildingBlock: KUMBUR_clean_sbu_0, # of connection points: 6
#     Edge 12, Type (0, 1), BuildingBlock: ZUJKAS_clean_linker_0, # of connection points: 2
#     Edge 13, Type (0, 1), BuildingBlock: ZUJKAS_clean_linker_0, # of connection points: 2
#     Edge 14, Type (0, 1), BuildingBlock: ZUJKAS_clean_linker_0, # of connection points: 2
#     Edge 15, Type (0, 1), BuildingBlock: ZUJKAS_clean_linker_0, # of connection points: 2
#     Edge 16, Type (0, 1), BuildingBlock: ZUJKAS_clean_linker_0, # of connection points: 2
#     Edge 17, Type (0, 1), BuildingBlock: ZUJKAS_clean_linker_0, # of connection points: 2
#     Edge 18, Type (0, 1), BuildingBlock: ZUJKAS_clean_linker_0, # of connection points: 2
#     Edge 19, Type (0, 1), BuildingBlock: ZUJKAS_clean_linker_0, # of connection points: 2
#     Edge 20, Type (0, 1), BuildingBlock: ZUJKAS_clean_linker_0, # of connection points: 2
#     Edge 21, Type (0, 1), BuildingBlock: ZUJKAS_clean_linker_0, # of connection points: 2
#     Edge 22, Type (0, 1), BuildingBlock: ZUJKAS_clean_linker_0, # of connection points: 2
#     Edge 23, Type (0, 1), BuildingBlock: ZUJKAS_clean_linker_0, # of connection points: 2
#     Edge 24, Type (0, 1), BuildingBlock: ZUJKAS_clean_linker_0, # of connection points: 2
#     Edge 25, Type (0, 1), BuildingBlock: ZUJKAS_clean_linker_0, # of connection points: 2
#     Edge 26, Type (0, 1), BuildingBlock: ZUJKAS_clean_linker_0, # of connection points: 2
#     Edge 27, Type (0, 1), BuildingBlock: ZUJKAS_clean_linker_0, # of connection points: 2
#     Edge 28, Type (0, 1), BuildingBlock: ZUJKAS_clean_linker_0, # of connection points: 2
#     Edge 29, Type (0, 1), BuildingBlock: ZUJKAS_clean_linker_0, # of connection points: 2
#     Edge 30, Type (0, 1), BuildingBlock: ZUJKAS_clean_linker_0, # of connection points: 2
#     Edge 31, Type (0, 1), BuildingBlock: ZUJKAS_clean_linker_0, # of connection points: 2
#     Edge 32, Type (0, 1), BuildingBlock: ZUJKAS_clean_linker_0, # of connection points: 2
#     Edge 33, Type (0, 1), BuildingBlock: ZUJKAS_clean_linker_0, # of connection points: 2
#     Edge 34, Type (0, 1), BuildingBlock: ZUJKAS_clean_linker_0, # of connection points: 2
#     Edge 35, Type (0, 1), BuildingBlock: ZUJKAS_clean_linker_0, # of connection points: 2
# Relax obj value: 0.296
# Max RMSD: 0.224
# Mean RMSD: 0.211
data_MOF--net-zzz--node1-KUMBUR_clean_sbu_0--node2-ESEHIV_clean_linker_0--edge1-ZUJKAS_clean_linker_0
_symmetry_space_group_name_H-M    P1
_symmetry_Int_Tables_number       1
_symmetry_cell_setting            triclinic
loop_
_symmetry_equiv_pos_as_xyz
'x, y, z'
_cell_length_a     58.012641
_cell_length_b     57.960049
_cell_length_c     20.264972
_cell_angle_alpha  90.395182
_cell_angle_beta   90.139297
_cell_angle_gamma 89.914439
loop_
_atom_site_label
_atom_site_type_symbol
_atom_site_fract_x
_atom_site_fract_y
_atom_site_fract_z
_atom_type_partial_charge
H0 H 0.79654 0.57369 0.15585 0.0
H1 H 0.73808 0.58229 0.02812 0.0
H2 H 0.7357 0.53284 0.18641 0.0
C3 C 0.77881 0.56969 0.14304 0.0
C4 C 0.76725 0.55275 0.17901 0.0
C5 C 0.76862 0.58018 0.08817 0.0
C6 C 0.74596 0.57429 0.07085 0.0
C7 C 0.73371 0.5574 0.10589 0.0
C8 C 0.74465 0.54624 0.15976 0.0
H9 H 0.94202 0.80191 0.13403 0.0
H10 H 0.94779 0.74557 0.99694 0.0
H11 H 0.9944 0.75011 0.1622 0.0
C12 C 0.95046 0.78611 0.11835 0.0
C13 C 0.96992 0.77844 0.15333 0.0
C14 C 0.94337 0.77551 0.05942 0.0
C15 C 0.95304 0.75412 0.04227 0.0
C16 C 0.97054 0.7441 0.08076 0.0
C17 C 0.97959 0.75668 0.13566 0.0
H18 H 0.71694 0.94448 0.17895 0.0
H19 H 0.77248 0.94202 0.03968 0.0
H20 H 0.77476 0.99031 0.20254 0.0
C21 C 0.73398 0.94998 0.16377 0.0
C22 C 0.74492 0.96771 0.19929 0.0
C23 C 0.74354 0.94092 0.10571 0.0
C24 C 0.76505 0.94896 0.08472 0.0
C25 C 0.77665 0.96661 0.11908 0.0
C26 C 0.76643 0.97618 0.17671 0.0
H27 H 0.58682 0.72283 0.14428 0.0
H28 H 0.55472 0.78593 0.21034 0.0
H29 H 0.5844 0.78147 0.01627 0.0
C30 C 0.58215 0.74066 0.1355 0.0
C31 C 0.58685 0.75046 0.07387 0.0
C32 C 0.5703 0.75297 0.18489 0.0
C33 C 0.56396 0.7762 0.17301 0.0
C34 C 0.57022 0.78687 0.11296 0.0
C35 C 0.58126 0.7737 0.06389 0.0
H36 H 0.22534 0.45866 0.11804 0.0
H37 H 0.28736 0.45595 0.23393 0.0
H38 H 0.28847 0.48663 0.04097 0.0
C39 C 0.24365 0.46196 0.12343 0.0
C40 C 0.25537 0.47306 0.07225 0.0
C41 C 0.25488 0.45598 0.18227 0.0
C42 C 0.2786 0.45998 0.1881 0.0
C43 C 0.29103 0.4707 0.13756 0.0
C44 C 0.27926 0.47766 0.07948 0.0
H45 H 0.06883 0.2171 0.09811 0.0
H46 H 0.06777 0.27654 0.22549 0.0
H47 H 0.02419 0.2744 0.05274 0.0
C48 C 0.06285 0.23449 0.10863 0.0
C49 C 0.04628 0.24446 0.0671 0.0
C50 C 0.07035 0.2457 0.16621 0.0
C51 C 0.06199 0.26783 0.18087 0.0
C52 C 0.04555 0.27855 0.14043 0.0
C53 C 0.03733 0.26663 0.08351 0.0
H54 H 0.30166 0.08032 0.08319 0.0
H55 H 0.24119 0.08364 0.20506 0.0
H56 H 0.24388 0.03621 0.04049 0.0
C57 C 0.28406 0.07519 0.09339 0.0
C58 C 0.2739 0.05819 0.05332 0.0
C59 C 0.27271 0.08415 0.14902 0.0
C60 C 0.25023 0.0767 0.16254 0.0
C61 C 0.23965 0.05943 0.12429 0.0
C62 C 0.25166 0.04987 0.06964 0.0
H63 H 0.43774 0.30213 0.07183 0.0
H64 H 0.47797 0.2411 0.03288 0.0
H65 H 0.4365 0.24593 0.20867 0.0
C66 C 0.44255 0.28464 0.08473 0.0
C67 C 0.43492 0.27542 0.14462 0.0
C68 C 0.45791 0.27256 0.04364 0.0
C69 C 0.4657 0.25046 0.06316 0.0
C70 C 0.45768 0.2407 0.12273 0.0
C71 C 0.44229 0.25327 0.16252 0.0
Tb72 Tb 0.032 1.00295 0.68216 0.0
C73 C 0.94369 0.98491 0.52047 0.0
C74 C 0.95487 0.96178 0.42621 0.0
C75 C 0.91614 0.95844 0.47033 0.0
C76 C 0.96019 0.97828 0.47557 0.0
C77 C 0.92131 0.97544 0.51778 0.0
C78 C 0.93291 0.95162 0.42458 0.0
C79 C 0.91032 1.0015 0.60563 0.0
N80 N 0.94934 1.00136 0.56529 0.0
C81 C 0.9327 0.01043 0.60602 0.0
C82 C 0.90466 0.9837 0.56184 0.0
Tb83 Tb 0.98678 0.01443 0.56487 0.0
N84 N 0.98128 0.98836 0.47937 0.0
C85 C 0.99739 0.98345 0.43194 0.0
C86 C 0.97168 0.95616 0.37956 0.0
C87 C 0.99295 0.96721 0.38215 0.0
H88 H 0.93691 0.02409 0.64047 0.0
H89 H 1.00608 0.9631 0.34604 0.0
H90 H 0.92862 0.93877 0.38748 0.0
H91 H 0.89749 0.00832 0.63921 0.0
H92 H 0.01413 0.99116 0.43254 0.0
H93 H 0.01647 0.05562 0.90021 0.0
H94 H 0.96834 0.94351 0.3411 0.0
H95 H 0.08181 0.98947 0.61035 0.0
H96 H 0.00796 0.02549 0.81923 0.0
H97 H 0.1216 1.00405 0.60834 0.0
H98 H 0.89912 0.95081 0.46779 0.0
H99 H 0.05349 0.07658 0.89597 0.0
H100 H 0.0925 0.08102 0.84389 0.0
H101 H 0.8873 0.97684 0.56146 0.0
H102 H 0.12139 0.06675 0.76454 0.0
N103 N 0.03905 0.02971 0.76478 0.0
C104 C 0.02397 0.03447 0.81492 0.0
C105 C 0.0497 0.06343 0.85928 0.0
C106 C 0.06581 0.05741 0.81103 0.0
C107 C 0.02884 0.0516 0.8619 0.0
C108 C 0.05997 0.04011 0.76457 0.0
H109 H 0.1326 0.0376 0.67765 0.0
N110 N 0.06997 0.01456 0.68009 0.0
C111 C 0.10896 0.0122 0.64005 0.0
C112 C 0.07608 0.03218 0.72053 0.0
C113 C 0.08633 1.00391 0.64164 0.0
C114 C 0.11507 0.03119 0.67898 0.0
C115 C 0.09865 0.04121 0.72074 0.0
O116 O 0.05294 0.97492 0.70863 0.0
O117 O 0.00879 0.98865 0.60788 0.0
O118 O 0.97295 0.99259 0.64393 0.0
O119 O 0.99754 1.00269 0.72986 0.0
O120 O 0.04168 0.9766 0.60883 0.0
O121 O 0.02259 0.98309 0.76468 0.0
O122 O 0.96317 0.0401 0.53732 0.0
O123 O 0.00996 0.02853 0.63876 0.0
O124 O 0.04654 0.0246 0.60357 0.0
O125 O 0.0212 0.01642 0.51724 0.0
O126 O 0.97711 0.04059 0.63967 0.0
O127 O 0.99584 0.03727 0.48851 0.0
C128 C 0.02206 0.97411 0.58065 0.0
C129 C 0.02914 0.94377 0.73567 0.0
C130 C 0.99708 0.9173 0.71494 0.0
C131 C 1.00544 0.93846 0.73948 0.0
C132 C 0.01268 0.90134 0.68748 0.0
C133 C 0.04439 0.92726 0.70933 0.0
C134 C 0.03616 0.90626 0.68515 0.0
C135 C 0.9773 0.99511 0.70776 0.0
C136 C 0.03779 0.96727 0.75022 0.0
C137 C 0.10424 0.05937 0.76412 0.0
C138 C 0.08781 0.06749 0.80925 0.0
C139 C 0.99698 0.04313 0.66647 0.0
C140 C 0.98358 0.07466 0.52284 0.0
C141 C 1.00567 0.08408 0.51352 0.0
C142 C 0.01193 0.10514 0.54383 0.0
C143 C 0.99568 0.11657 0.58394 0.0
C144 C 0.96739 0.08708 0.5606 0.0
C145 C 0.97353 0.10774 0.59137 0.0
C146 C 0.04155 0.02371 0.53963 0.0
C147 C 0.97836 0.05069 0.50163 0.0
H148 H 0.9934 0.95085 0.76001 0.0
H149 H 0.0068 0.88472 0.66951 0.0
H150 H 0.06265 0.93089 0.70557 0.0
H151 H 0.04802 0.89378 0.66428 0.0
H152 H 0.01793 0.07494 0.4827 0.0
H153 H 1.00003 0.13242 0.60953 0.0
H154 H 0.95023 0.08036 0.56868 0.0
H155 H 0.96113 0.1168 0.62185 0.0
Tb156 Tb 0.51485 0.03773 0.67639 0.0
C157 C 0.53205 0.9452 0.53055 0.0
C158 C 0.55263 0.95396 0.43039 0.0
C159 C 0.55678 0.91615 0.47999 0.0
C160 C 0.53778 0.96069 0.48221 0.0
C161 C 0.5412 0.92262 0.52972 0.0
C162 C 0.56237 0.93176 0.43015 0.0
C163 C 0.5172 0.9138 0.62325 0.0
N164 N 0.51658 0.95192 0.57669 0.0
C165 C 0.5084 0.93626 0.62141 0.0
C166 C 0.53389 0.90701 0.57763 0.0
Tb167 Tb 0.50295 0.98915 0.57047 0.0
N168 N 0.52796 0.98196 0.48422 0.0
C169 C 0.53189 0.99704 0.43373 0.0
C170 C 0.55683 0.96954 0.37955 0.0
C171 C 0.54644 0.99117 0.38135 0.0
H172 H 0.49553 0.9413 0.65714 0.0
H173 H 0.54961 1.00341 0.3423 0.0
H174 H 0.57397 0.92639 0.3911 0.0
H175 H 0.5111 0.90177 0.65988 0.0
H176 H 0.52451 0.01395 0.4333 0.0
H177 H 0.46202 0.02576 0.89372 0.0
H178 H 0.56794 0.96499 0.33857 0.0
H179 H 0.52642 0.08524 0.59216 0.0
H180 H 0.49162 0.01532 0.81301 0.0
H181 H 0.51124 0.12486 0.58313 0.0
H182 H 0.5641 0.89895 0.47866 0.0
H183 H 0.44127 0.06289 0.88459 0.0
H184 H 0.4365 0.10081 0.82665 0.0
H185 H 0.54057 0.88955 0.5788 0.0
H186 H 0.44998 0.12794 0.74208 0.0
N187 N 0.48769 0.04587 0.7559 0.0
C188 C 0.48298 0.03161 0.80773 0.0
C189 C 0.45432 0.05837 0.84856 0.0
C190 C 0.46012 0.07354 0.79793 0.0
C191 C 0.46605 0.03746 0.85401 0.0
C192 C 0.47726 0.06679 0.75239 0.0
H193 H 0.4782 0.13724 0.6519 0.0
N194 N 0.50202 0.07501 0.66479 0.0
C195 C 0.50355 0.11294 0.61753 0.0
C196 C 0.48474 0.08195 0.7052 0.0
C197 C 0.51216 0.09047 0.62299 0.0
C198 C 0.48486 0.11983 0.65624 0.0
C199 C 0.47544 0.10439 0.70155 0.0
O200 O 0.54356 0.05909 0.69213 0.0
O201 O 0.52866 0.0123 0.60814 0.0
O202 O 0.52657 0.97775 0.64852 0.0
O203 O 0.51843 1.00469 0.73073 0.0
O204 O 0.54119 0.04476 0.60061 0.0
O205 O 0.53175 0.03608 0.76815 0.0
O206 O 0.47698 0.96482 0.55211 0.0
O207 O 0.48918 0.01394 0.64042 0.0
O208 O 0.49138 0.04957 0.59879 0.0
O209 O 0.49954 0.02247 0.51684 0.0
O210 O 0.47848 0.98083 0.64967 0.0
O211 O 0.47966 0.99519 0.49237 0.0
C212 C 0.54301 0.02428 0.57692 0.0
C213 C 0.57201 0.04236 0.75834 0.0
C214 C 0.60065 0.01182 0.77201 0.0
C215 C 0.57764 0.01886 0.76376 0.0
C216 C 0.61806 0.02875 0.7733 0.0
C217 C 0.58962 0.05888 0.75965 0.0
C218 C 0.61254 0.05206 0.7668 0.0
C219 C 0.5259 0.98402 0.71148 0.0
C220 C 0.54805 0.05003 0.74923 0.0
C221 C 0.45756 0.11086 0.74452 0.0
C222 C 0.44988 0.09543 0.79265 0.0
C223 C 0.47564 1.00127 0.67259 0.0
C224 C 0.44237 0.98414 0.52935 0.0
C225 C 0.43298 1.00587 0.51452 0.0
C226 C 0.41117 0.01234 0.53863 0.0
C227 C 0.39889 0.99686 0.5784 0.0
C228 C 0.42944 0.96872 0.56773 0.0
C229 C 0.40795 0.97516 0.59243 0.0
C230 C 0.49188 0.04315 0.53597 0.0
C231 C 0.46637 0.97831 0.51108 0.0
H232 H 0.56416 1.00608 0.76177 0.0
H233 H 0.63594 0.0241 0.78118 0.0
H234 H 0.58562 0.07707 0.755 0.0
H235 H 0.62606 0.06491 0.76814 0.0
H236 H 0.44255 0.01766 0.48369 0.0
H237 H 0.38219 1.00149 0.59826 0.0
H238 H 0.43621 0.95186 0.58015 0.0
H239 H 0.39833 0.96329 0.62275 0.0
Tb240 Tb 0.54109 0.50396 0.57042 0.0
C241 C 0.44 0.49362 0.65486 0.0
C242 C 0.41639 0.50995 0.56835 0.0
C243 C 0.40077 0.47997 0.63849 0.0
C244 C 0.43756 0.50852 0.60256 0.0
C245 C 0.42153 0.47944 0.67429 0.0
C246 C 0.39818 0.49527 0.58573 0.0
C247 C 0.44458 0.46712 0.76704 0.0
N248 N 0.46016 0.49388 0.68876 0.0
C249 C 0.46227 0.48173 0.7463 0.0
C250 C 0.42422 0.46573 0.73038 0.0
Tb251 Tb 0.48786 0.51887 0.6521 0.0
N252 N 0.45566 0.52221 0.58674 0.0
C253 C 0.45316 0.53867 0.53906 0.0
C254 C 0.41402 0.52642 0.51872 0.0
C255 C 0.43247 0.54086 0.50412 0.0
H256 H 0.47796 0.48276 0.77499 0.0
H257 H 0.43077 0.55375 0.46602 0.0
H258 H 0.38189 0.49592 0.55948 0.0
H259 H 0.44665 0.45701 0.81137 0.0
H260 H 0.4671 0.55008 0.52672 0.0
H261 H 0.60412 0.47827 0.75298 0.0
H262 H 0.39792 0.52839 0.49212 0.0
H263 H 0.54627 0.53669 0.4362 0.0
H264 H 0.5663 0.47802 0.69801 0.0
H265 H 0.57541 0.5619 0.38678 0.0
H266 H 0.38643 0.46908 0.65229 0.0
H267 H 0.63481 0.50437 0.71414 0.0
H268 H 0.64757 0.5349 0.63508 0.0
H269 H 0.41046 0.45454 0.74682 0.0
H270 H 0.63969 0.55783 0.53571 0.0
N271 N 0.57482 0.50459 0.63002 0.0
C272 C 0.57932 0.48983 0.68099 0.0
C273 C 0.61804 0.50469 0.69057 0.0
C274 C 0.61366 0.51926 0.63732 0.0
C275 C 0.60083 0.48982 0.71229 0.0
C276 C 0.59174 0.5185 0.60703 0.0
H277 H 0.61295 0.56778 0.44237 0.0
N278 N 0.56668 0.52856 0.52079 0.0
C279 C 0.57903 0.55334 0.43297 0.0
C280 C 0.58751 0.53098 0.55059 0.0
C281 C 0.56254 0.5389 0.46125 0.0
C282 C 0.60017 0.55667 0.46458 0.0
C283 C 0.60478 0.54516 0.52361 0.0
O284 O 0.54656 0.48695 0.47963 0.0
O285 O 0.5038 0.50397 0.56662 0.0
O286 O 0.4895 0.48114 0.64085 0.0
O287 O 0.52929 0.47647 0.63809 0.0
O288 O 0.52036 0.50873 0.47995 0.0
O289 O 0.55834 0.47219 0.57112 0.0
O290 O 0.47781 0.53022 0.74627 0.0
O291 O 0.52505 0.51875 0.65687 0.0
O292 O 0.54071 0.54158 0.58018 0.0
O293 O 0.50112 0.54772 0.59057 0.0
O294 O 0.50813 0.51305 0.74282 0.0
O295 O 0.47437 0.55234 0.66112 0.0
C296 C 0.50032 0.50711 0.50593 0.0
C297 C 0.54762 0.44635 0.48827 0.0
C298 C 0.51649 0.41883 0.4704 0.0
C299 C 0.52395 0.44123 0.48686 0.0
C300 C 0.53309 0.40175 0.45582 0.0
C301 C 0.56381 0.42911 0.4739 0.0
C302 C 0.55654 0.40689 0.45779 0.0
C303 C 0.50824 0.46831 0.64895 0.0
C304 C 0.55601 0.46914 0.50795 0.0
C305 C 0.62625 0.54692 0.55544 0.0
C306 C 0.63072 0.5339 0.61204 0.0
C307 C 0.52825 0.51535 0.71766 0.0
C308 C 0.48091 0.57007 0.76524 0.0
C309 C 0.49688 0.58611 0.74074 0.0
C310 C 0.50396 0.6048 0.78028 0.0
C311 C 0.49533 0.6069 0.84498 0.0
C312 C 0.47239 0.5726 0.82957 0.0
C313 C 0.47967 0.59089 0.8693 0.0
C314 C 0.5223 0.55511 0.57658 0.0
C315 C 0.47247 0.55071 0.72507 0.0
H316 H 0.51149 0.45454 0.49895 0.0
H317 H 0.52796 0.38449 0.44132 0.0
H318 H 0.58211 0.43283 0.47551 0.0
H319 H 0.56911 0.39364 0.44637 0.0
H320 H 0.50347 0.58431 0.69101 0.0
H321 H 0.5009 0.62081 0.87719 0.0
H322 H 0.46008 0.56038 0.84907 0.0
H323 H 0.47314 0.59267 0.91908 0.0
Tb324 Tb 0.02182 0.53086 0.57444 0.0
C325 C 0.02526 0.44515 0.74991 0.0
C326 C 0.0215 0.41038 0.68423 0.0
C327 C 0.04277 0.40943 0.78764 0.0
C328 C 0.01764 0.43423 0.6934 0.0
C329 C 0.03806 0.43297 0.79763 0.0
C330 C 0.03437 0.39811 0.7312 0.0
C331 C 0.04042 0.46816 0.86159 0.0
N332 N 0.02025 0.46788 0.75768 0.0
C333 C 0.0275 0.47945 0.81315 0.0
C334 C 0.04572 0.44482 0.85386 0.0
Tb335 Tb 0.99912 0.48488 0.67481 0.0
N336 N 1.00555 0.44677 0.64884 0.0
C337 C 0.995 0.43586 0.59693 0.0
C338 C 0.01159 0.39945 0.62944 0.0
C339 C 0.99786 0.4122 0.58639 0.0
H340 H 0.02418 0.49761 0.81956 0.0
H341 H 0.98925 0.40382 0.54534 0.0
H342 H 0.03766 0.37983 0.72477 0.0
H343 H 0.0464 0.47754 0.9047 0.0
H344 H 0.98368 0.44528 0.5644 0.0
H345 H 0.04949 0.60257 0.72503 0.0
H346 H 0.01383 0.3811 0.62111 0.0
H347 H 0.99535 0.53115 0.42457 0.0
H348 H 0.04882 0.56233 0.68875 0.0
H349 H 0.97258 0.55838 0.35984 0.0
H350 H 0.0526 0.39977 0.82365 0.0
H351 H 0.02244 0.63087 0.67673 0.0
H352 H 0.99299 0.63991 0.58975 0.0
H353 H 0.05574 0.43613 0.89147 0.0
H354 H 0.97236 0.62786 0.48918 0.0
N355 N 0.02182 0.56718 0.61853 0.0
C356 C 0.03682 0.57418 0.66678 0.0
C357 C 0.02214 0.6131 0.65987 0.0
C358 C 0.00786 0.6062 0.60767 0.0
C359 C 0.03722 0.59716 0.68792 0.0
C360 C 0.00858 0.58295 0.58654 0.0
H361 H 0.96517 0.59773 0.4023 0.0
N362 N 1.00073 0.55439 0.50582 0.0
C363 C 0.97947 0.56362 0.4073 0.0
C364 C 0.99759 0.57633 0.52856 0.0
C365 C 0.99261 0.54818 0.44452 0.0
C366 C 0.97523 0.58579 0.43156 0.0
C367 C 0.9847 0.59256 0.49217 0.0
O368 O 0.04612 0.55397 0.53514 0.0
O369 O 0.01555 0.49437 0.5831 0.0
O370 O 0.03703 0.48391 0.67714 0.0
O371 O 0.04303 0.52308 0.66281 0.0
O372 O 0.01788 0.50703 0.48967 0.0
O373 O 0.0532 0.5178 0.5372 0.0
O374 O 0.97445 0.48375 0.75072 0.0
O375 O 1.00573 0.52139 0.66501 0.0
O376 O 0.98393 0.53158 0.56665 0.0
O377 O 0.97563 0.49341 0.59228 0.0
O378 O 0.99363 0.51122 0.75301 0.0
O379 O 0.96804 0.46773 0.65588 0.0
C380 C 0.0147 0.48838 0.52264 0.0
C381 C 0.08426 0.54266 0.5621 0.0
C382 C 0.12149 0.52823 0.60073 0.0
C383 C 0.10046 0.52476 0.56751 0.0
C384 C 0.12622 0.54996 0.6287 0.0
C385 C 0.0895 0.5644 0.58953 0.0
C386 C 0.11027 0.5679 0.62306 0.0
C387 C 0.05035 0.50244 0.68232 0.0
C388 C 0.06187 0.5382 0.52927 0.0
C389 C 0.98238 0.61523 0.51614 0.0
C390 C 0.99405 0.62208 0.57356 0.0
C391 C 0.99942 0.52917 0.72057 0.0
C392 C 0.93643 0.48485 0.70712 0.0
C393 C 0.93358 0.50882 0.71503 0.0
C394 C 0.91155 0.51895 0.71018 0.0
C395 C 0.89267 0.50461 0.69392 0.0
C396 C 0.91744 0.4711 0.69054 0.0
C397 C 0.89572 0.48101 0.68335 0.0
C398 C 0.96955 0.51381 0.56821 0.0
C399 C 0.95922 0.47392 0.7121 0.0
H400 H 0.09683 0.50817 0.54477 0.0
H401 H 0.14227 0.55307 0.65469 0.0
H402 H 0.07754 0.57868 0.5855 0.0
H403 H 0.11406 0.58463 0.64453 0.0
H404 H 0.94848 0.51945 0.72526 0.0
H405 H 0.87527 0.51129 0.69158 0.0
H406 H 0.91946 0.45269 0.68287 0.0
H407 H 0.88106 0.47027 0.6709 0.0
H408 H 0.23109 0.02416 0.20839 0.0
H409 H 0.19565 0.01762 0.27108 0.0
H410 H 0.16154 0.07102 0.16017 0.0
H411 H 0.19733 0.07793 0.09887 0.0
H412 H 0.1547 0.07787 0.28721 0.0
H413 H 0.13571 0.98606 0.2361 0.0
H414 H 0.1644 0.98997 0.26724 0.0
H415 H 0.15647 1.00207 0.18873 0.0
C416 C 0.21573 0.0338 0.19556 0.0
C417 C 0.21677 0.05103 0.14717 0.0
C418 C 0.19542 0.03014 0.2317 0.0
C419 C 0.17557 0.04357 0.22017 0.0
C420 C 0.17643 0.06027 0.17008 0.0
H421 H 0.0419 0.01635 0.40496 0.0
H422 H 0.07346 0.02225 0.32779 0.0
C423 C 0.1968 0.06402 0.13426 0.0
C424 C 0.15471 0.04156 0.26377 0.0
H425 H 0.11634 1.00302 0.32868 0.0
C426 C 0.14626 0.06149 0.29578 0.0
C427 C 0.1433 0.02031 0.27493 0.0
C428 C 0.15028 0.99844 0.2394 0.0
C429 C 0.12728 0.06068 0.33915 0.0
C430 C 0.11655 0.03927 0.35255 0.0
C431 C 0.12464 0.01943 0.31946 0.0
C432 C 0.09679 0.03701 0.3999 0.0
C433 C 0.11856 0.08292 0.36906 0.0
C434 C 0.09897 0.0436 0.46662 0.0
C435 C 0.08079 0.04014 0.51129 0.0
C436 C 0.06003 0.02967 0.49085 0.0
C437 C 0.05764 0.02392 0.42349 0.0
C438 C 0.07579 0.02734 0.37891 0.0
H439 H 0.12423 0.09816 0.3404 0.0
H440 H 0.09944 0.083 0.37158 0.0
H441 H 0.12546 0.08477 0.41993 0.0
H442 H 0.11494 0.05096 0.48468 0.0
H443 H 0.08314 0.0455 0.5621 0.0
H444 H 0.48827 0.23299 0.22152 0.0
H445 H 0.49468 0.19686 0.28104 0.0
H446 H 0.44973 0.16135 0.14454 0.0
H447 H 0.44329 0.19769 0.08495 0.0
H448 H 0.43801 0.15446 0.27654 0.0
H449 H 0.53127 0.13804 0.24085 0.0
H450 H 0.5249 0.16671 0.26968 0.0
H451 H 0.51511 0.15761 0.18936 0.0
C452 C 0.48046 0.21728 0.20285 0.0
C453 C 0.46575 0.218 0.14767 0.0
C454 C 0.48406 0.19662 0.23703 0.0
C455 C 0.47291 0.17621 0.21708 0.0
C456 C 0.45869 0.17678 0.16069 0.0
H457 H 0.50092 0.04267 0.40217 0.0
H458 H 0.49497 0.07373 0.32322 0.0
C459 C 0.4552 0.19747 0.12619 0.0
C460 C 0.47455 0.15495 0.25838 0.0
H461 H 0.51283 0.11687 0.32639 0.0
C462 C 0.45436 0.14612 0.2869 0.0
C463 C 0.49582 0.1439 0.27193 0.0
C464 C 0.51799 0.15188 0.24091 0.0
C465 C 0.45492 0.12705 0.32966 0.0
C466 C 0.4763 0.11647 0.34513 0.0
C467 C 0.49642 0.12494 0.31516 0.0
C468 C 0.47832 0.09682 0.3926 0.0
C469 C 0.43249 0.11836 0.35735 0.0
C470 C 0.47059 0.09904 0.45806 0.0
C471 C 0.47393 0.08115 0.50345 0.0
C472 C 0.48549 0.0607 0.48514 0.0
C473 C 0.49234 0.05816 0.41888 0.0
C474 C 0.48897 0.07604 0.37342 0.0
H475 H 0.41774 0.12255 0.32445 0.0
H476 H 0.43305 0.09945 0.36468 0.0
H477 H 0.42931 0.12678 0.40581 0.0
H478 H 0.46248 0.11487 0.47472 0.0
H479 H 0.46781 0.08358 0.55343 0.0
H480 H 0.32612 0.43964 0.14323 0.0
H481 H 0.36334 0.44482 0.19919 0.0
H482 H 0.34833 0.51709 0.22665 0.0
H483 H 0.31104 0.51187 0.17046 0.0
H484 H 0.40286 0.47396 0.18387 0.0
H485 H 0.35577 0.4917 0.41686 0.0
H486 H 0.3419 0.47964 0.34462 0.0
H487 H 0.34788 0.51001 0.34923 0.0
C488 C 0.3312 0.45681 0.15881 0.0
C489 C 0.31585 0.47545 0.15115 0.0
C490 C 0.35239 0.45973 0.19147 0.0
C491 C 0.35857 0.48127 0.21832 0.0
C492 C 0.34388 0.50023 0.20717 0.0
H493 H 0.48818 0.5266 0.3902 0.0
H494 H 0.45454 0.51848 0.32066 0.0
C495 C 0.32273 0.49734 0.17403 0.0
C496 C 0.37945 0.48345 0.26169 0.0
H497 H 0.39625 0.49555 0.42019 0.0
C498 C 0.40141 0.47889 0.23541 0.0
C499 C 0.37766 0.48904 0.32972 0.0
C500 C 0.35455 0.49267 0.36221 0.0
C501 C 0.42154 0.48071 0.27446 0.0
C502 C 0.41982 0.48757 0.34161 0.0
C503 C 0.39778 0.49103 0.36851 0.0
C504 C 0.44064 0.49202 0.38394 0.0
C505 C 0.44448 0.4748 0.24373 0.0
C506 C 0.44406 0.48022 0.4437 0.0
C507 C 0.46343 0.48485 0.48361 0.0
C508 C 0.47934 0.502 0.46582 0.0
C509 C 0.47604 0.51355 0.40575 0.0
C510 C 0.45686 0.50878 0.36567 0.0
H511 H 0.44238 0.4633 0.20005 0.0
H512 H 0.45294 0.4909 0.22709 0.0
H513 H 0.45604 0.46621 0.2798 0.0
H514 H 0.43184 0.46725 0.45926 0.0
H515 H 0.46593 0.47504 0.5283 0.0
H516 H 0.01065 0.28746 0.22649 0.0
H517 H 1.00373 0.3235 0.28777 0.0
H518 H 0.05632 0.35715 0.17362 0.0
H519 H 0.06307 0.32109 0.11215 0.0
H520 H 0.0358 0.34507 0.36622 0.0
H521 H 1.00607 0.40637 0.17543 0.0
H522 H 1.00633 0.37554 0.16203 0.0
H523 H 0.03256 0.39183 0.15575 0.0
C524 C 0.02 0.30283 0.21257 0.0
C525 C 0.03685 0.3016 0.16285 0.0
C526 C 0.01628 0.3234 0.24828 0.0
C527 C 0.02931 0.34335 0.23535 0.0
C528 C 0.0456 0.34234 0.18394 0.0
H529 H 0.04831 0.45521 0.53422 0.0
H530 H 0.05311 0.42034 0.466 0.0
C531 C 0.04937 0.32171 0.14835 0.0
C532 C 0.02723 0.36434 0.27932 0.0
H533 H 0.01561 0.42229 0.28004 0.0
C534 C 0.03123 0.36195 0.34738 0.0
C535 C 0.02135 0.38648 0.25528 0.0
C536 C 0.01613 0.39028 0.18324 0.0
C537 C 0.02949 0.38078 0.39179 0.0
C538 C 0.02375 0.40312 0.36795 0.0
C539 C 0.01987 0.40543 0.29947 0.0
C540 C 0.02092 0.42415 0.41234 0.0
C541 C 0.0334 0.37607 0.46396 0.0
C542 C 1.00172 0.43886 0.40457 0.0
C543 C 0.9994 0.4592 0.44224 0.0
C544 C 0.01572 0.46514 0.49084 0.0
C545 C 0.03493 0.45059 0.49917 0.0
C546 C 0.0376 0.4305 0.46006 0.0
H547 H 0.0298 0.35777 0.47623 0.0
H548 H 0.0517 0.37956 0.47648 0.0
H549 H 0.02235 0.38714 0.49508 0.0
H550 H 0.98853 0.43481 0.3684 0.0
H551 H 0.9848 0.47043 0.43321 0.0
H552 H 0.82098 0.96305 0.16661 0.0
H553 H 0.85686 0.96966 0.10457 0.0
H554 H 0.81703 0.99423 0.9394 0.0
H555 H 0.78151 0.98791 1.0013 0.0
H556 H 0.86994 0.94866 0.98871 0.0
H557 H 0.86658 0.04292 0.94971 0.0
H558 H 0.84873 0.02866 0.00974 0.0
H559 H 0.84047 0.02893 0.92404 0.0
C560 C 0.82003 0.97064 0.118 0.0
C561 C 0.79845 0.97542 0.08938 0.0
C562 C 0.84051 0.97416 0.08215 0.0
C563 C 0.83984 0.9827 0.01718 0.0
C564 C 0.81826 0.98814 0.98968 0.0
H565 H 0.93974 0.96634 0.69607 0.0
H566 H 0.90705 0.96276 0.77217 0.0
C567 C 0.79789 0.98456 0.02523 0.0
C568 C 0.86132 0.98453 0.97625 0.0
H569 H 0.89199 0.02157 0.87902 0.0
C570 C 0.87481 0.96466 0.96515 0.0
C571 C 0.86803 1.00542 0.94574 0.0
C572 C 0.85534 0.02774 0.9584 0.0
C573 C 0.89423 0.965 0.92325 0.0
C574 C 0.90025 0.98561 0.89045 0.0
C575 C 0.8872 1.00562 0.90304 0.0
C576 C 0.92043 0.98699 0.8445 0.0
C577 C 0.90855 0.94344 0.91531 0.0
C578 C 0.93879 1.00196 0.85884 0.0
C579 C 0.95742 1.00406 0.81534 0.0
C580 C 0.95818 0.99139 0.75587 0.0
C581 C 0.93981 0.97631 0.74149 0.0
C582 C 0.92115 0.97414 0.78527 0.0
H583 H 0.9038 0.92998 0.95157 0.0
H584 H 0.90604 0.93632 0.86492 0.0
H585 H 0.92715 0.94751 0.92109 0.0
H586 H 0.93865 0.01222 0.90374 0.0
H587 H 0.97081 0.01626 0.82758 0.0
H588 H 0.60056 0.82027 0.07914 0.0
H589 H 0.5921 0.85683 0.02497 0.0
H590 H 0.51934 0.84508 0.05156 0.0
H591 H 0.52789 0.80806 0.1053 0.0
H592 H 0.5298 0.85431 0.92387 0.0
H593 H 0.57158 0.9203 0.08189 0.0
H594 H 0.5911 0.89765 0.05896 0.0
H595 H 0.56654 0.89124 0.10988 0.0
C596 C 0.58278 0.82587 0.07551 0.0
C597 C 0.5649 0.81141 0.09718 0.0
C598 C 0.57794 0.84684 0.04448 0.0
C599 C 0.55506 0.85399 0.03446 0.0
C600 C 0.53715 0.84008 0.05898 0.0
H601 H 0.51559 0.9841 0.84397 0.0
H602 H 0.52242 0.95327 0.92368 0.0
C603 C 0.54202 0.81903 0.09036 0.0
C604 C 0.55 0.8745 0.99225 0.0
H605 H 0.56254 0.9317 0.97106 0.0
C606 C 0.53679 0.87126 0.93466 0.0
C607 C 0.55906 0.89675 1.00592 0.0
C608 C 0.57267 0.90177 0.06787 0.0
C609 C 0.53297 0.88932 0.88976 0.0
C610 C 0.54277 0.9113 0.90216 0.0
C611 C 0.55532 0.9148 0.9608 0.0
C612 C 0.54006 0.93078 0.85474 0.0
C613 C 0.51831 0.88471 0.82947 0.0
C614 C 0.54846 0.92889 0.78993 0.0
C615 C 0.54473 0.9466 0.74434 0.0
C616 C 0.53232 0.96657 0.76218 0.0
C617 C 0.52495 0.96892 0.82804 0.0
C618 C 0.52882 0.95124 0.8738 0.0
H619 H 0.50729 0.86922 0.83574 0.0
H620 H 0.50708 0.89972 0.81826 0.0
H621 H 0.52969 0.88161 0.78636 0.0
H622 H 0.55783 0.91363 0.77442 0.0
H623 H 0.55134 0.94448 0.69474 0.0
H624 H 0.7176 0.51533 0.06249 0.0
H625 H 0.68156 0.50785 1.00141 0.0
H626 H 0.66105 0.57868 0.03037 0.0
H627 H 0.69695 0.58619 0.09077 0.0
H628 H 0.62411 0.54494 0.04662 0.0
H629 H 0.67193 0.53474 0.81084 0.0
H630 H 0.68167 0.51723 0.87841 0.0
H631 H 0.6846 0.54802 0.88321 0.0
C632 C 0.7051 0.5291 0.05731 0.0
C633 C 0.71007 0.55131 0.08185 0.0
C634 C 0.68463 0.52491 0.02169 0.0
C635 C 0.66865 0.54279 0.01034 0.0
C636 C 0.67305 0.56461 0.03811 0.0
H637 H 0.56164 0.54886 0.7011 0.0
H638 H 0.59508 0.55663 0.77295 0.0
C639 C 0.69355 0.56886 0.07292 0.0
C640 C 0.64795 0.53925 0.96703 0.0
H641 H 0.63173 0.52943 0.80686 0.0
C642 C 0.62578 0.54133 0.99427 0.0
C643 C 0.65001 0.53517 0.89829 0.0
C644 C 0.67329 0.53382 0.86547 0.0
C645 C 0.60574 0.53887 0.95513 0.0
C646 C 0.60779 0.53402 0.88663 0.0
C647 C 0.62999 0.53265 0.85923 0.0
C648 C 0.58721 0.52973 0.84307 0.0
C649 C 0.58254 0.54206 0.98743 0.0
C650 C 0.57161 0.51195 0.85773 0.0
C651 C 0.55261 0.50751 0.81671 0.0
C652 C 0.54897 0.52027 0.75887 0.0
C653 C 0.56432 0.53831 0.74433 0.0
C654 C 0.58338 0.54283 0.78567 0.0
H655 H 0.58388 0.55257 0.03335 0.0
H656 H 0.57012 0.55053 0.95356 0.0
H657 H 0.57555 0.52493 1.00094 0.0
H658 H 0.57428 0.50125 0.90066 0.0
H659 H 0.54092 0.4937 0.82958 0.0
H660 H 1.00037 0.73615 0.97954 0.0
H661 H 0.00678 0.69957 0.92067 0.0
H662 H 0.96585 0.66416 0.06538 0.0
H663 H 0.95922 0.70093 0.12376 0.0
H664 H 0.02554 0.65798 0.94999 0.0
H665 H 0.93256 0.64613 0.89662 0.0
H666 H 0.944 0.67267 0.93025 0.0
H667 H 0.93928 0.64829 0.98295 0.0
C668 C 0.9934 0.72042 0.99998 0.0
C669 C 0.97976 0.72138 0.05728 0.0
C670 C 0.99682 0.6995 0.96581 0.0
C671 C 0.98639 0.67896 0.98732 0.0
C672 C 0.97369 0.6797 0.04653 0.0
H673 H 0.02363 0.54198 0.82832 0.0
H674 H 0.02043 0.5775 0.89301 0.0
C675 C 0.9703 0.70068 0.0808 0.0
C676 C 0.98854 0.65712 0.94693 0.0
H677 H 0.9574 0.61566 0.86446 0.0
C678 C 0.01061 0.64877 0.93123 0.0
C679 C 0.96915 0.64507 0.92127 0.0
C680 C 0.9449 0.65356 0.93298 0.0
C681 C 0.01391 0.62887 0.8917 0.0
C682 C 0.99452 0.61638 0.86715 0.0
C683 C 0.9724 0.62492 0.88255 0.0
C684 C 0.99668 0.59447 0.82638 0.0
C685 C 0.03836 0.62198 0.87609 0.0
C686 C 0.98358 0.59108 0.76816 0.0
C687 C 0.98512 0.57032 0.73148 0.0
C688 C 1.00016 0.55261 0.75121 0.0
C689 C 0.01274 0.55573 0.81 0.0
C690 C 0.01098 0.57622 0.84706 0.0
H691 H 0.04995 0.63722 0.87549 0.0
H692 H 0.04477 0.61017 0.91493 0.0
H693 H 0.03959 0.61313 0.82784 0.0
H694 H 0.97203 0.60447 0.75108 0.0
H695 H 0.97425 0.56797 0.68841 0.0
H696 H 0.10883 0.21861 0.14669 0.0
H697 H 0.12502 0.19065 0.22477 0.0
H698 H 0.07741 0.2147 0.37356 0.0
H699 H 0.06193 0.2428 0.29732 0.0
H700 H 0.11765 0.20018 0.42936 0.0
H701 H 0.08673 0.13404 0.24781 0.0
H702 H 0.10967 0.15317 0.22536 0.0
H703 H 0.0808 0.16413 0.23408 0.0
C704 C 0.10233 0.21825 0.19674 0.0
C705 C 0.08392 0.23267 0.21572 0.0
C706 C 0.11152 0.20223 0.24116 0.0
C707 C 0.10203 0.20012 0.30452 0.0
C708 C 0.0851 0.21595 0.32502 0.0
H709 H 0.02154 0.15104 0.53206 0.0
H710 H 0.05652 0.16854 0.49255 0.0
C711 C 0.07619 0.23209 0.28124 0.0
C712 C 0.1062 0.17964 0.3465 0.0
H713 H 0.08383 0.12553 0.35885 0.0
C714 C 0.11122 0.18346 0.41359 0.0
C715 C 0.09851 0.15749 0.32597 0.0
C716 C 0.09358 0.15179 0.2545 0.0
C717 C 0.10478 0.16734 0.46141 0.0
C718 C 0.09322 0.14708 0.44129 0.0
C719 C 0.09236 0.14135 0.37405 0.0
C720 C 0.07552 0.13649 0.48377 0.0
C721 C 0.1078 0.17335 0.53334 0.0
C722 C 0.07465 0.11258 0.4937 0.0
C723 C 0.05448 0.10238 0.51766 0.0
C724 C 0.03472 0.11589 0.53029 0.0
C725 C 0.03633 0.13998 0.52408 0.0
C726 C 0.0565 0.15012 0.50151 0.0
H727 H 0.12388 0.18339 0.54127 0.0
H728 H 0.09312 0.18427 0.54971 0.0
H729 H 0.10831 0.15761 0.56428 0.0
H730 H 0.08911 0.10175 0.48009 0.0
H731 H 0.05411 0.08385 0.5237 0.0
H732 H 0.27074 0.08116 0.28318 0.0
H733 H 0.29953 0.0942 0.36072 0.0
H734 H 0.33465 0.13069 0.20587 0.0
H735 H 0.30516 0.11806 0.12707 0.0
H736 H 0.35957 0.09603 0.25184 0.0
H737 H 0.32929 0.14409 0.46856 0.0
H738 H 0.30823 0.1225 0.44947 0.0
H739 H 0.3141 0.14496 0.3905 0.0
C740 C 0.28375 0.09302 0.26578 0.0
C741 C 0.28586 0.09809 0.19831 0.0
C742 C 0.3003 0.10065 0.31074 0.0
C743 C 0.31935 0.11349 0.28938 0.0
C744 C 0.32008 0.12086 0.22355 0.0
H745 H 0.43162 0.05496 0.52784 0.0
H746 H 0.41515 0.08931 0.47482 0.0
C747 C 0.30335 0.11335 0.17842 0.0
C748 C 0.34061 0.11283 0.33004 0.0
H749 H 0.35458 0.10951 0.49315 0.0
C750 C 0.35917 0.10013 0.30415 0.0
C751 C 0.3403 0.11818 0.3982 0.0
C752 C 0.32195 0.13342 0.4279 0.0
C753 C 0.37503 0.08928 0.34583 0.0
C754 C 0.37257 0.09183 0.41484 0.0
C755 C 0.35628 0.10744 0.44014 0.0
C756 C 0.38167 0.07386 0.45879 0.0
C757 C 0.39171 0.07223 0.31561 0.0
C758 C 0.368 0.05432 0.46907 0.0
C759 C 0.37733 0.03477 0.49828 0.0
C760 C 0.40055 0.03442 0.51796 0.0
C761 C 0.41381 0.05464 0.51182 0.0
C762 C 0.40442 0.07429 0.48224 0.0
H763 H 0.39767 0.07826 0.26661 0.0
H764 H 0.40695 0.06914 0.34739 0.0
H765 H 0.38274 0.0555 0.30816 0.0
H766 H 0.35044 0.05372 0.45078 0.0
H767 H 0.3667 0.01948 0.50163 0.0
H768 H 0.44163 0.27903 0.27761 0.0
H769 H 0.42985 0.31073 0.34813 0.0
H770 H 0.38866 0.33874 0.19026 0.0
H771 H 0.40012 0.30648 0.11899 0.0
H772 H 0.42326 0.36614 0.22257 0.0
H773 H 0.38071 0.34335 0.45375 0.0
H774 H 0.40269 0.32235 0.4376 0.0
H775 H 0.37887 0.32526 0.38078 0.0
C776 C 0.4291 0.29117 0.25862 0.0
C777 C 0.42223 0.29045 0.19208 0.0
C778 C 0.4222 0.30936 0.29945 0.0
C779 C 0.4083 0.3272 0.2747 0.0
C780 C 0.39932 0.32515 0.21053 0.0
H781 H 0.48209 0.4453 0.41634 0.0
H782 H 0.44374 0.43217 0.38285 0.0
C783 C 0.40612 0.30684 0.16964 0.0
C784 C 0.40906 0.34996 0.3085 0.0
H785 H 0.41353 0.37124 0.46498 0.0
C786 C 0.42037 0.36779 0.27526 0.0
C787 C 0.4047 0.3524 0.37668 0.0
C788 C 0.39081 0.33485 0.4139 0.0
C789 C 0.43121 0.38576 0.30997 0.0
C790 C 0.42997 0.38617 0.38001 0.0
C791 C 0.4151 0.37061 0.41167 0.0
C792 C 0.44827 0.39754 0.42026 0.0
C793 C 0.44619 0.40216 0.27137 0.0
C794 C 0.46227 0.38353 0.46018 0.0
C795 C 0.4836 0.39141 0.48239 0.0
C796 C 0.49162 0.41325 0.46386 0.0
C797 C 0.47646 0.42831 0.43107 0.0
C798 C 0.45467 0.42065 0.41076 0.0
H799 H 0.4467 0.39783 0.21789 0.0
H800 H 0.43933 0.41995 0.27616 0.0
H801 H 0.46416 0.40186 0.29031 0.0
H802 H 0.45769 0.36574 0.46957 0.0
H803 H 0.49453 0.37971 0.50982 0.0
H804 H 0.26677 0.42396 0.27696 0.0
H805 H 0.24661 0.41655 0.38114 0.0
H806 H 0.19288 0.46384 0.32336 0.0
H807 H 0.21285 0.47173 0.2215 0.0
H808 H 0.23791 0.44893 0.47642 0.0
H809 H 0.15535 0.41184 0.39908 0.0
H810 H 0.18058 0.41071 0.34687 0.0
H811 H 0.16153 0.43537 0.34519 0.0
C812 C 0.25047 0.4325 0.28621 0.0
C813 C 0.2414 0.44838 0.24054 0.0
C814 C 0.23894 0.42811 0.34549 0.0
C815 C 0.21799 0.43922 0.35935 0.0
C816 C 0.2086 0.45441 0.31282 0.0
H817 H 0.16713 0.53226 0.5741 0.0
H818 H 0.19352 0.50137 0.54639 0.0
C819 C 0.22011 0.45893 0.25424 0.0
C820 C 0.20709 0.43804 0.42518 0.0
H821 H 0.1528 0.44277 0.48555 0.0
C822 C 0.21939 0.44671 0.4797 0.0
C823 C 0.18319 0.43405 0.4312 0.0
C824 C 0.16953 0.42218 0.37749 0.0
C825 C 0.20771 0.45525 0.53534 0.0
C826 C 0.18332 0.45582 0.53472 0.0
C827 C 0.17148 0.44328 0.4856 0.0
C828 C 0.17011 0.47364 0.57187 0.0
C829 C 0.22157 0.46512 0.59183 0.0
C830 C 0.14813 0.46868 0.59703 0.0
C831 C 0.13263 0.48654 0.61079 0.0
C832 C 0.13903 0.50966 0.601 0.0
C833 C 0.16176 0.51464 0.58268 0.0
C834 C 0.17705 0.49683 0.56757 0.0
H835 H 0.23642 0.45366 0.60299 0.0
H836 H 0.22876 0.48209 0.57743 0.0
H837 H 0.21104 0.46731 0.63714 0.0
H838 H 0.14231 0.451 0.60097 0.0
H839 H 0.11525 0.48224 0.62542 0.0
H840 H 0.91166 0.75981 0.96587 0.0
H841 H 0.89554 0.7821 0.87377 0.0
H842 H 0.92755 0.84366 0.95151 0.0
H843 H 0.94428 0.82203 0.03991 0.0
H844 H 0.88212 0.85104 0.89165 0.0
H845 H 0.94313 0.80167 0.73195 0.0
H846 H 0.92099 0.78735 0.77848 0.0
H847 H 0.94578 0.79898 0.82019 0.0
C848 C 0.91498 0.77816 0.96377 0.0
C849 C 0.92942 0.78894 0.01086 0.0
C850 C 0.90558 0.79088 0.91138 0.0
C851 C 0.91036 0.81453 0.90586 0.0
C852 C 0.92329 0.8255 0.95527 0.0
H853 H 0.97051 0.92023 0.82536 0.0
H854 H 0.93581 0.89801 0.84644 0.0
C855 C 0.93284 0.81293 1.00652 0.0
C856 C 0.9061 0.82775 0.84481 0.0
H857 H 0.93982 0.84135 0.71395 0.0
C858 C 0.8939 0.84861 0.85068 0.0
C859 C 0.92078 0.82436 0.79003 0.0
C860 C 0.93342 0.80188 0.77914 0.0
C861 C 0.89937 0.86753 0.8108 0.0
C862 C 0.91755 0.86541 0.76483 0.0
C863 C 0.92632 0.84331 0.7505 0.0
C864 C 0.93204 0.88543 0.74587 0.0
C865 C 0.88707 0.89004 0.82279 0.0
C866 C 0.94086 0.88703 0.68159 0.0
C867 C 0.96094 0.89962 0.66983 0.0
C868 C 0.97253 0.91072 0.72204 0.0
C869 C 0.96202 0.91171 0.78425 0.0
C870 C 0.94197 0.89908 0.79616 0.0
H871 H 0.86816 0.88709 0.82371 0.0
H872 H 0.89199 0.89682 0.87216 0.0
H873 H 0.891 0.90309 0.78459 0.0
H874 H 0.9335 0.87681 0.64185 0.0
H875 H 0.9684 0.89922 0.62107 0.0
H876 H 0.73774 0.94585 0.97357 0.0
H877 H 0.70567 0.93164 0.90845 0.0
H878 H 0.6836 0.88941 0.07092 0.0
H879 H 0.71582 0.90408 0.13765 0.0
H880 H 0.68128 0.89218 0.86588 0.0
H881 H 0.63418 0.93839 0.0677 0.0
H882 H 0.66519 0.93916 0.0659 0.0
H883 H 0.65044 0.91283 0.08575 0.0
C884 C 0.72673 0.9328 0.99483 0.0
C885 C 0.72898 0.92654 0.06137 0.0
C886 C 0.70831 0.92461 0.95732 0.0
C887 C 0.69181 0.91 0.98548 0.0
C888 C 0.69579 0.90117 0.04884 0.0
H889 H 0.57602 0.98012 0.84306 0.0
H890 H 0.5893 0.94274 0.88137 0.0
C891 C 0.71418 0.90957 0.08687 0.0
C892 C 0.66876 0.90907 0.95389 0.0
H893 H 0.61992 0.94139 0.96204 0.0
C894 C 0.66735 0.9022 0.88739 0.0
C895 C 0.65008 0.92132 0.98238 0.0
C896 C 0.64986 0.9284 0.05429 0.0
C897 C 0.64966 0.91045 0.84642 0.0
C898 C 0.63356 0.92643 0.87245 0.0
C899 C 0.63266 0.92977 0.94114 0.0
C900 C 0.622 0.94404 0.83063 0.0
C901 C 0.64939 0.90322 0.77486 0.0
C902 C 0.63528 0.95675 0.78571 0.0
C903 C 0.62743 0.9779 0.76204 0.0
C904 C 0.60643 0.98719 0.78426 0.0
C905 C 0.59225 0.97355 0.82449 0.0
C906 C 0.59987 0.9521 0.8468 0.0
H907 H 0.65278 0.88441 0.77049 0.0
H908 H 0.63266 0.90718 0.75068 0.0
H909 H 0.66346 0.91217 0.74828 0.0
H910 H 0.65264 0.95149 0.77328 0.0
H911 H 0.63853 0.98764 0.72963 0.0
H912 H 0.5757 0.70546 0.04893 0.0
H913 H 0.58296 0.68318 0.95055 0.0
H914 H 0.62129 0.73963 0.86759 0.0
H915 H 0.61521 0.76208 0.96915 0.0
H916 H 0.58437 0.72588 0.7904 0.0
H917 H 0.63373 0.64863 0.85331 0.0
H918 H 0.61466 0.65475 0.92061 0.0
H919 H 0.63663 0.67541 0.89917 0.0
C920 C 0.58669 0.71296 0.01175 0.0
C921 C 0.59482 0.73573 0.01766 0.0
C922 C 0.59086 0.70006 0.95497 0.0
C923 C 0.60304 0.70955 0.902 0.0
C924 C 0.61212 0.73187 0.90827 0.0
H925 H 0.54422 0.59741 0.71167 0.0
H926 H 0.57526 0.62549 0.69572 0.0
C927 C 0.60832 0.74476 0.96607 0.0
C928 C 0.60172 0.69748 0.83752 0.0
H929 H 0.59643 0.64127 0.79254 0.0
C930 C 0.58784 0.70749 0.78869 0.0
C931 C 0.60719 0.6738 0.83261 0.0
C932 C 0.62415 0.66265 0.87899 0.0
C933 C 0.57525 0.69358 0.74468 0.0
C934 C 0.5766 0.66927 0.75075 0.0
C935 C 0.59445 0.65983 0.78923 0.0
C936 C 0.55627 0.65432 0.73741 0.0
C937 C 0.55877 0.70518 0.69774 0.0
C938 C 0.53478 0.66132 0.76256 0.0
C939 C 0.5171 0.64547 0.77088 0.0
C940 C 0.52058 0.62209 0.75572 0.0
C941 C 0.54116 0.61534 0.7244 0.0
C942 C 0.55891 0.63138 0.71532 0.0
H943 H 0.56843 0.71744 0.66632 0.0
H944 H 0.5495 0.69277 0.66548 0.0
H945 H 0.54598 0.71547 0.72615 0.0
H946 H 0.53218 0.67861 0.78166 0.0
H947 H 0.50121 0.65125 0.79362 0.0
H948 H 0.7712 0.57751 0.95419 0.0
H949 H 0.80303 0.59079 0.88653 0.0
H950 H 0.8316 0.62741 0.05347 0.0
H951 H 0.79953 0.6142 0.12201 0.0
H952 H 0.83135 0.63266 0.85479 0.0
H953 H 0.87308 0.56954 0.02486 0.0
H954 H 0.84219 0.57256 0.02225 0.0
H955 H 0.85957 0.59486 0.05884 0.0
C956 C 0.78359 0.58929 0.97596 0.0
C957 C 0.78316 0.59435 0.04387 0.0
C958 C 0.80182 0.59692 0.93706 0.0
C959 C 0.81988 0.60969 0.96538 0.0
C960 C 0.81794 0.61734 0.03095 0.0
H961 H 0.93622 0.546 0.79877 0.0
H962 H 0.9228 0.58092 0.85249 0.0
C963 C 0.79969 0.60966 0.07007 0.0
C964 C 0.84242 0.60954 0.93139 0.0
H965 H 0.88974 0.57507 0.92319 0.0
C966 C 0.84459 0.62063 0.87038 0.0
C967 C 0.85996 0.5943 0.95251 0.0
C968 C 0.85874 0.58203 0.01803 0.0
C969 C 0.86274 0.61509 0.82717 0.0
C970 C 0.87838 0.59732 0.84445 0.0
C971 C 0.87772 0.58847 0.90886 0.0
C972 C 0.89156 0.58376 0.79435 0.0
C973 C 0.86431 0.62768 0.76254 0.0
C974 C 0.87994 0.57506 0.73858 0.0
C975 C 0.88819 0.55558 0.70538 0.0
C976 C 0.90759 0.54362 0.72924 0.0
C977 C 0.92093 0.55421 0.77918 0.0
C978 C 0.91317 0.57431 0.81058 0.0
H979 H 0.86102 0.64639 0.77039 0.0
H980 H 0.88145 0.62551 0.73898 0.0
H981 H 0.85073 0.62122 0.72846 0.0
H982 H 0.8632 0.58166 0.72449 0.0
H983 H 0.87811 0.54881 0.66464 0.0
H984 H 1.00474 0.22247 0.05204 0.0
H985 H 0.99639 0.18994 0.97709 0.0
H986 H 0.06197 0.1998 0.8819 0.0
H987 H 0.07049 0.23181 0.95774 0.0
H988 H 0.99293 0.18215 0.8444 0.0
H989 H 0.06836 0.13382 0.93912 0.0
H990 H 0.05837 0.16019 0.97724 0.0
H991 H 0.07592 0.16112 0.90416 0.0
C992 C 0.017 0.21817 0.01362 0.0
C993 C 0.03812 0.23 0.01021 0.0
C994 C 0.01236 0.19935 0.97118 0.0
C995 C 0.0288 0.19179 0.92465 0.0
C996 C 0.04921 0.20468 0.91833 0.0
H997 H 0.03643 0.06978 0.65989 0.0
H998 H 0.04419 0.10628 0.71887 0.0
C999 C 0.0539 0.22333 0.96093 0.0
C1000 C 0.02504 0.17006 0.88471 0.0
H1001 H 0.04854 0.11709 0.84854 0.0
C1002 C 1.00509 0.16793 0.84559 0.0
C1003 C 0.04081 0.15127 0.88572 0.0
C1004 C 0.06195 0.15154 0.92927 0.0
C1005 C 1.00065 0.14794 0.80728 0.0
C1006 C 0.01637 0.12911 0.80853 0.0
C1007 C 0.03643 0.13135 0.84709 0.0
C1008 C 0.01191 0.10671 0.77247 0.0
C1009 C 0.97924 0.14749 0.76492 0.0
C1010 C 0.99144 0.09433 0.78328 0.0
C1011 C 0.98705 0.07355 0.74962 0.0
C1012 C 1.00325 0.06411 0.70555 0.0
C1013 C 0.02388 0.07626 0.69492 0.0
C1014 C 0.02822 0.09725 0.72832 0.0
H1015 H 0.97373 0.1652 0.75122 0.0
H1016 H 0.98194 0.13731 0.7191 0.0
H1017 H 0.96497 0.13952 0.79308 0.0
H1018 H 0.97876 0.10071 0.81803 0.0
H1019 H 0.97089 0.06473 0.75833 0.0
H1020 H 0.29602 0.01649 0.04517 0.0
H1021 H 0.32825 1.00664 0.97142 0.0
H1022 H 0.3176 0.07009 0.86577 0.0
H1023 H 0.28588 0.08013 0.94039 0.0
H1024 H 0.33532 1.00064 0.83852 0.0
H1025 H 0.38367 0.0777 0.92392 0.0
H1026 H 0.3575 0.06829 0.96326 0.0
H1027 H 0.35623 0.08452 0.88792 0.0
C1028 C 0.30009 0.02792 1.00476 0.0
C1029 C 0.28817 0.04891 0.99793 0.0
C1030 C 0.31871 0.02242 0.963 0.0
C1031 C 0.32592 0.03789 0.91385 0.0
C1032 C 0.31293 0.05811 0.90423 0.0
H1033 H 0.44805 0.0397 0.65303 0.0
H1034 H 0.41106 0.0486 0.70698 0.0
C1035 C 0.29447 0.06365 0.94615 0.0
C1036 C 0.3475 0.03339 0.87479 0.0
H1037 H 0.40044 0.05601 0.8372 0.0
C1038 C 0.34955 0.01276 0.83842 0.0
C1039 C 0.36626 0.04913 0.87423 0.0
C1040 C 0.36598 0.07105 0.91489 0.0
C1041 C 0.3695 0.00755 0.80141 0.0
C1042 C 0.38831 0.02321 0.80124 0.0
C1043 C 0.38615 0.04398 0.83688 0.0
C1044 C 0.41073 0.01788 0.76732 0.0
C1045 C 0.37002 0.98538 0.76205 0.0
C1046 C 0.42318 0.99786 0.78341 0.0
C1047 C 0.44425 0.99285 0.75278 0.0
C1048 C 0.45383 0.00797 0.7064 0.0
C1049 C 0.44145 0.02803 0.6899 0.0
C1050 C 0.42021 0.03301 0.72044 0.0
H1051 H 0.35236 0.97954 0.74893 0.0
H1052 H 0.3801 0.98733 0.71603 0.0
H1053 H 0.37818 0.97168 0.79216 0.0
H1054 H 0.4167 0.98612 0.82027 0.0
H1055 H 0.45327 0.97715 0.76598 0.0
H1056 H 0.50271 0.28232 0.00983 0.0
H1057 H 0.51547 0.31115 0.92922 0.0
H1058 H 0.44511 0.3208 0.8661 0.0
H1059 H 0.43248 0.29183 0.94532 0.0
H1060 H 0.47563 0.32382 0.76149 0.0
H1061 H 0.50437 0.37914 0.97107 0.0
H1062 H 0.51802 0.35136 0.96622 0.0
H1063 H 0.48766 0.3533 0.98295 0.0
C1064 C 0.49012 0.29002 0.97711 0.0
C1065 C 0.46659 0.2848 0.984 0.0
C1066 C 0.49736 0.30678 0.93171 0.0
C1067 C 0.48119 0.31868 0.89256 0.0
C1068 C 0.45795 0.31208 0.89586 0.0
H1069 H 0.46926 0.44151 0.65226 0.0
H1070 H 0.46417 0.40429 0.70648 0.0
C1071 C 0.45074 0.29543 0.94107 0.0
C1072 C 0.48789 0.33913 0.85206 0.0
H1073 H 0.50863 0.39427 0.8646 0.0
C1074 C 0.48299 0.33916 0.78401 0.0
C1075 C 0.49738 0.35932 0.8812 0.0
C1076 C 0.50201 0.36099 0.95442 0.0
C1077 C 0.48731 0.35867 0.74463 0.0
C1078 C 0.49641 0.37896 0.7741 0.0
C1079 C 0.50172 0.37877 0.8418 0.0
C1080 C 0.49984 0.40087 0.73658 0.0
C1081 C 0.48226 0.3573 0.67163 0.0
C1082 C 0.52154 0.41165 0.73551 0.0
C1083 C 0.52444 0.43313 0.70509 0.0
C1084 C 0.50563 0.44453 0.67568 0.0
C1085 C 0.48407 0.43341 0.67514 0.0
C1086 C 0.48118 0.41193 0.70555 0.0
H1087 H 0.48216 0.33915 0.65363 0.0
H1088 H 0.46497 0.36477 0.66193 0.0
H1089 H 0.49513 0.36717 0.64282 0.0
H1090 H 0.53621 0.40358 0.75915 0.0
H1091 H 0.5413 0.4411 0.70644 0.0
H1092 H 0.24728 0.4503 0.9557 0.0
H1093 H 0.21495 0.4571 0.87952 0.0
H1094 H 0.19674 0.51847 0.98891 0.0
H1095 H 0.22899 0.51162 0.06482 0.0
H1096 H 0.1604 0.48742 0.97592 0.0
H1097 H 0.19985 0.50285 0.7307 0.0
H1098 H 0.21014 0.47767 0.77291 0.0
H1099 H 0.21593 0.50579 0.80683 0.0
C1100 C 0.23702 0.46581 0.96147 0.0
C1101 C 0.24113 0.48082 0.01508 0.0
C1102 C 0.21839 0.46963 0.91815 0.0
C1103 C 0.20333 0.48843 0.92784 0.0
C1104 C 0.20809 0.50394 0.97981 0.0
H1105 H 0.08004 0.5371 0.72107 0.0
H1106 H 0.11716 0.5335 0.77798 0.0
C1107 C 0.22673 0.50019 0.02278 0.0
C1108 C 0.18136 0.49063 0.88891 0.0
H1109 H 0.1593 0.49765 0.7332 0.0
C1110 C 0.16024 0.48972 0.92285 0.0
C1111 C 0.18094 0.49358 0.81948 0.0
C1112 C 0.20289 0.49523 0.78016 0.0
C1113 C 0.13893 0.49141 0.88954 0.0
C1114 C 0.13853 0.49426 0.82033 0.0
C1115 C 0.15957 0.49537 0.7862 0.0
C1116 C 0.11629 0.49629 0.78327 0.0
C1117 C 0.11683 0.49024 0.92841 0.0
C1118 C 0.10335 0.47658 0.76705 0.0
C1119 C 0.08214 0.47856 0.73386 0.0
C1120 C 0.07319 0.50034 0.71661 0.0
C1121 C 0.08625 0.52004 0.73317 0.0
C1122 C 0.10756 0.51803 0.76579 0.0
H1123 H 0.11998 0.4895 0.98245 0.0
H1124 H 0.10594 0.50553 0.91756 0.0
H1125 H 0.10697 0.47468 0.91319 0.0
H1126 H 0.10968 0.45962 0.78007 0.0
H1127 H 0.0728 0.46295 0.72166 0.0
H1128 H 0.97693 0.82409 0.13283 0.0
H1129 H 0.98655 0.85398 0.21132 0.0
H1130 H 0.99921 0.80267 0.36028 0.0
H1131 H 0.98693 0.77218 0.28186 0.0
H1132 H 0.97935 0.83638 0.41805 0.0
H1133 H 0.04502 0.87857 0.26758 0.0
H1134 H 0.01902 0.87819 0.2202 0.0
H1135 H 0.03275 0.85134 0.24297 0.0
C1136 C 0.98171 0.81892 0.18228 0.0
C1137 C 0.98071 0.7955 0.20081 0.0
C1138 C 0.9877 0.83625 0.22728 0.0
C1139 C 0.99434 0.83098 0.29211 0.0
C1140 C 0.99431 0.80746 0.31063 0.0
H1141 H 0.05163 0.94954 0.5063 0.0
H1142 H 0.0455 0.91363 0.44641 0.0
C1143 C 0.98757 0.78991 0.26549 0.0
C1144 C 1.00006 0.85033 0.33988 0.0
H1145 H 0.02599 0.90329 0.34751 0.0
C1146 C 0.98994 0.85081 0.403 0.0
C1147 C 0.01431 0.86921 0.32207 0.0
C1148 C 0.02857 0.86911 0.25982 0.0
C1149 C 0.99305 0.86963 0.44715 0.0
C1150 C 1.00555 0.88945 0.42673 0.0
C1151 C 0.01603 0.88862 0.36409 0.0
C1152 C 0.00912 0.9108 0.46934 0.0
C1153 C 0.98348 0.8675 0.51587 0.0
C1154 C 0.99107 0.92156 0.50496 0.0
C1155 C 0.99493 0.94194 0.54211 0.0
C1156 C 0.01657 0.95287 0.54128 0.0
C1157 C 0.03454 0.94201 0.50651 0.0
C1158 C 0.03097 0.92135 0.47175 0.0
H1159 H 0.98188 0.84914 0.53058 0.0
H1160 H 0.99464 0.87642 0.55246 0.0
H1161 H 0.96596 0.87517 0.51736 0.0
H1162 H 0.97382 0.91455 0.5033 0.0
H1163 H 0.98096 0.94924 0.57079 0.0
H1164 H 0.7214 0.0085 0.20153 0.0
H1165 H 0.68978 0.01884 0.27616 0.0
H1166 H 0.70493 0.9592 0.39479 0.0
H1167 H 0.73605 0.94856 0.31879 0.0
H1168 H 0.66129 0.95935 0.36449 0.0
H1169 H 0.68158 0.04707 0.45461 0.0
H1170 H 0.68203 0.04553 0.36626 0.0
H1171 H 0.70267 0.0292 0.41341 0.0
C1172 C 0.71866 0.99824 0.24528 0.0
C1173 C 0.73167 0.97806 0.25523 0.0
C1174 C 0.70043 1.00408 0.28799 0.0
C1175 C 0.69487 0.98999 0.34211 0.0
C1176 C 0.70875 0.97049 0.35389 0.0
H1177 H 0.56977 0.98543 0.59729 0.0
H1178 H 0.60694 0.97614 0.54588 0.0
C1179 C 0.7268 0.96456 0.31091 0.0
C1180 C 0.67325 0.994 0.38162 0.0
H1181 H 0.64234 0.03499 0.46599 0.0
C1182 C 0.65729 0.97586 0.38725 0.0
C1183 C 0.6678 0.01545 0.41181 0.0
C1184 C 0.68454 0.03534 0.41186 0.0
C1185 C 0.6359 0.97874 0.41936 0.0
C1186 C 0.63004 1.00044 0.44781 0.0
C1187 C 0.64635 0.01841 0.44371 0.0
C1188 C 0.60697 1.00536 0.47951 0.0
C1189 C 0.61959 0.95855 0.41993 0.0
C1190 C 0.59447 0.02522 0.46163 0.0
C1191 C 0.57352 0.03082 0.49232 0.0
C1192 C 0.56401 0.01645 0.54072 0.0
C1193 C 0.57624 0.99647 0.55865 0.0
C1194 C 0.59757 0.99112 0.52894 0.0
H1195 H 0.62312 0.94627 0.37881 0.0
H1196 H 0.62169 0.94904 0.46692 0.0
H1197 H 0.60154 0.9644 0.41597 0.0
H1198 H 0.60104 0.03664 0.42401 0.0
H1199 H 0.56469 0.04651 0.47816 0.0
H1200 H 0.59854 0.72827 0.26554 0.0
H1201 H 0.58731 0.69888 0.34501 0.0
H1202 H 0.516 0.71826 0.32099 0.0
H1203 H 0.52725 0.74737 0.23936 0.0
H1204 H 0.56522 0.69664 0.46095 0.0
H1205 H 0.51344 0.65093 0.27009 0.0
H1206 H 0.53204 0.67481 0.25057 0.0
H1207 H 0.50423 0.67994 0.28692 0.0
C1208 C 0.58049 0.72662 0.27823 0.0
C1209 C 0.56378 0.74009 0.24576 0.0
C1210 C 0.57405 0.70971 0.32362 0.0
C1211 C 0.55072 0.70575 0.33788 0.0
C1212 C 0.53408 0.72045 0.30956 0.0
H1213 H 0.48916 0.58683 0.54038 0.0
H1214 H 0.49503 0.62468 0.49014 0.0
C1215 C 0.54054 0.73741 0.26375 0.0
C1216 C 0.54413 0.68546 0.37937 0.0
H1217 H 0.51478 0.63423 0.37535 0.0
C1218 C 0.55408 0.68306 0.44232 0.0
C1219 C 0.52967 0.66755 0.35527 0.0
C1220 C 0.51937 0.66823 0.28684 0.0
C1221 C 0.5501 0.66342 0.48142 0.0
C1222 C 0.5359 0.64537 0.45695 0.0
C1223 C 0.52555 0.648 0.39461 0.0
C1224 C 0.53231 0.62321 0.49345 0.0
C1225 C 0.56098 0.66239 0.54898 0.0
C1226 C 0.55119 0.60963 0.51308 0.0
C1227 C 0.54785 0.58815 0.54291 0.0
C1228 C 0.52554 0.57917 0.55198 0.0
C1229 C 0.50661 0.59298 0.53377 0.0
C1230 C 0.50996 0.61468 0.50477 0.0
H1231 H 0.56632 0.67976 0.56655 0.0
H1232 H 0.54893 0.65476 0.58525 0.0
H1233 H 0.57673 0.65155 0.54695 0.0
H1234 H 0.56863 0.61523 0.50347 0.0
H1235 H 0.56289 0.57834 0.55738 0.0
H1236 H 0.77349 0.56899 0.3041 0.0
H1237 H 0.8053 0.55891 0.37881 0.0
H1238 H 0.82507 0.50351 0.24771 0.0
H1239 H 0.79323 0.51362 0.17305 0.0
H1240 H 0.82213 0.51704 0.44531 0.0
H1241 H 0.881 0.54875 0.24998 0.0
H1242 H 0.85039 0.5544 0.24883 0.0
H1243 H 0.86118 0.52655 0.2247 0.0
C1244 C 0.78397 0.55398 0.29288 0.0
C1245 C 0.78049 0.54173 0.23351 0.0
C1246 C 0.80233 0.54838 0.33526 0.0
C1247 C 0.81787 0.53064 0.31864 0.0
C1248 C 0.81348 0.51739 0.26152 0.0
H1249 H 0.9375 0.47991 0.54212 0.0
H1250 H 0.90029 0.48372 0.48597 0.0
C1251 C 0.79504 0.52292 0.21932 0.0
C1252 C 0.83974 0.52758 0.35722 0.0
H1253 H 0.89833 0.53379 0.34601 0.0
C1254 C 0.83879 0.52058 0.42349 0.0
C1255 C 0.86155 0.53261 0.32938 0.0
C1256 C 0.86375 0.54119 0.25952 0.0
C1257 C 0.85899 0.51814 0.46202 0.0
C1258 C 0.8808 0.52278 0.43369 0.0
C1259 C 0.88169 0.53006 0.36775 0.0
C1260 C 0.90291 0.52057 0.47163 0.0
C1261 C 0.85687 0.51117 0.53329 0.0
C1262 C 0.91695 0.53997 0.48266 0.0
C1263 C 0.93823 0.53787 0.51526 0.0
C1264 C 0.94632 0.51623 0.53653 0.0
C1265 C 0.93202 0.49687 0.52634 0.0
C1266 C 0.91061 0.49902 0.49434 0.0
H1267 H 0.83889 0.51282 0.5515 0.0
H1268 H 0.8623 0.49291 0.5386 0.0
H1269 H 0.86832 0.5219 0.56495 0.0
H1270 H 0.91144 0.55681 0.46593 0.0
H1271 H 0.94839 0.55327 0.52345 0.0
loop_
_geom_bond_atom_site_label_1
_geom_bond_atom_site_label_2
_geom_bond_distance
_geom_bond_site_symmetry_2
_ccdc_geom_bond_type
H0 C3 0.931 . S
H1 C6 0.928 . S
H2 C8 0.930 . S
C3 H0 0.931 . S
C3 C4 1.413 . S
C3 C5 1.360 . S
C4 C3 1.413 . S
C4 C8 1.429 . S
C5 C3 1.360 . S
C5 C6 1.372 . S
C6 H1 0.928 . S
C6 C5 1.372 . S
C6 C7 1.404 . S
C7 C6 1.404 . S
C7 C8 1.391 . S
C8 H2 0.930 . S
C8 C4 1.429 . S
C8 C7 1.391 . S
H9 C12 0.931 . S
H10 C15 0.928 . S
H11 C17 0.930 . S
C12 H9 0.931 . S
C12 C13 1.413 . S
C12 C14 1.360 . S
C13 C12 1.413 . S
C13 C17 1.429 . S
C14 C12 1.360 . S
C14 C15 1.372 . S
C15 H10 0.928 . S
C15 C14 1.372 . S
C15 C16 1.404 . S
C16 C15 1.404 . S
C16 C17 1.391 . S
C17 H11 0.930 . S
C17 C13 1.429 . S
C17 C16 1.391 . S
H18 C21 0.931 . S
H19 C24 0.928 . S
H20 C26 0.930 . S
C21 H18 0.931 . S
C21 C22 1.413 . S
C21 C23 1.360 . S
C22 C21 1.413 . S
C22 C26 1.429 . S
C23 C21 1.360 . S
C23 C24 1.372 . S
C24 H19 0.928 . S
C24 C23 1.372 . S
C24 C25 1.404 . S
C25 C24 1.404 . S
C25 C26 1.391 . S
C26 H20 0.930 . S
C26 C22 1.429 . S
C26 C25 1.391 . S
H27 C30 0.931 . S
H28 C33 0.928 . S
H29 C35 0.930 . S
C30 H27 0.931 . S
C30 C31 1.413 . S
C30 C32 1.360 . S
C31 C30 1.413 . S
C31 C35 1.429 . S
C32 C30 1.360 . S
C32 C33 1.372 . S
C33 H28 0.928 . S
C33 C32 1.372 . S
C33 C34 1.404 . S
C34 C33 1.404 . S
C34 C35 1.391 . S
C35 H29 0.930 . S
C35 C31 1.429 . S
C35 C34 1.391 . S
H36 C39 0.933 . S
H37 C42 0.928 . S
H38 C44 0.930 . S
C39 H36 0.933 . S
C39 C40 1.413 1_554 S
C39 C41 1.360 . S
C40 C39 1.413 1_556 S
C40 C44 1.429 . S
C41 C39 1.360 . S
C41 C42 1.372 . S
C42 H37 0.928 . S
C42 C41 1.372 . S
C42 C43 1.404 . S
C43 C42 1.404 . S
C43 C44 1.391 1_554 S
C44 H38 0.930 . S
C44 C40 1.429 . S
C44 C43 1.391 1_556 S
H45 C48 0.931 1_556 S
H46 C51 0.928 . S
H47 C53 0.930 . S
C48 H45 0.931 1_554 S
C48 C49 1.413 1_554 S
C48 C50 1.360 . S
C49 C48 1.413 1_556 S
C49 C53 1.429 . S
C50 C48 1.360 . S
C50 C51 1.372 . S
C51 H46 0.928 . S
C51 C50 1.372 . S
C51 C52 1.404 . S
C52 C51 1.404 . S
C52 C53 1.391 1_554 S
C53 H47 0.930 . S
C53 C49 1.429 . S
C53 C52 1.391 1_556 S
H54 C57 0.931 1_556 S
H55 C60 0.928 . S
H56 C62 0.930 . S
C57 H54 0.931 1_554 S
C57 C58 1.413 1_554 S
C57 C59 1.360 . S
C58 C57 1.413 1_556 S
C58 C62 1.429 . S
C59 C57 1.360 . S
C59 C60 1.372 . S
C60 H55 0.928 . S
C60 C59 1.372 . S
C60 C61 1.404 . S
C61 C60 1.404 . S
C61 C62 1.391 1_554 S
C62 H56 0.930 . S
C62 C58 1.429 . S
C62 C61 1.391 1_556 S
H63 C66 0.931 1_556 S
H64 C69 0.928 . S
H65 C71 0.930 . S
C66 H63 0.931 1_554 S
C66 C67 1.413 . S
C66 C68 1.360 1_554 S
C67 C66 1.413 . S
C67 C71 1.429 . S
C68 C66 1.360 1_556 S
C68 C69 1.372 . S
C69 H64 0.928 . S
C69 C68 1.372 . S
C69 C70 1.404 1_556 S
C70 C69 1.404 1_554 S
C70 C71 1.391 . S
C71 H65 0.930 . S
C71 C67 1.429 . S
C71 C70 1.391 . S
Tb72 N103 2.660 1_565 S
Tb72 N110 2.600 . S
Tb72 O116 2.546 . S
Tb72 O117 2.610 1_455 S
Tb72 O119 2.320 1_455 S
Tb72 O120 2.552 . S
Tb72 O121 2.413 . S
Tb72 O123 2.362 1_565 S
Tb72 O124 2.421 . S
Tb72 C136 2.833 . S
C73 C76 1.432 1_545 S
C73 C77 1.414 . S
C73 N80 1.359 . S
C74 C76 1.417 . S
C74 C78 1.432 . S
C74 C86 1.410 . S
C75 C77 1.444 1_565 S
C75 C78 1.317 . S
C75 H98 0.929 . S
C76 C73 1.432 1_565 S
C76 C74 1.417 . S
C76 N84 1.361 1_565 S
C77 C73 1.414 . S
C77 C75 1.444 1_545 S
C77 C82 1.385 . S
C78 C74 1.432 . S
C78 C75 1.317 . S
C78 H90 0.930 . S
C79 C81 1.392 . S
C79 C82 1.370 . S
C79 H91 0.931 . S
N80 C73 1.359 . S
N80 C81 1.327 . S
N80 Tb83 2.600 . S
C81 C79 1.392 . S
C81 N80 1.327 . S
C81 H88 0.930 . S
C82 C77 1.385 . S
C82 C79 1.370 . S
C82 H101 0.930 . S
Tb83 N80 2.600 . S
Tb83 N84 2.657 . S
Tb83 O117 2.362 1_545 S
Tb83 O118 2.421 . S
Tb83 O122 2.546 . S
Tb83 O123 2.610 1_655 S
Tb83 O125 2.320 1_655 S
Tb83 O126 2.552 1_655 S
Tb83 O127 2.413 . S
Tb83 C147 2.833 . S
N84 C76 1.361 1_545 S
N84 Tb83 2.657 . S
N84 C85 1.307 1_645 S
C85 N84 1.307 1_465 S
C85 C87 1.407 . S
C85 H92 0.930 . S
C86 C74 1.410 . S
C86 C87 1.344 1_655 S
C86 H94 0.930 . S
C87 C85 1.407 . S
C87 C86 1.344 1_455 S
C87 H89 0.931 . S
H88 C81 0.930 . S
H89 C87 0.931 . S
H90 C78 0.930 . S
H91 C79 0.931 . S
H92 C85 0.930 . S
H93 C107 0.930 1_655 S
H94 C86 0.930 . S
H95 C113 0.930 . S
H96 C104 0.930 1_655 S
H97 C111 0.931 . S
H98 C75 0.929 . S
H99 C105 0.930 . S
H100 C138 0.930 . S
H101 C82 0.930 . S
H102 C137 0.929 . S
N103 Tb72 2.660 1_545 S
N103 C104 1.305 . S
N103 C108 1.360 . S
C104 H96 0.930 1_455 S
C104 N103 1.305 . S
C104 C107 1.407 . S
C105 H99 0.930 . S
C105 C106 1.410 . S
C105 C107 1.345 . S
C106 C105 1.410 . S
C106 C108 1.417 . S
C106 C138 1.432 . S
C107 H93 0.930 1_455 S
C107 C104 1.407 . S
C107 C105 1.345 . S
C108 N103 1.360 . S
C108 C106 1.417 . S
C108 C112 1.432 . S
H109 C114 0.927 1_545 S
N110 Tb72 2.600 . S
N110 C112 1.359 1_565 S
N110 C113 1.327 . S
C111 H97 0.931 . S
C111 C113 1.392 . S
C111 C114 1.384 . S
C112 C108 1.432 . S
C112 N110 1.359 1_545 S
C112 C115 1.414 . S
C113 H95 0.930 . S
C113 N110 1.327 . S
C113 C111 1.392 . S
C114 H109 0.927 1_565 S
C114 C111 1.384 . S
C114 C115 1.373 1_565 S
C115 C112 1.414 . S
C115 C114 1.373 1_545 S
C115 C137 1.444 . S
O116 Tb72 2.546 . S
O116 C136 1.251 . S
O117 Tb72 2.610 1_655 S
O117 Tb83 2.362 1_565 S
O117 C128 1.283 . S
O118 Tb83 2.421 . S
O118 C135 1.262 . S
O119 Tb72 2.320 1_655 S
O119 C135 1.260 1_565 S
O120 Tb72 2.552 . S
O120 C128 1.243 1_455 S
O121 Tb72 2.413 . S
O121 C136 1.256 . S
O122 Tb83 2.546 . S
O122 C147 1.251 . S
O123 Tb72 2.362 1_545 S
O123 Tb83 2.610 1_455 S
O123 C139 1.283 . S
O124 Tb72 2.421 . S
O124 C146 1.262 1_565 S
O125 Tb83 2.320 1_455 S
O125 C146 1.260 . S
O126 Tb83 2.552 1_455 S
O126 C139 1.243 . S
O127 Tb83 2.413 . S
O127 C147 1.256 . S
C128 O117 1.283 . S
C128 O120 1.243 1_655 S
C129 C131 1.382 . S
C129 C133 1.393 . S
C129 C136 1.500 . S
C130 C131 1.400 . S
C130 C132 1.384 . S
C131 C129 1.382 . S
C131 C130 1.400 . S
C131 H148 0.915 1_455 S
C132 C130 1.384 . S
C132 C134 1.392 . S
C132 H149 0.931 . S
C133 C129 1.393 . S
C133 C134 1.401 . S
C133 H150 0.930 . S
C134 C132 1.392 . S
C134 C133 1.401 . S
C134 H151 0.930 . S
C135 O118 1.262 . S
C135 O119 1.260 1_545 S
C136 Tb72 2.833 . S
C136 O116 1.251 . S
C136 O121 1.256 . S
C136 C129 1.500 . S
C137 H102 0.929 . S
C137 C115 1.444 . S
C137 C138 1.317 . S
C138 H100 0.930 . S
C138 C106 1.432 . S
C138 C137 1.317 . S
C139 O123 1.283 . S
C139 O126 1.243 . S
C140 C141 1.382 . S
C140 C144 1.393 . S
C140 C147 1.500 . S
C141 C140 1.382 . S
C141 C142 1.400 . S
C141 H152 0.930 1_655 S
C142 C141 1.400 . S
C142 C143 1.384 . S
C143 C142 1.384 . S
C143 C145 1.392 . S
C143 H153 0.931 . S
C144 C140 1.393 . S
C144 C145 1.401 . S
C144 H154 0.930 . S
C145 C143 1.392 . S
C145 C144 1.401 . S
C145 H155 0.930 . S
C146 O124 1.262 1_545 S
C146 O125 1.260 . S
C147 Tb83 2.833 . S
C147 O122 1.251 . S
C147 O127 1.256 . S
C147 C140 1.500 . S
H148 C131 0.915 1_655 S
H149 C132 0.931 . S
H150 C133 0.930 . S
H151 C134 0.930 . S
H152 C141 0.930 1_455 S
H153 C143 0.931 . S
H154 C144 0.930 . S
H155 C145 0.930 . S
Tb156 N187 2.660 . S
Tb156 N194 2.600 . S
Tb156 O200 2.546 . S
Tb156 O201 2.610 1_545 S
Tb156 O203 2.320 1_545 S
Tb156 O204 2.552 . S
Tb156 O205 2.413 . S
Tb156 O207 2.362 . S
Tb156 O208 2.421 . S
Tb156 C220 2.833 . S
C157 C160 1.432 . S
C157 C161 1.414 . S
C157 N164 1.359 . S
C158 C160 1.417 . S
C158 C162 1.432 . S
C158 C170 1.410 . S
C159 C161 1.444 . S
C159 C162 1.317 . S
C159 H182 0.929 . S
C160 C157 1.432 . S
C160 C158 1.417 . S
C160 N168 1.360 . S
C161 C157 1.414 . S
C161 C159 1.444 . S
C161 C166 1.385 . S
C162 C158 1.432 . S
C162 C159 1.317 . S
C162 H174 0.930 . S
C163 C165 1.392 . S
C163 C166 1.370 . S
C163 H175 0.931 . S
N164 C157 1.359 . S
N164 C165 1.327 . S
N164 Tb167 2.600 . S
C165 C163 1.392 . S
C165 N164 1.327 . S
C165 H172 0.930 . S
C166 C161 1.385 . S
C166 C163 1.370 . S
C166 H185 0.930 . S
Tb167 N164 2.600 . S
Tb167 N168 2.660 . S
Tb167 O201 2.362 . S
Tb167 O202 2.421 . S
Tb167 O206 2.546 . S
Tb167 O207 2.610 1_565 S
Tb167 O209 2.320 1_565 S
Tb167 O210 2.552 1_565 S
Tb167 O211 2.413 . S
Tb167 C231 2.833 . S
N168 C160 1.360 . S
N168 Tb167 2.660 . S
N168 C169 1.305 1_565 S
C169 N168 1.305 1_545 S
C169 C171 1.407 . S
C169 H176 0.930 . S
C170 C158 1.410 . S
C170 C171 1.345 1_565 S
C170 H178 0.930 . S
C171 C169 1.407 . S
C171 C170 1.345 1_545 S
C171 H173 0.930 . S
H172 C165 0.930 . S
H173 C171 0.930 . S
H174 C162 0.930 . S
H175 C163 0.931 . S
H176 C169 0.930 . S
H177 C191 0.930 1_565 S
H178 C170 0.930 . S
H179 C197 0.930 . S
H180 C188 0.930 1_565 S
H181 C195 0.931 . S
H182 C159 0.929 . S
H183 C189 0.930 . S
H184 C222 0.930 . S
H185 C166 0.930 . S
H186 C221 0.929 . S
N187 Tb156 2.660 . S
N187 C188 1.305 . S
N187 C192 1.360 . S
C188 H180 0.930 1_545 S
C188 N187 1.305 . S
C188 C191 1.407 . S
C189 H183 0.930 . S
C189 C190 1.410 . S
C189 C191 1.345 . S
C190 C189 1.410 . S
C190 C192 1.417 . S
C190 C222 1.432 . S
C191 H177 0.930 1_545 S
C191 C188 1.407 . S
C191 C189 1.345 . S
C192 N187 1.360 . S
C192 C190 1.417 . S
C192 C196 1.432 . S
H193 C198 0.930 . S
N194 Tb156 2.600 . S
N194 C196 1.359 . S
N194 C197 1.327 . S
C195 H181 0.931 . S
C195 C197 1.392 . S
C195 C198 1.370 . S
C196 C192 1.432 . S
C196 N194 1.359 . S
C196 C199 1.414 . S
C197 H179 0.930 . S
C197 N194 1.327 . S
C197 C195 1.392 . S
C198 H193 0.930 . S
C198 C195 1.370 . S
C198 C199 1.385 . S
C199 C196 1.414 . S
C199 C198 1.385 . S
C199 C221 1.444 . S
O200 Tb156 2.546 . S
O200 C220 1.251 . S
O201 Tb156 2.610 1_565 S
O201 Tb167 2.362 . S
O201 C212 1.283 . S
O202 Tb167 2.421 . S
O202 C219 1.262 . S
O203 Tb156 2.320 1_565 S
O203 C219 1.260 . S
O204 Tb156 2.552 . S
O204 C212 1.243 1_545 S
O205 Tb156 2.413 . S
O205 C220 1.256 . S
O206 Tb167 2.546 . S
O206 C231 1.251 . S
O207 Tb156 2.362 . S
O207 Tb167 2.610 1_545 S
O207 C223 1.283 . S
O208 Tb156 2.421 . S
O208 C230 1.262 . S
O209 Tb167 2.320 1_545 S
O209 C230 1.260 . S
O210 Tb167 2.552 1_545 S
O210 C223 1.243 . S
O211 Tb167 2.413 . S
O211 C231 1.256 . S
C212 O201 1.283 . S
C212 O204 1.243 1_565 S
C213 C215 1.382 . S
C213 C217 1.393 . S
C213 C220 1.500 . S
C214 C215 1.400 . S
C214 C216 1.384 . S
C215 C213 1.382 . S
C215 C214 1.400 . S
C215 H232 0.930 . S
C216 C214 1.384 . S
C216 C218 1.392 . S
C216 H233 0.931 . S
C217 C213 1.393 . S
C217 C218 1.401 . S
C217 H234 0.930 . S
C218 C216 1.392 . S
C218 C217 1.401 . S
C218 H235 0.930 . S
C219 O202 1.262 . S
C219 O203 1.260 . S
C220 Tb156 2.833 . S
C220 O200 1.251 . S
C220 O205 1.256 . S
C220 C213 1.500 . S
C221 H186 0.929 . S
C221 C199 1.444 . S
C221 C222 1.317 . S
C222 H184 0.930 . S
C222 C190 1.432 . S
C222 C221 1.317 . S
C223 O207 1.283 . S
C223 O210 1.243 . S
C224 C225 1.382 . S
C224 C228 1.393 . S
C224 C231 1.500 . S
C225 C224 1.382 . S
C225 C226 1.400 . S
C225 H236 0.930 1_565 S
C226 C225 1.400 . S
C226 C227 1.384 . S
C227 C226 1.384 . S
C227 C229 1.392 . S
C227 H237 0.931 . S
C228 C224 1.393 . S
C228 C229 1.401 . S
C228 H238 0.930 . S
C229 C227 1.392 . S
C229 C228 1.401 . S
C229 H239 0.930 . S
C230 O208 1.262 . S
C230 O209 1.260 . S
C231 Tb167 2.833 . S
C231 O206 1.251 . S
C231 O211 1.256 . S
C231 C224 1.500 . S
H232 C215 0.930 . S
H233 C216 0.931 . S
H234 C217 0.930 . S
H235 C218 0.930 . S
H236 C225 0.930 1_545 S
H237 C227 0.931 . S
H238 C228 0.930 . S
H239 C229 0.930 . S
Tb240 N271 2.660 . S
Tb240 N278 2.600 . S
Tb240 O284 2.546 . S
Tb240 O285 2.610 . S
Tb240 O287 2.320 . S
Tb240 O288 2.552 . S
Tb240 O289 2.413 . S
Tb240 O291 2.362 . S
Tb240 O292 2.421 . S
Tb240 C304 2.833 . S
C241 C244 1.432 . S
C241 C245 1.414 . S
C241 N248 1.359 . S
C242 C244 1.417 . S
C242 C246 1.432 . S
C242 C254 1.410 . S
C243 C245 1.444 . S
C243 C246 1.317 . S
C243 H266 0.929 . S
C244 C241 1.432 . S
C244 C242 1.417 . S
C244 N252 1.360 . S
C245 C241 1.414 . S
C245 C243 1.444 . S
C245 C250 1.385 . S
C246 C242 1.432 . S
C246 C243 1.317 . S
C246 H258 0.930 . S
C247 C249 1.392 . S
C247 C250 1.370 . S
C247 H259 0.931 . S
N248 C241 1.359 . S
N248 C249 1.327 . S
N248 Tb251 2.600 . S
C249 C247 1.392 . S
C249 N248 1.327 . S
C249 H256 0.930 . S
C250 C245 1.385 . S
C250 C247 1.370 . S
C250 H269 0.930 . S
Tb251 N248 2.600 . S
Tb251 N252 2.660 . S
Tb251 O285 2.362 . S
Tb251 O286 2.421 . S
Tb251 O290 2.546 . S
Tb251 O291 2.610 . S
Tb251 O293 2.320 . S
Tb251 O294 2.552 . S
Tb251 O295 2.413 . S
Tb251 C315 2.833 . S
N252 C244 1.360 . S
N252 Tb251 2.660 . S
N252 C253 1.305 . S
C253 N252 1.305 . S
C253 C255 1.407 . S
C253 H260 0.930 . S
C254 C242 1.410 . S
C254 C255 1.345 . S
C254 H262 0.930 . S
C255 C253 1.407 . S
C255 C254 1.345 . S
C255 H257 0.930 . S
H256 C249 0.930 . S
H257 C255 0.930 . S
H258 C246 0.930 . S
H259 C247 0.931 . S
H260 C253 0.930 . S
H261 C275 0.930 . S
H262 C254 0.930 . S
H263 C281 0.930 . S
H264 C272 0.930 . S
H265 C279 0.931 . S
H266 C243 0.929 . S
H267 C273 0.930 . S
H268 C306 0.930 . S
H269 C250 0.930 . S
H270 C305 0.929 . S
N271 Tb240 2.660 . S
N271 C272 1.305 . S
N271 C276 1.360 . S
C272 H264 0.930 . S
C272 N271 1.305 . S
C272 C275 1.407 . S
C273 H267 0.930 . S
C273 C274 1.410 . S
C273 C275 1.345 . S
C274 C273 1.410 . S
C274 C276 1.417 . S
C274 C306 1.432 . S
C275 H261 0.930 . S
C275 C272 1.407 . S
C275 C273 1.345 . S
C276 N271 1.360 . S
C276 C274 1.417 . S
C276 C280 1.432 . S
H277 C282 0.930 . S
N278 Tb240 2.600 . S
N278 C280 1.359 . S
N278 C281 1.327 . S
C279 H265 0.931 . S
C279 C281 1.392 . S
C279 C282 1.370 . S
C280 C276 1.432 . S
C280 N278 1.359 . S
C280 C283 1.414 . S
C281 H263 0.930 . S
C281 N278 1.327 . S
C281 C279 1.392 . S
C282 H277 0.930 . S
C282 C279 1.370 . S
C282 C283 1.385 . S
C283 C280 1.414 . S
C283 C282 1.385 . S
C283 C305 1.444 . S
O284 Tb240 2.546 . S
O284 C304 1.251 . S
O285 Tb240 2.610 . S
O285 Tb251 2.362 . S
O285 C296 1.283 . S
O286 Tb251 2.421 . S
O286 C303 1.262 . S
O287 Tb240 2.320 . S
O287 C303 1.260 . S
O288 Tb240 2.552 . S
O288 C296 1.243 . S
O289 Tb240 2.413 . S
O289 C304 1.256 . S
O290 Tb251 2.546 . S
O290 C315 1.251 . S
O291 Tb240 2.362 . S
O291 Tb251 2.610 . S
O291 C307 1.283 . S
O292 Tb240 2.421 . S
O292 C314 1.262 . S
O293 Tb251 2.320 . S
O293 C314 1.260 . S
O294 Tb251 2.552 . S
O294 C307 1.243 . S
O295 Tb251 2.413 . S
O295 C315 1.256 . S
C296 O285 1.283 . S
C296 O288 1.243 . S
C297 C299 1.382 . S
C297 C301 1.393 . S
C297 C304 1.500 . S
C298 C299 1.400 . S
C298 C300 1.384 . S
C299 C297 1.382 . S
C299 C298 1.400 . S
C299 H316 0.930 . S
C300 C298 1.384 . S
C300 C302 1.392 . S
C300 H317 0.931 . S
C301 C297 1.393 . S
C301 C302 1.401 . S
C301 H318 0.930 . S
C302 C300 1.392 . S
C302 C301 1.401 . S
C302 H319 0.930 . S
C303 O286 1.262 . S
C303 O287 1.260 . S
C304 Tb240 2.833 . S
C304 O284 1.251 . S
C304 O289 1.256 . S
C304 C297 1.500 . S
C305 H270 0.929 . S
C305 C283 1.444 . S
C305 C306 1.317 . S
C306 H268 0.930 . S
C306 C274 1.432 . S
C306 C305 1.317 . S
C307 O291 1.283 . S
C307 O294 1.243 . S
C308 C309 1.382 . S
C308 C312 1.393 . S
C308 C315 1.500 . S
C309 C308 1.382 . S
C309 C310 1.400 . S
C309 H320 0.930 . S
C310 C309 1.400 . S
C310 C311 1.384 . S
C311 C310 1.384 . S
C311 C313 1.392 . S
C311 H321 0.931 . S
C312 C308 1.393 . S
C312 C313 1.401 . S
C312 H322 0.930 . S
C313 C311 1.392 . S
C313 C312 1.401 . S
C313 H323 0.930 . S
C314 O292 1.262 . S
C314 O293 1.260 . S
C315 Tb251 2.833 . S
C315 O290 1.251 . S
C315 O295 1.256 . S
C315 C308 1.500 . S
H316 C299 0.930 . S
H317 C300 0.931 . S
H318 C301 0.930 . S
H319 C302 0.930 . S
H320 C309 0.930 . S
H321 C311 0.931 . S
H322 C312 0.930 . S
H323 C313 0.930 . S
Tb324 N355 2.660 . S
Tb324 N362 2.600 . S
Tb324 O368 2.546 . S
Tb324 O369 2.610 . S
Tb324 O371 2.320 . S
Tb324 O372 2.552 . S
Tb324 O373 2.413 . S
Tb324 O375 2.374 . S
Tb324 O376 2.421 1_455 S
Tb324 C388 2.833 . S
C325 C328 1.432 . S
C325 C329 1.414 . S
C325 N332 1.359 . S
C326 C328 1.417 . S
C326 C330 1.432 . S
C326 C338 1.410 . S
C327 C329 1.444 . S
C327 C330 1.317 . S
C327 H350 0.929 . S
C328 C325 1.432 . S
C328 C326 1.417 . S
C328 N336 1.360 . S
C329 C325 1.414 . S
C329 C327 1.444 . S
C329 C334 1.385 . S
C330 C326 1.432 . S
C330 C327 1.317 . S
C330 H342 0.930 . S
C331 C333 1.392 . S
C331 C334 1.370 1_455 S
C331 H343 0.931 . S
N332 C325 1.359 . S
N332 C333 1.327 1_655 S
N332 Tb335 2.600 . S
C333 C331 1.392 . S
C333 N332 1.327 1_455 S
C333 H340 0.930 . S
C334 C329 1.385 . S
C334 C331 1.370 1_655 S
C334 H353 0.930 . S
Tb335 N332 2.600 . S
Tb335 N336 2.660 . S
Tb335 O369 2.362 1_655 S
Tb335 O370 2.421 1_655 S
Tb335 O374 2.546 . S
Tb335 O375 2.602 1_655 S
Tb335 O377 2.320 . S
Tb335 O378 2.552 . S
Tb335 O379 2.413 . S
Tb335 C399 2.833 . S
N336 C328 1.360 . S
N336 Tb335 2.660 . S
N336 C337 1.305 . S
C337 N336 1.305 . S
C337 C339 1.407 . S
C337 H344 0.930 . S
C338 C326 1.410 . S
C338 C339 1.345 . S
C338 H346 0.930 . S
C339 C337 1.407 . S
C339 C338 1.345 . S
C339 H341 0.930 . S
H340 C333 0.930 . S
H341 C339 0.930 . S
H342 C330 0.930 . S
H343 C331 0.931 . S
H344 C337 0.930 . S
H345 C359 0.930 . S
H346 C338 0.930 . S
H347 C365 0.930 1_655 S
H348 C356 0.930 . S
H349 C363 0.921 1_655 S
H350 C327 0.929 . S
H351 C357 0.930 . S
H352 C390 0.930 . S
H353 C334 0.930 . S
H354 C389 0.929 . S
N355 Tb324 2.660 . S
N355 C356 1.305 . S
N355 C360 1.360 . S
C356 H348 0.930 . S
C356 N355 1.305 . S
C356 C359 1.407 . S
C357 H351 0.930 . S
C357 C358 1.410 . S
C357 C359 1.345 . S
C358 C357 1.410 . S
C358 C360 1.417 . S
C358 C390 1.432 . S
C359 H345 0.930 . S
C359 C356 1.407 . S
C359 C357 1.345 . S
C360 N355 1.360 . S
C360 C358 1.417 . S
C360 C364 1.432 . S
H361 C366 0.930 . S
N362 Tb324 2.600 . S
N362 C364 1.359 . S
N362 C365 1.327 . S
C363 H349 0.921 1_455 S
C363 C365 1.394 . S
C363 C366 1.378 . S
C364 C360 1.432 . S
C364 N362 1.359 . S
C364 C367 1.414 . S
C365 H347 0.930 1_455 S
C365 N362 1.327 . S
C365 C363 1.394 . S
C366 H361 0.930 . S
C366 C363 1.378 . S
C366 C367 1.385 . S
C367 C364 1.414 . S
C367 C366 1.385 . S
C367 C389 1.444 . S
O368 Tb324 2.546 . S
O368 C388 1.251 . S
O369 Tb324 2.610 . S
O369 Tb335 2.362 1_455 S
O369 C380 1.283 . S
O370 Tb335 2.421 1_455 S
O370 C387 1.262 . S
O371 Tb324 2.320 . S
O371 C387 1.260 . S
O372 Tb324 2.552 . S
O372 C380 1.243 . S
O373 Tb324 2.413 . S
O373 C388 1.256 . S
O374 Tb335 2.546 . S
O374 C399 1.251 . S
O375 Tb324 2.374 . S
O375 Tb335 2.602 1_455 S
O375 C391 1.274 1_455 S
O376 Tb324 2.421 1_655 S
O376 C398 1.262 . S
O377 Tb335 2.320 . S
O377 C398 1.260 . S
O378 Tb335 2.552 . S
O378 C391 1.243 . S
O379 Tb335 2.413 . S
O379 C399 1.256 . S
C380 O369 1.283 . S
C380 O372 1.243 . S
C381 C383 1.382 . S
C381 C385 1.393 . S
C381 C388 1.500 . S
C382 C383 1.400 . S
C382 C384 1.384 . S
C383 C381 1.382 . S
C383 C382 1.400 . S
C383 H400 0.930 . S
C384 C382 1.384 . S
C384 C386 1.392 . S
C384 H401 0.931 . S
C385 C381 1.393 . S
C385 C386 1.401 . S
C385 H402 0.930 . S
C386 C384 1.392 . S
C386 C385 1.401 . S
C386 H403 0.930 . S
C387 O370 1.262 . S
C387 O371 1.260 . S
C388 Tb324 2.833 . S
C388 O368 1.251 . S
C388 O373 1.256 . S
C388 C381 1.500 . S
C389 H354 0.929 . S
C389 C367 1.444 . S
C389 C390 1.317 . S
C390 H352 0.930 . S
C390 C358 1.432 . S
C390 C389 1.317 . S
C391 O375 1.274 1_655 S
C391 O378 1.243 . S
C392 C393 1.382 . S
C392 C396 1.393 . S
C392 C399 1.500 . S
C393 C392 1.382 . S
C393 C394 1.400 . S
C393 H404 0.930 . S
C394 C393 1.400 . S
C394 C395 1.384 . S
C395 C394 1.384 . S
C395 C397 1.392 . S
C395 H405 0.931 . S
C396 C392 1.393 . S
C396 C397 1.401 . S
C396 H406 0.930 . S
C397 C395 1.392 . S
C397 C396 1.401 . S
C397 H407 0.930 . S
C398 O376 1.262 . S
C398 O377 1.260 . S
C399 Tb335 2.833 . S
C399 O374 1.251 . S
C399 O379 1.256 . S
C399 C392 1.500 . S
H400 C383 0.930 . S
H401 C384 0.931 . S
H402 C385 0.930 . S
H403 C386 0.930 . S
H404 C393 0.930 . S
H405 C395 0.931 . S
H406 C396 0.930 . S
H407 C397 0.930 . S
H408 C416 0.929 . S
H409 C418 0.930 . S
H410 C420 0.930 . S
H411 C423 0.929 . S
H412 C426 0.930 . S
H413 C428 0.960 . S
H414 C428 0.960 . S
H415 C428 0.960 . S
C416 H408 0.929 . S
C416 C417 1.377 . S
C416 C418 1.384 . S
C417 C416 1.377 . S
C417 C423 1.390 . S
C418 H409 0.930 . S
C418 C416 1.384 . S
C418 C419 1.372 . S
C419 C418 1.372 . S
C419 C420 1.400 . S
C419 C424 1.490 . S
C420 H410 0.930 . S
C420 C419 1.400 . S
C420 C423 1.386 . S
H421 C437 0.930 . S
H422 C438 0.931 . S
C423 H411 0.929 . S
C423 C417 1.390 . S
C423 C420 1.386 . S
C424 C419 1.490 . S
C424 C426 1.395 . S
C424 C427 1.403 . S
H425 C431 0.930 . S
C426 H412 0.930 . S
C426 C424 1.395 . S
C426 C429 1.403 . S
C427 C424 1.403 . S
C427 C428 1.524 . S
C427 C431 1.400 . S
C428 H413 0.960 . S
C428 H414 0.960 . S
C428 H415 0.960 . S
C428 C427 1.524 . S
C429 C426 1.403 . S
C429 C430 1.392 . S
C429 C433 1.495 . S
C430 C429 1.392 . S
C430 C431 1.385 . S
C430 C432 1.478 . S
C431 H425 0.930 . S
C431 C427 1.400 . S
C431 C430 1.385 . S
C432 C430 1.478 . S
C432 C434 1.381 . S
C432 C438 1.383 . S
C433 C429 1.495 . S
C433 H439 0.959 . S
C433 H440 0.961 . S
C433 H441 0.960 . S
C434 C432 1.381 . S
C434 C435 1.394 . S
C434 H442 0.930 . S
C435 C434 1.394 . S
C435 C436 1.383 . S
C435 H443 0.929 . S
C436 C435 1.383 . S
C436 C437 1.377 . S
C437 H421 0.930 . S
C437 C436 1.377 . S
C437 C438 1.379 . S
C438 H422 0.931 . S
C438 C432 1.383 . S
C438 C437 1.379 . S
H439 C433 0.959 . S
H440 C433 0.961 . S
H441 C433 0.960 . S
H442 C434 0.930 . S
H443 C435 0.929 . S
H444 C452 0.929 . S
H445 C454 0.930 . S
H446 C456 0.930 . S
H447 C459 0.929 . S
H448 C462 0.930 . S
H449 C464 0.960 . S
H450 C464 0.960 . S
H451 C464 0.960 . S
C452 H444 0.929 . S
C452 C453 1.377 . S
C452 C454 1.384 . S
C453 C452 1.377 . S
C453 C459 1.390 . S
C454 H445 0.930 . S
C454 C452 1.384 . S
C454 C455 1.372 . S
C455 C454 1.372 . S
C455 C456 1.400 . S
C455 C460 1.490 . S
C456 H446 0.930 . S
C456 C455 1.400 . S
C456 C459 1.386 . S
H457 C473 0.930 . S
H458 C474 0.931 . S
C459 H447 0.929 . S
C459 C453 1.390 . S
C459 C456 1.386 . S
C460 C455 1.490 . S
C460 C462 1.395 . S
C460 C463 1.403 . S
H461 C467 0.930 . S
C462 H448 0.930 . S
C462 C460 1.395 . S
C462 C465 1.403 . S
C463 C460 1.403 . S
C463 C464 1.524 . S
C463 C467 1.400 . S
C464 H449 0.960 . S
C464 H450 0.960 . S
C464 H451 0.960 . S
C464 C463 1.524 . S
C465 C462 1.403 . S
C465 C466 1.392 . S
C465 C469 1.495 . S
C466 C465 1.392 . S
C466 C467 1.385 . S
C466 C468 1.478 . S
C467 H461 0.930 . S
C467 C463 1.400 . S
C467 C466 1.385 . S
C468 C466 1.478 . S
C468 C470 1.381 . S
C468 C474 1.383 . S
C469 C465 1.495 . S
C469 H475 0.959 . S
C469 H476 0.961 . S
C469 H477 0.960 . S
C470 C468 1.381 . S
C470 C471 1.394 . S
C470 H478 0.930 . S
C471 C470 1.394 . S
C471 C472 1.383 . S
C471 H479 0.929 . S
C472 C471 1.383 . S
C472 C473 1.377 . S
C473 H457 0.930 . S
C473 C472 1.377 . S
C473 C474 1.379 . S
C474 H458 0.931 . S
C474 C468 1.383 . S
C474 C473 1.379 . S
H475 C469 0.959 . S
H476 C469 0.961 . S
H477 C469 0.960 . S
H478 C470 0.930 . S
H479 C471 0.929 . S
H480 C488 0.929 . S
H481 C490 0.930 . S
H482 C492 0.930 . S
H483 C495 0.929 . S
H484 C498 0.930 . S
H485 C500 0.960 . S
H486 C500 0.960 . S
H487 C500 0.960 . S
C488 H480 0.929 . S
C488 C489 1.377 . S
C488 C490 1.384 . S
C489 C488 1.377 . S
C489 C495 1.390 . S
C490 H481 0.930 . S
C490 C488 1.384 . S
C490 C491 1.372 . S
C491 C490 1.372 . S
C491 C492 1.400 . S
C491 C496 1.490 . S
C492 H482 0.930 . S
C492 C491 1.400 . S
C492 C495 1.386 . S
H493 C509 0.930 . S
H494 C510 0.931 . S
C495 H483 0.929 . S
C495 C489 1.390 . S
C495 C492 1.386 . S
C496 C491 1.490 . S
C496 C498 1.395 . S
C496 C499 1.403 . S
H497 C503 0.930 . S
C498 H484 0.930 . S
C498 C496 1.395 . S
C498 C501 1.403 . S
C499 C496 1.403 . S
C499 C500 1.524 . S
C499 C503 1.400 . S
C500 H485 0.960 . S
C500 H486 0.960 . S
C500 H487 0.960 . S
C500 C499 1.524 . S
C501 C498 1.403 . S
C501 C502 1.392 . S
C501 C505 1.495 . S
C502 C501 1.392 . S
C502 C503 1.385 . S
C502 C504 1.478 . S
C503 H497 0.930 . S
C503 C499 1.400 . S
C503 C502 1.385 . S
C504 C502 1.478 . S
C504 C506 1.381 . S
C504 C510 1.383 . S
C505 C501 1.495 . S
C505 H511 0.959 . S
C505 H512 0.961 . S
C505 H513 0.960 . S
C506 C504 1.381 . S
C506 C507 1.394 . S
C506 H514 0.930 . S
C507 C506 1.394 . S
C507 C508 1.383 . S
C507 H515 0.929 . S
C508 C507 1.383 . S
C508 C509 1.377 . S
C509 H493 0.930 . S
C509 C508 1.377 . S
C509 C510 1.379 . S
C510 H494 0.931 . S
C510 C504 1.383 . S
C510 C509 1.379 . S
H511 C505 0.959 . S
H512 C505 0.961 . S
H513 C505 0.960 . S
H514 C506 0.930 . S
H515 C507 0.929 . S
H516 C524 0.929 . S
H517 C526 0.930 . S
H518 C528 0.930 . S
H519 C531 0.929 . S
H520 C534 0.930 . S
H521 C536 0.960 . S
H522 C536 0.960 . S
H523 C536 0.960 . S
C524 H516 0.929 . S
C524 C525 1.377 . S
C524 C526 1.384 . S
C525 C524 1.377 . S
C525 C531 1.390 . S
C526 H517 0.930 . S
C526 C524 1.384 . S
C526 C527 1.372 . S
C527 C526 1.372 . S
C527 C528 1.400 . S
C527 C532 1.490 . S
C528 H518 0.930 . S
C528 C527 1.400 . S
C528 C531 1.386 . S
H529 C545 0.930 . S
H530 C546 0.931 . S
C531 H519 0.929 . S
C531 C525 1.390 . S
C531 C528 1.386 . S
C532 C527 1.490 . S
C532 C534 1.395 . S
C532 C535 1.403 . S
H533 C539 0.930 . S
C534 H520 0.930 . S
C534 C532 1.395 . S
C534 C537 1.403 . S
C535 C532 1.403 . S
C535 C536 1.524 . S
C535 C539 1.400 . S
C536 H521 0.960 . S
C536 H522 0.960 . S
C536 H523 0.960 . S
C536 C535 1.524 . S
C537 C534 1.403 . S
C537 C538 1.392 . S
C537 C541 1.495 1_455 S
C538 C537 1.392 . S
C538 C539 1.385 . S
C538 C540 1.478 . S
C539 H533 0.930 . S
C539 C535 1.400 . S
C539 C538 1.385 . S
C540 C538 1.478 . S
C540 C542 1.381 . S
C540 C546 1.383 . S
C541 C537 1.495 1_655 S
C541 H547 0.959 . S
C541 H548 0.961 . S
C541 H549 0.960 . S
C542 C540 1.381 . S
C542 C543 1.394 . S
C542 H550 0.930 . S
C543 C542 1.394 . S
C543 C544 1.383 . S
C543 H551 0.929 . S
C544 C543 1.383 . S
C544 C545 1.377 . S
C545 H529 0.930 . S
C545 C544 1.377 . S
C545 C546 1.379 . S
C546 H530 0.931 . S
C546 C540 1.383 . S
C546 C545 1.379 . S
H547 C541 0.959 . S
H548 C541 0.961 . S
H549 C541 0.960 . S
H550 C542 0.930 . S
H551 C543 0.929 . S
H552 C560 0.929 . S
H553 C562 0.930 . S
H554 C564 0.930 1_556 S
H555 C567 0.929 . S
H556 C570 0.930 1_554 S
H557 C572 0.960 1_545 S
H558 C572 0.960 1_545 S
H559 C572 0.960 . S
C560 H552 0.929 . S
C560 C561 1.377 . S
C560 C562 1.384 . S
C561 C560 1.377 . S
C561 C567 1.390 . S
C562 H553 0.930 . S
C562 C560 1.384 . S
C562 C563 1.372 . S
C563 C562 1.372 . S
C563 C564 1.400 . S
C563 C568 1.490 1_554 S
C564 H554 0.930 1_554 S
C564 C563 1.400 . S
C564 C567 1.386 . S
H565 C581 0.930 . S
H566 C582 0.931 . S
C567 H555 0.929 . S
C567 C561 1.390 . S
C567 C564 1.386 . S
C568 C563 1.490 1_556 S
C568 C570 1.395 . S
C568 C571 1.403 . S
H569 C575 0.930 . S
C570 H556 0.930 1_556 S
C570 C568 1.395 . S
C570 C573 1.403 . S
C571 C568 1.403 . S
C571 C572 1.524 . S
C571 C575 1.400 . S
C572 H557 0.960 1_565 S
C572 H558 0.960 1_565 S
C572 H559 0.960 . S
C572 C571 1.524 . S
C573 C570 1.403 . S
C573 C574 1.392 . S
C573 C577 1.495 . S
C574 C573 1.392 . S
C574 C575 1.385 . S
C574 C576 1.478 . S
C575 H569 0.930 . S
C575 C571 1.400 . S
C575 C574 1.385 . S
C576 C574 1.478 . S
C576 C578 1.381 . S
C576 C582 1.383 . S
C577 C573 1.495 . S
C577 H583 0.959 . S
C577 H584 0.961 . S
C577 H585 0.960 . S
C578 C576 1.381 . S
C578 C579 1.394 . S
C578 H586 0.930 . S
C579 C578 1.394 . S
C579 C580 1.383 . S
C579 H587 0.929 1_565 S
C580 C579 1.383 . S
C580 C581 1.377 . S
C581 H565 0.930 . S
C581 C580 1.377 . S
C581 C582 1.379 . S
C582 H566 0.931 . S
C582 C576 1.383 . S
C582 C581 1.379 . S
H583 C577 0.959 . S
H584 C577 0.961 . S
H585 C577 0.960 . S
H586 C578 0.930 . S
H587 C579 0.929 1_545 S
H588 C596 0.929 . S
H589 C598 0.930 1_556 S
H590 C600 0.930 . S
H591 C603 0.929 . S
H592 C606 0.930 . S
H593 C608 0.960 . S
H594 C608 0.960 . S
H595 C608 0.960 . S
C596 H588 0.929 . S
C596 C597 1.377 . S
C596 C598 1.384 . S
C597 C596 1.377 . S
C597 C603 1.390 . S
C598 H589 0.930 1_554 S
C598 C596 1.384 . S
C598 C599 1.372 . S
C599 C598 1.372 . S
C599 C600 1.400 . S
C599 C604 1.490 1_554 S
C600 H590 0.930 . S
C600 C599 1.400 . S
C600 C603 1.386 . S
H601 C617 0.930 . S
H602 C618 0.931 . S
C603 H591 0.929 . S
C603 C597 1.390 . S
C603 C600 1.386 . S
C604 C599 1.490 1_556 S
C604 C606 1.395 . S
C604 C607 1.403 . S
H605 C611 0.930 . S
C606 H592 0.930 . S
C606 C604 1.395 . S
C606 C609 1.403 . S
C607 C604 1.403 . S
C607 C608 1.524 1_556 S
C607 C611 1.400 . S
C608 H593 0.960 . S
C608 H594 0.960 . S
C608 H595 0.960 . S
C608 C607 1.524 1_554 S
C609 C606 1.403 . S
C609 C610 1.392 . S
C609 C613 1.495 . S
C610 C609 1.392 . S
C610 C611 1.385 . S
C610 C612 1.478 . S
C611 H605 0.930 . S
C611 C607 1.400 . S
C611 C610 1.385 . S
C612 C610 1.478 . S
C612 C614 1.381 . S
C612 C618 1.383 . S
C613 C609 1.495 . S
C613 H619 0.959 . S
C613 H620 0.961 . S
C613 H621 0.960 . S
C614 C612 1.381 . S
C614 C615 1.394 . S
C614 H622 0.930 . S
C615 C614 1.394 . S
C615 C616 1.383 . S
C615 H623 0.929 . S
C616 C615 1.383 . S
C616 C617 1.377 . S
C617 H601 0.930 . S
C617 C616 1.377 . S
C617 C618 1.379 . S
C618 H602 0.931 . S
C618 C612 1.383 . S
C618 C617 1.379 . S
H619 C613 0.959 . S
H620 C613 0.961 . S
H621 C613 0.960 . S
H622 C614 0.930 . S
H623 C615 0.929 . S
H624 C632 0.929 . S
H625 C634 0.930 . S
H626 C636 0.930 . S
H627 C639 0.929 . S
H628 C642 0.930 . S
H629 C644 0.960 . S
H630 C644 0.960 . S
H631 C644 0.960 . S
C632 H624 0.929 . S
C632 C633 1.377 . S
C632 C634 1.384 . S
C633 C632 1.377 . S
C633 C639 1.390 . S
C634 H625 0.930 . S
C634 C632 1.384 . S
C634 C635 1.372 . S
C635 C634 1.372 . S
C635 C636 1.400 . S
C635 C640 1.490 1_554 S
C636 H626 0.930 . S
C636 C635 1.400 . S
C636 C639 1.386 . S
H637 C653 0.930 . S
H638 C654 0.931 . S
C639 H627 0.929 . S
C639 C633 1.390 . S
C639 C636 1.386 . S
C640 C635 1.490 1_556 S
C640 C642 1.395 1_556 S
C640 C643 1.403 . S
H641 C647 0.930 . S
C642 H628 0.930 . S
C642 C640 1.395 1_554 S
C642 C645 1.403 1_554 S
C643 C640 1.403 . S
C643 C644 1.524 . S
C643 C647 1.400 . S
C644 H629 0.960 . S
C644 H630 0.960 . S
C644 H631 0.960 . S
C644 C643 1.524 . S
C645 C642 1.403 1_556 S
C645 C646 1.392 . S
C645 C649 1.495 . S
C646 C645 1.392 . S
C646 C647 1.385 . S
C646 C648 1.478 . S
C647 H641 0.930 . S
C647 C643 1.400 . S
C647 C646 1.385 . S
C648 C646 1.478 . S
C648 C650 1.381 . S
C648 C654 1.383 . S
C649 C645 1.495 . S
C649 H655 0.959 1_556 S
C649 H656 0.961 . S
C649 H657 0.960 . S
C650 C648 1.381 . S
C650 C651 1.394 . S
C650 H658 0.930 . S
C651 C650 1.394 . S
C651 C652 1.383 . S
C651 H659 0.929 . S
C652 C651 1.383 . S
C652 C653 1.377 . S
C653 H637 0.930 . S
C653 C652 1.377 . S
C653 C654 1.379 . S
C654 H638 0.931 . S
C654 C648 1.383 . S
C654 C653 1.379 . S
H655 C649 0.959 1_554 S
H656 C649 0.961 . S
H657 C649 0.960 . S
H658 C650 0.930 . S
H659 C651 0.929 . S
H660 C668 0.929 . S
H661 C670 0.930 . S
H662 C672 0.930 . S
H663 C675 0.929 . S
H664 C678 0.930 1_554 S
H665 C680 0.960 . S
H666 C680 0.960 . S
H667 C680 0.960 . S
C668 H660 0.929 . S
C668 C669 1.377 . S
C668 C670 1.384 . S
C669 C668 1.377 . S
C669 C675 1.390 . S
C670 H661 0.930 . S
C670 C668 1.384 . S
C670 C671 1.372 . S
C671 C670 1.372 . S
C671 C672 1.400 . S
C671 C676 1.490 1_554 S
C672 H662 0.930 . S
C672 C671 1.400 . S
C672 C675 1.386 . S
H673 C689 0.930 . S
H674 C690 0.931 . S
C675 H663 0.929 . S
C675 C669 1.390 . S
C675 C672 1.386 . S
C676 C671 1.490 1_556 S
C676 C678 1.395 . S
C676 C679 1.403 . S
H677 C683 0.930 . S
C678 H664 0.930 1_556 S
C678 C676 1.395 . S
C678 C681 1.403 . S
C679 C676 1.403 . S
C679 C680 1.524 . S
C679 C683 1.400 . S
C680 H665 0.960 . S
C680 H666 0.960 . S
C680 H667 0.960 . S
C680 C679 1.524 . S
C681 C678 1.403 . S
C681 C682 1.392 . S
C681 C685 1.495 1_655 S
C682 C681 1.392 . S
C682 C683 1.385 . S
C682 C684 1.478 . S
C683 H677 0.930 . S
C683 C679 1.400 . S
C683 C682 1.385 . S
C684 C682 1.478 . S
C684 C686 1.381 . S
C684 C690 1.383 . S
C685 C681 1.495 1_455 S
C685 H691 0.959 . S
C685 H692 0.961 . S
C685 H693 0.960 . S
C686 C684 1.381 . S
C686 C687 1.387 1_655 S
C686 H694 0.930 1_655 S
C687 C686 1.387 1_455 S
C687 C688 1.363 1_455 S
C687 H695 0.957 . S
C688 C687 1.363 1_655 S
C688 C689 1.377 . S
C689 H673 0.930 . S
C689 C688 1.377 . S
C689 C690 1.379 . S
C690 H674 0.931 . S
C690 C684 1.383 . S
C690 C689 1.379 . S
H691 C685 0.959 . S
H692 C685 0.961 . S
H693 C685 0.960 . S
H694 C686 0.930 1_455 S
H695 C687 0.957 . S
H696 C704 0.929 . S
H697 C706 0.930 . S
H698 C708 0.930 . S
H699 C711 0.929 . S
H700 C714 0.930 . S
H701 C716 0.960 . S
H702 C716 0.960 . S
H703 C716 0.960 . S
C704 H696 0.929 . S
C704 C705 1.377 . S
C704 C706 1.384 . S
C705 C704 1.377 . S
C705 C711 1.390 . S
C706 H697 0.930 . S
C706 C704 1.384 . S
C706 C707 1.372 . S
C707 C706 1.372 . S
C707 C708 1.400 . S
C707 C712 1.490 . S
C708 H698 0.930 . S
C708 C707 1.400 . S
C708 C711 1.386 . S
H709 C725 0.930 . S
H710 C726 0.931 . S
C711 H699 0.929 . S
C711 C705 1.390 . S
C711 C708 1.386 . S
C712 C707 1.490 . S
C712 C714 1.395 . S
C712 C715 1.403 . S
H713 C719 0.930 . S
C714 H700 0.930 . S
C714 C712 1.395 . S
C714 C717 1.403 . S
C715 C712 1.403 . S
C715 C716 1.524 . S
C715 C719 1.400 . S
C716 H701 0.960 . S
C716 H702 0.960 . S
C716 H703 0.960 . S
C716 C715 1.524 . S
C717 C714 1.403 . S
C717 C718 1.392 . S
C717 C721 1.495 . S
C718 C717 1.392 . S
C718 C719 1.385 . S
C718 C720 1.478 . S
C719 H713 0.930 . S
C719 C715 1.400 . S
C719 C718 1.385 . S
C720 C718 1.478 . S
C720 C722 1.381 . S
C720 C726 1.383 1_455 S
C721 C717 1.495 . S
C721 H727 0.959 . S
C721 H728 0.961 . S
C721 H729 0.960 . S
C722 C720 1.381 . S
C722 C723 1.394 . S
C722 H730 0.930 . S
C723 C722 1.394 . S
C723 C724 1.393 . S
C723 H731 0.929 . S
C724 C723 1.393 . S
C724 C725 1.372 1_455 S
C725 H709 0.930 . S
C725 C724 1.372 1_655 S
C725 C726 1.379 . S
C726 H710 0.931 . S
C726 C720 1.383 1_655 S
C726 C725 1.379 . S
H727 C721 0.959 . S
H728 C721 0.961 . S
H729 C721 0.960 . S
H730 C722 0.930 . S
H731 C723 0.929 . S
H732 C740 0.929 . S
H733 C742 0.930 . S
H734 C744 0.930 . S
H735 C747 0.929 . S
H736 C750 0.930 . S
H737 C752 0.960 . S
H738 C752 0.960 . S
H739 C752 0.960 . S
C740 H732 0.929 . S
C740 C741 1.377 . S
C740 C742 1.384 . S
C741 C740 1.377 . S
C741 C747 1.390 . S
C742 H733 0.930 . S
C742 C740 1.384 . S
C742 C743 1.372 . S
C743 C742 1.372 . S
C743 C744 1.400 . S
C743 C748 1.490 . S
C744 H734 0.930 . S
C744 C743 1.400 . S
C744 C747 1.386 . S
H745 C761 0.930 . S
H746 C762 0.931 . S
C747 H735 0.929 . S
C747 C741 1.390 . S
C747 C744 1.386 . S
C748 C743 1.490 . S
C748 C750 1.395 . S
C748 C751 1.403 . S
H749 C755 0.930 . S
C750 H736 0.930 . S
C750 C748 1.395 . S
C750 C753 1.403 . S
C751 C748 1.403 . S
C751 C752 1.524 . S
C751 C755 1.400 . S
C752 H737 0.960 . S
C752 H738 0.960 . S
C752 H739 0.960 . S
C752 C751 1.524 . S
C753 C750 1.403 . S
C753 C754 1.392 . S
C753 C757 1.495 . S
C754 C753 1.392 . S
C754 C755 1.385 . S
C754 C756 1.478 . S
C755 H749 0.930 . S
C755 C751 1.400 . S
C755 C754 1.385 . S
C756 C754 1.478 . S
C756 C758 1.381 1_545 S
C756 C762 1.383 . S
C757 C753 1.495 . S
C757 H763 0.959 . S
C757 H764 0.961 . S
C757 H765 0.960 1_545 S
C758 C756 1.381 1_565 S
C758 C759 1.394 . S
C758 H766 0.930 . S
C759 C758 1.394 . S
C759 C760 1.409 . S
C759 H767 0.929 . S
C760 C759 1.409 . S
C760 C761 1.339 1_565 S
C761 H745 0.930 . S
C761 C760 1.339 1_545 S
C761 C762 1.379 . S
C762 H746 0.931 . S
C762 C756 1.383 . S
C762 C761 1.379 . S
H763 C757 0.959 . S
H764 C757 0.961 . S
H765 C757 0.960 1_565 S
H766 C758 0.930 . S
H767 C759 0.929 . S
H768 C776 0.929 . S
H769 C778 0.930 . S
H770 C780 0.930 . S
H771 C783 0.929 . S
H772 C786 0.930 . S
H773 C788 0.960 . S
H774 C788 0.960 . S
H775 C788 0.960 . S
C776 H768 0.929 . S
C776 C777 1.377 . S
C776 C778 1.384 . S
C777 C776 1.377 . S
C777 C783 1.390 . S
C778 H769 0.930 . S
C778 C776 1.384 . S
C778 C779 1.372 . S
C779 C778 1.372 . S
C779 C780 1.400 . S
C779 C784 1.490 . S
C780 H770 0.930 . S
C780 C779 1.400 . S
C780 C783 1.386 . S
H781 C797 0.930 . S
H782 C798 0.931 . S
C783 H771 0.929 . S
C783 C777 1.390 . S
C783 C780 1.386 . S
C784 C779 1.490 . S
C784 C786 1.395 . S
C784 C787 1.403 . S
H785 C791 0.930 . S
C786 H772 0.930 . S
C786 C784 1.395 . S
C786 C789 1.403 . S
C787 C784 1.403 . S
C787 C788 1.524 . S
C787 C791 1.400 . S
C788 H773 0.960 . S
C788 H774 0.960 . S
C788 H775 0.960 . S
C788 C787 1.524 . S
C789 C786 1.403 . S
C789 C790 1.392 . S
C789 C793 1.495 . S
C790 C789 1.392 . S
C790 C791 1.385 . S
C790 C792 1.478 . S
C791 H785 0.930 . S
C791 C787 1.400 . S
C791 C790 1.385 . S
C792 C790 1.478 . S
C792 C794 1.381 . S
C792 C798 1.383 . S
C793 C789 1.495 . S
C793 H799 0.959 . S
C793 H800 0.961 . S
C793 H801 0.960 . S
C794 C792 1.381 . S
C794 C795 1.394 . S
C794 H802 0.930 . S
C795 C794 1.394 . S
C795 C796 1.383 . S
C795 H803 0.929 . S
C796 C795 1.383 . S
C796 C797 1.377 . S
C797 H781 0.930 . S
C797 C796 1.377 . S
C797 C798 1.379 . S
C798 H782 0.931 . S
C798 C792 1.383 . S
C798 C797 1.379 . S
H799 C793 0.959 . S
H800 C793 0.961 . S
H801 C793 0.960 . S
H802 C794 0.930 . S
H803 C795 0.929 . S
H804 C812 0.929 . S
H805 C814 0.930 . S
H806 C816 0.930 . S
H807 C819 0.929 . S
H808 C822 0.930 . S
H809 C824 0.960 . S
H810 C824 0.960 . S
H811 C824 0.960 . S
C812 H804 0.929 . S
C812 C813 1.377 . S
C812 C814 1.384 . S
C813 C812 1.377 . S
C813 C819 1.390 . S
C814 H805 0.930 . S
C814 C812 1.384 . S
C814 C815 1.372 . S
C815 C814 1.372 . S
C815 C816 1.400 . S
C815 C820 1.490 . S
C816 H806 0.930 . S
C816 C815 1.400 . S
C816 C819 1.386 . S
H817 C833 0.930 . S
H818 C834 0.931 . S
C819 H807 0.929 . S
C819 C813 1.390 . S
C819 C816 1.386 . S
C820 C815 1.490 . S
C820 C822 1.395 . S
C820 C823 1.403 . S
H821 C827 0.930 . S
C822 H808 0.930 . S
C822 C820 1.395 . S
C822 C825 1.403 . S
C823 C820 1.403 . S
C823 C824 1.524 . S
C823 C827 1.400 . S
C824 H809 0.960 . S
C824 H810 0.960 . S
C824 H811 0.960 . S
C824 C823 1.524 . S
C825 C822 1.403 . S
C825 C826 1.392 . S
C825 C829 1.495 . S
C826 C825 1.392 . S
C826 C827 1.385 . S
C826 C828 1.478 . S
C827 H821 0.930 . S
C827 C823 1.400 . S
C827 C826 1.385 . S
C828 C826 1.478 . S
C828 C830 1.381 . S
C828 C834 1.383 . S
C829 C825 1.495 . S
C829 H835 0.959 . S
C829 H836 0.961 . S
C829 H837 0.960 . S
C830 C828 1.381 . S
C830 C831 1.394 . S
C830 H838 0.930 . S
C831 C830 1.394 . S
C831 C832 1.383 . S
C831 H839 0.929 . S
C832 C831 1.383 . S
C832 C833 1.377 . S
C833 H817 0.930 . S
C833 C832 1.377 . S
C833 C834 1.379 . S
C834 H818 0.931 . S
C834 C828 1.383 . S
C834 C833 1.379 . S
H835 C829 0.959 . S
H836 C829 0.961 . S
H837 C829 0.960 . S
H838 C830 0.930 . S
H839 C831 0.929 . S
H840 C848 0.929 . S
H841 C850 0.921 1_556 S
H842 C852 0.930 . S
H843 C855 0.929 . S
H844 C858 0.930 . S
H845 C860 1.006 . S
H846 C860 0.957 1_655 S
H847 C860 0.954 1_655 S
C848 H840 0.929 . S
C848 C849 1.377 . S
C848 C850 1.384 . S
C849 C848 1.377 . S
C849 C855 1.390 . S
C850 H841 0.921 1_554 S
C850 C848 1.384 . S
C850 C851 1.372 . S
C851 C850 1.372 . S
C851 C852 1.400 . S
C851 C856 1.490 . S
C852 H842 0.930 . S
C852 C851 1.400 . S
C852 C855 1.386 . S
H853 C869 0.930 . S
H854 C870 0.931 . S
C855 H843 0.929 . S
C855 C849 1.390 . S
C855 C852 1.386 . S
C856 C851 1.490 . S
C856 C858 1.395 1_554 S
C856 C859 1.403 . S
H857 C863 0.930 1_455 S
C858 H844 0.930 . S
C858 C856 1.395 1_556 S
C858 C861 1.403 . S
C859 C856 1.403 . S
C859 C860 1.490 1_655 S
C859 C863 1.400 1_554 S
C860 H845 1.006 . S
C860 H846 0.957 1_455 S
C860 H847 0.954 1_455 S
C860 C859 1.490 1_455 S
C861 C858 1.403 . S
C861 C862 1.392 . S
C861 C865 1.495 . S
C862 C861 1.392 . S
C862 C863 1.385 . S
C862 C864 1.478 . S
C863 H857 0.930 1_655 S
C863 C859 1.400 1_556 S
C863 C862 1.385 . S
C864 C862 1.478 . S
C864 C866 1.381 . S
C864 C870 1.383 . S
C865 C861 1.495 . S
C865 H871 0.959 . S
C865 H872 0.961 . S
C865 H873 0.960 . S
C866 C864 1.381 . S
C866 C867 1.394 . S
C866 H874 0.930 . S
C867 C866 1.394 . S
C867 C868 1.383 1_655 S
C867 H875 0.929 . S
C868 C867 1.383 1_455 S
C868 C869 1.377 . S
C869 H853 0.930 . S
C869 C868 1.377 . S
C869 C870 1.379 1_455 S
C870 H854 0.931 . S
C870 C864 1.383 . S
C870 C869 1.379 1_655 S
H871 C865 0.959 . S
H872 C865 0.961 . S
H873 C865 0.960 . S
H874 C866 0.930 . S
H875 C867 0.929 . S
H876 C884 0.929 . S
H877 C886 0.930 . S
H878 C888 0.930 . S
H879 C891 0.929 . S
H880 C894 0.930 . S
H881 C896 0.960 . S
H882 C896 0.960 . S
H883 C896 0.960 . S
C884 H876 0.929 . S
C884 C885 1.377 . S
C884 C886 1.384 . S
C885 C884 1.377 . S
C885 C891 1.390 . S
C886 H877 0.930 . S
C886 C884 1.384 . S
C886 C887 1.372 . S
C887 C886 1.372 . S
C887 C888 1.400 . S
C887 C892 1.490 . S
C888 H878 0.930 . S
C888 C887 1.400 . S
C888 C891 1.386 . S
H889 C905 0.930 . S
H890 C906 0.931 . S
C891 H879 0.929 . S
C891 C885 1.390 . S
C891 C888 1.386 . S
C892 C887 1.490 . S
C892 C894 1.395 1_554 S
C892 C895 1.403 . S
H893 C899 0.930 . S
C894 H880 0.930 . S
C894 C892 1.395 1_556 S
C894 C897 1.403 . S
C895 C892 1.403 . S
C895 C896 1.524 . S
C895 C899 1.400 . S
C896 H881 0.960 . S
C896 H882 0.960 . S
C896 H883 0.960 . S
C896 C895 1.524 . S
C897 C894 1.403 . S
C897 C898 1.392 . S
C897 C901 1.495 . S
C898 C897 1.392 . S
C898 C899 1.385 1_556 S
C898 C900 1.478 . S
C899 H893 0.930 . S
C899 C895 1.400 . S
C899 C898 1.385 1_554 S
C900 C898 1.478 . S
C900 C902 1.381 1_565 S
C900 C906 1.383 . S
C901 C897 1.495 . S
C901 H907 0.959 . S
C901 H908 0.961 . S
C901 H909 0.960 1_565 S
C902 C900 1.381 1_545 S
C902 C903 1.394 . S
C902 H910 0.930 . S
C903 C902 1.394 . S
C903 C904 1.383 . S
C903 H911 0.929 . S
C904 C903 1.383 . S
C904 C905 1.377 1_545 S
C905 H889 0.930 . S
C905 C904 1.377 1_565 S
C905 C906 1.379 . S
C906 H890 0.931 . S
C906 C900 1.383 . S
C906 C905 1.379 . S
H907 C901 0.959 . S
H908 C901 0.961 . S
H909 C901 0.960 1_545 S
H910 C902 0.930 . S
H911 C903 0.929 . S
H912 C920 0.929 . S
H913 C922 0.930 . S
H914 C924 0.930 . S
H915 C927 0.929 . S
H916 C930 0.930 . S
H917 C932 0.960 . S
H918 C932 0.960 . S
H919 C932 0.960 . S
C920 H912 0.929 . S
C920 C921 1.377 . S
C920 C922 1.384 . S
C921 C920 1.377 . S
C921 C927 1.390 . S
C922 H913 0.930 . S
C922 C920 1.384 . S
C922 C923 1.372 . S
C923 C922 1.372 . S
C923 C924 1.400 . S
C923 C928 1.490 . S
C924 H914 0.930 . S
C924 C923 1.400 . S
C924 C927 1.386 . S
H925 C941 0.930 . S
H926 C942 0.931 . S
C927 H915 0.929 . S
C927 C921 1.390 . S
C927 C924 1.386 . S
C928 C923 1.490 . S
C928 C930 1.395 1_554 S
C928 C931 1.403 . S
H929 C935 0.930 . S
C930 H916 0.930 . S
C930 C928 1.395 1_556 S
C930 C933 1.403 . S
C931 C928 1.403 . S
C931 C932 1.524 . S
C931 C935 1.400 . S
C932 H917 0.960 . S
C932 H918 0.960 . S
C932 H919 0.960 . S
C932 C931 1.524 . S
C933 C930 1.403 . S
C933 C934 1.392 . S
C933 C937 1.495 . S
C934 C933 1.392 . S
C934 C935 1.385 1_556 S
C934 C936 1.478 . S
C935 H929 0.930 . S
C935 C931 1.400 . S
C935 C934 1.385 1_554 S
C936 C934 1.478 . S
C936 C938 1.381 . S
C936 C942 1.383 . S
C937 C933 1.495 . S
C937 H943 0.959 . S
C937 H944 0.961 . S
C937 H945 0.960 . S
C938 C936 1.381 . S
C938 C939 1.394 . S
C938 H946 0.930 . S
C939 C938 1.394 . S
C939 C940 1.383 . S
C939 H947 0.929 . S
C940 C939 1.383 . S
C940 C941 1.377 . S
C941 H925 0.930 . S
C941 C940 1.377 . S
C941 C942 1.379 . S
C942 H926 0.931 . S
C942 C936 1.383 . S
C942 C941 1.379 . S
H943 C937 0.959 . S
H944 C937 0.961 . S
H945 C937 0.960 . S
H946 C938 0.930 . S
H947 C939 0.929 . S
H948 C956 0.929 . S
H949 C958 0.923 1_556 S
H950 C960 0.930 . S
H951 C963 0.929 . S
H952 C966 0.930 . S
H953 C968 0.960 . S
H954 C968 0.960 . S
H955 C968 0.960 . S
C956 H948 0.929 . S
C956 C957 1.377 . S
C956 C958 1.384 . S
C957 C956 1.377 . S
C957 C963 1.390 . S
C958 H949 0.923 1_554 S
C958 C956 1.384 . S
C958 C959 1.372 . S
C959 C958 1.372 . S
C959 C960 1.400 . S
C959 C964 1.490 . S
C960 H950 0.930 . S
C960 C959 1.400 . S
C960 C963 1.386 . S
H961 C977 0.930 . S
H962 C978 0.931 . S
C963 H951 0.929 . S
C963 C957 1.390 . S
C963 C960 1.386 . S
C964 C959 1.490 . S
C964 C966 1.395 1_554 S
C964 C967 1.403 . S
H965 C971 0.930 . S
C966 H952 0.930 . S
C966 C964 1.395 1_556 S
C966 C969 1.403 . S
C967 C964 1.403 . S
C967 C968 1.524 . S
C967 C971 1.400 . S
C968 H953 0.960 . S
C968 H954 0.960 . S
C968 H955 0.960 . S
C968 C967 1.524 . S
C969 C966 1.403 . S
C969 C970 1.392 . S
C969 C973 1.495 . S
C970 C969 1.392 . S
C970 C971 1.385 1_556 S
C970 C972 1.478 . S
C971 H965 0.930 . S
C971 C967 1.400 . S
C971 C970 1.385 1_554 S
C972 C970 1.478 . S
C972 C974 1.381 . S
C972 C978 1.383 . S
C973 C969 1.495 . S
C973 H979 0.959 . S
C973 H980 0.961 . S
C973 H981 0.960 . S
C974 C972 1.381 . S
C974 C975 1.394 . S
C974 H982 0.930 . S
C975 C974 1.394 . S
C975 C976 1.383 . S
C975 H983 0.929 . S
C976 C975 1.383 . S
C976 C977 1.377 . S
C977 H961 0.930 . S
C977 C976 1.377 . S
C977 C978 1.379 . S
C978 H962 0.931 . S
C978 C972 1.383 . S
C978 C977 1.379 . S
H979 C973 0.959 . S
H980 C973 0.961 . S
H981 C973 0.960 . S
H982 C974 0.930 . S
H983 C975 0.929 . S
H984 C992 0.929 . S
H985 C994 0.930 . S
H986 C996 0.930 . S
H987 C999 0.929 . S
H988 C1002 0.930 . S
H989 C1004 0.960 . S
H990 C1004 0.960 . S
H991 C1004 0.960 . S
C992 H984 0.929 . S
C992 C993 1.377 . S
C992 C994 1.384 . S
C993 C992 1.377 . S
C993 C999 1.390 . S
C994 H985 0.930 . S
C994 C992 1.384 . S
C994 C995 1.372 . S
C995 C994 1.372 . S
C995 C996 1.400 . S
C995 C1000 1.490 . S
C996 H986 0.930 . S
C996 C995 1.400 . S
C996 C999 1.386 . S
H997 C1013 0.930 . S
H998 C1014 0.931 . S
C999 H987 0.929 . S
C999 C993 1.390 . S
C999 C996 1.386 . S
C1000 C995 1.490 . S
C1000 C1002 1.395 . S
C1000 C1003 1.403 . S
H1001 C1007 0.930 . S
C1002 H988 0.930 . S
C1002 C1000 1.395 . S
C1002 C1005 1.403 . S
C1003 C1000 1.403 . S
C1003 C1004 1.524 . S
C1003 C1007 1.400 . S
C1004 H989 0.960 . S
C1004 H990 0.960 . S
C1004 H991 0.960 . S
C1004 C1003 1.524 . S
C1005 C1002 1.403 . S
C1005 C1006 1.392 . S
C1005 C1009 1.495 1_455 S
C1006 C1005 1.392 . S
C1006 C1007 1.385 . S
C1006 C1008 1.478 . S
C1007 H1001 0.930 . S
C1007 C1003 1.400 . S
C1007 C1006 1.385 . S
C1008 C1006 1.478 . S
C1008 C1010 1.381 . S
C1008 C1014 1.383 . S
C1009 C1005 1.495 1_655 S
C1009 H1015 0.959 . S
C1009 H1016 0.961 . S
C1009 H1017 0.960 . S
C1010 C1008 1.381 . S
C1010 C1011 1.394 . S
C1010 H1018 0.930 . S
C1011 C1010 1.394 . S
C1011 C1012 1.383 . S
C1011 H1019 0.929 . S
C1012 C1011 1.383 . S
C1012 C1013 1.377 . S
C1013 H997 0.930 . S
C1013 C1012 1.377 . S
C1013 C1014 1.379 . S
C1014 H998 0.931 . S
C1014 C1008 1.383 . S
C1014 C1013 1.379 . S
H1015 C1009 0.959 . S
H1016 C1009 0.961 . S
H1017 C1009 0.960 . S
H1018 C1010 0.930 . S
H1019 C1011 0.929 . S
H1020 C1028 0.929 . S
H1021 C1030 0.930 . S
H1022 C1032 0.930 . S
H1023 C1035 0.929 . S
H1024 C1038 0.930 . S
H1025 C1040 0.960 . S
H1026 C1040 0.960 . S
H1027 C1040 0.960 . S
C1028 H1020 0.929 . S
C1028 C1029 1.377 . S
C1028 C1030 1.384 . S
C1029 C1028 1.377 . S
C1029 C1035 1.390 . S
C1030 H1021 0.930 . S
C1030 C1028 1.384 . S
C1030 C1031 1.372 . S
C1031 C1030 1.372 . S
C1031 C1032 1.400 . S
C1031 C1036 1.490 . S
C1032 H1022 0.930 . S
C1032 C1031 1.400 . S
C1032 C1035 1.386 . S
H1033 C1049 0.930 . S
H1034 C1050 0.931 . S
C1035 H1023 0.929 . S
C1035 C1029 1.390 . S
C1035 C1032 1.386 . S
C1036 C1031 1.490 . S
C1036 C1038 1.395 . S
C1036 C1039 1.403 . S
H1037 C1043 0.930 . S
C1038 H1024 0.930 . S
C1038 C1036 1.395 . S
C1038 C1041 1.403 . S
C1039 C1036 1.403 . S
C1039 C1040 1.524 . S
C1039 C1043 1.400 . S
C1040 H1025 0.960 . S
C1040 H1026 0.960 . S
C1040 H1027 0.960 . S
C1040 C1039 1.524 . S
C1041 C1038 1.403 . S
C1041 C1042 1.392 . S
C1041 C1045 1.471 1_545 S
C1042 C1041 1.392 . S
C1042 C1043 1.385 . S
C1042 C1044 1.478 . S
C1043 H1037 0.930 . S
C1043 C1039 1.400 . S
C1043 C1042 1.385 . S
C1044 C1042 1.478 . S
C1044 C1046 1.381 . S
C1044 C1050 1.383 . S
C1045 C1041 1.471 1_565 S
C1045 H1051 0.973 . S
C1045 H1052 0.958 1_565 S
C1045 H1053 0.974 . S
C1046 C1044 1.381 . S
C1046 C1047 1.394 . S
C1046 H1054 0.930 . S
C1047 C1046 1.394 . S
C1047 C1048 1.383 . S
C1047 H1055 0.929 . S
C1048 C1047 1.383 . S
C1048 C1049 1.377 . S
C1049 H1033 0.930 . S
C1049 C1048 1.377 . S
C1049 C1050 1.379 . S
C1050 H1034 0.931 . S
C1050 C1044 1.383 . S
C1050 C1049 1.379 . S
H1051 C1045 0.973 . S
H1052 C1045 0.958 1_545 S
H1053 C1045 0.974 . S
H1054 C1046 0.930 . S
H1055 C1047 0.929 . S
H1056 C1064 0.929 . S
H1057 C1066 0.930 . S
H1058 C1068 0.930 . S
H1059 C1071 0.929 . S
H1060 C1074 0.930 . S
H1061 C1076 0.960 . S
H1062 C1076 0.960 . S
H1063 C1076 0.960 . S
C1064 H1056 0.929 . S
C1064 C1065 1.377 . S
C1064 C1066 1.384 . S
C1065 C1064 1.377 . S
C1065 C1071 1.390 . S
C1066 H1057 0.930 . S
C1066 C1064 1.384 . S
C1066 C1067 1.372 . S
C1067 C1066 1.372 . S
C1067 C1068 1.400 . S
C1067 C1072 1.490 . S
C1068 H1058 0.930 . S
C1068 C1067 1.400 . S
C1068 C1071 1.386 . S
H1069 C1085 0.930 . S
H1070 C1086 0.931 . S
C1071 H1059 0.929 . S
C1071 C1065 1.390 . S
C1071 C1068 1.386 . S
C1072 C1067 1.490 . S
C1072 C1074 1.395 . S
C1072 C1075 1.403 . S
H1073 C1079 0.930 . S
C1074 H1060 0.930 . S
C1074 C1072 1.395 . S
C1074 C1077 1.403 . S
C1075 C1072 1.403 . S
C1075 C1076 1.524 . S
C1075 C1079 1.400 . S
C1076 H1061 0.960 . S
C1076 H1062 0.960 . S
C1076 H1063 0.960 . S
C1076 C1075 1.524 . S
C1077 C1074 1.403 . S
C1077 C1078 1.392 . S
C1077 C1081 1.495 . S
C1078 C1077 1.392 . S
C1078 C1079 1.385 . S
C1078 C1080 1.478 . S
C1079 H1073 0.930 . S
C1079 C1075 1.400 . S
C1079 C1078 1.385 . S
C1080 C1078 1.478 . S
C1080 C1082 1.381 . S
C1080 C1086 1.383 . S
C1081 C1077 1.495 . S
C1081 H1087 0.959 . S
C1081 H1088 0.961 . S
C1081 H1089 0.960 . S
C1082 C1080 1.381 . S
C1082 C1083 1.394 . S
C1082 H1090 0.930 . S
C1083 C1082 1.394 . S
C1083 C1084 1.383 . S
C1083 H1091 0.929 . S
C1084 C1083 1.383 . S
C1084 C1085 1.377 . S
C1085 H1069 0.930 . S
C1085 C1084 1.377 . S
C1085 C1086 1.379 . S
C1086 H1070 0.931 . S
C1086 C1080 1.383 . S
C1086 C1085 1.379 . S
H1087 C1081 0.959 . S
H1088 C1081 0.961 . S
H1089 C1081 0.960 . S
H1090 C1082 0.930 . S
H1091 C1083 0.929 . S
H1092 C1100 0.929 . S
H1093 C1102 0.930 . S
H1094 C1104 0.930 . S
H1095 C1107 0.929 . S
H1096 C1110 0.930 . S
H1097 C1112 0.960 . S
H1098 C1112 0.960 . S
H1099 C1112 0.960 . S
C1100 H1092 0.929 . S
C1100 C1101 1.377 . S
C1100 C1102 1.384 . S
C1101 C1100 1.377 . S
C1101 C1107 1.390 . S
C1102 H1093 0.930 . S
C1102 C1100 1.384 . S
C1102 C1103 1.372 . S
C1103 C1102 1.372 . S
C1103 C1104 1.400 . S
C1103 C1108 1.490 . S
C1104 H1094 0.930 . S
C1104 C1103 1.400 . S
C1104 C1107 1.386 . S
H1105 C1121 0.930 . S
H1106 C1122 0.931 . S
C1107 H1095 0.929 . S
C1107 C1101 1.390 . S
C1107 C1104 1.386 . S
C1108 C1103 1.490 . S
C1108 C1110 1.395 . S
C1108 C1111 1.403 . S
H1109 C1115 0.930 . S
C1110 H1096 0.930 . S
C1110 C1108 1.395 . S
C1110 C1113 1.403 . S
C1111 C1108 1.403 . S
C1111 C1112 1.524 . S
C1111 C1115 1.400 . S
C1112 H1097 0.960 . S
C1112 H1098 0.960 . S
C1112 H1099 0.960 . S
C1112 C1111 1.524 . S
C1113 C1110 1.403 . S
C1113 C1114 1.392 . S
C1113 C1117 1.495 . S
C1114 C1113 1.392 . S
C1114 C1115 1.385 . S
C1114 C1116 1.478 . S
C1115 H1109 0.930 . S
C1115 C1111 1.400 . S
C1115 C1114 1.385 . S
C1116 C1114 1.478 . S
C1116 C1118 1.381 . S
C1116 C1122 1.383 . S
C1117 C1113 1.495 . S
C1117 H1123 0.959 . S
C1117 H1124 0.961 . S
C1117 H1125 0.960 . S
C1118 C1116 1.381 . S
C1118 C1119 1.394 . S
C1118 H1126 0.930 . S
C1119 C1118 1.394 . S
C1119 C1120 1.383 . S
C1119 H1127 0.929 . S
C1120 C1119 1.383 . S
C1120 C1121 1.377 . S
C1121 H1105 0.930 . S
C1121 C1120 1.377 . S
C1121 C1122 1.379 . S
C1122 H1106 0.931 . S
C1122 C1116 1.383 . S
C1122 C1121 1.379 . S
H1123 C1117 0.959 . S
H1124 C1117 0.961 . S
H1125 C1117 0.960 . S
H1126 C1118 0.930 . S
H1127 C1119 0.929 . S
H1128 C1136 0.929 . S
H1129 C1138 0.930 . S
H1130 C1140 0.930 . S
H1131 C1143 0.929 . S
H1132 C1146 0.930 . S
H1133 C1148 0.960 1_455 S
H1134 C1148 0.960 . S
H1135 C1148 0.960 . S
C1136 H1128 0.929 . S
C1136 C1137 1.377 . S
C1136 C1138 1.384 . S
C1137 C1136 1.377 . S
C1137 C1143 1.390 . S
C1138 H1129 0.930 . S
C1138 C1136 1.384 . S
C1138 C1139 1.372 . S
C1139 C1138 1.372 . S
C1139 C1140 1.400 . S
C1139 C1144 1.490 . S
C1140 H1130 0.930 . S
C1140 C1139 1.400 . S
C1140 C1143 1.386 . S
H1141 C1157 0.930 . S
H1142 C1158 0.931 . S
C1143 H1131 0.929 . S
C1143 C1137 1.390 . S
C1143 C1140 1.386 . S
C1144 C1139 1.490 . S
C1144 C1146 1.395 . S
C1144 C1147 1.403 . S
H1145 C1151 0.930 . S
C1146 H1132 0.930 . S
C1146 C1144 1.395 . S
C1146 C1149 1.403 . S
C1147 C1144 1.403 . S
C1147 C1148 1.524 . S
C1147 C1151 1.400 . S
C1148 H1133 0.960 1_655 S
C1148 H1134 0.960 . S
C1148 H1135 0.960 . S
C1148 C1147 1.524 . S
C1149 C1146 1.403 . S
C1149 C1150 1.392 . S
C1149 C1153 1.495 . S
C1150 C1149 1.392 . S
C1150 C1151 1.385 . S
C1150 C1152 1.478 . S
C1151 H1145 0.930 . S
C1151 C1147 1.400 . S
C1151 C1150 1.385 . S
C1152 C1150 1.478 . S
C1152 C1154 1.381 . S
C1152 C1158 1.383 . S
C1153 C1149 1.495 . S
C1153 H1159 0.959 . S
C1153 H1160 0.961 . S
C1153 H1161 0.960 . S
C1154 C1152 1.381 . S
C1154 C1155 1.394 . S
C1154 H1162 0.930 . S
C1155 C1154 1.394 . S
C1155 C1156 1.383 . S
C1155 H1163 0.929 . S
C1156 C1155 1.383 . S
C1156 C1157 1.377 . S
C1157 H1141 0.930 . S
C1157 C1156 1.377 . S
C1157 C1158 1.379 . S
C1158 H1142 0.931 . S
C1158 C1152 1.383 . S
C1158 C1157 1.379 . S
H1159 C1153 0.959 . S
H1160 C1153 0.961 . S
H1161 C1153 0.960 . S
H1162 C1154 0.930 . S
H1163 C1155 0.929 . S
H1164 C1172 0.929 . S
H1165 C1174 0.930 . S
H1166 C1176 0.930 . S
H1167 C1179 0.929 . S
H1168 C1182 0.930 . S
H1169 C1184 0.946 1_545 S
H1170 C1184 0.944 1_545 S
H1171 C1184 0.960 . S
C1172 H1164 0.929 . S
C1172 C1173 1.377 . S
C1172 C1174 1.384 . S
C1173 C1172 1.377 . S
C1173 C1179 1.390 . S
C1174 H1165 0.930 . S
C1174 C1172 1.384 . S
C1174 C1175 1.372 . S
C1175 C1174 1.372 . S
C1175 C1176 1.400 . S
C1175 C1180 1.490 . S
C1176 H1166 0.930 . S
C1176 C1175 1.400 . S
C1176 C1179 1.386 . S
H1177 C1193 0.930 . S
H1178 C1194 0.931 . S
C1179 H1167 0.929 . S
C1179 C1173 1.390 . S
C1179 C1176 1.386 . S
C1180 C1175 1.490 . S
C1180 C1182 1.395 . S
C1180 C1183 1.403 . S
H1181 C1187 0.930 . S
C1182 H1168 0.930 . S
C1182 C1180 1.395 . S
C1182 C1185 1.403 . S
C1183 C1180 1.403 . S
C1183 C1184 1.524 . S
C1183 C1187 1.400 . S
C1184 H1169 0.946 1_565 S
C1184 H1170 0.944 1_565 S
C1184 H1171 0.960 . S
C1184 C1183 1.524 . S
C1185 C1182 1.403 . S
C1185 C1186 1.392 . S
C1185 C1189 1.495 . S
C1186 C1185 1.392 . S
C1186 C1187 1.385 . S
C1186 C1188 1.478 . S
C1187 H1181 0.930 . S
C1187 C1183 1.400 . S
C1187 C1186 1.385 . S
C1188 C1186 1.478 . S
C1188 C1190 1.381 . S
C1188 C1194 1.383 . S
C1189 C1185 1.495 . S
C1189 H1195 0.959 . S
C1189 H1196 0.961 . S
C1189 H1197 0.960 . S
C1190 C1188 1.381 . S
C1190 C1191 1.394 . S
C1190 H1198 0.930 . S
C1191 C1190 1.394 . S
C1191 C1192 1.383 . S
C1191 H1199 0.929 . S
C1192 C1191 1.383 . S
C1192 C1193 1.377 . S
C1193 H1177 0.930 . S
C1193 C1192 1.377 . S
C1193 C1194 1.379 . S
C1194 H1178 0.931 . S
C1194 C1188 1.383 . S
C1194 C1193 1.379 . S
H1195 C1189 0.959 . S
H1196 C1189 0.961 . S
H1197 C1189 0.960 . S
H1198 C1190 0.930 . S
H1199 C1191 0.929 . S
H1200 C1208 0.929 . S
H1201 C1210 0.930 . S
H1202 C1212 0.930 . S
H1203 C1215 0.929 . S
H1204 C1218 0.930 . S
H1205 C1220 0.960 . S
H1206 C1220 0.960 . S
H1207 C1220 0.960 . S
C1208 H1200 0.929 . S
C1208 C1209 1.377 . S
C1208 C1210 1.384 . S
C1209 C1208 1.377 . S
C1209 C1215 1.390 . S
C1210 H1201 0.930 . S
C1210 C1208 1.384 . S
C1210 C1211 1.372 . S
C1211 C1210 1.372 . S
C1211 C1212 1.400 . S
C1211 C1216 1.490 . S
C1212 H1202 0.930 . S
C1212 C1211 1.400 . S
C1212 C1215 1.386 . S
H1213 C1229 0.930 . S
H1214 C1230 0.931 . S
C1215 H1203 0.929 . S
C1215 C1209 1.390 . S
C1215 C1212 1.386 . S
C1216 C1211 1.490 . S
C1216 C1218 1.395 . S
C1216 C1219 1.403 . S
H1217 C1223 0.930 . S
C1218 H1204 0.930 . S
C1218 C1216 1.395 . S
C1218 C1221 1.403 . S
C1219 C1216 1.403 . S
C1219 C1220 1.524 . S
C1219 C1223 1.400 . S
C1220 H1205 0.960 . S
C1220 H1206 0.960 . S
C1220 H1207 0.960 . S
C1220 C1219 1.524 . S
C1221 C1218 1.403 . S
C1221 C1222 1.392 . S
C1221 C1225 1.495 . S
C1222 C1221 1.392 . S
C1222 C1223 1.385 . S
C1222 C1224 1.478 . S
C1223 H1217 0.930 . S
C1223 C1219 1.400 . S
C1223 C1222 1.385 . S
C1224 C1222 1.478 . S
C1224 C1226 1.381 . S
C1224 C1230 1.383 . S
C1225 C1221 1.495 . S
C1225 H1231 0.959 . S
C1225 H1232 0.961 . S
C1225 H1233 0.960 . S
C1226 C1224 1.381 . S
C1226 C1227 1.394 . S
C1226 H1234 0.930 . S
C1227 C1226 1.394 . S
C1227 C1228 1.383 . S
C1227 H1235 0.929 . S
C1228 C1227 1.383 . S
C1228 C1229 1.377 . S
C1229 H1213 0.930 . S
C1229 C1228 1.377 . S
C1229 C1230 1.379 . S
C1230 H1214 0.931 . S
C1230 C1224 1.383 . S
C1230 C1229 1.379 . S
H1231 C1225 0.959 . S
H1232 C1225 0.961 . S
H1233 C1225 0.960 . S
H1234 C1226 0.930 . S
H1235 C1227 0.929 . S
H1236 C1244 0.929 . S
H1237 C1246 0.930 . S
H1238 C1248 0.930 . S
H1239 C1251 0.929 . S
H1240 C1254 0.930 . S
H1241 C1256 0.960 . S
H1242 C1256 0.960 . S
H1243 C1256 0.960 . S
C1244 H1236 0.929 . S
C1244 C1245 1.377 . S
C1244 C1246 1.384 . S
C1245 C1244 1.377 . S
C1245 C1251 1.390 . S
C1246 H1237 0.930 . S
C1246 C1244 1.384 . S
C1246 C1247 1.372 . S
C1247 C1246 1.372 . S
C1247 C1248 1.400 . S
C1247 C1252 1.490 . S
C1248 H1238 0.930 . S
C1248 C1247 1.400 . S
C1248 C1251 1.386 . S
H1249 C1265 0.930 . S
H1250 C1266 0.931 . S
C1251 H1239 0.929 . S
C1251 C1245 1.390 . S
C1251 C1248 1.386 . S
C1252 C1247 1.490 . S
C1252 C1254 1.395 . S
C1252 C1255 1.403 . S
H1253 C1259 0.930 . S
C1254 H1240 0.930 . S
C1254 C1252 1.395 . S
C1254 C1257 1.403 . S
C1255 C1252 1.403 . S
C1255 C1256 1.524 . S
C1255 C1259 1.400 . S
C1256 H1241 0.960 . S
C1256 H1242 0.960 . S
C1256 H1243 0.960 . S
C1256 C1255 1.524 . S
C1257 C1254 1.403 . S
C1257 C1258 1.392 . S
C1257 C1261 1.495 . S
C1258 C1257 1.392 . S
C1258 C1259 1.385 . S
C1258 C1260 1.478 . S
C1259 H1253 0.930 . S
C1259 C1255 1.400 . S
C1259 C1258 1.385 . S
C1260 C1258 1.478 . S
C1260 C1262 1.381 . S
C1260 C1266 1.383 . S
C1261 C1257 1.495 . S
C1261 H1267 0.959 . S
C1261 H1268 0.961 . S
C1261 H1269 0.960 . S
C1262 C1260 1.381 . S
C1262 C1263 1.394 . S
C1262 H1270 0.930 . S
C1263 C1262 1.394 . S
C1263 C1264 1.383 . S
C1263 H1271 0.929 . S
C1264 C1263 1.383 . S
C1264 C1265 1.377 . S
C1265 H1249 0.930 . S
C1265 C1264 1.377 . S
C1265 C1266 1.379 . S
C1266 H1250 0.931 . S
C1266 C1260 1.383 . S
C1266 C1265 1.379 . S
H1267 C1261 0.959 . S
H1268 C1261 0.961 . S
H1269 C1261 0.960 . S
H1270 C1262 0.930 . S
H1271 C1263 0.929 . S
C417 C61 1.707 . S
C436 C146 1.770 . S
C472 C230 1.799 . S
C453 C70 1.749 . S
C508 C296 1.750 . S
C489 C43 1.854 . S
C544 C380 1.776 . S
C525 C52 1.840 . S
C580 C135 1.746 1_565 S
C561 C25 1.716 . S
C597 C34 1.750 . S
C616 C219 1.783 . S
C633 C7 1.856 . S
C652 C307 1.757 . S
C669 C16 1.835 . S
C688 C391 1.755 . S
C724 C142 0.485 1_455 S
C705 C50 0.415 . S
C760 C226 0.447 . S
C741 C59 0.368 . S
C796 C298 0.396 . S
C777 C67 0.336 . S
C813 C41 0.394 . S
C832 C382 0.517 . S
C849 C14 0.388 . S
C868 C130 0.545 . S
C904 C214 0.470 . S
C885 C23 0.339 . S
C940 C310 0.541 . S
C921 C31 0.329 . S
C957 C5 0.345 . S
C976 C394 0.578 . S
C993 C49 1.892 . S
C1012 C139 1.934 . S
C1029 C58 1.853 . S
C1048 C223 1.892 . S
C1084 C303 1.886 . S
C1065 C68 1.749 . S
C1120 C387 1.897 . S
C1101 C40 1.778 . S
C1137 C13 1.894 . S
C1156 C128 1.974 . S
C1192 C212 1.943 . S
C1173 C22 1.859 . S
C1228 C314 1.886 . S
C1209 C32 1.735 . S
C1245 C4 1.772 . S
C1264 C398 1.905 . S
