# Generated by pormake.
# Topology apo, (3,6)-cn, num edge types: 1
# Building blocks:
#     Node 0, Type 0, BuildingBlock: BELTOD_clean_linker_0, # of connection points: 3
#     Node 1, Type 0, BuildingBlock: BELTOD_clean_linker_0, # of connection points: 3
#     Node 2, Type 0, BuildingBlock: BELTOD_clean_linker_0, # of connection points: 3
#     Node 3, Type 0, BuildingBlock: BELTOD_clean_linker_0, # of connection points: 3
#     Node 4, Type 0, BuildingBlock: BELTOD_clean_linker_0, # of connection points: 3
#     Node 5, Type 0, BuildingBlock: BELTOD_clean_linker_0, # of connection points: 3
#     Node 6, Type 0, BuildingBlock: BELTOD_clean_linker_0, # of connection points: 3
#     Node 7, Type 0, BuildingBlock: BELTOD_clean_linker_0, # of connection points: 3
#     Node 8, Type 1, BuildingBlock: KUMJIN_clean_sbu_1, # of connection points: 6
#     Node 9, Type 1, BuildingBlock: KUMJIN_clean_sbu_1, # of connection points: 6
#     Node 10, Type 1, BuildingBlock: KUMJIN_clean_sbu_1, # of connection points: 6
#     Node 11, Type 1, BuildingBlock: KUMJIN_clean_sbu_1, # of connection points: 6
#     Edge 12, Type (0, 1), BuildingBlock: KIFKEQ_clean_linker_1, # of connection points: 2
#     Edge 13, Type (0, 1), BuildingBlock: KIFKEQ_clean_linker_1, # of connection points: 2
#     Edge 14, Type (0, 1), BuildingBlock: KIFKEQ_clean_linker_1, # of connection points: 2
#     Edge 15, Type (0, 1), BuildingBlock: KIFKEQ_clean_linker_1, # of connection points: 2
#     Edge 16, Type (0, 1), BuildingBlock: KIFKEQ_clean_linker_1, # of connection points: 2
#     Edge 17, Type (0, 1), BuildingBlock: KIFKEQ_clean_linker_1, # of connection points: 2
#     Edge 18, Type (0, 1), BuildingBlock: KIFKEQ_clean_linker_1, # of connection points: 2
#     Edge 19, Type (0, 1), BuildingBlock: KIFKEQ_clean_linker_1, # of connection points: 2
#     Edge 20, Type (0, 1), BuildingBlock: KIFKEQ_clean_linker_1, # of connection points: 2
#     Edge 21, Type (0, 1), BuildingBlock: KIFKEQ_clean_linker_1, # of connection points: 2
#     Edge 22, Type (0, 1), BuildingBlock: KIFKEQ_clean_linker_1, # of connection points: 2
#     Edge 23, Type (0, 1), BuildingBlock: KIFKEQ_clean_linker_1, # of connection points: 2
#     Edge 24, Type (0, 1), BuildingBlock: KIFKEQ_clean_linker_1, # of connection points: 2
#     Edge 25, Type (0, 1), BuildingBlock: KIFKEQ_clean_linker_1, # of connection points: 2
#     Edge 26, Type (0, 1), BuildingBlock: KIFKEQ_clean_linker_1, # of connection points: 2
#     Edge 27, Type (0, 1), BuildingBlock: KIFKEQ_clean_linker_1, # of connection points: 2
#     Edge 28, Type (0, 1), BuildingBlock: KIFKEQ_clean_linker_1, # of connection points: 2
#     Edge 29, Type (0, 1), BuildingBlock: KIFKEQ_clean_linker_1, # of connection points: 2
#     Edge 30, Type (0, 1), BuildingBlock: KIFKEQ_clean_linker_1, # of connection points: 2
#     Edge 31, Type (0, 1), BuildingBlock: KIFKEQ_clean_linker_1, # of connection points: 2
#     Edge 32, Type (0, 1), BuildingBlock: KIFKEQ_clean_linker_1, # of connection points: 2
#     Edge 33, Type (0, 1), BuildingBlock: KIFKEQ_clean_linker_1, # of connection points: 2
#     Edge 34, Type (0, 1), BuildingBlock: KIFKEQ_clean_linker_1, # of connection points: 2
#     Edge 35, Type (0, 1), BuildingBlock: KIFKEQ_clean_linker_1, # of connection points: 2
# Relax obj value: 0.009
# Max RMSD: 0.109
# Mean RMSD: 0.081
data_MOF--net-apo--node1-KUMJIN_clean_sbu_1--node2-BELTOD_clean_linker_0--edge1-KIFKEQ_clean_linker_1
_symmetry_space_group_name_H-M    P1
_symmetry_Int_Tables_number       1
_symmetry_cell_setting            triclinic
loop_
_symmetry_equiv_pos_as_xyz
'x, y, z'
_cell_length_a     27.833913
_cell_length_b     49.228839
_cell_length_c     60.669001
_cell_angle_alpha  89.724785
_cell_angle_beta   90.025875
_cell_angle_gamma 90.233901
loop_
_atom_site_label
_atom_site_type_symbol
_atom_site_fract_x
_atom_site_fract_y
_atom_site_fract_z
_atom_type_partial_charge
P0 P 0.34204 0.35582 0.40918 0.0
H1 H 0.41546 0.35911 0.44307 0.0
H2 H 0.4129 0.36638 0.48279 0.0
H3 H 0.25845 0.37405 0.47958 0.0
H4 H 0.26148 0.36696 0.43954 0.0
H5 H 0.28453 0.36362 0.3689 0.0
H6 H 0.22544 0.33488 0.35069 0.0
H7 H 0.2279 0.27957 0.40618 0.0
H8 H 0.28783 0.30841 0.42428 0.0
H9 H 0.4108 0.36976 0.37467 0.0
H10 H 0.29758 0.40997 0.41017 0.0
O11 O 0.38849 0.33508 0.4052 0.0
H12 H 0.42458 0.41057 0.35281 0.0
H13 H 0.31044 0.45111 0.38782 0.0
C14 C 0.33858 0.36195 0.43843 0.0
C15 C 0.38097 0.36221 0.4509 0.0
C16 C 0.37944 0.36624 0.47367 0.0
C17 C 0.33542 0.37042 0.48447 0.0
C18 C 0.29297 0.3709 0.47179 0.0
C19 C 0.29457 0.36673 0.44893 0.0
C20 C 0.29023 0.3384 0.39816 0.0
C21 C 0.27157 0.34573 0.37749 0.0
C22 C 0.23759 0.32921 0.36703 0.0
C23 C 0.22204 0.30481 0.37689 0.0
C24 C 0.2395 0.29806 0.398 0.0
C25 C 0.27338 0.31468 0.40848 0.0
C26 C 0.35368 0.38696 0.3943 0.0
C27 C 0.38903 0.38748 0.37788 0.0
C28 C 0.39651 0.41081 0.36517 0.0
C29 C 0.36839 0.43413 0.3684 0.0
C30 C 0.33304 0.43361 0.38502 0.0
C31 C 0.32561 0.41014 0.3978 0.0
P32 P 0.29708 0.10011 0.91644 0.0
H33 H 0.31871 0.07095 0.87637 0.0
H34 H 0.272 0.04046 0.85305 0.0
H35 H 0.14679 0.05449 0.89352 0.0
H36 H 0.19434 0.08457 0.91712 0.0
H37 H 0.38932 0.1262 0.90717 0.0
H38 H 0.41217 0.16502 0.88429 0.0
H39 H 0.26266 0.18185 0.87155 0.0
H40 H 0.23966 0.14217 0.89412 0.0
H41 H 0.29471 0.06575 0.95522 0.0
H42 H 0.23833 0.14393 0.93633 0.0
O43 O 0.34769 0.08271 0.92057 0.0
H44 H 0.26037 0.07078 0.99192 0.0
H45 H 0.20355 0.14911 0.97327 0.0
C46 C 0.26022 0.07963 0.89864 0.0
C47 C 0.28114 0.06752 0.88017 0.0
C48 C 0.25423 0.05023 0.86674 0.0
C49 C 0.2056 0.04487 0.87144 0.0
C50 C 0.18434 0.05779 0.88965 0.0
C51 C 0.21143 0.0751 0.90311 0.0
C52 C 0.31273 0.13124 0.90233 0.0
C53 C 0.36125 0.13826 0.89965 0.0
C54 C 0.37437 0.16042 0.88652 0.0
C55 C 0.33918 0.17626 0.87606 0.0
C56 C 0.29043 0.16996 0.8795 0.0
C57 C 0.27731 0.1474 0.8924 0.0
C58 C 0.27005 0.10471 0.94318 0.0
C59 C 0.27518 0.08413 0.95902 0.0
C60 C 0.25562 0.08705 0.98004 0.0
C61 C 0.22986 0.11053 0.98562 0.0
C62 C 0.22333 0.13082 0.96946 0.0
C63 C 0.24337 0.12794 0.94838 0.0
P64 P 0.85949 0.15098 0.60589 0.0
H65 H 0.81944 0.18754 0.57278 0.0
H66 H 0.81771 0.18565 0.53263 0.0
H67 H 0.86931 0.10298 0.53523 0.0
H68 H 0.8726 0.1055 0.57537 0.0
H69 H 0.87285 0.19312 0.63878 0.0
H70 H 0.81726 0.22102 0.65971 0.0
H71 H 0.69755 0.18253 0.62668 0.0
H72 H 0.75403 0.15493 0.60532 0.0
H73 H 0.92952 0.1313 0.63779 0.0
H74 H 0.79797 0.10232 0.60846 0.0
O75 O 0.91318 0.1662 0.60631 0.0
H76 H 0.93524 0.08988 0.65968 0.0
H77 H 0.80304 0.0606 0.63073 0.0
C78 C 0.84512 0.14648 0.57715 0.0
C79 C 0.82894 0.16872 0.56474 0.0
C80 C 0.82798 0.16758 0.54169 0.0
C81 C 0.84362 0.14419 0.53056 0.0
C82 C 0.85764 0.12147 0.54318 0.0
C83 C 0.85886 0.12272 0.56622 0.0
C84 C 0.81757 0.17241 0.62015 0.0
C85 C 0.83469 0.19088 0.63582 0.0
C86 C 0.80275 0.20663 0.64799 0.0
C87 C 0.75285 0.204 0.64495 0.0
C88 C 0.73576 0.18532 0.62923 0.0
C89 C 0.76792 0.16952 0.61703 0.0
C90 C 0.86389 0.1196 0.62114 0.0
C91 C 0.90194 0.11591 0.63596 0.0
C92 C 0.90488 0.09229 0.64869 0.0
C93 C 0.86953 0.07191 0.64703 0.0
C94 C 0.83113 0.07576 0.63222 0.0
C95 C 0.82815 0.09956 0.6195 0.0
P96 P 0.78973 0.39907 0.09307 0.0
H97 H 0.82134 0.43792 0.12578 0.0
H98 H 0.77909 0.47 0.14923 0.0
H99 H 0.64351 0.44247 0.12243 0.0
H100 H 0.68649 0.41079 0.09852 0.0
H101 H 0.87776 0.36774 0.0983 0.0
H102 H 0.89919 0.32936 0.12157 0.0
H103 H 0.75296 0.32492 0.14549 0.0
H104 H 0.73249 0.36448 0.1228 0.0
H105 H 0.7934 0.42361 0.04941 0.0
H106 H 0.71658 0.358 0.08108 0.0
O107 O 0.84153 0.41416 0.08628 0.0
H108 H 0.75558 0.4125 0.01444 0.0
H109 H 0.67688 0.34727 0.04617 0.0
C110 C 0.75713 0.42244 0.11009 0.0
C111 C 0.78253 0.43892 0.12484 0.0
C112 C 0.75823 0.45708 0.13842 0.0
C113 C 0.70783 0.45889 0.13772 0.0
C114 C 0.68237 0.44192 0.12314 0.0
C115 C 0.70685 0.42375 0.10949 0.0
C116 C 0.80363 0.36909 0.10893 0.0
C117 C 0.85024 0.35853 0.10852 0.0
C118 C 0.86236 0.33632 0.12176 0.0
C119 C 0.82785 0.32386 0.13549 0.0
C120 C 0.78071 0.3342 0.13544 0.0
C121 C 0.76879 0.35668 0.12232 0.0
C122 C 0.75861 0.39131 0.06777 0.0
C123 C 0.7681 0.40686 0.04887 0.0
C124 C 0.74595 0.40063 0.02885 0.0
C125 C 0.71313 0.37889 0.02734 0.0
C126 C 0.7026 0.36382 0.04657 0.0
C127 C 0.72512 0.37001 0.06661 0.0
P128 P 0.78122 0.60741 0.59649 0.0
H129 H 0.8111 0.63761 0.55756 0.0
H130 H 0.77521 0.64311 0.521 0.0
H131 H 0.6473 0.60149 0.54365 0.0
H132 H 0.68287 0.59674 0.5802 0.0
H133 H 0.86102 0.61565 0.6264 0.0
H134 H 0.88573 0.65336 0.64969 0.0
H135 H 0.76417 0.7 0.62672 0.0
H136 H 0.74026 0.66204 0.60291 0.0
H137 H 0.75806 0.55033 0.59074 0.0
H138 H 0.72806 0.61275 0.63838 0.0
O139 O 0.83109 0.59134 0.58877 0.0
H140 H 0.71426 0.51725 0.6133 0.0
H141 H 0.68397 0.5798 0.661 0.0
C142 C 0.74997 0.61653 0.57152 0.0
C143 C 0.77492 0.63021 0.55475 0.0
C144 C 0.7545 0.63312 0.53381 0.0
C145 C 0.70866 0.62233 0.52925 0.0
C146 C 0.68257 0.61013 0.54656 0.0
C147 C 0.70306 0.60726 0.56751 0.0
C148 C 0.79944 0.63629 0.61262 0.0
C149 C 0.83994 0.63409 0.62618 0.0
C150 C 0.85372 0.6556 0.6397 0.0
C151 C 0.82686 0.67973 0.64017 0.0
C152 C 0.78599 0.68184 0.62656 0.0
C153 C 0.77224 0.66019 0.61296 0.0
C154 C 0.74691 0.58385 0.61303 0.0
C155 C 0.74193 0.5569 0.60605 0.0
C156 C 0.71663 0.53807 0.61889 0.0
C157 C 0.69583 0.54588 0.639 0.0
C158 C 0.70019 0.57308 0.64575 0.0
C159 C 0.72529 0.59196 0.63279 0.0
P160 P 0.83135 0.86319 0.10468 0.0
H161 H 0.80814 0.87954 0.14972 0.0
H162 H 0.82149 0.92174 0.1699 0.0
H163 H 0.87205 0.96028 0.11013 0.0
H164 H 0.85834 0.91807 0.08999 0.0
H165 H 0.82894 0.80485 0.11218 0.0
H166 H 0.77108 0.77461 0.12969 0.0
H167 H 0.67178 0.84144 0.13618 0.0
H168 H 0.7311 0.87189 0.11904 0.0
H169 H 0.90683 0.86427 0.07146 0.0
H170 H 0.75242 0.87038 0.0727 0.0
O171 O 0.88379 0.84902 0.11137 0.0
H172 H 0.90636 0.86882 0.03151 0.0
H173 H 0.7516 0.87568 0.03244 0.0
C174 C 0.831 0.89576 0.11819 0.0
C175 C 0.82054 0.8973 0.14077 0.0
C176 C 0.82833 0.92145 0.15233 0.0
C177 C 0.84785 0.94435 0.14162 0.0
C178 C 0.85719 0.94294 0.11886 0.0
C179 C 0.84894 0.91885 0.10728 0.0
C180 C 0.7848 0.84073 0.11479 0.0
C181 C 0.79463 0.81301 0.11724 0.0
C182 C 0.76115 0.79563 0.12713 0.0
C183 C 0.71666 0.80552 0.13457 0.0
C184 C 0.70598 0.83318 0.13107 0.0
C185 C 0.73972 0.85061 0.12115 0.0
C186 C 0.82959 0.8665 0.07504 0.0
C187 C 0.87269 0.86653 0.0631 0.0
C188 C 0.87241 0.86942 0.04019 0.0
C189 C 0.82895 0.87263 0.02865 0.0
C190 C 0.78568 0.87284 0.04073 0.0
C191 C 0.78606 0.86992 0.06376 0.0
P192 P 0.27757 0.8948 0.41594 0.0
H193 H 0.31843 0.8894 0.45985 0.0
H194 H 0.28455 0.87774 0.49561 0.0
H195 H 0.14599 0.8645 0.46511 0.0
H196 H 0.18025 0.87738 0.42927 0.0
H197 H 0.36648 0.88455 0.39212 0.0
H198 H 0.39301 0.84752 0.3687 0.0
H199 H 0.25979 0.80478 0.3812 0.0
H200 H 0.23309 0.84238 0.4046 0.0
H201 H 0.22057 0.94256 0.42609 0.0
H202 H 0.2479 0.89255 0.3693 0.0
O203 O 0.32486 0.91463 0.42139 0.0
H204 H 0.17695 0.97479 0.40282 0.0
H205 H 0.20337 0.92411 0.34616 0.0
C206 C 0.2517 0.88466 0.44197 0.0
C207 C 0.28071 0.88407 0.46083 0.0
C208 C 0.26128 0.87711 0.48131 0.0
C209 C 0.21239 0.87012 0.48339 0.0
C210 C 0.18357 0.87017 0.46426 0.0
C211 C 0.20312 0.87735 0.44372 0.0
C212 C 0.29829 0.86592 0.40054 0.0
C213 C 0.34319 0.86706 0.39015 0.0
C214 C 0.35834 0.84584 0.37671 0.0
C215 C 0.32868 0.82308 0.37319 0.0
C216 C 0.28339 0.82208 0.3835 0.0
C217 C 0.26832 0.84338 0.39707 0.0
C218 C 0.23716 0.91503 0.39955 0.0
C219 C 0.21609 0.93815 0.40874 0.0
C220 C 0.19109 0.95654 0.39539 0.0
C221 C 0.18693 0.95216 0.37255 0.0
C222 C 0.20656 0.92836 0.36359 0.0
C223 C 0.23167 0.91007 0.37694 0.0
P224 P 0.35637 0.64793 0.90737 0.0
H225 H 0.44009 0.61604 0.89478 0.0
H226 H 0.44951 0.57402 0.87432 0.0
H227 H 0.29509 0.56574 0.87012 0.0
H228 H 0.28603 0.6085 0.89028 0.0
H229 H 0.36922 0.68515 0.87051 0.0
H230 H 0.31421 0.71325 0.84922 0.0
H231 H 0.19532 0.68298 0.8882 0.0
H232 H 0.25139 0.65542 0.90999 0.0
H233 H 0.35709 0.60207 0.9389 0.0
H234 H 0.32637 0.68782 0.93965 0.0
O235 O 0.40959 0.66364 0.90643 0.0
H236 H 0.35085 0.6005 0.97918 0.0
H237 H 0.32005 0.6864 0.97985 0.0
C238 C 0.36236 0.61559 0.89382 0.0
C239 C 0.40818 0.60522 0.88952 0.0
C240 C 0.41352 0.58099 0.87791 0.0
C241 C 0.37306 0.56643 0.87049 0.0
C242 C 0.32703 0.57662 0.87528 0.0
C243 C 0.32176 0.60097 0.88692 0.0
C244 C 0.31453 0.66865 0.89212 0.0
C245 C 0.33137 0.68471 0.87462 0.0
C246 C 0.29968 0.70057 0.86226 0.0
C247 C 0.25015 0.70044 0.86691 0.0
C248 C 0.23327 0.68394 0.88435 0.0
C249 C 0.26521 0.6681 0.89679 0.0
C250 C 0.34137 0.645 0.93622 0.0
C251 C 0.34776 0.62042 0.94765 0.0
C252 C 0.34431 0.61955 0.97071 0.0
C253 C 0.33535 0.64337 0.98273 0.0
C254 C 0.32757 0.66776 0.9711 0.0
C255 C 0.33063 0.66854 0.9481 0.0
Eu256 Eu 0.0561 0.14164 0.23588 0.0
C257 C 0.85766 0.09599 0.26371 0.0
N258 N 0.87155 0.12221 0.26064 0.0
C259 C 0.8017 0.13072 0.23864 0.0
C260 C 0.81585 0.08577 0.25353 0.0
C261 C 0.8437 0.13987 0.24893 0.0
C262 C 0.78796 0.10348 0.24076 0.0
C263 C 0.87179 0.05219 0.28085 0.0
C264 C 0.88541 0.07946 0.27715 0.0
C265 C 0.83115 0.04159 0.27011 0.0
C266 C 0.80319 0.05835 0.25651 0.0
Eu267 Eu 0.94324 0.13602 0.27804 0.0
N268 N 0.9243 0.0904 0.28744 0.0
C269 C 0.89861 0.03663 0.29575 0.0
C270 C 0.94796 0.07598 0.30331 0.0
C271 C 0.93634 0.04874 0.30732 0.0
H272 H 0.85428 0.16093 0.24735 0.0
H273 H 0.95599 0.03725 0.31959 0.0
H274 H 0.13758 0.09682 0.25664 0.0
H275 H 0.08176 0.24904 0.21753 0.0
H276 H 0.9751 0.08555 0.3133 0.0
H277 H 0.88937 0.0156 0.29904 0.0
H278 H 0.04168 0.204 0.21572 0.0
H279 H 0.78002 0.14465 0.22905 0.0
H280 H 0.82042 0.02061 0.27259 0.0
H281 H 0.77149 0.05002 0.24863 0.0
H282 H 0.2123 0.09808 0.27822 0.0
H283 H 0.75554 0.09642 0.23268 0.0
H284 H 0.15574 0.2547 0.23976 0.0
N285 N 0.13071 0.13988 0.25484 0.0
C286 C 0.15334 0.16412 0.25788 0.0
C287 C 0.1957 0.11685 0.27292 0.0
C288 C 0.19724 0.16573 0.26945 0.0
C289 C 0.15261 0.11627 0.26107 0.0
C290 C 0.2177 0.14173 0.27747 0.0
N291 N 0.09205 0.18502 0.23702 0.0
C292 C 0.074 0.20649 0.2254 0.0
C293 C 0.15788 0.21248 0.24993 0.0
C294 C 0.134 0.18726 0.2483 0.0
C295 C 0.13842 0.23498 0.23893 0.0
C296 C 0.09661 0.23188 0.22638 0.0
H297 H 0.25137 0.14209 0.28645 0.0
H298 H 0.25357 0.19267 0.28102 0.0
H299 H 0.21909 0.2336 0.2639 0.0
O300 O 0.04808 0.14667 0.20028 0.0
O301 O 0.03916 0.17573 0.26008 0.0
O302 O 0.01463 0.15189 0.29026 0.0
O303 O 0.11224 0.12826 0.21317 0.0
O304 O 0.98453 0.15813 0.22426 0.0
O305 O 0.94506 0.17323 0.25553 0.0
O306 O 0.90769 0.13392 0.31024 0.0
O307 O 0.93741 0.11864 0.24329 0.0
O308 O 0.01302 0.10251 0.2367 0.0
O309 O 0.90559 0.17109 0.29135 0.0
O310 O 0.01478 0.1182 0.28928 0.0
O311 O 0.05276 0.10358 0.25758 0.0
C312 C 0.03687 0.17278 0.28155 0.0
C313 C 0.08507 0.11376 0.17826 0.0
C314 C 0.09633 0.10031 0.13987 0.0
C315 C 0.07539 0.07494 0.14488 0.0
C316 C 0.06475 0.08829 0.1829 0.0
C317 C 0.05982 0.06902 0.16626 0.0
C318 C 0.101 0.1197 0.15678 0.0
C319 C 0.95442 0.17458 0.23423 0.0
C320 C 0.08814 0.13457 0.19551 0.0
C321 C 0.22008 0.19103 0.272 0.0
C322 C 0.20052 0.21434 0.26221 0.0
C323 C 0.96619 0.1005 0.23466 0.0
C324 C 0.91461 0.17487 0.33013 0.0
C325 C 0.91896 0.17961 0.37027 0.0
C326 C 0.95048 0.20178 0.36743 0.0
C327 C 0.94636 0.19702 0.32784 0.0
C328 C 0.9008 0.16636 0.35143 0.0
C329 C 0.96398 0.21036 0.34638 0.0
C330 C 0.04403 0.10159 0.27891 0.0
C331 C 0.89797 0.15974 0.3105 0.0
H332 H 0.0718 0.05947 0.13235 0.0
H333 H 0.05269 0.08341 0.19938 0.0
H334 H 0.04399 0.04939 0.16996 0.0
H335 H 0.11633 0.13951 0.15319 0.0
H336 H 0.96453 0.21267 0.38152 0.0
H337 H 0.95803 0.20393 0.31173 0.0
H338 H 0.87702 0.14901 0.35331 0.0
H339 H 0.98845 0.22736 0.34443 0.0
Eu340 Eu 0.44269 0.36375 0.73445 0.0
C341 C 0.65037 0.39207 0.75535 0.0
N342 N 0.62853 0.36769 0.75894 0.0
C343 C 0.69418 0.3449 0.74142 0.0
C344 C 0.69404 0.39387 0.74363 0.0
C345 C 0.65131 0.34418 0.75342 0.0
C346 C 0.71516 0.36989 0.7361 0.0
C347 C 0.65399 0.4405 0.76265 0.0
C348 C 0.63073 0.41513 0.76472 0.0
C349 C 0.69615 0.44259 0.75004 0.0
C350 C 0.71608 0.41933 0.74051 0.0
Eu351 Eu 0.55372 0.36908 0.77767 0.0
N352 N 0.5893 0.41263 0.77637 0.0
C353 C 0.63456 0.46288 0.77364 0.0
C354 C 0.57159 0.43393 0.78814 0.0
C355 C 0.59359 0.45947 0.78672 0.0
H356 H 0.63696 0.32475 0.7585 0.0
H357 H 0.57887 0.47652 0.79563 0.0
H358 H 0.35039 0.38504 0.7644 0.0
H359 H 0.46437 0.26769 0.69022 0.0
H360 H 0.53987 0.4312 0.79819 0.0
H361 H 0.6514 0.48272 0.77248 0.0
H362 H 0.48022 0.31585 0.6982 0.0
H363 H 0.71138 0.32617 0.73658 0.0
H364 H 0.71418 0.46198 0.74797 0.0
H365 H 0.74932 0.42113 0.73132 0.0
H366 H 0.27564 0.36638 0.78087 0.0
H367 H 0.74867 0.37039 0.72702 0.0
H368 H 0.39812 0.24356 0.70927 0.0
N369 N 0.37136 0.34734 0.75064 0.0
C370 C 0.35952 0.32104 0.74669 0.0
C371 C 0.29908 0.35337 0.77143 0.0
C372 C 0.31758 0.30948 0.75583 0.0
C373 C 0.34131 0.36387 0.76216 0.0
C374 C 0.28743 0.32597 0.76847 0.0
N375 N 0.42769 0.31824 0.7236 0.0
C376 C 0.45307 0.30524 0.70757 0.0
C377 C 0.37736 0.27864 0.72839 0.0
C378 C 0.38909 0.3059 0.73313 0.0
C379 C 0.40589 0.26453 0.71334 0.0
C380 C 0.4434 0.27805 0.7026 0.0
H381 H 0.25482 0.31786 0.77574 0.0
H382 H 0.27508 0.27268 0.75895 0.0
H383 H 0.32745 0.24564 0.73493 0.0
O384 O 0.40709 0.36276 0.70191 0.0
O385 O 0.43584 0.34568 0.7691 0.0
O386 O 0.51146 0.32975 0.77628 0.0
O387 O 0.40504 0.39948 0.72206 0.0
O388 O 0.51567 0.3475 0.7236 0.0
O389 O 0.55146 0.33167 0.75555 0.0
O390 O 0.54387 0.37228 0.81333 0.0
O391 O 0.53517 0.40373 0.75413 0.0
O392 O 0.51346 0.38137 0.72291 0.0
O393 O 0.61058 0.35702 0.80051 0.0
O394 O 0.48153 0.38492 0.78899 0.0
O395 O 0.44146 0.4001 0.75777 0.0
C396 C 0.46462 0.32782 0.77832 0.0
C397 C 0.3633 0.40186 0.68692 0.0
C398 C 0.33788 0.40876 0.64859 0.0
C399 C 0.308 0.43002 0.65566 0.0
C400 C 0.3336 0.42337 0.69336 0.0
C401 C 0.30596 0.43721 0.67783 0.0
C402 C 0.36511 0.39444 0.66449 0.0
C403 C 0.54483 0.33073 0.73402 0.0
C404 C 0.39245 0.38771 0.70376 0.0
C405 C 0.30685 0.28204 0.75187 0.0
C406 C 0.33674 0.26663 0.73822 0.0
C407 C 0.53474 0.40182 0.7326 0.0
C408 C 0.58605 0.34103 0.83549 0.0
C409 C 0.59938 0.32879 0.87416 0.0
C410 C 0.58842 0.3016 0.86895 0.0
C411 C 0.57526 0.31388 0.8307 0.0
C412 C 0.5977 0.34844 0.85717 0.0
C413 C 0.57628 0.29429 0.8474 0.0
C414 C 0.45205 0.40181 0.77897 0.0
C415 C 0.58549 0.36191 0.81811 0.0
H416 H 0.28576 0.44103 0.64403 0.0
H417 H 0.33143 0.4294 0.71049 0.0
H418 H 0.28285 0.45362 0.683 0.0
H419 H 0.3886 0.37814 0.65938 0.0
H420 H 0.59005 0.28582 0.88142 0.0
H421 H 0.56641 0.30788 0.81404 0.0
H422 H 0.60515 0.36959 0.86075 0.0
H423 H 0.56807 0.27332 0.8436 0.0
Eu424 Eu 0.05526 0.86919 0.73453 0.0
C425 C 0.86198 0.82227 0.76448 0.0
N426 N 0.87327 0.84886 0.76142 0.0
C427 C 0.80156 0.85551 0.74027 0.0
C428 C 0.82078 0.81088 0.7546 0.0
C429 C 0.84309 0.86582 0.75024 0.0
C430 C 0.79068 0.82784 0.74221 0.0
C431 C 0.88029 0.77902 0.78166 0.0
C432 C 0.89148 0.8066 0.77781 0.0
C433 C 0.84046 0.76723 0.77108 0.0
C434 C 0.81072 0.78314 0.75761 0.0
Eu435 Eu 0.94439 0.86472 0.77815 0.0
N436 N 0.92947 0.8187 0.78797 0.0
C437 C 0.90852 0.76434 0.79659 0.0
C438 C 0.95436 0.80508 0.80394 0.0
C439 C 0.94514 0.77759 0.80809 0.0
H440 H 0.85174 0.88717 0.7487 0.0
H441 H 0.96582 0.76674 0.82039 0.0
H442 H 0.13487 0.82144 0.75138 0.0
H443 H 0.09137 0.97639 0.71876 0.0
H444 H 0.98094 0.81539 0.81381 0.0
H445 H 0.90113 0.7431 0.8 0.0
H446 H 0.04803 0.93247 0.7152 0.0
H447 H 0.77811 0.86885 0.73103 0.0
H448 H 0.83164 0.74599 0.77366 0.0
H449 H 0.77956 0.77391 0.74993 0.0
H450 H 0.21007 0.81922 0.7728 0.0
H451 H 0.75864 0.81988 0.73438 0.0
H452 H 0.16431 0.97928 0.74205 0.0
N453 N 0.13074 0.86456 0.75237 0.0
C454 C 0.15486 0.88799 0.75671 0.0
C455 C 0.19458 0.83873 0.76869 0.0
C456 C 0.19891 0.88774 0.7682 0.0
C457 C 0.15141 0.84006 0.75693 0.0
C458 C 0.21798 0.86271 0.77475 0.0
N459 N 0.09567 0.91137 0.73651 0.0
C460 C 0.08006 0.93373 0.72523 0.0
C461 C 0.16289 0.93658 0.75084 0.0
C462 C 0.13723 0.91208 0.74818 0.0
C463 C 0.14561 0.96005 0.74043 0.0
C464 C 0.10445 0.95851 0.72725 0.0
H465 H 0.25171 0.86163 0.78363 0.0
H466 H 0.25693 0.91257 0.78106 0.0
H467 H 0.22531 0.95538 0.76585 0.0
O468 O 0.04417 0.87493 0.69921 0.0
O469 O 0.03939 0.90376 0.75831 0.0
O470 O 0.01562 0.88181 0.7897 0.0
O471 O 0.10829 0.85502 0.71052 0.0
O472 O 0.98462 0.88803 0.72382 0.0
O473 O 0.94446 0.9018 0.75542 0.0
O474 O 0.90791 0.86269 0.81046 0.0
O475 O 0.93691 0.84914 0.74294 0.0
O476 O 0.01049 0.83075 0.73603 0.0
O477 O 0.90729 0.90021 0.79103 0.0
O478 O 0.01705 0.84782 0.78889 0.0
O479 O 0.05037 0.83159 0.75671 0.0
C480 C 0.03819 0.90187 0.77986 0.0
C481 C 0.07729 0.84226 0.67573 0.0
C482 C 0.08583 0.83027 0.63687 0.0
C483 C 0.06126 0.80576 0.64112 0.0
C484 C 0.05324 0.81764 0.67965 0.0
C485 C 0.04527 0.7995 0.6624 0.0
C486 C 0.09377 0.84845 0.65439 0.0
C487 C 0.9553 0.90452 0.73429 0.0
C488 C 0.08304 0.86229 0.69345 0.0
C489 C 0.22334 0.91232 0.77202 0.0
C490 C 0.2054 0.9367 0.76333 0.0
C491 C 0.96359 0.83021 0.73406 0.0
C492 C 0.86461 0.90149 0.82596 0.0
C493 C 0.83468 0.90529 0.86381 0.0
C494 C 0.80784 0.92813 0.85734 0.0
C495 C 0.83759 0.92443 0.82005 0.0
C496 C 0.86313 0.89197 0.84792 0.0
C497 C 0.80936 0.93757 0.83565 0.0
C498 C 0.0454 0.8309 0.77832 0.0
C499 C 0.89381 0.88779 0.809 0.0
H500 H 0.05496 0.79126 0.62805 0.0
H501 H 0.04036 0.81259 0.69598 0.0
H502 H 0.02652 0.78056 0.66551 0.0
H503 H 0.11182 0.86766 0.65135 0.0
H504 H 0.78625 0.93906 0.86918 0.0
H505 H 0.83801 0.93214 0.80329 0.0
H506 H 0.88388 0.87429 0.85262 0.0
H507 H 0.78869 0.95525 0.83092 0.0
Eu508 Eu 0.44263 0.63238 0.23499 0.0
C509 C 0.66045 0.65564 0.25726 0.0
N510 N 0.63435 0.63247 0.25991 0.0
C511 C 0.69919 0.60637 0.24498 0.0
C512 C 0.70657 0.65513 0.24762 0.0
C513 C 0.65409 0.60786 0.25503 0.0
C514 C 0.72525 0.63015 0.24092 0.0
C515 C 0.67039 0.70363 0.26515 0.0
C516 C 0.64259 0.67963 0.26576 0.0
C517 C 0.71534 0.70349 0.25465 0.0
C518 C 0.73333 0.67931 0.24584 0.0
Eu519 Eu 0.55745 0.63743 0.27619 0.0
N520 N 0.59898 0.67917 0.27572 0.0
C521 C 0.65277 0.72679 0.27571 0.0
C522 C 0.58264 0.70118 0.28703 0.0
C523 C 0.609 0.72544 0.28698 0.0
H524 H 0.63563 0.58924 0.25922 0.0
H525 H 0.59558 0.74304 0.2956 0.0
H526 H 0.35615 0.65742 0.26682 0.0
H527 H 0.45925 0.53082 0.19902 0.0
H528 H 0.54891 0.69998 0.29581 0.0
H529 H 0.67314 0.74559 0.27569 0.0
H530 H 0.47601 0.57971 0.20231 0.0
H531 H 0.71418 0.58682 0.24074 0.0
H532 H 0.73702 0.7218 0.25378 0.0
H533 H 0.76865 0.67934 0.23834 0.0
H534 H 0.28465 0.641 0.2873 0.0
H535 H 0.76052 0.62889 0.23345 0.0
H536 H 0.39503 0.50964 0.22152 0.0
N537 N 0.37386 0.61835 0.25467 0.0
C538 C 0.36088 0.59182 0.25286 0.0
C539 C 0.30597 0.62694 0.2778 0.0
C540 C 0.32072 0.58152 0.26436 0.0
C541 C 0.34643 0.63617 0.26629 0.0
C542 C 0.29333 0.59944 0.27702 0.0
N543 N 0.42638 0.58571 0.22848 0.0
C544 C 0.44998 0.57052 0.21318 0.0
C545 C 0.37634 0.54719 0.23779 0.0
C546 C 0.38854 0.57492 0.23977 0.0
C547 C 0.40321 0.53103 0.22349 0.0
C548 C 0.43963 0.54287 0.21084 0.0
H549 H 0.26217 0.59231 0.28609 0.0
H550 H 0.27894 0.5454 0.27182 0.0
H551 H 0.32758 0.51534 0.24855 0.0
O552 O 0.40677 0.62721 0.20292 0.0
O553 O 0.44095 0.61563 0.27022 0.0
O554 O 0.51593 0.59806 0.27425 0.0
O555 O 0.39781 0.66489 0.22143 0.0
O556 O 0.51415 0.61663 0.22195 0.0
O557 O 0.55291 0.60097 0.25319 0.0
O558 O 0.54307 0.64139 0.31138 0.0
O559 O 0.54361 0.6725 0.25218 0.0
O560 O 0.51132 0.65135 0.22193 0.0
O561 O 0.60959 0.62349 0.30077 0.0
O562 O 0.48686 0.65583 0.28701 0.0
O563 O 0.44563 0.67054 0.25603 0.0
C564 C 0.46953 0.5965 0.27755 0.0
C565 C 0.35546 0.66192 0.18634 0.0
C566 C 0.3276 0.66292 0.14803 0.0
C567 C 0.29193 0.68159 0.1541 0.0
C568 C 0.31991 0.68084 0.19186 0.0
C569 C 0.2883 0.69051 0.17583 0.0
C570 C 0.35941 0.65309 0.16432 0.0
C571 C 0.54574 0.60071 0.23172 0.0
C572 C 0.38718 0.65111 0.2038 0.0
C573 C 0.30936 0.55377 0.26292 0.0
C574 C 0.33717 0.53664 0.24972 0.0
C575 C 0.53596 0.6713 0.23081 0.0
C576 C 0.57747 0.60888 0.33493 0.0
C577 C 0.5859 0.59604 0.37372 0.0
C578 C 0.56501 0.57066 0.36887 0.0
C579 C 0.55703 0.58345 0.33043 0.0
C580 C 0.59177 0.61512 0.35652 0.0
C581 C 0.55069 0.56448 0.34737 0.0
C582 C 0.45764 0.67286 0.27699 0.0
C583 C 0.58254 0.62953 0.31752 0.0
H584 H 0.26732 0.68971 0.14192 0.0
H585 H 0.31609 0.68787 0.20866 0.0
H586 H 0.26085 0.70501 0.18026 0.0
H587 H 0.38687 0.63855 0.15989 0.0
H588 H 0.56046 0.55538 0.3816 0.0
H589 H 0.54595 0.57834 0.31387 0.0
H590 H 0.60685 0.635 0.35994 0.0
H591 H 0.5348 0.54487 0.34381 0.0
H592 H 0.10677 0.98293 0.38034 0.0
H593 H 0.21741 0.96901 0.33178 0.0
H594 H 0.07344 0.01889 0.3572 0.0
H595 H 0.18376 0.00475 0.30861 0.0
H596 H 0.07783 0.05281 0.26424 0.0
H597 H 0.11186 0.01592 0.28637 0.0
H598 H 0.09745 0.06479 0.34493 0.0
H599 H 0.0636 0.10153 0.32286 0.0
C600 C 0.12404 0.98755 0.36477 0.0
C601 C 0.1648 0.97306 0.35796 0.0
C602 C 0.10495 0.00816 0.35151 0.0
C603 C 0.12611 0.01475 0.33112 0.0
C604 C 0.1663 0.99995 0.32411 0.0
C605 C 0.18549 0.9794 0.33739 0.0
C606 C 0.08242 0.05571 0.28181 0.0
C607 C 0.0677 0.07993 0.29186 0.0
C608 C 0.10185 0.03461 0.29447 0.0
C609 C 0.10683 0.03733 0.31744 0.0
C610 C 0.09315 0.06185 0.32735 0.0
C611 C 0.074 0.08293 0.3147 0.0
H612 H 0.43891 0.52611 0.87725 0.0
H613 H 0.32174 0.54906 0.8344 0.0
H614 H 0.45335 0.48623 0.85489 0.0
H615 H 0.33468 0.50818 0.81254 0.0
H616 H 0.4144 0.45012 0.76435 0.0
H617 H 0.39128 0.48914 0.78669 0.0
H618 H 0.42103 0.44304 0.8459 0.0
H619 H 0.44536 0.40458 0.82367 0.0
C620 C 0.41602 0.52259 0.8631 0.0
C621 C 0.37933 0.54097 0.85759 0.0
C622 C 0.42389 0.49945 0.8504 0.0
C623 C 0.39508 0.49383 0.8319 0.0
C624 C 0.35786 0.51197 0.82655 0.0
C625 C 0.35005 0.53524 0.83926 0.0
C626 C 0.41538 0.44825 0.78214 0.0
C627 C 0.43215 0.42434 0.79222 0.0
C628 C 0.40202 0.47061 0.79497 0.0
C629 C 0.40486 0.46942 0.81814 0.0
C630 C 0.4195 0.44498 0.82813 0.0
C631 C 0.43317 0.42282 0.81535 0.0
H632 H 0.6323 0.50663 0.6259 0.0
H633 H 0.70225 0.53903 0.68369 0.0
H634 H 0.59287 0.47218 0.64861 0.0
H635 H 0.66321 0.50438 0.70643 0.0
H636 H 0.54665 0.4553 0.74275 0.0
H637 H 0.58524 0.49055 0.72045 0.0
H638 H 0.61229 0.43167 0.66935 0.0
H639 H 0.57354 0.39655 0.69172 0.0
C640 C 0.63946 0.50628 0.64345 0.0
C641 C 0.67047 0.52552 0.65299 0.0
C642 C 0.61696 0.4865 0.65647 0.0
C643 C 0.62504 0.48542 0.67934 0.0
C644 C 0.65568 0.50486 0.68892 0.0
C645 C 0.67806 0.52472 0.67589 0.0
C646 C 0.56132 0.44991 0.72685 0.0
C647 C 0.55753 0.4232 0.71903 0.0
C648 C 0.58339 0.47007 0.71406 0.0
C649 C 0.60186 0.46396 0.69309 0.0
C650 C 0.59782 0.43718 0.68527 0.0
C651 C 0.57574 0.41704 0.69808 0.0
H652 H 0.79645 0.97089 0.17353 0.0
H653 H 0.93218 0.97253 0.13908 0.0
H654 H 0.82314 0.00912 0.19632 0.0
H655 H 0.95858 0.01064 0.16171 0.0
H656 H 0.00904 0.05226 0.22548 0.0
H657 H 0.97858 0.01553 0.20249 0.0
H658 H 0.84705 0.05989 0.19191 0.0
H659 H 0.87852 0.09734 0.21417 0.0
C660 C 0.83181 0.97951 0.17076 0.0
C661 C 0.86217 0.96873 0.15448 0.0
C662 C 0.84694 0.00145 0.1837 0.0
C663 C 0.89302 0.01272 0.18085 0.0
C664 C 0.92305 0.00218 0.1644 0.0
C665 C 0.90773 0.98054 0.1513 0.0
C666 C 0.97375 0.05431 0.21814 0.0
C667 C 0.94619 0.07775 0.22163 0.0
C668 C 0.9563 0.03325 0.205 0.0
C669 C 0.91054 0.03491 0.19532 0.0
C670 C 0.88234 0.058 0.19927 0.0
C671 C 0.90023 0.07935 0.21212 0.0
H672 H 0.85286 0.01933 0.63431 0.0
H673 H 0.8954 0.06748 0.69041 0.0
H674 H 0.86584 0.97791 0.65578 0.0
H675 H 0.90998 0.02617 0.71158 0.0
H676 H 0.90131 0.94699 0.74973 0.0
H677 H 0.87318 0.98655 0.72904 0.0
H678 H 0.93591 0.95409 0.66968 0.0
H679 H 0.96311 0.91451 0.69008 0.0
C680 C 0.86446 0.02109 0.65129 0.0
C681 C 0.87351 0.04672 0.66057 0.0
C682 C 0.87236 0.99735 0.66353 0.0
C683 C 0.88931 0.99869 0.68537 0.0
C684 C 0.89658 0.02435 0.69489 0.0
C685 C 0.88878 0.04806 0.68265 0.0
C686 C 0.90862 0.94814 0.73221 0.0
C687 C 0.93475 0.92759 0.72164 0.0
C688 C 0.89272 0.9709 0.72038 0.0
C689 C 0.9024 0.97355 0.6977 0.0
C690 C 0.92725 0.95259 0.68704 0.0
C691 C 0.9432 0.92993 0.69884 0.0
H692 H 0.72741 0.47193 0.18067 0.0
H693 H 0.63061 0.49081 0.12711 0.0
H694 H 0.68921 0.50638 0.20326 0.0
H695 H 0.59079 0.52437 0.15011 0.0
H696 H 0.56735 0.60329 0.18796 0.0
H697 H 0.60573 0.56858 0.16549 0.0
H698 H 0.61636 0.51627 0.2227 0.0
H699 H 0.57881 0.55122 0.24516 0.0
C700 C 0.69787 0.48338 0.17372 0.0
C701 C 0.68233 0.4787 0.15199 0.0
C702 C 0.67556 0.50293 0.18678 0.0
C703 C 0.63698 0.51825 0.1785 0.0
C704 C 0.62086 0.51323 0.15691 0.0
C705 C 0.64327 0.49371 0.14381 0.0
C706 C 0.57805 0.58438 0.1957 0.0
C707 C 0.5704 0.58001 0.21831 0.0
C708 C 0.59974 0.56441 0.18282 0.0
C709 C 0.61405 0.53956 0.19225 0.0
C710 C 0.60647 0.5353 0.21494 0.0
C711 C 0.58495 0.55532 0.22782 0.0
H712 H 0.38586 0.43602 0.32406 0.0
H713 H 0.36854 0.48783 0.38077 0.0
H714 H 0.40594 0.4755 0.3015 0.0
H715 H 0.38818 0.52749 0.35798 0.0
H716 H 0.39027 0.59475 0.30422 0.0
H717 H 0.36021 0.55575 0.32554 0.0
H718 H 0.47605 0.50676 0.30031 0.0
H719 H 0.50536 0.54543 0.2789 0.0
C720 C 0.38636 0.45584 0.33174 0.0
C721 C 0.37628 0.45866 0.35434 0.0
C722 C 0.39775 0.47847 0.31877 0.0
C723 C 0.39912 0.50458 0.328 0.0
C724 C 0.38709 0.50764 0.35036 0.0
C725 C 0.37584 0.48492 0.36341 0.0
C726 C 0.40886 0.57552 0.30312 0.0
C727 C 0.45003 0.57303 0.28992 0.0
C728 C 0.39194 0.55331 0.31543 0.0
C729 C 0.41572 0.52817 0.31459 0.0
C730 C 0.45656 0.52573 0.30112 0.0
C731 C 0.47358 0.54792 0.28899 0.0
H732 H 0.20836 0.03825 0.82658 0.0
H733 H 0.14058 0.00654 0.88542 0.0
H734 H 0.16783 0.00373 0.80467 0.0
H735 H 0.09819 0.97287 0.86336 0.0
H736 H 0.07549 0.89685 0.82119 0.0
H737 H 0.11467 0.93195 0.84319 0.0
H738 H 0.09021 0.99037 0.791 0.0
H739 H 0.05137 0.95516 0.76908 0.0
C740 C 0.18463 0.024 0.83484 0.0
C741 C 0.17797 0.02513 0.85781 0.0
C742 C 0.16093 0.00438 0.82223 0.0
C743 C 0.1298 0.98543 0.83224 0.0
C744 C 0.12242 0.98689 0.85514 0.0
C745 C 0.14622 0.00647 0.86776 0.0
C746 C 0.07835 0.91725 0.81451 0.0
C747 C 0.06093 0.92325 0.79334 0.0
C748 C 0.10065 0.93739 0.82712 0.0
C749 C 0.10567 0.96404 0.81889 0.0
C750 C 0.08772 0.97001 0.79774 0.0
C751 C 0.06552 0.94984 0.78514 0.0
H752 H 0.14009 0.1276 0.99797 0.0
H753 H 0.27539 0.1 0.02451 0.0
H754 H 0.10662 0.12902 0.03529 0.0
H755 H 0.24191 0.1009 0.06158 0.0
H756 H 0.18074 0.12485 0.12762 0.0
H757 H 0.21208 0.13145 0.09036 0.0
H758 H 0.08361 0.09487 0.06352 0.0
H759 H 0.05182 0.08886 0.10072 0.0
C760 C 0.1628 0.12213 0.01178 0.0
C761 C 0.21025 0.11349 0.00829 0.0
C762 C 0.14355 0.12272 0.03312 0.0
C763 C 0.17154 0.11498 0.05142 0.0
C764 C 0.21947 0.10723 0.04792 0.0
C765 C 0.23852 0.10644 0.02663 0.0
C766 C 0.15885 0.11863 0.11375 0.0
C767 C 0.11392 0.10615 0.11715 0.0
C768 C 0.17698 0.1222 0.09241 0.0
C769 C 0.15048 0.11354 0.07396 0.0
C770 C 0.10481 0.10195 0.07734 0.0
C771 C 0.08682 0.09823 0.09868 0.0
H772 H 0.38608 0.34297 0.51624 0.0
H773 H 0.2824 0.40723 0.50785 0.0
H774 H 0.38804 0.35149 0.55584 0.0
H775 H 0.28336 0.41524 0.54751 0.0
H776 H 0.34107 0.44414 0.61376 0.0
H777 H 0.33938 0.43387 0.5746 0.0
H778 H 0.3393 0.34805 0.58965 0.0
H779 H 0.34064 0.35837 0.62908 0.0
C780 C 0.3636 0.35889 0.52285 0.0
C781 C 0.33431 0.37455 0.50881 0.0
C782 C 0.36439 0.36358 0.54559 0.0
C783 C 0.3361 0.38416 0.55488 0.0
C784 C 0.30613 0.39947 0.54088 0.0
C785 C 0.30516 0.39469 0.51816 0.0
C786 C 0.34034 0.42304 0.60878 0.0
C787 C 0.3404 0.40208 0.62464 0.0
C788 C 0.3393 0.41716 0.58628 0.0
C789 C 0.33855 0.39014 0.57894 0.0
C790 C 0.34006 0.3691 0.59473 0.0
C791 C 0.34095 0.37501 0.61734 0.0
H792 H 0.68323 0.4133 0.99434 0.0
H793 H 0.69364 0.32804 0.01097 0.0
H794 H 0.65399 0.40141 0.95775 0.0
H795 H 0.66302 0.3163 0.97453 0.0
H796 H 0.56397 0.30868 0.91337 0.0
H797 H 0.58855 0.32064 0.95073 0.0
H798 H 0.68991 0.37887 0.92441 0.0
H799 H 0.66672 0.36643 0.88709 0.0
C800 C 0.67936 0.39202 0.99025 0.0
C801 C 0.69132 0.37165 0.00565 0.0
C802 C 0.66244 0.38524 0.96927 0.0
C803 C 0.65649 0.35792 0.96322 0.0
C804 C 0.66685 0.33754 0.97878 0.0
C805 C 0.68426 0.34431 0.99972 0.0
C806 C 0.59188 0.32383 0.91548 0.0
C807 C 0.61329 0.33655 0.89708 0.0
C808 C 0.60579 0.33074 0.93692 0.0
C809 C 0.64103 0.35075 0.9405 0.0
C810 C 0.66212 0.36366 0.92218 0.0
C811 C 0.64864 0.35656 0.90076 0.0
H812 H 0.91657 0.12186 0.50645 0.0
H813 H 0.7855 0.16779 0.49911 0.0
H814 H 0.93165 0.12628 0.46717 0.0
H815 H 0.80198 0.17337 0.45984 0.0
H816 H 0.97836 0.17416 0.40581 0.0
H817 H 0.95704 0.16271 0.44356 0.0
H818 H 0.80902 0.15168 0.42395 0.0
H819 H 0.83028 0.16419 0.38607 0.0
C820 C 0.89049 0.13257 0.49645 0.0
C821 C 0.84984 0.14456 0.5061 0.0
C822 C 0.89956 0.13543 0.4739 0.0
C823 C 0.86842 0.1505 0.46033 0.0
C824 C 0.82667 0.16152 0.46975 0.0
C825 C 0.8175 0.15859 0.49235 0.0
C826 C 0.9412 0.16937 0.40952 0.0
C827 C 0.90596 0.17038 0.39293 0.0
C828 C 0.92904 0.16244 0.43116 0.0
C829 C 0.88126 0.15622 0.43687 0.0
C830 C 0.84608 0.1566 0.42019 0.0
C831 C 0.85833 0.16351 0.39844 0.0
H832 H 0.89243 0.90181 1.00327 0.0
H833 H 0.76613 0.85087 0.99844 0.0
H834 H 0.89425 0.90644 0.96332 0.0
H835 H 0.7678 0.85573 0.95835 0.0
H836 H 0.75631 0.89989 0.89065 0.0
H837 H 0.75497 0.89052 0.93014 0.0
H838 H 0.90907 0.88053 0.92965 0.0
H839 H 0.91047 0.89061 0.89013 0.0
C840 C 0.86528 0.89135 0.99369 0.0
C841 C 0.8292 0.87588 0.00416 0.0
C842 C 0.86641 0.89398 0.97073 0.0
C843 C 0.83137 0.88133 0.95757 0.0
C844 C 0.7951 0.86596 0.968 0.0
C845 C 0.79405 0.86325 0.991 0.0
C846 C 0.7899 0.89558 0.89895 0.0
C847 C 0.83356 0.89623 0.88727 0.0
C848 C 0.78908 0.88998 0.92157 0.0
C849 C 0.83194 0.88498 0.93314 0.0
C850 C 0.87546 0.88468 0.92131 0.0
C851 C 0.87624 0.89014 0.89862 0.0
H852 H 0.75846 0.61135 0.49159 0.0
H853 H 0.61628 0.63128 0.51482 0.0
H854 H 0.72771 0.60711 0.45428 0.0
H855 H 0.58534 0.62709 0.47726 0.0
H856 H 0.54101 0.58364 0.41282 0.0
H857 H 0.5699 0.59201 0.45013 0.0
H858 H 0.69553 0.63231 0.42364 0.0
H859 H 0.66771 0.6229 0.38638 0.0
C860 C 0.72075 0.61537 0.48868 0.0
C861 C 0.68991 0.62176 0.50624 0.0
C862 C 0.70306 0.61289 0.46723 0.0
C863 C 0.65401 0.61676 0.46271 0.0
C864 C 0.6232 0.6236 0.4802 0.0
C865 C 0.64094 0.62605 0.50172 0.0
C866 C 0.57494 0.59414 0.41495 0.0
C867 C 0.60215 0.60243 0.39655 0.0
C868 C 0.59122 0.59926 0.43637 0.0
C869 C 0.63514 0.61279 0.43994 0.0
C870 C 0.66184 0.62154 0.42153 0.0
C871 C 0.6456 0.61641 0.40013 0.0
H872 H 0.38045 0.67962 0.0097 0.0
H873 H 0.29373 0.60673 0.0113 0.0
H874 H 0.3814 0.68051 0.04989 0.0
H875 H 0.29503 0.60749 0.05171 0.0
H876 H 0.2561 0.64539 0.12069 0.0
H877 H 0.26052 0.63768 0.08099 0.0
H878 H 0.41284 0.65455 0.08246 0.0
H879 H 0.40828 0.66235 0.12227 0.0
C880 C 0.36153 0.66379 0.01866 0.0
C881 C 0.33661 0.64325 0.00729 0.0
C882 C 0.36258 0.66411 0.0417 0.0
C883 C 0.3384 0.64404 0.05401 0.0
C884 C 0.31383 0.62331 0.04268 0.0
C885 C 0.31326 0.62281 0.01957 0.0
C886 C 0.29063 0.64712 0.11256 0.0
C887 C 0.3318 0.65464 0.12456 0.0
C888 C 0.29322 0.64254 0.08985 0.0
C889 C 0.33695 0.6457 0.07853 0.0
C890 C 0.37851 0.65223 0.09068 0.0
C891 C 0.37602 0.65647 0.11348 0.0
H892 H 0.12336 0.88306 0.49998 0.0
H893 H 0.25487 0.84156 0.5171 0.0
H894 H 0.09176 0.87353 0.53678 0.0
H895 H 0.22368 0.83279 0.55394 0.0
H896 H 0.17358 0.85048 0.62463 0.0
H897 H 0.20275 0.85999 0.58738 0.0
H898 H 0.0665 0.83392 0.56061 0.0
H899 H 0.03714 0.82466 0.59791 0.0
C900 C 0.1454 0.87169 0.51145 0.0
C901 C 0.19188 0.86326 0.50549 0.0
C902 C 0.12731 0.86634 0.53259 0.0
C903 C 0.1554 0.85263 0.54834 0.0
C904 C 0.2015 0.84385 0.54232 0.0
C905 C 0.21939 0.84895 0.52116 0.0
C906 C 0.14974 0.84699 0.61081 0.0
C907 C 0.10311 0.83675 0.61422 0.0
C908 C 0.16658 0.8522 0.58946 0.0
C909 C 0.137 0.84758 0.57104 0.0
C910 C 0.09006 0.83781 0.57447 0.0
C911 C 0.07341 0.8323 0.59581 0.0
H912 H 0.14364 0.31643 0.351 0.0
H913 H 0.2304 0.24962 0.37422 0.0
H914 H 0.09624 0.28499 0.32871 0.0
H915 H 0.18349 0.21832 0.35188 0.0
H916 H 0.06523 0.1651 0.32412 0.0
H917 H 0.10594 0.19729 0.34822 0.0
H918 H 0.10389 0.25744 0.29611 0.0
H919 H 0.06082 0.22559 0.27248 0.0
C920 C 0.15259 0.29504 0.35136 0.0
C921 C 0.19077 0.28556 0.36447 0.0
C922 C 0.12551 0.27702 0.33852 0.0
C923 C 0.13604 0.24908 0.33843 0.0
C924 C 0.17377 0.2396 0.3518 0.0
C925 C 0.2007 0.25758 0.36467 0.0
C926 C 0.07325 0.18525 0.31786 0.0
C927 C 0.06072 0.19265 0.29622 0.0
C928 C 0.09694 0.20366 0.33163 0.0
C929 C 0.10871 0.22993 0.32409 0.0
C930 C 0.09517 0.23748 0.30256 0.0
C931 C 0.07118 0.21909 0.28886 0.0
H932 H 0.31209 0.22963 0.87673 0.0
H933 H 0.39948 0.17259 0.84113 0.0
H934 H 0.34139 0.26647 0.85305 0.0
H935 H 0.42689 0.20877 0.81668 0.0
H936 H 0.50942 0.28158 0.79203 0.0
H937 H 0.47794 0.24588 0.81571 0.0
H938 H 0.34109 0.2871 0.8183 0.0
H939 H 0.3746 0.32413 0.79638 0.0
C940 C 0.33704 0.22499 0.86359 0.0
C941 C 0.35394 0.19841 0.86086 0.0
C942 C 0.35372 0.24603 0.84991 0.0
C943 C 0.38703 0.2408 0.83296 0.0
C944 C 0.40243 0.21388 0.82987 0.0
C945 C 0.38646 0.19303 0.84377 0.0
C946 C 0.47279 0.2832 0.79787 0.0
C947 C 0.4444 0.30566 0.79215 0.0
C948 C 0.45435 0.26244 0.81121 0.0
C949 C 0.40659 0.26325 0.81885 0.0
C950 C 0.37813 0.28574 0.813 0.0
C951 C 0.39702 0.30681 0.80003 0.0
H952 H 0.67035 0.22943 0.63128 0.0
H953 H 0.75908 0.21649 0.68879 0.0
H954 H 0.61737 0.25843 0.65285 0.0
H955 H 0.70746 0.24632 0.71004 0.0
H956 H 0.58147 0.28207 0.74767 0.0
H957 H 0.62873 0.24993 0.7262 0.0
H958 H 0.61891 0.303 0.66944 0.0
H959 H 0.57118 0.33484 0.69084 0.0
C960 C 0.67842 0.23263 0.64854 0.0
C961 C 0.71917 0.22074 0.65824 0.0
C962 C 0.64836 0.24952 0.66085 0.0
C963 C 0.65825 0.25487 0.68317 0.0
C964 C 0.69844 0.24249 0.69297 0.0
C965 C 0.72843 0.22564 0.68068 0.0
C966 C 0.58947 0.28682 0.7306 0.0
C967 C 0.57272 0.31097 0.72094 0.0
C968 C 0.61663 0.26846 0.7183 0.0
C969 C 0.62771 0.27385 0.69607 0.0
C970 C 0.61047 0.29795 0.6864 0.0
C971 C 0.58327 0.31627 0.69869 0.0
H972 H 0.89053 0.2826 0.12637 0.0
H973 H 0.79647 0.31213 0.17753 0.0
H974 H 0.918 0.24683 0.15073 0.0
H975 H 0.82127 0.27484 0.20144 0.0
H976 H 0.92 0.22415 0.24683 0.0
H977 H 0.88616 0.25948 0.22312 0.0
H978 H 0.8974 0.20576 0.16716 0.0
H979 H 0.93332 0.17129 0.19064 0.0
C980 C 0.87543 0.28142 0.1428 0.0
C981 C 0.84154 0.30055 0.14997 0.0
C982 C 0.89065 0.2605 0.15672 0.0
C983 C 0.87185 0.25773 0.17815 0.0
C984 C 0.83709 0.27648 0.18518 0.0
C985 C 0.82227 0.29767 0.17131 0.0
C986 C 0.91487 0.21994 0.22948 0.0
C987 C 0.92978 0.19513 0.22053 0.0
C988 C 0.89525 0.24012 0.21587 0.0
C989 C 0.88944 0.2357 0.19308 0.0
C990 C 0.90252 0.2103 0.18445 0.0
C991 C 0.92286 0.19041 0.19795 0.0
H992 H 0.86053 0.67634 0.68247 0.0
H993 H 0.8272 0.7345 0.6312 0.0
H994 H 0.89107 0.71287 0.70558 0.0
H995 H 0.85746 0.77116 0.65451 0.0
H996 H 0.99751 0.77927 0.72707 0.0
H997 H 0.96136 0.7434 0.70486 0.0
H998 H 0.84207 0.79602 0.68938 0.0
H999 H 0.87917 0.83221 0.71113 0.0
C1000 C 0.85982 0.69692 0.67609 0.0
C1001 C 0.84191 0.70242 0.65485 0.0
C1002 C 0.87729 0.71786 0.68936 0.0
C1003 C 0.87713 0.74488 0.6818 0.0
C1004 C 0.85775 0.75057 0.66088 0.0
C1005 C 0.84036 0.72956 0.64753 0.0
C1006 C 0.9636 0.78316 0.71889 0.0
C1007 C 0.94098 0.80845 0.72091 0.0
C1008 C 0.94267 0.76256 0.70633 0.0
C1009 C 0.8987 0.76681 0.69543 0.0
C1010 C 0.8761 0.79217 0.69745 0.0
C1011 C 0.89705 0.81278 0.71008 0.0
H1012 H 0.6604 0.81764 0.17042 0.0
H1013 H 0.69702 0.75166 0.12692 0.0
H1014 H 0.61137 0.78677 0.19242 0.0
H1015 H 0.65098 0.72046 0.14974 0.0
H1016 H 0.53908 0.67158 0.18568 0.0
H1017 H 0.57589 0.70525 0.16151 0.0
H1018 H 0.61951 0.7519 0.21838 0.0
H1019 H 0.57904 0.71939 0.24222 0.0
C1020 C 0.65773 0.79661 0.1654 0.0
C1021 C 0.68312 0.7872 0.14691 0.0
C1022 C 0.63015 0.77873 0.17828 0.0
C1023 C 0.62749 0.75089 0.17314 0.0
C1024 C 0.65163 0.74171 0.15422 0.0
C1025 C 0.67875 0.75962 0.14124 0.0
C1026 C 0.55619 0.68914 0.19304 0.0
C1027 C 0.5572 0.69235 0.21606 0.0
C1028 C 0.57777 0.7084 0.17913 0.0
C1029 C 0.60145 0.73129 0.18786 0.0
C1030 C 0.60141 0.73476 0.21089 0.0
C1031 C 0.57905 0.71574 0.22472 0.0
H1032 H 0.27762 0.79505 0.34181 0.0
H1033 H 0.41783 0.80039 0.37206 0.0
H1034 H 0.30642 0.75846 0.31804 0.0
H1035 H 0.44681 0.76468 0.348 0.0
H1036 H 0.46832 0.6806 0.32117 0.0
H1037 H 0.43482 0.71614 0.3438 0.0
H1038 H 0.36327 0.75008 0.28688 0.0
H1039 H 0.39652 0.71389 0.26393 0.0
C1040 C 0.31448 0.78837 0.34343 0.0
C1041 C 0.34542 0.8006 0.35885 0.0
C1042 C 0.33111 0.76765 0.32965 0.0
C1043 C 0.37887 0.75862 0.33116 0.0
C1044 C 0.40966 0.77091 0.34658 0.0
C1045 C 0.39316 0.79159 0.36024 0.0
C1046 C 0.44543 0.69552 0.31333 0.0
C1047 C 0.43547 0.69442 0.29061 0.0
C1048 C 0.42636 0.71604 0.32637 0.0
C1049 C 0.3968 0.73613 0.31713 0.0
C1050 C 0.38579 0.7348 0.29451 0.0
C1051 C 0.40503 0.71416 0.28135 0.0
H1052 H 0.17227 0.72949 0.8814 0.0
H1053 H 0.25223 0.71067 0.82242 0.0
H1054 H 0.12012 0.75929 0.86001 0.0
H1055 H 0.20188 0.74155 0.80132 0.0
H1056 H 0.07729 0.78115 0.76506 0.0
H1057 H 0.12352 0.74818 0.78642 0.0
H1058 H 0.12282 0.80261 0.84212 0.0
H1059 H 0.07574 0.83515 0.82087 0.0
C1060 C 0.17862 0.73156 0.86386 0.0
C1061 C 0.21674 0.71772 0.85371 0.0
C1062 C 0.14907 0.74897 0.85162 0.0
C1063 C 0.1569 0.75306 0.82892 0.0
C1064 C 0.19439 0.73878 0.8187 0.0
C1065 C 0.22377 0.7213 0.83091 0.0
C1066 C 0.0871 0.78601 0.78187 0.0
C1067 C 0.07305 0.81074 0.79128 0.0
C1068 C 0.11372 0.76717 0.79412 0.0
C1069 C 0.12706 0.77267 0.81605 0.0
C1070 C 0.11259 0.79741 0.82544 0.0
C1071 C 0.0858 0.81616 0.81323 0.0
loop_
_geom_bond_atom_site_label_1
_geom_bond_atom_site_label_2
_geom_bond_distance
_geom_bond_site_symmetry_2
_ccdc_geom_bond_type
P0 O11 1.490 . S
P0 C14 1.812 . S
P0 C20 1.803 . S
P0 C26 1.819 . S
H1 C15 0.941 . S
H2 C16 0.939 . S
H3 C18 0.940 . S
H4 C19 0.940 . S
H5 C21 0.939 . S
H6 C22 0.942 . S
H7 C24 0.940 . S
H8 C25 0.939 . S
H9 C27 0.941 . S
H10 C31 0.939 . S
O11 P0 1.490 . S
H12 C28 0.939 . S
H13 C30 0.940 . S
C14 P0 1.812 . S
C14 C15 1.389 . S
C14 C19 1.391 . S
C15 H1 0.941 . S
C15 C14 1.389 . S
C15 C16 1.397 . S
C16 H2 0.939 . S
C16 C15 1.397 . S
C16 C17 1.378 . S
C17 C16 1.378 . S
C17 C18 1.378 . S
C18 H3 0.940 . S
C18 C17 1.378 . S
C18 C19 1.396 . S
C19 H4 0.940 . S
C19 C14 1.391 . S
C19 C18 1.396 . S
C20 P0 1.803 . S
C20 C21 1.378 . S
C20 C25 1.400 . S
C21 H5 0.939 . S
C21 C20 1.378 . S
C21 C22 1.361 . S
C22 H6 0.942 . S
C22 C21 1.361 . S
C22 C23 1.369 . S
C23 C22 1.369 . S
C23 C24 1.404 . S
C24 H7 0.940 . S
C24 C23 1.404 . S
C24 C25 1.389 . S
C25 H8 0.939 . S
C25 C20 1.400 . S
C25 C24 1.389 . S
C26 P0 1.819 . S
C26 C27 1.391 . S
C26 C31 1.391 . S
C27 H9 0.941 . S
C27 C26 1.391 . S
C27 C28 1.396 . S
C28 H12 0.939 . S
C28 C27 1.396 . S
C28 C29 1.397 . S
C29 C28 1.397 . S
C29 C30 1.385 . S
C30 H13 0.940 . S
C30 C29 1.385 . S
C30 C31 1.388 . S
C31 H10 0.939 . S
C31 C26 1.391 . S
C31 C30 1.388 . S
P32 O43 1.490 . S
P32 C46 1.812 . S
P32 C52 1.803 . S
P32 C58 1.819 . S
H33 C47 0.941 . S
H34 C48 0.939 . S
H35 C50 0.940 . S
H36 C51 0.940 . S
H37 C53 0.939 . S
H38 C54 0.942 . S
H39 C56 0.940 . S
H40 C57 0.939 . S
H41 C59 0.941 . S
H42 C63 0.939 . S
O43 P32 1.490 . S
H44 C60 0.939 . S
H45 C62 0.940 . S
C46 P32 1.812 . S
C46 C47 1.389 . S
C46 C51 1.391 . S
C47 H33 0.941 . S
C47 C46 1.389 . S
C47 C48 1.397 . S
C48 H34 0.939 . S
C48 C47 1.397 . S
C48 C49 1.378 . S
C49 C48 1.378 . S
C49 C50 1.378 . S
C50 H35 0.940 . S
C50 C49 1.378 . S
C50 C51 1.396 . S
C51 H36 0.940 . S
C51 C46 1.391 . S
C51 C50 1.396 . S
C52 P32 1.803 . S
C52 C53 1.378 . S
C52 C57 1.400 . S
C53 H37 0.939 . S
C53 C52 1.378 . S
C53 C54 1.361 . S
C54 H38 0.942 . S
C54 C53 1.361 . S
C54 C55 1.369 . S
C55 C54 1.369 . S
C55 C56 1.404 . S
C56 H39 0.940 . S
C56 C55 1.404 . S
C56 C57 1.389 . S
C57 H40 0.939 . S
C57 C52 1.400 . S
C57 C56 1.389 . S
C58 P32 1.819 . S
C58 C59 1.391 . S
C58 C63 1.391 . S
C59 H41 0.941 . S
C59 C58 1.391 . S
C59 C60 1.396 . S
C60 H44 0.939 . S
C60 C59 1.396 . S
C60 C61 1.397 . S
C61 C60 1.397 . S
C61 C62 1.385 . S
C62 H45 0.940 . S
C62 C61 1.385 . S
C62 C63 1.388 . S
C63 H42 0.939 . S
C63 C58 1.391 . S
C63 C62 1.388 . S
P64 O75 1.490 . S
P64 C78 1.812 . S
P64 C84 1.803 . S
P64 C90 1.819 . S
H65 C79 0.941 . S
H66 C80 0.939 . S
H67 C82 0.940 . S
H68 C83 0.940 . S
H69 C85 0.939 . S
H70 C86 0.942 . S
H71 C88 0.940 . S
H72 C89 0.939 . S
H73 C91 0.941 . S
H74 C95 0.939 . S
O75 P64 1.490 . S
H76 C92 0.939 . S
H77 C94 0.940 . S
C78 P64 1.812 . S
C78 C79 1.389 . S
C78 C83 1.391 . S
C79 H65 0.941 . S
C79 C78 1.389 . S
C79 C80 1.397 . S
C80 H66 0.939 . S
C80 C79 1.397 . S
C80 C81 1.378 . S
C81 C80 1.378 . S
C81 C82 1.378 . S
C82 H67 0.940 . S
C82 C81 1.378 . S
C82 C83 1.396 . S
C83 H68 0.940 . S
C83 C78 1.391 . S
C83 C82 1.396 . S
C84 P64 1.803 . S
C84 C85 1.378 . S
C84 C89 1.400 . S
C85 H69 0.939 . S
C85 C84 1.378 . S
C85 C86 1.361 . S
C86 H70 0.942 . S
C86 C85 1.361 . S
C86 C87 1.369 . S
C87 C86 1.369 . S
C87 C88 1.404 . S
C88 H71 0.940 . S
C88 C87 1.404 . S
C88 C89 1.389 . S
C89 H72 0.939 . S
C89 C84 1.400 . S
C89 C88 1.389 . S
C90 P64 1.819 . S
C90 C91 1.391 . S
C90 C95 1.391 . S
C91 H73 0.941 . S
C91 C90 1.391 . S
C91 C92 1.396 . S
C92 H76 0.939 . S
C92 C91 1.396 . S
C92 C93 1.397 . S
C93 C92 1.397 . S
C93 C94 1.385 . S
C94 H77 0.940 . S
C94 C93 1.385 . S
C94 C95 1.388 . S
C95 H74 0.939 . S
C95 C90 1.391 . S
C95 C94 1.388 . S
P96 O107 1.490 . S
P96 C110 1.812 . S
P96 C116 1.803 . S
P96 C122 1.819 . S
H97 C111 0.941 . S
H98 C112 0.939 . S
H99 C114 0.940 . S
H100 C115 0.940 . S
H101 C117 0.939 . S
H102 C118 0.942 . S
H103 C120 0.940 . S
H104 C121 0.939 . S
H105 C123 0.941 . S
H106 C127 0.939 . S
O107 P96 1.490 . S
H108 C124 0.939 . S
H109 C126 0.940 . S
C110 P96 1.812 . S
C110 C111 1.389 . S
C110 C115 1.391 . S
C111 H97 0.941 . S
C111 C110 1.389 . S
C111 C112 1.397 . S
C112 H98 0.939 . S
C112 C111 1.397 . S
C112 C113 1.378 . S
C113 C112 1.378 . S
C113 C114 1.378 . S
C114 H99 0.940 . S
C114 C113 1.378 . S
C114 C115 1.396 . S
C115 H100 0.940 . S
C115 C110 1.391 . S
C115 C114 1.396 . S
C116 P96 1.803 . S
C116 C117 1.378 . S
C116 C121 1.400 . S
C117 H101 0.939 . S
C117 C116 1.378 . S
C117 C118 1.361 . S
C118 H102 0.942 . S
C118 C117 1.361 . S
C118 C119 1.369 . S
C119 C118 1.369 . S
C119 C120 1.404 . S
C120 H103 0.940 . S
C120 C119 1.404 . S
C120 C121 1.389 . S
C121 H104 0.939 . S
C121 C116 1.400 . S
C121 C120 1.389 . S
C122 P96 1.819 . S
C122 C123 1.391 . S
C122 C127 1.391 . S
C123 H105 0.941 . S
C123 C122 1.391 . S
C123 C124 1.396 . S
C124 H108 0.939 . S
C124 C123 1.396 . S
C124 C125 1.397 . S
C125 C124 1.397 . S
C125 C126 1.385 . S
C126 H109 0.940 . S
C126 C125 1.385 . S
C126 C127 1.388 . S
C127 H106 0.939 . S
C127 C122 1.391 . S
C127 C126 1.388 . S
P128 O139 1.490 . S
P128 C142 1.812 . S
P128 C148 1.803 . S
P128 C154 1.819 . S
H129 C143 0.941 . S
H130 C144 0.939 . S
H131 C146 0.940 . S
H132 C147 0.940 . S
H133 C149 0.939 . S
H134 C150 0.942 . S
H135 C152 0.940 . S
H136 C153 0.939 . S
H137 C155 0.941 . S
H138 C159 0.939 . S
O139 P128 1.490 . S
H140 C156 0.939 . S
H141 C158 0.940 . S
C142 P128 1.812 . S
C142 C143 1.389 . S
C142 C147 1.391 . S
C143 H129 0.941 . S
C143 C142 1.389 . S
C143 C144 1.397 . S
C144 H130 0.939 . S
C144 C143 1.397 . S
C144 C145 1.378 . S
C145 C144 1.378 . S
C145 C146 1.378 . S
C146 H131 0.940 . S
C146 C145 1.378 . S
C146 C147 1.396 . S
C147 H132 0.940 . S
C147 C142 1.391 . S
C147 C146 1.396 . S
C148 P128 1.803 . S
C148 C149 1.378 . S
C148 C153 1.400 . S
C149 H133 0.939 . S
C149 C148 1.378 . S
C149 C150 1.361 . S
C150 H134 0.942 . S
C150 C149 1.361 . S
C150 C151 1.369 . S
C151 C150 1.369 . S
C151 C152 1.404 . S
C152 H135 0.940 . S
C152 C151 1.404 . S
C152 C153 1.389 . S
C153 H136 0.939 . S
C153 C148 1.400 . S
C153 C152 1.389 . S
C154 P128 1.819 . S
C154 C155 1.391 . S
C154 C159 1.391 . S
C155 H137 0.941 . S
C155 C154 1.391 . S
C155 C156 1.396 . S
C156 H140 0.939 . S
C156 C155 1.396 . S
C156 C157 1.397 . S
C157 C156 1.397 . S
C157 C158 1.385 . S
C158 H141 0.940 . S
C158 C157 1.385 . S
C158 C159 1.388 . S
C159 H138 0.939 . S
C159 C154 1.391 . S
C159 C158 1.388 . S
P160 O171 1.490 . S
P160 C174 1.812 . S
P160 C180 1.803 . S
P160 C186 1.819 . S
H161 C175 0.941 . S
H162 C176 0.939 . S
H163 C178 0.940 . S
H164 C179 0.940 . S
H165 C181 0.939 . S
H166 C182 0.942 . S
H167 C184 0.940 . S
H168 C185 0.939 . S
H169 C187 0.941 . S
H170 C191 0.939 . S
O171 P160 1.490 . S
H172 C188 0.939 . S
H173 C190 0.940 . S
C174 P160 1.812 . S
C174 C175 1.389 . S
C174 C179 1.391 . S
C175 H161 0.941 . S
C175 C174 1.389 . S
C175 C176 1.397 . S
C176 H162 0.939 . S
C176 C175 1.397 . S
C176 C177 1.378 . S
C177 C176 1.378 . S
C177 C178 1.378 . S
C178 H163 0.940 . S
C178 C177 1.378 . S
C178 C179 1.396 . S
C179 H164 0.940 . S
C179 C174 1.391 . S
C179 C178 1.396 . S
C180 P160 1.803 . S
C180 C181 1.378 . S
C180 C185 1.400 . S
C181 H165 0.939 . S
C181 C180 1.378 . S
C181 C182 1.361 . S
C182 H166 0.942 . S
C182 C181 1.361 . S
C182 C183 1.369 . S
C183 C182 1.369 . S
C183 C184 1.404 . S
C184 H167 0.940 . S
C184 C183 1.404 . S
C184 C185 1.389 . S
C185 H168 0.939 . S
C185 C180 1.400 . S
C185 C184 1.389 . S
C186 P160 1.819 . S
C186 C187 1.391 . S
C186 C191 1.391 . S
C187 H169 0.941 . S
C187 C186 1.391 . S
C187 C188 1.396 . S
C188 H172 0.939 . S
C188 C187 1.396 . S
C188 C189 1.397 . S
C189 C188 1.397 . S
C189 C190 1.385 . S
C190 H173 0.940 . S
C190 C189 1.385 . S
C190 C191 1.388 . S
C191 H170 0.939 . S
C191 C186 1.391 . S
C191 C190 1.388 . S
P192 O203 1.490 . S
P192 C206 1.812 . S
P192 C212 1.803 . S
P192 C218 1.819 . S
H193 C207 0.941 . S
H194 C208 0.939 . S
H195 C210 0.940 . S
H196 C211 0.940 . S
H197 C213 0.939 . S
H198 C214 0.942 . S
H199 C216 0.940 . S
H200 C217 0.939 . S
H201 C219 0.941 . S
H202 C223 0.939 . S
O203 P192 1.490 . S
H204 C220 0.939 . S
H205 C222 0.940 . S
C206 P192 1.812 . S
C206 C207 1.389 . S
C206 C211 1.391 . S
C207 H193 0.941 . S
C207 C206 1.389 . S
C207 C208 1.397 . S
C208 H194 0.939 . S
C208 C207 1.397 . S
C208 C209 1.378 . S
C209 C208 1.378 . S
C209 C210 1.378 . S
C210 H195 0.940 . S
C210 C209 1.378 . S
C210 C211 1.396 . S
C211 H196 0.940 . S
C211 C206 1.391 . S
C211 C210 1.396 . S
C212 P192 1.803 . S
C212 C213 1.378 . S
C212 C217 1.400 . S
C213 H197 0.939 . S
C213 C212 1.378 . S
C213 C214 1.361 . S
C214 H198 0.942 . S
C214 C213 1.361 . S
C214 C215 1.369 . S
C215 C214 1.369 . S
C215 C216 1.404 . S
C216 H199 0.940 . S
C216 C215 1.404 . S
C216 C217 1.389 . S
C217 H200 0.939 . S
C217 C212 1.400 . S
C217 C216 1.389 . S
C218 P192 1.819 . S
C218 C219 1.391 . S
C218 C223 1.391 . S
C219 H201 0.941 . S
C219 C218 1.391 . S
C219 C220 1.396 . S
C220 H204 0.939 . S
C220 C219 1.396 . S
C220 C221 1.397 . S
C221 C220 1.397 . S
C221 C222 1.385 . S
C222 H205 0.940 . S
C222 C221 1.385 . S
C222 C223 1.388 . S
C223 H202 0.939 . S
C223 C218 1.391 . S
C223 C222 1.388 . S
P224 O235 1.490 . S
P224 C238 1.812 . S
P224 C244 1.803 . S
P224 C250 1.819 . S
H225 C239 0.941 . S
H226 C240 0.939 . S
H227 C242 0.940 . S
H228 C243 0.940 . S
H229 C245 0.939 . S
H230 C246 0.942 . S
H231 C248 0.940 . S
H232 C249 0.939 . S
H233 C251 0.941 . S
H234 C255 0.939 . S
O235 P224 1.490 . S
H236 C252 0.939 . S
H237 C254 0.940 . S
C238 P224 1.812 . S
C238 C239 1.389 . S
C238 C243 1.391 . S
C239 H225 0.941 . S
C239 C238 1.389 . S
C239 C240 1.397 . S
C240 H226 0.939 . S
C240 C239 1.397 . S
C240 C241 1.378 . S
C241 C240 1.378 . S
C241 C242 1.378 . S
C242 H227 0.940 . S
C242 C241 1.378 . S
C242 C243 1.396 . S
C243 H228 0.940 . S
C243 C238 1.391 . S
C243 C242 1.396 . S
C244 P224 1.803 . S
C244 C245 1.378 . S
C244 C249 1.400 . S
C245 H229 0.939 . S
C245 C244 1.378 . S
C245 C246 1.361 . S
C246 H230 0.942 . S
C246 C245 1.361 . S
C246 C247 1.369 . S
C247 C246 1.369 . S
C247 C248 1.404 . S
C248 H231 0.940 . S
C248 C247 1.404 . S
C248 C249 1.389 . S
C249 H232 0.939 . S
C249 C244 1.400 . S
C249 C248 1.389 . S
C250 P224 1.819 . S
C250 C251 1.391 . S
C250 C255 1.391 . S
C251 H233 0.941 . S
C251 C250 1.391 . S
C251 C252 1.396 . S
C252 H236 0.939 . S
C252 C251 1.396 . S
C252 C253 1.397 . S
C253 C252 1.397 . S
C253 C254 1.385 . S
C254 H237 0.940 . S
C254 C253 1.385 . S
C254 C255 1.388 . S
C255 H234 0.939 . S
C255 C250 1.391 . S
C255 C254 1.388 . S
Eu256 N285 2.600 . S
Eu256 N291 2.562 . S
Eu256 O300 2.462 . S
Eu256 O301 2.373 . S
Eu256 O303 2.432 . S
Eu256 O304 2.291 . S
Eu256 O308 2.335 . S
Eu256 O311 2.372 . S
Eu256 C320 2.787 . S
C257 N258 1.365 . S
C257 C260 1.405 . S
C257 C264 1.448 . S
N258 C257 1.365 . S
N258 C261 1.319 . S
N258 Eu267 2.600 . S
C259 C261 1.397 . S
C259 C262 1.367 . S
C259 H279 0.931 . S
C260 C257 1.405 . S
C260 C262 1.403 . S
C260 C266 1.439 . S
C261 N258 1.319 . S
C261 C259 1.397 . S
C261 H272 0.930 . S
C262 C259 1.367 . S
C262 C260 1.403 . S
C262 H283 0.929 . S
C263 C264 1.430 . S
C263 C265 1.387 . S
C263 C269 1.404 . S
C264 C257 1.448 . S
C264 C263 1.430 . S
C264 N268 1.351 . S
C265 C263 1.387 . S
C265 C266 1.374 . S
C265 H280 0.931 . S
C266 C260 1.439 . S
C266 C265 1.374 . S
C266 H281 0.931 . S
Eu267 N258 2.600 . S
Eu267 N268 2.562 . S
Eu267 O302 2.335 1_655 S
Eu267 O305 2.372 . S
Eu267 O306 2.462 . S
Eu267 O307 2.373 . S
Eu267 O309 2.432 . S
Eu267 O310 2.291 1_655 S
Eu267 C331 2.787 . S
N268 C264 1.351 . S
N268 Eu267 2.562 . S
N268 C270 1.325 . S
C269 C263 1.404 . S
C269 C271 1.366 . S
C269 H277 0.930 . S
C270 N268 1.325 . S
C270 C271 1.416 . S
C270 H276 0.929 . S
C271 C269 1.366 . S
C271 C270 1.416 . S
C271 H273 0.930 . S
H272 C261 0.930 . S
H273 C271 0.930 . S
H274 C289 0.930 . S
H275 C296 0.930 . S
H276 C270 0.929 . S
H277 C269 0.930 . S
H278 C292 0.929 . S
H279 C259 0.931 . S
H280 C265 0.931 . S
H281 C266 0.931 . S
H282 C287 0.931 . S
H283 C262 0.929 . S
H284 C295 0.930 . S
N285 Eu256 2.600 . S
N285 C286 1.365 . S
N285 C289 1.319 . S
C286 N285 1.365 . S
C286 C288 1.405 . S
C286 C294 1.448 . S
C287 H282 0.931 . S
C287 C289 1.397 . S
C287 C290 1.367 . S
C288 C286 1.405 . S
C288 C290 1.403 . S
C288 C321 1.439 . S
C289 H274 0.930 . S
C289 N285 1.319 . S
C289 C287 1.397 . S
C290 C287 1.367 . S
C290 C288 1.403 . S
C290 H297 0.929 . S
N291 Eu256 2.562 . S
N291 C292 1.325 . S
N291 C294 1.351 . S
C292 H278 0.929 . S
C292 N291 1.325 . S
C292 C296 1.416 . S
C293 C294 1.430 . S
C293 C295 1.404 . S
C293 C322 1.387 . S
C294 C286 1.448 . S
C294 N291 1.351 . S
C294 C293 1.430 . S
C295 H284 0.930 . S
C295 C293 1.404 . S
C295 C296 1.366 . S
C296 H275 0.930 . S
C296 C292 1.416 . S
C296 C295 1.366 . S
H297 C290 0.929 . S
H298 C321 0.931 . S
H299 C322 0.931 . S
O300 Eu256 2.462 . S
O300 C320 1.252 . S
O301 Eu256 2.373 . S
O301 C312 1.249 . S
O302 Eu267 2.335 1_455 S
O302 C312 1.264 . S
O303 Eu256 2.432 . S
O303 C320 1.268 . S
O304 Eu256 2.291 . S
O304 C319 1.255 1_455 S
O305 Eu267 2.372 . S
O305 C319 1.257 . S
O306 Eu267 2.462 . S
O306 C331 1.252 . S
O307 Eu267 2.373 . S
O307 C323 1.249 . S
O308 Eu256 2.335 . S
O308 C323 1.264 1_455 S
O309 Eu267 2.432 . S
O309 C331 1.268 . S
O310 Eu267 2.291 1_455 S
O310 C330 1.255 . S
O311 Eu256 2.372 . S
O311 C330 1.257 . S
C312 O301 1.249 . S
C312 O302 1.264 . S
C313 C316 1.382 . S
C313 C318 1.390 . S
C313 C320 1.506 . S
C314 C315 1.398 . S
C314 C318 1.392 . S
C315 C314 1.398 . S
C315 C317 1.372 . S
C315 H332 0.931 . S
C316 C313 1.382 . S
C316 C317 1.390 . S
C316 H333 0.931 . S
C317 C315 1.372 . S
C317 C316 1.390 . S
C317 H334 0.929 . S
C318 C313 1.390 . S
C318 C314 1.392 . S
C318 H335 0.930 . S
C319 O304 1.255 1_655 S
C319 O305 1.257 . S
C320 Eu256 2.787 . S
C320 O300 1.252 . S
C320 O303 1.268 . S
C320 C313 1.506 . S
C321 C288 1.439 . S
C321 H298 0.931 . S
C321 C322 1.374 . S
C322 C293 1.387 . S
C322 H299 0.931 . S
C322 C321 1.374 . S
C323 O307 1.249 . S
C323 O308 1.264 1_655 S
C324 C327 1.382 . S
C324 C328 1.390 . S
C324 C331 1.506 . S
C325 C326 1.398 . S
C325 C328 1.392 . S
C326 C325 1.398 . S
C326 C329 1.372 . S
C326 H336 0.931 . S
C327 C324 1.382 . S
C327 C329 1.390 . S
C327 H337 0.931 . S
C328 C324 1.390 . S
C328 C325 1.392 . S
C328 H338 0.930 . S
C329 C326 1.372 . S
C329 C327 1.390 . S
C329 H339 0.929 . S
C330 O310 1.255 . S
C330 O311 1.257 . S
C331 Eu267 2.787 . S
C331 O306 1.252 . S
C331 O309 1.268 . S
C331 C324 1.506 . S
H332 C315 0.931 . S
H333 C316 0.931 . S
H334 C317 0.929 . S
H335 C318 0.930 . S
H336 C326 0.931 . S
H337 C327 0.931 . S
H338 C328 0.930 . S
H339 C329 0.929 . S
Eu340 N369 2.600 . S
Eu340 N375 2.562 . S
Eu340 O384 2.462 . S
Eu340 O385 2.373 . S
Eu340 O387 2.432 . S
Eu340 O388 2.291 . S
Eu340 O392 2.335 . S
Eu340 O395 2.372 . S
Eu340 C404 2.787 . S
C341 N342 1.365 . S
C341 C344 1.405 . S
C341 C348 1.448 . S
N342 C341 1.365 . S
N342 C345 1.319 . S
N342 Eu351 2.600 . S
C343 C345 1.397 . S
C343 C346 1.367 . S
C343 H363 0.931 . S
C344 C341 1.405 . S
C344 C346 1.403 . S
C344 C350 1.439 . S
C345 N342 1.319 . S
C345 C343 1.397 . S
C345 H356 0.930 . S
C346 C343 1.367 . S
C346 C344 1.403 . S
C346 H367 0.929 . S
C347 C348 1.430 . S
C347 C349 1.387 . S
C347 C353 1.404 . S
C348 C341 1.448 . S
C348 C347 1.430 . S
C348 N352 1.351 . S
C349 C347 1.387 . S
C349 C350 1.374 . S
C349 H364 0.931 . S
C350 C344 1.439 . S
C350 C349 1.374 . S
C350 H365 0.931 . S
Eu351 N342 2.600 . S
Eu351 N352 2.562 . S
Eu351 O386 2.335 . S
Eu351 O389 2.372 . S
Eu351 O390 2.462 . S
Eu351 O391 2.373 . S
Eu351 O393 2.432 . S
Eu351 O394 2.291 . S
Eu351 C415 2.787 . S
N352 C348 1.351 . S
N352 Eu351 2.562 . S
N352 C354 1.325 . S
C353 C347 1.404 . S
C353 C355 1.366 . S
C353 H361 0.930 . S
C354 N352 1.325 . S
C354 C355 1.416 . S
C354 H360 0.929 . S
C355 C353 1.366 . S
C355 C354 1.416 . S
C355 H357 0.930 . S
H356 C345 0.930 . S
H357 C355 0.930 . S
H358 C373 0.930 . S
H359 C380 0.930 . S
H360 C354 0.929 . S
H361 C353 0.930 . S
H362 C376 0.929 . S
H363 C343 0.931 . S
H364 C349 0.931 . S
H365 C350 0.931 . S
H366 C371 0.931 . S
H367 C346 0.929 . S
H368 C379 0.930 . S
N369 Eu340 2.600 . S
N369 C370 1.365 . S
N369 C373 1.319 . S
C370 N369 1.365 . S
C370 C372 1.405 . S
C370 C378 1.448 . S
C371 H366 0.931 . S
C371 C373 1.397 . S
C371 C374 1.367 . S
C372 C370 1.405 . S
C372 C374 1.403 . S
C372 C405 1.439 . S
C373 H358 0.930 . S
C373 N369 1.319 . S
C373 C371 1.397 . S
C374 C371 1.367 . S
C374 C372 1.403 . S
C374 H381 0.929 . S
N375 Eu340 2.562 . S
N375 C376 1.325 . S
N375 C378 1.351 . S
C376 H362 0.929 . S
C376 N375 1.325 . S
C376 C380 1.416 . S
C377 C378 1.430 . S
C377 C379 1.404 . S
C377 C406 1.387 . S
C378 C370 1.448 . S
C378 N375 1.351 . S
C378 C377 1.430 . S
C379 H368 0.930 . S
C379 C377 1.404 . S
C379 C380 1.366 . S
C380 H359 0.930 . S
C380 C376 1.416 . S
C380 C379 1.366 . S
H381 C374 0.929 . S
H382 C405 0.931 . S
H383 C406 0.931 . S
O384 Eu340 2.462 . S
O384 C404 1.252 . S
O385 Eu340 2.373 . S
O385 C396 1.249 . S
O386 Eu351 2.335 . S
O386 C396 1.264 . S
O387 Eu340 2.432 . S
O387 C404 1.268 . S
O388 Eu340 2.291 . S
O388 C403 1.255 . S
O389 Eu351 2.372 . S
O389 C403 1.257 . S
O390 Eu351 2.462 . S
O390 C415 1.252 . S
O391 Eu351 2.373 . S
O391 C407 1.249 . S
O392 Eu340 2.335 . S
O392 C407 1.264 . S
O393 Eu351 2.432 . S
O393 C415 1.268 . S
O394 Eu351 2.291 . S
O394 C414 1.255 . S
O395 Eu340 2.372 . S
O395 C414 1.257 . S
C396 O385 1.249 . S
C396 O386 1.264 . S
C397 C400 1.382 . S
C397 C402 1.390 . S
C397 C404 1.506 . S
C398 C399 1.398 . S
C398 C402 1.392 . S
C399 C398 1.398 . S
C399 C401 1.372 . S
C399 H416 0.931 . S
C400 C397 1.382 . S
C400 C401 1.390 . S
C400 H417 0.931 . S
C401 C399 1.372 . S
C401 C400 1.390 . S
C401 H418 0.929 . S
C402 C397 1.390 . S
C402 C398 1.392 . S
C402 H419 0.930 . S
C403 O388 1.255 . S
C403 O389 1.257 . S
C404 Eu340 2.787 . S
C404 O384 1.252 . S
C404 O387 1.268 . S
C404 C397 1.506 . S
C405 C372 1.439 . S
C405 H382 0.931 . S
C405 C406 1.374 . S
C406 C377 1.387 . S
C406 H383 0.931 . S
C406 C405 1.374 . S
C407 O391 1.249 . S
C407 O392 1.264 . S
C408 C411 1.382 . S
C408 C412 1.390 . S
C408 C415 1.506 . S
C409 C410 1.398 . S
C409 C412 1.392 . S
C410 C409 1.398 . S
C410 C413 1.372 . S
C410 H420 0.931 . S
C411 C408 1.382 . S
C411 C413 1.390 . S
C411 H421 0.931 . S
C412 C408 1.390 . S
C412 C409 1.392 . S
C412 H422 0.930 . S
C413 C410 1.372 . S
C413 C411 1.390 . S
C413 H423 0.929 . S
C414 O394 1.255 . S
C414 O395 1.257 . S
C415 Eu351 2.787 . S
C415 O390 1.252 . S
C415 O393 1.268 . S
C415 C408 1.506 . S
H416 C399 0.931 . S
H417 C400 0.931 . S
H418 C401 0.929 . S
H419 C402 0.930 . S
H420 C410 0.931 . S
H421 C411 0.931 . S
H422 C412 0.930 . S
H423 C413 0.929 . S
Eu424 N453 2.600 . S
Eu424 N459 2.562 . S
Eu424 O468 2.462 . S
Eu424 O469 2.373 . S
Eu424 O471 2.432 . S
Eu424 O472 2.291 . S
Eu424 O476 2.335 . S
Eu424 O479 2.372 . S
Eu424 C488 2.787 . S
C425 N426 1.365 . S
C425 C428 1.405 . S
C425 C432 1.448 . S
N426 C425 1.365 . S
N426 C429 1.319 . S
N426 Eu435 2.600 . S
C427 C429 1.397 . S
C427 C430 1.367 . S
C427 H447 0.931 . S
C428 C425 1.405 . S
C428 C430 1.403 . S
C428 C434 1.439 . S
C429 N426 1.319 . S
C429 C427 1.397 . S
C429 H440 0.930 . S
C430 C427 1.367 . S
C430 C428 1.403 . S
C430 H451 0.929 . S
C431 C432 1.430 . S
C431 C433 1.387 . S
C431 C437 1.404 . S
C432 C425 1.448 . S
C432 C431 1.430 . S
C432 N436 1.351 . S
C433 C431 1.387 . S
C433 C434 1.374 . S
C433 H448 0.931 . S
C434 C428 1.439 . S
C434 C433 1.374 . S
C434 H449 0.931 . S
Eu435 N426 2.600 . S
Eu435 N436 2.562 . S
Eu435 O470 2.335 1_655 S
Eu435 O473 2.372 . S
Eu435 O474 2.462 . S
Eu435 O475 2.373 . S
Eu435 O477 2.432 . S
Eu435 O478 2.272 1_655 S
Eu435 C499 2.787 . S
N436 C432 1.351 . S
N436 Eu435 2.562 . S
N436 C438 1.325 . S
C437 C431 1.404 . S
C437 C439 1.366 . S
C437 H445 0.930 . S
C438 N436 1.325 . S
C438 C439 1.416 . S
C438 H444 0.929 . S
C439 C437 1.366 . S
C439 C438 1.416 . S
C439 H441 0.930 . S
H440 C429 0.930 . S
H441 C439 0.930 . S
H442 C457 0.930 . S
H443 C464 0.930 . S
H444 C438 0.929 . S
H445 C437 0.930 . S
H446 C460 0.929 . S
H447 C427 0.931 . S
H448 C433 0.931 . S
H449 C434 0.931 . S
H450 C455 0.931 . S
H451 C430 0.929 . S
H452 C463 0.930 . S
N453 Eu424 2.600 . S
N453 C454 1.365 . S
N453 C457 1.319 . S
C454 N453 1.365 . S
C454 C456 1.405 . S
C454 C462 1.448 . S
C455 H450 0.931 . S
C455 C457 1.397 . S
C455 C458 1.367 . S
C456 C454 1.405 . S
C456 C458 1.403 . S
C456 C489 1.439 . S
C457 H442 0.930 . S
C457 N453 1.319 . S
C457 C455 1.397 . S
C458 C455 1.367 . S
C458 C456 1.403 . S
C458 H465 0.929 . S
N459 Eu424 2.562 . S
N459 C460 1.325 . S
N459 C462 1.351 . S
C460 H446 0.929 . S
C460 N459 1.325 . S
C460 C464 1.416 . S
C461 C462 1.430 . S
C461 C463 1.404 . S
C461 C490 1.387 . S
C462 C454 1.448 . S
C462 N459 1.351 . S
C462 C461 1.430 . S
C463 H452 0.930 . S
C463 C461 1.404 . S
C463 C464 1.366 . S
C464 H443 0.930 . S
C464 C460 1.416 . S
C464 C463 1.366 . S
H465 C458 0.929 . S
H466 C489 0.931 . S
H467 C490 0.931 . S
O468 Eu424 2.462 . S
O468 C488 1.252 . S
O469 Eu424 2.373 . S
O469 C480 1.249 . S
O470 Eu435 2.335 1_455 S
O470 C480 1.264 . S
O471 Eu424 2.432 . S
O471 C488 1.268 . S
O472 Eu424 2.291 . S
O472 C487 1.255 1_455 S
O473 Eu435 2.372 . S
O473 C487 1.257 . S
O474 Eu435 2.462 . S
O474 C499 1.252 . S
O475 Eu435 2.373 . S
O475 C491 1.249 . S
O476 Eu424 2.335 . S
O476 C491 1.264 1_455 S
O477 Eu435 2.432 . S
O477 C499 1.268 . S
O478 Eu435 2.272 1_455 S
O478 C498 1.278 . S
O479 Eu424 2.372 . S
O479 C498 1.257 . S
C480 O469 1.249 . S
C480 O470 1.264 . S
C481 C484 1.382 . S
C481 C486 1.390 . S
C481 C488 1.506 . S
C482 C483 1.398 . S
C482 C486 1.392 . S
C483 C482 1.398 . S
C483 C485 1.372 . S
C483 H500 0.931 . S
C484 C481 1.382 . S
C484 C485 1.390 . S
C484 H501 0.931 . S
C485 C483 1.372 . S
C485 C484 1.390 . S
C485 H502 0.929 . S
C486 C481 1.390 . S
C486 C482 1.392 . S
C486 H503 0.930 . S
C487 O472 1.255 1_655 S
C487 O473 1.257 . S
C488 Eu424 2.787 . S
C488 O468 1.252 . S
C488 O471 1.268 . S
C488 C481 1.506 . S
C489 C456 1.439 . S
C489 H466 0.931 . S
C489 C490 1.374 . S
C490 C461 1.387 . S
C490 H467 0.931 . S
C490 C489 1.374 . S
C491 O475 1.249 . S
C491 O476 1.264 1_655 S
C492 C495 1.382 . S
C492 C496 1.390 . S
C492 C499 1.506 . S
C493 C494 1.398 . S
C493 C496 1.392 . S
C494 C493 1.398 . S
C494 C497 1.372 . S
C494 H504 0.931 . S
C495 C492 1.382 . S
C495 C497 1.390 . S
C495 H505 0.931 . S
C496 C492 1.390 . S
C496 C493 1.392 . S
C496 H506 0.930 . S
C497 C494 1.372 . S
C497 C495 1.390 . S
C497 H507 0.929 . S
C498 O478 1.278 . S
C498 O479 1.257 . S
C499 Eu435 2.787 . S
C499 O474 1.252 . S
C499 O477 1.268 . S
C499 C492 1.506 . S
H500 C483 0.931 . S
H501 C484 0.931 . S
H502 C485 0.929 . S
H503 C486 0.930 . S
H504 C494 0.931 . S
H505 C495 0.931 . S
H506 C496 0.930 . S
H507 C497 0.929 . S
Eu508 N537 2.600 . S
Eu508 N543 2.562 . S
Eu508 O552 2.462 . S
Eu508 O553 2.373 . S
Eu508 O555 2.432 . S
Eu508 O556 2.291 . S
Eu508 O560 2.335 . S
Eu508 O563 2.372 . S
Eu508 C572 2.787 . S
C509 N510 1.365 . S
C509 C512 1.405 . S
C509 C516 1.448 . S
N510 C509 1.365 . S
N510 C513 1.319 . S
N510 Eu519 2.600 . S
C511 C513 1.397 . S
C511 C514 1.367 . S
C511 H531 0.931 . S
C512 C509 1.405 . S
C512 C514 1.403 . S
C512 C518 1.439 . S
C513 N510 1.319 . S
C513 C511 1.397 . S
C513 H524 0.930 . S
C514 C511 1.367 . S
C514 C512 1.403 . S
C514 H535 0.929 . S
C515 C516 1.430 . S
C515 C517 1.387 . S
C515 C521 1.404 . S
C516 C509 1.448 . S
C516 C515 1.430 . S
C516 N520 1.351 . S
C517 C515 1.387 . S
C517 C518 1.374 . S
C517 H532 0.931 . S
C518 C512 1.439 . S
C518 C517 1.374 . S
C518 H533 0.931 . S
Eu519 N510 2.600 . S
Eu519 N520 2.562 . S
Eu519 O554 2.335 . S
Eu519 O557 2.372 . S
Eu519 O558 2.462 . S
Eu519 O559 2.373 . S
Eu519 O561 2.432 . S
Eu519 O562 2.291 . S
Eu519 C583 2.787 . S
N520 C516 1.351 . S
N520 Eu519 2.562 . S
N520 C522 1.325 . S
C521 C515 1.404 . S
C521 C523 1.366 . S
C521 H529 0.930 . S
C522 N520 1.325 . S
C522 C523 1.416 . S
C522 H528 0.929 . S
C523 C521 1.366 . S
C523 C522 1.416 . S
C523 H525 0.930 . S
H524 C513 0.930 . S
H525 C523 0.930 . S
H526 C541 0.930 . S
H527 C548 0.930 . S
H528 C522 0.929 . S
H529 C521 0.930 . S
H530 C544 0.929 . S
H531 C511 0.931 . S
H532 C517 0.931 . S
H533 C518 0.931 . S
H534 C539 0.931 . S
H535 C514 0.929 . S
H536 C547 0.930 . S
N537 Eu508 2.600 . S
N537 C538 1.365 . S
N537 C541 1.319 . S
C538 N537 1.365 . S
C538 C540 1.405 . S
C538 C546 1.448 . S
C539 H534 0.931 . S
C539 C541 1.397 . S
C539 C542 1.367 . S
C540 C538 1.405 . S
C540 C542 1.403 . S
C540 C573 1.439 . S
C541 H526 0.930 . S
C541 N537 1.319 . S
C541 C539 1.397 . S
C542 C539 1.367 . S
C542 C540 1.403 . S
C542 H549 0.929 . S
N543 Eu508 2.562 . S
N543 C544 1.325 . S
N543 C546 1.351 . S
C544 H530 0.929 . S
C544 N543 1.325 . S
C544 C548 1.416 . S
C545 C546 1.430 . S
C545 C547 1.404 . S
C545 C574 1.387 . S
C546 C538 1.448 . S
C546 N543 1.351 . S
C546 C545 1.430 . S
C547 H536 0.930 . S
C547 C545 1.404 . S
C547 C548 1.366 . S
C548 H527 0.930 . S
C548 C544 1.416 . S
C548 C547 1.366 . S
H549 C542 0.929 . S
H550 C573 0.931 . S
H551 C574 0.931 . S
O552 Eu508 2.462 . S
O552 C572 1.252 . S
O553 Eu508 2.373 . S
O553 C564 1.249 . S
O554 Eu519 2.335 . S
O554 C564 1.264 . S
O555 Eu508 2.432 . S
O555 C572 1.268 . S
O556 Eu508 2.291 . S
O556 C571 1.255 . S
O557 Eu519 2.372 . S
O557 C571 1.257 . S
O558 Eu519 2.462 . S
O558 C583 1.252 . S
O559 Eu519 2.373 . S
O559 C575 1.249 . S
O560 Eu508 2.335 . S
O560 C575 1.264 . S
O561 Eu519 2.432 . S
O561 C583 1.268 . S
O562 Eu519 2.291 . S
O562 C582 1.255 . S
O563 Eu508 2.372 . S
O563 C582 1.257 . S
C564 O553 1.249 . S
C564 O554 1.264 . S
C565 C568 1.382 . S
C565 C570 1.390 . S
C565 C572 1.506 . S
C566 C567 1.398 . S
C566 C570 1.392 . S
C567 C566 1.398 . S
C567 C569 1.372 . S
C567 H584 0.931 . S
C568 C565 1.382 . S
C568 C569 1.390 . S
C568 H585 0.931 . S
C569 C567 1.372 . S
C569 C568 1.390 . S
C569 H586 0.929 . S
C570 C565 1.390 . S
C570 C566 1.392 . S
C570 H587 0.930 . S
C571 O556 1.255 . S
C571 O557 1.257 . S
C572 Eu508 2.787 . S
C572 O552 1.252 . S
C572 O555 1.268 . S
C572 C565 1.506 . S
C573 C540 1.439 . S
C573 H550 0.931 . S
C573 C574 1.374 . S
C574 C545 1.387 . S
C574 H551 0.931 . S
C574 C573 1.374 . S
C575 O559 1.249 . S
C575 O560 1.264 . S
C576 C579 1.382 . S
C576 C580 1.390 . S
C576 C583 1.506 . S
C577 C578 1.398 . S
C577 C580 1.392 . S
C578 C577 1.398 . S
C578 C581 1.372 . S
C578 H588 0.931 . S
C579 C576 1.382 . S
C579 C581 1.390 . S
C579 H589 0.931 . S
C580 C576 1.390 . S
C580 C577 1.392 . S
C580 H590 0.930 . S
C581 C578 1.372 . S
C581 C579 1.390 . S
C581 H591 0.929 . S
C582 O562 1.255 . S
C582 O563 1.257 . S
C583 Eu519 2.787 . S
C583 O558 1.252 . S
C583 O561 1.268 . S
C583 C576 1.506 . S
H584 C567 0.931 . S
H585 C568 0.931 . S
H586 C569 0.929 . S
H587 C570 0.930 . S
H588 C578 0.931 . S
H589 C579 0.931 . S
H590 C580 0.930 . S
H591 C581 0.929 . S
H592 C600 0.950 . S
H593 C605 0.950 . S
H594 C602 0.950 . S
H595 C604 0.943 1_545 S
H596 C606 0.950 . S
H597 C608 0.950 . S
H598 C610 0.950 . S
H599 C611 0.950 . S
C600 H592 0.950 . S
C600 C601 1.386 . S
C600 C602 1.391 1_565 S
C601 C600 1.386 . S
C601 C605 1.393 . S
C602 H594 0.950 . S
C602 C600 1.391 1_545 S
C602 C603 1.400 . S
C603 C602 1.400 . S
C603 C604 1.386 1_545 S
C603 C609 1.491 . S
C604 H595 0.943 1_565 S
C604 C603 1.386 1_565 S
C604 C605 1.410 . S
C605 H593 0.950 . S
C605 C601 1.393 . S
C605 C604 1.410 . S
C606 H596 0.950 . S
C606 C607 1.386 . S
C606 C608 1.391 . S
C607 C606 1.386 . S
C607 C611 1.393 . S
C608 H597 0.950 . S
C608 C606 1.391 . S
C608 C609 1.400 . S
C609 C603 1.491 . S
C609 C608 1.400 . S
C609 C610 1.398 . S
C610 H598 0.950 . S
C610 C609 1.398 . S
C610 C611 1.391 . S
C611 H599 0.950 . S
C611 C607 1.393 . S
C611 C610 1.391 . S
H612 C620 0.950 . S
H613 C625 0.950 . S
H614 C622 0.950 . S
H615 C624 0.950 . S
H616 C626 0.950 . S
H617 C628 0.950 . S
H618 C630 0.950 . S
H619 C631 0.950 . S
C620 H612 0.950 . S
C620 C621 1.386 . S
C620 C622 1.391 . S
C621 C620 1.386 . S
C621 C625 1.393 . S
C622 H614 0.950 . S
C622 C620 1.391 . S
C622 C623 1.400 . S
C623 C622 1.400 . S
C623 C624 1.398 . S
C623 C629 1.491 . S
C624 H615 0.950 . S
C624 C623 1.398 . S
C624 C625 1.391 . S
C625 H613 0.950 . S
C625 C621 1.393 . S
C625 C624 1.391 . S
C626 H616 0.950 . S
C626 C627 1.386 . S
C626 C628 1.391 . S
C627 C626 1.386 . S
C627 C631 1.393 . S
C628 H617 0.950 . S
C628 C626 1.391 . S
C628 C629 1.400 . S
C629 C623 1.491 . S
C629 C628 1.400 . S
C629 C630 1.398 . S
C630 H618 0.950 . S
C630 C629 1.398 . S
C630 C631 1.391 . S
C631 H619 0.950 . S
C631 C627 1.393 . S
C631 C630 1.391 . S
H632 C640 0.950 . S
H633 C645 0.950 . S
H634 C642 0.950 . S
H635 C644 0.950 . S
H636 C646 0.950 . S
H637 C648 0.950 . S
H638 C650 0.950 . S
H639 C651 0.950 . S
C640 H632 0.950 . S
C640 C641 1.386 . S
C640 C642 1.391 . S
C641 C640 1.386 . S
C641 C645 1.393 . S
C642 H634 0.950 . S
C642 C640 1.391 . S
C642 C643 1.400 . S
C643 C642 1.400 . S
C643 C644 1.398 . S
C643 C649 1.491 . S
C644 H635 0.950 . S
C644 C643 1.398 . S
C644 C645 1.391 . S
C645 H633 0.950 . S
C645 C641 1.393 . S
C645 C644 1.391 . S
C646 H636 0.950 . S
C646 C647 1.386 . S
C646 C648 1.391 . S
C647 C646 1.386 . S
C647 C651 1.393 . S
C648 H637 0.950 . S
C648 C646 1.391 . S
C648 C649 1.400 . S
C649 C643 1.491 . S
C649 C648 1.400 . S
C649 C650 1.398 . S
C650 H638 0.950 . S
C650 C649 1.398 . S
C650 C651 1.391 . S
C651 H639 0.950 . S
C651 C647 1.393 . S
C651 C650 1.391 . S
H652 C660 0.950 . S
H653 C665 0.950 . S
H654 C662 0.950 . S
H655 C664 0.946 1_545 S
H656 C666 0.950 1_455 S
H657 C668 0.950 . S
H658 C670 0.950 . S
H659 C671 0.950 . S
C660 H652 0.950 . S
C660 C661 1.386 . S
C660 C662 1.391 1_565 S
C661 C660 1.386 . S
C661 C665 1.393 . S
C662 H654 0.950 . S
C662 C660 1.391 1_545 S
C662 C663 1.400 . S
C663 C662 1.400 . S
C663 C664 1.379 1_545 S
C663 C669 1.491 . S
C664 H655 0.946 1_565 S
C664 C663 1.379 1_565 S
C664 C665 1.413 . S
C665 H653 0.950 . S
C665 C661 1.393 . S
C665 C664 1.413 . S
C666 H656 0.950 1_655 S
C666 C667 1.386 . S
C666 C668 1.391 . S
C667 C666 1.386 . S
C667 C671 1.393 . S
C668 H657 0.950 . S
C668 C666 1.391 . S
C668 C669 1.400 . S
C669 C663 1.491 . S
C669 C668 1.400 . S
C669 C670 1.398 . S
C670 H658 0.950 . S
C670 C669 1.398 . S
C670 C671 1.391 . S
C671 H659 0.950 . S
C671 C667 1.393 . S
C671 C670 1.391 . S
H672 C680 0.950 1_565 S
H673 C685 0.950 . S
H674 C682 0.950 . S
H675 C684 0.950 . S
H676 C686 0.950 . S
H677 C688 0.950 . S
H678 C690 0.950 . S
H679 C691 0.950 . S
C680 H672 0.950 1_545 S
C680 C681 1.386 . S
C680 C682 1.391 1_545 S
C681 C680 1.386 . S
C681 C685 1.393 . S
C682 H674 0.950 . S
C682 C680 1.391 1_565 S
C682 C683 1.400 . S
C683 C682 1.400 . S
C683 C684 1.398 1_565 S
C683 C689 1.491 . S
C684 H675 0.950 . S
C684 C683 1.398 1_545 S
C684 C685 1.391 . S
C685 H673 0.950 . S
C685 C681 1.393 . S
C685 C684 1.391 . S
C686 H676 0.950 . S
C686 C687 1.386 . S
C686 C688 1.391 . S
C687 C686 1.386 . S
C687 C691 1.393 . S
C688 H677 0.950 . S
C688 C686 1.391 . S
C688 C689 1.400 . S
C689 C683 1.491 . S
C689 C688 1.400 . S
C689 C690 1.398 . S
C690 H678 0.950 . S
C690 C689 1.398 . S
C690 C691 1.391 . S
C691 H679 0.950 . S
C691 C687 1.393 . S
C691 C690 1.391 . S
H692 C700 0.950 . S
H693 C705 0.950 . S
H694 C702 0.950 . S
H695 C704 0.950 . S
H696 C706 0.950 . S
H697 C708 0.950 . S
H698 C710 0.950 . S
H699 C711 0.950 . S
C700 H692 0.950 . S
C700 C701 1.386 . S
C700 C702 1.391 . S
C701 C700 1.386 . S
C701 C705 1.393 . S
C702 H694 0.950 . S
C702 C700 1.391 . S
C702 C703 1.400 . S
C703 C702 1.400 . S
C703 C704 1.398 . S
C703 C709 1.491 . S
C704 H695 0.950 . S
C704 C703 1.398 . S
C704 C705 1.391 . S
C705 H693 0.950 . S
C705 C701 1.393 . S
C705 C704 1.391 . S
C706 H696 0.950 . S
C706 C707 1.386 . S
C706 C708 1.391 . S
C707 C706 1.386 . S
C707 C711 1.393 . S
C708 H697 0.950 . S
C708 C706 1.391 . S
C708 C709 1.400 . S
C709 C703 1.491 . S
C709 C708 1.400 . S
C709 C710 1.398 . S
C710 H698 0.950 . S
C710 C709 1.398 . S
C710 C711 1.391 . S
C711 H699 0.950 . S
C711 C707 1.393 . S
C711 C710 1.391 . S
H712 C720 0.950 . S
H713 C725 0.950 . S
H714 C722 0.950 . S
H715 C724 0.950 . S
H716 C726 0.950 . S
H717 C728 0.950 . S
H718 C730 0.950 . S
H719 C731 0.950 . S
C720 H712 0.950 . S
C720 C721 1.386 . S
C720 C722 1.391 . S
C721 C720 1.386 . S
C721 C725 1.393 . S
C722 H714 0.950 . S
C722 C720 1.391 . S
C722 C723 1.400 . S
C723 C722 1.400 . S
C723 C724 1.398 . S
C723 C729 1.491 . S
C724 H715 0.950 . S
C724 C723 1.398 . S
C724 C725 1.391 . S
C725 H713 0.950 . S
C725 C721 1.393 . S
C725 C724 1.391 . S
C726 H716 0.950 . S
C726 C727 1.386 . S
C726 C728 1.391 . S
C727 C726 1.386 . S
C727 C731 1.393 . S
C728 H717 0.950 . S
C728 C726 1.391 . S
C728 C729 1.400 . S
C729 C723 1.491 . S
C729 C728 1.400 . S
C729 C730 1.398 . S
C730 H718 0.950 . S
C730 C729 1.398 . S
C730 C731 1.391 . S
C731 H719 0.950 . S
C731 C727 1.393 . S
C731 C730 1.391 . S
H732 C740 0.950 . S
H733 C745 0.950 . S
H734 C742 0.950 . S
H735 C744 0.950 . S
H736 C746 0.950 . S
H737 C748 0.950 . S
H738 C750 0.950 . S
H739 C751 0.950 . S
C740 H732 0.950 . S
C740 C741 1.386 . S
C740 C742 1.391 . S
C741 C740 1.386 . S
C741 C745 1.393 . S
C742 H734 0.950 . S
C742 C740 1.391 . S
C742 C743 1.400 1_545 S
C743 C742 1.400 1_565 S
C743 C744 1.398 . S
C743 C749 1.491 . S
C744 H735 0.950 . S
C744 C743 1.398 . S
C744 C745 1.391 1_565 S
C745 H733 0.950 . S
C745 C741 1.393 . S
C745 C744 1.391 1_545 S
C746 H736 0.950 . S
C746 C747 1.386 . S
C746 C748 1.391 . S
C747 C746 1.386 . S
C747 C751 1.393 . S
C748 H737 0.950 . S
C748 C746 1.391 . S
C748 C749 1.400 . S
C749 C743 1.491 . S
C749 C748 1.400 . S
C749 C750 1.398 . S
C750 H738 0.950 . S
C750 C749 1.398 . S
C750 C751 1.391 . S
C751 H739 0.950 . S
C751 C747 1.393 . S
C751 C750 1.391 . S
H752 C760 0.950 1_556 S
H753 C765 0.950 . S
H754 C762 0.950 . S
H755 C764 0.950 . S
H756 C766 0.950 . S
H757 C768 0.950 . S
H758 C770 0.950 . S
H759 C771 0.950 . S
C760 H752 0.950 1_554 S
C760 C761 1.386 1_554 S
C760 C762 1.391 . S
C761 C760 1.386 1_556 S
C761 C765 1.393 1_556 S
C762 H754 0.950 . S
C762 C760 1.391 . S
C762 C763 1.400 . S
C763 C762 1.400 . S
C763 C764 1.398 . S
C763 C769 1.491 . S
C764 H755 0.950 . S
C764 C763 1.398 . S
C764 C765 1.391 . S
C765 H753 0.950 . S
C765 C761 1.393 1_554 S
C765 C764 1.391 . S
C766 H756 0.950 . S
C766 C767 1.386 . S
C766 C768 1.391 . S
C767 C766 1.386 . S
C767 C771 1.393 . S
C768 H757 0.950 . S
C768 C766 1.391 . S
C768 C769 1.400 . S
C769 C763 1.491 . S
C769 C768 1.400 . S
C769 C770 1.398 . S
C770 H758 0.950 . S
C770 C769 1.398 . S
C770 C771 1.391 . S
C771 H759 0.950 . S
C771 C767 1.393 . S
C771 C770 1.391 . S
H772 C780 0.950 . S
H773 C785 0.950 . S
H774 C782 0.950 . S
H775 C784 0.950 . S
H776 C786 0.950 . S
H777 C788 0.950 . S
H778 C790 0.950 . S
H779 C791 0.950 . S
C780 H772 0.950 . S
C780 C781 1.386 . S
C780 C782 1.391 . S
C781 C780 1.386 . S
C781 C785 1.393 . S
C782 H774 0.950 . S
C782 C780 1.391 . S
C782 C783 1.400 . S
C783 C782 1.400 . S
C783 C784 1.398 . S
C783 C789 1.491 . S
C784 H775 0.950 . S
C784 C783 1.398 . S
C784 C785 1.391 . S
C785 H773 0.950 . S
C785 C781 1.393 . S
C785 C784 1.391 . S
C786 H776 0.950 . S
C786 C787 1.386 . S
C786 C788 1.391 . S
C787 C786 1.386 . S
C787 C791 1.393 . S
C788 H777 0.950 . S
C788 C786 1.391 . S
C788 C789 1.400 . S
C789 C783 1.491 . S
C789 C788 1.400 . S
C789 C790 1.398 . S
C790 H778 0.950 . S
C790 C789 1.398 . S
C790 C791 1.391 . S
C791 H779 0.950 . S
C791 C787 1.393 . S
C791 C790 1.391 . S
H792 C800 0.950 1_554 S
H793 C805 0.943 1_554 S
H794 C802 0.950 . S
H795 C804 0.950 . S
H796 C806 0.950 . S
H797 C808 0.950 . S
H798 C810 0.950 . S
H799 C811 0.950 . S
C800 H792 0.950 1_556 S
C800 C801 1.386 1_556 S
C800 C802 1.391 . S
C801 C800 1.386 1_554 S
C801 C805 1.387 1_554 S
C802 H794 0.950 . S
C802 C800 1.391 . S
C802 C803 1.400 . S
C803 C802 1.400 . S
C803 C804 1.398 . S
C803 C809 1.491 . S
C804 H795 0.950 . S
C804 C803 1.398 . S
C804 C805 1.403 . S
C805 H793 0.943 1_556 S
C805 C801 1.387 1_556 S
C805 C804 1.403 . S
C806 H796 0.950 . S
C806 C807 1.386 . S
C806 C808 1.391 . S
C807 C806 1.386 . S
C807 C811 1.393 . S
C808 H797 0.950 . S
C808 C806 1.391 . S
C808 C809 1.400 . S
C809 C803 1.491 . S
C809 C808 1.400 . S
C809 C810 1.398 . S
C810 H798 0.950 . S
C810 C809 1.398 . S
C810 C811 1.391 . S
C811 H799 0.950 . S
C811 C807 1.393 . S
C811 C810 1.391 . S
H812 C820 0.950 . S
H813 C825 0.950 . S
H814 C822 0.950 . S
H815 C824 0.950 . S
H816 C826 0.950 . S
H817 C828 0.950 . S
H818 C830 0.950 . S
H819 C831 0.950 . S
C820 H812 0.950 . S
C820 C821 1.386 . S
C820 C822 1.391 . S
C821 C820 1.386 . S
C821 C825 1.393 . S
C822 H814 0.950 . S
C822 C820 1.391 . S
C822 C823 1.400 . S
C823 C822 1.400 . S
C823 C824 1.398 . S
C823 C829 1.491 . S
C824 H815 0.950 . S
C824 C823 1.398 . S
C824 C825 1.391 . S
C825 H813 0.950 . S
C825 C821 1.393 . S
C825 C824 1.391 . S
C826 H816 0.950 . S
C826 C827 1.386 . S
C826 C828 1.391 . S
C827 C826 1.386 . S
C827 C831 1.393 . S
C828 H817 0.950 . S
C828 C826 1.391 . S
C828 C829 1.400 . S
C829 C823 1.491 . S
C829 C828 1.400 . S
C829 C830 1.398 . S
C830 H818 0.950 . S
C830 C829 1.398 . S
C830 C831 1.391 . S
C831 H819 0.950 . S
C831 C827 1.393 . S
C831 C830 1.391 . S
H832 C840 0.950 1_554 S
H833 C845 0.950 1_554 S
H834 C842 0.950 . S
H835 C844 0.950 . S
H836 C846 0.950 . S
H837 C848 0.950 . S
H838 C850 0.950 . S
H839 C851 0.950 . S
C840 H832 0.950 1_556 S
C840 C841 1.386 1_556 S
C840 C842 1.391 . S
C841 C840 1.386 1_554 S
C841 C845 1.393 1_554 S
C842 H834 0.950 . S
C842 C840 1.391 . S
C842 C843 1.400 . S
C843 C842 1.400 . S
C843 C844 1.398 . S
C843 C849 1.491 . S
C844 H835 0.950 . S
C844 C843 1.398 . S
C844 C845 1.391 . S
C845 H833 0.950 1_556 S
C845 C841 1.393 1_556 S
C845 C844 1.391 . S
C846 H836 0.950 . S
C846 C847 1.386 . S
C846 C848 1.391 . S
C847 C846 1.386 . S
C847 C851 1.393 . S
C848 H837 0.950 . S
C848 C846 1.391 . S
C848 C849 1.400 . S
C849 C843 1.491 . S
C849 C848 1.400 . S
C849 C850 1.398 . S
C850 H838 0.950 . S
C850 C849 1.398 . S
C850 C851 1.391 . S
C851 H839 0.950 . S
C851 C847 1.393 . S
C851 C850 1.391 . S
H852 C860 0.950 . S
H853 C865 0.950 . S
H854 C862 0.950 . S
H855 C864 0.950 . S
H856 C866 0.950 . S
H857 C868 0.950 . S
H858 C870 0.950 . S
H859 C871 0.950 . S
C860 H852 0.950 . S
C860 C861 1.386 . S
C860 C862 1.391 . S
C861 C860 1.386 . S
C861 C865 1.393 . S
C862 H854 0.950 . S
C862 C860 1.391 . S
C862 C863 1.400 . S
C863 C862 1.400 . S
C863 C864 1.398 . S
C863 C869 1.491 . S
C864 H855 0.950 . S
C864 C863 1.398 . S
C864 C865 1.391 . S
C865 H853 0.950 . S
C865 C861 1.393 . S
C865 C864 1.391 . S
C866 H856 0.950 . S
C866 C867 1.386 . S
C866 C868 1.391 . S
C867 C866 1.386 . S
C867 C871 1.393 . S
C868 H857 0.950 . S
C868 C866 1.391 . S
C868 C869 1.400 . S
C869 C863 1.491 . S
C869 C868 1.400 . S
C869 C870 1.398 . S
C870 H858 0.950 . S
C870 C869 1.398 . S
C870 C871 1.391 . S
C871 H859 0.950 . S
C871 C867 1.393 . S
C871 C870 1.391 . S
H872 C880 0.967 . S
H873 C885 0.950 1_556 S
H874 C882 0.950 . S
H875 C884 0.950 . S
H876 C886 0.950 . S
H877 C888 0.950 . S
H878 C890 0.950 . S
H879 C891 0.950 . S
C880 H872 0.967 . S
C880 C881 1.386 1_554 S
C880 C882 1.391 . S
C881 C880 1.386 1_556 S
C881 C885 1.393 1_556 S
C882 H874 0.950 . S
C882 C880 1.391 . S
C882 C883 1.400 . S
C883 C882 1.400 . S
C883 C884 1.398 . S
C883 C889 1.491 . S
C884 H875 0.950 . S
C884 C883 1.398 . S
C884 C885 1.391 . S
C885 H873 0.950 1_554 S
C885 C881 1.393 1_554 S
C885 C884 1.391 . S
C886 H876 0.950 . S
C886 C887 1.386 . S
C886 C888 1.391 . S
C887 C886 1.386 . S
C887 C891 1.393 . S
C888 H877 0.950 . S
C888 C886 1.391 . S
C888 C889 1.400 . S
C889 C883 1.491 . S
C889 C888 1.400 . S
C889 C890 1.398 . S
C890 H878 0.950 . S
C890 C889 1.398 . S
C890 C891 1.391 . S
C891 H879 0.950 . S
C891 C887 1.393 . S
C891 C890 1.391 . S
H892 C900 0.950 . S
H893 C905 0.950 . S
H894 C902 0.950 . S
H895 C904 0.950 . S
H896 C906 0.950 . S
H897 C908 0.950 . S
H898 C910 0.950 . S
H899 C911 0.950 . S
C900 H892 0.950 . S
C900 C901 1.386 . S
C900 C902 1.391 . S
C901 C900 1.386 . S
C901 C905 1.393 . S
C902 H894 0.950 . S
C902 C900 1.391 . S
C902 C903 1.400 . S
C903 C902 1.400 . S
C903 C904 1.398 . S
C903 C909 1.491 . S
C904 H895 0.950 . S
C904 C903 1.398 . S
C904 C905 1.391 . S
C905 H893 0.950 . S
C905 C901 1.393 . S
C905 C904 1.391 . S
C906 H896 0.950 . S
C906 C907 1.386 . S
C906 C908 1.391 . S
C907 C906 1.386 . S
C907 C911 1.393 . S
C908 H897 0.950 . S
C908 C906 1.391 . S
C908 C909 1.400 . S
C909 C903 1.491 . S
C909 C908 1.400 . S
C909 C910 1.398 . S
C910 H898 0.950 . S
C910 C909 1.398 . S
C910 C911 1.391 . S
C911 H899 0.950 . S
C911 C907 1.393 . S
C911 C910 1.391 . S
H912 C920 0.950 . S
H913 C925 0.950 . S
H914 C922 0.950 . S
H915 C924 0.950 . S
H916 C926 0.950 . S
H917 C928 0.950 . S
H918 C930 0.950 . S
H919 C931 0.950 . S
C920 H912 0.950 . S
C920 C921 1.386 . S
C920 C922 1.391 . S
C921 C920 1.386 . S
C921 C925 1.393 . S
C922 H914 0.950 . S
C922 C920 1.391 . S
C922 C923 1.400 . S
C923 C922 1.400 . S
C923 C924 1.398 . S
C923 C929 1.491 . S
C924 H915 0.950 . S
C924 C923 1.398 . S
C924 C925 1.391 . S
C925 H913 0.950 . S
C925 C921 1.393 . S
C925 C924 1.391 . S
C926 H916 0.950 . S
C926 C927 1.386 . S
C926 C928 1.391 . S
C927 C926 1.386 . S
C927 C931 1.393 . S
C928 H917 0.950 . S
C928 C926 1.391 . S
C928 C929 1.400 . S
C929 C923 1.491 . S
C929 C928 1.400 . S
C929 C930 1.398 . S
C930 H918 0.950 . S
C930 C929 1.398 . S
C930 C931 1.391 . S
C931 H919 0.950 . S
C931 C927 1.393 . S
C931 C930 1.391 . S
H932 C940 0.950 . S
H933 C945 0.950 . S
H934 C942 0.950 . S
H935 C944 0.950 . S
H936 C946 0.950 . S
H937 C948 0.950 . S
H938 C950 0.950 . S
H939 C951 0.950 . S
C940 H932 0.950 . S
C940 C941 1.386 . S
C940 C942 1.391 . S
C941 C940 1.386 . S
C941 C945 1.393 . S
C942 H934 0.950 . S
C942 C940 1.391 . S
C942 C943 1.400 . S
C943 C942 1.400 . S
C943 C944 1.398 . S
C943 C949 1.491 . S
C944 H935 0.950 . S
C944 C943 1.398 . S
C944 C945 1.391 . S
C945 H933 0.950 . S
C945 C941 1.393 . S
C945 C944 1.391 . S
C946 H936 0.950 . S
C946 C947 1.386 . S
C946 C948 1.391 . S
C947 C946 1.386 . S
C947 C951 1.393 . S
C948 H937 0.950 . S
C948 C946 1.391 . S
C948 C949 1.400 . S
C949 C943 1.491 . S
C949 C948 1.400 . S
C949 C950 1.398 . S
C950 H938 0.950 . S
C950 C949 1.398 . S
C950 C951 1.391 . S
C951 H939 0.950 . S
C951 C947 1.393 . S
C951 C950 1.391 . S
H952 C960 0.950 . S
H953 C965 0.950 . S
H954 C962 0.950 . S
H955 C964 0.950 . S
H956 C966 0.950 . S
H957 C968 0.950 . S
H958 C970 0.950 . S
H959 C971 0.950 . S
C960 H952 0.950 . S
C960 C961 1.386 . S
C960 C962 1.391 . S
C961 C960 1.386 . S
C961 C965 1.393 . S
C962 H954 0.950 . S
C962 C960 1.391 . S
C962 C963 1.400 . S
C963 C962 1.400 . S
C963 C964 1.398 . S
C963 C969 1.491 . S
C964 H955 0.950 . S
C964 C963 1.398 . S
C964 C965 1.391 . S
C965 H953 0.950 . S
C965 C961 1.393 . S
C965 C964 1.391 . S
C966 H956 0.950 . S
C966 C967 1.386 . S
C966 C968 1.391 . S
C967 C966 1.386 . S
C967 C971 1.393 . S
C968 H957 0.950 . S
C968 C966 1.391 . S
C968 C969 1.400 . S
C969 C963 1.491 . S
C969 C968 1.400 . S
C969 C970 1.398 . S
C970 H958 0.950 . S
C970 C969 1.398 . S
C970 C971 1.391 . S
C971 H959 0.950 . S
C971 C967 1.393 . S
C971 C970 1.391 . S
H972 C980 0.950 . S
H973 C985 0.950 . S
H974 C982 0.950 . S
H975 C984 0.950 . S
H976 C986 0.950 . S
H977 C988 0.950 . S
H978 C990 0.950 . S
H979 C991 0.950 . S
C980 H972 0.950 . S
C980 C981 1.386 . S
C980 C982 1.391 . S
C981 C980 1.386 . S
C981 C985 1.393 . S
C982 H974 0.950 . S
C982 C980 1.391 . S
C982 C983 1.400 . S
C983 C982 1.400 . S
C983 C984 1.398 . S
C983 C989 1.491 . S
C984 H975 0.950 . S
C984 C983 1.398 . S
C984 C985 1.391 . S
C985 H973 0.950 . S
C985 C981 1.393 . S
C985 C984 1.391 . S
C986 H976 0.950 . S
C986 C987 1.386 . S
C986 C988 1.391 . S
C987 C986 1.386 . S
C987 C991 1.393 . S
C988 H977 0.950 . S
C988 C986 1.391 . S
C988 C989 1.400 . S
C989 C983 1.491 . S
C989 C988 1.400 . S
C989 C990 1.398 . S
C990 H978 0.950 . S
C990 C989 1.398 . S
C990 C991 1.391 . S
C991 H979 0.950 . S
C991 C987 1.393 . S
C991 C990 1.391 . S
H992 C1000 0.950 . S
H993 C1005 0.950 . S
H994 C1002 0.950 . S
H995 C1004 0.950 . S
H996 C1006 0.950 . S
H997 C1008 0.950 . S
H998 C1010 0.950 . S
H999 C1011 0.950 . S
C1000 H992 0.950 . S
C1000 C1001 1.386 . S
C1000 C1002 1.391 . S
C1001 C1000 1.386 . S
C1001 C1005 1.393 . S
C1002 H994 0.950 . S
C1002 C1000 1.391 . S
C1002 C1003 1.400 . S
C1003 C1002 1.400 . S
C1003 C1004 1.398 . S
C1003 C1009 1.491 . S
C1004 H995 0.950 . S
C1004 C1003 1.398 . S
C1004 C1005 1.391 . S
C1005 H993 0.950 . S
C1005 C1001 1.393 . S
C1005 C1004 1.391 . S
C1006 H996 0.950 . S
C1006 C1007 1.386 . S
C1006 C1008 1.391 . S
C1007 C1006 1.386 . S
C1007 C1011 1.393 . S
C1008 H997 0.950 . S
C1008 C1006 1.391 . S
C1008 C1009 1.400 . S
C1009 C1003 1.491 . S
C1009 C1008 1.400 . S
C1009 C1010 1.398 . S
C1010 H998 0.950 . S
C1010 C1009 1.398 . S
C1010 C1011 1.391 . S
C1011 H999 0.950 . S
C1011 C1007 1.393 . S
C1011 C1010 1.391 . S
H1012 C1020 0.950 . S
H1013 C1025 0.950 . S
H1014 C1022 0.950 . S
H1015 C1024 0.950 . S
H1016 C1026 0.950 . S
H1017 C1028 0.950 . S
H1018 C1030 0.950 . S
H1019 C1031 0.950 . S
C1020 H1012 0.950 . S
C1020 C1021 1.386 . S
C1020 C1022 1.391 . S
C1021 C1020 1.386 . S
C1021 C1025 1.393 . S
C1022 H1014 0.950 . S
C1022 C1020 1.391 . S
C1022 C1023 1.400 . S
C1023 C1022 1.400 . S
C1023 C1024 1.398 . S
C1023 C1029 1.491 . S
C1024 H1015 0.950 . S
C1024 C1023 1.398 . S
C1024 C1025 1.391 . S
C1025 H1013 0.950 . S
C1025 C1021 1.393 . S
C1025 C1024 1.391 . S
C1026 H1016 0.950 . S
C1026 C1027 1.386 . S
C1026 C1028 1.391 . S
C1027 C1026 1.386 . S
C1027 C1031 1.393 . S
C1028 H1017 0.950 . S
C1028 C1026 1.391 . S
C1028 C1029 1.400 . S
C1029 C1023 1.491 . S
C1029 C1028 1.400 . S
C1029 C1030 1.398 . S
C1030 H1018 0.950 . S
C1030 C1029 1.398 . S
C1030 C1031 1.391 . S
C1031 H1019 0.950 . S
C1031 C1027 1.393 . S
C1031 C1030 1.391 . S
H1032 C1040 0.950 . S
H1033 C1045 0.950 . S
H1034 C1042 0.950 . S
H1035 C1044 0.950 . S
H1036 C1046 0.950 . S
H1037 C1048 0.950 . S
H1038 C1050 0.950 . S
H1039 C1051 0.950 . S
C1040 H1032 0.950 . S
C1040 C1041 1.386 . S
C1040 C1042 1.391 . S
C1041 C1040 1.386 . S
C1041 C1045 1.393 . S
C1042 H1034 0.950 . S
C1042 C1040 1.391 . S
C1042 C1043 1.400 . S
C1043 C1042 1.400 . S
C1043 C1044 1.398 . S
C1043 C1049 1.491 . S
C1044 H1035 0.950 . S
C1044 C1043 1.398 . S
C1044 C1045 1.391 . S
C1045 H1033 0.950 . S
C1045 C1041 1.393 . S
C1045 C1044 1.391 . S
C1046 H1036 0.950 . S
C1046 C1047 1.386 . S
C1046 C1048 1.391 . S
C1047 C1046 1.386 . S
C1047 C1051 1.393 . S
C1048 H1037 0.950 . S
C1048 C1046 1.391 . S
C1048 C1049 1.400 . S
C1049 C1043 1.491 . S
C1049 C1048 1.400 . S
C1049 C1050 1.398 . S
C1050 H1038 0.950 . S
C1050 C1049 1.398 . S
C1050 C1051 1.391 . S
C1051 H1039 0.950 . S
C1051 C1047 1.393 . S
C1051 C1050 1.391 . S
H1052 C1060 0.950 . S
H1053 C1065 0.950 . S
H1054 C1062 0.950 . S
H1055 C1064 0.950 . S
H1056 C1066 0.950 . S
H1057 C1068 0.950 . S
H1058 C1070 0.950 . S
H1059 C1071 0.950 . S
C1060 H1052 0.950 . S
C1060 C1061 1.386 . S
C1060 C1062 1.391 . S
C1061 C1060 1.386 . S
C1061 C1065 1.393 . S
C1062 H1054 0.950 . S
C1062 C1060 1.391 . S
C1062 C1063 1.400 . S
C1063 C1062 1.400 . S
C1063 C1064 1.398 . S
C1063 C1069 1.491 . S
C1064 H1055 0.950 . S
C1064 C1063 1.398 . S
C1064 C1065 1.391 . S
C1065 H1053 0.950 . S
C1065 C1061 1.393 . S
C1065 C1064 1.391 . S
C1066 H1056 0.950 . S
C1066 C1067 1.386 . S
C1066 C1068 1.391 . S
C1067 C1066 1.386 . S
C1067 C1071 1.393 . S
C1068 H1057 0.950 . S
C1068 C1066 1.391 . S
C1068 C1069 1.400 . S
C1069 C1063 1.491 . S
C1069 C1068 1.400 . S
C1069 C1070 1.398 . S
C1070 H1058 0.950 . S
C1070 C1069 1.398 . S
C1070 C1071 1.391 . S
C1071 H1059 0.950 . S
C1071 C1067 1.393 . S
C1071 C1070 1.391 . S
C601 C221 1.466 . S
C607 C330 1.468 . S
C627 C414 1.469 . S
C621 C241 1.459 . S
C647 C407 1.481 . S
C641 C157 1.458 . S
C661 C177 1.426 . S
C667 C323 1.479 . S
C687 C487 1.468 . S
C681 C93 1.435 . S
C707 C571 1.473 . S
C701 C113 1.477 . S
C721 C29 1.429 . S
C727 C564 1.478 . S
C741 C49 1.473 . S
C747 C480 1.487 . S
C767 C314 1.345 . S
C761 C61 1.506 . S
C787 C398 1.321 . S
C781 C17 1.459 . S
C807 C409 1.411 . S
C801 C125 1.514 . S
C827 C325 1.413 . S
C821 C81 1.492 . S
C847 C493 1.316 . S
C841 C189 1.444 . S
C861 C145 1.506 . S
C867 C577 1.351 . S
C887 C566 1.402 . S
C881 C253 1.489 . S
C901 C209 1.522 . S
C907 C482 1.404 . S
C927 C312 1.560 . S
C921 C23 1.500 . S
C947 C396 1.572 . S
C941 C55 1.557 . S
C961 C87 1.516 . S
C967 C403 1.533 . S
C987 C319 1.554 . S
C981 C119 1.540 . S
C1007 C491 1.556 . S
C1001 C151 1.545 . S
C1021 C183 1.514 . S
C1027 C575 1.567 . S
C1041 C215 1.538 . S
C1047 C582 1.543 . S
C1061 C247 1.500 . S
C1067 C498 1.546 . S
