# Generated by pormake.
# Topology ftw, (4,12)-cn, num edge types: 1
# Building blocks:
#     Node 0, Type 0, BuildingBlock: NAHDIM_clean_linker_0, # of connection points: 4
#     Node 1, Type 0, BuildingBlock: NAHDIM_clean_linker_0, # of connection points: 4
#     Node 2, Type 0, BuildingBlock: NAHDIM_clean_linker_0, # of connection points: 4
#     Node 3, Type 1, BuildingBlock: QEWDON_clean_sbu_0, # of connection points: 12
#     Edge 4, Type (0, 1), BuildingBlock: ZUJKAS_clean_linker_0, # of connection points: 2
#     Edge 5, Type (0, 1), BuildingBlock: ZUJKAS_clean_linker_0, # of connection points: 2
#     Edge 6, Type (0, 1), BuildingBlock: ZUJKAS_clean_linker_0, # of connection points: 2
#     Edge 7, Type (0, 1), BuildingBlock: ZUJKAS_clean_linker_0, # of connection points: 2
#     Edge 8, Type (0, 1), BuildingBlock: ZUJKAS_clean_linker_0, # of connection points: 2
#     Edge 9, Type (0, 1), BuildingBlock: ZUJKAS_clean_linker_0, # of connection points: 2
#     Edge 10, Type (0, 1), BuildingBlock: ZUJKAS_clean_linker_0, # of connection points: 2
#     Edge 11, Type (0, 1), BuildingBlock: ZUJKAS_clean_linker_0, # of connection points: 2
#     Edge 12, Type (0, 1), BuildingBlock: ZUJKAS_clean_linker_0, # of connection points: 2
#     Edge 13, Type (0, 1), BuildingBlock: ZUJKAS_clean_linker_0, # of connection points: 2
#     Edge 14, Type (0, 1), BuildingBlock: ZUJKAS_clean_linker_0, # of connection points: 2
#     Edge 15, Type (0, 1), BuildingBlock: ZUJKAS_clean_linker_0, # of connection points: 2
# Relax obj value: 0.035
# Max RMSD: 0.106
# Mean RMSD: 0.084
data_MOF--net-ftw--node1-QEWDON_clean_sbu_0--node2-NAHDIM_clean_linker_0--edge1-ZUJKAS_clean_linker_0
_symmetry_space_group_name_H-M    P1
_symmetry_Int_Tables_number       1
_symmetry_cell_setting            triclinic
loop_
_symmetry_equiv_pos_as_xyz
'x, y, z'
_cell_length_a     38.563406
_cell_length_b     37.986154
_cell_length_c     39.718164
_cell_angle_alpha  90.404862
_cell_angle_beta   89.539588
_cell_angle_gamma 89.813606
loop_
_atom_site_label
_atom_site_type_symbol
_atom_site_fract_x
_atom_site_fract_y
_atom_site_fract_z
_atom_type_partial_charge
C0 C 0.05211 0.6969 0.37855 0.0
C1 C 0.03221 0.67555 0.35212 0.0
C2 C 0.0025 0.62963 0.38488 0.0
C3 C 0.97034 0.61823 0.39698 0.0
C4 C 0.96739 0.58744 0.41612 0.0
C5 C 0.99748 0.5676 0.42335 0.0
C6 C 0.03014 0.57885 0.41118 0.0
C7 C 0.03236 0.60973 0.39212 0.0
C8 C 0.93219 0.57617 0.42881 0.0
C9 C 0.06274 0.55826 0.4185 0.0
C10 C 0.97191 0.28367 0.40464 0.0
C11 C 0.99215 0.31027 0.38354 0.0
C12 C 0.97707 0.37226 0.39366 0.0
C13 C 0.01036 0.38596 0.3991 0.0
C14 C 0.01467 0.4187 0.41511 0.0
C15 C 0.9851 0.43821 0.42551 0.0
C16 C 0.95156 0.42522 0.41858 0.0
C17 C 0.94802 0.39245 0.40249 0.0
C18 C 0.05079 0.43229 0.42135 0.0
C19 C 0.91951 0.44564 0.42885 0.0
C20 C 0.00936 0.37515 0.6403 0.0
C21 C 0.03852 0.38793 0.62279 0.0
C22 C 0.03736 0.42046 0.60626 0.0
C23 C 0.00619 0.44027 0.60649 0.0
C24 C 0.97694 0.42769 0.62436 0.0
C25 C 0.97906 0.39543 0.64129 0.0
C26 C 0.06936 0.43336 0.58805 0.0
C27 C 0.94321 0.44794 0.62499 0.0
C28 C 0.98785 0.71407 0.62007 0.0
C29 C 0.98831 0.69606 0.65447 0.0
C30 C 0.00965 0.63681 0.639 0.0
C31 C 0.03965 0.61634 0.63532 0.0
C32 C 0.03902 0.58369 0.61848 0.0
C33 C 0.0073 0.57084 0.60571 0.0
C34 C 0.97653 0.59072 0.61056 0.0
C35 C 0.97808 0.62368 0.62667 0.0
C36 C 0.07236 0.5633 0.61374 0.0
C37 C 0.94196 0.57741 0.5983 0.0
C38 C 0.99498 0.53522 0.44389 0.0
C39 C 0.99058 0.50309 0.42712 0.0
C40 C 0.98926 0.47147 0.44484 0.0
C41 C 0.99234 0.47171 0.48031 0.0
C42 C 0.99119 0.44035 0.49888 0.0
C43 C 0.99476 0.44079 0.53369 0.0
C44 C 0.99956 0.47262 0.55134 0.0
C45 C 0.00385 0.47326 0.58669 0.0
C46 C 0.00672 0.50552 0.60365 0.0
C47 C 0.00633 0.53735 0.58611 0.0
C48 C 0.00394 0.53706 0.55055 0.0
C49 C 0.00535 0.5684 0.53192 0.0
C50 C 0.00245 0.56789 0.49702 0.0
C51 C 0.99798 0.53603 0.47937 0.0
C52 C 0.99673 0.50413 0.49761 0.0
C53 C 6e-05 0.50461 0.5332 0.0
C54 C 0.03204 0.29701 0.6217 0.0
C55 C 0.03415 0.31732 0.6551 0.0
O56 O 0.00338 0.65987 0.36666 0.0
O57 O 0.01249 0.66889 0.65434 0.0
O58 O 0.00905 0.34357 0.65634 0.0
O59 O 0.97187 0.34015 0.37938 0.0
H60 H 0.04969 0.65496 0.34131 0.0
H61 H 0.06165 0.67949 0.3988 0.0
H62 H 0.03515 0.71738 0.3902 0.0
H63 H 0.07491 0.70985 0.36673 0.0
H64 H 0.94745 0.63368 0.39139 0.0
H65 H 0.05758 0.61803 0.38326 0.0
H66 H 0.92641 0.54919 0.41953 0.0
H67 H 0.91121 0.59423 0.42064 0.0
H68 H 0.93224 0.57531 0.45675 0.0
H69 H 0.08625 0.57054 0.40737 0.0
H70 H 0.06032 0.53108 0.40834 0.0
H71 H 0.06623 0.55623 0.44615 0.0
H72 H 0.01626 0.31629 0.39759 0.0
H73 H 0.98759 0.25941 0.40831 0.0
H74 H 0.94717 0.27653 0.3922 0.0
H75 H 0.96581 0.29522 0.42978 0.0
H76 H 0.03301 0.37141 0.39065 0.0
H77 H 0.92245 0.38197 0.3975 0.0
H78 H 0.05367 0.45892 0.41034 0.0
H79 H 0.07111 0.41472 0.41044 0.0
H80 H 0.0551 0.43478 0.44887 0.0
H81 H 0.89528 0.43222 0.42108 0.0
H82 H 0.92018 0.47222 0.4174 0.0
H83 H 0.91902 0.44926 0.45661 0.0
H84 H 0.06034 0.32916 0.65756 0.0
H85 H 0.06229 0.3728 0.62168 0.0
H86 H 0.95673 0.38548 0.6549 0.0
H87 H 0.06538 0.43123 0.56047 0.0
H88 H 0.09281 0.41784 0.59457 0.0
H89 H 0.07412 0.4615 0.59417 0.0
H90 H 0.92223 0.43353 0.6383 0.0
H91 H 0.93478 0.45337 0.59885 0.0
H92 H 0.94706 0.47369 0.63778 0.0
H93 H 0.96211 0.68547 0.66019 0.0
H94 H 0.96879 0.73608 0.62021 0.0
H95 H 0.98022 0.69504 0.60015 0.0
H96 H 0.01394 0.72458 0.61371 0.0
H97 H 0.06386 0.62648 0.64503 0.0
H98 H 0.95444 0.63879 0.62937 0.0
H99 H 0.07636 0.55681 0.58667 0.0
H100 H 0.07069 0.53808 0.6276 0.0
H101 H 0.09525 0.5781 0.62295 0.0
H102 H 0.91991 0.5928 0.60905 0.0
H103 H 0.93852 0.54928 0.60496 0.0
H104 H 0.94103 0.5794 0.57047 0.0
H105 H 0.98846 0.50265 0.3999 0.0
H106 H 0.98763 0.41504 0.48671 0.0
H107 H 0.99365 0.41581 0.54659 0.0
H108 H 0.0092 0.50587 0.63084 0.0
H109 H 0.00883 0.59371 0.54409 0.0
H110 H 0.00369 0.59284 0.48406 0.0
H111 H 0.05189 0.27575 0.6208 0.0
H112 H 0.03693 0.31488 0.60021 0.0
H113 H 0.00593 0.28514 0.61868 0.0
C114 C 0.6963 0.07061 0.64629 0.0
C115 C 0.67937 0.04928 0.67459 0.0
C116 C 0.6346 0.01468 0.64507 0.0
C117 C 0.62617 0.98103 0.63339 0.0
C118 C 0.59554 0.97487 0.61547 0.0
C119 C 0.57272 0.00321 0.60907 0.0
C120 C 0.5808 0.03734 0.62109 0.0
C121 C 0.61165 0.04278 0.63897 0.0
C122 C 0.5877 0.93813 0.6031 0.0
C123 C 0.55694 0.06809 0.6147 0.0
C124 C 0.30856 0.92863 0.63038 0.0
C125 C 0.3229 0.95855 0.65209 0.0
C126 C 0.38588 0.9587 0.64501 0.0
C127 C 0.39171 0.99277 0.63282 0.0
C128 C 0.42242 0.00086 0.6153 0.0
C129 C 0.44765 0.97423 0.60965 0.0
C130 C 0.4422 0.94013 0.6228 0.0
C131 C 0.41153 0.93298 0.64074 0.0
C132 C 0.42789 0.03787 0.60276 0.0
C133 C 0.46857 0.91115 0.61752 0.0
C134 C 0.38244 0.9818 0.39107 0.0
C135 C 0.38876 0.01161 0.41138 0.0
C136 C 0.41992 0.01514 0.42906 0.0
C137 C 0.44479 0.98765 0.42772 0.0
C138 C 0.43838 0.95741 0.40775 0.0
C139 C 0.40746 0.95512 0.38938 0.0
C140 C 0.42615 0.04842 0.44917 0.0
C141 C 0.46408 0.92741 0.40593 0.0
C142 C 0.70613 0.06786 0.40482 0.0
C143 C 0.69209 0.03914 0.38146 0.0
C144 C 0.62953 0.03642 0.39024 0.0
C145 C 0.60353 0.06105 0.3975 0.0
C146 C 0.57385 0.05164 0.41601 0.0
C147 C 0.56977 0.0164 0.4267 0.0
C148 C 0.59536 0.99098 0.41814 0.0
C149 C 0.62506 0.0013 0.40007 0.0
C150 C 0.54705 0.07941 0.42446 0.0
C151 C 0.5913 0.95295 0.42811 0.0
C152 C 0.54072 0.99718 0.58927 0.0
C153 C 0.51018 0.98893 0.60669 0.0
C154 C 0.4794 0.98192 0.58953 0.0
C155 C 0.47904 0.9828 0.55391 0.0
C156 C 0.44889 0.9747 0.53576 0.0
C157 C 0.44847 0.97671 0.50081 0.0
C158 C 0.47812 0.98707 0.48261 0.0
C159 C 0.47746 0.9908 0.44718 0.0
C160 C 0.50777 -5e-05 0.4298 0.0
C161 C 0.53877 0.00619 0.44684 0.0
C162 C 0.53962 0.00365 0.48237 0.0
C163 C 0.57004 0.01078 0.50047 0.0
C164 C 0.57054 0.00847 0.53543 0.0
C165 C 0.54057 -0.00078 0.5537 0.0
C166 C 0.50961 0.99195 0.53599 0.0
C167 C 0.50917 0.99407 0.50028 0.0
C168 C 0.30045 0.9898 0.40325 0.0
C169 C 0.32371 -0.00096 0.37317 0.0
O170 O 0.66509 0.01858 0.66173 0.0
O171 O 0.65814 0.04712 0.37301 0.0
O172 O 0.35296 0.97764 0.37273 0.0
O173 O 0.35637 0.95014 0.66192 0.0
H174 H 0.65876 0.06542 0.68703 0.0
H175 H 0.67672 0.07837 0.62741 0.0
H176 H 0.7168 0.05484 0.63331 0.0
H177 H 0.70805 0.095 0.65669 0.0
H178 H 0.64393 0.95951 0.63821 0.0
H179 H 0.61759 0.06904 0.6478 0.0
H180 H 0.56206 0.92963 0.61295 0.0
H181 H 0.60766 0.91873 0.6109 0.0
H182 H 0.58624 0.93798 0.57519 0.0
H183 H 0.56678 0.09303 0.62577 0.0
H184 H 0.53088 0.06263 0.62552 0.0
H185 H 0.55378 0.07164 0.58717 0.0
H186 H 0.32274 0.98285 0.63664 0.0
H187 H 0.28177 0.93491 0.62216 0.0
H188 H 0.30824 0.90356 0.64465 0.0
H189 H 0.32508 0.92499 0.60757 0.0
H190 H 0.37263 0.01324 0.63747 0.0
H191 H 0.40702 0.90694 0.65083 0.0
H192 H 0.4539 0.04752 0.61022 0.0
H193 H 0.40789 0.05645 0.61263 0.0
H194 H 0.42687 0.03795 0.57485 0.0
H195 H 0.45932 0.88543 0.62719 0.0
H196 H 0.49293 0.91814 0.63064 0.0
H197 H 0.47481 0.90828 0.59029 0.0
H198 H 0.33142 0.0271 0.3753 0.0
H199 H 0.36981 0.03249 0.41365 0.0
H200 H 0.40249 0.93218 0.3738 0.0
H201 H 0.42284 0.04284 0.47638 0.0
H202 H 0.40775 0.06975 0.44242 0.0
H203 H 0.45302 0.05805 0.44514 0.0
H204 H 0.45353 0.90412 0.39242 0.0
H205 H 0.47168 0.9194 0.43169 0.0
H206 H 0.48789 0.93619 0.39258 0.0
H207 H 0.69339 0.01387 0.39538 0.0
H208 H 0.73344 0.06202 0.41164 0.0
H209 H 0.69038 0.069 0.42835 0.0
H210 H 0.70495 0.09402 0.39253 0.0
H211 H 0.60699 0.08797 0.38927 0.0
H212 H 0.64441 0.98178 0.39316 0.0
H213 H 0.54187 0.07985 0.45201 0.0
H214 H 0.52232 0.07292 0.41175 0.0
H215 H 0.5553 0.1061 0.4165 0.0
H216 H 0.61188 0.93586 0.41696 0.0
H217 H 0.5656 0.94299 0.42003 0.0
H218 H 0.59238 0.9508 0.45593 0.0
H219 H 0.51038 0.98793 0.63399 0.0
H220 H 0.4252 0.96684 0.54839 0.0
H221 H 0.42449 0.97026 0.48822 0.0
H222 H 0.50708 0.00286 0.40265 0.0
H223 H 0.59382 0.01833 0.48783 0.0
H224 H 0.5947 0.01428 0.54797 0.0
H225 H 0.27686 0.00668 0.40354 0.0
H226 H 0.31455 0.99429 0.42715 0.0
H227 H 0.29253 0.96172 0.40202 0.0
C228 C 0.63981 0.73915 0.95481 0.0
C229 C 0.64486 0.70999 0.98074 0.0
C230 C 0.61887 0.65171 0.97997 0.0
C231 C 0.61785 0.6464 0.01492 0.0
C232 C 0.59569 0.62122 0.02905 0.0
C233 C 0.5741 0.60109 0.00778 0.0
C234 C 0.57615 0.60536 0.97242 0.0
C235 C 0.59902 0.63032 0.95896 0.0
C236 C 0.59466 0.61678 0.06677 0.0
C237 C 0.55331 0.58452 0.94896 0.0
C238 C 0.31406 0.67682 0.03716 0.0
C239 C 0.33289 0.64295 0.03401 0.0
C240 C 0.38854 0.6215 0.05521 0.0
C241 C 0.39585 0.5986 0.02813 0.0
C242 C 0.42875 0.58344 0.02419 0.0
C243 C 0.45432 0.58966 0.04893 0.0
C244 C 0.44666 0.61156 0.07695 0.0
C245 C 0.41381 0.62737 0.0796 0.0
C246 C 0.43597 0.56083 0.99342 0.0
C247 C 0.47312 0.61829 0.10398 0.0
C248 C 0.40571 0.37878 0.07777 0.0
C249 C 0.40972 0.38972 0.04435 0.0
C250 C 0.4419 0.4017 0.0325 0.0
C251 C 0.4704 0.40305 0.05475 0.0
C252 C 0.46708 0.38909 0.08754 0.0
C253 C 0.43467 0.37672 0.09854 0.0
C254 C 0.44479 0.41522 0.99696 0.0
C255 C 0.49705 0.38966 0.11167 0.0
C256 C 0.73623 0.39377 0.93034 0.0
C257 C 0.711 0.3865 0.95934 0.0
C258 C 0.64821 0.39398 0.96637 0.0
C259 C 0.61717 0.39964 0.94941 0.0
C260 C 0.58673 0.40867 0.96698 0.0
C261 C 0.58748 0.41184 0.00249 0.0
C262 C 0.61816 0.40366 0.02003 0.0
C263 C 0.64832 0.39497 0.00181 0.0
C264 C 0.55424 0.4167 0.94752 0.0
C265 C 0.61955 0.40615 0.05792 0.0
C266 C 0.54742 0.57776 0.02265 0.0
C267 C 0.51605 0.59324 0.03266 0.0
C268 C 0.48886 0.57288 0.04519 0.0
C269 C 0.4933 0.53626 0.04901 0.0
C270 C 0.46698 0.51537 0.06303 0.0
C271 C 0.46993 0.47894 0.06318 0.0
C272 C 0.49924 0.46204 0.04911 0.0
C273 C 0.50089 0.42495 0.0459 0.0
C274 C 0.53031 0.40896 0.03163 0.0
C275 C 0.55825 0.42931 0.02039 0.0
C276 C 0.55706 0.46643 0.02349 0.0
C277 C 0.58472 0.48767 0.01236 0.0
C278 C 0.58219 0.52421 0.01319 0.0
C279 C 0.55168 0.54087 0.02456 0.0
C280 C 0.52427 0.52003 0.03744 0.0
C281 C 0.5271 0.4828 0.03717 0.0
C282 C 0.33552 0.40865 0.12139 0.0
C283 C 0.34476 0.39205 0.08729 0.0
O284 O 0.63801 0.67772 0.96583 0.0
O285 O 0.67736 0.38839 0.94758 0.0
O286 O 0.37406 0.37109 0.09079 0.0
O287 O 0.3577 0.63849 0.05872 0.0
H288 H 0.62559 0.71568 0.00117 0.0
H289 H 0.61233 0.73969 0.94664 0.0
H290 H 0.65642 0.73466 0.9322 0.0
H291 H 0.64613 0.76521 0.96604 0.0
H292 H 0.63405 0.66207 0.03125 0.0
H293 H 0.60037 0.63436 0.932 0.0
H294 H 0.5694 0.62654 0.07674 0.0
H295 H 0.61579 0.63145 0.07948 0.0
H296 H 0.5968 0.58847 0.07324 0.0
H297 H 0.55682 0.59232 0.92225 0.0
H298 H 0.52565 0.58827 0.95614 0.0
H299 H 0.55932 0.55605 0.95113 0.0
H300 H 0.34206 0.63735 0.00784 0.0
H301 H 0.32111 0.69188 0.01376 0.0
H302 H 0.32978 0.69418 0.05436 0.0
H303 H 0.26307 0.66164 0.04838 0.0
H304 H 0.37614 0.59226 0.00988 0.0
H305 H 0.40777 0.6447 0.10065 0.0
H306 H 0.43511 0.53265 1.00053 0.0
H307 H 0.46213 0.56632 0.98284 0.0
H308 H 0.4165 0.56513 0.97339 0.0
H309 H 0.46193 0.63295 0.12583 0.0
H310 H 0.49486 0.63386 0.09336 0.0
H311 H 0.48401 0.59296 0.11294 0.0
H312 H 0.34982 0.41413 0.06959 0.0
H313 H 0.38746 0.38984 0.02787 0.0
H314 H 0.43135 0.36744 0.1241 0.0
H315 H 0.44515 0.44444 0.99748 0.0
H316 H 0.42267 0.40657 0.98121 0.0
H317 H 0.46935 0.40604 0.98501 0.0
H318 H 0.49126 0.37499 0.13514 0.0
H319 H 0.50319 0.41735 0.11843 0.0
H320 H 0.52048 0.37805 0.09946 0.0
H321 H 0.71524 0.40766 0.97842 0.0
H322 H 0.76343 0.39227 0.93928 0.0
H323 H 0.73161 0.42063 0.92042 0.0
H324 H 0.73271 0.3745 0.90947 0.0
H325 H 0.61719 0.39826 0.92214 0.0
H326 H 0.67191 0.3899 0.01547 0.0
H327 H 0.5477 0.44507 0.95031 0.0
H328 H 0.53215 0.40141 0.95786 0.0
H329 H 0.55717 0.41044 0.92028 0.0
H330 H 0.64376 0.39454 0.06808 0.0
H331 H 0.59692 0.39252 0.06929 0.0
H332 H 0.61815 0.43425 0.06574 0.0
H333 H 0.51223 0.62132 0.0293 0.0
H334 H 0.4435 0.52696 0.07343 0.0
H335 H 0.4485 0.46426 0.07377 0.0
H336 H 0.53105 0.3806 0.02836 0.0
H337 H 0.6085 0.47637 0.00239 0.0
H338 H 0.60405 0.53921 0.0039 0.0
H339 H 0.31223 0.42576 0.11915 0.0
H340 H 0.35743 0.4251 0.13027 0.0
H341 H 0.3303 0.38798 0.14043 0.0
Zn342 Zn 0.06063 0.08441 0.97858 0.0
Zn343 Zn 0.05492 0.08311 0.05973 0.0
O344 O 0.05788 0.05213 0.01893 0.0
H345 H 0.05036 0.02793 0.01772 0.0
C346 C 0.97313 0.09191 0.93808 0.0
O347 O 0.98776 0.09947 0.96699 0.0
Zn348 Zn 0.9663 0.93285 0.0642 0.0
Zn349 Zn 0.95923 0.9242 0.98475 0.0
O350 O 0.95631 0.96016 0.02278 0.0
H351 H 0.9614 0.98482 0.02001 0.0
Zn352 Zn 0.92995 0.05097 0.98319 0.0
O353 O 0.9634 0.05388 0.02225 0.0
Zn354 Zn 0.9342 0.05284 0.06392 0.0
H355 H 0.9873 0.04638 0.02064 0.0
Zn356 Zn 0.10163 0.96391 0.97907 0.0
O357 O 0.06413 0.95772 0.01496 0.0
H358 H 0.03937 0.95879 0.01154 0.0
Zn359 Zn 0.08947 0.96178 0.05853 0.0
C360 C 0.05999 0.94427 0.91959 0.0
O361 O 0.03442 0.95772 0.93763 0.0
O362 O 0.07494 0.13486 0.99199 0.0
O363 O 0.06965 0.13295 0.04785 0.0
O364 O 0.95075 0.87367 0.00175 0.0
O365 O 0.95449 0.88132 0.0572 0.0
O366 O 0.88041 0.06579 0.9971 0.0
O367 O 0.88506 0.06781 0.05284 0.0
C368 C 0.0978 0.03302 0.09515 0.0
O369 O 0.14951 0.94866 0.99654 0.0
O370 O 0.13933 0.94701 0.05163 0.0
O371 O 0.93609 0.93848 0.93957 0.0
C372 C 0.07716 0.14954 0.02087 0.0
O373 O 0.08215 0.06311 0.93475 0.0
C374 C 0.92803 0.98316 0.10455 0.0
O375 O 0.94772 0.07069 0.93767 0.0
C376 C 0.94918 0.86158 0.03161 0.0
O377 O 0.09052 0.9448 0.93134 0.0
C378 C 0.9853 0.09601 0.09654 0.0
O379 O 0.08821 0.06502 0.09471 0.0
O380 O 0.08488 0.01225 0.07342 0.0
C381 C 0.86735 0.07191 0.02614 0.0
O382 O 0.93754 0.95116 0.10318 0.0
O383 O 0.93743 0.00308 0.0806 0.0
C384 C 0.03611 0.92282 0.09285 0.0
O385 O 0.95341 0.08767 0.09737 0.0
O386 O 0.00505 0.08036 0.07543 0.0
C387 C 0.15957 0.9425 0.02642 0.0
O388 O 0.0685 0.92836 0.0922 0.0
O389 O 0.01688 0.93945 0.07266 0.0
C390 C 0.91696 0.96581 0.93952 0.0
O391 O 0.91292 0.98382 0.96763 0.0
C392 C 0.10661 0.0409 0.93797 0.0
O393 O 0.11679 0.03265 0.96841 0.0
H394 H 0.95084 0.30347 0.32772 0.0
H395 H 0.96404 0.27245 0.27492 0.0
H396 H 0.06677 0.24875 0.31059 0.0
H397 H 0.05364 0.27972 0.36365 0.0
H398 H 0.02004 0.2815 0.22569 0.0
H399 H 0.02208 0.15157 0.2901 0.0
H400 H 0.00379 0.19044 0.30978 0.0
H401 H 0.04997 0.18541 0.30637 0.0
C402 C 0.97644 0.29221 0.32405 0.0
C403 C 0.00139 0.29437 0.34961 0.0
C404 C 0.98394 0.27449 0.29394 0.0
C405 C 0.0163 0.25822 0.28898 0.0
C406 C 0.04157 0.26098 0.31406 0.0
H407 H 0.04764 0.10039 0.12886 0.0
H408 H 0.0643 0.14351 0.17202 0.0
C409 C 0.03411 0.27878 0.34422 0.0
C410 C 0.02239 0.23658 0.25838 0.0
H411 H 0.02644 0.15121 0.23131 0.0
C412 C 0.02198 0.25304 0.22686 0.0
C413 C 0.02521 0.1995 0.26006 0.0
C414 C 0.02511 0.18047 0.29331 0.0
C415 C 0.02288 0.23323 0.1969 0.0
C416 C 0.02352 0.19607 0.19863 0.0
C417 C 0.026 0.17973 0.2301 0.0
C418 C 0.01669 0.17358 0.16883 0.0
C419 C 0.02228 0.25218 0.16368 0.0
C420 C 0.98465 0.17637 0.15258 0.0
C421 C 0.97526 0.15184 0.12807 0.0
C422 C 0.99776 0.1241 0.11918 0.0
C423 C 0.03035 0.12202 0.13451 0.0
C424 C 0.0397 0.14647 0.15935 0.0
H425 H 0.0337 0.2789 0.16596 0.0
H426 H 0.03667 0.23721 0.14389 0.0
H427 H 0.995 0.25528 0.15549 0.0
H428 H 0.96613 0.19651 0.16004 0.0
H429 H 0.94988 0.15398 0.11672 0.0
H430 H 0.74137 0.98928 0.36626 0.0
H431 H 0.77967 0.98579 0.3169 0.0
H432 H 0.73239 0.07946 0.27688 0.0
H433 H 0.69402 0.0832 0.32647 0.0
H434 H 0.75936 0.98126 0.24751 0.0
H435 H 0.83811 0.1006 0.27466 0.0
H436 H 0.81171 0.07965 0.30645 0.0
H437 H 0.79175 0.10598 0.27462 0.0
C438 C 0.73898 0.00899 0.34684 0.0
C439 C 0.7144 0.03624 0.34999 0.0
C440 C 0.76092 0.00704 0.31873 0.0
C441 C 0.75907 0.03254 0.29342 0.0
C442 C 0.73454 0.05978 0.29636 0.0
H443 H 0.89097 0.04525 0.11163 0.0
H444 H 0.84845 0.0599 0.1559 0.0
C445 C 0.71247 0.06171 0.32449 0.0
C446 C 0.78253 0.02988 0.26375 0.0
H447 H 0.85259 0.06812 0.2257 0.0
C448 C 0.77961 0.00035 0.24262 0.0
C449 C 0.80866 0.05505 0.25724 0.0
C450 C 0.81309 0.08706 0.27947 0.0
C451 C 0.80253 0.9949 0.21548 0.0
C452 C 0.82972 0.01919 0.20984 0.0
C453 C 0.83189 0.04945 0.23021 0.0
C454 C 0.85718 0.01225 0.18422 0.0
C455 C 0.79737 0.96307 0.19313 0.0
C456 C 0.87717 0.98146 0.18618 0.0
C457 C 0.90093 0.97289 0.16078 0.0
C458 C 0.90572 0.99519 0.133 0.0
C459 C 0.88743 0.02725 0.13222 0.0
C460 C 0.86321 0.03567 0.15759 0.0
H461 H 0.77004 0.95391 0.1939 0.0
H462 H 0.80458 0.96874 0.1666 0.0
H463 H 0.81396 0.9412 0.20213 0.0
H464 H 0.87383 0.96358 0.20708 0.0
H465 H 0.9151 0.94831 0.16267 0.0
H466 H 0.05982 0.68016 0.28851 0.0
H467 H 0.04521 0.722 0.24425 0.0
H468 H 0.96549 0.76737 0.3079 0.0
H469 H 0.98002 0.72541 0.35247 0.0
H470 H 0.97823 0.73719 0.21153 0.0
H471 H 0.03317 0.84978 0.28427 0.0
H472 H 0.04293 0.80461 0.29448 0.0
H473 H 0.0012 0.82284 0.30484 0.0
C474 C 0.03884 0.6987 0.2929 0.0
C475 C 0.02091 0.69939 0.32385 0.0
C476 C 0.03051 0.72253 0.26761 0.0
C477 C 0.00439 0.74778 0.27291 0.0
C478 C 0.98584 0.74814 0.30345 0.0
H479 H 0.98666 0.9317 0.14143 0.0
H480 H 0.96877 0.88868 0.18404 0.0
C481 C 0.99407 0.72416 0.32877 0.0
C482 C 0.99838 0.77488 0.24703 0.0
H483 H 0.01579 0.86072 0.22899 0.0
C484 C 0.98591 0.76435 0.21544 0.0
C485 C 0.0082 0.8103 0.25236 0.0
C486 C 0.02232 0.82276 0.2857 0.0
C487 C 0.98428 0.7881 0.18856 0.0
C488 C 0.99611 0.82295 0.19334 0.0
C489 C 0.00672 0.83396 0.22544 0.0
C490 C 0.00202 0.84704 0.16473 0.0
C491 C 0.97061 0.77554 0.15511 0.0
C492 C 0.02639 0.83781 0.13973 0.0
C493 C 0.03641 0.86223 0.11548 0.0
C494 C 0.02201 0.89615 0.11568 0.0
C495 C 0.99697 0.90521 0.14007 0.0
C496 C 0.98709 0.88082 0.16455 0.0
H497 H 0.95241 0.75317 0.15831 0.0
H498 H 0.95709 0.79707 0.14167 0.0
H499 H 0.9926 0.76628 0.13915 0.0
H500 H 0.03896 0.81227 0.13993 0.0
H501 H 0.05614 0.85495 0.09712 0.0
H502 H 0.29437 0.05083 0.3353 0.0
H503 H 0.26009 0.04497 0.28416 0.0
H504 H 0.27258 0.93218 0.28694 0.0
H505 H 0.30706 0.9379 0.33857 0.0
H506 H 0.28109 0.01153 0.22099 0.0
H507 H 0.16549 0.94934 0.28094 0.0
H508 H 0.19752 0.97262 0.30536 0.0
H509 H 0.20744 0.92998 0.28813 0.0
C510 C 0.29011 0.02479 0.32488 0.0
C511 C 0.30387 0.99487 0.34063 0.0
C512 C 0.27048 0.02147 0.29572 0.0
C513 C 0.26375 0.98817 0.28186 0.0
C514 C 0.27732 0.95811 0.29741 0.0
H515 H 0.11822 0.96562 0.11226 0.0
H516 H 0.16141 0.9487 0.15411 0.0
C517 C 0.29715 0.96141 0.32669 0.0
C518 C 0.24234 0.98563 0.25115 0.0
H519 H 0.1606 0.96623 0.22442 0.0
C520 C 0.25494 0.0011 0.22154 0.0
C521 C 0.20837 0.97171 0.2519 0.0
C522 C 0.19361 0.95507 0.28324 0.0
C523 C 0.23391 0.00452 0.19311 0.0
C524 C 0.19918 0.99278 0.19459 0.0
C525 C 0.18722 0.97532 0.22345 0.0
C526 C 0.17392 0.00225 0.16822 0.0
C527 C 0.24874 0.02161 0.16202 0.0
C528 C 0.16635 0.03782 0.16259 0.0
C529 C 0.14184 0.04746 0.13873 0.0
C530 C 0.12414 0.02174 0.11994 0.0
C531 C 0.13162 0.98605 0.12577 0.0
C532 C 0.15621 0.97635 0.14984 0.0
H533 H 0.27741 0.01875 0.16084 0.0
H534 H 0.23751 0.01009 0.13877 0.0
H535 H 0.24257 0.05016 0.16267 0.0
H536 H 0.17914 0.05824 0.17702 0.0
H537 H 0.13672 0.07524 0.13515 0.0
H538 H 0.05268 0.71935 0.67548 0.0
H539 H 0.06534 0.76394 0.71867 0.0
H540 H 0.95575 0.77982 0.73536 0.0
H541 H 0.943 0.73487 0.69287 0.0
H542 H 0.04619 0.83484 0.72221 0.0
H543 H 0.99104 0.76107 0.83004 0.0
H544 H 0.00025 0.74056 0.78982 0.0
H545 H 0.96141 0.76628 0.79581 0.0
C546 C 0.03134 0.73197 0.68879 0.0
C547 C 0.99683 0.7228 0.68164 0.0
C548 C 0.03859 0.75758 0.71324 0.0
C549 C 0.01149 0.77461 0.73074 0.0
C550 C 0.97706 0.7663 0.72285 0.0
H551 H 0.99691 0.92897 0.89207 0.0
H552 H 0.98544 0.89072 0.84366 0.0
C553 C 0.96981 0.74066 0.69857 0.0
C554 C 0.01903 0.80136 0.75704 0.0
H555 H 0.00551 0.82084 0.84015 0.0
C556 C 0.03745 0.83176 0.74804 0.0
C557 C 0.00763 0.79724 0.79073 0.0
C558 C 0.98928 0.76439 0.80233 0.0
C559 C 0.04413 0.85853 0.77172 0.0
C560 C 0.03241 0.85451 0.80531 0.0
C561 C 0.01416 0.82403 0.8143 0.0
C562 C 0.03955 0.88095 0.83199 0.0
C563 C 0.06313 0.8911 0.76044 0.0
C564 C 0.07379 0.88858 0.84117 0.0
C565 C 0.08044 0.91045 0.86879 0.0
C566 C 0.05294 0.92487 0.88794 0.0
C567 C 0.01867 0.91825 0.87792 0.0
C568 C 0.01206 0.89634 0.85029 0.0
H569 H 0.06146 0.8947 0.73276 0.0
H570 H 0.05271 0.91503 0.7732 0.0
H571 H 0.09094 0.8885 0.76697 0.0
H572 H 0.0954 0.87656 0.82778 0.0
H573 H 0.10714 0.91513 0.87575 0.0
H574 H 0.26842 0.00448 0.65901 0.0
H575 H 0.22954 0.01306 0.7076 0.0
H576 H 0.28512 0.93311 0.76183 0.0
H577 H 0.32389 0.92415 0.71324 0.0
H578 H 0.18757 0.95725 0.7436 0.0
H579 H 0.28569 0.0258 0.8224 0.0
H580 H 0.28941 0.02307 0.77709 0.0
H581 H 0.29873 0.98522 0.80225 0.0
C582 C 0.27249 0.98896 0.68142 0.0
C583 C 0.29981 0.96439 0.68269 0.0
C584 C 0.25017 0.99371 0.709 0.0
C585 C 0.25476 0.97398 0.73834 0.0
C586 C 0.28149 0.94889 0.73952 0.0
H587 H 0.15962 0.99304 0.93677 0.0
H588 H 0.19309 0.9725 0.88794 0.0
C589 C 0.3037 0.94395 0.71185 0.0
C590 C 0.23189 0.98012 0.76793 0.0
H591 H 0.23097 0.0158 0.84698 0.0
C592 C 0.19697 0.96998 0.76627 0.0
C593 C 0.24439 0.99655 0.79742 0.0
C594 C 0.28153 0.00857 0.80008 0.0
C595 C 0.17415 0.97579 0.79356 0.0
C596 C 0.18651 0.99292 0.82283 0.0
C597 C 0.22156 0.00264 0.82453 0.0
C598 C 0.16352 0.00217 0.85171 0.0
C599 C 0.13722 0.96308 0.79104 0.0
C600 C 0.13549 0.02537 0.84754 0.0
C601 C 0.11623 0.03716 0.87543 0.0
C602 C 0.1249 0.0262 0.90807 0.0
C603 C 0.15236 0.00217 0.91203 0.0
C604 C 0.17151 0.99034 0.88414 0.0
H605 H 0.13458 0.9421 0.7716 0.0
H606 H 0.12779 0.95278 0.81554 0.0
H607 H 0.12026 0.98538 0.78381 0.0
H608 H 0.12926 0.03539 0.82284 0.0
H609 H 0.09523 0.05565 0.8715 0.0
H610 H 0.97272 0.29405 0.68341 0.0
H611 H 0.96504 0.25314 0.73032 0.0
H612 H 0.07594 0.2413 0.73763 0.0
H613 H 0.08384 0.28239 0.69083 0.0
H614 H 0.03511 0.17598 0.73925 0.0
H615 H 0.98994 0.27835 0.8305 0.0
H616 H 0.96809 0.27749 0.79066 0.0
H617 H 0.01317 0.28898 0.79226 0.0
C618 C 0.99546 0.28305 0.69528 0.0
C619 C 0.02895 0.29227 0.6842 0.0
C620 C 0.99103 0.25963 0.72195 0.0
C621 C 0.01995 0.2447 0.73769 0.0
C622 C 0.05333 0.25284 0.72595 0.0
H623 H 0.02377 0.14154 0.93158 0.0
H624 H 0.03766 0.17642 0.88181 0.0
C625 C 0.0578 0.27641 0.69942 0.0
C626 C 0.01537 0.22093 0.76671 0.0
H627 H 0.98724 0.21915 0.84835 0.0
C628 C 0.02471 0.18534 0.76315 0.0
C629 C 0.00218 0.23342 0.79789 0.0
C630 C 0.99298 0.27169 0.80335 0.0
C631 C 0.02053 0.16169 0.78992 0.0
C632 C 0.00654 0.17406 0.82082 0.0
C633 C 0.99781 0.20977 0.82452 0.0
C634 C 0.00043 0.15047 0.84973 0.0
C635 C 0.0314 0.12379 0.78516 0.0
C636 C 0.97512 0.12409 0.848 0.0
C637 C 0.96697 0.10417 0.87644 0.0
C638 C 0.98397 0.11043 0.90711 0.0
C639 C 0.0101 0.13613 0.9084 0.0
C640 C 0.0181 0.1561 0.88 0.0
H641 H 0.04848 0.1202 0.76272 0.0
H642 H 0.0452 0.11408 0.80772 0.0
H643 H 0.00797 0.10732 0.78164 0.0
H644 H 0.96086 0.11969 0.82497 0.0
H645 H 0.94672 0.08457 0.87461 0.0
H646 H 0.7281 0.99595 0.67269 0.0
H647 H 0.77225 0.98205 0.71467 0.0
H648 H 0.73686 0.06913 0.77627 0.0
H649 H 0.69269 0.08323 0.73431 0.0
H650 H 0.81096 0.06411 0.76749 0.0
H651 H 0.75189 0.93769 0.80788 0.0
H652 H 0.75889 0.94235 0.76333 0.0
H653 H 0.72812 0.97042 0.78465 0.0
C654 C 0.7295 0.01186 0.69537 0.0
C655 C 0.70631 0.04009 0.7007 0.0
C656 C 0.75472 0.00393 0.71928 0.0
C657 C 0.75739 0.02421 0.74881 0.0
C658 C 0.73499 0.05299 0.75376 0.0
H659 H 0.87668 0.02424 0.93101 0.0
H660 H 0.84108 0.03899 0.88255 0.0
C661 C 0.7097 0.06089 0.72992 0.0
C662 C 0.78352 0.01542 0.7746 0.0
H663 H 0.80576 0.95263 0.83166 0.0
C664 C 0.8099 0.03974 0.78153 0.0
C665 C 0.78209 0.98354 0.79273 0.0
C666 C 0.75361 0.95704 0.78708 0.0
C667 C 0.835 0.03296 0.80612 0.0
C668 C 0.83322 0.00132 0.82462 0.0
C669 C 0.80713 0.9768 0.81733 0.0
C670 C 0.85706 0.99375 0.85278 0.0
C671 C 0.86339 0.05953 0.81185 0.0
C672 C 0.87773 0.96326 0.85226 0.0
C673 C 0.89806 0.95461 0.88005 0.0
C674 C 0.89772 0.97614 0.90901 0.0
C675 C 0.87751 0.00704 0.90915 0.0
C676 C 0.85731 0.01568 0.88134 0.0
H677 H 0.8671 0.07676 0.78962 0.0
H678 H 0.85626 0.07655 0.83367 0.0
H679 H 0.88839 0.04634 0.8175 0.0
H680 H 0.87776 0.94589 0.8305 0.0
H681 H 0.91337 0.93066 0.87912 0.0
H682 H 0.2943 0.41177 0.04288 0.0
H683 H 0.24332 0.37818 0.02489 0.0
H684 H 0.27578 0.29107 0.08627 0.0
H685 H 0.32664 0.32443 0.10432 0.0
H686 H 0.25563 0.27366 0.01771 0.0
H687 H 0.15812 0.35547 0.08713 0.0
H688 H 0.18838 0.37789 0.06008 0.0
H689 H 0.20371 0.35636 0.09717 0.0
C690 C 0.29067 0.38531 0.05222 0.0
C691 C 0.31472 0.37043 0.0745 0.0
C692 C 0.26148 0.36632 0.04214 0.0
C693 C 0.25579 0.3323 0.05445 0.0
C694 C 0.27984 0.3173 0.07648 0.0
H695 H 0.09473 0.18558 0.07815 0.0
H696 H 0.13414 0.23553 0.08205 0.0
C697 C 0.30891 0.33628 0.08664 0.0
C698 C 0.2248 0.31199 0.04461 0.0
H699 H 0.13743 0.3058 0.05786 0.0
C700 C 0.22968 0.28084 0.02606 0.0
C701 C 0.19113 0.32155 0.05575 0.0
C702 C 0.18477 0.35451 0.07632 0.0
C703 C 0.2019 0.25825 0.01924 0.0
C704 C 0.16826 0.26738 0.03096 0.0
C705 C 0.1632 0.29909 0.04869 0.0
C706 C 0.13907 0.24235 0.0282 0.0
C707 C 0.20914 0.22394 0.00101 0.0
C708 C 0.12732 0.23095 0.99664 0.0
C709 C 0.10492 0.2022 0.99426 0.0
C710 C 0.0938 0.18455 0.02346 0.0
C711 C 0.10305 0.19827 0.05513 0.0
C712 C 0.12556 0.22689 0.05744 0.0
H713 H 0.23734 0.21809 0.99917 0.0
H714 H 0.19615 0.20172 0.01398 0.0
H715 H 0.19879 0.22542 0.97507 0.0
H716 H 0.13691 0.24308 0.97381 0.0
H717 H 0.09791 0.19266 0.96947 0.0
H718 H 0.30475 0.63877 0.10776 0.0
H719 H 0.27661 0.70954 0.10699 0.0
H720 H 0.25219 0.69971 0.98341 0.0
H721 H 0.27943 0.62903 0.98105 0.0
H722 H 0.30018 0.76478 0.07057 0.0
H723 H 0.16922 0.75071 0.01844 0.0
H724 H 0.1951 0.71291 0.02918 0.0
H725 H 0.19985 0.73351 0.98854 0.0
C726 C 0.29335 0.64943 0.08521 0.0
C727 C 0.30055 0.62886 0.04298 0.0
C728 C 0.27696 0.69385 0.08417 0.0
C729 C 0.26238 0.71279 0.0451 0.0
C730 C 0.26105 0.68757 0.00633 0.0
H731 H 0.20349 0.91639 0.97784 0.0
H732 H 0.23854 0.86338 0.98391 0.0
C733 C 0.27688 0.64301 0.00478 0.0
C734 C 0.25345 0.7504 0.04446 0.0
H735 H 0.19441 0.80883 0.01438 0.0
C736 C 0.2769 0.77446 0.05856 0.0
C737 C 0.22306 0.76282 0.02884 0.0
C738 C 0.19532 0.73846 0.01578 0.0
C739 C 0.2712 0.81091 0.0565 0.0
C740 C 0.24141 0.82325 0.03992 0.0
C741 C 0.21774 0.79914 0.02635 0.0
C742 C 0.23241 0.86091 0.03799 0.0
C743 C 0.29713 0.83602 0.0715 0.0
C744 C 0.21966 0.87835 0.06674 0.0
C745 C 0.1995 0.90869 0.06341 0.0
C746 C 0.19149 0.9215 0.03119 0.0
C747 C 0.20863 0.90688 0.00297 0.0
C748 C 0.22871 0.87653 0.00635 0.0
H749 H 0.32182 0.8226 0.07794 0.0
H750 H 0.30274 0.85777 0.05375 0.0
H751 H 0.28602 0.84785 0.09485 0.0
H752 H 0.22218 0.86657 0.09136 0.0
H753 H 0.18717 0.91968 0.08575 0.0
H754 H 0.69769 0.32181 0.93115 0.0
H755 H 0.71112 0.26369 0.95376 0.0
H756 H 0.75208 0.31228 0.04353 0.0
H757 H 0.7399 0.37055 0.0203 0.0
H758 H 0.79587 0.26663 0.01811 0.0
H759 H 0.66781 0.20235 0.02397 0.0
H760 H 0.67611 0.21955 0.98279 0.0
H761 H 0.67257 0.24922 0.01828 0.0
C762 C 0.70928 0.31997 0.95582 0.0
C763 C 0.71775 0.35055 0.97404 0.0
C764 C 0.71647 0.28679 0.96895 0.0
C765 C 0.73178 0.28358 1.00073 0.0
C766 C 0.73984 0.31414 0.01914 0.0
H767 H 0.83637 0.10029 0.08246 0.0
H768 H 0.79411 0.1483 0.08267 0.0
C769 C 0.73303 0.34735 0.00584 0.0
C770 C 0.74328 0.24865 0.01271 0.0
H771 H 0.7178 0.16306 0.02151 0.0
C772 C 0.77861 0.2442 0.01967 0.0
C773 C 0.72072 0.21936 0.01474 0.0
C774 C 0.68213 0.22296 0.00989 0.0
C775 C 0.79239 0.21098 0.02666 0.0
C776 C 0.7702 0.18143 0.02684 0.0
C777 C 0.73463 0.18588 0.02129 0.0
C778 C 0.78492 0.14569 0.02911 0.0
C779 C 0.83098 0.20738 0.03208 0.0
C780 C 0.79164 0.1269 0.99928 0.0
C781 C 0.81593 0.09959 0.99894 0.0
C782 C 0.83386 0.09092 0.02847 0.0
C783 C 0.82345 0.10667 0.05915 0.0
C784 C 0.7992 0.13406 0.05941 0.0
H785 H 0.84497 0.23253 0.02801 0.0
H786 H 0.83581 0.19867 0.05824 0.0
H787 H 0.84204 0.18713 0.01475 0.0
H788 H 0.78073 0.13557 0.97568 0.0
H789 H 0.82291 0.08761 0.97498 0.0
H790 H 0.66481 0.7196 0.04634 0.0
H791 H 0.72358 0.72602 0.06819 0.0
H792 H 0.76544 0.70918 0.96827 0.0
H793 H 0.7068 0.70023 0.94679 0.0
H794 H 0.80803 0.6819 0.01523 0.0
H795 H 0.76966 0.81841 0.0516 0.0
H796 H 0.74525 0.78476 0.0724 0.0
H797 H 0.74175 0.79009 0.02755 0.0
C798 C 0.68661 0.71668 0.02917 0.0
C799 C 0.68125 0.7104 0.99469 0.0
C800 C 0.72014 0.7205 0.04164 0.0
C801 C 0.74882 0.71923 0.01968 0.0
C802 C 0.74367 0.71062 0.98565 0.0
H803 H 0.9355 0.81144 0.98383 0.0
H804 H 0.89301 0.76464 0.98935 0.0
C805 C 0.71017 0.70591 0.97331 0.0
C806 C 0.78361 0.73047 0.03108 0.0
H807 H 0.8272 0.80242 0.05989 0.0
C808 C 0.81222 0.70808 0.02546 0.0
C809 C 0.78908 0.7647 0.04436 0.0
C810 C 0.75992 0.79102 0.04908 0.0
C811 C 0.84624 0.71955 0.03154 0.0
C812 C 0.85161 0.75414 0.04361 0.0
C813 C 0.82294 0.7757 0.05107 0.0
C814 C 0.88599 0.7713 0.04314 0.0
C815 C 0.87618 0.69506 0.02404 0.0
C816 C 0.89776 0.78919 0.07189 0.0
C817 C 0.92198 0.81628 0.06877 0.0
C818 C 0.93434 0.82609 0.03675 0.0
C819 C 0.92602 0.80495 0.00877 0.0
C820 C 0.90193 0.77782 0.01194 0.0
H821 H 0.86819 0.66707 0.02602 0.0
H822 H 0.88546 0.69952 0.9979 0.0
H823 H 0.8981 0.69994 0.04142 0.0
H824 H 0.88574 0.78454 0.0962 0.0
H825 H 0.92821 0.83169 0.09095 0.0
loop_
_geom_bond_atom_site_label_1
_geom_bond_atom_site_label_2
_geom_bond_distance
_geom_bond_site_symmetry_2
_ccdc_geom_bond_type
C0 C1 1.560 . S
C0 H61 0.959 . S
C0 H62 0.959 . S
C0 H63 0.960 . S
C1 C0 1.560 . S
C1 O56 1.426 . S
C1 H60 0.980 . S
C2 C3 1.407 1_455 S
C2 C7 1.418 . S
C2 O56 1.334 . S
C3 C2 1.407 1_655 S
C3 C4 1.360 . S
C3 H64 0.929 . S
C4 C3 1.360 . S
C4 C5 1.401 1_655 S
C4 C8 1.527 . S
C5 C4 1.401 1_455 S
C5 C6 1.405 . S
C5 C38 1.587 1_455 S
C6 C5 1.405 . S
C6 C7 1.332 . S
C6 C9 1.496 . S
C7 C2 1.418 . S
C7 C6 1.332 . S
C7 H65 0.929 . S
C8 C4 1.527 . S
C8 H66 0.959 . S
C8 H67 0.961 . S
C8 H68 0.961 . S
C9 C6 1.496 . S
C9 H69 0.960 . S
C9 H70 0.960 . S
C9 H71 0.961 . S
C10 C11 1.517 . S
C10 H73 0.961 1_655 S
C10 H74 0.960 . S
C10 H75 0.959 . S
C11 C10 1.517 . S
C11 O59 1.468 . S
C11 H72 0.980 1_655 S
C12 C13 1.349 1_655 S
C12 C17 1.367 . S
C12 O59 1.408 . S
C13 C12 1.349 1_455 S
C13 C14 1.407 . S
C13 H76 0.930 . S
C14 C13 1.407 . S
C14 C15 1.449 1_455 S
C14 C18 1.535 . S
C15 C14 1.449 1_655 S
C15 C16 1.384 . S
C15 C40 1.553 . S
C16 C15 1.384 . S
C16 C17 1.364 . S
C16 C19 1.450 . S
C17 C12 1.367 . S
C17 C16 1.364 . S
C17 H77 0.931 . S
C18 C14 1.535 . S
C18 H78 0.959 . S
C18 H79 0.961 . S
C18 H80 0.959 . S
C19 C16 1.450 . S
C19 H81 0.960 . S
C19 H82 0.960 . S
C19 H83 0.960 . S
C20 C21 1.309 1_655 S
C20 C25 1.304 . S
C20 O58 1.435 . S
C21 C20 1.309 1_455 S
C21 C22 1.476 . S
C21 H85 0.930 . S
C22 C21 1.476 . S
C22 C23 1.400 1_455 S
C22 C26 1.567 . S
C23 C22 1.400 1_655 S
C23 C24 1.373 . S
C23 C45 1.432 . S
C24 C23 1.373 . S
C24 C25 1.339 . S
C24 C27 1.530 . S
C25 C20 1.304 . S
C25 C24 1.339 . S
C25 H86 0.930 . S
C26 C22 1.567 . S
C26 H87 0.961 . S
C26 H88 0.960 . S
C26 H89 0.958 . S
C27 C24 1.530 . S
C27 H90 0.961 . S
C27 H91 0.960 . S
C27 H92 0.960 . S
C28 C29 1.530 . S
C28 H94 0.961 . S
C28 H95 0.961 . S
C28 H96 0.959 . S
C29 C28 1.530 . S
C29 O57 1.412 . S
C29 H93 0.980 . S
C30 C31 1.288 . S
C30 C35 1.377 1_455 S
C30 O57 1.393 . S
C31 C30 1.288 . S
C31 C32 1.369 . S
C31 H97 0.932 . S
C32 C31 1.369 . S
C32 C33 1.398 . S
C32 C36 1.527 . S
C33 C32 1.398 . S
C33 C34 1.380 1_455 S
C33 C47 1.497 . S
C34 C33 1.380 1_655 S
C34 C35 1.383 . S
C34 C37 1.603 . S
C35 C30 1.377 1_655 S
C35 C34 1.383 . S
C35 H98 0.929 . S
C36 C32 1.527 . S
C36 H99 0.961 . S
C36 H100 0.959 . S
C36 H101 0.959 . S
C37 C34 1.603 . S
C37 H102 0.960 . S
C37 H103 0.962 . S
C37 H104 0.961 . S
C38 C5 1.587 1_655 S
C38 C39 1.360 . S
C38 C51 1.412 . S
C39 C38 1.360 . S
C39 C40 1.365 . S
C39 H105 0.929 . S
C40 C15 1.553 . S
C40 C39 1.365 . S
C40 C41 1.404 . S
C41 C40 1.404 . S
C41 C42 1.395 . S
C41 C52 1.451 . S
C42 C41 1.395 . S
C42 C43 1.322 . S
C42 H106 0.930 . S
C43 C42 1.322 . S
C43 C44 1.459 . S
C43 H107 0.929 . S
C44 C43 1.459 . S
C44 C45 1.445 . S
C44 C53 1.395 . S
C45 C23 1.432 . S
C45 C44 1.445 . S
C45 C46 1.374 . S
C46 C45 1.374 . S
C46 C47 1.435 1_655 S
C46 H108 0.929 1_655 S
C47 C33 1.497 . S
C47 C46 1.435 1_455 S
C47 C48 1.360 . S
C48 C47 1.360 . S
C48 C49 1.401 . S
C48 C53 1.445 1_455 S
C49 C48 1.401 . S
C49 C50 1.347 . S
C49 H109 0.929 . S
C50 C49 1.347 . S
C50 C51 1.455 1_455 S
C50 H110 0.930 . S
C51 C38 1.412 . S
C51 C50 1.455 1_655 S
C51 C52 1.331 . S
C52 C41 1.451 . S
C52 C51 1.331 . S
C52 C53 1.497 . S
C53 C44 1.395 . S
C53 C48 1.445 1_655 S
C53 C52 1.497 . S
C54 C55 1.582 1_655 S
C54 H111 0.962 . S
C54 H112 0.959 . S
C54 H113 0.958 . S
C55 C54 1.582 1_455 S
C55 O58 1.458 1_455 S
C55 H84 0.980 . S
O56 C1 1.426 . S
O56 C2 1.334 . S
O57 C29 1.412 . S
O57 C30 1.393 . S
O58 C20 1.435 . S
O58 C55 1.458 1_655 S
O59 C11 1.468 . S
O59 C12 1.408 . S
H60 C1 0.980 . S
H61 C0 0.959 . S
H62 C0 0.959 . S
H63 C0 0.960 . S
H64 C3 0.929 . S
H65 C7 0.929 . S
H66 C8 0.959 . S
H67 C8 0.961 . S
H68 C8 0.961 . S
H69 C9 0.960 . S
H70 C9 0.960 . S
H71 C9 0.961 . S
H72 C11 0.980 1_455 S
H73 C10 0.961 1_455 S
H74 C10 0.960 . S
H75 C10 0.959 . S
H76 C13 0.930 . S
H77 C17 0.931 . S
H78 C18 0.959 . S
H79 C18 0.961 . S
H80 C18 0.959 . S
H81 C19 0.960 . S
H82 C19 0.960 . S
H83 C19 0.960 . S
H84 C55 0.980 . S
H85 C21 0.930 . S
H86 C25 0.930 . S
H87 C26 0.961 . S
H88 C26 0.960 . S
H89 C26 0.958 . S
H90 C27 0.961 . S
H91 C27 0.960 . S
H92 C27 0.960 . S
H93 C29 0.980 . S
H94 C28 0.961 . S
H95 C28 0.961 . S
H96 C28 0.959 . S
H97 C31 0.932 . S
H98 C35 0.929 . S
H99 C36 0.961 . S
H100 C36 0.959 . S
H101 C36 0.959 . S
H102 C37 0.960 . S
H103 C37 0.962 . S
H104 C37 0.961 . S
H105 C39 0.929 . S
H106 C42 0.930 . S
H107 C43 0.929 . S
H108 C46 0.929 1_455 S
H109 C49 0.929 . S
H110 C50 0.930 . S
H111 C54 0.962 . S
H112 C54 0.959 . S
H113 C54 0.958 . S
C114 C115 1.560 . S
C114 H175 0.959 . S
C114 H176 0.959 . S
C114 H177 0.960 . S
C115 C114 1.560 . S
C115 O170 1.426 . S
C115 H174 0.980 . S
C116 C117 1.407 1_545 S
C116 C121 1.418 . S
C116 O170 1.334 . S
C117 C116 1.407 1_565 S
C117 C118 1.360 . S
C117 H178 0.929 . S
C118 C117 1.360 . S
C118 C119 1.401 1_565 S
C118 C122 1.527 . S
C119 C118 1.401 1_545 S
C119 C120 1.405 . S
C119 C152 1.587 1_545 S
C120 C119 1.405 . S
C120 C121 1.332 . S
C120 C123 1.496 . S
C121 C116 1.418 . S
C121 C120 1.332 . S
C121 H179 0.929 . S
C122 C118 1.527 . S
C122 H180 0.959 . S
C122 H181 0.961 . S
C122 H182 0.961 . S
C123 C120 1.496 . S
C123 H183 0.960 . S
C123 H184 0.960 . S
C123 H185 0.961 . S
C124 C125 1.517 . S
C124 H187 0.961 . S
C124 H188 0.960 . S
C124 H189 0.959 . S
C125 C124 1.517 . S
C125 O173 1.468 . S
C125 H186 0.980 1_565 S
C126 C127 1.349 . S
C126 C131 1.367 . S
C126 O173 1.408 . S
C127 C126 1.349 . S
C127 C128 1.407 1_565 S
C127 H190 0.930 1_565 S
C128 C127 1.407 1_545 S
C128 C129 1.449 1_545 S
C128 C132 1.535 . S
C129 C128 1.449 1_565 S
C129 C130 1.384 . S
C129 C154 1.553 . S
C130 C129 1.384 . S
C130 C131 1.364 . S
C130 C133 1.450 . S
C131 C126 1.367 . S
C131 C130 1.364 . S
C131 H191 0.931 . S
C132 C128 1.535 . S
C132 H192 0.959 . S
C132 H193 0.961 . S
C132 H194 0.959 . S
C133 C130 1.450 . S
C133 H195 0.960 . S
C133 H196 0.960 . S
C133 H197 0.960 . S
C134 C135 1.309 1_565 S
C134 C139 1.304 . S
C134 O172 1.435 . S
C135 C134 1.309 1_545 S
C135 C136 1.476 . S
C135 H199 0.930 . S
C136 C135 1.476 . S
C136 C137 1.400 1_545 S
C136 C140 1.567 . S
C137 C136 1.400 1_565 S
C137 C138 1.373 . S
C137 C159 1.432 . S
C138 C137 1.373 . S
C138 C139 1.339 . S
C138 C141 1.530 . S
C139 C134 1.304 . S
C139 C138 1.339 . S
C139 H200 0.930 . S
C140 C136 1.567 . S
C140 H201 0.961 . S
C140 H202 0.960 . S
C140 H203 0.958 . S
C141 C138 1.530 . S
C141 H204 0.961 . S
C141 H205 0.960 . S
C141 H206 0.960 . S
C142 C143 1.530 . S
C142 H208 0.961 . S
C142 H209 0.961 . S
C142 H210 0.959 . S
C143 C142 1.530 . S
C143 O171 1.412 . S
C143 H207 0.980 . S
C144 C145 1.288 . S
C144 C149 1.377 1_545 S
C144 O171 1.393 . S
C145 C144 1.288 . S
C145 C146 1.369 . S
C145 H211 0.932 . S
C146 C145 1.369 . S
C146 C147 1.398 . S
C146 C150 1.527 . S
C147 C146 1.398 . S
C147 C148 1.380 1_545 S
C147 C161 1.497 . S
C148 C147 1.380 1_565 S
C148 C149 1.383 . S
C148 C151 1.603 . S
C149 C144 1.377 1_565 S
C149 C148 1.383 . S
C149 H212 0.929 . S
C150 C146 1.527 . S
C150 H213 0.961 . S
C150 H214 0.959 . S
C150 H215 0.959 . S
C151 C148 1.603 . S
C151 H216 0.960 . S
C151 H217 0.962 . S
C151 H218 0.961 . S
C152 C119 1.587 1_565 S
C152 C153 1.360 . S
C152 C165 1.412 . S
C153 C152 1.360 . S
C153 C154 1.365 . S
C153 H219 0.929 . S
C154 C129 1.553 . S
C154 C153 1.365 . S
C154 C155 1.404 . S
C155 C154 1.404 . S
C155 C156 1.395 . S
C155 C166 1.451 . S
C156 C155 1.395 . S
C156 C157 1.322 . S
C156 H220 0.930 . S
C157 C156 1.322 . S
C157 C158 1.459 . S
C157 H221 0.929 . S
C158 C157 1.459 . S
C158 C159 1.445 . S
C158 C167 1.395 . S
C159 C137 1.432 . S
C159 C158 1.445 . S
C159 C160 1.370 . S
C160 C159 1.370 . S
C160 C161 1.438 1_565 S
C160 H222 0.930 . S
C161 C147 1.497 . S
C161 C160 1.438 1_545 S
C161 C162 1.360 1_545 S
C162 C161 1.360 1_565 S
C162 C163 1.401 1_565 S
C162 C167 1.446 . S
C163 C162 1.401 1_545 S
C163 C164 1.348 . S
C163 H223 0.929 . S
C164 C163 1.348 . S
C164 C165 1.453 1_545 S
C164 H224 0.932 . S
C165 C152 1.412 . S
C165 C164 1.453 1_565 S
C165 C166 1.331 . S
C166 C155 1.451 . S
C166 C165 1.331 . S
C166 C167 1.497 . S
C167 C158 1.395 . S
C167 C162 1.446 . S
C167 C166 1.497 . S
C168 C169 1.582 1_565 S
C168 H225 0.962 . S
C168 H226 0.959 . S
C168 H227 0.958 . S
C169 C168 1.582 1_545 S
C169 O172 1.458 1_545 S
C169 H198 0.980 . S
O170 C115 1.426 . S
O170 C116 1.334 . S
O171 C143 1.412 . S
O171 C144 1.393 . S
O172 C134 1.435 . S
O172 C169 1.458 1_565 S
O173 C125 1.468 . S
O173 C126 1.408 . S
H174 C115 0.980 . S
H175 C114 0.959 . S
H176 C114 0.959 . S
H177 C114 0.960 . S
H178 C117 0.929 . S
H179 C121 0.929 . S
H180 C122 0.959 . S
H181 C122 0.961 . S
H182 C122 0.961 . S
H183 C123 0.960 . S
H184 C123 0.960 . S
H185 C123 0.961 . S
H186 C125 0.980 1_545 S
H187 C124 0.961 . S
H188 C124 0.960 . S
H189 C124 0.959 . S
H190 C127 0.930 1_545 S
H191 C131 0.931 . S
H192 C132 0.959 . S
H193 C132 0.961 . S
H194 C132 0.959 . S
H195 C133 0.960 . S
H196 C133 0.960 . S
H197 C133 0.960 . S
H198 C169 0.980 . S
H199 C135 0.930 . S
H200 C139 0.930 . S
H201 C140 0.961 . S
H202 C140 0.960 . S
H203 C140 0.958 . S
H204 C141 0.961 . S
H205 C141 0.960 . S
H206 C141 0.960 . S
H207 C143 0.980 . S
H208 C142 0.961 . S
H209 C142 0.961 . S
H210 C142 0.959 . S
H211 C145 0.932 . S
H212 C149 0.929 . S
H213 C150 0.961 . S
H214 C150 0.959 . S
H215 C150 0.959 . S
H216 C151 0.960 . S
H217 C151 0.962 . S
H218 C151 0.961 . S
H219 C153 0.929 . S
H220 C156 0.930 . S
H221 C157 0.929 . S
H222 C160 0.930 . S
H223 C163 0.929 . S
H224 C164 0.932 . S
H225 C168 0.962 . S
H226 C168 0.959 . S
H227 C168 0.958 . S
C228 C229 1.560 1_556 S
C228 H289 0.959 . S
C228 H290 0.959 . S
C228 H291 0.960 . S
C229 C228 1.560 1_554 S
C229 O284 1.426 1_554 S
C229 H288 0.980 . S
C230 C231 1.399 1_556 S
C230 C235 1.423 . S
C230 O284 1.338 . S
C231 C230 1.399 1_554 S
C231 C232 1.360 . S
C231 H292 0.929 . S
C232 C231 1.360 . S
C232 C233 1.401 . S
C232 C236 1.527 . S
C233 C232 1.401 . S
C233 C234 1.405 1_554 S
C233 C266 1.587 . S
C234 C233 1.405 1_556 S
C234 C235 1.332 . S
C234 C237 1.496 . S
C235 C230 1.423 . S
C235 C234 1.332 . S
C235 H293 0.929 . S
C236 C232 1.527 . S
C236 H294 0.959 . S
C236 H295 0.961 . S
C236 H296 0.961 . S
C237 C234 1.496 . S
C237 H297 0.960 . S
C237 H298 0.960 . S
C237 H299 0.961 . S
C238 C239 1.517 . S
C238 H301 0.961 . S
C238 H302 0.960 . S
C238 H303 0.959 . S
C239 C238 1.517 . S
C239 O287 1.468 . S
C239 H300 0.980 . S
C240 C241 1.349 . S
C240 C245 1.367 . S
C240 O287 1.408 . S
C241 C240 1.349 . S
C241 C242 1.407 . S
C241 H304 0.930 . S
C242 C241 1.407 . S
C242 C243 1.449 . S
C242 C246 1.535 1_554 S
C243 C242 1.449 . S
C243 C244 1.384 . S
C243 C268 1.553 . S
C244 C243 1.384 . S
C244 C245 1.364 . S
C244 C247 1.450 . S
C245 C240 1.367 . S
C245 C244 1.364 . S
C245 H305 0.931 . S
C246 C242 1.535 1_556 S
C246 H306 0.959 . S
C246 H307 0.961 . S
C246 H308 0.959 . S
C247 C244 1.450 . S
C247 H309 0.960 . S
C247 H310 0.960 . S
C247 H311 0.960 . S
C248 C249 1.309 . S
C248 C253 1.304 . S
C248 O286 1.435 . S
C249 C248 1.309 . S
C249 C250 1.476 . S
C249 H313 0.930 . S
C250 C249 1.476 . S
C250 C251 1.400 . S
C250 C254 1.567 1_554 S
C251 C250 1.400 . S
C251 C252 1.373 . S
C251 C273 1.432 . S
C252 C251 1.373 . S
C252 C253 1.339 . S
C252 C255 1.530 . S
C253 C248 1.304 . S
C253 C252 1.339 . S
C253 H314 0.930 . S
C254 C250 1.567 1_556 S
C254 H315 0.961 . S
C254 H316 0.960 . S
C254 H317 0.958 . S
C255 C252 1.530 . S
C255 H318 0.961 . S
C255 H319 0.960 . S
C255 H320 0.960 . S
C256 C257 1.530 1_556 S
C256 H322 0.961 1_556 S
C256 H323 0.961 . S
C256 H324 0.959 . S
C257 C256 1.530 1_554 S
C257 O285 1.412 1_554 S
C257 H321 0.980 . S
C258 C259 1.267 1_554 S
C258 C263 1.405 . S
C258 O285 1.385 1_554 S
C259 C258 1.267 1_556 S
C259 C260 1.369 . S
C259 H325 0.932 . S
C260 C259 1.369 . S
C260 C261 1.398 1_556 S
C260 C264 1.527 . S
C261 C260 1.398 1_554 S
C261 C262 1.380 . S
C261 C275 1.497 . S
C262 C261 1.380 . S
C262 C263 1.383 . S
C262 C265 1.603 . S
C263 C258 1.405 . S
C263 C262 1.383 . S
C263 H326 0.929 . S
C264 C260 1.527 . S
C264 H327 0.961 . S
C264 H328 0.959 . S
C264 H329 0.959 . S
C265 C262 1.603 . S
C265 H330 0.960 . S
C265 H331 0.962 . S
C265 H332 0.961 . S
C266 C233 1.587 . S
C266 C267 1.360 . S
C266 C279 1.412 . S
C267 C266 1.360 . S
C267 C268 1.365 . S
C267 H333 0.929 . S
C268 C243 1.553 . S
C268 C267 1.365 . S
C268 C269 1.404 . S
C269 C268 1.404 . S
C269 C270 1.395 . S
C269 C280 1.451 . S
C270 C269 1.395 . S
C270 C271 1.322 . S
C270 H334 0.930 . S
C271 C270 1.322 . S
C271 C272 1.459 . S
C271 H335 0.929 . S
C272 C271 1.459 . S
C272 C273 1.445 . S
C272 C281 1.395 . S
C273 C251 1.432 . S
C273 C272 1.445 . S
C273 C274 1.370 . S
C274 C273 1.370 . S
C274 C275 1.438 . S
C274 H336 0.930 . S
C275 C261 1.497 . S
C275 C274 1.438 . S
C275 C276 1.360 . S
C276 C275 1.360 . S
C276 C277 1.401 . S
C276 C281 1.446 . S
C277 C276 1.401 . S
C277 C278 1.347 . S
C277 H337 0.929 . S
C278 C277 1.347 . S
C278 C279 1.455 . S
C278 H338 0.930 . S
C279 C266 1.412 . S
C279 C278 1.455 . S
C279 C280 1.331 . S
C280 C269 1.451 . S
C280 C279 1.331 . S
C280 C281 1.497 . S
C281 C272 1.395 . S
C281 C276 1.446 . S
C281 C280 1.497 . S
C282 C283 1.582 . S
C282 H339 0.962 . S
C282 H340 0.959 . S
C282 H341 0.958 . S
C283 C282 1.582 . S
C283 O286 1.458 . S
C283 H312 0.980 . S
O284 C229 1.426 1_556 S
O284 C230 1.338 . S
O285 C257 1.412 1_556 S
O285 C258 1.385 1_556 S
O286 C248 1.435 . S
O286 C283 1.458 . S
O287 C239 1.468 . S
O287 C240 1.408 . S
H288 C229 0.980 . S
H289 C228 0.959 . S
H290 C228 0.959 . S
H291 C228 0.960 . S
H292 C231 0.929 . S
H293 C235 0.929 . S
H294 C236 0.959 . S
H295 C236 0.961 . S
H296 C236 0.961 . S
H297 C237 0.960 . S
H298 C237 0.960 . S
H299 C237 0.961 . S
H300 C239 0.980 . S
H301 C238 0.961 . S
H302 C238 0.960 . S
H303 C238 0.959 . S
H304 C241 0.930 . S
H305 C245 0.931 . S
H306 C246 0.959 . S
H307 C246 0.961 . S
H308 C246 0.959 . S
H309 C247 0.960 . S
H310 C247 0.960 . S
H311 C247 0.960 . S
H312 C283 0.980 . S
H313 C249 0.930 . S
H314 C253 0.930 . S
H315 C254 0.961 . S
H316 C254 0.960 . S
H317 C254 0.958 . S
H318 C255 0.961 . S
H319 C255 0.960 . S
H320 C255 0.960 . S
H321 C257 0.980 . S
H322 C256 0.961 1_554 S
H323 C256 0.961 . S
H324 C256 0.959 . S
H325 C259 0.932 . S
H326 C263 0.929 . S
H327 C264 0.961 . S
H328 C264 0.959 . S
H329 C264 0.959 . S
H330 C265 0.960 . S
H331 C265 0.962 . S
H332 C265 0.961 . S
H333 C267 0.929 . S
H334 C270 0.930 . S
H335 C271 0.929 . S
H336 C274 0.930 . S
H337 C277 0.929 . S
H338 C278 0.930 . S
H339 C282 0.962 . S
H340 C282 0.959 . S
H341 C282 0.958 . S
Zn342 O344 1.933 1_556 S
Zn342 O362 1.985 . S
Zn342 O373 1.955 . S
Zn343 O344 1.911 . S
Zn343 O363 1.970 . S
Zn343 O379 1.945 . S
Zn343 O386 1.981 . S
O344 Zn342 1.933 1_554 S
O344 Zn343 1.911 . S
O344 H345 0.841 . S
H345 O344 0.841 . S
C346 O347 1.246 . S
C346 O375 1.276 1_455 S
O347 C346 1.246 . S
Zn348 O350 1.911 . S
Zn348 O365 1.970 . S
Zn348 O382 1.945 . S
Zn348 O389 1.981 . S
Zn349 O350 1.933 1_556 S
Zn349 O364 1.985 . S
Zn349 O371 1.955 . S
O350 Zn348 1.911 . S
O350 Zn349 1.933 1_554 S
O350 H351 0.841 1_565 S
H351 O350 0.841 1_545 S
Zn352 O353 1.933 1_556 S
Zn352 O366 1.985 . S
Zn352 O375 1.955 . S
O353 Zn352 1.933 1_554 S
O353 Zn354 1.911 . S
O353 H355 0.841 1_655 S
Zn354 O353 1.911 . S
Zn354 O367 1.970 . S
Zn354 O383 1.981 . S
Zn354 O385 1.945 . S
H355 O353 0.841 1_455 S
Zn356 O357 1.933 1_556 S
Zn356 O369 1.985 . S
Zn356 O377 1.955 . S
O357 Zn356 1.933 1_554 S
O357 H358 0.841 . S
O357 Zn359 1.911 . S
H358 O357 0.841 . S
Zn359 O357 1.911 . S
Zn359 O370 1.970 . S
Zn359 O380 1.981 . S
Zn359 O388 1.945 . S
C360 O361 1.246 1_455 S
C360 O377 1.276 . S
O361 C360 1.246 1_655 S
O362 Zn342 1.985 . S
O362 C372 1.245 1_556 S
O363 Zn343 1.970 . S
O363 C372 1.263 . S
O364 Zn349 1.985 . S
O364 C376 1.245 1_556 S
O365 Zn348 1.970 . S
O365 C376 1.263 . S
O366 Zn352 1.985 . S
O366 C381 1.245 1_556 S
O367 Zn354 1.970 . S
O367 C381 1.263 . S
C368 O379 1.262 . S
C368 O380 1.245 1_545 S
O369 Zn356 1.985 . S
O369 C387 1.245 1_556 S
O370 Zn359 1.970 . S
O370 C387 1.263 . S
O371 Zn349 1.955 . S
O371 C390 1.276 1_565 S
C372 O362 1.245 1_554 S
C372 O363 1.263 . S
O373 Zn342 1.955 . S
O373 C392 1.276 . S
C374 O382 1.262 1_545 S
C374 O383 1.245 . S
O375 C346 1.276 1_655 S
O375 Zn352 1.955 . S
C376 O364 1.245 1_554 S
C376 O365 1.263 . S
O377 Zn356 1.955 . S
O377 C360 1.276 . S
C378 O385 1.262 1_455 S
C378 O386 1.245 . S
O379 Zn343 1.945 . S
O379 C368 1.262 . S
O380 Zn359 1.981 . S
O380 C368 1.245 1_565 S
C381 O366 1.245 1_554 S
C381 O367 1.263 . S
O382 Zn348 1.945 . S
O382 C374 1.262 1_565 S
O383 Zn354 1.981 . S
O383 C374 1.245 . S
C384 O388 1.262 . S
C384 O389 1.245 1_455 S
O385 Zn354 1.945 . S
O385 C378 1.262 1_655 S
O386 Zn343 1.981 . S
O386 C378 1.245 . S
C387 O369 1.245 1_554 S
C387 O370 1.263 . S
O388 Zn359 1.945 . S
O388 C384 1.262 . S
O389 Zn348 1.981 . S
O389 C384 1.245 1_655 S
C390 O371 1.276 1_545 S
C390 O391 1.246 . S
O391 C390 1.246 . S
C392 O373 1.276 . S
C392 O393 1.246 1_545 S
O393 C392 1.246 1_565 S
H394 C402 0.929 . S
H395 C404 0.930 . S
H396 C406 0.930 . S
H397 C409 0.929 . S
H398 C412 0.930 . S
H399 C414 0.960 . S
H400 C414 0.960 1_655 S
H401 C414 0.960 . S
C402 H394 0.929 . S
C402 C403 1.377 1_655 S
C402 C404 1.384 . S
C403 C402 1.377 1_455 S
C403 C409 1.390 . S
C404 H395 0.930 . S
C404 C402 1.384 . S
C404 C405 1.372 1_655 S
C405 C404 1.372 1_455 S
C405 C406 1.400 . S
C405 C410 1.490 . S
C406 H396 0.930 . S
C406 C405 1.400 . S
C406 C409 1.386 . S
H407 C423 0.930 . S
H408 C424 0.931 . S
C409 H397 0.929 . S
C409 C403 1.390 . S
C409 C406 1.386 . S
C410 C405 1.490 . S
C410 C412 1.395 . S
C410 C413 1.403 . S
H411 C417 0.930 . S
C412 H398 0.930 . S
C412 C410 1.395 . S
C412 C415 1.403 . S
C413 C410 1.403 . S
C413 C414 1.524 . S
C413 C417 1.400 . S
C414 H399 0.960 . S
C414 H400 0.960 1_455 S
C414 H401 0.960 . S
C414 C413 1.524 . S
C415 C412 1.403 . S
C415 C416 1.392 . S
C415 C419 1.495 . S
C416 C415 1.392 . S
C416 C417 1.385 . S
C416 C418 1.478 . S
C417 H411 0.930 . S
C417 C413 1.400 . S
C417 C416 1.385 . S
C418 C416 1.478 . S
C418 C420 1.381 1_455 S
C418 C424 1.383 . S
C419 C415 1.495 . S
C419 H425 0.959 . S
C419 H426 0.961 . S
C419 H427 0.960 1_455 S
C420 C418 1.381 1_655 S
C420 C421 1.394 . S
C420 H428 0.930 . S
C421 C420 1.394 . S
C421 C422 1.383 1_655 S
C421 H429 0.929 . S
C422 C421 1.383 1_455 S
C422 C423 1.377 . S
C423 H407 0.930 . S
C423 C422 1.377 . S
C423 C424 1.379 . S
C424 H408 0.931 . S
C424 C418 1.383 . S
C424 C423 1.379 . S
H425 C419 0.959 . S
H426 C419 0.961 . S
H427 C419 0.960 1_655 S
H428 C420 0.930 . S
H429 C421 0.929 . S
H430 C438 0.929 . S
H431 C440 0.932 . S
H432 C442 0.930 . S
H433 C445 0.929 . S
H434 C448 0.930 . S
H435 C450 0.960 . S
H436 C450 0.960 . S
H437 C450 0.960 . S
C438 H430 0.929 . S
C438 C439 1.377 1_565 S
C438 C440 1.384 . S
C439 C438 1.377 1_545 S
C439 C445 1.390 . S
C440 H431 0.932 . S
C440 C438 1.384 . S
C440 C441 1.369 1_565 S
C441 C440 1.369 1_545 S
C441 C442 1.400 . S
C441 C446 1.490 . S
C442 H432 0.930 . S
C442 C441 1.400 . S
C442 C445 1.386 . S
H443 C459 0.930 . S
H444 C460 0.931 . S
C445 H433 0.929 . S
C445 C439 1.390 . S
C445 C442 1.386 . S
C446 C441 1.490 . S
C446 C448 1.395 1_545 S
C446 C449 1.403 . S
H447 C453 0.930 . S
C448 H434 0.930 . S
C448 C446 1.395 1_565 S
C448 C451 1.403 . S
C449 C446 1.403 . S
C449 C450 1.524 . S
C449 C453 1.400 . S
C450 H435 0.960 . S
C450 H436 0.960 . S
C450 H437 0.960 . S
C450 C449 1.524 . S
C451 C448 1.403 . S
C451 C452 1.392 1_565 S
C451 C455 1.495 . S
C452 C451 1.392 1_545 S
C452 C453 1.385 . S
C452 C454 1.478 . S
C453 H447 0.930 . S
C453 C449 1.400 . S
C453 C452 1.385 . S
C454 C452 1.478 . S
C454 C456 1.381 . S
C454 C460 1.383 . S
C455 C451 1.495 . S
C455 H461 0.959 . S
C455 H462 0.961 . S
C455 H463 0.960 . S
C456 C454 1.381 . S
C456 C457 1.394 . S
C456 H464 0.930 . S
C457 C456 1.394 . S
C457 C458 1.383 . S
C457 H465 0.929 . S
C458 C457 1.383 . S
C458 C459 1.377 . S
C459 H443 0.930 . S
C459 C458 1.377 . S
C459 C460 1.379 . S
C460 H444 0.931 . S
C460 C454 1.383 . S
C460 C459 1.379 . S
H461 C455 0.959 . S
H462 C455 0.961 . S
H463 C455 0.960 . S
H464 C456 0.930 . S
H465 C457 0.929 . S
H466 C474 0.929 . S
H467 C476 0.930 . S
H468 C478 0.930 1_655 S
H469 C481 0.929 1_655 S
H470 C484 0.930 . S
H471 C486 0.960 . S
H472 C486 0.960 . S
H473 C486 0.960 . S
C474 H466 0.929 . S
C474 C475 1.377 . S
C474 C476 1.384 . S
C475 C474 1.377 . S
C475 C481 1.390 . S
C476 H467 0.930 . S
C476 C474 1.384 . S
C476 C477 1.372 . S
C477 C476 1.372 . S
C477 C478 1.400 . S
C477 C482 1.490 . S
C478 H468 0.930 1_455 S
C478 C477 1.400 . S
C478 C481 1.386 . S
H479 C495 0.930 . S
H480 C496 0.931 . S
C481 H469 0.929 1_455 S
C481 C475 1.390 . S
C481 C478 1.386 . S
C482 C477 1.490 . S
C482 C484 1.395 1_455 S
C482 C485 1.403 . S
H483 C489 0.930 . S
C484 H470 0.930 . S
C484 C482 1.395 1_655 S
C484 C487 1.403 . S
C485 C482 1.403 . S
C485 C486 1.524 . S
C485 C489 1.400 . S
C486 H471 0.960 . S
C486 H472 0.960 . S
C486 H473 0.960 . S
C486 C485 1.524 . S
C487 C484 1.403 . S
C487 C488 1.392 1_655 S
C487 C491 1.495 . S
C488 C487 1.392 1_455 S
C488 C489 1.385 . S
C488 C490 1.478 . S
C489 H483 0.930 . S
C489 C485 1.400 . S
C489 C488 1.385 . S
C490 C488 1.478 . S
C490 C492 1.381 . S
C490 C496 1.383 1_455 S
C491 C487 1.495 . S
C491 H497 0.959 . S
C491 H498 0.961 . S
C491 H499 0.960 . S
C492 C490 1.381 . S
C492 C493 1.394 . S
C492 H500 0.930 . S
C493 C492 1.394 . S
C493 C494 1.383 . S
C493 H501 0.929 . S
C494 C493 1.383 . S
C494 C495 1.377 1_455 S
C495 H479 0.930 . S
C495 C494 1.377 1_655 S
C495 C496 1.379 . S
C496 H480 0.931 . S
C496 C490 1.383 1_655 S
C496 C495 1.379 . S
H497 C491 0.959 . S
H498 C491 0.961 . S
H499 C491 0.960 . S
H500 C492 0.930 . S
H501 C493 0.929 . S
H502 C510 0.929 . S
H503 C512 0.930 . S
H504 C514 0.930 . S
H505 C517 0.929 . S
H506 C520 0.930 . S
H507 C522 0.960 . S
H508 C522 0.960 . S
H509 C522 0.960 . S
C510 H502 0.929 . S
C510 C511 1.377 . S
C510 C512 1.384 . S
C511 C510 1.377 . S
C511 C517 1.390 1_545 S
C512 H503 0.930 . S
C512 C510 1.384 . S
C512 C513 1.372 . S
C513 C512 1.372 . S
C513 C514 1.400 1_545 S
C513 C518 1.490 . S
C514 H504 0.930 . S
C514 C513 1.400 1_565 S
C514 C517 1.386 . S
H515 C531 0.930 . S
H516 C532 0.931 . S
C517 H505 0.929 . S
C517 C511 1.390 1_565 S
C517 C514 1.386 . S
C518 C513 1.490 . S
C518 C520 1.395 . S
C518 C521 1.403 1_545 S
H519 C525 0.930 . S
C520 H506 0.930 . S
C520 C518 1.395 . S
C520 C523 1.403 . S
C521 C518 1.403 1_565 S
C521 C522 1.524 . S
C521 C525 1.400 . S
C522 H507 0.960 . S
C522 H508 0.960 . S
C522 H509 0.960 . S
C522 C521 1.524 . S
C523 C520 1.403 . S
C523 C524 1.392 . S
C523 C527 1.495 . S
C524 C523 1.392 . S
C524 C525 1.385 1_545 S
C524 C526 1.478 . S
C525 H519 0.930 . S
C525 C521 1.400 . S
C525 C524 1.385 1_565 S
C526 C524 1.478 . S
C526 C528 1.381 . S
C526 C532 1.383 1_545 S
C527 C523 1.495 . S
C527 H533 0.959 . S
C527 H534 0.961 . S
C527 H535 0.960 . S
C528 C526 1.381 . S
C528 C529 1.394 . S
C528 H536 0.930 . S
C529 C528 1.394 . S
C529 C530 1.383 . S
C529 H537 0.929 . S
C530 C529 1.383 . S
C530 C531 1.377 1_545 S
C531 H515 0.930 . S
C531 C530 1.377 1_565 S
C531 C532 1.379 . S
C532 H516 0.931 . S
C532 C526 1.383 1_565 S
C532 C531 1.379 . S
H533 C527 0.959 . S
H534 C527 0.961 . S
H535 C527 0.960 . S
H536 C528 0.930 . S
H537 C529 0.929 . S
H538 C546 0.929 . S
H539 C548 0.930 . S
H540 C550 0.930 . S
H541 C553 0.929 . S
H542 C556 0.930 . S
H543 C558 0.960 . S
H544 C558 0.960 . S
H545 C558 0.960 . S
C546 H538 0.929 . S
C546 C547 1.377 . S
C546 C548 1.384 . S
C547 C546 1.377 . S
C547 C553 1.390 1_455 S
C548 H539 0.930 . S
C548 C546 1.384 . S
C548 C549 1.372 . S
C549 C548 1.372 . S
C549 C550 1.400 1_455 S
C549 C554 1.490 . S
C550 H540 0.930 . S
C550 C549 1.400 1_655 S
C550 C553 1.386 . S
H551 C567 0.930 . S
H552 C568 0.931 . S
C553 H541 0.929 . S
C553 C547 1.390 1_655 S
C553 C550 1.386 . S
C554 C549 1.490 . S
C554 C556 1.395 . S
C554 C557 1.403 1_455 S
H555 C561 0.930 . S
C556 H542 0.930 . S
C556 C554 1.395 . S
C556 C559 1.403 . S
C557 C554 1.403 1_655 S
C557 C558 1.524 . S
C557 C561 1.400 . S
C558 H543 0.960 . S
C558 H544 0.960 . S
C558 H545 0.960 . S
C558 C557 1.524 . S
C559 C556 1.403 . S
C559 C560 1.392 . S
C559 C563 1.495 . S
C560 C559 1.392 . S
C560 C561 1.385 1_455 S
C560 C562 1.478 . S
C561 H555 0.930 . S
C561 C557 1.400 . S
C561 C560 1.385 1_655 S
C562 C560 1.478 . S
C562 C564 1.381 . S
C562 C568 1.383 1_455 S
C563 C559 1.495 . S
C563 H569 0.959 . S
C563 H570 0.961 . S
C563 H571 0.960 . S
C564 C562 1.381 . S
C564 C565 1.394 . S
C564 H572 0.930 . S
C565 C564 1.394 . S
C565 C566 1.383 . S
C565 H573 0.929 . S
C566 C565 1.383 . S
C566 C567 1.377 1_455 S
C567 H551 0.930 . S
C567 C566 1.377 1_655 S
C567 C568 1.379 . S
C568 H552 0.931 . S
C568 C562 1.383 1_655 S
C568 C567 1.379 . S
H569 C563 0.959 . S
H570 C563 0.961 . S
H571 C563 0.960 . S
H572 C564 0.930 . S
H573 C565 0.929 . S
H574 C582 0.929 . S
H575 C584 0.930 . S
H576 C586 0.930 . S
H577 C589 0.929 . S
H578 C592 0.930 . S
H579 C594 0.960 . S
H580 C594 0.960 . S
H581 C594 0.960 . S
C582 H574 0.929 . S
C582 C583 1.377 . S
C582 C584 1.384 . S
C583 C582 1.377 . S
C583 C589 1.390 1_545 S
C584 H575 0.930 . S
C584 C582 1.384 . S
C584 C585 1.372 . S
C585 C584 1.372 . S
C585 C586 1.400 1_545 S
C585 C590 1.490 . S
C586 H576 0.930 . S
C586 C585 1.400 1_565 S
C586 C589 1.386 . S
H587 C603 0.930 . S
H588 C604 0.931 . S
C589 H577 0.929 . S
C589 C583 1.390 1_565 S
C589 C586 1.386 . S
C590 C585 1.490 . S
C590 C592 1.391 1_545 S
C590 C593 1.406 . S
H591 C597 0.930 . S
C592 H578 0.930 . S
C592 C590 1.391 1_565 S
C592 C595 1.403 . S
C593 C590 1.406 . S
C593 C594 1.524 . S
C593 C597 1.400 . S
C594 H579 0.960 . S
C594 H580 0.960 . S
C594 H581 0.960 . S
C594 C593 1.524 . S
C595 C592 1.403 . S
C595 C596 1.392 . S
C595 C599 1.495 . S
C596 C595 1.392 . S
C596 C597 1.385 1_565 S
C596 C598 1.478 . S
C597 H591 0.930 . S
C597 C593 1.400 . S
C597 C596 1.385 1_545 S
C598 C596 1.478 . S
C598 C600 1.381 1_565 S
C598 C604 1.383 . S
C599 C595 1.495 . S
C599 H605 0.959 . S
C599 H606 0.961 . S
C599 H607 0.960 . S
C600 C598 1.381 1_545 S
C600 C601 1.394 . S
C600 H608 0.930 . S
C601 C600 1.394 . S
C601 C602 1.383 1_545 S
C601 H609 0.929 . S
C602 C601 1.383 1_565 S
C602 C603 1.377 . S
C603 H587 0.930 . S
C603 C602 1.377 . S
C603 C604 1.379 . S
C604 H588 0.931 . S
C604 C598 1.383 . S
C604 C603 1.379 . S
H605 C599 0.959 . S
H606 C599 0.961 . S
H607 C599 0.960 . S
H608 C600 0.930 . S
H609 C601 0.929 . S
H610 C618 0.929 . S
H611 C620 0.930 . S
H612 C622 0.930 . S
H613 C625 0.929 . S
H614 C628 0.930 . S
H615 C630 0.960 . S
H616 C630 0.960 1_655 S
H617 C630 0.960 . S
C618 H610 0.929 . S
C618 C619 1.377 1_655 S
C618 C620 1.384 . S
C619 C618 1.377 1_455 S
C619 C625 1.390 . S
C620 H611 0.930 . S
C620 C618 1.384 . S
C620 C621 1.372 1_655 S
C621 C620 1.372 1_455 S
C621 C622 1.400 . S
C621 C626 1.490 . S
C622 H612 0.930 . S
C622 C621 1.400 . S
C622 C625 1.386 . S
H623 C639 0.930 . S
H624 C640 0.931 . S
C625 H613 0.929 . S
C625 C619 1.390 . S
C625 C622 1.386 . S
C626 C621 1.490 . S
C626 C628 1.395 . S
C626 C629 1.403 . S
H627 C633 0.930 . S
C628 H614 0.930 . S
C628 C626 1.395 . S
C628 C631 1.403 . S
C629 C626 1.403 . S
C629 C630 1.524 . S
C629 C633 1.400 . S
C630 H615 0.960 . S
C630 H616 0.960 1_455 S
C630 H617 0.960 . S
C630 C629 1.524 . S
C631 C628 1.403 . S
C631 C632 1.392 . S
C631 C635 1.495 . S
C632 C631 1.392 . S
C632 C633 1.385 . S
C632 C634 1.478 . S
C633 H627 0.930 . S
C633 C629 1.400 . S
C633 C632 1.385 . S
C634 C632 1.478 . S
C634 C636 1.381 1_455 S
C634 C640 1.383 . S
C635 C631 1.495 . S
C635 H641 0.959 . S
C635 H642 0.961 . S
C635 H643 0.960 . S
C636 C634 1.381 1_655 S
C636 C637 1.394 . S
C636 H644 0.930 . S
C637 C636 1.394 . S
C637 C638 1.383 1_655 S
C637 H645 0.929 . S
C638 C637 1.383 1_455 S
C638 C639 1.377 . S
C639 H623 0.930 . S
C639 C638 1.377 . S
C639 C640 1.379 . S
C640 H624 0.931 . S
C640 C634 1.383 . S
C640 C639 1.379 . S
H641 C635 0.959 . S
H642 C635 0.961 . S
H643 C635 0.960 . S
H644 C636 0.930 . S
H645 C637 0.929 . S
H646 C654 0.929 1_565 S
H647 C656 0.930 1_565 S
H648 C658 0.930 . S
H649 C661 0.929 . S
H650 C664 0.930 . S
H651 C666 0.960 . S
H652 C666 0.960 . S
H653 C666 0.960 . S
C654 H646 0.929 1_545 S
C654 C655 1.377 . S
C654 C656 1.384 . S
C655 C654 1.377 . S
C655 C661 1.390 . S
C656 H647 0.930 1_545 S
C656 C654 1.384 . S
C656 C657 1.372 . S
C657 C656 1.372 . S
C657 C658 1.400 . S
C657 C662 1.490 . S
C658 H648 0.930 . S
C658 C657 1.400 . S
C658 C661 1.386 . S
H659 C675 0.930 . S
H660 C676 0.931 . S
C661 H649 0.929 . S
C661 C655 1.390 . S
C661 C658 1.386 . S
C662 C657 1.490 . S
C662 C664 1.395 . S
C662 C665 1.411 . S
H663 C669 0.930 1_565 S
C664 H650 0.930 . S
C664 C662 1.395 . S
C664 C667 1.403 . S
C665 C662 1.411 . S
C665 C666 1.513 1_545 S
C665 C669 1.402 . S
C666 H651 0.960 . S
C666 H652 0.960 . S
C666 H653 0.960 . S
C666 C665 1.513 1_565 S
C667 C664 1.403 . S
C667 C668 1.392 . S
C667 C671 1.495 . S
C668 C667 1.392 . S
C668 C669 1.385 . S
C668 C670 1.478 . S
C669 H663 0.930 1_545 S
C669 C665 1.402 . S
C669 C668 1.385 . S
C670 C668 1.478 . S
C670 C672 1.381 . S
C670 C676 1.383 . S
C671 C667 1.495 . S
C671 H677 0.959 . S
C671 H678 0.961 . S
C671 H679 0.960 . S
C672 C670 1.381 . S
C672 C673 1.394 . S
C672 H680 0.930 1_545 S
C673 C672 1.394 . S
C673 C674 1.383 . S
C673 H681 0.929 1_545 S
C674 C673 1.383 . S
C674 C675 1.377 . S
C675 H659 0.930 . S
C675 C674 1.377 . S
C675 C676 1.379 . S
C676 H660 0.931 . S
C676 C670 1.383 . S
C676 C675 1.379 . S
H677 C671 0.959 . S
H678 C671 0.961 . S
H679 C671 0.960 . S
H680 C672 0.930 1_565 S
H681 C673 0.929 1_565 S
H682 C690 0.918 1_556 S
H683 C692 0.921 1_556 S
H684 C694 0.930 . S
H685 C697 0.929 . S
H686 C700 0.930 . S
H687 C702 0.960 . S
H688 C702 0.960 . S
H689 C702 0.960 . S
C690 H682 0.918 1_554 S
C690 C691 1.390 . S
C690 C692 1.384 . S
C691 C690 1.390 . S
C691 C697 1.390 . S
C692 H683 0.921 1_554 S
C692 C690 1.384 . S
C692 C693 1.381 . S
C693 C692 1.381 . S
C693 C694 1.400 . S
C693 C698 1.490 . S
C694 H684 0.930 . S
C694 C693 1.400 . S
C694 C697 1.386 . S
H695 C711 0.930 . S
H696 C712 0.931 . S
C697 H685 0.929 . S
C697 C691 1.390 . S
C697 C694 1.386 . S
C698 C693 1.490 . S
C698 C700 1.395 1_554 S
C698 C701 1.403 . S
H699 C705 0.930 . S
C700 H686 0.930 . S
C700 C698 1.395 1_556 S
C700 C703 1.403 . S
C701 C698 1.403 . S
C701 C702 1.524 . S
C701 C705 1.400 . S
C702 H687 0.960 . S
C702 H688 0.960 . S
C702 H689 0.960 . S
C702 C701 1.524 . S
C703 C700 1.403 . S
C703 C704 1.392 1_556 S
C703 C707 1.495 . S
C704 C703 1.392 1_554 S
C704 C705 1.385 . S
C704 C706 1.478 . S
C705 H699 0.930 . S
C705 C701 1.400 . S
C705 C704 1.385 . S
C706 C704 1.478 . S
C706 C708 1.380 . S
C706 C712 1.383 . S
C707 C703 1.495 . S
C707 H713 0.959 . S
C707 H714 0.961 . S
C707 H715 0.960 . S
C708 C706 1.380 . S
C708 C709 1.394 . S
C708 H716 0.931 1_554 S
C709 C708 1.394 . S
C709 C710 1.383 . S
C709 H717 0.929 1_554 S
C710 C709 1.383 . S
C710 C711 1.377 . S
C711 H695 0.930 . S
C711 C710 1.377 . S
C711 C712 1.379 . S
C712 H696 0.931 . S
C712 C706 1.383 . S
C712 C711 1.379 . S
H713 C707 0.959 . S
H714 C707 0.961 . S
H715 C707 0.960 . S
H716 C708 0.931 1_556 S
H717 C709 0.929 1_556 S
H718 C726 0.929 . S
H719 C728 0.930 . S
H720 C730 0.930 . S
H721 C733 0.929 . S
H722 C736 0.930 . S
H723 C738 0.967 . S
H724 C738 0.960 . S
H725 C738 0.960 1_556 S
C726 H718 0.929 . S
C726 C727 1.377 . S
C726 C728 1.384 . S
C727 C726 1.377 . S
C727 C733 1.390 1_554 S
C728 H719 0.930 . S
C728 C726 1.384 . S
C728 C729 1.372 . S
C729 C728 1.372 . S
C729 C730 1.400 1_554 S
C729 C734 1.490 . S
C730 H720 0.930 . S
C730 C729 1.400 1_556 S
C730 C733 1.386 . S
H731 C747 0.930 . S
H732 C748 0.931 . S
C733 H721 0.929 . S
C733 C727 1.390 1_556 S
C733 C730 1.386 . S
C734 C729 1.490 . S
C734 C736 1.395 . S
C734 C737 1.403 . S
H735 C741 0.930 . S
C736 H722 0.930 . S
C736 C734 1.395 . S
C736 C739 1.403 . S
C737 C734 1.403 . S
C737 C738 1.524 . S
C737 C741 1.400 . S
C738 H723 0.967 . S
C738 H724 0.960 . S
C738 H725 0.960 1_554 S
C738 C737 1.524 . S
C739 C736 1.403 . S
C739 C740 1.392 . S
C739 C743 1.495 . S
C740 C739 1.392 . S
C740 C741 1.385 . S
C740 C742 1.478 . S
C741 H735 0.930 . S
C741 C737 1.400 . S
C741 C740 1.385 . S
C742 C740 1.478 . S
C742 C744 1.381 . S
C742 C748 1.383 1_554 S
C743 C739 1.495 . S
C743 H749 0.959 . S
C743 H750 0.961 . S
C743 H751 0.960 . S
C744 C742 1.381 . S
C744 C745 1.394 . S
C744 H752 0.930 . S
C745 C744 1.394 . S
C745 C746 1.383 . S
C745 H753 0.929 . S
C746 C745 1.383 . S
C746 C747 1.377 1_554 S
C747 H731 0.930 . S
C747 C746 1.377 1_556 S
C747 C748 1.379 . S
C748 H732 0.931 . S
C748 C742 1.383 1_556 S
C748 C747 1.379 . S
H749 C743 0.959 . S
H750 C743 0.961 . S
H751 C743 0.960 . S
H752 C744 0.930 . S
H753 C745 0.929 . S
H754 C762 0.929 . S
H755 C764 0.930 . S
H756 C766 0.930 . S
H757 C769 0.929 . S
H758 C772 0.934 . S
H759 C774 0.960 . S
H760 C774 0.960 . S
H761 C774 0.960 . S
C762 H754 0.929 . S
C762 C763 1.377 1_556 S
C762 C764 1.384 . S
C763 C762 1.377 1_554 S
C763 C769 1.390 . S
C764 H755 0.930 . S
C764 C762 1.384 . S
C764 C765 1.372 1_556 S
C765 C764 1.372 1_554 S
C765 C766 1.400 . S
C765 C770 1.490 . S
C766 H756 0.930 . S
C766 C765 1.400 . S
C766 C769 1.386 . S
H767 C783 0.930 . S
H768 C784 0.931 . S
C769 H757 0.929 . S
C769 C763 1.390 . S
C769 C766 1.386 . S
C770 C765 1.490 . S
C770 C772 1.395 . S
C770 C773 1.403 . S
H771 C777 0.930 . S
C772 H758 0.934 . S
C772 C770 1.395 . S
C772 C775 1.403 . S
C773 C770 1.403 . S
C773 C774 1.524 . S
C773 C777 1.400 . S
C774 H759 0.960 . S
C774 H760 0.960 . S
C774 H761 0.960 . S
C774 C773 1.524 . S
C775 C772 1.403 . S
C775 C776 1.392 . S
C775 C779 1.495 1_554 S
C776 C775 1.392 . S
C776 C777 1.385 . S
C776 C778 1.478 . S
C777 H771 0.930 . S
C777 C773 1.400 . S
C777 C776 1.385 . S
C778 C776 1.478 . S
C778 C780 1.381 1_554 S
C778 C784 1.383 . S
C779 C775 1.495 1_556 S
C779 H785 0.959 . S
C779 H786 0.961 1_556 S
C779 H787 0.960 . S
C780 C778 1.381 1_556 S
C780 C781 1.394 . S
C780 H788 0.930 . S
C781 C780 1.394 . S
C781 C782 1.383 1_556 S
C781 H789 0.929 . S
C782 C781 1.383 1_554 S
C782 C783 1.377 . S
C783 H767 0.930 . S
C783 C782 1.377 . S
C783 C784 1.379 . S
C784 H768 0.931 . S
C784 C778 1.383 . S
C784 C783 1.379 . S
H785 C779 0.959 . S
H786 C779 0.961 1_554 S
H787 C779 0.960 . S
H788 C780 0.930 . S
H789 C781 0.929 . S
H790 C798 0.929 . S
H791 C800 0.930 . S
H792 C802 0.930 . S
H793 C805 0.929 . S
H794 C808 0.930 . S
H795 C810 0.960 . S
H796 C810 0.960 . S
H797 C810 0.960 . S
C798 H790 0.929 . S
C798 C799 1.377 . S
C798 C800 1.384 . S
C799 C798 1.377 . S
C799 C805 1.390 1_554 S
C800 H791 0.930 . S
C800 C798 1.384 . S
C800 C801 1.372 . S
C801 C800 1.372 . S
C801 C802 1.400 1_554 S
C801 C806 1.490 . S
C802 H792 0.930 . S
C802 C801 1.400 1_556 S
C802 C805 1.386 . S
H803 C819 0.930 . S
H804 C820 0.931 . S
C805 H793 0.929 . S
C805 C799 1.390 1_556 S
C805 C802 1.386 . S
C806 C801 1.490 . S
C806 C808 1.395 . S
C806 C809 1.403 . S
H807 C813 0.930 . S
C808 H794 0.930 . S
C808 C806 1.395 . S
C808 C811 1.403 . S
C809 C806 1.403 . S
C809 C810 1.524 . S
C809 C813 1.400 . S
C810 H795 0.960 . S
C810 H796 0.960 . S
C810 H797 0.960 . S
C810 C809 1.524 . S
C811 C808 1.403 . S
C811 C812 1.392 . S
C811 C815 1.495 . S
C812 C811 1.392 . S
C812 C813 1.385 . S
C812 C814 1.478 . S
C813 H807 0.930 . S
C813 C809 1.400 . S
C813 C812 1.385 . S
C814 C812 1.478 . S
C814 C816 1.381 . S
C814 C820 1.383 1_554 S
C815 C811 1.495 . S
C815 H821 0.959 . S
C815 H822 0.961 1_554 S
C815 H823 0.960 . S
C816 C814 1.381 . S
C816 C817 1.394 . S
C816 H824 0.930 . S
C817 C816 1.394 . S
C817 C818 1.383 . S
C817 H825 0.929 . S
C818 C817 1.383 . S
C818 C819 1.377 1_554 S
C819 H803 0.930 . S
C819 C818 1.377 1_556 S
C819 C820 1.379 . S
C820 H804 0.931 . S
C820 C814 1.383 1_556 S
C820 C819 1.379 . S
H821 C815 0.959 . S
H822 C815 0.961 1_556 S
H823 C815 0.960 . S
H824 C816 0.930 . S
H825 C817 0.929 . S
C422 C378 1.626 . S
C403 C11 1.003 1_455 S
C458 C374 1.581 . S
C439 C143 1.382 . S
C494 C384 1.389 . S
C475 C1 1.096 . S
C530 C368 1.734 . S
C511 C169 1.405 . S
C547 C29 1.443 . S
C566 C360 1.617 . S
C602 C392 1.901 1_565 S
C583 C125 1.202 1_545 S
C619 C55 1.462 . S
C638 C346 1.805 . S
C655 C115 1.306 . S
C674 C390 1.649 . S
C691 C283 0.842 . S
C710 C372 1.070 . S
C727 C239 0.706 . S
C746 C387 1.107 . S
C782 C381 0.901 . S
C763 C257 0.845 . S
C818 C376 0.860 . S
C799 C229 0.775 . S
