# Generated by pormake.
# Topology zzz, (3,6)-cn, num edge types: 1
# Building blocks:
#     Node 0, Type 0, BuildingBlock: BETDIP_clean_linker_0, # of connection points: 3
#     Node 1, Type 0, BuildingBlock: BETDIP_clean_linker_0, # of connection points: 3
#     Node 2, Type 0, BuildingBlock: BETDIP_clean_linker_0, # of connection points: 3
#     Node 3, Type 0, BuildingBlock: BETDIP_clean_linker_0, # of connection points: 3
#     Node 4, Type 0, BuildingBlock: BETDIP_clean_linker_0, # of connection points: 3
#     Node 5, Type 0, BuildingBlock: BETDIP_clean_linker_0, # of connection points: 3
#     Node 6, Type 0, BuildingBlock: BETDIP_clean_linker_0, # of connection points: 3
#     Node 7, Type 0, BuildingBlock: BETDIP_clean_linker_0, # of connection points: 3
#     Node 8, Type 1, BuildingBlock: LEVNOQ01_clean_sbu_1, # of connection points: 6
#     Node 9, Type 1, BuildingBlock: LEVNOQ01_clean_sbu_1, # of connection points: 6
#     Node 10, Type 1, BuildingBlock: LEVNOQ01_clean_sbu_1, # of connection points: 6
#     Node 11, Type 1, BuildingBlock: LEVNOQ01_clean_sbu_1, # of connection points: 6
#     Edge 12, Type (0, 1), BuildingBlock: OJICUG_clean_linker_0, # of connection points: 2
#     Edge 13, Type (0, 1), BuildingBlock: OJICUG_clean_linker_0, # of connection points: 2
#     Edge 14, Type (0, 1), BuildingBlock: OJICUG_clean_linker_0, # of connection points: 2
#     Edge 15, Type (0, 1), BuildingBlock: OJICUG_clean_linker_0, # of connection points: 2
#     Edge 16, Type (0, 1), BuildingBlock: OJICUG_clean_linker_0, # of connection points: 2
#     Edge 17, Type (0, 1), BuildingBlock: OJICUG_clean_linker_0, # of connection points: 2
#     Edge 18, Type (0, 1), BuildingBlock: OJICUG_clean_linker_0, # of connection points: 2
#     Edge 19, Type (0, 1), BuildingBlock: OJICUG_clean_linker_0, # of connection points: 2
#     Edge 20, Type (0, 1), BuildingBlock: OJICUG_clean_linker_0, # of connection points: 2
#     Edge 21, Type (0, 1), BuildingBlock: OJICUG_clean_linker_0, # of connection points: 2
#     Edge 22, Type (0, 1), BuildingBlock: OJICUG_clean_linker_0, # of connection points: 2
#     Edge 23, Type (0, 1), BuildingBlock: OJICUG_clean_linker_0, # of connection points: 2
#     Edge 24, Type (0, 1), BuildingBlock: OJICUG_clean_linker_0, # of connection points: 2
#     Edge 25, Type (0, 1), BuildingBlock: OJICUG_clean_linker_0, # of connection points: 2
#     Edge 26, Type (0, 1), BuildingBlock: OJICUG_clean_linker_0, # of connection points: 2
#     Edge 27, Type (0, 1), BuildingBlock: OJICUG_clean_linker_0, # of connection points: 2
#     Edge 28, Type (0, 1), BuildingBlock: OJICUG_clean_linker_0, # of connection points: 2
#     Edge 29, Type (0, 1), BuildingBlock: OJICUG_clean_linker_0, # of connection points: 2
#     Edge 30, Type (0, 1), BuildingBlock: OJICUG_clean_linker_0, # of connection points: 2
#     Edge 31, Type (0, 1), BuildingBlock: OJICUG_clean_linker_0, # of connection points: 2
#     Edge 32, Type (0, 1), BuildingBlock: OJICUG_clean_linker_0, # of connection points: 2
#     Edge 33, Type (0, 1), BuildingBlock: OJICUG_clean_linker_0, # of connection points: 2
#     Edge 34, Type (0, 1), BuildingBlock: OJICUG_clean_linker_0, # of connection points: 2
#     Edge 35, Type (0, 1), BuildingBlock: OJICUG_clean_linker_0, # of connection points: 2
# Relax obj value: 0.129
# Max RMSD: 0.177
# Mean RMSD: 0.106
data_MOF--net-zzz--node1-LEVNOQ01_clean_sbu_1--node2-BETDIP_clean_linker_0--edge1-OJICUG_clean_linker_0
_symmetry_space_group_name_H-M    P1
_symmetry_Int_Tables_number       1
_symmetry_cell_setting            triclinic
loop_
_symmetry_equiv_pos_as_xyz
'x, y, z'
_cell_length_a     36.390563
_cell_length_b     36.434362
_cell_length_c     11.519311
_cell_angle_alpha  90.131674
_cell_angle_beta   89.956777
_cell_angle_gamma 89.929764
loop_
_atom_site_label
_atom_site_type_symbol
_atom_site_fract_x
_atom_site_fract_y
_atom_site_fract_z
_atom_type_partial_charge
H0 H 0.76456 0.56958 0.3394 0.0
H1 H 0.78254 0.56742 0.9706 0.0
H2 H 0.87296 0.58491 0.19972 0.0
H3 H 0.725 0.60756 0.98587 0.0
C4 C 0.71209 0.58474 0.03078 0.0
C5 C 0.78259 0.57403 0.26595 0.0
C6 C 0.82087 0.57841 0.28366 0.0
C7 C 0.76802 0.57426 0.15183 0.0
C8 C 0.79251 0.57346 0.05718 0.0
C9 C 0.83031 0.57663 0.0759 0.0
C10 C 0.84341 0.58361 0.1872 0.0
N11 N 0.72949 0.57042 0.13229 0.0
H12 H 0.95566 0.76839 0.32572 0.0
H13 H 0.94695 0.79146 0.9656 0.0
H14 H 0.90949 0.87085 0.21338 0.0
H15 H 0.91592 0.72813 0.97096 0.0
C16 C 0.94068 0.71786 0.01257 0.0
C17 C 0.94467 0.78581 0.258 0.0
C18 C 0.93383 0.82233 0.28383 0.0
C19 C 0.94392 0.77312 0.14192 0.0
C20 C 0.93972 0.79932 0.05322 0.0
C21 C 0.93247 0.83633 0.08159 0.0
C22 C 0.91947 0.84351 0.19359 0.0
N23 N 0.95403 0.73623 0.11397 0.0
H24 H 0.75518 0.94278 0.35862 0.0
H25 H 0.75023 0.96456 -0.00731 0.0
H26 H 0.65125 0.94453 0.18195 0.0
H27 H 0.80718 0.91314 0.02176 0.0
C28 C 0.81741 0.93679 0.06942 0.0
C29 C 0.73946 0.94339 0.27883 0.0
C30 C 0.7006 0.94167 0.28288 0.0
C31 C 0.75779 0.94775 0.17126 0.0
C32 C 0.73686 0.95541 0.07157 0.0
C33 C 0.69851 0.95486 0.07757 0.0
C34 C 0.68109 0.94366 0.17908 0.0
N35 N 0.79683 0.95008 0.16641 0.0
H36 H 0.57437 0.75499 0.3452 0.0
H37 H 0.57896 0.74073 0.97651 0.0
H38 H 0.60177 0.65 0.19979 0.0
H39 H 0.6117 0.80403 0.00156 0.0
C40 C 0.58668 0.8124 0.04602 0.0
C41 C 0.58217 0.73827 0.27128 0.0
C42 C 0.58914 0.70038 0.28608 0.0
C43 C 0.58287 0.75393 0.15919 0.0
C44 C 0.58535 0.73043 0.06235 0.0
C45 C 0.59014 0.69258 0.07828 0.0
C46 C 0.59831 0.67939 0.18885 0.0
N47 N 0.57439 0.7918 0.14382 0.0
H48 H 0.26155 0.46243 0.08029 0.0
H49 H 0.22707 0.44195 0.43079 0.0
H50 H 0.15187 0.42582 0.15563 0.0
H51 H 0.28302 0.43293 0.47444 0.0
C52 C 0.29984 0.44917 0.41642 0.0
C53 C 0.24174 0.45109 0.14049 0.0
C54 C 0.20544 0.44312 0.10222 0.0
C55 C 0.25142 0.44658 0.2592 0.0
C56 C 0.223 0.43865 0.33853 0.0
C57 C 0.18674 0.43509 0.30044 0.0
C58 C 0.18015 0.42969 0.1829 0.0
N59 N 0.28765 0.45575 0.29979 0.0
H60 H 0.09522 0.25653 0.06579 0.0
H61 H 0.05363 0.24534 0.4147 0.0
H62 H 0.07919 0.14968 0.21543 0.0
H63 H 0.01856 0.30168 0.27138 0.0
C64 C 0.04506 0.31312 0.29536 0.0
C65 C 0.08891 0.23933 0.13971 0.0
C66 C 0.08923 0.20063 0.12784 0.0
C67 C 0.07775 0.25562 0.24596 0.0
C68 C 0.06486 0.2332 0.33634 0.0
C69 C 0.06615 0.1951 0.32464 0.0
C70 C 0.08044 0.17935 0.22425 0.0
N71 N 0.07761 0.29439 0.26096 0.0
H72 H 0.27084 0.10351 0.06612 0.0
H73 H 0.27621 0.07023 0.42372 0.0
H74 H 0.37535 0.08588 0.23157 0.0
H75 H 0.2212 0.03825 0.19271 0.0
C76 C 0.2107 0.05871 0.25322 0.0
C77 C 0.28703 0.09872 0.14347 0.0
C78 C 0.32588 0.09664 0.13596 0.0
C79 C 0.26921 0.09191 0.25088 0.0
C80 C 0.28992 0.0797 0.34577 0.0
C81 C 0.32807 0.0778 0.33736 0.0
C82 C 0.34573 0.08929 0.23674 0.0
N83 N 0.23033 0.09222 0.26139 0.0
H84 H 0.44169 0.26662 0.04768 0.0
H85 H 0.44549 0.28272 0.41757 0.0
H86 H 0.42698 0.37405 0.1952 0.0
H87 H 0.48976 0.23825 0.37511 0.0
C88 C 0.47059 0.21854 0.3383 0.0
C89 C 0.43695 0.28406 0.12249 0.0
C90 C 0.43314 0.32247 0.10788 0.0
C91 C 0.4389 0.26895 0.23529 0.0
C92 C 0.4396 0.29297 0.33136 0.0
C93 C 0.43685 0.33084 0.31517 0.0
C94 C 0.42802 0.34445 0.20597 0.0
N95 N 0.44547 0.23065 0.25164 0.0
O96 O 0.05391 0.92522 0.79534 0.0
Mg97 Mg 0.06891 0.95799 0.65572 0.0
O98 O 0.02586 0.97264 0.87045 0.0
Mg99 Mg 0.01973 0.01061 0.71261 0.0
O100 O 0.08153 0.01142 0.63085 0.0
O101 O 0.12271 0.96502 0.63499 0.0
O102 O 0.01233 0.05071 0.56555 0.0
O103 O 0.04251 0.06132 0.82221 0.0
Mg104 Mg 0.96142 0.06522 0.72293 0.0
O105 O 0.95941 0.01325 0.79442 0.0
O106 O 0.95816 0.07512 0.54335 0.0
O107 O 0.99772 0.10193 0.80386 0.0
O108 O 0.91435 0.05541 0.80955 0.0
C109 C 0.01037 0.93652 0.52563 0.0
C110 C 0.03296 0.93857 0.87121 0.0
C111 C 0.11435 0.99836 0.60719 0.0
C112 C 0.99128 0.07249 0.5115 0.0
C113 C 0.03005 0.09402 0.83573 0.0
C114 C 0.92675 0.02292 0.83135 0.0
O115 O 0.04463 0.93682 0.5093 0.0
O116 O 0.99618 0.95937 0.59825 0.0
O117 O 0.41953 0.99494 0.81313 0.0
Mg118 Mg 0.45173 0.95686 0.72058 0.0
O119 O 0.46308 0.03688 0.83484 0.0
Mg120 Mg 0.51078 0.01357 0.71375 0.0
O121 O 0.5047 0.95272 0.78299 0.0
O122 O 0.46246 0.90793 0.79609 0.0
O123 O 0.55968 0.9929 0.59203 0.0
O124 O 0.55498 0.01667 0.84995 0.0
Mg125 Mg 0.56958 0.07709 0.70591 0.0
O126 O 0.51651 0.07333 0.64961 0.0
O127 O 0.59959 0.03918 0.60556 0.0
O128 O 0.58056 0.06986 0.88456 0.0
O129 O 0.54959 0.12455 0.63367 0.0
C130 C 0.44416 0.9928 0.51841 0.0
C131 C 0.42978 0.02616 0.84941 0.0
C132 C 0.49541 0.91961 0.81526 0.0
C133 C 0.59145 0.00703 0.57115 0.0
C134 C 0.57815 0.03584 0.90534 0.0
C135 C 0.51955 0.10691 0.61329 0.0
O136 O 0.44015 0.95914 0.54141 0.0
O137 O 0.46747 0.01123 0.57536 0.0
O138 O 0.54226 0.41815 0.7968 0.0
Mg139 Mg 0.57757 0.44733 0.68376 0.0
O140 O 0.49804 0.46006 0.8212 0.0
Mg141 Mg 0.51494 0.51005 0.70183 0.0
O142 O 0.57626 0.50034 0.74035 0.0
O143 O 0.62768 0.46753 0.74137 0.0
O144 O 0.53156 0.56012 0.58129 0.0
O145 O 0.52021 0.55147 0.84708 0.0
Mg146 Mg 0.45373 0.57109 0.72556 0.0
O147 O 0.45294 0.5187 0.66337 0.0
O148 O 0.48725 0.60144 0.61221 0.0
O149 O 0.46913 0.57851 0.90071 0.0
O150 O 0.40277 0.5539 0.67213 0.0
C151 C 0.52705 0.44516 0.49459 0.0
C152 C 0.51133 0.4278 0.83855 0.0
C153 C 0.61078 0.4976 0.76711 0.0
C154 C 0.51764 0.59226 0.56615 0.0
C155 C 0.50348 0.57411 0.91198 0.0
C156 C 0.41819 0.52347 0.64172 0.0
O157 O 0.56112 0.4394 0.50914 0.0
O158 O 0.51046 0.4686 0.55707 0.0
O159 O 0.95488 0.46604 0.91089 0.0
Mg160 Mg 0.95713 0.45158 0.73408 0.0
O161 O 0.97573 0.51833 0.84639 0.0
Mg162 Mg 0.01422 0.51449 0.69331 0.0
O163 O 0.0075 0.45171 0.65543 0.0
O164 O 0.97454 0.40064 0.67993 0.0
O165 O 0.05149 0.51079 0.53773 0.0
O166 O 0.06776 0.49995 0.80408 0.0
Mg167 Mg 0.07268 0.57683 0.66242 0.0
O168 O 0.02092 0.57729 0.73206 0.0
O169 O 0.07849 0.56194 0.48588 0.0
O170 O 0.10702 0.54585 0.77303 0.0
O171 O 0.05546 0.62768 0.71639 0.0
C172 C 0.92887 0.51417 0.57823 0.0
C173 C 0.95591 0.50069 0.91727 0.0
C174 C 1.00292 0.41674 0.63638 0.0
C175 C 0.07248 0.52809 0.4695 0.0
C176 C 0.09953 0.51493 0.81777 0.0
C177 C 0.02559 0.61224 0.75178 0.0
O178 O 0.92164 0.48404 0.62901 0.0
O179 O 0.96109 0.52859 0.58369 0.0
C180 C 0.16752 0.06921 0.42588 0.0
C181 C 0.18523 0.04574 0.34562 0.0
H182 H 0.13042 0.07299 0.57254 0.0
C183 C 0.17925 0.00793 0.35372 0.0
H184 H 0.17159 0.09861 0.42141 0.0
C185 C 0.15687 0.99353 0.44015 0.0
C186 C 0.13895 0.0164 0.521 0.0
H187 H 0.19232 0.98914 0.29335 0.0
H188 H 0.15307 0.96404 0.44188 0.0
C189 C 0.14403 0.05462 0.51222 0.0
C190 C 0.48003 0.15074 0.35093 0.0
C191 C 0.4672 0.18345 0.40124 0.0
H192 H 0.50612 0.09876 0.3824 0.0
C193 C 0.46201 0.185 0.52189 0.0
H194 H 0.48486 0.14921 0.25823 0.0
C195 C 0.47377 0.15617 0.59257 0.0
C196 C 0.49121 0.12551 0.54368 0.0
H197 H 0.45254 0.21014 0.56258 0.0
H198 H 0.47332 0.15986 0.68594 0.0
C199 C 0.49207 0.12184 0.42206 0.0
C200 C 0.36078 0.48314 0.4024 0.0
C201 C 0.33439 0.46399 0.46757 0.0
H202 H 0.40994 0.51596 0.40764 0.0
C203 C 0.34029 0.45943 0.58751 0.0
H204 H 0.3572 0.48687 0.30988 0.0
C205 C 0.37046 0.47552 0.64261 0.0
C206 C 0.3956 0.49641 0.57912 0.0
H207 H 0.32047 0.44483 0.64026 0.0
H208 H 0.37275 0.47375 0.73625 0.0
C209 C 0.39119 0.49927 0.45801 0.0
C210 C 0.05196 0.33689 0.49789 0.0
C211 C 0.04509 0.34376 0.37993 0.0
H212 H 0.04419 0.3555 0.67355 0.0
C213 C 0.03013 0.37772 0.34766 0.0
H214 H 0.0624 0.31042 0.52516 0.0
C215 C 0.02023 0.40363 0.43223 0.0
C216 C 0.02493 0.39597 0.55065 0.0
H217 H 0.02382 0.38323 0.25746 0.0
H218 H 0.00601 0.42834 0.40541 0.0
C219 C 0.04159 0.36267 0.58268 0.0
C220 C 0.85574 0.99375 0.05215 0.0
C221 C 0.8495 0.95701 0.02172 0.0
H222 H 0.88522 0.04314 0.01535 0.0
C223 C 0.87214 0.94062 0.93675 0.0
H224 H 0.83887 0.00721 0.11706 0.0
C225 C 0.89941 0.96112 0.87959 0.0
C226 C 0.90371 0.9986 0.90452 0.0
H227 H 0.86796 0.91223 0.91194 0.0
H228 H 0.91552 0.94828 0.81156 0.0
C229 C 0.88226 0.01436 -0.00653 0.0
C230 C 0.5796 0.86563 0.90983 0.0
C231 C 0.5646 0.84289 -0.00351 0.0
H232 H 0.56953 0.90821 0.78435 0.0
C233 C 0.52772 0.84776 0.02844 0.0
H234 H 0.60798 0.86234 0.88334 0.0
C235 C 0.50588 0.87365 0.97147 0.0
C236 C 0.52048 0.8957 0.88256 0.0
H237 H 0.51525 0.83063 0.09427 0.0
H238 H 0.47718 0.87594 -0.00439 0.0
C239 C 0.55778 0.89204 0.85381 0.0
C240 C 0.66916 0.57774 0.86217 0.0
C241 C 0.68109 0.56568 0.97209 0.0
H242 H 0.63652 0.56586 0.71073 0.0
C243 C 0.6653 0.53395 0.01943 0.0
H244 H 0.68084 0.60219 0.8237 0.0
C245 C 0.64004 0.51337 0.95487 0.0
C246 C 0.62974 0.5243 0.84251 0.0
H247 H 0.67366 0.52406 0.10397 0.0
H248 H 0.62981 0.48786 -0.00938 0.0
C249 C 0.64366 0.55719 0.79776 0.0
C250 C 0.94476 0.66831 0.86099 0.0
C251 C 0.96065 0.68682 0.95621 0.0
H252 H 0.95248 0.62911 0.72247 0.0
C253 C 0.99637 0.67718 -0.00967 0.0
H254 H 0.91722 0.67521 0.83273 0.0
C255 C 0.01645 0.6512 0.92669 0.0
C256 C 1.00113 0.63378 0.82891 0.0
H257 H 0.00945 0.69082 0.06294 0.0
H258 H 0.04461 0.64558 0.95165 0.0
C259 C 0.96474 0.64181 0.79821 0.0
C260 C 0.00813 0.16811 0.39436 0.0
C261 C 0.0466 0.17011 0.40227 0.0
H262 H 0.9601 0.13483 0.4181 0.0
C263 C 0.06627 0.14043 0.44726 0.0
H264 H 0.99263 0.19052 0.35671 0.0
C265 C 0.04826 0.10809 0.47453 0.0
C266 C 0.00977 0.10504 0.46238 0.0
H267 H 0.09604 0.14117 0.45144 0.0
H268 H 0.06479 0.08547 0.50586 0.0
C269 C 0.98976 0.13583 0.425 0.0
C270 C 0.35057 0.01737 0.39837 0.0
C271 C 0.35032 0.05558 0.41575 0.0
H272 H 0.38141 0.96733 0.41214 0.0
C273 C 0.38012 0.07249 0.4699 0.0
H274 H 0.32808 0.00408 0.35327 0.0
C275 C 0.41107 0.0521 0.49755 0.0
C276 C 0.41261 0.01404 0.47432 0.0
H277 H 0.38075 0.10204 0.48123 0.0
H278 H 0.43389 0.06652 0.53696 0.0
C279 C 0.38153 0.99665 0.42782 0.0
C280 C 0.49643 0.35186 0.39042 0.0
C281 C 0.45801 0.35613 0.38868 0.0
H282 H 0.54862 0.37723 0.41815 0.0
C283 C 0.44261 0.38988 0.42083 0.0
H284 H 0.50901 0.32635 0.3624 0.0
C285 C 0.46528 0.4194 0.44846 0.0
C286 C 0.50387 0.41574 0.44551 0.0
H287 H 0.41313 0.394 0.41726 0.0
H288 H 0.45248 0.44515 0.47239 0.0
C289 C 0.51915 0.3814 0.41798 0.0
C290 C 0.12108 0.44424 0.35813 0.0
C291 C 0.15783 0.45584 0.36201 0.0
H292 H 0.06476 0.45971 0.3797 0.0
C293 C 0.16565 0.49229 0.3944 0.0
H294 H 0.11423 0.41656 0.33121 0.0
C295 C 0.1375 0.51684 0.4191 0.0
C296 C 0.10077 0.50553 0.41313 0.0
H297 H 0.19358 0.50257 0.3951 0.0
H298 H 0.14467 0.54436 0.44662 0.0
C299 C 0.09286 0.46902 0.38278 0.0
C300 C 0.96552 0.8975 0.08184 0.0
C301 C 0.95239 0.86649 0.01929 0.0
H302 H 1.0014 0.94415 0.08505 0.0
C303 C 0.96481 0.86161 0.90473 0.0
H304 H 0.95761 0.90306 0.17052 0.0
C305 C 0.9918 0.88456 0.85901 0.0
C306 C 0.00628 0.91369 0.92508 0.0
H307 H 0.95478 0.8394 0.85104 0.0
H308 H 1.00114 0.87965 0.77095 0.0
C309 C 0.99168 0.92101 0.03449 0.0
C310 C 0.6473 0.95935 0.94022 0.0
C311 C 0.67562 0.9769 3e-05 0.0
H312 H 0.59385 0.96375 0.86879 0.0
C313 C 0.67283 0.01469 0.02426 0.0
H314 H 0.64856 0.9301 0.92322 0.0
C315 C 0.64081 0.03404 -0.00315 0.0
C316 C 0.61117 0.01579 0.94476 0.0
H317 H 0.69407 0.02842 0.07386 0.0
H318 H 0.63889 0.06288 0.01902 0.0
C319 C 0.6154 0.97851 0.91337 0.0
C320 C 0.58669 0.63161 0.9823 0.0
C321 C 0.57078 0.66608 0.00345 0.0
H322 H 0.5775 0.57483 0.94687 0.0
C323 C 0.5325 0.67011 -0.00735 0.0
H324 H 0.61603 0.62767 -0.00741 0.0
C325 C 0.51032 0.63978 0.96993 0.0
C326 C 0.52597 0.60479 0.956 0.0
H327 H 0.51934 0.69617 0.01111 0.0
H328 H 0.48092 0.64385 0.96293 0.0
C329 C 0.5645 0.60124 0.96012 0.0
C330 C 0.8893 0.57829 0.97072 0.0
C331 C 0.85709 0.55917 -0.00167 0.0
H332 H 0.94658 0.57472 0.93276 0.0
C333 C 0.85726 0.52063 -0.00412 0.0
H334 H 0.8899 0.60801 0.9747 0.0
C335 C 0.88988 0.50148 0.97653 0.0
C336 C 0.92284 0.52055 0.95703 0.0
H337 H 0.83288 0.50532 0.01971 0.0
H338 H 0.88919 0.47176 0.97703 0.0
C339 C 0.92192 0.55918 0.95126 0.0
C340 C 0.10375 0.14608 0.00339 0.0
C341 C 0.08686 0.18091 0.01476 0.0
H342 H 0.09819 0.09043 0.94292 0.0
C343 C 0.05634 0.18862 0.9449 0.0
H344 H 0.12748 0.13935 0.05602 0.0
C345 C 0.03936 0.16059 0.8818 0.0
C346 C 0.0527 0.12421 0.88591 0.0
H347 H 0.04263 0.21497 0.95102 0.0
H348 H 0.01417 0.16709 0.8362 0.0
C349 C 0.08649 0.11777 0.94094 0.0
C350 C 0.33712 0.05835 0.96252 0.0
C351 C 0.34646 0.08978 0.02618 0.0
H352 H 0.35609 0.01337 0.86028 0.0
C353 C 0.38233 0.10415 0.01316 0.0
H354 H 0.31001 0.04635 0.97069 0.0
C355 C 0.40955 0.08437 0.95298 0.0
C356 C 0.40115 0.05028 0.90253 0.0
H357 H 0.3904 0.12839 0.06143 0.0
H358 H 0.43744 0.0947 0.95196 0.0
C359 C 0.3641 0.03879 0.90202 0.0
C360 C 0.48621 0.33787 0.98389 0.0
C361 C 0.44858 0.34234 0.0065 0.0
H362 H 0.53561 0.3618 0.91918 0.0
C363 C 0.43094 0.37425 0.96516 0.0
H364 H 0.50092 0.31429 0.01744 0.0
C365 C 0.45114 0.40234 0.91175 0.0
C366 C 0.48933 0.39889 0.89723 0.0
H367 H 0.40208 0.37881 0.98344 0.0
H368 H 0.43699 0.42698 0.88411 0.0
C369 C 0.50632 0.36577 0.93048 0.0
C370 C 0.16177 0.43945 0.9343 0.0
C371 C 0.18822 0.45974 -0.00285 0.0
H372 H 0.11184 0.44075 0.8344 0.0
C373 C 0.18708 0.49821 0.98982 0.0
H374 H 0.1616 0.40976 0.93917 0.0
C375 C 0.15838 0.51587 0.93112 0.0
C376 C 0.12989 0.49558 0.87879 0.0
H377 H 0.20633 0.51475 0.03893 0.0
H378 H 0.15756 0.5456 0.93159 0.0
C379 C 0.1326 0.45715 0.87748 0.0
C380 C 0.93268 0.87124 0.43934 0.0
C381 C 0.95216 0.84414 0.37653 0.0
H382 H 0.93547 0.92202 0.5354 0.0
C383 C 0.99056 0.84676 0.37103 0.0
H384 H 0.90295 0.87043 0.44267 0.0
C385 C 0.00876 0.87688 0.41846 0.0
C386 C 0.98935 0.90514 0.47575 0.0
H387 H 0.00639 0.82724 0.32036 0.0
H388 H 0.03828 0.87829 0.40728 0.0
C389 C 0.95116 0.90127 0.48962 0.0
C390 C 0.68449 0.9851 0.43908 0.0
C391 C 0.67879 0.95063 0.3884 0.0
H392 H 0.66144 0.03007 0.5315 0.0
C393 C 0.64517 0.93247 0.40996 0.0
H394 H 0.70951 1.00027 0.422 0.0
C395 C 0.6167 0.95003 0.4714 0.0
C396 C 0.62139 0.98604 0.51244 0.0
H397 H 0.6398 0.90603 0.37027 0.0
H398 H 0.59065 0.93609 0.48209 0.0
C399 C 0.65622 1.00261 0.49943 0.0
C400 C 0.53681 0.68154 0.40939 0.0
C401 C 0.57455 0.67911 0.38599 0.0
H402 H 0.48924 0.6555 0.47905 0.0
C403 C 0.59418 0.64856 0.42878 0.0
H404 H 0.52062 0.70398 0.37482 0.0
C405 C 0.57592 0.61989 0.48593 0.0
C406 C 0.53773 0.62143 0.50261 0.0
H407 H 0.62323 0.64564 0.41026 0.0
H408 H 0.59157 0.5964 0.51547 0.0
C409 C 0.51865 0.65311 0.46658 0.0
C410 C 0.87155 0.58754 0.42785 0.0
C411 C 0.84054 0.5673 0.39143 0.0
H412 H 0.92449 0.58641 0.51017 0.0
C413 C 0.8371 0.53087 0.42911 0.0
H414 H 0.87519 0.6156 0.39912 0.0
C415 C 0.86551 0.51405 0.49145 0.0
C416 C 0.89817 0.53317 0.51742 0.0
H417 H 0.81409 0.51427 0.40088 0.0
H418 H 0.86256 0.48537 0.51409 0.0
C419 C 0.90026 0.57055 0.48873 0.0
loop_
_geom_bond_atom_site_label_1
_geom_bond_atom_site_label_2
_geom_bond_distance
_geom_bond_site_symmetry_2
_ccdc_geom_bond_type
H0 C5 0.930 . S
H1 C8 0.930 . S
H2 C10 0.930 . S
H3 C4 1.016 1_556 S
C4 H3 1.016 1_554 S
C4 N11 1.286 . S
C5 H0 0.930 . S
C5 C6 1.397 . S
C5 C7 1.361 . S
C6 C5 1.397 . S
C6 C10 1.390 . S
C7 C5 1.361 . S
C7 C8 1.393 1_554 S
C7 N11 1.413 . S
C8 H1 0.930 . S
C8 C7 1.393 1_556 S
C8 C9 1.399 1_556 S
C9 C8 1.399 1_554 S
C9 C10 1.381 . S
C10 H2 0.930 . S
C10 C6 1.390 . S
C10 C9 1.381 . S
N11 C4 1.286 . S
N11 C7 1.413 . S
H12 C17 0.930 . S
H13 C20 0.930 . S
H14 C22 0.930 . S
H15 C16 1.016 1_556 S
C16 H15 1.016 1_554 S
C16 N23 1.286 . S
C17 H12 0.930 . S
C17 C18 1.397 . S
C17 C19 1.361 . S
C18 C17 1.397 . S
C18 C22 1.390 . S
C19 C17 1.361 . S
C19 C20 1.393 1_554 S
C19 N23 1.413 . S
C20 H13 0.930 . S
C20 C19 1.393 1_556 S
C20 C21 1.399 1_556 S
C21 C20 1.399 1_554 S
C21 C22 1.381 . S
C22 H14 0.930 . S
C22 C18 1.390 . S
C22 C21 1.381 . S
N23 C16 1.286 . S
N23 C19 1.413 . S
H24 C29 0.930 . S
H25 C32 0.930 . S
H26 C34 0.930 . S
H27 C28 1.016 1_556 S
C28 H27 1.016 1_554 S
C28 N35 1.286 . S
C29 H24 0.930 . S
C29 C30 1.397 . S
C29 C31 1.361 . S
C30 C29 1.397 . S
C30 C34 1.390 . S
C31 C29 1.361 . S
C31 C32 1.393 1_554 S
C31 N35 1.413 . S
C32 H25 0.930 . S
C32 C31 1.393 1_556 S
C32 C33 1.399 1_556 S
C33 C32 1.399 1_554 S
C33 C34 1.381 . S
C34 H26 0.930 . S
C34 C30 1.390 . S
C34 C33 1.381 . S
N35 C28 1.286 . S
N35 C31 1.413 . S
H36 C41 0.930 . S
H37 C44 0.930 . S
H38 C46 0.930 . S
H39 C40 1.016 1_556 S
C40 H39 1.016 1_554 S
C40 N47 1.286 . S
C41 H36 0.930 . S
C41 C42 1.397 . S
C41 C43 1.361 . S
C42 C41 1.397 . S
C42 C46 1.390 . S
C43 C41 1.361 . S
C43 C44 1.393 1_554 S
C43 N47 1.413 . S
C44 H37 0.930 . S
C44 C43 1.393 1_556 S
C44 C45 1.399 1_556 S
C45 C44 1.399 1_554 S
C45 C46 1.381 . S
C46 H38 0.930 . S
C46 C42 1.390 . S
C46 C45 1.381 . S
N47 C40 1.286 . S
N47 C43 1.413 . S
H48 C53 0.930 . S
H49 C56 0.930 . S
H50 C58 0.930 . S
H51 C52 1.016 . S
C52 H51 1.016 . S
C52 N59 1.286 . S
C53 H48 0.930 . S
C53 C54 1.397 . S
C53 C55 1.361 . S
C54 C53 1.397 . S
C54 C58 1.390 . S
C55 C53 1.361 . S
C55 C56 1.393 . S
C55 N59 1.413 . S
C56 H49 0.930 . S
C56 C55 1.393 . S
C56 C57 1.399 . S
C57 C56 1.399 . S
C57 C58 1.381 . S
C58 H50 0.930 . S
C58 C54 1.390 . S
C58 C57 1.381 . S
N59 C52 1.286 . S
N59 C55 1.413 . S
H60 C65 0.930 . S
H61 C68 0.930 . S
H62 C70 0.930 . S
H63 C64 1.016 . S
C64 H63 1.016 . S
C64 N71 1.286 . S
C65 H60 0.930 . S
C65 C66 1.397 . S
C65 C67 1.361 . S
C66 C65 1.397 . S
C66 C70 1.390 . S
C67 C65 1.361 . S
C67 C68 1.393 . S
C67 N71 1.413 . S
C68 H61 0.930 . S
C68 C67 1.393 . S
C68 C69 1.399 . S
C69 C68 1.399 . S
C69 C70 1.381 . S
C70 H62 0.930 . S
C70 C66 1.390 . S
C70 C69 1.381 . S
N71 C64 1.286 . S
N71 C67 1.413 . S
H72 C77 0.930 . S
H73 C80 0.930 . S
H74 C82 0.930 . S
H75 C76 1.016 . S
C76 H75 1.016 . S
C76 N83 1.286 . S
C77 H72 0.930 . S
C77 C78 1.397 . S
C77 C79 1.361 . S
C78 C77 1.397 . S
C78 C82 1.390 . S
C79 C77 1.361 . S
C79 C80 1.393 . S
C79 N83 1.413 . S
C80 H73 0.930 . S
C80 C79 1.393 . S
C80 C81 1.399 . S
C81 C80 1.399 . S
C81 C82 1.381 . S
C82 H74 0.930 . S
C82 C78 1.390 . S
C82 C81 1.381 . S
N83 C76 1.286 . S
N83 C79 1.413 . S
H84 C89 0.930 . S
H85 C92 0.930 . S
H86 C94 0.930 . S
H87 C88 1.016 . S
C88 H87 1.016 . S
C88 N95 1.286 . S
C89 H84 0.930 . S
C89 C90 1.397 . S
C89 C91 1.361 . S
C90 C89 1.397 . S
C90 C94 1.390 . S
C91 C89 1.361 . S
C91 C92 1.393 . S
C91 N95 1.413 . S
C92 H85 0.930 . S
C92 C91 1.393 . S
C92 C93 1.399 . S
C93 C92 1.399 . S
C93 C94 1.381 . S
C94 H86 0.930 . S
C94 C90 1.390 . S
C94 C93 1.381 . S
N95 C88 1.286 . S
N95 C91 1.413 . S
O96 Mg97 1.990 . S
O96 C110 1.253 . S
Mg97 O96 1.990 . S
Mg97 O100 2.180 . S
Mg97 O101 2.117 . S
Mg97 O115 2.030 . S
O98 Mg99 2.072 1_565 S
O98 C110 1.260 . S
Mg99 O98 2.072 1_545 S
Mg99 O100 2.099 1_545 S
Mg99 O102 2.079 . S
Mg99 O103 2.072 . S
Mg99 O105 2.099 1_455 S
Mg99 O116 2.079 1_445 S
O100 Mg97 2.180 . S
O100 Mg99 2.099 1_565 S
O100 C111 1.279 . S
O101 Mg97 2.117 . S
O101 C111 1.250 . S
O102 Mg99 2.079 . S
O102 C112 1.264 1_455 S
O103 Mg99 2.072 . S
O103 C113 1.260 . S
Mg104 O105 2.180 . S
Mg104 O106 2.030 . S
Mg104 O107 1.990 . S
Mg104 O108 2.117 . S
O105 Mg99 2.099 1_655 S
O105 Mg104 2.180 . S
O105 C114 1.279 . S
O106 Mg104 2.030 . S
O106 C112 1.248 . S
O107 Mg104 1.990 . S
O107 C113 1.253 1_655 S
O108 Mg104 2.117 . S
O108 C114 1.250 . S
C109 O115 1.248 1_655 S
C109 O116 1.264 . S
C110 O96 1.253 . S
C110 O98 1.260 . S
C111 O100 1.279 . S
C111 O101 1.250 . S
C112 O102 1.264 1_655 S
C112 O106 1.248 . S
C113 O103 1.260 . S
C113 O107 1.253 1_455 S
C114 O105 1.279 . S
C114 O108 1.250 . S
O115 Mg97 2.030 . S
O115 C109 1.248 1_455 S
O116 Mg99 2.079 1_665 S
O116 C109 1.264 . S
O117 Mg118 1.990 . S
O117 C131 1.253 1_565 S
Mg118 O117 1.990 . S
Mg118 O121 2.180 . S
Mg118 O122 2.117 . S
Mg118 O136 2.030 . S
O119 Mg120 2.072 . S
O119 C131 1.260 . S
Mg120 O119 2.072 . S
Mg120 O121 2.099 1_545 S
Mg120 O123 2.079 1_545 S
Mg120 O124 2.072 . S
Mg120 O126 2.099 . S
Mg120 O137 2.079 . S
O121 Mg118 2.180 . S
O121 Mg120 2.099 1_565 S
O121 C132 1.279 . S
O122 Mg118 2.117 . S
O122 C132 1.250 . S
O123 Mg120 2.079 1_565 S
O123 C133 1.264 . S
O124 Mg120 2.072 . S
O124 C134 1.260 . S
Mg125 O126 2.180 . S
Mg125 O127 2.030 . S
Mg125 O128 1.990 . S
Mg125 O129 2.117 . S
O126 Mg120 2.099 . S
O126 Mg125 2.180 . S
O126 C135 1.279 . S
O127 Mg125 2.030 . S
O127 C133 1.248 1_545 S
O128 Mg125 1.990 . S
O128 C134 1.253 . S
O129 Mg125 2.117 . S
O129 C135 1.250 . S
C130 O136 1.259 . S
C130 O137 1.259 1_565 S
C131 O117 1.253 1_545 S
C131 O119 1.260 . S
C132 O121 1.279 . S
C132 O122 1.250 . S
C133 O123 1.264 . S
C133 O127 1.248 1_565 S
C134 O124 1.260 . S
C134 O128 1.253 . S
C135 O126 1.279 . S
C135 O129 1.250 . S
O136 Mg118 2.030 . S
O136 C130 1.259 . S
O137 Mg120 2.079 . S
O137 C130 1.259 1_545 S
O138 Mg139 1.990 . S
O138 C152 1.253 . S
Mg139 O138 1.990 . S
Mg139 O142 2.180 . S
Mg139 O143 2.117 . S
Mg139 O157 2.030 . S
O140 Mg141 2.072 . S
O140 C152 1.260 . S
Mg141 O140 2.072 . S
Mg141 O142 2.099 . S
Mg141 O144 2.079 . S
Mg141 O145 2.072 . S
Mg141 O147 2.099 . S
Mg141 O158 2.079 . S
O142 Mg139 2.180 . S
O142 Mg141 2.099 . S
O142 C153 1.279 . S
O143 Mg139 2.117 . S
O143 C153 1.250 . S
O144 Mg141 2.079 . S
O144 C154 1.264 . S
O145 Mg141 2.072 . S
O145 C155 1.260 . S
Mg146 O147 2.180 . S
Mg146 O148 2.030 . S
Mg146 O149 1.990 . S
Mg146 O150 2.117 . S
O147 Mg141 2.099 . S
O147 Mg146 2.180 . S
O147 C156 1.279 . S
O148 Mg146 2.030 . S
O148 C154 1.248 . S
O149 Mg146 1.990 . S
O149 C155 1.253 . S
O150 Mg146 2.117 . S
O150 C156 1.250 . S
C151 O157 1.248 . S
C151 O158 1.264 . S
C152 O138 1.253 . S
C152 O140 1.260 . S
C153 O142 1.279 . S
C153 O143 1.250 . S
C154 O144 1.264 . S
C154 O148 1.248 . S
C155 O145 1.260 . S
C155 O149 1.253 . S
C156 O147 1.279 . S
C156 O150 1.250 . S
O157 Mg139 2.030 . S
O157 C151 1.248 . S
O158 Mg141 2.079 . S
O158 C151 1.264 . S
O159 Mg160 1.990 . S
O159 C173 1.253 . S
Mg160 O159 1.990 . S
Mg160 O163 2.180 . S
Mg160 O164 2.117 . S
Mg160 O178 2.030 . S
O161 Mg162 2.072 1_655 S
O161 C173 1.260 . S
Mg162 O161 2.072 1_455 S
Mg162 O163 2.099 1_455 S
Mg162 O165 2.079 . S
Mg162 O166 2.072 . S
Mg162 O168 2.099 . S
Mg162 O179 2.079 1_455 S
O163 Mg160 2.180 . S
O163 Mg162 2.099 1_655 S
O163 C174 1.279 . S
O164 Mg160 2.117 . S
O164 C174 1.250 . S
O165 Mg162 2.079 . S
O165 C175 1.264 . S
O166 Mg162 2.072 . S
O166 C176 1.260 . S
Mg167 O168 2.180 . S
Mg167 O169 2.030 . S
Mg167 O170 1.990 . S
Mg167 O171 2.117 . S
O168 Mg162 2.099 . S
O168 Mg167 2.180 . S
O168 C177 1.279 . S
O169 Mg167 2.030 . S
O169 C175 1.248 . S
O170 Mg167 1.990 . S
O170 C176 1.253 . S
O171 Mg167 2.117 . S
O171 C177 1.250 . S
C172 O178 1.248 . S
C172 O179 1.264 . S
C173 O159 1.253 . S
C173 O161 1.260 . S
C174 O163 1.279 . S
C174 O164 1.250 . S
C175 O165 1.264 . S
C175 O169 1.248 . S
C176 O166 1.260 . S
C176 O170 1.253 . S
C177 O168 1.279 . S
C177 O171 1.250 . S
O178 Mg160 2.030 . S
O178 C172 1.248 . S
O179 Mg162 2.079 1_655 S
O179 C172 1.264 . S
C180 C181 1.387 . S
C180 H184 0.950 . S
C180 C189 1.390 . S
C181 C180 1.387 . S
C181 C183 1.387 . S
H182 C189 0.950 . S
C183 C181 1.387 . S
C183 C185 1.390 1_545 S
C183 H187 0.950 1_545 S
H184 C180 0.950 . S
C185 C183 1.390 1_565 S
C185 C186 1.387 1_565 S
C185 H188 0.950 . S
C186 C185 1.387 1_545 S
C186 C189 1.387 . S
H187 C183 0.950 1_565 S
H188 C185 0.950 . S
C189 C180 1.390 . S
C189 H182 0.950 . S
C189 C186 1.387 . S
C190 C191 1.387 . S
C190 H194 0.950 . S
C190 C199 1.390 . S
C191 C190 1.387 . S
C191 C193 1.387 . S
H192 C199 0.950 . S
C193 C191 1.387 . S
C193 C195 1.390 . S
C193 H197 0.950 . S
H194 C190 0.950 . S
C195 C193 1.390 . S
C195 C196 1.387 . S
C195 H198 0.950 . S
C196 C195 1.387 . S
C196 C199 1.387 . S
H197 C193 0.950 . S
H198 C195 0.950 . S
C199 C190 1.390 . S
C199 H192 0.950 . S
C199 C196 1.387 . S
C200 C201 1.387 . S
C200 H204 0.950 . S
C200 C209 1.390 . S
C201 C200 1.387 . S
C201 C203 1.387 . S
H202 C209 0.950 . S
C203 C201 1.387 . S
C203 C205 1.390 . S
C203 H207 0.950 . S
H204 C200 0.950 . S
C205 C203 1.390 . S
C205 C206 1.387 . S
C205 H208 0.950 . S
C206 C205 1.387 . S
C206 C209 1.387 . S
H207 C203 0.950 . S
H208 C205 0.950 . S
C209 C200 1.390 . S
C209 H202 0.950 . S
C209 C206 1.387 . S
C210 C211 1.387 . S
C210 H214 0.950 . S
C210 C219 1.390 . S
C211 C210 1.387 . S
C211 C213 1.387 . S
H212 C219 0.950 . S
C213 C211 1.387 . S
C213 C215 1.390 . S
C213 H217 0.950 . S
H214 C210 0.950 . S
C215 C213 1.390 . S
C215 C216 1.387 . S
C215 H218 0.950 . S
C216 C215 1.387 . S
C216 C219 1.387 . S
H217 C213 0.950 . S
H218 C215 0.950 . S
C219 C210 1.390 . S
C219 H212 0.950 . S
C219 C216 1.387 . S
C220 C221 1.387 1_545 S
C220 H224 0.950 1_556 S
C220 C229 1.390 . S
C221 C220 1.387 1_565 S
C221 C223 1.387 . S
H222 C229 0.950 . S
C223 C221 1.387 . S
C223 C225 1.390 . S
C223 H227 0.950 . S
H224 C220 0.950 1_554 S
C225 C223 1.390 . S
C225 C226 1.387 . S
C225 H228 0.950 . S
C226 C225 1.387 . S
C226 C229 1.387 1_565 S
H227 C223 0.950 . S
H228 C225 0.950 . S
C229 C220 1.390 . S
C229 H222 0.950 . S
C229 C226 1.387 1_545 S
C230 C231 1.387 . S
C230 H234 0.950 . S
C230 C239 1.390 . S
C231 C230 1.387 . S
C231 C233 1.387 . S
H232 C239 0.950 . S
C233 C231 1.387 . S
C233 C235 1.390 . S
C233 H237 0.950 . S
H234 C230 0.950 . S
C235 C233 1.390 . S
C235 C236 1.387 . S
C235 H238 0.950 . S
C236 C235 1.387 . S
C236 C239 1.387 . S
H237 C233 0.950 . S
H238 C235 0.950 . S
C239 C230 1.390 . S
C239 H232 0.950 . S
C239 C236 1.387 . S
C240 C241 1.387 . S
C240 H244 0.950 . S
C240 C249 1.390 . S
C241 C240 1.387 . S
C241 C243 1.387 1_556 S
H242 C249 0.950 . S
C243 C241 1.387 1_554 S
C243 C245 1.390 1_554 S
C243 H247 0.950 . S
H244 C240 0.950 . S
C245 C243 1.390 1_556 S
C245 C246 1.387 . S
C245 H248 0.950 . S
C246 C245 1.387 . S
C246 C249 1.387 . S
H247 C243 0.950 . S
H248 C245 0.950 . S
C249 C240 1.390 . S
C249 H242 0.950 . S
C249 C246 1.387 . S
C250 C251 1.387 . S
C250 H254 0.950 . S
C250 C259 1.390 . S
C251 C250 1.387 . S
C251 C253 1.387 1_655 S
H252 C259 0.950 . S
C253 C251 1.387 1_455 S
C253 C255 1.390 . S
C253 H257 0.950 1_556 S
H254 C250 0.950 . S
C255 C253 1.390 . S
C255 C256 1.387 1_455 S
C255 H258 0.950 . S
C256 C255 1.387 1_655 S
C256 C259 1.387 . S
H257 C253 0.950 1_554 S
H258 C255 0.950 . S
C259 C250 1.390 . S
C259 H252 0.950 . S
C259 C256 1.387 . S
C260 C261 1.387 . S
C260 H264 0.950 1_455 S
C260 C269 1.390 1_455 S
C261 C260 1.387 . S
C261 C263 1.387 . S
H262 C269 0.950 . S
C263 C261 1.387 . S
C263 C265 1.390 . S
C263 H267 0.950 . S
H264 C260 0.950 1_655 S
C265 C263 1.390 . S
C265 C266 1.387 . S
C265 H268 0.950 . S
C266 C265 1.387 . S
C266 C269 1.387 1_455 S
H267 C263 0.950 . S
H268 C265 0.950 . S
C269 C260 1.390 1_655 S
C269 H262 0.950 . S
C269 C266 1.387 1_655 S
C270 C271 1.387 . S
C270 H274 0.950 . S
C270 C279 1.390 . S
C271 C270 1.387 . S
C271 C273 1.387 . S
H272 C279 0.950 1_565 S
C273 C271 1.387 . S
C273 C275 1.390 . S
C273 H277 0.950 . S
H274 C270 0.950 . S
C275 C273 1.390 . S
C275 C276 1.387 . S
C275 H278 0.950 . S
C276 C275 1.387 . S
C276 C279 1.387 . S
H277 C273 0.950 . S
H278 C275 0.950 . S
C279 C270 1.390 . S
C279 H272 0.950 1_545 S
C279 C276 1.387 . S
C280 C281 1.387 . S
C280 H284 0.950 . S
C280 C289 1.390 . S
C281 C280 1.387 . S
C281 C283 1.387 . S
H282 C289 0.950 . S
C283 C281 1.387 . S
C283 C285 1.390 . S
C283 H287 0.950 . S
H284 C280 0.950 . S
C285 C283 1.390 . S
C285 C286 1.387 . S
C285 H288 0.950 . S
C286 C285 1.387 . S
C286 C289 1.387 . S
H287 C283 0.950 . S
H288 C285 0.950 . S
C289 C280 1.390 . S
C289 H282 0.950 . S
C289 C286 1.387 . S
C290 C291 1.387 . S
C290 H294 0.950 . S
C290 C299 1.390 . S
C291 C290 1.387 . S
C291 C293 1.387 . S
H292 C299 0.950 . S
C293 C291 1.387 . S
C293 C295 1.390 . S
C293 H297 0.950 . S
H294 C290 0.950 . S
C295 C293 1.390 . S
C295 C296 1.387 . S
C295 H298 0.950 . S
C296 C295 1.387 . S
C296 C299 1.387 . S
H297 C293 0.950 . S
H298 C295 0.950 . S
C299 C290 1.390 . S
C299 H292 0.950 . S
C299 C296 1.387 . S
C300 C301 1.387 1_554 S
C300 H304 0.950 . S
C300 C309 1.390 1_554 S
C301 C300 1.387 1_556 S
C301 C303 1.387 . S
H302 C309 0.948 1_454 S
C303 C301 1.387 . S
C303 C305 1.390 . S
C303 H307 0.950 . S
H304 C300 0.950 . S
C305 C303 1.390 . S
C305 C306 1.387 1_655 S
C305 H308 0.950 1_655 S
C306 C305 1.387 1_455 S
C306 C309 1.387 1_455 S
H307 C303 0.950 . S
H308 C305 0.950 1_455 S
C309 C300 1.390 1_556 S
C309 H302 0.948 1_656 S
C309 C306 1.387 1_655 S
C310 C311 1.387 . S
C310 H314 0.950 . S
C310 C319 1.390 . S
C311 C310 1.387 . S
C311 C313 1.387 1_566 S
H312 C319 0.950 . S
C313 C311 1.387 1_544 S
C313 C315 1.390 1_554 S
C313 H317 0.950 . S
H314 C310 0.950 . S
C315 C313 1.390 1_556 S
C315 C316 1.387 . S
C315 H318 0.950 1_556 S
C316 C315 1.387 . S
C316 C319 1.387 1_545 S
H317 C313 0.950 . S
H318 C315 0.950 1_554 S
C319 C310 1.390 . S
C319 H312 0.950 . S
C319 C316 1.387 1_565 S
C320 C321 1.387 . S
C320 H324 0.950 1_556 S
C320 C329 1.390 . S
C321 C320 1.387 . S
C321 C323 1.387 . S
H322 C329 0.950 . S
C323 C321 1.387 . S
C323 C325 1.390 . S
C323 H327 0.950 . S
H324 C320 0.950 1_554 S
C325 C323 1.390 . S
C325 C326 1.387 . S
C325 H328 0.950 . S
C326 C325 1.387 . S
C326 C329 1.387 . S
H327 C323 0.950 . S
H328 C325 0.950 . S
C329 C320 1.390 . S
C329 H322 0.950 . S
C329 C326 1.387 . S
C330 C331 1.387 . S
C330 H334 0.950 . S
C330 C339 1.390 . S
C331 C330 1.387 . S
C331 C333 1.387 . S
H332 C339 0.950 . S
C333 C331 1.387 . S
C333 C335 1.390 . S
C333 H337 0.950 1_556 S
H334 C330 0.950 . S
C335 C333 1.390 . S
C335 C336 1.387 . S
C335 H338 0.950 . S
C336 C335 1.387 . S
C336 C339 1.387 . S
H337 C333 0.950 1_554 S
H338 C335 0.950 . S
C339 C330 1.390 . S
C339 H332 0.950 . S
C339 C336 1.387 . S
C340 C341 1.387 . S
C340 H344 0.950 . S
C340 C349 1.390 . S
C341 C340 1.387 . S
C341 C343 1.387 1_554 S
H342 C349 0.950 . S
C343 C341 1.387 1_556 S
C343 C345 1.390 . S
C343 H347 0.950 . S
H344 C340 0.950 . S
C345 C343 1.390 . S
C345 C346 1.387 . S
C345 H348 0.950 . S
C346 C345 1.387 . S
C346 C349 1.387 1_556 S
H347 C343 0.950 . S
H348 C345 0.950 . S
C349 C340 1.390 . S
C349 H342 0.950 . S
C349 C346 1.387 1_554 S
C350 C351 1.387 . S
C350 H354 0.950 1_554 S
C350 C359 1.390 1_554 S
C351 C350 1.387 . S
C351 C353 1.387 . S
H352 C359 0.950 1_565 S
C353 C351 1.387 . S
C353 C355 1.390 . S
C353 H357 0.950 . S
H354 C350 0.950 1_556 S
C355 C353 1.390 . S
C355 C356 1.387 1_554 S
C355 H358 0.950 . S
C356 C355 1.387 1_556 S
C356 C359 1.387 . S
H357 C353 0.950 . S
H358 C355 0.950 . S
C359 C350 1.390 1_556 S
C359 H352 0.950 1_545 S
C359 C356 1.387 . S
C360 C361 1.387 . S
C360 H364 0.950 . S
C360 C369 1.390 . S
C361 C360 1.387 . S
C361 C363 1.387 1_554 S
H362 C369 0.950 . S
C363 C361 1.387 1_556 S
C363 C365 1.390 . S
C363 H367 0.950 . S
H364 C360 0.950 . S
C365 C363 1.390 . S
C365 C366 1.387 . S
C365 H368 0.950 . S
C366 C365 1.387 . S
C366 C369 1.387 1_556 S
H367 C363 0.950 . S
H368 C365 0.950 . S
C369 C360 1.390 . S
C369 H362 0.950 . S
C369 C366 1.387 1_554 S
C370 C371 1.387 . S
C370 H374 0.950 . S
C370 C379 1.390 1_554 S
C371 C370 1.387 . S
C371 C373 1.387 . S
H372 C379 0.950 . S
C373 C371 1.387 . S
C373 C375 1.390 . S
C373 H377 0.950 . S
H374 C370 0.950 . S
C375 C373 1.390 . S
C375 C376 1.387 1_554 S
C375 H378 0.950 . S
C376 C375 1.387 1_556 S
C376 C379 1.387 . S
H377 C373 0.950 . S
H378 C375 0.950 . S
C379 C370 1.390 1_556 S
C379 H372 0.950 . S
C379 C376 1.387 . S
C380 C381 1.387 . S
C380 H384 0.950 . S
C380 C389 1.390 . S
C381 C380 1.387 . S
C381 C383 1.385 . S
H382 C389 0.950 . S
C383 C381 1.385 . S
C383 C385 1.391 1_655 S
C383 H387 0.952 1_655 S
H384 C380 0.950 . S
C385 C383 1.391 1_455 S
C385 C386 1.387 1_455 S
C385 H388 0.950 . S
C386 C385 1.387 1_655 S
C386 C389 1.387 . S
H387 C383 0.952 1_455 S
H388 C385 0.950 . S
C389 C380 1.390 . S
C389 H382 0.950 . S
C389 C386 1.387 . S
C390 C391 1.387 1_545 S
C390 H394 0.950 . S
C390 C399 1.390 . S
C391 C390 1.387 1_565 S
C391 C393 1.387 . S
H392 C399 0.950 . S
C393 C391 1.387 . S
C393 C395 1.390 . S
C393 H397 0.950 . S
H394 C390 0.950 . S
C395 C393 1.390 . S
C395 C396 1.387 . S
C395 H398 0.950 . S
C396 C395 1.387 . S
C396 C399 1.387 1_565 S
H397 C393 0.950 . S
H398 C395 0.950 . S
C399 C390 1.390 . S
C399 H392 0.950 . S
C399 C396 1.387 1_545 S
C400 C401 1.387 . S
C400 H404 0.950 . S
C400 C409 1.390 . S
C401 C400 1.387 . S
C401 C403 1.387 . S
H402 C409 0.950 . S
C403 C401 1.387 . S
C403 C405 1.390 . S
C403 H407 0.950 . S
H404 C400 0.950 . S
C405 C403 1.390 . S
C405 C406 1.387 . S
C405 H408 0.950 . S
C406 C405 1.387 . S
C406 C409 1.387 . S
H407 C403 0.950 . S
H408 C405 0.950 . S
C409 C400 1.390 . S
C409 H402 0.950 . S
C409 C406 1.387 . S
C410 C411 1.387 . S
C410 H414 0.950 . S
C410 C419 1.390 . S
C411 C410 1.387 . S
C411 C413 1.387 . S
H412 C419 0.950 . S
C413 C411 1.387 . S
C413 C415 1.390 . S
C413 H417 0.950 . S
H414 C410 0.950 . S
C415 C413 1.390 . S
C415 C416 1.387 . S
C415 H418 0.950 . S
C416 C415 1.387 . S
C416 C419 1.387 . S
H417 C413 0.950 . S
H418 C415 0.950 . S
C419 C410 1.390 . S
C419 H412 0.950 . S
C419 C416 1.387 . S
C181 C76 1.579 . S
C186 C111 1.486 1_545 S
C196 C135 1.488 . S
C191 C88 1.583 . S
C206 C156 1.485 . S
C201 C52 1.582 . S
C216 C174 1.491 1_455 S
C211 C64 1.581 . S
C226 C114 1.387 1_565 S
C221 C28 1.499 1_556 S
C231 C40 1.503 1_556 S
C236 C132 1.389 . S
C241 C4 1.502 1_556 S
C246 C153 1.385 . S
C251 C16 1.503 1_556 S
C256 C177 1.387 1_655 S
C266 C112 0.933 1_455 S
C261 C69 0.921 . S
C276 C130 0.923 1_545 S
C271 C81 0.917 . S
C286 C151 0.931 . S
C281 C93 0.917 . S
C291 C57 0.915 . S
C296 C175 0.929 . S
C301 C21 0.981 1_556 S
C306 C110 1.016 . S
C316 C134 1.017 . S
C311 C33 0.979 1_556 S
C326 C155 1.018 . S
C321 C45 0.983 1_556 S
C331 C9 0.980 1_556 S
C336 C173 1.017 . S
C341 C66 1.594 . S
C346 C113 1.554 . S
C351 C78 1.591 . S
C356 C131 1.555 . S
C366 C152 1.553 . S
C361 C90 1.592 . S
C376 C176 1.556 . S
C371 C54 1.594 . S
C381 C18 1.465 . S
C386 C109 1.432 . S
C396 C133 1.436 . S
C391 C30 1.467 . S
C406 C154 1.436 . S
C401 C42 1.468 . S
C411 C6 1.464 . S
C416 C172 1.433 . S
