# Generated by pormake.
# Topology pyr, (3,6)-cn, num edge types: 1
# Building blocks:
#     Node 0, Type 0, BuildingBlock: KAKCAD_clean_linker_0, # of connection points: 3
#     Node 1, Type 0, BuildingBlock: KAKCAD_clean_linker_0, # of connection points: 3
#     Node 2, Type 0, BuildingBlock: KAKCAD_clean_linker_0, # of connection points: 3
#     Node 3, Type 0, BuildingBlock: KAKCAD_clean_linker_0, # of connection points: 3
#     Node 4, Type 0, BuildingBlock: KAKCAD_clean_linker_0, # of connection points: 3
#     Node 5, Type 0, BuildingBlock: KAKCAD_clean_linker_0, # of connection points: 3
#     Node 6, Type 0, BuildingBlock: KAKCAD_clean_linker_0, # of connection points: 3
#     Node 7, Type 0, BuildingBlock: KAKCAD_clean_linker_0, # of connection points: 3
#     Node 8, Type 1, BuildingBlock: PAMTOO_clean_sbu_0, # of connection points: 6
#     Node 9, Type 1, BuildingBlock: PAMTOO_clean_sbu_0, # of connection points: 6
#     Node 10, Type 1, BuildingBlock: PAMTOO_clean_sbu_0, # of connection points: 6
#     Node 11, Type 1, BuildingBlock: PAMTOO_clean_sbu_0, # of connection points: 6
#     Edge 12, Type (0, 1), BuildingBlock: XUDNAN_clean_linker_2, # of connection points: 2
#     Edge 13, Type (0, 1), BuildingBlock: XUDNAN_clean_linker_2, # of connection points: 2
#     Edge 14, Type (0, 1), BuildingBlock: XUDNAN_clean_linker_2, # of connection points: 2
#     Edge 15, Type (0, 1), BuildingBlock: XUDNAN_clean_linker_2, # of connection points: 2
#     Edge 16, Type (0, 1), BuildingBlock: XUDNAN_clean_linker_2, # of connection points: 2
#     Edge 17, Type (0, 1), BuildingBlock: XUDNAN_clean_linker_2, # of connection points: 2
#     Edge 18, Type (0, 1), BuildingBlock: XUDNAN_clean_linker_2, # of connection points: 2
#     Edge 19, Type (0, 1), BuildingBlock: XUDNAN_clean_linker_2, # of connection points: 2
#     Edge 20, Type (0, 1), BuildingBlock: XUDNAN_clean_linker_2, # of connection points: 2
#     Edge 21, Type (0, 1), BuildingBlock: XUDNAN_clean_linker_2, # of connection points: 2
#     Edge 22, Type (0, 1), BuildingBlock: XUDNAN_clean_linker_2, # of connection points: 2
#     Edge 23, Type (0, 1), BuildingBlock: XUDNAN_clean_linker_2, # of connection points: 2
#     Edge 24, Type (0, 1), BuildingBlock: XUDNAN_clean_linker_2, # of connection points: 2
#     Edge 25, Type (0, 1), BuildingBlock: XUDNAN_clean_linker_2, # of connection points: 2
#     Edge 26, Type (0, 1), BuildingBlock: XUDNAN_clean_linker_2, # of connection points: 2
#     Edge 27, Type (0, 1), BuildingBlock: XUDNAN_clean_linker_2, # of connection points: 2
#     Edge 28, Type (0, 1), BuildingBlock: XUDNAN_clean_linker_2, # of connection points: 2
#     Edge 29, Type (0, 1), BuildingBlock: XUDNAN_clean_linker_2, # of connection points: 2
#     Edge 30, Type (0, 1), BuildingBlock: XUDNAN_clean_linker_2, # of connection points: 2
#     Edge 31, Type (0, 1), BuildingBlock: XUDNAN_clean_linker_2, # of connection points: 2
#     Edge 32, Type (0, 1), BuildingBlock: XUDNAN_clean_linker_2, # of connection points: 2
#     Edge 33, Type (0, 1), BuildingBlock: XUDNAN_clean_linker_2, # of connection points: 2
#     Edge 34, Type (0, 1), BuildingBlock: XUDNAN_clean_linker_2, # of connection points: 2
#     Edge 35, Type (0, 1), BuildingBlock: XUDNAN_clean_linker_2, # of connection points: 2
# Relax obj value: 0.090
# Max RMSD: 0.158
# Mean RMSD: 0.067
data_MOF--net-pyr--node1-PAMTOO_clean_sbu_0--node2-KAKCAD_clean_linker_0--edge1-XUDNAN_clean_linker_2
_symmetry_space_group_name_H-M    P1
_symmetry_Int_Tables_number       1
_symmetry_cell_setting            triclinic
loop_
_symmetry_equiv_pos_as_xyz
'x, y, z'
_cell_length_a     45.322507
_cell_length_b     47.412619
_cell_length_c     47.202731
_cell_angle_alpha  90.336256
_cell_angle_beta   90.217987
_cell_angle_gamma 103.03723
loop_
_atom_site_label
_atom_site_type_symbol
_atom_site_fract_x
_atom_site_fract_y
_atom_site_fract_z
_atom_type_partial_charge
C0 C 0.25809 0.21751 0.27668 0.0
C1 C 0.272 0.21036 0.30133 0.0
C2 C 0.27439 0.23734 0.25767 0.0
C3 C 0.30507 0.25017 0.26278 0.0
C4 C 0.31878 0.24371 0.28795 0.0
C5 C 0.30221 0.2241 0.30729 0.0
C6 C 0.32294 0.26771 0.24025 0.0
C7 C 0.31063 0.28785 0.2254 0.0
C8 C 0.32321 0.2994 0.1997 0.0
C9 C 0.34926 0.29152 0.1894 0.0
C10 C 0.36228 0.27183 0.20447 0.0
C11 C 0.34934 0.26048 0.23015 0.0
C12 C 0.38549 0.25866 0.19124 0.0
C13 C 0.37936 0.24462 0.16494 0.0
C14 C 0.41154 0.25631 0.20634 0.0
C15 C 0.43059 0.23931 0.19575 0.0
C16 C 0.42353 0.22375 0.17017 0.0
C17 C 0.3065 0.31649 0.18223 0.0
C18 C 0.27528 0.30613 0.17785 0.0
C19 C 0.32095 0.34327 0.17071 0.0
C20 C 0.30404 0.35998 0.15611 0.0
C21 C 0.27256 0.34991 0.15254 0.0
C22 C 0.25852 0.32263 0.16326 0.0
C23 C 0.39797 0.22718 0.15464 0.0
H24 H 0.23479 0.20711 0.27176 0.0
H25 H 0.26335 0.24152 0.23824 0.0
H26 H 0.34241 0.25329 0.2923 0.0
H27 H 0.31331 0.21869 0.32621 0.0
H28 H 0.2901 0.29334 0.23311 0.0
H29 H 0.35808 0.24381 0.24076 0.0
H30 H 0.35829 0.29929 0.16893 0.0
H31 H 0.35905 0.24563 0.15317 0.0
H32 H 0.41664 0.26695 0.22673 0.0
H33 H 0.45038 0.2378 0.20803 0.0
H34 H 0.26365 0.28534 0.18615 0.0
H35 H 0.34504 0.35162 0.17375 0.0
H36 H 0.39123 0.2152 0.1352 0.0
H37 H 0.23428 0.31437 0.1613 0.0
H38 H 0.31548 0.38086 0.14793 0.0
C39 C 0.19685 0.79936 0.83578 0.0
C40 C 0.22833 0.80946 0.83856 0.0
C41 C 0.1843 0.78714 0.81013 0.0
C42 C 0.20315 0.78445 0.78714 0.0
C43 C 0.23469 0.79365 0.79045 0.0
C44 C 0.24711 0.80606 0.81584 0.0
C45 C 0.19042 0.77387 0.75908 0.0
C46 C 0.16761 0.78539 0.74656 0.0
C47 C 0.15938 0.77937 0.71803 0.0
C48 C 0.17336 0.76079 0.70229 0.0
C49 C 0.19563 0.7487 0.7149 0.0
C50 C 0.20391 0.75514 0.7432 0.0
C51 C 0.21294 0.73178 0.69818 0.0
C52 C 0.20033 0.70287 0.69083 0.0
C53 C 0.2435 0.74372 0.69245 0.0
C54 C 0.26164 0.72671 0.68048 0.0
C55 C 0.24958 0.69732 0.67432 0.0
C56 C 0.1393 0.79568 0.70398 0.0
C57 C 0.11105 0.7965 0.71556 0.0
C58 C 0.1497 0.81278 0.68034 0.0
C59 C 0.1327 0.83125 0.66912 0.0
C60 C 0.10459 0.83269 0.68099 0.0
C61 C 0.0937 0.81455 0.70399 0.0
C62 C 0.21859 0.68568 0.67908 0.0
H63 H 0.18195 0.80193 0.85303 0.0
H64 H 0.15992 0.78015 0.80812 0.0
H65 H 0.24979 0.79225 0.77302 0.0
H66 H 0.27148 0.81358 0.81754 0.0
H67 H 0.15797 0.80086 0.75827 0.0
H68 H 0.22172 0.74627 0.75258 0.0
H69 H 0.16778 0.75666 0.68007 0.0
H70 H 0.1768 0.69331 0.69535 0.0
H71 H 0.2536 0.76597 0.69822 0.0
H72 H 0.28548 0.73621 0.67742 0.0
H73 H 0.1026 0.78342 0.7338 0.0
H74 H 0.17168 0.81288 0.67135 0.0
H75 H 0.2087 0.66314 0.67436 0.0
H76 H 0.07193 0.81451 0.71335 0.0
H77 H 0.14228 0.84521 0.65184 0.0
C78 C 0.75151 0.44203 0.88486 0.0
C79 C 0.77007 0.42313 0.89268 0.0
C80 C 0.72252 0.43117 0.87297 0.0
C81 C 0.71132 0.40115 0.86896 0.0
C82 C 0.73 0.38248 0.8769 0.0
C83 C 0.75866 0.39322 0.88869 0.0
C84 C 0.68029 0.38863 0.8571 0.0
C85 C 0.66862 0.40085 0.83351 0.0
C86 C 0.64074 0.38689 0.82082 0.0
C87 C 0.62451 0.36047 0.83244 0.0
C88 C 0.6356 0.34804 0.85618 0.0
C89 C 0.66308 0.36277 0.86852 0.0
C90 C 0.61948 0.31919 0.86773 0.0
C91 C 0.58767 0.31125 0.86944 0.0
C92 C 0.63607 0.29935 0.87762 0.0
C93 C 0.62147 0.27276 0.88927 0.0
C94 C 0.58973 0.26491 0.89122 0.0
C95 C 0.62952 0.39875 0.79434 0.0
C96 C 0.63131 0.42865 0.79097 0.0
C97 C 0.61739 0.3801 0.77179 0.0
C98 C 0.60798 0.39093 0.74655 0.0
C99 C 0.61017 0.4208 0.74294 0.0
C100 C 0.62154 0.4395 0.7657 0.0
C101 C 0.57301 0.2845 0.88099 0.0
H102 H 0.75957 0.4652 0.88747 0.0
H103 H 0.70875 0.44621 0.86725 0.0
H104 H 0.72257 0.3593 0.87381 0.0
H105 H 0.77191 0.37785 0.8948 0.0
H106 H 0.68195 0.4204 0.82416 0.0
H107 H 0.67133 0.3539 0.88728 0.0
H108 H 0.60342 0.34929 0.82266 0.0
H109 H 0.57406 0.32595 0.86237 0.0
H110 H 0.66053 0.3042 0.8761 0.0
H111 H 0.63513 0.25809 0.89632 0.0
H112 H 0.64029 0.44369 0.8079 0.0
H113 H 0.61588 0.35703 0.7733 0.0
H114 H 0.54854 0.27938 0.88234 0.0
H115 H 0.62374 0.46262 0.76366 0.0
H116 H 0.59915 0.3758 0.72964 0.0
C117 C 0.8837 0.60635 0.26864 0.0
C118 C 0.90258 0.62099 0.24714 0.0
C119 C 0.87414 0.62128 0.29126 0.0
C120 C 0.8819 0.65176 0.29305 0.0
C121 C 0.90019 0.66663 0.27119 0.0
C122 C 0.91049 0.65152 0.24876 0.0
C123 C 0.87094 0.66739 0.31767 0.0
C124 C 0.84371 0.65448 0.33186 0.0
C125 C 0.83446 0.66709 0.35634 0.0
C126 C 0.85162 0.69392 0.36583 0.0
C127 C 0.87789 0.70837 0.35165 0.0
C128 C 0.88775 0.69461 0.32787 0.0
C129 C 0.89469 0.73754 0.36258 0.0
C130 C 0.87858 0.75745 0.37339 0.0
C131 C 0.92655 0.74526 0.36394 0.0
C132 C 0.94168 0.77168 0.3764 0.0
C133 C 0.9254 0.79108 0.38797 0.0
C134 C 0.80744 0.65218 0.37301 0.0
C135 C 0.7791 0.64111 0.36008 0.0
C136 C 0.80971 0.65035 0.40261 0.0
C137 C 0.78419 0.63914 0.41901 0.0
C138 C 0.75543 0.62958 0.40642 0.0
C139 C 0.75333 0.62997 0.37663 0.0
C140 C 0.89363 0.78362 0.386 0.0
H141 H 0.87599 0.58304 0.26823 0.0
H142 H 0.86088 0.60845 0.30758 0.0
H143 H 0.90654 0.69003 0.27116 0.0
H144 H 0.92505 0.66391 0.23296 0.0
H145 H 0.82974 0.63421 0.32436 0.0
H146 H 0.90854 0.70511 0.31751 0.0
H147 H 0.8444 0.70358 0.38469 0.0
H148 H 0.85409 0.75279 0.37219 0.0
H149 H 0.93982 0.73054 0.35616 0.0
H150 H 0.96617 0.77656 0.3776 0.0
H151 H 0.7766 0.64218 0.33731 0.0
H152 H 0.83129 0.65804 0.41322 0.0
H153 H 0.88029 0.79819 0.394 0.0
H154 H 0.73159 0.62285 0.36617 0.0
H155 H 0.78695 0.63848 0.44178 0.0
C156 C 0.74211 0.77645 0.77024 0.0
C157 C 0.75003 0.80504 0.7603 0.0
C158 C 0.7279 0.77039 0.7965 0.0
C159 C 0.72153 0.79284 0.81336 0.0
C160 C 0.72919 0.82134 0.80314 0.0
C161 C 0.74317 0.82734 0.77694 0.0
C162 C 0.70862 0.78716 0.84222 0.0
C163 C 0.71918 0.76842 0.86056 0.0
C164 C 0.7101 0.76584 0.88908 0.0
C165 C 0.68984 0.78209 0.89918 0.0
C166 C 0.67904 0.80085 0.88096 0.0
C167 C 0.68805 0.80279 0.85251 0.0
C168 C 0.66074 0.82079 0.89168 0.0
C169 C 0.63307 0.81053 0.90552 0.0
C170 C 0.67051 0.85053 0.8865 0.0
C171 C 0.65252 0.86959 0.89397 0.0
C172 C 0.62408 0.85937 0.90656 0.0
C173 C 0.72485 0.74868 0.90854 0.0
C174 C 0.7291 0.72144 0.90004 0.0
C175 C 0.73813 0.76093 0.93402 0.0
C176 C 0.75694 0.74709 0.94968 0.0
C177 C 0.76277 0.72072 0.94016 0.0
C178 C 0.74781 0.70759 0.91569 0.0
C179 C 0.61478 0.82969 0.91283 0.0
H180 H 0.747 0.75882 0.75776 0.0
H181 H 0.72208 0.74818 0.80367 0.0
H182 H 0.72538 0.83928 0.81582 0.0
H183 H 0.74961 0.84968 0.7702 0.0
H184 H 0.73612 0.75726 0.85316 0.0
H185 H 0.67956 0.81724 0.83851 0.0
H186 H 0.68342 0.78099 0.92131 0.0
H187 H 0.62513 0.78764 0.90971 0.0
H188 H 0.69205 0.85902 0.8763 0.0
H189 H 0.66088 0.8924 0.88967 0.0
H190 H 0.71882 0.71133 0.88067 0.0
H191 H 0.73552 0.78205 0.94094 0.0
H192 H 0.59302 0.82114 0.92253 0.0
H193 H 0.75131 0.68697 0.90814 0.0
H194 H 0.76827 0.75788 0.96833 0.0
C195 C 0.77854 0.17575 0.31808 0.0
C196 C 0.77046 0.18497 0.29149 0.0
C197 C 0.79385 0.19575 0.33792 0.0
C198 C 0.80119 0.22545 0.33175 0.0
C199 C 0.79294 0.23483 0.30537 0.0
C200 C 0.77791 0.21477 0.28534 0.0
C201 C 0.81718 0.24638 0.35314 0.0
C202 C 0.84258 0.24107 0.36714 0.0
C203 C 0.85601 0.25865 0.38979 0.0
C204 C 0.84378 0.28196 0.39858 0.0
C205 C 0.81888 0.28823 0.38393 0.0
C206 C 0.80586 0.27037 0.36115 0.0
C207 C 0.80472 0.31202 0.39317 0.0
C208 C 0.79672 0.31462 0.42163 0.0
C209 C 0.79625 0.3304 0.37297 0.0
C210 C 0.7789 0.35001 0.38077 0.0
C211 C 0.76949 0.3516 0.40895 0.0
C212 C 0.88069 0.24981 0.40539 0.0
C213 C 0.90614 0.24569 0.39041 0.0
C214 C 0.87517 0.23819 0.43264 0.0
C215 C 0.89271 0.21981 0.44327 0.0
C216 C 0.91609 0.21325 0.42687 0.0
C217 C 0.92374 0.22748 0.4011 0.0
C218 C 0.77914 0.33415 0.42943 0.0
H219 H 0.77263 0.1531 0.32382 0.0
H220 H 0.79953 0.18801 0.35833 0.0
H221 H 0.79852 0.25762 0.3001 0.0
H222 H 0.77249 0.22263 0.26492 0.0
H223 H 0.85134 0.22243 0.36101 0.0
H224 H 0.78581 0.27418 0.35065 0.0
H225 H 0.85361 0.29512 0.41657 0.0
H226 H 0.80278 0.30059 0.4376 0.0
H227 H 0.80227 0.32893 0.3509 0.0
H228 H 0.77165 0.36295 0.36443 0.0
H229 H 0.91058 0.25426 0.36923 0.0
H230 H 0.85539 0.24073 0.44433 0.0
H231 H 0.77248 0.33512 0.45137 0.0
H232 H 0.9414 0.2223 0.38799 0.0
H233 H 0.88621 0.20859 0.46299 0.0
C234 C 0.2555 0.63199 0.19444 0.0
C235 C 0.25254 0.63247 0.16475 0.0
C236 C 0.28178 0.64742 0.20811 0.0
C237 C 0.30613 0.6637 0.19253 0.0
C238 C 0.30291 0.66458 0.1628 0.0
C239 C 0.27643 0.64931 0.14913 0.0
C240 C 0.33467 0.67954 0.20723 0.0
C241 C 0.34587 0.66779 0.23131 0.0
C242 C 0.37231 0.68259 0.2457 0.0
C243 C 0.38829 0.70943 0.23477 0.0
C244 C 0.37779 0.72164 0.21042 0.0
C245 C 0.35074 0.70656 0.19729 0.0
C246 C 0.39449 0.75021 0.19852 0.0
C247 C 0.40912 0.77315 0.21628 0.0
C248 C 0.39514 0.75508 0.16902 0.0
C249 C 0.40931 0.78204 0.15775 0.0
C250 C 0.42372 0.80496 0.17551 0.0
C251 C 0.38269 0.66965 0.27209 0.0
C252 C 0.36127 0.65439 0.2913 0.0
C253 C 0.41362 0.67139 0.27804 0.0
C254 C 0.42262 0.65728 0.30176 0.0
C255 C 0.40093 0.6409 0.32007 0.0
C256 C 0.3702 0.64022 0.31473 0.0
C257 C 0.4236 0.80006 0.20494 0.0
H258 H 0.23738 0.61962 0.20722 0.0
H259 H 0.28287 0.64666 0.231 0.0
H260 H 0.32117 0.67651 0.1499 0.0
H261 H 0.27507 0.64995 0.12624 0.0
H262 H 0.33421 0.64661 0.23859 0.0
H263 H 0.34164 0.71629 0.17955 0.0
H264 H 0.40881 0.72086 0.2453 0.0
H265 H 0.40886 0.77059 0.23906 0.0
H266 H 0.38486 0.73794 0.15443 0.0
H267 H 0.40941 0.78475 0.13498 0.0
H268 H 0.33733 0.65314 0.28818 0.0
H269 H 0.4309 0.6828 0.26385 0.0
H270 H 0.43425 0.81726 0.21933 0.0
H271 H 0.35283 0.62839 0.32862 0.0
H272 H 0.44647 0.65823 0.3051 0.0
C273 C 0.12719 0.25555 0.6812 0.0
C274 C 0.09573 0.24958 0.67595 0.0
C275 C 0.14244 0.28219 0.69292 0.0
C276 C 0.12671 0.30362 0.70019 0.0
C277 C 0.09531 0.29769 0.69532 0.0
C278 C 0.08011 0.27125 0.68316 0.0
C279 C 0.1433 0.3324 0.71176 0.0
C280 C 0.1699 0.34742 0.69845 0.0
C281 C 0.18615 0.37458 0.70852 0.0
C282 C 0.17509 0.38668 0.73265 0.0
C283 C 0.1484 0.37218 0.74652 0.0
C284 C 0.13264 0.34505 0.73567 0.0
C285 C 0.13756 0.38496 0.77279 0.0
C286 C 0.13844 0.41485 0.77508 0.0
C287 C 0.12688 0.36739 0.7962 0.0
C288 C 0.11817 0.37934 0.82127 0.0
C289 C 0.11957 0.40926 0.8238 0.0
C290 C 0.21418 0.39032 0.6933 0.0
C291 C 0.23372 0.37508 0.67988 0.0
C292 C 0.2211 0.42069 0.691 0.0
C293 C 0.24605 0.43519 0.67519 0.0
C294 C 0.26481 0.41987 0.66076 0.0
C295 C 0.25849 0.38958 0.66379 0.0
C296 C 0.12937 0.42678 0.80014 0.0
H297 H 0.14017 0.23952 0.67662 0.0
H298 H 0.16662 0.28593 0.69659 0.0
H299 H 0.08256 0.31385 0.70024 0.0
H300 H 0.0561 0.26813 0.67899 0.0
H301 H 0.17739 0.33816 0.67949 0.0
H302 H 0.11208 0.33363 0.74591 0.0
H303 H 0.18775 0.4071 0.7412 0.0
H304 H 0.14621 0.42909 0.75747 0.0
H305 H 0.12601 0.34439 0.79548 0.0
H306 H 0.11049 0.36504 0.83887 0.0
H307 H 0.22978 0.35178 0.68156 0.0
H308 H 0.20676 0.43338 0.70075 0.0
H309 H 0.13091 0.44989 0.80127 0.0
H310 H 0.27215 0.37684 0.65307 0.0
H311 H 0.25039 0.45857 0.67413 0.0
Dy312 Dy 0.04418 0.02499 0.52789 0.0
Dy313 Dy 0.97411 1.00672 0.55017 0.0
C314 C 0.0201 0.0629 0.57423 0.0
O315 O 0.04261 0.98732 0.55634 0.0
O316 O 1.00082 0.9894 0.58285 0.0
O317 O 0.0879 0.05464 0.52796 0.0
O318 O 0.0813 1.01424 0.50466 0.0
O319 O 0.98269 0.96845 0.52607 0.0
O320 O 0.0173 0.9944 0.49563 0.0
O321 O 0.97222 0.03009 0.50966 0.0
O322 O 0.02139 0.05634 0.50659 0.0
O323 O 0.92699 0.98756 0.5419 0.0
O324 O 0.94104 1.00657 0.58304 0.0
C325 C 0.02537 0.97977 0.57853 0.0
O326 O 0.04215 0.05008 0.56804 0.0
O327 O 0.99257 0.05258 0.56443 0.0
C328 C 0.11699 0.0541 0.48646 0.0
C329 C 0.15179 0.0823 0.44132 0.0
C330 C 0.13149 0.09576 0.45563 0.0
C331 C 0.11409 0.08171 0.47795 0.0
C332 C 0.13735 0.04075 0.47227 0.0
C333 C 0.15452 0.05466 0.44982 0.0
C334 C 0.09962 0.03902 0.51034 0.0
C335 C 0.99732 0.97048 0.50191 0.0
C336 C 0.99269 0.05159 0.49932 0.0
C337 C 0.90068 0.9656 0.58212 0.0
C338 C 0.86726 0.91768 0.61202 0.0
C339 C 0.88719 0.91372 0.59034 0.0
C340 C 0.90388 0.9375 0.57559 0.0
C341 C 0.88058 0.96959 0.6034 0.0
C342 C 0.8641 0.94592 0.61829 0.0
C343 C 0.91901 0.9911 0.56797 0.0
H344 H 0.12874 0.11694 0.44927 0.0
H345 H 0.09843 0.09245 0.48849 0.0
H346 H 0.14003 1.01954 0.47863 0.0
H347 H 0.17021 0.04392 0.43931 0.0
H348 H 0.88998 0.89228 0.5848 0.0
H349 H 0.91947 0.93394 0.55932 0.0
H350 H 0.87805 0.99115 0.6089 0.0
H351 H 0.84952 0.94991 0.63525 0.0
Dy352 Dy 0.47366 0.02597 1.02097 0.0
Dy353 Dy 0.54441 0.04289 0.04264 0.0
C354 C 0.49669 0.98726 0.06931 0.0
O355 O 0.48059 0.06577 0.04803 0.0
O356 O 0.51772 0.05706 0.07725 0.0
O357 O 0.42588 1.01875 1.03024 0.0
O358 O 0.44133 1.01908 0.9867 0.0
O359 O 0.53794 0.08108 1.01756 0.0
O360 O 0.49807 0.05854 0.98975 0.0
O361 O 0.54261 0.02193 1.00004 0.0
O362 O 0.49571 0.99196 1.00375 0.0
O363 O 0.58438 0.07588 0.05192 0.0
O364 O 0.58637 0.03064 0.05309 0.0
C365 C 0.49588 0.07025 0.0719 0.0
O366 O 0.47378 0.99432 0.05607 0.0
O367 O 0.52494 1.00168 0.06588 0.0
C368 C 0.39329 0.99035 0.99645 0.0
C369 C 0.34876 0.9437 0.97553 0.0
C370 C 0.37248 0.93857 0.99258 0.0
C371 C 0.3948 0.96183 1.00288 0.0
C372 C 0.36884 0.99546 0.9807 0.0
C373 C 0.34675 0.97234 0.97029 0.0
C374 C 0.41807 1.015 1.00359 0.0
C375 C 0.5206 0.08077 0.99518 0.0
C376 C 0.52295 0.99817 0.99297 0.0
C377 C 0.61882 0.0637 0.08423 0.0
C378 C 0.65253 0.07906 0.13437 0.0
C379 C 0.65587 0.09828 0.1115 0.0
C380 C 0.63929 0.0906 0.08665 0.0
C381 C 0.61567 0.04416 0.10691 0.0
C382 C 0.63262 0.05175 0.13178 0.0
C383 C 0.60066 0.05734 0.05812 0.0
H384 H 0.37459 0.91665 0.99671 0.0
H385 H 0.41372 0.95759 1.01493 0.0
H386 H 0.36741 1.01737 0.97557 0.0
H387 H 0.32855 0.97682 0.95737 0.0
H388 H 0.67139 0.11929 0.11283 0.0
H389 H 0.64217 0.10591 0.06936 0.0
H390 H 0.59993 0.02328 0.10559 0.0
H391 H 0.62965 0.03662 0.14921 0.0
Dy392 Dy 0.50574 0.49763 0.51148 0.0
Dy393 Dy 0.50642 0.55634 0.54673 0.0
C394 C 0.53533 0.50623 0.57225 0.0
O395 O 0.46646 0.48579 0.54204 0.0
O396 O 0.45851 0.53141 0.54697 0.0
O397 O 0.50504 0.45191 0.51055 0.0
O398 O 0.50611 0.4756 0.47136 0.0
O399 O 0.49671 0.56551 0.50097 0.0
O400 O 0.4733 0.51924 0.48912 0.0
O401 O 0.55397 0.56308 0.53164 0.0
O402 O 0.54598 0.53039 0.49479 0.0
O403 O 0.49932 0.5999 0.54902 0.0
O404 O 0.51192 0.57968 0.58658 0.0
C405 C 0.44925 0.50337 0.54997 0.0
O406 O 0.54001 0.49986 0.54586 0.0
O407 O 0.51727 0.52371 0.57786 0.0
C408 C 0.53671 0.44138 0.47376 0.0
C409 C 0.59147 0.42764 0.45654 0.0
C410 C 0.5811 0.42235 0.48445 0.0
C411 C 0.55404 0.42919 0.493 0.0
C412 C 0.54649 0.44552 0.44556 0.0
C413 C 0.57365 0.43887 0.43708 0.0
C414 C 0.50997 0.45193 0.48331 0.0
C415 C 0.47852 0.54715 0.48411 0.0
C416 C 0.5631 0.55268 0.50819 0.0
C417 C 0.47514 0.60719 0.59118 0.0
C418 C 0.42225 0.61898 0.61498 0.0
C419 C 0.44781 0.64154 0.61004 0.0
C420 C 0.47403 0.63567 0.59813 0.0
C421 C 0.44997 0.58459 0.59658 0.0
C422 C 0.42376 0.59041 0.60829 0.0
C423 C 0.50151 0.60105 0.5765 0.0
H424 H 0.59441 0.41382 0.49995 0.0
H425 H 0.5472 0.42565 0.51489 0.0
H426 H 0.53352 0.45464 0.43019 0.0
H427 H 0.58082 0.44271 0.4153 0.0
H428 H 0.44753 0.66374 0.61531 0.0
H429 H 0.49323 0.65337 0.59399 0.0
H430 H 0.45034 0.56244 0.59128 0.0
H431 H 0.40442 0.57257 0.61137 0.0
Dy432 Dy 0.01285 0.54892 1.01727 0.0
Dy433 Dy 1.00835 0.48717 0.04794 0.0
C434 C 0.97717 0.5338 0.07647 0.0
O435 O 0.05944 0.55293 0.03655 0.0
O436 O 0.04494 0.51848 0.07062 0.0
O437 O 0.02397 0.59569 1.01811 0.0
O438 O 1.00429 0.57278 0.98042 0.0
O439 O 0.04689 0.49218 1.01766 0.0
O440 O 0.03075 0.52094 0.98535 0.0
O441 O 0.97547 0.47862 1.01191 0.0
O442 O 0.96497 0.52337 1.01014 0.0
O443 O 1.00754 0.44151 0.04471 0.0
O444 O 1.00519 0.46127 0.08576 0.0
C445 C 0.06492 0.54035 0.06022 0.0
O446 O 0.99462 0.55382 0.06105 0.0
O447 O 0.97374 0.50619 0.07011 0.0
C448 C 0.9866 0.61348 0.99408 0.0
C449 C 0.93746 0.64079 0.99252 0.0
C450 C 0.93844 0.61936 1.01273 0.0
C451 C 0.96273 0.60577 1.01343 0.0
C452 C 0.98604 0.63512 0.97417 0.0
C453 C 0.96165 0.64871 0.97339 0.0
C454 C 0.01088 0.59755 0.99378 0.0
C455 C 0.04638 0.50147 0.99157 0.0
C456 C 0.95827 0.49575 1.00332 0.0
C457 C 0.03809 0.42921 0.08134 0.0
C458 C 0.09549 0.41936 0.09556 0.0
C459 C 0.08192 0.40991 0.06934 0.0
C460 C 0.05351 0.41474 0.06231 0.0
C461 C 0.05096 0.4372 0.10818 0.0
C462 C 0.07939 0.43243 0.11516 0.0
C463 C 0.01091 0.43918 0.072 0.0
H464 H 0.92001 0.61244 1.02747 0.0
H465 H 0.96259 0.58881 1.02875 0.0
H466 H 1.00421 0.64121 0.95901 0.0
H467 H 0.96167 0.66533 0.95775 0.0
H468 H 0.09377 0.39978 0.05379 0.0
H469 H 0.04422 0.4082 0.04149 0.0
H470 H 0.03961 0.44815 0.12346 0.0
H471 H 0.08896 0.43934 0.1358 0.0
H472 H 0.25671 0.21326 0.35725 0.0
H473 H 0.24963 0.15483 0.28531 0.0
H474 H 0.21943 0.11521 0.31392 0.0
H475 H 0.26129 0.16057 0.41233 0.0
H476 H 0.23819 0.17524 0.43686 0.0
H477 H 0.261 0.19851 0.41134 0.0
H478 H 0.21324 0.2142 0.39292 0.0
H479 H 0.19027 0.19089 0.41827 0.0
H480 H 0.18097 0.18699 0.38108 0.0
H481 H 0.18937 0.08255 0.34947 0.0
H482 H 0.15958 0.05868 0.38988 0.0
H483 H 0.18439 0.13851 0.43859 0.0
C484 C 0.24908 0.19198 0.34781 0.0
C485 C 0.25548 0.18679 0.31929 0.0
C486 C 0.24483 0.15897 0.30722 0.0
C487 C 0.22778 0.13642 0.32328 0.0
C488 C 0.22144 0.14221 0.35126 0.0
C489 C 0.23162 0.16927 0.36346 0.0
C490 C 0.22024 0.16995 0.39354 0.0
C491 C 0.24676 0.17645 0.41477 0.0
C492 C 0.19997 0.1918 0.39662 0.0
C493 C 0.20204 0.13909 0.39622 0.0
C494 C 0.20328 0.12344 0.37165 0.0
C495 C 0.18828 0.0945 0.3689 0.0
C496 C 0.17153 0.08112 0.39194 0.0
C497 C 0.16976 0.09677 0.41727 0.0
C498 C 0.1852 0.12614 0.41936 0.0
H499 H 0.26637 0.86236 0.84004 0.0
H500 H 0.22062 0.79284 0.89427 0.0
H501 H 0.24622 0.81958 0.93632 0.0
H502 H 0.33699 0.87811 0.87603 0.0
H503 H 0.34339 0.91664 0.87081 0.0
H504 H 0.32091 0.89213 0.84566 0.0
H505 H 0.27636 0.91749 0.85266 0.0
H506 H 0.29874 0.94216 0.87778 0.0
H507 H 0.26213 0.92095 0.88782 0.0
H508 H 0.27991 0.8536 0.97196 0.0
H509 H 0.31504 0.8932 0.99802 0.0
H510 H 0.3363 0.93995 0.91938 0.0
C511 C 0.26174 0.85278 0.86079 0.0
C512 C 0.24184 0.82554 0.86408 0.0
C513 C 0.23586 0.81378 0.8915 0.0
C514 C 0.25035 0.82874 0.91537 0.0
C515 C 0.27031 0.85549 0.9113 0.0
C516 C 0.27565 0.86747 0.88465 0.0
C517 C 0.29779 0.89647 0.88564 0.0
C518 C 0.32646 0.89577 0.86853 0.0
C519 C 0.28285 0.92069 0.87537 0.0
C520 C 0.3044 0.89898 0.917 0.0
C521 C 0.28859 0.87514 0.93158 0.0
C522 C 0.29213 0.87247 0.96077 0.0
C523 C 0.31213 0.89491 0.97536 0.0
C524 C 0.32791 0.91966 0.96068 0.0
C525 C 0.32401 0.92151 0.93118 0.0
H526 H 0.57649 0.46215 0.73124 0.0
H527 H 0.62648 0.40513 0.6907 0.0
H528 H 0.61354 0.42168 0.64389 0.0
H529 H 0.51567 0.45132 0.67971 0.0
H530 H 0.5116 0.48826 0.68059 0.0
H531 H 0.52542 0.4729 0.71138 0.0
H532 H 0.57344 0.51455 0.71193 0.0
H533 H 0.55974 0.53005 0.68114 0.0
H534 H 0.59654 0.52152 0.68062 0.0
H535 H 0.59535 0.44345 0.60147 0.0
H536 H 0.57195 0.4684 0.56534 0.0
H537 H 0.53202 0.51187 0.63139 0.0
C538 C 0.58488 0.45335 0.71249 0.0
C539 C 0.60246 0.43211 0.71482 0.0
C540 C 0.61271 0.42103 0.68965 0.0
C541 C 0.6056 0.43044 0.66287 0.0
C542 C 0.58805 0.45103 0.66128 0.0
C543 C 0.57769 0.46239 0.68531 0.0
C544 C 0.5585 0.48377 0.67717 0.0
C545 C 0.52586 0.47344 0.68785 0.0
C546 C 0.57292 0.51429 0.68839 0.0
C547 C 0.55973 0.48255 0.64489 0.0
C548 C 0.5771 0.46356 0.63639 0.0
C549 C 0.58173 0.4584 0.60788 0.0
C550 C 0.56824 0.47282 0.58743 0.0
C551 C 0.55001 0.49232 0.59523 0.0
C552 C 0.54583 0.49724 0.62455 0.0
H553 H 0.91919 0.63705 0.19092 0.0
H554 H 0.91404 0.56631 0.25034 0.0
H555 H 0.92913 0.5368 0.21286 0.0
H556 H 0.89423 0.59441 0.12833 0.0
H557 H 0.92118 0.61642 0.10493 0.0
H558 H 0.90829 0.63239 0.13592 0.0
H559 H 0.96371 0.65074 0.15288 0.0
H560 H 0.97675 0.63503 0.12181 0.0
H561 H 0.98772 0.62538 0.15654 0.0
H562 H 0.94268 0.51337 0.16889 0.0
H563 H 0.9608 0.49995 0.12273 0.0
H564 H 0.96361 0.58651 0.09163 0.0
C565 C 0.92139 0.61547 0.19627 0.0
C566 C 0.91412 0.60406 0.22392 0.0
C567 C 0.91779 0.57558 0.22943 0.0
C568 C 0.92678 0.55851 0.20819 0.0
C569 C 0.93297 0.57013 0.1813 0.0
C570 C 0.93109 0.59814 0.17531 0.0
C571 C 0.94074 0.60557 0.14479 0.0
C572 C 0.91455 0.61262 0.12747 0.0
C573 C 0.96891 0.63067 0.14396 0.0
C574 C 0.94809 0.5773 0.13471 0.0
C575 C 0.94293 0.55709 0.15613 0.0
C576 C 0.94706 0.5291 0.15202 0.0
C577 C 0.95721 0.52161 0.12556 0.0
C578 C 0.96374 0.54206 0.10337 0.0
C579 C 0.95897 0.57035 0.10812 0.0
H580 H 0.43518 0.20874 0.11546 0.0
H581 H 0.45084 0.18913 0.20333 0.0
H582 H 0.47514 0.1503 0.18762 0.0
H583 H 0.41169 0.13639 0.09409 0.0
H584 H 0.42823 0.14182 0.05932 0.0
H585 H 0.41657 0.17111 0.07715 0.0
H586 H 0.47063 0.20339 0.07186 0.0
H587 H 0.48243 0.17421 0.05384 0.0
H588 H 0.50269 0.19062 0.08488 0.0
H589 H 0.49486 0.11112 0.16222 0.0
H590 H 0.50621 0.07409 0.12925 0.0
H591 H 0.4727 0.11678 0.05903 0.0
C592 C 0.44379 0.19648 0.13153 0.0
C593 C 0.44112 0.20235 0.1607 0.0
C594 C 0.45314 0.18575 0.18083 0.0
C595 C 0.46683 0.1634 0.17212 0.0
C596 C 0.46817 0.15771 0.14324 0.0
C597 C 0.4569 0.17376 0.12327 0.0
C598 C 0.45862 0.16177 0.09372 0.0
C599 C 0.42689 0.1522 0.0803 0.0
C600 C 0.47986 0.18381 0.07498 0.0
C601 C 0.47205 0.1361 0.10023 0.0
C602 C 0.47798 0.13437 0.12882 0.0
C603 C 0.49036 0.11229 0.13977 0.0
C604 C 0.4967 0.09138 0.12096 0.0
C605 C 0.49002 0.09247 0.09173 0.0
C606 C 0.47769 0.11521 0.08135 0.0
H607 H 0.10109 0.8516 0.62612 0.0
H608 H 0.07015 0.86303 0.71159 0.0
H609 H 0.04437 0.9001 0.69428 0.0
H610 H 0.11946 0.92646 0.60982 0.0
H611 H 0.10805 0.92123 0.57319 0.0
H612 H 0.12138 0.89336 0.59165 0.0
H613 H 0.07166 0.85629 0.57888 0.0
H614 H 0.0582 0.88405 0.56029 0.0
H615 H 0.03577 0.86411 0.58816 0.0
H616 H 0.02289 0.93709 0.66775 0.0
H617 H 0.00949 0.97236 0.63438 0.0
H618 H 0.05853 0.93954 0.56767 0.0
C619 C 0.08902 0.86185 0.64134 0.0
C620 C 0.0876 0.85402 0.67027 0.0
C621 C 0.07108 0.86794 0.68921 0.0
C622 C 0.05651 0.88927 0.67963 0.0
C623 C 0.05887 0.89672 0.65111 0.0
C624 C 0.07483 0.88351 0.63228 0.0
C625 C 0.07539 0.89655 0.60305 0.0
C626 C 0.10801 0.91021 0.5939 0.0
C627 C 0.05929 0.8739 0.58132 0.0
C628 C 0.05752 0.91939 0.60845 0.0
C629 C 0.04779 0.91889 0.63619 0.0
C630 C 0.03047 0.93774 0.646 0.0
C631 C 0.02296 0.95766 0.62693 0.0
C632 C 0.03324 0.95883 0.59858 0.0
C633 C 0.05071 0.93941 0.58934 0.0
H634 H 0.79156 0.46743 0.93203 0.0
H635 H 0.82033 0.40324 0.87936 0.0
H636 H 0.87092 0.41614 0.90111 0.0
H637 H 0.86524 0.52129 0.92947 0.0
H638 H 0.86277 0.5329 0.96564 0.0
H639 H 0.82872 0.51979 0.94517 0.0
H640 H 0.80894 0.4817 0.98373 0.0
H641 H 0.84298 0.49455 1.00421 0.0
H642 H 0.83177 0.45689 0.9942 0.0
H643 H 0.91659 0.43206 0.93084 0.0
H644 H 0.95717 0.45355 0.96441 0.0
H645 H 0.90234 0.51059 0.99683 0.0
C646 C 0.80868 0.45648 0.92473 0.0
C647 C 0.80156 0.43387 0.9042 0.0
C648 C 0.82473 0.42006 0.89546 0.0
C649 C 0.85373 0.42737 0.90757 0.0
C650 C 0.85971 0.44898 0.92824 0.0
C651 C 0.83813 0.46375 0.93653 0.0
C652 C 0.8509 0.48587 0.95959 0.0
C653 C 0.85197 0.5168 0.94935 0.0
C654 C 0.83255 0.47935 0.98706 0.0
C655 C 0.88269 0.4807 0.96324 0.0
C656 C 0.88703 0.45919 0.94489 0.0
C657 C 0.91364 0.44919 0.94505 0.0
C658 C 0.93652 0.46145 0.96437 0.0
C659 C 0.93307 0.48382 0.98323 0.0
C660 C 0.9058 0.49377 0.98245 0.0
H661 H 0.70424 0.58437 0.39959 0.0
H662 H 0.74375 0.6569 0.45464 0.0
H663 H 0.69986 0.64424 0.48619 0.0
H664 H 0.62641 0.59136 0.40687 0.0
H665 H 0.61048 0.55291 0.40697 0.0
H666 H 0.64529 0.5671 0.38842 0.0
H667 H 0.67177 0.5335 0.41722 0.0
H668 H 0.63708 0.51934 0.43596 0.0
H669 H 0.67123 0.53492 0.45538 0.0
H670 H 0.65249 0.62455 0.51206 0.0
H671 H 0.60313 0.59931 0.53058 0.0
H672 H 0.59189 0.53908 0.45948 0.0
C673 C 0.70357 0.59762 0.41822 0.0
C674 C 0.72789 0.62147 0.42473 0.0
C675 C 0.72596 0.63817 0.44941 0.0
C676 C 0.70096 0.63126 0.46745 0.0
C677 C 0.6777 0.60755 0.46069 0.0
C678 C 0.67857 0.59094 0.43669 0.0
C679 C 0.6501 0.5667 0.4346 0.0
C680 C 0.632 0.56971 0.40761 0.0
C681 C 0.65803 0.53685 0.43587 0.0
C682 C 0.63322 0.57249 0.46108 0.0
C683 C 0.64976 0.59617 0.47574 0.0
C684 C 0.63928 0.60598 0.50077 0.0
C685 C 0.61108 0.5914 0.51116 0.0
C686 C 0.59334 0.56711 0.49661 0.0
C687 C 0.60477 0.55755 0.47119 0.0
H688 H 0.22499 0.33299 0.11567 0.0
H689 H 0.2764 0.4078 0.16144 0.0
H690 H 0.23906 0.43581 0.14709 0.0
H691 H 0.19634 0.37332 0.05757 0.0
H692 H 0.16005 0.34808 0.0572 0.0
H693 H 0.19375 0.33591 0.06644 0.0
H694 H 0.16894 0.3159 0.11377 0.0
H695 H 0.13541 0.32827 0.1049 0.0
H696 H 0.15523 0.33986 0.1376 0.0
H697 H 0.1924 0.45313 0.13394 0.0
H698 H 0.14136 0.45921 0.12095 0.0
H699 H 0.1197 0.37227 0.08552 0.0
C700 C 0.22877 0.35547 0.12214 0.0
C701 C 0.25363 0.36824 0.13963 0.0
C702 C 0.2578 0.39771 0.14766 0.0
C703 C 0.23662 0.41374 0.13973 0.0
C704 C 0.2116 0.40004 0.12358 0.0
C705 C 0.20782 0.37166 0.11455 0.0
C706 C 0.17767 0.36105 0.0997 0.0
C707 C 0.18223 0.3542 0.06837 0.0
C708 C 0.15818 0.33473 0.11491 0.0
C709 C 0.1645 0.38749 0.1028 0.0
C710 C 0.18456 0.4099 0.11627 0.0
C711 C 0.17668 0.43587 0.12303 0.0
C712 C 0.14754 0.439 0.11585 0.0
C713 C 0.12656 0.41618 0.10226 0.0
C714 C 0.13539 0.39025 0.09546 0.0
H715 H 0.60666 0.23695 0.93785 0.0
H716 H 0.53774 0.22761 0.87223 0.0
H717 H 0.51267 0.17995 0.89156 0.0
H718 H 0.61225 0.16243 0.93859 0.0
H719 H 0.61736 0.16143 0.97643 0.0
H720 H 0.62966 0.195 0.95771 0.0
H721 H 0.5968 0.21932 0.99047 0.0
H722 H 0.58445 0.18583 1.00931 0.0
H723 H 0.55692 0.20334 0.99381 0.0
H724 H 0.49557 0.1324 0.91757 0.0
H725 H 0.487 0.08982 0.9489 0.0
H726 H 0.5669 0.13001 0.99783 0.0
C727 C 0.58638 0.22485 0.92742 0.0
C728 C 0.57424 0.23624 0.90341 0.0
C729 C 0.54736 0.2197 0.89078 0.0
C730 C 0.53303 0.19246 0.90153 0.0
C731 C 0.54567 0.18189 0.92508 0.0
C732 C 0.57168 0.19765 0.93797 0.0
C733 C 0.58051 0.18144 0.96315 0.0
C734 C 0.6118 0.17468 0.95869 0.0
C735 C 0.57961 0.1985 0.99082 0.0
C736 C 0.55554 0.15402 0.96232 0.0
C737 C 0.5357 0.15469 0.94017 0.0
C738 C 0.51096 0.13172 0.935 0.0
C739 C 0.50631 0.10754 0.95295 0.0
C740 C 0.52621 0.10636 0.97596 0.0
C741 C 0.55118 0.13008 0.98053 0.0
H742 H 0.90968 0.81678 0.43686 0.0
H743 H 0.97714 0.82916 0.37037 0.0
H744 H 1.00277 0.87581 0.39222 0.0
H745 H 0.9045 0.89123 0.443 0.0
H746 H 0.90034 0.89032 0.48097 0.0
H747 H 0.88745 0.85776 0.46033 0.0
H748 H 0.921 0.83175 0.49046 0.0
H749 H 0.93394 0.86423 0.51121 0.0
H750 H 0.96098 0.84745 0.49381 0.0
H751 H 0.02031 0.92229 0.42063 0.0
H752 H 0.02958 0.96345 0.4543 0.0
H753 H 0.9514 0.92074 0.50311 0.0
C754 C 0.92978 0.82933 0.42679 0.0
C755 C 0.9413 0.8191 0.40174 0.0
C756 C 0.96796 0.83619 0.38963 0.0
C757 C 0.98261 0.86287 0.40183 0.0
C758 C 0.97057 0.87231 0.42637 0.0
C759 C 0.94485 0.85596 0.43884 0.0
C760 C 0.93675 0.87093 0.46534 0.0
C761 C 0.9054 0.87798 0.46221 0.0
C762 C 0.93826 0.85249 0.49177 0.0
C763 C 0.96177 0.89835 0.46575 0.0
C764 C 0.98098 0.89876 0.443 0.0
C765 C 1.00546 0.92207 0.43857 0.0
C766 C 0.01051 0.94546 0.45784 0.0
C767 C 0.99135 0.94551 0.48152 0.0
C768 C 0.96665 0.92145 0.48538 0.0
H769 H 0.29478 0.70911 0.63476 0.0
H770 H 0.25137 0.64388 0.69466 0.0
H771 H 0.28971 0.61556 0.68456 0.0
H772 H 0.31768 0.65879 0.58381 0.0
H773 H 0.35299 0.68375 0.57612 0.0
H774 H 0.32036 0.69725 0.58608 0.0
H775 H 0.35145 0.72688 0.62686 0.0
H776 H 0.38401 0.71318 0.6173 0.0
H777 H 0.36943 0.70854 0.65286 0.0
H778 H 0.33554 0.59692 0.67149 0.0
H779 H 0.3836 0.58747 0.65385 0.0
H780 H 0.39651 0.66449 0.6018 0.0
C781 C 0.29311 0.68865 0.64543 0.0
C782 C 0.27005 0.6786 0.6654 0.0
C783 C 0.26856 0.65174 0.67894 0.0
C784 C 0.29035 0.63562 0.6735 0.0
C785 C 0.31328 0.64656 0.65428 0.0
C786 C 0.31457 0.67226 0.64017 0.0
C787 C 0.34212 0.67974 0.62129 0.0
C788 C 0.33272 0.67988 0.58997 0.0
C789 C 0.36298 0.7088 0.63012 0.0
C790 C 0.35656 0.65463 0.62757 0.0
C791 C 0.33953 0.63567 0.64656 0.0
C792 C 0.34884 0.61138 0.65628 0.0
C793 C 0.37614 0.60616 0.64607 0.0
C794 C 0.39381 0.62515 0.62632 0.0
C795 C 0.38374 0.64969 0.61707 0.0
H796 H 0.74059 0.84259 0.7193 0.0
H797 H 0.79861 0.78477 0.74166 0.0
H798 H 0.83174 0.80278 0.70113 0.0
H799 H 0.75103 0.84012 0.64062 0.0
H800 H 0.75104 0.87798 0.63736 0.0
H801 H 0.72909 0.85669 0.66473 0.0
H802 H 0.75657 0.89324 0.70258 0.0
H803 H 0.77874 0.91446 0.67546 0.0
H804 H 0.79735 0.90122 0.7047 0.0
H805 H 0.86275 0.83275 0.66342 0.0
H806 H 0.88824 0.87102 0.6309 0.0
H807 H 0.80928 0.90856 0.63248 0.0
C808 C 0.75989 0.83324 0.71527 0.0
C809 C 0.76701 0.81224 0.73354 0.0
C810 C 0.79248 0.80055 0.72765 0.0
C811 C 0.81147 0.81073 0.70474 0.0
C812 C 0.80441 0.83228 0.68775 0.0
C813 C 0.77898 0.84312 0.69254 0.0
C814 C 0.77792 0.86806 0.67302 0.0
C815 C 0.75065 0.86023 0.65272 0.0
C816 C 0.77764 0.89588 0.68996 0.0
C817 C 0.80741 0.87045 0.65737 0.0
C818 C 0.82219 0.8494 0.66585 0.0
C819 C 0.85106 0.8489 0.6561 0.0
C820 C 0.86532 0.87071 0.63753 0.0
C821 C 0.85076 0.8928 0.62899 0.0
C822 C 0.82113 0.8921 0.63864 0.0
H823 H 0.72532 0.19121 0.25465 0.0
H824 H 0.77887 0.13031 0.28026 0.0
H825 H 0.75158 0.09486 0.24536 0.0
H826 H 0.6552 0.13917 0.24059 0.0
H827 H 0.64612 0.15819 0.20998 0.0
H828 H 0.66827 0.17793 0.23849 0.0
H829 H 0.71086 0.19982 0.20316 0.0
H830 H 0.68879 0.1803 0.17455 0.0
H831 H 0.72674 0.17598 0.18098 0.0
H832 H 0.7193 0.06647 0.20642 0.0
H833 H 0.68703 0.04904 0.16451 0.0
H834 H 0.65683 0.12953 0.16348 0.0
C835 C 0.73151 0.17051 0.2529 0.0
C836 C 0.75417 0.16357 0.2704 0.0
C837 C 0.7612 0.136 0.26753 0.0
C838 C 0.74591 0.11573 0.24767 0.0
C839 C 0.72374 0.12336 0.23076 0.0
C840 C 0.71672 0.15017 0.23307 0.0
C841 C 0.69313 0.15366 0.21146 0.0
C842 C 0.66395 0.15745 0.22601 0.0
C843 C 0.70564 0.17893 0.19135 0.0
C844 C 0.68832 0.12479 0.19632 0.0
C845 C 0.70583 0.1074 0.20797 0.0
C846 C 0.70542 0.07987 0.19717 0.0
C847 C 0.68699 0.07009 0.17351 0.0
C848 C 0.66965 0.08803 0.16084 0.0
C849 C 0.67007 0.1155 0.1727 0.0
H850 H 0.44734 0.65549 0.36059 0.0
H851 H 0.37416 0.58499 0.33256 0.0
H852 H 0.38607 0.55451 0.37106 0.0
H853 H 0.49946 0.6107 0.38139 0.0
H854 H 0.51364 0.63223 0.4122 0.0
H855 H 0.49998 0.64884 0.38211 0.0
H856 H 0.4625 0.66761 0.41448 0.0
H857 H 0.47599 0.65098 0.44464 0.0
H858 H 0.43623 0.64231 0.43582 0.0
H859 H 0.40548 0.53108 0.412 0.0
H860 H 0.43083 0.51616 0.45361 0.0
H861 H 0.49151 0.60127 0.45766 0.0
C862 C 0.43398 0.63358 0.36249 0.0
C863 C 0.40957 0.62281 0.34345 0.0
C864 C 0.3926 0.59402 0.34694 0.0
C865 C 0.3993 0.57641 0.36874 0.0
C866 C 0.42309 0.5877 0.38726 0.0
C867 C 0.44021 0.61561 0.38452 0.0
C868 C 0.46426 0.62225 0.40785 0.0
C869 C 0.49623 0.6289 0.39512 0.0
C870 C 0.45945 0.64728 0.42682 0.0
C871 C 0.45792 0.59372 0.42397 0.0
C872 C 0.43412 0.57416 0.4115 0.0
C873 C 0.42412 0.54624 0.42198 0.0
C874 C 0.43879 0.53795 0.44572 0.0
C875 C 0.46326 0.55742 0.45919 0.0
C876 C 0.4728 0.58585 0.4481 0.0
H877 H 0.0857 0.45078 0.83438 0.0
H878 H 0.13775 0.39676 0.87655 0.0
H879 H 0.12646 0.41614 0.92278 0.0
H880 H 0.10706 0.51332 0.8821 0.0
H881 H 0.07007 0.52143 0.88171 0.0
H882 H 0.08287 0.50422 0.85144 0.0
H883 H 0.0353 0.46224 0.85434 0.0
H884 H 0.02234 0.47936 0.88456 0.0
H885 H 0.02689 0.44265 0.88703 0.0
H886 H 0.10932 0.44036 0.96464 0.0
H887 H 0.08571 0.46642 0.99991 0.0
H888 H 0.04336 0.50536 0.93239 0.0
C889 C 0.09491 0.44323 0.85335 0.0
C890 C 0.1126 0.422 0.85162 0.0
C891 C 0.12387 0.41259 0.87711 0.0
C892 C 0.11774 0.42366 0.90356 0.0
C893 C 0.10013 0.44425 0.90455 0.0
C894 C 0.08872 0.45394 0.8802 0.0
C895 C 0.06951 0.47556 0.88764 0.0
C896 C 0.0832 0.50541 0.87496 0.0
C897 C 0.03655 0.46427 0.87781 0.0
C898 C 0.07189 0.47637 0.9199 0.0
C899 C 0.08988 0.45821 0.92903 0.0
C900 C 0.09526 0.45469 0.95772 0.0
C901 C 0.08166 0.46972 0.97768 0.0
C902 C 0.06262 0.48822 0.96921 0.0
C903 C 0.05799 0.49172 0.93973 0.0
H904 H 0.58837 0.86177 0.95342 0.0
H905 H 0.61528 0.90357 0.87299 0.0
H906 H 0.58765 0.94117 0.88459 0.0
H907 H 0.51129 0.87836 0.95446 0.0
H908 H 0.51273 0.88406 0.99228 0.0
H909 H 0.53206 0.8586 0.97651 0.0
H910 H 0.58224 0.88557 1.00023 0.0
H911 H 0.56314 0.91112 1.01593 0.0
H912 H 0.59596 0.92378 0.99412 0.0
H913 H 0.56422 0.97788 0.9075 0.0
H914 H 0.54256 1.0096 0.9393 0.0
H915 H 0.52646 0.94261 1.00305 0.0
C916 C 0.58776 0.87838 0.93792 0.0
C917 C 0.60437 0.87989 0.91245 0.0
C918 C 0.60333 0.90227 0.89293 0.0
C919 C 0.58743 0.92361 0.89918 0.0
C920 C 0.57209 0.922 0.92479 0.0
C921 C 0.57164 0.89974 0.94369 0.0
C922 C 0.55465 0.90407 0.97039 0.0
C923 C 0.52598 0.87983 0.97359 0.0
C924 C 0.57524 0.90628 0.99671 0.0
C925 C 0.54673 0.93278 0.96395 0.0
C926 C 0.55696 0.94267 0.93745 0.0
C927 C 0.5553 0.97005 0.92793 0.0
C928 C 0.54308 0.98791 0.94605 0.0
C929 C 0.53229 0.97806 0.97307 0.0
C930 C 0.53368 0.95006 0.982 0.0
H931 H 0.96601 0.20639 0.45755 0.0
H932 H 0.88874 0.16024 0.40876 0.0
H933 H 0.90361 0.11406 0.41766 0.0
H934 H 0.01854 0.1607 0.43565 0.0
H935 H 0.03596 0.162 0.47017 0.0
H936 H 0.02087 0.19196 0.45819 0.0
H937 H 0.9872 0.18789 0.5029 0.0
H938 H 1.00236 0.15813 0.51507 0.0
H939 H 0.96201 0.15372 0.51103 0.0
H940 H 0.92349 0.07308 0.43494 0.0
H941 H 0.94715 0.03871 0.4607 0.0
H942 H 0.01306 0.11049 0.49744 0.0
C943 C 0.95259 0.1865 0.4486 0.0
C944 C 0.92634 0.18651 0.43247 0.0
C945 C 0.90895 0.16033 0.42115 0.0
C946 C 0.91729 0.13413 0.42596 0.0
C947 C 0.94322 0.1346 0.442 0.0
C948 C 0.9607 0.16 0.45317 0.0
C949 C 0.98649 0.15395 0.47098 0.0
C950 C 0.01729 0.16799 0.45796 0.0
C951 C 0.98437 0.16401 0.50182 0.0
C952 C 0.98014 0.12119 0.46871 0.0
C953 C 0.95521 0.11059 0.45163 0.0
C954 C 0.94336 0.08104 0.44796 0.0
C955 C 0.95689 0.06171 0.46267 0.0
C956 C 0.98211 0.07202 0.48063 0.0
C957 C 0.99431 0.1021 0.48317 0.0
H958 H 0.21785 0.64688 0.12054 0.0
H959 H 0.22557 0.57632 0.17621 0.0
H960 H 0.18031 0.54548 0.15395 0.0
H961 H 0.13658 0.63332 0.12154 0.0
H962 H 0.13257 0.64216 0.08485 0.0
H963 H 0.1665 0.65874 0.10412 0.0
H964 H 0.19894 0.64019 0.06634 0.0
H965 H 0.16508 0.62352 0.04695 0.0
H966 H 0.19122 0.60208 0.0579 0.0
H967 H 0.13418 0.5224 0.1271 0.0
H968 H 0.08825 0.50832 0.09802 0.0
H969 H 0.10808 0.59306 0.05859 0.0
C970 C 0.21013 0.62485 0.12783 0.0
C971 C 0.22532 0.61412 0.15033 0.0
C972 C 0.21423 0.58524 0.15938 0.0
C973 C 0.1886 0.56745 0.14671 0.0
C974 C 0.17404 0.5787 0.12489 0.0
C975 C 0.18424 0.60671 0.11546 0.0
C976 C 0.16345 0.61344 0.09219 0.0
C977 C 0.14892 0.6384 0.10122 0.0
C978 C 0.18071 0.62021 0.06418 0.0
C979 C 0.13994 0.5849 0.09024 0.0
C980 C 0.14681 0.56524 0.10928 0.0
C981 C 0.12855 0.53761 0.11213 0.0
C982 C 0.10234 0.52987 0.09547 0.0
C983 C 0.09422 0.54957 0.07598 0.0
C984 C 0.11363 0.57743 0.07311 0.0
H985 H 0.32121 0.40744 0.64977 0.0
H986 H 0.26512 0.46733 0.62755 0.0
H987 H 0.3054 0.49354 0.59664 0.0
H988 H 0.3927 0.45908 0.65009 0.0
H989 H 0.41352 0.43489 0.63426 0.0
H990 H 0.3804 0.42055 0.65513 0.0
H991 H 0.35674 0.38792 0.61299 0.0
H992 H 0.38978 0.40221 0.59195 0.0
H993 H 0.35276 0.4041 0.57912 0.0
H994 H 0.35181 0.51458 0.56928 0.0
H995 H 0.40144 0.52864 0.54612 0.0
H996 H 0.42789 0.45417 0.58264 0.0
C997 C 0.31719 0.4259 0.63825 0.0
C998 C 0.28977 0.43537 0.6417 0.0
C999 C 0.28594 0.45988 0.62618 0.0
C1000 C 0.30868 0.47484 0.60822 0.0
C1001 C 0.33527 0.46503 0.60547 0.0
C1002 C 0.33969 0.44106 0.61989 0.0
C1003 C 0.37062 0.43526 0.61292 0.0
C1004 C 0.39048 0.43759 0.6397 0.0
C1005 C 0.36726 0.40561 0.59838 0.0
C1006 C 0.38286 0.45982 0.59249 0.0
C1007 C 0.36198 0.47671 0.58868 0.0
C1008 C 0.36821 0.50135 0.57187 0.0
C1009 C 0.39655 0.50916 0.55878 0.0
C1010 C 0.41854 0.49237 0.5622 0.0
C1011 C 0.41138 0.46712 0.5791 0.0
H1012 H 0.80599 0.69757 0.91457 0.0
H1013 H 0.77337 0.71644 0.9973 0.0
H1014 H 0.81475 0.69826 1.01998 0.0
H1015 H 0.82762 0.63114 0.93416 0.0
H1016 H 0.86045 0.63819 0.91162 0.0
H1017 H 0.82782 0.65201 0.90232 0.0
H1018 H 0.86171 0.70389 0.89998 0.0
H1019 H 0.89438 0.69029 0.90957 0.0
H1020 H 0.88429 0.71865 0.93039 0.0
H1021 H 0.86047 0.67864 1.03336 0.0
H1022 H 0.90628 0.65867 0.03641 0.0
H1023 H 0.90788 0.65224 0.94469 0.0
C1024 C 0.80714 0.69741 0.93748 0.0
C1025 C 0.78629 0.70825 0.95418 0.0
C1026 C 0.78917 0.70835 0.98409 0.0
C1027 C 0.81252 0.698 0.99714 0.0
C1028 C 0.8328 0.68768 0.97997 0.0
C1029 C 0.83023 0.68723 0.95079 0.0
C1030 C 0.85515 0.67553 0.93704 0.0
C1031 C 0.84197 0.64755 0.9203 0.0
C1032 C 0.87506 0.69846 0.91813 0.0
C1033 C 0.87228 0.66954 0.96303 0.0
C1034 C 0.85905 0.67662 0.98761 0.0
C1035 C 0.87094 0.67292 1.01424 0.0
C1036 C 0.89689 0.66149 1.01576 0.0
C1037 C 0.91071 0.65395 0.99079 0.0
C1038 C 0.89816 0.65818 0.96414 0.0
H1039 H 0.40382 0.83593 0.13262 0.0
H1040 H 0.47902 0.83898 0.19059 0.0
H1041 H 0.50538 0.88573 0.17021 0.0
H1042 H 0.44818 0.86673 0.07244 0.0
H1043 H 0.42146 0.88726 0.0608 0.0
H1044 H 0.40844 0.85406 0.07995 0.0
H1045 H 0.38318 0.88134 0.11706 0.0
H1046 H 0.39618 0.91461 0.09801 0.0
H1047 H 0.40566 0.91265 0.13496 0.0
H1048 H 0.52459 0.93159 0.14224 0.0
H1049 H 0.53397 0.97395 0.11061 0.0
H1050 H 0.44572 0.94233 0.07158 0.0
C1051 C 0.42589 0.84636 0.14097 0.0
C1052 C 0.43929 0.83361 0.16332 0.0
C1053 C 0.46806 0.84831 0.17377 0.0
C1054 C 0.48332 0.87485 0.16219 0.0
C1055 C 0.46952 0.88676 0.14021 0.0
C1056 C 0.44134 0.87309 0.12982 0.0
C1057 C 0.43138 0.89074 0.1063 0.0
C1058 C 0.42712 0.87368 0.07821 0.0
C1059 C 0.40238 0.90041 0.11459 0.0
C1060 C 0.4584 0.91639 0.105 0.0
C1061 C 0.48022 0.91355 0.12463 0.0
C1062 C 0.50754 0.93408 0.12693 0.0
C1063 C 0.5127 0.95811 0.10878 0.0
C1064 C 0.49058 0.96175 0.08864 0.0
C1065 C 0.46301 0.94049 0.08692 0.0
H1066 H 0.11695 0.21347 0.63781 0.0
H1067 H 0.03683 0.21977 0.68558 0.0
H1068 H 0.00925 0.17385 0.66442 0.0
H1069 H 0.07888 0.18109 0.57477 0.0
H1070 H 0.10412 0.15722 0.56891 0.0
H1071 H 0.1176 0.1913 0.58696 0.0
H1072 H 0.13454 0.16458 0.62962 0.0
H1073 H 0.12115 0.13042 0.61166 0.0
H1074 H 0.10743 0.13604 0.64657 0.0
H1075 H 0.98939 0.12748 0.63697 0.0
H1076 H 0.98009 0.0829 0.60774 0.0
H1077 H 0.07386 0.10388 0.5808 0.0
C1078 C 0.09372 0.2052 0.64419 0.0
C1079 C 0.07923 0.22097 0.66334 0.0
C1080 C 0.04855 0.209 0.67051 0.0
C1081 C 0.03262 0.1826 0.65874 0.0
C1082 C 0.04756 0.16787 0.63997 0.0
C1083 C 0.07752 0.17858 0.63293 0.0
C1084 C 0.08841 0.15804 0.61266 0.0
C1085 C 0.0978 0.1728 0.58414 0.0
C1086 C 0.11442 0.14659 0.62593 0.0
C1087 C 0.05992 0.1341 0.6095 0.0
C1088 C 0.03652 0.14042 0.62519 0.0
C1089 C 1.00766 0.12221 0.62483 0.0
C1090 C 1.00256 0.09692 0.6081 0.0
C1091 C 0.02627 0.08962 0.59219 0.0
C1092 C 0.05537 0.10855 0.59307 0.0
H1093 H 0.71896 0.33678 0.4421 0.0
H1094 H 0.7704 0.40694 0.39155 0.0
H1095 H 0.73122 0.43486 0.39962 0.0
H1096 H 0.64713 0.34097 0.41739 0.0
H1097 H 0.62833 0.33297 0.45094 0.0
H1098 H 0.6615 0.31948 0.44317 0.0
H1099 H 0.68777 0.34412 0.48866 0.0
H1100 H 0.65454 0.3575 0.49673 0.0
H1101 H 0.69093 0.38235 0.49421 0.0
H1102 H 0.68485 0.45369 0.41065 0.0
H1103 H 0.63546 0.46275 0.42517 0.0
H1104 H 0.61453 0.38023 0.46855 0.0
C1105 C 0.7224 0.35832 0.43332 0.0
C1106 C 0.74782 0.36975 0.4163 0.0
C1107 C 0.75103 0.39771 0.40455 0.0
C1108 C 0.72896 0.41376 0.4091 0.0
C1109 C 0.70388 0.40158 0.42551 0.0
C1110 C 0.70059 0.37459 0.43762 0.0
C1111 C 0.67088 0.36586 0.45331 0.0
C1112 C 0.65078 0.33819 0.44042 0.0
C1113 C 0.67637 0.36225 0.48512 0.0
C1114 C 0.65778 0.392 0.44785 0.0
C1115 C 0.67718 0.4124 0.43183 0.0
C1116 C 0.66955 0.43795 0.42333 0.0
C1117 C 0.64138 0.44279 0.43149 0.0
C1118 C 0.62117 0.42218 0.44796 0.0
C1119 C 0.62965 0.39654 0.45627 0.0
loop_
_geom_bond_atom_site_label_1
_geom_bond_atom_site_label_2
_geom_bond_distance
_geom_bond_site_symmetry_2
_ccdc_geom_bond_type
C0 C1 1.386 . S
C0 C2 1.397 . S
C0 H24 0.931 . S
C1 C0 1.386 . S
C1 C5 1.397 . S
C2 C0 1.397 . S
C2 C3 1.384 . S
C2 H25 0.930 . S
C3 C2 1.384 . S
C3 C4 1.377 . S
C3 C6 1.481 . S
C4 C3 1.377 . S
C4 C5 1.389 . S
C4 H26 0.929 . S
C5 C1 1.397 . S
C5 C4 1.389 . S
C5 H27 0.931 . S
C6 C3 1.481 . S
C6 C7 1.387 . S
C6 C11 1.390 . S
C7 C6 1.387 . S
C7 C8 1.401 . S
C7 H28 0.930 . S
C8 C7 1.401 . S
C8 C9 1.376 . S
C8 C17 1.511 . S
C9 C8 1.376 . S
C9 C10 1.392 . S
C9 H30 0.931 . S
C10 C9 1.392 . S
C10 C11 1.361 . S
C10 C12 1.500 . S
C11 C6 1.390 . S
C11 C10 1.361 . S
C11 H29 0.931 . S
C12 C10 1.500 . S
C12 C13 1.371 . S
C12 C14 1.365 . S
C13 C12 1.371 . S
C13 C23 1.386 . S
C13 H31 0.931 . S
C14 C12 1.365 . S
C14 C15 1.409 . S
C14 H32 0.929 . S
C15 C14 1.409 . S
C15 C16 1.380 . S
C15 H33 0.930 . S
C16 C15 1.380 . S
C16 C23 1.357 . S
C17 C8 1.511 . S
C17 C18 1.341 . S
C17 C19 1.371 . S
C18 C17 1.341 . S
C18 C22 1.394 . S
C18 H34 0.930 . S
C19 C17 1.371 . S
C19 C20 1.392 . S
C19 H35 0.931 . S
C20 C19 1.392 . S
C20 C21 1.331 . S
C20 H38 0.932 . S
C21 C20 1.331 . S
C21 C22 1.336 . S
C22 C18 1.394 . S
C22 C21 1.336 . S
C22 H37 0.929 . S
C23 C13 1.386 . S
C23 C16 1.357 . S
C23 H36 0.928 . S
H24 C0 0.931 . S
H25 C2 0.930 . S
H26 C4 0.929 . S
H27 C5 0.931 . S
H28 C7 0.930 . S
H29 C11 0.931 . S
H30 C9 0.931 . S
H31 C13 0.931 . S
H32 C14 0.929 . S
H33 C15 0.930 . S
H34 C18 0.930 . S
H35 C19 0.931 . S
H36 C23 0.928 . S
H37 C22 0.929 . S
H38 C20 0.932 . S
C39 C40 1.386 . S
C39 C41 1.397 . S
C39 H63 0.931 . S
C40 C39 1.386 . S
C40 C44 1.397 . S
C41 C39 1.397 . S
C41 C42 1.384 . S
C41 H64 0.930 . S
C42 C41 1.384 . S
C42 C43 1.377 . S
C42 C45 1.481 . S
C43 C42 1.377 . S
C43 C44 1.389 . S
C43 H65 0.929 . S
C44 C40 1.397 . S
C44 C43 1.389 . S
C44 H66 0.931 . S
C45 C42 1.481 . S
C45 C46 1.387 . S
C45 C50 1.390 . S
C46 C45 1.387 . S
C46 C47 1.401 . S
C46 H67 0.930 . S
C47 C46 1.401 . S
C47 C48 1.376 . S
C47 C56 1.511 . S
C48 C47 1.376 . S
C48 C49 1.392 . S
C48 H69 0.931 . S
C49 C48 1.392 . S
C49 C50 1.361 . S
C49 C51 1.500 . S
C50 C45 1.390 . S
C50 C49 1.361 . S
C50 H68 0.931 . S
C51 C49 1.500 . S
C51 C52 1.371 . S
C51 C53 1.365 . S
C52 C51 1.371 . S
C52 C62 1.386 . S
C52 H70 0.931 . S
C53 C51 1.365 . S
C53 C54 1.409 . S
C53 H71 0.929 . S
C54 C53 1.409 . S
C54 C55 1.380 . S
C54 H72 0.930 . S
C55 C54 1.380 . S
C55 C62 1.357 . S
C56 C47 1.511 . S
C56 C57 1.341 . S
C56 C58 1.371 . S
C57 C56 1.341 . S
C57 C61 1.394 . S
C57 H73 0.930 . S
C58 C56 1.371 . S
C58 C59 1.392 . S
C58 H74 0.931 . S
C59 C58 1.392 . S
C59 C60 1.331 . S
C59 H77 0.932 . S
C60 C59 1.331 . S
C60 C61 1.336 . S
C61 C57 1.394 . S
C61 C60 1.336 . S
C61 H76 0.929 . S
C62 C52 1.386 . S
C62 C55 1.357 . S
C62 H75 0.928 . S
H63 C39 0.931 . S
H64 C41 0.930 . S
H65 C43 0.929 . S
H66 C44 0.931 . S
H67 C46 0.930 . S
H68 C50 0.931 . S
H69 C48 0.931 . S
H70 C52 0.931 . S
H71 C53 0.929 . S
H72 C54 0.930 . S
H73 C57 0.930 . S
H74 C58 0.931 . S
H75 C62 0.928 . S
H76 C61 0.929 . S
H77 C59 0.932 . S
C78 C79 1.386 . S
C78 C80 1.397 . S
C78 H102 0.931 . S
C79 C78 1.386 . S
C79 C83 1.397 . S
C80 C78 1.397 . S
C80 C81 1.384 . S
C80 H103 0.930 . S
C81 C80 1.384 . S
C81 C82 1.377 . S
C81 C84 1.481 . S
C82 C81 1.377 . S
C82 C83 1.389 . S
C82 H104 0.929 . S
C83 C79 1.397 . S
C83 C82 1.389 . S
C83 H105 0.931 . S
C84 C81 1.481 . S
C84 C85 1.387 . S
C84 C89 1.390 . S
C85 C84 1.387 . S
C85 C86 1.401 . S
C85 H106 0.930 . S
C86 C85 1.401 . S
C86 C87 1.376 . S
C86 C95 1.511 . S
C87 C86 1.376 . S
C87 C88 1.392 . S
C87 H108 0.931 . S
C88 C87 1.392 . S
C88 C89 1.361 . S
C88 C90 1.500 . S
C89 C84 1.390 . S
C89 C88 1.361 . S
C89 H107 0.931 . S
C90 C88 1.500 . S
C90 C91 1.371 . S
C90 C92 1.365 . S
C91 C90 1.371 . S
C91 C101 1.386 . S
C91 H109 0.931 . S
C92 C90 1.365 . S
C92 C93 1.409 . S
C92 H110 0.929 . S
C93 C92 1.409 . S
C93 C94 1.380 . S
C93 H111 0.930 . S
C94 C93 1.380 . S
C94 C101 1.357 . S
C95 C86 1.511 . S
C95 C96 1.341 . S
C95 C97 1.371 . S
C96 C95 1.341 . S
C96 C100 1.394 . S
C96 H112 0.930 . S
C97 C95 1.371 . S
C97 C98 1.392 . S
C97 H113 0.931 . S
C98 C97 1.392 . S
C98 C99 1.331 . S
C98 H116 0.932 . S
C99 C98 1.331 . S
C99 C100 1.336 . S
C100 C96 1.394 . S
C100 C99 1.336 . S
C100 H115 0.929 . S
C101 C91 1.386 . S
C101 C94 1.357 . S
C101 H114 0.928 . S
H102 C78 0.931 . S
H103 C80 0.930 . S
H104 C82 0.929 . S
H105 C83 0.931 . S
H106 C85 0.930 . S
H107 C89 0.931 . S
H108 C87 0.931 . S
H109 C91 0.931 . S
H110 C92 0.929 . S
H111 C93 0.930 . S
H112 C96 0.930 . S
H113 C97 0.931 . S
H114 C101 0.928 . S
H115 C100 0.929 . S
H116 C98 0.932 . S
C117 C118 1.386 . S
C117 C119 1.397 . S
C117 H141 0.931 . S
C118 C117 1.386 . S
C118 C122 1.397 . S
C119 C117 1.397 . S
C119 C120 1.384 . S
C119 H142 0.930 . S
C120 C119 1.384 . S
C120 C121 1.377 . S
C120 C123 1.481 . S
C121 C120 1.377 . S
C121 C122 1.389 . S
C121 H143 0.929 . S
C122 C118 1.397 . S
C122 C121 1.389 . S
C122 H144 0.931 . S
C123 C120 1.481 . S
C123 C124 1.387 . S
C123 C128 1.390 . S
C124 C123 1.387 . S
C124 C125 1.401 . S
C124 H145 0.930 . S
C125 C124 1.401 . S
C125 C126 1.376 . S
C125 C134 1.511 . S
C126 C125 1.376 . S
C126 C127 1.392 . S
C126 H147 0.931 . S
C127 C126 1.392 . S
C127 C128 1.361 . S
C127 C129 1.500 . S
C128 C123 1.390 . S
C128 C127 1.361 . S
C128 H146 0.931 . S
C129 C127 1.500 . S
C129 C130 1.371 . S
C129 C131 1.365 . S
C130 C129 1.371 . S
C130 C140 1.386 . S
C130 H148 0.931 . S
C131 C129 1.365 . S
C131 C132 1.409 . S
C131 H149 0.929 . S
C132 C131 1.409 . S
C132 C133 1.380 . S
C132 H150 0.930 . S
C133 C132 1.380 . S
C133 C140 1.357 . S
C134 C125 1.511 . S
C134 C135 1.341 . S
C134 C136 1.371 . S
C135 C134 1.341 . S
C135 C139 1.394 . S
C135 H151 0.930 . S
C136 C134 1.371 . S
C136 C137 1.392 . S
C136 H152 0.931 . S
C137 C136 1.392 . S
C137 C138 1.331 . S
C137 H155 0.932 . S
C138 C137 1.331 . S
C138 C139 1.336 . S
C139 C135 1.394 . S
C139 C138 1.336 . S
C139 H154 0.929 . S
C140 C130 1.386 . S
C140 C133 1.357 . S
C140 H153 0.928 . S
H141 C117 0.931 . S
H142 C119 0.930 . S
H143 C121 0.929 . S
H144 C122 0.931 . S
H145 C124 0.930 . S
H146 C128 0.931 . S
H147 C126 0.931 . S
H148 C130 0.931 . S
H149 C131 0.929 . S
H150 C132 0.930 . S
H151 C135 0.930 . S
H152 C136 0.931 . S
H153 C140 0.928 . S
H154 C139 0.929 . S
H155 C137 0.932 . S
C156 C157 1.386 . S
C156 C158 1.397 . S
C156 H180 0.931 . S
C157 C156 1.386 . S
C157 C161 1.397 . S
C158 C156 1.397 . S
C158 C159 1.384 . S
C158 H181 0.930 . S
C159 C158 1.384 . S
C159 C160 1.377 . S
C159 C162 1.481 . S
C160 C159 1.377 . S
C160 C161 1.389 . S
C160 H182 0.929 . S
C161 C157 1.397 . S
C161 C160 1.389 . S
C161 H183 0.931 . S
C162 C159 1.481 . S
C162 C163 1.387 . S
C162 C167 1.390 . S
C163 C162 1.387 . S
C163 C164 1.401 . S
C163 H184 0.930 . S
C164 C163 1.401 . S
C164 C165 1.376 . S
C164 C173 1.511 . S
C165 C164 1.376 . S
C165 C166 1.392 . S
C165 H186 0.931 . S
C166 C165 1.392 . S
C166 C167 1.361 . S
C166 C168 1.500 . S
C167 C162 1.390 . S
C167 C166 1.361 . S
C167 H185 0.931 . S
C168 C166 1.500 . S
C168 C169 1.371 . S
C168 C170 1.365 . S
C169 C168 1.371 . S
C169 C179 1.386 . S
C169 H187 0.931 . S
C170 C168 1.365 . S
C170 C171 1.409 . S
C170 H188 0.929 . S
C171 C170 1.409 . S
C171 C172 1.380 . S
C171 H189 0.930 . S
C172 C171 1.380 . S
C172 C179 1.357 . S
C173 C164 1.511 . S
C173 C174 1.341 . S
C173 C175 1.371 . S
C174 C173 1.341 . S
C174 C178 1.394 . S
C174 H190 0.930 . S
C175 C173 1.371 . S
C175 C176 1.392 . S
C175 H191 0.931 . S
C176 C175 1.392 . S
C176 C177 1.331 . S
C176 H194 0.932 . S
C177 C176 1.331 . S
C177 C178 1.336 . S
C178 C174 1.394 . S
C178 C177 1.336 . S
C178 H193 0.929 . S
C179 C169 1.386 . S
C179 C172 1.357 . S
C179 H192 0.928 . S
H180 C156 0.931 . S
H181 C158 0.930 . S
H182 C160 0.929 . S
H183 C161 0.931 . S
H184 C163 0.930 . S
H185 C167 0.931 . S
H186 C165 0.931 . S
H187 C169 0.931 . S
H188 C170 0.929 . S
H189 C171 0.930 . S
H190 C174 0.930 . S
H191 C175 0.931 . S
H192 C179 0.928 . S
H193 C178 0.929 . S
H194 C176 0.932 . S
C195 C196 1.386 . S
C195 C197 1.397 . S
C195 H219 0.931 . S
C196 C195 1.386 . S
C196 C200 1.397 . S
C197 C195 1.397 . S
C197 C198 1.384 . S
C197 H220 0.930 . S
C198 C197 1.384 . S
C198 C199 1.377 . S
C198 C201 1.481 . S
C199 C198 1.377 . S
C199 C200 1.389 . S
C199 H221 0.929 . S
C200 C196 1.397 . S
C200 C199 1.389 . S
C200 H222 0.931 . S
C201 C198 1.481 . S
C201 C202 1.387 . S
C201 C206 1.390 . S
C202 C201 1.387 . S
C202 C203 1.401 . S
C202 H223 0.930 . S
C203 C202 1.401 . S
C203 C204 1.376 . S
C203 C212 1.511 . S
C204 C203 1.376 . S
C204 C205 1.392 . S
C204 H225 0.931 . S
C205 C204 1.392 . S
C205 C206 1.361 . S
C205 C207 1.500 . S
C206 C201 1.390 . S
C206 C205 1.361 . S
C206 H224 0.931 . S
C207 C205 1.500 . S
C207 C208 1.371 . S
C207 C209 1.365 . S
C208 C207 1.371 . S
C208 C218 1.386 . S
C208 H226 0.931 . S
C209 C207 1.365 . S
C209 C210 1.409 . S
C209 H227 0.929 . S
C210 C209 1.409 . S
C210 C211 1.380 . S
C210 H228 0.930 . S
C211 C210 1.380 . S
C211 C218 1.357 . S
C212 C203 1.511 . S
C212 C213 1.341 . S
C212 C214 1.371 . S
C213 C212 1.341 . S
C213 C217 1.394 . S
C213 H229 0.930 . S
C214 C212 1.371 . S
C214 C215 1.392 . S
C214 H230 0.931 . S
C215 C214 1.392 . S
C215 C216 1.331 . S
C215 H233 0.932 . S
C216 C215 1.331 . S
C216 C217 1.336 . S
C217 C213 1.394 . S
C217 C216 1.336 . S
C217 H232 0.929 . S
C218 C208 1.386 . S
C218 C211 1.357 . S
C218 H231 0.928 . S
H219 C195 0.931 . S
H220 C197 0.930 . S
H221 C199 0.929 . S
H222 C200 0.931 . S
H223 C202 0.930 . S
H224 C206 0.931 . S
H225 C204 0.931 . S
H226 C208 0.931 . S
H227 C209 0.929 . S
H228 C210 0.930 . S
H229 C213 0.930 . S
H230 C214 0.931 . S
H231 C218 0.928 . S
H232 C217 0.929 . S
H233 C215 0.932 . S
C234 C235 1.386 . S
C234 C236 1.397 . S
C234 H258 0.931 . S
C235 C234 1.386 . S
C235 C239 1.397 . S
C236 C234 1.397 . S
C236 C237 1.384 . S
C236 H259 0.930 . S
C237 C236 1.384 . S
C237 C238 1.377 . S
C237 C240 1.481 . S
C238 C237 1.377 . S
C238 C239 1.389 . S
C238 H260 0.929 . S
C239 C235 1.397 . S
C239 C238 1.389 . S
C239 H261 0.931 . S
C240 C237 1.481 . S
C240 C241 1.387 . S
C240 C245 1.390 . S
C241 C240 1.387 . S
C241 C242 1.401 . S
C241 H262 0.930 . S
C242 C241 1.401 . S
C242 C243 1.376 . S
C242 C251 1.511 . S
C243 C242 1.376 . S
C243 C244 1.392 . S
C243 H264 0.931 . S
C244 C243 1.392 . S
C244 C245 1.361 . S
C244 C246 1.500 . S
C245 C240 1.390 . S
C245 C244 1.361 . S
C245 H263 0.931 . S
C246 C244 1.500 . S
C246 C247 1.371 . S
C246 C248 1.365 . S
C247 C246 1.371 . S
C247 C257 1.386 . S
C247 H265 0.931 . S
C248 C246 1.365 . S
C248 C249 1.409 . S
C248 H266 0.929 . S
C249 C248 1.409 . S
C249 C250 1.380 . S
C249 H267 0.930 . S
C250 C249 1.380 . S
C250 C257 1.357 . S
C251 C242 1.511 . S
C251 C252 1.341 . S
C251 C253 1.371 . S
C252 C251 1.341 . S
C252 C256 1.394 . S
C252 H268 0.930 . S
C253 C251 1.371 . S
C253 C254 1.392 . S
C253 H269 0.931 . S
C254 C253 1.392 . S
C254 C255 1.331 . S
C254 H272 0.932 . S
C255 C254 1.331 . S
C255 C256 1.336 . S
C256 C252 1.394 . S
C256 C255 1.336 . S
C256 H271 0.929 . S
C257 C247 1.386 . S
C257 C250 1.357 . S
C257 H270 0.928 . S
H258 C234 0.931 . S
H259 C236 0.930 . S
H260 C238 0.929 . S
H261 C239 0.931 . S
H262 C241 0.930 . S
H263 C245 0.931 . S
H264 C243 0.931 . S
H265 C247 0.931 . S
H266 C248 0.929 . S
H267 C249 0.930 . S
H268 C252 0.930 . S
H269 C253 0.931 . S
H270 C257 0.928 . S
H271 C256 0.929 . S
H272 C254 0.932 . S
C273 C274 1.386 . S
C273 C275 1.397 . S
C273 H297 0.931 . S
C274 C273 1.386 . S
C274 C278 1.397 . S
C275 C273 1.397 . S
C275 C276 1.384 . S
C275 H298 0.930 . S
C276 C275 1.384 . S
C276 C277 1.377 . S
C276 C279 1.481 . S
C277 C276 1.377 . S
C277 C278 1.389 . S
C277 H299 0.929 . S
C278 C274 1.397 . S
C278 C277 1.389 . S
C278 H300 0.931 . S
C279 C276 1.481 . S
C279 C280 1.387 . S
C279 C284 1.390 . S
C280 C279 1.387 . S
C280 C281 1.401 . S
C280 H301 0.930 . S
C281 C280 1.401 . S
C281 C282 1.376 . S
C281 C290 1.511 . S
C282 C281 1.376 . S
C282 C283 1.392 . S
C282 H303 0.931 . S
C283 C282 1.392 . S
C283 C284 1.361 . S
C283 C285 1.500 . S
C284 C279 1.390 . S
C284 C283 1.361 . S
C284 H302 0.931 . S
C285 C283 1.500 . S
C285 C286 1.371 . S
C285 C287 1.365 . S
C286 C285 1.371 . S
C286 C296 1.386 . S
C286 H304 0.931 . S
C287 C285 1.365 . S
C287 C288 1.409 . S
C287 H305 0.929 . S
C288 C287 1.409 . S
C288 C289 1.380 . S
C288 H306 0.930 . S
C289 C288 1.380 . S
C289 C296 1.357 . S
C290 C281 1.511 . S
C290 C291 1.341 . S
C290 C292 1.371 . S
C291 C290 1.341 . S
C291 C295 1.394 . S
C291 H307 0.930 . S
C292 C290 1.371 . S
C292 C293 1.392 . S
C292 H308 0.931 . S
C293 C292 1.392 . S
C293 C294 1.331 . S
C293 H311 0.932 . S
C294 C293 1.331 . S
C294 C295 1.336 . S
C295 C291 1.394 . S
C295 C294 1.336 . S
C295 H310 0.929 . S
C296 C286 1.386 . S
C296 C289 1.357 . S
C296 H309 0.928 . S
H297 C273 0.931 . S
H298 C275 0.930 . S
H299 C277 0.929 . S
H300 C278 0.931 . S
H301 C280 0.930 . S
H302 C284 0.931 . S
H303 C282 0.931 . S
H304 C286 0.931 . S
H305 C287 0.929 . S
H306 C288 0.930 . S
H307 C291 0.930 . S
H308 C292 0.931 . S
H309 C296 0.928 . S
H310 C295 0.929 . S
H311 C293 0.932 . S
Dy312 O315 2.307 1_545 S
Dy312 O317 2.395 . S
Dy312 O318 2.379 . S
Dy312 O320 2.339 1_545 S
Dy312 O322 2.298 1_455 S
Dy312 O326 2.275 . S
Dy312 C334 2.738 . S
Dy313 O316 2.298 1_655 S
Dy313 O319 2.275 . S
Dy313 O321 2.307 1_565 S
Dy313 O323 2.395 . S
Dy313 O324 2.379 . S
Dy313 O327 2.339 1_565 S
Dy313 C343 2.738 . S
C314 O326 1.254 . S
C314 O327 1.257 1_455 S
O315 Dy312 2.307 1_565 S
O315 C325 1.266 . S
O316 Dy313 2.298 1_455 S
O316 C325 1.236 . S
O317 Dy312 2.395 . S
O317 C334 1.255 . S
O318 Dy312 2.379 . S
O318 C334 1.249 . S
O319 Dy313 2.275 . S
O319 C335 1.254 . S
O320 Dy312 2.339 1_565 S
O320 C335 1.257 1_455 S
O321 Dy313 2.307 1_545 S
O321 C336 1.266 . S
O322 Dy312 2.298 1_655 S
O322 C336 1.236 . S
O323 Dy313 2.395 . S
O323 C343 1.255 . S
O324 Dy313 2.379 . S
O324 C343 1.249 . S
C325 O315 1.266 . S
C325 O316 1.236 . S
O326 Dy312 2.275 . S
O326 C314 1.254 . S
O327 Dy313 2.339 1_545 S
O327 C314 1.257 1_655 S
C328 C331 1.344 . S
C328 C332 1.328 . S
C328 C334 1.516 . S
C329 C330 1.304 . S
C329 C333 1.323 . S
C330 C329 1.304 . S
C330 C331 1.371 . S
C330 H344 0.930 . S
C331 C328 1.344 . S
C331 C330 1.371 . S
C331 H345 0.931 . S
C332 C328 1.328 . S
C332 C333 1.433 . S
C332 H346 0.931 . S
C333 C329 1.323 . S
C333 C332 1.433 . S
C333 H347 0.933 . S
C334 Dy312 2.738 . S
C334 O317 1.255 . S
C334 O318 1.249 . S
C334 C328 1.516 . S
C335 O319 1.254 . S
C335 O320 1.257 1_655 S
C336 O321 1.266 . S
C336 O322 1.236 . S
C337 C340 1.344 . S
C337 C341 1.328 . S
C337 C343 1.516 . S
C338 C339 1.304 . S
C338 C342 1.323 . S
C339 C338 1.304 . S
C339 C340 1.371 . S
C339 H348 0.930 . S
C340 C337 1.344 . S
C340 C339 1.371 . S
C340 H349 0.931 . S
C341 C337 1.328 . S
C341 C342 1.433 . S
C341 H350 0.931 . S
C342 C338 1.323 . S
C342 C341 1.433 . S
C342 H351 0.933 . S
C343 Dy313 2.738 . S
C343 O323 1.255 . S
C343 O324 1.249 . S
C343 C337 1.516 . S
H344 C330 0.930 . S
H345 C331 0.931 . S
H346 C332 0.931 . S
H347 C333 0.933 . S
H348 C339 0.930 . S
H349 C340 0.931 . S
H350 C341 0.931 . S
H351 C342 0.933 . S
Dy352 O355 2.307 1_566 S
Dy352 O357 2.395 . S
Dy352 O358 2.379 . S
Dy352 O360 2.339 1_565 S
Dy352 O362 2.298 . S
Dy352 O366 2.275 1_556 S
Dy352 C374 2.738 . S
Dy353 O356 2.298 . S
Dy353 O359 2.275 1_554 S
Dy353 O361 2.307 1_544 S
Dy353 O363 2.395 . S
Dy353 O364 2.379 . S
Dy353 O367 2.339 1_545 S
Dy353 C383 2.738 . S
C354 O366 1.254 . S
C354 O367 1.257 . S
O355 Dy352 2.307 1_544 S
O355 C365 1.266 . S
O356 Dy353 2.298 . S
O356 C365 1.236 . S
O357 Dy352 2.395 . S
O357 C374 1.255 . S
O358 Dy352 2.379 . S
O358 C374 1.249 . S
O359 Dy353 2.275 1_556 S
O359 C375 1.254 . S
O360 Dy352 2.339 1_545 S
O360 C375 1.257 . S
O361 Dy353 2.307 1_566 S
O361 C376 1.266 . S
O362 Dy352 2.298 . S
O362 C376 1.236 . S
O363 Dy353 2.395 . S
O363 C383 1.255 . S
O364 Dy353 2.379 . S
O364 C383 1.249 . S
C365 O355 1.266 . S
C365 O356 1.236 . S
O366 Dy352 2.275 1_554 S
O366 C354 1.254 . S
O367 Dy353 2.339 1_565 S
O367 C354 1.257 . S
C368 C371 1.344 . S
C368 C372 1.328 . S
C368 C374 1.516 . S
C369 C370 1.304 . S
C369 C373 1.323 . S
C370 C369 1.304 . S
C370 C371 1.371 . S
C370 H384 0.930 . S
C371 C368 1.344 . S
C371 C370 1.371 . S
C371 H385 0.931 . S
C372 C368 1.328 . S
C372 C373 1.433 . S
C372 H386 0.931 . S
C373 C369 1.323 . S
C373 C372 1.433 . S
C373 H387 0.933 . S
C374 Dy352 2.738 . S
C374 O357 1.255 . S
C374 O358 1.249 . S
C374 C368 1.516 . S
C375 O359 1.254 . S
C375 O360 1.257 . S
C376 O361 1.266 . S
C376 O362 1.236 . S
C377 C380 1.344 . S
C377 C381 1.328 . S
C377 C383 1.516 . S
C378 C379 1.304 . S
C378 C382 1.323 . S
C379 C378 1.304 . S
C379 C380 1.371 . S
C379 H388 0.930 . S
C380 C377 1.344 . S
C380 C379 1.371 . S
C380 H389 0.931 . S
C381 C377 1.328 . S
C381 C382 1.433 . S
C381 H390 0.931 . S
C382 C378 1.323 . S
C382 C381 1.433 . S
C382 H391 0.933 . S
C383 Dy353 2.738 . S
C383 O363 1.255 . S
C383 O364 1.249 . S
C383 C377 1.516 . S
H384 C370 0.930 . S
H385 C371 0.931 . S
H386 C372 0.931 . S
H387 C373 0.933 . S
H388 C379 0.930 . S
H389 C380 0.931 . S
H390 C381 0.931 . S
H391 C382 0.933 . S
Dy392 O395 2.307 . S
Dy392 O397 2.395 . S
Dy392 O398 2.379 . S
Dy392 O400 2.339 . S
Dy392 O402 2.298 . S
Dy392 O406 2.275 . S
Dy392 C414 2.738 . S
Dy393 O396 2.298 . S
Dy393 O399 2.275 . S
Dy393 O401 2.307 . S
Dy393 O403 2.395 . S
Dy393 O404 2.379 . S
Dy393 O407 2.339 . S
Dy393 C423 2.738 . S
C394 O406 1.254 . S
C394 O407 1.257 . S
O395 Dy392 2.307 . S
O395 C405 1.266 . S
O396 Dy393 2.298 . S
O396 C405 1.236 . S
O397 Dy392 2.395 . S
O397 C414 1.255 . S
O398 Dy392 2.379 . S
O398 C414 1.249 . S
O399 Dy393 2.275 . S
O399 C415 1.254 . S
O400 Dy392 2.339 . S
O400 C415 1.257 . S
O401 Dy393 2.307 . S
O401 C416 1.266 . S
O402 Dy392 2.298 . S
O402 C416 1.236 . S
O403 Dy393 2.395 . S
O403 C423 1.255 . S
O404 Dy393 2.379 . S
O404 C423 1.249 . S
C405 O395 1.266 . S
C405 O396 1.236 . S
O406 Dy392 2.275 . S
O406 C394 1.254 . S
O407 Dy393 2.339 . S
O407 C394 1.257 . S
C408 C411 1.344 . S
C408 C412 1.328 . S
C408 C414 1.516 . S
C409 C410 1.304 . S
C409 C413 1.323 . S
C410 C409 1.304 . S
C410 C411 1.371 . S
C410 H424 0.930 . S
C411 C408 1.344 . S
C411 C410 1.371 . S
C411 H425 0.931 . S
C412 C408 1.328 . S
C412 C413 1.433 . S
C412 H426 0.931 . S
C413 C409 1.323 . S
C413 C412 1.433 . S
C413 H427 0.933 . S
C414 Dy392 2.738 . S
C414 O397 1.255 . S
C414 O398 1.249 . S
C414 C408 1.516 . S
C415 O399 1.254 . S
C415 O400 1.257 . S
C416 O401 1.266 . S
C416 O402 1.236 . S
C417 C420 1.344 . S
C417 C421 1.328 . S
C417 C423 1.516 . S
C418 C419 1.304 . S
C418 C422 1.323 . S
C419 C418 1.304 . S
C419 C420 1.371 . S
C419 H428 0.930 . S
C420 C417 1.344 . S
C420 C419 1.371 . S
C420 H429 0.931 . S
C421 C417 1.328 . S
C421 C422 1.433 . S
C421 H430 0.931 . S
C422 C418 1.323 . S
C422 C421 1.433 . S
C422 H431 0.933 . S
C423 Dy393 2.738 . S
C423 O403 1.255 . S
C423 O404 1.249 . S
C423 C417 1.516 . S
H424 C410 0.930 . S
H425 C411 0.931 . S
H426 C412 0.931 . S
H427 C413 0.933 . S
H428 C419 0.930 . S
H429 C420 0.931 . S
H430 C421 0.931 . S
H431 C422 0.933 . S
Dy432 O435 2.307 1_656 S
Dy432 O437 2.395 . S
Dy432 O438 2.379 . S
Dy432 O440 2.339 1_655 S
Dy432 O442 2.298 . S
Dy432 O446 2.275 1_556 S
Dy432 C454 2.738 . S
Dy433 O436 2.298 . S
Dy433 O439 2.275 1_554 S
Dy433 O441 2.307 1_455 S
Dy433 O443 2.395 . S
Dy433 O444 2.379 . S
Dy433 O447 2.339 1_455 S
Dy433 C463 2.738 . S
C434 O446 1.254 . S
C434 O447 1.257 . S
O435 Dy432 2.307 1_454 S
O435 C445 1.266 . S
O436 Dy433 2.298 . S
O436 C445 1.236 . S
O437 Dy432 2.395 . S
O437 C454 1.255 . S
O438 Dy432 2.379 . S
O438 C454 1.249 . S
O439 Dy433 2.275 1_556 S
O439 C455 1.254 . S
O440 Dy432 2.339 1_455 S
O440 C455 1.257 . S
O441 Dy433 2.307 1_655 S
O441 C456 1.266 1_554 S
O442 Dy432 2.298 . S
O442 C456 1.236 . S
O443 Dy433 2.395 . S
O443 C463 1.255 . S
O444 Dy433 2.379 . S
O444 C463 1.249 . S
C445 O435 1.266 . S
C445 O436 1.236 . S
O446 Dy432 2.275 1_554 S
O446 C434 1.254 . S
O447 Dy433 2.339 1_655 S
O447 C434 1.257 . S
C448 C451 1.344 . S
C448 C452 1.328 . S
C448 C454 1.516 . S
C449 C450 1.304 . S
C449 C453 1.323 . S
C450 C449 1.304 . S
C450 C451 1.371 . S
C450 H464 0.930 . S
C451 C448 1.344 . S
C451 C450 1.371 . S
C451 H465 0.931 . S
C452 C448 1.328 . S
C452 C453 1.433 . S
C452 H466 0.931 . S
C453 C449 1.323 . S
C453 C452 1.433 . S
C453 H467 0.933 . S
C454 Dy432 2.738 . S
C454 O437 1.255 . S
C454 O438 1.249 . S
C454 C448 1.516 . S
C455 O439 1.254 . S
C455 O440 1.257 . S
C456 O441 1.266 1_556 S
C456 O442 1.236 . S
C457 C460 1.344 . S
C457 C461 1.328 . S
C457 C463 1.516 . S
C458 C459 1.304 . S
C458 C462 1.323 . S
C459 C458 1.304 . S
C459 C460 1.371 . S
C459 H468 0.930 . S
C460 C457 1.344 . S
C460 C459 1.371 . S
C460 H469 0.931 . S
C461 C457 1.328 . S
C461 C462 1.433 . S
C461 H470 0.931 . S
C462 C458 1.323 . S
C462 C461 1.433 . S
C462 H471 0.933 . S
C463 Dy433 2.738 . S
C463 O443 1.255 . S
C463 O444 1.249 . S
C463 C457 1.516 . S
H464 C450 0.930 . S
H465 C451 0.931 . S
H466 C452 0.931 . S
H467 C453 0.933 . S
H468 C459 0.930 . S
H469 C460 0.931 . S
H470 C461 0.931 . S
H471 C462 0.933 . S
H472 C484 0.930 . S
H473 C486 0.930 . S
H474 C487 0.930 . S
H475 C491 0.959 . S
H476 C491 0.959 . S
H477 C491 0.961 . S
H478 C492 0.960 . S
H479 C492 0.961 . S
H480 C492 0.959 . S
H481 C495 0.929 . S
H482 C496 0.931 . S
H483 C498 0.930 . S
C484 H472 0.930 . S
C484 C485 1.399 . S
C484 C489 1.399 . S
C485 C484 1.399 . S
C485 C486 1.376 . S
C486 H473 0.930 . S
C486 C485 1.376 . S
C486 C487 1.388 . S
C487 H474 0.930 . S
C487 C486 1.388 . S
C487 C488 1.390 . S
C488 C487 1.390 . S
C488 C489 1.394 . S
C488 C494 1.465 . S
C489 C484 1.399 . S
C489 C488 1.394 . S
C489 C490 1.516 . S
C490 C489 1.516 . S
C490 C491 1.502 . S
C490 C492 1.561 . S
C490 C493 1.526 . S
C491 H475 0.959 . S
C491 H476 0.959 . S
C491 H477 0.961 . S
C491 C490 1.502 . S
C492 H478 0.960 . S
C492 H479 0.961 . S
C492 H480 0.959 . S
C492 C490 1.561 . S
C493 C490 1.526 . S
C493 C494 1.396 . S
C493 C498 1.390 . S
C494 C488 1.465 . S
C494 C493 1.396 . S
C494 C495 1.399 . S
C495 H481 0.929 . S
C495 C494 1.399 . S
C495 C496 1.385 . S
C496 H482 0.931 . S
C496 C495 1.385 . S
C496 C497 1.389 . S
C497 C496 1.389 . S
C497 C498 1.387 . S
C498 H483 0.930 . S
C498 C493 1.390 . S
C498 C497 1.387 . S
H499 C511 0.930 . S
H500 C513 0.930 . S
H501 C514 0.930 . S
H502 C518 0.959 . S
H503 C518 0.959 . S
H504 C518 0.961 . S
H505 C519 0.960 . S
H506 C519 0.961 . S
H507 C519 0.959 . S
H508 C522 0.929 . S
H509 C523 0.931 . S
H510 C525 0.930 . S
C511 H499 0.930 . S
C511 C512 1.399 . S
C511 C516 1.399 . S
C512 C511 1.399 . S
C512 C513 1.376 . S
C513 H500 0.930 . S
C513 C512 1.376 . S
C513 C514 1.388 . S
C514 H501 0.930 . S
C514 C513 1.388 . S
C514 C515 1.390 . S
C515 C514 1.390 . S
C515 C516 1.394 . S
C515 C521 1.465 . S
C516 C511 1.399 . S
C516 C515 1.394 . S
C516 C517 1.516 . S
C517 C516 1.516 . S
C517 C518 1.502 . S
C517 C519 1.561 . S
C517 C520 1.526 . S
C518 H502 0.959 . S
C518 H503 0.959 . S
C518 H504 0.961 . S
C518 C517 1.502 . S
C519 H505 0.960 . S
C519 H506 0.961 . S
C519 H507 0.959 . S
C519 C517 1.561 . S
C520 C517 1.526 . S
C520 C521 1.396 . S
C520 C525 1.390 . S
C521 C515 1.465 . S
C521 C520 1.396 . S
C521 C522 1.399 . S
C522 H508 0.929 . S
C522 C521 1.399 . S
C522 C523 1.385 . S
C523 H509 0.931 . S
C523 C522 1.385 . S
C523 C524 1.389 . S
C524 C523 1.389 . S
C524 C525 1.387 . S
C525 H510 0.930 . S
C525 C520 1.390 . S
C525 C524 1.387 . S
H526 C538 0.930 . S
H527 C540 0.930 . S
H528 C541 0.930 . S
H529 C545 0.959 . S
H530 C545 0.959 . S
H531 C545 0.961 . S
H532 C546 0.960 . S
H533 C546 0.961 . S
H534 C546 0.959 . S
H535 C549 0.929 . S
H536 C550 0.931 . S
H537 C552 0.930 . S
C538 H526 0.930 . S
C538 C539 1.399 . S
C538 C543 1.399 . S
C539 C538 1.399 . S
C539 C540 1.376 . S
C540 H527 0.930 . S
C540 C539 1.376 . S
C540 C541 1.388 . S
C541 H528 0.930 . S
C541 C540 1.388 . S
C541 C542 1.390 . S
C542 C541 1.390 . S
C542 C543 1.394 . S
C542 C548 1.465 . S
C543 C538 1.399 . S
C543 C542 1.394 . S
C543 C544 1.516 . S
C544 C543 1.516 . S
C544 C545 1.502 . S
C544 C546 1.561 . S
C544 C547 1.526 . S
C545 H529 0.959 . S
C545 H530 0.959 . S
C545 H531 0.961 . S
C545 C544 1.502 . S
C546 H532 0.960 . S
C546 H533 0.961 . S
C546 H534 0.959 . S
C546 C544 1.561 . S
C547 C544 1.526 . S
C547 C548 1.396 . S
C547 C552 1.390 . S
C548 C542 1.465 . S
C548 C547 1.396 . S
C548 C549 1.399 . S
C549 H535 0.929 . S
C549 C548 1.399 . S
C549 C550 1.385 . S
C550 H536 0.931 . S
C550 C549 1.385 . S
C550 C551 1.389 . S
C551 C550 1.389 . S
C551 C552 1.387 . S
C552 H537 0.930 . S
C552 C547 1.390 . S
C552 C551 1.387 . S
H553 C565 0.930 . S
H554 C567 0.930 . S
H555 C568 0.930 . S
H556 C572 0.959 . S
H557 C572 0.959 . S
H558 C572 0.961 . S
H559 C573 0.960 . S
H560 C573 0.961 . S
H561 C573 0.959 . S
H562 C576 0.929 . S
H563 C577 0.931 . S
H564 C579 0.930 . S
C565 H553 0.930 . S
C565 C566 1.399 . S
C565 C570 1.399 . S
C566 C565 1.399 . S
C566 C567 1.376 . S
C567 H554 0.930 . S
C567 C566 1.376 . S
C567 C568 1.388 . S
C568 H555 0.930 . S
C568 C567 1.388 . S
C568 C569 1.390 . S
C569 C568 1.390 . S
C569 C570 1.394 . S
C569 C575 1.465 . S
C570 C565 1.399 . S
C570 C569 1.394 . S
C570 C571 1.516 . S
C571 C570 1.516 . S
C571 C572 1.502 . S
C571 C573 1.561 . S
C571 C574 1.526 . S
C572 H556 0.959 . S
C572 H557 0.959 . S
C572 H558 0.961 . S
C572 C571 1.502 . S
C573 H559 0.960 . S
C573 H560 0.961 . S
C573 H561 0.959 . S
C573 C571 1.561 . S
C574 C571 1.526 . S
C574 C575 1.396 . S
C574 C579 1.390 . S
C575 C569 1.465 . S
C575 C574 1.396 . S
C575 C576 1.399 . S
C576 H562 0.929 . S
C576 C575 1.399 . S
C576 C577 1.385 . S
C577 H563 0.931 . S
C577 C576 1.385 . S
C577 C578 1.389 . S
C578 C577 1.389 . S
C578 C579 1.387 . S
C579 H564 0.930 . S
C579 C574 1.390 . S
C579 C578 1.387 . S
H580 C592 0.930 . S
H581 C594 0.930 . S
H582 C595 0.930 . S
H583 C599 0.959 . S
H584 C599 0.959 . S
H585 C599 0.961 . S
H586 C600 0.960 . S
H587 C600 0.961 . S
H588 C600 0.959 . S
H589 C603 0.929 . S
H590 C604 0.931 . S
H591 C606 0.930 . S
C592 H580 0.930 . S
C592 C593 1.399 . S
C592 C597 1.399 . S
C593 C592 1.399 . S
C593 C594 1.376 . S
C594 H581 0.930 . S
C594 C593 1.376 . S
C594 C595 1.388 . S
C595 H582 0.930 . S
C595 C594 1.388 . S
C595 C596 1.390 . S
C596 C595 1.390 . S
C596 C597 1.394 . S
C596 C602 1.465 . S
C597 C592 1.399 . S
C597 C596 1.394 . S
C597 C598 1.516 . S
C598 C597 1.516 . S
C598 C599 1.502 . S
C598 C600 1.561 . S
C598 C601 1.526 . S
C599 H583 0.959 . S
C599 H584 0.959 . S
C599 H585 0.961 . S
C599 C598 1.502 . S
C600 H586 0.960 . S
C600 H587 0.961 . S
C600 H588 0.959 . S
C600 C598 1.561 . S
C601 C598 1.526 . S
C601 C602 1.396 . S
C601 C606 1.390 . S
C602 C596 1.465 . S
C602 C601 1.396 . S
C602 C603 1.399 . S
C603 H589 0.929 . S
C603 C602 1.399 . S
C603 C604 1.385 . S
C604 H590 0.931 . S
C604 C603 1.385 . S
C604 C605 1.389 . S
C605 C604 1.389 . S
C605 C606 1.387 . S
C606 H591 0.930 . S
C606 C601 1.390 . S
C606 C605 1.387 . S
H607 C619 0.930 . S
H608 C621 0.930 . S
H609 C622 0.930 . S
H610 C626 0.959 . S
H611 C626 0.959 . S
H612 C626 0.961 . S
H613 C627 0.960 . S
H614 C627 0.961 . S
H615 C627 0.959 . S
H616 C630 0.929 . S
H617 C631 0.931 . S
H618 C633 0.930 . S
C619 H607 0.930 . S
C619 C620 1.399 . S
C619 C624 1.399 . S
C620 C619 1.399 . S
C620 C621 1.376 . S
C621 H608 0.930 . S
C621 C620 1.376 . S
C621 C622 1.388 . S
C622 H609 0.930 . S
C622 C621 1.388 . S
C622 C623 1.390 . S
C623 C622 1.390 . S
C623 C624 1.394 . S
C623 C629 1.465 . S
C624 C619 1.399 . S
C624 C623 1.394 . S
C624 C625 1.516 . S
C625 C624 1.516 . S
C625 C626 1.502 . S
C625 C627 1.561 . S
C625 C628 1.526 . S
C626 H610 0.959 . S
C626 H611 0.959 . S
C626 H612 0.961 . S
C626 C625 1.502 . S
C627 H613 0.960 . S
C627 H614 0.961 . S
C627 H615 0.959 . S
C627 C625 1.561 . S
C628 C625 1.526 . S
C628 C629 1.396 . S
C628 C633 1.390 . S
C629 C623 1.465 . S
C629 C628 1.396 . S
C629 C630 1.399 . S
C630 H616 0.929 . S
C630 C629 1.399 . S
C630 C631 1.385 . S
C631 H617 0.931 . S
C631 C630 1.385 . S
C631 C632 1.389 . S
C632 C631 1.389 . S
C632 C633 1.387 . S
C633 H618 0.930 . S
C633 C628 1.390 . S
C633 C632 1.387 . S
H634 C646 0.930 . S
H635 C648 0.930 . S
H636 C649 0.930 . S
H637 C653 0.959 . S
H638 C653 0.959 . S
H639 C653 0.961 . S
H640 C654 0.960 . S
H641 C654 0.961 . S
H642 C654 0.959 . S
H643 C657 0.929 . S
H644 C658 0.931 . S
H645 C660 0.930 . S
C646 H634 0.930 . S
C646 C647 1.399 . S
C646 C651 1.399 . S
C647 C646 1.399 . S
C647 C648 1.376 . S
C648 H635 0.930 . S
C648 C647 1.376 . S
C648 C649 1.388 . S
C649 H636 0.930 . S
C649 C648 1.388 . S
C649 C650 1.390 . S
C650 C649 1.390 . S
C650 C651 1.394 . S
C650 C656 1.465 . S
C651 C646 1.399 . S
C651 C650 1.394 . S
C651 C652 1.516 . S
C652 C651 1.516 . S
C652 C653 1.502 . S
C652 C654 1.561 . S
C652 C655 1.526 . S
C653 H637 0.959 . S
C653 H638 0.959 . S
C653 H639 0.961 . S
C653 C652 1.502 . S
C654 H640 0.960 . S
C654 H641 0.961 . S
C654 H642 0.959 . S
C654 C652 1.561 . S
C655 C652 1.526 . S
C655 C656 1.396 . S
C655 C660 1.390 . S
C656 C650 1.465 . S
C656 C655 1.396 . S
C656 C657 1.399 . S
C657 H643 0.929 . S
C657 C656 1.399 . S
C657 C658 1.385 . S
C658 H644 0.931 . S
C658 C657 1.385 . S
C658 C659 1.389 . S
C659 C658 1.389 . S
C659 C660 1.387 . S
C660 H645 0.930 . S
C660 C655 1.390 . S
C660 C659 1.387 . S
H661 C673 0.930 . S
H662 C675 0.930 . S
H663 C676 0.930 . S
H664 C680 0.959 . S
H665 C680 0.959 . S
H666 C680 0.961 . S
H667 C681 0.960 . S
H668 C681 0.961 . S
H669 C681 0.959 . S
H670 C684 0.929 . S
H671 C685 0.931 . S
H672 C687 0.930 . S
C673 H661 0.930 . S
C673 C674 1.399 . S
C673 C678 1.399 . S
C674 C673 1.399 . S
C674 C675 1.376 . S
C675 H662 0.930 . S
C675 C674 1.376 . S
C675 C676 1.388 . S
C676 H663 0.930 . S
C676 C675 1.388 . S
C676 C677 1.390 . S
C677 C676 1.390 . S
C677 C678 1.394 . S
C677 C683 1.465 . S
C678 C673 1.399 . S
C678 C677 1.394 . S
C678 C679 1.516 . S
C679 C678 1.516 . S
C679 C680 1.502 . S
C679 C681 1.561 . S
C679 C682 1.526 . S
C680 H664 0.959 . S
C680 H665 0.959 . S
C680 H666 0.961 . S
C680 C679 1.502 . S
C681 H667 0.960 . S
C681 H668 0.961 . S
C681 H669 0.959 . S
C681 C679 1.561 . S
C682 C679 1.526 . S
C682 C683 1.396 . S
C682 C687 1.390 . S
C683 C677 1.465 . S
C683 C682 1.396 . S
C683 C684 1.399 . S
C684 H670 0.929 . S
C684 C683 1.399 . S
C684 C685 1.385 . S
C685 H671 0.931 . S
C685 C684 1.385 . S
C685 C686 1.389 . S
C686 C685 1.389 . S
C686 C687 1.387 . S
C687 H672 0.930 . S
C687 C682 1.390 . S
C687 C686 1.387 . S
H688 C700 0.930 . S
H689 C702 0.930 . S
H690 C703 0.930 . S
H691 C707 0.959 . S
H692 C707 0.959 . S
H693 C707 0.961 . S
H694 C708 0.960 . S
H695 C708 0.961 . S
H696 C708 0.959 . S
H697 C711 0.929 . S
H698 C712 0.931 . S
H699 C714 0.930 . S
C700 H688 0.930 . S
C700 C701 1.399 . S
C700 C705 1.399 . S
C701 C700 1.399 . S
C701 C702 1.376 . S
C702 H689 0.930 . S
C702 C701 1.376 . S
C702 C703 1.388 . S
C703 H690 0.930 . S
C703 C702 1.388 . S
C703 C704 1.390 . S
C704 C703 1.390 . S
C704 C705 1.394 . S
C704 C710 1.465 . S
C705 C700 1.399 . S
C705 C704 1.394 . S
C705 C706 1.516 . S
C706 C705 1.516 . S
C706 C707 1.502 . S
C706 C708 1.561 . S
C706 C709 1.526 . S
C707 H691 0.959 . S
C707 H692 0.959 . S
C707 H693 0.961 . S
C707 C706 1.502 . S
C708 H694 0.960 . S
C708 H695 0.961 . S
C708 H696 0.959 . S
C708 C706 1.561 . S
C709 C706 1.526 . S
C709 C710 1.396 . S
C709 C714 1.390 . S
C710 C704 1.465 . S
C710 C709 1.396 . S
C710 C711 1.399 . S
C711 H697 0.929 . S
C711 C710 1.399 . S
C711 C712 1.385 . S
C712 H698 0.931 . S
C712 C711 1.385 . S
C712 C713 1.389 . S
C713 C712 1.389 . S
C713 C714 1.387 . S
C714 H699 0.930 . S
C714 C709 1.390 . S
C714 C713 1.387 . S
H715 C727 0.930 . S
H716 C729 0.930 . S
H717 C730 0.930 . S
H718 C734 0.959 . S
H719 C734 0.959 . S
H720 C734 0.961 . S
H721 C735 0.960 . S
H722 C735 0.961 . S
H723 C735 0.959 . S
H724 C738 0.929 . S
H725 C739 0.931 . S
H726 C741 0.930 . S
C727 H715 0.930 . S
C727 C728 1.399 . S
C727 C732 1.399 . S
C728 C727 1.399 . S
C728 C729 1.376 . S
C729 H716 0.930 . S
C729 C728 1.376 . S
C729 C730 1.388 . S
C730 H717 0.930 . S
C730 C729 1.388 . S
C730 C731 1.390 . S
C731 C730 1.390 . S
C731 C732 1.394 . S
C731 C737 1.465 . S
C732 C727 1.399 . S
C732 C731 1.394 . S
C732 C733 1.516 . S
C733 C732 1.516 . S
C733 C734 1.502 . S
C733 C735 1.561 . S
C733 C736 1.526 . S
C734 H718 0.959 . S
C734 H719 0.959 . S
C734 H720 0.961 . S
C734 C733 1.502 . S
C735 H721 0.960 . S
C735 H722 0.961 . S
C735 H723 0.959 . S
C735 C733 1.561 . S
C736 C733 1.526 . S
C736 C737 1.396 . S
C736 C741 1.390 . S
C737 C731 1.465 . S
C737 C736 1.396 . S
C737 C738 1.399 . S
C738 H724 0.929 . S
C738 C737 1.399 . S
C738 C739 1.385 . S
C739 H725 0.931 . S
C739 C738 1.385 . S
C739 C740 1.389 . S
C740 C739 1.389 . S
C740 C741 1.387 . S
C741 H726 0.930 . S
C741 C736 1.390 . S
C741 C740 1.387 . S
H742 C754 0.930 . S
H743 C756 0.930 . S
H744 C757 0.930 . S
H745 C761 0.959 . S
H746 C761 0.959 . S
H747 C761 0.961 . S
H748 C762 0.960 . S
H749 C762 0.961 . S
H750 C762 0.959 . S
H751 C765 0.929 . S
H752 C766 0.931 . S
H753 C768 0.930 . S
C754 H742 0.930 . S
C754 C755 1.399 . S
C754 C759 1.399 . S
C755 C754 1.399 . S
C755 C756 1.376 . S
C756 H743 0.930 . S
C756 C755 1.376 . S
C756 C757 1.388 . S
C757 H744 0.930 . S
C757 C756 1.388 . S
C757 C758 1.390 . S
C758 C757 1.390 . S
C758 C759 1.394 . S
C758 C764 1.465 . S
C759 C754 1.399 . S
C759 C758 1.394 . S
C759 C760 1.516 . S
C760 C759 1.516 . S
C760 C761 1.502 . S
C760 C762 1.561 . S
C760 C763 1.526 . S
C761 H745 0.959 . S
C761 H746 0.959 . S
C761 H747 0.961 . S
C761 C760 1.502 . S
C762 H748 0.960 . S
C762 H749 0.961 . S
C762 H750 0.959 . S
C762 C760 1.561 . S
C763 C760 1.526 . S
C763 C764 1.396 . S
C763 C768 1.390 . S
C764 C758 1.465 . S
C764 C763 1.396 . S
C764 C765 1.399 . S
C765 H751 0.929 . S
C765 C764 1.399 . S
C765 C766 1.385 . S
C766 H752 0.931 . S
C766 C765 1.385 . S
C766 C767 1.389 . S
C767 C766 1.389 . S
C767 C768 1.387 . S
C768 H753 0.930 . S
C768 C763 1.390 . S
C768 C767 1.387 . S
H769 C781 0.930 . S
H770 C783 0.930 . S
H771 C784 0.930 . S
H772 C788 0.959 . S
H773 C788 0.959 . S
H774 C788 0.961 . S
H775 C789 0.960 . S
H776 C789 0.961 . S
H777 C789 0.959 . S
H778 C792 0.929 . S
H779 C793 0.931 . S
H780 C795 0.930 . S
C781 H769 0.930 . S
C781 C782 1.399 . S
C781 C786 1.399 . S
C782 C781 1.399 . S
C782 C783 1.376 . S
C783 H770 0.930 . S
C783 C782 1.376 . S
C783 C784 1.388 . S
C784 H771 0.930 . S
C784 C783 1.388 . S
C784 C785 1.390 . S
C785 C784 1.390 . S
C785 C786 1.394 . S
C785 C791 1.465 . S
C786 C781 1.399 . S
C786 C785 1.394 . S
C786 C787 1.516 . S
C787 C786 1.516 . S
C787 C788 1.502 . S
C787 C789 1.561 . S
C787 C790 1.526 . S
C788 H772 0.959 . S
C788 H773 0.959 . S
C788 H774 0.961 . S
C788 C787 1.502 . S
C789 H775 0.960 . S
C789 H776 0.961 . S
C789 H777 0.959 . S
C789 C787 1.561 . S
C790 C787 1.526 . S
C790 C791 1.396 . S
C790 C795 1.390 . S
C791 C785 1.465 . S
C791 C790 1.396 . S
C791 C792 1.399 . S
C792 H778 0.929 . S
C792 C791 1.399 . S
C792 C793 1.385 . S
C793 H779 0.931 . S
C793 C792 1.385 . S
C793 C794 1.389 . S
C794 C793 1.389 . S
C794 C795 1.387 . S
C795 H780 0.930 . S
C795 C790 1.390 . S
C795 C794 1.387 . S
H796 C808 0.930 . S
H797 C810 0.930 . S
H798 C811 0.930 . S
H799 C815 0.959 . S
H800 C815 0.959 . S
H801 C815 0.961 . S
H802 C816 0.960 . S
H803 C816 0.961 . S
H804 C816 0.959 . S
H805 C819 0.929 . S
H806 C820 0.931 . S
H807 C822 0.930 . S
C808 H796 0.930 . S
C808 C809 1.399 . S
C808 C813 1.399 . S
C809 C808 1.399 . S
C809 C810 1.376 . S
C810 H797 0.930 . S
C810 C809 1.376 . S
C810 C811 1.388 . S
C811 H798 0.930 . S
C811 C810 1.388 . S
C811 C812 1.390 . S
C812 C811 1.390 . S
C812 C813 1.394 . S
C812 C818 1.465 . S
C813 C808 1.399 . S
C813 C812 1.394 . S
C813 C814 1.516 . S
C814 C813 1.516 . S
C814 C815 1.502 . S
C814 C816 1.561 . S
C814 C817 1.526 . S
C815 H799 0.959 . S
C815 H800 0.959 . S
C815 H801 0.961 . S
C815 C814 1.502 . S
C816 H802 0.960 . S
C816 H803 0.961 . S
C816 H804 0.959 . S
C816 C814 1.561 . S
C817 C814 1.526 . S
C817 C818 1.396 . S
C817 C822 1.390 . S
C818 C812 1.465 . S
C818 C817 1.396 . S
C818 C819 1.399 . S
C819 H805 0.929 . S
C819 C818 1.399 . S
C819 C820 1.385 . S
C820 H806 0.931 . S
C820 C819 1.385 . S
C820 C821 1.389 . S
C821 C820 1.389 . S
C821 C822 1.387 . S
C822 H807 0.930 . S
C822 C817 1.390 . S
C822 C821 1.387 . S
H823 C835 0.930 . S
H824 C837 0.930 . S
H825 C838 0.930 . S
H826 C842 0.959 . S
H827 C842 0.959 . S
H828 C842 0.961 . S
H829 C843 0.960 . S
H830 C843 0.961 . S
H831 C843 0.959 . S
H832 C846 0.929 . S
H833 C847 0.931 . S
H834 C849 0.930 . S
C835 H823 0.930 . S
C835 C836 1.399 . S
C835 C840 1.399 . S
C836 C835 1.399 . S
C836 C837 1.376 . S
C837 H824 0.930 . S
C837 C836 1.376 . S
C837 C838 1.388 . S
C838 H825 0.930 . S
C838 C837 1.388 . S
C838 C839 1.390 . S
C839 C838 1.390 . S
C839 C840 1.394 . S
C839 C845 1.465 . S
C840 C835 1.399 . S
C840 C839 1.394 . S
C840 C841 1.516 . S
C841 C840 1.516 . S
C841 C842 1.502 . S
C841 C843 1.561 . S
C841 C844 1.526 . S
C842 H826 0.959 . S
C842 H827 0.959 . S
C842 H828 0.961 . S
C842 C841 1.502 . S
C843 H829 0.960 . S
C843 H830 0.961 . S
C843 H831 0.959 . S
C843 C841 1.561 . S
C844 C841 1.526 . S
C844 C845 1.396 . S
C844 C849 1.390 . S
C845 C839 1.465 . S
C845 C844 1.396 . S
C845 C846 1.399 . S
C846 H832 0.929 . S
C846 C845 1.399 . S
C846 C847 1.385 . S
C847 H833 0.931 . S
C847 C846 1.385 . S
C847 C848 1.389 . S
C848 C847 1.389 . S
C848 C849 1.387 . S
C849 H834 0.930 . S
C849 C844 1.390 . S
C849 C848 1.387 . S
H850 C862 0.930 . S
H851 C864 0.930 . S
H852 C865 0.930 . S
H853 C869 0.959 . S
H854 C869 0.959 . S
H855 C869 0.961 . S
H856 C870 0.960 . S
H857 C870 0.961 . S
H858 C870 0.959 . S
H859 C873 0.929 . S
H860 C874 0.931 . S
H861 C876 0.930 . S
C862 H850 0.930 . S
C862 C863 1.399 . S
C862 C867 1.399 . S
C863 C862 1.399 . S
C863 C864 1.376 . S
C864 H851 0.930 . S
C864 C863 1.376 . S
C864 C865 1.388 . S
C865 H852 0.930 . S
C865 C864 1.388 . S
C865 C866 1.390 . S
C866 C865 1.390 . S
C866 C867 1.394 . S
C866 C872 1.465 . S
C867 C862 1.399 . S
C867 C866 1.394 . S
C867 C868 1.516 . S
C868 C867 1.516 . S
C868 C869 1.502 . S
C868 C870 1.561 . S
C868 C871 1.526 . S
C869 H853 0.959 . S
C869 H854 0.959 . S
C869 H855 0.961 . S
C869 C868 1.502 . S
C870 H856 0.960 . S
C870 H857 0.961 . S
C870 H858 0.959 . S
C870 C868 1.561 . S
C871 C868 1.526 . S
C871 C872 1.396 . S
C871 C876 1.390 . S
C872 C866 1.465 . S
C872 C871 1.396 . S
C872 C873 1.399 . S
C873 H859 0.929 . S
C873 C872 1.399 . S
C873 C874 1.385 . S
C874 H860 0.931 . S
C874 C873 1.385 . S
C874 C875 1.389 . S
C875 C874 1.389 . S
C875 C876 1.387 . S
C876 H861 0.930 . S
C876 C871 1.390 . S
C876 C875 1.387 . S
H877 C889 0.930 . S
H878 C891 0.930 . S
H879 C892 0.930 . S
H880 C896 0.959 . S
H881 C896 0.959 . S
H882 C896 0.961 . S
H883 C897 0.960 . S
H884 C897 0.961 . S
H885 C897 0.959 . S
H886 C900 0.929 . S
H887 C901 0.931 . S
H888 C903 0.930 . S
C889 H877 0.930 . S
C889 C890 1.399 . S
C889 C894 1.399 . S
C890 C889 1.399 . S
C890 C891 1.376 . S
C891 H878 0.930 . S
C891 C890 1.376 . S
C891 C892 1.388 . S
C892 H879 0.930 . S
C892 C891 1.388 . S
C892 C893 1.390 . S
C893 C892 1.390 . S
C893 C894 1.394 . S
C893 C899 1.465 . S
C894 C889 1.399 . S
C894 C893 1.394 . S
C894 C895 1.516 . S
C895 C894 1.516 . S
C895 C896 1.502 . S
C895 C897 1.561 . S
C895 C898 1.526 . S
C896 H880 0.959 . S
C896 H881 0.959 . S
C896 H882 0.961 . S
C896 C895 1.502 . S
C897 H883 0.960 . S
C897 H884 0.961 . S
C897 H885 0.959 . S
C897 C895 1.561 . S
C898 C895 1.526 . S
C898 C899 1.396 . S
C898 C903 1.390 . S
C899 C893 1.465 . S
C899 C898 1.396 . S
C899 C900 1.399 . S
C900 H886 0.929 . S
C900 C899 1.399 . S
C900 C901 1.385 . S
C901 H887 0.931 . S
C901 C900 1.385 . S
C901 C902 1.389 . S
C902 C901 1.389 . S
C902 C903 1.387 . S
C903 H888 0.930 . S
C903 C898 1.390 . S
C903 C902 1.387 . S
H904 C916 0.930 . S
H905 C918 0.930 . S
H906 C919 0.930 . S
H907 C923 0.959 . S
H908 C923 0.959 . S
H909 C923 0.961 . S
H910 C924 0.960 . S
H911 C924 0.961 . S
H912 C924 0.959 . S
H913 C927 0.929 . S
H914 C928 0.931 . S
H915 C930 0.930 . S
C916 H904 0.930 . S
C916 C917 1.399 . S
C916 C921 1.399 . S
C917 C916 1.399 . S
C917 C918 1.376 . S
C918 H905 0.930 . S
C918 C917 1.376 . S
C918 C919 1.388 . S
C919 H906 0.930 . S
C919 C918 1.388 . S
C919 C920 1.390 . S
C920 C919 1.390 . S
C920 C921 1.394 . S
C920 C926 1.465 . S
C921 C916 1.399 . S
C921 C920 1.394 . S
C921 C922 1.516 . S
C922 C921 1.516 . S
C922 C923 1.502 . S
C922 C924 1.561 . S
C922 C925 1.526 . S
C923 H907 0.959 . S
C923 H908 0.959 . S
C923 H909 0.961 . S
C923 C922 1.502 . S
C924 H910 0.960 . S
C924 H911 0.961 . S
C924 H912 0.959 . S
C924 C922 1.561 . S
C925 C922 1.526 . S
C925 C926 1.396 . S
C925 C930 1.390 . S
C926 C920 1.465 . S
C926 C925 1.396 . S
C926 C927 1.399 . S
C927 H913 0.929 . S
C927 C926 1.399 . S
C927 C928 1.385 . S
C928 H914 0.931 . S
C928 C927 1.385 . S
C928 C929 1.389 . S
C929 C928 1.389 . S
C929 C930 1.387 . S
C930 H915 0.930 . S
C930 C925 1.390 . S
C930 C929 1.387 . S
H931 C943 0.930 . S
H932 C945 0.930 . S
H933 C946 0.930 . S
H934 C950 0.970 . S
H935 C950 0.969 . S
H936 C950 0.960 . S
H937 C951 0.960 . S
H938 C951 0.961 . S
H939 C951 0.959 . S
H940 C954 0.929 . S
H941 C955 0.931 . S
H942 C957 0.930 . S
C943 H931 0.930 . S
C943 C944 1.399 . S
C943 C948 1.399 . S
C944 C943 1.399 . S
C944 C945 1.376 . S
C945 H932 0.930 . S
C945 C944 1.376 . S
C945 C946 1.388 . S
C946 H933 0.930 . S
C946 C945 1.388 . S
C946 C947 1.390 . S
C947 C946 1.390 . S
C947 C948 1.394 . S
C947 C953 1.465 . S
C948 C943 1.399 . S
C948 C947 1.394 . S
C948 C949 1.516 . S
C949 C948 1.516 . S
C949 C950 1.483 1_655 S
C949 C951 1.561 . S
C949 C952 1.526 . S
C950 H934 0.970 . S
C950 H935 0.969 . S
C950 H936 0.960 . S
C950 C949 1.483 1_455 S
C951 H937 0.960 . S
C951 H938 0.961 . S
C951 H939 0.959 . S
C951 C949 1.561 . S
C952 C949 1.526 . S
C952 C953 1.396 . S
C952 C957 1.390 . S
C953 C947 1.465 . S
C953 C952 1.396 . S
C953 C954 1.399 . S
C954 H940 0.929 . S
C954 C953 1.399 . S
C954 C955 1.385 . S
C955 H941 0.931 . S
C955 C954 1.385 . S
C955 C956 1.389 . S
C956 C955 1.389 . S
C956 C957 1.387 . S
C957 H942 0.930 . S
C957 C952 1.390 . S
C957 C956 1.387 . S
H958 C970 0.930 . S
H959 C972 0.930 . S
H960 C973 0.930 . S
H961 C977 0.959 . S
H962 C977 0.959 . S
H963 C977 0.961 . S
H964 C978 0.960 . S
H965 C978 0.961 . S
H966 C978 0.959 . S
H967 C981 0.929 . S
H968 C982 0.931 . S
H969 C984 0.930 . S
C970 H958 0.930 . S
C970 C971 1.399 . S
C970 C975 1.399 . S
C971 C970 1.399 . S
C971 C972 1.376 . S
C972 H959 0.930 . S
C972 C971 1.376 . S
C972 C973 1.388 . S
C973 H960 0.930 . S
C973 C972 1.388 . S
C973 C974 1.390 . S
C974 C973 1.390 . S
C974 C975 1.394 . S
C974 C980 1.465 . S
C975 C970 1.399 . S
C975 C974 1.394 . S
C975 C976 1.516 . S
C976 C975 1.516 . S
C976 C977 1.502 . S
C976 C978 1.561 . S
C976 C979 1.526 . S
C977 H961 0.959 . S
C977 H962 0.959 . S
C977 H963 0.961 . S
C977 C976 1.502 . S
C978 H964 0.960 . S
C978 H965 0.961 . S
C978 H966 0.959 . S
C978 C976 1.561 . S
C979 C976 1.526 . S
C979 C980 1.396 . S
C979 C984 1.390 . S
C980 C974 1.465 . S
C980 C979 1.396 . S
C980 C981 1.399 . S
C981 H967 0.929 . S
C981 C980 1.399 . S
C981 C982 1.385 . S
C982 H968 0.931 . S
C982 C981 1.385 . S
C982 C983 1.389 . S
C983 C982 1.389 . S
C983 C984 1.387 . S
C984 H969 0.930 . S
C984 C979 1.390 . S
C984 C983 1.387 . S
H985 C997 0.930 . S
H986 C999 0.930 . S
H987 C1000 0.930 . S
H988 C1004 0.959 . S
H989 C1004 0.959 . S
H990 C1004 0.961 . S
H991 C1005 0.960 . S
H992 C1005 0.961 . S
H993 C1005 0.959 . S
H994 C1008 0.929 . S
H995 C1009 0.931 . S
H996 C1011 0.930 . S
C997 H985 0.930 . S
C997 C998 1.399 . S
C997 C1002 1.399 . S
C998 C997 1.399 . S
C998 C999 1.376 . S
C999 H986 0.930 . S
C999 C998 1.376 . S
C999 C1000 1.388 . S
C1000 H987 0.930 . S
C1000 C999 1.388 . S
C1000 C1001 1.390 . S
C1001 C1000 1.390 . S
C1001 C1002 1.394 . S
C1001 C1007 1.465 . S
C1002 C997 1.399 . S
C1002 C1001 1.394 . S
C1002 C1003 1.516 . S
C1003 C1002 1.516 . S
C1003 C1004 1.502 . S
C1003 C1005 1.561 . S
C1003 C1006 1.526 . S
C1004 H988 0.959 . S
C1004 H989 0.959 . S
C1004 H990 0.961 . S
C1004 C1003 1.502 . S
C1005 H991 0.960 . S
C1005 H992 0.961 . S
C1005 H993 0.959 . S
C1005 C1003 1.561 . S
C1006 C1003 1.526 . S
C1006 C1007 1.396 . S
C1006 C1011 1.390 . S
C1007 C1001 1.465 . S
C1007 C1006 1.396 . S
C1007 C1008 1.399 . S
C1008 H994 0.929 . S
C1008 C1007 1.399 . S
C1008 C1009 1.385 . S
C1009 H995 0.931 . S
C1009 C1008 1.385 . S
C1009 C1010 1.389 . S
C1010 C1009 1.389 . S
C1010 C1011 1.387 . S
C1011 H996 0.930 . S
C1011 C1006 1.390 . S
C1011 C1010 1.387 . S
H1012 C1024 0.930 . S
H1013 C1026 0.930 . S
H1014 C1027 0.930 . S
H1015 C1031 0.959 . S
H1016 C1031 0.959 . S
H1017 C1031 0.961 . S
H1018 C1032 0.960 . S
H1019 C1032 0.961 . S
H1020 C1032 0.959 . S
H1021 C1035 0.929 . S
H1022 C1036 0.931 . S
H1023 C1038 0.930 . S
C1024 H1012 0.930 . S
C1024 C1025 1.399 . S
C1024 C1029 1.399 . S
C1025 C1024 1.399 . S
C1025 C1026 1.376 . S
C1026 H1013 0.930 . S
C1026 C1025 1.376 . S
C1026 C1027 1.388 . S
C1027 H1014 0.930 . S
C1027 C1026 1.388 . S
C1027 C1028 1.390 . S
C1028 C1027 1.390 . S
C1028 C1029 1.394 . S
C1028 C1034 1.465 . S
C1029 C1024 1.399 . S
C1029 C1028 1.394 . S
C1029 C1030 1.516 . S
C1030 C1029 1.516 . S
C1030 C1031 1.502 . S
C1030 C1032 1.561 . S
C1030 C1033 1.526 . S
C1031 H1015 0.959 . S
C1031 H1016 0.959 . S
C1031 H1017 0.961 . S
C1031 C1030 1.502 . S
C1032 H1018 0.960 . S
C1032 H1019 0.961 . S
C1032 H1020 0.959 . S
C1032 C1030 1.561 . S
C1033 C1030 1.526 . S
C1033 C1034 1.396 . S
C1033 C1038 1.390 . S
C1034 C1028 1.465 . S
C1034 C1033 1.396 . S
C1034 C1035 1.399 . S
C1035 H1021 0.929 . S
C1035 C1034 1.399 . S
C1035 C1036 1.385 . S
C1036 H1022 0.931 . S
C1036 C1035 1.385 . S
C1036 C1037 1.389 . S
C1037 C1036 1.389 . S
C1037 C1038 1.387 . S
C1038 H1023 0.930 . S
C1038 C1033 1.390 . S
C1038 C1037 1.387 . S
H1039 C1051 0.930 . S
H1040 C1053 0.930 . S
H1041 C1054 0.930 . S
H1042 C1058 0.959 . S
H1043 C1058 0.959 . S
H1044 C1058 0.961 . S
H1045 C1059 0.960 . S
H1046 C1059 0.961 . S
H1047 C1059 0.959 . S
H1048 C1062 0.929 . S
H1049 C1063 0.931 . S
H1050 C1065 0.930 . S
C1051 H1039 0.930 . S
C1051 C1052 1.399 . S
C1051 C1056 1.399 . S
C1052 C1051 1.399 . S
C1052 C1053 1.376 . S
C1053 H1040 0.930 . S
C1053 C1052 1.376 . S
C1053 C1054 1.388 . S
C1054 H1041 0.930 . S
C1054 C1053 1.388 . S
C1054 C1055 1.390 . S
C1055 C1054 1.390 . S
C1055 C1056 1.394 . S
C1055 C1061 1.465 . S
C1056 C1051 1.399 . S
C1056 C1055 1.394 . S
C1056 C1057 1.516 . S
C1057 C1056 1.516 . S
C1057 C1058 1.502 . S
C1057 C1059 1.561 . S
C1057 C1060 1.526 . S
C1058 H1042 0.959 . S
C1058 H1043 0.959 . S
C1058 H1044 0.961 . S
C1058 C1057 1.502 . S
C1059 H1045 0.960 . S
C1059 H1046 0.961 . S
C1059 H1047 0.959 . S
C1059 C1057 1.561 . S
C1060 C1057 1.526 . S
C1060 C1061 1.396 . S
C1060 C1065 1.390 . S
C1061 C1055 1.465 . S
C1061 C1060 1.396 . S
C1061 C1062 1.399 . S
C1062 H1048 0.929 . S
C1062 C1061 1.399 . S
C1062 C1063 1.385 . S
C1063 H1049 0.931 . S
C1063 C1062 1.385 . S
C1063 C1064 1.389 . S
C1064 C1063 1.389 . S
C1064 C1065 1.387 . S
C1065 H1050 0.930 . S
C1065 C1060 1.390 . S
C1065 C1064 1.387 . S
H1066 C1078 0.930 . S
H1067 C1080 0.930 . S
H1068 C1081 0.930 . S
H1069 C1085 0.959 . S
H1070 C1085 0.959 . S
H1071 C1085 0.961 . S
H1072 C1086 0.960 . S
H1073 C1086 0.961 . S
H1074 C1086 0.959 . S
H1075 C1089 0.929 . S
H1076 C1090 0.931 . S
H1077 C1092 0.930 . S
C1078 H1066 0.930 . S
C1078 C1079 1.399 . S
C1078 C1083 1.399 . S
C1079 C1078 1.399 . S
C1079 C1080 1.376 . S
C1080 H1067 0.930 . S
C1080 C1079 1.376 . S
C1080 C1081 1.388 . S
C1081 H1068 0.930 . S
C1081 C1080 1.388 . S
C1081 C1082 1.390 . S
C1082 C1081 1.390 . S
C1082 C1083 1.394 . S
C1082 C1088 1.465 . S
C1083 C1078 1.399 . S
C1083 C1082 1.394 . S
C1083 C1084 1.516 . S
C1084 C1083 1.516 . S
C1084 C1085 1.502 . S
C1084 C1086 1.561 . S
C1084 C1087 1.526 . S
C1085 H1069 0.959 . S
C1085 H1070 0.959 . S
C1085 H1071 0.961 . S
C1085 C1084 1.502 . S
C1086 H1072 0.960 . S
C1086 H1073 0.961 . S
C1086 H1074 0.959 . S
C1086 C1084 1.561 . S
C1087 C1084 1.526 . S
C1087 C1088 1.396 . S
C1087 C1092 1.390 . S
C1088 C1082 1.465 . S
C1088 C1087 1.396 . S
C1088 C1089 1.399 . S
C1089 H1075 0.929 . S
C1089 C1088 1.399 . S
C1089 C1090 1.385 . S
C1090 H1076 0.931 . S
C1090 C1089 1.385 . S
C1090 C1091 1.389 . S
C1091 C1090 1.389 . S
C1091 C1092 1.387 . S
C1092 H1077 0.930 . S
C1092 C1087 1.390 . S
C1092 C1091 1.387 . S
H1093 C1105 0.930 . S
H1094 C1107 0.930 . S
H1095 C1108 0.930 . S
H1096 C1112 0.959 . S
H1097 C1112 0.959 . S
H1098 C1112 0.961 . S
H1099 C1113 0.960 . S
H1100 C1113 0.961 . S
H1101 C1113 0.959 . S
H1102 C1116 0.929 . S
H1103 C1117 0.931 . S
H1104 C1119 0.930 . S
C1105 H1093 0.930 . S
C1105 C1106 1.399 . S
C1105 C1110 1.399 . S
C1106 C1105 1.399 . S
C1106 C1107 1.376 . S
C1107 H1094 0.930 . S
C1107 C1106 1.376 . S
C1107 C1108 1.388 . S
C1108 H1095 0.930 . S
C1108 C1107 1.388 . S
C1108 C1109 1.390 . S
C1109 C1108 1.390 . S
C1109 C1110 1.394 . S
C1109 C1115 1.465 . S
C1110 C1105 1.399 . S
C1110 C1109 1.394 . S
C1110 C1111 1.516 . S
C1111 C1110 1.516 . S
C1111 C1112 1.502 . S
C1111 C1113 1.561 . S
C1111 C1114 1.526 . S
C1112 H1096 0.959 . S
C1112 H1097 0.959 . S
C1112 H1098 0.961 . S
C1112 C1111 1.502 . S
C1113 H1099 0.960 . S
C1113 H1100 0.961 . S
C1113 H1101 0.959 . S
C1113 C1111 1.561 . S
C1114 C1111 1.526 . S
C1114 C1115 1.396 . S
C1114 C1119 1.390 . S
C1115 C1109 1.465 . S
C1115 C1114 1.396 . S
C1115 C1116 1.399 . S
C1116 H1102 0.929 . S
C1116 C1115 1.399 . S
C1116 C1117 1.385 . S
C1117 H1103 0.931 . S
C1117 C1116 1.385 . S
C1117 C1118 1.389 . S
C1118 C1117 1.389 . S
C1118 C1119 1.387 . S
C1119 H1104 0.930 . S
C1119 C1114 1.390 . S
C1119 C1118 1.387 . S
C485 C1 1.152 . S
C497 C329 1.277 . S
C512 C40 1.262 . S
C524 C369 1.210 . S
C551 C394 2.393 . S
C539 C99 2.431 . S
C566 C118 2.423 . S
C578 C434 2.342 . S
C605 C365 1.817 . S
C593 C16 1.764 . S
C632 C325 1.821 . S
C620 C60 1.765 . S
C659 C456 1.672 . S
C647 C79 1.692 . S
C686 C416 1.639 . S
C674 C138 1.649 . S
C701 C21 1.372 . S
C713 C458 1.396 . S
C740 C375 2.129 . S
C728 C94 2.198 . S
C755 C133 2.171 . S
C767 C335 2.108 . S
C782 C55 1.318 . S
C794 C418 1.435 . S
C821 C338 1.280 . S
C809 C157 1.164 . S
C836 C196 1.211 . S
C848 C378 1.254 . S
C863 C255 2.424 . S
C875 C415 2.386 . S
C890 C289 2.419 . S
C902 C455 2.369 . S
C917 C172 1.706 . S
C929 C376 1.821 . S
C956 C336 1.828 . S
C944 C216 1.698 . S
C983 C445 1.685 . S
C971 C235 1.707 . S
C1010 C405 1.655 . S
C998 C294 1.670 . S
C1025 C177 1.361 . S
C1037 C449 1.389 . S
C1064 C354 2.130 . S
C1052 C250 2.197 . S
C1091 C314 2.119 . S
C1079 C274 2.161 . S
C1106 C211 1.416 . S
C1118 C409 1.374 . S
