# Generated by pormake.
# Topology anh, (6,3)-cn, num edge types: 1
# Building blocks:
#     Node 0, Type 0, BuildingBlock: HISSIN_clean_sbu_0, # of connection points: 6
#     Node 1, Type 0, BuildingBlock: HISSIN_clean_sbu_0, # of connection points: 6
#     Node 2, Type 0, BuildingBlock: HISSIN_clean_sbu_0, # of connection points: 6
#     Node 3, Type 1, BuildingBlock: PAMTOO_clean_linker_0, # of connection points: 3
#     Node 4, Type 1, BuildingBlock: PAMTOO_clean_linker_0, # of connection points: 3
#     Node 5, Type 1, BuildingBlock: PAMTOO_clean_linker_0, # of connection points: 3
#     Node 6, Type 1, BuildingBlock: PAMTOO_clean_linker_0, # of connection points: 3
#     Node 7, Type 1, BuildingBlock: PAMTOO_clean_linker_0, # of connection points: 3
#     Node 8, Type 1, BuildingBlock: PAMTOO_clean_linker_0, # of connection points: 3
#     Edge 9, Type (0, 1), BuildingBlock: AJUNOK_clean_linker_0, # of connection points: 2
#     Edge 10, Type (0, 1), BuildingBlock: AJUNOK_clean_linker_0, # of connection points: 2
#     Edge 11, Type (0, 1), BuildingBlock: AJUNOK_clean_linker_0, # of connection points: 2
#     Edge 12, Type (0, 1), BuildingBlock: AJUNOK_clean_linker_0, # of connection points: 2
#     Edge 13, Type (0, 1), BuildingBlock: AJUNOK_clean_linker_0, # of connection points: 2
#     Edge 14, Type (0, 1), BuildingBlock: AJUNOK_clean_linker_0, # of connection points: 2
#     Edge 15, Type (0, 1), BuildingBlock: AJUNOK_clean_linker_0, # of connection points: 2
#     Edge 16, Type (0, 1), BuildingBlock: AJUNOK_clean_linker_0, # of connection points: 2
#     Edge 17, Type (0, 1), BuildingBlock: AJUNOK_clean_linker_0, # of connection points: 2
#     Edge 18, Type (0, 1), BuildingBlock: AJUNOK_clean_linker_0, # of connection points: 2
#     Edge 19, Type (0, 1), BuildingBlock: AJUNOK_clean_linker_0, # of connection points: 2
#     Edge 20, Type (0, 1), BuildingBlock: AJUNOK_clean_linker_0, # of connection points: 2
#     Edge 21, Type (0, 1), BuildingBlock: AJUNOK_clean_linker_0, # of connection points: 2
#     Edge 22, Type (0, 1), BuildingBlock: AJUNOK_clean_linker_0, # of connection points: 2
#     Edge 23, Type (0, 1), BuildingBlock: AJUNOK_clean_linker_0, # of connection points: 2
#     Edge 24, Type (0, 1), BuildingBlock: AJUNOK_clean_linker_0, # of connection points: 2
#     Edge 25, Type (0, 1), BuildingBlock: AJUNOK_clean_linker_0, # of connection points: 2
#     Edge 26, Type (0, 1), BuildingBlock: AJUNOK_clean_linker_0, # of connection points: 2
# Relax obj value: 0.371
# Max RMSD: 0.160
# Mean RMSD: 0.124
data_MOF--net-anh--node1-HISSIN_clean_sbu_0--node2-PAMTOO_clean_linker_0--edge1-AJUNOK_clean_linker_0
_symmetry_space_group_name_H-M    P1
_symmetry_Int_Tables_number       1
_symmetry_cell_setting            triclinic
loop_
_symmetry_equiv_pos_as_xyz
'x, y, z'
_cell_length_a     21.955439
_cell_length_b     21.958526
_cell_length_c     37.613448
_cell_angle_alpha  88.508414
_cell_angle_beta   92.135437
_cell_angle_gamma 119.56024
loop_
_atom_site_label
_atom_site_type_symbol
_atom_site_fract_x
_atom_site_fract_y
_atom_site_fract_z
_atom_type_partial_charge
Eu0 Eu 1.17278 0.60136 0.12137 0.0
Eu1 Eu 0.24666 0.75959 0.15142 0.0
C2 C 1.17129 0.62992 0.20627 0.0
C3 C 1.04497 0.411 0.09498 0.0
C4 C 0.99506 0.4013 0.11985 0.0
C5 C 0.98834 0.28607 0.08582 0.0
C6 C 0.94408 0.33372 0.12906 0.0
C7 C 1.0393 0.35372 0.0766 0.0
C8 C 0.94338 0.27574 0.11367 0.0
C9 C 1.10905 0.47794 0.09234 0.0
O10 O 0.33573 0.73145 0.14977 0.0
O11 O 0.28598 0.62809 0.11948 0.0
C12 C 0.34139 0.68152 0.1337 0.0
O13 O 0.24132 0.67064 0.0776 0.0
O14 O 0.29762 0.82982 0.1962 0.0
O15 O 0.29819 0.87339 0.144 0.0
O16 O 0.24955 0.77416 0.09245 0.0
C17 C 0.2601 0.73598 0.07018 0.0
O18 O 1.08503 0.62955 0.11934 0.0
O19 O 1.13526 0.74145 0.1412 0.0
O20 O 1.18587 0.69374 0.19756 0.0
O21 O 1.10279 0.53083 0.08021 0.0
O22 O 1.15207 0.49411 0.11986 0.0
O23 O 1.17041 0.58685 0.1821 0.0
C24 C 0.40561 0.91537 0.1762 0.0
C25 C 0.44314 0.94052 0.20844 0.0
C26 C 0.49944 0.89859 0.15488 0.0
C27 C 0.50662 0.94102 0.21453 0.0
C28 C 0.43666 0.89897 0.14867 0.0
C29 C 0.53299 0.91582 0.18855 0.0
C30 C 0.3289 0.88441 0.17541 0.0
C31 C 1.08022 0.68503 0.12798 0.0
H32 H 0.99909 0.44541 0.13417 0.0
H33 H 0.98819 0.24187 0.07357 0.0
H34 H 0.91004 0.3268 0.15076 0.0
H35 H 1.07763 0.36092 0.05719 0.0
H36 H 0.42002 0.95279 0.23014 0.0
H37 H 0.51754 0.87797 0.13444 0.0
H38 H 0.53213 0.9557 0.24055 0.0
H39 H 0.40868 0.87852 0.12361 0.0
Eu40 Eu 0.72633 1.06858 0.46492 0.0
Eu41 Eu 0.65449 0.16431 0.46861 0.0
C42 C 0.70861 1.11979 0.54216 0.0
C43 C 0.77768 0.93053 0.44035 0.0
C44 C 0.73278 0.86874 0.45858 0.0
C45 C 0.82883 0.86979 0.4115 0.0
C46 C 0.74099 0.81009 0.45592 0.0
C47 C 0.82147 0.929 0.41462 0.0
C48 C 0.79416 0.81285 0.43499 0.0
C49 C 0.79017 0.99861 0.4528 0.0
O50 O 0.7714 0.24801 0.47097 0.0
O51 O 0.8137 0.17993 0.45027 0.0
C52 C 0.82345 0.24264 0.45782 0.0
O53 O 0.65456 1.04833 0.4181 0.0
O54 O 0.61252 0.22151 0.49599 0.0
O55 O 0.61013 0.22091 0.43866 0.0
O56 O 0.68761 0.16143 0.41239 0.0
C57 C 0.66653 1.10091 0.39751 0.0
O58 O 0.61121 0.98302 0.46949 0.0
O59 O 0.55831 1.05145 0.46628 0.0
O60 O 0.67492 0.14964 0.527 0.0
O61 O 0.78486 1.04061 0.42934 0.0
O62 O 0.76589 1.00027 0.48377 0.0
O63 O 0.7348 1.08859 0.52381 0.0
C64 C 0.65708 0.3301 0.46761 0.0
C65 C 0.6576 0.36822 0.49713 0.0
C66 C 0.7772 0.41879 0.45637 0.0
C67 C 0.71938 0.4282 0.50772 0.0
C68 C 0.71554 0.35939 0.44565 0.0
C69 C 0.78139 0.44993 0.48916 0.0
C70 C 0.60939 0.25367 0.46696 0.0
C71 C 0.55369 0.98854 0.46755 0.0
H72 H 0.69702 0.86803 0.47788 0.0
H73 H 0.86893 0.8726 0.39449 0.0
H74 H 0.7128 0.76714 0.47429 0.0
H75 H 0.85545 0.97586 0.3997 0.0
H76 H 0.613 0.3473 0.51428 0.0
H77 H 0.82345 0.43526 0.44087 0.0
H78 H 0.72015 0.45368 0.53214 0.0
H79 H 0.71688 0.33193 0.42244 0.0
Eu80 Eu 0.67582 0.62511 0.79679 0.0
Eu81 Eu 0.83971 0.69568 0.80906 0.0
C82 C 0.74469 0.66725 0.87537 0.0
C83 C 0.51992 0.64092 0.79223 0.0
C84 C 0.55316 0.70491 0.77344 0.0
C85 C 0.48236 0.69565 0.83516 0.0
C86 C 0.55599 0.76473 0.78705 0.0
C87 C 0.48014 0.6357 0.82171 0.0
C88 C 0.52481 0.76173 0.81948 0.0
C89 C 0.54471 0.58985 0.78832 0.0
O90 O 0.80347 0.57738 0.81404 0.0
O91 O 0.69134 0.52986 0.79054 0.0
C92 C 0.74564 0.52261 0.8013 0.0
O93 O 0.72543 0.65604 0.74209 0.0
O94 O 0.93164 0.71221 0.84067 0.0
O95 O 0.94322 0.77279 0.79206 0.0
O96 O 0.82028 0.64451 0.75699 0.0
C97 C 0.77921 0.64968 0.73288 0.0
O98 O 0.71225 0.74185 0.80469 0.0
O99 O 0.82175 0.78299 0.78466 0.0
O100 O 0.80005 0.71457 0.85923 0.0
O101 O 0.58496 0.60013 0.76158 0.0
O102 O 0.57012 0.57686 0.81759 0.0
O103 O 0.69429 0.61661 0.85659 0.0
C104 C 1.0338 0.74699 0.80714 0.0
C105 C 1.06944 0.77754 0.77557 0.0
C106 C 1.12765 0.72539 0.82665 0.0
C107 C 1.13585 0.7858 0.77072 0.0
C108 C 1.06146 0.717 0.83147 0.0
C109 C 1.16761 0.76481 0.79768 0.0
C110 C 0.97477 0.75614 0.81736 0.0
C111 C 0.76971 0.79414 0.79175 0.0
H112 H 0.58411 0.7111 0.75047 0.0
H113 H 0.45597 0.69122 0.85966 0.0
H114 H 0.58915 0.81422 0.77402 0.0
H115 H 0.45366 0.58704 0.8366 0.0
H116 H 1.04883 0.80023 0.756 0.0
H117 H 1.1506 0.70842 0.84794 0.0
H118 H 1.16521 0.81525 0.74787 0.0
H119 H 1.0349 0.69249 0.85583 0.0
H120 H 0.79073 1.12636 0.24131 0.0
H121 H 0.74322 0.93811 0.30024 0.0
H122 H 0.85514 0.98409 0.20343 0.0
H123 H 0.71827 0.78611 0.24835 0.0
C124 C 0.74137 0.83454 0.23177 0.0
O125 O 0.79174 0.88943 0.25227 0.0
H126 H 0.76739 0.82512 0.20948 0.0
C127 C 0.79369 1.07865 0.24452 0.0
C128 C 0.82611 1.06026 0.21876 0.0
C129 C 0.76464 1.03577 0.27429 0.0
C130 C 0.76717 0.97313 0.2779 0.0
C131 C 0.79939 0.95454 0.25213 0.0
C132 C 0.83144 0.99961 0.22348 0.0
H133 H 0.82883 0.69188 0.56376 0.0
H134 H 0.98719 0.66422 0.62118 0.0
H135 H 1.01388 0.72615 0.51136 0.0
H136 H 1.07417 0.59862 0.57519 0.0
C137 C 1.06087 0.62415 0.5527 0.0
O138 O 1.06317 0.68461 0.56492 0.0
H139 H 1.10232 0.63945 0.53285 0.0
C140 C 0.87763 0.69068 0.56437 0.0
C141 C 0.91653 0.7067 0.53337 0.0
C142 C 0.90375 0.67785 0.59656 0.0
C143 C 0.96772 0.67746 0.597 0.0
C144 C 1.00658 0.69373 0.56609 0.0
C145 C 0.98284 0.71241 0.53499 0.0
H146 H 0.3299 0.80598 0.91235 0.0
H147 H 0.51611 0.95453 0.96961 0.0
H148 H 0.48945 0.98445 0.85808 0.0
H149 H 0.66141 1.01439 0.92752 0.0
C150 C 0.63417 1.0182 0.90277 0.0
O151 O 0.57837 1.02734 0.9119 0.0
H152 H 0.67256 1.06563 0.88821 0.0
C153 C 0.38126 0.85243 0.91263 0.0
C154 C 0.40717 0.89036 0.88104 0.0
C155 C 0.41876 0.8763 0.94493 0.0
C156 C 0.48501 0.93693 0.94515 0.0
C157 C 0.51136 0.97444 0.9134 0.0
C158 C 0.47019 0.95352 0.88208 0.0
H159 H 1.04813 0.47518 0.36 0.0
H160 H 0.24398 0.66713 0.37048 0.0
H161 H 1.13732 0.55421 0.46452 0.0
H162 H 0.23114 0.73681 0.46527 0.0
C163 C 0.26558 0.73866 0.44386 0.0
O164 O 0.25363 0.67009 0.43935 0.0
H165 H 0.24868 0.75582 0.41915 0.0
C166 C 1.08986 0.51343 0.3769 0.0
C167 C 1.08523 0.50429 0.41434 0.0
C168 C 1.14614 0.5719 0.36078 0.0
C169 C 1.19971 0.62291 0.38261 0.0
C170 C 1.19743 0.61881 0.4199 0.0
C171 C 1.1392 0.5591 0.43582 0.0
H172 H 0.75263 1.02021 0.69728 0.0
H173 H 0.74143 0.20927 0.70712 0.0
H174 H 0.77794 1.11249 0.80046 0.0
H175 H 0.70698 0.21644 0.81553 0.0
C176 C 0.71694 0.23645 0.78772 0.0
O177 O 0.77034 0.22618 0.77475 0.0
H178 H 0.66755 0.20373 0.77219 0.0
C179 C 0.75357 1.06027 0.71382 0.0
C180 C 0.76571 1.05767 0.75084 0.0
C181 C 0.74355 1.11355 0.69761 0.0
C182 C 0.74768 0.16722 0.71911 0.0
C183 C 0.76 0.16817 0.75607 0.0
C184 C 0.76781 1.11216 0.77206 0.0
H185 H 0.844 0.67448 0.03369 0.0
H186 H 0.64456 0.66592 0.03829 0.0
H187 H 0.76082 0.67727 0.13543 0.0
H188 H 0.6459 0.75946 0.09168 0.0
C189 C 0.62849 0.72208 0.11455 0.0
O190 O 0.63991 0.66618 0.10768 0.0
H191 H 0.66216 0.75077 0.13789 0.0
C192 C 0.80332 0.6741 0.04935 0.0
C193 C 0.81105 0.67632 0.08671 0.0
C194 C 0.74446 0.67147 0.03161 0.0
C195 C 0.69053 0.6691 0.05175 0.0
C196 C 0.69575 0.67219 0.08918 0.0
C197 C 0.75683 0.67639 0.10665 0.0
C198 C 0.46742 0.72103 0.15519 0.0
C199 C 0.41253 0.68647 0.12981 0.0
C200 C 0.53436 0.72734 0.15123 0.0
C201 C 0.55114 0.70099 0.12139 0.0
H202 H 0.45872 0.74356 0.17842 0.0
H203 H 0.57402 0.75451 0.17156 0.0
S204 S 0.42712 0.60627 0.04679 0.0
N205 N 0.38016 0.62398 0.07366 0.0
N206 N 0.50579 0.6387 0.06592 0.0
C207 C 0.49659 0.66571 0.09601 0.0
C208 C 0.42783 0.65784 0.1003 0.0
C209 C 0.91447 0.37494 0.46412 0.0
C210 C 0.89348 0.30852 0.44914 0.0
C211 C 0.97766 0.4368 0.45457 0.0
C212 C 1.0234 0.43652 0.42912 0.0
H213 H 0.88155 0.37943 0.4834 0.0
H214 H 0.98984 0.48583 0.4664 0.0
S215 S 0.99779 0.2764 0.38386 0.0
N216 N 0.92838 0.24732 0.40878 0.0
N217 N 1.04446 0.3613 0.39126 0.0
C218 C 1.00428 0.37001 0.41501 0.0
C219 C 0.9406 0.30718 0.42485 0.0
C220 C 0.73303 0.88744 0.80141 0.0
C221 C 0.77466 0.86529 0.78381 0.0
C222 C 0.73424 0.95169 0.7927 0.0
C223 C 0.77564 0.99688 0.76537 0.0
H224 H 0.69855 0.85452 0.82204 0.0
H225 H 0.70074 0.9651 0.80671 0.0
S226 S 0.90109 0.96893 0.71373 0.0
N227 N 0.86401 0.89894 0.73971 0.0
N228 N 0.86524 1.01702 0.72332 0.0
C229 C 0.82008 0.97694 0.74886 0.0
C230 C 0.81977 0.9123 0.75801 0.0
C231 C 0.95516 0.62592 0.10225 0.0
C232 C 1.00985 0.68261 0.12114 0.0
C233 C 0.89055 0.62293 0.09322 0.0
C234 C 0.87559 0.67584 0.1029 0.0
H235 H 0.96269 0.58367 0.0933 0.0
H236 H 0.85225 0.57918 0.07755 0.0
S237 S 0.99759 0.83455 0.15409 0.0
N238 N 1.04203 0.79244 0.15039 0.0
N239 N 0.921 0.78617 0.13365 0.0
C240 C 0.9284 0.73172 0.12285 0.0
C241 C 0.99499 0.73529 0.13183 0.0
C242 C 0.42005 0.91968 0.47423 0.0
C243 C 0.482 0.9219 0.46339 0.0
C244 C 0.35284 0.85954 0.46929 0.0
C245 C 0.34245 0.79743 0.45294 0.0
H246 H 0.42327 0.96523 0.48656 0.0
H247 H 0.30771 0.86245 0.47771 0.0
S248 S 0.48614 0.77626 0.41683 0.0
N249 N 0.52727 0.85554 0.43406 0.0
N250 N 0.40199 0.74488 0.42399 0.0
C251 C 0.40382 0.79915 0.4414 0.0
C252 C 0.47276 0.86019 0.44696 0.0
C253 C 0.68538 0.39631 0.77862 0.0
C254 C 0.74239 0.45157 0.79713 0.0
C255 C 0.68025 0.32985 0.77414 0.0
C256 C 0.73187 0.31384 0.78765 0.0
H257 H 0.64341 0.40401 0.76757 0.0
H258 H 0.63391 0.28971 0.76057 0.0
S259 S 0.89247 0.43833 0.83832 0.0
N260 N 0.85277 0.4843 0.82887 0.0
N261 N 0.8422 0.36015 0.82087 0.0
C262 C 0.78952 0.36852 0.80596 0.0
C263 C 0.79505 0.43667 0.81046 0.0
C264 C 0.90114 0.81191 0.45708 0.0
C265 C 0.82926 0.77311 0.44761 0.0
C266 C 0.93086 0.78714 0.48295 0.0
C267 C 0.88985 0.72272 0.50002 0.0
H268 H 0.93305 0.86525 0.44776 0.0
H269 H 0.9844 0.82155 0.49195 0.0
S270 S 0.70637 0.59162 0.47662 0.0
N271 N 0.7229 0.66008 0.451 0.0
N272 N 0.77926 0.61347 0.50009 0.0
C273 C 0.8211 0.67912 0.48723 0.0
C274 C 0.79078 0.70422 0.4607 0.0
C275 C 0.276 0.76224 0.81622 0.0
C276 C 0.24466 0.80062 0.80239 0.0
C277 C 0.33524 0.79403 0.83884 0.0
C278 C 0.36481 0.86501 0.84784 0.0
H279 H 0.24942 0.70585 0.81339 0.0
H280 H 0.35354 0.76146 0.85218 0.0
S281 S 0.31523 0.99223 0.80991 0.0
N282 N 0.25749 0.91642 0.79245 0.0
N283 N 0.36874 0.97583 0.83506 0.0
C284 C 0.34141 0.90617 0.82936 0.0
C285 C 0.28126 0.87392 0.80629 0.0
C286 C 0.58026 0.85766 0.22998 0.0
C287 C 0.58715 0.89613 0.19839 0.0
C288 C 0.6281 0.83512 0.23966 0.0
C289 C 0.68357 0.84836 0.21762 0.0
H290 H 0.53724 0.84454 0.24742 0.0
H291 H 0.62256 0.80835 0.26494 0.0
S292 S 0.72288 0.94302 0.13102 0.0
N293 N 0.65364 0.94559 0.14478 0.0
N294 N 0.74103 0.89907 0.16191 0.0
C295 C 0.68975 0.88444 0.18528 0.0
C296 C 0.64212 0.90917 0.17589 0.0
C297 C 0.90646 0.54614 0.48581 0.0
C298 C 0.85136 0.49557 0.50614 0.0
C299 C 0.97474 0.5838 0.50024 0.0
C300 C 0.99027 0.57334 0.53573 0.0
H301 H 0.89687 0.55654 0.45847 0.0
H302 H 1.01541 0.62303 0.48386 0.0
S303 S 0.86603 0.44635 0.60011 0.0
N304 N 0.8183 0.43487 0.56334 0.0
N305 N 0.94571 0.50914 0.59085 0.0
C306 C 0.93596 0.52314 0.55635 0.0
C307 C 0.86674 0.48377 0.54155 0.0
C308 C 0.56663 0.82822 0.87644 0.0
C309 C 0.54791 0.82704 0.84008 0.0
C310 C 0.59674 0.89024 0.89595 0.0
C311 C 0.61118 0.95414 0.87977 0.0
H312 H 0.55943 0.78106 0.88995 0.0
H313 H 0.60837 0.88815 0.92405 0.0
S314 S 0.57013 0.98034 0.78604 0.0
N315 N 0.54209 0.89548 0.78939 0.0
N316 N 0.6041 1.01311 0.82557 0.0
C317 C 0.59332 0.95422 0.84351 0.0
C318 C 0.56021 0.89051 0.82385 0.0
C319 C 0.83843 0.17869 0.14168 0.0
C320 C 0.90897 0.20832 0.13275 0.0
C321 C 0.81052 1.12701 0.16811 0.0
C322 C 0.85265 1.10428 0.18666 0.0
H323 H 0.80599 0.19856 0.12966 0.0
H324 H 0.75657 1.10715 0.1753 0.0
S325 S 1.03908 0.16205 0.1712 0.0
N326 N 1.01895 0.20788 0.14245 0.0
N327 N 0.96653 1.11137 0.1926 0.0
C328 C 0.92178 1.12994 0.17623 0.0
C329 C 0.95 0.182 0.14911 0.0
C330 C 0.33281 0.84326 0.03382 0.0
C331 C 0.30089 0.76994 0.03795 0.0
C332 C 0.37415 0.87769 0.00457 0.0
C333 C 0.38497 0.8402 -0.02176 0.0
H334 H 0.32589 0.87469 0.05328 0.0
H335 H 0.39582 0.93382 0.00192 0.0
S336 S 0.31731 0.64866 0.97696 0.0
N337 N 0.28589 0.66148 0.01349 0.0
N338 N 0.36377 0.72677 0.95857 0.0
C339 C 0.35503 0.76732 -0.01772 0.0
C340 C 0.31297 0.73207 0.0121 0.0
C341 C 0.74441 0.14241 0.34582 0.0
C342 C 0.6801 1.09396 0.3604 0.0
C343 C 0.77007 1.12425 0.3167 0.0
C344 C 0.73226 1.05716 0.30155 0.0
H345 H 0.77777 0.192 0.3588 0.0
H346 H 0.82178 0.16128 0.30748 0.0
S347 S 0.55563 0.91694 0.32635 0.0
N348 N 0.57508 0.98034 0.35484 0.0
N349 N 0.62333 0.94636 0.30015 0.0
C350 C 0.66533 1.01088 0.31404 0.0
C351 C 0.63912 1.02944 0.3434 0.0
C352 C 0.87615 0.70769 0.69154 0.0
C353 C 0.8044 0.66149 0.69632 0.0
C354 C 0.90716 0.71251 0.65915 0.0
C355 C 0.86775 0.67113 0.63017 0.0
H356 H 0.90922 0.73934 0.71344 0.0
H357 H 0.96271 0.74875 0.65688 0.0
S358 S 0.67747 0.54255 0.62873 0.0
N359 N 0.69412 0.57457 0.66944 0.0
N360 N 0.75257 0.58316 0.60796 0.0
C361 C 0.79529 0.62605 0.63414 0.0
C362 C 0.76352 0.62138 0.66739 0.0
C363 C 0.7557 0.17987 0.601 0.0
C364 C 0.71474 1.11816 0.58163 0.0
C365 C 0.76438 0.17803 0.6383 0.0
C366 C 0.73136 1.11451 0.65788 0.0
H367 H 0.78263 0.22971 0.58714 0.0
H368 H 0.7985 0.2268 0.65176 0.0
S369 S 0.61159 0.93939 0.61923 0.0
N370 N 0.63803 0.99262 0.5844 0.0
N371 N 0.65033 0.98903 0.65429 0.0
C372 C 0.688 1.05282 0.63855 0.0
C373 C 0.68069 1.0547 0.60057 0.0
C374 C 0.68591 0.61849 0.93446 0.0
C375 C 0.74206 0.67092 0.91512 0.0
C376 C 0.68552 0.61982 0.97203 0.0
C377 C 0.74136 0.67314 -0.00824 0.0
H378 H 0.64263 0.57556 0.92059 0.0
H379 H 0.64206 0.57758 -0.0142 0.0
S380 S 0.89765 0.82606 0.95461 0.0
N381 N 0.85292 0.78057 0.9194 0.0
N382 N 0.85154 0.78194 -0.0108 0.0
C383 C 0.79644 0.72682 0.97281 0.0
C384 C 0.79683 0.7259 0.9348 0.0
C385 C 1.16809 0.66111 0.26987 0.0
C386 C 1.15969 0.60991 0.24511 0.0
C387 C 1.16284 0.64774 0.30666 0.0
C388 C 1.14842 0.58235 0.321 0.0
H389 H 1.18003 0.71298 0.26096 0.0
H390 H 1.17026 0.68951 0.32415 0.0
S391 S 1.12011 0.4289 0.26863 0.0
N392 N 1.13476 0.48988 0.23818 0.0
N393 N 1.12473 0.46487 0.30741 0.0
C394 C 1.13835 0.52984 0.29678 0.0
C395 C 1.14415 0.54366 0.259 0.0
loop_
_geom_bond_atom_site_label_1
_geom_bond_atom_site_label_2
_geom_bond_distance
_geom_bond_site_symmetry_2
_ccdc_geom_bond_type
Eu0 C9 2.828 . S
Eu0 O11 2.392 1_655 S
Eu0 O13 2.418 . S
Eu0 O18 2.373 . S
Eu0 O21 2.488 . S
Eu0 O22 2.471 . S
Eu0 O23 2.349 . S
Eu1 O10 2.373 . S
Eu1 O14 2.488 . S
Eu1 O15 2.471 . S
Eu1 O16 2.349 . S
Eu1 O19 2.392 1_455 S
Eu1 O20 2.418 . S
Eu1 C30 2.828 . S
C2 O20 1.244 . S
C2 O23 1.265 1_455 S
C3 C4 1.379 . S
C3 C7 1.373 . S
C3 C9 1.505 . S
C4 C3 1.379 . S
C4 C6 1.369 . S
C4 H32 0.930 . S
C5 C7 1.383 . S
C5 C8 1.382 . S
C5 H33 0.930 . S
C6 C4 1.369 . S
C6 C8 1.392 . S
C6 H34 0.930 . S
C7 C3 1.373 . S
C7 C5 1.383 . S
C7 H35 0.931 . S
C8 C5 1.382 . S
C8 C6 1.392 . S
C9 Eu0 2.828 . S
C9 C3 1.505 . S
C9 O21 1.249 . S
C9 O22 1.244 . S
O10 Eu1 2.373 . S
O10 C12 1.258 . S
O11 Eu0 2.392 1_455 S
O11 C12 1.242 . S
C12 O10 1.258 . S
C12 O11 1.242 . S
O13 Eu0 2.418 . S
O13 C17 1.244 1_655 S
O14 Eu1 2.488 . S
O14 C30 1.249 . S
O15 Eu1 2.471 . S
O15 C30 1.244 . S
O16 Eu1 2.349 . S
O16 C17 1.265 . S
C17 O13 1.244 1_455 S
C17 O16 1.265 . S
O18 Eu0 2.373 . S
O18 C31 1.258 . S
O19 Eu1 2.392 1_655 S
O19 C31 1.242 . S
O20 Eu1 2.418 . S
O20 C2 1.244 . S
O21 Eu0 2.488 . S
O21 C9 1.249 . S
O22 Eu0 2.471 . S
O22 C9 1.244 . S
O23 Eu0 2.349 . S
O23 C2 1.265 1_655 S
C24 C25 1.379 . S
C24 C28 1.373 . S
C24 C30 1.505 . S
C25 C24 1.379 . S
C25 C27 1.369 . S
C25 H36 0.930 . S
C26 C28 1.383 . S
C26 C29 1.382 . S
C26 H37 0.930 . S
C27 C25 1.369 . S
C27 C29 1.392 . S
C27 H38 0.930 . S
C28 C24 1.373 . S
C28 C26 1.383 . S
C28 H39 0.931 . S
C29 C26 1.382 . S
C29 C27 1.392 . S
C30 Eu1 2.828 . S
C30 O14 1.249 . S
C30 O15 1.244 . S
C30 C24 1.505 . S
C31 O18 1.258 . S
C31 O19 1.242 . S
H32 C4 0.930 . S
H33 C5 0.930 . S
H34 C6 0.930 . S
H35 C7 0.931 . S
H36 C25 0.930 . S
H37 C26 0.930 . S
H38 C27 0.930 . S
H39 C28 0.931 . S
Eu40 C49 2.828 . S
Eu40 O51 2.392 1_565 S
Eu40 O53 2.418 . S
Eu40 O58 2.373 . S
Eu40 O61 2.488 . S
Eu40 O62 2.471 . S
Eu40 O63 2.349 1_565 S
Eu41 O50 2.373 . S
Eu41 O54 2.488 . S
Eu41 O55 2.471 . S
Eu41 O56 2.349 . S
Eu41 O59 2.392 1_545 S
Eu41 O60 2.418 . S
Eu41 C70 2.828 . S
C42 O60 1.244 . S
C42 O63 1.265 . S
C43 C44 1.379 . S
C43 C47 1.373 . S
C43 C49 1.505 . S
C44 C43 1.379 . S
C44 C46 1.369 . S
C44 H72 0.930 . S
C45 C47 1.383 . S
C45 C48 1.382 . S
C45 H73 0.930 . S
C46 C44 1.369 . S
C46 C48 1.392 . S
C46 H74 0.930 . S
C47 C43 1.373 . S
C47 C45 1.383 . S
C47 H75 0.931 . S
C48 C45 1.382 . S
C48 C46 1.392 . S
C49 Eu40 2.828 . S
C49 C43 1.505 . S
C49 O61 1.249 . S
C49 O62 1.244 . S
O50 Eu41 2.373 . S
O50 C52 1.258 . S
O51 Eu40 2.392 1_545 S
O51 C52 1.242 . S
C52 O50 1.258 . S
C52 O51 1.242 . S
O53 Eu40 2.418 . S
O53 C57 1.244 1_565 S
O54 Eu41 2.488 . S
O54 C70 1.249 . S
O55 Eu41 2.471 . S
O55 C70 1.244 . S
O56 Eu41 2.349 . S
O56 C57 1.265 . S
C57 O53 1.244 1_545 S
C57 O56 1.265 . S
O58 Eu40 2.373 . S
O58 C71 1.258 . S
O59 Eu41 2.392 1_565 S
O59 C71 1.242 . S
O60 Eu41 2.418 . S
O60 C42 1.244 . S
O61 Eu40 2.488 . S
O61 C49 1.249 . S
O62 Eu40 2.471 . S
O62 C49 1.244 . S
O63 Eu40 2.349 1_545 S
O63 C42 1.265 . S
C64 C65 1.379 . S
C64 C68 1.373 . S
C64 C70 1.505 . S
C65 C64 1.379 . S
C65 C67 1.369 . S
C65 H76 0.930 . S
C66 C68 1.383 . S
C66 C69 1.382 . S
C66 H77 0.930 . S
C67 C65 1.369 . S
C67 C69 1.392 . S
C67 H78 0.930 . S
C68 C64 1.373 . S
C68 C66 1.383 . S
C68 H79 0.931 . S
C69 C66 1.382 . S
C69 C67 1.392 . S
C70 Eu41 2.828 . S
C70 O54 1.249 . S
C70 O55 1.244 . S
C70 C64 1.505 . S
C71 O58 1.258 . S
C71 O59 1.242 . S
H72 C44 0.930 . S
H73 C45 0.930 . S
H74 C46 0.930 . S
H75 C47 0.931 . S
H76 C65 0.930 . S
H77 C66 0.930 . S
H78 C67 0.930 . S
H79 C68 0.931 . S
Eu80 C89 2.828 . S
Eu80 O91 2.392 . S
Eu80 O93 2.418 . S
Eu80 O98 2.373 . S
Eu80 O101 2.488 . S
Eu80 O102 2.471 . S
Eu80 O103 2.349 . S
Eu81 O90 2.373 . S
Eu81 O94 2.488 . S
Eu81 O95 2.471 . S
Eu81 O96 2.349 . S
Eu81 O99 2.392 . S
Eu81 O100 2.418 . S
Eu81 C110 2.828 . S
C82 O100 1.244 . S
C82 O103 1.265 . S
C83 C84 1.379 . S
C83 C87 1.373 . S
C83 C89 1.505 . S
C84 C83 1.379 . S
C84 C86 1.369 . S
C84 H112 0.930 . S
C85 C87 1.383 . S
C85 C88 1.382 . S
C85 H113 0.930 . S
C86 C84 1.369 . S
C86 C88 1.392 . S
C86 H114 0.930 . S
C87 C83 1.373 . S
C87 C85 1.383 . S
C87 H115 0.931 . S
C88 C85 1.382 . S
C88 C86 1.392 . S
C89 Eu80 2.828 . S
C89 C83 1.505 . S
C89 O101 1.249 . S
C89 O102 1.244 . S
O90 Eu81 2.373 . S
O90 C92 1.258 . S
O91 Eu80 2.392 . S
O91 C92 1.242 . S
C92 O90 1.258 . S
C92 O91 1.242 . S
O93 Eu80 2.418 . S
O93 C97 1.244 . S
O94 Eu81 2.488 . S
O94 C110 1.249 . S
O95 Eu81 2.471 . S
O95 C110 1.244 . S
O96 Eu81 2.349 . S
O96 C97 1.265 . S
C97 O93 1.244 . S
C97 O96 1.265 . S
O98 Eu80 2.373 . S
O98 C111 1.258 . S
O99 Eu81 2.392 . S
O99 C111 1.242 . S
O100 Eu81 2.418 . S
O100 C82 1.244 . S
O101 Eu80 2.488 . S
O101 C89 1.249 . S
O102 Eu80 2.471 . S
O102 C89 1.244 . S
O103 Eu80 2.349 . S
O103 C82 1.265 . S
C104 C105 1.379 . S
C104 C108 1.373 . S
C104 C110 1.505 . S
C105 C104 1.379 . S
C105 C107 1.369 . S
C105 H116 0.930 . S
C106 C108 1.383 . S
C106 C109 1.382 . S
C106 H117 0.930 . S
C107 C105 1.369 . S
C107 C109 1.392 . S
C107 H118 0.930 . S
C108 C104 1.373 . S
C108 C106 1.383 . S
C108 H119 0.931 . S
C109 C106 1.382 . S
C109 C107 1.392 . S
C110 Eu81 2.828 . S
C110 O94 1.249 . S
C110 O95 1.244 . S
C110 C104 1.505 . S
C111 O98 1.258 . S
C111 O99 1.242 . S
H112 C84 0.930 . S
H113 C85 0.930 . S
H114 C86 0.930 . S
H115 C87 0.931 . S
H116 C105 0.930 . S
H117 C106 0.930 . S
H118 C107 0.930 . S
H119 C108 0.931 . S
H120 C127 0.929 . S
H121 C130 0.930 1_565 S
H122 C132 0.929 . S
H123 C124 0.969 . S
C124 H123 0.969 . S
C124 O125 1.550 . S
C124 H126 0.973 . S
O125 C124 1.550 . S
O125 C131 1.412 1_565 S
H126 C124 0.973 . S
C127 H120 0.929 . S
C127 C128 1.400 . S
C127 C129 1.364 . S
C128 C127 1.400 . S
C128 C132 1.377 . S
C129 C127 1.364 . S
C129 C130 1.374 . S
C130 H121 0.930 1_545 S
C130 C129 1.374 . S
C130 C131 1.383 . S
C131 O125 1.412 1_545 S
C131 C130 1.383 . S
C131 C132 1.394 . S
C132 H122 0.929 . S
C132 C128 1.377 . S
C132 C131 1.394 . S
H133 C140 0.929 . S
H134 C143 0.930 . S
H135 C145 0.929 . S
H136 C137 0.969 . S
C137 H136 0.969 . S
C137 O138 1.550 . S
C137 H139 0.973 . S
O138 C137 1.550 . S
O138 C144 1.412 . S
H139 C137 0.973 . S
C140 H133 0.929 . S
C140 C141 1.400 . S
C140 C142 1.364 . S
C141 C140 1.400 . S
C141 C145 1.377 . S
C142 C140 1.364 . S
C142 C143 1.374 . S
C143 H134 0.930 . S
C143 C142 1.374 . S
C143 C144 1.383 . S
C144 O138 1.412 . S
C144 C143 1.383 . S
C144 C145 1.394 . S
C145 H135 0.929 . S
C145 C141 1.377 . S
C145 C144 1.394 . S
H146 C153 0.929 1_655 S
H147 C156 0.930 . S
H148 C158 0.929 . S
H149 C150 0.969 . S
C150 H149 0.969 . S
C150 O151 1.550 . S
C150 H152 0.973 . S
O151 C150 1.550 . S
O151 C157 1.412 . S
H152 C150 0.973 . S
C153 H146 0.929 1_455 S
C153 C154 1.400 . S
C153 C155 1.364 . S
C154 C153 1.400 . S
C154 C158 1.377 . S
C155 C153 1.364 . S
C155 C156 1.374 . S
C156 H147 0.930 . S
C156 C155 1.374 . S
C156 C157 1.383 . S
C157 O151 1.412 . S
C157 C156 1.383 . S
C157 C158 1.394 . S
C158 H148 0.929 . S
C158 C154 1.377 . S
C158 C157 1.394 . S
H159 C166 0.929 1_655 S
H160 C169 0.930 . S
H161 C171 0.929 . S
H162 C163 0.969 . S
C163 H162 0.969 . S
C163 O164 1.550 . S
C163 H165 0.973 . S
O164 C163 1.550 . S
O164 C170 1.412 . S
H165 C163 0.973 . S
C166 H159 0.929 1_455 S
C166 C167 1.400 . S
C166 C168 1.364 . S
C167 C166 1.400 . S
C167 C171 1.377 . S
C168 C166 1.364 . S
C168 C169 1.374 . S
C169 H160 0.930 . S
C169 C168 1.374 . S
C169 C170 1.383 . S
C170 O164 1.412 . S
C170 C169 1.383 . S
C170 C171 1.394 . S
C171 H161 0.929 . S
C171 C167 1.377 . S
C171 C170 1.394 . S
H172 C179 0.929 . S
H173 C182 0.930 . S
H174 C184 0.929 . S
H175 C176 0.969 . S
C176 H175 0.969 . S
C176 O177 1.550 . S
C176 H178 0.973 . S
O177 C176 1.550 . S
O177 C183 1.412 . S
H178 C176 0.973 . S
C179 H172 0.929 . S
C179 C180 1.400 . S
C179 C181 1.364 1_565 S
C180 C179 1.400 . S
C180 C184 1.377 1_565 S
C181 C179 1.364 1_545 S
C181 C182 1.374 . S
C182 H173 0.930 . S
C182 C181 1.374 . S
C182 C183 1.383 . S
C183 O177 1.412 . S
C183 C182 1.383 . S
C183 C184 1.394 . S
C184 H174 0.929 . S
C184 C180 1.377 1_545 S
C184 C183 1.394 . S
H185 C192 0.929 . S
H186 C195 0.930 . S
H187 C197 0.929 . S
H188 C189 0.969 . S
C189 H188 0.969 . S
C189 O190 1.550 . S
C189 H191 0.973 . S
O190 C189 1.550 . S
O190 C196 1.412 . S
H191 C189 0.973 . S
C192 H185 0.929 . S
C192 C193 1.400 . S
C192 C194 1.364 . S
C193 C192 1.400 . S
C193 C197 1.377 . S
C194 C192 1.364 . S
C194 C195 1.374 . S
C195 H186 0.930 . S
C195 C194 1.374 . S
C195 C196 1.383 . S
C196 O190 1.412 . S
C196 C195 1.383 . S
C196 C197 1.394 . S
C197 H187 0.929 . S
C197 C193 1.377 . S
C197 C196 1.394 . S
C198 C199 1.369 . S
C198 C200 1.419 . S
C198 H202 0.930 . S
C199 C198 1.369 . S
C199 C208 1.429 . S
C200 C198 1.419 . S
C200 C201 1.363 . S
C200 H203 0.929 . S
C201 C200 1.363 . S
C201 C207 1.428 . S
H202 C198 0.930 . S
H203 C200 0.929 . S
S204 N205 1.613 . S
S204 N206 1.610 . S
N205 S204 1.613 . S
N205 C208 1.350 . S
N206 S204 1.610 . S
N206 C207 1.351 . S
C207 C201 1.428 . S
C207 N206 1.351 . S
C207 C208 1.434 . S
C208 C199 1.429 . S
C208 N205 1.350 . S
C208 C207 1.434 . S
C209 C210 1.369 . S
C209 C211 1.419 . S
C209 H213 0.930 . S
C210 C209 1.369 . S
C210 C219 1.429 . S
C211 C209 1.419 . S
C211 C212 1.363 . S
C211 H214 0.929 . S
C212 C211 1.363 . S
C212 C218 1.428 . S
H213 C209 0.930 . S
H214 C211 0.929 . S
S215 N216 1.613 . S
S215 N217 1.610 . S
N216 S215 1.613 . S
N216 C219 1.350 . S
N217 S215 1.610 . S
N217 C218 1.351 . S
C218 C212 1.428 . S
C218 N217 1.351 . S
C218 C219 1.434 . S
C219 C210 1.429 . S
C219 N216 1.350 . S
C219 C218 1.434 . S
C220 C221 1.369 . S
C220 C222 1.419 . S
C220 H224 0.930 . S
C221 C220 1.369 . S
C221 C230 1.429 . S
C222 C220 1.419 . S
C222 C223 1.363 . S
C222 H225 0.929 . S
C223 C222 1.363 . S
C223 C229 1.428 . S
H224 C220 0.930 . S
H225 C222 0.929 . S
S226 N227 1.613 . S
S226 N228 1.610 . S
N227 S226 1.613 . S
N227 C230 1.350 . S
N228 S226 1.610 . S
N228 C229 1.351 . S
C229 C223 1.428 . S
C229 N228 1.351 . S
C229 C230 1.434 . S
C230 C221 1.429 . S
C230 N227 1.350 . S
C230 C229 1.434 . S
C231 C232 1.369 . S
C231 C233 1.419 . S
C231 H235 0.930 . S
C232 C231 1.369 . S
C232 C241 1.429 . S
C233 C231 1.419 . S
C233 C234 1.363 . S
C233 H236 0.929 . S
C234 C233 1.363 . S
C234 C240 1.428 . S
H235 C231 0.930 . S
H236 C233 0.929 . S
S237 N238 1.613 . S
S237 N239 1.610 . S
N238 S237 1.613 . S
N238 C241 1.350 . S
N239 S237 1.610 . S
N239 C240 1.351 . S
C240 C234 1.428 . S
C240 N239 1.351 . S
C240 C241 1.434 . S
C241 C232 1.429 . S
C241 N238 1.350 . S
C241 C240 1.434 . S
C242 C243 1.369 . S
C242 C244 1.419 . S
C242 H246 0.930 . S
C243 C242 1.369 . S
C243 C252 1.429 . S
C244 C242 1.419 . S
C244 C245 1.363 . S
C244 H247 0.929 . S
C245 C244 1.363 . S
C245 C251 1.428 . S
H246 C242 0.930 . S
H247 C244 0.929 . S
S248 N249 1.613 . S
S248 N250 1.610 . S
N249 S248 1.613 . S
N249 C252 1.350 . S
N250 S248 1.610 . S
N250 C251 1.351 . S
C251 C245 1.428 . S
C251 N250 1.351 . S
C251 C252 1.434 . S
C252 C243 1.429 . S
C252 N249 1.350 . S
C252 C251 1.434 . S
C253 C254 1.369 . S
C253 C255 1.419 . S
C253 H257 0.930 . S
C254 C253 1.369 . S
C254 C263 1.429 . S
C255 C253 1.419 . S
C255 C256 1.363 . S
C255 H258 0.929 . S
C256 C255 1.363 . S
C256 C262 1.428 . S
H257 C253 0.930 . S
H258 C255 0.929 . S
S259 N260 1.613 . S
S259 N261 1.610 . S
N260 S259 1.613 . S
N260 C263 1.350 . S
N261 S259 1.610 . S
N261 C262 1.351 . S
C262 C256 1.428 . S
C262 N261 1.351 . S
C262 C263 1.434 . S
C263 C254 1.429 . S
C263 N260 1.350 . S
C263 C262 1.434 . S
C264 C265 1.369 . S
C264 C266 1.419 . S
C264 H268 0.930 . S
C265 C264 1.369 . S
C265 C274 1.429 . S
C266 C264 1.419 . S
C266 C267 1.363 . S
C266 H269 0.929 . S
C267 C266 1.363 . S
C267 C273 1.428 . S
H268 C264 0.930 . S
H269 C266 0.929 . S
S270 N271 1.613 . S
S270 N272 1.610 . S
N271 S270 1.613 . S
N271 C274 1.350 . S
N272 S270 1.610 . S
N272 C273 1.351 . S
C273 C267 1.428 . S
C273 N272 1.351 . S
C273 C274 1.434 . S
C274 C265 1.429 . S
C274 N271 1.350 . S
C274 C273 1.434 . S
C275 C276 1.369 . S
C275 C277 1.419 . S
C275 H279 0.930 . S
C276 C275 1.369 . S
C276 C285 1.429 . S
C277 C275 1.419 . S
C277 C278 1.363 . S
C277 H280 0.929 . S
C278 C277 1.363 . S
C278 C284 1.428 1_655 S
H279 C275 0.930 . S
H280 C277 0.929 . S
S281 N282 1.613 1_455 S
S281 N283 1.610 . S
N282 S281 1.613 1_655 S
N282 C285 1.350 . S
N283 S281 1.610 . S
N283 C284 1.351 . S
C284 C278 1.428 1_455 S
C284 N283 1.351 . S
C284 C285 1.434 1_455 S
C285 C276 1.429 . S
C285 N282 1.350 . S
C285 C284 1.434 1_655 S
C286 C287 1.369 . S
C286 C288 1.419 . S
C286 H290 0.930 . S
C287 C286 1.369 . S
C287 C296 1.429 . S
C288 C286 1.419 . S
C288 C289 1.363 . S
C288 H291 0.929 . S
C289 C288 1.363 . S
C289 C295 1.428 . S
H290 C286 0.930 . S
H291 C288 0.929 . S
S292 N293 1.613 . S
S292 N294 1.610 . S
N293 S292 1.613 . S
N293 C296 1.350 . S
N294 S292 1.610 . S
N294 C295 1.351 . S
C295 C289 1.428 . S
C295 N294 1.351 . S
C295 C296 1.434 . S
C296 C287 1.429 . S
C296 N293 1.350 . S
C296 C295 1.434 . S
C297 C298 1.369 . S
C297 C299 1.419 . S
C297 H301 0.930 . S
C298 C297 1.369 . S
C298 C307 1.429 . S
C299 C297 1.419 . S
C299 C300 1.363 . S
C299 H302 0.929 . S
C300 C299 1.363 . S
C300 C306 1.428 . S
H301 C297 0.930 . S
H302 C299 0.929 . S
S303 N304 1.613 . S
S303 N305 1.610 . S
N304 S303 1.613 . S
N304 C307 1.350 . S
N305 S303 1.610 . S
N305 C306 1.351 . S
C306 C300 1.428 . S
C306 N305 1.351 . S
C306 C307 1.434 . S
C307 C298 1.429 . S
C307 N304 1.350 . S
C307 C306 1.434 . S
C308 C309 1.369 . S
C308 C310 1.419 . S
C308 H312 0.930 . S
C309 C308 1.369 . S
C309 C318 1.429 . S
C310 C308 1.419 . S
C310 C311 1.363 . S
C310 H313 0.929 . S
C311 C310 1.363 . S
C311 C317 1.428 . S
H312 C308 0.930 . S
H313 C310 0.929 . S
S314 N315 1.613 . S
S314 N316 1.610 . S
N315 S314 1.613 . S
N315 C318 1.350 . S
N316 S314 1.610 . S
N316 C317 1.351 . S
C317 C311 1.428 . S
C317 N316 1.351 . S
C317 C318 1.434 . S
C318 C309 1.429 . S
C318 N315 1.350 . S
C318 C317 1.434 . S
C319 C320 1.369 . S
C319 C321 1.419 . S
C319 H323 0.930 . S
C320 C319 1.369 . S
C320 C329 1.429 . S
C321 C319 1.419 . S
C321 C322 1.363 . S
C321 H324 0.929 . S
C322 C321 1.363 . S
C322 C328 1.428 . S
H323 C319 0.930 . S
H324 C321 0.929 . S
S325 N326 1.613 . S
S325 N327 1.610 . S
N326 S325 1.613 . S
N326 C329 1.350 . S
N327 S325 1.610 . S
N327 C328 1.351 . S
C328 C322 1.428 . S
C328 N327 1.351 . S
C328 C329 1.434 . S
C329 C320 1.429 . S
C329 N326 1.350 . S
C329 C328 1.434 . S
C330 C331 1.369 . S
C330 C332 1.419 . S
C330 H334 0.930 . S
C331 C330 1.369 . S
C331 C340 1.429 1_455 S
C332 C330 1.419 . S
C332 C333 1.363 1_554 S
C332 H335 0.925 1_554 S
C333 C332 1.363 1_556 S
C333 C339 1.428 1_455 S
H334 C330 0.930 . S
H335 C332 0.925 1_556 S
S336 N337 1.613 1_556 S
S336 N338 1.610 . S
N337 S336 1.613 1_554 S
N337 C340 1.350 . S
N338 S336 1.610 . S
N338 C339 1.351 . S
C339 C333 1.428 1_655 S
C339 N338 1.351 . S
C339 C340 1.434 1_556 S
C340 C331 1.429 1_655 S
C340 N337 1.350 . S
C340 C339 1.434 1_554 S
C341 C342 1.369 . S
C341 C343 1.419 . S
C341 H345 0.930 . S
C342 C341 1.369 . S
C342 C351 1.429 1_545 S
C343 C341 1.419 . S
C343 C344 1.363 . S
C343 H346 0.929 . S
C344 C343 1.363 . S
C344 C350 1.428 1_545 S
H345 C341 0.930 . S
H346 C343 0.929 . S
S347 N348 1.613 . S
S347 N349 1.610 . S
N348 S347 1.613 . S
N348 C351 1.350 . S
N349 S347 1.610 . S
N349 C350 1.351 . S
C350 C344 1.428 1_565 S
C350 N349 1.351 . S
C350 C351 1.434 . S
C351 C342 1.429 1_565 S
C351 N348 1.350 . S
C351 C350 1.434 . S
C352 C353 1.369 . S
C352 C354 1.419 . S
C352 H356 0.930 . S
C353 C352 1.369 . S
C353 C362 1.429 . S
C354 C352 1.419 . S
C354 C355 1.363 . S
C354 H357 0.929 . S
C355 C354 1.363 . S
C355 C361 1.428 . S
H356 C352 0.930 . S
H357 C354 0.929 . S
S358 N359 1.613 . S
S358 N360 1.610 . S
N359 S358 1.613 . S
N359 C362 1.350 . S
N360 S358 1.610 . S
N360 C361 1.351 . S
C361 C355 1.428 . S
C361 N360 1.351 . S
C361 C362 1.434 . S
C362 C353 1.429 . S
C362 N359 1.350 . S
C362 C361 1.434 . S
C363 C364 1.369 . S
C363 C365 1.419 . S
C363 H367 0.930 . S
C364 C363 1.369 . S
C364 C373 1.429 1_545 S
C365 C363 1.419 . S
C365 C366 1.363 . S
C365 H368 0.929 . S
C366 C365 1.363 . S
C366 C372 1.428 1_545 S
H367 C363 0.930 . S
H368 C365 0.929 . S
S369 N370 1.613 . S
S369 N371 1.610 . S
N370 S369 1.613 . S
N370 C373 1.350 . S
N371 S369 1.610 . S
N371 C372 1.351 . S
C372 C366 1.428 1_565 S
C372 N371 1.351 . S
C372 C373 1.434 . S
C373 C364 1.429 1_565 S
C373 N370 1.350 . S
C373 C372 1.434 . S
C374 C375 1.369 . S
C374 C376 1.419 . S
C374 H378 0.930 . S
C375 C374 1.369 . S
C375 C384 1.429 . S
C376 C374 1.419 . S
C376 C377 1.363 1_556 S
C376 H379 0.929 1_556 S
C377 C376 1.363 1_554 S
C377 C383 1.428 . S
H378 C374 0.930 . S
H379 C376 0.929 1_554 S
S380 N381 1.613 . S
S380 N382 1.610 1_556 S
N381 S380 1.613 . S
N381 C384 1.350 . S
N382 S380 1.610 1_554 S
N382 C383 1.351 . S
C383 C377 1.428 . S
C383 N382 1.351 . S
C383 C384 1.434 1_554 S
C384 C375 1.429 . S
C384 N381 1.350 . S
C384 C383 1.434 1_556 S
C385 C386 1.369 . S
C385 C387 1.419 . S
C385 H389 0.930 . S
C386 C385 1.369 . S
C386 C395 1.429 1_455 S
C387 C385 1.419 . S
C387 C388 1.363 . S
C387 H390 0.929 . S
C388 C387 1.363 . S
C388 C394 1.428 . S
H389 C385 0.930 . S
H390 C387 0.929 . S
S391 N392 1.613 . S
S391 N393 1.610 . S
N392 S391 1.613 . S
N392 C395 1.350 . S
N393 S391 1.610 . S
N393 C394 1.351 1_655 S
C394 C388 1.428 . S
C394 N393 1.351 1_455 S
C394 C395 1.434 1_455 S
C395 C386 1.429 1_655 S
C395 N392 1.350 . S
C395 C394 1.434 1_655 S
C199 C12 3.062 . S
C201 C189 2.858 . S
C210 C52 2.976 . S
C212 C167 2.942 1_655 S
C221 C111 3.004 . S
C223 C180 2.961 . S
C232 C31 3.085 . S
C234 C193 3.037 . S
C245 C163 2.948 . S
C243 C71 3.178 . S
C256 C176 2.928 . S
C254 C92 3.147 . S
C265 C48 0.524 . S
C267 C141 0.448 . S
C276 C109 0.664 . S
C278 C154 0.544 1_655 S
C287 C29 0.773 . S
C289 C124 0.816 . S
C300 C137 0.691 . S
C298 C69 0.717 . S
C311 C150 0.550 . S
C309 C88 0.616 . S
C320 C8 0.541 . S
C322 C128 0.471 . S
C333 C155 1.143 . S
C331 C17 1.132 . S
C342 C57 1.200 . S
C344 C129 1.195 . S
C353 C97 1.102 . S
C355 C142 1.135 . S
C366 C181 1.835 . S
C364 C42 1.732 . S
C377 C194 1.784 . S
C375 C82 1.760 . S
C386 C2 1.746 . S
C388 C168 1.813 . S
