# Generated by pormake.
# Topology hwx, (6,3)-cn, num edge types: 1
# Building blocks:
#     Node 0, Type 0, BuildingBlock: OJICUG_clean_sbu_0, # of connection points: 6
#     Node 1, Type 0, BuildingBlock: OJICUG_clean_sbu_0, # of connection points: 6
#     Node 2, Type 0, BuildingBlock: OJICUG_clean_sbu_0, # of connection points: 6
#     Node 3, Type 0, BuildingBlock: OJICUG_clean_sbu_0, # of connection points: 6
#     Node 4, Type 1, BuildingBlock: KAKCAD_clean_linker_0, # of connection points: 3
#     Node 5, Type 1, BuildingBlock: KAKCAD_clean_linker_0, # of connection points: 3
#     Node 6, Type 1, BuildingBlock: KAKCAD_clean_linker_0, # of connection points: 3
#     Node 7, Type 1, BuildingBlock: KAKCAD_clean_linker_0, # of connection points: 3
#     Node 8, Type 1, BuildingBlock: KAKCAD_clean_linker_0, # of connection points: 3
#     Node 9, Type 1, BuildingBlock: KAKCAD_clean_linker_0, # of connection points: 3
#     Node 10, Type 1, BuildingBlock: KAKCAD_clean_linker_0, # of connection points: 3
#     Node 11, Type 1, BuildingBlock: KAKCAD_clean_linker_0, # of connection points: 3
#     Edge 12, Type (0, 1), BuildingBlock: ZUJKAS_clean_linker_0, # of connection points: 2
#     Edge 13, Type (0, 1), BuildingBlock: ZUJKAS_clean_linker_0, # of connection points: 2
#     Edge 14, Type (0, 1), BuildingBlock: ZUJKAS_clean_linker_0, # of connection points: 2
#     Edge 15, Type (0, 1), BuildingBlock: ZUJKAS_clean_linker_0, # of connection points: 2
#     Edge 16, Type (0, 1), BuildingBlock: ZUJKAS_clean_linker_0, # of connection points: 2
#     Edge 17, Type (0, 1), BuildingBlock: ZUJKAS_clean_linker_0, # of connection points: 2
#     Edge 18, Type (0, 1), BuildingBlock: ZUJKAS_clean_linker_0, # of connection points: 2
#     Edge 19, Type (0, 1), BuildingBlock: ZUJKAS_clean_linker_0, # of connection points: 2
#     Edge 20, Type (0, 1), BuildingBlock: ZUJKAS_clean_linker_0, # of connection points: 2
#     Edge 21, Type (0, 1), BuildingBlock: ZUJKAS_clean_linker_0, # of connection points: 2
#     Edge 22, Type (0, 1), BuildingBlock: ZUJKAS_clean_linker_0, # of connection points: 2
#     Edge 23, Type (0, 1), BuildingBlock: ZUJKAS_clean_linker_0, # of connection points: 2
#     Edge 24, Type (0, 1), BuildingBlock: ZUJKAS_clean_linker_0, # of connection points: 2
#     Edge 25, Type (0, 1), BuildingBlock: ZUJKAS_clean_linker_0, # of connection points: 2
#     Edge 26, Type (0, 1), BuildingBlock: ZUJKAS_clean_linker_0, # of connection points: 2
#     Edge 27, Type (0, 1), BuildingBlock: ZUJKAS_clean_linker_0, # of connection points: 2
#     Edge 28, Type (0, 1), BuildingBlock: ZUJKAS_clean_linker_0, # of connection points: 2
#     Edge 29, Type (0, 1), BuildingBlock: ZUJKAS_clean_linker_0, # of connection points: 2
#     Edge 30, Type (0, 1), BuildingBlock: ZUJKAS_clean_linker_0, # of connection points: 2
#     Edge 31, Type (0, 1), BuildingBlock: ZUJKAS_clean_linker_0, # of connection points: 2
#     Edge 32, Type (0, 1), BuildingBlock: ZUJKAS_clean_linker_0, # of connection points: 2
#     Edge 33, Type (0, 1), BuildingBlock: ZUJKAS_clean_linker_0, # of connection points: 2
#     Edge 34, Type (0, 1), BuildingBlock: ZUJKAS_clean_linker_0, # of connection points: 2
#     Edge 35, Type (0, 1), BuildingBlock: ZUJKAS_clean_linker_0, # of connection points: 2
# Relax obj value: 0.076
# Max RMSD: 0.101
# Mean RMSD: 0.093
data_MOF--net-hwx--node1-OJICUG_clean_sbu_0--node2-KAKCAD_clean_linker_0--edge1-ZUJKAS_clean_linker_0
_symmetry_space_group_name_H-M    P1
_symmetry_Int_Tables_number       1
_symmetry_cell_setting            triclinic
loop_
_symmetry_equiv_pos_as_xyz
'x, y, z'
_cell_length_a     75.761421
_cell_length_b     75.752565
_cell_length_c     34.198109
_cell_angle_alpha  89.922358
_cell_angle_beta   90.098843
_cell_angle_gamma 89.997477
loop_
_atom_site_label
_atom_site_type_symbol
_atom_site_fract_x
_atom_site_fract_y
_atom_site_fract_z
_atom_type_partial_charge
Sc0 Sc 0.21808 0.21815 0.05229 0.0
Sc1 Sc 0.18975 0.19025 0.99833 0.0
Sc2 Sc 0.21879 0.21942 0.94971 0.0
O3 O 0.20884 0.20924 9e-05 0.0
C4 C 0.21561 0.25381 0.00314 0.0
C5 C 0.17678 0.21422 0.06934 0.0
C6 C 0.17784 0.21619 0.92928 0.0
C7 C 0.21451 0.17687 0.06834 0.0
C8 C 0.25346 0.21615 0.00189 0.0
C9 C 0.21508 0.17846 0.92858 0.0
O10 O 0.21567 0.24542 0.03533 0.0
O11 O 0.1737 0.20349 0.04156 0.0
O12 O 0.19301 0.22306 0.9251 0.0
O13 O 0.22133 0.19192 0.07462 0.0
O14 O 0.24572 0.21685 0.96894 0.0
O15 O 0.20368 0.17502 0.95481 0.0
O16 O 0.24522 0.21688 0.03415 0.0
O17 O 0.20267 0.17428 0.04251 0.0
O18 O 0.22138 0.19383 0.92332 0.0
O19 O 0.1921 0.22019 0.0767 0.0
O20 O 0.21709 0.2462 0.97021 0.0
O21 O 0.17468 0.20394 0.95382 0.0
Sc22 Sc 0.27718 0.71753 0.44967 0.0
Sc23 Sc 0.30704 0.69011 0.50106 0.0
Sc24 Sc 0.27665 0.71672 0.55232 0.0
O25 O 0.28699 0.70811 0.50101 0.0
C26 C 0.2784 0.75225 0.50187 0.0
C27 C 0.3186 0.71571 0.43181 0.0
C28 C 0.31772 0.71508 0.57256 0.0
C29 C 0.28259 0.67683 0.43042 0.0
C30 C 0.242 0.71334 0.50016 0.0
C31 C 0.28222 0.67556 0.5692 0.0
O32 O 0.27864 0.74453 0.46889 0.0
O33 O 0.32231 0.70504 0.45935 0.0
O34 O 0.30221 0.721 0.57748 0.0
O35 O 0.27479 0.69154 0.42585 0.0
O36 O 0.24985 0.71343 0.53298 0.0
O37 O 0.29393 0.67335 0.54304 0.0
O38 O 0.25011 0.71516 0.46794 0.0
O39 O 0.29491 0.67447 0.45526 0.0
O40 O 0.27507 0.69043 0.57595 0.0
O41 O 0.30297 0.72084 0.42446 0.0
O42 O 0.27729 0.74395 0.53412 0.0
O43 O 0.32149 0.7036 0.54676 0.0
Sc44 Sc 0.778 0.77797 0.94623 0.0
Sc45 Sc 0.80621 0.80675 0.99799 0.0
Sc46 Sc 0.77828 0.77734 0.04898 0.0
O47 O 0.78751 0.78737 0.99774 0.0
C48 C 0.74306 0.77991 0.99786 0.0
C49 C 0.78096 0.81933 0.92867 0.0
C50 C 0.78121 0.81843 0.06852 0.0
C51 C 0.819 0.78215 0.92763 0.0
C52 C 0.78109 0.74266 0.99678 0.0
C53 C 0.81952 0.78143 0.06675 0.0
O54 O 0.75099 0.77975 0.96514 0.0
O55 O 0.7922 0.82248 0.95542 0.0
O56 O 0.7749 0.80309 0.07398 0.0
O57 O 0.80394 0.7752 0.92211 0.0
O58 O 0.78059 0.75042 0.02967 0.0
O59 O 0.82221 0.79312 0.04068 0.0
O60 O 0.78008 0.75088 0.96446 0.0
O61 O 0.82179 0.79399 0.95327 0.0
O62 O 0.80439 0.77478 0.07315 0.0
O63 O 0.775 0.80395 0.92184 0.0
O64 O 0.75115 0.77888 0.03038 0.0
O65 O 0.79279 0.82173 0.04263 0.0
Sc66 Sc 0.71774 0.27922 0.5504 0.0
Sc67 Sc 0.68904 0.30702 0.49725 0.0
Sc68 Sc 0.71698 0.27719 0.44779 0.0
O69 O 0.7079 0.28783 0.49847 0.0
C70 C 0.75241 0.28046 0.4974 0.0
C71 C 0.71446 0.32049 0.5659 0.0
C72 C 0.71371 0.31817 0.42609 0.0
C73 C 0.67657 0.28341 0.56914 0.0
C74 C 0.71451 0.24324 0.503 0.0
C75 C 0.67597 0.28097 0.42938 0.0
O76 O 0.74465 0.27992 0.53029 0.0
O77 O 0.70215 0.32289 0.5411 0.0
O78 O 0.71927 0.30257 0.42017 0.0
O79 O 0.69198 0.27764 0.57644 0.0
O80 O 0.71564 0.25054 0.46961 0.0
O81 O 0.67349 0.29353 0.45343 0.0
O82 O 0.71481 0.25191 0.53476 0.0
O83 O 0.67326 0.29387 0.54092 0.0
O84 O 0.69086 0.27354 0.42495 0.0
O85 O 0.72165 0.30556 0.57161 0.0
O86 O 0.74415 0.27981 0.46507 0.0
O87 O 0.70305 0.32205 0.45347 0.0
C88 C 0.21441 0.53913 0.85675 0.0
C89 C 0.23091 0.54733 0.85183 0.0
C90 C 0.2102 0.53083 0.89212 0.0
C91 C 0.2223 0.53091 0.9233 0.0
C92 C 0.23884 0.53894 0.91816 0.0
C93 C 0.24313 0.54699 0.88274 0.0
C94 C 0.21768 0.52298 0.9615 0.0
C95 C 0.21123 0.50564 0.96376 0.0
C96 C 0.20799 0.49772 0.0003 0.0
C97 C 0.21065 0.50764 0.03454 0.0
C98 C 0.21725 0.52491 0.03266 0.0
C99 C 0.22067 0.5325 0.99604 0.0
C100 C 0.22167 0.5346 0.06896 0.0
C101 C 0.20979 0.53516 0.10043 0.0
C102 C 0.23809 0.54306 0.07254 0.0
C103 C 0.24254 0.55193 0.10688 0.0
C104 C 0.23064 0.55262 0.13827 0.0
C105 C 0.2035 0.47866 0.00292 0.0
C106 C 0.19197 0.47073 0.97586 0.0
C107 C 0.21156 0.46804 0.03159 0.0
C108 C 0.2084 0.44993 0.03285 0.0
C109 C 0.1972 0.44193 0.00533 0.0
C110 C 0.18889 0.45253 0.97699 0.0
C111 C 0.21419 0.54419 0.13472 0.0
H112 H 0.20479 0.53917 0.83329 0.0
H113 H 0.19736 0.52474 0.89545 0.0
H114 H 0.24845 0.53903 0.94165 0.0
H115 H 0.25586 0.55337 0.87989 0.0
H116 H 0.20971 0.49804 0.93715 0.0
H117 H 0.22568 0.54589 0.99439 0.0
H118 H 0.20821 0.5017 0.06287 0.0
H119 H 0.19703 0.52877 0.09835 0.0
H120 H 0.24758 0.54266 0.04891 0.0
H121 H 0.25522 0.55849 0.10862 0.0
H122 H 0.18541 0.47858 0.95367 0.0
H123 H 0.22084 0.47359 0.05231 0.0
H124 H 0.20479 0.54449 0.15855 0.0
H125 H 0.18009 0.44672 0.95559 0.0
H126 H 0.21529 0.44208 0.05453 0.0
C127 C 0.95378 0.71404 0.35955 0.0
C128 C 0.94402 0.72982 0.35728 0.0
C129 C 0.9631 0.70974 0.39367 0.0
C130 C 0.96272 0.7211 0.4261 0.0
C131 C 0.95342 0.73709 0.42332 0.0
C132 C 0.94423 0.74141 0.38932 0.0
C133 C 0.97159 0.7163 0.46326 0.0
C134 C 0.98913 0.7103 0.46362 0.0
C135 C 0.99787 0.70706 0.49926 0.0
C136 C 0.98865 0.70936 0.53457 0.0
C137 C 0.9712 0.71549 0.53457 0.0
C138 C 0.96273 0.71875 0.49883 0.0
C139 C 0.9622 0.71973 0.5718 0.0
C140 C 0.96255 0.70791 0.60348 0.0
C141 C 0.95334 0.73591 0.57588 0.0
C142 C 0.94485 0.74013 0.61076 0.0
C143 C 0.94498 0.72825 0.64232 0.0
C144 C 0.01703 0.70291 0.49986 0.0
C145 C 0.02453 0.69141 0.47224 0.0
C146 C 0.02811 0.71114 0.52734 0.0
C147 C 0.04624 0.70808 0.52709 0.0
C148 C 0.05379 0.69677 0.49924 0.0
C149 C 0.04275 0.6884 0.47188 0.0
C150 C 0.95391 0.71208 0.63839 0.0
H151 H 0.95381 0.70479 0.33544 0.0
H152 H 0.97016 0.69732 0.39511 0.0
H153 H 0.95323 0.74628 0.44757 0.0
H154 H 0.93723 0.75387 0.38819 0.0
H155 H 0.99622 0.70913 0.43626 0.0
H156 H 0.94916 0.72332 0.49872 0.0
H157 H 0.99527 0.70701 0.56221 0.0
H158 H 0.96928 0.69534 0.60105 0.0
H159 H 0.95305 0.74537 0.5521 0.0
H160 H 0.93788 0.75258 0.61274 0.0
H161 H 0.01632 0.68476 0.45089 0.0
H162 H 0.02287 0.72042 0.5484 0.0
H163 H 0.95425 0.70271 0.66233 0.0
H164 H 0.04821 0.67953 0.45022 0.0
H165 H 0.05443 0.71504 0.54801 0.0
C166 C 0.7711 0.45566 0.13472 0.0
C167 C 0.77904 0.43904 0.1401 0.0
C168 C 0.77442 0.46553 0.10103 0.0
C169 C 0.78562 0.45895 0.0718 0.0
C170 C 0.79389 0.44256 0.07742 0.0
C171 C 0.79072 0.43275 0.11133 0.0
C172 C 0.7879 0.46881 0.03474 0.0
C173 C 0.79103 0.48704 0.03528 0.0
C174 C 0.79167 0.49679 0.00034 0.0
C175 C 0.78949 0.48795 0.96453 0.0
C176 C 0.78632 0.46967 0.96342 0.0
C177 C 0.78567 0.4602 0.99878 0.0
C178 C 0.78244 0.46064 0.92575 0.0
C179 C 0.77197 0.46891 0.89709 0.0
C180 C 0.78845 0.44336 0.91891 0.0
C181 C 0.78365 0.43439 0.88485 0.0
C182 C 0.77285 0.44252 0.85659 0.0
C183 C 0.79337 0.51632 0.00136 0.0
C184 C 0.78423 0.52616 0.02967 0.0
C185 C 0.80345 0.52533 0.9732 0.0
C186 C 0.80399 0.54377 0.97278 0.0
C187 C 0.79453 0.5536 0.00061 0.0
C188 C 0.78488 0.54456 0.0294 0.0
C189 C 0.76732 0.46001 0.86286 0.0
H190 H 0.76181 0.4608 0.15585 0.0
H191 H 0.7677 0.47804 0.09719 0.0
H192 H 0.80273 0.43729 0.05547 0.0
H193 H 0.79733 0.42018 0.11483 0.0
H194 H 0.79287 0.49366 0.06308 0.0
H195 H 0.7825 0.44625 0.99854 0.0
H196 H 0.78977 0.4954 0.93749 0.0
H197 H 0.7669 0.48212 0.90151 0.0
H198 H 0.79672 0.43666 0.94011 0.0
H199 H 0.78801 0.42087 0.8813 0.0
H200 H 0.77616 0.51968 0.0515 0.0
H201 H 0.81081 0.51814 0.95127 0.0
H202 H 0.75922 0.4668 0.84149 0.0
H203 H 0.77767 0.5517 0.05166 0.0
H204 H 0.81146 0.55032 0.95001 0.0
C205 C 0.03726 0.26888 0.63389 0.0
C206 C 0.05481 0.27456 0.63819 0.0
C207 C 0.02778 0.27274 0.59989 0.0
C208 C 0.03556 0.2825 0.56945 0.0
C209 C 0.05293 0.28866 0.57426 0.0
C210 C 0.06246 0.28469 0.60816 0.0
C211 C 0.02587 0.28543 0.53214 0.0
C212 C 0.00762 0.28865 0.53226 0.0
C213 C 0.99805 0.28972 0.49711 0.0
C214 C 0.00702 0.288 0.46141 0.0
C215 C 0.02532 0.28514 0.46072 0.0
C216 C 0.03464 0.2839 0.49613 0.0
C217 C 0.03462 0.28234 0.4232 0.0
C218 C 0.02803 0.27027 0.39567 0.0
C219 C 0.05058 0.29108 0.41553 0.0
C220 C 0.05998 0.28753 0.38135 0.0
C221 C 0.05376 0.27498 0.35433 0.0
C222 C 0.97856 0.29161 0.49783 0.0
C223 C 0.9685 0.28189 0.52481 0.0
C224 C 0.96983 0.30269 0.47105 0.0
C225 C 0.95141 0.30389 0.47108 0.0
C226 C 0.94138 0.29406 0.49792 0.0
C227 C 0.95014 0.28311 0.52488 0.0
C228 C 0.03754 0.26656 0.36168 0.0
H229 H 0.03086 0.26128 0.65665 0.0
H230 H 0.0145 0.26759 0.59705 0.0
H231 H 0.05926 0.29639 0.55161 0.0
H232 H 0.07601 0.28913 0.61025 0.0
H233 H 0.00079 0.29025 0.55985 0.0
H234 H 0.04862 0.28086 0.49553 0.0
H235 H -0.00026 0.28852 0.43412 0.0
H236 H 0.01585 0.26321 0.40111 0.0
H237 H 0.05582 0.3006 0.43611 0.0
H238 H 0.07222 0.29455 0.37627 0.0
H239 H 0.9748 0.27297 0.54531 0.0
H240 H 0.97723 0.3105 0.4502 0.0
H241 H 0.03245 0.25664 0.34188 0.0
H242 H 0.94277 0.27511 0.54544 0.0
H243 H 0.94503 0.31258 0.45023 0.0
C244 C 0.71029 0.95473 0.63985 0.0
C245 C 0.72279 0.94107 0.64108 0.0
C246 C 0.70724 0.96399 0.60503 0.0
C247 C 0.71684 0.95989 0.571 0.0
C248 C 0.72962 0.94643 0.57278 0.0
C249 C 0.73245 0.93705 0.60729 0.0
C250 C 0.71384 0.96965 0.53378 0.0
C251 C 0.71084 0.98795 0.53381 0.0
C252 C 0.70928 0.99738 0.49851 0.0
C253 C 0.71079 0.98828 0.46286 0.0
C254 C 0.71409 0.97007 0.46232 0.0
C255 C 0.71509 0.96082 0.49781 0.0
C256 C 0.71813 0.96092 0.42508 0.0
C257 C 0.70802 0.96388 0.39118 0.0
C258 C 0.73265 0.94943 0.42319 0.0
C259 C 0.73697 0.94103 0.38831 0.0
C260 C 0.72691 0.94392 0.35437 0.0
C261 C 0.70744 0.0169 0.49898 0.0
C262 C 0.69659 0.02526 0.52668 0.0
C263 C 0.71708 0.02737 0.47262 0.0
C264 C 0.7161 0.04574 0.47424 0.0
C265 C 0.70558 0.05412 0.50249 0.0
C266 C 0.69569 0.04367 0.52846 0.0
C267 C 0.71232 0.95536 0.35614 0.0
H268 H 0.70265 0.95801 0.66558 0.0
H269 H 0.69722 0.97418 0.60465 0.0
H270 H 0.73764 0.94323 0.5476 0.0
H271 H 0.74239 0.92678 0.60771 0.0
H272 H 0.71061 0.99502 0.56133 0.0
H273 H 0.71713 0.94666 0.49729 0.0
H274 H 0.71 0.99545 0.43548 0.0
H275 H 0.69673 0.97264 0.39185 0.0
H276 H 0.74086 0.94708 0.44865 0.0
H277 H 0.74812 0.93208 0.38808 0.0
H278 H 0.68886 0.01757 0.54715 0.0
H279 H 0.72576 0.02141 0.45126 0.0
H280 H 0.70436 0.95786 0.33039 0.0
H281 H 0.68756 0.04969 0.55078 0.0
H282 H 0.72367 0.05338 0.45339 0.0
C283 C 0.53915 0.21349 0.1404 0.0
C284 C 0.54963 0.22879 0.14237 0.0
C285 C 0.53103 0.20861 0.10523 0.0
C286 C 0.5334 0.21887 0.07135 0.0
C287 C 0.54374 0.23423 0.07351 0.0
C288 C 0.55176 0.23911 0.10855 0.0
C289 C 0.52508 0.21379 0.03371 0.0
C290 C 0.50724 0.20886 0.03217 0.0
C291 C 0.49887 0.20574 0.99606 0.0
C292 C 0.50874 0.2072 0.9614 0.0
C293 C 0.5265 0.21238 0.96249 0.0
C294 C 0.53464 0.21532 0.99876 0.0
C295 C 0.53599 0.21666 0.92582 0.0
C296 C 0.5351 0.20548 0.89309 0.0
C297 C 0.54546 0.23255 0.923 0.0
C298 C 0.55377 0.23725 0.88822 0.0
C299 C 0.55284 0.22618 0.85539 0.0
C300 C 0.47946 0.20298 0.99438 0.0
C301 C 0.47076 0.1928 0.02287 0.0
C302 C 0.46932 0.21155 0.96556 0.0
C303 C 0.45097 0.21039 0.96586 0.0
C304 C 0.44223 0.20083 0.99525 0.0
C305 C 0.45234 0.19176 0.02335 0.0
C306 C 0.54356 0.21015 0.85821 0.0
H307 H 0.5372 0.20532 0.16605 0.0
H308 H 0.52314 0.1967 0.10437 0.0
H309 H 0.54558 0.24256 0.04807 0.0
H310 H 0.55995 0.25083 0.10891 0.0
H311 H 0.49962 0.20855 0.05895 0.0
H312 H 0.54842 0.21916 -0.00029 0.0
H313 H 0.50239 0.20513 0.93337 0.0
H314 H 0.52791 0.19315 0.89453 0.0
H315 H 0.54617 0.24156 0.94754 0.0
H316 H 0.56103 0.24956 0.8871 0.0
H317 H 0.47819 0.18588 0.04523 0.0
H318 H 0.4755 0.21971 0.94347 0.0
H319 H 0.54263 0.20138 0.8333 0.0
H320 H 0.44602 0.18434 0.04652 0.0
H321 H 0.4436 0.21728 0.94337 0.0
C322 C 0.2684 0.03807 0.36259 0.0
C323 C 0.2744 0.05551 0.35834 0.0
C324 C 0.27236 0.02843 0.39629 0.0
C325 C 0.28246 0.03599 0.42648 0.0
C326 C 0.28894 0.05324 0.42167 0.0
C327 C 0.28494 0.0629 0.38797 0.0
C328 C 0.28524 0.02624 0.46372 0.0
C329 C 0.2885 0.008 0.46346 0.0
C330 C 0.28916 0.99831 0.4985 0.0
C331 C 0.28709 0.00722 0.53422 0.0
C332 C 0.28413 0.02552 0.53509 0.0
C333 C 0.28326 0.03492 0.49971 0.0
C334 C 0.28067 0.03469 0.57264 0.0
C335 C 0.26926 0.02721 0.60049 0.0
C336 C 0.28802 0.05139 0.58003 0.0
C337 C 0.2837 0.06061 0.61403 0.0
C338 C 0.27187 0.05336 0.64133 0.0
C339 C 0.29073 0.97876 0.49765 0.0
C340 C 0.28154 0.96894 0.4693 0.0
C341 C 0.3007 0.9697 0.52601 0.0
C342 C 0.30109 0.95125 0.52658 0.0
C343 C 0.29158 0.94146 0.4987 0.0
C344 C 0.28204 0.95054 0.46971 0.0
C345 C 0.2649 0.03646 0.63444 0.0
H346 H 0.26005 0.0321 0.34053 0.0
H347 H 0.2669 0.01528 0.39932 0.0
H348 H 0.29697 0.05933 0.44415 0.0
H349 H 0.28998 0.07623 0.38525 0.0
H350 H 0.29035 0.0013 0.4358 0.0
H351 H 0.2801 0.04887 0.50015 0.0
H352 H 0.28731 -0.00014 0.5614 0.0
H353 H 0.26323 0.01445 0.59547 0.0
H354 H 0.29697 0.05742 0.55926 0.0
H355 H 0.28917 0.07368 0.61829 0.0
H356 H 0.27354 0.97544 0.44731 0.0
H357 H 0.30809 0.97686 0.54799 0.0
H358 H 0.25588 0.03046 0.65511 0.0
H359 H 0.27481 0.94342 0.44739 0.0
H360 H 0.30848 0.94468 0.5495 0.0
C361 C 0.45681 0.77004 0.86823 0.0
C362 C 0.43916 0.77556 0.86493 0.0
C363 C 0.46663 0.77391 0.9017 0.0
C364 C 0.4591 0.78353 0.93262 0.0
C365 C 0.44163 0.78955 0.9288 0.0
C366 C 0.43176 0.78558 0.89539 0.0
C367 C 0.46918 0.78636 0.96945 0.0
C368 C 0.48744 0.7896 0.96837 0.0
C369 C 0.49744 0.79028 0.00297 0.0
C370 C 0.48891 0.78812 0.03909 0.0
C371 C 0.47063 0.78532 0.04072 0.0
C372 C 0.46084 0.78453 0.00591 0.0
C373 C 0.46188 0.7819 0.07856 0.0
C374 C 0.46801 0.76833 0.10306 0.0
C375 C 0.44689 0.79158 0.0895 0.0
C376 C 0.43804 0.78762 0.12426 0.0
C377 C 0.44385 0.77368 0.14812 0.0
C378 C 0.51692 0.79218 0.00119 0.0
C379 C 0.52666 0.78276 0.97317 0.0
C380 C 0.52597 0.80292 0.02805 0.0
C381 C 0.54438 0.80406 0.02714 0.0
C382 C 0.5541 0.7945 -0.00068 0.0
C383 C 0.54502 0.78392 0.97223 0.0
C384 C 0.45896 0.76413 0.13739 0.0
H385 H 0.46301 0.76253 0.84509 0.0
H386 H 0.47997 0.76885 0.90378 0.0
H387 H 0.43549 0.79717 0.95185 0.0
H388 H 0.41815 0.78991 0.89402 0.0
H389 H 0.49392 0.79147 0.94046 0.0
H390 H 0.44687 0.78153 0.00731 0.0
H391 H 0.49652 0.78821 0.06597 0.0
H392 H 0.47948 0.76061 0.09502 0.0
H393 H 0.44196 0.80212 0.07101 0.0
H394 H 0.42633 0.79507 0.13186 0.0
H395 H 0.52012 0.7741 0.95255 0.0
H396 H 0.51881 0.81049 0.0497 0.0
H397 H 0.46367 0.75334 0.15542 0.0
H398 H 0.55214 0.77614 0.9509 0.0
H399 H 0.55101 0.81248 0.04811 0.0
H400 H 0.17904 0.23183 0.13863 0.0
H401 H 0.15504 0.24236 0.17959 0.0
H402 H 0.11703 0.22152 0.09776 0.0
H403 H 0.1411 0.21049 0.05666 0.0
H404 H 0.1292 0.2662 0.16161 0.0
H405 H 0.0999 0.20121 0.20116 0.0
H406 H 0.12132 0.20315 0.17856 0.0
H407 H 0.10164 0.20568 0.1497 0.0
C408 C 0.1656 0.22937 0.12926 0.0
C409 C 0.16201 0.22024 0.09435 0.0
C410 C 0.15188 0.23545 0.15276 0.0
C411 C 0.13426 0.23259 0.14194 0.0
C412 C 0.13055 0.22357 0.10704 0.0
H413 H 0.04236 0.26692 0.27997 0.0
H414 H 0.06034 0.25729 0.22439 0.0
C415 C 0.14432 0.21733 0.08353 0.0
C416 C 0.11999 0.23941 0.16734 0.0
H417 H 0.08655 0.22654 0.22788 0.0
C418 C 0.11977 0.25754 0.1758 0.0
C419 C 0.10766 0.22809 0.18572 0.0
C420 C 0.10764 0.20842 0.17868 0.0
C421 C 0.10793 0.26457 0.20312 0.0
C422 C 0.09607 0.25317 0.22245 0.0
C423 C 0.0957 0.23519 0.2128 0.0
C424 C 0.08514 0.2594 0.25534 0.0
C425 C 0.10844 0.28408 0.21188 0.0
C426 C 0.09321 0.26361 0.29101 0.0
C427 C 0.08303 0.26884 0.3229 0.0
C428 C 0.06455 0.27006 0.31969 0.0
C429 C 0.05653 0.26594 0.28364 0.0
C430 C 0.06675 0.26054 0.25179 0.0
H431 H 0.11548 0.2916 0.18876 0.0
H432 H 0.09486 0.28943 0.21486 0.0
H433 H 0.11543 0.28622 0.24002 0.0
H434 H 0.10739 0.26254 0.29437 0.0
H435 H 0.08965 0.2715 0.35035 0.0
H436 H 0.2539 0.67336 0.61846 0.0
H437 H 0.24532 0.64845 0.65972 0.0
H438 H 0.28913 0.61813 0.6158 0.0
H439 H 0.29788 0.64296 0.57411 0.0
H440 H 0.23943 0.60941 0.63312 0.0
H441 H 0.29298 0.62181 0.74173 0.0
H442 H 0.28476 0.63902 0.70994 0.0
H443 H 0.29847 0.62188 0.69048 0.0
C444 C 0.26173 0.6614 0.6174 0.0
C445 C 0.27667 0.66022 0.59314 0.0
C446 C 0.25673 0.64717 0.64087 0.0
C447 C 0.26664 0.63157 0.64078 0.0
C448 C 0.28137 0.63015 0.61622 0.0
H449 H 0.26119 0.54542 0.80896 0.0
H450 H 0.26958 0.56384 0.75313 0.0
C451 C 0.28632 0.64434 0.59246 0.0
C452 C 0.26191 0.61708 0.66768 0.0
H453 H 0.27336 0.59864 0.75504 0.0
C454 C 0.24688 0.60691 0.65967 0.0
C455 C 0.27175 0.6139 0.70205 0.0
C456 C 0.28787 0.62472 0.71194 0.0
C457 C 0.24133 0.5936 0.6855 0.0
C458 C 0.25084 0.59079 0.72064 0.0
C459 C 0.26609 0.60078 0.7281 0.0
C460 C 0.24487 0.57818 0.75109 0.0
C461 C 0.22545 0.58261 0.67469 0.0
C462 C 0.22812 0.57997 0.76819 0.0
C463 C 0.22326 0.56935 0.79984 0.0
C464 C 0.2352 0.55699 0.81539 0.0
C465 C 0.25179 0.55493 0.79767 0.0
C466 C 0.25657 0.56541 0.76578 0.0
H467 H 0.22346 0.58226 0.6425 0.0
H468 H 0.22675 0.56886 0.6856 0.0
H469 H 0.21348 0.58856 0.68788 0.0
H470 H 0.21906 0.59005 0.75812 0.0
H471 H 0.2105 0.57139 0.81332 0.0
H472 H 0.85417 0.79193 0.0627 0.0
H473 H 0.87879 0.78189 0.10344 0.0
H474 H 0.8437 0.74713 0.16606 0.0
H475 H 0.81911 0.75683 0.1254 0.0
H476 H 0.88164 0.78512 0.18304 0.0
H477 H 0.88502 0.71466 0.14127 0.0
H478 H 0.87322 0.73087 0.11257 0.0
H479 H 0.86316 0.72122 0.15519 0.0
C480 C 0.8517 0.78204 0.08492 0.0
C481 C 0.83462 0.77521 0.09074 0.0
C482 C 0.8658 0.7763 0.1081 0.0
C483 C 0.86313 0.76353 0.13726 0.0
C484 C 0.84615 0.75666 0.14305 0.0
H485 H 0.91091 0.74387 0.35565 0.0
H486 H 0.89345 0.75225 0.29863 0.0
C487 C 0.83206 0.76236 0.11996 0.0
C488 C 0.8777 0.75834 0.16378 0.0
H489 H 0.89867 0.72247 0.20267 0.0
C490 C 0.88558 0.77146 0.18686 0.0
C491 C 0.88301 0.74055 0.16835 0.0
C492 C 0.87579 0.72604 0.14272 0.0
C493 C 0.89788 0.76713 0.21599 0.0
C494 C 0.9022 0.74921 0.22245 0.0
C495 C 0.89514 0.73618 0.19789 0.0
C496 C 0.91291 0.74372 0.2565 0.0
C497 C 0.90585 0.78172 0.24027 0.0
C498 C 0.92945 0.7357 0.25157 0.0
C499 C 0.93957 0.73097 0.28425 0.0
C500 C 0.93322 0.73411 0.32226 0.0
C501 C 0.91639 0.74168 0.32684 0.0
C502 C 0.90637 0.74643 0.2943 0.0
H503 H 0.90505 0.79466 0.22506 0.0
H504 H 0.8985 0.78282 0.2682 0.0
H505 H 0.91989 0.77887 0.24725 0.0
H506 H 0.93463 0.73339 0.22252 0.0
H507 H 0.95249 0.72522 0.27976 0.0
H508 H 0.69735 0.35177 0.57975 0.0
H509 H 0.7068 0.37566 0.62339 0.0
H510 H 0.75461 0.34716 0.64981 0.0
H511 H 0.7453 0.32321 0.60673 0.0
H512 H 0.71655 0.3684 0.70861 0.0
H513 H 0.76944 0.39996 0.62023 0.0
H514 H 0.75152 0.38762 0.59843 0.0
H515 H 0.76936 0.37621 0.62201 0.0
C516 C 0.70996 0.35068 0.59449 0.0
C517 C 0.72053 0.33555 0.58992 0.0
C518 C 0.71532 0.36432 0.61938 0.0
C519 C 0.73144 0.36317 0.63942 0.0
C520 C 0.7422 0.34833 0.63419 0.0
H521 H 0.79148 0.41862 0.81264 0.0
H522 H 0.78053 0.40044 0.75888 0.0
C523 C 0.7368 0.33462 0.60976 0.0
C524 C 0.73656 0.37677 0.66812 0.0
H525 H 0.76749 0.40837 0.68688 0.0
C526 C 0.72753 0.37733 0.70381 0.0
C527 C 0.751 0.38818 0.66167 0.0
C528 C 0.76088 0.38814 0.62343 0.0
C529 C 0.73298 0.38862 0.73399 0.0
C530 C 0.74754 0.4 0.72772 0.0
C531 C 0.75632 0.39968 0.69159 0.0
C532 C 0.75431 0.41177 0.75891 0.0
C533 C 0.72358 0.38762 0.77284 0.0
C534 C 0.74332 0.42445 0.77619 0.0
C535 C 0.74942 0.43461 0.80746 0.0
C536 C 0.76676 0.43253 0.82164 0.0
C537 C 0.77795 0.42033 0.80307 0.0
C538 C 0.77177 0.41004 0.77207 0.0
H539 H 0.71605 0.37512 0.77605 0.0
H540 H 0.73307 0.38865 0.79753 0.0
H541 H 0.71408 0.39872 0.77503 0.0
H542 H 0.72992 0.42629 0.76591 0.0
H543 H 0.74036 0.44375 0.82116 0.0
H544 H 0.6416 0.29266 0.42981 0.0
H545 H 0.61752 0.28329 0.38669 0.0
H546 H 0.65235 0.2462 0.33047 0.0
H547 H 0.67646 0.25543 0.37301 0.0
H548 H 0.63383 0.26974 0.27926 0.0
H549 H 0.58942 0.23569 0.38463 0.0
H550 H 0.59698 0.25736 0.39819 0.0
H551 H 0.61252 0.23955 0.39471 0.0
C552 C 0.64412 0.28241 0.40849 0.0
C553 C 0.66102 0.27486 0.40482 0.0
C554 C 0.63031 0.27701 0.38407 0.0
C555 C 0.63317 0.26396 0.35572 0.0
C556 C 0.6499 0.25625 0.35233 0.0
H557 H 0.56749 0.20714 0.19294 0.0
H558 H 0.58618 0.21602 0.24807 0.0
C559 C 0.66367 0.26158 0.3767 0.0
C560 C 0.61914 0.25909 0.32766 0.0
H561 H 0.57914 0.23859 0.31946 0.0
C562 C 0.62185 0.26298 0.28803 0.0
C563 C 0.60362 0.25017 0.33932 0.0
C564 C 0.60041 0.24529 0.38147 0.0
C565 C 0.60943 0.25818 0.2596 0.0
C566 C 0.59382 0.24942 0.27123 0.0
C567 C 0.59109 0.24545 0.31084 0.0
C568 C 0.58055 0.24388 0.24207 0.0
C569 C 0.61322 0.26221 0.21719 0.0
C570 C 0.5708 0.25659 0.22149 0.0
C571 C 0.5601 0.25158 0.19016 0.0
C572 C 0.55898 0.23376 0.17889 0.0
C573 C 0.568 0.22095 0.20104 0.0
C574 C 0.5787 0.22599 0.23245 0.0
H575 H 0.6272 0.2661 0.21247 0.0
H576 H 0.61022 0.25059 0.19858 0.0
H577 H 0.60467 0.27327 0.20738 0.0
H578 H 0.57195 0.27045 0.22886 0.0
H579 H 0.55305 0.26171 0.17413 0.0
H580 H 0.2059 0.14333 0.93036 0.0
H581 H 0.21551 0.12006 0.8855 0.0
H582 H 0.24761 0.15769 0.82317 0.0
H583 H 0.23811 0.181 0.86739 0.0
H584 H 0.22466 0.13692 0.77556 0.0
H585 H 0.26508 0.09625 0.87757 0.0
H586 H 0.24315 0.10177 0.8936 0.0
H587 H 0.25928 0.11892 0.88778 0.0
C588 C 0.21508 0.14665 0.90725 0.0
C589 C 0.22119 0.16408 0.9025 0.0
C590 C 0.22063 0.13331 0.88181 0.0
C591 C 0.23238 0.13717 0.85132 0.0
C592 C 0.23857 0.15446 0.84664 0.0
H593 H 0.29219 0.07381 0.68976 0.0
H594 H 0.28205 0.09318 0.74249 0.0
C595 C 0.2331 0.16777 0.87201 0.0
C596 C 0.23768 0.12345 0.82296 0.0
H597 H 0.26149 0.08543 0.81317 0.0
C598 C 0.23264 0.12562 0.78376 0.0
C599 C 0.24822 0.10884 0.83385 0.0
C600 C 0.25441 0.10627 0.87541 0.0
C601 C 0.23791 0.11356 0.75501 0.0
C602 C 0.24832 0.09886 0.7659 0.0
C603 C 0.25338 0.09667 0.8051 0.0
C604 C 0.25454 0.08602 0.7365 0.0
C605 C 0.23267 0.11687 0.71303 0.0
C606 C 0.24245 0.07535 0.71639 0.0
C607 C 0.24817 0.06436 0.6862 0.0
C608 C 0.2661 0.06384 0.67565 0.0
C609 C 0.27827 0.07411 0.69686 0.0
C610 C 0.27253 0.08506 0.72713 0.0
H611 H 0.22775 0.13054 0.70846 0.0
H612 H 0.24402 0.11458 0.69315 0.0
H613 H 0.22199 0.10757 0.70471 0.0
H614 H 0.22853 0.07582 0.72349 0.0
H615 H 0.23845 0.05674 0.67024 0.0
H616 H 0.35345 0.71983 0.45104 0.0
H617 H 0.37698 0.73196 0.40987 0.0
H618 H 0.33992 0.73795 0.31479 0.0
H619 H 0.3163 0.72672 0.35624 0.0
H620 H 0.39148 0.72121 0.34589 0.0
H621 H 0.36107 0.78574 0.31386 0.0
H622 H 0.35228 0.77103 0.35046 0.0
H623 H 0.34638 0.76837 0.29966 0.0
C624 C 0.35034 0.72385 0.42141 0.0
C625 C 0.33302 0.72251 0.40696 0.0
C626 C 0.36378 0.73079 0.39794 0.0
C627 C 0.36014 0.73632 0.35952 0.0
C628 C 0.34294 0.73445 0.34476 0.0
H629 H 0.43053 0.7413 0.16466 0.0
H630 H 0.41178 0.73294 0.21968 0.0
C631 C 0.32947 0.72787 0.3684 0.0
C632 C 0.3744 0.74336 0.33413 0.0
H633 H 0.38353 0.77608 0.2686 0.0
C634 C 0.38985 0.73335 0.32945 0.0
C635 C 0.37259 0.75946 0.31343 0.0
C636 C 0.35726 0.77184 0.32 0.0
C637 C 0.40309 0.73853 0.30316 0.0
C638 C 0.40048 0.75375 0.27974 0.0
C639 C 0.38545 0.76423 0.28593 0.0
C640 C 0.41265 0.75864 0.24745 0.0
C641 C 0.41975 0.72764 0.30107 0.0
C642 C 0.41891 0.77603 0.24381 0.0
C643 C 0.4292 0.78094 0.21168 0.0
C644 C 0.4336 0.76848 0.18298 0.0
C645 C 0.42755 0.75106 0.18683 0.0
C646 C 0.41696 0.74625 0.21846 0.0
H647 H 0.4226 0.72121 0.32961 0.0
H648 H 0.41798 0.71701 0.27911 0.0
H649 H 0.43132 0.73579 0.29264 0.0
H650 H 0.41567 0.78587 0.26561 0.0
H651 H 0.43373 0.79446 0.20922 0.0
H652 H 0.76192 0.81728 0.86102 0.0
H653 H 0.75082 0.84148 0.82102 0.0
H654 H 0.77313 0.87914 0.90165 0.0
H655 H 0.78474 0.85491 0.94161 0.0
H656 H 0.72758 0.86776 0.83969 0.0
H657 H 0.79274 0.89592 0.79765 0.0
H658 H 0.79063 0.87456 0.82055 0.0
H659 H 0.7887 0.89431 0.84927 0.0
C660 C 0.76455 0.83069 0.8703 0.0
C661 C 0.77433 0.83414 0.90444 0.0
C662 C 0.75815 0.84451 0.8474 0.0
C663 C 0.7613 0.8621 0.85812 0.0
C664 C 0.77085 0.86566 0.89242 0.0
H665 H 0.72963 0.95371 0.71443 0.0
H666 H 0.73746 0.93639 0.77289 0.0
C667 C 0.77742 0.85179 0.91527 0.0
C668 C 0.75448 0.8765 0.83298 0.0
H669 H 0.76746 0.90961 0.77155 0.0
C670 C 0.73629 0.87704 0.82513 0.0
C671 C 0.76587 0.88864 0.81415 0.0
C672 C 0.78559 0.88832 0.82048 0.0
C673 C 0.72926 0.88894 0.79782 0.0
C674 C 0.74072 0.90055 0.77793 0.0
C675 C 0.75876 0.90068 0.78713 0.0
C676 C 0.73462 0.91111 0.74423 0.0
C677 C 0.7097 0.88872 0.78951 0.0
C678 C 0.73043 0.90254 0.70912 0.0
C679 C 0.72616 0.91233 0.67589 0.0
C680 C 0.72591 0.93085 0.67728 0.0
C681 C 0.72961 0.93943 0.71278 0.0
C682 C 0.73412 0.9296 0.74602 0.0
H683 H 0.7022 0.8821 0.81326 0.0
H684 H 0.70459 0.90235 0.7857 0.0
H685 H 0.70727 0.88141 0.76191 0.0
H686 H 0.73094 0.88827 0.70719 0.0
H687 H 0.72327 0.90542 0.6489 0.0
H688 H 0.82005 0.75269 0.88199 0.0
H689 H 0.84394 0.7428 0.83982 0.0
H690 H 0.8753 0.78767 0.87446 0.0
H691 H 0.85152 0.79754 0.91764 0.0
H692 H 0.85708 0.76054 0.7778 0.0
H693 H 0.91046 0.74743 0.88551 0.0
H694 H 0.88771 0.75041 0.89974 0.0
H695 H 0.90123 0.76923 0.88835 0.0
C696 C 0.83206 0.76044 0.88092 0.0
C697 C 0.83384 0.77597 0.9031 0.0
C698 C 0.84573 0.75472 0.85685 0.0
C699 C 0.86147 0.76438 0.85433 0.0
C700 C 0.86341 0.77981 0.87664 0.0
H701 H 0.94482 0.75947 0.68218 0.0
H702 H 0.9256 0.76776 0.73674 0.0
C703 C 0.84975 0.78549 0.90107 0.0
C704 C 0.87523 0.75883 0.82624 0.0
H705 H 0.9184 0.74626 0.81817 0.0
C706 C 0.87046 0.75734 0.7867 0.0
C707 C 0.89268 0.75468 0.83796 0.0
C708 C 0.89833 0.75535 0.88024 0.0
C709 C 0.88267 0.75191 0.75851 0.0
C710 C 0.90008 0.74785 0.77018 0.0
C711 C 0.90498 0.7494 0.80956 0.0
C712 C 0.91327 0.74211 0.74127 0.0
C713 C 0.87699 0.75064 0.71628 0.0
C714 C 0.91287 0.72484 0.72661 0.0
C715 C 0.92378 0.72007 0.69548 0.0
C716 C 0.93514 0.73257 0.67846 0.0
C717 C 0.93603 0.74965 0.69445 0.0
C718 C 0.92519 0.75437 0.72571 0.0
H719 H 0.86349 0.75595 0.71147 0.0
H720 H 0.88637 0.75797 0.69733 0.0
H721 H 0.87719 0.73661 0.707 0.0
H722 H 0.90366 0.71527 0.73832 0.0
H723 H 0.92272 0.70687 0.68356 0.0
H724 H 0.71205 0.35404 0.43731 0.0
H725 H 0.72427 0.37715 0.39511 0.0
H726 H 0.74227 0.33749 0.31404 0.0
H727 H 0.73057 0.31439 0.35623 0.0
H728 H 0.76771 0.36176 0.33014 0.0
H729 H 0.70456 0.3952 0.29225 0.0
H730 H 0.70916 0.39352 0.34365 0.0
H731 H 0.70526 0.37385 0.31562 0.0
C732 C 0.7185 0.35026 0.41035 0.0
C733 C 0.7203 0.33236 0.40012 0.0
C734 C 0.72542 0.36349 0.38621 0.0
C735 C 0.734 0.35904 0.35123 0.0
C736 C 0.73571 0.34121 0.34093 0.0
H737 H 0.77417 0.40325 0.14221 0.0
H738 H 0.76491 0.3852 0.19761 0.0
C739 C 0.72897 0.32802 0.3651 0.0
C740 C 0.74156 0.37276 0.32531 0.0
H741 H 0.73062 0.40736 0.26591 0.0
C742 C 0.75962 0.37181 0.31631 0.0
C743 C 0.73097 0.38588 0.30741 0.0
C744 C 0.71139 0.38716 0.31487 0.0
C745 C 0.76728 0.38333 0.2891 0.0
C746 C 0.7566 0.39608 0.27047 0.0
C747 C 0.73872 0.39754 0.28049 0.0
C748 C 0.7634 0.40702 0.23813 0.0
C749 C 0.78666 0.38163 0.27984 0.0
C750 C 0.76566 0.42525 0.2428 0.0
C751 C 0.77123 0.43563 0.21131 0.0
C752 C 0.77439 0.42795 0.17448 0.0
C753 C 0.77223 0.40959 0.17023 0.0
C754 C 0.76683 0.39925 0.20179 0.0
H755 H 0.79378 0.37372 0.30225 0.0
H756 H 0.7882 0.37498 0.25114 0.0
H757 H 0.79291 0.39485 0.27769 0.0
H758 H 0.76303 0.43144 0.27074 0.0
H759 H 0.77299 0.44966 0.2158 0.0
H760 H 0.14645 0.19989 0.91166 0.0
H761 H 0.12391 0.20998 0.86515 0.0
H762 H 0.15391 0.25743 0.84406 0.0
H763 H 0.17659 0.24733 0.88947 0.0
H764 H 0.10295 0.23986 0.86137 0.0
H765 H 0.14856 0.23739 0.73492 0.0
H766 H 0.15392 0.22763 0.7816 0.0
H767 H 0.15667 0.25098 0.77392 0.0
C768 C 0.14819 0.2125 0.89721 0.0
C769 C 0.16344 0.22267 0.90376 0.0
C770 C 0.13532 0.21824 0.87068 0.0
C771 C 0.13747 0.23425 0.85049 0.0
C772 C 0.15225 0.24479 0.85847 0.0
H773 H 0.07913 0.29427 0.67869 0.0
H774 H 0.0982 0.28449 0.73234 0.0
C775 C 0.16517 0.23901 0.88456 0.0
C776 C 0.12453 0.23985 0.82045 0.0
H777 H 0.12105 0.25186 0.72449 0.0
C778 C 0.10685 0.24237 0.83138 0.0
C779 C 0.12967 0.24299 0.78127 0.0
C780 C 0.14819 0.23944 0.76708 0.0
C781 C 0.09427 0.24843 0.80429 0.0
C782 C 0.09956 0.25199 0.76551 0.0
C783 C 0.11715 0.24928 0.75447 0.0
C784 C 0.08703 0.25827 0.73548 0.0
C785 C 0.07548 0.25129 0.81729 0.0
C786 C 0.0745 0.24671 0.71967 0.0
C787 C 0.06377 0.25213 0.68865 0.0
C788 C 0.06538 0.26925 0.67296 0.0
C789 C 0.07771 0.28093 0.68965 0.0
C790 C 0.08852 0.27543 0.72048 0.0
H791 H 0.07408 0.25046 0.84957 0.0
H792 H 0.07068 0.2644 0.80727 0.0
H793 H 0.0669 0.24109 0.80384 0.0
H794 H 0.07339 0.23331 0.73053 0.0
H795 H 0.05466 0.24268 0.67612 0.0
H796 H 0.30064 0.64628 0.4138 0.0
H797 H 0.29188 0.62306 0.3677 0.0
H798 H 0.243 0.65044 0.3452 0.0
H799 H 0.25172 0.67376 0.39021 0.0
H800 H 0.26259 0.60056 0.36377 0.0
H801 H 0.26432 0.64602 0.23664 0.0
H802 H 0.27365 0.65175 0.28351 0.0
H803 H 0.25027 0.65373 0.27517 0.0
C804 C 0.288 0.64729 0.39913 0.0
C805 C 0.27701 0.66201 0.40514 0.0
C806 C 0.28302 0.63403 0.37287 0.0
C807 C 0.26698 0.63527 0.35242 0.0
C808 C 0.25564 0.64948 0.35988 0.0
H809 H 0.21016 0.57622 0.17782 0.0
H810 H 0.21889 0.59485 0.23309 0.0
C811 C 0.26065 0.66278 0.38571 0.0
C812 C 0.26217 0.62205 0.32246 0.0
H813 H 0.25079 0.61804 0.22627 0.0
C814 C 0.26015 0.60432 0.33364 0.0
C815 C 0.2591 0.62701 0.28311 0.0
C816 C 0.26211 0.64563 0.26875 0.0
C817 C 0.25459 0.59151 0.30661 0.0
C818 C 0.25105 0.59663 0.26767 0.0
C819 C 0.25334 0.61426 0.25638 0.0
C820 C 0.24519 0.58392 0.23768 0.0
C821 C 0.25217 0.57267 0.31987 0.0
C822 C 0.25709 0.57158 0.22237 0.0
C823 C 0.25218 0.56101 0.19074 0.0
C824 C 0.23528 0.56261 0.17404 0.0
C825 C 0.2232 0.57459 0.19035 0.0
C826 C 0.22817 0.58525 0.22177 0.0
H827 H 0.25284 0.57138 0.3522 0.0
H828 H 0.23928 0.56748 0.30953 0.0
H829 H 0.2627 0.56435 0.30692 0.0
H830 H 0.27035 0.57055 0.23404 0.0
H831 H 0.26169 0.55178 0.17892 0.0
H832 H 0.31717 0.74531 0.61556 0.0
H833 H 0.33966 0.75619 0.66044 0.0
H834 H 0.37248 0.71123 0.63402 0.0
H835 H 0.35015 0.70043 0.58802 0.0
H836 H 0.35107 0.7402 0.72552 0.0
H837 H 0.40764 0.75113 0.6255 0.0
H838 H 0.38547 0.74746 0.6079 0.0
H839 H 0.39885 0.72914 0.62356 0.0
C840 C 0.32923 0.73777 0.619 0.0
C841 C 0.33185 0.72195 0.59829 0.0
C842 C 0.34209 0.74404 0.64463 0.0
C843 C 0.35783 0.73464 0.6503 0.0
C844 C 0.36061 0.71892 0.62943 0.0
H845 H 0.43913 0.74369 0.82721 0.0
H846 H 0.42014 0.73431 0.77327 0.0
C847 C 0.34779 0.71271 0.60335 0.0
C848 C 0.37069 0.7408 0.67999 0.0
H849 H 0.41359 0.75331 0.69378 0.0
C850 C 0.36471 0.74316 0.71848 0.0
C851 C 0.3885 0.74463 0.67076 0.0
C852 C 0.39549 0.74313 0.62962 0.0
C853 C 0.37605 0.74912 0.74803 0.0
C854 C 0.39381 0.75286 0.73883 0.0
C855 C 0.39991 0.75042 0.70053 0.0
C856 C 0.40622 0.75914 0.76905 0.0
C857 C 0.36906 0.75122 0.78907 0.0
C858 C 0.40482 0.77632 0.78389 0.0
C859 C 0.41577 0.78183 0.81443 0.0
C860 C 0.42827 0.7702 0.83074 0.0
C861 C 0.42986 0.75309 0.81503 0.0
C862 C 0.41897 0.74765 0.78434 0.0
H863 H 0.35573 0.74533 0.79255 0.0
H864 H 0.37817 0.74495 0.81044 0.0
H865 H 0.36823 0.76547 0.79629 0.0
H866 H 0.39509 0.78538 0.77214 0.0
H867 H 0.4144 0.79516 0.82538 0.0
H868 H 0.7546 0.81714 0.12228 0.0
H869 H 0.74414 0.8408 0.16446 0.0
H870 H 0.78235 0.87635 0.11419 0.0
H871 H 0.79285 0.85277 0.07126 0.0
H872 H 0.76446 0.85829 0.21938 0.0
H873 H 0.73632 0.9052 0.11087 0.0
H874 H 0.74108 0.88244 0.09923 0.0
H875 H 0.75862 0.89837 0.10136 0.0
C876 C 0.76076 0.82999 0.1199 0.0
C877 C 0.77464 0.83301 0.09341 0.0
C878 C 0.75471 0.84352 0.144 0.0
C879 C 0.76232 0.86036 0.1421 0.0
C880 C 0.77606 0.86353 0.11553 0.0
H881 H 0.75972 0.9393 0.32323 0.0
H882 H 0.7679 0.92019 0.2686 0.0
C883 C 0.78213 0.84999 0.09125 0.0
C884 C 0.75665 0.87414 0.16997 0.0
H885 H 0.73829 0.91523 0.17669 0.0
C886 C 0.7587 0.87071 0.21003 0.0
C887 C 0.74904 0.89027 0.15761 0.0
C888 C 0.74596 0.8943 0.11494 0.0
C889 C 0.75352 0.88307 0.23815 0.0
C890 C 0.74627 0.89933 0.22583 0.0
C891 C 0.74399 0.90275 0.18584 0.0
C892 C 0.74106 0.91282 0.25464 0.0
C893 C 0.75571 0.87865 0.28094 0.0
C894 C 0.72321 0.91536 0.26385 0.0
C895 C 0.71848 0.92617 0.29526 0.0
C896 C 0.73157 0.93455 0.31779 0.0
C897 C 0.74937 0.93274 0.30687 0.0
C898 C 0.75407 0.92195 0.27558 0.0
H899 H 0.75878 0.86446 0.28564 0.0
H900 H 0.76669 0.8866 0.29329 0.0
H901 H 0.74354 0.88199 0.29737 0.0
H902 H 0.71303 0.90834 0.24794 0.0
H903 H 0.70468 0.92725 0.3031 0.0
H904 H 0.64108 0.28998 0.5607 0.0
H905 H 0.61717 0.28051 0.60416 0.0
H906 H 0.65491 0.25413 0.67842 0.0
H907 H 0.67884 0.26345 0.63558 0.0
H908 H 0.60838 0.24373 0.63043 0.0
H909 H 0.62709 0.28973 0.74999 0.0
H910 H 0.63421 0.2928 0.70005 0.0
H911 H 0.64487 0.2767 0.73062 0.0
C912 C 0.64431 0.28217 0.58628 0.0
C913 C 0.66192 0.2776 0.59477 0.0
C914 C 0.63062 0.27673 0.61093 0.0
C915 C 0.63437 0.26678 0.64452 0.0
C916 C 0.65183 0.26196 0.65276 0.0
H917 H 0.57385 0.2059 0.80848 0.0
H918 H 0.59157 0.21582 0.75277 0.0
C919 C 0.66548 0.26731 0.62816 0.0
C920 C 0.62015 0.26166 0.67172 0.0
H921 H 0.60615 0.26753 0.76543 0.0
C922 C 0.60773 0.24901 0.65985 0.0
C923 C 0.61932 0.26875 0.70984 0.0
C924 C 0.63197 0.28286 0.72344 0.0
C925 C 0.59476 0.24282 0.68578 0.0
C926 C 0.5944 0.2494 0.72446 0.0
C927 C 0.60651 0.26245 0.7358 0.0
C928 C 0.58194 0.24273 0.75427 0.0
C929 C 0.58157 0.22935 0.67163 0.0
C930 C 0.57063 0.25453 0.77339 0.0
C931 C 0.56062 0.24893 0.80527 0.0
C932 C 0.5618 0.23143 0.81872 0.0
C933 C 0.57256 0.21942 0.7985 0.0
C934 C 0.58264 0.22506 0.76662 0.0
H935 H 0.58052 0.22933 0.63922 0.0
H936 H 0.58589 0.21601 0.68107 0.0
H937 H 0.5683 0.23187 0.68419 0.0
H938 H 0.56992 0.26822 0.76432 0.0
H939 H 0.55224 0.25841 0.81998 0.0
H940 H 0.24249 0.1764 0.1187 0.0
H941 H 0.25234 0.15225 0.1603 0.0
H942 H 0.21095 0.11903 0.11474 0.0
H943 H 0.20078 0.1433 0.07283 0.0
H944 H 0.21306 0.11974 0.19693 0.0
H945 H 0.27855 0.10668 0.13139 0.0
H946 H 0.27504 0.12962 0.14196 0.0
H947 H 0.26144 0.1188 0.10608 0.0
C948 C 0.23548 0.16396 0.1172 0.0
C949 C 0.22078 0.16183 0.09241 0.0
C950 C 0.24126 0.15011 0.14081 0.0
C951 C 0.23256 0.13379 0.14009 0.0
C952 C 0.21793 0.13151 0.11537 0.0
H953 H 0.27287 0.04553 0.28135 0.0
H954 H 0.26187 0.06291 0.22586 0.0
C955 C 0.21215 0.14538 0.0915 0.0
C956 C 0.23813 0.11967 0.16734 0.0
H957 H 0.27417 0.09613 0.19707 0.0
C958 C 0.22632 0.11435 0.19662 0.0
C959 C 0.25538 0.11252 0.16658 0.0
C960 C 0.26828 0.11705 0.13457 0.0
C961 C 0.23163 0.10278 0.22645 0.0
C962 C 0.24923 0.09659 0.22716 0.0
C963 C 0.26075 0.10112 0.1967 0.0
C964 C 0.25614 0.08612 0.26035 0.0
C965 C 0.21843 0.0975 0.25732 0.0
C966 C 0.25689 0.09359 0.29781 0.0
C967 C 0.26314 0.08375 0.32944 0.0
C968 C 0.26882 0.06624 0.32416 0.0
C969 C 0.2684 0.05892 0.28638 0.0
C970 C 0.26219 0.06882 0.25468 0.0
H971 H 0.20464 0.09927 0.24691 0.0
H972 H 0.22031 0.08352 0.26625 0.0
H973 H 0.2203 0.10594 0.28351 0.0
H974 H 0.25255 0.10704 0.30261 0.0
H975 H 0.26313 0.08972 0.35821 0.0
H976 H 0.21098 0.27511 0.06707 0.0
H977 H 0.20545 0.30689 0.06769 0.0
H978 H 0.20886 0.30827 0.94189 0.0
H979 H 0.2142 0.2765 0.94074 0.0
H980 H 0.22696 0.33387 0.03851 0.0
H981 H 0.1618 0.33313 0.96401 0.0
H982 H 0.17174 0.31351 0.98444 0.0
H983 H 0.17899 0.32187 0.93795 0.0
C984 C 0.21056 0.28213 0.03948 0.0
C985 C 0.21299 0.2732 0.00383 0.0
C986 C 0.20736 0.30029 0.03993 0.0
C987 C 0.20643 0.30982 0.00481 0.0
C988 C 0.20913 0.30105 0.96925 0.0
H989 H 0.19811 0.41986 0.94224 0.0
H990 H 0.19889 0.38754 0.94293 0.0
C991 C 0.21233 0.2829 0.96872 0.0
C992 C 0.20325 0.32908 0.00546 0.0
H993 H 0.17516 0.36125 0.97328 0.0
C994 C 0.21558 0.33986 0.02453 0.0
C995 C 0.18839 0.3368 0.98707 0.0
C996 C 0.17437 0.32574 0.96749 0.0
C997 C 0.21367 0.35827 0.02497 0.0
C998 C 0.19886 0.36601 0.00643 0.0
C999 C 0.18647 0.35523 0.9875 0.0
C1000 C 0.19632 0.38534 0.00574 0.0
C1001 C 0.22777 0.3693 0.04437 0.0
C1002 C 0.19396 0.39469 0.0407 0.0
C1003 C 0.19347 0.41311 0.04039 0.0
C1004 C 0.19524 0.42247 0.00508 0.0
C1005 C 0.19661 0.41301 0.96986 0.0
C1006 C 0.19713 0.39457 0.97022 0.0
H1007 H 0.24013 0.3617 0.0492 0.0
H1008 H 0.23089 0.38114 0.02648 0.0
H1009 H 0.22293 0.37386 0.07325 0.0
H1010 H 0.19294 0.38775 0.06831 0.0
H1011 H 0.19209 0.42005 0.06789 0.0
H1012 H 0.2201 0.71264 0.43624 0.0
H1013 H 0.18815 0.70814 0.43537 0.0
H1014 H 0.1881 0.70308 0.56096 0.0
H1015 H 0.21996 0.70777 0.56237 0.0
H1016 H 0.16833 0.67914 0.46368 0.0
H1017 H 0.15106 0.7415 0.53977 0.0
H1018 H 0.17259 0.7376 0.51897 0.0
H1019 H 0.16682 0.72805 0.56536 0.0
C1020 C 0.21332 0.71066 0.46375 0.0
C1021 C 0.22262 0.71073 0.49943 0.0
C1022 C 0.19506 0.70804 0.46313 0.0
C1023 C 0.18578 0.70552 0.49812 0.0
C1024 C 0.19501 0.70533 0.5337 0.0
H1025 H 0.07633 0.69185 0.56069 0.0
H1026 H 0.1086 0.69219 0.5593 0.0
C1027 C 0.21324 0.70797 0.53439 0.0
C1028 C 0.16644 0.70304 0.49748 0.0
H1029 H 0.12787 0.72098 0.52992 0.0
C1030 C 0.15944 0.6883 0.478 0.0
C1031 C 0.15494 0.71506 0.51614 0.0
C1032 C 0.16168 0.73154 0.53595 0.0
C1033 C 0.1412 0.68507 0.47741 0.0
C1034 C 0.12974 0.69702 0.49638 0.0
C1035 C 0.13674 0.71179 0.51564 0.0
C1036 C 0.11037 0.69469 0.49641 0.0
C1037 C 0.13435 0.66875 0.45723 0.0
C1038 C 0.10073 0.69573 0.46141 0.0
C1039 C 0.08229 0.6956 0.46212 0.0
C1040 C 0.07322 0.69458 0.4979 0.0
C1041 C 0.08295 0.69288 0.53274 0.0
C1042 C 0.10136 0.693 0.53199 0.0
H1043 H 0.14496 0.65886 0.45248 0.0
H1044 H 0.12362 0.66252 0.47451 0.0
H1045 H 0.12887 0.67248 0.42827 0.0
H1046 H 0.10745 0.69738 0.43372 0.0
H1047 H 0.07515 0.69716 0.43487 0.0
H1048 H 0.77815 0.71944 0.05788 0.0
H1049 H 0.78204 0.68745 0.05633 0.0
H1050 H 0.7934 0.68997 0.93289 0.0
H1051 H 0.78913 0.72191 0.93388 0.0
H1052 H 0.77042 0.66405 0.94949 0.0
H1053 H 0.82761 0.65986 0.0502 0.0
H1054 H 0.80915 0.67112 0.07149 0.0
H1055 H 0.82008 0.6805 0.02964 0.0
C1056 C 0.78154 0.71322 0.0304 0.0
C1057 C 0.78335 0.72325 0.99601 0.0
C1058 C 0.78389 0.69494 0.02965 0.0
C1059 C 0.78835 0.68639 0.99466 0.0
C1060 C 0.79006 0.69633 0.96025 0.0
H1061 H 0.82189 0.57616 0.98413 0.0
H1062 H 0.82086 0.60841 0.97984 0.0
C1063 C 0.78757 0.71459 0.96088 0.0
C1064 C 0.79055 0.66698 0.99359 0.0
H1065 H 0.81283 0.63272 0.03582 0.0
C1066 C 0.77979 0.65721 0.96814 0.0
C1067 C 0.803 0.65811 0.01743 0.0
C1068 C 0.81575 0.66795 0.04343 0.0
C1069 C 0.78078 0.63874 0.9667 0.0
C1070 C 0.79252 0.62982 0.99214 0.0
C1071 C 0.80367 0.6396 0.01671 0.0
C1072 C 0.79313 0.61032 0.9943 0.0
C1073 C 0.76932 0.62901 0.93772 0.0
C1074 C 0.77795 0.60077 0.00433 0.0
C1075 C 0.77843 0.58239 0.00631 0.0
C1076 C 0.7942 0.57318 0.99888 0.0
C1077 C 0.80948 0.58283 0.98946 0.0
C1078 C 0.80895 0.60124 0.98726 0.0
H1079 H 0.76542 0.63764 0.91288 0.0
H1080 H 0.77618 0.61721 0.92594 0.0
H1081 H 0.75707 0.62458 0.95252 0.0
H1082 H 0.7657 0.60754 0.01071 0.0
H1083 H 0.76636 0.57539 0.0132 0.0
H1084 H 0.77492 0.28284 0.55994 0.0
H1085 H 0.80694 0.2865 0.55867 0.0
H1086 H 0.80612 0.28575 0.43262 0.0
H1087 H 0.77407 0.28229 0.43338 0.0
H1088 H 0.83199 0.26383 0.52488 0.0
H1089 H 0.83421 0.33075 0.45828 0.0
H1090 H 0.81435 0.32157 0.47917 0.0
H1091 H 0.82152 0.3148 0.43144 0.0
C1092 C 0.7815 0.28348 0.53188 0.0
C1093 C 0.77188 0.28231 0.49674 0.0
C1094 C 0.7998 0.28559 0.53126 0.0
C1095 C 0.80881 0.28667 0.49557 0.0
C1096 C 0.79934 0.28531 0.46045 0.0
H1097 H 0.91961 0.29363 0.43403 0.0
H1098 H 0.8873 0.29244 0.4334 0.0
C1099 C 0.78103 0.28321 0.461 0.0
C1100 C 0.82822 0.28863 0.49521 0.0
H1101 H 0.86159 0.31592 0.46613 0.0
C1102 C 0.83848 0.27525 0.5122 0.0
C1103 C 0.83658 0.30353 0.47848 0.0
C1104 C 0.82613 0.31858 0.46108 0.0
C1105 C 0.85694 0.27624 0.51251 0.0
C1106 C 0.86531 0.29117 0.49598 0.0
C1107 C 0.85508 0.30452 0.4788 0.0
C1108 C 0.88471 0.29309 0.49637 0.0
C1109 C 0.86737 0.26115 0.52987 0.0
C1110 C 0.89384 0.29435 0.53195 0.0
C1111 C 0.91224 0.2951 0.53241 0.0
C1112 C 0.92183 0.29469 0.49725 0.0
C1113 C 0.91259 0.2941 0.46157 0.0
C1114 C 0.89416 0.29333 0.46115 0.0
H1115 H 0.85928 0.24897 0.53253 0.0
H1116 H 0.87917 0.25817 0.51184 0.0
H1117 H 0.87194 0.26488 0.55958 0.0
H1118 H 0.88672 0.29456 0.55939 0.0
H1119 H 0.91898 0.29589 0.56032 0.0
H1120 H 0.71881 0.21931 0.44387 0.0
H1121 H 0.71536 0.18731 0.44727 0.0
H1122 H 0.70176 0.19117 0.56939 0.0
H1123 H 0.7056 0.22317 0.5666 0.0
H1124 H 0.72533 0.16535 0.55657 0.0
H1125 H 0.67015 0.15913 0.45119 0.0
H1126 H 0.68873 0.17049 0.43066 0.0
H1127 H 0.67698 0.18011 0.47108 0.0
C1128 C 0.71502 0.21339 0.47145 0.0
C1129 C 0.71245 0.22382 0.50495 0.0
C1130 C 0.71292 0.1951 0.47325 0.0
C1131 C 0.70794 0.18691 0.50837 0.0
C1132 C 0.70549 0.19725 0.54192 0.0
H1133 H 0.67723 0.0757 0.51693 0.0
H1134 H 0.67714 0.10792 0.5222 0.0
C1135 C 0.70772 0.21553 0.54026 0.0
C1136 C 0.70603 0.16749 0.51047 0.0
H1137 H 0.68547 0.13243 0.46747 0.0
C1138 C 0.71649 0.15816 0.53736 0.0
C1139 C 0.69424 0.15816 0.48591 0.0
C1140 C 0.68175 0.1675 0.45838 0.0
C1141 C 0.71596 0.13968 0.53937 0.0
C1142 C 0.705 0.1303 0.5131 0.0
C1143 C 0.69404 0.13965 0.48723 0.0
C1144 C 0.70511 0.11079 0.51113 0.0
C1145 C 0.7271 0.13042 0.56974 0.0
C1146 C 0.72082 0.10177 0.50279 0.0
C1147 C 0.72096 0.0834 0.50025 0.0
C1148 C 0.70532 0.07367 0.5054 0.0
C1149 C 0.68955 0.08277 0.51336 0.0
C1150 C 0.68944 0.10118 0.51612 0.0
H1151 H 0.73009 0.13924 0.59484 0.0
H1152 H 0.72043 0.11839 0.58094 0.0
H1153 H 0.73984 0.12646 0.55641 0.0
H1154 H 0.73298 0.10896 0.49795 0.0
H1155 H 0.73339 0.07683 0.49455 0.0
H1156 H 0.2767 0.21887 0.94088 0.0
H1157 H 0.30862 0.21444 0.94254 0.0
H1158 H 0.30605 0.20329 0.06611 0.0
H1159 H 0.27419 0.20808 0.06502 0.0
H1160 H 0.33243 0.22572 0.04912 0.0
H1161 H 0.33524 0.16825 0.9494 0.0
H1162 H 0.32428 0.18687 0.92784 0.0
H1163 H 0.31482 0.17622 0.96997 0.0
C1164 C 0.2829 0.21544 0.96842 0.0
C1165 C 0.27286 0.21381 0.00281 0.0
C1166 C 0.30113 0.21277 0.96924 0.0
C1167 C 0.30964 0.20817 0.00428 0.0
C1168 C 0.29971 0.20671 0.03871 0.0
H1169 H 0.41981 0.17352 0.01348 0.0
H1170 H 0.38757 0.17461 0.01885 0.0
C1171 C 0.2815 0.20951 0.03801 0.0
C1172 C 0.329 0.20557 0.00536 0.0
H1173 H 0.36271 0.18262 0.96313 0.0
C1174 C 0.33904 0.21619 0.03057 0.0
C1175 C 0.33756 0.1929 0.98169 0.0
C1176 C 0.32741 0.18028 0.95601 0.0
C1177 C 0.35748 0.2149 0.03178 0.0
C1178 C 0.36611 0.20298 0.00639 0.0
C1179 C 0.35606 0.19191 0.9822 0.0
C1180 C 0.38558 0.20227 0.00355 0.0
C1181 C 0.36753 0.22629 0.06036 0.0
C1182 C 0.39506 0.21738 0.99266 0.0
C1183 C 0.4134 0.21686 0.99 0.0
C1184 C 0.42266 0.20112 0.9976 0.0
C1185 C 0.4131 0.1859 0.00792 0.0
C1186 C 0.3947 0.18646 0.01077 0.0
H1187 H 0.3591 0.23031 0.08537 0.0
H1188 H 0.37933 0.21931 0.07193 0.0
H1189 H 0.37199 0.23848 0.0453 0.0
H1190 H 0.38825 0.22961 0.98615 0.0
H1191 H 0.42034 0.22889 0.98248 0.0
H1192 H 0.27527 0.77548 0.44082 0.0
H1193 H 0.27876 0.80752 0.44256 0.0
H1194 H 0.28931 0.80511 0.56644 0.0
H1195 H 0.28542 0.77311 0.56525 0.0
H1196 H 0.26652 0.83106 0.54896 0.0
H1197 H 0.32427 0.83506 0.45025 0.0
H1198 H 0.30591 0.82385 0.42833 0.0
H1199 H 0.31659 0.81446 0.47057 0.0
C1200 C 0.27836 0.78174 0.46846 0.0
C1201 C 0.2801 0.77171 0.50289 0.0
C1202 C 0.28048 0.80005 0.46932 0.0
C1203 C 0.28466 0.80864 0.50447 0.0
C1204 C 0.2862 0.79871 0.53896 0.0
H1205 H 0.31872 0.91868 0.5159 0.0
H1206 H 0.31745 0.88644 0.52019 0.0
C1207 C 0.28393 0.78043 0.53821 0.0
C1208 C 0.28687 0.82806 0.50555 0.0
H1209 H 0.30952 0.86224 0.46417 0.0
C1210 C 0.27602 0.83787 0.53064 0.0
C1211 C 0.29949 0.83689 0.48216 0.0
C1212 C 0.31236 0.82701 0.45662 0.0
C1213 C 0.27708 0.85633 0.53216 0.0
C1214 C 0.289 0.86522 0.50717 0.0
C1215 C 0.30024 0.85539 0.48294 0.0
C1216 C 0.28975 0.88473 0.50511 0.0
C1217 C 0.26552 0.8661 0.56081 0.0
C1218 C 0.27466 0.89439 0.49475 0.0
C1219 C 0.27528 0.91277 0.49279 0.0
C1220 C 0.29109 0.92187 0.50054 0.0
C1221 C 0.30628 0.91211 0.51032 0.0
C1222 C 0.30561 0.8937 0.51251 0.0
H1223 H 0.26148 0.85747 0.58551 0.0
H1224 H 0.27238 0.87786 0.57283 0.0
H1225 H 0.25336 0.87058 0.54564 0.0
H1226 H 0.26238 0.88771 0.48808 0.0
H1227 H 0.26328 0.91985 0.48563 0.0
H1228 H 0.72083 0.78289 0.9349 0.0
H1229 H 0.68883 0.78677 0.9356 0.0
H1230 H 0.68909 0.78497 0.06162 0.0
H1231 H 0.72111 0.78129 0.06143 0.0
H1232 H 0.66336 0.76416 0.96788 0.0
H1233 H 0.66158 0.83043 0.03711 0.0
H1234 H 0.68144 0.82121 0.01633 0.0
H1235 H 0.674 0.81417 0.06373 0.0
C1236 C 0.71413 0.78334 0.96283 0.0
C1237 C 0.72359 0.78182 0.99813 0.0
C1238 C 0.69584 0.78558 0.96313 0.0
C1239 C 0.68667 0.78644 0.99866 0.0
C1240 C 0.69599 0.78471 0.03392 0.0
H1241 H 0.57639 0.79329 0.06228 0.0
H1242 H 0.60868 0.79199 0.06161 0.0
C1243 C 0.71429 0.78247 0.0337 0.0
C1244 C 0.66728 0.78861 0.99873 0.0
H1245 H 0.63409 0.81577 0.02919 0.0
C1246 C 0.65694 0.77548 0.98108 0.0
C1247 C 0.65902 0.80338 0.01608 0.0
C1248 C 0.66955 0.8182 0.0341 0.0
C1249 C 0.63847 0.77658 0.98089 0.0
C1250 C 0.6302 0.79134 0.99826 0.0
C1251 C 0.64053 0.80448 0.01591 0.0
C1252 C 0.61079 0.79327 0.9986 0.0
C1253 C 0.62795 0.76173 0.9629 0.0
C1254 C 0.60139 0.79488 0.96342 0.0
C1255 C 0.58298 0.7957 0.9637 0.0
C1256 C 0.57367 0.795 -0.00079 0.0
C1257 C 0.58319 0.794 0.03449 0.0
C1258 C 0.60161 0.79317 0.03416 0.0
H1259 H 0.636 0.74959 0.95935 0.0
H1260 H 0.61623 0.75854 0.98104 0.0
H1261 H 0.62324 0.76586 0.93354 0.0
H1262 H 0.60829 0.79535 0.93573 0.0
H1263 H 0.57603 0.79679 0.9361 0.0
loop_
_geom_bond_atom_site_label_1
_geom_bond_atom_site_label_2
_geom_bond_distance
_geom_bond_site_symmetry_2
_ccdc_geom_bond_type
Sc0 O3 2.033 . S
Sc0 O10 2.105 . S
Sc0 O13 2.105 . S
Sc0 O16 2.105 . S
Sc0 O19 2.105 . S
Sc1 O3 2.025 . S
Sc1 O11 2.111 . S
Sc1 O15 2.098 1_554 S
Sc1 O17 2.111 . S
Sc1 O21 2.099 1_554 S
Sc2 O3 2.017 1_556 S
Sc2 O12 2.105 . S
Sc2 O14 2.105 . S
Sc2 O18 2.105 . S
Sc2 O20 2.105 . S
O3 Sc0 2.033 . S
O3 Sc1 2.025 . S
O3 Sc2 2.017 1_554 S
C4 O10 1.274 . S
C4 O20 1.262 1_554 S
C5 O11 1.268 . S
C5 O19 1.268 . S
C6 O12 1.268 . S
C6 O21 1.268 . S
C7 O13 1.268 . S
C7 O17 1.268 . S
C8 O14 1.258 1_554 S
C8 O16 1.278 . S
C9 O15 1.268 . S
C9 O18 1.268 . S
O10 Sc0 2.105 . S
O10 C4 1.274 . S
O11 Sc1 2.111 . S
O11 C5 1.268 . S
O12 Sc2 2.105 . S
O12 C6 1.268 . S
O13 Sc0 2.105 . S
O13 C7 1.268 . S
O14 Sc2 2.105 . S
O14 C8 1.258 1_556 S
O15 Sc1 2.098 1_556 S
O15 C9 1.268 . S
O16 Sc0 2.105 . S
O16 C8 1.278 . S
O17 Sc1 2.111 . S
O17 C7 1.268 . S
O18 Sc2 2.105 . S
O18 C9 1.268 . S
O19 Sc0 2.105 . S
O19 C5 1.268 . S
O20 Sc2 2.105 . S
O20 C4 1.262 1_556 S
O21 Sc1 2.099 1_556 S
O21 C6 1.268 . S
Sc22 O25 2.025 . S
Sc22 O32 2.105 . S
Sc22 O35 2.105 . S
Sc22 O38 2.105 . S
Sc22 O41 2.105 . S
Sc23 O25 2.025 . S
Sc23 O33 2.105 . S
Sc23 O37 2.105 . S
Sc23 O39 2.105 . S
Sc23 O43 2.105 . S
Sc24 O25 2.025 . S
Sc24 O34 2.105 . S
Sc24 O36 2.105 . S
Sc24 O40 2.105 . S
Sc24 O42 2.105 . S
O25 Sc22 2.025 . S
O25 Sc23 2.025 . S
O25 Sc24 2.025 . S
C26 O32 1.268 . S
C26 O42 1.268 . S
C27 O33 1.268 . S
C27 O41 1.268 . S
C28 O34 1.268 . S
C28 O43 1.268 . S
C29 O35 1.268 . S
C29 O39 1.268 . S
C30 O36 1.268 . S
C30 O38 1.268 . S
C31 O37 1.268 . S
C31 O40 1.268 . S
O32 Sc22 2.105 . S
O32 C26 1.268 . S
O33 Sc23 2.105 . S
O33 C27 1.268 . S
O34 Sc24 2.105 . S
O34 C28 1.268 . S
O35 Sc22 2.105 . S
O35 C29 1.268 . S
O36 Sc24 2.105 . S
O36 C30 1.268 . S
O37 Sc23 2.105 . S
O37 C31 1.268 . S
O38 Sc22 2.105 . S
O38 C30 1.268 . S
O39 Sc23 2.105 . S
O39 C29 1.268 . S
O40 Sc24 2.105 . S
O40 C31 1.268 . S
O41 Sc22 2.105 . S
O41 C27 1.268 . S
O42 Sc24 2.105 . S
O42 C26 1.268 . S
O43 Sc23 2.105 . S
O43 C28 1.268 . S
Sc44 O47 2.017 1_556 S
Sc44 O54 2.105 . S
Sc44 O57 2.105 . S
Sc44 O60 2.105 . S
Sc44 O63 2.105 . S
Sc45 O47 2.025 . S
Sc45 O55 2.099 1_554 S
Sc45 O59 2.111 . S
Sc45 O61 2.098 1_554 S
Sc45 O65 2.111 . S
Sc46 O47 2.033 . S
Sc46 O56 2.105 . S
Sc46 O58 2.105 . S
Sc46 O62 2.105 . S
Sc46 O64 2.105 . S
O47 Sc44 2.017 1_554 S
O47 Sc45 2.025 . S
O47 Sc46 2.033 . S
C48 O54 1.262 1_554 S
C48 O64 1.274 . S
C49 O55 1.268 . S
C49 O63 1.268 . S
C50 O56 1.268 . S
C50 O65 1.268 . S
C51 O57 1.268 . S
C51 O61 1.268 . S
C52 O58 1.278 . S
C52 O60 1.258 1_554 S
C53 O59 1.268 . S
C53 O62 1.268 . S
O54 Sc44 2.105 . S
O54 C48 1.262 1_556 S
O55 Sc45 2.099 1_556 S
O55 C49 1.268 . S
O56 Sc46 2.105 . S
O56 C50 1.268 . S
O57 Sc44 2.105 . S
O57 C51 1.268 . S
O58 Sc46 2.105 . S
O58 C52 1.278 . S
O59 Sc45 2.111 . S
O59 C53 1.268 . S
O60 Sc44 2.105 . S
O60 C52 1.258 1_556 S
O61 Sc45 2.098 1_556 S
O61 C51 1.268 . S
O62 Sc46 2.105 . S
O62 C53 1.268 . S
O63 Sc44 2.105 . S
O63 C49 1.268 . S
O64 Sc46 2.105 . S
O64 C48 1.274 . S
O65 Sc45 2.111 . S
O65 C50 1.268 . S
Sc66 O69 2.025 . S
Sc66 O76 2.105 . S
Sc66 O79 2.105 . S
Sc66 O82 2.105 . S
Sc66 O85 2.105 . S
Sc67 O69 2.025 . S
Sc67 O77 2.105 . S
Sc67 O81 2.105 . S
Sc67 O83 2.105 . S
Sc67 O87 2.105 . S
Sc68 O69 2.025 . S
Sc68 O78 2.105 . S
Sc68 O80 2.105 . S
Sc68 O84 2.105 . S
Sc68 O86 2.105 . S
O69 Sc66 2.025 . S
O69 Sc67 2.025 . S
O69 Sc68 2.025 . S
C70 O76 1.268 . S
C70 O86 1.268 . S
C71 O77 1.268 . S
C71 O85 1.268 . S
C72 O78 1.268 . S
C72 O87 1.268 . S
C73 O79 1.268 . S
C73 O83 1.268 . S
C74 O80 1.268 . S
C74 O82 1.268 . S
C75 O81 1.268 . S
C75 O84 1.268 . S
O76 Sc66 2.105 . S
O76 C70 1.268 . S
O77 Sc67 2.105 . S
O77 C71 1.268 . S
O78 Sc68 2.105 . S
O78 C72 1.268 . S
O79 Sc66 2.105 . S
O79 C73 1.268 . S
O80 Sc68 2.105 . S
O80 C74 1.268 . S
O81 Sc67 2.105 . S
O81 C75 1.268 . S
O82 Sc66 2.105 . S
O82 C74 1.268 . S
O83 Sc67 2.105 . S
O83 C73 1.268 . S
O84 Sc68 2.105 . S
O84 C75 1.268 . S
O85 Sc66 2.105 . S
O85 C71 1.268 . S
O86 Sc68 2.105 . S
O86 C70 1.268 . S
O87 Sc67 2.105 . S
O87 C72 1.268 . S
C88 C89 1.386 . S
C88 C90 1.397 . S
C88 H112 0.931 . S
C89 C88 1.386 . S
C89 C93 1.397 . S
C90 C88 1.397 . S
C90 C91 1.384 . S
C90 H113 0.930 . S
C91 C90 1.384 . S
C91 C92 1.377 . S
C91 C94 1.481 . S
C92 C91 1.377 . S
C92 C93 1.389 . S
C92 H114 0.929 . S
C93 C89 1.397 . S
C93 C92 1.389 . S
C93 H115 0.931 . S
C94 C91 1.481 . S
C94 C95 1.387 . S
C94 C99 1.390 1_556 S
C95 C94 1.387 . S
C95 C96 1.401 1_556 S
C95 H116 0.930 . S
C96 C95 1.401 1_554 S
C96 C97 1.376 . S
C96 C105 1.511 . S
C97 C96 1.376 . S
C97 C98 1.392 . S
C97 H118 0.931 . S
C98 C97 1.392 . S
C98 C99 1.361 . S
C98 C100 1.500 . S
C99 C94 1.390 1_554 S
C99 C98 1.361 . S
C99 H117 0.932 . S
C100 C98 1.500 . S
C100 C101 1.371 . S
C100 C102 1.365 . S
C101 C100 1.371 . S
C101 C111 1.386 . S
C101 H119 0.931 . S
C102 C100 1.365 . S
C102 C103 1.409 . S
C102 H120 0.929 . S
C103 C102 1.409 . S
C103 C104 1.380 . S
C103 H121 0.930 . S
C104 C103 1.380 . S
C104 C111 1.357 . S
C105 C96 1.511 . S
C105 C106 1.341 1_554 S
C105 C107 1.371 . S
C106 C105 1.341 1_556 S
C106 C110 1.394 . S
C106 H122 0.930 . S
C107 C105 1.371 . S
C107 C108 1.392 . S
C107 H123 0.931 . S
C108 C107 1.392 . S
C108 C109 1.351 . S
C108 H126 0.932 . S
C109 C108 1.351 . S
C109 C110 1.316 1_554 S
C110 C106 1.394 . S
C110 C109 1.316 1_556 S
C110 H125 0.929 . S
C111 C101 1.386 . S
C111 C104 1.357 . S
C111 H124 0.928 . S
H112 C88 0.931 . S
H113 C90 0.930 . S
H114 C92 0.929 . S
H115 C93 0.931 . S
H116 C95 0.930 . S
H117 C99 0.932 . S
H118 C97 0.931 . S
H119 C101 0.931 . S
H120 C102 0.929 . S
H121 C103 0.930 . S
H122 C106 0.930 . S
H123 C107 0.931 . S
H124 C111 0.928 . S
H125 C110 0.929 . S
H126 C108 0.932 . S
C127 C128 1.386 . S
C127 C129 1.397 . S
C127 H151 0.931 . S
C128 C127 1.386 . S
C128 C132 1.397 . S
C129 C127 1.397 . S
C129 C130 1.384 . S
C129 H152 0.930 . S
C130 C129 1.384 . S
C130 C131 1.377 . S
C130 C133 1.481 . S
C131 C130 1.377 . S
C131 C132 1.389 . S
C131 H153 0.929 . S
C132 C128 1.397 . S
C132 C131 1.389 . S
C132 H154 0.931 . S
C133 C130 1.481 . S
C133 C134 1.387 . S
C133 C138 1.390 . S
C134 C133 1.387 . S
C134 C135 1.435 . S
C134 H155 0.930 . S
C135 C134 1.435 . S
C135 C136 1.412 . S
C135 C144 1.447 1_655 S
C136 C135 1.412 . S
C136 C137 1.392 . S
C136 H157 0.931 . S
C137 C136 1.392 . S
C137 C138 1.361 . S
C137 C139 1.500 . S
C138 C133 1.390 . S
C138 C137 1.361 . S
C138 H156 0.931 . S
C139 C137 1.500 . S
C139 C140 1.371 . S
C139 C141 1.365 . S
C140 C139 1.371 . S
C140 C150 1.386 . S
C140 H158 0.931 . S
C141 C139 1.365 . S
C141 C142 1.409 . S
C141 H159 0.929 . S
C142 C141 1.409 . S
C142 C143 1.380 . S
C142 H160 0.930 . S
C143 C142 1.380 . S
C143 C150 1.357 . S
C144 C135 1.447 1_455 S
C144 C145 1.341 . S
C144 C146 1.371 . S
C145 C144 1.341 . S
C145 C149 1.394 . S
C145 H161 0.930 . S
C146 C144 1.371 . S
C146 C147 1.392 . S
C146 H162 0.931 . S
C147 C146 1.392 . S
C147 C148 1.331 . S
C147 H165 0.932 . S
C148 C147 1.331 . S
C148 C149 1.336 . S
C149 C145 1.394 . S
C149 C148 1.336 . S
C149 H164 0.929 . S
C150 C140 1.386 . S
C150 C143 1.357 . S
C150 H163 0.928 . S
H151 C127 0.931 . S
H152 C129 0.930 . S
H153 C131 0.929 . S
H154 C132 0.931 . S
H155 C134 0.930 . S
H156 C138 0.931 . S
H157 C136 0.931 . S
H158 C140 0.931 . S
H159 C141 0.929 . S
H160 C142 0.930 . S
H161 C145 0.930 . S
H162 C146 0.931 . S
H163 C150 0.928 . S
H164 C149 0.929 . S
H165 C147 0.932 . S
C166 C167 1.386 . S
C166 C168 1.397 . S
C166 H190 0.931 . S
C167 C166 1.386 . S
C167 C171 1.397 . S
C168 C166 1.397 . S
C168 C169 1.384 . S
C168 H191 0.930 . S
C169 C168 1.384 . S
C169 C170 1.377 . S
C169 C172 1.481 . S
C170 C169 1.377 . S
C170 C171 1.389 . S
C170 H192 0.929 . S
C171 C167 1.397 . S
C171 C170 1.389 . S
C171 H193 0.931 . S
C172 C169 1.481 . S
C172 C173 1.387 . S
C172 C177 1.383 1_554 S
C173 C172 1.387 . S
C173 C174 1.401 1_554 S
C173 H194 0.930 . S
C174 C173 1.401 1_556 S
C174 C175 1.376 . S
C174 C183 1.511 . S
C175 C174 1.376 . S
C175 C176 1.392 . S
C175 H196 0.931 . S
C176 C175 1.392 . S
C176 C177 1.369 . S
C176 C178 1.500 . S
C177 C172 1.383 1_556 S
C177 C176 1.369 . S
C177 H195 0.931 . S
C178 C176 1.500 . S
C178 C179 1.371 . S
C178 C180 1.365 . S
C179 C178 1.371 . S
C179 C189 1.386 . S
C179 H197 0.931 . S
C180 C178 1.365 . S
C180 C181 1.409 . S
C180 H198 0.929 . S
C181 C180 1.409 . S
C181 C182 1.380 . S
C181 H199 0.930 . S
C182 C181 1.380 . S
C182 C189 1.357 . S
C183 C174 1.511 . S
C183 C184 1.341 1_556 S
C183 C185 1.371 . S
C184 C183 1.341 1_554 S
C184 C188 1.394 . S
C184 H200 0.930 . S
C185 C183 1.371 . S
C185 C186 1.392 . S
C185 H201 0.931 . S
C186 C185 1.392 . S
C186 C187 1.331 . S
C186 H204 0.932 . S
C187 C186 1.331 . S
C187 C188 1.336 1_556 S
C188 C184 1.394 . S
C188 C187 1.336 1_554 S
C188 H203 0.929 . S
C189 C179 1.386 . S
C189 C182 1.357 . S
C189 H202 0.928 . S
H190 C166 0.931 . S
H191 C168 0.930 . S
H192 C170 0.929 . S
H193 C171 0.931 . S
H194 C173 0.930 . S
H195 C177 0.931 . S
H196 C175 0.931 . S
H197 C179 0.931 . S
H198 C180 0.929 . S
H199 C181 0.930 . S
H200 C184 0.930 . S
H201 C185 0.931 . S
H202 C189 0.928 . S
H203 C188 0.929 . S
H204 C186 0.932 . S
C205 C206 1.386 . S
C205 C207 1.397 . S
C205 H229 0.931 . S
C206 C205 1.386 . S
C206 C210 1.397 . S
C207 C205 1.397 . S
C207 C208 1.384 . S
C207 H230 0.930 . S
C208 C207 1.384 . S
C208 C209 1.377 . S
C208 C211 1.481 . S
C209 C208 1.377 . S
C209 C210 1.389 . S
C209 H231 0.929 . S
C210 C206 1.397 . S
C210 C209 1.389 . S
C210 H232 0.931 . S
C211 C208 1.481 . S
C211 C212 1.387 . S
C211 C216 1.390 . S
C212 C211 1.387 . S
C212 C213 1.429 . S
C212 H233 0.930 . S
C213 C212 1.429 . S
C213 C214 1.406 . S
C213 C222 1.456 1_455 S
C214 C213 1.406 . S
C214 C215 1.392 . S
C214 H235 0.931 . S
C215 C214 1.392 . S
C215 C216 1.361 . S
C215 C217 1.500 . S
C216 C211 1.390 . S
C216 C215 1.361 . S
C216 H234 0.931 . S
C217 C215 1.500 . S
C217 C218 1.371 . S
C217 C219 1.365 . S
C218 C217 1.371 . S
C218 C228 1.386 . S
C218 H236 0.931 . S
C219 C217 1.365 . S
C219 C220 1.409 . S
C219 H237 0.929 . S
C220 C219 1.409 . S
C220 C221 1.380 . S
C220 H238 0.930 . S
C221 C220 1.380 . S
C221 C228 1.357 . S
C222 C213 1.456 1_655 S
C222 C223 1.341 . S
C222 C224 1.371 . S
C223 C222 1.341 . S
C223 C227 1.394 . S
C223 H239 0.930 . S
C224 C222 1.371 . S
C224 C225 1.392 . S
C224 H240 0.931 . S
C225 C224 1.392 . S
C225 C226 1.331 . S
C225 H243 0.932 . S
C226 C225 1.331 . S
C226 C227 1.336 . S
C227 C223 1.394 . S
C227 C226 1.336 . S
C227 H242 0.929 . S
C228 C218 1.386 . S
C228 C221 1.357 . S
C228 H241 0.928 . S
H229 C205 0.931 . S
H230 C207 0.930 . S
H231 C209 0.929 . S
H232 C210 0.931 . S
H233 C212 0.930 . S
H234 C216 0.931 . S
H235 C214 0.931 . S
H236 C218 0.931 . S
H237 C219 0.929 . S
H238 C220 0.930 . S
H239 C223 0.930 . S
H240 C224 0.931 . S
H241 C228 0.928 . S
H242 C227 0.929 . S
H243 C225 0.932 . S
C244 C245 1.386 . S
C244 C246 1.397 . S
C244 H268 0.931 . S
C245 C244 1.386 . S
C245 C249 1.397 . S
C246 C244 1.397 . S
C246 C247 1.384 . S
C246 H269 0.930 . S
C247 C246 1.384 . S
C247 C248 1.377 . S
C247 C250 1.481 . S
C248 C247 1.377 . S
C248 C249 1.389 . S
C248 H270 0.929 . S
C249 C245 1.397 . S
C249 C248 1.389 . S
C249 H271 0.931 . S
C250 C247 1.481 . S
C250 C251 1.387 . S
C250 C255 1.390 . S
C251 C250 1.387 . S
C251 C252 1.435 . S
C251 H272 0.930 . S
C252 C251 1.435 . S
C252 C253 1.412 . S
C252 C261 1.447 1_565 S
C253 C252 1.412 . S
C253 C254 1.392 . S
C253 H274 0.931 . S
C254 C253 1.392 . S
C254 C255 1.361 . S
C254 C256 1.500 . S
C255 C250 1.390 . S
C255 C254 1.361 . S
C255 H273 0.931 . S
C256 C254 1.500 . S
C256 C257 1.371 . S
C256 C258 1.365 . S
C257 C256 1.371 . S
C257 C267 1.386 . S
C257 H275 0.931 . S
C258 C256 1.365 . S
C258 C259 1.409 . S
C258 H276 0.929 . S
C259 C258 1.409 . S
C259 C260 1.380 . S
C259 H277 0.930 . S
C260 C259 1.380 . S
C260 C267 1.357 . S
C261 C252 1.447 1_545 S
C261 C262 1.341 . S
C261 C263 1.371 . S
C262 C261 1.341 . S
C262 C266 1.394 . S
C262 H278 0.930 . S
C263 C261 1.371 . S
C263 C264 1.392 . S
C263 H279 0.931 . S
C264 C263 1.392 . S
C264 C265 1.331 . S
C264 H282 0.932 . S
C265 C264 1.331 . S
C265 C266 1.336 . S
C266 C262 1.394 . S
C266 C265 1.336 . S
C266 H281 0.929 . S
C267 C257 1.386 . S
C267 C260 1.357 . S
C267 H280 0.928 . S
H268 C244 0.931 . S
H269 C246 0.930 . S
H270 C248 0.929 . S
H271 C249 0.931 . S
H272 C251 0.930 . S
H273 C255 0.931 . S
H274 C253 0.931 . S
H275 C257 0.931 . S
H276 C258 0.929 . S
H277 C259 0.930 . S
H278 C262 0.930 . S
H279 C263 0.931 . S
H280 C267 0.928 . S
H281 C266 0.929 . S
H282 C264 0.932 . S
C283 C284 1.386 . S
C283 C285 1.397 . S
C283 H307 0.931 . S
C284 C283 1.386 . S
C284 C288 1.397 . S
C285 C283 1.397 . S
C285 C286 1.384 . S
C285 H308 0.930 . S
C286 C285 1.384 . S
C286 C287 1.377 . S
C286 C289 1.481 . S
C287 C286 1.377 . S
C287 C288 1.389 . S
C287 H309 0.929 . S
C288 C284 1.397 . S
C288 C287 1.389 . S
C288 H310 0.931 . S
C289 C286 1.481 . S
C289 C290 1.387 . S
C289 C294 1.383 1_554 S
C290 C289 1.387 . S
C290 C291 1.401 1_554 S
C290 H311 0.930 . S
C291 C290 1.401 1_556 S
C291 C292 1.376 . S
C291 C300 1.511 . S
C292 C291 1.376 . S
C292 C293 1.392 . S
C292 H313 0.931 . S
C293 C292 1.392 . S
C293 C294 1.368 . S
C293 C295 1.500 . S
C294 C289 1.383 1_556 S
C294 C293 1.368 . S
C294 H312 0.931 . S
C295 C293 1.500 . S
C295 C296 1.371 . S
C295 C297 1.365 . S
C296 C295 1.371 . S
C296 C306 1.386 . S
C296 H314 0.931 . S
C297 C295 1.365 . S
C297 C298 1.409 . S
C297 H315 0.929 . S
C298 C297 1.409 . S
C298 C299 1.380 . S
C298 H316 0.930 . S
C299 C298 1.380 . S
C299 C306 1.357 . S
C300 C291 1.511 . S
C300 C301 1.341 1_556 S
C300 C302 1.371 . S
C301 C300 1.341 1_554 S
C301 C305 1.394 . S
C301 H317 0.930 . S
C302 C300 1.371 . S
C302 C303 1.392 . S
C302 H318 0.931 . S
C303 C302 1.392 . S
C303 C304 1.331 . S
C303 H321 0.932 . S
C304 C303 1.331 . S
C304 C305 1.336 1_556 S
C305 C301 1.394 . S
C305 C304 1.336 1_554 S
C305 H320 0.929 . S
C306 C296 1.386 . S
C306 C299 1.357 . S
C306 H319 0.928 . S
H307 C283 0.931 . S
H308 C285 0.930 . S
H309 C287 0.929 . S
H310 C288 0.931 . S
H311 C290 0.930 . S
H312 C294 0.931 . S
H313 C292 0.931 . S
H314 C296 0.931 . S
H315 C297 0.929 . S
H316 C298 0.930 . S
H317 C301 0.930 . S
H318 C302 0.931 . S
H319 C306 0.928 . S
H320 C305 0.929 . S
H321 C303 0.932 . S
C322 C323 1.386 . S
C322 C324 1.397 . S
C322 H346 0.931 . S
C323 C322 1.386 . S
C323 C327 1.397 . S
C324 C322 1.397 . S
C324 C325 1.384 . S
C324 H347 0.930 . S
C325 C324 1.384 . S
C325 C326 1.377 . S
C325 C328 1.481 . S
C326 C325 1.377 . S
C326 C327 1.389 . S
C326 H348 0.929 . S
C327 C323 1.397 . S
C327 C326 1.389 . S
C327 H349 0.931 . S
C328 C325 1.481 . S
C328 C329 1.387 . S
C328 C333 1.390 . S
C329 C328 1.387 . S
C329 C330 1.429 . S
C329 H350 0.930 . S
C330 C329 1.429 . S
C330 C331 1.406 . S
C330 C339 1.456 1_545 S
C331 C330 1.406 . S
C331 C332 1.392 . S
C331 H352 0.931 . S
C332 C331 1.392 . S
C332 C333 1.361 . S
C332 C334 1.500 . S
C333 C328 1.390 . S
C333 C332 1.361 . S
C333 H351 0.931 . S
C334 C332 1.500 . S
C334 C335 1.371 . S
C334 C336 1.365 . S
C335 C334 1.371 . S
C335 C345 1.386 . S
C335 H353 0.931 . S
C336 C334 1.365 . S
C336 C337 1.409 . S
C336 H354 0.929 . S
C337 C336 1.409 . S
C337 C338 1.380 . S
C337 H355 0.930 . S
C338 C337 1.380 . S
C338 C345 1.357 . S
C339 C330 1.456 1_565 S
C339 C340 1.341 . S
C339 C341 1.371 . S
C340 C339 1.341 . S
C340 C344 1.394 . S
C340 H356 0.930 . S
C341 C339 1.371 . S
C341 C342 1.392 . S
C341 H357 0.931 . S
C342 C341 1.392 . S
C342 C343 1.331 . S
C342 H360 0.932 . S
C343 C342 1.331 . S
C343 C344 1.336 . S
C344 C340 1.394 . S
C344 C343 1.336 . S
C344 H359 0.929 . S
C345 C335 1.386 . S
C345 C338 1.357 . S
C345 H358 0.928 . S
H346 C322 0.931 . S
H347 C324 0.930 . S
H348 C326 0.929 . S
H349 C327 0.931 . S
H350 C329 0.930 . S
H351 C333 0.931 . S
H352 C331 0.931 . S
H353 C335 0.931 . S
H354 C336 0.929 . S
H355 C337 0.930 . S
H356 C340 0.930 . S
H357 C341 0.931 . S
H358 C345 0.928 . S
H359 C344 0.929 . S
H360 C342 0.932 . S
C361 C362 1.386 . S
C361 C363 1.397 . S
C361 H385 0.931 . S
C362 C361 1.386 . S
C362 C366 1.397 . S
C363 C361 1.397 . S
C363 C364 1.384 . S
C363 H386 0.930 . S
C364 C363 1.384 . S
C364 C365 1.377 . S
C364 C367 1.481 . S
C365 C364 1.377 . S
C365 C366 1.389 . S
C365 H387 0.929 . S
C366 C362 1.397 . S
C366 C365 1.389 . S
C366 H388 0.931 . S
C367 C364 1.481 . S
C367 C368 1.387 . S
C367 C372 1.390 1_556 S
C368 C367 1.387 . S
C368 C369 1.401 1_556 S
C368 H389 0.930 . S
C369 C368 1.401 1_554 S
C369 C370 1.376 . S
C369 C378 1.511 . S
C370 C369 1.376 . S
C370 C371 1.392 . S
C370 H391 0.931 . S
C371 C370 1.392 . S
C371 C372 1.361 . S
C371 C373 1.500 . S
C372 C367 1.390 1_554 S
C372 C371 1.361 . S
C372 H390 0.932 . S
C373 C371 1.500 . S
C373 C374 1.371 . S
C373 C375 1.365 . S
C374 C373 1.371 . S
C374 C384 1.386 . S
C374 H392 0.931 . S
C375 C373 1.365 . S
C375 C376 1.409 . S
C375 H393 0.929 . S
C376 C375 1.409 . S
C376 C377 1.380 . S
C376 H394 0.930 . S
C377 C376 1.380 . S
C377 C384 1.357 . S
C378 C369 1.511 . S
C378 C379 1.341 1_554 S
C378 C380 1.371 . S
C379 C378 1.341 1_556 S
C379 C383 1.394 . S
C379 H395 0.930 . S
C380 C378 1.371 . S
C380 C381 1.392 . S
C380 H396 0.931 . S
C381 C380 1.392 . S
C381 C382 1.351 . S
C381 H399 0.932 . S
C382 C381 1.351 . S
C382 C383 1.316 1_554 S
C383 C379 1.394 . S
C383 C382 1.316 1_556 S
C383 H398 0.929 . S
C384 C374 1.386 . S
C384 C377 1.357 . S
C384 H397 0.928 . S
H385 C361 0.931 . S
H386 C363 0.930 . S
H387 C365 0.929 . S
H388 C366 0.931 . S
H389 C368 0.930 . S
H390 C372 0.932 . S
H391 C370 0.931 . S
H392 C374 0.931 . S
H393 C375 0.929 . S
H394 C376 0.930 . S
H395 C379 0.930 . S
H396 C380 0.931 . S
H397 C384 0.928 . S
H398 C383 0.929 . S
H399 C381 0.932 . S
H400 C408 0.929 . S
H401 C410 0.930 . S
H402 C412 0.930 . S
H403 C415 0.929 . S
H404 C418 0.930 . S
H405 C420 0.960 . S
H406 C420 0.960 . S
H407 C420 0.960 . S
C408 H400 0.929 . S
C408 C409 1.377 . S
C408 C410 1.384 . S
C409 C408 1.377 . S
C409 C415 1.390 . S
C410 H401 0.930 . S
C410 C408 1.384 . S
C410 C411 1.372 . S
C411 C410 1.372 . S
C411 C412 1.400 . S
C411 C416 1.490 . S
C412 H402 0.930 . S
C412 C411 1.400 . S
C412 C415 1.386 . S
H413 C429 0.930 . S
H414 C430 0.931 . S
C415 H403 0.929 . S
C415 C409 1.390 . S
C415 C412 1.386 . S
C416 C411 1.490 . S
C416 C418 1.395 . S
C416 C419 1.403 . S
H417 C423 0.930 . S
C418 H404 0.930 . S
C418 C416 1.395 . S
C418 C421 1.403 . S
C419 C416 1.403 . S
C419 C420 1.524 . S
C419 C423 1.400 . S
C420 H405 0.960 . S
C420 H406 0.960 . S
C420 H407 0.960 . S
C420 C419 1.524 . S
C421 C418 1.403 . S
C421 C422 1.392 . S
C421 C425 1.495 . S
C422 C421 1.392 . S
C422 C423 1.385 . S
C422 C424 1.478 . S
C423 H417 0.930 . S
C423 C419 1.400 . S
C423 C422 1.385 . S
C424 C422 1.478 . S
C424 C426 1.381 . S
C424 C430 1.383 . S
C425 C421 1.495 . S
C425 H431 0.959 . S
C425 H432 0.961 . S
C425 H433 0.960 . S
C426 C424 1.381 . S
C426 C427 1.394 . S
C426 H434 0.930 . S
C427 C426 1.394 . S
C427 C428 1.383 . S
C427 H435 0.929 . S
C428 C427 1.383 . S
C428 C429 1.377 . S
C429 H413 0.930 . S
C429 C428 1.377 . S
C429 C430 1.379 . S
C430 H414 0.931 . S
C430 C424 1.383 . S
C430 C429 1.379 . S
H431 C425 0.959 . S
H432 C425 0.961 . S
H433 C425 0.960 . S
H434 C426 0.930 . S
H435 C427 0.929 . S
H436 C444 0.929 . S
H437 C446 0.930 . S
H438 C448 0.930 . S
H439 C451 0.929 . S
H440 C454 0.930 . S
H441 C456 0.960 . S
H442 C456 0.960 . S
H443 C456 0.960 . S
C444 H436 0.929 . S
C444 C445 1.377 . S
C444 C446 1.384 . S
C445 C444 1.377 . S
C445 C451 1.390 . S
C446 H437 0.930 . S
C446 C444 1.384 . S
C446 C447 1.372 . S
C447 C446 1.372 . S
C447 C448 1.400 . S
C447 C452 1.490 . S
C448 H438 0.930 . S
C448 C447 1.400 . S
C448 C451 1.386 . S
H449 C465 0.930 . S
H450 C466 0.931 . S
C451 H439 0.929 . S
C451 C445 1.390 . S
C451 C448 1.386 . S
C452 C447 1.490 . S
C452 C454 1.395 . S
C452 C455 1.403 . S
H453 C459 0.930 . S
C454 H440 0.930 . S
C454 C452 1.395 . S
C454 C457 1.403 . S
C455 C452 1.403 . S
C455 C456 1.524 . S
C455 C459 1.400 . S
C456 H441 0.960 . S
C456 H442 0.960 . S
C456 H443 0.960 . S
C456 C455 1.524 . S
C457 C454 1.403 . S
C457 C458 1.392 . S
C457 C461 1.495 . S
C458 C457 1.392 . S
C458 C459 1.385 . S
C458 C460 1.478 . S
C459 H453 0.930 . S
C459 C455 1.400 . S
C459 C458 1.385 . S
C460 C458 1.478 . S
C460 C462 1.381 . S
C460 C466 1.383 . S
C461 C457 1.495 . S
C461 H467 0.959 . S
C461 H468 0.961 . S
C461 H469 0.960 . S
C462 C460 1.381 . S
C462 C463 1.394 . S
C462 H470 0.930 . S
C463 C462 1.394 . S
C463 C464 1.383 . S
C463 H471 0.929 . S
C464 C463 1.383 . S
C464 C465 1.377 . S
C465 H449 0.930 . S
C465 C464 1.377 . S
C465 C466 1.379 . S
C466 H450 0.931 . S
C466 C460 1.383 . S
C466 C465 1.379 . S
H467 C461 0.959 . S
H468 C461 0.961 . S
H469 C461 0.960 . S
H470 C462 0.930 . S
H471 C463 0.929 . S
H472 C480 0.929 . S
H473 C482 0.930 . S
H474 C484 0.930 . S
H475 C487 0.929 . S
H476 C490 0.930 . S
H477 C492 0.960 . S
H478 C492 0.960 . S
H479 C492 0.960 . S
C480 H472 0.929 . S
C480 C481 1.377 . S
C480 C482 1.384 . S
C481 C480 1.377 . S
C481 C487 1.390 . S
C482 H473 0.930 . S
C482 C480 1.384 . S
C482 C483 1.372 . S
C483 C482 1.372 . S
C483 C484 1.400 . S
C483 C488 1.490 . S
C484 H474 0.930 . S
C484 C483 1.400 . S
C484 C487 1.386 . S
H485 C501 0.930 . S
H486 C502 0.931 . S
C487 H475 0.929 . S
C487 C481 1.390 . S
C487 C484 1.386 . S
C488 C483 1.490 . S
C488 C490 1.395 . S
C488 C491 1.403 . S
H489 C495 0.930 . S
C490 H476 0.930 . S
C490 C488 1.395 . S
C490 C493 1.403 . S
C491 C488 1.403 . S
C491 C492 1.524 . S
C491 C495 1.400 . S
C492 H477 0.960 . S
C492 H478 0.960 . S
C492 H479 0.960 . S
C492 C491 1.524 . S
C493 C490 1.403 . S
C493 C494 1.392 . S
C493 C497 1.495 . S
C494 C493 1.392 . S
C494 C495 1.385 . S
C494 C496 1.478 . S
C495 H489 0.930 . S
C495 C491 1.400 . S
C495 C494 1.385 . S
C496 C494 1.478 . S
C496 C498 1.381 . S
C496 C502 1.383 . S
C497 C493 1.495 . S
C497 H503 0.959 . S
C497 H504 0.961 . S
C497 H505 0.960 . S
C498 C496 1.381 . S
C498 C499 1.394 . S
C498 H506 0.930 . S
C499 C498 1.394 . S
C499 C500 1.383 . S
C499 H507 0.929 . S
C500 C499 1.383 . S
C500 C501 1.377 . S
C501 H485 0.930 . S
C501 C500 1.377 . S
C501 C502 1.379 . S
C502 H486 0.931 . S
C502 C496 1.383 . S
C502 C501 1.379 . S
H503 C497 0.959 . S
H504 C497 0.961 . S
H505 C497 0.960 . S
H506 C498 0.930 . S
H507 C499 0.929 . S
H508 C516 0.929 . S
H509 C518 0.930 . S
H510 C520 0.930 . S
H511 C523 0.929 . S
H512 C526 0.930 . S
H513 C528 0.960 . S
H514 C528 0.960 . S
H515 C528 0.960 . S
C516 H508 0.929 . S
C516 C517 1.377 . S
C516 C518 1.384 . S
C517 C516 1.377 . S
C517 C523 1.390 . S
C518 H509 0.930 . S
C518 C516 1.384 . S
C518 C519 1.372 . S
C519 C518 1.372 . S
C519 C520 1.400 . S
C519 C524 1.490 . S
C520 H510 0.930 . S
C520 C519 1.400 . S
C520 C523 1.386 . S
H521 C537 0.930 . S
H522 C538 0.931 . S
C523 H511 0.929 . S
C523 C517 1.390 . S
C523 C520 1.386 . S
C524 C519 1.490 . S
C524 C526 1.395 . S
C524 C527 1.403 . S
H525 C531 0.930 . S
C526 H512 0.930 . S
C526 C524 1.395 . S
C526 C529 1.403 . S
C527 C524 1.403 . S
C527 C528 1.524 . S
C527 C531 1.400 . S
C528 H513 0.960 . S
C528 H514 0.960 . S
C528 H515 0.960 . S
C528 C527 1.524 . S
C529 C526 1.403 . S
C529 C530 1.392 . S
C529 C533 1.495 . S
C530 C529 1.392 . S
C530 C531 1.385 . S
C530 C532 1.478 . S
C531 H525 0.930 . S
C531 C527 1.400 . S
C531 C530 1.385 . S
C532 C530 1.478 . S
C532 C534 1.381 . S
C532 C538 1.383 . S
C533 C529 1.495 . S
C533 H539 0.959 . S
C533 H540 0.961 . S
C533 H541 0.960 . S
C534 C532 1.381 . S
C534 C535 1.394 . S
C534 H542 0.930 . S
C535 C534 1.394 . S
C535 C536 1.383 . S
C535 H543 0.929 . S
C536 C535 1.383 . S
C536 C537 1.377 . S
C537 H521 0.930 . S
C537 C536 1.377 . S
C537 C538 1.379 . S
C538 H522 0.931 . S
C538 C532 1.383 . S
C538 C537 1.379 . S
H539 C533 0.959 . S
H540 C533 0.961 . S
H541 C533 0.960 . S
H542 C534 0.930 . S
H543 C535 0.929 . S
H544 C552 0.929 . S
H545 C554 0.930 . S
H546 C556 0.930 . S
H547 C559 0.929 . S
H548 C562 0.930 . S
H549 C564 0.960 . S
H550 C564 0.960 . S
H551 C564 0.960 . S
C552 H544 0.929 . S
C552 C553 1.377 . S
C552 C554 1.384 . S
C553 C552 1.377 . S
C553 C559 1.390 . S
C554 H545 0.930 . S
C554 C552 1.384 . S
C554 C555 1.372 . S
C555 C554 1.372 . S
C555 C556 1.400 . S
C555 C560 1.490 . S
C556 H546 0.930 . S
C556 C555 1.400 . S
C556 C559 1.386 . S
H557 C573 0.930 . S
H558 C574 0.931 . S
C559 H547 0.929 . S
C559 C553 1.390 . S
C559 C556 1.386 . S
C560 C555 1.490 . S
C560 C562 1.395 . S
C560 C563 1.403 . S
H561 C567 0.930 . S
C562 H548 0.930 . S
C562 C560 1.395 . S
C562 C565 1.403 . S
C563 C560 1.403 . S
C563 C564 1.524 . S
C563 C567 1.400 . S
C564 H549 0.960 . S
C564 H550 0.960 . S
C564 H551 0.960 . S
C564 C563 1.524 . S
C565 C562 1.403 . S
C565 C566 1.392 . S
C565 C569 1.495 . S
C566 C565 1.392 . S
C566 C567 1.385 . S
C566 C568 1.478 . S
C567 H561 0.930 . S
C567 C563 1.400 . S
C567 C566 1.385 . S
C568 C566 1.478 . S
C568 C570 1.381 . S
C568 C574 1.383 . S
C569 C565 1.495 . S
C569 H575 0.959 . S
C569 H576 0.961 . S
C569 H577 0.960 . S
C570 C568 1.381 . S
C570 C571 1.394 . S
C570 H578 0.930 . S
C571 C570 1.394 . S
C571 C572 1.383 . S
C571 H579 0.929 . S
C572 C571 1.383 . S
C572 C573 1.377 . S
C573 H557 0.930 . S
C573 C572 1.377 . S
C573 C574 1.379 . S
C574 H558 0.931 . S
C574 C568 1.383 . S
C574 C573 1.379 . S
H575 C569 0.959 . S
H576 C569 0.961 . S
H577 C569 0.960 . S
H578 C570 0.930 . S
H579 C571 0.929 . S
H580 C588 0.929 . S
H581 C590 0.930 . S
H582 C592 0.930 . S
H583 C595 0.929 . S
H584 C598 0.930 . S
H585 C600 0.960 . S
H586 C600 0.960 . S
H587 C600 0.960 . S
C588 H580 0.929 . S
C588 C589 1.377 . S
C588 C590 1.384 . S
C589 C588 1.377 . S
C589 C595 1.390 . S
C590 H581 0.930 . S
C590 C588 1.384 . S
C590 C591 1.372 . S
C591 C590 1.372 . S
C591 C592 1.400 . S
C591 C596 1.490 . S
C592 H582 0.930 . S
C592 C591 1.400 . S
C592 C595 1.386 . S
H593 C609 0.930 . S
H594 C610 0.931 . S
C595 H583 0.929 . S
C595 C589 1.390 . S
C595 C592 1.386 . S
C596 C591 1.490 . S
C596 C598 1.395 . S
C596 C599 1.403 . S
H597 C603 0.930 . S
C598 H584 0.930 . S
C598 C596 1.395 . S
C598 C601 1.403 . S
C599 C596 1.403 . S
C599 C600 1.524 . S
C599 C603 1.400 . S
C600 H585 0.960 . S
C600 H586 0.960 . S
C600 H587 0.960 . S
C600 C599 1.524 . S
C601 C598 1.403 . S
C601 C602 1.392 . S
C601 C605 1.495 . S
C602 C601 1.392 . S
C602 C603 1.385 . S
C602 C604 1.478 . S
C603 H597 0.930 . S
C603 C599 1.400 . S
C603 C602 1.385 . S
C604 C602 1.478 . S
C604 C606 1.381 . S
C604 C610 1.383 . S
C605 C601 1.495 . S
C605 H611 0.959 . S
C605 H612 0.961 . S
C605 H613 0.960 . S
C606 C604 1.381 . S
C606 C607 1.394 . S
C606 H614 0.930 . S
C607 C606 1.394 . S
C607 C608 1.383 . S
C607 H615 0.929 . S
C608 C607 1.383 . S
C608 C609 1.377 . S
C609 H593 0.930 . S
C609 C608 1.377 . S
C609 C610 1.379 . S
C610 H594 0.931 . S
C610 C604 1.383 . S
C610 C609 1.379 . S
H611 C605 0.959 . S
H612 C605 0.961 . S
H613 C605 0.960 . S
H614 C606 0.930 . S
H615 C607 0.929 . S
H616 C624 0.929 . S
H617 C626 0.930 . S
H618 C628 0.930 . S
H619 C631 0.929 . S
H620 C634 0.930 . S
H621 C636 0.960 . S
H622 C636 0.960 . S
H623 C636 0.960 . S
C624 H616 0.929 . S
C624 C625 1.377 . S
C624 C626 1.384 . S
C625 C624 1.377 . S
C625 C631 1.390 . S
C626 H617 0.930 . S
C626 C624 1.384 . S
C626 C627 1.372 . S
C627 C626 1.372 . S
C627 C628 1.400 . S
C627 C632 1.490 . S
C628 H618 0.930 . S
C628 C627 1.400 . S
C628 C631 1.386 . S
H629 C645 0.930 . S
H630 C646 0.931 . S
C631 H619 0.929 . S
C631 C625 1.390 . S
C631 C628 1.386 . S
C632 C627 1.490 . S
C632 C634 1.395 . S
C632 C635 1.403 . S
H633 C639 0.930 . S
C634 H620 0.930 . S
C634 C632 1.395 . S
C634 C637 1.403 . S
C635 C632 1.403 . S
C635 C636 1.524 . S
C635 C639 1.400 . S
C636 H621 0.960 . S
C636 H622 0.960 . S
C636 H623 0.960 . S
C636 C635 1.524 . S
C637 C634 1.403 . S
C637 C638 1.392 . S
C637 C641 1.495 . S
C638 C637 1.392 . S
C638 C639 1.385 . S
C638 C640 1.478 . S
C639 H633 0.930 . S
C639 C635 1.400 . S
C639 C638 1.385 . S
C640 C638 1.478 . S
C640 C642 1.381 . S
C640 C646 1.383 . S
C641 C637 1.495 . S
C641 H647 0.959 . S
C641 H648 0.961 . S
C641 H649 0.960 . S
C642 C640 1.381 . S
C642 C643 1.394 . S
C642 H650 0.930 . S
C643 C642 1.394 . S
C643 C644 1.383 . S
C643 H651 0.929 . S
C644 C643 1.383 . S
C644 C645 1.377 . S
C645 H629 0.930 . S
C645 C644 1.377 . S
C645 C646 1.379 . S
C646 H630 0.931 . S
C646 C640 1.383 . S
C646 C645 1.379 . S
H647 C641 0.959 . S
H648 C641 0.961 . S
H649 C641 0.960 . S
H650 C642 0.930 . S
H651 C643 0.929 . S
H652 C660 0.929 . S
H653 C662 0.930 . S
H654 C664 0.930 . S
H655 C667 0.929 . S
H656 C670 0.930 . S
H657 C672 0.960 . S
H658 C672 0.960 . S
H659 C672 0.960 . S
C660 H652 0.929 . S
C660 C661 1.377 . S
C660 C662 1.384 . S
C661 C660 1.377 . S
C661 C667 1.390 . S
C662 H653 0.930 . S
C662 C660 1.384 . S
C662 C663 1.372 . S
C663 C662 1.372 . S
C663 C664 1.400 . S
C663 C668 1.490 . S
C664 H654 0.930 . S
C664 C663 1.400 . S
C664 C667 1.386 . S
H665 C681 0.930 . S
H666 C682 0.931 . S
C667 H655 0.929 . S
C667 C661 1.390 . S
C667 C664 1.386 . S
C668 C663 1.490 . S
C668 C670 1.395 . S
C668 C671 1.403 . S
H669 C675 0.930 . S
C670 H656 0.930 . S
C670 C668 1.395 . S
C670 C673 1.403 . S
C671 C668 1.403 . S
C671 C672 1.524 . S
C671 C675 1.400 . S
C672 H657 0.960 . S
C672 H658 0.960 . S
C672 H659 0.960 . S
C672 C671 1.524 . S
C673 C670 1.403 . S
C673 C674 1.392 . S
C673 C677 1.495 . S
C674 C673 1.392 . S
C674 C675 1.385 . S
C674 C676 1.478 . S
C675 H669 0.930 . S
C675 C671 1.400 . S
C675 C674 1.385 . S
C676 C674 1.478 . S
C676 C678 1.381 . S
C676 C682 1.383 . S
C677 C673 1.495 . S
C677 H683 0.959 . S
C677 H684 0.961 . S
C677 H685 0.960 . S
C678 C676 1.381 . S
C678 C679 1.394 . S
C678 H686 0.930 . S
C679 C678 1.394 . S
C679 C680 1.383 . S
C679 H687 0.929 . S
C680 C679 1.383 . S
C680 C681 1.377 . S
C681 H665 0.930 . S
C681 C680 1.377 . S
C681 C682 1.379 . S
C682 H666 0.931 . S
C682 C676 1.383 . S
C682 C681 1.379 . S
H683 C677 0.959 . S
H684 C677 0.961 . S
H685 C677 0.960 . S
H686 C678 0.930 . S
H687 C679 0.929 . S
H688 C696 0.929 . S
H689 C698 0.930 . S
H690 C700 0.930 . S
H691 C703 0.929 . S
H692 C706 0.930 . S
H693 C708 0.960 . S
H694 C708 0.960 . S
H695 C708 0.960 . S
C696 H688 0.929 . S
C696 C697 1.377 . S
C696 C698 1.384 . S
C697 C696 1.377 . S
C697 C703 1.390 . S
C698 H689 0.930 . S
C698 C696 1.384 . S
C698 C699 1.372 . S
C699 C698 1.372 . S
C699 C700 1.400 . S
C699 C704 1.490 . S
C700 H690 0.930 . S
C700 C699 1.400 . S
C700 C703 1.386 . S
H701 C717 0.930 . S
H702 C718 0.931 . S
C703 H691 0.929 . S
C703 C697 1.390 . S
C703 C700 1.386 . S
C704 C699 1.490 . S
C704 C706 1.395 . S
C704 C707 1.403 . S
H705 C711 0.930 . S
C706 H692 0.930 . S
C706 C704 1.395 . S
C706 C709 1.403 . S
C707 C704 1.403 . S
C707 C708 1.524 . S
C707 C711 1.400 . S
C708 H693 0.960 . S
C708 H694 0.960 . S
C708 H695 0.960 . S
C708 C707 1.524 . S
C709 C706 1.403 . S
C709 C710 1.392 . S
C709 C713 1.495 . S
C710 C709 1.392 . S
C710 C711 1.385 . S
C710 C712 1.478 . S
C711 H705 0.930 . S
C711 C707 1.400 . S
C711 C710 1.385 . S
C712 C710 1.478 . S
C712 C714 1.381 . S
C712 C718 1.383 . S
C713 C709 1.495 . S
C713 H719 0.959 . S
C713 H720 0.961 . S
C713 H721 0.960 . S
C714 C712 1.381 . S
C714 C715 1.394 . S
C714 H722 0.930 . S
C715 C714 1.394 . S
C715 C716 1.383 . S
C715 H723 0.929 . S
C716 C715 1.383 . S
C716 C717 1.377 . S
C717 H701 0.930 . S
C717 C716 1.377 . S
C717 C718 1.379 . S
C718 H702 0.931 . S
C718 C712 1.383 . S
C718 C717 1.379 . S
H719 C713 0.959 . S
H720 C713 0.961 . S
H721 C713 0.960 . S
H722 C714 0.930 . S
H723 C715 0.929 . S
H724 C732 0.929 . S
H725 C734 0.930 . S
H726 C736 0.930 . S
H727 C739 0.929 . S
H728 C742 0.930 . S
H729 C744 0.960 . S
H730 C744 0.960 . S
H731 C744 0.960 . S
C732 H724 0.929 . S
C732 C733 1.377 . S
C732 C734 1.384 . S
C733 C732 1.377 . S
C733 C739 1.390 . S
C734 H725 0.930 . S
C734 C732 1.384 . S
C734 C735 1.372 . S
C735 C734 1.372 . S
C735 C736 1.400 . S
C735 C740 1.490 . S
C736 H726 0.930 . S
C736 C735 1.400 . S
C736 C739 1.386 . S
H737 C753 0.930 . S
H738 C754 0.931 . S
C739 H727 0.929 . S
C739 C733 1.390 . S
C739 C736 1.386 . S
C740 C735 1.490 . S
C740 C742 1.395 . S
C740 C743 1.403 . S
H741 C747 0.930 . S
C742 H728 0.930 . S
C742 C740 1.395 . S
C742 C745 1.403 . S
C743 C740 1.403 . S
C743 C744 1.524 . S
C743 C747 1.400 . S
C744 H729 0.960 . S
C744 H730 0.960 . S
C744 H731 0.960 . S
C744 C743 1.524 . S
C745 C742 1.403 . S
C745 C746 1.392 . S
C745 C749 1.495 . S
C746 C745 1.392 . S
C746 C747 1.385 . S
C746 C748 1.478 . S
C747 H741 0.930 . S
C747 C743 1.400 . S
C747 C746 1.385 . S
C748 C746 1.478 . S
C748 C750 1.381 . S
C748 C754 1.383 . S
C749 C745 1.495 . S
C749 H755 0.959 . S
C749 H756 0.961 . S
C749 H757 0.960 . S
C750 C748 1.381 . S
C750 C751 1.394 . S
C750 H758 0.930 . S
C751 C750 1.394 . S
C751 C752 1.383 . S
C751 H759 0.929 . S
C752 C751 1.383 . S
C752 C753 1.377 . S
C753 H737 0.930 . S
C753 C752 1.377 . S
C753 C754 1.379 . S
C754 H738 0.931 . S
C754 C748 1.383 . S
C754 C753 1.379 . S
H755 C749 0.959 . S
H756 C749 0.961 . S
H757 C749 0.960 . S
H758 C750 0.930 . S
H759 C751 0.929 . S
H760 C768 0.929 . S
H761 C770 0.930 . S
H762 C772 0.930 . S
H763 C775 0.929 . S
H764 C778 0.930 . S
H765 C780 0.960 . S
H766 C780 0.960 . S
H767 C780 0.960 . S
C768 H760 0.929 . S
C768 C769 1.377 . S
C768 C770 1.384 . S
C769 C768 1.377 . S
C769 C775 1.390 . S
C770 H761 0.930 . S
C770 C768 1.384 . S
C770 C771 1.372 . S
C771 C770 1.372 . S
C771 C772 1.400 . S
C771 C776 1.490 . S
C772 H762 0.930 . S
C772 C771 1.400 . S
C772 C775 1.386 . S
H773 C789 0.930 . S
H774 C790 0.931 . S
C775 H763 0.929 . S
C775 C769 1.390 . S
C775 C772 1.386 . S
C776 C771 1.490 . S
C776 C778 1.395 . S
C776 C779 1.403 . S
H777 C783 0.930 . S
C778 H764 0.930 . S
C778 C776 1.395 . S
C778 C781 1.403 . S
C779 C776 1.403 . S
C779 C780 1.524 . S
C779 C783 1.400 . S
C780 H765 0.960 . S
C780 H766 0.960 . S
C780 H767 0.960 . S
C780 C779 1.524 . S
C781 C778 1.403 . S
C781 C782 1.392 . S
C781 C785 1.495 . S
C782 C781 1.392 . S
C782 C783 1.385 . S
C782 C784 1.478 . S
C783 H777 0.930 . S
C783 C779 1.400 . S
C783 C782 1.385 . S
C784 C782 1.478 . S
C784 C786 1.381 . S
C784 C790 1.383 . S
C785 C781 1.495 . S
C785 H791 0.959 . S
C785 H792 0.961 . S
C785 H793 0.960 . S
C786 C784 1.381 . S
C786 C787 1.394 . S
C786 H794 0.930 . S
C787 C786 1.394 . S
C787 C788 1.383 . S
C787 H795 0.929 . S
C788 C787 1.383 . S
C788 C789 1.377 . S
C789 H773 0.930 . S
C789 C788 1.377 . S
C789 C790 1.379 . S
C790 H774 0.931 . S
C790 C784 1.383 . S
C790 C789 1.379 . S
H791 C785 0.959 . S
H792 C785 0.961 . S
H793 C785 0.960 . S
H794 C786 0.930 . S
H795 C787 0.929 . S
H796 C804 0.929 . S
H797 C806 0.930 . S
H798 C808 0.930 . S
H799 C811 0.929 . S
H800 C814 0.930 . S
H801 C816 0.960 . S
H802 C816 0.960 . S
H803 C816 0.960 . S
C804 H796 0.929 . S
C804 C805 1.377 . S
C804 C806 1.384 . S
C805 C804 1.377 . S
C805 C811 1.390 . S
C806 H797 0.930 . S
C806 C804 1.384 . S
C806 C807 1.372 . S
C807 C806 1.372 . S
C807 C808 1.400 . S
C807 C812 1.490 . S
C808 H798 0.930 . S
C808 C807 1.400 . S
C808 C811 1.386 . S
H809 C825 0.930 . S
H810 C826 0.931 . S
C811 H799 0.929 . S
C811 C805 1.390 . S
C811 C808 1.386 . S
C812 C807 1.490 . S
C812 C814 1.395 . S
C812 C815 1.403 . S
H813 C819 0.930 . S
C814 H800 0.930 . S
C814 C812 1.395 . S
C814 C817 1.403 . S
C815 C812 1.403 . S
C815 C816 1.524 . S
C815 C819 1.400 . S
C816 H801 0.960 . S
C816 H802 0.960 . S
C816 H803 0.960 . S
C816 C815 1.524 . S
C817 C814 1.403 . S
C817 C818 1.392 . S
C817 C821 1.495 . S
C818 C817 1.392 . S
C818 C819 1.385 . S
C818 C820 1.478 . S
C819 H813 0.930 . S
C819 C815 1.400 . S
C819 C818 1.385 . S
C820 C818 1.478 . S
C820 C822 1.381 . S
C820 C826 1.383 . S
C821 C817 1.495 . S
C821 H827 0.959 . S
C821 H828 0.961 . S
C821 H829 0.960 . S
C822 C820 1.381 . S
C822 C823 1.394 . S
C822 H830 0.930 . S
C823 C822 1.394 . S
C823 C824 1.383 . S
C823 H831 0.929 . S
C824 C823 1.383 . S
C824 C825 1.377 . S
C825 H809 0.930 . S
C825 C824 1.377 . S
C825 C826 1.379 . S
C826 H810 0.931 . S
C826 C820 1.383 . S
C826 C825 1.379 . S
H827 C821 0.959 . S
H828 C821 0.961 . S
H829 C821 0.960 . S
H830 C822 0.930 . S
H831 C823 0.929 . S
H832 C840 0.929 . S
H833 C842 0.930 . S
H834 C844 0.930 . S
H835 C847 0.929 . S
H836 C850 0.930 . S
H837 C852 0.960 . S
H838 C852 0.960 . S
H839 C852 0.960 . S
C840 H832 0.929 . S
C840 C841 1.377 . S
C840 C842 1.384 . S
C841 C840 1.377 . S
C841 C847 1.390 . S
C842 H833 0.930 . S
C842 C840 1.384 . S
C842 C843 1.372 . S
C843 C842 1.372 . S
C843 C844 1.400 . S
C843 C848 1.490 . S
C844 H834 0.930 . S
C844 C843 1.400 . S
C844 C847 1.386 . S
H845 C861 0.930 . S
H846 C862 0.931 . S
C847 H835 0.929 . S
C847 C841 1.390 . S
C847 C844 1.386 . S
C848 C843 1.490 . S
C848 C850 1.395 . S
C848 C851 1.403 . S
H849 C855 0.930 . S
C850 H836 0.930 . S
C850 C848 1.395 . S
C850 C853 1.403 . S
C851 C848 1.403 . S
C851 C852 1.524 . S
C851 C855 1.400 . S
C852 H837 0.960 . S
C852 H838 0.960 . S
C852 H839 0.960 . S
C852 C851 1.524 . S
C853 C850 1.403 . S
C853 C854 1.392 . S
C853 C857 1.495 . S
C854 C853 1.392 . S
C854 C855 1.385 . S
C854 C856 1.478 . S
C855 H849 0.930 . S
C855 C851 1.400 . S
C855 C854 1.385 . S
C856 C854 1.478 . S
C856 C858 1.381 . S
C856 C862 1.383 . S
C857 C853 1.495 . S
C857 H863 0.959 . S
C857 H864 0.961 . S
C857 H865 0.960 . S
C858 C856 1.381 . S
C858 C859 1.394 . S
C858 H866 0.930 . S
C859 C858 1.394 . S
C859 C860 1.383 . S
C859 H867 0.929 . S
C860 C859 1.383 . S
C860 C861 1.377 . S
C861 H845 0.930 . S
C861 C860 1.377 . S
C861 C862 1.379 . S
C862 H846 0.931 . S
C862 C856 1.383 . S
C862 C861 1.379 . S
H863 C857 0.959 . S
H864 C857 0.961 . S
H865 C857 0.960 . S
H866 C858 0.930 . S
H867 C859 0.929 . S
H868 C876 0.929 . S
H869 C878 0.930 . S
H870 C880 0.930 . S
H871 C883 0.929 . S
H872 C886 0.930 . S
H873 C888 0.960 . S
H874 C888 0.960 . S
H875 C888 0.960 . S
C876 H868 0.929 . S
C876 C877 1.377 . S
C876 C878 1.384 . S
C877 C876 1.377 . S
C877 C883 1.390 . S
C878 H869 0.930 . S
C878 C876 1.384 . S
C878 C879 1.372 . S
C879 C878 1.372 . S
C879 C880 1.400 . S
C879 C884 1.490 . S
C880 H870 0.930 . S
C880 C879 1.400 . S
C880 C883 1.386 . S
H881 C897 0.930 . S
H882 C898 0.931 . S
C883 H871 0.929 . S
C883 C877 1.390 . S
C883 C880 1.386 . S
C884 C879 1.490 . S
C884 C886 1.395 . S
C884 C887 1.403 . S
H885 C891 0.930 . S
C886 H872 0.930 . S
C886 C884 1.395 . S
C886 C889 1.403 . S
C887 C884 1.403 . S
C887 C888 1.524 . S
C887 C891 1.400 . S
C888 H873 0.960 . S
C888 H874 0.960 . S
C888 H875 0.960 . S
C888 C887 1.524 . S
C889 C886 1.403 . S
C889 C890 1.392 . S
C889 C893 1.495 . S
C890 C889 1.392 . S
C890 C891 1.385 . S
C890 C892 1.478 . S
C891 H885 0.930 . S
C891 C887 1.400 . S
C891 C890 1.385 . S
C892 C890 1.478 . S
C892 C894 1.381 . S
C892 C898 1.383 . S
C893 C889 1.495 . S
C893 H899 0.959 . S
C893 H900 0.961 . S
C893 H901 0.960 . S
C894 C892 1.381 . S
C894 C895 1.394 . S
C894 H902 0.930 . S
C895 C894 1.394 . S
C895 C896 1.383 . S
C895 H903 0.929 . S
C896 C895 1.383 . S
C896 C897 1.377 . S
C897 H881 0.930 . S
C897 C896 1.377 . S
C897 C898 1.379 . S
C898 H882 0.931 . S
C898 C892 1.383 . S
C898 C897 1.379 . S
H899 C893 0.959 . S
H900 C893 0.961 . S
H901 C893 0.960 . S
H902 C894 0.930 . S
H903 C895 0.929 . S
H904 C912 0.929 . S
H905 C914 0.930 . S
H906 C916 0.930 . S
H907 C919 0.929 . S
H908 C922 0.930 . S
H909 C924 0.960 . S
H910 C924 0.960 . S
H911 C924 0.960 . S
C912 H904 0.929 . S
C912 C913 1.377 . S
C912 C914 1.384 . S
C913 C912 1.377 . S
C913 C919 1.390 . S
C914 H905 0.930 . S
C914 C912 1.384 . S
C914 C915 1.372 . S
C915 C914 1.372 . S
C915 C916 1.400 . S
C915 C920 1.490 . S
C916 H906 0.930 . S
C916 C915 1.400 . S
C916 C919 1.386 . S
H917 C933 0.930 . S
H918 C934 0.931 . S
C919 H907 0.929 . S
C919 C913 1.390 . S
C919 C916 1.386 . S
C920 C915 1.490 . S
C920 C922 1.395 . S
C920 C923 1.403 . S
H921 C927 0.930 . S
C922 H908 0.930 . S
C922 C920 1.395 . S
C922 C925 1.403 . S
C923 C920 1.403 . S
C923 C924 1.524 . S
C923 C927 1.400 . S
C924 H909 0.960 . S
C924 H910 0.960 . S
C924 H911 0.960 . S
C924 C923 1.524 . S
C925 C922 1.403 . S
C925 C926 1.392 . S
C925 C929 1.495 . S
C926 C925 1.392 . S
C926 C927 1.385 . S
C926 C928 1.478 . S
C927 H921 0.930 . S
C927 C923 1.400 . S
C927 C926 1.385 . S
C928 C926 1.478 . S
C928 C930 1.381 . S
C928 C934 1.383 . S
C929 C925 1.495 . S
C929 H935 0.959 . S
C929 H936 0.961 . S
C929 H937 0.960 . S
C930 C928 1.381 . S
C930 C931 1.394 . S
C930 H938 0.930 . S
C931 C930 1.394 . S
C931 C932 1.383 . S
C931 H939 0.929 . S
C932 C931 1.383 . S
C932 C933 1.377 . S
C933 H917 0.930 . S
C933 C932 1.377 . S
C933 C934 1.379 . S
C934 H918 0.931 . S
C934 C928 1.383 . S
C934 C933 1.379 . S
H935 C929 0.959 . S
H936 C929 0.961 . S
H937 C929 0.960 . S
H938 C930 0.930 . S
H939 C931 0.929 . S
H940 C948 0.929 . S
H941 C950 0.930 . S
H942 C952 0.930 . S
H943 C955 0.929 . S
H944 C958 0.930 . S
H945 C960 0.960 . S
H946 C960 0.960 . S
H947 C960 0.960 . S
C948 H940 0.929 . S
C948 C949 1.377 . S
C948 C950 1.384 . S
C949 C948 1.377 . S
C949 C955 1.390 . S
C950 H941 0.930 . S
C950 C948 1.384 . S
C950 C951 1.372 . S
C951 C950 1.372 . S
C951 C952 1.400 . S
C951 C956 1.490 . S
C952 H942 0.930 . S
C952 C951 1.400 . S
C952 C955 1.386 . S
H953 C969 0.930 . S
H954 C970 0.931 . S
C955 H943 0.929 . S
C955 C949 1.390 . S
C955 C952 1.386 . S
C956 C951 1.490 . S
C956 C958 1.395 . S
C956 C959 1.403 . S
H957 C963 0.930 . S
C958 H944 0.930 . S
C958 C956 1.395 . S
C958 C961 1.403 . S
C959 C956 1.403 . S
C959 C960 1.524 . S
C959 C963 1.400 . S
C960 H945 0.960 . S
C960 H946 0.960 . S
C960 H947 0.960 . S
C960 C959 1.524 . S
C961 C958 1.403 . S
C961 C962 1.392 . S
C961 C965 1.495 . S
C962 C961 1.392 . S
C962 C963 1.385 . S
C962 C964 1.478 . S
C963 H957 0.930 . S
C963 C959 1.400 . S
C963 C962 1.385 . S
C964 C962 1.478 . S
C964 C966 1.381 . S
C964 C970 1.383 . S
C965 C961 1.495 . S
C965 H971 0.959 . S
C965 H972 0.961 . S
C965 H973 0.960 . S
C966 C964 1.381 . S
C966 C967 1.394 . S
C966 H974 0.930 . S
C967 C966 1.394 . S
C967 C968 1.383 . S
C967 H975 0.929 . S
C968 C967 1.383 . S
C968 C969 1.377 . S
C969 H953 0.930 . S
C969 C968 1.377 . S
C969 C970 1.379 . S
C970 H954 0.931 . S
C970 C964 1.383 . S
C970 C969 1.379 . S
H971 C965 0.959 . S
H972 C965 0.961 . S
H973 C965 0.960 . S
H974 C966 0.930 . S
H975 C967 0.929 . S
H976 C984 0.929 . S
H977 C986 0.930 . S
H978 C988 0.930 . S
H979 C991 0.929 . S
H980 C994 0.930 . S
H981 C996 0.960 . S
H982 C996 0.960 . S
H983 C996 0.960 . S
C984 H976 0.929 . S
C984 C985 1.380 . S
C984 C986 1.384 . S
C985 C984 1.380 . S
C985 C991 1.388 1_554 S
C986 H977 0.930 . S
C986 C984 1.384 . S
C986 C987 1.372 . S
C987 C986 1.372 . S
C987 C988 1.400 1_554 S
C987 C992 1.490 . S
C988 H978 0.930 . S
C988 C987 1.400 1_556 S
C988 C991 1.386 . S
H989 C1005 0.930 . S
H990 C1006 0.931 . S
C991 H979 0.929 . S
C991 C985 1.388 1_556 S
C991 C988 1.386 . S
C992 C987 1.490 . S
C992 C994 1.395 . S
C992 C995 1.403 1_554 S
H993 C999 0.930 . S
C994 H980 0.930 . S
C994 C992 1.395 . S
C994 C997 1.403 . S
C995 C992 1.403 1_556 S
C995 C996 1.524 . S
C995 C999 1.400 . S
C996 H981 0.960 . S
C996 H982 0.960 . S
C996 H983 0.960 . S
C996 C995 1.524 . S
C997 C994 1.403 . S
C997 C998 1.392 . S
C997 C1001 1.495 . S
C998 C997 1.392 . S
C998 C999 1.385 1_554 S
C998 C1000 1.478 . S
C999 H993 0.930 . S
C999 C995 1.400 . S
C999 C998 1.385 1_556 S
C1000 C998 1.478 . S
C1000 C1002 1.381 . S
C1000 C1006 1.383 1_554 S
C1001 C997 1.495 . S
C1001 H1007 0.959 . S
C1001 H1008 0.961 . S
C1001 H1009 0.960 . S
C1002 C1000 1.381 . S
C1002 C1003 1.394 . S
C1002 H1010 0.930 . S
C1003 C1002 1.394 . S
C1003 C1004 1.383 . S
C1003 H1011 0.929 . S
C1004 C1003 1.383 . S
C1004 C1005 1.377 1_554 S
C1005 H989 0.930 . S
C1005 C1004 1.377 1_556 S
C1005 C1006 1.379 . S
C1006 H990 0.931 . S
C1006 C1000 1.383 1_556 S
C1006 C1005 1.379 . S
H1007 C1001 0.959 . S
H1008 C1001 0.961 . S
H1009 C1001 0.960 . S
H1010 C1002 0.930 . S
H1011 C1003 0.929 . S
H1012 C1020 0.929 . S
H1013 C1022 0.930 . S
H1014 C1024 0.930 . S
H1015 C1027 0.929 . S
H1016 C1030 0.930 . S
H1017 C1032 0.960 . S
H1018 C1032 0.960 . S
H1019 C1032 0.960 . S
C1020 H1012 0.929 . S
C1020 C1021 1.377 . S
C1020 C1022 1.384 . S
C1021 C1020 1.377 . S
C1021 C1027 1.390 . S
C1022 H1013 0.930 . S
C1022 C1020 1.384 . S
C1022 C1023 1.372 . S
C1023 C1022 1.372 . S
C1023 C1024 1.400 . S
C1023 C1028 1.490 . S
C1024 H1014 0.930 . S
C1024 C1023 1.400 . S
C1024 C1027 1.386 . S
H1025 C1041 0.930 . S
H1026 C1042 0.931 . S
C1027 H1015 0.929 . S
C1027 C1021 1.390 . S
C1027 C1024 1.386 . S
C1028 C1023 1.490 . S
C1028 C1030 1.395 . S
C1028 C1031 1.403 . S
H1029 C1035 0.930 . S
C1030 H1016 0.930 . S
C1030 C1028 1.395 . S
C1030 C1033 1.403 . S
C1031 C1028 1.403 . S
C1031 C1032 1.524 . S
C1031 C1035 1.400 . S
C1032 H1017 0.960 . S
C1032 H1018 0.960 . S
C1032 H1019 0.960 . S
C1032 C1031 1.524 . S
C1033 C1030 1.403 . S
C1033 C1034 1.392 . S
C1033 C1037 1.495 . S
C1034 C1033 1.392 . S
C1034 C1035 1.385 . S
C1034 C1036 1.478 . S
C1035 H1029 0.930 . S
C1035 C1031 1.400 . S
C1035 C1034 1.385 . S
C1036 C1034 1.478 . S
C1036 C1038 1.381 . S
C1036 C1042 1.383 . S
C1037 C1033 1.495 . S
C1037 H1043 0.959 . S
C1037 H1044 0.961 . S
C1037 H1045 0.960 . S
C1038 C1036 1.381 . S
C1038 C1039 1.394 . S
C1038 H1046 0.930 . S
C1039 C1038 1.394 . S
C1039 C1040 1.383 . S
C1039 H1047 0.929 . S
C1040 C1039 1.383 . S
C1040 C1041 1.377 . S
C1041 H1025 0.930 . S
C1041 C1040 1.377 . S
C1041 C1042 1.379 . S
C1042 H1026 0.931 . S
C1042 C1036 1.383 . S
C1042 C1041 1.379 . S
H1043 C1037 0.959 . S
H1044 C1037 0.961 . S
H1045 C1037 0.960 . S
H1046 C1038 0.930 . S
H1047 C1039 0.929 . S
H1048 C1056 0.929 . S
H1049 C1058 0.930 . S
H1050 C1060 0.930 . S
H1051 C1063 0.929 . S
H1052 C1066 0.930 . S
H1053 C1068 0.960 . S
H1054 C1068 0.960 . S
H1055 C1068 0.960 1_556 S
C1056 H1048 0.929 . S
C1056 C1057 1.377 . S
C1056 C1058 1.384 . S
C1057 C1056 1.377 . S
C1057 C1063 1.390 1_554 S
C1058 H1049 0.930 . S
C1058 C1056 1.384 . S
C1058 C1059 1.372 . S
C1059 C1058 1.372 . S
C1059 C1060 1.400 1_554 S
C1059 C1064 1.490 . S
C1060 H1050 0.930 . S
C1060 C1059 1.400 1_556 S
C1060 C1063 1.386 . S
H1061 C1077 0.930 . S
H1062 C1078 0.931 . S
C1063 H1051 0.929 . S
C1063 C1057 1.390 1_556 S
C1063 C1060 1.386 . S
C1064 C1059 1.490 . S
C1064 C1066 1.395 1_554 S
C1064 C1067 1.403 . S
H1065 C1071 0.930 . S
C1066 H1052 0.930 . S
C1066 C1064 1.395 1_556 S
C1066 C1069 1.403 . S
C1067 C1064 1.403 . S
C1067 C1068 1.524 . S
C1067 C1071 1.400 . S
C1068 H1053 0.960 . S
C1068 H1054 0.960 . S
C1068 H1055 0.960 1_554 S
C1068 C1067 1.524 . S
C1069 C1066 1.403 . S
C1069 C1070 1.391 1_556 S
C1069 C1073 1.495 . S
C1070 C1069 1.391 1_554 S
C1070 C1071 1.387 . S
C1070 C1072 1.477 1_554 S
C1071 H1065 0.930 . S
C1071 C1067 1.400 . S
C1071 C1070 1.387 . S
C1072 C1070 1.477 1_556 S
C1072 C1074 1.373 1_556 S
C1072 C1078 1.391 . S
C1073 C1069 1.495 . S
C1073 H1079 0.959 . S
C1073 H1080 0.961 . S
C1073 H1081 0.960 1_556 S
C1074 C1072 1.373 1_554 S
C1074 C1075 1.394 . S
C1074 H1082 0.930 . S
C1075 C1074 1.394 . S
C1075 C1076 1.383 1_554 S
C1075 H1083 0.929 . S
C1076 C1075 1.383 1_556 S
C1076 C1077 1.377 . S
C1077 H1061 0.930 . S
C1077 C1076 1.377 . S
C1077 C1078 1.379 . S
C1078 H1062 0.931 . S
C1078 C1072 1.391 . S
C1078 C1077 1.379 . S
H1079 C1073 0.959 . S
H1080 C1073 0.961 . S
H1081 C1073 0.960 1_554 S
H1082 C1074 0.930 . S
H1083 C1075 0.929 . S
H1084 C1092 0.929 . S
H1085 C1094 0.930 . S
H1086 C1096 0.930 . S
H1087 C1099 0.929 . S
H1088 C1102 0.930 . S
H1089 C1104 0.960 . S
H1090 C1104 0.960 . S
H1091 C1104 0.960 . S
C1092 H1084 0.929 . S
C1092 C1093 1.377 . S
C1092 C1094 1.384 . S
C1093 C1092 1.377 . S
C1093 C1099 1.390 . S
C1094 H1085 0.930 . S
C1094 C1092 1.384 . S
C1094 C1095 1.372 . S
C1095 C1094 1.372 . S
C1095 C1096 1.400 . S
C1095 C1100 1.490 . S
C1096 H1086 0.930 . S
C1096 C1095 1.400 . S
C1096 C1099 1.386 . S
H1097 C1113 0.930 . S
H1098 C1114 0.931 . S
C1099 H1087 0.929 . S
C1099 C1093 1.390 . S
C1099 C1096 1.386 . S
C1100 C1095 1.490 . S
C1100 C1102 1.395 . S
C1100 C1103 1.403 . S
H1101 C1107 0.930 . S
C1102 H1088 0.930 . S
C1102 C1100 1.395 . S
C1102 C1105 1.403 . S
C1103 C1100 1.403 . S
C1103 C1104 1.524 . S
C1103 C1107 1.400 . S
C1104 H1089 0.960 . S
C1104 H1090 0.960 . S
C1104 H1091 0.960 . S
C1104 C1103 1.524 . S
C1105 C1102 1.403 . S
C1105 C1106 1.392 . S
C1105 C1109 1.495 . S
C1106 C1105 1.392 . S
C1106 C1107 1.385 . S
C1106 C1108 1.478 . S
C1107 H1101 0.930 . S
C1107 C1103 1.400 . S
C1107 C1106 1.385 . S
C1108 C1106 1.478 . S
C1108 C1110 1.381 . S
C1108 C1114 1.383 . S
C1109 C1105 1.495 . S
C1109 H1115 0.959 . S
C1109 H1116 0.961 . S
C1109 H1117 0.960 . S
C1110 C1108 1.381 . S
C1110 C1111 1.394 . S
C1110 H1118 0.930 . S
C1111 C1110 1.394 . S
C1111 C1112 1.383 . S
C1111 H1119 0.929 . S
C1112 C1111 1.383 . S
C1112 C1113 1.377 . S
C1113 H1097 0.930 . S
C1113 C1112 1.377 . S
C1113 C1114 1.379 . S
C1114 H1098 0.931 . S
C1114 C1108 1.383 . S
C1114 C1113 1.379 . S
H1115 C1109 0.959 . S
H1116 C1109 0.961 . S
H1117 C1109 0.960 . S
H1118 C1110 0.930 . S
H1119 C1111 0.929 . S
H1120 C1128 0.929 . S
H1121 C1130 0.930 . S
H1122 C1132 0.930 . S
H1123 C1135 0.929 . S
H1124 C1138 0.930 . S
H1125 C1140 0.960 . S
H1126 C1140 0.960 . S
H1127 C1140 0.960 . S
C1128 H1120 0.929 . S
C1128 C1129 1.377 . S
C1128 C1130 1.384 . S
C1129 C1128 1.377 . S
C1129 C1135 1.390 . S
C1130 H1121 0.930 . S
C1130 C1128 1.384 . S
C1130 C1131 1.372 . S
C1131 C1130 1.372 . S
C1131 C1132 1.400 . S
C1131 C1136 1.490 . S
C1132 H1122 0.930 . S
C1132 C1131 1.400 . S
C1132 C1135 1.386 . S
H1133 C1149 0.930 . S
H1134 C1150 0.931 . S
C1135 H1123 0.929 . S
C1135 C1129 1.390 . S
C1135 C1132 1.386 . S
C1136 C1131 1.490 . S
C1136 C1138 1.395 . S
C1136 C1139 1.403 . S
H1137 C1143 0.930 . S
C1138 H1124 0.930 . S
C1138 C1136 1.395 . S
C1138 C1141 1.403 . S
C1139 C1136 1.403 . S
C1139 C1140 1.524 . S
C1139 C1143 1.400 . S
C1140 H1125 0.960 . S
C1140 H1126 0.960 . S
C1140 H1127 0.960 . S
C1140 C1139 1.524 . S
C1141 C1138 1.403 . S
C1141 C1142 1.392 . S
C1141 C1145 1.495 . S
C1142 C1141 1.392 . S
C1142 C1143 1.385 . S
C1142 C1144 1.478 . S
C1143 H1137 0.930 . S
C1143 C1139 1.400 . S
C1143 C1142 1.385 . S
C1144 C1142 1.478 . S
C1144 C1146 1.381 . S
C1144 C1150 1.383 . S
C1145 C1141 1.495 . S
C1145 H1151 0.959 . S
C1145 H1152 0.961 . S
C1145 H1153 0.960 . S
C1146 C1144 1.381 . S
C1146 C1147 1.394 . S
C1146 H1154 0.930 . S
C1147 C1146 1.394 . S
C1147 C1148 1.383 . S
C1147 H1155 0.929 . S
C1148 C1147 1.383 . S
C1148 C1149 1.377 . S
C1149 H1133 0.930 . S
C1149 C1148 1.377 . S
C1149 C1150 1.379 . S
C1150 H1134 0.931 . S
C1150 C1144 1.383 . S
C1150 C1149 1.379 . S
H1151 C1145 0.959 . S
H1152 C1145 0.961 . S
H1153 C1145 0.960 . S
H1154 C1146 0.930 . S
H1155 C1147 0.929 . S
H1156 C1164 0.929 . S
H1157 C1166 0.930 . S
H1158 C1168 0.930 . S
H1159 C1171 0.929 . S
H1160 C1174 0.930 . S
H1161 C1176 0.960 . S
H1162 C1176 0.960 . S
H1163 C1176 0.960 1_554 S
C1164 H1156 0.929 . S
C1164 C1165 1.378 . S
C1164 C1166 1.384 . S
C1165 C1164 1.378 . S
C1165 C1171 1.389 1_556 S
C1166 H1157 0.930 . S
C1166 C1164 1.384 . S
C1166 C1167 1.372 . S
C1167 C1166 1.372 . S
C1167 C1168 1.400 1_556 S
C1167 C1172 1.490 . S
C1168 H1158 0.930 . S
C1168 C1167 1.400 1_554 S
C1168 C1171 1.386 . S
H1169 C1185 0.930 . S
H1170 C1186 0.931 . S
C1171 H1159 0.929 . S
C1171 C1165 1.389 1_554 S
C1171 C1168 1.386 . S
C1172 C1167 1.490 . S
C1172 C1174 1.394 1_556 S
C1172 C1175 1.403 . S
H1173 C1179 0.930 . S
C1174 H1160 0.930 . S
C1174 C1172 1.394 1_554 S
C1174 C1177 1.404 . S
C1175 C1172 1.403 . S
C1175 C1176 1.524 . S
C1175 C1179 1.400 . S
C1176 H1161 0.960 . S
C1176 H1162 0.960 . S
C1176 H1163 0.960 1_556 S
C1176 C1175 1.524 . S
C1177 C1174 1.404 . S
C1177 C1178 1.392 1_554 S
C1177 C1181 1.495 . S
C1178 C1177 1.392 1_556 S
C1178 C1179 1.385 . S
C1178 C1180 1.477 1_556 S
C1179 H1173 0.930 . S
C1179 C1175 1.400 . S
C1179 C1178 1.385 . S
C1180 C1178 1.477 1_554 S
C1180 C1182 1.361 1_554 S
C1180 C1186 1.403 . S
C1181 C1177 1.495 . S
C1181 H1187 0.959 . S
C1181 H1188 0.961 . S
C1181 H1189 0.960 1_554 S
C1182 C1180 1.361 1_556 S
C1182 C1183 1.394 . S
C1182 H1190 0.930 . S
C1183 C1182 1.394 . S
C1183 C1184 1.360 1_556 S
C1183 H1191 0.929 . S
C1184 C1183 1.360 1_554 S
C1184 C1185 1.400 . S
C1185 H1169 0.930 . S
C1185 C1184 1.400 . S
C1185 C1186 1.379 . S
C1186 H1170 0.931 . S
C1186 C1180 1.403 . S
C1186 C1185 1.379 . S
H1187 C1181 0.959 . S
H1188 C1181 0.961 . S
H1189 C1181 0.960 1_556 S
H1190 C1182 0.930 . S
H1191 C1183 0.929 . S
H1192 C1200 0.929 . S
H1193 C1202 0.930 . S
H1194 C1204 0.930 . S
H1195 C1207 0.929 . S
H1196 C1210 0.930 . S
H1197 C1212 0.960 . S
H1198 C1212 0.960 . S
H1199 C1212 0.960 . S
C1200 H1192 0.929 . S
C1200 C1201 1.377 . S
C1200 C1202 1.384 . S
C1201 C1200 1.377 . S
C1201 C1207 1.390 . S
C1202 H1193 0.930 . S
C1202 C1200 1.384 . S
C1202 C1203 1.372 . S
C1203 C1202 1.372 . S
C1203 C1204 1.400 . S
C1203 C1208 1.490 . S
C1204 H1194 0.930 . S
C1204 C1203 1.400 . S
C1204 C1207 1.386 . S
H1205 C1221 0.930 . S
H1206 C1222 0.931 . S
C1207 H1195 0.929 . S
C1207 C1201 1.390 . S
C1207 C1204 1.386 . S
C1208 C1203 1.490 . S
C1208 C1210 1.395 . S
C1208 C1211 1.403 . S
H1209 C1215 0.930 . S
C1210 H1196 0.930 . S
C1210 C1208 1.395 . S
C1210 C1213 1.403 . S
C1211 C1208 1.403 . S
C1211 C1212 1.524 . S
C1211 C1215 1.400 . S
C1212 H1197 0.960 . S
C1212 H1198 0.960 . S
C1212 H1199 0.960 . S
C1212 C1211 1.524 . S
C1213 C1210 1.403 . S
C1213 C1214 1.392 . S
C1213 C1217 1.495 . S
C1214 C1213 1.392 . S
C1214 C1215 1.385 . S
C1214 C1216 1.478 . S
C1215 H1209 0.930 . S
C1215 C1211 1.400 . S
C1215 C1214 1.385 . S
C1216 C1214 1.478 . S
C1216 C1218 1.381 . S
C1216 C1222 1.383 . S
C1217 C1213 1.495 . S
C1217 H1223 0.959 . S
C1217 H1224 0.961 . S
C1217 H1225 0.960 . S
C1218 C1216 1.381 . S
C1218 C1219 1.394 . S
C1218 H1226 0.930 . S
C1219 C1218 1.394 . S
C1219 C1220 1.383 . S
C1219 H1227 0.929 . S
C1220 C1219 1.383 . S
C1220 C1221 1.377 . S
C1221 H1205 0.930 . S
C1221 C1220 1.377 . S
C1221 C1222 1.379 . S
C1222 H1206 0.931 . S
C1222 C1216 1.383 . S
C1222 C1221 1.379 . S
H1223 C1217 0.959 . S
H1224 C1217 0.961 . S
H1225 C1217 0.960 . S
H1226 C1218 0.930 . S
H1227 C1219 0.929 . S
H1228 C1236 0.929 . S
H1229 C1238 0.930 . S
H1230 C1240 0.930 . S
H1231 C1243 0.929 . S
H1232 C1246 0.930 . S
H1233 C1248 0.960 . S
H1234 C1248 0.962 1_556 S
H1235 C1248 0.959 . S
C1236 H1228 0.929 . S
C1236 C1237 1.382 . S
C1236 C1238 1.384 . S
C1237 C1236 1.382 . S
C1237 C1243 1.385 1_556 S
C1238 H1229 0.930 . S
C1238 C1236 1.384 . S
C1238 C1239 1.372 . S
C1239 C1238 1.372 . S
C1239 C1240 1.400 1_556 S
C1239 C1244 1.490 . S
C1240 H1230 0.930 . S
C1240 C1239 1.400 1_554 S
C1240 C1243 1.386 . S
H1241 C1257 0.930 . S
H1242 C1258 0.931 . S
C1243 H1231 0.929 . S
C1243 C1237 1.385 1_554 S
C1243 C1240 1.386 . S
C1244 C1239 1.490 . S
C1244 C1246 1.395 . S
C1244 C1247 1.403 . S
H1245 C1251 0.931 . S
C1246 H1232 0.930 . S
C1246 C1244 1.395 . S
C1246 C1249 1.403 . S
C1247 C1244 1.403 . S
C1247 C1248 1.524 1_556 S
C1247 C1251 1.400 1_556 S
C1248 H1233 0.960 . S
C1248 H1234 0.962 1_554 S
C1248 H1235 0.959 . S
C1248 C1247 1.524 1_554 S
C1249 C1246 1.403 . S
C1249 C1250 1.392 . S
C1249 C1253 1.495 . S
C1250 C1249 1.392 . S
C1250 C1251 1.385 1_556 S
C1250 C1252 1.478 . S
C1251 H1245 0.931 . S
C1251 C1247 1.400 1_554 S
C1251 C1250 1.385 1_554 S
C1252 C1250 1.478 . S
C1252 C1254 1.388 . S
C1252 C1258 1.375 1_556 S
C1253 C1249 1.495 . S
C1253 H1259 0.959 . S
C1253 H1260 0.961 1_556 S
C1253 H1261 0.960 . S
C1254 C1252 1.388 . S
C1254 C1255 1.394 . S
C1254 H1262 0.930 . S
C1255 C1254 1.394 . S
C1255 C1256 1.378 1_556 S
C1255 H1263 0.929 . S
C1256 C1255 1.378 1_554 S
C1256 C1257 1.382 . S
C1257 H1241 0.930 . S
C1257 C1256 1.382 . S
C1257 C1258 1.379 . S
C1258 H1242 0.931 . S
C1258 C1252 1.375 1_554 S
C1258 C1257 1.379 . S
H1259 C1253 0.959 . S
H1260 C1253 0.961 1_554 S
H1261 C1253 0.960 . S
H1262 C1254 0.930 . S
H1263 C1255 0.929 . S
C409 C5 1.430 . S
C428 C221 1.429 . S
C445 C31 1.431 . S
C464 C89 1.452 . S
C500 C128 1.439 . S
C481 C53 1.435 . S
C517 C71 1.433 . S
C536 C182 1.418 . S
C572 C284 1.426 . S
C553 C75 1.435 . S
C608 C338 1.420 . S
C589 C9 1.433 . S
C644 C377 1.442 . S
C625 C27 1.432 . S
C680 C245 1.445 . S
C661 C49 1.429 . S
C697 C51 1.435 . S
C716 C143 1.420 . S
C733 C72 1.437 . S
C752 C167 1.442 . S
C769 C6 1.430 . S
C788 C206 1.431 . S
C824 C104 1.431 . S
C805 C29 1.427 . S
C841 C28 1.438 . S
C860 C362 1.438 . S
C896 C260 1.420 . S
C877 C50 1.435 . S
C932 C299 1.447 . S
C913 C73 1.429 . S
C949 C7 1.434 . S
C968 C323 1.419 . S
C1004 C109 1.485 . S
C985 C4 1.487 . S
C1040 C148 1.495 . S
C1021 C30 1.483 . S
C1057 C52 1.486 . S
C1076 C187 1.471 . S
C1093 C70 1.487 . S
C1112 C226 1.473 . S
C1148 C265 1.482 . S
C1129 C74 1.485 . S
C1165 C8 1.486 1_556 S
C1184 C304 1.480 1_554 S
C1201 C26 1.485 . S
C1220 C343 1.471 . S
C1237 C48 1.486 1_556 S
C1256 C382 1.471 . S
