# Generated by pormake.
# Topology pyr, (3,6)-cn, num edge types: 1
# Building blocks:
#     Node 0, Type 0, BuildingBlock: ESEHIV_clean_linker_0, # of connection points: 3
#     Node 1, Type 0, BuildingBlock: ESEHIV_clean_linker_0, # of connection points: 3
#     Node 2, Type 0, BuildingBlock: ESEHIV_clean_linker_0, # of connection points: 3
#     Node 3, Type 0, BuildingBlock: ESEHIV_clean_linker_0, # of connection points: 3
#     Node 4, Type 0, BuildingBlock: ESEHIV_clean_linker_0, # of connection points: 3
#     Node 5, Type 0, BuildingBlock: ESEHIV_clean_linker_0, # of connection points: 3
#     Node 6, Type 0, BuildingBlock: ESEHIV_clean_linker_0, # of connection points: 3
#     Node 7, Type 0, BuildingBlock: ESEHIV_clean_linker_0, # of connection points: 3
#     Node 8, Type 1, BuildingBlock: JUFBIX_clean_sbu_0, # of connection points: 6
#     Node 9, Type 1, BuildingBlock: JUFBIX_clean_sbu_0, # of connection points: 6
#     Node 10, Type 1, BuildingBlock: JUFBIX_clean_sbu_0, # of connection points: 6
#     Node 11, Type 1, BuildingBlock: JUFBIX_clean_sbu_0, # of connection points: 6
#     Edge 12, Type (0, 1), BuildingBlock: ZUJKAS_clean_linker_0, # of connection points: 2
#     Edge 13, Type (0, 1), BuildingBlock: ZUJKAS_clean_linker_0, # of connection points: 2
#     Edge 14, Type (0, 1), BuildingBlock: ZUJKAS_clean_linker_0, # of connection points: 2
#     Edge 15, Type (0, 1), BuildingBlock: ZUJKAS_clean_linker_0, # of connection points: 2
#     Edge 16, Type (0, 1), BuildingBlock: ZUJKAS_clean_linker_0, # of connection points: 2
#     Edge 17, Type (0, 1), BuildingBlock: ZUJKAS_clean_linker_0, # of connection points: 2
#     Edge 18, Type (0, 1), BuildingBlock: ZUJKAS_clean_linker_0, # of connection points: 2
#     Edge 19, Type (0, 1), BuildingBlock: ZUJKAS_clean_linker_0, # of connection points: 2
#     Edge 20, Type (0, 1), BuildingBlock: ZUJKAS_clean_linker_0, # of connection points: 2
#     Edge 21, Type (0, 1), BuildingBlock: ZUJKAS_clean_linker_0, # of connection points: 2
#     Edge 22, Type (0, 1), BuildingBlock: ZUJKAS_clean_linker_0, # of connection points: 2
#     Edge 23, Type (0, 1), BuildingBlock: ZUJKAS_clean_linker_0, # of connection points: 2
#     Edge 24, Type (0, 1), BuildingBlock: ZUJKAS_clean_linker_0, # of connection points: 2
#     Edge 25, Type (0, 1), BuildingBlock: ZUJKAS_clean_linker_0, # of connection points: 2
#     Edge 26, Type (0, 1), BuildingBlock: ZUJKAS_clean_linker_0, # of connection points: 2
#     Edge 27, Type (0, 1), BuildingBlock: ZUJKAS_clean_linker_0, # of connection points: 2
#     Edge 28, Type (0, 1), BuildingBlock: ZUJKAS_clean_linker_0, # of connection points: 2
#     Edge 29, Type (0, 1), BuildingBlock: ZUJKAS_clean_linker_0, # of connection points: 2
#     Edge 30, Type (0, 1), BuildingBlock: ZUJKAS_clean_linker_0, # of connection points: 2
#     Edge 31, Type (0, 1), BuildingBlock: ZUJKAS_clean_linker_0, # of connection points: 2
#     Edge 32, Type (0, 1), BuildingBlock: ZUJKAS_clean_linker_0, # of connection points: 2
#     Edge 33, Type (0, 1), BuildingBlock: ZUJKAS_clean_linker_0, # of connection points: 2
#     Edge 34, Type (0, 1), BuildingBlock: ZUJKAS_clean_linker_0, # of connection points: 2
#     Edge 35, Type (0, 1), BuildingBlock: ZUJKAS_clean_linker_0, # of connection points: 2
# Relax obj value: 0.046
# Max RMSD: 0.092
# Mean RMSD: 0.031
data_MOF--net-pry--node1-JUFBIX_clean_sbu_0--node2-ESEHIV_clean_linker_0--edge1-ZUJKAS_clean_linker_0
_symmetry_space_group_name_H-M    P1
_symmetry_Int_Tables_number       1
_symmetry_cell_setting            triclinic
loop_
_symmetry_equiv_pos_as_xyz
'x, y, z'
_cell_length_a     46.650578
_cell_length_b     44.37015
_cell_length_c     46.524319
_cell_angle_alpha  85.369282
_cell_angle_beta   90.0203
_cell_angle_gamma 91.758136
loop_
_atom_site_label
_atom_site_type_symbol
_atom_site_fract_x
_atom_site_fract_y
_atom_site_fract_z
_atom_type_partial_charge
H0 H 0.14381 0.18095 0.19569 0.0
H1 H 0.21037 0.11576 0.19975 0.0
H2 H 0.2099 0.18659 0.13078 0.0
C3 C 0.1631 0.17237 0.18683 0.0
C4 C 0.17519 0.18717 0.16146 0.0
C5 C 0.17555 0.14667 0.20103 0.0
C6 C 0.20063 0.13551 0.18913 0.0
C7 C 0.21326 0.14964 0.16366 0.0
C8 C 0.20032 0.17551 0.15019 0.0
H9 H 0.404 0.93486 0.61869 0.0
H10 H 0.45896 0.86106 0.64344 0.0
H11 H 0.39757 0.85289 0.57558 0.0
C12 C 0.41171 0.91263 0.61535 0.0
C13 C 0.39812 0.8954 0.59498 0.0
C14 C 0.43378 0.90056 0.63295 0.0
C15 C 0.44296 0.87124 0.62916 0.0
C16 C 0.42972 0.85391 0.60869 0.0
C17 C 0.4078 0.86635 0.59134 0.0
H18 H 0.71062 0.32257 0.88682 0.0
H19 H 0.71504 0.39445 0.81903 0.0
H20 H 0.64381 0.33033 0.82318 0.0
C21 C 0.70147 0.33412 0.86773 0.0
C22 C 0.67558 0.32301 0.85648 0.0
C23 C 0.71568 0.3601 0.85459 0.0
C24 C 0.70381 0.37489 0.82964 0.0
C25 C 0.67817 0.3639 0.81774 0.0
C26 C 0.66414 0.33818 0.83155 0.0
H27 H 0.9083 0.65059 0.46252 0.0
H28 H 0.97141 0.65472 0.39464 0.0
H29 H 0.9023 0.58852 0.39635 0.0
C30 C 0.91693 0.64178 0.4434 0.0
C31 C 0.90221 0.61794 0.431 0.0
C32 C 0.9421 0.65513 0.43059 0.0
C33 C 0.95261 0.64407 0.40525 0.0
C34 C 0.9384 0.61998 0.39287 0.0
C35 C 0.91354 0.60681 0.40613 0.0
H36 H 0.81179 0.8899 0.82878 0.0
H37 H 0.87795 0.82442 0.83416 0.0
H38 H 0.81468 0.82298 0.9014 0.0
C39 C 0.82189 0.87097 0.84046 0.0
C40 C 0.80965 0.85798 0.86665 0.0
C41 C 0.84653 0.85902 0.8285 0.0
C42 C 0.85909 0.83375 0.84323 0.0
C43 C 0.84771 0.82038 0.86944 0.0
C44 C 0.82301 0.8327 0.88088 0.0
H45 H 0.57425 0.17127 0.36697 0.0
H46 H 0.64096 0.10637 0.37814 0.0
H47 H 0.64799 0.18946 0.41903 0.0
C48 C 0.5942 0.16395 0.37678 0.0
C49 C 0.60931 0.18315 0.39445 0.0
C50 C 0.60564 0.13631 0.37033 0.0
C51 C 0.63212 0.12788 0.38238 0.0
C52 C 0.6477 0.14714 0.39948 0.0
C53 C 0.63599 0.17451 0.40579 0.0
H54 H 0.31366 0.68569 0.13906 0.0
H55 H 0.30831 0.61663 0.2096 0.0
H56 H 0.37873 0.68169 0.20439 0.0
C57 C 0.32224 0.67506 0.15886 0.0
C58 C 0.34781 0.68687 0.1701 0.0
C59 C 0.30763 0.64975 0.17289 0.0
C60 C 0.31927 0.63608 0.19854 0.0
C61 C 0.34506 0.6473 0.21001 0.0
C62 C 0.359 0.67277 0.19564 0.0
H63 H 0.05228 0.35346 0.63569 0.0
H64 H 0.11076 0.36039 0.56369 0.0
H65 H 0.12111 0.42023 0.63128 0.0
C66 C 0.0703 0.36466 0.62414 0.0
C67 C 0.08497 0.38879 0.63607 0.0
C68 C 0.07951 0.35408 0.59809 0.0
C69 C 0.10348 0.3683 0.5838 0.0
C70 C 0.11847 0.39234 0.59552 0.0
C71 C 0.10885 0.40262 0.62147 0.0
Co72 Co 0.99249 1.00466 0.5051 0.0
C73 C 0.01884 0.94895 0.50264 0.0
Co74 Co 0.03415 1.00111 0.527 0.0
C75 C 0.94169 0.02883 0.47706 0.0
C76 C 0.93938 0.98063 0.48484 0.0
N77 N 0.957 1.00497 0.48728 0.0
N78 N 0.91518 0.02031 0.46857 0.0
C79 C 0.91379 0.98995 0.47328 0.0
H80 H 0.94949 0.05207 0.47671 0.0
H81 H 0.94418 0.95764 0.49234 0.0
C82 C 1.00821 0.05687 0.5295 0.0
N83 N 0.06908 1.00058 0.5454 0.0
C84 C 0.09445 0.99172 0.53568 0.0
C85 C 0.07476 0.01041 0.57153 0.0
N86 N 0.11582 0.99578 0.55468 0.0
C87 C 0.10346 0.00749 0.57731 0.0
C88 C 0.03809 0.02318 0.46838 0.0
O89 O 0.98799 0.04489 0.51564 0.0
O90 O 0.03006 0.04153 0.53625 0.0
O91 O 0.05258 0.01576 0.49098 0.0
O92 O 0.01084 0.02034 0.46972 0.0
O93 O 0.0383 0.96042 0.51783 0.0
H94 H 0.05905 0.01933 0.58541 0.0
H95 H 0.09721 0.98297 0.51484 0.0
O96 O 0.99761 0.96473 0.49468 0.0
O97 O 0.97408 0.98888 0.54059 0.0
O98 O 0.01541 0.9866 0.56268 0.0
C99 C 0.98828 0.98261 0.56355 0.0
H100 H 0.895 0.97561 0.47031 0.0
H101 H 0.11426 0.01315 0.59683 0.0
Co102 Co 0.49792 1.002 0.99169 0.0
C103 C 0.49047 0.95394 0.03367 0.0
Co104 Co 0.52202 0.00793 0.03149 0.0
C105 C 0.48751 0.99835 0.93121 0.0
C106 C 0.4496 0.98812 0.95648 0.0
N107 N 0.4775 0.99646 0.9585 0.0
N108 N 0.46702 0.99133 0.91217 0.0
C109 C 0.44308 0.98497 0.92803 0.0
H110 H 0.50953 1.00451 0.92552 0.0
H111 H 0.43513 0.98385 0.97461 0.0
C112 C 0.52956 0.05598 0.9895 0.0
N113 N 0.5424 0.01345 0.06462 0.0
C114 C 0.53231 0.01181 0.09187 0.0
C115 C 0.5703 0.02178 0.06664 0.0
N116 N 0.55274 0.01905 0.1109 0.0
C117 C 0.57672 0.02524 0.09504 0.0
C118 C 0.55356 0.97941 0.99054 0.0
O119 O 0.51213 0.04034 0.97532 0.0
O120 O 0.5366 0.046 0.01481 0.0
O121 O 0.55432 0.98822 0.01592 0.0
O122 O 0.53064 0.98305 0.97599 0.0
O123 O 0.50734 0.96996 0.04807 0.0
H124 H 0.58479 0.02595 0.04851 0.0
H125 H 0.51025 0.00581 0.0975 0.0
O126 O 0.48386 0.96358 1.00813 0.0
O127 O 0.46529 0.02102 1.00764 0.0
O128 O 0.48964 0.02758 0.0469 0.0
C129 C 0.4664 0.03051 0.03275 0.0
H130 H 0.42258 0.97745 0.91986 0.0
H131 H 0.59718 0.033 0.10312 0.0
Co132 Co 0.5298 0.52184 0.50806 0.0
C133 C 0.48233 0.52892 0.47151 0.0
Co134 Co 0.49007 0.4989 0.52532 0.0
C135 C 0.58981 0.53645 0.49572 0.0
C136 C 0.56198 0.57186 0.48086 0.0
N137 N 0.56191 0.54362 0.49389 0.0
N138 N 0.60734 0.55922 0.4844 0.0
C139 C 0.58975 0.58149 0.47502 0.0
H140 H 0.59703 0.51504 0.50543 0.0
H141 H 0.54304 0.58496 0.47659 0.0
C142 C 0.53762 0.49175 0.56178 0.0
N143 N 0.45792 0.47712 0.53945 0.0
C144 C 0.42997 0.48382 0.53648 0.0
C145 C 0.45782 0.4491 0.55304 0.0
N146 N 0.41247 0.46089 0.54739 0.0
C147 C 0.42997 0.43908 0.55794 0.0
C148 C 0.52426 0.46423 0.49202 0.0
O149 O 0.55045 0.50802 0.54172 0.0
O150 O 0.51109 0.48517 0.55895 0.0
O151 O 0.50131 0.46479 0.50663 0.0
O152 O 0.54089 0.48752 0.48962 0.0
O153 O 0.46943 0.51283 0.49164 0.0
H154 H 0.4768 0.4364 0.55832 0.0
H155 H 0.42261 0.50459 0.52548 0.0
O156 O 0.50886 0.53544 0.47436 0.0
O157 O 0.51852 0.55594 0.52668 0.0
O158 O 0.47897 0.53322 0.5438 0.0
C159 C 0.49558 0.55653 0.5413 0.0
H160 H 0.59641 0.60365 0.46549 0.0
H161 H 0.42316 0.41729 0.56823 0.0
Co162 Co 0.02356 0.5036 0.9948 0.0
C163 C 0.96925 0.47648 0.99152 0.0
Co164 Co 0.9989 0.50362 0.03517 0.0
C165 C 0.04284 0.48491 0.94027 0.0
C166 C 0.06092 0.52805 0.94924 0.0
N167 N 0.04382 0.50504 0.96052 0.0
N168 N 0.05842 0.49455 0.91665 0.0
C169 C 0.06997 0.52165 0.92234 0.0
H170 H 0.03043 0.46385 0.94261 0.0
H171 H 0.06563 0.54868 0.95945 0.0
C172 C 0.05321 0.53076 0.0384 0.0
N173 N 0.97857 0.50206 0.06947 0.0
C174 C 0.98052 0.52112 0.09064 0.0
C175 C 0.96053 0.47946 0.07987 0.0
N176 N 0.96469 0.51111 0.11398 0.0
C177 C 0.95194 0.48497 0.10715 0.0
C178 C 0.0334 0.45277 0.0322 0.0
O179 O 0.05464 0.5245 0.01228 0.0
O180 O 0.03041 0.52365 0.0526 0.0
O181 O 0.01522 0.46537 0.04737 0.0
O182 O 0.04027 0.46555 1.00754 0.0
O183 O 0.96754 0.48356 0.01737 0.0
H184 H 0.95475 0.45967 0.06876 0.0
H185 H 0.99434 0.54121 0.08946 0.0
O186 O 0.99236 0.48275 0.97759 0.0
O187 O 1.00667 0.54154 0.98232 0.0
O188 O 0.98274 0.54199 0.02279 0.0
C189 C 0.98903 0.55446 0.99785 0.0
H190 H 0.08293 0.53648 0.90761 0.0
H191 H 0.9378 0.47052 0.12104 0.0
H192 H 0.11825 0.13611 0.21395 0.0
H193 H 0.09657 0.11473 0.25923 0.0
H194 H 0.18063 0.10114 0.29549 0.0
H195 H 0.20254 0.12337 0.25049 0.0
H196 H 0.10036 0.05863 0.28871 0.0
H197 H 0.14278 0.14657 0.35702 0.0
H198 H 0.14408 0.1512 0.31814 0.0
H199 H 0.16984 0.12836 0.33782 0.0
C200 C 0.13224 0.12889 0.2316 0.0
C201 C 0.16229 0.13189 0.22841 0.0
C202 C 0.11973 0.11642 0.25754 0.0
C203 C 0.13682 0.10672 0.2812 0.0
C204 C 0.16683 0.10899 0.27791 0.0
H205 H 0.09602 0.03079 0.45749 0.0
H206 H 0.11982 0.04993 0.4124 0.0
C207 C 0.17939 0.12141 0.25192 0.0
C208 C 0.12313 0.09404 0.30905 0.0
H209 H 0.11812 0.10442 0.38109 0.0
C210 C 0.10423 0.06873 0.30887 0.0
C211 C 0.12808 0.10701 0.33557 0.0
C212 C 0.14708 0.13494 0.33725 0.0
C213 C 0.09058 0.0559 0.33427 0.0
C214 C 0.09531 0.06903 0.36075 0.0
C215 C 0.11437 0.09422 0.36096 0.0
C216 C 0.08059 0.05718 0.38834 0.0
C217 C 0.0717 0.02789 0.33253 0.0
C218 C 0.05047 0.05513 0.39033 0.0
C219 C 0.03676 0.04409 0.41614 0.0
C220 C 0.05276 0.03499 0.44087 0.0
C221 C 0.08291 0.03744 0.43897 0.0
C222 C 0.0966 0.04846 0.41312 0.0
H223 H 0.077 0.01564 0.3134 0.0
H224 H 0.07374 0.01216 0.35218 0.0
H225 H 0.049 0.03452 0.33052 0.0
H226 H 0.03744 0.06237 0.37193 0.0
H227 H 0.01354 0.04282 0.41671 0.0
H228 H 0.40256 0.93216 0.66923 0.0
H229 H 0.41884 0.95526 0.71216 0.0
H230 H 0.50504 0.92772 0.69723 0.0
H231 H 0.48899 0.90491 0.6534 0.0
H232 H 0.48335 0.91 0.75248 0.0
H233 H 0.46694 0.03181 0.725 0.0
H234 H 0.43624 0.00885 0.71652 0.0
H235 H 0.4696 1.00502 0.69792 0.0
C236 C 0.42519 0.93181 0.67439 0.0
C237 C 0.44454 0.91693 0.65763 0.0
C238 C 0.43445 0.94504 0.69905 0.0
C239 C 0.46323 0.94371 0.70755 0.0
C240 C 0.48278 0.92926 0.69078 0.0
H241 H 0.51592 0.97969 0.88382 0.0
H242 H 0.52058 0.97153 0.83271 0.0
C243 C 0.47355 0.91611 0.6659 0.0
C244 C 0.47172 0.95455 0.73564 0.0
H245 H 0.46636 0.01515 0.77581 0.0
C246 C 0.48038 0.93315 0.75751 0.0
C247 C 0.46777 0.98476 0.74202 0.0
C248 C 0.4599 0.009 0.71902 0.0
C249 C 0.4831 0.94063 0.78613 0.0
C250 C 0.47749 0.97044 0.79281 0.0
C251 C 0.4705 0.99228 0.77062 0.0
C252 C 0.4758 0.97847 0.82298 0.0
C253 C 0.49007 0.9161 0.80925 0.0
C254 C 0.44934 0.9862 0.83411 0.0
C255 C 0.44665 0.9912 0.86319 0.0
C256 C 0.47041 0.98861 0.88171 0.0
C257 C 0.4972 0.98202 0.87019 0.0
C258 C 0.49988 0.97707 0.84103 0.0
H259 H 0.48887 0.89323 0.80113 0.0
H260 H 0.51217 0.92014 0.8172 0.0
H261 H 0.47515 0.9164 0.82781 0.0
H262 H 0.43053 0.98754 0.82045 0.0
H263 H 0.42587 0.99678 0.87123 0.0
H264 H 0.67474 0.42482 0.80191 0.0
H265 H 0.6533 0.44891 0.75811 0.0
H266 H 0.63191 0.36112 0.72916 0.0
H267 H 0.65411 0.33693 0.77226 0.0
H268 H 0.65461 0.40058 0.68575 0.0
H269 H 0.56731 0.45395 0.74277 0.0
H270 H 0.60286 0.46352 0.75458 0.0
H271 H 0.58926 0.42516 0.7603 0.0
C272 C 0.66572 0.41064 0.78609 0.0
C273 C 0.66593 0.3789 0.79079 0.0
C274 C 0.65318 0.42445 0.7612 0.0
C275 C 0.64051 0.40683 0.74058 0.0
C276 C 0.64133 0.3752 0.74487 0.0
H277 H 0.51687 0.4549 0.60757 0.0
H278 H 0.54291 0.43531 0.65035 0.0
C279 C 0.65385 0.3614 0.76967 0.0
C280 C 0.6263 0.4211 0.71448 0.0
H281 H 0.57059 0.46554 0.69235 0.0
C282 C 0.6363 0.41487 0.68717 0.0
C283 C 0.60216 0.43942 0.71637 0.0
C284 C 0.58953 0.44576 0.74504 0.0
C285 C 0.62285 0.42642 0.66174 0.0
C286 C 0.599 0.44515 0.66361 0.0
C287 C 0.58901 0.45139 0.69092 0.0
C288 C 0.58339 0.45751 0.63757 0.0
C289 C 0.63378 0.4177 0.63313 0.0
C290 C 0.59737 0.47683 0.61624 0.0
C291 C 0.58254 0.48801 0.59165 0.0
C292 C 0.55335 0.48029 0.588 0.0
C293 C 0.53933 0.4613 0.60963 0.0
C294 C 0.55418 0.45009 0.63415 0.0
H295 H 0.6473 0.39747 0.63571 0.0
H296 H 0.61574 0.41293 0.61843 0.0
H297 H 0.64708 0.43671 0.62276 0.0
H298 H 0.61974 0.48337 0.61866 0.0
H299 H 0.59397 0.50272 0.57551 0.0
H300 H 0.95402 0.65552 0.34428 0.0
H301 H 0.96219 0.63914 0.29597 0.0
H302 H 0.95103 0.546 0.32931 0.0
H303 H 0.94311 0.56213 0.37768 0.0
H304 H 1.00202 0.59635 0.27361 0.0
H305 H 0.88719 0.56051 0.2671 0.0
H306 H 0.90052 0.58506 0.29354 0.0
H307 H 0.90564 0.54502 0.29857 0.0
C308 C 0.954 0.63153 0.34145 0.0
C309 C 0.94767 0.61008 0.3647 0.0
C310 C 0.95852 0.62224 0.31383 0.0
C311 C 0.95669 0.59144 0.30909 0.0
C312 C 0.95203 0.56992 0.33253 0.0
H313 H 0.95473 0.48125 0.16631 0.0
H314 H 0.95371 0.50281 0.21283 0.0
C315 C 0.94751 0.57916 0.36009 0.0
C316 C 0.95785 0.58175 0.27947 0.0
H317 H 0.91759 0.54721 0.22968 0.0
C318 C 0.98358 0.58577 0.26384 0.0
C319 C 0.93362 0.56821 0.26685 0.0
C320 C 0.90507 0.56463 0.28221 0.0
C321 C 0.98601 0.57548 0.23618 0.0
C322 C 0.96191 0.56134 0.22384 0.0
C323 C 0.93604 0.55796 0.23928 0.0
C324 C 0.96321 0.5487 0.1954 0.0
C325 C 0.01453 0.57892 0.2208 0.0
C326 C 0.96859 0.56745 0.17011 0.0
C327 C 0.96904 0.55517 0.14335 0.0
C328 C 0.96387 0.52399 0.14143 0.0
C329 C 0.95833 0.50539 0.16688 0.0
C330 C 0.95795 0.51764 0.19355 0.0
H331 H 0.03231 0.58417 0.23567 0.0
H332 H 0.01947 0.55798 0.21046 0.0
H333 H 0.01362 0.59773 0.20363 0.0
H334 H 0.97209 0.59159 0.17103 0.0
H335 H 0.97299 0.57015 0.12414 0.0
H336 H 0.22638 0.09019 0.15793 0.0
H337 H 0.26904 0.07051 0.13624 0.0
H338 H 0.30338 0.16143 0.11872 0.0
H339 H 0.26061 0.18124 0.14005 0.0
H340 H 0.31143 0.13065 0.07327 0.0
H341 H 0.3476 0.05983 0.16892 0.0
H342 H 0.31175 0.04988 0.15852 0.0
H343 H 0.31956 0.08667 0.1709 0.0
C344 C 0.24314 0.10604 0.1498 0.0
C345 C 0.23986 0.1374 0.15096 0.0
C346 C 0.26771 0.0947 0.1374 0.0
C347 C 0.29001 0.1143 0.12616 0.0
C348 C 0.28671 0.14563 0.12719 0.0
H349 H 0.46257 0.05613 0.08452 0.0
H350 H 0.42047 0.07706 0.10618 0.0
C351 C 0.26208 0.157 0.13939 0.0
C352 C 0.31634 0.10237 0.11268 0.0
H353 H 0.37075 0.05262 0.12448 0.0
C354 C 0.3244 0.11365 0.08459 0.0
C355 C 0.33384 0.08049 0.12735 0.0
C356 C 0.32796 0.06873 0.15818 0.0
C357 C 0.34885 0.10348 0.07076 0.0
C358 C 0.36567 0.08068 0.08498 0.0
C359 C 0.35788 0.06977 0.11324 0.0
C360 C 0.39158 0.06822 0.07121 0.0
C361 C 0.35677 0.11796 0.04126 0.0
C362 C 0.38976 0.05587 0.04429 0.0
C363 C 0.41399 0.0441 0.03166 0.0
C364 C 0.44074 0.04393 0.04575 0.0
C365 C 0.44247 0.05596 0.07286 0.0
C366 C 0.41827 0.0679 0.08537 0.0
H367 H 0.3476 0.14074 0.03737 0.0
H368 H 0.3804 0.12022 0.03848 0.0
H369 H 0.34801 0.1037 0.02461 0.0
H370 H 0.36945 0.0549 0.0331 0.0
H371 H 0.41163 0.03474 0.01097 0.0
H372 H 0.34923 0.86199 0.58679 0.0
H373 H 0.30286 0.88014 0.57047 0.0
H374 H 0.33873 0.97089 0.5568 0.0
H375 H 0.38584 0.95268 0.57207 0.0
H376 H 0.27626 0.92228 0.60158 0.0
H377 H 0.28634 0.96285 0.48572 0.0
H378 H 0.31091 0.93672 0.50349 0.0
H379 H 0.31399 0.97631 0.50885 0.0
C380 C 0.34767 0.88563 0.57928 0.0
C381 C 0.37131 0.9059 0.58075 0.0
C382 C 0.32103 0.89598 0.57014 0.0
C383 C 0.31744 0.92678 0.5623 0.0
C384 C 0.3412 0.94694 0.56235 0.0
H385 H 0.16137 0.0224 0.57964 0.0
H386 H 0.21113 0.00686 0.57882 0.0
C387 C 0.36799 0.93656 0.5714 0.0
C388 C 0.28818 0.93812 0.55811 0.0
H389 H 0.24368 0.97513 0.50983 0.0
C390 C 0.2691 0.93371 0.58147 0.0
C391 C 0.27899 0.95293 0.53183 0.0
C392 C 0.2985 0.95733 0.5059 0.0
C393 C 0.24108 0.94396 0.57939 0.0
C394 C 0.23205 0.95936 0.55337 0.0
C395 C 0.25091 0.96349 0.5298 0.0
C396 C 0.20291 0.97113 0.55066 0.0
C397 C 0.22122 0.9381 0.60499 0.0
C398 C 0.18212 0.9566 0.53447 0.0
C399 C 0.15359 0.96524 0.53509 0.0
C400 C 0.14551 0.98855 0.55192 0.0
C401 C 0.16677 1.00393 0.56701 0.0
C402 C 0.19523 0.99529 0.56637 0.0
H403 H 0.2297 0.92102 0.62134 0.0
H404 H 0.21858 0.95949 0.61541 0.0
H405 H 0.1997 0.93015 0.59803 0.0
H406 H 0.18777 0.9378 0.52232 0.0
H407 H 0.13773 0.95285 0.52336 0.0
H408 H 0.73078 0.41851 0.86439 0.0
H409 H 0.77486 0.43708 0.88649 0.0
H410 H 0.8064 0.34642 0.89469 0.0
H411 H 0.76211 0.32768 0.87317 0.0
H412 H 0.81492 0.37272 0.94314 0.0
H413 H 0.85335 0.45187 0.85232 0.0
H414 H 0.8179 0.46002 0.86372 0.0
H415 H 0.82426 0.42476 0.84852 0.0
C416 C 0.74727 0.40261 0.8706 0.0
C417 C 0.74296 0.37163 0.86698 0.0
C418 C 0.77253 0.41326 0.88314 0.0
C419 C 0.79428 0.39327 0.89184 0.0
C420 C 0.79003 0.36234 0.88813 0.0
H421 H 0.96722 0.45321 0.9387 0.0
H422 H 0.9255 0.43141 0.91501 0.0
C423 C 0.76466 0.35163 0.87587 0.0
C424 C 0.82095 0.40432 0.90583 0.0
H425 H 0.87661 0.45624 0.89758 0.0
C426 C 0.82849 0.39087 0.93306 0.0
C427 C 0.83902 0.42766 0.89258 0.0
C428 C 0.83342 0.44169 0.86255 0.0
C429 C 0.85314 0.40046 0.9476 0.0
C430 C 0.87042 0.42481 0.93498 0.0
C431 C 0.86324 0.43783 0.90748 0.0
C432 C 0.89597 0.43719 0.94989 0.0
C433 C 0.86065 0.38396 0.97612 0.0
C434 C 0.89336 0.44788 0.97736 0.0
C435 C 0.91725 0.46003 0.9911 0.0
C436 C 0.94424 0.46226 0.97747 0.0
C437 C 0.94679 0.45176 0.94986 0.0
C438 C 0.92292 0.43935 0.93625 0.0
H439 H 0.85106 0.36065 0.97821 0.0
H440 H 0.88423 0.38256 0.97886 0.0
H441 H 0.85201 0.39627 0.99389 0.0
H442 H 0.87272 0.44729 0.98805 0.0
H443 H 0.91443 0.46821 0.0122 0.0
H444 H 0.88486 0.60706 0.48765 0.0
H445 H 0.83695 0.59034 0.50545 0.0
H446 H 0.80767 0.58599 0.41796 0.0
H447 H 0.85475 0.60345 0.40001 0.0
H448 H 0.78457 0.62099 0.4909 0.0
H449 H 0.78103 0.50328 0.45909 0.0
H450 H 0.81423 0.52465 0.46302 0.0
H451 H 0.79325 0.5305 0.43073 0.0
C452 C 0.86821 0.6025 0.47222 0.0
C453 C 0.8738 0.60632 0.44238 0.0
C454 C 0.84096 0.59276 0.48244 0.0
C455 C 0.81902 0.58634 0.463 0.0
C456 C 0.82455 0.59002 0.43332 0.0
H457 H 0.64139 0.59571 0.44842 0.0
H458 H 0.69351 0.60017 0.4488 0.0
C459 C 0.85157 0.59996 0.42311 0.0
C460 C 0.78956 0.57809 0.47318 0.0
H461 H 0.73541 0.52561 0.46647 0.0
C462 C 0.77396 0.59986 0.48618 0.0
C463 C 0.77586 0.55042 0.46719 0.0
C464 C 0.79202 0.52572 0.45449 0.0
C465 C 0.74446 0.59552 0.49149 0.0
C466 C 0.73035 0.56884 0.48347 0.0
C467 C 0.74631 0.54616 0.47234 0.0
C468 C 0.69874 0.56559 0.48372 0.0
C469 C 0.72833 0.61998 0.50463 0.0
C470 C 0.68448 0.54417 0.50287 0.0
C471 C 0.65447 0.54174 0.50296 0.0
C472 C 0.6383 0.56053 0.48367 0.0
C473 C 0.65294 0.58136 0.46403 0.0
C474 C 0.68279 0.5839 0.46412 0.0
H475 H 0.74296 0.63528 0.51599 0.0
H476 H 0.71725 0.63376 0.48728 0.0
H477 H 0.71182 0.61 0.52008 0.0
H478 H 0.69653 0.52971 0.51802 0.0
H479 H 0.64402 0.52561 0.51854 0.0
H480 H 0.17075 0.20422 0.10306 0.0
H481 H 0.14767 0.24854 0.07965 0.0
H482 H 0.12414 0.27659 0.16268 0.0
H483 H 0.14801 0.23309 0.18641 0.0
H484 H 0.07768 0.2752 0.11898 0.0
H485 H 0.17554 0.33995 0.07879 0.0
H486 H 0.17272 0.3007 0.07165 0.0
H487 H 0.17657 0.31067 0.10808 0.0
C488 C 0.16115 0.22 0.1165 0.0
C489 C 0.16142 0.21469 0.14683 0.0
C490 C 0.1478 0.24537 0.10298 0.0
C491 C 0.13423 0.2661 0.11934 0.0
C492 C 0.13438 0.26095 0.14952 0.0
H493 H 0.0295 0.42507 0.08695 0.0
H494 H 0.05348 0.38001 0.10701 0.0
C495 C 0.14793 0.23579 0.16308 0.0
C496 C 0.11931 0.29276 0.10511 0.0
H497 H 0.131 0.3607 0.06587 0.0
C498 C 0.08934 0.2939 0.10737 0.0
C499 C 0.1344 0.31709 0.08968 0.0
C500 C 0.16661 0.31737 0.08693 0.0
C501 C 0.07409 0.31845 0.09454 0.0
C502 C 0.08922 0.34328 0.07971 0.0
C503 C 0.11923 0.34191 0.0772 0.0
C504 C 0.07446 0.37104 0.06722 0.0
C505 C 0.04178 0.31703 0.09643 0.0
C506 C 0.07881 0.38209 0.03826 0.0
C507 C 0.06538 0.40836 0.02675 0.0
C508 C 0.04719 0.4243 0.0439 0.0
C509 C 0.04299 0.41327 0.07289 0.0
C510 C 0.05661 0.38723 0.08442 0.0
H511 H 0.03338 0.29328 0.09942 0.0
H512 H 0.03491 0.32872 0.11536 0.0
H513 H 0.03189 0.32815 0.07678 0.0
H514 H 0.09257 0.37031 0.02445 0.0
H515 H 0.06928 0.41619 1.0044 0.0
H516 H 0.64766 0.27697 0.83072 0.0
H517 H 0.6214 0.23313 0.85389 0.0
H518 H 0.64406 0.26197 0.93747 0.0
H519 H 0.66912 0.30675 0.9145 0.0
H520 H 0.63979 0.18675 0.88913 0.0
H521 H 0.55872 0.2482 0.94672 0.0
H522 H 0.58178 0.26676 0.91917 0.0
H523 H 0.5949 0.25895 0.95531 0.0
C524 C 0.64669 0.27432 0.85405 0.0
C525 C 0.66034 0.29567 0.87069 0.0
C526 C 0.63183 0.24906 0.86727 0.0
C527 C 0.63025 0.24448 0.89745 0.0
C528 C 0.64435 0.26535 0.91416 0.0
H529 H 0.56334 0.09733 0.01552 0.0
H530 H 0.58717 0.14322 0.99297 0.0
C531 C 0.65907 0.29076 0.90095 0.0
C532 C 0.61448 0.21745 0.9113 0.0
H533 H 0.56062 0.19514 0.95895 0.0
C534 C 0.62237 0.18863 0.90426 0.0
C535 C 0.59168 0.21985 0.93103 0.0
C536 C 0.58105 0.2501 0.93832 0.0
C537 C 0.60845 0.16222 0.91671 0.0
C538 C 0.58591 0.16466 0.93661 0.0
C539 C 0.57798 0.19339 0.94372 0.0
C540 C 0.57043 0.13753 0.95034 0.0
C541 C 0.61823 0.13182 0.90891 0.0
C542 C 0.55268 0.11946 0.93392 0.0
C543 C 0.53886 0.09333 0.94675 0.0
C544 C 0.54263 0.08472 0.97626 0.0
C545 C 0.56002 0.10324 0.99274 0.0
C546 C 0.57365 0.12949 0.97992 0.0
H547 H 0.6392 0.13358 0.89749 0.0
H548 H 0.62012 0.11602 0.92854 0.0
H549 H 0.6021 0.12192 0.89456 0.0
H550 H 0.54969 0.12549 0.91111 0.0
H551 H 0.52565 0.07959 0.93343 0.0
H552 H 0.99977 0.66851 0.43499 0.0
H553 H 0.02253 0.71481 0.45092 0.0
H554 H 0.93931 0.74874 0.4687 0.0
H555 H 0.91639 0.70318 0.45217 0.0
H556 H 0.01247 0.77448 0.42603 0.0
H557 H 0.98608 0.76212 0.54256 0.0
H558 H 0.98524 0.73051 0.52034 0.0
H559 H 0.95572 0.75567 0.51986 0.0
C560 C 0.98631 0.6858 0.44235 0.0
C561 C 0.95622 0.68203 0.44237 0.0
C562 C 0.99937 0.71212 0.45161 0.0
C563 C 0.98261 0.73493 0.4614 0.0
C564 C 0.95266 0.73107 0.46187 0.0
H565 H 0.98683 0.9225 0.46228 0.0
H566 H 0.98474 0.86936 0.45247 0.0
C567 C 0.93959 0.70492 0.45246 0.0
C568 C 0.99596 0.76389 0.46901 0.0
H569 H 0.99797 0.81256 0.5222 0.0
C570 C 1.00984 0.78261 0.44722 0.0
C571 C 0.99283 0.77426 0.49675 0.0
C572 C 0.97941 0.75448 0.52133 0.0
C573 C 0.01891 0.81225 0.45191 0.0
C574 C 0.01376 0.82339 0.47899 0.0
C575 C 1.0017 0.804 0.50138 0.0
C576 C 0.01748 0.85591 0.48343 0.0
C577 C 0.03303 0.83179 0.42757 0.0
C578 C 0.03658 0.86594 0.50421 0.0
C579 C 0.03795 0.89651 0.50982 0.0
C580 C 0.01981 0.91727 0.49509 0.0
C581 C 1.00108 0.9071 0.47401 0.0
C582 C 0.99996 0.87676 0.46823 0.0
H583 H 0.04293 0.81787 0.41164 0.0
H584 H 0.01661 0.84584 0.41618 0.0
H585 H 0.04978 0.84718 0.43582 0.0
H586 H 0.05008 0.85007 0.51632 0.0
H587 H 0.05248 0.90367 0.52628 0.0
H588 H 0.39209 0.80597 0.60983 0.0
H589 H 0.40256 0.75296 0.60529 0.0
H590 H 0.49298 0.77628 0.59946 0.0
H591 H 0.48256 0.82948 0.60458 0.0
H592 H 0.42701 0.73102 0.55952 0.0
H593 H 0.49239 0.70272 0.65693 0.0
H594 H 0.47147 0.73636 0.65257 0.0
H595 H 0.50597 0.73545 0.63543 0.0
C596 C 0.41422 0.79974 0.60771 0.0
C597 C 0.43655 0.82175 0.60727 0.0
C598 C 0.42016 0.76947 0.60528 0.0
C599 C 0.44854 0.76063 0.60236 0.0
C600 C 0.47097 0.78251 0.60237 0.0
H601 H 0.52981 0.60677 0.54532 0.0
H602 H 0.51689 0.6547 0.56333 0.0
C603 C 0.46503 0.81286 0.60509 0.0
C604 C 0.45428 0.72897 0.59697 0.0
H605 H 0.49286 0.66763 0.62041 0.0
C606 C 0.44112 0.71703 0.57305 0.0
C607 C 0.47267 0.7108 0.61469 0.0
C608 C 0.48622 0.72186 0.64151 0.0
C609 C 0.44653 0.6877 0.56584 0.0
C610 C 0.46544 0.66984 0.58314 0.0
C611 C 0.4783 0.6815 0.60731 0.0
C612 C 0.47361 0.6398 0.57509 0.0
C613 C 0.4328 0.67636 0.53921 0.0
C614 C 0.45361 0.61546 0.57636 0.0
C615 C 0.4609 0.58793 0.5661 0.0
C616 C 0.48826 0.58453 0.55434 0.0
C617 C 0.50848 0.60874 0.55405 0.0
C618 C 0.50122 0.63609 0.56444 0.0
H619 H 0.42213 0.69462 0.52584 0.0
H620 H 0.44909 0.66629 0.52578 0.0
H621 H 0.41644 0.65842 0.54571 0.0
H622 H 0.43222 0.61798 0.58472 0.0
H623 H 0.44492 0.56966 0.56667 0.0
H624 H 0.86491 0.82981 0.78236 0.0
H625 H 0.88802 0.85156 0.73796 0.0
H626 H 0.88119 0.94092 0.76698 0.0
H627 H 0.85727 0.91921 0.81122 0.0
H628 H 0.86971 0.94301 0.71163 0.0
H629 H 0.96936 0.87975 0.72811 0.0
H630 H 0.93851 0.85477 0.72718 0.0
H631 H 0.94225 0.87979 0.7557 0.0
C632 C 0.86841 0.8541 0.77938 0.0
C633 C 0.85942 0.87268 0.80063 0.0
C634 C 0.88185 0.86656 0.75395 0.0
C635 C 0.88728 0.89795 0.74918 0.0
C636 C 0.87759 0.91664 0.77002 0.0
H637 H 0.01032 0.97604 0.61848 0.0
H638 H 0.98567 0.95718 0.66313 0.0
C639 C 0.86379 0.90419 0.79536 0.0
C640 C 0.90272 0.91121 0.72244 0.0
H641 H 0.96297 0.90501 0.68144 0.0
C642 C 0.89018 0.93475 0.70517 0.0
C643 C 0.9298 0.90108 0.71397 0.0
C644 C 0.94591 0.8777 0.73238 0.0
C645 C 0.90348 0.94786 0.67968 0.0
C646 C 0.92984 0.93662 0.67044 0.0
C647 C 0.94265 0.91351 0.68803 0.0
C648 C 0.9447 0.94867 0.64294 0.0
C649 C 0.88938 0.97419 0.66339 0.0
C650 C 0.93028 0.95003 0.61629 0.0
C651 C 0.94429 0.96122 0.5907 0.0
C652 C 0.97336 0.97083 0.59087 0.0
C653 C 0.98796 0.96891 0.61743 0.0
C654 C 0.97382 0.95805 0.64307 0.0
H655 H 0.87528 0.98614 0.67769 0.0
H656 H 0.90553 0.99075 0.65346 0.0
H657 H 0.87579 0.96569 0.64602 0.0
H658 H 0.90817 0.9421 0.61514 0.0
H659 H 0.93239 0.96199 0.57068 0.0
H660 H 0.54776 0.12497 0.36246 0.0
H661 H 0.52521 0.09652 0.32485 0.0
H662 H 0.60874 0.07642 0.29322 0.0
H663 H 0.63134 0.1056 0.32937 0.0
H664 H 0.5375 0.11123 0.26279 0.0
H665 H 0.56263 0.99334 0.29983 0.0
H666 H 0.56067 0.02313 0.32406 0.0
H667 H 0.59239 0.01958 0.30278 0.0
C668 C 0.56131 0.11444 0.34751 0.0
C669 C 0.59141 0.11742 0.34916 0.0
C670 C 0.54838 0.09799 0.32627 0.0
C671 C 0.56538 0.0839 0.30677 0.0
C672 C 0.59529 0.08646 0.30862 0.0
H673 H 0.59402 0.01629 0.15184 0.0
H674 H 0.58933 0.02841 0.20172 0.0
C675 C 0.60817 0.10313 0.32944 0.0
C676 C 0.55263 0.06911 0.28231 0.0
H677 H 0.55666 1.0041 0.24841 0.0
C678 C 0.54074 0.08757 0.25981 0.0
C679 C 0.55699 0.0383 0.27872 0.0
C680 C 0.56862 0.01733 0.30276 0.0
C681 C 0.53577 0.07675 0.23269 0.0
C682 C 0.54231 0.04647 0.22839 0.0
C683 C 0.55182 0.02733 0.25173 0.0
C684 C 0.54371 0.03578 0.19914 0.0
C685 C 0.52598 0.09852 0.20829 0.0
C686 C 0.51947 0.03511 0.18136 0.0
C687 C 0.52219 0.02869 0.15258 0.0
C688 C 0.5492 0.02257 0.14121 0.0
C689 C 0.57307 0.02158 0.15965 0.0
C690 C 0.57035 0.02818 0.18829 0.0
H691 H 0.52626 0.12226 0.21427 0.0
H692 H 0.53984 0.0974 0.18902 0.0
H693 H 0.50371 0.09225 0.20224 0.0
H694 H 0.49862 0.04039 0.1895 0.0
H695 H 0.50333 0.02972 0.13905 0.0
H696 H 0.31708 0.62447 0.25958 0.0
H697 H 0.33843 0.60284 0.30452 0.0
H698 H 0.4227 0.61604 0.26687 0.0
H699 H 0.40167 0.63684 0.22172 0.0
H700 H 0.3789 0.55132 0.31299 0.0
H701 H 0.42424 0.66172 0.34309 0.0
H702 H 0.39529 0.6589 0.31755 0.0
H703 H 0.43145 0.65257 0.30688 0.0
C704 C 0.34013 0.62239 0.26068 0.0
C705 C 0.35764 0.63272 0.23703 0.0
C706 C 0.35229 0.61017 0.28645 0.0
C707 C 0.38215 0.60826 0.28913 0.0
C708 C 0.39963 0.61779 0.2654 0.0
H709 H 0.50478 0.55882 0.42251 0.0
H710 H 0.47934 0.57679 0.37882 0.0
C711 C 0.38753 0.62982 0.23964 0.0
C712 C 0.39528 0.59666 0.31676 0.0
H713 H 0.43825 0.61802 0.37147 0.0
C714 C 0.39171 0.56587 0.32595 0.0
C715 C 0.41205 0.61572 0.3335 0.0
C716 C 0.41591 0.64914 0.32499 0.0
C717 C 0.40523 0.55342 0.35104 0.0
C718 C 0.42217 0.57248 0.36776 0.0
C719 C 0.42533 0.60338 0.35869 0.0
C720 C 0.4374 0.56084 0.39435 0.0
C721 C 0.40204 0.5198 0.35879 0.0
C722 C 0.42232 0.54609 0.41784 0.0
C723 C 0.43688 0.53554 0.44284 0.0
C724 C 0.46679 0.5399 0.44502 0.0
C725 C 0.48176 0.55503 0.42159 0.0
C726 C 0.46723 0.56535 0.39657 0.0
H727 H 0.39529 0.50746 0.33994 0.0
H728 H 0.42244 0.51041 0.36728 0.0
H729 H 0.38536 0.51546 0.37573 0.0
H730 H 0.39923 0.543 0.417 0.0
H731 H 0.42464 0.52423 0.46056 0.0
H732 H 0.08166 0.44618 0.65304 0.0
H733 H 0.07428 0.46108 0.70196 0.0
H734 H 0.06289 0.36731 0.73321 0.0
H735 H 0.07109 0.35215 0.68454 0.0
H736 H 0.02828 0.44954 0.74131 0.0
H737 H 0.1294 0.39866 0.78219 0.0
H738 H 0.12154 0.40476 0.74421 0.0
H739 H 0.10499 0.37334 0.76543 0.0
C740 C 0.07752 0.42874 0.67033 0.0
C741 C 0.07715 0.39799 0.66497 0.0
C742 C 0.07318 0.43729 0.6982 0.0
C743 C 0.06851 0.41526 0.72121 0.0
C744 C 0.06691 0.38461 0.71578 0.0
H745 H 0.01903 0.45624 0.8948 0.0
H746 H 0.02083 0.43492 0.84803 0.0
C747 C 0.07127 0.37603 0.6879 0.0
C748 C 0.06632 0.42444 0.75098 0.0
H749 H 0.10033 0.42024 0.81612 0.0
C750 C 0.04391 0.44304 0.75775 0.0
C751 C 0.08702 0.4162 0.77219 0.0
C752 C 0.11226 0.39736 0.7657 0.0
C753 C 0.04166 0.45371 0.78523 0.0
C754 C 0.06216 0.44516 0.80653 0.0
C755 C 0.08452 0.4265 0.79977 0.0
C756 C 0.06161 0.45659 0.83554 0.0
C757 C 0.01789 0.47476 0.79097 0.0
C758 C 0.08442 0.47496 0.84439 0.0
C759 C 0.08363 0.48689 0.87124 0.0
C760 C 0.06006 0.48057 0.88981 0.0
C761 C 0.03761 0.4614 0.88118 0.0
C762 C 0.03842 0.44948 0.85429 0.0
H763 H 1.00796 0.48439 0.77068 0.0
H764 H 1.00092 0.46206 0.80403 0.0
H765 H 0.026 0.49366 0.8033 0.0
H766 H 0.10263 0.48051 0.83029 0.0
H767 H 0.10145 0.50116 0.8774 0.0
H768 H 0.79247 0.91749 0.86407 0.0
H769 H 0.74921 0.93748 0.88387 0.0
H770 H 0.7233 0.84796 0.91898 0.0
H771 H 0.76545 0.82741 0.89757 0.0
H772 H 0.67832 0.87466 0.89803 0.0
H773 H 0.73408 0.95615 0.96425 0.0
H774 H 0.74292 0.96313 0.92678 0.0
H775 H 0.75306 0.92831 0.94622 0.0
C776 C 0.77752 0.90183 0.87569 0.0
C777 C 0.78302 0.87063 0.87917 0.0
C778 C 0.75283 0.9135 0.88753 0.0
C779 C 0.733 0.89452 0.90374 0.0
C780 C 0.73819 0.86335 0.90691 0.0
H781 H 0.60309 0.96091 0.01788 0.0
H782 H 0.64536 0.93961 0.99693 0.0
C783 C 0.76269 0.85161 0.89482 0.0
C784 C 0.70663 0.90685 0.91684 0.0
H785 H 0.68356 0.96084 0.95948 0.0
C786 C 0.67959 0.89344 0.91155 0.0
C787 C 0.70789 0.93108 0.93501 0.0
C788 C 0.73606 0.94529 0.94367 0.0
C789 C 0.6541 0.90364 0.92345 0.0
C790 C 0.65524 0.92874 0.94057 0.0
C791 C 0.68232 0.94189 0.94615 0.0
C792 C 0.62884 0.94134 0.95335 0.0
C793 C 0.62633 0.88665 0.91815 0.0
C794 C 0.60514 0.94985 0.93608 0.0
C795 C 0.58065 0.96166 0.94817 0.0
C796 C 0.5793 0.96592 0.97782 0.0
C797 C 0.60319 0.95789 0.99501 0.0
C798 C 0.62753 0.94574 0.98297 0.0
H799 H 0.63016 0.86305 0.91309 0.0
H800 H 0.61185 0.88593 0.93714 0.0
H801 H 0.6153 0.89809 0.89936 0.0
H802 H 0.60566 0.94777 0.91307 0.0
H803 H 0.56293 0.96794 0.93411 0.0
H804 H 0.67144 0.15113 0.45299 0.0
H805 H 0.72034 0.13833 0.46808 0.0
H806 H 0.73862 0.11317 0.3825 0.0
H807 H 0.69024 0.12636 0.3672 0.0
H808 H 0.74412 0.08106 0.46628 0.0
H809 H 0.80774 0.1684 0.40015 0.0
H810 H 0.76993 0.17179 0.40722 0.0
H811 H 0.78162 0.14898 0.37945 0.0
C812 C 0.68606 0.14319 0.43737 0.0
C813 C 0.67706 0.13957 0.40898 0.0
C814 C 0.71388 0.13591 0.446 0.0
C815 C 0.73314 0.12535 0.42623 0.0
C816 C 0.72424 0.1219 0.39788 0.0
H817 H 0.86994 0.0065 0.43537 0.0
H818 H 0.82675 0.03573 0.4272 0.0
C819 C 0.69648 0.12901 0.3893 0.0
C820 C 0.76186 0.11551 0.43552 0.0
H821 H 0.83281 0.12385 0.41776 0.0
C822 C 0.76358 0.09077 0.4561 0.0
C823 C 0.78718 0.12845 0.42237 0.0
C824 C 0.78662 0.15608 0.40127 0.0
C825 C 0.78985 0.0774 0.46258 0.0
C826 C 0.81482 0.089 0.4479 0.0
C827 C 0.81345 0.11487 0.42865 0.0
C828 C 0.84199 0.07303 0.45085 0.0
C829 C 0.79064 0.05036 0.48438 0.0
C830 C 0.86507 0.08496 0.46601 0.0
C831 C 0.88975 0.06821 0.47088 0.0
C832 C 0.89161 0.03937 0.46053 0.0
C833 C 0.86891 0.02833 0.44408 0.0
C834 C 0.84431 0.04501 0.43933 0.0
H835 H 0.77123 0.04848 0.49833 0.0
H836 H 0.79168 0.02945 0.47288 0.0
H837 H 0.80995 0.05165 0.49824 0.0
H838 H 0.86357 0.10667 0.47493 0.0
H839 H 0.90674 0.07726 0.48381 0.0
H840 H 0.28895 0.5903 0.17175 0.0
H841 H 0.24499 0.57083 0.15046 0.0
H842 H 0.22133 0.66185 0.12305 0.0
H843 H 0.26415 0.68163 0.14601 0.0
H844 H 0.17602 0.63056 0.14292 0.0
H845 H 0.23151 0.56231 0.06676 0.0
H846 H 0.24039 0.55158 0.10359 0.0
H847 H 0.25048 0.58881 0.08784 0.0
C848 C 0.27425 0.60628 0.16158 0.0
C849 C 0.28043 0.63763 0.16045 0.0
C850 C 0.24927 0.59503 0.14895 0.0
C851 C 0.23012 0.61477 0.1344 0.0
C852 C 0.23587 0.64607 0.13383 0.0
H853 H 0.10109 0.55806 0.01262 0.0
H854 H 0.14295 0.57986 0.03602 0.0
C855 C 0.26062 0.65735 0.14675 0.0
C856 C 0.20396 0.60301 0.12001 0.0
H857 H 0.18094 0.55459 0.0707 0.0
C858 C 0.17714 0.61403 0.12704 0.0
C859 C 0.20533 0.58184 0.09885 0.0
C860 C 0.23349 0.57069 0.08857 0.0
C861 C 0.15174 0.60429 0.11384 0.0
C862 C 0.15298 0.5821 0.09364 0.0
C863 C 0.17984 0.57134 0.08637 0.0
C864 C 0.12683 0.56993 0.07951 0.0
C865 C 0.12399 0.61855 0.12117 0.0
C866 C 0.10372 0.55698 0.09605 0.0
C867 C 0.07954 0.54495 0.08267 0.0
C868 C 0.07819 0.54497 0.05246 0.0
C869 C 0.10142 0.55771 0.03593 0.0
C870 C 0.12541 0.57012 0.04931 0.0
H871 H 0.12787 0.64123 0.12921 0.0
H872 H 0.10959 0.62099 0.10217 0.0
H873 H 0.11283 0.60407 0.13851 0.0
H874 H 0.10454 0.55566 0.11937 0.0
H875 H 0.06218 0.53498 0.09607 0.0
H876 H 0.16243 0.36083 0.57523 0.0
H877 H 0.21002 0.3804 0.56006 0.0
H878 H 0.18441 0.47122 0.5716 0.0
H879 H 0.13664 0.45173 0.58703 0.0
H880 H 0.23037 0.42288 0.51657 0.0
H881 H 0.25288 0.46054 0.62585 0.0
H882 H 0.22236 0.43639 0.61862 0.0
H883 H 0.22191 0.47622 0.60804 0.0
C884 C 0.1667 0.38504 0.57397 0.0
C885 C 0.14586 0.40474 0.58252 0.0
C886 C 0.19395 0.39617 0.5654 0.0
C887 C 0.20089 0.42718 0.56523 0.0
C888 C 0.17967 0.44713 0.57221 0.0
H889 H 0.37586 0.50703 0.54914 0.0
H890 H 0.32321 0.50312 0.54956 0.0
C891 C 0.15241 0.43599 0.58094 0.0
C892 C 0.23083 0.43805 0.55939 0.0
H893 H 0.29008 0.46714 0.59177 0.0
C894 C 0.24336 0.43286 0.53288 0.0
C895 C 0.24771 0.45112 0.58072 0.0
C896 C 0.2357 0.45623 0.61001 0.0
C897 C 0.27253 0.43966 0.52741 0.0
C898 C 0.2896 0.45161 0.54915 0.0
C899 C 0.27684 0.45804 0.57515 0.0
C900 C 0.32119 0.45469 0.54659 0.0
C901 C 0.28496 0.43355 0.4986 0.0
C902 C 0.33736 0.42877 0.54496 0.0
C903 C 0.36725 0.43092 0.54487 0.0
C904 C 0.38161 0.45905 0.54647 0.0
C905 C 0.36537 0.48511 0.54766 0.0
C906 C 0.33537 0.4829 0.54797 0.0
H907 H 0.26812 0.43316 0.48173 0.0
H908 H 0.30173 0.45086 0.49154 0.0
H909 H 0.29494 0.4111 0.50051 0.0
H910 H 0.32685 0.40671 0.5444 0.0
H911 H 0.37912 0.4105 0.54356 0.0
H912 H 0.90535 0.81084 0.87716 0.0
H913 H 0.92834 0.76624 0.90008 0.0
H914 H 0.84535 0.72452 0.92003 0.0
H915 H 0.82214 0.76887 0.89662 0.0
H916 H 0.92441 0.73896 0.95693 0.0
H917 H 0.88593 0.65973 0.87783 0.0
H918 H 0.8844 0.70028 0.871 0.0
H919 H 0.85828 0.68001 0.8941 0.0
C920 C 0.89191 0.79212 0.8862 0.0
C921 C 0.86178 0.79353 0.88472 0.0
C922 C 0.90514 0.76664 0.89952 0.0
C923 C 0.88869 0.74167 0.9115 0.0
C924 C 0.85862 0.74319 0.91057 0.0
H925 H 0.95176 0.58965 0.02548 0.0
H926 H 0.92762 0.63503 1.00555 0.0
C927 C 0.84533 0.76877 0.8974 0.0
C928 C 0.90308 0.71417 0.92482 0.0
H929 H 0.91107 0.6385 0.91836 0.0
C930 C 0.92142 0.71699 0.94852 0.0
C931 C 0.89956 0.68545 0.91373 0.0
C932 C 0.88119 0.68106 0.88761 0.0
C933 C 0.936 0.69201 0.96152 0.0
C934 C 0.93209 0.66319 0.95073 0.0
C935 C 0.91396 0.66044 0.92686 0.0
C936 C 0.9472 0.63582 0.96332 0.0
C937 C 0.95602 0.69683 0.98631 0.0
C938 C 0.96607 0.6207 0.94628 0.0
C939 C 0.97996 0.59475 0.95765 0.0
C940 C 0.97514 0.58295 0.98634 0.0
C941 C 0.95618 0.59809 1.00339 0.0
C942 C 0.9424 0.62419 0.99202 0.0
H943 H 0.96181 0.72115 0.98765 0.0
H944 H 0.94535 0.6883 1.00681 0.0
H945 H 0.976 0.68419 0.98425 0.0
H946 H 0.97014 0.62905 0.92409 0.0
H947 H 0.99426 0.58374 0.94376 0.0
H948 H 0.37429 0.73464 0.19458 0.0
H949 H 0.3995 0.77865 0.17021 0.0
H950 H 0.3802 0.74521 0.08775 0.0
H951 H 0.35566 0.70059 0.11187 0.0
H952 H 0.44783 0.77767 0.12796 0.0
H953 H 0.35066 0.83465 0.08403 0.0
H954 H 0.34911 0.8064 0.11427 0.0
H955 H 0.35366 0.79521 0.07839 0.0
C956 C 0.37563 0.7364 0.17127 0.0
C957 C 0.36288 0.71396 0.15523 0.0
C958 C 0.38992 0.76168 0.15739 0.0
C959 C 0.39149 0.76528 0.12721 0.0
C960 C 0.37888 0.74302 0.11107 0.0
H961 H 0.4582 0.91158 1.00734 0.0
H962 H 0.43574 0.86486 0.02957 0.0
C963 C 0.36475 0.7176 0.12493 0.0
C964 C 0.40658 0.7922 0.11265 0.0
H965 H 0.39547 0.85764 0.07089 0.0
C966 C 0.43644 0.79521 0.11548 0.0
C967 C 0.39163 0.81486 0.09627 0.0
C968 C 0.35946 0.81292 0.09309 0.0
C969 C 0.45187 0.82021 0.10208 0.0
C970 C 0.43688 0.84324 0.08608 0.0
C971 C 0.40698 0.84005 0.08315 0.0
C972 C 0.45166 0.871 0.07247 0.0
C973 C 0.48412 0.8213 0.10468 0.0
C974 C 0.46803 0.89014 0.08917 0.0
C975 C 0.48113 0.91673 0.07646 0.0
C976 C 0.47778 0.925 0.04685 0.0
C977 C 0.46129 0.90586 0.03019 0.0
C978 C 0.44839 0.87915 0.04287 0.0
H979 H 0.49266 0.79836 0.10959 0.0
H980 H 0.49439 0.83162 0.08456 0.0
H981 H 0.49038 0.83516 0.12262 0.0
H982 H 0.47025 0.88483 0.11217 0.0
H983 H 0.49341 0.93111 0.08999 0.0
H984 H 0.02202 0.33862 0.59656 0.0
H985 H 1.0 0.29114 0.58239 0.0
H986 H 0.08342 0.2602 0.56087 0.0
H987 H 0.10562 0.30706 0.57539 0.0
H988 H 0.03836 0.2498 0.51932 0.0
H989 H 1.00937 0.20952 0.63247 0.0
H990 H 0.99749 0.24618 0.61896 0.0
H991 H 0.03506 0.24023 0.62411 0.0
C992 C 0.03566 0.32169 0.58879 0.0
C993 C 0.0656 0.32663 0.58719 0.0
C994 C 0.02304 0.29466 0.58065 0.0
C995 C 0.04015 0.27215 0.57081 0.0
C996 C 0.06986 0.27739 0.56831 0.0
H997 H 0.04423 0.08529 0.56524 0.0
H998 H 0.04585 0.13858 0.57451 0.0
C999 C 0.08249 0.30428 0.57649 0.0
C1000 C 0.02766 0.24239 0.56436 0.0
H1001 H 1.00173 0.17543 0.59704 0.0
C1002 C 0.02981 0.23366 0.53614 0.0
C1003 C 0.01672 0.22146 0.58649 0.0
C1004 C 0.01458 0.22956 0.61729 0.0
C1005 C 0.0224 0.20406 0.52966 0.0
C1006 C 0.01246 0.18282 0.55201 0.0
C1007 C 1.00916 0.19192 0.57997 0.0
C1008 C 1.00934 0.15023 0.54766 0.0
C1009 C 0.02685 0.19517 0.49939 0.0
C1010 C 0.98784 0.13903 0.52989 0.0
C1011 C 0.98678 0.10838 0.52455 0.0
C1012 C 1.00731 0.08864 0.53682 0.0
C1013 C 0.0282 0.0999 0.55529 0.0
C1014 C 0.02913 0.13034 0.5607 0.0
H1015 H 0.03769 0.21349 0.48533 0.0
H1016 H 0.03989 0.17462 0.49974 0.0
H1017 H 1.00576 0.18971 0.48972 0.0
H1018 H 0.97222 0.15405 0.51986 0.0
H1019 H 0.9704 0.10035 0.51027 0.0
H1020 H 0.63834 0.23757 0.39189 0.0
H1021 H 0.62074 0.28593 0.40509 0.0
H1022 H 0.53701 0.24455 0.42237 0.0
H1023 H 0.55467 0.19578 0.4098 0.0
H1024 H 0.57326 0.32079 0.38285 0.0
H1025 H 0.56145 0.28049 0.49879 0.0
H1026 H 0.58193 0.2606 0.47382 0.0
H1027 H 0.54346 0.25771 0.47364 0.0
C1028 C 0.6162 0.23875 0.3986 0.0
C1029 C 0.59795 0.21285 0.40026 0.0
C1030 C 0.60615 0.2664 0.40588 0.0
C1031 C 0.57774 0.2686 0.41503 0.0
C1032 C 0.55913 0.2431 0.4157 0.0
H1033 H 0.49086 0.41307 0.48979 0.0
H1034 H 0.50281 0.36648 0.46868 0.0
C1035 C 0.56916 0.21538 0.40835 0.0
C1036 C 0.56809 0.29736 0.42497 0.0
H1037 H 0.54752 0.33015 0.48514 0.0
C1038 C 0.56752 0.32291 0.40517 0.0
C1039 C 0.56079 0.2999 0.45413 0.0
C1040 C 0.5621 0.27333 0.47646 0.0
C1041 C 0.55954 0.35107 0.41378 0.0
C1042 C 0.55253 0.35366 0.44302 0.0
C1043 C 0.5529 0.32801 0.46273 0.0
C1044 C 0.54487 0.38275 0.45388 0.0
C1045 C 0.55832 0.37764 0.39148 0.0
C1046 C 0.56464 0.40732 0.45255 0.0
C1047 C 0.55786 0.4341 0.46454 0.0
C1048 C 0.53131 0.43654 0.4783 0.0
C1049 C 0.51153 0.41191 0.47939 0.0
C1050 C 0.51828 0.38527 0.46732 0.0
H1051 H 0.55674 0.37022 0.36927 0.0
H1052 H 0.53976 0.39186 0.39538 0.0
H1053 H 0.57821 0.39184 0.39274 0.0
H1054 H 0.58555 0.40555 0.44281 0.0
H1055 H 0.57359 0.45264 0.46349 0.0
loop_
_geom_bond_atom_site_label_1
_geom_bond_atom_site_label_2
_geom_bond_distance
_geom_bond_site_symmetry_2
_ccdc_geom_bond_type
H0 C3 0.931 . S
H1 C6 0.928 . S
H2 C8 0.930 . S
C3 H0 0.931 . S
C3 C4 1.413 . S
C3 C5 1.360 . S
C4 C3 1.413 . S
C4 C8 1.429 . S
C5 C3 1.360 . S
C5 C6 1.372 . S
C6 H1 0.928 . S
C6 C5 1.372 . S
C6 C7 1.404 . S
C7 C6 1.404 . S
C7 C8 1.391 . S
C8 H2 0.930 . S
C8 C4 1.429 . S
C8 C7 1.391 . S
H9 C12 0.931 . S
H10 C15 0.928 . S
H11 C17 0.930 . S
C12 H9 0.931 . S
C12 C13 1.413 . S
C12 C14 1.360 . S
C13 C12 1.413 . S
C13 C17 1.429 . S
C14 C12 1.360 . S
C14 C15 1.372 . S
C15 H10 0.928 . S
C15 C14 1.372 . S
C15 C16 1.404 . S
C16 C15 1.404 . S
C16 C17 1.391 . S
C17 H11 0.930 . S
C17 C13 1.429 . S
C17 C16 1.391 . S
H18 C21 0.931 . S
H19 C24 0.928 . S
H20 C26 0.930 . S
C21 H18 0.931 . S
C21 C22 1.413 . S
C21 C23 1.360 . S
C22 C21 1.413 . S
C22 C26 1.429 . S
C23 C21 1.360 . S
C23 C24 1.372 . S
C24 H19 0.928 . S
C24 C23 1.372 . S
C24 C25 1.404 . S
C25 C24 1.404 . S
C25 C26 1.391 . S
C26 H20 0.930 . S
C26 C22 1.429 . S
C26 C25 1.391 . S
H27 C30 0.931 . S
H28 C33 0.928 . S
H29 C35 0.930 . S
C30 H27 0.931 . S
C30 C31 1.413 . S
C30 C32 1.360 . S
C31 C30 1.413 . S
C31 C35 1.429 . S
C32 C30 1.360 . S
C32 C33 1.372 . S
C33 H28 0.928 . S
C33 C32 1.372 . S
C33 C34 1.404 . S
C34 C33 1.404 . S
C34 C35 1.391 . S
C35 H29 0.930 . S
C35 C31 1.429 . S
C35 C34 1.391 . S
H36 C39 0.931 . S
H37 C42 0.928 . S
H38 C44 0.930 . S
C39 H36 0.931 . S
C39 C40 1.413 . S
C39 C41 1.360 . S
C40 C39 1.413 . S
C40 C44 1.429 . S
C41 C39 1.360 . S
C41 C42 1.372 . S
C42 H37 0.928 . S
C42 C41 1.372 . S
C42 C43 1.404 . S
C43 C42 1.404 . S
C43 C44 1.391 . S
C44 H38 0.930 . S
C44 C40 1.429 . S
C44 C43 1.391 . S
H45 C48 0.931 . S
H46 C51 0.928 . S
H47 C53 0.930 . S
C48 H45 0.931 . S
C48 C49 1.413 . S
C48 C50 1.360 . S
C49 C48 1.413 . S
C49 C53 1.429 . S
C50 C48 1.360 . S
C50 C51 1.372 . S
C51 H46 0.928 . S
C51 C50 1.372 . S
C51 C52 1.404 . S
C52 C51 1.404 . S
C52 C53 1.391 . S
C53 H47 0.930 . S
C53 C49 1.429 . S
C53 C52 1.391 . S
H54 C57 0.931 . S
H55 C60 0.928 . S
H56 C62 0.930 . S
C57 H54 0.931 . S
C57 C58 1.413 . S
C57 C59 1.360 . S
C58 C57 1.413 . S
C58 C62 1.429 . S
C59 C57 1.360 . S
C59 C60 1.372 . S
C60 H55 0.928 . S
C60 C59 1.372 . S
C60 C61 1.404 . S
C61 C60 1.404 . S
C61 C62 1.391 . S
C62 H56 0.930 . S
C62 C58 1.429 . S
C62 C61 1.391 . S
H63 C66 0.931 . S
H64 C69 0.928 . S
H65 C71 0.930 . S
C66 H63 0.931 . S
C66 C67 1.413 . S
C66 C68 1.360 . S
C67 C66 1.413 . S
C67 C71 1.429 . S
C68 C66 1.360 . S
C68 C69 1.372 . S
C69 H64 0.928 . S
C69 C68 1.372 . S
C69 C70 1.404 . S
C70 C69 1.404 . S
C70 C71 1.391 . S
C71 H65 0.930 . S
C71 C67 1.429 . S
C71 C70 1.391 . S
Co72 N77 2.057 . S
Co72 O89 2.021 . S
Co72 O92 2.062 . S
Co72 O96 2.117 1_545 S
Co72 O97 2.020 1_545 S
C73 O93 1.259 1_655 S
C73 O96 1.258 . S
Co74 N83 2.057 . S
Co74 O90 2.117 1_565 S
Co74 O91 2.020 1_565 S
Co74 O93 2.021 . S
Co74 O98 2.062 . S
C75 N77 1.316 . S
C75 N78 1.347 . S
C75 H80 0.931 . S
C76 N77 1.375 1_565 S
C76 C79 1.350 1_565 S
C76 H81 0.930 . S
N77 Co72 2.057 . S
N77 C75 1.316 . S
N77 C76 1.375 1_545 S
N78 C75 1.347 . S
N78 C79 1.373 . S
C79 C76 1.350 1_545 S
C79 N78 1.373 . S
C79 H100 0.930 1_545 S
H80 C75 0.931 . S
H81 C76 0.930 . S
C82 O89 1.259 1_455 S
C82 O90 1.258 . S
N83 Co74 2.057 . S
N83 C84 1.316 . S
N83 C85 1.375 1_565 S
C84 N83 1.316 . S
C84 N86 1.347 . S
C84 H95 0.931 . S
C85 N83 1.375 1_545 S
C85 C87 1.350 1_545 S
C85 H94 0.930 . S
N86 C84 1.347 . S
N86 C87 1.373 . S
C87 C85 1.350 1_565 S
C87 N86 1.373 . S
C87 H101 0.931 1_565 S
C88 O91 1.256 . S
C88 O92 1.255 1_455 S
O89 Co72 2.021 . S
O89 C82 1.259 1_655 S
O90 Co74 2.117 1_545 S
O90 C82 1.258 . S
O91 Co74 2.020 1_545 S
O91 C88 1.256 . S
O92 Co72 2.062 . S
O92 C88 1.255 1_655 S
O93 C73 1.259 1_455 S
O93 Co74 2.021 . S
H94 C85 0.930 . S
H95 C84 0.931 . S
O96 Co72 2.117 1_565 S
O96 C73 1.258 . S
O97 Co72 2.020 1_565 S
O97 C99 1.256 . S
O98 Co74 2.062 . S
O98 C99 1.255 1_455 S
C99 O97 1.256 . S
C99 O98 1.255 1_655 S
H100 C79 0.930 1_565 S
H101 C87 0.931 1_545 S
Co102 N107 2.057 . S
Co102 O119 2.021 1_565 S
Co102 O122 2.062 . S
Co102 O126 2.113 1_556 S
Co102 O127 2.020 1_565 S
C103 O123 1.259 . S
C103 O126 1.264 . S
Co104 N113 2.057 . S
Co104 O120 2.117 . S
Co104 O121 2.020 1_545 S
Co104 O123 2.021 1_545 S
Co104 O128 2.062 . S
C105 N107 1.316 . S
C105 N108 1.347 . S
C105 H110 0.931 1_565 S
C106 N107 1.375 . S
C106 C109 1.350 . S
C106 H111 0.930 . S
N107 Co102 2.057 . S
N107 C105 1.316 . S
N107 C106 1.375 . S
N108 C105 1.347 . S
N108 C109 1.373 . S
C109 C106 1.350 . S
C109 N108 1.373 . S
C109 H130 0.931 . S
H110 C105 0.931 1_545 S
H111 C106 0.930 . S
C112 O119 1.259 . S
C112 O120 1.258 1_556 S
N113 Co104 2.057 . S
N113 C114 1.316 . S
N113 C115 1.375 . S
C114 N113 1.316 . S
C114 N116 1.347 . S
C114 H125 0.931 1_545 S
C115 N113 1.375 . S
C115 C117 1.350 . S
C115 H124 0.930 . S
N116 C114 1.347 . S
N116 C117 1.373 . S
C117 C115 1.350 . S
C117 N116 1.373 . S
C117 H131 0.931 . S
C118 O121 1.256 1_556 S
C118 O122 1.255 . S
O119 Co102 2.021 1_545 S
O119 C112 1.259 . S
O120 Co104 2.117 . S
O120 C112 1.258 1_554 S
O121 Co104 2.020 1_565 S
O121 C118 1.256 1_554 S
O122 Co102 2.062 . S
O122 C118 1.255 . S
O123 C103 1.259 . S
O123 Co104 2.021 1_565 S
H124 C115 0.930 . S
H125 C114 0.931 1_565 S
O126 Co102 2.113 1_554 S
O126 C103 1.264 . S
O127 Co102 2.020 1_545 S
O127 C129 1.256 1_556 S
O128 Co104 2.062 . S
O128 C129 1.255 . S
C129 O127 1.256 1_554 S
C129 O128 1.255 . S
H130 C109 0.931 . S
H131 C117 0.931 . S
Co132 N137 2.057 . S
Co132 O149 2.021 . S
Co132 O152 2.062 . S
Co132 O156 2.117 . S
Co132 O157 2.020 . S
C133 O153 1.259 . S
C133 O156 1.258 . S
Co134 N143 2.057 . S
Co134 O150 2.117 . S
Co134 O151 2.020 . S
Co134 O153 2.021 . S
Co134 O158 2.062 . S
C135 N137 1.316 . S
C135 N138 1.347 . S
C135 H140 0.931 . S
C136 N137 1.375 . S
C136 C139 1.350 . S
C136 H141 0.930 . S
N137 Co132 2.057 . S
N137 C135 1.316 . S
N137 C136 1.375 . S
N138 C135 1.347 . S
N138 C139 1.373 . S
C139 C136 1.350 . S
C139 N138 1.373 . S
C139 H160 0.931 . S
H140 C135 0.931 . S
H141 C136 0.930 . S
C142 O149 1.259 . S
C142 O150 1.258 . S
N143 Co134 2.057 . S
N143 C144 1.316 . S
N143 C145 1.375 . S
C144 N143 1.316 . S
C144 N146 1.347 . S
C144 H155 0.931 . S
C145 N143 1.375 . S
C145 C147 1.350 . S
C145 H154 0.930 . S
N146 C144 1.347 . S
N146 C147 1.373 . S
C147 C145 1.350 . S
C147 N146 1.373 . S
C147 H161 0.931 . S
C148 O151 1.256 . S
C148 O152 1.255 . S
O149 Co132 2.021 . S
O149 C142 1.259 . S
O150 Co134 2.117 . S
O150 C142 1.258 . S
O151 Co134 2.020 . S
O151 C148 1.256 . S
O152 Co132 2.062 . S
O152 C148 1.255 . S
O153 C133 1.259 . S
O153 Co134 2.021 . S
H154 C145 0.930 . S
H155 C144 0.931 . S
O156 Co132 2.117 . S
O156 C133 1.258 . S
O157 Co132 2.020 . S
O157 C159 1.256 . S
O158 Co134 2.062 . S
O158 C159 1.255 . S
C159 O157 1.256 . S
C159 O158 1.255 . S
H160 C139 0.931 . S
H161 C147 0.931 . S
Co162 N167 2.057 . S
Co162 O179 2.021 . S
Co162 O182 2.062 . S
Co162 O186 2.117 1_455 S
Co162 O187 2.009 1_455 S
C163 O183 1.259 1_556 S
C163 O186 1.258 . S
Co164 N173 2.057 . S
Co164 O180 2.117 1_655 S
Co164 O181 2.020 1_655 S
Co164 O183 2.021 . S
Co164 O188 2.062 . S
C165 N167 1.316 . S
C165 N168 1.347 . S
C165 H170 0.931 . S
C166 N167 1.375 1_655 S
C166 C169 1.350 1_655 S
C166 H171 0.930 . S
N167 Co162 2.057 . S
N167 C165 1.316 . S
N167 C166 1.375 1_455 S
N168 C165 1.347 . S
N168 C169 1.373 . S
C169 C166 1.350 1_455 S
C169 N168 1.373 . S
C169 H190 0.931 1_455 S
H170 C165 0.931 . S
H171 C166 0.930 . S
C172 O179 1.259 1_554 S
C172 O180 1.258 . S
N173 Co164 2.057 . S
N173 C174 1.316 . S
N173 C175 1.375 1_655 S
C174 N173 1.316 . S
C174 N176 1.347 . S
C174 H185 0.931 . S
C175 N173 1.375 1_455 S
C175 C177 1.350 1_455 S
C175 H184 0.930 . S
N176 C174 1.347 . S
N176 C177 1.373 . S
C177 C175 1.350 1_655 S
C177 N176 1.373 . S
C177 H191 0.931 1_655 S
C178 O181 1.256 . S
C178 O182 1.255 1_554 S
O179 Co162 2.021 . S
O179 C172 1.259 1_556 S
O180 Co164 2.117 1_455 S
O180 C172 1.258 . S
O181 Co164 2.020 1_455 S
O181 C178 1.256 . S
O182 Co162 2.062 . S
O182 C178 1.255 1_556 S
O183 C163 1.259 1_554 S
O183 Co164 2.021 . S
H184 C175 0.930 . S
H185 C174 0.931 . S
O186 Co162 2.117 1_655 S
O186 C163 1.258 . S
O187 Co162 2.009 1_655 S
O187 C189 1.270 . S
O188 Co164 2.062 . S
O188 C189 1.255 1_554 S
C189 O187 1.270 . S
C189 O188 1.255 1_556 S
H190 C169 0.931 1_655 S
H191 C177 0.931 1_455 S
H192 C200 0.929 . S
H193 C202 0.930 . S
H194 C204 0.930 . S
H195 C207 0.929 . S
H196 C210 0.930 . S
H197 C212 0.960 . S
H198 C212 0.960 . S
H199 C212 0.960 . S
C200 H192 0.929 . S
C200 C201 1.377 . S
C200 C202 1.384 . S
C201 C200 1.377 . S
C201 C207 1.390 . S
C202 H193 0.930 . S
C202 C200 1.384 . S
C202 C203 1.372 . S
C203 C202 1.372 . S
C203 C204 1.400 . S
C203 C208 1.490 . S
C204 H194 0.930 . S
C204 C203 1.400 . S
C204 C207 1.386 . S
H205 C221 0.930 1_565 S
H206 C222 0.931 . S
C207 H195 0.929 . S
C207 C201 1.390 . S
C207 C204 1.386 . S
C208 C203 1.490 . S
C208 C210 1.395 . S
C208 C211 1.403 . S
H209 C215 0.930 . S
C210 H196 0.930 . S
C210 C208 1.395 . S
C210 C213 1.403 . S
C211 C208 1.403 . S
C211 C212 1.524 . S
C211 C215 1.400 . S
C212 H197 0.960 . S
C212 H198 0.960 . S
C212 H199 0.960 . S
C212 C211 1.524 . S
C213 C210 1.403 . S
C213 C214 1.392 . S
C213 C217 1.495 . S
C214 C213 1.392 . S
C214 C215 1.385 . S
C214 C216 1.478 . S
C215 H209 0.930 . S
C215 C211 1.400 . S
C215 C214 1.385 . S
C216 C214 1.478 . S
C216 C218 1.381 . S
C216 C222 1.383 . S
C217 C213 1.495 . S
C217 H223 0.959 1_455 S
C217 H224 0.961 . S
C217 H225 0.960 1_455 S
C218 C216 1.381 . S
C218 C219 1.394 . S
C218 H226 0.930 . S
C219 C218 1.394 . S
C219 C220 1.383 . S
C219 H227 0.929 . S
C220 C219 1.383 . S
C220 C221 1.377 . S
C221 H205 0.930 1_545 S
C221 C220 1.377 . S
C221 C222 1.379 . S
C222 H206 0.931 . S
C222 C216 1.383 . S
C222 C221 1.379 . S
H223 C217 0.959 1_655 S
H224 C217 0.961 . S
H225 C217 0.960 1_655 S
H226 C218 0.930 . S
H227 C219 0.929 . S
H228 C236 0.929 . S
H229 C238 0.930 . S
H230 C240 0.930 . S
H231 C243 0.929 . S
H232 C246 0.930 . S
H233 C248 0.960 . S
H234 C248 0.960 . S
H235 C248 0.960 . S
C236 H228 0.929 . S
C236 C237 1.377 . S
C236 C238 1.384 . S
C237 C236 1.377 . S
C237 C243 1.390 . S
C238 H229 0.930 . S
C238 C236 1.384 . S
C238 C239 1.372 . S
C239 C238 1.372 . S
C239 C240 1.400 . S
C239 C244 1.490 . S
C240 H230 0.930 . S
C240 C239 1.400 . S
C240 C243 1.386 . S
H241 C257 0.930 . S
H242 C258 0.931 . S
C243 H231 0.929 . S
C243 C237 1.390 . S
C243 C240 1.386 . S
C244 C239 1.490 . S
C244 C246 1.395 . S
C244 C247 1.403 . S
H245 C251 0.930 . S
C246 H232 0.930 . S
C246 C244 1.395 . S
C246 C249 1.403 . S
C247 C244 1.403 . S
C247 C248 1.524 . S
C247 C251 1.400 . S
C248 H233 0.960 . S
C248 H234 0.960 . S
C248 H235 0.960 . S
C248 C247 1.524 . S
C249 C246 1.403 . S
C249 C250 1.392 . S
C249 C253 1.495 . S
C250 C249 1.392 . S
C250 C251 1.385 . S
C250 C252 1.478 . S
C251 H245 0.930 . S
C251 C247 1.400 . S
C251 C250 1.385 . S
C252 C250 1.478 . S
C252 C254 1.381 . S
C252 C258 1.383 . S
C253 C249 1.495 . S
C253 H259 0.959 . S
C253 H260 0.961 . S
C253 H261 0.960 . S
C254 C252 1.381 . S
C254 C255 1.394 . S
C254 H262 0.930 . S
C255 C254 1.394 . S
C255 C256 1.383 . S
C255 H263 0.929 . S
C256 C255 1.383 . S
C256 C257 1.377 . S
C257 H241 0.930 . S
C257 C256 1.377 . S
C257 C258 1.379 . S
C258 H242 0.931 . S
C258 C252 1.383 . S
C258 C257 1.379 . S
H259 C253 0.959 . S
H260 C253 0.961 . S
H261 C253 0.960 . S
H262 C254 0.930 . S
H263 C255 0.929 . S
H264 C272 0.929 . S
H265 C274 0.930 . S
H266 C276 0.930 . S
H267 C279 0.929 . S
H268 C282 0.930 . S
H269 C284 0.960 . S
H270 C284 0.960 . S
H271 C284 0.960 . S
C272 H264 0.929 . S
C272 C273 1.377 . S
C272 C274 1.384 . S
C273 C272 1.377 . S
C273 C279 1.390 . S
C274 H265 0.930 . S
C274 C272 1.384 . S
C274 C275 1.372 . S
C275 C274 1.372 . S
C275 C276 1.400 . S
C275 C280 1.490 . S
C276 H266 0.930 . S
C276 C275 1.400 . S
C276 C279 1.386 . S
H277 C293 0.930 . S
H278 C294 0.931 . S
C279 H267 0.929 . S
C279 C273 1.390 . S
C279 C276 1.386 . S
C280 C275 1.490 . S
C280 C282 1.395 . S
C280 C283 1.403 . S
H281 C287 0.930 . S
C282 H268 0.930 . S
C282 C280 1.395 . S
C282 C285 1.403 . S
C283 C280 1.403 . S
C283 C284 1.524 . S
C283 C287 1.400 . S
C284 H269 0.960 . S
C284 H270 0.960 . S
C284 H271 0.960 . S
C284 C283 1.524 . S
C285 C282 1.403 . S
C285 C286 1.392 . S
C285 C289 1.495 . S
C286 C285 1.392 . S
C286 C287 1.385 . S
C286 C288 1.478 . S
C287 H281 0.930 . S
C287 C283 1.400 . S
C287 C286 1.385 . S
C288 C286 1.478 . S
C288 C290 1.381 . S
C288 C294 1.383 . S
C289 C285 1.495 . S
C289 H295 0.959 . S
C289 H296 0.961 . S
C289 H297 0.960 . S
C290 C288 1.381 . S
C290 C291 1.394 . S
C290 H298 0.930 . S
C291 C290 1.394 . S
C291 C292 1.383 . S
C291 H299 0.929 . S
C292 C291 1.383 . S
C292 C293 1.377 . S
C293 H277 0.930 . S
C293 C292 1.377 . S
C293 C294 1.379 . S
C294 H278 0.931 . S
C294 C288 1.383 . S
C294 C293 1.379 . S
H295 C289 0.959 . S
H296 C289 0.961 . S
H297 C289 0.960 . S
H298 C290 0.930 . S
H299 C291 0.929 . S
H300 C308 0.929 . S
H301 C310 0.930 . S
H302 C312 0.930 . S
H303 C315 0.929 . S
H304 C318 0.930 . S
H305 C320 0.960 . S
H306 C320 0.960 . S
H307 C320 0.960 . S
C308 H300 0.929 . S
C308 C309 1.377 . S
C308 C310 1.384 . S
C309 C308 1.377 . S
C309 C315 1.390 . S
C310 H301 0.930 . S
C310 C308 1.384 . S
C310 C311 1.372 . S
C311 C310 1.372 . S
C311 C312 1.400 . S
C311 C316 1.490 . S
C312 H302 0.930 . S
C312 C311 1.400 . S
C312 C315 1.386 . S
H313 C329 0.930 . S
H314 C330 0.931 . S
C315 H303 0.929 . S
C315 C309 1.390 . S
C315 C312 1.386 . S
C316 C311 1.490 . S
C316 C318 1.395 . S
C316 C319 1.403 . S
H317 C323 0.930 . S
C318 H304 0.930 . S
C318 C316 1.395 . S
C318 C321 1.403 . S
C319 C316 1.403 . S
C319 C320 1.524 . S
C319 C323 1.400 . S
C320 H305 0.960 . S
C320 H306 0.960 . S
C320 H307 0.960 . S
C320 C319 1.524 . S
C321 C318 1.403 . S
C321 C322 1.392 . S
C321 C325 1.495 . S
C322 C321 1.392 . S
C322 C323 1.385 . S
C322 C324 1.478 . S
C323 H317 0.930 . S
C323 C319 1.400 . S
C323 C322 1.385 . S
C324 C322 1.478 . S
C324 C326 1.381 . S
C324 C330 1.383 . S
C325 C321 1.495 . S
C325 H331 0.959 1_655 S
C325 H332 0.961 1_655 S
C325 H333 0.960 . S
C326 C324 1.381 . S
C326 C327 1.394 . S
C326 H334 0.930 . S
C327 C326 1.394 . S
C327 C328 1.383 . S
C327 H335 0.929 . S
C328 C327 1.383 . S
C328 C329 1.377 . S
C329 H313 0.930 . S
C329 C328 1.377 . S
C329 C330 1.379 . S
C330 H314 0.931 . S
C330 C324 1.383 . S
C330 C329 1.379 . S
H331 C325 0.959 1_455 S
H332 C325 0.961 1_455 S
H333 C325 0.960 . S
H334 C326 0.930 . S
H335 C327 0.929 . S
H336 C344 0.929 . S
H337 C346 0.930 . S
H338 C348 0.930 . S
H339 C351 0.929 . S
H340 C354 0.930 . S
H341 C356 0.960 . S
H342 C356 0.960 . S
H343 C356 0.960 . S
C344 H336 0.929 . S
C344 C345 1.377 . S
C344 C346 1.384 . S
C345 C344 1.377 . S
C345 C351 1.390 . S
C346 H337 0.930 . S
C346 C344 1.384 . S
C346 C347 1.372 . S
C347 C346 1.372 . S
C347 C348 1.400 . S
C347 C352 1.490 . S
C348 H338 0.930 . S
C348 C347 1.400 . S
C348 C351 1.386 . S
H349 C365 0.930 . S
H350 C366 0.931 . S
C351 H339 0.929 . S
C351 C345 1.390 . S
C351 C348 1.386 . S
C352 C347 1.490 . S
C352 C354 1.395 . S
C352 C355 1.403 . S
H353 C359 0.930 . S
C354 H340 0.930 . S
C354 C352 1.395 . S
C354 C357 1.403 . S
C355 C352 1.403 . S
C355 C356 1.524 . S
C355 C359 1.400 . S
C356 H341 0.960 . S
C356 H342 0.960 . S
C356 H343 0.960 . S
C356 C355 1.524 . S
C357 C354 1.403 . S
C357 C358 1.392 . S
C357 C361 1.495 . S
C358 C357 1.392 . S
C358 C359 1.385 . S
C358 C360 1.478 . S
C359 H353 0.930 . S
C359 C355 1.400 . S
C359 C358 1.385 . S
C360 C358 1.478 . S
C360 C362 1.381 . S
C360 C366 1.383 . S
C361 C357 1.495 . S
C361 H367 0.959 1_554 S
C361 H368 0.961 1_554 S
C361 H369 0.960 . S
C362 C360 1.381 . S
C362 C363 1.394 . S
C362 H370 0.930 . S
C363 C362 1.394 . S
C363 C364 1.383 . S
C363 H371 0.929 1_545 S
C364 C363 1.383 . S
C364 C365 1.377 . S
C365 H349 0.930 . S
C365 C364 1.377 . S
C365 C366 1.379 . S
C366 H350 0.931 . S
C366 C360 1.383 . S
C366 C365 1.379 . S
H367 C361 0.959 1_556 S
H368 C361 0.961 1_556 S
H369 C361 0.960 . S
H370 C362 0.930 . S
H371 C363 0.929 1_565 S
H372 C380 0.929 . S
H373 C382 0.930 . S
H374 C384 0.930 . S
H375 C387 0.929 . S
H376 C390 0.930 . S
H377 C392 0.960 . S
H378 C392 0.960 . S
H379 C392 0.960 . S
C380 H372 0.929 . S
C380 C381 1.377 . S
C380 C382 1.384 . S
C381 C380 1.377 . S
C381 C387 1.390 . S
C382 H373 0.930 . S
C382 C380 1.384 . S
C382 C383 1.372 . S
C383 C382 1.372 . S
C383 C384 1.400 . S
C383 C388 1.490 . S
C384 H374 0.930 . S
C384 C383 1.400 . S
C384 C387 1.386 . S
H385 C401 0.930 . S
H386 C402 0.931 . S
C387 H375 0.929 . S
C387 C381 1.390 . S
C387 C384 1.386 . S
C388 C383 1.490 . S
C388 C390 1.395 . S
C388 C391 1.403 . S
H389 C395 0.930 . S
C390 H376 0.930 . S
C390 C388 1.395 . S
C390 C393 1.403 . S
C391 C388 1.403 . S
C391 C392 1.524 . S
C391 C395 1.400 . S
C392 H377 0.960 . S
C392 H378 0.960 . S
C392 H379 0.960 . S
C392 C391 1.524 . S
C393 C390 1.403 . S
C393 C394 1.392 . S
C393 C397 1.495 . S
C394 C393 1.392 . S
C394 C395 1.385 . S
C394 C396 1.478 . S
C395 H389 0.930 . S
C395 C391 1.400 . S
C395 C394 1.385 . S
C396 C394 1.478 . S
C396 C398 1.381 . S
C396 C402 1.383 . S
C397 C393 1.495 . S
C397 H403 0.959 . S
C397 H404 0.961 . S
C397 H405 0.960 . S
C398 C396 1.381 . S
C398 C399 1.394 . S
C398 H406 0.930 . S
C399 C398 1.394 . S
C399 C400 1.383 . S
C399 H407 0.929 . S
C400 C399 1.383 . S
C400 C401 1.377 . S
C401 H385 0.930 . S
C401 C400 1.377 . S
C401 C402 1.379 . S
C402 H386 0.931 . S
C402 C396 1.383 . S
C402 C401 1.379 . S
H403 C397 0.959 . S
H404 C397 0.961 . S
H405 C397 0.960 . S
H406 C398 0.930 . S
H407 C399 0.929 . S
H408 C416 0.929 . S
H409 C418 0.930 . S
H410 C420 0.930 . S
H411 C423 0.929 . S
H412 C426 0.930 . S
H413 C428 0.960 . S
H414 C428 0.960 . S
H415 C428 0.960 . S
C416 H408 0.929 . S
C416 C417 1.377 . S
C416 C418 1.384 . S
C417 C416 1.377 . S
C417 C423 1.390 . S
C418 H409 0.930 . S
C418 C416 1.384 . S
C418 C419 1.372 . S
C419 C418 1.372 . S
C419 C420 1.400 . S
C419 C424 1.490 . S
C420 H410 0.930 . S
C420 C419 1.400 . S
C420 C423 1.386 . S
H421 C437 0.930 . S
H422 C438 0.931 . S
C423 H411 0.929 . S
C423 C417 1.390 . S
C423 C420 1.386 . S
C424 C419 1.490 . S
C424 C426 1.395 . S
C424 C427 1.403 . S
H425 C431 0.930 . S
C426 H412 0.930 . S
C426 C424 1.395 . S
C426 C429 1.403 . S
C427 C424 1.403 . S
C427 C428 1.524 . S
C427 C431 1.400 . S
C428 H413 0.960 . S
C428 H414 0.960 . S
C428 H415 0.960 . S
C428 C427 1.524 . S
C429 C426 1.403 . S
C429 C430 1.392 . S
C429 C433 1.495 . S
C430 C429 1.392 . S
C430 C431 1.385 . S
C430 C432 1.478 . S
C431 H425 0.930 . S
C431 C427 1.400 . S
C431 C430 1.385 . S
C432 C430 1.478 . S
C432 C434 1.381 . S
C432 C438 1.383 . S
C433 C429 1.495 . S
C433 H439 0.959 . S
C433 H440 0.961 1_556 S
C433 H441 0.960 . S
C434 C432 1.381 . S
C434 C435 1.394 . S
C434 H442 0.930 . S
C435 C434 1.394 . S
C435 C436 1.383 . S
C435 H443 0.929 . S
C436 C435 1.383 . S
C436 C437 1.377 . S
C437 H421 0.930 . S
C437 C436 1.377 . S
C437 C438 1.379 . S
C438 H422 0.931 . S
C438 C432 1.383 . S
C438 C437 1.379 . S
H439 C433 0.959 . S
H440 C433 0.961 1_554 S
H441 C433 0.960 . S
H442 C434 0.930 . S
H443 C435 0.929 . S
H444 C452 0.929 . S
H445 C454 0.930 . S
H446 C456 0.930 . S
H447 C459 0.929 . S
H448 C462 0.930 . S
H449 C464 0.960 . S
H450 C464 0.960 . S
H451 C464 0.960 . S
C452 H444 0.929 . S
C452 C453 1.377 . S
C452 C454 1.384 . S
C453 C452 1.377 . S
C453 C459 1.390 . S
C454 H445 0.930 . S
C454 C452 1.384 . S
C454 C455 1.372 . S
C455 C454 1.372 . S
C455 C456 1.400 . S
C455 C460 1.490 . S
C456 H446 0.930 . S
C456 C455 1.400 . S
C456 C459 1.386 . S
H457 C473 0.930 . S
H458 C474 0.931 . S
C459 H447 0.929 . S
C459 C453 1.390 . S
C459 C456 1.386 . S
C460 C455 1.490 . S
C460 C462 1.395 . S
C460 C463 1.403 . S
H461 C467 0.930 . S
C462 H448 0.930 . S
C462 C460 1.395 . S
C462 C465 1.403 . S
C463 C460 1.403 . S
C463 C464 1.524 . S
C463 C467 1.400 . S
C464 H449 0.960 . S
C464 H450 0.960 . S
C464 H451 0.960 . S
C464 C463 1.524 . S
C465 C462 1.403 . S
C465 C466 1.392 . S
C465 C469 1.495 . S
C466 C465 1.392 . S
C466 C467 1.385 . S
C466 C468 1.478 . S
C467 H461 0.930 . S
C467 C463 1.400 . S
C467 C466 1.385 . S
C468 C466 1.478 . S
C468 C470 1.381 . S
C468 C474 1.383 . S
C469 C465 1.495 . S
C469 H475 0.959 . S
C469 H476 0.961 . S
C469 H477 0.960 . S
C470 C468 1.381 . S
C470 C471 1.394 . S
C470 H478 0.930 . S
C471 C470 1.394 . S
C471 C472 1.383 . S
C471 H479 0.929 . S
C472 C471 1.383 . S
C472 C473 1.377 . S
C473 H457 0.930 . S
C473 C472 1.377 . S
C473 C474 1.379 . S
C474 H458 0.931 . S
C474 C468 1.383 . S
C474 C473 1.379 . S
H475 C469 0.959 . S
H476 C469 0.961 . S
H477 C469 0.960 . S
H478 C470 0.930 . S
H479 C471 0.929 . S
H480 C488 0.929 . S
H481 C490 0.930 . S
H482 C492 0.930 . S
H483 C495 0.929 . S
H484 C498 0.930 . S
H485 C500 0.960 . S
H486 C500 0.960 . S
H487 C500 0.960 . S
C488 H480 0.929 . S
C488 C489 1.377 . S
C488 C490 1.384 . S
C489 C488 1.377 . S
C489 C495 1.390 . S
C490 H481 0.930 . S
C490 C488 1.384 . S
C490 C491 1.372 . S
C491 C490 1.372 . S
C491 C492 1.400 . S
C491 C496 1.490 . S
C492 H482 0.930 . S
C492 C491 1.400 . S
C492 C495 1.386 . S
H493 C509 0.930 . S
H494 C510 0.931 . S
C495 H483 0.929 . S
C495 C489 1.390 . S
C495 C492 1.386 . S
C496 C491 1.490 . S
C496 C498 1.395 . S
C496 C499 1.403 . S
H497 C503 0.930 . S
C498 H484 0.930 . S
C498 C496 1.395 . S
C498 C501 1.403 . S
C499 C496 1.403 . S
C499 C500 1.524 . S
C499 C503 1.400 . S
C500 H485 0.960 . S
C500 H486 0.960 . S
C500 H487 0.960 . S
C500 C499 1.524 . S
C501 C498 1.403 . S
C501 C502 1.392 . S
C501 C505 1.495 . S
C502 C501 1.392 . S
C502 C503 1.385 . S
C502 C504 1.478 . S
C503 H497 0.930 . S
C503 C499 1.400 . S
C503 C502 1.385 . S
C504 C502 1.478 . S
C504 C506 1.381 . S
C504 C510 1.383 . S
C505 C501 1.495 . S
C505 H511 0.959 1_455 S
C505 H512 0.961 1_455 S
C505 H513 0.960 1_455 S
C506 C504 1.381 . S
C506 C507 1.394 . S
C506 H514 0.930 . S
C507 C506 1.394 . S
C507 C508 1.383 . S
C507 H515 0.929 1_554 S
C508 C507 1.383 . S
C508 C509 1.377 . S
C509 H493 0.930 . S
C509 C508 1.377 . S
C509 C510 1.379 . S
C510 H494 0.931 . S
C510 C504 1.383 . S
C510 C509 1.379 . S
H511 C505 0.959 1_655 S
H512 C505 0.961 1_655 S
H513 C505 0.960 1_655 S
H514 C506 0.930 . S
H515 C507 0.929 1_556 S
H516 C524 0.929 . S
H517 C526 0.930 . S
H518 C528 0.930 . S
H519 C531 0.929 . S
H520 C534 0.930 . S
H521 C536 0.960 . S
H522 C536 0.960 . S
H523 C536 0.960 . S
C524 H516 0.929 . S
C524 C525 1.377 . S
C524 C526 1.384 . S
C525 C524 1.377 . S
C525 C531 1.390 . S
C526 H517 0.930 . S
C526 C524 1.384 . S
C526 C527 1.372 . S
C527 C526 1.372 . S
C527 C528 1.400 . S
C527 C532 1.490 . S
C528 H518 0.930 . S
C528 C527 1.400 . S
C528 C531 1.386 . S
H529 C545 0.930 1_554 S
H530 C546 0.931 . S
C531 H519 0.929 . S
C531 C525 1.390 . S
C531 C528 1.386 . S
C532 C527 1.490 . S
C532 C534 1.395 . S
C532 C535 1.403 . S
H533 C539 0.930 . S
C534 H520 0.930 . S
C534 C532 1.395 . S
C534 C537 1.403 . S
C535 C532 1.403 . S
C535 C536 1.524 . S
C535 C539 1.400 . S
C536 H521 0.960 . S
C536 H522 0.960 . S
C536 H523 0.960 . S
C536 C535 1.524 . S
C537 C534 1.403 . S
C537 C538 1.392 . S
C537 C541 1.495 . S
C538 C537 1.392 . S
C538 C539 1.385 . S
C538 C540 1.478 . S
C539 H533 0.930 . S
C539 C535 1.400 . S
C539 C538 1.385 . S
C540 C538 1.478 . S
C540 C542 1.381 . S
C540 C546 1.383 . S
C541 C537 1.495 . S
C541 H547 0.959 . S
C541 H548 0.961 . S
C541 H549 0.960 . S
C542 C540 1.381 . S
C542 C543 1.394 . S
C542 H550 0.930 . S
C543 C542 1.394 . S
C543 C544 1.383 . S
C543 H551 0.929 . S
C544 C543 1.383 . S
C544 C545 1.377 . S
C545 H529 0.930 1_556 S
C545 C544 1.377 . S
C545 C546 1.379 . S
C546 H530 0.931 . S
C546 C540 1.383 . S
C546 C545 1.379 . S
H547 C541 0.959 . S
H548 C541 0.961 . S
H549 C541 0.960 . S
H550 C542 0.930 . S
H551 C543 0.929 . S
H552 C560 0.929 . S
H553 C562 0.930 . S
H554 C564 0.930 . S
H555 C567 0.929 . S
H556 C570 0.930 . S
H557 C572 0.960 . S
H558 C572 0.960 . S
H559 C572 0.960 . S
C560 H552 0.929 . S
C560 C561 1.377 . S
C560 C562 1.384 . S
C561 C560 1.377 . S
C561 C567 1.390 . S
C562 H553 0.930 . S
C562 C560 1.384 . S
C562 C563 1.372 . S
C563 C562 1.372 . S
C563 C564 1.400 . S
C563 C568 1.490 . S
C564 H554 0.930 . S
C564 C563 1.400 . S
C564 C567 1.386 . S
H565 C581 0.930 . S
H566 C582 0.931 . S
C567 H555 0.929 . S
C567 C561 1.390 . S
C567 C564 1.386 . S
C568 C563 1.490 . S
C568 C570 1.395 . S
C568 C571 1.403 . S
H569 C575 0.930 . S
C570 H556 0.930 . S
C570 C568 1.395 . S
C570 C573 1.403 . S
C571 C568 1.403 . S
C571 C572 1.524 . S
C571 C575 1.400 . S
C572 H557 0.960 . S
C572 H558 0.960 . S
C572 H559 0.960 . S
C572 C571 1.524 . S
C573 C570 1.403 . S
C573 C574 1.392 . S
C573 C577 1.495 . S
C574 C573 1.392 . S
C574 C575 1.385 . S
C574 C576 1.478 . S
C575 H569 0.930 . S
C575 C571 1.400 . S
C575 C574 1.385 . S
C576 C574 1.478 . S
C576 C578 1.381 . S
C576 C582 1.383 . S
C577 C573 1.495 . S
C577 H583 0.959 . S
C577 H584 0.961 . S
C577 H585 0.962 1_655 S
C578 C576 1.381 . S
C578 C579 1.394 1_655 S
C578 H586 0.930 1_655 S
C579 C578 1.394 1_455 S
C579 C580 1.383 1_455 S
C579 H587 0.929 . S
C580 C579 1.383 1_655 S
C580 C581 1.377 . S
C581 H565 0.930 . S
C581 C580 1.377 . S
C581 C582 1.379 . S
C582 H566 0.931 . S
C582 C576 1.383 . S
C582 C581 1.379 . S
H583 C577 0.959 . S
H584 C577 0.961 . S
H585 C577 0.962 1_455 S
H586 C578 0.930 1_455 S
H587 C579 0.929 . S
H588 C596 0.929 . S
H589 C598 0.930 . S
H590 C600 0.930 . S
H591 C603 0.929 . S
H592 C606 0.930 . S
H593 C608 0.960 . S
H594 C608 0.960 . S
H595 C608 0.960 . S
C596 H588 0.929 . S
C596 C597 1.377 . S
C596 C598 1.384 . S
C597 C596 1.377 . S
C597 C603 1.390 . S
C598 H589 0.930 . S
C598 C596 1.384 . S
C598 C599 1.372 . S
C599 C598 1.372 . S
C599 C600 1.400 . S
C599 C604 1.490 . S
C600 H590 0.930 . S
C600 C599 1.400 . S
C600 C603 1.386 . S
H601 C617 0.930 . S
H602 C618 0.931 . S
C603 H591 0.929 . S
C603 C597 1.390 . S
C603 C600 1.386 . S
C604 C599 1.490 . S
C604 C606 1.395 . S
C604 C607 1.403 . S
H605 C611 0.930 . S
C606 H592 0.930 . S
C606 C604 1.395 . S
C606 C609 1.403 . S
C607 C604 1.403 . S
C607 C608 1.524 . S
C607 C611 1.400 . S
C608 H593 0.960 . S
C608 H594 0.960 . S
C608 H595 0.960 . S
C608 C607 1.524 . S
C609 C606 1.403 . S
C609 C610 1.392 . S
C609 C613 1.495 . S
C610 C609 1.392 . S
C610 C611 1.385 . S
C610 C612 1.478 . S
C611 H605 0.930 . S
C611 C607 1.400 . S
C611 C610 1.385 . S
C612 C610 1.478 . S
C612 C614 1.381 . S
C612 C618 1.383 . S
C613 C609 1.495 . S
C613 H619 0.959 . S
C613 H620 0.961 . S
C613 H621 0.960 . S
C614 C612 1.381 . S
C614 C615 1.394 . S
C614 H622 0.930 . S
C615 C614 1.394 . S
C615 C616 1.383 . S
C615 H623 0.929 . S
C616 C615 1.383 . S
C616 C617 1.377 . S
C617 H601 0.930 . S
C617 C616 1.377 . S
C617 C618 1.379 . S
C618 H602 0.931 . S
C618 C612 1.383 . S
C618 C617 1.379 . S
H619 C613 0.959 . S
H620 C613 0.961 . S
H621 C613 0.960 . S
H622 C614 0.930 . S
H623 C615 0.929 . S
H624 C632 0.929 . S
H625 C634 0.930 . S
H626 C636 0.930 . S
H627 C639 0.929 . S
H628 C642 0.930 . S
H629 C644 0.960 . S
H630 C644 0.960 . S
H631 C644 0.960 . S
C632 H624 0.929 . S
C632 C633 1.377 . S
C632 C634 1.384 . S
C633 C632 1.377 . S
C633 C639 1.390 . S
C634 H625 0.930 . S
C634 C632 1.384 . S
C634 C635 1.372 . S
C635 C634 1.372 . S
C635 C636 1.400 . S
C635 C640 1.490 . S
C636 H626 0.930 . S
C636 C635 1.400 . S
C636 C639 1.386 . S
H637 C653 0.930 1_545 S
H638 C654 0.931 . S
C639 H627 0.929 . S
C639 C633 1.390 . S
C639 C636 1.386 . S
C640 C635 1.490 . S
C640 C642 1.395 . S
C640 C643 1.403 . S
H641 C647 0.930 . S
C642 H628 0.930 . S
C642 C640 1.395 . S
C642 C645 1.403 . S
C643 C640 1.403 . S
C643 C644 1.524 . S
C643 C647 1.400 . S
C644 H629 0.960 . S
C644 H630 0.960 . S
C644 H631 0.960 . S
C644 C643 1.524 . S
C645 C642 1.403 . S
C645 C646 1.392 . S
C645 C649 1.495 . S
C646 C645 1.392 . S
C646 C647 1.385 . S
C646 C648 1.478 . S
C647 H641 0.930 . S
C647 C643 1.400 . S
C647 C646 1.385 . S
C648 C646 1.478 . S
C648 C650 1.381 . S
C648 C654 1.383 . S
C649 C645 1.495 . S
C649 H655 0.959 . S
C649 H656 0.961 . S
C649 H657 0.960 . S
C650 C648 1.381 . S
C650 C651 1.394 . S
C650 H658 0.930 . S
C651 C650 1.394 . S
C651 C652 1.383 . S
C651 H659 0.929 . S
C652 C651 1.383 . S
C652 C653 1.377 . S
C653 H637 0.930 1_565 S
C653 C652 1.377 . S
C653 C654 1.379 . S
C654 H638 0.931 . S
C654 C648 1.383 . S
C654 C653 1.379 . S
H655 C649 0.959 . S
H656 C649 0.961 . S
H657 C649 0.960 . S
H658 C650 0.930 . S
H659 C651 0.929 . S
H660 C668 0.929 . S
H661 C670 0.930 . S
H662 C672 0.930 . S
H663 C675 0.929 . S
H664 C678 0.930 . S
H665 C680 0.960 . S
H666 C680 0.960 . S
H667 C680 0.960 . S
C668 H660 0.929 . S
C668 C669 1.377 . S
C668 C670 1.384 . S
C669 C668 1.377 . S
C669 C675 1.390 . S
C670 H661 0.930 . S
C670 C668 1.384 . S
C670 C671 1.372 . S
C671 C670 1.372 . S
C671 C672 1.400 . S
C671 C676 1.490 . S
C672 H662 0.930 . S
C672 C671 1.400 . S
C672 C675 1.386 . S
H673 C689 0.930 . S
H674 C690 0.931 . S
C675 H663 0.929 . S
C675 C669 1.390 . S
C675 C672 1.386 . S
C676 C671 1.490 . S
C676 C678 1.395 . S
C676 C679 1.403 . S
H677 C683 0.930 . S
C678 H664 0.930 . S
C678 C676 1.395 . S
C678 C681 1.403 . S
C679 C676 1.403 . S
C679 C680 1.524 . S
C679 C683 1.400 . S
C680 H665 0.960 . S
C680 H666 0.960 . S
C680 H667 0.960 . S
C680 C679 1.524 . S
C681 C678 1.403 . S
C681 C682 1.392 . S
C681 C685 1.495 . S
C682 C681 1.392 . S
C682 C683 1.385 . S
C682 C684 1.478 . S
C683 H677 0.930 . S
C683 C679 1.400 . S
C683 C682 1.385 . S
C684 C682 1.478 . S
C684 C686 1.381 . S
C684 C690 1.383 . S
C685 C681 1.495 . S
C685 H691 0.959 . S
C685 H692 0.961 . S
C685 H693 0.960 . S
C686 C684 1.381 . S
C686 C687 1.394 . S
C686 H694 0.930 . S
C687 C686 1.394 . S
C687 C688 1.383 . S
C687 H695 0.929 . S
C688 C687 1.383 . S
C688 C689 1.377 . S
C689 H673 0.930 . S
C689 C688 1.377 . S
C689 C690 1.379 . S
C690 H674 0.931 . S
C690 C684 1.383 . S
C690 C689 1.379 . S
H691 C685 0.959 . S
H692 C685 0.961 . S
H693 C685 0.960 . S
H694 C686 0.930 . S
H695 C687 0.929 . S
H696 C704 0.929 . S
H697 C706 0.930 . S
H698 C708 0.930 . S
H699 C711 0.929 . S
H700 C714 0.930 . S
H701 C716 0.960 . S
H702 C716 0.960 . S
H703 C716 0.960 . S
C704 H696 0.929 . S
C704 C705 1.377 . S
C704 C706 1.384 . S
C705 C704 1.377 . S
C705 C711 1.390 . S
C706 H697 0.930 . S
C706 C704 1.384 . S
C706 C707 1.372 . S
C707 C706 1.372 . S
C707 C708 1.400 . S
C707 C712 1.490 . S
C708 H698 0.930 . S
C708 C707 1.400 . S
C708 C711 1.386 . S
H709 C725 0.930 . S
H710 C726 0.931 . S
C711 H699 0.929 . S
C711 C705 1.390 . S
C711 C708 1.386 . S
C712 C707 1.490 . S
C712 C714 1.395 . S
C712 C715 1.403 . S
H713 C719 0.930 . S
C714 H700 0.930 . S
C714 C712 1.395 . S
C714 C717 1.403 . S
C715 C712 1.403 . S
C715 C716 1.524 . S
C715 C719 1.400 . S
C716 H701 0.960 . S
C716 H702 0.960 . S
C716 H703 0.960 . S
C716 C715 1.524 . S
C717 C714 1.403 . S
C717 C718 1.392 . S
C717 C721 1.495 . S
C718 C717 1.392 . S
C718 C719 1.385 . S
C718 C720 1.478 . S
C719 H713 0.930 . S
C719 C715 1.400 . S
C719 C718 1.385 . S
C720 C718 1.478 . S
C720 C722 1.381 . S
C720 C726 1.383 . S
C721 C717 1.495 . S
C721 H727 0.959 . S
C721 H728 0.961 . S
C721 H729 0.960 . S
C722 C720 1.381 . S
C722 C723 1.394 . S
C722 H730 0.930 . S
C723 C722 1.394 . S
C723 C724 1.383 . S
C723 H731 0.929 . S
C724 C723 1.383 . S
C724 C725 1.377 . S
C725 H709 0.930 . S
C725 C724 1.377 . S
C725 C726 1.379 . S
C726 H710 0.931 . S
C726 C720 1.383 . S
C726 C725 1.379 . S
H727 C721 0.959 . S
H728 C721 0.961 . S
H729 C721 0.960 . S
H730 C722 0.930 . S
H731 C723 0.929 . S
H732 C740 0.929 . S
H733 C742 0.930 . S
H734 C744 0.930 . S
H735 C747 0.929 . S
H736 C750 0.930 . S
H737 C752 0.960 . S
H738 C752 0.960 . S
H739 C752 0.960 . S
C740 H732 0.929 . S
C740 C741 1.377 . S
C740 C742 1.384 . S
C741 C740 1.377 . S
C741 C747 1.390 . S
C742 H733 0.930 . S
C742 C740 1.384 . S
C742 C743 1.372 . S
C743 C742 1.372 . S
C743 C744 1.400 . S
C743 C748 1.490 . S
C744 H734 0.930 . S
C744 C743 1.400 . S
C744 C747 1.386 . S
H745 C761 0.930 . S
H746 C762 0.931 . S
C747 H735 0.929 . S
C747 C741 1.390 . S
C747 C744 1.386 . S
C748 C743 1.490 . S
C748 C750 1.395 . S
C748 C751 1.403 . S
H749 C755 0.930 . S
C750 H736 0.930 . S
C750 C748 1.395 . S
C750 C753 1.403 . S
C751 C748 1.403 . S
C751 C752 1.524 . S
C751 C755 1.400 . S
C752 H737 0.960 . S
C752 H738 0.960 . S
C752 H739 0.960 . S
C752 C751 1.524 . S
C753 C750 1.403 . S
C753 C754 1.392 . S
C753 C757 1.495 . S
C754 C753 1.392 . S
C754 C755 1.385 . S
C754 C756 1.478 . S
C755 H749 0.930 . S
C755 C751 1.400 . S
C755 C754 1.385 . S
C756 C754 1.478 . S
C756 C758 1.381 . S
C756 C762 1.383 . S
C757 C753 1.495 . S
C757 H763 0.959 . S
C757 H764 0.961 . S
C757 H765 0.960 . S
C758 C756 1.381 . S
C758 C759 1.394 . S
C758 H766 0.930 . S
C759 C758 1.394 . S
C759 C760 1.383 . S
C759 H767 0.929 . S
C760 C759 1.383 . S
C760 C761 1.377 . S
C761 H745 0.930 . S
C761 C760 1.377 . S
C761 C762 1.379 . S
C762 H746 0.931 . S
C762 C756 1.383 . S
C762 C761 1.379 . S
H763 C757 0.959 . S
H764 C757 0.961 . S
H765 C757 0.960 . S
H766 C758 0.930 . S
H767 C759 0.929 . S
H768 C776 0.929 . S
H769 C778 0.930 . S
H770 C780 0.930 . S
H771 C783 0.929 . S
H772 C786 0.930 . S
H773 C788 0.960 1_554 S
H774 C788 0.960 . S
H775 C788 0.960 . S
C776 H768 0.929 . S
C776 C777 1.377 . S
C776 C778 1.384 . S
C777 C776 1.377 . S
C777 C783 1.390 . S
C778 H769 0.930 . S
C778 C776 1.384 . S
C778 C779 1.372 . S
C779 C778 1.372 . S
C779 C780 1.400 . S
C779 C784 1.490 . S
C780 H770 0.930 . S
C780 C779 1.400 . S
C780 C783 1.386 . S
H781 C797 0.930 . S
H782 C798 0.931 . S
C783 H771 0.929 . S
C783 C777 1.390 . S
C783 C780 1.386 . S
C784 C779 1.490 . S
C784 C786 1.395 . S
C784 C787 1.403 . S
H785 C791 0.930 . S
C786 H772 0.930 . S
C786 C784 1.395 . S
C786 C789 1.403 . S
C787 C784 1.403 . S
C787 C788 1.524 . S
C787 C791 1.400 . S
C788 H773 0.960 1_556 S
C788 H774 0.960 . S
C788 H775 0.960 . S
C788 C787 1.524 . S
C789 C786 1.403 . S
C789 C790 1.392 . S
C789 C793 1.495 . S
C790 C789 1.392 . S
C790 C791 1.385 . S
C790 C792 1.478 . S
C791 H785 0.930 . S
C791 C787 1.400 . S
C791 C790 1.385 . S
C792 C790 1.478 . S
C792 C794 1.381 . S
C792 C798 1.383 . S
C793 C789 1.495 . S
C793 H799 0.959 . S
C793 H800 0.961 . S
C793 H801 0.960 . S
C794 C792 1.381 . S
C794 C795 1.394 . S
C794 H802 0.930 . S
C795 C794 1.394 . S
C795 C796 1.383 . S
C795 H803 0.929 1_565 S
C796 C795 1.383 . S
C796 C797 1.377 . S
C797 H781 0.930 . S
C797 C796 1.377 . S
C797 C798 1.379 . S
C798 H782 0.931 . S
C798 C792 1.383 . S
C798 C797 1.379 . S
H799 C793 0.959 . S
H800 C793 0.961 . S
H801 C793 0.960 . S
H802 C794 0.930 . S
H803 C795 0.929 1_545 S
H804 C812 0.929 . S
H805 C814 0.930 . S
H806 C816 0.930 . S
H807 C819 0.929 . S
H808 C822 0.930 . S
H809 C824 0.960 . S
H810 C824 0.960 . S
H811 C824 0.960 . S
C812 H804 0.929 . S
C812 C813 1.377 . S
C812 C814 1.384 . S
C813 C812 1.377 . S
C813 C819 1.390 . S
C814 H805 0.930 . S
C814 C812 1.384 . S
C814 C815 1.372 . S
C815 C814 1.372 . S
C815 C816 1.400 . S
C815 C820 1.490 . S
C816 H806 0.930 . S
C816 C815 1.400 . S
C816 C819 1.386 . S
H817 C833 0.930 . S
H818 C834 0.931 . S
C819 H807 0.929 . S
C819 C813 1.390 . S
C819 C816 1.386 . S
C820 C815 1.490 . S
C820 C822 1.395 . S
C820 C823 1.403 . S
H821 C827 0.930 . S
C822 H808 0.930 . S
C822 C820 1.395 . S
C822 C825 1.403 . S
C823 C820 1.403 . S
C823 C824 1.524 . S
C823 C827 1.400 . S
C824 H809 0.960 . S
C824 H810 0.960 . S
C824 H811 0.960 . S
C824 C823 1.524 . S
C825 C822 1.403 . S
C825 C826 1.392 . S
C825 C829 1.495 . S
C826 C825 1.392 . S
C826 C827 1.385 . S
C826 C828 1.478 . S
C827 H821 0.930 . S
C827 C823 1.400 . S
C827 C826 1.385 . S
C828 C826 1.478 . S
C828 C830 1.381 . S
C828 C834 1.383 . S
C829 C825 1.495 . S
C829 H835 0.959 . S
C829 H836 0.961 . S
C829 H837 0.960 . S
C830 C828 1.381 . S
C830 C831 1.394 . S
C830 H838 0.930 . S
C831 C830 1.394 . S
C831 C832 1.383 . S
C831 H839 0.929 . S
C832 C831 1.383 . S
C832 C833 1.377 . S
C833 H817 0.930 . S
C833 C832 1.377 . S
C833 C834 1.379 . S
C834 H818 0.931 . S
C834 C828 1.383 . S
C834 C833 1.379 . S
H835 C829 0.959 . S
H836 C829 0.961 . S
H837 C829 0.960 . S
H838 C830 0.930 . S
H839 C831 0.929 . S
H840 C848 0.929 . S
H841 C850 0.930 . S
H842 C852 0.930 . S
H843 C855 0.929 . S
H844 C858 0.930 . S
H845 C860 0.960 . S
H846 C860 0.960 . S
H847 C860 0.960 . S
C848 H840 0.929 . S
C848 C849 1.377 . S
C848 C850 1.384 . S
C849 C848 1.377 . S
C849 C855 1.390 . S
C850 H841 0.930 . S
C850 C848 1.384 . S
C850 C851 1.372 . S
C851 C850 1.372 . S
C851 C852 1.400 . S
C851 C856 1.490 . S
C852 H842 0.930 . S
C852 C851 1.400 . S
C852 C855 1.386 . S
H853 C869 0.930 . S
H854 C870 0.931 . S
C855 H843 0.929 . S
C855 C849 1.390 . S
C855 C852 1.386 . S
C856 C851 1.490 . S
C856 C858 1.395 . S
C856 C859 1.403 . S
H857 C863 0.930 . S
C858 H844 0.930 . S
C858 C856 1.395 . S
C858 C861 1.403 . S
C859 C856 1.403 . S
C859 C860 1.524 . S
C859 C863 1.400 . S
C860 H845 0.960 . S
C860 H846 0.960 . S
C860 H847 0.960 . S
C860 C859 1.524 . S
C861 C858 1.403 . S
C861 C862 1.392 . S
C861 C865 1.495 . S
C862 C861 1.392 . S
C862 C863 1.385 . S
C862 C864 1.478 . S
C863 H857 0.930 . S
C863 C859 1.400 . S
C863 C862 1.385 . S
C864 C862 1.478 . S
C864 C866 1.381 . S
C864 C870 1.383 . S
C865 C861 1.495 . S
C865 H871 0.959 . S
C865 H872 0.961 . S
C865 H873 0.960 . S
C866 C864 1.381 . S
C866 C867 1.394 . S
C866 H874 0.930 . S
C867 C866 1.394 . S
C867 C868 1.383 . S
C867 H875 0.929 . S
C868 C867 1.383 . S
C868 C869 1.377 . S
C869 H853 0.930 . S
C869 C868 1.377 . S
C869 C870 1.379 . S
C870 H854 0.931 . S
C870 C864 1.383 . S
C870 C869 1.379 . S
H871 C865 0.959 . S
H872 C865 0.961 . S
H873 C865 0.960 . S
H874 C866 0.930 . S
H875 C867 0.929 . S
H876 C884 0.929 . S
H877 C886 0.930 . S
H878 C888 0.930 . S
H879 C891 0.929 . S
H880 C894 0.930 . S
H881 C896 0.960 . S
H882 C896 0.960 . S
H883 C896 0.960 . S
C884 H876 0.929 . S
C884 C885 1.377 . S
C884 C886 1.384 . S
C885 C884 1.377 . S
C885 C891 1.390 . S
C886 H877 0.930 . S
C886 C884 1.384 . S
C886 C887 1.372 . S
C887 C886 1.372 . S
C887 C888 1.400 . S
C887 C892 1.490 . S
C888 H878 0.930 . S
C888 C887 1.400 . S
C888 C891 1.386 . S
H889 C905 0.930 . S
H890 C906 0.931 . S
C891 H879 0.929 . S
C891 C885 1.390 . S
C891 C888 1.386 . S
C892 C887 1.490 . S
C892 C894 1.395 . S
C892 C895 1.403 . S
H893 C899 0.930 . S
C894 H880 0.930 . S
C894 C892 1.395 . S
C894 C897 1.403 . S
C895 C892 1.403 . S
C895 C896 1.524 . S
C895 C899 1.400 . S
C896 H881 0.960 . S
C896 H882 0.960 . S
C896 H883 0.960 . S
C896 C895 1.524 . S
C897 C894 1.403 . S
C897 C898 1.392 . S
C897 C901 1.495 . S
C898 C897 1.392 . S
C898 C899 1.385 . S
C898 C900 1.478 . S
C899 H893 0.930 . S
C899 C895 1.400 . S
C899 C898 1.385 . S
C900 C898 1.478 . S
C900 C902 1.381 . S
C900 C906 1.383 . S
C901 C897 1.495 . S
C901 H907 0.959 . S
C901 H908 0.961 . S
C901 H909 0.960 . S
C902 C900 1.381 . S
C902 C903 1.394 . S
C902 H910 0.930 . S
C903 C902 1.394 . S
C903 C904 1.383 . S
C903 H911 0.929 . S
C904 C903 1.383 . S
C904 C905 1.377 . S
C905 H889 0.930 . S
C905 C904 1.377 . S
C905 C906 1.379 . S
C906 H890 0.931 . S
C906 C900 1.383 . S
C906 C905 1.379 . S
H907 C901 0.959 . S
H908 C901 0.961 . S
H909 C901 0.960 . S
H910 C902 0.930 . S
H911 C903 0.929 . S
H912 C920 0.929 . S
H913 C922 0.930 . S
H914 C924 0.930 . S
H915 C927 0.929 . S
H916 C930 0.930 . S
H917 C932 0.960 . S
H918 C932 0.960 . S
H919 C932 0.960 . S
C920 H912 0.929 . S
C920 C921 1.377 . S
C920 C922 1.384 . S
C921 C920 1.377 . S
C921 C927 1.390 . S
C922 H913 0.930 . S
C922 C920 1.384 . S
C922 C923 1.372 . S
C923 C922 1.372 . S
C923 C924 1.400 . S
C923 C928 1.490 . S
C924 H914 0.930 . S
C924 C923 1.400 . S
C924 C927 1.386 . S
H925 C941 0.930 1_554 S
H926 C942 0.931 . S
C927 H915 0.929 . S
C927 C921 1.390 . S
C927 C924 1.386 . S
C928 C923 1.490 . S
C928 C930 1.395 . S
C928 C931 1.403 . S
H929 C935 0.930 . S
C930 H916 0.930 . S
C930 C928 1.395 . S
C930 C933 1.403 . S
C931 C928 1.403 . S
C931 C932 1.524 . S
C931 C935 1.400 . S
C932 H917 0.960 . S
C932 H918 0.960 . S
C932 H919 0.960 . S
C932 C931 1.524 . S
C933 C930 1.403 . S
C933 C934 1.392 . S
C933 C937 1.495 1_655 S
C934 C933 1.392 . S
C934 C935 1.385 . S
C934 C936 1.478 . S
C935 H929 0.930 . S
C935 C931 1.400 . S
C935 C934 1.385 . S
C936 C934 1.478 . S
C936 C938 1.381 . S
C936 C942 1.383 . S
C937 C933 1.495 1_455 S
C937 H943 0.959 . S
C937 H944 0.961 . S
C937 H945 0.960 . S
C938 C936 1.381 . S
C938 C939 1.394 . S
C938 H946 0.930 . S
C939 C938 1.394 . S
C939 C940 1.383 . S
C939 H947 0.929 1_655 S
C940 C939 1.383 . S
C940 C941 1.377 . S
C941 H925 0.930 1_556 S
C941 C940 1.377 . S
C941 C942 1.379 . S
C942 H926 0.931 . S
C942 C936 1.383 . S
C942 C941 1.379 . S
H943 C937 0.959 . S
H944 C937 0.961 . S
H945 C937 0.960 . S
H946 C938 0.930 . S
H947 C939 0.929 1_455 S
H948 C956 0.929 . S
H949 C958 0.930 . S
H950 C960 0.930 . S
H951 C963 0.929 . S
H952 C966 0.930 . S
H953 C968 0.960 . S
H954 C968 0.960 . S
H955 C968 0.960 . S
C956 H948 0.929 . S
C956 C957 1.377 . S
C956 C958 1.384 . S
C957 C956 1.377 . S
C957 C963 1.390 . S
C958 H949 0.930 . S
C958 C956 1.384 . S
C958 C959 1.372 . S
C959 C958 1.372 . S
C959 C960 1.400 . S
C959 C964 1.490 . S
C960 H950 0.930 . S
C960 C959 1.400 . S
C960 C963 1.386 . S
H961 C977 0.930 . S
H962 C978 0.931 . S
C963 H951 0.929 . S
C963 C957 1.390 . S
C963 C960 1.386 . S
C964 C959 1.490 . S
C964 C966 1.395 . S
C964 C967 1.403 . S
H965 C971 0.930 . S
C966 H952 0.930 . S
C966 C964 1.395 . S
C966 C969 1.403 . S
C967 C964 1.403 . S
C967 C968 1.524 . S
C967 C971 1.400 . S
C968 H953 0.960 . S
C968 H954 0.960 . S
C968 H955 0.960 . S
C968 C967 1.524 . S
C969 C966 1.403 . S
C969 C970 1.392 . S
C969 C973 1.495 . S
C970 C969 1.392 . S
C970 C971 1.385 . S
C970 C972 1.478 . S
C971 H965 0.930 . S
C971 C967 1.400 . S
C971 C970 1.385 . S
C972 C970 1.478 . S
C972 C974 1.381 . S
C972 C978 1.383 . S
C973 C969 1.495 . S
C973 H979 0.959 . S
C973 H980 0.961 . S
C973 H981 0.960 . S
C974 C972 1.381 . S
C974 C975 1.394 . S
C974 H982 0.930 . S
C975 C974 1.394 . S
C975 C976 1.383 . S
C975 H983 0.929 . S
C976 C975 1.383 . S
C976 C977 1.377 . S
C977 H961 0.930 . S
C977 C976 1.377 . S
C977 C978 1.379 . S
C978 H962 0.931 . S
C978 C972 1.383 . S
C978 C977 1.379 . S
H979 C973 0.959 . S
H980 C973 0.961 . S
H981 C973 0.960 . S
H982 C974 0.930 . S
H983 C975 0.929 . S
H984 C992 0.929 . S
H985 C994 0.930 . S
H986 C996 0.930 . S
H987 C999 0.929 . S
H988 C1002 0.930 . S
H989 C1004 0.960 . S
H990 C1004 0.960 . S
H991 C1004 0.960 . S
C992 H984 0.929 . S
C992 C993 1.377 . S
C992 C994 1.384 . S
C993 C992 1.377 . S
C993 C999 1.390 . S
C994 H985 0.930 . S
C994 C992 1.384 . S
C994 C995 1.372 . S
C995 C994 1.372 . S
C995 C996 1.400 . S
C995 C1000 1.490 . S
C996 H986 0.930 . S
C996 C995 1.400 . S
C996 C999 1.386 . S
H997 C1013 0.930 . S
H998 C1014 0.931 . S
C999 H987 0.929 . S
C999 C993 1.390 . S
C999 C996 1.386 . S
C1000 C995 1.490 . S
C1000 C1002 1.395 . S
C1000 C1003 1.403 . S
H1001 C1007 0.930 . S
C1002 H988 0.930 . S
C1002 C1000 1.395 . S
C1002 C1005 1.403 . S
C1003 C1000 1.403 . S
C1003 C1004 1.524 . S
C1003 C1007 1.400 . S
C1004 H989 0.960 . S
C1004 H990 0.960 . S
C1004 H991 0.960 . S
C1004 C1003 1.524 . S
C1005 C1002 1.403 . S
C1005 C1006 1.392 . S
C1005 C1009 1.495 1_455 S
C1006 C1005 1.392 . S
C1006 C1007 1.385 . S
C1006 C1008 1.478 . S
C1007 H1001 0.930 . S
C1007 C1003 1.400 . S
C1007 C1006 1.385 . S
C1008 C1006 1.478 . S
C1008 C1010 1.381 . S
C1008 C1014 1.383 . S
C1009 C1005 1.495 1_655 S
C1009 H1015 0.959 . S
C1009 H1016 0.961 . S
C1009 H1017 0.960 . S
C1010 C1008 1.381 . S
C1010 C1011 1.394 . S
C1010 H1018 0.930 . S
C1011 C1010 1.394 . S
C1011 C1012 1.383 . S
C1011 H1019 0.929 1_455 S
C1012 C1011 1.383 . S
C1012 C1013 1.377 . S
C1013 H997 0.930 . S
C1013 C1012 1.377 . S
C1013 C1014 1.379 . S
C1014 H998 0.931 . S
C1014 C1008 1.383 . S
C1014 C1013 1.379 . S
H1015 C1009 0.959 . S
H1016 C1009 0.961 . S
H1017 C1009 0.960 . S
H1018 C1010 0.930 . S
H1019 C1011 0.929 1_655 S
H1020 C1028 0.929 . S
H1021 C1030 0.930 . S
H1022 C1032 0.930 . S
H1023 C1035 0.929 . S
H1024 C1038 0.930 . S
H1025 C1040 0.960 . S
H1026 C1040 0.960 . S
H1027 C1040 0.960 . S
C1028 H1020 0.929 . S
C1028 C1029 1.377 . S
C1028 C1030 1.384 . S
C1029 C1028 1.377 . S
C1029 C1035 1.390 . S
C1030 H1021 0.930 . S
C1030 C1028 1.384 . S
C1030 C1031 1.372 . S
C1031 C1030 1.372 . S
C1031 C1032 1.400 . S
C1031 C1036 1.490 . S
C1032 H1022 0.930 . S
C1032 C1031 1.400 . S
C1032 C1035 1.386 . S
H1033 C1049 0.930 . S
H1034 C1050 0.931 . S
C1035 H1023 0.929 . S
C1035 C1029 1.390 . S
C1035 C1032 1.386 . S
C1036 C1031 1.490 . S
C1036 C1038 1.395 . S
C1036 C1039 1.403 . S
H1037 C1043 0.930 . S
C1038 H1024 0.930 . S
C1038 C1036 1.395 . S
C1038 C1041 1.403 . S
C1039 C1036 1.403 . S
C1039 C1040 1.524 . S
C1039 C1043 1.400 . S
C1040 H1025 0.960 . S
C1040 H1026 0.960 . S
C1040 H1027 0.960 . S
C1040 C1039 1.524 . S
C1041 C1038 1.403 . S
C1041 C1042 1.392 . S
C1041 C1045 1.495 . S
C1042 C1041 1.392 . S
C1042 C1043 1.385 . S
C1042 C1044 1.478 . S
C1043 H1037 0.930 . S
C1043 C1039 1.400 . S
C1043 C1042 1.385 . S
C1044 C1042 1.478 . S
C1044 C1046 1.381 . S
C1044 C1050 1.383 . S
C1045 C1041 1.495 . S
C1045 H1051 0.959 . S
C1045 H1052 0.961 . S
C1045 H1053 0.960 . S
C1046 C1044 1.381 . S
C1046 C1047 1.394 . S
C1046 H1054 0.930 . S
C1047 C1046 1.394 . S
C1047 C1048 1.383 . S
C1047 H1055 0.929 . S
C1048 C1047 1.383 . S
C1048 C1049 1.377 . S
C1049 H1033 0.930 . S
C1049 C1048 1.377 . S
C1049 C1050 1.379 . S
C1050 H1034 0.931 . S
C1050 C1044 1.383 . S
C1050 C1049 1.379 . S
H1051 C1045 0.959 . S
H1052 C1045 0.961 . S
H1053 C1045 0.960 . S
H1054 C1046 0.930 . S
H1055 C1047 0.929 . S
C201 C5 2.119 . S
C220 C88 2.130 . S
C237 C14 1.067 . S
C256 N108 1.005 . S
C292 C142 1.934 . S
C273 C25 1.938 . S
C309 C34 1.214 . S
C328 N176 1.140 . S
C364 C129 2.281 . S
C345 C7 2.275 . S
C400 N86 1.126 . S
C381 C13 1.142 . S
C436 C163 1.945 . S
C417 C23 1.944 . S
C472 N138 0.916 . S
C453 C31 0.958 . S
C489 C4 1.782 . S
C508 C178 1.789 . S
C544 C112 1.657 . S
C525 C22 1.652 . S
C561 C32 1.381 . S
C580 C73 1.383 . S
C597 C16 1.376 . S
C616 C159 1.381 . S
C652 C99 2.108 . S
C633 C41 2.102 . S
C669 C50 1.076 . S
C688 N116 1.037 . S
C705 C61 1.926 . S
C724 C133 1.926 . S
C741 C67 1.226 . S
C760 N168 1.160 . S
C777 C40 2.296 . S
C796 C118 2.301 . S
C832 N78 1.059 . S
C813 C52 1.119 . S
C868 C172 1.951 . S
C849 C59 1.946 . S
C904 N146 0.944 . S
C885 C70 0.945 . S
C921 C43 1.776 . S
C940 C189 1.787 . S
C976 C103 1.661 . S
C957 C58 1.655 . S
C1012 C82 1.365 . S
C993 C68 1.361 . S
C1029 C49 1.390 . S
C1048 C148 1.397 . S
