# Generated by pormake.
# Topology pth, (4,4)-cn, num edge types: 1
# Building blocks:
#     Node 0, Type 0, BuildingBlock: QUQFOY_clean_sbu_1, # of connection points: 4
#     Node 1, Type 0, BuildingBlock: QUQFOY_clean_sbu_1, # of connection points: 4
#     Node 2, Type 0, BuildingBlock: QUQFOY_clean_sbu_1, # of connection points: 4
#     Node 3, Type 1, BuildingBlock: NAWXER_clean_linker_0, # of connection points: 4
#     Node 4, Type 1, BuildingBlock: NAWXER_clean_linker_0, # of connection points: 4
#     Node 5, Type 1, BuildingBlock: NAWXER_clean_linker_0, # of connection points: 4
#     Edge 6, Type (0, 1), BuildingBlock: XIVTED_clean_linker_0, # of connection points: 2
#     Edge 7, Type (0, 1), BuildingBlock: XIVTED_clean_linker_0, # of connection points: 2
#     Edge 8, Type (0, 1), BuildingBlock: XIVTED_clean_linker_0, # of connection points: 2
#     Edge 9, Type (0, 1), BuildingBlock: XIVTED_clean_linker_0, # of connection points: 2
#     Edge 10, Type (0, 1), BuildingBlock: XIVTED_clean_linker_0, # of connection points: 2
#     Edge 11, Type (0, 1), BuildingBlock: XIVTED_clean_linker_0, # of connection points: 2
#     Edge 12, Type (0, 1), BuildingBlock: XIVTED_clean_linker_0, # of connection points: 2
#     Edge 13, Type (0, 1), BuildingBlock: XIVTED_clean_linker_0, # of connection points: 2
#     Edge 14, Type (0, 1), BuildingBlock: XIVTED_clean_linker_0, # of connection points: 2
#     Edge 15, Type (0, 1), BuildingBlock: XIVTED_clean_linker_0, # of connection points: 2
#     Edge 16, Type (0, 1), BuildingBlock: XIVTED_clean_linker_0, # of connection points: 2
#     Edge 17, Type (0, 1), BuildingBlock: XIVTED_clean_linker_0, # of connection points: 2
# Relax obj value: 0.022
# Max RMSD: 0.123
# Mean RMSD: 0.072
data_MOF--net-pth--node1-QUQFOY_clean_sbu_1--node2-NAWXER_clean_linker_0--edge1-XIVTED_clean_linker_0
_symmetry_space_group_name_H-M    P1
_symmetry_Int_Tables_number       1
_symmetry_cell_setting            triclinic
loop_
_symmetry_equiv_pos_as_xyz
'x, y, z'
_cell_length_a     28.269773
_cell_length_b     30.4081
_cell_length_c     67.836245
_cell_angle_alpha  89.974969
_cell_angle_beta   89.938897
_cell_angle_gamma 120.1076
loop_
_atom_site_label
_atom_site_type_symbol
_atom_site_fract_x
_atom_site_fract_y
_atom_site_fract_z
_atom_type_partial_charge
O0 O 0.0283 0.0726 0.05594 0.0
Cd1 Cd 0.96736 0.02596 0.07523 0.0
Cd2 Cd 0.02806 0.98288 0.07736 0.0
O3 O 0.08788 0.04972 0.06466 0.0
O4 O 0.93132 0.06542 0.08268 0.0
O5 O 0.97702 0.0455 0.10391 0.0
C6 C 0.95045 0.06892 0.10022 0.0
C7 C 0.04277 0.94601 0.10501 0.0
C8 C 0.07611 0.07874 0.05497 0.0
C9 C 0.91991 0.92493 0.05687 0.0
O10 O 0.96748 0.93103 0.05908 0.0
O11 O 0.90826 0.95676 0.06426 0.0
O12 O 0.0644 0.94649 0.0882 0.0
O13 O 0.01525 0.96934 0.10642 0.0
O14 O 0.96272 0.0468 0.42135 0.0
Cd15 Cd 0.02555 0.06259 0.4022 0.0
Cd16 Cd 0.97688 0.96085 0.40052 0.0
O17 O 0.9147 0.96446 0.41534 0.0
O18 O 0.05251 0.13227 0.3917 0.0
O19 O 0.01113 0.06289 0.37323 0.0
C20 C 0.03327 0.11168 0.37478 0.0
C21 C 0.9574 0.90024 0.37595 0.0
C22 C 0.91984 0.00389 0.42387 0.0
C23 C 0.08826 0.01933 0.41992 0.0
O24 O 0.04584 0.97674 0.41645 0.0
O25 O 0.09104 0.06037 0.41426 0.0
O26 O 0.94656 0.88766 0.39423 0.0
O27 O 0.97672 0.94745 0.37135 0.0
O28 O 0.91742 0.96502 0.72491 0.0
Cd29 Cd 0.97187 0.95745 0.74286 0.0
Cd30 Cd 0.0222 0.05769 0.74197 0.0
O31 O 0.95075 0.04704 0.72967 0.0
O32 O 0.9316 0.88657 0.75315 0.0
O33 O 0.95902 0.95435 0.77211 0.0
C34 C 0.93328 0.90545 0.77033 0.0
C35 C 0.0647 0.11397 0.76803 0.0
C36 C 0.91472 0.0051 0.72227 0.0
C37 C 0.0763 0.00808 0.72091 0.0
O38 O 0.07318 0.04803 0.72306 0.0
O39 O 0.04235 0.96712 0.72956 0.0
O40 O 0.06486 0.13 0.75041 0.0
O41 O 0.03847 0.06546 0.77105 0.0
C42 C 0.96433 0.33466 0.26592 0.0
C43 C 0.00461 0.34993 0.28067 0.0
C44 C 0.95797 0.37074 0.25522 0.0
C45 C 0.99286 0.42297 0.25858 0.0
C46 C 0.03778 0.40225 0.28453 0.0
C47 C 0.03207 0.4382 0.27359 0.0
C48 C 0.98877 0.46246 0.24703 0.0
C49 C 0.01689 0.36654 0.20286 0.0
C50 C 0.97129 0.33931 0.19049 0.0
C51 C 0.0219 0.40685 0.21437 0.0
C52 C 0.98126 0.42048 0.21381 0.0
C53 C 0.93115 0.35374 0.18983 0.0
C54 C 0.93635 0.39413 0.20125 0.0
C55 C 0.98482 0.46198 0.22622 0.0
C56 C 0.04913 0.67773 0.20925 0.0
C57 C 0.01166 0.67288 0.19463 0.0
C58 C 0.04144 0.63519 0.21981 0.0
C59 C -0.00368 0.58695 0.21588 0.0
C60 C 0.96665 0.62453 0.19064 0.0
C61 C 0.95941 0.58179 0.20103 0.0
C62 C 0.98842 0.54204 0.22713 0.0
C63 C 0.94509 0.63227 0.26764 0.0
C64 C 0.9769 0.65059 0.28478 0.0
C65 C 0.9488 0.59672 0.25568 0.0
C66 C 0.98548 0.57972 0.26031 0.0
C67 C 0.01291 0.63297 0.28961 0.0
C68 C 0.01711 0.59787 0.2775 0.0
C69 C 0.98873 0.54101 0.24794 0.0
H70 H 0.93797 0.29487 0.26244 0.0
H71 H 0.92581 0.35764 0.24431 0.0
H72 H 0.06804 0.41571 0.29615 0.0
H73 H 0.05884 0.47818 0.27676 0.0
H74 H 0.0491 0.35717 0.20348 0.0
H75 H 0.05741 0.42733 0.22374 0.0
H76 H 0.89513 0.33333 0.18071 0.0
H77 H 0.90459 0.40414 0.20058 0.0
H78 H 0.0841 0.71453 0.21264 0.0
H79 H 0.07091 0.63991 0.23102 0.0
H80 H 0.93752 0.61969 0.17928 0.0
H81 H 0.9246 0.54485 0.19768 0.0
H82 H 0.91617 0.64434 0.26377 0.0
H83 H 0.9221 0.58183 0.24301 0.0
H84 H 0.03805 0.64656 0.30271 0.0
H85 H 0.04526 0.585 0.28154 0.0
N86 N 0.99008 0.50182 0.25705 0.0
N87 N 0.9852 0.50198 0.21706 0.0
C88 C 0.65705 0.01653 0.53571 0.0
C89 C 0.64246 0.97437 0.52336 0.0
C90 C 0.61904 0.01706 0.54873 0.0
C91 C 0.56552 0.97573 0.54954 0.0
C92 C 0.589 0.93244 0.52468 0.0
C93 C 0.55075 0.93345 0.53746 0.0
C94 C 0.5236 0.97875 0.56144 0.0
C95 C 0.62958 0.95814 0.6062 0.0
C96 C 0.65256 0.99626 0.62071 0.0
C97 C 0.59062 0.95641 0.59304 0.0
C98 C 0.57439 0.9931 0.59402 0.0
C99 C 0.63672 0.03327 0.62143 0.0
C100 C 0.59804 0.03161 0.60826 0.0
C101 C 0.5291 0.98922 0.58182 0.0
C102 C 0.31274 0.97011 0.60387 0.0
C103 C 0.33194 1.00174 0.62047 0.0
C104 C 0.3497 0.96811 0.59067 0.0
C105 C 0.40643 0.99894 0.59359 0.0
C106 C 0.3883 0.03284 0.62333 0.0
C107 C 0.42516 0.03172 0.60995 0.0
C108 C 0.44676 0.99317 0.58147 0.0
C109 C 0.36655 0.0378 0.53355 0.0
C110 C 0.3344 0.99807 0.52038 0.0
C111 C 0.3995 0.03221 0.54751 0.0
C112 C 0.40139 0.98705 0.54844 0.0
C113 C 0.33505 0.95217 0.52195 0.0
C114 C 0.36884 0.94706 0.53563 0.0
C115 C 0.44199 0.98372 0.56098 0.0
H116 H 0.69726 0.05004 0.53489 0.0
H117 H 0.63086 0.05059 0.55762 0.0
H118 H 0.5764 0.89889 0.51574 0.0
H119 H 0.50945 0.9013 0.53782 0.0
H120 H 0.64118 0.92926 0.60516 0.0
H121 H 0.57195 0.92541 0.58258 0.0
H122 H 0.65279 0.06264 0.6326 0.0
H123 H 0.58578 0.06004 0.60946 0.0
H124 H 0.26925 0.94541 0.60159 0.0
H125 H 0.33366 0.94078 0.57878 0.0
H126 H 0.40379 0.05754 0.63607 0.0
H127 H 0.46855 0.05567 0.61271 0.0
H128 H 0.36798 0.07398 0.53266 0.0
H129 H 0.42529 0.06395 0.55702 0.0
H130 H 0.30992 0.9202 0.51248 0.0
H131 H 0.37 0.91199 0.53609 0.0
N132 N 0.4803 0.97646 0.55182 0.0
N133 N 0.49033 0.9957 0.59097 0.0
C134 C 0.35468 0.34162 0.88001 0.0
C135 C 0.32619 0.3578 0.86775 0.0
C136 C 0.39732 0.37633 0.89201 0.0
C137 C 0.41218 0.42787 0.89208 0.0
C138 C 0.341 0.40944 0.86801 0.0
C139 C 0.38381 0.44412 0.87993 0.0
C140 C 0.45881 0.46552 0.90399 0.0
C141 C 0.33185 0.36702 0.9496 0.0
C142 C 0.34782 0.33799 0.96106 0.0
C143 C 0.36921 0.40529 0.9371 0.0
C144 C 0.42331 0.41549 0.93589 0.0
C145 C 0.40191 0.34781 0.95941 0.0
C146 C 0.43938 0.38655 0.94713 0.0
C147 C 0.46451 0.45892 0.92428 0.0
C148 C 0.63957 0.66567 0.94901 0.0
C149 C 0.66461 0.65242 0.96394 0.0
C150 C 0.60287 0.62892 0.93596 0.0
C151 C 0.59084 0.57826 0.93744 0.0
C152 C 0.65289 0.60178 0.96529 0.0
C153 C 0.61609 0.56502 0.95224 0.0
C154 C 0.54802 0.5382 0.92496 0.0
C155 C 0.68324 0.63305 0.88276 0.0
C156 C 0.67139 0.6619 0.8696 0.0
C157 C 0.64191 0.59525 0.89432 0.0
C158 C 0.58788 0.5854 0.89288 0.0
C159 C 0.61738 0.65229 0.86828 0.0
C160 C 0.57585 0.61395 0.87967 0.0
C161 C 0.54371 0.54383 0.90448 0.0
H162 H 0.34518 0.30241 0.87993 0.0
H163 H 0.41953 0.36307 0.90088 0.0
H164 H 0.31952 0.42318 0.85899 0.0
H165 H 0.39466 0.48372 0.87971 0.0
H166 H 0.29097 0.36137 0.95072 0.0
H167 H 0.35633 0.42798 0.92886 0.0
H168 H 0.41553 0.32573 0.96766 0.0
H169 H 0.48108 0.39405 0.94643 0.0
H170 H 0.64804 0.70442 0.9475 0.0
H171 H 0.58272 0.63993 0.92508 0.0
H172 H 0.67096 0.59024 0.97679 0.0
H173 H 0.60682 0.52603 0.95385 0.0
H174 H 0.72451 0.63972 0.8841 0.0
H175 H 0.652 0.57307 0.90415 0.0
H176 H 0.60702 0.67357 0.85808 0.0
H177 H 0.53437 0.60666 0.87821 0.0
N178 N 0.49885 0.50765 0.89482 0.0
N179 N 0.50866 0.49562 0.93399 0.0
H180 H 0.89863 0.12372 0.09616 0.0
H181 H -0.00178 0.26637 0.19993 0.0
H182 H 0.99271 0.09148 0.13778 0.0
H183 H 0.93152 0.31416 0.15279 0.0
H184 H 0.98881 0.19666 0.17911 0.0
H185 H 0.90041 0.18656 0.11886 0.0
C186 C 0.91923 0.12945 0.11017 0.0
C187 C 0.94586 0.10244 0.115 0.0
C188 C 0.97612 0.22238 0.17339 0.0
C189 C 0.94847 0.17497 0.14109 0.0
C190 C 0.98182 0.26244 0.1852 0.0
C191 C 0.96568 0.29641 0.17815 0.0
C192 C 0.95391 0.21604 0.15439 0.0
C193 C 0.94375 0.28865 0.15905 0.0
C194 C 0.92044 0.16559 0.12311 0.0
C195 C 0.97176 0.11152 0.13342 0.0
N196 N 0.93856 0.24941 0.14788 0.0
N197 N 0.97269 0.14725 0.14577 0.0
H198 H 0.93171 0.07 0.45312 0.0
H199 H 0.6216 0.93213 0.48616 0.0
H200 H 0.81244 0.92786 0.42678 0.0
H201 H 0.75432 0.01887 0.52669 0.0
H202 H 0.68796 0.93729 0.46183 0.0
H203 H 0.86364 0.06076 0.47747 0.0
C204 C 0.89104 0.03702 0.45235 0.0
C205 C 0.87769 0.99959 0.43789 0.0
C206 C 0.70228 0.95493 0.47611 0.0
C207 C 0.7997 0.98902 0.4657 0.0
C208 C 0.66446 0.95176 0.49011 0.0
C209 C 0.68211 0.9752 0.50864 0.0
C210 C 0.75822 0.98255 0.48047 0.0
C211 C 0.73856 1.00113 0.51255 0.0
C212 C 0.85241 0.03164 0.46634 0.0
C213 C 0.82444 0.95749 0.43771 0.0
N214 N 0.77456 0.00448 0.49853 0.0
N215 N 0.78715 0.95345 0.45137 0.0
H216 H 0.89879 0.80448 0.77421 0.0
H217 H 0.69545 0.75976 0.86254 0.0
H218 H 0.89757 0.92914 0.80409 0.0
H219 H 0.74577 0.65158 0.84734 0.0
H220 H 0.76535 0.82157 0.84007 0.0
H221 H 0.83954 0.74679 0.79994 0.0
C222 C 0.88648 0.81979 0.78631 0.0
C223 C 0.90302 0.87164 0.78701 0.0
C224 C 0.76136 0.78444 0.8418 0.0
C225 C 0.8344 0.80568 0.81631 0.0
C226 C 0.72131 0.74913 0.85449 0.0
C227 C 0.71485 0.70053 0.85674 0.0
C228 C 0.79443 0.77068 0.83104 0.0
C229 C 0.74968 0.68877 0.84612 0.0
C230 C 0.85271 0.78686 0.801 0.0
C231 C 0.8859 0.88944 0.80303 0.0
N232 N 0.78759 0.7234 0.83358 0.0
N233 N 0.85188 0.85637 0.81693 0.0
H234 H 0.97499 0.90894 0.13708 0.0
H235 H 0.10547 0.74542 0.17688 0.0
H236 H 0.11415 0.91107 0.10985 0.0
H237 H 0.93715 0.70306 0.18685 0.0
H238 H 0.11798 0.81852 0.15746 0.0
H239 H 0.97018 0.84623 0.16097 0.0
C240 C 0.00518 0.89699 0.13637 0.0
C241 C 0.04485 0.91499 0.1214 0.0
C242 C 0.07841 0.79334 0.16399 0.0
C243 C 0.03943 0.84337 0.14857 0.0
C244 C 0.0713 0.7518 0.1751 0.0
C245 C 0.02011 0.71806 0.18336 0.0
C246 C 0.03423 0.80162 0.16134 0.0
C247 C 0.97708 0.72787 0.18052 0.0
C248 C 0.0021 0.86093 0.14988 0.0
C249 C 0.08269 0.89793 0.12108 0.0
N250 N 0.98511 0.76883 0.16976 0.0
N251 N 0.07897 0.86296 0.13441 0.0
H252 H 0.11675 0.94627 0.42326 0.0
H253 H 0.28162 0.05368 0.52176 0.0
H254 H 0.15783 0.09468 0.44488 0.0
H255 H 0.31293 0.9586 0.48281 0.0
H256 H 0.22868 0.06404 0.4956 0.0
H257 H 0.18146 0.94443 0.44674 0.0
C258 C 0.13988 0.97869 0.43281 0.0
C259 C 0.13206 0.02071 0.43216 0.0
C260 C 0.24748 0.04115 0.49284 0.0
C261 C 0.20485 0.01827 0.45929 0.0
C262 C 0.27788 0.03525 0.50774 0.0
C263 C 0.30178 0.00489 0.50466 0.0
C264 C 0.23997 0.01579 0.47485 0.0
C265 C 0.29428 0.98127 0.48618 0.0
C266 C 0.17675 0.97763 0.44616 0.0
C267 C 0.16298 0.06172 0.44485 0.0
N268 N 0.26363 0.98681 0.47207 0.0
N269 N 0.19748 0.05916 0.45815 0.0
H270 H 0.12308 0.21749 0.76569 0.0
H271 H 0.2482 0.25761 0.87441 0.0
H272 H 0.07978 0.09359 0.80629 0.0
H273 H 0.30533 0.37491 0.8299 0.0
H274 H 0.18004 0.19817 0.85111 0.0
H275 H 0.18249 0.27696 0.7907 0.0
C276 C 0.12571 0.20276 0.77994 0.0
C277 C 0.09661 0.15037 0.78385 0.0
C278 C 0.20737 0.237 0.84651 0.0
C279 C 0.16513 0.21853 0.81261 0.0
C280 C 0.24652 0.27093 0.85977 0.0
C281 C 0.28279 0.32149 0.85415 0.0
C282 C 0.20432 0.25371 0.8275 0.0
C283 C 0.2779 0.33666 0.83506 0.0
C284 C 0.15984 0.23681 0.79422 0.0
C285 C 0.10159 0.13364 0.80262 0.0
N286 N 0.23959 0.30295 0.82246 0.0
N287 N 0.13547 0.16761 0.81629 0.0
H288 H 0.90472 0.08524 0.70909 0.0
H289 H 0.6484 0.91455 0.63963 0.0
H290 H 0.82867 0.9219 0.70509 0.0
H291 H 0.74397 0.07829 0.63614 0.0
H292 H 0.70976 0.91606 0.66528 0.0
H293 H 0.8401 0.08286 0.68468 0.0
C294 C 0.87412 0.0488 0.70324 0.0
C295 C 0.87233 0.00371 0.70909 0.0
C296 C 0.71732 0.95164 0.65887 0.0
C297 C 0.79847 1.00082 0.681 0.0
C298 C 0.68257 0.9508 0.64409 0.0
C299 C 0.691 0.99638 0.63566 0.0
C300 C 0.76072 0.99839 0.66535 0.0
C301 C 0.73538 0.04226 0.64238 0.0
C302 C 0.83743 0.04752 0.6892 0.0
C303 C 0.83175 0.95764 0.70095 0.0
N304 N 0.76847 0.04208 0.65683 0.0
N305 N 0.79655 0.9574 0.68728 0.0
H306 H 0.81694 0.90372 0.04614 0.0
H307 H 0.76164 0.66654 0.97858 0.0
H308 H 0.93038 0.84865 0.03989 0.0
H309 H 0.65162 0.72591 0.98234 0.0
H310 H 0.82167 0.73022 0.00248 0.0
H311 H 0.75329 0.83578 0.02432 0.0
C312 C 0.82835 0.87719 0.0403 0.0
C313 C 0.87924 0.88209 0.0448 0.0
C314 C 0.78438 0.72932 0.99809 0.0
C315 C 0.80666 0.80438 0.01973 0.0
C316 C 0.74998 0.69282 0.9845 0.0
C317 C 0.70164 0.69101 0.97838 0.0
C318 C 0.77032 0.76424 0.00568 0.0
C319 C 0.68891 0.72642 0.9864 0.0
C320 C 0.79204 0.83848 0.02779 0.0
C321 C 0.89174 0.84654 0.03678 0.0
N322 N 0.72303 0.76157 0.99962 0.0
N323 N 0.85581 0.80935 0.0246 0.0
H324 H 0.97811 0.91292 0.33605 0.0
H325 H 0.9667 0.64654 0.32486 0.0
H326 H 0.92658 0.80097 0.38248 0.0
H327 H 0.97366 0.7364 0.27454 0.0
H328 H 0.95691 0.70589 0.34637 0.0
H329 H 0.97968 0.85116 0.31316 0.0
C330 C 0.96652 0.87525 0.34138 0.0
C331 C 0.95241 0.86219 0.36124 0.0
C332 C 0.9604 0.71262 0.33062 0.0
C333 C 0.95496 0.79185 0.33527 0.0
C334 C 0.96644 0.67896 0.31836 0.0
C335 C 0.97121 0.68668 0.29791 0.0
C336 C 0.9597 0.75474 0.32242 0.0
C337 C 0.96979 0.72894 0.29024 0.0
C338 C 0.96753 0.84009 0.32832 0.0
C339 C 0.93787 0.81285 0.36733 0.0
N340 N 0.96452 0.76162 0.30252 0.0
N341 N 0.94002 0.77973 0.35447 0.0
H342 H 0.12631 0.07379 0.69047 0.0
H343 H 0.32107 0.96951 0.65841 0.0
H344 H 0.11695 0.94287 0.71915 0.0
H345 H 0.25669 0.03208 0.61632 0.0
H346 H 0.25878 0.97034 0.68355 0.0
H347 H 0.18795 0.07105 0.66586 0.0
C348 C 0.13768 0.04478 0.69172 0.0
C349 C 0.11652 0.00848 0.70689 0.0
C350 C 0.25822 0.98367 0.66879 0.0
C351 C 0.18712 0.00543 0.67882 0.0
C352 C 0.29365 0.98333 0.65454 0.0
C353 C 0.29355 1.00069 0.63541 0.0
C354 C 0.22363 0.00267 0.66391 0.0
C355 C 0.25755 0.01826 0.63095 0.0
C356 C 0.17245 0.04304 0.67757 0.0
C357 C 0.13227 0.97147 0.70766 0.0
N358 N 0.22428 0.01931 0.6452 0.0
N359 N 0.16702 0.97107 0.69386 0.0
H360 H 0.05733 0.12936 0.02562 0.0
H361 H 0.36929 0.31228 0.99756 0.0
H362 H 0.18733 0.11741 0.05379 0.0
H363 H 0.23688 0.27421 0.95679 0.0
H364 H 0.30421 0.24885 0.02051 0.0
H365 H 0.1238 0.19181 0.00277 0.0
C366 C 0.09994 0.14008 0.02709 0.0
C367 C 0.11681 0.11808 0.04165 0.0
C368 C 0.28961 0.25438 0.0065 0.0
C369 C 0.19308 0.18971 0.01552 0.0
C370 C 0.32674 0.29037 0.99328 0.0
C371 C 0.30879 0.2988 0.97508 0.0
C372 C 0.23393 0.22711 0.00166 0.0
C373 C 0.25273 0.2699 0.97072 0.0
C374 C 0.13776 0.17551 0.01395 0.0
C375 C 0.17255 0.1333 0.04276 0.0
N376 N 0.21732 0.2356 0.98395 0.0
N377 N 0.20883 0.16843 0.0299 0.0
H378 H 0.96331 0.08242 0.34334 0.0
H379 H 0.09985 0.35902 0.29545 0.0
H380 H 0.10316 0.21281 0.36872 0.0
H381 H 0.92603 0.25319 0.29227 0.0
H382 H 0.10979 0.29901 0.31644 0.0
H383 H 0.95806 0.13819 0.31825 0.0
C384 C 0.99344 0.12258 0.34342 0.0
C385 C 0.03359 0.14318 0.35815 0.0
C386 C 0.06958 0.28898 0.31102 0.0
C387 C 0.02802 0.20667 0.32957 0.0
C388 C 0.06365 0.32337 0.29915 0.0
C389 C 0.01177 0.31184 0.29224 0.0
C390 C 0.02359 0.24215 0.31577 0.0
C391 C 0.96691 0.26392 0.29704 0.0
C392 C 0.99016 0.15431 0.32922 0.0
C393 C 0.07137 0.1955 0.35769 0.0
N394 N 0.97385 0.2309 0.30853 0.0
N395 N 0.06772 0.22547 0.34362 0.0
loop_
_geom_bond_atom_site_label_1
_geom_bond_atom_site_label_2
_geom_bond_distance
_geom_bond_site_symmetry_2
_ccdc_geom_bond_type
O0 Cd1 2.223 1_455 S
O0 C8 1.315 . S
Cd1 O0 2.223 1_655 S
Cd1 O4 2.297 . S
Cd1 O5 2.439 . S
Cd1 O11 2.240 1_545 S
Cd2 O3 2.240 1_565 S
Cd2 O10 2.223 1_455 S
Cd2 O12 2.297 . S
Cd2 O13 2.439 . S
O3 Cd2 2.240 1_545 S
O3 C8 1.279 . S
O4 Cd1 2.297 . S
O4 C6 1.247 . S
O5 Cd1 2.439 . S
O5 C6 1.208 . S
C6 O4 1.247 . S
C6 O5 1.208 . S
C7 O12 1.247 . S
C7 O13 1.208 . S
C8 O0 1.315 . S
C8 O3 1.279 . S
C9 O10 1.315 . S
C9 O11 1.279 . S
O10 Cd2 2.223 1_655 S
O10 C9 1.315 . S
O11 Cd1 2.240 1_565 S
O11 C9 1.279 . S
O12 Cd2 2.297 . S
O12 C7 1.247 . S
O13 Cd2 2.439 . S
O13 C7 1.208 . S
O14 Cd15 2.223 1_655 S
O14 C22 1.315 . S
Cd15 O14 2.223 1_455 S
Cd15 O18 2.297 . S
Cd15 O19 2.439 . S
Cd15 O25 2.240 . S
Cd16 O17 2.240 . S
Cd16 O24 2.223 1_655 S
Cd16 O26 2.297 . S
Cd16 O27 2.439 . S
O17 Cd16 2.240 . S
O17 C22 1.279 1_565 S
O18 Cd15 2.297 . S
O18 C20 1.247 . S
O19 Cd15 2.439 . S
O19 C20 1.208 . S
C20 O18 1.247 . S
C20 O19 1.208 . S
C21 O26 1.247 . S
C21 O27 1.208 . S
C22 O14 1.315 . S
C22 O17 1.279 1_545 S
C23 O24 1.315 . S
C23 O25 1.279 1_565 S
O24 Cd16 2.223 1_455 S
O24 C23 1.315 . S
O25 Cd15 2.240 . S
O25 C23 1.279 1_545 S
O26 Cd16 2.297 . S
O26 C21 1.247 . S
O27 Cd16 2.439 . S
O27 C21 1.208 . S
O28 Cd29 2.223 . S
O28 C36 1.315 . S
Cd29 O28 2.223 . S
Cd29 O32 2.297 . S
Cd29 O33 2.439 . S
Cd29 O39 2.240 1_655 S
Cd30 O31 2.240 1_455 S
Cd30 O38 2.223 . S
Cd30 O40 2.297 . S
Cd30 O41 2.439 . S
O31 Cd30 2.240 1_655 S
O31 C36 1.279 1_545 S
O32 Cd29 2.297 . S
O32 C34 1.247 . S
O33 Cd29 2.439 . S
O33 C34 1.208 . S
C34 O32 1.247 . S
C34 O33 1.208 . S
C35 O40 1.247 . S
C35 O41 1.208 . S
C36 O28 1.315 . S
C36 O31 1.279 1_565 S
C37 O38 1.315 . S
C37 O39 1.279 1_545 S
O38 Cd30 2.223 . S
O38 C37 1.315 . S
O39 Cd29 2.240 1_455 S
O39 C37 1.279 1_565 S
O40 Cd30 2.297 . S
O40 C35 1.247 . S
O41 Cd30 2.439 . S
O41 C35 1.208 . S
C42 C43 1.384 1_655 S
C42 C44 1.384 . S
C42 H70 0.931 . S
C43 C42 1.384 1_455 S
C43 C46 1.382 . S
C44 C42 1.384 . S
C44 C45 1.381 1_655 S
C44 H71 0.930 . S
C45 C44 1.381 1_455 S
C45 C47 1.381 . S
C45 C48 1.487 . S
C46 C43 1.382 . S
C46 C47 1.387 . S
C46 H72 0.930 . S
C47 C45 1.381 . S
C47 C46 1.387 . S
C47 H73 0.931 . S
C48 C45 1.487 . S
C48 C55 1.399 1_455 S
C48 N86 1.343 . S
C49 C50 1.384 1_455 S
C49 C51 1.384 . S
C49 H74 0.931 . S
C50 C49 1.384 1_655 S
C50 C53 1.382 . S
C51 C49 1.384 . S
C51 C52 1.381 1_455 S
C51 H75 0.930 . S
C52 C51 1.381 1_655 S
C52 C54 1.381 . S
C52 C55 1.487 . S
C53 C50 1.382 . S
C53 C54 1.387 . S
C53 H76 0.930 . S
C54 C52 1.381 . S
C54 C53 1.387 . S
C54 H77 0.931 . S
C55 C48 1.399 1_655 S
C55 C52 1.487 . S
C55 N87 1.343 . S
C56 C57 1.384 1_455 S
C56 C58 1.384 . S
C56 H78 0.931 . S
C57 C56 1.384 1_655 S
C57 C60 1.382 . S
C58 C56 1.384 . S
C58 C59 1.381 1_455 S
C58 H79 0.930 . S
C59 C58 1.381 1_655 S
C59 C61 1.381 . S
C59 C62 1.487 . S
C60 C57 1.382 . S
C60 C61 1.387 . S
C60 H80 0.930 . S
C61 C59 1.381 . S
C61 C60 1.387 . S
C61 H81 0.931 . S
C62 C59 1.487 . S
C62 C69 1.399 1_655 S
C62 N87 1.343 . S
C63 C64 1.384 1_655 S
C63 C65 1.384 . S
C63 H82 0.931 . S
C64 C63 1.384 1_455 S
C64 C67 1.382 . S
C65 C63 1.384 . S
C65 C66 1.381 1_655 S
C65 H83 0.930 . S
C66 C65 1.381 1_455 S
C66 C68 1.381 . S
C66 C69 1.487 . S
C67 C64 1.382 . S
C67 C68 1.387 . S
C67 H84 0.930 . S
C68 C66 1.381 . S
C68 C67 1.387 . S
C68 H85 0.931 . S
C69 C62 1.399 1_455 S
C69 C66 1.487 . S
C69 N86 1.343 . S
H70 C42 0.931 . S
H71 C44 0.930 . S
H72 C46 0.930 . S
H73 C47 0.931 . S
H74 C49 0.931 . S
H75 C51 0.930 . S
H76 C53 0.930 . S
H77 C54 0.931 . S
H78 C56 0.931 . S
H79 C58 0.930 . S
H80 C60 0.930 . S
H81 C61 0.931 . S
H82 C63 0.931 . S
H83 C65 0.930 . S
H84 C67 0.930 . S
H85 C68 0.931 . S
N86 C48 1.343 . S
N86 C69 1.343 . S
N87 C55 1.343 . S
N87 C62 1.343 . S
C88 C89 1.384 1_545 S
C88 C90 1.384 . S
C88 H116 0.931 . S
C89 C88 1.384 1_565 S
C89 C92 1.382 . S
C90 C88 1.384 . S
C90 C91 1.381 1_545 S
C90 H117 0.930 . S
C91 C90 1.381 1_565 S
C91 C93 1.381 . S
C91 C94 1.487 . S
C92 C89 1.382 . S
C92 C93 1.387 . S
C92 H118 0.930 . S
C93 C91 1.381 . S
C93 C92 1.387 . S
C93 H119 0.931 . S
C94 C91 1.487 . S
C94 C101 1.399 1_565 S
C94 N132 1.343 . S
C95 C96 1.384 1_565 S
C95 C97 1.384 . S
C95 H120 0.931 . S
C96 C95 1.384 1_545 S
C96 C99 1.382 . S
C97 C95 1.384 . S
C97 C98 1.381 1_565 S
C97 H121 0.930 . S
C98 C97 1.381 1_545 S
C98 C100 1.381 . S
C98 C101 1.487 . S
C99 C96 1.382 . S
C99 C100 1.387 . S
C99 H122 0.930 . S
C100 C98 1.381 . S
C100 C99 1.387 . S
C100 H123 0.931 . S
C101 C94 1.399 1_545 S
C101 C98 1.487 . S
C101 N133 1.343 . S
C102 C103 1.384 1_565 S
C102 C104 1.384 . S
C102 H124 0.931 . S
C103 C102 1.384 1_545 S
C103 C106 1.382 . S
C104 C102 1.384 . S
C104 C105 1.381 1_565 S
C104 H125 0.930 . S
C105 C104 1.381 1_545 S
C105 C107 1.381 . S
C105 C108 1.487 . S
C106 C103 1.382 . S
C106 C107 1.387 . S
C106 H126 0.930 . S
C107 C105 1.381 . S
C107 C106 1.387 . S
C107 H127 0.931 . S
C108 C105 1.487 . S
C108 C115 1.399 1_545 S
C108 N133 1.343 . S
C109 C110 1.384 1_545 S
C109 C111 1.384 . S
C109 H128 0.931 . S
C110 C109 1.384 1_565 S
C110 C113 1.382 . S
C111 C109 1.384 . S
C111 C112 1.381 1_545 S
C111 H129 0.930 . S
C112 C111 1.381 1_565 S
C112 C114 1.381 . S
C112 C115 1.487 . S
C113 C110 1.382 . S
C113 C114 1.387 . S
C113 H130 0.930 . S
C114 C112 1.381 . S
C114 C113 1.387 . S
C114 H131 0.931 . S
C115 C108 1.399 1_565 S
C115 C112 1.487 . S
C115 N132 1.343 . S
H116 C88 0.931 . S
H117 C90 0.930 . S
H118 C92 0.930 . S
H119 C93 0.931 . S
H120 C95 0.931 . S
H121 C97 0.930 . S
H122 C99 0.930 . S
H123 C100 0.931 . S
H124 C102 0.931 . S
H125 C104 0.930 . S
H126 C106 0.930 . S
H127 C107 0.931 . S
H128 C109 0.931 . S
H129 C111 0.930 . S
H130 C113 0.930 . S
H131 C114 0.931 . S
N132 C94 1.343 . S
N132 C115 1.343 . S
N133 C101 1.343 . S
N133 C108 1.343 . S
C134 C135 1.384 . S
C134 C136 1.384 . S
C134 H162 0.931 . S
C135 C134 1.384 . S
C135 C138 1.382 . S
C136 C134 1.384 . S
C136 C137 1.381 . S
C136 H163 0.930 . S
C137 C136 1.381 . S
C137 C139 1.381 . S
C137 C140 1.487 . S
C138 C135 1.382 . S
C138 C139 1.387 . S
C138 H164 0.930 . S
C139 C137 1.381 . S
C139 C138 1.387 . S
C139 H165 0.931 . S
C140 C137 1.487 . S
C140 C147 1.399 . S
C140 N178 1.343 . S
C141 C142 1.384 . S
C141 C143 1.384 . S
C141 H166 0.931 . S
C142 C141 1.384 . S
C142 C145 1.382 . S
C143 C141 1.384 . S
C143 C144 1.381 . S
C143 H167 0.930 . S
C144 C143 1.381 . S
C144 C146 1.381 . S
C144 C147 1.487 . S
C145 C142 1.382 . S
C145 C146 1.387 . S
C145 H168 0.930 . S
C146 C144 1.381 . S
C146 C145 1.387 . S
C146 H169 0.931 . S
C147 C140 1.399 . S
C147 C144 1.487 . S
C147 N179 1.343 . S
C148 C149 1.384 . S
C148 C150 1.384 . S
C148 H170 0.931 . S
C149 C148 1.384 . S
C149 C152 1.382 . S
C150 C148 1.384 . S
C150 C151 1.381 . S
C150 H171 0.930 . S
C151 C150 1.381 . S
C151 C153 1.381 . S
C151 C154 1.487 . S
C152 C149 1.382 . S
C152 C153 1.387 . S
C152 H172 0.930 . S
C153 C151 1.381 . S
C153 C152 1.387 . S
C153 H173 0.931 . S
C154 C151 1.487 . S
C154 C161 1.399 . S
C154 N179 1.343 . S
C155 C156 1.384 . S
C155 C157 1.384 . S
C155 H174 0.931 . S
C156 C155 1.384 . S
C156 C159 1.382 . S
C157 C155 1.384 . S
C157 C158 1.381 . S
C157 H175 0.930 . S
C158 C157 1.381 . S
C158 C160 1.381 . S
C158 C161 1.487 . S
C159 C156 1.382 . S
C159 C160 1.387 . S
C159 H176 0.930 . S
C160 C158 1.381 . S
C160 C159 1.387 . S
C160 H177 0.931 . S
C161 C154 1.399 . S
C161 C158 1.487 . S
C161 N178 1.343 . S
H162 C134 0.931 . S
H163 C136 0.930 . S
H164 C138 0.930 . S
H165 C139 0.931 . S
H166 C141 0.931 . S
H167 C143 0.930 . S
H168 C145 0.930 . S
H169 C146 0.931 . S
H170 C148 0.931 . S
H171 C150 0.930 . S
H172 C152 0.930 . S
H173 C153 0.931 . S
H174 C155 0.931 . S
H175 C157 0.930 . S
H176 C159 0.930 . S
H177 C160 0.931 . S
N178 C140 1.343 . S
N178 C161 1.343 . S
N179 C147 1.343 . S
N179 C154 1.343 . S
H180 C186 0.930 . S
H181 C190 0.930 . S
H182 C195 0.929 . S
H183 C193 0.929 . S
H184 C188 0.929 . S
H185 C194 0.929 . S
C186 H180 0.930 . S
C186 C187 1.362 1_655 S
C186 C194 1.378 . S
C187 C186 1.362 1_455 S
C187 C195 1.435 . S
C188 H184 0.929 . S
C188 C190 1.378 . S
C188 C192 1.357 . S
C189 C192 1.471 1_655 S
C189 C194 1.350 . S
C189 N197 1.428 1_655 S
C190 H181 0.930 . S
C190 C188 1.378 . S
C190 C191 1.375 . S
C191 C190 1.375 . S
C191 C193 1.429 1_455 S
C192 C188 1.357 . S
C192 C189 1.471 1_455 S
C192 N196 1.411 1_455 S
C193 H183 0.929 . S
C193 C191 1.429 1_655 S
C193 N196 1.384 . S
C194 H185 0.929 . S
C194 C186 1.378 . S
C194 C189 1.350 . S
C195 H182 0.929 . S
C195 C187 1.435 . S
C195 N197 1.384 . S
N196 C192 1.411 1_655 S
N196 C193 1.384 . S
N197 C189 1.428 1_455 S
N197 C195 1.384 . S
H198 C204 0.930 . S
H199 C208 0.930 . S
H200 C213 0.929 . S
H201 C211 0.929 . S
H202 C206 0.929 . S
H203 C212 0.929 . S
C204 H198 0.930 . S
C204 C205 1.367 . S
C204 C212 1.378 . S
C205 C204 1.367 . S
C205 C213 1.433 1_545 S
C206 H202 0.929 . S
C206 C208 1.378 . S
C206 C210 1.350 1_565 S
C207 C210 1.463 . S
C207 C212 1.350 . S
C207 N215 1.427 1_545 S
C208 H199 0.930 . S
C208 C206 1.378 . S
C208 C209 1.366 1_565 S
C209 C208 1.366 1_545 S
C209 C211 1.433 . S
C210 C206 1.350 1_545 S
C210 C207 1.463 . S
C210 N214 1.427 . S
C211 H201 0.929 . S
C211 C209 1.433 . S
C211 N214 1.384 . S
C212 H203 0.929 . S
C212 C204 1.378 . S
C212 C207 1.350 . S
C213 H200 0.929 . S
C213 C205 1.433 1_565 S
C213 N215 1.384 . S
N214 C210 1.427 . S
N214 C211 1.384 . S
N215 C207 1.427 1_565 S
N215 C213 1.384 . S
H216 C222 0.930 . S
H217 C226 0.930 . S
H218 C231 0.929 . S
H219 C229 0.929 . S
H220 C224 0.929 . S
H221 C230 0.929 . S
C222 H216 0.930 . S
C222 C223 1.367 . S
C222 C230 1.378 . S
C223 C222 1.367 . S
C223 C231 1.433 . S
C224 H220 0.929 . S
C224 C226 1.378 . S
C224 C228 1.350 . S
C225 C228 1.463 . S
C225 C230 1.350 . S
C225 N233 1.427 . S
C226 H217 0.930 . S
C226 C224 1.378 . S
C226 C227 1.367 . S
C227 C226 1.367 . S
C227 C229 1.433 . S
C228 C224 1.350 . S
C228 C225 1.463 . S
C228 N232 1.427 . S
C229 H219 0.929 . S
C229 C227 1.433 . S
C229 N232 1.384 . S
C230 H221 0.929 . S
C230 C222 1.378 . S
C230 C225 1.350 . S
C231 H218 0.929 . S
C231 C223 1.433 . S
C231 N233 1.384 . S
N232 C228 1.427 . S
N232 C229 1.384 . S
N233 C225 1.427 . S
N233 C231 1.384 . S
H234 C240 0.930 . S
H235 C244 0.930 . S
H236 C249 0.929 . S
H237 C247 0.929 . S
H238 C242 0.929 . S
H239 C248 0.929 . S
C240 H234 0.930 . S
C240 C241 1.367 . S
C240 C248 1.378 . S
C241 C240 1.367 . S
C241 C249 1.433 1_655 S
C242 H238 0.929 . S
C242 C244 1.378 . S
C242 C246 1.350 . S
C243 C246 1.463 1_655 S
C243 C248 1.350 . S
C243 N251 1.427 1_655 S
C244 H235 0.930 . S
C244 C242 1.378 . S
C244 C245 1.367 . S
C245 C244 1.367 . S
C245 C247 1.433 1_455 S
C246 C242 1.350 . S
C246 C243 1.463 1_455 S
C246 N250 1.427 1_455 S
C247 H237 0.929 . S
C247 C245 1.433 1_655 S
C247 N250 1.384 . S
C248 H239 0.929 . S
C248 C240 1.378 . S
C248 C243 1.350 . S
C249 H236 0.929 . S
C249 C241 1.433 1_455 S
C249 N251 1.384 . S
N250 C246 1.427 1_655 S
N250 C247 1.384 . S
N251 C243 1.427 1_455 S
N251 C249 1.384 . S
H252 C258 0.930 . S
H253 C262 0.930 . S
H254 C267 0.929 . S
H255 C265 0.929 . S
H256 C260 0.929 . S
H257 C266 0.929 . S
C258 H252 0.930 . S
C258 C259 1.367 . S
C258 C266 1.378 . S
C259 C258 1.367 . S
C259 C267 1.433 1_565 S
C260 H256 0.929 . S
C260 C262 1.378 . S
C260 C264 1.345 1_545 S
C261 C264 1.459 . S
C261 C266 1.350 . S
C261 N269 1.427 1_565 S
C262 H253 0.930 . S
C262 C260 1.378 . S
C262 C263 1.377 . S
C263 C262 1.377 . S
C263 C265 1.427 1_545 S
C264 C260 1.345 1_565 S
C264 C261 1.459 . S
C264 N268 1.436 . S
C265 H255 0.929 . S
C265 C263 1.427 1_565 S
C265 N268 1.384 . S
C266 H257 0.929 . S
C266 C258 1.378 . S
C266 C261 1.350 . S
C267 H254 0.929 . S
C267 C259 1.433 1_545 S
C267 N269 1.384 . S
N268 C264 1.436 . S
N268 C265 1.384 . S
N269 C261 1.427 1_545 S
N269 C267 1.384 . S
H270 C276 0.930 . S
H271 C280 0.930 . S
H272 C285 0.929 . S
H273 C283 0.929 . S
H274 C278 0.929 . S
H275 C284 0.929 . S
C276 H270 0.930 . S
C276 C277 1.367 . S
C276 C284 1.378 . S
C277 C276 1.367 . S
C277 C285 1.433 . S
C278 H274 0.929 . S
C278 C280 1.378 . S
C278 C282 1.350 . S
C279 C282 1.463 . S
C279 C284 1.350 . S
C279 N287 1.427 . S
C280 H271 0.930 . S
C280 C278 1.378 . S
C280 C281 1.367 . S
C281 C280 1.367 . S
C281 C283 1.433 . S
C282 C278 1.350 . S
C282 C279 1.463 . S
C282 N286 1.427 . S
C283 H273 0.929 . S
C283 C281 1.433 . S
C283 N286 1.384 . S
C284 H275 0.929 . S
C284 C276 1.378 . S
C284 C279 1.350 . S
C285 H272 0.929 . S
C285 C277 1.433 . S
C285 N287 1.384 . S
N286 C282 1.427 . S
N286 C283 1.384 . S
N287 C279 1.427 . S
N287 C285 1.384 . S
H288 C294 0.930 . S
H289 C298 0.930 . S
H290 C303 0.929 . S
H291 C301 0.929 . S
H292 C296 0.929 . S
H293 C302 0.929 . S
C294 H288 0.930 . S
C294 C295 1.367 1_545 S
C294 C302 1.378 . S
C295 C294 1.367 1_565 S
C295 C303 1.433 . S
C296 H292 0.929 . S
C296 C298 1.378 . S
C296 C300 1.350 . S
C297 C300 1.463 . S
C297 C302 1.350 1_565 S
C297 N305 1.427 . S
C298 H289 0.930 . S
C298 C296 1.378 . S
C298 C299 1.367 . S
C299 C298 1.367 . S
C299 C301 1.433 1_565 S
C300 C296 1.350 . S
C300 C297 1.463 . S
C300 N304 1.427 1_565 S
C301 H291 0.929 . S
C301 C299 1.433 1_545 S
C301 N304 1.384 . S
C302 H293 0.929 . S
C302 C294 1.378 . S
C302 C297 1.350 1_545 S
C303 H290 0.929 . S
C303 C295 1.433 . S
C303 N305 1.384 . S
N304 C300 1.427 1_545 S
N304 C301 1.384 . S
N305 C297 1.427 . S
N305 C303 1.384 . S
H306 C312 0.930 . S
H307 C316 0.930 . S
H308 C321 0.929 . S
H309 C319 0.929 . S
H310 C314 0.929 . S
H311 C320 0.929 . S
C312 H306 0.930 . S
C312 C313 1.367 . S
C312 C320 1.378 . S
C313 C312 1.367 . S
C313 C321 1.433 . S
C314 H310 0.929 . S
C314 C316 1.378 . S
C314 C318 1.350 . S
C315 C318 1.463 1_554 S
C315 C320 1.350 . S
C315 N323 1.427 . S
C316 H307 0.930 . S
C316 C314 1.378 . S
C316 C317 1.367 . S
C317 C316 1.367 . S
C317 C319 1.433 . S
C318 C314 1.350 . S
C318 C315 1.463 1_556 S
C318 N322 1.427 1_556 S
C319 H309 0.929 . S
C319 C317 1.433 . S
C319 N322 1.384 1_556 S
C320 H311 0.929 . S
C320 C312 1.378 . S
C320 C315 1.350 . S
C321 H308 0.929 . S
C321 C313 1.433 . S
C321 N323 1.384 . S
N322 C318 1.427 1_554 S
N322 C319 1.384 1_554 S
N323 C315 1.427 . S
N323 C321 1.384 . S
H324 C330 0.930 . S
H325 C334 0.930 . S
H326 C339 0.929 . S
H327 C337 0.929 . S
H328 C332 0.929 . S
H329 C338 0.929 . S
C330 H324 0.930 . S
C330 C331 1.367 1_655 S
C330 C338 1.378 . S
C331 C330 1.367 1_455 S
C331 C339 1.433 . S
C332 H328 0.929 . S
C332 C334 1.378 . S
C332 C336 1.350 . S
C333 C336 1.463 . S
C333 C338 1.350 1_455 S
C333 N341 1.427 . S
C334 H325 0.930 . S
C334 C332 1.378 . S
C334 C335 1.367 . S
C335 C334 1.367 . S
C335 C337 1.433 1_455 S
C336 C332 1.350 . S
C336 C333 1.463 . S
C336 N340 1.427 1_455 S
C337 H327 0.929 . S
C337 C335 1.433 1_655 S
C337 N340 1.384 . S
C338 H329 0.929 . S
C338 C330 1.378 . S
C338 C333 1.350 1_655 S
C339 H326 0.929 . S
C339 C331 1.433 . S
C339 N341 1.384 . S
N340 C336 1.427 1_655 S
N340 C337 1.384 . S
N341 C333 1.427 . S
N341 C339 1.384 . S
H342 C348 0.930 . S
H343 C352 0.930 . S
H344 C357 0.929 . S
H345 C355 0.929 . S
H346 C350 0.929 . S
H347 C356 0.929 . S
C348 H342 0.930 . S
C348 C349 1.367 . S
C348 C356 1.378 . S
C349 C348 1.367 . S
C349 C357 1.434 1_545 S
C350 H346 0.929 . S
C350 C352 1.378 . S
C350 C354 1.350 1_565 S
C351 C354 1.463 . S
C351 C356 1.350 . S
C351 N359 1.427 1_545 S
C352 H343 0.930 . S
C352 C350 1.378 . S
C352 C353 1.364 1_565 S
C353 C352 1.364 1_545 S
C353 C355 1.444 . S
C354 C350 1.350 1_545 S
C354 C351 1.463 . S
C354 N358 1.427 . S
C355 H345 0.929 . S
C355 C353 1.444 . S
C355 N358 1.384 . S
C356 H347 0.929 . S
C356 C348 1.378 . S
C356 C351 1.350 . S
C357 H344 0.929 . S
C357 C349 1.434 1_565 S
C357 N359 1.383 . S
N358 C354 1.427 . S
N358 C355 1.384 . S
N359 C351 1.427 1_565 S
N359 C357 1.383 . S
H360 C366 0.930 . S
H361 C370 0.930 . S
H362 C375 0.929 . S
H363 C373 0.929 . S
H364 C368 0.903 1_554 S
H365 C374 0.929 1_556 S
C366 H360 0.930 . S
C366 C367 1.367 . S
C366 C374 1.378 . S
C367 C366 1.367 . S
C367 C375 1.433 . S
C368 H364 0.903 1_556 S
C368 C370 1.399 . S
C368 C372 1.356 . S
C369 C372 1.463 1_554 S
C369 C374 1.350 . S
C369 N377 1.427 . S
C370 H361 0.930 . S
C370 C368 1.399 . S
C370 C371 1.367 . S
C371 C370 1.367 . S
C371 C373 1.433 . S
C372 C368 1.356 . S
C372 C369 1.463 1_556 S
C372 N376 1.427 . S
C373 H363 0.929 . S
C373 C371 1.433 . S
C373 N376 1.384 . S
C374 H365 0.929 1_554 S
C374 C366 1.378 . S
C374 C369 1.350 . S
C375 H362 0.929 . S
C375 C367 1.433 . S
C375 N377 1.384 . S
N376 C372 1.427 . S
N376 C373 1.384 . S
N377 C369 1.427 . S
N377 C375 1.384 . S
H378 C384 0.930 . S
H379 C388 0.930 . S
H380 C393 0.929 . S
H381 C391 0.929 . S
H382 C386 0.929 . S
H383 C392 0.929 . S
C384 H378 0.930 . S
C384 C385 1.367 . S
C384 C392 1.378 . S
C385 C384 1.367 . S
C385 C393 1.433 1_655 S
C386 H382 0.929 . S
C386 C388 1.378 . S
C386 C390 1.345 1_455 S
C387 C390 1.458 . S
C387 C392 1.350 . S
C387 N395 1.427 1_655 S
C388 H379 0.930 . S
C388 C386 1.378 . S
C388 C389 1.380 . S
C389 C388 1.380 . S
C389 C391 1.427 1_455 S
C390 C386 1.345 1_655 S
C390 C387 1.458 . S
C390 N394 1.437 . S
C391 H381 0.929 . S
C391 C389 1.427 1_655 S
C391 N394 1.384 . S
C392 H383 0.929 . S
C392 C384 1.378 . S
C392 C387 1.350 . S
C393 H380 0.929 . S
C393 C385 1.433 1_455 S
C393 N395 1.384 . S
N394 C390 1.437 . S
N394 C391 1.384 . S
N395 C387 1.427 1_455 S
N395 C393 1.384 . S
C191 C50 1.480 1_455 S
C187 C6 1.460 1_455 S
C205 C22 1.579 . S
C209 C89 1.605 1_545 S
C223 C34 1.246 . S
C227 C156 1.273 . S
C241 C7 1.467 1_655 S
C245 C57 1.488 1_455 S
C263 C110 1.598 1_545 S
C259 C23 1.572 . S
C277 C35 1.249 . S
C281 C135 1.270 . S
C299 C96 1.602 1_565 S
C295 C36 1.589 . S
C313 C9 1.794 . S
C317 C149 1.831 . S
C335 C64 1.482 . S
C331 C21 1.461 1_455 S
C353 C103 1.594 . S
C349 C37 1.582 . S
C371 C142 1.829 . S
C367 C8 1.790 . S
C385 C20 1.463 1_655 S
C389 C43 1.474 . S
