# Generated by pormake.
# Topology anh, (6,3)-cn, num edge types: 1
# Building blocks:
#     Node 0, Type 0, BuildingBlock: BETFAJ_clean_sbu_0, # of connection points: 6
#     Node 1, Type 0, BuildingBlock: BETFAJ_clean_sbu_0, # of connection points: 6
#     Node 2, Type 0, BuildingBlock: BETFAJ_clean_sbu_0, # of connection points: 6
#     Node 3, Type 1, BuildingBlock: BELTOD_clean_linker_0, # of connection points: 3
#     Node 4, Type 1, BuildingBlock: BELTOD_clean_linker_0, # of connection points: 3
#     Node 5, Type 1, BuildingBlock: BELTOD_clean_linker_0, # of connection points: 3
#     Node 6, Type 1, BuildingBlock: BELTOD_clean_linker_0, # of connection points: 3
#     Node 7, Type 1, BuildingBlock: BELTOD_clean_linker_0, # of connection points: 3
#     Node 8, Type 1, BuildingBlock: BELTOD_clean_linker_0, # of connection points: 3
#     Edge 9, Type (0, 1), BuildingBlock: UVAHIK_clean_linker_0, # of connection points: 2
#     Edge 10, Type (0, 1), BuildingBlock: UVAHIK_clean_linker_0, # of connection points: 2
#     Edge 11, Type (0, 1), BuildingBlock: UVAHIK_clean_linker_0, # of connection points: 2
#     Edge 12, Type (0, 1), BuildingBlock: UVAHIK_clean_linker_0, # of connection points: 2
#     Edge 13, Type (0, 1), BuildingBlock: UVAHIK_clean_linker_0, # of connection points: 2
#     Edge 14, Type (0, 1), BuildingBlock: UVAHIK_clean_linker_0, # of connection points: 2
#     Edge 15, Type (0, 1), BuildingBlock: UVAHIK_clean_linker_0, # of connection points: 2
#     Edge 16, Type (0, 1), BuildingBlock: UVAHIK_clean_linker_0, # of connection points: 2
#     Edge 17, Type (0, 1), BuildingBlock: UVAHIK_clean_linker_0, # of connection points: 2
#     Edge 18, Type (0, 1), BuildingBlock: UVAHIK_clean_linker_0, # of connection points: 2
#     Edge 19, Type (0, 1), BuildingBlock: UVAHIK_clean_linker_0, # of connection points: 2
#     Edge 20, Type (0, 1), BuildingBlock: UVAHIK_clean_linker_0, # of connection points: 2
#     Edge 21, Type (0, 1), BuildingBlock: UVAHIK_clean_linker_0, # of connection points: 2
#     Edge 22, Type (0, 1), BuildingBlock: UVAHIK_clean_linker_0, # of connection points: 2
#     Edge 23, Type (0, 1), BuildingBlock: UVAHIK_clean_linker_0, # of connection points: 2
#     Edge 24, Type (0, 1), BuildingBlock: UVAHIK_clean_linker_0, # of connection points: 2
#     Edge 25, Type (0, 1), BuildingBlock: UVAHIK_clean_linker_0, # of connection points: 2
#     Edge 26, Type (0, 1), BuildingBlock: UVAHIK_clean_linker_0, # of connection points: 2
# Relax obj value: 0.158
# Max RMSD: 0.195
# Mean RMSD: 0.142
data_MOF--net-anh--node1-BETFAJ_clean_sbu_0--node2-BELTOD_clean_linker_0--edge1-UVAHIK_clean_linker_0
_symmetry_space_group_name_H-M    P1
_symmetry_Int_Tables_number       1
_symmetry_cell_setting            triclinic
loop_
_symmetry_equiv_pos_as_xyz
'x, y, z'
_cell_length_a     44.044463
_cell_length_b     50.709669
_cell_length_c     76.265788
_cell_angle_alpha  92.678109
_cell_angle_beta   89.081055
_cell_angle_gamma 127.18206
loop_
_atom_site_label
_atom_site_type_symbol
_atom_site_fract_x
_atom_site_fract_y
_atom_site_fract_z
_atom_type_partial_charge
Sm0 Sm 0.07009 0.48502 0.16205 0.0
Sm1 Sm 0.03242 0.51738 0.16386 0.0
C2 C 0.11601 0.46904 0.15755 0.0
C3 C 0.15731 0.49257 0.15966 0.0
C4 C 0.17706 0.52361 0.15215 0.0
C5 C 0.2152 0.5482 0.15633 0.0
C6 C 0.23446 0.54203 0.16786 0.0
C7 C 0.21428 0.51126 0.17581 0.0
C8 C 0.17595 0.48675 0.17175 0.0
C9 C 0.04664 0.48807 0.19497 0.0
C10 C 0.1233 0.56758 0.16375 0.0
C11 C 0.99648 0.53854 0.17851 0.0
C12 C 0.95598 0.51826 0.18236 0.0
C13 C 0.94432 0.51205 0.19987 0.0
C14 C 0.90585 0.48983 0.20369 0.0
C15 C 0.87856 0.47407 0.19005 0.0
C16 C 0.89057 0.47902 0.17252 0.0
C17 C 0.92891 0.50088 0.16872 0.0
C18 C 0.03817 0.50743 0.12842 0.0
C19 C 0.97937 0.4365 0.15965 0.0
O20 O 0.1011 0.47323 0.14426 0.0
O21 O 0.09773 0.46398 0.17215 0.0
O22 O 0.06397 0.51166 0.18459 0.0
O23 O 0.03982 0.46134 0.18766 0.0
O24 O 0.12272 0.54115 0.16372 0.0
O25 O 0.09182 0.56484 0.16344 0.0
O26 O 1.01547 0.53164 0.18764 0.0
O27 O 1.00558 0.54257 0.1619 0.0
O28 O 0.04975 0.4993 0.1406 0.0
O29 O 1.02343 0.52149 0.13471 0.0
O30 O 0.98151 0.46223 0.16602 0.0
O31 O 1.00996 0.43995 0.154 0.0
H32 H 0.16304 0.52914 0.14315 0.0
H33 H 0.23002 0.57165 0.15006 0.0
H34 H 0.22847 0.50541 0.18449 0.0
H35 H 0.16081 0.46335 0.17811 0.0
H36 H 0.96501 0.52439 0.21057 0.0
H37 H 0.89724 0.48632 0.21728 0.0
H38 H 0.87031 0.46779 0.16165 0.0
H39 H 0.93715 0.50432 0.15507 0.0
Sm40 Sm 0.56138 0.99199 0.48621 0.0
Sm41 Sm 0.51371 0.01472 0.4831 0.0
C42 C 0.5881 0.95897 0.49348 0.0
C43 C 0.57204 0.92355 0.49345 0.0
C44 C 0.54296 0.90191 0.50503 0.0
C45 C 0.52956 0.86898 0.50546 0.0
C46 C 0.54459 0.85693 0.49419 0.0
C47 C 0.57236 0.87807 0.48207 0.0
C48 C 0.58614 0.91116 0.48179 0.0
C49 C 0.55276 0.0035 0.45263 0.0
C50 C 0.46714 0.93691 0.48234 0.0
C51 C 0.48873 0.04889 0.47538 0.0
C52 C 0.50273 0.08352 0.47894 0.0
C53 C 0.51485 0.10497 0.46504 0.0
C54 C 0.52595 0.13714 0.46816 0.0
C55 C 0.52466 0.14811 0.48518 0.0
C56 C 0.51423 0.12729 0.49916 0.0
C57 C 0.50357 0.09537 0.49611 0.0
C58 C 0.52303 0.00428 0.51689 0.0
C59 C 0.60797 0.06985 0.48598 0.0
O60 O 0.57605 0.96979 0.50551 0.0
O61 O 0.59191 0.97109 0.47815 0.0
O62 O 0.52617 0.98821 0.46347 0.0
O63 O 0.58512 0.01305 0.45919 0.0
O64 O 0.49942 0.94376 0.48816 0.0
O65 O 0.46553 0.96028 0.47687 0.0
O66 O 0.50863 0.04441 0.46449 0.0
O67 O 0.47662 0.02987 0.48878 0.0
O68 O 0.54932 0.01899 0.50586 0.0
O69 O 0.49091 -0.00446 0.51054 0.0
O70 O 0.57531 0.06233 0.48037 0.0
O71 O 0.61008 0.04696 0.49186 0.0
H72 H 0.53101 0.9105 0.51401 0.0
H73 H 0.50789 0.85302 0.51482 0.0
H74 H 0.58459 0.8694 0.47334 0.0
H75 H 0.60837 0.92726 0.47267 0.0
H76 H 0.51477 0.09655 0.45171 0.0
H77 H 0.53371 0.15283 0.45719 0.0
H78 H 0.51319 0.13543 0.5124 0.0
H79 H 0.49505 0.07975 0.50717 0.0
Sm80 Sm 0.59612 0.55411 0.83334 0.0
Sm81 Sm 0.54536 0.48196 0.83853 0.0
C82 C 0.62541 0.61417 0.82327 0.0
C83 C 0.61335 0.63581 0.82477 0.0
C84 C 0.59937 0.64078 0.80988 0.0
C85 C 0.58717 0.66059 0.81109 0.0
C86 C 0.58878 0.67603 0.82723 0.0
C87 C 0.60262 0.67092 0.84218 0.0
C88 C 0.61481 0.65106 0.84097 0.0
C89 C 0.58972 0.53819 0.86747 0.0
C90 C 0.50257 0.51588 0.84042 0.0
C91 C 0.51498 0.42061 0.84692 0.0
C92 C 0.52319 0.39662 0.84292 0.0
C93 C 0.54312 0.39209 0.85513 0.0
C94 C 0.54997 0.36879 0.85156 0.0
C95 C 0.53649 0.34931 0.83584 0.0
C96 C 0.5172 0.35418 0.82352 0.0
C97 C 0.51069 0.37763 0.82698 0.0
C98 C 0.55144 0.49798 0.80411 0.0
C99 C 0.63969 0.52154 0.83633 0.0
O100 O 0.60469 0.58761 0.81284 0.0
O101 O 0.63589 0.6087 0.83776 0.0
O102 O 0.56233 0.52487 0.85671 0.0
O103 O 0.62188 0.56146 0.86066 0.0
O104 O 0.53521 0.54189 0.8343 0.0
O105 O 0.49997 0.48987 0.84526 0.0
O106 O 0.53941 0.44657 0.8571 0.0
O107 O 0.50239 0.42771 0.83395 0.0
O108 O 0.57908 0.5114 0.81483 0.0
O109 O 0.5199 0.4746 0.8112 0.0
O110 O 0.60641 0.49612 0.84214 0.0
O111 O 0.64262 0.54638 0.82934 0.0
H112 H 0.59799 0.62941 0.79724 0.0
H113 H 0.57735 0.66445 0.79925 0.0
H114 H 0.60395 0.6822 0.85484 0.0
H115 H 0.62528 0.64766 0.85274 0.0
H116 H 0.55299 0.40624 0.86755 0.0
H117 H 0.56466 0.36521 0.86131 0.0
H118 H 0.5068 0.33955 0.81124 0.0
H119 H 0.49539 0.38051 0.81723 0.0
P120 P 0.57363 -0.00413 0.20804 0.0
H121 H 0.55026 0.9515 0.17709 0.0
H122 H 0.48814 0.90084 0.16805 0.0
H123 H 0.43405 0.92414 0.20682 0.0
H124 H 0.49631 0.9748 0.21579 0.0
H125 H 0.65467 0.03784 0.20135 0.0
H126 H 0.69878 0.09382 0.19137 0.0
H127 H 0.60548 0.09909 0.18445 0.0
H128 H 0.56074 0.04206 0.19435 0.0
H129 H 0.54927 0.9522 0.23681 0.0
H130 H 0.57955 0.0492 0.22931 0.0
O131 O 0.59599 0.97852 0.20726 0.0
H132 H 0.53783 0.95696 0.26781 0.0
H133 H 0.56741 0.05387 0.26019 0.0
C134 C 0.528 0.9665 0.19736 0.0
C135 C 0.52493 0.94627 0.18325 0.0
C136 C 0.48933 0.91725 0.1781 0.0
C137 C 0.45625 0.90808 0.18701 0.0
C138 C 0.45913 0.93016 0.19999 0.0
C139 C 0.49475 0.95927 0.20505 0.0
C140 C 0.60429 0.0355 0.19825 0.0
C141 C 0.64336 0.05057 0.19731 0.0
C142 C 0.66866 0.08269 0.19162 0.0
C143 C 0.65558 0.10076 0.187 0.0
C144 C 0.61631 0.08568 0.18791 0.0
C145 C 0.59076 0.05311 0.1934 0.0
C146 C 0.56613 0.00061 0.23085 0.0
C147 C 0.55356 0.97457 0.24186 0.0
C148 C 0.54655 0.97715 0.25952 0.0
C149 C 0.55176 0.00583 0.26647 0.0
C150 C 0.56366 0.03166 0.25528 0.0
C151 C 0.57064 0.02901 0.23759 0.0
P152 P 0.60659 0.54606 0.55841 0.0
H153 H 0.63203 0.52913 0.52743 0.0
H154 H 0.61228 0.47607 0.51401 0.0
H155 H 0.52021 0.42452 0.55083 0.0
H156 H 0.54035 0.47771 0.56428 0.0
H157 H 0.64311 0.61482 0.55099 0.0
H158 H 0.62043 0.64267 0.53746 0.0
H159 H 0.50861 0.54903 0.53032 0.0
H160 H 0.5317 0.52115 0.54402 0.0
H161 H 0.6375 0.53252 0.58679 0.0
H162 H 0.55049 0.54589 0.58047 0.0
O163 O 0.65399 0.57033 0.55688 0.0
H164 H 0.62573 0.52705 0.61831 0.0
H165 H 0.53862 0.54047 0.61208 0.0
C166 C 0.58833 0.50719 0.54714 0.0
C167 C 0.60736 0.50638 0.53248 0.0
C168 C 0.59585 0.47608 0.52473 0.0
C169 C 0.56504 0.44619 0.53154 0.0
C170 C 0.54449 0.44721 0.54553 0.0
C171 C 0.55598 0.47754 0.55323 0.0
C172 C 0.58924 0.5659 0.54822 0.0
C173 C 0.61382 0.60019 0.54638 0.0
C174 C 0.60084 0.61606 0.53856 0.0
C175 C 0.56286 0.59796 0.53261 0.0
C176 C 0.53803 0.56358 0.53475 0.0
C177 C 0.5512 0.54764 0.54248 0.0
C178 C 0.59554 0.54038 0.58138 0.0
C179 C 0.61592 0.53435 0.59221 0.0
C180 C 0.60921 0.53128 0.6102 0.0
C181 C 0.58167 0.53385 0.61767 0.0
C182 C 0.56007 0.53846 0.60666 0.0
C183 C 0.567 0.54175 0.58862 0.0
P184 P 0.08805 0.54242 0.88039 0.0
H185 H 0.15379 0.57706 0.85686 0.0
H186 H 0.20331 0.57056 0.85051 0.0
H187 H 0.13548 0.47519 0.87368 0.0
H188 H 0.08593 0.48226 0.88043 0.0
H189 H 0.05587 0.57566 0.89083 0.0
H190 H 0.99997 0.57105 0.88344 0.0
H191 H 0.96331 0.48825 0.84733 0.0
H192 H 1.02219 0.49461 0.85437 0.0
H193 H 0.14293 0.5631 0.9085 0.0
H194 H 1.02076 0.49587 0.90207 0.0
O195 O 0.11909 0.58372 0.88189 0.0
H196 H 0.13688 0.55338 0.93981 0.0
H197 H 1.01427 0.48661 0.93358 0.0
C198 C 0.1155 0.5302 0.86919 0.0
C199 C 0.14874 0.55422 0.86022 0.0
C200 C 0.17766 0.55069 0.85679 0.0
C201 C 0.1743 0.52268 0.86191 0.0
C202 C 0.13955 0.49726 0.86957 0.0
C203 C 0.11075 0.5011 0.87329 0.0
C204 C 0.04416 0.53593 0.87307 0.0
C205 C 0.03624 0.5566 0.88112 0.0
C206 C 1.00329 0.55346 0.87704 0.0
C207 C 0.97565 0.52874 0.86495 0.0
C208 C 0.98352 0.50777 0.85668 0.0
C209 C 1.0173 0.51124 0.86074 0.0
C210 C 0.08234 0.53074 0.90297 0.0
C211 C 0.11474 0.5461 0.91384 0.0
C212 C 0.11118 0.54072 0.93182 0.0
C213 C 0.07503 0.51972 0.93942 0.0
C214 C 0.04259 0.50297 0.92827 0.0
C215 C 0.04623 0.50839 0.91021 0.0
P216 P 0.05543 0.49105 0.44268 0.0
H217 H 0.10916 0.52245 0.4723 0.0
H218 H 0.15373 0.58044 0.48244 0.0
H219 H 0.09802 0.6056 0.44841 0.0
H220 H 0.05385 0.54753 0.43817 0.0
H221 H 1.02886 0.42552 0.45242 0.0
H222 H 0.96865 0.37822 0.46346 0.0
H223 H 0.925 0.43492 0.46555 0.0
H224 H 0.98638 0.48311 0.45471 0.0
H225 H 0.10682 0.53535 0.41614 0.0
H226 H 0.98741 0.45339 0.41903 0.0
O227 O 0.08608 0.48195 0.44261 0.0
H228 H 0.09905 0.53866 0.38482 0.0
H229 H 0.97956 0.45658 0.38767 0.0
C230 C 0.07895 0.53089 0.45412 0.0
C231 C 0.10595 0.54033 0.46734 0.0
C232 C 0.1314 0.57357 0.47318 0.0
C233 C 0.13013 0.59788 0.4659 0.0
C234 C 0.10046 0.58765 0.45393 0.0
C235 C 0.07498 0.55439 0.44815 0.0
C236 C 1.01234 0.45804 0.45297 0.0
C237 C 1.00685 0.42826 0.45562 0.0
C238 C 0.97238 0.40116 0.46194 0.0
C239 C 0.94236 0.40304 0.46547 0.0
C240 C 0.94783 0.43296 0.46297 0.0
C241 C 0.98279 0.46042 0.45687 0.0
C242 C 0.04772 0.49433 0.41998 0.0
C243 C 0.07881 0.51837 0.41009 0.0
C244 C 0.07432 0.52035 0.39222 0.0
C245 C 0.03866 0.49797 0.38383 0.0
C246 C 1.00739 0.47408 0.3938 0.0
C247 C 1.01186 0.47231 0.41176 0.0
P248 P 0.60006 0.02655 0.76126 0.0
H249 H 0.63733 0.07756 0.78954 0.0
H250 H 0.62221 0.11265 0.80357 0.0
H251 H 0.51509 0.05696 0.7749 0.0
H252 H 0.53044 0.02197 0.76089 0.0
H253 H 0.64217 0.00069 0.76786 0.0
H254 H 0.62579 0.95181 0.78235 0.0
H255 H 0.51271 0.92263 0.79205 0.0
H256 H 0.52949 0.97236 0.77768 0.0
H257 H 0.60052 0.06682 0.73539 0.0
H258 H 0.55834 0.96515 0.7386 0.0
O259 O 0.64741 0.05245 0.75962 0.0
H260 H 0.58015 0.05615 0.7046 0.0
H261 H 0.53783 0.95434 0.70777 0.0
C262 C 0.58549 0.0479 0.77382 0.0
C263 C 0.61035 0.07262 0.78647 0.0
C264 C 0.60157 0.0925 0.79457 0.0
C265 C 0.56775 0.08784 0.7901 0.0
C266 C 0.54168 0.06146 0.77833 0.0
C267 C 0.5504 0.04147 0.77033 0.0
C268 C 0.58729 0.99046 0.77206 0.0
C269 C 0.61398 0.98409 0.77325 0.0
C270 C 0.60462 0.95617 0.78149 0.0
C271 C 0.5682 0.93386 0.78841 0.0
C272 C 0.54101 0.93968 0.78683 0.0
C273 C 0.55061 0.96801 0.77873 0.0
C274 C 0.58072 0.01678 0.7393 0.0
C275 C 0.58627 0.04205 0.72954 0.0
C276 C 0.57449 0.0359 0.71198 0.0
C277 C 0.55735 0.00439 0.70381 0.0
C278 C 0.55116 0.97889 0.71373 0.0
C279 C 0.56275 0.98504 0.73137 0.0
P280 P 0.47952 0.39535 0.09407 0.0
H281 H 0.51264 0.38974 0.12459 0.0
H282 H 0.57762 0.42555 0.13668 0.0
H283 H 0.6177 0.47929 0.08911 0.0
H284 H 0.55319 0.4446 0.07717 0.0
H285 H 0.40413 0.37073 0.10665 0.0
H286 H 0.38262 0.39822 0.12428 0.0
H287 H 0.49951 0.48327 0.13375 0.0
H288 H 0.52087 0.45681 0.11595 0.0
H289 H 0.4851 0.37428 0.05908 0.0
H290 H 0.47783 0.44916 0.083 0.0
O291 O 0.45291 0.35413 0.09404 0.0
H292 H 0.50861 0.40496 0.03224 0.0
H293 H 0.50158 0.47988 0.05634 0.0
C294 C 0.52793 0.41388 0.09989 0.0
C295 C 0.5355 0.40865 0.11658 0.0
C296 C 0.57223 0.42956 0.12362 0.0
C297 C 0.60183 0.45542 0.11385 0.0
C298 C 0.59483 0.45975 0.09685 0.0
C299 C 0.55793 0.43932 0.08996 0.0
C300 C 0.46396 0.41131 0.11025 0.0
C301 C 0.42505 0.39479 0.113 0.0
C302 C 0.41288 0.41039 0.12304 0.0
C303 C 0.43965 0.44251 0.13039 0.0
C304 C 0.47858 0.45817 0.12852 0.0
C305 C 0.49068 0.44287 0.11831 0.0
C306 C 0.47939 0.40919 0.07296 0.0
C307 C 0.48699 0.39651 0.05831 0.0
C308 C 0.50121 0.41442 0.04317 0.0
C309 C 0.5077 0.44509 0.04249 0.0
C310 C 0.49698 0.45636 0.05662 0.0
C311 C 0.48303 0.43855 0.07182 0.0
C312 C 0.29574 0.56624 0.18363 0.0
C313 C 0.27641 0.56365 0.1684 0.0
C314 C 0.32956 0.5697 0.18208 0.0
C315 C 0.33708 0.52143 0.15495 0.0
H316 H 0.44381 0.56327 0.16448 0.0
C317 C 0.4069 0.46717 0.12554 0.0
C318 C 0.4273 0.46209 0.13695 0.0
C319 C 0.39625 0.4869 0.131 0.0
C320 C 0.4139 0.55137 0.16198 0.0
H321 H 0.28149 0.57078 0.14032 0.0
H322 H 0.34014 0.57703 0.13781 0.0
H323 H 0.41747 0.5937 0.17183 0.0
H324 H 0.45461 0.47458 0.16252 0.0
H325 H 0.43442 0.50865 0.1725 0.0
H326 H 0.33279 0.47923 0.14521 0.0
C327 C 0.32927 0.57603 0.15082 0.0
C328 C 0.39912 0.56874 0.16605 0.0
C329 C 0.29544 0.5723 0.1523 0.0
C330 C 0.43813 0.47784 0.15373 0.0
C331 C 0.42707 0.49746 0.15932 0.0
C332 C 0.35164 0.50422 0.15096 0.0
C333 C 0.34402 0.57114 0.16538 0.0
C334 C 0.36089 0.55397 0.16213 0.0
C335 C 0.40552 0.50159 0.14803 0.0
C336 C 0.39029 0.5193 0.15405 0.0
H337 H 0.28202 0.56062 0.19626 0.0
H338 H 0.34081 0.56602 0.19346 0.0
H339 H 0.30718 0.50945 0.15223 0.0
H340 H 0.39958 0.45615 0.1123 0.0
H341 H 0.38039 0.49045 0.12196 0.0
C342 C 0.64338 0.12464 0.47246 0.0
C343 C 0.64244 0.10453 0.48486 0.0
C344 C 0.67516 0.15762 0.47127 0.0
C345 C 0.75772 0.22787 0.49626 0.0
H346 H 0.79619 0.26199 0.45019 0.0
C347 C 0.90268 0.35463 0.48452 0.0
C348 C 0.90497 0.37282 0.47055 0.0
C349 C 0.86894 0.32329 0.48753 0.0
C350 C 0.78544 0.25304 0.46314 0.0
H351 H 0.67404 0.1032 0.50582 0.0
H352 H 0.72985 0.16143 0.50391 0.0
H353 H 0.74207 0.20401 0.45278 0.0
H354 H 0.87356 0.37322 0.44916 0.0
H355 H 0.81442 0.31831 0.45435 0.0
H356 H 0.80133 0.27701 0.5066 0.0
C357 C 0.70583 0.15145 0.49508 0.0
C358 C 0.75452 0.21974 0.46463 0.0
C359 C 0.67408 0.11812 0.49609 0.0
C360 C 0.8724 0.35977 0.46011 0.0
C361 C 0.83875 0.32823 0.46297 0.0
C362 C 0.78869 0.26127 0.49477 0.0
C363 C 0.70671 0.1715 0.48259 0.0
C364 C 0.74027 0.20676 0.48119 0.0
C365 C 0.83693 0.30928 0.47645 0.0
C366 C 0.80291 0.27424 0.47818 0.0
H367 H 0.61953 0.11484 0.46353 0.0
H368 H 0.67478 0.17243 0.46162 0.0
H369 H 0.74703 0.21869 0.50919 0.0
H370 H 0.92747 0.36422 0.49275 0.0
H371 H 0.86859 0.30935 0.49797 0.0
C372 C 0.54731 0.69184 0.81809 0.0
C373 C 0.5781 0.69882 0.82814 0.0
C374 C 0.54038 0.71526 0.81718 0.0
C375 C 0.59338 0.8056 0.82189 0.0
H376 H 0.49405 0.78543 0.81539 0.0
C377 C 0.58177 0.90959 0.81172 0.0
C378 C 0.55946 0.90481 0.79725 0.0
C379 C 0.57851 0.88287 0.81838 0.0
C380 C 0.52194 0.79136 0.81717 0.0
H381 H 0.62429 0.73519 0.84598 0.0
H382 H 0.61138 0.77539 0.8449 0.0
H383 H 0.49855 0.7412 0.82233 0.0
H384 H 0.51501 0.86856 0.77884 0.0
H385 H 0.5097 0.82151 0.79028 0.0
H386 H 0.6169 0.85542 0.81648 0.0
C387 C 0.59318 0.75217 0.83732 0.0
C388 C 0.52455 0.76607 0.82112 0.0
C389 C 0.60029 0.7289 0.83813 0.0
C390 C 0.53226 0.87264 0.79011 0.0
C391 C 0.52923 0.84581 0.79668 0.0
C392 C 0.59077 0.83075 0.81805 0.0
C393 C 0.56395 0.74611 0.82639 0.0
C394 C 0.56038 0.77291 0.82342 0.0
C395 C 0.55327 0.85089 0.81052 0.0
C396 C 0.55509 0.82396 0.81557 0.0
H397 H 0.52914 0.6686 0.81053 0.0
H398 H 0.51766 0.70973 0.8086 0.0
H399 H 0.62147 0.81169 0.82308 0.0
H400 H 0.60274 0.93425 0.81746 0.0
H401 H 0.59684 0.88745 0.82928 0.0
C402 C 0.8097 0.43488 0.1823 0.0
C403 C 0.83876 0.46038 0.19351 0.0
C404 C 0.77854 0.43429 0.17839 0.0
C405 C 0.77507 0.50012 0.17066 0.0
H406 H 0.66998 0.43229 0.15645 0.0
C407 C 0.64913 0.49284 0.13704 0.0
C408 C 0.64053 0.47501 0.12094 0.0
C409 C 0.67954 0.50028 0.14723 0.0
C410 C 0.69929 0.45139 0.16053 0.0
H411 H 0.85399 0.50011 0.21246 0.0
H412 H 0.79934 0.49843 0.20589 0.0
H413 H 0.70162 0.41855 0.17607 0.0
H414 H 0.65857 0.45463 0.10163 0.0
H415 H 0.71139 0.46704 0.11969 0.0
H416 H 0.77305 0.53245 0.15436 0.0
C417 C 0.80119 0.47976 0.19972 0.0
C418 C 0.71711 0.4436 0.17171 0.0
C419 C 0.83228 0.48039 0.2036 0.0
C420 C 0.66524 0.46868 0.11399 0.0
C421 C 0.69531 0.47577 0.12425 0.0
C422 C 0.75724 0.50786 0.15939 0.0
C423 C 0.77625 0.45878 0.18599 0.0
C424 C 0.75519 0.46781 0.1767 0.0
C425 C 0.70082 0.48956 0.14131 0.0
C426 C 0.71954 0.48332 0.15414 0.0
H427 H 0.81383 0.41873 0.17466 0.0
H428 H 0.75928 0.41767 0.16782 0.0
H429 H 0.80492 0.51891 0.17398 0.0
H430 H 0.63009 0.49781 0.14248 0.0
H431 H 0.68356 0.51078 0.16046 0.0
C432 C 0.43478 0.87628 0.47759 0.0
C433 C 0.43243 0.90224 0.48179 0.0
C434 C 0.40187 0.84341 0.47676 0.0
C435 C 0.30329 0.78816 0.49231 0.0
H436 H 0.28774 0.73256 0.45147 0.0
C437 C 0.17974 0.64649 0.48576 0.0
C438 C 0.16204 0.63375 0.46912 0.0
C439 C 0.21217 0.67952 0.48813 0.0
C440 C 0.2915 0.74777 0.46292 0.0
H441 H 0.3943 0.91437 0.489 0.0
H442 H 0.33672 0.85672 0.48803 0.0
H443 H 0.34551 0.78952 0.45415 0.0
H444 H 0.16464 0.64604 0.44199 0.0
H445 H 0.22024 0.70345 0.44621 0.0
H446 H 0.249 0.74641 0.501 0.0
C447 C 0.36392 0.86181 0.48513 0.0
C448 C 0.32482 0.78031 0.46454 0.0
C449 C 0.39675 0.89476 0.48555 0.0
C450 C 0.17706 0.65504 0.45505 0.0
C451 C 0.20939 0.68791 0.4574 0.0
C452 C 0.26999 0.75545 0.49076 0.0
C453 C 0.36608 0.83581 0.48053 0.0
C454 C 0.33101 0.80094 0.47918 0.0
C455 C 0.22774 0.70045 0.47389 0.0
C456 C 0.26353 0.73496 0.47595 0.0
H457 H 0.462 0.88144 0.47462 0.0
H458 H 0.40446 0.8239 0.47327 0.0
H459 H 0.30746 0.80342 0.50382 0.0
H460 H 0.16883 0.63083 0.4969 0.0
H461 H 0.22569 0.68835 0.50099 0.0
C462 C 0.57568 0.32848 0.83332 0.0
C463 C 0.54007 0.32232 0.8327 0.0
C464 C 0.5785 0.30269 0.82969 0.0
C465 C 0.52307 0.21766 0.80857 0.0
H466 H 0.59961 0.21512 0.83091 0.0
C467 C 0.55094 0.12554 0.78412 0.0
C468 C 0.56161 0.11242 0.79625 0.0
C469 C 0.54801 0.15062 0.78932 0.0
C470 C 0.57768 0.21515 0.82473 0.0
H471 H 0.47946 0.28459 0.82868 0.0
H472 H 0.48389 0.23946 0.82319 0.0
H473 H 0.5951 0.25963 0.8391 0.0
H474 H 0.5769 0.11477 0.82344 0.0
H475 H 0.57043 0.15794 0.83277 0.0
H476 H 0.50438 0.17251 0.79483 0.0
C477 C 0.50997 0.26419 0.82568 0.0
C478 C 0.57551 0.24106 0.82922 0.0
C479 C 0.5073 0.28998 0.82894 0.0
C480 C 0.56872 0.12455 0.81381 0.0
C481 C 0.56528 0.14944 0.8191 0.0
C482 C 0.52481 0.19157 0.80433 0.0
C483 C 0.54563 0.2702 0.8257 0.0
C484 C 0.54822 0.2427 0.82114 0.0
C485 C 0.55515 0.16297 0.80687 0.0
C486 C 0.55236 0.19009 0.81219 0.0
H487 H 0.60135 0.35333 0.83617 0.0
H488 H 0.6065 0.30843 0.82964 0.0
H489 H 0.50213 0.21826 0.80178 0.0
H490 H 0.54611 0.11719 0.77041 0.0
H491 H 0.54106 0.16087 0.77941 0.0
C492 C 0.52352 0.80134 0.4818 0.0
C493 C 0.53421 0.82354 0.49629 0.0
C494 C 0.51668 0.77088 0.48388 0.0
C495 C 0.50506 0.71511 0.51846 0.0
H496 H 0.54216 0.68585 0.48198 0.0
C497 C 0.51503 0.6093 0.52991 0.0
C498 C 0.54944 0.61547 0.5247 0.0
C499 C 0.50492 0.62882 0.52406 0.0
C500 C 0.53177 0.69373 0.49233 0.0
H501 H 0.54623 0.83155 0.52424 0.0
H502 H 0.53613 0.77954 0.52782 0.0
H503 H 0.5405 0.73191 0.47702 0.0
H504 H 0.59888 0.64523 0.50833 0.0
H505 H 0.58203 0.6798 0.49855 0.0
H506 H 0.49927 0.67873 0.53429 0.0
C507 C 0.53135 0.78459 0.51494 0.0
C508 C 0.53024 0.71991 0.48939 0.0
C509 C 0.53742 0.81462 0.5129 0.0
C510 C 0.57248 0.64028 0.51279 0.0
C511 C 0.56249 0.65982 0.50699 0.0
C512 C 0.5072 0.68934 0.52151 0.0
C513 C 0.52118 0.76234 0.50045 0.0
C514 C 0.51784 0.73158 0.5026 0.0
C515 C 0.52906 0.65492 0.51289 0.0
C516 C 0.52151 0.67886 0.50865 0.0
H517 H 0.52067 0.80765 0.46886 0.0
H518 H 0.50826 0.75423 0.47246 0.0
H519 H 0.49436 0.7227 0.5288 0.0
H520 H 0.49673 0.59036 0.53911 0.0
H521 H 0.47865 0.62396 0.52865 0.0
C522 C 0.67579 0.50536 0.85228 0.0
C523 C 0.67427 0.52243 0.83868 0.0
C524 C 0.70784 0.50596 0.85482 0.0
C525 C 0.79583 0.52476 0.83233 0.0
H526 H 0.82296 0.52009 0.87946 0.0
C527 C 0.91948 0.51356 0.84522 0.0
C528 C 0.93939 0.52552 0.86148 0.0
C529 C 0.88706 0.51251 0.84214 0.0
C530 C 0.81664 0.52191 0.86613 0.0
H531 H 0.70608 0.55364 0.81704 0.0
H532 H 0.76175 0.55448 0.82126 0.0
H533 H 0.77022 0.52201 0.87486 0.0
H534 H 0.93783 0.54413 0.8875 0.0
H535 H 0.88486 0.54472 0.88185 0.0
H536 H 0.84332 0.52611 0.82364 0.0
C537 C 0.73803 0.54042 0.83004 0.0
C538 C 0.78538 0.52238 0.86345 0.0
C539 C 0.70606 0.54019 0.82767 0.0
C540 C 0.92483 0.53568 0.87455 0.0
C541 C 0.89316 0.53525 0.87139 0.0
C542 C 0.82748 0.52465 0.83502 0.0
C543 C 0.73968 0.52337 0.84372 0.0
C544 C 0.77408 0.52365 0.8465 0.0
C545 C 0.87327 0.52362 0.85514 0.0
C546 C 0.83873 0.52323 0.85201 0.0
H547 H 0.65218 0.49165 0.86119 0.0
H548 H 0.70721 0.49216 0.8654 0.0
H549 H 0.78822 0.52534 0.819 0.0
H550 H 0.92922 0.50548 0.83466 0.0
H551 H 0.87279 0.50273 0.82949 0.0
C552 C 0.15845 0.62835 0.16174 0.0
C553 C 0.15947 0.60176 0.16487 0.0
C554 C 0.19091 0.66099 0.16393 0.0
C555 C 0.28569 0.71422 0.18558 0.0
H556 H 0.30026 0.77813 0.15355 0.0
C557 C 0.39893 0.8554 0.1986 0.0
C558 C 0.42002 0.87415 0.18415 0.0
C559 C 0.36711 0.82226 0.19618 0.0
C560 C 0.2969 0.76064 0.16253 0.0
H561 H 0.19582 0.58891 0.17282 0.0
H562 H 0.25357 0.64652 0.17612 0.0
H563 H 0.24727 0.71991 0.14881 0.0
H564 H 0.4235 0.87306 0.15579 0.0
H565 H 0.36815 0.81519 0.15152 0.0
H566 H 0.33608 0.7551 0.19904 0.0
C567 C 0.22712 0.64178 0.17217 0.0
C568 C 0.26619 0.7272 0.15994 0.0
C569 C 0.19423 0.60877 0.17004 0.0
C570 C 0.40795 0.85924 0.16719 0.0
C571 C 0.37606 0.82611 0.16476 0.0
C572 C 0.31662 0.74776 0.18814 0.0
C573 C 0.22574 0.66828 0.16914 0.0
C574 C 0.25997 0.70355 0.17148 0.0
C575 C 0.35553 0.80706 0.17924 0.0
C576 C 0.32254 0.7714 0.17666 0.0
H577 H 0.13224 0.62409 0.15778 0.0
H578 H 0.18839 0.68059 0.16186 0.0
H579 H 0.28156 0.6968 0.19484 0.0
H580 H 0.40777 0.86599 0.21187 0.0
H581 H 0.35168 0.80852 0.20761 0.0
C582 C 0.56343 0.21014 0.4851 0.0
C583 C 0.52895 0.17915 0.48815 0.0
C584 C 0.56673 0.23918 0.48863 0.0
C585 C 0.51851 0.26858 0.51392 0.0
H586 H 0.5825 0.34682 0.48685 0.0
C587 C 0.55229 0.39253 0.53769 0.0
C588 C 0.557 0.41438 0.52536 0.0
C589 C 0.54799 0.36382 0.53224 0.0
C590 C 0.56404 0.32501 0.49439 0.0
H591 H 0.47061 0.15365 0.49634 0.0
H592 H 0.47551 0.20367 0.50167 0.0
H593 H 0.57693 0.29699 0.47856 0.0
H594 H 0.56006 0.42302 0.49762 0.0
H595 H 0.55118 0.37203 0.48797 0.0
H596 H 0.50411 0.2957 0.52922 0.0
C597 C 0.50063 0.20616 0.49735 0.0
C598 C 0.56135 0.29658 0.48981 0.0
C599 C 0.49763 0.17742 0.49418 0.0
C600 C 0.55661 0.40661 0.5074 0.0
C601 C 0.5518 0.37754 0.5019 0.0
C602 C 0.52067 0.29665 0.51828 0.0
C603 C 0.53536 0.23751 0.49496 0.0
C604 C 0.53862 0.26801 0.49958 0.0
C605 C 0.54774 0.35591 0.51429 0.0
C606 C 0.54381 0.32541 0.50875 0.0
H607 H 0.58792 0.2119 0.48041 0.0
H608 H 0.59402 0.26285 0.48678 0.0
H609 H 0.50127 0.2474 0.52201 0.0
H610 H 0.55332 0.39822 0.55163 0.0
H611 H 0.5459 0.34831 0.54222 0.0
C612 C 0.47382 0.54647 0.84562 0.0
C613 C 0.46889 0.51647 0.84254 0.0
C614 C 0.44222 0.54687 0.84799 0.0
C615 C 0.3366 0.4961 0.83932 0.0
H616 H 0.3415 0.55675 0.87409 0.0
C617 C 0.20239 0.49146 0.85498 0.0
C618 C 0.20761 0.5211 0.86 0.0
C619 C 0.23374 0.49053 0.85305 0.0
C620 C 0.33947 0.53989 0.86408 0.0
H621 H 0.42623 0.46334 0.83925 0.0
H622 H 0.37138 0.46401 0.84289 0.0
H623 H 0.39617 0.55633 0.87006 0.0
H624 H 0.25098 0.57289 0.86746 0.0
H625 H 0.30495 0.57152 0.86383 0.0
H626 H 0.28023 0.47996 0.83309 0.0
C627 C 0.39969 0.48737 0.84366 0.0
C628 C 0.37117 0.53963 0.8618 0.0
C629 C 0.4313 0.48693 0.84167 0.0
C630 C 0.2454 0.54961 0.86327 0.0
C631 C 0.27666 0.54868 0.86141 0.0
C632 C 0.30499 0.49654 0.8415 0.0
C633 C 0.40447 0.51732 0.84697 0.0
C634 C 0.3704 0.51771 0.84938 0.0
C635 C 0.27166 0.51917 0.85618 0.0
C636 C 0.30565 0.51843 0.85394 0.0
H637 H 0.50224 0.56974 0.84648 0.0
H638 H 0.44746 0.57053 0.85036 0.0
H639 H 0.33471 0.47913 0.82942 0.0
H640 H 0.17398 0.46891 0.85227 0.0
H641 H 0.228 0.46705 0.84927 0.0
C642 C 0.9124 0.39748 0.17038 0.0
C643 C 0.94293 0.40274 0.16067 0.0
C644 C 0.87926 0.36535 0.17264 0.0
C645 C 0.82412 0.28009 0.1534 0.0
H646 H 0.78045 0.25441 0.19969 0.0
C647 C 0.71265 0.1437 0.17013 0.0
C648 C 0.68357 0.13556 0.18188 0.0
C649 C 0.74185 0.17672 0.16681 0.0
C650 C 0.79187 0.26131 0.18661 0.0
H651 H 0.96224 0.37826 0.14554 0.0
H652 H 0.90429 0.32232 0.1493 0.0
H653 H 0.83648 0.31127 0.19545 0.0
H654 H 0.66166 0.15561 0.19901 0.0
H655 H 0.71259 0.21357 0.19302 0.0
H656 H 0.77973 0.23029 0.14453 0.0
C657 C 0.90597 0.34307 0.15513 0.0
C658 C 0.82405 0.29388 0.1842 0.0
C659 C 0.93923 0.37515 0.15301 0.0
C660 C 0.68357 0.16115 0.18979 0.0
C661 C 0.71298 0.19433 0.18652 0.0
C662 C 0.79188 0.24763 0.15578 0.0
C663 C 0.87571 0.33777 0.16507 0.0
C664 C 0.84073 0.30354 0.16759 0.0
C665 C 0.74279 0.20252 0.17516 0.0
C666 C 0.77554 0.23771 0.17245 0.0
H667 H 0.91435 0.41814 0.17658 0.0
H668 H 0.85632 0.36208 0.18025 0.0
H669 H 0.83596 0.2869 0.14039 0.0
H670 H 0.71325 0.12447 0.16377 0.0
H671 H 0.76444 0.18203 0.15813 0.0
C672 C 1.02131 0.47614 0.0993 0.0
C673 C 0.04502 0.50574 0.10949 0.0
C674 C 1.02519 0.47579 0.08098 0.0
C675 C 0.09198 0.52467 0.04478 0.0
H676 H 1.00025 0.47486 0.01577 0.0
C677 C 0.09595 0.54416 0.97035 0.0
C678 C 0.07144 0.51644 0.95891 0.0
C679 C 0.0929 0.54147 0.98859 0.0
C680 C 1.02622 0.48857 0.02362 0.0
H681 H 0.09147 0.558 0.10871 0.0
H682 H 0.0988 0.55751 0.07687 0.0
H683 H 0.99524 0.47223 0.04763 0.0
H684 H 1.02439 0.46398 0.95798 0.0
H685 H 1.01901 0.45928 0.98979 0.0
H686 H 0.12297 0.54119 0.0208 0.0
C687 C 0.07733 0.53442 0.08288 0.0
C688 C 1.02334 0.48704 0.04196 0.0
C689 C 0.07313 0.53479 0.10113 0.0
C690 C 0.04353 0.48596 0.96631 0.0
C691 C 0.04045 0.48327 0.98461 0.0
C692 C 0.09486 0.52617 0.02645 0.0
C693 C 0.05307 0.50502 0.07246 0.0
C694 C 0.05617 0.50528 0.05284 0.0
C695 C 0.06517 0.51099 0.99603 0.0
C696 C 0.06202 0.50836 0.01559 0.0
H697 H 0.99908 0.4535 0.10546 0.0
H698 H 1.00621 0.45262 0.07347 0.0
H699 H 0.11795 0.53865 0.05263 0.0
H700 H 0.11723 0.56825 0.96523 0.0
H701 H 0.11195 0.56356 0.99687 0.0
C702 C 0.57718 0.03604 0.42591 0.0
C703 C 0.54761 0.00786 0.43431 0.0
C704 C 0.5741 0.03926 0.4081 0.0
C705 C 0.50711 0.00172 0.36937 0.0
H706 H 0.60122 0.0394 0.34418 0.0
C707 C 0.51621 0.98208 0.29447 0.0
C708 C 0.54638 0.00923 0.28548 0.0
C709 C 0.51337 0.98447 0.31267 0.0
C710 C 0.5748 0.02926 0.35102 0.0
H711 H 0.49111 0.96139 0.43116 0.0
H712 H 0.48643 0.96588 0.39969 0.0
H713 H 0.60172 0.03881 0.37588 0.0
H714 H 0.59643 0.06052 0.28849 0.0
H715 H 0.59117 0.06477 0.32018 0.0
H716 H 0.48014 0.9909 0.34412 0.0
C717 C 0.51155 0.98612 0.40687 0.0
C718 C 0.57505 0.02902 0.36927 0.0
C719 C 0.51426 0.98337 0.42485 0.0
C720 C 0.57272 0.03921 0.29498 0.0
C721 C 0.56992 0.04157 0.31316 0.0
C722 C 0.50682 0.00163 0.35101 0.0
C723 C 0.54185 0.01382 0.39818 0.0
C724 C 0.54125 0.01522 0.37873 0.0
C725 C 0.54072 0.01402 0.32223 0.0
C726 C 0.5407 0.01537 0.34168 0.0
H727 H 0.60287 0.05551 0.4331 0.0
H728 H 0.59745 0.06146 0.40204 0.0
H729 H 0.48061 0.99122 0.37619 0.0
H730 H 0.49515 0.95878 0.28748 0.0
H731 H 0.49068 0.96278 0.31932 0.0
C732 C 0.58972 0.52841 0.77771 0.0
C733 C 0.55438 0.50521 0.78539 0.0
C734 C 0.59177 0.53376 0.75973 0.0
C735 C 0.53771 0.49187 0.71836 0.0
H736 H 0.60626 0.57897 0.69952 0.0
C737 C 0.54029 0.51282 0.64432 0.0
C738 C 0.5767 0.53282 0.63696 0.0
C739 C 0.53622 0.51103 0.66256 0.0
C740 C 0.58711 0.55446 0.70459 0.0
H741 H 0.49344 0.47044 0.78052 0.0
H742 H 0.49695 0.47994 0.74936 0.0
H743 H 0.60253 0.57328 0.73128 0.0
H744 H 0.6372 0.56755 0.64286 0.0
H745 H 0.63016 0.56435 0.6746 0.0
H746 H 0.52253 0.47297 0.69173 0.0
C747 C 0.52316 0.49352 0.75703 0.0
C748 C 0.58506 0.55121 0.72278 0.0
C749 C 0.52114 0.48819 0.77492 0.0
C750 C 0.60881 0.55162 0.64817 0.0
C751 C 0.60475 0.55006 0.66636 0.0
C752 C 0.53973 0.49512 0.70021 0.0
C753 C 0.5585 0.51598 0.74914 0.0
C754 C 0.56045 0.51984 0.72986 0.0
C755 C 0.56847 0.5295 0.67378 0.0
C756 C 0.56464 0.52641 0.69311 0.0
H757 H 0.61576 0.54199 0.78553 0.0
H758 H 0.61947 0.55113 0.75403 0.0
H759 H 0.51891 0.46727 0.72336 0.0
H760 H 0.51507 0.49802 0.63597 0.0
H761 H 0.50785 0.49515 0.6679 0.0
C762 C 0.55887 0.03018 0.54521 0.0
C763 C 0.52888 0.00229 0.53553 0.0
C764 C 0.56184 0.02894 0.56335 0.0
C765 C 0.53091 0.97121 0.59916 0.0
H766 H 0.55007 0.04452 0.62849 0.0
C767 C 0.56076 0.98407 0.67385 0.0
C768 C 0.54862 -0.00091 0.68471 0.0
C769 C 0.55658 0.98245 0.65561 0.0
C770 C 0.54424 0.02362 0.62054 0.0
H771 H 0.47955 0.95102 0.53671 0.0
H772 H 0.48532 0.94838 0.56832 0.0
H773 H 0.54792 0.04604 0.59672 0.0
H774 H 0.52065 0.0225 0.68516 0.0
H775 H 0.5122 0.01879 0.65336 0.0
H776 H 0.52625 0.94835 0.62296 0.0
C777 C 0.50625 0.97133 0.56206 0.0
C778 C 0.54364 0.02478 0.60229 0.0
C779 C 0.5028 0.97283 0.54402 0.0
C780 C 0.53071 0.01117 0.67705 0.0
C781 C 0.52612 0.00923 0.65883 0.0
C782 C 0.53143 0.97 0.61743 0.0
C783 C 0.53534 -0.00045 0.572 0.0
C784 C 0.53701 -0.00139 0.59139 0.0
C785 C 0.5398 -0.00447 0.64784 0.0
C786 C 0.53811 -0.00379 0.62837 0.0
H787 H 0.57911 0.05322 0.53887 0.0
H788 H 0.58473 0.05102 0.57062 0.0
H789 H 0.52596 0.95074 0.59111 0.0
H790 H 0.57505 0.97488 0.67939 0.0
H791 H 0.56788 0.97209 0.64762 0.0
C792 C 0.61338 0.53185 0.89493 0.0
C793 C 0.58513 0.53078 0.88596 0.0
C794 C 0.60956 0.52576 0.91275 0.0
C795 C 0.57124 0.53533 0.95211 0.0
H796 H 0.56925 0.46405 0.97009 0.0
C797 C 0.51134 0.47912 0.01881 0.0
C798 C 0.52673 0.46556 0.02725 0.0
C799 C 0.52606 0.4941 0.00287 0.0
C800 C 0.57075 0.48461 0.96534 0.0
H801 H 0.53071 0.52222 0.88801 0.0
H802 H 0.52479 0.51292 0.91955 0.0
H803 H 0.57792 0.47384 0.93878 0.0
H804 H 0.57233 0.46063 0.02709 0.0
H805 H 0.59822 0.48697 -0.0008 0.0
H806 H 0.56385 0.54607 0.97861 0.0
C807 C 0.54951 0.51806 0.91275 0.0
C808 C 0.57534 0.48993 0.94745 0.0
C809 C 0.5528 0.5232 0.89482 0.0
C810 C 0.55924 0.46996 0.02044 0.0
C811 C 0.57409 0.48509 0.00458 0.0
C812 C 0.56705 0.53026 0.97005 0.0
C813 C 0.57801 0.51953 0.9218 0.0
C814 C 0.57501 0.51496 0.94073 0.0
C815 C 0.55648 0.49585 0.99526 0.0
C816 C 0.56615 0.5045 0.97678 0.0
H817 H 0.63823 0.53724 0.88814 0.0
H818 H 0.63162 0.52672 0.91957 0.0
H819 H 0.57136 0.55502 0.94707 0.0
H820 H 0.4865 0.47629 0.02395 0.0
H821 H 0.5119 0.50217 0.99596 0.0
C822 C 0.05618 0.52205 0.22264 0.0
C823 C 0.04228 0.49142 0.21411 0.0
C824 C 0.05446 0.5247 0.24102 0.0
C825 C 0.04901 0.48214 0.28042 0.0
H826 H 1.01995 0.53215 0.30517 0.0
C827 C 1.01773 0.46891 0.35411 0.0
C828 C 0.03497 0.49832 0.36452 0.0
C829 C 1.01756 0.46951 0.33581 0.0
C830 C 1.02842 0.51831 0.29842 0.0
H831 H 1.01426 0.4394 0.21811 0.0
H832 H 1.01121 0.44396 0.24981 0.0
H833 H 1.02224 0.53125 0.27298 0.0
H834 H 0.06403 0.55121 0.36399 0.0
H835 H 0.06333 0.55223 0.33189 0.0
H836 H 0.05504 0.46902 0.30567 0.0
C837 C 1.02403 0.4661 0.24248 0.0
C838 C 1.02981 0.51786 0.28 0.0
C839 C 1.02557 0.46344 0.22425 0.0
C840 C 0.05076 0.5282 0.35625 0.0
C841 C 0.05016 0.52874 0.33791 0.0
C842 C 0.04751 0.48252 0.29872 0.0
C843 C 0.03908 0.49681 0.25118 0.0
C844 C 0.0396 0.49934 0.27077 0.0
C845 C 0.03429 0.49949 0.32746 0.0
C846 C 0.03673 0.50022 0.30796 0.0
H847 H 0.06918 0.54404 0.21517 0.0
H848 H 0.0663 0.54873 0.24731 0.0
H849 H 0.05762 0.46831 0.2738 0.0
H850 H 1.00557 0.44556 0.36011 0.0
H851 H 1.00469 0.44648 0.32815 0.0
loop_
_geom_bond_atom_site_label_1
_geom_bond_atom_site_label_2
_geom_bond_distance
_geom_bond_site_symmetry_2
_ccdc_geom_bond_type
Sm0 C2 2.846 . S
Sm0 O20 2.543 . S
Sm0 O21 2.450 . S
Sm0 O22 2.681 . S
Sm0 O23 2.464 . S
Sm0 O24 2.396 . S
Sm0 O28 2.386 . S
Sm0 O31 2.408 1_455 S
Sm1 C11 2.846 . S
Sm1 O22 2.386 1_655 S
Sm1 O25 2.408 1_655 S
Sm1 O26 2.543 . S
Sm1 O27 2.450 . S
Sm1 O28 2.681 1_655 S
Sm1 O29 2.464 1_655 S
Sm1 O30 2.396 . S
C2 Sm0 2.846 . S
C2 C3 1.506 . S
C2 O20 1.261 . S
C2 O21 1.242 . S
C3 C2 1.506 . S
C3 C4 1.358 . S
C3 C8 1.382 . S
C4 C3 1.358 . S
C4 C5 1.385 . S
C4 H32 0.930 . S
C5 C4 1.385 . S
C5 C6 1.395 . S
C5 H33 0.929 . S
C6 C5 1.395 . S
C6 C7 1.335 . S
C7 C6 1.335 . S
C7 C8 1.398 . S
C7 H34 0.930 . S
C8 C3 1.382 . S
C8 C7 1.398 . S
C8 H35 0.929 . S
C9 O22 1.271 . S
C9 O23 1.251 . S
C10 O24 1.252 . S
C10 O25 1.272 . S
C11 Sm1 2.846 . S
C11 C12 1.506 . S
C11 O26 1.261 . S
C11 O27 1.242 . S
C12 C11 1.506 . S
C12 C13 1.358 . S
C12 C17 1.382 . S
C13 C12 1.358 . S
C13 C14 1.385 . S
C13 H36 0.930 . S
C14 C13 1.385 . S
C14 C15 1.395 . S
C14 H37 0.929 . S
C15 C14 1.395 . S
C15 C16 1.335 . S
C16 C15 1.335 . S
C16 C17 1.398 . S
C16 H38 0.930 . S
C17 C12 1.382 . S
C17 C16 1.398 . S
C17 H39 0.929 . S
C18 O28 1.271 . S
C18 O29 1.251 . S
C19 O30 1.252 . S
C19 O31 1.272 . S
O20 Sm0 2.543 . S
O20 C2 1.261 . S
O21 Sm0 2.450 . S
O21 C2 1.242 . S
O22 Sm0 2.681 . S
O22 Sm1 2.386 1_455 S
O22 C9 1.271 . S
O23 Sm0 2.464 . S
O23 C9 1.251 . S
O24 Sm0 2.396 . S
O24 C10 1.252 . S
O25 Sm1 2.408 1_455 S
O25 C10 1.272 . S
O26 Sm1 2.543 . S
O26 C11 1.261 . S
O27 Sm1 2.450 . S
O27 C11 1.242 . S
O28 Sm0 2.386 . S
O28 Sm1 2.681 1_455 S
O28 C18 1.271 . S
O29 Sm1 2.464 1_455 S
O29 C18 1.251 . S
O30 Sm1 2.396 . S
O30 C19 1.252 . S
O31 Sm0 2.408 1_655 S
O31 C19 1.272 . S
H32 C4 0.930 . S
H33 C5 0.929 . S
H34 C7 0.930 . S
H35 C8 0.929 . S
H36 C13 0.930 . S
H37 C14 0.929 . S
H38 C16 0.930 . S
H39 C17 0.929 . S
Sm40 C42 2.846 . S
Sm40 O60 2.543 . S
Sm40 O61 2.450 . S
Sm40 O62 2.681 1_565 S
Sm40 O63 2.464 . S
Sm40 O64 2.396 . S
Sm40 O68 2.386 1_565 S
Sm40 O71 2.408 1_565 S
Sm41 C51 2.846 . S
Sm41 O62 2.386 . S
Sm41 O65 2.408 1_545 S
Sm41 O66 2.543 . S
Sm41 O67 2.450 . S
Sm41 O68 2.681 . S
Sm41 O69 2.464 . S
Sm41 O70 2.396 . S
C42 Sm40 2.846 . S
C42 C43 1.506 . S
C42 O60 1.261 . S
C42 O61 1.242 . S
C43 C42 1.506 . S
C43 C44 1.358 . S
C43 C48 1.382 . S
C44 C43 1.358 . S
C44 C45 1.385 . S
C44 H72 0.930 . S
C45 C44 1.385 . S
C45 C46 1.395 . S
C45 H73 0.929 . S
C46 C45 1.395 . S
C46 C47 1.335 . S
C47 C46 1.335 . S
C47 C48 1.398 . S
C47 H74 0.930 . S
C48 C43 1.382 . S
C48 C47 1.398 . S
C48 H75 0.929 . S
C49 O62 1.271 . S
C49 O63 1.251 1_545 S
C50 O64 1.252 . S
C50 O65 1.272 . S
C51 Sm41 2.846 . S
C51 C52 1.506 . S
C51 O66 1.261 . S
C51 O67 1.242 . S
C52 C51 1.506 . S
C52 C53 1.358 . S
C52 C57 1.382 . S
C53 C52 1.358 . S
C53 C54 1.385 . S
C53 H76 0.930 . S
C54 C53 1.385 . S
C54 C55 1.395 . S
C54 H77 0.929 . S
C55 C54 1.395 . S
C55 C56 1.335 . S
C56 C55 1.335 . S
C56 C57 1.398 . S
C56 H78 0.930 . S
C57 C52 1.382 . S
C57 C56 1.398 . S
C57 H79 0.929 . S
C58 O68 1.271 . S
C58 O69 1.251 . S
C59 O70 1.252 . S
C59 O71 1.272 . S
O60 Sm40 2.543 . S
O60 C42 1.261 . S
O61 Sm40 2.450 . S
O61 C42 1.242 . S
O62 Sm40 2.681 1_545 S
O62 Sm41 2.386 . S
O62 C49 1.271 . S
O63 Sm40 2.464 . S
O63 C49 1.251 1_565 S
O64 Sm40 2.396 . S
O64 C50 1.252 . S
O65 Sm41 2.408 1_565 S
O65 C50 1.272 . S
O66 Sm41 2.543 . S
O66 C51 1.261 . S
O67 Sm41 2.450 . S
O67 C51 1.242 . S
O68 Sm40 2.386 1_545 S
O68 Sm41 2.681 . S
O68 C58 1.271 . S
O69 Sm41 2.464 . S
O69 C58 1.251 . S
O70 Sm41 2.396 . S
O70 C59 1.252 . S
O71 Sm40 2.408 1_545 S
O71 C59 1.272 . S
H72 C44 0.930 . S
H73 C45 0.929 . S
H74 C47 0.930 . S
H75 C48 0.929 . S
H76 C53 0.930 . S
H77 C54 0.929 . S
H78 C56 0.930 . S
H79 C57 0.929 . S
Sm80 C82 2.846 . S
Sm80 O100 2.543 . S
Sm80 O101 2.450 . S
Sm80 O102 2.681 . S
Sm80 O103 2.464 . S
Sm80 O104 2.396 . S
Sm80 O108 2.386 . S
Sm80 O111 2.408 . S
Sm81 C91 2.846 . S
Sm81 O102 2.386 . S
Sm81 O105 2.408 . S
Sm81 O106 2.543 . S
Sm81 O107 2.450 . S
Sm81 O108 2.681 . S
Sm81 O109 2.464 . S
Sm81 O110 2.396 . S
C82 Sm80 2.846 . S
C82 C83 1.506 . S
C82 O100 1.261 . S
C82 O101 1.242 . S
C83 C82 1.506 . S
C83 C84 1.358 . S
C83 C88 1.382 . S
C84 C83 1.358 . S
C84 C85 1.385 . S
C84 H112 0.930 . S
C85 C84 1.385 . S
C85 C86 1.395 . S
C85 H113 0.929 . S
C86 C85 1.395 . S
C86 C87 1.335 . S
C87 C86 1.335 . S
C87 C88 1.398 . S
C87 H114 0.930 . S
C88 C83 1.382 . S
C88 C87 1.398 . S
C88 H115 0.929 . S
C89 O102 1.271 . S
C89 O103 1.251 . S
C90 O104 1.252 . S
C90 O105 1.272 . S
C91 Sm81 2.846 . S
C91 C92 1.506 . S
C91 O106 1.261 . S
C91 O107 1.242 . S
C92 C91 1.506 . S
C92 C93 1.358 . S
C92 C97 1.382 . S
C93 C92 1.358 . S
C93 C94 1.385 . S
C93 H116 0.930 . S
C94 C93 1.385 . S
C94 C95 1.395 . S
C94 H117 0.929 . S
C95 C94 1.395 . S
C95 C96 1.335 . S
C96 C95 1.335 . S
C96 C97 1.398 . S
C96 H118 0.930 . S
C97 C92 1.382 . S
C97 C96 1.398 . S
C97 H119 0.929 . S
C98 O108 1.271 . S
C98 O109 1.251 . S
C99 O110 1.252 . S
C99 O111 1.272 . S
O100 Sm80 2.543 . S
O100 C82 1.261 . S
O101 Sm80 2.450 . S
O101 C82 1.242 . S
O102 Sm80 2.681 . S
O102 Sm81 2.386 . S
O102 C89 1.271 . S
O103 Sm80 2.464 . S
O103 C89 1.251 . S
O104 Sm80 2.396 . S
O104 C90 1.252 . S
O105 Sm81 2.408 . S
O105 C90 1.272 . S
O106 Sm81 2.543 . S
O106 C91 1.261 . S
O107 Sm81 2.450 . S
O107 C91 1.242 . S
O108 Sm80 2.386 . S
O108 Sm81 2.681 . S
O108 C98 1.271 . S
O109 Sm81 2.464 . S
O109 C98 1.251 . S
O110 Sm81 2.396 . S
O110 C99 1.252 . S
O111 Sm80 2.408 . S
O111 C99 1.272 . S
H112 C84 0.930 . S
H113 C85 0.929 . S
H114 C87 0.930 . S
H115 C88 0.929 . S
H116 C93 0.930 . S
H117 C94 0.929 . S
H118 C96 0.930 . S
H119 C97 0.929 . S
P120 O131 1.469 1_545 S
P120 C134 1.810 1_545 S
P120 C140 1.821 . S
P120 C146 1.827 . S
H121 C135 0.941 . S
H122 C136 0.939 . S
H123 C138 0.940 . S
H124 C139 0.940 . S
H125 C141 0.939 . S
H126 C142 0.942 . S
H127 C144 0.940 . S
H128 C145 0.939 . S
H129 C147 0.941 . S
H130 C151 0.939 . S
O131 P120 1.469 1_565 S
H132 C148 0.939 . S
H133 C150 0.940 . S
C134 P120 1.810 1_565 S
C134 C135 1.389 . S
C134 C139 1.391 . S
C135 H121 0.941 . S
C135 C134 1.389 . S
C135 C136 1.397 . S
C136 H122 0.939 . S
C136 C135 1.397 . S
C136 C137 1.378 . S
C137 C136 1.378 . S
C137 C138 1.378 . S
C138 H123 0.940 . S
C138 C137 1.378 . S
C138 C139 1.396 . S
C139 H124 0.940 . S
C139 C134 1.391 . S
C139 C138 1.396 . S
C140 P120 1.821 . S
C140 C141 1.378 . S
C140 C145 1.400 . S
C141 H125 0.939 . S
C141 C140 1.378 . S
C141 C142 1.361 . S
C142 H126 0.942 . S
C142 C141 1.361 . S
C142 C143 1.369 . S
C143 C142 1.369 . S
C143 C144 1.404 . S
C144 H127 0.940 . S
C144 C143 1.404 . S
C144 C145 1.389 . S
C145 H128 0.939 . S
C145 C140 1.400 . S
C145 C144 1.389 . S
C146 P120 1.827 . S
C146 C147 1.391 1_545 S
C146 C151 1.391 . S
C147 H129 0.941 . S
C147 C146 1.391 1_565 S
C147 C148 1.396 . S
C148 H132 0.939 . S
C148 C147 1.396 . S
C148 C149 1.397 1_565 S
C149 C148 1.397 1_545 S
C149 C150 1.385 . S
C150 H133 0.940 . S
C150 C149 1.385 . S
C150 C151 1.388 . S
C151 H130 0.939 . S
C151 C146 1.391 . S
C151 C150 1.388 . S
P152 O163 1.490 . S
P152 C166 1.812 . S
P152 C172 1.803 . S
P152 C178 1.819 . S
H153 C167 0.941 . S
H154 C168 0.939 . S
H155 C170 0.940 . S
H156 C171 0.940 . S
H157 C173 0.939 . S
H158 C174 0.942 . S
H159 C176 0.940 . S
H160 C177 0.939 . S
H161 C179 0.941 . S
H162 C183 0.939 . S
O163 P152 1.490 . S
H164 C180 0.939 . S
H165 C182 0.940 . S
C166 P152 1.812 . S
C166 C167 1.389 . S
C166 C171 1.391 . S
C167 H153 0.941 . S
C167 C166 1.389 . S
C167 C168 1.397 . S
C168 H154 0.939 . S
C168 C167 1.397 . S
C168 C169 1.378 . S
C169 C168 1.378 . S
C169 C170 1.378 . S
C170 H155 0.940 . S
C170 C169 1.378 . S
C170 C171 1.396 . S
C171 H156 0.940 . S
C171 C166 1.391 . S
C171 C170 1.396 . S
C172 P152 1.803 . S
C172 C173 1.378 . S
C172 C177 1.400 . S
C173 H157 0.939 . S
C173 C172 1.378 . S
C173 C174 1.361 . S
C174 H158 0.942 . S
C174 C173 1.361 . S
C174 C175 1.369 . S
C175 C174 1.369 . S
C175 C176 1.404 . S
C176 H159 0.940 . S
C176 C175 1.404 . S
C176 C177 1.389 . S
C177 H160 0.939 . S
C177 C172 1.400 . S
C177 C176 1.389 . S
C178 P152 1.819 . S
C178 C179 1.391 . S
C178 C183 1.391 . S
C179 H161 0.941 . S
C179 C178 1.391 . S
C179 C180 1.396 . S
C180 H164 0.939 . S
C180 C179 1.396 . S
C180 C181 1.397 . S
C181 C180 1.397 . S
C181 C182 1.385 . S
C182 H165 0.940 . S
C182 C181 1.385 . S
C182 C183 1.388 . S
C183 H162 0.939 . S
C183 C178 1.391 . S
C183 C182 1.388 . S
P184 O195 1.490 . S
P184 C198 1.812 . S
P184 C204 1.803 . S
P184 C210 1.819 . S
H185 C199 0.941 . S
H186 C200 0.939 . S
H187 C202 0.940 . S
H188 C203 0.940 . S
H189 C205 0.939 . S
H190 C206 0.942 . S
H191 C208 0.940 . S
H192 C209 0.939 . S
H193 C211 0.941 . S
H194 C215 0.939 . S
O195 P184 1.490 . S
H196 C212 0.939 . S
H197 C214 0.940 1_655 S
C198 P184 1.812 . S
C198 C199 1.389 . S
C198 C203 1.391 . S
C199 H185 0.941 . S
C199 C198 1.389 . S
C199 C200 1.397 . S
C200 H186 0.939 . S
C200 C199 1.397 . S
C200 C201 1.378 . S
C201 C200 1.378 . S
C201 C202 1.378 . S
C202 H187 0.940 . S
C202 C201 1.378 . S
C202 C203 1.396 . S
C203 H188 0.940 . S
C203 C198 1.391 . S
C203 C202 1.396 . S
C204 P184 1.803 . S
C204 C205 1.378 . S
C204 C209 1.400 . S
C205 H189 0.939 . S
C205 C204 1.378 . S
C205 C206 1.361 1_455 S
C206 H190 0.942 . S
C206 C205 1.361 1_655 S
C206 C207 1.369 . S
C207 C206 1.369 . S
C207 C208 1.404 . S
C208 H191 0.940 . S
C208 C207 1.404 . S
C208 C209 1.389 1_655 S
C209 H192 0.939 . S
C209 C204 1.400 . S
C209 C208 1.389 1_455 S
C210 P184 1.819 . S
C210 C211 1.391 . S
C210 C215 1.391 . S
C211 H193 0.941 . S
C211 C210 1.391 . S
C211 C212 1.396 . S
C212 H196 0.939 . S
C212 C211 1.396 . S
C212 C213 1.397 . S
C213 C212 1.397 . S
C213 C214 1.385 . S
C214 H197 0.940 1_455 S
C214 C213 1.385 . S
C214 C215 1.388 . S
C215 H194 0.939 . S
C215 C210 1.391 . S
C215 C214 1.388 . S
P216 O227 1.490 . S
P216 C230 1.812 . S
P216 C236 1.803 1_455 S
P216 C242 1.819 . S
H217 C231 0.941 . S
H218 C232 0.939 . S
H219 C234 0.940 . S
H220 C235 0.940 . S
H221 C237 0.939 . S
H222 C238 0.942 . S
H223 C240 0.940 . S
H224 C241 0.939 . S
H225 C243 0.941 . S
H226 C247 0.939 . S
O227 P216 1.490 . S
H228 C244 0.939 . S
H229 C246 0.940 . S
C230 P216 1.812 . S
C230 C231 1.389 . S
C230 C235 1.391 . S
C231 H217 0.941 . S
C231 C230 1.389 . S
C231 C232 1.397 . S
C232 H218 0.939 . S
C232 C231 1.397 . S
C232 C233 1.378 . S
C233 C232 1.378 . S
C233 C234 1.378 . S
C234 H219 0.940 . S
C234 C233 1.378 . S
C234 C235 1.396 . S
C235 H220 0.940 . S
C235 C230 1.391 . S
C235 C234 1.396 . S
C236 P216 1.803 1_655 S
C236 C237 1.378 . S
C236 C241 1.400 . S
C237 H221 0.939 . S
C237 C236 1.378 . S
C237 C238 1.361 . S
C238 H222 0.942 . S
C238 C237 1.361 . S
C238 C239 1.369 . S
C239 C238 1.369 . S
C239 C240 1.404 . S
C240 H223 0.940 . S
C240 C239 1.404 . S
C240 C241 1.389 . S
C241 H224 0.939 . S
C241 C236 1.400 . S
C241 C240 1.389 . S
C242 P216 1.819 . S
C242 C243 1.391 . S
C242 C247 1.391 1_455 S
C243 H225 0.941 . S
C243 C242 1.391 . S
C243 C244 1.396 . S
C244 H228 0.939 . S
C244 C243 1.396 . S
C244 C245 1.397 . S
C245 C244 1.397 . S
C245 C246 1.385 1_455 S
C246 H229 0.940 . S
C246 C245 1.385 1_655 S
C246 C247 1.388 . S
C247 H226 0.939 . S
C247 C242 1.391 1_655 S
C247 C246 1.388 . S
P248 O259 1.490 . S
P248 C262 1.812 . S
P248 C268 1.803 1_545 S
P248 C274 1.819 . S
H249 C263 0.941 . S
H250 C264 0.939 . S
H251 C266 0.940 . S
H252 C267 0.940 . S
H253 C269 0.939 . S
H254 C270 0.942 . S
H255 C272 0.940 . S
H256 C273 0.939 . S
H257 C275 0.941 . S
H258 C279 0.939 . S
O259 P248 1.490 . S
H260 C276 0.939 . S
H261 C278 0.940 . S
C262 P248 1.812 . S
C262 C263 1.389 . S
C262 C267 1.391 . S
C263 H249 0.941 . S
C263 C262 1.389 . S
C263 C264 1.397 . S
C264 H250 0.939 . S
C264 C263 1.397 . S
C264 C265 1.378 . S
C265 C264 1.378 . S
C265 C266 1.378 . S
C266 H251 0.940 . S
C266 C265 1.378 . S
C266 C267 1.396 . S
C267 H252 0.940 . S
C267 C262 1.391 . S
C267 C266 1.396 . S
C268 P248 1.803 1_565 S
C268 C269 1.378 . S
C268 C273 1.400 . S
C269 H253 0.939 . S
C269 C268 1.378 . S
C269 C270 1.361 . S
C270 H254 0.942 . S
C270 C269 1.361 . S
C270 C271 1.369 . S
C271 C270 1.369 . S
C271 C272 1.404 . S
C272 H255 0.940 . S
C272 C271 1.404 . S
C272 C273 1.389 . S
C273 H256 0.939 . S
C273 C268 1.400 . S
C273 C272 1.389 . S
C274 P248 1.819 . S
C274 C275 1.391 . S
C274 C279 1.391 1_545 S
C275 H257 0.941 . S
C275 C274 1.391 . S
C275 C276 1.396 . S
C276 H260 0.939 . S
C276 C275 1.396 . S
C276 C277 1.397 . S
C277 C276 1.397 . S
C277 C278 1.385 1_545 S
C278 H261 0.940 . S
C278 C277 1.385 1_565 S
C278 C279 1.388 . S
C279 H258 0.939 . S
C279 C274 1.391 1_565 S
C279 C278 1.388 . S
P280 O291 1.490 . S
P280 C294 1.812 . S
P280 C300 1.803 . S
P280 C306 1.819 . S
H281 C295 0.941 . S
H282 C296 0.939 . S
H283 C298 0.940 . S
H284 C299 0.940 . S
H285 C301 0.939 . S
H286 C302 0.942 . S
H287 C304 0.940 . S
H288 C305 0.939 . S
H289 C307 0.941 . S
H290 C311 0.939 . S
O291 P280 1.490 . S
H292 C308 0.939 . S
H293 C310 0.940 . S
C294 P280 1.812 . S
C294 C295 1.389 . S
C294 C299 1.391 . S
C295 H281 0.941 . S
C295 C294 1.389 . S
C295 C296 1.397 . S
C296 H282 0.939 . S
C296 C295 1.397 . S
C296 C297 1.378 . S
C297 C296 1.378 . S
C297 C298 1.378 . S
C298 H283 0.940 . S
C298 C297 1.378 . S
C298 C299 1.396 . S
C299 H284 0.940 . S
C299 C294 1.391 . S
C299 C298 1.396 . S
C300 P280 1.803 . S
C300 C301 1.378 . S
C300 C305 1.400 . S
C301 H285 0.939 . S
C301 C300 1.378 . S
C301 C302 1.361 . S
C302 H286 0.942 . S
C302 C301 1.361 . S
C302 C303 1.369 . S
C303 C302 1.369 . S
C303 C304 1.404 . S
C304 H287 0.940 . S
C304 C303 1.404 . S
C304 C305 1.389 . S
C305 H288 0.939 . S
C305 C300 1.400 . S
C305 C304 1.389 . S
C306 P280 1.819 . S
C306 C307 1.391 . S
C306 C311 1.391 . S
C307 H289 0.941 . S
C307 C306 1.391 . S
C307 C308 1.396 . S
C308 H292 0.939 . S
C308 C307 1.396 . S
C308 C309 1.397 . S
C309 C308 1.397 . S
C309 C310 1.385 . S
C310 H293 0.940 . S
C310 C309 1.385 . S
C310 C311 1.388 . S
C311 H290 0.939 . S
C311 C306 1.391 . S
C311 C310 1.388 . S
C312 C313 1.349 . S
C312 C314 1.327 . S
C312 H337 0.950 . S
C313 C312 1.349 . S
C313 C329 1.349 . S
C314 C312 1.327 . S
C314 C333 1.429 . S
C314 H338 0.950 . S
C315 C332 1.574 . S
C315 C334 1.368 . S
C315 H339 0.949 . S
H316 C320 0.949 . S
C317 C318 1.349 . S
C317 C319 1.327 . S
C317 H340 0.950 . S
C318 C317 1.349 . S
C318 C330 1.349 . S
C319 C317 1.327 . S
C319 C335 1.429 . S
C319 H341 0.950 . S
C320 H316 0.949 . S
C320 C328 1.574 . S
C320 C336 1.368 . S
H321 C329 0.950 . S
H322 C327 0.950 . S
H323 C328 0.949 . S
H324 C330 0.950 . S
H325 C331 0.950 . S
H326 C332 0.949 . S
C327 H322 0.950 . S
C327 C329 1.327 . S
C327 C333 1.429 . S
C328 C320 1.574 . S
C328 H323 0.949 . S
C328 C334 1.368 . S
C329 C313 1.349 . S
C329 H321 0.950 . S
C329 C327 1.327 . S
C330 C318 1.349 . S
C330 H324 0.950 . S
C330 C331 1.327 . S
C331 H325 0.950 . S
C331 C330 1.327 . S
C331 C335 1.429 . S
C332 C315 1.574 . S
C332 H326 0.949 . S
C332 C336 1.368 . S
C333 C314 1.429 . S
C333 C327 1.429 . S
C333 C334 1.523 . S
C334 C315 1.368 . S
C334 C328 1.368 . S
C334 C333 1.523 . S
C335 C319 1.429 . S
C335 C331 1.429 . S
C335 C336 1.523 . S
C336 C320 1.368 . S
C336 C332 1.368 . S
C336 C335 1.523 . S
H337 C312 0.950 . S
H338 C314 0.950 . S
H339 C315 0.949 . S
H340 C317 0.950 . S
H341 C319 0.950 . S
C342 C343 1.349 . S
C342 C344 1.327 . S
C342 H367 0.950 . S
C343 C342 1.349 . S
C343 C359 1.349 . S
C344 C342 1.327 . S
C344 C363 1.429 . S
C344 H368 0.950 . S
C345 C362 1.574 . S
C345 C364 1.368 . S
C345 H369 0.949 . S
H346 C350 0.949 . S
C347 C348 1.349 . S
C347 C349 1.327 . S
C347 H370 0.950 . S
C348 C347 1.349 . S
C348 C360 1.349 . S
C349 C347 1.327 . S
C349 C365 1.429 . S
C349 H371 0.950 . S
C350 H346 0.949 . S
C350 C358 1.574 . S
C350 C366 1.368 . S
H351 C359 0.950 . S
H352 C357 0.950 . S
H353 C358 0.949 . S
H354 C360 0.950 . S
H355 C361 0.950 . S
H356 C362 0.949 . S
C357 H352 0.950 . S
C357 C359 1.327 . S
C357 C363 1.429 . S
C358 C350 1.574 . S
C358 H353 0.949 . S
C358 C364 1.368 . S
C359 C343 1.349 . S
C359 H351 0.950 . S
C359 C357 1.327 . S
C360 C348 1.349 . S
C360 H354 0.950 . S
C360 C361 1.327 . S
C361 H355 0.950 . S
C361 C360 1.327 . S
C361 C365 1.429 . S
C362 C345 1.574 . S
C362 H356 0.949 . S
C362 C366 1.368 . S
C363 C344 1.429 . S
C363 C357 1.429 . S
C363 C364 1.523 . S
C364 C345 1.368 . S
C364 C358 1.368 . S
C364 C363 1.523 . S
C365 C349 1.429 . S
C365 C361 1.429 . S
C365 C366 1.523 . S
C366 C350 1.368 . S
C366 C362 1.368 . S
C366 C365 1.523 . S
H367 C342 0.950 . S
H368 C344 0.950 . S
H369 C345 0.949 . S
H370 C347 0.950 . S
H371 C349 0.950 . S
C372 C373 1.349 . S
C372 C374 1.327 . S
C372 H397 0.950 . S
C373 C372 1.349 . S
C373 C389 1.349 . S
C374 C372 1.327 . S
C374 C393 1.429 . S
C374 H398 0.950 . S
C375 C392 1.574 . S
C375 C394 1.368 . S
C375 H399 0.949 . S
H376 C380 0.949 . S
C377 C378 1.349 . S
C377 C379 1.327 . S
C377 H400 0.950 . S
C378 C377 1.349 . S
C378 C390 1.349 . S
C379 C377 1.327 . S
C379 C395 1.429 . S
C379 H401 0.950 . S
C380 H376 0.949 . S
C380 C388 1.574 . S
C380 C396 1.368 . S
H381 C389 0.950 . S
H382 C387 0.950 . S
H383 C388 0.949 . S
H384 C390 0.950 . S
H385 C391 0.950 . S
H386 C392 0.949 . S
C387 H382 0.950 . S
C387 C389 1.327 . S
C387 C393 1.429 . S
C388 C380 1.574 . S
C388 H383 0.949 . S
C388 C394 1.368 . S
C389 C373 1.349 . S
C389 H381 0.950 . S
C389 C387 1.327 . S
C390 C378 1.349 . S
C390 H384 0.950 . S
C390 C391 1.327 . S
C391 H385 0.950 . S
C391 C390 1.327 . S
C391 C395 1.429 . S
C392 C375 1.574 . S
C392 H386 0.949 . S
C392 C396 1.368 . S
C393 C374 1.429 . S
C393 C387 1.429 . S
C393 C394 1.523 . S
C394 C375 1.368 . S
C394 C388 1.368 . S
C394 C393 1.523 . S
C395 C379 1.429 . S
C395 C391 1.429 . S
C395 C396 1.523 . S
C396 C380 1.368 . S
C396 C392 1.368 . S
C396 C395 1.523 . S
H397 C372 0.950 . S
H398 C374 0.950 . S
H399 C375 0.949 . S
H400 C377 0.950 . S
H401 C379 0.950 . S
C402 C403 1.349 . S
C402 C404 1.327 . S
C402 H427 0.950 . S
C403 C402 1.349 . S
C403 C419 1.349 . S
C404 C402 1.327 . S
C404 C423 1.429 . S
C404 H428 0.950 . S
C405 C422 1.574 . S
C405 C424 1.368 . S
C405 H429 0.949 . S
H406 C410 0.949 . S
C407 C408 1.349 . S
C407 C409 1.327 . S
C407 H430 0.950 . S
C408 C407 1.349 . S
C408 C420 1.349 . S
C409 C407 1.327 . S
C409 C425 1.429 . S
C409 H431 0.950 . S
C410 H406 0.949 . S
C410 C418 1.574 . S
C410 C426 1.368 . S
H411 C419 0.950 . S
H412 C417 0.950 . S
H413 C418 0.949 . S
H414 C420 0.950 . S
H415 C421 0.950 . S
H416 C422 0.949 . S
C417 H412 0.950 . S
C417 C419 1.327 . S
C417 C423 1.429 . S
C418 C410 1.574 . S
C418 H413 0.949 . S
C418 C424 1.368 . S
C419 C403 1.349 . S
C419 H411 0.950 . S
C419 C417 1.327 . S
C420 C408 1.349 . S
C420 H414 0.950 . S
C420 C421 1.327 . S
C421 H415 0.950 . S
C421 C420 1.327 . S
C421 C425 1.429 . S
C422 C405 1.574 . S
C422 H416 0.949 . S
C422 C426 1.368 . S
C423 C404 1.429 . S
C423 C417 1.429 . S
C423 C424 1.523 . S
C424 C405 1.368 . S
C424 C418 1.368 . S
C424 C423 1.523 . S
C425 C409 1.429 . S
C425 C421 1.429 . S
C425 C426 1.523 . S
C426 C410 1.368 . S
C426 C422 1.368 . S
C426 C425 1.523 . S
H427 C402 0.950 . S
H428 C404 0.950 . S
H429 C405 0.949 . S
H430 C407 0.950 . S
H431 C409 0.950 . S
C432 C433 1.349 . S
C432 C434 1.327 . S
C432 H457 0.950 . S
C433 C432 1.349 . S
C433 C449 1.349 . S
C434 C432 1.327 . S
C434 C453 1.429 . S
C434 H458 0.950 . S
C435 C452 1.574 . S
C435 C454 1.368 . S
C435 H459 0.949 . S
H436 C440 0.949 . S
C437 C438 1.349 . S
C437 C439 1.327 . S
C437 H460 0.950 . S
C438 C437 1.349 . S
C438 C450 1.349 . S
C439 C437 1.327 . S
C439 C455 1.429 . S
C439 H461 0.950 . S
C440 H436 0.949 . S
C440 C448 1.574 . S
C440 C456 1.368 . S
H441 C449 0.950 . S
H442 C447 0.950 . S
H443 C448 0.949 . S
H444 C450 0.950 . S
H445 C451 0.950 . S
H446 C452 0.949 . S
C447 H442 0.950 . S
C447 C449 1.327 . S
C447 C453 1.429 . S
C448 C440 1.574 . S
C448 H443 0.949 . S
C448 C454 1.368 . S
C449 C433 1.349 . S
C449 H441 0.950 . S
C449 C447 1.327 . S
C450 C438 1.349 . S
C450 H444 0.950 . S
C450 C451 1.327 . S
C451 H445 0.950 . S
C451 C450 1.327 . S
C451 C455 1.429 . S
C452 C435 1.574 . S
C452 H446 0.949 . S
C452 C456 1.368 . S
C453 C434 1.429 . S
C453 C447 1.429 . S
C453 C454 1.523 . S
C454 C435 1.368 . S
C454 C448 1.368 . S
C454 C453 1.523 . S
C455 C439 1.429 . S
C455 C451 1.429 . S
C455 C456 1.523 . S
C456 C440 1.368 . S
C456 C452 1.368 . S
C456 C455 1.523 . S
H457 C432 0.950 . S
H458 C434 0.950 . S
H459 C435 0.949 . S
H460 C437 0.950 . S
H461 C439 0.950 . S
C462 C463 1.349 . S
C462 C464 1.327 . S
C462 H487 0.950 . S
C463 C462 1.349 . S
C463 C479 1.349 . S
C464 C462 1.327 . S
C464 C483 1.429 . S
C464 H488 0.950 . S
C465 C482 1.574 . S
C465 C484 1.368 . S
C465 H489 0.949 . S
H466 C470 0.949 . S
C467 C468 1.349 . S
C467 C469 1.327 . S
C467 H490 0.950 . S
C468 C467 1.349 . S
C468 C480 1.349 . S
C469 C467 1.327 . S
C469 C485 1.429 . S
C469 H491 0.950 . S
C470 H466 0.949 . S
C470 C478 1.574 . S
C470 C486 1.368 . S
H471 C479 0.950 . S
H472 C477 0.950 . S
H473 C478 0.949 . S
H474 C480 0.950 . S
H475 C481 0.950 . S
H476 C482 0.949 . S
C477 H472 0.950 . S
C477 C479 1.327 . S
C477 C483 1.429 . S
C478 C470 1.574 . S
C478 H473 0.949 . S
C478 C484 1.368 . S
C479 C463 1.349 . S
C479 H471 0.950 . S
C479 C477 1.327 . S
C480 C468 1.349 . S
C480 H474 0.950 . S
C480 C481 1.327 . S
C481 H475 0.950 . S
C481 C480 1.327 . S
C481 C485 1.429 . S
C482 C465 1.574 . S
C482 H476 0.949 . S
C482 C486 1.368 . S
C483 C464 1.429 . S
C483 C477 1.429 . S
C483 C484 1.523 . S
C484 C465 1.368 . S
C484 C478 1.368 . S
C484 C483 1.523 . S
C485 C469 1.429 . S
C485 C481 1.429 . S
C485 C486 1.523 . S
C486 C470 1.368 . S
C486 C482 1.368 . S
C486 C485 1.523 . S
H487 C462 0.950 . S
H488 C464 0.950 . S
H489 C465 0.949 . S
H490 C467 0.950 . S
H491 C469 0.950 . S
C492 C493 1.349 . S
C492 C494 1.327 . S
C492 H517 0.950 . S
C493 C492 1.349 . S
C493 C509 1.349 . S
C494 C492 1.327 . S
C494 C513 1.429 . S
C494 H518 0.950 . S
C495 C512 1.574 . S
C495 C514 1.368 . S
C495 H519 0.949 . S
H496 C500 0.949 . S
C497 C498 1.349 . S
C497 C499 1.327 . S
C497 H520 0.950 . S
C498 C497 1.349 . S
C498 C510 1.349 . S
C499 C497 1.327 . S
C499 C515 1.429 . S
C499 H521 0.950 . S
C500 H496 0.949 . S
C500 C508 1.574 . S
C500 C516 1.368 . S
H501 C509 0.950 . S
H502 C507 0.950 . S
H503 C508 0.949 . S
H504 C510 0.950 . S
H505 C511 0.950 . S
H506 C512 0.949 . S
C507 H502 0.950 . S
C507 C509 1.327 . S
C507 C513 1.429 . S
C508 C500 1.574 . S
C508 H503 0.949 . S
C508 C514 1.368 . S
C509 C493 1.349 . S
C509 H501 0.950 . S
C509 C507 1.327 . S
C510 C498 1.349 . S
C510 H504 0.950 . S
C510 C511 1.327 . S
C511 H505 0.950 . S
C511 C510 1.327 . S
C511 C515 1.429 . S
C512 C495 1.574 . S
C512 H506 0.949 . S
C512 C516 1.368 . S
C513 C494 1.429 . S
C513 C507 1.429 . S
C513 C514 1.523 . S
C514 C495 1.368 . S
C514 C508 1.368 . S
C514 C513 1.523 . S
C515 C499 1.429 . S
C515 C511 1.429 . S
C515 C516 1.523 . S
C516 C500 1.368 . S
C516 C512 1.368 . S
C516 C515 1.523 . S
H517 C492 0.950 . S
H518 C494 0.950 . S
H519 C495 0.949 . S
H520 C497 0.950 . S
H521 C499 0.950 . S
C522 C523 1.349 . S
C522 C524 1.327 . S
C522 H547 0.950 . S
C523 C522 1.349 . S
C523 C539 1.349 . S
C524 C522 1.327 . S
C524 C543 1.429 . S
C524 H548 0.950 . S
C525 C542 1.574 . S
C525 C544 1.368 . S
C525 H549 0.949 . S
H526 C530 0.949 . S
C527 C528 1.349 . S
C527 C529 1.327 . S
C527 H550 0.950 . S
C528 C527 1.349 . S
C528 C540 1.349 . S
C529 C527 1.327 . S
C529 C545 1.429 . S
C529 H551 0.950 . S
C530 H526 0.949 . S
C530 C538 1.574 . S
C530 C546 1.368 . S
H531 C539 0.950 . S
H532 C537 0.950 . S
H533 C538 0.949 . S
H534 C540 0.950 . S
H535 C541 0.950 . S
H536 C542 0.949 . S
C537 H532 0.950 . S
C537 C539 1.327 . S
C537 C543 1.429 . S
C538 C530 1.574 . S
C538 H533 0.949 . S
C538 C544 1.368 . S
C539 C523 1.349 . S
C539 H531 0.950 . S
C539 C537 1.327 . S
C540 C528 1.349 . S
C540 H534 0.950 . S
C540 C541 1.327 . S
C541 H535 0.950 . S
C541 C540 1.327 . S
C541 C545 1.429 . S
C542 C525 1.574 . S
C542 H536 0.949 . S
C542 C546 1.368 . S
C543 C524 1.429 . S
C543 C537 1.429 . S
C543 C544 1.523 . S
C544 C525 1.368 . S
C544 C538 1.368 . S
C544 C543 1.523 . S
C545 C529 1.429 . S
C545 C541 1.429 . S
C545 C546 1.523 . S
C546 C530 1.368 . S
C546 C542 1.368 . S
C546 C545 1.523 . S
H547 C522 0.950 . S
H548 C524 0.950 . S
H549 C525 0.949 . S
H550 C527 0.950 . S
H551 C529 0.950 . S
C552 C553 1.349 . S
C552 C554 1.327 . S
C552 H577 0.950 . S
C553 C552 1.349 . S
C553 C569 1.349 . S
C554 C552 1.327 . S
C554 C573 1.429 . S
C554 H578 0.950 . S
C555 C572 1.574 . S
C555 C574 1.368 . S
C555 H579 0.949 . S
H556 C560 0.949 . S
C557 C558 1.349 . S
C557 C559 1.327 . S
C557 H580 0.950 . S
C558 C557 1.349 . S
C558 C570 1.349 . S
C559 C557 1.327 . S
C559 C575 1.429 . S
C559 H581 0.950 . S
C560 H556 0.949 . S
C560 C568 1.574 . S
C560 C576 1.368 . S
H561 C569 0.950 . S
H562 C567 0.950 . S
H563 C568 0.949 . S
H564 C570 0.950 . S
H565 C571 0.950 . S
H566 C572 0.949 . S
C567 H562 0.950 . S
C567 C569 1.327 . S
C567 C573 1.429 . S
C568 C560 1.574 . S
C568 H563 0.949 . S
C568 C574 1.368 . S
C569 C553 1.349 . S
C569 H561 0.950 . S
C569 C567 1.327 . S
C570 C558 1.349 . S
C570 H564 0.950 . S
C570 C571 1.327 . S
C571 H565 0.950 . S
C571 C570 1.327 . S
C571 C575 1.429 . S
C572 C555 1.574 . S
C572 H566 0.949 . S
C572 C576 1.368 . S
C573 C554 1.429 . S
C573 C567 1.429 . S
C573 C574 1.523 . S
C574 C555 1.368 . S
C574 C568 1.368 . S
C574 C573 1.523 . S
C575 C559 1.429 . S
C575 C571 1.429 . S
C575 C576 1.523 . S
C576 C560 1.368 . S
C576 C572 1.368 . S
C576 C575 1.523 . S
H577 C552 0.950 . S
H578 C554 0.950 . S
H579 C555 0.949 . S
H580 C557 0.950 . S
H581 C559 0.950 . S
C582 C583 1.349 . S
C582 C584 1.327 . S
C582 H607 0.950 . S
C583 C582 1.349 . S
C583 C599 1.349 . S
C584 C582 1.327 . S
C584 C603 1.429 . S
C584 H608 0.950 . S
C585 C602 1.574 . S
C585 C604 1.368 . S
C585 H609 0.949 . S
H586 C590 0.949 . S
C587 C588 1.349 . S
C587 C589 1.327 . S
C587 H610 0.950 . S
C588 C587 1.349 . S
C588 C600 1.349 . S
C589 C587 1.327 . S
C589 C605 1.429 . S
C589 H611 0.950 . S
C590 H586 0.949 . S
C590 C598 1.574 . S
C590 C606 1.368 . S
H591 C599 0.950 . S
H592 C597 0.950 . S
H593 C598 0.949 . S
H594 C600 0.950 . S
H595 C601 0.950 . S
H596 C602 0.949 . S
C597 H592 0.950 . S
C597 C599 1.327 . S
C597 C603 1.429 . S
C598 C590 1.574 . S
C598 H593 0.949 . S
C598 C604 1.368 . S
C599 C583 1.349 . S
C599 H591 0.950 . S
C599 C597 1.327 . S
C600 C588 1.349 . S
C600 H594 0.950 . S
C600 C601 1.327 . S
C601 H595 0.950 . S
C601 C600 1.327 . S
C601 C605 1.429 . S
C602 C585 1.574 . S
C602 H596 0.949 . S
C602 C606 1.368 . S
C603 C584 1.429 . S
C603 C597 1.429 . S
C603 C604 1.523 . S
C604 C585 1.368 . S
C604 C598 1.368 . S
C604 C603 1.523 . S
C605 C589 1.429 . S
C605 C601 1.429 . S
C605 C606 1.523 . S
C606 C590 1.368 . S
C606 C602 1.368 . S
C606 C605 1.523 . S
H607 C582 0.950 . S
H608 C584 0.950 . S
H609 C585 0.949 . S
H610 C587 0.950 . S
H611 C589 0.950 . S
C612 C613 1.349 . S
C612 C614 1.327 . S
C612 H637 0.950 . S
C613 C612 1.349 . S
C613 C629 1.349 . S
C614 C612 1.327 . S
C614 C633 1.429 . S
C614 H638 0.950 . S
C615 C632 1.574 . S
C615 C634 1.368 . S
C615 H639 0.949 . S
H616 C620 0.949 . S
C617 C618 1.349 . S
C617 C619 1.327 . S
C617 H640 0.950 . S
C618 C617 1.349 . S
C618 C630 1.349 . S
C619 C617 1.327 . S
C619 C635 1.429 . S
C619 H641 0.950 . S
C620 H616 0.949 . S
C620 C628 1.574 . S
C620 C636 1.368 . S
H621 C629 0.950 . S
H622 C627 0.950 . S
H623 C628 0.949 . S
H624 C630 0.950 . S
H625 C631 0.950 . S
H626 C632 0.949 . S
C627 H622 0.950 . S
C627 C629 1.327 . S
C627 C633 1.429 . S
C628 C620 1.574 . S
C628 H623 0.949 . S
C628 C634 1.368 . S
C629 C613 1.349 . S
C629 H621 0.950 . S
C629 C627 1.327 . S
C630 C618 1.349 . S
C630 H624 0.950 . S
C630 C631 1.327 . S
C631 H625 0.950 . S
C631 C630 1.327 . S
C631 C635 1.429 . S
C632 C615 1.574 . S
C632 H626 0.949 . S
C632 C636 1.368 . S
C633 C614 1.429 . S
C633 C627 1.429 . S
C633 C634 1.523 . S
C634 C615 1.368 . S
C634 C628 1.368 . S
C634 C633 1.523 . S
C635 C619 1.429 . S
C635 C631 1.429 . S
C635 C636 1.523 . S
C636 C620 1.368 . S
C636 C632 1.368 . S
C636 C635 1.523 . S
H637 C612 0.950 . S
H638 C614 0.950 . S
H639 C615 0.949 . S
H640 C617 0.950 . S
H641 C619 0.950 . S
C642 C643 1.349 . S
C642 C644 1.327 . S
C642 H667 0.950 . S
C643 C642 1.349 . S
C643 C659 1.349 . S
C644 C642 1.327 . S
C644 C663 1.429 . S
C644 H668 0.950 . S
C645 C662 1.574 . S
C645 C664 1.368 . S
C645 H669 0.949 . S
H646 C650 0.949 . S
C647 C648 1.349 . S
C647 C649 1.327 . S
C647 H670 0.950 . S
C648 C647 1.349 . S
C648 C660 1.349 . S
C649 C647 1.327 . S
C649 C665 1.429 . S
C649 H671 0.950 . S
C650 H646 0.949 . S
C650 C658 1.574 . S
C650 C666 1.368 . S
H651 C659 0.950 . S
H652 C657 0.950 . S
H653 C658 0.949 . S
H654 C660 0.950 . S
H655 C661 0.950 . S
H656 C662 0.949 . S
C657 H652 0.950 . S
C657 C659 1.327 . S
C657 C663 1.429 . S
C658 C650 1.574 . S
C658 H653 0.949 . S
C658 C664 1.368 . S
C659 C643 1.349 . S
C659 H651 0.950 . S
C659 C657 1.327 . S
C660 C648 1.349 . S
C660 H654 0.950 . S
C660 C661 1.327 . S
C661 H655 0.950 . S
C661 C660 1.327 . S
C661 C665 1.429 . S
C662 C645 1.574 . S
C662 H656 0.949 . S
C662 C666 1.368 . S
C663 C644 1.429 . S
C663 C657 1.429 . S
C663 C664 1.523 . S
C664 C645 1.368 . S
C664 C658 1.368 . S
C664 C663 1.523 . S
C665 C649 1.429 . S
C665 C661 1.429 . S
C665 C666 1.523 . S
C666 C650 1.368 . S
C666 C662 1.368 . S
C666 C665 1.523 . S
H667 C642 0.950 . S
H668 C644 0.950 . S
H669 C645 0.949 . S
H670 C647 0.950 . S
H671 C649 0.950 . S
C672 C673 1.349 1_655 S
C672 C674 1.327 . S
C672 H697 0.950 . S
C673 C672 1.349 1_455 S
C673 C689 1.349 . S
C674 C672 1.327 . S
C674 C693 1.429 1_655 S
C674 H698 0.950 . S
C675 C692 1.574 . S
C675 C694 1.368 . S
C675 H699 0.949 . S
H676 C680 0.949 1_655 S
C677 C678 1.349 . S
C677 C679 1.327 . S
C677 H700 0.950 . S
C678 C677 1.349 . S
C678 C690 1.349 . S
C679 C677 1.327 . S
C679 C695 1.429 1_556 S
C679 H701 0.950 1_556 S
C680 H676 0.949 1_455 S
C680 C688 1.574 1_455 S
C680 C696 1.368 . S
H681 C689 0.950 . S
H682 C687 0.950 . S
H683 C688 0.949 . S
H684 C690 0.950 1_655 S
H685 C691 0.950 1_655 S
H686 C692 0.949 . S
C687 H682 0.950 . S
C687 C689 1.327 . S
C687 C693 1.429 . S
C688 C680 1.574 1_655 S
C688 H683 0.949 . S
C688 C694 1.368 1_655 S
C689 C673 1.349 . S
C689 H681 0.950 . S
C689 C687 1.327 . S
C690 C678 1.349 . S
C690 H684 0.950 1_455 S
C690 C691 1.327 . S
C691 H685 0.950 1_455 S
C691 C690 1.327 . S
C691 C695 1.429 1_556 S
C692 C675 1.574 . S
C692 H686 0.949 . S
C692 C696 1.368 . S
C693 C674 1.429 1_455 S
C693 C687 1.429 . S
C693 C694 1.523 . S
C694 C675 1.368 . S
C694 C688 1.368 1_455 S
C694 C693 1.523 . S
C695 C679 1.429 1_554 S
C695 C691 1.429 1_554 S
C695 C696 1.523 . S
C696 C680 1.368 . S
C696 C692 1.368 . S
C696 C695 1.523 . S
H697 C672 0.950 . S
H698 C674 0.950 . S
H699 C675 0.949 . S
H700 C677 0.950 . S
H701 C679 0.950 1_554 S
C702 C703 1.349 . S
C702 C704 1.327 . S
C702 H727 0.950 . S
C703 C702 1.349 . S
C703 C719 1.349 1_545 S
C704 C702 1.327 . S
C704 C723 1.429 . S
C704 H728 0.950 . S
C705 C722 1.574 . S
C705 C724 1.368 1_565 S
C705 H729 0.949 . S
H706 C710 0.949 . S
C707 C708 1.349 1_565 S
C707 C709 1.327 . S
C707 H730 0.950 . S
C708 C707 1.349 1_545 S
C708 C720 1.349 . S
C709 C707 1.327 . S
C709 C725 1.429 1_565 S
C709 H731 0.950 . S
C710 H706 0.949 . S
C710 C718 1.574 . S
C710 C726 1.368 . S
H711 C719 0.950 . S
H712 C717 0.950 . S
H713 C718 0.949 . S
H714 C720 0.950 . S
H715 C721 0.950 . S
H716 C722 0.949 . S
C717 H712 0.950 . S
C717 C719 1.327 . S
C717 C723 1.429 1_565 S
C718 C710 1.574 . S
C718 H713 0.949 . S
C718 C724 1.368 . S
C719 C703 1.349 1_565 S
C719 H711 0.950 . S
C719 C717 1.327 . S
C720 C708 1.349 . S
C720 H714 0.950 . S
C720 C721 1.327 . S
C721 H715 0.950 . S
C721 C720 1.327 . S
C721 C725 1.429 . S
C722 C705 1.574 . S
C722 H716 0.949 . S
C722 C726 1.368 1_565 S
C723 C704 1.429 . S
C723 C717 1.429 1_545 S
C723 C724 1.523 . S
C724 C705 1.368 1_545 S
C724 C718 1.368 . S
C724 C723 1.523 . S
C725 C709 1.429 1_545 S
C725 C721 1.429 . S
C725 C726 1.523 . S
C726 C710 1.368 . S
C726 C722 1.368 1_545 S
C726 C725 1.523 . S
H727 C702 0.950 . S
H728 C704 0.950 . S
H729 C705 0.949 . S
H730 C707 0.950 . S
H731 C709 0.950 . S
C732 C733 1.349 . S
C732 C734 1.327 . S
C732 H757 0.950 . S
C733 C732 1.349 . S
C733 C749 1.349 . S
C734 C732 1.327 . S
C734 C753 1.429 . S
C734 H758 0.950 . S
C735 C752 1.574 . S
C735 C754 1.368 . S
C735 H759 0.949 . S
H736 C740 0.949 . S
C737 C738 1.349 . S
C737 C739 1.327 . S
C737 H760 0.950 . S
C738 C737 1.349 . S
C738 C750 1.349 . S
C739 C737 1.327 . S
C739 C755 1.429 . S
C739 H761 0.950 . S
C740 H736 0.949 . S
C740 C748 1.574 . S
C740 C756 1.368 . S
H741 C749 0.950 . S
H742 C747 0.950 . S
H743 C748 0.949 . S
H744 C750 0.950 . S
H745 C751 0.950 . S
H746 C752 0.949 . S
C747 H742 0.950 . S
C747 C749 1.327 . S
C747 C753 1.429 . S
C748 C740 1.574 . S
C748 H743 0.949 . S
C748 C754 1.368 . S
C749 C733 1.349 . S
C749 H741 0.950 . S
C749 C747 1.327 . S
C750 C738 1.349 . S
C750 H744 0.950 . S
C750 C751 1.327 . S
C751 H745 0.950 . S
C751 C750 1.327 . S
C751 C755 1.429 . S
C752 C735 1.574 . S
C752 H746 0.949 . S
C752 C756 1.368 . S
C753 C734 1.429 . S
C753 C747 1.429 . S
C753 C754 1.523 . S
C754 C735 1.368 . S
C754 C748 1.368 . S
C754 C753 1.523 . S
C755 C739 1.429 . S
C755 C751 1.429 . S
C755 C756 1.523 . S
C756 C740 1.368 . S
C756 C752 1.368 . S
C756 C755 1.523 . S
H757 C732 0.950 . S
H758 C734 0.950 . S
H759 C735 0.949 . S
H760 C737 0.950 . S
H761 C739 0.950 . S
C762 C763 1.349 . S
C762 C764 1.327 . S
C762 H787 0.950 . S
C763 C762 1.349 . S
C763 C779 1.349 1_545 S
C764 C762 1.327 . S
C764 C783 1.429 . S
C764 H788 0.950 . S
C765 C782 1.574 . S
C765 C784 1.368 1_565 S
C765 H789 0.949 . S
H766 C770 0.949 . S
C767 C768 1.349 1_565 S
C767 C769 1.327 . S
C767 H790 0.950 . S
C768 C767 1.349 1_545 S
C768 C780 1.349 . S
C769 C767 1.327 . S
C769 C785 1.429 1_565 S
C769 H791 0.950 . S
C770 H766 0.949 . S
C770 C778 1.574 . S
C770 C786 1.368 . S
H771 C779 0.950 . S
H772 C777 0.950 . S
H773 C778 0.949 . S
H774 C780 0.950 . S
H775 C781 0.950 . S
H776 C782 0.949 . S
C777 H772 0.950 . S
C777 C779 1.327 . S
C777 C783 1.429 1_565 S
C778 C770 1.574 . S
C778 H773 0.949 . S
C778 C784 1.368 . S
C779 C763 1.349 1_565 S
C779 H771 0.950 . S
C779 C777 1.327 . S
C780 C768 1.349 . S
C780 H774 0.950 . S
C780 C781 1.327 . S
C781 H775 0.950 . S
C781 C780 1.327 . S
C781 C785 1.429 . S
C782 C765 1.574 . S
C782 H776 0.949 . S
C782 C786 1.368 1_565 S
C783 C764 1.429 . S
C783 C777 1.429 1_545 S
C783 C784 1.523 . S
C784 C765 1.368 1_545 S
C784 C778 1.368 . S
C784 C783 1.523 . S
C785 C769 1.429 1_545 S
C785 C781 1.429 . S
C785 C786 1.523 . S
C786 C770 1.368 . S
C786 C782 1.368 1_545 S
C786 C785 1.523 . S
H787 C762 0.950 . S
H788 C764 0.950 . S
H789 C765 0.949 . S
H790 C767 0.950 . S
H791 C769 0.950 . S
C792 C793 1.349 . S
C792 C794 1.327 . S
C792 H817 0.950 . S
C793 C792 1.349 . S
C793 C809 1.349 . S
C794 C792 1.327 . S
C794 C813 1.429 . S
C794 H818 0.950 . S
C795 C812 1.574 . S
C795 C814 1.368 . S
C795 H819 0.949 . S
H796 C800 0.949 . S
C797 C798 1.349 . S
C797 C799 1.327 . S
C797 H820 0.950 . S
C798 C797 1.349 . S
C798 C810 1.349 . S
C799 C797 1.327 . S
C799 C815 1.429 1_554 S
C799 H821 0.950 . S
C800 H796 0.949 . S
C800 C808 1.574 . S
C800 C816 1.368 . S
H801 C809 0.950 . S
H802 C807 0.950 . S
H803 C808 0.949 . S
H804 C810 0.950 . S
H805 C811 0.950 1_556 S
H806 C812 0.949 . S
C807 H802 0.950 . S
C807 C809 1.327 . S
C807 C813 1.429 . S
C808 C800 1.574 . S
C808 H803 0.949 . S
C808 C814 1.368 . S
C809 C793 1.349 . S
C809 H801 0.950 . S
C809 C807 1.327 . S
C810 C798 1.349 . S
C810 H804 0.950 . S
C810 C811 1.327 . S
C811 H805 0.950 1_554 S
C811 C810 1.327 . S
C811 C815 1.429 1_554 S
C812 C795 1.574 . S
C812 H806 0.949 . S
C812 C816 1.368 . S
C813 C794 1.429 . S
C813 C807 1.429 . S
C813 C814 1.523 . S
C814 C795 1.368 . S
C814 C808 1.368 . S
C814 C813 1.523 . S
C815 C799 1.429 1_556 S
C815 C811 1.429 1_556 S
C815 C816 1.523 . S
C816 C800 1.368 . S
C816 C812 1.368 . S
C816 C815 1.523 . S
H817 C792 0.950 . S
H818 C794 0.950 . S
H819 C795 0.949 . S
H820 C797 0.950 . S
H821 C799 0.950 . S
C822 C823 1.349 . S
C822 C824 1.327 . S
C822 H847 0.950 . S
C823 C822 1.349 . S
C823 C839 1.349 . S
C824 C822 1.327 . S
C824 C843 1.429 . S
C824 H848 0.950 . S
C825 C842 1.574 . S
C825 C844 1.368 . S
C825 H849 0.949 . S
H826 C830 0.949 . S
C827 C828 1.349 . S
C827 C829 1.327 . S
C827 H850 0.950 . S
C828 C827 1.349 . S
C828 C840 1.349 . S
C829 C827 1.327 . S
C829 C845 1.429 . S
C829 H851 0.950 . S
C830 H826 0.949 . S
C830 C838 1.574 . S
C830 C846 1.368 . S
H831 C839 0.950 . S
H832 C837 0.950 . S
H833 C838 0.949 . S
H834 C840 0.961 . S
H835 C841 0.950 . S
H836 C842 0.949 . S
C837 H832 0.950 . S
C837 C839 1.327 . S
C837 C843 1.429 . S
C838 C830 1.574 . S
C838 H833 0.949 . S
C838 C844 1.368 . S
C839 C823 1.349 . S
C839 H831 0.950 . S
C839 C837 1.327 . S
C840 C828 1.349 . S
C840 H834 0.961 . S
C840 C841 1.327 . S
C841 H835 0.950 . S
C841 C840 1.327 . S
C841 C845 1.429 . S
C842 C825 1.574 . S
C842 H836 0.949 . S
C842 C846 1.368 . S
C843 C824 1.429 . S
C843 C837 1.429 . S
C843 C844 1.523 . S
C844 C825 1.368 . S
C844 C838 1.368 . S
C844 C843 1.523 . S
C845 C829 1.429 . S
C845 C841 1.429 . S
C845 C846 1.523 . S
C846 C830 1.368 . S
C846 C842 1.368 . S
C846 C845 1.523 . S
H847 C822 0.950 . S
H848 C824 0.950 . S
H849 C825 0.949 . S
H850 C827 0.950 . S
H851 C829 0.950 . S
C313 C6 0.428 . S
C318 C303 0.383 . S
C343 C59 1.844 . S
C348 C239 1.794 . S
C373 C86 1.161 . S
C378 C271 1.142 . S
C403 C15 0.367 . S
C408 C297 0.332 . S
C438 C233 1.862 . S
C433 C50 1.895 . S
C468 C265 1.221 . S
C463 C95 1.231 . S
C493 C46 1.163 . S
C498 C175 1.155 . S
C523 C99 3.000 . S
C528 C207 2.936 . S
C553 C10 1.921 . S
C558 C137 1.892 . S
C588 C169 1.211 . S
C583 C55 1.215 . S
C618 C201 2.904 . S
C613 C90 2.922 . S
C643 C19 1.837 . S
C648 C143 1.794 . S
C678 C213 1.724 . S
C673 C18 1.693 . S
C703 C49 1.342 . S
C708 C149 1.358 . S
C733 C98 1.457 . S
C738 C181 1.480 . S
C768 C277 1.455 . S
C763 C58 1.446 . S
C798 C309 1.109 . S
C793 C89 1.100 . S
C823 C9 1.337 . S
C828 C245 1.347 . S
