# Generated by pormake.
# Topology zzz, (3,6)-cn, num edge types: 1
# Building blocks:
#     Node 0, Type 0, BuildingBlock: CUQRIR_clean_linker_1, # of connection points: 3
#     Node 1, Type 0, BuildingBlock: CUQRIR_clean_linker_1, # of connection points: 3
#     Node 2, Type 0, BuildingBlock: CUQRIR_clean_linker_1, # of connection points: 3
#     Node 3, Type 0, BuildingBlock: CUQRIR_clean_linker_1, # of connection points: 3
#     Node 4, Type 0, BuildingBlock: CUQRIR_clean_linker_1, # of connection points: 3
#     Node 5, Type 0, BuildingBlock: CUQRIR_clean_linker_1, # of connection points: 3
#     Node 6, Type 0, BuildingBlock: CUQRIR_clean_linker_1, # of connection points: 3
#     Node 7, Type 0, BuildingBlock: CUQRIR_clean_linker_1, # of connection points: 3
#     Node 8, Type 1, BuildingBlock: BETGAK_clean_sbu_0, # of connection points: 6
#     Node 9, Type 1, BuildingBlock: BETGAK_clean_sbu_0, # of connection points: 6
#     Node 10, Type 1, BuildingBlock: BETGAK_clean_sbu_0, # of connection points: 6
#     Node 11, Type 1, BuildingBlock: BETGAK_clean_sbu_0, # of connection points: 6
#     Edge 12, Type (0, 1), BuildingBlock: ZUJKAS_clean_linker_0, # of connection points: 2
#     Edge 13, Type (0, 1), BuildingBlock: ZUJKAS_clean_linker_0, # of connection points: 2
#     Edge 14, Type (0, 1), BuildingBlock: ZUJKAS_clean_linker_0, # of connection points: 2
#     Edge 15, Type (0, 1), BuildingBlock: ZUJKAS_clean_linker_0, # of connection points: 2
#     Edge 16, Type (0, 1), BuildingBlock: ZUJKAS_clean_linker_0, # of connection points: 2
#     Edge 17, Type (0, 1), BuildingBlock: ZUJKAS_clean_linker_0, # of connection points: 2
#     Edge 18, Type (0, 1), BuildingBlock: ZUJKAS_clean_linker_0, # of connection points: 2
#     Edge 19, Type (0, 1), BuildingBlock: ZUJKAS_clean_linker_0, # of connection points: 2
#     Edge 20, Type (0, 1), BuildingBlock: ZUJKAS_clean_linker_0, # of connection points: 2
#     Edge 21, Type (0, 1), BuildingBlock: ZUJKAS_clean_linker_0, # of connection points: 2
#     Edge 22, Type (0, 1), BuildingBlock: ZUJKAS_clean_linker_0, # of connection points: 2
#     Edge 23, Type (0, 1), BuildingBlock: ZUJKAS_clean_linker_0, # of connection points: 2
#     Edge 24, Type (0, 1), BuildingBlock: ZUJKAS_clean_linker_0, # of connection points: 2
#     Edge 25, Type (0, 1), BuildingBlock: ZUJKAS_clean_linker_0, # of connection points: 2
#     Edge 26, Type (0, 1), BuildingBlock: ZUJKAS_clean_linker_0, # of connection points: 2
#     Edge 27, Type (0, 1), BuildingBlock: ZUJKAS_clean_linker_0, # of connection points: 2
#     Edge 28, Type (0, 1), BuildingBlock: ZUJKAS_clean_linker_0, # of connection points: 2
#     Edge 29, Type (0, 1), BuildingBlock: ZUJKAS_clean_linker_0, # of connection points: 2
#     Edge 30, Type (0, 1), BuildingBlock: ZUJKAS_clean_linker_0, # of connection points: 2
#     Edge 31, Type (0, 1), BuildingBlock: ZUJKAS_clean_linker_0, # of connection points: 2
#     Edge 32, Type (0, 1), BuildingBlock: ZUJKAS_clean_linker_0, # of connection points: 2
#     Edge 33, Type (0, 1), BuildingBlock: ZUJKAS_clean_linker_0, # of connection points: 2
#     Edge 34, Type (0, 1), BuildingBlock: ZUJKAS_clean_linker_0, # of connection points: 2
#     Edge 35, Type (0, 1), BuildingBlock: ZUJKAS_clean_linker_0, # of connection points: 2
# Relax obj value: 0.252
# Max RMSD: 0.181
# Mean RMSD: 0.158
data_MOF--net-zzz--node1-BETGAK_clean_sbu_0--node2-CUQRIR_clean_linker_1--edge1-ZUJKAS_clean_linker_0
_symmetry_space_group_name_H-M    P1
_symmetry_Int_Tables_number       1
_symmetry_cell_setting            triclinic
loop_
_symmetry_equiv_pos_as_xyz
'x, y, z'
_cell_length_a     64.678229
_cell_length_b     64.756929
_cell_length_c     15.700573
_cell_angle_alpha  90.0841
_cell_angle_beta   90.054118
_cell_angle_gamma 90.061353
loop_
_atom_site_label
_atom_site_type_symbol
_atom_site_fract_x
_atom_site_fract_y
_atom_site_fract_z
_atom_type_partial_charge
C0 C 0.75195 0.52064 0.31013 0.0
N1 N 0.76898 0.50995 0.33519 0.0
N2 N 0.7377 0.50778 0.27397 0.0
C3 C 0.74958 0.54358 0.31831 0.0
C4 C 0.74689 0.48896 0.2775 0.0
N5 N 0.7657 0.49029 0.31496 0.0
C6 C 0.73781 0.46946 0.24072 0.0
H7 H 0.75783 0.54934 0.37564 0.0
H8 H 0.73301 0.54791 0.32172 0.0
H9 H 0.75652 0.55106 0.26157 0.0
H10 H 0.73088 0.47264 0.1774 0.0
H11 H 0.72534 0.46386 0.28327 0.0
H12 H 0.74942 0.45698 0.23469 0.0
C13 C 0.01666 0.75502 0.32065 0.0
N14 N 0.02685 0.77294 0.33794 0.0
N15 N 0.02781 0.74295 0.26594 0.0
C16 C 0.99624 0.74913 0.35867 0.0
C17 C 0.04492 0.7545 0.24998 0.0
N18 N 0.04438 0.7724 0.29415 0.0
C19 C 0.06125 0.74924 0.18521 0.0
H20 H 0.99423 0.7565 0.42199 0.0
H21 H 0.99494 0.73211 0.36473 0.0
H22 H 0.98369 0.75465 0.31624 0.0
H23 H 0.05455 0.74023 0.1317 0.0
H24 H 0.07339 0.73978 0.21628 0.0
H25 H 0.0687 0.76336 0.15956 0.0
C26 C 0.77984 0.01914 0.3095 0.0
N27 N 0.76281 0.02989 0.33365 0.0
N28 N 0.79422 0.03193 0.27413 0.0
C29 C 0.78213 0.9962 0.31809 0.0
C30 C 0.78508 0.05079 0.27713 0.0
N31 N 0.76616 0.04953 0.31361 0.0
C32 C 0.79432 0.07022 0.24086 0.0
H33 H 0.77359 0.99053 0.37471 0.0
H34 H 0.79868 0.99184 0.32307 0.0
H35 H 0.77548 0.98866 0.26078 0.0
H36 H 0.80139 0.06698 0.17789 0.0
H37 H 0.8067 0.0758 0.28405 0.0
H38 H 0.78277 0.08274 0.23432 0.0
C39 C 0.51269 0.78353 0.29538 0.0
N40 N 0.50186 0.76655 0.31962 0.0
N41 N 0.49996 0.79783 0.25911 0.0
C42 C 0.53564 0.78589 0.30486 0.0
C43 C 0.48105 0.78869 0.26175 0.0
N44 N 0.48223 0.76987 0.29882 0.0
C45 C 0.46162 0.79787 0.22502 0.0
H46 H 0.54122 0.77751 0.36204 0.0
H47 H 0.54 0.80243 0.30939 0.0
H48 H 0.5433 0.77911 0.24815 0.0
H49 H 0.46499 0.80533 0.16294 0.0
H50 H 0.45576 0.80992 0.26906 0.0
H51 H 0.44926 0.78621 0.21648 0.0
C52 C 0.28293 0.51669 0.13388 0.0
N53 N 0.26536 0.50626 0.11346 0.0
N54 N 0.29691 0.50392 0.172 0.0
C55 C 0.28615 0.53933 0.11908 0.0
C56 C 0.287 0.48543 0.17436 0.0
N57 N 0.26802 0.48685 0.13848 0.0
C58 C 0.29563 0.46619 0.21471 0.0
H59 H 0.27767 0.54447 0.06147 0.0
H60 H 0.30285 0.54292 0.11222 0.0
H61 H 0.28004 0.54801 0.17457 0.0
H62 H 0.30358 0.47009 0.2753 0.0
H63 H 0.30717 0.45925 0.1711 0.0
H64 H 0.28351 0.45447 0.22699 0.0
C65 C 0.01677 0.28923 0.12155 0.0
N66 N 1.00517 0.272 0.10796 0.0
N67 N 1.00554 0.30411 0.16199 0.0
C68 C 0.03924 0.2911 0.09968 0.0
C69 C 0.98678 0.29513 0.173 0.0
N70 N 0.98657 0.27573 0.14057 0.0
C71 C 0.96913 0.30491 0.22078 0.0
H72 H 0.04375 0.30755 0.09241 0.0
H73 H 0.04271 0.28249 0.04024 0.0
H74 H 0.04853 0.28425 0.15192 0.0
H75 H 0.9651 0.31992 0.19139 0.0
H76 H 0.97397 0.30798 0.28744 0.0
H77 H 0.95508 0.29508 0.22054 0.0
C78 C 0.24878 0.01623 0.12639 0.0
N79 N 0.26676 1.00582 0.11322 0.0
N80 N 0.23592 1.00529 0.17836 0.0
C81 C 0.24363 0.03672 0.08747 0.0
C82 C 0.24695 0.98807 0.19702 0.0
N83 N 0.26545 0.98837 0.15719 0.0
C84 C 0.24043 0.97189 0.26036 0.0
H85 H 0.22666 0.03843 0.0797 0.0
H86 H 0.25139 0.03848 0.02489 0.0
H87 H 0.24924 0.04917 0.13029 0.0
H88 H 0.23083 0.96016 0.2272 0.0
H89 H 0.23104 0.97884 0.31208 0.0
H90 H 0.25397 0.96396 0.28872 0.0
C91 C 0.51515 0.25429 0.1225 0.0
N92 N 0.52625 0.2711 0.09811 0.0
N93 N 0.52769 0.23973 0.15814 0.0
C94 C 0.49213 0.25242 0.11421 0.0
C95 C 0.54675 0.24852 0.15495 0.0
N96 N 0.54585 0.26738 0.11818 0.0
C97 C 0.56605 0.23898 0.19133 0.0
H98 H 0.48479 0.25944 0.17114 0.0
H99 H 0.48741 0.23597 0.11027 0.0
H100 H 0.48657 0.26084 0.05712 0.0
H101 H 0.57141 0.22654 0.1481 0.0
H102 H 0.56269 0.23195 0.25425 0.0
H103 H 0.57878 0.25032 0.19807 0.0
La104 La 0.0235 0.01556 0.80972 0.0
La105 La 1.00759 0.02762 0.64334 0.0
C106 C 0.03141 1.01065 0.96571 0.0
C107 C 0.04017 0.99447 0.02012 0.0
C108 C 0.05435 0.99986 0.08419 0.0
C109 C 0.0631 0.98462 0.13588 0.0
C110 C 0.05754 0.96386 0.12459 0.0
C111 C 0.04339 0.95852 0.06013 0.0
C112 C 0.03486 0.97368 0.00802 0.0
C113 C 0.05205 0.0156 0.6888 0.0
C114 C 1.01546 0.97978 0.68442 0.0
C115 C 0.99854 0.03257 0.48854 0.0
C116 C 0.98575 0.04705 0.43916 0.0
C117 C 0.96507 0.05104 0.46125 0.0
C118 C 0.95374 0.06598 0.41732 0.0
C119 C 0.96293 0.07737 0.35121 0.0
C120 C 0.98336 0.07268 0.32711 0.0
C121 C 0.9946 0.05761 0.37048 0.0
C122 C 0.97908 0.02736 0.76486 0.0
C123 C 0.01624 0.06368 0.76881 0.0
O124 O 0.04421 0.0191 0.91177 0.0
O125 O 1.01333 1.0069 0.93132 0.0
O126 O 0.05122 1.00252 0.75107 0.0
O127 O 0.03778 0.02876 0.69792 0.0
O128 O 1.01571 0.98442 0.76645 0.0
O129 O 1.01569 0.99462 0.62636 0.0
O130 O 0.98874 0.01996 0.53948 0.0
O131 O 1.01514 0.04033 0.52413 0.0
O132 O 0.97975 0.04039 0.70258 0.0
O133 O 0.99335 1.0143 0.7546 0.0
O134 O 1.01428 0.05907 0.68704 0.0
O135 O 0.01755 0.04883 0.82643 0.0
H136 H 0.0587 0.01586 0.09402 0.0
H137 H 0.07398 0.98905 0.18513 0.0
H138 H 0.03916 0.94254 0.0492 0.0
H139 H 0.02418 0.96912 0.95821 0.0
H140 H 0.95778 0.04303 0.51379 0.0
H141 H 0.93798 0.06903 0.43684 0.0
H142 H 0.99111 0.08136 0.27762 0.0
H143 H 1.01049 0.05471 0.35225 0.0
La144 La 0.52036 0.02745 0.79495 0.0
La145 La 0.50711 1.01136 0.63013 0.0
C146 C 0.52654 0.03587 0.9498 0.0
C147 C 0.54206 0.0474 0.99872 0.0
C148 C 0.55345 0.06338 0.96092 0.0
C149 C 0.56879 0.07362 0.0072 0.0
C150 C 0.57317 0.06789 0.09175 0.0
C151 C 0.5613 0.05221 0.12992 0.0
C152 C 0.54585 0.04207 0.08369 0.0
C153 C 0.52009 0.05578 0.67306 0.0
C154 C 0.55541 0.01883 0.66635 0.0
C155 C 0.50118 1.00247 0.47545 0.0
C156 C 0.48606 0.99074 0.42383 0.0
C157 C 0.48926 0.96969 0.40562 0.0
C158 C 0.47479 0.95854 0.35788 0.0
C159 C 0.45695 0.96829 0.32665 0.0
C160 C 0.45408 0.98947 0.34284 0.0
C161 C 0.4685 1.00058 0.39053 0.0
C162 C 0.5073 0.98312 0.7524 0.0
C163 C 0.47204 0.02022 0.7587 0.0
O164 O 0.51482 0.04683 0.89933 0.0
O165 O 0.53299 0.0189 0.9132 0.0
O166 O 0.53333 0.05501 0.73478 0.0
O167 O 0.5068 0.04169 0.68373 0.0
O168 O 0.55129 0.02015 0.7486 0.0
O169 O 0.5402 0.01815 0.60985 0.0
O170 O 0.5129 0.99172 0.52673 0.0
O171 O 0.49479 0.01962 0.51112 0.0
O172 O 0.49403 0.98392 0.69078 0.0
O173 O 0.52065 0.99712 0.74124 0.0
O174 O 0.47613 0.01875 0.67639 0.0
O175 O 0.48725 0.02091 0.81516 0.0
H176 H 0.5507 0.06774 0.8953 0.0
H177 H 0.57748 0.08578 0.97627 0.0
H178 H 0.56447 0.04719 0.19438 0.0
H179 H 0.53718 0.02975 0.1137 0.0
H180 H 0.50287 0.96175 0.4289 0.0
H181 H 0.4775 0.9423 0.34577 0.0
H182 H 0.44034 0.99738 0.32088 0.0
H183 H 0.46572 0.01683 0.40226 0.0
La184 La 0.51099 0.52634 0.80208 0.0
La185 La 0.5266 0.51167 0.625 0.0
C186 C 0.50846 0.53731 0.95525 0.0
C187 C 0.49588 0.55256 1.00179 0.0
C188 C 0.48361 0.54622 0.07071 0.0
C189 C 0.47128 0.56046 0.11436 0.0
C190 C 0.47109 0.58135 0.08996 0.0
C191 C 0.48349 0.5876 0.02096 0.0
C192 C 0.49562 0.57337 0.97703 0.0
C193 C 0.47937 0.52161 0.69241 0.0
C194 C 0.51678 0.56007 0.66025 0.0
C195 C 0.53361 0.50468 0.47017 0.0
C196 C 0.54572 0.48968 0.42125 0.0
C197 C 0.56194 0.47874 0.45955 0.0
C198 C 0.57259 0.46365 0.41363 0.0
C199 C 0.56706 0.45913 0.32892 0.0
C200 C 0.55121 0.47065 0.2901 0.0
C201 C 0.54064 0.48581 0.33601 0.0
C202 C 0.5547 0.51192 0.74877 0.0
C203 C 0.5164 0.47821 0.76179 0.0
O204 O 0.49831 0.52156 0.92354 0.0
O205 O 0.52228 0.5446 0.90204 0.0
O206 O 0.47748 0.5282 0.76999 0.0
O207 O 0.49831 0.51829 0.68277 0.0
O208 O 0.51396 0.55667 0.74275 0.0
O209 O 0.52015 0.54481 0.60512 0.0
O210 O 0.54432 0.51774 0.51648 0.0
O211 O 0.51761 0.49718 0.51119 0.0
O212 O 0.55465 0.49928 0.68476 0.0
O213 O 0.54026 0.52477 0.73793 0.0
O214 O 0.51647 0.48215 0.67876 0.0
O215 O 0.51763 0.49328 0.81912 0.0
H216 H 0.48352 0.5302 0.09058 0.0
H217 H 0.46185 0.5551 0.16683 0.0
H218 H 0.48422 0.60362 1.00162 0.0
H219 H 0.50484 0.57875 0.92395 0.0
H220 H 0.56612 0.48158 0.52536 0.0
H221 H 0.58487 0.45522 0.44503 0.0
H222 H 0.54635 0.46735 0.22546 0.0
H223 H 0.52813 0.49415 0.30563 0.0
La224 La 1.01007 0.51344 0.81078 0.0
La225 La 0.02487 0.52848 0.63379 0.0
C226 C 1.00349 0.50634 0.96585 0.0
C227 C 0.98862 0.49412 0.01497 0.0
C228 C 0.97786 0.4777 0.977 0.0
C229 C 0.96289 0.46693 0.02304 0.0
C230 C 0.95827 0.47256 0.10751 0.0
C231 C 0.9696 0.48862 0.14602 0.0
C232 C 0.98467 0.49931 0.10001 0.0
C233 C 1.01222 0.48503 0.68925 0.0
C234 C 0.97615 0.52457 0.67443 0.0
C235 C 0.03533 0.5256 0.48058 0.0
C236 C 0.05048 0.51253 0.43534 0.0
C237 C 0.07178 0.51527 0.44844 0.0
C238 C 0.08597 0.50228 0.40885 0.0
C239 C 0.07925 0.48615 0.35549 0.0
C240 C 0.05796 0.48352 0.34131 0.0
C241 C 0.04369 0.49662 0.38093 0.0
C242 C 0.01759 0.56068 0.73751 0.0
C243 C 0.05829 0.52161 0.77583 0.0
O244 O 0.01648 0.49575 0.91901 0.0
O245 O 0.99586 0.5223 0.92526 0.0
O246 O 0.99874 0.48508 0.75027 0.0
O247 O 0.02468 0.49979 0.70117 0.0
O248 O 0.98001 0.52207 0.75699 0.0
O249 O 0.99118 0.5259 0.61701 0.0
O250 O 0.04282 0.53959 0.53291 0.0
O251 O 0.01935 0.51586 0.51275 0.0
O252 O 0.02423 0.56228 0.65974 0.0
O253 O 1.0152 0.54169 0.74997 0.0
O254 O 0.05475 0.52164 0.69264 0.0
O255 O 0.04287 0.52129 0.83166 0.0
H256 H 0.98077 0.47345 0.91134 0.0
H257 H 0.95462 0.45448 0.9919 0.0
H258 H 0.96623 0.49356 0.21046 0.0
H259 H 0.99287 0.51196 0.13014 0.0
H260 H 0.0776 0.52738 0.48966 0.0
H261 H 0.10229 0.50505 0.41939 0.0
H262 H 0.05234 0.47121 0.30063 0.0
H263 H 0.02733 0.49416 0.36992 0.0
H264 H 0.2253 0.03958 0.26784 0.0
H265 H 0.19259 0.04545 0.34431 0.0
H266 H 0.1687 0.98804 0.24522 0.0
H267 H 0.20109 0.98258 0.1673 0.0
H268 H 0.13859 0.01774 0.24975 0.0
H269 H 0.1791 1.01429 0.56131 0.0
H270 H 0.18826 0.0342 0.49136 0.0
H271 H 0.19162 1.00753 0.46258 0.0
C272 C 0.21284 0.02853 0.26093 0.0
C273 C 0.21573 1.01059 0.2119 0.0
C274 C 0.19424 0.03172 0.30553 0.0
C275 C 0.17822 0.01696 0.30241 0.0
C276 C 0.18075 0.99962 0.24946 0.0
H277 H 0.0839 0.98859 0.67258 0.0
H278 H 0.11341 0.99022 0.5758 0.0
C279 C 0.19928 0.99648 0.20495 0.0
C280 C 0.15928 0.01884 0.3571 0.0
H281 H 0.14321 0.02036 0.56481 0.0
C282 C 0.13961 0.01848 0.31863 0.0
C283 C 0.16048 0.01944 0.44727 0.0
C284 C 0.18096 0.0187 0.49337 0.0
C285 C 0.12128 0.01864 0.36746 0.0
C286 C 0.12252 0.01944 0.45754 0.0
C287 C 0.14217 0.01994 0.49588 0.0
C288 C 0.1038 0.01843 0.51374 0.0
C289 C 0.10073 0.01715 0.32229 0.0
C290 C 0.08833 0.03373 0.51164 0.0
C291 C 0.07129 0.03282 0.56743 0.0
C292 C 0.06945 0.01663 0.62669 0.0
C293 C 0.08484 1.0013 0.62799 0.0
C294 C 0.10178 1.00223 0.57259 0.0
H295 H 0.10252 1.01229 0.2548 0.0
H296 H 0.09038 1.006 0.35499 0.0
H297 H 0.09311 0.03249 0.32311 0.0
H298 H 0.08961 0.0466 0.46802 0.0
H299 H 0.05975 0.04491 0.56502 0.0
H300 H 0.49985 0.23331 0.2848 0.0
H301 H 0.49447 0.20123 0.36537 0.0
H302 H 0.53936 0.17043 0.207 0.0
H303 H 0.54377 0.20213 0.12391 0.0
H304 H 0.50907 0.14447 0.24281 0.0
H305 H 0.53372 0.18171 0.54433 0.0
H306 H 0.51134 0.19356 0.49799 0.0
H307 H 0.53573 0.19453 0.44291 0.0
C308 C 0.50818 0.21954 0.26619 0.0
C309 C 0.52238 0.22029 0.19853 0.0
C310 C 0.50538 0.20126 0.31313 0.0
C311 C 0.51696 0.18339 0.29436 0.0
C312 C 0.53036 0.18392 0.22387 0.0
H313 H 0.54905 0.08531 0.64467 0.0
H314 H 0.54718 0.11515 0.55012 0.0
C315 C 0.53299 0.2021 0.17656 0.0
C316 C 0.5158 0.1644 0.34918 0.0
H317 H 0.52222 0.14718 0.55367 0.0
C318 C 0.51189 0.1451 0.31085 0.0
C319 C 0.51983 0.16497 0.43802 0.0
C320 C 0.5256 0.18475 0.48322 0.0
C321 C 0.51195 0.12657 0.35828 0.0
C322 C 0.5155 0.12724 0.4474 0.0
C323 C 0.51929 0.14654 0.48569 0.0
C324 C 0.5166 0.10817 0.50176 0.0
C325 C 0.50898 0.10639 0.31168 0.0
C326 C 0.50011 0.09396 0.50653 0.0
C327 C 0.50126 0.07661 0.56045 0.0
C328 C 0.5188 0.07328 0.61166 0.0
C329 C 0.53527 0.08742 0.60636 0.0
C330 C 0.5342 0.10458 0.55226 0.0
H331 H 0.51208 0.10799 0.24241 0.0
H332 H 0.51928 0.09423 0.33772 0.0
H333 H 0.49273 0.10121 0.31935 0.0
H334 H 0.48615 0.09648 0.46998 0.0
H335 H 0.48826 0.06608 0.56342 0.0
H336 H 0.30587 0.53314 0.29072 0.0
H337 H 0.33888 0.53783 0.36656 0.0
H338 H 0.36603 0.48925 0.21581 0.0
H339 H 0.33325 0.48498 0.13883 0.0
H340 H 0.3708 0.48414 0.3956 0.0
H341 H 0.39575 0.56219 0.29143 0.0
H342 H 0.3695 0.56038 0.32844 0.0
H343 H 0.377 0.54704 0.23303 0.0
C344 C 0.31906 0.52389 0.27235 0.0
C345 C 0.31696 0.50868 0.20888 0.0
C346 C 0.33793 0.52651 0.31587 0.0
C347 C 0.35509 0.51394 0.29693 0.0
C348 C 0.35311 0.49914 0.23186 0.0
H349 H 0.48144 0.51708 0.51707 0.0
H350 H 0.45222 0.51506 0.41613 0.0
C351 C 0.33435 0.49666 0.188 0.0
C352 C 0.37456 0.51513 0.34865 0.0
H353 H 0.41458 0.54706 0.40571 0.0
C354 C 0.38041 0.49787 0.39726 0.0
C355 C 0.38728 0.53296 0.35069 0.0
C356 C 0.38225 0.55168 0.29766 0.0
C357 C 0.39818 0.49818 0.44934 0.0
C358 C 0.41059 0.51616 0.45313 0.0
C359 C 0.40509 0.53326 0.40295 0.0
C360 C 0.42856 0.51775 0.51288 0.0
C361 C 0.40354 0.47929 0.50086 0.0
C362 C 0.42506 0.52004 0.60056 0.0
C363 C 0.44165 0.52126 0.65782 0.0
C364 C 0.46222 0.52003 0.62917 0.0
C365 C 0.46581 0.51779 0.54125 0.0
C366 C 0.44911 0.51677 0.48354 0.0
H367 H 0.39449 0.46554 0.48063 0.0
H368 H 0.42028 0.47574 0.49506 0.0
H369 H 0.40024 0.48234 0.56908 0.0
H370 H 0.40941 0.52091 0.62481 0.0
H371 H 0.43833 0.52306 0.72503 0.0
H372 H 0.99046 0.34193 0.12558 0.0
H373 H 0.99606 0.37381 0.20654 0.0
H374 H 0.04112 0.34256 0.36267 0.0
H375 H 0.03464 0.31036 0.28351 0.0
H376 H 1.01577 0.36226 0.46083 0.0
H377 H 0.03876 0.4178 0.21248 0.0
H378 H 1.01456 0.40593 0.1859 0.0
H379 H 0.03761 0.39038 0.19247 0.0
C380 C 1.00181 0.34202 0.17629 0.0
C381 C 1.01212 0.32368 0.19818 0.0
C382 C 1.00518 0.36034 0.22225 0.0
C383 C 0.01926 0.36094 0.29066 0.0
C384 C 0.03023 0.34273 0.31022 0.0
H385 H 0.04417 0.47714 0.57648 0.0
H386 H 0.0475 0.44744 0.4791 0.0
C387 C 0.02671 0.32433 0.26448 0.0
C388 C 0.02099 0.37982 0.34646 0.0
H389 H 0.02589 0.4326 0.34341 0.0
C390 C 0.01824 0.37757 0.43482 0.0
C391 C 0.02454 0.39998 0.31389 0.0
C392 C 0.02926 0.40365 0.2211 0.0
C393 C 0.01814 0.39469 0.49039 0.0
C394 C 0.02023 0.41495 0.45711 0.0
C395 C 0.02387 0.41721 0.36929 0.0
C396 C 0.01799 0.43382 0.51233 0.0
C397 C 0.01594 0.39077 0.58469 0.0
C398 C 1.00006 0.43663 0.56155 0.0
C399 C 0.99822 0.45344 0.61734 0.0
C400 C 1.01411 0.46818 0.62474 0.0
C401 C 0.0317 0.466 0.57272 0.0
C402 C 0.0336 0.449 0.51699 0.0
H403 H 0.02149 0.37509 0.602 0.0
H404 H 0.02469 0.40231 0.62276 0.0
H405 H 0.99937 0.39174 0.60249 0.0
H406 H 0.98744 0.42566 0.55747 0.0
H407 H 0.98433 0.45478 0.65546 0.0
H408 H 0.80117 1.00437 0.14706 0.0
H409 H 0.8336 0.99914 0.06836 0.0
H410 H 0.86355 0.0445 0.22791 0.0
H411 H 0.83152 0.04878 0.30888 0.0
H412 H 0.85367 0.02508 0.97252 0.0
H413 H 0.90765 1.00194 0.22729 0.0
H414 H 0.88006 1.00281 0.2436 0.0
H415 H 0.89541 0.02597 0.2527 0.0
C416 C 0.81488 1.01272 0.16672 0.0
C417 C 0.81382 0.02694 0.2343 0.0
C418 C 0.8334 1.0099 0.12125 0.0
C419 C 0.85132 0.02121 0.14235 0.0
C420 C 0.85028 0.03513 0.21112 0.0
H421 H 0.94874 0.05556 0.79125 0.0
H422 H 0.91841 0.05285 0.88312 0.0
C423 C 0.83185 0.0378 0.25688 0.0
C424 C 0.87052 0.0197 0.08875 0.0
H425 H 0.92324 1.01461 0.09819 0.0
C426 C 0.86882 0.02256 1.00023 0.0
C427 C 0.89044 0.01609 0.12375 0.0
C428 C 0.89349 1.0113 0.21691 0.0
C429 C 0.88631 0.02264 0.94675 0.0
C430 C 0.90634 0.02036 0.98248 0.0
C431 C 0.90802 0.01671 0.07049 0.0
C432 C 0.92561 0.02225 0.92975 0.0
C433 C 0.88305 0.02496 0.85205 0.0
C434 C 0.94053 1.0064 0.92782 0.0
C435 C 0.95819 1.00807 0.8758 0.0
C436 C 0.96129 0.02564 0.82471 0.0
C437 C 0.9467 0.0417 0.82888 0.0
C438 C 0.92921 0.0401 0.88107 0.0
H439 H 0.86737 0.01969 0.83273 0.0
H440 H 0.88446 0.0415 0.83465 0.0
H441 H 0.89469 0.01606 0.81529 0.0
H442 H 0.93831 0.99255 0.96528 0.0
H443 H 0.96919 0.99547 0.87432 0.0
H444 H 0.48294 0.83505 0.29288 0.0
H445 H 0.48729 0.86704 0.21155 0.0
H446 H 0.53345 0.83734 0.05585 0.0
H447 H 0.52818 0.80498 0.13461 0.0
H448 H 0.51764 0.89349 0.17978 0.0
H449 H 0.49471 0.85687 0.87466 0.0
H450 H 0.49233 0.84375 0.97531 0.0
H451 H 0.51697 0.8451 0.92231 0.0
C452 C 0.49398 0.83538 0.24115 0.0
C453 C 0.505 0.81742 0.21941 0.0
C454 C 0.49658 0.85372 0.1949 0.0
C455 C 0.51034 0.85465 0.12571 0.0
C456 C 0.52228 0.837 0.10712 0.0
H457 H 0.53906 0.97277 0.86246 0.0
H458 H 0.54117 0.9422 0.9551 0.0
C459 C 0.51952 0.81856 0.15302 0.0
C460 C 0.51155 0.87381 0.07196 0.0
H461 H 0.50584 0.89154 0.8679 0.0
C462 C 0.51512 0.89302 0.11151 0.0
C463 C 0.50792 0.87345 0.98282 0.0
C464 C 0.50256 0.85374 0.93628 0.0
C465 C 0.51511 0.91168 0.06496 0.0
C466 C 0.51193 0.91123 0.97559 0.0
C467 C 0.50849 0.89202 0.9361 0.0
C468 C 0.51081 0.93043 0.92213 0.0
C469 C 0.51774 0.93176 0.11262 0.0
C470 C 0.49326 0.93406 0.87145 0.0
C471 C 0.49218 0.95133 0.81799 0.0
C472 C 0.5086 0.96554 0.81342 0.0
C473 C 0.5261 0.96218 0.86486 0.0
C474 C 0.52725 0.94473 0.91827 0.0
H475 H 0.5145 0.92995 0.18171 0.0
H476 H 0.53393 0.93717 0.10575 0.0
H477 H 0.50735 0.94387 0.08671 0.0
H478 H 0.48033 0.92342 0.87292 0.0
H479 H 0.47843 0.95346 0.77951 0.0
H480 H 0.70034 0.49092 0.30733 0.0
H481 H 0.66863 0.49446 0.22301 0.0
H482 H 0.69876 0.53972 0.06451 0.0
H483 H 0.73086 0.53525 0.14648 0.0
H484 H 0.64205 0.52412 0.18535 0.0
H485 H 0.68027 0.4997 0.88603 0.0
H486 H 0.69298 0.49814 0.988 0.0
H487 H 0.69166 0.52237 0.93214 0.0
C488 C 0.70015 0.50161 0.25442 0.0
C489 C 0.71817 0.51259 0.23286 0.0
C490 C 0.68197 0.50373 0.20639 0.0
C491 C 0.68126 0.51697 0.1355 0.0
C492 C 0.69893 0.52893 0.11707 0.0
H493 H 0.56437 0.54375 0.8595 0.0
H494 H 0.59436 0.54606 0.95549 0.0
C495 C 0.71722 0.52664 0.1648 0.0
C496 C 0.6623 0.51761 0.07995 0.0
H497 H 0.64553 0.51052 0.87495 0.0
C498 C 0.64285 0.5212 0.11741 0.0
C499 C 0.66309 0.51343 0.99125 0.0
C500 C 0.68307 0.50798 0.947 0.0
C501 C 0.62438 0.52073 0.06923 0.0
C502 C 0.62527 0.51705 0.98022 0.0
C503 C 0.64471 0.51354 0.94283 0.0
C504 C 0.6063 0.51569 0.925 0.0
C505 C 0.60405 0.52342 0.11488 0.0
C506 C 0.60293 0.49804 0.87453 0.0
C507 C 0.58595 0.49682 0.81918 0.0
C508 C 0.57176 0.51319 0.81258 0.0
C509 C 0.57485 0.53076 0.86384 0.0
C510 C 0.592 0.53205 0.91906 0.0
H511 H 0.60555 0.52042 0.18428 0.0
H512 H 0.59865 0.53955 0.1067 0.0
H513 H 0.59207 0.51291 0.08848 0.0
H514 H 0.61358 0.48516 0.87748 0.0
H515 H 0.58405 0.48305 0.7807 0.0
H516 H 0.05252 0.70937 0.26177 0.0
H517 H 0.04734 0.67766 0.1797 0.0
H518 H 0.9864 0.69847 0.1085 0.0
H519 H 0.99231 0.73096 0.18605 0.0
H520 H 0.02331 0.64609 0.18037 0.0
H521 H 1.00796 0.68722 0.87778 0.0
H522 H 0.01625 0.70055 0.97259 0.0
H523 H 0.98953 0.6933 0.95916 0.0
C524 C 0.03804 0.70719 0.22834 0.0
C525 C 0.02299 0.72287 0.22932 0.0
C526 C 0.035 0.68895 0.18165 0.0
C527 C 0.01668 0.68566 0.13512 0.0
C528 C 1.001 0.70074 0.14089 0.0
H529 H 0.99729 0.56227 0.89263 0.0
H530 H 0.99522 0.5917 0.99141 0.0
C531 C 1.0042 0.71922 0.18667 0.0
C532 C 1.01453 0.66677 0.07941 0.0
H533 H 1.0047 0.65098 0.87492 0.0
C534 C 0.01921 0.64721 0.11356 0.0
C535 C 1.00947 0.66799 0.99153 0.0
C536 C 1.00572 0.68839 0.94778 0.0
C537 C 0.0193 0.62914 0.0629 0.0
C538 C 1.01383 0.63032 0.97543 0.0
C539 C 1.00878 0.64982 0.94175 0.0
C540 C 1.0146 0.61199 0.91602 0.0
C541 C 0.02621 0.60917 0.10323 0.0
C542 C 0.02549 0.61347 0.83872 0.0
C543 C 0.02624 0.59683 0.78159 0.0
C544 C 0.01634 0.57802 0.80013 0.0
C545 C 1.00538 0.57639 0.87715 0.0
C546 C 1.00432 0.59325 0.93398 0.0
H547 H 0.03545 0.61194 0.16185 0.0
H548 H 1.0124 0.60001 0.12151 0.0
H549 H 0.03565 0.59985 0.05841 0.0
H550 H 0.0336 0.62757 0.82245 0.0
H551 H 0.03482 0.59866 0.72285 0.0
H552 H 0.96683 0.25212 0.02449 0.0
H553 H 0.94966 0.21917 0.05442 0.0
H554 H 0.95518 0.23106 0.3241 0.0
H555 H 0.97329 0.2633 0.29369 0.0
H556 H 0.97641 0.1984 0.27703 0.0
H557 H 0.89774 0.19161 0.13975 0.0
H558 H 0.91652 0.2008 0.06473 0.0
H559 H 0.91028 0.21624 0.15654 0.0
C560 C 0.9637 0.24788 0.08989 0.0
C561 C 0.97143 0.25998 0.15691 0.0
C562 C 0.95371 0.2292 0.10707 0.0
C563 C 0.95118 0.22261 0.1916 0.0
C564 C 0.95694 0.23587 0.25841 0.0
H565 H 0.9393 0.10566 0.43591 0.0
H566 H 0.93034 0.14018 0.38742 0.0
C567 C 0.96719 0.2543 0.24119 0.0
C568 C 0.94732 0.20057 0.21046 0.0
H569 H 0.91496 0.15966 0.17482 0.0
C570 C 0.96275 0.19009 0.25597 0.0
C571 C 0.92977 0.1896 0.18097 0.0
C572 C 0.91254 0.20019 0.13342 0.0
C573 C 0.9613 0.16897 0.27207 0.0
C574 C 0.94385 0.15798 0.24259 0.0
C575 C 0.92829 0.16828 0.19722 0.0
C576 C 0.94213 0.13573 0.26004 0.0
C577 C 0.97868 0.15838 0.31924 0.0
C578 C 0.95067 0.12154 0.20257 0.0
C579 C 0.95573 0.10165 0.22986 0.0
C580 C 0.95251 0.09585 0.31522 0.0
C581 C 0.94192 0.10949 0.36969 0.0
C582 C 0.93673 0.12928 0.34213 0.0
H583 H 0.99198 0.16887 0.3312 0.0
H584 H 0.97295 0.15265 0.38148 0.0
H585 H 0.98425 0.14486 0.28232 0.0
H586 H 0.95505 0.1264 0.13907 0.0
H587 H 0.96344 0.09134 0.18583 0.0
H588 H 0.27041 0.94868 0.10799 0.0
H589 H 0.30193 0.92755 0.12733 0.0
H590 H 0.33055 0.97818 0.26245 0.0
H591 H 0.29932 0.9989 0.24309 0.0
H592 H 0.34239 0.93825 0.06899 0.0
H593 H 0.34186 0.92816 0.4168 0.0
H594 H 0.31869 0.93389 0.35672 0.0
H595 H 0.33573 0.95439 0.39055 0.0
C596 C 0.28341 0.95491 0.14314 0.0
C597 C 0.28271 0.97517 0.17486 0.0
C598 C 0.30129 0.94298 0.1539 0.0
C599 C 0.31835 0.95119 0.19779 0.0
C600 C 0.31736 0.97136 0.23036 0.0
H601 H 0.43458 0.97959 0.18679 0.0
H602 H 0.40201 0.96476 0.14026 0.0
C603 C 0.29967 0.98322 0.2191 0.0
C604 C 0.33809 0.93989 0.20493 0.0
H605 H 0.37606 0.93354 0.35205 0.0
C606 C 0.34968 0.9365 0.13077 0.0
C607 C 0.34735 0.9367 0.28525 0.0
C608 C 0.33513 0.93825 0.36677 0.0
C609 C 0.3711 0.93313 0.13534 0.0
C610 C 0.38095 0.93353 0.21588 0.0
C611 C 0.36874 0.93372 0.28988 0.0
C612 C 0.40323 0.93849 0.22568 0.0
C613 C 0.38307 0.93047 0.05376 0.0
C614 C 0.41522 0.92849 0.2878 0.0
C615 C 0.43371 0.93735 0.31629 0.0
C616 C 0.44046 0.95634 0.28299 0.0
C617 C 0.42954 0.96516 0.21482 0.0
C618 C 0.41104 0.95642 0.18693 0.0
H619 H 0.37407 0.92105 0.00757 0.0
H620 H 0.38567 0.9458 0.02411 0.0
H621 H 0.39826 0.92296 0.06485 0.0
H622 H 0.4095 0.9147 0.31889 0.0
H623 H 0.44177 0.93017 0.36897 0.0
H624 H 0.56159 0.28471 0.97685 0.0
H625 H 0.58034 0.31773 0.97192 0.0
H626 H 0.58302 0.31836 0.24649 0.0
H627 H 0.56453 0.2855 0.2507 0.0
H628 H 0.55996 0.35016 0.04343 0.0
H629 H 0.63766 0.34558 0.18572 0.0
H630 H 0.62468 0.32329 0.14114 0.0
H631 H 0.61939 0.33146 0.24874 0.0
C632 C 0.56715 0.29154 0.03556 0.0
C633 C 0.56192 0.28267 0.11413 0.0
C634 C 0.57773 0.31035 0.03281 0.0
C635 C 0.58321 0.32044 0.10874 0.0
C636 C 0.57949 0.31063 0.187 0.0
H637 H 0.57556 0.42137 0.39605 0.0
H638 H 0.58549 0.39017 0.32047 0.0
C639 C 0.56892 0.29187 0.18961 0.0
C640 C 0.58827 0.34272 0.10873 0.0
H641 H 0.61834 0.3776 0.21439 0.0
C642 C 0.57313 0.35632 0.0779 0.0
C643 C 0.60547 0.35068 0.15345 0.0
C644 C 0.62282 0.33694 0.18331 0.0
C645 C 0.57343 0.37732 0.09954 0.0
C646 C 0.5896 0.3849 0.1518 0.0
C647 C 0.60589 0.37171 0.17481 0.0
C648 C 0.58755 0.40484 0.197 0.0
C649 C 0.55537 0.39069 0.07353 0.0
C650 C 0.58611 0.42364 0.15302 0.0
C651 C 0.58039 0.44165 0.19639 0.0
C652 C 0.57617 0.44109 0.28433 0.0
C653 C 0.57893 0.42245 0.32865 0.0
C654 C 0.58458 0.40455 0.28542 0.0
H655 H 0.54277 0.38161 0.04347 0.0
H656 H 0.54889 0.3989 0.1296 0.0
H657 H 0.56066 0.40246 0.02709 0.0
H658 H 0.58861 0.42421 0.08487 0.0
H659 H 0.57871 0.45586 0.16077 0.0
H660 H 0.24909 0.47103 0.27506 0.0
H661 H 0.21522 0.45432 0.27493 0.0
H662 H 0.21568 0.45317 1.00021 0.0
H663 H 0.24972 0.4701 1.00099 0.0
H664 H 0.1849 0.47683 0.0684 0.0
H665 H 0.18413 0.4008 0.22516 0.0
H666 H 0.19972 0.41882 0.28373 0.0
H667 H 0.20718 0.41155 0.17728 0.0
C668 C 0.24241 0.46614 0.21505 0.0
C669 C 0.25189 0.47158 0.13813 0.0
C670 C 0.22308 0.45658 0.21477 0.0
C671 C 0.21297 0.45234 0.13745 0.0
C672 C 0.22328 0.45617 0.06045 0.0
H673 H 0.07976 0.47256 0.18958 0.0
H674 H 0.10899 0.45663 0.11507 0.0
C675 C 0.24267 0.46573 0.06086 0.0
C676 C 0.19036 0.44884 0.13841 0.0
H677 H 0.15347 0.42245 0.24854 0.0
C678 C 0.17783 0.46454 0.10505 0.0
C679 C 0.18123 0.43276 0.18604 0.0
C680 C 0.1938 0.41492 0.2193 0.0
C681 C 0.15689 0.46606 0.12699 0.0
C682 C 0.14815 0.451 0.18161 0.0
C683 C 0.16019 0.43403 0.20706 0.0
C684 C 0.12849 0.45505 0.22704 0.0
C685 C 0.14504 0.48497 0.09886 0.0
C686 C 0.12918 0.45788 0.31559 0.0
C687 C 0.11247 0.46656 0.35831 0.0
C688 C 0.09478 0.47279 0.31321 0.0
C689 C 0.09327 0.46809 0.22591 0.0
C690 C 0.11001 0.45913 0.18315 0.0
H691 H 0.15522 0.49669 0.06908 0.0
H692 H 0.13315 0.48044 0.05138 0.0
H693 H 0.13713 0.49235 0.15372 0.0
H694 H 0.14321 0.4547 0.35102 0.0
H695 H 0.11384 0.46944 0.42607 0.0
H696 H 0.08208 0.77845 0.36353 0.0
H697 H 0.10148 0.81142 0.36443 0.0
H698 H 0.05472 0.83852 0.20351 0.0
H699 H 0.0356 0.80586 0.20336 0.0
H700 H 0.10129 0.84648 0.1646 0.0
H701 H 0.07352 0.864 0.49256 0.0
H702 H 0.08346 0.83883 0.4641 0.0
H703 H 0.05859 0.8469 0.42615 0.0
C704 C 0.07647 0.79141 0.32668 0.0
C705 C 0.05763 0.78992 0.28268 0.0
C706 C 0.08738 0.81012 0.32761 0.0
C707 C 0.07946 0.82728 0.28399 0.0
C708 C 0.06111 0.82536 0.23694 0.0
H709 H 0.03688 0.93363 0.20761 0.0
H710 H 0.05149 0.90264 0.27108 0.0
C711 C 0.05026 0.80682 0.23651 0.0
C712 C 0.08883 0.84797 0.29119 0.0
H713 H 0.07952 0.89234 0.40109 0.0
C714 C 0.09752 0.85655 0.21763 0.0
C715 C 0.08394 0.86086 0.36091 0.0
C716 C 0.07445 0.85228 0.44096 0.0
C717 C 0.0987 0.87802 0.20726 0.0
C718 C 0.09115 0.891 0.27287 0.0
C719 C 0.08529 0.88232 0.35104 0.0
C720 C 0.08338 0.91187 0.25261 0.0
C721 C 0.10546 0.88651 0.12223 0.0
C722 C 0.09648 0.92778 0.2248 0.0
C723 C 0.08807 0.94555 0.18771 0.0
C724 C 0.06653 0.94745 0.1782 0.0
C725 C 0.05354 0.93231 0.21285 0.0
C726 C 0.06189 0.91471 0.24978 0.0
H727 H 0.11026 0.87416 0.07727 0.0
H728 H 0.09265 0.89539 0.09266 0.0
H729 H 0.11872 0.89717 0.13142 0.0
H730 H 0.11311 0.92598 0.2276 0.0
H731 H 0.09838 0.95713 0.16178 0.0
H732 H 0.74824 0.06771 0.17975 0.0
H733 H 0.71478 0.08511 0.18128 0.0
H734 H 0.71375 0.0818 0.45574 0.0
H735 H 0.74764 0.06469 0.45356 0.0
H736 H 0.68227 0.06087 0.37963 0.0
H737 H 0.686 0.13896 0.24191 0.0
H738 H 0.7009 0.12116 0.17964 0.0
H739 H 0.70831 0.12642 0.28823 0.0
C740 C 0.74139 0.07184 0.24033 0.0
C741 C 0.75043 0.06515 0.31651 0.0
C742 C 0.72227 0.08175 0.24141 0.0
C743 C 0.71186 0.08501 0.31877 0.0
C744 C 0.72165 0.07973 0.39552 0.0
H745 H 0.57642 0.07895 0.26067 0.0
H746 H 0.60807 0.08863 0.33739 0.0
C747 C 0.74093 0.07 0.39432 0.0
C748 C 0.68946 0.08949 0.31669 0.0
H749 H 0.65444 0.11917 0.2106 0.0
C750 C 0.676 0.07397 0.34541 0.0
C751 C 0.68138 0.10664 0.27236 0.0
C752 C 0.69494 0.12433 0.24461 0.0
C753 C 0.65508 0.07391 0.32221 0.0
C754 C 0.6474 0.09013 0.27084 0.0
C755 C 0.6604 0.10671 0.24962 0.0
C756 C 0.6275 0.08802 0.2253 0.0
C757 C 0.64191 0.0555 0.34593 0.0
C758 C 0.62786 0.08525 0.13675 0.0
C759 C 0.60997 0.07964 0.09308 0.0
C760 C 0.59128 0.07675 0.13707 0.0
C761 C 0.59067 0.08072 0.22526 0.0
C762 C 0.60867 0.08635 0.26908 0.0
H763 H 0.65126 0.04267 0.37241 0.0
H764 H 0.63041 0.06021 0.39462 0.0
H765 H 0.63338 0.04955 0.28963 0.0
H766 H 0.64228 0.08631 0.10191 0.0
H767 H 0.61111 0.07644 0.02553 0.0
H768 H 0.46363 0.75091 0.16786 0.0
H769 H 0.44558 0.71777 0.17512 0.0
H770 H 0.44855 0.71978 0.44941 0.0
H771 H 0.46672 0.75309 0.44157 0.0
H772 H 0.47177 0.68837 0.36955 0.0
H773 H 0.39158 0.6881 0.24861 0.0
H774 H 0.40851 0.70402 0.18616 0.0
H775 H 0.40354 0.71071 0.29553 0.0
C776 C 0.45937 0.74477 0.22953 0.0
C777 C 0.46633 0.75441 0.30416 0.0
C778 C 0.44905 0.72588 0.23384 0.0
C779 C 0.44565 0.71636 0.31293 0.0
C780 C 0.45094 0.72694 0.38792 0.0
H781 H 0.46433 0.58358 0.26299 0.0
H782 H 0.45067 0.61308 0.34209 0.0
C783 C 0.46122 0.74589 0.3835 0.0
C784 C 0.44184 0.69387 0.31477 0.0
H785 H 0.41164 0.65691 0.22269 0.0
C786 C 0.45834 0.6813 0.34025 0.0
C787 C 0.42432 0.68483 0.27626 0.0
C788 C 0.40588 0.69762 0.25079 0.0
C789 C 0.45897 0.6603 0.31897 0.0
C790 C 0.44208 0.65147 0.27409 0.0
C791 C 0.42458 0.66366 0.25684 0.0
C792 C 0.44422 0.63134 0.22977 0.0
C793 C 0.47868 0.64853 0.33669 0.0
C794 C 0.44318 0.631 0.14052 0.0
C795 C 0.45032 0.61395 0.09521 0.0
C796 C 0.45902 0.59701 0.13815 0.0
C797 C 0.45798 0.59645 0.2277 0.0
C798 C 0.45035 0.61341 0.27316 0.0
H799 H 0.49153 0.65888 0.35597 0.0
H800 H 0.47602 0.63741 0.38926 0.0
H801 H 0.48378 0.63982 0.27953 0.0
H802 H 0.43824 0.64452 0.10541 0.0
H803 H 0.45011 0.61456 0.02628 0.0
H804 H 0.78438 0.47219 0.18272 0.0
H805 H 0.81763 0.45441 0.18764 0.0
H806 H 0.81663 0.45686 0.46222 0.0
H807 H 0.78321 0.47488 0.45659 0.0
H808 H 0.84877 0.47822 0.39019 0.0
H809 H 0.84578 0.40024 0.2499 0.0
H810 H 0.8312 0.41815 0.18699 0.0
H811 H 0.82326 0.41272 0.29466 0.0
C812 C 0.79078 0.4679 0.24393 0.0
C813 C 0.78135 0.47462 0.31924 0.0
C814 C 0.80975 0.45774 0.24695 0.0
C815 C 0.81955 0.45417 0.32544 0.0
C816 C 0.80926 0.45937 0.40115 0.0
H817 H 0.95506 0.46128 0.27604 0.0
H818 H 0.92348 0.451 0.35163 0.0
C819 C 0.79023 0.46953 0.39801 0.0
C820 C 0.84194 0.44962 0.32601 0.0
H821 H 0.87749 0.42011 0.22217 0.0
C822 C 0.85523 0.46511 0.35647 0.0
C823 C 0.85026 0.43251 0.28203 0.0
C824 C 0.83684 0.41486 0.25235 0.0
C825 C 0.87627 0.46521 0.33532 0.0
C826 C 0.8842 0.4491 0.28389 0.0
C827 C 0.87134 0.43249 0.26118 0.0
C828 C 0.90415 0.45146 0.23906 0.0
C829 C 0.88928 0.4836 0.36087 0.0
C830 C 0.90386 0.45424 0.15054 0.0
C831 C 0.92172 0.46012 0.10749 0.0
C832 C 0.94031 0.46328 0.15209 0.0
C833 C 0.94088 0.45928 0.2402 0.0
C834 C 0.92291 0.45334 0.28339 0.0
H835 H 0.87992 0.49607 0.39027 0.0
H836 H 0.90114 0.47868 0.40774 0.0
H837 H 0.8974 0.49011 0.3047 0.0
H838 H 0.88951 0.45301 0.11524 0.0
H839 H 0.92062 0.46333 0.03996 0.0
H840 H 1.00884 0.26186 0.94175 0.0
H841 H 1.01204 0.22685 0.88177 0.0
H842 H 0.01802 0.20216 0.1356 0.0
H843 H 1.0141 0.2371 0.19474 0.0
H844 H 0.03971 0.19672 0.8801 0.0
H845 H 0.97159 0.16729 0.05546 0.0
H846 H 0.97864 0.1942 0.05599 0.0
H847 H 0.99165 0.17624 0.12513 0.0
C848 C 1.01133 0.24895 0.98426 0.0
C849 C 1.01151 0.25222 0.07276 0.0
C850 C 1.01298 0.22887 0.95015 0.0
C851 C 1.01476 0.2115 1.00374 0.0
C852 C 0.01604 0.215 0.0923 0.0
H853 H 0.02074 0.07794 0.93226 0.0
H854 H 0.02091 0.11346 0.98388 0.0
C855 C 1.01421 0.23504 0.12629 0.0
C856 C 1.01492 0.1899 0.96706 0.0
H857 H 0.99156 0.14241 0.98093 0.0
C858 C 0.02906 0.18492 0.90198 0.0
C859 C 1.00109 0.17421 0.99476 0.0
C860 C 0.98474 0.17827 0.06104 0.0
C861 C 0.03011 0.16489 0.86597 0.0
C862 C 0.01636 0.14924 0.8942 0.0
C863 C 1.00216 0.15423 0.95881 0.0
C864 C 0.01675 0.12744 0.86004 0.0
C865 C 0.04643 0.16054 0.79982 0.0
C866 C 1.01419 0.12304 0.77263 0.0
C867 C 1.01413 0.10249 0.74243 0.0
C868 C 0.01648 0.08575 0.79891 0.0
C869 C 0.01891 0.09026 0.8863 0.0
C870 C 0.01899 0.11071 0.91625 0.0
H871 H 0.05912 0.1721 0.80208 0.0
H872 H 0.05317 0.14492 0.80856 0.0
H873 H 0.03931 0.16123 0.73557 0.0
H874 H 1.0119 0.13548 0.72765 0.0
H875 H 1.01207 0.09974 0.67491 0.0
H876 H 0.28348 0.98343 0.98684 0.0
H877 H 0.3176 0.9882 0.92178 0.0
H878 H 0.32534 0.04505 0.06135 0.0
H879 H 0.29108 0.04002 0.12761 0.0
H880 H 0.34022 0.04529 0.88029 0.0
H881 H 0.3707 0.98036 0.07248 0.0
H882 H 0.34806 0.97418 0.01098 0.0
H883 H 0.34641 0.99275 0.09578 0.0
C884 C 0.29229 0.99718 1.00205 0.0
C885 C 0.28457 1.0114 0.06186 0.0
C886 C 0.31185 0.99984 0.96534 0.0
C887 C 0.32425 0.01686 0.98726 0.0
C888 C 0.31611 0.03178 0.04332 0.0
H889 H 0.45847 0.02172 0.92405 0.0
H890 H 0.42301 0.0218 0.97711 0.0
C891 C 0.29647 0.02903 0.0806 0.0
C892 C 0.34607 0.0182 0.95547 0.0
H893 H 0.39272 0.99329 0.96372 0.0
C894 C 0.35173 0.03397 0.89867 0.0
C895 C 0.36125 1.00362 0.98017 0.0
C896 C 0.35644 0.98686 0.0438 0.0
C897 C 0.37192 0.03526 0.86463 0.0
C898 C 0.38693 0.02021 0.88697 0.0
C899 C 0.38132 1.00472 0.94538 0.0
C900 C 0.40865 0.02053 0.85274 0.0
C901 C 0.3771 0.053 0.80624 0.0
C902 C 0.41273 0.01957 0.76466 0.0
C903 C 0.43318 0.01953 0.73375 0.0
C904 C 0.45012 0.02034 0.79016 0.0
C905 C 0.44595 0.02115 0.87825 0.0
C906 C 0.42557 0.02116 0.90897 0.0
H907 H 0.36604 0.06599 0.81378 0.0
H908 H 0.39298 0.05883 0.81842 0.0
H909 H 0.37628 0.04762 0.73919 0.0
H910 H 0.40008 0.01858 0.71961 0.0
H911 H 0.43569 0.01876 0.66564 0.0
H912 H 0.51353 0.27941 0.93768 0.0
H913 H 0.50887 0.3139 0.87443 0.0
H914 H 0.5202 0.34175 0.11975 0.0
H915 H 0.52423 0.30728 0.1826 0.0
H916 H 0.48966 0.36207 0.0354 0.0
H917 H 0.5568 0.35178 0.8209 0.0
H918 H 0.53646 0.33347 0.80149 0.0
H919 H 0.5501 0.33309 0.90122 0.0
C920 C 0.51432 0.29292 0.97822 0.0
C921 C 0.51891 0.2907 0.06518 0.0
C922 C 0.51205 0.31266 0.94193 0.0
C923 C 0.51459 0.33063 0.9917 0.0
C924 C 0.51818 0.32828 0.07957 0.0
H925 H 0.52106 0.46423 0.92564 0.0
H926 H 0.52021 0.42878 0.97784 0.0
C927 C 0.52034 0.30858 0.11573 0.0
C928 C 0.51409 0.35182 0.95267 0.0
H929 H 0.53777 0.38285 0.8051 0.0
C930 C 0.50018 0.36655 0.98493 0.0
C931 C 0.52779 0.3579 0.88664 0.0
C932 C 0.54377 0.34331 0.851 0.0
C933 C 0.49945 0.38691 0.95303 0.0
C934 C 0.51334 0.39308 0.88788 0.0
C935 C 0.52708 0.37828 0.8548 0.0
C936 C 0.51421 0.41487 0.85488 0.0
C937 C 0.48351 0.40153 0.98882 0.0
C938 C 0.51196 0.41914 0.7674 0.0
C939 C 0.5127 0.43957 0.73682 0.0
C940 C 0.51577 0.45631 0.79294 0.0
C941 C 0.51838 0.45191 0.88025 0.0
C942 C 0.51775 0.43153 0.91057 0.0
H943 H 0.47025 0.39304 0.01706 0.0
H944 H 0.49069 0.41094 0.04006 0.0
H945 H 0.47754 0.41213 0.93903 0.0
H946 H 0.5094 0.40664 0.72267 0.0
H947 H 0.51073 0.44224 0.66923 0.0
H948 H 0.22951 0.51142 0.19803 0.0
H949 H 0.19512 0.51654 0.13512 0.0
H950 H 0.22296 0.52292 0.88707 0.0
H951 H 0.25734 0.5172 0.95053 0.0
H952 H 0.17611 0.54681 0.04436 0.0
H953 H 0.18254 0.47639 0.84549 0.0
H954 H 0.20179 0.48328 0.92358 0.0
H955 H 0.20176 0.49549 0.82091 0.0
C956 C 0.22825 0.51446 0.13043 0.0
C957 C 0.24608 0.51419 0.07927 0.0
C958 C 0.20859 0.51725 0.09428 0.0
C959 C 0.20622 0.51976 0.00579 0.0
C960 C 0.22419 0.52061 0.95516 0.0
H961 H 0.09454 0.5246 0.68401 0.0
H962 H 0.13012 0.52508 0.738 0.0
C963 C 0.24389 0.51772 0.99148 0.0
C964 C 0.18495 0.52081 0.96713 0.0
H965 H 0.15234 0.49662 0.82634 0.0
C966 C 0.17098 0.53584 0.99655 0.0
C967 C 0.17801 0.50651 0.90466 0.0
C968 C 0.19172 0.48938 0.87231 0.0
C969 C 0.15053 0.53705 0.96528 0.0
C970 C 0.14351 0.52259 0.90366 0.0
C971 C 0.15756 0.50774 0.87339 0.0
C972 C 0.12164 0.5224 0.87081 0.0
C973 C 0.13674 0.55408 0.99789 0.0
C974 C 0.10479 0.5204 0.92682 0.0
C975 C 0.08437 0.52024 0.8961 0.0
C976 C 0.08014 0.52181 0.8082 0.0
C977 C 0.09706 0.52345 0.75204 0.0
C978 C 0.1175 0.5237 0.78293 0.0
H979 H 0.14589 0.56723 0.02353 0.0
H980 H 0.12638 0.55994 0.94694 0.0
H981 H 0.12702 0.548 0.0504 0.0
H982 H 0.10741 0.51876 0.99459 0.0
H983 H 0.07187 0.51873 0.94154 0.0
H984 H 0.99373 0.79835 0.31795 0.0
H985 H 0.98899 0.83234 0.38568 0.0
H986 H 0.04333 0.82178 0.53914 0.0
H987 H 0.0473 0.78769 0.47414 0.0
H988 H 0.01939 0.84293 0.62897 0.0
H989 H 0.02008 0.88176 0.31604 0.0
H990 H 0.99872 0.86429 0.32507 0.0
H991 H 0.02482 0.85451 0.32729 0.0
C992 C 1.00418 0.8031 0.36819 0.0
C993 C 0.02084 0.79034 0.39103 0.0
C994 C 1.00181 0.82277 0.40566 0.0
C995 C 0.01628 0.83031 0.46562 0.0
C996 C 0.03201 0.81678 0.49261 0.0
H997 H 0.0358 0.96328 0.54761 0.0
H998 H 0.03659 0.92732 0.49972 0.0
C999 C 0.03426 0.79716 0.4557 0.0
C1000 C 1.0157 0.85229 0.49835 0.0
H1001 H 1.01256 0.90285 0.43529 0.0
C1002 C 0.01792 0.856 0.58631 0.0
C1003 C 1.01455 0.86968 0.44345 0.0
C1004 C 1.01467 0.86741 0.34774 0.0
C1005 C 0.01883 0.87621 0.62053 0.0
C1006 C 0.01625 0.89359 0.56625 0.0
C1007 C 1.0142 0.88984 0.47813 0.0
C1008 C 0.01623 0.9157 0.5984 0.0
C1009 C 0.02355 0.87847 0.71424 0.0
C1010 C 1.00459 0.92177 0.67029 0.0
C1011 C 1.00481 0.94234 0.69973 0.0
C1012 C 0.01591 0.9577 0.65597 0.0
C1013 C 0.02706 0.95186 0.58288 0.0
C1014 C 0.02742 0.93119 0.55519 0.0
H1015 H 0.03239 0.86499 0.73849 0.0
H1016 H 0.03267 0.89264 0.72753 0.0
H1017 H 1.00884 0.87916 0.75043 0.0
H1018 H 0.99502 0.91068 0.70339 0.0
H1019 H 0.99577 0.94635 0.75536 0.0
H1020 H 0.7538 0.01976 0.49602 0.0
H1021 H 0.71896 0.01521 0.55671 0.0
H1022 H 0.69259 0.02079 0.30551 0.0
H1023 H 0.72741 0.02509 0.2456 0.0
H1024 H 0.68698 0.0445 0.54684 0.0
H1025 H 0.66149 0.97084 0.40019 0.0
H1026 H 0.6883 0.97859 0.40364 0.0
H1027 H 0.67116 0.98943 0.32537 0.0
C1028 C 0.74057 0.01913 0.45379 0.0
C1029 C 0.74329 0.02217 0.36596 0.0
C1030 C 0.72065 0.01684 0.48842 0.0
C1031 C 0.70301 0.01738 0.4358 0.0
C1032 C 0.70584 0.01977 0.34751 0.0
H1033 H 0.56928 0.01911 0.50111 0.0
H1034 H 0.6049 0.01915 0.4494 0.0
C1035 C 0.72574 0.02212 0.3131 0.0
C1036 C 0.68168 0.01693 0.47341 0.0
H1037 H 0.6355 0.99103 0.46754 0.0
C1038 C 0.67581 0.03265 0.53035 0.0
C1039 C 0.6669 1.00168 0.45113 0.0
C1040 C 0.67227 0.98406 0.39231 0.0
C1041 C 0.65556 0.03386 0.56354 0.0
C1042 C 0.64076 0.01857 0.54148 0.0
C1043 C 0.64671 1.00276 0.48502 0.0
C1044 C 0.61894 0.01891 0.57449 0.0
C1045 C 0.64998 0.05205 0.61902 0.0
C1046 C 0.61466 0.01865 0.66245 0.0
C1047 C 0.59416 0.01872 0.6925 0.0
C1048 C 0.57734 0.01887 0.63537 0.0
C1049 C 0.5817 0.01899 0.54737 0.0
C1050 C 0.60217 0.01898 0.51747 0.0
H1051 H 0.66093 0.06511 0.6103 0.0
H1052 H 0.6341 0.05758 0.60493 0.0
H1053 H 0.6506 0.04731 0.68685 0.0
H1054 H 0.6272 0.01813 0.70812 0.0
H1055 H 0.5915 0.01851 0.76058 0.0
H1056 H 0.50532 0.73048 0.23526 0.0
H1057 H 0.51036 0.69613 0.29813 0.0
H1058 H 0.51929 0.72419 0.5447 0.0
H1059 H 0.51388 0.75855 0.48119 0.0
H1060 H 0.54143 0.67689 0.38778 0.0
H1061 H 0.47167 0.68482 0.58943 0.0
H1062 H 0.47891 0.70407 0.51226 0.0
H1063 H 0.49143 0.70339 0.61431 0.0
C1064 C 0.50894 0.72927 0.30241 0.0
C1065 C 0.50953 0.74715 0.3532 0.0
C1066 C 0.51169 0.70964 0.33856 0.0
C1067 C 0.51488 0.70737 0.42672 0.0
C1068 C 0.5165 0.72537 0.47689 0.0
H1069 H 0.51771 0.59654 0.75128 0.0
H1070 H 0.51811 0.63192 0.69612 0.0
C1071 C 0.51375 0.74504 0.44052 0.0
C1072 C 0.51573 0.68619 0.46572 0.0
H1073 H 0.49133 0.65421 0.60756 0.0
C1074 C 0.53049 0.67198 0.43601 0.0
C1075 C 0.50151 0.67959 0.5289 0.0
C1076 C 0.48486 0.69368 0.56262 0.0
C1077 C 0.53152 0.6516 0.46768 0.0
C1078 C 0.51703 0.64486 0.52962 0.0
C1079 C 0.50244 0.65917 0.5601 0.0
C1080 C 0.51664 0.62309 0.56322 0.0
C1081 C 0.54848 0.63767 0.4354 0.0
C1082 C 0.51523 0.60607 0.50765 0.0
C1083 C 0.51523 0.58576 0.53908 0.0
C1084 C 0.51622 0.5818 0.62728 0.0
C1085 C 0.51698 0.59886 0.68304 0.0
C1086 C 0.51721 0.61919 0.65144 0.0
H1087 H 0.56181 0.64672 0.41088 0.0
H1088 H 0.55412 0.62716 0.48614 0.0
H1089 H 0.54243 0.62818 0.38201 0.0
H1090 H 0.51401 0.60846 0.4396 0.0
H1091 H 0.51433 0.57312 0.49395 0.0
H1092 H 0.80516 0.51328 0.25144 0.0
H1093 H 0.83955 0.51821 0.31499 0.0
H1094 H 0.81133 0.52772 0.56063 0.0
H1095 H 0.77694 0.52228 0.49657 0.0
H1096 H 0.85872 0.54946 0.40277 0.0
H1097 H 0.85097 0.48078 0.61004 0.0
H1098 H 0.83191 0.4873 0.53075 0.0
H1099 H 0.83204 0.50035 0.63177 0.0
C1100 C 0.80635 0.51699 0.31853 0.0
C1101 C 0.7884 0.51773 0.36888 0.0
C1102 C 0.82601 0.51966 0.35509 0.0
C1103 C 0.82825 0.52301 0.4432 0.0
C1104 C 0.81019 0.52478 0.4929 0.0
H1105 H 0.93995 0.52753 0.76776 0.0
H1106 H 0.90426 0.52824 0.71425 0.0
C1107 C 0.7905 0.52205 0.45617 0.0
C1108 C 0.84945 0.52412 0.48253 0.0
H1109 H 0.88143 0.50082 0.62776 0.0
C1110 C 0.86364 0.53883 0.45207 0.0
C1111 C 0.85606 0.51033 0.54724 0.0
C1112 C 0.84204 0.49367 0.5814 0.0
C1113 C 0.88397 0.54023 0.4845 0.0
C1114 C 0.89073 0.52617 0.548 0.0
C1115 C 0.87645 0.51164 0.57927 0.0
C1116 C 0.91261 0.52594 0.58107 0.0
C1117 C 0.89784 0.55714 0.45124 0.0
C1118 C 0.92943 0.52407 0.52486 0.0
C1119 C 0.94985 0.5239 0.55527 0.0
C1120 C 0.95419 0.52522 0.64318 0.0
C1121 C 0.93733 0.52663 0.69972 0.0
C1122 C 0.91684 0.52699 0.66906 0.0
H1123 H 0.88871 0.57031 0.42605 0.0
H1124 H 0.90839 0.563 0.50161 0.0
H1125 H 0.90731 0.55097 0.39812 0.0
H1126 H 0.92678 0.5225 0.45706 0.0
H1127 H 0.96227 0.52244 0.50944 0.0
loop_
_geom_bond_atom_site_label_1
_geom_bond_atom_site_label_2
_geom_bond_distance
_geom_bond_site_symmetry_2
_ccdc_geom_bond_type
C0 N1 1.317 . S
C0 N2 1.348 . S
C0 C3 1.485 . S
N1 C0 1.317 . S
N1 N5 1.370 . S
N2 C0 1.348 . S
N2 C4 1.346 . S
C3 C0 1.485 . S
C3 H7 0.960 . S
C3 H8 0.961 . S
C3 H9 0.960 . S
C4 N2 1.346 . S
C4 N5 1.307 . S
C4 C6 1.486 . S
N5 N1 1.370 . S
N5 C4 1.307 . S
C6 C4 1.486 . S
C6 H10 0.960 . S
C6 H11 0.960 . S
C6 H12 0.959 . S
H7 C3 0.960 . S
H8 C3 0.961 . S
H9 C3 0.960 . S
H10 C6 0.960 . S
H11 C6 0.960 . S
H12 C6 0.959 . S
C13 N14 1.317 . S
C13 N15 1.350 . S
C13 C16 1.485 . S
N14 C13 1.317 . S
N14 N18 1.371 . S
N15 C13 1.350 . S
N15 C17 1.345 1_655 S
C16 C13 1.485 . S
C16 H20 0.960 1_655 S
C16 H21 0.961 . S
C16 H22 0.960 . S
C17 N15 1.345 1_455 S
C17 N18 1.307 1_455 S
C17 C19 1.485 . S
N18 N14 1.371 . S
N18 C17 1.307 1_655 S
C19 C17 1.485 . S
C19 H23 0.925 1_455 S
C19 H24 0.989 . S
C19 H25 0.967 . S
H20 C16 0.960 1_455 S
H21 C16 0.961 . S
H22 C16 0.960 . S
H23 C19 0.925 1_655 S
H24 C19 0.989 . S
H25 C19 0.967 . S
C26 N27 1.317 . S
C26 N28 1.350 . S
C26 C29 1.485 . S
N27 C26 1.317 . S
N27 N31 1.371 . S
N28 C26 1.350 . S
N28 C30 1.345 1_565 S
C29 C26 1.485 . S
C29 H33 0.960 1_565 S
C29 H34 0.961 . S
C29 H35 0.960 . S
C30 N28 1.345 1_545 S
C30 N31 1.307 1_545 S
C30 C32 1.486 . S
N31 N27 1.371 . S
N31 C30 1.307 1_565 S
C32 C30 1.486 . S
C32 H36 0.925 1_545 S
C32 H37 0.989 . S
C32 H38 0.967 . S
H33 C29 0.960 1_545 S
H34 C29 0.961 . S
H35 C29 0.960 . S
H36 C32 0.925 1_565 S
H37 C32 0.989 . S
H38 C32 0.967 . S
C39 N40 1.317 . S
C39 N41 1.348 . S
C39 C42 1.485 . S
N40 C39 1.317 . S
N40 N44 1.370 . S
N41 C39 1.348 . S
N41 C43 1.346 . S
C42 C39 1.485 . S
C42 H46 0.960 . S
C42 H47 0.961 . S
C42 H48 0.960 . S
C43 N41 1.346 . S
C43 N44 1.307 . S
C43 C45 1.486 . S
N44 N40 1.370 . S
N44 C43 1.307 . S
C45 C43 1.486 . S
C45 H49 0.960 . S
C45 H50 0.960 . S
C45 H51 0.959 . S
H46 C42 0.960 . S
H47 C42 0.961 . S
H48 C42 0.960 . S
H49 C45 0.960 . S
H50 C45 0.960 . S
H51 C45 0.959 . S
C52 N53 1.317 . S
C52 N54 1.348 1_556 S
C52 C55 1.485 . S
N53 C52 1.317 . S
N53 N57 1.370 1_556 S
N54 C52 1.348 1_554 S
N54 C56 1.346 . S
C55 C52 1.485 . S
C55 H59 0.960 . S
C55 H60 0.961 . S
C55 H61 0.960 . S
C56 N54 1.346 . S
C56 N57 1.307 . S
C56 C58 1.486 . S
N57 N53 1.370 1_554 S
N57 C56 1.307 . S
C58 C56 1.486 . S
C58 H62 0.960 . S
C58 H63 0.960 . S
C58 H64 0.959 . S
H59 C55 0.960 . S
H60 C55 0.961 . S
H61 C55 0.960 . S
H62 C58 0.960 . S
H63 C58 0.960 . S
H64 C58 0.959 . S
C65 N66 1.319 . S
C65 N67 1.350 1_556 S
C65 C68 1.485 . S
N66 C65 1.319 . S
N66 N70 1.369 1_556 S
N67 C65 1.350 1_554 S
N67 C69 1.345 1_655 S
C68 C65 1.485 . S
C68 H72 0.960 1_655 S
C68 H73 0.961 . S
C68 H74 0.960 . S
C69 N67 1.345 1_455 S
C69 N70 1.307 1_455 S
C69 C71 1.485 . S
N70 N66 1.369 1_554 S
N70 C69 1.307 1_655 S
C71 C69 1.485 . S
C71 H75 0.913 1_455 S
C71 H76 0.999 . S
C71 H77 0.970 . S
H72 C68 0.960 1_455 S
H73 C68 0.961 . S
H74 C68 0.960 . S
H75 C71 0.913 1_655 S
H76 C71 0.999 . S
H77 C71 0.970 . S
C78 N79 1.319 . S
C78 N80 1.350 1_556 S
C78 C81 1.485 . S
N79 C78 1.319 . S
N79 N83 1.369 1_556 S
N80 C78 1.350 1_554 S
N80 C82 1.345 1_565 S
C81 C78 1.485 . S
C81 H85 0.960 1_565 S
C81 H86 0.961 . S
C81 H87 0.960 . S
C82 N80 1.345 1_545 S
C82 N83 1.307 1_545 S
C82 C84 1.485 . S
N83 N79 1.369 1_554 S
N83 C82 1.307 1_565 S
C84 C82 1.485 . S
C84 H88 0.913 1_545 S
C84 H89 0.999 . S
C84 H90 0.970 . S
H85 C81 0.960 1_545 S
H86 C81 0.961 . S
H87 C81 0.960 . S
H88 C84 0.913 1_565 S
H89 C84 0.999 . S
H90 C84 0.970 . S
C91 N92 1.317 . S
C91 N93 1.348 1_556 S
C91 C94 1.485 . S
N92 C91 1.317 . S
N92 N96 1.370 1_556 S
N93 C91 1.348 1_554 S
N93 C95 1.346 . S
C94 C91 1.485 . S
C94 H98 0.960 . S
C94 H99 0.961 . S
C94 H100 0.960 . S
C95 N93 1.346 . S
C95 N96 1.307 . S
C95 C97 1.486 . S
N96 N92 1.370 1_554 S
N96 C95 1.307 . S
C97 C95 1.486 . S
C97 H101 0.960 . S
C97 H102 0.960 . S
C97 H103 0.959 . S
H98 C94 0.960 . S
H99 C94 0.961 . S
H100 C94 0.960 . S
H101 C97 0.960 . S
H102 C97 0.960 . S
H103 C97 0.959 . S
La104 C106 2.928 . S
La104 O124 2.521 . S
La104 O125 2.636 . S
La104 O126 2.554 . S
La104 O127 2.757 1_565 S
La104 O128 2.470 . S
La104 O133 2.482 1_455 S
La104 O135 2.503 1_565 S
La105 C115 2.928 . S
La105 O127 2.482 1_655 S
La105 O129 2.503 1_545 S
La105 O130 2.521 . S
La105 O131 2.631 . S
La105 O132 2.554 . S
La105 O133 2.757 1_545 S
La105 O134 2.470 . S
C106 La104 2.928 . S
C106 C107 1.503 . S
C106 O124 1.261 . S
C106 O125 1.263 . S
C107 C106 1.503 . S
C107 C108 1.394 . S
C107 C112 1.373 . S
C108 C107 1.394 . S
C108 C109 1.380 . S
C108 H136 0.930 . S
C109 C108 1.380 . S
C109 C110 1.376 1_556 S
C109 H137 0.930 1_556 S
C110 C109 1.376 1_554 S
C110 C111 1.370 . S
C111 C110 1.370 . S
C111 C112 1.396 1_554 S
C111 H138 0.929 1_455 S
C112 C107 1.373 . S
C112 C111 1.396 1_556 S
C112 H139 0.929 1_455 S
C113 O126 1.266 . S
C113 O127 1.274 1_565 S
C114 O128 1.258 1_655 S
C114 O129 1.256 . S
C115 La105 2.928 . S
C115 C116 1.503 . S
C115 O130 1.261 . S
C115 O131 1.251 . S
C116 C115 1.503 . S
C116 C117 1.394 . S
C116 C121 1.373 . S
C117 C116 1.394 . S
C117 C118 1.380 . S
C117 H140 0.930 . S
C118 C117 1.380 . S
C118 C119 1.376 . S
C118 H141 0.930 . S
C119 C118 1.376 . S
C119 C120 1.370 . S
C120 C119 1.370 . S
C120 C121 1.396 . S
C120 H142 0.929 1_655 S
C121 C116 1.373 . S
C121 C120 1.396 . S
C121 H143 0.929 1_655 S
C122 O132 1.240 . S
C122 O133 1.289 1_545 S
C123 O134 1.258 1_455 S
C123 O135 1.256 . S
O124 La104 2.521 . S
O124 C106 1.261 . S
O125 La104 2.636 . S
O125 C106 1.263 . S
O126 La104 2.554 . S
O126 C113 1.266 . S
O127 La104 2.757 1_545 S
O127 La105 2.482 1_455 S
O127 C113 1.274 1_545 S
O128 La104 2.470 . S
O128 C114 1.258 1_455 S
O129 La105 2.503 1_565 S
O129 C114 1.256 . S
O130 La105 2.521 . S
O130 C115 1.261 . S
O131 La105 2.631 . S
O131 C115 1.251 . S
O132 La105 2.554 . S
O132 C122 1.240 . S
O133 La104 2.482 1_655 S
O133 La105 2.757 1_565 S
O133 C122 1.289 1_565 S
O134 La105 2.470 . S
O134 C123 1.258 1_655 S
O135 La104 2.503 1_545 S
O135 C123 1.256 . S
H136 C108 0.930 . S
H137 C109 0.930 1_554 S
H138 C111 0.929 1_655 S
H139 C112 0.929 1_655 S
H140 C117 0.930 . S
H141 C118 0.930 . S
H142 C120 0.929 1_455 S
H143 C121 0.929 1_455 S
La144 C146 2.928 . S
La144 O164 2.521 . S
La144 O165 2.636 . S
La144 O166 2.554 . S
La144 O167 2.757 . S
La144 O168 2.470 . S
La144 O173 2.482 1_545 S
La144 O175 2.503 . S
La145 C155 2.928 . S
La145 O167 2.482 1_565 S
La145 O169 2.503 . S
La145 O170 2.521 . S
La145 O171 2.631 . S
La145 O172 2.554 . S
La145 O173 2.757 . S
La145 O174 2.470 . S
C146 La144 2.928 . S
C146 C147 1.503 . S
C146 O164 1.261 . S
C146 O165 1.262 . S
C147 C146 1.503 . S
C147 C148 1.394 . S
C147 C152 1.373 . S
C148 C147 1.394 . S
C148 C149 1.380 . S
C148 H176 0.930 . S
C149 C148 1.380 . S
C149 C150 1.376 1_556 S
C149 H177 0.930 1_556 S
C150 C149 1.376 1_554 S
C150 C151 1.370 . S
C151 C150 1.370 . S
C151 C152 1.396 1_554 S
C151 H178 0.929 1_545 S
C152 C147 1.373 . S
C152 C151 1.396 1_556 S
C152 H179 0.929 1_545 S
C153 O166 1.240 . S
C153 O167 1.289 . S
C154 O168 1.258 1_565 S
C154 O169 1.256 . S
C155 La145 2.928 . S
C155 C156 1.503 . S
C155 O170 1.261 . S
C155 O171 1.250 . S
C156 C155 1.503 . S
C156 C157 1.394 . S
C156 C161 1.373 . S
C157 C156 1.394 . S
C157 C158 1.380 . S
C157 H180 0.930 . S
C158 C157 1.380 . S
C158 C159 1.376 . S
C158 H181 0.930 . S
C159 C158 1.376 . S
C159 C160 1.370 . S
C160 C159 1.370 . S
C160 C161 1.396 . S
C160 H182 0.929 1_565 S
C161 C156 1.373 . S
C161 C160 1.396 . S
C161 H183 0.929 1_565 S
C162 O172 1.240 . S
C162 O173 1.289 . S
C163 O174 1.258 1_545 S
C163 O175 1.256 . S
O164 La144 2.521 . S
O164 C146 1.261 . S
O165 La144 2.636 . S
O165 C146 1.262 . S
O166 La144 2.554 . S
O166 C153 1.240 . S
O167 La144 2.757 . S
O167 La145 2.482 1_545 S
O167 C153 1.289 . S
O168 La144 2.470 . S
O168 C154 1.258 1_545 S
O169 La145 2.503 . S
O169 C154 1.256 . S
O170 La145 2.521 . S
O170 C155 1.261 . S
O171 La145 2.631 . S
O171 C155 1.250 . S
O172 La145 2.554 . S
O172 C162 1.240 . S
O173 La144 2.482 1_565 S
O173 La145 2.757 . S
O173 C162 1.289 . S
O174 La145 2.470 . S
O174 C163 1.258 1_565 S
O175 La144 2.503 . S
O175 C163 1.256 . S
H176 C148 0.930 . S
H177 C149 0.930 1_554 S
H178 C151 0.929 1_565 S
H179 C152 0.929 1_565 S
H180 C157 0.930 . S
H181 C158 0.930 . S
H182 C160 0.929 1_545 S
H183 C161 0.929 1_545 S
La184 C186 2.928 . S
La184 O204 2.521 . S
La184 O205 2.628 . S
La184 O206 2.554 . S
La184 O207 2.757 . S
La184 O208 2.470 . S
La184 O213 2.482 . S
La184 O215 2.503 . S
La185 C195 2.928 . S
La185 O207 2.482 . S
La185 O209 2.503 . S
La185 O210 2.521 . S
La185 O211 2.628 . S
La185 O212 2.554 . S
La185 O213 2.757 . S
La185 O214 2.470 . S
C186 La184 2.928 . S
C186 C187 1.503 . S
C186 O204 1.261 . S
C186 O205 1.243 . S
C187 C186 1.503 . S
C187 C188 1.394 . S
C187 C192 1.373 . S
C188 C187 1.394 . S
C188 C189 1.380 . S
C188 H216 0.930 . S
C189 C188 1.380 . S
C189 C190 1.376 1_556 S
C189 H217 0.930 1_556 S
C190 C189 1.376 1_554 S
C190 C191 1.370 . S
C191 C190 1.370 . S
C191 C192 1.396 1_554 S
C191 H218 0.929 . S
C192 C187 1.373 . S
C192 C191 1.396 1_556 S
C192 H219 0.929 . S
C193 O206 1.240 . S
C193 O207 1.289 . S
C194 O208 1.258 . S
C194 O209 1.256 . S
C195 La185 2.928 . S
C195 C196 1.503 . S
C195 O210 1.261 . S
C195 O211 1.243 . S
C196 C195 1.503 . S
C196 C197 1.394 . S
C196 C201 1.373 . S
C197 C196 1.394 . S
C197 C198 1.380 . S
C197 H220 0.930 . S
C198 C197 1.380 . S
C198 C199 1.376 . S
C198 H221 0.930 . S
C199 C198 1.376 . S
C199 C200 1.370 . S
C200 C199 1.370 . S
C200 C201 1.396 . S
C200 H222 0.929 . S
C201 C196 1.373 . S
C201 C200 1.396 . S
C201 H223 0.929 . S
C202 O212 1.240 . S
C202 O213 1.289 . S
C203 O214 1.258 . S
C203 O215 1.256 . S
O204 La184 2.521 . S
O204 C186 1.261 . S
O205 La184 2.628 . S
O205 C186 1.243 . S
O206 La184 2.554 . S
O206 C193 1.240 . S
O207 La184 2.757 . S
O207 La185 2.482 . S
O207 C193 1.289 . S
O208 La184 2.470 . S
O208 C194 1.258 . S
O209 La185 2.503 . S
O209 C194 1.256 . S
O210 La185 2.521 . S
O210 C195 1.261 . S
O211 La185 2.628 . S
O211 C195 1.243 . S
O212 La185 2.554 . S
O212 C202 1.240 . S
O213 La184 2.482 . S
O213 La185 2.757 . S
O213 C202 1.289 . S
O214 La185 2.470 . S
O214 C203 1.258 . S
O215 La184 2.503 . S
O215 C203 1.256 . S
H216 C188 0.930 . S
H217 C189 0.930 1_554 S
H218 C191 0.929 . S
H219 C192 0.929 . S
H220 C197 0.930 . S
H221 C198 0.930 . S
H222 C200 0.929 . S
H223 C201 0.929 . S
La224 C226 2.928 . S
La224 O244 2.521 . S
La224 O245 2.628 . S
La224 O246 2.554 . S
La224 O247 2.757 1_655 S
La224 O248 2.470 . S
La224 O253 2.482 . S
La224 O255 2.503 1_655 S
La225 C235 2.928 . S
La225 O247 2.482 . S
La225 O249 2.503 1_455 S
La225 O250 2.521 . S
La225 O251 2.628 . S
La225 O252 2.554 . S
La225 O253 2.757 1_455 S
La225 O254 2.470 . S
C226 La224 2.928 . S
C226 C227 1.503 . S
C226 O244 1.261 . S
C226 O245 1.243 . S
C227 C226 1.503 . S
C227 C228 1.394 . S
C227 C232 1.373 . S
C228 C227 1.394 . S
C228 C229 1.380 . S
C228 H256 0.930 . S
C229 C228 1.380 . S
C229 C230 1.376 1_556 S
C229 H257 0.930 1_556 S
C230 C229 1.376 1_554 S
C230 C231 1.370 . S
C231 C230 1.370 . S
C231 C232 1.396 1_554 S
C231 H258 0.929 . S
C232 C227 1.373 . S
C232 C231 1.396 1_556 S
C232 H259 0.929 . S
C233 O246 1.264 . S
C233 O247 1.275 1_655 S
C234 O248 1.258 . S
C234 O249 1.256 . S
C235 La225 2.928 . S
C235 C236 1.503 . S
C235 O250 1.261 . S
C235 O251 1.243 . S
C236 C235 1.503 . S
C236 C237 1.394 . S
C236 C241 1.373 . S
C237 C236 1.394 . S
C237 C238 1.380 . S
C237 H260 0.930 . S
C238 C237 1.380 . S
C238 C239 1.376 . S
C238 H261 0.930 . S
C239 C238 1.376 . S
C239 C240 1.370 . S
C240 C239 1.370 . S
C240 C241 1.396 . S
C240 H262 0.929 . S
C241 C236 1.373 . S
C241 C240 1.396 . S
C241 H263 0.929 . S
C242 O252 1.271 . S
C242 O253 1.271 1_455 S
C243 O254 1.258 . S
C243 O255 1.256 . S
O244 La224 2.521 . S
O244 C226 1.261 . S
O245 La224 2.628 . S
O245 C226 1.243 . S
O246 La224 2.554 . S
O246 C233 1.264 . S
O247 La224 2.757 1_455 S
O247 La225 2.482 . S
O247 C233 1.275 1_455 S
O248 La224 2.470 . S
O248 C234 1.258 . S
O249 La225 2.503 1_655 S
O249 C234 1.256 . S
O250 La225 2.521 . S
O250 C235 1.261 . S
O251 La225 2.628 . S
O251 C235 1.243 . S
O252 La225 2.554 . S
O252 C242 1.271 . S
O253 La224 2.482 . S
O253 La225 2.757 1_655 S
O253 C242 1.271 1_655 S
O254 La225 2.470 . S
O254 C243 1.258 . S
O255 La224 2.503 1_455 S
O255 C243 1.256 . S
H256 C228 0.930 . S
H257 C229 0.930 1_554 S
H258 C231 0.929 . S
H259 C232 0.929 . S
H260 C237 0.930 . S
H261 C238 0.930 . S
H262 C240 0.929 . S
H263 C241 0.929 . S
H264 C272 0.929 . S
H265 C274 0.930 . S
H266 C276 0.930 . S
H267 C279 0.929 . S
H268 C282 0.930 . S
H269 C284 0.960 . S
H270 C284 0.960 . S
H271 C284 0.960 . S
C272 H264 0.929 . S
C272 C273 1.393 . S
C272 C274 1.384 . S
C273 C272 1.393 . S
C273 C279 1.375 1_545 S
C274 H265 0.930 . S
C274 C272 1.384 . S
C274 C275 1.372 . S
C275 C274 1.372 . S
C275 C276 1.400 1_545 S
C275 C280 1.490 . S
C276 H266 0.930 . S
C276 C275 1.400 1_565 S
C276 C279 1.386 . S
H277 C293 0.930 . S
H278 C294 0.931 . S
C279 H267 0.929 . S
C279 C273 1.375 1_565 S
C279 C276 1.386 . S
C280 C275 1.490 . S
C280 C282 1.395 1_545 S
C280 C283 1.403 . S
H281 C287 0.930 . S
C282 H268 0.930 . S
C282 C280 1.395 1_565 S
C282 C285 1.403 . S
C283 C280 1.403 . S
C283 C284 1.524 . S
C283 C287 1.400 . S
C284 H269 0.960 . S
C284 H270 0.960 . S
C284 H271 0.960 . S
C284 C283 1.524 . S
C285 C282 1.403 . S
C285 C286 1.394 1_565 S
C285 C289 1.495 . S
C286 C285 1.394 1_545 S
C286 C287 1.383 . S
C286 C288 1.477 1_545 S
C287 H281 0.930 . S
C287 C283 1.400 . S
C287 C286 1.383 . S
C288 C286 1.477 1_565 S
C288 C290 1.369 1_565 S
C288 C294 1.395 . S
C289 C285 1.495 . S
C289 H295 0.959 . S
C289 H296 0.961 . S
C289 H297 0.960 . S
C290 C288 1.369 1_545 S
C290 C291 1.394 . S
C290 H298 0.930 . S
C291 C290 1.394 . S
C291 C292 1.403 . S
C291 H299 0.929 . S
C292 C291 1.403 . S
C292 C293 1.357 1_545 S
C293 H277 0.930 . S
C293 C292 1.357 1_565 S
C293 C294 1.379 . S
C294 H278 0.931 . S
C294 C288 1.395 . S
C294 C293 1.379 . S
H295 C289 0.959 . S
H296 C289 0.961 . S
H297 C289 0.960 . S
H298 C290 0.930 . S
H299 C291 0.929 . S
H300 C308 0.929 . S
H301 C310 0.930 . S
H302 C312 0.930 . S
H303 C315 0.929 . S
H304 C318 0.930 . S
H305 C320 0.960 . S
H306 C320 0.960 . S
H307 C320 0.960 . S
C308 H300 0.929 . S
C308 C309 1.377 . S
C308 C310 1.384 . S
C309 C308 1.377 . S
C309 C315 1.390 . S
C310 H301 0.930 . S
C310 C308 1.384 . S
C310 C311 1.372 . S
C311 C310 1.372 . S
C311 C312 1.400 . S
C311 C316 1.490 . S
C312 H302 0.930 . S
C312 C311 1.400 . S
C312 C315 1.386 . S
H313 C329 0.930 . S
H314 C330 0.931 . S
C315 H303 0.929 . S
C315 C309 1.390 . S
C315 C312 1.386 . S
C316 C311 1.490 . S
C316 C318 1.395 . S
C316 C319 1.403 . S
H317 C323 0.930 . S
C318 H304 0.930 . S
C318 C316 1.395 . S
C318 C321 1.403 . S
C319 C316 1.403 . S
C319 C320 1.524 . S
C319 C323 1.400 . S
C320 H305 0.960 . S
C320 H306 0.960 . S
C320 H307 0.960 . S
C320 C319 1.524 . S
C321 C318 1.403 . S
C321 C322 1.392 . S
C321 C325 1.495 . S
C322 C321 1.392 . S
C322 C323 1.385 . S
C322 C324 1.478 . S
C323 H317 0.930 . S
C323 C319 1.400 . S
C323 C322 1.385 . S
C324 C322 1.478 . S
C324 C326 1.381 . S
C324 C330 1.383 . S
C325 C321 1.495 . S
C325 H331 0.959 . S
C325 H332 0.961 . S
C325 H333 0.960 . S
C326 C324 1.381 . S
C326 C327 1.394 . S
C326 H334 0.930 . S
C327 C326 1.394 . S
C327 C328 1.383 . S
C327 H335 0.929 . S
C328 C327 1.383 . S
C328 C329 1.377 . S
C329 H313 0.930 . S
C329 C328 1.377 . S
C329 C330 1.379 . S
C330 H314 0.931 . S
C330 C324 1.383 . S
C330 C329 1.379 . S
H331 C325 0.959 . S
H332 C325 0.961 . S
H333 C325 0.960 . S
H334 C326 0.930 . S
H335 C327 0.929 . S
H336 C344 0.929 . S
H337 C346 0.930 . S
H338 C348 0.930 . S
H339 C351 0.929 . S
H340 C354 0.930 . S
H341 C356 0.960 . S
H342 C356 0.960 . S
H343 C356 0.960 . S
C344 H336 0.929 . S
C344 C345 1.377 . S
C344 C346 1.384 . S
C345 C344 1.377 . S
C345 C351 1.390 . S
C346 H337 0.930 . S
C346 C344 1.384 . S
C346 C347 1.372 . S
C347 C346 1.372 . S
C347 C348 1.400 . S
C347 C352 1.490 . S
C348 H338 0.930 . S
C348 C347 1.400 . S
C348 C351 1.386 . S
H349 C365 0.930 . S
H350 C366 0.931 . S
C351 H339 0.929 . S
C351 C345 1.390 . S
C351 C348 1.386 . S
C352 C347 1.490 . S
C352 C354 1.395 . S
C352 C355 1.403 . S
H353 C359 0.930 . S
C354 H340 0.930 . S
C354 C352 1.395 . S
C354 C357 1.403 . S
C355 C352 1.403 . S
C355 C356 1.524 . S
C355 C359 1.400 . S
C356 H341 0.960 . S
C356 H342 0.960 . S
C356 H343 0.960 . S
C356 C355 1.524 . S
C357 C354 1.403 . S
C357 C358 1.392 . S
C357 C361 1.495 . S
C358 C357 1.392 . S
C358 C359 1.385 . S
C358 C360 1.478 . S
C359 H353 0.930 . S
C359 C355 1.400 . S
C359 C358 1.385 . S
C360 C358 1.478 . S
C360 C362 1.381 . S
C360 C366 1.383 . S
C361 C357 1.495 . S
C361 H367 0.959 . S
C361 H368 0.961 . S
C361 H369 0.960 . S
C362 C360 1.381 . S
C362 C363 1.394 . S
C362 H370 0.930 . S
C363 C362 1.394 . S
C363 C364 1.383 . S
C363 H371 0.929 . S
C364 C363 1.383 . S
C364 C365 1.377 . S
C365 H349 0.930 . S
C365 C364 1.377 . S
C365 C366 1.379 . S
C366 H350 0.931 . S
C366 C360 1.383 . S
C366 C365 1.379 . S
H367 C361 0.959 . S
H368 C361 0.961 . S
H369 C361 0.960 . S
H370 C362 0.930 . S
H371 C363 0.929 . S
H372 C380 0.929 . S
H373 C382 0.930 . S
H374 C384 0.930 . S
H375 C387 0.929 . S
H376 C390 0.930 . S
H377 C392 0.960 . S
H378 C392 0.960 . S
H379 C392 0.960 . S
C380 H372 0.929 . S
C380 C381 1.373 . S
C380 C382 1.384 . S
C381 C380 1.373 . S
C381 C387 1.394 1_655 S
C382 H373 0.930 . S
C382 C380 1.384 . S
C382 C383 1.403 . S
C383 C382 1.403 . S
C383 C384 1.368 1_655 S
C383 C388 1.490 . S
C384 H374 0.930 . S
C384 C383 1.368 1_455 S
C384 C387 1.386 . S
H385 C401 0.930 . S
H386 C402 0.931 . S
C387 H375 0.929 . S
C387 C381 1.394 1_455 S
C387 C384 1.386 . S
C388 C383 1.490 . S
C388 C390 1.410 . S
C388 C391 1.389 1_655 S
H389 C395 0.930 . S
C390 H376 0.930 . S
C390 C388 1.410 . S
C390 C393 1.403 . S
C391 C388 1.389 1_455 S
C391 C392 1.524 . S
C391 C395 1.400 . S
C392 H377 0.960 . S
C392 H378 0.960 . S
C392 H379 0.960 . S
C392 C391 1.524 . S
C393 C390 1.403 . S
C393 C394 1.392 . S
C393 C397 1.495 . S
C394 C393 1.392 . S
C394 C395 1.385 1_655 S
C394 C396 1.479 . S
C395 H389 0.930 . S
C395 C391 1.400 . S
C395 C394 1.385 1_455 S
C396 C394 1.479 . S
C396 C398 1.407 . S
C396 C402 1.356 1_655 S
C397 C393 1.495 . S
C397 H403 0.959 . S
C397 H404 0.961 . S
C397 H405 0.960 . S
C398 C396 1.407 . S
C398 C399 1.394 . S
C398 H406 0.930 . S
C399 C398 1.394 . S
C399 C400 1.340 1_655 S
C399 H407 0.929 . S
C400 C399 1.340 1_455 S
C400 C401 1.419 . S
C401 H385 0.930 . S
C401 C400 1.419 . S
C401 C402 1.379 . S
C402 H386 0.931 . S
C402 C396 1.356 1_455 S
C402 C401 1.379 . S
H403 C397 0.959 . S
H404 C397 0.961 . S
H405 C397 0.960 . S
H406 C398 0.930 . S
H407 C399 0.929 . S
H408 C416 0.929 . S
H409 C418 0.930 . S
H410 C420 0.930 . S
H411 C423 0.929 . S
H412 C426 0.930 . S
H413 C428 0.960 . S
H414 C428 0.960 . S
H415 C428 0.960 . S
C416 H408 0.929 . S
C416 C417 1.384 . S
C416 C418 1.384 . S
C417 C416 1.384 . S
C417 C423 1.383 1_565 S
C418 H409 0.930 . S
C418 C416 1.384 . S
C418 C419 1.372 . S
C419 C418 1.372 . S
C419 C420 1.400 1_565 S
C419 C424 1.490 . S
C420 H410 0.930 . S
C420 C419 1.400 1_545 S
C420 C423 1.386 . S
H421 C437 0.930 . S
H422 C438 0.931 . S
C423 H411 0.929 . S
C423 C417 1.383 1_545 S
C423 C420 1.386 . S
C424 C419 1.490 . S
C424 C426 1.395 . S
C424 C427 1.403 1_565 S
H425 C431 0.930 . S
C426 H412 0.930 . S
C426 C424 1.395 . S
C426 C429 1.403 . S
C427 C424 1.403 1_545 S
C427 C428 1.524 . S
C427 C431 1.400 . S
C428 H413 0.960 . S
C428 H414 0.960 . S
C428 H415 0.960 . S
C428 C427 1.524 . S
C429 C426 1.403 . S
C429 C430 1.392 . S
C429 C433 1.495 1_554 S
C430 C429 1.392 . S
C430 C431 1.385 1_565 S
C430 C432 1.478 1_554 S
C431 H425 0.930 . S
C431 C427 1.400 . S
C431 C430 1.385 1_545 S
C432 C430 1.478 1_556 S
C432 C434 1.381 . S
C432 C438 1.383 1_565 S
C433 C429 1.495 1_556 S
C433 H439 0.959 . S
C433 H440 0.961 . S
C433 H441 0.960 . S
C434 C432 1.381 . S
C434 C435 1.394 . S
C434 H442 0.930 . S
C435 C434 1.394 . S
C435 C436 1.383 . S
C435 H443 0.929 . S
C436 C435 1.383 . S
C436 C437 1.377 1_565 S
C437 H421 0.930 . S
C437 C436 1.377 1_545 S
C437 C438 1.379 . S
C438 H422 0.931 . S
C438 C432 1.383 1_545 S
C438 C437 1.379 . S
H439 C433 0.959 . S
H440 C433 0.961 . S
H441 C433 0.960 . S
H442 C434 0.930 . S
H443 C435 0.929 . S
H444 C452 0.929 . S
H445 C454 0.930 . S
H446 C456 0.930 . S
H447 C459 0.929 . S
H448 C462 0.930 . S
H449 C464 0.960 . S
H450 C464 0.960 . S
H451 C464 0.960 . S
C452 H444 0.929 . S
C452 C453 1.377 . S
C452 C454 1.384 . S
C453 C452 1.377 . S
C453 C459 1.390 . S
C454 H445 0.930 . S
C454 C452 1.384 . S
C454 C455 1.372 . S
C455 C454 1.372 . S
C455 C456 1.400 . S
C455 C460 1.490 . S
C456 H446 0.930 . S
C456 C455 1.400 . S
C456 C459 1.386 . S
H457 C473 0.930 . S
H458 C474 0.931 1_554 S
C459 H447 0.929 . S
C459 C453 1.390 . S
C459 C456 1.386 . S
C460 C455 1.490 . S
C460 C462 1.395 . S
C460 C463 1.403 . S
H461 C467 0.930 . S
C462 H448 0.930 . S
C462 C460 1.395 . S
C462 C465 1.403 . S
C463 C460 1.403 . S
C463 C464 1.524 . S
C463 C467 1.400 . S
C464 H449 0.960 . S
C464 H450 0.960 . S
C464 H451 0.960 . S
C464 C463 1.524 . S
C465 C462 1.403 . S
C465 C466 1.392 . S
C465 C469 1.495 . S
C466 C465 1.392 . S
C466 C467 1.385 . S
C466 C468 1.478 1_554 S
C467 H461 0.930 . S
C467 C463 1.400 . S
C467 C466 1.385 . S
C468 C466 1.478 1_556 S
C468 C470 1.381 . S
C468 C474 1.383 . S
C469 C465 1.495 . S
C469 H475 0.959 . S
C469 H476 0.961 . S
C469 H477 0.960 . S
C470 C468 1.381 . S
C470 C471 1.394 . S
C470 H478 0.930 . S
C471 C470 1.394 . S
C471 C472 1.383 . S
C471 H479 0.929 . S
C472 C471 1.383 . S
C472 C473 1.377 . S
C473 H457 0.930 . S
C473 C472 1.377 . S
C473 C474 1.379 . S
C474 H458 0.931 1_556 S
C474 C468 1.383 . S
C474 C473 1.379 . S
H475 C469 0.959 . S
H476 C469 0.961 . S
H477 C469 0.960 . S
H478 C470 0.930 . S
H479 C471 0.929 . S
H480 C488 0.929 . S
H481 C490 0.930 . S
H482 C492 0.930 . S
H483 C495 0.929 . S
H484 C498 0.930 . S
H485 C500 0.960 . S
H486 C500 0.960 . S
H487 C500 0.960 . S
C488 H480 0.929 . S
C488 C489 1.377 . S
C488 C490 1.384 . S
C489 C488 1.377 . S
C489 C495 1.390 . S
C490 H481 0.930 . S
C490 C488 1.384 . S
C490 C491 1.372 . S
C491 C490 1.372 . S
C491 C492 1.400 . S
C491 C496 1.490 . S
C492 H482 0.930 . S
C492 C491 1.400 . S
C492 C495 1.386 . S
H493 C509 0.930 . S
H494 C510 0.931 1_554 S
C495 H483 0.929 . S
C495 C489 1.390 . S
C495 C492 1.386 . S
C496 C491 1.490 . S
C496 C498 1.395 . S
C496 C499 1.403 . S
H497 C503 0.930 . S
C498 H484 0.930 . S
C498 C496 1.395 . S
C498 C501 1.403 . S
C499 C496 1.403 . S
C499 C500 1.524 . S
C499 C503 1.400 . S
C500 H485 0.960 . S
C500 H486 0.960 . S
C500 H487 0.960 . S
C500 C499 1.524 . S
C501 C498 1.403 . S
C501 C502 1.392 . S
C501 C505 1.495 . S
C502 C501 1.392 . S
C502 C503 1.385 . S
C502 C504 1.478 1_554 S
C503 H497 0.930 . S
C503 C499 1.400 . S
C503 C502 1.385 . S
C504 C502 1.478 1_556 S
C504 C506 1.381 . S
C504 C510 1.383 . S
C505 C501 1.495 . S
C505 H511 0.959 . S
C505 H512 0.961 . S
C505 H513 0.960 . S
C506 C504 1.381 . S
C506 C507 1.394 . S
C506 H514 0.930 . S
C507 C506 1.394 . S
C507 C508 1.383 . S
C507 H515 0.929 . S
C508 C507 1.383 . S
C508 C509 1.377 . S
C509 H493 0.930 . S
C509 C508 1.377 . S
C509 C510 1.379 . S
C510 H494 0.931 1_556 S
C510 C504 1.383 . S
C510 C509 1.379 . S
H511 C505 0.959 . S
H512 C505 0.961 . S
H513 C505 0.960 . S
H514 C506 0.930 . S
H515 C507 0.929 . S
H516 C524 0.929 . S
H517 C526 0.930 . S
H518 C528 0.930 . S
H519 C531 0.929 . S
H520 C534 0.930 . S
H521 C536 0.960 . S
H522 C536 0.960 . S
H523 C536 0.960 . S
C524 H516 0.929 . S
C524 C525 1.376 1_455 S
C524 C526 1.384 . S
C525 C524 1.376 1_655 S
C525 C531 1.391 . S
C526 H517 0.930 . S
C526 C524 1.384 . S
C526 C527 1.392 . S
C527 C526 1.392 . S
C527 C528 1.380 1_455 S
C527 C532 1.490 . S
C528 H518 0.930 . S
C528 C527 1.380 1_655 S
C528 C531 1.386 . S
H529 C545 0.930 . S
H530 C546 0.931 1_554 S
C531 H519 0.929 . S
C531 C525 1.391 . S
C531 C528 1.386 . S
C532 C527 1.490 . S
C532 C534 1.433 . S
C532 C535 1.367 1_455 S
H533 C539 0.930 1_556 S
C534 H520 0.930 . S
C534 C532 1.433 . S
C534 C537 1.403 . S
C535 C532 1.367 1_655 S
C535 C536 1.524 . S
C535 C539 1.400 . S
C536 H521 0.960 . S
C536 H522 0.960 . S
C536 H523 0.960 . S
C536 C535 1.524 . S
C537 C534 1.403 . S
C537 C538 1.392 . S
C537 C541 1.495 . S
C538 C537 1.392 . S
C538 C539 1.385 1_455 S
C538 C540 1.478 1_554 S
C539 H533 0.930 1_554 S
C539 C535 1.400 . S
C539 C538 1.385 1_655 S
C540 C538 1.478 1_556 S
C540 C542 1.381 . S
C540 C546 1.383 1_455 S
C541 C537 1.495 . S
C541 H547 0.959 . S
C541 H548 0.961 . S
C541 H549 0.960 . S
C542 C540 1.381 . S
C542 C543 1.394 . S
C542 H550 0.930 . S
C543 C542 1.394 . S
C543 C544 1.380 1_455 S
C543 H551 0.929 . S
C544 C543 1.380 1_655 S
C544 C545 1.380 . S
C545 H529 0.930 . S
C545 C544 1.380 . S
C545 C546 1.379 . S
C546 H530 0.931 1_556 S
C546 C540 1.383 1_655 S
C546 C545 1.379 . S
H547 C541 0.959 . S
H548 C541 0.961 . S
H549 C541 0.960 . S
H550 C542 0.930 . S
H551 C543 0.929 . S
H552 C560 0.929 1_556 S
H553 C562 0.930 . S
H554 C564 0.930 . S
H555 C567 0.937 . S
H556 C570 0.930 . S
H557 C572 0.960 . S
H558 C572 0.960 . S
H559 C572 0.960 . S
C560 H552 0.929 1_554 S
C560 C561 1.377 1_655 S
C560 C562 1.384 . S
C561 C560 1.377 1_455 S
C561 C567 1.391 . S
C562 H553 0.930 . S
C562 C560 1.384 . S
C562 C563 1.372 . S
C563 C562 1.372 . S
C563 C564 1.400 . S
C563 C568 1.490 . S
C564 H554 0.930 . S
C564 C563 1.400 . S
C564 C567 1.379 1_655 S
H565 C581 0.930 . S
H566 C582 0.931 . S
C567 H555 0.937 . S
C567 C561 1.391 . S
C567 C564 1.379 1_455 S
C568 C563 1.490 . S
C568 C570 1.395 1_655 S
C568 C571 1.403 . S
H569 C575 0.930 . S
C570 H556 0.930 . S
C570 C568 1.395 1_455 S
C570 C573 1.403 . S
C571 C568 1.403 . S
C571 C572 1.524 . S
C571 C575 1.400 . S
C572 H557 0.960 . S
C572 H558 0.960 . S
C572 H559 0.960 . S
C572 C571 1.524 . S
C573 C570 1.403 . S
C573 C574 1.392 1_455 S
C573 C577 1.495 . S
C574 C573 1.392 1_655 S
C574 C575 1.385 . S
C574 C576 1.478 . S
C575 H569 0.930 . S
C575 C571 1.400 . S
C575 C574 1.385 . S
C576 C574 1.478 . S
C576 C578 1.381 . S
C576 C582 1.383 . S
C577 C573 1.495 . S
C577 H583 0.959 . S
C577 H584 0.961 . S
C577 H585 0.960 . S
C578 C576 1.381 . S
C578 C579 1.394 . S
C578 H586 0.930 . S
C579 C578 1.394 . S
C579 C580 1.383 . S
C579 H587 0.929 . S
C580 C579 1.383 . S
C580 C581 1.377 . S
C581 H565 0.930 . S
C581 C580 1.377 . S
C581 C582 1.379 . S
C582 H566 0.931 . S
C582 C576 1.383 . S
C582 C581 1.379 . S
H583 C577 0.959 . S
H584 C577 0.961 . S
H585 C577 0.960 . S
H586 C578 0.930 . S
H587 C579 0.929 . S
H588 C596 0.929 . S
H589 C598 0.930 . S
H590 C600 0.930 . S
H591 C603 0.929 . S
H592 C606 0.930 . S
H593 C608 0.960 . S
H594 C608 0.960 . S
H595 C608 0.960 . S
C596 H588 0.929 . S
C596 C597 1.377 1_565 S
C596 C598 1.384 . S
C597 C596 1.377 1_545 S
C597 C603 1.390 . S
C598 H589 0.930 . S
C598 C596 1.384 . S
C598 C599 1.372 . S
C599 C598 1.372 . S
C599 C600 1.400 1_565 S
C599 C604 1.490 . S
C600 H590 0.930 . S
C600 C599 1.400 1_545 S
C600 C603 1.386 . S
H601 C617 0.930 . S
H602 C618 0.931 . S
C603 H591 0.929 . S
C603 C597 1.390 . S
C603 C600 1.386 . S
C604 C599 1.490 . S
C604 C606 1.395 . S
C604 C607 1.403 1_565 S
H605 C611 0.930 1_545 S
C606 H592 0.930 . S
C606 C604 1.395 . S
C606 C609 1.403 . S
C607 C604 1.403 1_545 S
C607 C608 1.524 . S
C607 C611 1.400 1_545 S
C608 H593 0.960 . S
C608 H594 0.960 . S
C608 H595 0.960 . S
C608 C607 1.524 . S
C609 C606 1.403 . S
C609 C610 1.392 . S
C609 C613 1.495 . S
C610 C609 1.392 . S
C610 C611 1.385 . S
C610 C612 1.478 . S
C611 H605 0.930 1_565 S
C611 C607 1.400 1_565 S
C611 C610 1.385 . S
C612 C610 1.478 . S
C612 C614 1.381 . S
C612 C618 1.383 . S
C613 C609 1.495 . S
C613 H619 0.959 . S
C613 H620 0.961 . S
C613 H621 0.960 . S
C614 C612 1.381 . S
C614 C615 1.394 . S
C614 H622 0.930 . S
C615 C614 1.394 . S
C615 C616 1.383 . S
C615 H623 0.929 . S
C616 C615 1.383 . S
C616 C617 1.377 . S
C617 H601 0.930 . S
C617 C616 1.377 . S
C617 C618 1.379 . S
C618 H602 0.931 . S
C618 C612 1.383 . S
C618 C617 1.379 . S
H619 C613 0.959 . S
H620 C613 0.961 . S
H621 C613 0.960 . S
H622 C614 0.930 . S
H623 C615 0.929 . S
H624 C632 0.929 1_556 S
H625 C634 0.930 . S
H626 C636 0.930 . S
H627 C639 0.929 . S
H628 C642 0.930 . S
H629 C644 0.960 . S
H630 C644 0.960 . S
H631 C644 0.960 . S
C632 H624 0.929 1_554 S
C632 C633 1.377 . S
C632 C634 1.384 . S
C633 C632 1.377 . S
C633 C639 1.390 . S
C634 H625 0.930 . S
C634 C632 1.384 . S
C634 C635 1.372 . S
C635 C634 1.372 . S
C635 C636 1.400 . S
C635 C640 1.490 . S
C636 H626 0.930 . S
C636 C635 1.400 . S
C636 C639 1.386 . S
H637 C653 0.930 . S
H638 C654 0.931 . S
C639 H627 0.929 . S
C639 C633 1.390 . S
C639 C636 1.386 . S
C640 C635 1.490 . S
C640 C642 1.395 . S
C640 C643 1.403 . S
H641 C647 0.930 . S
C642 H628 0.930 . S
C642 C640 1.395 . S
C642 C645 1.403 . S
C643 C640 1.403 . S
C643 C644 1.524 . S
C643 C647 1.400 . S
C644 H629 0.960 . S
C644 H630 0.960 . S
C644 H631 0.960 . S
C644 C643 1.524 . S
C645 C642 1.403 . S
C645 C646 1.392 . S
C645 C649 1.495 . S
C646 C645 1.392 . S
C646 C647 1.385 . S
C646 C648 1.478 . S
C647 H641 0.930 . S
C647 C643 1.400 . S
C647 C646 1.385 . S
C648 C646 1.478 . S
C648 C650 1.381 . S
C648 C654 1.383 . S
C649 C645 1.495 . S
C649 H655 0.959 . S
C649 H656 0.961 . S
C649 H657 0.960 . S
C650 C648 1.381 . S
C650 C651 1.394 . S
C650 H658 0.930 . S
C651 C650 1.394 . S
C651 C652 1.383 . S
C651 H659 0.929 . S
C652 C651 1.383 . S
C652 C653 1.377 . S
C653 H637 0.930 . S
C653 C652 1.377 . S
C653 C654 1.379 . S
C654 H638 0.931 . S
C654 C648 1.383 . S
C654 C653 1.379 . S
H655 C649 0.959 . S
H656 C649 0.961 . S
H657 C649 0.960 . S
H658 C650 0.930 . S
H659 C651 0.929 . S
H660 C668 0.929 . S
H661 C670 0.930 . S
H662 C672 0.930 . S
H663 C675 0.929 . S
H664 C678 0.930 . S
H665 C680 0.960 . S
H666 C680 0.960 . S
H667 C680 0.960 . S
C668 H660 0.929 . S
C668 C669 1.377 . S
C668 C670 1.384 . S
C669 C668 1.377 . S
C669 C675 1.390 . S
C670 H661 0.930 . S
C670 C668 1.384 . S
C670 C671 1.372 . S
C671 C670 1.372 . S
C671 C672 1.400 . S
C671 C676 1.490 . S
C672 H662 0.930 . S
C672 C671 1.400 . S
C672 C675 1.386 . S
H673 C689 0.930 . S
H674 C690 0.931 . S
C675 H663 0.929 . S
C675 C669 1.390 . S
C675 C672 1.386 . S
C676 C671 1.490 . S
C676 C678 1.395 . S
C676 C679 1.403 . S
H677 C683 0.930 . S
C678 H664 0.930 . S
C678 C676 1.395 . S
C678 C681 1.403 . S
C679 C676 1.403 . S
C679 C680 1.524 . S
C679 C683 1.400 . S
C680 H665 0.960 . S
C680 H666 0.960 . S
C680 H667 0.960 . S
C680 C679 1.524 . S
C681 C678 1.403 . S
C681 C682 1.392 . S
C681 C685 1.495 . S
C682 C681 1.392 . S
C682 C683 1.385 . S
C682 C684 1.478 . S
C683 H677 0.930 . S
C683 C679 1.400 . S
C683 C682 1.385 . S
C684 C682 1.478 . S
C684 C686 1.381 . S
C684 C690 1.383 . S
C685 C681 1.495 . S
C685 H691 0.959 . S
C685 H692 0.961 . S
C685 H693 0.960 . S
C686 C684 1.381 . S
C686 C687 1.394 . S
C686 H694 0.930 . S
C687 C686 1.394 . S
C687 C688 1.383 . S
C687 H695 0.929 . S
C688 C687 1.383 . S
C688 C689 1.377 . S
C689 H673 0.930 . S
C689 C688 1.377 . S
C689 C690 1.379 . S
C690 H674 0.931 . S
C690 C684 1.383 . S
C690 C689 1.379 . S
H691 C685 0.959 . S
H692 C685 0.961 . S
H693 C685 0.960 . S
H694 C686 0.930 . S
H695 C687 0.929 . S
H696 C704 0.929 . S
H697 C706 0.930 . S
H698 C708 0.930 . S
H699 C711 0.929 . S
H700 C714 0.912 1_655 S
H701 C716 0.960 . S
H702 C716 0.960 . S
H703 C716 0.960 . S
C704 H696 0.929 . S
C704 C705 1.377 1_455 S
C704 C706 1.384 . S
C705 C704 1.377 1_655 S
C705 C711 1.390 . S
C706 H697 0.930 . S
C706 C704 1.384 . S
C706 C707 1.372 . S
C707 C706 1.372 . S
C707 C708 1.400 1_455 S
C707 C712 1.490 . S
C708 H698 0.930 . S
C708 C707 1.400 1_655 S
C708 C711 1.386 . S
H709 C725 0.930 . S
H710 C726 0.929 1_655 S
C711 H699 0.929 . S
C711 C705 1.390 . S
C711 C708 1.386 . S
C712 C707 1.490 . S
C712 C714 1.395 . S
C712 C715 1.403 . S
H713 C719 0.930 . S
C714 H700 0.912 1_455 S
C714 C712 1.395 . S
C714 C717 1.403 . S
C715 C712 1.403 . S
C715 C716 1.524 . S
C715 C719 1.400 . S
C716 H701 0.960 . S
C716 H702 0.960 . S
C716 H703 0.960 . S
C716 C715 1.524 . S
C717 C714 1.403 . S
C717 C718 1.392 . S
C717 C721 1.495 . S
C718 C717 1.392 . S
C718 C719 1.385 . S
C718 C720 1.478 . S
C719 H713 0.930 . S
C719 C715 1.400 . S
C719 C718 1.385 . S
C720 C718 1.478 . S
C720 C722 1.381 . S
C720 C726 1.383 . S
C721 C717 1.495 . S
C721 H727 0.959 1_454 S
C721 H728 0.961 1_455 S
C721 H729 0.960 1_554 S
C722 C720 1.381 . S
C722 C723 1.394 1_554 S
C722 H730 0.930 . S
C723 C722 1.394 1_556 S
C723 C724 1.383 1_556 S
C723 H731 0.929 . S
C724 C723 1.383 1_554 S
C724 C725 1.377 . S
C725 H709 0.930 . S
C725 C724 1.377 . S
C725 C726 1.379 . S
C726 H710 0.929 1_455 S
C726 C720 1.383 . S
C726 C725 1.379 . S
H727 C721 0.959 1_656 S
H728 C721 0.961 1_655 S
H729 C721 0.960 1_556 S
H730 C722 0.930 . S
H731 C723 0.929 . S
H732 C740 0.929 . S
H733 C742 0.930 . S
H734 C744 0.930 . S
H735 C747 0.929 . S
H736 C750 0.958 . S
H737 C752 0.960 . S
H738 C752 0.960 . S
H739 C752 0.960 . S
C740 H732 0.929 . S
C740 C741 1.377 . S
C740 C742 1.384 . S
C741 C740 1.377 . S
C741 C747 1.390 1_565 S
C742 H733 0.930 . S
C742 C740 1.384 . S
C742 C743 1.372 1_565 S
C743 C742 1.372 1_545 S
C743 C744 1.400 . S
C743 C748 1.490 . S
C744 H734 0.930 . S
C744 C743 1.400 . S
C744 C747 1.386 . S
H745 C761 0.930 . S
H746 C762 0.931 . S
C747 H735 0.929 . S
C747 C741 1.390 1_545 S
C747 C744 1.386 . S
C748 C743 1.490 . S
C748 C750 1.375 1_545 S
C748 C751 1.403 . S
H749 C755 0.930 . S
C750 H736 0.958 . S
C750 C748 1.375 1_565 S
C750 C753 1.398 1_565 S
C751 C748 1.403 . S
C751 C752 1.524 . S
C751 C755 1.400 . S
C752 H737 0.960 . S
C752 H738 0.960 . S
C752 H739 0.960 . S
C752 C751 1.524 . S
C753 C750 1.398 1_545 S
C753 C754 1.392 . S
C753 C757 1.495 1_545 S
C754 C753 1.392 . S
C754 C755 1.385 . S
C754 C756 1.478 . S
C755 H749 0.930 . S
C755 C751 1.400 . S
C755 C754 1.385 . S
C756 C754 1.478 . S
C756 C758 1.381 . S
C756 C762 1.383 . S
C757 C753 1.495 1_565 S
C757 H763 0.959 . S
C757 H764 0.961 1_565 S
C757 H765 0.960 . S
C758 C756 1.381 . S
C758 C759 1.394 . S
C758 H766 0.930 1_545 S
C759 C758 1.394 . S
C759 C760 1.383 . S
C759 H767 0.929 1_545 S
C760 C759 1.383 . S
C760 C761 1.377 . S
C761 H745 0.930 . S
C761 C760 1.377 . S
C761 C762 1.379 . S
C762 H746 0.931 . S
C762 C756 1.383 . S
C762 C761 1.379 . S
H763 C757 0.959 . S
H764 C757 0.961 1_545 S
H765 C757 0.960 . S
H766 C758 0.930 1_565 S
H767 C759 0.929 1_565 S
H768 C776 0.929 . S
H769 C778 0.930 . S
H770 C780 0.930 . S
H771 C783 0.929 . S
H772 C786 0.930 . S
H773 C788 0.960 . S
H774 C788 0.960 . S
H775 C788 0.960 . S
C776 H768 0.929 . S
C776 C777 1.377 . S
C776 C778 1.384 . S
C777 C776 1.377 . S
C777 C783 1.390 . S
C778 H769 0.930 . S
C778 C776 1.384 . S
C778 C779 1.372 . S
C779 C778 1.372 . S
C779 C780 1.400 . S
C779 C784 1.490 . S
C780 H770 0.930 . S
C780 C779 1.400 . S
C780 C783 1.386 . S
H781 C797 0.930 . S
H782 C798 0.931 . S
C783 H771 0.929 . S
C783 C777 1.390 . S
C783 C780 1.386 . S
C784 C779 1.490 . S
C784 C786 1.395 . S
C784 C787 1.403 . S
H785 C791 0.930 . S
C786 H772 0.930 . S
C786 C784 1.395 . S
C786 C789 1.403 . S
C787 C784 1.403 . S
C787 C788 1.524 . S
C787 C791 1.400 . S
C788 H773 0.960 . S
C788 H774 0.960 . S
C788 H775 0.960 . S
C788 C787 1.524 . S
C789 C786 1.403 . S
C789 C790 1.392 . S
C789 C793 1.495 . S
C790 C789 1.392 . S
C790 C791 1.385 . S
C790 C792 1.478 . S
C791 H785 0.930 . S
C791 C787 1.400 . S
C791 C790 1.385 . S
C792 C790 1.478 . S
C792 C794 1.381 . S
C792 C798 1.383 . S
C793 C789 1.495 . S
C793 H799 0.959 . S
C793 H800 0.961 . S
C793 H801 0.960 . S
C794 C792 1.381 . S
C794 C795 1.394 1_554 S
C794 H802 0.930 1_554 S
C795 C794 1.394 1_556 S
C795 C796 1.383 1_556 S
C795 H803 0.929 . S
C796 C795 1.383 1_554 S
C796 C797 1.377 . S
C797 H781 0.930 . S
C797 C796 1.377 . S
C797 C798 1.379 . S
C798 H782 0.931 . S
C798 C792 1.383 . S
C798 C797 1.379 . S
H799 C793 0.959 . S
H800 C793 0.961 . S
H801 C793 0.960 . S
H802 C794 0.930 1_556 S
H803 C795 0.929 . S
H804 C812 0.929 . S
H805 C814 0.930 . S
H806 C816 0.930 . S
H807 C819 0.929 . S
H808 C822 0.930 . S
H809 C824 0.960 . S
H810 C824 0.960 . S
H811 C824 0.960 . S
C812 H804 0.929 . S
C812 C813 1.377 . S
C812 C814 1.384 . S
C813 C812 1.377 . S
C813 C819 1.390 . S
C814 H805 0.930 . S
C814 C812 1.384 . S
C814 C815 1.372 . S
C815 C814 1.372 . S
C815 C816 1.400 . S
C815 C820 1.490 . S
C816 H806 0.930 . S
C816 C815 1.400 . S
C816 C819 1.386 . S
H817 C833 0.930 . S
H818 C834 0.931 . S
C819 H807 0.929 . S
C819 C813 1.390 . S
C819 C816 1.386 . S
C820 C815 1.490 . S
C820 C822 1.395 . S
C820 C823 1.403 . S
H821 C827 0.930 . S
C822 H808 0.930 . S
C822 C820 1.395 . S
C822 C825 1.403 . S
C823 C820 1.403 . S
C823 C824 1.524 . S
C823 C827 1.400 . S
C824 H809 0.960 . S
C824 H810 0.960 . S
C824 H811 0.960 . S
C824 C823 1.524 . S
C825 C822 1.403 . S
C825 C826 1.392 . S
C825 C829 1.495 . S
C826 C825 1.392 . S
C826 C827 1.385 . S
C826 C828 1.478 . S
C827 H821 0.930 . S
C827 C823 1.400 . S
C827 C826 1.385 . S
C828 C826 1.478 . S
C828 C830 1.381 . S
C828 C834 1.383 . S
C829 C825 1.495 . S
C829 H835 0.959 . S
C829 H836 0.961 . S
C829 H837 0.960 . S
C830 C828 1.381 . S
C830 C831 1.394 . S
C830 H838 0.930 . S
C831 C830 1.394 . S
C831 C832 1.383 . S
C831 H839 0.929 . S
C832 C831 1.383 . S
C832 C833 1.377 . S
C833 H817 0.930 . S
C833 C832 1.377 . S
C833 C834 1.379 . S
C834 H818 0.931 . S
C834 C828 1.383 . S
C834 C833 1.379 . S
H835 C829 0.959 . S
H836 C829 0.961 . S
H837 C829 0.960 . S
H838 C830 0.930 . S
H839 C831 0.929 . S
H840 C848 0.929 . S
H841 C850 0.930 . S
H842 C852 0.930 . S
H843 C855 0.929 1_554 S
H844 C858 0.930 . S
H845 C860 0.960 . S
H846 C860 0.960 . S
H847 C860 0.960 1_455 S
C848 H840 0.929 . S
C848 C849 1.348 1_655 S
C848 C850 1.384 . S
C849 C848 1.348 1_455 S
C849 C855 1.422 . S
C850 H841 0.930 . S
C850 C848 1.384 . S
C850 C851 1.372 1_655 S
C851 C850 1.372 1_455 S
C851 C852 1.400 . S
C851 C856 1.490 . S
C852 H842 0.930 . S
C852 C851 1.400 . S
C852 C855 1.386 . S
H853 C869 0.930 . S
H854 C870 0.931 . S
C855 H843 0.929 1_556 S
C855 C849 1.422 . S
C855 C852 1.386 . S
C856 C851 1.490 . S
C856 C858 1.395 . S
C856 C859 1.403 . S
H857 C863 0.930 . S
C858 H844 0.930 . S
C858 C856 1.395 . S
C858 C861 1.403 . S
C859 C856 1.403 . S
C859 C860 1.524 1_456 S
C859 C863 1.400 . S
C860 H845 0.960 . S
C860 H846 0.960 . S
C860 H847 0.960 1_655 S
C860 C859 1.524 1_654 S
C861 C858 1.403 . S
C861 C862 1.392 . S
C861 C865 1.495 . S
C862 C861 1.392 . S
C862 C863 1.385 . S
C862 C864 1.478 . S
C863 H857 0.930 . S
C863 C859 1.400 . S
C863 C862 1.385 . S
C864 C862 1.478 . S
C864 C866 1.381 1_455 S
C864 C870 1.383 . S
C865 C861 1.495 . S
C865 H871 0.959 . S
C865 H872 0.961 . S
C865 H873 0.960 1_455 S
C866 C864 1.381 1_655 S
C866 C867 1.394 . S
C866 H874 0.930 . S
C867 C866 1.394 . S
C867 C868 1.383 1_655 S
C867 H875 0.929 . S
C868 C867 1.383 1_455 S
C868 C869 1.377 . S
C869 H853 0.930 . S
C869 C868 1.377 . S
C869 C870 1.379 . S
C870 H854 0.931 . S
C870 C864 1.383 . S
C870 C869 1.379 . S
H871 C865 0.959 . S
H872 C865 0.961 . S
H873 C865 0.960 1_655 S
H874 C866 0.930 . S
H875 C867 0.929 . S
H876 C884 0.929 . S
H877 C886 0.930 . S
H878 C888 0.930 . S
H879 C891 0.929 . S
H880 C894 0.930 . S
H881 C896 0.960 . S
H882 C896 0.960 . S
H883 C896 0.960 . S
C884 H876 0.929 . S
C884 C885 1.334 1_565 S
C884 C886 1.384 . S
C885 C884 1.334 1_545 S
C885 C891 1.435 . S
C886 H877 0.930 . S
C886 C884 1.384 . S
C886 C887 1.372 1_565 S
C887 C886 1.372 1_545 S
C887 C888 1.400 . S
C887 C892 1.490 . S
C888 H878 0.930 . S
C888 C887 1.400 . S
C888 C891 1.386 . S
H889 C905 0.930 . S
H890 C906 0.931 . S
C891 H879 0.929 . S
C891 C885 1.435 . S
C891 C888 1.386 . S
C892 C887 1.490 . S
C892 C894 1.395 1_545 S
C892 C895 1.403 . S
H893 C899 0.930 . S
C894 H880 0.930 . S
C894 C892 1.395 1_565 S
C894 C897 1.403 . S
C895 C892 1.403 . S
C895 C896 1.524 1_556 S
C895 C899 1.400 . S
C896 H881 0.960 . S
C896 H882 0.960 . S
C896 H883 0.960 . S
C896 C895 1.524 1_554 S
C897 C894 1.403 . S
C897 C898 1.392 1_565 S
C897 C901 1.495 . S
C898 C897 1.392 1_545 S
C898 C899 1.385 . S
C898 C900 1.478 . S
C899 H893 0.930 . S
C899 C895 1.400 . S
C899 C898 1.385 . S
C900 C898 1.478 . S
C900 C902 1.381 1_545 S
C900 C906 1.383 . S
C901 C897 1.495 . S
C901 H907 0.959 . S
C901 H908 0.961 . S
C901 H909 0.960 . S
C902 C900 1.381 1_565 S
C902 C903 1.394 . S
C902 H910 0.930 . S
C903 C902 1.394 . S
C903 C904 1.383 1_565 S
C903 H911 0.929 . S
C904 C903 1.383 1_545 S
C904 C905 1.377 . S
C905 H889 0.930 . S
C905 C904 1.377 . S
C905 C906 1.379 . S
C906 H890 0.931 . S
C906 C900 1.383 . S
C906 C905 1.379 . S
H907 C901 0.959 . S
H908 C901 0.961 . S
H909 C901 0.960 . S
H910 C902 0.930 . S
H911 C903 0.929 . S
H912 C920 0.929 . S
H913 C922 0.930 . S
H914 C924 0.930 1_554 S
H915 C927 0.929 1_554 S
H916 C930 0.930 . S
H917 C932 0.960 . S
H918 C932 0.960 1_556 S
H919 C932 0.960 . S
C920 H912 0.929 . S
C920 C921 1.377 . S
C920 C922 1.384 . S
C921 C920 1.377 . S
C921 C927 1.390 . S
C922 H913 0.930 . S
C922 C920 1.384 . S
C922 C923 1.372 . S
C923 C922 1.372 . S
C923 C924 1.400 . S
C923 C928 1.490 . S
C924 H914 0.930 1_556 S
C924 C923 1.400 . S
C924 C927 1.386 . S
H925 C941 0.930 . S
H926 C942 0.931 . S
C927 H915 0.929 1_556 S
C927 C921 1.390 . S
C927 C924 1.386 . S
C928 C923 1.490 . S
C928 C930 1.395 . S
C928 C931 1.403 . S
H929 C935 0.930 . S
C930 H916 0.930 . S
C930 C928 1.395 . S
C930 C933 1.403 . S
C931 C928 1.403 . S
C931 C932 1.524 1_556 S
C931 C935 1.400 . S
C932 H917 0.960 . S
C932 H918 0.960 1_554 S
C932 H919 0.960 . S
C932 C931 1.524 1_554 S
C933 C930 1.403 . S
C933 C934 1.392 . S
C933 C937 1.495 . S
C934 C933 1.392 . S
C934 C935 1.385 . S
C934 C936 1.478 . S
C935 H929 0.930 . S
C935 C931 1.400 . S
C935 C934 1.385 . S
C936 C934 1.478 . S
C936 C938 1.381 . S
C936 C942 1.383 . S
C937 C933 1.495 . S
C937 H943 0.959 . S
C937 H944 0.961 . S
C937 H945 0.960 . S
C938 C936 1.381 . S
C938 C939 1.394 . S
C938 H946 0.930 . S
C939 C938 1.394 . S
C939 C940 1.383 . S
C939 H947 0.929 . S
C940 C939 1.383 . S
C940 C941 1.377 . S
C941 H925 0.930 . S
C941 C940 1.377 . S
C941 C942 1.379 . S
C942 H926 0.931 . S
C942 C936 1.383 . S
C942 C941 1.379 . S
H943 C937 0.959 . S
H944 C937 0.961 . S
H945 C937 0.960 . S
H946 C938 0.930 . S
H947 C939 0.929 . S
H948 C956 0.929 1_554 S
H949 C958 0.930 1_554 S
H950 C960 0.930 . S
H951 C963 0.929 . S
H952 C966 0.930 . S
H953 C968 0.960 . S
H954 C968 0.960 . S
H955 C968 0.960 . S
C956 H948 0.929 1_556 S
C956 C957 1.377 . S
C956 C958 1.384 . S
C957 C956 1.377 . S
C957 C963 1.390 . S
C958 H949 0.930 1_556 S
C958 C956 1.384 . S
C958 C959 1.372 . S
C959 C958 1.372 . S
C959 C960 1.400 . S
C959 C964 1.490 . S
C960 H950 0.930 . S
C960 C959 1.400 . S
C960 C963 1.386 . S
H961 C977 0.930 . S
H962 C978 0.931 . S
C963 H951 0.929 . S
C963 C957 1.390 . S
C963 C960 1.386 . S
C964 C959 1.490 . S
C964 C966 1.395 . S
C964 C967 1.403 . S
H965 C971 0.930 . S
C966 H952 0.930 . S
C966 C964 1.395 . S
C966 C969 1.403 . S
C967 C964 1.403 . S
C967 C968 1.524 . S
C967 C971 1.400 . S
C968 H953 0.960 . S
C968 H954 0.960 . S
C968 H955 0.960 . S
C968 C967 1.524 . S
C969 C966 1.403 . S
C969 C970 1.392 . S
C969 C973 1.495 . S
C970 C969 1.392 . S
C970 C971 1.385 . S
C970 C972 1.478 . S
C971 H965 0.930 . S
C971 C967 1.400 . S
C971 C970 1.385 . S
C972 C970 1.478 . S
C972 C974 1.381 . S
C972 C978 1.383 . S
C973 C969 1.495 . S
C973 H979 0.959 . S
C973 H980 0.961 . S
C973 H981 0.960 . S
C974 C972 1.381 . S
C974 C975 1.394 . S
C974 H982 0.930 . S
C975 C974 1.394 . S
C975 C976 1.383 . S
C975 H983 0.929 . S
C976 C975 1.383 . S
C976 C977 1.377 . S
C977 H961 0.930 . S
C977 C976 1.377 . S
C977 C978 1.379 . S
C978 H962 0.931 . S
C978 C972 1.383 . S
C978 C977 1.379 . S
H979 C973 0.959 . S
H980 C973 0.961 . S
H981 C973 0.960 . S
H982 C974 0.930 . S
H983 C975 0.929 . S
H984 C992 0.929 . S
H985 C994 0.927 1_455 S
H986 C996 0.930 . S
H987 C999 0.929 . S
H988 C1002 0.930 . S
H989 C1004 0.960 . S
H990 C1004 0.960 . S
H991 C1004 0.960 . S
C992 H984 0.929 . S
C992 C993 1.377 1_455 S
C992 C994 1.383 1_455 S
C993 C992 1.377 1_655 S
C993 C999 1.390 . S
C994 H985 0.927 1_655 S
C994 C992 1.383 1_655 S
C994 C995 1.377 . S
C995 C994 1.377 . S
C995 C996 1.400 . S
C995 C1000 1.490 . S
C996 H986 0.930 . S
C996 C995 1.400 . S
C996 C999 1.386 . S
H997 C1013 0.930 . S
H998 C1014 0.931 . S
C999 H987 0.929 . S
C999 C993 1.390 . S
C999 C996 1.386 . S
C1000 C995 1.490 . S
C1000 C1002 1.395 1_655 S
C1000 C1003 1.403 . S
H1001 C1007 0.930 . S
C1002 H988 0.930 . S
C1002 C1000 1.395 1_455 S
C1002 C1005 1.403 . S
C1003 C1000 1.403 . S
C1003 C1004 1.524 . S
C1003 C1007 1.400 . S
C1004 H989 0.960 . S
C1004 H990 0.960 . S
C1004 H991 0.960 . S
C1004 C1003 1.524 . S
C1005 C1002 1.403 . S
C1005 C1006 1.392 1_455 S
C1005 C1009 1.495 . S
C1006 C1005 1.392 1_655 S
C1006 C1007 1.385 . S
C1006 C1008 1.478 . S
C1007 H1001 0.930 . S
C1007 C1003 1.400 . S
C1007 C1006 1.385 . S
C1008 C1006 1.478 . S
C1008 C1010 1.381 . S
C1008 C1014 1.383 . S
C1009 C1005 1.495 . S
C1009 H1015 0.959 . S
C1009 H1016 0.961 . S
C1009 H1017 0.960 . S
C1010 C1008 1.381 . S
C1010 C1011 1.394 . S
C1010 H1018 0.930 . S
C1011 C1010 1.394 . S
C1011 C1012 1.383 . S
C1011 H1019 0.929 . S
C1012 C1011 1.383 . S
C1012 C1013 1.377 . S
C1013 H997 0.930 . S
C1013 C1012 1.377 . S
C1013 C1014 1.379 . S
C1014 H998 0.931 . S
C1014 C1008 1.383 . S
C1014 C1013 1.379 . S
H1015 C1009 0.959 . S
H1016 C1009 0.961 . S
H1017 C1009 0.960 . S
H1018 C1010 0.930 . S
H1019 C1011 0.929 . S
H1020 C1028 0.929 . S
H1021 C1030 0.930 . S
H1022 C1032 0.930 . S
H1023 C1035 0.929 . S
H1024 C1038 0.926 1_545 S
H1025 C1040 0.960 . S
H1026 C1040 0.960 1_545 S
H1027 C1040 0.960 . S
C1028 H1020 0.929 . S
C1028 C1029 1.353 1_545 S
C1028 C1030 1.384 . S
C1029 C1028 1.353 1_565 S
C1029 C1035 1.416 . S
C1030 H1021 0.930 . S
C1030 C1028 1.384 . S
C1030 C1031 1.372 1_545 S
C1031 C1030 1.372 1_565 S
C1031 C1032 1.400 . S
C1031 C1036 1.490 . S
C1032 H1022 0.930 . S
C1032 C1031 1.400 . S
C1032 C1035 1.386 . S
H1033 C1049 0.930 . S
H1034 C1050 0.931 . S
C1035 H1023 0.929 . S
C1035 C1029 1.416 . S
C1035 C1032 1.386 . S
C1036 C1031 1.490 . S
C1036 C1038 1.395 . S
C1036 C1039 1.403 . S
H1037 C1043 0.930 . S
C1038 H1024 0.926 1_565 S
C1038 C1036 1.395 . S
C1038 C1041 1.403 . S
C1039 C1036 1.403 . S
C1039 C1040 1.524 . S
C1039 C1043 1.400 . S
C1040 H1025 0.960 . S
C1040 H1026 0.960 1_565 S
C1040 H1027 0.960 . S
C1040 C1039 1.524 . S
C1041 C1038 1.403 . S
C1041 C1042 1.392 . S
C1041 C1045 1.499 . S
C1042 C1041 1.392 . S
C1042 C1043 1.385 . S
C1042 C1044 1.478 . S
C1043 H1037 0.930 . S
C1043 C1039 1.400 . S
C1043 C1042 1.385 . S
C1044 C1042 1.478 . S
C1044 C1046 1.381 1_565 S
C1044 C1050 1.383 . S
C1045 C1041 1.499 . S
C1045 H1051 0.952 1_565 S
C1045 H1052 1.006 . S
C1045 H1053 0.919 1_565 S
C1046 C1044 1.381 1_545 S
C1046 C1047 1.394 . S
C1046 H1054 0.930 . S
C1047 C1046 1.394 . S
C1047 C1048 1.383 1_545 S
C1047 H1055 0.929 . S
C1048 C1047 1.383 1_565 S
C1048 C1049 1.377 . S
C1049 H1033 0.930 . S
C1049 C1048 1.377 . S
C1049 C1050 1.379 . S
C1050 H1034 0.931 . S
C1050 C1044 1.383 . S
C1050 C1049 1.379 . S
H1051 C1045 0.952 1_545 S
H1052 C1045 1.006 . S
H1053 C1045 0.919 1_545 S
H1054 C1046 0.930 . S
H1055 C1047 0.929 . S
H1056 C1064 0.929 . S
H1057 C1066 0.930 . S
H1058 C1068 0.930 . S
H1059 C1071 0.929 . S
H1060 C1074 0.930 . S
H1061 C1076 0.960 . S
H1062 C1076 0.960 . S
H1063 C1076 0.960 . S
C1064 H1056 0.929 . S
C1064 C1065 1.377 . S
C1064 C1066 1.384 . S
C1065 C1064 1.377 . S
C1065 C1071 1.390 . S
C1066 H1057 0.930 . S
C1066 C1064 1.384 . S
C1066 C1067 1.372 . S
C1067 C1066 1.372 . S
C1067 C1068 1.400 . S
C1067 C1072 1.490 . S
C1068 H1058 0.930 . S
C1068 C1067 1.400 . S
C1068 C1071 1.386 . S
H1069 C1085 0.930 . S
H1070 C1086 0.931 . S
C1071 H1059 0.929 . S
C1071 C1065 1.390 . S
C1071 C1068 1.386 . S
C1072 C1067 1.490 . S
C1072 C1074 1.395 . S
C1072 C1075 1.403 . S
H1073 C1079 0.930 . S
C1074 H1060 0.930 . S
C1074 C1072 1.395 . S
C1074 C1077 1.403 . S
C1075 C1072 1.403 . S
C1075 C1076 1.524 . S
C1075 C1079 1.400 . S
C1076 H1061 0.960 . S
C1076 H1062 0.960 . S
C1076 H1063 0.960 . S
C1076 C1075 1.524 . S
C1077 C1074 1.403 . S
C1077 C1078 1.392 . S
C1077 C1081 1.495 . S
C1078 C1077 1.392 . S
C1078 C1079 1.385 . S
C1078 C1080 1.478 . S
C1079 H1073 0.930 . S
C1079 C1075 1.400 . S
C1079 C1078 1.385 . S
C1080 C1078 1.478 . S
C1080 C1082 1.381 . S
C1080 C1086 1.383 . S
C1081 C1077 1.495 . S
C1081 H1087 0.959 . S
C1081 H1088 0.961 . S
C1081 H1089 0.960 . S
C1082 C1080 1.381 . S
C1082 C1083 1.394 . S
C1082 H1090 0.930 . S
C1083 C1082 1.394 . S
C1083 C1084 1.383 . S
C1083 H1091 0.929 . S
C1084 C1083 1.383 . S
C1084 C1085 1.377 . S
C1085 H1069 0.930 . S
C1085 C1084 1.377 . S
C1085 C1086 1.379 . S
C1086 H1070 0.931 . S
C1086 C1080 1.383 . S
C1086 C1085 1.379 . S
H1087 C1081 0.959 . S
H1088 C1081 0.961 . S
H1089 C1081 0.960 . S
H1090 C1082 0.930 . S
H1091 C1083 0.929 . S
H1092 C1100 0.929 . S
H1093 C1102 0.930 . S
H1094 C1104 0.930 . S
H1095 C1107 0.929 . S
H1096 C1110 0.930 . S
H1097 C1112 0.960 . S
H1098 C1112 0.960 . S
H1099 C1112 0.960 . S
C1100 H1092 0.929 . S
C1100 C1101 1.377 . S
C1100 C1102 1.384 . S
C1101 C1100 1.377 . S
C1101 C1107 1.390 . S
C1102 H1093 0.930 . S
C1102 C1100 1.384 . S
C1102 C1103 1.372 . S
C1103 C1102 1.372 . S
C1103 C1104 1.400 . S
C1103 C1108 1.490 . S
C1104 H1094 0.930 . S
C1104 C1103 1.400 . S
C1104 C1107 1.386 . S
H1105 C1121 0.930 . S
H1106 C1122 0.931 . S
C1107 H1095 0.929 . S
C1107 C1101 1.390 . S
C1107 C1104 1.386 . S
C1108 C1103 1.490 . S
C1108 C1110 1.395 . S
C1108 C1111 1.403 . S
H1109 C1115 0.930 . S
C1110 H1096 0.930 . S
C1110 C1108 1.395 . S
C1110 C1113 1.403 . S
C1111 C1108 1.403 . S
C1111 C1112 1.524 . S
C1111 C1115 1.400 . S
C1112 H1097 0.960 . S
C1112 H1098 0.960 . S
C1112 H1099 0.960 . S
C1112 C1111 1.524 . S
C1113 C1110 1.403 . S
C1113 C1114 1.392 . S
C1113 C1117 1.495 . S
C1114 C1113 1.392 . S
C1114 C1115 1.385 . S
C1114 C1116 1.478 . S
C1115 H1109 0.930 . S
C1115 C1111 1.400 . S
C1115 C1114 1.385 . S
C1116 C1114 1.478 . S
C1116 C1118 1.381 . S
C1116 C1122 1.383 . S
C1117 C1113 1.495 . S
C1117 H1123 0.959 . S
C1117 H1124 0.961 . S
C1117 H1125 0.960 . S
C1118 C1116 1.381 . S
C1118 C1119 1.394 . S
C1118 H1126 0.930 . S
C1119 C1118 1.394 . S
C1119 C1120 1.383 . S
C1119 H1127 0.929 . S
C1120 C1119 1.383 . S
C1120 C1121 1.377 . S
C1121 H1105 0.930 . S
C1121 C1120 1.377 . S
C1121 C1122 1.379 . S
C1122 H1106 0.931 . S
C1122 C1116 1.383 . S
C1122 C1121 1.379 . S
H1123 C1117 0.959 . S
H1124 C1117 0.961 . S
H1125 C1117 0.960 . S
H1126 C1118 0.930 . S
H1127 C1119 0.929 . S
C273 N80 1.803 1_545 S
C292 C113 1.837 1_545 S
C328 C153 1.844 . S
C309 N93 1.800 . S
C364 C193 1.839 . S
C345 N54 1.805 . S
C400 C233 1.823 1_455 S
C381 N67 1.806 . S
C436 C122 1.831 1_565 S
C417 N28 1.811 . S
C453 N41 1.801 . S
C472 C162 1.840 . S
C489 N2 1.801 . S
C508 C202 1.835 . S
C525 N15 1.800 . S
C544 C242 1.838 1_655 S
C580 C119 0.225 . S
C561 N70 0.214 1_455 S
C616 C159 0.368 . S
C597 N83 0.226 1_545 S
C652 C199 0.248 . S
C633 N96 0.219 . S
C669 N57 0.223 . S
C688 C239 0.359 . S
C705 N18 0.211 . S
C724 C110 0.246 . S
C760 C150 0.267 . S
C741 N31 0.222 . S
C796 C190 0.207 . S
C777 N44 0.213 . S
C813 N5 0.223 . S
C832 C230 0.277 . S
C849 N66 1.985 1_455 S
C868 C123 2.035 . S
C885 N79 1.980 1_545 S
C904 C163 2.028 . S
C940 C203 2.042 . S
C921 N92 1.986 . S
C976 C243 2.016 . S
C957 N53 1.981 . S
C993 N14 1.989 . S
C1012 C114 2.029 . S
C1048 C154 2.026 . S
C1029 N27 1.987 . S
C1084 C194 2.044 . S
C1065 N40 1.976 . S
C1101 N1 1.981 . S
C1120 C234 2.053 . S
