# Generated by pormake.
# Topology wbl, (4,4)-cn, num edge types: 1
# Building blocks:
#     Node 0, Type 0, BuildingBlock: NAWXER_clean_linker_0, # of connection points: 4
#     Node 1, Type 0, BuildingBlock: NAWXER_clean_linker_0, # of connection points: 4
#     Node 2, Type 0, BuildingBlock: NAWXER_clean_linker_0, # of connection points: 4
#     Node 3, Type 0, BuildingBlock: NAWXER_clean_linker_0, # of connection points: 4
#     Node 4, Type 0, BuildingBlock: NAWXER_clean_linker_0, # of connection points: 4
#     Node 5, Type 0, BuildingBlock: NAWXER_clean_linker_0, # of connection points: 4
#     Node 6, Type 0, BuildingBlock: NAWXER_clean_linker_0, # of connection points: 4
#     Node 7, Type 0, BuildingBlock: NAWXER_clean_linker_0, # of connection points: 4
#     Node 8, Type 1, BuildingBlock: KUFVIS_clean_sbu_0, # of connection points: 4
#     Node 9, Type 1, BuildingBlock: KUFVIS_clean_sbu_0, # of connection points: 4
#     Node 10, Type 1, BuildingBlock: KUFVIS_clean_sbu_0, # of connection points: 4
#     Node 11, Type 1, BuildingBlock: KUFVIS_clean_sbu_0, # of connection points: 4
#     Node 12, Type 1, BuildingBlock: KUFVIS_clean_sbu_0, # of connection points: 4
#     Node 13, Type 1, BuildingBlock: KUFVIS_clean_sbu_0, # of connection points: 4
#     Node 14, Type 1, BuildingBlock: KUFVIS_clean_sbu_0, # of connection points: 4
#     Node 15, Type 1, BuildingBlock: KUFVIS_clean_sbu_0, # of connection points: 4
#     Edge 16, Type (0, 1), BuildingBlock: OJICUG_clean_linker_0, # of connection points: 2
#     Edge 17, Type (0, 1), BuildingBlock: OJICUG_clean_linker_0, # of connection points: 2
#     Edge 18, Type (0, 1), BuildingBlock: OJICUG_clean_linker_0, # of connection points: 2
#     Edge 19, Type (0, 1), BuildingBlock: OJICUG_clean_linker_0, # of connection points: 2
#     Edge 20, Type (0, 1), BuildingBlock: OJICUG_clean_linker_0, # of connection points: 2
#     Edge 21, Type (0, 1), BuildingBlock: OJICUG_clean_linker_0, # of connection points: 2
#     Edge 22, Type (0, 1), BuildingBlock: OJICUG_clean_linker_0, # of connection points: 2
#     Edge 23, Type (0, 1), BuildingBlock: OJICUG_clean_linker_0, # of connection points: 2
#     Edge 24, Type (0, 1), BuildingBlock: OJICUG_clean_linker_0, # of connection points: 2
#     Edge 25, Type (0, 1), BuildingBlock: OJICUG_clean_linker_0, # of connection points: 2
#     Edge 26, Type (0, 1), BuildingBlock: OJICUG_clean_linker_0, # of connection points: 2
#     Edge 27, Type (0, 1), BuildingBlock: OJICUG_clean_linker_0, # of connection points: 2
#     Edge 28, Type (0, 1), BuildingBlock: OJICUG_clean_linker_0, # of connection points: 2
#     Edge 29, Type (0, 1), BuildingBlock: OJICUG_clean_linker_0, # of connection points: 2
#     Edge 30, Type (0, 1), BuildingBlock: OJICUG_clean_linker_0, # of connection points: 2
#     Edge 31, Type (0, 1), BuildingBlock: OJICUG_clean_linker_0, # of connection points: 2
#     Edge 32, Type (0, 1), BuildingBlock: OJICUG_clean_linker_0, # of connection points: 2
#     Edge 33, Type (0, 1), BuildingBlock: OJICUG_clean_linker_0, # of connection points: 2
#     Edge 34, Type (0, 1), BuildingBlock: OJICUG_clean_linker_0, # of connection points: 2
#     Edge 35, Type (0, 1), BuildingBlock: OJICUG_clean_linker_0, # of connection points: 2
#     Edge 36, Type (0, 1), BuildingBlock: OJICUG_clean_linker_0, # of connection points: 2
#     Edge 37, Type (0, 1), BuildingBlock: OJICUG_clean_linker_0, # of connection points: 2
#     Edge 38, Type (0, 1), BuildingBlock: OJICUG_clean_linker_0, # of connection points: 2
#     Edge 39, Type (0, 1), BuildingBlock: OJICUG_clean_linker_0, # of connection points: 2
#     Edge 40, Type (0, 1), BuildingBlock: OJICUG_clean_linker_0, # of connection points: 2
#     Edge 41, Type (0, 1), BuildingBlock: OJICUG_clean_linker_0, # of connection points: 2
#     Edge 42, Type (0, 1), BuildingBlock: OJICUG_clean_linker_0, # of connection points: 2
#     Edge 43, Type (0, 1), BuildingBlock: OJICUG_clean_linker_0, # of connection points: 2
#     Edge 44, Type (0, 1), BuildingBlock: OJICUG_clean_linker_0, # of connection points: 2
#     Edge 45, Type (0, 1), BuildingBlock: OJICUG_clean_linker_0, # of connection points: 2
#     Edge 46, Type (0, 1), BuildingBlock: OJICUG_clean_linker_0, # of connection points: 2
#     Edge 47, Type (0, 1), BuildingBlock: OJICUG_clean_linker_0, # of connection points: 2
# Relax obj value: 0.159
# Max RMSD: 0.161
# Mean RMSD: 0.141
data_MOF--net-wbl--node1-KUFVIS_clean_sbu_0--node2-NAWXER_clean_linker_0--edge1-OJICUG_clean_linker_0
_symmetry_space_group_name_H-M    P1
_symmetry_Int_Tables_number       1
_symmetry_cell_setting            triclinic
loop_
_symmetry_equiv_pos_as_xyz
'x, y, z'
_cell_length_a     35.029156
_cell_length_b     35.033627
_cell_length_c     60.198273
_cell_angle_alpha  89.978639
_cell_angle_beta   90.634619
_cell_angle_gamma 90.04846
loop_
_atom_site_label
_atom_site_type_symbol
_atom_site_fract_x
_atom_site_fract_y
_atom_site_fract_z
_atom_type_partial_charge
C0 C 0.06874 0.90426 0.37163 0.0
C1 C 0.09859 0.92248 0.38322 0.0
C2 C 0.04931 0.92322 0.35456 0.0
C3 C 0.06039 0.96004 0.34812 0.0
C4 C 0.1106 0.95884 0.37623 0.0
C5 C 0.09159 0.97748 0.35879 0.0
C6 C 0.03369 0.98327 0.33484 0.0
C7 C 0.10889 0.96626 0.27043 0.0
C8 C 0.11945 0.92804 0.27437 0.0
C9 C 0.07861 0.98277 0.28191 0.0
C10 C 0.05807 0.96145 0.29747 0.0
C11 C 0.09693 0.90602 0.28877 0.0
C12 C 0.0663 0.92248 0.3 0.0
C13 C 0.02968 0.98104 0.31152 0.0
C14 C 0.90413 0.09626 0.2925 0.0
C15 C 0.8776 0.07258 0.28136 0.0
C16 C 0.93684 0.08072 0.30256 0.0
C17 C 0.9438 0.04132 0.30146 0.0
C18 C 0.88534 0.03319 0.28004 0.0
C19 C 0.91825 0.01788 0.28975 0.0
C20 C 0.97651 0.02368 0.31321 0.0
C21 C 0.89839 0.05637 0.37135 0.0
C22 C 0.91626 0.08111 0.38669 0.0
C23 C 0.91891 0.04104 0.35364 0.0
C24 C 0.95761 0.05022 0.35104 0.0
C25 C 0.95424 0.09221 0.38308 0.0
C26 C 0.97478 0.07664 0.36553 0.0
C27 C 0.98212 0.02737 0.33634 0.0
H28 H 0.05859 0.8765 0.37681 0.0
H29 H 0.02411 0.91004 0.3473 0.0
H30 H 0.13356 0.97351 0.38489 0.0
H31 H 0.09973 0.0064 0.35454 0.0
H32 H 0.1248 0.98387 0.25901 0.0
H33 H 0.07228 0.01272 0.27932 0.0
H34 H 0.10394 0.8765 0.29222 0.0
H35 H 0.04963 0.90483 0.31095 0.0
H36 H 0.89961 0.12676 0.29357 0.0
H37 H 0.95654 0.09939 0.31132 0.0
H38 H 0.86538 0.01373 0.27215 0.0
H39 H 0.923 0.98735 0.28885 0.0
H40 H 0.86908 0.04748 0.37367 0.0
H41 H 0.90529 0.02015 0.34291 0.0
H42 H 0.96896 0.11081 0.39472 0.0
H43 H 0.00476 0.08369 0.36397 0.0
N44 N 0.01025 0.00674 0.34622 0.0
N45 N 0.00098 0.00123 0.30155 0.0
C46 C 0.92012 0.41545 0.61718 0.0
C47 C 0.94328 0.39962 0.63411 0.0
C48 C 0.9364 0.43564 0.59956 0.0
C49 C 0.97619 0.43932 0.59804 0.0
C50 C 0.98322 0.40217 0.63196 0.0
C51 C 0.99937 0.42163 0.61414 0.0
C52 C 0.99352 0.46801 0.58316 0.0
C53 C 0.97997 0.37549 0.52982 0.0
C54 C 0.94013 0.37035 0.52811 0.0
C55 C 0.99529 0.40819 0.53969 0.0
C56 C 0.97127 0.43691 0.54759 0.0
C57 C 0.9162 0.40041 0.53491 0.0
C58 C 0.93174 0.43368 0.54425 0.0
C59 C 0.98821 0.46924 0.55986 0.0
C60 C 0.09531 0.59607 0.53296 0.0
C61 C 0.07022 0.62446 0.52499 0.0
C62 C 0.08114 0.56305 0.54303 0.0
C63 C 0.04166 0.55764 0.54515 0.0
C64 C 0.03059 0.61808 0.52654 0.0
C65 C 0.01651 0.58489 0.53637 0.0
C66 C 0.02649 0.52556 0.55827 0.0
C67 C 0.05751 0.60288 0.62039 0.0
C68 C 0.09461 0.5924 0.62718 0.0
C69 C 0.03836 0.58219 0.60387 0.0
C70 C 0.05605 0.55083 0.59392 0.0
C71 C 0.11325 0.56279 0.61591 0.0
C72 C 0.0939 0.54184 0.59958 0.0
C73 C 0.0329 0.52323 0.5813 0.0
H74 H 0.88932 0.41378 0.61799 0.0
H75 H 0.91768 0.45061 0.58815 0.0
H76 H 0.00227 0.39128 0.64473 0.0
H77 H 0.03013 0.42481 0.61365 0.0
H78 H 0.99948 0.3538 0.52404 0.0
H79 H 0.02599 0.41067 0.54165 0.0
H80 H 0.88545 0.39774 0.53391 0.0
H81 H 0.91282 0.45624 0.54956 0.0
H82 H 0.12593 0.59956 0.53172 0.0
H83 H 0.101 0.54208 0.54957 0.0
H84 H 0.01028 0.63943 0.52101 0.0
H85 H 0.98594 0.58132 0.53805 0.0
H86 H 0.04262 0.62582 0.62868 0.0
H87 H 0.00895 0.58914 0.59985 0.0
H88 H 0.14172 0.554 0.62083 0.0
H89 H 0.10769 0.51726 0.59227 0.0
N90 N 0.01597 0.4949 0.59287 0.0
N91 N 0.0047 0.49819 0.54819 0.0
C92 C 0.58475 0.41681 0.86833 0.0
C93 C 0.60614 0.43538 0.88508 0.0
C94 C 0.56864 0.43761 0.85075 0.0
C95 C 0.57313 0.47737 0.84978 0.0
C96 C 0.61292 0.47486 0.88297 0.0
C97 C 0.59602 0.49571 0.86573 0.0
C98 C 0.54824 0.5002 0.83501 0.0
C99 C 0.64469 0.46846 0.79235 0.0
C100 C 0.63697 0.44182 0.77544 0.0
C101 C 0.61513 0.48525 0.80412 0.0
C102 C 0.57695 0.47569 0.79946 0.0
C103 C 0.59873 0.43224 0.77064 0.0
C104 C 0.5689 0.44943 0.7824 0.0
C105 C 0.54604 0.49496 0.8118 0.0
C106 C 0.41653 0.60139 0.78581 0.0
C107 C 0.39049 0.57543 0.77616 0.0
C108 C 0.4497 0.5883 0.79649 0.0
C109 C 0.45763 0.54908 0.79754 0.0
C110 C 0.39932 0.53619 0.77677 0.0
C111 C 0.43271 0.52326 0.78715 0.0
C112 C 0.4905 0.53441 0.81047 0.0
C113 C 0.41283 0.56835 0.86985 0.0
C114 C 0.42772 0.60078 0.88075 0.0
C115 C 0.43311 0.55095 0.8527 0.0
C116 C 0.4685 0.5657 0.84625 0.0
C117 C 0.46156 0.61726 0.87276 0.0
C118 C 0.48199 0.59957 0.85587 0.0
C119 C 0.4949 0.542 0.83334 0.0
H120 H 0.57845 0.38661 0.86946 0.0
H121 H 0.5504 0.42303 0.83883 0.0
H122 H 0.63013 0.49004 0.89513 0.0
H123 H 0.59966 0.52642 0.8653 0.0
H124 H 0.6738 0.47611 0.79672 0.0
H125 H 0.62222 0.5062 0.81674 0.0
H126 H 0.59194 0.41186 0.75766 0.0
H127 H 0.53963 0.44197 0.77833 0.0
H128 H 0.41119 0.63181 0.78532 0.0
H129 H 0.46894 0.60876 0.80416 0.0
H130 H 0.3798 0.51515 0.76998 0.0
H131 H 0.43826 0.49285 0.78788 0.0
H132 H 0.38708 0.55465 0.87565 0.0
H133 H 0.42259 0.52444 0.84566 0.0
H134 H 0.47341 0.64267 0.88043 0.0
H135 H 0.50942 0.61117 0.85115 0.0
N136 N 0.52312 0.52407 0.84479 0.0
N137 N 0.5166 0.51155 0.80035 0.0
C138 C 0.45891 0.87337 0.0475 0.0
C139 C 0.43001 0.8789 0.03143 0.0
C140 C 0.47555 0.90435 0.05841 0.0
C141 C 0.46355 0.94172 0.0537 0.0
C142 C 0.41799 0.91633 0.0266 0.0
C143 C 0.43499 0.94757 0.03749 0.0
C144 C 0.48215 0.97421 0.06527 0.0
C145 C 0.41262 0.91994 0.12078 0.0
C146 C 0.43425 0.90718 0.13919 0.0
C147 C 0.43012 0.93999 0.10346 0.0
C148 C 0.46956 0.94749 0.10424 0.0
C149 C 0.47389 0.91372 0.13942 0.0
C150 C 0.49124 0.93356 0.12221 0.0
C151 C 0.48781 0.97443 0.08859 0.0
C152 C 0.55331 0.10986 0.12323 0.0
C153 C 0.58953 0.09829 0.13098 0.0
C154 C 0.53448 0.08922 0.10655 0.0
C155 C 0.55161 0.05681 0.09741 0.0
C156 C 0.60785 0.06769 0.12043 0.0
C157 C 0.58879 0.04679 0.10396 0.0
C158 C 0.52793 0.02892 0.08536 0.0
C159 C 0.59228 0.0964 0.03553 0.0
C160 C 0.56834 0.12512 0.02679 0.0
C161 C 0.57682 0.06468 0.04634 0.0
C162 C 0.53715 0.06082 0.04847 0.0
C163 C 0.52847 0.12028 0.02835 0.0
C164 C 0.51308 0.08833 0.03895 0.0
C165 C 0.52089 0.03019 0.06235 0.0
H166 H 0.46852 0.84492 0.05184 0.0
H167 H 0.49813 0.89905 0.07046 0.0
H168 H 0.39589 0.92144 0.01424 0.0
H169 H 0.42558 0.97621 0.03344 0.0
H170 H 0.38208 0.91525 0.12002 0.0
H171 H 0.41255 0.95116 0.09005 0.0
H172 H 0.49149 0.90517 0.15346 0.0
H173 H 0.52161 0.93928 0.12336 0.0
H174 H 0.53869 0.13357 0.13093 0.0
H175 H 0.50553 0.09694 0.1019 0.0
H176 H 0.63567 0.05809 0.12607 0.0
H177 H 0.6021 0.02138 0.09733 0.0
H178 H 0.62301 0.09864 0.03431 0.0
H179 H 0.59588 0.04351 0.05346 0.0
H180 H 0.50899 0.14194 0.02225 0.0
H181 H 0.4824 0.086 0.0406 0.0
N182 N 0.49834 0.00263 0.05297 0.0
N183 N 0.51081 0.00156 0.09758 0.0
C184 C 0.08909 0.58387 0.88694 0.0
C185 C 0.09822 0.56095 0.86853 0.0
C186 C 0.06707 0.56911 0.90428 0.0
C187 C 0.05393 0.53123 0.90344 0.0
C188 C 0.08609 0.52267 0.86829 0.0
C189 C 0.06424 0.50808 0.88549 0.0
C190 C 0.02511 0.51665 0.91911 0.0
C191 C 0.13235 0.52957 0.95813 0.0
C192 C 0.13182 0.56071 0.97285 0.0
C193 C 0.09861 0.51583 0.9486 0.0
C194 C 0.06351 0.53292 0.9535 0.0
C195 C 0.0966 0.5777 0.97792 0.0
C196 C 0.0626 0.56361 0.96848 0.0
C197 C 0.02826 0.5189 0.94249 0.0
C198 C 0.91204 0.42965 0.98757 0.0
C199 C 0.87447 0.44214 0.98326 0.0
C200 C 0.94285 0.44556 0.97605 0.0
C201 C 0.93646 0.47372 0.95984 0.0
C202 C 0.86861 0.47141 0.96758 0.0
C203 C 0.89921 0.48702 0.95606 0.0
C204 C 0.96784 0.48768 0.94572 0.0
C205 C 0.89008 0.46297 0.88008 0.0
C206 C 0.89668 0.4239 0.87626 0.0
C207 C 0.9101 0.4823 0.89679 0.0
C208 C 0.93615 0.46271 0.9104 0.0
C209 C 0.92063 0.40381 0.8911 0.0
C210 C 0.94017 0.42312 0.90808 0.0
C211 C 0.96577 0.48436 0.92244 0.0
H212 H 0.09813 0.61341 0.88767 0.0
H213 H 0.05883 0.58779 0.91772 0.0
H214 H 0.0918 0.50432 0.85424 0.0
H215 H 0.05415 0.47888 0.88436 0.0
H216 H 0.15904 0.5161 0.95371 0.0
H217 H 0.09995 0.49188 0.93725 0.0
H218 H 0.09535 0.60158 0.98931 0.0
H219 H 0.03574 0.57711 0.9725 0.0
H220 H 0.91754 0.40734 0.99964 0.0
H221 H 0.97143 0.43493 0.97921 0.0
H222 H 0.84011 0.4814 0.96354 0.0
H223 H 0.89365 0.50899 0.94378 0.0
H224 H 0.87116 0.47915 0.86929 0.0
H225 H 0.90707 0.51298 0.89819 0.0
H226 H 0.92668 0.37383 0.88857 0.0
H227 H 0.96086 0.40773 0.91815 0.0
N228 N 0.99418 0.49913 0.91011 0.0
N229 N 0.99929 0.50458 0.95507 0.0
C230 C 0.40497 0.56516 0.13595 0.0
C231 C 0.42395 0.59286 0.12321 0.0
C232 C 0.42395 0.54655 0.15338 0.0
C233 C 0.46222 0.55507 0.15824 0.0
C234 C 0.46167 0.60287 0.12913 0.0
C235 C 0.4808 0.58371 0.14628 0.0
C236 C 0.48435 0.52938 0.17274 0.0
C237 C 0.46789 0.63164 0.21552 0.0
C238 C 0.43606 0.62799 0.22934 0.0
C239 C 0.48277 0.59992 0.20471 0.0
C240 C 0.46634 0.5638 0.2076 0.0
C241 C 0.41924 0.59186 0.2321 0.0
C242 C 0.43464 0.55979 0.22148 0.0
C243 C 0.48305 0.53078 0.19605 0.0
C244 C 0.59134 0.40436 0.22351 0.0
C245 C 0.56672 0.37932 0.23476 0.0
C246 C 0.57689 0.43637 0.21241 0.0
C247 C 0.53753 0.44357 0.2119 0.0
C248 C 0.52759 0.38843 0.23561 0.0
C249 C 0.51316 0.4202 0.22424 0.0
C250 C 0.52131 0.47452 0.19806 0.0
C251 C 0.53867 0.39928 0.13145 0.0
C252 C 0.57778 0.40366 0.12672 0.0
C253 C 0.52195 0.41958 0.14877 0.0
C254 C 0.5437 0.44498 0.16165 0.0
C255 C 0.59999 0.42718 0.14081 0.0
C256 C 0.58291 0.44835 0.15769 0.0
C257 C 0.5238 0.47434 0.17464 0.0
H258 H 0.37621 0.55621 0.13171 0.0
H259 H 0.40948 0.52388 0.1622 0.0
H260 H 0.47695 0.6246 0.12002 0.0
H261 H 0.51053 0.59027 0.14969 0.0
H262 H 0.48117 0.65922 0.21295 0.0
H263 H 0.50742 0.60353 0.1942 0.0
H264 H 0.39471 0.58839 0.24271 0.0
H265 H 0.42166 0.53204 0.2239 0.0
H266 H 0.62159 0.39846 0.22243 0.0
H267 H 0.59647 0.45511 0.20395 0.0
H268 H 0.50788 0.37045 0.24458 0.0
H269 H 0.48274 0.42574 0.22445 0.0
H270 H 0.5201 0.38231 0.12091 0.0
H271 H 0.49138 0.41752 0.15108 0.0
H272 H 0.63026 0.43088 0.13814 0.0
H273 H 0.59996 0.46916 0.16666 0.0
N274 N 0.50469 0.50139 0.16292 0.0
N275 N 0.50106 0.50293 0.208 0.0
C276 C 0.40035 0.91898 0.39669 0.0
C277 C 0.39372 0.93486 0.37544 0.0
C278 C 0.42065 0.93929 0.41305 0.0
C279 C 0.43317 0.97679 0.40902 0.0
C280 C 0.40574 0.97278 0.37182 0.0
C281 C 0.42437 0.99347 0.3884 0.0
C282 C 0.46064 0.99693 0.42402 0.0
C283 C 0.36238 0.97307 0.46743 0.0
C284 C 0.36865 0.94508 0.48383 0.0
C285 C 0.39284 0.98892 0.45593 0.0
C286 C 0.43039 0.97696 0.46034 0.0
C287 C 0.40637 0.9337 0.48864 0.0
C288 C 0.43705 0.94984 0.47713 0.0
C289 C 0.46227 0.9933 0.44745 0.0
C290 C 0.59499 0.09625 0.47214 0.0
C291 C 0.62123 0.07028 0.48158 0.0
C292 C 0.56147 0.0832 0.46181 0.0
C293 C 0.55326 0.04402 0.461 0.0
C294 C 0.61214 0.03106 0.48117 0.0
C295 C 0.57833 0.01817 0.4712 0.0
C296 C 0.52022 0.02948 0.44817 0.0
C297 C 0.60284 0.06007 0.39123 0.0
C298 C 0.58744 0.08798 0.37687 0.0
C299 C 0.58106 0.04523 0.40859 0.0
C300 C 0.54361 0.0581 0.41178 0.0
C301 C 0.55108 0.10284 0.38131 0.0
C302 C 0.52929 0.0878 0.39849 0.0
C303 C 0.51658 0.03577 0.42517 0.0
H304 H 0.3911 0.89039 0.4007 0.0
H305 H 0.42796 0.92473 0.42835 0.0
H306 H 0.40287 0.98651 0.35583 0.0
H307 H 0.43381 0.02216 0.38455 0.0
H308 H 0.33372 0.98215 0.46305 0.0
H309 H 0.38698 0.01037 0.44338 0.0
H310 H 0.41214 0.91239 0.50127 0.0
H311 H 0.46586 0.94052 0.48097 0.0
H312 H 0.60045 0.12666 0.47249 0.0
H313 H 0.54221 0.10363 0.45415 0.0
H314 H 0.63175 0.00996 0.48777 0.0
H315 H 0.5726 0.98778 0.47058 0.0
H316 H 0.6309 0.04827 0.38829 0.0
H317 H 0.5924 0.02186 0.41842 0.0
H318 H 0.53819 0.12398 0.37045 0.0
H319 H 0.50025 0.09774 0.40052 0.0
N320 N 0.48749 0.01871 0.41407 0.0
N321 N 0.49265 0.00886 0.45862 0.0
C322 C 0.08889 0.91752 0.64401 0.0
C323 C 0.06638 0.89855 0.62791 0.0
C324 C 0.07182 0.9368 0.66167 0.0
C325 C 0.03204 0.9363 0.66414 0.0
C326 C 0.0266 0.89682 0.63107 0.0
C327 C 0.00975 0.91535 0.64899 0.0
C328 C 0.01304 0.96449 0.67852 0.0
C329 C 0.02706 0.87515 0.73437 0.0
C330 C 0.06687 0.86942 0.7348 0.0
C331 C 0.01132 0.90739 0.7242 0.0
C332 C 0.03496 0.93495 0.71462 0.0
C333 C 0.09054 0.89847 0.72638 0.0
C334 C 0.07467 0.93121 0.71666 0.0
C335 C 0.01737 0.96637 0.70185 0.0
C336 C 0.90693 0.0923 0.72591 0.0
C337 C 0.93159 0.11995 0.73517 0.0
C338 C 0.92164 0.0595 0.71589 0.0
C339 C 0.96121 0.05358 0.71511 0.0
C340 C 0.97123 0.11306 0.73494 0.0
C341 C 0.98581 0.08007 0.72518 0.0
C342 C 0.97736 0.0215 0.70244 0.0
C343 C 0.94672 0.09776 0.64014 0.0
C344 C 0.91098 0.08544 0.63202 0.0
C345 C 0.96533 0.07764 0.65712 0.0
C346 C 0.94849 0.04494 0.66613 0.0
C347 C 0.89303 0.05428 0.64226 0.0
C348 C 0.91191 0.03387 0.659 0.0
C349 C 0.97181 0.01833 0.67935 0.0
H350 H 0.1196 0.91916 0.64243 0.0
H351 H 0.08957 0.95442 0.67229 0.0
H352 H 0.00793 0.88339 0.61896 0.0
H353 H 0.9789 0.91544 0.65018 0.0
H354 H 0.00787 0.85421 0.74135 0.0
H355 H 0.98054 0.91027 0.72322 0.0
H356 H 0.12127 0.89531 0.72638 0.0
H357 H 0.09341 0.95303 0.71022 0.0
H358 H 0.87628 0.09617 0.72613 0.0
H359 H 0.90215 0.03905 0.70844 0.0
H360 H 0.99127 0.13384 0.74148 0.0
H361 H 0.01646 0.07607 0.72461 0.0
H362 H 0.96105 0.12187 0.63263 0.0
H363 H 0.99383 0.08619 0.66224 0.0
H364 H 0.86561 0.04407 0.63628 0.0
H365 H 0.89884 0.00826 0.66557 0.0
N366 N 0.99007 0.9903 0.66827 0.0
N367 N 0.99955 0.99504 0.71303 0.0
Mn368 Mn 0.34224 0.67325 0.00734 0.0
Mn369 Mn 0.36133 0.5789 0.00948 0.0
C370 C 0.35417 0.64387 0.04114 0.0
C371 C 0.3657 0.73552 0.00466 0.0
C372 C 0.28162 0.61128 0.00157 0.0
O373 O 0.35546 0.66072 0.97528 0.0
O374 O 0.37271 0.59882 0.97927 0.0
C375 C 0.44518 0.57954 0.00367 0.0
N376 N 0.41418 0.5703 0.01603 0.0
C377 C 0.45381 0.54024 0.04387 0.0
C378 C 0.48614 0.54934 0.03139 0.0
C379 C 0.48179 0.56907 0.01121 0.0
C380 C 0.41802 0.55104 0.03539 0.0
H381 H 0.44198 0.59469 0.98816 0.0
C382 C 0.36839 0.6293 0.96771 0.0
O383 O 0.33011 0.72797 1.00006 0.0
O384 O 0.38735 0.70695 0.00991 0.0
N385 N 0.35202 0.55666 0.03798 0.0
C386 C 0.31817 0.5517 0.04854 0.0
C387 C 0.3177 0.53357 0.06935 0.0
C388 C 0.35197 0.52055 0.07902 0.0
C389 C 0.38642 0.52572 0.06777 0.0
C390 C 0.38511 0.54383 0.04703 0.0
H391 H 0.29176 0.56177 0.04123 0.0
O392 O 0.33571 0.67589 0.04031 0.0
O393 O 0.36482 0.63001 0.0222 0.0
O394 O 0.29012 0.64667 0.00337 0.0
O395 O 0.30629 0.58453 0.00315 0.0
C396 C 0.42209 0.51428 0.07653 0.0
C397 C 0.45575 0.52146 0.06456 0.0
H398 H 0.51445 0.54153 0.03721 0.0
H399 H 0.50661 0.57621 0.00149 0.0
H400 H 0.291 0.52977 0.07796 0.0
H401 H 0.35153 0.5069 0.09517 0.0
H402 H 0.42401 0.50036 0.09257 0.0
H403 H 0.48304 0.51286 0.07156 0.0
Mn404 Mn 0.32785 0.839 0.26137 0.0
Mn405 Mn 0.42203 0.85259 0.27013 0.0
C406 C 0.35177 0.84915 0.29696 0.0
C407 C 0.2674 0.86536 0.25517 0.0
C408 C 0.38739 0.77473 0.2611 0.0
O409 O 0.34645 0.85199 0.23023 0.0
O410 O 0.40901 0.8606 0.23828 0.0
C411 C 0.42363 0.93568 0.26117 0.0
N412 N 0.43021 0.90587 0.27522 0.0
C413 C 0.45331 0.94807 0.30391 0.0
C414 C 0.44693 0.97922 0.28972 0.0
C415 C 0.43199 0.97299 0.26827 0.0
C416 C 0.44434 0.91157 0.29594 0.0
H417 H 0.41209 0.93102 0.24469 0.0
C418 C 0.38073 0.85941 0.2246 0.0
O419 O 0.27408 0.82967 0.2507 0.0
O420 O 0.29609 0.88558 0.26202 0.0
N421 N 0.4387 0.84581 0.30027 0.0
C422 C 0.44399 0.81262 0.31169 0.0
C423 C 0.45953 0.81376 0.33329 0.0
C424 C 0.46978 0.84895 0.34283 0.0
C425 C 0.46464 0.88268 0.33061 0.0
C426 C 0.44933 0.87973 0.30909 0.0
H427 H 0.4364 0.78548 0.30437 0.0
O428 O 0.31919 0.83226 0.29406 0.0
O429 O 0.36924 0.85898 0.27897 0.0
O430 O 0.35268 0.78579 0.25901 0.0
O431 O 0.41513 0.79733 0.26559 0.0
C432 C 0.47403 0.91912 0.33896 0.0
C433 C 0.4682 0.9518 0.32565 0.0
H434 H 0.4534 0.00803 0.29511 0.0
H435 H 0.42697 0.99689 0.25722 0.0
H436 H 0.46355 0.78759 0.34258 0.0
H437 H 0.4815 0.84975 0.35955 0.0
H438 H 0.48554 0.92234 0.35563 0.0
H439 H 0.47531 0.97968 0.3323 0.0
Mn440 Mn 0.16835 0.84619 0.50219 0.0
Mn441 Mn 0.07315 0.85342 0.49424 0.0
C442 C 0.14326 0.85616 0.46703 0.0
C443 C 0.22781 0.87468 0.50831 0.0
C444 C 0.11304 0.77791 0.50092 0.0
O445 O 0.14993 0.85697 0.53349 0.0
O446 O 0.08649 0.85847 0.52638 0.0
C447 C 0.06531 0.93474 0.50688 0.0
N448 N 0.06067 0.90639 0.49161 0.0
C449 C 0.03249 0.94999 0.46523 0.0
C450 C 0.03684 0.97962 0.48071 0.0
C451 C 0.05333 0.97195 0.50162 0.0
C452 C 0.04482 0.91347 0.47144 0.0
H453 H 0.07802 0.92901 0.52296 0.0
C454 C 0.11532 0.85979 0.53968 0.0
O455 O 0.22254 0.83859 0.51232 0.0
O456 O 0.19826 0.89416 0.50195 0.0
N457 N 0.0561 0.8493 0.46402 0.0
C458 C 0.05434 0.81767 0.45089 0.0
C459 C 0.03846 0.82046 0.42943 0.0
C460 C 0.02438 0.85565 0.42175 0.0
C461 C 0.02632 0.88777 0.4356 0.0
C462 C 0.04207 0.88316 0.45691 0.0
H463 H 0.06514 0.79057 0.45671 0.0
O464 O 0.17665 0.8408 0.46956 0.0
O465 O 0.12532 0.86478 0.48514 0.0
O466 O 0.14653 0.7916 0.50412 0.0
O467 O 0.08384 0.79835 0.49628 0.0
C468 C 0.01352 0.92423 0.42903 0.0
C469 C 0.01668 0.95534 0.44382 0.0
H470 H 0.02774 0.00837 0.4767 0.0
H471 H 0.05682 0.99468 0.51365 0.0
H472 H 0.03712 0.79555 0.41882 0.0
H473 H 0.01212 0.85767 0.4052 0.0
H474 H 0.00148 0.92871 0.41259 0.0
H475 H 0.00696 0.98328 0.43854 0.0
Mn476 Mn 0.16692 0.66412 0.74621 0.0
Mn477 Mn 0.16384 0.56896 0.73799 0.0
C478 C 0.16049 0.63936 0.71077 0.0
C479 C 0.13573 0.72218 0.75142 0.0
C480 C 0.23712 0.61166 0.74748 0.0
O481 O 0.1543 0.6445 0.77709 0.0
O482 O 0.15495 0.5813 0.7698 0.0
C483 C 0.08175 0.55745 0.74732 0.0
N484 N 0.11173 0.55442 0.73321 0.0
C485 C 0.07196 0.52516 0.70513 0.0
C486 C 0.0407 0.52783 0.7194 0.0
C487 C 0.04563 0.54406 0.74058 0.0
C488 C 0.1073 0.53883 0.7128 0.0
H489 H 0.08537 0.56994 0.7636 0.0
C490 C 0.15163 0.60966 0.78312 0.0
O491 O 0.17155 0.71816 0.75682 0.0
O492 O 0.11801 0.69211 0.74423 0.0
N493 N 0.17158 0.55304 0.70796 0.0
C494 C 0.20444 0.55321 0.69606 0.0
C495 C 0.20439 0.53794 0.6745 0.0
C496 C 0.17063 0.52252 0.66544 0.0
C497 C 0.13718 0.52256 0.67801 0.0
C498 C 0.13907 0.53781 0.6995 0.0
H499 H 0.23043 0.56509 0.70293 0.0
O500 O 0.17448 0.67327 0.71371 0.0
O501 O 0.15143 0.62084 0.72864 0.0
O502 O 0.22197 0.64454 0.75004 0.0
O503 O 0.21822 0.58172 0.74225 0.0
C504 C 0.10198 0.50837 0.67001 0.0
C505 C 0.06938 0.50975 0.68354 0.0
H506 H 0.01278 0.51761 0.71426 0.0
H507 H 0.02163 0.54624 0.75168 0.0
H508 H 0.2303 0.5381 0.66487 0.0
H509 H 0.17073 0.51077 0.64881 0.0
H510 H 0.0996 0.49663 0.6534 0.0
H511 H 0.04241 0.49902 0.67713 0.0
Mn512 Mn 0.84316 0.16302 0.51323 0.0
Mn513 Mn 0.84938 0.06745 0.51881 0.0
C514 C 0.84905 0.13561 0.54803 0.0
C515 C 0.87301 0.22233 0.50996 0.0
C516 C 0.77485 0.1083 0.50966 0.0
O517 O 0.85734 0.14643 0.48202 0.0
O518 O 0.85925 0.08278 0.48751 0.0
C519 C 0.93223 0.05995 0.51045 0.0
N520 N 0.90177 0.05447 0.52397 0.0
C521 C 0.94146 0.02443 0.55179 0.0
C522 C 0.9732 0.02959 0.53812 0.0
C523 C 0.96855 0.04748 0.51737 0.0
C524 C 0.90594 0.03732 0.54397 0.0
H525 H 0.92884 0.07374 0.49451 0.0
C526 C 0.8619 0.11235 0.47502 0.0
O527 O 0.83747 0.21781 0.50403 0.0
O528 O 0.89119 0.19218 0.51657 0.0
N529 N 0.84099 0.0487 0.54824 0.0
C530 C 0.8077 0.04676 0.55968 0.0
C531 C 0.80746 0.02977 0.58081 0.0
C532 C 0.84138 0.01485 0.58992 0.0
C533 C 0.87528 0.01711 0.57783 0.0
C534 C 0.87369 0.03398 0.55675 0.0
H535 H 0.78162 0.05835 0.55281 0.0
O536 O 0.83419 0.16928 0.5458 0.0
O537 O 0.85945 0.11889 0.52983 0.0
O538 O 0.78885 0.14193 0.50826 0.0
O539 O 0.7947 0.07863 0.51414 0.0
C540 C 0.91066 0.00365 0.58597 0.0
C541 C 0.94374 0.00737 0.57298 0.0
H542 H 0.00128 0.02009 0.54341 0.0
H543 H 0.99294 0.05168 0.50676 0.0
H544 H 0.7812 0.02826 0.59008 0.0
H545 H 0.84107 0.00181 0.60623 0.0
H546 H 0.91281 0.9907 0.60228 0.0
H547 H 0.97083 0.9972 0.57949 0.0
Mn548 Mn 0.83502 0.34211 0.75717 0.0
Mn549 Mn 0.92971 0.34789 0.76752 0.0
C550 C 0.85771 0.35203 0.79288 0.0
C551 C 0.77629 0.37116 0.74985 0.0
C552 C 0.889 0.27309 0.75954 0.0
O553 O 0.85597 0.35293 0.72641 0.0
O554 O 0.91893 0.3538 0.73508 0.0
C555 C 0.94094 0.4291 0.75547 0.0
N556 N 0.94337 0.4005 0.77075 0.0
C557 C 0.97061 0.44305 0.79804 0.0
C558 C 0.96856 0.47291 0.78255 0.0
C559 C 0.95366 0.46588 0.76118 0.0
C560 C 0.95785 0.40691 0.79134 0.0
H561 H 0.92945 0.42388 0.73903 0.0
C562 C 0.89107 0.35571 0.72109 0.0
O563 O 0.78145 0.33509 0.74583 0.0
O564 O 0.80568 0.39037 0.75678 0.0
N565 N 0.94396 0.34304 0.7982 0.0
C566 C 0.94276 0.3115 0.81142 0.0
C567 C 0.9559 0.31392 0.83351 0.0
C568 C 0.97032 0.34864 0.84172 0.0
C569 C 0.97158 0.38063 0.82774 0.0
C570 C 0.95832 0.37644 0.80584 0.0
H571 H 0.93149 0.28482 0.80523 0.0
O572 O 0.8244 0.33681 0.78959 0.0
O573 O 0.87707 0.36018 0.7752 0.0
O574 O 0.856 0.2873 0.75564 0.0
O575 O 0.91819 0.29304 0.76492 0.0
C576 C 0.98485 0.41668 0.8348 0.0
C577 C 0.98439 0.44785 0.81996 0.0
H578 H 0.97817 0.50136 0.78691 0.0
H579 H 0.95196 0.48879 0.74913 0.0
H580 H 0.95474 0.28913 0.84421 0.0
H581 H 0.98011 0.35048 0.85882 0.0
H582 H 0.99507 0.42083 0.85169 0.0
H583 H 0.99438 0.47549 0.82564 0.0
Mn584 Mn 0.67278 0.34306 0.00056 0.0
Mn585 Mn 0.57735 0.35174 0.99425 0.0
C586 C 0.64615 0.35515 0.96598 0.0
C587 C 0.73287 0.37081 0.00609 0.0
C588 C 0.61648 0.27554 0.99989 0.0
O589 O 0.65594 0.35343 0.03216 0.0
O590 O 0.59212 0.35633 0.02625 0.0
C591 C 0.56986 0.43276 0.00757 0.0
N592 N 0.56478 0.40475 0.99212 0.0
C593 C 0.53565 0.4489 0.96641 0.0
C594 C 0.54037 0.47816 0.9821 0.0
C595 C 0.55757 0.47004 0.00276 0.0
C596 C 0.54805 0.4122 0.97224 0.0
H597 H 0.58317 0.42671 0.02344 0.0
C598 C 0.62175 0.35703 0.03898 0.0
O599 O 0.7274 0.33464 0.00975 0.0
O600 O 0.70328 0.39071 1.00031 0.0
N601 N 0.55953 0.34831 0.96413 0.0
C602 C 0.55894 0.31737 0.95042 0.0
C603 C 0.54386 0.32101 0.92881 0.0
C604 C 0.5294 0.35632 0.92156 0.0
C605 C 0.53004 0.38768 0.93603 0.0
C606 C 0.54521 0.38229 0.95743 0.0
H607 H 0.57032 0.29026 0.95586 0.0
O608 O 0.67923 0.33878 0.96769 0.0
O609 O 0.62923 0.36291 0.98455 0.0
O610 O 0.65036 0.28861 0.00247 0.0
O611 O 0.58747 0.29656 0.99587 0.0
C612 C 0.51701 0.42428 0.92989 0.0
C613 C 0.51975 0.45485 0.94508 0.0
H614 H 0.53115 0.50701 0.97841 0.0
H615 H 0.56141 0.4925 0.01492 0.0
H616 H 0.54359 0.29671 0.91772 0.0
H617 H 0.51819 0.35912 0.9048 0.0
H618 H 0.5053 0.42934 0.91342 0.0
H619 H 0.51 0.48293 0.94009 0.0
Mn620 Mn 0.65847 0.17185 0.25056 0.0
Mn621 Mn 0.65108 0.07659 0.24373 0.0
C622 C 0.65161 0.146 0.21542 0.0
C623 C 0.6295 0.23123 0.25506 0.0
C624 C 0.72617 0.11645 0.253 0.0
O625 O 0.64502 0.15406 0.28163 0.0
O626 O 0.64182 0.09071 0.2753 0.0
C627 C 0.56829 0.06941 0.25237 0.0
N628 N 0.5985 0.06423 0.23864 0.0
C629 C 0.55819 0.03543 0.21066 0.0
C630 C 0.52669 0.04031 0.22455 0.0
C631 C 0.53177 0.05741 0.24548 0.0
C632 C 0.59392 0.04782 0.21846 0.0
H633 H 0.57203 0.08258 0.26846 0.0
C634 C 0.64003 0.11978 0.28821 0.0
O635 O 0.66515 0.22602 0.26051 0.0
O636 O 0.61068 0.20166 0.24813 0.0
N637 N 0.65889 0.05893 0.21402 0.0
C638 C 0.692 0.05713 0.20241 0.0
C639 C 0.69184 0.04081 0.18111 0.0
C640 C 0.65768 0.02639 0.172 0.0
C641 C 0.62395 0.02852 0.18425 0.0
C642 C 0.62596 0.04471 0.2055 0.0
H643 H 0.71827 0.0683 0.20929 0.0
O644 O 0.66676 0.17949 0.21802 0.0
O645 O 0.64136 0.12857 0.23345 0.0
O646 O 0.71262 0.15016 0.25482 0.0
O647 O 0.70594 0.08711 0.2483 0.0
C648 C 0.58835 0.01556 0.17613 0.0
C649 C 0.55548 0.01909 0.1893 0.0
H650 H 0.49846 0.03117 0.21928 0.0
H651 H 0.50758 0.06131 0.25628 0.0
H652 H 0.71796 0.03941 0.17172 0.0
H653 H 0.65767 0.01384 0.15557 0.0
H654 H 0.58588 0.00315 0.15969 0.0
H655 H 0.52822 0.0093 0.18281 0.0
C656 C 0.18843 0.93613 0.26475 0.0
C657 C 0.15594 0.91258 0.2655 0.0
H658 H 0.24865 0.93981 0.2604 0.0
C659 C 0.15987 0.87376 0.25978 0.0
H660 H 0.1869 0.96598 0.2693 0.0
C661 C 0.19583 0.85851 0.25486 0.0
C662 C 0.22848 0.88181 0.25556 0.0
H663 H 0.13538 0.85488 0.25981 0.0
H664 H 0.19829 0.8282 0.25164 0.0
C665 C 0.22411 0.92099 0.25978 0.0
C666 C 0.1172 0.67912 0.52623 0.0
C667 C 0.08494 0.66159 0.51643 0.0
H668 H 0.15182 0.7295 0.52874 0.0
C669 C 0.0651 0.68129 0.49953 0.0
H670 H 0.13303 0.66512 0.53946 0.0
C671 C 0.07545 0.71845 0.49375 0.0
C672 C 0.10641 0.73663 0.50438 0.0
H673 H 0.0408 0.66843 0.49114 0.0
H674 H 0.05849 0.73336 0.48136 0.0
C675 C 0.12799 0.71613 0.52014 0.0
C676 C 0.3361 0.56909 0.74871 0.0
C677 C 0.35326 0.58862 0.76665 0.0
H678 H 0.28599 0.56101 0.72866 0.0
C679 C 0.33314 0.61897 0.77645 0.0
H680 H 0.351 0.54634 0.74028 0.0
C681 C 0.29615 0.62817 0.76924 0.0
C682 C 0.27825 0.60678 0.75238 0.0
H683 H 0.34508 0.63447 0.79045 0.0
H684 H 0.28078 0.65052 0.77777 0.0
C685 C 0.29891 0.57774 0.74186 0.0
C686 C 0.37287 0.84075 0.01843 0.0
C687 C 0.41273 0.84514 0.02023 0.0
H688 H 0.32631 0.80223 0.01175 0.0
C689 C 0.43631 0.8151 0.01331 0.0
H690 H 0.35399 0.86343 0.02364 0.0
C691 C 0.42059 0.78033 0.00665 0.0
C692 C 0.38089 0.77479 0.00656 0.0
H693 H 0.4671 0.8179 0.01401 0.0
H694 H 0.43972 0.75713 0.00258 0.0
C695 C 0.35703 0.80577 0.0116 0.0
C696 C 0.1953 0.5487 0.99078 0.0
C697 C 0.16826 0.57489 0.98266 0.0
H698 H 0.25163 0.53959 0.00335 0.0
C699 C 0.1775 0.61399 0.98264 0.0
H700 H 0.18877 0.51848 0.9914 0.0
C701 C 0.21389 0.62633 0.98953 0.0
C702 C 0.24159 0.59975 0.9966 0.0
H703 H 0.15719 0.63481 0.97641 0.0
H704 H 0.22071 0.65643 0.98856 0.0
C705 C 0.23139 0.56092 0.99766 0.0
C706 C 0.38297 0.67362 0.23822 0.0
C707 C 0.42125 0.66229 0.24074 0.0
H708 H 0.34192 0.71833 0.2427 0.0
C709 C 0.44667 0.68604 0.25244 0.0
H710 H 0.36285 0.65574 0.22921 0.0
C711 C 0.43483 0.7215 0.26023 0.0
C712 C 0.39727 0.73433 0.25635 0.0
H713 H 0.4762 0.67769 0.25487 0.0
H714 H 0.45574 0.73951 0.26849 0.0
C715 C 0.37106 0.70945 0.24591 0.0
C716 C 0.30371 0.94936 0.5007 0.0
C717 C 0.33538 0.92703 0.49487 0.0
H718 H 0.24496 0.95017 0.50991 0.0
C719 C 0.3331 0.88715 0.49739 0.0
H720 H 0.30482 0.98019 0.49948 0.0
C721 C 0.29876 0.86987 0.50373 0.0
C722 C 0.26618 0.89223 0.50752 0.0
H723 H 0.35697 0.86913 0.49301 0.0
H724 H 0.297 0.83901 0.50404 0.0
C725 C 0.26948 0.93216 0.50684 0.0
C726 C 0.11958 0.82931 0.75212 0.0
C727 C 0.08316 0.83198 0.74203 0.0
H728 H 0.16488 0.79242 0.76323 0.0
C729 C 0.06322 0.79803 0.73728 0.0
H730 H 0.13558 0.85477 0.75638 0.0
C731 C 0.07961 0.76257 0.74166 0.0
C732 C 0.11671 0.75988 0.7506 0.0
H733 H 0.03552 0.79855 0.72913 0.0
H734 H 0.06373 0.73721 0.73701 0.0
C735 C 0.13626 0.79359 0.75627 0.0
C736 C 0.70097 0.44601 0.75758 0.0
C737 C 0.66936 0.42375 0.76366 0.0
H738 H 0.75953 0.44665 0.74798 0.0
C739 C 0.67121 0.38392 0.76091 0.0
H740 H 0.70012 0.47683 0.759 0.0
C741 C 0.70531 0.36655 0.75426 0.0
C742 C 0.73799 0.38881 0.75038 0.0
H743 H 0.6473 0.36603 0.76545 0.0
H744 H 0.70688 0.33569 0.75391 0.0
C745 C 0.73493 0.42874 0.75111 0.0
C746 C 0.61757 0.17792 0.02677 0.0
C747 C 0.58456 0.16108 0.01738 0.0
H748 H 0.65405 0.22711 0.02827 0.0
C749 C 0.56552 0.18047 1.00006 0.0
H750 H 0.63286 0.16419 0.04029 0.0
C751 C 0.57733 0.21683 0.99349 0.0
C752 C 0.60896 0.23448 0.00376 0.0
H753 H 0.5407 0.16809 0.99195 0.0
H754 H 0.56087 0.23169 0.98085 0.0
C755 C 0.62979 0.2141 0.0199 0.0
C756 C 0.82388 0.07131 0.25326 0.0
C757 C 0.84106 0.0881 0.27211 0.0
H758 H 0.77406 0.06689 0.23259 0.0
C759 C 0.82153 0.1178 0.28295 0.0
H760 H 0.83837 0.04928 0.24398 0.0
C761 C 0.785 0.12887 0.2758 0.0
C762 C 0.76699 0.10996 0.258 0.0
H763 H 0.83349 0.13124 0.29764 0.0
H764 H 0.76996 0.15058 0.28506 0.0
C765 C 0.78709 0.08168 0.24652 0.0
C766 C 0.88858 0.32975 0.50983 0.0
C767 C 0.92396 0.33268 0.52111 0.0
H768 H 0.84455 0.29251 0.49727 0.0
C769 C 0.94314 0.29883 0.527 0.0
H770 H 0.87316 0.35509 0.50471 0.0
C771 C 0.92724 0.26329 0.52225 0.0
C772 C 0.8913 0.26032 0.51184 0.0
H773 H 0.96989 0.29951 0.53617 0.0
H774 H 0.94262 0.23806 0.52765 0.0
C775 C 0.8723 0.2939 0.50534 0.0
C776 C 0.67839 0.11432 0.481 0.0
C777 C 0.65879 0.08348 0.49072 0.0
H778 H 0.73028 0.1468 0.47967 0.0
C779 C 0.67664 0.06369 0.50834 0.0
H780 H 0.66599 0.13002 0.46722 0.0
C781 C 0.71387 0.07269 0.51498 0.0
C782 C 0.73387 0.10242 0.50465 0.0
H783 H 0.66222 0.04058 0.51675 0.0
H784 H 0.72724 0.05583 0.52796 0.0
C785 C 0.71539 0.12392 0.48806 0.0
C786 C 0.93506 0.17571 0.76149 0.0
C787 C 0.91658 0.15692 0.74373 0.0
H788 H 0.94076 0.22709 0.78043 0.0
C789 C 0.88558 0.17526 0.73311 0.0
H790 H 0.95829 0.1622 0.77052 0.0
C791 C 0.87481 0.21221 0.73928 0.0
C792 C 0.8952 0.23182 0.75593 0.0
H793 H 0.87084 0.162 0.71922 0.0
H794 H 0.85208 0.22624 0.73006 0.0
C795 C 0.92478 0.21284 0.76735 0.0
C796 C 0.83834 0.38355 0.99539 0.0
C797 C 0.84091 0.42357 0.99378 0.0
H798 H 0.80193 0.33518 0.00093 0.0
C799 C 0.80923 0.44564 0.99993 0.0
H800 H 0.86214 0.36569 0.99071 0.0
C801 C 0.77483 0.42821 0.00555 0.0
C802 C 0.77132 0.38827 0.00542 0.0
H803 H 0.8105 0.47653 0.9994 0.0
H804 H 0.75038 0.44612 0.00896 0.0
C805 C 0.80383 0.36604 0.00124 0.0
C806 C 0.61834 0.33875 0.25258 0.0
C807 C 0.58118 0.34221 0.24359 0.0
H808 H 0.66286 0.30086 0.26354 0.0
C809 C 0.55892 0.30903 0.24113 0.0
H810 H 0.63608 0.36373 0.25511 0.0
C811 C 0.57403 0.27327 0.2463 0.0
C812 C 0.61193 0.26959 0.25388 0.0
H813 H 0.53043 0.31026 0.23402 0.0
H814 H 0.55647 0.2483 0.24326 0.0
C815 C 0.63361 0.30276 0.25762 0.0
C816 C 0.12254 0.86667 0.40562 0.0
C817 C 0.11343 0.9057 0.40418 0.0
H818 H 0.13952 0.82027 0.42691 0.0
C819 C 0.11536 0.92822 0.42347 0.0
H820 H 0.12144 0.84875 0.39097 0.0
C821 C 0.12493 0.91183 0.44389 0.0
C822 C 0.13261 0.87266 0.44542 0.0
H823 H 0.10804 0.95824 0.42294 0.0
H824 H 0.1259 0.9297 0.45858 0.0
C825 C 0.1327 0.85039 0.42608 0.0
C826 C 0.15032 0.61817 0.64938 0.0
C827 C 0.11145 0.6082 0.64791 0.0
H828 H 0.19654 0.63641 0.67073 0.0
C829 C 0.089 0.61014 0.66707 0.0
H830 H 0.16821 0.61704 0.63484 0.0
C831 C 0.10526 0.62047 0.6874 0.0
C832 C 0.14428 0.62894 0.68903 0.0
H833 H 0.05913 0.60211 0.66657 0.0
H834 H 0.08741 0.62122 0.70198 0.0
C835 C 0.16651 0.62911 0.6698 0.0
C836 C 0.43587 0.62347 0.91997 0.0
C837 C 0.41129 0.61386 0.90216 0.0
H838 H 0.4411 0.63638 0.95465 0.0
C839 C 0.37164 0.61317 0.90583 0.0
H840 H 0.46655 0.62356 0.91798 0.0
C841 C 0.35718 0.62026 0.92705 0.0
C842 C 0.38215 0.62821 0.94482 0.0
H843 H 0.35191 0.60613 0.89247 0.0
H844 H 0.32674 0.61806 0.92978 0.0
C845 C 0.42142 0.63053 0.94106 0.0
C846 C 0.38148 0.90432 0.16744 0.0
C847 C 0.41595 0.88978 0.15902 0.0
H848 H 0.34278 0.90564 0.19495 0.0
C849 C 0.43525 0.86132 0.17119 0.0
H850 H 0.36596 0.92642 0.1586 0.0
C851 C 0.42248 0.85027 0.19208 0.0
C852 C 0.38955 0.8666 0.20108 0.0
H853 H 0.46123 0.84865 0.16499 0.0
H854 H 0.4391 0.82972 0.20154 0.0
C855 C 0.36822 0.89259 0.18827 0.0
C856 C 0.143 0.55438 0.83657 0.0
C857 C 0.11739 0.57698 0.84865 0.0
H858 H 0.17375 0.54706 0.80641 0.0
C859 C 0.10697 0.61297 0.84011 0.0
H860 H 0.15241 0.52697 0.8429 0.0
C861 C 0.11986 0.62484 0.81925 0.0
C862 C 0.14296 0.6007 0.80652 0.0
H863 H 0.0871 0.63101 0.84889 0.0
H864 H 0.10993 0.65182 0.81257 0.0
C865 C 0.15532 0.56593 0.81568 0.0
C866 C 0.36624 0.6154 0.10137 0.0
C867 C 0.40584 0.6085 0.10266 0.0
H868 H 0.31865 0.63191 0.08064 0.0
C869 C 0.42797 0.61464 0.08362 0.0
H870 H 0.34841 0.61169 0.11579 0.0
C871 C 0.41092 0.62636 0.06374 0.0
C872 C 0.37132 0.63134 0.06227 0.0
H873 H 0.45839 0.60918 0.08376 0.0
H874 H 0.4287 0.63097 0.04937 0.0
C875 C 0.34918 0.62704 0.08135 0.0
C876 C 0.36266 0.9298 0.3374 0.0
C877 C 0.37758 0.91163 0.35654 0.0
H878 H 0.34489 0.92419 0.30344 0.0
C879 C 0.37973 0.87129 0.35641 0.0
H880 H 0.35776 0.96021 0.33681 0.0
C881 C 0.36966 0.8504 0.33737 0.0
C882 C 0.35918 0.8695 0.31784 0.0
H883 H 0.39092 0.85554 0.37046 0.0
H884 H 0.37216 0.81959 0.33753 0.0
C885 C 0.3546 0.90911 0.31818 0.0
C886 C 0.11408 0.90394 0.59684 0.0
C887 C 0.08331 0.88448 0.60673 0.0
H888 H 0.14884 0.91078 0.56793 0.0
C889 C 0.06644 0.8539 0.59502 0.0
H890 H 0.12759 0.92801 0.60499 0.0
C891 C 0.07783 0.84512 0.57346 0.0
C892 C 0.10727 0.86575 0.56338 0.0
H893 H 0.04354 0.83738 0.60219 0.0
H894 H 0.06312 0.8226 0.56447 0.0
C895 C 0.12622 0.89432 0.57548 0.0
C896 C 0.61754 0.43323 0.92629 0.0
C897 C 0.61826 0.41459 0.90559 0.0
H898 H 0.62648 0.42899 0.96139 0.0
C899 C 0.62896 0.37582 0.90497 0.0
H900 H 0.60887 0.46277 0.92765 0.0
C901 C 0.63789 0.35615 0.92462 0.0
C902 C 0.63577 0.37476 0.94518 0.0
H903 H 0.63055 0.36068 0.88934 0.0
H904 H 0.64595 0.32634 0.92379 0.0
C905 C 0.62676 0.41368 0.94576 0.0
C906 C 0.58193 0.11733 0.17056 0.0
C907 C 0.60552 0.11409 0.15193 0.0
H908 H 0.57849 0.12963 0.2053 0.0
C909 C 0.6446 0.12277 0.15417 0.0
H910 H 0.55184 0.11032 0.16947 0.0
C911 C 0.65982 0.1338 0.17481 0.0
C912 C 0.63639 0.13499 0.19354 0.0
H913 H 0.66336 0.12063 0.14005 0.0
H914 H 0.69 0.14019 0.17631 0.0
C915 C 0.59723 0.12776 0.19114 0.0
C916 C 0.90078 0.1279 0.41706 0.0
C917 C 0.89759 0.09105 0.40795 0.0
H918 H 0.89158 0.16381 0.44535 0.0
C919 C 0.88 0.06227 0.42046 0.0
H920 H 0.91413 0.15067 0.40776 0.0
C921 C 0.86748 0.06962 0.44195 0.0
C922 C 0.87192 0.10605 0.45144 0.0
H923 H 0.87758 0.03346 0.41406 0.0
H924 H 0.85508 0.0464 0.45133 0.0
C925 C 0.88781 0.13542 0.43855 0.0
C926 C 0.89289 0.40012 0.66387 0.0
C927 C 0.92634 0.38408 0.65496 0.0
H928 H 0.85512 0.40316 0.69167 0.0
C929 C 0.94541 0.35557 0.66729 0.0
H930 H 0.87757 0.42253 0.6552 0.0
C931 C 0.93315 0.34556 0.68851 0.0
C932 C 0.90081 0.36284 0.69766 0.0
H933 H 0.97052 0.34162 0.66085 0.0
H934 H 0.94937 0.32468 0.69796 0.0
C935 C 0.88003 0.38926 0.68489 0.0
C936 C 0.6202 0.06801 0.34211 0.0
C937 C 0.60623 0.09749 0.35557 0.0
H938 H 0.64164 0.05187 0.31041 0.0
C939 C 0.60618 0.13504 0.34729 0.0
H940 H 0.62011 0.0387 0.34784 0.0
C941 C 0.61845 0.14267 0.32567 0.0
C942 C 0.6306 0.11281 0.31183 0.0
H943 H 0.5957 0.15836 0.35732 0.0
H944 H 0.61708 0.17172 0.31956 0.0
C945 C 0.63212 0.07554 0.3205 0.0
C946 C 0.85588 0.11013 0.60899 0.0
C947 C 0.89496 0.10149 0.61116 0.0
H948 H 0.81053 0.12829 0.58703 0.0
C949 C 0.91859 0.10535 0.59259 0.0
H950 H 0.83711 0.1075 0.62308 0.0
C951 C 0.90333 0.11644 0.57212 0.0
C952 C 0.86418 0.12376 0.56979 0.0
H953 H 0.94869 0.09842 0.59366 0.0
H954 H 0.9221 0.11882 0.55799 0.0
C955 C 0.8407 0.12186 0.58847 0.0
C956 C 0.88437 0.42634 0.83528 0.0
C957 C 0.88312 0.40567 0.8553 0.0
H958 H 0.87717 0.4253 0.79996 0.0
C959 C 0.87186 0.36708 0.85465 0.0
H960 H 0.89348 0.45588 0.83498 0.0
C961 C 0.86317 0.3494 0.83434 0.0
C962 C 0.86647 0.36983 0.81442 0.0
H963 H 0.87012 0.35048 0.86979 0.0
H964 H 0.85491 0.3196 0.83413 0.0
C965 C 0.87581 0.40868 0.81512 0.0
C966 C 0.62249 0.40753 0.09413 0.0
C967 C 0.59387 0.38765 0.10575 0.0
H968 H 0.65433 0.41267 0.06402 0.0
C969 C 0.57808 0.35465 0.09588 0.0
H970 H 0.63504 0.43343 0.10072 0.0
C971 C 0.58821 0.34382 0.07439 0.0
C972 C 0.61546 0.36479 0.06265 0.0
H973 H 0.55691 0.33774 0.1044 0.0
H974 H 0.57417 0.3195 0.06674 0.0
C975 C 0.6335 0.39588 0.07293 0.0
loop_
_geom_bond_atom_site_label_1
_geom_bond_atom_site_label_2
_geom_bond_distance
_geom_bond_site_symmetry_2
_ccdc_geom_bond_type
C0 C1 1.384 . S
C0 C2 1.384 . S
C0 H28 0.931 . S
C1 C0 1.384 . S
C1 C4 1.382 . S
C2 C0 1.384 . S
C2 C3 1.381 . S
C2 H29 0.930 . S
C3 C2 1.381 . S
C3 C5 1.381 . S
C3 C6 1.487 . S
C4 C1 1.382 . S
C4 C5 1.387 . S
C4 H30 0.930 . S
C5 C3 1.381 . S
C5 C4 1.387 . S
C5 H31 0.931 1_565 S
C6 C3 1.487 . S
C6 C13 1.399 . S
C6 N44 1.343 1_565 S
C7 C8 1.384 . S
C7 C9 1.384 . S
C7 H32 0.931 . S
C8 C7 1.384 . S
C8 C11 1.382 . S
C9 C7 1.384 . S
C9 C10 1.381 . S
C9 H33 0.930 . S
C10 C9 1.381 . S
C10 C12 1.381 . S
C10 C13 1.487 . S
C11 C8 1.382 . S
C11 C12 1.387 . S
C11 H34 0.930 . S
C12 C10 1.381 . S
C12 C11 1.387 . S
C12 H35 0.931 . S
C13 C6 1.399 . S
C13 C10 1.487 . S
C13 N45 1.340 1_465 S
C14 C15 1.384 . S
C14 C16 1.384 . S
C14 H36 0.931 . S
C15 C14 1.384 . S
C15 C18 1.382 . S
C16 C14 1.384 . S
C16 C17 1.381 . S
C16 H37 0.930 . S
C17 C16 1.381 . S
C17 C19 1.381 . S
C17 C20 1.487 . S
C18 C15 1.382 . S
C18 C19 1.387 . S
C18 H38 0.930 . S
C19 C17 1.381 . S
C19 C18 1.387 . S
C19 H39 0.931 1_545 S
C20 C17 1.487 . S
C20 C27 1.399 . S
C20 N45 1.346 . S
C21 C22 1.384 . S
C21 C23 1.384 . S
C21 H40 0.931 . S
C22 C21 1.384 . S
C22 C25 1.382 . S
C23 C21 1.384 . S
C23 C24 1.381 . S
C23 H41 0.930 . S
C24 C23 1.381 . S
C24 C26 1.381 . S
C24 C27 1.487 . S
C25 C22 1.382 . S
C25 C26 1.387 . S
C25 H42 0.930 . S
C26 C24 1.381 . S
C26 C25 1.387 . S
C26 H43 0.931 . S
C27 C20 1.399 . S
C27 C24 1.487 . S
C27 N44 1.343 1_655 S
H28 C0 0.931 . S
H29 C2 0.930 . S
H30 C4 0.930 . S
H31 C5 0.931 1_545 S
H32 C7 0.931 . S
H33 C9 0.930 . S
H34 C11 0.930 . S
H35 C12 0.931 . S
H36 C14 0.931 . S
H37 C16 0.930 . S
H38 C18 0.930 . S
H39 C19 0.931 1_565 S
H40 C21 0.931 . S
H41 C23 0.930 . S
H42 C25 0.930 . S
H43 C26 0.931 . S
N44 C6 1.343 1_545 S
N44 C27 1.343 1_455 S
N45 C13 1.340 1_645 S
N45 C20 1.346 . S
C46 C47 1.384 . S
C46 C48 1.384 . S
C46 H74 0.931 . S
C47 C46 1.384 . S
C47 C50 1.382 . S
C48 C46 1.384 . S
C48 C49 1.381 . S
C48 H75 0.930 . S
C49 C48 1.381 . S
C49 C51 1.381 . S
C49 C52 1.487 . S
C50 C47 1.382 . S
C50 C51 1.387 . S
C50 H76 0.930 . S
C51 C49 1.381 . S
C51 C50 1.387 . S
C51 H77 0.931 1_655 S
C52 C49 1.487 . S
C52 C59 1.399 . S
C52 N90 1.343 1_655 S
C53 C54 1.384 . S
C53 C55 1.384 . S
C53 H78 0.931 . S
C54 C53 1.384 . S
C54 C57 1.382 . S
C55 C53 1.384 . S
C55 C56 1.381 . S
C55 H79 0.930 . S
C56 C55 1.381 . S
C56 C58 1.381 . S
C56 C59 1.487 . S
C57 C54 1.382 . S
C57 C58 1.387 . S
C57 H80 0.930 . S
C58 C56 1.381 . S
C58 C57 1.387 . S
C58 H81 0.931 . S
C59 C52 1.399 . S
C59 C56 1.487 . S
C59 N91 1.343 . S
C60 C61 1.384 . S
C60 C62 1.384 . S
C60 H82 0.931 . S
C61 C60 1.384 . S
C61 C64 1.382 . S
C62 C60 1.384 . S
C62 C63 1.381 . S
C62 H83 0.930 . S
C63 C62 1.381 . S
C63 C65 1.381 . S
C63 C66 1.487 . S
C64 C61 1.382 . S
C64 C65 1.387 . S
C64 H84 0.930 . S
C65 C63 1.381 . S
C65 C64 1.387 . S
C65 H85 0.931 1_455 S
C66 C63 1.487 . S
C66 C73 1.399 . S
C66 N91 1.343 1_455 S
C67 C68 1.384 . S
C67 C69 1.384 . S
C67 H86 0.931 . S
C68 C67 1.384 . S
C68 C71 1.382 . S
C69 C67 1.384 . S
C69 C70 1.381 . S
C69 H87 0.930 . S
C70 C69 1.381 . S
C70 C72 1.381 . S
C70 C73 1.487 . S
C71 C68 1.382 . S
C71 C72 1.387 . S
C71 H88 0.930 . S
C72 C70 1.381 . S
C72 C71 1.387 . S
C72 H89 0.931 . S
C73 C66 1.399 . S
C73 C70 1.487 . S
C73 N90 1.343 . S
H74 C46 0.931 . S
H75 C48 0.930 . S
H76 C50 0.930 . S
H77 C51 0.931 1_455 S
H78 C53 0.931 . S
H79 C55 0.930 . S
H80 C57 0.930 . S
H81 C58 0.931 . S
H82 C60 0.931 . S
H83 C62 0.930 . S
H84 C64 0.930 . S
H85 C65 0.931 1_655 S
H86 C67 0.931 . S
H87 C69 0.930 . S
H88 C71 0.930 . S
H89 C72 0.931 . S
N90 C52 1.343 1_455 S
N90 C73 1.343 . S
N91 C59 1.343 . S
N91 C66 1.343 1_655 S
C92 C93 1.384 . S
C92 C94 1.384 . S
C92 H120 0.931 . S
C93 C92 1.384 . S
C93 C96 1.382 . S
C94 C92 1.384 . S
C94 C95 1.381 . S
C94 H121 0.930 . S
C95 C94 1.381 . S
C95 C97 1.381 . S
C95 C98 1.487 . S
C96 C93 1.382 . S
C96 C97 1.387 . S
C96 H122 0.930 . S
C97 C95 1.381 . S
C97 C96 1.387 . S
C97 H123 0.931 . S
C98 C95 1.487 . S
C98 C105 1.399 . S
C98 N136 1.343 . S
C99 C100 1.384 . S
C99 C101 1.384 . S
C99 H124 0.931 . S
C100 C99 1.384 . S
C100 C103 1.382 . S
C101 C99 1.384 . S
C101 C102 1.381 . S
C101 H125 0.930 . S
C102 C101 1.381 . S
C102 C104 1.381 . S
C102 C105 1.487 . S
C103 C100 1.382 . S
C103 C104 1.387 . S
C103 H126 0.930 . S
C104 C102 1.381 . S
C104 C103 1.387 . S
C104 H127 0.931 . S
C105 C98 1.399 . S
C105 C102 1.487 . S
C105 N137 1.343 . S
C106 C107 1.384 . S
C106 C108 1.384 . S
C106 H128 0.931 . S
C107 C106 1.384 . S
C107 C110 1.382 . S
C108 C106 1.384 . S
C108 C109 1.381 . S
C108 H129 0.930 . S
C109 C108 1.381 . S
C109 C111 1.381 . S
C109 C112 1.487 . S
C110 C107 1.382 . S
C110 C111 1.387 . S
C110 H130 0.930 . S
C111 C109 1.381 . S
C111 C110 1.387 . S
C111 H131 0.931 . S
C112 C109 1.487 . S
C112 C119 1.399 . S
C112 N137 1.343 . S
C113 C114 1.384 . S
C113 C115 1.384 . S
C113 H132 0.931 . S
C114 C113 1.384 . S
C114 C117 1.382 . S
C115 C113 1.384 . S
C115 C116 1.381 . S
C115 H133 0.930 . S
C116 C115 1.381 . S
C116 C118 1.381 . S
C116 C119 1.487 . S
C117 C114 1.382 . S
C117 C118 1.387 . S
C117 H134 0.930 . S
C118 C116 1.381 . S
C118 C117 1.387 . S
C118 H135 0.931 . S
C119 C112 1.399 . S
C119 C116 1.487 . S
C119 N136 1.343 . S
H120 C92 0.931 . S
H121 C94 0.930 . S
H122 C96 0.930 . S
H123 C97 0.931 . S
H124 C99 0.931 . S
H125 C101 0.930 . S
H126 C103 0.930 . S
H127 C104 0.931 . S
H128 C106 0.931 . S
H129 C108 0.930 . S
H130 C110 0.930 . S
H131 C111 0.931 . S
H132 C113 0.931 . S
H133 C115 0.930 . S
H134 C117 0.930 . S
H135 C118 0.931 . S
N136 C98 1.343 . S
N136 C119 1.343 . S
N137 C105 1.343 . S
N137 C112 1.343 . S
C138 C139 1.384 . S
C138 C140 1.384 . S
C138 H166 0.931 . S
C139 C138 1.384 . S
C139 C142 1.382 . S
C140 C138 1.384 . S
C140 C141 1.381 . S
C140 H167 0.930 . S
C141 C140 1.381 . S
C141 C143 1.381 . S
C141 C144 1.487 . S
C142 C139 1.382 . S
C142 C143 1.387 . S
C142 H168 0.930 . S
C143 C141 1.381 . S
C143 C142 1.387 . S
C143 H169 0.931 . S
C144 C141 1.487 . S
C144 C151 1.399 . S
C144 N182 1.343 1_565 S
C145 C146 1.384 . S
C145 C147 1.384 . S
C145 H170 0.931 . S
C146 C145 1.384 . S
C146 C149 1.382 . S
C147 C145 1.384 . S
C147 C148 1.381 . S
C147 H171 0.930 . S
C148 C147 1.381 . S
C148 C150 1.381 . S
C148 C151 1.487 . S
C149 C146 1.382 . S
C149 C150 1.387 . S
C149 H172 0.930 . S
C150 C148 1.381 . S
C150 C149 1.387 . S
C150 H173 0.931 . S
C151 C144 1.399 . S
C151 C148 1.487 . S
C151 N183 1.343 1_565 S
C152 C153 1.384 . S
C152 C154 1.384 . S
C152 H174 0.931 . S
C153 C152 1.384 . S
C153 C156 1.382 . S
C154 C152 1.384 . S
C154 C155 1.381 . S
C154 H175 0.930 . S
C155 C154 1.381 . S
C155 C157 1.381 . S
C155 C158 1.487 . S
C156 C153 1.382 . S
C156 C157 1.387 . S
C156 H176 0.930 . S
C157 C155 1.381 . S
C157 C156 1.387 . S
C157 H177 0.931 . S
C158 C155 1.487 . S
C158 C165 1.399 . S
C158 N183 1.343 . S
C159 C160 1.384 . S
C159 C161 1.384 . S
C159 H178 0.931 . S
C160 C159 1.384 . S
C160 C163 1.382 . S
C161 C159 1.384 . S
C161 C162 1.381 . S
C161 H179 0.930 . S
C162 C161 1.381 . S
C162 C164 1.381 . S
C162 C165 1.487 . S
C163 C160 1.382 . S
C163 C164 1.387 . S
C163 H180 0.930 . S
C164 C162 1.381 . S
C164 C163 1.387 . S
C164 H181 0.931 . S
C165 C158 1.399 . S
C165 C162 1.487 . S
C165 N182 1.343 . S
H166 C138 0.931 . S
H167 C140 0.930 . S
H168 C142 0.930 . S
H169 C143 0.931 . S
H170 C145 0.931 . S
H171 C147 0.930 . S
H172 C149 0.930 . S
H173 C150 0.931 . S
H174 C152 0.931 . S
H175 C154 0.930 . S
H176 C156 0.930 . S
H177 C157 0.931 . S
H178 C159 0.931 . S
H179 C161 0.930 . S
H180 C163 0.930 . S
H181 C164 0.931 . S
N182 C144 1.343 1_545 S
N182 C165 1.343 . S
N183 C151 1.343 1_545 S
N183 C158 1.343 . S
C184 C185 1.384 . S
C184 C186 1.384 . S
C184 H212 0.931 . S
C185 C184 1.384 . S
C185 C188 1.382 . S
C186 C184 1.384 . S
C186 C187 1.381 . S
C186 H213 0.930 . S
C187 C186 1.381 . S
C187 C189 1.381 . S
C187 C190 1.487 . S
C188 C185 1.382 . S
C188 C189 1.387 . S
C188 H214 0.930 . S
C189 C187 1.381 . S
C189 C188 1.387 . S
C189 H215 0.931 . S
C190 C187 1.487 . S
C190 C197 1.399 . S
C190 N228 1.343 . S
C191 C192 1.384 . S
C191 C193 1.384 . S
C191 H216 0.931 . S
C192 C191 1.384 . S
C192 C195 1.382 . S
C193 C191 1.384 . S
C193 C194 1.381 . S
C193 H217 0.930 . S
C194 C193 1.381 . S
C194 C196 1.381 . S
C194 C197 1.487 . S
C195 C192 1.382 . S
C195 C196 1.387 . S
C195 H218 0.930 . S
C196 C194 1.381 . S
C196 C195 1.387 . S
C196 H219 0.931 . S
C197 C190 1.399 . S
C197 C194 1.487 . S
C197 N229 1.343 . S
C198 C199 1.384 . S
C198 C200 1.384 . S
C198 H220 0.931 . S
C199 C198 1.384 . S
C199 C202 1.382 . S
C200 C198 1.384 . S
C200 C201 1.381 . S
C200 H221 0.930 . S
C201 C200 1.381 . S
C201 C203 1.381 . S
C201 C204 1.487 . S
C202 C199 1.382 . S
C202 C203 1.387 . S
C202 H222 0.930 . S
C203 C201 1.381 . S
C203 C202 1.387 . S
C203 H223 0.931 . S
C204 C201 1.487 . S
C204 C211 1.399 . S
C204 N229 1.343 1_655 S
C205 C206 1.384 . S
C205 C207 1.384 . S
C205 H224 0.931 . S
C206 C205 1.384 . S
C206 C209 1.382 . S
C207 C205 1.384 . S
C207 C208 1.381 . S
C207 H225 0.930 . S
C208 C207 1.381 . S
C208 C210 1.381 . S
C208 C211 1.487 . S
C209 C206 1.382 . S
C209 C210 1.387 . S
C209 H226 0.930 . S
C210 C208 1.381 . S
C210 C209 1.387 . S
C210 H227 0.931 . S
C211 C204 1.399 . S
C211 C208 1.487 . S
C211 N228 1.343 1_655 S
H212 C184 0.931 . S
H213 C186 0.930 . S
H214 C188 0.930 . S
H215 C189 0.931 . S
H216 C191 0.931 . S
H217 C193 0.930 . S
H218 C195 0.930 . S
H219 C196 0.931 . S
H220 C198 0.931 . S
H221 C200 0.930 . S
H222 C202 0.930 . S
H223 C203 0.931 . S
H224 C205 0.931 . S
H225 C207 0.930 . S
H226 C209 0.930 . S
H227 C210 0.931 . S
N228 C190 1.343 . S
N228 C211 1.343 1_455 S
N229 C197 1.343 . S
N229 C204 1.343 1_455 S
C230 C231 1.384 . S
C230 C232 1.384 . S
C230 H258 0.931 . S
C231 C230 1.384 . S
C231 C234 1.382 . S
C232 C230 1.384 . S
C232 C233 1.381 . S
C232 H259 0.930 . S
C233 C232 1.381 . S
C233 C235 1.381 . S
C233 C236 1.487 . S
C234 C231 1.382 . S
C234 C235 1.387 . S
C234 H260 0.930 . S
C235 C233 1.381 . S
C235 C234 1.387 . S
C235 H261 0.931 . S
C236 C233 1.487 . S
C236 C243 1.399 . S
C236 N274 1.343 . S
C237 C238 1.384 . S
C237 C239 1.384 . S
C237 H262 0.931 . S
C238 C237 1.384 . S
C238 C241 1.382 . S
C239 C237 1.384 . S
C239 C240 1.381 . S
C239 H263 0.930 . S
C240 C239 1.381 . S
C240 C242 1.381 . S
C240 C243 1.487 . S
C241 C238 1.382 . S
C241 C242 1.387 . S
C241 H264 0.930 . S
C242 C240 1.381 . S
C242 C241 1.387 . S
C242 H265 0.931 . S
C243 C236 1.399 . S
C243 C240 1.487 . S
C243 N275 1.343 . S
C244 C245 1.384 . S
C244 C246 1.384 . S
C244 H266 0.931 . S
C245 C244 1.384 . S
C245 C248 1.382 . S
C246 C244 1.384 . S
C246 C247 1.381 . S
C246 H267 0.930 . S
C247 C246 1.381 . S
C247 C249 1.381 . S
C247 C250 1.487 . S
C248 C245 1.382 . S
C248 C249 1.387 . S
C248 H268 0.930 . S
C249 C247 1.381 . S
C249 C248 1.387 . S
C249 H269 0.931 . S
C250 C247 1.487 . S
C250 C257 1.399 . S
C250 N275 1.343 . S
C251 C252 1.384 . S
C251 C253 1.384 . S
C251 H270 0.931 . S
C252 C251 1.384 . S
C252 C255 1.382 . S
C253 C251 1.384 . S
C253 C254 1.381 . S
C253 H271 0.930 . S
C254 C253 1.381 . S
C254 C256 1.381 . S
C254 C257 1.487 . S
C255 C252 1.382 . S
C255 C256 1.387 . S
C255 H272 0.930 . S
C256 C254 1.381 . S
C256 C255 1.387 . S
C256 H273 0.931 . S
C257 C250 1.399 . S
C257 C254 1.487 . S
C257 N274 1.343 . S
H258 C230 0.931 . S
H259 C232 0.930 . S
H260 C234 0.930 . S
H261 C235 0.931 . S
H262 C237 0.931 . S
H263 C239 0.930 . S
H264 C241 0.930 . S
H265 C242 0.931 . S
H266 C244 0.931 . S
H267 C246 0.930 . S
H268 C248 0.930 . S
H269 C249 0.931 . S
H270 C251 0.931 . S
H271 C253 0.930 . S
H272 C255 0.930 . S
H273 C256 0.931 . S
N274 C236 1.343 . S
N274 C257 1.343 . S
N275 C243 1.343 . S
N275 C250 1.343 . S
C276 C277 1.384 . S
C276 C278 1.384 . S
C276 H304 0.931 . S
C277 C276 1.384 . S
C277 C280 1.382 . S
C278 C276 1.384 . S
C278 C279 1.381 . S
C278 H305 0.930 . S
C279 C278 1.381 . S
C279 C281 1.381 . S
C279 C282 1.487 . S
C280 C277 1.382 . S
C280 C281 1.387 . S
C280 H306 0.930 . S
C281 C279 1.381 . S
C281 C280 1.387 . S
C281 H307 0.931 1_565 S
C282 C279 1.487 . S
C282 C289 1.399 . S
C282 N320 1.343 1_565 S
C283 C284 1.384 . S
C283 C285 1.384 . S
C283 H308 0.931 . S
C284 C283 1.384 . S
C284 C287 1.382 . S
C285 C283 1.384 . S
C285 C286 1.381 . S
C285 H309 0.930 . S
C286 C285 1.381 . S
C286 C288 1.381 . S
C286 C289 1.487 . S
C287 C284 1.382 . S
C287 C288 1.387 . S
C287 H310 0.930 . S
C288 C286 1.381 . S
C288 C287 1.387 . S
C288 H311 0.931 . S
C289 C282 1.399 . S
C289 C286 1.487 . S
C289 N321 1.343 1_565 S
C290 C291 1.384 . S
C290 C292 1.384 . S
C290 H312 0.931 . S
C291 C290 1.384 . S
C291 C294 1.382 . S
C292 C290 1.384 . S
C292 C293 1.381 . S
C292 H313 0.930 . S
C293 C292 1.381 . S
C293 C295 1.381 . S
C293 C296 1.487 . S
C294 C291 1.382 . S
C294 C295 1.387 . S
C294 H314 0.930 . S
C295 C293 1.381 . S
C295 C294 1.387 . S
C295 H315 0.931 . S
C296 C293 1.487 . S
C296 C303 1.399 . S
C296 N321 1.343 . S
C297 C298 1.384 . S
C297 C299 1.384 . S
C297 H316 0.931 . S
C298 C297 1.384 . S
C298 C301 1.382 . S
C299 C297 1.384 . S
C299 C300 1.381 . S
C299 H317 0.930 . S
C300 C299 1.381 . S
C300 C302 1.381 . S
C300 C303 1.487 . S
C301 C298 1.382 . S
C301 C302 1.387 . S
C301 H318 0.930 . S
C302 C300 1.381 . S
C302 C301 1.387 . S
C302 H319 0.931 . S
C303 C296 1.399 . S
C303 C300 1.487 . S
C303 N320 1.343 . S
H304 C276 0.931 . S
H305 C278 0.930 . S
H306 C280 0.930 . S
H307 C281 0.931 1_545 S
H308 C283 0.931 . S
H309 C285 0.930 . S
H310 C287 0.930 . S
H311 C288 0.931 . S
H312 C290 0.931 . S
H313 C292 0.930 . S
H314 C294 0.930 . S
H315 C295 0.931 . S
H316 C297 0.931 . S
H317 C299 0.930 . S
H318 C301 0.930 . S
H319 C302 0.931 . S
N320 C282 1.343 1_545 S
N320 C303 1.343 . S
N321 C289 1.343 1_545 S
N321 C296 1.343 . S
C322 C323 1.384 . S
C322 C324 1.384 . S
C322 H350 0.931 . S
C323 C322 1.384 . S
C323 C326 1.382 . S
C324 C322 1.384 . S
C324 C325 1.381 . S
C324 H351 0.930 . S
C325 C324 1.381 . S
C325 C327 1.381 . S
C325 C328 1.487 . S
C326 C323 1.382 . S
C326 C327 1.387 . S
C326 H352 0.930 . S
C327 C325 1.381 . S
C327 C326 1.387 . S
C327 H353 0.931 1_455 S
C328 C325 1.487 . S
C328 C335 1.399 . S
C328 N366 1.342 1_465 S
C329 C330 1.384 . S
C329 C331 1.384 . S
C329 H354 0.931 . S
C330 C329 1.384 . S
C330 C333 1.382 . S
C331 C329 1.384 . S
C331 C332 1.381 . S
C331 H355 0.930 . S
C332 C331 1.381 . S
C332 C334 1.381 . S
C332 C335 1.487 . S
C333 C330 1.382 . S
C333 C334 1.387 . S
C333 H356 0.930 . S
C334 C332 1.381 . S
C334 C333 1.387 . S
C334 H357 0.931 . S
C335 C328 1.399 . S
C335 C332 1.487 . S
C335 N367 1.343 1_565 S
C336 C337 1.384 . S
C336 C338 1.384 . S
C336 H358 0.931 . S
C337 C336 1.384 . S
C337 C340 1.382 . S
C338 C336 1.384 . S
C338 C339 1.381 . S
C338 H359 0.930 . S
C339 C338 1.381 . S
C339 C341 1.381 . S
C339 C342 1.487 . S
C340 C337 1.382 . S
C340 C341 1.387 . S
C340 H360 0.930 . S
C341 C339 1.381 . S
C341 C340 1.387 . S
C341 H361 0.931 1_655 S
C342 C339 1.487 . S
C342 C349 1.399 . S
C342 N367 1.343 1_655 S
C343 C344 1.384 . S
C343 C345 1.384 . S
C343 H362 0.931 . S
C344 C343 1.384 . S
C344 C347 1.382 . S
C345 C343 1.384 . S
C345 C346 1.381 . S
C345 H363 0.930 . S
C346 C345 1.381 . S
C346 C348 1.381 . S
C346 C349 1.487 . S
C347 C344 1.382 . S
C347 C348 1.387 . S
C347 H364 0.930 . S
C348 C346 1.381 . S
C348 C347 1.387 . S
C348 H365 0.931 . S
C349 C342 1.399 . S
C349 C346 1.487 . S
C349 N366 1.344 . S
H350 C322 0.931 . S
H351 C324 0.930 . S
H352 C326 0.930 . S
H353 C327 0.931 1_655 S
H354 C329 0.931 . S
H355 C331 0.930 . S
H356 C333 0.930 . S
H357 C334 0.931 . S
H358 C336 0.931 . S
H359 C338 0.930 . S
H360 C340 0.930 . S
H361 C341 0.931 1_455 S
H362 C343 0.931 . S
H363 C345 0.930 . S
H364 C347 0.930 . S
H365 C348 0.931 . S
N366 C328 1.342 1_645 S
N366 C349 1.344 . S
N367 C335 1.343 1_545 S
N367 C342 1.343 1_455 S
Mn368 O373 2.095 1_554 S
Mn368 O383 2.162 . S
Mn368 O384 2.297 . S
Mn368 O392 2.385 . S
Mn368 O393 2.209 . S
Mn368 O394 2.094 1_554 S
Mn369 O374 2.121 . S
Mn369 N376 2.257 1_556 S
Mn369 N385 2.282 1_556 S
Mn369 O393 2.215 1_556 S
Mn369 O395 2.117 . S
C370 O392 1.234 . S
C370 O393 1.283 . S
C371 O383 1.281 . S
C371 O384 1.236 . S
C372 O394 1.240 . S
C372 O395 1.264 . S
O373 Mn368 2.095 1_556 S
O373 C382 1.250 . S
O374 Mn369 2.121 . S
O374 C382 1.258 . S
C375 N376 1.326 1_556 S
C375 C379 1.460 1_556 S
C375 H381 0.929 . S
N376 Mn369 2.257 1_554 S
N376 C375 1.326 1_554 S
N376 C380 1.362 . S
C377 C378 1.258 . S
C377 C380 1.431 . S
C377 C397 1.449 . S
C378 C377 1.258 . S
C378 C379 1.477 . S
C378 H398 0.931 . S
C379 C375 1.460 1_554 S
C379 C378 1.477 . S
C379 H399 0.930 1_554 S
C380 N376 1.362 . S
C380 C377 1.431 . S
C380 C390 1.476 . S
H381 C375 0.929 . S
C382 O373 1.250 . S
C382 O374 1.258 . S
O383 Mn368 2.162 . S
O383 C371 1.281 . S
O384 Mn368 2.297 . S
O384 C371 1.236 . S
N385 Mn369 2.282 1_554 S
N385 C386 1.328 . S
N385 C390 1.318 . S
C386 N385 1.328 . S
C386 C387 1.457 . S
C386 H391 0.929 . S
C387 C386 1.457 . S
C387 C388 1.291 . S
C387 H400 0.931 . S
C388 C387 1.291 . S
C388 C389 1.373 . S
C388 H401 0.929 . S
C389 C388 1.373 . S
C389 C390 1.396 . S
C389 C396 1.403 . S
C390 C380 1.476 . S
C390 N385 1.318 . S
C390 C389 1.396 . S
H391 C386 0.929 . S
O392 Mn368 2.385 . S
O392 C370 1.234 . S
O393 Mn368 2.209 . S
O393 Mn369 2.215 1_554 S
O393 C370 1.283 . S
O394 Mn368 2.094 1_556 S
O394 C372 1.240 . S
O395 Mn369 2.117 . S
O395 C372 1.264 . S
C396 C389 1.403 . S
C396 C397 1.399 . S
C396 H402 0.929 . S
C397 C377 1.449 . S
C397 C396 1.399 . S
C397 H403 0.930 . S
H398 C378 0.931 . S
H399 C379 0.930 1_556 S
H400 C387 0.931 . S
H401 C388 0.929 . S
H402 C396 0.929 . S
H403 C397 0.930 . S
Mn404 O409 2.095 . S
Mn404 O419 2.162 . S
Mn404 O420 2.297 . S
Mn404 O428 2.385 . S
Mn404 O429 2.209 . S
Mn404 O430 2.094 . S
Mn405 O410 2.121 . S
Mn405 N412 2.257 . S
Mn405 N421 2.282 . S
Mn405 O429 2.215 . S
Mn405 O431 2.117 . S
C406 O428 1.234 . S
C406 O429 1.283 . S
C407 O419 1.281 . S
C407 O420 1.236 . S
C408 O430 1.240 . S
C408 O431 1.264 . S
O409 Mn404 2.095 . S
O409 C418 1.250 . S
O410 Mn405 2.121 . S
O410 C418 1.258 . S
C411 N412 1.326 . S
C411 C415 1.460 . S
C411 H417 0.929 . S
N412 Mn405 2.257 . S
N412 C411 1.326 . S
N412 C416 1.362 . S
C413 C414 1.258 . S
C413 C416 1.431 . S
C413 C433 1.449 . S
C414 C413 1.258 . S
C414 C415 1.477 . S
C414 H434 0.931 . S
C415 C411 1.460 . S
C415 C414 1.477 . S
C415 H435 0.930 . S
C416 N412 1.362 . S
C416 C413 1.431 . S
C416 C426 1.476 . S
H417 C411 0.929 . S
C418 O409 1.250 . S
C418 O410 1.258 . S
O419 Mn404 2.162 . S
O419 C407 1.281 . S
O420 Mn404 2.297 . S
O420 C407 1.236 . S
N421 Mn405 2.282 . S
N421 C422 1.328 . S
N421 C426 1.318 . S
C422 N421 1.328 . S
C422 C423 1.457 . S
C422 H427 0.929 . S
C423 C422 1.457 . S
C423 C424 1.291 . S
C423 H436 0.931 . S
C424 C423 1.291 . S
C424 C425 1.373 . S
C424 H437 0.929 . S
C425 C424 1.373 . S
C425 C426 1.396 . S
C425 C432 1.403 . S
C426 C416 1.476 . S
C426 N421 1.318 . S
C426 C425 1.396 . S
H427 C422 0.929 . S
O428 Mn404 2.385 . S
O428 C406 1.234 . S
O429 Mn404 2.209 . S
O429 Mn405 2.215 . S
O429 C406 1.283 . S
O430 Mn404 2.094 . S
O430 C408 1.240 . S
O431 Mn405 2.117 . S
O431 C408 1.264 . S
C432 C425 1.403 . S
C432 C433 1.399 . S
C432 H438 0.929 . S
C433 C413 1.449 . S
C433 C432 1.399 . S
C433 H439 0.930 . S
H434 C414 0.931 . S
H435 C415 0.930 . S
H436 C423 0.931 . S
H437 C424 0.929 . S
H438 C432 0.929 . S
H439 C433 0.930 . S
Mn440 O445 2.095 . S
Mn440 O455 2.162 . S
Mn440 O456 2.297 . S
Mn440 O464 2.385 . S
Mn440 O465 2.209 . S
Mn440 O466 2.094 . S
Mn441 O446 2.121 . S
Mn441 N448 2.257 . S
Mn441 N457 2.282 . S
Mn441 O465 2.215 . S
Mn441 O467 2.117 . S
C442 O464 1.234 . S
C442 O465 1.283 . S
C443 O455 1.281 . S
C443 O456 1.236 . S
C444 O466 1.240 . S
C444 O467 1.264 . S
O445 Mn440 2.095 . S
O445 C454 1.250 . S
O446 Mn441 2.121 . S
O446 C454 1.258 . S
C447 N448 1.326 . S
C447 C451 1.460 . S
C447 H453 0.929 . S
N448 Mn441 2.257 . S
N448 C447 1.326 . S
N448 C452 1.362 . S
C449 C450 1.258 . S
C449 C452 1.431 . S
C449 C469 1.449 1_455 S
C450 C449 1.258 . S
C450 C451 1.477 . S
C450 H470 0.931 1_455 S
C451 C447 1.460 . S
C451 C450 1.477 . S
C451 H471 0.930 . S
C452 N448 1.362 . S
C452 C449 1.431 . S
C452 C462 1.476 . S
H453 C447 0.929 . S
C454 O445 1.250 . S
C454 O446 1.258 . S
O455 Mn440 2.162 . S
O455 C443 1.281 . S
O456 Mn440 2.297 . S
O456 C443 1.236 . S
N457 Mn441 2.282 . S
N457 C458 1.328 . S
N457 C462 1.318 . S
C458 N457 1.328 . S
C458 C459 1.457 . S
C458 H463 0.929 . S
C459 C458 1.457 . S
C459 C460 1.291 . S
C459 H472 0.931 . S
C460 C459 1.291 . S
C460 C461 1.373 . S
C460 H473 0.929 . S
C461 C460 1.373 . S
C461 C462 1.396 . S
C461 C468 1.403 1_455 S
C462 C452 1.476 . S
C462 N457 1.318 . S
C462 C461 1.396 . S
H463 C458 0.929 . S
O464 Mn440 2.385 . S
O464 C442 1.234 . S
O465 Mn440 2.209 . S
O465 Mn441 2.215 . S
O465 C442 1.283 . S
O466 Mn440 2.094 . S
O466 C444 1.240 . S
O467 Mn441 2.117 . S
O467 C444 1.264 . S
C468 C461 1.403 1_655 S
C468 C469 1.399 . S
C468 H474 0.929 . S
C469 C449 1.449 1_655 S
C469 C468 1.399 . S
C469 H475 0.930 . S
H470 C450 0.931 1_655 S
H471 C451 0.930 . S
H472 C459 0.931 . S
H473 C460 0.929 . S
H474 C468 0.929 . S
H475 C469 0.930 . S
Mn476 O481 2.095 . S
Mn476 O491 2.162 . S
Mn476 O492 2.297 . S
Mn476 O500 2.385 . S
Mn476 O501 2.209 . S
Mn476 O502 2.094 . S
Mn477 O482 2.121 . S
Mn477 N484 2.257 . S
Mn477 N493 2.282 . S
Mn477 O501 2.215 . S
Mn477 O503 2.117 . S
C478 O500 1.234 . S
C478 O501 1.283 . S
C479 O491 1.281 . S
C479 O492 1.236 . S
C480 O502 1.240 . S
C480 O503 1.264 . S
O481 Mn476 2.095 . S
O481 C490 1.250 . S
O482 Mn477 2.121 . S
O482 C490 1.258 . S
C483 N484 1.326 . S
C483 C487 1.460 . S
C483 H489 0.929 . S
N484 Mn477 2.257 . S
N484 C483 1.326 . S
N484 C488 1.362 . S
C485 C486 1.258 . S
C485 C488 1.431 . S
C485 C505 1.449 . S
C486 C485 1.258 . S
C486 C487 1.477 . S
C486 H506 0.931 . S
C487 C483 1.460 . S
C487 C486 1.477 . S
C487 H507 0.930 . S
C488 N484 1.362 . S
C488 C485 1.431 . S
C488 C498 1.476 . S
H489 C483 0.929 . S
C490 O481 1.250 . S
C490 O482 1.258 . S
O491 Mn476 2.162 . S
O491 C479 1.281 . S
O492 Mn476 2.297 . S
O492 C479 1.236 . S
N493 Mn477 2.282 . S
N493 C494 1.328 . S
N493 C498 1.318 . S
C494 N493 1.328 . S
C494 C495 1.457 . S
C494 H499 0.929 . S
C495 C494 1.457 . S
C495 C496 1.291 . S
C495 H508 0.931 . S
C496 C495 1.291 . S
C496 C497 1.373 . S
C496 H509 0.929 . S
C497 C496 1.373 . S
C497 C498 1.396 . S
C497 C504 1.403 . S
C498 C488 1.476 . S
C498 N493 1.318 . S
C498 C497 1.396 . S
H499 C494 0.929 . S
O500 Mn476 2.385 . S
O500 C478 1.234 . S
O501 Mn476 2.209 . S
O501 Mn477 2.215 . S
O501 C478 1.283 . S
O502 Mn476 2.094 . S
O502 C480 1.240 . S
O503 Mn477 2.117 . S
O503 C480 1.264 . S
C504 C497 1.403 . S
C504 C505 1.399 . S
C504 H510 0.929 . S
C505 C485 1.449 . S
C505 C504 1.399 . S
C505 H511 0.930 . S
H506 C486 0.931 . S
H507 C487 0.930 . S
H508 C495 0.931 . S
H509 C496 0.929 . S
H510 C504 0.929 . S
H511 C505 0.930 . S
Mn512 O517 2.095 . S
Mn512 O527 2.162 . S
Mn512 O528 2.297 . S
Mn512 O536 2.385 . S
Mn512 O537 2.209 . S
Mn512 O538 2.094 . S
Mn513 O518 2.121 . S
Mn513 N520 2.257 . S
Mn513 N529 2.282 . S
Mn513 O537 2.215 . S
Mn513 O539 2.117 . S
C514 O536 1.234 . S
C514 O537 1.283 . S
C515 O527 1.281 . S
C515 O528 1.236 . S
C516 O538 1.240 . S
C516 O539 1.264 . S
O517 Mn512 2.095 . S
O517 C526 1.250 . S
O518 Mn513 2.121 . S
O518 C526 1.258 . S
C519 N520 1.326 . S
C519 C523 1.460 . S
C519 H525 0.929 . S
N520 Mn513 2.257 . S
N520 C519 1.326 . S
N520 C524 1.362 . S
C521 C522 1.258 . S
C521 C524 1.431 . S
C521 C541 1.449 1_545 S
C522 C521 1.258 . S
C522 C523 1.477 . S
C522 H542 0.931 1_545 S
C523 C519 1.460 . S
C523 C522 1.477 . S
C523 H543 0.930 . S
C524 N520 1.362 . S
C524 C521 1.431 . S
C524 C534 1.476 . S
H525 C519 0.929 . S
C526 O517 1.250 . S
C526 O518 1.258 . S
O527 Mn512 2.162 . S
O527 C515 1.281 . S
O528 Mn512 2.297 . S
O528 C515 1.236 . S
N529 Mn513 2.282 . S
N529 C530 1.328 . S
N529 C534 1.318 . S
C530 N529 1.328 . S
C530 C531 1.457 . S
C530 H535 0.929 . S
C531 C530 1.457 . S
C531 C532 1.291 . S
C531 H544 0.931 . S
C532 C531 1.291 . S
C532 C533 1.373 . S
C532 H545 0.929 . S
C533 C532 1.373 . S
C533 C534 1.396 . S
C533 C540 1.403 . S
C534 C524 1.476 . S
C534 N529 1.318 . S
C534 C533 1.396 . S
H535 C530 0.929 . S
O536 Mn512 2.385 . S
O536 C514 1.234 . S
O537 Mn512 2.209 . S
O537 Mn513 2.215 . S
O537 C514 1.283 . S
O538 Mn512 2.094 . S
O538 C516 1.240 . S
O539 Mn513 2.117 . S
O539 C516 1.264 . S
C540 C533 1.403 . S
C540 C541 1.399 1_545 S
C540 H546 0.929 1_545 S
C541 C521 1.449 1_565 S
C541 C540 1.399 1_565 S
C541 H547 0.930 . S
H542 C522 0.931 1_565 S
H543 C523 0.930 . S
H544 C531 0.931 . S
H545 C532 0.929 . S
H546 C540 0.929 1_565 S
H547 C541 0.930 . S
Mn548 O553 2.095 . S
Mn548 O563 2.162 . S
Mn548 O564 2.297 . S
Mn548 O572 2.385 . S
Mn548 O573 2.209 . S
Mn548 O574 2.094 . S
Mn549 O554 2.121 . S
Mn549 N556 2.257 . S
Mn549 N565 2.282 . S
Mn549 O573 2.215 . S
Mn549 O575 2.117 . S
C550 O572 1.234 . S
C550 O573 1.283 . S
C551 O563 1.281 . S
C551 O564 1.236 . S
C552 O574 1.240 . S
C552 O575 1.264 . S
O553 Mn548 2.095 . S
O553 C562 1.250 . S
O554 Mn549 2.121 . S
O554 C562 1.258 . S
C555 N556 1.326 . S
C555 C559 1.460 . S
C555 H561 0.929 . S
N556 Mn549 2.257 . S
N556 C555 1.326 . S
N556 C560 1.362 . S
C557 C558 1.258 . S
C557 C560 1.431 . S
C557 C577 1.449 1_655 S
C558 C557 1.258 . S
C558 C559 1.477 . S
C558 H578 0.931 1_655 S
C559 C555 1.460 . S
C559 C558 1.477 . S
C559 H579 0.930 . S
C560 N556 1.362 . S
C560 C557 1.431 . S
C560 C570 1.476 . S
H561 C555 0.929 . S
C562 O553 1.250 . S
C562 O554 1.258 . S
O563 Mn548 2.162 . S
O563 C551 1.281 . S
O564 Mn548 2.297 . S
O564 C551 1.236 . S
N565 Mn549 2.282 . S
N565 C566 1.328 . S
N565 C570 1.318 . S
C566 N565 1.328 . S
C566 C567 1.457 . S
C566 H571 0.929 . S
C567 C566 1.457 . S
C567 C568 1.291 . S
C567 H580 0.931 . S
C568 C567 1.291 . S
C568 C569 1.373 . S
C568 H581 0.929 . S
C569 C568 1.373 . S
C569 C570 1.396 . S
C569 C576 1.403 1_655 S
C570 C560 1.476 . S
C570 N565 1.318 . S
C570 C569 1.396 . S
H571 C566 0.929 . S
O572 Mn548 2.385 . S
O572 C550 1.234 . S
O573 Mn548 2.209 . S
O573 Mn549 2.215 . S
O573 C550 1.283 . S
O574 Mn548 2.094 . S
O574 C552 1.240 . S
O575 Mn549 2.117 . S
O575 C552 1.264 . S
C576 C569 1.403 1_455 S
C576 C577 1.399 . S
C576 H582 0.929 . S
C577 C557 1.449 1_455 S
C577 C576 1.399 . S
C577 H583 0.930 . S
H578 C558 0.931 1_455 S
H579 C559 0.930 . S
H580 C567 0.931 . S
H581 C568 0.929 . S
H582 C576 0.929 . S
H583 C577 0.930 . S
Mn584 O589 2.095 . S
Mn584 O599 2.162 . S
Mn584 O600 2.297 1_554 S
Mn584 O608 2.385 1_554 S
Mn584 O609 2.209 1_554 S
Mn584 O610 2.094 . S
Mn585 O590 2.121 . S
Mn585 N592 2.249 1_554 S
Mn585 N601 2.282 1_554 S
Mn585 O609 2.215 1_554 S
Mn585 O611 2.117 . S
C586 O608 1.234 . S
C586 O609 1.283 . S
C587 O599 1.281 1_556 S
C587 O600 1.236 . S
C588 O610 1.240 . S
C588 O611 1.264 . S
O589 Mn584 2.095 . S
O589 C598 1.250 . S
O590 Mn585 2.121 . S
O590 C598 1.258 . S
C591 N592 1.312 1_554 S
C591 C595 1.460 . S
C591 H597 0.929 . S
N592 Mn585 2.249 1_556 S
N592 C591 1.312 1_556 S
N592 C596 1.386 . S
C593 C594 1.258 . S
C593 C596 1.431 . S
C593 C613 1.449 . S
C594 C593 1.258 . S
C594 C595 1.477 1_556 S
C594 H614 0.931 . S
C595 C591 1.460 . S
C595 C594 1.477 1_554 S
C595 H615 0.930 . S
C596 N592 1.386 . S
C596 C593 1.431 . S
C596 C606 1.476 . S
H597 C591 0.929 . S
C598 O589 1.250 . S
C598 O590 1.258 . S
O599 Mn584 2.162 . S
O599 C587 1.281 1_554 S
O600 Mn584 2.297 1_556 S
O600 C587 1.236 . S
N601 Mn585 2.282 1_556 S
N601 C602 1.328 . S
N601 C606 1.318 . S
C602 N601 1.328 . S
C602 C603 1.457 . S
C602 H607 0.929 . S
C603 C602 1.457 . S
C603 C604 1.291 . S
C603 H616 0.931 . S
C604 C603 1.291 . S
C604 C605 1.373 . S
C604 H617 0.929 . S
C605 C604 1.373 . S
C605 C606 1.396 . S
C605 C612 1.403 . S
C606 C596 1.476 . S
C606 N601 1.318 . S
C606 C605 1.396 . S
H607 C602 0.929 . S
O608 Mn584 2.385 1_556 S
O608 C586 1.234 . S
O609 Mn584 2.209 1_556 S
O609 Mn585 2.215 1_556 S
O609 C586 1.283 . S
O610 Mn584 2.094 . S
O610 C588 1.240 . S
O611 Mn585 2.117 . S
O611 C588 1.264 . S
C612 C605 1.403 . S
C612 C613 1.399 . S
C612 H618 0.929 . S
C613 C593 1.449 . S
C613 C612 1.399 . S
C613 H619 0.930 . S
H614 C594 0.931 . S
H615 C595 0.930 . S
H616 C603 0.931 . S
H617 C604 0.929 . S
H618 C612 0.929 . S
H619 C613 0.930 . S
Mn620 O625 2.095 . S
Mn620 O635 2.162 . S
Mn620 O636 2.297 . S
Mn620 O644 2.385 . S
Mn620 O645 2.209 . S
Mn620 O646 2.094 . S
Mn621 O626 2.121 . S
Mn621 N628 2.257 . S
Mn621 N637 2.282 . S
Mn621 O645 2.215 . S
Mn621 O647 2.117 . S
C622 O644 1.234 . S
C622 O645 1.283 . S
C623 O635 1.281 . S
C623 O636 1.236 . S
C624 O646 1.240 . S
C624 O647 1.264 . S
O625 Mn620 2.095 . S
O625 C634 1.250 . S
O626 Mn621 2.121 . S
O626 C634 1.258 . S
C627 N628 1.326 . S
C627 C631 1.460 . S
C627 H633 0.929 . S
N628 Mn621 2.257 . S
N628 C627 1.326 . S
N628 C632 1.362 . S
C629 C630 1.258 . S
C629 C632 1.431 . S
C629 C649 1.449 1_545 S
C630 C629 1.258 . S
C630 C631 1.477 . S
C630 H650 0.931 1_545 S
C631 C627 1.460 . S
C631 C630 1.477 . S
C631 H651 0.930 . S
C632 N628 1.362 . S
C632 C629 1.431 . S
C632 C642 1.476 . S
H633 C627 0.929 . S
C634 O625 1.250 . S
C634 O626 1.258 . S
O635 Mn620 2.162 . S
O635 C623 1.281 . S
O636 Mn620 2.297 . S
O636 C623 1.236 . S
N637 Mn621 2.282 . S
N637 C638 1.328 . S
N637 C642 1.318 . S
C638 N637 1.328 . S
C638 C639 1.457 . S
C638 H643 0.929 . S
C639 C638 1.457 . S
C639 C640 1.291 . S
C639 H652 0.931 . S
C640 C639 1.291 . S
C640 C641 1.373 . S
C640 H653 0.929 . S
C641 C640 1.373 . S
C641 C642 1.396 . S
C641 C648 1.403 . S
C642 C632 1.476 . S
C642 N637 1.318 . S
C642 C641 1.396 . S
H643 C638 0.929 . S
O644 Mn620 2.385 . S
O644 C622 1.234 . S
O645 Mn620 2.209 . S
O645 Mn621 2.215 . S
O645 C622 1.283 . S
O646 Mn620 2.094 . S
O646 C624 1.240 . S
O647 Mn621 2.117 . S
O647 C624 1.264 . S
C648 C641 1.403 . S
C648 C649 1.399 1_545 S
C648 H654 0.929 1_545 S
C649 C629 1.449 1_565 S
C649 C648 1.399 1_565 S
C649 H655 0.930 . S
H650 C630 0.931 1_565 S
H651 C631 0.930 . S
H652 C639 0.931 . S
H653 C640 0.929 . S
H654 C648 0.929 1_565 S
H655 C649 0.930 . S
C656 C657 1.387 . S
C656 H660 0.950 . S
C656 C665 1.390 . S
C657 C656 1.387 . S
C657 C659 1.387 . S
H658 C665 0.950 . S
C659 C657 1.387 . S
C659 C661 1.390 . S
C659 H663 0.950 . S
H660 C656 0.950 . S
C661 C659 1.390 . S
C661 C662 1.387 . S
C661 H664 0.950 . S
C662 C661 1.387 . S
C662 C665 1.387 . S
H663 C659 0.950 . S
H664 C661 0.950 . S
C665 C656 1.390 . S
C665 H658 0.950 . S
C665 C662 1.387 . S
C666 C667 1.387 . S
C666 H670 0.950 . S
C666 C675 1.390 . S
C667 C666 1.387 . S
C667 C669 1.387 . S
H668 C675 0.950 . S
C669 C667 1.387 . S
C669 C671 1.390 . S
C669 H673 0.950 . S
H670 C666 0.950 . S
C671 C669 1.390 . S
C671 C672 1.387 . S
C671 H674 0.950 . S
C672 C671 1.387 . S
C672 C675 1.387 . S
H673 C669 0.950 . S
H674 C671 0.950 . S
C675 C666 1.390 . S
C675 H668 0.950 . S
C675 C672 1.387 . S
C676 C677 1.387 . S
C676 H680 0.950 . S
C676 C685 1.390 . S
C677 C676 1.387 . S
C677 C679 1.387 . S
H678 C685 0.950 . S
C679 C677 1.387 . S
C679 C681 1.390 . S
C679 H683 0.950 . S
H680 C676 0.950 . S
C681 C679 1.390 . S
C681 C682 1.387 . S
C681 H684 0.950 . S
C682 C681 1.387 . S
C682 C685 1.387 . S
H683 C679 0.950 . S
H684 C681 0.950 . S
C685 C676 1.390 . S
C685 H678 0.950 . S
C685 C682 1.387 . S
C686 C687 1.387 . S
C686 H690 0.950 . S
C686 C695 1.390 . S
C687 C686 1.387 . S
C687 C689 1.396 . S
H688 C695 0.950 . S
C689 C687 1.396 . S
C689 C691 1.389 1_554 S
C689 H693 0.942 1_554 S
H690 C686 0.950 . S
C691 C689 1.389 1_556 S
C691 C692 1.387 1_556 S
C691 H694 0.950 . S
C692 C691 1.387 1_554 S
C692 C695 1.387 . S
H693 C689 0.942 1_556 S
H694 C691 0.950 . S
C695 C686 1.390 . S
C695 H688 0.950 . S
C695 C692 1.387 . S
C696 C697 1.387 . S
C696 H700 0.950 . S
C696 C705 1.390 . S
C697 C696 1.387 . S
C697 C699 1.387 . S
H698 C705 0.950 . S
C699 C697 1.387 . S
C699 C701 1.390 . S
C699 H703 0.950 1_556 S
H700 C696 0.950 . S
C701 C699 1.390 . S
C701 C702 1.387 . S
C701 H704 0.950 1_556 S
C702 C701 1.387 . S
C702 C705 1.387 . S
H703 C699 0.950 1_554 S
H704 C701 0.950 1_554 S
C705 C696 1.390 . S
C705 H698 0.950 . S
C705 C702 1.387 . S
C706 C707 1.387 . S
C706 H710 0.950 . S
C706 C715 1.390 . S
C707 C706 1.387 . S
C707 C709 1.387 . S
H708 C715 0.950 . S
C709 C707 1.387 . S
C709 C711 1.390 . S
C709 H713 0.950 . S
H710 C706 0.950 . S
C711 C709 1.390 . S
C711 C712 1.387 . S
C711 H714 0.950 . S
C712 C711 1.387 . S
C712 C715 1.387 . S
H713 C709 0.950 . S
H714 C711 0.950 . S
C715 C706 1.390 . S
C715 H708 0.950 . S
C715 C712 1.387 . S
C716 C717 1.387 . S
C716 H720 0.950 . S
C716 C725 1.390 . S
C717 C716 1.387 . S
C717 C719 1.387 . S
H718 C725 0.950 . S
C719 C717 1.387 . S
C719 C721 1.390 . S
C719 H723 0.950 . S
H720 C716 0.950 . S
C721 C719 1.390 . S
C721 C722 1.387 . S
C721 H724 0.950 . S
C722 C721 1.387 . S
C722 C725 1.387 . S
H723 C719 0.950 . S
H724 C721 0.950 . S
C725 C716 1.390 . S
C725 H718 0.950 . S
C725 C722 1.387 . S
C726 C727 1.387 . S
C726 H730 0.950 . S
C726 C735 1.390 . S
C727 C726 1.387 . S
C727 C729 1.387 . S
H728 C735 0.950 . S
C729 C727 1.387 . S
C729 C731 1.390 . S
C729 H733 0.950 . S
H730 C726 0.950 . S
C731 C729 1.390 . S
C731 C732 1.387 . S
C731 H734 0.950 . S
C732 C731 1.387 . S
C732 C735 1.387 . S
H733 C729 0.950 . S
H734 C731 0.950 . S
C735 C726 1.390 . S
C735 H728 0.950 . S
C735 C732 1.387 . S
C736 C737 1.387 . S
C736 H740 0.950 . S
C736 C745 1.390 . S
C737 C736 1.387 . S
C737 C739 1.387 . S
H738 C745 0.950 . S
C739 C737 1.387 . S
C739 C741 1.390 . S
C739 H743 0.950 . S
H740 C736 0.950 . S
C741 C739 1.390 . S
C741 C742 1.387 . S
C741 H744 0.950 . S
C742 C741 1.387 . S
C742 C745 1.387 . S
H743 C739 0.950 . S
H744 C741 0.950 . S
C745 C736 1.390 . S
C745 H738 0.950 . S
C745 C742 1.387 . S
C746 C747 1.387 . S
C746 H750 0.950 . S
C746 C755 1.390 . S
C747 C746 1.387 . S
C747 C749 1.387 . S
H748 C755 0.950 . S
C749 C747 1.387 . S
C749 C751 1.385 1_554 S
C749 H753 0.950 1_554 S
H750 C746 0.950 . S
C751 C749 1.385 1_556 S
C751 C752 1.349 1_556 S
C751 H754 0.995 . S
C752 C751 1.349 1_554 S
C752 C755 1.387 . S
H753 C749 0.950 1_556 S
H754 C751 0.995 . S
C755 C746 1.390 . S
C755 H748 0.950 . S
C755 C752 1.387 . S
C756 C757 1.387 . S
C756 H760 0.950 . S
C756 C765 1.390 . S
C757 C756 1.387 . S
C757 C759 1.387 . S
H758 C765 0.950 . S
C759 C757 1.387 . S
C759 C761 1.390 . S
C759 H763 0.950 . S
H760 C756 0.950 . S
C761 C759 1.390 . S
C761 C762 1.387 . S
C761 H764 0.950 . S
C762 C761 1.387 . S
C762 C765 1.387 . S
H763 C759 0.950 . S
H764 C761 0.950 . S
C765 C756 1.390 . S
C765 H758 0.950 . S
C765 C762 1.387 . S
C766 C767 1.387 . S
C766 H770 0.950 . S
C766 C775 1.390 . S
C767 C766 1.387 . S
C767 C769 1.387 . S
H768 C775 0.950 . S
C769 C767 1.387 . S
C769 C771 1.390 . S
C769 H773 0.950 . S
H770 C766 0.950 . S
C771 C769 1.390 . S
C771 C772 1.387 . S
C771 H774 0.950 . S
C772 C771 1.387 . S
C772 C775 1.387 . S
H773 C769 0.950 . S
H774 C771 0.950 . S
C775 C766 1.390 . S
C775 H768 0.950 . S
C775 C772 1.387 . S
C776 C777 1.387 . S
C776 H780 0.950 . S
C776 C785 1.390 . S
C777 C776 1.387 . S
C777 C779 1.387 . S
H778 C785 0.950 . S
C779 C777 1.387 . S
C779 C781 1.390 . S
C779 H783 0.950 . S
H780 C776 0.950 . S
C781 C779 1.390 . S
C781 C782 1.387 . S
C781 H784 0.950 . S
C782 C781 1.387 . S
C782 C785 1.387 . S
H783 C779 0.950 . S
H784 C781 0.950 . S
C785 C776 1.390 . S
C785 H778 0.950 . S
C785 C782 1.387 . S
C786 C787 1.387 . S
C786 H790 0.950 . S
C786 C795 1.390 . S
C787 C786 1.387 . S
C787 C789 1.387 . S
H788 C795 0.950 . S
C789 C787 1.387 . S
C789 C791 1.390 . S
C789 H793 0.950 . S
H790 C786 0.950 . S
C791 C789 1.390 . S
C791 C792 1.387 . S
C791 H794 0.950 . S
C792 C791 1.387 . S
C792 C795 1.387 . S
H793 C789 0.950 . S
H794 C791 0.950 . S
C795 C786 1.390 . S
C795 H788 0.950 . S
C795 C792 1.387 . S
C796 C797 1.387 . S
C796 H800 0.950 . S
C796 C805 1.390 . S
C797 C796 1.387 . S
C797 C799 1.387 1_556 S
H798 C805 0.950 . S
C799 C797 1.387 1_554 S
C799 C801 1.390 . S
C799 H803 0.950 . S
H800 C796 0.950 . S
C801 C799 1.390 . S
C801 C802 1.387 1_554 S
C801 H804 0.950 . S
C802 C801 1.387 1_556 S
C802 C805 1.387 . S
H803 C799 0.950 . S
H804 C801 0.950 . S
C805 C796 1.390 . S
C805 H798 0.950 . S
C805 C802 1.387 . S
C806 C807 1.387 . S
C806 H810 0.950 . S
C806 C815 1.390 . S
C807 C806 1.387 . S
C807 C809 1.387 . S
H808 C815 0.950 . S
C809 C807 1.387 . S
C809 C811 1.390 . S
C809 H813 0.950 . S
H810 C806 0.950 . S
C811 C809 1.390 . S
C811 C812 1.387 . S
C811 H814 0.950 . S
C812 C811 1.387 . S
C812 C815 1.387 . S
H813 C809 0.950 . S
H814 C811 0.950 . S
C815 C806 1.390 . S
C815 H808 0.950 . S
C815 C812 1.387 . S
C816 C817 1.387 . S
C816 H820 0.950 . S
C816 C825 1.390 . S
C817 C816 1.387 . S
C817 C819 1.387 . S
H818 C825 0.950 . S
C819 C817 1.387 . S
C819 C821 1.390 . S
C819 H823 0.950 . S
H820 C816 0.950 . S
C821 C819 1.390 . S
C821 C822 1.387 . S
C821 H824 0.950 . S
C822 C821 1.387 . S
C822 C825 1.387 . S
H823 C819 0.950 . S
H824 C821 0.950 . S
C825 C816 1.390 . S
C825 H818 0.950 . S
C825 C822 1.387 . S
C826 C827 1.387 . S
C826 H830 0.950 . S
C826 C835 1.390 . S
C827 C826 1.387 . S
C827 C829 1.387 . S
H828 C835 0.950 . S
C829 C827 1.387 . S
C829 C831 1.390 . S
C829 H833 0.950 . S
H830 C826 0.950 . S
C831 C829 1.390 . S
C831 C832 1.387 . S
C831 H834 0.950 . S
C832 C831 1.387 . S
C832 C835 1.387 . S
H833 C829 0.950 . S
H834 C831 0.950 . S
C835 C826 1.390 . S
C835 H828 0.950 . S
C835 C832 1.387 . S
C836 C837 1.387 . S
C836 H840 0.950 . S
C836 C845 1.390 . S
C837 C836 1.387 . S
C837 C839 1.387 . S
H838 C845 0.950 . S
C839 C837 1.387 . S
C839 C841 1.390 . S
C839 H843 0.950 . S
H840 C836 0.950 . S
C841 C839 1.390 . S
C841 C842 1.387 . S
C841 H844 0.950 . S
C842 C841 1.387 . S
C842 C845 1.387 . S
H843 C839 0.950 . S
H844 C841 0.950 . S
C845 C836 1.390 . S
C845 H838 0.950 . S
C845 C842 1.387 . S
C846 C847 1.387 . S
C846 H850 0.950 . S
C846 C855 1.390 . S
C847 C846 1.387 . S
C847 C849 1.387 . S
H848 C855 0.950 . S
C849 C847 1.387 . S
C849 C851 1.390 . S
C849 H853 0.950 . S
H850 C846 0.950 . S
C851 C849 1.390 . S
C851 C852 1.387 . S
C851 H854 0.950 . S
C852 C851 1.387 . S
C852 C855 1.387 . S
H853 C849 0.950 . S
H854 C851 0.950 . S
C855 C846 1.390 . S
C855 H848 0.950 . S
C855 C852 1.387 . S
C856 C857 1.387 . S
C856 H860 0.950 . S
C856 C865 1.390 . S
C857 C856 1.387 . S
C857 C859 1.387 . S
H858 C865 0.950 . S
C859 C857 1.387 . S
C859 C861 1.390 . S
C859 H863 0.950 . S
H860 C856 0.950 . S
C861 C859 1.390 . S
C861 C862 1.387 . S
C861 H864 0.950 . S
C862 C861 1.387 . S
C862 C865 1.387 . S
H863 C859 0.950 . S
H864 C861 0.950 . S
C865 C856 1.390 . S
C865 H858 0.950 . S
C865 C862 1.387 . S
C866 C867 1.387 . S
C866 H870 0.950 . S
C866 C875 1.390 . S
C867 C866 1.387 . S
C867 C869 1.387 . S
H868 C875 0.950 . S
C869 C867 1.387 . S
C869 C871 1.390 . S
C869 H873 0.950 . S
H870 C866 0.950 . S
C871 C869 1.390 . S
C871 C872 1.387 . S
C871 H874 0.950 . S
C872 C871 1.387 . S
C872 C875 1.387 . S
H873 C869 0.950 . S
H874 C871 0.950 . S
C875 C866 1.390 . S
C875 H868 0.950 . S
C875 C872 1.387 . S
C876 C877 1.387 . S
C876 H880 0.950 . S
C876 C885 1.390 . S
C877 C876 1.387 . S
C877 C879 1.387 . S
H878 C885 0.950 . S
C879 C877 1.387 . S
C879 C881 1.390 . S
C879 H883 0.950 . S
H880 C876 0.950 . S
C881 C879 1.390 . S
C881 C882 1.387 . S
C881 H884 0.950 . S
C882 C881 1.387 . S
C882 C885 1.387 . S
H883 C879 0.950 . S
H884 C881 0.950 . S
C885 C876 1.390 . S
C885 H878 0.950 . S
C885 C882 1.387 . S
C886 C887 1.387 . S
C886 H890 0.950 . S
C886 C895 1.390 . S
C887 C886 1.387 . S
C887 C889 1.387 . S
H888 C895 0.950 . S
C889 C887 1.387 . S
C889 C891 1.390 . S
C889 H893 0.950 . S
H890 C886 0.950 . S
C891 C889 1.390 . S
C891 C892 1.387 . S
C891 H894 0.950 . S
C892 C891 1.387 . S
C892 C895 1.387 . S
H893 C889 0.950 . S
H894 C891 0.950 . S
C895 C886 1.390 . S
C895 H888 0.950 . S
C895 C892 1.387 . S
C896 C897 1.387 . S
C896 H900 0.950 . S
C896 C905 1.390 . S
C897 C896 1.387 . S
C897 C899 1.387 . S
H898 C905 0.950 . S
C899 C897 1.387 . S
C899 C901 1.390 . S
C899 H903 0.950 . S
H900 C896 0.950 . S
C901 C899 1.390 . S
C901 C902 1.387 . S
C901 H904 0.950 . S
C902 C901 1.387 . S
C902 C905 1.387 . S
H903 C899 0.950 . S
H904 C901 0.950 . S
C905 C896 1.390 . S
C905 H898 0.950 . S
C905 C902 1.387 . S
C906 C907 1.387 . S
C906 H910 0.950 . S
C906 C915 1.390 . S
C907 C906 1.387 . S
C907 C909 1.387 . S
H908 C915 0.950 . S
C909 C907 1.387 . S
C909 C911 1.390 . S
C909 H913 0.950 . S
H910 C906 0.950 . S
C911 C909 1.390 . S
C911 C912 1.387 . S
C911 H914 0.950 . S
C912 C911 1.387 . S
C912 C915 1.387 . S
H913 C909 0.950 . S
H914 C911 0.950 . S
C915 C906 1.390 . S
C915 H908 0.950 . S
C915 C912 1.387 . S
C916 C917 1.387 . S
C916 H920 0.950 . S
C916 C925 1.390 . S
C917 C916 1.387 . S
C917 C919 1.387 . S
H918 C925 0.950 . S
C919 C917 1.387 . S
C919 C921 1.390 . S
C919 H923 0.950 . S
H920 C916 0.950 . S
C921 C919 1.390 . S
C921 C922 1.387 . S
C921 H924 0.950 . S
C922 C921 1.387 . S
C922 C925 1.387 . S
H923 C919 0.950 . S
H924 C921 0.950 . S
C925 C916 1.390 . S
C925 H918 0.950 . S
C925 C922 1.387 . S
C926 C927 1.387 . S
C926 H930 0.950 . S
C926 C935 1.390 . S
C927 C926 1.387 . S
C927 C929 1.387 . S
H928 C935 0.950 . S
C929 C927 1.387 . S
C929 C931 1.390 . S
C929 H933 0.950 . S
H930 C926 0.950 . S
C931 C929 1.390 . S
C931 C932 1.387 . S
C931 H934 0.950 . S
C932 C931 1.387 . S
C932 C935 1.387 . S
H933 C929 0.950 . S
H934 C931 0.950 . S
C935 C926 1.390 . S
C935 H928 0.950 . S
C935 C932 1.387 . S
C936 C937 1.387 . S
C936 H940 0.950 . S
C936 C945 1.390 . S
C937 C936 1.387 . S
C937 C939 1.387 . S
H938 C945 0.950 . S
C939 C937 1.387 . S
C939 C941 1.390 . S
C939 H943 0.950 . S
H940 C936 0.950 . S
C941 C939 1.390 . S
C941 C942 1.387 . S
C941 H944 0.950 . S
C942 C941 1.387 . S
C942 C945 1.387 . S
H943 C939 0.950 . S
H944 C941 0.950 . S
C945 C936 1.390 . S
C945 H938 0.950 . S
C945 C942 1.387 . S
C946 C947 1.387 . S
C946 H950 0.950 . S
C946 C955 1.390 . S
C947 C946 1.387 . S
C947 C949 1.387 . S
H948 C955 0.950 . S
C949 C947 1.387 . S
C949 C951 1.390 . S
C949 H953 0.950 . S
H950 C946 0.950 . S
C951 C949 1.390 . S
C951 C952 1.387 . S
C951 H954 0.950 . S
C952 C951 1.387 . S
C952 C955 1.387 . S
H953 C949 0.950 . S
H954 C951 0.950 . S
C955 C946 1.390 . S
C955 H948 0.950 . S
C955 C952 1.387 . S
C956 C957 1.387 . S
C956 H960 0.950 . S
C956 C965 1.390 . S
C957 C956 1.387 . S
C957 C959 1.387 . S
H958 C965 0.950 . S
C959 C957 1.387 . S
C959 C961 1.390 . S
C959 H963 0.950 . S
H960 C956 0.950 . S
C961 C959 1.390 . S
C961 C962 1.387 . S
C961 H964 0.950 . S
C962 C961 1.387 . S
C962 C965 1.387 . S
H963 C959 0.950 . S
H964 C961 0.950 . S
C965 C956 1.390 . S
C965 H958 0.950 . S
C965 C962 1.387 . S
C966 C967 1.387 . S
C966 H970 0.950 . S
C966 C975 1.390 . S
C967 C966 1.387 . S
C967 C969 1.387 . S
H968 C975 0.950 . S
C969 C967 1.387 . S
C969 C971 1.390 . S
C969 H973 0.950 . S
H970 C966 0.950 . S
C971 C969 1.390 . S
C971 C972 1.387 . S
C971 H974 0.950 . S
C972 C971 1.387 . S
C972 C975 1.387 . S
H973 C969 0.950 . S
H974 C971 0.950 . S
C975 C966 1.390 . S
C975 H968 0.950 . S
C975 C972 1.387 . S
C662 C407 1.427 . S
C657 C8 1.378 . S
C672 C444 1.404 . S
C667 C61 1.381 . S
C682 C480 1.422 . S
C677 C107 1.391 . S
C687 C139 1.391 . S
C692 C371 1.447 . S
C697 C192 1.399 . S
C702 C372 1.426 . S
C707 C238 1.386 . S
C712 C408 1.406 . S
C722 C443 1.427 . S
C717 C284 1.382 . S
C732 C479 1.446 . S
C727 C330 1.393 . S
C737 C100 1.381 . S
C742 C551 1.427 . S
C752 C588 1.406 . S
C747 C160 1.385 . S
C757 C15 1.395 . S
C762 C624 1.423 . S
C772 C515 1.447 . S
C767 C54 1.393 . S
C777 C291 1.390 . S
C782 C516 1.425 . S
C787 C337 1.381 . S
C792 C552 1.401 . S
C802 C587 1.427 . S
C797 C199 1.375 . S
C807 C245 1.387 . S
C812 C623 1.445 . S
C822 C442 1.677 . S
C817 C1 1.677 . S
C832 C478 1.667 . S
C827 C68 1.654 . S
C837 C114 1.619 . S
C842 C382 1.477 . S
C847 C146 1.641 . S
C852 C418 1.488 . S
C857 C185 1.641 . S
C862 C490 1.482 . S
C872 C370 1.678 . S
C867 C231 1.678 . S
C882 C406 1.688 . S
C877 C277 1.688 . S
C892 C454 1.495 . S
C887 C323 1.649 . S
C902 C586 1.689 . S
C897 C93 1.688 . S
C912 C622 1.679 . S
C907 C153 1.665 . S
C917 C22 1.626 . S
C922 C526 1.484 . S
C932 C562 1.495 . S
C927 C47 1.650 . S
C942 C634 1.474 . S
C937 C298 1.619 . S
C947 C344 1.655 . S
C952 C514 1.668 . S
C962 C550 1.678 . S
C957 C206 1.667 . S
C972 C598 1.488 . S
C967 C252 1.629 . S
